# Generated by pormake.
# Topology wir, (6)-cn, num edge types: 1
# Building blocks:
#     Node 0, Type 0, BuildingBlock: GEDQOX_clean_sbu_0, # of connection points: 6
#     Node 1, Type 0, BuildingBlock: GEDQOX_clean_sbu_0, # of connection points: 6
#     Node 2, Type 0, BuildingBlock: GEDQOX_clean_sbu_0, # of connection points: 6
#     Node 3, Type 0, BuildingBlock: GEDQOX_clean_sbu_0, # of connection points: 6
#     Node 4, Type 0, BuildingBlock: GEDQOX_clean_sbu_0, # of connection points: 6
#     Node 5, Type 0, BuildingBlock: GEDQOX_clean_sbu_0, # of connection points: 6
#     Node 6, Type 0, BuildingBlock: GEDQOX_clean_sbu_0, # of connection points: 6
#     Node 7, Type 0, BuildingBlock: GEDQOX_clean_sbu_0, # of connection points: 6
#     Node 8, Type 0, BuildingBlock: GEDQOX_clean_sbu_0, # of connection points: 6
#     Node 9, Type 0, BuildingBlock: GEDQOX_clean_sbu_0, # of connection points: 6
#     Node 10, Type 0, BuildingBlock: GEDQOX_clean_sbu_0, # of connection points: 6
#     Node 11, Type 0, BuildingBlock: GEDQOX_clean_sbu_0, # of connection points: 6
#     Node 12, Type 0, BuildingBlock: GEDQOX_clean_sbu_0, # of connection points: 6
#     Node 13, Type 0, BuildingBlock: GEDQOX_clean_sbu_0, # of connection points: 6
#     Node 14, Type 0, BuildingBlock: GEDQOX_clean_sbu_0, # of connection points: 6
#     Node 15, Type 0, BuildingBlock: GEDQOX_clean_sbu_0, # of connection points: 6
#     Node 16, Type 0, BuildingBlock: GEDQOX_clean_sbu_0, # of connection points: 6
#     Node 17, Type 0, BuildingBlock: GEDQOX_clean_sbu_0, # of connection points: 6
#     Node 18, Type 0, BuildingBlock: GEDQOX_clean_sbu_0, # of connection points: 6
#     Node 19, Type 0, BuildingBlock: GEDQOX_clean_sbu_0, # of connection points: 6
#     Node 20, Type 0, BuildingBlock: GEDQOX_clean_sbu_0, # of connection points: 6
#     Node 21, Type 0, BuildingBlock: GEDQOX_clean_sbu_0, # of connection points: 6
#     Node 22, Type 0, BuildingBlock: GEDQOX_clean_sbu_0, # of connection points: 6
#     Node 23, Type 0, BuildingBlock: GEDQOX_clean_sbu_0, # of connection points: 6
#     Node 24, Type 0, BuildingBlock: GEDQOX_clean_sbu_0, # of connection points: 6
#     Node 25, Type 0, BuildingBlock: GEDQOX_clean_sbu_0, # of connection points: 6
#     Node 26, Type 0, BuildingBlock: GEDQOX_clean_sbu_0, # of connection points: 6
#     Node 27, Type 0, BuildingBlock: GEDQOX_clean_sbu_0, # of connection points: 6
#     Node 28, Type 0, BuildingBlock: GEDQOX_clean_sbu_0, # of connection points: 6
#     Node 29, Type 0, BuildingBlock: GEDQOX_clean_sbu_0, # of connection points: 6
#     Node 30, Type 0, BuildingBlock: GEDQOX_clean_sbu_0, # of connection points: 6
#     Node 31, Type 0, BuildingBlock: GEDQOX_clean_sbu_0, # of connection points: 6
#     Edge 32, Type (0, 0), BuildingBlock: ZUJKAS_clean_linker_0, # of connection points: 2
#     Edge 33, Type (0, 0), BuildingBlock: ZUJKAS_clean_linker_0, # of connection points: 2
#     Edge 34, Type (0, 0), BuildingBlock: ZUJKAS_clean_linker_0, # of connection points: 2
#     Edge 35, Type (0, 0), BuildingBlock: ZUJKAS_clean_linker_0, # of connection points: 2
#     Edge 36, Type (0, 0), BuildingBlock: ZUJKAS_clean_linker_0, # of connection points: 2
#     Edge 37, Type (0, 0), BuildingBlock: ZUJKAS_clean_linker_0, # of connection points: 2
#     Edge 38, Type (0, 0), BuildingBlock: ZUJKAS_clean_linker_0, # of connection points: 2
#     Edge 39, Type (0, 0), BuildingBlock: ZUJKAS_clean_linker_0, # of connection points: 2
#     Edge 40, Type (0, 0), BuildingBlock: ZUJKAS_clean_linker_0, # of connection points: 2
#     Edge 41, Type (0, 0), BuildingBlock: ZUJKAS_clean_linker_0, # of connection points: 2
#     Edge 42, Type (0, 0), BuildingBlock: ZUJKAS_clean_linker_0, # of connection points: 2
#     Edge 43, Type (0, 0), BuildingBlock: ZUJKAS_clean_linker_0, # of connection points: 2
#     Edge 44, Type (0, 0), BuildingBlock: ZUJKAS_clean_linker_0, # of connection points: 2
#     Edge 45, Type (0, 0), BuildingBlock: ZUJKAS_clean_linker_0, # of connection points: 2
#     Edge 46, Type (0, 0), BuildingBlock: ZUJKAS_clean_linker_0, # of connection points: 2
#     Edge 47, Type (0, 0), BuildingBlock: ZUJKAS_clean_linker_0, # of connection points: 2
#     Edge 48, Type (0, 0), BuildingBlock: ZUJKAS_clean_linker_0, # of connection points: 2
#     Edge 49, Type (0, 0), BuildingBlock: ZUJKAS_clean_linker_0, # of connection points: 2
#     Edge 50, Type (0, 0), BuildingBlock: ZUJKAS_clean_linker_0, # of connection points: 2
#     Edge 51, Type (0, 0), BuildingBlock: ZUJKAS_clean_linker_0, # of connection points: 2
#     Edge 52, Type (0, 0), BuildingBlock: ZUJKAS_clean_linker_0, # of connection points: 2
#     Edge 53, Type (0, 0), BuildingBlock: ZUJKAS_clean_linker_0, # of connection points: 2
#     Edge 54, Type (0, 0), BuildingBlock: ZUJKAS_clean_linker_0, # of connection points: 2
#     Edge 55, Type (0, 0), BuildingBlock: ZUJKAS_clean_linker_0, # of connection points: 2
#     Edge 56, Type (0, 0), BuildingBlock: ZUJKAS_clean_linker_0, # of connection points: 2
#     Edge 57, Type (0, 0), BuildingBlock: ZUJKAS_clean_linker_0, # of connection points: 2
#     Edge 58, Type (0, 0), BuildingBlock: ZUJKAS_clean_linker_0, # of connection points: 2
#     Edge 59, Type (0, 0), BuildingBlock: ZUJKAS_clean_linker_0, # of connection points: 2
#     Edge 60, Type (0, 0), BuildingBlock: ZUJKAS_clean_linker_0, # of connection points: 2
#     Edge 61, Type (0, 0), BuildingBlock: ZUJKAS_clean_linker_0, # of connection points: 2
#     Edge 62, Type (0, 0), BuildingBlock: ZUJKAS_clean_linker_0, # of connection points: 2
#     Edge 63, Type (0, 0), BuildingBlock: ZUJKAS_clean_linker_0, # of connection points: 2
#     Edge 64, Type (0, 0), BuildingBlock: ZUJKAS_clean_linker_0, # of connection points: 2
#     Edge 65, Type (0, 0), BuildingBlock: ZUJKAS_clean_linker_0, # of connection points: 2
#     Edge 66, Type (0, 0), BuildingBlock: ZUJKAS_clean_linker_0, # of connection points: 2
#     Edge 67, Type (0, 0), BuildingBlock: ZUJKAS_clean_linker_0, # of connection points: 2
#     Edge 68, Type (0, 0), BuildingBlock: ZUJKAS_clean_linker_0, # of connection points: 2
#     Edge 69, Type (0, 0), BuildingBlock: ZUJKAS_clean_linker_0, # of connection points: 2
#     Edge 70, Type (0, 0), BuildingBlock: ZUJKAS_clean_linker_0, # of connection points: 2
#     Edge 71, Type (0, 0), BuildingBlock: ZUJKAS_clean_linker_0, # of connection points: 2
#     Edge 72, Type (0, 0), BuildingBlock: ZUJKAS_clean_linker_0, # of connection points: 2
#     Edge 73, Type (0, 0), BuildingBlock: ZUJKAS_clean_linker_0, # of connection points: 2
#     Edge 74, Type (0, 0), BuildingBlock: ZUJKAS_clean_linker_0, # of connection points: 2
#     Edge 75, Type (0, 0), BuildingBlock: ZUJKAS_clean_linker_0, # of connection points: 2
#     Edge 76, Type (0, 0), BuildingBlock: ZUJKAS_clean_linker_0, # of connection points: 2
#     Edge 77, Type (0, 0), BuildingBlock: ZUJKAS_clean_linker_0, # of connection points: 2
#     Edge 78, Type (0, 0), BuildingBlock: ZUJKAS_clean_linker_0, # of connection points: 2
#     Edge 79, Type (0, 0), BuildingBlock: ZUJKAS_clean_linker_0, # of connection points: 2
#     Edge 80, Type (0, 0), BuildingBlock: ZUJKAS_clean_linker_0, # of connection points: 2
#     Edge 81, Type (0, 0), BuildingBlock: ZUJKAS_clean_linker_0, # of connection points: 2
#     Edge 82, Type (0, 0), BuildingBlock: ZUJKAS_clean_linker_0, # of connection points: 2
#     Edge 83, Type (0, 0), BuildingBlock: ZUJKAS_clean_linker_0, # of connection points: 2
#     Edge 84, Type (0, 0), BuildingBlock: ZUJKAS_clean_linker_0, # of connection points: 2
#     Edge 85, Type (0, 0), BuildingBlock: ZUJKAS_clean_linker_0, # of connection points: 2
#     Edge 86, Type (0, 0), BuildingBlock: ZUJKAS_clean_linker_0, # of connection points: 2
#     Edge 87, Type (0, 0), BuildingBlock: ZUJKAS_clean_linker_0, # of connection points: 2
#     Edge 88, Type (0, 0), BuildingBlock: ZUJKAS_clean_linker_0, # of connection points: 2
#     Edge 89, Type (0, 0), BuildingBlock: ZUJKAS_clean_linker_0, # of connection points: 2
#     Edge 90, Type (0, 0), BuildingBlock: ZUJKAS_clean_linker_0, # of connection points: 2
#     Edge 91, Type (0, 0), BuildingBlock: ZUJKAS_clean_linker_0, # of connection points: 2
#     Edge 92, Type (0, 0), BuildingBlock: ZUJKAS_clean_linker_0, # of connection points: 2
#     Edge 93, Type (0, 0), BuildingBlock: ZUJKAS_clean_linker_0, # of connection points: 2
#     Edge 94, Type (0, 0), BuildingBlock: ZUJKAS_clean_linker_0, # of connection points: 2
#     Edge 95, Type (0, 0), BuildingBlock: ZUJKAS_clean_linker_0, # of connection points: 2
#     Edge 96, Type (0, 0), BuildingBlock: ZUJKAS_clean_linker_0, # of connection points: 2
#     Edge 97, Type (0, 0), BuildingBlock: ZUJKAS_clean_linker_0, # of connection points: 2
#     Edge 98, Type (0, 0), BuildingBlock: ZUJKAS_clean_linker_0, # of connection points: 2
#     Edge 99, Type (0, 0), BuildingBlock: ZUJKAS_clean_linker_0, # of connection points: 2
#     Edge 100, Type (0, 0), BuildingBlock: ZUJKAS_clean_linker_0, # of connection points: 2
#     Edge 101, Type (0, 0), BuildingBlock: ZUJKAS_clean_linker_0, # of connection points: 2
#     Edge 102, Type (0, 0), BuildingBlock: ZUJKAS_clean_linker_0, # of connection points: 2
#     Edge 103, Type (0, 0), BuildingBlock: ZUJKAS_clean_linker_0, # of connection points: 2
#     Edge 104, Type (0, 0), BuildingBlock: ZUJKAS_clean_linker_0, # of connection points: 2
#     Edge 105, Type (0, 0), BuildingBlock: ZUJKAS_clean_linker_0, # of connection points: 2
#     Edge 106, Type (0, 0), BuildingBlock: ZUJKAS_clean_linker_0, # of connection points: 2
#     Edge 107, Type (0, 0), BuildingBlock: ZUJKAS_clean_linker_0, # of connection points: 2
#     Edge 108, Type (0, 0), BuildingBlock: ZUJKAS_clean_linker_0, # of connection points: 2
#     Edge 109, Type (0, 0), BuildingBlock: ZUJKAS_clean_linker_0, # of connection points: 2
#     Edge 110, Type (0, 0), BuildingBlock: ZUJKAS_clean_linker_0, # of connection points: 2
#     Edge 111, Type (0, 0), BuildingBlock: ZUJKAS_clean_linker_0, # of connection points: 2
#     Edge 112, Type (0, 0), BuildingBlock: ZUJKAS_clean_linker_0, # of connection points: 2
#     Edge 113, Type (0, 0), BuildingBlock: ZUJKAS_clean_linker_0, # of connection points: 2
#     Edge 114, Type (0, 0), BuildingBlock: ZUJKAS_clean_linker_0, # of connection points: 2
#     Edge 115, Type (0, 0), BuildingBlock: ZUJKAS_clean_linker_0, # of connection points: 2
#     Edge 116, Type (0, 0), BuildingBlock: ZUJKAS_clean_linker_0, # of connection points: 2
#     Edge 117, Type (0, 0), BuildingBlock: ZUJKAS_clean_linker_0, # of connection points: 2
#     Edge 118, Type (0, 0), BuildingBlock: ZUJKAS_clean_linker_0, # of connection points: 2
#     Edge 119, Type (0, 0), BuildingBlock: ZUJKAS_clean_linker_0, # of connection points: 2
#     Edge 120, Type (0, 0), BuildingBlock: ZUJKAS_clean_linker_0, # of connection points: 2
#     Edge 121, Type (0, 0), BuildingBlock: ZUJKAS_clean_linker_0, # of connection points: 2
#     Edge 122, Type (0, 0), BuildingBlock: ZUJKAS_clean_linker_0, # of connection points: 2
#     Edge 123, Type (0, 0), BuildingBlock: ZUJKAS_clean_linker_0, # of connection points: 2
#     Edge 124, Type (0, 0), BuildingBlock: ZUJKAS_clean_linker_0, # of connection points: 2
#     Edge 125, Type (0, 0), BuildingBlock: ZUJKAS_clean_linker_0, # of connection points: 2
#     Edge 126, Type (0, 0), BuildingBlock: ZUJKAS_clean_linker_0, # of connection points: 2
#     Edge 127, Type (0, 0), BuildingBlock: ZUJKAS_clean_linker_0, # of connection points: 2
# Relax obj value: 0.466
# Max RMSD: 0.214
# Mean RMSD: 0.214
data_MOF--net-wir--node1-GEDQOX_clean_sbu_0--edge1-ZUJKAS_clean_linker_0
_symmetry_space_group_name_H-M    P1
_symmetry_Int_Tables_number       1
_symmetry_cell_setting            triclinic
loop_
_symmetry_equiv_pos_as_xyz
'x, y, z'
_cell_length_a     49.084696
_cell_length_b     49.160528
_cell_length_c     136.02616
_cell_angle_alpha  90.003382
_cell_angle_beta   90.005048
_cell_angle_gamma 89.869892
loop_
_atom_site_label
_atom_site_type_symbol
_atom_site_fract_x
_atom_site_fract_y
_atom_site_fract_z
_atom_type_partial_charge
Nd0 Nd 0.14924 0.10983 0.37463 0.0
Nd1 Nd 0.18755 0.13928 0.37157 0.0
C2 C 0.10108 0.0858 0.37322 0.0
C3 C 0.07319 0.09677 0.37348 0.0
C4 C 0.06616 0.12014 0.36808 0.0
C5 C 1.04195 0.13406 0.37009 0.0
C6 C 1.0245 0.12495 0.37758 0.0
C7 C 1.0306 0.10029 0.38239 0.0
C8 C 0.0547 0.08633 0.38033 0.0
C9 C 0.18848 0.08659 0.3873 0.0
C10 C 0.16257 0.14663 0.39233 0.0
C11 C 0.23509 0.15963 0.36583 0.0
C12 C 0.24358 0.17793 0.35787 0.0
C13 C 0.27129 0.18279 0.3562 0.0
C14 C 0.27945 0.2 0.34856 0.0
C15 C 0.25997 0.21264 0.34248 0.0
C16 C 0.23216 0.20763 0.34421 0.0
C17 C 0.22405 0.1904 0.35183 0.0
C18 C 0.14419 0.17684 0.37106 0.0
C19 C 0.17247 0.10172 0.35312 0.0
O20 O 0.11594 0.09215 0.36562 0.0
O21 O 0.11454 0.08791 0.38142 0.0
O22 O 0.16268 0.08896 0.38894 0.0
O23 O 0.19391 0.09615 0.37865 0.0
O24 O 0.1412 0.14024 0.38706 0.0
O25 O 0.18659 0.14311 0.38832 0.0
O26 O 0.22606 0.13591 0.36308 0.0
O27 O 0.22003 0.17047 0.37267 0.0
O28 O 0.16794 0.18084 0.37489 0.0
O29 O 0.14326 0.15261 0.36743 0.0
O30 O 0.17846 0.12706 0.35521 0.0
O31 O 0.16496 0.08697 0.36067 0.0
H32 H 0.08006 0.1286 0.36271 0.0
H33 H 1.03764 0.15273 0.36615 0.0
H34 H 1.01788 0.09278 0.38829 0.0
H35 H 0.05977 0.06839 0.38459 0.0
H36 H 0.28662 0.1733 0.36081 0.0
H37 H 0.301 0.20366 0.3475 0.0
H38 H 0.21667 0.21673 0.33958 0.0
H39 H 0.20253 0.1867 0.353 0.0
Nd40 Nd 0.23944 0.89679 0.62445 0.0
Nd41 Nd 0.20973 0.93485 0.62152 0.0
C42 C 0.26401 0.84891 0.62284 0.0
C43 C 0.25362 0.82089 0.62331 0.0
C44 C 0.23033 0.81311 0.618 0.0
C45 C 0.21722 0.78861 0.62012 0.0
C46 C 0.22697 0.77165 0.62767 0.0
C47 C 0.25151 0.77863 0.63242 0.0
C48 C 0.26472 0.80294 0.63022 0.0
C49 C 0.26227 0.93565 0.63731 0.0
C50 C 0.20251 0.90936 0.64221 0.0
C51 C 0.1893 0.98241 0.61581 0.0
C52 C 0.17117 0.99093 0.60779 0.0
C53 C 0.16726 1.01861 0.60582 0.0
C54 C 0.15039 1.02677 0.59806 0.0
C55 C 0.13718 1.00732 0.59216 0.0
C56 C 0.1412 0.97953 0.59421 0.0
C57 C 0.15808 0.97142 0.60195 0.0
C58 C 0.17225 0.89167 0.62097 0.0
C59 C 0.24738 0.92026 0.60302 0.0
O60 O 0.25663 0.86351 0.6153 0.0
O61 O 0.26252 0.86248 0.63104 0.0
O62 O 0.25995 0.90984 0.63886 0.0
O63 O 0.25283 0.94128 0.62865 0.0
O64 O 0.20918 0.88819 0.63687 0.0
O65 O 0.20572 0.93347 0.63826 0.0
O66 O 0.21318 0.97347 0.61314 0.0
O67 O 0.17834 0.96728 0.62259 0.0
O68 O 0.16812 0.91539 0.62479 0.0
O69 O 0.19652 0.8907 0.61734 0.0
O70 O 0.2219 0.92585 0.60513 0.0
O71 O 0.26229 0.91298 0.61056 0.0
H72 H 0.22133 0.82659 0.61259 0.0
H73 H 0.19868 0.78367 0.61619 0.0
H74 H 0.25953 0.7664 0.63837 0.0
H75 H 0.28262 0.8086 0.63441 0.0
H76 H 0.17738 1.03391 0.61023 0.0
H77 H 0.14804 1.0483 0.5966 0.0
H78 H 0.13108 0.96403 0.5899 0.0
H79 H 0.16094 0.94991 0.60338 0.0
Nd80 Nd 0.45168 0.98747 0.87456 0.0
Nd81 Nd 0.41338 0.95815 0.87185 0.0
C82 C 0.50004 1.01073 0.87266 0.0
C83 C 0.52761 0.99901 0.87275 0.0
C84 C 0.53323 0.97446 0.86784 0.0
C85 C 0.55722 0.96015 0.86981 0.0
C86 C 0.57575 0.96989 0.87687 0.0
C87 C 0.57094 0.99557 0.88116 0.0
C88 C 0.54714 1.01 0.87908 0.0
C89 C 0.41314 1.01135 0.88735 0.0
C90 C 0.43859 0.95175 0.89264 0.0
C91 C 0.36583 0.93743 0.86626 0.0
C92 C 0.35718 0.91976 0.85815 0.0
C93 C 0.32946 0.91476 0.85657 0.0
C94 C 0.32116 0.89817 0.84877 0.0
C95 C 0.34052 0.8863 0.84244 0.0
C96 C 0.36834 0.89145 0.84408 0.0
C97 C 0.37659 0.90808 0.85186 0.0
C98 C 0.45688 0.92073 0.87151 0.0
C99 C 0.42781 0.99544 0.85322 0.0
O100 O 0.4846 1.00449 0.86521 0.0
O101 O 0.48705 1.00918 0.88098 0.0
O102 O 0.43904 1.0091 0.8888 0.0
O103 O 0.40724 1.00145 0.87878 0.0
O104 O 0.45988 0.95807 0.8873 0.0
O105 O 0.4145 0.95487 0.88862 0.0
O106 O 0.37421 0.96157 0.86375 0.0
O107 O 0.38156 0.92624 0.87282 0.0
O108 O 0.43362 0.91724 0.87578 0.0
O109 O 0.45725 0.94445 0.86747 0.0
O110 O 0.4221 0.97008 0.8554 0.0
O111 O 0.43536 1.01036 0.86072 0.0
H112 H 0.51841 0.96549 0.86292 0.0
H113 H 0.56045 0.94074 0.86623 0.0
H114 H 0.58441 1.00367 0.88673 0.0
H115 H 0.54309 1.0288 0.88299 0.0
H116 H 0.31424 0.92367 0.86136 0.0
H117 H 0.29961 0.89437 0.84777 0.0
H118 H 0.38373 0.88295 0.83926 0.0
H119 H 0.39811 0.9119 0.85295 0.0
Nd120 Nd 0.36379 0.2019 0.12496 0.0
Nd121 Nd 0.39284 0.16183 0.12176 0.0
C122 C 0.34188 0.25123 0.12398 0.0
C123 C 0.35464 0.27795 0.12496 0.0
C124 C 0.38191 0.27946 0.12792 0.0
C125 C 0.39408 0.30459 0.12955 0.0
C126 C 0.3791 0.32876 0.1283 0.0
C127 C 0.352 0.32719 0.12493 0.0
C128 C 0.33985 0.30187 0.12326 0.0
C129 C 0.33946 0.16259 0.13727 0.0
C130 C 0.39929 0.18543 0.14278 0.0
C131 C 0.41321 0.11413 0.11617 0.0
C132 C 0.43127 0.10555 0.10814 0.0
C133 C 0.4361 0.07787 0.10644 0.0
C134 C 0.45287 0.06967 0.09867 0.0
C135 C 0.46504 0.08908 0.09246 0.0
C136 C 0.46014 0.11687 0.09425 0.0
C137 C 0.44338 0.12501 0.10201 0.0
C138 C 0.4306 0.20507 0.12135 0.0
C139 C 0.3546 0.17829 0.10336 0.0
O140 O 0.34923 0.23734 0.11627 0.0
O141 O 0.34206 0.23648 0.13192 0.0
O142 O 0.34183 0.1883 0.139 0.0
O143 O 0.34924 0.15733 0.12862 0.0
O144 O 0.39394 0.20741 0.13767 0.0
O145 O 0.39559 0.16186 0.13848 0.0
O146 O 0.38932 0.12304 0.11349 0.0
O147 O 0.42421 0.12937 0.1229 0.0
O148 O 0.43445 0.18138 0.12522 0.0
O149 O 0.40649 0.2059 0.11762 0.0
O150 O 0.37917 0.16935 0.10546 0.0
O151 O 0.34079 0.18852 0.11075 0.0
H152 H 0.39353 0.26109 0.1293 0.0
H153 H 0.41475 0.30494 0.13233 0.0
H154 H 0.34 0.34547 0.12388 0.0
H155 H 0.31878 0.30096 0.12091 0.0
H156 H 0.42676 0.0626 0.11108 0.0
H157 H 0.45595 1.04812 0.09742 0.0
H158 H 0.46948 0.13235 0.0897 0.0
H159 H 0.43982 0.14652 0.10324 0.0
Nd160 Nd 0.14915 0.98715 0.22914 0.0
Nd161 Nd 0.18727 0.9575 0.23222 0.0
C162 C 0.10098 1.01135 0.23064 0.0
C163 C 0.07309 1.00049 0.23044 0.0
C164 C 0.06628 0.97692 0.23574 0.0
C165 C 1.04199 0.9632 0.23377 0.0
C166 C 1.02427 0.97268 0.2264 0.0
C167 C 1.03019 0.99751 0.22171 0.0
C168 C 0.05435 1.0113 0.22373 0.0
C169 C 0.18836 1.01041 0.21653 0.0
C170 C 0.16296 0.95075 0.21131 0.0
C171 C 0.23476 0.93705 0.23806 0.0
C172 C 0.24327 0.91919 0.24614 0.0
C173 C 0.271 0.91484 0.24799 0.0
C174 C 0.27919 0.89819 0.25579 0.0
C175 C 0.25971 0.88561 0.26187 0.0
C176 C 0.23188 0.89006 0.25995 0.0
C177 C 0.22374 0.90675 0.25217 0.0
C178 C 0.1439 0.92015 0.23256 0.0
C179 C 0.17225 0.99502 0.25067 0.0
O180 O 0.11595 1.00497 0.2382 0.0
O181 O 0.1143 1.00914 0.2224 0.0
O182 O 0.16253 1.00835 0.21492 0.0
O183 O 0.19382 1.00061 0.22516 0.0
O184 O 0.14143 0.95743 0.21648 0.0
O185 O 0.18683 0.95368 0.21549 0.0
O186 O 0.22587 0.961 0.24064 0.0
O187 O 0.21957 0.92593 0.23133 0.0
O188 O 0.16769 0.91612 0.22875 0.0
O189 O 0.14294 0.94432 0.23625 0.0
O190 O 0.17801 0.96961 0.24857 0.0
O191 O 0.16495 1.00989 0.24311 0.0
H192 H 0.08039 0.96815 0.24098 0.0
H193 H 1.03783 0.94439 0.23762 0.0
H194 H 1.01727 1.00532 0.2159 0.0
H195 H 0.05927 1.02939 0.21954 0.0
H196 H 0.28632 0.92434 0.2434 0.0
H197 H 0.30076 0.89493 0.257 0.0
H198 H 0.21638 0.88099 0.26457 0.0
H199 H 0.2022 0.91007 0.25087 0.0
Nd200 Nd 0.36413 0.89603 0.47943 0.0
Nd201 Nd 0.39358 0.9347 0.48212 0.0
C202 C 0.34188 0.84728 0.48127 0.0
C203 C 0.35489 0.82034 0.48151 0.0
C204 C 0.38009 0.81668 0.48624 0.0
C205 C 0.39571 0.79343 0.48444 0.0
C206 C 0.38655 0.77365 0.47775 0.0
C207 C 0.36028 0.77643 0.47368 0.0
C208 C 0.3446 0.79956 0.47556 0.0
C209 C 0.33986 0.93473 0.46678 0.0
C210 C 0.39947 0.90968 0.46129 0.0
C211 C 0.4146 0.98214 0.48761 0.0
C212 C 0.43221 0.99083 0.49574 0.0
C213 C 0.43843 1.0184 0.49698 0.0
C214 C 0.45496 1.02674 0.50479 0.0
C215 C 0.46551 1.00761 0.5115 0.0
C216 C 0.45918 0.97993 0.51018 0.0
C217 C 0.44266 0.97163 0.50238 0.0
C218 C 0.43084 0.89107 0.48249 0.0
C219 C 0.35609 0.92005 0.50078 0.0
O220 O 0.34666 0.86324 0.48872 0.0
O221 O 0.3439 0.85997 0.47291 0.0
O222 O 0.34177 0.90883 0.46532 0.0
O223 O 0.35008 0.9405 0.47531 0.0
O224 O 0.39349 0.88836 0.46664 0.0
O225 O 0.39632 0.93369 0.46533 0.0
O226 O 0.39032 0.97402 0.49008 0.0
O227 O 0.42582 0.96619 0.48113 0.0
O228 O 0.43434 0.91413 0.47812 0.0
O229 O 0.40717 0.89097 0.48659 0.0
O230 O 0.38136 0.92633 0.49857 0.0
O231 O 0.34124 0.91191 0.49334 0.0
H232 H 0.38854 0.83252 0.49085 0.0
H233 H 0.41562 0.79177 0.48782 0.0
H234 H 0.35262 0.76189 0.46838 0.0
H235 H 0.32533 0.80212 0.47178 0.0
H236 H 0.43039 1.03347 0.49194 0.0
H237 H 0.45916 1.04823 0.50566 0.0
H238 H 0.46725 0.96463 0.51512 0.0
H239 H 0.43806 0.95021 0.50151 0.0
Nd240 Nd 0.45158 0.11149 0.7294 0.0
Nd241 Nd 0.41294 0.14059 0.73239 0.0
C242 C 0.50072 0.08951 0.731 0.0
C243 C 0.52766 0.10244 0.73114 0.0
C244 C 0.53124 0.12786 0.73568 0.0
C245 C 0.55438 0.14337 0.73371 0.0
C246 C 0.57414 0.13387 0.72706 0.0
C247 C 0.57154 0.10739 0.72321 0.0
C248 C 0.54848 0.09182 0.72524 0.0
C249 C 0.41297 0.08682 0.71693 0.0
C250 C 0.43533 0.14584 0.71121 0.0
C251 C 0.36565 0.16149 0.73826 0.0
C252 C 0.3571 0.17899 0.74644 0.0
C253 C 0.32938 0.18372 0.74816 0.0
C254 C 0.32114 0.20019 0.756 0.0
C255 C 0.34056 0.2122 0.76225 0.0
C256 C 0.36839 0.20732 0.76047 0.0
C257 C 0.37658 0.19082 0.75264 0.0
C258 C 0.4565 0.17793 0.73237 0.0
C259 C 0.42825 0.1028 0.75082 0.0
O260 O 0.48497 0.09426 0.73852 0.0
O261 O 0.48774 0.09165 0.7227 0.0
O262 O 0.43887 0.08879 0.71543 0.0
O263 O 0.40709 0.09718 0.72544 0.0
O264 O 0.45742 0.1402 0.71624 0.0
O265 O 0.41189 0.14293 0.71567 0.0
O266 O 0.37409 0.13726 0.74068 0.0
O267 O 0.38123 0.17278 0.73169 0.0
O268 O 0.43322 0.18125 0.7281 0.0
O269 O 0.45686 0.15439 0.73652 0.0
O270 O 0.42202 0.12814 0.74875 0.0
O271 O 0.43607 0.08818 0.74327 0.0
H272 H 0.51536 0.13653 0.74024 0.0
H273 H 0.55595 0.16349 0.73691 0.0
H274 H 0.58612 0.09949 0.71795 0.0
H275 H 0.54597 0.07236 0.72161 0.0
H276 H 0.3141 0.17458 0.74346 0.0
H277 H 0.29955 0.20323 0.75724 0.0
H278 H 0.38388 0.21651 0.76506 0.0
H279 H 0.39812 0.18733 0.7514 0.0
Nd280 Nd 0.23808 0.2028 0.97927 0.0
Nd281 Nd 0.20888 0.1632 0.98236 0.0
C282 C 0.2614 0.25135 0.98037 0.0
C283 C 0.25005 0.27905 0.9804 0.0
C284 C 0.22681 0.2854 0.98599 0.0
C285 C 0.21233 0.30939 0.9842 0.0
C286 C 0.22082 0.32732 0.97677 0.0
C287 C 0.24544 0.32195 0.97181 0.0
C288 C 0.25991 0.29803 0.97362 0.0
C289 C 0.26169 0.16349 0.96669 0.0
C290 C 0.20133 0.18847 0.9616 0.0
C291 C 0.18846 0.11546 0.98778 0.0
C292 C 0.17017 0.10685 0.99573 0.0
C293 C 0.16595 0.07915 0.99756 0.0
C294 C 0.14899 0.07094 1.00527 0.0
C295 C 0.13601 0.09036 1.01129 0.0
C296 C 0.1403 0.11815 1.00937 0.0
C297 C 0.15726 0.12631 1.00166 0.0
C298 C 0.17123 0.20657 0.98308 0.0
C299 C 0.24682 0.17894 1.00087 0.0
O300 O 0.25638 0.23627 0.98803 0.0
O301 O 0.2582 0.23808 0.97218 0.0
O302 O 0.25922 0.18921 0.96504 0.0
O303 O 0.25229 0.15819 0.97538 0.0
O304 O 0.20737 0.20994 0.96687 0.0
O305 O 0.20512 0.16451 0.96562 0.0
O306 O 0.21227 0.12424 0.99055 0.0
O307 O 0.17764 0.13081 0.98102 0.0
O308 O 0.1672 0.18294 0.9792 0.0
O309 O 0.19549 0.20733 0.9867 0.0
O310 O 0.22225 0.17027 0.99871 0.0
O311 O 0.26077 0.18906 0.99351 0.0
H312 H 0.21888 0.27111 0.99133 0.0
H313 H 0.19367 0.31314 0.98824 0.0
H314 H 0.25247 0.33507 0.96595 0.0
H315 H 0.27776 0.29347 0.96922 0.0
H316 H 0.17592 0.06388 0.99307 0.0
H317 H 0.14642 1.04939 1.00662 0.0
H318 H 0.13036 0.13364 1.01376 0.0
H319 H 0.16035 0.14783 1.00035 0.0
Nd320 Nd 0.91119 0.95793 0.73205 0.0
Nd321 Nd 0.95094 0.98705 0.72933 0.0
C322 C 0.86321 0.93731 0.73718 0.0
C323 C 0.85432 0.91917 0.74512 0.0
C324 C 0.82663 0.91338 0.74639 0.0
C325 C 0.81816 0.89636 0.75404 0.0
C326 C 0.83731 0.88485 0.76054 0.0
C327 C 0.8651 0.8908 0.75921 0.0
C328 C 0.87352 0.90783 0.75158 0.0
C329 C 0.95463 0.92036 0.7328 0.0
C330 C 0.92651 0.99532 0.75079 0.0
C331 C 0.99962 1.00999 0.7307 0.0
C332 C 1.0273 0.99857 0.73039 0.0
C333 C 1.03381 0.9745 0.73546 0.0
C334 C 0.05819 0.96082 0.73351 0.0
C335 C 0.07625 0.9707 0.72632 0.0
C336 C 0.07037 0.99582 0.72177 0.0
C337 C 1.04621 1.00964 0.72383 0.0
C338 C 0.91186 1.01087 0.71665 0.0
C339 C 0.93758 0.95069 0.71145 0.0
O340 O 0.87168 0.96121 0.73992 0.0
O341 O 0.87906 0.92646 0.73058 0.0
O342 O 0.93139 0.9167 0.72856 0.0
O343 O 0.95506 0.94429 0.73667 0.0
O344 O 0.91795 0.9708 0.74851 0.0
O345 O 0.93671 1.0095 0.74351 0.0
O346 O 0.98475 1.00385 0.73831 0.0
O347 O 0.98606 1.00819 0.72251 0.0
O348 O 0.93765 1.00826 0.71504 0.0
O349 O 0.90648 1.0015 0.72532 0.0
O350 O 0.95877 0.95663 0.7169 0.0
O351 O 0.91334 0.95456 0.71528 0.0
H352 H 0.81156 0.922 0.74146 0.0
H353 H 0.79665 0.89196 0.7548 0.0
H354 H 0.88033 0.88262 0.76416 0.0
H355 H 0.89501 0.91226 0.75073 0.0
H356 H 1.01948 0.96547 0.74055 0.0
H357 H 0.06221 0.94184 0.73728 0.0
H358 H 0.08336 1.00398 0.71607 0.0
H359 H 1.04147 1.02807 0.7198 0.0
Nd360 Nd 0.89295 0.16395 0.48245 0.0
Nd361 Nd 0.86375 0.20242 0.47945 0.0
C362 C 0.9128 0.11616 0.48819 0.0
C363 C 0.93091 0.10744 0.49618 0.0
C364 C 0.93468 0.07972 0.49812 0.0
C365 C 0.95157 0.07137 0.50584 0.0
C366 C 0.96494 0.09068 0.51176 0.0
C367 C 0.96107 0.11851 0.50975 0.0
C368 C 0.94417 0.12681 0.50204 0.0
C369 C 0.93107 0.2066 0.48302 0.0
C370 C 0.85527 0.17906 0.50089 0.0
C371 C 0.83998 0.25076 0.48099 0.0
C372 C 0.85188 0.27793 0.48027 0.0
C373 C 0.8798 0.28037 0.47836 0.0
C374 C 0.89124 0.30579 0.47664 0.0
C375 C 0.87487 0.32929 0.47671 0.0
C376 C 0.84705 0.32688 0.47911 0.0
C377 C 0.83561 0.30129 0.48088 0.0
C378 C 0.84056 0.16353 0.46668 0.0
C379 C 0.90083 0.18912 0.46174 0.0
O380 O 0.88909 0.12547 0.4909 0.0
O381 O 0.92388 0.13108 0.48138 0.0
O382 O 0.93474 0.18286 0.47916 0.0
O383 O 0.90677 0.20801 0.48661 0.0
O384 O 0.8807 0.17308 0.49882 0.0
O385 O 0.84057 0.18661 0.49332 0.0
O386 O 0.84793 0.2365 0.48854 0.0
O387 O 0.84057 0.23669 0.47289 0.0
O388 O 0.84322 0.18927 0.46503 0.0
O389 O 0.84977 0.15811 0.47539 0.0
O390 O 0.89415 0.21042 0.46701 0.0
O391 O 0.8973 0.1651 0.46572 0.0
H392 H 0.92444 0.06453 0.49369 0.0
H393 H 0.95381 0.04981 0.50726 0.0
H394 H 0.97132 0.1339 0.51407 0.0
H395 H 0.94143 0.14835 0.50064 0.0
H396 H 0.89252 0.2624 0.47778 0.0
H397 H 0.91256 0.30675 0.47462 0.0
H398 H 0.83397 0.34465 0.47925 0.0
H399 H 0.814 0.29966 0.48238 0.0
Nd400 Nd 0.68775 0.14238 0.23203 0.0
Nd401 Nd 0.64783 0.11348 0.22912 0.0
C402 C 0.73593 0.16233 0.23722 0.0
C403 C 0.74493 0.18104 0.24496 0.0
C404 C 0.77271 0.18378 0.24707 0.0
C405 C 0.78127 0.201 0.25465 0.0
C406 C 0.76212 0.21577 0.26022 0.0
C407 C 0.73425 0.21298 0.25803 0.0
C408 C 0.72574 0.1957 0.25048 0.0
C409 C 0.64473 0.18047 0.23288 0.0
C410 C 0.67211 0.1048 0.25065 0.0
C411 C 0.59901 0.09063 0.23039 0.0
C412 C 0.57183 0.10276 0.22978 0.0
C413 C 0.56938 0.13043 0.2275 0.0
C414 C 0.5438 0.14203 0.22606 0.0
C415 C 0.52017 0.12604 0.22678 0.0
C416 C 0.52267 0.0985 0.2295 0.0
C417 C 0.54841 0.08693 0.23101 0.0
C418 C 0.68695 0.08964 0.21649 0.0
C419 C 0.66212 0.14978 0.21133 0.0
O420 O 0.72672 0.13896 0.24025 0.0
O421 O 0.7207 0.17287 0.23036 0.0
O422 O 0.66836 0.18423 0.22894 0.0
O423 O 0.6437 0.15622 0.23646 0.0
O424 O 0.68086 0.12928 0.24843 0.0
O425 O 0.66181 0.09081 0.24333 0.0
O426 O 0.6133 0.09783 0.23801 0.0
O427 O 0.61314 0.09166 0.22231 0.0
O428 O 0.66119 0.0924 0.21483 0.0
O429 O 0.69227 0.09885 0.2252 0.0
O430 O 0.64064 0.14405 0.21666 0.0
O431 O 0.68613 0.14584 0.21531 0.0
H432 H 0.78776 0.17252 0.24289 0.0
H433 H 0.80288 0.20292 0.2561 0.0
H434 H 0.71898 0.22375 0.26227 0.0
H435 H 0.70415 0.19361 0.24899 0.0
H436 H 0.58738 0.14278 0.22643 0.0
H437 H 0.54272 0.1631 0.22376 0.0
H438 H 0.5048 0.08573 0.23012 0.0
H439 H 0.55006 0.06553 0.23281 0.0
Nd440 Nd 0.70778 0.93513 0.98224 0.0
Nd441 Nd 0.73699 0.89661 0.97947 0.0
C442 C 0.68799 0.98308 0.98781 0.0
C443 C 0.67023 0.99182 0.9959 0.0
C444 C 0.66563 1.01954 0.9976 0.0
C445 C 0.64916 1.02788 1.00544 0.0
C446 C 0.63706 1.00857 1.01171 0.0
C447 C 0.64172 0.98075 1.00992 0.0
C448 C 0.65819 0.97246 1.00209 0.0
C449 C 0.66959 0.8926 0.98292 0.0
C450 C 0.74504 0.92044 1.00083 0.0
C451 C 0.76081 0.84834 0.9812 0.0
C452 C 0.74902 0.82112 0.98045 0.0
C453 C 0.72114 0.81858 0.97846 0.0
C454 C 0.70984 0.7931 0.97671 0.0
C455 C 0.72629 0.76966 0.97684 0.0
C456 C 0.75405 0.77218 0.97932 0.0
C457 C 0.76535 0.79782 0.98112 0.0
C458 C 0.76022 0.93514 0.96655 0.0
C459 C 0.70014 0.90912 0.96166 0.0
O460 O 0.7119 0.97403 0.9904 0.0
O461 O 0.67668 0.96785 0.98114 0.0
O462 O 0.66601 0.91621 0.97895 0.0
O463 O 0.69385 0.89123 0.98656 0.0
O464 O 0.71966 0.92632 0.99867 0.0
O465 O 0.75994 0.91277 0.99333 0.0
O466 O 0.75253 0.86266 0.98868 0.0
O467 O 0.76051 0.86231 0.97308 0.0
O468 O 0.75747 0.90936 0.96499 0.0
O469 O 0.75105 0.94078 0.97524 0.0
O470 O 0.70661 0.88805 0.96708 0.0
O471 O 0.7037 0.93332 0.96549 0.0
H472 H 0.67493 1.03473 0.99292 0.0
H473 H 0.64625 1.04945 1.00669 0.0
H474 H 0.63243 0.96534 1.01451 0.0
H475 H 0.66157 0.95093 1.00086 0.0
H476 H 0.70837 0.83649 0.97784 0.0
H477 H 0.68856 0.79206 0.97462 0.0
H478 H 0.76719 0.75446 0.97951 0.0
H479 H 0.78692 0.79953 0.98268 0.0
Nd480 Nd 0.91087 0.13993 0.87191 0.0
Nd481 Nd 0.95134 0.11128 0.87498 0.0
C482 C 0.86305 0.16032 0.86643 0.0
C483 C 0.85471 0.17929 0.85865 0.0
C484 C 0.82729 0.18125 0.85589 0.0
C485 C 0.81948 0.19858 0.84823 0.0
C486 C 0.83903 0.21421 0.8432 0.0
C487 C 0.86651 0.21225 0.84607 0.0
C488 C 0.87428 0.19488 0.8537 0.0
C489 C 0.95401 0.1779 0.87136 0.0
C490 C 0.92724 0.10176 0.85346 0.0
C491 C 1.00121 0.09068 0.87391 0.0
C492 C 1.02736 0.10473 0.8747 0.0
C493 C 1.02758 0.13218 0.87747 0.0
C494 C 0.05213 0.14559 0.87903 0.0
C495 C 0.07703 0.13175 0.87786 0.0
C496 C 0.07672 0.10454 0.87459 0.0
C497 C 0.05198 0.09109 0.87304 0.0
C498 C 0.91232 0.08662 0.88735 0.0
C499 C 0.93457 0.14656 0.89287 0.0
O500 O 0.87232 0.13692 0.86342 0.0
O501 O 0.87785 0.17055 0.87345 0.0
O502 O 0.93041 0.18156 0.87535 0.0
O503 O 0.95485 0.15388 0.86762 0.0
O504 O 0.91794 0.12614 0.8556 0.0
O505 O 0.93802 0.08814 0.8608 0.0
O506 O 0.98679 0.09702 0.86621 0.0
O507 O 0.98666 0.09061 0.8819 0.0
O508 O 0.93808 0.08922 0.88905 0.0
O509 O 0.90695 0.09623 0.87869 0.0
O510 O 0.95657 0.14143 0.88771 0.0
O511 O 0.91096 0.14256 0.88863 0.0
H512 H 0.81197 0.16916 0.85959 0.0
H513 H 0.79822 0.19931 0.84612 0.0
H514 H 0.88204 0.22425 0.84245 0.0
H515 H 0.8956 0.19352 0.85572 0.0
H516 H 1.00866 0.143 0.87876 0.0
H517 H 0.05144 0.16632 0.8817 0.0
H518 H 0.09556 0.0934 0.87355 0.0
H519 H 0.05207 0.06993 0.87081 0.0
Nd520 Nd 0.70823 0.16435 0.62142 0.0
Nd521 Nd 0.73774 0.20232 0.62452 0.0
C522 C 0.68851 0.11662 0.61566 0.0
C523 C 0.67086 0.10787 0.60755 0.0
C524 C 0.66498 0.08025 0.60625 0.0
C525 C 0.64843 0.07185 0.59845 0.0
C526 C 0.63755 0.09098 0.59181 0.0
C527 C 0.64353 0.11871 0.59319 0.0
C528 C 0.66004 0.12707 0.60099 0.0
C529 C 0.67052 0.20739 0.62059 0.0
C530 C 0.74608 0.17904 0.60305 0.0
C531 C 0.76256 0.25001 0.62309 0.0
C532 C 0.75189 0.27799 0.62334 0.0
C533 C 0.7284 0.28517 0.61801 0.0
C534 C 0.71485 0.30957 0.62 0.0
C535 C 0.7244 0.32705 0.62741 0.0
C536 C 0.74913 0.32072 0.63215 0.0
C537 C 0.76275 0.29644 0.63012 0.0
C538 C 0.75977 0.1632 0.63751 0.0
C539 C 0.69911 0.19057 0.64192 0.0
O540 O 0.71243 0.12567 0.61313 0.0
O541 O 0.67705 0.13179 0.62233 0.0
O542 O 0.66631 0.18358 0.6243 0.0
O543 O 0.69506 0.20864 0.6172 0.0
O544 O 0.72057 0.1735 0.60508 0.0
O545 O 0.76082 0.18618 0.61065 0.0
O546 O 0.75598 0.23525 0.6155 0.0
O547 O 0.76031 0.23661 0.6313 0.0
O548 O 0.75708 0.18895 0.63912 0.0
O549 O 0.75108 0.15788 0.62873 0.0
O550 O 0.70677 0.21148 0.63664 0.0
O551 O 0.70246 0.1663 0.6381 0.0
H552 H 0.67329 0.06518 0.61124 0.0
H553 H 0.6445 0.05033 0.59753 0.0
H554 H 0.63519 0.134 0.5883 0.0
H555 H 0.66437 0.14853 0.60192 0.0
H556 H 0.7196 0.27129 0.61272 0.0
H557 H 0.69611 0.31403 0.61611 0.0
H558 H 0.75698 0.33345 0.638 0.0
H559 H 0.78077 0.29123 0.63433 0.0
Nd560 Nd 0.68875 0.95973 0.37178 0.0
Nd561 Nd 0.64889 0.9887 0.37489 0.0
C562 C 0.73664 0.93947 0.36629 0.0
C563 C 0.74514 0.92087 0.35842 0.0
C564 C 0.77282 0.91737 0.35626 0.0
C565 C 0.78088 0.90022 0.34858 0.0
C566 C 0.76133 0.88632 0.34292 0.0
C567 C 0.73356 0.88987 0.34517 0.0
C568 C 0.72555 0.90703 0.35284 0.0
C569 C 0.64577 0.92175 0.37114 0.0
C570 C 0.67239 0.99721 0.3532 0.0
C571 C 0.60008 1.01186 0.37396 0.0
C572 C 0.57232 1.00071 0.37397 0.0
C573 C 0.56589 0.97735 0.3685 0.0
C574 C 0.54153 0.96348 0.37021 0.0
C575 C 0.52334 0.97265 0.37748 0.0
C576 C 0.52899 0.99725 0.38238 0.0
C577 C 0.55323 1.01115 0.38062 0.0
C578 C 0.68836 1.01262 0.38733 0.0
C579 C 0.66402 0.95226 0.39255 0.0
O580 O 0.72746 0.96303 0.36341 0.0
O581 O 0.72166 0.92892 0.3732 0.0
O582 O 0.66959 0.91795 0.37494 0.0
O583 O 0.64449 0.94602 0.36757 0.0
O584 O 0.68147 0.97282 0.35541 0.0
O585 O 0.66201 1.01114 0.36053 0.0
O586 O 0.61503 1.00689 0.36626 0.0
O587 O 0.61352 1.00853 0.38212 0.0
O588 O 0.66265 1.01008 0.38907 0.0
O589 O 0.69346 1.0032 0.37863 0.0
O590 O 0.64236 0.95783 0.38728 0.0
O591 O 0.68789 0.95645 0.38852 0.0
H592 H 0.78818 0.92808 0.36047 0.0
H593 H 0.80239 0.89824 0.34696 0.0
H594 H 0.71799 0.87922 0.34106 0.0
H595 H 0.70404 0.90956 0.3544 0.0
H596 H 0.5803 0.96894 0.36329 0.0
H597 H 0.53763 0.94483 0.36622 0.0
H598 H 0.51573 1.0048 0.38814 0.0
H599 H 0.55788 1.02908 0.38494 0.0
Nd600 Nd 0.89189 0.93662 0.12143 0.0
Nd601 Nd 0.86226 0.89867 0.12454 0.0
C602 C 0.91201 0.98411 0.1156 0.0
C603 C 0.93011 0.99248 0.10756 0.0
C604 C 0.93434 1.02013 0.10564 0.0
C605 C 0.95121 1.02814 0.09787 0.0
C606 C 0.9641 1.00857 0.0919 0.0
C607 C 0.95976 0.98083 0.0939 0.0
C608 C 0.94289 0.97286 0.10165 0.0
C609 C 0.92947 0.89339 0.12077 0.0
C610 C 0.85416 0.92173 0.10301 0.0
C611 C 0.83753 0.85092 0.12313 0.0
C612 C 0.8481 0.82292 0.12332 0.0
C613 C 0.87175 0.81582 0.11808 0.0
C614 C 0.88507 0.79126 0.12 0.0
C615 C 0.87516 0.77355 0.12728 0.0
C616 C 0.85029 0.77986 0.13193 0.0
C617 C 0.83688 0.80428 0.12995 0.0
C618 C 0.8398 0.93794 0.13736 0.0
C619 C 0.90009 0.91121 0.14208 0.0
O620 O 0.88819 0.97505 0.11294 0.0
O621 O 0.92305 0.96917 0.12243 0.0
O622 O 0.93374 0.91723 0.12445 0.0
O623 O 0.905 0.89224 0.11732 0.0
O624 O 0.87961 0.92743 0.10509 0.0
O625 O 0.83935 0.91452 0.11059 0.0
O626 O 0.84397 0.86572 0.11554 0.0
O627 O 0.83999 0.86424 0.13135 0.0
O628 O 0.84229 0.91219 0.13901 0.0
O629 O 0.84886 0.94321 0.12862 0.0
O630 O 0.89302 0.89006 0.13682 0.0
O631 O 0.8967 0.93532 0.13814 0.0
H632 H 0.92447 1.03551 0.1101 0.0
H633 H 0.95381 0.04965 0.09646 0.0
H634 H 0.96964 0.96524 0.08953 0.0
H635 H 0.9398 0.95138 0.10304 0.0
H636 H 0.88085 0.82988 0.11291 0.0
H637 H 0.90392 0.78684 0.11617 0.0
H638 H 0.84216 0.76699 0.13768 0.0
H639 H 0.81873 0.80944 0.13409 0.0
Nd640 Nd 0.64941 0.61256 0.87451 0.0
Nd641 Nd 0.68837 0.64157 0.87163 0.0
C642 C 0.59997 0.5916 0.87269 0.0
C643 C 0.57352 0.60531 0.87327 0.0
C644 C 0.57268 0.63319 0.87541 0.0
C645 C 0.5479 0.64606 0.87723 0.0
C646 C 0.5234 0.63127 0.87693 0.0
C647 C 0.52426 0.60368 0.87409 0.0
C648 C 0.54922 0.59075 0.87233 0.0
C649 C 0.68786 0.58772 0.88702 0.0
C650 C 0.66558 0.64661 0.89279 0.0
C651 C 0.73551 0.66251 0.86571 0.0
C652 C 0.74346 0.68015 0.8575 0.0
C653 C 0.77093 0.68648 0.85595 0.0
C654 C 0.77852 0.70323 0.8481 0.0
C655 C 0.7587 0.71393 0.84169 0.0
C656 C 0.73115 0.70742 0.84329 0.0
C657 C 0.72361 0.69066 0.85112 0.0
C658 C 0.64478 0.67899 0.87168 0.0
C659 C 0.67309 0.60365 0.85319 0.0
O660 O 0.61501 0.59848 0.86521 0.0
O661 O 0.61375 0.59124 0.88086 0.0
O662 O 0.66191 0.58975 0.88848 0.0
O663 O 0.69388 0.59805 0.87852 0.0
O664 O 0.64355 0.64109 0.88771 0.0
O665 O 0.68911 0.64373 0.88836 0.0
O666 O 0.72719 0.63826 0.86331 0.0
O667 O 0.72005 0.67366 0.87236 0.0
O668 O 0.66802 0.68225 0.87598 0.0
O669 O 0.64457 0.65557 0.86747 0.0
O670 O 0.67927 0.62898 0.85528 0.0
O671 O 0.66519 0.58902 0.86072 0.0
H672 H 0.59135 0.64474 0.87613 0.0
H673 H 0.54825 0.66716 0.87951 0.0
H674 H 0.50575 0.59181 0.87363 0.0
H675 H 0.54958 0.56925 0.87059 0.0
H676 H 0.78648 0.67852 0.86082 0.0
H677 H 0.79986 0.70809 0.84714 0.0
H678 H 0.71543 0.715 0.83841 0.0
H679 H 0.70228 0.68584 0.85219 0.0
Nd680 Nd 0.73787 0.398 0.12493 0.0
Nd681 Nd 0.70858 0.43672 0.12191 0.0
C682 C 0.76 0.34895 0.12343 0.0
C683 C 0.74647 0.32254 0.12415 0.0
C684 C 0.71862 0.32187 0.12638 0.0
C685 C 0.70556 0.2972 0.12799 0.0
C686 C 0.72019 0.27264 0.12747 0.0
C687 C 0.7479 0.2733 0.12475 0.0
C688 C 0.76098 0.29817 0.1231 0.0
C689 C 0.76178 0.43676 0.13754 0.0
C690 C 0.70213 0.41296 0.14288 0.0
C691 C 0.68815 0.48416 0.11607 0.0
C692 C 0.67011 0.49262 0.10801 0.0
C693 C 0.66756 0.52021 0.10561 0.0
C694 C 0.6508 0.52831 0.09782 0.0
C695 C 0.6363 0.50889 0.09232 0.0
C696 C 0.63897 0.48121 0.09478 0.0
C697 C 0.65579 0.47315 0.10254 0.0
C698 C 0.67102 0.39344 0.12157 0.0
C699 C 0.74644 0.42133 0.10349 0.0
O700 O 0.75299 0.36356 0.11585 0.0
O701 O 0.76002 0.36309 0.13152 0.0
O702 O 0.7595 0.41094 0.13911 0.0
O703 O 0.75197 0.44243 0.12893 0.0
O704 O 0.70818 0.39126 0.13772 0.0
O705 O 0.70532 0.43667 0.13864 0.0
O706 O 0.71207 0.47522 0.11345 0.0
O707 O 0.67712 0.4691 0.12285 0.0
O708 O 0.66724 0.41697 0.12559 0.0
O709 O 0.69501 0.39277 0.11774 0.0
O710 O 0.72109 0.42761 0.10558 0.0
O711 O 0.76113 0.4135 0.11103 0.0
H712 H 0.70721 0.3406 0.12727 0.0
H713 H 0.68441 0.29759 0.13026 0.0
H714 H 0.75966 0.25469 0.12425 0.0
H715 H 0.78249 0.29842 0.12133 0.0
H716 H 0.67855 0.53548 0.10976 0.0
H717 H 0.64898 0.54979 0.09617 0.0
H718 H 0.62838 0.46574 0.0906 0.0
H719 H 0.65775 0.4517 0.10425 0.0
Nd720 Nd 0.9523 0.48521 0.3745 0.0
Nd721 Nd 0.91365 0.4565 0.37136 0.0
C722 C 1.00128 0.50752 0.373 0.0
C723 C 1.0282 0.49495 0.3739 0.0
C724 C 1.03 0.46745 0.37652 0.0
C725 C 0.05527 0.45551 0.37827 0.0
C726 C 0.07928 0.47091 0.37747 0.0
C727 C 0.07744 0.49821 0.37438 0.0
C728 C 0.05199 0.51017 0.37261 0.0
C729 C 0.91366 0.50934 0.38713 0.0
C730 C 0.93666 0.4498 0.39244 0.0
C731 C 0.86611 0.43686 0.36533 0.0
C732 C 0.85776 0.41906 0.35722 0.0
C733 C 0.83012 0.41616 0.3549 0.0
C734 C 0.82215 0.39953 0.34707 0.0
C735 C 0.84175 0.38551 0.34145 0.0
C736 C 0.86948 0.38855 0.34383 0.0
C737 C 0.87741 0.40524 0.35163 0.0
C738 C 0.95646 0.41824 0.37123 0.0
C739 C 0.92932 0.49414 0.35303 0.0
O740 O 0.98705 0.49963 0.36545 0.0
O741 O 0.98694 0.50774 0.38104 0.0
O742 O 0.93949 0.50677 0.38871 0.0
O743 O 0.90789 0.4997 0.3785 0.0
O744 O 0.95862 0.45573 0.38739 0.0
O745 O 0.91311 0.45308 0.38806 0.0
O746 O 0.87536 0.46065 0.36278 0.0
O747 O 0.88089 0.42556 0.37215 0.0
O748 O 0.93267 0.41491 0.37511 0.0
O749 O 0.95771 0.44222 0.36743 0.0
O750 O 0.9233 0.46878 0.35506 0.0
O751 O 0.93676 0.50874 0.36063 0.0
H752 H 1.01173 0.45549 0.37758 0.0
H753 H 0.05577 0.43464 0.38082 0.0
H754 H 0.09558 0.51055 0.37365 0.0
H755 H 0.05086 0.53142 0.37054 0.0
H756 H 0.81472 0.42675 0.35914 0.0
H757 H 0.80064 0.3974 0.34549 0.0
H758 H 0.88508 0.37835 0.33956 0.0
H759 H 0.8989 0.40746 0.35328 0.0
Nd760 Nd 0.86309 0.70076 0.62509 0.0
Nd761 Nd 0.89263 0.66238 0.62238 0.0
C762 C 0.83886 0.74877 0.62332 0.0
C763 C 0.8499 0.77656 0.62342 0.0
C764 C 0.87364 0.78302 0.61814 0.0
C765 C 0.88763 0.80714 0.62007 0.0
C766 C 0.8782 0.8251 0.62736 0.0
C767 C 0.8532 0.81956 0.63203 0.0
C768 C 0.83919 0.79552 0.63006 0.0
C769 C 0.83988 0.66216 0.638 0.0
C770 C 0.89993 0.68887 0.64291 0.0
C771 C 0.91313 0.61457 0.61699 0.0
C772 C 0.93114 0.60596 0.60897 0.0
C773 C 0.93699 0.57835 0.60755 0.0
C774 C 0.95378 0.57015 0.59978 0.0
C775 C 0.96492 0.58949 0.5933 0.0
C776 C 0.959 0.61719 0.5948 0.0
C777 C 0.94225 0.62535 0.60257 0.0
C778 C 0.93028 0.7054 0.62161 0.0
C779 C 0.85526 0.67657 0.60373 0.0
O780 O 0.84534 0.73354 0.61583 0.0
O781 O 0.84086 0.73573 0.63161 0.0
O782 O 0.84234 0.68797 0.63951 0.0
O783 O 0.84937 0.65643 0.62936 0.0
O784 O 0.89346 0.70979 0.63742 0.0
O785 O 0.89645 0.66458 0.63914 0.0
O786 O 0.88914 0.62324 0.61433 0.0
O787 O 0.92413 0.63008 0.62365 0.0
O788 O 0.93414 0.68195 0.62568 0.0
O789 O 0.90607 0.70625 0.61791 0.0
O790 O 0.88062 0.67062 0.60593 0.0
O791 O 0.84036 0.6845 0.6112 0.0
H792 H 0.88227 0.76875 0.61293 0.0
H793 H 0.90659 0.81101 0.61625 0.0
H794 H 0.84543 0.83269 0.63778 0.0
H795 H 0.82098 0.79087 0.63423 0.0
H796 H 0.92844 0.56314 0.61241 0.0
H797 H 0.95768 0.54864 0.59875 0.0
H798 H 0.96754 0.63263 0.59004 0.0
H799 H 0.93792 0.64679 0.60358 0.0
Nd800 Nd 0.64871 0.4867 0.72972 0.0
Nd801 Nd 0.68687 0.45704 0.73244 0.0
C802 C 0.60041 0.51028 0.73163 0.0
C803 C 0.57283 0.49871 0.73155 0.0
C804 C 0.56728 0.47403 0.73637 0.0
C805 C 0.54322 0.45993 0.7344 0.0
C806 C 0.52454 0.47004 0.72745 0.0
C807 C 0.52931 0.49582 0.72325 0.0
C808 C 0.55318 0.51003 0.72532 0.0
C809 C 0.68747 0.51042 0.71702 0.0
C810 C 0.66185 0.45112 0.71161 0.0
C811 C 0.73428 0.43584 0.73805 0.0
C812 C 0.7428 0.41847 0.74627 0.0
C813 C 0.76998 0.41012 0.74711 0.0
C814 C 0.77813 0.3936 0.75495 0.0
C815 C 0.75915 0.38518 0.76209 0.0
C816 C 0.73187 0.39371 0.76119 0.0
C817 C 0.72377 0.41018 0.75335 0.0
C818 C 0.64322 0.41998 0.7327 0.0
C819 C 0.67259 0.49449 0.75106 0.0
O820 O 0.61585 0.50396 0.73908 0.0
O821 O 0.61337 0.50861 0.72331 0.0
O822 O 0.66157 0.50843 0.71553 0.0
O823 O 0.69323 0.50035 0.72558 0.0
O824 O 0.64054 0.45753 0.71693 0.0
O825 O 0.68591 0.45398 0.71566 0.0
O826 O 0.72621 0.46025 0.74041 0.0
O827 O 0.71831 0.42456 0.7316 0.0
O828 O 0.66646 0.41637 0.72843 0.0
O829 O 0.64293 0.44367 0.73677 0.0
O830 O 0.67818 0.46908 0.74888 0.0
O831 O 0.66507 0.50947 0.74357 0.0
H832 H 0.58219 0.46482 0.74121 0.0
H833 H 0.54003 0.44042 0.7379 0.0
H834 H 0.51573 0.5042 0.71776 0.0
H835 H 0.55718 0.52894 0.72149 0.0
H836 H 0.78489 0.41632 0.74168 0.0
H837 H 0.7992 0.38713 0.75536 0.0
H838 H 0.71683 0.38792 0.76662 0.0
H839 H 0.70267 0.41652 0.75281 0.0
Nd840 Nd 0.86254 0.39879 0.97961 0.0
Nd841 Nd 0.89159 0.43726 0.9828 0.0
C842 C 0.83962 0.35012 0.98105 0.0
C843 C 0.85191 0.3231 0.98021 0.0
C844 C 0.87958 0.32098 0.97783 0.0
C845 C 0.89135 0.29564 0.97614 0.0
C846 C 0.87553 0.27188 0.97672 0.0
C847 C 0.848 0.27401 0.97954 0.0
C848 C 0.83625 0.29953 0.98129 0.0
C849 C 0.83874 0.4376 0.967 0.0
C850 C 0.89828 0.41425 0.96173 0.0
C851 C 0.91153 0.48467 0.9888 0.0
C852 C 0.92886 0.49314 0.99703 0.0
C853 C 0.93632 0.52046 0.99806 0.0
C854 C 0.95279 0.52857 1.00592 0.0
C855 C 0.96197 0.50944 1.01288 0.0
C856 C 0.95439 0.48203 1.01178 0.0
C857 C 0.938 0.47395 1.00391 0.0
C858 C 0.92948 0.39413 0.983 0.0
C859 C 0.85375 0.42174 1.0011 0.0
O860 O 0.84747 0.36427 0.98862 0.0
O861 O 0.83983 0.3644 0.973 0.0
O862 O 0.84119 0.41182 0.96539 0.0
O863 O 0.84836 0.44324 0.97564 0.0
O864 O 0.89217 0.39233 0.96676 0.0
O865 O 0.89513 0.43777 0.96611 0.0
O866 O 0.8874 0.47583 0.99116 0.0
O867 O 0.92319 0.46945 0.98219 0.0
O868 O 0.93312 0.41783 0.97911 0.0
O869 O 0.90542 0.39315 0.98677 0.0
O870 O 0.87918 0.42767 0.99909 0.0
O871 O 0.83911 0.41441 0.99349 0.0
H872 H 0.89183 0.3391 0.97688 0.0
H873 H 0.91241 0.29487 0.97378 0.0
H874 H 0.83535 0.25604 0.98006 0.0
H875 H 0.81484 0.30091 0.98316 0.0
H876 H 0.92936 0.53551 0.9928 0.0
H877 H 0.95802 0.54988 1.00662 0.0
H878 H 0.96142 0.46674 1.01693 0.0
H879 H 0.93248 0.45271 1.00318 0.0
Nd880 Nd 0.95203 0.61265 0.22949 0.0
Nd881 Nd 0.91325 0.64167 0.23255 0.0
C882 C 1.00094 0.58997 0.23095 0.0
C883 C 1.02777 0.60266 0.23013 0.0
C884 C 1.02933 0.63032 0.22773 0.0
C885 C 0.05447 0.64245 0.22602 0.0
C886 C 0.07861 0.62709 0.22665 0.0
C887 C 0.07702 0.5996 0.22954 0.0
C888 C 0.0517 0.58745 0.23126 0.0
C889 C 0.91319 0.58903 0.2168 0.0
C890 C 0.93771 0.64916 0.21172 0.0
C891 C 0.86563 0.66169 0.23845 0.0
C892 C 0.85731 0.6797 0.24653 0.0
C893 C 0.82966 0.68321 0.24873 0.0
C894 C 0.82172 0.7 0.25653 0.0
C895 C 0.84137 0.71353 0.26227 0.0
C896 C 0.86911 0.7099 0.25999 0.0
C897 C 0.877 0.6931 0.2522 0.0
C898 C 0.95618 0.67959 0.23296 0.0
C899 C 0.92886 0.60394 0.25095 0.0
O900 O 0.98662 0.5976 0.23853 0.0
O901 O 0.98664 0.59002 0.2229 0.0
O902 O 0.93898 0.59168 0.21518 0.0
O903 O 0.90759 0.59848 0.22547 0.0
O904 O 0.95925 0.64282 0.21693 0.0
O905 O 0.9138 0.64563 0.2158 0.0
O906 O 0.87481 0.63788 0.24106 0.0
O907 O 0.88049 0.67276 0.23162 0.0
O908 O 0.93248 0.68325 0.22903 0.0
O909 O 0.95726 0.6555 0.23669 0.0
O910 O 0.9226 0.62928 0.24888 0.0
O911 O 0.93658 0.58932 0.24338 0.0
H912 H 1.01095 0.6423 0.2268 0.0
H913 H 0.05475 0.66346 0.22362 0.0
H914 H 0.09527 0.58729 0.23016 0.0
H915 H 0.05075 0.56608 0.23317 0.0
H916 H 0.81422 0.67285 0.24445 0.0
H917 H 0.80022 0.70204 0.25816 0.0
H918 H 0.88475 0.72028 0.26416 0.0
H919 H 0.89849 0.69055 0.2506 0.0
Nd920 Nd 0.73966 0.69804 0.4801 0.0
Nd921 Nd 0.71007 0.6601 0.48274 0.0
C922 C 0.76378 0.74595 0.48202 0.0
C923 C 0.7533 0.77396 0.48144 0.0
C924 C 0.72934 0.78163 0.48639 0.0
C925 C 0.71654 0.8063 0.48419 0.0
C926 C 0.72718 0.82347 0.47688 0.0
C927 C 0.75223 0.81648 0.47247 0.0
C928 C 0.76519 0.79204 0.47478 0.0
C929 C 0.76319 0.65954 0.46722 0.0
C930 C 0.70389 0.68574 0.46201 0.0
C931 C 0.68902 0.61279 0.48837 0.0
C932 C 0.67127 0.60454 0.49652 0.0
C933 C 0.66582 0.57697 0.49817 0.0
C934 C 0.64916 0.56908 0.50602 0.0
C935 C 0.63771 0.58869 0.51234 0.0
C936 C 0.6433 0.61636 0.51062 0.0
C937 C 0.65995 0.62419 0.50279 0.0
C938 C 0.67268 0.70354 0.48304 0.0
C939 C 0.74731 0.67426 0.50141 0.0
O940 O 0.75583 0.73133 0.48947 0.0
O941 O 0.76308 0.73242 0.4738 0.0
O942 O 0.76097 0.68542 0.46579 0.0
O943 O 0.75335 0.65362 0.47579 0.0
O944 O 0.71028 0.70684 0.46742 0.0
O945 O 0.70684 0.66157 0.46596 0.0
O946 O 0.71328 0.621 0.49086 0.0
O947 O 0.67795 0.62847 0.48177 0.0
O948 O 0.6692 0.68033 0.47877 0.0
O949 O 0.69643 0.70393 0.4871 0.0
O950 O 0.72184 0.66896 0.4992 0.0
O951 O 0.76243 0.68143 0.49393 0.0
H952 H 0.71967 0.76801 0.49159 0.0
H953 H 0.6976 0.81122 0.48788 0.0
H954 H 0.76096 0.82881 0.46668 0.0
H955 H 0.78358 0.78644 0.47085 0.0
H956 H 0.67454 0.56154 0.49343 0.0
H957 H 0.64557 0.5476 0.50721 0.0
H958 H 0.63454 0.63201 0.51526 0.0
H959 H 0.66398 0.64561 0.50161 0.0
Nd960 Nd 0.41337 0.45954 0.23312 0.0
Nd961 Nd 0.45197 0.48858 0.22999 0.0
C962 C 0.36587 0.43956 0.23909 0.0
C963 C 0.35744 0.42158 0.24715 0.0
C964 C 0.32975 0.41668 0.24884 0.0
C965 C 0.32166 0.39966 0.25655 0.0
C966 C 0.34119 0.38723 0.26267 0.0
C967 C 0.36898 0.3923 0.26092 0.0
C968 C 0.37702 0.40936 0.25323 0.0
C969 C 0.45654 0.42168 0.23347 0.0
C970 C 0.42874 0.49766 0.2514 0.0
C971 C 0.50089 0.51096 0.23142 0.0
C972 C 0.52756 0.49785 0.23055 0.0
C973 C 0.5287 0.47006 0.22831 0.0
C974 C 0.55361 0.45744 0.22653 0.0
C975 C 0.57792 0.47247 0.2269 0.0
C976 C 0.57679 0.50011 0.22963 0.0
C977 C 0.55169 0.51274 0.23144 0.0
C978 C 0.41309 0.51203 0.21728 0.0
C979 C 0.4371 0.45229 0.21217 0.0
O980 O 0.37503 0.46334 0.2417 0.0
O981 O 0.38077 0.42841 0.23227 0.0
O982 O 0.43282 0.41798 0.22959 0.0
O983 O 0.45757 0.44578 0.23718 0.0
O984 O 0.42275 0.47225 0.24942 0.0
O985 O 0.43626 0.51217 0.24379 0.0
O986 O 0.48658 0.50349 0.23901 0.0
O987 O 0.48652 0.51112 0.22338 0.0
O988 O 0.43892 0.50949 0.21568 0.0
O989 O 0.40752 0.5027 0.22597 0.0
O990 O 0.45882 0.45872 0.21727 0.0
O991 O 0.41336 0.45552 0.21642 0.0
H992 H 0.31439 0.42598 0.2442 0.0
H993 H 0.30013 0.39594 0.25763 0.0
H994 H 0.38451 0.38337 0.26557 0.0
H995 H 0.39853 0.41307 0.25205 0.0
H996 H 0.51015 0.45836 0.22754 0.0
H997 H 0.55357 0.43631 0.22427 0.0
H998 H 0.5952 0.51217 0.23001 0.0
H999 H 0.55108 0.53422 0.23321 0.0
Nd1000 Nd 0.39093 0.66221 0.98238 0.0
Nd1001 Nd 0.3613 0.70022 0.97929 0.0
C1002 C 0.41121 0.61475 0.98826 0.0
C1003 C 0.42947 0.60633 0.99625 0.0
C1004 C 0.43199 0.57877 0.99869 0.0
C1005 C 0.44889 0.57073 1.00645 0.0
C1006 C 0.46358 0.59017 1.01188 0.0
C1007 C 0.46097 0.61782 1.00937 0.0
C1008 C 0.44401 0.62583 1.00164 0.0
C1009 C 0.4285 0.70533 0.98288 0.0
C1010 C 0.35348 0.67739 1.00086 0.0
C1011 C 0.33686 0.74824 0.98065 0.0
C1012 C 0.34768 0.77611 0.98035 0.0
C1013 C 0.37114 0.78316 0.9857 0.0
C1014 C 0.38483 0.80741 0.98369 0.0
C1015 C 0.3754 0.82489 0.97624 0.0
C1016 C 0.3507 0.81871 0.97148 0.0
C1017 C 0.33696 0.79457 0.97353 0.0
C1018 C 0.33844 0.66096 0.9666 0.0
C1019 C 0.39841 0.68685 0.96158 0.0
O1020 O 0.38745 0.62392 0.99097 0.0
O1021 O 0.4221 0.62956 0.98138 0.0
O1022 O 0.43258 0.68153 0.97912 0.0
O1023 O 0.40416 0.70653 0.98643 0.0
O1024 O 0.37891 0.67157 0.99874 0.0
O1025 O 0.33856 0.68461 0.9933 0.0
O1026 O 0.34334 0.7335 0.98826 0.0
O1027 O 0.33904 0.73473 0.97247 0.0
O1028 O 0.34082 0.68669 0.96493 0.0
O1029 O 0.34776 0.6557 0.97531 0.0
O1030 O 0.39148 0.70822 0.96677 0.0
O1031 O 0.39534 0.66293 0.96567 0.0
H1032 H 0.42084 0.56348 0.99462 0.0
H1033 H 0.45067 0.54926 1.00814 0.0
H1034 H 0.4717 0.63332 1.01349 0.0
H1035 H 0.44209 0.64726 0.9999 0.0
H1036 H 0.37983 0.76928 0.99103 0.0
H1037 H 0.40355 0.81177 0.98759 0.0
H1038 H 0.34295 0.83145 0.96561 0.0
H1039 H 0.31896 0.78946 0.96931 0.0
Nd1040 Nd 0.18606 0.64117 0.7328 0.0
Nd1041 Nd 0.14779 0.61172 0.73006 0.0
C1042 C 0.2334 0.66226 0.73843 0.0
C1043 C 0.24178 0.68018 0.74651 0.0
C1044 C 0.26945 0.68537 0.74815 0.0
C1045 C 0.2775 0.70216 0.75592 0.0
C1046 C 0.25795 0.71405 0.76217 0.0
C1047 C 0.23019 0.70873 0.76047 0.0
C1048 C 0.22219 0.69191 0.75271 0.0
C1049 C 0.14247 0.67851 0.73304 0.0
C1050 C 0.17162 0.6036 0.75138 0.0
C1051 C 0.09934 0.58869 0.73194 0.0
C1052 C 0.07189 0.60067 0.73197 0.0
C1053 C 0.06681 0.62547 0.73678 0.0
C1054 C 1.04295 0.64005 0.73485 0.0
C1055 C 1.02403 0.63032 0.72794 0.0
C1056 C 1.02828 0.60439 0.72377 0.0
C1057 C 0.05196 0.5897 0.72579 0.0
C1058 C 0.18654 0.58772 0.71738 0.0
C1059 C 0.16153 0.64683 0.71191 0.0
O1060 O 0.22509 0.63815 0.741 0.0
O1061 O 0.21775 0.6732 0.73179 0.0
O1062 O 0.16571 0.68195 0.72876 0.0
O1063 O 0.14207 0.65481 0.73709 0.0
O1064 O 0.17739 0.62898 0.74923 0.0
O1065 O 0.16403 0.58876 0.74388 0.0
O1066 O 0.11494 0.59453 0.73939 0.0
O1067 O 0.1122 0.59047 0.7236 0.0
O1068 O 0.16061 0.58963 0.71592 0.0
O1069 O 0.1923 0.59783 0.72593 0.0
O1070 O 0.14006 0.64091 0.71721 0.0
O1071 O 0.18548 0.64378 0.71602 0.0
H1072 H 0.28481 0.67644 0.74342 0.0
H1073 H 0.29901 0.70608 0.75697 0.0
H1074 H 0.21466 0.71725 0.76522 0.0
H1075 H 0.20071 0.68794 0.75157 0.0
H1076 H 0.08195 0.63443 0.74158 0.0
H1077 H 1.04015 0.65967 0.73833 0.0
H1078 H 1.01448 0.59628 0.7183 0.0
H1079 H 0.0556 0.57071 0.72197 0.0
Nd1080 Nd 0.20898 0.43791 0.48264 0.0
Nd1081 Nd 0.23885 0.40017 0.47955 0.0
C1082 C 0.18831 0.48513 0.48859 0.0
C1083 C 0.17044 0.49321 0.49673 0.0
C1084 C 0.1644 0.52071 0.49831 0.0
C1085 C 0.14764 0.52845 0.50615 0.0
C1086 C 0.1367 0.50875 0.51253 0.0
C1087 C 0.14284 0.48115 0.51087 0.0
C1088 C 0.15957 0.47346 0.50304 0.0
C1089 C 0.17171 0.3945 0.483 0.0
C1090 C 0.24665 0.42316 0.50106 0.0
C1091 C 0.26361 0.35233 0.48101 0.0
C1092 C 0.25321 0.32432 0.48052 0.0
C1093 C 0.22997 0.31652 0.48585 0.0
C1094 C 0.21674 0.29211 0.48369 0.0
C1095 C 0.22637 0.27525 0.4761 0.0
C1096 C 0.25088 0.2822 0.47133 0.0
C1097 C 0.26419 0.30645 0.47356 0.0
C1098 C 0.2616 0.43948 0.46689 0.0
C1099 C 0.2021 0.41374 0.46175 0.0
O1100 O 0.21239 0.47638 0.4911 0.0
O1101 O 0.17721 0.47003 0.48183 0.0
O1102 O 0.16757 0.41827 0.47922 0.0
O1103 O 0.19599 0.39348 0.48662 0.0
O1104 O 0.22112 0.42854 0.49898 0.0
O1105 O 0.2616 0.41622 0.49348 0.0
O1106 O 0.25638 0.36682 0.4886 0.0
O1107 O 0.2619 0.36601 0.47284 0.0
O1108 O 0.25943 0.41371 0.46523 0.0
O1109 O 0.25213 0.44475 0.47558 0.0
O1110 O 0.20909 0.39226 0.46688 0.0
O1111 O 0.20484 0.43756 0.46594 0.0
H1112 H 0.17276 0.5362 0.49352 0.0
H1113 H 0.14359 0.54988 0.50729 0.0
H1114 H 0.13447 0.46545 0.51556 0.0
H1115 H 0.16404 0.45209 0.50189 0.0
H1116 H 0.22109 0.32993 0.49131 0.0
H1117 H 0.19821 0.28717 0.48762 0.0
H1118 H 0.2588 0.27002 0.46534 0.0
H1119 H 0.28205 0.31212 0.46935 0.0
Nd1120 Nd 0.41484 0.64384 0.37215 0.0
Nd1121 Nd 0.45265 0.61406 0.37496 0.0
C1122 C 0.36695 0.66408 0.36665 0.0
C1123 C 0.3581 0.68221 0.35869 0.0
C1124 C 0.3303 0.68648 0.35696 0.0
C1125 C 0.32181 0.70332 0.34926 0.0
C1126 C 0.34106 0.71618 0.34316 0.0
C1127 C 0.36896 0.71182 0.34496 0.0
C1128 C 0.3774 0.69494 0.35265 0.0
C1129 C 0.45794 0.6813 0.37127 0.0
C1130 C 0.42885 0.60641 0.35358 0.0
C1131 C 0.50015 0.58875 0.37321 0.0
C1132 C 0.52827 0.59897 0.3735 0.0
C1133 C 0.5358 0.62235 0.36821 0.0
C1134 C 0.56034 0.6355 0.37026 0.0
C1135 C 0.57761 0.62568 0.37771 0.0
C1136 C 0.57093 0.60102 0.38241 0.0
C1137 C 0.54654 0.58778 0.38029 0.0
C1138 C 0.41372 0.59198 0.388 0.0
C1139 C 0.44187 0.65208 0.39258 0.0
O1140 O 0.37595 0.64032 0.36391 0.0
O1141 O 0.38225 0.67503 0.37338 0.0
O1142 O 0.43425 0.68547 0.37514 0.0
O1143 O 0.45907 0.65689 0.36778 0.0
O1144 O 0.42355 0.6319 0.35572 0.0
O1145 O 0.43599 0.59143 0.36112 0.0
O1146 O 0.48532 0.59603 0.36571 0.0
O1147 O 0.48688 0.59063 0.38147 0.0
O1148 O 0.43954 0.59448 0.38956 0.0
O1149 O 0.40823 0.60093 0.37928 0.0
O1150 O 0.46257 0.64449 0.38716 0.0
O1151 O 0.41742 0.64904 0.38886 0.0
H1152 H 0.31516 0.67675 0.36156 0.0
H1153 H 0.3002 0.70649 0.34813 0.0
H1154 H 0.38429 0.72109 0.34033 0.0
H1155 H 0.39899 0.69168 0.35385 0.0
H1156 H 0.52206 0.6314 0.3629 0.0
H1157 H 0.56506 0.65414 0.36638 0.0
H1158 H 0.58342 0.59294 0.38828 0.0
H1159 H 0.54108 0.56983 0.38447 0.0
Nd1160 Nd 0.20928 0.66282 0.12182 0.0
Nd1161 Nd 0.23815 0.7017 0.12484 0.0
C1162 C 0.1896 0.61513 0.11604 0.0
C1163 C 0.17085 0.60621 0.10827 0.0
C1164 C 0.17343 0.58006 0.10428 0.0
C1165 C 0.15621 0.57165 0.09668 0.0
C1166 C 0.13605 0.58927 0.09298 0.0
C1167 C 0.13353 0.61549 0.09702 0.0
C1168 C 0.15088 0.62394 0.10457 0.0
C1169 C 0.1711 0.70569 0.12141 0.0
C1170 C 0.24692 0.67831 0.1034 0.0
C1171 C 0.26016 0.7507 0.12328 0.0
C1172 C 0.24683 0.77727 0.12403 0.0
C1173 C 0.21916 0.77836 0.12652 0.0
C1174 C 0.20642 0.80326 0.12814 0.0
C1175 C 0.22116 0.82765 0.12732 0.0
C1176 C 0.24862 0.82651 0.12431 0.0
C1177 C 0.2614 0.80141 0.12269 0.0
C1178 C 0.26203 0.663 0.13752 0.0
C1179 C 0.20207 0.68684 0.14273 0.0
O1180 O 0.21289 0.62476 0.11308 0.0
O1181 O 0.17902 0.62958 0.12311 0.0
O1182 O 0.16752 0.68203 0.12533 0.0
O1183 O 0.19519 0.70678 0.11769 0.0
O1184 O 0.2216 0.672 0.10548 0.0
O1185 O 0.26154 0.68613 0.11096 0.0
O1186 O 0.25289 0.73616 0.11573 0.0
O1187 O 0.26035 0.73655 0.13137 0.0
O1188 O 0.25939 0.68877 0.13913 0.0
O1189 O 0.25267 0.65744 0.12884 0.0
O1190 O 0.20832 0.70851 0.1376 0.0
O1191 O 0.20546 0.6631 0.13853 0.0
H1192 H 0.18884 0.56618 0.10702 0.0
H1193 H 0.15849 0.55127 0.09376 0.0
H1194 H 0.11846 0.62964 0.09423 0.0
H1195 H 0.14881 0.64437 0.10747 0.0
H1196 H 0.20765 0.75981 0.12759 0.0
H1197 H 0.18545 0.80319 0.13062 0.0
H1198 H 0.26046 0.84495 0.12353 0.0
H1199 H 0.28276 0.80084 0.12069 0.0
Nd1200 Nd 0.18498 0.45633 0.87188 0.0
Nd1201 Nd 0.14673 0.48578 0.8749 0.0
C1202 C 0.23289 0.43648 0.86622 0.0
C1203 C 0.24169 0.41855 0.8582 0.0
C1204 C 0.26948 0.41417 0.85648 0.0
C1205 C 0.27791 0.39749 0.84872 0.0
C1206 C 0.25863 0.38494 0.84255 0.0
C1207 C 0.23074 0.38941 0.84435 0.0
C1208 C 0.22235 0.40609 0.8521 0.0
C1209 C 0.14206 0.41855 0.87105 0.0
C1210 C 0.17034 0.49428 0.8535 0.0
C1211 C 0.09868 0.51029 0.87342 0.0
C1212 C 0.07133 0.49877 0.87425 0.0
C1213 C 0.06865 0.47102 0.87634 0.0
C1214 C 1.04307 0.45983 0.87802 0.0
C1215 C 1.01965 0.4763 0.87774 0.0
C1216 C 1.0223 0.50398 0.87523 0.0
C1217 C 1.04806 0.51515 0.87348 0.0
C1218 C 0.18583 0.50811 0.88781 0.0
C1219 C 0.15891 0.44785 0.89243 0.0
O1220 O 0.22369 0.46024 0.86356 0.0
O1221 O 0.21778 0.42532 0.87296 0.0
O1222 O 0.16584 0.41449 0.87486 0.0
O1223 O 0.14077 0.44301 0.86761 0.0
O1224 O 0.17604 0.4688 0.85552 0.0
O1225 O 0.16292 0.50893 0.86109 0.0
O1226 O 0.11268 0.50201 0.86586 0.0
O1227 O 0.11293 0.50965 0.88148 0.0
O1228 O 0.16007 0.50535 0.88947 0.0
O1229 O 0.19115 0.49929 0.87905 0.0
O1230 O 0.13787 0.45504 0.88711 0.0
O1231 O 0.18315 0.45128 0.88859 0.0
H1232 H 0.28465 0.42379 0.8611 0.0
H1233 H 0.29953 0.39475 0.84746 0.0
H1234 H 0.21536 0.37979 0.83983 0.0
H1235 H 0.20077 0.4093 0.85334 0.0
H1236 H 0.08655 0.45825 0.87707 0.0
H1237 H 1.04191 0.43863 0.88015 0.0
H1238 H 1.00459 0.51713 0.87497 0.0
H1239 H 1.04988 0.53664 0.87185 0.0
Nd1240 Nd 0.39115 0.43789 0.62198 0.0
Nd1241 Nd 0.36195 0.39942 0.6248 0.0
C1242 C 0.41119 0.48558 0.61633 0.0
C1243 C 0.42942 0.49384 0.60832 0.0
C1244 C 0.43469 0.52142 0.60662 0.0
C1245 C 0.45174 0.52925 0.59888 0.0
C1246 C 0.46374 0.50958 0.59271 0.0
C1247 C 0.45837 0.48191 0.5945 0.0
C1248 C 0.44135 0.47412 0.60223 0.0
C1249 C 0.4293 0.39519 0.62127 0.0
C1250 C 0.35369 0.42316 0.60345 0.0
C1251 C 0.33828 0.35117 0.62312 0.0
C1252 C 0.35011 0.32393 0.62392 0.0
C1253 C 0.37801 0.32133 0.62588 0.0
C1254 C 0.38936 0.29586 0.62769 0.0
C1255 C 0.37292 0.27248 0.62766 0.0
C1256 C 0.34513 0.27504 0.62522 0.0
C1257 C 0.33379 0.30068 0.62336 0.0
C1258 C 0.33861 0.43806 0.63768 0.0
C1259 C 0.39879 0.41194 0.64258 0.0
O1260 O 0.3874 0.47656 0.61364 0.0
O1261 O 0.42213 0.47057 0.62317 0.0
O1262 O 0.43289 0.41875 0.62527 0.0
O1263 O 0.40503 0.39395 0.61765 0.0
O1264 O 0.37908 0.42902 0.60558 0.0
O1265 O 0.33888 0.41556 0.61097 0.0
O1266 O 0.34654 0.36539 0.61563 0.0
O1267 O 0.33852 0.36524 0.63123 0.0
O1268 O 0.3413 0.41227 0.63923 0.0
O1269 O 0.3479 0.4437 0.629 0.0
O1270 O 0.39239 0.39088 0.63717 0.0
O1271 O 0.39517 0.43614 0.63874 0.0
H1272 H 0.42551 0.53688 0.61123 0.0
H1273 H 0.45518 0.55073 0.59763 0.0
H1274 H 0.46756 0.46623 0.58998 0.0
H1275 H 0.43747 0.45269 0.60346 0.0
H1276 H 0.39078 0.33921 0.62642 0.0
H1277 H 0.41066 0.29478 0.62974 0.0
H1278 H 0.33201 0.25737 0.6251 0.0
H1279 H 0.31219 0.30244 0.62183 0.0
H1280 H 0.20208 0.14622 0.40626 0.0
H1281 H 0.19821 0.16028 0.42341 0.0
H1282 H 0.1134 0.17991 0.41899 0.0
H1283 H 0.11704 0.16553 0.40172 0.0
H1284 H 0.14791 0.22231 0.42705 0.0
H1285 H 0.15824 0.12547 0.44746 0.0
H1286 H 0.1824 0.12906 0.43762 0.0
H1287 H 0.14663 0.12715 0.43485 0.0
C1288 C 0.18255 0.15339 0.40894 0.0
C1289 C 0.1599 0.15501 0.40267 0.0
C1290 C 0.18029 0.16105 0.41876 0.0
C1291 C 0.15539 0.17058 0.42248 0.0
C1292 C 0.13265 0.17216 0.41626 0.0
H1293 H 0.17069 0.27432 0.47414 0.0
H1294 H 0.1445 0.24429 0.46351 0.0
C1295 C 0.13481 0.16412 0.40642 0.0
C1296 C 0.15452 0.18185 0.43252 0.0
H1297 H 0.17192 0.16619 0.45611 0.0
C1298 C 0.15234 0.2101 0.4335 0.0
C1299 C 0.16029 0.16569 0.44084 0.0
C1300 C 0.16178 0.13511 0.44018 0.0
C1301 C 0.15854 0.22299 0.44241 0.0
C1302 C 0.16621 0.20693 0.45063 0.0
C1303 C 0.16604 0.17845 0.44983 0.0
C1304 C 0.17907 0.21941 0.45938 0.0
C1305 C 0.1593 0.25373 0.44261 0.0
C1306 C 0.20649 0.21351 0.4614 0.0
C1307 C 0.22136 0.23004 0.46775 0.0
C1308 C 0.20918 0.25306 0.47204 0.0
C1309 C 0.18089 0.25692 0.47093 0.0
C1310 C 0.16588 0.23997 0.46473 0.0
H1311 H 0.15737 0.26274 0.43515 0.0
H1312 H 0.14214 0.26147 0.44713 0.0
H1313 H 0.17864 0.26103 0.44591 0.0
H1314 H 0.217 0.19743 0.45748 0.0
H1315 H 0.24289 0.22594 0.46872 0.0
H1316 H 0.20256 0.94857 0.65624 0.0
H1317 H 0.18947 0.94407 0.67346 0.0
H1318 H 0.1716 0.85913 0.66893 0.0
H1319 H 0.185 0.8634 0.65159 0.0
H1320 H 0.12874 0.8928 0.67733 0.0
H1321 H 0.22644 0.90421 0.6972 0.0
H1322 H 0.22182 0.92841 0.68744 0.0
H1323 H 0.22441 0.89279 0.68457 0.0
C1324 C 0.19596 0.92889 0.6589 0.0
C1325 C 0.19454 0.90637 0.65258 0.0
C1326 C 0.18888 0.92627 0.66877 0.0
C1327 C 0.18014 0.90115 0.67248 0.0
C1328 C 0.17875 0.87855 0.66621 0.0
H1329 H 0.07712 0.91503 0.72427 0.0
H1330 H 0.10746 0.88884 0.71375 0.0
C1331 C 0.18621 0.88107 0.65632 0.0
C1332 C 0.16936 0.89985 0.68259 0.0
H1333 H 0.18579 0.91676 0.70615 0.0
C1334 C 0.14116 0.89723 0.68373 0.0
C1335 C 0.18581 0.90563 0.69083 0.0
C1336 C 0.21636 0.90768 0.68999 0.0
C1337 C 0.12853 0.90305 0.69272 0.0
C1338 C 0.14483 0.91069 0.70089 0.0
C1339 C 0.17333 0.9109 0.69992 0.0
C1340 C 0.13251 0.92326 0.70974 0.0
C1341 C 0.09774 0.9035 0.69306 0.0
C1342 C 0.13859 0.95048 0.71192 0.0
C1343 C 0.122 0.96531 0.71829 0.0
C1344 C 0.09863 0.95334 0.7224 0.0
C1345 C 0.09471 0.92514 0.72119 0.0
C1346 C 0.11184 0.91012 0.71503 0.0
H1347 H 0.0885 0.90176 0.68563 0.0
H1348 H 0.09038 0.8861 0.69751 0.0
H1349 H 0.09024 0.92261 0.69648 0.0
H1350 H 0.15483 0.96095 0.70808 0.0
H1351 H 0.12632 0.98668 0.71938 0.0
H1352 H 0.48535 0.93809 0.90246 0.0
H1353 H 0.48937 0.9235 0.91968 0.0
H1354 H 0.40246 0.93197 0.92323 0.0
H1355 H 0.39822 0.94644 0.90614 0.0
H1356 H 0.43998 0.95508 0.93932 0.0
H1357 H 0.45717 0.84674 0.92863 0.0
H1358 H 0.47699 0.87328 0.92297 0.0
H1359 H 0.4414 0.87041 0.92022 0.0
C1360 C 0.46714 0.9369 0.90694 0.0
C1361 C 0.44143 0.94311 0.90295 0.0
C1362 C 0.4695 0.92869 0.91675 0.0
C1363 C 0.44621 0.92678 0.92267 0.0
C1364 C 0.42066 0.93351 0.91876 0.0
H1365 H 0.3599 0.87529 0.96965 0.0
H1366 H 0.38602 0.90448 0.95877 0.0
C1367 C 0.41826 0.94153 0.90897 0.0
C1368 C 0.4476 0.91592 0.93275 0.0
H1369 H 0.445 0.85554 0.9449 0.0
C1370 C 0.44177 0.93338 0.94064 0.0
C1371 C 0.45038 0.88773 0.93442 0.0
C1372 C 0.4568 0.86827 0.92615 0.0
C1373 C 0.43668 0.92305 0.95008 0.0
C1374 C 0.43666 0.89456 0.95153 0.0
C1375 C 0.4449 0.87739 0.94381 0.0
C1376 C 0.42369 0.8817 0.9602 0.0
C1377 C 0.43042 0.94272 0.95828 0.0
C1378 C 0.43622 0.8595 0.96488 0.0
C1379 C 0.421 0.84222 0.97088 0.0
C1380 C 0.39298 0.84695 0.97235 0.0
C1381 C 0.38129 0.87082 0.96852 0.0
C1382 C 0.39641 0.88785 0.96241 0.0
H1383 H 0.44251 0.96165 0.95743 0.0
H1384 H 0.40857 0.94853 0.95794 0.0
H1385 H 0.43475 0.93377 0.96561 0.0
H1386 H 0.45722 0.85431 0.96326 0.0
H1387 H 0.4307 0.82396 0.97365 0.0
H1388 H 0.48415 0.10091 0.21466 0.0
H1389 H 0.44996 0.12302 0.20451 0.0
H1390 H 0.46309 0.19861 0.21988 0.0
H1391 H 0.49774 0.17648 0.23013 0.0
H1392 H 0.40267 0.15611 0.20571 0.0
H1393 H 0.49397 0.21289 0.19238 0.0
H1394 H 0.49724 0.18457 0.20071 0.0
H1395 H 0.48428 0.21658 0.20505 0.0
C1396 C 0.47902 0.12192 0.2162 0.0
C1397 C 0.49406 0.13711 0.22305 0.0
C1398 C 0.45945 0.13459 0.21036 0.0
C1399 C 0.45456 0.1626 0.21128 0.0
C1400 C 0.46705 0.17709 0.21893 0.0
H1401 H 0.40595 0.23094 0.15418 0.0
H1402 H 0.41317 0.23249 0.17204 0.0
C1403 C 0.4868 0.16443 0.22477 0.0
C1404 C 0.44067 0.17671 0.2031 0.0
H1405 H 0.45656 0.21056 0.18198 0.0
C1406 C 0.4141 0.16875 0.20065 0.0
C1407 C 0.4556 0.19336 0.19653 0.0
C1408 C 0.48438 0.20235 0.19872 0.0
C1409 C 0.403 0.17493 0.19141 0.0
C1410 C 0.41911 0.18905 0.18448 0.0
C1411 C 0.44442 0.19954 0.18732 0.0
C1412 C 0.41255 0.18878 0.17388 0.0
C1413 C 0.37478 0.16494 0.18896 0.0
C1414 C 0.41059 0.16371 0.16902 0.0
C1415 C 0.40683 0.16275 0.15888 0.0
C1416 C 0.4051 0.18686 0.15339 0.0
C1417 C 0.4073 0.21203 0.15824 0.0
C1418 C 0.41118 0.21297 0.16842 0.0
H1419 H 0.36181 0.16413 0.19565 0.0
H1420 H 0.36475 0.17814 0.1834 0.0
H1421 H 0.37617 0.14399 0.18596 0.0
H1422 H 0.41253 0.14479 0.17304 0.0
H1423 H 0.40518 0.14304 0.15537 0.0
H1424 H 0.11689 0.94812 0.19995 0.0
H1425 H 0.1144 0.93854 0.18226 0.0
H1426 H 0.20162 0.92783 0.18143 0.0
H1427 H 0.20435 0.93758 0.19896 0.0
H1428 H 0.17872 0.9621 0.16596 0.0
H1429 H 0.1266 0.86189 0.17001 0.0
H1430 H 0.1119 0.89147 0.17574 0.0
H1431 H 0.14341 0.87788 0.18029 0.0
C1432 C 0.13549 0.94355 0.19599 0.0
C1433 C 0.16081 0.9434 0.20084 0.0
C1434 C 0.13402 0.93818 0.1859 0.0
C1435 C 0.15783 0.93252 0.18058 0.0
C1436 C 0.18304 0.93235 0.18542 0.0
H1437 H 0.24597 0.8665 0.13841 0.0
H1438 H 0.22377 0.90054 0.14847 0.0
C1439 C 0.18453 0.93771 0.19545 0.0
C1440 C 0.15708 0.9257 0.17002 0.0
H1441 H 0.14701 0.87143 0.15493 0.0
C1442 C 0.17114 0.94259 0.16344 0.0
C1443 C 0.14673 0.90051 0.16673 0.0
C1444 C 0.13135 0.88172 0.17352 0.0
C1445 C 0.17734 0.9338 0.15389 0.0
C1446 C 0.16965 0.90732 0.15097 0.0
C1447 C 0.15302 0.8917 0.15719 0.0
C1448 C 0.18329 0.8931 0.14274 0.0
C1449 C 0.1934 0.95231 0.14724 0.0
C1450 C 0.16811 0.87813 0.13588 0.0
C1451 C 0.18089 0.85849 0.13005 0.0
C1452 C 0.20897 0.85327 0.1311 0.0
C1453 C 0.22442 0.87012 0.13729 0.0
C1454 C 0.21168 0.88977 0.14307 0.0
H1455 H 0.18777 0.97392 0.14853 0.0
H1456 H 0.21543 0.95013 0.14891 0.0
H1457 H 0.19005 0.94737 0.13936 0.0
H1458 H 0.14616 0.8803 0.13554 0.0
H1459 H 0.16849 0.84615 0.12521 0.0
H1460 H 0.52439 0.91735 0.37988 0.0
H1461 H 0.494 0.89069 0.39019 0.0
H1462 H 0.4432 0.96143 0.39457 0.0
H1463 H 0.47235 0.98765 0.38372 0.0
H1464 H 0.49323 0.90311 0.40844 0.0
H1465 H 0.38646 0.90489 0.3965 0.0
H1466 H 0.41395 0.91279 0.38815 0.0
H1467 H 0.39925 0.93889 0.39587 0.0
C1468 C 0.50595 0.92691 0.38259 0.0
C1469 C 0.50111 0.95486 0.38114 0.0
C1470 C 0.48864 0.91159 0.38855 0.0
C1471 C 0.46633 0.92398 0.39322 0.0
C1472 C 0.45994 0.95113 0.39095 0.0
H1473 H 0.40409 0.95004 0.44776 0.0
H1474 H 0.41766 0.9458 0.43056 0.0
C1475 C 0.47697 0.96632 0.38486 0.0
C1476 C 0.45383 0.91118 0.402 0.0
H1477 H 0.3938 0.90808 0.41459 0.0
C1478 C 0.4714 0.90319 0.40965 0.0
C1479 C 0.42537 0.91116 0.40363 0.0
C1480 C 0.40527 0.91714 0.39553 0.0
C1481 C 0.46149 0.89794 0.41911 0.0
C1482 C 0.43333 0.9007 0.42094 0.0
C1483 C 0.41547 0.90632 0.41315 0.0
C1484 C 0.42293 0.90213 0.43109 0.0
C1485 C 0.48138 0.89175 0.42728 0.0
C1486 C 0.42138 0.87888 0.43703 0.0
C1487 C 0.41369 0.88124 0.44689 0.0
C1488 C 0.40766 0.90691 0.45092 0.0
C1489 C 0.40889 0.93004 0.44489 0.0
C1490 C 0.41638 0.92764 0.43505 0.0
H1491 H 0.50283 0.89144 0.42468 0.0
H1492 H 0.47943 0.9072 0.4332 0.0
H1493 H 0.47661 0.87161 0.43053 0.0
H1494 H 0.42644 0.85905 0.43406 0.0
H1495 H 0.41277 0.86306 0.45138 0.0
H1496 H 0.34806 0.23798 0.64045 0.0
H1497 H 0.37005 0.20369 0.65058 0.0
H1498 H 0.44517 0.21476 0.63466 0.0
H1499 H 0.42312 0.24927 0.62434 0.0
H1500 H 0.40235 0.15506 0.64856 0.0
H1501 H 0.46113 0.2443 0.66248 0.0
H1502 H 0.43219 0.24863 0.65447 0.0
H1503 H 0.46372 0.23569 0.64967 0.0
C1504 C 0.36892 0.2324 0.63879 0.0
C1505 C 0.38399 0.24672 0.6317 0.0
C1506 C 0.38152 0.2128 0.64463 0.0
C1507 C 0.40936 0.20718 0.6435 0.0
C1508 C 0.42377 0.21922 0.63574 0.0
H1509 H 0.48041 0.15278 0.69954 0.0
H1510 H 0.48105 0.16166 0.68176 0.0
C1511 C 0.41115 0.23893 0.62988 0.0
C1512 C 0.42354 0.19251 0.65148 0.0
H1513 H 0.45885 0.20605 0.67251 0.0
C1514 C 0.41541 0.16587 0.65367 0.0
C1515 C 0.44076 0.20662 0.65809 0.0
C1516 C 0.44998 0.23542 0.65614 0.0
C1517 C 0.42212 0.15382 0.66269 0.0
C1518 C 0.43685 0.16907 0.66971 0.0
C1519 C 0.44738 0.19454 0.66712 0.0
C1520 C 0.43717 0.16143 0.68022 0.0
C1521 C 0.41205 0.12547 0.66484 0.0
C1522 C 0.41233 0.15907 0.68523 0.0
C1523 C 0.41189 0.15434 0.69531 0.0
C1524 C 0.43632 0.15205 0.70062 0.0
C1525 C 0.46128 0.15453 0.69563 0.0
C1526 C 0.46169 0.15938 0.68548 0.0
H1527 H 0.41083 0.11321 0.658 0.0
H1528 H 0.42549 0.11483 0.67018 0.0
H1529 H 0.39123 0.12668 0.668 0.0
H1530 H 0.39317 0.16149 0.68137 0.0
H1531 H 0.39233 0.1525 0.69893 0.0
H1532 H 0.19644 0.23499 0.95064 0.0
H1533 H 0.18625 0.23823 0.93301 0.0
H1534 H 0.17941 0.15088 0.93145 0.0
H1535 H 0.18981 0.1474 0.94893 0.0
H1536 H 0.21186 0.17596 0.91601 0.0
H1537 H 0.10966 0.22405 0.92109 0.0
H1538 H 0.13892 0.23956 0.92674 0.0
H1539 H 0.12693 0.20734 0.93113 0.0
C1540 C 0.19261 0.21651 0.94653 0.0
C1541 C 0.1937 0.19094 0.95116 0.0
C1542 C 0.18688 0.21841 0.93648 0.0
C1543 C 0.1821 0.19479 0.93097 0.0
C1544 C 0.18323 0.16932 0.93559 0.0
H1545 H 0.11752 0.10756 0.88841 0.0
H1546 H 0.15131 0.13018 0.89843 0.0
C1547 C 0.18895 0.16739 0.94559 0.0
C1548 C 0.17476 0.19599 0.92046 0.0
H1549 H 0.11944 0.20529 0.90575 0.0
C1550 C 0.19194 0.18303 0.91366 0.0
C1551 C 0.14902 0.2057 0.9174 0.0
C1552 C 0.1299 0.21989 0.92443 0.0
C1553 C 0.18298 0.17726 0.9041 0.0
C1554 C 0.15607 0.18422 0.9014 0.0
C1555 C 0.14006 0.19983 0.90785 0.0
C1556 C 0.14199 0.1707 0.89312 0.0
C1557 C 0.20185 0.16237 0.8972 0.0
C1558 C 0.12606 0.18579 0.8865 0.0
C1559 C 0.10656 0.17276 0.88069 0.0
C1560 C 0.10245 0.1445 0.88154 0.0
C1561 C 0.12026 0.12925 0.88746 0.0
C1562 C 0.13978 0.14224 0.89321 0.0
H1563 H 0.2233 0.16867 0.89842 0.0
H1564 H 0.20062 0.1402 0.89867 0.0
H1565 H 0.19641 0.16609 0.88938 0.0
H1566 H 0.12737 0.20778 0.88634 0.0
H1567 H 0.09346 0.18502 0.87605 0.0
H1568 H 0.89785 0.94568 0.69767 0.0
H1569 H 0.90292 0.93111 0.6806 0.0
H1570 H 0.98947 0.92148 0.68484 0.0
H1571 H 0.98463 0.93616 0.70201 0.0
H1572 H 0.94228 0.95398 0.66485 0.0
H1573 H 0.95638 0.8452 0.67553 0.0
H1574 H 0.9402 0.86902 0.68378 0.0
H1575 H 0.97608 0.87131 0.6815 0.0
C1576 C 0.91798 0.94048 0.69499 0.0
C1577 C 0.94082 0.9418 0.70118 0.0
C1578 C 0.92086 0.9324 0.68522 0.0
C1579 C 0.94655 0.92536 0.68151 0.0
C1580 C 0.96951 0.92693 0.68761 0.0
H1581 H 0.93331 0.82313 0.63036 0.0
H1582 H 0.95968 0.85307 0.64096 0.0
C1583 C 0.96667 0.93519 0.6974 0.0
C1584 C 0.94848 0.91459 0.67143 0.0
H1585 H 0.94589 0.85444 0.65914 0.0
C1586 C 0.94375 0.93227 0.66351 0.0
C1587 C 0.95087 0.88638 0.66973 0.0
C1588 C 0.95614 0.8667 0.67804 0.0
C1589 C 0.9394 0.92217 0.65399 0.0
C1590 C 0.93897 0.89371 0.65248 0.0
C1591 C 0.94611 0.87627 0.66027 0.0
C1592 C 0.92654 0.88121 0.64364 0.0
C1593 C 0.93435 0.94208 0.64576 0.0
C1594 C 0.89961 0.88797 0.64112 0.0
C1595 C 0.8846 0.87117 0.63489 0.0
C1596 C 0.89602 0.84695 0.63126 0.0
C1597 C 0.92382 0.84167 0.63299 0.0
C1598 C 0.93896 0.85871 0.63911 0.0
H1599 H 0.9468 0.9607 0.64679 0.0
H1600 H 0.93914 0.93312 0.63847 0.0
H1601 H 0.91263 0.9484 0.64585 0.0
H1602 H 0.8893 0.90486 0.64463 0.0
H1603 H 0.8634 0.87607 0.63355 0.0
H1604 H 0.90714 0.14866 0.44835 0.0
H1605 H 0.9213 0.15286 0.43122 0.0
H1606 H 0.92837 0.23976 0.43461 0.0
H1607 H 0.91405 0.2358 0.45186 0.0
H1608 H 0.89643 0.19096 0.41525 0.0
H1609 H 1.00553 0.20732 0.42517 0.0
H1610 H 0.98255 0.19093 0.43366 0.0
H1611 H 0.97908 0.22658 0.43121 0.0
C1612 C 0.91172 0.16868 0.44547 0.0
C1613 C 0.90974 0.19188 0.45145 0.0
C1614 C 0.91956 0.17106 0.43567 0.0
C1615 C 0.92572 0.1966 0.4317 0.0
C1616 C 0.92359 0.2199 0.43759 0.0
H1617 H 1.026 0.18018 0.3801 0.0
H1618 H 0.99627 0.2071 0.39063 0.0
C1619 C 0.91554 0.21757 0.44742 0.0
C1620 C 0.93604 0.19804 0.42154 0.0
H1621 H 0.99583 0.19488 0.40898 0.0
C1622 C 0.91809 0.19252 0.41378 0.0
C1623 C 0.96419 0.20053 0.41968 0.0
C1624 C 0.98413 0.20665 0.42783 0.0
C1625 C 0.92788 0.18744 0.40426 0.0
C1626 C 0.95633 0.18709 0.40261 0.0
C1627 C 0.974 0.19504 0.41022 0.0
C1628 C 0.96865 0.17402 0.39384 0.0
C1629 C 0.90769 0.18152 0.39619 0.0
C1630 C 0.96211 0.14688 0.39165 0.0
C1631 C 0.97877 0.13154 0.38546 0.0
C1632 C 1.00266 0.14285 0.38152 0.0
C1633 C 1.00771 0.17076 0.38295 0.0
C1634 C 0.99079 0.18621 0.38904 0.0
H1635 H 0.88891 0.19387 0.39718 0.0
H1636 H 0.91631 0.18575 0.3888 0.0
H1637 H 0.90166 0.1598 0.39656 0.0
H1638 H 0.94551 0.13674 0.39538 0.0
H1639 H 0.97404 0.11025 0.38435 0.0
H1640 H 0.66799 0.25387 0.12461 0.0
H1641 H 0.64434 0.22067 0.13498 0.0
H1642 H 0.72001 0.20217 0.14968 0.0
H1643 H 0.74359 0.23503 0.13948 0.0
H1644 H 0.68456 0.15703 0.1482 0.0
H1645 H 0.63257 0.24977 0.16287 0.0
H1646 H 0.62791 0.24113 0.15015 0.0
H1647 H 0.66064 0.25242 0.15439 0.0
C1648 C 0.67968 0.24214 0.12988 0.0
C1649 C 0.70757 0.24747 0.13137 0.0
C1650 C 0.66614 0.22321 0.13578 0.0
C1651 C 0.68034 0.20952 0.14324 0.0
C1652 C 0.70867 0.21259 0.14397 0.0
H1653 H 0.70325 0.15576 0.1982 0.0
H1654 H 0.69972 0.16495 0.18067 0.0
C1655 C 0.72219 0.23139 0.13809 0.0
C1656 C 0.66597 0.19576 0.15139 0.0
H1657 H 0.63473 0.21179 0.17304 0.0
C1658 C 0.67287 0.16869 0.15351 0.0
C1659 C 0.65048 0.21097 0.15826 0.0
C1660 C 0.64245 0.2402 0.15638 0.0
C1661 C 0.66704 0.1573 0.16271 0.0
C1662 C 0.65438 0.17359 0.16996 0.0
C1663 C 0.64471 0.19952 0.16747 0.0
C1664 C 0.65563 0.16633 0.18049 0.0
C1665 C 0.67603 0.12853 0.16481 0.0
C1666 C 0.632 0.16507 0.18627 0.0
C1667 C 0.63397 0.16005 0.19638 0.0
C1668 C 0.65963 0.15663 0.20082 0.0
C1669 C 0.68319 0.15833 0.19501 0.0
C1670 C 0.68119 0.16319 0.18495 0.0
H1671 H 0.67576 0.11602 0.158 0.0
H1672 H 0.69726 0.12873 0.16761 0.0
H1673 H 0.66282 0.11876 0.17041 0.0
H1674 H 0.61212 0.16795 0.18297 0.0
H1675 H 0.61547 0.15879 0.2007 0.0
H1676 H 0.57342 0.91472 0.8798 0.0
H1677 H 0.60231 0.88809 0.89071 0.0
H1678 H 0.65391 0.95789 0.89518 0.0
H1679 H 0.62672 0.98391 0.88352 0.0
H1680 H 0.68221 0.91163 0.89771 0.0
H1681 H 0.58457 0.90639 0.91864 0.0
H1682 H 0.58499 0.88915 0.90702 0.0
H1683 H 0.58761 0.92565 0.90745 0.0
C1684 C 0.59167 0.9241 0.88268 0.0
C1685 C 0.59722 0.95183 0.88101 0.0
C1686 C 0.60795 0.90888 0.88907 0.0
C1687 C 0.62943 0.92141 0.89412 0.0
C1688 C 0.63706 0.94794 0.89151 0.0
H1689 H 0.70162 0.94735 0.9473 0.0
H1690 H 0.6877 0.94235 0.93017 0.0
C1691 C 0.62125 0.96294 0.88493 0.0
C1692 C 0.64105 0.9092 0.90315 0.0
H1693 H 0.62425 0.89526 0.92699 0.0
C1694 C 0.66951 0.90744 0.90405 0.0
C1695 C 0.62442 0.90378 0.91146 0.0
C1696 C 0.59374 0.90649 0.91117 0.0
C1697 C 0.68178 0.90224 0.91318 0.0
C1698 C 0.66515 0.89859 0.92154 0.0
C1699 C 0.6368 0.89803 0.9205 0.0
C1700 C 0.6763 0.90004 0.93158 0.0
C1701 C 0.71242 0.90207 0.91394 0.0
C1702 C 0.67407 0.87795 0.93805 0.0
C1703 C 0.68206 0.88074 0.94787 0.0
C1704 C 0.69174 0.90584 0.95135 0.0
C1705 C 0.69398 0.92785 0.94484 0.0
C1706 C 0.6864 0.92493 0.93502 0.0
H1707 H 0.7221 0.8976 0.90673 0.0
H1708 H 0.71944 0.92242 0.9164 0.0
H1709 H 0.71942 0.88682 0.91942 0.0
H1710 H 0.66588 0.85873 0.93553 0.0
H1711 H 0.68018 0.86346 0.95277 0.0
H1712 H 0.9802 0.15479 0.90412 0.0
H1713 H 0.98185 0.16359 0.92189 0.0
H1714 H 0.89406 0.1613 0.92307 0.0
H1715 H 0.89222 0.15237 0.90551 0.0
H1716 H 0.95921 0.20734 0.93139 0.0
H1717 H 0.91467 0.11311 0.9462 0.0
H1718 H 0.92841 0.11526 0.93389 0.0
H1719 H 0.89405 0.12625 0.93641 0.0
C1720 C 0.96129 0.15609 0.9082 0.0
C1721 C 0.93607 0.15299 0.90344 0.0
C1722 C 0.96229 0.16088 0.91834 0.0
C1723 C 0.93811 0.16229 0.92383 0.0
C1724 C 0.91299 0.15938 0.91904 0.0
H1725 H 0.85032 0.23594 0.96457 0.0
H1726 H 0.87234 0.20189 0.95434 0.0
C1727 C 0.91197 0.15469 0.90896 0.0
C1728 C 0.93839 0.16978 0.93434 0.0
H1729 H 0.9061 0.15455 0.95583 0.0
C1730 C 0.94849 0.19546 0.93688 0.0
C1731 C 0.92464 0.15405 0.94148 0.0
C1732 C 0.91511 0.1255 0.93937 0.0
C1733 C 0.94235 0.20723 0.946 0.0
C1734 C 0.92608 0.19258 0.95277 0.0
C1735 C 0.91844 0.16576 0.95061 0.0
C1736 C 0.91217 0.20678 0.96093 0.0
C1737 C 0.95097 0.23624 0.94789 0.0
C1738 C 0.9269 0.21945 0.96847 0.0
C1739 C 0.91429 0.23906 0.97438 0.0
C1740 C 0.88679 0.24607 0.97281 0.0
C1741 C 0.87146 0.23099 0.96601 0.0
C1742 C 0.88407 0.21151 0.96012 0.0
H1743 H 0.96123 0.24552 0.94143 0.0
H1744 H 0.93302 0.24895 0.94983 0.0
H1745 H 0.96537 0.23679 0.95418 0.0
H1746 H 0.94852 0.21564 0.96932 0.0
H1747 H 0.92647 0.25002 0.9797 0.0
H1748 H 0.6806 0.15107 0.65418 0.0
H1749 H 0.66357 0.15648 0.67093 0.0
H1750 H 0.6769 0.24299 0.66928 0.0
H1751 H 0.69398 0.23786 0.6524 0.0
H1752 H 0.69738 0.20381 0.68808 0.0
H1753 H 0.5885 0.20626 0.67677 0.0
H1754 H 0.61025 0.18269 0.67032 0.0
H1755 H 0.61564 0.21858 0.66898 0.0
C1756 C 0.67994 0.17126 0.65735 0.0
C1757 C 0.6885 0.19405 0.65197 0.0
C1758 C 0.67031 0.17428 0.66692 0.0
C1759 C 0.66916 0.20008 0.67128 0.0
C1760 C 0.67783 0.22293 0.666 0.0
H1761 H 0.56641 0.18707 0.72208 0.0
H1762 H 0.59418 0.2139 0.71093 0.0
C1763 C 0.6874 0.21995 0.65637 0.0
C1764 C 0.65783 0.20269 0.68124 0.0
H1765 H 0.59788 0.19449 0.69334 0.0
C1766 C 0.67559 0.2025 0.68931 0.0
C1767 C 0.62947 0.20147 0.68277 0.0
C1768 C 0.60972 0.20245 0.67427 0.0
C1769 C 0.66564 0.19892 0.69891 0.0
C1770 C 0.63739 0.1949 0.70034 0.0
C1771 C 0.61957 0.19749 0.6923 0.0
C1772 C 0.62603 0.18363 0.70957 0.0
C1773 C 0.68557 0.19852 0.70734 0.0
C1774 C 0.63557 0.15844 0.71305 0.0
C1775 C 0.62002 0.1433 0.71966 0.0
C1776 C 0.59438 0.15282 0.72273 0.0
C1777 C 0.5862 0.17922 0.72 0.0
C1778 C 0.60199 0.19455 0.71353 0.0
H1779 H 0.70278 0.21263 0.70592 0.0
H1780 H 0.67569 0.20426 0.71438 0.0
H1781 H 0.69424 0.17775 0.70808 0.0
H1782 H 0.65378 0.14928 0.71 0.0
H1783 H 0.62709 0.12323 0.72175 0.0
H1784 H 0.61895 0.93362 0.40226 0.0
H1785 H 0.61607 0.91983 0.41959 0.0
H1786 H 0.70096 0.93959 0.42349 0.0
H1787 H 0.70405 0.95316 0.40629 0.0
H1788 H 0.65025 0.87778 0.42755 0.0
H1789 H 0.66292 0.97469 0.44771 0.0
H1790 H 0.65115 0.97312 0.43512 0.0
H1791 H 0.6869 0.9704 0.43785 0.0
C1792 C 0.63689 0.93519 0.40686 0.0
C1793 C 0.66178 0.9442 0.40293 0.0
C1794 C 0.63517 0.9275 0.41674 0.0
C1795 C 0.65815 0.92928 0.42283 0.0
C1796 C 0.68284 0.93871 0.41895 0.0
H1797 H 0.74494 0.87252 0.4696 0.0
H1798 H 0.72016 0.90149 0.45816 0.0
C1799 C 0.68467 0.94607 0.40909 0.0
C1800 C 0.65774 0.91818 0.4329 0.0
H1801 H 0.67611 0.93381 0.4564 0.0
C1802 C 0.65512 0.88999 0.43396 0.0
C1803 C 0.66415 0.93434 0.44117 0.0
C1804 C 0.6662 0.96487 0.44044 0.0
C1805 C 0.66134 0.87711 0.44286 0.0
C1806 C 0.66942 0.89313 0.45104 0.0
C1807 C 0.66989 0.92159 0.45016 0.0
C1808 C 0.68173 0.88045 0.45986 0.0
C1809 C 0.66158 0.84637 0.44311 0.0
C1810 C 0.6679 0.86032 0.46517 0.0
C1811 C 0.68229 0.84299 0.47144 0.0
C1812 C 0.71062 0.8461 0.47271 0.0
C1813 C 0.72342 0.86885 0.46849 0.0
C1814 C 0.70916 0.8857 0.46203 0.0
H1815 H 0.65976 0.83732 0.43566 0.0
H1816 H 0.68067 0.83867 0.44651 0.0
H1817 H 0.64412 0.83904 0.44755 0.0
H1818 H 0.64647 0.85656 0.46386 0.0
H1819 H 0.67155 0.82587 0.47459 0.0
H1820 H 0.97363 0.98775 0.21983 0.0
H1821 H 0.94503 0.96175 0.2087 0.0
H1822 H 0.99601 0.89111 0.21303 0.0
H1823 H 1.0258 0.91754 0.22365 0.0
H1824 H 0.9955 0.90414 0.19476 0.0
H1825 H 0.88859 0.90475 0.2066 0.0
H1826 H 0.90126 0.93877 0.2074 0.0
H1827 H 0.916 0.91249 0.21501 0.0
C1828 C 0.97839 0.96649 0.21861 0.0
C1829 C 1.00237 0.95498 0.22244 0.0
C1830 C 0.96169 0.95143 0.21236 0.0
C1831 C 0.96828 0.92437 0.21002 0.0
C1832 C 0.99049 0.91194 0.21473 0.0
H1833 H 0.91298 0.86425 0.15188 0.0
H1834 H 0.92747 0.85991 0.16911 0.0
C1835 C 1.00745 0.92711 0.22087 0.0
C1836 C 0.95598 0.91168 0.20119 0.0
H1837 H 0.89605 0.90824 0.18855 0.0
C1838 C 0.97366 0.90402 0.19353 0.0
C1839 C 0.92753 0.9114 0.19954 0.0
C1840 C 0.90734 0.91703 0.20765 0.0
C1841 C 0.96384 0.89883 0.18405 0.0
C1842 C 0.93567 0.90138 0.18221 0.0
C1843 C 0.91772 0.90664 0.19001 0.0
C1844 C 0.92532 0.90308 0.17207 0.0
C1845 C 0.98377 0.89298 0.17587 0.0
C1846 C 0.91944 0.92876 0.16813 0.0
C1847 C 0.91151 0.93135 0.15835 0.0
C1848 C 0.90917 0.90823 0.15235 0.0
C1849 C 0.91474 0.88241 0.15634 0.0
C1850 C 0.92287 0.87987 0.16616 0.0
H1851 H 1.00515 0.89196 0.17853 0.0
H1852 H 0.97862 0.8733 0.17234 0.0
H1853 H 0.98227 0.90905 0.17016 0.0
H1854 H 0.92143 0.94689 0.17261 0.0
H1855 H 0.90714 0.95147 0.1555 0.0
H1856 H 0.75138 0.73497 0.96414 0.0
H1857 H 0.72948 0.70096 0.95391 0.0
H1858 H 0.65413 0.71236 0.9697 0.0
H1859 H 0.67609 0.74663 0.98011 0.0
H1860 H 0.69701 0.6527 0.95558 0.0
H1861 H 0.63868 0.74292 0.94202 0.0
H1862 H 0.66743 0.74673 0.95014 0.0
H1863 H 0.63577 0.73376 0.95477 0.0
C1864 C 0.73049 0.72951 0.96576 0.0
C1865 C 0.71532 0.74389 0.97281 0.0
C1866 C 0.71794 0.71006 0.95986 0.0
C1867 C 0.69005 0.70466 0.96091 0.0
C1868 C 0.67557 0.71667 0.96867 0.0
H1869 H 0.62026 0.65327 0.90435 0.0
H1870 H 0.6192 0.66129 0.92218 0.0
C1871 C 0.68813 0.73623 0.97459 0.0
C1872 C 0.67594 0.69041 0.95283 0.0
H1873 H 0.64118 0.70516 0.93177 0.0
C1874 C 0.68409 0.66382 0.9505 0.0
C1875 C 0.6589 0.70493 0.94625 0.0
C1876 C 0.64967 0.73369 0.94834 0.0
C1877 C 0.67761 0.65226 0.94138 0.0
C1878 C 0.66309 0.66794 0.93441 0.0
C1879 C 0.65251 0.69333 0.93713 0.0
C1880 C 0.66305 0.66083 0.92385 0.0
C1881 C 0.68771 0.62397 0.93907 0.0
C1882 C 0.68801 0.65863 0.9189 0.0
C1883 C 0.68869 0.6544 0.90879 0.0
C1884 C 0.66438 0.65244 0.9034 0.0
C1885 C 0.63931 0.65478 0.90833 0.0
C1886 C 0.63866 0.65914 0.9185 0.0
H1887 H 0.68879 0.61137 0.94584 0.0
H1888 H 0.67439 0.61366 0.93363 0.0
H1889 H 0.7086 0.62523 0.93598 0.0
H1890 H 0.70708 0.66079 0.92284 0.0
H1891 H 0.70833 0.65264 0.90522 0.0
H1892 H 0.61449 0.4964 0.21465 0.0
H1893 H 0.64774 0.47341 0.20437 0.0
H1894 H 0.63158 0.39769 0.21926 0.0
H1895 H 0.59801 0.42073 0.22971 0.0
H1896 H 0.69401 0.439 0.20588 0.0
H1897 H 0.60232 0.38503 0.19141 0.0
H1898 H 0.5991 0.41316 0.19983 0.0
H1899 H 0.61108 0.38075 0.20414 0.0
C1900 C 0.61872 0.47512 0.21606 0.0
C1901 C 0.60322 0.46029 0.22288 0.0
C1902 C 0.63774 0.46195 0.21013 0.0
C1903 C 0.6416 0.43375 0.21091 0.0
C1904 C 0.62844 0.41938 0.21843 0.0
H1905 H 0.69398 0.367 0.15391 0.0
H1906 H 0.68478 0.36469 0.17164 0.0
C1907 C 0.60929 0.43258 0.22438 0.0
C1908 C 0.65567 0.41958 0.20278 0.0
H1909 H 0.64043 0.38723 0.18129 0.0
C1910 C 0.68262 0.42692 0.20063 0.0
C1911 C 0.6408 0.40361 0.19597 0.0
C1912 C 0.6117 0.39517 0.19787 0.0
C1913 C 0.69421 0.42091 0.19147 0.0
C1914 C 0.67824 0.40762 0.18428 0.0
C1915 C 0.65246 0.39765 0.18681 0.0
C1916 C 0.68566 0.4083 0.17376 0.0
C1917 C 0.72285 0.43027 0.18935 0.0
C1918 C 0.68844 0.43357 0.16909 0.0
C1919 C 0.69334 0.43497 0.15902 0.0
C1920 C 0.69542 0.4111 0.15341 0.0
C1921 C 0.69242 0.38573 0.15806 0.0
C1922 C 0.68737 0.38436 0.16818 0.0
H1923 H 0.73531 0.43058 0.19617 0.0
H1924 H 0.73298 0.41698 0.18384 0.0
H1925 H 0.72221 0.45132 0.1864 0.0
H1926 H 0.68633 0.45231 0.17321 0.0
H1927 H 0.69559 0.45481 0.15566 0.0
H1928 H 0.8502 0.36386 0.46388 0.0
H1929 H 0.87252 0.39748 0.4536 0.0
H1930 H 0.94742 0.38616 0.46968 0.0
H1931 H 0.92505 0.35223 0.48012 0.0
H1932 H 0.90501 0.44549 0.4551 0.0
H1933 H 0.96366 0.35466 0.44225 0.0
H1934 H 0.93473 0.35121 0.45031 0.0
H1935 H 0.96628 0.36443 0.45495 0.0
C1936 C 0.87108 0.36926 0.46554 0.0
C1937 C 0.88601 0.35498 0.47269 0.0
C1938 C 0.88387 0.38849 0.45962 0.0
C1939 C 0.91176 0.39377 0.46074 0.0
C1940 C 0.92599 0.38192 0.46859 0.0
H1941 H 0.98205 0.44359 0.40402 0.0
H1942 H 0.98312 0.43589 0.42187 0.0
C1943 C 0.91319 0.36256 0.47453 0.0
C1944 C 0.92614 0.40766 0.45264 0.0
H1945 H 0.96124 0.39188 0.43175 0.0
C1946 C 0.91803 0.43413 0.45012 0.0
C1947 C 0.94331 0.39282 0.44619 0.0
C1948 C 0.95252 0.36417 0.44848 0.0
C1949 C 0.92461 0.44521 0.44093 0.0
C1950 C 0.93923 0.42919 0.43409 0.0
C1951 C 0.94983 0.40397 0.43701 0.0
C1952 C 0.93927 0.4357 0.42349 0.0
C1953 C 0.91444 0.47333 0.4384 0.0
C1954 C 0.91431 0.4373 0.41851 0.0
C1955 C 0.91362 0.44132 0.4084 0.0
C1956 C 0.93792 0.44368 0.40303 0.0
C1957 C 0.963 0.44177 0.40798 0.0
C1958 C 0.96366 0.43761 0.41816 0.0
H1959 H 0.9131 0.48628 0.44508 0.0
H1960 H 0.92787 0.48342 0.43294 0.0
H1961 H 0.89365 0.47181 0.43523 0.0
H1962 H 0.89525 0.43497 0.42244 0.0
H1963 H 0.89397 0.44272 0.4048 0.0
H1964 H 0.89841 0.65115 0.65744 0.0
H1965 H 0.9126 0.65668 0.67454 0.0
H1966 H 0.93485 0.73996 0.66874 0.0
H1967 H 0.92024 0.73471 0.65156 0.0
H1968 H 0.97645 0.70245 0.67737 0.0
H1969 H 0.87874 0.70367 0.69778 0.0
H1970 H 0.88076 0.67869 0.68814 0.0
H1971 H 0.88166 0.71423 0.68508 0.0
C1972 C 0.9062 0.67068 0.65981 0.0
C1973 C 0.90846 0.69245 0.65319 0.0
C1974 C 0.91395 0.67391 0.66959 0.0
C1975 C 0.92425 0.69886 0.67289 0.0
C1976 C 0.9265 0.72071 0.66632 0.0
H1977 H 1.02748 0.68519 0.72457 0.0
H1978 H 0.99893 0.71178 0.71353 0.0
C1979 C 0.91834 0.71762 0.65654 0.0
C1980 C 0.93555 0.70061 0.68291 0.0
H1981 H 0.91842 0.68969 0.70686 0.0
C1982 C 0.96391 0.70046 0.68389 0.0
C1983 C 0.91892 0.69797 0.69131 0.0
C1984 C 0.88829 0.69887 0.69057 0.0
C1985 C 0.97624 0.69503 0.69297 0.0
C1986 C 0.95957 0.69066 0.70135 0.0
C1987 C 0.93115 0.6931 0.70047 0.0
C1988 C 0.97099 0.67886 0.71049 0.0
C1989 C 1.00684 0.69149 0.69324 0.0
C1990 C 0.96282 0.65269 0.71334 0.0
C1991 C 0.97844 0.63777 0.72 0.0
C1992 C 1.00281 0.64859 0.72375 0.0
C1993 C 1.00893 0.67607 0.72184 0.0
C1994 C 0.99285 0.69124 0.71537 0.0
H1995 H 1.01592 0.69078 0.68576 0.0
H1996 H 1.01612 0.70887 0.69721 0.0
H1997 H 1.01249 0.67245 0.69714 0.0
H1998 H 0.94567 0.64288 0.7098 0.0
H1999 H 0.97257 0.61701 0.72159 0.0
H2000 H 0.66908 0.32657 0.62998 0.0
H2001 H 0.64273 0.35688 0.64047 0.0
H2002 H 0.7141 0.40639 0.64506 0.0
H2003 H 0.74004 0.37731 0.63406 0.0
H2004 H 0.65512 0.35725 0.65877 0.0
H2005 H 0.6579 0.4639 0.64689 0.0
H2006 H 0.66554 0.43635 0.63854 0.0
H2007 H 0.6918 0.45057 0.64627 0.0
C2008 C 0.67886 0.34471 0.63278 0.0
C2009 C 0.70689 0.34923 0.63132 0.0
C2010 C 0.66372 0.36197 0.63885 0.0
C2011 C 0.67636 0.38392 0.6436 0.0
C2012 C 0.70363 0.38995 0.64137 0.0
H2013 H 0.70232 0.44582 0.69813 0.0
H2014 H 0.6981 0.43214 0.68095 0.0
C2015 C 0.71865 0.37296 0.63519 0.0
C2016 C 0.66355 0.39651 0.65237 0.0
H2017 H 0.66064 0.45646 0.66496 0.0
C2018 C 0.65532 0.37905 0.66 0.0
C2019 C 0.66369 0.42492 0.654 0.0
C2020 C 0.66994 0.44493 0.64592 0.0
C2021 C 0.64998 0.38899 0.66945 0.0
C2022 C 0.6529 0.41707 0.67129 0.0
C2023 C 0.65875 0.43485 0.66351 0.0
C2024 C 0.65432 0.42744 0.68144 0.0
C2025 C 0.64355 0.3692 0.67761 0.0
C2026 C 0.631 0.42934 0.68735 0.0
C2027 C 0.63334 0.4371 0.69721 0.0
C2028 C 0.65907 0.44285 0.70125 0.0
C2029 C 0.68227 0.44125 0.69525 0.0
C2030 C 0.67989 0.43369 0.68542 0.0
H2031 H 0.64306 0.34779 0.675 0.0
H2032 H 0.65901 0.37092 0.68354 0.0
H2033 H 0.62341 0.37424 0.68085 0.0
H2034 H 0.61112 0.42451 0.68437 0.0
H2035 H 0.61511 0.43831 0.70167 0.0
H2036 H 0.98487 0.50115 0.89046 0.0
H2037 H 0.95092 0.47896 0.90066 0.0
H2038 H 0.96209 0.40424 0.88453 0.0
H2039 H 0.99639 0.42646 0.87419 0.0
H2040 H 0.90276 0.44671 0.89914 0.0
H2041 H 0.99349 0.38766 0.91192 0.0
H2042 H 0.99704 0.41659 0.90389 0.0
H2043 H 0.98374 0.38515 0.89922 0.0
C2044 C 0.97935 0.48035 0.88877 0.0
C2045 C 0.99371 0.46539 0.88165 0.0
C2046 C 0.95994 0.46763 0.89464 0.0
C2047 C 0.95454 0.4398 0.89349 0.0
C2048 C 0.96643 0.42561 0.88564 0.0
H2049 H 0.90416 0.36901 0.95008 0.0
H2050 H 0.91184 0.36812 0.93222 0.0
C2051 C 0.98598 0.43832 0.87976 0.0
C2052 C 0.94056 0.42541 0.90157 0.0
H2053 H 0.95613 0.38991 0.92238 0.0
C2054 C 0.91407 0.43357 0.90409 0.0
C2055 C 0.95533 0.4081 0.90799 0.0
C2056 C 0.98401 0.39885 0.9057 0.0
C2057 C 0.90291 0.42687 0.91326 0.0
C2058 C 0.91887 0.41207 0.92007 0.0
C2059 C 0.94409 0.40144 0.91714 0.0
C2060 C 0.91234 0.41192 0.93067 0.0
C2061 C 0.87479 0.43711 0.91581 0.0
C2062 C 0.91093 0.43678 0.93569 0.0
C2063 C 0.90694 0.43736 0.94581 0.0
C2064 C 0.90441 0.41305 0.95114 0.0
C2065 C 0.90612 0.38806 0.94614 0.0
C2066 C 0.91026 0.38751 0.93596 0.0
H2067 H 0.86184 0.43863 0.90913 0.0
H2068 H 0.86461 0.42363 0.92123 0.0
H2069 H 0.8764 0.45779 0.91903 0.0
H2070 H 0.9134 0.45584 0.93179 0.0
H2071 H 0.9057 0.45695 0.94943 0.0
H2072 H 0.93045 0.7736 0.12998 0.0
H2073 H 0.95632 0.74316 0.14055 0.0
H2074 H 0.88454 0.6941 0.14492 0.0
H2075 H 0.85908 0.72328 0.1338 0.0
H2076 H 0.94332 0.74318 0.15879 0.0
H2077 H 0.94032 0.63632 0.14711 0.0
H2078 H 0.93298 0.66377 0.13868 0.0
H2079 H 0.90651 0.64985 0.14639 0.0
C2080 C 0.92048 0.75553 0.13274 0.0
C2081 C 0.89245 0.7512 0.13119 0.0
C2082 C 0.93534 0.73819 0.13886 0.0
C2083 C 0.92244 0.71636 0.14359 0.0
C2084 C 0.89521 0.71047 0.14126 0.0
H2085 H 0.89678 0.65477 0.19843 0.0
H2086 H 0.90046 0.66853 0.18124 0.0
C2087 C 0.88046 0.72752 0.13501 0.0
C2088 C 0.93491 0.70385 0.15243 0.0
H2089 H 0.93762 0.64406 0.16514 0.0
C2090 C 0.94305 0.7214 0.16005 0.0
C2091 C 0.93465 0.67546 0.15412 0.0
C2092 C 0.92841 0.65535 0.14607 0.0
C2093 C 0.94832 0.71158 0.16952 0.0
C2094 C 0.94541 0.68353 0.1714 0.0
C2095 C 0.93952 0.66566 0.16365 0.0
C2096 C 0.94425 0.67324 0.18156 0.0
C2097 C 0.95474 0.73147 0.17765 0.0
C2098 C 0.96775 0.67136 0.18738 0.0
C2099 C 0.96572 0.66356 0.19724 0.0
C2100 C 0.94013 0.65774 0.20138 0.0
C2101 C 0.91673 0.65939 0.19547 0.0
C2102 C 0.91881 0.66699 0.18564 0.0
H2103 H 0.95513 0.75286 0.17502 0.0
H2104 H 0.93935 0.72975 0.1836 0.0
H2105 H 0.97493 0.72653 0.18087 0.0
H2106 H 0.98754 0.67619 0.18432 0.0
H2107 H 0.9841 0.6623 0.20163 0.0
H2108 H 0.70506 0.64703 0.44782 0.0
H2109 H 0.69157 0.65176 0.43063 0.0
H2110 H 0.67137 0.7361 0.43556 0.0
H2111 H 0.68517 0.73159 0.45285 0.0
H2112 H 0.62929 0.70167 0.42713 0.0
H2113 H 0.7269 0.69337 0.40698 0.0
H2114 H 0.72323 0.66877 0.41666 0.0
H2115 H 0.72477 0.70436 0.41965 0.0
C2116 C 0.69789 0.66663 0.44524 0.0
C2117 C 0.69592 0.6889 0.45166 0.0
C2118 C 0.69056 0.6694 0.4354 0.0
C2119 C 0.68103 0.69441 0.43182 0.0
C2120 C 0.67913 0.71677 0.43819 0.0
H2121 H 0.57826 0.68123 0.37986 0.0
H2122 H 0.60816 0.70713 0.39064 0.0
C2123 C 0.68684 0.71411 0.44804 0.0
C2124 C 0.67001 0.69578 0.42175 0.0
H2125 H 0.68647 0.68005 0.39808 0.0
C2126 C 0.64172 0.69777 0.42069 0.0
C2127 C 0.68646 0.69069 0.41344 0.0
C2128 C 0.71708 0.68942 0.4142 0.0
C2129 C 0.6291 0.69203 0.41169 0.0
C2130 C 0.64547 0.68505 0.40346 0.0
C2131 C 0.67397 0.68541 0.40436 0.0
C2132 C 0.63331 0.67262 0.39458 0.0
C2133 C 0.59833 0.69098 0.41138 0.0
C2134 C 0.63948 0.6454 0.39238 0.0
C2135 C 0.62303 0.6307 0.38594 0.0
C2136 C 0.59984 0.64285 0.38175 0.0
C2137 C 0.59579 0.67104 0.38301 0.0
C2138 C 0.61267 0.68588 0.38929 0.0
H2139 H 0.58911 0.69238 0.41882 0.0
H2140 H 0.59051 0.7083 0.40697 0.0
H2141 H 0.59129 0.6718 0.40791 0.0
H2142 H 0.65564 0.63485 0.39625 0.0
H2143 H 0.62729 0.60929 0.38486 0.0
H2144 H 0.39533 0.43925 0.20001 0.0
H2145 H 0.39744 0.42975 0.18245 0.0
H2146 H 0.48462 0.44052 0.18287 0.0
H2147 H 0.48276 0.44981 0.2006 0.0
H2148 H 0.41923 0.46387 0.16689 0.0
H2149 H 0.47269 0.36405 0.17068 0.0
H2150 H 0.45631 0.38011 0.18105 0.0
H2151 H 0.4875 0.39371 0.17628 0.0
C2152 C 0.41501 0.43944 0.1964 0.0
C2153 C 0.43891 0.44504 0.20169 0.0
C2154 C 0.41614 0.43424 0.18635 0.0
C2155 C 0.44116 0.43449 0.18139 0.0
C2156 C 0.46515 0.44009 0.18661 0.0
H2157 H 0.43122 0.34809 0.12611 0.0
H2158 H 0.45279 0.38287 0.13635 0.0
C2159 C 0.46404 0.44529 0.19672 0.0
C2160 C 0.44157 0.42769 0.17083 0.0
H2161 H 0.45205 0.37366 0.15565 0.0
C2162 C 0.42703 0.44447 0.16432 0.0
C2163 C 0.45217 0.40262 0.16748 0.0
C2164 C 0.46799 0.38392 0.1742 0.0
C2165 C 0.42071 0.43568 0.15478 0.0
C2166 C 0.42877 0.40934 0.15181 0.0
C2167 C 0.44577 0.39384 0.15796 0.0
C2168 C 0.41539 0.39509 0.14354 0.0
C2169 C 0.40419 0.45407 0.1482 0.0
C2170 C 0.38706 0.39134 0.14385 0.0
C2171 C 0.37476 0.37142 0.13809 0.0
C2172 C 0.39062 0.35472 0.13196 0.0
C2173 C 0.41856 0.36038 0.1309 0.0
C2174 C 0.43089 0.38034 0.13669 0.0
H2175 H 0.40946 0.47574 0.14952 0.0
H2176 H 0.40747 0.44929 0.14031 0.0
H2177 H 0.38224 0.45158 0.14993 0.0
H2178 H 0.37473 0.40195 0.14924 0.0
H2179 H 0.35327 0.36743 0.13918 0.0
H2180 H 0.41207 0.64582 0.94915 0.0
H2181 H 0.42286 0.64902 0.93171 0.0
H2182 H 0.41262 0.73613 0.93281 0.0
H2183 H 0.40198 0.73316 0.95042 0.0
H2184 H 0.38932 0.67256 0.91616 0.0
H2185 H 0.48985 0.72382 0.92089 0.0
H2186 H 0.47336 0.70676 0.93102 0.0
H2187 H 0.46012 0.73848 0.92658 0.0
C2188 C 0.41226 0.66571 0.94573 0.0
C2189 C 0.40637 0.68926 0.95117 0.0
C2190 C 0.41823 0.66747 0.93574 0.0
C2191 C 0.41849 0.69279 0.931 0.0
C2192 C 0.41267 0.71643 0.93638 0.0
H2193 H 0.50478 0.68407 0.87526 0.0
H2194 H 0.47126 0.70605 0.88598 0.0
C2195 C 0.40668 0.71469 0.94642 0.0
C2196 C 0.42576 0.69381 0.92047 0.0
H2197 H 0.48059 0.70424 0.90563 0.0
C2198 C 0.40896 0.68013 0.91375 0.0
C2199 C 0.45114 0.70413 0.91734 0.0
C2200 C 0.46983 0.71908 0.92429 0.0
C2201 C 0.41801 0.67433 0.90421 0.0
C2202 C 0.44462 0.68203 0.90142 0.0
C2203 C 0.4602 0.69824 0.9078 0.0
C2204 C 0.45894 0.66875 0.89314 0.0
C2205 C 0.39962 0.65862 0.89739 0.0
C2206 C 0.46243 0.64043 0.89338 0.0
C2207 C 0.4818 0.62791 0.88741 0.0
C2208 C 0.49818 0.64348 0.88109 0.0
C2209 C 0.49287 0.67155 0.88019 0.0
C2210 C 0.47357 0.68414 0.88625 0.0
H2211 H 0.37791 0.66396 0.89872 0.0
H2212 H 0.40459 0.66257 0.88956 0.0
H2213 H 0.402 0.63653 0.89886 0.0
H2214 H 0.45192 0.6282 0.8988 0.0
H2215 H 0.48549 0.60638 0.88845 0.0
H2216 H 0.11634 0.6653 0.70218 0.0
H2217 H 0.11324 0.67833 0.68477 0.0
H2218 H 0.19789 0.65733 0.68079 0.0
H2219 H 0.20121 0.64456 0.69808 0.0
H2220 H 0.14761 0.71968 0.67659 0.0
H2221 H 0.15932 0.6221 0.65677 0.0
H2222 H 0.14768 0.62415 0.66937 0.0
H2223 H 0.18344 0.62625 0.66658 0.0
C2224 C 0.13418 0.66327 0.69755 0.0
C2225 C 0.15909 0.65421 0.70147 0.0
C2226 C 0.13232 0.67053 0.68763 0.0
C2227 C 0.15518 0.66822 0.68149 0.0
C2228 C 0.17986 0.65864 0.68537 0.0
H2229 H 0.2437 0.72247 0.63514 0.0
H2230 H 0.21788 0.69405 0.64643 0.0
C2231 C 0.18183 0.65174 0.69527 0.0
C2232 C 0.15474 0.67904 0.67138 0.0
H2233 H 0.17322 0.66256 0.64796 0.0
C2234 C 0.15239 0.70723 0.67023 0.0
C2235 C 0.16103 0.66258 0.66317 0.0
C2236 C 0.16277 0.63204 0.664 0.0
C2237 C 0.15887 0.71981 0.66129 0.0
C2238 C 0.16694 0.70347 0.65319 0.0
C2239 C 0.16702 0.67503 0.65415 0.0
C2240 C 0.17982 0.71573 0.6444 0.0
C2241 C 0.15948 0.75054 0.66095 0.0
C2242 C 0.16656 0.73604 0.63895 0.0
C2243 C 0.18153 0.75299 0.63274 0.0
C2244 C 0.20988 0.74935 0.6317 0.0
C2245 C 0.22214 0.72647 0.63607 0.0
C2246 C 0.2073 0.70997 0.64244 0.0
H2247 H 0.15741 0.7598 0.66836 0.0
H2248 H 0.17881 0.75784 0.65764 0.0
H2249 H 0.14232 0.75803 0.65637 0.0
H2250 H 0.14513 0.74022 0.64011 0.0
H2251 H 0.17123 0.77025 0.62947 0.0
H2252 H 0.18768 0.45501 0.44957 0.0
H2253 H 0.1784 0.45264 0.43201 0.0
H2254 H 0.19175 0.3659 0.43245 0.0
H2255 H 0.20089 0.36802 0.45019 0.0
H2256 H 0.21389 0.43152 0.41659 0.0
H2257 H 0.11507 0.37625 0.41992 0.0
H2258 H 0.13021 0.39309 0.43036 0.0
H2259 H 0.14496 0.36226 0.4257 0.0
C2260 C 0.18849 0.43537 0.44598 0.0
C2261 C 0.19482 0.41167 0.45127 0.0
C2262 C 0.18339 0.43409 0.43592 0.0
C2263 C 0.18447 0.40913 0.43096 0.0
C2264 C 0.1907 0.38532 0.43619 0.0
H2265 H 0.09967 0.41913 0.37524 0.0
H2266 H 0.13429 0.39768 0.38565 0.0
C2267 C 0.1958 0.38658 0.44631 0.0
C2268 C 0.178 0.40861 0.42037 0.0
H2269 H 0.12444 0.39764 0.405 0.0
C2270 C 0.19468 0.42348 0.41395 0.0
C2271 C 0.1532 0.39769 0.41692 0.0
C2272 C 0.13466 0.38146 0.42354 0.0
C2273 C 0.18597 0.42985 0.4044 0.0
C2274 C 0.1598 0.4215 0.40133 0.0
C2275 C 0.14448 0.40415 0.40739 0.0
C2276 C 0.14545 0.43492 0.39308 0.0
C2277 C 0.2042 0.44676 0.39792 0.0
C2278 C 0.14111 0.46313 0.39352 0.0
C2279 C 0.12124 0.47535 0.38768 0.0
C2280 C 0.10518 0.45954 0.38134 0.0
C2281 C 0.11142 0.43175 0.38019 0.0
C2282 C 0.1313 0.41949 0.38608 0.0
H2283 H 0.22597 0.44186 0.3993 0.0
H2284 H 0.19967 0.44354 0.39001 0.0
H2285 H 0.20117 0.46861 0.39969 0.0
H2286 H 0.15124 0.47538 0.39903 0.0
H2287 H 0.1168 0.4967 0.38886 0.0
H2288 H 0.37548 0.72105 0.4723 0.0
H2289 H 0.40179 0.6942 0.46068 0.0
H2290 H 0.46777 0.75182 0.46255 0.0
H2291 H 0.44085 0.77979 0.47364 0.0
H2292 H 0.44966 0.74962 0.44478 0.0
H2293 H 0.46387 0.64369 0.45662 0.0
H2294 H 0.42902 0.65298 0.45861 0.0
H2295 H 0.45561 0.67042 0.46525 0.0
C2296 C 0.39587 0.72769 0.47044 0.0
C2297 C 0.40564 0.753 0.47368 0.0
C2298 C 0.41117 0.712 0.4639 0.0
C2299 C 0.43681 0.72099 0.46069 0.0
C2300 C 0.44802 0.7445 0.4649 0.0
H2301 H 0.48994 0.65875 0.40249 0.0
H2302 H 0.49589 0.67443 0.41951 0.0
C2303 C 0.43256 0.76044 0.47132 0.0
C2304 C 0.44835 0.70979 0.45146 0.0
H2305 H 0.45516 0.65028 0.43876 0.0
C2306 C 0.4519 0.72792 0.44357 0.0
C2307 C 0.45135 0.68152 0.44982 0.0
C2308 C 0.45003 0.66115 0.45809 0.0
C2309 C 0.4557 0.71842 0.43397 0.0
C2310 C 0.4558 0.69017 0.43223 0.0
C2311 C 0.45471 0.672 0.44016 0.0
C2312 C 0.45278 0.67957 0.42218 0.0
C2313 C 0.45746 0.73853 0.42562 0.0
C2314 C 0.4266 0.67751 0.41815 0.0
C2315 C 0.42311 0.66876 0.40849 0.0
C2316 C 0.4458 0.66195 0.40271 0.0
C2317 C 0.47209 0.66396 0.40678 0.0
C2318 C 0.47555 0.67273 0.41649 0.0
H2319 H 0.46088 0.75963 0.42828 0.0
H2320 H 0.47425 0.73283 0.42055 0.0
H2321 H 0.43817 0.73811 0.42136 0.0
H2322 H 0.40886 0.68291 0.42248 0.0
H2323 H 0.40263 0.66734 0.40558 0.0
H2324 H 0.11645 0.60193 0.21515 0.0
H2325 H 0.15072 0.62378 0.2051 0.0
H2326 H 0.13279 0.70096 0.21876 0.0
H2327 H 0.09842 0.67897 0.22907 0.0
H2328 H 0.12312 0.70127 0.1993 0.0
H2329 H 0.22518 0.65793 0.20519 0.0
H2330 H 0.20066 0.63103 0.20472 0.0
H2331 H 0.19874 0.656 0.21442 0.0
C2332 C 0.12063 0.62327 0.21641 0.0
C2333 C 0.10437 0.63877 0.22282 0.0
C2334 C 0.1404 0.63579 0.21064 0.0
C2335 C 0.14443 0.66401 0.21119 0.0
C2336 C 0.13005 0.67914 0.21824 0.0
H2337 H 0.1996 0.73243 0.15433 0.0
H2338 H 0.19014 0.73423 0.17206 0.0
C2339 C 0.1103 0.66657 0.22407 0.0
C2340 C 0.15877 0.67775 0.20302 0.0
H2341 H 0.21337 0.66859 0.18792 0.0
C2342 C 0.14331 0.69502 0.19696 0.0
C2343 C 0.18513 0.66973 0.20002 0.0
C2344 C 0.20344 0.65288 0.20651 0.0
C2345 C 0.15213 0.70172 0.18747 0.0
C2346 C 0.1772 0.69114 0.18407 0.0
C2347 C 0.19396 0.67637 0.19052 0.0
C2348 C 0.18393 0.69085 0.17349 0.0
C2349 C 0.13346 0.7178 0.18082 0.0
C2350 C 0.18361 0.6659 0.16851 0.0
C2351 C 0.18893 0.6648 0.15847 0.0
C2352 C 0.19469 0.68867 0.15321 0.0
C2353 C 0.19495 0.71374 0.15819 0.0
C2354 C 0.18965 0.71481 0.1683 0.0
H2355 H 0.11365 0.72259 0.18438 0.0
H2356 H 0.14341 0.73723 0.17877 0.0
H2357 H 0.12948 0.70629 0.17395 0.0
H2358 H 0.17903 0.64721 0.17239 0.0
H2359 H 0.18869 0.64517 0.15485 0.0
H2360 H 0.19889 0.43918 0.90589 0.0
H2361 H 0.19364 0.42505 0.92299 0.0
H2362 H 0.10646 0.42191 0.91933 0.0
H2363 H 0.11144 0.43625 0.90212 0.0
H2364 H 0.15266 0.45268 0.93873 0.0
H2365 H 0.13926 0.34316 0.92914 0.0
H2366 H 0.158 0.36523 0.92099 0.0
H2367 H 0.12194 0.36954 0.92233 0.0
C2368 C 0.17858 0.43547 0.90869 0.0
C2369 C 0.15558 0.43864 0.90266 0.0
C2370 C 0.17562 0.42763 0.91847 0.0
C2371 C 0.14969 0.42268 0.92237 0.0
C2372 C 0.1266 0.42584 0.91641 0.0
H2373 H 0.16565 0.3242 0.97421 0.0
H2374 H 0.13811 0.35311 0.96356 0.0
C2375 C 0.12953 0.43387 0.9066 0.0
C2376 C 0.14751 0.41271 0.93254 0.0
H2377 H 0.15156 0.35352 0.94535 0.0
C2378 C 0.15167 0.43105 0.94028 0.0
C2379 C 0.14573 0.38461 0.93448 0.0
C2380 C 0.14094 0.36432 0.92634 0.0
C2381 C 0.15623 0.42172 0.94989 0.0
C2382 C 0.15745 0.39339 0.95166 0.0
C2383 C 0.15074 0.37526 0.94403 0.0
C2384 C 0.17039 0.3818 0.96057 0.0
C2385 C 0.16075 0.44229 0.95794 0.0
C2386 C 0.19721 0.38929 0.96294 0.0
C2387 C 0.21289 0.37309 0.96917 0.0
C2388 C 0.20225 0.34877 0.97298 0.0
C2389 C 0.17452 0.34285 0.97144 0.0
C2390 C 0.15872 0.35929 0.9653 0.0
H2391 H 0.14776 0.46053 0.95676 0.0
H2392 H 0.15625 0.4337 0.96532 0.0
H2393 H 0.18228 0.44911 0.95778 0.0
H2394 H 0.20694 0.40622 0.95927 0.0
H2395 H 0.23403 0.37844 0.97037 0.0
H2396 H 0.41886 0.36622 0.65143 0.0
H2397 H 0.4333 0.36138 0.66865 0.0
H2398 H 0.41146 0.44506 0.67408 0.0
H2399 H 0.39739 0.45017 0.65696 0.0
H2400 H 0.47497 0.3976 0.67712 0.0
H2401 H 0.37734 0.4004 0.69754 0.0
H2402 H 0.37983 0.38979 0.68483 0.0
H2403 H 0.38003 0.42533 0.68792 0.0
C2404 C 0.417 0.38349 0.65634 0.0
C2405 C 0.40727 0.40864 0.65288 0.0
C2406 C 0.42507 0.38063 0.66614 0.0
C2407 C 0.42289 0.40271 0.67263 0.0
C2408 C 0.41274 0.42765 0.66921 0.0
H2409 H 0.47346 0.48471 0.72104 0.0
H2410 H 0.44594 0.45939 0.70932 0.0
C2411 C 0.40507 0.43064 0.65941 0.0
C2412 C 0.43415 0.40114 0.68265 0.0
H2413 H 0.41742 0.41362 0.70655 0.0
C2414 C 0.4625 0.40032 0.68364 0.0
C2415 C 0.41762 0.40473 0.69105 0.0
C2416 C 0.38697 0.40489 0.69033 0.0
C2417 C 0.47502 0.40568 0.69269 0.0
C2418 C 0.45851 0.41095 0.70105 0.0
C2419 C 0.43003 0.40952 0.70017 0.0
C2420 C 0.4703 0.42267 0.71013 0.0
C2421 C 0.50571 0.40813 0.69294 0.0
C2422 C 0.49182 0.40974 0.71506 0.0
C2423 C 0.50828 0.42457 0.72149 0.0
C2424 C 0.50289 0.45229 0.7233 0.0
C2425 C 0.47881 0.46375 0.71951 0.0
C2426 C 0.46282 0.44915 0.71289 0.0
H2427 H 0.51478 0.40828 0.68545 0.0
H2428 H 0.51196 0.42708 0.69675 0.0
H2429 H 0.51446 0.39056 0.69697 0.0
H2430 H 0.49733 0.38897 0.7133 0.0
H2431 H 0.52652 0.4149 0.72429 0.0
H2432 H 0.08688 0.17717 0.36822 0.0
H2433 H 0.05558 0.2167 0.36767 0.0
H2434 H 0.12386 0.27076 0.37066 0.0
H2435 H 0.15474 0.23171 0.37139 0.0
H2436 H 1.04662 0.26093 0.38204 0.0
H2437 H 0.08333 0.3053 0.34711 0.0
H2438 H 0.09022 0.27044 0.35051 0.0
H2439 H 0.10956 0.2976 0.3559 0.0
C2440 C 0.09535 0.19742 0.36861 0.0
C2441 C 0.12386 0.2006 0.36972 0.0
C2442 C 0.07724 0.22034 0.36836 0.0
C2443 C 0.08683 0.24755 0.36897 0.0
C2444 C 0.1153 0.25057 0.36998 0.0
H2445 H 1.01276 0.41623 0.36605 0.0
H2446 H 1.04349 0.37636 0.36583 0.0
C2447 C 0.1332 0.22782 0.37042 0.0
C2448 C 0.06758 0.27265 0.36887 0.0
H2449 H 0.05324 0.33253 0.35651 0.0
C2450 C 1.04804 0.27637 0.37638 0.0
C2451 C 0.06914 0.29378 0.3617 0.0
C2452 C 0.08901 0.29165 0.35329 0.0
C2453 C 1.03102 0.30003 0.37703 0.0
C2454 C 1.032 0.32099 0.36971 0.0
C2455 C 0.05167 0.31717 0.3622 0.0
C2456 C 1.01286 0.3464 0.36965 0.0
C2457 C 1.0131 0.30265 0.38599 0.0
C2458 C 0.98462 0.3442 0.37158 0.0
C2459 C 0.96713 0.36724 0.37193 0.0
C2460 C 0.9764 0.39403 0.37005 0.0
C2461 C 1.00438 0.39638 0.36765 0.0
C2462 C 1.02217 0.37317 0.36749 0.0
H2463 H 1.02185 0.29146 0.39236 0.0
H2464 H 1.01026 0.32422 0.38818 0.0
H2465 H 0.99291 0.29355 0.38441 0.0
H2466 H 0.9757 0.3244 0.37279 0.0
H2467 H 0.94588 0.36388 0.37368 0.0
H2468 H 0.98497 0.69598 0.62429 0.0
H2469 H 1.02391 0.72674 0.62342 0.0
H2470 H 0.97036 0.79256 0.61547 0.0
H2471 H 0.93101 0.76136 0.61623 0.0
H2472 H 1.04811 0.75696 0.60894 0.0
H2473 H 1.01265 0.82918 0.63744 0.0
H2474 H 0.99648 0.79667 0.63552 0.0
H2475 H 0.9895 0.82457 0.62736 0.0
C2476 C 0.98116 0.71696 0.62229 0.0
C2477 C 0.95411 0.72563 0.62031 0.0
C2478 C 1.00387 0.73481 0.62179 0.0
C2479 C 1.00097 0.76268 0.61951 0.0
C2480 C 0.97394 0.77153 0.61744 0.0
H2481 H 0.11738 0.90264 0.61997 0.0
H2482 H 0.07832 0.87214 0.61915 0.0
C2483 C 0.95109 0.75342 0.61778 0.0
C2484 C 1.02619 0.78176 0.61928 0.0
H2485 H 0.05369 0.84003 0.62939 0.0
C2486 C 1.04914 0.77514 0.61344 0.0
C2487 C 1.02849 0.80587 0.62504 0.0
C2488 C 1.00564 0.81451 0.63177 0.0
C2489 C 0.07318 0.79165 0.613 0.0
C2490 C 0.0758 0.8156 0.61891 0.0
C2491 C 0.05273 0.82209 0.62478 0.0
C2492 C 0.10135 0.83452 0.61897 0.0
C2493 C 0.09504 0.7835 0.60579 0.0
C2494 C 0.12877 0.82484 0.6191 0.0
C2495 C 0.15173 0.8428 0.61927 0.0
C2496 C 0.14854 0.8714 0.6196 0.0
C2497 C 0.12128 0.88097 0.61962 0.0
C2498 C 0.09849 0.86318 0.61923 0.0
H2499 H 0.08656 0.77115 0.59967 0.0
H2500 H 0.10527 0.80154 0.60258 0.0
H2501 H 0.11045 0.77079 0.60961 0.0
H2502 H 0.13269 0.80321 0.61934 0.0
H2503 H 0.17201 0.83416 0.61953 0.0
H2504 H 0.45658 0.87218 0.88138 0.0
H2505 H 0.48745 0.83338 0.88066 0.0
H2506 H 0.53551 0.87473 0.85882 0.0
H2507 H 0.5048 0.91441 0.85985 0.0
H2508 H 0.50052 0.79622 0.86931 0.0
H2509 H 0.59818 0.84992 0.87394 0.0
H2510 H 0.56592 0.8669 0.87542 0.0
H2511 H 0.58009 0.86178 0.86333 0.0
C2512 C 0.47379 0.87337 0.87642 0.0
C2513 C 0.47768 0.89717 0.87071 0.0
C2514 C 0.49171 0.85067 0.87598 0.0
C2515 C 0.51482 0.85014 0.86978 0.0
C2516 C 0.51874 0.87394 0.86396 0.0
H2517 H 0.64476 0.72741 0.88167 0.0
H2518 H 0.61377 0.76614 0.88092 0.0
C2519 C 0.50077 0.89696 0.86447 0.0
C2520 C 0.53382 0.82465 0.86945 0.0
H2521 H 0.60103 0.80334 0.86963 0.0
C2522 C 0.52251 0.7981 0.86939 0.0
C2523 C 0.5629 0.8258 0.86973 0.0
C2524 C 0.57755 0.85257 0.87071 0.0
C2525 C 0.53864 0.77374 0.86961 0.0
C2526 C 0.56773 0.7749 0.8695 0.0
C2527 C 0.57904 0.80145 0.86957 0.0
C2528 C 0.58676 0.74945 0.8699 0.0
C2529 C 0.52392 0.74692 0.87039 0.0
C2530 C 0.58309 0.72574 0.86401 0.0
C2531 C 0.60109 0.70277 0.86456 0.0
C2532 C 0.624 0.70254 0.87088 0.0
C2533 C 0.62768 0.72625 0.87665 0.0
C2534 C 0.60969 0.7489 0.87619 0.0
H2535 H 0.50319 0.74952 0.87354 0.0
H2536 H 0.52157 0.73805 0.86295 0.0
H2537 H 0.53531 0.73229 0.87507 0.0
H2538 H 0.56648 0.72498 0.8588 0.0
H2539 H 0.59722 0.68534 0.8599 0.0
H2540 H 0.48561 0.19482 0.12257 0.0
H2541 H 0.52454 0.22532 0.12153 0.0
H2542 H 0.46994 0.2931 0.11733 0.0
H2543 H 0.431 0.26184 0.11743 0.0
H2544 H 0.5478 0.25982 0.13055 0.0
H2545 H 0.51919 0.32101 0.09821 0.0
H2546 H 0.49365 0.3238 0.10753 0.0
H2547 H 0.50006 0.29138 0.10168 0.0
C2548 C 0.48167 0.21618 0.12121 0.0
C2549 C 0.45444 0.22527 0.12001 0.0
C2550 C 0.5044 0.23403 0.1207 0.0
C2551 C 0.5015 0.26238 0.11915 0.0
C2552 C 0.47408 0.27162 0.11811 0.0
H2553 H 0.61676 0.40127 0.12574 0.0
H2554 H 0.57811 0.37006 0.12482 0.0
C2555 C 0.45124 0.2535 0.11832 0.0
C2556 C 0.52694 0.28153 0.11899 0.0
H2557 H 0.55551 0.33831 0.10795 0.0
C2558 C 0.54923 0.27665 0.12544 0.0
C2559 C 0.53027 0.30411 0.11243 0.0
C2560 C 0.50968 0.31023 0.10451 0.0
C2561 C 0.57332 0.2931 0.12563 0.0
C2562 C 0.57608 0.31601 0.11931 0.0
C2563 C 0.55399 0.32107 0.11288 0.0
C2564 C 0.60095 0.33542 0.11956 0.0
C2565 C 0.59566 0.28612 0.13281 0.0
C2566 C 0.62771 0.32739 0.11678 0.0
C2567 C 0.6503 0.3458 0.11708 0.0
C2568 C 0.64733 0.37298 0.1204 0.0
C2569 C 0.62052 0.38078 0.12314 0.0
C2570 C 0.59801 0.36269 0.12262 0.0
H2571 H 0.58922 0.27043 0.1382 0.0
H2572 H 0.61359 0.27823 0.12872 0.0
H2573 H 0.60223 0.30459 0.13686 0.0
H2574 H 0.63119 0.30677 0.11427 0.0
H2575 H 0.67015 0.33858 0.11481 0.0
H2576 H 1.01188 0.68082 0.23889 0.0
H2577 H 1.04314 0.72026 0.23937 0.0
H2578 H 0.97782 0.7728 0.23012 0.0
H2579 H 0.94711 0.73384 0.22938 0.0
H2580 H 0.0588 0.75984 0.22379 0.0
H2581 H 1.00782 0.81455 0.25423 0.0
H2582 H 1.0023 0.77879 0.25194 0.0
H2583 H 0.98566 0.80392 0.24445 0.0
C2584 C 1.00404 0.70071 0.23698 0.0
C2585 C 0.97642 0.70347 0.23411 0.0
C2586 C 1.02214 0.72358 0.23724 0.0
C2587 C 1.01332 0.75038 0.2349 0.0
C2588 C 0.98571 0.75299 0.23215 0.0
H2589 H 0.08628 0.91932 0.23461 0.0
H2590 H 0.05562 0.87952 0.23501 0.0
C2591 C 0.96791 0.73026 0.2317 0.0
C2592 C 1.03253 0.77542 0.23508 0.0
H2593 H 1.0418 0.83885 0.24559 0.0
C2594 C 0.05508 0.77692 0.22865 0.0
C2595 C 1.02807 0.79863 0.24118 0.0
C2596 C 1.00481 0.799 0.24841 0.0
C2597 C 0.07236 0.80033 0.22802 0.0
C2598 C 0.06839 0.82341 0.23431 0.0
C2599 C 1.0457 0.82183 0.24073 0.0
C2600 C 0.08741 0.84881 0.23439 0.0
C2601 C 0.09397 0.80028 0.22013 0.0
C2602 C 0.11613 0.84626 0.23422 0.0
C2603 C 0.13368 0.8692 0.23385 0.0
C2604 C 0.12381 0.8963 0.23398 0.0
C2605 C 0.09514 0.89916 0.2346 0.0
C2606 C 0.0774 0.87601 0.23478 0.0
H2607 H 0.08806 0.78706 0.21386 0.0
H2608 H 0.09778 0.82105 0.21726 0.0
H2609 H 0.11319 0.79197 0.22321 0.0
H2610 H 0.12537 0.82628 0.2344 0.0
H2611 H 0.15542 0.86554 0.23346 0.0
H2612 H 0.43803 0.84441 0.49477 0.0
H2613 H 0.47807 0.81388 0.49586 0.0
H2614 H 0.51734 0.85932 0.47284 0.0
H2615 H 0.47832 0.88983 0.47199 0.0
H2616 H 0.50485 0.77842 0.48556 0.0
H2617 H 0.58061 0.85959 0.49016 0.0
H2618 H 0.54459 0.86658 0.49049 0.0
H2619 H 0.56239 0.86441 0.47889 0.0
C2620 C 0.45521 0.84803 0.48997 0.0
C2621 C 0.45444 0.87033 0.48337 0.0
C2622 C 0.47847 0.83037 0.49059 0.0
C2623 C 0.50214 0.83419 0.48469 0.0
C2624 C 0.50067 0.8559 0.47789 0.0
H2625 H 0.62497 0.7039 0.47267 0.0
H2626 H 0.58591 0.73433 0.47335 0.0
C2627 C 0.47774 0.87349 0.47732 0.0
C2628 C 0.52782 0.81559 0.48536 0.0
H2629 H 0.59843 0.81607 0.48551 0.0
C2630 C 0.52519 0.78694 0.48561 0.0
C2631 C 0.55517 0.82567 0.48567 0.0
C2632 C 0.56089 0.85572 0.4864 0.0
C2633 C 0.54811 0.76881 0.48583 0.0
C2634 C 0.57547 0.77888 0.4855 0.0
C2635 C 0.57809 0.80753 0.48558 0.0
C2636 C 0.60119 0.76026 0.48495 0.0
C2637 C 0.54235 0.7388 0.48674 0.0
C2638 C 0.62495 0.76454 0.49076 0.0
C2639 C 0.6483 0.74696 0.49022 0.0
C2640 C 0.64901 0.72422 0.48383 0.0
C2641 C 0.6256 0.72058 0.47787 0.0
C2642 C 0.60263 0.73813 0.47833 0.0
H2643 H 0.52265 0.73514 0.49053 0.0
H2644 H 0.54078 0.72978 0.47929 0.0
H2645 H 0.55865 0.7281 0.49088 0.0
H2646 H 0.62539 0.78138 0.49589 0.0
H2647 H 0.66563 0.75102 0.49492 0.0
H2648 H 0.64395 0.3711 0.72304 0.0
H2649 H 0.61313 0.3324 0.72377 0.0
H2650 H 0.56408 0.37458 0.74516 0.0
H2651 H 0.59484 0.41412 0.74417 0.0
H2652 H 0.59978 0.29575 0.73539 0.0
H2653 H 0.50213 0.34919 0.72968 0.0
H2654 H 0.5344 0.36608 0.72828 0.0
H2655 H 0.51974 0.36151 0.74032 0.0
C2656 C 0.62655 0.3725 0.72791 0.0
C2657 C 0.62241 0.39649 0.73351 0.0
C2658 C 0.60864 0.34986 0.72835 0.0
C2659 C 0.58528 0.34959 0.73443 0.0
C2660 C 0.58108 0.37359 0.74013 0.0
H2661 H 0.45705 0.22582 0.72205 0.0
H2662 H 0.48762 0.26476 0.72289 0.0
C2663 C 0.59907 0.39653 0.73963 0.0
C2664 C 0.56636 0.32413 0.73478 0.0
H2665 H 0.49929 0.3027 0.73409 0.0
C2666 C 0.57779 0.2976 0.7351 0.0
C2667 C 0.5373 0.32522 0.73423 0.0
C2668 C 0.52261 0.35197 0.73301 0.0
C2669 C 0.56182 0.27322 0.73491 0.0
C2670 C 0.53271 0.27431 0.73471 0.0
C2671 C 0.52128 0.30085 0.73437 0.0
C2672 C 0.51389 0.24875 0.73429 0.0
C2673 C 0.57674 0.24643 0.73444 0.0
C2674 C 0.51727 0.22534 0.74036 0.0
C2675 C 0.49951 0.20226 0.73978 0.0
C2676 C 0.47714 0.20156 0.73321 0.0
C2677 C 0.47373 0.22499 0.72725 0.0
C2678 C 0.49148 0.24777 0.72776 0.0
H2679 H 0.59765 0.24886 0.73144 0.0
H2680 H 0.57863 0.23794 0.74197 0.0
H2681 H 0.56569 0.23162 0.72977 0.0
H2682 H 0.53344 0.22492 0.74575 0.0
H2683 H 0.50306 0.18517 0.74463 0.0
H2684 H 0.11621 0.19656 0.98203 0.0
H2685 H 0.07727 0.22762 0.98284 0.0
H2686 H 0.13171 0.29485 0.9875 0.0
H2687 H 0.17103 0.26339 0.98685 0.0
H2688 H 0.05694 0.26389 0.99762 0.0
H2689 H 0.08458 0.32344 0.96449 0.0
H2690 H 0.09943 0.29053 0.96706 0.0
H2691 H 0.11047 0.31993 0.97376 0.0
C2692 C 0.1202 0.21792 0.98332 0.0
C2693 C 0.14748 0.22693 0.98443 0.0
C2694 C 0.09752 0.23592 0.98378 0.0
C2695 C 0.10069 0.26421 0.98513 0.0
C2696 C 0.12795 0.27342 0.98631 0.0
H2697 H 0.98422 0.40381 0.98058 0.0
H2698 H 1.02332 0.37338 0.98165 0.0
C2699 C 0.15076 0.25519 0.98604 0.0
C2700 C 0.07557 0.28346 0.98522 0.0
H2701 H 1.04503 0.33681 0.9729 0.0
C2702 C 0.0545 0.27988 0.9922 0.0
C2703 C 0.07154 0.30475 0.97827 0.0
C2704 C 0.0925 0.30996 0.9704 0.0
C2705 C 1.03068 0.29682 0.99259 0.0
C2706 C 1.0262 0.31782 0.98546 0.0
C2707 C 1.0474 0.3212 0.97845 0.0
C2708 C 1.0007 0.33694 0.98524 0.0
C2709 C 1.01123 0.29246 1.00101 0.0
C2710 C 0.97348 0.32797 0.98693 0.0
C2711 C 0.95057 0.34608 0.98664 0.0
C2712 C 0.95346 0.37396 0.98428 0.0
C2713 C 0.98049 0.38274 0.98245 0.0
C2714 C 1.00332 0.36493 0.983 0.0
H2715 H 1.02163 0.28299 1.00741 0.0
H2716 H 1.00191 0.31189 1.00347 0.0
H2717 H 0.99485 0.27838 0.99865 0.0
H2718 H 0.96957 0.30668 0.98829 0.0
H2719 H 0.93048 0.33798 0.98805 0.0
H2720 H 0.14231 0.72672 0.72294 0.0
H2721 H 0.1115 0.76557 0.72369 0.0
H2722 H 0.06447 0.72499 0.746 0.0
H2723 H 0.09507 0.68524 0.74495 0.0
H2724 H 0.09901 0.80314 0.73488 0.0
H2725 H 1.00103 0.74944 0.7313 0.0
H2726 H 1.01965 0.73801 0.74186 0.0
H2727 H 1.03316 0.73231 0.7297 0.0
C2728 C 0.12532 0.7257 0.72801 0.0
C2729 C 0.12167 0.70208 0.73384 0.0
C2730 C 0.10744 0.74844 0.72846 0.0
C2731 C 0.08463 0.7492 0.73481 0.0
C2732 C 0.08097 0.72559 0.74075 0.0
H2733 H 0.95427 0.87148 0.72317 0.0
H2734 H 0.98527 0.83282 0.72397 0.0
C2735 C 0.09888 0.70252 0.74022 0.0
C2736 C 0.06568 0.77474 0.73517 0.0
H2737 H 0.99851 0.79616 0.73542 0.0
C2738 C 0.07702 0.80128 0.73498 0.0
C2739 C 1.03658 0.77364 0.73513 0.0
C2740 C 1.02182 0.74687 0.73441 0.0
C2741 C 0.06091 0.82566 0.73477 0.0
C2742 C 1.03183 0.82455 0.73512 0.0
C2743 C 1.0205 0.79802 0.73529 0.0
C2744 C 1.01281 0.85002 0.73471 0.0
C2745 C 0.07558 0.85241 0.7337 0.0
C2746 C 1.01678 0.87402 0.74042 0.0
C2747 C 0.99873 0.89697 0.73986 0.0
C2748 C 0.97551 0.89689 0.73368 0.0
C2749 C 0.97158 0.87289 0.72808 0.0
C2750 C 0.98958 0.85027 0.72857 0.0
H2751 H 0.09616 0.84965 0.73044 0.0
H2752 H 0.06393 0.86671 0.72898 0.0
H2753 H 0.07826 0.86173 0.74106 0.0
H2754 H 1.03365 0.87502 0.74551 0.0
H2755 H 1.00281 0.9146 0.74439 0.0
H2756 H 0.93269 0.26288 0.48823 0.0
H2757 H 0.9724 0.29367 0.48841 0.0
H2758 H 1.02488 0.22611 0.48144 0.0
H2759 H 0.98558 0.19623 0.4806 0.0
H2760 H 1.01638 0.30354 0.49769 0.0
H2761 H 0.05728 0.27222 0.46179 0.0
H2762 H 1.02458 0.26061 0.46602 0.0
H2763 H 0.05545 0.24333 0.46974 0.0
C2764 C 0.9526 0.25456 0.48662 0.0
C2765 C 0.95514 0.22662 0.48422 0.0
C2766 C 0.97573 0.27239 0.48675 0.0
C2767 C 1.0026 0.26317 0.48457 0.0
C2768 C 1.005 0.23497 0.48267 0.0
H2769 H 0.1717 0.33727 0.48589 0.0
H2770 H 0.13227 0.30598 0.48647 0.0
C2771 C 0.98204 0.21744 0.48234 0.0
C2772 C 1.02792 0.28233 0.48448 0.0
H2773 H 0.08786 0.29698 0.47206 0.0
C2774 C 1.03171 0.30198 0.49198 0.0
C2775 C 1.04883 0.28137 0.47712 0.0
C2776 C 1.0462 0.26347 0.46817 0.0
C2777 C 0.05506 0.31945 0.49245 0.0
C2778 C 0.07616 0.3179 0.48525 0.0
C2779 C 0.07245 0.29839 0.47775 0.0
C2780 C 0.10119 0.33714 0.48511 0.0
C2781 C 0.05716 0.33931 0.50085 0.0
C2782 C 0.09802 0.36555 0.48407 0.0
C2783 C 0.1207 0.38344 0.48361 0.0
C2784 C 0.14802 0.37416 0.48432 0.0
C2785 C 0.15137 0.3457 0.48547 0.0
C2786 C 0.12851 0.3276 0.48574 0.0
H2787 H 1.04352 0.3337 0.50704 0.0
H2788 H 0.07841 0.34049 0.50361 0.0
H2789 H 0.05114 0.35984 0.49823 0.0
H2790 H 0.07775 0.37407 0.48338 0.0
H2791 H 0.11668 0.40493 0.48261 0.0
H2792 H 0.65495 0.2353 0.23144 0.0
H2793 H 0.62452 0.27437 0.2326 0.0
H2794 H 0.55685 0.22036 0.23751 0.0
H2795 H 0.58808 0.18128 0.23725 0.0
H2796 H 0.58933 0.29746 0.22374 0.0
H2797 H 0.53043 0.27023 0.25677 0.0
H2798 H 0.55982 0.25086 0.25308 0.0
H2799 H 0.52694 0.24449 0.24757 0.0
C2800 C 0.63365 0.23151 0.23297 0.0
C2801 C 0.62458 0.2044 0.23431 0.0
C2802 C 0.61584 0.25433 0.23356 0.0
C2803 C 0.58754 0.25163 0.23534 0.0
C2804 C 0.57832 0.22433 0.23654 0.0
H2805 H 0.44813 0.36736 0.22979 0.0
H2806 H 0.47935 0.32858 0.23057 0.0
C2807 C 0.59641 0.20142 0.23623 0.0
C2808 C 0.56842 0.27714 0.23559 0.0
H2809 H 0.51248 0.30636 0.24708 0.0
C2810 C 0.57286 0.29915 0.22901 0.0
C2811 C 0.54632 0.2808 0.24235 0.0
C2812 C 0.54075 0.2605 0.2504 0.0
C2813 C 0.55641 0.3233 0.22888 0.0
C2814 C 0.53397 0.32641 0.23541 0.0
C2815 C 0.52935 0.30458 0.24197 0.0
C2816 C 0.51458 0.35136 0.23526 0.0
C2817 C 0.56286 0.34531 0.22153 0.0
C2818 C 0.52295 0.37814 0.23778 0.0
C2819 C 0.50455 0.40083 0.23755 0.0
C2820 C 0.47703 0.39792 0.23458 0.0
C2821 C 0.46889 0.37108 0.23212 0.0
C2822 C 0.48698 0.34849 0.23255 0.0
H2823 H 0.57805 0.33855 0.21598 0.0
H2824 H 0.54405 0.35193 0.21766 0.0
H2825 H 0.57123 0.36325 0.22545 0.0
H2826 H 0.54382 0.38158 0.24002 0.0
H2827 H 0.51205 0.42071 0.2396 0.0
H2828 H 0.66787 0.83636 0.98817 0.0
H2829 H 0.62809 0.80565 0.98836 0.0
H2830 H 0.57574 0.87328 0.98134 0.0
H2831 H 0.6151 0.90308 0.98049 0.0
H2832 H 0.58404 0.79593 0.99763 0.0
H2833 H 0.54339 0.82712 0.96168 0.0
H2834 H 0.57608 0.83869 0.96592 0.0
H2835 H 0.54523 0.85605 0.96961 0.0
C2836 C 0.64796 0.84471 0.98656 0.0
C2837 C 0.64547 0.87265 0.98414 0.0
C2838 C 0.62481 0.82693 0.98669 0.0
C2839 C 0.59796 0.83619 0.9845 0.0
C2840 C 0.59561 0.86439 0.98258 0.0
H2841 H 0.42871 0.76258 0.98563 0.0
H2842 H 0.46823 0.79373 0.98623 0.0
C2843 C 0.6186 0.88187 0.98225 0.0
C2844 C 0.57261 0.81708 0.9844 0.0
H2845 H 0.51271 0.80247 0.97195 0.0
C2846 C 0.56874 0.79748 0.99191 0.0
C2847 C 0.55174 0.81803 0.97703 0.0
C2848 C 0.55445 0.83588 0.96806 0.0
C2849 C 0.54536 0.78007 0.99238 0.0
C2850 C 0.5243 0.78161 0.98516 0.0
C2851 C 0.52809 0.80106 0.97764 0.0
C2852 C 0.49921 0.76244 0.98502 0.0
C2853 C 0.54316 0.76028 1.0008 0.0
C2854 C 0.5023 0.73399 0.98406 0.0
C2855 C 0.47956 0.71618 0.98359 0.0
C2856 C 0.45226 0.72558 0.98422 0.0
C2857 C 0.44901 0.75407 0.98529 0.0
C2858 C 0.47192 0.77209 0.98557 0.0
H2859 H 0.55673 0.76596 1.007 0.0
H2860 H 0.52188 0.75912 1.00354 0.0
H2861 H 0.54922 0.73973 0.99821 0.0
H2862 H 0.52255 0.72539 0.98343 0.0
H2863 H 0.48351 0.69465 0.98266 0.0
H2864 H 0.1524 0.36362 0.87205 0.0
H2865 H 0.12191 0.32472 0.87104 0.0
H2866 H 0.05382 0.37916 0.86717 0.0
H2867 H 0.08502 0.4181 0.86728 0.0
H2868 H 0.08756 0.30141 0.88018 0.0
H2869 H 1.02556 0.33009 0.84803 0.0
H2870 H 0.05529 0.34921 0.85145 0.0
H2871 H 1.02294 0.35549 0.8574 0.0
C2872 C 0.13097 0.36755 0.87078 0.0
C2873 C 0.12179 0.39476 0.86968 0.0
C2874 C 0.11313 0.34483 0.87028 0.0
C2875 C 0.08469 0.34769 0.86884 0.0
C2876 C 0.07536 0.37507 0.86788 0.0
H2877 H 0.94542 0.23235 0.87486 0.0
H2878 H 0.97653 0.27107 0.87393 0.0
C2879 C 0.09346 0.39791 0.86809 0.0
C2880 C 0.06555 0.32225 0.86869 0.0
H2881 H 1.00859 0.29364 0.85775 0.0
C2882 C 0.07061 0.29997 0.87511 0.0
C2883 C 1.04283 0.31891 0.86219 0.0
C2884 C 1.03649 0.33954 0.85431 0.0
C2885 C 0.05419 0.27588 0.87533 0.0
C2886 C 1.03115 0.27306 0.86905 0.0
C2887 C 1.02592 0.29517 0.86266 0.0
C2888 C 1.01181 0.24812 0.86929 0.0
C2889 C 0.06135 0.25362 0.88251 0.0
C2890 C 1.02022 0.22125 0.86685 0.0
C2891 C 1.00189 0.1986 0.86717 0.0
C2892 C 0.97438 0.20164 0.87014 0.0
C2893 C 0.96618 0.22854 0.87253 0.0
C2894 C 0.98421 0.2511 0.872 0.0
H2895 H 0.07658 0.26038 0.88803 0.0
H2896 H 1.04283 0.24647 0.88641 0.0
H2897 H 0.07001 0.23606 0.87843 0.0
H2898 H 1.04108 0.21771 0.8646 0.0
H2899 H 1.00943 0.17864 0.86519 0.0
H2900 H 0.43105 0.33907 0.61589 0.0
H2901 H 0.47091 0.30828 0.61555 0.0
H2902 H 0.52317 0.37564 0.62269 0.0
H2903 H 0.48375 0.40552 0.62367 0.0
H2904 H 0.51499 0.29892 0.60613 0.0
H2905 H 0.5556 0.3288 0.64222 0.0
H2906 H 0.52285 0.34054 0.63803 0.0
H2907 H 0.55362 0.35799 0.63441 0.0
C2908 C 0.45096 0.34734 0.61749 0.0
C2909 C 0.45342 0.37522 0.61998 0.0
C2910 C 0.47415 0.32952 0.61728 0.0
C2911 C 0.50099 0.3387 0.61946 0.0
C2912 C 0.5033 0.36683 0.62145 0.0
H2913 H 0.67039 0.26478 0.61819 0.0
H2914 H 0.63084 0.29609 0.61769 0.0
C2915 C 0.48029 0.38435 0.62186 0.0
C2916 C 0.52638 0.31955 0.61946 0.0
H2917 H 0.58631 0.30442 0.63184 0.0
C2918 C 0.53029 0.30024 0.61185 0.0
C2919 C 0.54724 0.32022 0.62683 0.0
C2920 C 0.54449 0.33778 0.63588 0.0
C2921 C 0.55372 0.28282 0.6113 0.0
C2922 C 0.57477 0.28406 0.61853 0.0
C2923 C 0.57093 0.30325 0.62613 0.0
C2924 C 0.59988 0.26483 0.61858 0.0
C2925 C 0.55598 0.26338 0.60277 0.0
C2926 C 0.59679 0.23636 0.61933 0.0
C2927 C 0.61954 0.21845 0.61973 0.0
C2928 C 0.64683 0.22779 0.61925 0.0
C2929 C 0.65009 0.25631 0.61839 0.0
C2930 C 0.62716 0.27442 0.61818 0.0
H2931 H 0.54254 0.26945 0.59657 0.0
H2932 H 0.57729 0.26213 0.60007 0.0
H2933 H 0.54976 0.24278 0.60522 0.0
H2934 H 0.57655 0.22779 0.61984 0.0
H2935 H 0.61559 0.19689 0.62051 0.0
H2936 H 0.58835 0.92073 0.36827 0.0
H2937 H 0.55769 0.88094 0.36796 0.0
H2938 H 0.62715 0.82777 0.37049 0.0
H2939 H 0.65716 0.86707 0.37129 0.0
H2940 H 0.54566 0.83887 0.35755 0.0
H2941 H 0.58676 0.79121 0.39102 0.0
H2942 H 0.59696 0.82479 0.38728 0.0
H2943 H 0.61325 0.79506 0.3821 0.0
C2944 C 0.59716 0.90061 0.36873 0.0
C2945 C 0.62572 0.8978 0.36984 0.0
C2946 C 0.5794 0.87746 0.3686 0.0
C2947 C 0.5893 0.85032 0.36954 0.0
C2948 C 0.61796 0.84777 0.37021 0.0
H2949 H 0.51501 0.68147 0.36757 0.0
H2950 H 0.54628 0.72089 0.36694 0.0
C2951 C 0.6355 0.87072 0.37052 0.0
C2952 C 0.57026 0.82495 0.36964 0.0
H2953 H 0.5589 0.76281 0.381 0.0
C2954 C 0.5487 0.8225 0.36278 0.0
C2955 C 0.5732 0.8027 0.37638 0.0
C2956 C 0.59358 0.80367 0.38467 0.0
C2957 C 0.53119 0.79922 0.36231 0.0
C2958 C 0.53454 0.77685 0.36891 0.0
C2959 C 0.556 0.77923 0.37578 0.0
C2960 C 0.5153 0.7518 0.3691 0.0
C2961 C 0.5094 0.79859 0.35451 0.0
C2962 C 0.487 0.75485 0.37063 0.0
C2963 C 0.46914 0.73218 0.3711 0.0
C2964 C 0.47829 0.70498 0.36994 0.0
C2965 C 0.50664 0.70172 0.36834 0.0
C2966 C 0.52474 0.72458 0.36804 0.0
H2967 H 0.51413 0.81266 0.34835 0.0
H2968 H 0.50682 0.77776 0.3515 0.0
H2969 H 0.48975 0.80509 0.35779 0.0
H2970 H 0.47856 0.77499 0.37171 0.0
H2971 H 0.44775 0.73614 0.37246 0.0
H2972 H 0.98421 0.90404 0.11895 0.0
H2973 H 1.02323 0.87327 0.11815 0.0
H2974 H 0.96895 0.80471 0.12004 0.0
H2975 H 0.92967 0.83585 0.1202 0.0
H2976 H 1.04884 0.84232 0.12855 0.0
H2977 H 1.01323 0.76994 0.10042 0.0
H2978 H 0.99478 0.80077 0.10304 0.0
H2979 H 0.99022 0.77094 0.11062 0.0
C2980 C 0.98032 0.88236 0.11897 0.0
C2981 C 0.95309 0.87293 0.1194 0.0
C2982 C 1.00309 0.86443 0.1186 0.0
C2983 C 1.00022 0.83578 0.11881 0.0
C2984 C 0.97284 0.82626 0.1194 0.0
H2985 H 0.11689 0.69745 0.12548 0.0
H2986 H 0.07795 0.72841 0.12459 0.0
C2987 C 0.9499 0.84433 0.11955 0.0
C2988 C 1.02574 0.8167 0.11877 0.0
H2989 H 0.05237 0.75657 0.10953 0.0
C2990 C 1.04934 0.82379 0.12424 0.0
C2991 C 1.02777 0.79198 0.11324 0.0
C2992 C 1.00529 0.78308 0.10642 0.0
C2993 C 0.07357 0.80743 0.1245 0.0
C2994 C 0.07526 0.78254 0.11915 0.0
C2995 C 0.05178 0.77534 0.1137 0.0
C2996 C 0.10042 0.76332 0.11942 0.0
C2997 C 0.09708 0.81673 0.13078 0.0
C2998 C 0.12714 0.77151 0.11667 0.0
C2999 C 0.14995 0.75327 0.11702 0.0
C3000 C 0.14721 0.72602 0.12026 0.0
C3001 C 0.12047 0.718 0.12293 0.0
C3002 C 0.09777 0.73596 0.12243 0.0
H3003 H 0.09076 0.83248 0.13619 0.0
H3004 H 0.10625 0.79935 0.13482 0.0
H3005 H 0.11304 0.82565 0.126 0.0
H3006 H 0.13045 0.7921 0.11413 0.0
H3007 H 0.16978 0.76066 0.11482 0.0
H3008 H 0.30206 0.2053 0.32952 0.0
H3009 H 0.31616 0.23548 0.31614 0.0
H3010 H 0.25101 0.2909 0.32343 0.0
H3011 H 0.23723 0.26125 0.33698 0.0
H3012 H 0.2851 0.25266 0.29984 0.0
H3013 H 0.31837 0.34028 0.32261 0.0
H3014 H 0.3131 0.30676 0.32767 0.0
H3015 H 0.28448 0.32854 0.32516 0.0
C3016 C 0.29096 0.22409 0.32836 0.0
C3017 C 0.2686 0.23093 0.33435 0.0
C3018 C 0.29893 0.24121 0.32068 0.0
C3019 C 0.28485 0.26559 0.31888 0.0
C3020 C 0.26243 0.2724 0.3248 0.0
H3021 H 0.29909 0.39462 0.27562 0.0
H3022 H 0.28504 0.36452 0.28903 0.0
C3023 C 0.25441 0.25528 0.33247 0.0
C3024 C 0.29321 0.28354 0.31067 0.0
H3025 H 0.31617 0.34741 0.30537 0.0
C3026 C 0.29202 0.27334 0.30104 0.0
C3027 C 0.30216 0.31051 0.31227 0.0
C3028 C 0.30488 0.32217 0.32249 0.0
C3029 C 0.29911 0.28956 0.29294 0.0
C3030 C 0.30806 0.31653 0.29455 0.0
C3031 C 0.30925 0.32674 0.30417 0.0
C3032 C 0.31643 0.33447 0.28633 0.0
C3033 C 0.29641 0.2779 0.28273 0.0
C3034 C 0.33889 0.32766 0.28044 0.0
C3035 C 0.34688 0.34474 0.27275 0.0
C3036 C 0.33263 0.36904 0.27083 0.0
C3037 C 0.31025 0.37587 0.27681 0.0
C3038 C 0.3023 0.3588 0.28451 0.0
H3039 H 0.28294 0.25977 0.28261 0.0
H3040 H 0.28816 0.29331 0.27755 0.0
H3041 H 0.31682 0.27157 0.28005 0.0
H3042 H 0.35034 0.3092 0.28182 0.0
H3043 H 0.36408 0.33878 0.26824 0.0
H3044 H 0.9688 0.11299 0.53016 0.0
H3045 H 0.99867 0.09893 0.54364 0.0
H3046 H 1.03045 1.03382 0.52572 0.0
H3047 H 1.00134 1.04829 0.51209 0.0
H3048 H 1.00067 1.04885 0.55331 0.0
H3049 H 0.09948 0.07206 0.53532 0.0
H3050 H 0.06738 0.08473 0.53071 0.0
H3051 H 0.07756 0.05021 0.52831 0.0
C3052 C 0.98241 0.09591 0.52903 0.0
C3053 C 0.9828 0.08188 0.52001 0.0
C3054 C 0.99932 0.08779 0.53677 0.0
C3055 C 1.01706 0.0656 0.53563 0.0
C3056 C 1.01728 0.05132 0.52669 0.0
H3057 H 0.13354 0.98478 0.57378 0.0
H3058 H 0.10367 0.99855 0.56026 0.0
C3059 C 1.00038 0.05943 0.51895 0.0
C3060 C 1.03489 0.05707 0.54387 0.0
H3061 H 0.10145 1.04845 0.55051 0.0
C3062 C 1.02271 1.04886 0.55272 0.0
C3063 C 0.06362 0.05707 0.54307 0.0
C3064 C 0.07786 0.06671 0.53388 0.0
C3065 C 1.0385 1.04021 0.56075 0.0
C3066 C 0.06724 1.04025 0.55995 0.0
C3067 C 0.07941 1.04843 0.55109 0.0
C3068 C 0.08507 1.03187 0.56821 0.0
C3069 C 1.02426 1.03056 0.56994 0.0
C3070 C 0.08473 1.04624 0.57713 0.0
C3071 C 0.10162 1.0383 0.5849 0.0
C3072 C 0.11933 1.01592 0.58388 0.0
C3073 C 0.11984 1.00181 0.57487 0.0
C3074 C 0.10293 1.00976 0.56712 0.0
H3075 H 1.00268 1.02509 0.56848 0.0
H3076 H 1.03481 1.01262 0.57313 0.0
H3077 H 1.02443 1.0471 0.57548 0.0
H3078 H 0.07146 0.06368 0.57807 0.0
H3079 H 0.10057 0.0495 0.59174 0.0
H3080 H 0.36331 0.83829 0.83637 0.0
H3081 H 0.34928 0.8096 0.82257 0.0
H3082 H 0.28351 0.86512 0.81616 0.0
H3083 H 0.29782 0.8943 0.82978 0.0
H3084 H 0.29839 0.78415 0.81958 0.0
H3085 H 0.32264 0.85679 0.78956 0.0
H3086 H 0.33554 0.86078 0.80191 0.0
H3087 H 0.30105 0.87024 0.79906 0.0
C3088 C 0.34605 0.84456 0.83196 0.0
C3089 C 0.33177 0.86866 0.83415 0.0
C3090 C 0.33797 0.82807 0.82412 0.0
C3091 C 0.3156 0.83544 0.81827 0.0
C3092 C 0.30111 0.8593 0.82048 0.0
H3093 H 0.23482 0.76204 0.76811 0.0
H3094 H 0.24845 0.79091 0.78192 0.0
C3095 C 0.30914 0.87579 0.82834 0.0
C3096 C 0.30712 0.81783 0.80998 0.0
H3097 H 0.29912 0.81663 0.78504 0.0
C3098 C 0.29864 0.79118 0.81202 0.0
C3099 C 0.30744 0.82713 0.80014 0.0
C3100 C 0.31737 0.85521 0.79748 0.0
C3101 C 0.29004 0.77367 0.80448 0.0
C3102 C 0.2904 0.78295 0.79464 0.0
C3103 C 0.29884 0.80961 0.7926 0.0
C3104 C 0.28215 0.76526 0.78634 0.0
C3105 C 0.2801 0.74559 0.80714 0.0
C3106 C 0.29678 0.74144 0.78419 0.0
C3107 C 0.28899 0.72484 0.77634 0.0
C3108 C 0.26645 0.73182 0.77046 0.0
C3109 C 0.25202 0.75588 0.77258 0.0
C3110 C 0.25987 0.77248 0.78043 0.0
H3111 H 0.27467 0.74408 0.81505 0.0
H3112 H 0.26204 0.73995 0.80267 0.0
H3113 H 0.29649 0.73058 0.80563 0.0
H3114 H 0.31432 0.73573 0.78857 0.0
H3115 H 0.30041 0.70637 0.77495 0.0
H3116 H 0.4667 0.11021 0.07384 0.0
H3117 H 0.49605 0.09626 0.0602 0.0
H3118 H 0.53249 1.03454 0.07852 0.0
H3119 H 0.50342 1.04851 0.09224 0.0
H3120 H 0.55346 0.09507 0.05952 0.0
H3121 H 0.50933 0.99234 0.0538 0.0
H3122 H 0.49231 1.01835 0.0609 0.0
H3123 H 0.51993 0.99928 0.06619 0.0
C3124 C 0.48106 0.09376 0.07499 0.0
C3125 C 0.48267 0.08043 0.08413 0.0
C3126 C 0.49771 0.08574 0.06718 0.0
C3127 C 0.51616 0.06414 0.06831 0.0
C3128 C 0.51798 0.05088 0.07743 0.0
H3129 H 0.63577 0.98752 1.03035 0.0
H3130 H 0.60673 1.00156 1.04406 0.0
C3131 C 0.50134 0.05889 0.08525 0.0
C3132 C 0.53394 0.05592 0.06002 0.0
H3133 H 0.54936 1.00279 1.04482 0.0
C3134 C 0.55251 0.07494 0.05627 0.0
C3135 C 0.53265 1.02963 0.05582 0.0
C3136 C 0.51234 1.00875 0.05931 0.0
C3137 C 0.57018 0.06822 1.04852 0.0
C3138 C 0.56888 1.04194 1.04432 0.0
C3139 C 0.55032 1.02292 1.04808 0.0
C3140 C 0.58658 1.03375 1.036 0.0
C3141 C 0.59049 0.0891 1.04503 0.0
C3142 C 0.58465 1.04703 1.02689 0.0
C3143 C 0.60111 1.03897 1.01902 0.0
C3144 C 0.61971 1.01735 1.0201 0.0
C3145 C 0.62145 1.00402 1.02923 0.0
C3146 C 0.60498 1.0121 1.03709 0.0
H3147 H 0.59355 0.10548 1.05055 0.0
H3148 H 0.61049 0.07949 1.04342 0.0
H3149 H 0.58286 0.09863 1.03817 0.0
H3150 H 0.57015 0.06342 1.02584 0.0
H3151 H 0.59891 1.04936 1.01205 0.0
H3152 H 0.36251 0.76511 0.3375 0.0
H3153 H 0.34818 0.7939 0.32376 0.0
H3154 H 0.28533 0.73623 0.31641 0.0
H3155 H 0.29957 0.70726 0.33011 0.0
H3156 H 0.3463 0.7808 0.30378 0.0
H3157 H 0.24363 0.80832 0.3178 0.0
H3158 H 0.26959 0.79345 0.32553 0.0
H3159 H 0.25019 0.77239 0.31731 0.0
C3160 C 0.34568 0.7585 0.33294 0.0
C3161 C 0.33211 0.73393 0.33492 0.0
C3162 C 0.33746 0.77503 0.32512 0.0
C3163 C 0.31545 0.7674 0.31916 0.0
C3164 C 0.30196 0.74281 0.32106 0.0
H3165 H 0.2379 0.8369 0.2676 0.0
H3166 H 0.25196 0.8082 0.2814 0.0
C3167 C 0.31013 0.72629 0.32889 0.0
C3168 C 0.30714 0.78479 0.31077 0.0
H3169 H 0.25382 0.82121 0.3014 0.0
C3170 C 0.32613 0.78976 0.30327 0.0
C3171 C 0.28079 0.79637 0.31013 0.0
C3172 C 0.25992 0.79261 0.31815 0.0
C3173 C 0.31933 0.80564 0.29505 0.0
C3174 C 0.29299 0.81723 0.29441 0.0
C3175 C 0.27399 0.81226 0.30191 0.0
C3176 C 0.28471 0.83465 0.28603 0.0
C3177 C 0.34021 0.80937 0.28702 0.0
C3178 C 0.29827 0.85919 0.28412 0.0
C3179 C 0.29026 0.87566 0.27626 0.0
C3180 C 0.26837 0.868 0.27019 0.0
C3181 C 0.25467 0.84351 0.27218 0.0
C3182 C 0.26274 0.82703 0.28004 0.0
H3183 H 0.35646 0.79363 0.28737 0.0
H3184 H 0.33053 0.80857 0.27965 0.0
H3185 H 0.34998 0.82957 0.28787 0.0
H3186 H 0.31488 0.86576 0.28879 0.0
H3187 H 0.30091 0.89463 0.27503 0.0
H3188 H 0.5973 0.05245 0.59194 0.0
H3189 H 0.5687 1.03786 0.57818 0.0
H3190 H 0.60892 0.09541 0.55921 0.0
H3191 H 0.63815 0.10955 0.57283 0.0
H3192 H 0.53283 0.06974 0.56689 0.0
H3193 H 0.61402 1.02402 0.54371 0.0
H3194 H 0.61898 1.03178 0.55656 0.0
H3195 H 0.62057 0.05837 0.54752 0.0
C3196 C 0.60032 0.06174 0.58481 0.0
C3197 C 0.6201 0.08209 0.58348 0.0
C3198 C 0.58384 0.05351 0.57697 0.0
C3199 C 0.58694 0.0653 0.56765 0.0
C3200 C 0.60651 0.08572 0.5663 0.0
H3201 H 0.50612 1.04578 0.51134 0.0
H3202 H 0.53474 0.06031 0.5251 0.0
C3203 C 0.62298 0.09399 0.57413 0.0
C3204 C 0.56921 0.05672 0.55939 0.0
H3205 H 0.57033 1.02868 0.53643 0.0
C3206 C 0.54098 0.06064 0.56025 0.0
C3207 C 0.57995 1.04493 0.55073 0.0
C3208 C 0.61001 1.03927 0.54957 0.0
C3209 C 0.5232 0.05351 0.55258 0.0
C3210 C 0.53394 1.0417 0.54392 0.0
C3211 C 0.56218 1.03779 0.54307 0.0
C3212 C 0.51621 1.03315 0.53566 0.0
C3213 C 0.49315 0.05923 0.55374 0.0
C3214 C 0.49648 1.01289 0.53702 0.0
C3215 C 0.47997 1.00468 0.5292 0.0
C3216 C 0.483 1.01644 0.51983 0.0
C3217 C 0.50297 1.0366 0.51849 0.0
C3218 C 0.51947 1.04479 0.52632 0.0
H3219 H 0.48919 0.07458 0.55957 0.0
H3220 H 0.48417 0.06662 0.54674 0.0
H3221 H 0.48258 1.04018 0.55585 0.0
H3222 H 0.49396 1.00329 0.54413 0.0
H3223 H 0.46467 0.98927 0.53051 0.0
H3224 H 0.36171 0.21393 0.78089 0.0
H3225 H 0.34761 0.24322 0.79452 0.0
H3226 H 0.28567 0.27933 0.77619 0.0
H3227 H 0.29981 0.25039 0.76248 0.0
H3228 H 0.34602 0.30085 0.79509 0.0
H3229 H 0.24364 0.25576 0.80098 0.0
H3230 H 0.2699 0.23888 0.79394 0.0
H3231 H 0.2505 0.26611 0.78856 0.0
C3232 C 0.34519 0.22821 0.77973 0.0
C3233 C 0.33184 0.22976 0.77059 0.0
C3234 C 0.33708 0.24483 0.78755 0.0
C3235 C 0.31537 0.26315 0.7864 0.0
C3236 C 0.3021 0.2649 0.77729 0.0
H3237 H 0.23741 0.38264 0.82394 0.0
H3238 H 0.25176 0.35329 0.81037 0.0
C3239 C 0.3102 0.24833 0.76946 0.0
C3240 C 0.30704 0.2809 0.79467 0.0
H3241 H 0.25371 0.29604 0.80985 0.0
C3242 C 0.32589 0.29974 0.79836 0.0
C3243 C 0.28075 0.2794 0.79889 0.0
C3244 C 0.26006 0.25881 0.79547 0.0
C3245 C 0.31898 0.31751 0.80605 0.0
C3246 C 0.29268 0.31601 0.81026 0.0
C3247 C 0.27384 0.29715 0.80658 0.0
C3248 C 0.28427 0.33386 0.81851 0.0
C3249 C 0.33966 0.33814 0.80945 0.0
C3250 C 0.29763 0.33243 0.82761 0.0
C3251 C 0.2894 0.34907 0.83541 0.0
C3252 C 0.26753 0.36735 0.83425 0.0
C3253 C 0.25411 0.36858 0.82512 0.0
C3254 C 0.26236 0.35193 0.81734 0.0
H3255 H 0.35601 0.34123 0.80392 0.0
H3256 H 0.32979 0.35804 0.81099 0.0
H3257 H 0.3493 0.33084 0.81634 0.0
H3258 H 0.31422 0.31819 0.82873 0.0
H3259 H 0.29986 0.34727 0.84239 0.0
H3260 H 0.09895 1.04869 1.01158 0.0
H3261 H 0.06988 1.0345 1.02524 0.0
H3262 H 0.10305 0.09851 1.04327 0.0
H3263 H 0.13287 0.11228 1.02977 0.0
H3264 H 0.10044 1.04833 0.05281 0.0
H3265 H 1.00165 0.07384 1.03514 0.0
H3266 H 1.02308 0.0517 1.02802 0.0
H3267 H 1.03384 0.08596 1.03048 0.0
C3268 C 0.10022 0.05965 1.01847 0.0
C3269 C 0.11818 0.08172 1.01956 0.0
C3270 C 0.08334 0.0517 1.02624 0.0
C3271 C 0.08397 0.06575 1.03521 0.0
C3272 C 0.10208 0.08755 1.03637 0.0
H3273 H 1.00125 0.05013 0.0915 0.0
H3274 H 1.0303 0.06405 0.07779 0.0
C3275 C 0.11897 0.09551 1.02862 0.0
C3276 C 0.06617 0.05739 1.04348 0.0
H3277 H 0.99962 0.04995 1.05027 0.0
C3278 C 0.07839 1.04878 0.05228 0.0
C3279 C 1.03742 0.05798 1.04275 0.0
C3280 C 1.02315 0.06809 1.03363 0.0
C3281 C 0.06264 1.04028 0.06033 0.0
C3282 C 1.03389 1.04089 0.0596 0.0
C3283 C 1.02166 1.04948 1.0508 0.0
C3284 C 1.0161 1.03268 0.06789 0.0
C3285 C 0.07691 1.03019 0.06945 0.0
C3286 C 0.99793 1.0109 0.06678 0.0
C3287 C 0.98107 1.00309 0.07456 0.0
C3288 C 0.98192 1.01703 0.0836 0.0
C3289 C 0.99993 1.03907 0.08463 0.0
C3290 C 1.01679 1.04686 0.07684 0.0
H3291 H 0.09839 1.02436 0.06793 0.0
H3292 H 0.07706 1.04661 0.07505 0.0
H3293 H 0.06618 1.01237 0.07263 0.0
H3294 H 0.99692 0.99983 0.05991 0.0
H3295 H 0.96712 0.98632 0.07346 0.0
H3296 H 0.80195 0.70782 0.82915 0.0
H3297 H 0.81499 0.73737 0.81545 0.0
H3298 H 0.74613 0.78938 0.82147 0.0
H3299 H 0.73337 0.7604 0.83533 0.0
H3300 H 0.78383 0.75096 0.79868 0.0
H3301 H 0.81053 0.84263 0.82049 0.0
H3302 H 0.80699 0.80936 0.82596 0.0
H3303 H 0.77726 0.82907 0.82295 0.0
C3304 C 0.78979 0.72575 0.82764 0.0
C3305 C 0.76669 0.73182 0.83336 0.0
C3306 C 0.79716 0.7425 0.81977 0.0
C3307 C 0.78173 0.76574 0.81753 0.0
C3308 C 0.75857 0.77178 0.82317 0.0
H3309 H 0.79345 0.89142 0.77278 0.0
H3310 H 0.77922 0.86185 0.78632 0.0
C3311 C 0.75115 0.75503 0.83103 0.0
C3312 C 0.78952 0.78331 0.80914 0.0
H3313 H 0.80937 0.84776 0.80317 0.0
C3314 C 0.78952 0.7721 0.79965 0.0
C3315 C 0.79684 0.81089 0.81045 0.0
C3316 C 0.79817 0.82372 0.82051 0.0
C3317 C 0.79629 0.78785 0.7914 0.0
C3318 C 0.80371 0.81541 0.79271 0.0
C3319 C 0.80362 0.82664 0.80219 0.0
C3320 C 0.81199 0.83285 0.78434 0.0
C3321 C 0.79494 0.77502 0.78133 0.0
C3322 C 0.83523 0.82644 0.7788 0.0
C3323 C 0.84333 0.8432 0.77104 0.0
C3324 C 0.82841 0.8668 0.7687 0.0
C3325 C 0.80516 0.8732 0.7743 0.0
C3326 C 0.7971 0.85643 0.78207 0.0
H3327 H 0.78223 0.75634 0.78134 0.0
H3328 H 0.78652 0.7895 0.77585 0.0
H3329 H 0.8158 0.76925 0.77897 0.0
H3330 H 0.84727 0.80858 0.78053 0.0
H3331 H 0.8612 0.83757 0.76683 0.0
H3332 H 0.80318 0.39603 0.32741 0.0
H3333 H 0.78953 0.36687 0.31368 0.0
H3334 H 0.8482 0.30647 0.32274 0.0
H3335 H 0.86153 0.33517 0.33662 0.0
H3336 H 0.82308 0.3466 0.29828 0.0
H3337 H 0.77667 0.26324 0.32013 0.0
H3338 H 0.78352 0.29643 0.32523 0.0
H3339 H 0.8107 0.27225 0.32372 0.0
C3340 C 0.81294 0.37639 0.32655 0.0
C3341 C 0.83336 0.36785 0.33313 0.0
C3342 C 0.80524 0.35985 0.31867 0.0
C3343 C 0.81763 0.3344 0.31728 0.0
C3344 C 0.8381 0.32587 0.32379 0.0
H3345 H 0.80104 0.20547 0.27415 0.0
H3346 H 0.81523 0.23492 0.28773 0.0
C3347 C 0.84587 0.34241 0.33165 0.0
C3348 C 0.80957 0.31703 0.30888 0.0
H3349 H 0.78202 0.25541 0.30304 0.0
C3350 C 0.81399 0.32671 0.2993 0.0
C3351 C 0.79779 0.29109 0.31026 0.0
C3352 C 0.79163 0.28015 0.32038 0.0
C3353 C 0.80733 0.31091 0.29105 0.0
C3354 C 0.79555 0.28496 0.29244 0.0
C3355 C 0.79113 0.27529 0.30201 0.0
C3356 C 0.78743 0.26758 0.28405 0.0
C3357 C 0.81349 0.32185 0.28093 0.0
C3358 C 0.76699 0.27615 0.27753 0.0
C3359 C 0.75892 0.25944 0.26975 0.0
C3360 C 0.77109 0.23378 0.26837 0.0
C3361 C 0.79155 0.22527 0.27493 0.0
C3362 C 0.79956 0.24198 0.28272 0.0
H3363 H 0.82854 0.33868 0.28119 0.0
H3364 H 0.82149 0.30554 0.27607 0.0
H3365 H 0.79445 0.32987 0.27761 0.0
H3366 H 0.75707 0.29566 0.27852 0.0
H3367 H 0.74324 0.26666 0.26479 0.0
H3368 H 0.80581 0.3886 0.77308 0.0
H3369 H 0.81992 0.35925 0.7867 0.0
H3370 H 0.74561 0.31331 0.78384 0.0
H3371 H 0.73176 0.34193 0.77001 0.0
H3372 H 0.79391 0.35011 0.80456 0.0
H3373 H 0.80445 0.2543 0.78332 0.0
H3374 H 0.80187 0.2872 0.7775 0.0
H3375 H 0.77182 0.27049 0.78201 0.0
C3376 C 0.79264 0.37202 0.77526 0.0
C3377 C 0.76772 0.36752 0.77042 0.0
C3378 C 0.80064 0.35541 0.78309 0.0
C3379 C 0.78398 0.33389 0.78619 0.0
C3380 C 0.75899 0.32951 0.78145 0.0
H3381 H 0.79376 0.24683 0.84177 0.0
H3382 H 0.7804 0.27595 0.82799 0.0
C3383 C 0.75097 0.34609 0.77362 0.0
C3384 C 0.79254 0.31634 0.7945 0.0
H3385 H 0.80685 0.25056 0.80071 0.0
C3386 C 0.79683 0.32835 0.80373 0.0
C3387 C 0.79665 0.28803 0.79335 0.0
C3388 C 0.79373 0.27422 0.78349 0.0
C3389 C 0.80473 0.31273 0.81189 0.0
C3390 C 0.80796 0.28427 0.81081 0.0
C3391 C 0.80408 0.27234 0.80154 0.0
C3392 C 0.81586 0.26654 0.81916 0.0
C3393 C 0.81 0.32689 0.82155 0.0
C3394 C 0.83982 0.251 0.81865 0.0
C3395 C 0.84731 0.23404 0.82644 0.0
C3396 C 0.83092 0.23221 0.8349 0.0
C3397 C 0.80676 0.24762 0.83534 0.0
C3398 C 0.79926 0.26454 0.82753 0.0
H3399 H 0.81368 0.349 0.82052 0.0
H3400 H 0.79192 0.32456 0.82637 0.0
H3401 H 0.82784 0.31786 0.82537 0.0
H3402 H 0.85281 0.25207 0.81222 0.0
H3403 H 0.86579 0.22211 0.82577 0.0
H3404 H 0.73764 0.88151 0.32477 0.0
H3405 H 0.75114 0.85148 0.31128 0.0
H3406 H 0.81823 0.82136 0.32864 0.0
H3407 H 0.80434 0.85064 0.3423 0.0
H3408 H 0.80049 0.85002 0.3011 0.0
H3409 H 0.78043 0.75152 0.31969 0.0
H3410 H 0.76756 0.78348 0.32432 0.0
H3411 H 0.80249 0.77398 0.32638 0.0
C3412 C 0.75504 0.86822 0.32578 0.0
C3413 C 0.76979 0.86835 0.33466 0.0
C3414 C 0.76284 0.85122 0.31803 0.0
C3415 C 0.78543 0.83391 0.31901 0.0
C3416 C 0.80042 0.8342 0.3278 0.0
H3417 H 0.86513 0.71783 0.28043 0.0
H3418 H 0.85188 0.74772 0.29399 0.0
C3419 C 0.79263 0.85119 0.33556 0.0
C3420 C 0.79362 0.816 0.31075 0.0
H3421 H 0.80279 0.7495 0.30425 0.0
C3422 C 0.80089 0.82804 0.30177 0.0
C3423 C 0.79416 0.78734 0.31165 0.0
C3424 C 0.78552 0.77323 0.321 0.0
C3425 C 0.80914 0.81219 0.29371 0.0
C3426 C 0.80964 0.78352 0.29461 0.0
C3427 C 0.8024 0.77149 0.30359 0.0
C3428 C 0.81765 0.76562 0.28632 0.0
C3429 C 0.81781 0.82632 0.28437 0.0
C3430 C 0.80261 0.76554 0.27754 0.0
C3431 C 0.81026 0.74864 0.26974 0.0
C3432 C 0.83302 0.73134 0.27059 0.0
C3433 C 0.84779 0.73122 0.27946 0.0
C3434 C 0.84014 0.74815 0.28725 0.0
H3435 H 0.82309 0.84797 0.2857 0.0
H3436 H 0.83565 0.81597 0.28101 0.0
H3437 H 0.80077 0.82577 0.27901 0.0
H3438 H 0.78487 0.77849 0.27673 0.0
H3439 H 0.79853 0.74939 0.263 0.0
H3440 H 0.58537 0.49023 0.08773 0.0
H3441 H 0.55647 0.50384 0.0739 0.0
H3442 H 0.61775 0.56087 0.06447 0.0
H3443 H 0.64704 0.54695 0.07815 0.0
H3444 H 0.53629 0.55664 0.06946 0.0
H3445 H 0.60171 0.51586 1.03954 0.0
H3446 H 0.60574 0.50581 0.05222 0.0
H3447 H 0.61877 0.53794 1.04807 0.0
C3448 C 0.59282 0.50546 0.08265 0.0
C3449 C 0.61856 0.51742 0.08401 0.0
C3450 C 0.57622 0.51332 0.0748 0.0
C3451 C 0.58514 0.53309 0.0681 0.0
C3452 C 0.61068 0.54527 0.06947 0.0
H3453 H 0.51461 0.60878 1.01637 0.0
H3454 H 0.5436 0.59531 1.03019 0.0
C3455 C 0.62726 0.53749 0.07735 0.0
C3456 C 0.56746 0.54133 0.05978 0.0
H3457 H 0.56383 0.54272 1.03472 0.0
C3458 C 0.54222 0.55351 0.06186 0.0
C3459 C 0.57533 0.53724 1.04989 0.0
C3460 C 0.60175 0.52329 1.04725 0.0
C3461 C 0.5248 0.56214 0.05429 0.0
C3462 C 0.53265 0.55803 1.04439 0.0
C3463 C 0.5579 0.54586 1.04232 0.0
C3464 C 0.51493 0.56619 1.03608 0.0
C3465 C 0.49839 0.57611 0.05693 0.0
C3466 C 0.48936 0.55403 1.03475 0.0
C3467 C 0.47272 0.56174 1.02688 0.0
C3468 C 0.4814 0.58171 1.02018 0.0
C3469 C 0.50717 0.59363 1.02148 0.0
C3470 C 0.52382 0.58585 1.02933 0.0
H3471 H 0.4985 0.58365 0.06463 0.0
H3472 H 0.49433 0.59351 1.05193 0.0
H3473 H 0.48138 0.56143 0.05617 0.0
H3474 H 0.4823 0.5385 1.03979 0.0
H3475 H 0.45291 0.55231 1.02613 0.0
H3476 H 1.00495 0.5505 0.5933 0.0
H3477 H 1.03423 0.5368 0.57958 0.0
H3478 H 0.99417 0.59514 0.5608 0.0
H3479 H 0.96467 0.60881 0.57443 0.0
H3480 H 1.01919 0.51611 0.56099 0.0
H3481 H 0.0753 0.61363 0.55763 0.0
H3482 H 0.0552 0.60513 0.56831 0.0
H3483 H 1.03887 0.61698 0.55728 0.0
C3484 C 1.00224 0.5603 0.58623 0.0
C3485 C 0.98258 0.58087 0.58497 0.0
C3486 C 1.01907 0.55253 0.57842 0.0
C3487 C 1.01665 0.56528 0.56923 0.0
C3488 C 0.99679 0.5855 0.5679 0.0
H3489 H 0.09639 0.54741 0.51272 0.0
H3490 H 0.06723 0.56061 0.52652 0.0
C3491 C 0.97996 0.59329 0.5757 0.0
C3492 C 1.03457 0.55708 0.56098 0.0
H3493 H 0.08269 0.58097 0.54506 0.0
C3494 C 1.03319 0.53022 0.55753 0.0
C3495 C 0.05275 0.57559 0.55649 0.0
C3496 C 0.05589 0.60439 0.56016 0.0
C3497 C 1.04915 0.52148 0.54957 0.0
C3498 C 0.06729 0.54001 0.54506 0.0
C3499 C 0.06871 0.56685 0.54853 0.0
C3500 C 0.08503 0.53192 0.53674 0.0
C3501 C 1.04602 0.49269 0.5459 0.0
C3502 C 0.10495 0.5117 0.53797 0.0
C3503 C 0.12172 0.5042 0.53012 0.0
C3504 C 0.11899 0.5169 0.5209 0.0
C3505 C 0.09921 0.5374 0.51974 0.0
C3506 C 0.08244 0.54488 0.5276 0.0
H3507 H 1.02668 0.48338 0.54846 0.0
H3508 H 1.04655 0.49198 0.53774 0.0
H3509 H 0.06313 0.48014 0.54872 0.0
H3510 H 0.1077 0.50189 0.54503 0.0
H3511 H 0.13709 0.48871 0.53131 0.0
H3512 H 0.08097 0.59655 0.09152 0.0
H3513 H 0.05099 0.58235 0.0781 0.0
H3514 H 0.11994 0.54843 0.06268 0.0
H3515 H 0.14998 0.56235 0.07612 0.0
H3516 H 0.05174 0.59697 0.05878 0.0
H3517 H 0.06659 0.48554 0.06236 0.0
H3518 H 0.07745 0.50923 0.0717 0.0
H3519 H 0.09784 0.50397 0.06087 0.0
C3520 C 0.08973 0.58608 0.08527 0.0
C3521 C 0.11781 0.58044 0.08489 0.0
C3522 C 0.07258 0.57791 0.07762 0.0
C3523 C 0.08316 0.56395 0.06947 0.0
C3524 C 0.11122 0.55856 0.06902 0.0
H3525 H 1.00498 0.5448 1.01259 0.0
H3526 H 1.03386 0.55851 1.02638 0.0
C3527 C 0.12837 0.56656 0.07669 0.0
C3528 C 0.06489 0.55573 0.06131 0.0
H3529 H 1.04314 0.5009 1.04808 0.0
C3530 C 1.04977 0.57595 0.05646 0.0
C3531 C 0.0621 0.52826 0.05838 0.0
C3532 C 0.07664 0.50545 0.06366 0.0
C3533 C 1.03224 0.5695 1.04865 0.0
C3534 C 1.03019 0.54216 1.0455 0.0
C3535 C 1.04497 0.52188 1.05045 0.0
C3536 C 1.01259 0.53409 1.03715 0.0
C3537 C 1.01573 0.59194 1.04396 0.0
C3538 C 0.99143 0.51537 1.03859 0.0
C3539 C 0.97495 0.50744 1.03072 0.0
C3540 C 0.97939 0.51801 1.02125 0.0
C3541 C 1.00073 0.53666 1.01982 0.0
C3542 C 1.01725 0.54452 1.02769 0.0
H3543 H 1.01407 0.61 1.04884 0.0
H3544 H 1.02583 0.59845 1.03706 0.0
H3545 H 0.99488 0.58484 1.04212 0.0
H3546 H 0.98754 0.50704 1.04583 0.0
H3547 H 0.95852 0.49326 1.03208 0.0
H3548 H 0.46538 0.48848 0.57408 0.0
H3549 H 0.49535 0.50161 0.56055 0.0
H3550 H 0.53246 0.56264 0.57893 0.0
H3551 H 0.5027 0.54948 0.59255 0.0
H3552 H 0.51813 0.58137 0.56007 0.0
H3553 H 0.57704 0.48498 0.55807 0.0
H3554 H 0.54075 0.48073 0.55746 0.0
H3555 H 0.55604 0.49375 0.5685 0.0
C3556 C 0.48013 0.50448 0.57529 0.0
C3557 C 0.48174 0.51781 0.58443 0.0
C3558 C 0.49724 0.51196 0.56755 0.0
C3559 C 0.51642 0.5328 0.56879 0.0
C3560 C 0.51786 0.54642 0.57783 0.0
H3561 H 0.63697 0.6094 0.53105 0.0
H3562 H 0.60735 0.59625 0.54468 0.0
C3563 C 0.50074 0.53896 0.5856 0.0
C3564 C 0.53458 0.54077 0.56057 0.0
H3565 H 0.58424 0.51684 0.54523 0.0
C3566 C 0.53269 0.56733 0.55685 0.0
C3567 C 0.55351 0.52236 0.55639 0.0
C3568 C 0.55722 0.49393 0.56035 0.0
C3569 C 0.54889 0.57586 0.54893 0.0
C3570 C 0.56778 0.55744 0.54473 0.0
C3571 C 0.56969 0.53088 0.54845 0.0
C3572 C 0.58579 0.56536 0.53647 0.0
C3573 C 0.54523 0.6043 0.54497 0.0
C3574 C 0.58393 0.55192 0.5274 0.0
C3575 C 0.60081 0.55941 0.51958 0.0
C3576 C 0.62001 0.5804 0.5207 0.0
C3577 C 0.62206 0.59353 0.52986 0.0
C3578 C 0.60516 0.58604 0.53767 0.0
H3579 H 0.52555 0.61341 0.54733 0.0
H3580 H 0.5619 0.6174 0.54776 0.0
H3581 H 0.54611 0.60443 0.53681 0.0
H3582 H 0.56916 0.53584 0.52634 0.0
H3583 H 0.5985 0.54905 0.5126 0.0
H3584 H 0.17374 0.06308 0.40479 0.0
H3585 H 0.20049 1.04045 0.41745 0.0
H3586 H 0.27337 0.05403 0.40058 0.0
H3587 H 0.2461 0.07638 0.3876 0.0
H3588 H 0.23562 0.05193 0.43027 0.0
H3589 H 0.2909 0.97817 0.40701 0.0
H3590 H 0.29737 1.01274 0.40355 0.0
H3591 H 0.26362 0.99886 0.40222 0.0
C3592 C 0.19547 0.06115 0.40359 0.0
C3593 C 0.20713 0.0717 0.39483 0.0
C3594 C 0.21108 1.04806 0.41104 0.0
C3595 C 0.23959 1.04444 0.41029 0.0
C3596 C 0.25155 0.05525 0.40156 0.0
H3597 H 0.31427 0.91964 0.44969 0.0
H3598 H 0.29185 0.94639 0.43696 0.0
C3599 C 0.23575 0.06844 0.39402 0.0
C3600 C 0.25595 1.02997 0.4187 0.0
H3601 H 0.30397 0.98009 0.4237 0.0
C3602 C 0.25057 1.03626 0.42871 0.0
C3603 C 0.27563 1.00891 0.41715 0.0
C3604 C 0.2821 0.99901 0.40692 0.0
C3605 C 0.2636 1.02277 0.43683 0.0
C3606 C 0.28369 1.00209 0.43527 0.0
C3607 C 0.28907 0.9958 0.42526 0.0
C3608 C 0.29802 0.98572 0.4437 0.0
C3609 C 0.25464 1.03031 0.44707 0.0
C3610 C 0.30994 0.9978 0.45222 0.0
C3611 C 0.32298 0.98202 0.45979 0.0
C3612 C 0.32498 0.95329 0.45923 0.0
C3613 C 0.31332 0.94147 0.45069 0.0
C3614 C 0.30036 0.95707 0.44321 0.0
H3615 H 0.23416 1.03997 0.44707 0.0
H3616 H 0.25402 1.0122 0.45194 0.0
H3617 H 0.26924 1.04518 0.4502 0.0
H3618 H 0.30973 1.01968 0.45299 0.0
H3619 H 0.33185 0.99247 0.46602 0.0
H3620 H 0.42812 0.06455 0.69929 0.0
H3621 H 0.40185 1.04242 0.68644 0.0
H3622 H 0.32887 0.05248 0.7036 0.0
H3623 H 0.35551 0.07553 0.71659 0.0
H3624 H 0.37645 0.99849 0.68396 0.0
H3625 H 0.2959 0.07549 0.67839 0.0
H3626 H 0.3253 0.08196 0.68598 0.0
H3627 H 0.29696 0.06286 0.69075 0.0
C3628 C 0.40644 0.06222 0.70048 0.0
C3629 C 0.39453 0.07219 0.70929 0.0
C3630 C 0.39113 1.04926 0.69294 0.0
C3631 C 0.36265 1.04543 0.6936 0.0
C3632 C 0.35048 0.05526 0.70245 0.0
H3633 H 0.27576 0.99261 0.63731 0.0
H3634 H 0.29902 1.01912 0.65037 0.0
C3635 C 0.36598 0.06839 0.71008 0.0
C3636 C 0.34681 1.03062 0.68517 0.0
H3637 H 0.29032 1.03367 0.66984 0.0
C3638 C 0.35761 1.0065 0.68097 0.0
C3639 C 0.32216 1.04038 0.68076 0.0
C3640 C 0.30947 0.06672 0.68411 0.0
C3641 C 0.34498 0.99226 0.67298 0.0
C3642 C 0.31985 1.00143 0.6688 0.0
C3643 C 0.30921 1.02583 0.67285 0.0
C3644 C 0.30447 0.98557 0.66053 0.0
C3645 C 0.3595 0.96764 0.66892 0.0
C3646 C 0.29859 0.95758 0.66153 0.0
C3647 C 0.28536 0.9424 0.65403 0.0
C3648 C 0.27682 0.95404 0.64498 0.0
C3649 C 0.282 0.9823 0.64397 0.0
C3650 C 0.2954 0.99767 0.65158 0.0
H3651 H 0.38175 0.96854 0.67038 0.0
H3652 H 0.35152 0.9491 0.67256 0.0
H3653 H 0.35637 0.96567 0.66087 0.0
H3654 H 0.30405 0.94716 0.66826 0.0
H3655 H 0.28167 0.92104 0.65543 0.0
H3656 H 0.28209 0.1778 0.94869 0.0
H3657 H 0.30443 0.15127 0.93594 0.0
H3658 H 0.29834 0.07959 0.95396 0.0
H3659 H 0.27507 0.10648 0.96686 0.0
H3660 H 0.34913 0.12731 0.93333 0.0
H3661 H 0.27512 1.04365 0.92936 0.0
H3662 H 0.26793 0.07336 0.93671 0.0
H3663 H 0.28862 1.04622 0.94158 0.0
C3664 C 0.28532 0.15634 0.95009 0.0
C3665 C 0.27638 0.14488 0.95911 0.0
C3666 C 0.29841 0.14088 0.94261 0.0
C3667 C 0.30341 0.11267 0.94354 0.0
C3668 C 0.29461 0.10094 0.9526 0.0
H3669 H 0.35571 1.02313 0.88774 0.0
H3670 H 0.32925 1.04659 0.90078 0.0
C3671 C 0.28135 0.1166 0.96017 0.0
C3672 C 0.31832 0.09668 0.93515 0.0
H3673 H 0.31656 1.03895 0.92046 0.0
C3674 C 0.34169 0.10798 0.93061 0.0
C3675 C 0.30928 0.07137 0.9311 0.0
C3676 C 0.28373 0.058 0.93485 0.0
C3677 C 0.3559 0.09525 0.92262 0.0
C3678 C 0.34748 0.06952 0.91879 0.0
C3679 C 0.32381 0.05833 0.92319 0.0
C3680 C 0.36336 0.05408 0.91053 0.0
C3681 C 0.37963 0.1103 0.91817 0.0
C3682 C 0.39169 1.04931 0.9113 0.0
C3683 C 0.40684 1.03597 0.90381 0.0
C3684 C 0.39484 1.02621 0.89499 0.0
C3685 C 0.36629 1.03035 0.89421 0.0
C3686 C 0.35095 1.04385 0.90181 0.0
H3687 H 0.3779 0.13258 0.91941 0.0
H3688 H 0.39877 0.10332 0.92171 0.0
H3689 H 0.38115 0.10659 0.91014 0.0
H3690 H 0.4024 0.05572 0.91786 0.0
H3691 H 0.42846 1.03314 0.90503 0.0
H3692 H 0.17341 1.03568 0.19937 0.0
H3693 H 0.20017 0.05822 0.18672 0.0
H3694 H 0.27345 1.04114 0.20299 0.0
H3695 H 0.24618 1.01892 0.21597 0.0
H3696 H 0.23411 1.04642 0.17359 0.0
H3697 H 0.29325 0.11651 0.19699 0.0
H3698 H 0.29876 0.08151 0.20012 0.0
H3699 H 0.26558 0.09657 0.20184 0.0
C3700 C 0.19523 1.03682 0.20045 0.0
C3701 C 0.20702 1.02535 0.20904 0.0
C3702 C 0.21085 0.04986 0.193 0.0
C3703 C 0.23949 0.05246 0.19359 0.0
C3704 C 0.25155 1.04074 0.20215 0.0
H3705 H 0.31576 0.17705 0.15476 0.0
H3706 H 0.29345 0.15014 0.16741 0.0
C3707 C 0.23575 1.02762 0.2097 0.0
C3708 C 0.25584 0.06684 0.18517 0.0
H3709 H 0.30526 0.11514 0.18019 0.0
C3710 C 0.24967 0.06141 0.17516 0.0
C3711 C 0.27633 0.08702 0.18674 0.0
C3712 C 0.28376 0.09602 0.19698 0.0
C3713 C 0.26267 0.07492 0.16705 0.0
C3714 C 0.28353 0.09471 0.16862 0.0
C3715 C 0.28973 0.10012 0.17863 0.0
C3716 C 0.29783 0.11116 0.16021 0.0
C3717 C 0.25285 0.06839 0.15682 0.0
C3718 C 0.30875 0.09934 0.15146 0.0
C3719 C 0.32175 0.11524 0.14393 0.0
C3720 C 0.32468 0.14383 0.14476 0.0
C3721 C 0.31404 0.15535 0.15354 0.0
C3722 C 0.30114 0.13965 0.16098 0.0
H3723 H 0.23208 0.05945 0.1569 0.0
H3724 H 0.25248 0.08684 0.15212 0.0
H3725 H 0.26678 0.05324 0.15345 0.0
H3726 H 0.30777 0.07755 0.15047 0.0
H3727 H 0.32981 0.10499 0.13751 0.0
H3728 H 0.92647 1.03193 0.69877 0.0
H3729 H 0.89998 0.05443 0.68603 0.0
H3730 H 0.82788 1.04729 0.70383 0.0
H3731 H 0.85473 1.02391 0.71672 0.0
H3732 H 0.87554 0.09904 0.68354 0.0
H3733 H 0.79269 1.02431 0.67903 0.0
H3734 H 0.79488 1.03745 0.69131 0.0
H3735 H 0.82237 1.01723 0.68643 0.0
C3736 C 0.90493 1.03498 0.70012 0.0
C3737 C 0.89333 1.0257 0.70907 0.0
C3738 C 0.8895 1.04815 0.69265 0.0
C3739 C 0.86118 0.05289 0.69352 0.0
C3740 C 0.84932 1.04378 0.70252 0.0
H3741 H 0.77274 0.10608 0.63756 0.0
H3742 H 0.79621 0.07945 0.65056 0.0
C3743 C 0.86495 1.03045 0.71008 0.0
C3744 C 0.8452 0.06785 0.68514 0.0
H3745 H 0.78775 0.06587 0.67026 0.0
C3746 C 0.85634 0.09147 0.68073 0.0
C3747 C 0.82005 0.05866 0.68098 0.0
C3748 C 0.80686 1.03289 0.68459 0.0
C3749 C 0.84359 0.10577 0.67277 0.0
C3750 C 0.81802 0.09716 0.66882 0.0
C3751 C 0.80701 0.07326 0.67309 0.0
C3752 C 0.80256 0.11312 0.66059 0.0
C3753 C 0.85841 0.12984 0.66848 0.0
C3754 C 0.79717 0.14125 0.66153 0.0
C3755 C 0.78378 0.15649 0.65407 0.0
C3756 C 0.77464 0.14479 0.64511 0.0
C3757 C 0.77944 0.11644 0.64415 0.0
C3758 C 0.79295 0.10099 0.65173 0.0
H3759 H 0.8807 0.12846 0.66982 0.0
H3760 H 0.85493 0.13154 0.66044 0.0
H3761 H 0.85096 0.14873 0.67206 0.0
H3762 H 0.80312 0.15172 0.66819 0.0
H3763 H 0.78045 0.17795 0.65543 0.0
H3764 H 0.81626 0.17855 0.44933 0.0
H3765 H 0.79362 0.15196 0.43666 0.0
H3766 H 0.80867 0.07889 0.45324 0.0
H3767 H 0.83094 0.10601 0.46624 0.0
H3768 H 0.80512 0.11752 0.42368 0.0
H3769 H 0.73307 0.06046 0.44697 0.0
H3770 H 0.75344 0.08779 0.45181 0.0
H3771 H 0.76789 0.05431 0.45028 0.0
C3772 C 0.81464 0.15682 0.45047 0.0
C3773 C 0.82556 0.14504 0.45916 0.0
C3774 C 0.80155 0.14129 0.44301 0.0
C3775 C 0.79835 0.11277 0.44367 0.0
C3776 C 0.80954 0.10072 0.45233 0.0
H3777 H 0.67365 1.03716 0.40464 0.0
H3778 H 0.70049 0.0596 0.41728 0.0
C3779 C 0.82268 0.11643 0.45989 0.0
C3780 C 0.78392 0.09649 0.43524 0.0
H3781 H 0.73489 1.04783 0.43023 0.0
C3782 C 0.78979 0.10229 0.42523 0.0
C3783 C 0.7633 0.07644 0.4368 0.0
C3784 C 0.75379 0.06951 0.44703 0.0
C3785 C 0.77631 0.08931 0.41711 0.0
C3786 C 0.75609 0.06884 0.41867 0.0
C3787 C 0.75024 0.06304 0.42868 0.0
C3788 C 0.73968 0.05455 0.41024 0.0
C3789 C 0.78332 0.09873 0.40688 0.0
C3790 C 0.75162 1.04327 0.40158 0.0
C3791 C 0.73576 1.03022 0.39404 0.0
C3792 C 0.70708 1.02758 0.39479 0.0
C3793 C 0.69542 1.03862 0.40348 0.0
C3794 C 0.71109 0.05159 0.41092 0.0
H3795 H 0.79256 0.11935 0.40693 0.0
H3796 H 0.79842 0.08452 0.40363 0.0
H3797 H 0.76501 0.09922 0.4021 0.0
H3798 H 0.77349 1.04397 0.40066 0.0
H3799 H 0.7461 1.02185 0.38769 0.0
H3800 H 0.81887 0.92346 0.15528 0.0
H3801 H 0.7963 0.94991 0.168 0.0
H3802 H 0.80324 1.02183 0.15015 0.0
H3803 H 0.82666 0.995 0.13727 0.0
H3804 H 0.75145 0.97427 0.17043 0.0
H3805 H 0.82627 0.05701 0.17499 0.0
H3806 H 0.81317 0.05475 0.1627 0.0
H3807 H 0.83341 1.02734 0.16761 0.0
C3808 C 0.81578 0.94494 0.15391 0.0
C3809 C 0.82501 0.9565 0.14494 0.0
C3810 C 0.80256 0.96036 0.16137 0.0
C3811 C 0.79773 0.98861 0.16048 0.0
C3812 C 0.80681 1.00043 0.15148 0.0
H3813 H 0.74417 0.07659 0.21649 0.0
H3814 H 0.77093 0.05324 0.20349 0.0
C3815 C 0.82017 0.98481 0.14392 0.0
C3816 C 0.7827 1.00456 0.16886 0.0
H3817 H 0.78465 0.06188 0.18376 0.0
C3818 C 0.75902 0.99343 0.17325 0.0
C3819 C 0.79189 1.02966 0.17303 0.0
C3820 C 0.81771 1.04283 0.16943 0.0
C3821 C 0.74467 1.00616 0.18121 0.0
C3822 C 0.7533 1.03166 0.18517 0.0
C3823 C 0.77726 1.04266 0.18093 0.0
C3824 C 0.73728 1.04707 0.19341 0.0
C3825 C 0.72051 0.99138 0.18547 0.0
C3826 C 0.70913 0.05254 0.19244 0.0
C3827 C 0.69382 0.06584 0.19991 0.0
C3828 C 0.70546 0.07482 0.2089 0.0
C3829 C 0.73385 0.06998 0.20988 0.0
C3830 C 0.74936 0.05655 0.2023 0.0
H3831 H 0.72184 0.96913 0.18411 0.0
H3832 H 0.7188 0.9948 0.19351 0.0
H3833 H 0.70162 0.9989 0.1819 0.0
H3834 H 0.6987 1.04671 0.18576 0.0
H3835 H 0.67236 0.06924 0.19852 0.0
H3836 H 0.77347 0.99211 0.96648 0.0
H3837 H 0.79691 1.01856 0.95346 0.0
H3838 H 0.80308 0.94632 0.93577 0.0
H3839 H 0.78045 0.92025 0.94856 0.0
H3840 H 0.78841 1.0325 0.93385 0.0
H3841 H 0.88076 0.9686 0.93396 0.0
H3842 H 0.8508 0.94877 0.93174 0.0
H3843 H 0.85511 0.96572 0.94338 0.0
C3844 C 0.78001 0.98172 0.95987 0.0
C3845 C 0.77503 0.95341 0.95891 0.0
C3846 C 0.7935 0.99706 0.95228 0.0
C3847 C 0.80292 0.98488 0.9434 0.0
C3848 C 0.79731 0.95681 0.94244 0.0
H3849 H 0.92691 0.06521 0.90518 0.0
H3850 H 0.90041 1.04286 0.91792 0.0
C3851 C 0.78395 0.94167 0.94992 0.0
C3852 C 0.81838 1.00074 0.93515 0.0
H3853 H 0.87566 0.99832 0.92031 0.0
C3854 C 0.80754 1.02488 0.93097 0.0
C3855 C 0.8438 0.99184 0.93113 0.0
C3856 C 0.85847 0.9675 0.93534 0.0
C3857 C 0.8206 1.03942 0.92308 0.0
C3858 C 0.84559 1.02995 0.91884 0.0
C3859 C 0.85657 1.0061 0.92318 0.0
C3860 C 0.86157 1.04484 0.91046 0.0
C3861 C 0.80763 0.06545 0.91955 0.0
C3862 C 0.84969 0.05415 0.90149 0.0
C3863 C 0.86533 0.06738 0.89392 0.0
C3864 C 0.89375 0.07183 0.8949 0.0
C3865 C 0.90536 0.06238 0.90384 0.0
C3866 C 0.88992 1.04929 0.91131 0.0
H3867 H 0.7936 0.07412 0.92515 0.0
H3868 H 0.82329 0.08092 0.91774 0.0
H3869 H 0.79556 0.06121 0.91283 0.0
H3870 H 0.82821 0.05088 0.9002 0.0
H3871 H 0.85509 0.0741 0.8873 0.0
H3872 H 0.74539 0.5763 0.88751 0.0
H3873 H 0.77186 0.55324 0.90065 0.0
H3874 H 0.69863 0.54412 0.91767 0.0
H3875 H 0.67256 0.56627 0.90475 0.0
H3876 H 0.78425 0.56134 0.92039 0.0
H3877 H 0.72351 0.46731 0.91934 0.0
H3878 H 0.7203 0.49315 0.91002 0.0
H3879 H 0.70245 0.4965 0.92153 0.0
C3880 C 0.73479 0.56915 0.89399 0.0
C3881 C 0.70622 0.57312 0.89472 0.0
C3882 C 0.75014 0.5559 0.90165 0.0
C3883 C 0.7377 0.54578 0.91038 0.0
C3884 C 0.70936 0.55043 0.91111 0.0
H3885 H 0.81924 0.42306 0.94889 0.0
H3886 H 0.7971 0.44932 0.93602 0.0
C3887 C 0.6942 0.56352 0.90356 0.0
C3888 C 0.75357 0.53054 0.91869 0.0
H3889 H 0.75207 0.47288 0.9333 0.0
C3890 C 0.77709 0.54193 0.92313 0.0
C3891 C 0.74526 0.50479 0.92254 0.0
C3892 C 0.72169 0.48956 0.91806 0.0
C3893 C 0.79156 0.52908 0.9311 0.0
C3894 C 0.78263 0.50374 0.93516 0.0
C3895 C 0.75942 0.49223 0.93057 0.0
C3896 C 0.79749 0.48796 0.94361 0.0
C3897 C 0.81696 0.54265 0.93489 0.0
C3898 C 0.8059 0.49982 0.95269 0.0
C3899 C 0.81905 0.48433 0.96033 0.0
C3900 C 0.82427 0.45608 0.95931 0.0
C3901 C 0.81576 0.44449 0.95026 0.0
C3902 C 0.80279 0.45979 0.94271 0.0
H3903 H 0.82556 0.55703 0.92941 0.0
H3904 H 0.81187 0.55443 0.9416 0.0
H3905 H 0.83283 0.52742 0.93679 0.0
H3906 H 0.80194 0.52115 0.95401 0.0
H3907 H 0.825 0.49454 0.96704 0.0
H3908 H 0.77418 0.49398 0.1377 0.0
H3909 H 0.79752 0.52057 0.15071 0.0
H3910 H 0.80512 0.44813 0.16823 0.0
H3911 H 0.78265 0.42195 0.15544 0.0
H3912 H 0.78933 0.53412 0.17036 0.0
H3913 H 0.88246 0.4714 0.16993 0.0
H3914 H 0.85668 0.46829 0.16057 0.0
H3915 H 0.85281 0.45115 0.1722 0.0
C3916 C 0.78103 0.48357 0.14426 0.0
C3917 C 0.77652 0.45518 0.14517 0.0
C3918 C 0.79446 0.49899 0.15185 0.0
C3919 C 0.80426 0.48681 0.16068 0.0
C3920 C 0.79908 0.45865 0.16159 0.0
H3921 H 0.92794 0.56779 0.19894 0.0
H3922 H 0.90156 0.54531 0.18619 0.0
C3923 C 0.7858 0.44343 0.15411 0.0
C3924 C 0.81966 0.50276 0.16893 0.0
H3925 H 0.87719 0.50081 0.18366 0.0
C3926 C 0.8086 0.5267 0.17319 0.0
C3927 C 0.84526 0.49412 0.17289 0.0
C3928 C 0.86017 0.47002 0.16861 0.0
C3929 C 0.8216 0.54129 0.18108 0.0
C3930 C 0.84677 0.53207 0.18525 0.0
C3931 C 0.85797 0.50841 0.18085 0.0
C3932 C 0.8627 0.54703 0.19364 0.0
C3933 C 0.80835 0.56711 0.18467 0.0
C3934 C 0.85079 0.55623 0.20262 0.0
C3935 C 0.86635 0.56955 0.21019 0.0
C3936 C 0.89473 0.5742 0.20921 0.0
C3937 C 0.9064 0.56483 0.20027 0.0
C3938 C 0.89103 0.55166 0.1928 0.0
H3939 H 0.7942 0.57572 0.1791 0.0
H3940 H 0.79634 0.56261 0.19138 0.0
H3941 H 0.82383 0.58273 0.18651 0.0
H3942 H 0.82933 0.55281 0.20392 0.0
H3943 H 0.85607 0.57616 0.21682 0.0
H3944 H 0.92859 0.52983 0.40506 0.0
H3945 H 0.90234 0.55186 0.41797 0.0
H3946 H 0.82985 0.54507 0.40035 0.0
H3947 H 0.85645 0.52215 0.38729 0.0
H3948 H 0.87787 0.59646 0.42064 0.0
H3949 H 0.79543 0.52134 0.42524 0.0
H3950 H 0.82498 0.51452 0.41775 0.0
H3951 H 0.79727 0.53465 0.41298 0.0
C3952 C 0.90702 0.53287 0.40378 0.0
C3953 C 0.89524 0.52386 0.39482 0.0
C3954 C 0.89173 0.54576 0.41135 0.0
C3955 C 0.86338 0.55047 0.41058 0.0
C3956 C 0.85133 0.54158 0.40159 0.0
H3957 H 0.77563 0.6023 0.46686 0.0
H3958 H 0.79883 0.57596 0.45372 0.0
C3959 C 0.86682 0.52852 0.39392 0.0
C3960 C 0.84757 0.56521 0.41905 0.0
H3961 H 0.79049 0.56278 0.4341 0.0
C3962 C 0.85875 0.58879 0.42349 0.0
C3963 C 0.82256 0.55586 0.42327 0.0
C3964 C 0.80942 0.53007 0.41966 0.0
C3965 C 0.84614 0.6029 0.43152 0.0
C3966 C 0.82067 0.59416 0.43552 0.0
C3967 C 0.80965 0.57029 0.43124 0.0
C3968 C 0.80535 0.60994 0.44384 0.0
C3969 C 0.86104 0.62689 0.43583 0.0
C3970 C 0.8001 0.63814 0.44303 0.0
C3971 C 0.78691 0.65321 0.45058 0.0
C3972 C 0.77778 0.64127 0.4595 0.0
C3973 C 0.78236 0.61284 0.46031 0.0
C3974 C 0.79571 0.59757 0.45265 0.0
H3975 H 0.88332 0.6255 0.43446 0.0
H3976 H 0.85358 0.64584 0.4323 0.0
H3977 H 0.85767 0.62848 0.44388 0.0
H3978 H 0.80602 0.6488 0.43641 0.0
H3979 H 0.7837 0.67474 0.44933 0.0
H3980 H 0.6726 0.5328 0.69936 0.0
H3981 H 0.69912 0.55519 0.68662 0.0
H3982 H 0.7717 0.54518 0.70401 0.0
H3983 H 0.74482 0.52191 0.71688 0.0
H3984 H 0.7245 0.59916 0.68425 0.0
H3985 H 0.80545 0.52244 0.67894 0.0
H3986 H 0.7759 0.51585 0.68644 0.0
H3987 H 0.80405 0.53505 0.6913 0.0
C3988 C 0.69425 0.53519 0.70061 0.0
C3989 C 0.70598 0.52515 0.70944 0.0
C3990 C 0.7097 0.5483 0.69315 0.0
C3991 C 0.73816 0.5522 0.69391 0.0
C3992 C 0.75014 0.54233 0.70278 0.0
H3993 H 0.82647 0.60525 0.63799 0.0
H3994 H 0.80291 0.57876 0.65097 0.0
C3995 C 0.73449 0.52906 0.71034 0.0
C3996 C 0.75419 0.56711 0.68555 0.0
H3997 H 0.81114 0.56432 0.67044 0.0
C3998 C 0.74345 0.59122 0.68132 0.0
C3999 C 0.77901 0.55746 0.68123 0.0
C4000 C 0.79171 0.53115 0.68462 0.0
C4001 C 0.75627 0.60554 0.6734 0.0
C4002 C 0.78154 0.59646 0.66931 0.0
C4003 C 0.79214 0.57208 0.67338 0.0
C4004 C 0.79708 0.61235 0.66109 0.0
C4005 C 0.7418 0.63014 0.6693 0.0
C4006 C 0.80286 0.64037 0.66209 0.0
C4007 C 0.81628 0.65554 0.65464 0.0
C4008 C 0.82511 0.64385 0.64563 0.0
C4009 C 0.82001 0.61559 0.64462 0.0
C4010 C 0.80644 0.60023 0.65218 0.0
H4011 H 0.71951 0.62919 0.67068 0.0
H4012 H 0.74965 0.64869 0.67297 0.0
H4013 H 0.74513 0.63214 0.66126 0.0
H4014 H 0.79719 0.65081 0.66879 0.0
H4015 H 0.81989 0.67692 0.65603 0.0
H4016 H 0.35578 0.52477 0.21707 0.0
H4017 H 0.32929 0.54807 0.20398 0.0
H4018 H 0.402 0.55509 0.18655 0.0
H4019 H 0.42808 0.53265 0.1994 0.0
H4020 H 0.31603 0.53961 0.18428 0.0
H4021 H 0.37866 0.63244 0.18477 0.0
H4022 H 0.39906 0.60277 0.1826 0.0
H4023 H 0.38163 0.60677 0.19417 0.0
C4024 C 0.36626 0.53148 0.21051 0.0
C4025 C 0.3947 0.5268 0.20963 0.0
C4026 C 0.3509 0.54489 0.20288 0.0
C4027 C 0.3632 0.55449 0.19405 0.0
C4028 C 0.3914 0.54918 0.19318 0.0
H4029 H 0.28279 0.67778 0.15543 0.0
H4030 H 0.305 0.65148 0.16828 0.0
C4031 C 0.40656 0.53592 0.2007 0.0
C4032 C 0.34735 0.56984 0.18575 0.0
H4033 H 0.34956 0.62709 0.17095 0.0
C4034 C 0.32349 0.5588 0.18144 0.0
C4035 C 0.35606 0.59532 0.18179 0.0
C4036 C 0.38007 0.61019 0.18612 0.0
C4037 C 0.30904 0.57174 0.17349 0.0
C4038 C 0.31835 0.59678 0.16931 0.0
C4039 C 0.34191 0.60795 0.17377 0.0
C4040 C 0.30355 0.61264 0.16085 0.0
C4041 C 0.28328 0.55855 0.16984 0.0
C4042 C 0.29459 0.60069 0.15185 0.0
C4043 C 0.28143 0.6162 0.14422 0.0
C4044 C 0.27672 0.64456 0.14516 0.0
C4045 C 0.28583 0.65626 0.15413 0.0
C4046 C 0.29883 0.64093 0.16166 0.0
H4047 H 0.27456 0.5445 0.1754 0.0
H4048 H 0.26766 0.57403 0.16793 0.0
H4049 H 0.28796 0.54649 0.16315 0.0
H4050 H 0.2981 0.57925 0.15059 0.0
H4051 H 0.275 0.6059 0.13759 0.0
H4052 H 0.32631 0.60366 0.96654 0.0
H4053 H 0.30272 0.57689 0.95362 0.0
H4054 H 0.29393 0.64927 0.93615 0.0
H4055 H 0.31671 0.67561 0.94883 0.0
H4056 H 0.31061 0.56365 0.93384 0.0
H4057 H 0.21666 0.62511 0.93487 0.0
H4058 H 0.24599 0.64576 0.93252 0.0
H4059 H 0.24275 0.62837 0.94412 0.0
C4060 C 0.31915 0.61401 0.96 0.0
C4061 C 0.32347 0.64243 0.95906 0.0
C4062 C 0.30558 0.59849 0.95248 0.0
C4063 C 0.29541 0.6106 0.94368 0.0
C4064 C 0.30032 0.6388 0.94276 0.0
H4065 H 0.17147 0.52839 0.90586 0.0
H4066 H 0.19799 0.55097 0.91856 0.0
C4067 C 0.31377 0.65411 0.95017 0.0
C4068 C 0.27989 0.59455 0.93549 0.0
H4069 H 0.22177 0.59594 0.92106 0.0
C4070 C 0.29112 0.57084 0.93113 0.0
C4071 C 0.25403 0.6029 0.93169 0.0
C4072 C 0.23898 0.62674 0.9361 0.0
C4073 C 0.27803 0.55622 0.92326 0.0
C4074 C 0.25257 0.56516 0.91924 0.0
C4075 C 0.2412 0.58857 0.92376 0.0
C4076 C 0.23655 0.55015 0.91089 0.0
C4077 C 0.29151 0.53067 0.91953 0.0
C4078 C 0.24825 0.54141 0.90181 0.0
C4079 C 0.23261 0.52806 0.89428 0.0
C4080 C 0.20436 0.52288 0.89539 0.0
C4081 C 0.1929 0.53176 0.90443 0.0
C4082 C 0.20835 0.54498 0.91187 0.0
H4083 H 0.30601 0.52216 0.92501 0.0
H4084 H 0.27619 0.51486 0.91773 0.0
H4085 H 0.30317 0.53548 0.91277 0.0
H4086 H 0.26958 0.54526 0.90041 0.0
H4087 H 0.24272 0.52186 0.88757 0.0
H4088 H 0.32896 0.4957 0.6384 0.0
H4089 H 0.30655 0.5224 0.65159 0.0
H4090 H 0.29106 0.44855 0.66759 0.0
H4091 H 0.31365 0.42241 0.65479 0.0
H4092 H 0.25836 0.52867 0.65998 0.0
H4093 H 0.32073 0.48803 0.69017 0.0
H4094 H 0.32882 0.48115 0.67749 0.0
H4095 H 0.30391 0.46082 0.68389 0.0
C4096 C 0.32083 0.48506 0.64472 0.0
C4097 C 0.32363 0.45638 0.64528 0.0
C4098 C 0.30784 0.50053 0.6524 0.0
C4099 C 0.29722 0.48819 0.66108 0.0
C4100 C 0.29954 0.45953 0.66142 0.0
H4101 H 0.24453 0.58033 0.71634 0.0
H4102 H 0.2715 0.55843 0.70311 0.0
C4103 C 0.31244 0.44425 0.65385 0.0
C4104 C 0.28337 0.50455 0.6696 0.0
H4105 H 0.27929 0.5102 0.69499 0.0
C4106 C 0.26324 0.52449 0.6676 0.0
C4107 C 0.28938 0.50045 0.67981 0.0
C4108 C 0.31209 0.48169 0.68298 0.0
C4109 C 0.24888 0.53907 0.67516 0.0
C4110 C 0.2537 0.53372 0.68538 0.0
C4111 C 0.27455 0.51454 0.68737 0.0
C4112 C 0.23718 0.54727 0.69392 0.0
C4113 C 0.22904 0.56081 0.67198 0.0
C4114 C 0.2084 0.54838 0.69376 0.0
C4115 C 0.19296 0.56097 0.70136 0.0
C4116 C 0.20507 0.57302 0.70978 0.0
C4117 C 0.23391 0.57146 0.71016 0.0
C4118 C 0.24952 0.55878 0.70245 0.0
H4119 H 0.23467 0.56935 0.6647 0.0
H4120 H 0.20845 0.55177 0.67125 0.0
H4121 H 0.22808 0.57775 0.67737 0.0
H4122 H 0.19745 0.53919 0.68771 0.0
H4123 H 0.17102 0.56124 0.70056 0.0
H4124 H 0.28287 0.42513 0.44901 0.0
H4125 H 0.30532 0.45171 0.43633 0.0
H4126 H 0.29747 0.52357 0.45418 0.0
H4127 H 0.27415 0.49661 0.46703 0.0
H4128 H 0.34994 0.47626 0.43398 0.0
H4129 H 0.2744 0.55864 0.42932 0.0
H4130 H 0.28735 0.55645 0.44163 0.0
H4131 H 0.26746 0.52893 0.43668 0.0
C4132 C 0.28574 0.44663 0.45039 0.0
C4133 C 0.2763 0.45813 0.45934 0.0
C4134 C 0.29889 0.46212 0.44295 0.0
C4135 C 0.30343 0.49039 0.44386 0.0
C4136 C 0.29412 0.50215 0.45285 0.0
H4137 H 0.3566 0.57902 0.38803 0.0
H4138 H 0.33 0.5555 0.401 0.0
C4139 C 0.28082 0.48647 0.46038 0.0
C4140 C 0.3184 0.50642 0.43551 0.0
H4141 H 0.31611 0.56375 0.42063 0.0
C4142 C 0.34223 0.4954 0.43115 0.0
C4143 C 0.30903 0.53148 0.43133 0.0
C4144 C 0.28303 0.54451 0.43488 0.0
C4145 C 0.35655 0.50819 0.42322 0.0
C4146 C 0.34775 0.53368 0.41925 0.0
C4147 C 0.32364 0.54456 0.42347 0.0
C4148 C 0.36371 0.54918 0.41104 0.0
C4149 C 0.38085 0.49349 0.41898 0.0
C4150 C 0.39184 0.55461 0.41201 0.0
C4151 C 0.40707 0.56802 0.40457 0.0
C4152 C 0.39534 0.57716 0.39561 0.0
C4153 C 0.36698 0.57233 0.39463 0.0
C4154 C 0.35155 0.55879 0.40218 0.0
H4155 H 0.37962 0.47122 0.4203 0.0
H4156 H 0.38264 0.49698 0.41094 0.0
H4157 H 0.39965 0.50098 0.42259 0.0
H4158 H 0.40233 0.54867 0.41868 0.0
H4159 H 0.42854 0.57137 0.40593 0.0
H4160 H 0.17905 0.12935 0.33543 0.0
H4161 H 0.17863 0.11152 0.31857 0.0
H4162 H 0.16866 1.03032 0.32989 0.0
H4163 H 0.16775 1.04829 0.34668 0.0
H4164 H 0.20761 0.08149 0.30756 0.0
H4165 H 0.1116 1.02395 0.31015 0.0
H4166 H 0.12257 1.04642 0.31981 0.0
H4167 H 0.13567 1.01214 0.31907 0.0
C4168 C 0.17655 0.10767 0.33437 0.0
C4169 C 0.17316 0.09051 0.34262 0.0
C4170 C 0.17636 0.09733 0.32461 0.0
C4171 C 0.17286 0.06929 0.3226 0.0
C4172 C 0.17028 0.05207 0.3309 0.0
H4173 H 0.17893 0.96718 0.2683 0.0
H4174 H 0.17923 0.98498 0.2852 0.0
C4175 C 0.17009 0.06245 0.34064 0.0
C4176 C 0.17254 0.05825 0.31197 0.0
H4177 H 0.13906 1.01481 0.29608 0.0
C4178 C 0.19236 0.06708 0.30512 0.0
C4179 C 0.15283 1.03932 0.3084 0.0
C4180 C 0.12932 1.03013 0.31471 0.0
C4181 C 0.19335 0.05742 0.29523 0.0
C4182 C 0.17397 1.03818 0.29176 0.0
C4183 C 0.15418 1.02931 0.29856 0.0
C4184 C 0.17383 1.02721 0.28118 0.0
C4185 C 0.21574 0.06754 0.2886 0.0
C4186 C 0.17039 1.04451 0.27296 0.0
C4187 C 0.16989 1.03423 0.2632 0.0
C4188 C 0.17306 1.00617 0.26118 0.0
C4189 C 0.17654 0.98887 0.2694 0.0
C4190 C 0.17666 0.99913 0.27917 0.0
H4191 H 0.23271 0.07679 0.29283 0.0
H4192 H 0.22403 0.05074 0.28402 0.0
H4193 H 0.20735 0.08329 0.28359 0.0
H4194 H 0.16767 0.06615 0.27409 0.0
H4195 H 0.16702 1.04841 0.2572 0.0
H4196 H 0.30096 0.91608 0.59647 0.0
H4197 H 0.31872 0.91737 0.5796 0.0
H4198 H 0.2369 0.92576 0.56853 0.0
H4199 H 0.21935 0.92584 0.58538 0.0
H4200 H 0.31742 0.88845 0.56425 0.0
H4201 H 0.26698 0.98287 0.55204 0.0
H4202 H 0.26617 0.97212 0.56469 0.0
H4203 H 0.24231 0.95834 0.55592 0.0
C4204 C 0.28667 0.91853 0.59047 0.0
C4205 C 0.25853 0.92117 0.5925 0.0
C4206 C 0.29694 0.91918 0.58069 0.0
C4207 C 0.27959 0.92237 0.57245 0.0
C4208 C 0.25136 0.92438 0.57451 0.0
H4209 H 0.30288 0.91387 0.50741 0.0
H4210 H 0.28527 0.9146 0.52434 0.0
C4211 C 0.24114 0.92413 0.58428 0.0
C4212 C 0.29092 0.92278 0.56185 0.0
H4213 H 0.28665 0.95552 0.53941 0.0
C4214 C 0.31068 0.90339 0.55892 0.0
C4215 C 0.28276 0.94209 0.55456 0.0
C4216 C 0.26363 0.96519 0.55698 0.0
C4217 C 0.32167 0.90241 0.54921 0.0
C4218 C 0.31309 0.92135 0.54192 0.0
C4219 C 0.29339 0.94073 0.5448 0.0
C4220 C 0.32422 0.92134 0.53135 0.0
C4221 C 0.34209 0.88048 0.54676 0.0
C4222 C 0.35217 0.92531 0.52928 0.0
C4223 C 0.36233 0.92526 0.51949 0.0
C4224 C 0.34506 0.92099 0.51131 0.0
C4225 C 0.31708 0.91717 0.51339 0.0
C4226 C 0.30687 0.91761 0.52316 0.0
H4227 H 0.34184 0.86375 0.55225 0.0
H4228 H 0.33805 0.87179 0.53936 0.0
H4229 H 0.36283 0.88941 0.54669 0.0
H4230 H 0.36629 0.92873 0.53526 0.0
H4231 H 0.38394 0.92836 0.51834 0.0
H4232 H 0.42117 0.1302 0.76855 0.0
H4233 H 0.42145 0.11216 0.78538 0.0
H4234 H 0.43221 1.03112 0.77395 0.0
H4235 H 0.43329 1.04931 0.75719 0.0
H4236 H 0.39258 0.08202 0.7963 0.0
H4237 H 0.48885 1.02445 0.79382 0.0
H4238 H 0.47794 1.04702 0.78416 0.0
H4239 H 0.46496 1.01274 0.78483 0.0
C4240 C 0.42382 0.10851 0.76958 0.0
C4241 C 0.42749 0.09146 0.76131 0.0
C4242 C 0.42392 0.09805 0.77933 0.0
C4243 C 0.4276 0.06999 0.7813 0.0
C4244 C 0.43045 0.05289 0.77298 0.0
H4245 H 0.42109 0.96753 0.83558 0.0
H4246 H 0.42085 0.9853 0.81867 0.0
C4247 C 0.43073 0.06339 0.76325 0.0
C4248 C 0.4278 0.05881 0.79192 0.0
H4249 H 0.46121 1.01517 0.80781 0.0
C4250 C 0.40785 0.06757 0.79874 0.0
C4251 C 0.44752 1.03981 0.7955 0.0
C4252 C 0.47118 1.03068 0.78923 0.0
C4253 C 0.40675 0.05781 0.80862 0.0
C4254 C 0.42614 1.03852 0.8121 0.0
C4255 C 0.44606 1.0297 0.80532 0.0
C4256 C 0.42622 1.02752 0.82269 0.0
C4257 C 0.38424 0.0679 0.81523 0.0
C4258 C 0.42961 1.04482 0.8309 0.0
C4259 C 0.43007 1.03455 0.84066 0.0
C4260 C 0.42691 1.00651 0.8427 0.0
C4261 C 0.42346 0.98921 0.83448 0.0
C4262 C 0.42339 0.99945 0.8247 0.0
H4263 H 0.3673 0.07722 0.81097 0.0
H4264 H 0.37595 0.05108 0.81977 0.0
H4265 H 0.39251 0.0836 0.82027 0.0
H4266 H 0.43233 0.06644 0.82977 0.0
H4267 H 0.43293 1.04874 0.84666 0.0
H4268 H 0.28996 0.2078 1.00886 0.0
H4269 H 0.30729 0.20789 1.02572 0.0
H4270 H 0.24778 0.14754 1.03376 0.0
H4271 H 0.22932 0.14882 1.01699 0.0
H4272 H 0.25118 0.17659 1.04852 0.0
H4273 H 0.35941 0.16243 1.03927 0.0
H4274 H 0.34697 0.19319 1.03384 0.0
H4275 H 0.33325 0.16079 1.03003 0.0
C4276 C 0.28058 0.19437 1.01418 0.0
C4277 C 0.25819 0.17813 1.01134 0.0
C4278 C 0.29083 0.19417 1.02394 0.0
C4279 C 0.27982 0.17706 1.03131 0.0
C4280 C 0.25724 0.16096 1.02846 0.0
H4281 H 0.37188 0.14809 0.08722 0.0
H4282 H 0.35334 0.14704 0.07046 0.0
C4283 C 0.24659 0.1616 1.01874 0.0
C4284 C 0.29105 0.17648 1.04193 0.0
H4285 H 0.35005 0.17618 0.05574 0.0
C4286 C 0.27288 0.17632 1.05 0.0
C4287 C 0.3194 0.17549 1.04428 0.0
C4288 C 0.34084 0.17267 1.0364 0.0
C4289 C 0.28183 0.17563 0.05998 0.0
C4290 C 0.31018 0.17637 0.06233 0.0
C4291 C 0.32835 0.17608 0.05426 0.0
C4292 C 0.32143 0.17681 0.07294 0.0
C4293 C 0.26038 0.17297 0.06786 0.0
C4294 C 0.3105 0.19398 0.08033 0.0
C4295 C 0.32079 0.19405 0.09009 0.0
C4296 C 0.34314 0.17762 0.0929 0.0
C4297 C 0.35464 0.16102 0.08549 0.0
C4298 C 0.34395 0.16052 0.07578 0.0
H4299 H 0.24176 0.16291 0.06498 0.0
H4300 H 0.26792 0.161 0.07422 0.0
H4301 H 0.25435 0.19354 0.07043 0.0
H4302 H 0.29408 0.20783 0.07857 0.0
H4303 H 0.31148 0.20753 0.09542 0.0
H4304 H 0.89683 0.97705 0.76695 0.0
H4305 H 0.89566 0.99516 0.78378 0.0
H4306 H 0.95515 0.05551 0.77574 0.0
H4307 H 0.95497 1.03853 0.75884 0.0
H4308 H 0.92515 0.99879 0.79851 0.0
H4309 H 0.90898 0.10669 0.78947 0.0
H4310 H 0.90753 0.08064 0.78019 0.0
H4311 H 0.93984 0.09486 0.78391 0.0
C4312 C 0.90944 0.99444 0.76871 0.0
C4313 C 0.9257 1.00637 0.76131 0.0
C4314 C 0.90887 1.00487 0.77847 0.0
C4315 C 0.92475 1.02758 0.78134 0.0
C4316 C 0.94159 1.03893 0.77395 0.0
H4317 H 0.95686 0.05913 0.84536 0.0
H4318 H 0.9568 1.04182 0.82849 0.0
C4319 C 0.94174 1.02887 0.76417 0.0
C4320 C 0.92424 1.03865 0.79197 0.0
H4321 H 0.92348 0.09741 0.80586 0.0
C4322 C 0.9246 1.02043 0.80002 0.0
C4323 C 0.92289 0.06692 0.79437 0.0
C4324 C 0.91947 0.08835 0.78653 0.0
C4325 C 0.92411 1.02926 0.81002 0.0
C4326 C 0.92451 0.05756 0.8124 0.0
C4327 C 0.92367 0.07577 0.80436 0.0
C4328 C 0.92515 0.06871 0.82303 0.0
C4329 C 0.92205 1.00774 0.81788 0.0
C4330 C 0.90859 0.09094 0.82595 0.0
C4331 C 0.9093 0.10157 0.83567 0.0
C4332 C 0.92635 0.09031 0.843 0.0
C4333 C 0.94302 0.06824 0.8401 0.0
C4334 C 0.94275 0.058 0.83033 0.0
H4335 H 0.91217 0.98902 0.81502 0.0
H4336 H 0.94282 1.00201 0.82035 0.0
H4337 H 0.91016 1.01502 0.82431 0.0
H4338 H 0.89477 0.10014 0.82071 0.0
H4339 H 0.89616 0.11858 0.83747 0.0
H4340 H 0.71869 0.17307 0.58527 0.0
H4341 H 0.73693 0.17343 0.56846 0.0
H4342 H 0.81814 0.18204 0.58003 0.0
H4343 H 0.79979 0.18301 0.59676 0.0
H4344 H 0.76681 0.14424 0.55746 0.0
H4345 H 0.82585 0.23915 0.56041 0.0
H4346 H 0.8371 0.21483 0.56932 0.0
H4347 H 0.80295 0.22841 0.56998 0.0
C4348 C 0.74046 0.17526 0.58427 0.0
C4349 C 0.75752 0.1783 0.59257 0.0
C4350 C 0.75104 0.17541 0.57453 0.0
C4351 C 0.77922 0.17852 0.57261 0.0
C4352 C 0.79631 0.18073 0.58096 0.0
H4353 H 0.80174 0.18479 0.50728 0.0
H4354 H 0.78359 0.18415 0.52411 0.0
C4355 C 0.78571 0.18095 0.59068 0.0
C4356 C 0.79052 0.17882 0.56201 0.0
H4357 H 0.83494 0.21177 0.54633 0.0
C4358 C 0.78155 0.15927 0.5551 0.0
C4359 C 0.80988 0.19824 0.55854 0.0
C4360 C 0.81928 0.2215 0.56492 0.0
C4361 C 0.79145 0.15825 0.54524 0.0
C4362 C 0.81111 0.17734 0.54186 0.0
C4363 C 0.82013 0.19686 0.54873 0.0
C4364 C 0.82235 0.17746 0.53131 0.0
C4365 C 0.78113 0.13614 0.53853 0.0
C4366 C 0.85049 0.17434 0.52938 0.0
C4367 C 0.86098 0.17446 0.51964 0.0
C4368 C 0.84389 0.17822 0.51137 0.0
C4369 C 0.81578 0.18168 0.51332 0.0
C4370 C 0.80525 0.18119 0.52305 0.0
H4371 H 0.77155 0.11927 0.54271 0.0
H4372 H 0.76554 0.14481 0.53351 0.0
H4373 H 0.7979 0.1277 0.53397 0.0
H4374 H 0.8645 0.17154 0.53545 0.0
H4375 H 0.8827 0.17183 0.5186 0.0
H4376 H 0.64343 1.04032 0.34507 0.0
H4377 H 0.64332 0.05722 0.32811 0.0
H4378 H 0.70436 0.99778 0.32042 0.0
H4379 H 0.70312 0.97983 0.33721 0.0
H4380 H 0.67297 0.08155 0.3164 0.0
H4381 H 0.66002 0.98331 0.29756 0.0
H4382 H 0.65772 0.98616 0.31072 0.0
H4383 H 0.69049 0.98298 0.30478 0.0
C4384 C 0.65672 1.03062 0.33977 0.0
C4385 C 0.67308 1.00834 0.34269 0.0
C4386 C 0.65673 1.04045 0.32994 0.0
C4387 C 0.6733 1.02869 0.32254 0.0
C4388 C 0.69032 1.00692 0.32558 0.0
H4389 H 0.7027 0.12231 0.26664 0.0
H4390 H 0.70404 0.1044 0.28343 0.0
C4391 C 0.68989 0.99673 0.33536 0.0
C4392 C 0.67313 1.0396 0.31187 0.0
H4393 H 0.67328 1.0205 0.28745 0.0
C4394 C 0.67287 0.06796 0.31012 0.0
C4395 C 0.67244 1.0226 0.30336 0.0
C4396 C 0.66987 0.99212 0.30419 0.0
C4397 C 0.67224 0.07946 0.30049 0.0
C4398 C 0.67311 0.06246 0.29197 0.0
C4399 C 0.67305 1.03409 0.29373 0.0
C4400 C 0.67325 0.07336 0.28131 0.0
C4401 C 0.66946 0.10993 0.29966 0.0
C4402 C 0.6568 0.06153 0.2739 0.0
C4403 C 0.65675 0.07133 0.26407 0.0
C4404 C 0.67293 0.09367 0.26115 0.0
C4405 C 0.68961 0.10537 0.26849 0.0
C4406 C 0.69009 0.09519 0.27827 0.0
H4407 H 0.65952 0.11872 0.30628 0.0
H4408 H 0.69002 0.11912 0.29908 0.0
H4409 H 0.6573 0.11586 0.29312 0.0
H4410 H 0.64353 1.04471 0.27573 0.0
H4411 H 0.64355 0.06157 0.25877 0.0
H4412 H 0.80063 0.91656 0.09653 0.0
H4413 H 0.78277 0.91699 0.07963 0.0
H4414 H 0.86396 0.92855 0.06848 0.0
H4415 H 0.88185 0.92847 0.08535 0.0
H4416 H 0.78494 0.95713 0.06429 0.0
H4417 H 0.83772 0.86348 1.05193 0.0
H4418 H 0.83433 0.87224 0.06477 0.0
H4419 H 0.85946 0.88883 0.05729 0.0
C4420 C 0.8148 0.91923 0.09051 0.0
C4421 C 0.84291 0.92241 0.09251 0.0
C4422 C 0.80446 0.91949 0.08075 0.0
C4423 C 0.82177 0.92242 0.07251 0.0
C4424 C 0.84985 0.92576 0.07451 0.0
H4425 H 0.79847 0.91537 1.00745 0.0
H4426 H 0.81615 0.91685 1.02432 0.0
C4427 C 0.86015 0.92587 0.08427 0.0
C4428 C 0.81054 0.92224 0.06196 0.0
H4429 H 0.81403 0.88839 1.03979 0.0
C4430 C 0.79131 0.94197 0.05898 0.0
C4431 C 0.81863 0.9028 0.05476 0.0
C4432 C 0.83849 0.88046 0.05732 0.0
C4433 C 0.78069 0.94322 1.04921 0.0
C4434 C 0.78839 0.92345 1.04202 0.0
C4435 C 0.80767 0.90369 1.04505 0.0
C4436 C 0.7771 0.92295 1.03142 0.0
C4437 C 0.76212 0.96666 1.04667 0.0
C4438 C 0.74893 0.92551 1.02932 0.0
C4439 C 0.73876 0.92512 1.01954 0.0
C4440 C 0.75614 0.92149 1.01136 0.0
C4441 C 0.7842 0.91833 1.01343 0.0
C4442 C 0.79442 0.9191 1.0232 0.0
H4443 H 0.76584 0.98443 1.05154 0.0
H4444 H 0.76485 0.97327 1.03894 0.0
H4445 H 0.74064 0.96034 1.04775 0.0
H4446 H 0.73447 0.92742 1.03528 0.0
H4447 H 0.71702 0.92726 1.01841 0.0
H4448 H 0.66764 0.55026 0.84668 0.0
H4449 H 0.6689 0.53238 0.82983 0.0
H4450 H 0.67978 0.61369 0.81873 0.0
H4451 H 0.67989 0.63132 0.83556 0.0
H4452 H 0.64035 0.53452 0.81438 0.0
H4453 H 0.73662 0.5817 0.80248 0.0
H4454 H 0.72554 0.58294 0.81509 0.0
H4455 H 0.71266 0.60714 0.80625 0.0
C4456 C 0.67064 0.5644 0.84067 0.0
C4457 C 0.67398 0.59241 0.84269 0.0
C4458 C 0.67127 0.55406 0.83091 0.0
C4459 C 0.67515 0.57122 0.82267 0.0
C4460 C 0.67786 0.59934 0.82471 0.0
H4461 H 0.66764 0.54784 0.75763 0.0
H4462 H 0.66842 0.5655 0.77455 0.0
C4463 C 0.67762 0.60963 0.83447 0.0
C4464 C 0.67553 0.55983 0.81208 0.0
H4465 H 0.70903 0.56289 0.78976 0.0
C4466 C 0.65565 0.54072 0.80909 0.0
C4467 C 0.69529 0.5673 0.80486 0.0
C4468 C 0.71888 0.58565 0.80735 0.0
C4469 C 0.65462 0.52972 0.79939 0.0
C4470 C 0.67402 0.53763 0.79216 0.0
C4471 C 0.69389 0.55667 0.7951 0.0
C4472 C 0.67398 0.52646 0.7816 0.0
C4473 C 0.63216 0.51004 0.79687 0.0
C4474 C 0.67727 0.49843 0.77957 0.0
C4475 C 0.67718 0.48822 0.76979 0.0
C4476 C 0.67356 0.50555 0.76158 0.0
C4477 C 0.67043 0.5336 0.76363 0.0
C4478 C 0.6709 0.54384 0.7734 0.0
H4479 H 0.61528 0.51085 0.80231 0.0
H4480 H 0.62377 0.51433 0.78945 0.0
H4481 H 0.64053 0.48906 0.79684 0.0
H4482 H 0.68017 0.48427 0.78557 0.0
H4483 H 0.67975 0.46656 0.76867 0.0
H4484 H 0.88127 0.42795 1.01882 0.0
H4485 H 0.86329 0.42744 1.03565 0.0
H4486 H 0.78199 0.41803 1.02425 0.0
H4487 H 0.80011 0.41717 1.00747 0.0
H4488 H 0.83348 0.45636 1.04668 0.0
H4489 H 0.77497 0.36107 1.04394 0.0
H4490 H 0.79759 0.37191 1.03429 0.0
H4491 H 0.76338 0.38531 1.03504 0.0
C4492 C 0.85953 0.42554 1.01986 0.0
C4493 C 0.84238 0.42231 1.01158 0.0
C4494 C 0.84911 0.42531 1.02961 0.0
C4495 C 0.82099 0.42195 1.03159 0.0
C4496 C 0.80379 0.41953 1.02327 0.0
H4497 H 0.71874 0.42875 0.08587 0.0
H4498 H 0.7366 0.42902 0.06897 0.0
C4499 C 0.81425 0.41938 1.01353 0.0
C4500 C 0.80989 0.42162 1.04221 0.0
H4501 H 0.76605 0.38842 0.05804 0.0
C4502 C 0.8189 0.44124 1.04909 0.0
C4503 C 0.79074 0.40208 1.04575 0.0
C4504 C 0.78133 0.37875 1.0394 0.0
C4505 C 0.80925 0.4422 0.05899 0.0
C4506 C 0.78979 0.423 0.06242 0.0
C4507 C 0.78072 0.40341 0.05559 0.0
C4508 C 0.77879 0.42285 0.073 0.0
C4509 C 0.81961 0.46436 0.06566 0.0
C4510 C 0.79605 0.419 0.08121 0.0
C4511 C 0.78572 0.41852 0.09097 0.0
C4512 C 0.75767 0.42212 0.09299 0.0
C4513 C 0.74043 0.42601 0.08477 0.0
C4514 C 0.75071 0.42611 0.075 0.0
H4515 H 0.82916 0.48121 0.06146 0.0
H4516 H 0.80284 0.47281 0.07022 0.0
H4517 H 0.8352 0.45572 0.07069 0.0
H4518 H 0.81767 0.41596 0.08008 0.0
H4519 H 0.79986 0.41532 0.09697 0.0
H4520 H 0.93425 0.54767 0.34654 0.0
H4521 H 0.93297 0.56559 0.3297 0.0
H4522 H 0.92334 0.48416 0.31855 0.0
H4523 H 0.92325 0.46649 0.33537 0.0
H4524 H 0.96166 0.56389 0.31425 0.0
H4525 H 0.86619 0.51531 0.30224 0.0
H4526 H 0.87719 0.51423 0.31486 0.0
H4527 H 0.89048 0.49021 0.30603 0.0
C4528 C 0.93154 0.53352 0.34053 0.0
C4529 C 0.92854 0.50545 0.34253 0.0
C4530 C 0.93089 0.54387 0.33076 0.0
C4531 C 0.92733 0.52668 0.32251 0.0
C4532 C 0.92499 0.49852 0.32454 0.0
H4533 H 0.93488 0.55054 0.25743 0.0
H4534 H 0.93439 0.53266 0.27432 0.0
C4535 C 0.92525 0.48822 0.3343 0.0
C4536 C 0.92687 0.53807 0.31192 0.0
H4537 H 0.89361 0.5345 0.28955 0.0
C4538 C 0.9465 0.55746 0.30895 0.0
C4539 C 0.9073 0.5303 0.30467 0.0
C4540 C 0.88395 0.51162 0.30713 0.0
C4541 C 0.94745 0.56846 0.29924 0.0
C4542 C 0.92824 0.56026 0.29199 0.0
C4543 C 0.90862 0.54093 0.29491 0.0
C4544 C 0.92814 0.57151 0.28144 0.0
C4545 C 0.96963 0.58847 0.29676 0.0
C4546 C 0.92437 0.5995 0.27945 0.0
C4547 C 0.92428 0.60982 0.26968 0.0
C4548 C 0.92821 0.59267 0.26145 0.0
C4549 C 0.93184 0.56464 0.26345 0.0
C4550 C 0.93155 0.55429 0.27321 0.0
H4551 H 0.9865 0.58787 0.3022 0.0
H4552 H 0.97812 0.58434 0.28934 0.0
H4553 H 0.96097 0.60933 0.29674 0.0
H4554 H 0.9212 0.61354 0.28547 0.0
H4555 H 0.92132 0.63144 0.2686 0.0
H4556 H 0.8007 0.67842 0.50808 0.0
H4557 H 0.81818 0.67744 0.52498 0.0
H4558 H 0.73623 0.66919 0.53589 0.0
H4559 H 0.71895 0.66883 0.51899 0.0
H4560 H 0.81638 0.70683 0.54021 0.0
H4561 H 0.76651 0.61252 0.55263 0.0
H4562 H 0.76581 0.62296 0.53994 0.0
H4563 H 0.74175 0.63692 0.54863 0.0
C4564 C 0.78632 0.67605 0.51405 0.0
C4565 C 0.75823 0.67339 0.51196 0.0
C4566 C 0.79643 0.67559 0.52384 0.0
C4567 C 0.77896 0.67256 0.53206 0.0
C4568 C 0.75078 0.67047 0.52994 0.0
H4569 H 0.80193 0.68225 0.59711 0.0
H4570 H 0.78429 0.68113 0.58019 0.0
C4571 C 0.74071 0.67056 0.52014 0.0
C4572 C 0.79015 0.67244 0.54267 0.0
H4573 H 0.786 0.64014 0.56519 0.0
C4574 C 0.80973 0.69196 0.54557 0.0
C4575 C 0.78208 0.65326 0.55 0.0
C4576 C 0.76313 0.63008 0.54762 0.0
C4577 C 0.82064 0.69319 0.55529 0.0
C4578 C 0.81218 0.67435 0.56262 0.0
C4579 C 0.79265 0.65485 0.55977 0.0
C4580 C 0.8233 0.67457 0.57319 0.0
C4581 C 0.84084 0.71526 0.55769 0.0
C4582 C 0.8513 0.67085 0.57526 0.0
C4583 C 0.86149 0.67115 0.58504 0.0
C4584 C 0.84418 0.67541 0.59321 0.0
C4585 C 0.81615 0.67897 0.59114 0.0
C4586 C 0.80593 0.6783 0.58137 0.0
H4587 H 0.84038 0.73193 0.55218 0.0
H4588 H 0.83676 0.724 0.56508 0.0
H4589 H 0.86168 0.70646 0.55775 0.0
H4590 H 0.86545 0.66743 0.56928 0.0
H4591 H 0.88313 0.66823 0.58618 0.0
H4592 H 0.42256 0.63421 0.3359 0.0
H4593 H 0.42219 0.61624 0.31901 0.0
H4594 H 0.4327 0.53506 0.33025 0.0
H4595 H 0.43339 0.55296 0.34712 0.0
H4596 H 0.46201 0.58593 0.3082 0.0
H4597 H 0.36787 0.52475 0.31147 0.0
H4598 H 0.37675 0.55076 0.32027 0.0
H4599 H 0.39308 0.51803 0.32074 0.0
C4600 C 0.42468 0.61249 0.33483 0.0
C4601 C 0.42788 0.59523 0.34308 0.0
C4602 C 0.42453 0.60213 0.32507 0.0
C4603 C 0.42705 0.57399 0.3231 0.0
C4604 C 0.43021 0.55674 0.33135 0.0
H4605 H 0.4219 0.47058 0.26918 0.0
H4606 H 0.42223 0.4889 0.28597 0.0
C4607 C 0.43073 0.56712 0.34109 0.0
C4608 C 0.42691 0.56287 0.31254 0.0
H4609 H 0.3932 0.5194 0.29682 0.0
C4610 C 0.44682 0.57147 0.30574 0.0
C4611 C 0.40744 0.54367 0.30909 0.0
C4612 C 0.3849 0.53385 0.31572 0.0
C4613 C 0.44823 0.56124 0.29593 0.0
C4614 C 0.42846 0.54231 0.29239 0.0
C4615 C 0.40851 0.53378 0.29923 0.0
C4616 C 0.42823 0.53099 0.2818 0.0
C4617 C 0.47186 0.57015 0.28963 0.0
C4618 C 0.43098 0.54795 0.27344 0.0
C4619 C 0.43122 0.5373 0.26373 0.0
C4620 C 0.42805 0.5092 0.26186 0.0
C4621 C 0.42449 0.49228 0.27017 0.0
C4622 C 0.42462 0.5029 0.27989 0.0
H4623 H 0.48955 0.57639 0.29419 0.0
H4624 H 0.4786 0.55369 0.28459 0.0
H4625 H 0.46562 0.58804 0.28519 0.0
H4626 H 0.4327 0.56973 0.27437 0.0
H4627 H 0.43369 0.55127 0.25765 0.0
H4628 H 0.38148 0.67104 1.01849 0.0
H4629 H 0.36377 0.67097 1.03541 0.0
H4630 H 0.28239 0.68221 1.02434 0.0
H4631 H 0.30003 0.68263 1.00743 0.0
H4632 H 0.33385 0.7112 1.04625 0.0
H4633 H 0.27199 0.61749 1.04322 0.0
H4634 H 0.29802 0.62608 1.03437 0.0
H4635 H 0.26539 0.64266 1.03393 0.0
C4636 C 0.35976 0.67341 1.0196 0.0
C4637 C 0.34238 0.67673 1.01138 0.0
C4638 C 0.34955 0.67342 1.02938 0.0
C4639 C 0.32144 0.67623 1.03141 0.0
C4640 C 0.30405 0.67951 1.0232 0.0
H4641 H 0.21936 0.6713 0.08572 0.0
H4642 H 0.23722 0.67157 0.06887 0.0
C4643 C 0.31429 0.67988 1.01342 0.0
C4644 C 0.31051 0.67621 1.04201 0.0
H4645 H 0.26733 0.64274 0.0579 0.0
C4646 C 0.31938 0.69609 1.04877 0.0
C4647 C 0.29132 0.65686 1.04553 0.0
C4648 C 0.28121 0.63439 1.03894 0.0
C4649 C 0.30941 0.69756 0.05862 0.0
C4650 C 0.29051 0.67788 0.06223 0.0
C4651 C 0.28171 0.65797 0.05543 0.0
C4652 C 0.27948 0.6777 0.07287 0.0
C4653 C 0.31857 0.72116 0.06487 0.0
C4654 C 0.29669 0.68055 0.08117 0.0
C4655 C 0.28628 0.68084 0.09092 0.0
C4656 C 0.25821 0.67759 0.0929 0.0
C4657 C 0.24105 0.67394 0.08465 0.0
C4658 C 0.25142 0.67404 0.07489 0.0
H4659 H 0.3247 0.7388 0.06027 0.0
H4660 H 0.30227 0.72794 0.06997 0.0
H4661 H 0.33663 0.71493 0.06924 0.0
H4662 H 0.31847 0.68231 0.08017 0.0
H4663 H 0.30044 0.68338 0.09696 0.0
H4664 H 0.17863 0.63121 0.76908 0.0
H4665 H 0.17879 0.61314 0.78596 0.0
H4666 H 0.16662 0.53229 0.77468 0.0
H4667 H 0.16613 0.55027 0.75783 0.0
H4668 H 0.13842 0.58362 0.7968 0.0
H4669 H 0.23142 0.52036 0.79338 0.0
H4670 H 0.22297 0.54665 0.78462 0.0
H4671 H 0.20604 0.51431 0.78412 0.0
C4672 C 0.1761 0.60953 0.77014 0.0
C4673 C 0.1725 0.59239 0.76189 0.0
C4674 C 0.17612 0.59912 0.7799 0.0
C4675 C 0.17308 0.57103 0.78185 0.0
C4676 C 0.16952 0.55391 0.7736 0.0
H4677 H 0.17678 0.46711 0.83569 0.0
H4678 H 0.1767 0.48552 0.81891 0.0
C4679 C 0.16912 0.56434 0.76386 0.0
C4680 C 0.17309 0.55983 0.7924 0.0
H4681 H 0.20608 0.51545 0.80804 0.0
C4682 C 0.15337 0.56881 0.79923 0.0
C4683 C 0.19222 0.54017 0.79581 0.0
C4684 C 0.21454 0.52989 0.78916 0.0
C4685 C 0.15182 0.5585 0.80902 0.0
C4686 C 0.17126 0.53911 0.81252 0.0
C4687 C 0.19103 0.5302 0.80566 0.0
C4688 C 0.17137 0.5277 0.82311 0.0
C4689 C 0.12837 0.56787 0.81535 0.0
C4690 C 0.16892 0.54467 0.83148 0.0
C4691 C 0.16853 0.53397 0.84118 0.0
C4692 C 0.17126 0.5058 0.84304 0.0
C4693 C 0.17453 0.48886 0.83472 0.0
C4694 C 0.17454 0.49954 0.825 0.0
H4695 H 0.11077 0.5745 0.8108 0.0
H4696 H 0.12139 0.55153 0.82037 0.0
H4697 H 0.13492 0.5856 0.8198 0.0
H4698 H 0.16755 0.56648 0.83057 0.0
H4699 H 0.16629 0.54797 0.84728 0.0
H4700 H 0.21877 0.42941 0.51871 0.0
H4701 H 0.23666 0.42974 0.5356 0.0
H4702 H 0.31801 0.41906 0.52443 0.0
H4703 H 0.30019 0.41841 0.50755 0.0
H4704 H 0.26681 0.38989 0.54642 0.0
H4705 H 0.32828 0.48381 0.54324 0.0
H4706 H 0.30228 0.47501 0.53441 0.0
H4707 H 0.33501 0.45861 0.53398 0.0
C4708 C 0.24052 0.42722 0.5198 0.0
C4709 C 0.25785 0.424 0.51156 0.0
C4710 C 0.25083 0.42736 0.52956 0.0
C4711 C 0.27898 0.42479 0.53155 0.0
C4712 C 0.29632 0.42159 0.52332 0.0
H4713 H 0.3814 0.42996 0.58577 0.0
H4714 H 0.36354 0.42962 0.56891 0.0
C4715 C 0.28599 0.42109 0.51356 0.0
C4716 C 0.29001 0.42492 0.54212 0.0
H4717 H 0.33326 0.45862 0.55793 0.0
C4718 C 0.28126 0.40506 0.5489 0.0
C4719 C 0.30918 0.44436 0.5456 0.0
C4720 C 0.31915 0.46683 0.53898 0.0
C4721 C 0.29132 0.40369 0.55874 0.0
C4722 C 0.31019 0.42345 0.56231 0.0
C4723 C 0.3189 0.44333 0.55548 0.0
C4724 C 0.32126 0.42376 0.57293 0.0
C4725 C 0.28226 0.38013 0.56503 0.0
C4726 C 0.30401 0.42111 0.58122 0.0
C4727 C 0.3144 0.42089 0.59097 0.0
C4728 C 0.34249 0.42397 0.59295 0.0
C4729 C 0.35969 0.42744 0.5847 0.0
C4730 C 0.34934 0.4273 0.57494 0.0
H4731 H 0.27614 0.36243 0.56046 0.0
H4732 H 0.29863 0.37345 0.57012 0.0
H4733 H 0.26423 0.38636 0.56941 0.0
H4734 H 0.28222 0.41945 0.58022 0.0
H4735 H 0.30022 0.41848 0.597 0.0
loop_
_geom_bond_atom_site_label_1
_geom_bond_atom_site_label_2
_geom_bond_distance
_geom_bond_site_symmetry_2
_ccdc_geom_bond_type
Nd0 C2 2.836 . S
Nd0 O20 2.500 . S
Nd0 O21 2.492 . S
Nd0 O22 2.487 . S
Nd0 O23 2.682 . S
Nd0 O24 2.410 . S
Nd0 O29 2.414 . S
Nd0 O31 2.424 . S
Nd1 C11 2.836 . S
Nd1 O23 2.414 . S
Nd1 O25 2.424 . S
Nd1 O26 2.500 . S
Nd1 O27 2.492 . S
Nd1 O28 2.487 . S
Nd1 O29 2.682 . S
Nd1 O30 2.410 . S
C2 Nd0 2.836 . S
C2 C3 1.498 . S
C2 O20 1.258 . S
C2 O21 1.239 . S
C3 C2 1.498 . S
C3 C4 1.366 . S
C3 C8 1.407 . S
C4 C3 1.366 . S
C4 C5 1.392 . S
C4 H32 0.930 . S
C5 C4 1.392 . S
C5 C6 1.398 . S
C5 H33 0.929 . S
C6 C5 1.398 . S
C6 C7 1.352 . S
C7 C6 1.352 . S
C7 C8 1.384 . S
C7 H34 0.930 . S
C8 C3 1.407 . S
C8 C7 1.384 . S
C8 H35 0.929 . S
C9 O22 1.241 . S
C9 O23 1.273 . S
C10 O24 1.251 . S
C10 O25 1.268 . S
C11 Nd1 2.836 . S
C11 C12 1.498 . S
C11 O26 1.258 . S
C11 O27 1.239 . S
C12 C11 1.498 . S
C12 C13 1.366 . S
C12 C17 1.407 . S
C13 C12 1.366 . S
C13 C14 1.392 . S
C13 H36 0.930 . S
C14 C13 1.392 . S
C14 C15 1.398 . S
C14 H37 0.929 . S
C15 C14 1.398 . S
C15 C16 1.352 . S
C16 C15 1.352 . S
C16 C17 1.384 . S
C16 H38 0.930 . S
C17 C12 1.407 . S
C17 C16 1.384 . S
C17 H39 0.929 . S
C18 O28 1.241 . S
C18 O29 1.273 . S
C19 O30 1.251 . S
C19 O31 1.268 . S
O20 Nd0 2.500 . S
O20 C2 1.258 . S
O21 Nd0 2.492 . S
O21 C2 1.239 . S
O22 Nd0 2.487 . S
O22 C9 1.241 . S
O23 Nd0 2.682 . S
O23 Nd1 2.414 . S
O23 C9 1.273 . S
O24 Nd0 2.410 . S
O24 C10 1.251 . S
O25 Nd1 2.424 . S
O25 C10 1.268 . S
O26 Nd1 2.500 . S
O26 C11 1.258 . S
O27 Nd1 2.492 . S
O27 C11 1.239 . S
O28 Nd1 2.487 . S
O28 C18 1.241 . S
O29 Nd0 2.414 . S
O29 Nd1 2.682 . S
O29 C18 1.273 . S
O30 Nd1 2.410 . S
O30 C19 1.251 . S
O31 Nd0 2.424 . S
O31 C19 1.268 . S
H32 C4 0.930 . S
H33 C5 0.929 . S
H34 C7 0.930 . S
H35 C8 0.929 . S
H36 C13 0.930 . S
H37 C14 0.929 . S
H38 C16 0.930 . S
H39 C17 0.929 . S
Nd40 C42 2.836 . S
Nd40 O60 2.500 . S
Nd40 O61 2.492 . S
Nd40 O62 2.487 . S
Nd40 O63 2.682 . S
Nd40 O64 2.410 . S
Nd40 O69 2.414 . S
Nd40 O71 2.424 . S
Nd41 C51 2.836 . S
Nd41 O63 2.414 . S
Nd41 O65 2.424 . S
Nd41 O66 2.500 . S
Nd41 O67 2.492 . S
Nd41 O68 2.487 . S
Nd41 O69 2.682 . S
Nd41 O70 2.410 . S
C42 Nd40 2.836 . S
C42 C43 1.498 . S
C42 O60 1.258 . S
C42 O61 1.239 . S
C43 C42 1.498 . S
C43 C44 1.366 . S
C43 C48 1.407 . S
C44 C43 1.366 . S
C44 C45 1.392 . S
C44 H72 0.930 . S
C45 C44 1.392 . S
C45 C46 1.398 . S
C45 H73 0.929 . S
C46 C45 1.398 . S
C46 C47 1.352 . S
C47 C46 1.352 . S
C47 C48 1.384 . S
C47 H74 0.930 . S
C48 C43 1.407 . S
C48 C47 1.384 . S
C48 H75 0.929 . S
C49 O62 1.241 . S
C49 O63 1.273 . S
C50 O64 1.251 . S
C50 O65 1.268 . S
C51 Nd41 2.836 . S
C51 C52 1.498 . S
C51 O66 1.258 . S
C51 O67 1.239 . S
C52 C51 1.498 . S
C52 C53 1.366 . S
C52 C57 1.407 . S
C53 C52 1.366 . S
C53 C54 1.392 . S
C53 H76 0.930 . S
C54 C53 1.392 . S
C54 C55 1.398 . S
C54 H77 0.929 . S
C55 C54 1.398 . S
C55 C56 1.352 . S
C56 C55 1.352 . S
C56 C57 1.384 . S
C56 H78 0.930 . S
C57 C52 1.407 . S
C57 C56 1.384 . S
C57 H79 0.929 . S
C58 O68 1.241 . S
C58 O69 1.273 . S
C59 O70 1.251 . S
C59 O71 1.268 . S
O60 Nd40 2.500 . S
O60 C42 1.258 . S
O61 Nd40 2.492 . S
O61 C42 1.239 . S
O62 Nd40 2.487 . S
O62 C49 1.241 . S
O63 Nd40 2.682 . S
O63 Nd41 2.414 . S
O63 C49 1.273 . S
O64 Nd40 2.410 . S
O64 C50 1.251 . S
O65 Nd41 2.424 . S
O65 C50 1.268 . S
O66 Nd41 2.500 . S
O66 C51 1.258 . S
O67 Nd41 2.492 . S
O67 C51 1.239 . S
O68 Nd41 2.487 . S
O68 C58 1.241 . S
O69 Nd40 2.414 . S
O69 Nd41 2.682 . S
O69 C58 1.273 . S
O70 Nd41 2.410 . S
O70 C59 1.251 . S
O71 Nd40 2.424 . S
O71 C59 1.268 . S
H72 C44 0.930 . S
H73 C45 0.929 . S
H74 C47 0.930 . S
H75 C48 0.929 . S
H76 C53 0.930 . S
H77 C54 0.929 . S
H78 C56 0.930 . S
H79 C57 0.929 . S
Nd80 C82 2.836 . S
Nd80 O100 2.500 . S
Nd80 O101 2.492 . S
Nd80 O102 2.487 . S
Nd80 O103 2.682 . S
Nd80 O104 2.410 . S
Nd80 O109 2.414 . S
Nd80 O111 2.424 . S
Nd81 C91 2.836 . S
Nd81 O103 2.414 . S
Nd81 O105 2.424 . S
Nd81 O106 2.500 . S
Nd81 O107 2.492 . S
Nd81 O108 2.487 . S
Nd81 O109 2.682 . S
Nd81 O110 2.410 . S
C82 Nd80 2.836 . S
C82 C83 1.498 . S
C82 O100 1.258 . S
C82 O101 1.239 . S
C83 C82 1.498 . S
C83 C84 1.366 . S
C83 C88 1.407 . S
C84 C83 1.366 . S
C84 C85 1.392 . S
C84 H112 0.930 . S
C85 C84 1.392 . S
C85 C86 1.398 . S
C85 H113 0.929 . S
C86 C85 1.398 . S
C86 C87 1.352 . S
C87 C86 1.352 . S
C87 C88 1.384 . S
C87 H114 0.930 . S
C88 C83 1.407 . S
C88 C87 1.384 . S
C88 H115 0.929 . S
C89 O102 1.241 . S
C89 O103 1.273 . S
C90 O104 1.251 . S
C90 O105 1.268 . S
C91 Nd81 2.836 . S
C91 C92 1.498 . S
C91 O106 1.258 . S
C91 O107 1.239 . S
C92 C91 1.498 . S
C92 C93 1.366 . S
C92 C97 1.407 . S
C93 C92 1.366 . S
C93 C94 1.392 . S
C93 H116 0.930 . S
C94 C93 1.392 . S
C94 C95 1.398 . S
C94 H117 0.929 . S
C95 C94 1.398 . S
C95 C96 1.352 . S
C96 C95 1.352 . S
C96 C97 1.384 . S
C96 H118 0.930 . S
C97 C92 1.407 . S
C97 C96 1.384 . S
C97 H119 0.929 . S
C98 O108 1.241 . S
C98 O109 1.273 . S
C99 O110 1.251 . S
C99 O111 1.268 . S
O100 Nd80 2.500 . S
O100 C82 1.258 . S
O101 Nd80 2.492 . S
O101 C82 1.239 . S
O102 Nd80 2.487 . S
O102 C89 1.241 . S
O103 Nd80 2.682 . S
O103 Nd81 2.414 . S
O103 C89 1.273 . S
O104 Nd80 2.410 . S
O104 C90 1.251 . S
O105 Nd81 2.424 . S
O105 C90 1.268 . S
O106 Nd81 2.500 . S
O106 C91 1.258 . S
O107 Nd81 2.492 . S
O107 C91 1.239 . S
O108 Nd81 2.487 . S
O108 C98 1.241 . S
O109 Nd80 2.414 . S
O109 Nd81 2.682 . S
O109 C98 1.273 . S
O110 Nd81 2.410 . S
O110 C99 1.251 . S
O111 Nd80 2.424 . S
O111 C99 1.268 . S
H112 C84 0.930 . S
H113 C85 0.929 . S
H114 C87 0.930 . S
H115 C88 0.929 . S
H116 C93 0.930 . S
H117 C94 0.929 . S
H118 C96 0.930 . S
H119 C97 0.929 . S
Nd120 C122 2.836 . S
Nd120 O140 2.500 . S
Nd120 O141 2.492 . S
Nd120 O142 2.487 . S
Nd120 O143 2.682 . S
Nd120 O144 2.410 . S
Nd120 O149 2.414 . S
Nd120 O151 2.424 . S
Nd121 C131 2.836 . S
Nd121 O143 2.414 . S
Nd121 O145 2.424 . S
Nd121 O146 2.500 . S
Nd121 O147 2.492 . S
Nd121 O148 2.487 . S
Nd121 O149 2.682 . S
Nd121 O150 2.410 . S
C122 Nd120 2.836 . S
C122 C123 1.498 . S
C122 O140 1.258 . S
C122 O141 1.239 . S
C123 C122 1.498 . S
C123 C124 1.366 . S
C123 C128 1.407 . S
C124 C123 1.366 . S
C124 C125 1.392 . S
C124 H152 0.930 . S
C125 C124 1.392 . S
C125 C126 1.398 . S
C125 H153 0.929 . S
C126 C125 1.398 . S
C126 C127 1.352 . S
C127 C126 1.352 . S
C127 C128 1.384 . S
C127 H154 0.930 . S
C128 C123 1.407 . S
C128 C127 1.384 . S
C128 H155 0.929 . S
C129 O142 1.241 . S
C129 O143 1.273 . S
C130 O144 1.251 . S
C130 O145 1.268 . S
C131 Nd121 2.836 . S
C131 C132 1.498 . S
C131 O146 1.258 . S
C131 O147 1.239 . S
C132 C131 1.498 . S
C132 C133 1.366 . S
C132 C137 1.407 . S
C133 C132 1.366 . S
C133 C134 1.392 . S
C133 H156 0.930 . S
C134 C133 1.392 . S
C134 C135 1.398 . S
C134 H157 0.929 . S
C135 C134 1.398 . S
C135 C136 1.352 . S
C136 C135 1.352 . S
C136 C137 1.384 . S
C136 H158 0.930 . S
C137 C132 1.407 . S
C137 C136 1.384 . S
C137 H159 0.929 . S
C138 O148 1.241 . S
C138 O149 1.273 . S
C139 O150 1.251 . S
C139 O151 1.268 . S
O140 Nd120 2.500 . S
O140 C122 1.258 . S
O141 Nd120 2.492 . S
O141 C122 1.239 . S
O142 Nd120 2.487 . S
O142 C129 1.241 . S
O143 Nd120 2.682 . S
O143 Nd121 2.414 . S
O143 C129 1.273 . S
O144 Nd120 2.410 . S
O144 C130 1.251 . S
O145 Nd121 2.424 . S
O145 C130 1.268 . S
O146 Nd121 2.500 . S
O146 C131 1.258 . S
O147 Nd121 2.492 . S
O147 C131 1.239 . S
O148 Nd121 2.487 . S
O148 C138 1.241 . S
O149 Nd120 2.414 . S
O149 Nd121 2.682 . S
O149 C138 1.273 . S
O150 Nd121 2.410 . S
O150 C139 1.251 . S
O151 Nd120 2.424 . S
O151 C139 1.268 . S
H152 C124 0.930 . S
H153 C125 0.929 . S
H154 C127 0.930 . S
H155 C128 0.929 . S
H156 C133 0.930 . S
H157 C134 0.929 . S
H158 C136 0.930 . S
H159 C137 0.929 . S
Nd160 C162 2.836 . S
Nd160 O180 2.500 . S
Nd160 O181 2.492 . S
Nd160 O182 2.487 . S
Nd160 O183 2.682 . S
Nd160 O184 2.410 . S
Nd160 O189 2.414 . S
Nd160 O191 2.424 . S
Nd161 C171 2.836 . S
Nd161 O183 2.414 . S
Nd161 O185 2.424 . S
Nd161 O186 2.500 . S
Nd161 O187 2.492 . S
Nd161 O188 2.487 . S
Nd161 O189 2.682 . S
Nd161 O190 2.410 . S
C162 Nd160 2.836 . S
C162 C163 1.498 . S
C162 O180 1.258 . S
C162 O181 1.239 . S
C163 C162 1.498 . S
C163 C164 1.366 . S
C163 C168 1.407 . S
C164 C163 1.366 . S
C164 C165 1.392 . S
C164 H192 0.930 . S
C165 C164 1.392 . S
C165 C166 1.398 . S
C165 H193 0.929 . S
C166 C165 1.398 . S
C166 C167 1.352 . S
C167 C166 1.352 . S
C167 C168 1.384 . S
C167 H194 0.930 . S
C168 C163 1.407 . S
C168 C167 1.384 . S
C168 H195 0.929 . S
C169 O182 1.241 . S
C169 O183 1.273 . S
C170 O184 1.251 . S
C170 O185 1.268 . S
C171 Nd161 2.836 . S
C171 C172 1.498 . S
C171 O186 1.258 . S
C171 O187 1.239 . S
C172 C171 1.498 . S
C172 C173 1.366 . S
C172 C177 1.407 . S
C173 C172 1.366 . S
C173 C174 1.392 . S
C173 H196 0.930 . S
C174 C173 1.392 . S
C174 C175 1.398 . S
C174 H197 0.929 . S
C175 C174 1.398 . S
C175 C176 1.352 . S
C176 C175 1.352 . S
C176 C177 1.384 . S
C176 H198 0.930 . S
C177 C172 1.407 . S
C177 C176 1.384 . S
C177 H199 0.929 . S
C178 O188 1.241 . S
C178 O189 1.273 . S
C179 O190 1.251 . S
C179 O191 1.268 . S
O180 Nd160 2.500 . S
O180 C162 1.258 . S
O181 Nd160 2.492 . S
O181 C162 1.239 . S
O182 Nd160 2.487 . S
O182 C169 1.241 . S
O183 Nd160 2.682 . S
O183 Nd161 2.414 . S
O183 C169 1.273 . S
O184 Nd160 2.410 . S
O184 C170 1.251 . S
O185 Nd161 2.424 . S
O185 C170 1.268 . S
O186 Nd161 2.500 . S
O186 C171 1.258 . S
O187 Nd161 2.492 . S
O187 C171 1.239 . S
O188 Nd161 2.487 . S
O188 C178 1.241 . S
O189 Nd160 2.414 . S
O189 Nd161 2.682 . S
O189 C178 1.273 . S
O190 Nd161 2.410 . S
O190 C179 1.251 . S
O191 Nd160 2.424 . S
O191 C179 1.268 . S
H192 C164 0.930 . S
H193 C165 0.929 . S
H194 C167 0.930 . S
H195 C168 0.929 . S
H196 C173 0.930 . S
H197 C174 0.929 . S
H198 C176 0.930 . S
H199 C177 0.929 . S
Nd200 C202 2.836 . S
Nd200 O220 2.500 . S
Nd200 O221 2.492 . S
Nd200 O222 2.487 . S
Nd200 O223 2.682 . S
Nd200 O224 2.410 . S
Nd200 O229 2.414 . S
Nd200 O231 2.424 . S
Nd201 C211 2.836 . S
Nd201 O223 2.414 . S
Nd201 O225 2.424 . S
Nd201 O226 2.500 . S
Nd201 O227 2.492 . S
Nd201 O228 2.487 . S
Nd201 O229 2.682 . S
Nd201 O230 2.410 . S
C202 Nd200 2.836 . S
C202 C203 1.498 . S
C202 O220 1.258 . S
C202 O221 1.239 . S
C203 C202 1.498 . S
C203 C204 1.366 . S
C203 C208 1.407 . S
C204 C203 1.366 . S
C204 C205 1.392 . S
C204 H232 0.930 . S
C205 C204 1.392 . S
C205 C206 1.398 . S
C205 H233 0.929 . S
C206 C205 1.398 . S
C206 C207 1.352 . S
C207 C206 1.352 . S
C207 C208 1.384 . S
C207 H234 0.930 . S
C208 C203 1.407 . S
C208 C207 1.384 . S
C208 H235 0.929 . S
C209 O222 1.241 . S
C209 O223 1.273 . S
C210 O224 1.251 . S
C210 O225 1.268 . S
C211 Nd201 2.836 . S
C211 C212 1.498 . S
C211 O226 1.258 . S
C211 O227 1.239 . S
C212 C211 1.498 . S
C212 C213 1.366 . S
C212 C217 1.407 . S
C213 C212 1.366 . S
C213 C214 1.392 . S
C213 H236 0.930 . S
C214 C213 1.392 . S
C214 C215 1.398 . S
C214 H237 0.929 . S
C215 C214 1.398 . S
C215 C216 1.352 . S
C216 C215 1.352 . S
C216 C217 1.384 . S
C216 H238 0.930 . S
C217 C212 1.407 . S
C217 C216 1.384 . S
C217 H239 0.929 . S
C218 O228 1.241 . S
C218 O229 1.273 . S
C219 O230 1.251 . S
C219 O231 1.268 . S
O220 Nd200 2.500 . S
O220 C202 1.258 . S
O221 Nd200 2.492 . S
O221 C202 1.239 . S
O222 Nd200 2.487 . S
O222 C209 1.241 . S
O223 Nd200 2.682 . S
O223 Nd201 2.414 . S
O223 C209 1.273 . S
O224 Nd200 2.410 . S
O224 C210 1.251 . S
O225 Nd201 2.424 . S
O225 C210 1.268 . S
O226 Nd201 2.500 . S
O226 C211 1.258 . S
O227 Nd201 2.492 . S
O227 C211 1.239 . S
O228 Nd201 2.487 . S
O228 C218 1.241 . S
O229 Nd200 2.414 . S
O229 Nd201 2.682 . S
O229 C218 1.273 . S
O230 Nd201 2.410 . S
O230 C219 1.251 . S
O231 Nd200 2.424 . S
O231 C219 1.268 . S
H232 C204 0.930 . S
H233 C205 0.929 . S
H234 C207 0.930 . S
H235 C208 0.929 . S
H236 C213 0.930 . S
H237 C214 0.929 . S
H238 C216 0.930 . S
H239 C217 0.929 . S
Nd240 C242 2.836 . S
Nd240 O260 2.500 . S
Nd240 O261 2.492 . S
Nd240 O262 2.487 . S
Nd240 O263 2.682 . S
Nd240 O264 2.410 . S
Nd240 O269 2.414 . S
Nd240 O271 2.424 . S
Nd241 C251 2.836 . S
Nd241 O263 2.414 . S
Nd241 O265 2.424 . S
Nd241 O266 2.500 . S
Nd241 O267 2.492 . S
Nd241 O268 2.487 . S
Nd241 O269 2.682 . S
Nd241 O270 2.410 . S
C242 Nd240 2.836 . S
C242 C243 1.498 . S
C242 O260 1.258 . S
C242 O261 1.239 . S
C243 C242 1.498 . S
C243 C244 1.366 . S
C243 C248 1.407 . S
C244 C243 1.366 . S
C244 C245 1.392 . S
C244 H272 0.930 . S
C245 C244 1.392 . S
C245 C246 1.398 . S
C245 H273 0.929 . S
C246 C245 1.398 . S
C246 C247 1.352 . S
C247 C246 1.352 . S
C247 C248 1.384 . S
C247 H274 0.930 . S
C248 C243 1.407 . S
C248 C247 1.384 . S
C248 H275 0.929 . S
C249 O262 1.241 . S
C249 O263 1.273 . S
C250 O264 1.251 . S
C250 O265 1.268 . S
C251 Nd241 2.836 . S
C251 C252 1.498 . S
C251 O266 1.258 . S
C251 O267 1.239 . S
C252 C251 1.498 . S
C252 C253 1.366 . S
C252 C257 1.407 . S
C253 C252 1.366 . S
C253 C254 1.392 . S
C253 H276 0.930 . S
C254 C253 1.392 . S
C254 C255 1.398 . S
C254 H277 0.929 . S
C255 C254 1.398 . S
C255 C256 1.352 . S
C256 C255 1.352 . S
C256 C257 1.384 . S
C256 H278 0.930 . S
C257 C252 1.407 . S
C257 C256 1.384 . S
C257 H279 0.929 . S
C258 O268 1.241 . S
C258 O269 1.273 . S
C259 O270 1.251 . S
C259 O271 1.268 . S
O260 Nd240 2.500 . S
O260 C242 1.258 . S
O261 Nd240 2.492 . S
O261 C242 1.239 . S
O262 Nd240 2.487 . S
O262 C249 1.241 . S
O263 Nd240 2.682 . S
O263 Nd241 2.414 . S
O263 C249 1.273 . S
O264 Nd240 2.410 . S
O264 C250 1.251 . S
O265 Nd241 2.424 . S
O265 C250 1.268 . S
O266 Nd241 2.500 . S
O266 C251 1.258 . S
O267 Nd241 2.492 . S
O267 C251 1.239 . S
O268 Nd241 2.487 . S
O268 C258 1.241 . S
O269 Nd240 2.414 . S
O269 Nd241 2.682 . S
O269 C258 1.273 . S
O270 Nd241 2.410 . S
O270 C259 1.251 . S
O271 Nd240 2.424 . S
O271 C259 1.268 . S
H272 C244 0.930 . S
H273 C245 0.929 . S
H274 C247 0.930 . S
H275 C248 0.929 . S
H276 C253 0.930 . S
H277 C254 0.929 . S
H278 C256 0.930 . S
H279 C257 0.929 . S
Nd280 C282 2.836 . S
Nd280 O300 2.500 . S
Nd280 O301 2.492 . S
Nd280 O302 2.487 . S
Nd280 O303 2.682 . S
Nd280 O304 2.410 . S
Nd280 O309 2.414 . S
Nd280 O311 2.424 . S
Nd281 C291 2.836 . S
Nd281 O303 2.414 . S
Nd281 O305 2.424 . S
Nd281 O306 2.500 . S
Nd281 O307 2.492 . S
Nd281 O308 2.487 . S
Nd281 O309 2.682 . S
Nd281 O310 2.410 . S
C282 Nd280 2.836 . S
C282 C283 1.498 . S
C282 O300 1.258 . S
C282 O301 1.239 . S
C283 C282 1.498 . S
C283 C284 1.366 . S
C283 C288 1.407 . S
C284 C283 1.366 . S
C284 C285 1.392 . S
C284 H312 0.930 . S
C285 C284 1.392 . S
C285 C286 1.398 . S
C285 H313 0.929 . S
C286 C285 1.398 . S
C286 C287 1.352 . S
C287 C286 1.352 . S
C287 C288 1.384 . S
C287 H314 0.930 . S
C288 C283 1.407 . S
C288 C287 1.384 . S
C288 H315 0.929 . S
C289 O302 1.241 . S
C289 O303 1.273 . S
C290 O304 1.251 . S
C290 O305 1.268 . S
C291 Nd281 2.836 . S
C291 C292 1.498 . S
C291 O306 1.258 . S
C291 O307 1.239 . S
C292 C291 1.498 . S
C292 C293 1.366 . S
C292 C297 1.407 . S
C293 C292 1.366 . S
C293 C294 1.392 . S
C293 H316 0.930 . S
C294 C293 1.392 . S
C294 C295 1.398 . S
C294 H317 0.929 . S
C295 C294 1.398 . S
C295 C296 1.352 . S
C296 C295 1.352 . S
C296 C297 1.384 . S
C296 H318 0.930 . S
C297 C292 1.407 . S
C297 C296 1.384 . S
C297 H319 0.929 . S
C298 O308 1.241 . S
C298 O309 1.273 . S
C299 O310 1.251 . S
C299 O311 1.268 . S
O300 Nd280 2.500 . S
O300 C282 1.258 . S
O301 Nd280 2.492 . S
O301 C282 1.239 . S
O302 Nd280 2.487 . S
O302 C289 1.241 . S
O303 Nd280 2.682 . S
O303 Nd281 2.414 . S
O303 C289 1.273 . S
O304 Nd280 2.410 . S
O304 C290 1.251 . S
O305 Nd281 2.424 . S
O305 C290 1.268 . S
O306 Nd281 2.500 . S
O306 C291 1.258 . S
O307 Nd281 2.492 . S
O307 C291 1.239 . S
O308 Nd281 2.487 . S
O308 C298 1.241 . S
O309 Nd280 2.414 . S
O309 Nd281 2.682 . S
O309 C298 1.273 . S
O310 Nd281 2.410 . S
O310 C299 1.251 . S
O311 Nd280 2.424 . S
O311 C299 1.268 . S
H312 C284 0.930 . S
H313 C285 0.929 . S
H314 C287 0.930 . S
H315 C288 0.929 . S
H316 C293 0.930 . S
H317 C294 0.929 . S
H318 C296 0.930 . S
H319 C297 0.929 . S
Nd320 C322 2.836 . S
Nd320 O340 2.500 . S
Nd320 O341 2.492 . S
Nd320 O342 2.487 . S
Nd320 O343 2.682 . S
Nd320 O344 2.410 . S
Nd320 O349 2.414 . S
Nd320 O351 2.424 . S
Nd321 C331 2.836 . S
Nd321 O343 2.414 . S
Nd321 O345 2.424 . S
Nd321 O346 2.500 . S
Nd321 O347 2.492 . S
Nd321 O348 2.487 . S
Nd321 O349 2.682 . S
Nd321 O350 2.410 . S
C322 Nd320 2.836 . S
C322 C323 1.498 . S
C322 O340 1.258 . S
C322 O341 1.239 . S
C323 C322 1.498 . S
C323 C324 1.366 . S
C323 C328 1.407 . S
C324 C323 1.366 . S
C324 C325 1.392 . S
C324 H352 0.930 . S
C325 C324 1.392 . S
C325 C326 1.398 . S
C325 H353 0.929 . S
C326 C325 1.398 . S
C326 C327 1.352 . S
C327 C326 1.352 . S
C327 C328 1.384 . S
C327 H354 0.930 . S
C328 C323 1.407 . S
C328 C327 1.384 . S
C328 H355 0.929 . S
C329 O342 1.241 . S
C329 O343 1.273 . S
C330 O344 1.251 . S
C330 O345 1.268 . S
C331 Nd321 2.836 . S
C331 C332 1.498 . S
C331 O346 1.258 . S
C331 O347 1.239 . S
C332 C331 1.498 . S
C332 C333 1.366 . S
C332 C337 1.407 . S
C333 C332 1.366 . S
C333 C334 1.392 . S
C333 H356 0.930 . S
C334 C333 1.392 . S
C334 C335 1.398 . S
C334 H357 0.929 . S
C335 C334 1.398 . S
C335 C336 1.352 . S
C336 C335 1.352 . S
C336 C337 1.384 . S
C336 H358 0.930 . S
C337 C332 1.407 . S
C337 C336 1.384 . S
C337 H359 0.929 . S
C338 O348 1.241 . S
C338 O349 1.273 . S
C339 O350 1.251 . S
C339 O351 1.268 . S
O340 Nd320 2.500 . S
O340 C322 1.258 . S
O341 Nd320 2.492 . S
O341 C322 1.239 . S
O342 Nd320 2.487 . S
O342 C329 1.241 . S
O343 Nd320 2.682 . S
O343 Nd321 2.414 . S
O343 C329 1.273 . S
O344 Nd320 2.410 . S
O344 C330 1.251 . S
O345 Nd321 2.424 . S
O345 C330 1.268 . S
O346 Nd321 2.500 . S
O346 C331 1.258 . S
O347 Nd321 2.492 . S
O347 C331 1.239 . S
O348 Nd321 2.487 . S
O348 C338 1.241 . S
O349 Nd320 2.414 . S
O349 Nd321 2.682 . S
O349 C338 1.273 . S
O350 Nd321 2.410 . S
O350 C339 1.251 . S
O351 Nd320 2.424 . S
O351 C339 1.268 . S
H352 C324 0.930 . S
H353 C325 0.929 . S
H354 C327 0.930 . S
H355 C328 0.929 . S
H356 C333 0.930 . S
H357 C334 0.929 . S
H358 C336 0.930 . S
H359 C337 0.929 . S
Nd360 C362 2.836 . S
Nd360 O380 2.500 . S
Nd360 O381 2.492 . S
Nd360 O382 2.487 . S
Nd360 O383 2.682 . S
Nd360 O384 2.410 . S
Nd360 O389 2.414 . S
Nd360 O391 2.424 . S
Nd361 C371 2.836 . S
Nd361 O383 2.414 . S
Nd361 O385 2.424 . S
Nd361 O386 2.500 . S
Nd361 O387 2.492 . S
Nd361 O388 2.487 . S
Nd361 O389 2.682 . S
Nd361 O390 2.410 . S
C362 Nd360 2.836 . S
C362 C363 1.498 . S
C362 O380 1.258 . S
C362 O381 1.239 . S
C363 C362 1.498 . S
C363 C364 1.366 . S
C363 C368 1.407 . S
C364 C363 1.366 . S
C364 C365 1.392 . S
C364 H392 0.930 . S
C365 C364 1.392 . S
C365 C366 1.398 . S
C365 H393 0.929 . S
C366 C365 1.398 . S
C366 C367 1.352 . S
C367 C366 1.352 . S
C367 C368 1.384 . S
C367 H394 0.930 . S
C368 C363 1.407 . S
C368 C367 1.384 . S
C368 H395 0.929 . S
C369 O382 1.241 . S
C369 O383 1.273 . S
C370 O384 1.251 . S
C370 O385 1.268 . S
C371 Nd361 2.836 . S
C371 C372 1.498 . S
C371 O386 1.258 . S
C371 O387 1.239 . S
C372 C371 1.498 . S
C372 C373 1.366 . S
C372 C377 1.407 . S
C373 C372 1.366 . S
C373 C374 1.392 . S
C373 H396 0.930 . S
C374 C373 1.392 . S
C374 C375 1.398 . S
C374 H397 0.929 . S
C375 C374 1.398 . S
C375 C376 1.352 . S
C376 C375 1.352 . S
C376 C377 1.384 . S
C376 H398 0.930 . S
C377 C372 1.407 . S
C377 C376 1.384 . S
C377 H399 0.929 . S
C378 O388 1.241 . S
C378 O389 1.273 . S
C379 O390 1.251 . S
C379 O391 1.268 . S
O380 Nd360 2.500 . S
O380 C362 1.258 . S
O381 Nd360 2.492 . S
O381 C362 1.239 . S
O382 Nd360 2.487 . S
O382 C369 1.241 . S
O383 Nd360 2.682 . S
O383 Nd361 2.414 . S
O383 C369 1.273 . S
O384 Nd360 2.410 . S
O384 C370 1.251 . S
O385 Nd361 2.424 . S
O385 C370 1.268 . S
O386 Nd361 2.500 . S
O386 C371 1.258 . S
O387 Nd361 2.492 . S
O387 C371 1.239 . S
O388 Nd361 2.487 . S
O388 C378 1.241 . S
O389 Nd360 2.414 . S
O389 Nd361 2.682 . S
O389 C378 1.273 . S
O390 Nd361 2.410 . S
O390 C379 1.251 . S
O391 Nd360 2.424 . S
O391 C379 1.268 . S
H392 C364 0.930 . S
H393 C365 0.929 . S
H394 C367 0.930 . S
H395 C368 0.929 . S
H396 C373 0.930 . S
H397 C374 0.929 . S
H398 C376 0.930 . S
H399 C377 0.929 . S
Nd400 C402 2.836 . S
Nd400 O420 2.500 . S
Nd400 O421 2.492 . S
Nd400 O422 2.487 . S
Nd400 O423 2.682 . S
Nd400 O424 2.410 . S
Nd400 O429 2.414 . S
Nd400 O431 2.424 . S
Nd401 C411 2.836 . S
Nd401 O423 2.414 . S
Nd401 O425 2.424 . S
Nd401 O426 2.500 . S
Nd401 O427 2.492 . S
Nd401 O428 2.487 . S
Nd401 O429 2.682 . S
Nd401 O430 2.410 . S
C402 Nd400 2.836 . S
C402 C403 1.498 . S
C402 O420 1.258 . S
C402 O421 1.239 . S
C403 C402 1.498 . S
C403 C404 1.366 . S
C403 C408 1.407 . S
C404 C403 1.366 . S
C404 C405 1.392 . S
C404 H432 0.930 . S
C405 C404 1.392 . S
C405 C406 1.398 . S
C405 H433 0.929 . S
C406 C405 1.398 . S
C406 C407 1.352 . S
C407 C406 1.352 . S
C407 C408 1.384 . S
C407 H434 0.930 . S
C408 C403 1.407 . S
C408 C407 1.384 . S
C408 H435 0.929 . S
C409 O422 1.241 . S
C409 O423 1.273 . S
C410 O424 1.251 . S
C410 O425 1.268 . S
C411 Nd401 2.836 . S
C411 C412 1.498 . S
C411 O426 1.258 . S
C411 O427 1.239 . S
C412 C411 1.498 . S
C412 C413 1.366 . S
C412 C417 1.407 . S
C413 C412 1.366 . S
C413 C414 1.392 . S
C413 H436 0.930 . S
C414 C413 1.392 . S
C414 C415 1.398 . S
C414 H437 0.929 . S
C415 C414 1.398 . S
C415 C416 1.352 . S
C416 C415 1.352 . S
C416 C417 1.384 . S
C416 H438 0.930 . S
C417 C412 1.407 . S
C417 C416 1.384 . S
C417 H439 0.929 . S
C418 O428 1.241 . S
C418 O429 1.273 . S
C419 O430 1.251 . S
C419 O431 1.268 . S
O420 Nd400 2.500 . S
O420 C402 1.258 . S
O421 Nd400 2.492 . S
O421 C402 1.239 . S
O422 Nd400 2.487 . S
O422 C409 1.241 . S
O423 Nd400 2.682 . S
O423 Nd401 2.414 . S
O423 C409 1.273 . S
O424 Nd400 2.410 . S
O424 C410 1.251 . S
O425 Nd401 2.424 . S
O425 C410 1.268 . S
O426 Nd401 2.500 . S
O426 C411 1.258 . S
O427 Nd401 2.492 . S
O427 C411 1.239 . S
O428 Nd401 2.487 . S
O428 C418 1.241 . S
O429 Nd400 2.414 . S
O429 Nd401 2.682 . S
O429 C418 1.273 . S
O430 Nd401 2.410 . S
O430 C419 1.251 . S
O431 Nd400 2.424 . S
O431 C419 1.268 . S
H432 C404 0.930 . S
H433 C405 0.929 . S
H434 C407 0.930 . S
H435 C408 0.929 . S
H436 C413 0.930 . S
H437 C414 0.929 . S
H438 C416 0.930 . S
H439 C417 0.929 . S
Nd440 C442 2.836 . S
Nd440 O460 2.500 . S
Nd440 O461 2.492 . S
Nd440 O462 2.487 . S
Nd440 O463 2.682 . S
Nd440 O464 2.410 . S
Nd440 O469 2.414 . S
Nd440 O471 2.424 . S
Nd441 C451 2.836 . S
Nd441 O463 2.414 . S
Nd441 O465 2.424 . S
Nd441 O466 2.500 . S
Nd441 O467 2.492 . S
Nd441 O468 2.487 . S
Nd441 O469 2.682 . S
Nd441 O470 2.410 . S
C442 Nd440 2.836 . S
C442 C443 1.498 . S
C442 O460 1.258 . S
C442 O461 1.239 . S
C443 C442 1.498 . S
C443 C444 1.366 . S
C443 C448 1.407 . S
C444 C443 1.366 . S
C444 C445 1.392 . S
C444 H472 0.930 . S
C445 C444 1.392 . S
C445 C446 1.398 . S
C445 H473 0.929 . S
C446 C445 1.398 . S
C446 C447 1.352 . S
C447 C446 1.352 . S
C447 C448 1.384 . S
C447 H474 0.930 . S
C448 C443 1.407 . S
C448 C447 1.384 . S
C448 H475 0.929 . S
C449 O462 1.241 . S
C449 O463 1.273 . S
C450 O464 1.251 . S
C450 O465 1.268 . S
C451 Nd441 2.836 . S
C451 C452 1.498 . S
C451 O466 1.258 . S
C451 O467 1.239 . S
C452 C451 1.498 . S
C452 C453 1.366 . S
C452 C457 1.407 . S
C453 C452 1.366 . S
C453 C454 1.392 . S
C453 H476 0.930 . S
C454 C453 1.392 . S
C454 C455 1.398 . S
C454 H477 0.929 . S
C455 C454 1.398 . S
C455 C456 1.352 . S
C456 C455 1.352 . S
C456 C457 1.384 . S
C456 H478 0.930 . S
C457 C452 1.407 . S
C457 C456 1.384 . S
C457 H479 0.929 . S
C458 O468 1.241 . S
C458 O469 1.273 . S
C459 O470 1.251 . S
C459 O471 1.268 . S
O460 Nd440 2.500 . S
O460 C442 1.258 . S
O461 Nd440 2.492 . S
O461 C442 1.239 . S
O462 Nd440 2.487 . S
O462 C449 1.241 . S
O463 Nd440 2.682 . S
O463 Nd441 2.414 . S
O463 C449 1.273 . S
O464 Nd440 2.410 . S
O464 C450 1.251 . S
O465 Nd441 2.424 . S
O465 C450 1.268 . S
O466 Nd441 2.500 . S
O466 C451 1.258 . S
O467 Nd441 2.492 . S
O467 C451 1.239 . S
O468 Nd441 2.487 . S
O468 C458 1.241 . S
O469 Nd440 2.414 . S
O469 Nd441 2.682 . S
O469 C458 1.273 . S
O470 Nd441 2.410 . S
O470 C459 1.251 . S
O471 Nd440 2.424 . S
O471 C459 1.268 . S
H472 C444 0.930 . S
H473 C445 0.929 . S
H474 C447 0.930 . S
H475 C448 0.929 . S
H476 C453 0.930 . S
H477 C454 0.929 . S
H478 C456 0.930 . S
H479 C457 0.929 . S
Nd480 C482 2.836 . S
Nd480 O500 2.500 . S
Nd480 O501 2.492 . S
Nd480 O502 2.487 . S
Nd480 O503 2.682 . S
Nd480 O504 2.410 . S
Nd480 O509 2.414 . S
Nd480 O511 2.424 . S
Nd481 C491 2.836 . S
Nd481 O503 2.414 . S
Nd481 O505 2.424 . S
Nd481 O506 2.500 . S
Nd481 O507 2.492 . S
Nd481 O508 2.487 . S
Nd481 O509 2.682 . S
Nd481 O510 2.410 . S
C482 Nd480 2.836 . S
C482 C483 1.498 . S
C482 O500 1.258 . S
C482 O501 1.239 . S
C483 C482 1.498 . S
C483 C484 1.366 . S
C483 C488 1.407 . S
C484 C483 1.366 . S
C484 C485 1.392 . S
C484 H512 0.930 . S
C485 C484 1.392 . S
C485 C486 1.398 . S
C485 H513 0.929 . S
C486 C485 1.398 . S
C486 C487 1.352 . S
C487 C486 1.352 . S
C487 C488 1.384 . S
C487 H514 0.930 . S
C488 C483 1.407 . S
C488 C487 1.384 . S
C488 H515 0.929 . S
C489 O502 1.241 . S
C489 O503 1.273 . S
C490 O504 1.251 . S
C490 O505 1.268 . S
C491 Nd481 2.836 . S
C491 C492 1.498 . S
C491 O506 1.258 . S
C491 O507 1.239 . S
C492 C491 1.498 . S
C492 C493 1.366 . S
C492 C497 1.407 . S
C493 C492 1.366 . S
C493 C494 1.392 . S
C493 H516 0.930 . S
C494 C493 1.392 . S
C494 C495 1.398 . S
C494 H517 0.929 . S
C495 C494 1.398 . S
C495 C496 1.352 . S
C496 C495 1.352 . S
C496 C497 1.384 . S
C496 H518 0.930 . S
C497 C492 1.407 . S
C497 C496 1.384 . S
C497 H519 0.929 . S
C498 O508 1.241 . S
C498 O509 1.273 . S
C499 O510 1.251 . S
C499 O511 1.268 . S
O500 Nd480 2.500 . S
O500 C482 1.258 . S
O501 Nd480 2.492 . S
O501 C482 1.239 . S
O502 Nd480 2.487 . S
O502 C489 1.241 . S
O503 Nd480 2.682 . S
O503 Nd481 2.414 . S
O503 C489 1.273 . S
O504 Nd480 2.410 . S
O504 C490 1.251 . S
O505 Nd481 2.424 . S
O505 C490 1.268 . S
O506 Nd481 2.500 . S
O506 C491 1.258 . S
O507 Nd481 2.492 . S
O507 C491 1.239 . S
O508 Nd481 2.487 . S
O508 C498 1.241 . S
O509 Nd480 2.414 . S
O509 Nd481 2.682 . S
O509 C498 1.273 . S
O510 Nd481 2.410 . S
O510 C499 1.251 . S
O511 Nd480 2.424 . S
O511 C499 1.268 . S
H512 C484 0.930 . S
H513 C485 0.929 . S
H514 C487 0.930 . S
H515 C488 0.929 . S
H516 C493 0.930 . S
H517 C494 0.929 . S
H518 C496 0.930 . S
H519 C497 0.929 . S
Nd520 C522 2.836 . S
Nd520 O540 2.500 . S
Nd520 O541 2.492 . S
Nd520 O542 2.487 . S
Nd520 O543 2.682 . S
Nd520 O544 2.410 . S
Nd520 O549 2.414 . S
Nd520 O551 2.424 . S
Nd521 C531 2.836 . S
Nd521 O543 2.414 . S
Nd521 O545 2.424 . S
Nd521 O546 2.500 . S
Nd521 O547 2.492 . S
Nd521 O548 2.487 . S
Nd521 O549 2.682 . S
Nd521 O550 2.410 . S
C522 Nd520 2.836 . S
C522 C523 1.498 . S
C522 O540 1.258 . S
C522 O541 1.239 . S
C523 C522 1.498 . S
C523 C524 1.366 . S
C523 C528 1.407 . S
C524 C523 1.366 . S
C524 C525 1.392 . S
C524 H552 0.930 . S
C525 C524 1.392 . S
C525 C526 1.398 . S
C525 H553 0.929 . S
C526 C525 1.398 . S
C526 C527 1.352 . S
C527 C526 1.352 . S
C527 C528 1.384 . S
C527 H554 0.930 . S
C528 C523 1.407 . S
C528 C527 1.384 . S
C528 H555 0.929 . S
C529 O542 1.241 . S
C529 O543 1.273 . S
C530 O544 1.251 . S
C530 O545 1.268 . S
C531 Nd521 2.836 . S
C531 C532 1.498 . S
C531 O546 1.258 . S
C531 O547 1.239 . S
C532 C531 1.498 . S
C532 C533 1.366 . S
C532 C537 1.407 . S
C533 C532 1.366 . S
C533 C534 1.392 . S
C533 H556 0.930 . S
C534 C533 1.392 . S
C534 C535 1.398 . S
C534 H557 0.929 . S
C535 C534 1.398 . S
C535 C536 1.352 . S
C536 C535 1.352 . S
C536 C537 1.384 . S
C536 H558 0.930 . S
C537 C532 1.407 . S
C537 C536 1.384 . S
C537 H559 0.929 . S
C538 O548 1.241 . S
C538 O549 1.273 . S
C539 O550 1.251 . S
C539 O551 1.268 . S
O540 Nd520 2.500 . S
O540 C522 1.258 . S
O541 Nd520 2.492 . S
O541 C522 1.239 . S
O542 Nd520 2.487 . S
O542 C529 1.241 . S
O543 Nd520 2.682 . S
O543 Nd521 2.414 . S
O543 C529 1.273 . S
O544 Nd520 2.410 . S
O544 C530 1.251 . S
O545 Nd521 2.424 . S
O545 C530 1.268 . S
O546 Nd521 2.500 . S
O546 C531 1.258 . S
O547 Nd521 2.492 . S
O547 C531 1.239 . S
O548 Nd521 2.487 . S
O548 C538 1.241 . S
O549 Nd520 2.414 . S
O549 Nd521 2.682 . S
O549 C538 1.273 . S
O550 Nd521 2.410 . S
O550 C539 1.251 . S
O551 Nd520 2.424 . S
O551 C539 1.268 . S
H552 C524 0.930 . S
H553 C525 0.929 . S
H554 C527 0.930 . S
H555 C528 0.929 . S
H556 C533 0.930 . S
H557 C534 0.929 . S
H558 C536 0.930 . S
H559 C537 0.929 . S
Nd560 C562 2.836 . S
Nd560 O580 2.500 . S
Nd560 O581 2.492 . S
Nd560 O582 2.487 . S
Nd560 O583 2.682 . S
Nd560 O584 2.410 . S
Nd560 O589 2.414 . S
Nd560 O591 2.424 . S
Nd561 C571 2.836 . S
Nd561 O583 2.414 . S
Nd561 O585 2.424 . S
Nd561 O586 2.500 . S
Nd561 O587 2.492 . S
Nd561 O588 2.487 . S
Nd561 O589 2.682 . S
Nd561 O590 2.410 . S
C562 Nd560 2.836 . S
C562 C563 1.498 . S
C562 O580 1.258 . S
C562 O581 1.239 . S
C563 C562 1.498 . S
C563 C564 1.366 . S
C563 C568 1.407 . S
C564 C563 1.366 . S
C564 C565 1.392 . S
C564 H592 0.930 . S
C565 C564 1.392 . S
C565 C566 1.398 . S
C565 H593 0.929 . S
C566 C565 1.398 . S
C566 C567 1.352 . S
C567 C566 1.352 . S
C567 C568 1.384 . S
C567 H594 0.930 . S
C568 C563 1.407 . S
C568 C567 1.384 . S
C568 H595 0.929 . S
C569 O582 1.241 . S
C569 O583 1.273 . S
C570 O584 1.251 . S
C570 O585 1.268 . S
C571 Nd561 2.836 . S
C571 C572 1.498 . S
C571 O586 1.258 . S
C571 O587 1.239 . S
C572 C571 1.498 . S
C572 C573 1.366 . S
C572 C577 1.407 . S
C573 C572 1.366 . S
C573 C574 1.392 . S
C573 H596 0.930 . S
C574 C573 1.392 . S
C574 C575 1.398 . S
C574 H597 0.929 . S
C575 C574 1.398 . S
C575 C576 1.352 . S
C576 C575 1.352 . S
C576 C577 1.384 . S
C576 H598 0.930 . S
C577 C572 1.407 . S
C577 C576 1.384 . S
C577 H599 0.929 . S
C578 O588 1.241 . S
C578 O589 1.273 . S
C579 O590 1.251 . S
C579 O591 1.268 . S
O580 Nd560 2.500 . S
O580 C562 1.258 . S
O581 Nd560 2.492 . S
O581 C562 1.239 . S
O582 Nd560 2.487 . S
O582 C569 1.241 . S
O583 Nd560 2.682 . S
O583 Nd561 2.414 . S
O583 C569 1.273 . S
O584 Nd560 2.410 . S
O584 C570 1.251 . S
O585 Nd561 2.424 . S
O585 C570 1.268 . S
O586 Nd561 2.500 . S
O586 C571 1.258 . S
O587 Nd561 2.492 . S
O587 C571 1.239 . S
O588 Nd561 2.487 . S
O588 C578 1.241 . S
O589 Nd560 2.414 . S
O589 Nd561 2.682 . S
O589 C578 1.273 . S
O590 Nd561 2.410 . S
O590 C579 1.251 . S
O591 Nd560 2.424 . S
O591 C579 1.268 . S
H592 C564 0.930 . S
H593 C565 0.929 . S
H594 C567 0.930 . S
H595 C568 0.929 . S
H596 C573 0.930 . S
H597 C574 0.929 . S
H598 C576 0.930 . S
H599 C577 0.929 . S
Nd600 C602 2.836 . S
Nd600 O620 2.500 . S
Nd600 O621 2.492 . S
Nd600 O622 2.487 . S
Nd600 O623 2.682 . S
Nd600 O624 2.410 . S
Nd600 O629 2.414 . S
Nd600 O631 2.424 . S
Nd601 C611 2.836 . S
Nd601 O623 2.414 . S
Nd601 O625 2.424 . S
Nd601 O626 2.500 . S
Nd601 O627 2.492 . S
Nd601 O628 2.487 . S
Nd601 O629 2.682 . S
Nd601 O630 2.410 . S
C602 Nd600 2.836 . S
C602 C603 1.498 . S
C602 O620 1.258 . S
C602 O621 1.239 . S
C603 C602 1.498 . S
C603 C604 1.366 . S
C603 C608 1.407 . S
C604 C603 1.366 . S
C604 C605 1.392 . S
C604 H632 0.930 . S
C605 C604 1.392 . S
C605 C606 1.398 . S
C605 H633 0.929 . S
C606 C605 1.398 . S
C606 C607 1.352 . S
C607 C606 1.352 . S
C607 C608 1.384 . S
C607 H634 0.930 . S
C608 C603 1.407 . S
C608 C607 1.384 . S
C608 H635 0.929 . S
C609 O622 1.241 . S
C609 O623 1.273 . S
C610 O624 1.251 . S
C610 O625 1.268 . S
C611 Nd601 2.836 . S
C611 C612 1.498 . S
C611 O626 1.258 . S
C611 O627 1.239 . S
C612 C611 1.498 . S
C612 C613 1.366 . S
C612 C617 1.407 . S
C613 C612 1.366 . S
C613 C614 1.392 . S
C613 H636 0.930 . S
C614 C613 1.392 . S
C614 C615 1.398 . S
C614 H637 0.929 . S
C615 C614 1.398 . S
C615 C616 1.352 . S
C616 C615 1.352 . S
C616 C617 1.384 . S
C616 H638 0.930 . S
C617 C612 1.407 . S
C617 C616 1.384 . S
C617 H639 0.929 . S
C618 O628 1.241 . S
C618 O629 1.273 . S
C619 O630 1.251 . S
C619 O631 1.268 . S
O620 Nd600 2.500 . S
O620 C602 1.258 . S
O621 Nd600 2.492 . S
O621 C602 1.239 . S
O622 Nd600 2.487 . S
O622 C609 1.241 . S
O623 Nd600 2.682 . S
O623 Nd601 2.414 . S
O623 C609 1.273 . S
O624 Nd600 2.410 . S
O624 C610 1.251 . S
O625 Nd601 2.424 . S
O625 C610 1.268 . S
O626 Nd601 2.500 . S
O626 C611 1.258 . S
O627 Nd601 2.492 . S
O627 C611 1.239 . S
O628 Nd601 2.487 . S
O628 C618 1.241 . S
O629 Nd600 2.414 . S
O629 Nd601 2.682 . S
O629 C618 1.273 . S
O630 Nd601 2.410 . S
O630 C619 1.251 . S
O631 Nd600 2.424 . S
O631 C619 1.268 . S
H632 C604 0.930 . S
H633 C605 0.929 . S
H634 C607 0.930 . S
H635 C608 0.929 . S
H636 C613 0.930 . S
H637 C614 0.929 . S
H638 C616 0.930 . S
H639 C617 0.929 . S
Nd640 C642 2.836 . S
Nd640 O660 2.500 . S
Nd640 O661 2.492 . S
Nd640 O662 2.487 . S
Nd640 O663 2.682 . S
Nd640 O664 2.410 . S
Nd640 O669 2.414 . S
Nd640 O671 2.424 . S
Nd641 C651 2.836 . S
Nd641 O663 2.414 . S
Nd641 O665 2.424 . S
Nd641 O666 2.500 . S
Nd641 O667 2.492 . S
Nd641 O668 2.487 . S
Nd641 O669 2.682 . S
Nd641 O670 2.410 . S
C642 Nd640 2.836 . S
C642 C643 1.498 . S
C642 O660 1.258 . S
C642 O661 1.239 . S
C643 C642 1.498 . S
C643 C644 1.366 . S
C643 C648 1.407 . S
C644 C643 1.366 . S
C644 C645 1.392 . S
C644 H672 0.930 . S
C645 C644 1.392 . S
C645 C646 1.398 . S
C645 H673 0.929 . S
C646 C645 1.398 . S
C646 C647 1.352 . S
C647 C646 1.352 . S
C647 C648 1.384 . S
C647 H674 0.930 . S
C648 C643 1.407 . S
C648 C647 1.384 . S
C648 H675 0.929 . S
C649 O662 1.241 . S
C649 O663 1.273 . S
C650 O664 1.251 . S
C650 O665 1.268 . S
C651 Nd641 2.836 . S
C651 C652 1.498 . S
C651 O666 1.258 . S
C651 O667 1.239 . S
C652 C651 1.498 . S
C652 C653 1.366 . S
C652 C657 1.407 . S
C653 C652 1.366 . S
C653 C654 1.392 . S
C653 H676 0.930 . S
C654 C653 1.392 . S
C654 C655 1.398 . S
C654 H677 0.929 . S
C655 C654 1.398 . S
C655 C656 1.352 . S
C656 C655 1.352 . S
C656 C657 1.384 . S
C656 H678 0.930 . S
C657 C652 1.407 . S
C657 C656 1.384 . S
C657 H679 0.929 . S
C658 O668 1.241 . S
C658 O669 1.273 . S
C659 O670 1.251 . S
C659 O671 1.268 . S
O660 Nd640 2.500 . S
O660 C642 1.258 . S
O661 Nd640 2.492 . S
O661 C642 1.239 . S
O662 Nd640 2.487 . S
O662 C649 1.241 . S
O663 Nd640 2.682 . S
O663 Nd641 2.414 . S
O663 C649 1.273 . S
O664 Nd640 2.410 . S
O664 C650 1.251 . S
O665 Nd641 2.424 . S
O665 C650 1.268 . S
O666 Nd641 2.500 . S
O666 C651 1.258 . S
O667 Nd641 2.492 . S
O667 C651 1.239 . S
O668 Nd641 2.487 . S
O668 C658 1.241 . S
O669 Nd640 2.414 . S
O669 Nd641 2.682 . S
O669 C658 1.273 . S
O670 Nd641 2.410 . S
O670 C659 1.251 . S
O671 Nd640 2.424 . S
O671 C659 1.268 . S
H672 C644 0.930 . S
H673 C645 0.929 . S
H674 C647 0.930 . S
H675 C648 0.929 . S
H676 C653 0.930 . S
H677 C654 0.929 . S
H678 C656 0.930 . S
H679 C657 0.929 . S
Nd680 C682 2.836 . S
Nd680 O700 2.500 . S
Nd680 O701 2.492 . S
Nd680 O702 2.487 . S
Nd680 O703 2.682 . S
Nd680 O704 2.410 . S
Nd680 O709 2.414 . S
Nd680 O711 2.424 . S
Nd681 C691 2.836 . S
Nd681 O703 2.414 . S
Nd681 O705 2.424 . S
Nd681 O706 2.500 . S
Nd681 O707 2.492 . S
Nd681 O708 2.487 . S
Nd681 O709 2.682 . S
Nd681 O710 2.410 . S
C682 Nd680 2.836 . S
C682 C683 1.498 . S
C682 O700 1.258 . S
C682 O701 1.239 . S
C683 C682 1.498 . S
C683 C684 1.366 . S
C683 C688 1.407 . S
C684 C683 1.366 . S
C684 C685 1.392 . S
C684 H712 0.930 . S
C685 C684 1.392 . S
C685 C686 1.398 . S
C685 H713 0.929 . S
C686 C685 1.398 . S
C686 C687 1.352 . S
C687 C686 1.352 . S
C687 C688 1.384 . S
C687 H714 0.930 . S
C688 C683 1.407 . S
C688 C687 1.384 . S
C688 H715 0.929 . S
C689 O702 1.241 . S
C689 O703 1.273 . S
C690 O704 1.251 . S
C690 O705 1.268 . S
C691 Nd681 2.836 . S
C691 C692 1.498 . S
C691 O706 1.258 . S
C691 O707 1.239 . S
C692 C691 1.498 . S
C692 C693 1.366 . S
C692 C697 1.407 . S
C693 C692 1.366 . S
C693 C694 1.392 . S
C693 H716 0.930 . S
C694 C693 1.392 . S
C694 C695 1.398 . S
C694 H717 0.929 . S
C695 C694 1.398 . S
C695 C696 1.352 . S
C696 C695 1.352 . S
C696 C697 1.384 . S
C696 H718 0.930 . S
C697 C692 1.407 . S
C697 C696 1.384 . S
C697 H719 0.929 . S
C698 O708 1.241 . S
C698 O709 1.273 . S
C699 O710 1.251 . S
C699 O711 1.268 . S
O700 Nd680 2.500 . S
O700 C682 1.258 . S
O701 Nd680 2.492 . S
O701 C682 1.239 . S
O702 Nd680 2.487 . S
O702 C689 1.241 . S
O703 Nd680 2.682 . S
O703 Nd681 2.414 . S
O703 C689 1.273 . S
O704 Nd680 2.410 . S
O704 C690 1.251 . S
O705 Nd681 2.424 . S
O705 C690 1.268 . S
O706 Nd681 2.500 . S
O706 C691 1.258 . S
O707 Nd681 2.492 . S
O707 C691 1.239 . S
O708 Nd681 2.487 . S
O708 C698 1.241 . S
O709 Nd680 2.414 . S
O709 Nd681 2.682 . S
O709 C698 1.273 . S
O710 Nd681 2.410 . S
O710 C699 1.251 . S
O711 Nd680 2.424 . S
O711 C699 1.268 . S
H712 C684 0.930 . S
H713 C685 0.929 . S
H714 C687 0.930 . S
H715 C688 0.929 . S
H716 C693 0.930 . S
H717 C694 0.929 . S
H718 C696 0.930 . S
H719 C697 0.929 . S
Nd720 C722 2.836 . S
Nd720 O740 2.500 . S
Nd720 O741 2.492 . S
Nd720 O742 2.487 . S
Nd720 O743 2.682 . S
Nd720 O744 2.410 . S
Nd720 O749 2.414 . S
Nd720 O751 2.424 . S
Nd721 C731 2.836 . S
Nd721 O743 2.414 . S
Nd721 O745 2.424 . S
Nd721 O746 2.500 . S
Nd721 O747 2.492 . S
Nd721 O748 2.487 . S
Nd721 O749 2.682 . S
Nd721 O750 2.410 . S
C722 Nd720 2.836 . S
C722 C723 1.498 . S
C722 O740 1.258 . S
C722 O741 1.239 . S
C723 C722 1.498 . S
C723 C724 1.366 . S
C723 C728 1.407 . S
C724 C723 1.366 . S
C724 C725 1.392 . S
C724 H752 0.930 . S
C725 C724 1.392 . S
C725 C726 1.398 . S
C725 H753 0.929 . S
C726 C725 1.398 . S
C726 C727 1.352 . S
C727 C726 1.352 . S
C727 C728 1.384 . S
C727 H754 0.930 . S
C728 C723 1.407 . S
C728 C727 1.384 . S
C728 H755 0.929 . S
C729 O742 1.241 . S
C729 O743 1.273 . S
C730 O744 1.251 . S
C730 O745 1.268 . S
C731 Nd721 2.836 . S
C731 C732 1.498 . S
C731 O746 1.258 . S
C731 O747 1.239 . S
C732 C731 1.498 . S
C732 C733 1.366 . S
C732 C737 1.407 . S
C733 C732 1.366 . S
C733 C734 1.392 . S
C733 H756 0.930 . S
C734 C733 1.392 . S
C734 C735 1.398 . S
C734 H757 0.929 . S
C735 C734 1.398 . S
C735 C736 1.352 . S
C736 C735 1.352 . S
C736 C737 1.384 . S
C736 H758 0.930 . S
C737 C732 1.407 . S
C737 C736 1.384 . S
C737 H759 0.929 . S
C738 O748 1.241 . S
C738 O749 1.273 . S
C739 O750 1.251 . S
C739 O751 1.268 . S
O740 Nd720 2.500 . S
O740 C722 1.258 . S
O741 Nd720 2.492 . S
O741 C722 1.239 . S
O742 Nd720 2.487 . S
O742 C729 1.241 . S
O743 Nd720 2.682 . S
O743 Nd721 2.414 . S
O743 C729 1.273 . S
O744 Nd720 2.410 . S
O744 C730 1.251 . S
O745 Nd721 2.424 . S
O745 C730 1.268 . S
O746 Nd721 2.500 . S
O746 C731 1.258 . S
O747 Nd721 2.492 . S
O747 C731 1.239 . S
O748 Nd721 2.487 . S
O748 C738 1.241 . S
O749 Nd720 2.414 . S
O749 Nd721 2.682 . S
O749 C738 1.273 . S
O750 Nd721 2.410 . S
O750 C739 1.251 . S
O751 Nd720 2.424 . S
O751 C739 1.268 . S
H752 C724 0.930 . S
H753 C725 0.929 . S
H754 C727 0.930 . S
H755 C728 0.929 . S
H756 C733 0.930 . S
H757 C734 0.929 . S
H758 C736 0.930 . S
H759 C737 0.929 . S
Nd760 C762 2.836 . S
Nd760 O780 2.500 . S
Nd760 O781 2.492 . S
Nd760 O782 2.487 . S
Nd760 O783 2.682 . S
Nd760 O784 2.410 . S
Nd760 O789 2.414 . S
Nd760 O791 2.424 . S
Nd761 C771 2.836 . S
Nd761 O783 2.414 . S
Nd761 O785 2.424 . S
Nd761 O786 2.500 . S
Nd761 O787 2.492 . S
Nd761 O788 2.487 . S
Nd761 O789 2.682 . S
Nd761 O790 2.410 . S
C762 Nd760 2.836 . S
C762 C763 1.498 . S
C762 O780 1.258 . S
C762 O781 1.239 . S
C763 C762 1.498 . S
C763 C764 1.366 . S
C763 C768 1.407 . S
C764 C763 1.366 . S
C764 C765 1.392 . S
C764 H792 0.930 . S
C765 C764 1.392 . S
C765 C766 1.398 . S
C765 H793 0.929 . S
C766 C765 1.398 . S
C766 C767 1.352 . S
C767 C766 1.352 . S
C767 C768 1.384 . S
C767 H794 0.930 . S
C768 C763 1.407 . S
C768 C767 1.384 . S
C768 H795 0.929 . S
C769 O782 1.241 . S
C769 O783 1.273 . S
C770 O784 1.251 . S
C770 O785 1.268 . S
C771 Nd761 2.836 . S
C771 C772 1.498 . S
C771 O786 1.258 . S
C771 O787 1.239 . S
C772 C771 1.498 . S
C772 C773 1.366 . S
C772 C777 1.407 . S
C773 C772 1.366 . S
C773 C774 1.392 . S
C773 H796 0.930 . S
C774 C773 1.392 . S
C774 C775 1.398 . S
C774 H797 0.929 . S
C775 C774 1.398 . S
C775 C776 1.352 . S
C776 C775 1.352 . S
C776 C777 1.384 . S
C776 H798 0.930 . S
C777 C772 1.407 . S
C777 C776 1.384 . S
C777 H799 0.929 . S
C778 O788 1.241 . S
C778 O789 1.273 . S
C779 O790 1.251 . S
C779 O791 1.268 . S
O780 Nd760 2.500 . S
O780 C762 1.258 . S
O781 Nd760 2.492 . S
O781 C762 1.239 . S
O782 Nd760 2.487 . S
O782 C769 1.241 . S
O783 Nd760 2.682 . S
O783 Nd761 2.414 . S
O783 C769 1.273 . S
O784 Nd760 2.410 . S
O784 C770 1.251 . S
O785 Nd761 2.424 . S
O785 C770 1.268 . S
O786 Nd761 2.500 . S
O786 C771 1.258 . S
O787 Nd761 2.492 . S
O787 C771 1.239 . S
O788 Nd761 2.487 . S
O788 C778 1.241 . S
O789 Nd760 2.414 . S
O789 Nd761 2.682 . S
O789 C778 1.273 . S
O790 Nd761 2.410 . S
O790 C779 1.251 . S
O791 Nd760 2.424 . S
O791 C779 1.268 . S
H792 C764 0.930 . S
H793 C765 0.929 . S
H794 C767 0.930 . S
H795 C768 0.929 . S
H796 C773 0.930 . S
H797 C774 0.929 . S
H798 C776 0.930 . S
H799 C777 0.929 . S
Nd800 C802 2.836 . S
Nd800 O820 2.500 . S
Nd800 O821 2.492 . S
Nd800 O822 2.487 . S
Nd800 O823 2.682 . S
Nd800 O824 2.410 . S
Nd800 O829 2.414 . S
Nd800 O831 2.424 . S
Nd801 C811 2.836 . S
Nd801 O823 2.414 . S
Nd801 O825 2.424 . S
Nd801 O826 2.500 . S
Nd801 O827 2.492 . S
Nd801 O828 2.487 . S
Nd801 O829 2.682 . S
Nd801 O830 2.410 . S
C802 Nd800 2.836 . S
C802 C803 1.498 . S
C802 O820 1.258 . S
C802 O821 1.239 . S
C803 C802 1.498 . S
C803 C804 1.366 . S
C803 C808 1.407 . S
C804 C803 1.366 . S
C804 C805 1.392 . S
C804 H832 0.930 . S
C805 C804 1.392 . S
C805 C806 1.398 . S
C805 H833 0.929 . S
C806 C805 1.398 . S
C806 C807 1.352 . S
C807 C806 1.352 . S
C807 C808 1.384 . S
C807 H834 0.930 . S
C808 C803 1.407 . S
C808 C807 1.384 . S
C808 H835 0.929 . S
C809 O822 1.241 . S
C809 O823 1.273 . S
C810 O824 1.251 . S
C810 O825 1.268 . S
C811 Nd801 2.836 . S
C811 C812 1.498 . S
C811 O826 1.258 . S
C811 O827 1.239 . S
C812 C811 1.498 . S
C812 C813 1.366 . S
C812 C817 1.407 . S
C813 C812 1.366 . S
C813 C814 1.392 . S
C813 H836 0.930 . S
C814 C813 1.392 . S
C814 C815 1.398 . S
C814 H837 0.929 . S
C815 C814 1.398 . S
C815 C816 1.352 . S
C816 C815 1.352 . S
C816 C817 1.384 . S
C816 H838 0.930 . S
C817 C812 1.407 . S
C817 C816 1.384 . S
C817 H839 0.929 . S
C818 O828 1.241 . S
C818 O829 1.273 . S
C819 O830 1.251 . S
C819 O831 1.268 . S
O820 Nd800 2.500 . S
O820 C802 1.258 . S
O821 Nd800 2.492 . S
O821 C802 1.239 . S
O822 Nd800 2.487 . S
O822 C809 1.241 . S
O823 Nd800 2.682 . S
O823 Nd801 2.414 . S
O823 C809 1.273 . S
O824 Nd800 2.410 . S
O824 C810 1.251 . S
O825 Nd801 2.424 . S
O825 C810 1.268 . S
O826 Nd801 2.500 . S
O826 C811 1.258 . S
O827 Nd801 2.492 . S
O827 C811 1.239 . S
O828 Nd801 2.487 . S
O828 C818 1.241 . S
O829 Nd800 2.414 . S
O829 Nd801 2.682 . S
O829 C818 1.273 . S
O830 Nd801 2.410 . S
O830 C819 1.251 . S
O831 Nd800 2.424 . S
O831 C819 1.268 . S
H832 C804 0.930 . S
H833 C805 0.929 . S
H834 C807 0.930 . S
H835 C808 0.929 . S
H836 C813 0.930 . S
H837 C814 0.929 . S
H838 C816 0.930 . S
H839 C817 0.929 . S
Nd840 C842 2.836 . S
Nd840 O860 2.500 . S
Nd840 O861 2.492 . S
Nd840 O862 2.487 . S
Nd840 O863 2.682 . S
Nd840 O864 2.410 . S
Nd840 O869 2.414 . S
Nd840 O871 2.424 . S
Nd841 C851 2.836 . S
Nd841 O863 2.414 . S
Nd841 O865 2.424 . S
Nd841 O866 2.500 . S
Nd841 O867 2.492 . S
Nd841 O868 2.487 . S
Nd841 O869 2.682 . S
Nd841 O870 2.410 . S
C842 Nd840 2.836 . S
C842 C843 1.498 . S
C842 O860 1.258 . S
C842 O861 1.239 . S
C843 C842 1.498 . S
C843 C844 1.366 . S
C843 C848 1.407 . S
C844 C843 1.366 . S
C844 C845 1.392 . S
C844 H872 0.930 . S
C845 C844 1.392 . S
C845 C846 1.398 . S
C845 H873 0.929 . S
C846 C845 1.398 . S
C846 C847 1.352 . S
C847 C846 1.352 . S
C847 C848 1.384 . S
C847 H874 0.930 . S
C848 C843 1.407 . S
C848 C847 1.384 . S
C848 H875 0.929 . S
C849 O862 1.241 . S
C849 O863 1.273 . S
C850 O864 1.251 . S
C850 O865 1.268 . S
C851 Nd841 2.836 . S
C851 C852 1.498 . S
C851 O866 1.258 . S
C851 O867 1.239 . S
C852 C851 1.498 . S
C852 C853 1.366 . S
C852 C857 1.407 . S
C853 C852 1.366 . S
C853 C854 1.392 . S
C853 H876 0.930 . S
C854 C853 1.392 . S
C854 C855 1.398 . S
C854 H877 0.929 . S
C855 C854 1.398 . S
C855 C856 1.352 . S
C856 C855 1.352 . S
C856 C857 1.384 . S
C856 H878 0.930 . S
C857 C852 1.407 . S
C857 C856 1.384 . S
C857 H879 0.929 . S
C858 O868 1.241 . S
C858 O869 1.273 . S
C859 O870 1.251 . S
C859 O871 1.268 . S
O860 Nd840 2.500 . S
O860 C842 1.258 . S
O861 Nd840 2.492 . S
O861 C842 1.239 . S
O862 Nd840 2.487 . S
O862 C849 1.241 . S
O863 Nd840 2.682 . S
O863 Nd841 2.414 . S
O863 C849 1.273 . S
O864 Nd840 2.410 . S
O864 C850 1.251 . S
O865 Nd841 2.424 . S
O865 C850 1.268 . S
O866 Nd841 2.500 . S
O866 C851 1.258 . S
O867 Nd841 2.492 . S
O867 C851 1.239 . S
O868 Nd841 2.487 . S
O868 C858 1.241 . S
O869 Nd840 2.414 . S
O869 Nd841 2.682 . S
O869 C858 1.273 . S
O870 Nd841 2.410 . S
O870 C859 1.251 . S
O871 Nd840 2.424 . S
O871 C859 1.268 . S
H872 C844 0.930 . S
H873 C845 0.929 . S
H874 C847 0.930 . S
H875 C848 0.929 . S
H876 C853 0.930 . S
H877 C854 0.929 . S
H878 C856 0.930 . S
H879 C857 0.929 . S
Nd880 C882 2.836 . S
Nd880 O900 2.500 . S
Nd880 O901 2.492 . S
Nd880 O902 2.487 . S
Nd880 O903 2.682 . S
Nd880 O904 2.410 . S
Nd880 O909 2.414 . S
Nd880 O911 2.424 . S
Nd881 C891 2.836 . S
Nd881 O903 2.414 . S
Nd881 O905 2.424 . S
Nd881 O906 2.500 . S
Nd881 O907 2.492 . S
Nd881 O908 2.487 . S
Nd881 O909 2.682 . S
Nd881 O910 2.410 . S
C882 Nd880 2.836 . S
C882 C883 1.498 . S
C882 O900 1.258 . S
C882 O901 1.239 . S
C883 C882 1.498 . S
C883 C884 1.366 . S
C883 C888 1.407 . S
C884 C883 1.366 . S
C884 C885 1.392 . S
C884 H912 0.930 . S
C885 C884 1.392 . S
C885 C886 1.398 . S
C885 H913 0.929 . S
C886 C885 1.398 . S
C886 C887 1.352 . S
C887 C886 1.352 . S
C887 C888 1.384 . S
C887 H914 0.930 . S
C888 C883 1.407 . S
C888 C887 1.384 . S
C888 H915 0.929 . S
C889 O902 1.241 . S
C889 O903 1.273 . S
C890 O904 1.251 . S
C890 O905 1.268 . S
C891 Nd881 2.836 . S
C891 C892 1.498 . S
C891 O906 1.258 . S
C891 O907 1.239 . S
C892 C891 1.498 . S
C892 C893 1.366 . S
C892 C897 1.407 . S
C893 C892 1.366 . S
C893 C894 1.392 . S
C893 H916 0.930 . S
C894 C893 1.392 . S
C894 C895 1.398 . S
C894 H917 0.929 . S
C895 C894 1.398 . S
C895 C896 1.352 . S
C896 C895 1.352 . S
C896 C897 1.384 . S
C896 H918 0.930 . S
C897 C892 1.407 . S
C897 C896 1.384 . S
C897 H919 0.929 . S
C898 O908 1.241 . S
C898 O909 1.273 . S
C899 O910 1.251 . S
C899 O911 1.268 . S
O900 Nd880 2.500 . S
O900 C882 1.258 . S
O901 Nd880 2.492 . S
O901 C882 1.239 . S
O902 Nd880 2.487 . S
O902 C889 1.241 . S
O903 Nd880 2.682 . S
O903 Nd881 2.414 . S
O903 C889 1.273 . S
O904 Nd880 2.410 . S
O904 C890 1.251 . S
O905 Nd881 2.424 . S
O905 C890 1.268 . S
O906 Nd881 2.500 . S
O906 C891 1.258 . S
O907 Nd881 2.492 . S
O907 C891 1.239 . S
O908 Nd881 2.487 . S
O908 C898 1.241 . S
O909 Nd880 2.414 . S
O909 Nd881 2.682 . S
O909 C898 1.273 . S
O910 Nd881 2.410 . S
O910 C899 1.251 . S
O911 Nd880 2.424 . S
O911 C899 1.268 . S
H912 C884 0.930 . S
H913 C885 0.929 . S
H914 C887 0.930 . S
H915 C888 0.929 . S
H916 C893 0.930 . S
H917 C894 0.929 . S
H918 C896 0.930 . S
H919 C897 0.929 . S
Nd920 C922 2.836 . S
Nd920 O940 2.500 . S
Nd920 O941 2.492 . S
Nd920 O942 2.487 . S
Nd920 O943 2.682 . S
Nd920 O944 2.410 . S
Nd920 O949 2.414 . S
Nd920 O951 2.424 . S
Nd921 C931 2.836 . S
Nd921 O943 2.414 . S
Nd921 O945 2.424 . S
Nd921 O946 2.500 . S
Nd921 O947 2.492 . S
Nd921 O948 2.487 . S
Nd921 O949 2.682 . S
Nd921 O950 2.410 . S
C922 Nd920 2.836 . S
C922 C923 1.498 . S
C922 O940 1.258 . S
C922 O941 1.239 . S
C923 C922 1.498 . S
C923 C924 1.366 . S
C923 C928 1.407 . S
C924 C923 1.366 . S
C924 C925 1.392 . S
C924 H952 0.930 . S
C925 C924 1.392 . S
C925 C926 1.398 . S
C925 H953 0.929 . S
C926 C925 1.398 . S
C926 C927 1.352 . S
C927 C926 1.352 . S
C927 C928 1.384 . S
C927 H954 0.930 . S
C928 C923 1.407 . S
C928 C927 1.384 . S
C928 H955 0.929 . S
C929 O942 1.241 . S
C929 O943 1.273 . S
C930 O944 1.251 . S
C930 O945 1.268 . S
C931 Nd921 2.836 . S
C931 C932 1.498 . S
C931 O946 1.258 . S
C931 O947 1.239 . S
C932 C931 1.498 . S
C932 C933 1.366 . S
C932 C937 1.407 . S
C933 C932 1.366 . S
C933 C934 1.392 . S
C933 H956 0.930 . S
C934 C933 1.392 . S
C934 C935 1.398 . S
C934 H957 0.929 . S
C935 C934 1.398 . S
C935 C936 1.352 . S
C936 C935 1.352 . S
C936 C937 1.384 . S
C936 H958 0.930 . S
C937 C932 1.407 . S
C937 C936 1.384 . S
C937 H959 0.929 . S
C938 O948 1.241 . S
C938 O949 1.273 . S
C939 O950 1.251 . S
C939 O951 1.268 . S
O940 Nd920 2.500 . S
O940 C922 1.258 . S
O941 Nd920 2.492 . S
O941 C922 1.239 . S
O942 Nd920 2.487 . S
O942 C929 1.241 . S
O943 Nd920 2.682 . S
O943 Nd921 2.414 . S
O943 C929 1.273 . S
O944 Nd920 2.410 . S
O944 C930 1.251 . S
O945 Nd921 2.424 . S
O945 C930 1.268 . S
O946 Nd921 2.500 . S
O946 C931 1.258 . S
O947 Nd921 2.492 . S
O947 C931 1.239 . S
O948 Nd921 2.487 . S
O948 C938 1.241 . S
O949 Nd920 2.414 . S
O949 Nd921 2.682 . S
O949 C938 1.273 . S
O950 Nd921 2.410 . S
O950 C939 1.251 . S
O951 Nd920 2.424 . S
O951 C939 1.268 . S
H952 C924 0.930 . S
H953 C925 0.929 . S
H954 C927 0.930 . S
H955 C928 0.929 . S
H956 C933 0.930 . S
H957 C934 0.929 . S
H958 C936 0.930 . S
H959 C937 0.929 . S
Nd960 C962 2.836 . S
Nd960 O980 2.500 . S
Nd960 O981 2.492 . S
Nd960 O982 2.487 . S
Nd960 O983 2.682 . S
Nd960 O984 2.410 . S
Nd960 O989 2.414 . S
Nd960 O991 2.424 . S
Nd961 C971 2.836 . S
Nd961 O983 2.414 . S
Nd961 O985 2.424 . S
Nd961 O986 2.500 . S
Nd961 O987 2.492 . S
Nd961 O988 2.487 . S
Nd961 O989 2.682 . S
Nd961 O990 2.410 . S
C962 Nd960 2.836 . S
C962 C963 1.498 . S
C962 O980 1.258 . S
C962 O981 1.239 . S
C963 C962 1.498 . S
C963 C964 1.366 . S
C963 C968 1.407 . S
C964 C963 1.366 . S
C964 C965 1.392 . S
C964 H992 0.930 . S
C965 C964 1.392 . S
C965 C966 1.398 . S
C965 H993 0.929 . S
C966 C965 1.398 . S
C966 C967 1.352 . S
C967 C966 1.352 . S
C967 C968 1.384 . S
C967 H994 0.930 . S
C968 C963 1.407 . S
C968 C967 1.384 . S
C968 H995 0.929 . S
C969 O982 1.241 . S
C969 O983 1.273 . S
C970 O984 1.251 . S
C970 O985 1.268 . S
C971 Nd961 2.836 . S
C971 C972 1.498 . S
C971 O986 1.258 . S
C971 O987 1.239 . S
C972 C971 1.498 . S
C972 C973 1.366 . S
C972 C977 1.407 . S
C973 C972 1.366 . S
C973 C974 1.392 . S
C973 H996 0.930 . S
C974 C973 1.392 . S
C974 C975 1.398 . S
C974 H997 0.929 . S
C975 C974 1.398 . S
C975 C976 1.352 . S
C976 C975 1.352 . S
C976 C977 1.384 . S
C976 H998 0.930 . S
C977 C972 1.407 . S
C977 C976 1.384 . S
C977 H999 0.929 . S
C978 O988 1.241 . S
C978 O989 1.273 . S
C979 O990 1.251 . S
C979 O991 1.268 . S
O980 Nd960 2.500 . S
O980 C962 1.258 . S
O981 Nd960 2.492 . S
O981 C962 1.239 . S
O982 Nd960 2.487 . S
O982 C969 1.241 . S
O983 Nd960 2.682 . S
O983 Nd961 2.414 . S
O983 C969 1.273 . S
O984 Nd960 2.410 . S
O984 C970 1.251 . S
O985 Nd961 2.424 . S
O985 C970 1.268 . S
O986 Nd961 2.500 . S
O986 C971 1.258 . S
O987 Nd961 2.492 . S
O987 C971 1.239 . S
O988 Nd961 2.487 . S
O988 C978 1.241 . S
O989 Nd960 2.414 . S
O989 Nd961 2.682 . S
O989 C978 1.273 . S
O990 Nd961 2.410 . S
O990 C979 1.251 . S
O991 Nd960 2.424 . S
O991 C979 1.268 . S
H992 C964 0.930 . S
H993 C965 0.929 . S
H994 C967 0.930 . S
H995 C968 0.929 . S
H996 C973 0.930 . S
H997 C974 0.929 . S
H998 C976 0.930 . S
H999 C977 0.929 . S
Nd1000 C1002 2.836 . S
Nd1000 O1020 2.500 . S
Nd1000 O1021 2.492 . S
Nd1000 O1022 2.487 . S
Nd1000 O1023 2.682 . S
Nd1000 O1024 2.410 . S
Nd1000 O1029 2.414 . S
Nd1000 O1031 2.424 . S
Nd1001 C1011 2.836 . S
Nd1001 O1023 2.414 . S
Nd1001 O1025 2.424 . S
Nd1001 O1026 2.500 . S
Nd1001 O1027 2.492 . S
Nd1001 O1028 2.487 . S
Nd1001 O1029 2.682 . S
Nd1001 O1030 2.410 . S
C1002 Nd1000 2.836 . S
C1002 C1003 1.498 . S
C1002 O1020 1.258 . S
C1002 O1021 1.239 . S
C1003 C1002 1.498 . S
C1003 C1004 1.366 . S
C1003 C1008 1.407 . S
C1004 C1003 1.366 . S
C1004 C1005 1.392 . S
C1004 H1032 0.930 . S
C1005 C1004 1.392 . S
C1005 C1006 1.398 . S
C1005 H1033 0.929 . S
C1006 C1005 1.398 . S
C1006 C1007 1.352 . S
C1007 C1006 1.352 . S
C1007 C1008 1.384 . S
C1007 H1034 0.930 . S
C1008 C1003 1.407 . S
C1008 C1007 1.384 . S
C1008 H1035 0.929 . S
C1009 O1022 1.241 . S
C1009 O1023 1.273 . S
C1010 O1024 1.251 . S
C1010 O1025 1.268 . S
C1011 Nd1001 2.836 . S
C1011 C1012 1.498 . S
C1011 O1026 1.258 . S
C1011 O1027 1.239 . S
C1012 C1011 1.498 . S
C1012 C1013 1.366 . S
C1012 C1017 1.407 . S
C1013 C1012 1.366 . S
C1013 C1014 1.392 . S
C1013 H1036 0.930 . S
C1014 C1013 1.392 . S
C1014 C1015 1.398 . S
C1014 H1037 0.929 . S
C1015 C1014 1.398 . S
C1015 C1016 1.352 . S
C1016 C1015 1.352 . S
C1016 C1017 1.384 . S
C1016 H1038 0.930 . S
C1017 C1012 1.407 . S
C1017 C1016 1.384 . S
C1017 H1039 0.929 . S
C1018 O1028 1.241 . S
C1018 O1029 1.273 . S
C1019 O1030 1.251 . S
C1019 O1031 1.268 . S
O1020 Nd1000 2.500 . S
O1020 C1002 1.258 . S
O1021 Nd1000 2.492 . S
O1021 C1002 1.239 . S
O1022 Nd1000 2.487 . S
O1022 C1009 1.241 . S
O1023 Nd1000 2.682 . S
O1023 Nd1001 2.414 . S
O1023 C1009 1.273 . S
O1024 Nd1000 2.410 . S
O1024 C1010 1.251 . S
O1025 Nd1001 2.424 . S
O1025 C1010 1.268 . S
O1026 Nd1001 2.500 . S
O1026 C1011 1.258 . S
O1027 Nd1001 2.492 . S
O1027 C1011 1.239 . S
O1028 Nd1001 2.487 . S
O1028 C1018 1.241 . S
O1029 Nd1000 2.414 . S
O1029 Nd1001 2.682 . S
O1029 C1018 1.273 . S
O1030 Nd1001 2.410 . S
O1030 C1019 1.251 . S
O1031 Nd1000 2.424 . S
O1031 C1019 1.268 . S
H1032 C1004 0.930 . S
H1033 C1005 0.929 . S
H1034 C1007 0.930 . S
H1035 C1008 0.929 . S
H1036 C1013 0.930 . S
H1037 C1014 0.929 . S
H1038 C1016 0.930 . S
H1039 C1017 0.929 . S
Nd1040 C1042 2.836 . S
Nd1040 O1060 2.500 . S
Nd1040 O1061 2.492 . S
Nd1040 O1062 2.487 . S
Nd1040 O1063 2.682 . S
Nd1040 O1064 2.410 . S
Nd1040 O1069 2.414 . S
Nd1040 O1071 2.424 . S
Nd1041 C1051 2.836 . S
Nd1041 O1063 2.414 . S
Nd1041 O1065 2.424 . S
Nd1041 O1066 2.500 . S
Nd1041 O1067 2.492 . S
Nd1041 O1068 2.487 . S
Nd1041 O1069 2.682 . S
Nd1041 O1070 2.410 . S
C1042 Nd1040 2.836 . S
C1042 C1043 1.498 . S
C1042 O1060 1.258 . S
C1042 O1061 1.239 . S
C1043 C1042 1.498 . S
C1043 C1044 1.366 . S
C1043 C1048 1.407 . S
C1044 C1043 1.366 . S
C1044 C1045 1.392 . S
C1044 H1072 0.930 . S
C1045 C1044 1.392 . S
C1045 C1046 1.398 . S
C1045 H1073 0.929 . S
C1046 C1045 1.398 . S
C1046 C1047 1.352 . S
C1047 C1046 1.352 . S
C1047 C1048 1.384 . S
C1047 H1074 0.930 . S
C1048 C1043 1.407 . S
C1048 C1047 1.384 . S
C1048 H1075 0.929 . S
C1049 O1062 1.241 . S
C1049 O1063 1.273 . S
C1050 O1064 1.251 . S
C1050 O1065 1.268 . S
C1051 Nd1041 2.836 . S
C1051 C1052 1.498 . S
C1051 O1066 1.258 . S
C1051 O1067 1.239 . S
C1052 C1051 1.498 . S
C1052 C1053 1.366 . S
C1052 C1057 1.407 . S
C1053 C1052 1.366 . S
C1053 C1054 1.392 . S
C1053 H1076 0.930 . S
C1054 C1053 1.392 . S
C1054 C1055 1.398 . S
C1054 H1077 0.929 . S
C1055 C1054 1.398 . S
C1055 C1056 1.352 . S
C1056 C1055 1.352 . S
C1056 C1057 1.384 . S
C1056 H1078 0.930 . S
C1057 C1052 1.407 . S
C1057 C1056 1.384 . S
C1057 H1079 0.929 . S
C1058 O1068 1.241 . S
C1058 O1069 1.273 . S
C1059 O1070 1.251 . S
C1059 O1071 1.268 . S
O1060 Nd1040 2.500 . S
O1060 C1042 1.258 . S
O1061 Nd1040 2.492 . S
O1061 C1042 1.239 . S
O1062 Nd1040 2.487 . S
O1062 C1049 1.241 . S
O1063 Nd1040 2.682 . S
O1063 Nd1041 2.414 . S
O1063 C1049 1.273 . S
O1064 Nd1040 2.410 . S
O1064 C1050 1.251 . S
O1065 Nd1041 2.424 . S
O1065 C1050 1.268 . S
O1066 Nd1041 2.500 . S
O1066 C1051 1.258 . S
O1067 Nd1041 2.492 . S
O1067 C1051 1.239 . S
O1068 Nd1041 2.487 . S
O1068 C1058 1.241 . S
O1069 Nd1040 2.414 . S
O1069 Nd1041 2.682 . S
O1069 C1058 1.273 . S
O1070 Nd1041 2.410 . S
O1070 C1059 1.251 . S
O1071 Nd1040 2.424 . S
O1071 C1059 1.268 . S
H1072 C1044 0.930 . S
H1073 C1045 0.929 . S
H1074 C1047 0.930 . S
H1075 C1048 0.929 . S
H1076 C1053 0.930 . S
H1077 C1054 0.929 . S
H1078 C1056 0.930 . S
H1079 C1057 0.929 . S
Nd1080 C1082 2.836 . S
Nd1080 O1100 2.500 . S
Nd1080 O1101 2.492 . S
Nd1080 O1102 2.487 . S
Nd1080 O1103 2.682 . S
Nd1080 O1104 2.410 . S
Nd1080 O1109 2.414 . S
Nd1080 O1111 2.424 . S
Nd1081 C1091 2.836 . S
Nd1081 O1103 2.414 . S
Nd1081 O1105 2.424 . S
Nd1081 O1106 2.500 . S
Nd1081 O1107 2.492 . S
Nd1081 O1108 2.487 . S
Nd1081 O1109 2.682 . S
Nd1081 O1110 2.410 . S
C1082 Nd1080 2.836 . S
C1082 C1083 1.498 . S
C1082 O1100 1.258 . S
C1082 O1101 1.239 . S
C1083 C1082 1.498 . S
C1083 C1084 1.366 . S
C1083 C1088 1.407 . S
C1084 C1083 1.366 . S
C1084 C1085 1.392 . S
C1084 H1112 0.930 . S
C1085 C1084 1.392 . S
C1085 C1086 1.398 . S
C1085 H1113 0.929 . S
C1086 C1085 1.398 . S
C1086 C1087 1.352 . S
C1087 C1086 1.352 . S
C1087 C1088 1.384 . S
C1087 H1114 0.930 . S
C1088 C1083 1.407 . S
C1088 C1087 1.384 . S
C1088 H1115 0.929 . S
C1089 O1102 1.241 . S
C1089 O1103 1.273 . S
C1090 O1104 1.251 . S
C1090 O1105 1.268 . S
C1091 Nd1081 2.836 . S
C1091 C1092 1.498 . S
C1091 O1106 1.258 . S
C1091 O1107 1.239 . S
C1092 C1091 1.498 . S
C1092 C1093 1.366 . S
C1092 C1097 1.407 . S
C1093 C1092 1.366 . S
C1093 C1094 1.392 . S
C1093 H1116 0.930 . S
C1094 C1093 1.392 . S
C1094 C1095 1.398 . S
C1094 H1117 0.929 . S
C1095 C1094 1.398 . S
C1095 C1096 1.352 . S
C1096 C1095 1.352 . S
C1096 C1097 1.384 . S
C1096 H1118 0.930 . S
C1097 C1092 1.407 . S
C1097 C1096 1.384 . S
C1097 H1119 0.929 . S
C1098 O1108 1.241 . S
C1098 O1109 1.273 . S
C1099 O1110 1.251 . S
C1099 O1111 1.268 . S
O1100 Nd1080 2.500 . S
O1100 C1082 1.258 . S
O1101 Nd1080 2.492 . S
O1101 C1082 1.239 . S
O1102 Nd1080 2.487 . S
O1102 C1089 1.241 . S
O1103 Nd1080 2.682 . S
O1103 Nd1081 2.414 . S
O1103 C1089 1.273 . S
O1104 Nd1080 2.410 . S
O1104 C1090 1.251 . S
O1105 Nd1081 2.424 . S
O1105 C1090 1.268 . S
O1106 Nd1081 2.500 . S
O1106 C1091 1.258 . S
O1107 Nd1081 2.492 . S
O1107 C1091 1.239 . S
O1108 Nd1081 2.487 . S
O1108 C1098 1.241 . S
O1109 Nd1080 2.414 . S
O1109 Nd1081 2.682 . S
O1109 C1098 1.273 . S
O1110 Nd1081 2.410 . S
O1110 C1099 1.251 . S
O1111 Nd1080 2.424 . S
O1111 C1099 1.268 . S
H1112 C1084 0.930 . S
H1113 C1085 0.929 . S
H1114 C1087 0.930 . S
H1115 C1088 0.929 . S
H1116 C1093 0.930 . S
H1117 C1094 0.929 . S
H1118 C1096 0.930 . S
H1119 C1097 0.929 . S
Nd1120 C1122 2.836 . S
Nd1120 O1140 2.500 . S
Nd1120 O1141 2.492 . S
Nd1120 O1142 2.487 . S
Nd1120 O1143 2.682 . S
Nd1120 O1144 2.410 . S
Nd1120 O1149 2.414 . S
Nd1120 O1151 2.424 . S
Nd1121 C1131 2.836 . S
Nd1121 O1143 2.414 . S
Nd1121 O1145 2.424 . S
Nd1121 O1146 2.500 . S
Nd1121 O1147 2.492 . S
Nd1121 O1148 2.487 . S
Nd1121 O1149 2.682 . S
Nd1121 O1150 2.410 . S
C1122 Nd1120 2.836 . S
C1122 C1123 1.498 . S
C1122 O1140 1.258 . S
C1122 O1141 1.239 . S
C1123 C1122 1.498 . S
C1123 C1124 1.366 . S
C1123 C1128 1.407 . S
C1124 C1123 1.366 . S
C1124 C1125 1.392 . S
C1124 H1152 0.930 . S
C1125 C1124 1.392 . S
C1125 C1126 1.398 . S
C1125 H1153 0.929 . S
C1126 C1125 1.398 . S
C1126 C1127 1.352 . S
C1127 C1126 1.352 . S
C1127 C1128 1.384 . S
C1127 H1154 0.930 . S
C1128 C1123 1.407 . S
C1128 C1127 1.384 . S
C1128 H1155 0.929 . S
C1129 O1142 1.241 . S
C1129 O1143 1.273 . S
C1130 O1144 1.251 . S
C1130 O1145 1.268 . S
C1131 Nd1121 2.836 . S
C1131 C1132 1.498 . S
C1131 O1146 1.258 . S
C1131 O1147 1.239 . S
C1132 C1131 1.498 . S
C1132 C1133 1.366 . S
C1132 C1137 1.407 . S
C1133 C1132 1.366 . S
C1133 C1134 1.392 . S
C1133 H1156 0.930 . S
C1134 C1133 1.392 . S
C1134 C1135 1.398 . S
C1134 H1157 0.929 . S
C1135 C1134 1.398 . S
C1135 C1136 1.352 . S
C1136 C1135 1.352 . S
C1136 C1137 1.384 . S
C1136 H1158 0.930 . S
C1137 C1132 1.407 . S
C1137 C1136 1.384 . S
C1137 H1159 0.929 . S
C1138 O1148 1.241 . S
C1138 O1149 1.273 . S
C1139 O1150 1.251 . S
C1139 O1151 1.268 . S
O1140 Nd1120 2.500 . S
O1140 C1122 1.258 . S
O1141 Nd1120 2.492 . S
O1141 C1122 1.239 . S
O1142 Nd1120 2.487 . S
O1142 C1129 1.241 . S
O1143 Nd1120 2.682 . S
O1143 Nd1121 2.414 . S
O1143 C1129 1.273 . S
O1144 Nd1120 2.410 . S
O1144 C1130 1.251 . S
O1145 Nd1121 2.424 . S
O1145 C1130 1.268 . S
O1146 Nd1121 2.500 . S
O1146 C1131 1.258 . S
O1147 Nd1121 2.492 . S
O1147 C1131 1.239 . S
O1148 Nd1121 2.487 . S
O1148 C1138 1.241 . S
O1149 Nd1120 2.414 . S
O1149 Nd1121 2.682 . S
O1149 C1138 1.273 . S
O1150 Nd1121 2.410 . S
O1150 C1139 1.251 . S
O1151 Nd1120 2.424 . S
O1151 C1139 1.268 . S
H1152 C1124 0.930 . S
H1153 C1125 0.929 . S
H1154 C1127 0.930 . S
H1155 C1128 0.929 . S
H1156 C1133 0.930 . S
H1157 C1134 0.929 . S
H1158 C1136 0.930 . S
H1159 C1137 0.929 . S
Nd1160 C1162 2.836 . S
Nd1160 O1180 2.500 . S
Nd1160 O1181 2.492 . S
Nd1160 O1182 2.487 . S
Nd1160 O1183 2.682 . S
Nd1160 O1184 2.410 . S
Nd1160 O1189 2.414 . S
Nd1160 O1191 2.424 . S
Nd1161 C1171 2.836 . S
Nd1161 O1183 2.414 . S
Nd1161 O1185 2.424 . S
Nd1161 O1186 2.500 . S
Nd1161 O1187 2.492 . S
Nd1161 O1188 2.487 . S
Nd1161 O1189 2.682 . S
Nd1161 O1190 2.410 . S
C1162 Nd1160 2.836 . S
C1162 C1163 1.498 . S
C1162 O1180 1.258 . S
C1162 O1181 1.239 . S
C1163 C1162 1.498 . S
C1163 C1164 1.366 . S
C1163 C1168 1.407 . S
C1164 C1163 1.366 . S
C1164 C1165 1.392 . S
C1164 H1192 0.930 . S
C1165 C1164 1.392 . S
C1165 C1166 1.398 . S
C1165 H1193 0.929 . S
C1166 C1165 1.398 . S
C1166 C1167 1.352 . S
C1167 C1166 1.352 . S
C1167 C1168 1.384 . S
C1167 H1194 0.930 . S
C1168 C1163 1.407 . S
C1168 C1167 1.384 . S
C1168 H1195 0.929 . S
C1169 O1182 1.241 . S
C1169 O1183 1.273 . S
C1170 O1184 1.251 . S
C1170 O1185 1.268 . S
C1171 Nd1161 2.836 . S
C1171 C1172 1.498 . S
C1171 O1186 1.258 . S
C1171 O1187 1.239 . S
C1172 C1171 1.498 . S
C1172 C1173 1.366 . S
C1172 C1177 1.407 . S
C1173 C1172 1.366 . S
C1173 C1174 1.392 . S
C1173 H1196 0.930 . S
C1174 C1173 1.392 . S
C1174 C1175 1.398 . S
C1174 H1197 0.929 . S
C1175 C1174 1.398 . S
C1175 C1176 1.352 . S
C1176 C1175 1.352 . S
C1176 C1177 1.384 . S
C1176 H1198 0.930 . S
C1177 C1172 1.407 . S
C1177 C1176 1.384 . S
C1177 H1199 0.929 . S
C1178 O1188 1.241 . S
C1178 O1189 1.273 . S
C1179 O1190 1.251 . S
C1179 O1191 1.268 . S
O1180 Nd1160 2.500 . S
O1180 C1162 1.258 . S
O1181 Nd1160 2.492 . S
O1181 C1162 1.239 . S
O1182 Nd1160 2.487 . S
O1182 C1169 1.241 . S
O1183 Nd1160 2.682 . S
O1183 Nd1161 2.414 . S
O1183 C1169 1.273 . S
O1184 Nd1160 2.410 . S
O1184 C1170 1.251 . S
O1185 Nd1161 2.424 . S
O1185 C1170 1.268 . S
O1186 Nd1161 2.500 . S
O1186 C1171 1.258 . S
O1187 Nd1161 2.492 . S
O1187 C1171 1.239 . S
O1188 Nd1161 2.487 . S
O1188 C1178 1.241 . S
O1189 Nd1160 2.414 . S
O1189 Nd1161 2.682 . S
O1189 C1178 1.273 . S
O1190 Nd1161 2.410 . S
O1190 C1179 1.251 . S
O1191 Nd1160 2.424 . S
O1191 C1179 1.268 . S
H1192 C1164 0.930 . S
H1193 C1165 0.929 . S
H1194 C1167 0.930 . S
H1195 C1168 0.929 . S
H1196 C1173 0.930 . S
H1197 C1174 0.929 . S
H1198 C1176 0.930 . S
H1199 C1177 0.929 . S
Nd1200 C1202 2.836 . S
Nd1200 O1220 2.500 . S
Nd1200 O1221 2.492 . S
Nd1200 O1222 2.487 . S
Nd1200 O1223 2.682 . S
Nd1200 O1224 2.410 . S
Nd1200 O1229 2.414 . S
Nd1200 O1231 2.424 . S
Nd1201 C1211 2.836 . S
Nd1201 O1223 2.414 . S
Nd1201 O1225 2.424 . S
Nd1201 O1226 2.500 . S
Nd1201 O1227 2.492 . S
Nd1201 O1228 2.487 . S
Nd1201 O1229 2.682 . S
Nd1201 O1230 2.410 . S
C1202 Nd1200 2.836 . S
C1202 C1203 1.498 . S
C1202 O1220 1.258 . S
C1202 O1221 1.239 . S
C1203 C1202 1.498 . S
C1203 C1204 1.366 . S
C1203 C1208 1.407 . S
C1204 C1203 1.366 . S
C1204 C1205 1.392 . S
C1204 H1232 0.930 . S
C1205 C1204 1.392 . S
C1205 C1206 1.398 . S
C1205 H1233 0.929 . S
C1206 C1205 1.398 . S
C1206 C1207 1.352 . S
C1207 C1206 1.352 . S
C1207 C1208 1.384 . S
C1207 H1234 0.930 . S
C1208 C1203 1.407 . S
C1208 C1207 1.384 . S
C1208 H1235 0.929 . S
C1209 O1222 1.241 . S
C1209 O1223 1.273 . S
C1210 O1224 1.251 . S
C1210 O1225 1.268 . S
C1211 Nd1201 2.836 . S
C1211 C1212 1.498 . S
C1211 O1226 1.258 . S
C1211 O1227 1.239 . S
C1212 C1211 1.498 . S
C1212 C1213 1.366 . S
C1212 C1217 1.407 . S
C1213 C1212 1.366 . S
C1213 C1214 1.392 . S
C1213 H1236 0.930 . S
C1214 C1213 1.392 . S
C1214 C1215 1.398 . S
C1214 H1237 0.929 . S
C1215 C1214 1.398 . S
C1215 C1216 1.352 . S
C1216 C1215 1.352 . S
C1216 C1217 1.384 . S
C1216 H1238 0.930 . S
C1217 C1212 1.407 . S
C1217 C1216 1.384 . S
C1217 H1239 0.929 . S
C1218 O1228 1.241 . S
C1218 O1229 1.273 . S
C1219 O1230 1.251 . S
C1219 O1231 1.268 . S
O1220 Nd1200 2.500 . S
O1220 C1202 1.258 . S
O1221 Nd1200 2.492 . S
O1221 C1202 1.239 . S
O1222 Nd1200 2.487 . S
O1222 C1209 1.241 . S
O1223 Nd1200 2.682 . S
O1223 Nd1201 2.414 . S
O1223 C1209 1.273 . S
O1224 Nd1200 2.410 . S
O1224 C1210 1.251 . S
O1225 Nd1201 2.424 . S
O1225 C1210 1.268 . S
O1226 Nd1201 2.500 . S
O1226 C1211 1.258 . S
O1227 Nd1201 2.492 . S
O1227 C1211 1.239 . S
O1228 Nd1201 2.487 . S
O1228 C1218 1.241 . S
O1229 Nd1200 2.414 . S
O1229 Nd1201 2.682 . S
O1229 C1218 1.273 . S
O1230 Nd1201 2.410 . S
O1230 C1219 1.251 . S
O1231 Nd1200 2.424 . S
O1231 C1219 1.268 . S
H1232 C1204 0.930 . S
H1233 C1205 0.929 . S
H1234 C1207 0.930 . S
H1235 C1208 0.929 . S
H1236 C1213 0.930 . S
H1237 C1214 0.929 . S
H1238 C1216 0.930 . S
H1239 C1217 0.929 . S
Nd1240 C1242 2.836 . S
Nd1240 O1260 2.500 . S
Nd1240 O1261 2.492 . S
Nd1240 O1262 2.487 . S
Nd1240 O1263 2.682 . S
Nd1240 O1264 2.410 . S
Nd1240 O1269 2.414 . S
Nd1240 O1271 2.424 . S
Nd1241 C1251 2.836 . S
Nd1241 O1263 2.414 . S
Nd1241 O1265 2.424 . S
Nd1241 O1266 2.500 . S
Nd1241 O1267 2.492 . S
Nd1241 O1268 2.487 . S
Nd1241 O1269 2.682 . S
Nd1241 O1270 2.410 . S
C1242 Nd1240 2.836 . S
C1242 C1243 1.498 . S
C1242 O1260 1.258 . S
C1242 O1261 1.239 . S
C1243 C1242 1.498 . S
C1243 C1244 1.366 . S
C1243 C1248 1.407 . S
C1244 C1243 1.366 . S
C1244 C1245 1.392 . S
C1244 H1272 0.930 . S
C1245 C1244 1.392 . S
C1245 C1246 1.398 . S
C1245 H1273 0.929 . S
C1246 C1245 1.398 . S
C1246 C1247 1.352 . S
C1247 C1246 1.352 . S
C1247 C1248 1.384 . S
C1247 H1274 0.930 . S
C1248 C1243 1.407 . S
C1248 C1247 1.384 . S
C1248 H1275 0.929 . S
C1249 O1262 1.241 . S
C1249 O1263 1.273 . S
C1250 O1264 1.251 . S
C1250 O1265 1.268 . S
C1251 Nd1241 2.836 . S
C1251 C1252 1.498 . S
C1251 O1266 1.258 . S
C1251 O1267 1.239 . S
C1252 C1251 1.498 . S
C1252 C1253 1.366 . S
C1252 C1257 1.407 . S
C1253 C1252 1.366 . S
C1253 C1254 1.392 . S
C1253 H1276 0.930 . S
C1254 C1253 1.392 . S
C1254 C1255 1.398 . S
C1254 H1277 0.929 . S
C1255 C1254 1.398 . S
C1255 C1256 1.352 . S
C1256 C1255 1.352 . S
C1256 C1257 1.384 . S
C1256 H1278 0.930 . S
C1257 C1252 1.407 . S
C1257 C1256 1.384 . S
C1257 H1279 0.929 . S
C1258 O1268 1.241 . S
C1258 O1269 1.273 . S
C1259 O1270 1.251 . S
C1259 O1271 1.268 . S
O1260 Nd1240 2.500 . S
O1260 C1242 1.258 . S
O1261 Nd1240 2.492 . S
O1261 C1242 1.239 . S
O1262 Nd1240 2.487 . S
O1262 C1249 1.241 . S
O1263 Nd1240 2.682 . S
O1263 Nd1241 2.414 . S
O1263 C1249 1.273 . S
O1264 Nd1240 2.410 . S
O1264 C1250 1.251 . S
O1265 Nd1241 2.424 . S
O1265 C1250 1.268 . S
O1266 Nd1241 2.500 . S
O1266 C1251 1.258 . S
O1267 Nd1241 2.492 . S
O1267 C1251 1.239 . S
O1268 Nd1241 2.487 . S
O1268 C1258 1.241 . S
O1269 Nd1240 2.414 . S
O1269 Nd1241 2.682 . S
O1269 C1258 1.273 . S
O1270 Nd1241 2.410 . S
O1270 C1259 1.251 . S
O1271 Nd1240 2.424 . S
O1271 C1259 1.268 . S
H1272 C1244 0.930 . S
H1273 C1245 0.929 . S
H1274 C1247 0.930 . S
H1275 C1248 0.929 . S
H1276 C1253 0.930 . S
H1277 C1254 0.929 . S
H1278 C1256 0.930 . S
H1279 C1257 0.929 . S
H1280 C1288 0.929 . S
H1281 C1290 0.930 . S
H1282 C1292 0.930 . S
H1283 C1295 0.929 . S
H1284 C1298 0.930 . S
H1285 C1300 0.960 . S
H1286 C1300 0.960 . S
H1287 C1300 0.960 . S
C1288 H1280 0.929 . S
C1288 C1289 1.377 . S
C1288 C1290 1.384 . S
C1289 C1288 1.377 . S
C1289 C1295 1.390 . S
C1290 H1281 0.930 . S
C1290 C1288 1.384 . S
C1290 C1291 1.372 . S
C1291 C1290 1.372 . S
C1291 C1292 1.400 . S
C1291 C1296 1.490 . S
C1292 H1282 0.930 . S
C1292 C1291 1.400 . S
C1292 C1295 1.386 . S
H1293 C1309 0.930 . S
H1294 C1310 0.931 . S
C1295 H1283 0.929 . S
C1295 C1289 1.390 . S
C1295 C1292 1.386 . S
C1296 C1291 1.490 . S
C1296 C1298 1.395 . S
C1296 C1299 1.403 . S
H1297 C1303 0.930 . S
C1298 H1284 0.930 . S
C1298 C1296 1.395 . S
C1298 C1301 1.403 . S
C1299 C1296 1.403 . S
C1299 C1300 1.524 . S
C1299 C1303 1.400 . S
C1300 H1285 0.960 . S
C1300 H1286 0.960 . S
C1300 H1287 0.960 . S
C1300 C1299 1.524 . S
C1301 C1298 1.403 . S
C1301 C1302 1.392 . S
C1301 C1305 1.495 . S
C1302 C1301 1.392 . S
C1302 C1303 1.385 . S
C1302 C1304 1.478 . S
C1303 H1297 0.930 . S
C1303 C1299 1.400 . S
C1303 C1302 1.385 . S
C1304 C1302 1.478 . S
C1304 C1306 1.381 . S
C1304 C1310 1.383 . S
C1305 C1301 1.495 . S
C1305 H1311 0.959 . S
C1305 H1312 0.961 . S
C1305 H1313 0.960 . S
C1306 C1304 1.381 . S
C1306 C1307 1.394 . S
C1306 H1314 0.930 . S
C1307 C1306 1.394 . S
C1307 C1308 1.383 . S
C1307 H1315 0.929 . S
C1308 C1307 1.383 . S
C1308 C1309 1.377 . S
C1309 H1293 0.930 . S
C1309 C1308 1.377 . S
C1309 C1310 1.379 . S
C1310 H1294 0.931 . S
C1310 C1304 1.383 . S
C1310 C1309 1.379 . S
H1311 C1305 0.959 . S
H1312 C1305 0.961 . S
H1313 C1305 0.960 . S
H1314 C1306 0.930 . S
H1315 C1307 0.929 . S
H1316 C1324 0.929 . S
H1317 C1326 0.930 . S
H1318 C1328 0.930 . S
H1319 C1331 0.929 . S
H1320 C1334 0.930 . S
H1321 C1336 0.960 . S
H1322 C1336 0.960 . S
H1323 C1336 0.960 . S
C1324 H1316 0.929 . S
C1324 C1325 1.377 . S
C1324 C1326 1.384 . S
C1325 C1324 1.377 . S
C1325 C1331 1.390 . S
C1326 H1317 0.930 . S
C1326 C1324 1.384 . S
C1326 C1327 1.372 . S
C1327 C1326 1.372 . S
C1327 C1328 1.400 . S
C1327 C1332 1.490 . S
C1328 H1318 0.930 . S
C1328 C1327 1.400 . S
C1328 C1331 1.386 . S
H1329 C1345 0.930 . S
H1330 C1346 0.939 . S
C1331 H1319 0.929 . S
C1331 C1325 1.390 . S
C1331 C1328 1.386 . S
C1332 C1327 1.490 . S
C1332 C1334 1.395 . S
C1332 C1335 1.403 . S
H1333 C1339 0.930 . S
C1334 H1320 0.930 . S
C1334 C1332 1.395 . S
C1334 C1337 1.403 . S
C1335 C1332 1.403 . S
C1335 C1336 1.524 . S
C1335 C1339 1.400 . S
C1336 H1321 0.960 . S
C1336 H1322 0.960 . S
C1336 H1323 0.960 . S
C1336 C1335 1.524 . S
C1337 C1334 1.403 . S
C1337 C1338 1.392 . S
C1337 C1341 1.495 1_455 S
C1338 C1337 1.392 . S
C1338 C1339 1.385 . S
C1338 C1340 1.479 . S
C1339 H1333 0.930 . S
C1339 C1335 1.400 . S
C1339 C1338 1.385 . S
C1340 C1338 1.479 . S
C1340 C1342 1.380 1_455 S
C1340 C1346 1.382 1_455 S
C1341 C1337 1.495 1_655 S
C1341 H1347 0.959 . S
C1341 H1348 0.961 . S
C1341 H1349 0.960 . S
C1342 C1340 1.380 1_655 S
C1342 C1343 1.394 . S
C1342 H1350 0.930 . S
C1343 C1342 1.394 . S
C1343 C1344 1.383 . S
C1343 H1351 0.929 . S
C1344 C1343 1.383 . S
C1344 C1345 1.377 . S
C1345 H1329 0.930 . S
C1345 C1344 1.377 . S
C1345 C1346 1.379 . S
C1346 H1330 0.939 . S
C1346 C1340 1.382 1_655 S
C1346 C1345 1.379 . S
H1347 C1341 0.959 . S
H1348 C1341 0.961 . S
H1349 C1341 0.960 . S
H1350 C1342 0.930 . S
H1351 C1343 0.929 . S
H1352 C1360 0.929 . S
H1353 C1362 0.930 . S
H1354 C1364 0.930 . S
H1355 C1367 0.929 . S
H1356 C1370 0.930 . S
H1357 C1372 0.960 . S
H1358 C1372 0.960 . S
H1359 C1372 0.960 . S
C1360 H1352 0.929 . S
C1360 C1361 1.377 . S
C1360 C1362 1.384 . S
C1361 C1360 1.377 . S
C1361 C1367 1.390 . S
C1362 H1353 0.930 . S
C1362 C1360 1.384 . S
C1362 C1363 1.372 . S
C1363 C1362 1.372 . S
C1363 C1364 1.400 . S
C1363 C1368 1.490 . S
C1364 H1354 0.930 . S
C1364 C1363 1.400 . S
C1364 C1367 1.386 . S
H1365 C1381 0.930 . S
H1366 C1382 0.931 . S
C1367 H1355 0.929 . S
C1367 C1361 1.390 . S
C1367 C1364 1.386 . S
C1368 C1363 1.490 . S
C1368 C1370 1.395 . S
C1368 C1371 1.403 . S
H1369 C1375 0.930 . S
C1370 H1356 0.930 . S
C1370 C1368 1.395 . S
C1370 C1373 1.403 . S
C1371 C1368 1.403 . S
C1371 C1372 1.524 . S
C1371 C1375 1.400 . S
C1372 H1357 0.960 . S
C1372 H1358 0.960 . S
C1372 H1359 0.960 . S
C1372 C1371 1.524 . S
C1373 C1370 1.403 . S
C1373 C1374 1.392 . S
C1373 C1377 1.495 . S
C1374 C1373 1.392 . S
C1374 C1375 1.385 . S
C1374 C1376 1.478 . S
C1375 H1369 0.930 . S
C1375 C1371 1.400 . S
C1375 C1374 1.385 . S
C1376 C1374 1.478 . S
C1376 C1378 1.381 . S
C1376 C1382 1.383 . S
C1377 C1373 1.495 . S
C1377 H1383 0.959 . S
C1377 H1384 0.961 . S
C1377 H1385 0.960 . S
C1378 C1376 1.381 . S
C1378 C1379 1.394 . S
C1378 H1386 0.930 . S
C1379 C1378 1.394 . S
C1379 C1380 1.383 . S
C1379 H1387 0.929 . S
C1380 C1379 1.383 . S
C1380 C1381 1.377 . S
C1381 H1365 0.930 . S
C1381 C1380 1.377 . S
C1381 C1382 1.379 . S
C1382 H1366 0.931 . S
C1382 C1376 1.383 . S
C1382 C1381 1.379 . S
H1383 C1377 0.959 . S
H1384 C1377 0.961 . S
H1385 C1377 0.960 . S
H1386 C1378 0.930 . S
H1387 C1379 0.929 . S
H1388 C1396 0.929 . S
H1389 C1398 0.930 . S
H1390 C1400 0.930 . S
H1391 C1403 0.929 . S
H1392 C1406 0.930 . S
H1393 C1408 0.960 . S
H1394 C1408 0.960 . S
H1395 C1408 0.960 . S
C1396 H1388 0.929 . S
C1396 C1397 1.377 . S
C1396 C1398 1.384 . S
C1397 C1396 1.377 . S
C1397 C1403 1.390 . S
C1398 H1389 0.930 . S
C1398 C1396 1.384 . S
C1398 C1399 1.372 . S
C1399 C1398 1.372 . S
C1399 C1400 1.400 . S
C1399 C1404 1.490 . S
C1400 H1390 0.930 . S
C1400 C1399 1.400 . S
C1400 C1403 1.386 . S
H1401 C1417 0.930 . S
H1402 C1418 0.931 . S
C1403 H1391 0.929 . S
C1403 C1397 1.390 . S
C1403 C1400 1.386 . S
C1404 C1399 1.490 . S
C1404 C1406 1.395 . S
C1404 C1407 1.403 . S
H1405 C1411 0.930 . S
C1406 H1392 0.930 . S
C1406 C1404 1.395 . S
C1406 C1409 1.403 . S
C1407 C1404 1.403 . S
C1407 C1408 1.524 . S
C1407 C1411 1.400 . S
C1408 H1393 0.960 . S
C1408 H1394 0.960 . S
C1408 H1395 0.960 . S
C1408 C1407 1.524 . S
C1409 C1406 1.403 . S
C1409 C1410 1.392 . S
C1409 C1413 1.495 . S
C1410 C1409 1.392 . S
C1410 C1411 1.385 . S
C1410 C1412 1.478 . S
C1411 H1405 0.930 . S
C1411 C1407 1.400 . S
C1411 C1410 1.385 . S
C1412 C1410 1.478 . S
C1412 C1414 1.381 . S
C1412 C1418 1.383 . S
C1413 C1409 1.495 . S
C1413 H1419 0.959 . S
C1413 H1420 0.961 . S
C1413 H1421 0.960 . S
C1414 C1412 1.381 . S
C1414 C1415 1.394 . S
C1414 H1422 0.930 . S
C1415 C1414 1.394 . S
C1415 C1416 1.383 . S
C1415 H1423 0.929 . S
C1416 C1415 1.383 . S
C1416 C1417 1.377 . S
C1417 H1401 0.930 . S
C1417 C1416 1.377 . S
C1417 C1418 1.379 . S
C1418 H1402 0.931 . S
C1418 C1412 1.383 . S
C1418 C1417 1.379 . S
H1419 C1413 0.959 . S
H1420 C1413 0.961 . S
H1421 C1413 0.960 . S
H1422 C1414 0.930 . S
H1423 C1415 0.929 . S
H1424 C1432 0.929 . S
H1425 C1434 0.930 . S
H1426 C1436 0.930 . S
H1427 C1439 0.929 . S
H1428 C1442 0.930 . S
H1429 C1444 0.960 . S
H1430 C1444 0.960 . S
H1431 C1444 0.960 . S
C1432 H1424 0.929 . S
C1432 C1433 1.377 . S
C1432 C1434 1.384 . S
C1433 C1432 1.377 . S
C1433 C1439 1.390 . S
C1434 H1425 0.930 . S
C1434 C1432 1.384 . S
C1434 C1435 1.372 . S
C1435 C1434 1.372 . S
C1435 C1436 1.400 . S
C1435 C1440 1.490 . S
C1436 H1426 0.930 . S
C1436 C1435 1.400 . S
C1436 C1439 1.386 . S
H1437 C1453 0.930 . S
H1438 C1454 0.931 . S
C1439 H1427 0.929 . S
C1439 C1433 1.390 . S
C1439 C1436 1.386 . S
C1440 C1435 1.490 . S
C1440 C1442 1.395 . S
C1440 C1443 1.403 . S
H1441 C1447 0.930 . S
C1442 H1428 0.930 . S
C1442 C1440 1.395 . S
C1442 C1445 1.403 . S
C1443 C1440 1.403 . S
C1443 C1444 1.524 . S
C1443 C1447 1.400 . S
C1444 H1429 0.960 . S
C1444 H1430 0.960 . S
C1444 H1431 0.960 . S
C1444 C1443 1.524 . S
C1445 C1442 1.403 . S
C1445 C1446 1.392 . S
C1445 C1449 1.495 . S
C1446 C1445 1.392 . S
C1446 C1447 1.385 . S
C1446 C1448 1.478 . S
C1447 H1441 0.930 . S
C1447 C1443 1.400 . S
C1447 C1446 1.385 . S
C1448 C1446 1.478 . S
C1448 C1450 1.381 . S
C1448 C1454 1.383 . S
C1449 C1445 1.495 . S
C1449 H1455 0.959 . S
C1449 H1456 0.961 . S
C1449 H1457 0.960 . S
C1450 C1448 1.381 . S
C1450 C1451 1.394 . S
C1450 H1458 0.930 . S
C1451 C1450 1.394 . S
C1451 C1452 1.383 . S
C1451 H1459 0.929 . S
C1452 C1451 1.383 . S
C1452 C1453 1.377 . S
C1453 H1437 0.930 . S
C1453 C1452 1.377 . S
C1453 C1454 1.379 . S
C1454 H1438 0.931 . S
C1454 C1448 1.383 . S
C1454 C1453 1.379 . S
H1455 C1449 0.959 . S
H1456 C1449 0.961 . S
H1457 C1449 0.960 . S
H1458 C1450 0.930 . S
H1459 C1451 0.929 . S
H1460 C1468 0.929 . S
H1461 C1470 0.930 . S
H1462 C1472 0.930 . S
H1463 C1475 0.929 . S
H1464 C1478 0.930 . S
H1465 C1480 0.960 . S
H1466 C1480 0.960 . S
H1467 C1480 0.960 . S
C1468 H1460 0.929 . S
C1468 C1469 1.377 . S
C1468 C1470 1.384 . S
C1469 C1468 1.377 . S
C1469 C1475 1.390 . S
C1470 H1461 0.930 . S
C1470 C1468 1.384 . S
C1470 C1471 1.372 . S
C1471 C1470 1.372 . S
C1471 C1472 1.400 . S
C1471 C1476 1.490 . S
C1472 H1462 0.930 . S
C1472 C1471 1.400 . S
C1472 C1475 1.386 . S
H1473 C1489 0.930 . S
H1474 C1490 0.931 . S
C1475 H1463 0.929 . S
C1475 C1469 1.390 . S
C1475 C1472 1.386 . S
C1476 C1471 1.490 . S
C1476 C1478 1.395 . S
C1476 C1479 1.403 . S
H1477 C1483 0.930 . S
C1478 H1464 0.930 . S
C1478 C1476 1.395 . S
C1478 C1481 1.403 . S
C1479 C1476 1.403 . S
C1479 C1480 1.524 . S
C1479 C1483 1.400 . S
C1480 H1465 0.960 . S
C1480 H1466 0.960 . S
C1480 H1467 0.960 . S
C1480 C1479 1.524 . S
C1481 C1478 1.403 . S
C1481 C1482 1.392 . S
C1481 C1485 1.495 . S
C1482 C1481 1.392 . S
C1482 C1483 1.385 . S
C1482 C1484 1.478 . S
C1483 H1477 0.930 . S
C1483 C1479 1.400 . S
C1483 C1482 1.385 . S
C1484 C1482 1.478 . S
C1484 C1486 1.381 . S
C1484 C1490 1.383 . S
C1485 C1481 1.495 . S
C1485 H1491 0.959 . S
C1485 H1492 0.961 . S
C1485 H1493 0.960 . S
C1486 C1484 1.381 . S
C1486 C1487 1.394 . S
C1486 H1494 0.930 . S
C1487 C1486 1.394 . S
C1487 C1488 1.383 . S
C1487 H1495 0.929 . S
C1488 C1487 1.383 . S
C1488 C1489 1.377 . S
C1489 H1473 0.930 . S
C1489 C1488 1.377 . S
C1489 C1490 1.379 . S
C1490 H1474 0.931 . S
C1490 C1484 1.383 . S
C1490 C1489 1.379 . S
H1491 C1485 0.959 . S
H1492 C1485 0.961 . S
H1493 C1485 0.960 . S
H1494 C1486 0.930 . S
H1495 C1487 0.929 . S
H1496 C1504 0.929 . S
H1497 C1506 0.930 . S
H1498 C1508 0.930 . S
H1499 C1511 0.929 . S
H1500 C1514 0.930 . S
H1501 C1516 0.960 . S
H1502 C1516 0.960 . S
H1503 C1516 0.960 . S
C1504 H1496 0.929 . S
C1504 C1505 1.377 . S
C1504 C1506 1.384 . S
C1505 C1504 1.377 . S
C1505 C1511 1.390 . S
C1506 H1497 0.930 . S
C1506 C1504 1.384 . S
C1506 C1507 1.372 . S
C1507 C1506 1.372 . S
C1507 C1508 1.400 . S
C1507 C1512 1.490 . S
C1508 H1498 0.930 . S
C1508 C1507 1.400 . S
C1508 C1511 1.386 . S
H1509 C1525 0.930 . S
H1510 C1526 0.931 . S
C1511 H1499 0.929 . S
C1511 C1505 1.390 . S
C1511 C1508 1.386 . S
C1512 C1507 1.490 . S
C1512 C1514 1.395 . S
C1512 C1515 1.403 . S
H1513 C1519 0.930 . S
C1514 H1500 0.930 . S
C1514 C1512 1.395 . S
C1514 C1517 1.403 . S
C1515 C1512 1.403 . S
C1515 C1516 1.524 . S
C1515 C1519 1.400 . S
C1516 H1501 0.960 . S
C1516 H1502 0.960 . S
C1516 H1503 0.960 . S
C1516 C1515 1.524 . S
C1517 C1514 1.403 . S
C1517 C1518 1.392 . S
C1517 C1521 1.495 . S
C1518 C1517 1.392 . S
C1518 C1519 1.385 . S
C1518 C1520 1.478 . S
C1519 H1513 0.930 . S
C1519 C1515 1.400 . S
C1519 C1518 1.385 . S
C1520 C1518 1.478 . S
C1520 C1522 1.381 . S
C1520 C1526 1.383 . S
C1521 C1517 1.495 . S
C1521 H1527 0.959 . S
C1521 H1528 0.961 . S
C1521 H1529 0.960 . S
C1522 C1520 1.381 . S
C1522 C1523 1.394 . S
C1522 H1530 0.930 . S
C1523 C1522 1.394 . S
C1523 C1524 1.383 . S
C1523 H1531 0.929 . S
C1524 C1523 1.383 . S
C1524 C1525 1.377 . S
C1525 H1509 0.930 . S
C1525 C1524 1.377 . S
C1525 C1526 1.379 . S
C1526 H1510 0.931 . S
C1526 C1520 1.383 . S
C1526 C1525 1.379 . S
H1527 C1521 0.959 . S
H1528 C1521 0.961 . S
H1529 C1521 0.960 . S
H1530 C1522 0.930 . S
H1531 C1523 0.929 . S
H1532 C1540 0.929 . S
H1533 C1542 0.930 . S
H1534 C1544 0.930 . S
H1535 C1547 0.929 . S
H1536 C1550 0.930 . S
H1537 C1552 0.960 . S
H1538 C1552 0.960 . S
H1539 C1552 0.960 . S
C1540 H1532 0.929 . S
C1540 C1541 1.377 . S
C1540 C1542 1.384 . S
C1541 C1540 1.377 . S
C1541 C1547 1.390 . S
C1542 H1533 0.930 . S
C1542 C1540 1.384 . S
C1542 C1543 1.372 . S
C1543 C1542 1.372 . S
C1543 C1544 1.400 . S
C1543 C1548 1.490 . S
C1544 H1534 0.930 . S
C1544 C1543 1.400 . S
C1544 C1547 1.386 . S
H1545 C1561 0.930 . S
H1546 C1562 0.931 . S
C1547 H1535 0.929 . S
C1547 C1541 1.390 . S
C1547 C1544 1.386 . S
C1548 C1543 1.490 . S
C1548 C1550 1.395 . S
C1548 C1551 1.403 . S
H1549 C1555 0.930 . S
C1550 H1536 0.930 . S
C1550 C1548 1.395 . S
C1550 C1553 1.403 . S
C1551 C1548 1.403 . S
C1551 C1552 1.524 . S
C1551 C1555 1.400 . S
C1552 H1537 0.960 . S
C1552 H1538 0.960 . S
C1552 H1539 0.960 . S
C1552 C1551 1.524 . S
C1553 C1550 1.403 . S
C1553 C1554 1.392 . S
C1553 C1557 1.495 . S
C1554 C1553 1.392 . S
C1554 C1555 1.385 . S
C1554 C1556 1.478 . S
C1555 H1549 0.930 . S
C1555 C1551 1.400 . S
C1555 C1554 1.385 . S
C1556 C1554 1.478 . S
C1556 C1558 1.381 . S
C1556 C1562 1.383 1_455 S
C1557 C1553 1.495 . S
C1557 H1563 0.959 . S
C1557 H1564 0.961 . S
C1557 H1565 0.960 . S
C1558 C1556 1.381 . S
C1558 C1559 1.394 1_455 S
C1558 H1566 0.930 . S
C1559 C1558 1.394 1_655 S
C1559 C1560 1.383 . S
C1559 H1567 0.929 . S
C1560 C1559 1.383 . S
C1560 C1561 1.377 . S
C1561 H1545 0.930 . S
C1561 C1560 1.377 . S
C1561 C1562 1.379 . S
C1562 H1546 0.931 . S
C1562 C1556 1.383 1_655 S
C1562 C1561 1.379 . S
H1563 C1557 0.959 . S
H1564 C1557 0.961 . S
H1565 C1557 0.960 . S
H1566 C1558 0.930 . S
H1567 C1559 0.929 . S
H1568 C1576 0.929 . S
H1569 C1578 0.930 . S
H1570 C1580 0.930 . S
H1571 C1583 0.929 . S
H1572 C1586 0.930 . S
H1573 C1588 0.960 . S
H1574 C1588 0.960 . S
H1575 C1588 0.960 . S
C1576 H1568 0.929 . S
C1576 C1577 1.377 . S
C1576 C1578 1.384 . S
C1577 C1576 1.377 . S
C1577 C1583 1.390 . S
C1578 H1569 0.930 . S
C1578 C1576 1.384 . S
C1578 C1579 1.372 . S
C1579 C1578 1.372 . S
C1579 C1580 1.400 . S
C1579 C1584 1.490 . S
C1580 H1570 0.930 . S
C1580 C1579 1.400 . S
C1580 C1583 1.386 . S
H1581 C1597 0.930 . S
H1582 C1598 0.931 . S
C1583 H1571 0.929 . S
C1583 C1577 1.390 . S
C1583 C1580 1.386 . S
C1584 C1579 1.490 . S
C1584 C1586 1.395 . S
C1584 C1587 1.403 . S
H1585 C1591 0.930 . S
C1586 H1572 0.930 . S
C1586 C1584 1.395 . S
C1586 C1589 1.403 . S
C1587 C1584 1.403 . S
C1587 C1588 1.524 . S
C1587 C1591 1.400 . S
C1588 H1573 0.960 . S
C1588 H1574 0.960 . S
C1588 H1575 0.960 . S
C1588 C1587 1.524 . S
C1589 C1586 1.403 . S
C1589 C1590 1.392 . S
C1589 C1593 1.495 . S
C1590 C1589 1.392 . S
C1590 C1591 1.385 . S
C1590 C1592 1.478 . S
C1591 H1585 0.930 . S
C1591 C1587 1.400 . S
C1591 C1590 1.385 . S
C1592 C1590 1.478 . S
C1592 C1594 1.381 . S
C1592 C1598 1.383 . S
C1593 C1589 1.495 . S
C1593 H1599 0.959 . S
C1593 H1600 0.961 . S
C1593 H1601 0.960 . S
C1594 C1592 1.381 . S
C1594 C1595 1.394 . S
C1594 H1602 0.930 . S
C1595 C1594 1.394 . S
C1595 C1596 1.383 . S
C1595 H1603 0.929 . S
C1596 C1595 1.383 . S
C1596 C1597 1.377 . S
C1597 H1581 0.930 . S
C1597 C1596 1.377 . S
C1597 C1598 1.379 . S
C1598 H1582 0.931 . S
C1598 C1592 1.383 . S
C1598 C1597 1.379 . S
H1599 C1593 0.959 . S
H1600 C1593 0.961 . S
H1601 C1593 0.960 . S
H1602 C1594 0.930 . S
H1603 C1595 0.929 . S
H1604 C1612 0.929 . S
H1605 C1614 0.930 . S
H1606 C1616 0.930 . S
H1607 C1619 0.929 . S
H1608 C1622 0.930 . S
H1609 C1624 0.960 . S
H1610 C1624 0.960 . S
H1611 C1624 0.960 . S
C1612 H1604 0.929 . S
C1612 C1613 1.377 . S
C1612 C1614 1.384 . S
C1613 C1612 1.377 . S
C1613 C1619 1.390 . S
C1614 H1605 0.930 . S
C1614 C1612 1.384 . S
C1614 C1615 1.372 . S
C1615 C1614 1.372 . S
C1615 C1616 1.400 . S
C1615 C1620 1.490 . S
C1616 H1606 0.930 . S
C1616 C1615 1.400 . S
C1616 C1619 1.386 . S
H1617 C1633 0.930 . S
H1618 C1634 0.931 . S
C1619 H1607 0.929 . S
C1619 C1613 1.390 . S
C1619 C1616 1.386 . S
C1620 C1615 1.490 . S
C1620 C1622 1.395 . S
C1620 C1623 1.403 . S
H1621 C1627 0.925 . S
C1622 H1608 0.930 . S
C1622 C1620 1.395 . S
C1622 C1625 1.403 . S
C1623 C1620 1.403 . S
C1623 C1624 1.524 . S
C1623 C1627 1.400 . S
C1624 H1609 0.960 . S
C1624 H1610 0.960 . S
C1624 H1611 0.960 . S
C1624 C1623 1.524 . S
C1625 C1622 1.403 . S
C1625 C1626 1.392 . S
C1625 C1629 1.495 . S
C1626 C1625 1.392 . S
C1626 C1627 1.385 . S
C1626 C1628 1.478 . S
C1627 H1621 0.925 . S
C1627 C1623 1.400 . S
C1627 C1626 1.385 . S
C1628 C1626 1.478 . S
C1628 C1630 1.381 . S
C1628 C1634 1.383 1_655 S
C1629 C1625 1.495 . S
C1629 H1635 0.959 . S
C1629 H1636 0.961 . S
C1629 H1637 0.960 . S
C1630 C1628 1.381 . S
C1630 C1631 1.394 1_655 S
C1630 H1638 0.930 . S
C1631 C1630 1.394 1_455 S
C1631 C1632 1.383 . S
C1631 H1639 0.929 . S
C1632 C1631 1.383 . S
C1632 C1633 1.377 . S
C1633 H1617 0.930 . S
C1633 C1632 1.377 . S
C1633 C1634 1.379 . S
C1634 H1618 0.931 . S
C1634 C1628 1.383 1_455 S
C1634 C1633 1.379 . S
H1635 C1629 0.959 . S
H1636 C1629 0.961 . S
H1637 C1629 0.960 . S
H1638 C1630 0.930 . S
H1639 C1631 0.929 . S
H1640 C1648 0.929 . S
H1641 C1650 0.930 . S
H1642 C1652 0.930 . S
H1643 C1655 0.929 . S
H1644 C1658 0.930 . S
H1645 C1660 0.960 . S
H1646 C1660 0.960 . S
H1647 C1660 0.960 . S
C1648 H1640 0.929 . S
C1648 C1649 1.377 . S
C1648 C1650 1.384 . S
C1649 C1648 1.377 . S
C1649 C1655 1.390 . S
C1650 H1641 0.930 . S
C1650 C1648 1.384 . S
C1650 C1651 1.372 . S
C1651 C1650 1.372 . S
C1651 C1652 1.400 . S
C1651 C1656 1.490 . S
C1652 H1642 0.930 . S
C1652 C1651 1.400 . S
C1652 C1655 1.386 . S
H1653 C1669 0.930 . S
H1654 C1670 0.931 . S
C1655 H1643 0.929 . S
C1655 C1649 1.390 . S
C1655 C1652 1.386 . S
C1656 C1651 1.490 . S
C1656 C1658 1.395 . S
C1656 C1659 1.403 . S
H1657 C1663 0.930 . S
C1658 H1644 0.930 . S
C1658 C1656 1.395 . S
C1658 C1661 1.403 . S
C1659 C1656 1.403 . S
C1659 C1660 1.524 . S
C1659 C1663 1.400 . S
C1660 H1645 0.960 . S
C1660 H1646 0.960 . S
C1660 H1647 0.960 . S
C1660 C1659 1.524 . S
C1661 C1658 1.403 . S
C1661 C1662 1.392 . S
C1661 C1665 1.495 . S
C1662 C1661 1.392 . S
C1662 C1663 1.385 . S
C1662 C1664 1.478 . S
C1663 H1657 0.930 . S
C1663 C1659 1.400 . S
C1663 C1662 1.385 . S
C1664 C1662 1.478 . S
C1664 C1666 1.381 . S
C1664 C1670 1.383 . S
C1665 C1661 1.495 . S
C1665 H1671 0.959 . S
C1665 H1672 0.961 . S
C1665 H1673 0.960 . S
C1666 C1664 1.381 . S
C1666 C1667 1.394 . S
C1666 H1674 0.930 . S
C1667 C1666 1.394 . S
C1667 C1668 1.383 . S
C1667 H1675 0.929 . S
C1668 C1667 1.383 . S
C1668 C1669 1.377 . S
C1669 H1653 0.930 . S
C1669 C1668 1.377 . S
C1669 C1670 1.379 . S
C1670 H1654 0.931 . S
C1670 C1664 1.383 . S
C1670 C1669 1.379 . S
H1671 C1665 0.959 . S
H1672 C1665 0.961 . S
H1673 C1665 0.960 . S
H1674 C1666 0.930 . S
H1675 C1667 0.929 . S
H1676 C1684 0.929 . S
H1677 C1686 0.930 . S
H1678 C1688 0.930 . S
H1679 C1691 0.929 . S
H1680 C1694 0.930 . S
H1681 C1696 0.960 . S
H1682 C1696 0.960 . S
H1683 C1696 0.960 . S
C1684 H1676 0.929 . S
C1684 C1685 1.377 . S
C1684 C1686 1.384 . S
C1685 C1684 1.377 . S
C1685 C1691 1.390 . S
C1686 H1677 0.930 . S
C1686 C1684 1.384 . S
C1686 C1687 1.372 . S
C1687 C1686 1.372 . S
C1687 C1688 1.400 . S
C1687 C1692 1.490 . S
C1688 H1678 0.930 . S
C1688 C1687 1.400 . S
C1688 C1691 1.386 . S
H1689 C1705 0.930 . S
H1690 C1706 0.931 . S
C1691 H1679 0.929 . S
C1691 C1685 1.390 . S
C1691 C1688 1.386 . S
C1692 C1687 1.490 . S
C1692 C1694 1.395 . S
C1692 C1695 1.403 . S
H1693 C1699 0.930 . S
C1694 H1680 0.930 . S
C1694 C1692 1.395 . S
C1694 C1697 1.403 . S
C1695 C1692 1.403 . S
C1695 C1696 1.524 . S
C1695 C1699 1.400 . S
C1696 H1681 0.960 . S
C1696 H1682 0.960 . S
C1696 H1683 0.960 . S
C1696 C1695 1.524 . S
C1697 C1694 1.403 . S
C1697 C1698 1.392 . S
C1697 C1701 1.495 . S
C1698 C1697 1.392 . S
C1698 C1699 1.385 . S
C1698 C1700 1.478 . S
C1699 H1693 0.930 . S
C1699 C1695 1.400 . S
C1699 C1698 1.385 . S
C1700 C1698 1.478 . S
C1700 C1702 1.381 . S
C1700 C1706 1.383 . S
C1701 C1697 1.495 . S
C1701 H1707 0.959 . S
C1701 H1708 0.961 . S
C1701 H1709 0.960 . S
C1702 C1700 1.381 . S
C1702 C1703 1.394 . S
C1702 H1710 0.930 . S
C1703 C1702 1.394 . S
C1703 C1704 1.383 . S
C1703 H1711 0.929 . S
C1704 C1703 1.383 . S
C1704 C1705 1.377 . S
C1705 H1689 0.930 . S
C1705 C1704 1.377 . S
C1705 C1706 1.379 . S
C1706 H1690 0.931 . S
C1706 C1700 1.383 . S
C1706 C1705 1.379 . S
H1707 C1701 0.959 . S
H1708 C1701 0.961 . S
H1709 C1701 0.960 . S
H1710 C1702 0.930 . S
H1711 C1703 0.929 . S
H1712 C1720 0.929 . S
H1713 C1722 0.930 . S
H1714 C1724 0.930 . S
H1715 C1727 0.929 . S
H1716 C1730 0.930 . S
H1717 C1732 0.960 . S
H1718 C1732 0.960 . S
H1719 C1732 0.960 . S
C1720 H1712 0.929 . S
C1720 C1721 1.377 . S
C1720 C1722 1.384 . S
C1721 C1720 1.377 . S
C1721 C1727 1.390 . S
C1722 H1713 0.930 . S
C1722 C1720 1.384 . S
C1722 C1723 1.372 . S
C1723 C1722 1.372 . S
C1723 C1724 1.400 . S
C1723 C1728 1.490 . S
C1724 H1714 0.930 . S
C1724 C1723 1.400 . S
C1724 C1727 1.386 . S
H1725 C1741 0.930 . S
H1726 C1742 0.931 . S
C1727 H1715 0.929 . S
C1727 C1721 1.390 . S
C1727 C1724 1.386 . S
C1728 C1723 1.490 . S
C1728 C1730 1.395 . S
C1728 C1731 1.403 . S
H1729 C1735 0.930 . S
C1730 H1716 0.930 . S
C1730 C1728 1.395 . S
C1730 C1733 1.403 . S
C1731 C1728 1.403 . S
C1731 C1732 1.524 . S
C1731 C1735 1.400 . S
C1732 H1717 0.960 . S
C1732 H1718 0.960 . S
C1732 H1719 0.960 . S
C1732 C1731 1.524 . S
C1733 C1730 1.403 . S
C1733 C1734 1.392 . S
C1733 C1737 1.495 . S
C1734 C1733 1.392 . S
C1734 C1735 1.385 . S
C1734 C1736 1.478 . S
C1735 H1729 0.930 . S
C1735 C1731 1.400 . S
C1735 C1734 1.385 . S
C1736 C1734 1.478 . S
C1736 C1738 1.381 . S
C1736 C1742 1.383 . S
C1737 C1733 1.495 . S
C1737 H1743 0.959 . S
C1737 H1744 0.961 . S
C1737 H1745 0.960 . S
C1738 C1736 1.381 . S
C1738 C1739 1.394 . S
C1738 H1746 0.930 . S
C1739 C1738 1.394 . S
C1739 C1740 1.383 . S
C1739 H1747 0.929 . S
C1740 C1739 1.383 . S
C1740 C1741 1.377 . S
C1741 H1725 0.930 . S
C1741 C1740 1.377 . S
C1741 C1742 1.379 . S
C1742 H1726 0.931 . S
C1742 C1736 1.383 . S
C1742 C1741 1.379 . S
H1743 C1737 0.959 . S
H1744 C1737 0.961 . S
H1745 C1737 0.960 . S
H1746 C1738 0.930 . S
H1747 C1739 0.929 . S
H1748 C1756 0.929 . S
H1749 C1758 0.930 . S
H1750 C1760 0.930 . S
H1751 C1763 0.929 . S
H1752 C1766 0.930 . S
H1753 C1768 0.960 . S
H1754 C1768 0.960 . S
H1755 C1768 0.960 . S
C1756 H1748 0.929 . S
C1756 C1757 1.377 . S
C1756 C1758 1.384 . S
C1757 C1756 1.377 . S
C1757 C1763 1.390 . S
C1758 H1749 0.930 . S
C1758 C1756 1.384 . S
C1758 C1759 1.372 . S
C1759 C1758 1.372 . S
C1759 C1760 1.400 . S
C1759 C1764 1.490 . S
C1760 H1750 0.930 . S
C1760 C1759 1.400 . S
C1760 C1763 1.386 . S
H1761 C1777 0.930 . S
H1762 C1778 0.931 . S
C1763 H1751 0.929 . S
C1763 C1757 1.390 . S
C1763 C1760 1.386 . S
C1764 C1759 1.490 . S
C1764 C1766 1.395 . S
C1764 C1767 1.403 . S
H1765 C1771 0.930 . S
C1766 H1752 0.930 . S
C1766 C1764 1.395 . S
C1766 C1769 1.403 . S
C1767 C1764 1.403 . S
C1767 C1768 1.524 . S
C1767 C1771 1.400 . S
C1768 H1753 0.960 . S
C1768 H1754 0.960 . S
C1768 H1755 0.960 . S
C1768 C1767 1.524 . S
C1769 C1766 1.403 . S
C1769 C1770 1.392 . S
C1769 C1773 1.495 . S
C1770 C1769 1.392 . S
C1770 C1771 1.385 . S
C1770 C1772 1.478 . S
C1771 H1765 0.930 . S
C1771 C1767 1.400 . S
C1771 C1770 1.385 . S
C1772 C1770 1.478 . S
C1772 C1774 1.381 . S
C1772 C1778 1.383 . S
C1773 C1769 1.495 . S
C1773 H1779 0.959 . S
C1773 H1780 0.961 . S
C1773 H1781 0.960 . S
C1774 C1772 1.381 . S
C1774 C1775 1.394 . S
C1774 H1782 0.930 . S
C1775 C1774 1.394 . S
C1775 C1776 1.383 . S
C1775 H1783 0.929 . S
C1776 C1775 1.383 . S
C1776 C1777 1.377 . S
C1777 H1761 0.930 . S
C1777 C1776 1.377 . S
C1777 C1778 1.379 . S
C1778 H1762 0.931 . S
C1778 C1772 1.383 . S
C1778 C1777 1.379 . S
H1779 C1773 0.959 . S
H1780 C1773 0.961 . S
H1781 C1773 0.960 . S
H1782 C1774 0.930 . S
H1783 C1775 0.929 . S
H1784 C1792 0.929 . S
H1785 C1794 0.930 . S
H1786 C1796 0.930 . S
H1787 C1799 0.929 . S
H1788 C1802 0.930 . S
H1789 C1804 0.960 . S
H1790 C1804 0.960 . S
H1791 C1804 0.960 . S
C1792 H1784 0.929 . S
C1792 C1793 1.377 . S
C1792 C1794 1.384 . S
C1793 C1792 1.377 . S
C1793 C1799 1.390 . S
C1794 H1785 0.930 . S
C1794 C1792 1.384 . S
C1794 C1795 1.372 . S
C1795 C1794 1.372 . S
C1795 C1796 1.400 . S
C1795 C1800 1.490 . S
C1796 H1786 0.930 . S
C1796 C1795 1.400 . S
C1796 C1799 1.386 . S
H1797 C1813 0.930 . S
H1798 C1814 0.931 . S
C1799 H1787 0.929 . S
C1799 C1793 1.390 . S
C1799 C1796 1.386 . S
C1800 C1795 1.490 . S
C1800 C1802 1.395 . S
C1800 C1803 1.403 . S
H1801 C1807 0.930 . S
C1802 H1788 0.930 . S
C1802 C1800 1.395 . S
C1802 C1805 1.403 . S
C1803 C1800 1.403 . S
C1803 C1804 1.524 . S
C1803 C1807 1.400 . S
C1804 H1789 0.960 . S
C1804 H1790 0.960 . S
C1804 H1791 0.960 . S
C1804 C1803 1.524 . S
C1805 C1802 1.403 . S
C1805 C1806 1.392 . S
C1805 C1809 1.495 . S
C1806 C1805 1.392 . S
C1806 C1807 1.385 . S
C1806 C1808 1.478 . S
C1807 H1801 0.930 . S
C1807 C1803 1.400 . S
C1807 C1806 1.385 . S
C1808 C1806 1.478 . S
C1808 C1810 1.381 . S
C1808 C1814 1.383 . S
C1809 C1805 1.495 . S
C1809 H1815 0.959 . S
C1809 H1816 0.961 . S
C1809 H1817 0.960 . S
C1810 C1808 1.381 . S
C1810 C1811 1.394 . S
C1810 H1818 0.930 . S
C1811 C1810 1.394 . S
C1811 C1812 1.383 . S
C1811 H1819 0.929 . S
C1812 C1811 1.383 . S
C1812 C1813 1.377 . S
C1813 H1797 0.930 . S
C1813 C1812 1.377 . S
C1813 C1814 1.379 . S
C1814 H1798 0.931 . S
C1814 C1808 1.383 . S
C1814 C1813 1.379 . S
H1815 C1809 0.959 . S
H1816 C1809 0.961 . S
H1817 C1809 0.960 . S
H1818 C1810 0.930 . S
H1819 C1811 0.929 . S
H1820 C1828 0.929 . S
H1821 C1830 0.930 . S
H1822 C1832 0.930 . S
H1823 C1835 0.929 . S
H1824 C1838 0.930 . S
H1825 C1840 0.960 . S
H1826 C1840 0.960 . S
H1827 C1840 0.960 . S
C1828 H1820 0.929 . S
C1828 C1829 1.377 . S
C1828 C1830 1.384 1_455 S
C1829 C1828 1.377 . S
C1829 C1835 1.390 . S
C1830 H1821 0.930 . S
C1830 C1828 1.384 1_655 S
C1830 C1831 1.372 . S
C1831 C1830 1.372 . S
C1831 C1832 1.400 1_655 S
C1831 C1836 1.490 . S
C1832 H1822 0.930 . S
C1832 C1831 1.400 1_455 S
C1832 C1835 1.386 . S
H1833 C1849 0.930 . S
H1834 C1850 0.931 . S
C1835 H1823 0.929 . S
C1835 C1829 1.390 . S
C1835 C1832 1.386 . S
C1836 C1831 1.490 . S
C1836 C1838 1.395 . S
C1836 C1839 1.403 . S
H1837 C1843 0.930 . S
C1838 H1824 0.930 . S
C1838 C1836 1.395 . S
C1838 C1841 1.403 . S
C1839 C1836 1.403 . S
C1839 C1840 1.524 . S
C1839 C1843 1.400 . S
C1840 H1825 0.960 . S
C1840 H1826 0.960 . S
C1840 H1827 0.960 . S
C1840 C1839 1.524 . S
C1841 C1838 1.403 . S
C1841 C1842 1.392 . S
C1841 C1845 1.495 . S
C1842 C1841 1.392 . S
C1842 C1843 1.385 . S
C1842 C1844 1.478 . S
C1843 H1837 0.930 . S
C1843 C1839 1.400 . S
C1843 C1842 1.385 . S
C1844 C1842 1.478 . S
C1844 C1846 1.381 . S
C1844 C1850 1.383 . S
C1845 C1841 1.495 . S
C1845 H1851 0.959 . S
C1845 H1852 0.961 . S
C1845 H1853 0.960 . S
C1846 C1844 1.381 . S
C1846 C1847 1.394 . S
C1846 H1854 0.930 . S
C1847 C1846 1.394 . S
C1847 C1848 1.383 . S
C1847 H1855 0.929 . S
C1848 C1847 1.383 . S
C1848 C1849 1.377 . S
C1849 H1833 0.930 . S
C1849 C1848 1.377 . S
C1849 C1850 1.379 . S
C1850 H1834 0.931 . S
C1850 C1844 1.383 . S
C1850 C1849 1.379 . S
H1851 C1845 0.959 . S
H1852 C1845 0.961 . S
H1853 C1845 0.960 . S
H1854 C1846 0.930 . S
H1855 C1847 0.929 . S
H1856 C1864 0.929 . S
H1857 C1866 0.930 . S
H1858 C1868 0.930 . S
H1859 C1871 0.929 . S
H1860 C1874 0.930 . S
H1861 C1876 0.960 . S
H1862 C1876 0.960 . S
H1863 C1876 0.960 . S
C1864 H1856 0.929 . S
C1864 C1865 1.377 . S
C1864 C1866 1.384 . S
C1865 C1864 1.377 . S
C1865 C1871 1.390 . S
C1866 H1857 0.930 . S
C1866 C1864 1.384 . S
C1866 C1867 1.372 . S
C1867 C1866 1.372 . S
C1867 C1868 1.400 . S
C1867 C1872 1.490 . S
C1868 H1858 0.930 . S
C1868 C1867 1.400 . S
C1868 C1871 1.386 . S
H1869 C1885 0.930 . S
H1870 C1886 0.931 . S
C1871 H1859 0.929 . S
C1871 C1865 1.390 . S
C1871 C1868 1.386 . S
C1872 C1867 1.490 . S
C1872 C1874 1.395 . S
C1872 C1875 1.403 . S
H1873 C1879 0.930 . S
C1874 H1860 0.930 . S
C1874 C1872 1.395 . S
C1874 C1877 1.403 . S
C1875 C1872 1.403 . S
C1875 C1876 1.524 . S
C1875 C1879 1.400 . S
C1876 H1861 0.960 . S
C1876 H1862 0.960 . S
C1876 H1863 0.960 . S
C1876 C1875 1.524 . S
C1877 C1874 1.403 . S
C1877 C1878 1.392 . S
C1877 C1881 1.495 . S
C1878 C1877 1.392 . S
C1878 C1879 1.385 . S
C1878 C1880 1.478 . S
C1879 H1873 0.930 . S
C1879 C1875 1.400 . S
C1879 C1878 1.385 . S
C1880 C1878 1.478 . S
C1880 C1882 1.381 . S
C1880 C1886 1.383 . S
C1881 C1877 1.495 . S
C1881 H1887 0.959 . S
C1881 H1888 0.961 . S
C1881 H1889 0.960 . S
C1882 C1880 1.381 . S
C1882 C1883 1.394 . S
C1882 H1890 0.930 . S
C1883 C1882 1.394 . S
C1883 C1884 1.383 . S
C1883 H1891 0.929 . S
C1884 C1883 1.383 . S
C1884 C1885 1.377 . S
C1885 H1869 0.930 . S
C1885 C1884 1.377 . S
C1885 C1886 1.379 . S
C1886 H1870 0.931 . S
C1886 C1880 1.383 . S
C1886 C1885 1.379 . S
H1887 C1881 0.959 . S
H1888 C1881 0.961 . S
H1889 C1881 0.960 . S
H1890 C1882 0.930 . S
H1891 C1883 0.929 . S
H1892 C1900 0.929 . S
H1893 C1902 0.930 . S
H1894 C1904 0.930 . S
H1895 C1907 0.929 . S
H1896 C1910 0.930 . S
H1897 C1912 0.960 . S
H1898 C1912 0.960 . S
H1899 C1912 0.960 . S
C1900 H1892 0.929 . S
C1900 C1901 1.377 . S
C1900 C1902 1.384 . S
C1901 C1900 1.377 . S
C1901 C1907 1.390 . S
C1902 H1893 0.930 . S
C1902 C1900 1.384 . S
C1902 C1903 1.372 . S
C1903 C1902 1.372 . S
C1903 C1904 1.400 . S
C1903 C1908 1.490 . S
C1904 H1894 0.930 . S
C1904 C1903 1.400 . S
C1904 C1907 1.386 . S
H1905 C1921 0.930 . S
H1906 C1922 0.931 . S
C1907 H1895 0.929 . S
C1907 C1901 1.390 . S
C1907 C1904 1.386 . S
C1908 C1903 1.490 . S
C1908 C1910 1.395 . S
C1908 C1911 1.403 . S
H1909 C1915 0.930 . S
C1910 H1896 0.930 . S
C1910 C1908 1.395 . S
C1910 C1913 1.403 . S
C1911 C1908 1.403 . S
C1911 C1912 1.524 . S
C1911 C1915 1.400 . S
C1912 H1897 0.960 . S
C1912 H1898 0.960 . S
C1912 H1899 0.960 . S
C1912 C1911 1.524 . S
C1913 C1910 1.403 . S
C1913 C1914 1.392 . S
C1913 C1917 1.495 . S
C1914 C1913 1.392 . S
C1914 C1915 1.385 . S
C1914 C1916 1.478 . S
C1915 H1909 0.930 . S
C1915 C1911 1.400 . S
C1915 C1914 1.385 . S
C1916 C1914 1.478 . S
C1916 C1918 1.381 . S
C1916 C1922 1.383 . S
C1917 C1913 1.495 . S
C1917 H1923 0.959 . S
C1917 H1924 0.961 . S
C1917 H1925 0.960 . S
C1918 C1916 1.381 . S
C1918 C1919 1.394 . S
C1918 H1926 0.930 . S
C1919 C1918 1.394 . S
C1919 C1920 1.383 . S
C1919 H1927 0.929 . S
C1920 C1919 1.383 . S
C1920 C1921 1.377 . S
C1921 H1905 0.930 . S
C1921 C1920 1.377 . S
C1921 C1922 1.379 . S
C1922 H1906 0.931 . S
C1922 C1916 1.383 . S
C1922 C1921 1.379 . S
H1923 C1917 0.959 . S
H1924 C1917 0.961 . S
H1925 C1917 0.960 . S
H1926 C1918 0.930 . S
H1927 C1919 0.929 . S
H1928 C1936 0.929 . S
H1929 C1938 0.930 . S
H1930 C1940 0.930 . S
H1931 C1943 0.929 . S
H1932 C1946 0.930 . S
H1933 C1948 0.960 . S
H1934 C1948 0.960 . S
H1935 C1948 0.960 . S
C1936 H1928 0.929 . S
C1936 C1937 1.377 . S
C1936 C1938 1.384 . S
C1937 C1936 1.377 . S
C1937 C1943 1.390 . S
C1938 H1929 0.930 . S
C1938 C1936 1.384 . S
C1938 C1939 1.372 . S
C1939 C1938 1.372 . S
C1939 C1940 1.400 . S
C1939 C1944 1.490 . S
C1940 H1930 0.930 . S
C1940 C1939 1.400 . S
C1940 C1943 1.386 . S
H1941 C1957 0.930 . S
H1942 C1958 0.931 . S
C1943 H1931 0.929 . S
C1943 C1937 1.390 . S
C1943 C1940 1.386 . S
C1944 C1939 1.490 . S
C1944 C1946 1.395 . S
C1944 C1947 1.403 . S
H1945 C1951 0.930 . S
C1946 H1932 0.930 . S
C1946 C1944 1.395 . S
C1946 C1949 1.403 . S
C1947 C1944 1.403 . S
C1947 C1948 1.524 . S
C1947 C1951 1.400 . S
C1948 H1933 0.960 . S
C1948 H1934 0.960 . S
C1948 H1935 0.960 . S
C1948 C1947 1.524 . S
C1949 C1946 1.403 . S
C1949 C1950 1.392 . S
C1949 C1953 1.495 . S
C1950 C1949 1.392 . S
C1950 C1951 1.385 . S
C1950 C1952 1.478 . S
C1951 H1945 0.930 . S
C1951 C1947 1.400 . S
C1951 C1950 1.385 . S
C1952 C1950 1.478 . S
C1952 C1954 1.381 . S
C1952 C1958 1.383 . S
C1953 C1949 1.495 . S
C1953 H1959 0.959 . S
C1953 H1960 0.961 . S
C1953 H1961 0.960 . S
C1954 C1952 1.381 . S
C1954 C1955 1.394 . S
C1954 H1962 0.930 . S
C1955 C1954 1.394 . S
C1955 C1956 1.383 . S
C1955 H1963 0.929 . S
C1956 C1955 1.383 . S
C1956 C1957 1.377 . S
C1957 H1941 0.930 . S
C1957 C1956 1.377 . S
C1957 C1958 1.379 . S
C1958 H1942 0.931 . S
C1958 C1952 1.383 . S
C1958 C1957 1.379 . S
H1959 C1953 0.959 . S
H1960 C1953 0.961 . S
H1961 C1953 0.960 . S
H1962 C1954 0.930 . S
H1963 C1955 0.929 . S
H1964 C1972 0.929 . S
H1965 C1974 0.930 . S
H1966 C1976 0.930 . S
H1967 C1979 0.929 . S
H1968 C1982 0.930 . S
H1969 C1984 0.960 . S
H1970 C1984 0.960 . S
H1971 C1984 0.960 . S
C1972 H1964 0.929 . S
C1972 C1973 1.377 . S
C1972 C1974 1.384 . S
C1973 C1972 1.377 . S
C1973 C1979 1.390 . S
C1974 H1965 0.930 . S
C1974 C1972 1.384 . S
C1974 C1975 1.372 . S
C1975 C1974 1.372 . S
C1975 C1976 1.400 . S
C1975 C1980 1.490 . S
C1976 H1966 0.930 . S
C1976 C1975 1.400 . S
C1976 C1979 1.386 . S
H1977 C1993 0.930 . S
H1978 C1994 0.931 . S
C1979 H1967 0.929 . S
C1979 C1973 1.390 . S
C1979 C1976 1.386 . S
C1980 C1975 1.490 . S
C1980 C1982 1.395 . S
C1980 C1983 1.403 . S
H1981 C1987 0.930 . S
C1982 H1968 0.930 . S
C1982 C1980 1.395 . S
C1982 C1985 1.403 . S
C1983 C1980 1.403 . S
C1983 C1984 1.524 . S
C1983 C1987 1.400 . S
C1984 H1969 0.960 . S
C1984 H1970 0.960 . S
C1984 H1971 0.960 . S
C1984 C1983 1.524 . S
C1985 C1982 1.403 . S
C1985 C1986 1.392 . S
C1985 C1989 1.495 1_655 S
C1986 C1985 1.392 . S
C1986 C1987 1.385 . S
C1986 C1988 1.500 . S
C1987 H1981 0.930 . S
C1987 C1983 1.400 . S
C1987 C1986 1.385 . S
C1988 C1986 1.500 . S
C1988 C1990 1.375 1_655 S
C1988 C1994 1.368 1_655 S
C1989 C1985 1.495 1_455 S
C1989 H1995 0.959 . S
C1989 H1996 0.961 . S
C1989 H1997 0.960 . S
C1990 C1988 1.375 1_455 S
C1990 C1991 1.394 . S
C1990 H1998 0.930 1_455 S
C1991 C1990 1.394 . S
C1991 C1992 1.383 . S
C1991 H1999 0.929 . S
C1992 C1991 1.383 . S
C1992 C1993 1.377 . S
C1993 H1977 0.930 . S
C1993 C1992 1.377 . S
C1993 C1994 1.379 . S
C1994 H1978 0.931 . S
C1994 C1988 1.368 1_455 S
C1994 C1993 1.379 . S
H1995 C1989 0.959 . S
H1996 C1989 0.961 . S
H1997 C1989 0.960 . S
H1998 C1990 0.930 1_655 S
H1999 C1991 0.929 . S
H2000 C2008 0.929 . S
H2001 C2010 0.930 . S
H2002 C2012 0.930 . S
H2003 C2015 0.929 . S
H2004 C2018 0.930 . S
H2005 C2020 0.960 . S
H2006 C2020 0.960 . S
H2007 C2020 0.960 . S
C2008 H2000 0.929 . S
C2008 C2009 1.377 . S
C2008 C2010 1.384 . S
C2009 C2008 1.377 . S
C2009 C2015 1.390 . S
C2010 H2001 0.930 . S
C2010 C2008 1.384 . S
C2010 C2011 1.372 . S
C2011 C2010 1.372 . S
C2011 C2012 1.400 . S
C2011 C2016 1.490 . S
C2012 H2002 0.930 . S
C2012 C2011 1.400 . S
C2012 C2015 1.386 . S
H2013 C2029 0.930 . S
H2014 C2030 0.931 . S
C2015 H2003 0.929 . S
C2015 C2009 1.390 . S
C2015 C2012 1.386 . S
C2016 C2011 1.490 . S
C2016 C2018 1.395 . S
C2016 C2019 1.403 . S
H2017 C2023 0.930 . S
C2018 H2004 0.930 . S
C2018 C2016 1.395 . S
C2018 C2021 1.403 . S
C2019 C2016 1.403 . S
C2019 C2020 1.524 . S
C2019 C2023 1.400 . S
C2020 H2005 0.960 . S
C2020 H2006 0.960 . S
C2020 H2007 0.960 . S
C2020 C2019 1.524 . S
C2021 C2018 1.403 . S
C2021 C2022 1.392 . S
C2021 C2025 1.495 . S
C2022 C2021 1.392 . S
C2022 C2023 1.385 . S
C2022 C2024 1.478 . S
C2023 H2017 0.930 . S
C2023 C2019 1.400 . S
C2023 C2022 1.385 . S
C2024 C2022 1.478 . S
C2024 C2026 1.381 . S
C2024 C2030 1.383 . S
C2025 C2021 1.495 . S
C2025 H2031 0.959 . S
C2025 H2032 0.961 . S
C2025 H2033 0.960 . S
C2026 C2024 1.381 . S
C2026 C2027 1.394 . S
C2026 H2034 0.930 . S
C2027 C2026 1.394 . S
C2027 C2028 1.383 . S
C2027 H2035 0.929 . S
C2028 C2027 1.383 . S
C2028 C2029 1.377 . S
C2029 H2013 0.930 . S
C2029 C2028 1.377 . S
C2029 C2030 1.379 . S
C2030 H2014 0.931 . S
C2030 C2024 1.383 . S
C2030 C2029 1.379 . S
H2031 C2025 0.959 . S
H2032 C2025 0.961 . S
H2033 C2025 0.960 . S
H2034 C2026 0.930 . S
H2035 C2027 0.929 . S
H2036 C2044 0.929 . S
H2037 C2046 0.930 . S
H2038 C2048 0.930 . S
H2039 C2051 0.929 . S
H2040 C2054 0.930 . S
H2041 C2056 0.960 . S
H2042 C2056 0.956 1_455 S
H2043 C2056 0.960 . S
C2044 H2036 0.929 . S
C2044 C2045 1.377 . S
C2044 C2046 1.384 . S
C2045 C2044 1.377 . S
C2045 C2051 1.390 . S
C2046 H2037 0.930 . S
C2046 C2044 1.384 . S
C2046 C2047 1.372 1_455 S
C2047 C2046 1.372 1_655 S
C2047 C2048 1.400 . S
C2047 C2052 1.490 . S
C2048 H2038 0.930 . S
C2048 C2047 1.400 . S
C2048 C2051 1.386 1_655 S
H2049 C2065 0.930 . S
H2050 C2066 0.931 . S
C2051 H2039 0.929 . S
C2051 C2045 1.390 . S
C2051 C2048 1.386 1_455 S
C2052 C2047 1.490 . S
C2052 C2054 1.395 . S
C2052 C2055 1.403 . S
H2053 C2059 0.930 . S
C2054 H2040 0.930 . S
C2054 C2052 1.395 . S
C2054 C2057 1.403 . S
C2055 C2052 1.403 . S
C2055 C2056 1.524 . S
C2055 C2059 1.400 . S
C2056 H2041 0.960 . S
C2056 H2042 0.956 1_655 S
C2056 H2043 0.960 . S
C2056 C2055 1.524 . S
C2057 C2054 1.403 . S
C2057 C2058 1.392 . S
C2057 C2061 1.495 . S
C2058 C2057 1.392 . S
C2058 C2059 1.385 . S
C2058 C2060 1.478 . S
C2059 H2053 0.930 . S
C2059 C2055 1.400 . S
C2059 C2058 1.385 . S
C2060 C2058 1.478 . S
C2060 C2062 1.381 . S
C2060 C2066 1.383 . S
C2061 C2057 1.495 . S
C2061 H2067 0.959 . S
C2061 H2068 0.961 . S
C2061 H2069 0.960 . S
C2062 C2060 1.381 . S
C2062 C2063 1.394 . S
C2062 H2070 0.930 . S
C2063 C2062 1.394 . S
C2063 C2064 1.383 . S
C2063 H2071 0.929 . S
C2064 C2063 1.383 . S
C2064 C2065 1.377 . S
C2065 H2049 0.930 . S
C2065 C2064 1.377 . S
C2065 C2066 1.379 . S
C2066 H2050 0.931 . S
C2066 C2060 1.383 . S
C2066 C2065 1.379 . S
H2067 C2061 0.959 . S
H2068 C2061 0.961 . S
H2069 C2061 0.960 . S
H2070 C2062 0.930 . S
H2071 C2063 0.929 . S
H2072 C2080 0.929 . S
H2073 C2082 0.930 . S
H2074 C2084 0.930 . S
H2075 C2087 0.929 . S
H2076 C2090 0.930 . S
H2077 C2092 0.960 . S
H2078 C2092 0.960 . S
H2079 C2092 0.960 . S
C2080 H2072 0.929 . S
C2080 C2081 1.377 . S
C2080 C2082 1.384 . S
C2081 C2080 1.377 . S
C2081 C2087 1.390 . S
C2082 H2073 0.930 . S
C2082 C2080 1.384 . S
C2082 C2083 1.372 . S
C2083 C2082 1.372 . S
C2083 C2084 1.400 . S
C2083 C2088 1.490 . S
C2084 H2074 0.930 . S
C2084 C2083 1.400 . S
C2084 C2087 1.386 . S
H2085 C2101 0.930 . S
H2086 C2102 0.931 . S
C2087 H2075 0.929 . S
C2087 C2081 1.390 . S
C2087 C2084 1.386 . S
C2088 C2083 1.490 . S
C2088 C2090 1.395 . S
C2088 C2091 1.403 . S
H2089 C2095 0.930 . S
C2090 H2076 0.930 . S
C2090 C2088 1.395 . S
C2090 C2093 1.403 . S
C2091 C2088 1.403 . S
C2091 C2092 1.524 . S
C2091 C2095 1.400 . S
C2092 H2077 0.960 . S
C2092 H2078 0.960 . S
C2092 H2079 0.960 . S
C2092 C2091 1.524 . S
C2093 C2090 1.403 . S
C2093 C2094 1.392 . S
C2093 C2097 1.495 . S
C2094 C2093 1.392 . S
C2094 C2095 1.385 . S
C2094 C2096 1.478 . S
C2095 H2089 0.930 . S
C2095 C2091 1.400 . S
C2095 C2094 1.385 . S
C2096 C2094 1.478 . S
C2096 C2098 1.381 . S
C2096 C2102 1.383 . S
C2097 C2093 1.495 . S
C2097 H2103 0.959 . S
C2097 H2104 0.961 . S
C2097 H2105 0.960 . S
C2098 C2096 1.381 . S
C2098 C2099 1.394 . S
C2098 H2106 0.930 . S
C2099 C2098 1.394 . S
C2099 C2100 1.383 . S
C2099 H2107 0.929 . S
C2100 C2099 1.383 . S
C2100 C2101 1.377 . S
C2101 H2085 0.930 . S
C2101 C2100 1.377 . S
C2101 C2102 1.379 . S
C2102 H2086 0.931 . S
C2102 C2096 1.383 . S
C2102 C2101 1.379 . S
H2103 C2097 0.959 . S
H2104 C2097 0.961 . S
H2105 C2097 0.960 . S
H2106 C2098 0.930 . S
H2107 C2099 0.929 . S
H2108 C2116 0.929 . S
H2109 C2118 0.930 . S
H2110 C2120 0.930 . S
H2111 C2123 0.929 . S
H2112 C2126 0.930 . S
H2113 C2128 0.960 . S
H2114 C2128 0.960 . S
H2115 C2128 0.960 . S
C2116 H2108 0.929 . S
C2116 C2117 1.377 . S
C2116 C2118 1.384 . S
C2117 C2116 1.377 . S
C2117 C2123 1.390 . S
C2118 H2109 0.930 . S
C2118 C2116 1.384 . S
C2118 C2119 1.372 . S
C2119 C2118 1.372 . S
C2119 C2120 1.400 . S
C2119 C2124 1.490 . S
C2120 H2110 0.930 . S
C2120 C2119 1.400 . S
C2120 C2123 1.386 . S
H2121 C2137 0.930 . S
H2122 C2138 0.931 . S
C2123 H2111 0.929 . S
C2123 C2117 1.390 . S
C2123 C2120 1.386 . S
C2124 C2119 1.490 . S
C2124 C2126 1.395 . S
C2124 C2127 1.403 . S
H2125 C2131 0.930 . S
C2126 H2112 0.930 . S
C2126 C2124 1.395 . S
C2126 C2129 1.403 . S
C2127 C2124 1.403 . S
C2127 C2128 1.524 . S
C2127 C2131 1.400 . S
C2128 H2113 0.960 . S
C2128 H2114 0.960 . S
C2128 H2115 0.960 . S
C2128 C2127 1.524 . S
C2129 C2126 1.403 . S
C2129 C2130 1.392 . S
C2129 C2133 1.495 . S
C2130 C2129 1.392 . S
C2130 C2131 1.385 . S
C2130 C2132 1.478 . S
C2131 H2125 0.930 . S
C2131 C2127 1.400 . S
C2131 C2130 1.385 . S
C2132 C2130 1.478 . S
C2132 C2134 1.381 . S
C2132 C2138 1.383 . S
C2133 C2129 1.495 . S
C2133 H2139 0.959 . S
C2133 H2140 0.961 . S
C2133 H2141 0.960 . S
C2134 C2132 1.381 . S
C2134 C2135 1.394 . S
C2134 H2142 0.930 . S
C2135 C2134 1.394 . S
C2135 C2136 1.383 . S
C2135 H2143 0.929 . S
C2136 C2135 1.383 . S
C2136 C2137 1.377 . S
C2137 H2121 0.930 . S
C2137 C2136 1.377 . S
C2137 C2138 1.379 . S
C2138 H2122 0.931 . S
C2138 C2132 1.383 . S
C2138 C2137 1.379 . S
H2139 C2133 0.959 . S
H2140 C2133 0.961 . S
H2141 C2133 0.960 . S
H2142 C2134 0.930 . S
H2143 C2135 0.929 . S
H2144 C2152 0.929 . S
H2145 C2154 0.930 . S
H2146 C2156 0.930 . S
H2147 C2159 0.929 . S
H2148 C2162 0.930 . S
H2149 C2164 0.960 . S
H2150 C2164 0.960 . S
H2151 C2164 0.960 . S
C2152 H2144 0.929 . S
C2152 C2153 1.377 . S
C2152 C2154 1.384 . S
C2153 C2152 1.377 . S
C2153 C2159 1.390 . S
C2154 H2145 0.930 . S
C2154 C2152 1.384 . S
C2154 C2155 1.372 . S
C2155 C2154 1.372 . S
C2155 C2156 1.400 . S
C2155 C2160 1.490 . S
C2156 H2146 0.930 . S
C2156 C2155 1.400 . S
C2156 C2159 1.386 . S
H2157 C2173 0.930 . S
H2158 C2174 0.931 . S
C2159 H2147 0.929 . S
C2159 C2153 1.390 . S
C2159 C2156 1.386 . S
C2160 C2155 1.490 . S
C2160 C2162 1.395 . S
C2160 C2163 1.403 . S
H2161 C2167 0.930 . S
C2162 H2148 0.930 . S
C2162 C2160 1.395 . S
C2162 C2165 1.403 . S
C2163 C2160 1.403 . S
C2163 C2164 1.524 . S
C2163 C2167 1.400 . S
C2164 H2149 0.960 . S
C2164 H2150 0.960 . S
C2164 H2151 0.960 . S
C2164 C2163 1.524 . S
C2165 C2162 1.403 . S
C2165 C2166 1.392 . S
C2165 C2169 1.495 . S
C2166 C2165 1.392 . S
C2166 C2167 1.385 . S
C2166 C2168 1.478 . S
C2167 H2161 0.930 . S
C2167 C2163 1.400 . S
C2167 C2166 1.385 . S
C2168 C2166 1.478 . S
C2168 C2170 1.381 . S
C2168 C2174 1.383 . S
C2169 C2165 1.495 . S
C2169 H2175 0.959 . S
C2169 H2176 0.961 . S
C2169 H2177 0.960 . S
C2170 C2168 1.381 . S
C2170 C2171 1.394 . S
C2170 H2178 0.930 . S
C2171 C2170 1.394 . S
C2171 C2172 1.383 . S
C2171 H2179 0.929 . S
C2172 C2171 1.383 . S
C2172 C2173 1.377 . S
C2173 H2157 0.930 . S
C2173 C2172 1.377 . S
C2173 C2174 1.379 . S
C2174 H2158 0.931 . S
C2174 C2168 1.383 . S
C2174 C2173 1.379 . S
H2175 C2169 0.959 . S
H2176 C2169 0.961 . S
H2177 C2169 0.960 . S
H2178 C2170 0.930 . S
H2179 C2171 0.929 . S
H2180 C2188 0.929 . S
H2181 C2190 0.930 . S
H2182 C2192 0.930 . S
H2183 C2195 0.929 . S
H2184 C2198 0.930 . S
H2185 C2200 0.960 . S
H2186 C2200 0.960 . S
H2187 C2200 0.960 . S
C2188 H2180 0.929 . S
C2188 C2189 1.377 . S
C2188 C2190 1.384 . S
C2189 C2188 1.377 . S
C2189 C2195 1.390 . S
C2190 H2181 0.930 . S
C2190 C2188 1.384 . S
C2190 C2191 1.372 . S
C2191 C2190 1.372 . S
C2191 C2192 1.400 . S
C2191 C2196 1.490 . S
C2192 H2182 0.930 . S
C2192 C2191 1.400 . S
C2192 C2195 1.386 . S
H2193 C2209 0.930 . S
H2194 C2210 0.931 . S
C2195 H2183 0.929 . S
C2195 C2189 1.390 . S
C2195 C2192 1.386 . S
C2196 C2191 1.490 . S
C2196 C2198 1.395 . S
C2196 C2199 1.403 . S
H2197 C2203 0.930 . S
C2198 H2184 0.930 . S
C2198 C2196 1.395 . S
C2198 C2201 1.403 . S
C2199 C2196 1.403 . S
C2199 C2200 1.524 . S
C2199 C2203 1.400 . S
C2200 H2185 0.960 . S
C2200 H2186 0.960 . S
C2200 H2187 0.960 . S
C2200 C2199 1.524 . S
C2201 C2198 1.403 . S
C2201 C2202 1.392 . S
C2201 C2205 1.495 . S
C2202 C2201 1.392 . S
C2202 C2203 1.385 . S
C2202 C2204 1.478 . S
C2203 H2197 0.930 . S
C2203 C2199 1.400 . S
C2203 C2202 1.385 . S
C2204 C2202 1.478 . S
C2204 C2206 1.381 . S
C2204 C2210 1.383 . S
C2205 C2201 1.495 . S
C2205 H2211 0.959 . S
C2205 H2212 0.961 . S
C2205 H2213 0.960 . S
C2206 C2204 1.381 . S
C2206 C2207 1.394 . S
C2206 H2214 0.930 . S
C2207 C2206 1.394 . S
C2207 C2208 1.383 . S
C2207 H2215 0.929 . S
C2208 C2207 1.383 . S
C2208 C2209 1.377 . S
C2209 H2193 0.930 . S
C2209 C2208 1.377 . S
C2209 C2210 1.379 . S
C2210 H2194 0.931 . S
C2210 C2204 1.383 . S
C2210 C2209 1.379 . S
H2211 C2205 0.959 . S
H2212 C2205 0.961 . S
H2213 C2205 0.960 . S
H2214 C2206 0.930 . S
H2215 C2207 0.929 . S
H2216 C2224 0.929 . S
H2217 C2226 0.930 . S
H2218 C2228 0.930 . S
H2219 C2231 0.929 . S
H2220 C2234 0.930 . S
H2221 C2236 0.960 . S
H2222 C2236 0.960 . S
H2223 C2236 0.960 . S
C2224 H2216 0.929 . S
C2224 C2225 1.377 . S
C2224 C2226 1.384 . S
C2225 C2224 1.377 . S
C2225 C2231 1.390 . S
C2226 H2217 0.930 . S
C2226 C2224 1.384 . S
C2226 C2227 1.372 . S
C2227 C2226 1.372 . S
C2227 C2228 1.400 . S
C2227 C2232 1.490 . S
C2228 H2218 0.930 . S
C2228 C2227 1.400 . S
C2228 C2231 1.386 . S
H2229 C2245 0.930 . S
H2230 C2246 0.931 . S
C2231 H2219 0.929 . S
C2231 C2225 1.390 . S
C2231 C2228 1.386 . S
C2232 C2227 1.490 . S
C2232 C2234 1.395 . S
C2232 C2235 1.403 . S
H2233 C2239 0.930 . S
C2234 H2220 0.930 . S
C2234 C2232 1.395 . S
C2234 C2237 1.403 . S
C2235 C2232 1.403 . S
C2235 C2236 1.524 . S
C2235 C2239 1.400 . S
C2236 H2221 0.960 . S
C2236 H2222 0.960 . S
C2236 H2223 0.960 . S
C2236 C2235 1.524 . S
C2237 C2234 1.403 . S
C2237 C2238 1.392 . S
C2237 C2241 1.495 . S
C2238 C2237 1.392 . S
C2238 C2239 1.385 . S
C2238 C2240 1.478 . S
C2239 H2233 0.930 . S
C2239 C2235 1.400 . S
C2239 C2238 1.385 . S
C2240 C2238 1.478 . S
C2240 C2242 1.381 . S
C2240 C2246 1.383 . S
C2241 C2237 1.495 . S
C2241 H2247 0.959 . S
C2241 H2248 0.961 . S
C2241 H2249 0.960 . S
C2242 C2240 1.381 . S
C2242 C2243 1.394 . S
C2242 H2250 0.930 . S
C2243 C2242 1.394 . S
C2243 C2244 1.383 . S
C2243 H2251 0.929 . S
C2244 C2243 1.383 . S
C2244 C2245 1.377 . S
C2245 H2229 0.930 . S
C2245 C2244 1.377 . S
C2245 C2246 1.379 . S
C2246 H2230 0.931 . S
C2246 C2240 1.383 . S
C2246 C2245 1.379 . S
H2247 C2241 0.959 . S
H2248 C2241 0.961 . S
H2249 C2241 0.960 . S
H2250 C2242 0.930 . S
H2251 C2243 0.929 . S
H2252 C2260 0.929 . S
H2253 C2262 0.930 . S
H2254 C2264 0.930 . S
H2255 C2267 0.929 . S
H2256 C2270 0.930 . S
H2257 C2272 0.960 . S
H2258 C2272 0.960 . S
H2259 C2272 0.960 . S
C2260 H2252 0.929 . S
C2260 C2261 1.377 . S
C2260 C2262 1.384 . S
C2261 C2260 1.377 . S
C2261 C2267 1.390 . S
C2262 H2253 0.930 . S
C2262 C2260 1.384 . S
C2262 C2263 1.372 . S
C2263 C2262 1.372 . S
C2263 C2264 1.400 . S
C2263 C2268 1.490 . S
C2264 H2254 0.930 . S
C2264 C2263 1.400 . S
C2264 C2267 1.386 . S
H2265 C2281 0.942 . S
H2266 C2282 0.931 . S
C2267 H2255 0.929 . S
C2267 C2261 1.390 . S
C2267 C2264 1.386 . S
C2268 C2263 1.490 . S
C2268 C2270 1.395 . S
C2268 C2271 1.403 . S
H2269 C2275 0.930 . S
C2270 H2256 0.930 . S
C2270 C2268 1.395 . S
C2270 C2273 1.403 . S
C2271 C2268 1.403 . S
C2271 C2272 1.524 . S
C2271 C2275 1.400 . S
C2272 H2257 0.960 . S
C2272 H2258 0.960 . S
C2272 H2259 0.960 . S
C2272 C2271 1.524 . S
C2273 C2270 1.403 . S
C2273 C2274 1.392 . S
C2273 C2277 1.495 . S
C2274 C2273 1.392 . S
C2274 C2275 1.385 . S
C2274 C2276 1.478 . S
C2275 H2269 0.930 . S
C2275 C2271 1.400 . S
C2275 C2274 1.385 . S
C2276 C2274 1.478 . S
C2276 C2278 1.381 1_455 S
C2276 C2282 1.383 . S
C2277 C2273 1.495 . S
C2277 H2283 0.959 . S
C2277 H2284 0.961 . S
C2277 H2285 0.960 1_455 S
C2278 C2276 1.381 1_655 S
C2278 C2279 1.394 . S
C2278 H2286 0.930 . S
C2279 C2278 1.394 . S
C2279 C2280 1.383 . S
C2279 H2287 0.929 . S
C2280 C2279 1.383 . S
C2280 C2281 1.377 . S
C2281 H2265 0.942 . S
C2281 C2280 1.377 . S
C2281 C2282 1.379 1_655 S
C2282 H2266 0.931 . S
C2282 C2276 1.383 . S
C2282 C2281 1.379 1_455 S
H2283 C2277 0.959 . S
H2284 C2277 0.961 . S
H2285 C2277 0.960 1_655 S
H2286 C2278 0.930 . S
H2287 C2279 0.929 . S
H2288 C2296 0.929 . S
H2289 C2298 0.930 . S
H2290 C2300 0.930 . S
H2291 C2303 0.929 . S
H2292 C2306 0.930 . S
H2293 C2308 0.960 . S
H2294 C2308 0.960 . S
H2295 C2308 0.960 . S
C2296 H2288 0.929 . S
C2296 C2297 1.377 . S
C2296 C2298 1.384 . S
C2297 C2296 1.377 . S
C2297 C2303 1.390 . S
C2298 H2289 0.930 . S
C2298 C2296 1.384 . S
C2298 C2299 1.372 . S
C2299 C2298 1.372 . S
C2299 C2300 1.400 . S
C2299 C2304 1.490 . S
C2300 H2290 0.930 . S
C2300 C2299 1.400 . S
C2300 C2303 1.386 . S
H2301 C2317 0.930 . S
H2302 C2318 0.931 . S
C2303 H2291 0.929 . S
C2303 C2297 1.390 . S
C2303 C2300 1.386 . S
C2304 C2299 1.490 . S
C2304 C2306 1.395 . S
C2304 C2307 1.403 . S
H2305 C2311 0.930 . S
C2306 H2292 0.930 . S
C2306 C2304 1.395 . S
C2306 C2309 1.403 . S
C2307 C2304 1.403 . S
C2307 C2308 1.524 . S
C2307 C2311 1.400 . S
C2308 H2293 0.960 . S
C2308 H2294 0.960 . S
C2308 H2295 0.960 . S
C2308 C2307 1.524 . S
C2309 C2306 1.403 . S
C2309 C2310 1.392 . S
C2309 C2313 1.495 . S
C2310 C2309 1.392 . S
C2310 C2311 1.385 . S
C2310 C2312 1.478 . S
C2311 H2305 0.930 . S
C2311 C2307 1.400 . S
C2311 C2310 1.385 . S
C2312 C2310 1.478 . S
C2312 C2314 1.381 . S
C2312 C2318 1.383 . S
C2313 C2309 1.495 . S
C2313 H2319 0.959 . S
C2313 H2320 0.961 . S
C2313 H2321 0.960 . S
C2314 C2312 1.381 . S
C2314 C2315 1.394 . S
C2314 H2322 0.930 . S
C2315 C2314 1.394 . S
C2315 C2316 1.383 . S
C2315 H2323 0.929 . S
C2316 C2315 1.383 . S
C2316 C2317 1.377 . S
C2317 H2301 0.930 . S
C2317 C2316 1.377 . S
C2317 C2318 1.379 . S
C2318 H2302 0.931 . S
C2318 C2312 1.383 . S
C2318 C2317 1.379 . S
H2319 C2313 0.959 . S
H2320 C2313 0.961 . S
H2321 C2313 0.960 . S
H2322 C2314 0.930 . S
H2323 C2315 0.929 . S
H2324 C2332 0.929 . S
H2325 C2334 0.930 . S
H2326 C2336 0.930 . S
H2327 C2339 0.929 . S
H2328 C2342 0.930 1_655 S
H2329 C2344 0.960 . S
H2330 C2344 0.960 . S
H2331 C2344 0.960 . S
C2332 H2324 0.929 . S
C2332 C2333 1.377 . S
C2332 C2334 1.384 . S
C2333 C2332 1.377 . S
C2333 C2339 1.390 . S
C2334 H2325 0.930 . S
C2334 C2332 1.384 . S
C2334 C2335 1.372 1_655 S
C2335 C2334 1.372 1_455 S
C2335 C2336 1.400 . S
C2335 C2340 1.490 . S
C2336 H2326 0.930 . S
C2336 C2335 1.400 . S
C2336 C2339 1.386 1_455 S
H2337 C2353 0.930 . S
H2338 C2354 0.931 . S
C2339 H2327 0.929 . S
C2339 C2333 1.390 . S
C2339 C2336 1.386 1_655 S
C2340 C2335 1.490 . S
C2340 C2342 1.395 . S
C2340 C2343 1.403 . S
H2341 C2347 0.930 . S
C2342 H2328 0.930 1_455 S
C2342 C2340 1.395 . S
C2342 C2345 1.403 . S
C2343 C2340 1.403 . S
C2343 C2344 1.524 . S
C2343 C2347 1.400 . S
C2344 H2329 0.960 . S
C2344 H2330 0.960 . S
C2344 H2331 0.960 . S
C2344 C2343 1.524 . S
C2345 C2342 1.403 . S
C2345 C2346 1.392 . S
C2345 C2349 1.495 . S
C2346 C2345 1.392 . S
C2346 C2347 1.385 . S
C2346 C2348 1.478 . S
C2347 H2341 0.930 . S
C2347 C2343 1.400 . S
C2347 C2346 1.385 . S
C2348 C2346 1.478 . S
C2348 C2350 1.381 . S
C2348 C2354 1.383 . S
C2349 C2345 1.495 . S
C2349 H2355 0.970 . S
C2349 H2356 0.961 . S
C2349 H2357 0.960 . S
C2350 C2348 1.381 . S
C2350 C2351 1.394 . S
C2350 H2358 0.930 . S
C2351 C2350 1.394 . S
C2351 C2352 1.383 . S
C2351 H2359 0.929 . S
C2352 C2351 1.383 . S
C2352 C2353 1.377 . S
C2353 H2337 0.930 . S
C2353 C2352 1.377 . S
C2353 C2354 1.379 . S
C2354 H2338 0.931 . S
C2354 C2348 1.383 . S
C2354 C2353 1.379 . S
H2355 C2349 0.970 . S
H2356 C2349 0.961 . S
H2357 C2349 0.960 . S
H2358 C2350 0.930 . S
H2359 C2351 0.929 . S
H2360 C2368 0.929 . S
H2361 C2370 0.930 . S
H2362 C2372 0.930 . S
H2363 C2375 0.929 . S
H2364 C2378 0.930 . S
H2365 C2380 0.960 . S
H2366 C2380 0.960 . S
H2367 C2380 0.960 . S
C2368 H2360 0.929 . S
C2368 C2369 1.377 . S
C2368 C2370 1.384 . S
C2369 C2368 1.377 . S
C2369 C2375 1.390 . S
C2370 H2361 0.930 . S
C2370 C2368 1.384 . S
C2370 C2371 1.372 . S
C2371 C2370 1.372 . S
C2371 C2372 1.400 . S
C2371 C2376 1.490 . S
C2372 H2362 0.930 . S
C2372 C2371 1.400 . S
C2372 C2375 1.386 . S
H2373 C2389 0.930 . S
H2374 C2390 0.931 . S
C2375 H2363 0.929 . S
C2375 C2369 1.390 . S
C2375 C2372 1.386 . S
C2376 C2371 1.490 . S
C2376 C2378 1.395 . S
C2376 C2379 1.403 . S
H2377 C2383 0.930 . S
C2378 H2364 0.930 . S
C2378 C2376 1.395 . S
C2378 C2381 1.403 . S
C2379 C2376 1.403 . S
C2379 C2380 1.524 . S
C2379 C2383 1.400 . S
C2380 H2365 0.960 . S
C2380 H2366 0.960 . S
C2380 H2367 0.960 . S
C2380 C2379 1.524 . S
C2381 C2378 1.403 . S
C2381 C2382 1.392 . S
C2381 C2385 1.495 . S
C2382 C2381 1.392 . S
C2382 C2383 1.385 . S
C2382 C2384 1.478 . S
C2383 H2377 0.930 . S
C2383 C2379 1.400 . S
C2383 C2382 1.385 . S
C2384 C2382 1.478 . S
C2384 C2386 1.381 . S
C2384 C2390 1.383 . S
C2385 C2381 1.495 . S
C2385 H2391 0.959 . S
C2385 H2392 0.961 . S
C2385 H2393 0.960 . S
C2386 C2384 1.381 . S
C2386 C2387 1.394 . S
C2386 H2394 0.930 . S
C2387 C2386 1.394 . S
C2387 C2388 1.383 . S
C2387 H2395 0.929 . S
C2388 C2387 1.383 . S
C2388 C2389 1.377 . S
C2389 H2373 0.930 . S
C2389 C2388 1.377 . S
C2389 C2390 1.379 . S
C2390 H2374 0.931 . S
C2390 C2384 1.383 . S
C2390 C2389 1.379 . S
H2391 C2385 0.959 . S
H2392 C2385 0.961 . S
H2393 C2385 0.960 . S
H2394 C2386 0.930 . S
H2395 C2387 0.929 . S
H2396 C2404 0.929 . S
H2397 C2406 0.930 . S
H2398 C2408 0.930 . S
H2399 C2411 0.929 . S
H2400 C2414 0.930 . S
H2401 C2416 0.960 . S
H2402 C2416 0.960 . S
H2403 C2416 0.960 . S
C2404 H2396 0.929 . S
C2404 C2405 1.377 . S
C2404 C2406 1.384 . S
C2405 C2404 1.377 . S
C2405 C2411 1.390 . S
C2406 H2397 0.930 . S
C2406 C2404 1.384 . S
C2406 C2407 1.372 . S
C2407 C2406 1.372 . S
C2407 C2408 1.400 . S
C2407 C2412 1.490 . S
C2408 H2398 0.930 . S
C2408 C2407 1.400 . S
C2408 C2411 1.386 . S
H2409 C2425 0.930 . S
H2410 C2426 0.931 . S
C2411 H2399 0.929 . S
C2411 C2405 1.390 . S
C2411 C2408 1.386 . S
C2412 C2407 1.490 . S
C2412 C2414 1.395 . S
C2412 C2415 1.403 . S
H2413 C2419 0.930 . S
C2414 H2400 0.930 . S
C2414 C2412 1.395 . S
C2414 C2417 1.403 . S
C2415 C2412 1.403 . S
C2415 C2416 1.524 . S
C2415 C2419 1.400 . S
C2416 H2401 0.960 . S
C2416 H2402 0.960 . S
C2416 H2403 0.960 . S
C2416 C2415 1.524 . S
C2417 C2414 1.403 . S
C2417 C2418 1.392 . S
C2417 C2421 1.495 . S
C2418 C2417 1.392 . S
C2418 C2419 1.385 . S
C2418 C2420 1.478 . S
C2419 H2413 0.930 . S
C2419 C2415 1.400 . S
C2419 C2418 1.385 . S
C2420 C2418 1.478 . S
C2420 C2422 1.381 . S
C2420 C2426 1.383 . S
C2421 C2417 1.495 . S
C2421 H2427 0.959 . S
C2421 H2428 0.961 . S
C2421 H2429 0.960 . S
C2422 C2420 1.381 . S
C2422 C2423 1.394 . S
C2422 H2430 0.930 . S
C2423 C2422 1.394 . S
C2423 C2424 1.383 . S
C2423 H2431 0.929 . S
C2424 C2423 1.383 . S
C2424 C2425 1.377 . S
C2425 H2409 0.930 . S
C2425 C2424 1.377 . S
C2425 C2426 1.379 . S
C2426 H2410 0.931 . S
C2426 C2420 1.383 . S
C2426 C2425 1.379 . S
H2427 C2421 0.959 . S
H2428 C2421 0.961 . S
H2429 C2421 0.960 . S
H2430 C2422 0.930 . S
H2431 C2423 0.929 . S
H2432 C2440 0.929 . S
H2433 C2442 0.930 . S
H2434 C2444 0.930 . S
H2435 C2447 0.929 . S
H2436 C2450 0.930 . S
H2437 C2452 0.960 . S
H2438 C2452 0.960 . S
H2439 C2452 0.960 . S
C2440 H2432 0.929 . S
C2440 C2441 1.377 . S
C2440 C2442 1.384 . S
C2441 C2440 1.377 . S
C2441 C2447 1.390 . S
C2442 H2433 0.930 . S
C2442 C2440 1.384 . S
C2442 C2443 1.372 . S
C2443 C2442 1.372 . S
C2443 C2444 1.400 . S
C2443 C2448 1.490 . S
C2444 H2434 0.930 . S
C2444 C2443 1.400 . S
C2444 C2447 1.386 . S
H2445 C2461 0.930 . S
H2446 C2462 0.931 . S
C2447 H2435 0.929 . S
C2447 C2441 1.390 . S
C2447 C2444 1.386 . S
C2448 C2443 1.490 . S
C2448 C2450 1.395 . S
C2448 C2451 1.403 . S
H2449 C2455 0.930 . S
C2450 H2436 0.930 . S
C2450 C2448 1.395 . S
C2450 C2453 1.403 1_455 S
C2451 C2448 1.403 . S
C2451 C2452 1.524 . S
C2451 C2455 1.400 1_455 S
C2452 H2437 0.960 . S
C2452 H2438 0.960 . S
C2452 H2439 0.960 . S
C2452 C2451 1.524 . S
C2453 C2450 1.403 1_655 S
C2453 C2454 1.392 . S
C2453 C2457 1.495 . S
C2454 C2453 1.392 . S
C2454 C2455 1.385 . S
C2454 C2456 1.478 . S
C2455 H2449 0.930 . S
C2455 C2451 1.400 1_655 S
C2455 C2454 1.385 . S
C2456 C2454 1.478 . S
C2456 C2458 1.381 . S
C2456 C2462 1.383 . S
C2457 C2453 1.495 . S
C2457 H2463 0.959 . S
C2457 H2464 0.961 . S
C2457 H2465 0.960 . S
C2458 C2456 1.381 . S
C2458 C2459 1.394 . S
C2458 H2466 0.930 . S
C2459 C2458 1.394 . S
C2459 C2460 1.383 . S
C2459 H2467 0.929 . S
C2460 C2459 1.383 . S
C2460 C2461 1.377 . S
C2461 H2445 0.930 . S
C2461 C2460 1.377 . S
C2461 C2462 1.379 . S
C2462 H2446 0.931 . S
C2462 C2456 1.383 . S
C2462 C2461 1.379 . S
H2463 C2457 0.959 . S
H2464 C2457 0.961 . S
H2465 C2457 0.960 . S
H2466 C2458 0.930 . S
H2467 C2459 0.929 . S
H2468 C2476 0.929 . S
H2469 C2478 0.930 . S
H2470 C2480 0.930 . S
H2471 C2483 0.929 . S
H2472 C2486 0.930 . S
H2473 C2488 0.960 . S
H2474 C2488 0.960 . S
H2475 C2488 0.960 1_655 S
C2476 H2468 0.929 . S
C2476 C2477 1.377 . S
C2476 C2478 1.384 . S
C2477 C2476 1.377 . S
C2477 C2483 1.390 . S
C2478 H2469 0.930 . S
C2478 C2476 1.384 . S
C2478 C2479 1.372 . S
C2479 C2478 1.372 . S
C2479 C2480 1.400 . S
C2479 C2484 1.490 . S
C2480 H2470 0.930 . S
C2480 C2479 1.400 . S
C2480 C2483 1.386 . S
H2481 C2497 0.930 . S
H2482 C2498 0.931 . S
C2483 H2471 0.929 . S
C2483 C2477 1.390 . S
C2483 C2480 1.386 . S
C2484 C2479 1.490 . S
C2484 C2486 1.395 . S
C2484 C2487 1.404 1_655 S
H2485 C2491 0.930 . S
C2486 H2472 0.930 . S
C2486 C2484 1.395 . S
C2486 C2489 1.425 . S
C2487 C2484 1.404 1_455 S
C2487 C2488 1.523 . S
C2487 C2491 1.398 . S
C2488 H2473 0.960 . S
C2488 H2474 0.960 . S
C2488 H2475 0.960 1_455 S
C2488 C2487 1.523 . S
C2489 C2486 1.425 . S
C2489 C2490 1.371 1_655 S
C2489 C2493 1.497 . S
C2490 C2489 1.371 1_455 S
C2490 C2491 1.385 . S
C2490 C2492 1.478 . S
C2491 H2485 0.930 . S
C2491 C2487 1.398 . S
C2491 C2490 1.385 . S
C2492 C2490 1.478 . S
C2492 C2494 1.381 . S
C2492 C2498 1.383 . S
C2493 C2489 1.497 . S
C2493 H2499 0.959 . S
C2493 H2500 0.961 . S
C2493 H2501 0.960 1_655 S
C2494 C2492 1.381 . S
C2494 C2495 1.394 . S
C2494 H2502 0.930 . S
C2495 C2494 1.394 . S
C2495 C2496 1.383 . S
C2495 H2503 0.929 . S
C2496 C2495 1.383 . S
C2496 C2497 1.377 . S
C2497 H2481 0.930 . S
C2497 C2496 1.377 . S
C2497 C2498 1.379 . S
C2498 H2482 0.931 . S
C2498 C2492 1.383 . S
C2498 C2497 1.379 . S
H2499 C2493 0.959 . S
H2500 C2493 0.961 . S
H2501 C2493 0.960 1_455 S
H2502 C2494 0.930 . S
H2503 C2495 0.929 . S
H2504 C2512 0.929 . S
H2505 C2514 0.930 . S
H2506 C2516 0.930 . S
H2507 C2519 0.929 . S
H2508 C2522 0.930 . S
H2509 C2524 0.960 . S
H2510 C2524 0.960 . S
H2511 C2524 0.960 . S
C2512 H2504 0.929 . S
C2512 C2513 1.377 . S
C2512 C2514 1.384 . S
C2513 C2512 1.377 . S
C2513 C2519 1.390 . S
C2514 H2505 0.930 . S
C2514 C2512 1.384 . S
C2514 C2515 1.372 . S
C2515 C2514 1.372 . S
C2515 C2516 1.400 . S
C2515 C2520 1.490 . S
C2516 H2506 0.930 . S
C2516 C2515 1.400 . S
C2516 C2519 1.386 . S
H2517 C2533 0.930 . S
H2518 C2534 0.931 . S
C2519 H2507 0.929 . S
C2519 C2513 1.390 . S
C2519 C2516 1.386 . S
C2520 C2515 1.490 . S
C2520 C2522 1.395 . S
C2520 C2523 1.403 . S
H2521 C2527 0.930 . S
C2522 H2508 0.930 . S
C2522 C2520 1.395 . S
C2522 C2525 1.403 . S
C2523 C2520 1.403 . S
C2523 C2524 1.524 . S
C2523 C2527 1.400 . S
C2524 H2509 0.960 . S
C2524 H2510 0.960 . S
C2524 H2511 0.960 . S
C2524 C2523 1.524 . S
C2525 C2522 1.403 . S
C2525 C2526 1.392 . S
C2525 C2529 1.495 . S
C2526 C2525 1.392 . S
C2526 C2527 1.385 . S
C2526 C2528 1.478 . S
C2527 H2521 0.930 . S
C2527 C2523 1.400 . S
C2527 C2526 1.385 . S
C2528 C2526 1.478 . S
C2528 C2530 1.381 . S
C2528 C2534 1.383 . S
C2529 C2525 1.495 . S
C2529 H2535 0.959 . S
C2529 H2536 0.961 . S
C2529 H2537 0.960 . S
C2530 C2528 1.381 . S
C2530 C2531 1.394 . S
C2530 H2538 0.930 . S
C2531 C2530 1.394 . S
C2531 C2532 1.383 . S
C2531 H2539 0.929 . S
C2532 C2531 1.383 . S
C2532 C2533 1.377 . S
C2533 H2517 0.930 . S
C2533 C2532 1.377 . S
C2533 C2534 1.379 . S
C2534 H2518 0.931 . S
C2534 C2528 1.383 . S
C2534 C2533 1.379 . S
H2535 C2529 0.959 . S
H2536 C2529 0.961 . S
H2537 C2529 0.960 . S
H2538 C2530 0.930 . S
H2539 C2531 0.929 . S
H2540 C2548 0.929 . S
H2541 C2550 0.930 . S
H2542 C2552 0.930 . S
H2543 C2555 0.929 . S
H2544 C2558 0.930 . S
H2545 C2560 0.960 . S
H2546 C2560 0.960 . S
H2547 C2560 0.960 . S
C2548 H2540 0.929 . S
C2548 C2549 1.377 . S
C2548 C2550 1.384 . S
C2549 C2548 1.377 . S
C2549 C2555 1.390 . S
C2550 H2541 0.930 . S
C2550 C2548 1.384 . S
C2550 C2551 1.372 . S
C2551 C2550 1.372 . S
C2551 C2552 1.400 . S
C2551 C2556 1.490 . S
C2552 H2542 0.930 . S
C2552 C2551 1.400 . S
C2552 C2555 1.386 . S
H2553 C2569 0.930 . S
H2554 C2570 0.931 . S
C2555 H2543 0.929 . S
C2555 C2549 1.390 . S
C2555 C2552 1.386 . S
C2556 C2551 1.490 . S
C2556 C2558 1.395 . S
C2556 C2559 1.403 . S
H2557 C2563 0.930 . S
C2558 H2544 0.930 . S
C2558 C2556 1.395 . S
C2558 C2561 1.403 . S
C2559 C2556 1.403 . S
C2559 C2560 1.524 . S
C2559 C2563 1.400 . S
C2560 H2545 0.960 . S
C2560 H2546 0.960 . S
C2560 H2547 0.960 . S
C2560 C2559 1.524 . S
C2561 C2558 1.403 . S
C2561 C2562 1.392 . S
C2561 C2565 1.495 . S
C2562 C2561 1.392 . S
C2562 C2563 1.385 . S
C2562 C2564 1.478 . S
C2563 H2557 0.930 . S
C2563 C2559 1.400 . S
C2563 C2562 1.385 . S
C2564 C2562 1.478 . S
C2564 C2566 1.381 . S
C2564 C2570 1.383 . S
C2565 C2561 1.495 . S
C2565 H2571 0.959 . S
C2565 H2572 0.961 . S
C2565 H2573 0.960 . S
C2566 C2564 1.381 . S
C2566 C2567 1.394 . S
C2566 H2574 0.930 . S
C2567 C2566 1.394 . S
C2567 C2568 1.383 . S
C2567 H2575 0.929 . S
C2568 C2567 1.383 . S
C2568 C2569 1.377 . S
C2569 H2553 0.930 . S
C2569 C2568 1.377 . S
C2569 C2570 1.379 . S
C2570 H2554 0.931 . S
C2570 C2564 1.383 . S
C2570 C2569 1.379 . S
H2571 C2565 0.959 . S
H2572 C2565 0.961 . S
H2573 C2565 0.960 . S
H2574 C2566 0.930 . S
H2575 C2567 0.929 . S
H2576 C2584 0.929 . S
H2577 C2586 0.930 . S
H2578 C2588 0.930 . S
H2579 C2591 0.929 . S
H2580 C2594 0.930 . S
H2581 C2596 0.960 . S
H2582 C2596 0.960 . S
H2583 C2596 0.960 . S
C2584 H2576 0.929 . S
C2584 C2585 1.377 . S
C2584 C2586 1.384 . S
C2585 C2584 1.377 . S
C2585 C2591 1.390 . S
C2586 H2577 0.930 . S
C2586 C2584 1.384 . S
C2586 C2587 1.372 . S
C2587 C2586 1.372 . S
C2587 C2588 1.400 . S
C2587 C2592 1.490 . S
C2588 H2578 0.930 . S
C2588 C2587 1.400 . S
C2588 C2591 1.386 . S
H2589 C2605 0.930 . S
H2590 C2606 0.931 . S
C2591 H2579 0.929 . S
C2591 C2585 1.390 . S
C2591 C2588 1.386 . S
C2592 C2587 1.490 . S
C2592 C2594 1.395 1_655 S
C2592 C2595 1.403 . S
H2593 C2599 0.930 . S
C2594 H2580 0.930 . S
C2594 C2592 1.395 1_455 S
C2594 C2597 1.403 . S
C2595 C2592 1.403 . S
C2595 C2596 1.524 . S
C2595 C2599 1.400 . S
C2596 H2581 0.960 . S
C2596 H2582 0.960 . S
C2596 H2583 0.960 . S
C2596 C2595 1.524 . S
C2597 C2594 1.403 . S
C2597 C2598 1.392 . S
C2597 C2601 1.495 . S
C2598 C2597 1.392 . S
C2598 C2599 1.385 1_455 S
C2598 C2600 1.478 . S
C2599 H2593 0.930 . S
C2599 C2595 1.400 . S
C2599 C2598 1.385 1_655 S
C2600 C2598 1.478 . S
C2600 C2602 1.381 . S
C2600 C2606 1.383 . S
C2601 C2597 1.495 . S
C2601 H2607 0.959 . S
C2601 H2608 0.961 . S
C2601 H2609 0.960 . S
C2602 C2600 1.381 . S
C2602 C2603 1.394 . S
C2602 H2610 0.930 . S
C2603 C2602 1.394 . S
C2603 C2604 1.383 . S
C2603 H2611 0.929 . S
C2604 C2603 1.383 . S
C2604 C2605 1.377 . S
C2605 H2589 0.930 . S
C2605 C2604 1.377 . S
C2605 C2606 1.379 . S
C2606 H2590 0.931 . S
C2606 C2600 1.383 . S
C2606 C2605 1.379 . S
H2607 C2601 0.959 . S
H2608 C2601 0.961 . S
H2609 C2601 0.960 . S
H2610 C2602 0.930 . S
H2611 C2603 0.929 . S
H2612 C2620 0.929 . S
H2613 C2622 0.930 . S
H2614 C2624 0.930 . S
H2615 C2627 0.929 . S
H2616 C2630 0.930 . S
H2617 C2632 0.960 . S
H2618 C2632 0.960 . S
H2619 C2632 0.960 . S
C2620 H2612 0.929 . S
C2620 C2621 1.377 . S
C2620 C2622 1.384 . S
C2621 C2620 1.377 . S
C2621 C2627 1.390 . S
C2622 H2613 0.930 . S
C2622 C2620 1.384 . S
C2622 C2623 1.372 . S
C2623 C2622 1.372 . S
C2623 C2624 1.400 . S
C2623 C2628 1.490 . S
C2624 H2614 0.930 . S
C2624 C2623 1.400 . S
C2624 C2627 1.386 . S
H2625 C2641 0.930 . S
H2626 C2642 0.931 . S
C2627 H2615 0.929 . S
C2627 C2621 1.390 . S
C2627 C2624 1.386 . S
C2628 C2623 1.490 . S
C2628 C2630 1.395 . S
C2628 C2631 1.403 . S
H2629 C2635 0.930 . S
C2630 H2616 0.930 . S
C2630 C2628 1.395 . S
C2630 C2633 1.403 . S
C2631 C2628 1.403 . S
C2631 C2632 1.524 . S
C2631 C2635 1.400 . S
C2632 H2617 0.960 . S
C2632 H2618 0.960 . S
C2632 H2619 0.960 . S
C2632 C2631 1.524 . S
C2633 C2630 1.403 . S
C2633 C2634 1.392 . S
C2633 C2637 1.495 . S
C2634 C2633 1.392 . S
C2634 C2635 1.385 . S
C2634 C2636 1.478 . S
C2635 H2629 0.930 . S
C2635 C2631 1.400 . S
C2635 C2634 1.385 . S
C2636 C2634 1.478 . S
C2636 C2638 1.381 . S
C2636 C2642 1.383 . S
C2637 C2633 1.495 . S
C2637 H2643 0.959 . S
C2637 H2644 0.961 . S
C2637 H2645 0.960 . S
C2638 C2636 1.381 . S
C2638 C2639 1.394 . S
C2638 H2646 0.930 . S
C2639 C2638 1.394 . S
C2639 C2640 1.383 . S
C2639 H2647 0.929 . S
C2640 C2639 1.383 . S
C2640 C2641 1.377 . S
C2641 H2625 0.930 . S
C2641 C2640 1.377 . S
C2641 C2642 1.379 . S
C2642 H2626 0.931 . S
C2642 C2636 1.383 . S
C2642 C2641 1.379 . S
H2643 C2637 0.959 . S
H2644 C2637 0.961 . S
H2645 C2637 0.960 . S
H2646 C2638 0.930 . S
H2647 C2639 0.929 . S
H2648 C2656 0.929 . S
H2649 C2658 0.930 . S
H2650 C2660 0.930 . S
H2651 C2663 0.929 . S
H2652 C2666 0.930 . S
H2653 C2668 0.960 . S
H2654 C2668 0.960 . S
H2655 C2668 0.960 . S
C2656 H2648 0.929 . S
C2656 C2657 1.377 . S
C2656 C2658 1.384 . S
C2657 C2656 1.377 . S
C2657 C2663 1.390 . S
C2658 H2649 0.930 . S
C2658 C2656 1.384 . S
C2658 C2659 1.372 . S
C2659 C2658 1.372 . S
C2659 C2660 1.400 . S
C2659 C2664 1.490 . S
C2660 H2650 0.930 . S
C2660 C2659 1.400 . S
C2660 C2663 1.386 . S
H2661 C2677 0.930 . S
H2662 C2678 0.931 . S
C2663 H2651 0.929 . S
C2663 C2657 1.390 . S
C2663 C2660 1.386 . S
C2664 C2659 1.490 . S
C2664 C2666 1.395 . S
C2664 C2667 1.403 . S
H2665 C2671 0.930 . S
C2666 H2652 0.930 . S
C2666 C2664 1.395 . S
C2666 C2669 1.403 . S
C2667 C2664 1.403 . S
C2667 C2668 1.524 . S
C2667 C2671 1.400 . S
C2668 H2653 0.960 . S
C2668 H2654 0.960 . S
C2668 H2655 0.960 . S
C2668 C2667 1.524 . S
C2669 C2666 1.403 . S
C2669 C2670 1.392 . S
C2669 C2673 1.495 . S
C2670 C2669 1.392 . S
C2670 C2671 1.385 . S
C2670 C2672 1.478 . S
C2671 H2665 0.930 . S
C2671 C2667 1.400 . S
C2671 C2670 1.385 . S
C2672 C2670 1.478 . S
C2672 C2674 1.381 . S
C2672 C2678 1.383 . S
C2673 C2669 1.495 . S
C2673 H2679 0.959 . S
C2673 H2680 0.961 . S
C2673 H2681 0.960 . S
C2674 C2672 1.381 . S
C2674 C2675 1.394 . S
C2674 H2682 0.930 . S
C2675 C2674 1.394 . S
C2675 C2676 1.383 . S
C2675 H2683 0.929 . S
C2676 C2675 1.383 . S
C2676 C2677 1.377 . S
C2677 H2661 0.930 . S
C2677 C2676 1.377 . S
C2677 C2678 1.379 . S
C2678 H2662 0.931 . S
C2678 C2672 1.383 . S
C2678 C2677 1.379 . S
H2679 C2673 0.959 . S
H2680 C2673 0.961 . S
H2681 C2673 0.960 . S
H2682 C2674 0.930 . S
H2683 C2675 0.929 . S
H2684 C2692 0.929 . S
H2685 C2694 0.930 . S
H2686 C2696 0.930 . S
H2687 C2699 0.929 . S
H2688 C2702 0.930 . S
H2689 C2704 0.960 . S
H2690 C2704 0.960 . S
H2691 C2704 0.960 . S
C2692 H2684 0.929 . S
C2692 C2693 1.377 . S
C2692 C2694 1.384 . S
C2693 C2692 1.377 . S
C2693 C2699 1.390 . S
C2694 H2685 0.930 . S
C2694 C2692 1.384 . S
C2694 C2695 1.372 . S
C2695 C2694 1.372 . S
C2695 C2696 1.400 . S
C2695 C2700 1.490 . S
C2696 H2686 0.930 . S
C2696 C2695 1.400 . S
C2696 C2699 1.386 . S
H2697 C2713 0.930 . S
H2698 C2714 0.931 . S
C2699 H2687 0.929 . S
C2699 C2693 1.390 . S
C2699 C2696 1.386 . S
C2700 C2695 1.490 . S
C2700 C2702 1.395 1_455 S
C2700 C2703 1.403 . S
H2701 C2707 0.930 1_455 S
C2702 H2688 0.930 . S
C2702 C2700 1.395 1_655 S
C2702 C2705 1.403 . S
C2703 C2700 1.403 . S
C2703 C2704 1.524 . S
C2703 C2707 1.400 1_455 S
C2704 H2689 0.960 . S
C2704 H2690 0.960 . S
C2704 H2691 0.960 . S
C2704 C2703 1.524 . S
C2705 C2702 1.403 . S
C2705 C2706 1.392 . S
C2705 C2709 1.495 . S
C2706 C2705 1.392 . S
C2706 C2707 1.385 . S
C2706 C2708 1.478 . S
C2707 H2701 0.930 1_655 S
C2707 C2703 1.400 1_655 S
C2707 C2706 1.385 . S
C2708 C2706 1.478 . S
C2708 C2710 1.381 . S
C2708 C2714 1.383 . S
C2709 C2705 1.495 . S
C2709 H2715 0.959 . S
C2709 H2716 0.961 . S
C2709 H2717 0.960 . S
C2710 C2708 1.381 . S
C2710 C2711 1.394 . S
C2710 H2718 0.930 . S
C2711 C2710 1.394 . S
C2711 C2712 1.383 . S
C2711 H2719 0.929 . S
C2712 C2711 1.383 . S
C2712 C2713 1.377 . S
C2713 H2697 0.930 . S
C2713 C2712 1.377 . S
C2713 C2714 1.379 . S
C2714 H2698 0.931 . S
C2714 C2708 1.383 . S
C2714 C2713 1.379 . S
H2715 C2709 0.959 . S
H2716 C2709 0.961 . S
H2717 C2709 0.960 . S
H2718 C2710 0.930 . S
H2719 C2711 0.929 . S
H2720 C2728 0.929 . S
H2721 C2730 0.930 . S
H2722 C2732 0.930 . S
H2723 C2735 0.929 . S
H2724 C2738 0.930 . S
H2725 C2740 0.960 . S
H2726 C2740 0.960 . S
H2727 C2740 0.960 . S
C2728 H2720 0.929 . S
C2728 C2729 1.377 . S
C2728 C2730 1.384 . S
C2729 C2728 1.377 . S
C2729 C2735 1.390 . S
C2730 H2721 0.930 . S
C2730 C2728 1.384 . S
C2730 C2731 1.372 . S
C2731 C2730 1.372 . S
C2731 C2732 1.400 . S
C2731 C2736 1.490 . S
C2732 H2722 0.930 . S
C2732 C2731 1.400 . S
C2732 C2735 1.386 . S
H2733 C2749 0.930 . S
H2734 C2750 0.931 . S
C2735 H2723 0.929 . S
C2735 C2729 1.390 . S
C2735 C2732 1.386 . S
C2736 C2731 1.490 . S
C2736 C2738 1.395 . S
C2736 C2739 1.403 1_455 S
H2737 C2743 0.930 . S
C2738 H2724 0.930 . S
C2738 C2736 1.395 . S
C2738 C2741 1.403 . S
C2739 C2736 1.403 1_655 S
C2739 C2740 1.524 . S
C2739 C2743 1.400 . S
C2740 H2725 0.960 . S
C2740 H2726 0.960 . S
C2740 H2727 0.960 . S
C2740 C2739 1.524 . S
C2741 C2738 1.403 . S
C2741 C2742 1.392 1_455 S
C2741 C2745 1.495 . S
C2742 C2741 1.392 1_655 S
C2742 C2743 1.385 . S
C2742 C2744 1.478 . S
C2743 H2737 0.930 . S
C2743 C2739 1.400 . S
C2743 C2742 1.385 . S
C2744 C2742 1.478 . S
C2744 C2746 1.381 . S
C2744 C2750 1.383 . S
C2745 C2741 1.495 . S
C2745 H2751 0.959 . S
C2745 H2752 0.961 . S
C2745 H2753 0.960 . S
C2746 C2744 1.381 . S
C2746 C2747 1.394 . S
C2746 H2754 0.930 . S
C2747 C2746 1.394 . S
C2747 C2748 1.383 . S
C2747 H2755 0.929 . S
C2748 C2747 1.383 . S
C2748 C2749 1.377 . S
C2749 H2733 0.930 . S
C2749 C2748 1.377 . S
C2749 C2750 1.379 . S
C2750 H2734 0.931 . S
C2750 C2744 1.383 . S
C2750 C2749 1.379 . S
H2751 C2745 0.959 . S
H2752 C2745 0.961 . S
H2753 C2745 0.960 . S
H2754 C2746 0.930 . S
H2755 C2747 0.929 . S
H2756 C2764 0.929 . S
H2757 C2766 0.930 . S
H2758 C2768 0.930 . S
H2759 C2771 0.929 . S
H2760 C2774 0.930 . S
H2761 C2776 0.960 . S
H2762 C2776 0.960 . S
H2763 C2776 0.960 . S
C2764 H2756 0.929 . S
C2764 C2765 1.377 . S
C2764 C2766 1.384 . S
C2765 C2764 1.377 . S
C2765 C2771 1.390 . S
C2766 H2757 0.930 . S
C2766 C2764 1.384 . S
C2766 C2767 1.372 . S
C2767 C2766 1.372 . S
C2767 C2768 1.400 . S
C2767 C2772 1.490 . S
C2768 H2758 0.930 . S
C2768 C2767 1.400 . S
C2768 C2771 1.386 . S
H2769 C2785 0.930 . S
H2770 C2786 0.931 . S
C2771 H2759 0.929 . S
C2771 C2765 1.390 . S
C2771 C2768 1.386 . S
C2772 C2767 1.490 . S
C2772 C2774 1.395 . S
C2772 C2775 1.403 . S
H2773 C2779 0.930 . S
C2774 H2760 0.930 . S
C2774 C2772 1.395 . S
C2774 C2777 1.403 1_655 S
C2775 C2772 1.403 . S
C2775 C2776 1.524 . S
C2775 C2779 1.400 1_655 S
C2776 H2761 0.960 . S
C2776 H2762 0.960 . S
C2776 H2763 0.960 . S
C2776 C2775 1.524 . S
C2777 C2774 1.403 1_455 S
C2777 C2778 1.392 . S
C2777 C2781 1.495 . S
C2778 C2777 1.392 . S
C2778 C2779 1.385 . S
C2778 C2780 1.478 . S
C2779 H2773 0.930 . S
C2779 C2775 1.400 1_455 S
C2779 C2778 1.385 . S
C2780 C2778 1.478 . S
C2780 C2782 1.381 . S
C2780 C2786 1.383 . S
C2781 C2777 1.495 . S
C2781 H2787 0.959 . S
C2781 H2788 0.961 . S
C2781 H2789 0.960 . S
C2782 C2780 1.381 . S
C2782 C2783 1.394 . S
C2782 H2790 0.930 . S
C2783 C2782 1.394 . S
C2783 C2784 1.383 . S
C2783 H2791 0.929 . S
C2784 C2783 1.383 . S
C2784 C2785 1.377 . S
C2785 H2769 0.930 . S
C2785 C2784 1.377 . S
C2785 C2786 1.379 . S
C2786 H2770 0.931 . S
C2786 C2780 1.383 . S
C2786 C2785 1.379 . S
H2787 C2781 0.959 . S
H2788 C2781 0.961 . S
H2789 C2781 0.960 . S
H2790 C2782 0.930 . S
H2791 C2783 0.929 . S
H2792 C2800 0.929 . S
H2793 C2802 0.930 . S
H2794 C2804 0.930 . S
H2795 C2807 0.929 . S
H2796 C2810 0.930 . S
H2797 C2812 0.960 . S
H2798 C2812 0.960 . S
H2799 C2812 0.960 . S
C2800 H2792 0.929 . S
C2800 C2801 1.377 . S
C2800 C2802 1.384 . S
C2801 C2800 1.377 . S
C2801 C2807 1.390 . S
C2802 H2793 0.930 . S
C2802 C2800 1.384 . S
C2802 C2803 1.372 . S
C2803 C2802 1.372 . S
C2803 C2804 1.400 . S
C2803 C2808 1.490 . S
C2804 H2794 0.930 . S
C2804 C2803 1.400 . S
C2804 C2807 1.386 . S
H2805 C2821 0.930 . S
H2806 C2822 0.931 . S
C2807 H2795 0.929 . S
C2807 C2801 1.390 . S
C2807 C2804 1.386 . S
C2808 C2803 1.490 . S
C2808 C2810 1.395 . S
C2808 C2811 1.403 . S
H2809 C2815 0.930 . S
C2810 H2796 0.930 . S
C2810 C2808 1.395 . S
C2810 C2813 1.403 . S
C2811 C2808 1.403 . S
C2811 C2812 1.524 . S
C2811 C2815 1.400 . S
C2812 H2797 0.960 . S
C2812 H2798 0.960 . S
C2812 H2799 0.960 . S
C2812 C2811 1.524 . S
C2813 C2810 1.403 . S
C2813 C2814 1.392 . S
C2813 C2817 1.495 . S
C2814 C2813 1.392 . S
C2814 C2815 1.385 . S
C2814 C2816 1.478 . S
C2815 H2809 0.930 . S
C2815 C2811 1.400 . S
C2815 C2814 1.385 . S
C2816 C2814 1.478 . S
C2816 C2818 1.381 . S
C2816 C2822 1.383 . S
C2817 C2813 1.495 . S
C2817 H2823 0.959 . S
C2817 H2824 0.961 . S
C2817 H2825 0.960 . S
C2818 C2816 1.381 . S
C2818 C2819 1.394 . S
C2818 H2826 0.930 . S
C2819 C2818 1.394 . S
C2819 C2820 1.383 . S
C2819 H2827 0.929 . S
C2820 C2819 1.383 . S
C2820 C2821 1.377 . S
C2821 H2805 0.930 . S
C2821 C2820 1.377 . S
C2821 C2822 1.379 . S
C2822 H2806 0.931 . S
C2822 C2816 1.383 . S
C2822 C2821 1.379 . S
H2823 C2817 0.959 . S
H2824 C2817 0.961 . S
H2825 C2817 0.960 . S
H2826 C2818 0.930 . S
H2827 C2819 0.929 . S
H2828 C2836 0.929 . S
H2829 C2838 0.930 . S
H2830 C2840 0.930 . S
H2831 C2843 0.929 . S
H2832 C2846 0.930 . S
H2833 C2848 0.960 . S
H2834 C2848 0.960 . S
H2835 C2848 0.960 . S
C2836 H2828 0.929 . S
C2836 C2837 1.377 . S
C2836 C2838 1.384 . S
C2837 C2836 1.377 . S
C2837 C2843 1.390 . S
C2838 H2829 0.930 . S
C2838 C2836 1.384 . S
C2838 C2839 1.372 . S
C2839 C2838 1.372 . S
C2839 C2840 1.400 . S
C2839 C2844 1.490 . S
C2840 H2830 0.930 . S
C2840 C2839 1.400 . S
C2840 C2843 1.386 . S
H2841 C2857 0.930 . S
H2842 C2858 0.931 . S
C2843 H2831 0.929 . S
C2843 C2837 1.390 . S
C2843 C2840 1.386 . S
C2844 C2839 1.490 . S
C2844 C2846 1.395 . S
C2844 C2847 1.403 . S
H2845 C2851 0.930 . S
C2846 H2832 0.930 . S
C2846 C2844 1.395 . S
C2846 C2849 1.403 . S
C2847 C2844 1.403 . S
C2847 C2848 1.524 . S
C2847 C2851 1.400 . S
C2848 H2833 0.960 . S
C2848 H2834 0.960 . S
C2848 H2835 0.960 . S
C2848 C2847 1.524 . S
C2849 C2846 1.403 . S
C2849 C2850 1.392 . S
C2849 C2853 1.495 . S
C2850 C2849 1.392 . S
C2850 C2851 1.385 . S
C2850 C2852 1.478 . S
C2851 H2845 0.930 . S
C2851 C2847 1.400 . S
C2851 C2850 1.385 . S
C2852 C2850 1.478 . S
C2852 C2854 1.381 . S
C2852 C2858 1.383 . S
C2853 C2849 1.495 . S
C2853 H2859 0.959 . S
C2853 H2860 0.961 . S
C2853 H2861 0.960 . S
C2854 C2852 1.381 . S
C2854 C2855 1.394 . S
C2854 H2862 0.930 . S
C2855 C2854 1.394 . S
C2855 C2856 1.383 . S
C2855 H2863 0.929 . S
C2856 C2855 1.383 . S
C2856 C2857 1.377 . S
C2857 H2841 0.930 . S
C2857 C2856 1.377 . S
C2857 C2858 1.379 . S
C2858 H2842 0.931 . S
C2858 C2852 1.383 . S
C2858 C2857 1.379 . S
H2859 C2853 0.959 . S
H2860 C2853 0.961 . S
H2861 C2853 0.960 . S
H2862 C2854 0.930 . S
H2863 C2855 0.929 . S
H2864 C2872 0.929 . S
H2865 C2874 0.930 . S
H2866 C2876 0.930 . S
H2867 C2879 0.929 . S
H2868 C2882 0.930 . S
H2869 C2884 0.960 . S
H2870 C2884 0.960 . S
H2871 C2884 0.960 . S
C2872 H2864 0.929 . S
C2872 C2873 1.377 . S
C2872 C2874 1.384 . S
C2873 C2872 1.377 . S
C2873 C2879 1.390 . S
C2874 H2865 0.930 . S
C2874 C2872 1.384 . S
C2874 C2875 1.372 . S
C2875 C2874 1.372 . S
C2875 C2876 1.400 . S
C2875 C2880 1.490 . S
C2876 H2866 0.930 . S
C2876 C2875 1.400 . S
C2876 C2879 1.386 . S
H2877 C2893 0.930 . S
H2878 C2894 0.931 . S
C2879 H2867 0.929 . S
C2879 C2873 1.390 . S
C2879 C2876 1.386 . S
C2880 C2875 1.490 . S
C2880 C2882 1.395 . S
C2880 C2883 1.403 1_455 S
H2881 C2887 0.930 . S
C2882 H2868 0.930 . S
C2882 C2880 1.395 . S
C2882 C2885 1.403 . S
C2883 C2880 1.403 1_655 S
C2883 C2884 1.524 . S
C2883 C2887 1.400 . S
C2884 H2869 0.960 . S
C2884 H2870 0.960 . S
C2884 H2871 0.960 . S
C2884 C2883 1.524 . S
C2885 C2882 1.403 . S
C2885 C2886 1.392 1_455 S
C2885 C2889 1.495 . S
C2886 C2885 1.392 1_655 S
C2886 C2887 1.385 . S
C2886 C2888 1.478 . S
C2887 H2881 0.930 . S
C2887 C2883 1.400 . S
C2887 C2886 1.385 . S
C2888 C2886 1.478 . S
C2888 C2890 1.381 . S
C2888 C2894 1.383 . S
C2889 C2885 1.495 . S
C2889 H2895 0.959 . S
C2889 H2896 0.961 . S
C2889 H2897 0.960 . S
C2890 C2888 1.381 . S
C2890 C2891 1.394 . S
C2890 H2898 0.930 . S
C2891 C2890 1.394 . S
C2891 C2892 1.383 . S
C2891 H2899 0.929 . S
C2892 C2891 1.383 . S
C2892 C2893 1.377 . S
C2893 H2877 0.930 . S
C2893 C2892 1.377 . S
C2893 C2894 1.379 . S
C2894 H2878 0.931 . S
C2894 C2888 1.383 . S
C2894 C2893 1.379 . S
H2895 C2889 0.959 . S
H2896 C2889 0.961 . S
H2897 C2889 0.960 . S
H2898 C2890 0.930 . S
H2899 C2891 0.929 . S
H2900 C2908 0.929 . S
H2901 C2910 0.930 . S
H2902 C2912 0.930 . S
H2903 C2915 0.929 . S
H2904 C2918 0.930 . S
H2905 C2920 0.960 . S
H2906 C2920 0.960 . S
H2907 C2920 0.960 . S
C2908 H2900 0.929 . S
C2908 C2909 1.377 . S
C2908 C2910 1.384 . S
C2909 C2908 1.377 . S
C2909 C2915 1.390 . S
C2910 H2901 0.930 . S
C2910 C2908 1.384 . S
C2910 C2911 1.372 . S
C2911 C2910 1.372 . S
C2911 C2912 1.400 . S
C2911 C2916 1.490 . S
C2912 H2902 0.930 . S
C2912 C2911 1.400 . S
C2912 C2915 1.386 . S
H2913 C2929 0.930 . S
H2914 C2930 0.931 . S
C2915 H2903 0.929 . S
C2915 C2909 1.390 . S
C2915 C2912 1.386 . S
C2916 C2911 1.490 . S
C2916 C2918 1.395 . S
C2916 C2919 1.403 . S
H2917 C2923 0.930 . S
C2918 H2904 0.930 . S
C2918 C2916 1.395 . S
C2918 C2921 1.403 . S
C2919 C2916 1.403 . S
C2919 C2920 1.524 . S
C2919 C2923 1.400 . S
C2920 H2905 0.960 . S
C2920 H2906 0.960 . S
C2920 H2907 0.960 . S
C2920 C2919 1.524 . S
C2921 C2918 1.403 . S
C2921 C2922 1.392 . S
C2921 C2925 1.495 . S
C2922 C2921 1.392 . S
C2922 C2923 1.385 . S
C2922 C2924 1.478 . S
C2923 H2917 0.930 . S
C2923 C2919 1.400 . S
C2923 C2922 1.385 . S
C2924 C2922 1.478 . S
C2924 C2926 1.381 . S
C2924 C2930 1.383 . S
C2925 C2921 1.495 . S
C2925 H2931 0.959 . S
C2925 H2932 0.961 . S
C2925 H2933 0.960 . S
C2926 C2924 1.381 . S
C2926 C2927 1.394 . S
C2926 H2934 0.930 . S
C2927 C2926 1.394 . S
C2927 C2928 1.383 . S
C2927 H2935 0.929 . S
C2928 C2927 1.383 . S
C2928 C2929 1.377 . S
C2929 H2913 0.930 . S
C2929 C2928 1.377 . S
C2929 C2930 1.379 . S
C2930 H2914 0.931 . S
C2930 C2924 1.383 . S
C2930 C2929 1.379 . S
H2931 C2925 0.959 . S
H2932 C2925 0.961 . S
H2933 C2925 0.960 . S
H2934 C2926 0.930 . S
H2935 C2927 0.929 . S
H2936 C2944 0.929 . S
H2937 C2946 0.930 . S
H2938 C2948 0.930 . S
H2939 C2951 0.929 . S
H2940 C2954 0.930 . S
H2941 C2956 0.960 . S
H2942 C2956 0.960 . S
H2943 C2956 0.960 . S
C2944 H2936 0.929 . S
C2944 C2945 1.377 . S
C2944 C2946 1.384 . S
C2945 C2944 1.377 . S
C2945 C2951 1.390 . S
C2946 H2937 0.930 . S
C2946 C2944 1.384 . S
C2946 C2947 1.372 . S
C2947 C2946 1.372 . S
C2947 C2948 1.400 . S
C2947 C2952 1.490 . S
C2948 H2938 0.930 . S
C2948 C2947 1.400 . S
C2948 C2951 1.386 . S
H2949 C2965 0.930 . S
H2950 C2966 0.931 . S
C2951 H2939 0.929 . S
C2951 C2945 1.390 . S
C2951 C2948 1.386 . S
C2952 C2947 1.490 . S
C2952 C2954 1.395 . S
C2952 C2955 1.403 . S
H2953 C2959 0.930 . S
C2954 H2940 0.930 . S
C2954 C2952 1.395 . S
C2954 C2957 1.403 . S
C2955 C2952 1.403 . S
C2955 C2956 1.524 . S
C2955 C2959 1.400 . S
C2956 H2941 0.960 . S
C2956 H2942 0.960 . S
C2956 H2943 0.960 . S
C2956 C2955 1.524 . S
C2957 C2954 1.403 . S
C2957 C2958 1.392 . S
C2957 C2961 1.495 . S
C2958 C2957 1.392 . S
C2958 C2959 1.385 . S
C2958 C2960 1.478 . S
C2959 H2953 0.930 . S
C2959 C2955 1.400 . S
C2959 C2958 1.385 . S
C2960 C2958 1.478 . S
C2960 C2962 1.381 . S
C2960 C2966 1.383 . S
C2961 C2957 1.495 . S
C2961 H2967 0.959 . S
C2961 H2968 0.961 . S
C2961 H2969 0.960 . S
C2962 C2960 1.381 . S
C2962 C2963 1.394 . S
C2962 H2970 0.930 . S
C2963 C2962 1.394 . S
C2963 C2964 1.383 . S
C2963 H2971 0.929 . S
C2964 C2963 1.383 . S
C2964 C2965 1.377 . S
C2965 H2949 0.930 . S
C2965 C2964 1.377 . S
C2965 C2966 1.379 . S
C2966 H2950 0.931 . S
C2966 C2960 1.383 . S
C2966 C2965 1.379 . S
H2967 C2961 0.959 . S
H2968 C2961 0.961 . S
H2969 C2961 0.960 . S
H2970 C2962 0.930 . S
H2971 C2963 0.929 . S
H2972 C2980 0.929 . S
H2973 C2982 0.930 . S
H2974 C2984 0.930 . S
H2975 C2987 0.929 . S
H2976 C2990 0.930 . S
H2977 C2992 0.960 . S
H2978 C2992 0.960 . S
H2979 C2992 0.960 . S
C2980 H2972 0.929 . S
C2980 C2981 1.377 . S
C2980 C2982 1.384 . S
C2981 C2980 1.377 . S
C2981 C2987 1.390 . S
C2982 H2973 0.930 . S
C2982 C2980 1.384 . S
C2982 C2983 1.372 . S
C2983 C2982 1.372 . S
C2983 C2984 1.400 . S
C2983 C2988 1.490 . S
C2984 H2974 0.930 . S
C2984 C2983 1.400 . S
C2984 C2987 1.386 . S
H2985 C3001 0.930 . S
H2986 C3002 0.931 . S
C2987 H2975 0.929 . S
C2987 C2981 1.390 . S
C2987 C2984 1.386 . S
C2988 C2983 1.490 . S
C2988 C2990 1.395 1_655 S
C2988 C2991 1.403 . S
H2989 C2995 0.934 . S
C2990 H2976 0.930 . S
C2990 C2988 1.395 1_455 S
C2990 C2993 1.403 . S
C2991 C2988 1.403 . S
C2991 C2992 1.524 . S
C2991 C2995 1.424 . S
C2992 H2977 0.960 . S
C2992 H2978 0.960 . S
C2992 H2979 0.960 . S
C2992 C2991 1.524 . S
C2993 C2990 1.403 . S
C2993 C2994 1.392 . S
C2993 C2997 1.495 . S
C2994 C2993 1.392 . S
C2994 C2995 1.358 1_455 S
C2994 C2996 1.478 . S
C2995 H2989 0.934 . S
C2995 C2991 1.424 . S
C2995 C2994 1.358 1_655 S
C2996 C2994 1.478 . S
C2996 C2998 1.381 . S
C2996 C3002 1.383 . S
C2997 C2993 1.495 . S
C2997 H3003 0.959 . S
C2997 H3004 0.961 . S
C2997 H3005 0.960 . S
C2998 C2996 1.381 . S
C2998 C2999 1.394 . S
C2998 H3006 0.930 . S
C2999 C2998 1.394 . S
C2999 C3000 1.383 . S
C2999 H3007 0.929 . S
C3000 C2999 1.383 . S
C3000 C3001 1.377 . S
C3001 H2985 0.930 . S
C3001 C3000 1.377 . S
C3001 C3002 1.379 . S
C3002 H2986 0.931 . S
C3002 C2996 1.383 . S
C3002 C3001 1.379 . S
H3003 C2997 0.959 . S
H3004 C2997 0.961 . S
H3005 C2997 0.960 . S
H3006 C2998 0.930 . S
H3007 C2999 0.929 . S
H3008 C3016 0.929 . S
H3009 C3018 0.930 . S
H3010 C3020 0.930 . S
H3011 C3023 0.929 . S
H3012 C3026 0.930 . S
H3013 C3028 0.960 . S
H3014 C3028 0.960 . S
H3015 C3028 0.960 . S
C3016 H3008 0.929 . S
C3016 C3017 1.377 . S
C3016 C3018 1.384 . S
C3017 C3016 1.377 . S
C3017 C3023 1.390 . S
C3018 H3009 0.930 . S
C3018 C3016 1.384 . S
C3018 C3019 1.372 . S
C3019 C3018 1.372 . S
C3019 C3020 1.400 . S
C3019 C3024 1.490 . S
C3020 H3010 0.930 . S
C3020 C3019 1.400 . S
C3020 C3023 1.386 . S
H3021 C3037 0.930 . S
H3022 C3038 0.931 . S
C3023 H3011 0.929 . S
C3023 C3017 1.390 . S
C3023 C3020 1.386 . S
C3024 C3019 1.490 . S
C3024 C3026 1.395 . S
C3024 C3027 1.403 . S
H3025 C3031 0.930 . S
C3026 H3012 0.930 . S
C3026 C3024 1.395 . S
C3026 C3029 1.403 . S
C3027 C3024 1.403 . S
C3027 C3028 1.524 . S
C3027 C3031 1.400 . S
C3028 H3013 0.960 . S
C3028 H3014 0.960 . S
C3028 H3015 0.960 . S
C3028 C3027 1.524 . S
C3029 C3026 1.403 . S
C3029 C3030 1.392 . S
C3029 C3033 1.495 . S
C3030 C3029 1.392 . S
C3030 C3031 1.385 . S
C3030 C3032 1.478 . S
C3031 H3025 0.930 . S
C3031 C3027 1.400 . S
C3031 C3030 1.385 . S
C3032 C3030 1.478 . S
C3032 C3034 1.381 . S
C3032 C3038 1.383 . S
C3033 C3029 1.495 . S
C3033 H3039 0.959 . S
C3033 H3040 0.961 . S
C3033 H3041 0.960 . S
C3034 C3032 1.381 . S
C3034 C3035 1.394 . S
C3034 H3042 0.930 . S
C3035 C3034 1.394 . S
C3035 C3036 1.383 . S
C3035 H3043 0.929 . S
C3036 C3035 1.383 . S
C3036 C3037 1.377 . S
C3037 H3021 0.930 . S
C3037 C3036 1.377 . S
C3037 C3038 1.379 . S
C3038 H3022 0.931 . S
C3038 C3032 1.383 . S
C3038 C3037 1.379 . S
H3039 C3033 0.959 . S
H3040 C3033 0.961 . S
H3041 C3033 0.960 . S
H3042 C3034 0.930 . S
H3043 C3035 0.929 . S
H3044 C3052 0.929 . S
H3045 C3054 0.930 . S
H3046 C3056 0.930 . S
H3047 C3059 0.960 . S
H3048 C3062 0.930 . S
H3049 C3064 0.960 . S
H3050 C3064 0.959 1_645 S
H3051 C3064 0.960 1_655 S
C3052 H3044 0.929 . S
C3052 C3053 1.377 . S
C3052 C3054 1.384 . S
C3053 C3052 1.377 . S
C3053 C3059 1.352 1_545 S
C3054 H3045 0.930 . S
C3054 C3052 1.384 . S
C3054 C3055 1.372 . S
C3055 C3054 1.372 . S
C3055 C3056 1.400 1_545 S
C3055 C3060 1.490 . S
C3056 H3046 0.930 . S
C3056 C3055 1.400 1_565 S
C3056 C3059 1.394 . S
H3057 C3073 0.930 . S
H3058 C3074 0.931 . S
C3059 H3047 0.960 . S
C3059 C3053 1.352 1_565 S
C3059 C3056 1.394 . S
C3060 C3055 1.490 . S
C3060 C3062 1.395 . S
C3060 C3063 1.419 1_545 S
H3061 C3067 0.930 . S
C3062 H3048 0.930 . S
C3062 C3060 1.395 . S
C3062 C3065 1.426 . S
C3063 C3060 1.419 1_565 S
C3063 C3064 1.523 1_655 S
C3063 C3067 1.384 1_655 S
C3064 H3049 0.960 . S
C3064 H3050 0.959 1_465 S
C3064 H3051 0.960 1_455 S
C3064 C3063 1.523 1_455 S
C3065 C3062 1.426 . S
C3065 C3066 1.369 1_645 S
C3065 C3069 1.497 . S
C3066 C3065 1.369 1_465 S
C3066 C3067 1.385 . S
C3066 C3068 1.478 . S
C3067 H3061 0.930 . S
C3067 C3063 1.384 1_455 S
C3067 C3066 1.385 . S
C3068 C3066 1.478 . S
C3068 C3070 1.381 1_565 S
C3068 C3074 1.383 . S
C3069 C3065 1.497 . S
C3069 H3075 0.959 . S
C3069 H3076 0.960 1_645 S
C3069 H3077 0.960 1_655 S
C3070 C3068 1.381 1_545 S
C3070 C3071 1.394 . S
C3070 H3078 0.930 . S
C3071 C3070 1.394 . S
C3071 C3072 1.383 1_545 S
C3071 H3079 0.929 . S
C3072 C3071 1.383 1_565 S
C3072 C3073 1.377 . S
C3073 H3057 0.930 . S
C3073 C3072 1.377 . S
C3073 C3074 1.379 . S
C3074 H3058 0.931 . S
C3074 C3068 1.383 . S
C3074 C3073 1.379 . S
H3075 C3069 0.959 . S
H3076 C3069 0.960 1_465 S
H3077 C3069 0.960 1_455 S
H3078 C3070 0.930 . S
H3079 C3071 0.929 . S
H3080 C3088 0.929 . S
H3081 C3090 0.930 . S
H3082 C3092 0.930 . S
H3083 C3095 0.929 . S
H3084 C3098 0.930 . S
H3085 C3100 0.960 . S
H3086 C3100 0.960 . S
H3087 C3100 0.960 . S
C3088 H3080 0.929 . S
C3088 C3089 1.377 . S
C3088 C3090 1.384 . S
C3089 C3088 1.377 . S
C3089 C3095 1.390 . S
C3090 H3081 0.930 . S
C3090 C3088 1.384 . S
C3090 C3091 1.372 . S
C3091 C3090 1.372 . S
C3091 C3092 1.400 . S
C3091 C3096 1.490 . S
C3092 H3082 0.930 . S
C3092 C3091 1.400 . S
C3092 C3095 1.386 . S
H3093 C3109 0.930 . S
H3094 C3110 0.931 . S
C3095 H3083 0.929 . S
C3095 C3089 1.390 . S
C3095 C3092 1.386 . S
C3096 C3091 1.490 . S
C3096 C3098 1.395 . S
C3096 C3099 1.403 . S
H3097 C3103 0.930 . S
C3098 H3084 0.930 . S
C3098 C3096 1.395 . S
C3098 C3101 1.403 . S
C3099 C3096 1.403 . S
C3099 C3100 1.524 . S
C3099 C3103 1.400 . S
C3100 H3085 0.960 . S
C3100 H3086 0.960 . S
C3100 H3087 0.960 . S
C3100 C3099 1.524 . S
C3101 C3098 1.403 . S
C3101 C3102 1.392 . S
C3101 C3105 1.495 . S
C3102 C3101 1.392 . S
C3102 C3103 1.385 . S
C3102 C3104 1.478 . S
C3103 H3097 0.930 . S
C3103 C3099 1.400 . S
C3103 C3102 1.385 . S
C3104 C3102 1.478 . S
C3104 C3106 1.381 . S
C3104 C3110 1.383 . S
C3105 C3101 1.495 . S
C3105 H3111 0.959 . S
C3105 H3112 0.961 . S
C3105 H3113 0.960 . S
C3106 C3104 1.381 . S
C3106 C3107 1.394 . S
C3106 H3114 0.930 . S
C3107 C3106 1.394 . S
C3107 C3108 1.383 . S
C3107 H3115 0.929 . S
C3108 C3107 1.383 . S
C3108 C3109 1.377 . S
C3109 H3093 0.930 . S
C3109 C3108 1.377 . S
C3109 C3110 1.379 . S
C3110 H3094 0.931 . S
C3110 C3104 1.383 . S
C3110 C3109 1.379 . S
H3111 C3105 0.959 . S
H3112 C3105 0.961 . S
H3113 C3105 0.960 . S
H3114 C3106 0.930 . S
H3115 C3107 0.929 . S
H3116 C3124 0.929 . S
H3117 C3126 0.930 . S
H3118 C3128 0.930 . S
H3119 C3131 0.929 1_565 S
H3120 C3134 0.930 . S
H3121 C3136 0.960 . S
H3122 C3136 0.960 . S
H3123 C3136 0.960 1_554 S
C3124 H3116 0.929 . S
C3124 C3125 1.377 . S
C3124 C3126 1.384 . S
C3125 C3124 1.377 . S
C3125 C3131 1.390 . S
C3126 H3117 0.930 . S
C3126 C3124 1.384 . S
C3126 C3127 1.372 . S
C3127 C3126 1.372 . S
C3127 C3128 1.400 1_545 S
C3127 C3132 1.490 . S
C3128 H3118 0.930 . S
C3128 C3127 1.400 1_565 S
C3128 C3131 1.386 1_565 S
H3129 C3145 0.930 . S
H3130 C3146 0.931 . S
C3131 H3119 0.929 1_545 S
C3131 C3125 1.390 . S
C3131 C3128 1.386 1_545 S
C3132 C3127 1.490 . S
C3132 C3134 1.395 . S
C3132 C3135 1.355 1_544 S
H3133 C3139 0.930 . S
C3134 H3120 0.930 . S
C3134 C3132 1.395 . S
C3134 C3137 1.438 . S
C3135 C3132 1.355 1_566 S
C3135 C3136 1.538 . S
C3135 C3139 1.443 . S
C3136 H3121 0.960 . S
C3136 H3122 0.960 . S
C3136 H3123 0.960 1_556 S
C3136 C3135 1.538 . S
C3137 C3134 1.438 . S
C3137 C3138 1.355 1_544 S
C3137 C3141 1.504 . S
C3138 C3137 1.355 1_566 S
C3138 C3139 1.385 . S
C3138 C3140 1.478 . S
C3139 H3133 0.930 . S
C3139 C3135 1.443 . S
C3139 C3138 1.385 . S
C3140 C3138 1.478 . S
C3140 C3142 1.381 1_565 S
C3140 C3146 1.383 . S
C3141 C3137 1.504 . S
C3141 H3147 0.959 . S
C3141 H3148 0.961 . S
C3141 H3149 0.960 1_554 S
C3142 C3140 1.381 1_545 S
C3142 C3143 1.394 1_545 S
C3142 H3150 0.930 . S
C3143 C3142 1.394 1_565 S
C3143 C3144 1.383 . S
C3143 H3151 0.929 1_565 S
C3144 C3143 1.383 . S
C3144 C3145 1.377 . S
C3145 H3129 0.930 . S
C3145 C3144 1.377 . S
C3145 C3146 1.379 . S
C3146 H3130 0.931 . S
C3146 C3140 1.383 . S
C3146 C3145 1.379 . S
H3147 C3141 0.959 . S
H3148 C3141 0.961 . S
H3149 C3141 0.960 1_556 S
H3150 C3142 0.930 . S
H3151 C3143 0.929 1_545 S
H3152 C3160 0.929 . S
H3153 C3162 0.930 . S
H3154 C3164 0.930 . S
H3155 C3167 0.929 . S
H3156 C3170 0.930 . S
H3157 C3172 0.960 . S
H3158 C3172 0.960 . S
H3159 C3172 0.960 . S
C3160 H3152 0.929 . S
C3160 C3161 1.377 . S
C3160 C3162 1.384 . S
C3161 C3160 1.377 . S
C3161 C3167 1.390 . S
C3162 H3153 0.930 . S
C3162 C3160 1.384 . S
C3162 C3163 1.372 . S
C3163 C3162 1.372 . S
C3163 C3164 1.400 . S
C3163 C3168 1.490 . S
C3164 H3154 0.930 . S
C3164 C3163 1.400 . S
C3164 C3167 1.386 . S
H3165 C3181 0.930 . S
H3166 C3182 0.931 . S
C3167 H3155 0.929 . S
C3167 C3161 1.390 . S
C3167 C3164 1.386 . S
C3168 C3163 1.490 . S
C3168 C3170 1.395 . S
C3168 C3171 1.403 . S
H3169 C3175 0.930 . S
C3170 H3156 0.930 . S
C3170 C3168 1.395 . S
C3170 C3173 1.403 . S
C3171 C3168 1.403 . S
C3171 C3172 1.524 . S
C3171 C3175 1.400 . S
C3172 H3157 0.960 . S
C3172 H3158 0.960 . S
C3172 H3159 0.960 . S
C3172 C3171 1.524 . S
C3173 C3170 1.403 . S
C3173 C3174 1.392 . S
C3173 C3177 1.495 . S
C3174 C3173 1.392 . S
C3174 C3175 1.385 . S
C3174 C3176 1.478 . S
C3175 H3169 0.930 . S
C3175 C3171 1.400 . S
C3175 C3174 1.385 . S
C3176 C3174 1.478 . S
C3176 C3178 1.381 . S
C3176 C3182 1.383 . S
C3177 C3173 1.495 . S
C3177 H3183 0.959 . S
C3177 H3184 0.961 . S
C3177 H3185 0.960 . S
C3178 C3176 1.381 . S
C3178 C3179 1.394 . S
C3178 H3186 0.930 . S
C3179 C3178 1.394 . S
C3179 C3180 1.383 . S
C3179 H3187 0.929 . S
C3180 C3179 1.383 . S
C3180 C3181 1.377 . S
C3181 H3165 0.930 . S
C3181 C3180 1.377 . S
C3181 C3182 1.379 . S
C3182 H3166 0.931 . S
C3182 C3176 1.383 . S
C3182 C3181 1.379 . S
H3183 C3177 0.959 . S
H3184 C3177 0.961 . S
H3185 C3177 0.960 . S
H3186 C3178 0.930 . S
H3187 C3179 0.929 . S
H3188 C3196 0.929 . S
H3189 C3198 0.930 1_565 S
H3190 C3200 0.930 . S
H3191 C3203 0.929 . S
H3192 C3206 0.930 . S
H3193 C3208 0.960 . S
H3194 C3208 0.960 . S
H3195 C3208 0.960 . S
C3196 H3188 0.929 . S
C3196 C3197 1.377 . S
C3196 C3198 1.384 . S
C3197 C3196 1.377 . S
C3197 C3203 1.390 . S
C3198 H3189 0.930 1_545 S
C3198 C3196 1.384 . S
C3198 C3199 1.372 . S
C3199 C3198 1.372 . S
C3199 C3200 1.400 . S
C3199 C3204 1.490 . S
C3200 H3190 0.930 . S
C3200 C3199 1.400 . S
C3200 C3203 1.386 . S
H3201 C3217 0.930 . S
H3202 C3218 0.931 1_545 S
C3203 H3191 0.929 . S
C3203 C3197 1.390 . S
C3203 C3200 1.386 . S
C3204 C3199 1.490 . S
C3204 C3206 1.395 . S
C3204 C3207 1.403 1_545 S
H3205 C3211 0.930 . S
C3206 H3192 0.930 . S
C3206 C3204 1.395 . S
C3206 C3209 1.403 . S
C3207 C3204 1.403 1_565 S
C3207 C3208 1.524 . S
C3207 C3211 1.400 . S
C3208 H3193 0.960 . S
C3208 H3194 0.960 . S
C3208 H3195 0.960 . S
C3208 C3207 1.524 . S
C3209 C3206 1.403 . S
C3209 C3210 1.392 1_545 S
C3209 C3213 1.495 . S
C3210 C3209 1.392 1_565 S
C3210 C3211 1.385 . S
C3210 C3212 1.478 . S
C3211 H3205 0.930 . S
C3211 C3207 1.400 . S
C3211 C3210 1.385 . S
C3212 C3210 1.478 . S
C3212 C3214 1.381 . S
C3212 C3218 1.383 . S
C3213 C3209 1.495 . S
C3213 H3219 0.959 . S
C3213 H3220 0.961 . S
C3213 H3221 0.960 . S
C3214 C3212 1.381 . S
C3214 C3215 1.394 . S
C3214 H3222 0.930 . S
C3215 C3214 1.394 . S
C3215 C3216 1.383 . S
C3215 H3223 0.929 . S
C3216 C3215 1.383 . S
C3216 C3217 1.377 . S
C3217 H3201 0.930 . S
C3217 C3216 1.377 . S
C3217 C3218 1.379 . S
C3218 H3202 0.931 1_565 S
C3218 C3212 1.383 . S
C3218 C3217 1.379 . S
H3219 C3213 0.959 . S
H3220 C3213 0.961 . S
H3221 C3213 0.960 . S
H3222 C3214 0.930 . S
H3223 C3215 0.929 . S
H3224 C3232 0.929 . S
H3225 C3234 0.930 . S
H3226 C3236 0.930 . S
H3227 C3239 0.929 . S
H3228 C3242 0.930 . S
H3229 C3244 0.960 . S
H3230 C3244 0.960 . S
H3231 C3244 0.960 . S
C3232 H3224 0.929 . S
C3232 C3233 1.377 . S
C3232 C3234 1.384 . S
C3233 C3232 1.377 . S
C3233 C3239 1.390 . S
C3234 H3225 0.930 . S
C3234 C3232 1.384 . S
C3234 C3235 1.372 . S
C3235 C3234 1.372 . S
C3235 C3236 1.400 . S
C3235 C3240 1.490 . S
C3236 H3226 0.930 . S
C3236 C3235 1.400 . S
C3236 C3239 1.386 . S
H3237 C3253 0.930 . S
H3238 C3254 0.931 . S
C3239 H3227 0.929 . S
C3239 C3233 1.390 . S
C3239 C3236 1.386 . S
C3240 C3235 1.490 . S
C3240 C3242 1.395 . S
C3240 C3243 1.403 . S
H3241 C3247 0.930 . S
C3242 H3228 0.930 . S
C3242 C3240 1.395 . S
C3242 C3245 1.403 . S
C3243 C3240 1.403 . S
C3243 C3244 1.524 . S
C3243 C3247 1.400 . S
C3244 H3229 0.960 . S
C3244 H3230 0.960 . S
C3244 H3231 0.960 . S
C3244 C3243 1.524 . S
C3245 C3242 1.403 . S
C3245 C3246 1.392 . S
C3245 C3249 1.495 . S
C3246 C3245 1.392 . S
C3246 C3247 1.385 . S
C3246 C3248 1.478 . S
C3247 H3241 0.930 . S
C3247 C3243 1.400 . S
C3247 C3246 1.385 . S
C3248 C3246 1.478 . S
C3248 C3250 1.381 . S
C3248 C3254 1.383 . S
C3249 C3245 1.495 . S
C3249 H3255 0.959 . S
C3249 H3256 0.961 . S
C3249 H3257 0.960 . S
C3250 C3248 1.381 . S
C3250 C3251 1.394 . S
C3250 H3258 0.930 . S
C3251 C3250 1.394 . S
C3251 C3252 1.383 . S
C3251 H3259 0.929 . S
C3252 C3251 1.383 . S
C3252 C3253 1.377 . S
C3253 H3237 0.930 . S
C3253 C3252 1.377 . S
C3253 C3254 1.379 . S
C3254 H3238 0.931 . S
C3254 C3248 1.383 . S
C3254 C3253 1.379 . S
H3255 C3249 0.959 . S
H3256 C3249 0.961 . S
H3257 C3249 0.960 . S
H3258 C3250 0.930 . S
H3259 C3251 0.929 . S
H3260 C3268 0.907 1_565 S
H3261 C3270 0.930 . S
H3262 C3272 0.930 . S
H3263 C3275 0.929 . S
H3264 C3278 0.930 . S
H3265 C3280 0.960 . S
H3266 C3280 0.960 1_465 S
H3267 C3280 0.954 1_455 S
C3268 H3260 0.907 1_545 S
C3268 C3269 1.409 . S
C3268 C3270 1.376 1_545 S
C3269 C3268 1.409 . S
C3269 C3275 1.390 . S
C3270 H3261 0.930 . S
C3270 C3268 1.376 1_565 S
C3270 C3271 1.372 1_565 S
C3271 C3270 1.372 1_545 S
C3271 C3272 1.400 . S
C3271 C3276 1.490 . S
C3272 H3262 0.930 . S
C3272 C3271 1.400 . S
C3272 C3275 1.386 . S
H3273 C3289 0.928 1_545 S
H3274 C3290 0.931 . S
C3275 H3263 0.929 . S
C3275 C3269 1.390 . S
C3275 C3272 1.386 . S
C3276 C3271 1.490 . S
C3276 C3278 1.395 1_556 S
C3276 C3279 1.364 1_455 S
H3277 C3283 0.930 . S
C3278 H3264 0.930 . S
C3278 C3276 1.395 1_554 S
C3278 C3281 1.403 1_545 S
C3279 C3276 1.364 1_655 S
C3279 C3280 1.530 . S
C3279 C3283 1.434 1_545 S
C3280 H3265 0.960 . S
C3280 H3266 0.960 1_645 S
C3280 H3267 0.954 1_655 S
C3280 C3279 1.530 . S
C3281 C3278 1.403 1_565 S
C3281 C3282 1.392 1_455 S
C3281 C3285 1.495 . S
C3282 C3281 1.392 1_655 S
C3282 C3283 1.385 1_554 S
C3282 C3284 1.478 . S
C3283 H3277 0.930 . S
C3283 C3279 1.434 1_565 S
C3283 C3282 1.385 1_556 S
C3284 C3282 1.478 . S
C3284 C3286 1.381 . S
C3284 C3290 1.383 1_565 S
C3285 C3281 1.495 . S
C3285 H3291 0.959 . S
C3285 H3292 0.961 1_465 S
C3285 H3293 0.960 . S
C3286 C3284 1.381 . S
C3286 C3287 1.394 . S
C3286 H3294 0.930 . S
C3287 C3286 1.394 . S
C3287 C3288 1.383 . S
C3287 H3295 0.929 . S
C3288 C3287 1.383 . S
C3288 C3289 1.379 . S
C3289 H3273 0.928 1_565 S
C3289 C3288 1.379 . S
C3289 C3290 1.379 1_565 S
C3290 H3274 0.931 . S
C3290 C3284 1.383 1_545 S
C3290 C3289 1.379 1_545 S
H3291 C3285 0.959 . S
H3292 C3285 0.961 1_645 S
H3293 C3285 0.960 . S
H3294 C3286 0.930 . S
H3295 C3287 0.929 . S
H3296 C3304 0.929 . S
H3297 C3306 0.930 . S
H3298 C3308 0.930 . S
H3299 C3311 0.929 . S
H3300 C3314 0.930 . S
H3301 C3316 0.960 . S
H3302 C3316 0.960 . S
H3303 C3316 0.960 . S
C3304 H3296 0.929 . S
C3304 C3305 1.377 . S
C3304 C3306 1.384 . S
C3305 C3304 1.377 . S
C3305 C3311 1.390 . S
C3306 H3297 0.930 . S
C3306 C3304 1.384 . S
C3306 C3307 1.372 . S
C3307 C3306 1.372 . S
C3307 C3308 1.400 . S
C3307 C3312 1.490 . S
C3308 H3298 0.930 . S
C3308 C3307 1.400 . S
C3308 C3311 1.386 . S
H3309 C3325 0.930 . S
H3310 C3326 0.931 . S
C3311 H3299 0.929 . S
C3311 C3305 1.390 . S
C3311 C3308 1.386 . S
C3312 C3307 1.490 . S
C3312 C3314 1.395 . S
C3312 C3315 1.403 . S
H3313 C3319 0.930 . S
C3314 H3300 0.930 . S
C3314 C3312 1.395 . S
C3314 C3317 1.403 . S
C3315 C3312 1.403 . S
C3315 C3316 1.524 . S
C3315 C3319 1.400 . S
C3316 H3301 0.960 . S
C3316 H3302 0.960 . S
C3316 H3303 0.960 . S
C3316 C3315 1.524 . S
C3317 C3314 1.403 . S
C3317 C3318 1.392 . S
C3317 C3321 1.495 . S
C3318 C3317 1.392 . S
C3318 C3319 1.385 . S
C3318 C3320 1.478 . S
C3319 H3313 0.930 . S
C3319 C3315 1.400 . S
C3319 C3318 1.385 . S
C3320 C3318 1.478 . S
C3320 C3322 1.381 . S
C3320 C3326 1.383 . S
C3321 C3317 1.495 . S
C3321 H3327 0.959 . S
C3321 H3328 0.961 . S
C3321 H3329 0.960 . S
C3322 C3320 1.381 . S
C3322 C3323 1.394 . S
C3322 H3330 0.930 . S
C3323 C3322 1.394 . S
C3323 C3324 1.383 . S
C3323 H3331 0.929 . S
C3324 C3323 1.383 . S
C3324 C3325 1.377 . S
C3325 H3309 0.930 . S
C3325 C3324 1.377 . S
C3325 C3326 1.379 . S
C3326 H3310 0.931 . S
C3326 C3320 1.383 . S
C3326 C3325 1.379 . S
H3327 C3321 0.959 . S
H3328 C3321 0.961 . S
H3329 C3321 0.960 . S
H3330 C3322 0.930 . S
H3331 C3323 0.929 . S
H3332 C3340 0.929 . S
H3333 C3342 0.930 . S
H3334 C3344 0.930 . S
H3335 C3347 0.929 . S
H3336 C3350 0.930 . S
H3337 C3352 0.960 . S
H3338 C3352 0.960 . S
H3339 C3352 0.960 . S
C3340 H3332 0.929 . S
C3340 C3341 1.377 . S
C3340 C3342 1.384 . S
C3341 C3340 1.377 . S
C3341 C3347 1.390 . S
C3342 H3333 0.930 . S
C3342 C3340 1.384 . S
C3342 C3343 1.372 . S
C3343 C3342 1.372 . S
C3343 C3344 1.400 . S
C3343 C3348 1.490 . S
C3344 H3334 0.930 . S
C3344 C3343 1.400 . S
C3344 C3347 1.386 . S
H3345 C3361 0.930 . S
H3346 C3362 0.931 . S
C3347 H3335 0.929 . S
C3347 C3341 1.390 . S
C3347 C3344 1.386 . S
C3348 C3343 1.490 . S
C3348 C3350 1.395 . S
C3348 C3351 1.403 . S
H3349 C3355 0.930 . S
C3350 H3336 0.930 . S
C3350 C3348 1.395 . S
C3350 C3353 1.403 . S
C3351 C3348 1.403 . S
C3351 C3352 1.524 . S
C3351 C3355 1.400 . S
C3352 H3337 0.960 . S
C3352 H3338 0.960 . S
C3352 H3339 0.960 . S
C3352 C3351 1.524 . S
C3353 C3350 1.403 . S
C3353 C3354 1.392 . S
C3353 C3357 1.495 . S
C3354 C3353 1.392 . S
C3354 C3355 1.385 . S
C3354 C3356 1.478 . S
C3355 H3349 0.930 . S
C3355 C3351 1.400 . S
C3355 C3354 1.385 . S
C3356 C3354 1.478 . S
C3356 C3358 1.381 . S
C3356 C3362 1.383 . S
C3357 C3353 1.495 . S
C3357 H3363 0.959 . S
C3357 H3364 0.961 . S
C3357 H3365 0.960 . S
C3358 C3356 1.381 . S
C3358 C3359 1.394 . S
C3358 H3366 0.930 . S
C3359 C3358 1.394 . S
C3359 C3360 1.383 . S
C3359 H3367 0.929 . S
C3360 C3359 1.383 . S
C3360 C3361 1.377 . S
C3361 H3345 0.930 . S
C3361 C3360 1.377 . S
C3361 C3362 1.379 . S
C3362 H3346 0.931 . S
C3362 C3356 1.383 . S
C3362 C3361 1.379 . S
H3363 C3357 0.959 . S
H3364 C3357 0.961 . S
H3365 C3357 0.960 . S
H3366 C3358 0.930 . S
H3367 C3359 0.929 . S
H3368 C3376 0.929 . S
H3369 C3378 0.930 . S
H3370 C3380 0.930 . S
H3371 C3383 0.929 . S
H3372 C3386 0.930 . S
H3373 C3388 0.960 . S
H3374 C3388 0.960 . S
H3375 C3388 0.960 . S
C3376 H3368 0.929 . S
C3376 C3377 1.377 . S
C3376 C3378 1.384 . S
C3377 C3376 1.377 . S
C3377 C3383 1.390 . S
C3378 H3369 0.930 . S
C3378 C3376 1.384 . S
C3378 C3379 1.372 . S
C3379 C3378 1.372 . S
C3379 C3380 1.400 . S
C3379 C3384 1.490 . S
C3380 H3370 0.930 . S
C3380 C3379 1.400 . S
C3380 C3383 1.386 . S
H3381 C3397 0.930 . S
H3382 C3398 0.931 . S
C3383 H3371 0.929 . S
C3383 C3377 1.390 . S
C3383 C3380 1.386 . S
C3384 C3379 1.490 . S
C3384 C3386 1.395 . S
C3384 C3387 1.403 . S
H3385 C3391 0.930 . S
C3386 H3372 0.930 . S
C3386 C3384 1.395 . S
C3386 C3389 1.403 . S
C3387 C3384 1.403 . S
C3387 C3388 1.524 . S
C3387 C3391 1.400 . S
C3388 H3373 0.960 . S
C3388 H3374 0.960 . S
C3388 H3375 0.960 . S
C3388 C3387 1.524 . S
C3389 C3386 1.403 . S
C3389 C3390 1.392 . S
C3389 C3393 1.495 . S
C3390 C3389 1.392 . S
C3390 C3391 1.385 . S
C3390 C3392 1.478 . S
C3391 H3385 0.930 . S
C3391 C3387 1.400 . S
C3391 C3390 1.385 . S
C3392 C3390 1.478 . S
C3392 C3394 1.381 . S
C3392 C3398 1.383 . S
C3393 C3389 1.495 . S
C3393 H3399 0.959 . S
C3393 H3400 0.961 . S
C3393 H3401 0.960 . S
C3394 C3392 1.381 . S
C3394 C3395 1.394 . S
C3394 H3402 0.930 . S
C3395 C3394 1.394 . S
C3395 C3396 1.383 . S
C3395 H3403 0.929 . S
C3396 C3395 1.383 . S
C3396 C3397 1.377 . S
C3397 H3381 0.930 . S
C3397 C3396 1.377 . S
C3397 C3398 1.379 . S
C3398 H3382 0.931 . S
C3398 C3392 1.383 . S
C3398 C3397 1.379 . S
H3399 C3393 0.959 . S
H3400 C3393 0.961 . S
H3401 C3393 0.960 . S
H3402 C3394 0.930 . S
H3403 C3395 0.929 . S
H3404 C3412 0.929 . S
H3405 C3414 0.930 . S
H3406 C3416 0.930 . S
H3407 C3419 0.929 . S
H3408 C3422 0.930 . S
H3409 C3424 0.960 . S
H3410 C3424 0.960 . S
H3411 C3424 0.960 . S
C3412 H3404 0.929 . S
C3412 C3413 1.377 . S
C3412 C3414 1.384 . S
C3413 C3412 1.377 . S
C3413 C3419 1.390 . S
C3414 H3405 0.930 . S
C3414 C3412 1.384 . S
C3414 C3415 1.372 . S
C3415 C3414 1.372 . S
C3415 C3416 1.400 . S
C3415 C3420 1.490 . S
C3416 H3406 0.930 . S
C3416 C3415 1.400 . S
C3416 C3419 1.386 . S
H3417 C3433 0.930 . S
H3418 C3434 0.931 . S
C3419 H3407 0.929 . S
C3419 C3413 1.390 . S
C3419 C3416 1.386 . S
C3420 C3415 1.490 . S
C3420 C3422 1.395 . S
C3420 C3423 1.403 . S
H3421 C3427 0.930 . S
C3422 H3408 0.930 . S
C3422 C3420 1.395 . S
C3422 C3425 1.403 . S
C3423 C3420 1.403 . S
C3423 C3424 1.524 . S
C3423 C3427 1.400 . S
C3424 H3409 0.960 . S
C3424 H3410 0.960 . S
C3424 H3411 0.960 . S
C3424 C3423 1.524 . S
C3425 C3422 1.403 . S
C3425 C3426 1.392 . S
C3425 C3429 1.495 . S
C3426 C3425 1.392 . S
C3426 C3427 1.385 . S
C3426 C3428 1.478 . S
C3427 H3421 0.930 . S
C3427 C3423 1.400 . S
C3427 C3426 1.385 . S
C3428 C3426 1.478 . S
C3428 C3430 1.381 . S
C3428 C3434 1.383 . S
C3429 C3425 1.495 . S
C3429 H3435 0.959 . S
C3429 H3436 0.961 . S
C3429 H3437 0.960 . S
C3430 C3428 1.381 . S
C3430 C3431 1.394 . S
C3430 H3438 0.930 . S
C3431 C3430 1.394 . S
C3431 C3432 1.383 . S
C3431 H3439 0.929 . S
C3432 C3431 1.383 . S
C3432 C3433 1.377 . S
C3433 H3417 0.930 . S
C3433 C3432 1.377 . S
C3433 C3434 1.379 . S
C3434 H3418 0.931 . S
C3434 C3428 1.383 . S
C3434 C3433 1.379 . S
H3435 C3429 0.959 . S
H3436 C3429 0.961 . S
H3437 C3429 0.960 . S
H3438 C3430 0.930 . S
H3439 C3431 0.929 . S
H3440 C3448 0.929 . S
H3441 C3450 0.930 . S
H3442 C3452 0.924 1_556 S
H3443 C3455 0.929 . S
H3444 C3458 0.930 . S
H3445 C3460 0.960 1_556 S
H3446 C3460 0.960 . S
H3447 C3460 0.943 1_556 S
C3448 H3440 0.929 . S
C3448 C3449 1.377 . S
C3448 C3450 1.384 . S
C3449 C3448 1.377 . S
C3449 C3455 1.390 . S
C3450 H3441 0.930 . S
C3450 C3448 1.384 . S
C3450 C3451 1.372 . S
C3451 C3450 1.372 . S
C3451 C3452 1.400 . S
C3451 C3456 1.490 . S
C3452 H3442 0.924 1_554 S
C3452 C3451 1.400 . S
C3452 C3455 1.386 . S
H3453 C3469 0.930 . S
H3454 C3470 0.931 . S
C3455 H3443 0.929 . S
C3455 C3449 1.390 . S
C3455 C3452 1.386 . S
C3456 C3451 1.490 . S
C3456 C3458 1.395 . S
C3456 C3459 1.403 . S
H3457 C3463 0.930 . S
C3458 H3444 0.930 . S
C3458 C3456 1.395 . S
C3458 C3461 1.397 1_554 S
C3459 C3456 1.403 . S
C3459 C3460 1.524 . S
C3459 C3463 1.400 1_554 S
C3460 H3445 0.960 1_554 S
C3460 H3446 0.960 . S
C3460 H3447 0.943 1_554 S
C3460 C3459 1.524 . S
C3461 C3458 1.397 1_556 S
C3461 C3462 1.398 . S
C3461 C3465 1.493 . S
C3462 C3461 1.398 . S
C3462 C3463 1.385 . S
C3462 C3464 1.478 . S
C3463 H3457 0.930 . S
C3463 C3459 1.400 1_556 S
C3463 C3462 1.385 . S
C3464 C3462 1.478 . S
C3464 C3466 1.381 . S
C3464 C3470 1.383 . S
C3465 C3461 1.493 . S
C3465 H3471 0.912 1_556 S
C3465 H3472 1.060 . S
C3465 H3473 0.924 1_556 S
C3466 C3464 1.381 . S
C3466 C3467 1.394 . S
C3466 H3474 0.828 1_556 S
C3467 C3466 1.394 . S
C3467 C3468 1.383 . S
C3467 H3475 0.929 . S
C3468 C3467 1.383 . S
C3468 C3469 1.377 . S
C3469 H3453 0.930 . S
C3469 C3468 1.377 . S
C3469 C3470 1.379 . S
C3470 H3454 0.931 . S
C3470 C3464 1.383 . S
C3470 C3469 1.379 . S
H3471 C3465 0.912 1_554 S
H3472 C3465 1.060 . S
H3473 C3465 0.924 1_554 S
H3474 C3466 0.828 1_554 S
H3475 C3467 0.929 . S
H3476 C3484 0.929 . S
H3477 C3486 0.930 . S
H3478 C3488 0.930 . S
H3479 C3491 0.929 . S
H3480 C3494 0.930 . S
H3481 C3496 0.960 1_455 S
H3482 C3496 0.960 . S
H3483 C3496 0.960 . S
C3484 H3476 0.929 . S
C3484 C3485 1.377 . S
C3484 C3486 1.384 . S
C3485 C3484 1.377 . S
C3485 C3491 1.390 . S
C3486 H3477 0.930 . S
C3486 C3484 1.384 . S
C3486 C3487 1.372 . S
C3487 C3486 1.372 . S
C3487 C3488 1.400 . S
C3487 C3492 1.490 . S
C3488 H3478 0.930 . S
C3488 C3487 1.400 . S
C3488 C3491 1.386 . S
H3489 C3505 0.930 . S
H3490 C3506 0.931 . S
C3491 H3479 0.929 . S
C3491 C3485 1.390 . S
C3491 C3488 1.386 . S
C3492 C3487 1.490 . S
C3492 C3494 1.395 . S
C3492 C3495 1.403 . S
H3493 C3499 0.930 . S
C3494 H3480 0.930 . S
C3494 C3492 1.395 . S
C3494 C3497 1.403 1_655 S
C3495 C3492 1.403 . S
C3495 C3496 1.524 . S
C3495 C3499 1.400 1_655 S
C3496 H3481 0.960 1_655 S
C3496 H3482 0.960 . S
C3496 H3483 0.960 . S
C3496 C3495 1.524 . S
C3497 C3494 1.403 1_455 S
C3497 C3498 1.392 . S
C3497 C3501 1.495 . S
C3498 C3497 1.392 . S
C3498 C3499 1.385 . S
C3498 C3500 1.478 . S
C3499 H3493 0.930 . S
C3499 C3495 1.400 1_455 S
C3499 C3498 1.385 . S
C3500 C3498 1.478 . S
C3500 C3502 1.381 . S
C3500 C3506 1.383 . S
C3501 C3497 1.495 . S
C3501 H3507 0.959 1_455 S
C3501 H3508 0.961 . S
C3501 H3509 0.960 . S
C3502 C3500 1.381 . S
C3502 C3503 1.394 . S
C3502 H3510 0.930 . S
C3503 C3502 1.394 . S
C3503 C3504 1.383 . S
C3503 H3511 0.929 . S
C3504 C3503 1.383 . S
C3504 C3505 1.377 . S
C3505 H3489 0.930 . S
C3505 C3504 1.377 . S
C3505 C3506 1.379 . S
C3506 H3490 0.931 . S
C3506 C3500 1.383 . S
C3506 C3505 1.379 . S
H3507 C3501 0.959 1_655 S
H3508 C3501 0.961 . S
H3509 C3501 0.960 . S
H3510 C3502 0.930 . S
H3511 C3503 0.929 . S
H3512 C3520 0.929 . S
H3513 C3522 0.930 . S
H3514 C3524 0.869 1_556 S
H3515 C3527 0.929 . S
H3516 C3530 0.932 . S
H3517 C3532 0.960 . S
H3518 C3532 0.976 . S
H3519 C3532 0.960 . S
C3520 H3512 0.929 . S
C3520 C3521 1.377 . S
C3520 C3522 1.384 . S
C3521 C3520 1.377 . S
C3521 C3527 1.390 . S
C3522 H3513 0.930 . S
C3522 C3520 1.384 . S
C3522 C3523 1.372 . S
C3523 C3522 1.372 . S
C3523 C3524 1.400 . S
C3523 C3528 1.490 . S
C3524 H3514 0.869 1_554 S
C3524 C3523 1.400 . S
C3524 C3527 1.386 . S
H3525 C3541 0.930 . S
H3526 C3542 0.931 . S
C3527 H3515 0.929 . S
C3527 C3521 1.390 . S
C3527 C3524 1.386 . S
C3528 C3523 1.490 . S
C3528 C3530 1.395 1_455 S
C3528 C3531 1.403 1_554 S
H3529 C3535 0.930 . S
C3530 H3516 0.932 . S
C3530 C3528 1.395 1_655 S
C3530 C3533 1.403 . S
C3531 C3528 1.403 1_556 S
C3531 C3532 1.524 . S
C3531 C3535 1.400 1_455 S
C3532 H3517 0.960 . S
C3532 H3518 0.976 . S
C3532 H3519 0.960 . S
C3532 C3531 1.524 . S
C3533 C3530 1.403 . S
C3533 C3534 1.392 1_554 S
C3533 C3537 1.495 . S
C3534 C3533 1.392 1_556 S
C3534 C3535 1.385 . S
C3534 C3536 1.478 . S
C3535 H3529 0.930 . S
C3535 C3531 1.400 1_655 S
C3535 C3534 1.385 . S
C3536 C3534 1.478 . S
C3536 C3538 1.381 . S
C3536 C3542 1.383 . S
C3537 C3533 1.495 . S
C3537 H3543 0.959 . S
C3537 H3544 0.961 . S
C3537 H3545 0.960 . S
C3538 C3536 1.381 . S
C3538 C3539 1.394 . S
C3538 H3546 0.930 1_556 S
C3539 C3538 1.394 . S
C3539 C3540 1.383 . S
C3539 H3547 0.929 . S
C3540 C3539 1.383 . S
C3540 C3541 1.377 . S
C3541 H3525 0.930 . S
C3541 C3540 1.377 . S
C3541 C3542 1.379 . S
C3542 H3526 0.931 . S
C3542 C3536 1.383 . S
C3542 C3541 1.379 . S
H3543 C3537 0.959 . S
H3544 C3537 0.961 . S
H3545 C3537 0.960 . S
H3546 C3538 0.930 1_554 S
H3547 C3539 0.929 . S
H3548 C3556 0.929 . S
H3549 C3558 0.930 . S
H3550 C3560 0.930 . S
H3551 C3563 0.929 . S
H3552 C3566 0.930 . S
H3553 C3568 0.960 . S
H3554 C3568 0.960 . S
H3555 C3568 0.960 . S
C3556 H3548 0.929 . S
C3556 C3557 1.377 . S
C3556 C3558 1.384 . S
C3557 C3556 1.377 . S
C3557 C3563 1.390 . S
C3558 H3549 0.930 . S
C3558 C3556 1.384 . S
C3558 C3559 1.372 . S
C3559 C3558 1.372 . S
C3559 C3560 1.400 . S
C3559 C3564 1.490 . S
C3560 H3550 0.930 . S
C3560 C3559 1.400 . S
C3560 C3563 1.386 . S
H3561 C3577 0.930 . S
H3562 C3578 0.931 . S
C3563 H3551 0.929 . S
C3563 C3557 1.390 . S
C3563 C3560 1.386 . S
C3564 C3559 1.490 . S
C3564 C3566 1.395 . S
C3564 C3567 1.403 . S
H3565 C3571 0.930 . S
C3566 H3552 0.930 . S
C3566 C3564 1.395 . S
C3566 C3569 1.403 . S
C3567 C3564 1.403 . S
C3567 C3568 1.524 . S
C3567 C3571 1.400 . S
C3568 H3553 0.960 . S
C3568 H3554 0.960 . S
C3568 H3555 0.960 . S
C3568 C3567 1.524 . S
C3569 C3566 1.403 . S
C3569 C3570 1.392 . S
C3569 C3573 1.495 . S
C3570 C3569 1.392 . S
C3570 C3571 1.385 . S
C3570 C3572 1.478 . S
C3571 H3565 0.930 . S
C3571 C3567 1.400 . S
C3571 C3570 1.385 . S
C3572 C3570 1.478 . S
C3572 C3574 1.381 . S
C3572 C3578 1.383 . S
C3573 C3569 1.495 . S
C3573 H3579 0.959 . S
C3573 H3580 0.961 . S
C3573 H3581 0.960 . S
C3574 C3572 1.381 . S
C3574 C3575 1.394 . S
C3574 H3582 0.930 . S
C3575 C3574 1.394 . S
C3575 C3576 1.383 . S
C3575 H3583 0.929 . S
C3576 C3575 1.383 . S
C3576 C3577 1.377 . S
C3577 H3561 0.930 . S
C3577 C3576 1.377 . S
C3577 C3578 1.379 . S
C3578 H3562 0.931 . S
C3578 C3572 1.383 . S
C3578 C3577 1.379 . S
H3579 C3573 0.959 . S
H3580 C3573 0.961 . S
H3581 C3573 0.960 . S
H3582 C3574 0.930 . S
H3583 C3575 0.929 . S
H3584 C3592 0.929 . S
H3585 C3594 0.930 . S
H3586 C3596 0.930 . S
H3587 C3599 0.929 . S
H3588 C3602 0.930 . S
H3589 C3604 0.960 . S
H3590 C3604 0.960 . S
H3591 C3604 0.960 . S
C3592 H3584 0.929 . S
C3592 C3593 1.377 . S
C3592 C3594 1.384 . S
C3593 C3592 1.377 . S
C3593 C3599 1.390 . S
C3594 H3585 0.930 . S
C3594 C3592 1.384 . S
C3594 C3595 1.372 . S
C3595 C3594 1.372 . S
C3595 C3596 1.400 . S
C3595 C3600 1.490 . S
C3596 H3586 0.930 . S
C3596 C3595 1.400 . S
C3596 C3599 1.386 . S
H3597 C3613 0.930 . S
H3598 C3614 0.931 . S
C3599 H3587 0.929 . S
C3599 C3593 1.390 . S
C3599 C3596 1.386 . S
C3600 C3595 1.490 . S
C3600 C3602 1.395 1_545 S
C3600 C3603 1.403 . S
H3601 C3607 0.927 1_545 S
C3602 H3588 0.930 . S
C3602 C3600 1.395 1_565 S
C3602 C3605 1.403 . S
C3603 C3600 1.403 . S
C3603 C3604 1.524 . S
C3603 C3607 1.383 1_545 S
C3604 H3589 0.960 . S
C3604 H3590 0.960 . S
C3604 H3591 0.960 . S
C3604 C3603 1.524 . S
C3605 C3602 1.403 . S
C3605 C3606 1.392 . S
C3605 C3609 1.495 . S
C3606 C3605 1.392 . S
C3606 C3607 1.406 . S
C3606 C3608 1.478 . S
C3607 H3601 0.927 1_565 S
C3607 C3603 1.383 1_565 S
C3607 C3606 1.406 . S
C3608 C3606 1.478 . S
C3608 C3610 1.381 . S
C3608 C3614 1.383 . S
C3609 C3605 1.495 . S
C3609 H3615 0.959 . S
C3609 H3616 0.961 . S
C3609 H3617 0.960 . S
C3610 C3608 1.381 . S
C3610 C3611 1.394 . S
C3610 H3618 0.930 . S
C3611 C3610 1.394 . S
C3611 C3612 1.383 . S
C3611 H3619 0.929 . S
C3612 C3611 1.383 . S
C3612 C3613 1.377 . S
C3613 H3597 0.930 . S
C3613 C3612 1.377 . S
C3613 C3614 1.379 . S
C3614 H3598 0.931 . S
C3614 C3608 1.383 . S
C3614 C3613 1.379 . S
H3615 C3609 0.959 . S
H3616 C3609 0.961 . S
H3617 C3609 0.960 . S
H3618 C3610 0.930 . S
H3619 C3611 0.929 . S
H3620 C3628 0.929 . S
H3621 C3630 0.930 1_565 S
H3622 C3632 0.930 . S
H3623 C3635 0.929 . S
H3624 C3638 0.930 . S
H3625 C3640 0.960 . S
H3626 C3640 0.960 . S
H3627 C3640 0.960 . S
C3628 H3620 0.929 . S
C3628 C3629 1.377 . S
C3628 C3630 1.384 . S
C3629 C3628 1.377 . S
C3629 C3635 1.390 . S
C3630 H3621 0.930 1_545 S
C3630 C3628 1.384 . S
C3630 C3631 1.372 . S
C3631 C3630 1.372 . S
C3631 C3632 1.400 . S
C3631 C3636 1.490 . S
C3632 H3622 0.930 . S
C3632 C3631 1.400 . S
C3632 C3635 1.386 . S
H3633 C3649 0.930 . S
H3634 C3650 0.931 . S
C3635 H3623 0.929 . S
C3635 C3629 1.390 . S
C3635 C3632 1.386 . S
C3636 C3631 1.490 . S
C3636 C3638 1.395 1_545 S
C3636 C3639 1.403 . S
H3637 C3643 0.930 . S
C3638 H3624 0.930 . S
C3638 C3636 1.395 1_565 S
C3638 C3641 1.403 . S
C3639 C3636 1.403 . S
C3639 C3640 1.524 . S
C3639 C3643 1.400 . S
C3640 H3625 0.960 . S
C3640 H3626 0.960 . S
C3640 H3627 0.960 . S
C3640 C3639 1.524 . S
C3641 C3638 1.403 . S
C3641 C3642 1.392 . S
C3641 C3645 1.495 . S
C3642 C3641 1.392 . S
C3642 C3643 1.385 1_565 S
C3642 C3644 1.478 . S
C3643 H3637 0.930 . S
C3643 C3639 1.400 . S
C3643 C3642 1.385 1_545 S
C3644 C3642 1.478 . S
C3644 C3646 1.381 . S
C3644 C3650 1.383 . S
C3645 C3641 1.495 . S
C3645 H3651 0.959 . S
C3645 H3652 0.961 . S
C3645 H3653 0.960 . S
C3646 C3644 1.381 . S
C3646 C3647 1.394 . S
C3646 H3654 0.930 . S
C3647 C3646 1.394 . S
C3647 C3648 1.383 . S
C3647 H3655 0.929 . S
C3648 C3647 1.383 . S
C3648 C3649 1.377 . S
C3649 H3633 0.930 . S
C3649 C3648 1.377 . S
C3649 C3650 1.379 . S
C3650 H3634 0.931 . S
C3650 C3644 1.383 . S
C3650 C3649 1.379 . S
H3651 C3645 0.959 . S
H3652 C3645 0.961 . S
H3653 C3645 0.960 . S
H3654 C3646 0.930 . S
H3655 C3647 0.929 . S
H3656 C3664 0.929 . S
H3657 C3666 0.930 . S
H3658 C3668 0.930 1_565 S
H3659 C3671 0.929 . S
H3660 C3674 0.930 . S
H3661 C3676 0.957 1_565 S
H3662 C3676 0.964 . S
H3663 C3676 0.958 1_565 S
C3664 H3656 0.929 . S
C3664 C3665 1.377 . S
C3664 C3666 1.384 . S
C3665 C3664 1.377 . S
C3665 C3671 1.390 . S
C3666 H3657 0.930 . S
C3666 C3664 1.384 . S
C3666 C3667 1.372 . S
C3667 C3666 1.372 . S
C3667 C3668 1.400 . S
C3667 C3672 1.490 . S
C3668 H3658 0.930 1_545 S
C3668 C3667 1.400 . S
C3668 C3671 1.386 . S
H3669 C3685 0.930 . S
H3670 C3686 0.931 . S
C3671 H3659 0.929 . S
C3671 C3665 1.390 . S
C3671 C3668 1.386 . S
C3672 C3667 1.490 . S
C3672 C3674 1.395 . S
C3672 C3675 1.403 . S
H3673 C3679 0.930 . S
C3674 H3660 0.930 . S
C3674 C3672 1.395 . S
C3674 C3677 1.403 . S
C3675 C3672 1.403 . S
C3675 C3676 1.524 . S
C3675 C3679 1.400 1_545 S
C3676 H3661 0.957 1_545 S
C3676 H3662 0.964 . S
C3676 H3663 0.958 1_545 S
C3676 C3675 1.524 . S
C3677 C3674 1.403 . S
C3677 C3678 1.392 1_545 S
C3677 C3681 1.495 . S
C3678 C3677 1.392 1_565 S
C3678 C3679 1.385 . S
C3678 C3680 1.478 . S
C3679 H3673 0.930 . S
C3679 C3675 1.400 1_565 S
C3679 C3678 1.385 . S
C3680 C3678 1.478 . S
C3680 C3682 1.381 . S
C3680 C3686 1.383 . S
C3681 C3677 1.495 . S
C3681 H3687 0.959 . S
C3681 H3688 0.961 1_545 S
C3681 H3689 0.960 . S
C3682 C3680 1.381 . S
C3682 C3683 1.394 . S
C3682 H3690 0.930 1_565 S
C3683 C3682 1.394 . S
C3683 C3684 1.383 . S
C3683 H3691 0.929 . S
C3684 C3683 1.383 . S
C3684 C3685 1.377 . S
C3685 H3669 0.930 . S
C3685 C3684 1.377 . S
C3685 C3686 1.379 . S
C3686 H3670 0.931 . S
C3686 C3680 1.383 . S
C3686 C3685 1.379 . S
H3687 C3681 0.959 . S
H3688 C3681 0.961 1_565 S
H3689 C3681 0.960 . S
H3690 C3682 0.930 1_545 S
H3691 C3683 0.929 . S
H3692 C3700 0.929 . S
H3693 C3702 0.930 . S
H3694 C3704 0.930 1_545 S
H3695 C3707 0.929 . S
H3696 C3710 0.930 . S
H3697 C3712 0.946 1_545 S
H3698 C3712 0.960 . S
H3699 C3712 0.951 1_545 S
C3700 H3692 0.929 . S
C3700 C3701 1.377 . S
C3700 C3702 1.384 . S
C3701 C3700 1.377 . S
C3701 C3707 1.390 . S
C3702 H3693 0.930 . S
C3702 C3700 1.384 . S
C3702 C3703 1.372 . S
C3703 C3702 1.372 . S
C3703 C3704 1.400 . S
C3703 C3708 1.490 . S
C3704 H3694 0.930 1_565 S
C3704 C3703 1.400 . S
C3704 C3707 1.386 . S
H3705 C3721 0.930 . S
H3706 C3722 0.931 . S
C3707 H3695 0.929 . S
C3707 C3701 1.390 . S
C3707 C3704 1.386 . S
C3708 C3703 1.490 . S
C3708 C3710 1.395 . S
C3708 C3711 1.403 . S
H3709 C3715 0.930 . S
C3710 H3696 0.930 . S
C3710 C3708 1.395 . S
C3710 C3713 1.403 1_565 S
C3711 C3708 1.403 . S
C3711 C3712 1.524 . S
C3711 C3715 1.400 1_565 S
C3712 H3697 0.946 1_565 S
C3712 H3698 0.960 . S
C3712 H3699 0.951 1_565 S
C3712 C3711 1.524 . S
C3713 C3710 1.403 1_545 S
C3713 C3714 1.392 . S
C3713 C3717 1.495 . S
C3714 C3713 1.392 . S
C3714 C3715 1.385 . S
C3714 C3716 1.478 . S
C3715 H3709 0.930 . S
C3715 C3711 1.400 1_545 S
C3715 C3714 1.385 . S
C3716 C3714 1.478 . S
C3716 C3718 1.381 . S
C3716 C3722 1.383 . S
C3717 C3713 1.495 . S
C3717 H3723 0.959 . S
C3717 H3724 0.961 . S
C3717 H3725 0.960 . S
C3718 C3716 1.381 . S
C3718 C3719 1.394 . S
C3718 H3726 0.929 1_545 S
C3719 C3718 1.394 . S
C3719 C3720 1.383 . S
C3719 H3727 0.929 . S
C3720 C3719 1.383 . S
C3720 C3721 1.377 . S
C3721 H3705 0.930 . S
C3721 C3720 1.377 . S
C3721 C3722 1.379 . S
C3722 H3706 0.931 . S
C3722 C3716 1.383 . S
C3722 C3721 1.379 . S
H3723 C3717 0.959 . S
H3724 C3717 0.961 . S
H3725 C3717 0.960 . S
H3726 C3718 0.929 1_565 S
H3727 C3719 0.929 . S
H3728 C3736 0.929 . S
H3729 C3738 0.930 1_545 S
H3730 C3740 0.930 . S
H3731 C3743 0.929 . S
H3732 C3746 0.930 . S
H3733 C3748 0.959 1_545 S
H3734 C3748 0.958 1_545 S
H3735 C3748 0.964 . S
C3736 H3728 0.929 . S
C3736 C3737 1.377 . S
C3736 C3738 1.384 . S
C3737 C3736 1.377 . S
C3737 C3743 1.390 . S
C3738 H3729 0.930 1_565 S
C3738 C3736 1.384 . S
C3738 C3739 1.372 . S
C3739 C3738 1.372 . S
C3739 C3740 1.400 . S
C3739 C3744 1.490 . S
C3740 H3730 0.930 . S
C3740 C3739 1.400 . S
C3740 C3743 1.386 . S
H3741 C3757 0.930 . S
H3742 C3758 0.931 . S
C3743 H3731 0.929 . S
C3743 C3737 1.390 . S
C3743 C3740 1.386 . S
C3744 C3739 1.490 . S
C3744 C3746 1.395 . S
C3744 C3747 1.403 1_565 S
H3745 C3751 0.930 . S
C3746 H3732 0.930 . S
C3746 C3744 1.395 . S
C3746 C3749 1.403 1_565 S
C3747 C3744 1.403 1_545 S
C3747 C3748 1.524 1_545 S
C3747 C3751 1.400 . S
C3748 H3733 0.959 1_565 S
C3748 H3734 0.958 1_565 S
C3748 H3735 0.964 . S
C3748 C3747 1.524 1_565 S
C3749 C3746 1.403 1_545 S
C3749 C3750 1.392 . S
C3749 C3753 1.495 . S
C3750 C3749 1.392 . S
C3750 C3751 1.385 . S
C3750 C3752 1.478 . S
C3751 H3745 0.930 . S
C3751 C3747 1.400 . S
C3751 C3750 1.385 . S
C3752 C3750 1.478 . S
C3752 C3754 1.381 . S
C3752 C3758 1.383 . S
C3753 C3749 1.495 . S
C3753 H3759 0.959 . S
C3753 H3760 0.963 . S
C3753 H3761 0.960 . S
C3754 C3752 1.381 . S
C3754 C3755 1.394 . S
C3754 H3762 0.930 . S
C3755 C3754 1.394 . S
C3755 C3756 1.383 . S
C3755 H3763 0.929 . S
C3756 C3755 1.383 . S
C3756 C3757 1.377 . S
C3757 H3741 0.930 . S
C3757 C3756 1.377 . S
C3757 C3758 1.379 . S
C3758 H3742 0.931 . S
C3758 C3752 1.383 . S
C3758 C3757 1.379 . S
H3759 C3753 0.959 . S
H3760 C3753 0.963 . S
H3761 C3753 0.960 . S
H3762 C3754 0.930 . S
H3763 C3755 0.929 . S
H3764 C3772 0.929 . S
H3765 C3774 0.930 . S
H3766 C3776 0.930 . S
H3767 C3779 0.929 . S
H3768 C3782 0.931 . S
H3769 C3784 0.960 . S
H3770 C3784 0.960 . S
H3771 C3784 0.960 . S
C3772 H3764 0.929 . S
C3772 C3773 1.377 . S
C3772 C3774 1.384 . S
C3773 C3772 1.377 . S
C3773 C3779 1.390 . S
C3774 H3765 0.930 . S
C3774 C3772 1.384 . S
C3774 C3775 1.372 . S
C3775 C3774 1.372 . S
C3775 C3776 1.400 . S
C3775 C3780 1.490 . S
C3776 H3766 0.930 . S
C3776 C3775 1.400 . S
C3776 C3779 1.386 . S
H3777 C3793 0.930 . S
H3778 C3794 0.931 . S
C3779 H3767 0.929 . S
C3779 C3773 1.390 . S
C3779 C3776 1.386 . S
C3780 C3775 1.490 . S
C3780 C3782 1.388 1_545 S
C3780 C3783 1.403 . S
H3781 C3787 0.930 . S
C3782 H3768 0.931 . S
C3782 C3780 1.388 1_565 S
C3782 C3785 1.409 . S
C3783 C3780 1.403 . S
C3783 C3784 1.524 . S
C3783 C3787 1.400 . S
C3784 H3769 0.960 . S
C3784 H3770 0.960 . S
C3784 H3771 0.960 . S
C3784 C3783 1.524 . S
C3785 C3782 1.409 . S
C3785 C3786 1.392 . S
C3785 C3789 1.495 . S
C3786 C3785 1.392 . S
C3786 C3787 1.385 1_565 S
C3786 C3788 1.478 . S
C3787 H3781 0.930 . S
C3787 C3783 1.400 . S
C3787 C3786 1.385 1_545 S
C3788 C3786 1.478 . S
C3788 C3790 1.381 . S
C3788 C3794 1.383 . S
C3789 C3785 1.495 . S
C3789 H3795 0.959 . S
C3789 H3796 0.961 . S
C3789 H3797 0.960 . S
C3790 C3788 1.381 . S
C3790 C3791 1.394 . S
C3790 H3798 0.930 . S
C3791 C3790 1.394 . S
C3791 C3792 1.383 . S
C3791 H3799 0.929 . S
C3792 C3791 1.383 . S
C3792 C3793 1.377 . S
C3793 H3777 0.930 . S
C3793 C3792 1.377 . S
C3793 C3794 1.379 . S
C3794 H3778 0.931 . S
C3794 C3788 1.383 . S
C3794 C3793 1.379 . S
H3795 C3789 0.959 . S
H3796 C3789 0.961 . S
H3797 C3789 0.960 . S
H3798 C3790 0.930 . S
H3799 C3791 0.929 . S
H3800 C3808 0.929 . S
H3801 C3810 0.930 . S
H3802 C3812 0.930 . S
H3803 C3815 0.929 . S
H3804 C3818 0.930 . S
H3805 C3820 0.960 . S
H3806 C3820 0.960 . S
H3807 C3820 0.960 . S
C3808 H3800 0.929 . S
C3808 C3809 1.377 . S
C3808 C3810 1.384 . S
C3809 C3808 1.377 . S
C3809 C3815 1.390 . S
C3810 H3801 0.930 . S
C3810 C3808 1.384 . S
C3810 C3811 1.372 . S
C3811 C3810 1.372 . S
C3811 C3812 1.400 . S
C3811 C3816 1.490 . S
C3812 H3802 0.930 . S
C3812 C3811 1.400 . S
C3812 C3815 1.386 . S
H3813 C3829 0.930 . S
H3814 C3830 0.931 . S
C3815 H3803 0.929 . S
C3815 C3809 1.390 . S
C3815 C3812 1.386 . S
C3816 C3811 1.490 . S
C3816 C3818 1.395 . S
C3816 C3819 1.403 1_565 S
H3817 C3823 0.930 . S
C3818 H3804 0.930 . S
C3818 C3816 1.395 . S
C3818 C3821 1.403 . S
C3819 C3816 1.403 1_545 S
C3819 C3820 1.524 . S
C3819 C3823 1.400 . S
C3820 H3805 0.960 . S
C3820 H3806 0.960 . S
C3820 H3807 0.960 . S
C3820 C3819 1.524 . S
C3821 C3818 1.403 . S
C3821 C3822 1.392 1_565 S
C3821 C3825 1.495 . S
C3822 C3821 1.392 1_545 S
C3822 C3823 1.385 . S
C3822 C3824 1.478 . S
C3823 H3817 0.930 . S
C3823 C3819 1.400 . S
C3823 C3822 1.385 . S
C3824 C3822 1.478 . S
C3824 C3826 1.381 . S
C3824 C3830 1.383 . S
C3825 C3821 1.495 . S
C3825 H3831 0.959 . S
C3825 H3832 0.961 . S
C3825 H3833 0.960 . S
C3826 C3824 1.381 . S
C3826 C3827 1.394 . S
C3826 H3834 0.930 . S
C3827 C3826 1.394 . S
C3827 C3828 1.383 . S
C3827 H3835 0.929 . S
C3828 C3827 1.383 . S
C3828 C3829 1.377 . S
C3829 H3813 0.930 . S
C3829 C3828 1.377 . S
C3829 C3830 1.379 . S
C3830 H3814 0.931 . S
C3830 C3824 1.383 . S
C3830 C3829 1.379 . S
H3831 C3825 0.959 . S
H3832 C3825 0.961 . S
H3833 C3825 0.960 . S
H3834 C3826 0.930 . S
H3835 C3827 0.929 . S
H3836 C3844 0.929 . S
H3837 C3846 0.930 . S
H3838 C3848 0.930 . S
H3839 C3851 0.929 . S
H3840 C3854 0.930 . S
H3841 C3856 0.960 . S
H3842 C3856 0.960 . S
H3843 C3856 0.960 . S
C3844 H3836 0.929 . S
C3844 C3845 1.377 . S
C3844 C3846 1.384 . S
C3845 C3844 1.377 . S
C3845 C3851 1.390 . S
C3846 H3837 0.930 . S
C3846 C3844 1.384 . S
C3846 C3847 1.372 . S
C3847 C3846 1.372 . S
C3847 C3848 1.400 . S
C3847 C3852 1.490 . S
C3848 H3838 0.930 . S
C3848 C3847 1.400 . S
C3848 C3851 1.386 . S
H3849 C3865 0.930 . S
H3850 C3866 0.931 . S
C3851 H3839 0.929 . S
C3851 C3845 1.390 . S
C3851 C3848 1.386 . S
C3852 C3847 1.490 . S
C3852 C3854 1.395 1_565 S
C3852 C3855 1.403 . S
H3853 C3859 0.930 . S
C3854 H3840 0.930 . S
C3854 C3852 1.395 1_545 S
C3854 C3857 1.403 . S
C3855 C3852 1.403 . S
C3855 C3856 1.524 . S
C3855 C3859 1.400 . S
C3856 H3841 0.960 . S
C3856 H3842 0.960 . S
C3856 H3843 0.960 . S
C3856 C3855 1.524 . S
C3857 C3854 1.403 . S
C3857 C3858 1.392 . S
C3857 C3861 1.495 . S
C3858 C3857 1.392 . S
C3858 C3859 1.385 1_545 S
C3858 C3860 1.478 . S
C3859 H3853 0.930 . S
C3859 C3855 1.400 . S
C3859 C3858 1.385 1_565 S
C3860 C3858 1.478 . S
C3860 C3862 1.381 . S
C3860 C3866 1.383 . S
C3861 C3857 1.495 . S
C3861 H3867 0.959 . S
C3861 H3868 0.961 . S
C3861 H3869 0.960 . S
C3862 C3860 1.381 . S
C3862 C3863 1.394 . S
C3862 H3870 0.930 . S
C3863 C3862 1.394 . S
C3863 C3864 1.383 . S
C3863 H3871 0.929 . S
C3864 C3863 1.383 . S
C3864 C3865 1.377 . S
C3865 H3849 0.930 . S
C3865 C3864 1.377 . S
C3865 C3866 1.379 . S
C3866 H3850 0.931 . S
C3866 C3860 1.383 . S
C3866 C3865 1.379 . S
H3867 C3861 0.959 . S
H3868 C3861 0.961 . S
H3869 C3861 0.960 . S
H3870 C3862 0.930 . S
H3871 C3863 0.929 . S
H3872 C3880 0.929 . S
H3873 C3882 0.930 . S
H3874 C3884 0.930 . S
H3875 C3887 0.929 . S
H3876 C3890 0.930 . S
H3877 C3892 0.960 . S
H3878 C3892 0.960 . S
H3879 C3892 0.960 . S
C3880 H3872 0.929 . S
C3880 C3881 1.377 . S
C3880 C3882 1.384 . S
C3881 C3880 1.377 . S
C3881 C3887 1.390 . S
C3882 H3873 0.930 . S
C3882 C3880 1.384 . S
C3882 C3883 1.372 . S
C3883 C3882 1.372 . S
C3883 C3884 1.400 . S
C3883 C3888 1.490 . S
C3884 H3874 0.930 . S
C3884 C3883 1.400 . S
C3884 C3887 1.386 . S
H3885 C3901 0.930 . S
H3886 C3902 0.931 . S
C3887 H3875 0.929 . S
C3887 C3881 1.390 . S
C3887 C3884 1.386 . S
C3888 C3883 1.490 . S
C3888 C3890 1.395 . S
C3888 C3891 1.403 . S
H3889 C3895 0.930 . S
C3890 H3876 0.930 . S
C3890 C3888 1.395 . S
C3890 C3893 1.403 . S
C3891 C3888 1.403 . S
C3891 C3892 1.524 . S
C3891 C3895 1.400 . S
C3892 H3877 0.960 . S
C3892 H3878 0.960 . S
C3892 H3879 0.960 . S
C3892 C3891 1.524 . S
C3893 C3890 1.403 . S
C3893 C3894 1.392 . S
C3893 C3897 1.495 . S
C3894 C3893 1.392 . S
C3894 C3895 1.385 . S
C3894 C3896 1.478 . S
C3895 H3889 0.930 . S
C3895 C3891 1.400 . S
C3895 C3894 1.385 . S
C3896 C3894 1.478 . S
C3896 C3898 1.381 . S
C3896 C3902 1.383 . S
C3897 C3893 1.495 . S
C3897 H3903 0.959 . S
C3897 H3904 0.961 . S
C3897 H3905 0.960 . S
C3898 C3896 1.381 . S
C3898 C3899 1.394 . S
C3898 H3906 0.930 . S
C3899 C3898 1.394 . S
C3899 C3900 1.383 . S
C3899 H3907 0.929 . S
C3900 C3899 1.383 . S
C3900 C3901 1.377 . S
C3901 H3885 0.930 . S
C3901 C3900 1.377 . S
C3901 C3902 1.379 . S
C3902 H3886 0.931 . S
C3902 C3896 1.383 . S
C3902 C3901 1.379 . S
H3903 C3897 0.959 . S
H3904 C3897 0.961 . S
H3905 C3897 0.960 . S
H3906 C3898 0.930 . S
H3907 C3899 0.929 . S
H3908 C3916 0.929 . S
H3909 C3918 0.930 . S
H3910 C3920 0.930 . S
H3911 C3923 0.929 . S
H3912 C3926 0.930 . S
H3913 C3928 0.960 . S
H3914 C3928 0.960 . S
H3915 C3928 0.960 . S
C3916 H3908 0.929 . S
C3916 C3917 1.377 . S
C3916 C3918 1.384 . S
C3917 C3916 1.377 . S
C3917 C3923 1.390 . S
C3918 H3909 0.930 . S
C3918 C3916 1.384 . S
C3918 C3919 1.372 . S
C3919 C3918 1.372 . S
C3919 C3920 1.400 . S
C3919 C3924 1.490 . S
C3920 H3910 0.930 . S
C3920 C3919 1.400 . S
C3920 C3923 1.386 . S
H3921 C3937 0.930 . S
H3922 C3938 0.931 . S
C3923 H3911 0.929 . S
C3923 C3917 1.390 . S
C3923 C3920 1.386 . S
C3924 C3919 1.490 . S
C3924 C3926 1.395 . S
C3924 C3927 1.403 . S
H3925 C3931 0.930 . S
C3926 H3912 0.930 . S
C3926 C3924 1.395 . S
C3926 C3929 1.403 . S
C3927 C3924 1.403 . S
C3927 C3928 1.524 . S
C3927 C3931 1.400 . S
C3928 H3913 0.960 . S
C3928 H3914 0.960 . S
C3928 H3915 0.960 . S
C3928 C3927 1.524 . S
C3929 C3926 1.403 . S
C3929 C3930 1.392 . S
C3929 C3933 1.495 . S
C3930 C3929 1.392 . S
C3930 C3931 1.385 . S
C3930 C3932 1.478 . S
C3931 H3925 0.930 . S
C3931 C3927 1.400 . S
C3931 C3930 1.385 . S
C3932 C3930 1.478 . S
C3932 C3934 1.381 . S
C3932 C3938 1.383 . S
C3933 C3929 1.495 . S
C3933 H3939 0.959 . S
C3933 H3940 0.961 . S
C3933 H3941 0.960 . S
C3934 C3932 1.381 . S
C3934 C3935 1.394 . S
C3934 H3942 0.930 . S
C3935 C3934 1.394 . S
C3935 C3936 1.383 . S
C3935 H3943 0.929 . S
C3936 C3935 1.383 . S
C3936 C3937 1.377 . S
C3937 H3921 0.930 . S
C3937 C3936 1.377 . S
C3937 C3938 1.379 . S
C3938 H3922 0.931 . S
C3938 C3932 1.383 . S
C3938 C3937 1.379 . S
H3939 C3933 0.959 . S
H3940 C3933 0.961 . S
H3941 C3933 0.960 . S
H3942 C3934 0.930 . S
H3943 C3935 0.929 . S
H3944 C3952 0.929 . S
H3945 C3954 0.930 . S
H3946 C3956 0.930 . S
H3947 C3959 0.929 . S
H3948 C3962 0.930 . S
H3949 C3964 0.960 . S
H3950 C3964 0.960 . S
H3951 C3964 0.960 . S
C3952 H3944 0.929 . S
C3952 C3953 1.377 . S
C3952 C3954 1.384 . S
C3953 C3952 1.377 . S
C3953 C3959 1.390 . S
C3954 H3945 0.930 . S
C3954 C3952 1.384 . S
C3954 C3955 1.372 . S
C3955 C3954 1.372 . S
C3955 C3956 1.400 . S
C3955 C3960 1.490 . S
C3956 H3946 0.930 . S
C3956 C3955 1.400 . S
C3956 C3959 1.386 . S
H3957 C3973 0.930 . S
H3958 C3974 0.931 . S
C3959 H3947 0.929 . S
C3959 C3953 1.390 . S
C3959 C3956 1.386 . S
C3960 C3955 1.490 . S
C3960 C3962 1.395 . S
C3960 C3963 1.403 . S
H3961 C3967 0.930 . S
C3962 H3948 0.930 . S
C3962 C3960 1.395 . S
C3962 C3965 1.403 . S
C3963 C3960 1.403 . S
C3963 C3964 1.524 . S
C3963 C3967 1.400 . S
C3964 H3949 0.960 . S
C3964 H3950 0.960 . S
C3964 H3951 0.960 . S
C3964 C3963 1.524 . S
C3965 C3962 1.403 . S
C3965 C3966 1.392 . S
C3965 C3969 1.495 . S
C3966 C3965 1.392 . S
C3966 C3967 1.385 . S
C3966 C3968 1.478 . S
C3967 H3961 0.930 . S
C3967 C3963 1.400 . S
C3967 C3966 1.385 . S
C3968 C3966 1.478 . S
C3968 C3970 1.381 . S
C3968 C3974 1.383 . S
C3969 C3965 1.495 . S
C3969 H3975 0.959 . S
C3969 H3976 0.961 . S
C3969 H3977 0.960 . S
C3970 C3968 1.381 . S
C3970 C3971 1.394 . S
C3970 H3978 0.930 . S
C3971 C3970 1.394 . S
C3971 C3972 1.383 . S
C3971 H3979 0.929 . S
C3972 C3971 1.383 . S
C3972 C3973 1.377 . S
C3973 H3957 0.930 . S
C3973 C3972 1.377 . S
C3973 C3974 1.379 . S
C3974 H3958 0.931 . S
C3974 C3968 1.383 . S
C3974 C3973 1.379 . S
H3975 C3969 0.959 . S
H3976 C3969 0.961 . S
H3977 C3969 0.960 . S
H3978 C3970 0.930 . S
H3979 C3971 0.929 . S
H3980 C3988 0.929 . S
H3981 C3990 0.930 . S
H3982 C3992 0.930 . S
H3983 C3995 0.929 . S
H3984 C3998 0.930 . S
H3985 C4000 0.960 . S
H3986 C4000 0.960 . S
H3987 C4000 0.960 . S
C3988 H3980 0.929 . S
C3988 C3989 1.377 . S
C3988 C3990 1.384 . S
C3989 C3988 1.377 . S
C3989 C3995 1.390 . S
C3990 H3981 0.930 . S
C3990 C3988 1.384 . S
C3990 C3991 1.372 . S
C3991 C3990 1.372 . S
C3991 C3992 1.400 . S
C3991 C3996 1.490 . S
C3992 H3982 0.930 . S
C3992 C3991 1.400 . S
C3992 C3995 1.386 . S
H3993 C4009 0.930 . S
H3994 C4010 0.931 . S
C3995 H3983 0.929 . S
C3995 C3989 1.390 . S
C3995 C3992 1.386 . S
C3996 C3991 1.490 . S
C3996 C3998 1.395 . S
C3996 C3999 1.403 . S
H3997 C4003 0.930 . S
C3998 H3984 0.930 . S
C3998 C3996 1.395 . S
C3998 C4001 1.403 . S
C3999 C3996 1.403 . S
C3999 C4000 1.524 . S
C3999 C4003 1.400 . S
C4000 H3985 0.960 . S
C4000 H3986 0.960 . S
C4000 H3987 0.960 . S
C4000 C3999 1.524 . S
C4001 C3998 1.403 . S
C4001 C4002 1.392 . S
C4001 C4005 1.495 . S
C4002 C4001 1.392 . S
C4002 C4003 1.385 . S
C4002 C4004 1.478 . S
C4003 H3997 0.930 . S
C4003 C3999 1.400 . S
C4003 C4002 1.385 . S
C4004 C4002 1.478 . S
C4004 C4006 1.381 . S
C4004 C4010 1.383 . S
C4005 C4001 1.495 . S
C4005 H4011 0.959 . S
C4005 H4012 0.961 . S
C4005 H4013 0.960 . S
C4006 C4004 1.381 . S
C4006 C4007 1.394 . S
C4006 H4014 0.930 . S
C4007 C4006 1.394 . S
C4007 C4008 1.383 . S
C4007 H4015 0.929 . S
C4008 C4007 1.383 . S
C4008 C4009 1.377 . S
C4009 H3993 0.930 . S
C4009 C4008 1.377 . S
C4009 C4010 1.379 . S
C4010 H3994 0.931 . S
C4010 C4004 1.383 . S
C4010 C4009 1.379 . S
H4011 C4005 0.959 . S
H4012 C4005 0.961 . S
H4013 C4005 0.960 . S
H4014 C4006 0.930 . S
H4015 C4007 0.929 . S
H4016 C4024 0.929 . S
H4017 C4026 0.930 . S
H4018 C4028 0.930 . S
H4019 C4031 0.929 . S
H4020 C4034 0.930 . S
H4021 C4036 0.960 . S
H4022 C4036 0.960 . S
H4023 C4036 0.960 . S
C4024 H4016 0.929 . S
C4024 C4025 1.377 . S
C4024 C4026 1.384 . S
C4025 C4024 1.377 . S
C4025 C4031 1.390 . S
C4026 H4017 0.930 . S
C4026 C4024 1.384 . S
C4026 C4027 1.372 . S
C4027 C4026 1.372 . S
C4027 C4028 1.400 . S
C4027 C4032 1.490 . S
C4028 H4018 0.930 . S
C4028 C4027 1.400 . S
C4028 C4031 1.386 . S
H4029 C4045 0.930 . S
H4030 C4046 0.931 . S
C4031 H4019 0.929 . S
C4031 C4025 1.390 . S
C4031 C4028 1.386 . S
C4032 C4027 1.490 . S
C4032 C4034 1.395 . S
C4032 C4035 1.403 . S
H4033 C4039 0.930 . S
C4034 H4020 0.930 . S
C4034 C4032 1.395 . S
C4034 C4037 1.403 . S
C4035 C4032 1.403 . S
C4035 C4036 1.524 . S
C4035 C4039 1.400 . S
C4036 H4021 0.960 . S
C4036 H4022 0.960 . S
C4036 H4023 0.960 . S
C4036 C4035 1.524 . S
C4037 C4034 1.403 . S
C4037 C4038 1.392 . S
C4037 C4041 1.495 . S
C4038 C4037 1.392 . S
C4038 C4039 1.385 . S
C4038 C4040 1.478 . S
C4039 H4033 0.930 . S
C4039 C4035 1.400 . S
C4039 C4038 1.385 . S
C4040 C4038 1.478 . S
C4040 C4042 1.381 . S
C4040 C4046 1.383 . S
C4041 C4037 1.495 . S
C4041 H4047 0.959 . S
C4041 H4048 0.961 . S
C4041 H4049 0.960 . S
C4042 C4040 1.381 . S
C4042 C4043 1.394 . S
C4042 H4050 0.930 . S
C4043 C4042 1.394 . S
C4043 C4044 1.383 . S
C4043 H4051 0.929 . S
C4044 C4043 1.383 . S
C4044 C4045 1.377 . S
C4045 H4029 0.930 . S
C4045 C4044 1.377 . S
C4045 C4046 1.379 . S
C4046 H4030 0.931 . S
C4046 C4040 1.383 . S
C4046 C4045 1.379 . S
H4047 C4041 0.959 . S
H4048 C4041 0.961 . S
H4049 C4041 0.960 . S
H4050 C4042 0.930 . S
H4051 C4043 0.929 . S
H4052 C4060 0.929 . S
H4053 C4062 0.930 . S
H4054 C4064 0.930 . S
H4055 C4067 0.929 . S
H4056 C4070 0.930 . S
H4057 C4072 0.960 . S
H4058 C4072 0.960 . S
H4059 C4072 0.960 . S
C4060 H4052 0.929 . S
C4060 C4061 1.377 . S
C4060 C4062 1.384 . S
C4061 C4060 1.377 . S
C4061 C4067 1.390 . S
C4062 H4053 0.930 . S
C4062 C4060 1.384 . S
C4062 C4063 1.372 . S
C4063 C4062 1.372 . S
C4063 C4064 1.400 . S
C4063 C4068 1.490 . S
C4064 H4054 0.930 . S
C4064 C4063 1.400 . S
C4064 C4067 1.386 . S
H4065 C4081 0.930 . S
H4066 C4082 0.931 . S
C4067 H4055 0.929 . S
C4067 C4061 1.390 . S
C4067 C4064 1.386 . S
C4068 C4063 1.490 . S
C4068 C4070 1.395 . S
C4068 C4071 1.403 . S
H4069 C4075 0.930 . S
C4070 H4056 0.930 . S
C4070 C4068 1.395 . S
C4070 C4073 1.403 . S
C4071 C4068 1.403 . S
C4071 C4072 1.524 . S
C4071 C4075 1.400 . S
C4072 H4057 0.960 . S
C4072 H4058 0.960 . S
C4072 H4059 0.960 . S
C4072 C4071 1.524 . S
C4073 C4070 1.403 . S
C4073 C4074 1.392 . S
C4073 C4077 1.495 . S
C4074 C4073 1.392 . S
C4074 C4075 1.385 . S
C4074 C4076 1.478 . S
C4075 H4069 0.930 . S
C4075 C4071 1.400 . S
C4075 C4074 1.385 . S
C4076 C4074 1.478 . S
C4076 C4078 1.381 . S
C4076 C4082 1.383 . S
C4077 C4073 1.495 . S
C4077 H4083 0.959 . S
C4077 H4084 0.961 . S
C4077 H4085 0.960 . S
C4078 C4076 1.381 . S
C4078 C4079 1.394 . S
C4078 H4086 0.930 . S
C4079 C4078 1.394 . S
C4079 C4080 1.383 . S
C4079 H4087 0.929 . S
C4080 C4079 1.383 . S
C4080 C4081 1.377 . S
C4081 H4065 0.930 . S
C4081 C4080 1.377 . S
C4081 C4082 1.379 . S
C4082 H4066 0.931 . S
C4082 C4076 1.383 . S
C4082 C4081 1.379 . S
H4083 C4077 0.959 . S
H4084 C4077 0.961 . S
H4085 C4077 0.960 . S
H4086 C4078 0.930 . S
H4087 C4079 0.929 . S
H4088 C4096 0.929 . S
H4089 C4098 0.930 . S
H4090 C4100 0.930 . S
H4091 C4103 0.929 . S
H4092 C4106 0.930 . S
H4093 C4108 0.960 . S
H4094 C4108 0.960 . S
H4095 C4108 0.960 . S
C4096 H4088 0.929 . S
C4096 C4097 1.377 . S
C4096 C4098 1.384 . S
C4097 C4096 1.377 . S
C4097 C4103 1.390 . S
C4098 H4089 0.930 . S
C4098 C4096 1.384 . S
C4098 C4099 1.372 . S
C4099 C4098 1.372 . S
C4099 C4100 1.400 . S
C4099 C4104 1.490 . S
C4100 H4090 0.930 . S
C4100 C4099 1.400 . S
C4100 C4103 1.386 . S
H4101 C4117 0.930 . S
H4102 C4118 0.931 . S
C4103 H4091 0.929 . S
C4103 C4097 1.390 . S
C4103 C4100 1.386 . S
C4104 C4099 1.490 . S
C4104 C4106 1.395 . S
C4104 C4107 1.403 . S
H4105 C4111 0.930 . S
C4106 H4092 0.930 . S
C4106 C4104 1.395 . S
C4106 C4109 1.403 . S
C4107 C4104 1.403 . S
C4107 C4108 1.524 . S
C4107 C4111 1.400 . S
C4108 H4093 0.960 . S
C4108 H4094 0.960 . S
C4108 H4095 0.960 . S
C4108 C4107 1.524 . S
C4109 C4106 1.403 . S
C4109 C4110 1.392 . S
C4109 C4113 1.495 . S
C4110 C4109 1.392 . S
C4110 C4111 1.385 . S
C4110 C4112 1.478 . S
C4111 H4105 0.930 . S
C4111 C4107 1.400 . S
C4111 C4110 1.385 . S
C4112 C4110 1.478 . S
C4112 C4114 1.381 . S
C4112 C4118 1.383 . S
C4113 C4109 1.495 . S
C4113 H4119 0.959 . S
C4113 H4120 0.961 . S
C4113 H4121 0.960 . S
C4114 C4112 1.381 . S
C4114 C4115 1.394 . S
C4114 H4122 0.930 . S
C4115 C4114 1.394 . S
C4115 C4116 1.383 . S
C4115 H4123 0.929 . S
C4116 C4115 1.383 . S
C4116 C4117 1.377 . S
C4117 H4101 0.930 . S
C4117 C4116 1.377 . S
C4117 C4118 1.379 . S
C4118 H4102 0.931 . S
C4118 C4112 1.383 . S
C4118 C4117 1.379 . S
H4119 C4113 0.959 . S
H4120 C4113 0.961 . S
H4121 C4113 0.960 . S
H4122 C4114 0.930 . S
H4123 C4115 0.929 . S
H4124 C4132 0.929 . S
H4125 C4134 0.930 . S
H4126 C4136 0.930 . S
H4127 C4139 0.929 . S
H4128 C4142 0.930 . S
H4129 C4144 0.960 . S
H4130 C4144 0.960 . S
H4131 C4144 0.960 . S
C4132 H4124 0.929 . S
C4132 C4133 1.377 . S
C4132 C4134 1.384 . S
C4133 C4132 1.377 . S
C4133 C4139 1.390 . S
C4134 H4125 0.930 . S
C4134 C4132 1.384 . S
C4134 C4135 1.372 . S
C4135 C4134 1.372 . S
C4135 C4136 1.400 . S
C4135 C4140 1.490 . S
C4136 H4126 0.930 . S
C4136 C4135 1.400 . S
C4136 C4139 1.386 . S
H4137 C4153 0.930 . S
H4138 C4154 0.931 . S
C4139 H4127 0.929 . S
C4139 C4133 1.390 . S
C4139 C4136 1.386 . S
C4140 C4135 1.490 . S
C4140 C4142 1.395 . S
C4140 C4143 1.403 . S
H4141 C4147 0.930 . S
C4142 H4128 0.930 . S
C4142 C4140 1.395 . S
C4142 C4145 1.403 . S
C4143 C4140 1.403 . S
C4143 C4144 1.524 . S
C4143 C4147 1.400 . S
C4144 H4129 0.960 . S
C4144 H4130 0.960 . S
C4144 H4131 0.960 . S
C4144 C4143 1.524 . S
C4145 C4142 1.403 . S
C4145 C4146 1.392 . S
C4145 C4149 1.495 . S
C4146 C4145 1.392 . S
C4146 C4147 1.385 . S
C4146 C4148 1.478 . S
C4147 H4141 0.930 . S
C4147 C4143 1.400 . S
C4147 C4146 1.385 . S
C4148 C4146 1.478 . S
C4148 C4150 1.381 . S
C4148 C4154 1.383 . S
C4149 C4145 1.495 . S
C4149 H4155 0.959 . S
C4149 H4156 0.961 . S
C4149 H4157 0.960 . S
C4150 C4148 1.381 . S
C4150 C4151 1.394 . S
C4150 H4158 0.930 . S
C4151 C4150 1.394 . S
C4151 C4152 1.383 . S
C4151 H4159 0.929 . S
C4152 C4151 1.383 . S
C4152 C4153 1.377 . S
C4153 H4137 0.930 . S
C4153 C4152 1.377 . S
C4153 C4154 1.379 . S
C4154 H4138 0.931 . S
C4154 C4148 1.383 . S
C4154 C4153 1.379 . S
H4155 C4149 0.959 . S
H4156 C4149 0.961 . S
H4157 C4149 0.960 . S
H4158 C4150 0.930 . S
H4159 C4151 0.929 . S
H4160 C4168 0.929 . S
H4161 C4170 0.930 . S
H4162 C4172 0.946 . S
H4163 C4175 0.929 . S
H4164 C4178 0.930 . S
H4165 C4180 0.960 . S
H4166 C4180 0.960 . S
H4167 C4180 0.960 . S
C4168 H4160 0.929 . S
C4168 C4169 1.377 . S
C4168 C4170 1.384 . S
C4169 C4168 1.377 . S
C4169 C4175 1.390 . S
C4170 H4161 0.930 . S
C4170 C4168 1.384 . S
C4170 C4171 1.372 . S
C4171 C4170 1.372 . S
C4171 C4172 1.400 . S
C4171 C4176 1.490 . S
C4172 H4162 0.946 . S
C4172 C4171 1.400 . S
C4172 C4175 1.386 . S
H4173 C4189 0.930 . S
H4174 C4190 0.931 . S
C4175 H4163 0.929 . S
C4175 C4169 1.390 . S
C4175 C4172 1.386 . S
C4176 C4171 1.490 . S
C4176 C4178 1.395 . S
C4176 C4179 1.403 1_545 S
H4177 C4183 0.930 . S
C4178 H4164 0.930 . S
C4178 C4176 1.395 . S
C4178 C4181 1.403 . S
C4179 C4176 1.403 1_565 S
C4179 C4180 1.524 . S
C4179 C4183 1.400 . S
C4180 H4165 0.960 . S
C4180 H4166 0.960 . S
C4180 H4167 0.960 . S
C4180 C4179 1.524 . S
C4181 C4178 1.403 . S
C4181 C4182 1.392 1_545 S
C4181 C4185 1.495 . S
C4182 C4181 1.392 1_565 S
C4182 C4183 1.385 . S
C4182 C4184 1.478 . S
C4183 H4177 0.930 . S
C4183 C4179 1.400 . S
C4183 C4182 1.385 . S
C4184 C4182 1.478 . S
C4184 C4186 1.381 . S
C4184 C4190 1.383 . S
C4185 C4181 1.495 . S
C4185 H4191 0.959 . S
C4185 H4192 0.961 . S
C4185 H4193 0.960 . S
C4186 C4184 1.381 . S
C4186 C4187 1.394 . S
C4186 H4194 0.930 1_565 S
C4187 C4186 1.394 . S
C4187 C4188 1.383 . S
C4187 H4195 0.929 . S
C4188 C4187 1.383 . S
C4188 C4189 1.377 . S
C4189 H4173 0.930 . S
C4189 C4188 1.377 . S
C4189 C4190 1.379 . S
C4190 H4174 0.931 . S
C4190 C4184 1.383 . S
C4190 C4189 1.379 . S
H4191 C4185 0.959 . S
H4192 C4185 0.961 . S
H4193 C4185 0.960 . S
H4194 C4186 0.930 1_545 S
H4195 C4187 0.929 . S
H4196 C4204 0.929 . S
H4197 C4206 0.930 . S
H4198 C4208 0.930 . S
H4199 C4211 0.929 . S
H4200 C4214 0.930 . S
H4201 C4216 0.960 . S
H4202 C4216 0.960 . S
H4203 C4216 0.960 . S
C4204 H4196 0.929 . S
C4204 C4205 1.377 . S
C4204 C4206 1.384 . S
C4205 C4204 1.377 . S
C4205 C4211 1.390 . S
C4206 H4197 0.930 . S
C4206 C4204 1.384 . S
C4206 C4207 1.372 . S
C4207 C4206 1.372 . S
C4207 C4208 1.400 . S
C4207 C4212 1.490 . S
C4208 H4198 0.930 . S
C4208 C4207 1.400 . S
C4208 C4211 1.386 . S
H4209 C4225 0.930 . S
H4210 C4226 0.931 . S
C4211 H4199 0.929 . S
C4211 C4205 1.390 . S
C4211 C4208 1.386 . S
C4212 C4207 1.490 . S
C4212 C4214 1.395 . S
C4212 C4215 1.403 . S
H4213 C4219 0.930 . S
C4214 H4200 0.930 . S
C4214 C4212 1.395 . S
C4214 C4217 1.403 . S
C4215 C4212 1.403 . S
C4215 C4216 1.524 . S
C4215 C4219 1.400 . S
C4216 H4201 0.960 . S
C4216 H4202 0.960 . S
C4216 H4203 0.960 . S
C4216 C4215 1.524 . S
C4217 C4214 1.403 . S
C4217 C4218 1.392 . S
C4217 C4221 1.495 . S
C4218 C4217 1.392 . S
C4218 C4219 1.385 . S
C4218 C4220 1.478 . S
C4219 H4213 0.930 . S
C4219 C4215 1.400 . S
C4219 C4218 1.385 . S
C4220 C4218 1.478 . S
C4220 C4222 1.381 . S
C4220 C4226 1.383 . S
C4221 C4217 1.495 . S
C4221 H4227 0.959 . S
C4221 H4228 0.961 . S
C4221 H4229 0.960 . S
C4222 C4220 1.381 . S
C4222 C4223 1.394 . S
C4222 H4230 0.930 . S
C4223 C4222 1.394 . S
C4223 C4224 1.383 . S
C4223 H4231 0.929 . S
C4224 C4223 1.383 . S
C4224 C4225 1.377 . S
C4225 H4209 0.930 . S
C4225 C4224 1.377 . S
C4225 C4226 1.379 . S
C4226 H4210 0.931 . S
C4226 C4220 1.383 . S
C4226 C4225 1.379 . S
H4227 C4221 0.959 . S
H4228 C4221 0.961 . S
H4229 C4221 0.960 . S
H4230 C4222 0.930 . S
H4231 C4223 0.929 . S
H4232 C4240 0.929 . S
H4233 C4242 0.930 . S
H4234 C4244 0.930 . S
H4235 C4247 0.929 . S
H4236 C4250 0.930 . S
H4237 C4252 0.960 . S
H4238 C4252 0.960 . S
H4239 C4252 0.960 . S
C4240 H4232 0.929 . S
C4240 C4241 1.377 . S
C4240 C4242 1.384 . S
C4241 C4240 1.377 . S
C4241 C4247 1.390 . S
C4242 H4233 0.930 . S
C4242 C4240 1.384 . S
C4242 C4243 1.372 . S
C4243 C4242 1.372 . S
C4243 C4244 1.400 . S
C4243 C4248 1.490 . S
C4244 H4234 0.930 . S
C4244 C4243 1.400 . S
C4244 C4247 1.386 . S
H4245 C4261 0.930 . S
H4246 C4262 0.931 . S
C4247 H4235 0.929 . S
C4247 C4241 1.390 . S
C4247 C4244 1.386 . S
C4248 C4243 1.490 . S
C4248 C4250 1.395 . S
C4248 C4251 1.403 . S
H4249 C4255 0.930 . S
C4250 H4236 0.930 . S
C4250 C4248 1.395 . S
C4250 C4253 1.403 1_545 S
C4251 C4248 1.403 . S
C4251 C4252 1.524 . S
C4251 C4255 1.400 1_545 S
C4252 H4237 0.960 . S
C4252 H4238 0.960 . S
C4252 H4239 0.960 . S
C4252 C4251 1.524 . S
C4253 C4250 1.403 1_565 S
C4253 C4254 1.392 . S
C4253 C4257 1.495 . S
C4254 C4253 1.392 . S
C4254 C4255 1.385 . S
C4254 C4256 1.478 . S
C4255 H4249 0.930 . S
C4255 C4251 1.400 1_565 S
C4255 C4254 1.385 . S
C4256 C4254 1.478 . S
C4256 C4258 1.381 . S
C4256 C4262 1.383 . S
C4257 C4253 1.495 . S
C4257 H4263 0.959 . S
C4257 H4264 0.961 . S
C4257 H4265 0.960 . S
C4258 C4256 1.381 . S
C4258 C4259 1.394 . S
C4258 H4266 0.930 . S
C4259 C4258 1.394 . S
C4259 C4260 1.383 . S
C4259 H4267 0.929 . S
C4260 C4259 1.383 . S
C4260 C4261 1.377 . S
C4261 H4245 0.930 . S
C4261 C4260 1.377 . S
C4261 C4262 1.379 . S
C4262 H4246 0.931 . S
C4262 C4256 1.383 . S
C4262 C4261 1.379 . S
H4263 C4257 0.959 . S
H4264 C4257 0.961 . S
H4265 C4257 0.960 . S
H4266 C4258 0.930 . S
H4267 C4259 0.929 . S
H4268 C4276 0.929 . S
H4269 C4278 0.930 . S
H4270 C4280 0.930 . S
H4271 C4283 0.929 . S
H4272 C4286 0.947 . S
H4273 C4288 0.960 . S
H4274 C4288 0.960 . S
H4275 C4288 0.960 . S
C4276 H4268 0.929 . S
C4276 C4277 1.377 . S
C4276 C4278 1.384 . S
C4277 C4276 1.377 . S
C4277 C4283 1.390 . S
C4278 H4269 0.930 . S
C4278 C4276 1.384 . S
C4278 C4279 1.372 . S
C4279 C4278 1.372 . S
C4279 C4280 1.400 . S
C4279 C4284 1.490 . S
C4280 H4270 0.930 . S
C4280 C4279 1.400 . S
C4280 C4283 1.386 . S
H4281 C4297 0.930 . S
H4282 C4298 0.931 . S
C4283 H4271 0.929 . S
C4283 C4277 1.390 . S
C4283 C4280 1.386 . S
C4284 C4279 1.490 . S
C4284 C4286 1.466 . S
C4284 C4287 1.403 . S
H4285 C4291 0.930 . S
C4286 H4272 0.947 . S
C4286 C4284 1.466 . S
C4286 C4289 1.322 1_556 S
C4287 C4284 1.403 . S
C4287 C4288 1.524 . S
C4287 C4291 1.400 1_556 S
C4288 H4273 0.960 . S
C4288 H4274 0.960 . S
C4288 H4275 0.960 . S
C4288 C4287 1.524 . S
C4289 C4286 1.322 1_554 S
C4289 C4290 1.392 . S
C4289 C4293 1.495 . S
C4290 C4289 1.392 . S
C4290 C4291 1.385 . S
C4290 C4292 1.478 . S
C4291 H4285 0.930 . S
C4291 C4287 1.400 1_554 S
C4291 C4290 1.385 . S
C4292 C4290 1.478 . S
C4292 C4294 1.381 . S
C4292 C4298 1.383 . S
C4293 C4289 1.495 . S
C4293 H4299 0.959 . S
C4293 H4300 0.961 . S
C4293 H4301 0.960 . S
C4294 C4292 1.381 . S
C4294 C4295 1.394 . S
C4294 H4302 0.930 . S
C4295 C4294 1.394 . S
C4295 C4296 1.383 . S
C4295 H4303 0.929 . S
C4296 C4295 1.383 . S
C4296 C4297 1.377 . S
C4297 H4281 0.930 . S
C4297 C4296 1.377 . S
C4297 C4298 1.379 . S
C4298 H4282 0.931 . S
C4298 C4292 1.383 . S
C4298 C4297 1.379 . S
H4299 C4293 0.959 . S
H4300 C4293 0.961 . S
H4301 C4293 0.960 . S
H4302 C4294 0.930 . S
H4303 C4295 0.929 . S
H4304 C4312 0.929 . S
H4305 C4314 0.930 . S
H4306 C4316 0.930 . S
H4307 C4319 0.929 . S
H4308 C4322 0.930 . S
H4309 C4324 0.960 . S
H4310 C4324 0.960 . S
H4311 C4324 0.960 . S
C4312 H4304 0.929 . S
C4312 C4313 1.377 . S
C4312 C4314 1.384 . S
C4313 C4312 1.377 . S
C4313 C4319 1.390 . S
C4314 H4305 0.930 . S
C4314 C4312 1.384 . S
C4314 C4315 1.372 . S
C4315 C4314 1.372 . S
C4315 C4316 1.400 . S
C4315 C4320 1.490 . S
C4316 H4306 0.930 . S
C4316 C4315 1.400 . S
C4316 C4319 1.386 . S
H4317 C4333 0.930 . S
H4318 C4334 0.931 . S
C4319 H4307 0.929 . S
C4319 C4313 1.390 . S
C4319 C4316 1.386 . S
C4320 C4315 1.490 . S
C4320 C4322 1.395 . S
C4320 C4323 1.403 1_565 S
H4321 C4327 0.930 . S
C4322 H4308 0.930 . S
C4322 C4320 1.395 . S
C4322 C4325 1.403 . S
C4323 C4320 1.403 1_545 S
C4323 C4324 1.524 . S
C4323 C4327 1.400 . S
C4324 H4309 0.960 . S
C4324 H4310 0.960 . S
C4324 H4311 0.960 . S
C4324 C4323 1.524 . S
C4325 C4322 1.403 . S
C4325 C4326 1.392 1_565 S
C4325 C4329 1.495 . S
C4326 C4325 1.392 1_545 S
C4326 C4327 1.385 . S
C4326 C4328 1.478 . S
C4327 H4321 0.930 . S
C4327 C4323 1.400 . S
C4327 C4326 1.385 . S
C4328 C4326 1.478 . S
C4328 C4330 1.381 . S
C4328 C4334 1.383 . S
C4329 C4325 1.495 . S
C4329 H4335 0.959 . S
C4329 H4336 0.961 . S
C4329 H4337 0.960 . S
C4330 C4328 1.381 . S
C4330 C4331 1.394 . S
C4330 H4338 0.930 . S
C4331 C4330 1.394 . S
C4331 C4332 1.383 . S
C4331 H4339 0.929 . S
C4332 C4331 1.383 . S
C4332 C4333 1.377 . S
C4333 H4317 0.930 . S
C4333 C4332 1.377 . S
C4333 C4334 1.379 . S
C4334 H4318 0.931 . S
C4334 C4328 1.383 . S
C4334 C4333 1.379 . S
H4335 C4329 0.959 . S
H4336 C4329 0.961 . S
H4337 C4329 0.960 . S
H4338 C4330 0.930 . S
H4339 C4331 0.929 . S
H4340 C4348 0.929 . S
H4341 C4350 0.930 . S
H4342 C4352 0.930 . S
H4343 C4355 0.929 . S
H4344 C4358 0.930 . S
H4345 C4360 0.960 . S
H4346 C4360 0.960 . S
H4347 C4360 0.960 . S
C4348 H4340 0.929 . S
C4348 C4349 1.377 . S
C4348 C4350 1.384 . S
C4349 C4348 1.377 . S
C4349 C4355 1.390 . S
C4350 H4341 0.930 . S
C4350 C4348 1.384 . S
C4350 C4351 1.372 . S
C4351 C4350 1.372 . S
C4351 C4352 1.400 . S
C4351 C4356 1.490 . S
C4352 H4342 0.930 . S
C4352 C4351 1.400 . S
C4352 C4355 1.386 . S
H4353 C4369 0.930 . S
H4354 C4370 0.931 . S
C4355 H4343 0.929 . S
C4355 C4349 1.390 . S
C4355 C4352 1.386 . S
C4356 C4351 1.490 . S
C4356 C4358 1.395 . S
C4356 C4359 1.403 . S
H4357 C4363 0.930 . S
C4358 H4344 0.930 . S
C4358 C4356 1.395 . S
C4358 C4361 1.403 . S
C4359 C4356 1.403 . S
C4359 C4360 1.524 . S
C4359 C4363 1.400 . S
C4360 H4345 0.960 . S
C4360 H4346 0.960 . S
C4360 H4347 0.960 . S
C4360 C4359 1.524 . S
C4361 C4358 1.403 . S
C4361 C4362 1.392 . S
C4361 C4365 1.495 . S
C4362 C4361 1.392 . S
C4362 C4363 1.385 . S
C4362 C4364 1.478 . S
C4363 H4357 0.930 . S
C4363 C4359 1.400 . S
C4363 C4362 1.385 . S
C4364 C4362 1.478 . S
C4364 C4366 1.381 . S
C4364 C4370 1.383 . S
C4365 C4361 1.495 . S
C4365 H4371 0.959 . S
C4365 H4372 0.961 . S
C4365 H4373 0.960 . S
C4366 C4364 1.381 . S
C4366 C4367 1.394 . S
C4366 H4374 0.930 . S
C4367 C4366 1.394 . S
C4367 C4368 1.383 . S
C4367 H4375 0.929 . S
C4368 C4367 1.383 . S
C4368 C4369 1.377 . S
C4369 H4353 0.930 . S
C4369 C4368 1.377 . S
C4369 C4370 1.379 . S
C4370 H4354 0.931 . S
C4370 C4364 1.383 . S
C4370 C4369 1.379 . S
H4371 C4365 0.959 . S
H4372 C4365 0.961 . S
H4373 C4365 0.960 . S
H4374 C4366 0.930 . S
H4375 C4367 0.929 . S
H4376 C4384 0.929 . S
H4377 C4386 0.930 . S
H4378 C4388 0.930 . S
H4379 C4391 0.929 . S
H4380 C4394 0.930 . S
H4381 C4396 0.960 . S
H4382 C4396 0.960 . S
H4383 C4396 0.960 . S
C4384 H4376 0.929 . S
C4384 C4385 1.377 . S
C4384 C4386 1.384 . S
C4385 C4384 1.377 . S
C4385 C4391 1.390 . S
C4386 H4377 0.930 . S
C4386 C4384 1.384 . S
C4386 C4387 1.372 . S
C4387 C4386 1.372 . S
C4387 C4388 1.400 . S
C4387 C4392 1.490 . S
C4388 H4378 0.930 . S
C4388 C4387 1.400 . S
C4388 C4391 1.386 . S
H4389 C4405 0.930 . S
H4390 C4406 0.931 . S
C4391 H4379 0.929 . S
C4391 C4385 1.390 . S
C4391 C4388 1.386 . S
C4392 C4387 1.490 . S
C4392 C4394 1.395 1_565 S
C4392 C4395 1.403 . S
H4393 C4399 0.930 . S
C4394 H4380 0.930 . S
C4394 C4392 1.395 1_545 S
C4394 C4397 1.403 . S
C4395 C4392 1.403 . S
C4395 C4396 1.524 . S
C4395 C4399 1.400 . S
C4396 H4381 0.960 . S
C4396 H4382 0.960 . S
C4396 H4383 0.960 . S
C4396 C4395 1.524 . S
C4397 C4394 1.403 . S
C4397 C4398 1.392 . S
C4397 C4401 1.495 . S
C4398 C4397 1.392 . S
C4398 C4399 1.385 1_545 S
C4398 C4400 1.478 . S
C4399 H4393 0.930 . S
C4399 C4395 1.400 . S
C4399 C4398 1.385 1_565 S
C4400 C4398 1.478 . S
C4400 C4402 1.381 . S
C4400 C4406 1.383 . S
C4401 C4397 1.495 . S
C4401 H4407 0.959 . S
C4401 H4408 0.961 . S
C4401 H4409 0.960 . S
C4402 C4400 1.381 . S
C4402 C4403 1.394 . S
C4402 H4410 0.930 . S
C4403 C4402 1.394 . S
C4403 C4404 1.383 . S
C4403 H4411 0.929 . S
C4404 C4403 1.383 . S
C4404 C4405 1.377 . S
C4405 H4389 0.930 . S
C4405 C4404 1.377 . S
C4405 C4406 1.379 . S
C4406 H4390 0.931 . S
C4406 C4400 1.383 . S
C4406 C4405 1.379 . S
H4407 C4401 0.959 . S
H4408 C4401 0.961 . S
H4409 C4401 0.960 . S
H4410 C4402 0.930 . S
H4411 C4403 0.929 . S
H4412 C4420 0.929 . S
H4413 C4422 0.930 . S
H4414 C4424 0.930 . S
H4415 C4427 0.929 . S
H4416 C4430 0.930 . S
H4417 C4432 0.960 . S
H4418 C4432 0.960 1_554 S
H4419 C4432 0.922 1_554 S
C4420 H4412 0.929 . S
C4420 C4421 1.377 . S
C4420 C4422 1.384 . S
C4421 C4420 1.377 . S
C4421 C4427 1.390 . S
C4422 H4413 0.930 . S
C4422 C4420 1.384 . S
C4422 C4423 1.372 . S
C4423 C4422 1.372 . S
C4423 C4424 1.400 . S
C4423 C4428 1.490 . S
C4424 H4414 0.930 . S
C4424 C4423 1.400 . S
C4424 C4427 1.386 . S
H4425 C4441 0.930 . S
H4426 C4442 0.931 . S
C4427 H4415 0.929 . S
C4427 C4421 1.390 . S
C4427 C4424 1.386 . S
C4428 C4423 1.490 . S
C4428 C4430 1.395 . S
C4428 C4431 1.377 1_554 S
H4429 C4435 0.930 . S
C4430 H4416 0.930 . S
C4430 C4428 1.395 . S
C4430 C4433 1.403 . S
C4431 C4428 1.377 1_556 S
C4431 C4432 1.528 . S
C4431 C4435 1.423 . S
C4432 H4417 0.960 . S
C4432 H4418 0.960 1_556 S
C4432 H4419 0.922 1_556 S
C4432 C4431 1.528 . S
C4433 C4430 1.403 . S
C4433 C4434 1.392 1_554 S
C4433 C4437 1.495 . S
C4434 C4433 1.392 1_556 S
C4434 C4435 1.385 . S
C4434 C4436 1.478 . S
C4435 H4429 0.930 . S
C4435 C4431 1.423 . S
C4435 C4434 1.385 . S
C4436 C4434 1.478 . S
C4436 C4438 1.381 . S
C4436 C4442 1.383 . S
C4437 C4433 1.495 . S
C4437 H4443 0.959 . S
C4437 H4444 0.933 1_554 S
C4437 H4445 0.965 1_554 S
C4438 C4436 1.381 . S
C4438 C4439 1.394 . S
C4438 H4446 0.930 . S
C4439 C4438 1.394 . S
C4439 C4440 1.383 . S
C4439 H4447 0.929 . S
C4440 C4439 1.383 . S
C4440 C4441 1.377 . S
C4441 H4425 0.930 . S
C4441 C4440 1.377 . S
C4441 C4442 1.379 . S
C4442 H4426 0.931 . S
C4442 C4436 1.383 . S
C4442 C4441 1.379 . S
H4443 C4437 0.959 . S
H4444 C4437 0.933 1_556 S
H4445 C4437 0.965 1_556 S
H4446 C4438 0.930 . S
H4447 C4439 0.929 . S
H4448 C4456 0.929 . S
H4449 C4458 0.930 . S
H4450 C4460 0.930 . S
H4451 C4463 0.929 . S
H4452 C4466 0.930 . S
H4453 C4468 0.960 . S
H4454 C4468 0.960 . S
H4455 C4468 0.960 . S
C4456 H4448 0.929 . S
C4456 C4457 1.377 . S
C4456 C4458 1.384 . S
C4457 C4456 1.377 . S
C4457 C4463 1.390 . S
C4458 H4449 0.930 . S
C4458 C4456 1.384 . S
C4458 C4459 1.372 . S
C4459 C4458 1.372 . S
C4459 C4460 1.400 . S
C4459 C4464 1.490 . S
C4460 H4450 0.930 . S
C4460 C4459 1.400 . S
C4460 C4463 1.386 . S
H4461 C4477 0.930 . S
H4462 C4478 0.931 . S
C4463 H4451 0.929 . S
C4463 C4457 1.390 . S
C4463 C4460 1.386 . S
C4464 C4459 1.490 . S
C4464 C4466 1.395 . S
C4464 C4467 1.403 . S
H4465 C4471 0.930 . S
C4466 H4452 0.930 . S
C4466 C4464 1.395 . S
C4466 C4469 1.403 . S
C4467 C4464 1.403 . S
C4467 C4468 1.524 . S
C4467 C4471 1.400 . S
C4468 H4453 0.960 . S
C4468 H4454 0.960 . S
C4468 H4455 0.960 . S
C4468 C4467 1.524 . S
C4469 C4466 1.403 . S
C4469 C4470 1.392 . S
C4469 C4473 1.495 . S
C4470 C4469 1.392 . S
C4470 C4471 1.385 . S
C4470 C4472 1.478 . S
C4471 H4465 0.930 . S
C4471 C4467 1.400 . S
C4471 C4470 1.385 . S
C4472 C4470 1.478 . S
C4472 C4474 1.381 . S
C4472 C4478 1.383 . S
C4473 C4469 1.495 . S
C4473 H4479 0.959 . S
C4473 H4480 0.961 . S
C4473 H4481 0.960 . S
C4474 C4472 1.381 . S
C4474 C4475 1.394 . S
C4474 H4482 0.930 . S
C4475 C4474 1.394 . S
C4475 C4476 1.383 . S
C4475 H4483 0.929 . S
C4476 C4475 1.383 . S
C4476 C4477 1.377 . S
C4477 H4461 0.930 . S
C4477 C4476 1.377 . S
C4477 C4478 1.379 . S
C4478 H4462 0.931 . S
C4478 C4472 1.383 . S
C4478 C4477 1.379 . S
H4479 C4473 0.959 . S
H4480 C4473 0.961 . S
H4481 C4473 0.960 . S
H4482 C4474 0.930 . S
H4483 C4475 0.929 . S
H4484 C4492 0.929 . S
H4485 C4494 0.930 . S
H4486 C4496 0.930 . S
H4487 C4499 0.929 . S
H4488 C4502 0.930 . S
H4489 C4504 0.960 1_554 S
H4490 C4504 0.960 . S
H4491 C4504 0.960 . S
C4492 H4484 0.929 . S
C4492 C4493 1.377 . S
C4492 C4494 1.384 . S
C4493 C4492 1.377 . S
C4493 C4499 1.390 . S
C4494 H4485 0.930 . S
C4494 C4492 1.384 . S
C4494 C4495 1.372 . S
C4495 C4494 1.372 . S
C4495 C4496 1.400 . S
C4495 C4500 1.490 . S
C4496 H4486 0.930 . S
C4496 C4495 1.400 . S
C4496 C4499 1.386 . S
H4497 C4513 0.930 . S
H4498 C4514 0.931 . S
C4499 H4487 0.929 . S
C4499 C4493 1.390 . S
C4499 C4496 1.386 . S
C4500 C4495 1.490 . S
C4500 C4502 1.395 . S
C4500 C4503 1.403 . S
H4501 C4507 0.930 . S
C4502 H4488 0.930 . S
C4502 C4500 1.395 . S
C4502 C4505 1.403 1_556 S
C4503 C4500 1.403 . S
C4503 C4504 1.524 . S
C4503 C4507 1.400 1_556 S
C4504 H4489 0.960 1_556 S
C4504 H4490 0.960 . S
C4504 H4491 0.960 . S
C4504 C4503 1.524 . S
C4505 C4502 1.403 1_554 S
C4505 C4506 1.392 . S
C4505 C4509 1.495 . S
C4506 C4505 1.392 . S
C4506 C4507 1.385 . S
C4506 C4508 1.478 . S
C4507 H4501 0.930 . S
C4507 C4503 1.400 1_554 S
C4507 C4506 1.385 . S
C4508 C4506 1.478 . S
C4508 C4510 1.381 . S
C4508 C4514 1.383 . S
C4509 C4505 1.495 . S
C4509 H4515 0.959 1_554 S
C4509 H4516 0.961 . S
C4509 H4517 0.960 . S
C4510 C4508 1.381 . S
C4510 C4511 1.394 . S
C4510 H4518 0.930 . S
C4511 C4510 1.394 . S
C4511 C4512 1.383 . S
C4511 H4519 0.929 . S
C4512 C4511 1.383 . S
C4512 C4513 1.377 . S
C4513 H4497 0.930 . S
C4513 C4512 1.377 . S
C4513 C4514 1.379 . S
C4514 H4498 0.931 . S
C4514 C4508 1.383 . S
C4514 C4513 1.379 . S
H4515 C4509 0.959 1_556 S
H4516 C4509 0.961 . S
H4517 C4509 0.960 . S
H4518 C4510 0.930 . S
H4519 C4511 0.929 . S
H4520 C4528 0.929 . S
H4521 C4530 0.930 . S
H4522 C4532 0.930 . S
H4523 C4535 0.929 . S
H4524 C4538 0.930 . S
H4525 C4540 0.960 . S
H4526 C4540 0.960 . S
H4527 C4540 0.960 . S
C4528 H4520 0.929 . S
C4528 C4529 1.377 . S
C4528 C4530 1.384 . S
C4529 C4528 1.377 . S
C4529 C4535 1.390 . S
C4530 H4521 0.930 . S
C4530 C4528 1.384 . S
C4530 C4531 1.372 . S
C4531 C4530 1.372 . S
C4531 C4532 1.400 . S
C4531 C4536 1.490 . S
C4532 H4522 0.930 . S
C4532 C4531 1.400 . S
C4532 C4535 1.386 . S
H4533 C4549 0.930 . S
H4534 C4550 0.931 . S
C4535 H4523 0.929 . S
C4535 C4529 1.390 . S
C4535 C4532 1.386 . S
C4536 C4531 1.490 . S
C4536 C4538 1.395 . S
C4536 C4539 1.403 . S
H4537 C4543 0.930 . S
C4538 H4524 0.930 . S
C4538 C4536 1.395 . S
C4538 C4541 1.403 . S
C4539 C4536 1.403 . S
C4539 C4540 1.524 . S
C4539 C4543 1.400 . S
C4540 H4525 0.960 . S
C4540 H4526 0.960 . S
C4540 H4527 0.960 . S
C4540 C4539 1.524 . S
C4541 C4538 1.403 . S
C4541 C4542 1.392 . S
C4541 C4545 1.495 . S
C4542 C4541 1.392 . S
C4542 C4543 1.385 . S
C4542 C4544 1.478 . S
C4543 H4537 0.930 . S
C4543 C4539 1.400 . S
C4543 C4542 1.385 . S
C4544 C4542 1.478 . S
C4544 C4546 1.381 . S
C4544 C4550 1.383 . S
C4545 C4541 1.495 . S
C4545 H4551 0.959 . S
C4545 H4552 0.961 . S
C4545 H4553 0.960 . S
C4546 C4544 1.381 . S
C4546 C4547 1.394 . S
C4546 H4554 0.930 . S
C4547 C4546 1.394 . S
C4547 C4548 1.383 . S
C4547 H4555 0.929 . S
C4548 C4547 1.383 . S
C4548 C4549 1.377 . S
C4549 H4533 0.930 . S
C4549 C4548 1.377 . S
C4549 C4550 1.379 . S
C4550 H4534 0.931 . S
C4550 C4544 1.383 . S
C4550 C4549 1.379 . S
H4551 C4545 0.959 . S
H4552 C4545 0.961 . S
H4553 C4545 0.960 . S
H4554 C4546 0.930 . S
H4555 C4547 0.929 . S
H4556 C4564 0.929 . S
H4557 C4566 0.930 . S
H4558 C4568 0.930 . S
H4559 C4571 0.929 . S
H4560 C4574 0.930 . S
H4561 C4576 0.960 . S
H4562 C4576 0.960 . S
H4563 C4576 0.960 . S
C4564 H4556 0.929 . S
C4564 C4565 1.377 . S
C4564 C4566 1.384 . S
C4565 C4564 1.377 . S
C4565 C4571 1.390 . S
C4566 H4557 0.930 . S
C4566 C4564 1.384 . S
C4566 C4567 1.372 . S
C4567 C4566 1.372 . S
C4567 C4568 1.400 . S
C4567 C4572 1.490 . S
C4568 H4558 0.930 . S
C4568 C4567 1.400 . S
C4568 C4571 1.386 . S
H4569 C4585 0.930 . S
H4570 C4586 0.931 . S
C4571 H4559 0.929 . S
C4571 C4565 1.390 . S
C4571 C4568 1.386 . S
C4572 C4567 1.490 . S
C4572 C4574 1.395 . S
C4572 C4575 1.403 . S
H4573 C4579 0.930 . S
C4574 H4560 0.930 . S
C4574 C4572 1.395 . S
C4574 C4577 1.403 . S
C4575 C4572 1.403 . S
C4575 C4576 1.524 . S
C4575 C4579 1.400 . S
C4576 H4561 0.960 . S
C4576 H4562 0.960 . S
C4576 H4563 0.960 . S
C4576 C4575 1.524 . S
C4577 C4574 1.403 . S
C4577 C4578 1.392 . S
C4577 C4581 1.495 . S
C4578 C4577 1.392 . S
C4578 C4579 1.385 . S
C4578 C4580 1.478 . S
C4579 H4573 0.930 . S
C4579 C4575 1.400 . S
C4579 C4578 1.385 . S
C4580 C4578 1.478 . S
C4580 C4582 1.381 . S
C4580 C4586 1.383 . S
C4581 C4577 1.495 . S
C4581 H4587 0.959 . S
C4581 H4588 0.961 . S
C4581 H4589 0.960 . S
C4582 C4580 1.381 . S
C4582 C4583 1.394 . S
C4582 H4590 0.930 . S
C4583 C4582 1.394 . S
C4583 C4584 1.383 . S
C4583 H4591 0.929 . S
C4584 C4583 1.383 . S
C4584 C4585 1.377 . S
C4585 H4569 0.930 . S
C4585 C4584 1.377 . S
C4585 C4586 1.379 . S
C4586 H4570 0.931 . S
C4586 C4580 1.383 . S
C4586 C4585 1.379 . S
H4587 C4581 0.959 . S
H4588 C4581 0.961 . S
H4589 C4581 0.960 . S
H4590 C4582 0.930 . S
H4591 C4583 0.929 . S
H4592 C4600 0.929 . S
H4593 C4602 0.930 . S
H4594 C4604 0.930 . S
H4595 C4607 0.929 . S
H4596 C4610 0.930 . S
H4597 C4612 0.960 . S
H4598 C4612 0.960 . S
H4599 C4612 0.960 . S
C4600 H4592 0.929 . S
C4600 C4601 1.377 . S
C4600 C4602 1.384 . S
C4601 C4600 1.377 . S
C4601 C4607 1.390 . S
C4602 H4593 0.930 . S
C4602 C4600 1.384 . S
C4602 C4603 1.372 . S
C4603 C4602 1.372 . S
C4603 C4604 1.400 . S
C4603 C4608 1.490 . S
C4604 H4594 0.930 . S
C4604 C4603 1.400 . S
C4604 C4607 1.386 . S
H4605 C4621 0.930 . S
H4606 C4622 0.931 . S
C4607 H4595 0.929 . S
C4607 C4601 1.390 . S
C4607 C4604 1.386 . S
C4608 C4603 1.490 . S
C4608 C4610 1.395 . S
C4608 C4611 1.403 . S
H4609 C4615 0.930 . S
C4610 H4596 0.930 . S
C4610 C4608 1.395 . S
C4610 C4613 1.403 . S
C4611 C4608 1.403 . S
C4611 C4612 1.524 . S
C4611 C4615 1.400 . S
C4612 H4597 0.960 . S
C4612 H4598 0.960 . S
C4612 H4599 0.960 . S
C4612 C4611 1.524 . S
C4613 C4610 1.403 . S
C4613 C4614 1.392 . S
C4613 C4617 1.495 . S
C4614 C4613 1.392 . S
C4614 C4615 1.385 . S
C4614 C4616 1.478 . S
C4615 H4609 0.930 . S
C4615 C4611 1.400 . S
C4615 C4614 1.385 . S
C4616 C4614 1.478 . S
C4616 C4618 1.381 . S
C4616 C4622 1.383 . S
C4617 C4613 1.495 . S
C4617 H4623 0.959 . S
C4617 H4624 0.961 . S
C4617 H4625 0.960 . S
C4618 C4616 1.381 . S
C4618 C4619 1.394 . S
C4618 H4626 0.930 . S
C4619 C4618 1.394 . S
C4619 C4620 1.383 . S
C4619 H4627 0.929 . S
C4620 C4619 1.383 . S
C4620 C4621 1.377 . S
C4621 H4605 0.930 . S
C4621 C4620 1.377 . S
C4621 C4622 1.379 . S
C4622 H4606 0.931 . S
C4622 C4616 1.383 . S
C4622 C4621 1.379 . S
H4623 C4617 0.959 . S
H4624 C4617 0.961 . S
H4625 C4617 0.960 . S
H4626 C4618 0.930 . S
H4627 C4619 0.929 . S
H4628 C4636 0.929 . S
H4629 C4638 0.930 . S
H4630 C4640 0.930 . S
H4631 C4643 0.929 . S
H4632 C4646 0.930 . S
H4633 C4648 0.960 . S
H4634 C4648 0.960 . S
H4635 C4648 0.960 . S
C4636 H4628 0.929 . S
C4636 C4637 1.377 . S
C4636 C4638 1.384 . S
C4637 C4636 1.377 . S
C4637 C4643 1.390 . S
C4638 H4629 0.930 . S
C4638 C4636 1.384 . S
C4638 C4639 1.372 . S
C4639 C4638 1.372 . S
C4639 C4640 1.400 . S
C4639 C4644 1.490 . S
C4640 H4630 0.930 . S
C4640 C4639 1.400 . S
C4640 C4643 1.386 . S
H4641 C4657 0.930 . S
H4642 C4658 0.931 . S
C4643 H4631 0.929 . S
C4643 C4637 1.390 . S
C4643 C4640 1.386 . S
C4644 C4639 1.490 . S
C4644 C4646 1.395 . S
C4644 C4647 1.403 . S
H4645 C4651 0.930 . S
C4646 H4632 0.930 . S
C4646 C4644 1.395 . S
C4646 C4649 1.403 1_556 S
C4647 C4644 1.403 . S
C4647 C4648 1.524 . S
C4647 C4651 1.400 1_556 S
C4648 H4633 0.960 . S
C4648 H4634 0.960 . S
C4648 H4635 0.960 . S
C4648 C4647 1.524 . S
C4649 C4646 1.403 1_554 S
C4649 C4650 1.392 . S
C4649 C4653 1.495 . S
C4650 C4649 1.392 . S
C4650 C4651 1.385 . S
C4650 C4652 1.478 . S
C4651 H4645 0.930 . S
C4651 C4647 1.400 1_554 S
C4651 C4650 1.385 . S
C4652 C4650 1.478 . S
C4652 C4654 1.381 . S
C4652 C4658 1.383 . S
C4653 C4649 1.495 . S
C4653 H4659 0.959 . S
C4653 H4660 0.961 . S
C4653 H4661 0.960 . S
C4654 C4652 1.381 . S
C4654 C4655 1.394 . S
C4654 H4662 0.930 . S
C4655 C4654 1.394 . S
C4655 C4656 1.383 . S
C4655 H4663 0.929 . S
C4656 C4655 1.383 . S
C4656 C4657 1.377 . S
C4657 H4641 0.930 . S
C4657 C4656 1.377 . S
C4657 C4658 1.379 . S
C4658 H4642 0.931 . S
C4658 C4652 1.383 . S
C4658 C4657 1.379 . S
H4659 C4653 0.959 . S
H4660 C4653 0.961 . S
H4661 C4653 0.960 . S
H4662 C4654 0.930 . S
H4663 C4655 0.929 . S
H4664 C4672 0.929 . S
H4665 C4674 0.930 . S
H4666 C4676 0.930 . S
H4667 C4679 0.929 . S
H4668 C4682 0.930 . S
H4669 C4684 0.960 . S
H4670 C4684 0.960 . S
H4671 C4684 0.960 . S
C4672 H4664 0.929 . S
C4672 C4673 1.377 . S
C4672 C4674 1.384 . S
C4673 C4672 1.377 . S
C4673 C4679 1.390 . S
C4674 H4665 0.930 . S
C4674 C4672 1.384 . S
C4674 C4675 1.372 . S
C4675 C4674 1.372 . S
C4675 C4676 1.400 . S
C4675 C4680 1.490 . S
C4676 H4666 0.930 . S
C4676 C4675 1.400 . S
C4676 C4679 1.386 . S
H4677 C4693 0.930 . S
H4678 C4694 0.931 . S
C4679 H4667 0.929 . S
C4679 C4673 1.390 . S
C4679 C4676 1.386 . S
C4680 C4675 1.490 . S
C4680 C4682 1.395 . S
C4680 C4683 1.403 . S
H4681 C4687 0.930 . S
C4682 H4668 0.930 . S
C4682 C4680 1.395 . S
C4682 C4685 1.403 . S
C4683 C4680 1.403 . S
C4683 C4684 1.524 . S
C4683 C4687 1.400 . S
C4684 H4669 0.960 . S
C4684 H4670 0.960 . S
C4684 H4671 0.960 . S
C4684 C4683 1.524 . S
C4685 C4682 1.403 . S
C4685 C4686 1.392 . S
C4685 C4689 1.495 . S
C4686 C4685 1.392 . S
C4686 C4687 1.385 . S
C4686 C4688 1.478 . S
C4687 H4681 0.930 . S
C4687 C4683 1.400 . S
C4687 C4686 1.385 . S
C4688 C4686 1.478 . S
C4688 C4690 1.381 . S
C4688 C4694 1.383 . S
C4689 C4685 1.495 . S
C4689 H4695 0.959 . S
C4689 H4696 0.961 . S
C4689 H4697 0.960 . S
C4690 C4688 1.381 . S
C4690 C4691 1.394 . S
C4690 H4698 0.930 . S
C4691 C4690 1.394 . S
C4691 C4692 1.383 . S
C4691 H4699 0.929 . S
C4692 C4691 1.383 . S
C4692 C4693 1.377 . S
C4693 H4677 0.930 . S
C4693 C4692 1.377 . S
C4693 C4694 1.379 . S
C4694 H4678 0.931 . S
C4694 C4688 1.383 . S
C4694 C4693 1.379 . S
H4695 C4689 0.959 . S
H4696 C4689 0.961 . S
H4697 C4689 0.960 . S
H4698 C4690 0.930 . S
H4699 C4691 0.929 . S
H4700 C4708 0.929 . S
H4701 C4710 0.930 . S
H4702 C4712 0.930 . S
H4703 C4715 0.929 . S
H4704 C4718 0.930 . S
H4705 C4720 0.960 . S
H4706 C4720 0.960 . S
H4707 C4720 0.960 . S
C4708 H4700 0.929 . S
C4708 C4709 1.377 . S
C4708 C4710 1.384 . S
C4709 C4708 1.377 . S
C4709 C4715 1.390 . S
C4710 H4701 0.930 . S
C4710 C4708 1.384 . S
C4710 C4711 1.372 . S
C4711 C4710 1.372 . S
C4711 C4712 1.400 . S
C4711 C4716 1.490 . S
C4712 H4702 0.930 . S
C4712 C4711 1.400 . S
C4712 C4715 1.386 . S
H4713 C4729 0.930 . S
H4714 C4730 0.931 . S
C4715 H4703 0.929 . S
C4715 C4709 1.390 . S
C4715 C4712 1.386 . S
C4716 C4711 1.490 . S
C4716 C4718 1.395 . S
C4716 C4719 1.403 . S
H4717 C4723 0.930 . S
C4718 H4704 0.930 . S
C4718 C4716 1.395 . S
C4718 C4721 1.403 . S
C4719 C4716 1.403 . S
C4719 C4720 1.524 . S
C4719 C4723 1.400 . S
C4720 H4705 0.960 . S
C4720 H4706 0.960 . S
C4720 H4707 0.960 . S
C4720 C4719 1.524 . S
C4721 C4718 1.403 . S
C4721 C4722 1.392 . S
C4721 C4725 1.495 . S
C4722 C4721 1.392 . S
C4722 C4723 1.385 . S
C4722 C4724 1.478 . S
C4723 H4717 0.930 . S
C4723 C4719 1.400 . S
C4723 C4722 1.385 . S
C4724 C4722 1.478 . S
C4724 C4726 1.381 . S
C4724 C4730 1.383 . S
C4725 C4721 1.495 . S
C4725 H4731 0.959 . S
C4725 H4732 0.961 . S
C4725 H4733 0.960 . S
C4726 C4724 1.381 . S
C4726 C4727 1.394 . S
C4726 H4734 0.930 . S
C4727 C4726 1.394 . S
C4727 C4728 1.383 . S
C4727 H4735 0.929 . S
C4728 C4727 1.383 . S
C4728 C4729 1.377 . S
C4729 H4713 0.930 . S
C4729 C4728 1.377 . S
C4729 C4730 1.379 . S
C4730 H4714 0.931 . S
C4730 C4724 1.383 . S
C4730 C4729 1.379 . S
H4731 C4725 0.959 . S
H4732 C4725 0.961 . S
H4733 C4725 0.960 . S
H4734 C4726 0.930 . S
H4735 C4727 0.929 . S
C1289 C10 0.832 . S
C1308 C1095 0.789 . S
C1325 C50 0.824 . S
C1344 C335 0.772 . S
C1361 C90 0.837 . S
C1380 C1015 0.744 . S
C1397 C415 0.742 . S
C1416 C130 0.799 . S
C1433 C170 0.839 . S
C1452 C1175 0.783 . S
C1469 C575 0.738 . S
C1488 C210 0.842 . S
C1505 C1255 0.743 . S
C1524 C250 0.799 . S
C1541 C290 0.840 . S
C1560 C495 0.769 . S
C1577 C339 0.825 . S
C1596 C766 0.763 . S
C1613 C379 0.822 . S
C1632 C6 0.750 . S
C1649 C686 0.738 . S
C1668 C419 0.807 . S
C1685 C86 0.742 . S
C1704 C459 0.864 . S
C1721 C499 0.829 . S
C1740 C846 0.727 . S
C1757 C539 0.821 . S
C1776 C246 0.736 . S
C1793 C579 0.840 . S
C1812 C926 0.773 . S
C1829 C166 0.743 . S
C1848 C619 0.803 . S
C1865 C455 0.744 . S
C1884 C650 0.800 . S
C1901 C975 0.748 . S
C1920 C690 0.814 . S
C1937 C375 0.746 . S
C1956 C730 0.805 . S
C1973 C770 0.827 . S
C1992 C1055 0.780 . S
C2009 C535 0.739 . S
C2028 C810 0.811 . S
C2045 C1215 0.745 . S
C2064 C850 0.801 . S
C2081 C615 0.740 . S
C2100 C890 0.859 . S
C2117 C930 0.834 . S
C2136 C1135 0.789 . S
C2153 C979 0.834 . S
C2172 C126 0.788 . S
C2189 C1019 0.825 . S
C2208 C646 0.767 . S
C2225 C1059 0.840 . S
C2244 C46 0.780 . S
C2261 C1099 0.836 . S
C2280 C726 0.789 . S
C2297 C206 0.748 . S
C2316 C1139 0.823 . S
C2333 C886 0.751 . S
C2352 C1179 0.849 . S
C2369 C1219 0.822 . S
C2388 C286 0.744 . S
C2405 C1259 0.838 . S
C2424 C806 0.787 . S
C2441 C18 1.321 . S
C2460 C738 1.305 . S
C2477 C778 1.310 . S
C2496 C58 1.294 . S
C2513 C98 1.320 . S
C2532 C658 1.343 . S
C2549 C138 1.321 . S
C2568 C698 1.339 . S
C2585 C898 1.313 . S
C2604 C178 1.282 . S
C2621 C218 1.310 . S
C2640 C938 1.286 . S
C2657 C818 1.319 . S
C2676 C258 1.343 . S
C2693 C298 1.316 . S
C2712 C858 1.341 . S
C2729 C1049 1.320 . S
C2748 C329 1.343 . S
C2765 C369 1.322 . S
C2784 C1089 1.335 . S
C2801 C409 1.319 . S
C2820 C969 1.343 . S
C2837 C449 1.313 . S
C2856 C1009 1.283 . S
C2873 C1209 1.317 . S
C2892 C489 1.340 . S
C2909 C1249 1.316 . S
C2928 C529 1.289 . S
C2945 C569 1.314 . S
C2964 C1129 1.284 . S
C2981 C609 1.318 . S
C3000 C1169 1.343 . S
C3017 C15 1.450 . S
C3036 C966 1.424 . S
C3053 C366 1.436 . S
C3072 C55 1.415 . S
C3089 C95 1.437 . S
C3108 C1046 1.440 . S
C3125 C135 1.451 . S
C3144 C446 1.482 . S
C3161 C1126 1.440 . S
C3180 C175 1.463 . S
C3197 C526 1.448 . S
C3216 C215 1.484 . S
C3233 C255 1.450 . S
C3252 C1206 1.483 . S
C3269 C295 1.446 . S
C3288 C606 1.409 . S
C3305 C655 1.450 . S
C3324 C326 1.424 . S
C3341 C735 1.453 . S
C3360 C406 1.459 . S
C3377 C815 1.447 . S
C3396 C486 1.413 . S
C3413 C566 1.436 . S
C3432 C895 1.425 . S
C3449 C695 1.436 . S
C3468 C1006 1.417 . S
C3485 C775 1.437 . S
C3504 C1086 1.409 . S
C3521 C1166 1.448 . S
C3540 C855 1.483 . S
C3557 C1246 1.441 . S
C3576 C935 1.399 . S
C3593 C9 4.555 . S
C3612 C209 4.545 . S
C3629 C249 4.553 . S
C3648 C49 4.538 . S
C3665 C289 4.553 . S
C3684 C89 4.537 . S
C3701 C169 4.557 . S
C3720 C129 4.554 . S
C3737 C338 4.556 . S
C3756 C538 4.557 . S
C3773 C378 4.553 . S
C3792 C578 4.560 . S
C3809 C618 4.557 . S
C3828 C418 4.554 . S
C3845 C458 4.554 . S
C3864 C498 4.548 . S
C3881 C649 4.555 . S
C3900 C849 4.553 . S
C3917 C689 4.557 . S
C3936 C889 4.558 . S
C3953 C729 4.553 . S
C3972 C929 4.537 . S
C3989 C809 4.553 . S
C4008 C769 4.537 . S
C4025 C978 4.553 . S
C4044 C1178 4.550 . S
C4061 C1018 4.554 . S
C4080 C1218 4.548 . S
C4097 C1258 4.557 . S
C4116 C1058 4.537 . S
C4133 C1098 4.558 . S
C4152 C1138 4.542 . S
C4169 C19 4.105 . S
C4188 C179 4.104 . S
C4205 C59 4.107 . S
C4224 C219 4.098 . S
C4241 C259 4.105 . S
C4260 C99 4.104 . S
C4277 C299 4.106 . S
C4296 C139 4.100 . S
C4313 C330 4.106 . S
C4332 C490 4.103 . S
C4349 C530 4.107 . S
C4368 C370 4.105 . S
C4385 C570 4.105 . S
C4404 C410 4.097 . S
C4421 C610 4.105 . S
C4440 C450 4.101 . S
C4457 C659 4.106 . S
C4476 C819 4.097 . S
C4493 C859 4.106 . S
C4512 C699 4.103 . S
C4529 C739 4.106 . S
C4548 C899 4.100 . S
C4565 C939 4.107 . S
C4584 C779 4.097 . S
C4601 C1130 4.106 . S
C4620 C970 4.101 . S
C4637 C1010 4.107 . S
C4656 C1170 4.097 . S
C4673 C1050 4.106 . S
C4692 C1210 4.098 . S
C4709 C1090 4.107 . S
C4728 C1250 4.100 . S
