# Generated by pormake.
# Topology wjf, (4)-cn, num edge types: 1
# Building blocks:
#     Node 0, Type 0, BuildingBlock: ICAMEG_clean_sbu_1, # of connection points: 4
#     Node 1, Type 0, BuildingBlock: ICAMEG_clean_sbu_1, # of connection points: 4
#     Node 2, Type 0, BuildingBlock: ICAMEG_clean_sbu_1, # of connection points: 4
#     Node 3, Type 0, BuildingBlock: ICAMEG_clean_sbu_1, # of connection points: 4
#     Node 4, Type 0, BuildingBlock: ICAMEG_clean_sbu_1, # of connection points: 4
#     Node 5, Type 0, BuildingBlock: ICAMEG_clean_sbu_1, # of connection points: 4
#     Node 6, Type 0, BuildingBlock: ICAMEG_clean_sbu_1, # of connection points: 4
#     Node 7, Type 0, BuildingBlock: ICAMEG_clean_sbu_1, # of connection points: 4
#     Node 8, Type 0, BuildingBlock: ICAMEG_clean_sbu_1, # of connection points: 4
#     Node 9, Type 0, BuildingBlock: ICAMEG_clean_sbu_1, # of connection points: 4
#     Node 10, Type 0, BuildingBlock: ICAMEG_clean_sbu_1, # of connection points: 4
#     Node 11, Type 0, BuildingBlock: ICAMEG_clean_sbu_1, # of connection points: 4
#     Edge 12, Type (0, 0), BuildingBlock: ZUJKAS_clean_linker_0, # of connection points: 2
#     Edge 13, Type (0, 0), BuildingBlock: ZUJKAS_clean_linker_0, # of connection points: 2
#     Edge 14, Type (0, 0), BuildingBlock: ZUJKAS_clean_linker_0, # of connection points: 2
#     Edge 15, Type (0, 0), BuildingBlock: ZUJKAS_clean_linker_0, # of connection points: 2
#     Edge 16, Type (0, 0), BuildingBlock: ZUJKAS_clean_linker_0, # of connection points: 2
#     Edge 17, Type (0, 0), BuildingBlock: ZUJKAS_clean_linker_0, # of connection points: 2
#     Edge 18, Type (0, 0), BuildingBlock: ZUJKAS_clean_linker_0, # of connection points: 2
#     Edge 19, Type (0, 0), BuildingBlock: ZUJKAS_clean_linker_0, # of connection points: 2
#     Edge 20, Type (0, 0), BuildingBlock: ZUJKAS_clean_linker_0, # of connection points: 2
#     Edge 21, Type (0, 0), BuildingBlock: ZUJKAS_clean_linker_0, # of connection points: 2
#     Edge 22, Type (0, 0), BuildingBlock: ZUJKAS_clean_linker_0, # of connection points: 2
#     Edge 23, Type (0, 0), BuildingBlock: ZUJKAS_clean_linker_0, # of connection points: 2
#     Edge 24, Type (0, 0), BuildingBlock: ZUJKAS_clean_linker_0, # of connection points: 2
#     Edge 25, Type (0, 0), BuildingBlock: ZUJKAS_clean_linker_0, # of connection points: 2
#     Edge 26, Type (0, 0), BuildingBlock: ZUJKAS_clean_linker_0, # of connection points: 2
#     Edge 27, Type (0, 0), BuildingBlock: ZUJKAS_clean_linker_0, # of connection points: 2
#     Edge 28, Type (0, 0), BuildingBlock: ZUJKAS_clean_linker_0, # of connection points: 2
#     Edge 29, Type (0, 0), BuildingBlock: ZUJKAS_clean_linker_0, # of connection points: 2
#     Edge 30, Type (0, 0), BuildingBlock: ZUJKAS_clean_linker_0, # of connection points: 2
#     Edge 31, Type (0, 0), BuildingBlock: ZUJKAS_clean_linker_0, # of connection points: 2
#     Edge 32, Type (0, 0), BuildingBlock: ZUJKAS_clean_linker_0, # of connection points: 2
#     Edge 33, Type (0, 0), BuildingBlock: ZUJKAS_clean_linker_0, # of connection points: 2
#     Edge 34, Type (0, 0), BuildingBlock: ZUJKAS_clean_linker_0, # of connection points: 2
#     Edge 35, Type (0, 0), BuildingBlock: ZUJKAS_clean_linker_0, # of connection points: 2
# Relax obj value: 0.058
# Max RMSD: 0.075
# Mean RMSD: 0.075
data_MOF--net-wjf--node1-ICAMEG_clean_sbu_1--edge1-ZUJKAS_clean_linker_0
_symmetry_space_group_name_H-M    P1
_symmetry_Int_Tables_number       1
_symmetry_cell_setting            triclinic
loop_
_symmetry_equiv_pos_as_xyz
'x, y, z'
_cell_length_a     69.747772
_cell_length_b     69.722787
_cell_length_c     38.580879
_cell_angle_alpha  89.993116
_cell_angle_beta   90.001759
_cell_angle_gamma 119.99964
loop_
_atom_site_label
_atom_site_type_symbol
_atom_site_fract_x
_atom_site_fract_y
_atom_site_fract_z
_atom_type_partial_charge
Co0 Co 0.34587 0.37183 0.0797 0.0
Co1 Co 0.33786 0.41428 0.05108 0.0
O2 O 0.33062 0.38888 0.08096 0.0
C3 C 0.35127 0.38675 0.15225 0.0
O4 O 0.35614 0.40635 0.14052 0.0
C5 C 0.29056 0.38361 0.03623 0.0
O6 O 0.29562 0.36799 0.03184 0.0
O7 O 0.3381 0.39789 0.00895 0.0
O8 O 0.34651 0.37258 0.02819 0.0
H9 H 0.37912 0.46943 0.95673 0.0
H10 H 0.30442 0.35521 0.11997 0.0
O11 O 0.34585 0.37072 0.13135 0.0
H12 H 0.28885 0.29733 0.03309 0.0
H13 H 0.36015 0.31112 0.11838 0.0
H14 H 0.38327 0.37449 0.03924 0.0
H15 H 0.32566 0.33095 0.03611 0.0
H16 H 0.34091 0.33271 0.11883 0.0
O17 O 0.30555 0.40318 0.04424 0.0
H18 H 0.37027 0.43763 -0.00521 0.0
H19 H 0.31953 0.44459 0.04366 0.0
H20 H 0.40283 0.35322 0.03768 0.0
H21 H 0.26741 0.32176 0.11808 0.0
H22 H 0.39129 0.32129 0.07748 0.0
H23 H 0.25943 0.29256 0.07432 0.0
O24 O 0.37535 0.39935 0.08128 0.0
H25 H 0.30696 0.42414 0.16301 0.0
H26 H 0.36888 0.45899 0.07998 0.0
H27 H 0.36952 0.47935 0.13265 0.0
H28 H 0.33839 0.46193 0.17457 0.0
H29 H 0.30708 0.40429 0.11016 0.0
H30 H 0.3277 0.47637 0.00594 0.0
H31 H 0.35775 0.48903 0.96219 0.0
O32 O 0.37022 0.42586 0.0573 0.0
C33 C 0.34281 0.38264 0.00384 0.0
C34 C 0.36605 0.46413 0.97579 0.0
C35 C 0.33717 0.468 0.00338 0.0
N36 N 0.34457 0.43942 0.02165 0.0
C37 C 0.36102 0.44619 -0.00251 0.0
C38 C 0.33259 0.44998 0.02463 0.0
C39 C 0.35403 0.4751 0.97884 0.0
C40 C 0.30111 0.34249 0.10105 0.0
N41 N 0.31719 0.34499 0.07825 0.0
C42 C 0.28011 0.32362 0.10002 0.0
C43 C 0.27563 0.30726 0.07544 0.0
C44 C 0.29213 0.30994 0.05228 0.0
C45 C 0.31293 0.32904 0.05404 0.0
C46 C 0.36531 0.32497 0.10088 0.0
C47 C 0.37807 0.36053 0.05648 0.0
C48 C 0.35452 0.33729 0.10107 0.0
N49 N 0.36088 0.35474 0.07892 0.0
C50 C 0.38925 0.34859 0.05555 0.0
C51 C 0.38277 0.33069 0.07791 0.0
C52 C 0.38256 0.41903 0.07023 0.0
C53 C 0.32059 0.43193 0.14489 0.0
C54 C 0.35529 0.45127 0.09814 0.0
C55 C 0.35573 0.4629 0.12788 0.0
C56 C 0.33825 0.45312 0.15139 0.0
N57 N 0.3379 0.43051 0.09193 0.0
C58 C 0.32071 0.42081 0.11486 0.0
Co59 Co 0.9757 0.34563 0.40971 0.0
Co60 Co 0.92463 0.33849 0.38649 0.0
O61 O 0.94349 0.33079 0.41369 0.0
C62 C 0.96863 0.35137 0.48326 0.0
O63 O 0.95354 0.35617 0.47312 0.0
C64 C 0.90744 0.29134 0.36987 0.0
O65 O 0.92804 0.29637 0.36477 0.0
O66 O 0.93992 0.33909 0.3426 0.0
O67 O 0.97381 0.34605 0.35833 0.0
H68 H 0.90844 0.38106 0.29738 0.0
H69 H 0.95178 0.30442 0.45087 0.0
O70 O 0.97854 0.34583 0.46118 0.0
H71 H 0.99027 0.28757 0.35896 0.0
H72 H 0.05143 0.35887 0.44112 0.0
H73 H 0.00936 0.38255 0.36716 0.0
H74 H 0.99424 0.32468 0.36318 0.0
H75 H 0.01072 0.3402 0.44505 0.0
O76 O 0.90306 0.30627 0.37918 0.0
H77 H 0.93229 0.37157 0.33197 0.0
H78 H 0.87588 0.32053 0.38311 0.0
H79 H 0.05005 0.40155 0.36214 0.0
H80 H 0.94749 0.26712 0.44782 0.0
H81 H 0.07136 0.38973 0.39932 0.0
H82 H 0.96677 0.25849 0.40152 0.0
O83 O 0.97827 0.37536 0.41231 0.0
H84 H 0.887 0.3064 0.50015 0.0
H85 H 0.91215 0.36938 0.41956 0.0
H86 H 0.89408 0.36954 0.47443 0.0
H87 H 0.88134 0.33787 0.51514 0.0
H88 H 0.90533 0.30702 0.44514 0.0
H89 H 0.85139 0.32933 0.34887 0.0
H90 H 0.86767 0.35986 0.30574 0.0
O91 O 0.94577 0.37076 0.39306 0.0
C92 C 0.95942 0.34305 0.33544 0.0
C93 C 0.90116 0.36779 0.3162 0.0
C94 C 0.86913 0.33873 0.34506 0.0
N95 N 0.90551 0.34569 0.35979 0.0
C96 C 0.91458 0.3624 0.33595 0.0
C97 C 0.88308 0.3338 0.36433 0.0
C98 C 0.87828 0.35586 0.32087 0.0
C99 C 0.96036 0.30083 0.43085 0.0
N100 N 0.97329 0.31671 0.4073 0.0
C101 C 0.95781 0.27966 0.42917 0.0
C102 C 0.96861 0.27482 0.40316 0.0
C103 C 0.98178 0.29113 0.37925 0.0
C104 C 0.98392 0.31209 0.3817 0.0
C105 C 0.04233 0.36415 0.42474 0.0
C106 C 0.01852 0.37723 0.38327 0.0
C107 C 0.01929 0.35367 0.42691 0.0
N108 N 0.00768 0.36019 0.40618 0.0
C109 C 0.04156 0.38809 0.38038 0.0
C110 C 0.0535 0.38146 0.40127 0.0
C111 C 0.96557 0.38286 0.40387 0.0
C112 C 0.89243 0.32027 0.48258 0.0
C113 C 0.9067 0.35557 0.43718 0.0
C114 C 0.89644 0.35573 0.46818 0.0
C115 C 0.88928 0.33794 0.491 0.0
N116 N 0.90969 0.33815 0.42909 0.0
C117 C 0.90273 0.32066 0.45133 0.0
Co118 Co 0.62698 0.97411 0.74541 0.0
Co119 Co 0.5853 0.92393 0.71458 0.0
O120 O 0.61041 0.94177 0.7451 0.0
C121 C 0.61201 0.96291 0.81776 0.0
O122 O 0.59246 0.94833 0.80567 0.0
C123 C 0.61657 0.90823 0.6985 0.0
O124 O 0.63196 0.92908 0.69491 0.0
O125 O 0.60182 0.94148 0.67317 0.0
O126 O 0.62631 0.97505 0.69394 0.0
H127 H 0.53061 0.911 0.61997 0.0
H128 H 0.64421 0.94906 0.78364 0.0
O129 O 0.62799 0.97412 0.79707 0.0
H130 H 0.70188 0.99381 0.69786 0.0
H131 H 0.68669 0.04872 0.78725 0.0
H132 H 0.62363 0.00926 0.70732 0.0
H133 H 0.66787 0.99623 0.70201 0.0
H134 H 0.66573 0.00788 0.78563 0.0
O135 O 0.59688 0.9032 0.70659 0.0
H136 H 0.56204 0.93358 0.65887 0.0
H137 H 0.55556 0.87534 0.7051 0.0
H138 H 0.64426 0.05011 0.70786 0.0
H139 H 0.67806 0.94626 0.78059 0.0
H140 H 0.67603 0.07011 0.74806 0.0
H141 H 0.70715 0.9687 0.73738 0.0
O142 O 0.59915 0.97546 0.74778 0.0
H143 H 0.5753 0.88126 0.82451 0.0
H144 H 0.54029 0.90913 0.74321 0.0
H145 H 0.51976 0.88827 0.79505 0.0
H146 H 0.53727 0.87415 0.8361 0.0
H147 H 0.59532 0.90236 0.77251 0.0
H148 H 0.52417 0.85212 0.66651 0.0
H149 H 0.51145 0.86996 0.62366 0.0
O150 O 0.57326 0.94427 0.72188 0.0
C151 C 0.61668 0.96169 0.66896 0.0
C152 C 0.53593 0.90303 0.63863 0.0
C153 C 0.53234 0.86999 0.66473 0.0
N154 N 0.56045 0.90579 0.68448 0.0
C155 C 0.55366 0.91573 0.66081 0.0
C156 C 0.55014 0.88322 0.68647 0.0
C157 C 0.52521 0.88001 0.64069 0.0
C158 C 0.65689 0.95901 0.76498 0.0
N159 N 0.65411 0.97285 0.74312 0.0
C160 C 0.67598 0.9573 0.76328 0.0
C161 C 0.69228 0.96987 0.739 0.0
C162 C 0.68933 0.98396 0.7168 0.0
C163 C 0.67001 0.98522 0.71921 0.0
C164 C 0.6729 0.0402 0.76958 0.0
C165 C 0.63753 0.01785 0.72473 0.0
C166 C 0.66094 0.01708 0.7686 0.0
N167 N 0.64358 0.00621 0.74623 0.0
C168 C 0.6491 0.04098 0.72499 0.0
C169 C 0.66692 0.05219 0.74757 0.0
C170 C 0.57967 0.96306 0.73597 0.0
C171 C 0.56748 0.88727 0.80677 0.0
C172 C 0.54805 0.90309 0.761 0.0
C173 C 0.53632 0.89125 0.79027 0.0
C174 C 0.54615 0.88332 0.81328 0.0
N175 N 0.56895 0.90687 0.75476 0.0
C176 C 0.5787 0.89915 0.77721 0.0
Co177 Co 0.65145 0.62564 0.07811 0.0
Co178 Co 0.65947 0.58356 0.04773 0.0
O179 O 0.66693 0.60878 0.07812 0.0
C180 C 0.64743 0.61079 0.15056 0.0
O181 O 0.64226 0.59115 0.13862 0.0
C182 C 0.70662 0.61442 0.03219 0.0
O183 O 0.70148 0.63005 0.02872 0.0
O184 O 0.65887 0.6002 0.00621 0.0
O185 O 0.64995 0.62489 0.02662 0.0
H186 H 0.6175 0.52896 0.95312 0.0
H187 H 0.69361 0.64261 0.11655 0.0
O188 O 0.65239 0.62676 0.12975 0.0
H189 H 0.70724 0.70026 0.03026 0.0
H190 H 0.63725 0.68595 0.11921 0.0
H191 H 0.61322 0.62262 0.03969 0.0
H192 H 0.67064 0.66646 0.03444 0.0
H193 H 0.65677 0.66464 0.11798 0.0
O194 O 0.69174 0.59478 0.04002 0.0
H195 H 0.62662 0.56052 0.99188 0.0
H196 H 0.67781 0.55336 0.03866 0.0
H197 H 0.59335 0.6436 0.03983 0.0
H198 H 0.73044 0.67625 0.11348 0.0
H199 H 0.60535 0.67551 0.07982 0.0
H200 H 0.73745 0.70533 0.07002 0.0
O201 O 0.62214 0.59797 0.08054 0.0
H202 H 0.69139 0.57315 0.15817 0.0
H203 H 0.62878 0.53865 0.07633 0.0
H204 H 0.62863 0.51802 0.12835 0.0
H205 H 0.66012 0.53526 0.16967 0.0
H206 H 0.69077 0.59328 0.10598 0.0
H207 H 0.66938 0.52183 0.00021 0.0
H208 H 0.63897 0.50938 0.95716 0.0
O209 O 0.62715 0.57186 0.05479 0.0
C210 C 0.65374 0.61521 0.00179 0.0
C211 C 0.63073 0.53416 0.97187 0.0
C212 C 0.65987 0.53018 -0.00173 0.0
N213 N 0.65256 0.55861 0.01774 0.0
C214 C 0.63591 0.55197 0.99397 0.0
C215 C 0.66459 0.54806 0.01993 0.0
C216 C 0.6428 0.5232 0.97412 0.0
C217 C 0.6965 0.65528 0.09778 0.0
N218 N 0.67998 0.65261 0.07579 0.0
C219 C 0.7174 0.67425 0.09607 0.0
C220 C 0.72133 0.69055 0.07165 0.0
C221 C 0.70439 0.68771 0.04932 0.0
C222 C 0.68371 0.66851 0.05174 0.0
C223 C 0.63189 0.6721 0.10163 0.0
C224 C 0.61861 0.63657 0.05702 0.0
C225 C 0.64284 0.65994 0.10088 0.0
N226 N 0.63622 0.6425 0.07862 0.0
C227 C 0.60726 0.64835 0.05705 0.0
C228 C 0.61399 0.66624 0.07951 0.0
C229 C 0.61489 0.57843 0.06883 0.0
C230 C 0.6776 0.56543 0.1403 0.0
C231 C 0.64251 0.5463 0.09423 0.0
C232 C 0.64236 0.53451 0.12361 0.0
C233 C 0.66004 0.54419 0.14677 0.0
N234 N 0.65982 0.56712 0.08805 0.0
C235 C 0.67721 0.57672 0.11064 0.0
Co236 Co 0.02836 0.65068 0.41108 0.0
Co237 Co 0.07958 0.66095 0.383 0.0
O238 O 0.06066 0.66769 0.41183 0.0
C239 C 0.03905 0.6496 0.48457 0.0
O240 O 0.05416 0.6449 0.47424 0.0
C241 C 0.09429 0.70756 0.36574 0.0
O242 O 0.07337 0.70144 0.36083 0.0
O243 O 0.06263 0.65933 0.34055 0.0
O244 O 0.02814 0.64761 0.3598 0.0
H245 H 0.09585 0.61988 0.29132 0.0
H246 H 0.05112 0.69415 0.4466 0.0
O247 O 0.02762 0.65315 0.46249 0.0
H248 H 0.00597 0.70181 0.35518 0.0
H249 H 0.95212 0.63339 0.44803 0.0
H250 H 0.99488 0.6102 0.37476 0.0
H251 H 0.00542 0.66646 0.36339 0.0
H252 H 0.99294 0.65487 0.44759 0.0
O253 O 0.09975 0.69339 0.37498 0.0
H254 H 0.07191 0.62804 0.32821 0.0
H255 H 0.12847 0.68103 0.37597 0.0
H256 H 0.95407 0.58834 0.37416 0.0
H257 H 0.05203 0.72976 0.43947 0.0
H258 H 0.93242 0.59991 0.411 0.0
H259 H 0.02938 0.73377 0.39342 0.0
O260 O 0.02854 0.62242 0.41668 0.0
H261 H 0.11974 0.69489 0.49427 0.0
H262 H 0.09503 0.63182 0.414 0.0
H263 H 0.11518 0.63301 0.46722 0.0
H264 H 0.12771 0.66473 0.50776 0.0
H265 H 0.09936 0.69294 0.44091 0.0
H266 H 0.15304 0.67358 0.3394 0.0
H267 H 0.13673 0.64275 0.29681 0.0
O268 O 0.05984 0.62841 0.39038 0.0
C269 C 0.04213 0.65236 0.33543 0.0
C270 C 0.10315 0.6333 0.30989 0.0
C271 C 0.13525 0.66346 0.33684 0.0
N272 N 0.09879 0.65483 0.35447 0.0
C273 C 0.08968 0.63795 0.33093 0.0
C274 C 0.12126 0.66762 0.35744 0.0
C275 C 0.12609 0.64616 0.31295 0.0
C276 C 0.04107 0.69571 0.42672 0.0
N277 N 0.02815 0.67822 0.40556 0.0
C278 C 0.04171 0.71594 0.42271 0.0
C279 C 0.02903 0.71818 0.39684 0.0
C280 C 0.0159 0.70026 0.37536 0.0
C281 C 0.01569 0.6803 0.38009 0.0
C282 C 0.96137 0.6282 0.43181 0.0
C283 C 0.98556 0.61541 0.39069 0.0
C284 C 0.98448 0.64028 0.4315 0.0
N285 N 0.99626 0.63389 0.41095 0.0
C286 C 0.96246 0.60293 0.39032 0.0
C287 C 0.95033 0.60942 0.41102 0.0
C288 C 0.04136 0.61577 0.40519 0.0
C289 C 0.11442 0.68101 0.47676 0.0
C290 C 0.10037 0.64565 0.43156 0.0
C291 C 0.11182 0.64626 0.46162 0.0
C292 C 0.11886 0.66407 0.48434 0.0
N293 N 0.0961 0.66235 0.42429 0.0
C294 C 0.10296 0.67986 0.44644 0.0
Co295 Co 0.37326 0.0261 0.74428 0.0
Co296 Co 0.41524 0.07619 0.71376 0.0
O297 O 0.39004 0.05843 0.74417 0.0
C298 C 0.38808 0.03701 0.81673 0.0
O299 O 0.4077 0.05149 0.80475 0.0
C300 C 0.38439 0.09247 0.69785 0.0
O301 O 0.36885 0.07171 0.69391 0.0
O302 O 0.39863 0.05889 0.67225 0.0
O303 O 0.37406 0.02527 0.69279 0.0
H304 H 0.46984 0.0889 0.61911 0.0
H305 H 0.35619 0.05128 0.78251 0.0
O306 O 0.37211 0.02596 0.79594 0.0
H307 H 0.29866 0.00706 0.69624 0.0
H308 H 0.31307 0.95157 0.78558 0.0
H309 H 0.37641 0.99087 0.70609 0.0
H310 H 0.33249 0.00434 0.70057 0.0
H311 H 0.33428 0.9924 0.78418 0.0
O312 O 0.40398 0.09723 0.70604 0.0
H313 H 0.4383 0.06642 0.65788 0.0
H314 H 0.44537 0.12475 0.70467 0.0
H315 H 0.35554 0.95001 0.70641 0.0
H316 H 0.32252 0.05439 0.77928 0.0
H317 H 0.32362 0.9301 0.74638 0.0
H318 H 0.29349 0.03221 0.73582 0.0
O319 O 0.40095 0.02451 0.74679 0.0
H320 H 0.42559 0.1186 0.82409 0.0
H321 H 0.46014 0.09047 0.74238 0.0
H322 H 0.48075 0.11102 0.79436 0.0
H323 H 0.46348 0.12527 0.83562 0.0
H324 H 0.40548 0.09779 0.77195 0.0
H325 H 0.47688 0.14788 0.66622 0.0
H326 H 0.48937 0.12995 0.62316 0.0
O327 O 0.42698 0.05559 0.72082 0.0
C328 C 0.38372 0.0387 0.6679 0.0
C329 C 0.46462 0.09691 0.63787 0.0
C330 C 0.46855 0.13001 0.66428 0.0
N331 N 0.44017 0.09426 0.68376 0.0
C332 C 0.44683 0.08427 0.65997 0.0
C333 C 0.45069 0.11684 0.68594 0.0
C334 C 0.47555 0.11994 0.64013 0.0
C335 C 0.34354 0.04145 0.76374 0.0
N336 N 0.34627 0.02759 0.74185 0.0
C337 C 0.32455 0.04333 0.76194 0.0
C338 C 0.30829 0.03091 0.73752 0.0
C339 C 0.31118 0.0168 0.71529 0.0
C340 C 0.3304 0.01537 0.7178 0.0
C341 C 0.32692 0.96005 0.768 0.0
C342 C 0.36246 0.98231 0.72341 0.0
C343 C 0.33902 0.98317 0.76715 0.0
N344 N 0.35647 0.99399 0.7449 0.0
C345 C 0.35074 0.95918 0.72354 0.0
C346 C 0.33285 0.94802 0.74599 0.0
C347 C 0.42045 0.03677 0.73493 0.0
C348 C 0.43331 0.11252 0.80626 0.0
C349 C 0.45248 0.09656 0.76026 0.0
C350 C 0.46426 0.10823 0.78961 0.0
C351 C 0.45456 0.11624 0.81273 0.0
N352 N 0.43166 0.09302 0.75406 0.0
C353 C 0.42204 0.10081 0.77662 0.0
Co354 Co 0.62808 0.65341 0.5801 0.0
Co355 Co 0.58565 0.66337 0.60136 0.0
O356 O 0.61179 0.66926 0.57444 0.0
C357 C 0.61431 0.64582 0.50695 0.0
O358 O 0.59482 0.64214 0.51723 0.0
C359 C 0.61725 0.71051 0.61592 0.0
O360 O 0.63222 0.70476 0.62193 0.0
O361 O 0.60002 0.66284 0.64578 0.0
O362 O 0.62656 0.65501 0.63131 0.0
H363 H 0.52625 0.62436 0.69098 0.0
H364 H 0.64617 0.69317 0.53527 0.0
O365 O 0.62987 0.65122 0.52877 0.0
H366 H 0.70246 0.71113 0.62601 0.0
H367 H 0.68794 0.63576 0.55092 0.0
H368 H 0.62391 0.6175 0.62624 0.0
H369 H 0.66832 0.67466 0.625 0.0
H370 H 0.66722 0.6557 0.54482 0.0
O371 O 0.59771 0.69598 0.60693 0.0
H372 H 0.55909 0.63164 0.65676 0.0
H373 H 0.5568 0.68363 0.60303 0.0
H374 H 0.64429 0.59728 0.63344 0.0
H375 H 0.68017 0.7298 0.5351 0.0
H376 H 0.67655 0.60638 0.5956 0.0
H377 H 0.70856 0.73899 0.58078 0.0
O378 O 0.6002 0.62416 0.58017 0.0
H379 H 0.58184 0.69422 0.4855 0.0
H380 H 0.54171 0.63345 0.56907 0.0
H381 H 0.5239 0.63316 0.5137 0.0
H382 H 0.54399 0.66372 0.47148 0.0
H383 H 0.59911 0.69376 0.54107 0.0
H384 H 0.52404 0.67703 0.63686 0.0
H385 H 0.5085 0.64715 0.68111 0.0
O386 O 0.57312 0.63081 0.59641 0.0
C387 C 0.61542 0.6588 0.65364 0.0
C388 C 0.53282 0.63738 0.6717 0.0
C389 C 0.5316 0.66696 0.64135 0.0
N390 N 0.55973 0.65792 0.62775 0.0
C391 C 0.55137 0.64153 0.65218 0.0
C392 C 0.55018 0.67065 0.62233 0.0
C393 C 0.52288 0.65019 0.66617 0.0
C394 C 0.65854 0.697 0.55506 0.0
N395 N 0.6553 0.68178 0.58005 0.0
C396 C 0.67772 0.71778 0.55491 0.0
C397 C 0.69363 0.72294 0.58057 0.0
C398 C 0.69021 0.70732 0.60597 0.0
C399 C 0.67082 0.68672 0.60533 0.0
C400 C 0.67394 0.63167 0.56761 0.0
C401 C 0.63802 0.62164 0.60982 0.0
C402 C 0.66211 0.64287 0.56422 0.0
N403 N 0.64448 0.63787 0.58532 0.0
C404 C 0.64945 0.61009 0.61395 0.0
C405 C 0.66754 0.61519 0.59269 0.0
C406 C 0.58006 0.61768 0.58781 0.0
C407 C 0.57289 0.68085 0.50373 0.0
C408 C 0.55058 0.64679 0.55081 0.0
C409 C 0.54039 0.64655 0.51952 0.0
C410 C 0.55167 0.66371 0.49586 0.0
N411 N 0.57139 0.66367 0.55835 0.0
C412 C 0.58255 0.68055 0.53529 0.0
Co413 Co 0.9751 0.62961 0.91226 0.0
Co414 Co 0.92399 0.58661 0.9371 0.0
O415 O 0.94283 0.61289 0.90931 0.0
C416 C 0.967 0.61759 0.8385 0.0
O417 O 0.952 0.59762 0.84843 0.0
C418 C 0.90704 0.61682 0.95337 0.0
O419 O 0.92763 0.63231 0.95894 0.0
O420 O 0.93959 0.60174 0.98058 0.0
O421 O 0.97396 0.62675 0.96357 0.0
H422 H 0.90792 0.5287 0.02771 0.0
H423 H 0.95158 0.64835 0.87359 0.0
O424 O 0.97724 0.63279 0.86082 0.0
H425 H 0.99208 0.70209 0.96663 0.0
H426 H 0.05102 0.69134 0.87973 0.0
H427 H 0.00882 0.62481 0.9521 0.0
H428 H 0.99495 0.66843 0.96018 0.0
H429 H 0.01022 0.67014 0.87721 0.0
O430 O 0.90262 0.59751 0.94407 0.0
H431 H 0.93174 0.56163 0.99226 0.0
H432 H 0.87522 0.55609 0.94127 0.0
H433 H 0.0496 0.64563 0.95568 0.0
H434 H 0.94837 0.68191 0.87892 0.0
H435 H 0.07097 0.67916 0.91931 0.0
H436 H 0.96867 0.70902 0.92578 0.0
O437 O 0.97679 0.60204 0.90798 0.0
H438 H 0.88585 0.58012 0.82362 0.0
H439 H 0.91104 0.54281 0.90515 0.0
H440 H 0.8926 0.52407 0.85078 0.0
H441 H 0.87983 0.54274 0.8096 0.0
H442 H 0.90456 0.59836 0.87815 0.0
H443 H 0.85077 0.52321 0.97638 0.0
H444 H 0.86712 0.50926 0.01986 0.0
O445 O 0.94493 0.57517 0.93081 0.0
C446 C 0.9596 0.61635 0.98702 0.0
C447 C 0.9006 0.53456 0.00875 0.0
C448 C 0.86852 0.5315 0.97997 0.0
N449 N 0.90489 0.56061 0.96448 0.0
C450 C 0.91401 0.55315 0.98852 0.0
C451 C 0.88245 0.55014 0.96021 0.0
C452 C 0.87771 0.52368 0.00436 0.0
C453 C 0.96062 0.66019 0.89384 0.0
N454 N 0.97352 0.6565 0.91643 0.0
C455 C 0.95867 0.6791 0.89682 0.0
C456 C 0.97004 0.69429 0.92315 0.0
C457 C 0.98317 0.69041 0.94609 0.0
C458 C 0.98469 0.6713 0.94236 0.0
C459 C 0.04189 0.67679 0.89576 0.0
C460 C 0.01801 0.63946 0.93635 0.0
C461 C 0.0188 0.66469 0.89439 0.0
N462 N 0.00716 0.64636 0.91469 0.0
C463 C 0.04109 0.65115 0.93842 0.0
C464 C 0.05308 0.66994 0.91798 0.0
C465 C 0.96418 0.58216 0.91806 0.0
C466 C 0.89128 0.5718 0.8414 0.0
C467 C 0.90559 0.55107 0.88732 0.0
C468 C 0.89512 0.54036 0.85661 0.0
C469 C 0.88794 0.55083 0.83353 0.0
N470 N 0.90879 0.57162 0.89488 0.0
C471 C 0.9018 0.582 0.87238 0.0
Co472 Co 0.34733 0.97472 0.2465 0.0
Co473 Co 0.33723 0.92212 0.26695 0.0
O474 O 0.33133 0.94258 0.24059 0.0
C475 C 0.35474 0.96866 0.17316 0.0
O476 O 0.35827 0.95269 0.18319 0.0
C477 C 0.29025 0.90688 0.28264 0.0
O478 O 0.2961 0.92762 0.28874 0.0
O479 O 0.33835 0.93709 0.31167 0.0
O480 O 0.34567 0.97138 0.29763 0.0
H481 H 0.37684 0.90122 0.3547 0.0
H482 H 0.30759 0.95335 0.20161 0.0
O483 O 0.34956 0.97889 0.19518 0.0
H484 H 0.28984 0.99158 0.29279 0.0
H485 H 0.36539 0.05247 0.21806 0.0
H486 H 0.38324 0.00617 0.29288 0.0
H487 H 0.32622 0.99372 0.29166 0.0
H488 H 0.34528 0.01182 0.21161 0.0
O489 O 0.30467 0.90181 0.27326 0.0
H490 H 0.36949 0.927 0.32118 0.0
H491 H 0.31654 0.87295 0.26859 0.0
H492 H 0.40362 0.04674 0.30043 0.0
H493 H 0.27106 0.95092 0.20156 0.0
H494 H 0.39473 0.07017 0.26283 0.0
H495 H 0.26198 0.97008 0.24747 0.0
O496 O 0.37651 0.97594 0.24655 0.0
H497 H 0.30502 0.88787 0.15144 0.0
H498 H 0.36626 0.90737 0.23352 0.0
H499 H 0.36575 0.88978 0.17781 0.0
H500 H 0.33495 0.87988 0.13634 0.0
H501 H 0.3063 0.90568 0.20731 0.0
H502 H 0.3232 0.84658 0.30175 0.0
H503 H 0.3536 0.8607 0.34507 0.0
O504 O 0.36975 0.94191 0.26116 0.0
C505 C 0.3422 0.95644 0.31979 0.0
C506 C 0.36359 0.89487 0.33582 0.0
C507 C 0.33346 0.8642 0.30614 0.0
N508 N 0.34272 0.90149 0.29279 0.0
C509 C 0.35939 0.90939 0.3167 0.0
C510 C 0.32974 0.87921 0.2875 0.0
C511 C 0.35053 0.87214 0.33043 0.0
C512 C 0.30381 0.96187 0.22149 0.0
N513 N 0.31904 0.97372 0.24654 0.0
C514 C 0.28308 0.96038 0.22141 0.0
C515 C 0.27798 0.97111 0.2472 0.0
C516 C 0.29361 0.98316 0.27265 0.0
C517 C 0.31416 0.98427 0.27194 0.0
C518 C 0.36939 0.04244 0.23463 0.0
C519 C 0.37919 0.01625 0.27657 0.0
C520 C 0.3581 0.01942 0.23105 0.0
N521 N 0.36299 0.00664 0.25201 0.0
C522 C 0.39083 0.03922 0.2809 0.0
C523 C 0.38585 0.05236 0.25977 0.0
C524 C 0.38292 0.96209 0.25324 0.0
C525 C 0.31851 0.89207 0.16932 0.0
C526 C 0.35285 0.90319 0.21556 0.0
C527 C 0.35262 0.89318 0.1841 0.0
C528 C 0.33532 0.88761 0.16085 0.0
N529 N 0.3363 0.9075 0.22369 0.0
C530 C 0.31927 0.90207 0.20105 0.0
Co531 Co 0.37417 0.34838 0.58163 0.0
Co532 Co 0.41664 0.33904 0.60531 0.0
O533 O 0.39079 0.33278 0.57729 0.0
C534 C 0.38844 0.35545 0.50864 0.0
O535 O 0.40802 0.35968 0.51944 0.0
C536 C 0.38532 0.29176 0.6194 0.0
O537 O 0.37012 0.29727 0.62484 0.0
O538 O 0.40145 0.33925 0.64898 0.0
O539 O 0.3753 0.3473 0.63297 0.0
H540 H 0.47444 0.37856 0.69698 0.0
H541 H 0.35675 0.3082 0.53786 0.0
O542 O 0.37271 0.35001 0.53015 0.0
H543 H 0.29971 0.29058 0.62715 0.0
H544 H 0.314 0.36494 0.54924 0.0
H545 H 0.37764 0.38461 0.62624 0.0
H546 H 0.33362 0.32722 0.62587 0.0
H547 H 0.33508 0.34527 0.54493 0.0
O548 O 0.40491 0.30649 0.61097 0.0
H549 H 0.44201 0.37086 0.6613 0.0
H550 H 0.446 0.31941 0.60885 0.0
H551 H 0.35691 0.40458 0.63165 0.0
H552 H 0.32299 0.2714 0.53798 0.0
H553 H 0.32484 0.39478 0.59295 0.0
H554 H 0.29421 0.26238 0.58294 0.0
O555 O 0.40188 0.37774 0.58152 0.0
H556 H 0.42281 0.30867 0.49037 0.0
H557 H 0.46094 0.36947 0.57455 0.0
H558 H 0.47977 0.37012 0.5201 0.0
H559 H 0.46069 0.33954 0.47758 0.0
H560 H 0.40451 0.30877 0.54503 0.0
H561 H 0.47837 0.32643 0.64416 0.0
H562 H 0.49285 0.35625 0.6885 0.0
O563 O 0.42883 0.37156 0.60024 0.0
C564 C 0.38602 0.34342 0.65597 0.0
C565 C 0.46834 0.36557 0.67766 0.0
C566 C 0.47052 0.33629 0.64805 0.0
N567 N 0.44225 0.34483 0.63284 0.0
C568 C 0.45002 0.36118 0.65731 0.0
C569 C 0.45217 0.33236 0.62818 0.0
C570 C 0.47864 0.35303 0.67292 0.0
C571 C 0.34421 0.30445 0.55732 0.0
N572 N 0.34712 0.31986 0.58175 0.0
C573 C 0.32517 0.28356 0.55734 0.0
C574 C 0.30904 0.2785 0.5826 0.0
C575 C 0.31212 0.29431 0.60742 0.0
C576 C 0.33139 0.31502 0.60663 0.0
C577 C 0.32792 0.36934 0.56629 0.0
C578 C 0.36362 0.38017 0.60946 0.0
C579 C 0.33994 0.3583 0.56391 0.0
N580 N 0.35747 0.36369 0.58548 0.0
C581 C 0.35199 0.39157 0.61257 0.0
C582 C 0.33401 0.38607 0.59083 0.0
C583 C 0.42188 0.38447 0.59035 0.0
C584 C 0.43132 0.32205 0.50873 0.0
C585 C 0.45251 0.35613 0.55615 0.0
C586 C 0.46327 0.35656 0.52539 0.0
C587 C 0.45256 0.3394 0.50155 0.0
N588 N 0.43168 0.33904 0.56302 0.0
C589 C 0.42108 0.32216 0.53979 0.0
Co590 Co 0.0281 0.37715 0.91123 0.0
Co591 Co 0.07874 0.41912 0.93994 0.0
O592 O 0.06042 0.3935 0.91064 0.0
C593 C 0.03875 0.39059 0.83822 0.0
O594 O 0.05346 0.41035 0.84939 0.0
C595 C 0.09417 0.38779 0.95696 0.0
O596 O 0.0733 0.37265 0.96132 0.0
O597 O 0.06166 0.40343 0.98214 0.0
O598 O 0.02775 0.37886 0.96266 0.0
H599 H 0.09321 0.47573 0.03207 0.0
H600 H 0.05245 0.3588 0.87388 0.0
O601 O 0.02756 0.37507 0.85966 0.0
H602 H 0.00823 0.30304 0.96248 0.0
H603 H 0.95284 0.3171 0.87244 0.0
H604 H 0.99361 0.38164 0.94924 0.0
H605 H 0.00612 0.33716 0.95662 0.0
H606 H 0.99368 0.33777 0.87295 0.0
O607 O 0.09936 0.40742 0.94819 0.0
H608 H 0.07001 0.44364 -0.00531 0.0
H609 H 0.12746 0.4487 0.94784 0.0
H610 H 0.95277 0.36132 0.94981 0.0
H611 H 0.05493 0.32481 0.87863 0.0
H612 H 0.93211 0.3288 0.91119 0.0
H613 H 0.03276 0.29669 0.92327 0.0
O614 O 0.02704 0.40508 0.90747 0.0
H615 H 0.11995 0.42677 0.82926 0.0
H616 H 0.09351 0.46368 0.90937 0.0
H617 H 0.1138 0.48316 0.85652 0.0
H618 H 0.1272 0.4647 0.81606 0.0
H619 H 0.09942 0.40781 0.88225 0.0
H620 H 0.15131 0.48074 0.98491 0.0
H621 H 0.13418 0.49451 0.02729 0.0
O622 O 0.05851 0.43128 0.93231 0.0
C623 C 0.04146 0.38878 0.98712 0.0
C624 C 0.10087 0.46995 0.0136 0.0
C625 C 0.13348 0.47274 0.98716 0.0
N626 N 0.09737 0.44447 0.96886 0.0
C627 C 0.08782 0.45183 0.99228 0.0
C628 C 0.11989 0.45457 0.96628 0.0
C629 C 0.12385 0.48046 0.01093 0.0
C630 C 0.04261 0.34654 0.89316 0.0
N631 N 0.0291 0.34992 0.91487 0.0
C632 C 0.04414 0.32737 0.89582 0.0
C633 C 0.03172 0.31161 0.9209 0.0
C634 C 0.01797 0.31517 0.94293 0.0
C635 C 0.01688 0.33455 0.93955 0.0
C636 C 0.96165 0.33122 0.88943 0.0
C637 C 0.98473 0.36742 0.93252 0.0
C638 C 0.98477 0.34301 0.88977 0.0
N639 N 0.996 0.36079 0.91128 0.0
C640 C 0.96161 0.35602 0.93288 0.0
C641 C 0.95003 0.33779 0.91118 0.0
C642 C 0.03964 0.42476 0.91842 0.0
C643 C 0.11425 0.43501 0.84673 0.0
C644 C 0.09924 0.45551 0.89185 0.0
C645 C 0.11076 0.46664 0.862 0.0
C646 C 0.11828 0.45628 0.83932 0.0
N647 N 0.09538 0.43466 0.89896 0.0
C648 C 0.1027 0.42439 0.87685 0.0
Co649 Co 0.65228 0.02513 0.24767 0.0
Co650 Co 0.66138 0.07743 0.26769 0.0
O651 O 0.66783 0.05727 0.24163 0.0
C652 C 0.64476 0.03093 0.17428 0.0
O653 O 0.64098 0.04675 0.18424 0.0
C654 C 0.70841 0.09334 0.28406 0.0
O655 O 0.70288 0.07264 0.28972 0.0
O656 O 0.66028 0.06259 0.3125 0.0
O657 O 0.65388 0.02856 0.2988 0.0
H658 H 0.62059 0.0974 0.35461 0.0
H659 H 0.69201 0.04696 0.20279 0.0
O660 O 0.65013 0.02088 0.19636 0.0
H661 H 0.7106 0.00959 0.29433 0.0
H662 H 0.63554 0.94774 0.21959 0.0
H663 H 0.61661 0.99336 0.2941 0.0
H664 H 0.67393 0.00679 0.29306 0.0
H665 H 0.65507 0.98837 0.213 0.0
O666 O 0.69382 0.09815 0.27451 0.0
H667 H 0.62863 0.07201 0.3214 0.0
H668 H 0.68135 0.12653 0.26925 0.0
H669 H 0.5968 0.95281 0.30179 0.0
H670 H 0.72882 0.05004 0.20287 0.0
H671 H 0.60623 0.92971 0.26435 0.0
H672 H 0.73833 0.03132 0.24896 0.0
O673 O 0.62284 0.02335 0.24757 0.0
H674 H 0.69395 0.112 0.15249 0.0
H675 H 0.63202 0.09153 0.23357 0.0
H676 H 0.63254 0.10898 0.17771 0.0
H677 H 0.66369 0.11936 0.13674 0.0
H678 H 0.69265 0.09432 0.20852 0.0
H679 H 0.67399 0.15253 0.30209 0.0
H680 H 0.64336 0.13799 0.34503 0.0
O681 O 0.62897 0.05726 0.26146 0.0
C682 C 0.65692 0.04342 0.32081 0.0
C683 C 0.63393 0.10394 0.33589 0.0
C684 C 0.66393 0.13488 0.30645 0.0
N685 N 0.65533 0.09777 0.29324 0.0
C686 C 0.63852 0.08964 0.31694 0.0
C687 C 0.66805 0.12008 0.28799 0.0
C688 C 0.64673 0.12671 0.33053 0.0
C689 C 0.69597 0.03862 0.22275 0.0
N690 N 0.68082 0.02665 0.24782 0.0
C691 C 0.71686 0.04049 0.22274 0.0
C692 C 0.7222 0.03 0.24863 0.0
C693 C 0.70665 0.01782 0.27411 0.0
C694 C 0.68593 0.01634 0.27332 0.0
C695 C 0.6313 0.95763 0.2361 0.0
C696 C 0.6209 0.98343 0.27787 0.0
C697 C 0.64227 0.98063 0.23243 0.0
N698 N 0.63708 0.99323 0.25331 0.0
C699 C 0.60959 0.96047 0.28227 0.0
C700 C 0.61487 0.94753 0.26123 0.0
C701 C 0.61609 0.03697 0.25378 0.0
C702 C 0.68031 0.10759 0.17016 0.0
C703 C 0.64559 0.09593 0.21584 0.0
C704 C 0.64583 0.10586 0.18428 0.0
C705 C 0.66332 0.11169 0.16131 0.0
N706 N 0.66232 0.09197 0.22433 0.0
C707 C 0.67953 0.09766 0.20197 0.0
H708 H 0.3577 0.41484 0.20637 0.0
H709 H 0.36395 0.40971 0.26735 0.0
H710 H 0.35814 0.34669 0.24234 0.0
H711 H 0.35121 0.35131 0.18195 0.0
H712 H 0.33574 0.34382 0.29947 0.0
H713 H 0.42028 0.41678 0.30865 0.0
H714 H 0.39975 0.42365 0.29558 0.0
H715 H 0.40606 0.40678 0.26786 0.0
C716 C 0.3577 0.39988 0.21395 0.0
C717 C 0.35403 0.38353 0.18935 0.0
C718 C 0.36145 0.39705 0.24871 0.0
C719 C 0.36197 0.37802 0.25923 0.0
C720 C 0.35791 0.36155 0.23477 0.0
H721 H 0.41526 0.36064 0.45333 0.0
H722 H 0.40875 0.36545 0.39231 0.0
C723 C 0.35392 0.36422 0.20023 0.0
C724 C 0.36632 0.37488 0.29575 0.0
H725 H 0.40402 0.39781 0.36125 0.0
C726 C 0.3507 0.3556 0.31295 0.0
C727 C 0.38604 0.39007 0.31306 0.0
C728 C 0.4041 0.41037 0.29527 0.0
C729 C 0.35413 0.35117 0.34711 0.0
C730 C 0.3734 0.3668 0.36491 0.0
C731 C 0.38917 0.38596 0.34761 0.0
C732 C 0.37731 0.36371 0.40165 0.0
C733 C 0.33727 0.32957 0.36348 0.0
C734 C 0.36192 0.36139 0.42705 0.0
C735 C 0.36545 0.35839 0.46169 0.0
C736 C 0.38467 0.35806 0.47173 0.0
C737 C 0.40028 0.36076 0.44635 0.0
C738 C 0.39661 0.36355 0.41155 0.0
H739 H 0.32756 0.31685 0.34357 0.0
H740 H 0.34529 0.32296 0.38087 0.0
H741 H 0.32548 0.33232 0.37904 0.0
H742 H 0.34723 0.36207 0.42013 0.0
H743 H 0.35323 0.35666 0.48065 0.0
H744 H 0.94841 0.35761 0.53951 0.0
H745 H 0.96174 0.3645 0.59948 0.0
H746 H 0.01876 0.35978 0.569 0.0
H747 H 0.00527 0.35218 0.50953 0.0
H748 H 0.00172 0.33794 0.62739 0.0
H749 H 0.01139 0.42161 0.63757 0.0
H750 H 0.98374 0.40074 0.62637 0.0
H751 H 0.00614 0.40708 0.59688 0.0
C752 C 0.96375 0.35798 0.54567 0.0
C753 C 0.97582 0.35443 0.5198 0.0
C754 C 0.97144 0.36211 0.57984 0.0
C755 C 0.9915 0.36315 0.58852 0.0
C756 C 0.00331 0.35917 0.56284 0.0
H757 H 0.06133 0.41784 0.78373 0.0
H758 H 0.05159 0.41124 0.7221 0.0
C759 C 0.99553 0.3548 0.52884 0.0
C760 C 1.00011 0.36797 0.62444 0.0
H761 H 0.01465 0.40548 0.69016 0.0
C762 C 0.00467 0.35278 0.64105 0.0
C763 C 0.00442 0.38757 0.64194 0.0
C764 C 0.0014 0.4053 0.62466 0.0
C765 C 0.01291 0.35637 0.67498 0.0
C766 C 0.01605 0.37535 0.69315 0.0
C767 C 0.01204 0.39083 0.67627 0.0
C768 C 0.02262 0.379 0.73008 0.0
C769 C 0.0184 0.3399 0.69083 0.0
C770 C 0.00952 0.36313 0.75489 0.0
C771 C 0.01513 0.36673 0.78988 0.0
C772 C 0.03378 0.38649 0.80088 0.0
C773 C 0.04689 0.40244 0.77603 0.0
C774 C 0.04134 0.39872 0.74087 0.0
H775 H 0.02213 0.3309 0.67058 0.0
H776 H 0.03282 0.34814 0.70859 0.0
H777 H 0.00394 0.32745 0.70584 0.0
H778 H 0.99466 0.34809 0.74727 0.0
H779 H 0.00452 0.35419 0.80835 0.0
H780 H 0.58358 0.94043 0.87118 0.0
H781 H 0.58862 0.95059 0.9327 0.0
H782 H 0.65231 0.00745 0.90986 0.0
H783 H 0.64777 0.99713 0.84892 0.0
H784 H 0.65417 0.98646 0.96639 0.0
H785 H 0.58247 1.00016 0.97552 0.0
H786 H 0.57529 0.97283 0.96148 0.0
H787 H 0.59267 0.99631 0.93465 0.0
C788 C 0.59868 0.95504 0.87935 0.0
C789 C 0.61522 0.96802 0.85517 0.0
C790 C 0.60146 0.96091 0.91443 0.0
C791 C 0.62065 0.98003 0.92571 0.0
C792 C 0.63734 0.99269 0.9017 0.0
H793 H 0.64 0.05208 0.11796 0.0
H794 H 0.63455 0.03972 0.05747 0.0
C795 C 0.6347 0.98674 0.86683 0.0
C796 C 0.62364 0.98701 0.96249 0.0
H797 H 0.6014 0.00266 0.02786 0.0
C798 C 0.64263 0.99001 0.97985 0.0
C799 C 0.60876 0.99199 0.97976 0.0
C800 C 0.58877 0.99038 0.96185 0.0
C801 C 0.64716 0.99781 0.01403 0.0
C802 C 0.63192 0.00211 0.03168 0.0
C803 C 0.61296 0.9992 0.01432 0.0
C804 C 0.63537 0.00965 0.06818 0.0
C805 C 0.66852 0.00193 0.03053 0.0
C806 C 0.63741 0.99674 0.09419 0.0
C807 C 0.64078 0.00387 0.12855 0.0
C808 C 0.64177 0.02387 0.13768 0.0
C809 C 0.63936 0.03663 0.11169 0.0
C810 C 0.63621 0.02957 0.07718 0.0
H811 H 0.68107 0.00426 0.01071 0.0
H812 H 0.67561 0.01677 0.0475 0.0
H813 H 0.66525 0.98739 0.04657 0.0
H814 H 0.63621 0.98103 0.08796 0.0
H815 H 0.64228 0.9935 0.14803 0.0
H816 H 0.64109 0.58237 0.20419 0.0
H817 H 0.63621 0.58775 0.26568 0.0
H818 H 0.64403 0.6518 0.24229 0.0
H819 H 0.64955 0.64691 0.1814 0.0
H820 H 0.66692 0.65348 0.29867 0.0
H821 H 0.58103 0.58274 0.30877 0.0
H822 H 0.6008 0.57507 0.29467 0.0
H823 H 0.59498 0.59262 0.26776 0.0
C824 C 0.64184 0.59762 0.21224 0.0
C825 C 0.64561 0.61416 0.18792 0.0
C826 C 0.63889 0.60059 0.24729 0.0
C827 C 0.63932 0.61999 0.25841 0.0
C828 C 0.64354 0.63667 0.23426 0.0
H829 H 0.58826 0.64124 0.45093 0.0
H830 H 0.59471 0.63537 0.3904 0.0
C831 C 0.64671 0.63382 0.19941 0.0
C832 C 0.63555 0.62323 0.29517 0.0
H833 H 0.59784 0.60176 0.36089 0.0
C834 C 0.65182 0.64218 0.31229 0.0
C835 C 0.61566 0.60865 0.31265 0.0
C836 C 0.59701 0.58874 0.29497 0.0
C837 C 0.64878 0.64695 0.34645 0.0
C838 C 0.62921 0.63201 0.36431 0.0
C839 C 0.61289 0.6131 0.34718 0.0
C840 C 0.62538 0.6357 0.40081 0.0
C841 C 0.66633 0.66827 0.36268 0.0
C842 C 0.64036 0.63759 0.42666 0.0
C843 C 0.63688 0.64122 0.46103 0.0
C844 C 0.6181 0.64259 0.47033 0.0
C845 C 0.60289 0.64031 0.44452 0.0
C846 C 0.60653 0.63692 0.40999 0.0
H847 H 0.67658 0.68067 0.34271 0.0
H848 H 0.65886 0.67562 0.3797 0.0
H849 H 0.67752 0.66483 0.37862 0.0
H850 H 0.65468 0.6361 0.42031 0.0
H851 H 0.64875 0.6426 0.48038 0.0
H852 H 0.94686 0.59123 0.78208 0.0
H853 H 0.96007 0.59805 0.72204 0.0
H854 H 0.01632 0.66038 0.75258 0.0
H855 H 0.00295 0.65409 0.81211 0.0
H856 H 0.99896 0.6646 0.69383 0.0
H857 H 0.01072 0.59178 0.68489 0.0
H858 H 0.98289 0.58451 0.69584 0.0
H859 H 0.00511 0.60097 0.72538 0.0
C860 C 0.96198 0.60642 0.77592 0.0
C861 C 0.97391 0.62205 0.80185 0.0
C862 C 0.9696 0.61021 0.7417 0.0
C863 C 0.98945 0.62948 0.73304 0.0
C864 C 0.00104 0.64533 0.75874 0.0
H865 H 0.06156 0.64602 0.54012 0.0
H866 H 0.05115 0.64293 0.60142 0.0
C867 C 0.99333 0.6417 0.79277 0.0
C868 C 0.99818 0.63337 0.6972 0.0
H869 H 0.01418 0.61115 0.63231 0.0
C870 C 0.00239 0.65297 0.68043 0.0
C871 C 0.00311 0.61841 0.68006 0.0
C872 C 1.00046 0.59786 0.69757 0.0
C873 C 0.01094 0.65779 0.64667 0.0
C874 C 0.01477 0.64228 0.62889 0.0
C875 C 0.01105 0.62293 0.64592 0.0
C876 C 0.02184 0.6454 0.59218 0.0
C877 C 0.01605 0.6796 0.63065 0.0
C878 C 0.00879 0.64775 0.56677 0.0
C879 C 0.01479 0.64974 0.53196 0.0
C880 C 0.03377 0.64901 0.52175 0.0
C881 C 0.04687 0.64667 0.54721 0.0
C882 C 0.04093 0.64487 0.58218 0.0
H883 H 0.01921 0.69222 0.6508 0.0
H884 H 0.03069 0.68612 0.61332 0.0
H885 H 0.00161 0.67718 0.61513 0.0
H886 H 0.99367 0.64758 0.57378 0.0
H887 H 0.00419 0.65129 0.513 0.0
H888 H 0.35768 0.00627 0.14678 0.0
H889 H 0.36375 0.01864 0.08667 0.0
H890 H 0.3646 0.95951 0.05634 0.0
H891 H 0.35913 0.94723 0.11688 0.0
H892 H 0.39796 0.99635 0.02653 0.0
H893 H 0.31876 0.99573 0.00961 0.0
H894 H 0.33472 0.01254 0.04541 0.0
H895 H 0.32408 0.98311 0.0464 0.0
C896 C 0.359 0.99578 0.12734 0.0
C897 C 0.35777 0.97568 0.13652 0.0
C898 C 0.36238 0.00285 0.09294 0.0
C899 C 0.36419 0.98979 0.06696 0.0
C900 C 0.36312 0.96977 0.07603 0.0
H901 H 0.35205 0.00295 0.84767 0.0
H902 H 0.34733 0.99243 0.90853 0.0
C903 C 0.35996 0.96277 0.11057 0.0
C904 C 0.36765 0.9973 0.03044 0.0
H905 H 0.34571 0.01339 0.96527 0.0
C906 C 0.38651 0.99999 0.01303 0.0
C907 C 0.35255 0.00182 0.01285 0.0
C908 C 0.33128 0.99794 0.0294 0.0
C909 C 0.39076 0.00723 0.97849 0.0
C910 C 0.37604 0.01246 0.96129 0.0
C911 C 0.35713 0.00965 0.97868 0.0
C912 C 0.37913 0.01956 0.92456 0.0
C913 C 0.41064 0.00861 0.96052 0.0
C914 C 0.39845 0.03859 0.9134 0.0
C915 C 0.40133 0.04458 0.87837 0.0
C916 C 0.38476 0.0318 0.8541 0.0
C917 C 0.36515 0.01319 0.86564 0.0
C918 C 0.36241 0.00712 0.90047 0.0
H919 H 0.41674 0.99863 0.97409 0.0
H920 H 0.40669 0.00277 0.93329 0.0
H921 H 0.42426 0.02609 0.96024 0.0
H922 H 0.41132 0.04875 0.93174 0.0
H923 H 0.41653 0.05911 0.8703 0.0
H924 H 0.13818 0.41355 0.94275 0.0
H925 H 0.16782 0.40567 0.95559 0.0
H926 H 0.12029 0.34232 -0.00158 0.0
H927 H 0.09033 0.35001 0.98558 0.0
H928 H 0.15819 0.36948 0.04168 0.0
H929 H 0.18229 0.36085 0.90814 0.0
H930 H 0.17986 0.38509 0.91444 0.0
H931 H 0.15572 0.35809 0.91832 0.0
C932 C 0.13394 0.39784 0.95464 0.0
C933 C 0.11189 0.38241 0.9632 0.0
C934 C 0.1509 0.39332 0.96176 0.0
C935 C 0.14619 0.37331 0.97755 0.0
C936 C 0.12421 0.35778 0.98598 0.0
H937 H 0.25557 0.34629 0.00845 0.0
H938 H 0.21831 0.33996 -0.00383 0.0
C939 C 0.10714 0.36221 0.97861 0.0
C940 C 0.16453 0.36945 0.98705 0.0
H941 H 0.20888 0.36791 0.95291 0.0
C942 C 0.16908 0.36874 0.0223 0.0
C943 C 0.17853 0.36824 0.96171 0.0
C944 C 0.17378 0.36789 0.9235 0.0
C945 C 0.18804 0.36818 0.03289 0.0
C946 C 0.20283 0.36849 0.00754 0.0
C947 C 0.19759 0.36785 0.97229 0.0
C948 C 0.22471 0.37143 0.01696 0.0
C949 C 0.1924 0.36779 0.0711 0.0
C950 C 0.24058 0.39123 0.03257 0.0
C951 C 0.26182 0.39496 0.03936 0.0
C952 C 0.26764 0.37894 0.03065 0.0
C953 C 0.25158 0.35893 0.01553 0.0
C954 C 0.23032 0.35528 0.00849 0.0
H955 H 0.17693 0.36135 0.08652 0.0
H956 H 0.20006 0.35744 0.07642 0.0
H957 H 0.20402 0.38491 0.07999 0.0
H958 H 0.23668 0.40406 0.03876 0.0
H959 H 0.27377 0.41056 0.05104 0.0
H960 H 0.90986 0.25609 0.34342 0.0
H961 H 0.87894 0.21923 0.32914 0.0
H962 H 0.83273 0.23844 0.36661 0.0
H963 H 0.86335 0.27514 0.38108 0.0
H964 H 0.82433 0.19522 0.38887 0.0
H965 H 0.83606 0.20837 0.24624 0.0
H966 H 0.85978 0.21321 0.27143 0.0
H967 H 0.8483 0.23101 0.27675 0.0
C968 C 0.89312 0.25242 0.3488 0.0
C969 C 0.88906 0.26861 0.36313 0.0
C970 C 0.8755 0.2314 0.34052 0.0
C971 C 0.85359 0.22625 0.34649 0.0
C972 C 0.84954 0.24214 0.36174 0.0
H973 H 0.72573 0.13732 0.27033 0.0
H974 H 0.76254 0.16764 0.28491 0.0
C975 C 0.86708 0.26313 0.3699 0.0
C976 C 0.83466 0.20461 0.33605 0.0
H977 H 0.80575 0.17485 0.2652 0.0
C978 C 0.82038 0.19056 0.36187 0.0
C979 C 0.82956 0.19877 0.30078 0.0
C980 C 0.84408 0.21362 0.27205 0.0
C981 C 0.80077 0.17103 0.35332 0.0
C982 C 0.79545 0.16542 0.31802 0.0
C983 C 0.81002 0.17917 0.29222 0.0
C984 C 0.7738 0.14658 0.30739 0.0
C985 C 0.78536 0.15709 0.38197 0.0
C986 C 0.76812 0.12463 0.31461 0.0
C987 C 0.74701 0.10717 0.30625 0.0
C988 C 0.7313 0.11144 0.29062 0.0
C989 C 0.73736 0.13343 0.28254 0.0
C990 C 0.75842 0.1508 0.29076 0.0
H991 H 0.79034 0.16548 0.40756 0.0
H992 H 0.76815 0.15312 0.3763 0.0
H993 H 0.78542 0.14124 0.38375 0.0
H994 H 0.77989 0.12106 0.32708 0.0
H995 H 0.74289 0.09041 0.31268 0.0
H996 H 0.59006 0.8641 0.71113 0.0
H997 H 0.59742 0.8342 0.69763 0.0
H998 H 0.66163 0.88155 0.65732 0.0
H999 H 0.65445 0.91178 0.67082 0.0
H1000 H 0.63472 0.8445 0.61255 0.0
H1001 H 0.64065 0.81788 0.7456 0.0
H1002 H 0.61679 0.82086 0.73882 0.0
H1003 H 0.64402 0.84479 0.73622 0.0
C1004 C 0.60585 0.86825 0.69967 0.0
C1005 C 0.62167 0.89034 0.69201 0.0
C1006 C 0.61007 0.85113 0.69217 0.0
C1007 C 0.63016 0.85571 0.67688 0.0
C1008 C 0.64609 0.87773 0.66937 0.0
H1009 H 0.65445 0.74464 0.6455 0.0
H1010 H 0.66151 0.78211 0.65816 0.0
C1011 C 0.64195 0.89495 0.67712 0.0
C1012 C 0.63373 0.83723 0.66699 0.0
H1013 H 0.63367 0.79179 0.70001 0.0
C1014 C 0.63489 0.83316 0.63165 0.0
C1015 C 0.6342 0.82264 0.69198 0.0
C1016 C 0.63407 0.82683 0.73031 0.0
C1017 C 0.63517 0.81413 0.62059 0.0
C1018 C 0.63411 0.79877 0.64553 0.0
C1019 C 0.6343 0.80351 0.68092 0.0
C1020 C 0.63088 0.77685 0.63551 0.0
C1021 C 0.63611 0.81035 0.58229 0.0
C1022 C 0.61132 0.76155 0.61865 0.0
C1023 C 0.60718 0.74018 0.6116 0.0
C1024 C 0.62251 0.73365 0.62133 0.0
C1025 C 0.64233 0.74917 0.6376 0.0
C1026 C 0.64639 0.77055 0.64488 0.0
H1027 H 0.64324 0.82612 0.56751 0.0
H1028 H 0.64611 0.8023 0.57705 0.0
H1029 H 0.61907 0.79928 0.57255 0.0
H1030 H 0.59896 0.76595 0.61177 0.0
H1031 H 0.59175 0.72866 0.59903 0.0
H1032 H 0.74186 0.65279 0.0074 0.0
H1033 H 0.77914 0.65953 0.99413 0.0
H1034 H 0.76033 0.59371 0.02922 0.0
H1035 H 0.72321 0.58681 0.04256 0.0
H1036 H 0.80308 0.62939 0.05407 0.0
H1037 H 0.79202 0.62858 0.9109 0.0
H1038 H 0.7859 0.64655 0.93621 0.0
H1039 H 0.76883 0.6171 0.94044 0.0
C1040 C 0.7457 0.6398 0.01244 0.0
C1041 C 0.72952 0.6192 0.02579 0.0
C1042 C 0.76697 0.64366 0.00476 0.0
C1043 C 0.77235 0.62703 0.01043 0.0
C1044 C 0.75644 0.60673 0.02462 0.0
H1045 H 0.86322 0.5895 0.93948 0.0
H1046 H 0.83249 0.59562 0.95275 0.0
C1047 C 0.73522 0.60281 0.03212 0.0
C1048 C 0.79432 0.63028 0.00086 0.0
H1049 H 0.82519 0.63164 0.93124 0.0
C1050 C 0.80814 0.63025 0.02726 0.0
C1051 C 0.80067 0.63119 0.96583 0.0
C1052 C 0.78611 0.63074 0.93655 0.0
C1053 C 0.82791 0.63046 0.01951 0.0
C1054 C 0.834 0.63084 0.98445 0.0
C1055 C 0.82049 0.63151 0.95807 0.0
C1056 C 0.85307 0.62821 0.97467 0.0
C1057 C 0.84161 0.6292 0.04874 0.0
C1058 C 0.87487 0.64472 0.98207 0.0
C1059 C 0.89257 0.6413 0.97445 0.0
C1060 C 0.88867 0.62128 0.95942 0.0
C1061 C 0.86681 0.60506 0.95124 0.0
C1062 C 0.84921 0.60854 0.9587 0.0
H1063 H 0.833 0.62593 0.07413 0.0
H1064 H 0.84565 0.61594 0.04365 0.0
H1065 H 0.85743 0.64513 0.05057 0.0
H1066 H 0.87816 0.66012 0.99408 0.0
H1067 H 0.90921 0.65416 0.98094 0.0
H1068 H 0.13837 0.72635 0.37974 0.0
H1069 H 0.16769 0.76388 0.36632 0.0
H1070 H 0.11956 0.77888 0.32358 0.0
H1071 H 0.08992 0.74115 0.33693 0.0
H1072 H 0.15672 0.78996 0.28 0.0
H1073 H 0.18269 0.82316 0.41276 0.0
H1074 H 0.18071 0.7967 0.40654 0.0
H1075 H 0.1562 0.799 0.40355 0.0
C1076 C 0.13393 0.73764 0.36778 0.0
C1077 C 0.11179 0.73074 0.35936 0.0
C1078 C 0.15072 0.75915 0.36034 0.0
C1079 C 0.14575 0.77422 0.34439 0.0
C1080 C 0.12368 0.76751 0.33615 0.0
H1081 H 0.25625 0.91 0.3127 0.0
H1082 H 0.21881 0.8796 0.32556 0.0
C1083 C 0.10679 0.74597 0.34381 0.0
C1084 C 0.16394 0.79643 0.33442 0.0
H1085 H 0.209 0.84225 0.36723 0.0
C1086 C 0.16794 0.8016 0.29906 0.0
C1087 C 0.17837 0.8117 0.35934 0.0
C1088 C 0.17419 0.8075 0.3977 0.0
C1089 C 0.18681 0.82104 0.2879 0.0
C1090 C 0.20209 0.8355 0.31278 0.0
C1091 C 0.19735 0.83102 0.34819 0.0
C1092 C 0.22398 0.85421 0.30268 0.0
C1093 C 0.19051 0.82568 0.24957 0.0
C1094 C 0.23922 0.84995 0.28565 0.0
C1095 C 0.26056 0.86717 0.27847 0.0
C1096 C 0.26713 0.88903 0.28826 0.0
C1097 C 0.25169 0.89335 0.30475 0.0
C1098 C 0.23032 0.87603 0.31214 0.0
H1099 H 0.17469 0.81705 0.23492 0.0
H1100 H 0.1986 0.84372 0.24422 0.0
H1101 H 0.20147 0.8196 0.23979 0.0
H1102 H 0.2348 0.83318 0.27873 0.0
H1103 H 0.27202 0.86324 0.26574 0.0
H1104 H 0.41111 0.13639 0.7118 0.0
H1105 H 0.40426 0.1667 0.6989 0.0
H1106 H 0.34031 0.12031 0.65667 0.0
H1107 H 0.34697 0.08966 0.66959 0.0
H1108 H 0.3682 0.15799 0.61311 0.0
H1109 H 0.36068 0.18278 0.74673 0.0
H1110 H 0.38441 0.17953 0.74027 0.0
H1111 H 0.35708 0.15587 0.73653 0.0
C1112 C 0.39548 0.13254 0.70003 0.0
C1113 C 0.37958 0.11059 0.69168 0.0
C1114 C 0.39156 0.14989 0.69287 0.0
C1115 C 0.37169 0.14569 0.67722 0.0
C1116 C 0.35568 0.12383 0.669 0.0
H1117 H 0.34783 0.25717 0.64748 0.0
H1118 H 0.3408 0.21963 0.6594 0.0
C1119 C 0.35952 0.10637 0.67643 0.0
C1120 C 0.36843 0.16444 0.66774 0.0
H1121 H 0.36823 0.20948 0.70194 0.0
C1122 C 0.36783 0.16907 0.6325 0.0
C1123 C 0.3677 0.17869 0.6931 0.0
C1124 C 0.36729 0.1739 0.7313 0.0
C1125 C 0.36779 0.18832 0.62193 0.0
C1126 C 0.36854 0.20331 0.6473 0.0
C1127 C 0.36784 0.19802 0.68254 0.0
C1128 C 0.37188 0.22537 0.63791 0.0
C1129 C 0.36744 0.19272 0.58373 0.0
C1130 C 0.39168 0.24097 0.62198 0.0
C1131 C 0.39581 0.26238 0.61536 0.0
C1132 C 0.3802 0.26864 0.62458 0.0
C1133 C 0.36016 0.25285 0.63999 0.0
C1134 C 0.35612 0.23142 0.64684 0.0
H1135 H 0.36063 0.1772 0.56834 0.0
H1136 H 0.35745 0.20077 0.57847 0.0
H1137 H 0.38461 0.20401 0.57474 0.0
H1138 H 0.40422 0.23674 0.61545 0.0
H1139 H 0.41141 0.27412 0.60346 0.0
H1140 H 0.40783 0.34194 0.71432 0.0
H1141 H 0.39932 0.34586 0.77467 0.0
H1142 H 0.34339 0.35141 0.74081 0.0
H1143 H 0.35159 0.34754 0.68079 0.0
H1144 H 0.39683 0.38331 0.80143 0.0
H1145 H 0.31819 0.30378 0.81848 0.0
H1146 H 0.33784 0.30811 0.78457 0.0
H1147 H 0.31944 0.31901 0.78013 0.0
C1148 C 0.39356 0.34372 0.71973 0.0
C1149 C 0.38036 0.34435 0.69266 0.0
C1150 C 0.38877 0.34599 0.75418 0.0
C1151 C 0.37059 0.34865 0.76206 0.0
C1152 C 0.35726 0.34899 0.73523 0.0
H1153 H 0.3428 0.40365 0.94365 0.0
H1154 H 0.34923 0.39503 0.88473 0.0
C1155 C 0.36207 0.34686 0.70088 0.0
C1156 C 0.36616 0.35236 0.79811 0.0
H1157 H 0.32705 0.33125 0.86189 0.0
C1158 C 0.38167 0.37189 0.8148 0.0
C1159 C 0.34637 0.33734 0.81535 0.0
C1160 C 0.32955 0.31577 0.7989 0.0
C1161 C 0.37767 0.37705 0.84817 0.0
C1162 C 0.35758 0.36237 0.86497 0.0
C1163 C 0.3423 0.34258 0.84862 0.0
C1164 C 0.35251 0.36696 0.90008 0.0
C1165 C 0.39499 0.39807 0.86536 0.0
C1166 C 0.35168 0.35365 0.92785 0.0
C1167 C 0.34805 0.35849 0.96143 0.0
C1168 C 0.34496 0.37666 0.96783 0.0
C1169 C 0.34511 0.38956 0.93967 0.0
C1170 C 0.34889 0.38474 0.90605 0.0
H1171 H 0.4112 0.40535 0.85182 0.0
H1172 H 0.38942 0.41045 0.86508 0.0
H1173 H 0.39733 0.39491 0.89282 0.0
H1174 H 0.35437 0.33981 0.92363 0.0
H1175 H 0.34802 0.34816 0.9824 0.0
H1176 H 0.93696 0.34458 0.27806 0.0
H1177 H 0.94971 0.35042 0.21779 0.0
H1178 H 0.00985 0.35219 0.24946 0.0
H1179 H 0.99746 0.34645 0.30952 0.0
H1180 H 0.99146 0.38836 0.19408 0.0
H1181 H 0.98516 0.30706 0.16718 0.0
H1182 H 0.97007 0.31105 0.20183 0.0
H1183 H 0.999 0.32031 0.20684 0.0
C1184 C 0.95278 0.34594 0.27218 0.0
C1185 C 0.96614 0.34498 0.29866 0.0
C1186 C 0.96004 0.34933 0.23778 0.0
C1187 C 0.98059 0.35151 0.22932 0.0
C1188 C 0.99379 0.35022 0.25551 0.0
H1189 H 0.06331 0.4083 0.04759 0.0
H1190 H 0.04858 0.39929 0.10668 0.0
C1191 C 0.98667 0.347 0.28986 0.0
C1192 C 0.98887 0.35627 0.19339 0.0
H1193 H 0.00419 0.3355 0.12556 0.0
C1194 C 0.99416 0.3768 0.17896 0.0
C1195 C 0.99226 0.34106 0.17391 0.0
C1196 C 0.98619 0.31854 0.18801 0.0
C1197 C 0.00315 0.3827 0.14555 0.0
C1198 C 0.00705 0.36771 0.12641 0.0
C1199 C 0.00138 0.34702 0.1406 0.0
C1200 C 0.01627 0.37291 0.09102 0.0
C1201 C 0.00821 0.40479 0.13081 0.0
C1202 C 0.00307 0.36074 0.06296 0.0
C1203 C 0.01137 0.3658 0.0293 0.0
C1204 C 0.03314 0.38303 0.02308 0.0
C1205 C 0.04649 0.39494 0.05143 0.0
C1206 C 0.03809 0.38991 0.08516 0.0
H1207 H 1.00031 0.4125 0.14608 0.0
H1208 H 0.02638 0.41621 0.13106 0.0
H1209 H 0.00248 0.40295 0.10351 0.0
H1210 H 0.9862 0.34753 0.06708 0.0
H1211 H 0.00057 0.35626 0.00818 0.0
H1212 H 0.64998 0.00258 0.64934 0.0
H1213 H 0.65857 0.01822 0.59114 0.0
H1214 H 0.60589 0.95711 0.54949 0.0
H1215 H 0.59701 0.94113 0.60781 0.0
H1216 H 0.66981 0.00187 0.53037 0.0
H1217 H 0.59287 0.00637 0.51528 0.0
H1218 H 0.60266 0.00295 0.5569 0.0
H1219 H 0.58887 0.97979 0.52797 0.0
C1220 C 0.64024 0.99233 0.62789 0.0
C1221 C 0.62273 0.97057 0.63333 0.0
C1222 C 0.6452 0.00135 0.59464 0.0
C1223 C 0.63267 0.9889 0.56624 0.0
C1224 C 0.61552 0.96704 0.57128 0.0
H1225 H 0.65528 0.00658 0.34839 0.0
H1226 H 0.65136 0.99569 0.40899 0.0
C1227 C 0.61058 0.95792 0.60458 0.0
C1228 C 0.63757 0.99891 0.53134 0.0
H1229 H 0.6158 0.0148 0.46563 0.0
C1230 C 0.65807 0.0048 0.51622 0.0
C1231 C 0.62234 0.00303 0.51336 0.0
C1232 C 0.6005 0.99791 0.52922 0.0
C1233 C 0.66347 0.01409 0.48295 0.0
C1234 C 0.64789 0.01741 0.46443 0.0
C1235 C 0.62766 0.01216 0.47997 0.0
C1236 C 0.65166 0.025 0.42807 0.0
C1237 C 0.68577 0.02025 0.46779 0.0
C1238 C 0.65295 0.04506 0.41875 0.0
C1239 C 0.65525 0.05145 0.38393 0.0
C1240 C 0.656 0.03769 0.35793 0.0
C1241 C 0.65486 0.01767 0.36762 0.0
C1242 C 0.65272 0.01142 0.40231 0.0
H1243 H 0.6978 0.02207 0.48822 0.0
H1244 H 0.68386 0.00701 0.44976 0.0
H1245 H 0.69267 0.03597 0.45294 0.0
H1246 H 0.65199 0.05565 0.43839 0.0
H1247 H 0.65595 0.0669 0.37737 0.0
H1248 H 0.65016 0.65597 0.68035 0.0
H1249 H 0.65684 0.65091 0.74066 0.0
H1250 H 0.5988 0.65361 0.7714 0.0
H1251 H 0.59183 0.65872 0.71075 0.0
H1252 H 0.66194 0.67825 0.8011 0.0
H1253 H 0.58964 0.59262 0.80753 0.0
H1254 H 0.6012 0.60654 0.76694 0.0
H1255 H 0.58437 0.61397 0.79241 0.0
C1256 C 0.63885 0.65571 0.69982 0.0
C1257 C 0.62036 0.65765 0.69062 0.0
C1258 C 0.64275 0.65284 0.73432 0.0
C1259 C 0.62819 0.65167 0.76026 0.0
C1260 C 0.61008 0.65425 0.75153 0.0
H1261 H 0.64615 0.64847 0.98187 0.0
H1262 H 0.6407 0.65791 0.92331 0.0
C1263 C 0.6062 0.65727 0.71693 0.0
C1264 C 0.63174 0.64697 0.79623 0.0
H1265 H 0.61111 0.60668 0.85822 0.0
C1266 C 0.65079 0.66268 0.81375 0.0
C1267 C 0.61729 0.62648 0.81222 0.0
C1268 C 0.59703 0.6088 0.79386 0.0
C1269 C 0.65576 0.65844 0.84711 0.0
C1270 C 0.6412 0.63803 0.86322 0.0
C1271 C 0.62218 0.62231 0.84567 0.0
C1272 C 0.64533 0.63272 0.89848 0.0
C1273 C 0.67672 0.67558 0.86463 0.0
C1274 C 0.64954 0.61527 0.90381 0.0
C1275 C 0.65273 0.60978 0.93733 0.0
C1276 C 0.65152 0.62156 0.96605 0.0
C1277 C 0.64734 0.6391 0.96042 0.0
C1278 C 0.64427 0.6446 0.92695 0.0
H1279 H 0.68839 0.68818 0.84602 0.0
H1280 H 0.6725 0.68423 0.88478 0.0
H1281 H 0.68521 0.66765 0.87759 0.0
H1282 H 0.6503 0.60586 0.88202 0.0
H1283 H 0.65579 0.59612 0.94072 0.0
H1284 H 0.99909 0.63329 0.31426 0.0
H1285 H 0.98507 0.62749 0.25518 0.0
H1286 H 0.05188 0.65928 0.2158 0.0
H1287 H 0.06619 0.66469 0.27505 0.0
H1288 H 0.99171 0.65722 0.20474 0.0
H1289 H 0.02271 0.60154 0.16239 0.0
H1290 H 0.02249 0.60871 0.20726 0.0
H1291 H 0.044 0.62771 0.17866 0.0
C1292 C 0.01089 0.63903 0.29312 0.0
C1293 C 0.03381 0.64935 0.29944 0.0
C1294 C 0.0028 0.6357 0.25934 0.0
C1295 C 0.01741 0.64263 0.23114 0.0
C1296 C 0.04031 0.65333 0.23723 0.0
H1297 H 0.00136 0.64462 0.01065 0.0
H1298 H 0.01431 0.65108 0.0704 0.0
C1299 C 0.04846 0.65653 0.2711 0.0
C1300 C 0.00852 0.63886 0.19545 0.0
H1301 H 0.00739 0.61394 0.11873 0.0
C1302 C 0.99504 0.64767 0.18597 0.0
C1303 C 0.01279 0.62625 0.17115 0.0
C1304 C 0.0261 0.61531 0.18041 0.0
C1305 C 0.98603 0.64454 0.15257 0.0
C1306 C 0.99062 0.63227 0.12824 0.0
C1307 C 0.004 0.62338 0.13764 0.0
C1308 C 0.98218 0.62894 0.09245 0.0
C1309 C 0.972 0.65465 0.14319 0.0
C1310 C 0.95976 0.61437 0.08529 0.0
C1311 C 0.9522 0.61049 0.05103 0.0
C1312 C 0.96702 0.62118 0.02351 0.0
C1313 C 0.98943 0.63607 0.03108 0.0
C1314 C 0.99693 0.63981 0.06522 0.0
H1315 H 0.97239 0.66609 0.16357 0.0
H1316 H 0.97775 0.66385 0.11835 0.0
H1317 H 0.95459 0.64128 0.13955 0.0
H1318 H 0.94821 0.60572 0.10614 0.0
H1319 H 0.93487 0.5989 0.04612 0.0
H1320 H 0.34474 0.9938 0.34684 0.0
H1321 H 0.34956 0.00532 0.4072 0.0
H1322 H 0.34749 0.94479 0.43752 0.0
H1323 H 0.34264 0.93293 0.37673 0.0
H1324 H 0.32207 0.98286 0.46683 0.0
H1325 H 0.40777 0.99659 0.47522 0.0
H1326 H 0.39417 0.99422 0.43431 0.0
H1327 H 0.38662 0.96995 0.45983 0.0
C1328 C 0.34512 0.98276 0.36621 0.0
C1329 C 0.34339 0.96243 0.35684 0.0
C1330 C 0.34786 0.98941 0.40074 0.0
C1331 C 0.3491 0.976 0.42661 0.0
C1332 C 0.3468 0.95544 0.41771 0.0
H1333 H 0.35063 0.99774 0.64811 0.0
H1334 H 0.34164 0.98252 0.5897 0.0
C1335 C 0.34392 0.94866 0.38304 0.0
C1336 C 0.35345 0.9841 0.4627 0.0
H1337 H 0.3933 0.00403 0.52538 0.0
C1338 C 0.33756 0.98736 0.4798 0.0
C1339 C 0.37383 0.99024 0.47912 0.0
C1340 C 0.39171 0.98777 0.46123 0.0
C1341 C 0.34153 0.99663 0.51311 0.0
C1342 C 0.36185 0.00262 0.52962 0.0
C1343 C 0.37774 0.99936 0.51253 0.0
C1344 C 0.36691 0.01224 0.56478 0.0
C1345 C 0.3242 1.0004 0.5301 0.0
C1346 C 0.38425 0.03398 0.57003 0.0
C1347 C 0.38947 0.04285 0.60346 0.0
C1348 C 0.37754 0.02999 0.6322 0.0
C1349 C 0.36011 0.0082 0.62665 0.0
C1350 C 0.35487 0.99944 0.59326 0.0
H1351 H 0.31169 0.99934 0.51118 0.0
H1352 H 0.31548 0.98759 0.55029 0.0
H1353 H 0.33198 0.01687 0.5429 0.0
H1354 H 0.39377 0.04404 0.54824 0.0
H1355 H 0.40307 0.05961 0.60679 0.0
H1356 H 0.4122 0.41882 0.11644 0.0
H1357 H 0.45154 0.44643 0.12216 0.0
H1358 H 0.44637 0.48224 0.03477 0.0
H1359 H 0.40698 0.45543 0.0301 0.0
H1360 H 0.48516 0.45822 0.08208 0.0
H1361 H 0.47639 0.53188 0.10111 0.0
H1362 H 0.45292 0.50417 0.10207 0.0
H1363 H 0.46348 0.5183 0.06136 0.0
C1364 C 0.41948 0.43266 0.09857 0.0
C1365 C 0.40649 0.43508 0.07301 0.0
C1366 C 0.44194 0.44844 0.10189 0.0
C1367 C 0.45184 0.46677 0.07947 0.0
C1368 C 0.43899 0.46876 0.05324 0.0
H1369 H 0.59021 0.5423 0.02831 0.0
H1370 H 0.55088 0.51538 0.0335 0.0
C1371 C 0.41649 0.45328 0.05037 0.0
C1372 C 0.47578 0.48335 0.08251 0.0
H1373 H 0.51245 0.53895 0.08327 0.0
C1374 C 0.4911 0.47586 0.08279 0.0
C1375 C 0.48363 0.5064 0.08433 0.0
C1376 C 0.4682 0.51562 0.08762 0.0
C1377 C 0.51398 0.49075 0.08344 0.0
C1378 C 0.52182 0.51381 0.0823 0.0
C1379 C 0.50651 0.5213 0.08347 0.0
C1380 C 0.54573 0.53043 0.07903 0.0
C1381 C 0.52943 0.48151 0.08576 0.0
C1382 C 0.5558 0.54855 0.10182 0.0
C1383 C 0.57821 0.56441 0.09823 0.0
C1384 C 0.59101 0.56226 0.07203 0.0
C1385 C 0.58086 0.54424 0.04907 0.0
C1386 C 0.55839 0.5287 0.05222 0.0
H1387 H 0.52133 0.46513 0.09888 0.0
H1388 H 0.53396 0.47907 0.05922 0.0
H1389 H 0.54481 0.49283 0.1001 0.0
H1390 H 0.54634 0.55036 0.12255 0.0
H1391 H 0.58561 0.5781 0.11636 0.0
H1392 H 0.01432 0.58686 0.45469 0.0
H1393 H 0.00312 0.54769 0.46085 0.0
H1394 H 0.04044 0.55191 0.36908 0.0
H1395 H 0.05264 0.59123 0.36401 0.0
H1396 H 0.97942 0.51418 0.42274 0.0
H1397 H 0.06158 0.52108 0.43035 0.0
H1398 H 0.05814 0.545 0.43286 0.0
H1399 H 0.05946 0.5338 0.39134 0.0
C1400 C 0.02028 0.57943 0.43605 0.0
C1401 C 0.03447 0.59212 0.40902 0.0
C1402 C 0.0139 0.55706 0.43959 0.0
C1403 C 0.02132 0.54688 0.4159 0.0
C1404 C 0.03514 0.55949 0.38848 0.0
H1405 H 0.95288 0.40789 0.36684 0.0
H1406 H 0.96661 0.4475 0.37214 0.0
C1407 C 0.04194 0.58195 0.3854 0.0
C1408 C 0.01364 0.52283 0.41864 0.0
H1409 H 0.03128 0.48519 0.4144 0.0
C1410 C 0.99082 0.50789 0.4214 0.0
C1411 C 0.02846 0.51449 0.41774 0.0
C1412 C 0.05327 0.52949 0.41833 0.0
C1413 C 0.98237 0.48492 0.42196 0.0
C1414 C 0.99705 0.47658 0.41805 0.0
C1415 C 0.01994 0.49151 0.41669 0.0
C1416 C 0.98903 0.4525 0.41452 0.0
C1417 C 0.95779 0.46995 0.4272 0.0
C1418 C 0.99785 0.44223 0.43532 0.0
C1419 C 0.99051 0.41964 0.43154 0.0
C1420 C 0.97401 0.40688 0.40719 0.0
C1421 C 0.96538 0.41722 0.38618 0.0
C1422 C 0.97307 0.43985 0.38943 0.0
H1423 H 0.95056 0.47845 0.44209 0.0
H1424 H 0.94945 0.46541 0.40158 0.0
H1425 H 0.95409 0.45455 0.44116 0.0
H1426 H 0.0103 0.45165 0.45468 0.0
H1427 H 0.99742 0.41209 0.44813 0.0
H1428 H 0.54378 0.95137 0.69479 0.0
H1429 H 0.51731 0.96447 0.69799 0.0
H1430 H 0.55153 0.00419 0.7873 0.0
H1431 H 0.57883 0.99199 0.78306 0.0
H1432 H 0.48866 0.95998 0.74448 0.0
H1433 H 0.5482 0.0497 0.73 0.0
H1434 H 0.55613 0.029 0.72367 0.0
H1435 H 0.5542 0.03786 0.76675 0.0
C1436 C 0.54576 0.96301 0.715 0.0
C1437 C 0.56351 0.97082 0.73847 0.0
C1438 C 0.53058 0.97046 0.71685 0.0
C1439 C 0.53261 0.98564 0.7425 0.0
C1440 C 0.54999 0.99303 0.7666 0.0
H1441 H 0.42113 0.00789 0.78227 0.0
H1442 H 0.44834 0.9956 0.78684 0.0
C1443 C 0.5655 0.98594 0.76429 0.0
C1444 C 0.51625 0.99336 0.74402 0.0
H1445 H 0.51125 0.03963 0.74396 0.0
C1446 C 0.49361 0.97741 0.74427 0.0
C1447 C 0.52267 0.0161 0.74336 0.0
C1448 C 0.5466 0.03414 0.74057 0.0
C1449 C 0.47724 0.9835 0.74338 0.0
C1450 C 0.48366 0.00624 0.74374 0.0
C1451 C 0.5063 0.0222 0.74398 0.0
C1452 C 0.46731 0.01396 0.74194 0.0
C1453 C 0.45331 0.96545 0.74062 0.0
C1454 C 0.46937 0.02906 0.7161 0.0
C1455 C 0.45424 0.03656 0.71406 0.0
C1456 C 0.4365 0.02888 0.73753 0.0
C1457 C 0.43444 0.01383 0.7635 0.0
C1458 C 0.44991 0.00669 0.766 0.0
H1459 H 0.45173 0.94985 0.73026 0.0
H1460 H 0.44569 0.96184 0.76678 0.0
H1461 H 0.4438 0.97052 0.72355 0.0
H1462 H 0.48265 0.03496 0.69726 0.0
H1463 H 0.45626 0.04815 0.69373 0.0
H1464 H 0.58658 0.58386 0.56604 0.0
H1465 H 0.55944 0.54421 0.56487 0.0
H1466 H 0.50964 0.55737 0.60576 0.0
H1467 H 0.53648 0.59693 0.60714 0.0
H1468 H 0.51377 0.52289 0.64054 0.0
H1469 H 0.50549 0.51201 0.49745 0.0
H1470 H 0.5333 0.52581 0.51414 0.0
H1471 H 0.51673 0.53878 0.51801 0.0
C1472 C 0.56984 0.57836 0.57467 0.0
C1473 C 0.56374 0.59365 0.58661 0.0
C1474 C 0.55435 0.55571 0.57382 0.0
C1475 C 0.53253 0.54796 0.58489 0.0
C1476 C 0.5264 0.56309 0.59697 0.0
H1477 H 0.41557 0.41774 0.56517 0.0
H1478 H 0.44239 0.45748 0.56383 0.0
C1479 C 0.5418 0.58571 0.59768 0.0
C1480 C 0.51616 0.52399 0.58487 0.0
H1481 H 0.48696 0.47952 0.53166 0.0
C1482 C 0.50788 0.51338 0.61677 0.0
C1483 C 0.5084 0.51177 0.55375 0.0
C1484 C 0.51625 0.52262 0.51881 0.0
C1485 C 0.49223 0.49071 0.61841 0.0
C1486 C 0.48481 0.4784 0.58735 0.0
C1487 C 0.49283 0.48906 0.5554 0.0
C1488 C 0.46877 0.45436 0.58763 0.0
C1489 C 0.48356 0.48012 0.6533 0.0
C1490 C 0.47488 0.43952 0.60108 0.0
C1491 C 0.45969 0.41684 0.60179 0.0
C1492 C 0.43803 0.40855 0.58907 0.0
C1493 C 0.43205 0.42352 0.57529 0.0
C1494 C 0.44734 0.44622 0.57443 0.0
H1495 H 0.48747 0.49265 0.67395 0.0
H1496 H 0.46535 0.46889 0.65235 0.0
H1497 H 0.49126 0.47006 0.66046 0.0
H1498 H 0.49145 0.44551 0.61103 0.0
H1499 H 0.46494 0.40585 0.61252 0.0
H1500 H 0.9943 0.58308 0.87173 0.0
H1501 H 0.00654 0.55589 0.86546 0.0
H1502 H 0.96523 0.51889 0.95184 0.0
H1503 H 0.9521 0.54526 0.95697 0.0
H1504 H 0.02855 0.54437 0.90525 0.0
H1505 H 0.94698 0.46985 0.88498 0.0
H1506 H 0.95062 0.49733 0.88449 0.0
H1507 H 0.94713 0.48297 0.92495 0.0
C1508 C 0.98774 0.56904 0.88921 0.0
C1509 C 0.9721 0.56618 0.91465 0.0
C1510 C 0.99472 0.55351 0.88559 0.0
C1511 C 0.9864 0.53499 0.90761 0.0
C1512 C 0.97126 0.53252 0.93366 0.0
H1513 H 0.0513 0.46121 0.95828 0.0
H1514 H 0.03861 0.48792 0.95296 0.0
C1515 C 0.96392 0.54774 0.93679 0.0
C1516 C 0.99422 0.51876 0.90443 0.0
H1517 H 0.97632 0.46338 0.90312 0.0
C1518 C 0.01711 0.52666 0.90431 0.0
C1519 C 0.97938 0.49565 0.90231 0.0
C1520 C 0.95469 0.486 0.89877 0.0
C1521 C 0.02553 0.51212 0.90354 0.0
C1522 C 0.01065 0.48897 0.90442 0.0
C1523 C 0.98778 0.48109 0.90311 0.0
C1524 C 0.01837 0.47266 0.90754 0.0
C1525 C 0.05028 0.52182 0.90133 0.0
C1526 C 0.01043 0.45451 0.88482 0.0
C1527 C 0.01714 0.43877 0.88852 0.0
C1528 C 0.03212 0.44106 0.91475 0.0
C1529 C 0.03998 0.45917 0.93751 0.0
C1530 C 0.0329 0.4746 0.93428 0.0
H1531 H 0.0583 0.53822 0.88825 0.0
H1532 H 0.05723 0.52437 0.9279 0.0
H1533 H 0.05468 0.51075 0.88699 0.0
H1534 H 0.99909 0.45254 0.86413 0.0
H1535 H 0.01085 0.425 0.87055 0.0
H1536 H 0.58203 0.99419 0.24622 0.0
H1537 H 0.54229 0.98125 0.24429 0.0
H1538 H 0.55586 0.04841 0.25538 0.0
H1539 H 0.59549 0.06158 0.25759 0.0
H1540 H 0.51748 0.99079 0.29908 0.0
H1541 H 0.51422 0.02191 0.16765 0.0
H1542 H 0.53618 0.01691 0.18094 0.0
H1543 H 0.53577 0.04102 0.19612 0.0
C1544 C 0.5766 0.00625 0.24806 0.0
C1545 C 0.59202 0.02896 0.25191 0.0
C1546 C 0.5539 0.99881 0.24699 0.0
C1547 C 0.54626 0.01393 0.24932 0.0
C1548 C 0.56151 0.03654 0.25309 0.0
H1549 H 0.41749 0.00461 0.24578 0.0
H1550 H 0.45708 0.017 0.24537 0.0
C1551 C 0.58417 0.044 0.25445 0.0
C1552 C 0.52227 0.00608 0.24899 0.0
H1553 H 0.48157 0.00709 0.20134 0.0
C1554 C 0.50954 0.9942 0.27768 0.0
C1555 C 0.51215 0.01082 0.22114 0.0
C1556 C 0.52517 0.02324 0.18953 0.0
C1557 C 0.48688 0.98722 0.27956 0.0
C1558 C 0.47664 0.99174 0.25151 0.0
C1559 C 0.48944 0.00362 0.22278 0.0
C1560 C 0.45263 0.98416 0.25139 0.0
C1561 C 0.47431 0.97562 0.31199 0.0
C1562 C 0.437 0.96156 0.25431 0.0
C1563 C 0.4144 0.95443 0.25485 0.0
C1564 C 0.40692 0.96974 0.25189 0.0
C1565 C 0.42264 0.99236 0.24813 0.0
C1566 C 0.44528 0.99948 0.24788 0.0
H1567 H 0.4856 0.97928 0.33445 0.0
H1568 H 0.46189 0.98054 0.31872 0.0
H1569 H 0.46548 0.95746 0.30766 0.0
H1570 H 0.44227 0.94938 0.25614 0.0
H1571 H 0.40283 0.93688 0.25755 0.0
loop_
_geom_bond_atom_site_label_1
_geom_bond_atom_site_label_2
_geom_bond_distance
_geom_bond_site_symmetry_2
_ccdc_geom_bond_type
Co0 O2 2.143 . S
Co0 O8 2.074 . S
Co0 O11 2.093 . S
Co0 O24 2.097 . S
Co0 N41 2.151 . S
Co0 N49 2.214 . S
Co1 O2 2.160 . S
Co1 O7 2.058 1_554 S
Co1 O17 2.057 . S
Co1 O32 2.037 . S
Co1 N36 2.145 . S
Co1 N57 2.257 . S
O2 Co0 2.143 . S
O2 Co1 2.160 . S
C3 O4 1.278 . S
C3 O11 1.224 . S
O4 C3 1.278 . S
C5 O6 1.245 . S
C5 O17 1.232 . S
O6 C5 1.245 . S
O7 Co1 2.058 1_556 S
O7 C33 1.269 . S
O8 Co0 2.074 . S
O8 C33 1.257 1_554 S
H9 C34 0.930 . S
H10 C40 0.930 . S
O11 Co0 2.093 . S
O11 C3 1.224 . S
H12 C44 0.929 . S
H13 C46 0.930 . S
H14 C47 0.930 . S
H15 C45 0.929 . S
H16 C48 0.928 . S
O17 Co1 2.057 . S
O17 C5 1.232 . S
H18 C37 0.929 . S
H19 C38 0.929 1_554 S
H20 C50 0.931 . S
H21 C42 0.929 . S
H22 C51 0.930 . S
H23 C43 0.931 . S
O24 Co0 2.097 . S
O24 C52 1.214 . S
H25 C53 0.929 . S
H26 C54 0.929 . S
H27 C55 0.930 . S
H28 C56 0.929 . S
H29 C58 0.930 . S
H30 C35 0.930 . S
H31 C39 0.930 . S
O32 Co1 2.037 . S
O32 C52 1.234 . S
C33 O7 1.269 . S
C33 O8 1.257 1_556 S
C34 H9 0.930 . S
C34 C37 1.388 . S
C34 C39 1.418 . S
C35 H30 0.930 . S
C35 C38 1.404 . S
C35 C39 1.353 . S
N36 Co1 2.145 . S
N36 C37 1.397 1_554 S
N36 C38 1.334 1_554 S
C37 H18 0.929 . S
C37 C34 1.388 . S
C37 N36 1.397 1_556 S
C38 H19 0.929 1_556 S
C38 C35 1.404 . S
C38 N36 1.334 1_556 S
C39 H31 0.930 . S
C39 C34 1.418 . S
C39 C35 1.353 . S
C40 H10 0.930 . S
C40 N41 1.330 . S
C40 C42 1.446 . S
N41 Co0 2.151 . S
N41 C40 1.330 . S
N41 C45 1.418 . S
C42 H21 0.929 . S
C42 C40 1.446 . S
C42 C43 1.332 . S
C43 H23 0.931 . S
C43 C42 1.332 . S
C43 C44 1.267 . S
C44 H12 0.929 . S
C44 C43 1.267 . S
C44 C45 1.251 . S
C45 H15 0.929 . S
C45 N41 1.418 . S
C45 C44 1.251 . S
C46 H13 0.930 . S
C46 C48 1.406 . S
C46 C51 1.261 . S
C47 H14 0.930 . S
C47 N49 1.325 . S
C47 C50 1.357 . S
C48 H16 0.928 . S
C48 C46 1.406 . S
C48 N49 1.261 . S
N49 Co0 2.214 . S
N49 C47 1.325 . S
N49 C48 1.261 . S
C50 H20 0.931 . S
C50 C47 1.357 . S
C50 C51 1.312 . S
C51 H22 0.930 . S
C51 C46 1.261 . S
C51 C50 1.312 . S
C52 O24 1.214 . S
C52 O32 1.234 . S
C53 H25 0.929 . S
C53 C56 1.391 . S
C53 C58 1.391 . S
C54 H26 0.929 . S
C54 C55 1.390 . S
C54 N57 1.391 . S
C55 H27 0.930 . S
C55 C54 1.390 . S
C55 C56 1.392 . S
C56 H28 0.929 . S
C56 C53 1.391 . S
C56 C55 1.392 . S
N57 Co1 2.257 . S
N57 C54 1.391 . S
N57 C58 1.388 . S
C58 H29 0.930 . S
C58 C53 1.391 . S
C58 N57 1.388 . S
Co59 O61 2.143 . S
Co59 O67 2.074 . S
Co59 O70 2.093 . S
Co59 O83 2.097 . S
Co59 N100 2.191 . S
Co59 N108 2.214 1_655 S
Co60 O61 2.160 . S
Co60 O66 2.058 . S
Co60 O76 2.057 . S
Co60 O91 2.037 . S
Co60 N95 2.145 . S
Co60 N116 2.257 . S
O61 Co59 2.143 . S
O61 Co60 2.160 . S
C62 O63 1.278 . S
C62 O70 1.224 . S
O63 C62 1.278 . S
C64 O65 1.245 . S
C64 O76 1.232 . S
O65 C64 1.245 . S
O66 Co60 2.058 . S
O66 C92 1.269 . S
O67 Co59 2.074 . S
O67 C92 1.257 . S
H68 C93 0.930 . S
H69 C99 0.930 . S
O70 Co59 2.093 . S
O70 C62 1.224 . S
H71 C103 0.929 . S
H72 C105 0.930 . S
H73 C106 0.930 . S
H74 C104 0.929 . S
H75 C107 0.928 . S
O76 Co60 2.057 . S
O76 C64 1.232 . S
H77 C96 0.929 . S
H78 C97 0.929 . S
H79 C109 0.931 . S
H80 C101 0.930 . S
H81 C110 0.930 . S
H82 C102 0.931 . S
O83 Co59 2.097 . S
O83 C111 1.214 . S
H84 C112 0.929 . S
H85 C113 0.929 . S
H86 C114 0.930 . S
H87 C115 0.929 . S
H88 C117 0.930 . S
H89 C94 0.930 . S
H90 C98 0.930 . S
O91 Co60 2.037 . S
O91 C111 1.234 . S
C92 O66 1.269 . S
C92 O67 1.257 . S
C93 H68 0.930 . S
C93 C96 1.388 . S
C93 C98 1.418 . S
C94 H89 0.930 . S
C94 C97 1.404 . S
C94 C98 1.353 . S
N95 Co60 2.145 . S
N95 C96 1.397 . S
N95 C97 1.334 . S
C96 H77 0.929 . S
C96 C93 1.388 . S
C96 N95 1.397 . S
C97 H78 0.929 . S
C97 C94 1.404 . S
C97 N95 1.334 . S
C98 H90 0.930 . S
C98 C93 1.418 . S
C98 C94 1.353 . S
C99 H69 0.930 . S
C99 N100 1.328 . S
C99 C101 1.479 . S
N100 Co59 2.191 . S
N100 C99 1.328 . S
N100 C104 1.373 1_655 S
C101 H80 0.930 . S
C101 C99 1.479 . S
C101 C102 1.300 1_655 S
C102 H82 0.931 . S
C102 C101 1.300 1_455 S
C102 C103 1.267 . S
C103 H71 0.929 . S
C103 C102 1.267 . S
C103 C104 1.251 . S
C104 H74 0.929 . S
C104 N100 1.373 1_455 S
C104 C103 1.251 . S
C105 H72 0.930 . S
C105 C107 1.406 . S
C105 C110 1.261 . S
C106 H73 0.930 . S
C106 N108 1.325 . S
C106 C109 1.357 . S
C107 H75 0.928 . S
C107 C105 1.406 . S
C107 N108 1.261 . S
N108 Co59 2.214 1_455 S
N108 C106 1.325 . S
N108 C107 1.261 . S
C109 H79 0.931 . S
C109 C106 1.357 . S
C109 C110 1.312 . S
C110 H81 0.930 . S
C110 C105 1.261 . S
C110 C109 1.312 . S
C111 O83 1.214 . S
C111 O91 1.234 . S
C112 H84 0.929 . S
C112 C115 1.391 . S
C112 C117 1.391 . S
C113 H85 0.929 . S
C113 C114 1.390 . S
C113 N116 1.391 . S
C114 H86 0.930 . S
C114 C113 1.390 . S
C114 C115 1.392 . S
C115 H87 0.929 . S
C115 C112 1.391 . S
C115 C114 1.392 . S
N116 Co60 2.257 . S
N116 C113 1.391 . S
N116 C117 1.388 . S
C117 H88 0.930 . S
C117 C112 1.391 . S
C117 N116 1.388 . S
Co118 O120 2.143 . S
Co118 O126 2.074 . S
Co118 O129 2.093 . S
Co118 O142 2.097 . S
Co118 N159 2.136 . S
Co118 N167 2.214 1_565 S
Co119 O120 2.160 . S
Co119 O125 2.058 . S
Co119 O135 2.057 . S
Co119 O150 2.037 . S
Co119 N154 2.145 . S
Co119 N175 2.257 . S
O120 Co118 2.143 . S
O120 Co119 2.160 . S
C121 O122 1.278 . S
C121 O129 1.224 . S
O122 C121 1.278 . S
C123 O124 1.245 . S
C123 O135 1.232 . S
O124 C123 1.245 . S
O125 Co119 2.058 . S
O125 C151 1.269 . S
O126 Co118 2.074 . S
O126 C151 1.257 . S
H127 C152 0.930 . S
H128 C158 0.930 . S
O129 Co118 2.093 . S
O129 C121 1.224 . S
H130 C162 0.929 . S
H131 C164 0.930 . S
H132 C165 0.930 . S
H133 C163 0.929 . S
H134 C166 0.928 . S
O135 Co119 2.057 . S
O135 C123 1.232 . S
H136 C155 0.929 . S
H137 C156 0.929 . S
H138 C168 0.931 . S
H139 C160 0.960 . S
H140 C169 0.930 . S
H141 C161 0.931 . S
O142 Co118 2.097 . S
O142 C170 1.214 . S
H143 C171 0.929 . S
H144 C172 0.929 . S
H145 C173 0.930 . S
H146 C174 0.929 . S
H147 C176 0.930 . S
H148 C153 0.930 . S
H149 C157 0.930 . S
O150 Co119 2.037 . S
O150 C170 1.234 . S
C151 O125 1.269 . S
C151 O126 1.257 . S
C152 H127 0.930 . S
C152 C155 1.388 . S
C152 C157 1.418 . S
C153 H148 0.930 . S
C153 C156 1.404 . S
C153 C157 1.353 . S
N154 Co119 2.145 . S
N154 C155 1.397 . S
N154 C156 1.334 . S
C155 H136 0.929 . S
C155 C152 1.388 . S
C155 N154 1.397 . S
C156 H137 0.929 . S
C156 C153 1.404 . S
C156 N154 1.334 . S
C157 H149 0.930 . S
C157 C152 1.418 . S
C157 C153 1.353 . S
C158 H128 0.930 . S
C158 N159 1.365 . S
C158 C160 1.437 . S
N159 Co118 2.136 . S
N159 C158 1.365 . S
N159 C163 1.393 1_565 S
C160 H139 0.960 . S
C160 C158 1.437 . S
C160 C161 1.309 1_565 S
C161 H141 0.931 . S
C161 C160 1.309 1_545 S
C161 C162 1.267 . S
C162 H130 0.929 . S
C162 C161 1.267 . S
C162 C163 1.251 . S
C163 H133 0.929 . S
C163 N159 1.393 1_545 S
C163 C162 1.251 . S
C164 H131 0.930 . S
C164 C166 1.406 . S
C164 C169 1.261 . S
C165 H132 0.930 . S
C165 N167 1.325 . S
C165 C168 1.357 . S
C166 H134 0.928 . S
C166 C164 1.406 . S
C166 N167 1.261 . S
N167 Co118 2.214 1_545 S
N167 C165 1.325 . S
N167 C166 1.261 . S
C168 H138 0.931 . S
C168 C165 1.357 . S
C168 C169 1.312 . S
C169 H140 0.930 . S
C169 C164 1.261 . S
C169 C168 1.312 . S
C170 O142 1.214 . S
C170 O150 1.234 . S
C171 H143 0.929 . S
C171 C174 1.391 . S
C171 C176 1.391 . S
C172 H144 0.929 . S
C172 C173 1.390 . S
C172 N175 1.391 . S
C173 H145 0.930 . S
C173 C172 1.390 . S
C173 C174 1.392 . S
C174 H146 0.929 . S
C174 C171 1.391 . S
C174 C173 1.392 . S
N175 Co119 2.257 . S
N175 C172 1.391 . S
N175 C176 1.388 . S
C176 H147 0.930 . S
C176 C171 1.391 . S
C176 N175 1.388 . S
Co177 O179 2.143 . S
Co177 O185 2.074 . S
Co177 O188 2.093 . S
Co177 O201 2.097 . S
Co177 N218 2.151 . S
Co177 N226 2.214 . S
Co178 O179 2.160 . S
Co178 O184 2.058 1_554 S
Co178 O194 2.057 . S
Co178 O209 2.037 . S
Co178 N213 2.145 . S
Co178 N234 2.257 . S
O179 Co177 2.143 . S
O179 Co178 2.160 . S
C180 O181 1.278 . S
C180 O188 1.224 . S
O181 C180 1.278 . S
C182 O183 1.245 . S
C182 O194 1.232 . S
O183 C182 1.245 . S
O184 Co178 2.058 1_556 S
O184 C210 1.269 . S
O185 Co177 2.074 . S
O185 C210 1.257 1_554 S
H186 C211 0.930 . S
H187 C217 0.930 . S
O188 Co177 2.093 . S
O188 C180 1.224 . S
H189 C221 0.929 . S
H190 C223 0.930 . S
H191 C224 0.930 . S
H192 C222 0.929 . S
H193 C225 0.928 . S
O194 Co178 2.057 . S
O194 C182 1.232 . S
H195 C214 0.929 . S
H196 C215 0.929 1_554 S
H197 C227 0.931 . S
H198 C219 0.929 . S
H199 C228 0.930 . S
H200 C220 0.931 . S
O201 Co177 2.097 . S
O201 C229 1.214 . S
H202 C230 0.929 . S
H203 C231 0.929 . S
H204 C232 0.930 . S
H205 C233 0.929 . S
H206 C235 0.930 . S
H207 C212 0.930 . S
H208 C216 0.930 . S
O209 Co178 2.037 . S
O209 C229 1.234 . S
C210 O184 1.269 . S
C210 O185 1.257 1_556 S
C211 H186 0.930 . S
C211 C214 1.388 . S
C211 C216 1.418 . S
C212 H207 0.930 . S
C212 C215 1.404 . S
C212 C216 1.353 . S
N213 Co178 2.145 . S
N213 C214 1.397 1_554 S
N213 C215 1.334 1_554 S
C214 H195 0.929 . S
C214 C211 1.388 . S
C214 N213 1.397 1_556 S
C215 H196 0.929 1_556 S
C215 C212 1.404 . S
C215 N213 1.334 1_556 S
C216 H208 0.930 . S
C216 C211 1.418 . S
C216 C212 1.353 . S
C217 H187 0.930 . S
C217 N218 1.330 . S
C217 C219 1.446 . S
N218 Co177 2.151 . S
N218 C217 1.330 . S
N218 C222 1.418 . S
C219 H198 0.929 . S
C219 C217 1.446 . S
C219 C220 1.332 . S
C220 H200 0.931 . S
C220 C219 1.332 . S
C220 C221 1.267 . S
C221 H189 0.929 . S
C221 C220 1.267 . S
C221 C222 1.251 . S
C222 H192 0.929 . S
C222 N218 1.418 . S
C222 C221 1.251 . S
C223 H190 0.930 . S
C223 C225 1.406 . S
C223 C228 1.261 . S
C224 H191 0.930 . S
C224 N226 1.325 . S
C224 C227 1.357 . S
C225 H193 0.928 . S
C225 C223 1.406 . S
C225 N226 1.261 . S
N226 Co177 2.214 . S
N226 C224 1.325 . S
N226 C225 1.261 . S
C227 H197 0.931 . S
C227 C224 1.357 . S
C227 C228 1.312 . S
C228 H199 0.930 . S
C228 C223 1.261 . S
C228 C227 1.312 . S
C229 O201 1.214 . S
C229 O209 1.234 . S
C230 H202 0.929 . S
C230 C233 1.391 . S
C230 C235 1.391 . S
C231 H203 0.929 . S
C231 C232 1.390 . S
C231 N234 1.391 . S
C232 H204 0.930 . S
C232 C231 1.390 . S
C232 C233 1.392 . S
C233 H205 0.929 . S
C233 C230 1.391 . S
C233 C232 1.392 . S
N234 Co178 2.257 . S
N234 C231 1.391 . S
N234 C235 1.388 . S
C235 H206 0.930 . S
C235 C230 1.391 . S
C235 N234 1.388 . S
Co236 O238 2.143 . S
Co236 O244 2.074 . S
Co236 O247 2.093 . S
Co236 O260 2.097 . S
Co236 N277 2.191 . S
Co236 N285 2.214 1_455 S
Co237 O238 2.160 . S
Co237 O243 2.058 . S
Co237 O253 2.057 . S
Co237 O268 2.037 . S
Co237 N272 2.145 . S
Co237 N293 2.257 . S
O238 Co236 2.143 . S
O238 Co237 2.160 . S
C239 O240 1.278 . S
C239 O247 1.224 . S
O240 C239 1.278 . S
C241 O242 1.245 . S
C241 O253 1.232 . S
O242 C241 1.245 . S
O243 Co237 2.058 . S
O243 C269 1.269 . S
O244 Co236 2.074 . S
O244 C269 1.257 . S
H245 C270 0.930 . S
H246 C276 0.930 . S
O247 Co236 2.093 . S
O247 C239 1.224 . S
H248 C280 0.929 . S
H249 C282 0.930 . S
H250 C283 0.930 . S
H251 C281 0.929 . S
H252 C284 0.928 . S
O253 Co237 2.057 . S
O253 C241 1.232 . S
H254 C273 0.929 . S
H255 C274 0.929 . S
H256 C286 0.931 . S
H257 C278 0.930 . S
H258 C287 0.930 . S
H259 C279 0.931 . S
O260 Co236 2.097 . S
O260 C288 1.214 . S
H261 C289 0.929 . S
H262 C290 0.929 . S
H263 C291 0.930 . S
H264 C292 0.929 . S
H265 C294 0.930 . S
H266 C271 0.930 . S
H267 C275 0.930 . S
O268 Co237 2.037 . S
O268 C288 1.234 . S
C269 O243 1.269 . S
C269 O244 1.257 . S
C270 H245 0.930 . S
C270 C273 1.388 . S
C270 C275 1.418 . S
C271 H266 0.930 . S
C271 C274 1.404 . S
C271 C275 1.353 . S
N272 Co237 2.145 . S
N272 C273 1.397 . S
N272 C274 1.334 . S
C273 H254 0.929 . S
C273 C270 1.388 . S
C273 N272 1.397 . S
C274 H255 0.929 . S
C274 C271 1.404 . S
C274 N272 1.334 . S
C275 H267 0.930 . S
C275 C270 1.418 . S
C275 C271 1.353 . S
C276 H246 0.930 . S
C276 N277 1.328 . S
C276 C278 1.479 . S
N277 Co236 2.191 . S
N277 C276 1.328 . S
N277 C281 1.373 1_455 S
C278 H257 0.930 . S
C278 C276 1.479 . S
C278 C279 1.300 1_455 S
C279 H259 0.931 . S
C279 C278 1.300 1_655 S
C279 C280 1.267 . S
C280 H248 0.929 . S
C280 C279 1.267 . S
C280 C281 1.251 . S
C281 H251 0.929 . S
C281 N277 1.373 1_655 S
C281 C280 1.251 . S
C282 H249 0.930 . S
C282 C284 1.406 . S
C282 C287 1.261 . S
C283 H250 0.930 . S
C283 N285 1.325 . S
C283 C286 1.357 . S
C284 H252 0.928 . S
C284 C282 1.406 . S
C284 N285 1.261 . S
N285 Co236 2.214 1_655 S
N285 C283 1.325 . S
N285 C284 1.261 . S
C286 H256 0.931 . S
C286 C283 1.357 . S
C286 C287 1.312 . S
C287 H258 0.930 . S
C287 C282 1.261 . S
C287 C286 1.312 . S
C288 O260 1.214 . S
C288 O268 1.234 . S
C289 H261 0.929 . S
C289 C292 1.391 . S
C289 C294 1.391 . S
C290 H262 0.929 . S
C290 C291 1.390 . S
C290 N293 1.391 . S
C291 H263 0.930 . S
C291 C290 1.390 . S
C291 C292 1.392 . S
C292 H264 0.929 . S
C292 C289 1.391 . S
C292 C291 1.392 . S
N293 Co237 2.257 . S
N293 C290 1.391 . S
N293 C294 1.388 . S
C294 H265 0.930 . S
C294 C289 1.391 . S
C294 N293 1.388 . S
Co295 O297 2.143 . S
Co295 O303 2.074 . S
Co295 O306 2.093 . S
Co295 O319 2.097 . S
Co295 N336 2.136 . S
Co295 N344 2.214 1_545 S
Co296 O297 2.160 . S
Co296 O302 2.058 . S
Co296 O312 2.057 . S
Co296 O327 2.037 . S
Co296 N331 2.145 . S
Co296 N352 2.257 . S
O297 Co295 2.143 . S
O297 Co296 2.160 . S
C298 O299 1.278 . S
C298 O306 1.224 . S
O299 C298 1.278 . S
C300 O301 1.245 . S
C300 O312 1.232 . S
O301 C300 1.245 . S
O302 Co296 2.058 . S
O302 C328 1.269 . S
O303 Co295 2.074 . S
O303 C328 1.257 . S
H304 C329 0.930 . S
H305 C335 0.930 . S
O306 Co295 2.093 . S
O306 C298 1.224 . S
H307 C339 0.929 . S
H308 C341 0.930 . S
H309 C342 0.930 . S
H310 C340 0.929 . S
H311 C343 0.928 . S
O312 Co296 2.057 . S
O312 C300 1.232 . S
H313 C332 0.929 . S
H314 C333 0.929 . S
H315 C345 0.931 . S
H316 C337 0.960 . S
H317 C346 0.930 . S
H318 C338 0.931 . S
O319 Co295 2.097 . S
O319 C347 1.214 . S
H320 C348 0.929 . S
H321 C349 0.929 . S
H322 C350 0.930 . S
H323 C351 0.929 . S
H324 C353 0.930 . S
H325 C330 0.930 . S
H326 C334 0.930 . S
O327 Co296 2.037 . S
O327 C347 1.234 . S
C328 O302 1.269 . S
C328 O303 1.257 . S
C329 H304 0.930 . S
C329 C332 1.388 . S
C329 C334 1.418 . S
C330 H325 0.930 . S
C330 C333 1.404 . S
C330 C334 1.353 . S
N331 Co296 2.145 . S
N331 C332 1.397 . S
N331 C333 1.334 . S
C332 H313 0.929 . S
C332 C329 1.388 . S
C332 N331 1.397 . S
C333 H314 0.929 . S
C333 C330 1.404 . S
C333 N331 1.334 . S
C334 H326 0.930 . S
C334 C329 1.418 . S
C334 C330 1.353 . S
C335 H305 0.930 . S
C335 N336 1.365 . S
C335 C337 1.437 . S
N336 Co295 2.136 . S
N336 C335 1.365 . S
N336 C340 1.393 1_545 S
C337 H316 0.960 . S
C337 C335 1.437 . S
C337 C338 1.309 1_545 S
C338 H318 0.931 . S
C338 C337 1.309 1_565 S
C338 C339 1.267 . S
C339 H307 0.929 . S
C339 C338 1.267 . S
C339 C340 1.251 . S
C340 H310 0.929 . S
C340 N336 1.393 1_565 S
C340 C339 1.251 . S
C341 H308 0.930 . S
C341 C343 1.406 . S
C341 C346 1.261 . S
C342 H309 0.930 . S
C342 N344 1.325 . S
C342 C345 1.357 . S
C343 H311 0.928 . S
C343 C341 1.406 . S
C343 N344 1.261 . S
N344 Co295 2.214 1_565 S
N344 C342 1.325 . S
N344 C343 1.261 . S
C345 H315 0.931 . S
C345 C342 1.357 . S
C345 C346 1.312 . S
C346 H317 0.930 . S
C346 C341 1.261 . S
C346 C345 1.312 . S
C347 O319 1.214 . S
C347 O327 1.234 . S
C348 H320 0.929 . S
C348 C351 1.391 . S
C348 C353 1.391 . S
C349 H321 0.929 . S
C349 C350 1.390 . S
C349 N352 1.391 . S
C350 H322 0.930 . S
C350 C349 1.390 . S
C350 C351 1.392 . S
C351 H323 0.929 . S
C351 C348 1.391 . S
C351 C350 1.392 . S
N352 Co296 2.257 . S
N352 C349 1.391 . S
N352 C353 1.388 . S
C353 H324 0.930 . S
C353 C348 1.391 . S
C353 N352 1.388 . S
Co354 O356 2.143 . S
Co354 O362 2.074 . S
Co354 O365 2.093 . S
Co354 O378 2.097 . S
Co354 N395 2.151 . S
Co354 N403 2.214 . S
Co355 O356 2.160 . S
Co355 O361 2.058 . S
Co355 O371 2.057 . S
Co355 O386 2.037 . S
Co355 N390 2.145 . S
Co355 N411 2.257 . S
O356 Co354 2.143 . S
O356 Co355 2.160 . S
C357 O358 1.278 . S
C357 O365 1.224 . S
O358 C357 1.278 . S
C359 O360 1.245 . S
C359 O371 1.232 . S
O360 C359 1.245 . S
O361 Co355 2.058 . S
O361 C387 1.269 . S
O362 Co354 2.074 . S
O362 C387 1.257 . S
H363 C388 0.930 . S
H364 C394 0.930 . S
O365 Co354 2.093 . S
O365 C357 1.224 . S
H366 C398 0.929 . S
H367 C400 0.930 . S
H368 C401 0.930 . S
H369 C399 0.929 . S
H370 C402 0.928 . S
O371 Co355 2.057 . S
O371 C359 1.232 . S
H372 C391 0.929 . S
H373 C392 0.929 . S
H374 C404 0.931 . S
H375 C396 0.929 . S
H376 C405 0.930 . S
H377 C397 0.931 . S
O378 Co354 2.097 . S
O378 C406 1.214 . S
H379 C407 0.929 . S
H380 C408 0.929 . S
H381 C409 0.930 . S
H382 C410 0.929 . S
H383 C412 0.930 . S
H384 C389 0.930 . S
H385 C393 0.930 . S
O386 Co355 2.037 . S
O386 C406 1.234 . S
C387 O361 1.269 . S
C387 O362 1.257 . S
C388 H363 0.930 . S
C388 C391 1.388 . S
C388 C393 1.418 . S
C389 H384 0.930 . S
C389 C392 1.404 . S
C389 C393 1.353 . S
N390 Co355 2.145 . S
N390 C391 1.397 . S
N390 C392 1.334 . S
C391 H372 0.929 . S
C391 C388 1.388 . S
C391 N390 1.397 . S
C392 H373 0.929 . S
C392 C389 1.404 . S
C392 N390 1.334 . S
C393 H385 0.930 . S
C393 C388 1.418 . S
C393 C389 1.353 . S
C394 H364 0.930 . S
C394 N395 1.330 . S
C394 C396 1.446 . S
N395 Co354 2.151 . S
N395 C394 1.330 . S
N395 C399 1.418 . S
C396 H375 0.929 . S
C396 C394 1.446 . S
C396 C397 1.332 . S
C397 H377 0.931 . S
C397 C396 1.332 . S
C397 C398 1.267 . S
C398 H366 0.929 . S
C398 C397 1.267 . S
C398 C399 1.251 . S
C399 H369 0.929 . S
C399 N395 1.418 . S
C399 C398 1.251 . S
C400 H367 0.930 . S
C400 C402 1.406 . S
C400 C405 1.261 . S
C401 H368 0.930 . S
C401 N403 1.325 . S
C401 C404 1.357 . S
C402 H370 0.928 . S
C402 C400 1.406 . S
C402 N403 1.261 . S
N403 Co354 2.214 . S
N403 C401 1.325 . S
N403 C402 1.261 . S
C404 H374 0.931 . S
C404 C401 1.357 . S
C404 C405 1.312 . S
C405 H376 0.930 . S
C405 C400 1.261 . S
C405 C404 1.312 . S
C406 O378 1.214 . S
C406 O386 1.234 . S
C407 H379 0.929 . S
C407 C410 1.391 . S
C407 C412 1.391 . S
C408 H380 0.929 . S
C408 C409 1.390 . S
C408 N411 1.391 . S
C409 H381 0.930 . S
C409 C408 1.390 . S
C409 C410 1.392 . S
C410 H382 0.929 . S
C410 C407 1.391 . S
C410 C409 1.392 . S
N411 Co355 2.257 . S
N411 C408 1.391 . S
N411 C412 1.388 . S
C412 H383 0.930 . S
C412 C407 1.391 . S
C412 N411 1.388 . S
Co413 O415 2.143 . S
Co413 O421 2.074 . S
Co413 O424 2.093 . S
Co413 O437 2.097 . S
Co413 N454 2.136 . S
Co413 N462 2.214 1_655 S
Co414 O415 2.160 . S
Co414 O420 2.058 1_556 S
Co414 O430 2.057 . S
Co414 O445 2.037 . S
Co414 N449 2.145 . S
Co414 N470 2.257 . S
O415 Co413 2.143 . S
O415 Co414 2.160 . S
C416 O417 1.278 . S
C416 O424 1.224 . S
O417 C416 1.278 . S
C418 O419 1.245 . S
C418 O430 1.232 . S
O419 C418 1.245 . S
O420 Co414 2.058 1_554 S
O420 C446 1.269 . S
O421 Co413 2.074 . S
O421 C446 1.257 1_556 S
H422 C447 0.930 . S
H423 C453 0.930 . S
O424 Co413 2.093 . S
O424 C416 1.224 . S
H425 C457 0.929 . S
H426 C459 0.930 . S
H427 C460 0.930 . S
H428 C458 0.929 . S
H429 C461 0.928 . S
O430 Co414 2.057 . S
O430 C418 1.232 . S
H431 C450 0.929 . S
H432 C451 0.929 1_556 S
H433 C463 0.931 . S
H434 C455 0.960 . S
H435 C464 0.930 . S
H436 C456 0.931 . S
O437 Co413 2.097 . S
O437 C465 1.214 . S
H438 C466 0.929 . S
H439 C467 0.929 . S
H440 C468 0.930 . S
H441 C469 0.929 . S
H442 C471 0.930 . S
H443 C448 0.930 . S
H444 C452 0.930 . S
O445 Co414 2.037 . S
O445 C465 1.234 . S
C446 O420 1.269 . S
C446 O421 1.257 1_554 S
C447 H422 0.930 . S
C447 C450 1.388 . S
C447 C452 1.418 . S
C448 H443 0.930 . S
C448 C451 1.404 . S
C448 C452 1.353 . S
N449 Co414 2.145 . S
N449 C450 1.397 1_556 S
N449 C451 1.334 1_556 S
C450 H431 0.929 . S
C450 C447 1.388 . S
C450 N449 1.397 1_554 S
C451 H432 0.929 1_554 S
C451 C448 1.404 . S
C451 N449 1.334 1_554 S
C452 H444 0.930 . S
C452 C447 1.418 . S
C452 C448 1.353 . S
C453 H423 0.930 . S
C453 N454 1.365 . S
C453 C455 1.437 . S
N454 Co413 2.136 . S
N454 C453 1.365 . S
N454 C458 1.394 1_655 S
C455 H434 0.960 . S
C455 C453 1.437 . S
C455 C456 1.309 1_655 S
C456 H436 0.931 . S
C456 C455 1.309 1_455 S
C456 C457 1.267 . S
C457 H425 0.929 . S
C457 C456 1.267 . S
C457 C458 1.251 . S
C458 H428 0.929 . S
C458 N454 1.394 1_455 S
C458 C457 1.251 . S
C459 H426 0.930 . S
C459 C461 1.406 . S
C459 C464 1.261 . S
C460 H427 0.930 . S
C460 N462 1.325 . S
C460 C463 1.357 . S
C461 H429 0.928 . S
C461 C459 1.406 . S
C461 N462 1.261 . S
N462 Co413 2.214 1_455 S
N462 C460 1.325 . S
N462 C461 1.261 . S
C463 H433 0.931 . S
C463 C460 1.357 . S
C463 C464 1.312 . S
C464 H435 0.930 . S
C464 C459 1.261 . S
C464 C463 1.312 . S
C465 O437 1.214 . S
C465 O445 1.234 . S
C466 H438 0.929 . S
C466 C469 1.391 . S
C466 C471 1.391 . S
C467 H439 0.929 . S
C467 C468 1.390 . S
C467 N470 1.391 . S
C468 H440 0.930 . S
C468 C467 1.390 . S
C468 C469 1.392 . S
C469 H441 0.929 . S
C469 C466 1.391 . S
C469 C468 1.392 . S
N470 Co414 2.257 . S
N470 C467 1.391 . S
N470 C471 1.388 . S
C471 H442 0.930 . S
C471 C466 1.391 . S
C471 N470 1.388 . S
Co472 O474 2.143 . S
Co472 O480 2.074 . S
Co472 O483 2.093 . S
Co472 O496 2.097 . S
Co472 N513 2.191 . S
Co472 N521 2.214 1_565 S
Co473 O474 2.160 . S
Co473 O479 2.058 . S
Co473 O489 2.057 . S
Co473 O504 2.037 . S
Co473 N508 2.145 . S
Co473 N529 2.257 . S
O474 Co472 2.143 . S
O474 Co473 2.160 . S
C475 O476 1.278 . S
C475 O483 1.224 . S
O476 C475 1.278 . S
C477 O478 1.245 . S
C477 O489 1.232 . S
O478 C477 1.245 . S
O479 Co473 2.058 . S
O479 C505 1.269 . S
O480 Co472 2.074 . S
O480 C505 1.257 . S
H481 C506 0.930 . S
H482 C512 0.930 . S
O483 Co472 2.093 . S
O483 C475 1.224 . S
H484 C516 0.929 . S
H485 C518 0.930 . S
H486 C519 0.930 . S
H487 C517 0.929 . S
H488 C520 0.928 . S
O489 Co473 2.057 . S
O489 C477 1.232 . S
H490 C509 0.929 . S
H491 C510 0.929 . S
H492 C522 0.931 . S
H493 C514 0.930 . S
H494 C523 0.930 . S
H495 C515 0.931 . S
O496 Co472 2.097 . S
O496 C524 1.214 . S
H497 C525 0.929 . S
H498 C526 0.929 . S
H499 C527 0.930 . S
H500 C528 0.929 . S
H501 C530 0.930 . S
H502 C507 0.930 . S
H503 C511 0.930 . S
O504 Co473 2.037 . S
O504 C524 1.234 . S
C505 O479 1.269 . S
C505 O480 1.257 . S
C506 H481 0.930 . S
C506 C509 1.388 . S
C506 C511 1.418 . S
C507 H502 0.930 . S
C507 C510 1.404 . S
C507 C511 1.353 . S
N508 Co473 2.145 . S
N508 C509 1.397 . S
N508 C510 1.334 . S
C509 H490 0.929 . S
C509 C506 1.388 . S
C509 N508 1.397 . S
C510 H491 0.929 . S
C510 C507 1.404 . S
C510 N508 1.334 . S
C511 H503 0.930 . S
C511 C506 1.418 . S
C511 C507 1.353 . S
C512 H482 0.930 . S
C512 N513 1.328 . S
C512 C514 1.479 . S
N513 Co472 2.191 . S
N513 C512 1.328 . S
N513 C517 1.373 1_565 S
C514 H493 0.930 . S
C514 C512 1.479 . S
C514 C515 1.300 1_565 S
C515 H495 0.931 . S
C515 C514 1.300 1_545 S
C515 C516 1.267 . S
C516 H484 0.929 . S
C516 C515 1.267 . S
C516 C517 1.251 . S
C517 H487 0.929 . S
C517 N513 1.373 1_545 S
C517 C516 1.251 . S
C518 H485 0.930 . S
C518 C520 1.406 . S
C518 C523 1.261 . S
C519 H486 0.930 . S
C519 N521 1.325 . S
C519 C522 1.357 . S
C520 H488 0.928 . S
C520 C518 1.406 . S
C520 N521 1.261 . S
N521 Co472 2.214 1_545 S
N521 C519 1.325 . S
N521 C520 1.261 . S
C522 H492 0.931 . S
C522 C519 1.357 . S
C522 C523 1.312 . S
C523 H494 0.930 . S
C523 C518 1.261 . S
C523 C522 1.312 . S
C524 O496 1.214 . S
C524 O504 1.234 . S
C525 H497 0.929 . S
C525 C528 1.391 . S
C525 C530 1.391 . S
C526 H498 0.929 . S
C526 C527 1.390 . S
C526 N529 1.391 . S
C527 H499 0.930 . S
C527 C526 1.390 . S
C527 C528 1.392 . S
C528 H500 0.929 . S
C528 C525 1.391 . S
C528 C527 1.392 . S
N529 Co473 2.257 . S
N529 C526 1.391 . S
N529 C530 1.388 . S
C530 H501 0.930 . S
C530 C525 1.391 . S
C530 N529 1.388 . S
Co531 O533 2.143 . S
Co531 O539 2.074 . S
Co531 O542 2.093 . S
Co531 O555 2.097 . S
Co531 N572 2.151 . S
Co531 N580 2.214 . S
Co532 O533 2.160 . S
Co532 O538 2.058 . S
Co532 O548 2.057 . S
Co532 O563 2.037 . S
Co532 N567 2.145 . S
Co532 N588 2.257 . S
O533 Co531 2.143 . S
O533 Co532 2.160 . S
C534 O535 1.278 . S
C534 O542 1.224 . S
O535 C534 1.278 . S
C536 O537 1.245 . S
C536 O548 1.232 . S
O537 C536 1.245 . S
O538 Co532 2.058 . S
O538 C564 1.269 . S
O539 Co531 2.074 . S
O539 C564 1.257 . S
H540 C565 0.930 . S
H541 C571 0.930 . S
O542 Co531 2.093 . S
O542 C534 1.224 . S
H543 C575 0.929 . S
H544 C577 0.930 . S
H545 C578 0.930 . S
H546 C576 0.929 . S
H547 C579 0.928 . S
O548 Co532 2.057 . S
O548 C536 1.232 . S
H549 C568 0.929 . S
H550 C569 0.929 . S
H551 C581 0.931 . S
H552 C573 0.929 . S
H553 C582 0.930 . S
H554 C574 0.931 . S
O555 Co531 2.097 . S
O555 C583 1.214 . S
H556 C584 0.929 . S
H557 C585 0.929 . S
H558 C586 0.930 . S
H559 C587 0.929 . S
H560 C589 0.930 . S
H561 C566 0.930 . S
H562 C570 0.930 . S
O563 Co532 2.037 . S
O563 C583 1.234 . S
C564 O538 1.269 . S
C564 O539 1.257 . S
C565 H540 0.930 . S
C565 C568 1.388 . S
C565 C570 1.418 . S
C566 H561 0.930 . S
C566 C569 1.404 . S
C566 C570 1.353 . S
N567 Co532 2.145 . S
N567 C568 1.397 . S
N567 C569 1.334 . S
C568 H549 0.929 . S
C568 C565 1.388 . S
C568 N567 1.397 . S
C569 H550 0.929 . S
C569 C566 1.404 . S
C569 N567 1.334 . S
C570 H562 0.930 . S
C570 C565 1.418 . S
C570 C566 1.353 . S
C571 H541 0.930 . S
C571 N572 1.330 . S
C571 C573 1.446 . S
N572 Co531 2.151 . S
N572 C571 1.330 . S
N572 C576 1.418 . S
C573 H552 0.929 . S
C573 C571 1.446 . S
C573 C574 1.332 . S
C574 H554 0.931 . S
C574 C573 1.332 . S
C574 C575 1.267 . S
C575 H543 0.929 . S
C575 C574 1.267 . S
C575 C576 1.251 . S
C576 H546 0.929 . S
C576 N572 1.418 . S
C576 C575 1.251 . S
C577 H544 0.930 . S
C577 C579 1.406 . S
C577 C582 1.261 . S
C578 H545 0.930 . S
C578 N580 1.325 . S
C578 C581 1.357 . S
C579 H547 0.928 . S
C579 C577 1.406 . S
C579 N580 1.261 . S
N580 Co531 2.214 . S
N580 C578 1.325 . S
N580 C579 1.261 . S
C581 H551 0.931 . S
C581 C578 1.357 . S
C581 C582 1.312 . S
C582 H553 0.930 . S
C582 C577 1.261 . S
C582 C581 1.312 . S
C583 O555 1.214 . S
C583 O563 1.234 . S
C584 H556 0.929 . S
C584 C587 1.391 . S
C584 C589 1.391 . S
C585 H557 0.929 . S
C585 C586 1.390 . S
C585 N588 1.391 . S
C586 H558 0.930 . S
C586 C585 1.390 . S
C586 C587 1.392 . S
C587 H559 0.929 . S
C587 C584 1.391 . S
C587 C586 1.392 . S
N588 Co532 2.257 . S
N588 C585 1.391 . S
N588 C589 1.388 . S
C589 H560 0.930 . S
C589 C584 1.391 . S
C589 N588 1.388 . S
Co590 O592 2.143 . S
Co590 O598 2.074 . S
Co590 O601 2.093 . S
Co590 O614 2.097 . S
Co590 N631 2.136 . S
Co590 N639 2.214 1_455 S
Co591 O592 2.160 . S
Co591 O597 2.058 1_556 S
Co591 O607 2.057 . S
Co591 O622 2.037 . S
Co591 N626 2.145 . S
Co591 N647 2.257 . S
O592 Co590 2.143 . S
O592 Co591 2.160 . S
C593 O594 1.278 . S
C593 O601 1.224 . S
O594 C593 1.278 . S
C595 O596 1.245 . S
C595 O607 1.232 . S
O596 C595 1.245 . S
O597 Co591 2.058 1_554 S
O597 C623 1.269 . S
O598 Co590 2.074 . S
O598 C623 1.257 1_556 S
H599 C624 0.930 . S
H600 C630 0.930 . S
O601 Co590 2.093 . S
O601 C593 1.224 . S
H602 C634 0.929 . S
H603 C636 0.930 . S
H604 C637 0.930 . S
H605 C635 0.929 . S
H606 C638 0.928 . S
O607 Co591 2.057 . S
O607 C595 1.232 . S
H608 C627 0.929 . S
H609 C628 0.929 1_556 S
H610 C640 0.931 . S
H611 C632 0.960 . S
H612 C641 0.930 . S
H613 C633 0.931 . S
O614 Co590 2.097 . S
O614 C642 1.214 . S
H615 C643 0.929 . S
H616 C644 0.929 . S
H617 C645 0.930 . S
H618 C646 0.929 . S
H619 C648 0.930 . S
H620 C625 0.930 . S
H621 C629 0.930 . S
O622 Co591 2.037 . S
O622 C642 1.234 . S
C623 O597 1.269 . S
C623 O598 1.257 1_554 S
C624 H599 0.930 . S
C624 C627 1.388 . S
C624 C629 1.418 . S
C625 H620 0.930 . S
C625 C628 1.404 . S
C625 C629 1.353 . S
N626 Co591 2.145 . S
N626 C627 1.397 1_556 S
N626 C628 1.334 1_556 S
C627 H608 0.929 . S
C627 C624 1.388 . S
C627 N626 1.397 1_554 S
C628 H609 0.929 1_554 S
C628 C625 1.404 . S
C628 N626 1.334 1_554 S
C629 H621 0.930 . S
C629 C624 1.418 . S
C629 C625 1.353 . S
C630 H600 0.930 . S
C630 N631 1.365 . S
C630 C632 1.437 . S
N631 Co590 2.136 . S
N631 C630 1.365 . S
N631 C635 1.394 1_455 S
C632 H611 0.960 . S
C632 C630 1.437 . S
C632 C633 1.309 1_455 S
C633 H613 0.931 . S
C633 C632 1.309 1_655 S
C633 C634 1.267 . S
C634 H602 0.929 . S
C634 C633 1.267 . S
C634 C635 1.251 . S
C635 H605 0.929 . S
C635 N631 1.394 1_655 S
C635 C634 1.251 . S
C636 H603 0.930 . S
C636 C638 1.406 . S
C636 C641 1.261 . S
C637 H604 0.930 . S
C637 N639 1.325 . S
C637 C640 1.357 . S
C638 H606 0.928 . S
C638 C636 1.406 . S
C638 N639 1.261 . S
N639 Co590 2.214 1_655 S
N639 C637 1.325 . S
N639 C638 1.261 . S
C640 H610 0.931 . S
C640 C637 1.357 . S
C640 C641 1.312 . S
C641 H612 0.930 . S
C641 C636 1.261 . S
C641 C640 1.312 . S
C642 O614 1.214 . S
C642 O622 1.234 . S
C643 H615 0.929 . S
C643 C646 1.391 . S
C643 C648 1.391 . S
C644 H616 0.929 . S
C644 C645 1.390 . S
C644 N647 1.391 . S
C645 H617 0.930 . S
C645 C644 1.390 . S
C645 C646 1.392 . S
C646 H618 0.929 . S
C646 C643 1.391 . S
C646 C645 1.392 . S
N647 Co591 2.257 . S
N647 C644 1.391 . S
N647 C648 1.388 . S
C648 H619 0.930 . S
C648 C643 1.391 . S
C648 N647 1.388 . S
Co649 O651 2.143 . S
Co649 O657 2.074 . S
Co649 O660 2.093 . S
Co649 O673 2.097 . S
Co649 N690 2.191 . S
Co649 N698 2.214 1_545 S
Co650 O651 2.160 . S
Co650 O656 2.058 . S
Co650 O666 2.057 . S
Co650 O681 2.037 . S
Co650 N685 2.145 . S
Co650 N706 2.257 . S
O651 Co649 2.143 . S
O651 Co650 2.160 . S
C652 O653 1.278 . S
C652 O660 1.224 . S
O653 C652 1.278 . S
C654 O655 1.245 . S
C654 O666 1.232 . S
O655 C654 1.245 . S
O656 Co650 2.058 . S
O656 C682 1.269 . S
O657 Co649 2.074 . S
O657 C682 1.257 . S
H658 C683 0.930 . S
H659 C689 0.930 . S
O660 Co649 2.093 . S
O660 C652 1.224 . S
H661 C693 0.929 . S
H662 C695 0.930 . S
H663 C696 0.930 . S
H664 C694 0.929 . S
H665 C697 0.928 . S
O666 Co650 2.057 . S
O666 C654 1.232 . S
H667 C686 0.929 . S
H668 C687 0.929 . S
H669 C699 0.931 . S
H670 C691 0.930 . S
H671 C700 0.930 . S
H672 C692 0.931 . S
O673 Co649 2.097 . S
O673 C701 1.214 . S
H674 C702 0.929 . S
H675 C703 0.929 . S
H676 C704 0.930 . S
H677 C705 0.929 . S
H678 C707 0.930 . S
H679 C684 0.930 . S
H680 C688 0.930 . S
O681 Co650 2.037 . S
O681 C701 1.234 . S
C682 O656 1.269 . S
C682 O657 1.257 . S
C683 H658 0.930 . S
C683 C686 1.388 . S
C683 C688 1.418 . S
C684 H679 0.930 . S
C684 C687 1.404 . S
C684 C688 1.353 . S
N685 Co650 2.145 . S
N685 C686 1.397 . S
N685 C687 1.334 . S
C686 H667 0.929 . S
C686 C683 1.388 . S
C686 N685 1.397 . S
C687 H668 0.929 . S
C687 C684 1.404 . S
C687 N685 1.334 . S
C688 H680 0.930 . S
C688 C683 1.418 . S
C688 C684 1.353 . S
C689 H659 0.930 . S
C689 N690 1.328 . S
C689 C691 1.479 . S
N690 Co649 2.191 . S
N690 C689 1.328 . S
N690 C694 1.373 1_545 S
C691 H670 0.930 . S
C691 C689 1.479 . S
C691 C692 1.300 1_545 S
C692 H672 0.931 . S
C692 C691 1.300 1_565 S
C692 C693 1.267 . S
C693 H661 0.929 . S
C693 C692 1.267 . S
C693 C694 1.251 . S
C694 H664 0.929 . S
C694 N690 1.373 1_565 S
C694 C693 1.251 . S
C695 H662 0.930 . S
C695 C697 1.406 . S
C695 C700 1.261 . S
C696 H663 0.930 . S
C696 N698 1.325 . S
C696 C699 1.357 . S
C697 H665 0.928 . S
C697 C695 1.406 . S
C697 N698 1.261 . S
N698 Co649 2.214 1_565 S
N698 C696 1.325 . S
N698 C697 1.261 . S
C699 H669 0.931 . S
C699 C696 1.357 . S
C699 C700 1.312 . S
C700 H671 0.930 . S
C700 C695 1.261 . S
C700 C699 1.312 . S
C701 O673 1.214 . S
C701 O681 1.234 . S
C702 H674 0.929 . S
C702 C705 1.391 . S
C702 C707 1.391 . S
C703 H675 0.929 . S
C703 C704 1.390 . S
C703 N706 1.391 . S
C704 H676 0.930 . S
C704 C703 1.390 . S
C704 C705 1.392 . S
C705 H677 0.929 . S
C705 C702 1.391 . S
C705 C704 1.392 . S
N706 Co650 2.257 . S
N706 C703 1.391 . S
N706 C707 1.388 . S
C707 H678 0.930 . S
C707 C702 1.391 . S
C707 N706 1.388 . S
H708 C716 0.929 . S
H709 C718 0.930 . S
H710 C720 0.930 . S
H711 C723 0.929 . S
H712 C726 0.930 . S
H713 C728 0.960 . S
H714 C728 0.960 . S
H715 C728 0.960 . S
C716 H708 0.929 . S
C716 C717 1.377 . S
C716 C718 1.384 . S
C717 C716 1.377 . S
C717 C723 1.390 . S
C718 H709 0.930 . S
C718 C716 1.384 . S
C718 C719 1.372 . S
C719 C718 1.372 . S
C719 C720 1.400 . S
C719 C724 1.490 . S
C720 H710 0.930 . S
C720 C719 1.400 . S
C720 C723 1.386 . S
H721 C737 0.930 . S
H722 C738 0.931 . S
C723 H711 0.929 . S
C723 C717 1.390 . S
C723 C720 1.386 . S
C724 C719 1.490 . S
C724 C726 1.395 . S
C724 C727 1.403 . S
H725 C731 0.930 . S
C726 H712 0.930 . S
C726 C724 1.395 . S
C726 C729 1.403 . S
C727 C724 1.403 . S
C727 C728 1.524 . S
C727 C731 1.400 . S
C728 H713 0.960 . S
C728 H714 0.960 . S
C728 H715 0.960 . S
C728 C727 1.524 . S
C729 C726 1.403 . S
C729 C730 1.392 . S
C729 C733 1.495 . S
C730 C729 1.392 . S
C730 C731 1.385 . S
C730 C732 1.478 . S
C731 H725 0.930 . S
C731 C727 1.400 . S
C731 C730 1.385 . S
C732 C730 1.478 . S
C732 C734 1.381 . S
C732 C738 1.383 . S
C733 C729 1.495 . S
C733 H739 0.959 . S
C733 H740 0.961 . S
C733 H741 0.960 . S
C734 C732 1.381 . S
C734 C735 1.394 . S
C734 H742 0.930 . S
C735 C734 1.394 . S
C735 C736 1.383 . S
C735 H743 0.929 . S
C736 C735 1.383 . S
C736 C737 1.377 . S
C737 H721 0.930 . S
C737 C736 1.377 . S
C737 C738 1.379 . S
C738 H722 0.931 . S
C738 C732 1.383 . S
C738 C737 1.379 . S
H739 C733 0.959 . S
H740 C733 0.961 . S
H741 C733 0.960 . S
H742 C734 0.930 . S
H743 C735 0.929 . S
H744 C752 0.929 . S
H745 C754 0.930 . S
H746 C756 0.930 . S
H747 C759 0.929 1_455 S
H748 C762 0.930 . S
H749 C764 0.960 . S
H750 C764 0.960 . S
H751 C764 0.952 1_455 S
C752 H744 0.929 . S
C752 C753 1.377 . S
C752 C754 1.384 . S
C753 C752 1.377 . S
C753 C759 1.390 . S
C754 H745 0.930 . S
C754 C752 1.384 . S
C754 C755 1.372 . S
C755 C754 1.372 . S
C755 C756 1.400 1_655 S
C755 C760 1.490 . S
C756 H746 0.930 . S
C756 C755 1.400 1_455 S
C756 C759 1.386 1_455 S
H757 C773 0.930 . S
H758 C774 0.931 . S
C759 H747 0.929 1_655 S
C759 C753 1.390 . S
C759 C756 1.386 1_655 S
C760 C755 1.490 . S
C760 C762 1.395 . S
C760 C763 1.403 . S
H761 C767 0.930 . S
C762 H748 0.930 . S
C762 C760 1.395 . S
C762 C765 1.403 1_655 S
C763 C760 1.403 . S
C763 C764 1.524 . S
C763 C767 1.400 1_655 S
C764 H749 0.960 . S
C764 H750 0.960 . S
C764 H751 0.952 1_655 S
C764 C763 1.524 . S
C765 C762 1.403 1_455 S
C765 C766 1.392 . S
C765 C769 1.495 . S
C766 C765 1.392 . S
C766 C767 1.385 . S
C766 C768 1.478 . S
C767 H761 0.930 . S
C767 C763 1.400 1_455 S
C767 C766 1.385 . S
C768 C766 1.478 . S
C768 C770 1.381 1_455 S
C768 C774 1.383 . S
C769 C765 1.495 . S
C769 H775 0.959 . S
C769 H776 0.961 . S
C769 H777 0.960 1_455 S
C770 C768 1.381 1_655 S
C770 C771 1.394 1_655 S
C770 H778 0.930 . S
C771 C770 1.394 1_455 S
C771 C772 1.383 . S
C771 H779 0.929 1_455 S
C772 C771 1.383 . S
C772 C773 1.377 . S
C773 H757 0.930 . S
C773 C772 1.377 . S
C773 C774 1.379 . S
C774 H758 0.931 . S
C774 C768 1.383 . S
C774 C773 1.379 . S
H775 C769 0.959 . S
H776 C769 0.961 . S
H777 C769 0.960 1_655 S
H778 C770 0.930 . S
H779 C771 0.929 1_655 S
H780 C788 0.929 . S
H781 C790 0.930 . S
H782 C792 0.930 . S
H783 C795 0.929 . S
H784 C798 0.930 . S
H785 C800 0.960 1_554 S
H786 C800 0.960 . S
H787 C800 0.960 . S
C788 H780 0.929 . S
C788 C789 1.377 . S
C788 C790 1.384 . S
C789 C788 1.377 . S
C789 C795 1.390 . S
C790 H781 0.930 . S
C790 C788 1.384 . S
C790 C791 1.372 . S
C791 C790 1.372 . S
C791 C792 1.400 . S
C791 C796 1.490 . S
C792 H782 0.930 . S
C792 C791 1.400 . S
C792 C795 1.386 . S
H793 C809 0.930 . S
H794 C810 0.931 . S
C795 H783 0.929 . S
C795 C789 1.390 . S
C795 C792 1.386 . S
C796 C791 1.490 . S
C796 C798 1.395 1_565 S
C796 C799 1.403 . S
H797 C803 0.930 . S
C798 H784 0.930 . S
C798 C796 1.395 1_545 S
C798 C801 1.403 1_556 S
C799 C796 1.403 . S
C799 C800 1.524 . S
C799 C803 1.400 1_556 S
C800 H785 0.960 1_556 S
C800 H786 0.960 . S
C800 H787 0.960 . S
C800 C799 1.524 . S
C801 C798 1.403 1_554 S
C801 C802 1.392 . S
C801 C805 1.495 . S
C802 C801 1.392 . S
C802 C803 1.385 1_545 S
C802 C804 1.478 . S
C803 H797 0.930 . S
C803 C799 1.400 1_554 S
C803 C802 1.385 1_565 S
C804 C802 1.478 . S
C804 C806 1.381 . S
C804 C810 1.383 . S
C805 C801 1.495 . S
C805 H811 0.959 1_554 S
C805 H812 0.961 . S
C805 H813 0.960 . S
C806 C804 1.381 . S
C806 C807 1.394 . S
C806 H814 0.930 . S
C807 C806 1.394 . S
C807 C808 1.383 . S
C807 H815 0.929 . S
C808 C807 1.383 . S
C808 C809 1.377 . S
C809 H793 0.930 . S
C809 C808 1.377 . S
C809 C810 1.379 . S
C810 H794 0.931 . S
C810 C804 1.383 . S
C810 C809 1.379 . S
H811 C805 0.959 1_556 S
H812 C805 0.961 . S
H813 C805 0.960 . S
H814 C806 0.930 . S
H815 C807 0.929 . S
H816 C824 0.929 . S
H817 C826 0.930 . S
H818 C828 0.930 . S
H819 C831 0.929 . S
H820 C834 0.930 . S
H821 C836 0.960 . S
H822 C836 0.960 . S
H823 C836 0.960 . S
C824 H816 0.929 . S
C824 C825 1.377 . S
C824 C826 1.384 . S
C825 C824 1.377 . S
C825 C831 1.390 . S
C826 H817 0.930 . S
C826 C824 1.384 . S
C826 C827 1.372 . S
C827 C826 1.372 . S
C827 C828 1.400 . S
C827 C832 1.490 . S
C828 H818 0.930 . S
C828 C827 1.400 . S
C828 C831 1.386 . S
H829 C845 0.930 . S
H830 C846 0.931 . S
C831 H819 0.929 . S
C831 C825 1.390 . S
C831 C828 1.386 . S
C832 C827 1.490 . S
C832 C834 1.395 . S
C832 C835 1.403 . S
H833 C839 0.930 . S
C834 H820 0.930 . S
C834 C832 1.395 . S
C834 C837 1.403 . S
C835 C832 1.403 . S
C835 C836 1.524 . S
C835 C839 1.400 . S
C836 H821 0.960 . S
C836 H822 0.960 . S
C836 H823 0.960 . S
C836 C835 1.524 . S
C837 C834 1.403 . S
C837 C838 1.392 . S
C837 C841 1.495 . S
C838 C837 1.392 . S
C838 C839 1.385 . S
C838 C840 1.478 . S
C839 H833 0.930 . S
C839 C835 1.400 . S
C839 C838 1.385 . S
C840 C838 1.478 . S
C840 C842 1.381 . S
C840 C846 1.383 . S
C841 C837 1.495 . S
C841 H847 0.959 . S
C841 H848 0.961 . S
C841 H849 0.960 . S
C842 C840 1.381 . S
C842 C843 1.394 . S
C842 H850 0.930 . S
C843 C842 1.394 . S
C843 C844 1.383 . S
C843 H851 0.929 . S
C844 C843 1.383 . S
C844 C845 1.377 . S
C845 H829 0.930 . S
C845 C844 1.377 . S
C845 C846 1.379 . S
C846 H830 0.931 . S
C846 C840 1.383 . S
C846 C845 1.379 . S
H847 C841 0.959 . S
H848 C841 0.961 . S
H849 C841 0.960 . S
H850 C842 0.930 . S
H851 C843 0.929 . S
H852 C860 0.929 . S
H853 C862 0.930 . S
H854 C864 0.930 . S
H855 C867 0.952 . S
H856 C870 0.930 . S
H857 C872 0.960 . S
H858 C872 0.960 . S
H859 C872 0.960 . S
C860 H852 0.929 . S
C860 C861 1.377 . S
C860 C862 1.384 . S
C861 C860 1.377 . S
C861 C867 1.360 1_655 S
C862 H853 0.930 . S
C862 C860 1.384 . S
C862 C863 1.372 . S
C863 C862 1.372 . S
C863 C864 1.400 1_655 S
C863 C868 1.490 . S
C864 H854 0.930 . S
C864 C863 1.400 1_455 S
C864 C867 1.394 . S
H865 C881 0.930 . S
H866 C882 0.931 . S
C867 H855 0.952 . S
C867 C861 1.360 1_455 S
C867 C864 1.394 . S
C868 C863 1.490 . S
C868 C870 1.395 . S
C868 C871 1.403 1_655 S
H869 C875 0.930 . S
C870 H856 0.930 . S
C870 C868 1.395 . S
C870 C873 1.403 . S
C871 C868 1.403 1_455 S
C871 C872 1.524 . S
C871 C875 1.400 . S
C872 H857 0.960 . S
C872 H858 0.960 . S
C872 H859 0.960 . S
C872 C871 1.524 . S
C873 C870 1.403 . S
C873 C874 1.392 1_655 S
C873 C877 1.495 . S
C874 C873 1.392 1_455 S
C874 C875 1.385 . S
C874 C876 1.478 . S
C875 H869 0.930 . S
C875 C871 1.400 . S
C875 C874 1.385 . S
C876 C874 1.478 . S
C876 C878 1.381 1_455 S
C876 C882 1.383 . S
C877 C873 1.495 . S
C877 H883 0.959 . S
C877 H884 0.961 . S
C877 H885 0.960 . S
C878 C876 1.381 1_655 S
C878 C879 1.394 . S
C878 H886 0.930 . S
C879 C878 1.394 . S
C879 C880 1.383 1_655 S
C879 H887 0.929 . S
C880 C879 1.383 1_455 S
C880 C881 1.377 . S
C881 H865 0.930 . S
C881 C880 1.377 . S
C881 C882 1.379 . S
C882 H866 0.931 . S
C882 C876 1.383 . S
C882 C881 1.379 . S
H883 C877 0.959 . S
H884 C877 0.961 . S
H885 C877 0.960 . S
H886 C878 0.930 . S
H887 C879 0.929 . S
H888 C896 0.929 1_545 S
H889 C898 0.930 . S
H890 C900 0.930 . S
H891 C903 0.929 . S
H892 C906 0.930 . S
H893 C908 0.960 1_556 S
H894 C908 0.960 . S
H895 C908 0.960 . S
C896 H888 0.929 1_565 S
C896 C897 1.377 . S
C896 C898 1.384 1_565 S
C897 C896 1.377 . S
C897 C903 1.390 . S
C898 H889 0.930 . S
C898 C896 1.384 1_545 S
C898 C899 1.372 1_545 S
C899 C898 1.372 1_565 S
C899 C900 1.400 . S
C899 C904 1.490 . S
C900 H890 0.930 . S
C900 C899 1.400 . S
C900 C903 1.386 . S
H901 C917 0.930 1_565 S
H902 C918 0.931 1_565 S
C903 H891 0.929 . S
C903 C897 1.390 . S
C903 C900 1.386 . S
C904 C899 1.490 . S
C904 C906 1.395 1_565 S
C904 C907 1.403 . S
H905 C911 0.930 . S
C906 H892 0.930 . S
C906 C904 1.395 1_545 S
C906 C909 1.403 1_554 S
C907 C904 1.403 . S
C907 C908 1.524 . S
C907 C911 1.400 1_554 S
C908 H893 0.960 1_554 S
C908 H894 0.960 . S
C908 H895 0.960 . S
C908 C907 1.524 . S
C909 C906 1.403 1_556 S
C909 C910 1.392 . S
C909 C913 1.495 . S
C910 C909 1.392 . S
C910 C911 1.385 1_545 S
C910 C912 1.478 . S
C911 H905 0.930 . S
C911 C907 1.400 1_556 S
C911 C910 1.385 1_565 S
C912 C910 1.478 . S
C912 C914 1.381 . S
C912 C918 1.383 . S
C913 C909 1.495 . S
C913 H919 0.959 1_556 S
C913 H920 0.961 . S
C913 H921 0.960 . S
C914 C912 1.381 . S
C914 C915 1.394 . S
C914 H922 0.930 . S
C915 C914 1.394 . S
C915 C916 1.383 . S
C915 H923 0.929 . S
C916 C915 1.383 . S
C916 C917 1.377 . S
C917 H901 0.930 1_545 S
C917 C916 1.377 . S
C917 C918 1.379 . S
C918 H902 0.931 1_545 S
C918 C912 1.383 . S
C918 C917 1.379 . S
H919 C913 0.959 1_554 S
H920 C913 0.961 . S
H921 C913 0.960 . S
H922 C914 0.930 . S
H923 C915 0.929 . S
H924 C932 0.929 . S
H925 C934 0.930 . S
H926 C936 0.930 . S
H927 C939 0.929 . S
H928 C942 0.930 . S
H929 C944 0.960 . S
H930 C944 0.960 . S
H931 C944 0.960 . S
C932 H924 0.929 . S
C932 C933 1.377 . S
C932 C934 1.384 . S
C933 C932 1.377 . S
C933 C939 1.390 . S
C934 H925 0.930 . S
C934 C932 1.384 . S
C934 C935 1.372 . S
C935 C934 1.372 . S
C935 C936 1.400 . S
C935 C940 1.490 . S
C936 H926 0.930 . S
C936 C935 1.400 . S
C936 C939 1.386 . S
H937 C953 0.930 . S
H938 C954 0.931 . S
C939 H927 0.929 . S
C939 C933 1.390 . S
C939 C936 1.386 . S
C940 C935 1.490 . S
C940 C942 1.395 1_556 S
C940 C943 1.403 . S
H941 C947 0.930 . S
C942 H928 0.930 . S
C942 C940 1.395 1_554 S
C942 C945 1.403 . S
C943 C940 1.403 . S
C943 C944 1.524 . S
C943 C947 1.400 . S
C944 H929 0.960 . S
C944 H930 0.960 . S
C944 H931 0.960 . S
C944 C943 1.524 . S
C945 C942 1.403 . S
C945 C946 1.392 . S
C945 C949 1.495 . S
C946 C945 1.392 . S
C946 C947 1.385 1_554 S
C946 C948 1.478 . S
C947 H941 0.930 . S
C947 C943 1.400 . S
C947 C946 1.385 1_556 S
C948 C946 1.478 . S
C948 C950 1.381 . S
C948 C954 1.383 . S
C949 C945 1.495 . S
C949 H955 0.959 . S
C949 H956 0.961 . S
C949 H957 0.960 . S
C950 C948 1.381 . S
C950 C951 1.394 . S
C950 H958 0.930 . S
C951 C950 1.394 . S
C951 C952 1.383 . S
C951 H959 0.929 . S
C952 C951 1.383 . S
C952 C953 1.377 . S
C953 H937 0.930 . S
C953 C952 1.377 . S
C953 C954 1.379 . S
C954 H938 0.931 . S
C954 C948 1.383 . S
C954 C953 1.379 . S
H955 C949 0.959 . S
H956 C949 0.961 . S
H957 C949 0.960 . S
H958 C950 0.930 . S
H959 C951 0.929 . S
H960 C968 0.929 . S
H961 C970 0.930 . S
H962 C972 0.930 . S
H963 C975 0.929 . S
H964 C978 0.930 . S
H965 C980 0.960 . S
H966 C980 0.960 . S
H967 C980 0.960 . S
C968 H960 0.929 . S
C968 C969 1.377 . S
C968 C970 1.384 . S
C969 C968 1.377 . S
C969 C975 1.390 . S
C970 H961 0.930 . S
C970 C968 1.384 . S
C970 C971 1.372 . S
C971 C970 1.372 . S
C971 C972 1.400 . S
C971 C976 1.490 . S
C972 H962 0.930 . S
C972 C971 1.400 . S
C972 C975 1.386 . S
H973 C989 0.930 . S
H974 C990 0.931 . S
C975 H963 0.929 . S
C975 C969 1.390 . S
C975 C972 1.386 . S
C976 C971 1.490 . S
C976 C978 1.395 . S
C976 C979 1.403 . S
H977 C983 0.930 . S
C978 H964 0.930 . S
C978 C976 1.395 . S
C978 C981 1.403 . S
C979 C976 1.403 . S
C979 C980 1.524 . S
C979 C983 1.400 . S
C980 H965 0.960 . S
C980 H966 0.960 . S
C980 H967 0.960 . S
C980 C979 1.524 . S
C981 C978 1.403 . S
C981 C982 1.392 . S
C981 C985 1.495 . S
C982 C981 1.392 . S
C982 C983 1.385 . S
C982 C984 1.478 . S
C983 H977 0.930 . S
C983 C979 1.400 . S
C983 C982 1.385 . S
C984 C982 1.478 . S
C984 C986 1.381 . S
C984 C990 1.383 . S
C985 C981 1.495 . S
C985 H991 0.959 . S
C985 H992 0.961 . S
C985 H993 0.960 . S
C986 C984 1.381 . S
C986 C987 1.394 . S
C986 H994 0.930 . S
C987 C986 1.394 . S
C987 C988 1.383 . S
C987 H995 0.929 . S
C988 C987 1.383 . S
C988 C989 1.377 . S
C989 H973 0.930 . S
C989 C988 1.377 . S
C989 C990 1.379 . S
C990 H974 0.931 . S
C990 C984 1.383 . S
C990 C989 1.379 . S
H991 C985 0.959 . S
H992 C985 0.961 . S
H993 C985 0.960 . S
H994 C986 0.930 . S
H995 C987 0.929 . S
H996 C1004 0.929 . S
H997 C1006 0.930 . S
H998 C1008 0.930 . S
H999 C1011 0.929 . S
H1000 C1014 0.930 . S
H1001 C1016 0.960 . S
H1002 C1016 0.960 . S
H1003 C1016 0.960 . S
C1004 H996 0.929 . S
C1004 C1005 1.377 . S
C1004 C1006 1.384 . S
C1005 C1004 1.377 . S
C1005 C1011 1.390 . S
C1006 H997 0.930 . S
C1006 C1004 1.384 . S
C1006 C1007 1.372 . S
C1007 C1006 1.372 . S
C1007 C1008 1.400 . S
C1007 C1012 1.490 . S
C1008 H998 0.930 . S
C1008 C1007 1.400 . S
C1008 C1011 1.386 . S
H1009 C1025 0.930 . S
H1010 C1026 0.931 . S
C1011 H999 0.929 . S
C1011 C1005 1.390 . S
C1011 C1008 1.386 . S
C1012 C1007 1.490 . S
C1012 C1014 1.395 . S
C1012 C1015 1.403 . S
H1013 C1019 0.930 . S
C1014 H1000 0.930 . S
C1014 C1012 1.395 . S
C1014 C1017 1.403 . S
C1015 C1012 1.403 . S
C1015 C1016 1.524 . S
C1015 C1019 1.400 . S
C1016 H1001 0.960 . S
C1016 H1002 0.960 . S
C1016 H1003 0.960 . S
C1016 C1015 1.524 . S
C1017 C1014 1.403 . S
C1017 C1018 1.392 . S
C1017 C1021 1.495 . S
C1018 C1017 1.392 . S
C1018 C1019 1.385 . S
C1018 C1020 1.478 . S
C1019 H1013 0.930 . S
C1019 C1015 1.400 . S
C1019 C1018 1.385 . S
C1020 C1018 1.478 . S
C1020 C1022 1.381 . S
C1020 C1026 1.383 . S
C1021 C1017 1.495 . S
C1021 H1027 0.959 . S
C1021 H1028 0.961 . S
C1021 H1029 0.960 . S
C1022 C1020 1.381 . S
C1022 C1023 1.394 . S
C1022 H1030 0.930 . S
C1023 C1022 1.394 . S
C1023 C1024 1.383 . S
C1023 H1031 0.929 . S
C1024 C1023 1.383 . S
C1024 C1025 1.377 . S
C1025 H1009 0.930 . S
C1025 C1024 1.377 . S
C1025 C1026 1.379 . S
C1026 H1010 0.931 . S
C1026 C1020 1.383 . S
C1026 C1025 1.379 . S
H1027 C1021 0.959 . S
H1028 C1021 0.961 . S
H1029 C1021 0.960 . S
H1030 C1022 0.930 . S
H1031 C1023 0.929 . S
H1032 C1040 0.929 . S
H1033 C1042 0.930 . S
H1034 C1044 0.933 . S
H1035 C1047 0.929 . S
H1036 C1050 0.930 . S
H1037 C1052 0.960 . S
H1038 C1052 0.960 . S
H1039 C1052 0.960 . S
C1040 H1032 0.929 . S
C1040 C1041 1.377 . S
C1040 C1042 1.384 . S
C1041 C1040 1.377 . S
C1041 C1047 1.390 . S
C1042 H1033 0.930 . S
C1042 C1040 1.384 . S
C1042 C1043 1.372 . S
C1043 C1042 1.372 . S
C1043 C1044 1.400 . S
C1043 C1048 1.490 . S
C1044 H1034 0.933 . S
C1044 C1043 1.400 . S
C1044 C1047 1.386 . S
H1045 C1061 0.930 . S
H1046 C1062 0.931 . S
C1047 H1035 0.929 . S
C1047 C1041 1.390 . S
C1047 C1044 1.386 . S
C1048 C1043 1.490 . S
C1048 C1050 1.395 . S
C1048 C1051 1.403 1_554 S
H1049 C1055 0.930 . S
C1050 H1036 0.930 . S
C1050 C1048 1.395 . S
C1050 C1053 1.403 . S
C1051 C1048 1.403 1_556 S
C1051 C1052 1.524 . S
C1051 C1055 1.400 . S
C1052 H1037 0.960 . S
C1052 H1038 0.960 . S
C1052 H1039 0.960 . S
C1052 C1051 1.524 . S
C1053 C1050 1.403 . S
C1053 C1054 1.392 1_554 S
C1053 C1057 1.495 . S
C1054 C1053 1.392 1_556 S
C1054 C1055 1.385 . S
C1054 C1056 1.478 . S
C1055 H1049 0.930 . S
C1055 C1051 1.400 . S
C1055 C1054 1.385 . S
C1056 C1054 1.478 . S
C1056 C1058 1.381 . S
C1056 C1062 1.383 . S
C1057 C1053 1.495 . S
C1057 H1063 0.959 . S
C1057 H1064 0.961 . S
C1057 H1065 0.960 . S
C1058 C1056 1.381 . S
C1058 C1059 1.394 . S
C1058 H1066 0.929 1_556 S
C1059 C1058 1.394 . S
C1059 C1060 1.383 . S
C1059 H1067 0.929 . S
C1060 C1059 1.383 . S
C1060 C1061 1.377 . S
C1061 H1045 0.930 . S
C1061 C1060 1.377 . S
C1061 C1062 1.379 . S
C1062 H1046 0.931 . S
C1062 C1056 1.383 . S
C1062 C1061 1.379 . S
H1063 C1057 0.959 . S
H1064 C1057 0.961 . S
H1065 C1057 0.960 . S
H1066 C1058 0.929 1_554 S
H1067 C1059 0.929 . S
H1068 C1076 0.929 . S
H1069 C1078 0.930 . S
H1070 C1080 0.930 . S
H1071 C1083 0.929 . S
H1072 C1086 0.930 . S
H1073 C1088 0.960 . S
H1074 C1088 0.960 . S
H1075 C1088 0.960 . S
C1076 H1068 0.929 . S
C1076 C1077 1.377 . S
C1076 C1078 1.384 . S
C1077 C1076 1.377 . S
C1077 C1083 1.390 . S
C1078 H1069 0.930 . S
C1078 C1076 1.384 . S
C1078 C1079 1.372 . S
C1079 C1078 1.372 . S
C1079 C1080 1.400 . S
C1079 C1084 1.490 . S
C1080 H1070 0.930 . S
C1080 C1079 1.400 . S
C1080 C1083 1.386 . S
H1081 C1097 0.930 . S
H1082 C1098 0.931 . S
C1083 H1071 0.929 . S
C1083 C1077 1.390 . S
C1083 C1080 1.386 . S
C1084 C1079 1.490 . S
C1084 C1086 1.395 . S
C1084 C1087 1.403 . S
H1085 C1091 0.930 . S
C1086 H1072 0.930 . S
C1086 C1084 1.395 . S
C1086 C1089 1.403 . S
C1087 C1084 1.403 . S
C1087 C1088 1.524 . S
C1087 C1091 1.400 . S
C1088 H1073 0.960 . S
C1088 H1074 0.960 . S
C1088 H1075 0.960 . S
C1088 C1087 1.524 . S
C1089 C1086 1.403 . S
C1089 C1090 1.392 . S
C1089 C1093 1.495 . S
C1090 C1089 1.392 . S
C1090 C1091 1.385 . S
C1090 C1092 1.478 . S
C1091 H1085 0.930 . S
C1091 C1087 1.400 . S
C1091 C1090 1.385 . S
C1092 C1090 1.478 . S
C1092 C1094 1.381 . S
C1092 C1098 1.383 . S
C1093 C1089 1.495 . S
C1093 H1099 0.959 . S
C1093 H1100 0.961 . S
C1093 H1101 0.960 . S
C1094 C1092 1.381 . S
C1094 C1095 1.394 . S
C1094 H1102 0.930 . S
C1095 C1094 1.394 . S
C1095 C1096 1.383 . S
C1095 H1103 0.929 . S
C1096 C1095 1.383 . S
C1096 C1097 1.377 . S
C1097 H1081 0.930 . S
C1097 C1096 1.377 . S
C1097 C1098 1.379 . S
C1098 H1082 0.931 . S
C1098 C1092 1.383 . S
C1098 C1097 1.379 . S
H1099 C1093 0.959 . S
H1100 C1093 0.961 . S
H1101 C1093 0.960 . S
H1102 C1094 0.930 . S
H1103 C1095 0.929 . S
H1104 C1112 0.929 . S
H1105 C1114 0.930 . S
H1106 C1116 0.930 . S
H1107 C1119 0.929 . S
H1108 C1122 0.930 . S
H1109 C1124 0.960 . S
H1110 C1124 0.960 . S
H1111 C1124 0.960 . S
C1112 H1104 0.929 . S
C1112 C1113 1.377 . S
C1112 C1114 1.384 . S
C1113 C1112 1.377 . S
C1113 C1119 1.390 . S
C1114 H1105 0.930 . S
C1114 C1112 1.384 . S
C1114 C1115 1.372 . S
C1115 C1114 1.372 . S
C1115 C1116 1.400 . S
C1115 C1120 1.490 . S
C1116 H1106 0.930 . S
C1116 C1115 1.400 . S
C1116 C1119 1.386 . S
H1117 C1133 0.930 . S
H1118 C1134 0.931 . S
C1119 H1107 0.929 . S
C1119 C1113 1.390 . S
C1119 C1116 1.386 . S
C1120 C1115 1.490 . S
C1120 C1122 1.395 . S
C1120 C1123 1.403 . S
H1121 C1127 0.930 . S
C1122 H1108 0.930 . S
C1122 C1120 1.395 . S
C1122 C1125 1.403 . S
C1123 C1120 1.403 . S
C1123 C1124 1.524 . S
C1123 C1127 1.400 . S
C1124 H1109 0.960 . S
C1124 H1110 0.960 . S
C1124 H1111 0.960 . S
C1124 C1123 1.524 . S
C1125 C1122 1.403 . S
C1125 C1126 1.392 . S
C1125 C1129 1.495 . S
C1126 C1125 1.392 . S
C1126 C1127 1.385 . S
C1126 C1128 1.478 . S
C1127 H1121 0.930 . S
C1127 C1123 1.400 . S
C1127 C1126 1.385 . S
C1128 C1126 1.478 . S
C1128 C1130 1.381 . S
C1128 C1134 1.383 . S
C1129 C1125 1.495 . S
C1129 H1135 0.959 . S
C1129 H1136 0.961 . S
C1129 H1137 0.960 . S
C1130 C1128 1.381 . S
C1130 C1131 1.394 . S
C1130 H1138 0.930 . S
C1131 C1130 1.394 . S
C1131 C1132 1.383 . S
C1131 H1139 0.929 . S
C1132 C1131 1.383 . S
C1132 C1133 1.377 . S
C1133 H1117 0.930 . S
C1133 C1132 1.377 . S
C1133 C1134 1.379 . S
C1134 H1118 0.931 . S
C1134 C1128 1.383 . S
C1134 C1133 1.379 . S
H1135 C1129 0.959 . S
H1136 C1129 0.961 . S
H1137 C1129 0.960 . S
H1138 C1130 0.930 . S
H1139 C1131 0.929 . S
H1140 C1148 0.929 . S
H1141 C1150 0.930 . S
H1142 C1152 0.930 . S
H1143 C1155 0.929 . S
H1144 C1158 0.930 . S
H1145 C1160 0.960 . S
H1146 C1160 0.960 . S
H1147 C1160 0.960 . S
C1148 H1140 0.929 . S
C1148 C1149 1.377 . S
C1148 C1150 1.384 . S
C1149 C1148 1.377 . S
C1149 C1155 1.390 . S
C1150 H1141 0.930 . S
C1150 C1148 1.384 . S
C1150 C1151 1.372 . S
C1151 C1150 1.372 . S
C1151 C1152 1.400 . S
C1151 C1156 1.490 . S
C1152 H1142 0.930 . S
C1152 C1151 1.400 . S
C1152 C1155 1.386 . S
H1153 C1169 0.930 . S
H1154 C1170 0.931 . S
C1155 H1143 0.929 . S
C1155 C1149 1.390 . S
C1155 C1152 1.386 . S
C1156 C1151 1.490 . S
C1156 C1158 1.395 . S
C1156 C1159 1.403 . S
H1157 C1163 0.930 . S
C1158 H1144 0.930 . S
C1158 C1156 1.395 . S
C1158 C1161 1.403 . S
C1159 C1156 1.403 . S
C1159 C1160 1.524 . S
C1159 C1163 1.400 . S
C1160 H1145 0.960 . S
C1160 H1146 0.960 . S
C1160 H1147 0.960 . S
C1160 C1159 1.524 . S
C1161 C1158 1.403 . S
C1161 C1162 1.392 . S
C1161 C1165 1.495 . S
C1162 C1161 1.392 . S
C1162 C1163 1.385 . S
C1162 C1164 1.478 . S
C1163 H1157 0.930 . S
C1163 C1159 1.400 . S
C1163 C1162 1.385 . S
C1164 C1162 1.478 . S
C1164 C1166 1.381 . S
C1164 C1170 1.383 . S
C1165 C1161 1.495 . S
C1165 H1171 0.959 . S
C1165 H1172 0.961 . S
C1165 H1173 0.960 . S
C1166 C1164 1.381 . S
C1166 C1167 1.394 . S
C1166 H1174 0.930 . S
C1167 C1166 1.394 . S
C1167 C1168 1.383 . S
C1167 H1175 0.929 . S
C1168 C1167 1.383 . S
C1168 C1169 1.377 . S
C1169 H1153 0.930 . S
C1169 C1168 1.377 . S
C1169 C1170 1.379 . S
C1170 H1154 0.931 . S
C1170 C1164 1.383 . S
C1170 C1169 1.379 . S
H1171 C1165 0.959 . S
H1172 C1165 0.961 . S
H1173 C1165 0.960 . S
H1174 C1166 0.930 . S
H1175 C1167 0.929 . S
H1176 C1184 0.929 . S
H1177 C1186 0.930 . S
H1178 C1188 0.930 . S
H1179 C1191 0.929 . S
H1180 C1194 0.930 . S
H1181 C1196 0.960 . S
H1182 C1196 0.960 . S
H1183 C1196 0.960 . S
C1184 H1176 0.929 . S
C1184 C1185 1.377 . S
C1184 C1186 1.384 . S
C1185 C1184 1.377 . S
C1185 C1191 1.390 . S
C1186 H1177 0.930 . S
C1186 C1184 1.384 . S
C1186 C1187 1.372 . S
C1187 C1186 1.372 . S
C1187 C1188 1.400 . S
C1187 C1192 1.490 . S
C1188 H1178 0.930 . S
C1188 C1187 1.400 . S
C1188 C1191 1.386 . S
H1189 C1205 0.930 . S
H1190 C1206 0.931 . S
C1191 H1179 0.929 . S
C1191 C1185 1.390 . S
C1191 C1188 1.386 . S
C1192 C1187 1.490 . S
C1192 C1194 1.395 1_655 S
C1192 C1195 1.403 . S
H1193 C1199 0.930 . S
C1194 H1180 0.930 . S
C1194 C1192 1.395 1_455 S
C1194 C1197 1.403 . S
C1195 C1192 1.403 . S
C1195 C1196 1.524 . S
C1195 C1199 1.400 . S
C1196 H1181 0.960 . S
C1196 H1182 0.960 . S
C1196 H1183 0.960 . S
C1196 C1195 1.524 . S
C1197 C1194 1.403 . S
C1197 C1198 1.392 . S
C1197 C1201 1.495 . S
C1198 C1197 1.392 . S
C1198 C1199 1.385 1_455 S
C1198 C1200 1.478 . S
C1199 H1193 0.930 . S
C1199 C1195 1.400 . S
C1199 C1198 1.385 1_655 S
C1200 C1198 1.478 . S
C1200 C1202 1.381 . S
C1200 C1206 1.383 . S
C1201 C1197 1.495 . S
C1201 H1207 0.959 . S
C1201 H1208 0.961 . S
C1201 H1209 0.960 . S
C1202 C1200 1.381 . S
C1202 C1203 1.394 . S
C1202 H1210 0.930 . S
C1203 C1202 1.394 . S
C1203 C1204 1.383 . S
C1203 H1211 0.929 . S
C1204 C1203 1.383 . S
C1204 C1205 1.377 . S
C1205 H1189 0.930 . S
C1205 C1204 1.377 . S
C1205 C1206 1.379 . S
C1206 H1190 0.931 . S
C1206 C1200 1.383 . S
C1206 C1205 1.379 . S
H1207 C1201 0.959 . S
H1208 C1201 0.961 . S
H1209 C1201 0.960 . S
H1210 C1202 0.930 . S
H1211 C1203 0.929 . S
H1212 C1220 0.929 1_545 S
H1213 C1222 0.939 . S
H1214 C1224 0.930 . S
H1215 C1227 0.929 . S
H1216 C1230 0.930 . S
H1217 C1232 0.960 . S
H1218 C1232 0.960 . S
H1219 C1232 0.988 . S
C1220 H1212 0.929 1_565 S
C1220 C1221 1.377 . S
C1220 C1222 1.378 1_565 S
C1221 C1220 1.377 . S
C1221 C1227 1.390 . S
C1222 H1213 0.939 . S
C1222 C1220 1.378 1_545 S
C1222 C1223 1.372 1_545 S
C1223 C1222 1.372 1_565 S
C1223 C1224 1.400 . S
C1223 C1228 1.490 . S
C1224 H1214 0.930 . S
C1224 C1223 1.400 . S
C1224 C1227 1.386 . S
H1225 C1241 0.930 1_565 S
H1226 C1242 0.931 . S
C1227 H1215 0.929 . S
C1227 C1221 1.390 . S
C1227 C1224 1.386 . S
C1228 C1223 1.490 . S
C1228 C1230 1.395 . S
C1228 C1231 1.403 1_565 S
H1229 C1235 0.930 . S
C1230 H1216 0.930 . S
C1230 C1228 1.395 . S
C1230 C1233 1.403 . S
C1231 C1228 1.403 1_545 S
C1231 C1232 1.524 . S
C1231 C1235 1.400 . S
C1232 H1217 0.960 . S
C1232 H1218 0.960 . S
C1232 H1219 0.988 . S
C1232 C1231 1.524 . S
C1233 C1230 1.403 . S
C1233 C1234 1.392 1_565 S
C1233 C1237 1.495 . S
C1234 C1233 1.392 1_545 S
C1234 C1235 1.385 . S
C1234 C1236 1.478 . S
C1235 H1229 0.930 . S
C1235 C1231 1.400 . S
C1235 C1234 1.385 . S
C1236 C1234 1.478 . S
C1236 C1238 1.381 . S
C1236 C1242 1.383 1_545 S
C1237 C1233 1.495 . S
C1237 H1243 0.959 . S
C1237 H1244 0.961 . S
C1237 H1245 0.945 1_565 S
C1238 C1236 1.381 . S
C1238 C1239 1.394 . S
C1238 H1246 0.930 . S
C1239 C1238 1.394 . S
C1239 C1240 1.383 . S
C1239 H1247 0.929 . S
C1240 C1239 1.383 . S
C1240 C1241 1.377 . S
C1241 H1225 0.930 1_545 S
C1241 C1240 1.377 . S
C1241 C1242 1.379 1_545 S
C1242 H1226 0.931 . S
C1242 C1236 1.383 1_565 S
C1242 C1241 1.379 1_565 S
H1243 C1237 0.959 . S
H1244 C1237 0.961 . S
H1245 C1237 0.945 1_545 S
H1246 C1238 0.930 . S
H1247 C1239 0.929 . S
H1248 C1256 0.929 . S
H1249 C1258 0.930 . S
H1250 C1260 0.930 . S
H1251 C1263 0.929 . S
H1252 C1266 0.930 . S
H1253 C1268 0.960 . S
H1254 C1268 0.960 . S
H1255 C1268 0.960 . S
C1256 H1248 0.929 . S
C1256 C1257 1.377 . S
C1256 C1258 1.384 . S
C1257 C1256 1.377 . S
C1257 C1263 1.390 . S
C1258 H1249 0.930 . S
C1258 C1256 1.384 . S
C1258 C1259 1.372 . S
C1259 C1258 1.372 . S
C1259 C1260 1.400 . S
C1259 C1264 1.490 . S
C1260 H1250 0.930 . S
C1260 C1259 1.400 . S
C1260 C1263 1.386 . S
H1261 C1277 0.930 . S
H1262 C1278 0.931 . S
C1263 H1251 0.929 . S
C1263 C1257 1.390 . S
C1263 C1260 1.386 . S
C1264 C1259 1.490 . S
C1264 C1266 1.395 . S
C1264 C1267 1.403 . S
H1265 C1271 0.930 . S
C1266 H1252 0.930 . S
C1266 C1264 1.395 . S
C1266 C1269 1.403 . S
C1267 C1264 1.403 . S
C1267 C1268 1.524 . S
C1267 C1271 1.400 . S
C1268 H1253 0.960 . S
C1268 H1254 0.960 . S
C1268 H1255 0.960 . S
C1268 C1267 1.524 . S
C1269 C1266 1.403 . S
C1269 C1270 1.392 . S
C1269 C1273 1.495 . S
C1270 C1269 1.392 . S
C1270 C1271 1.385 . S
C1270 C1272 1.478 . S
C1271 H1265 0.930 . S
C1271 C1267 1.400 . S
C1271 C1270 1.385 . S
C1272 C1270 1.478 . S
C1272 C1274 1.381 . S
C1272 C1278 1.383 . S
C1273 C1269 1.495 . S
C1273 H1279 0.959 . S
C1273 H1280 0.961 . S
C1273 H1281 0.960 . S
C1274 C1272 1.381 . S
C1274 C1275 1.394 . S
C1274 H1282 0.930 . S
C1275 C1274 1.394 . S
C1275 C1276 1.383 . S
C1275 H1283 0.929 . S
C1276 C1275 1.383 . S
C1276 C1277 1.377 . S
C1277 H1261 0.930 . S
C1277 C1276 1.377 . S
C1277 C1278 1.379 . S
C1278 H1262 0.931 . S
C1278 C1272 1.383 . S
C1278 C1277 1.379 . S
H1279 C1273 0.959 . S
H1280 C1273 0.961 . S
H1281 C1273 0.960 . S
H1282 C1274 0.930 . S
H1283 C1275 0.929 . S
H1284 C1292 0.927 . S
H1285 C1294 0.930 1_655 S
H1286 C1296 0.930 . S
H1287 C1299 0.929 . S
H1288 C1302 0.930 . S
H1289 C1304 0.960 . S
H1290 C1304 0.960 . S
H1291 C1304 0.960 . S
C1292 H1284 0.927 . S
C1292 C1293 1.377 . S
C1292 C1294 1.384 . S
C1293 C1292 1.377 . S
C1293 C1299 1.390 . S
C1294 H1285 0.930 1_455 S
C1294 C1292 1.384 . S
C1294 C1295 1.372 . S
C1295 C1294 1.372 . S
C1295 C1296 1.400 . S
C1295 C1300 1.490 . S
C1296 H1286 0.930 . S
C1296 C1295 1.400 . S
C1296 C1299 1.386 . S
H1297 C1313 0.930 . S
H1298 C1314 0.931 . S
C1299 H1287 0.929 . S
C1299 C1293 1.390 . S
C1299 C1296 1.386 . S
C1300 C1295 1.490 . S
C1300 C1302 1.395 1_455 S
C1300 C1303 1.403 . S
H1301 C1307 0.930 . S
C1302 H1288 0.930 . S
C1302 C1300 1.395 1_655 S
C1302 C1305 1.403 . S
C1303 C1300 1.403 . S
C1303 C1304 1.524 . S
C1303 C1307 1.400 . S
C1304 H1289 0.960 . S
C1304 H1290 0.960 . S
C1304 H1291 0.960 . S
C1304 C1303 1.524 . S
C1305 C1302 1.403 . S
C1305 C1306 1.392 . S
C1305 C1309 1.495 . S
C1306 C1305 1.392 . S
C1306 C1307 1.385 1_655 S
C1306 C1308 1.478 . S
C1307 H1301 0.930 . S
C1307 C1303 1.400 . S
C1307 C1306 1.385 1_455 S
C1308 C1306 1.478 . S
C1308 C1310 1.381 . S
C1308 C1314 1.383 . S
C1309 C1305 1.495 . S
C1309 H1315 0.959 . S
C1309 H1316 0.961 . S
C1309 H1317 0.960 . S
C1310 C1308 1.381 . S
C1310 C1311 1.394 . S
C1310 H1318 0.930 . S
C1311 C1310 1.394 . S
C1311 C1312 1.383 . S
C1311 H1319 0.929 . S
C1312 C1311 1.383 . S
C1312 C1313 1.377 . S
C1313 H1297 0.930 . S
C1313 C1312 1.377 . S
C1313 C1314 1.379 . S
C1314 H1298 0.931 . S
C1314 C1308 1.383 . S
C1314 C1313 1.379 . S
H1315 C1309 0.959 . S
H1316 C1309 0.961 . S
H1317 C1309 0.960 . S
H1318 C1310 0.930 . S
H1319 C1311 0.929 . S
H1320 C1328 0.929 . S
H1321 C1330 0.930 . S
H1322 C1332 0.930 . S
H1323 C1335 0.929 . S
H1324 C1338 0.930 . S
H1325 C1340 0.960 . S
H1326 C1340 0.960 . S
H1327 C1340 0.960 . S
C1328 H1320 0.929 . S
C1328 C1329 1.377 1_545 S
C1328 C1330 1.384 . S
C1329 C1328 1.377 1_565 S
C1329 C1335 1.390 . S
C1330 H1321 0.930 . S
C1330 C1328 1.384 . S
C1330 C1331 1.372 1_545 S
C1331 C1330 1.372 1_565 S
C1331 C1332 1.400 . S
C1331 C1336 1.490 . S
C1332 H1322 0.930 . S
C1332 C1331 1.400 . S
C1332 C1335 1.386 . S
H1333 C1349 0.930 . S
H1334 C1350 0.931 . S
C1335 H1323 0.929 . S
C1335 C1329 1.390 . S
C1335 C1332 1.386 . S
C1336 C1331 1.490 . S
C1336 C1338 1.395 1_565 S
C1336 C1339 1.403 . S
H1337 C1343 0.930 . S
C1338 H1324 0.930 . S
C1338 C1336 1.395 1_545 S
C1338 C1341 1.403 . S
C1339 C1336 1.403 . S
C1339 C1340 1.524 . S
C1339 C1343 1.400 . S
C1340 H1325 0.960 . S
C1340 H1326 0.960 . S
C1340 H1327 0.960 . S
C1340 C1339 1.524 . S
C1341 C1338 1.403 . S
C1341 C1342 1.392 . S
C1341 C1345 1.495 . S
C1342 C1341 1.392 . S
C1342 C1343 1.385 1_545 S
C1342 C1344 1.478 . S
C1343 H1337 0.930 . S
C1343 C1339 1.400 . S
C1343 C1342 1.385 1_565 S
C1344 C1342 1.478 . S
C1344 C1346 1.381 . S
C1344 C1350 1.383 1_545 S
C1345 C1341 1.495 . S
C1345 H1351 0.959 . S
C1345 H1352 0.961 . S
C1345 H1353 0.960 . S
C1346 C1344 1.381 . S
C1346 C1347 1.394 . S
C1346 H1354 0.930 . S
C1347 C1346 1.394 . S
C1347 C1348 1.383 . S
C1347 H1355 0.929 . S
C1348 C1347 1.383 . S
C1348 C1349 1.377 1_545 S
C1349 H1333 0.930 . S
C1349 C1348 1.377 1_565 S
C1349 C1350 1.379 . S
C1350 H1334 0.931 . S
C1350 C1344 1.383 1_565 S
C1350 C1349 1.379 . S
H1351 C1345 0.959 . S
H1352 C1345 0.961 . S
H1353 C1345 0.960 . S
H1354 C1346 0.930 . S
H1355 C1347 0.929 . S
H1356 C1364 0.929 . S
H1357 C1366 0.930 . S
H1358 C1368 0.930 . S
H1359 C1371 0.929 . S
H1360 C1374 0.930 . S
H1361 C1376 0.960 . S
H1362 C1376 0.960 . S
H1363 C1376 0.960 . S
C1364 H1356 0.929 . S
C1364 C1365 1.377 . S
C1364 C1366 1.384 . S
C1365 C1364 1.377 . S
C1365 C1371 1.390 . S
C1366 H1357 0.930 . S
C1366 C1364 1.384 . S
C1366 C1367 1.372 . S
C1367 C1366 1.372 . S
C1367 C1368 1.400 . S
C1367 C1372 1.490 . S
C1368 H1358 0.930 . S
C1368 C1367 1.400 . S
C1368 C1371 1.386 . S
H1369 C1385 0.930 . S
H1370 C1386 0.931 . S
C1371 H1359 0.929 . S
C1371 C1365 1.390 . S
C1371 C1368 1.386 . S
C1372 C1367 1.490 . S
C1372 C1374 1.395 . S
C1372 C1375 1.403 . S
H1373 C1379 0.930 . S
C1374 H1360 0.930 . S
C1374 C1372 1.395 . S
C1374 C1377 1.403 . S
C1375 C1372 1.403 . S
C1375 C1376 1.524 . S
C1375 C1379 1.400 . S
C1376 H1361 0.960 . S
C1376 H1362 0.960 . S
C1376 H1363 0.960 . S
C1376 C1375 1.524 . S
C1377 C1374 1.403 . S
C1377 C1378 1.392 . S
C1377 C1381 1.495 . S
C1378 C1377 1.392 . S
C1378 C1379 1.385 . S
C1378 C1380 1.478 . S
C1379 H1373 0.930 . S
C1379 C1375 1.400 . S
C1379 C1378 1.385 . S
C1380 C1378 1.478 . S
C1380 C1382 1.381 . S
C1380 C1386 1.383 . S
C1381 C1377 1.495 . S
C1381 H1387 0.959 . S
C1381 H1388 0.961 . S
C1381 H1389 0.960 . S
C1382 C1380 1.381 . S
C1382 C1383 1.394 . S
C1382 H1390 0.930 . S
C1383 C1382 1.394 . S
C1383 C1384 1.383 . S
C1383 H1391 0.929 . S
C1384 C1383 1.383 . S
C1384 C1385 1.377 . S
C1385 H1369 0.930 . S
C1385 C1384 1.377 . S
C1385 C1386 1.379 . S
C1386 H1370 0.931 . S
C1386 C1380 1.383 . S
C1386 C1385 1.379 . S
H1387 C1381 0.959 . S
H1388 C1381 0.961 . S
H1389 C1381 0.960 . S
H1390 C1382 0.930 . S
H1391 C1383 0.929 . S
H1392 C1400 0.929 . S
H1393 C1402 0.930 . S
H1394 C1404 0.930 . S
H1395 C1407 0.929 . S
H1396 C1410 0.930 . S
H1397 C1412 0.960 . S
H1398 C1412 0.960 . S
H1399 C1412 0.960 . S
C1400 H1392 0.929 . S
C1400 C1401 1.377 . S
C1400 C1402 1.384 . S
C1401 C1400 1.377 . S
C1401 C1407 1.390 . S
C1402 H1393 0.930 . S
C1402 C1400 1.384 . S
C1402 C1403 1.372 . S
C1403 C1402 1.372 . S
C1403 C1404 1.400 . S
C1403 C1408 1.490 . S
C1404 H1394 0.930 . S
C1404 C1403 1.400 . S
C1404 C1407 1.386 . S
H1405 C1421 0.930 . S
H1406 C1422 0.931 . S
C1407 H1395 0.929 . S
C1407 C1401 1.390 . S
C1407 C1404 1.386 . S
C1408 C1403 1.490 . S
C1408 C1410 1.395 1_455 S
C1408 C1411 1.403 . S
H1409 C1415 0.930 . S
C1410 H1396 0.930 . S
C1410 C1408 1.395 1_655 S
C1410 C1413 1.403 . S
C1411 C1408 1.403 . S
C1411 C1412 1.524 . S
C1411 C1415 1.400 . S
C1412 H1397 0.960 . S
C1412 H1398 0.960 . S
C1412 H1399 0.960 . S
C1412 C1411 1.524 . S
C1413 C1410 1.403 . S
C1413 C1414 1.392 . S
C1413 C1417 1.495 . S
C1414 C1413 1.392 . S
C1414 C1415 1.385 1_655 S
C1414 C1416 1.478 . S
C1415 H1409 0.930 . S
C1415 C1411 1.400 . S
C1415 C1414 1.385 1_455 S
C1416 C1414 1.478 . S
C1416 C1418 1.381 . S
C1416 C1422 1.383 . S
C1417 C1413 1.495 . S
C1417 H1423 0.959 . S
C1417 H1424 0.961 . S
C1417 H1425 0.960 . S
C1418 C1416 1.381 . S
C1418 C1419 1.394 . S
C1418 H1426 0.918 1_655 S
C1419 C1418 1.394 . S
C1419 C1420 1.383 . S
C1419 H1427 0.929 . S
C1420 C1419 1.383 . S
C1420 C1421 1.377 . S
C1421 H1405 0.930 . S
C1421 C1420 1.377 . S
C1421 C1422 1.379 . S
C1422 H1406 0.931 . S
C1422 C1416 1.383 . S
C1422 C1421 1.379 . S
H1423 C1417 0.959 . S
H1424 C1417 0.961 . S
H1425 C1417 0.960 . S
H1426 C1418 0.918 1_455 S
H1427 C1419 0.929 . S
H1428 C1436 0.929 . S
H1429 C1438 0.930 1_545 S
H1430 C1440 0.930 . S
H1431 C1443 0.929 . S
H1432 C1446 0.930 . S
H1433 C1448 0.960 . S
H1434 C1448 0.960 . S
H1435 C1448 0.960 . S
C1436 H1428 0.929 . S
C1436 C1437 1.377 . S
C1436 C1438 1.384 . S
C1437 C1436 1.377 . S
C1437 C1443 1.390 . S
C1438 H1429 0.930 1_565 S
C1438 C1436 1.384 . S
C1438 C1439 1.372 . S
C1439 C1438 1.372 . S
C1439 C1440 1.400 . S
C1439 C1444 1.490 . S
C1440 H1430 0.930 . S
C1440 C1439 1.400 . S
C1440 C1443 1.386 . S
H1441 C1457 0.930 . S
H1442 C1458 0.933 1_565 S
C1443 H1431 0.929 . S
C1443 C1437 1.390 . S
C1443 C1440 1.386 . S
C1444 C1439 1.490 . S
C1444 C1446 1.395 . S
C1444 C1447 1.403 1_565 S
H1445 C1451 0.930 . S
C1446 H1432 0.930 . S
C1446 C1444 1.395 . S
C1446 C1449 1.403 . S
C1447 C1444 1.403 1_545 S
C1447 C1448 1.524 . S
C1447 C1451 1.400 . S
C1448 H1433 0.960 . S
C1448 H1434 0.960 . S
C1448 H1435 0.960 . S
C1448 C1447 1.524 . S
C1449 C1446 1.403 . S
C1449 C1450 1.392 1_565 S
C1449 C1453 1.495 . S
C1450 C1449 1.392 1_545 S
C1450 C1451 1.385 . S
C1450 C1452 1.478 . S
C1451 H1445 0.930 . S
C1451 C1447 1.400 . S
C1451 C1450 1.385 . S
C1452 C1450 1.478 . S
C1452 C1454 1.381 . S
C1452 C1458 1.383 . S
C1453 C1449 1.495 . S
C1453 H1459 0.959 . S
C1453 H1460 0.961 . S
C1453 H1461 0.960 . S
C1454 C1452 1.381 . S
C1454 C1455 1.394 . S
C1454 H1462 0.930 . S
C1455 C1454 1.394 . S
C1455 C1456 1.383 . S
C1455 H1463 0.929 . S
C1456 C1455 1.383 . S
C1456 C1457 1.377 . S
C1457 H1441 0.930 . S
C1457 C1456 1.377 . S
C1457 C1458 1.377 . S
C1458 H1442 0.933 1_545 S
C1458 C1452 1.383 . S
C1458 C1457 1.377 . S
H1459 C1453 0.959 . S
H1460 C1453 0.961 . S
H1461 C1453 0.960 . S
H1462 C1454 0.930 . S
H1463 C1455 0.929 . S
H1464 C1472 0.929 . S
H1465 C1474 0.930 . S
H1466 C1476 0.930 . S
H1467 C1479 0.929 . S
H1468 C1482 0.930 . S
H1469 C1484 0.960 . S
H1470 C1484 0.960 . S
H1471 C1484 0.960 . S
C1472 H1464 0.929 . S
C1472 C1473 1.377 . S
C1472 C1474 1.384 . S
C1473 C1472 1.377 . S
C1473 C1479 1.390 . S
C1474 H1465 0.930 . S
C1474 C1472 1.384 . S
C1474 C1475 1.372 . S
C1475 C1474 1.372 . S
C1475 C1476 1.400 . S
C1475 C1480 1.490 . S
C1476 H1466 0.930 . S
C1476 C1475 1.400 . S
C1476 C1479 1.386 . S
H1477 C1493 0.930 . S
H1478 C1494 0.931 . S
C1479 H1467 0.929 . S
C1479 C1473 1.390 . S
C1479 C1476 1.386 . S
C1480 C1475 1.490 . S
C1480 C1482 1.395 . S
C1480 C1483 1.403 . S
H1481 C1487 0.930 . S
C1482 H1468 0.930 . S
C1482 C1480 1.395 . S
C1482 C1485 1.403 . S
C1483 C1480 1.403 . S
C1483 C1484 1.524 . S
C1483 C1487 1.400 . S
C1484 H1469 0.960 . S
C1484 H1470 0.960 . S
C1484 H1471 0.960 . S
C1484 C1483 1.524 . S
C1485 C1482 1.403 . S
C1485 C1486 1.392 . S
C1485 C1489 1.495 . S
C1486 C1485 1.392 . S
C1486 C1487 1.385 . S
C1486 C1488 1.478 . S
C1487 H1481 0.930 . S
C1487 C1483 1.400 . S
C1487 C1486 1.385 . S
C1488 C1486 1.478 . S
C1488 C1490 1.381 . S
C1488 C1494 1.383 . S
C1489 C1485 1.495 . S
C1489 H1495 0.959 . S
C1489 H1496 0.961 . S
C1489 H1497 0.960 . S
C1490 C1488 1.381 . S
C1490 C1491 1.394 . S
C1490 H1498 0.930 . S
C1491 C1490 1.394 . S
C1491 C1492 1.383 . S
C1491 H1499 0.929 . S
C1492 C1491 1.383 . S
C1492 C1493 1.377 . S
C1493 H1477 0.930 . S
C1493 C1492 1.377 . S
C1493 C1494 1.379 . S
C1494 H1478 0.931 . S
C1494 C1488 1.383 . S
C1494 C1493 1.379 . S
H1495 C1489 0.959 . S
H1496 C1489 0.961 . S
H1497 C1489 0.960 . S
H1498 C1490 0.930 . S
H1499 C1491 0.929 . S
H1500 C1508 0.929 . S
H1501 C1510 0.930 . S
H1502 C1512 0.930 . S
H1503 C1515 0.929 . S
H1504 C1518 0.930 . S
H1505 C1520 0.960 1_554 S
H1506 C1520 0.960 . S
H1507 C1520 0.960 1_554 S
C1508 H1500 0.929 . S
C1508 C1509 1.377 . S
C1508 C1510 1.384 . S
C1509 C1508 1.377 . S
C1509 C1515 1.390 . S
C1510 H1501 0.930 . S
C1510 C1508 1.384 . S
C1510 C1511 1.372 . S
C1511 C1510 1.372 . S
C1511 C1512 1.400 . S
C1511 C1516 1.490 . S
C1512 H1502 0.930 . S
C1512 C1511 1.400 . S
C1512 C1515 1.386 . S
H1513 C1529 0.930 . S
H1514 C1530 0.931 . S
C1515 H1503 0.929 . S
C1515 C1509 1.390 . S
C1515 C1512 1.386 . S
C1516 C1511 1.490 . S
C1516 C1518 1.395 1_655 S
C1516 C1519 1.403 . S
H1517 C1523 0.930 . S
C1518 H1504 0.930 . S
C1518 C1516 1.395 1_455 S
C1518 C1521 1.403 . S
C1519 C1516 1.403 . S
C1519 C1520 1.524 . S
C1519 C1523 1.400 . S
C1520 H1505 0.960 1_556 S
C1520 H1506 0.960 . S
C1520 H1507 0.960 1_556 S
C1520 C1519 1.524 . S
C1521 C1518 1.403 . S
C1521 C1522 1.392 . S
C1521 C1525 1.495 . S
C1522 C1521 1.392 . S
C1522 C1523 1.385 1_455 S
C1522 C1524 1.478 . S
C1523 H1517 0.930 . S
C1523 C1519 1.400 . S
C1523 C1522 1.385 1_655 S
C1524 C1522 1.478 . S
C1524 C1526 1.381 . S
C1524 C1530 1.383 . S
C1525 C1521 1.495 . S
C1525 H1531 0.959 . S
C1525 H1532 0.961 . S
C1525 H1533 0.960 . S
C1526 C1524 1.381 . S
C1526 C1527 1.394 . S
C1526 H1534 0.930 1_455 S
C1527 C1526 1.394 . S
C1527 C1528 1.383 . S
C1527 H1535 0.929 . S
C1528 C1527 1.383 . S
C1528 C1529 1.377 . S
C1529 H1513 0.930 . S
C1529 C1528 1.377 . S
C1529 C1530 1.379 . S
C1530 H1514 0.931 . S
C1530 C1524 1.383 . S
C1530 C1529 1.379 . S
H1531 C1525 0.959 . S
H1532 C1525 0.961 . S
H1533 C1525 0.960 . S
H1534 C1526 0.930 1_655 S
H1535 C1527 0.929 . S
H1536 C1544 0.929 1_565 S
H1537 C1546 0.930 . S
H1538 C1548 0.930 . S
H1539 C1551 0.929 . S
H1540 C1554 0.930 . S
H1541 C1556 0.960 . S
H1542 C1556 0.960 . S
H1543 C1556 0.960 . S
C1544 H1536 0.929 1_545 S
C1544 C1545 1.377 . S
C1544 C1546 1.384 1_545 S
C1545 C1544 1.377 . S
C1545 C1551 1.390 . S
C1546 H1537 0.930 . S
C1546 C1544 1.384 1_565 S
C1546 C1547 1.372 1_565 S
C1547 C1546 1.372 1_545 S
C1547 C1548 1.400 . S
C1547 C1552 1.490 . S
C1548 H1538 0.930 . S
C1548 C1547 1.400 . S
C1548 C1551 1.386 . S
H1549 C1565 0.930 1_545 S
H1550 C1566 0.931 1_545 S
C1551 H1539 0.929 . S
C1551 C1545 1.390 . S
C1551 C1548 1.386 . S
C1552 C1547 1.490 . S
C1552 C1554 1.395 1_545 S
C1552 C1555 1.403 . S
H1553 C1559 0.930 . S
C1554 H1540 0.930 . S
C1554 C1552 1.395 1_565 S
C1554 C1557 1.403 . S
C1555 C1552 1.403 . S
C1555 C1556 1.524 . S
C1555 C1559 1.400 . S
C1556 H1541 0.960 . S
C1556 H1542 0.960 . S
C1556 H1543 0.960 . S
C1556 C1555 1.524 . S
C1557 C1554 1.403 . S
C1557 C1558 1.392 . S
C1557 C1561 1.495 . S
C1558 C1557 1.392 . S
C1558 C1559 1.385 1_565 S
C1558 C1560 1.478 . S
C1559 H1553 0.930 . S
C1559 C1555 1.400 . S
C1559 C1558 1.385 1_545 S
C1560 C1558 1.478 . S
C1560 C1562 1.381 . S
C1560 C1566 1.383 . S
C1561 C1557 1.495 . S
C1561 H1567 0.959 . S
C1561 H1568 0.961 . S
C1561 H1569 0.960 . S
C1562 C1560 1.381 . S
C1562 C1563 1.394 . S
C1562 H1570 0.930 . S
C1563 C1562 1.394 . S
C1563 C1564 1.383 . S
C1563 H1571 0.929 . S
C1564 C1563 1.383 . S
C1564 C1565 1.377 . S
C1565 H1549 0.930 1_565 S
C1565 C1564 1.377 . S
C1565 C1566 1.379 . S
C1566 H1550 0.931 1_565 S
C1566 C1560 1.383 . S
C1566 C1565 1.379 . S
H1567 C1561 0.959 . S
H1568 C1561 0.961 . S
H1569 C1561 0.960 . S
H1570 C1562 0.930 . S
H1571 C1563 0.929 . S
C717 C3 1.609 . S
C736 C534 1.618 . S
C753 C62 1.607 . S
C772 C593 1.622 . S
C789 C121 1.610 . S
C808 C652 1.615 . S
C825 C180 1.604 . S
C844 C357 1.610 . S
C861 C416 1.604 . S
C880 C239 1.616 . S
C897 C475 1.611 . S
C916 C298 1.599 . S
C933 C595 1.622 . S
C952 C5 1.626 . S
C969 C64 1.620 . S
C988 C654 1.607 . S
C1005 C123 1.621 . S
C1024 C359 1.628 . S
C1041 C182 1.620 . S
C1060 C418 1.607 . S
C1077 C241 1.622 . S
C1096 C477 1.626 . S
C1113 C300 1.622 . S
C1132 C536 1.625 . S
C1149 C564 0.678 . S
C1168 C33 0.693 . S
C1185 C92 0.668 . S
C1204 C623 0.645 . S
C1221 C151 0.679 . S
C1240 C682 0.701 . S
C1257 C387 0.678 . S
C1276 C210 0.698 . S
C1293 C269 0.669 . S
C1312 C446 0.653 . S
C1329 C505 0.676 . S
C1348 C328 0.686 . S
C1365 C52 1.615 . S
C1384 C229 1.608 . S
C1401 C288 1.615 . S
C1420 C111 1.606 . S
C1437 C170 1.617 . S
C1456 C347 1.618 . S
C1473 C406 1.616 . S
C1492 C583 1.618 . S
C1509 C465 1.615 . S
C1528 C642 1.606 . S
C1545 C701 1.615 . S
C1564 C524 1.612 . S
