# Generated by pormake.
# Topology pcl, (4)-cn, num edge types: 1
# Building blocks:
#     Node 0, Type 0, BuildingBlock: NAHDIM_clean_sbu_0, # of connection points: 4
#     Node 1, Type 0, BuildingBlock: NAHDIM_clean_sbu_0, # of connection points: 4
#     Node 2, Type 0, BuildingBlock: NAHDIM_clean_sbu_0, # of connection points: 4
#     Node 3, Type 0, BuildingBlock: NAHDIM_clean_sbu_0, # of connection points: 4
#     Node 4, Type 0, BuildingBlock: NAHDIM_clean_sbu_0, # of connection points: 4
#     Node 5, Type 0, BuildingBlock: NAHDIM_clean_sbu_0, # of connection points: 4
#     Node 6, Type 0, BuildingBlock: NAHDIM_clean_sbu_0, # of connection points: 4
#     Node 7, Type 0, BuildingBlock: NAHDIM_clean_sbu_0, # of connection points: 4
#     Node 8, Type 0, BuildingBlock: NAHDIM_clean_sbu_0, # of connection points: 4
#     Node 9, Type 0, BuildingBlock: NAHDIM_clean_sbu_0, # of connection points: 4
#     Node 10, Type 0, BuildingBlock: NAHDIM_clean_sbu_0, # of connection points: 4
#     Node 11, Type 0, BuildingBlock: NAHDIM_clean_sbu_0, # of connection points: 4
#     Node 12, Type 0, BuildingBlock: NAHDIM_clean_sbu_0, # of connection points: 4
#     Node 13, Type 0, BuildingBlock: NAHDIM_clean_sbu_0, # of connection points: 4
#     Node 14, Type 0, BuildingBlock: NAHDIM_clean_sbu_0, # of connection points: 4
#     Node 15, Type 0, BuildingBlock: NAHDIM_clean_sbu_0, # of connection points: 4
#     Edge 16, Type (0, 0), BuildingBlock: XUDNAN_clean_linker_2, # of connection points: 2
#     Edge 17, Type (0, 0), BuildingBlock: XUDNAN_clean_linker_2, # of connection points: 2
#     Edge 18, Type (0, 0), BuildingBlock: XUDNAN_clean_linker_2, # of connection points: 2
#     Edge 19, Type (0, 0), BuildingBlock: XUDNAN_clean_linker_2, # of connection points: 2
#     Edge 20, Type (0, 0), BuildingBlock: XUDNAN_clean_linker_2, # of connection points: 2
#     Edge 21, Type (0, 0), BuildingBlock: XUDNAN_clean_linker_2, # of connection points: 2
#     Edge 22, Type (0, 0), BuildingBlock: XUDNAN_clean_linker_2, # of connection points: 2
#     Edge 23, Type (0, 0), BuildingBlock: XUDNAN_clean_linker_2, # of connection points: 2
#     Edge 24, Type (0, 0), BuildingBlock: XUDNAN_clean_linker_2, # of connection points: 2
#     Edge 25, Type (0, 0), BuildingBlock: XUDNAN_clean_linker_2, # of connection points: 2
#     Edge 26, Type (0, 0), BuildingBlock: XUDNAN_clean_linker_2, # of connection points: 2
#     Edge 27, Type (0, 0), BuildingBlock: XUDNAN_clean_linker_2, # of connection points: 2
#     Edge 28, Type (0, 0), BuildingBlock: XUDNAN_clean_linker_2, # of connection points: 2
#     Edge 29, Type (0, 0), BuildingBlock: XUDNAN_clean_linker_2, # of connection points: 2
#     Edge 30, Type (0, 0), BuildingBlock: XUDNAN_clean_linker_2, # of connection points: 2
#     Edge 31, Type (0, 0), BuildingBlock: XUDNAN_clean_linker_2, # of connection points: 2
#     Edge 32, Type (0, 0), BuildingBlock: XUDNAN_clean_linker_2, # of connection points: 2
#     Edge 33, Type (0, 0), BuildingBlock: XUDNAN_clean_linker_2, # of connection points: 2
#     Edge 34, Type (0, 0), BuildingBlock: XUDNAN_clean_linker_2, # of connection points: 2
#     Edge 35, Type (0, 0), BuildingBlock: XUDNAN_clean_linker_2, # of connection points: 2
#     Edge 36, Type (0, 0), BuildingBlock: XUDNAN_clean_linker_2, # of connection points: 2
#     Edge 37, Type (0, 0), BuildingBlock: XUDNAN_clean_linker_2, # of connection points: 2
#     Edge 38, Type (0, 0), BuildingBlock: XUDNAN_clean_linker_2, # of connection points: 2
#     Edge 39, Type (0, 0), BuildingBlock: XUDNAN_clean_linker_2, # of connection points: 2
#     Edge 40, Type (0, 0), BuildingBlock: XUDNAN_clean_linker_2, # of connection points: 2
#     Edge 41, Type (0, 0), BuildingBlock: XUDNAN_clean_linker_2, # of connection points: 2
#     Edge 42, Type (0, 0), BuildingBlock: XUDNAN_clean_linker_2, # of connection points: 2
#     Edge 43, Type (0, 0), BuildingBlock: XUDNAN_clean_linker_2, # of connection points: 2
#     Edge 44, Type (0, 0), BuildingBlock: XUDNAN_clean_linker_2, # of connection points: 2
#     Edge 45, Type (0, 0), BuildingBlock: XUDNAN_clean_linker_2, # of connection points: 2
#     Edge 46, Type (0, 0), BuildingBlock: XUDNAN_clean_linker_2, # of connection points: 2
#     Edge 47, Type (0, 0), BuildingBlock: XUDNAN_clean_linker_2, # of connection points: 2
# Relax obj value: 0.089
# Max RMSD: 0.096
# Mean RMSD: 0.087
data_MOF--net-pcl--node1-NAHDIM_clean_sbu_0--edge1-XUDNAN_clean_linker_2
_symmetry_space_group_name_H-M    P1
_symmetry_Int_Tables_number       1
_symmetry_cell_setting            triclinic
loop_
_symmetry_equiv_pos_as_xyz
'x, y, z'
_cell_length_a     48.231423
_cell_length_b     47.904893
_cell_length_c     42.709999
_cell_angle_alpha  89.883327
_cell_angle_beta   89.945468
_cell_angle_gamma 90.015471
loop_
_atom_site_label
_atom_site_type_symbol
_atom_site_fract_x
_atom_site_fract_y
_atom_site_fract_z
_atom_type_partial_charge
C0 C 0.22584 0.32091 0.06392 0.0
O1 O 0.23648 0.34363 0.07619 0.0
O2 O 0.17804 0.348 0.12798 0.0
Zn3 Zn 0.17617 0.34865 0.08098 0.0
O4 O 0.19048 0.38479 0.0635 0.0
C5 C 0.11619 0.34768 0.08472 0.0
O6 O 0.12073 0.35497 0.1139 0.0
O7 O 0.19968 0.31789 0.06363 0.0
C8 C 0.17834 0.40787 0.0685 0.0
O9 O 0.15631 0.40833 0.0866 0.0
C10 C 0.19554 0.36189 0.1438 0.0
O11 O 0.21363 0.37775 0.12918 0.0
O12 O 0.13671 0.34359 0.0666 0.0
C13 C 0.80036 0.68982 0.54158 0.0
O14 O 0.7828 0.67829 0.56127 0.0
O15 O 0.82436 0.64285 0.60404 0.0
Zn16 Zn 0.83737 0.64429 0.55921 0.0
O17 O 0.8237 0.61086 0.53543 0.0
C18 C 0.89075 0.66547 0.57305 0.0
O19 O 0.87535 0.68403 0.58753 0.0
O20 O 0.82409 0.67889 0.53767 0.0
C21 C 0.83697 0.58797 0.53601 0.0
O22 O 0.85979 0.58619 0.55265 0.0
C23 C 0.83816 0.62797 0.62316 0.0
O24 O 0.85965 0.61391 0.6128 0.0
O25 O 0.87898 0.64558 0.55862 0.0
C26 C 0.19436 0.6654 0.95527 0.0
O27 O 0.20896 0.64247 0.95875 0.0
O28 O 0.15638 0.62311 0.88408 0.0
Zn29 Zn 0.15174 0.62829 0.93056 0.0
O30 O 0.16629 0.59524 0.95458 0.0
C31 C 0.09205 0.63256 0.92084 0.0
O32 O 0.09843 0.63195 0.89094 0.0
O33 O 0.17007 0.66395 0.94393 0.0
C34 C 0.18676 0.58008 0.94676 0.0
O35 O 0.20082 0.58613 0.92129 0.0
C36 C 0.1786 0.62957 0.8698 0.0
O37 O 0.19972 0.63929 0.88581 0.0
O38 O 0.11127 0.63143 0.94113 0.0
C39 C 0.77615 0.33175 0.43713 0.0
O40 O 0.76802 0.35236 0.41902 0.0
O41 O 0.82424 0.35482 0.37383 0.0
Zn42 Zn 0.82926 0.35389 0.42066 0.0
O43 O 0.8243 0.39246 0.43799 0.0
C44 C 0.88118 0.32423 0.41359 0.0
O45 O 0.8674 0.31049 0.39204 0.0
O46 O 0.80196 0.32788 0.44135 0.0
C47 C 0.80883 0.41092 0.42569 0.0
O48 O 0.79471 0.40489 0.40031 0.0
C49 C 0.81286 0.33531 0.35834 0.0
O50 O 0.80305 0.31341 0.37322 0.0
O51 O 0.8687 0.34273 0.42956 0.0
C52 C 0.79746 0.67682 0.93919 0.0
O53 O 0.77919 0.65821 0.93004 0.0
O54 O 0.82289 0.60294 0.94188 0.0
Zn55 Zn 0.83678 0.63603 0.91728 0.0
O56 O 0.82459 0.63422 0.87231 0.0
C57 C 0.88981 0.63743 0.94628 0.0
O58 O 0.87416 0.63787 0.97148 0.0
O59 O 0.82311 0.67158 0.93618 0.0
C60 C 0.83952 0.62189 0.85209 0.0
O61 O 0.86254 0.60966 0.86112 0.0
C62 C 0.83639 0.58026 0.93969 0.0
O63 O 0.85784 0.57917 0.92076 0.0
O64 O 0.87832 0.63673 0.91955 0.0
C65 C 0.18434 0.32046 0.46231 0.0
O66 O 0.20123 0.33436 0.44382 0.0
O67 O 0.14273 0.39095 0.45075 0.0
Zn68 Zn 0.14083 0.35259 0.43161 0.0
O69 O 0.16054 0.3533 0.39002 0.0
C70 C 0.08117 0.34929 0.44189 0.0
O71 O 0.08617 0.36642 0.4652 0.0
O72 O 0.15842 0.32497 0.46074 0.0
C73 C 0.15213 0.33939 0.36659 0.0
O74 O 0.13051 0.32294 0.36975 0.0
C75 C 0.16282 0.40698 0.44375 0.0
O76 O 0.18199 0.39807 0.42434 0.0
O77 O 0.10113 0.34113 0.42478 0.0
C78 C 0.81972 0.3219 0.03634 0.0
O79 O 0.80301 0.3376 0.05305 0.0
O80 O 0.85175 0.39155 0.05245 0.0
Zn81 Zn 0.86099 0.3534 0.06886 0.0
O82 O 0.84469 0.34674 0.11148 0.0
C83 C 0.91567 0.34676 0.04491 0.0
O84 O 0.90176 0.34613 0.01848 0.0
O85 O 0.84575 0.3249 0.03927 0.0
C86 C 0.85112 0.36168 0.13489 0.0
O87 O 0.86864 0.38243 0.13109 0.0
C88 C 0.83087 0.40605 0.06049 0.0
O89 O 0.81359 0.39628 0.08163 0.0
O90 O 0.90247 0.34962 0.07047 0.0
C91 C 0.20114 0.67212 0.56533 0.0
O92 O 0.21075 0.65113 0.58194 0.0
O93 O 0.15793 0.60831 0.55076 0.0
Zn94 Zn 0.15164 0.64251 0.57693 0.0
O95 O 0.16419 0.63521 0.62105 0.0
C96 C 0.0928 0.64411 0.56008 0.0
O97 O 0.09932 0.62476 0.53962 0.0
O98 O 0.17533 0.6733 0.55956 0.0
C99 C 0.14775 0.62883 0.64319 0.0
O100 O 0.12117 0.62601 0.63729 0.0
C101 C 0.14754 0.58458 0.55701 0.0
O102 O 0.13128 0.58182 0.58152 0.0
O103 O 0.11159 0.65445 0.57737 0.0
C104 C 0.70333 0.8393 0.02959 0.0
O105 O 0.71306 0.86262 0.0414 0.0
O106 O 0.65916 0.85713 0.10037 0.0
Zn107 Zn 0.65267 0.8609 0.05405 0.0
O108 O 0.65929 0.89997 0.0385 0.0
C109 C 0.60344 0.82809 0.0571 0.0
O110 O 0.62016 0.81118 0.07232 0.0
O111 O 0.67757 0.83414 0.03174 0.0
C112 C 0.65428 0.92134 0.05513 0.0
O113 O 0.64465 0.91817 0.08369 0.0
C114 C 0.67732 0.8696 0.11674 0.0
O115 O 0.69438 0.88738 0.10338 0.0
O116 O 0.61301 0.8508 0.04613 0.0
C117 C 0.28264 0.1741 0.57837 0.0
O118 O 0.27135 0.15197 0.59131 0.0
O119 O 0.3137 0.13259 0.63552 0.0
Zn120 Zn 0.32827 0.14064 0.59194 0.0
O121 O 0.32102 0.10935 0.5617 0.0
C122 C 0.38196 0.12991 0.61543 0.0
O123 O 0.36659 0.11401 0.63353 0.0
O124 O 0.30887 0.17501 0.57543 0.0
C125 C 0.32473 0.08368 0.56794 0.0
O126 O 0.33255 0.07629 0.59621 0.0
C127 C 0.29555 0.11511 0.64469 0.0
O128 O 0.28268 0.09938 0.62415 0.0
O129 O 0.37011 0.14504 0.59488 0.0
C130 C 0.71291 0.18103 0.92216 0.0
O131 O 0.72163 0.15903 0.90672 0.0
O132 O 0.66862 0.14597 0.86722 0.0
Zn133 Zn 0.66291 0.15197 0.91341 0.0
O134 O 0.67165 0.11814 0.93925 0.0
C135 C 0.60876 0.17232 0.89815 0.0
O136 O 0.62197 0.18163 0.87332 0.0
O137 O 0.68718 0.18339 0.92802 0.0
C138 C 0.66339 0.09378 0.93225 0.0
O139 O 0.64986 0.08984 0.90593 0.0
C140 C 0.68425 0.12894 0.85282 0.0
O141 O 0.70006 0.11171 0.86877 0.0
O142 O 0.62243 0.16023 0.91968 0.0
C143 C 0.30063 0.82352 0.45826 0.0
O144 O 0.28386 0.83722 0.4395 0.0
O145 O 0.33143 0.852 0.38603 0.0
Zn146 Zn 0.34278 0.85902 0.4309 0.0
O147 O 0.33187 0.89703 0.44686 0.0
C148 C 0.40043 0.86143 0.41197 0.0
O149 O 0.39001 0.86989 0.38517 0.0
O150 O 0.32626 0.82957 0.45845 0.0
C151 C 0.3421 0.91918 0.43518 0.0
O152 O 0.35938 0.91743 0.41148 0.0
C153 C 0.32047 0.86971 0.36762 0.0
O154 O 0.31442 0.8948 0.37783 0.0
O155 O 0.38418 0.85553 0.43446 0.0
C156 C 0.31383 0.16656 0.95049 0.0
O157 O 0.29522 0.14783 0.94256 0.0
O158 O 0.34361 0.09543 0.94813 0.0
Zn159 Zn 0.35125 0.12843 0.92043 0.0
O160 O 0.3312 0.12542 0.87943 0.0
C161 C 0.41101 0.13389 0.93037 0.0
O162 O 0.40539 0.12917 0.96002 0.0
O163 O 0.33901 0.16271 0.94304 0.0
C164 C 0.31289 0.10748 0.87215 0.0
O165 O 0.30485 0.089 0.89303 0.0
C166 C 0.35573 0.07196 0.94641 0.0
O167 O 0.37506 0.06813 0.92515 0.0
O168 O 0.39156 0.13333 0.91038 0.0
C169 C 0.7107 0.84043 0.42348 0.0
O170 O 0.71814 0.8518 0.39675 0.0
O171 O 0.66878 0.91229 0.42376 0.0
Zn172 Zn 0.66165 0.87232 0.41176 0.0
O173 O 0.66579 0.86572 0.36551 0.0
C174 C 0.60342 0.87345 0.40518 0.0
O175 O 0.61075 0.88861 0.38087 0.0
O176 O 0.68711 0.84631 0.435 0.0
C177 C 0.67716 0.88181 0.34562 0.0
O178 O 0.68795 0.90558 0.3549 0.0
C179 C 0.69268 0.92267 0.42835 0.0
O180 O 0.71475 0.90708 0.42414 0.0
O181 O 0.62217 0.86362 0.42294 0.0
C182 C 0.29671 0.82501 0.04028 0.0
O183 O 0.28879 0.85081 0.04547 0.0
O184 O 0.34291 0.88161 0.05864 0.0
Zn185 Zn 0.34492 0.84218 0.07531 0.0
O186 O 0.33365 0.84015 0.12063 0.0
C187 C 0.40143 0.83954 0.05319 0.0
O188 O 0.39334 0.86028 0.03524 0.0
O189 O 0.32006 0.81684 0.05052 0.0
C190 C 0.34078 0.85848 0.1405 0.0
O191 O 0.3557 0.87995 0.13134 0.0
C192 C 0.32587 0.90011 0.0678 0.0
O193 O 0.30769 0.89387 0.08965 0.0
O194 O 0.38417 0.82835 0.07189 0.0
C195 C 0.67078 0.18736 0.54889 0.0
O196 O 0.68688 0.17496 0.56943 0.0
O197 O 0.64565 0.10876 0.53621 0.0
Zn198 Zn 0.63487 0.14115 0.56357 0.0
O199 O 0.65377 0.13618 0.60525 0.0
C200 C 0.58441 0.12262 0.58989 0.0
O201 O 0.60203 0.10492 0.60243 0.0
O202 O 0.64706 0.17705 0.54303 0.0
C203 C 0.64651 0.15088 0.62856 0.0
O204 O 0.62731 0.17004 0.62476 0.0
C205 C 0.67123 0.10318 0.53265 0.0
O206 O 0.68976 0.11892 0.5466 0.0
O207 O 0.59346 0.14088 0.57082 0.0
H208 H 0.06776 0.35254 0.11796 0.0
H209 H 0.09975 0.3372 0.02448 0.0
H210 H 0.05188 0.33431 0.00434 0.0
H211 H 0.00879 0.3059 0.11249 0.0
H212 H 0.98631 0.32852 0.13465 0.0
H213 H 0.02311 0.32874 0.14182 0.0
H214 H 0.02445 0.38207 0.13158 0.0
H215 H 0.98768 0.38201 0.12434 0.0
H216 H 0.01112 0.39567 0.0952 0.0
H217 H 0.00061 0.33459 0.99409 0.0
H218 H 0.94951 0.33721 0.99459 0.0
H219 H 0.95107 0.35183 0.0949 0.0
C220 C 0.06474 0.34845 0.09327 0.0
C221 C 0.08752 0.3451 0.0728 0.0
C222 C 0.08263 0.33979 0.04064 0.0
C223 C 0.05552 0.33812 0.02897 0.0
C224 C 0.03355 0.34168 0.04977 0.0
C225 C 0.03784 0.34662 0.08125 0.0
C226 C 0.01064 0.34997 0.09858 0.0
C227 C 0.00701 0.3269 0.12334 0.0
C228 C 0.00835 0.37917 0.11328 0.0
C229 C 0.99038 0.34642 0.07185 0.0
C230 C 0.004 0.34162 0.0439 0.0
C231 C 0.9897 0.3382 0.01586 0.0
C232 C 0.96067 0.33976 0.01639 0.0
C233 C 0.94627 0.34467 0.04478 0.0
C234 C 0.96144 0.34792 0.07283 0.0
H235 H 0.92857 0.63158 0.54377 0.0
H236 H 0.92204 0.70402 0.60433 0.0
H237 H 0.97308 0.70722 0.60635 0.0
H238 H 0.98726 0.60099 0.58134 0.0
H239 H 0.00276 0.58877 0.54547 0.0
H240 H 0.9657 0.59258 0.54821 0.0
H241 H 0.96611 0.625 0.49956 0.0
H242 H 0.00319 0.62133 0.49668 0.0
H243 H 0.98792 0.65558 0.49942 0.0
H244 H 0.02467 0.70168 0.60316 0.0
H245 H 0.07342 0.68806 0.59454 0.0
H246 H 0.04626 0.61975 0.53531 0.0
C247 C 0.93785 0.64819 0.55738 0.0
C248 C 0.92131 0.66757 0.57389 0.0
C249 C 0.93428 0.68895 0.59145 0.0
C250 C 0.96325 0.69096 0.59274 0.0
C251 C 0.97892 0.67149 0.57625 0.0
C252 C 0.96671 0.65056 0.55884 0.0
C253 C 0.98829 0.6321 0.54358 0.0
C254 C 0.98585 0.60182 0.55537 0.0
C255 C 0.98625 0.63361 0.50768 0.0
C256 C 0.01456 0.64582 0.55529 0.0
C257 C 0.00869 0.6685 0.5741 0.0
C258 C 0.02955 0.68406 0.58833 0.0
C259 C 0.05717 0.67614 0.58331 0.0
C260 C 0.06366 0.65292 0.56415 0.0
C261 C 0.042 0.63775 0.54984 0.0
H262 H 0.92793 0.63612 0.89864 0.0
H263 H 0.92073 0.63846 -1e-05 0.0
H264 H 0.97176 0.63795 0.00446 0.0
H265 H 0.98603 0.5897 0.89547 0.0
H266 H 0.00195 0.60707 0.86256 0.0
H267 H 0.96486 0.60798 0.86735 0.0
H268 H 0.96591 0.66206 0.8657 0.0
H269 H 0.00301 0.66133 0.86092 0.0
H270 H 0.9878 0.68075 0.89269 0.0
H271 H 0.02343 0.63677 -0.00207 0.0
H272 H 0.07227 0.63493 0.98088 0.0
H273 H 0.04561 0.63347 0.88377 0.0
C274 C 0.93705 0.63659 0.9218 0.0
C275 C 0.92034 0.63737 0.94898 0.0
C276 C 0.93311 0.63789 0.97883 0.0
C277 C 0.96207 0.63761 0.98162 0.0
C278 C 0.97791 0.63683 0.95435 0.0
C279 C 0.96587 0.63634 0.92502 0.0
C280 C 0.98758 0.63534 0.89942 0.0
C281 C 0.98494 0.60842 0.88007 0.0
C282 C 0.98597 0.66143 0.87845 0.0
C283 C 0.01373 0.63528 0.91897 0.0
C284 C 0.00769 0.63617 0.95058 0.0
C285 C 0.02843 0.63611 0.97323 0.0
C286 C 0.05611 0.63506 0.9633 0.0
C287 C 0.06278 0.63408 0.93098 0.0
C288 C 0.04122 0.63426 0.90863 0.0
H289 H 0.0328 0.36731 0.46911 0.0
H290 H 0.06489 0.30971 0.39956 0.0
H291 H 0.01722 0.29439 0.38765 0.0
H292 H 0.97586 0.32328 0.49676 0.0
H293 H 0.95248 0.35233 0.50138 0.0
H294 H 0.98927 0.35741 0.50604 0.0
H295 H 0.98837 0.39635 0.46381 0.0
H296 H 0.95162 0.39145 0.45912 0.0
H297 H 0.97427 0.38882 0.42567 0.0
H298 H 0.96599 0.28686 0.38154 0.0
H299 H 0.91488 0.28914 0.38019 0.0
H300 H 0.91628 0.35192 0.45339 0.0
C301 C 0.02985 0.35126 0.45161 0.0
C302 C 0.05261 0.33965 0.43536 0.0
C303 C 0.0478 0.31891 0.41236 0.0
C304 C 0.0208 0.30998 0.4055 0.0
C305 C -0.00117 0.32195 0.42183 0.0
C306 C 0.00304 0.34218 0.44437 0.0
C307 C 0.97578 0.35274 0.45737 0.0
C308 C 0.97321 0.34603 0.49247 0.0
C309 C 0.97231 0.3842 0.4511 0.0
C310 C 0.95559 0.33565 0.43823 0.0
C311 C 0.96929 0.3178 0.41811 0.0
C312 C 0.95502 0.30061 0.39735 0.0
C313 C 0.92597 0.30204 0.39677 0.0
C314 C 0.91153 0.32067 0.4167 0.0
C315 C 0.92665 0.33733 0.43799 0.0
H316 H 0.44556 0.86594 0.02583 0.0
H317 H 0.42352 0.79304 0.08106 0.0
H318 H 0.47293 0.77971 0.08386 0.0
H319 H 0.50349 0.83411 0.98239 0.0
H320 H 0.52391 0.86561 0.98384 0.0
H321 H 0.4866 0.86767 0.98325 0.0
H322 H 0.48748 0.8969 0.03425 0.0
H323 H 0.52471 0.8949 0.03502 0.0
H324 H 0.50485 0.88321 0.06834 0.0
H325 H 0.52489 0.77624 0.08391 0.0
H326 H 0.57554 0.78371 0.08266 0.0
H327 H 0.56337 0.85934 0.02816 0.0
C328 C 0.45104 0.84688 0.03802 0.0
C329 C 0.43069 0.83044 0.05308 0.0
C330 C 0.43878 0.80592 0.06928 0.0
C331 C 0.46676 0.79812 0.0709 0.0
C332 C 0.48635 0.81504 0.05619 0.0
C333 C 0.47885 0.8389 0.04005 0.0
C334 C 0.50403 0.85459 0.02828 0.0
C335 C 0.50453 0.85554 0.9923 0.0
C336 C 0.50533 0.88414 0.04232 0.0
C337 C 0.5269 0.83618 0.04096 0.0
C338 C 0.5163 0.81327 0.05662 0.0
C339 C 0.53345 0.79395 0.07145 0.0
C340 C 0.56219 0.79839 0.07063 0.0
C341 C 0.57342 0.82209 0.0553 0.0
C342 C 0.55546 0.84093 0.03992 0.0
H343 H 0.5402 0.14954 0.56208 0.0
H344 H 0.56177 0.09373 0.63855 0.0
H345 H 0.51278 0.0919 0.65461 0.0
H346 H 0.48624 0.18804 0.60317 0.0
H347 H 0.46399 0.19056 0.56939 0.0
H348 H 0.50105 0.18869 0.56441 0.0
H349 H 0.49529 0.14569 0.5283 0.0
H350 H 0.45824 0.14748 0.53308 0.0
H351 H 0.47643 0.11567 0.54235 0.0
H352 H 0.46204 0.09514 0.66209 0.0
H353 H 0.41155 0.10136 0.6592 0.0
H354 H 0.4216 0.1544 0.57731 0.0
C355 C 0.5346 0.13708 0.5823 0.0
C356 C 0.55485 0.12181 0.5991 0.0
C357 C 0.54667 0.10555 0.62526 0.0
C358 C 0.51889 0.10446 0.63467 0.0
C359 C 0.49948 0.11967 0.61764 0.0
C360 C 0.50683 0.13556 0.59192 0.0
C361 C 0.48152 0.14895 0.57707 0.0
C362 C 0.48332 0.18096 0.57861 0.0
C363 C 0.47765 0.13883 0.5432 0.0
C364 C 0.45882 0.13787 0.59835 0.0
C365 C 0.4698 0.12123 0.62172 0.0
C366 C 0.45316 0.10816 0.64396 0.0
C367 C 0.42445 0.11184 0.64207 0.0
C368 C 0.41254 0.12835 0.61801 0.0
C369 C 0.43006 0.14178 0.59607 0.0
H370 H 0.57481 0.15432 0.94579 0.0
H371 H 0.57341 0.18943 0.85195 0.0
H372 H 0.52256 0.18429 0.85066 0.0
H373 H 0.52369 0.10322 0.93377 0.0
H374 H 0.50797 0.10653 0.97189 0.0
H375 H 0.54409 0.11479 0.96664 0.0
H376 H 0.53593 0.16424 0.98933 0.0
H377 H 0.49981 0.15603 0.995 0.0
H378 H 0.5096 0.18628 0.97238 0.0
H379 H 0.47273 0.17171 0.85762 0.0
H380 H 0.42624 0.15622 0.87407 0.0
H381 H 0.45953 0.13032 0.96402 0.0
C382 C 0.56378 0.16135 0.92516 0.0
C383 C 0.57811 0.17229 0.89896 0.0
C384 C 0.56291 0.1811 0.87235 0.0
C385 C 0.53401 0.17819 0.87135 0.0
C386 C 0.52063 0.16669 0.89724 0.0
C387 C 0.53492 0.15876 0.92382 0.0
C388 C 0.51556 0.14639 0.94815 0.0
C389 C 0.52329 0.11593 0.95553 0.0
C390 C 0.5152 0.16431 0.97798 0.0
C391 C 0.48822 0.14818 0.93084 0.0
C392 C 0.49167 0.1599 0.9015 0.0
C393 C 0.4697 0.1628 0.88067 0.0
C394 C 0.44339 0.15378 0.8902 0.0
C395 C 0.43922 0.14214 0.92039 0.0
C396 C 0.46202 0.13931 0.9409 0.0
H397 H 0.44102 0.87995 0.37212 0.0
H398 H 0.4284 0.83884 0.46172 0.0
H399 H 0.47909 0.83653 0.46936 0.0
H400 H 0.50217 0.84157 0.34913 0.0
H401 H 0.51855 0.87147 0.3313 0.0
H402 H 0.48129 0.86906 0.33251 0.0
H403 H 0.47885 0.91701 0.36042 0.0
H404 H 0.51608 0.91955 0.35933 0.0
H405 H 0.49801 0.92225 0.39616 0.0
H406 H 0.5312 0.83911 0.4674 0.0
H407 H 0.58086 0.84731 0.45643 0.0
H408 H 0.559 0.88752 0.36864 0.0
C409 C 0.44888 0.87028 0.39326 0.0
C410 C 0.43076 0.85949 0.41627 0.0
C411 C 0.4419 0.84725 0.44375 0.0
C412 C 0.47066 0.8458 0.44829 0.0
C413 C 0.48794 0.85676 0.4252 0.0
C414 C 0.47748 0.86882 0.39826 0.0
C415 C 0.50047 0.8797 0.37743 0.0
C416 C 0.50062 0.86454 0.34572 0.0
C417 C 0.49821 0.91151 0.3731 0.0
C418 C 0.5255 0.87195 0.3969 0.0
C419 C 0.51787 0.85861 0.42429 0.0
C420 C 0.53744 0.84952 0.44602 0.0
C421 C 0.56558 0.85427 0.43957 0.0
C422 C 0.57381 0.8681 0.41172 0.0
C423 C 0.5534 0.87696 0.39018 0.0
H424 H 0.15981 0.33203 0.18076 0.0
H425 H 0.23008 0.38858 0.18507 0.0
H426 H 0.22836 0.38686 0.24287 0.0
H427 H 0.12271 0.36086 0.24431 0.0
H428 H 0.10988 0.32778 0.25836 0.0
H429 H 0.11774 0.3323 0.21746 0.0
H430 H 0.151 0.28985 0.21965 0.0
H431 H 0.14328 0.28521 0.26062 0.0
H432 H 0.17871 0.28938 0.24796 0.0
H433 H 0.21752 0.38057 0.30019 0.0
H434 H 0.19806 0.37074 0.35256 0.0
H435 H 0.13511 0.3181 0.3103 0.0
C436 C 0.17501 0.3439 0.1938 0.0
C437 C 0.19512 0.36041 0.17838 0.0
C438 C 0.21451 0.37575 0.19636 0.0
C439 C 0.21373 0.37486 0.2292 0.0
C440 C 0.19353 0.35846 0.24362 0.0
C441 C 0.17455 0.34324 0.22648 0.0
C442 C 0.15431 0.32803 0.24756 0.0
C443 C 0.1244 0.33784 0.24156 0.0
C444 C 0.157 0.29623 0.24371 0.0
C445 C 0.1646 0.33739 0.27929 0.0
C446 C 0.18733 0.3548 0.27655 0.0
C447 C 0.19985 0.3668 0.30264 0.0
C448 C 0.18864 0.36109 0.33228 0.0
C449 C 0.16511 0.34358 0.33555 0.0
C450 C 0.15323 0.33138 0.30864 0.0
H451 H 0.86707 0.60243 0.67009 0.0
H452 H 0.79412 0.65318 0.65258 0.0
H453 H 0.78453 0.65448 0.70946 0.0
H454 H 0.83877 0.56212 0.73549 0.0
H455 H 0.8713 0.56197 0.75624 0.0
H456 H 0.87099 0.56323 0.71408 0.0
H457 H 0.90088 0.6082 0.71528 0.0
H458 H 0.90125 0.60711 0.75739 0.0
H459 H 0.889 0.6379 0.73741 0.0
H460 H 0.78463 0.65243 0.76858 0.0
H461 H 0.7948 0.6479 0.82506 0.0
H462 H 0.86794 0.59882 0.80311 0.0
C463 C 0.84884 0.61353 0.6781 0.0
C464 C 0.83128 0.62763 0.65688 0.0
C465 C 0.80783 0.64216 0.66841 0.0
C466 C 0.80218 0.64296 0.70065 0.0
C467 C 0.82015 0.62908 0.72095 0.0
C468 C 0.84297 0.6146 0.71008 0.0
C469 C 0.8599 0.60267 0.73673 0.0
C470 C 0.86024 0.57059 0.73556 0.0
C471 C 0.8895 0.6147 0.73669 0.0
C472 C 0.84332 0.61311 0.76437 0.0
C473 C 0.82033 0.62808 0.75484 0.0
C474 C 0.80245 0.64056 0.77631 0.0
C475 C 0.80842 0.63788 0.80833 0.0
C476 C 0.83216 0.62298 0.81851 0.0
C477 C 0.84956 0.61023 0.79613 0.0
H478 H 0.13591 0.62 0.82895 0.0
H479 H 0.22471 0.63457 0.83278 0.0
H480 H 0.22688 0.63297 0.77503 0.0
H481 H 0.13616 0.57301 0.76174 0.0
H482 H 0.10456 0.58728 0.74591 0.0
H483 H 0.11036 0.5875 0.78758 0.0
H484 H 0.10259 0.64102 0.78859 0.0
H485 H 0.0968 0.64098 0.74697 0.0
H486 H 0.12318 0.66314 0.76351 0.0
H487 H 0.21902 0.63211 0.717 0.0
H488 H 0.20162 0.63308 0.66273 0.0
H489 H 0.11781 0.61965 0.69692 0.0
C490 C 0.1559 0.62247 0.81769 0.0
C491 C 0.18018 0.62727 0.83536 0.0
C492 C 0.20585 0.63083 0.81971 0.0
C493 C 0.2073 0.62987 0.78693 0.0
C494 C 0.18292 0.62539 0.77022 0.0
C495 C 0.1577 0.62176 0.78505 0.0
C496 C 0.13434 0.61876 0.76164 0.0
C497 C 0.12055 0.58992 0.76439 0.0
C498 C 0.11298 0.64239 0.76541 0.0
C499 C 0.15032 0.62159 0.7313 0.0
C500 C 0.17833 0.62518 0.73676 0.0
C501 C 0.19716 0.62913 0.71241 0.0
C502 C 0.18705 0.62967 0.68167 0.0
C503 C 0.15835 0.6264 0.67555 0.0
C504 C 0.13988 0.62203 0.70077 0.0
H505 H 0.86179 0.38837 0.19038 0.0
H506 H 0.81514 0.31961 0.15034 0.0
H507 H 0.7981 0.30693 0.20296 0.0
H508 H 0.88347 0.35306 0.25863 0.0
H509 H 0.8804 0.38298 0.28392 0.0
H510 H 0.88747 0.38778 0.24288 0.0
H511 H 0.84437 0.41981 0.23791 0.0
H512 H 0.83718 0.41512 0.279 0.0
H513 H 0.81096 0.40703 0.25036 0.0
H514 H 0.78847 0.29993 0.26028 0.0
H515 H 0.78659 0.29956 0.31809 0.0
H516 H 0.839 0.37324 0.32038 0.0
C517 C 0.84775 0.37083 0.19259 0.0
C518 C 0.8398 0.355 0.16622 0.0
C519 C 0.82152 0.33208 0.17019 0.0
C520 C 0.81168 0.32472 0.19998 0.0
C521 C 0.82018 0.34058 0.22552 0.0
C522 C 0.8377 0.36323 0.22212 0.0
C523 C 0.84448 0.37621 0.25348 0.0
C524 C 0.87581 0.37491 0.26011 0.0
C525 C 0.83359 0.40633 0.25528 0.0
C526 C 0.82842 0.35702 0.27507 0.0
C527 C 0.81444 0.33668 0.25851 0.0
C528 C 0.79911 0.31592 0.2735 0.0
C529 C 0.79821 0.31585 0.30633 0.0
C530 C 0.81254 0.33642 0.32375 0.0
C531 C 0.82758 0.35739 0.30777 0.0
H532 H 0.69884 0.91125 0.29583 0.0
H533 H 0.65561 0.8345 0.31972 0.0
H534 H 0.65379 0.82186 0.26395 0.0
H535 H 0.66081 0.9262 0.2272 0.0
H536 H 0.68995 0.93958 0.20538 0.0
H537 H 0.68965 0.94191 0.24743 0.0
H538 H 0.73658 0.91567 0.24988 0.0
H539 H 0.73704 0.91327 0.20777 0.0
H540 H 0.73987 0.8821 0.23126 0.0
H541 H 0.65344 0.81895 0.20596 0.0
H542 H 0.65543 0.82558 0.14876 0.0
H543 H 0.69988 0.90352 0.16184 0.0
C544 C 0.68926 0.89165 0.28936 0.0
C545 C 0.67737 0.87388 0.31219 0.0
C546 C 0.66488 0.84848 0.30271 0.0
C547 C 0.66378 0.84105 0.27107 0.0
C548 C 0.67542 0.85913 0.24918 0.0
C549 C 0.68805 0.88383 0.25782 0.0
C550 C 0.69803 0.89994 0.22937 0.0
C551 C 0.68375 0.9286 0.22723 0.0
C552 C 0.72977 0.90291 0.22959 0.0
C553 C 0.68851 0.88066 0.20343 0.0
C554 C 0.67561 0.85721 0.21545 0.0
C555 C 0.66377 0.83705 0.19622 0.0
C556 C 0.66494 0.84105 0.16378 0.0
C557 C 0.67795 0.86497 0.1509 0.0
C558 C 0.69018 0.88483 0.17103 0.0
H559 H 0.32685 0.14218 0.82394 0.0
H560 H 0.2764 0.06978 0.84635 0.0
H561 H 0.26295 0.06594 0.7906 0.0
H562 H 0.28165 0.17122 0.76287 0.0
H563 H 0.31072 0.18238 0.73943 0.0
H564 H 0.31376 0.18097 0.78145 0.0
H565 H 0.35668 0.14871 0.77615 0.0
H566 H 0.35371 0.14993 0.73421 0.0
H567 H 0.35378 0.11675 0.75417 0.0
H568 H 0.25832 0.06799 0.73124 0.0
H569 H 0.26321 0.0756 0.67414 0.0
H570 H 0.31705 0.14641 0.69207 0.0
C571 C 0.31259 0.12575 0.81734 0.0
C572 C 0.30263 0.10631 0.83954 0.0
C573 C 0.28422 0.08499 0.82976 0.0
C574 C 0.27644 0.08267 0.79816 0.0
C575 C 0.28713 0.10192 0.77678 0.0
C576 C 0.30471 0.12313 0.78607 0.0
C577 C 0.31482 0.14013 0.75851 0.0
C578 C 0.30462 0.17047 0.7607 0.0
C579 C 0.34662 0.13878 0.7556 0.0
C580 C 0.30078 0.12478 0.73206 0.0
C581 C 0.28463 0.10299 0.74295 0.0
C582 C 0.27068 0.08519 0.7225 0.0
C583 C 0.27358 0.08966 0.69012 0.0
C584 C 0.29049 0.1116 0.67863 0.0
C585 C 0.30388 0.12951 0.70003 0.0
H586 H 0.65289 0.16148 0.81406 0.0
H587 H 0.71497 0.09585 0.8132 0.0
H588 H 0.71356 0.09548 0.75526 0.0
H589 H 0.61242 0.13549 0.75129 0.0
H590 H 0.60423 0.16958 0.73593 0.0
H591 H 0.61108 0.16522 0.77707 0.0
H592 H 0.64971 0.20275 0.77386 0.0
H593 H 0.64302 0.20721 0.73267 0.0
H594 H 0.67747 0.19868 0.74594 0.0
H595 H 0.70409 0.10162 0.69724 0.0
H596 H 0.68707 0.11321 0.64422 0.0
H597 H 0.63142 0.17489 0.68411 0.0
C598 C 0.66636 0.14708 0.8018 0.0
C599 C 0.6841 0.1287 0.81819 0.0
C600 C 0.70124 0.11014 0.80114 0.0
C601 C 0.70061 0.10982 0.76825 0.0
C602 C 0.68277 0.12821 0.75287 0.0
C603 C 0.66598 0.14649 0.76915 0.0
C604 C 0.64814 0.16368 0.74733 0.0
C605 C 0.61714 0.15815 0.75326 0.0
C606 C 0.65501 0.19493 0.75012 0.0
C607 C 0.65733 0.15211 0.71611 0.0
C608 C 0.67737 0.13174 0.71973 0.0
C609 C 0.68851 0.11763 0.69414 0.0
C610 C 0.6787 0.12437 0.66413 0.0
C611 C 0.65796 0.14501 0.66 0.0
C612 C 0.6474 0.15915 0.68641 0.0
H613 H 0.33988 0.89877 0.18588 0.0
H614 H 0.32461 0.8106 0.17026 0.0
H615 H 0.31442 0.80438 0.22652 0.0
H616 H 0.3735 0.89236 0.25843 0.0
H617 H 0.35816 0.92311 0.27542 0.0
H618 H 0.36269 0.92088 0.23368 0.0
H619 H 0.31022 0.93017 0.22569 0.0
H620 H 0.30552 0.93242 0.26747 0.0
H621 H 0.28519 0.90808 0.24499 0.0
H622 H 0.31085 0.80687 0.28512 0.0
H623 H 0.3111 0.81862 0.34152 0.0
H624 H 0.32533 0.90564 0.31836 0.0
C625 C 0.33416 0.87821 0.19426 0.0
C626 C 0.33313 0.85514 0.17378 0.0
C627 C 0.32544 0.82858 0.18556 0.0
C628 C 0.31962 0.82484 0.21746 0.0
C629 C 0.3211 0.84796 0.23711 0.0
C630 C 0.32782 0.8742 0.22592 0.0
C631 C 0.32847 0.89549 0.25205 0.0
C632 C 0.35743 0.90872 0.25507 0.0
C633 C 0.30601 0.91786 0.24726 0.0
C634 C 0.32183 0.87698 0.27981 0.0
C635 C 0.3177 0.84961 0.27072 0.0
C636 C 0.31349 0.8283 0.29248 0.0
C637 C 0.31373 0.83513 0.3244 0.0
C638 C 0.31778 0.86306 0.33412 0.0
C639 C 0.32146 0.88424 0.31149 0.0
H640 H 0.26147 0.18298 0.96767 0.0
H641 H 0.34821 0.20669 0.97419 0.0
H642 H 0.33514 0.2482 0.00486 0.0
H643 H 0.23472 0.25243 0.95856 0.0
H644 H 0.20405 0.24588 0.98158 0.0
H645 H 0.22027 0.21776 0.96049 0.0
H646 H 0.22437 0.18934 0.01199 0.0
H647 H 0.20824 0.21742 0.03327 0.0
H648 H 0.24172 0.20455 0.04522 0.0
H649 H 0.31282 0.28711 0.03461 0.0
H650 H 0.28248 0.32154 0.06046 0.0
H651 H 0.21031 0.27258 0.03436 0.0
C652 C 0.27773 0.19686 0.97557 0.0
C653 C 0.30585 0.19156 0.96856 0.0
C654 C 0.3265 0.21032 0.97924 0.0
C655 C 0.31931 0.23394 0.99674 0.0
C656 C 0.29141 0.23851 0.00329 0.0
C657 C 0.27093 0.22058 0.99299 0.0
C658 C 0.24246 0.23054 0.00287 0.0
C659 C 0.22431 0.23704 0.97417 0.0
C660 C 0.22838 0.20919 0.02464 0.0
C661 C 0.25017 0.25687 0.02033 0.0
C662 C 0.27851 0.26105 0.02036 0.0
C663 C 0.29058 0.28408 0.03478 0.0
C664 C 0.27317 0.3035 0.04941 0.0
C665 C 0.24403 0.29976 0.04944 0.0
C666 C 0.2325 0.27601 0.03481 0.0
H667 H 0.75057 0.71782 0.54182 0.0
H668 H 0.83228 0.71774 0.4989 0.0
H669 H 0.81876 0.75761 0.46582 0.0
H670 H 0.71286 0.7332 0.47289 0.0
H671 H 0.68795 0.75555 0.49187 0.0
H672 H 0.70445 0.72797 0.51363 0.0
H673 H 0.72151 0.76381 0.5547 0.0
H674 H 0.705 0.79153 0.53308 0.0
H675 H 0.74145 0.79362 0.54205 0.0
H676 H 0.79582 0.79546 0.43525 0.0
H677 H 0.765 0.82977 0.40987 0.0
H678 H 0.6984 0.80598 0.47303 0.0
C679 C 0.76571 0.72635 0.52569 0.0
C680 C 0.79247 0.71462 0.52297 0.0
C681 C 0.81163 0.72634 0.50144 0.0
C682 C 0.80419 0.74903 0.48255 0.0
C683 C 0.77757 0.75989 0.48556 0.0
C684 C 0.75865 0.74908 0.50667 0.0
C685 C 0.73112 0.76417 0.50456 0.0
C686 C 0.70772 0.74402 0.49517 0.0
C687 C 0.72438 0.77918 0.53543 0.0
C688 C 0.73744 0.78482 0.47862 0.0
C689 C 0.76437 0.78202 0.46807 0.0
C690 C 0.77475 0.79804 0.44347 0.0
C691 C 0.75706 0.81741 0.42915 0.0
C692 C 0.72935 0.82061 0.43954 0.0
C693 C 0.71956 0.8042 0.46476 0.0
H694 H 0.30548 0.76938 0.029 0.0
H695 H 0.24571 0.83605 0.01508 0.0
H696 H 0.21371 0.8027 0.99001 0.0
H697 H 0.2917 0.73274 0.95595 0.0
H698 H 0.29591 0.69873 0.97345 0.0
H699 H 0.3147 0.72818 0.98882 0.0
H700 H 0.29411 0.7186 0.04388 0.0
H701 H 0.27521 0.6892 0.02869 0.0
H702 H 0.25701 0.71679 0.04868 0.0
H703 H 0.18753 0.76188 0.96848 0.0
H704 H 0.16889 0.71635 0.9518 0.0
H705 H 0.24572 0.67629 0.98004 0.0
C706 C 0.28578 0.77706 0.02043 0.0
C707 C 0.2781 0.80534 0.02396 0.0
C708 C 0.25205 0.81449 0.01259 0.0
C709 C 0.23374 0.79572 -0.00171 0.0
C710 C 0.24185 0.76793 0.99548 0.0
C711 C 0.26726 0.75863 0.00614 0.0
C712 C 0.27059 0.72754 0.00111 0.0
C713 C 0.29465 0.72145 0.97848 0.0
C714 C 0.27445 0.71214 0.03246 0.0
C715 C 0.24289 0.72073 0.9864 0.0
C716 C 0.2267 0.74435 0.98318 0.0
C717 C 0.20006 0.74325 0.97072 0.0
C718 C 0.18966 0.71727 0.96136 0.0
C719 C 0.20585 0.69274 0.96462 0.0
C720 C 0.23285 0.69464 0.97719 0.0
H721 H 0.72387 0.20732 0.54645 0.0
H722 H 0.64087 0.22247 0.51104 0.0
H723 H 0.65859 0.26212 0.47975 0.0
H724 H 0.74556 0.27977 0.55139 0.0
H725 H 0.78045 0.27234 0.53877 0.0
H726 H 0.76087 0.24622 0.55964 0.0
H727 H 0.76894 0.21129 0.51428 0.0
H728 H 0.78844 0.23731 0.49321 0.0
H729 H 0.75895 0.22088 0.47504 0.0
H730 H 0.68565 0.29935 0.45141 0.0
H731 H 0.7201 0.3309 0.42731 0.0
H732 H 0.78552 0.29037 0.48037 0.0
C733 C 0.70932 0.21916 0.53242 0.0
C734 C 0.68095 0.21191 0.5313 0.0
C735 C 0.66269 0.22769 0.51228 0.0
C736 C 0.67254 0.25026 0.49448 0.0
C737 C 0.70071 0.25665 0.49588 0.0
C738 C 0.71884 0.24154 0.51434 0.0
C739 C 0.74831 0.25195 0.51076 0.0
C740 C 0.75944 0.26325 0.542 0.0
C741 C 0.76726 0.22899 0.49753 0.0
C742 C 0.74397 0.2752 0.48726 0.0
C743 C 0.71635 0.2777 0.47912 0.0
C744 C 0.70732 0.29763 0.45764 0.0
C745 C 0.72706 0.31544 0.44409 0.0
C746 C 0.75551 0.31308 0.45191 0.0
C747 C 0.76395 0.29268 0.47384 0.0
H748 H 0.68961 0.78889 0.00367 0.0
H749 H 0.75975 0.84291 0.02348 0.0
H750 H 0.79144 0.80748 0.00159 0.0
H751 H 0.72245 0.72501 0.02386 0.0
H752 H 0.70614 0.70517 0.99316 0.0
H753 H 0.68887 0.7352 0.00927 0.0
H754 H 0.6849 0.75687 0.95379 0.0
H755 H 0.70206 0.72684 0.93747 0.0
H756 H 0.71572 0.76131 0.93038 0.0
H757 H 0.81551 0.76558 0.9793 0.0
H758 H 0.83034 0.72053 0.95704 0.0
H759 H 0.74433 0.69407 0.9516 0.0
C760 C 0.71162 0.7934 0.00324 0.0
C761 C 0.72222 0.81868 0.01528 0.0
C762 C 0.75115 0.8237 0.01435 0.0
C763 C 0.76932 0.80371 0.00198 0.0
C764 C 0.75817 0.7789 0.99058 0.0
C765 C 0.73 0.77373 0.99097 0.0
C766 C 0.72337 0.74522 0.97772 0.0
C767 C 0.70939 0.72655 0.00249 0.0
C768 C 0.70546 0.74772 0.94808 0.0
C769 C 0.75227 0.73505 0.97005 0.0
C770 C 0.77204 0.7548 0.97761 0.0
C771 C 0.80022 0.74999 0.97315 0.0
C772 C 0.80842 0.72431 0.96054 0.0
C773 C 0.78849 0.70378 0.95253 0.0
C774 C 0.76006 0.70935 0.95737 0.0
H775 H 0.29602 0.21672 0.53751 0.0
H776 H 0.22834 0.18236 0.59258 0.0
H777 H 0.19679 0.21786 0.57103 0.0
H778 H 0.27466 0.29043 0.54316 0.0
H779 H 0.28465 0.29818 0.5034 0.0
H780 H 0.30274 0.27153 0.5251 0.0
H781 H 0.29204 0.2358 0.48128 0.0
H782 H 0.27384 0.26228 0.45953 0.0
H783 H 0.25659 0.23009 0.46956 0.0
H784 H 0.17186 0.25463 0.54162 0.0
H785 H 0.15478 0.29102 0.50576 0.0
H786 H 0.2381 0.3019 0.46889 0.0
C787 C 0.27468 0.217 0.54539 0.0
C788 C 0.26465 0.19682 0.56679 0.0
C789 C 0.23648 0.19758 0.57618 0.0
C790 C 0.21839 0.21772 0.56416 0.0
C791 C 0.22875 0.23699 0.54275 0.0
C792 C 0.2562 0.23693 0.53343 0.0
C793 C 0.2615 0.25915 0.5088 0.0
C794 C 0.28211 0.28113 0.52085 0.0
C795 C 0.27158 0.24604 0.47797 0.0
C796 C 0.23263 0.27129 0.50541 0.0
C797 C 0.21416 0.2583 0.52542 0.0
C798 C 0.18613 0.26515 0.52599 0.0
C799 C 0.17663 0.28581 0.50544 0.0
C800 C 0.19509 0.29936 0.48451 0.0
C801 C 0.2235 0.29206 0.48472 0.0
H802 H 0.76521 0.30775 0.02736 0.0
H803 H 0.84881 0.28775 0.9969 0.0
H804 H 0.83017 0.2512 0.96218 0.0
H805 H 0.74046 0.23827 0.03016 0.0
H806 H 0.70624 0.24665 0.01605 0.0
H807 H 0.72597 0.2724 0.03708 0.0
H808 H 0.72066 0.30693 0.99066 0.0
H809 H 0.70089 0.28125 0.96947 0.0
H810 H 0.73146 0.2964 0.95203 0.0
H811 H 0.80284 0.21554 0.93274 0.0
H812 H 0.76863 0.18271 0.91084 0.0
H813 H 0.70277 0.22593 0.9604 0.0
C814 C 0.7796 0.29587 0.01319 0.0
C815 C 0.80847 0.30063 0.01482 0.0
C816 C 0.8266 0.28448 0.99604 0.0
C817 C 0.81622 0.26372 0.97619 0.0
C818 C 0.78768 0.25944 0.97532 0.0
C819 C 0.7696 0.27506 0.99327 0.0
C820 C 0.73992 0.26555 0.98883 0.0
C821 C 0.72742 0.25509 0.01988 0.0
C822 C 0.72219 0.28893 0.97438 0.0
C823 C 0.7442 0.24185 0.96596 0.0
C824 C 0.77188 0.23881 0.95832 0.0
C825 C 0.78108 0.21781 0.93837 0.0
C826 C 0.76148 0.19925 0.92609 0.0
C827 C 0.73302 0.20178 0.93387 0.0
C828 C 0.72434 0.22357 0.95384 0.0
H829 H 0.18924 0.71534 0.52513 0.0
H830 H 0.25624 0.67788 0.57856 0.0
H831 H 0.28848 0.71354 0.55826 0.0
H832 H 0.22939 0.73148 0.45733 0.0
H833 H 0.21205 0.76409 0.44956 0.0
H834 H 0.19386 0.73632 0.46929 0.0
H835 H 0.18274 0.76952 0.51546 0.0
H836 H 0.2009 0.79741 0.49587 0.0
H837 H 0.21066 0.7874 0.53504 0.0
H838 H 0.31363 0.75232 0.5315 0.0
H839 H 0.33044 0.79149 0.49918 0.0
H840 H 0.24726 0.80367 0.46265 0.0
C841 C 0.21065 0.71473 0.53272 0.0
C842 C 0.22022 0.69384 0.55348 0.0
C843 C 0.24843 0.69366 0.56267 0.0
C844 C 0.26691 0.71386 0.55132 0.0
C845 C 0.25684 0.73406 0.53081 0.0
C846 C 0.22941 0.73468 0.52154 0.0
C847 C 0.22414 0.75822 0.49856 0.0
C848 C 0.21429 0.74684 0.46681 0.0
C849 C 0.20338 0.77939 0.51205 0.0
C850 C 0.25296 0.77059 0.49621 0.0
C851 C 0.27145 0.7564 0.51513 0.0
C852 C 0.29935 0.76366 0.51664 0.0
C853 C 0.30869 0.78594 0.49816 0.0
C854 C 0.29017 0.80066 0.47836 0.0
C855 C 0.26192 0.79289 0.47758 0.0
H856 H 0.15865 0.55968 0.99752 0.0
H857 H 0.22926 0.54294 0.93728 0.0
H858 H 0.23767 0.49877 0.96572 0.0
H859 H 0.18771 0.52877 0.06967 0.0
H860 H 0.1546 0.51484 0.08153 0.0
H861 H 0.15621 0.54657 0.05884 0.0
H862 H 0.1238 0.52465 0.01722 0.0
H863 H 0.12213 0.4929 0.03967 0.0
H864 H 0.13329 0.49192 -0.0006 0.0
H865 H 0.2357 0.4546 0.99754 0.0
H866 H 0.22322 0.41359 0.02964 0.0
H867 H 0.15368 0.4594 0.06871 0.0
C868 C 0.17622 0.54702 0.99062 0.0
C869 C 0.19336 0.5548 0.96522 0.0
C870 C 0.2159 0.53744 0.95673 0.0
C871 C 0.22089 0.51236 0.9728 0.0
C872 C 0.20324 0.50508 0.99738 0.0
C873 C 0.18143 0.52198 0.00632 0.0
C874 C 0.16432 0.50854 0.03197 0.0
C875 C 0.16581 0.52571 0.0623 0.0
C876 C 0.13411 0.50425 0.02141 0.0
C877 C 0.1794 0.48104 0.03542 0.0
C878 C 0.20201 0.47958 0.01557 0.0
C879 C 0.21825 0.45563 0.01344 0.0
C880 C 0.21095 0.43243 0.03173 0.0
C881 C 0.18748 0.43329 0.05174 0.0
C882 C 0.17186 0.45813 0.05389 0.0
H883 H 0.85807 0.53495 0.5361 0.0
H884 H 0.79407 0.58647 0.49394 0.0
H885 H 0.779 0.54642 0.46182 0.0
H886 H 0.87639 0.49748 0.46747 0.0
H887 H 0.88193 0.46487 0.48765 0.0
H888 H 0.88707 0.49737 0.50792 0.0
H889 H 0.85218 0.48185 0.55078 0.0
H890 H 0.84697 0.44926 0.53065 0.0
H891 H 0.81771 0.47125 0.53962 0.0
H892 H 0.77227 0.5011 0.4327 0.0
H893 H 0.77357 0.45365 0.41003 0.0
H894 H 0.84138 0.43207 0.47234 0.0
C895 C 0.84081 0.53783 0.52022 0.0
C896 C 0.82728 0.56385 0.51749 0.0
C897 C 0.80473 0.5667 0.49646 0.0
C898 C 0.79603 0.54409 0.4781 0.0
C899 C 0.80997 0.51877 0.48123 0.0
C900 C 0.83177 0.5155 0.5019 0.0
C901 C 0.84345 0.48623 0.50067 0.0
C902 C 0.87402 0.48652 0.4903 0.0
C903 C 0.83985 0.47127 0.53231 0.0
C904 C 0.82501 0.47362 0.47583 0.0
C905 C 0.80583 0.49268 0.46487 0.0
C906 C 0.78708 0.48594 0.44124 0.0
C907 C 0.78801 0.45897 0.42848 0.0
C908 C 0.80749 0.43914 0.43949 0.0
C909 C 0.82609 0.44666 0.46357 0.0
H910 H 0.86114 0.43003 0.01352 0.0
H911 H 0.78985 0.44416 0.07359 0.0
H912 H 0.78239 0.49005 0.04824 0.0
H913 H 0.88659 0.49974 0.01397 0.0
H914 H 0.89754 0.49895 0.97362 0.0
H915 H 0.89669 0.46719 0.99618 0.0
H916 H 0.86466 0.44453 0.95465 0.0
H917 H 0.86535 0.47626 0.93198 0.0
H918 H 0.83265 0.46155 0.94411 0.0
H919 H 0.78361 0.53506 0.01664 0.0
H920 H 0.79354 0.57522 0.98186 0.0
H921 H 0.86369 0.53043 0.94275 0.0
C922 C 0.84391 0.44269 0.0214 0.0
C923 C 0.82608 0.43351 0.04557 0.0
C924 C 0.80377 0.45076 0.05509 0.0
C925 C 0.79936 0.47684 0.04082 0.0
C926 C 0.81737 0.48522 0.01704 0.0
C927 C 0.83917 0.46859 0.00742 0.0
C928 C 0.85578 0.48236 0.98163 0.0
C929 C 0.88593 0.48736 0.99198 0.0
C930 C 0.85452 0.46515 0.9513 0.0
C931 C 0.84009 0.50949 0.97836 0.0
C932 C 0.81796 0.5108 -0.00112 0.0
C933 C 0.80082 0.53419 0.00039 0.0
C934 C 0.80661 0.55688 0.98055 0.0
C935 C 0.82935 0.55594 0.95953 0.0
C936 C 0.84608 0.53179 0.95841 0.0
H937 H 0.13123 0.42956 0.49091 0.0
H938 H 0.19842 0.44864 0.42654 0.0
H939 H 0.20148 0.49618 0.44831 0.0
H940 H 0.09842 0.49703 0.48847 0.0
H941 H 0.0896 0.49696 0.52949 0.0
H942 H 0.09239 0.46446 0.50859 0.0
H943 H 0.12842 0.44674 0.54898 0.0
H944 H 0.12574 0.47918 0.57001 0.0
H945 H 0.15908 0.4672 0.55648 0.0
H946 H 0.19697 0.54164 0.47642 0.0
H947 H 0.18625 0.58178 0.51038 0.0
H948 H 0.1228 0.53289 0.55751 0.0
C949 C 0.14654 0.44376 0.48133 0.0
C950 C 0.16456 0.43541 0.45697 0.0
C951 C 0.18443 0.45454 0.44523 0.0
C952 C 0.1863 0.48162 0.4574 0.0
C953 C 0.16826 0.48916 0.48139 0.0
C954 C 0.14885 0.4708 0.49336 0.0
C955 C 0.13227 0.48407 0.51954 0.0
C956 C 0.10134 0.48573 0.511 0.0
C957 C 0.13665 0.46836 0.55059 0.0
C958 C 0.14539 0.51277 0.52037 0.0
C959 C 0.16601 0.51529 0.49806 0.0
C960 C 0.18092 0.53992 0.49405 0.0
C961 C 0.17464 0.56261 0.51343 0.0
C962 C 0.15374 0.56046 0.53666 0.0
C963 C 0.13899 0.53515 0.5401 0.0
H964 H 0.65792 0.0376 0.92169 0.0
H965 H 0.67545 0.09818 0.9945 0.0
H966 H 0.67672 0.06035 0.03373 0.0
H967 H 0.6136 0.99433 0.96572 0.0
H968 H 0.62614 0.962 0.94949 0.0
H969 H 0.62801 0.99362 0.92676 0.0
H970 H 0.68094 0.9867 0.91958 0.0
H971 H 0.6792 0.95493 0.94216 0.0
H972 H 0.70265 0.98238 0.95358 0.0
H973 H 0.67158 0.01668 0.0657 0.0
H974 H 0.66468 0.96929 0.0875 0.0
H975 H 0.65346 0.93687 0.99358 0.0
C976 C 0.66233 0.04285 0.94583 0.0
C977 C 0.66652 0.07081 0.95507 0.0
C978 C 0.67229 0.07687 0.98687 0.0
C979 C 0.67299 0.05555 0.00935 0.0
C980 C 0.66833 0.02826 -0.00044 0.0
C981 C 0.66354 0.02177 0.96851 0.0
C982 C 0.65894 0.99076 0.96423 0.0
C983 C 0.62995 0.98485 0.95077 0.0
C984 C 0.6818 0.97794 0.94367 0.0
C985 C 0.66126 0.98093 -0.00217 0.0
C986 C 0.66655 0.0029 0.01787 0.0
C987 C 0.66788 -0.00078 0.05022 0.0
C988 C 0.66381 0.97232 0.06238 0.0
C989 C 0.65883 0.9495 0.04218 0.0
C990 C 0.65772 0.9539 0.00951 0.0
H991 H 0.32988 0.93059 0.4962 0.0
H992 H 0.34083 0.96946 0.40523 0.0
H993 H 0.33276 0.01586 0.42887 0.0
H994 H 0.27745 0.97905 0.52753 0.0
H995 H 0.29245 0.97874 0.56617 0.0
H996 H 0.29536 0.94842 0.54146 0.0
H997 H 0.34882 0.94958 0.54754 0.0
H998 H 0.34608 0.97986 0.57219 0.0
H999 H 0.36747 0.981 0.53758 0.0
H1000 H 0.32573 0.05792 0.46272 0.0
H1001 H 0.32438 0.09308 0.50481 0.0
H1002 H 0.32121 0.02686 0.57427 0.0
C1003 C 0.32995 0.94885 0.48119 0.0
C1004 C 0.33558 0.94657 0.44887 0.0
C1005 C 0.33639 0.97088 0.43004 0.0
C1006 C 0.3317 -0.00276 0.44322 0.0
C1007 C 0.32657 -0.00115 0.47529 0.0
C1008 C 0.32591 0.97533 0.49408 0.0
C1009 C 0.32276 0.98297 0.52829 0.0
C1010 C 0.29537 0.97162 0.54164 0.0
C1011 C 0.34777 0.97275 0.54751 0.0
C1012 C 0.32224 0.01448 0.52585 0.0
C1013 C 0.32388 0.02319 0.49503 0.0
C1014 C 0.32431 0.05136 0.48693 0.0
C1015 C 0.3235 0.07117 0.51101 0.0
C1016 C 0.32277 0.06268 0.5428 0.0
C1017 C 0.32179 0.03396 0.55019 0.0
H1018 H 0.36 0.91907 0.02097 0.0
H1019 H 0.29304 0.94488 0.08251 0.0
H1020 H 0.29384 0.99181 0.05848 0.0
H1021 H 0.39748 0.98414 0.02192 0.0
H1022 H 0.40743 0.982 0.98131 0.0
H1023 H 0.40179 0.95055 0.0036 0.0
H1024 H 0.36581 0.93391 0.96267 0.0
H1025 H 0.37131 0.9653 0.94025 0.0
H1026 H 0.33686 0.95611 0.95302 0.0
H1027 H 0.30162 0.03563 0.02754 0.0
H1028 H 0.31562 0.07346 0.99167 0.0
H1029 H 0.37748 0.01897 0.95013 0.0
C1030 C 0.34551 0.93457 0.02948 0.0
C1031 C 0.32643 0.9283 0.05364 0.0
C1032 C 0.30783 0.9492 0.06403 0.0
C1033 C 0.30813 0.97591 0.05054 0.0
C1034 C 0.32716 0.98135 0.02673 0.0
C1035 C 0.34551 0.9613 0.01628 0.0
C1036 C 0.36371 0.97244 0.99017 0.0
C1037 C 0.39442 0.97227 -0.00016 0.0
C1038 C 0.35913 0.95596 0.95973 0.0
C1039 C 0.35264 0.00191 0.98747 0.0
C1040 C 0.33162 0.00662 0.00883 0.0
C1041 C 0.31808 0.03221 0.01074 0.0
C1042 C 0.32621 0.05356 0.99024 0.0
C1043 C 0.34767 0.0492 0.96806 0.0
C1044 C 0.36102 0.02298 0.96679 0.0
H1045 H 0.63822 0.06373 0.50482 0.0
H1046 H 0.7243 0.08688 0.51933 0.0
H1047 H 0.73924 0.04461 0.49104 0.0
H1048 H 0.64691 0.99168 0.51733 0.0
H1049 H 0.62237 0.98111 0.48783 0.0
H1050 H 0.61844 0.01428 0.50701 0.0
H1051 H 0.6187 0.03932 0.45314 0.0
H1052 H 0.62261 0.00617 0.43377 0.0
H1053 H 0.64725 0.03375 0.4266 0.0
H1054 H 0.74483 -0.0016 0.46406 0.0
H1055 H 0.74056 0.95149 0.44063 0.0
H1056 H 0.65084 0.9588 0.44377 0.0
C1057 C 0.66021 0.06013 0.50172 0.0
C1058 C 0.68009 0.07865 0.51424 0.0
C1059 C 0.70868 0.07301 0.50991 0.0
C1060 C 0.71738 0.04909 0.49381 0.0
C1061 C 0.69725 0.0311 0.48208 0.0
C1062 C 0.66926 0.03636 0.48574 0.0
C1063 C 0.65185 0.01306 0.47217 0.0
C1064 C 0.63384 -0.00078 0.49761 0.0
C1065 C 0.63406 0.02372 0.44479 0.0
C1066 C 0.67444 0.99361 0.46086 0.0
C1067 C 0.70048 0.00447 0.46656 0.0
C1068 C 0.72454 0.98978 0.45922 0.0
C1069 C 0.7219 0.96314 0.44595 0.0
C1070 C 0.69539 0.95149 0.4403 0.0
C1071 C 0.67142 0.96717 0.44758 0.0
loop_
_geom_bond_atom_site_label_1
_geom_bond_atom_site_label_2
_geom_bond_distance
_geom_bond_site_symmetry_2
_ccdc_geom_bond_type
C0 O1 1.160 . S
C0 O7 1.185 . S
O1 C0 1.160 . S
O2 Zn3 1.899 . S
O2 C10 1.284 . S
Zn3 O2 1.899 . S
Zn3 O4 2.032 . S
Zn3 O7 2.086 . S
Zn3 O12 1.977 . S
O4 Zn3 2.032 . S
O4 C8 1.278 . S
C5 O6 1.203 . S
C5 O12 1.267 . S
O6 C5 1.203 . S
O7 C0 1.185 . S
O7 Zn3 2.086 . S
C8 O4 1.278 . S
C8 O9 1.211 . S
O9 C8 1.211 . S
C10 O2 1.284 . S
C10 O11 1.273 . S
O11 C10 1.273 . S
O12 Zn3 1.977 . S
O12 C5 1.267 . S
C13 O14 1.160 . S
C13 O20 1.185 . S
O14 C13 1.160 . S
O15 Zn16 1.899 . S
O15 C23 1.284 . S
Zn16 O15 1.899 . S
Zn16 O17 2.032 . S
Zn16 O20 2.086 . S
Zn16 O25 1.977 . S
O17 Zn16 2.032 . S
O17 C21 1.278 . S
C18 O19 1.203 . S
C18 O25 1.267 . S
O19 C18 1.203 . S
O20 C13 1.185 . S
O20 Zn16 2.086 . S
C21 O17 1.278 . S
C21 O22 1.211 . S
O22 C21 1.211 . S
C23 O15 1.284 . S
C23 O24 1.273 . S
O24 C23 1.273 . S
O25 Zn16 1.977 . S
O25 C18 1.267 . S
C26 O27 1.160 . S
C26 O33 1.185 . S
O27 C26 1.160 . S
O28 Zn29 1.899 . S
O28 C36 1.284 . S
Zn29 O28 1.899 . S
Zn29 O30 2.032 . S
Zn29 O33 2.086 . S
Zn29 O38 1.977 . S
O30 Zn29 2.032 . S
O30 C34 1.278 . S
C31 O32 1.203 . S
C31 O38 1.267 . S
O32 C31 1.203 . S
O33 C26 1.185 . S
O33 Zn29 2.086 . S
C34 O30 1.278 . S
C34 O35 1.211 . S
O35 C34 1.211 . S
C36 O28 1.284 . S
C36 O37 1.273 . S
O37 C36 1.273 . S
O38 Zn29 1.977 . S
O38 C31 1.267 . S
C39 O40 1.160 . S
C39 O46 1.185 . S
O40 C39 1.160 . S
O41 Zn42 1.899 . S
O41 C49 1.284 . S
Zn42 O41 1.899 . S
Zn42 O43 2.032 . S
Zn42 O46 2.086 . S
Zn42 O51 1.977 . S
O43 Zn42 2.032 . S
O43 C47 1.278 . S
C44 O45 1.203 . S
C44 O51 1.267 . S
O45 C44 1.203 . S
O46 C39 1.185 . S
O46 Zn42 2.086 . S
C47 O43 1.278 . S
C47 O48 1.211 . S
O48 C47 1.211 . S
C49 O41 1.284 . S
C49 O50 1.273 . S
O50 C49 1.273 . S
O51 Zn42 1.977 . S
O51 C44 1.267 . S
C52 O53 1.160 . S
C52 O59 1.185 . S
O53 C52 1.160 . S
O54 Zn55 1.899 . S
O54 C62 1.284 . S
Zn55 O54 1.899 . S
Zn55 O56 2.032 . S
Zn55 O59 2.086 . S
Zn55 O64 1.977 . S
O56 Zn55 2.032 . S
O56 C60 1.278 . S
C57 O58 1.203 . S
C57 O64 1.267 . S
O58 C57 1.203 . S
O59 C52 1.185 . S
O59 Zn55 2.086 . S
C60 O56 1.278 . S
C60 O61 1.211 . S
O61 C60 1.211 . S
C62 O54 1.284 . S
C62 O63 1.273 . S
O63 C62 1.273 . S
O64 Zn55 1.977 . S
O64 C57 1.267 . S
C65 O66 1.160 . S
C65 O72 1.185 . S
O66 C65 1.160 . S
O67 Zn68 1.899 . S
O67 C75 1.284 . S
Zn68 O67 1.899 . S
Zn68 O69 2.032 . S
Zn68 O72 2.086 . S
Zn68 O77 1.977 . S
O69 Zn68 2.032 . S
O69 C73 1.278 . S
C70 O71 1.203 . S
C70 O77 1.267 . S
O71 C70 1.203 . S
O72 C65 1.185 . S
O72 Zn68 2.086 . S
C73 O69 1.278 . S
C73 O74 1.211 . S
O74 C73 1.211 . S
C75 O67 1.284 . S
C75 O76 1.273 . S
O76 C75 1.273 . S
O77 Zn68 1.977 . S
O77 C70 1.267 . S
C78 O79 1.160 . S
C78 O85 1.185 . S
O79 C78 1.160 . S
O80 Zn81 1.899 . S
O80 C88 1.284 . S
Zn81 O80 1.899 . S
Zn81 O82 2.032 . S
Zn81 O85 2.086 . S
Zn81 O90 1.977 . S
O82 Zn81 2.032 . S
O82 C86 1.278 . S
C83 O84 1.203 . S
C83 O90 1.267 . S
O84 C83 1.203 . S
O85 C78 1.185 . S
O85 Zn81 2.086 . S
C86 O82 1.278 . S
C86 O87 1.211 . S
O87 C86 1.211 . S
C88 O80 1.284 . S
C88 O89 1.273 . S
O89 C88 1.273 . S
O90 Zn81 1.977 . S
O90 C83 1.267 . S
C91 O92 1.160 . S
C91 O98 1.185 . S
O92 C91 1.160 . S
O93 Zn94 1.899 . S
O93 C101 1.284 . S
Zn94 O93 1.899 . S
Zn94 O95 2.032 . S
Zn94 O98 2.086 . S
Zn94 O103 1.977 . S
O95 Zn94 2.032 . S
O95 C99 1.278 . S
C96 O97 1.203 . S
C96 O103 1.267 . S
O97 C96 1.203 . S
O98 C91 1.185 . S
O98 Zn94 2.086 . S
C99 O95 1.278 . S
C99 O100 1.211 . S
O100 C99 1.211 . S
C101 O93 1.284 . S
C101 O102 1.273 . S
O102 C101 1.273 . S
O103 Zn94 1.977 . S
O103 C96 1.267 . S
C104 O105 1.160 . S
C104 O111 1.185 . S
O105 C104 1.160 . S
O106 Zn107 1.899 . S
O106 C114 1.284 . S
Zn107 O106 1.899 . S
Zn107 O108 2.032 . S
Zn107 O111 2.086 . S
Zn107 O116 1.977 . S
O108 Zn107 2.032 . S
O108 C112 1.278 . S
C109 O110 1.203 . S
C109 O116 1.267 . S
O110 C109 1.203 . S
O111 C104 1.185 . S
O111 Zn107 2.086 . S
C112 O108 1.278 . S
C112 O113 1.211 . S
O113 C112 1.211 . S
C114 O106 1.284 . S
C114 O115 1.273 . S
O115 C114 1.273 . S
O116 Zn107 1.977 . S
O116 C109 1.267 . S
C117 O118 1.160 . S
C117 O124 1.185 . S
O118 C117 1.160 . S
O119 Zn120 1.899 . S
O119 C127 1.284 . S
Zn120 O119 1.899 . S
Zn120 O121 2.032 . S
Zn120 O124 2.086 . S
Zn120 O129 1.977 . S
O121 Zn120 2.032 . S
O121 C125 1.278 . S
C122 O123 1.203 . S
C122 O129 1.267 . S
O123 C122 1.203 . S
O124 C117 1.185 . S
O124 Zn120 2.086 . S
C125 O121 1.278 . S
C125 O126 1.211 . S
O126 C125 1.211 . S
C127 O119 1.284 . S
C127 O128 1.273 . S
O128 C127 1.273 . S
O129 Zn120 1.977 . S
O129 C122 1.267 . S
C130 O131 1.160 . S
C130 O137 1.185 . S
O131 C130 1.160 . S
O132 Zn133 1.899 . S
O132 C140 1.284 . S
Zn133 O132 1.899 . S
Zn133 O134 2.032 . S
Zn133 O137 2.086 . S
Zn133 O142 1.977 . S
O134 Zn133 2.032 . S
O134 C138 1.278 . S
C135 O136 1.203 . S
C135 O142 1.267 . S
O136 C135 1.203 . S
O137 C130 1.185 . S
O137 Zn133 2.086 . S
C138 O134 1.278 . S
C138 O139 1.211 . S
O139 C138 1.211 . S
C140 O132 1.284 . S
C140 O141 1.273 . S
O141 C140 1.273 . S
O142 Zn133 1.977 . S
O142 C135 1.267 . S
C143 O144 1.160 . S
C143 O150 1.185 . S
O144 C143 1.160 . S
O145 Zn146 1.899 . S
O145 C153 1.284 . S
Zn146 O145 1.899 . S
Zn146 O147 2.032 . S
Zn146 O150 2.086 . S
Zn146 O155 1.977 . S
O147 Zn146 2.032 . S
O147 C151 1.278 . S
C148 O149 1.203 . S
C148 O155 1.267 . S
O149 C148 1.203 . S
O150 C143 1.185 . S
O150 Zn146 2.086 . S
C151 O147 1.278 . S
C151 O152 1.211 . S
O152 C151 1.211 . S
C153 O145 1.284 . S
C153 O154 1.273 . S
O154 C153 1.273 . S
O155 Zn146 1.977 . S
O155 C148 1.267 . S
C156 O157 1.160 . S
C156 O163 1.185 . S
O157 C156 1.160 . S
O158 Zn159 1.899 . S
O158 C166 1.284 . S
Zn159 O158 1.899 . S
Zn159 O160 2.032 . S
Zn159 O163 2.086 . S
Zn159 O168 1.977 . S
O160 Zn159 2.032 . S
O160 C164 1.278 . S
C161 O162 1.203 . S
C161 O168 1.267 . S
O162 C161 1.203 . S
O163 C156 1.185 . S
O163 Zn159 2.086 . S
C164 O160 1.278 . S
C164 O165 1.211 . S
O165 C164 1.211 . S
C166 O158 1.284 . S
C166 O167 1.273 . S
O167 C166 1.273 . S
O168 Zn159 1.977 . S
O168 C161 1.267 . S
C169 O170 1.160 . S
C169 O176 1.185 . S
O170 C169 1.160 . S
O171 Zn172 1.899 . S
O171 C179 1.284 . S
Zn172 O171 1.899 . S
Zn172 O173 2.032 . S
Zn172 O176 2.086 . S
Zn172 O181 1.977 . S
O173 Zn172 2.032 . S
O173 C177 1.278 . S
C174 O175 1.203 . S
C174 O181 1.267 . S
O175 C174 1.203 . S
O176 C169 1.185 . S
O176 Zn172 2.086 . S
C177 O173 1.278 . S
C177 O178 1.211 . S
O178 C177 1.211 . S
C179 O171 1.284 . S
C179 O180 1.273 . S
O180 C179 1.273 . S
O181 Zn172 1.977 . S
O181 C174 1.267 . S
C182 O183 1.160 . S
C182 O189 1.185 . S
O183 C182 1.160 . S
O184 Zn185 1.899 . S
O184 C192 1.284 . S
Zn185 O184 1.899 . S
Zn185 O186 2.032 . S
Zn185 O189 2.086 . S
Zn185 O194 1.977 . S
O186 Zn185 2.032 . S
O186 C190 1.278 . S
C187 O188 1.203 . S
C187 O194 1.267 . S
O188 C187 1.203 . S
O189 C182 1.185 . S
O189 Zn185 2.086 . S
C190 O186 1.278 . S
C190 O191 1.211 . S
O191 C190 1.211 . S
C192 O184 1.284 . S
C192 O193 1.273 . S
O193 C192 1.273 . S
O194 Zn185 1.977 . S
O194 C187 1.267 . S
C195 O196 1.160 . S
C195 O202 1.185 . S
O196 C195 1.160 . S
O197 Zn198 1.899 . S
O197 C205 1.284 . S
Zn198 O197 1.899 . S
Zn198 O199 2.032 . S
Zn198 O202 2.086 . S
Zn198 O207 1.977 . S
O199 Zn198 2.032 . S
O199 C203 1.278 . S
C200 O201 1.203 . S
C200 O207 1.267 . S
O201 C200 1.203 . S
O202 C195 1.185 . S
O202 Zn198 2.086 . S
C203 O199 1.278 . S
C203 O204 1.211 . S
O204 C203 1.211 . S
C205 O197 1.284 . S
C205 O206 1.273 . S
O206 C205 1.273 . S
O207 Zn198 1.977 . S
O207 C200 1.267 . S
H208 C220 0.930 . S
H209 C222 0.930 . S
H210 C223 0.930 . S
H211 C227 0.959 . S
H212 C227 0.959 1_655 S
H213 C227 0.961 . S
H214 C228 0.960 . S
H215 C228 0.961 1_655 S
H216 C228 0.959 . S
H217 C231 0.929 . S
H218 C232 0.931 . S
H219 C234 0.930 . S
C220 H208 0.930 . S
C220 C221 1.399 . S
C220 C225 1.399 . S
C221 C220 1.399 . S
C221 C222 1.376 . S
C222 H209 0.930 . S
C222 C221 1.376 . S
C222 C223 1.388 . S
C223 H210 0.930 . S
C223 C222 1.388 . S
C223 C224 1.390 . S
C224 C223 1.390 . S
C224 C225 1.394 . S
C224 C230 1.465 1_455 S
C225 C220 1.399 . S
C225 C224 1.394 . S
C225 C226 1.516 . S
C226 C225 1.516 . S
C226 C227 1.502 . S
C226 C228 1.561 . S
C226 C229 1.526 1_455 S
C227 H211 0.959 . S
C227 H212 0.959 1_455 S
C227 H213 0.961 . S
C227 C226 1.502 . S
C228 H214 0.960 . S
C228 H215 0.961 1_455 S
C228 H216 0.959 . S
C228 C226 1.561 . S
C229 C226 1.526 1_655 S
C229 C230 1.396 . S
C229 C234 1.390 . S
C230 C224 1.465 1_655 S
C230 C229 1.396 . S
C230 C231 1.399 . S
C231 H217 0.929 . S
C231 C230 1.399 . S
C231 C232 1.385 . S
C232 H218 0.931 . S
C232 C231 1.385 . S
C232 C233 1.389 . S
C233 C232 1.389 . S
C233 C234 1.387 . S
C234 H219 0.930 . S
C234 C229 1.390 . S
C234 C233 1.387 . S
H235 C247 0.930 . S
H236 C249 0.930 . S
H237 C250 0.930 . S
H238 C254 0.959 . S
H239 C254 0.959 1_455 S
H240 C254 0.961 . S
H241 C255 0.960 . S
H242 C255 0.961 1_455 S
H243 C255 0.959 . S
H244 C258 0.929 . S
H245 C259 0.931 . S
H246 C261 0.930 . S
C247 H235 0.930 . S
C247 C248 1.399 . S
C247 C252 1.399 . S
C248 C247 1.399 . S
C248 C249 1.376 . S
C249 H236 0.930 . S
C249 C248 1.376 . S
C249 C250 1.388 . S
C250 H237 0.930 . S
C250 C249 1.388 . S
C250 C251 1.390 . S
C251 C250 1.390 . S
C251 C252 1.394 . S
C251 C257 1.465 1_655 S
C252 C247 1.399 . S
C252 C251 1.394 . S
C252 C253 1.516 . S
C253 C252 1.516 . S
C253 C254 1.502 . S
C253 C255 1.561 . S
C253 C256 1.526 1_655 S
C254 H238 0.959 . S
C254 H239 0.959 1_655 S
C254 H240 0.961 . S
C254 C253 1.502 . S
C255 H241 0.960 . S
C255 H242 0.961 1_655 S
C255 H243 0.959 . S
C255 C253 1.561 . S
C256 C253 1.526 1_455 S
C256 C257 1.396 . S
C256 C261 1.390 . S
C257 C251 1.465 1_455 S
C257 C256 1.396 . S
C257 C258 1.399 . S
C258 H244 0.929 . S
C258 C257 1.399 . S
C258 C259 1.385 . S
C259 H245 0.931 . S
C259 C258 1.385 . S
C259 C260 1.389 . S
C260 C259 1.389 . S
C260 C261 1.387 . S
C261 H246 0.930 . S
C261 C256 1.390 . S
C261 C260 1.387 . S
H262 C274 0.930 . S
H263 C276 0.930 . S
H264 C277 0.930 . S
H265 C281 0.959 . S
H266 C281 0.959 . S
H267 C281 0.961 1_655 S
H268 C282 0.960 1_655 S
H269 C282 0.961 . S
H270 C282 0.959 . S
H271 C285 0.929 . S
H272 C286 0.931 . S
H273 C288 0.930 . S
C274 H262 0.930 . S
C274 C275 1.399 . S
C274 C279 1.399 . S
C275 C274 1.399 . S
C275 C276 1.376 . S
C276 H263 0.930 . S
C276 C275 1.376 . S
C276 C277 1.388 . S
C277 H264 0.930 . S
C277 C276 1.388 . S
C277 C278 1.390 . S
C278 C277 1.390 . S
C278 C279 1.394 . S
C278 C284 1.465 1_655 S
C279 C274 1.399 . S
C279 C278 1.394 . S
C279 C280 1.516 1_655 S
C280 C279 1.516 1_455 S
C280 C281 1.502 . S
C280 C282 1.561 . S
C280 C283 1.526 . S
C281 H265 0.959 . S
C281 H266 0.959 . S
C281 H267 0.961 1_455 S
C281 C280 1.502 . S
C282 H268 0.960 1_455 S
C282 H269 0.961 . S
C282 H270 0.959 . S
C282 C280 1.561 . S
C283 C280 1.526 . S
C283 C284 1.396 . S
C283 C288 1.390 . S
C284 C278 1.465 1_455 S
C284 C283 1.396 . S
C284 C285 1.399 . S
C285 H271 0.929 . S
C285 C284 1.399 . S
C285 C286 1.385 . S
C286 H272 0.931 . S
C286 C285 1.385 . S
C286 C287 1.389 . S
C287 C286 1.389 . S
C287 C288 1.387 . S
C288 H273 0.930 . S
C288 C283 1.390 . S
C288 C287 1.387 . S
H289 C301 0.930 . S
H290 C303 0.930 . S
H291 C304 0.930 . S
H292 C308 0.959 . S
H293 C308 0.959 . S
H294 C308 0.961 1_455 S
H295 C309 0.960 1_455 S
H296 C309 0.961 . S
H297 C309 0.959 . S
H298 C312 0.929 . S
H299 C313 0.931 . S
H300 C315 0.930 . S
C301 H289 0.930 . S
C301 C302 1.399 . S
C301 C306 1.399 . S
C302 C301 1.399 . S
C302 C303 1.376 . S
C303 H290 0.930 . S
C303 C302 1.376 . S
C303 C304 1.388 . S
C304 H291 0.930 . S
C304 C303 1.388 . S
C304 C305 1.390 . S
C305 C304 1.390 . S
C305 C306 1.394 . S
C305 C311 1.465 1_455 S
C306 C301 1.399 . S
C306 C305 1.394 . S
C306 C307 1.516 1_455 S
C307 C306 1.516 1_655 S
C307 C308 1.502 . S
C307 C309 1.561 . S
C307 C310 1.526 . S
C308 H292 0.959 . S
C308 H293 0.959 . S
C308 H294 0.961 1_655 S
C308 C307 1.502 . S
C309 H295 0.960 1_655 S
C309 H296 0.961 . S
C309 H297 0.959 . S
C309 C307 1.561 . S
C310 C307 1.526 . S
C310 C311 1.396 . S
C310 C315 1.390 . S
C311 C305 1.465 1_655 S
C311 C310 1.396 . S
C311 C312 1.399 . S
C312 H298 0.929 . S
C312 C311 1.399 . S
C312 C313 1.385 . S
C313 H299 0.931 . S
C313 C312 1.385 . S
C313 C314 1.389 . S
C314 C313 1.389 . S
C314 C315 1.387 . S
C315 H300 0.930 . S
C315 C310 1.390 . S
C315 C314 1.387 . S
H316 C328 0.930 . S
H317 C330 0.930 . S
H318 C331 0.930 . S
H319 C335 0.959 . S
H320 C335 0.951 1_556 S
H321 C335 0.953 1_556 S
H322 C336 0.960 . S
H323 C336 0.961 . S
H324 C336 0.959 . S
H325 C339 0.929 . S
H326 C340 0.931 . S
H327 C342 0.930 . S
C328 H316 0.930 . S
C328 C329 1.399 . S
C328 C333 1.399 . S
C329 C328 1.399 . S
C329 C330 1.376 . S
C330 H317 0.930 . S
C330 C329 1.376 . S
C330 C331 1.388 . S
C331 H318 0.930 . S
C331 C330 1.388 . S
C331 C332 1.390 . S
C332 C331 1.390 . S
C332 C333 1.394 . S
C332 C338 1.465 . S
C333 C328 1.399 . S
C333 C332 1.394 . S
C333 C334 1.516 . S
C334 C333 1.516 . S
C334 C335 1.502 . S
C334 C336 1.561 . S
C334 C337 1.526 . S
C335 H319 0.959 . S
C335 H320 0.951 1_554 S
C335 H321 0.953 1_554 S
C335 C334 1.502 . S
C336 H322 0.960 . S
C336 H323 0.961 . S
C336 H324 0.959 . S
C336 C334 1.561 . S
C337 C334 1.526 . S
C337 C338 1.396 . S
C337 C342 1.390 . S
C338 C332 1.465 . S
C338 C337 1.396 . S
C338 C339 1.399 . S
C339 H325 0.929 . S
C339 C338 1.399 . S
C339 C340 1.385 . S
C340 H326 0.931 . S
C340 C339 1.385 . S
C340 C341 1.389 . S
C341 C340 1.389 . S
C341 C342 1.387 . S
C342 H327 0.930 . S
C342 C337 1.390 . S
C342 C341 1.387 . S
H343 C355 0.930 . S
H344 C357 0.930 . S
H345 C358 0.930 . S
H346 C362 0.959 . S
H347 C362 0.959 . S
H348 C362 0.961 . S
H349 C363 0.960 . S
H350 C363 0.961 . S
H351 C363 0.959 . S
H352 C366 0.929 . S
H353 C367 0.931 . S
H354 C369 0.930 . S
C355 H343 0.930 . S
C355 C356 1.399 . S
C355 C360 1.399 . S
C356 C355 1.399 . S
C356 C357 1.376 . S
C357 H344 0.930 . S
C357 C356 1.376 . S
C357 C358 1.388 . S
C358 H345 0.930 . S
C358 C357 1.388 . S
C358 C359 1.390 . S
C359 C358 1.390 . S
C359 C360 1.394 . S
C359 C365 1.465 . S
C360 C355 1.399 . S
C360 C359 1.394 . S
C360 C361 1.516 . S
C361 C360 1.516 . S
C361 C362 1.502 . S
C361 C363 1.561 . S
C361 C364 1.526 . S
C362 H346 0.959 . S
C362 H347 0.959 . S
C362 H348 0.961 . S
C362 C361 1.502 . S
C363 H349 0.960 . S
C363 H350 0.961 . S
C363 H351 0.959 . S
C363 C361 1.561 . S
C364 C361 1.526 . S
C364 C365 1.396 . S
C364 C369 1.390 . S
C365 C359 1.465 . S
C365 C364 1.396 . S
C365 C366 1.399 . S
C366 H352 0.929 . S
C366 C365 1.399 . S
C366 C367 1.385 . S
C367 H353 0.931 . S
C367 C366 1.385 . S
C367 C368 1.389 . S
C368 C367 1.389 . S
C368 C369 1.387 . S
C369 H354 0.930 . S
C369 C364 1.390 . S
C369 C368 1.387 . S
H370 C382 0.930 . S
H371 C384 0.930 . S
H372 C385 0.930 . S
H373 C389 0.959 . S
H374 C389 0.959 . S
H375 C389 0.961 . S
H376 C390 0.960 1_554 S
H377 C390 0.961 1_554 S
H378 C390 0.959 . S
H379 C393 0.929 . S
H380 C394 0.931 . S
H381 C396 0.930 . S
C382 H370 0.930 . S
C382 C383 1.399 . S
C382 C387 1.399 . S
C383 C382 1.399 . S
C383 C384 1.376 . S
C384 H371 0.930 . S
C384 C383 1.376 . S
C384 C385 1.388 . S
C385 H372 0.930 . S
C385 C384 1.388 . S
C385 C386 1.390 . S
C386 C385 1.390 . S
C386 C387 1.394 . S
C386 C392 1.465 . S
C387 C382 1.399 . S
C387 C386 1.394 . S
C387 C388 1.516 . S
C388 C387 1.516 . S
C388 C389 1.502 . S
C388 C390 1.561 . S
C388 C391 1.526 . S
C389 H373 0.959 . S
C389 H374 0.959 . S
C389 H375 0.961 . S
C389 C388 1.502 . S
C390 H376 0.960 1_556 S
C390 H377 0.961 1_556 S
C390 H378 0.959 . S
C390 C388 1.561 . S
C391 C388 1.526 . S
C391 C392 1.396 . S
C391 C396 1.390 . S
C392 C386 1.465 . S
C392 C391 1.396 . S
C392 C393 1.399 . S
C393 H379 0.929 . S
C393 C392 1.399 . S
C393 C394 1.385 . S
C394 H380 0.931 . S
C394 C393 1.385 . S
C394 C395 1.389 . S
C395 C394 1.389 . S
C395 C396 1.387 . S
C396 H381 0.930 . S
C396 C391 1.390 . S
C396 C395 1.387 . S
H397 C409 0.930 . S
H398 C411 0.930 . S
H399 C412 0.930 . S
H400 C416 0.959 . S
H401 C416 0.959 . S
H402 C416 0.961 . S
H403 C417 0.960 . S
H404 C417 0.961 . S
H405 C417 0.959 . S
H406 C420 0.929 . S
H407 C421 0.931 . S
H408 C423 0.930 . S
C409 H397 0.930 . S
C409 C410 1.399 . S
C409 C414 1.399 . S
C410 C409 1.399 . S
C410 C411 1.376 . S
C411 H398 0.930 . S
C411 C410 1.376 . S
C411 C412 1.388 . S
C412 H399 0.930 . S
C412 C411 1.388 . S
C412 C413 1.390 . S
C413 C412 1.390 . S
C413 C414 1.394 . S
C413 C419 1.465 . S
C414 C409 1.399 . S
C414 C413 1.394 . S
C414 C415 1.516 . S
C415 C414 1.516 . S
C415 C416 1.502 . S
C415 C417 1.561 . S
C415 C418 1.526 . S
C416 H400 0.959 . S
C416 H401 0.959 . S
C416 H402 0.961 . S
C416 C415 1.502 . S
C417 H403 0.960 . S
C417 H404 0.961 . S
C417 H405 0.959 . S
C417 C415 1.561 . S
C418 C415 1.526 . S
C418 C419 1.396 . S
C418 C423 1.390 . S
C419 C413 1.465 . S
C419 C418 1.396 . S
C419 C420 1.399 . S
C420 H406 0.929 . S
C420 C419 1.399 . S
C420 C421 1.385 . S
C421 H407 0.931 . S
C421 C420 1.385 . S
C421 C422 1.389 . S
C422 C421 1.389 . S
C422 C423 1.387 . S
C423 H408 0.930 . S
C423 C418 1.390 . S
C423 C422 1.387 . S
H424 C436 0.930 . S
H425 C438 0.930 . S
H426 C439 0.930 . S
H427 C443 0.959 . S
H428 C443 0.959 . S
H429 C443 0.961 . S
H430 C444 0.960 . S
H431 C444 0.961 . S
H432 C444 0.959 . S
H433 C447 0.929 . S
H434 C448 0.931 . S
H435 C450 0.930 . S
C436 H424 0.930 . S
C436 C437 1.399 . S
C436 C441 1.399 . S
C437 C436 1.399 . S
C437 C438 1.376 . S
C438 H425 0.930 . S
C438 C437 1.376 . S
C438 C439 1.388 . S
C439 H426 0.930 . S
C439 C438 1.388 . S
C439 C440 1.390 . S
C440 C439 1.390 . S
C440 C441 1.394 . S
C440 C446 1.465 . S
C441 C436 1.399 . S
C441 C440 1.394 . S
C441 C442 1.516 . S
C442 C441 1.516 . S
C442 C443 1.502 . S
C442 C444 1.561 . S
C442 C445 1.526 . S
C443 H427 0.959 . S
C443 H428 0.959 . S
C443 H429 0.961 . S
C443 C442 1.502 . S
C444 H430 0.960 . S
C444 H431 0.961 . S
C444 H432 0.959 . S
C444 C442 1.561 . S
C445 C442 1.526 . S
C445 C446 1.396 . S
C445 C450 1.390 . S
C446 C440 1.465 . S
C446 C445 1.396 . S
C446 C447 1.399 . S
C447 H433 0.929 . S
C447 C446 1.399 . S
C447 C448 1.385 . S
C448 H434 0.931 . S
C448 C447 1.385 . S
C448 C449 1.389 . S
C449 C448 1.389 . S
C449 C450 1.387 . S
C450 H435 0.930 . S
C450 C445 1.390 . S
C450 C449 1.387 . S
H451 C463 0.930 . S
H452 C465 0.930 . S
H453 C466 0.930 . S
H454 C470 0.959 . S
H455 C470 0.959 . S
H456 C470 0.961 . S
H457 C471 0.960 . S
H458 C471 0.961 . S
H459 C471 0.959 . S
H460 C474 0.929 . S
H461 C475 0.931 . S
H462 C477 0.930 . S
C463 H451 0.930 . S
C463 C464 1.399 . S
C463 C468 1.399 . S
C464 C463 1.399 . S
C464 C465 1.376 . S
C465 H452 0.930 . S
C465 C464 1.376 . S
C465 C466 1.388 . S
C466 H453 0.930 . S
C466 C465 1.388 . S
C466 C467 1.390 . S
C467 C466 1.390 . S
C467 C468 1.394 . S
C467 C473 1.465 . S
C468 C463 1.399 . S
C468 C467 1.394 . S
C468 C469 1.516 . S
C469 C468 1.516 . S
C469 C470 1.502 . S
C469 C471 1.561 . S
C469 C472 1.526 . S
C470 H454 0.959 . S
C470 H455 0.959 . S
C470 H456 0.961 . S
C470 C469 1.502 . S
C471 H457 0.960 . S
C471 H458 0.961 . S
C471 H459 0.959 . S
C471 C469 1.561 . S
C472 C469 1.526 . S
C472 C473 1.396 . S
C472 C477 1.390 . S
C473 C467 1.465 . S
C473 C472 1.396 . S
C473 C474 1.399 . S
C474 H460 0.929 . S
C474 C473 1.399 . S
C474 C475 1.385 . S
C475 H461 0.931 . S
C475 C474 1.385 . S
C475 C476 1.389 . S
C476 C475 1.389 . S
C476 C477 1.387 . S
C477 H462 0.930 . S
C477 C472 1.390 . S
C477 C476 1.387 . S
H478 C490 0.930 . S
H479 C492 0.930 . S
H480 C493 0.930 . S
H481 C497 0.959 . S
H482 C497 0.959 . S
H483 C497 0.961 . S
H484 C498 0.960 . S
H485 C498 0.961 . S
H486 C498 0.959 . S
H487 C501 0.929 . S
H488 C502 0.931 . S
H489 C504 0.930 . S
C490 H478 0.930 . S
C490 C491 1.399 . S
C490 C495 1.399 . S
C491 C490 1.399 . S
C491 C492 1.376 . S
C492 H479 0.930 . S
C492 C491 1.376 . S
C492 C493 1.388 . S
C493 H480 0.930 . S
C493 C492 1.388 . S
C493 C494 1.390 . S
C494 C493 1.390 . S
C494 C495 1.394 . S
C494 C500 1.465 . S
C495 C490 1.399 . S
C495 C494 1.394 . S
C495 C496 1.516 . S
C496 C495 1.516 . S
C496 C497 1.502 . S
C496 C498 1.561 . S
C496 C499 1.526 . S
C497 H481 0.959 . S
C497 H482 0.959 . S
C497 H483 0.961 . S
C497 C496 1.502 . S
C498 H484 0.960 . S
C498 H485 0.961 . S
C498 H486 0.959 . S
C498 C496 1.561 . S
C499 C496 1.526 . S
C499 C500 1.396 . S
C499 C504 1.390 . S
C500 C494 1.465 . S
C500 C499 1.396 . S
C500 C501 1.399 . S
C501 H487 0.929 . S
C501 C500 1.399 . S
C501 C502 1.385 . S
C502 H488 0.931 . S
C502 C501 1.385 . S
C502 C503 1.389 . S
C503 C502 1.389 . S
C503 C504 1.387 . S
C504 H489 0.930 . S
C504 C499 1.390 . S
C504 C503 1.387 . S
H505 C517 0.930 . S
H506 C519 0.930 . S
H507 C520 0.930 . S
H508 C524 0.959 . S
H509 C524 0.959 . S
H510 C524 0.961 . S
H511 C525 0.960 . S
H512 C525 0.961 . S
H513 C525 0.959 . S
H514 C528 0.929 . S
H515 C529 0.931 . S
H516 C531 0.930 . S
C517 H505 0.930 . S
C517 C518 1.399 . S
C517 C522 1.399 . S
C518 C517 1.399 . S
C518 C519 1.376 . S
C519 H506 0.930 . S
C519 C518 1.376 . S
C519 C520 1.388 . S
C520 H507 0.930 . S
C520 C519 1.388 . S
C520 C521 1.390 . S
C521 C520 1.390 . S
C521 C522 1.394 . S
C521 C527 1.465 . S
C522 C517 1.399 . S
C522 C521 1.394 . S
C522 C523 1.516 . S
C523 C522 1.516 . S
C523 C524 1.502 . S
C523 C525 1.561 . S
C523 C526 1.526 . S
C524 H508 0.959 . S
C524 H509 0.959 . S
C524 H510 0.961 . S
C524 C523 1.502 . S
C525 H511 0.960 . S
C525 H512 0.961 . S
C525 H513 0.959 . S
C525 C523 1.561 . S
C526 C523 1.526 . S
C526 C527 1.396 . S
C526 C531 1.390 . S
C527 C521 1.465 . S
C527 C526 1.396 . S
C527 C528 1.399 . S
C528 H514 0.929 . S
C528 C527 1.399 . S
C528 C529 1.385 . S
C529 H515 0.931 . S
C529 C528 1.385 . S
C529 C530 1.389 . S
C530 C529 1.389 . S
C530 C531 1.387 . S
C531 H516 0.930 . S
C531 C526 1.390 . S
C531 C530 1.387 . S
H532 C544 0.930 . S
H533 C546 0.930 . S
H534 C547 0.930 . S
H535 C551 0.959 . S
H536 C551 0.959 . S
H537 C551 0.961 . S
H538 C552 0.960 . S
H539 C552 0.961 . S
H540 C552 0.959 . S
H541 C555 0.929 . S
H542 C556 0.931 . S
H543 C558 0.930 . S
C544 H532 0.930 . S
C544 C545 1.399 . S
C544 C549 1.399 . S
C545 C544 1.399 . S
C545 C546 1.376 . S
C546 H533 0.930 . S
C546 C545 1.376 . S
C546 C547 1.388 . S
C547 H534 0.930 . S
C547 C546 1.388 . S
C547 C548 1.390 . S
C548 C547 1.390 . S
C548 C549 1.394 . S
C548 C554 1.465 . S
C549 C544 1.399 . S
C549 C548 1.394 . S
C549 C550 1.516 . S
C550 C549 1.516 . S
C550 C551 1.502 . S
C550 C552 1.561 . S
C550 C553 1.526 . S
C551 H535 0.959 . S
C551 H536 0.959 . S
C551 H537 0.961 . S
C551 C550 1.502 . S
C552 H538 0.960 . S
C552 H539 0.961 . S
C552 H540 0.959 . S
C552 C550 1.561 . S
C553 C550 1.526 . S
C553 C554 1.396 . S
C553 C558 1.390 . S
C554 C548 1.465 . S
C554 C553 1.396 . S
C554 C555 1.399 . S
C555 H541 0.929 . S
C555 C554 1.399 . S
C555 C556 1.385 . S
C556 H542 0.931 . S
C556 C555 1.385 . S
C556 C557 1.389 . S
C557 C556 1.389 . S
C557 C558 1.387 . S
C558 H543 0.930 . S
C558 C553 1.390 . S
C558 C557 1.387 . S
H559 C571 0.930 . S
H560 C573 0.930 . S
H561 C574 0.930 . S
H562 C578 0.959 . S
H563 C578 0.959 . S
H564 C578 0.961 . S
H565 C579 0.960 . S
H566 C579 0.961 . S
H567 C579 0.959 . S
H568 C582 0.929 . S
H569 C583 0.931 . S
H570 C585 0.930 . S
C571 H559 0.930 . S
C571 C572 1.399 . S
C571 C576 1.399 . S
C572 C571 1.399 . S
C572 C573 1.376 . S
C573 H560 0.930 . S
C573 C572 1.376 . S
C573 C574 1.388 . S
C574 H561 0.930 . S
C574 C573 1.388 . S
C574 C575 1.390 . S
C575 C574 1.390 . S
C575 C576 1.394 . S
C575 C581 1.465 . S
C576 C571 1.399 . S
C576 C575 1.394 . S
C576 C577 1.516 . S
C577 C576 1.516 . S
C577 C578 1.502 . S
C577 C579 1.561 . S
C577 C580 1.526 . S
C578 H562 0.959 . S
C578 H563 0.959 . S
C578 H564 0.961 . S
C578 C577 1.502 . S
C579 H565 0.960 . S
C579 H566 0.961 . S
C579 H567 0.959 . S
C579 C577 1.561 . S
C580 C577 1.526 . S
C580 C581 1.396 . S
C580 C585 1.390 . S
C581 C575 1.465 . S
C581 C580 1.396 . S
C581 C582 1.399 . S
C582 H568 0.929 . S
C582 C581 1.399 . S
C582 C583 1.385 . S
C583 H569 0.931 . S
C583 C582 1.385 . S
C583 C584 1.389 . S
C584 C583 1.389 . S
C584 C585 1.387 . S
C585 H570 0.930 . S
C585 C580 1.390 . S
C585 C584 1.387 . S
H586 C598 0.930 . S
H587 C600 0.930 . S
H588 C601 0.930 . S
H589 C605 0.959 . S
H590 C605 0.959 . S
H591 C605 0.961 . S
H592 C606 0.960 . S
H593 C606 0.961 . S
H594 C606 0.959 . S
H595 C609 0.929 . S
H596 C610 0.931 . S
H597 C612 0.930 . S
C598 H586 0.930 . S
C598 C599 1.399 . S
C598 C603 1.399 . S
C599 C598 1.399 . S
C599 C600 1.376 . S
C600 H587 0.930 . S
C600 C599 1.376 . S
C600 C601 1.388 . S
C601 H588 0.930 . S
C601 C600 1.388 . S
C601 C602 1.390 . S
C602 C601 1.390 . S
C602 C603 1.394 . S
C602 C608 1.465 . S
C603 C598 1.399 . S
C603 C602 1.394 . S
C603 C604 1.516 . S
C604 C603 1.516 . S
C604 C605 1.502 . S
C604 C606 1.561 . S
C604 C607 1.526 . S
C605 H589 0.959 . S
C605 H590 0.959 . S
C605 H591 0.961 . S
C605 C604 1.502 . S
C606 H592 0.960 . S
C606 H593 0.961 . S
C606 H594 0.959 . S
C606 C604 1.561 . S
C607 C604 1.526 . S
C607 C608 1.396 . S
C607 C612 1.390 . S
C608 C602 1.465 . S
C608 C607 1.396 . S
C608 C609 1.399 . S
C609 H595 0.929 . S
C609 C608 1.399 . S
C609 C610 1.385 . S
C610 H596 0.931 . S
C610 C609 1.385 . S
C610 C611 1.389 . S
C611 C610 1.389 . S
C611 C612 1.387 . S
C612 H597 0.930 . S
C612 C607 1.390 . S
C612 C611 1.387 . S
H613 C625 0.930 . S
H614 C627 0.930 . S
H615 C628 0.930 . S
H616 C632 0.959 . S
H617 C632 0.959 . S
H618 C632 0.961 . S
H619 C633 0.960 . S
H620 C633 0.961 . S
H621 C633 0.959 . S
H622 C636 0.929 . S
H623 C637 0.931 . S
H624 C639 0.930 . S
C625 H613 0.930 . S
C625 C626 1.399 . S
C625 C630 1.399 . S
C626 C625 1.399 . S
C626 C627 1.376 . S
C627 H614 0.930 . S
C627 C626 1.376 . S
C627 C628 1.388 . S
C628 H615 0.930 . S
C628 C627 1.388 . S
C628 C629 1.390 . S
C629 C628 1.390 . S
C629 C630 1.394 . S
C629 C635 1.465 . S
C630 C625 1.399 . S
C630 C629 1.394 . S
C630 C631 1.516 . S
C631 C630 1.516 . S
C631 C632 1.502 . S
C631 C633 1.561 . S
C631 C634 1.526 . S
C632 H616 0.959 . S
C632 H617 0.959 . S
C632 H618 0.961 . S
C632 C631 1.502 . S
C633 H619 0.960 . S
C633 H620 0.961 . S
C633 H621 0.959 . S
C633 C631 1.561 . S
C634 C631 1.526 . S
C634 C635 1.396 . S
C634 C639 1.390 . S
C635 C629 1.465 . S
C635 C634 1.396 . S
C635 C636 1.399 . S
C636 H622 0.929 . S
C636 C635 1.399 . S
C636 C637 1.385 . S
C637 H623 0.931 . S
C637 C636 1.385 . S
C637 C638 1.389 . S
C638 C637 1.389 . S
C638 C639 1.387 . S
C639 H624 0.930 . S
C639 C634 1.390 . S
C639 C638 1.387 . S
H640 C652 0.930 . S
H641 C654 0.930 1_554 S
H642 C655 0.930 . S
H643 C659 0.959 . S
H644 C659 0.959 . S
H645 C659 0.961 . S
H646 C660 0.960 . S
H647 C660 0.961 . S
H648 C660 0.959 . S
H649 C663 0.929 . S
H650 C664 0.931 . S
H651 C666 0.930 1_556 S
C652 H640 0.930 . S
C652 C653 1.399 . S
C652 C657 1.399 . S
C653 C652 1.399 . S
C653 C654 1.376 . S
C654 H641 0.930 1_556 S
C654 C653 1.376 . S
C654 C655 1.388 1_556 S
C655 H642 0.930 . S
C655 C654 1.388 1_554 S
C655 C656 1.390 . S
C656 C655 1.390 . S
C656 C657 1.394 1_554 S
C656 C662 1.465 . S
C657 C652 1.399 . S
C657 C656 1.394 1_556 S
C657 C658 1.516 . S
C658 C657 1.516 . S
C658 C659 1.502 . S
C658 C660 1.561 . S
C658 C661 1.558 . S
C659 H643 0.959 . S
C659 H644 0.959 . S
C659 H645 0.961 . S
C659 C658 1.502 . S
C660 H646 0.960 . S
C660 H647 0.961 . S
C660 H648 0.959 . S
C660 C658 1.561 . S
C661 C658 1.558 . S
C661 C662 1.372 1_556 S
C661 C666 1.380 1_556 S
C662 C656 1.465 . S
C662 C661 1.372 1_554 S
C662 C663 1.399 . S
C663 H649 0.929 . S
C663 C662 1.399 . S
C663 C664 1.385 . S
C664 H650 0.931 . S
C664 C663 1.385 . S
C664 C665 1.389 . S
C665 C664 1.389 . S
C665 C666 1.387 . S
C666 H651 0.930 1_554 S
C666 C661 1.380 1_554 S
C666 C665 1.387 . S
H667 C679 0.930 . S
H668 C681 0.930 . S
H669 C682 0.930 . S
H670 C686 0.959 . S
H671 C686 0.959 . S
H672 C686 0.961 . S
H673 C687 0.960 . S
H674 C687 0.961 . S
H675 C687 0.959 . S
H676 C690 0.929 . S
H677 C691 0.931 . S
H678 C693 0.930 . S
C679 H667 0.930 . S
C679 C680 1.399 . S
C679 C684 1.399 . S
C680 C679 1.399 . S
C680 C681 1.376 . S
C681 H668 0.930 . S
C681 C680 1.376 . S
C681 C682 1.388 . S
C682 H669 0.930 . S
C682 C681 1.388 . S
C682 C683 1.390 . S
C683 C682 1.390 . S
C683 C684 1.394 . S
C683 C689 1.465 . S
C684 C679 1.399 . S
C684 C683 1.394 . S
C684 C685 1.516 . S
C685 C684 1.516 . S
C685 C686 1.502 . S
C685 C687 1.561 . S
C685 C688 1.526 . S
C686 H670 0.959 . S
C686 H671 0.959 . S
C686 H672 0.961 . S
C686 C685 1.502 . S
C687 H673 0.960 . S
C687 H674 0.961 . S
C687 H675 0.959 . S
C687 C685 1.561 . S
C688 C685 1.526 . S
C688 C689 1.396 . S
C688 C693 1.390 . S
C689 C683 1.465 . S
C689 C688 1.396 . S
C689 C690 1.399 . S
C690 H676 0.929 . S
C690 C689 1.399 . S
C690 C691 1.385 . S
C691 H677 0.931 . S
C691 C690 1.385 . S
C691 C692 1.389 . S
C692 C691 1.389 . S
C692 C693 1.387 . S
C693 H678 0.930 . S
C693 C688 1.390 . S
C693 C692 1.387 . S
H694 C706 0.930 . S
H695 C708 0.930 . S
H696 C709 0.930 . S
H697 C713 0.959 . S
H698 C713 0.959 . S
H699 C713 0.961 . S
H700 C714 0.960 . S
H701 C714 0.961 . S
H702 C714 0.959 . S
H703 C717 0.929 . S
H704 C718 0.931 . S
H705 C720 0.930 . S
C706 H694 0.930 . S
C706 C707 1.399 . S
C706 C711 1.399 . S
C707 C706 1.399 . S
C707 C708 1.376 . S
C708 H695 0.930 . S
C708 C707 1.376 . S
C708 C709 1.388 . S
C709 H696 0.930 . S
C709 C708 1.388 . S
C709 C710 1.390 . S
C710 C709 1.390 . S
C710 C711 1.394 . S
C710 C716 1.465 1_554 S
C711 C706 1.399 . S
C711 C710 1.394 . S
C711 C712 1.516 1_554 S
C712 C711 1.516 1_556 S
C712 C713 1.502 . S
C712 C714 1.561 1_556 S
C712 C715 1.526 . S
C713 H697 0.959 . S
C713 H698 0.959 . S
C713 H699 0.961 . S
C713 C712 1.502 . S
C714 H700 0.960 . S
C714 H701 0.961 . S
C714 H702 0.959 . S
C714 C712 1.561 1_554 S
C715 C712 1.526 . S
C715 C716 1.396 . S
C715 C720 1.390 . S
C716 C710 1.465 1_556 S
C716 C715 1.396 . S
C716 C717 1.399 . S
C717 H703 0.929 . S
C717 C716 1.399 . S
C717 C718 1.385 . S
C718 H704 0.931 . S
C718 C717 1.385 . S
C718 C719 1.389 . S
C719 C718 1.389 . S
C719 C720 1.387 . S
C720 H705 0.930 . S
C720 C715 1.390 . S
C720 C719 1.387 . S
H721 C733 0.930 . S
H722 C735 0.930 . S
H723 C736 0.930 . S
H724 C740 0.959 . S
H725 C740 0.959 . S
H726 C740 0.961 . S
H727 C741 0.960 . S
H728 C741 0.961 . S
H729 C741 0.959 . S
H730 C744 0.929 . S
H731 C745 0.931 . S
H732 C747 0.930 . S
C733 H721 0.930 . S
C733 C734 1.399 . S
C733 C738 1.399 . S
C734 C733 1.399 . S
C734 C735 1.376 . S
C735 H722 0.930 . S
C735 C734 1.376 . S
C735 C736 1.388 . S
C736 H723 0.930 . S
C736 C735 1.388 . S
C736 C737 1.390 . S
C737 C736 1.390 . S
C737 C738 1.394 . S
C737 C743 1.465 . S
C738 C733 1.399 . S
C738 C737 1.394 . S
C738 C739 1.516 . S
C739 C738 1.516 . S
C739 C740 1.502 . S
C739 C741 1.561 . S
C739 C742 1.526 . S
C740 H724 0.959 . S
C740 H725 0.959 . S
C740 H726 0.961 . S
C740 C739 1.502 . S
C741 H727 0.960 . S
C741 H728 0.961 . S
C741 H729 0.959 . S
C741 C739 1.561 . S
C742 C739 1.526 . S
C742 C743 1.396 . S
C742 C747 1.390 . S
C743 C737 1.465 . S
C743 C742 1.396 . S
C743 C744 1.399 . S
C744 H730 0.929 . S
C744 C743 1.399 . S
C744 C745 1.385 . S
C745 H731 0.931 . S
C745 C744 1.385 . S
C745 C746 1.389 . S
C746 C745 1.389 . S
C746 C747 1.387 . S
C747 H732 0.930 . S
C747 C742 1.390 . S
C747 C746 1.387 . S
H748 C760 0.930 . S
H749 C762 0.930 . S
H750 C763 0.930 . S
H751 C767 0.959 . S
H752 C767 0.959 . S
H753 C767 0.961 . S
H754 C768 0.960 . S
H755 C768 0.961 . S
H756 C768 0.959 1_556 S
H757 C771 0.929 . S
H758 C772 0.931 . S
H759 C774 0.930 . S
C760 H748 0.930 . S
C760 C761 1.399 . S
C760 C765 1.399 . S
C761 C760 1.399 . S
C761 C762 1.376 . S
C762 H749 0.930 . S
C762 C761 1.376 . S
C762 C763 1.388 1_554 S
C763 H750 0.930 . S
C763 C762 1.388 1_556 S
C763 C764 1.390 . S
C764 C763 1.390 . S
C764 C765 1.394 1_556 S
C764 C770 1.465 . S
C765 C760 1.399 . S
C765 C764 1.394 1_554 S
C765 C766 1.516 . S
C766 C765 1.516 . S
C766 C767 1.502 . S
C766 C768 1.561 . S
C766 C769 1.526 1_554 S
C767 H751 0.959 . S
C767 H752 0.959 . S
C767 H753 0.961 . S
C767 C766 1.502 . S
C768 H754 0.960 . S
C768 H755 0.961 . S
C768 H756 0.959 1_554 S
C768 C766 1.561 . S
C769 C766 1.526 1_556 S
C769 C770 1.396 . S
C769 C774 1.390 . S
C770 C764 1.465 . S
C770 C769 1.396 . S
C770 C771 1.399 . S
C771 H757 0.929 . S
C771 C770 1.399 . S
C771 C772 1.385 . S
C772 H758 0.931 . S
C772 C771 1.385 . S
C772 C773 1.389 . S
C773 C772 1.389 . S
C773 C774 1.387 . S
C774 H759 0.930 . S
C774 C769 1.390 . S
C774 C773 1.387 . S
H775 C787 0.930 . S
H776 C789 0.930 . S
H777 C790 0.930 . S
H778 C794 0.959 . S
H779 C794 0.959 . S
H780 C794 0.961 . S
H781 C795 0.960 . S
H782 C795 0.961 . S
H783 C795 0.959 . S
H784 C798 0.929 . S
H785 C799 0.931 . S
H786 C801 0.930 . S
C787 H775 0.930 . S
C787 C788 1.399 . S
C787 C792 1.399 . S
C788 C787 1.399 . S
C788 C789 1.376 . S
C789 H776 0.930 . S
C789 C788 1.376 . S
C789 C790 1.388 . S
C790 H777 0.930 . S
C790 C789 1.388 . S
C790 C791 1.390 . S
C791 C790 1.390 . S
C791 C792 1.394 . S
C791 C797 1.465 . S
C792 C787 1.399 . S
C792 C791 1.394 . S
C792 C793 1.516 . S
C793 C792 1.516 . S
C793 C794 1.502 . S
C793 C795 1.561 . S
C793 C796 1.526 . S
C794 H778 0.959 . S
C794 H779 0.959 . S
C794 H780 0.961 . S
C794 C793 1.502 . S
C795 H781 0.960 . S
C795 H782 0.961 . S
C795 H783 0.959 . S
C795 C793 1.561 . S
C796 C793 1.526 . S
C796 C797 1.396 . S
C796 C801 1.390 . S
C797 C791 1.465 . S
C797 C796 1.396 . S
C797 C798 1.399 . S
C798 H784 0.929 . S
C798 C797 1.399 . S
C798 C799 1.385 . S
C799 H785 0.931 . S
C799 C798 1.385 . S
C799 C800 1.389 . S
C800 C799 1.389 . S
C800 C801 1.387 . S
C801 H786 0.930 . S
C801 C796 1.390 . S
C801 C800 1.387 . S
H802 C814 0.925 1_556 S
H803 C816 0.930 . S
H804 C817 0.930 . S
H805 C821 0.959 . S
H806 C821 0.959 . S
H807 C821 0.961 . S
H808 C822 0.960 . S
H809 C822 0.961 . S
H810 C822 0.959 . S
H811 C825 0.929 . S
H812 C826 0.931 . S
H813 C828 0.930 . S
C814 H802 0.925 1_554 S
C814 C815 1.399 . S
C814 C819 1.400 1_554 S
C815 C814 1.399 . S
C815 C816 1.376 . S
C816 H803 0.930 . S
C816 C815 1.376 . S
C816 C817 1.388 . S
C817 H804 0.930 . S
C817 C816 1.388 . S
C817 C818 1.390 . S
C818 C817 1.390 . S
C818 C819 1.395 1_554 S
C818 C824 1.465 . S
C819 C814 1.400 1_556 S
C819 C818 1.395 1_556 S
C819 C820 1.515 . S
C820 C819 1.515 . S
C820 C821 1.502 . S
C820 C822 1.561 . S
C820 C823 1.526 . S
C821 H805 0.959 . S
C821 H806 0.959 . S
C821 H807 0.961 . S
C821 C820 1.502 . S
C822 H808 0.960 . S
C822 H809 0.961 . S
C822 H810 0.959 . S
C822 C820 1.561 . S
C823 C820 1.526 . S
C823 C824 1.396 1_556 S
C823 C828 1.390 . S
C824 C818 1.465 . S
C824 C823 1.396 1_554 S
C824 C825 1.399 . S
C825 H811 0.929 . S
C825 C824 1.399 . S
C825 C826 1.385 1_554 S
C826 H812 0.931 . S
C826 C825 1.385 1_556 S
C826 C827 1.389 . S
C827 C826 1.389 . S
C827 C828 1.387 . S
C828 H813 0.930 . S
C828 C823 1.390 . S
C828 C827 1.387 . S
H829 C841 0.930 . S
H830 C843 0.930 . S
H831 C844 0.930 . S
H832 C848 0.959 . S
H833 C848 0.959 . S
H834 C848 0.961 . S
H835 C849 0.960 . S
H836 C849 0.961 . S
H837 C849 0.959 . S
H838 C852 0.929 . S
H839 C853 0.931 . S
H840 C855 0.930 . S
C841 H829 0.930 . S
C841 C842 1.399 . S
C841 C846 1.399 . S
C842 C841 1.399 . S
C842 C843 1.376 . S
C843 H830 0.930 . S
C843 C842 1.376 . S
C843 C844 1.388 . S
C844 H831 0.930 . S
C844 C843 1.388 . S
C844 C845 1.390 . S
C845 C844 1.390 . S
C845 C846 1.394 . S
C845 C851 1.465 . S
C846 C841 1.399 . S
C846 C845 1.394 . S
C846 C847 1.516 . S
C847 C846 1.516 . S
C847 C848 1.502 . S
C847 C849 1.561 . S
C847 C850 1.526 . S
C848 H832 0.959 . S
C848 H833 0.959 . S
C848 H834 0.961 . S
C848 C847 1.502 . S
C849 H835 0.960 . S
C849 H836 0.961 . S
C849 H837 0.959 . S
C849 C847 1.561 . S
C850 C847 1.526 . S
C850 C851 1.396 . S
C850 C855 1.390 . S
C851 C845 1.465 . S
C851 C850 1.396 . S
C851 C852 1.399 . S
C852 H838 0.929 . S
C852 C851 1.399 . S
C852 C853 1.385 . S
C853 H839 0.931 . S
C853 C852 1.385 . S
C853 C854 1.389 . S
C854 C853 1.389 . S
C854 C855 1.387 . S
C855 H840 0.930 . S
C855 C850 1.390 . S
C855 C854 1.387 . S
H856 C868 0.930 . S
H857 C870 0.930 . S
H858 C871 0.930 . S
H859 C875 0.959 . S
H860 C875 0.959 . S
H861 C875 0.961 . S
H862 C876 0.960 . S
H863 C876 0.961 . S
H864 C876 0.959 . S
H865 C879 0.929 . S
H866 C880 0.931 . S
H867 C882 0.930 . S
C868 H856 0.930 . S
C868 C869 1.399 . S
C868 C873 1.399 . S
C869 C868 1.399 . S
C869 C870 1.376 . S
C870 H857 0.930 . S
C870 C869 1.376 . S
C870 C871 1.388 . S
C871 H858 0.930 . S
C871 C870 1.388 . S
C871 C872 1.390 . S
C872 C871 1.390 . S
C872 C873 1.394 . S
C872 C878 1.465 1_556 S
C873 C868 1.399 . S
C873 C872 1.394 . S
C873 C874 1.516 1_556 S
C874 C873 1.516 1_554 S
C874 C875 1.502 . S
C874 C876 1.561 . S
C874 C877 1.526 . S
C875 H859 0.959 . S
C875 H860 0.959 . S
C875 H861 0.961 . S
C875 C874 1.502 . S
C876 H862 0.960 . S
C876 H863 0.961 . S
C876 H864 0.959 . S
C876 C874 1.561 . S
C877 C874 1.526 . S
C877 C878 1.396 . S
C877 C882 1.390 . S
C878 C872 1.465 1_554 S
C878 C877 1.396 . S
C878 C879 1.399 1_554 S
C879 H865 0.929 . S
C879 C878 1.399 1_556 S
C879 C880 1.385 1_556 S
C880 H866 0.931 . S
C880 C879 1.385 1_554 S
C880 C881 1.389 . S
C881 C880 1.389 . S
C881 C882 1.387 . S
C882 H867 0.930 . S
C882 C877 1.390 . S
C882 C881 1.387 . S
H883 C895 0.930 . S
H884 C897 0.930 . S
H885 C898 0.930 . S
H886 C902 0.959 . S
H887 C902 0.959 . S
H888 C902 0.961 . S
H889 C903 0.960 . S
H890 C903 0.961 . S
H891 C903 0.959 . S
H892 C906 0.929 . S
H893 C907 0.931 . S
H894 C909 0.930 . S
C895 H883 0.930 . S
C895 C896 1.399 . S
C895 C900 1.399 . S
C896 C895 1.399 . S
C896 C897 1.376 . S
C897 H884 0.930 . S
C897 C896 1.376 . S
C897 C898 1.388 . S
C898 H885 0.930 . S
C898 C897 1.388 . S
C898 C899 1.390 . S
C899 C898 1.390 . S
C899 C900 1.394 . S
C899 C905 1.465 . S
C900 C895 1.399 . S
C900 C899 1.394 . S
C900 C901 1.516 . S
C901 C900 1.516 . S
C901 C902 1.502 . S
C901 C903 1.561 . S
C901 C904 1.526 . S
C902 H886 0.959 . S
C902 H887 0.959 . S
C902 H888 0.961 . S
C902 C901 1.502 . S
C903 H889 0.960 . S
C903 H890 0.961 . S
C903 H891 0.959 . S
C903 C901 1.561 . S
C904 C901 1.526 . S
C904 C905 1.396 . S
C904 C909 1.390 . S
C905 C899 1.465 . S
C905 C904 1.396 . S
C905 C906 1.399 . S
C906 H892 0.929 . S
C906 C905 1.399 . S
C906 C907 1.385 . S
C907 H893 0.931 . S
C907 C906 1.385 . S
C907 C908 1.389 . S
C908 C907 1.389 . S
C908 C909 1.387 . S
C909 H894 0.930 . S
C909 C904 1.390 . S
C909 C908 1.387 . S
H910 C922 0.930 1_556 S
H911 C924 0.930 . S
H912 C925 0.930 . S
H913 C929 0.959 . S
H914 C929 0.959 . S
H915 C929 0.961 . S
H916 C930 0.960 . S
H917 C930 0.961 . S
H918 C930 0.959 . S
H919 C933 0.929 . S
H920 C934 0.931 1_554 S
H921 C936 0.930 . S
C922 H910 0.930 1_554 S
C922 C923 1.399 . S
C922 C927 1.399 . S
C923 C922 1.399 . S
C923 C924 1.376 . S
C924 H911 0.930 . S
C924 C923 1.376 . S
C924 C925 1.388 . S
C925 H912 0.930 . S
C925 C924 1.388 . S
C925 C926 1.390 . S
C926 C925 1.390 . S
C926 C927 1.394 . S
C926 C932 1.465 . S
C927 C922 1.399 . S
C927 C926 1.394 . S
C927 C928 1.516 1_554 S
C928 C927 1.516 1_556 S
C928 C929 1.502 . S
C928 C930 1.561 . S
C928 C931 1.526 . S
C929 H913 0.959 . S
C929 H914 0.959 . S
C929 H915 0.961 . S
C929 C928 1.502 . S
C930 H916 0.960 . S
C930 H917 0.961 . S
C930 H918 0.959 . S
C930 C928 1.561 . S
C931 C928 1.526 . S
C931 C932 1.396 1_556 S
C931 C936 1.390 . S
C932 C926 1.465 . S
C932 C931 1.396 1_554 S
C932 C933 1.399 . S
C933 H919 0.929 . S
C933 C932 1.399 . S
C933 C934 1.385 1_554 S
C934 H920 0.931 1_556 S
C934 C933 1.385 1_556 S
C934 C935 1.389 . S
C935 C934 1.389 . S
C935 C936 1.387 . S
C936 H921 0.930 . S
C936 C931 1.390 . S
C936 C935 1.387 . S
H937 C949 0.930 . S
H938 C951 0.930 . S
H939 C952 0.930 . S
H940 C956 0.959 . S
H941 C956 0.959 . S
H942 C956 0.961 . S
H943 C957 0.960 . S
H944 C957 0.961 . S
H945 C957 0.959 . S
H946 C960 0.929 . S
H947 C961 0.931 . S
H948 C963 0.930 . S
C949 H937 0.930 . S
C949 C950 1.399 . S
C949 C954 1.399 . S
C950 C949 1.399 . S
C950 C951 1.376 . S
C951 H938 0.930 . S
C951 C950 1.376 . S
C951 C952 1.388 . S
C952 H939 0.930 . S
C952 C951 1.388 . S
C952 C953 1.390 . S
C953 C952 1.390 . S
C953 C954 1.394 . S
C953 C959 1.465 . S
C954 C949 1.399 . S
C954 C953 1.394 . S
C954 C955 1.516 . S
C955 C954 1.516 . S
C955 C956 1.502 . S
C955 C957 1.561 . S
C955 C958 1.526 . S
C956 H940 0.959 . S
C956 H941 0.959 . S
C956 H942 0.961 . S
C956 C955 1.502 . S
C957 H943 0.960 . S
C957 H944 0.961 . S
C957 H945 0.959 . S
C957 C955 1.561 . S
C958 C955 1.526 . S
C958 C959 1.396 . S
C958 C963 1.390 . S
C959 C953 1.465 . S
C959 C958 1.396 . S
C959 C960 1.399 . S
C960 H946 0.929 . S
C960 C959 1.399 . S
C960 C961 1.385 . S
C961 H947 0.931 . S
C961 C960 1.385 . S
C961 C962 1.389 . S
C962 C961 1.389 . S
C962 C963 1.387 . S
C963 H948 0.930 . S
C963 C958 1.390 . S
C963 C962 1.387 . S
H964 C976 0.930 . S
H965 C978 0.930 1_554 S
H966 C979 0.930 . S
H967 C983 0.959 . S
H968 C983 0.959 . S
H969 C983 0.961 . S
H970 C984 0.960 . S
H971 C984 0.961 . S
H972 C984 0.959 . S
H973 C987 0.929 1_545 S
H974 C988 0.931 . S
H975 C990 0.930 1_556 S
C976 H964 0.930 . S
C976 C977 1.399 . S
C976 C981 1.399 . S
C977 C976 1.399 . S
C977 C978 1.376 . S
C978 H965 0.930 1_556 S
C978 C977 1.376 . S
C978 C979 1.388 1_556 S
C979 H966 0.930 . S
C979 C978 1.388 1_554 S
C979 C980 1.390 . S
C980 C979 1.390 . S
C980 C981 1.394 1_554 S
C980 C986 1.465 1_545 S
C981 C976 1.399 . S
C981 C980 1.394 1_556 S
C981 C982 1.516 1_545 S
C982 C981 1.516 1_565 S
C982 C983 1.502 . S
C982 C984 1.561 . S
C982 C985 1.502 1_556 S
C983 H967 0.959 . S
C983 H968 0.959 . S
C983 H969 0.961 . S
C983 C982 1.502 . S
C984 H970 0.960 . S
C984 H971 0.961 . S
C984 H972 0.959 . S
C984 C982 1.561 . S
C985 C982 1.502 1_554 S
C985 C986 1.413 . S
C985 C990 1.398 . S
C986 C980 1.465 1_565 S
C986 C985 1.413 . S
C986 C987 1.399 . S
C987 H973 0.929 1_565 S
C987 C986 1.399 . S
C987 C988 1.385 . S
C988 H974 0.931 . S
C988 C987 1.385 . S
C988 C989 1.389 . S
C989 C988 1.389 . S
C989 C990 1.387 . S
C990 H975 0.930 1_554 S
C990 C985 1.398 . S
C990 C989 1.387 . S
H991 C1003 0.930 . S
H992 C1005 0.930 . S
H993 C1006 0.911 1_545 S
H994 C1010 0.959 . S
H995 C1010 0.959 . S
H996 C1010 0.961 . S
H997 C1011 0.960 . S
H998 C1011 0.961 . S
H999 C1011 0.959 . S
H1000 C1014 0.929 . S
H1001 C1015 0.931 . S
H1002 C1017 0.930 . S
C1003 H991 0.930 . S
C1003 C1004 1.399 . S
C1003 C1008 1.399 . S
C1004 C1003 1.399 . S
C1004 C1005 1.376 . S
C1005 H992 0.930 . S
C1005 C1004 1.376 . S
C1005 C1006 1.388 . S
C1006 H993 0.911 1_565 S
C1006 C1005 1.388 . S
C1006 C1007 1.390 . S
C1007 C1006 1.390 . S
C1007 C1008 1.394 . S
C1007 C1013 1.465 1_565 S
C1008 C1003 1.399 . S
C1008 C1007 1.394 . S
C1008 C1009 1.516 . S
C1009 C1008 1.516 . S
C1009 C1010 1.502 . S
C1009 C1011 1.561 . S
C1009 C1012 1.526 1_565 S
C1010 H994 0.959 . S
C1010 H995 0.959 . S
C1010 H996 0.961 . S
C1010 C1009 1.502 . S
C1011 H997 0.960 . S
C1011 H998 0.961 . S
C1011 H999 0.959 . S
C1011 C1009 1.561 . S
C1012 C1009 1.526 1_545 S
C1012 C1013 1.396 . S
C1012 C1017 1.390 . S
C1013 C1007 1.465 1_545 S
C1013 C1012 1.396 . S
C1013 C1014 1.399 . S
C1014 H1000 0.929 . S
C1014 C1013 1.399 . S
C1014 C1015 1.385 . S
C1015 H1001 0.931 . S
C1015 C1014 1.385 . S
C1015 C1016 1.389 . S
C1016 C1015 1.389 . S
C1016 C1017 1.387 . S
C1017 H1002 0.930 . S
C1017 C1012 1.390 . S
C1017 C1016 1.387 . S
H1018 C1030 0.930 1_556 S
H1019 C1032 0.930 . S
H1020 C1033 0.930 . S
H1021 C1037 0.959 . S
H1022 C1037 0.959 . S
H1023 C1037 0.961 . S
H1024 C1038 0.960 . S
H1025 C1038 0.961 . S
H1026 C1038 0.959 . S
H1027 C1041 0.929 . S
H1028 C1042 0.931 . S
H1029 C1044 0.930 . S
C1030 H1018 0.930 1_554 S
C1030 C1031 1.399 . S
C1030 C1035 1.400 1_554 S
C1031 C1030 1.399 . S
C1031 C1032 1.376 . S
C1032 H1019 0.930 . S
C1032 C1031 1.376 . S
C1032 C1033 1.388 . S
C1033 H1020 0.930 . S
C1033 C1032 1.388 . S
C1033 C1034 1.390 . S
C1034 C1033 1.390 . S
C1034 C1035 1.396 1_554 S
C1034 C1040 1.465 1_565 S
C1035 C1030 1.400 1_556 S
C1035 C1034 1.396 1_556 S
C1035 C1036 1.513 . S
C1036 C1035 1.513 . S
C1036 C1037 1.502 . S
C1036 C1038 1.561 . S
C1036 C1039 1.526 1_565 S
C1037 H1021 0.959 . S
C1037 H1022 0.959 . S
C1037 H1023 0.961 . S
C1037 C1036 1.502 . S
C1038 H1024 0.960 . S
C1038 H1025 0.961 . S
C1038 H1026 0.959 . S
C1038 C1036 1.561 . S
C1039 C1036 1.526 1_545 S
C1039 C1040 1.396 1_556 S
C1039 C1044 1.390 . S
C1040 C1034 1.465 1_545 S
C1040 C1039 1.396 1_554 S
C1040 C1041 1.399 . S
C1041 H1027 0.929 . S
C1041 C1040 1.399 . S
C1041 C1042 1.385 1_554 S
C1042 H1028 0.931 . S
C1042 C1041 1.385 1_556 S
C1042 C1043 1.389 . S
C1043 C1042 1.389 . S
C1043 C1044 1.387 . S
C1044 H1029 0.930 . S
C1044 C1039 1.390 . S
C1044 C1043 1.387 . S
H1045 C1057 0.930 . S
H1046 C1059 0.930 . S
H1047 C1060 0.930 . S
H1048 C1064 0.959 . S
H1049 C1064 0.959 . S
H1050 C1064 0.961 . S
H1051 C1065 0.960 . S
H1052 C1065 0.961 . S
H1053 C1065 0.959 . S
H1054 C1068 0.929 . S
H1055 C1069 0.931 . S
H1056 C1071 0.930 . S
C1057 H1045 0.930 . S
C1057 C1058 1.399 . S
C1057 C1062 1.399 . S
C1058 C1057 1.399 . S
C1058 C1059 1.376 . S
C1059 H1046 0.930 . S
C1059 C1058 1.376 . S
C1059 C1060 1.388 . S
C1060 H1047 0.930 . S
C1060 C1059 1.388 . S
C1060 C1061 1.390 . S
C1061 C1060 1.390 . S
C1061 C1062 1.394 . S
C1061 C1067 1.465 1_545 S
C1062 C1057 1.399 . S
C1062 C1061 1.394 . S
C1062 C1063 1.516 . S
C1063 C1062 1.516 . S
C1063 C1064 1.502 . S
C1063 C1065 1.561 . S
C1063 C1066 1.526 1_545 S
C1064 H1048 0.959 . S
C1064 H1049 0.959 . S
C1064 H1050 0.961 . S
C1064 C1063 1.502 . S
C1065 H1051 0.960 . S
C1065 H1052 0.961 . S
C1065 H1053 0.959 . S
C1065 C1063 1.561 . S
C1066 C1063 1.526 1_565 S
C1066 C1067 1.396 . S
C1066 C1071 1.390 . S
C1067 C1061 1.465 1_565 S
C1067 C1066 1.396 . S
C1067 C1068 1.399 . S
C1068 H1054 0.929 . S
C1068 C1067 1.399 . S
C1068 C1069 1.385 . S
C1069 H1055 0.931 . S
C1069 C1068 1.385 . S
C1069 C1070 1.389 . S
C1070 C1069 1.389 . S
C1070 C1071 1.387 . S
C1071 H1056 0.930 . S
C1071 C1066 1.390 . S
C1071 C1070 1.387 . S
C221 C5 1.394 . S
C233 C83 1.383 . S
C248 C18 1.410 . S
C260 C96 1.425 . S
C275 C57 1.425 . S
C287 C31 1.435 . S
C302 C70 1.373 . S
C314 C44 1.370 . S
C329 C187 1.407 . S
C341 C109 1.391 . S
C356 C200 1.379 . S
C368 C122 1.391 . S
C383 C135 1.401 . S
C395 C161 1.418 . S
C410 C148 1.439 . S
C422 C174 1.430 . S
C437 C10 1.388 . S
C449 C73 1.366 . S
C464 C23 1.390 . S
C476 C60 1.330 . S
C491 C36 1.388 . S
C503 C99 1.367 . S
C518 C86 1.379 . S
C530 C49 1.408 . S
C545 C177 1.344 . S
C557 C114 1.397 . S
C572 C164 1.315 . S
C584 C127 1.370 . S
C599 C140 1.389 . S
C611 C203 1.368 . S
C626 C190 1.384 . S
C638 C153 1.408 . S
C653 C156 1.229 . S
C665 C0 1.235 . S
C680 C13 1.264 . S
C692 C169 1.253 . S
C707 C182 1.261 . S
C719 C26 1.273 . S
C734 C195 1.291 . S
C746 C39 1.287 . S
C761 C104 1.294 . S
C773 C52 1.294 . S
C788 C117 1.251 . S
C800 C65 1.258 . S
C815 C78 1.291 . S
C827 C130 1.287 . S
C842 C91 1.278 . S
C854 C143 1.286 . S
C869 C34 1.292 . S
C881 C8 1.297 . S
C896 C21 1.375 . S
C908 C47 1.369 . S
C923 C88 1.375 . S
C935 C62 1.406 . S
C950 C75 1.393 . S
C962 C101 1.408 . S
C977 C138 1.354 . S
C989 C112 1.347 . S
C1004 C151 1.309 . S
C1016 C125 1.317 . S
C1031 C192 1.388 . S
C1043 C166 1.409 . S
C1058 C205 1.385 . S
C1070 C179 1.410 . S
