# Generated by pormake.
# Topology cag, (4)-cn, num edge types: 1
# Building blocks:
#     Node 0, Type 0, BuildingBlock: GALJAG_clean_sbu_0, # of connection points: 4
#     Node 1, Type 0, BuildingBlock: GALJAG_clean_sbu_0, # of connection points: 4
#     Node 2, Type 0, BuildingBlock: GALJAG_clean_sbu_0, # of connection points: 4
#     Node 3, Type 0, BuildingBlock: GALJAG_clean_sbu_0, # of connection points: 4
#     Node 4, Type 0, BuildingBlock: GALJAG_clean_sbu_0, # of connection points: 4
#     Node 5, Type 0, BuildingBlock: GALJAG_clean_sbu_0, # of connection points: 4
#     Node 6, Type 0, BuildingBlock: GALJAG_clean_sbu_0, # of connection points: 4
#     Node 7, Type 0, BuildingBlock: GALJAG_clean_sbu_0, # of connection points: 4
#     Node 8, Type 0, BuildingBlock: GALJAG_clean_sbu_0, # of connection points: 4
#     Node 9, Type 0, BuildingBlock: GALJAG_clean_sbu_0, # of connection points: 4
#     Node 10, Type 0, BuildingBlock: GALJAG_clean_sbu_0, # of connection points: 4
#     Node 11, Type 0, BuildingBlock: GALJAG_clean_sbu_0, # of connection points: 4
#     Node 12, Type 0, BuildingBlock: GALJAG_clean_sbu_0, # of connection points: 4
#     Node 13, Type 0, BuildingBlock: GALJAG_clean_sbu_0, # of connection points: 4
#     Node 14, Type 0, BuildingBlock: GALJAG_clean_sbu_0, # of connection points: 4
#     Node 15, Type 0, BuildingBlock: GALJAG_clean_sbu_0, # of connection points: 4
#     Edge 16, Type (0, 0), BuildingBlock: AJUNOK_clean_linker_0, # of connection points: 2
#     Edge 17, Type (0, 0), BuildingBlock: AJUNOK_clean_linker_0, # of connection points: 2
#     Edge 18, Type (0, 0), BuildingBlock: AJUNOK_clean_linker_0, # of connection points: 2
#     Edge 19, Type (0, 0), BuildingBlock: AJUNOK_clean_linker_0, # of connection points: 2
#     Edge 20, Type (0, 0), BuildingBlock: AJUNOK_clean_linker_0, # of connection points: 2
#     Edge 21, Type (0, 0), BuildingBlock: AJUNOK_clean_linker_0, # of connection points: 2
#     Edge 22, Type (0, 0), BuildingBlock: AJUNOK_clean_linker_0, # of connection points: 2
#     Edge 23, Type (0, 0), BuildingBlock: AJUNOK_clean_linker_0, # of connection points: 2
#     Edge 24, Type (0, 0), BuildingBlock: AJUNOK_clean_linker_0, # of connection points: 2
#     Edge 25, Type (0, 0), BuildingBlock: AJUNOK_clean_linker_0, # of connection points: 2
#     Edge 26, Type (0, 0), BuildingBlock: AJUNOK_clean_linker_0, # of connection points: 2
#     Edge 27, Type (0, 0), BuildingBlock: AJUNOK_clean_linker_0, # of connection points: 2
#     Edge 28, Type (0, 0), BuildingBlock: AJUNOK_clean_linker_0, # of connection points: 2
#     Edge 29, Type (0, 0), BuildingBlock: AJUNOK_clean_linker_0, # of connection points: 2
#     Edge 30, Type (0, 0), BuildingBlock: AJUNOK_clean_linker_0, # of connection points: 2
#     Edge 31, Type (0, 0), BuildingBlock: AJUNOK_clean_linker_0, # of connection points: 2
#     Edge 32, Type (0, 0), BuildingBlock: AJUNOK_clean_linker_0, # of connection points: 2
#     Edge 33, Type (0, 0), BuildingBlock: AJUNOK_clean_linker_0, # of connection points: 2
#     Edge 34, Type (0, 0), BuildingBlock: AJUNOK_clean_linker_0, # of connection points: 2
#     Edge 35, Type (0, 0), BuildingBlock: AJUNOK_clean_linker_0, # of connection points: 2
#     Edge 36, Type (0, 0), BuildingBlock: AJUNOK_clean_linker_0, # of connection points: 2
#     Edge 37, Type (0, 0), BuildingBlock: AJUNOK_clean_linker_0, # of connection points: 2
#     Edge 38, Type (0, 0), BuildingBlock: AJUNOK_clean_linker_0, # of connection points: 2
#     Edge 39, Type (0, 0), BuildingBlock: AJUNOK_clean_linker_0, # of connection points: 2
#     Edge 40, Type (0, 0), BuildingBlock: AJUNOK_clean_linker_0, # of connection points: 2
#     Edge 41, Type (0, 0), BuildingBlock: AJUNOK_clean_linker_0, # of connection points: 2
#     Edge 42, Type (0, 0), BuildingBlock: AJUNOK_clean_linker_0, # of connection points: 2
#     Edge 43, Type (0, 0), BuildingBlock: AJUNOK_clean_linker_0, # of connection points: 2
#     Edge 44, Type (0, 0), BuildingBlock: AJUNOK_clean_linker_0, # of connection points: 2
#     Edge 45, Type (0, 0), BuildingBlock: AJUNOK_clean_linker_0, # of connection points: 2
#     Edge 46, Type (0, 0), BuildingBlock: AJUNOK_clean_linker_0, # of connection points: 2
#     Edge 47, Type (0, 0), BuildingBlock: AJUNOK_clean_linker_0, # of connection points: 2
# Relax obj value: 0.084
# Max RMSD: 0.168
# Mean RMSD: 0.142
data_MOF--net-cag--node1-GALJAG_clean_sbu_0--edge1-AJUNOK_clean_linker_0
_symmetry_space_group_name_H-M    P1
_symmetry_Int_Tables_number       1
_symmetry_cell_setting            triclinic
loop_
_symmetry_equiv_pos_as_xyz
'x, y, z'
_cell_length_a     34.151236
_cell_length_b     36.765574
_cell_length_c     28.585793
_cell_angle_alpha  89.977448
_cell_angle_beta   90.065811
_cell_angle_gamma 90.091173
loop_
_atom_site_label
_atom_site_type_symbol
_atom_site_fract_x
_atom_site_fract_y
_atom_site_fract_z
_atom_type_partial_charge
In0 In 0.33984 0.14216 0.0814 0.0
O1 O 0.29077 0.11946 0.12635 0.0
O2 O 0.3239 0.16332 0.15419 0.0
C3 C 0.34074 0.0748 0.04416 0.0
C4 C 0.29885 0.1943 0.03612 0.0
C5 C 0.41824 0.15371 0.08606 0.0
O6 O 0.34309 0.08063 0.08756 0.0
O7 O 0.3383 0.10313 0.01932 0.0
O8 O 0.39817 0.16042 0.05006 0.0
O9 O 0.39862 0.1418 0.12013 0.0
C10 C 0.29615 0.14106 0.15995 0.0
O11 O 0.32457 0.2014 0.06648 0.0
O12 O 0.29448 0.16087 0.02781 0.0
In13 In 0.16973 0.8618 0.58387 0.0
O14 O 0.181 0.80366 0.56039 0.0
O15 O 0.2233 0.84365 0.54221 0.0
C16 C 0.09071 0.85184 0.58502 0.0
C17 C 0.20624 0.86011 0.66779 0.0
C18 C 0.17786 0.92663 0.54042 0.0
O19 O 0.11109 0.85009 0.54851 0.0
O20 O 0.11022 0.85814 0.62157 0.0
O21 O 0.17677 0.92347 0.58432 0.0
O22 O 0.17526 0.89699 0.51841 0.0
C23 C 0.21318 0.81063 0.54062 0.0
O24 O 0.19651 0.88936 0.64793 0.0
O25 O 0.19638 0.83169 0.64607 0.0
In26 In 0.34092 0.86475 0.91857 0.0
O27 O 0.33395 0.80614 0.94268 0.0
O28 O 0.28998 0.84357 0.96294 0.0
C29 C 0.41954 0.85604 0.91169 0.0
C30 C 0.29946 0.86253 0.83805 0.0
C31 C 0.34012 0.93055 0.96038 0.0
O32 O 0.40094 0.85082 0.94918 0.0
O33 O 0.39837 0.86521 0.87749 0.0
O34 O 0.34472 0.92656 0.91689 0.0
O35 O 0.33573 0.90124 0.98279 0.0
C36 C 0.30197 0.81114 0.96369 0.0
O37 O 0.29578 0.88769 0.86765 0.0
O38 O 0.32466 0.83887 0.84861 0.0
In39 In 0.17432 0.13744 0.41765 0.0
O40 O 0.19987 0.10991 0.35367 0.0
O41 O 0.19428 0.16758 0.352 0.0
C42 C 0.1805 0.06982 0.45437 0.0
C43 C 0.22007 0.18644 0.46223 0.0
C44 C 0.09657 0.15276 0.41738 0.0
O45 O 0.16436 0.07629 0.41567 0.0
O46 O 0.19381 0.09757 0.47491 0.0
O47 O 0.11574 0.14631 0.45408 0.0
O48 O 0.11682 0.15245 0.38055 0.0
C49 C 0.20534 0.13905 0.33125 0.0
O50 O 0.18355 0.18475 0.46858 0.0
O51 O 0.23353 0.16297 0.43452 0.0
In52 In 0.66825 0.86751 0.91542 0.0
O53 O 0.71701 0.84648 0.96233 0.0
O54 O 0.68027 0.80713 0.93054 0.0
C55 C 0.66655 0.93297 0.95853 0.0
C56 C 0.71009 0.87075 0.83549 0.0
C57 C 0.58999 0.85641 0.90964 0.0
O58 O 0.6672 0.90328 0.9806 0.0
O59 O 0.66667 0.92962 0.91463 0.0
O60 O 0.61004 0.86875 0.87616 0.0
O61 O 0.60961 0.84891 0.94581 0.0
C62 C 0.70954 0.81326 0.95636 0.0
O63 O 0.678 0.8538 0.83828 0.0
O64 O 0.7206 0.8863 0.87273 0.0
In65 In 0.84795 0.14124 0.41338 0.0
O66 O 0.82565 0.16754 0.34571 0.0
O67 O 0.81227 0.112 0.35733 0.0
C68 C 0.92636 0.15302 0.41432 0.0
C69 C 0.80685 0.19422 0.45626 0.0
C70 C 0.84508 0.07507 0.45372 0.0
O71 O 0.90744 0.14797 0.37693 0.0
O72 O 0.90561 0.15264 0.4507 0.0
O73 O 0.83486 0.10359 0.47517 0.0
O74 O 0.8568 0.08024 0.41241 0.0
C75 C 0.80871 0.13927 0.33108 0.0
O76 O 0.79614 0.16134 0.45692 0.0
O77 O 0.83863 0.19994 0.43509 0.0
In78 In 0.66709 0.14221 0.08643 0.0
O79 O 0.71431 0.16373 0.03668 0.0
O80 O 0.6794 0.20212 0.07287 0.0
C81 C 0.66629 0.07577 0.04655 0.0
C82 C 0.70998 0.13924 0.16577 0.0
C83 C 0.58867 0.15353 0.08865 0.0
O84 O 0.67304 0.1044 0.02338 0.0
O85 O 0.65986 0.08091 0.0895 0.0
O86 O 0.60778 0.14292 0.12389 0.0
O87 O 0.60925 0.15895 0.05274 0.0
C88 C 0.70725 0.19682 0.04483 0.0
O89 O 0.68404 0.16308 0.15913 0.0
O90 O 0.71383 0.11679 0.13285 0.0
In91 In 0.84223 0.86615 0.58358 0.0
O92 O 0.79814 0.8414 0.5333 0.0
O93 O 0.83008 0.80504 0.57653 0.0
C94 C 0.84065 0.9323 0.54156 0.0
C95 C 0.80134 0.87078 0.664 0.0
C96 C 0.92026 0.85238 0.58471 0.0
O97 O 0.84236 0.90282 0.51934 0.0
O98 O 0.8392 0.92855 0.58532 0.0
O99 O 0.90115 0.85965 0.62123 0.0
O100 O 0.89976 0.85099 0.54808 0.0
C101 C 0.80414 0.8089 0.54538 0.0
O102 O 0.83829 0.86991 0.66306 0.0
O103 O 0.7851 0.86956 0.62438 0.0
In104 In 0.84284 0.64348 0.08233 0.0
O105 O 0.81125 0.61334 0.14105 0.0
O106 O 0.81755 0.67039 0.14798 0.0
C107 C 0.83889 0.578 0.0397 0.0
C108 C 0.8029 0.69666 0.03769 0.0
C109 C 0.92133 0.65507 0.08633 0.0
O110 O 0.85147 0.58221 0.08084 0.0
O111 O 0.82822 0.60702 0.01979 0.0
O112 O 0.90277 0.65209 0.0484 0.0
O113 O 0.90018 0.65282 0.12234 0.0
C114 C 0.8046 0.64123 0.16527 0.0
O115 O 0.83687 0.70108 0.05414 0.0
O116 O 0.78929 0.66495 0.04277 0.0
In117 In 0.67084 0.36212 0.58044 0.0
O118 O 0.72682 0.37082 0.62199 0.0
O119 O 0.67642 0.35336 0.65928 0.0
C120 C 0.66991 0.4284 0.53905 0.0
C121 C 0.71129 0.30892 0.53721 0.0
C122 C 0.59318 0.34873 0.58673 0.0
O123 O 0.67675 0.42407 0.58202 0.0
O124 O 0.66359 0.39931 0.51704 0.0
O125 O 0.61395 0.33675 0.55369 0.0
O126 O 0.61179 0.3669 0.61687 0.0
C127 C 0.71224 0.36179 0.66076 0.0
O128 O 0.68546 0.30223 0.56761 0.0
O129 O 0.71563 0.3422 0.52788 0.0
In130 In 0.83899 0.36675 0.91667 0.0
O131 O 0.82567 0.30669 0.93096 0.0
O132 O 0.79627 0.34626 0.97179 0.0
C133 C 0.91756 0.35932 0.90895 0.0
C134 C 0.79987 0.36321 0.83485 0.0
C135 C 0.83587 0.43394 0.9552 0.0
O136 O 0.89819 0.34395 0.94097 0.0
O137 O 0.89716 0.37778 0.88093 0.0
O138 O 0.82683 0.42767 0.91323 0.0
O139 O 0.84616 0.40616 0.978 0.0
C140 C 0.80079 0.31301 0.96254 0.0
O141 O 0.78426 0.37425 0.87218 0.0
O142 O 0.83519 0.35372 0.83887 0.0
In143 In 0.67144 0.63974 0.41687 0.0
O144 O 0.71839 0.65863 0.46857 0.0
O145 O 0.68504 0.69903 0.43369 0.0
C146 C 0.59299 0.65106 0.41525 0.0
C147 C 0.71316 0.63892 0.33653 0.0
C148 C 0.67039 0.57249 0.45452 0.0
O149 O 0.61366 0.65602 0.45124 0.0
O150 O 0.61206 0.64119 0.37972 0.0
O151 O 0.66255 0.57861 0.4121 0.0
O152 O 0.67891 0.60047 0.4781 0.0
C153 C 0.71219 0.69208 0.46228 0.0
O154 O 0.71729 0.61543 0.36823 0.0
O155 O 0.6878 0.66288 0.34514 0.0
In156 In 0.16669 0.36613 0.91391 0.0
O157 O 0.20949 0.34226 0.96655 0.0
O158 O 0.17969 0.30542 0.92177 0.0
C159 C 0.1695 0.43042 0.95971 0.0
C160 C 0.20728 0.3679 0.83299 0.0
C161 C 0.08803 0.35857 0.90679 0.0
O162 O 0.16296 0.40067 0.98021 0.0
O163 O 0.17484 0.42763 0.91624 0.0
O164 O 0.1081 0.37774 0.87922 0.0
O165 O 0.1078 0.34243 0.9378 0.0
C166 C 0.20461 0.3097 0.95396 0.0
O167 O 0.1721 0.35749 0.83509 0.0
O168 O 0.22188 0.3774 0.87165 0.0
In169 In 0.3442 0.63768 0.41995 0.0
O170 O 0.33638 0.64646 0.3413 0.0
O171 O 0.28844 0.62498 0.37969 0.0
C172 C 0.42258 0.64881 0.41668 0.0
C173 C 0.30637 0.69429 0.45963 0.0
C174 C 0.34306 0.57189 0.46246 0.0
O175 O 0.40362 0.63492 0.38323 0.0
O176 O 0.40184 0.6576 0.45133 0.0
O177 O 0.34507 0.6014 0.48473 0.0
O178 O 0.34164 0.57553 0.41865 0.0
C179 C 0.3014 0.63526 0.34059 0.0
O180 O 0.2997 0.6616 0.47036 0.0
O181 O 0.33277 0.69857 0.42927 0.0
In182 In 0.16939 0.63977 0.08776 0.0
O183 O 0.21655 0.6614 0.03952 0.0
O184 O 0.18099 0.70046 0.07354 0.0
C185 C 0.16988 0.57226 0.04987 0.0
C186 C 0.20977 0.63581 0.16896 0.0
C187 C 0.09171 0.6548 0.08848 0.0
O188 O 0.17166 0.60088 0.02578 0.0
O189 O 0.16779 0.57761 0.09333 0.0
O190 O 0.11219 0.65348 0.12516 0.0
O191 O 0.11073 0.64976 0.05124 0.0
C192 C 0.20943 0.69455 0.04638 0.0
O193 O 0.17294 0.63815 0.16752 0.0
O194 O 0.22611 0.63522 0.12946 0.0
In195 In 0.34544 0.3609 0.58626 0.0
O196 O 0.3358 0.35491 0.66456 0.0
O197 O 0.2884 0.37472 0.62332 0.0
C198 C 0.42323 0.34629 0.59022 0.0
C199 C 0.31146 0.30222 0.54641 0.0
C200 C 0.34188 0.42863 0.54894 0.0
O201 O 0.40442 0.35923 0.6242 0.0
O202 O 0.40261 0.33978 0.55466 0.0
O203 O 0.32765 0.40117 0.5287 0.0
O204 O 0.35756 0.42188 0.58782 0.0
C205 C 0.30078 0.36592 0.66343 0.0
O206 O 0.32543 0.3281 0.52267 0.0
O207 O 0.31525 0.30557 0.59005 0.0
C208 C 0.27855 0.25924 0.0287 0.0
C209 C 0.27473 0.22295 0.0138 0.0
C210 C 0.25547 0.28689 0.00941 0.0
C211 C 0.22764 0.27944 0.97435 0.0
H212 H 0.29941 0.26643 0.05574 0.0
H213 H 0.25963 0.31439 0.02212 0.0
S214 S 0.20645 0.18894 0.92253 0.0
N215 N 0.24109 0.18101 0.96154 0.0
N216 N 0.19776 0.23306 0.92516 0.0
C217 C 0.22353 0.24328 0.95896 0.0
C218 C 0.24706 0.21504 0.9787 0.0
C219 C 0.25052 0.71717 0.50734 0.0
C220 C 0.28376 0.72475 0.47999 0.0
C221 C 0.2278 0.74515 0.52631 0.0
C222 C 0.23756 0.7819 0.51907 0.0
H223 H 0.24168 0.68932 0.51395 0.0
H224 H 0.20249 0.73781 0.54712 0.0
S225 S 0.32189 0.81649 0.45027 0.0
N226 N 0.32538 0.77179 0.44653 0.0
N227 N 0.28283 0.82447 0.48264 0.0
C228 C 0.27082 0.78997 0.49195 0.0
C229 C 0.29386 0.76139 0.47228 0.0
C230 C 0.2441 0.78849 0.00907 0.0
C231 C 0.27946 0.78115 0.98564 0.0
C232 C 0.22161 0.7604 0.02872 0.0
C233 C 0.2335 0.72388 0.02537 0.0
H234 H 0.23354 0.81616 0.01212 0.0
H235 H 0.19459 0.76736 0.04635 0.0
S236 S 0.32428 0.69015 0.96864 0.0
N237 N 0.32566 0.73463 0.96107 0.0
N238 N 0.28345 0.68196 0.99762 0.0
C239 C 0.26894 0.71619 0.00231 0.0
C240 C 0.29192 0.74477 0.98257 0.0
C241 C 0.25834 0.25571 0.54915 0.0
C242 C 0.28998 0.27157 0.5251 0.0
C243 C 0.23575 0.22813 0.52855 0.0
C244 C 0.24483 0.21474 0.48384 0.0
H245 H 0.25028 0.26538 0.58362 0.0
H246 H 0.21113 0.21712 0.54781 0.0
S247 S 0.32549 0.24632 0.40703 0.0
N248 N 0.32941 0.27177 0.45442 0.0
N249 N 0.28792 0.21893 0.41639 0.0
C250 C 0.27697 0.22974 0.4599 0.0
C251 C 0.29929 0.25847 0.48036 0.0
C252 C 0.74344 0.71955 0.99548 0.0
C253 C 0.78015 0.72664 0.01606 0.0
C254 C 0.72083 0.74765 0.9761 0.0
C255 C 0.73387 0.78396 0.977 0.0
H256 H 0.73198 0.69208 0.99437 0.0
H257 H 0.69278 0.74086 0.96067 0.0
S258 S 0.82823 0.81699 0.02596 0.0
N259 N 0.82877 0.77271 0.03538 0.0
N260 N 0.78626 0.82539 0.99945 0.0
C261 C 0.77061 0.7914 0.99727 0.0
C262 C 0.79375 0.76279 0.01663 0.0
C263 C 0.74972 0.21567 0.50354 0.0
C264 C 0.78327 0.22388 0.477 0.0
C265 C 0.72651 0.24331 0.52274 0.0
C266 C 0.73575 0.28022 0.51574 0.0
H267 H 0.74131 0.18764 0.50965 0.0
H268 H 0.70106 0.23566 0.54309 0.0
S269 S 0.82058 0.31629 0.44898 0.0
N270 N 0.82467 0.27169 0.4449 0.0
N271 N 0.78095 0.32353 0.48059 0.0
C272 C 0.76917 0.28882 0.48918 0.0
C273 C 0.79297 0.2607 0.46995 0.0
C274 C 0.78372 0.24724 0.97315 0.0
C275 C 0.77731 0.2839 0.98504 0.0
C276 C 0.76087 0.2193 0.9925 0.0
C277 C 0.7306 0.22692 0.02438 0.0
H278 H 0.80647 0.24 0.94849 0.0
H279 H 0.76698 0.19152 0.98226 0.0
S280 S 0.70198 0.3184 0.0674 0.0
N281 N 0.73857 0.32627 0.03111 0.0
N282 N 0.69565 0.27389 0.06728 0.0
C283 C 0.72395 0.26345 0.03672 0.0
C284 C 0.7473 0.29188 0.01714 0.0
C285 C 0.75438 0.78519 0.48913 0.0
C286 C 0.78152 0.77827 0.52511 0.0
C287 C 0.73192 0.7572 0.4695 0.0
C288 C 0.73572 0.72105 0.48492 0.0
H289 H 0.75036 0.81253 0.47584 0.0
H290 H 0.71163 0.76399 0.44169 0.0
S291 S 0.80173 0.68844 0.57925 0.0
N292 N 0.81035 0.73258 0.57615 0.0
N293 N 0.7682 0.67985 0.53907 0.0
C294 C 0.7626 0.71366 0.52105 0.0
C295 C 0.78547 0.74228 0.54118 0.0
C296 C 0.34322 0.03308 0.97526 0.0
C297 C 0.34053 0.03771 0.02397 0.0
C298 C 0.34309 0.99834 0.95514 0.0
C299 C 0.34004 0.96684 0.9829 0.0
H300 H 0.34562 0.05646 0.95238 0.0
H301 H 0.34536 0.99623 0.91743 0.0
S302 S 0.33149 0.96409 0.11232 0.0
N303 N 0.33429 0.00781 0.09959 0.0
N304 N 0.33387 0.94256 0.06175 0.0
C305 C 0.33711 0.97105 0.03169 0.0
C306 C 0.33742 0.00646 0.05222 0.0
C307 C 0.18893 0.9938 0.54348 0.0
C308 C 0.18066 0.96245 0.51696 0.0
C309 C 0.18988 0.02833 0.52271 0.0
C310 C 0.18211 0.03286 0.47476 0.0
H311 H 0.19439 0.99174 0.58073 0.0
H312 H 0.19582 0.05171 0.54467 0.0
S313 S 0.16065 0.95942 0.38936 0.0
N314 N 0.16608 0.93807 0.43976 0.0
N315 N 0.16741 0.00297 0.40086 0.0
C316 C 0.17456 1.0017 0.44763 0.0
C317 C 0.17398 0.96649 0.46868 0.0
C318 C 0.66841 1.00093 0.95509 0.0
C319 C 0.66612 0.96892 0.98198 0.0
C320 C 0.66852 0.03532 0.97626 0.0
C321 C 0.66611 0.03907 0.02513 0.0
H322 H 0.67032 0.99949 0.91731 0.0
H323 H 0.67039 0.05914 0.95405 0.0
S324 S 0.65965 0.96377 0.11146 0.0
N325 N 0.66148 0.94319 0.06021 0.0
N326 N 0.6615 0.00773 0.09996 0.0
C327 C 0.66369 0.00729 0.05247 0.0
C328 C 0.66376 0.97225 0.03093 0.0
C329 C 0.83599 0.03456 0.52331 0.0
C330 C 0.84349 0.03842 0.47517 0.0
C331 C 0.83501 1.00014 0.54449 0.0
C332 C 0.84115 0.96828 0.51825 0.0
H333 H 0.83119 0.05831 0.54496 0.0
H334 H 0.8294 0.99855 0.58172 0.0
S335 S 0.86113 0.96348 0.39072 0.0
N336 N 0.85669 0.00733 0.40171 0.0
N337 N 0.85459 0.94281 0.44137 0.0
C338 C 0.84829 0.97174 0.46998 0.0
C339 C 0.84953 0.00676 0.44849 0.0
C340 C 0.84717 0.47597 0.02253 0.0
C341 C 0.83538 0.47092 0.97582 0.0
C342 C 0.84801 0.51066 0.04274 0.0
C343 C 0.83707 0.54174 0.01714 0.0
H344 H 0.85606 0.45299 0.04369 0.0
H345 H 0.85748 0.51306 0.07882 0.0
S346 S 0.80343 0.54333 0.89363 0.0
N347 N 0.81214 0.49998 0.9045 0.0
N348 N 0.8137 0.56517 0.94259 0.0
C349 C 0.82492 0.5371 0.97047 0.0
C350 C 0.8241 0.50172 0.94983 0.0
C351 C 0.67951 0.49576 0.54273 0.0
C352 C 0.66957 0.4647 0.51652 0.0
C353 C 0.67967 0.53045 0.5224 0.0
C354 C 0.66983 0.53547 0.47503 0.0
H355 H 0.68739 0.49333 0.57934 0.0
H356 H 0.68763 0.55347 0.54404 0.0
S357 S 0.64103 0.46305 0.39116 0.0
N358 N 0.64927 0.44125 0.44068 0.0
N359 N 0.64951 0.50637 0.40246 0.0
C360 C 0.65969 0.50466 0.4484 0.0
C361 C 0.65957 0.4693 0.46912 0.0
C362 C 0.17391 0.53225 0.97959 0.0
C363 C 0.17016 0.5356 0.02841 0.0
C364 C 0.17396 0.49813 0.95791 0.0
C365 C 0.17014 0.46594 0.98411 0.0
H366 H 0.17676 0.55619 0.95777 0.0
H367 H 0.17677 0.49708 0.92018 0.0
S368 S 0.16006 0.45965 0.11317 0.0
N369 N 0.16301 0.50371 0.10251 0.0
N370 N 0.16298 0.4395 0.06169 0.0
C371 C 0.16657 0.4688 0.03302 0.0
C372 C 0.16663 0.50364 0.05516 0.0
C373 C 0.33315 0.50453 0.45955 0.0
C374 C 0.34233 0.53586 0.48565 0.0
C375 C 0.33243 0.47005 0.48048 0.0
C376 C 0.34131 0.46552 0.52818 0.0
H377 H 0.32638 0.50661 0.42261 0.0
H378 H 0.32539 0.44671 0.4589 0.0
S379 S 0.36672 0.53888 0.61217 0.0
N380 N 0.35992 0.56018 0.56199 0.0
N381 N 0.35901 0.49538 0.60116 0.0
C382 C 0.35038 0.49663 0.55475 0.0
C383 C 0.35075 0.53179 0.53354 0.0
C384 C 0.52359 0.14487 0.12738 0.0
C385 C 0.54537 0.15696 0.0886 0.0
C386 C 0.48251 0.14491 0.12674 0.0
C387 C 0.46155 0.15708 0.08731 0.0
H388 H 0.53833 0.1344 0.15813 0.0
H389 H 0.46712 0.13448 0.15703 0.0
S390 S 0.50466 0.1944 0.97814 0.0
N391 N 0.54284 0.18354 0.01069 0.0
N392 N 0.46577 0.18365 0.00951 0.0
C393 C 0.48296 0.17048 0.04893 0.0
C394 C 0.5248 0.17041 0.04956 0.0
C395 C 0.98491 0.85265 0.62621 0.0
C396 C 0.96354 0.84875 0.58437 0.0
C397 C 0.02601 0.85268 0.62629 0.0
C398 C 0.04736 0.84882 0.58452 0.0
H399 H 0.96983 0.85654 0.65915 0.0
H400 H 0.04111 0.85652 0.65927 0.0
S401 S 1.00543 0.83576 0.46572 0.0
N402 N 0.96692 0.83938 0.50021 0.0
N403 N 0.04395 0.83942 0.50033 0.0
C404 C 0.02636 0.84378 0.54259 0.0
C405 C 0.98453 0.84374 0.54252 0.0
C406 C 0.48462 0.84536 0.94951 0.0
C407 C 0.46285 0.85349 0.909 0.0
C408 C 0.52567 0.8453 0.94898 0.0
C409 C 0.54666 0.85345 0.90796 0.0
H410 H 0.46989 0.83969 0.98225 0.0
H411 H 0.54103 0.83967 0.98137 0.0
S412 S 0.50367 0.87396 0.79155 0.0
N413 N 0.46544 0.86795 0.82599 0.0
N414 N 0.54253 0.86792 0.82504 0.0
C415 C 0.52529 0.86049 0.86681 0.0
C416 C 0.48344 0.86048 0.86732 0.0
C417 C 0.03254 0.1554 0.37474 0.0
C418 C 0.05339 0.15695 0.41719 0.0
C419 C 0.99145 0.15519 0.37402 0.0
C420 C 0.96963 0.15671 0.41571 0.0
H421 H 0.04802 0.15315 0.34181 0.0
H422 H 0.97674 0.15293 0.34055 0.0
S423 S 0.0102 0.16447 0.53592 0.0
N424 N 0.0491 0.16246 0.50182 0.0
N425 N 0.97207 0.16226 0.50052 0.0
C426 C 0.99014 0.15983 0.45828 0.0
C427 C 0.03195 0.1599 0.45901 0.0
C428 C 0.02738 0.65806 0.04676 0.0
C429 C 0.04845 0.65872 0.08909 0.0
C430 C 0.98633 0.658 0.04627 0.0
C431 C 0.96462 0.65853 0.08809 0.0
H432 H 0.04267 0.65668 0.01362 0.0
H433 H 0.97156 0.65662 0.01277 0.0
S434 S 1.00561 0.66279 0.20833 0.0
N435 N 0.04442 0.66181 0.17399 0.0
N436 N 0.96733 0.66164 0.17305 0.0
C437 C 0.98527 0.66046 0.13066 0.0
C438 C 0.02714 0.66059 0.13116 0.0
C439 C 0.52911 0.35841 0.62681 0.0
C440 C 0.55009 0.34409 0.58871 0.0
C441 C 0.48812 0.3576 0.62781 0.0
C442 C 0.46642 0.34262 0.59065 0.0
H443 H 0.54439 0.37119 0.65569 0.0
H444 H 0.47335 0.36993 0.65734 0.0
S445 S 0.50726 0.29872 0.48449 0.0
N446 N 0.5461 0.31224 0.51424 0.0
N447 N 0.46901 0.31093 0.51603 0.0
C448 C 0.48701 0.32688 0.55317 0.0
C449 C 0.52884 0.32755 0.55224 0.0
C450 C 0.02351 0.33756 0.93873 0.0
C451 C 0.04466 0.35693 0.90457 0.0
C452 C 0.98242 0.33781 0.93932 0.0
C453 C 0.96087 0.35741 0.90575 0.0
H454 H 0.03879 0.32263 0.96583 0.0
H455 H 0.96748 0.32302 0.96682 0.0
S456 S 1.00217 0.4111 0.8073 0.0
N457 N 0.04083 0.39511 0.83514 0.0
N458 N 0.96385 0.39555 0.83622 0.0
C459 C 0.98165 0.3761 0.87065 0.0
C460 C 0.02345 0.37587 0.87006 0.0
C461 C 0.52815 0.64306 0.37572 0.0
C462 C 0.54965 0.65387 0.41539 0.0
C463 C 0.48709 0.64235 0.37612 0.0
C464 C 0.46585 0.65257 0.41616 0.0
H465 H 0.54311 0.63419 0.34434 0.0
H466 H 0.47196 0.63307 0.34502 0.0
S467 S 0.5081 0.68529 0.52832 0.0
N468 N 0.54653 0.67666 0.49519 0.0
N469 N 0.46946 0.67549 0.49591 0.0
C470 C 0.48694 0.66458 0.4556 0.0
C471 C 0.52879 0.66519 0.45523 0.0
C472 C 0.27026 0.17095 0.23202 0.0
C473 C 0.27173 0.14034 0.20258 0.0
C474 C 0.24749 0.17079 0.27281 0.0
C475 C 0.22604 0.13977 0.28599 0.0
H476 H 0.28677 0.19524 0.2235 0.0
H477 H 0.2476 0.19478 0.29483 0.0
S478 S 0.21944 0.05287 0.22058 0.0
N479 N 0.24896 0.0785 0.18885 0.0
N480 N 0.20693 0.07798 0.26603 0.0
C481 C 0.22699 0.10911 0.2567 0.0
C482 C 0.24963 0.10946 0.21482 0.0
C483 C 0.25466 0.89172 0.78009 0.0
C484 C 0.27568 0.86088 0.79479 0.0
C485 C 0.23203 0.8911 0.73918 0.0
C486 C 0.22906 0.85945 0.7118 0.0
H487 H 0.25602 0.91674 0.80004 0.0
H488 H 0.21674 0.91566 0.72898 0.0
S489 S 0.27771 0.77111 0.73549 0.0
N490 N 0.29179 0.79765 0.77896 0.0
N491 N 0.24882 0.79632 0.70243 0.0
C492 C 0.2495 0.82824 0.7264 0.0
C493 C 0.27296 0.82901 0.76777 0.0
C494 C 0.7172 0.86077 0.74946 0.0
C495 C 0.73378 0.87186 0.79219 0.0
C496 C 0.73913 0.86111 0.70805 0.0
C497 C 0.77864 0.87199 0.70798 0.0
H498 H 0.68699 0.85181 0.74788 0.0
H499 H 0.72515 0.85218 0.676 0.0
S500 S 0.8358 0.90399 0.81047 0.0
N501 N 0.792 0.89466 0.83176 0.0
N502 N 0.83333 0.89469 0.75405 0.0
C503 C 0.79559 0.88325 0.7504 0.0
C504 C 0.77312 0.88337 0.79247 0.0
C505 C 0.76743 0.17096 0.27168 0.0
C506 C 0.78463 0.13866 0.28816 0.0
C507 C 0.74266 0.17078 0.23253 0.0
C508 C 0.73498 0.13845 0.2079 0.0
H509 H 0.77254 0.19647 0.28967 0.0
H510 H 0.72989 0.19624 0.2211 0.0
S511 S 0.77335 0.04673 0.23638 0.0
N512 N 0.79225 0.0735 0.27695 0.0
N513 N 0.74663 0.07336 0.20255 0.0
C514 C 0.75238 0.10606 0.22366 0.0
C515 C 0.77695 0.10611 0.26405 0.0
C516 C 0.74121 0.67096 0.26713 0.0
C517 C 0.73666 0.63875 0.29313 0.0
C518 C 0.76388 0.67167 0.22628 0.0
C519 C 0.78218 0.64003 0.20946 0.0
H520 H 0.72748 0.69594 0.27866 0.0
H521 H 0.76657 0.69709 0.20736 0.0
S522 S 0.77911 0.54863 0.26447 0.0
N523 N 0.75247 0.57445 0.29931 0.0
N524 N 0.79434 0.57559 0.222 0.0
C525 C 0.77771 0.6076 0.235 0.0
C526 C 0.75517 0.60701 0.277 0.0
C527 C 0.71602 0.36321 0.7479 0.0
C528 C 0.73524 0.36138 0.70452 0.0
C529 C 0.73722 0.36382 0.78988 0.0
C530 C 0.77836 0.36195 0.79 0.0
H531 H 0.68437 0.36476 0.74947 0.0
H532 H 0.72119 0.36563 0.82248 0.0
S533 S 0.84254 0.35549 0.68568 0.0
N534 N 0.79771 0.35705 0.66412 0.0
N535 N 0.83753 0.35752 0.74306 0.0
C536 C 0.79792 0.35948 0.74687 0.0
C537 C 0.77636 0.35941 0.7041 0.0
C538 C 0.29383 0.36834 0.75019 0.0
C539 C 0.27609 0.36744 0.7058 0.0
C540 C 0.27126 0.36906 0.79106 0.0
C541 C 0.23012 0.3682 0.78909 0.0
H542 H 0.32544 0.36865 0.75345 0.0
H543 H 0.28625 0.36971 0.82448 0.0
S544 S 0.16936 0.36563 0.68144 0.0
N545 N 0.21492 0.36602 0.66217 0.0
N546 N 0.17247 0.36662 0.73908 0.0
C547 C 0.21197 0.36726 0.74492 0.0
C548 C 0.23497 0.36712 0.70325 0.0
C549 C 0.29518 0.64036 0.25372 0.0
C550 C 0.27739 0.6346 0.29744 0.0
C551 C 0.2731 0.64023 0.21236 0.0
C552 C 0.23231 0.63476 0.21318 0.0
H553 H 0.32645 0.64494 0.25131 0.0
H554 H 0.28813 0.6449 0.17955 0.0
S555 S 0.17153 0.61825 0.31862 0.0
N556 N 0.21649 0.62291 0.33904 0.0
N557 N 0.175 0.6231 0.26136 0.0
C558 C 0.21412 0.62891 0.25664 0.0
C559 C 0.23665 0.62869 0.29874 0.0
loop_
_geom_bond_atom_site_label_1
_geom_bond_atom_site_label_2
_geom_bond_distance
_geom_bond_site_symmetry_2
_ccdc_geom_bond_type
In0 O1 2.294 . S
In0 O2 2.326 . S
In0 O6 2.266 . S
In0 O7 2.326 . S
In0 O8 2.266 . S
In0 O9 2.326 . S
In0 O11 2.294 . S
In0 O12 2.326 . S
O1 In0 2.294 . S
O1 C10 1.240 . S
O2 In0 2.326 . S
O2 C10 1.252 . S
C3 O6 1.252 . S
C3 O7 1.260 . S
C4 O11 1.240 . S
C4 O12 1.252 . S
C5 O8 1.252 . S
C5 O9 1.260 . S
O6 In0 2.266 . S
O6 C3 1.252 . S
O7 In0 2.326 . S
O7 C3 1.260 . S
O8 In0 2.266 . S
O8 C5 1.252 . S
O9 In0 2.326 . S
O9 C5 1.260 . S
C10 O1 1.240 . S
C10 O2 1.252 . S
O11 In0 2.294 . S
O11 C4 1.240 . S
O12 In0 2.326 . S
O12 C4 1.252 . S
In13 O14 2.294 . S
In13 O15 2.326 . S
In13 O19 2.266 . S
In13 O20 2.326 . S
In13 O21 2.266 . S
In13 O22 2.326 . S
In13 O24 2.294 . S
In13 O25 2.326 . S
O14 In13 2.294 . S
O14 C23 1.240 . S
O15 In13 2.326 . S
O15 C23 1.252 . S
C16 O19 1.252 . S
C16 O20 1.260 . S
C17 O24 1.240 . S
C17 O25 1.252 . S
C18 O21 1.252 . S
C18 O22 1.260 . S
O19 In13 2.266 . S
O19 C16 1.252 . S
O20 In13 2.326 . S
O20 C16 1.260 . S
O21 In13 2.266 . S
O21 C18 1.252 . S
O22 In13 2.326 . S
O22 C18 1.260 . S
C23 O14 1.240 . S
C23 O15 1.252 . S
O24 In13 2.294 . S
O24 C17 1.240 . S
O25 In13 2.326 . S
O25 C17 1.252 . S
In26 O27 2.294 . S
In26 O28 2.326 . S
In26 O32 2.266 . S
In26 O33 2.326 . S
In26 O34 2.266 . S
In26 O35 2.326 . S
In26 O37 2.294 . S
In26 O38 2.326 . S
O27 In26 2.294 . S
O27 C36 1.240 . S
O28 In26 2.326 . S
O28 C36 1.252 . S
C29 O32 1.252 . S
C29 O33 1.260 . S
C30 O37 1.240 . S
C30 O38 1.252 . S
C31 O34 1.252 . S
C31 O35 1.260 . S
O32 In26 2.266 . S
O32 C29 1.252 . S
O33 In26 2.326 . S
O33 C29 1.260 . S
O34 In26 2.266 . S
O34 C31 1.252 . S
O35 In26 2.326 . S
O35 C31 1.260 . S
C36 O27 1.240 . S
C36 O28 1.252 . S
O37 In26 2.294 . S
O37 C30 1.240 . S
O38 In26 2.326 . S
O38 C30 1.252 . S
In39 O40 2.294 . S
In39 O41 2.326 . S
In39 O45 2.266 . S
In39 O46 2.326 . S
In39 O47 2.266 . S
In39 O48 2.326 . S
In39 O50 2.294 . S
In39 O51 2.326 . S
O40 In39 2.294 . S
O40 C49 1.240 . S
O41 In39 2.326 . S
O41 C49 1.252 . S
C42 O45 1.252 . S
C42 O46 1.260 . S
C43 O50 1.240 . S
C43 O51 1.252 . S
C44 O47 1.252 . S
C44 O48 1.260 . S
O45 In39 2.266 . S
O45 C42 1.252 . S
O46 In39 2.326 . S
O46 C42 1.260 . S
O47 In39 2.266 . S
O47 C44 1.252 . S
O48 In39 2.326 . S
O48 C44 1.260 . S
C49 O40 1.240 . S
C49 O41 1.252 . S
O50 In39 2.294 . S
O50 C43 1.240 . S
O51 In39 2.326 . S
O51 C43 1.252 . S
In52 O53 2.294 . S
In52 O54 2.326 . S
In52 O58 2.266 . S
In52 O59 2.326 . S
In52 O60 2.266 . S
In52 O61 2.326 . S
In52 O63 2.294 . S
In52 O64 2.326 . S
O53 In52 2.294 . S
O53 C62 1.240 . S
O54 In52 2.326 . S
O54 C62 1.252 . S
C55 O58 1.252 . S
C55 O59 1.260 . S
C56 O63 1.240 . S
C56 O64 1.252 . S
C57 O60 1.252 . S
C57 O61 1.260 . S
O58 In52 2.266 . S
O58 C55 1.252 . S
O59 In52 2.326 . S
O59 C55 1.260 . S
O60 In52 2.266 . S
O60 C57 1.252 . S
O61 In52 2.326 . S
O61 C57 1.260 . S
C62 O53 1.240 . S
C62 O54 1.252 . S
O63 In52 2.294 . S
O63 C56 1.240 . S
O64 In52 2.326 . S
O64 C56 1.252 . S
In65 O66 2.294 . S
In65 O67 2.326 . S
In65 O71 2.266 . S
In65 O72 2.326 . S
In65 O73 2.266 . S
In65 O74 2.326 . S
In65 O76 2.294 . S
In65 O77 2.326 . S
O66 In65 2.294 . S
O66 C75 1.240 . S
O67 In65 2.326 . S
O67 C75 1.252 . S
C68 O71 1.252 . S
C68 O72 1.260 . S
C69 O76 1.240 . S
C69 O77 1.252 . S
C70 O73 1.252 . S
C70 O74 1.260 . S
O71 In65 2.266 . S
O71 C68 1.252 . S
O72 In65 2.326 . S
O72 C68 1.260 . S
O73 In65 2.266 . S
O73 C70 1.252 . S
O74 In65 2.326 . S
O74 C70 1.260 . S
C75 O66 1.240 . S
C75 O67 1.252 . S
O76 In65 2.294 . S
O76 C69 1.240 . S
O77 In65 2.326 . S
O77 C69 1.252 . S
In78 O79 2.294 . S
In78 O80 2.326 . S
In78 O84 2.266 . S
In78 O85 2.326 . S
In78 O86 2.266 . S
In78 O87 2.326 . S
In78 O89 2.294 . S
In78 O90 2.326 . S
O79 In78 2.294 . S
O79 C88 1.240 . S
O80 In78 2.326 . S
O80 C88 1.252 . S
C81 O84 1.252 . S
C81 O85 1.260 . S
C82 O89 1.240 . S
C82 O90 1.252 . S
C83 O86 1.252 . S
C83 O87 1.260 . S
O84 In78 2.266 . S
O84 C81 1.252 . S
O85 In78 2.326 . S
O85 C81 1.260 . S
O86 In78 2.266 . S
O86 C83 1.252 . S
O87 In78 2.326 . S
O87 C83 1.260 . S
C88 O79 1.240 . S
C88 O80 1.252 . S
O89 In78 2.294 . S
O89 C82 1.240 . S
O90 In78 2.326 . S
O90 C82 1.252 . S
In91 O92 2.294 . S
In91 O93 2.326 . S
In91 O97 2.266 . S
In91 O98 2.326 . S
In91 O99 2.266 . S
In91 O100 2.326 . S
In91 O102 2.294 . S
In91 O103 2.326 . S
O92 In91 2.294 . S
O92 C101 1.240 . S
O93 In91 2.326 . S
O93 C101 1.252 . S
C94 O97 1.252 . S
C94 O98 1.260 . S
C95 O102 1.240 . S
C95 O103 1.252 . S
C96 O99 1.252 . S
C96 O100 1.260 . S
O97 In91 2.266 . S
O97 C94 1.252 . S
O98 In91 2.326 . S
O98 C94 1.260 . S
O99 In91 2.266 . S
O99 C96 1.252 . S
O100 In91 2.326 . S
O100 C96 1.260 . S
C101 O92 1.240 . S
C101 O93 1.252 . S
O102 In91 2.294 . S
O102 C95 1.240 . S
O103 In91 2.326 . S
O103 C95 1.252 . S
In104 O105 2.294 . S
In104 O106 2.326 . S
In104 O110 2.266 . S
In104 O111 2.326 . S
In104 O112 2.266 . S
In104 O113 2.326 . S
In104 O115 2.294 . S
In104 O116 2.326 . S
O105 In104 2.294 . S
O105 C114 1.240 . S
O106 In104 2.326 . S
O106 C114 1.252 . S
C107 O110 1.252 . S
C107 O111 1.260 . S
C108 O115 1.240 . S
C108 O116 1.252 . S
C109 O112 1.252 . S
C109 O113 1.260 . S
O110 In104 2.266 . S
O110 C107 1.252 . S
O111 In104 2.326 . S
O111 C107 1.260 . S
O112 In104 2.266 . S
O112 C109 1.252 . S
O113 In104 2.326 . S
O113 C109 1.260 . S
C114 O105 1.240 . S
C114 O106 1.252 . S
O115 In104 2.294 . S
O115 C108 1.240 . S
O116 In104 2.326 . S
O116 C108 1.252 . S
In117 O118 2.294 . S
In117 O119 2.326 . S
In117 O123 2.266 . S
In117 O124 2.326 . S
In117 O125 2.266 . S
In117 O126 2.326 . S
In117 O128 2.294 . S
In117 O129 2.326 . S
O118 In117 2.294 . S
O118 C127 1.240 . S
O119 In117 2.326 . S
O119 C127 1.252 . S
C120 O123 1.252 . S
C120 O124 1.260 . S
C121 O128 1.240 . S
C121 O129 1.252 . S
C122 O125 1.252 . S
C122 O126 1.260 . S
O123 In117 2.266 . S
O123 C120 1.252 . S
O124 In117 2.326 . S
O124 C120 1.260 . S
O125 In117 2.266 . S
O125 C122 1.252 . S
O126 In117 2.326 . S
O126 C122 1.260 . S
C127 O118 1.240 . S
C127 O119 1.252 . S
O128 In117 2.294 . S
O128 C121 1.240 . S
O129 In117 2.326 . S
O129 C121 1.252 . S
In130 O131 2.294 . S
In130 O132 2.326 . S
In130 O136 2.266 . S
In130 O137 2.326 . S
In130 O138 2.266 . S
In130 O139 2.326 . S
In130 O141 2.294 . S
In130 O142 2.326 . S
O131 In130 2.294 . S
O131 C140 1.240 . S
O132 In130 2.326 . S
O132 C140 1.252 . S
C133 O136 1.252 . S
C133 O137 1.260 . S
C134 O141 1.240 . S
C134 O142 1.252 . S
C135 O138 1.252 . S
C135 O139 1.260 . S
O136 In130 2.266 . S
O136 C133 1.252 . S
O137 In130 2.326 . S
O137 C133 1.260 . S
O138 In130 2.266 . S
O138 C135 1.252 . S
O139 In130 2.326 . S
O139 C135 1.260 . S
C140 O131 1.240 . S
C140 O132 1.252 . S
O141 In130 2.294 . S
O141 C134 1.240 . S
O142 In130 2.326 . S
O142 C134 1.252 . S
In143 O144 2.294 . S
In143 O145 2.326 . S
In143 O149 2.266 . S
In143 O150 2.326 . S
In143 O151 2.266 . S
In143 O152 2.326 . S
In143 O154 2.294 . S
In143 O155 2.326 . S
O144 In143 2.294 . S
O144 C153 1.240 . S
O145 In143 2.326 . S
O145 C153 1.252 . S
C146 O149 1.252 . S
C146 O150 1.260 . S
C147 O154 1.240 . S
C147 O155 1.252 . S
C148 O151 1.252 . S
C148 O152 1.260 . S
O149 In143 2.266 . S
O149 C146 1.252 . S
O150 In143 2.326 . S
O150 C146 1.260 . S
O151 In143 2.266 . S
O151 C148 1.252 . S
O152 In143 2.326 . S
O152 C148 1.260 . S
C153 O144 1.240 . S
C153 O145 1.252 . S
O154 In143 2.294 . S
O154 C147 1.240 . S
O155 In143 2.326 . S
O155 C147 1.252 . S
In156 O157 2.294 . S
In156 O158 2.326 . S
In156 O162 2.266 . S
In156 O163 2.326 . S
In156 O164 2.266 . S
In156 O165 2.326 . S
In156 O167 2.294 . S
In156 O168 2.326 . S
O157 In156 2.294 . S
O157 C166 1.240 . S
O158 In156 2.326 . S
O158 C166 1.252 . S
C159 O162 1.252 . S
C159 O163 1.260 . S
C160 O167 1.240 . S
C160 O168 1.252 . S
C161 O164 1.252 . S
C161 O165 1.260 . S
O162 In156 2.266 . S
O162 C159 1.252 . S
O163 In156 2.326 . S
O163 C159 1.260 . S
O164 In156 2.266 . S
O164 C161 1.252 . S
O165 In156 2.326 . S
O165 C161 1.260 . S
C166 O157 1.240 . S
C166 O158 1.252 . S
O167 In156 2.294 . S
O167 C160 1.240 . S
O168 In156 2.326 . S
O168 C160 1.252 . S
In169 O170 2.294 . S
In169 O171 2.326 . S
In169 O175 2.266 . S
In169 O176 2.326 . S
In169 O177 2.266 . S
In169 O178 2.326 . S
In169 O180 2.294 . S
In169 O181 2.326 . S
O170 In169 2.294 . S
O170 C179 1.240 . S
O171 In169 2.326 . S
O171 C179 1.252 . S
C172 O175 1.252 . S
C172 O176 1.260 . S
C173 O180 1.240 . S
C173 O181 1.252 . S
C174 O177 1.252 . S
C174 O178 1.260 . S
O175 In169 2.266 . S
O175 C172 1.252 . S
O176 In169 2.326 . S
O176 C172 1.260 . S
O177 In169 2.266 . S
O177 C174 1.252 . S
O178 In169 2.326 . S
O178 C174 1.260 . S
C179 O170 1.240 . S
C179 O171 1.252 . S
O180 In169 2.294 . S
O180 C173 1.240 . S
O181 In169 2.326 . S
O181 C173 1.252 . S
In182 O183 2.294 . S
In182 O184 2.326 . S
In182 O188 2.266 . S
In182 O189 2.326 . S
In182 O190 2.266 . S
In182 O191 2.326 . S
In182 O193 2.294 . S
In182 O194 2.326 . S
O183 In182 2.294 . S
O183 C192 1.240 . S
O184 In182 2.326 . S
O184 C192 1.252 . S
C185 O188 1.252 . S
C185 O189 1.260 . S
C186 O193 1.240 . S
C186 O194 1.252 . S
C187 O190 1.252 . S
C187 O191 1.260 . S
O188 In182 2.266 . S
O188 C185 1.252 . S
O189 In182 2.326 . S
O189 C185 1.260 . S
O190 In182 2.266 . S
O190 C187 1.252 . S
O191 In182 2.326 . S
O191 C187 1.260 . S
C192 O183 1.240 . S
C192 O184 1.252 . S
O193 In182 2.294 . S
O193 C186 1.240 . S
O194 In182 2.326 . S
O194 C186 1.252 . S
In195 O196 2.294 . S
In195 O197 2.326 . S
In195 O201 2.266 . S
In195 O202 2.326 . S
In195 O203 2.266 . S
In195 O204 2.326 . S
In195 O206 2.294 . S
In195 O207 2.326 . S
O196 In195 2.294 . S
O196 C205 1.240 . S
O197 In195 2.326 . S
O197 C205 1.252 . S
C198 O201 1.252 . S
C198 O202 1.260 . S
C199 O206 1.240 . S
C199 O207 1.252 . S
C200 O203 1.252 . S
C200 O204 1.260 . S
O201 In195 2.266 . S
O201 C198 1.252 . S
O202 In195 2.326 . S
O202 C198 1.260 . S
O203 In195 2.266 . S
O203 C200 1.252 . S
O204 In195 2.326 . S
O204 C200 1.260 . S
C205 O196 1.240 . S
C205 O197 1.252 . S
O206 In195 2.294 . S
O206 C199 1.240 . S
O207 In195 2.326 . S
O207 C199 1.252 . S
C208 C209 1.369 . S
C208 C210 1.419 . S
C208 H212 0.930 . S
C209 C208 1.369 . S
C209 C218 1.429 1_554 S
C210 C208 1.419 . S
C210 C211 1.363 1_554 S
C210 H213 0.929 . S
C211 C210 1.363 1_556 S
C211 C217 1.428 . S
H212 C208 0.930 . S
H213 C210 0.929 . S
S214 N215 1.613 . S
S214 N216 1.610 . S
N215 S214 1.613 . S
N215 C218 1.350 . S
N216 S214 1.610 . S
N216 C217 1.351 . S
C217 C211 1.428 . S
C217 N216 1.351 . S
C217 C218 1.434 . S
C218 C209 1.429 1_556 S
C218 N215 1.350 . S
C218 C217 1.434 . S
C219 C220 1.369 . S
C219 C221 1.419 . S
C219 H223 0.930 . S
C220 C219 1.369 . S
C220 C229 1.429 . S
C221 C219 1.419 . S
C221 C222 1.363 . S
C221 H224 0.929 . S
C222 C221 1.363 . S
C222 C228 1.428 . S
H223 C219 0.930 . S
H224 C221 0.929 . S
S225 N226 1.613 . S
S225 N227 1.610 . S
N226 S225 1.613 . S
N226 C229 1.350 . S
N227 S225 1.610 . S
N227 C228 1.351 . S
C228 C222 1.428 . S
C228 N227 1.351 . S
C228 C229 1.434 . S
C229 C220 1.429 . S
C229 N226 1.350 . S
C229 C228 1.434 . S
C230 C231 1.369 . S
C230 C232 1.419 1_556 S
C230 H234 0.930 . S
C231 C230 1.369 . S
C231 C240 1.429 1_556 S
C232 C230 1.419 1_554 S
C232 C233 1.363 . S
C232 H235 0.929 1_554 S
C233 C232 1.363 . S
C233 C239 1.428 . S
H234 C230 0.930 . S
H235 C232 0.929 1_556 S
S236 N237 1.613 . S
S236 N238 1.610 . S
N237 S236 1.613 . S
N237 C240 1.350 . S
N238 S236 1.610 . S
N238 C239 1.351 . S
C239 C233 1.428 . S
C239 N238 1.351 . S
C239 C240 1.434 . S
C240 C231 1.429 1_554 S
C240 N237 1.350 . S
C240 C239 1.434 . S
C241 C242 1.369 . S
C241 C243 1.419 . S
C241 H245 0.930 . S
C242 C241 1.369 . S
C242 C251 1.429 . S
C243 C241 1.419 . S
C243 C244 1.363 . S
C243 H246 0.929 . S
C244 C243 1.363 . S
C244 C250 1.428 . S
H245 C241 0.930 . S
H246 C243 0.929 . S
S247 N248 1.613 . S
S247 N249 1.610 . S
N248 S247 1.613 . S
N248 C251 1.350 . S
N249 S247 1.610 . S
N249 C250 1.351 . S
C250 C244 1.428 . S
C250 N249 1.351 . S
C250 C251 1.434 . S
C251 C242 1.429 . S
C251 N248 1.350 . S
C251 C250 1.434 . S
C252 C253 1.369 . S
C252 C254 1.419 1_554 S
C252 H256 0.930 . S
C253 C252 1.369 . S
C253 C262 1.429 1_554 S
C254 C252 1.419 1_556 S
C254 C255 1.363 . S
C254 H257 0.929 . S
C255 C254 1.363 . S
C255 C261 1.428 . S
H256 C252 0.930 . S
H257 C254 0.929 . S
S258 N259 1.613 . S
S258 N260 1.610 . S
N259 S258 1.613 . S
N259 C262 1.350 . S
N260 S258 1.610 . S
N260 C261 1.351 . S
C261 C255 1.428 . S
C261 N260 1.351 . S
C261 C262 1.434 . S
C262 C253 1.429 1_556 S
C262 N259 1.350 . S
C262 C261 1.434 . S
C263 C264 1.369 . S
C263 C265 1.419 . S
C263 H267 0.930 . S
C264 C263 1.369 . S
C264 C273 1.429 . S
C265 C263 1.419 . S
C265 C266 1.363 . S
C265 H268 0.929 . S
C266 C265 1.363 . S
C266 C272 1.428 . S
H267 C263 0.930 . S
H268 C265 0.929 . S
S269 N270 1.613 . S
S269 N271 1.610 . S
N270 S269 1.613 . S
N270 C273 1.350 . S
N271 S269 1.610 . S
N271 C272 1.351 . S
C272 C266 1.428 . S
C272 N271 1.351 . S
C272 C273 1.434 . S
C273 C264 1.429 . S
C273 N270 1.350 . S
C273 C272 1.434 . S
C274 C275 1.362 1_554 S
C274 C276 1.430 . S
C274 H278 0.925 1_554 S
C275 C274 1.362 1_556 S
C275 C284 1.429 . S
C276 C274 1.430 . S
C276 C277 1.363 . S
C276 H279 0.929 . S
C277 C276 1.363 . S
C277 C283 1.428 . S
H278 C274 0.925 1_556 S
H279 C276 0.929 . S
S280 N281 1.613 1_554 S
S280 N282 1.610 . S
N281 S280 1.613 1_556 S
N281 C284 1.350 . S
N282 S280 1.610 . S
N282 C283 1.351 . S
C283 C277 1.428 . S
C283 N282 1.351 . S
C283 C284 1.434 1_554 S
C284 C275 1.429 . S
C284 N281 1.350 . S
C284 C283 1.434 1_556 S
C285 C286 1.369 . S
C285 C287 1.419 . S
C285 H289 0.930 . S
C286 C285 1.369 . S
C286 C295 1.429 . S
C287 C285 1.419 . S
C287 C288 1.363 . S
C287 H290 0.929 . S
C288 C287 1.363 . S
C288 C294 1.428 . S
H289 C285 0.930 . S
H290 C287 0.929 . S
S291 N292 1.613 . S
S291 N293 1.610 . S
N292 S291 1.613 . S
N292 C295 1.350 . S
N293 S291 1.610 . S
N293 C294 1.351 . S
C294 C288 1.428 . S
C294 N293 1.351 . S
C294 C295 1.434 . S
C295 C286 1.429 . S
C295 N292 1.350 . S
C295 C294 1.434 . S
C296 C297 1.369 1_556 S
C296 C298 1.419 1_545 S
C296 H300 0.930 . S
C297 C296 1.369 1_554 S
C297 C306 1.429 . S
C298 C296 1.419 1_565 S
C298 C299 1.363 . S
C298 H301 0.929 . S
C299 C298 1.363 . S
C299 C305 1.428 1_556 S
H300 C296 0.930 . S
H301 C298 0.929 . S
S302 N303 1.613 1_565 S
S302 N304 1.610 . S
N303 S302 1.613 1_545 S
N303 C306 1.350 . S
N304 S302 1.610 . S
N304 C305 1.351 . S
C305 C299 1.428 1_554 S
C305 N304 1.351 . S
C305 C306 1.434 1_565 S
C306 C297 1.429 . S
C306 N303 1.350 . S
C306 C305 1.434 1_545 S
C307 C308 1.369 . S
C307 C309 1.419 1_565 S
C307 H311 0.930 . S
C308 C307 1.369 . S
C308 C317 1.429 . S
C309 C307 1.419 1_545 S
C309 C310 1.363 . S
C309 H312 0.929 . S
C310 C309 1.363 . S
C310 C316 1.428 . S
H311 C307 0.930 . S
H312 C309 0.929 . S
S313 N314 1.613 . S
S313 N315 1.610 1_565 S
N314 S313 1.613 . S
N314 C317 1.350 . S
N315 S313 1.610 1_545 S
N315 C316 1.351 . S
C316 C310 1.428 . S
C316 N315 1.351 . S
C316 C317 1.434 1_545 S
C317 C308 1.429 . S
C317 N314 1.350 . S
C317 C316 1.434 1_565 S
C318 C319 1.369 1_545 S
C318 C320 1.419 . S
C318 H322 0.930 . S
C319 C318 1.369 1_565 S
C319 C328 1.429 1_556 S
C320 C318 1.419 . S
C320 C321 1.363 1_556 S
C320 H323 0.929 . S
C321 C320 1.363 1_554 S
C321 C327 1.428 1_545 S
H322 C318 0.930 . S
H323 C320 0.929 . S
S324 N325 1.613 . S
S324 N326 1.610 . S
N325 S324 1.613 . S
N325 C328 1.350 . S
N326 S324 1.610 . S
N326 C327 1.351 . S
C327 C321 1.428 1_565 S
C327 N326 1.351 . S
C327 C328 1.434 . S
C328 C319 1.429 1_554 S
C328 N325 1.350 . S
C328 C327 1.434 . S
C329 C330 1.369 . S
C329 C331 1.419 1_545 S
C329 H333 0.930 . S
C330 C329 1.369 . S
C330 C339 1.429 . S
C331 C329 1.419 1_565 S
C331 C332 1.363 . S
C331 H334 0.929 . S
C332 C331 1.363 . S
C332 C338 1.428 . S
H333 C329 0.930 . S
H334 C331 0.929 . S
S335 N336 1.613 . S
S335 N337 1.610 . S
N336 S335 1.613 . S
N336 C339 1.350 1_565 S
N337 S335 1.610 . S
N337 C338 1.351 . S
C338 C332 1.428 . S
C338 N337 1.351 . S
C338 C339 1.434 1_565 S
C339 C330 1.429 . S
C339 N336 1.350 1_545 S
C339 C338 1.434 1_545 S
C340 C341 1.369 1_554 S
C340 C342 1.419 . S
C340 H344 0.930 . S
C341 C340 1.369 1_556 S
C341 C350 1.429 . S
C342 C340 1.419 . S
C342 C343 1.363 . S
C342 H345 0.929 . S
C343 C342 1.363 . S
C343 C349 1.428 1_554 S
H344 C340 0.930 . S
H345 C342 0.929 . S
S346 N347 1.613 . S
S346 N348 1.610 . S
N347 S346 1.613 . S
N347 C350 1.350 . S
N348 S346 1.610 . S
N348 C349 1.351 . S
C349 C343 1.428 1_556 S
C349 N348 1.351 . S
C349 C350 1.434 . S
C350 C341 1.429 . S
C350 N347 1.350 . S
C350 C349 1.434 . S
C351 C352 1.369 . S
C351 C353 1.419 . S
C351 H355 0.930 . S
C352 C351 1.369 . S
C352 C361 1.429 . S
C353 C351 1.419 . S
C353 C354 1.363 . S
C353 H356 0.929 . S
C354 C353 1.363 . S
C354 C360 1.428 . S
H355 C351 0.930 . S
H356 C353 0.929 . S
S357 N358 1.613 . S
S357 N359 1.610 . S
N358 S357 1.613 . S
N358 C361 1.350 . S
N359 S357 1.610 . S
N359 C360 1.351 . S
C360 C354 1.428 . S
C360 N359 1.351 . S
C360 C361 1.434 . S
C361 C352 1.429 . S
C361 N358 1.350 . S
C361 C360 1.434 . S
C362 C363 1.369 1_556 S
C362 C364 1.419 . S
C362 H366 0.930 . S
C363 C362 1.369 1_554 S
C363 C372 1.429 . S
C364 C362 1.419 . S
C364 C365 1.363 . S
C364 H367 0.929 . S
C365 C364 1.363 . S
C365 C371 1.428 1_556 S
H366 C362 0.930 . S
H367 C364 0.929 . S
S368 N369 1.613 . S
S368 N370 1.610 . S
N369 S368 1.613 . S
N369 C372 1.350 . S
N370 S368 1.610 . S
N370 C371 1.351 . S
C371 C365 1.428 1_554 S
C371 N370 1.351 . S
C371 C372 1.434 . S
C372 C363 1.429 . S
C372 N369 1.350 . S
C372 C371 1.434 . S
C373 C374 1.369 . S
C373 C375 1.419 . S
C373 H377 0.930 . S
C374 C373 1.369 . S
C374 C383 1.429 . S
C375 C373 1.419 . S
C375 C376 1.363 . S
C375 H378 0.929 . S
C376 C375 1.363 . S
C376 C382 1.428 . S
H377 C373 0.930 . S
H378 C375 0.929 . S
S379 N380 1.613 . S
S379 N381 1.610 . S
N380 S379 1.613 . S
N380 C383 1.350 . S
N381 S379 1.610 . S
N381 C382 1.351 . S
C382 C376 1.428 . S
C382 N381 1.351 . S
C382 C383 1.434 . S
C383 C374 1.429 . S
C383 N380 1.350 . S
C383 C382 1.434 . S
C384 C385 1.369 . S
C384 C386 1.419 . S
C384 H388 0.930 . S
C385 C384 1.369 . S
C385 C394 1.429 . S
C386 C384 1.419 . S
C386 C387 1.363 . S
C386 H389 0.929 . S
C387 C386 1.363 . S
C387 C393 1.428 . S
H388 C384 0.930 . S
H389 C386 0.929 . S
S390 N391 1.613 . S
S390 N392 1.610 . S
N391 S390 1.613 . S
N391 C394 1.350 . S
N392 S390 1.610 . S
N392 C393 1.351 . S
C393 C387 1.428 . S
C393 N392 1.351 . S
C393 C394 1.434 . S
C394 C385 1.429 . S
C394 N391 1.350 . S
C394 C393 1.434 . S
C395 C396 1.369 . S
C395 C397 1.419 1_655 S
C395 H399 0.930 . S
C396 C395 1.369 . S
C396 C405 1.429 . S
C397 C395 1.419 1_455 S
C397 C398 1.363 . S
C397 H400 0.929 . S
C398 C397 1.363 . S
C398 C404 1.428 . S
H399 C395 0.930 . S
H400 C397 0.929 . S
S401 N402 1.613 1_455 S
S401 N403 1.610 . S
N402 S401 1.613 1_655 S
N402 C405 1.350 . S
N403 S401 1.610 . S
N403 C404 1.351 . S
C404 C398 1.428 . S
C404 N403 1.351 . S
C404 C405 1.434 1_455 S
C405 C396 1.429 . S
C405 N402 1.350 . S
C405 C404 1.434 1_655 S
C406 C407 1.369 . S
C406 C408 1.419 . S
C406 H410 0.930 . S
C407 C406 1.369 . S
C407 C416 1.429 . S
C408 C406 1.419 . S
C408 C409 1.363 . S
C408 H411 0.929 . S
C409 C408 1.363 . S
C409 C415 1.428 . S
H410 C406 0.930 . S
H411 C408 0.929 . S
S412 N413 1.613 . S
S412 N414 1.610 . S
N413 S412 1.613 . S
N413 C416 1.350 . S
N414 S412 1.610 . S
N414 C415 1.351 . S
C415 C409 1.428 . S
C415 N414 1.351 . S
C415 C416 1.434 . S
C416 C407 1.429 . S
C416 N413 1.350 . S
C416 C415 1.434 . S
C417 C418 1.369 . S
C417 C419 1.419 1_455 S
C417 H421 0.930 . S
C418 C417 1.369 . S
C418 C427 1.429 . S
C419 C417 1.419 1_655 S
C419 C420 1.363 . S
C419 H422 0.929 . S
C420 C419 1.363 . S
C420 C426 1.428 . S
H421 C417 0.930 . S
H422 C419 0.929 . S
S423 N424 1.613 . S
S423 N425 1.610 1_455 S
N424 S423 1.613 . S
N424 C427 1.350 . S
N425 S423 1.610 1_655 S
N425 C426 1.351 . S
C426 C420 1.428 . S
C426 N425 1.351 . S
C426 C427 1.434 1_655 S
C427 C418 1.429 . S
C427 N424 1.350 . S
C427 C426 1.434 1_455 S
C428 C429 1.369 . S
C428 C430 1.419 1_455 S
C428 H432 0.930 . S
C429 C428 1.369 . S
C429 C438 1.429 . S
C430 C428 1.419 1_655 S
C430 C431 1.363 . S
C430 H433 0.929 . S
C431 C430 1.363 . S
C431 C437 1.428 . S
H432 C428 0.930 . S
H433 C430 0.929 . S
S434 N435 1.613 1_655 S
S434 N436 1.610 . S
N435 S434 1.613 1_455 S
N435 C438 1.350 . S
N436 S434 1.610 . S
N436 C437 1.351 . S
C437 C431 1.428 . S
C437 N436 1.351 . S
C437 C438 1.434 1_655 S
C438 C429 1.429 . S
C438 N435 1.350 . S
C438 C437 1.434 1_455 S
C439 C440 1.369 . S
C439 C441 1.419 . S
C439 H443 0.930 . S
C440 C439 1.369 . S
C440 C449 1.429 . S
C441 C439 1.419 . S
C441 C442 1.363 . S
C441 H444 0.929 . S
C442 C441 1.363 . S
C442 C448 1.428 . S
H443 C439 0.930 . S
H444 C441 0.929 . S
S445 N446 1.613 . S
S445 N447 1.610 . S
N446 S445 1.613 . S
N446 C449 1.350 . S
N447 S445 1.610 . S
N447 C448 1.351 . S
C448 C442 1.428 . S
C448 N447 1.351 . S
C448 C449 1.434 . S
C449 C440 1.429 . S
C449 N446 1.350 . S
C449 C448 1.434 . S
C450 C451 1.369 . S
C450 C452 1.419 1_455 S
C450 H454 0.930 . S
C451 C450 1.369 . S
C451 C460 1.429 . S
C452 C450 1.419 1_655 S
C452 C453 1.363 . S
C452 H455 0.929 . S
C453 C452 1.363 . S
C453 C459 1.428 . S
H454 C450 0.930 . S
H455 C452 0.929 . S
S456 N457 1.613 1_655 S
S456 N458 1.610 . S
N457 S456 1.613 1_455 S
N457 C460 1.350 . S
N458 S456 1.610 . S
N458 C459 1.351 . S
C459 C453 1.428 . S
C459 N458 1.351 . S
C459 C460 1.434 1_655 S
C460 C451 1.429 . S
C460 N457 1.350 . S
C460 C459 1.434 1_455 S
C461 C462 1.369 . S
C461 C463 1.419 . S
C461 H465 0.930 . S
C462 C461 1.369 . S
C462 C471 1.429 . S
C463 C461 1.419 . S
C463 C464 1.363 . S
C463 H466 0.929 . S
C464 C463 1.363 . S
C464 C470 1.428 . S
H465 C461 0.930 . S
H466 C463 0.929 . S
S467 N468 1.613 . S
S467 N469 1.610 . S
N468 S467 1.613 . S
N468 C471 1.350 . S
N469 S467 1.610 . S
N469 C470 1.351 . S
C470 C464 1.428 . S
C470 N469 1.351 . S
C470 C471 1.434 . S
C471 C462 1.429 . S
C471 N468 1.350 . S
C471 C470 1.434 . S
C472 C473 1.369 . S
C472 C474 1.419 . S
C472 H476 0.930 . S
C473 C472 1.369 . S
C473 C482 1.429 . S
C474 C472 1.419 . S
C474 C475 1.363 . S
C474 H477 0.929 . S
C475 C474 1.363 . S
C475 C481 1.428 . S
H476 C472 0.930 . S
H477 C474 0.929 . S
S478 N479 1.613 . S
S478 N480 1.610 . S
N479 S478 1.613 . S
N479 C482 1.350 . S
N480 S478 1.610 . S
N480 C481 1.351 . S
C481 C475 1.428 . S
C481 N480 1.351 . S
C481 C482 1.434 . S
C482 C473 1.429 . S
C482 N479 1.350 . S
C482 C481 1.434 . S
C483 C484 1.369 . S
C483 C485 1.419 . S
C483 H487 0.930 . S
C484 C483 1.369 . S
C484 C493 1.429 . S
C485 C483 1.419 . S
C485 C486 1.363 . S
C485 H488 0.929 . S
C486 C485 1.363 . S
C486 C492 1.428 . S
H487 C483 0.930 . S
H488 C485 0.929 . S
S489 N490 1.613 . S
S489 N491 1.610 . S
N490 S489 1.613 . S
N490 C493 1.350 . S
N491 S489 1.610 . S
N491 C492 1.351 . S
C492 C486 1.428 . S
C492 N491 1.351 . S
C492 C493 1.434 . S
C493 C484 1.429 . S
C493 N490 1.350 . S
C493 C492 1.434 . S
C494 C495 1.369 . S
C494 C496 1.419 . S
C494 H498 0.930 . S
C495 C494 1.369 . S
C495 C504 1.429 . S
C496 C494 1.419 . S
C496 C497 1.363 . S
C496 H499 0.929 . S
C497 C496 1.363 . S
C497 C503 1.428 . S
H498 C494 0.930 . S
H499 C496 0.929 . S
S500 N501 1.613 . S
S500 N502 1.610 . S
N501 S500 1.613 . S
N501 C504 1.350 . S
N502 S500 1.610 . S
N502 C503 1.351 . S
C503 C497 1.428 . S
C503 N502 1.351 . S
C503 C504 1.434 . S
C504 C495 1.429 . S
C504 N501 1.350 . S
C504 C503 1.434 . S
C505 C506 1.369 . S
C505 C507 1.419 . S
C505 H509 0.930 . S
C506 C505 1.369 . S
C506 C515 1.429 . S
C507 C505 1.419 . S
C507 C508 1.363 . S
C507 H510 0.929 . S
C508 C507 1.363 . S
C508 C514 1.428 . S
H509 C505 0.930 . S
H510 C507 0.929 . S
S511 N512 1.613 . S
S511 N513 1.610 . S
N512 S511 1.613 . S
N512 C515 1.350 . S
N513 S511 1.610 . S
N513 C514 1.351 . S
C514 C508 1.428 . S
C514 N513 1.351 . S
C514 C515 1.434 . S
C515 C506 1.429 . S
C515 N512 1.350 . S
C515 C514 1.434 . S
C516 C517 1.369 . S
C516 C518 1.419 . S
C516 H520 0.930 . S
C517 C516 1.369 . S
C517 C526 1.429 . S
C518 C516 1.419 . S
C518 C519 1.363 . S
C518 H521 0.929 . S
C519 C518 1.363 . S
C519 C525 1.428 . S
H520 C516 0.930 . S
H521 C518 0.929 . S
S522 N523 1.613 . S
S522 N524 1.610 . S
N523 S522 1.613 . S
N523 C526 1.350 . S
N524 S522 1.610 . S
N524 C525 1.351 . S
C525 C519 1.428 . S
C525 N524 1.351 . S
C525 C526 1.434 . S
C526 C517 1.429 . S
C526 N523 1.350 . S
C526 C525 1.434 . S
C527 C528 1.369 . S
C527 C529 1.419 . S
C527 H531 0.930 . S
C528 C527 1.369 . S
C528 C537 1.429 . S
C529 C527 1.419 . S
C529 C530 1.363 . S
C529 H532 0.929 . S
C530 C529 1.363 . S
C530 C536 1.428 . S
H531 C527 0.930 . S
H532 C529 0.929 . S
S533 N534 1.613 . S
S533 N535 1.610 . S
N534 S533 1.613 . S
N534 C537 1.350 . S
N535 S533 1.610 . S
N535 C536 1.351 . S
C536 C530 1.428 . S
C536 N535 1.351 . S
C536 C537 1.434 . S
C537 C528 1.429 . S
C537 N534 1.350 . S
C537 C536 1.434 . S
C538 C539 1.369 . S
C538 C540 1.419 . S
C538 H542 0.930 . S
C539 C538 1.369 . S
C539 C548 1.429 . S
C540 C538 1.419 . S
C540 C541 1.363 . S
C540 H543 0.929 . S
C541 C540 1.363 . S
C541 C547 1.428 . S
H542 C538 0.930 . S
H543 C540 0.929 . S
S544 N545 1.613 . S
S544 N546 1.610 . S
N545 S544 1.613 . S
N545 C548 1.350 . S
N546 S544 1.610 . S
N546 C547 1.351 . S
C547 C541 1.428 . S
C547 N546 1.351 . S
C547 C548 1.434 . S
C548 C539 1.429 . S
C548 N545 1.350 . S
C548 C547 1.434 . S
C549 C550 1.369 . S
C549 C551 1.419 . S
C549 H553 0.930 . S
C550 C549 1.369 . S
C550 C559 1.429 . S
C551 C549 1.419 . S
C551 C552 1.363 . S
C551 H554 0.929 . S
C552 C551 1.363 . S
C552 C558 1.428 . S
H553 C549 0.930 . S
H554 C551 0.929 . S
S555 N556 1.613 . S
S555 N557 1.610 . S
N556 S555 1.613 . S
N556 C559 1.350 . S
N557 S555 1.610 . S
N557 C558 1.351 . S
C558 C552 1.428 . S
C558 N557 1.351 . S
C558 C559 1.434 . S
C559 C550 1.429 . S
C559 N556 1.350 . S
C559 C558 1.434 . S
C209 C4 1.610 . S
C211 C166 1.599 . S
C220 C173 1.599 . S
C222 C23 1.610 . S
C231 C36 1.609 . S
C233 C192 1.596 . S
C242 C199 1.596 . S
C244 C43 1.610 . S
C253 C108 1.609 . S
C255 C62 1.596 . S
C264 C69 1.598 . S
C266 C121 1.610 . S
C275 C140 1.610 . S
C277 C88 1.599 . S
C286 C101 1.599 . S
C288 C153 1.610 . S
C297 C3 1.648 . S
C299 C31 1.654 . S
C308 C18 1.655 . S
C310 C42 1.649 . S
C319 C55 1.628 . S
C321 C81 1.632 . S
C330 C70 1.632 . S
C332 C94 1.629 . S
C341 C135 1.648 . S
C343 C107 1.654 . S
C352 C120 1.654 . S
C354 C148 1.649 . S
C363 C185 1.632 . S
C365 C159 1.629 . S
C374 C174 1.630 . S
C376 C200 1.632 . S
C385 C83 1.507 . S
C387 C5 1.508 . S
C396 C96 1.506 . S
C398 C16 1.508 . S
C407 C29 1.509 . S
C409 C57 1.506 . S
C418 C44 1.508 . S
C420 C68 1.506 . S
C429 C187 1.504 . S
C431 C109 1.510 . S
C440 C122 1.507 . S
C442 C198 1.508 . S
C451 C161 1.505 . S
C453 C133 1.509 . S
C462 C146 1.508 . S
C464 C172 1.506 . S
C473 C10 1.497 . S
C475 C49 1.499 . S
C484 C30 1.501 . S
C486 C17 1.499 . S
C495 C56 1.676 . S
C497 C95 1.676 . S
C506 C75 1.676 . S
C508 C82 1.676 . S
C517 C147 1.496 . S
C519 C114 1.498 . S
C528 C127 1.498 . S
C530 C134 1.500 . S
C539 C205 1.676 . S
C541 C160 1.675 . S
C550 C179 1.676 . S
C552 C186 1.676 . S
