# Generated by pormake.
# Topology unh, (4)-cn, num edge types: 1
# Building blocks:
#     Node 0, Type 0, BuildingBlock: KOZSID_clean_sbu_0, # of connection points: 4
#     Node 1, Type 0, BuildingBlock: KOZSID_clean_sbu_0, # of connection points: 4
#     Node 2, Type 0, BuildingBlock: KOZSID_clean_sbu_0, # of connection points: 4
#     Node 3, Type 0, BuildingBlock: KOZSID_clean_sbu_0, # of connection points: 4
#     Node 4, Type 0, BuildingBlock: KOZSID_clean_sbu_0, # of connection points: 4
#     Node 5, Type 0, BuildingBlock: KOZSID_clean_sbu_0, # of connection points: 4
#     Edge 6, Type (0, 0), None
#     Edge 7, Type (0, 0), None
#     Edge 8, Type (0, 0), None
#     Edge 9, Type (0, 0), None
#     Edge 10, Type (0, 0), None
#     Edge 11, Type (0, 0), None
#     Edge 12, Type (0, 0), None
#     Edge 13, Type (0, 0), None
#     Edge 14, Type (0, 0), None
#     Edge 15, Type (0, 0), None
#     Edge 16, Type (0, 0), None
#     Edge 17, Type (0, 0), None
# Relax obj value: 0.014
# Max RMSD: 0.298
# Mean RMSD: 0.252
data_MOF--net-unh--node1-KOZSID_clean_sbu_0--edge1-none
_symmetry_space_group_name_H-M    P1
_symmetry_Int_Tables_number       1
_symmetry_cell_setting            triclinic
loop_
_symmetry_equiv_pos_as_xyz
'x, y, z'
_cell_length_a     27.592284
_cell_length_b     31.816948
_cell_length_c     12.37515
_cell_angle_alpha  89.973284
_cell_angle_beta   90.016745
_cell_angle_gamma 120.67576
loop_
_atom_site_label
_atom_site_type_symbol
_atom_site_fract_x
_atom_site_fract_y
_atom_site_fract_z
_atom_type_partial_charge
C0 C 0.28899 0.64046 0.27549 0.0
C1 C 0.29937 0.664 0.37463 0.0
C2 C 0.25548 0.67197 0.39395 0.0
C3 C 0.22037 0.65303 0.30595 0.0
N4 N 0.23971 0.63388 0.23263 0.0
Co5 Co 0.19943 0.60079 0.09699 0.0
N6 N 0.14694 0.62644 0.10138 0.0
C7 C 0.13848 0.64676 0.1894 0.0
C8 C 0.10056 0.66181 0.17051 0.0
C9 C 0.08299 0.64892 0.06526 0.0
C10 C 0.11108 0.62654 0.02457 0.0
N11 N 0.16151 0.56785 0.95859 0.0
C12 C 0.12475 0.57251 0.8934 0.0
C13 C 0.10525 0.53756 0.81141 0.0
C14 C 0.13019 0.51059 0.82512 0.0
C15 C 0.163 0.52973 0.91471 0.0
N16 N 0.25078 0.57399 0.0897 0.0
C17 C 0.24278 0.53609 0.02788 0.0
C18 C 0.28744 0.52881 0.02724 0.0
C19 C 0.32622 0.56408 0.09311 0.0
C20 C 0.30268 0.5906 0.13305 0.0
N21 N 0.14142 0.54311 0.18505 0.0
C22 C 1.05091 0.49592 0.33707 0.0
C23 C 1.04128 0.49059 0.22455 0.0
C24 C 0.08647 0.5156 0.15073 0.0
C25 C 0.10726 0.51812 0.36964 0.0
C26 C 0.15114 0.53922 0.29277 0.0
N27 N 0.25597 0.66121 0.01966 0.0
C28 C 0.33176 0.70839 0.89208 0.0
C29 C 0.34259 0.75274 0.93969 0.0
C30 C 0.30931 0.74984 0.02677 0.0
C31 C 0.26621 0.70473 0.06291 0.0
C32 C 0.28865 0.66281 0.93441 0.0
H33 H 0.24182 0.70597 0.12825 0.0
H34 H 0.28173 0.62919 0.89864 0.0
H35 H 0.0755 0.51621 0.06762 0.0
H36 H 0.19282 0.55762 0.32497 0.0
C37 C 0.17252 0.65673 0.28244 0.0
C38 C 0.32654 0.62442 0.22589 0.0
C39 C 0.10073 0.60386 0.9147 0.0
C40 C 0.19997 0.51591 0.95235 0.0
H41 H 0.33512 0.67448 0.42713 0.0
H42 H 0.25067 0.69052 0.46274 0.0
H43 H 0.08795 0.6808 0.2259 0.0
H44 H 1.05284 0.65524 0.0235 0.0
H45 H 0.07426 0.53011 0.75002 0.0
H46 H 0.1251 0.4806 0.7754 0.0
H47 H 0.29267 0.50292 0.97935 0.0
H48 H 0.36689 0.56899 0.11049 0.0
H49 H 0.99853 0.47322 0.19407 0.0
H50 H 0.11804 0.5234 0.45464 0.0
H51 H 0.35594 0.70897 0.82263 0.0
H52 H 0.3151 0.78282 0.06463 0.0
C53 C 0.66684 0.26003 0.43636 0.0
C54 C 0.64356 0.27207 0.5215 0.0
C55 C 0.59051 0.23224 0.53842 0.0
C56 C 0.58424 0.198 0.46304 0.0
N57 N 0.63029 0.21371 0.40122 0.0
Co58 Co 0.63754 0.17906 0.27443 0.0
N59 N 0.55457 0.13445 0.26036 0.0
C60 C 0.5171 0.12649 0.33935 0.0
C61 C 0.46315 0.09087 0.31322 0.0
C62 C 0.46699 0.0745 0.21285 0.0
C63 C 0.52338 0.10081 0.18317 0.0
N64 N 0.64663 0.1474 0.14312 0.0
C65 C 0.60792 0.1152 0.07161 0.0
C66 C 0.63375 0.10017 0.99674 0.0
C67 C 0.68951 0.12273 0.02338 0.0
C68 C 0.69513 0.1502 0.11271 0.0
N69 N 0.7202 0.22204 0.29233 0.0
C70 C 0.75989 0.21428 0.25031 0.0
C71 C 0.81363 0.25223 0.26934 0.0
C72 C 0.80727 0.28629 0.32516 0.0
C73 C 0.7497 0.26704 0.33782 0.0
N74 N 0.63713 0.12786 0.36911 0.0
C75 C 0.59691 0.04757 0.51286 0.0
C76 C 0.62546 0.0959 0.55136 0.0
C77 C 0.64693 0.13546 0.47811 0.0
C78 C 0.59576 1.04089 0.40116 0.0
C79 C 0.61506 0.08095 0.33132 0.0
N80 N 0.63549 0.22946 0.18483 0.0
C81 C 0.68598 0.30684 0.09046 0.0
C82 C 0.64297 0.3167 0.11406 0.0
C83 C 0.59505 0.28073 0.16754 0.0
C84 C 0.59204 0.23776 0.20145 0.0
C85 C 0.68089 0.26247 0.12481 0.0
H86 H 0.55569 0.2129 0.24777 0.0
H87 H 0.7149 0.25603 0.10742 0.0
H88 H 0.6675 0.17196 0.51094 0.0
H89 H 0.6072 0.07237 0.24726 0.0
C90 C 0.53339 0.15635 0.43204 0.0
C91 C 0.72425 0.29236 0.39232 0.0
C92 C 0.54603 0.09032 0.08518 0.0
C93 C 0.74541 0.17985 0.16828 0.0
H94 H 0.66247 0.30635 0.56505 0.0
H95 H 0.55907 0.22988 0.59435 0.0
H96 H 0.4254 0.07843 0.36106 0.0
H97 H 0.43234 1.04574 0.16777 0.0
H98 H 0.61426 0.07318 0.93358 0.0
H99 H 0.72179 0.11853 0.98388 0.0
H100 H 0.85256 0.25677 0.23752 0.0
H101 H 0.84115 0.32196 0.34951 0.0
H102 H 0.62817 0.10315 0.63732 0.0
H103 H 0.57483 1.00433 0.36752 0.0
H104 H 0.72298 0.33302 0.04586 0.0
H105 H 0.56039 0.28635 0.18614 0.0
C106 C 0.42565 0.64301 0.24826 0.0
C107 C 0.44706 0.67373 0.15915 0.0
C108 C 0.50147 0.68394 0.1446 0.0
C109 C 0.51078 0.65924 0.22547 0.0
N110 N 0.46555 0.63401 0.28943 0.0
Co111 Co 0.46297 0.59684 0.42089 0.0
N112 N 0.54645 0.62816 0.43035 0.0
C113 C 0.58211 0.6523 0.34827 0.0
C114 C 0.63724 0.66815 0.37365 0.0
C115 C 0.63611 0.65204 0.47706 0.0
C116 C 0.58007 0.62671 0.50937 0.0
N117 N 0.45836 0.56093 0.55638 0.0
C118 C 0.49886 0.5666 0.62779 0.0
C119 C 0.47592 0.52983 0.70587 0.0
C120 C 0.4203 0.5002 0.6817 0.0
C121 C 0.4119 0.51996 0.59062 0.0
N122 N 0.37976 0.56354 0.40859 0.0
C123 C 0.34339 0.52 0.45305 0.0
C124 C 0.28847 0.50337 0.42634 0.0
C125 C 0.29028 0.53891 0.36183 0.0
C126 C 0.34633 0.57607 0.35374 0.0
N127 N 0.46417 0.545 0.33129 0.0
C128 C 0.50663 0.50239 0.18683 0.0
C129 C 0.47477 0.52247 0.14942 0.0
C130 C 0.45209 0.54159 0.2231 0.0
C131 C 0.50944 0.49777 0.29897 0.0
C132 C 0.4894 0.5202 0.36928 0.0
N133 N 0.46484 0.65053 0.50447 0.0
C134 C 0.41749 0.68562 0.60097 0.0
C135 C 0.46168 0.73309 0.57677 0.0
C136 C 0.50784 0.738 0.51981 0.0
C137 C 0.5086 0.6969 0.48479 0.0
C138 C 0.42025 0.64469 0.56523 0.0
H139 H 0.54387 0.70358 0.43613 0.0
H140 H 0.38558 0.60856 0.58353 0.0
H141 H 0.42947 0.55779 0.19071 0.0
H142 H 0.49934 0.52074 0.45323 0.0
C143 C 0.56301 0.66492 0.25512 0.0
C144 C 0.36625 0.62092 0.2876 0.0
C145 C 0.56026 0.59932 0.61245 0.0
C146 C 0.36082 0.50141 0.5363 0.0
H147 H 0.42553 0.68732 0.10995 0.0
H148 H 0.53137 0.70824 0.08502 0.0
H149 H 0.67406 0.68972 0.32385 0.0
H150 H 0.67244 0.6579 0.52287 0.0
H151 H 0.49719 0.52251 0.76982 0.0
H152 H 0.39 0.46735 0.7239 0.0
H153 H 0.25131 0.47033 0.45382 0.0
H154 H 0.25444 0.53667 0.32255 0.0
H155 H 0.47073 0.52674 0.06365 0.0
H156 H 0.53298 0.482 0.33209 0.0
H157 H 0.38136 0.68019 0.64696 0.0
H158 H 0.54297 0.77382 0.49935 0.0
C159 C 0.81691 0.45447 0.77551 0.0
C160 C 0.80655 0.43095 0.87471 0.0
C161 C 0.85042 0.42295 0.89405 0.0
C162 C 0.88551 0.44188 0.80602 0.0
N163 N 0.86616 0.46103 0.73264 0.0
Co164 Co 0.90644 0.49412 0.59695 0.0
N165 N 0.95893 0.46847 0.60147 0.0
C166 C 0.96738 0.44813 0.68953 0.0
C167 C 1.0053 0.43309 0.67071 0.0
C168 C 1.02288 0.44599 0.56547 0.0
C169 C 0.9948 0.46838 0.5247 0.0
N170 N 0.94435 0.52706 0.45851 0.0
C171 C 0.98112 0.52242 0.39338 0.0
C172 C 1.0006 0.55735 0.31132 0.0
C173 C 0.97564 0.58431 0.3249 0.0
C174 C 0.94283 0.56516 0.4145 0.0
N175 N 0.85508 0.52092 0.58954 0.0
C176 C 0.86305 0.5588 0.5276 0.0
C177 C 0.81839 0.56608 0.52692 0.0
C178 C 0.77964 0.53084 0.5929 0.0
C179 C 0.80319 0.50432 0.63295 0.0
N180 N 0.96445 0.55181 0.68494 0.0
C181 C 0.05496 0.59899 0.83692 0.0
C182 C 0.0646 0.60434 0.7244 0.0
C183 C 1.0194 0.57933 0.65061 0.0
C184 C 0.99863 0.57679 0.86951 0.0
C185 C 0.95473 0.55569 0.79265 0.0
N186 N 0.8499 0.4337 0.51969 0.0
C187 C 0.77421 0.38653 0.39191 0.0
C188 C 0.76338 0.34218 0.43958 0.0
C189 C 0.79658 0.34507 0.52682 0.0
C190 C 0.83964 0.39017 0.56303 0.0
C191 C 0.81728 0.43211 0.4343 0.0
H192 H 0.86399 0.38893 0.62847 0.0
H193 H 0.82422 0.46574 0.39845 0.0
H194 H 1.03036 0.57872 0.5675 0.0
H195 H 0.91306 0.53729 0.82486 0.0
C196 C 0.93335 0.43816 0.78255 0.0
C197 C 0.77936 0.47054 0.72589 0.0
C198 C 1.00517 0.49109 0.41483 0.0
C199 C 0.90585 0.57897 0.45204 0.0
H200 H 0.77081 0.42049 0.92722 0.0
H201 H 0.85524 0.40441 0.96289 0.0
H202 H 1.01791 0.41409 0.72615 0.0
H203 H 0.05304 0.43968 0.52375 0.0
H204 H 1.0316 0.56481 0.24996 0.0
H205 H 0.98072 0.61428 0.2751 0.0
H206 H 0.81315 0.59195 0.47893 0.0
H207 H 0.73897 0.52592 0.61027 0.0
H208 H 0.10734 0.62172 0.69392 0.0
H209 H 0.98786 0.57152 0.95452 0.0
H210 H 0.75009 0.38597 0.32237 0.0
H211 H 0.79078 0.31208 0.56475 0.0
C212 C 0.43918 0.83483 0.93646 0.0
C213 C 0.46242 0.82272 0.02163 0.0
C214 C 0.51549 0.86253 0.03856 0.0
C215 C 0.5218 0.89681 0.96318 0.0
N216 N 0.47576 0.88115 0.90134 0.0
Co217 Co 0.46856 0.91586 0.7745 0.0
N218 N 0.55154 0.96042 0.76048 0.0
C219 C 0.589 0.96834 0.83951 0.0
C220 C 0.64296 1.00395 0.81341 0.0
C221 C 0.63915 1.02034 0.71301 0.0
C222 C 0.58276 0.99406 0.68329 0.0
N223 N 0.45952 0.94757 0.64314 0.0
C224 C 0.49826 0.97976 0.57163 0.0
C225 C 0.47248 0.99484 0.4967 0.0
C226 C 0.41671 0.97232 0.5233 0.0
C227 C 0.41106 0.94483 0.61266 0.0
N228 N 0.38589 0.87293 0.79234 0.0
C229 C 0.34623 0.88073 0.75025 0.0
C230 C 0.29248 0.84279 0.7692 0.0
C231 C 0.29878 0.80869 0.82505 0.0
C232 C 0.35634 0.82791 0.8378 0.0
N233 N 0.46903 0.96707 0.86913 0.0
C234 C 0.5093 1.04735 1.01279 0.0
C235 C 0.48072 0.99901 0.05135 0.0
C236 C 0.45924 0.95946 0.97814 0.0
C237 C 0.51046 0.05404 0.90108 0.0
C238 C 0.49114 1.01398 0.83128 0.0
N239 N 0.47056 0.86545 0.68496 0.0
C240 C 0.42005 0.78813 0.59049 0.0
C241 C 0.46303 0.77823 0.6141 0.0
C242 C 0.51094 0.81415 0.66767 0.0
C243 C 0.51398 0.85711 0.70162 0.0
C244 C 0.42516 0.83249 0.62488 0.0
H245 H 0.55032 0.88193 0.74799 0.0
H246 H 0.39118 0.83896 0.60746 0.0
H247 H 0.43865 0.92295 1.011 0.0
H248 H 0.49899 1.02257 0.74722 0.0
C249 C 0.57267 0.93845 0.93221 0.0
C250 C 0.38175 0.80258 0.89246 0.0
C251 C 0.56014 1.0046 0.58526 0.0
C252 C 0.36076 0.91519 0.66821 0.0
H253 H 0.44348 0.78844 0.06519 0.0
H254 H 0.54692 0.86484 0.09452 0.0
H255 H 0.6807 1.01635 0.86128 0.0
H256 H 0.67382 0.0491 0.66794 0.0
H257 H 0.49199 1.02183 0.43352 0.0
H258 H 0.38446 0.97655 0.48375 0.0
H259 H 0.25356 0.83829 0.73732 0.0
H260 H 0.26487 0.77302 0.84938 0.0
H261 H 0.478 0.99175 0.13731 0.0
H262 H 0.53139 0.0906 0.8674 0.0
H263 H 0.38305 0.76199 0.54583 0.0
H264 H 0.54558 0.80849 0.68629 0.0
C265 C 0.68029 0.452 0.74835 0.0
C266 C 0.65883 0.42129 0.65927 0.0
C267 C 0.60443 0.41111 0.64476 0.0
C268 C 0.59516 0.43582 0.72562 0.0
N269 N 0.64041 0.46103 0.78954 0.0
Co270 Co 0.64306 0.49818 0.92098 0.0
N271 N 0.55958 0.46691 0.93048 0.0
C272 C 0.52389 0.44278 0.84844 0.0
C273 C 0.46878 0.42695 0.87384 0.0
C274 C 0.46994 0.44306 0.97723 0.0
C275 C 0.52599 0.46837 1.00949 0.0
N276 N 0.64773 0.53408 0.05645 0.0
C277 C 0.60725 0.52844 0.12785 0.0
C278 C 0.63023 0.5652 0.2059 0.0
C279 C 0.68586 0.59479 0.18172 0.0
C280 C 0.69422 0.57503 0.09067 0.0
N281 N 0.72626 0.53144 0.90863 0.0
C282 C 0.76266 0.57497 0.95305 0.0
C283 C 0.81758 0.5916 0.92622 0.0
C284 C 0.81572 0.55608 0.86167 0.0
C285 C 0.75966 0.51892 0.85369 0.0
N286 N 0.6419 0.55006 0.83135 0.0
C287 C 0.59949 0.59272 0.68681 0.0
C288 C 0.63135 0.57265 0.64944 0.0
C289 C 0.65401 0.5535 0.72317 0.0
C290 C 0.59668 0.59733 0.79894 0.0
C291 C 0.6167 0.57487 0.86929 0.0
N292 N 0.64116 0.44446 1.0046 0.0
C293 C 0.68853 0.40931 0.10097 0.0
C294 C 0.64431 0.36186 0.0768 0.0
C295 C 0.59812 0.35698 0.01994 0.0
C296 C 0.59738 0.3981 0.98497 0.0
C297 C 0.68577 0.45026 0.06528 0.0
H298 H 0.56208 0.39145 0.93638 0.0
H299 H 0.72047 0.48638 0.08354 0.0
H300 H 0.67664 0.5373 0.69085 0.0
H301 H 0.60676 0.57432 0.95323 0.0
C302 C 0.54296 0.43015 0.7553 0.0
C303 C 0.7397 0.47407 0.7876 0.0
C304 C 0.54584 0.49577 0.1125 0.0
C305 C 0.74528 0.59356 0.03632 0.0
H306 H 0.68032 0.40769 0.61007 0.0
H307 H 0.57449 0.38683 0.58522 0.0
H308 H 0.43194 0.40539 0.82408 0.0
H309 H 0.43363 0.43722 0.02304 0.0
H310 H 0.60899 0.57255 0.26981 0.0
H311 H 0.71619 0.62762 0.22389 0.0
H312 H 0.85475 0.62463 0.95363 0.0
H313 H 0.85153 0.55833 0.82227 0.0
H314 H 0.6354 0.5684 0.56368 0.0
H315 H 0.57315 0.61311 0.832 0.0
H316 H 0.72468 0.41472 0.14687 0.0
H317 H 0.56297 0.32118 0.99951 0.0
loop_
_geom_bond_atom_site_label_1
_geom_bond_atom_site_label_2
_geom_bond_distance
_geom_bond_site_symmetry_2
_ccdc_geom_bond_type
C0 C1 1.443 . S
C0 N4 1.376 . S
C0 C38 1.389 . S
C1 C0 1.443 . S
C1 C2 1.340 . S
C1 H41 0.951 . S
C2 C1 1.340 . S
C2 C3 1.439 . S
C2 H42 0.950 . S
C3 C2 1.439 . S
C3 N4 1.374 . S
C3 C37 1.395 . S
N4 C0 1.376 . S
N4 C3 1.374 . S
N4 Co5 2.008 . S
Co5 N4 2.008 . S
Co5 N6 1.995 . S
Co5 N11 2.008 . S
Co5 N16 1.995 . S
Co5 N21 2.282 . S
Co5 N27 2.282 . S
N6 Co5 1.995 . S
N6 C7 1.376 . S
N6 C10 1.383 . S
C7 N6 1.376 . S
C7 C8 1.446 . S
C7 C37 1.391 . S
C8 C7 1.446 . S
C8 C9 1.339 . S
C8 H43 0.949 . S
C9 C8 1.339 . S
C9 C10 1.439 . S
C9 H44 0.950 . S
C10 N6 1.383 . S
C10 C9 1.439 . S
C10 C39 1.392 1_554 S
N11 Co5 2.008 . S
N11 C12 1.376 1_554 S
N11 C15 1.374 1_554 S
C12 N11 1.376 1_556 S
C12 C13 1.443 . S
C12 C39 1.389 . S
C13 C12 1.443 . S
C13 C14 1.340 . S
C13 H45 0.951 . S
C14 C13 1.340 . S
C14 C15 1.439 . S
C14 H46 0.950 . S
C15 N11 1.374 1_556 S
C15 C14 1.439 . S
C15 C40 1.395 1_556 S
N16 Co5 1.995 . S
N16 C17 1.376 . S
N16 C20 1.383 . S
C17 N16 1.376 . S
C17 C18 1.446 . S
C17 C40 1.391 . S
C18 C17 1.446 . S
C18 C19 1.339 . S
C18 H47 0.949 . S
C19 C18 1.339 . S
C19 C20 1.439 . S
C19 H48 0.950 . S
C20 N16 1.383 . S
C20 C19 1.439 . S
C20 C38 1.392 . S
N21 Co5 2.282 . S
N21 C24 1.332 . S
N21 C26 1.332 . S
C22 C23 1.386 . S
C22 C25 1.388 . S
C23 C22 1.386 . S
C23 C24 1.382 . S
C23 H49 0.950 . S
C24 N21 1.332 . S
C24 C23 1.382 . S
C24 H35 0.952 . S
C25 C22 1.388 . S
C25 C26 1.382 . S
C25 H50 0.950 1_455 S
C26 N21 1.332 . S
C26 C25 1.382 . S
C26 H36 0.948 . S
N27 Co5 2.282 . S
N27 C31 1.332 . S
N27 C32 1.332 1_554 S
C28 C29 1.388 . S
C28 C32 1.382 . S
C28 H51 0.950 . S
C29 C28 1.388 . S
C29 C30 1.386 . S
C30 C29 1.386 . S
C30 C31 1.382 1_556 S
C30 H52 0.950 . S
C31 N27 1.332 . S
C31 C30 1.382 1_554 S
C31 H33 0.952 . S
C32 N27 1.332 1_556 S
C32 C28 1.382 . S
C32 H34 0.948 . S
H33 C31 0.952 . S
H34 C32 0.948 . S
H35 C24 0.952 . S
H36 C26 0.948 . S
C37 C3 1.395 . S
C37 C7 1.391 . S
C38 C0 1.389 . S
C38 C20 1.392 . S
C39 C10 1.392 1_556 S
C39 C12 1.389 . S
C40 C15 1.395 1_554 S
C40 C17 1.391 . S
H41 C1 0.951 . S
H42 C2 0.950 . S
H43 C8 0.949 . S
H44 C9 0.950 . S
H45 C13 0.951 . S
H46 C14 0.950 . S
H47 C18 0.949 . S
H48 C19 0.950 . S
H49 C23 0.950 . S
H50 C25 0.950 1_655 S
H51 C28 0.950 . S
H52 C30 0.950 . S
C53 C54 1.443 . S
C53 N57 1.376 . S
C53 C91 1.389 . S
C54 C53 1.443 . S
C54 C55 1.340 . S
C54 H94 0.951 . S
C55 C54 1.340 . S
C55 C56 1.439 . S
C55 H95 0.950 . S
C56 C55 1.439 . S
C56 N57 1.374 . S
C56 C90 1.395 . S
N57 C53 1.376 . S
N57 C56 1.374 . S
N57 Co58 2.008 . S
Co58 N57 2.008 . S
Co58 N59 1.995 . S
Co58 N64 2.008 . S
Co58 N69 1.995 . S
Co58 N74 2.282 . S
Co58 N80 2.282 . S
N59 Co58 1.995 . S
N59 C60 1.376 . S
N59 C63 1.383 . S
C60 N59 1.376 . S
C60 C61 1.446 . S
C60 C90 1.391 . S
C61 C60 1.446 . S
C61 C62 1.339 . S
C61 H96 0.949 . S
C62 C61 1.339 . S
C62 C63 1.439 . S
C62 H97 0.950 . S
C63 N59 1.383 . S
C63 C62 1.439 . S
C63 C92 1.392 . S
N64 Co58 2.008 . S
N64 C65 1.376 . S
N64 C68 1.374 . S
C65 N64 1.376 . S
C65 C66 1.443 . S
C65 C92 1.389 . S
C66 C65 1.443 . S
C66 C67 1.340 . S
C66 H98 0.951 . S
C67 C66 1.340 . S
C67 C68 1.439 . S
C67 H99 0.950 . S
C68 N64 1.374 . S
C68 C67 1.439 . S
C68 C93 1.395 . S
N69 Co58 1.995 . S
N69 C70 1.376 . S
N69 C73 1.383 . S
C70 N69 1.376 . S
C70 C71 1.446 . S
C70 C93 1.391 . S
C71 C70 1.446 . S
C71 C72 1.339 . S
C71 H100 0.949 . S
C72 C71 1.339 . S
C72 C73 1.439 . S
C72 H101 0.950 . S
C73 N69 1.383 . S
C73 C72 1.439 . S
C73 C91 1.392 . S
N74 Co58 2.282 . S
N74 C77 1.332 . S
N74 C79 1.332 . S
C75 C76 1.386 . S
C75 C78 1.388 . S
C76 C75 1.386 . S
C76 C77 1.382 . S
C76 H102 0.950 . S
C77 N74 1.332 . S
C77 C76 1.382 . S
C77 H88 0.952 . S
C78 C75 1.388 . S
C78 C79 1.382 . S
C78 H103 0.950 1_545 S
C79 N74 1.332 . S
C79 C78 1.382 . S
C79 H89 0.948 . S
N80 Co58 2.282 . S
N80 C84 1.332 . S
N80 C85 1.332 . S
C81 C82 1.388 . S
C81 C85 1.382 . S
C81 H104 0.950 . S
C82 C81 1.388 . S
C82 C83 1.386 . S
C83 C82 1.386 . S
C83 C84 1.382 . S
C83 H105 0.950 . S
C84 N80 1.332 . S
C84 C83 1.382 . S
C84 H86 0.952 . S
C85 N80 1.332 . S
C85 C81 1.382 . S
C85 H87 0.948 . S
H86 C84 0.952 . S
H87 C85 0.948 . S
H88 C77 0.952 . S
H89 C79 0.948 . S
C90 C56 1.395 . S
C90 C60 1.391 . S
C91 C53 1.389 . S
C91 C73 1.392 . S
C92 C63 1.392 . S
C92 C65 1.389 . S
C93 C68 1.395 . S
C93 C70 1.391 . S
H94 C54 0.951 . S
H95 C55 0.950 . S
H96 C61 0.949 . S
H97 C62 0.950 . S
H98 C66 0.951 . S
H99 C67 0.950 . S
H100 C71 0.949 . S
H101 C72 0.950 . S
H102 C76 0.950 . S
H103 C78 0.950 1_565 S
H104 C81 0.950 . S
H105 C83 0.950 . S
C106 C107 1.443 . S
C106 N110 1.376 . S
C106 C144 1.389 . S
C107 C106 1.443 . S
C107 C108 1.340 . S
C107 H147 0.951 . S
C108 C107 1.340 . S
C108 C109 1.439 . S
C108 H148 0.950 . S
C109 C108 1.439 . S
C109 N110 1.374 . S
C109 C143 1.395 . S
N110 C106 1.376 . S
N110 C109 1.374 . S
N110 Co111 2.008 . S
Co111 N110 2.008 . S
Co111 N112 1.995 . S
Co111 N117 2.008 . S
Co111 N122 1.995 . S
Co111 N127 2.282 . S
Co111 N133 2.282 . S
N112 Co111 1.995 . S
N112 C113 1.376 . S
N112 C116 1.383 . S
C113 N112 1.376 . S
C113 C114 1.446 . S
C113 C143 1.391 . S
C114 C113 1.446 . S
C114 C115 1.339 . S
C114 H149 0.949 . S
C115 C114 1.339 . S
C115 C116 1.439 . S
C115 H150 0.950 . S
C116 N112 1.383 . S
C116 C115 1.439 . S
C116 C145 1.392 . S
N117 Co111 2.008 . S
N117 C118 1.376 . S
N117 C121 1.374 . S
C118 N117 1.376 . S
C118 C119 1.443 . S
C118 C145 1.389 . S
C119 C118 1.443 . S
C119 C120 1.340 . S
C119 H151 0.951 . S
C120 C119 1.340 . S
C120 C121 1.439 . S
C120 H152 0.950 . S
C121 N117 1.374 . S
C121 C120 1.439 . S
C121 C146 1.395 . S
N122 Co111 1.995 . S
N122 C123 1.376 . S
N122 C126 1.383 . S
C123 N122 1.376 . S
C123 C124 1.446 . S
C123 C146 1.391 . S
C124 C123 1.446 . S
C124 C125 1.339 . S
C124 H153 0.949 . S
C125 C124 1.339 . S
C125 C126 1.439 . S
C125 H154 0.950 . S
C126 N122 1.383 . S
C126 C125 1.439 . S
C126 C144 1.392 . S
N127 Co111 2.282 . S
N127 C130 1.332 . S
N127 C132 1.332 . S
C128 C129 1.386 . S
C128 C131 1.388 . S
C129 C128 1.386 . S
C129 C130 1.382 . S
C129 H155 0.950 . S
C130 N127 1.332 . S
C130 C129 1.382 . S
C130 H141 0.952 . S
C131 C128 1.388 . S
C131 C132 1.382 . S
C131 H156 0.950 . S
C132 N127 1.332 . S
C132 C131 1.382 . S
C132 H142 0.948 . S
N133 Co111 2.282 . S
N133 C137 1.332 . S
N133 C138 1.332 . S
C134 C135 1.388 . S
C134 C138 1.382 . S
C134 H157 0.950 . S
C135 C134 1.388 . S
C135 C136 1.386 . S
C136 C135 1.386 . S
C136 C137 1.382 . S
C136 H158 0.950 . S
C137 N133 1.332 . S
C137 C136 1.382 . S
C137 H139 0.952 . S
C138 N133 1.332 . S
C138 C134 1.382 . S
C138 H140 0.948 . S
H139 C137 0.952 . S
H140 C138 0.948 . S
H141 C130 0.952 . S
H142 C132 0.948 . S
C143 C109 1.395 . S
C143 C113 1.391 . S
C144 C106 1.389 . S
C144 C126 1.392 . S
C145 C116 1.392 . S
C145 C118 1.389 . S
C146 C121 1.395 . S
C146 C123 1.391 . S
H147 C107 0.951 . S
H148 C108 0.950 . S
H149 C114 0.949 . S
H150 C115 0.950 . S
H151 C119 0.951 . S
H152 C120 0.950 . S
H153 C124 0.949 . S
H154 C125 0.950 . S
H155 C129 0.950 . S
H156 C131 0.950 . S
H157 C134 0.950 . S
H158 C136 0.950 . S
C159 C160 1.443 . S
C159 N163 1.376 . S
C159 C197 1.389 . S
C160 C159 1.443 . S
C160 C161 1.340 . S
C160 H200 0.951 . S
C161 C160 1.340 . S
C161 C162 1.439 . S
C161 H201 0.950 . S
C162 C161 1.439 . S
C162 N163 1.374 . S
C162 C196 1.395 . S
N163 C159 1.376 . S
N163 C162 1.374 . S
N163 Co164 2.008 . S
Co164 N163 2.008 . S
Co164 N165 1.995 . S
Co164 N170 2.008 . S
Co164 N175 1.995 . S
Co164 N180 2.282 . S
Co164 N186 2.282 . S
N165 Co164 1.995 . S
N165 C166 1.376 . S
N165 C169 1.383 . S
C166 N165 1.376 . S
C166 C167 1.446 . S
C166 C196 1.391 . S
C167 C166 1.446 . S
C167 C168 1.339 . S
C167 H202 0.949 . S
C168 C167 1.339 . S
C168 C169 1.439 . S
C168 H203 0.950 . S
C169 N165 1.383 . S
C169 C168 1.439 . S
C169 C198 1.392 . S
N170 Co164 2.008 . S
N170 C171 1.376 . S
N170 C174 1.374 . S
C171 N170 1.376 . S
C171 C172 1.443 . S
C171 C198 1.389 . S
C172 C171 1.443 . S
C172 C173 1.340 . S
C172 H204 0.951 . S
C173 C172 1.340 . S
C173 C174 1.439 . S
C173 H205 0.950 . S
C174 N170 1.374 . S
C174 C173 1.439 . S
C174 C199 1.395 . S
N175 Co164 1.995 . S
N175 C176 1.376 . S
N175 C179 1.383 . S
C176 N175 1.376 . S
C176 C177 1.446 . S
C176 C199 1.391 . S
C177 C176 1.446 . S
C177 C178 1.339 . S
C177 H206 0.949 . S
C178 C177 1.339 . S
C178 C179 1.439 . S
C178 H207 0.950 . S
C179 N175 1.383 . S
C179 C178 1.439 . S
C179 C197 1.392 . S
N180 Co164 2.282 . S
N180 C183 1.332 . S
N180 C185 1.332 . S
C181 C182 1.386 . S
C181 C184 1.388 . S
C182 C181 1.386 . S
C182 C183 1.382 . S
C182 H208 0.950 . S
C183 N180 1.332 . S
C183 C182 1.382 . S
C183 H194 0.952 . S
C184 C181 1.388 . S
C184 C185 1.382 . S
C184 H209 0.950 1_655 S
C185 N180 1.332 . S
C185 C184 1.382 . S
C185 H195 0.948 . S
N186 Co164 2.282 . S
N186 C190 1.332 . S
N186 C191 1.332 . S
C187 C188 1.388 . S
C187 C191 1.382 . S
C187 H210 0.950 . S
C188 C187 1.388 . S
C188 C189 1.386 . S
C189 C188 1.386 . S
C189 C190 1.382 . S
C189 H211 0.950 . S
C190 N186 1.332 . S
C190 C189 1.382 . S
C190 H192 0.952 . S
C191 N186 1.332 . S
C191 C187 1.382 . S
C191 H193 0.948 . S
H192 C190 0.952 . S
H193 C191 0.948 . S
H194 C183 0.952 . S
H195 C185 0.948 . S
C196 C162 1.395 . S
C196 C166 1.391 . S
C197 C159 1.389 . S
C197 C179 1.392 . S
C198 C169 1.392 . S
C198 C171 1.389 . S
C199 C174 1.395 . S
C199 C176 1.391 . S
H200 C160 0.951 . S
H201 C161 0.950 . S
H202 C167 0.949 . S
H203 C168 0.950 . S
H204 C172 0.951 . S
H205 C173 0.950 . S
H206 C177 0.949 . S
H207 C178 0.950 . S
H208 C182 0.950 . S
H209 C184 0.950 1_455 S
H210 C187 0.950 . S
H211 C189 0.950 . S
C212 C213 1.443 . S
C212 N216 1.376 . S
C212 C250 1.389 . S
C213 C212 1.443 . S
C213 C214 1.340 . S
C213 H253 0.951 1_556 S
C214 C213 1.340 . S
C214 C215 1.439 . S
C214 H254 0.950 . S
C215 C214 1.439 . S
C215 N216 1.374 . S
C215 C249 1.395 . S
N216 C212 1.376 . S
N216 C215 1.374 . S
N216 Co217 2.008 . S
Co217 N216 2.008 . S
Co217 N218 1.995 . S
Co217 N223 2.008 . S
Co217 N228 1.995 . S
Co217 N233 2.282 . S
Co217 N239 2.282 . S
N218 Co217 1.995 . S
N218 C219 1.376 . S
N218 C222 1.383 . S
C219 N218 1.376 . S
C219 C220 1.446 . S
C219 C249 1.391 . S
C220 C219 1.446 . S
C220 C221 1.339 . S
C220 H255 0.949 . S
C221 C220 1.339 . S
C221 C222 1.439 . S
C221 H256 0.950 . S
C222 N218 1.383 . S
C222 C221 1.439 . S
C222 C251 1.392 . S
N223 Co217 2.008 . S
N223 C224 1.376 . S
N223 C227 1.374 . S
C224 N223 1.376 . S
C224 C225 1.443 . S
C224 C251 1.389 . S
C225 C224 1.443 . S
C225 C226 1.340 . S
C225 H257 0.951 . S
C226 C225 1.340 . S
C226 C227 1.439 . S
C226 H258 0.950 . S
C227 N223 1.374 . S
C227 C226 1.439 . S
C227 C252 1.395 . S
N228 Co217 1.995 . S
N228 C229 1.376 . S
N228 C232 1.383 . S
C229 N228 1.376 . S
C229 C230 1.446 . S
C229 C252 1.391 . S
C230 C229 1.446 . S
C230 C231 1.339 . S
C230 H259 0.949 . S
C231 C230 1.339 . S
C231 C232 1.439 . S
C231 H260 0.950 . S
C232 N228 1.383 . S
C232 C231 1.439 . S
C232 C250 1.392 . S
N233 Co217 2.282 . S
N233 C236 1.332 . S
N233 C238 1.332 . S
C234 C235 1.386 1_554 S
C234 C237 1.388 . S
C235 C234 1.386 1_556 S
C235 C236 1.382 . S
C235 H261 0.950 . S
C236 N233 1.332 . S
C236 C235 1.382 . S
C236 H247 0.952 . S
C237 C234 1.388 . S
C237 C238 1.382 1_554 S
C237 H262 0.950 1_565 S
C238 N233 1.332 . S
C238 C237 1.382 1_556 S
C238 H248 0.948 . S
N239 Co217 2.282 . S
N239 C243 1.332 . S
N239 C244 1.332 . S
C240 C241 1.388 . S
C240 C244 1.382 . S
C240 H263 0.950 . S
C241 C240 1.388 . S
C241 C242 1.386 . S
C242 C241 1.386 . S
C242 C243 1.382 . S
C242 H264 0.950 . S
C243 N239 1.332 . S
C243 C242 1.382 . S
C243 H245 0.952 . S
C244 N239 1.332 . S
C244 C240 1.382 . S
C244 H246 0.948 . S
H245 C243 0.952 . S
H246 C244 0.948 . S
H247 C236 0.952 . S
H248 C238 0.948 . S
C249 C215 1.395 . S
C249 C219 1.391 . S
C250 C212 1.389 . S
C250 C232 1.392 . S
C251 C222 1.392 . S
C251 C224 1.389 . S
C252 C227 1.395 . S
C252 C229 1.391 . S
H253 C213 0.951 1_554 S
H254 C214 0.950 . S
H255 C220 0.949 . S
H256 C221 0.950 . S
H257 C225 0.951 . S
H258 C226 0.950 . S
H259 C230 0.949 . S
H260 C231 0.950 . S
H261 C235 0.950 . S
H262 C237 0.950 1_545 S
H263 C240 0.950 . S
H264 C242 0.950 . S
C265 C266 1.443 . S
C265 N269 1.376 . S
C265 C303 1.389 . S
C266 C265 1.443 . S
C266 C267 1.340 . S
C266 H306 0.951 . S
C267 C266 1.340 . S
C267 C268 1.439 . S
C267 H307 0.950 . S
C268 C267 1.439 . S
C268 N269 1.374 . S
C268 C302 1.395 . S
N269 C265 1.376 . S
N269 C268 1.374 . S
N269 Co270 2.008 . S
Co270 N269 2.008 . S
Co270 N271 1.995 . S
Co270 N276 2.008 . S
Co270 N281 1.995 . S
Co270 N286 2.282 . S
Co270 N292 2.282 . S
N271 Co270 1.995 . S
N271 C272 1.376 . S
N271 C275 1.383 . S
C272 N271 1.376 . S
C272 C273 1.446 . S
C272 C302 1.391 . S
C273 C272 1.446 . S
C273 C274 1.339 . S
C273 H308 0.949 . S
C274 C273 1.339 . S
C274 C275 1.439 . S
C274 H309 0.950 . S
C275 N271 1.383 . S
C275 C274 1.439 . S
C275 C304 1.392 . S
N276 Co270 2.008 . S
N276 C277 1.376 . S
N276 C280 1.374 . S
C277 N276 1.376 . S
C277 C278 1.443 1_556 S
C277 C304 1.389 . S
C278 C277 1.443 1_554 S
C278 C279 1.340 . S
C278 H310 0.951 . S
C279 C278 1.340 . S
C279 C280 1.439 1_554 S
C279 H311 0.950 . S
C280 N276 1.374 . S
C280 C279 1.439 1_556 S
C280 C305 1.395 . S
N281 Co270 1.995 . S
N281 C282 1.376 . S
N281 C285 1.383 . S
C282 N281 1.376 . S
C282 C283 1.446 . S
C282 C305 1.391 . S
C283 C282 1.446 . S
C283 C284 1.339 . S
C283 H312 0.949 . S
C284 C283 1.339 . S
C284 C285 1.439 . S
C284 H313 0.950 . S
C285 N281 1.383 . S
C285 C284 1.439 . S
C285 C303 1.392 . S
N286 Co270 2.282 . S
N286 C289 1.332 . S
N286 C291 1.332 . S
C287 C288 1.386 . S
C287 C290 1.388 . S
C288 C287 1.386 . S
C288 C289 1.382 . S
C288 H314 0.950 . S
C289 N286 1.332 . S
C289 C288 1.382 . S
C289 H300 0.952 . S
C290 C287 1.388 . S
C290 C291 1.382 . S
C290 H315 0.950 . S
C291 N286 1.332 . S
C291 C290 1.382 . S
C291 H301 0.948 . S
N292 Co270 2.282 . S
N292 C296 1.332 . S
N292 C297 1.332 1_556 S
C293 C294 1.388 . S
C293 C297 1.382 . S
C293 H316 0.950 . S
C294 C293 1.388 . S
C294 C295 1.386 . S
C295 C294 1.386 . S
C295 C296 1.382 1_554 S
C295 H317 0.950 . S
C296 N292 1.332 . S
C296 C295 1.382 1_556 S
C296 H298 0.952 . S
C297 N292 1.332 1_554 S
C297 C293 1.382 . S
C297 H299 0.948 1_554 S
H298 C296 0.952 . S
H299 C297 0.948 1_556 S
H300 C289 0.952 . S
H301 C291 0.948 . S
C302 C268 1.395 . S
C302 C272 1.391 . S
C303 C265 1.389 . S
C303 C285 1.392 . S
C304 C275 1.392 . S
C304 C277 1.389 . S
C305 C280 1.395 . S
C305 C282 1.391 . S
H306 C266 0.951 . S
H307 C267 0.950 . S
H308 C273 0.949 . S
H309 C274 0.950 . S
H310 C278 0.951 . S
H311 C279 0.950 . S
H312 C283 0.949 . S
H313 C284 0.950 . S
H314 C288 0.950 . S
H315 C290 0.950 . S
H316 C293 0.950 . S
H317 C295 0.950 . S
C39 C181 2.212 1_455 S
C234 C92 1.956 1_565 S
C128 C304 2.055 1_554 S
C198 C22 2.212 1_655 S
C75 C251 1.956 1_545 S
C287 C145 2.055 . S
C38 C144 2.734 . S
C91 C188 2.440 . S
C241 C135 1.906 . S
C303 C197 2.734 . S
C250 C29 2.440 . S
C294 C82 1.906 . S
