# Generated by pormake.
# Topology wke, (5)-cn, num edge types: 1
# Building blocks:
#     Node 0, Type 0, BuildingBlock: BEQFEK_clean_sbu_0, # of connection points: 5
#     Node 1, Type 0, BuildingBlock: BEQFEK_clean_sbu_0, # of connection points: 5
#     Node 2, Type 0, BuildingBlock: BEQFEK_clean_sbu_0, # of connection points: 5
#     Node 3, Type 0, BuildingBlock: BEQFEK_clean_sbu_0, # of connection points: 5
#     Node 4, Type 0, BuildingBlock: BEQFEK_clean_sbu_0, # of connection points: 5
#     Node 5, Type 0, BuildingBlock: BEQFEK_clean_sbu_0, # of connection points: 5
#     Node 6, Type 0, BuildingBlock: BEQFEK_clean_sbu_0, # of connection points: 5
#     Node 7, Type 0, BuildingBlock: BEQFEK_clean_sbu_0, # of connection points: 5
#     Node 8, Type 0, BuildingBlock: BEQFEK_clean_sbu_0, # of connection points: 5
#     Node 9, Type 0, BuildingBlock: BEQFEK_clean_sbu_0, # of connection points: 5
#     Node 10, Type 0, BuildingBlock: BEQFEK_clean_sbu_0, # of connection points: 5
#     Node 11, Type 0, BuildingBlock: BEQFEK_clean_sbu_0, # of connection points: 5
#     Edge 12, Type (0, 0), BuildingBlock: KIFKEQ_clean_linker_1, # of connection points: 2
#     Edge 13, Type (0, 0), BuildingBlock: KIFKEQ_clean_linker_1, # of connection points: 2
#     Edge 14, Type (0, 0), BuildingBlock: KIFKEQ_clean_linker_1, # of connection points: 2
#     Edge 15, Type (0, 0), BuildingBlock: KIFKEQ_clean_linker_1, # of connection points: 2
#     Edge 16, Type (0, 0), BuildingBlock: KIFKEQ_clean_linker_1, # of connection points: 2
#     Edge 17, Type (0, 0), BuildingBlock: KIFKEQ_clean_linker_1, # of connection points: 2
#     Edge 18, Type (0, 0), BuildingBlock: KIFKEQ_clean_linker_1, # of connection points: 2
#     Edge 19, Type (0, 0), BuildingBlock: KIFKEQ_clean_linker_1, # of connection points: 2
#     Edge 20, Type (0, 0), BuildingBlock: KIFKEQ_clean_linker_1, # of connection points: 2
#     Edge 21, Type (0, 0), BuildingBlock: KIFKEQ_clean_linker_1, # of connection points: 2
#     Edge 22, Type (0, 0), BuildingBlock: KIFKEQ_clean_linker_1, # of connection points: 2
#     Edge 23, Type (0, 0), BuildingBlock: KIFKEQ_clean_linker_1, # of connection points: 2
#     Edge 24, Type (0, 0), BuildingBlock: KIFKEQ_clean_linker_1, # of connection points: 2
#     Edge 25, Type (0, 0), BuildingBlock: KIFKEQ_clean_linker_1, # of connection points: 2
#     Edge 26, Type (0, 0), BuildingBlock: KIFKEQ_clean_linker_1, # of connection points: 2
#     Edge 27, Type (0, 0), BuildingBlock: KIFKEQ_clean_linker_1, # of connection points: 2
#     Edge 28, Type (0, 0), BuildingBlock: KIFKEQ_clean_linker_1, # of connection points: 2
#     Edge 29, Type (0, 0), BuildingBlock: KIFKEQ_clean_linker_1, # of connection points: 2
#     Edge 30, Type (0, 0), BuildingBlock: KIFKEQ_clean_linker_1, # of connection points: 2
#     Edge 31, Type (0, 0), BuildingBlock: KIFKEQ_clean_linker_1, # of connection points: 2
#     Edge 32, Type (0, 0), BuildingBlock: KIFKEQ_clean_linker_1, # of connection points: 2
#     Edge 33, Type (0, 0), BuildingBlock: KIFKEQ_clean_linker_1, # of connection points: 2
#     Edge 34, Type (0, 0), BuildingBlock: KIFKEQ_clean_linker_1, # of connection points: 2
#     Edge 35, Type (0, 0), BuildingBlock: KIFKEQ_clean_linker_1, # of connection points: 2
#     Edge 36, Type (0, 0), BuildingBlock: KIFKEQ_clean_linker_1, # of connection points: 2
#     Edge 37, Type (0, 0), BuildingBlock: KIFKEQ_clean_linker_1, # of connection points: 2
#     Edge 38, Type (0, 0), BuildingBlock: KIFKEQ_clean_linker_1, # of connection points: 2
#     Edge 39, Type (0, 0), BuildingBlock: KIFKEQ_clean_linker_1, # of connection points: 2
#     Edge 40, Type (0, 0), BuildingBlock: KIFKEQ_clean_linker_1, # of connection points: 2
#     Edge 41, Type (0, 0), BuildingBlock: KIFKEQ_clean_linker_1, # of connection points: 2
# Relax obj value: 0.218
# Max RMSD: 0.177
# Mean RMSD: 0.177
data_MOF--net-wke--node1-BEQFEK_clean_sbu_0--edge1-KIFKEQ_clean_linker_1
_symmetry_space_group_name_H-M    P1
_symmetry_Int_Tables_number       1
_symmetry_cell_setting            triclinic
loop_
_symmetry_equiv_pos_as_xyz
'x, y, z'
_cell_length_a     73.174835
_cell_length_b     73.198351
_cell_length_c     18.967046
_cell_angle_alpha  89.977047
_cell_angle_beta   89.99907
_cell_angle_gamma 120.03043
loop_
_atom_site_label
_atom_site_type_symbol
_atom_site_fract_x
_atom_site_fract_y
_atom_site_fract_z
_atom_type_partial_charge
Co0 Co 0.10553 0.44955 0.26954 0.0
Co1 Co 0.12222 0.46554 0.4196 0.0
C2 C 0.07676 0.43126 0.38913 0.0
O3 O 0.07948 0.43036 0.32315 0.0
O4 O 0.09179 0.44429 0.42816 0.0
C5 C 0.09383 0.42757 0.13002 0.0
O6 O 0.08403 0.40875 0.15907 0.0
C7 C 0.12626 0.45535 0.56226 0.0
C8 C 0.14628 0.48635 0.61234 0.0
C9 C 0.13453 0.46488 0.62646 0.0
N10 N 0.13249 0.47042 0.51292 0.0
N11 N 0.14466 0.48894 0.54274 0.0
C12 C 0.11336 0.43224 0.54656 0.0
H13 H 0.1162 0.42907 0.4916 0.0
H14 H 0.11724 0.42297 0.58384 0.0
H15 H 0.09637 0.42707 0.55181 0.0
C16 C 0.14316 0.4438 0.26773 0.0
N17 N 0.12965 0.44842 0.30084 0.0
N18 N 0.13689 0.45552 0.36435 0.0
C19 C 0.1552 0.45563 0.37395 0.0
C20 C 0.15978 0.44815 0.31303 0.0
C21 C 0.14151 0.43787 0.1915 0.0
H22 H 0.1273 0.42216 0.18369 0.0
H23 H 0.15558 0.43735 0.17274 0.0
H24 H 0.13978 0.44955 0.15924 0.0
O25 O 0.11114 0.47899 0.27487 0.0
O26 O 0.12525 0.49192 0.3793 0.0
H27 H 0.18273 0.46213 0.43617 0.0
H28 H 0.1587 0.45345 0.48491 0.0
C29 C 0.16817 0.4632 0.43976 0.0
H30 H 0.17237 0.47976 0.45029 0.0
H31 H 0.15125 0.50334 0.51614 0.0
O32 O 0.10209 0.44394 0.16843 0.0
C33 C 0.11922 0.49421 0.3186 0.0
Co34 Co 0.65845 0.1036 0.7631 0.0
Co35 Co 0.6601 0.11978 0.91678 0.0
C36 C 0.64879 0.07478 0.88505 0.0
O37 O 0.65131 0.07774 0.81874 0.0
O38 O 0.65145 0.08956 0.92646 0.0
C39 C 0.67254 0.0938 0.62982 0.0
O40 O 0.68724 0.09239 0.66498 0.0
C41 C 0.67408 0.12611 0.06351 0.0
C42 C 0.66014 0.14453 0.10541 0.0
C43 C 0.6709 0.13424 0.1257 0.0
N44 N 0.66531 0.13109 0.00996 0.0
N45 N 0.65738 0.14248 0.03513 0.0
C46 C 0.68406 0.11269 0.05499 0.0
H47 H 0.67662 0.099 0.0914 0.0
H48 H 0.68294 0.10728 -8e-05 0.0
H49 H 0.7011 0.12216 0.06772 0.0
C50 C 0.70129 0.1426 0.75969 0.0
N51 N 0.68374 0.12816 0.79381 0.0
N52 N 0.68447 0.13453 0.85923 0.0
C53 C 0.70262 0.15288 0.86914 0.0
C54 C 0.71392 0.15854 0.80647 0.0
C55 C 0.70452 0.14306 0.68162 0.0
H56 H 0.68923 0.13677 0.65386 0.0
H57 H 0.71175 0.13332 0.6685 0.0
H58 H 0.71527 0.15935 0.66263 0.0
O59 O 0.63483 0.10926 0.76891 0.0
O60 O 0.6361 0.12197 0.87605 0.0
H61 H 0.69675 0.1697 0.94985 0.0
H62 H 0.72452 0.17926 0.934 0.0
C63 C 0.70862 0.16501 0.93682 0.0
H64 H 0.7086 0.15476 0.97984 0.0
H65 H 0.6491 0.14786 0.00497 0.0
O66 O 0.65984 0.09794 0.66211 0.0
C67 C 0.62771 0.1167 0.81507 0.0
Co68 Co 0.55804 0.65722 0.25972 0.0
Co69 Co 0.54193 0.658 0.41018 0.0
C70 C 0.57659 0.6472 0.37998 0.0
O71 O 0.57668 0.64976 0.31347 0.0
O72 O 0.56413 0.6499 0.4199 0.0
C73 C 0.57941 0.66621 0.1181 0.0
O74 O 0.59829 0.67333 0.14525 0.0
C75 C 0.5512 0.67416 0.55171 0.0
C76 C 0.51995 0.65859 0.60317 0.0
C77 C 0.54137 0.67132 0.61641 0.0
N78 N 0.5364 0.66329 0.50302 0.0
N79 N 0.51768 0.65426 0.53367 0.0
C80 C 0.57423 0.68733 0.5354 0.0
H81 H 0.57652 0.69308 0.48018 0.0
H82 H 0.58197 0.70089 0.57226 0.0
H83 H 0.58183 0.67762 0.54108 0.0
C84 C 0.56476 0.70085 0.2591 0.0
N85 N 0.55946 0.68252 0.29191 0.0
N86 N 0.55133 0.68235 0.3538 0.0
C87 C 0.55065 0.7003 0.36181 0.0
C88 C 0.55919 0.71272 0.30192 0.0
C89 C 0.57528 0.70694 0.18855 0.0
H90 H 0.5881 0.70308 0.18651 0.0
H91 H 0.58217 0.72405 0.17815 0.0
H92 H 0.5636 0.69781 0.14686 0.0
O93 O 0.52849 0.63348 0.26461 0.0
O94 O 0.5159 0.63419 0.37012 0.0
H95 H 0.53462 0.71556 0.40747 0.0
H96 H 0.55113 0.71094 0.46695 0.0
C97 C 0.53993 0.7043 0.42217 0.0
H98 H 0.52608 0.68929 0.43962 0.0
H99 H 0.50349 0.64439 0.50784 0.0
O100 O 0.56344 0.65969 0.15807 0.0
C101 C 0.51343 0.62609 0.30902 0.0
Co102 Co 0.90371 0.5575 0.76264 0.0
Co103 Co 0.88692 0.54182 0.9148 0.0
C104 C 0.93228 0.57548 0.8848 0.0
O105 O 0.92942 0.57643 0.81894 0.0
O106 O 0.91735 0.56246 0.92408 0.0
C107 C 0.91374 0.58134 0.62864 0.0
O108 O 0.91533 0.59764 0.66308 0.0
C109 C 0.8816 0.54995 0.06175 0.0
C110 C 0.86259 0.51777 0.10474 0.0
C111 C 0.8735 0.53888 0.1244 0.0
N112 N 0.87598 0.536 0.00852 0.0
N113 N 0.86427 0.51681 0.03436 0.0
C114 C 0.8956 0.57326 0.05238 0.0
H115 H 0.90071 0.57731 -0.00305 0.0
H116 H 0.8867 0.58137 0.06583 0.0
H117 H 0.90952 0.57922 0.08768 0.0
C118 C 0.86482 0.56152 0.75951 0.0
N119 N 0.87911 0.55812 0.79323 0.0
N120 N 0.87263 0.55221 0.85842 0.0
C121 C 0.85437 0.55216 0.86869 0.0
C122 C 0.84883 0.55812 0.80638 0.0
C123 C 0.86453 0.56465 0.68158 0.0
H124 H 0.87075 0.55566 0.65336 0.0
H125 H 0.87444 0.58166 0.66922 0.0
H126 H 0.8483 0.55931 0.66239 0.0
O127 O 0.89803 0.52808 0.76784 0.0
O128 O 0.88393 0.51555 0.87281 0.0
H129 H 0.83704 0.52919 0.94819 0.0
H130 H 0.82839 0.54821 0.93469 0.0
C131 C 0.84227 0.54595 0.93647 0.0
H132 H 0.85273 0.55571 0.97987 0.0
H133 H 0.85839 0.50303 0.00453 0.0
O134 O 0.90943 0.56455 0.66161 0.0
C135 C 0.88987 0.51302 0.81222 0.0
Co136 Co 0.34993 0.90234 0.26069 0.0
Co137 Co 0.3489 0.88617 0.41383 0.0
C138 C 0.36103 0.93151 0.38107 0.0
O139 O 0.35713 0.92846 0.31532 0.0
O140 O 0.35882 0.9166 0.42099 0.0
C141 C 0.33559 0.91189 0.12797 0.0
O142 O 0.32123 0.9136 0.16425 0.0
C143 C 0.33666 0.88395 0.55966 0.0
C144 C 0.34469 0.8614 0.60753 0.0
C145 C 0.33733 0.87509 0.62325 0.0
N146 N 0.34355 0.87619 0.50862 0.0
N147 N 0.34813 0.86251 0.53733 0.0
C148 C 0.3288 0.89903 0.54708 0.0
H149 H 0.32246 0.89714 0.49275 0.0
H150 H 0.31635 0.89639 0.58589 0.0
H151 H 0.342 0.91541 0.5534 0.0
C152 C 0.30681 0.86365 0.25949 0.0
N153 N 0.32462 0.87801 0.29255 0.0
N154 N 0.32411 0.8718 0.35808 0.0
C155 C 0.30579 0.85371 0.36929 0.0
C156 C 0.29419 0.84797 0.30722 0.0
C157 C 0.30333 0.86293 0.18151 0.0
H158 H 0.31852 0.86905 0.15319 0.0
H159 H 0.29613 0.87269 0.16821 0.0
H160 H 0.29247 0.84659 0.16326 0.0
O161 O 0.37349 0.8964 0.26686 0.0
O162 O 0.37203 0.88273 0.37265 0.0
H163 H 0.31092 0.83605 0.44872 0.0
H164 H 0.28346 0.8285 0.43707 0.0
C165 C 0.29989 0.84194 0.43771 0.0
H166 H 0.30138 0.85279 0.4809 0.0
H167 H 0.35424 0.85447 0.50949 0.0
O168 O 0.34835 0.90766 0.15934 0.0
C169 C 0.3804 0.88837 0.31173 0.0
Co170 Co 0.45017 0.3477 0.76753 0.0
Co171 Co 0.46626 0.34715 0.9176 0.0
C172 C 0.43164 0.3578 0.88725 0.0
O173 O 0.43077 0.35421 0.82125 0.0
O174 O 0.44478 0.35597 0.92622 0.0
C175 C 0.42816 0.33722 0.62804 0.0
O176 O 0.40934 0.32792 0.65712 0.0
C177 C 0.45618 0.3329 0.0603 0.0
C178 C 0.48725 0.34425 0.11038 0.0
C179 C 0.46576 0.33433 0.12453 0.0
N180 N 0.47123 0.34184 0.01093 0.0
N181 N 0.4898 0.34843 0.04075 0.0
C182 C 0.43304 0.32242 0.04462 0.0
H183 H 0.42992 0.31643 0.98964 0.0
H184 H 0.4239 0.30923 0.08187 0.0
H185 H 0.42767 0.33407 0.0499 0.0
C186 C 0.4448 0.30447 0.76569 0.0
N187 N 0.44933 0.32258 0.79871 0.0
N188 N 0.45641 0.32249 0.86231 0.0
C189 C 0.45657 0.30433 0.8721 0.0
C190 C 0.44917 0.29225 0.81118 0.0
C191 C 0.4389 0.30014 0.68945 0.0
H192 H 0.45044 0.31365 0.65721 0.0
H193 H 0.42307 0.29836 0.68165 0.0
H194 H 0.43862 0.28566 0.67067 0.0
O195 O 0.47949 0.3718 0.77299 0.0
O196 O 0.49251 0.37071 0.87733 0.0
H197 H 0.48058 0.3113 0.94898 0.0
H198 H 0.46291 0.2833 0.93503 0.0
C199 C 0.46402 0.29894 0.93824 0.0
H200 H 0.45421 0.2987 0.98311 0.0
H201 H 0.50419 0.35638 0.01413 0.0
O202 O 0.44454 0.34552 0.66643 0.0
C203 C 0.49471 0.37906 0.81674 0.0
Co204 Co 0.55829 0.9018 0.23066 0.0
Co205 Co 0.54298 0.88544 0.07744 0.0
C206 C 0.57714 0.93073 0.11018 0.0
O207 O 0.57699 0.92794 0.17655 0.0
O208 O 0.56488 0.91577 0.06936 0.0
C209 C 0.58143 0.91387 0.36689 0.0
O210 O 0.5994 0.92094 0.33316 0.0
C211 C 0.55257 0.88035 0.93312 0.0
C212 C 0.52123 0.86285 0.88319 0.0
C213 C 0.54267 0.87306 0.86884 0.0
N214 N 0.5378 0.87494 0.98329 0.0
N215 N 0.51903 0.86413 0.95333 0.0
C216 C 0.57583 0.89228 0.94642 0.0
H217 H 0.57925 0.89347 0.00375 0.0
H218 H 0.58333 0.88421 0.91974 0.0
H219 H 0.58277 0.90828 0.92332 0.0
C220 C 0.56404 0.86411 0.23096 0.0
N221 N 0.55955 0.87774 0.19808 0.0
N222 N 0.55241 0.87053 0.13445 0.0
C223 C 0.55189 0.85203 0.12506 0.0
C224 C 0.55925 0.84728 0.18599 0.0
C225 C 0.57294 0.86728 0.30387 0.0
H226 H 0.58775 0.88266 0.30615 0.0
H227 H 0.5767 0.85493 0.31917 0.0
H228 H 0.56158 0.86751 0.34209 0.0
O229 O 0.52878 0.89587 0.22413 0.0
O230 O 0.51676 0.88303 0.11754 0.0
H231 H 0.53853 0.82174 0.07221 0.0
H232 H 0.55358 0.84467 0.01722 0.0
C233 C 0.54233 0.83819 0.06192 0.0
H234 H 0.52767 0.83811 0.04652 0.0
H235 H 0.50476 0.85861 0.9801 0.0
O236 O 0.56419 0.90604 0.33293 0.0
C237 C 0.51397 0.88837 0.17879 0.0
Co238 Co 0.65901 0.55702 0.72813 0.0
Co239 Co 0.65976 0.54144 0.57695 0.0
C240 C 0.6492 0.5761 0.60863 0.0
O241 O 0.65164 0.57583 0.67507 0.0
O242 O 0.6519 0.56383 0.56777 0.0
C243 C 0.66842 0.57848 0.86902 0.0
O244 O 0.67596 0.59734 0.84117 0.0
C245 C 0.67588 0.55073 0.43545 0.0
C246 C 0.66061 0.51948 0.38418 0.0
C247 C 0.67324 0.5409 0.3709 0.0
N248 N 0.665 0.53592 0.48412 0.0
N249 N 0.65614 0.5172 0.45361 0.0
C250 C 0.68888 0.57376 0.45168 0.0
H251 H 0.69437 0.57613 0.50722 0.0
H252 H 0.70262 0.58153 0.41547 0.0
H253 H 0.67912 0.58126 0.44483 0.0
C254 C 0.70238 0.563 0.72885 0.0
N255 N 0.68421 0.55823 0.69582 0.0
N256 N 0.68415 0.55062 0.63306 0.0
C257 C 0.70211 0.54997 0.62439 0.0
C258 C 0.71431 0.55782 0.68493 0.0
C259 C 0.70815 0.57235 0.80114 0.0
H260 H 0.70541 0.5859 0.80468 0.0
H261 H 0.72495 0.57798 0.81361 0.0
H262 H 0.69796 0.56035 0.84058 0.0
O263 O 0.63518 0.52764 0.72289 0.0
O264 O 0.63572 0.51537 0.61671 0.0
H265 H 0.69157 0.52567 0.54593 0.0
H266 H 0.71838 0.53541 0.57519 0.0
C267 C 0.70636 0.53992 0.56259 0.0
H268 H 0.71216 0.55123 0.51793 0.0
H269 H 0.64634 0.503 0.47948 0.0
O270 O 0.66148 0.56237 0.82964 0.0
C271 C 0.62765 0.51275 0.67795 0.0
Co272 Co 0.10563 0.65815 0.22669 0.0
Co273 Co 0.12245 0.65895 0.07479 0.0
C274 C 0.07711 0.6475 0.1045 0.0
O275 O 0.07996 0.65141 0.1703 0.0
O276 O 0.09202 0.64927 0.06543 0.0
C277 C 0.09554 0.6719 0.36093 0.0
O278 O 0.09374 0.68652 0.32671 0.0
C279 C 0.1278 0.67237 0.92781 0.0
C280 C 0.14656 0.65895 0.88473 0.0
C281 C 0.13579 0.6693 0.8651 0.0
N282 N 0.13335 0.66397 0.98102 0.0
N283 N 0.14491 0.65633 0.95513 0.0
C284 C 0.11398 0.68187 0.93729 0.0
H285 H 0.10002 0.67399 0.90207 0.0
H286 H 0.1089 0.68083 0.99276 0.0
H287 H 0.123 0.69887 0.92385 0.0
C288 C 0.14447 0.70111 0.22908 0.0
N289 N 0.13026 0.6833 0.19575 0.0
N290 N 0.13682 0.68371 0.13078 0.0
C291 C 0.15508 0.70191 0.12032 0.0
C292 C 0.1605 0.71358 0.18221 0.0
C293 C 0.14459 0.70479 0.30677 0.0
H294 H 0.13853 0.68971 0.33571 0.0
H295 H 0.13445 0.71169 0.31814 0.0
H296 H 0.16074 0.71593 0.32604 0.0
O297 O 0.1112 0.63434 0.22197 0.0
O298 O 0.12533 0.63566 0.1173 0.0
H299 H 0.17224 0.69589 0.04124 0.0
H300 H 0.18136 0.72367 0.05472 0.0
C301 C 0.16729 0.70764 0.05276 0.0
H302 H 0.15699 0.70715 0.00915 0.0
H303 H 0.15071 0.64835 0.98493 0.0
O304 O 0.09998 0.65956 0.32776 0.0
C305 C 0.11932 0.6273 0.17804 0.0
Co306 Co 0.44969 0.10361 0.72643 0.0
Co307 Co 0.46698 0.12163 0.578 0.0
C308 C 0.43241 0.07592 0.60356 0.0
O309 O 0.43113 0.07813 0.66974 0.0
O310 O 0.44568 0.09122 0.56577 0.0
C311 C 0.42835 0.09048 0.86973 0.0
O312 O 0.40897 0.07976 0.84539 0.0
C313 C 0.46036 0.12797 0.4321 0.0
C314 C 0.49294 0.14528 0.39105 0.0
C315 C 0.47194 0.13518 0.3705 0.0
N316 N 0.47386 0.1333 0.48632 0.0
N317 N 0.49333 0.14416 0.4618 0.0
C318 C 0.43702 0.11358 0.43855 0.0
H319 H 0.43272 0.09781 0.4173 0.0
H320 H 0.43197 0.11208 0.49441 0.0
H321 H 0.42852 0.11979 0.40725 0.0
C322 C 0.44347 0.1408 0.72933 0.0
N323 N 0.44867 0.1278 0.69588 0.0
N324 N 0.45638 0.1357 0.63345 0.0
C325 C 0.45648 0.15403 0.62518 0.0
C326 C 0.44832 0.15792 0.68586 0.0
C327 C 0.43429 0.13696 0.80193 0.0
H328 H 0.42077 0.12063 0.80524 0.0
H329 H 0.42871 0.14809 0.81552 0.0
H330 H 0.44638 0.13861 0.84072 0.0
O331 O 0.47919 0.10921 0.72351 0.0
O332 O 0.49279 0.12418 0.62079 0.0
H333 H 0.48178 0.16987 0.5513 0.0
H334 H 0.46863 0.18442 0.57373 0.0
C335 C 0.46631 0.16848 0.56354 0.0
H336 H 0.45598 0.1616 0.51678 0.0
H337 H 0.50684 0.1494 0.49269 0.0
O338 O 0.44383 0.09956 0.82764 0.0
C339 C 0.49471 0.11768 0.68104 0.0
Co340 Co 0.34883 0.44872 0.22646 0.0
Co341 Co 0.34754 0.46374 0.07332 0.0
C342 C 0.35935 0.43031 0.10558 0.0
O343 O 0.35563 0.42958 0.17144 0.0
O344 O 0.3572 0.44305 0.06569 0.0
C345 C 0.3345 0.42491 0.35929 0.0
O346 O 0.31998 0.40893 0.32308 0.0
C347 C 0.33519 0.45382 0.92752 0.0
C348 C 0.34333 0.48448 0.87998 0.0
C349 C 0.33592 0.46344 0.86404 0.0
N350 N 0.34209 0.46843 0.97872 0.0
N351 N 0.34673 0.48674 0.95021 0.0
C352 C 0.32727 0.43086 0.9398 0.0
H353 H 0.32094 0.42635 0.99413 0.0
H354 H 0.3148 0.42111 0.90097 0.0
H355 H 0.34044 0.42764 0.93323 0.0
C356 C 0.30591 0.44466 0.22905 0.0
N357 N 0.32359 0.44797 0.19541 0.0
N358 N 0.32287 0.45347 0.12978 0.0
C359 C 0.3045 0.45315 0.119 0.0
C360 C 0.2931 0.44751 0.18156 0.0
C361 C 0.30278 0.44229 0.30725 0.0
H362 H 0.31812 0.45127 0.33473 0.0
H363 H 0.29533 0.42537 0.32138 0.0
H364 H 0.29226 0.44817 0.32568 0.0
O365 O 0.37255 0.47807 0.21965 0.0
O366 O 0.37097 0.49027 0.11398 0.0
H367 H 0.30898 0.47554 0.03883 0.0
H368 H 0.28171 0.45512 0.05097 0.0
C369 C 0.29829 0.45856 0.05034 0.0
H370 H 0.30004 0.44928 0.00746 0.0
H371 H 0.35289 0.50088 0.97818 0.0
O372 O 0.34739 0.44185 0.32782 0.0
C373 C 0.37949 0.49298 0.17463 0.0
Co374 Co 0.90301 0.34843 0.7288 0.0
Co375 Co 0.88637 0.3476 0.57644 0.0
C376 C 0.93184 0.35913 0.60857 0.0
O377 O 0.92902 0.3554 0.67448 0.0
O378 O 0.91684 0.35703 0.56922 0.0
C379 C 0.91491 0.33703 0.86427 0.0
O380 O 0.92119 0.32556 0.82994 0.0
C381 C 0.88358 0.33448 0.43144 0.0
C382 C 0.86241 0.34409 0.38205 0.0
C383 C 0.87526 0.33568 0.36733 0.0
N384 N 0.87629 0.34206 0.48181 0.0
N385 N 0.8634 0.34755 0.45219 0.0
C386 C 0.89816 0.32607 0.44482 0.0
H387 H 0.89605 0.31983 0.49936 0.0
H388 H 0.89524 0.31347 0.40636 0.0
H389 H 0.91471 0.33897 0.43851 0.0
C390 C 0.86495 0.30517 0.72997 0.0
N391 N 0.87879 0.32317 0.69685 0.0
N392 N 0.87173 0.32306 0.63295 0.0
C393 C 0.8532 0.30508 0.62337 0.0
C394 C 0.84824 0.29311 0.68465 0.0
C395 C 0.8676 0.29973 0.80391 0.0
H396 H 0.88241 0.29918 0.80725 0.0
H397 H 0.85451 0.28413 0.82062 0.0
H398 H 0.86874 0.31208 0.84046 0.0
O399 O 0.89723 0.37218 0.72186 0.0
O400 O 0.88338 0.37097 0.61666 0.0
H401 H 0.83823 0.31489 0.5475 0.0
H402 H 0.82347 0.28707 0.56776 0.0
C403 C 0.83952 0.30077 0.55981 0.0
H404 H 0.84701 0.29768 0.51399 0.0
H405 H 0.85596 0.35443 0.4793 0.0
O406 O 0.90749 0.34691 0.83092 0.0
C407 C 0.88927 0.3793 0.67746 0.0
H408 H 0.06538 0.43153 0.52608 0.0
H409 H 0.04031 0.40063 0.32632 0.0
H410 H 0.03062 0.41167 0.57865 0.0
H411 H 0.00535 0.38037 0.37976 0.0
H412 H 0.96773 0.36295 0.66975 0.0
H413 H 1.00272 0.37744 0.61644 0.0
H414 H 0.97866 0.38787 0.4217 0.0
H415 H 0.94395 0.3733 0.47413 0.0
C416 C 0.05253 0.42024 0.49348 0.0
C417 C 0.0557 0.41777 0.42168 0.0
C418 C 0.03254 0.40873 0.52395 0.0
C419 C 0.01513 0.39442 0.48355 0.0
C420 C 0.01837 0.39147 0.41221 0.0
C421 C 0.03843 0.40302 0.3816 0.0
C422 C 0.9699 0.36817 0.6154 0.0
C423 C 0.95296 0.36687 0.57633 0.0
C424 C 0.98996 0.37654 0.58487 0.0
C425 C 0.99353 0.38382 0.51465 0.0
C426 C 0.97647 0.38209 0.47537 0.0
C427 C 0.9565 0.37377 0.50576 0.0
H428 H 0.6234 0.03651 0.82365 0.0
H429 H 0.65739 0.06533 0.0153 0.0
H430 H 0.60783 1.00192 0.87896 0.0
H431 H 0.64304 0.03073 0.06965 0.0
H432 H 0.59375 0.9693 0.17474 0.0
H433 H 0.61271 0.00393 0.11939 0.0
H434 H 0.61141 0.97445 0.92029 0.0
H435 H 0.59129 0.94005 0.97493 0.0
C436 C 0.62795 0.03536 0.8771 0.0
C437 C 0.64151 0.0536 0.91524 0.0
C438 C 0.6191 0.01548 0.909 0.0
C439 C 0.62401 0.01332 0.97938 0.0
C440 C 0.63837 0.03164 0.01622 0.0
C441 C 0.6468 0.05153 0.98483 0.0
C442 C 0.59771 0.97029 0.1193 0.0
C443 C 0.59091 0.9519 0.07916 0.0
C444 C 0.60871 0.9902 0.08738 0.0
C445 C 0.61357 0.99221 0.01477 0.0
C446 C 0.60755 0.97372 0.97568 0.0
C447 C 0.59616 0.95388 0.00725 0.0
H448 H 0.65695 0.59339 0.47699 0.0
H449 H 0.62405 0.58928 0.67018 0.0
H450 H 0.64235 0.61326 0.42236 0.0
H451 H 0.60806 0.60783 0.61451 0.0
H452 H 0.59042 0.65214 0.51598 0.0
H453 H 0.61072 0.6382 0.5714 0.0
H454 H 0.61215 0.60961 0.37331 0.0
H455 H 0.5932 0.62509 0.31706 0.0
C456 C 0.64656 0.59674 0.5078 0.0
C457 C 0.6417 0.58978 0.5779 0.0
C458 C 0.63794 0.60797 0.47619 0.0
C459 C 0.62371 0.61208 0.51325 0.0
C460 C 0.6192 0.60542 0.58415 0.0
C461 C 0.62829 0.59465 0.61627 0.0
C462 C 0.59539 0.6432 0.48399 0.0
C463 C 0.59025 0.63983 0.41201 0.0
C464 C 0.60686 0.63491 0.51607 0.0
C465 C 0.61302 0.62246 0.47752 0.0
C466 C 0.60813 0.61939 0.40496 0.0
C467 C 0.5971 0.62817 0.37249 0.0
H468 H 0.0409 0.64243 0.16695 0.0
H469 H 0.06566 0.63568 0.96786 0.0
H470 H 0.00604 0.62822 0.11341 0.0
H471 H 0.03092 0.62084 0.91548 0.0
H472 H 0.96867 0.60617 0.82167 0.0
H473 H 1.00359 0.62663 0.87501 0.0
H474 H 0.97843 0.59514 0.07394 0.0
H475 H 0.94365 0.57542 0.02173 0.0
C476 C 0.03894 0.63796 0.11185 0.0
C477 C 0.05608 0.64006 0.07203 0.0
C478 C 0.01892 0.6297 0.08115 0.0
C479 C 0.01556 0.62323 0.01006 0.0
C480 C 0.03288 0.6259 0.96996 0.0
C481 C 0.05285 0.63427 0.00039 0.0
C482 C 0.97059 0.6038 0.87694 0.0
C483 C 0.95335 0.58901 0.9171 0.0
C484 C 0.99063 0.61544 0.90753 0.0
C485 C 0.99394 0.61249 0.97885 0.0
C486 C 0.97653 0.59812 0.01927 0.0
C487 C 0.95653 0.58662 0.98894 0.0
H488 H 0.40177 0.03914 0.66417 0.0
H489 H 0.43288 0.06541 0.46553 0.0
H490 H 0.38188 0.00446 0.60908 0.0
H491 H 0.41338 0.03081 0.41119 0.0
H492 H 0.36475 0.96735 0.31944 0.0
H493 H 0.37923 1.00239 0.37262 0.0
H494 H 0.3904 0.97858 0.56661 0.0
H495 H 0.37595 0.94393 0.51438 0.0
C496 C 0.40429 0.03758 0.60875 0.0
C497 C 0.41905 0.05509 0.56955 0.0
C498 C 0.39295 0.01768 0.57719 0.0
C499 C 0.39613 0.0148 0.50574 0.0
C500 C 0.41033 0.03246 0.46603 0.0
C501 C 0.42164 0.05233 0.49749 0.0
C502 C 0.37016 0.96961 0.37358 0.0
C503 C 0.36902 0.95274 0.41263 0.0
C504 C 0.37851 0.98968 0.40401 0.0
C505 C 0.38588 0.99329 0.47411 0.0
C506 C 0.38447 0.97633 0.51312 0.0
C507 C 0.37621 0.95639 0.48285 0.0
H508 H 0.40087 0.36337 0.82449 0.0
H509 H 0.43169 0.36914 0.02442 0.0
H510 H 0.38049 0.37789 0.878 0.0
H511 H 0.41167 0.38383 0.07709 0.0
H512 H 0.36278 0.39805 0.16723 0.0
H513 H 0.37723 0.37745 0.11437 0.0
H514 H 0.38848 0.4123 0.92003 0.0
H515 H 0.37407 0.43259 0.97201 0.0
C516 C 0.4032 0.36757 0.87983 0.0
C517 C 0.41799 0.36513 0.91991 0.0
C518 C 0.39158 0.37596 0.91049 0.0
C519 C 0.39449 0.3821 0.98186 0.0
C520 C 0.40878 0.37901 0.02234 0.0
C521 C 0.42038 0.37066 0.99181 0.0
C522 C 0.36819 0.40116 0.11307 0.0
C523 C 0.36713 0.41691 0.07391 0.0
C524 C 0.37651 0.3894 0.0828 0.0
C525 C 0.38395 0.39316 0.01278 0.0
C526 C 0.38252 0.40865 0.9735 0.0
C527 C 0.37428 0.42037 0.00363 0.0
H528 H 0.13375 0.60579 0.09804 0.0
H529 H 0.1098 0.60711 0.30524 0.0
H530 H 0.136 0.57479 0.13226 0.0
H531 H 0.1117 0.57608 0.33863 0.0
H532 H 0.13386 0.53025 0.39806 0.0
H533 H 0.13619 0.56351 0.36358 0.0
H534 H 0.11148 0.5377 0.1578 0.0
H535 H 0.1095 0.50473 0.19147 0.0
C536 C 0.12901 0.59953 0.15083 0.0
C537 C 0.12149 0.60892 0.19867 0.0
C538 C 0.13022 0.58171 0.17035 0.0
C539 C 0.124 0.57293 0.23819 0.0
C540 C 0.11688 0.58258 0.28633 0.0
C541 C 0.11563 0.60031 0.26685 0.0
C542 C 0.12904 0.53172 0.34535 0.0
C543 C 0.12138 0.51475 0.29776 0.0
C544 C 0.1303 0.55075 0.32567 0.0
C545 C 0.12399 0.55326 0.25794 0.0
C546 C 0.11673 0.53642 0.21002 0.0
C547 C 0.11543 0.51742 0.22966 0.0
H548 H 0.5314 0.13408 0.60457 0.0
H549 H 0.50438 0.10593 0.80618 0.0
H550 H 0.56451 0.13612 0.63874 0.0
H551 H 0.5373 0.10762 0.83955 0.0
H552 H 0.60553 0.12923 0.90024 0.0
H553 H 0.57439 0.13165 0.86892 0.0
H554 H 0.57681 0.11123 0.65721 0.0
H555 H 0.60791 0.10915 0.68773 0.0
C556 C 0.5325 0.12836 0.65616 0.0
C557 C 0.51515 0.11971 0.70235 0.0
C558 C 0.55146 0.12945 0.67565 0.0
C559 C 0.55352 0.12195 0.74179 0.0
C560 C 0.53634 0.11376 0.78857 0.0
C561 C 0.51738 0.11264 0.76911 0.0
C562 C 0.59948 0.12538 0.84693 0.0
C563 C 0.60921 0.11893 0.79666 0.0
C564 C 0.58158 0.12668 0.82907 0.0
C565 C 0.57312 0.12165 0.76051 0.0
C566 C 0.58307 0.11552 0.71015 0.0
C567 C 0.60085 0.11417 0.72796 0.0
H568 H 0.47745 0.60509 0.38892 0.0
H569 H 0.50271 0.60543 0.18254 0.0
H570 H 0.44403 0.57424 0.35547 0.0
H571 H 0.46954 0.57444 0.14988 0.0
H572 H 0.39991 0.50424 0.3012 0.0
H573 H 0.43121 0.53717 0.33259 0.0
H574 H 0.43241 0.56178 0.12452 0.0
H575 H 0.4011 0.52846 0.09225 0.0
C576 C 0.47589 0.59863 0.33647 0.0
C577 C 0.49284 0.6077 0.28865 0.0
C578 C 0.45676 0.58089 0.31737 0.0
C579 C 0.45412 0.57183 0.25002 0.0
C580 C 0.47092 0.58116 0.20182 0.0
C581 C 0.49003 0.59885 0.22087 0.0
C582 C 0.40673 0.51666 0.26198 0.0
C583 C 0.39801 0.51361 0.19393 0.0
C584 C 0.42463 0.53565 0.28032 0.0
C585 C 0.43433 0.55214 0.23116 0.0
C586 C 0.42544 0.54928 0.1634 0.0
C587 C 0.40745 0.53023 0.145 0.0
H588 H 0.89938 0.50197 0.68573 0.0
H589 H 0.87522 0.47725 0.89333 0.0
H590 H 0.8973 0.46886 0.65375 0.0
H591 H 0.87279 0.44383 0.86053 0.0
H592 H 0.89894 0.39982 0.80409 0.0
H593 H 0.89713 0.431 0.83631 0.0
H594 H 0.87268 0.43176 0.62972 0.0
H595 H 0.87483 0.40064 0.5967 0.0
C596 C 0.89346 0.48942 0.7245 0.0
C597 C 0.88759 0.49237 0.79237 0.0
C598 C 0.89211 0.47033 0.70583 0.0
C599 C 0.88488 0.45368 0.75451 0.0
C600 C 0.87866 0.45645 0.82204 0.0
C601 C 0.87996 0.47557 0.84075 0.0
C602 C 0.89308 0.40654 0.76543 0.0
C603 C 0.88715 0.39776 0.69753 0.0
C604 C 0.8919 0.42435 0.78423 0.0
C605 C 0.88477 0.4339 0.73565 0.0
C606 C 0.87847 0.42493 0.66813 0.0
C607 C 0.87962 0.40704 0.64929 0.0
H608 H 0.47832 0.8739 0.09721 0.0
H609 H 0.50276 0.89775 0.30522 0.0
H610 H 0.44485 0.87141 0.12974 0.0
H611 H 0.46962 0.89566 0.33691 0.0
H612 H 0.40148 0.87376 0.39324 0.0
H613 H 0.43252 0.87135 0.36074 0.0
H614 H 0.432 0.89561 0.15353 0.0
H615 H 0.40091 0.89762 0.18517 0.0
C616 C 0.47657 0.87858 0.14981 0.0
C617 C 0.4933 0.88613 0.19838 0.0
C618 C 0.45742 0.87723 0.16838 0.0
C619 C 0.45456 0.88337 0.23594 0.0
C620 C 0.47115 0.89052 0.28481 0.0
C621 C 0.49026 0.89188 0.2663 0.0
C622 C 0.40791 0.87844 0.34062 0.0
C623 C 0.39873 0.88599 0.29204 0.0
C624 C 0.42575 0.87715 0.32207 0.0
C625 C 0.43478 0.88333 0.25453 0.0
C626 C 0.42531 0.89045 0.20563 0.0
C627 C 0.40754 0.89176 0.22411 0.0
H628 H 0.50488 0.39977 0.69041 0.0
H629 H 0.53085 0.40048 0.89581 0.0
H630 H 0.53769 0.43104 0.65704 0.0
H631 H 0.56396 0.43168 0.86161 0.0
H632 H 0.60758 0.50177 0.80534 0.0
H633 H 0.5765 0.46877 0.83821 0.0
H634 H 0.57469 0.44386 0.63027 0.0
H635 H 0.60572 0.47718 0.59659 0.0
C636 C 0.51764 0.40649 0.72839 0.0
C637 C 0.51514 0.39764 0.79607 0.0
C638 C 0.53655 0.42436 0.70893 0.0
C639 C 0.55347 0.43388 0.75659 0.0
C640 C 0.55113 0.42486 0.82391 0.0
C641 C 0.53218 0.40693 0.84343 0.0
C642 C 0.60064 0.48927 0.76648 0.0
C643 C 0.60912 0.49222 0.69806 0.0
C644 C 0.58288 0.47025 0.78565 0.0
C645 C 0.57309 0.45365 0.73696 0.0
C646 C 0.58172 0.45644 0.66881 0.0
C647 C 0.59956 0.4755 0.64958 0.0
H648 H 0.0966 0.43276 0.67428 0.0
H649 H 0.1605 0.47638 0.73989 0.0
H650 H 0.08713 0.42056 0.79502 0.0
H651 H 0.15081 0.46438 0.86156 0.0
H652 H 0.11528 0.46472 0.06015 0.0
H653 H 0.12609 0.4705 0.93809 0.0
H654 H 0.09441 0.40322 0.90314 0.0
H655 H 0.08347 0.39717 0.02754 0.0
C656 C 0.10887 0.43916 0.71382 0.0
C657 C 0.12944 0.45531 0.69736 0.0
C658 C 0.10336 0.43222 0.78319 0.0
C659 C 0.11822 0.44157 0.83738 0.0
C660 C 0.13903 0.45703 0.82055 0.0
C661 C 0.14457 0.46389 0.75115 0.0
C662 C 0.11051 0.45103 0.02692 0.0
C663 C 0.09855 0.43042 0.05381 0.0
C664 C 0.11693 0.45441 0.95699 0.0
C665 C 0.11145 0.43732 0.91176 0.0
C666 C 0.09895 0.41665 0.93746 0.0
C667 C 0.09264 0.41321 0.0083 0.0
H668 H 0.70737 0.11283 0.54546 0.0
H669 H 0.6393 0.07948 0.54105 0.0
H670 H 0.70827 0.1229 0.42214 0.0
H671 H 0.64 0.08838 0.4171 0.0
H672 H 0.646 0.13039 0.23704 0.0
H673 H 0.64735 0.11913 0.35598 0.0
H674 H 0.70204 0.11417 0.30122 0.0
H675 H 0.70178 0.12726 0.18387 0.0
C676 C 0.69262 0.10703 0.51723 0.0
C677 C 0.67326 0.09548 0.55249 0.0
C678 C 0.6931 0.11283 0.44661 0.0
C679 C 0.67419 0.10687 0.40993 0.0
C680 C 0.65487 0.09388 0.44422 0.0
C681 C 0.65442 0.08849 0.51493 0.0
C682 C 0.65849 0.12714 0.25034 0.0
C683 C 0.67332 0.12904 0.19959 0.0
C684 C 0.65906 0.12032 0.3185 0.0
C685 C 0.6744 0.11503 0.33784 0.0
C686 C 0.68984 0.11784 0.2881 0.0
C687 C 0.68942 0.12497 0.21997 0.0
H688 H 0.57591 0.66936 0.66135 0.0
H689 H 0.52768 0.68266 0.73217 0.0
H690 H 0.58782 0.67124 0.78205 0.0
H691 H 0.53959 0.68445 0.85362 0.0
H692 H 0.54212 0.64963 0.04892 0.0
H693 H 0.53589 0.65505 0.92762 0.0
H694 H 0.60307 0.69297 0.89248 0.0
H695 H 0.6095 0.68746 0.01571 0.0
C696 C 0.56841 0.67358 0.70221 0.0
C697 C 0.55102 0.67618 0.68717 0.0
C698 C 0.57518 0.6745 0.77159 0.0
C699 C 0.56453 0.67781 0.82718 0.0
C700 C 0.5479 0.68159 0.81172 0.0
C701 C 0.54114 0.68065 0.74238 0.0
C702 C 0.55566 0.65914 0.01568 0.0
C703 C 0.57634 0.66823 0.04215 0.0
C704 C 0.55204 0.66241 0.94619 0.0
C705 C 0.56897 0.67482 0.90108 0.0
C706 C 0.58973 0.68344 0.92647 0.0
C707 C 0.5934 0.68021 -0.00329 0.0
H708 H 0.89555 0.59763 0.54258 0.0
H709 H 0.92749 0.56157 0.54143 0.0
H710 H 0.88572 0.58842 0.41914 0.0
H711 H 0.91881 0.55328 0.41743 0.0
H712 H 0.87679 0.51768 0.23642 0.0
H713 H 0.88809 0.53034 0.35531 0.0
H714 H 0.89477 0.5906 0.29869 0.0
H715 H 0.88163 0.57724 0.18147 0.0
C716 C 0.90109 0.58836 0.51506 0.0
C717 C 0.91218 0.58021 0.55126 0.0
C718 C 0.89543 0.58301 0.44436 0.0
C719 C 0.90105 0.56968 0.40854 0.0
C720 C 0.91357 0.56296 0.44383 0.0
C721 C 0.91883 0.56794 0.51459 0.0
C722 C 0.88045 0.53358 0.24929 0.0
C723 C 0.87898 0.54665 0.19807 0.0
C724 C 0.88729 0.54099 0.31743 0.0
C725 C 0.89302 0.56177 0.3363 0.0
C726 C 0.89073 0.57459 0.28599 0.0
C727 C 0.88358 0.56703 0.2179 0.0
H728 H 0.31516 0.84983 0.7337 0.0
H729 H 0.35444 0.91506 0.67331 0.0
H730 H 0.31276 0.86101 0.85394 0.0
H731 H 0.35223 0.92614 0.79298 0.0
H732 H 0.36845 0.92564 0.03747 0.0
H733 H 0.36695 0.91792 0.91152 0.0
H734 H 0.29889 0.88552 0.91894 0.0
H735 H 0.30039 0.89383 0.04507 0.0
C736 C 0.32302 0.86651 0.74604 0.0
C737 C 0.3347 0.8816 0.69432 0.0
C738 C 0.32154 0.8729 0.81435 0.0
C739 C 0.33218 0.89442 0.83213 0.0
C740 C 0.34377 0.90948 0.78023 0.0
C741 C 0.34491 0.90313 0.71181 0.0
C742 C 0.3532 0.91735 0.01173 0.0
C743 C 0.33455 0.91044 0.05055 0.0
C744 C 0.35234 0.91293 0.9399 0.0
C745 C 0.3328 0.90106 0.90602 0.0
C746 C 0.31412 0.89466 0.94423 0.0
C747 C 0.31499 0.89957 0.01594 0.0
H748 H 0.39782 0.31672 0.52567 0.0
H749 H 0.46535 0.35367 0.55797 0.0
H750 H 0.404 0.312 0.40126 0.0
H751 H 0.47126 0.34879 0.4359 0.0
H752 H 0.47762 0.32029 0.23824 0.0
H753 H 0.4656 0.31793 0.35988 0.0
H754 H 0.42106 0.33677 0.29285 0.0
H755 H 0.4333 0.33959 0.17214 0.0
C756 C 0.41388 0.32389 0.50636 0.0
C757 C 0.43106 0.33547 0.55179 0.0
C758 C 0.41739 0.32111 0.43551 0.0
C759 C 0.4381 0.32966 0.40975 0.0
C760 C 0.45515 0.34157 0.45488 0.0
C761 C 0.45169 0.34451 0.52481 0.0
C762 C 0.46498 0.32351 0.24939 0.0
C763 C 0.45621 0.32979 0.19546 0.0
C764 C 0.4581 0.32215 0.31877 0.0
C765 C 0.44242 0.32719 0.33543 0.0
C766 C 0.4329 0.33245 0.28113 0.0
C767 C 0.43985 0.33391 0.21177 0.0
H768 H 0.60291 0.90078 0.45106 0.0
H769 H 0.55654 0.92078 0.45519 0.0
H770 H 0.59618 0.89131 0.57675 0.0
H771 H 0.55044 0.91206 0.58076 0.0
H772 H 0.56512 0.91326 0.82198 0.0
H773 H 0.57814 0.92526 0.70227 0.0
H774 H 0.5542 0.86076 0.63729 0.0
H775 H 0.5407 0.84864 0.75734 0.0
C776 C 0.59178 0.90371 0.4794 0.0
C777 C 0.58034 0.91164 0.44405 0.0
C778 C 0.58782 0.89814 0.55075 0.0
C779 C 0.57282 0.901 0.58772 0.0
C780 C 0.56213 0.90983 0.5531 0.0
C781 C 0.56565 0.91484 0.48161 0.0
C782 C 0.56309 0.9017 0.7825 0.0
C783 C 0.55222 0.88007 0.79862 0.0
C784 C 0.57044 0.90856 0.71424 0.0
C785 C 0.56733 0.89391 0.66136 0.0
C786 C 0.55701 0.8723 0.67782 0.0
C787 C 0.54925 0.86539 0.74597 0.0
H788 H 0.67119 0.57532 0.32518 0.0
H789 H 0.68503 0.52733 0.25592 0.0
H790 H 0.67341 0.58725 0.20439 0.0
H791 H 0.68709 0.53923 0.13428 0.0
H792 H 0.65181 0.54133 0.93905 0.0
H793 H 0.65739 0.5353 0.06038 0.0
H794 H 0.69555 0.60251 0.09393 0.0
H795 H 0.68994 0.60874 0.97058 0.0
C796 C 0.67562 0.56789 0.28469 0.0
C797 C 0.67826 0.55056 0.30016 0.0
C798 C 0.67673 0.57467 0.21525 0.0
C799 C 0.68025 0.56408 0.16005 0.0
C800 C 0.68409 0.54752 0.17594 0.0
C801 C 0.68298 0.54074 0.24536 0.0
C802 C 0.66142 0.55493 0.97192 0.0
C803 C 0.67054 0.57555 0.94498 0.0
C804 C 0.66478 0.55141 0.04141 0.0
C805 C 0.67729 0.56841 0.08606 0.0
C806 C 0.68595 0.58913 0.06023 0.0
C807 C 0.68266 0.59269 0.98995 0.0
H808 H 0.08187 0.63831 0.44787 0.0
H809 H 0.11377 0.70633 0.44719 0.0
H810 H 0.09057 0.6386 0.5718 0.0
H811 H 0.12364 0.70686 0.57056 0.0
H812 H 0.12776 0.69962 0.8081 0.0
H813 H 0.11465 0.69993 0.69093 0.0
H814 H 0.12121 0.64631 0.63405 0.0
H815 H 0.13247 0.64486 0.75293 0.0
C816 C 0.09052 0.65333 0.47481 0.0
C817 C 0.09715 0.67228 0.4383 0.0
C818 C 0.0958 0.65355 0.54553 0.0
C819 C 0.10832 0.67277 0.58094 0.0
C820 C 0.11393 0.69175 0.54526 0.0
C821 C 0.10824 0.69149 0.47461 0.0
C822 C 0.12579 0.68747 0.77165 0.0
C823 C 0.13034 0.67165 0.79143 0.0
C824 C 0.11866 0.68793 0.70356 0.0
C825 C 0.11634 0.67283 0.65317 0.0
C826 C 0.12203 0.65775 0.67199 0.0
C827 C 0.12885 0.65712 0.74013 0.0
H828 H 0.46666 0.10753 0.93186 0.0
H829 H 0.40052 0.0823 0.9796 0.0
H830 H 0.47561 0.11723 0.05366 0.0
H831 H 0.40963 0.09161 0.10417 0.0
H832 H 0.44092 0.13749 0.29704 0.0
H833 H 0.42819 0.12394 0.1781 0.0
H834 H 0.47267 0.1015 0.16638 0.0
H835 H 0.48554 0.1154 0.28367 0.0
C836 C 0.45393 0.10378 0.96863 0.0
C837 C 0.43284 0.09417 0.9459 0.0
C838 C 0.4591 0.10924 0.03884 0.0
C839 C 0.44333 0.10509 0.0887 0.0
C840 C 0.42212 0.09512 0.06665 0.0
C841 C 0.4169 0.08963 0.99566 0.0
C842 C 0.44779 0.12953 0.26884 0.0
C843 C 0.46427 0.12758 0.29881 0.0
C844 C 0.44046 0.12168 0.20115 0.0
C845 C 0.44949 0.11173 0.1628 0.0
C846 C 0.46565 0.10942 0.19398 0.0
C847 C 0.47307 0.11743 0.26098 0.0
H848 H 0.35324 0.44078 0.81396 0.0
H849 H 0.31379 0.46649 0.75346 0.0
H850 H 0.35117 0.42756 0.69426 0.0
H851 H 0.31152 0.45298 0.63317 0.0
H852 H 0.2993 0.40778 0.44226 0.0
H853 H 0.29778 0.41465 0.56829 0.0
H854 H 0.36583 0.45042 0.57566 0.0
H855 H 0.36736 0.44413 0.44979 0.0
C856 C 0.34371 0.44315 0.77541 0.0
C857 C 0.33341 0.45438 0.79289 0.0
C858 C 0.34264 0.43571 0.70698 0.0
C859 C 0.33104 0.43912 0.65504 0.0
C860 C 0.32032 0.44993 0.67279 0.0
C861 C 0.32172 0.45774 0.74112 0.0
C862 C 0.3139 0.41668 0.47134 0.0
C863 C 0.33346 0.42538 0.43671 0.0
C864 C 0.31301 0.42076 0.543 0.0
C865 C 0.33169 0.43309 0.58117 0.0
C866 C 0.35123 0.44077 0.5473 0.0
C867 C 0.35211 0.43716 0.47551 0.0
H868 H 0.91551 0.35312 0.31972 0.0
H869 H 0.85065 0.31382 0.25539 0.0
H870 H 0.92727 0.35193 0.19992 0.0
H871 H 0.86254 0.3123 0.13525 0.0
H872 H 0.90077 0.30228 0.94821 0.0
H873 H 0.89168 0.29987 0.07413 0.0
H874 H 0.91519 0.36693 0.0788 0.0
H875 H 0.92354 0.36924 0.95297 0.0
C876 C 0.90382 0.34376 0.28036 0.0
C877 C 0.88219 0.3333 0.29667 0.0
C878 C 0.91055 0.34318 0.21198 0.0
C879 C 0.89578 0.33185 0.15914 0.0
C880 C 0.87417 0.32089 0.17572 0.0
C881 C 0.8674 0.32184 0.24394 0.0
C882 C 0.9044 0.31653 0.97674 0.0
C883 C 0.91298 0.33598 0.9415 0.0
C884 C 0.89904 0.31511 0.04823 0.0
C885 C 0.90277 0.33323 0.08547 0.0
C886 C 0.91229 0.3528 0.05096 0.0
C887 C 0.91709 0.35412 0.97932 0.0
H888 H 0.16283 0.41468 0.26611 0.0
H889 H 0.20032 0.48054 0.32022 0.0
H890 H 0.19481 0.41419 0.23164 0.0
H891 H 0.23243 0.48005 0.28822 0.0
H892 H 0.28285 0.47787 0.15358 0.0
H893 H 0.2503 0.47759 0.18462 0.0
H894 H 0.22632 0.41628 0.28123 0.0
H895 H 0.2586 0.41635 0.2476 0.0
C896 C 0.17799 0.42898 0.27117 0.0
C897 C 0.17922 0.4476 0.29607 0.0
C898 C 0.1963 0.42871 0.25186 0.0
C899 C 0.21621 0.4471 0.25704 0.0
C900 C 0.21735 0.46569 0.28265 0.0
C901 C 0.19903 0.46593 0.30183 0.0
C902 C 0.27043 0.4642 0.18032 0.0
C903 C 0.27306 0.44702 0.19753 0.0
C904 C 0.25191 0.46415 0.19901 0.0
C905 C 0.2357 0.44694 0.23566 0.0
C906 C 0.23835 0.42968 0.25234 0.0
C907 C 0.25686 0.42975 0.23352 0.0
H908 H 0.82189 0.28599 0.79538 0.0
H909 H 0.82969 0.25623 0.61074 0.0
H910 H 0.78977 0.25337 0.82591 0.0
H911 H 0.79685 0.22375 0.63872 0.0
H912 H 0.74978 0.16249 0.74969 0.0
H913 H 0.78226 0.19502 0.71964 0.0
H914 H 0.75417 0.23146 0.79192 0.0
H915 H 0.72206 0.19886 0.82365 0.0
C916 C 0.81665 0.27239 0.76133 0.0
C917 C 0.82835 0.27345 0.70132 0.0
C918 C 0.7981 0.25376 0.77824 0.0
C919 C 0.79065 0.23584 0.73489 0.0
C920 C 0.80227 0.23709 0.67402 0.0
C921 C 0.82095 0.25571 0.65751 0.0
C922 C 0.75072 0.17753 0.75937 0.0
C923 C 0.73366 0.1783 0.78983 0.0
C924 C 0.76922 0.19616 0.74168 0.0
C925 C 0.77092 0.21595 0.7534 0.0
C926 C 0.75364 0.21658 0.78341 0.0
C927 C 0.73523 0.19794 0.80156 0.0
H928 H 0.54273 0.82198 0.3012 0.0
H929 H 0.57598 0.8281 0.10683 0.0
H930 H 0.54375 0.78992 0.32973 0.0
H931 H 0.57633 0.79551 0.13414 0.0
H932 H 0.54704 0.72301 0.1792 0.0
H933 H 0.54799 0.756 0.15001 0.0
H934 H 0.57266 0.78026 0.35705 0.0
H935 H 0.57251 0.74751 0.38531 0.0
C936 C 0.55042 0.81653 0.26492 0.0
C937 C 0.55956 0.82764 0.20232 0.0
C938 C 0.55094 0.79819 0.28114 0.0
C939 C 0.56023 0.79033 0.23433 0.0
C940 C 0.56902 0.80122 0.17102 0.0
C941 C 0.5688 0.81979 0.15537 0.0
C942 C 0.55306 0.73555 0.21797 0.0
C943 C 0.55989 0.7328 0.28431 0.0
C944 C 0.55351 0.75437 0.20134 0.0
C945 C 0.56043 0.77066 0.25123 0.0
C946 C 0.56713 0.76788 0.3178 0.0
C947 C 0.567 0.74917 0.33399 0.0
H948 H 0.80835 0.52649 0.82725 0.0
H949 H 0.84511 0.58985 0.74663 0.0
H950 H 0.77585 0.52637 0.79692 0.0
H951 H 0.81265 0.58999 0.7168 0.0
H952 H 0.75045 0.57415 0.60707 0.0
H953 H 0.78305 0.57409 0.63585 0.0
H954 H 0.75523 0.54217 0.83208 0.0
H955 H 0.72255 0.54157 0.80168 0.0
C956 C 0.80941 0.5405 0.80396 0.0
C957 C 0.82914 0.55828 0.79008 0.0
C958 C 0.79083 0.54046 0.78651 0.0
C959 C 0.79161 0.55821 0.75463 0.0
C960 C 0.81145 0.57597 0.74053 0.0
C961 C 0.83002 0.57597 0.75795 0.0
C962 C 0.75139 0.56706 0.65611 0.0
C963 C 0.73412 0.55801 0.70242 0.0
C964 C 0.77006 0.56718 0.67296 0.0
C965 C 0.7718 0.55817 0.73643 0.0
C966 C 0.7544 0.54904 0.78247 0.0
C967 C 0.73576 0.54891 0.76552 0.0
H968 H 0.2589 0.84437 0.24666 0.0
H969 H 0.28487 0.80745 0.33087 0.0
H970 H 0.22645 0.81195 0.21492 0.0
H971 H 0.2523 0.77498 0.30078 0.0
H972 H 0.20117 0.7227 0.16399 0.0
H973 H 0.23344 0.75541 0.19458 0.0
H974 H 0.19588 0.78175 0.27087 0.0
H975 H 0.16368 0.74914 0.23865 0.0
C976 C 0.25752 0.82926 0.25888 0.0
C977 C 0.2742 0.82832 0.29175 0.0
C978 C 0.23896 0.81073 0.24108 0.0
C979 C 0.2368 0.79089 0.25534 0.0
C980 C 0.25354 0.79001 0.28849 0.0
C981 C 0.27206 0.80856 0.30651 0.0
C982 C 0.19991 0.73563 0.18639 0.0
C983 C 0.18005 0.7336 0.19824 0.0
C984 C 0.21832 0.75424 0.2047 0.0
C985 C 0.21722 0.77118 0.23524 0.0
C986 C 0.19727 0.7691 0.24672 0.0
C987 C 0.17887 0.75045 0.22864 0.0
H988 H 0.48149 0.28409 0.82035 0.0
H989 H 0.41582 0.25572 0.7632 0.0
H990 H 0.48101 0.2514 0.78995 0.0
H991 H 0.4152 0.22289 0.7325 0.0
H992 H 0.43015 0.17678 0.61269 0.0
H993 H 0.4301 0.2093 0.64332 0.0
H994 H 0.46558 0.21498 0.83224 0.0
H995 H 0.46596 0.18283 0.80053 0.0
C996 C 0.46689 0.27071 0.80203 0.0
C997 C 0.44864 0.27225 0.79466 0.0
C998 C 0.4666 0.25203 0.78457 0.0
C999 C 0.44805 0.23453 0.75895 0.0
C1000 C 0.42979 0.23615 0.7514 0.0
C1001 C 0.43009 0.25484 0.76922 0.0
C1002 C 0.43792 0.18508 0.66061 0.0
C1003 C 0.44797 0.17736 0.70448 0.0
C1004 C 0.43778 0.20356 0.67845 0.0
C1005 C 0.44782 0.2147 0.74027 0.0
C1006 C 0.45788 0.20689 0.78396 0.0
C1007 C 0.45794 0.18841 0.76622 0.0
loop_
_geom_bond_atom_site_label_1
_geom_bond_atom_site_label_2
_geom_bond_distance
_geom_bond_site_symmetry_2
_ccdc_geom_bond_type
Co0 O3 1.970 . S
Co0 N17 1.989 . S
Co0 O25 1.967 . S
Co0 O32 1.920 . S
Co1 O4 1.966 . S
Co1 N10 2.022 . S
Co1 N18 1.993 . S
Co1 O26 1.941 . S
C2 O3 1.258 . S
C2 O4 1.263 . S
O3 Co0 1.970 . S
O3 C2 1.258 . S
O4 Co1 1.966 . S
O4 C2 1.263 . S
C5 O6 1.235 . S
C5 O32 1.289 . S
O6 C5 1.235 . S
C7 C9 1.400 . S
C7 N10 1.351 . S
C7 C12 1.501 . S
C8 C9 1.387 . S
C8 N11 1.341 . S
C9 C7 1.400 . S
C9 C8 1.387 . S
N10 Co1 2.022 . S
N10 C7 1.351 . S
N10 N11 1.365 . S
N11 C8 1.341 . S
N11 N10 1.365 . S
N11 H31 0.862 . S
C12 C7 1.501 . S
C12 H13 0.961 . S
C12 H14 0.961 . S
C12 H15 0.960 . S
H13 C12 0.961 . S
H14 C12 0.961 . S
H15 C12 0.960 . S
C16 N17 1.342 . S
C16 C20 1.401 . S
C16 C21 1.499 . S
N17 Co0 1.989 . S
N17 C16 1.342 . S
N17 N18 1.388 . S
N18 Co1 1.993 . S
N18 N17 1.388 . S
N18 C19 1.346 . S
C19 N18 1.346 . S
C19 C20 1.396 . S
C19 C29 1.510 . S
C20 C16 1.401 . S
C20 C19 1.396 . S
C21 C16 1.499 . S
C21 H22 0.959 . S
C21 H23 0.960 . S
C21 H24 0.961 . S
H22 C21 0.959 . S
H23 C21 0.960 . S
H24 C21 0.961 . S
O25 Co0 1.967 . S
O25 C33 1.258 . S
O26 Co1 1.941 . S
O26 C33 1.266 . S
H27 C29 0.959 . S
H28 C29 0.961 . S
C29 C19 1.510 . S
C29 H27 0.959 . S
C29 H28 0.961 . S
C29 H30 0.960 . S
H30 C29 0.960 . S
H31 N11 0.862 . S
O32 Co0 1.920 . S
O32 C5 1.289 . S
C33 O25 1.258 . S
C33 O26 1.266 . S
Co34 O37 1.970 . S
Co34 N51 1.989 . S
Co34 O59 1.967 . S
Co34 O66 1.920 . S
Co35 O38 1.966 . S
Co35 N44 2.022 1_556 S
Co35 N52 1.993 . S
Co35 O60 1.941 . S
C36 O37 1.258 . S
C36 O38 1.263 . S
O37 Co34 1.970 . S
O37 C36 1.258 . S
O38 Co35 1.966 . S
O38 C36 1.263 . S
C39 O40 1.235 . S
C39 O66 1.289 . S
O40 C39 1.235 . S
C41 C43 1.400 . S
C41 N44 1.351 . S
C41 C46 1.501 . S
C42 C43 1.387 . S
C42 N45 1.341 . S
C43 C41 1.400 . S
C43 C42 1.387 . S
N44 Co35 2.022 1_554 S
N44 C41 1.351 . S
N44 N45 1.365 . S
N45 C42 1.341 . S
N45 N44 1.365 . S
N45 H65 0.862 . S
C46 C41 1.501 . S
C46 H47 0.961 . S
C46 H48 0.961 . S
C46 H49 0.960 . S
H47 C46 0.961 . S
H48 C46 0.961 . S
H49 C46 0.960 . S
C50 N51 1.342 . S
C50 C54 1.401 . S
C50 C55 1.499 . S
N51 Co34 1.989 . S
N51 C50 1.342 . S
N51 N52 1.388 . S
N52 Co35 1.993 . S
N52 N51 1.388 . S
N52 C53 1.346 . S
C53 N52 1.346 . S
C53 C54 1.396 . S
C53 C63 1.510 . S
C54 C50 1.401 . S
C54 C53 1.396 . S
C55 C50 1.499 . S
C55 H56 0.959 . S
C55 H57 0.960 . S
C55 H58 0.961 . S
H56 C55 0.959 . S
H57 C55 0.960 . S
H58 C55 0.961 . S
O59 Co34 1.967 . S
O59 C67 1.258 . S
O60 Co35 1.941 . S
O60 C67 1.266 . S
H61 C63 0.959 . S
H62 C63 0.961 . S
C63 C53 1.510 . S
C63 H61 0.959 . S
C63 H62 0.961 . S
C63 H64 0.960 1_556 S
H64 C63 0.960 1_554 S
H65 N45 0.862 . S
O66 Co34 1.920 . S
O66 C39 1.289 . S
C67 O59 1.258 . S
C67 O60 1.266 . S
Co68 O71 1.970 . S
Co68 N85 1.989 . S
Co68 O93 1.967 . S
Co68 O100 1.920 . S
Co69 O72 1.966 . S
Co69 N78 2.022 . S
Co69 N86 1.993 . S
Co69 O94 1.941 . S
C70 O71 1.258 . S
C70 O72 1.263 . S
O71 Co68 1.970 . S
O71 C70 1.258 . S
O72 Co69 1.966 . S
O72 C70 1.263 . S
C73 O74 1.235 . S
C73 O100 1.289 . S
O74 C73 1.235 . S
C75 C77 1.400 . S
C75 N78 1.351 . S
C75 C80 1.501 . S
C76 C77 1.387 . S
C76 N79 1.341 . S
C77 C75 1.400 . S
C77 C76 1.387 . S
N78 Co69 2.022 . S
N78 C75 1.351 . S
N78 N79 1.365 . S
N79 C76 1.341 . S
N79 N78 1.365 . S
N79 H99 0.862 . S
C80 C75 1.501 . S
C80 H81 0.961 . S
C80 H82 0.961 . S
C80 H83 0.960 . S
H81 C80 0.961 . S
H82 C80 0.961 . S
H83 C80 0.960 . S
C84 N85 1.342 . S
C84 C88 1.401 . S
C84 C89 1.499 . S
N85 Co68 1.989 . S
N85 C84 1.342 . S
N85 N86 1.388 . S
N86 Co69 1.993 . S
N86 N85 1.388 . S
N86 C87 1.346 . S
C87 N86 1.346 . S
C87 C88 1.396 . S
C87 C97 1.510 . S
C88 C84 1.401 . S
C88 C87 1.396 . S
C89 C84 1.499 . S
C89 H90 0.959 . S
C89 H91 0.960 . S
C89 H92 0.961 . S
H90 C89 0.959 . S
H91 C89 0.960 . S
H92 C89 0.961 . S
O93 Co68 1.967 . S
O93 C101 1.258 . S
O94 Co69 1.941 . S
O94 C101 1.266 . S
H95 C97 0.959 . S
H96 C97 0.961 . S
C97 C87 1.510 . S
C97 H95 0.959 . S
C97 H96 0.961 . S
C97 H98 0.960 . S
H98 C97 0.960 . S
H99 N79 0.862 . S
O100 Co68 1.920 . S
O100 C73 1.289 . S
C101 O93 1.258 . S
C101 O94 1.266 . S
Co102 O105 1.970 . S
Co102 N119 1.989 . S
Co102 O127 1.967 . S
Co102 O134 1.920 . S
Co103 O106 1.966 . S
Co103 N112 2.022 1_556 S
Co103 N120 1.993 . S
Co103 O128 1.941 . S
C104 O105 1.258 . S
C104 O106 1.263 . S
O105 Co102 1.970 . S
O105 C104 1.258 . S
O106 Co103 1.966 . S
O106 C104 1.263 . S
C107 O108 1.235 . S
C107 O134 1.289 . S
O108 C107 1.235 . S
C109 C111 1.400 . S
C109 N112 1.351 . S
C109 C114 1.501 . S
C110 C111 1.387 . S
C110 N113 1.341 . S
C111 C109 1.400 . S
C111 C110 1.387 . S
N112 Co103 2.022 1_554 S
N112 C109 1.351 . S
N112 N113 1.365 . S
N113 C110 1.341 . S
N113 N112 1.365 . S
N113 H133 0.862 . S
C114 C109 1.501 . S
C114 H115 0.961 . S
C114 H116 0.961 . S
C114 H117 0.960 . S
H115 C114 0.961 . S
H116 C114 0.961 . S
H117 C114 0.960 . S
C118 N119 1.342 . S
C118 C122 1.401 . S
C118 C123 1.499 . S
N119 Co102 1.989 . S
N119 C118 1.342 . S
N119 N120 1.388 . S
N120 Co103 1.993 . S
N120 N119 1.388 . S
N120 C121 1.346 . S
C121 N120 1.346 . S
C121 C122 1.396 . S
C121 C131 1.510 . S
C122 C118 1.401 . S
C122 C121 1.396 . S
C123 C118 1.499 . S
C123 H124 0.959 . S
C123 H125 0.960 . S
C123 H126 0.961 . S
H124 C123 0.959 . S
H125 C123 0.960 . S
H126 C123 0.961 . S
O127 Co102 1.967 . S
O127 C135 1.258 . S
O128 Co103 1.941 . S
O128 C135 1.266 . S
H129 C131 0.959 . S
H130 C131 0.961 . S
C131 C121 1.510 . S
C131 H129 0.959 . S
C131 H130 0.961 . S
C131 H132 0.960 1_556 S
H132 C131 0.960 1_554 S
H133 N113 0.862 . S
O134 Co102 1.920 . S
O134 C107 1.289 . S
C135 O127 1.258 . S
C135 O128 1.266 . S
Co136 O139 1.970 . S
Co136 N153 1.989 . S
Co136 O161 1.967 . S
Co136 O168 1.920 . S
Co137 O140 1.966 . S
Co137 N146 2.022 . S
Co137 N154 1.993 . S
Co137 O162 1.941 . S
C138 O139 1.258 . S
C138 O140 1.263 . S
O139 Co136 1.970 . S
O139 C138 1.258 . S
O140 Co137 1.966 . S
O140 C138 1.263 . S
C141 O142 1.235 . S
C141 O168 1.289 . S
O142 C141 1.235 . S
C143 C145 1.400 . S
C143 N146 1.351 . S
C143 C148 1.501 . S
C144 C145 1.387 . S
C144 N147 1.341 . S
C145 C143 1.400 . S
C145 C144 1.387 . S
N146 Co137 2.022 . S
N146 C143 1.351 . S
N146 N147 1.365 . S
N147 C144 1.341 . S
N147 N146 1.365 . S
N147 H167 0.862 . S
C148 C143 1.501 . S
C148 H149 0.961 . S
C148 H150 0.961 . S
C148 H151 0.960 . S
H149 C148 0.961 . S
H150 C148 0.961 . S
H151 C148 0.960 . S
C152 N153 1.342 . S
C152 C156 1.401 . S
C152 C157 1.499 . S
N153 Co136 1.989 . S
N153 C152 1.342 . S
N153 N154 1.388 . S
N154 Co137 1.993 . S
N154 N153 1.388 . S
N154 C155 1.346 . S
C155 N154 1.346 . S
C155 C156 1.396 . S
C155 C165 1.510 . S
C156 C152 1.401 . S
C156 C155 1.396 . S
C157 C152 1.499 . S
C157 H158 0.959 . S
C157 H159 0.960 . S
C157 H160 0.961 . S
H158 C157 0.959 . S
H159 C157 0.960 . S
H160 C157 0.961 . S
O161 Co136 1.967 . S
O161 C169 1.258 . S
O162 Co137 1.941 . S
O162 C169 1.266 . S
H163 C165 0.959 . S
H164 C165 0.961 . S
C165 C155 1.510 . S
C165 H163 0.959 . S
C165 H164 0.961 . S
C165 H166 0.960 . S
H166 C165 0.960 . S
H167 N147 0.862 . S
O168 Co136 1.920 . S
O168 C141 1.289 . S
C169 O161 1.258 . S
C169 O162 1.266 . S
Co170 O173 1.970 . S
Co170 N187 1.989 . S
Co170 O195 1.967 . S
Co170 O202 1.920 . S
Co171 O174 1.966 . S
Co171 N180 2.022 1_556 S
Co171 N188 1.993 . S
Co171 O196 1.941 . S
C172 O173 1.258 . S
C172 O174 1.263 . S
O173 Co170 1.970 . S
O173 C172 1.258 . S
O174 Co171 1.966 . S
O174 C172 1.263 . S
C175 O176 1.235 . S
C175 O202 1.289 . S
O176 C175 1.235 . S
C177 C179 1.400 . S
C177 N180 1.351 . S
C177 C182 1.501 . S
C178 C179 1.387 . S
C178 N181 1.341 . S
C179 C177 1.400 . S
C179 C178 1.387 . S
N180 Co171 2.022 1_554 S
N180 C177 1.351 . S
N180 N181 1.365 . S
N181 C178 1.341 . S
N181 N180 1.365 . S
N181 H201 0.862 . S
C182 C177 1.501 . S
C182 H183 0.961 . S
C182 H184 0.961 . S
C182 H185 0.960 . S
H183 C182 0.961 . S
H184 C182 0.961 . S
H185 C182 0.960 . S
C186 N187 1.342 . S
C186 C190 1.401 . S
C186 C191 1.499 . S
N187 Co170 1.989 . S
N187 C186 1.342 . S
N187 N188 1.388 . S
N188 Co171 1.993 . S
N188 N187 1.388 . S
N188 C189 1.346 . S
C189 N188 1.346 . S
C189 C190 1.396 . S
C189 C199 1.510 . S
C190 C186 1.401 . S
C190 C189 1.396 . S
C191 C186 1.499 . S
C191 H192 0.959 . S
C191 H193 0.960 . S
C191 H194 0.961 . S
H192 C191 0.959 . S
H193 C191 0.960 . S
H194 C191 0.961 . S
O195 Co170 1.967 . S
O195 C203 1.258 . S
O196 Co171 1.941 . S
O196 C203 1.266 . S
H197 C199 0.959 . S
H198 C199 0.961 . S
C199 C189 1.510 . S
C199 H197 0.959 . S
C199 H198 0.961 . S
C199 H200 0.960 1_556 S
H200 C199 0.960 1_554 S
H201 N181 0.862 . S
O202 Co170 1.920 . S
O202 C175 1.289 . S
C203 O195 1.258 . S
C203 O196 1.266 . S
Co204 O207 1.970 . S
Co204 N221 1.989 . S
Co204 O229 1.967 . S
Co204 O236 1.920 . S
Co205 O208 1.966 . S
Co205 N214 2.022 1_554 S
Co205 N222 1.993 . S
Co205 O230 1.941 . S
C206 O207 1.258 . S
C206 O208 1.263 . S
O207 Co204 1.970 . S
O207 C206 1.258 . S
O208 Co205 1.966 . S
O208 C206 1.263 . S
C209 O210 1.235 . S
C209 O236 1.289 . S
O210 C209 1.235 . S
C211 C213 1.400 . S
C211 N214 1.351 . S
C211 C216 1.501 . S
C212 C213 1.387 . S
C212 N215 1.341 . S
C213 C211 1.400 . S
C213 C212 1.387 . S
N214 Co205 2.022 1_556 S
N214 C211 1.351 . S
N214 N215 1.365 . S
N215 C212 1.341 . S
N215 N214 1.365 . S
N215 H235 0.862 . S
C216 C211 1.501 . S
C216 H217 0.961 . S
C216 H218 0.961 . S
C216 H219 0.960 . S
H217 C216 0.961 . S
H218 C216 0.961 . S
H219 C216 0.960 . S
C220 N221 1.342 . S
C220 C224 1.401 . S
C220 C225 1.499 . S
N221 Co204 1.989 . S
N221 C220 1.342 . S
N221 N222 1.388 . S
N222 Co205 1.993 . S
N222 N221 1.388 . S
N222 C223 1.346 . S
C223 N222 1.346 . S
C223 C224 1.396 . S
C223 C233 1.510 . S
C224 C220 1.401 . S
C224 C223 1.396 . S
C225 C220 1.499 . S
C225 H226 0.959 . S
C225 H227 0.960 . S
C225 H228 0.961 . S
H226 C225 0.959 . S
H227 C225 0.960 . S
H228 C225 0.961 . S
O229 Co204 1.967 . S
O229 C237 1.258 . S
O230 Co205 1.941 . S
O230 C237 1.266 . S
H231 C233 0.959 . S
H232 C233 0.961 . S
C233 C223 1.510 . S
C233 H231 0.959 . S
C233 H232 0.961 . S
C233 H234 0.960 1_554 S
H234 C233 0.960 1_556 S
H235 N215 0.862 . S
O236 Co204 1.920 . S
O236 C209 1.289 . S
C237 O229 1.258 . S
C237 O230 1.266 . S
Co238 O241 1.970 . S
Co238 N255 1.989 . S
Co238 O263 1.967 . S
Co238 O270 1.920 . S
Co239 O242 1.966 . S
Co239 N248 2.022 . S
Co239 N256 1.993 . S
Co239 O264 1.941 . S
C240 O241 1.258 . S
C240 O242 1.263 . S
O241 Co238 1.970 . S
O241 C240 1.258 . S
O242 Co239 1.966 . S
O242 C240 1.263 . S
C243 O244 1.235 . S
C243 O270 1.289 . S
O244 C243 1.235 . S
C245 C247 1.400 . S
C245 N248 1.351 . S
C245 C250 1.501 . S
C246 C247 1.387 . S
C246 N249 1.341 . S
C247 C245 1.400 . S
C247 C246 1.387 . S
N248 Co239 2.022 . S
N248 C245 1.351 . S
N248 N249 1.365 . S
N249 C246 1.341 . S
N249 N248 1.365 . S
N249 H269 0.862 . S
C250 C245 1.501 . S
C250 H251 0.961 . S
C250 H252 0.961 . S
C250 H253 0.960 . S
H251 C250 0.961 . S
H252 C250 0.961 . S
H253 C250 0.960 . S
C254 N255 1.342 . S
C254 C258 1.401 . S
C254 C259 1.499 . S
N255 Co238 1.989 . S
N255 C254 1.342 . S
N255 N256 1.388 . S
N256 Co239 1.993 . S
N256 N255 1.388 . S
N256 C257 1.346 . S
C257 N256 1.346 . S
C257 C258 1.396 . S
C257 C267 1.510 . S
C258 C254 1.401 . S
C258 C257 1.396 . S
C259 C254 1.499 . S
C259 H260 0.959 . S
C259 H261 0.960 . S
C259 H262 0.961 . S
H260 C259 0.959 . S
H261 C259 0.960 . S
H262 C259 0.961 . S
O263 Co238 1.967 . S
O263 C271 1.258 . S
O264 Co239 1.941 . S
O264 C271 1.266 . S
H265 C267 0.959 . S
H266 C267 0.961 . S
C267 C257 1.510 . S
C267 H265 0.959 . S
C267 H266 0.961 . S
C267 H268 0.960 . S
H268 C267 0.960 . S
H269 N249 0.862 . S
O270 Co238 1.920 . S
O270 C243 1.289 . S
C271 O263 1.258 . S
C271 O264 1.266 . S
Co272 O275 1.970 . S
Co272 N289 1.989 . S
Co272 O297 1.967 . S
Co272 O304 1.920 . S
Co273 O276 1.966 . S
Co273 N282 2.022 1_554 S
Co273 N290 1.993 . S
Co273 O298 1.941 . S
C274 O275 1.258 . S
C274 O276 1.263 . S
O275 Co272 1.970 . S
O275 C274 1.258 . S
O276 Co273 1.966 . S
O276 C274 1.263 . S
C277 O278 1.235 . S
C277 O304 1.289 . S
O278 C277 1.235 . S
C279 C281 1.400 . S
C279 N282 1.351 . S
C279 C284 1.501 . S
C280 C281 1.387 . S
C280 N283 1.341 . S
C281 C279 1.400 . S
C281 C280 1.387 . S
N282 Co273 2.022 1_556 S
N282 C279 1.351 . S
N282 N283 1.365 . S
N283 C280 1.341 . S
N283 N282 1.365 . S
N283 H303 0.862 . S
C284 C279 1.501 . S
C284 H285 0.961 . S
C284 H286 0.961 . S
C284 H287 0.960 . S
H285 C284 0.961 . S
H286 C284 0.961 . S
H287 C284 0.960 . S
C288 N289 1.342 . S
C288 C292 1.401 . S
C288 C293 1.499 . S
N289 Co272 1.989 . S
N289 C288 1.342 . S
N289 N290 1.388 . S
N290 Co273 1.993 . S
N290 N289 1.388 . S
N290 C291 1.346 . S
C291 N290 1.346 . S
C291 C292 1.396 . S
C291 C301 1.510 . S
C292 C288 1.401 . S
C292 C291 1.396 . S
C293 C288 1.499 . S
C293 H294 0.959 . S
C293 H295 0.960 . S
C293 H296 0.961 . S
H294 C293 0.959 . S
H295 C293 0.960 . S
H296 C293 0.961 . S
O297 Co272 1.967 . S
O297 C305 1.258 . S
O298 Co273 1.941 . S
O298 C305 1.266 . S
H299 C301 0.959 . S
H300 C301 0.961 . S
C301 C291 1.510 . S
C301 H299 0.959 . S
C301 H300 0.961 . S
C301 H302 0.960 1_554 S
H302 C301 0.960 1_556 S
H303 N283 0.862 . S
O304 Co272 1.920 . S
O304 C277 1.289 . S
C305 O297 1.258 . S
C305 O298 1.266 . S
Co306 O309 1.970 . S
Co306 N323 1.989 . S
Co306 O331 1.967 . S
Co306 O338 1.920 . S
Co307 O310 1.966 . S
Co307 N316 2.022 . S
Co307 N324 1.993 . S
Co307 O332 1.941 . S
C308 O309 1.258 . S
C308 O310 1.263 . S
O309 Co306 1.970 . S
O309 C308 1.258 . S
O310 Co307 1.966 . S
O310 C308 1.263 . S
C311 O312 1.235 . S
C311 O338 1.289 . S
O312 C311 1.235 . S
C313 C315 1.400 . S
C313 N316 1.351 . S
C313 C318 1.501 . S
C314 C315 1.387 . S
C314 N317 1.341 . S
C315 C313 1.400 . S
C315 C314 1.387 . S
N316 Co307 2.022 . S
N316 C313 1.351 . S
N316 N317 1.365 . S
N317 C314 1.341 . S
N317 N316 1.365 . S
N317 H337 0.862 . S
C318 C313 1.501 . S
C318 H319 0.961 . S
C318 H320 0.961 . S
C318 H321 0.960 . S
H319 C318 0.961 . S
H320 C318 0.961 . S
H321 C318 0.960 . S
C322 N323 1.342 . S
C322 C326 1.401 . S
C322 C327 1.499 . S
N323 Co306 1.989 . S
N323 C322 1.342 . S
N323 N324 1.388 . S
N324 Co307 1.993 . S
N324 N323 1.388 . S
N324 C325 1.346 . S
C325 N324 1.346 . S
C325 C326 1.396 . S
C325 C335 1.510 . S
C326 C322 1.401 . S
C326 C325 1.396 . S
C327 C322 1.499 . S
C327 H328 0.959 . S
C327 H329 0.960 . S
C327 H330 0.961 . S
H328 C327 0.959 . S
H329 C327 0.960 . S
H330 C327 0.961 . S
O331 Co306 1.967 . S
O331 C339 1.258 . S
O332 Co307 1.941 . S
O332 C339 1.266 . S
H333 C335 0.959 . S
H334 C335 0.961 . S
C335 C325 1.510 . S
C335 H333 0.959 . S
C335 H334 0.961 . S
C335 H336 0.960 . S
H336 C335 0.960 . S
H337 N317 0.862 . S
O338 Co306 1.920 . S
O338 C311 1.289 . S
C339 O331 1.258 . S
C339 O332 1.266 . S
Co340 O343 1.970 . S
Co340 N357 1.989 . S
Co340 O365 1.967 . S
Co340 O372 1.920 . S
Co341 O344 1.966 . S
Co341 N350 2.022 1_554 S
Co341 N358 1.993 . S
Co341 O366 1.941 . S
C342 O343 1.258 . S
C342 O344 1.263 . S
O343 Co340 1.970 . S
O343 C342 1.258 . S
O344 Co341 1.966 . S
O344 C342 1.263 . S
C345 O346 1.235 . S
C345 O372 1.289 . S
O346 C345 1.235 . S
C347 C349 1.400 . S
C347 N350 1.351 . S
C347 C352 1.501 . S
C348 C349 1.387 . S
C348 N351 1.341 . S
C349 C347 1.400 . S
C349 C348 1.387 . S
N350 Co341 2.022 1_556 S
N350 C347 1.351 . S
N350 N351 1.365 . S
N351 C348 1.341 . S
N351 N350 1.365 . S
N351 H371 0.862 . S
C352 C347 1.501 . S
C352 H353 0.961 . S
C352 H354 0.961 . S
C352 H355 0.960 . S
H353 C352 0.961 . S
H354 C352 0.961 . S
H355 C352 0.960 . S
C356 N357 1.342 . S
C356 C360 1.401 . S
C356 C361 1.499 . S
N357 Co340 1.989 . S
N357 C356 1.342 . S
N357 N358 1.388 . S
N358 Co341 1.993 . S
N358 N357 1.388 . S
N358 C359 1.346 . S
C359 N358 1.346 . S
C359 C360 1.396 . S
C359 C369 1.510 . S
C360 C356 1.401 . S
C360 C359 1.396 . S
C361 C356 1.499 . S
C361 H362 0.959 . S
C361 H363 0.960 . S
C361 H364 0.961 . S
H362 C361 0.959 . S
H363 C361 0.960 . S
H364 C361 0.961 . S
O365 Co340 1.967 . S
O365 C373 1.258 . S
O366 Co341 1.941 . S
O366 C373 1.266 . S
H367 C369 0.959 . S
H368 C369 0.961 . S
C369 C359 1.510 . S
C369 H367 0.959 . S
C369 H368 0.961 . S
C369 H370 0.960 1_554 S
H370 C369 0.960 1_556 S
H371 N351 0.862 . S
O372 Co340 1.920 . S
O372 C345 1.289 . S
C373 O365 1.258 . S
C373 O366 1.266 . S
Co374 O377 1.970 . S
Co374 N391 1.989 . S
Co374 O399 1.967 . S
Co374 O406 1.920 . S
Co375 O378 1.966 . S
Co375 N384 2.022 . S
Co375 N392 1.993 . S
Co375 O400 1.941 . S
C376 O377 1.258 . S
C376 O378 1.263 . S
O377 Co374 1.970 . S
O377 C376 1.258 . S
O378 Co375 1.966 . S
O378 C376 1.263 . S
C379 O380 1.235 . S
C379 O406 1.289 . S
O380 C379 1.235 . S
C381 C383 1.400 . S
C381 N384 1.351 . S
C381 C386 1.501 . S
C382 C383 1.387 . S
C382 N385 1.341 . S
C383 C381 1.400 . S
C383 C382 1.387 . S
N384 Co375 2.022 . S
N384 C381 1.351 . S
N384 N385 1.365 . S
N385 C382 1.341 . S
N385 N384 1.365 . S
N385 H405 0.862 . S
C386 C381 1.501 . S
C386 H387 0.961 . S
C386 H388 0.961 . S
C386 H389 0.960 . S
H387 C386 0.961 . S
H388 C386 0.961 . S
H389 C386 0.960 . S
C390 N391 1.342 . S
C390 C394 1.401 . S
C390 C395 1.499 . S
N391 Co374 1.989 . S
N391 C390 1.342 . S
N391 N392 1.388 . S
N392 Co375 1.993 . S
N392 N391 1.388 . S
N392 C393 1.346 . S
C393 N392 1.346 . S
C393 C394 1.396 . S
C393 C403 1.510 . S
C394 C390 1.401 . S
C394 C393 1.396 . S
C395 C390 1.499 . S
C395 H396 0.959 . S
C395 H397 0.960 . S
C395 H398 0.961 . S
H396 C395 0.959 . S
H397 C395 0.960 . S
H398 C395 0.961 . S
O399 Co374 1.967 . S
O399 C407 1.258 . S
O400 Co375 1.941 . S
O400 C407 1.266 . S
H401 C403 0.959 . S
H402 C403 0.961 . S
C403 C393 1.510 . S
C403 H401 0.959 . S
C403 H402 0.961 . S
C403 H404 0.960 . S
H404 C403 0.960 . S
H405 N385 0.862 . S
O406 Co374 1.920 . S
O406 C379 1.289 . S
C407 O399 1.258 . S
C407 O400 1.266 . S
H408 C416 0.950 . S
H409 C421 0.950 . S
H410 C418 0.950 . S
H411 C420 0.950 . S
H412 C422 0.950 . S
H413 C424 0.950 . S
H414 C426 0.950 . S
H415 C427 0.950 . S
C416 H408 0.950 . S
C416 C417 1.386 . S
C416 C418 1.391 . S
C417 C416 1.386 . S
C417 C421 1.393 . S
C418 H410 0.950 . S
C418 C416 1.391 . S
C418 C419 1.400 . S
C419 C418 1.400 . S
C419 C420 1.398 . S
C419 C425 1.491 1_455 S
C420 H411 0.950 . S
C420 C419 1.398 . S
C420 C421 1.391 . S
C421 H409 0.950 . S
C421 C417 1.393 . S
C421 C420 1.391 . S
C422 H412 0.950 . S
C422 C423 1.386 . S
C422 C424 1.391 . S
C423 C422 1.386 . S
C423 C427 1.393 . S
C424 H413 0.950 . S
C424 C422 1.391 . S
C424 C425 1.400 . S
C425 C419 1.491 1_655 S
C425 C424 1.400 . S
C425 C426 1.398 . S
C426 H414 0.950 . S
C426 C425 1.398 . S
C426 C427 1.391 . S
C427 H415 0.950 . S
C427 C423 1.393 . S
C427 C426 1.391 . S
H428 C436 0.950 . S
H429 C441 0.950 . S
H430 C438 0.930 1_565 S
H431 C440 0.950 . S
H432 C442 0.950 . S
H433 C444 0.929 1_545 S
H434 C446 0.950 . S
H435 C447 0.950 . S
C436 H428 0.950 . S
C436 C437 1.386 . S
C436 C438 1.391 . S
C437 C436 1.386 . S
C437 C441 1.393 . S
C438 H430 0.930 1_545 S
C438 C436 1.391 . S
C438 C439 1.400 . S
C439 C438 1.400 . S
C439 C440 1.398 1_556 S
C439 C445 1.491 1_546 S
C440 H431 0.950 . S
C440 C439 1.398 1_554 S
C440 C441 1.391 1_554 S
C441 H429 0.950 . S
C441 C437 1.393 . S
C441 C440 1.391 1_556 S
C442 H432 0.950 . S
C442 C443 1.386 . S
C442 C444 1.391 . S
C443 C442 1.386 . S
C443 C447 1.393 . S
C444 H433 0.929 1_565 S
C444 C442 1.391 . S
C444 C445 1.400 . S
C445 C439 1.491 1_564 S
C445 C444 1.400 . S
C445 C446 1.398 1_554 S
C446 H434 0.950 . S
C446 C445 1.398 1_556 S
C446 C447 1.391 1_556 S
C447 H435 0.950 . S
C447 C443 1.393 . S
C447 C446 1.391 1_554 S
H448 C456 0.950 . S
H449 C461 0.950 . S
H450 C458 0.950 . S
H451 C460 0.950 . S
H452 C462 0.950 . S
H453 C464 0.950 . S
H454 C466 0.950 . S
H455 C467 0.950 . S
C456 H448 0.950 . S
C456 C457 1.386 . S
C456 C458 1.391 . S
C457 C456 1.386 . S
C457 C461 1.393 . S
C458 H450 0.950 . S
C458 C456 1.391 . S
C458 C459 1.400 . S
C459 C458 1.400 . S
C459 C460 1.398 . S
C459 C465 1.491 . S
C460 H451 0.950 . S
C460 C459 1.398 . S
C460 C461 1.391 . S
C461 H449 0.950 . S
C461 C457 1.393 . S
C461 C460 1.391 . S
C462 H452 0.950 . S
C462 C463 1.386 . S
C462 C464 1.391 . S
C463 C462 1.386 . S
C463 C467 1.393 . S
C464 H453 0.950 . S
C464 C462 1.391 . S
C464 C465 1.400 . S
C465 C459 1.491 . S
C465 C464 1.400 . S
C465 C466 1.398 . S
C466 H454 0.950 . S
C466 C465 1.398 . S
C466 C467 1.391 . S
C467 H455 0.950 . S
C467 C463 1.393 . S
C467 C466 1.391 . S
H468 C476 0.950 . S
H469 C481 0.950 . S
H470 C478 0.950 . S
H471 C480 0.950 1_556 S
H472 C482 0.950 . S
H473 C484 0.950 . S
H474 C486 0.950 1_554 S
H475 C487 0.950 . S
C476 H468 0.950 . S
C476 C477 1.386 . S
C476 C478 1.391 . S
C477 C476 1.386 . S
C477 C481 1.393 . S
C478 H470 0.950 . S
C478 C476 1.391 . S
C478 C479 1.400 . S
C479 C478 1.400 . S
C479 C480 1.398 . S
C479 C485 1.491 1_454 S
C480 H471 0.950 1_554 S
C480 C479 1.398 . S
C480 C481 1.391 . S
C481 H469 0.950 . S
C481 C477 1.393 . S
C481 C480 1.391 . S
C482 H472 0.950 . S
C482 C483 1.386 . S
C482 C484 1.391 . S
C483 C482 1.386 . S
C483 C487 1.393 . S
C484 H473 0.950 . S
C484 C482 1.391 . S
C484 C485 1.400 . S
C485 C479 1.491 1_656 S
C485 C484 1.400 . S
C485 C486 1.398 . S
C486 H474 0.950 1_556 S
C486 C485 1.398 . S
C486 C487 1.391 . S
C487 H475 0.950 . S
C487 C483 1.393 . S
C487 C486 1.391 . S
H488 C496 0.950 . S
H489 C501 0.950 . S
H490 C498 0.950 . S
H491 C500 0.950 . S
H492 C502 0.950 . S
H493 C504 0.950 . S
H494 C506 0.950 . S
H495 C507 0.950 . S
C496 H488 0.950 . S
C496 C497 1.386 . S
C496 C498 1.391 . S
C497 C496 1.386 . S
C497 C501 1.393 . S
C498 H490 0.950 . S
C498 C496 1.391 . S
C498 C499 1.400 . S
C499 C498 1.400 . S
C499 C500 1.398 . S
C499 C505 1.491 1_545 S
C500 H491 0.950 . S
C500 C499 1.398 . S
C500 C501 1.391 . S
C501 H489 0.950 . S
C501 C497 1.393 . S
C501 C500 1.391 . S
C502 H492 0.950 . S
C502 C503 1.386 . S
C502 C504 1.391 . S
C503 C502 1.386 . S
C503 C507 1.393 . S
C504 H493 0.950 . S
C504 C502 1.391 . S
C504 C505 1.400 . S
C505 C499 1.491 1_565 S
C505 C504 1.400 . S
C505 C506 1.398 . S
C506 H494 0.950 . S
C506 C505 1.398 . S
C506 C507 1.391 . S
C507 H495 0.950 . S
C507 C503 1.393 . S
C507 C506 1.391 . S
H508 C516 0.950 . S
H509 C521 0.950 . S
H510 C518 0.950 . S
H511 C520 0.948 1_554 S
H512 C522 0.950 . S
H513 C524 0.950 . S
H514 C526 0.948 1_556 S
H515 C527 0.950 . S
C516 H508 0.950 . S
C516 C517 1.386 . S
C516 C518 1.391 . S
C517 C516 1.386 . S
C517 C521 1.393 . S
C518 H510 0.950 . S
C518 C516 1.391 . S
C518 C519 1.400 . S
C519 C518 1.400 . S
C519 C520 1.399 . S
C519 C525 1.491 1_556 S
C520 H511 0.948 1_556 S
C520 C519 1.399 . S
C520 C521 1.392 . S
C521 H509 0.950 . S
C521 C517 1.393 . S
C521 C520 1.392 . S
C522 H512 0.950 . S
C522 C523 1.386 . S
C522 C524 1.391 . S
C523 C522 1.386 . S
C523 C527 1.393 . S
C524 H513 0.950 . S
C524 C522 1.391 . S
C524 C525 1.400 . S
C525 C519 1.491 1_554 S
C525 C524 1.400 . S
C525 C526 1.399 . S
C526 H514 0.948 1_554 S
C526 C525 1.399 . S
C526 C527 1.392 . S
C527 H515 0.950 . S
C527 C523 1.393 . S
C527 C526 1.392 . S
H528 C536 0.950 . S
H529 C541 0.950 . S
H530 C538 0.950 . S
H531 C540 0.950 . S
H532 C542 0.950 . S
H533 C544 0.950 . S
H534 C546 0.950 . S
H535 C547 0.950 . S
C536 H528 0.950 . S
C536 C537 1.386 . S
C536 C538 1.391 . S
C537 C536 1.386 . S
C537 C541 1.393 . S
C538 H530 0.950 . S
C538 C536 1.391 . S
C538 C539 1.400 . S
C539 C538 1.400 . S
C539 C540 1.398 . S
C539 C545 1.491 . S
C540 H531 0.950 . S
C540 C539 1.398 . S
C540 C541 1.391 . S
C541 H529 0.950 . S
C541 C537 1.393 . S
C541 C540 1.391 . S
C542 H532 0.950 . S
C542 C543 1.386 . S
C542 C544 1.391 . S
C543 C542 1.386 . S
C543 C547 1.393 . S
C544 H533 0.950 . S
C544 C542 1.391 . S
C544 C545 1.400 . S
C545 C539 1.491 . S
C545 C544 1.400 . S
C545 C546 1.398 . S
C546 H534 0.950 . S
C546 C545 1.398 . S
C546 C547 1.391 . S
C547 H535 0.950 . S
C547 C543 1.393 . S
C547 C546 1.391 . S
H548 C556 0.950 . S
H549 C561 0.950 . S
H550 C558 0.950 . S
H551 C560 0.950 . S
H552 C562 0.950 . S
H553 C564 0.950 . S
H554 C566 0.950 . S
H555 C567 0.950 . S
C556 H548 0.950 . S
C556 C557 1.386 . S
C556 C558 1.391 . S
C557 C556 1.386 . S
C557 C561 1.393 . S
C558 H550 0.950 . S
C558 C556 1.391 . S
C558 C559 1.400 . S
C559 C558 1.400 . S
C559 C560 1.398 . S
C559 C565 1.491 . S
C560 H551 0.950 . S
C560 C559 1.398 . S
C560 C561 1.391 . S
C561 H549 0.950 . S
C561 C557 1.393 . S
C561 C560 1.391 . S
C562 H552 0.950 . S
C562 C563 1.386 . S
C562 C564 1.391 . S
C563 C562 1.386 . S
C563 C567 1.393 . S
C564 H553 0.950 . S
C564 C562 1.391 . S
C564 C565 1.400 . S
C565 C559 1.491 . S
C565 C564 1.400 . S
C565 C566 1.398 . S
C566 H554 0.950 . S
C566 C565 1.398 . S
C566 C567 1.391 . S
C567 H555 0.950 . S
C567 C563 1.393 . S
C567 C566 1.391 . S
H568 C576 0.950 . S
H569 C581 0.950 . S
H570 C578 0.950 . S
H571 C580 0.950 . S
H572 C582 0.950 . S
H573 C584 0.950 . S
H574 C586 0.950 . S
H575 C587 0.950 . S
C576 H568 0.950 . S
C576 C577 1.386 . S
C576 C578 1.391 . S
C577 C576 1.386 . S
C577 C581 1.393 . S
C578 H570 0.950 . S
C578 C576 1.391 . S
C578 C579 1.400 . S
C579 C578 1.400 . S
C579 C580 1.398 . S
C579 C585 1.491 . S
C580 H571 0.950 . S
C580 C579 1.398 . S
C580 C581 1.391 . S
C581 H569 0.950 . S
C581 C577 1.393 . S
C581 C580 1.391 . S
C582 H572 0.950 . S
C582 C583 1.386 . S
C582 C584 1.391 . S
C583 C582 1.386 . S
C583 C587 1.393 . S
C584 H573 0.950 . S
C584 C582 1.391 . S
C584 C585 1.400 . S
C585 C579 1.491 . S
C585 C584 1.400 . S
C585 C586 1.398 . S
C586 H574 0.950 . S
C586 C585 1.398 . S
C586 C587 1.391 . S
C587 H575 0.950 . S
C587 C583 1.393 . S
C587 C586 1.391 . S
H588 C596 0.950 . S
H589 C601 0.950 . S
H590 C598 0.950 . S
H591 C600 0.950 . S
H592 C602 0.950 . S
H593 C604 0.950 . S
H594 C606 0.950 . S
H595 C607 0.950 . S
C596 H588 0.950 . S
C596 C597 1.386 . S
C596 C598 1.391 . S
C597 C596 1.386 . S
C597 C601 1.393 . S
C598 H590 0.950 . S
C598 C596 1.391 . S
C598 C599 1.400 . S
C599 C598 1.400 . S
C599 C600 1.398 . S
C599 C605 1.491 . S
C600 H591 0.950 . S
C600 C599 1.398 . S
C600 C601 1.391 . S
C601 H589 0.950 . S
C601 C597 1.393 . S
C601 C600 1.391 . S
C602 H592 0.950 . S
C602 C603 1.386 . S
C602 C604 1.391 . S
C603 C602 1.386 . S
C603 C607 1.393 . S
C604 H593 0.950 . S
C604 C602 1.391 . S
C604 C605 1.400 . S
C605 C599 1.491 . S
C605 C604 1.400 . S
C605 C606 1.398 . S
C606 H594 0.950 . S
C606 C605 1.398 . S
C606 C607 1.391 . S
C607 H595 0.950 . S
C607 C603 1.393 . S
C607 C606 1.391 . S
H608 C616 0.950 . S
H609 C621 0.950 . S
H610 C618 0.950 . S
H611 C620 0.950 . S
H612 C622 0.950 . S
H613 C624 0.950 . S
H614 C626 0.950 . S
H615 C627 0.950 . S
C616 H608 0.950 . S
C616 C617 1.386 . S
C616 C618 1.391 . S
C617 C616 1.386 . S
C617 C621 1.393 . S
C618 H610 0.950 . S
C618 C616 1.391 . S
C618 C619 1.400 . S
C619 C618 1.400 . S
C619 C620 1.398 . S
C619 C625 1.491 . S
C620 H611 0.950 . S
C620 C619 1.398 . S
C620 C621 1.391 . S
C621 H609 0.950 . S
C621 C617 1.393 . S
C621 C620 1.391 . S
C622 H612 0.950 . S
C622 C623 1.386 . S
C622 C624 1.391 . S
C623 C622 1.386 . S
C623 C627 1.393 . S
C624 H613 0.950 . S
C624 C622 1.391 . S
C624 C625 1.400 . S
C625 C619 1.491 . S
C625 C624 1.400 . S
C625 C626 1.398 . S
C626 H614 0.950 . S
C626 C625 1.398 . S
C626 C627 1.391 . S
C627 H615 0.950 . S
C627 C623 1.393 . S
C627 C626 1.391 . S
H628 C636 0.950 . S
H629 C641 0.950 . S
H630 C638 0.950 . S
H631 C640 0.950 . S
H632 C642 0.950 . S
H633 C644 0.950 . S
H634 C646 0.950 . S
H635 C647 0.950 . S
C636 H628 0.950 . S
C636 C637 1.386 . S
C636 C638 1.391 . S
C637 C636 1.386 . S
C637 C641 1.393 . S
C638 H630 0.950 . S
C638 C636 1.391 . S
C638 C639 1.400 . S
C639 C638 1.400 . S
C639 C640 1.398 . S
C639 C645 1.491 . S
C640 H631 0.950 . S
C640 C639 1.398 . S
C640 C641 1.391 . S
C641 H629 0.950 . S
C641 C637 1.393 . S
C641 C640 1.391 . S
C642 H632 0.950 . S
C642 C643 1.386 . S
C642 C644 1.391 . S
C643 C642 1.386 . S
C643 C647 1.393 . S
C644 H633 0.950 . S
C644 C642 1.391 . S
C644 C645 1.400 . S
C645 C639 1.491 . S
C645 C644 1.400 . S
C645 C646 1.398 . S
C646 H634 0.950 . S
C646 C645 1.398 . S
C646 C647 1.391 . S
C647 H635 0.950 . S
C647 C643 1.393 . S
C647 C646 1.391 . S
H648 C656 0.950 . S
H649 C661 0.950 . S
H650 C658 0.950 . S
H651 C660 0.950 . S
H652 C662 0.950 . S
H653 C664 0.950 . S
H654 C666 0.950 . S
H655 C667 0.950 . S
C656 H648 0.950 . S
C656 C657 1.386 . S
C656 C658 1.391 . S
C657 C656 1.386 . S
C657 C661 1.393 . S
C658 H650 0.950 . S
C658 C656 1.391 . S
C658 C659 1.400 . S
C659 C658 1.400 . S
C659 C660 1.398 . S
C659 C665 1.491 . S
C660 H651 0.950 . S
C660 C659 1.398 . S
C660 C661 1.391 . S
C661 H649 0.950 . S
C661 C657 1.393 . S
C661 C660 1.391 . S
C662 H652 0.950 . S
C662 C663 1.386 . S
C662 C664 1.391 1_554 S
C663 C662 1.386 . S
C663 C667 1.393 . S
C664 H653 0.950 . S
C664 C662 1.391 1_556 S
C664 C665 1.400 . S
C665 C659 1.491 . S
C665 C664 1.400 . S
C665 C666 1.398 . S
C666 H654 0.950 . S
C666 C665 1.398 . S
C666 C667 1.391 1_556 S
C667 H655 0.950 . S
C667 C663 1.393 . S
C667 C666 1.391 1_554 S
H668 C676 0.950 . S
H669 C681 0.950 . S
H670 C678 0.950 . S
H671 C680 0.950 . S
H672 C682 0.950 . S
H673 C684 0.950 . S
H674 C686 0.950 . S
H675 C687 0.950 . S
C676 H668 0.950 . S
C676 C677 1.386 . S
C676 C678 1.391 . S
C677 C676 1.386 . S
C677 C681 1.393 . S
C678 H670 0.950 . S
C678 C676 1.391 . S
C678 C679 1.400 . S
C679 C678 1.400 . S
C679 C680 1.398 . S
C679 C685 1.491 . S
C680 H671 0.950 . S
C680 C679 1.398 . S
C680 C681 1.391 . S
C681 H669 0.950 . S
C681 C677 1.393 . S
C681 C680 1.391 . S
C682 H672 0.950 . S
C682 C683 1.386 . S
C682 C684 1.391 . S
C683 C682 1.386 . S
C683 C687 1.393 . S
C684 H673 0.950 . S
C684 C682 1.391 . S
C684 C685 1.400 . S
C685 C679 1.491 . S
C685 C684 1.400 . S
C685 C686 1.398 . S
C686 H674 0.950 . S
C686 C685 1.398 . S
C686 C687 1.391 . S
C687 H675 0.950 . S
C687 C683 1.393 . S
C687 C686 1.391 . S
H688 C696 0.950 . S
H689 C701 0.950 . S
H690 C698 0.950 . S
H691 C700 0.950 . S
H692 C702 0.950 . S
H693 C704 0.950 . S
H694 C706 0.950 . S
H695 C707 0.950 . S
C696 H688 0.950 . S
C696 C697 1.386 . S
C696 C698 1.391 . S
C697 C696 1.386 . S
C697 C701 1.393 . S
C698 H690 0.950 . S
C698 C696 1.391 . S
C698 C699 1.400 . S
C699 C698 1.400 . S
C699 C700 1.398 . S
C699 C705 1.491 . S
C700 H691 0.950 . S
C700 C699 1.398 . S
C700 C701 1.391 . S
C701 H689 0.950 . S
C701 C697 1.393 . S
C701 C700 1.391 . S
C702 H692 0.950 . S
C702 C703 1.386 . S
C702 C704 1.391 1_554 S
C703 C702 1.386 . S
C703 C707 1.393 . S
C704 H693 0.950 . S
C704 C702 1.391 1_556 S
C704 C705 1.400 . S
C705 C699 1.491 . S
C705 C704 1.400 . S
C705 C706 1.398 . S
C706 H694 0.950 . S
C706 C705 1.398 . S
C706 C707 1.391 1_556 S
C707 H695 0.950 . S
C707 C703 1.393 . S
C707 C706 1.391 1_554 S
H708 C716 0.950 . S
H709 C721 0.950 . S
H710 C718 0.950 . S
H711 C720 0.950 . S
H712 C722 0.950 . S
H713 C724 0.950 . S
H714 C726 0.950 . S
H715 C727 0.950 . S
C716 H708 0.950 . S
C716 C717 1.386 . S
C716 C718 1.391 . S
C717 C716 1.386 . S
C717 C721 1.393 . S
C718 H710 0.950 . S
C718 C716 1.391 . S
C718 C719 1.400 . S
C719 C718 1.400 . S
C719 C720 1.398 . S
C719 C725 1.491 . S
C720 H711 0.950 . S
C720 C719 1.398 . S
C720 C721 1.391 . S
C721 H709 0.950 . S
C721 C717 1.393 . S
C721 C720 1.391 . S
C722 H712 0.950 . S
C722 C723 1.386 . S
C722 C724 1.391 . S
C723 C722 1.386 . S
C723 C727 1.393 . S
C724 H713 0.950 . S
C724 C722 1.391 . S
C724 C725 1.400 . S
C725 C719 1.491 . S
C725 C724 1.400 . S
C725 C726 1.398 . S
C726 H714 0.950 . S
C726 C725 1.398 . S
C726 C727 1.391 . S
C727 H715 0.950 . S
C727 C723 1.393 . S
C727 C726 1.391 . S
H728 C736 0.950 . S
H729 C741 0.950 . S
H730 C738 0.950 . S
H731 C740 0.950 . S
H732 C742 0.950 . S
H733 C744 0.950 . S
H734 C746 0.950 . S
H735 C747 0.950 . S
C736 H728 0.950 . S
C736 C737 1.386 . S
C736 C738 1.391 . S
C737 C736 1.386 . S
C737 C741 1.393 . S
C738 H730 0.950 . S
C738 C736 1.391 . S
C738 C739 1.400 . S
C739 C738 1.400 . S
C739 C740 1.398 . S
C739 C745 1.491 . S
C740 H731 0.950 . S
C740 C739 1.398 . S
C740 C741 1.391 . S
C741 H729 0.950 . S
C741 C737 1.393 . S
C741 C740 1.391 . S
C742 H732 0.950 . S
C742 C743 1.386 . S
C742 C744 1.391 1_554 S
C743 C742 1.386 . S
C743 C747 1.393 . S
C744 H733 0.950 . S
C744 C742 1.391 1_556 S
C744 C745 1.400 . S
C745 C739 1.491 . S
C745 C744 1.400 . S
C745 C746 1.398 . S
C746 H734 0.950 . S
C746 C745 1.398 . S
C746 C747 1.391 1_556 S
C747 H735 0.950 . S
C747 C743 1.393 . S
C747 C746 1.391 1_554 S
H748 C756 0.950 . S
H749 C761 0.950 . S
H750 C758 0.950 . S
H751 C760 0.950 . S
H752 C762 0.950 . S
H753 C764 0.950 . S
H754 C766 0.950 . S
H755 C767 0.950 . S
C756 H748 0.950 . S
C756 C757 1.386 . S
C756 C758 1.391 . S
C757 C756 1.386 . S
C757 C761 1.393 . S
C758 H750 0.950 . S
C758 C756 1.391 . S
C758 C759 1.400 . S
C759 C758 1.400 . S
C759 C760 1.398 . S
C759 C765 1.491 . S
C760 H751 0.950 . S
C760 C759 1.398 . S
C760 C761 1.391 . S
C761 H749 0.950 . S
C761 C757 1.393 . S
C761 C760 1.391 . S
C762 H752 0.950 . S
C762 C763 1.386 . S
C762 C764 1.391 . S
C763 C762 1.386 . S
C763 C767 1.393 . S
C764 H753 0.950 . S
C764 C762 1.391 . S
C764 C765 1.400 . S
C765 C759 1.491 . S
C765 C764 1.400 . S
C765 C766 1.398 . S
C766 H754 0.950 . S
C766 C765 1.398 . S
C766 C767 1.391 . S
C767 H755 0.950 . S
C767 C763 1.393 . S
C767 C766 1.391 . S
H768 C776 0.950 . S
H769 C781 0.950 . S
H770 C778 0.950 . S
H771 C780 0.950 . S
H772 C782 0.950 . S
H773 C784 0.950 . S
H774 C786 0.950 . S
H775 C787 0.950 . S
C776 H768 0.950 . S
C776 C777 1.386 . S
C776 C778 1.391 . S
C777 C776 1.386 . S
C777 C781 1.393 . S
C778 H770 0.950 . S
C778 C776 1.391 . S
C778 C779 1.400 . S
C779 C778 1.400 . S
C779 C780 1.398 . S
C779 C785 1.491 . S
C780 H771 0.950 . S
C780 C779 1.398 . S
C780 C781 1.391 . S
C781 H769 0.950 . S
C781 C777 1.393 . S
C781 C780 1.391 . S
C782 H772 0.950 . S
C782 C783 1.386 . S
C782 C784 1.391 . S
C783 C782 1.386 . S
C783 C787 1.393 . S
C784 H773 0.950 . S
C784 C782 1.391 . S
C784 C785 1.400 . S
C785 C779 1.491 . S
C785 C784 1.400 . S
C785 C786 1.398 . S
C786 H774 0.950 . S
C786 C785 1.398 . S
C786 C787 1.391 . S
C787 H775 0.950 . S
C787 C783 1.393 . S
C787 C786 1.391 . S
H788 C796 0.950 . S
H789 C801 0.950 . S
H790 C798 0.950 . S
H791 C800 0.950 . S
H792 C802 0.950 . S
H793 C804 0.950 . S
H794 C806 0.950 . S
H795 C807 0.950 . S
C796 H788 0.950 . S
C796 C797 1.386 . S
C796 C798 1.391 . S
C797 C796 1.386 . S
C797 C801 1.393 . S
C798 H790 0.950 . S
C798 C796 1.391 . S
C798 C799 1.400 . S
C799 C798 1.400 . S
C799 C800 1.398 . S
C799 C805 1.491 . S
C800 H791 0.950 . S
C800 C799 1.398 . S
C800 C801 1.391 . S
C801 H789 0.950 . S
C801 C797 1.393 . S
C801 C800 1.391 . S
C802 H792 0.950 . S
C802 C803 1.386 . S
C802 C804 1.391 1_556 S
C803 C802 1.386 . S
C803 C807 1.393 . S
C804 H793 0.950 . S
C804 C802 1.391 1_554 S
C804 C805 1.400 . S
C805 C799 1.491 . S
C805 C804 1.400 . S
C805 C806 1.398 . S
C806 H794 0.950 . S
C806 C805 1.398 . S
C806 C807 1.391 1_554 S
C807 H795 0.950 . S
C807 C803 1.393 . S
C807 C806 1.391 1_556 S
H808 C816 0.950 . S
H809 C821 0.950 . S
H810 C818 0.950 . S
H811 C820 0.950 . S
H812 C822 0.950 . S
H813 C824 0.950 . S
H814 C826 0.950 . S
H815 C827 0.950 . S
C816 H808 0.950 . S
C816 C817 1.386 . S
C816 C818 1.391 . S
C817 C816 1.386 . S
C817 C821 1.393 . S
C818 H810 0.950 . S
C818 C816 1.391 . S
C818 C819 1.400 . S
C819 C818 1.400 . S
C819 C820 1.398 . S
C819 C825 1.491 . S
C820 H811 0.950 . S
C820 C819 1.398 . S
C820 C821 1.391 . S
C821 H809 0.950 . S
C821 C817 1.393 . S
C821 C820 1.391 . S
C822 H812 0.950 . S
C822 C823 1.386 . S
C822 C824 1.391 . S
C823 C822 1.386 . S
C823 C827 1.393 . S
C824 H813 0.950 . S
C824 C822 1.391 . S
C824 C825 1.400 . S
C825 C819 1.491 . S
C825 C824 1.400 . S
C825 C826 1.398 . S
C826 H814 0.950 . S
C826 C825 1.398 . S
C826 C827 1.391 . S
C827 H815 0.950 . S
C827 C823 1.393 . S
C827 C826 1.391 . S
H828 C836 0.950 . S
H829 C841 0.950 . S
H830 C838 0.950 . S
H831 C840 0.950 . S
H832 C842 0.950 . S
H833 C844 0.950 . S
H834 C846 0.950 . S
H835 C847 0.950 . S
C836 H828 0.950 . S
C836 C837 1.386 . S
C836 C838 1.391 1_556 S
C837 C836 1.386 . S
C837 C841 1.393 . S
C838 H830 0.950 . S
C838 C836 1.391 1_554 S
C838 C839 1.400 . S
C839 C838 1.400 . S
C839 C840 1.398 . S
C839 C845 1.491 . S
C840 H831 0.950 . S
C840 C839 1.398 . S
C840 C841 1.391 1_554 S
C841 H829 0.950 . S
C841 C837 1.393 . S
C841 C840 1.391 1_556 S
C842 H832 0.950 . S
C842 C843 1.386 . S
C842 C844 1.391 . S
C843 C842 1.386 . S
C843 C847 1.393 . S
C844 H833 0.950 . S
C844 C842 1.391 . S
C844 C845 1.400 . S
C845 C839 1.491 . S
C845 C844 1.400 . S
C845 C846 1.398 . S
C846 H834 0.950 . S
C846 C845 1.398 . S
C846 C847 1.391 . S
C847 H835 0.950 . S
C847 C843 1.393 . S
C847 C846 1.391 . S
H848 C856 0.950 . S
H849 C861 0.950 . S
H850 C858 0.950 . S
H851 C860 0.950 . S
H852 C862 0.950 . S
H853 C864 0.950 . S
H854 C866 0.950 . S
H855 C867 0.950 . S
C856 H848 0.950 . S
C856 C857 1.386 . S
C856 C858 1.391 . S
C857 C856 1.386 . S
C857 C861 1.393 . S
C858 H850 0.950 . S
C858 C856 1.391 . S
C858 C859 1.400 . S
C859 C858 1.400 . S
C859 C860 1.398 . S
C859 C865 1.491 . S
C860 H851 0.950 . S
C860 C859 1.398 . S
C860 C861 1.391 . S
C861 H849 0.950 . S
C861 C857 1.393 . S
C861 C860 1.391 . S
C862 H852 0.950 . S
C862 C863 1.386 . S
C862 C864 1.391 . S
C863 C862 1.386 . S
C863 C867 1.393 . S
C864 H853 0.950 . S
C864 C862 1.391 . S
C864 C865 1.400 . S
C865 C859 1.491 . S
C865 C864 1.400 . S
C865 C866 1.398 . S
C866 H854 0.950 . S
C866 C865 1.398 . S
C866 C867 1.391 . S
C867 H855 0.950 . S
C867 C863 1.393 . S
C867 C866 1.391 . S
H868 C876 0.950 . S
H869 C881 0.950 . S
H870 C878 0.950 . S
H871 C880 0.950 . S
H872 C882 0.950 . S
H873 C884 0.950 . S
H874 C886 0.950 . S
H875 C887 0.950 . S
C876 H868 0.950 . S
C876 C877 1.386 . S
C876 C878 1.391 . S
C877 C876 1.386 . S
C877 C881 1.393 . S
C878 H870 0.950 . S
C878 C876 1.391 . S
C878 C879 1.400 . S
C879 C878 1.400 . S
C879 C880 1.398 . S
C879 C885 1.491 . S
C880 H871 0.950 . S
C880 C879 1.398 . S
C880 C881 1.391 . S
C881 H869 0.950 . S
C881 C877 1.393 . S
C881 C880 1.391 . S
C882 H872 0.950 . S
C882 C883 1.386 . S
C882 C884 1.391 1_556 S
C883 C882 1.386 . S
C883 C887 1.393 . S
C884 H873 0.950 . S
C884 C882 1.391 1_554 S
C884 C885 1.400 . S
C885 C879 1.491 . S
C885 C884 1.400 . S
C885 C886 1.398 . S
C886 H874 0.950 . S
C886 C885 1.398 . S
C886 C887 1.391 1_554 S
C887 H875 0.950 . S
C887 C883 1.393 . S
C887 C886 1.391 1_556 S
H888 C896 0.950 . S
H889 C901 0.950 . S
H890 C898 0.950 . S
H891 C900 0.950 . S
H892 C902 0.950 . S
H893 C904 0.950 . S
H894 C906 0.950 . S
H895 C907 0.950 . S
C896 H888 0.950 . S
C896 C897 1.386 . S
C896 C898 1.391 . S
C897 C896 1.386 . S
C897 C901 1.393 . S
C898 H890 0.950 . S
C898 C896 1.391 . S
C898 C899 1.400 . S
C899 C898 1.400 . S
C899 C900 1.398 . S
C899 C905 1.491 . S
C900 H891 0.950 . S
C900 C899 1.398 . S
C900 C901 1.391 . S
C901 H889 0.950 . S
C901 C897 1.393 . S
C901 C900 1.391 . S
C902 H892 0.950 . S
C902 C903 1.386 . S
C902 C904 1.391 . S
C903 C902 1.386 . S
C903 C907 1.393 . S
C904 H893 0.950 . S
C904 C902 1.391 . S
C904 C905 1.400 . S
C905 C899 1.491 . S
C905 C904 1.400 . S
C905 C906 1.398 . S
C906 H894 0.950 . S
C906 C905 1.398 . S
C906 C907 1.391 . S
C907 H895 0.950 . S
C907 C903 1.393 . S
C907 C906 1.391 . S
H908 C916 0.950 . S
H909 C921 0.950 . S
H910 C918 0.950 . S
H911 C920 0.950 . S
H912 C922 0.950 . S
H913 C924 0.950 . S
H914 C926 0.950 . S
H915 C927 0.950 . S
C916 H908 0.950 . S
C916 C917 1.386 . S
C916 C918 1.391 . S
C917 C916 1.386 . S
C917 C921 1.393 . S
C918 H910 0.950 . S
C918 C916 1.391 . S
C918 C919 1.400 . S
C919 C918 1.400 . S
C919 C920 1.398 . S
C919 C925 1.491 . S
C920 H911 0.950 . S
C920 C919 1.398 . S
C920 C921 1.391 . S
C921 H909 0.950 . S
C921 C917 1.393 . S
C921 C920 1.391 . S
C922 H912 0.950 . S
C922 C923 1.386 . S
C922 C924 1.391 . S
C923 C922 1.386 . S
C923 C927 1.393 . S
C924 H913 0.950 . S
C924 C922 1.391 . S
C924 C925 1.400 . S
C925 C919 1.491 . S
C925 C924 1.400 . S
C925 C926 1.398 . S
C926 H914 0.950 . S
C926 C925 1.398 . S
C926 C927 1.391 . S
C927 H915 0.950 . S
C927 C923 1.393 . S
C927 C926 1.391 . S
H928 C936 0.950 . S
H929 C941 0.950 . S
H930 C938 0.950 . S
H931 C940 0.950 . S
H932 C942 0.950 . S
H933 C944 0.950 . S
H934 C946 0.950 . S
H935 C947 0.950 . S
C936 H928 0.950 . S
C936 C937 1.386 . S
C936 C938 1.391 . S
C937 C936 1.386 . S
C937 C941 1.393 . S
C938 H930 0.950 . S
C938 C936 1.391 . S
C938 C939 1.400 . S
C939 C938 1.400 . S
C939 C940 1.398 . S
C939 C945 1.491 . S
C940 H931 0.950 . S
C940 C939 1.398 . S
C940 C941 1.391 . S
C941 H929 0.950 . S
C941 C937 1.393 . S
C941 C940 1.391 . S
C942 H932 0.950 . S
C942 C943 1.386 . S
C942 C944 1.391 . S
C943 C942 1.386 . S
C943 C947 1.393 . S
C944 H933 0.950 . S
C944 C942 1.391 . S
C944 C945 1.400 . S
C945 C939 1.491 . S
C945 C944 1.400 . S
C945 C946 1.398 . S
C946 H934 0.950 . S
C946 C945 1.398 . S
C946 C947 1.391 . S
C947 H935 0.950 . S
C947 C943 1.393 . S
C947 C946 1.391 . S
H948 C956 0.950 . S
H949 C961 0.950 . S
H950 C958 0.950 . S
H951 C960 0.950 . S
H952 C962 0.950 . S
H953 C964 0.950 . S
H954 C966 0.950 . S
H955 C967 0.950 . S
C956 H948 0.950 . S
C956 C957 1.386 . S
C956 C958 1.391 . S
C957 C956 1.386 . S
C957 C961 1.393 . S
C958 H950 0.950 . S
C958 C956 1.391 . S
C958 C959 1.400 . S
C959 C958 1.400 . S
C959 C960 1.398 . S
C959 C965 1.491 . S
C960 H951 0.950 . S
C960 C959 1.398 . S
C960 C961 1.391 . S
C961 H949 0.950 . S
C961 C957 1.393 . S
C961 C960 1.391 . S
C962 H952 0.950 . S
C962 C963 1.386 . S
C962 C964 1.391 . S
C963 C962 1.386 . S
C963 C967 1.393 . S
C964 H953 0.950 . S
C964 C962 1.391 . S
C964 C965 1.400 . S
C965 C959 1.491 . S
C965 C964 1.400 . S
C965 C966 1.398 . S
C966 H954 0.950 . S
C966 C965 1.398 . S
C966 C967 1.391 . S
C967 H955 0.950 . S
C967 C963 1.393 . S
C967 C966 1.391 . S
H968 C976 0.950 . S
H969 C981 0.950 . S
H970 C978 0.950 . S
H971 C980 0.950 . S
H972 C982 0.950 . S
H973 C984 0.950 . S
H974 C986 0.950 . S
H975 C987 0.950 . S
C976 H968 0.950 . S
C976 C977 1.386 . S
C976 C978 1.391 . S
C977 C976 1.386 . S
C977 C981 1.393 . S
C978 H970 0.950 . S
C978 C976 1.391 . S
C978 C979 1.400 . S
C979 C978 1.400 . S
C979 C980 1.398 . S
C979 C985 1.491 . S
C980 H971 0.950 . S
C980 C979 1.398 . S
C980 C981 1.391 . S
C981 H969 0.950 . S
C981 C977 1.393 . S
C981 C980 1.391 . S
C982 H972 0.950 . S
C982 C983 1.386 . S
C982 C984 1.391 . S
C983 C982 1.386 . S
C983 C987 1.393 . S
C984 H973 0.950 . S
C984 C982 1.391 . S
C984 C985 1.400 . S
C985 C979 1.491 . S
C985 C984 1.400 . S
C985 C986 1.398 . S
C986 H974 0.950 . S
C986 C985 1.398 . S
C986 C987 1.391 . S
C987 H975 0.950 . S
C987 C983 1.393 . S
C987 C986 1.391 . S
H988 C996 0.950 . S
H989 C1001 0.950 . S
H990 C998 0.950 . S
H991 C1000 0.950 . S
H992 C1002 0.950 . S
H993 C1004 0.950 . S
H994 C1006 0.950 . S
H995 C1007 0.950 . S
C996 H988 0.950 . S
C996 C997 1.386 . S
C996 C998 1.391 . S
C997 C996 1.386 . S
C997 C1001 1.393 . S
C998 H990 0.950 . S
C998 C996 1.391 . S
C998 C999 1.400 . S
C999 C998 1.400 . S
C999 C1000 1.398 . S
C999 C1005 1.491 . S
C1000 H991 0.950 . S
C1000 C999 1.398 . S
C1000 C1001 1.391 . S
C1001 H989 0.950 . S
C1001 C997 1.393 . S
C1001 C1000 1.391 . S
C1002 H992 0.950 . S
C1002 C1003 1.386 . S
C1002 C1004 1.391 . S
C1003 C1002 1.386 . S
C1003 C1007 1.393 . S
C1004 H993 0.950 . S
C1004 C1002 1.391 . S
C1004 C1005 1.400 . S
C1005 C999 1.491 . S
C1005 C1004 1.400 . S
C1005 C1006 1.398 . S
C1006 H994 0.950 . S
C1006 C1005 1.398 . S
C1006 C1007 1.391 . S
C1007 H995 0.950 . S
C1007 C1003 1.393 . S
C1007 C1006 1.391 . S
C417 C2 1.603 . S
C423 C376 1.601 . S
C437 C36 1.600 . S
C443 C206 1.596 . S
C457 C240 1.590 . S
C463 C70 1.593 . S
C477 C274 1.589 . S
C483 C104 1.588 . S
C497 C308 1.590 . S
C503 C138 1.588 . S
C517 C172 1.591 . S
C523 C342 1.589 . S
C537 C305 1.607 . S
C543 C33 1.605 . S
C557 C339 1.604 . S
C563 C67 1.603 . S
C577 C101 1.602 . S
C583 C373 1.603 . S
C597 C135 1.604 . S
C603 C407 1.606 . S
C617 C237 1.604 . S
C623 C169 1.602 . S
C637 C203 1.604 . S
C643 C271 1.607 . S
C657 C9 1.157 . S
C663 C5 1.172 . S
C677 C39 1.176 . S
C683 C43 1.145 . S
C697 C77 1.156 . S
C703 C73 1.173 . S
C717 C107 1.176 . S
C723 C111 1.141 . S
C737 C145 1.130 . S
C743 C141 1.170 . S
C757 C175 1.168 . S
C763 C179 1.158 . S
C777 C209 1.172 . S
C783 C213 1.132 . S
C797 C247 1.157 . S
C803 C243 1.173 . S
C817 C277 1.159 . S
C823 C281 1.128 . S
C837 C311 1.159 . S
C843 C315 1.128 . S
C857 C349 1.148 . S
C863 C345 1.158 . S
C877 C383 1.153 . S
C883 C379 1.161 . S
C897 C20 1.560 . S
C903 C360 1.563 . S
C917 C394 1.567 . S
C923 C54 1.565 . S
C937 C224 1.565 . S
C943 C88 1.562 . S
C957 C122 1.567 . S
C963 C258 1.568 . S
C977 C156 1.556 . S
C983 C292 1.558 . S
C997 C190 1.564 . S
C1003 C326 1.566 . S
