# Generated by pormake.
# Topology bto, (3)-cn, num edge types: 1
# Building blocks:
#     Node 0, Type 0, BuildingBlock: WUSLED_clean_sbu_0, # of connection points: 3
#     Node 1, Type 0, BuildingBlock: WUSLED_clean_sbu_0, # of connection points: 3
#     Node 2, Type 0, BuildingBlock: WUSLED_clean_sbu_0, # of connection points: 3
#     Node 3, Type 0, BuildingBlock: WUSLED_clean_sbu_0, # of connection points: 3
#     Node 4, Type 0, BuildingBlock: WUSLED_clean_sbu_0, # of connection points: 3
#     Node 5, Type 0, BuildingBlock: WUSLED_clean_sbu_0, # of connection points: 3
#     Edge 6, Type (0, 0), BuildingBlock: XUDNAN_clean_linker_2, # of connection points: 2
#     Edge 7, Type (0, 0), BuildingBlock: XUDNAN_clean_linker_2, # of connection points: 2
#     Edge 8, Type (0, 0), BuildingBlock: XUDNAN_clean_linker_2, # of connection points: 2
#     Edge 9, Type (0, 0), BuildingBlock: XUDNAN_clean_linker_2, # of connection points: 2
#     Edge 10, Type (0, 0), BuildingBlock: XUDNAN_clean_linker_2, # of connection points: 2
#     Edge 11, Type (0, 0), BuildingBlock: XUDNAN_clean_linker_2, # of connection points: 2
#     Edge 12, Type (0, 0), BuildingBlock: XUDNAN_clean_linker_2, # of connection points: 2
#     Edge 13, Type (0, 0), BuildingBlock: XUDNAN_clean_linker_2, # of connection points: 2
#     Edge 14, Type (0, 0), BuildingBlock: XUDNAN_clean_linker_2, # of connection points: 2
# Relax obj value: 0.000
# Max RMSD: 0.003
# Mean RMSD: 0.003
data_MOF--net-bto--node1-WUSLED_clean_sbu_0--edge1-XUDNAN_clean_linker_2
_symmetry_space_group_name_H-M    P1
_symmetry_Int_Tables_number       1
_symmetry_cell_setting            triclinic
loop_
_symmetry_equiv_pos_as_xyz
'x, y, z'
_cell_length_a     39.914334
_cell_length_b     39.932545
_cell_length_c     100.42817
_cell_angle_alpha  88.84392
_cell_angle_beta   90.763201
_cell_angle_gamma 119.78022
loop_
_atom_site_label
_atom_site_type_symbol
_atom_site_fract_x
_atom_site_fract_y
_atom_site_fract_z
_atom_type_partial_charge
C0 C 0.98862 0.51783 0.05109 0.0
C1 C 0.96374 0.52517 0.05869 0.0
C2 C 0.91991 0.50991 0.0397 0.0
C3 C 0.9297 0.52137 0.05302 0.0
C4 C 0.94534 0.50312 0.03214 0.0
C5 C 0.97927 0.50703 0.03779 0.0
U6 U 0.05649 0.52796 0.08032 0.0
O7 O 0.08876 0.49719 0.08403 0.0
O8 O 0.12003 0.56007 0.08109 0.0
C9 C 0.12251 0.5286 0.08268 0.0
C10 C 1.02413 0.5206 0.05678 0.0
C11 C 0.15068 0.52507 0.07431 0.0
C12 C 0.18351 0.53256 0.05325 0.0
C13 C 0.15653 0.53671 0.06084 0.0
C14 C 0.19885 0.50508 0.07249 0.0
C15 C 0.20477 0.51637 0.05898 0.0
C16 C 0.17215 0.5094 0.08005 0.0
C17 C 1.03073 0.53654 0.11623 0.0
C18 C 0.07555 0.55338 0.13485 0.0
C19 C 1.00782 0.53025 0.13896 0.0
C20 C 1.00059 0.52669 0.12524 0.0
C21 C 0.04544 0.54389 0.14395 0.0
C22 C 0.06824 0.54962 0.12112 0.0
C23 C 1.02247 0.53301 0.10181 0.0
O24 O 0.04926 0.5541 0.06178 0.0
O25 O 1.01935 0.4911 0.06421 0.0
O26 O 1.01477 0.49998 0.09663 0.0
O27 O 0.04564 0.56302 0.09438 0.0
H28 H 0.97047 0.53347 0.06901 0.0
H29 H 0.91064 0.52654 0.05914 0.0
H30 H 0.93911 0.4949 1.02181 0.0
H31 H 0.99818 0.50139 0.03175 0.0
H32 H 0.18717 0.54127 0.04285 0.0
H33 H 0.14014 0.54877 0.05619 0.0
H34 H 0.21511 0.4931 0.07729 0.0
H35 H 0.16819 0.50039 0.09043 0.0
H36 H 0.10476 0.56349 0.13836 0.0
H37 H 0.98405 0.52308 0.14566 0.0
H38 H 0.97143 0.51649 0.12165 0.0
H39 H 0.09186 0.55704 0.11433 0.0
C40 C 0.63784 0.12709 0.38838 0.0
C41 C 0.65637 0.15503 0.39819 0.0
C42 C 0.70806 0.19541 0.38266 0.0
C43 C 0.69104 0.18889 0.39535 0.0
C44 C 0.68906 0.16738 0.37283 0.0
C45 C 0.65431 0.13358 0.37568 0.0
U46 U 0.56628 0.05246 0.41308 0.0
O47 O 0.50283 1.0189 0.41267 0.0
O48 O 0.53632 0.98893 0.41257 0.0
C49 C 0.50199 0.98573 0.41159 0.0
C50 C 0.60202 0.09068 0.39134 0.0
C51 C 0.47653 0.9599 0.40112 0.0
C52 C 0.45113 0.94867 0.3785 0.0
C53 C 0.47583 0.97377 0.38823 0.0
C54 C 0.42775 0.89549 0.39439 0.0
C55 C 0.42679 0.90913 0.38144 0.0
C56 C 0.45235 0.92063 0.40412 0.0
C57 C 0.58717 0.06967 0.45058 0.0
C58 C 0.55037 1.02207 0.46776 0.0
C59 C 0.60345 0.08447 0.47395 0.0
C60 C 0.61005 0.09538 0.46049 0.0
C61 C 0.57382 0.04749 0.47776 0.0
C62 C 0.557 0.03306 0.45429 0.0
C63 C 0.59615 0.08106 0.43647 0.0
O64 O 0.60693 0.0632 0.39677 0.0
O65 O 0.57431 0.09403 0.39699 0.0
O66 O 0.57222 0.08931 0.43002 0.0
O67 O 0.60617 0.05987 0.42954 0.0
H68 H 0.64414 0.15054 0.40808 0.0
H69 H 0.70446 0.21001 0.40311 0.0
H70 H 0.70147 0.17108 0.36302 0.0
H71 H 0.64052 0.11224 0.368 0.0
H72 H 0.45086 0.96038 0.36871 0.0
H73 H 0.49427 1.00401 0.38571 0.0
H74 H 0.40995 0.86522 0.39699 0.0
H75 H 0.45257 0.90935 0.414 0.0
H76 H 0.52697 0.99358 0.47034 0.0
H77 H 0.62237 0.1046 0.48133 0.0
H78 H 0.63355 0.12374 0.4578 0.0
H79 H 0.53893 1.01286 0.44676 0.0
C80 C 0.56717 0.60252 0.71675 0.0
C81 C 0.56116 0.62766 0.72467 0.0
C82 C 0.57787 0.67315 0.70597 0.0
C83 C 0.56633 0.66263 0.7193 0.0
C84 C 0.5835 0.64758 0.6981 0.0
C85 C 0.57821 0.61268 0.70345 0.0
U86 U 0.55588 0.534 0.74585 0.0
O87 O 0.51882 0.471 0.74771 0.0
O88 O 0.58179 0.49688 0.74885 0.0
C89 C 0.54823 0.46489 0.74864 0.0
C90 C 0.56249 0.56584 0.72216 0.0
C91 C 0.54581 0.43335 0.74055 0.0
C92 C 0.54281 0.4037 0.71928 0.0
C93 C 0.54646 0.43503 0.72657 0.0
C94 C 0.53835 0.36922 0.73989 0.0
C95 C 0.53822 0.37019 0.72588 0.0
C96 C 0.54206 0.40041 0.74712 0.0
C97 C 0.55314 0.56551 0.78193 0.0
C98 C 0.58277 0.57162 0.80383 0.0
C99 C 0.51525 0.55306 0.80213 0.0
C100 C 0.51796 0.55502 0.78823 0.0
C101 C 0.54774 0.5619 0.81012 0.0
C102 C 0.58549 0.57355 0.7899 0.0
C103 C 0.55647 0.5713 0.76723 0.0
O104 O 0.59203 0.56847 0.72897 0.0
O105 O 0.52908 0.54246 0.72776 0.0
O106 O 0.52515 0.5499 0.76021 0.0
O107 O 0.58801 0.57559 0.76163 0.0
H108 H 0.55274 0.62035 0.735 0.0
H109 H 0.56208 0.68177 0.72567 0.0
H110 H 0.5918 0.65442 0.68775 0.0
H111 H 0.58285 0.59361 0.69717 0.0
H112 H 0.54264 0.40533 0.7085 0.0
H113 H 0.54935 0.4603 0.72132 0.0
H114 H 0.53562 0.34426 0.74531 0.0
H115 H 0.54172 0.39866 0.75791 0.0
H116 H 0.60849 0.57906 0.80965 0.0
H117 H 0.48766 0.54494 0.80661 0.0
H118 H 0.49258 0.54904 0.78242 0.0
H119 H 0.61321 0.58226 0.78542 0.0
C120 C 0.56742 0.97173 0.66657 0.0
C121 C 0.57773 0.95372 0.65687 0.0
C122 C 0.57682 0.90787 0.67351 0.0
C123 C 0.58244 0.92216 0.6603 0.0
C124 C 0.56569 0.92557 0.68313 0.0
C125 C 0.56114 0.95728 0.67969 0.0
U126 U 0.56409 0.04056 0.64054 0.0
O127 O 0.5282 0.06817 0.63908 0.0
O128 O 0.59118 0.10391 0.64037 0.0
C129 C 0.55787 0.10315 0.64031 0.0
C130 C 0.56385 1.00588 0.6631 0.0
C131 C 0.55371 0.1275 0.65025 0.0
C132 C 0.54423 0.14023 0.67307 0.0
C133 C 0.54898 0.11714 0.66381 0.0
C134 C 0.54949 0.18461 0.65535 0.0
C135 C 0.54417 0.17417 0.66894 0.0
C136 C 0.55416 0.16146 0.6461 0.0
C137 C 0.57278 1.01617 0.60372 0.0
C138 C 0.55223 0.03289 0.58288 0.0
C139 C 0.59165 1.00241 0.58253 0.0
C140 C 0.59259 1.00196 0.59643 0.0
C141 C 0.57081 1.0171 0.57557 0.0
C142 C 0.55308 0.03229 0.59688 0.0
C143 C 0.57104 1.01085 0.61832 0.0
O144 O 0.59501 0.03531 0.65804 0.0
O145 O 0.53218 0.99886 0.65668 0.0
O146 O 0.53769 1.00033 0.624 0.0
O147 O 0.60079 0.03632 0.62519 0.0
H148 H 0.58246 0.96431 0.64666 0.0
H149 H 0.59042 0.90888 0.65259 0.0
H150 H 0.56145 0.91554 0.6934 0.0
H151 H 0.55314 0.9708 0.68731 0.0
H152 H 0.54077 0.13157 0.68347 0.0
H153 H 0.54877 0.09112 0.66721 0.0
H154 H 0.54917 0.21023 0.65178 0.0
H155 H 0.55777 0.16991 0.63567 0.0
H156 H 0.53587 0.04434 0.57781 0.0
H157 H 0.60686 0.99069 0.57721 0.0
H158 H 0.60803 0.98948 0.60151 0.0
H159 H 0.53757 0.04344 0.60232 0.0
C160 C 0.62747 0.52734 0.99789 0.0
C161 C 0.64574 0.51707 0.98824 0.0
C162 C 0.69111 0.5178 1.00495 0.0
C163 C 0.67719 0.51227 0.99174 0.0
C164 C 0.67327 0.52907 1.01448 0.0
C165 C 0.6417 0.53369 1.01098 0.0
U166 U 0.56014 0.53771 0.97265 0.0
O167 O 0.49679 0.50793 0.97179 0.0
O168 O 0.52952 0.57078 0.97396 0.0
C169 C 0.49529 0.53961 0.97375 0.0
C170 C 0.59302 0.53047 0.99455 0.0
C171 C 0.46771 0.53673 0.98395 0.0
C172 C 0.43839 0.5158 1.00582 0.0
C173 C 0.46674 0.52091 0.99664 0.0
C174 C 0.41241 0.54337 0.98989 0.0
C175 C 0.41051 0.52648 1.0025 0.0
C176 C 0.44069 0.54836 0.98072 0.0
C177 C 0.58311 0.54572 0.93534 0.0
C178 C 0.53847 0.5417 0.91789 0.0
C179 C 0.60405 0.55919 0.91226 0.0
C180 C 0.61184 0.55602 0.92571 0.0
C181 C 0.56724 0.55206 0.90815 0.0
C182 C 0.54636 0.53864 0.93135 0.0
C183 C 0.59194 0.54228 0.94942 0.0
O184 O 0.59965 0.56399 0.98966 0.0
O185 O 0.56539 0.50103 0.9882 0.0
O186 O 0.56832 0.50942 0.95542 0.0
O187 O 0.601 0.57248 0.95678 0.0
H188 H 0.63537 0.51232 0.97805 0.0
H189 H 0.69059 0.50415 0.98411 0.0
H190 H 0.68299 0.53323 1.02475 0.0
H191 H 0.62799 0.54165 1.01856 0.0
H192 H 0.43815 0.50324 1.0155 0.0
H193 H 0.48749 0.51192 0.99936 0.0
H194 H 0.39126 0.55158 0.98694 0.0
H195 H 0.44094 0.56056 0.97096 0.0
H196 H 0.50968 0.53552 0.9151 0.0
H197 H 0.62708 0.56781 0.90511 0.0
H198 H 0.64043 0.56172 0.92861 0.0
H199 H 0.52376 0.5306 0.93865 0.0
C200 C 1.00081 0.49361 0.33595 0.0
C201 C 0.9784 0.45943 0.3289 0.0
C202 C 0.9393 0.42875 0.34869 0.0
C203 C 0.94783 0.42726 0.33521 0.0
C204 C 0.9613 0.46351 0.35553 0.0
C205 C 0.9917 0.4955 0.34923 0.0
U206 U 0.06317 0.55438 0.30617 0.0
O207 O 0.09443 0.61763 0.30337 0.0
O208 O 0.12639 0.586 0.30425 0.0
C209 C 0.12842 0.61987 0.30352 0.0
C210 C 1.03452 0.52727 0.32993 0.0
C211 C 0.15887 0.65105 0.31149 0.0
C212 C 0.20103 0.67432 0.33094 0.0
C213 C 0.16972 0.64437 0.32421 0.0
C214 C 0.21011 0.71795 0.31248 0.0
C215 C 0.22207 0.7113 0.32502 0.0
C216 C 0.17894 0.68816 0.30581 0.0
C217 C 1.03466 0.52382 0.27009 0.0
C218 C 0.07877 0.54814 0.25128 0.0
C219 C 1.00993 0.51874 0.24749 0.0
C220 C 1.00355 0.51228 0.26122 0.0
C221 C 0.04765 0.5368 0.24232 0.0
C222 C 0.07237 0.54191 0.26501 0.0
C223 C 1.02729 0.51723 0.28454 0.0
O224 O 0.05974 0.52036 0.32411 0.0
O225 O 1.02747 0.55164 0.32317 0.0
O226 O 1.01945 0.54156 0.29048 0.0
O227 O 0.05105 0.50967 0.29144 0.0
H228 H 0.98495 0.45744 0.31861 0.0
H229 H 0.93163 0.40092 0.32967 0.0
H230 H 0.95511 0.46599 0.36582 0.0
H231 H 1.00849 0.52169 0.35481 0.0
H232 H 0.20956 0.6682 0.34055 0.0
H233 H 0.15456 0.61592 0.3288 0.0
H234 H 0.2251 0.7462 0.30774 0.0
H235 H 0.17094 0.69398 0.29604 0.0
H236 H 0.10817 0.5616 0.2477 0.0
H237 H 0.98527 0.51016 0.24097 0.0
H238 H 0.97424 0.49848 0.26493 0.0
H239 H 0.09692 0.55125 0.27165 0.0
H240 H 1.00245 0.49506 0.16447 0.0
H241 H 0.10606 0.60448 0.15647 0.0
H242 H 0.11849 0.61402 0.18063 0.0
H243 H 0.97256 0.52495 0.19322 0.0
H244 H 0.95511 0.4796 0.20204 0.0
H245 H 0.95486 0.48084 0.1841 0.0
H246 H 0.9952 0.44625 0.18379 0.0
H247 H 0.99549 0.44481 0.20173 0.0
H248 H 0.0404 0.46661 0.19273 0.0
H249 H 0.11836 0.6128 0.20572 0.0
H250 H 0.10672 0.60023 0.22982 0.0
H251 H 1.00403 0.49069 0.22154 0.0
C252 C 1.0277 0.52109 0.16779 0.0
C253 C 0.05332 0.54901 0.15853 0.0
C254 C 0.08628 0.58245 0.16333 0.0
C255 C 0.09347 0.58823 0.17705 0.0
C256 C 0.06755 0.56025 0.18589 0.0
C257 C 1.03542 0.52724 0.18146 0.0
C258 C 1.0121 0.50168 0.19304 0.0
C259 C 0.97124 0.49648 0.1931 0.0
C260 C 1.01074 0.46252 0.1928 0.0
C261 C 1.03591 0.52564 0.20469 0.0
C262 C 0.06777 0.55931 0.20034 0.0
C263 C 0.09369 0.58635 0.20924 0.0
C264 C 0.08694 0.57878 0.22295 0.0
C265 C 0.05457 0.54431 0.22769 0.0
C266 C 1.02885 0.51749 0.21833 0.0
H267 H 0.57733 0.07221 0.55703 0.0
H268 H 0.5559 0.9547 0.56072 0.0
H269 H 0.55205 0.94915 0.53628 0.0
H270 H 0.51337 0.05578 0.52844 0.0
H271 H 0.54518 0.10193 0.52075 0.0
H272 H 0.54467 0.09633 0.53861 0.0
H273 H 0.61833 0.12175 0.53854 0.0
H274 H 0.61905 0.12733 0.5207 0.0
H275 H 0.63738 0.09843 0.52837 0.0
H276 H 0.55247 0.95662 0.51152 0.0
H277 H 0.55825 0.97709 0.48795 0.0
H278 H 0.57866 0.08959 0.49997 0.0
C279 C 0.57138 0.0452 0.55268 0.0
C280 C 0.56712 1.01395 0.56081 0.0
C281 C 0.5598 0.97922 0.55471 0.0
C282 C 0.55731 0.97568 0.54083 0.0
C283 C 0.56211 1.00709 0.53311 0.0
C284 C 0.56896 0.0412 0.53878 0.0
C285 C 0.57422 0.0709 0.52812 0.0
C286 C 0.54246 0.08188 0.52904 0.0
C287 C 0.61465 0.10672 0.52899 0.0
C288 C 0.56971 0.04827 0.51562 0.0
C289 C 0.56244 1.01143 0.51875 0.0
C290 C 0.55782 0.98529 0.50894 0.0
C291 C 0.56091 0.99714 0.49555 0.0
C292 C 0.56867 0.03488 0.49204 0.0
C293 C 0.57292 0.06062 0.50228 0.0
H294 H 0.59229 0.53072 0.88606 0.0
H295 H 0.52402 0.58254 0.8977 0.0
H296 H 0.51068 0.58934 0.87405 0.0
H297 H 0.63595 0.59214 0.85738 0.0
H298 H 0.63494 0.55441 0.84753 0.0
H299 H 0.63828 0.55256 0.8654 0.0
H300 H 0.57739 0.48466 0.86586 0.0
H301 H 0.57385 0.48631 0.84799 0.0
H302 H 0.53341 0.47781 0.85816 0.0
H303 H 0.50562 0.59164 0.84913 0.0
H304 H 0.50937 0.58954 0.82471 0.0
H305 H 0.58127 0.53661 0.82912 0.0
C306 C 0.57474 0.54374 0.88366 0.0
C307 C 0.55909 0.55593 0.89382 0.0
C308 C 0.53584 0.57236 0.89017 0.0
C309 C 0.52829 0.57659 0.87674 0.0
C310 C 0.5442 0.56433 0.86702 0.0
C311 C 0.56696 0.54826 0.87029 0.0
C312 C 0.58082 0.53776 0.8579 0.0
C313 C 0.62513 0.56059 0.857 0.0
C314 C 0.56544 0.49403 0.85745 0.0
C315 C 0.56243 0.55059 0.84714 0.0
C316 C 0.54135 0.56573 0.85263 0.0
C317 C 0.52186 0.57964 0.84472 0.0
C318 C 0.52396 0.57807 0.83083 0.0
C319 C 0.54539 0.56266 0.82492 0.0
C320 C 0.56487 0.5488 0.83327 0.0
H321 H 0.25834 0.56628 0.04066 0.0
H322 H 0.21417 0.45304 0.05919 0.0
H323 H 0.26193 0.44373 0.04691 0.0
H324 H 0.27705 0.54041 1.00818 0.0
H325 H 0.32068 0.58586 1.00557 0.0
H326 H 0.28259 0.58354 1.01567 0.0
H327 H 0.33081 0.61425 0.03521 0.0
H328 H 0.36899 0.61651 1.02519 0.0
H329 H 0.35804 0.59197 0.04114 0.0
H330 H 0.31501 0.44686 0.03301 0.0
H331 H 0.36889 0.46152 1.01787 0.0
H332 H 0.37927 0.57277 1.00821 0.0
C333 C 0.25844 0.53936 0.04202 0.0
C334 C 0.23258 0.51048 0.05098 0.0
C335 C 0.23401 0.47584 0.05256 0.0
C336 C 0.26093 0.47019 0.04557 0.0
C337 C 0.28632 0.49938 0.03698 0.0
C338 C 0.28527 0.53323 0.03512 0.0
C339 C 0.3162 0.56013 1.02539 0.0
C340 C 0.29803 0.56793 1.01296 0.0
C341 C 0.34523 0.59795 0.03214 0.0
C342 C 0.33469 0.53605 1.02208 0.0
C343 C 0.31702 0.50115 0.02891 0.0
C344 C 0.32913 0.47413 0.02762 0.0
C345 C 0.36 0.48287 1.01906 0.0
C346 C 0.37856 0.51837 1.01187 0.0
C347 C 0.36556 0.54524 1.01346 0.0
H348 H 0.73169 0.24001 0.35955 0.0
H349 H 0.77078 0.2306 0.3993 0.0
H350 H 0.8335 0.28871 0.39485 0.0
H351 H 0.82292 0.27091 0.34315 0.0
H352 H 0.81778 0.30361 0.33179 0.0
H353 H 0.77553 0.26141 0.33809 0.0
H354 H 0.74923 0.30447 0.34684 0.0
H355 H 0.79137 0.34679 0.34056 0.0
H356 H 0.77866 0.34344 0.35788 0.0
H357 H 0.89207 0.34751 0.38619 0.0
H358 H 0.94268 0.40355 0.37393 0.0
H359 H 0.86657 0.37518 0.33961 0.0
C360 C 0.75351 0.24995 0.3673 0.0
C361 C 0.74599 0.23067 0.37984 0.0
C362 C 0.77536 0.24509 0.38972 0.0
C363 C 0.81128 0.27797 0.38725 0.0
C364 C 0.81764 0.2962 0.37482 0.0
C365 C 0.78965 0.28276 0.36499 0.0
C366 C 0.80404 0.30788 0.3525 0.0
C367 C 0.80513 0.28455 0.34068 0.0
C368 C 0.77936 0.32677 0.34926 0.0
C369 C 0.84446 0.33759 0.35687 0.0
C370 C 0.85163 0.33022 0.36979 0.0
C371 C 0.88674 0.35365 0.37609 0.0
C372 C 0.91526 0.3856 0.36905 0.0
C373 C 0.90864 0.39408 0.35582 0.0
C374 C 0.87271 0.36942 0.34966 0.0
H375 H 0.5336 0.84541 0.69021 0.0
H376 H 0.6358 0.89694 0.66532 0.0
H377 H 0.64743 0.8433 0.67119 0.0
H378 H 0.57246 0.81066 0.71646 0.0
H379 H 0.52755 0.7666 0.71927 0.0
H380 H 0.52723 0.80923 0.71322 0.0
H381 H 0.48565 0.77139 0.69299 0.0
H382 H 0.48582 0.72865 0.69897 0.0
H383 H 0.50245 0.74692 0.68238 0.0
H384 H 0.64802 0.78414 0.67958 0.0
H385 H 0.63712 0.72283 0.68975 0.0
H386 H 0.53447 0.70896 0.70926 0.0
C387 C 0.55861 0.84559 0.68609 0.0
C388 C 0.58369 0.87542 0.67724 0.0
C389 C 0.61582 0.87421 0.67194 0.0
C390 C 0.62284 0.84397 0.67529 0.0
C391 C 0.59752 0.81502 0.68397 0.0
C392 C 0.56603 0.8155 0.6893 0.0
C393 C 0.54299 0.7804 0.69824 0.0
C394 C 0.54255 0.79245 0.71265 0.0
C395 C 0.50179 0.75536 0.69282 0.0
C396 C 0.56647 0.76017 0.69708 0.0
C397 C 0.59781 0.78072 0.68881 0.0
C398 C 0.62352 0.76775 0.68605 0.0
C399 C 0.61694 0.73273 0.69182 0.0
C400 C 0.58482 0.71085 0.70026 0.0
C401 C 0.55947 0.72509 0.70297 0.0
H402 H 0.88594 0.55532 0.04214 0.0
H403 H 0.87029 0.45116 1.02363 0.0
H404 H 0.81063 0.44218 1.01282 0.0
H405 H 0.78432 0.52035 0.04855 0.0
H406 H 0.78762 0.56627 0.04491 0.0
H407 H 0.82903 0.56445 0.05135 0.0
H408 H 0.86933 0.60522 0.03114 0.0
H409 H 0.82802 0.60705 1.02461 0.0
H410 H 0.85229 0.58888 1.01451 0.0
H411 H 0.75335 0.44481 1.00368 0.0
H412 H 0.70121 0.45809 0.9972 0.0
H413 H 0.75313 0.56036 1.02162 0.0
C414 C 0.86974 0.53041 0.03593 0.0
C415 C 0.88306 0.50409 0.03368 0.0
C416 C 0.86113 0.47209 1.02534 0.0
C417 C 0.82704 0.4666 1.01921 0.0
C418 C 0.81502 0.49327 1.0215 0.0
C419 C 0.83555 0.52448 0.02969 0.0
C420 C 0.81633 0.54903 0.03035 0.0
C421 C 0.80356 0.55007 0.04464 0.0
C422 C 0.84309 0.58997 1.02482 0.0
C423 C 0.78184 0.52671 1.02125 0.0
C424 C 0.78174 0.4947 1.01625 0.0
C425 C 0.75313 0.46982 1.00752 0.0
C426 C 0.72376 0.47777 1.00382 0.0
C427 C 0.72305 0.51035 1.00884 0.0
C428 C 0.7526 0.53504 1.0177 0.0
H429 H 0.35238 0.84789 0.38423 0.0
H430 H 0.4428 0.90892 0.35495 0.0
H431 H 0.40049 0.86493 0.33759 0.0
H432 H 0.31873 0.75221 0.37127 0.0
H433 H 0.26868 0.73577 0.37473 0.0
H434 H 0.30591 0.77223 0.38492 0.0
H435 H 0.27841 0.81788 0.37997 0.0
H436 H 0.24111 0.78158 0.36977 0.0
H437 H 0.27244 0.82909 0.36293 0.0
H438 H 0.34866 0.81467 0.32336 0.0
H439 H 0.2906 0.76149 0.31313 0.0
H440 H 0.23355 0.73191 0.35155 0.0
C441 C 0.36349 0.85185 0.3742 0.0
C442 C 0.40104 0.88219 0.37099 0.0
C443 C 0.41404 0.88648 0.35767 0.0
C444 C 0.39029 0.8614 0.34773 0.0
C445 C 0.35356 0.83195 0.35124 0.0
C446 C 0.34019 0.82697 0.36415 0.0
C447 C 0.29941 0.793 0.36522 0.0
C448 C 0.29812 0.76144 0.37459 0.0
C449 C 0.27118 0.80619 0.36974 0.0
C450 C 0.29191 0.7798 0.35089 0.0
C451 C 0.3236 0.80272 0.34301 0.0
C452 C 0.32365 0.79659 0.32942 0.0
C453 C 0.29038 0.76642 0.32369 0.0
C454 C 0.25731 0.7426 0.33149 0.0
C455 C 0.25838 0.74936 0.34532 0.0
H456 H 0.58018 0.25371 0.67038 0.0
H457 H 0.49274 0.14846 0.68961 0.0
H458 H 0.48117 0.18715 0.70582 0.0
H459 H 0.61887 0.30823 0.70016 0.0
H460 H 0.62684 0.35311 0.69278 0.0
H461 H 0.62814 0.31723 0.68256 0.0
H462 H 0.57575 0.31736 0.66709 0.0
H463 H 0.57422 0.3532 0.67728 0.0
H464 H 0.53062 0.30837 0.6741 0.0
H465 H 0.4789 0.23684 0.71996 0.0
H466 H 0.48705 0.29435 0.73148 0.0
H467 H 0.57594 0.36804 0.70324 0.0
C468 C 0.55837 0.23877 0.67793 0.0
C469 C 0.53749 0.1979 0.67872 0.0
C470 C 0.50957 0.17963 0.68889 0.0
C471 C 0.50256 0.20138 0.6981 0.0
C472 C 0.52363 0.24148 0.69704 0.0
C473 C 0.551 0.26008 0.68724 0.0
C474 C 0.56999 0.3036 0.68846 0.0
C475 C 0.61354 0.32159 0.69115 0.0
C476 C 0.56217 0.32169 0.67599 0.0
C477 C 0.54907 0.30652 0.70051 0.0
C478 C 0.52239 0.27029 0.70525 0.0
C479 C 0.49978 0.26536 0.71636 0.0
C480 C 0.50481 0.29826 0.72288 0.0
C481 C 0.53234 0.33582 0.71835 0.0
C482 C 0.55445 0.33982 0.7069 0.0
loop_
_geom_bond_atom_site_label_1
_geom_bond_atom_site_label_2
_geom_bond_distance
_geom_bond_site_symmetry_2
_ccdc_geom_bond_type
C0 C1 1.264 . S
C0 C5 1.479 . S
C0 C10 1.465 . S
C1 C0 1.264 . S
C1 C3 1.339 . S
C1 H28 0.931 . S
C2 C3 1.395 . S
C2 C4 1.320 . S
C3 C1 1.339 . S
C3 C2 1.395 . S
C3 H29 0.929 . S
C4 C2 1.320 . S
C4 C5 1.405 . S
C4 H30 0.930 . S
C5 C0 1.479 . S
C5 C4 1.405 . S
C5 H31 0.931 . S
U6 O7 2.454 . S
U6 O8 2.458 . S
U6 C9 2.984 . S
U6 C10 2.847 1_455 S
U6 C23 2.882 . S
U6 O24 2.441 1_455 S
U6 O25 2.420 1_455 S
U6 O26 2.455 . S
U6 O27 2.449 1_455 S
O7 U6 2.454 . S
O7 C9 1.353 . S
O8 U6 2.458 . S
O8 C9 1.286 . S
C9 U6 2.984 . S
C9 O7 1.353 . S
C9 O8 1.286 . S
C9 C11 1.363 . S
C10 C0 1.465 . S
C10 U6 2.847 1_655 S
C10 O24 1.249 . S
C10 O25 1.202 . S
C11 C9 1.363 . S
C11 C13 1.408 . S
C11 C16 1.342 . S
C12 C13 1.310 . S
C12 C15 1.461 . S
C12 H32 0.932 . S
C13 C11 1.408 . S
C13 C12 1.310 . S
C13 H33 0.930 . S
C14 C15 1.474 . S
C14 C16 1.285 . S
C14 H34 0.929 . S
C15 C12 1.461 . S
C15 C14 1.474 . S
C16 C11 1.342 . S
C16 C14 1.285 . S
C16 H35 0.930 . S
C17 C20 1.424 1_455 S
C17 C22 1.245 . S
C17 C23 1.428 . S
C18 C21 1.260 . S
C18 C22 1.477 . S
C18 H36 0.932 . S
C19 C20 1.384 . S
C19 C21 1.479 1_655 S
C19 H37 0.929 . S
C20 C17 1.424 1_655 S
C20 C19 1.384 . S
C20 H38 0.928 . S
C21 C18 1.260 . S
C21 C19 1.479 1_455 S
C22 C17 1.245 . S
C22 C18 1.477 . S
C22 H39 0.932 . S
C23 U6 2.882 . S
C23 C17 1.428 . S
C23 O26 1.301 . S
C23 O27 1.282 1_455 S
O24 U6 2.441 1_655 S
O24 C10 1.249 . S
O25 U6 2.420 1_655 S
O25 C10 1.202 . S
O26 U6 2.455 . S
O26 C23 1.301 . S
O27 U6 2.449 1_655 S
O27 C23 1.282 1_655 S
H28 C1 0.931 . S
H29 C3 0.929 . S
H30 C4 0.930 . S
H31 C5 0.931 . S
H32 C12 0.932 . S
H33 C13 0.930 . S
H34 C14 0.929 . S
H35 C16 0.930 . S
H36 C18 0.932 . S
H37 C19 0.929 . S
H38 C20 0.928 . S
H39 C22 0.932 . S
C40 C41 1.264 . S
C40 C45 1.479 . S
C40 C50 1.465 . S
C41 C40 1.264 . S
C41 C43 1.339 . S
C41 H68 0.931 . S
C42 C43 1.395 . S
C42 C44 1.320 . S
C43 C41 1.339 . S
C43 C42 1.395 . S
C43 H69 0.929 . S
C44 C42 1.320 . S
C44 C45 1.405 . S
C44 H70 0.930 . S
C45 C40 1.479 . S
C45 C44 1.405 . S
C45 H71 0.931 . S
U46 O47 2.454 1_545 S
U46 O48 2.458 1_545 S
U46 C49 2.984 1_545 S
U46 C50 2.847 . S
U46 C63 2.882 . S
U46 O64 2.441 . S
U46 O65 2.420 . S
U46 O66 2.455 . S
U46 O67 2.449 . S
O47 U46 2.454 1_565 S
O47 C49 1.353 . S
O48 U46 2.458 1_565 S
O48 C49 1.286 . S
C49 U46 2.984 1_565 S
C49 O47 1.353 . S
C49 O48 1.286 . S
C49 C51 1.363 . S
C50 C40 1.465 . S
C50 U46 2.847 . S
C50 O64 1.249 . S
C50 O65 1.202 . S
C51 C49 1.363 . S
C51 C53 1.408 . S
C51 C56 1.342 . S
C52 C53 1.310 . S
C52 C55 1.461 . S
C52 H72 0.932 . S
C53 C51 1.408 . S
C53 C52 1.310 . S
C53 H73 0.930 . S
C54 C55 1.474 . S
C54 C56 1.285 . S
C54 H74 0.929 . S
C55 C52 1.461 . S
C55 C54 1.474 . S
C56 C51 1.342 . S
C56 C54 1.285 . S
C56 H75 0.930 . S
C57 C60 1.424 . S
C57 C62 1.245 1_545 S
C57 C63 1.428 . S
C58 C61 1.262 . S
C58 C62 1.477 1_545 S
C58 H76 0.929 1_545 S
C59 C60 1.384 . S
C59 C61 1.479 . S
C59 H77 0.929 . S
C60 C57 1.424 . S
C60 C59 1.384 . S
C60 H78 0.928 . S
C61 C58 1.262 . S
C61 C59 1.479 . S
C62 C57 1.245 1_565 S
C62 C58 1.477 1_565 S
C62 H79 0.932 . S
C63 U46 2.882 . S
C63 C57 1.428 . S
C63 O66 1.301 . S
C63 O67 1.282 . S
O64 U46 2.441 . S
O64 C50 1.249 . S
O65 U46 2.420 . S
O65 C50 1.202 . S
O66 U46 2.455 . S
O66 C63 1.301 . S
O67 U46 2.449 . S
O67 C63 1.282 . S
H68 C41 0.931 . S
H69 C43 0.929 . S
H70 C44 0.930 . S
H71 C45 0.931 . S
H72 C52 0.932 . S
H73 C53 0.930 . S
H74 C54 0.929 . S
H75 C56 0.930 . S
H76 C58 0.929 1_565 S
H77 C59 0.929 . S
H78 C60 0.928 . S
H79 C62 0.932 . S
C80 C81 1.264 . S
C80 C85 1.479 . S
C80 C90 1.465 . S
C81 C80 1.264 . S
C81 C83 1.339 . S
C81 H108 0.931 . S
C82 C83 1.395 . S
C82 C84 1.320 . S
C83 C81 1.339 . S
C83 C82 1.395 . S
C83 H109 0.929 . S
C84 C82 1.320 . S
C84 C85 1.405 . S
C84 H110 0.930 . S
C85 C80 1.479 . S
C85 C84 1.405 . S
C85 H111 0.931 . S
U86 O87 2.454 . S
U86 O88 2.458 . S
U86 C89 2.984 . S
U86 C90 2.847 . S
U86 C103 2.882 . S
U86 O104 2.441 . S
U86 O105 2.420 . S
U86 O106 2.455 . S
U86 O107 2.449 . S
O87 U86 2.454 . S
O87 C89 1.353 . S
O88 U86 2.458 . S
O88 C89 1.286 . S
C89 U86 2.984 . S
C89 O87 1.353 . S
C89 O88 1.286 . S
C89 C91 1.363 . S
C90 C80 1.465 . S
C90 U86 2.847 . S
C90 O104 1.249 . S
C90 O105 1.202 . S
C91 C89 1.363 . S
C91 C93 1.408 . S
C91 C96 1.342 . S
C92 C93 1.310 . S
C92 C95 1.461 . S
C92 H112 0.932 . S
C93 C91 1.408 . S
C93 C92 1.310 . S
C93 H113 0.930 . S
C94 C95 1.474 . S
C94 C96 1.285 . S
C94 H114 0.929 . S
C95 C92 1.461 . S
C95 C94 1.474 . S
C96 C91 1.342 . S
C96 C94 1.285 . S
C96 H115 0.930 . S
C97 C100 1.424 . S
C97 C102 1.245 . S
C97 C103 1.428 . S
C98 C101 1.260 . S
C98 C102 1.477 . S
C98 H116 0.932 . S
C99 C100 1.384 . S
C99 C101 1.479 . S
C99 H117 0.929 . S
C100 C97 1.424 . S
C100 C99 1.384 . S
C100 H118 0.928 . S
C101 C98 1.260 . S
C101 C99 1.479 . S
C102 C97 1.245 . S
C102 C98 1.477 . S
C102 H119 0.932 . S
C103 U86 2.882 . S
C103 C97 1.428 . S
C103 O106 1.301 . S
C103 O107 1.282 . S
O104 U86 2.441 . S
O104 C90 1.249 . S
O105 U86 2.420 . S
O105 C90 1.202 . S
O106 U86 2.455 . S
O106 C103 1.301 . S
O107 U86 2.449 . S
O107 C103 1.282 . S
H108 C81 0.931 . S
H109 C83 0.929 . S
H110 C84 0.930 . S
H111 C85 0.931 . S
H112 C92 0.932 . S
H113 C93 0.930 . S
H114 C94 0.929 . S
H115 C96 0.930 . S
H116 C98 0.932 . S
H117 C99 0.929 . S
H118 C100 0.928 . S
H119 C102 0.932 . S
C120 C121 1.264 . S
C120 C125 1.479 . S
C120 C130 1.465 . S
C121 C120 1.264 . S
C121 C123 1.339 . S
C121 H148 0.931 . S
C122 C123 1.395 . S
C122 C124 1.320 . S
C123 C121 1.339 . S
C123 C122 1.395 . S
C123 H149 0.929 . S
C124 C122 1.320 . S
C124 C125 1.405 . S
C124 H150 0.930 . S
C125 C120 1.479 . S
C125 C124 1.405 . S
C125 H151 0.931 . S
U126 O127 2.454 . S
U126 O128 2.458 . S
U126 C129 2.984 . S
U126 C130 2.847 1_545 S
U126 C143 2.882 . S
U126 O144 2.441 1_545 S
U126 O145 2.420 1_545 S
U126 O146 2.455 . S
U126 O147 2.449 1_545 S
O127 U126 2.454 . S
O127 C129 1.353 . S
O128 U126 2.458 . S
O128 C129 1.286 . S
C129 U126 2.984 . S
C129 O127 1.353 . S
C129 O128 1.286 . S
C129 C131 1.363 . S
C130 C120 1.465 . S
C130 U126 2.847 1_565 S
C130 O144 1.249 . S
C130 O145 1.202 . S
C131 C129 1.363 . S
C131 C133 1.408 . S
C131 C136 1.342 . S
C132 C133 1.310 . S
C132 C135 1.461 . S
C132 H152 0.932 . S
C133 C131 1.408 . S
C133 C132 1.310 . S
C133 H153 0.930 . S
C134 C135 1.474 . S
C134 C136 1.285 . S
C134 H154 0.929 . S
C135 C132 1.461 . S
C135 C134 1.474 . S
C136 C131 1.342 . S
C136 C134 1.285 . S
C136 H155 0.930 . S
C137 C140 1.424 1_545 S
C137 C142 1.245 . S
C137 C143 1.428 . S
C138 C141 1.260 . S
C138 C142 1.477 . S
C138 H156 0.932 . S
C139 C140 1.384 . S
C139 C141 1.479 1_565 S
C139 H157 0.929 . S
C140 C137 1.424 1_565 S
C140 C139 1.384 . S
C140 H158 0.928 . S
C141 C138 1.260 . S
C141 C139 1.479 1_545 S
C142 C137 1.245 . S
C142 C138 1.477 . S
C142 H159 0.932 . S
C143 U126 2.882 . S
C143 C137 1.428 . S
C143 O146 1.301 . S
C143 O147 1.282 1_545 S
O144 U126 2.441 1_565 S
O144 C130 1.249 . S
O145 U126 2.420 1_565 S
O145 C130 1.202 . S
O146 U126 2.455 . S
O146 C143 1.301 . S
O147 U126 2.449 1_565 S
O147 C143 1.282 1_565 S
H148 C121 0.931 . S
H149 C123 0.929 . S
H150 C124 0.930 . S
H151 C125 0.931 . S
H152 C132 0.932 . S
H153 C133 0.930 . S
H154 C134 0.929 . S
H155 C136 0.930 . S
H156 C138 0.932 . S
H157 C139 0.929 . S
H158 C140 0.928 . S
H159 C142 0.932 . S
C160 C161 1.264 . S
C160 C165 1.479 . S
C160 C170 1.465 . S
C161 C160 1.264 . S
C161 C163 1.339 . S
C161 H188 0.931 . S
C162 C163 1.395 . S
C162 C164 1.320 . S
C163 C161 1.339 . S
C163 C162 1.395 . S
C163 H189 0.929 . S
C164 C162 1.320 . S
C164 C165 1.405 . S
C164 H190 0.930 . S
C165 C160 1.479 . S
C165 C164 1.405 . S
C165 H191 0.931 . S
U166 O167 2.454 . S
U166 O168 2.458 . S
U166 C169 2.984 . S
U166 C170 2.847 . S
U166 C183 2.882 . S
U166 O184 2.441 . S
U166 O185 2.420 . S
U166 O186 2.455 . S
U166 O187 2.449 . S
O167 U166 2.454 . S
O167 C169 1.353 . S
O168 U166 2.458 . S
O168 C169 1.286 . S
C169 U166 2.984 . S
C169 O167 1.353 . S
C169 O168 1.286 . S
C169 C171 1.363 . S
C170 C160 1.465 . S
C170 U166 2.847 . S
C170 O184 1.249 . S
C170 O185 1.202 . S
C171 C169 1.363 . S
C171 C173 1.408 . S
C171 C176 1.342 . S
C172 C173 1.310 . S
C172 C175 1.461 . S
C172 H192 0.932 . S
C173 C171 1.408 . S
C173 C172 1.310 . S
C173 H193 0.930 . S
C174 C175 1.474 . S
C174 C176 1.285 . S
C174 H194 0.929 . S
C175 C172 1.461 . S
C175 C174 1.474 . S
C176 C171 1.342 . S
C176 C174 1.285 . S
C176 H195 0.930 . S
C177 C180 1.424 . S
C177 C182 1.245 . S
C177 C183 1.428 . S
C178 C181 1.260 . S
C178 C182 1.477 . S
C178 H196 0.932 . S
C179 C180 1.384 . S
C179 C181 1.479 . S
C179 H197 0.929 . S
C180 C177 1.424 . S
C180 C179 1.384 . S
C180 H198 0.928 . S
C181 C178 1.260 . S
C181 C179 1.479 . S
C182 C177 1.245 . S
C182 C178 1.477 . S
C182 H199 0.932 . S
C183 U166 2.882 . S
C183 C177 1.428 . S
C183 O186 1.301 . S
C183 O187 1.282 . S
O184 U166 2.441 . S
O184 C170 1.249 . S
O185 U166 2.420 . S
O185 C170 1.202 . S
O186 U166 2.455 . S
O186 C183 1.301 . S
O187 U166 2.449 . S
O187 C183 1.282 . S
H188 C161 0.931 . S
H189 C163 0.929 . S
H190 C164 0.930 . S
H191 C165 0.931 . S
H192 C172 0.932 . S
H193 C173 0.930 . S
H194 C174 0.929 . S
H195 C176 0.930 . S
H196 C178 0.932 . S
H197 C179 0.929 . S
H198 C180 0.928 . S
H199 C182 0.932 . S
C200 C201 1.264 . S
C200 C205 1.479 . S
C200 C210 1.465 . S
C201 C200 1.264 . S
C201 C203 1.339 . S
C201 H228 0.931 . S
C202 C203 1.395 . S
C202 C204 1.320 . S
C203 C201 1.339 . S
C203 C202 1.395 . S
C203 H229 0.929 . S
C204 C202 1.320 . S
C204 C205 1.405 . S
C204 H230 0.930 . S
C205 C200 1.479 . S
C205 C204 1.405 . S
C205 H231 0.931 . S
U206 O207 2.454 . S
U206 O208 2.458 . S
U206 C209 2.984 . S
U206 C210 2.847 1_455 S
U206 C223 2.882 . S
U206 O224 2.441 1_455 S
U206 O225 2.420 1_455 S
U206 O226 2.455 . S
U206 O227 2.449 1_455 S
O207 U206 2.454 . S
O207 C209 1.353 . S
O208 U206 2.458 . S
O208 C209 1.286 . S
C209 U206 2.984 . S
C209 O207 1.353 . S
C209 O208 1.286 . S
C209 C211 1.363 . S
C210 C200 1.465 . S
C210 U206 2.847 1_655 S
C210 O224 1.249 . S
C210 O225 1.202 . S
C211 C209 1.363 . S
C211 C213 1.408 . S
C211 C216 1.342 . S
C212 C213 1.310 . S
C212 C215 1.461 . S
C212 H232 0.932 . S
C213 C211 1.408 . S
C213 C212 1.310 . S
C213 H233 0.930 . S
C214 C215 1.474 . S
C214 C216 1.285 . S
C214 H234 0.929 . S
C215 C212 1.461 . S
C215 C214 1.474 . S
C216 C211 1.342 . S
C216 C214 1.285 . S
C216 H235 0.930 . S
C217 C220 1.424 1_455 S
C217 C222 1.245 . S
C217 C223 1.428 . S
C218 C221 1.260 . S
C218 C222 1.477 . S
C218 H236 0.932 . S
C219 C220 1.384 . S
C219 C221 1.479 1_655 S
C219 H237 0.929 . S
C220 C217 1.424 1_655 S
C220 C219 1.384 . S
C220 H238 0.928 . S
C221 C218 1.260 . S
C221 C219 1.479 1_455 S
C222 C217 1.245 . S
C222 C218 1.477 . S
C222 H239 0.932 . S
C223 U206 2.882 . S
C223 C217 1.428 . S
C223 O226 1.301 . S
C223 O227 1.282 1_455 S
O224 U206 2.441 1_655 S
O224 C210 1.249 . S
O225 U206 2.420 1_655 S
O225 C210 1.202 . S
O226 U206 2.455 . S
O226 C223 1.301 . S
O227 U206 2.449 1_655 S
O227 C223 1.282 1_655 S
H228 C201 0.931 . S
H229 C203 0.929 . S
H230 C204 0.930 . S
H231 C205 0.931 . S
H232 C212 0.932 . S
H233 C213 0.930 . S
H234 C214 0.929 . S
H235 C216 0.930 . S
H236 C218 0.932 . S
H237 C219 0.929 . S
H238 C220 0.928 . S
H239 C222 0.932 . S
H240 C252 0.930 1_655 S
H241 C254 0.930 . S
H242 C255 0.930 . S
H243 C259 0.959 . S
H244 C259 0.959 . S
H245 C259 0.961 . S
H246 C260 0.960 . S
H247 C260 0.961 . S
H248 C260 0.959 1_455 S
H249 C263 0.929 . S
H250 C264 0.931 . S
H251 C266 0.930 1_655 S
C252 H240 0.930 1_455 S
C252 C253 1.399 . S
C252 C257 1.399 . S
C253 C252 1.399 . S
C253 C254 1.376 . S
C254 H241 0.930 . S
C254 C253 1.376 . S
C254 C255 1.388 . S
C255 H242 0.930 . S
C255 C254 1.388 . S
C255 C256 1.390 . S
C256 C255 1.390 . S
C256 C257 1.394 . S
C256 C262 1.465 . S
C257 C252 1.399 . S
C257 C256 1.394 . S
C257 C258 1.516 1_455 S
C258 C257 1.516 1_655 S
C258 C259 1.502 . S
C258 C260 1.561 . S
C258 C261 1.526 1_655 S
C259 H243 0.959 . S
C259 H244 0.959 . S
C259 H245 0.961 . S
C259 C258 1.502 . S
C260 H246 0.960 . S
C260 H247 0.961 . S
C260 H248 0.959 1_655 S
C260 C258 1.561 . S
C261 C258 1.526 1_455 S
C261 C262 1.396 . S
C261 C266 1.390 . S
C262 C256 1.465 . S
C262 C261 1.396 . S
C262 C263 1.399 . S
C263 H249 0.929 . S
C263 C262 1.399 . S
C263 C264 1.385 . S
C264 H250 0.931 . S
C264 C263 1.385 . S
C264 C265 1.389 . S
C265 C264 1.389 . S
C265 C266 1.387 . S
C266 H251 0.930 1_455 S
C266 C261 1.390 . S
C266 C265 1.387 . S
H267 C279 0.930 . S
H268 C281 0.930 . S
H269 C282 0.930 . S
H270 C286 0.959 . S
H271 C286 0.959 . S
H272 C286 0.961 . S
H273 C287 0.960 . S
H274 C287 0.961 . S
H275 C287 0.959 . S
H276 C290 0.929 . S
H277 C291 0.931 . S
H278 C293 0.930 . S
C279 H267 0.930 . S
C279 C280 1.399 . S
C279 C284 1.399 . S
C280 C279 1.399 . S
C280 C281 1.376 1_545 S
C281 H268 0.930 . S
C281 C280 1.376 1_565 S
C281 C282 1.388 . S
C282 H269 0.930 . S
C282 C281 1.388 . S
C282 C283 1.390 1_565 S
C283 C282 1.390 1_545 S
C283 C284 1.394 . S
C283 C289 1.465 . S
C284 C279 1.399 . S
C284 C283 1.394 . S
C284 C285 1.516 . S
C285 C284 1.516 . S
C285 C286 1.502 . S
C285 C287 1.561 . S
C285 C288 1.526 . S
C286 H270 0.959 . S
C286 H271 0.959 . S
C286 H272 0.961 . S
C286 C285 1.502 . S
C287 H273 0.960 . S
C287 H274 0.961 . S
C287 H275 0.959 . S
C287 C285 1.561 . S
C288 C285 1.526 . S
C288 C289 1.396 . S
C288 C293 1.390 . S
C289 C283 1.465 . S
C289 C288 1.396 . S
C289 C290 1.399 1_545 S
C290 H276 0.929 . S
C290 C289 1.399 1_565 S
C290 C291 1.385 . S
C291 H277 0.931 . S
C291 C290 1.385 . S
C291 C292 1.389 1_565 S
C292 C291 1.389 1_545 S
C292 C293 1.387 . S
C293 H278 0.930 . S
C293 C288 1.390 . S
C293 C292 1.387 . S
H294 C306 0.930 . S
H295 C308 0.930 . S
H296 C309 0.930 . S
H297 C313 0.959 . S
H298 C313 0.959 . S
H299 C313 0.961 . S
H300 C314 0.960 . S
H301 C314 0.961 . S
H302 C314 0.959 . S
H303 C317 0.929 . S
H304 C318 0.931 . S
H305 C320 0.930 . S
C306 H294 0.930 . S
C306 C307 1.399 . S
C306 C311 1.399 . S
C307 C306 1.399 . S
C307 C308 1.376 . S
C308 H295 0.930 . S
C308 C307 1.376 . S
C308 C309 1.388 . S
C309 H296 0.930 . S
C309 C308 1.388 . S
C309 C310 1.390 . S
C310 C309 1.390 . S
C310 C311 1.394 . S
C310 C316 1.465 . S
C311 C306 1.399 . S
C311 C310 1.394 . S
C311 C312 1.516 . S
C312 C311 1.516 . S
C312 C313 1.502 . S
C312 C314 1.561 . S
C312 C315 1.526 . S
C313 H297 0.959 . S
C313 H298 0.959 . S
C313 H299 0.961 . S
C313 C312 1.502 . S
C314 H300 0.960 . S
C314 H301 0.961 . S
C314 H302 0.959 . S
C314 C312 1.561 . S
C315 C312 1.526 . S
C315 C316 1.396 . S
C315 C320 1.390 . S
C316 C310 1.465 . S
C316 C315 1.396 . S
C316 C317 1.399 . S
C317 H303 0.929 . S
C317 C316 1.399 . S
C317 C318 1.385 . S
C318 H304 0.931 . S
C318 C317 1.385 . S
C318 C319 1.389 . S
C319 C318 1.389 . S
C319 C320 1.387 . S
C320 H305 0.930 . S
C320 C315 1.390 . S
C320 C319 1.387 . S
H321 C333 0.930 . S
H322 C335 0.930 . S
H323 C336 0.930 . S
H324 C340 0.959 . S
H325 C340 0.959 . S
H326 C340 0.961 . S
H327 C341 0.960 . S
H328 C341 0.950 1_556 S
H329 C341 0.959 . S
H330 C344 0.929 1_554 S
H331 C345 0.931 . S
H332 C347 0.930 . S
C333 H321 0.930 . S
C333 C334 1.399 . S
C333 C338 1.399 . S
C334 C333 1.399 . S
C334 C335 1.376 . S
C335 H322 0.930 . S
C335 C334 1.376 . S
C335 C336 1.388 . S
C336 H323 0.930 . S
C336 C335 1.388 . S
C336 C337 1.390 . S
C337 C336 1.390 . S
C337 C338 1.394 . S
C337 C343 1.461 1_554 S
C338 C333 1.399 . S
C338 C337 1.394 . S
C338 C339 1.516 1_554 S
C339 C338 1.516 1_556 S
C339 C340 1.502 . S
C339 C341 1.561 1_556 S
C339 C342 1.526 . S
C340 H324 0.959 . S
C340 H325 0.959 . S
C340 H326 0.961 . S
C340 C339 1.502 . S
C341 H327 0.960 . S
C341 H328 0.950 1_554 S
C341 H329 0.959 . S
C341 C339 1.561 1_554 S
C342 C339 1.526 . S
C342 C343 1.400 . S
C342 C347 1.390 . S
C343 C337 1.461 1_556 S
C343 C342 1.400 . S
C343 C344 1.399 . S
C344 H330 0.929 1_556 S
C344 C343 1.399 . S
C344 C345 1.385 . S
C345 H331 0.931 . S
C345 C344 1.385 . S
C345 C346 1.389 . S
C346 C345 1.389 . S
C346 C347 1.387 . S
C347 H332 0.930 . S
C347 C342 1.390 . S
C347 C346 1.387 . S
H348 C360 0.930 . S
H349 C362 0.930 . S
H350 C363 0.930 . S
H351 C367 0.959 . S
H352 C367 0.959 . S
H353 C367 0.961 . S
H354 C368 0.960 . S
H355 C368 0.961 . S
H356 C368 0.959 . S
H357 C371 0.929 . S
H358 C372 0.931 . S
H359 C374 0.930 . S
C360 H348 0.930 . S
C360 C361 1.399 . S
C360 C365 1.399 . S
C361 C360 1.399 . S
C361 C362 1.376 . S
C362 H349 0.930 . S
C362 C361 1.376 . S
C362 C363 1.388 . S
C363 H350 0.930 . S
C363 C362 1.388 . S
C363 C364 1.390 . S
C364 C363 1.390 . S
C364 C365 1.394 . S
C364 C370 1.465 . S
C365 C360 1.399 . S
C365 C364 1.394 . S
C365 C366 1.516 . S
C366 C365 1.516 . S
C366 C367 1.502 . S
C366 C368 1.561 . S
C366 C369 1.526 . S
C367 H351 0.959 . S
C367 H352 0.959 . S
C367 H353 0.961 . S
C367 C366 1.502 . S
C368 H354 0.960 . S
C368 H355 0.961 . S
C368 H356 0.959 . S
C368 C366 1.561 . S
C369 C366 1.526 . S
C369 C370 1.396 . S
C369 C374 1.390 . S
C370 C364 1.465 . S
C370 C369 1.396 . S
C370 C371 1.399 . S
C371 H357 0.929 . S
C371 C370 1.399 . S
C371 C372 1.385 . S
C372 H358 0.931 . S
C372 C371 1.385 . S
C372 C373 1.389 . S
C373 C372 1.389 . S
C373 C374 1.387 . S
C374 H359 0.930 . S
C374 C369 1.390 . S
C374 C373 1.387 . S
H375 C387 0.930 . S
H376 C389 0.930 . S
H377 C390 0.930 . S
H378 C394 0.959 . S
H379 C394 0.959 . S
H380 C394 0.961 . S
H381 C395 0.960 . S
H382 C395 0.961 . S
H383 C395 0.959 . S
H384 C398 0.929 . S
H385 C399 0.931 . S
H386 C401 0.930 . S
C387 H375 0.930 . S
C387 C388 1.399 . S
C387 C392 1.399 . S
C388 C387 1.399 . S
C388 C389 1.376 . S
C389 H376 0.930 . S
C389 C388 1.376 . S
C389 C390 1.388 . S
C390 H377 0.930 . S
C390 C389 1.388 . S
C390 C391 1.390 . S
C391 C390 1.390 . S
C391 C392 1.394 . S
C391 C397 1.465 . S
C392 C387 1.399 . S
C392 C391 1.394 . S
C392 C393 1.516 . S
C393 C392 1.516 . S
C393 C394 1.502 . S
C393 C395 1.561 . S
C393 C396 1.526 . S
C394 H378 0.959 . S
C394 H379 0.959 . S
C394 H380 0.961 . S
C394 C393 1.502 . S
C395 H381 0.960 . S
C395 H382 0.961 . S
C395 H383 0.959 . S
C395 C393 1.561 . S
C396 C393 1.526 . S
C396 C397 1.396 . S
C396 C401 1.390 . S
C397 C391 1.465 . S
C397 C396 1.396 . S
C397 C398 1.399 . S
C398 H384 0.929 . S
C398 C397 1.399 . S
C398 C399 1.385 . S
C399 H385 0.931 . S
C399 C398 1.385 . S
C399 C400 1.389 . S
C400 C399 1.389 . S
C400 C401 1.387 . S
C401 H386 0.930 . S
C401 C396 1.390 . S
C401 C400 1.387 . S
H402 C414 0.930 . S
H403 C416 0.930 . S
H404 C417 0.935 . S
H405 C421 0.959 . S
H406 C421 0.959 . S
H407 C421 0.961 . S
H408 C422 0.960 1_554 S
H409 C422 0.961 . S
H410 C422 0.959 . S
H411 C425 0.929 . S
H412 C426 0.931 . S
H413 C428 0.930 . S
C414 H402 0.930 . S
C414 C415 1.399 . S
C414 C419 1.399 . S
C415 C414 1.399 . S
C415 C416 1.376 . S
C416 H403 0.930 . S
C416 C415 1.376 . S
C416 C417 1.383 1_554 S
C417 H404 0.935 . S
C417 C416 1.383 1_556 S
C417 C418 1.390 . S
C418 C417 1.390 . S
C418 C419 1.382 1_556 S
C418 C424 1.475 . S
C419 C414 1.399 . S
C419 C418 1.382 1_554 S
C419 C420 1.516 . S
C420 C419 1.516 . S
C420 C421 1.502 . S
C420 C422 1.561 1_554 S
C420 C423 1.526 1_554 S
C421 H405 0.959 . S
C421 H406 0.959 . S
C421 H407 0.961 . S
C421 C420 1.502 . S
C422 H408 0.960 1_556 S
C422 H409 0.961 . S
C422 H410 0.959 . S
C422 C420 1.561 1_556 S
C423 C420 1.526 1_556 S
C423 C424 1.396 . S
C423 C428 1.390 . S
C424 C418 1.475 . S
C424 C423 1.396 . S
C424 C425 1.399 . S
C425 H411 0.929 . S
C425 C424 1.399 . S
C425 C426 1.385 . S
C426 H412 0.931 . S
C426 C425 1.385 . S
C426 C427 1.389 . S
C427 C426 1.389 . S
C427 C428 1.387 . S
C428 H413 0.930 . S
C428 C423 1.390 . S
C428 C427 1.387 . S
H429 C441 0.930 . S
H430 C443 0.930 . S
H431 C444 0.930 . S
H432 C448 0.959 . S
H433 C448 0.959 . S
H434 C448 0.961 . S
H435 C449 0.960 . S
H436 C449 0.961 . S
H437 C449 0.959 . S
H438 C452 0.929 . S
H439 C453 0.931 . S
H440 C455 0.930 . S
C441 H429 0.930 . S
C441 C442 1.399 . S
C441 C446 1.399 . S
C442 C441 1.399 . S
C442 C443 1.376 . S
C443 H430 0.930 . S
C443 C442 1.376 . S
C443 C444 1.388 . S
C444 H431 0.930 . S
C444 C443 1.388 . S
C444 C445 1.390 . S
C445 C444 1.390 . S
C445 C446 1.394 . S
C445 C451 1.465 . S
C446 C441 1.399 . S
C446 C445 1.394 . S
C446 C447 1.516 . S
C447 C446 1.516 . S
C447 C448 1.502 . S
C447 C449 1.561 . S
C447 C450 1.526 . S
C448 H432 0.959 . S
C448 H433 0.959 . S
C448 H434 0.961 . S
C448 C447 1.502 . S
C449 H435 0.960 . S
C449 H436 0.961 . S
C449 H437 0.959 . S
C449 C447 1.561 . S
C450 C447 1.526 . S
C450 C451 1.396 . S
C450 C455 1.390 . S
C451 C445 1.465 . S
C451 C450 1.396 . S
C451 C452 1.399 . S
C452 H438 0.929 . S
C452 C451 1.399 . S
C452 C453 1.385 . S
C453 H439 0.931 . S
C453 C452 1.385 . S
C453 C454 1.389 . S
C454 C453 1.389 . S
C454 C455 1.387 . S
C455 H440 0.930 . S
C455 C450 1.390 . S
C455 C454 1.387 . S
H456 C468 0.930 . S
H457 C470 0.930 . S
H458 C471 0.930 . S
H459 C475 0.959 . S
H460 C475 0.959 . S
H461 C475 0.961 . S
H462 C476 0.960 . S
H463 C476 0.961 . S
H464 C476 0.959 . S
H465 C479 0.929 . S
H466 C480 0.931 . S
H467 C482 0.930 . S
C468 H456 0.930 . S
C468 C469 1.399 . S
C468 C473 1.399 . S
C469 C468 1.399 . S
C469 C470 1.376 . S
C470 H457 0.930 . S
C470 C469 1.376 . S
C470 C471 1.388 . S
C471 H458 0.930 . S
C471 C470 1.388 . S
C471 C472 1.390 . S
C472 C471 1.390 . S
C472 C473 1.394 . S
C472 C478 1.465 . S
C473 C468 1.399 . S
C473 C472 1.394 . S
C473 C474 1.516 . S
C474 C473 1.516 . S
C474 C475 1.502 . S
C474 C476 1.561 . S
C474 C477 1.526 . S
C475 H459 0.959 . S
C475 H460 0.959 . S
C475 H461 0.961 . S
C475 C474 1.502 . S
C476 H462 0.960 . S
C476 H463 0.961 . S
C476 H464 0.959 . S
C476 C474 1.561 . S
C477 C474 1.526 . S
C477 C478 1.396 . S
C477 C482 1.390 . S
C478 C472 1.465 . S
C478 C477 1.396 . S
C478 C479 1.399 . S
C479 H465 0.929 . S
C479 C478 1.399 . S
C479 C480 1.385 . S
C480 H466 0.931 . S
C480 C479 1.385 . S
C480 C481 1.389 . S
C481 C480 1.389 . S
C481 C482 1.387 . S
C482 H467 0.930 . S
C482 C477 1.390 . S
C482 C481 1.387 . S
C253 C21 1.498 . S
C265 C221 1.488 . S
C280 C141 1.486 . S
C292 C61 1.500 . S
C307 C181 1.499 . S
C319 C101 1.486 . S
C334 C15 1.492 . S
C346 C175 1.492 . S
C361 C42 1.487 . S
C373 C202 1.478 . S
C388 C122 1.500 . S
C400 C82 1.495 . S
C415 C2 1.463 . S
C427 C162 1.474 . S
C442 C55 1.494 . S
C454 C215 1.495 . S
C469 C135 1.490 . S
C481 C95 1.494 . S
