# Generated by pormake.
# Topology unm, (4)-cn, num edge types: 1
# Building blocks:
#     Node 0, Type 0, BuildingBlock: ICAMEG_clean_sbu_1, # of connection points: 4
#     Node 1, Type 0, BuildingBlock: ICAMEG_clean_sbu_1, # of connection points: 4
#     Node 2, Type 0, BuildingBlock: ICAMEG_clean_sbu_1, # of connection points: 4
#     Node 3, Type 0, BuildingBlock: ICAMEG_clean_sbu_1, # of connection points: 4
#     Node 4, Type 0, BuildingBlock: ICAMEG_clean_sbu_1, # of connection points: 4
#     Node 5, Type 0, BuildingBlock: ICAMEG_clean_sbu_1, # of connection points: 4
#     Node 6, Type 0, BuildingBlock: ICAMEG_clean_sbu_1, # of connection points: 4
#     Node 7, Type 0, BuildingBlock: ICAMEG_clean_sbu_1, # of connection points: 4
#     Edge 8, Type (0, 0), BuildingBlock: EZIPEK_clean_linker_0, # of connection points: 2
#     Edge 9, Type (0, 0), BuildingBlock: EZIPEK_clean_linker_0, # of connection points: 2
#     Edge 10, Type (0, 0), BuildingBlock: EZIPEK_clean_linker_0, # of connection points: 2
#     Edge 11, Type (0, 0), BuildingBlock: EZIPEK_clean_linker_0, # of connection points: 2
#     Edge 12, Type (0, 0), BuildingBlock: EZIPEK_clean_linker_0, # of connection points: 2
#     Edge 13, Type (0, 0), BuildingBlock: EZIPEK_clean_linker_0, # of connection points: 2
#     Edge 14, Type (0, 0), BuildingBlock: EZIPEK_clean_linker_0, # of connection points: 2
#     Edge 15, Type (0, 0), BuildingBlock: EZIPEK_clean_linker_0, # of connection points: 2
#     Edge 16, Type (0, 0), BuildingBlock: EZIPEK_clean_linker_0, # of connection points: 2
#     Edge 17, Type (0, 0), BuildingBlock: EZIPEK_clean_linker_0, # of connection points: 2
#     Edge 18, Type (0, 0), BuildingBlock: EZIPEK_clean_linker_0, # of connection points: 2
#     Edge 19, Type (0, 0), BuildingBlock: EZIPEK_clean_linker_0, # of connection points: 2
#     Edge 20, Type (0, 0), BuildingBlock: EZIPEK_clean_linker_0, # of connection points: 2
#     Edge 21, Type (0, 0), BuildingBlock: EZIPEK_clean_linker_0, # of connection points: 2
#     Edge 22, Type (0, 0), BuildingBlock: EZIPEK_clean_linker_0, # of connection points: 2
#     Edge 23, Type (0, 0), BuildingBlock: EZIPEK_clean_linker_0, # of connection points: 2
# Relax obj value: 0.080
# Max RMSD: 0.087
# Mean RMSD: 0.087
data_MOF--net-unm--node1-ICAMEG_clean_sbu_1--edge1-EZIPEK_clean_linker_0
_symmetry_space_group_name_H-M    P1
_symmetry_Int_Tables_number       1
_symmetry_cell_setting            triclinic
loop_
_symmetry_equiv_pos_as_xyz
'x, y, z'
_cell_length_a     18.7227
_cell_length_b     18.723902
_cell_length_c     38.672997
_cell_angle_alpha  89.976304
_cell_angle_beta   90.107764
_cell_angle_gamma 89.926873
loop_
_atom_site_label
_atom_site_type_symbol
_atom_site_fract_x
_atom_site_fract_y
_atom_site_fract_z
_atom_type_partial_charge
Co0 Co 0.15034 0.26959 0.12916 0.0
Co1 Co 0.25522 0.38464 0.17838 0.0
O2 O 0.2436 0.30011 0.14825 0.0
C3 C 0.2567 0.25045 0.07048 0.0
O4 O 0.31116 0.2635 0.09075 0.0
C5 C 0.36556 0.27753 0.20658 0.0
O6 O 0.34711 0.22573 0.18556 0.0
O7 O 0.1766 0.3502 0.20961 0.0
O8 O 0.10212 0.29268 0.17349 0.0
H9 H 0.16704 0.59754 0.24555 0.0
H10 H 0.27463 0.16672 0.12771 0.0
O11 O 0.19335 0.24777 0.08261 0.0
H12 H 0.08152 0.04181 0.18885 0.0
H13 H 0.98095 0.10796 0.06437 0.0
H14 H 1.00381 0.33015 0.13171 0.0
H15 H 0.06461 0.16487 0.16882 0.0
H16 H 0.09756 0.14524 0.08768 0.0
O17 O 0.32953 0.33537 0.20788 0.0
H18 H 0.15449 0.49165 0.20798 0.0
H19 H 0.37824 0.45419 0.21421 0.0
H20 H 0.88582 0.29474 0.10939 0.0
H21 H 0.29369 0.04338 0.14704 0.0
H22 H 0.87371 0.18277 0.07541 0.0
H23 H 0.19648 0.97926 0.17753 0.0
O24 O 0.13012 0.3675 0.11206 0.0
H25 H 0.47439 0.36112 0.1033 0.0
H26 H 0.3001 0.52882 0.15302 0.0
H27 H 0.39501 0.57465 0.11528 0.0
H28 H 0.48333 0.49062 0.09006 0.0
H29 H 0.37754 0.31782 0.14041 0.0
H30 H 0.3923 0.55651 0.25262 0.0
H31 H 0.28721 0.63067 0.26801 0.0
O32 O 0.18367 0.4395 0.15014 0.0
C33 C 0.11683 0.32033 0.20264 0.0
C34 C 0.21353 0.56609 0.23881 0.0
C35 C 0.33995 0.54342 0.24283 0.0
N36 N 0.26556 0.46688 0.20859 0.0
C37 C 0.20683 0.50628 0.21743 0.0
C38 C 0.3314 0.48455 0.22131 0.0
C39 C 0.28076 0.58473 0.25144 0.0
C40 C 0.23172 0.13962 0.1405 0.0
N41 N 0.1679 0.17306 0.14608 0.0
C42 C 0.24295 0.06948 0.15159 0.0
C43 C 0.1884 0.03349 0.16868 0.0
C44 C 0.124 0.06837 0.175 0.0
C45 C 0.11497 0.13861 0.16381 0.0
C46 C 0.98554 0.15712 0.07893 0.0
C47 C 0.99918 0.28154 0.11692 0.0
C48 C 0.05175 0.17886 0.09185 0.0
N49 N 0.05807 0.24035 0.11064 0.0
C50 C 0.93212 0.26171 0.10431 0.0
C51 C 0.92539 0.19899 0.08521 0.0
C52 C 0.14187 0.42928 0.12444 0.0
C53 C 0.43589 0.39833 0.11386 0.0
C54 C 0.33679 0.49147 0.1415 0.0
C55 C 0.39122 0.51797 0.12045 0.0
C56 C 0.44092 0.47089 0.10645 0.0
N57 N 0.33134 0.42004 0.14838 0.0
C58 C 0.38061 0.37392 0.13499 0.0
Co59 Co 0.24917 0.62853 0.626 0.0
Co60 Co 0.1322 0.72531 0.67804 0.0
O61 O 0.21496 0.71893 0.64653 0.0
C62 C 0.25361 0.73815 0.56814 0.0
O63 O 0.23793 0.79007 0.58947 0.0
C64 C 0.24189 0.82815 0.70878 0.0
O65 O 0.29621 0.79573 0.69431 0.0
O66 O 0.17321 0.64719 0.7081 0.0
O67 O 0.23398 0.57791 0.67067 0.0
H68 H 0.92984 0.62493 0.74842 0.0
H69 H 0.34325 0.7591 0.62302 0.0
O70 O 0.26294 0.67455 0.57928 0.0
H71 H 0.48955 0.57113 0.67709 0.0
H72 H 0.41177 0.4719 0.5547 0.0
H73 H 0.19923 0.47835 0.62962 0.0
H74 H 0.36419 0.54803 0.66186 0.0
H75 H 0.37054 0.58511 0.5802 0.0
O76 O 0.17938 0.802 0.70626 0.0
H77 H 0.03406 0.61883 0.70948 0.0
H78 H 0.05702 0.84449 0.71467 0.0
H79 H 0.23895 0.36357 0.6052 0.0
H80 H 0.46802 0.7846 0.63807 0.0
H81 H 0.346 0.35976 0.56735 0.0
H82 H 0.54283 0.68986 0.6649 0.0
O83 O 0.15111 0.60284 0.61107 0.0
H84 H 0.14205 0.95151 0.60769 0.0
H85 H 0.98521 0.76335 0.65355 0.0
H86 H 0.93373 0.85837 0.61718 0.0
H87 H 0.0125 0.9534 0.59381 0.0
H88 H 0.19112 0.85448 0.64352 0.0
H89 H 0.95455 0.85256 0.7539 0.0
H90 H 0.88963 0.74291 0.77078 0.0
O91 O 0.07882 0.65214 0.65028 0.0
C92 C 0.20703 0.58981 0.7003 0.0
C93 C 0.95771 0.67328 0.74116 0.0
C94 C 0.97162 0.801 0.74434 0.0
N95 N 0.05155 0.73117 0.70955 0.0
C96 C 0.01661 0.6702 0.71905 0.0
C97 C 0.03011 0.79594 0.72225 0.0
C98 C 0.93514 0.73928 0.75374 0.0
C99 C 0.37488 0.71737 0.63439 0.0
N100 N 0.3463 0.65148 0.6405 0.0
C101 C 0.4458 0.73228 0.64307 0.0
C102 C 0.48772 0.67921 0.65816 0.0
C103 C 0.45787 0.61266 0.66507 0.0
C104 C 0.38655 0.60004 0.65648 0.0
C105 C 0.3648 0.47285 0.57098 0.0
C106 C 0.24581 0.47727 0.61323 0.0
C107 C 0.34079 0.53709 0.58518 0.0
N108 N 0.28199 0.53885 0.60604 0.0
C109 C 0.26805 0.41203 0.59942 0.0
C110 C 0.32801 0.40995 0.57815 0.0
C111 C 0.08959 0.6116 0.62422 0.0
C112 C 0.10731 0.90974 0.61719 0.0
C113 C 0.02019 0.80277 0.64245 0.0
C114 C 0.99055 0.85733 0.62237 0.0
C115 C 0.03466 0.91086 0.60946 0.0
N116 N 0.0918 0.80081 0.64924 0.0
C117 C 0.13492 0.85428 0.63739 0.0
Co118 Co 0.87138 0.79011 0.12536 0.0
Co119 Co 0.80235 0.6681 0.18385 0.0
O120 O 0.79191 0.74062 0.14782 0.0
C121 C 0.79502 0.72106 0.06754 0.0
O122 O 0.79267 0.66268 0.08618 0.0
C123 C 0.69611 0.77054 0.21627 0.0
O124 O 0.74077 0.8239 0.21216 0.0
O125 O 0.86859 0.73162 0.21075 0.0
O126 O 0.92159 0.80133 0.17118 0.0
H127 H 0.93875 0.51514 0.2681 0.0
H128 H 0.72098 0.83598 0.11713 0.0
O129 O 0.82313 0.77783 0.07944 0.0
H130 H 0.85267 0.05522 0.14678 0.0
H131 H 0.97937 0.95808 0.03793 0.0
H132 H 0.02962 0.79191 0.13371 0.0
H133 H 0.9138 0.93903 0.14533 0.0
H134 H 0.88136 0.89369 0.06666 0.0
O135 O 0.71467 0.7074 0.20763 0.0
H136 H 0.92469 0.60684 0.2228 0.0
H137 H 0.69998 0.57557 0.22261 0.0
H138 H 0.12904 0.85602 0.10619 0.0
H139 H 0.65764 0.95141 0.11728 0.0
H140 H 0.10425 0.9402 0.05794 0.0
H141 H 0.72382 0.06236 0.13179 0.0
O142 O 0.924 0.69887 0.11812 0.0
H143 H 0.58357 0.60778 0.11399 0.0
H144 H 0.80841 0.51472 0.16315 0.0
H145 H 0.7303 0.43434 0.12975 0.0
H146 H 0.61691 0.48066 0.10498 0.0
H147 H 0.66357 0.68661 0.14738 0.0
H148 H 0.71169 0.48365 0.26795 0.0
H149 H 0.83176 0.45297 0.29093 0.0
O150 O 0.88732 0.62505 0.16041 0.0
C151 C 0.91655 0.77709 0.20215 0.0
C152 C 0.88612 0.52832 0.25835 0.0
C153 C 0.75867 0.51071 0.25831 0.0
N154 N 0.81155 0.59674 0.22009 0.0
C155 C 0.8778 0.58011 0.23266 0.0
C156 C 0.75237 0.56294 0.23269 0.0
C157 C 0.82606 0.4935 0.2712 0.0
C158 C 0.74991 0.88371 0.12391 0.0
N159 N 0.82104 0.88022 0.13165 0.0
C160 C 0.71386 0.9491 0.12377 0.0
C161 C 0.75099 0.01131 0.13188 0.0
C162 C 0.82314 1.00727 0.14049 0.0
C163 C 0.85732 0.94091 0.14037 0.0
C164 C 0.99088 0.9216 0.05895 0.0
C165 C 0.01821 0.82828 0.11287 0.0
C166 C 0.9356 0.88454 0.07521 0.0
N167 N 0.94949 0.83921 0.10217 0.0
C168 C 0.07485 0.86446 0.09727 0.0
C169 C 0.06092 0.9116 0.0702 0.0
C170 C 0.9272 0.64027 0.13481 0.0
C171 C 0.6328 0.58694 0.12473 0.0
C172 C 0.75924 0.53545 0.15238 0.0
C173 C 0.71515 0.48959 0.13353 0.0
C174 C 0.65152 0.51564 0.11966 0.0
N175 N 0.74047 0.60529 0.15736 0.0
C176 C 0.67822 0.63126 0.14374 0.0
Co177 Co 0.73583 0.33299 0.62922 0.0
Co178 Co 0.86606 0.26537 0.68484 0.0
O179 O 0.79068 0.25421 0.6499 0.0
C180 C 0.80328 0.26395 0.56889 0.0
O181 O 0.86296 0.26115 0.58657 0.0
C182 C 0.77372 0.14245 0.70937 0.0
O183 O 0.72012 0.1683 0.69154 0.0
O184 O 0.80274 0.32918 0.71311 0.0
O185 O 0.72593 0.37998 0.67578 0.0
H186 H 0.02065 0.40777 0.76563 0.0
H187 H 0.69506 0.1818 0.61897 0.0
O188 O 0.74647 0.28847 0.58245 0.0
H189 H 0.47431 0.30207 0.65653 0.0
H190 H 0.55625 0.43839 0.54617 0.0
H191 H 0.72823 0.49068 0.63923 0.0
H192 H 0.58754 0.3681 0.65301 0.0
H193 H 0.62687 0.34169 0.5727 0.0
O194 O 0.83265 0.17668 0.71082 0.0
H195 H 0.92594 0.38992 0.72214 0.0
H196 H 0.96474 0.16624 0.7226 0.0
H197 H 0.65783 0.58878 0.61398 0.0
H198 H 0.58316 0.11294 0.6225 0.0
H199 H 0.57066 0.56291 0.56713 0.0
H200 H 0.47145 0.17332 0.64115 0.0
O201 O 0.82416 0.38965 0.62117 0.0
H202 H 0.92334 0.05934 0.60597 0.0
H203 H 0.01978 0.27228 0.66454 0.0
H204 H 0.09923 0.19877 0.62841 0.0
H205 H 0.0513 0.09114 0.59892 0.0
H206 H 0.84585 0.13402 0.64253 0.0
H207 H 0.06053 0.18207 0.76572 0.0
H208 H 0.08854 0.30331 0.78766 0.0
O209 O 0.90425 0.35124 0.66046 0.0
C210 C 0.75378 0.3749 0.70603 0.0
C211 C 1.00862 0.35458 0.75635 0.0
C212 C 0.03081 0.22783 0.7565 0.0
N213 N 0.93998 0.27714 0.71967 0.0
C214 C 0.95516 0.34411 0.73167 0.0
C215 C 0.97644 0.21923 0.73211 0.0
C216 C 0.04666 0.29595 0.76875 0.0
C217 C 0.64698 0.20816 0.62749 0.0
N218 N 0.64842 0.27878 0.6363 0.0
C219 C 0.58366 0.16897 0.62936 0.0
C220 C 0.52102 0.20286 0.63978 0.0
C221 C 0.52265 0.27501 0.64852 0.0
C222 C 0.58732 0.31201 0.64704 0.0
C223 C 0.59394 0.45035 0.56662 0.0
C224 C 0.69063 0.47884 0.61899 0.0
C225 C 0.63453 0.39583 0.58163 0.0
N226 N 0.68156 0.41024 0.60785 0.0
C227 C 0.65085 0.53472 0.60468 0.0
C228 C 0.60203 0.5202 0.57838 0.0
C229 C 0.8848 0.39266 0.6361 0.0
C230 C 0.94515 0.1056 0.619 0.0
C231 C 0.99859 0.22494 0.65227 0.0
C232 C 0.04384 0.18376 0.63163 0.0
C233 C 0.01686 0.12351 0.61502 0.0
N234 N 0.9286 0.20618 0.65669 0.0
C235 C 0.90152 0.14806 0.63985 0.0
Co236 Co 0.66785 0.29852 0.36848 0.0
Co237 Co 0.74206 0.18622 0.30689 0.0
O238 O 0.74905 0.25465 0.34484 0.0
C239 C 0.7485 0.22959 0.42477 0.0
O240 O 0.75167 0.17241 0.40531 0.0
C241 C 0.8697 0.28255 0.29093 0.0
O242 O 0.85756 0.32099 0.31855 0.0
O243 O 0.67317 0.25033 0.28182 0.0
O244 O 0.61406 0.30863 0.32365 0.0
H245 H 0.60875 0.03091 0.22304 0.0
H246 H 0.81231 0.35743 0.38211 0.0
O247 O 0.7187 0.28643 0.41378 0.0
H248 H 0.67288 0.55957 0.33609 0.0
H249 H 0.55863 0.46358 0.4566 0.0
H250 H 0.5092 0.28598 0.36589 0.0
H251 H 0.61857 0.44075 0.34229 0.0
H252 H 0.65734 0.4053 0.42533 0.0
O253 O 0.82736 0.23175 0.2823 0.0
H254 H 0.62091 0.12393 0.26773 0.0
H255 H 0.84699 0.10498 0.26393 0.0
H256 H 0.40869 0.34314 0.39615 0.0
H257 H 0.86907 0.47564 0.37693 0.0
H258 H 0.43313 0.43318 0.44185 0.0
H259 H 0.79912 0.5779 0.35372 0.0
O260 O 0.62115 0.20371 0.37488 0.0
H261 H 0.95348 0.12325 0.38222 0.0
H262 H 0.74541 0.02878 0.31899 0.0
H263 H 0.82552 0.94566 0.3495 0.0
H264 H 0.93102 0.99251 0.38111 0.0
H265 H 0.87073 0.20425 0.35204 0.0
H266 H 0.83709 0.01159 0.21929 0.0
H267 H 0.71727 0.97219 0.19966 0.0
O268 O 0.65945 0.13765 0.32983 0.0
C269 C 0.6211 0.28969 0.29202 0.0
C270 C 0.6612 0.04692 0.23185 0.0
C271 C 0.78941 0.03633 0.22963 0.0
N272 N 0.73453 0.11908 0.26884 0.0
C273 C 0.66847 0.09963 0.25711 0.0
C274 C 0.79467 0.08959 0.25474 0.0
C275 C 0.72213 0.01438 0.21851 0.0
C276 C 0.7816 0.40149 0.37204 0.0
N277 N 0.71233 0.39158 0.36208 0.0
C278 C 0.81401 0.4684 0.36913 0.0
C279 C 0.77479 0.52572 0.35609 0.0
C280 C 0.70408 0.5154 0.34606 0.0
C281 C 0.67371 0.4476 0.34919 0.0
C282 C 0.54723 0.42476 0.43662 0.0
C283 C 0.52024 0.32496 0.38554 0.0
C284 C 0.60293 0.39144 0.41882 0.0
N285 N 0.58905 0.3429 0.39324 0.0
C286 C 0.46311 0.35721 0.40272 0.0
C287 C 0.47685 0.40765 0.42835 0.0
C288 C 0.62003 0.1474 0.35627 0.0
C289 C 0.90869 0.10192 0.36783 0.0
C290 C 0.79188 0.04981 0.33209 0.0
C291 C 0.83681 1.00234 0.34957 0.0
C292 C 0.89592 0.02866 0.36734 0.0
N293 N 0.80593 0.12155 0.33169 0.0
C294 C 0.86249 0.1477 0.35003 0.0
Co295 Co 0.23336 0.12576 0.85838 0.0
Co296 Co 0.35643 0.2155 0.8057 0.0
O297 O 0.2799 0.21351 0.84093 0.0
C298 C 0.2681 0.21464 0.92165 0.0
O299 O 0.29163 0.26647 0.90213 0.0
C300 C 0.25877 0.34319 0.78876 0.0
O301 O 0.21713 0.32866 0.81499 0.0
O302 O 0.30082 0.14874 0.77497 0.0
O303 O 0.2265 0.08895 0.81 0.0
H304 H 0.53747 0.10252 0.72703 0.0
H305 H 0.17401 0.27114 0.87441 0.0
O306 O 0.2419 0.15818 0.9081 0.0
H307 H 0.97065 0.13293 0.82951 0.0
H308 H 0.06611 0.98048 0.9329 0.0
H309 H 0.24302 0.97215 0.83904 0.0
H310 H 0.08997 0.07875 0.83345 0.0
H311 H 0.12412 0.09033 0.91244 0.0
O312 O 0.31206 0.3027 0.78155 0.0
H313 H 0.43484 0.10339 0.76684 0.0
H314 H 0.44027 0.33017 0.77059 0.0
H315 H 0.1855 0.86095 0.85803 0.0
H316 H 0.05572 0.32723 0.87135 0.0
H317 H 0.0958 0.86454 0.90521 0.0
H318 H 0.95256 0.25811 0.84881 0.0
O319 O 0.32699 0.07721 0.86381 0.0
H320 H 0.39979 0.42146 0.88741 0.0
H321 H 0.50916 0.21685 0.82741 0.0
H322 H 0.58353 0.29266 0.8648 0.0
H323 H 0.52919 0.39622 0.895 0.0
H324 H 0.32733 0.34246 0.85059 0.0
H325 H 0.54306 0.33154 0.73086 0.0
H326 H 0.59356 0.21708 0.70983 0.0
O327 O 0.40399 0.1313 0.82781 0.0
C328 C 0.25492 0.0993 0.78034 0.0
C329 C 0.51617 0.1527 0.73636 0.0
C330 C 0.51923 0.28129 0.73847 0.0
N331 N 0.43158 0.21672 0.77114 0.0
C332 C 0.45801 0.15359 0.75886 0.0
C333 C 0.46057 0.28016 0.76068 0.0
C334 C 0.5475 0.21701 0.7266 0.0
C335 C 0.13014 0.24042 0.86448 0.0
N336 N 0.14003 0.17162 0.85373 0.0
C337 C 0.06285 0.27263 0.86284 0.0
C338 C 1.00501 0.23389 0.8502 0.0
C339 C 0.01519 0.16382 0.83925 0.0
C340 C 0.08336 0.13366 0.84106 0.0
C341 C 0.10537 0.97807 0.91243 0.0
C342 C 0.20496 0.97439 0.85978 0.0
C343 C 0.13928 0.04023 0.90111 0.0
N344 N 0.18829 0.03816 0.87497 0.0
C345 C 0.17221 0.91108 0.87039 0.0
C346 C 0.12196 0.91309 0.89687 0.0
C347 C 0.38818 0.08351 0.84989 0.0
C348 C 0.42446 0.37719 0.87395 0.0
C349 C 0.48482 0.26208 0.84017 0.0
C350 C 0.52741 0.30479 0.86141 0.0
C351 C 0.49693 0.36291 0.87831 0.0
N352 N 0.4138 0.27697 0.83552 0.0
C353 C 0.38365 0.33313 0.8525 0.0
Co354 Co 0.387 0.76776 0.35887 0.0
Co355 Co 0.29151 0.89275 0.30971 0.0
O356 O 0.297 0.80781 0.34011 0.0
C357 C 0.28649 0.77733 0.42004 0.0
O358 O 0.2341 0.79848 0.40007 0.0
C359 C 0.18597 0.7863 0.27793 0.0
O360 O 0.21433 0.73192 0.2943 0.0
O361 O 0.37031 0.85349 0.27888 0.0
O362 O 0.4301 0.77477 0.31202 0.0
H363 H 0.39103 0.11152 0.2515 0.0
H364 H 0.2458 0.69213 0.36387 0.0
O365 O 0.34744 0.76178 0.40728 0.0
H366 H 0.41452 0.51254 0.31967 0.0
H367 H 0.54318 0.60259 0.42979 0.0
H368 H 0.53952 0.80133 0.34616 0.0
H369 H 0.45419 0.63524 0.33074 0.0
H370 H 0.42918 0.65192 0.40882 0.0
O371 O 0.2148 0.84797 0.27972 0.0
H372 H 0.39808 0.99721 0.28299 0.0
H373 H 0.17317 0.97168 0.27419 0.0
H374 H 0.65488 0.75246 0.36569 0.0
H375 H 0.20382 0.57015 0.35306 0.0
H376 H 0.65735 0.65218 0.40775 0.0
H377 H 0.28847 0.47871 0.33097 0.0
O378 O 0.4242 0.86388 0.37062 0.0
H379 H 0.06474 0.87904 0.37941 0.0
H380 H 0.256 0.03748 0.33809 0.0
H381 H 0.16132 0.08653 0.37517 0.0
H382 H 0.06449 1.00715 0.39612 0.0
H383 H 0.16194 0.83213 0.34321 0.0
H384 H 0.16372 0.08689 0.24424 0.0
H385 H 0.27262 0.15748 0.23242 0.0
O386 O 0.3643 0.94307 0.33882 0.0
C387 C 0.42192 0.80918 0.28373 0.0
C388 C 0.34306 0.0808 0.25618 0.0
C389 C 0.21559 0.06666 0.25178 0.0
N390 N 0.28629 0.97707 0.28026 0.0
C391 C 0.34672 0.01578 0.27386 0.0
C392 C 0.22145 1.00106 0.26865 0.0
C393 C 0.27682 0.10655 0.2454 0.0
C394 C 0.28331 0.65335 0.35441 0.0
N395 N 0.3528 0.67165 0.34828 0.0
C396 C 0.25903 0.58396 0.34823 0.0
C397 C 0.30645 0.5327 0.33584 0.0
C398 C 0.37707 0.5516 0.32946 0.0
C399 C 0.39915 0.62164 0.33558 0.0
C400 C 0.54287 0.64646 0.41155 0.0
C401 C 0.53987 0.7576 0.36442 0.0
C402 C 0.47825 0.67523 0.39994 0.0
N403 N 0.47713 0.72966 0.37638 0.0
C404 C 0.60552 0.7303 0.37547 0.0
C405 C 0.60688 0.67418 0.39913 0.0
C406 C 0.41159 0.92766 0.36142 0.0
C407 C 0.10694 0.91415 0.37071 0.0
C408 C 0.21554 1.00203 0.34789 0.0
C409 C 0.1613 0.0304 0.3685 0.0
C410 C 0.10681 0.98594 0.38009 0.0
N411 N 0.21613 0.9313 0.33915 0.0
C412 C 0.16212 0.88782 0.35004 0.0
Co413 Co 0.76426 0.84649 0.86354 0.0
Co414 Co 0.64468 0.75165 0.81233 0.0
O415 O 0.72704 0.75771 0.84355 0.0
C416 C 0.72309 0.76389 0.92503 0.0
O417 O 0.66163 0.7522 0.90972 0.0
C418 C 0.75031 0.63985 0.78476 0.0
O419 O 0.80323 0.66254 0.80407 0.0
O420 O 0.68556 0.82984 0.7821 0.0
O421 O 0.755 0.89513 0.8181 0.0
H422 H 0.43819 0.85021 0.7435 0.0
H423 H 0.84582 0.71141 0.87235 0.0
O424 O 0.77215 0.79897 0.90985 0.0
H425 H 0.01277 0.87957 0.81712 0.0
H426 H 0.92861 0.98967 0.93993 0.0
H427 H 0.73253 1.00127 0.85482 0.0
H428 H 0.88833 0.91495 0.82879 0.0
H429 H 0.8782 0.87936 0.91517 0.0
O430 O 0.69127 0.674 0.78386 0.0
H431 H 0.54562 0.8577 0.78042 0.0
H432 H 0.56881 0.63192 0.77677 0.0
H433 H 0.78231 0.11283 0.87845 0.0
H434 H 0.96946 0.6729 0.8603 0.0
H435 H 0.88125 0.10753 0.92128 0.0
H436 H 0.05415 0.75772 0.83279 0.0
O437 O 0.66694 0.88157 0.87588 0.0
H438 H 0.65679 0.5357 0.89008 0.0
H439 H 0.49706 0.71274 0.83607 0.0
H440 H 0.44633 0.62036 0.87385 0.0
H441 H 0.52626 0.53078 0.90122 0.0
H442 H 0.70534 0.62975 0.85268 0.0
H443 H 0.46195 0.62226 0.74029 0.0
H444 H 0.39572 0.73116 0.72358 0.0
O445 O 0.59254 0.82604 0.83964 0.0
C446 C 0.72431 0.88467 0.78911 0.0
C447 C 0.46682 0.80214 0.75067 0.0
C448 C 0.48034 0.67423 0.74866 0.0
N449 N 0.56342 0.74543 0.78105 0.0
C450 C 0.52767 0.80605 0.77157 0.0
C451 C 0.54125 0.68022 0.7692 0.0
C452 C 0.44293 0.73558 0.73944 0.0
C453 C 0.88226 0.74825 0.86022 0.0
N454 N 0.86003 0.81539 0.85158 0.0
C455 C 0.9522 0.72625 0.85344 0.0
C456 C 0.99967 0.77381 0.83799 0.0
C457 C 0.97648 0.84214 0.82913 0.0
C458 C 0.90583 0.86178 0.8357 0.0
C459 C 0.88563 0.99268 0.92124 0.0
C460 C 0.7758 0.99838 0.8733 0.0
C461 C 0.85648 0.93036 0.9073 0.0
N462 N 0.80247 0.93372 0.8835 0.0
C463 C 0.80363 0.06181 0.88668 0.0
C464 C 0.85904 0.0588 0.91075 0.0
C465 C 0.60472 0.87159 0.86354 0.0
C466 C 0.62132 0.57448 0.87834 0.0
C467 C 0.53258 0.67484 0.84814 0.0
C468 C 0.50334 0.62212 0.86936 0.0
C469 C 0.54816 0.57173 0.8846 0.0
N470 N 0.60444 0.6775 0.84202 0.0
C471 C 0.64856 0.62792 0.8569 0.0
C472 C 0.31782 0.2759 0.0128 0.0
C473 C 0.2675 0.23687 0.0329 0.0
C474 C 0.21218 0.1946 0.97988 0.0
C475 C 0.2686 0.2232 0.95991 0.0
N476 N 0.3878 0.27399 0.96036 0.0
N477 N 0.18771 0.1355 0.03362 0.0
C478 C 0.32561 0.25869 0.97718 0.0
C479 C 0.22122 0.18858 0.01587 0.0
N480 N 0.35525 0.33162 0.02657 0.0
N481 N 0.14794 0.17842 0.96531 0.0
H482 H 0.20078 0.1239 0.05925 0.0
H483 H 0.15549 0.09769 0.02136 0.0
H484 H 0.13514 0.19399 0.94017 0.0
H485 H 0.10478 0.16023 0.9799 0.0
H486 H 0.38798 0.36433 0.0116 0.0
H487 H 0.34736 0.3507 0.05153 0.0
H488 H 0.43213 0.2953 0.97303 0.0
H489 H 0.3983 0.25734 0.93516 0.0
C490 C 0.2177 0.80178 0.51249 0.0
C491 C 0.26274 0.75297 0.53055 0.0
C492 C 0.30847 0.71104 0.47538 0.0
C493 C 0.2746 0.76818 0.45783 0.0
N494 N 0.20986 0.8801 0.46295 0.0
N495 N 0.37073 0.6822 0.52782 0.0
C496 C 0.23283 0.81743 0.47724 0.0
C497 C 0.31423 0.7138 0.51164 0.0
N498 N 0.15876 0.83058 0.5279 0.0
N499 N 0.33137 0.65209 0.45797 0.0
H500 H 0.38228 0.69201 0.55378 0.0
H501 H 0.41091 0.65569 0.51423 0.0
H502 H 0.3186 0.64364 0.43203 0.0
H503 H 0.35343 0.60797 0.47061 0.0
H504 H 0.12204 0.86198 0.51442 0.0
H505 H 0.14165 0.81625 0.55254 0.0
H506 H 0.18402 0.91943 0.47737 0.0
H507 H 0.22387 0.89661 0.43815 0.0
C508 C 0.80858 0.68585 0.00533 0.0
C509 C 0.76872 0.72075 0.03152 0.0
C510 C 0.69414 0.77907 0.98786 0.0
C511 C 0.73326 0.74342 0.9616 0.0
N512 N 0.81352 0.64884 0.94526 0.0
N513 N 0.66158 0.78235 0.04847 0.0
C514 C 0.78617 0.69231 0.97033 0.0
C515 C 0.7076 0.76169 0.02299 0.0
N516 N 0.86939 0.64915 0.01369 0.0
N517 N 0.64678 0.83196 0.97941 0.0
H518 H 0.66862 0.76708 0.0742 0.0
H519 H 0.6128 0.80724 0.04363 0.0
H520 H 0.63516 0.8465 0.95399 0.0
H521 H 0.62308 0.86521 -0.00231 0.0
H522 H 0.90505 0.62966 -0.00467 0.0
H523 H 0.88687 0.64215 0.03909 0.0
H524 H 0.84782 0.6063 0.9504 0.0
H525 H 0.79577 0.65071 0.91969 0.0
C526 C 0.82993 0.27167 0.47159 0.0
C527 C 0.77325 0.22672 0.461 0.0
C528 C 0.75597 0.18883 0.52091 0.0
C529 C 0.80201 0.2443 0.53191 0.0
N530 N 0.88041 0.34258 0.51784 0.0
N531 N 0.67856 0.14447 0.4756 0.0
C532 C 0.83929 0.28633 0.50732 0.0
C533 C 0.73572 0.18494 0.48559 0.0
N534 N 0.8756 0.29892 0.44748 0.0
N535 N 0.73294 0.13914 0.5442 0.0
H536 H 0.66191 0.13986 0.44996 0.0
H537 H 0.64441 0.11957 0.49307 0.0
H538 H 0.75037 0.13898 0.56983 0.0
H539 H 0.70381 0.09397 0.53729 0.0
H540 H 0.9215 0.32748 0.45382 0.0
H541 H 0.87185 0.28559 0.42135 0.0
H542 H 0.90204 0.37975 0.50077 0.0
H543 H 0.88871 0.35545 0.54375 0.0
C544 C 0.42785 0.2956 0.26286 0.0
C545 C 0.43253 0.27447 0.22784 0.0
C546 C 0.56432 0.28336 0.23178 0.0
C547 C 0.55868 0.30171 0.26738 0.0
N548 N 0.4829 0.36487 0.30762 0.0
N549 N 0.5065 0.24338 0.17885 0.0
C550 C 0.48986 0.31905 0.2805 0.0
C551 C 0.5012 0.26681 0.2122 0.0
N552 N 0.36382 0.29224 0.27969 0.0
N553 N 0.62921 0.28962 0.21592 0.0
H554 H 0.46264 0.23358 0.16307 0.0
H555 H 0.55436 0.22856 0.16726 0.0
H556 H 0.67336 0.31168 0.22845 0.0
H557 H 0.63774 0.28235 0.1896 0.0
H558 H 0.35897 0.30052 0.30625 0.0
H559 H 0.31736 0.27325 0.26792 0.0
H560 H 0.43365 0.38238 0.31686 0.0
H561 H 0.52564 0.39466 0.31674 0.0
C562 C 0.20229 0.91735 0.75301 0.0
C563 C 0.24855 0.90061 0.72516 0.0
C564 C 0.28952 0.02651 0.72562 0.0
C565 C 0.24185 0.0415 0.75348 0.0
N566 N 0.12617 0.00992 0.77524 0.0
N567 N 0.31942 0.94769 0.6779 0.0
C568 C 0.18971 0.98953 0.76137 0.0
C569 C 0.28813 0.95736 0.70947 0.0
N570 N 0.17099 0.86474 0.77215 0.0
N571 N 0.33357 0.07847 0.71327 0.0
H572 H 0.31613 0.90051 0.66382 0.0
H573 H 0.34256 0.98891 0.66375 0.0
H574 H 0.32443 0.13259 0.71758 0.0
H575 H 0.37783 0.06768 0.69783 0.0
H576 H 0.13971 0.87593 0.79378 0.0
H577 H 0.18304 0.81074 0.76891 0.0
H578 H 0.08454 0.97415 0.7798 0.0
H579 H 0.11277 0.06389 0.77693 0.0
C580 C 0.50973 0.85144 0.23561 0.0
C581 C 0.4803 0.79698 0.25711 0.0
C582 C 0.59222 0.72996 0.25271 0.0
C583 C 0.62228 0.78225 0.23063 0.0
N584 N 0.59808 0.88077 0.19194 0.0
N585 N 0.48267 0.67065 0.26743 0.0
C586 C 0.57795 0.84006 0.21951 0.0
C587 C 0.5182 0.73173 0.25949 0.0
N588 N 0.47293 0.913 0.22963 0.0
N589 N 0.63422 0.68057 0.26892 0.0
H590 H 0.42712 0.67046 0.26969 0.0
H591 H 0.50731 0.62062 0.26749 0.0
H592 H 0.68985 0.6821 0.26793 0.0
H593 H 0.61379 0.64436 0.28687 0.0
H594 H 0.49637 0.95847 0.21907 0.0
H595 H 0.41861 0.91792 0.23431 0.0
H596 H 0.56536 0.91938 0.18068 0.0
H597 H 0.64415 0.87045 0.17781 0.0
C598 C 0.80237 0.01196 0.72276 0.0
C599 C 0.76271 0.07542 0.73 0.0
C600 C 0.6891 1.00838 0.77147 0.0
C601 C 0.72901 0.9455 0.76438 0.0
N602 N 0.81336 0.88285 0.72912 0.0
N603 N 0.68003 0.13736 0.76699 0.0
C604 C 0.78266 0.94603 0.73874 0.0
C605 C 0.70866 0.0743 0.7557 0.0
N606 N 0.86135 0.01537 0.70216 0.0
N607 N 0.63092 1.00431 0.79268 0.0
H608 H 0.69536 0.18692 0.75717 0.0
H609 H 0.6462 0.14168 0.78822 0.0
H610 H 0.61488 0.95664 0.80414 0.0
H611 H 0.59472 0.04583 0.79636 0.0
H612 H 0.89665 0.97317 0.69832 0.0
H613 H 0.8795 0.06279 0.69157 0.0
H614 H 0.84728 0.8772 0.70801 0.0
H615 H 0.79968 0.83426 0.74053 0.0
C616 C 0.92871 0.33452 0.23805 0.0
C617 C 0.93488 0.29757 0.26992 0.0
C618 C 0.0636 0.28023 0.25946 0.0
C619 C 0.05787 0.32009 0.22846 0.0
N620 N 0.98966 0.4025 0.19366 0.0
N621 N 0.01228 0.25293 0.31522 0.0
C622 C 0.99168 0.35248 0.21939 0.0
C623 C 1.00363 0.27605 0.28201 0.0
N624 N 0.86277 0.35198 0.22536 0.0
N625 N 0.12508 0.24371 0.26672 0.0
H626 H 0.97065 0.25143 0.33289 0.0
H627 H 0.06204 0.24278 0.32629 0.0
H628 H 0.17035 0.24615 0.25111 0.0
H629 H 0.12931 0.20674 0.28677 0.0
H630 H 0.85462 0.37216 0.20056 0.0
H631 H 0.81559 0.3421 0.23884 0.0
H632 H 0.94458 0.43299 0.18791 0.0
H633 H 0.03538 0.41879 0.18047 0.0
C634 C 0.18184 0.46305 0.71759 0.0
C635 C 0.21308 0.53019 0.72579 0.0
C636 C 0.26533 0.47707 0.77808 0.0
C637 C 0.24302 0.40783 0.76714 0.0
N638 N 0.18644 0.33419 0.72395 0.0
N639 N 0.29294 0.59902 0.76145 0.0
C640 C 0.20316 0.40065 0.7361 0.0
C641 C 0.25693 0.53676 0.75548 0.0
N642 N 0.12976 0.45944 0.69283 0.0
N643 N 0.29293 0.48652 0.81041 0.0
H644 H 0.2873 0.64411 0.74582 0.0
H645 H 0.33248 0.60417 0.78027 0.0
H646 H 0.29801 0.44501 0.828 0.0
H647 H 0.30373 0.53652 0.82099 0.0
H648 H 0.09996 0.41361 0.6879 0.0
H649 H 0.11132 0.50446 0.67964 0.0
H650 H 0.16398 0.32529 0.69967 0.0
H651 H 0.19957 0.28737 0.73717 0.0
C652 C 0.05293 0.75457 0.27697 0.0
C653 C 0.11534 0.78009 0.25966 0.0
C654 C 0.03846 0.82996 0.21453 0.0
C655 C 0.97819 0.79215 0.22706 0.0
N656 N 0.92548 0.73034 0.27557 0.0
N657 N 0.16636 0.82967 0.20771 0.0
C658 C 0.98472 0.75751 0.25985 0.0
C659 C 0.10762 0.81359 0.22707 0.0
N660 N 0.05754 0.73177 0.3105 0.0
N661 N 0.02912 0.88651 0.19291 0.0
H662 H 0.21817 0.81662 0.21548 0.0
H663 H 0.16248 0.84835 0.18236 0.0
H664 H 0.97879 0.90902 0.1895 0.0
H665 H 0.07125 0.9171 0.18354 0.0
H666 H 0.01343 0.72104 0.32597 0.0
H667 H 0.10531 0.7275 0.32407 0.0
H668 H 0.92746 0.69274 0.2954 0.0
H669 H 0.87401 0.74741 0.26939 0.0
C670 C 0.70164 0.49626 0.72026 0.0
C671 C 0.73884 0.43467 0.73181 0.0
C672 C 0.77637 0.50525 0.78295 0.0
C673 C 0.7539 0.56952 0.76605 0.0
N674 N 0.70701 0.62395 0.71403 0.0
N675 N 0.80032 0.37791 0.77946 0.0
C676 C 0.72054 0.56423 0.73324 0.0
C677 C 0.77343 0.43847 0.7647 0.0
N678 N 0.64365 0.48961 0.69927 0.0
N679 N 0.79542 0.50647 0.8171 0.0
H680 H 0.78403 0.32699 0.77195 0.0
H681 H 0.83735 0.37839 0.7996 0.0
H682 H 0.79687 0.55259 0.832 0.0
H683 H 0.80418 0.46068 0.83178 0.0
H684 H 0.61258 0.53312 0.69162 0.0
H685 H 0.62063 0.43995 0.69474 0.0
H686 H 0.68685 0.62124 0.68888 0.0
H687 H 0.72353 0.67481 0.72161 0.0
C688 C 0.97039 0.52737 0.10593 0.0
C689 C 0.98492 0.58957 0.12586 0.0
C690 C 0.11145 0.55921 0.12604 0.0
C691 C 0.09523 0.49063 0.11334 0.0
N692 N 0.01923 0.42723 0.07365 0.0
N693 N 0.06927 0.65999 0.15874 0.0
C694 C 0.02729 0.47935 0.09802 0.0
C695 C 0.05565 0.60483 0.13662 0.0
N696 N 0.90213 0.51319 0.09558 0.0
N697 N 0.1803 0.5821 0.12546 0.0
H698 H 0.02902 0.69211 0.16893 0.0
H699 H 0.11945 0.6688 0.16966 0.0
H700 H 0.21895 0.5522 0.11254 0.0
H701 H 0.19569 0.6336 0.13247 0.0
H702 H 0.88619 0.4648 0.08484 0.0
H703 H 0.86023 0.54874 0.09963 0.0
H704 H 0.97228 0.41857 0.05986 0.0
H705 H 0.06265 0.39887 0.06384 0.0
C706 C 0.99607 0.43771 0.60661 0.0
C707 C 0.93355 0.45136 0.62644 0.0
C708 C 0.96059 0.57843 0.62563 0.0
C709 C 0.02959 0.56344 0.61322 0.0
N710 N 0.09496 0.48801 0.57408 0.0
N711 N 0.86188 0.53484 0.65918 0.0
C712 C 0.04267 0.49546 0.59836 0.0
C713 C 0.91661 0.52194 0.63675 0.0
N714 N 0.01187 0.36958 0.59666 0.0
N715 N 0.93579 0.64661 0.62435 0.0
H716 H 0.83188 0.49401 0.67027 0.0
H717 H 0.85189 0.58523 0.66961 0.0
H718 H 0.96472 0.68555 0.61112 0.0
H719 H 0.88382 0.66085 0.63116 0.0
H720 H 0.06065 0.35444 0.58606 0.0
H721 H 0.97723 0.32706 0.60081 0.0
H722 H 0.10486 0.44093 0.56063 0.0
H723 H 0.12211 0.53181 0.56392 0.0
C724 C 0.49327 0.10662 0.35557 0.0
C725 C 0.56549 0.09247 0.36396 0.0
C726 C 0.53096 0.97359 0.38551 0.0
C727 C 0.46033 0.98666 0.37337 0.0
N728 N 0.37172 0.07849 0.37018 0.0
N729 N 0.65438 0.0145 0.38871 0.0
C730 C 0.44057 0.05743 0.36562 0.0
C731 C 0.58477 0.02657 0.37982 0.0
N732 N 0.47507 0.16413 0.33576 0.0
N733 N 0.54472 0.9143 0.405 0.0
H734 H 0.69349 0.05373 0.38662 0.0
H735 H 0.67437 0.96547 0.39687 0.0
H736 H 0.50406 0.88227 0.41481 0.0
H737 H 0.59437 0.90157 0.41539 0.0
H738 H 0.42319 0.17261 0.32675 0.0
H739 H 0.5131 0.19823 0.32518 0.0
H740 H 0.3548 0.13114 0.36679 0.0
H741 H 0.33537 0.04474 0.38244 0.0
C742 C 0.50255 0.04573 0.87943 0.0
C743 C 0.44267 0.02889 0.85831 0.0
C744 C 0.47579 0.90366 0.86067 0.0
C745 C 0.54444 0.92151 0.87296 0.0
N746 N 0.61557 1.00758 0.90439 0.0
N747 N 0.37989 0.94178 0.82368 0.0
C748 C 0.55585 0.99219 0.88561 0.0
C749 C 0.43106 0.95772 0.84762 0.0
N750 N 0.50673 0.11164 0.8945 0.0
N751 N 0.45233 0.83518 0.86313 0.0
H752 H 0.35004 0.98115 0.81116 0.0
H753 H 0.37347 0.8905 0.81361 0.0
H754 H 0.48162 0.79763 0.87721 0.0
H755 H 0.40084 0.81972 0.85601 0.0
H756 H 0.54582 0.12634 0.91225 0.0
H757 H 0.46766 0.15074 0.89096 0.0
H758 H 0.63309 0.05927 0.90943 0.0
H759 H 0.64604 0.96811 0.91638 0.0
loop_
_geom_bond_atom_site_label_1
_geom_bond_atom_site_label_2
_geom_bond_distance
_geom_bond_site_symmetry_2
_ccdc_geom_bond_type
Co0 O2 2.143 . S
Co0 O8 2.074 . S
Co0 O11 2.093 . S
Co0 O24 2.097 . S
Co0 N41 2.151 . S
Co0 N49 2.214 . S
Co1 O2 2.160 . S
Co1 O7 2.058 . S
Co1 O17 2.057 . S
Co1 O32 2.037 . S
Co1 N36 2.145 . S
Co1 N57 2.257 . S
O2 Co0 2.143 . S
O2 Co1 2.160 . S
C3 O4 1.278 . S
C3 O11 1.224 . S
O4 C3 1.278 . S
C5 O6 1.245 . S
C5 O17 1.232 . S
O6 C5 1.245 . S
O7 Co1 2.058 . S
O7 C33 1.269 . S
O8 Co0 2.074 . S
O8 C33 1.257 . S
H9 C34 0.930 . S
H10 C40 0.930 . S
O11 Co0 2.093 . S
O11 C3 1.224 . S
H12 C44 0.929 . S
H13 C46 0.930 . S
H14 C47 0.930 . S
H15 C45 0.929 . S
H16 C48 0.928 . S
O17 Co1 2.057 . S
O17 C5 1.232 . S
H18 C37 0.929 . S
H19 C38 0.929 . S
H20 C50 0.931 . S
H21 C42 0.929 . S
H22 C51 0.930 . S
H23 C43 0.931 1_565 S
O24 Co0 2.097 . S
O24 C52 1.214 . S
H25 C53 0.929 . S
H26 C54 0.929 . S
H27 C55 0.930 . S
H28 C56 0.929 . S
H29 C58 0.930 . S
H30 C35 0.930 . S
H31 C39 0.930 . S
O32 Co1 2.037 . S
O32 C52 1.234 . S
C33 O7 1.269 . S
C33 O8 1.257 . S
C34 H9 0.930 . S
C34 C37 1.388 . S
C34 C39 1.418 . S
C35 H30 0.930 . S
C35 C38 1.404 . S
C35 C39 1.353 . S
N36 Co1 2.145 . S
N36 C37 1.397 . S
N36 C38 1.334 . S
C37 H18 0.929 . S
C37 C34 1.388 . S
C37 N36 1.397 . S
C38 H19 0.929 . S
C38 C35 1.404 . S
C38 N36 1.334 . S
C39 H31 0.930 . S
C39 C34 1.418 . S
C39 C35 1.353 . S
C40 H10 0.930 . S
C40 N41 1.330 . S
C40 C42 1.446 . S
N41 Co0 2.151 . S
N41 C40 1.330 . S
N41 C45 1.418 . S
C42 H21 0.929 . S
C42 C40 1.446 . S
C42 C43 1.332 . S
C43 H23 0.931 1_545 S
C43 C42 1.332 . S
C43 C44 1.267 . S
C44 H12 0.929 . S
C44 C43 1.267 . S
C44 C45 1.251 . S
C45 H15 0.929 . S
C45 N41 1.418 . S
C45 C44 1.251 . S
C46 H13 0.930 . S
C46 C48 1.406 1_655 S
C46 C51 1.261 . S
C47 H14 0.930 . S
C47 N49 1.325 1_655 S
C47 C50 1.357 . S
C48 H16 0.928 . S
C48 C46 1.406 1_455 S
C48 N49 1.261 . S
N49 Co0 2.214 . S
N49 C47 1.325 1_455 S
N49 C48 1.261 . S
C50 H20 0.931 . S
C50 C47 1.357 . S
C50 C51 1.312 . S
C51 H22 0.930 . S
C51 C46 1.261 . S
C51 C50 1.312 . S
C52 O24 1.214 . S
C52 O32 1.234 . S
C53 H25 0.929 . S
C53 C56 1.391 . S
C53 C58 1.391 . S
C54 H26 0.929 . S
C54 C55 1.390 . S
C54 N57 1.391 . S
C55 H27 0.930 . S
C55 C54 1.390 . S
C55 C56 1.392 . S
C56 H28 0.929 . S
C56 C53 1.391 . S
C56 C55 1.392 . S
N57 Co1 2.257 . S
N57 C54 1.391 . S
N57 C58 1.388 . S
C58 H29 0.930 . S
C58 C53 1.391 . S
C58 N57 1.388 . S
Co59 O61 2.143 . S
Co59 O67 2.074 . S
Co59 O70 2.093 . S
Co59 O83 2.097 . S
Co59 N100 2.151 . S
Co59 N108 2.214 . S
Co60 O61 2.160 . S
Co60 O66 2.058 . S
Co60 O76 2.057 . S
Co60 O91 2.037 . S
Co60 N95 2.145 . S
Co60 N116 2.257 . S
O61 Co59 2.143 . S
O61 Co60 2.160 . S
C62 O63 1.278 . S
C62 O70 1.224 . S
O63 C62 1.278 . S
C64 O65 1.245 . S
C64 O76 1.232 . S
O65 C64 1.245 . S
O66 Co60 2.058 . S
O66 C92 1.269 . S
O67 Co59 2.074 . S
O67 C92 1.257 . S
H68 C93 0.930 . S
H69 C99 0.930 . S
O70 Co59 2.093 . S
O70 C62 1.224 . S
H71 C103 0.929 . S
H72 C105 0.930 . S
H73 C106 0.930 . S
H74 C104 0.929 . S
H75 C107 0.928 . S
O76 Co60 2.057 . S
O76 C64 1.232 . S
H77 C96 0.929 . S
H78 C97 0.929 . S
H79 C109 0.931 . S
H80 C101 0.929 . S
H81 C110 0.930 . S
H82 C102 0.931 . S
O83 Co59 2.097 . S
O83 C111 1.214 . S
H84 C112 0.929 . S
H85 C113 0.929 . S
H86 C114 0.930 . S
H87 C115 0.929 . S
H88 C117 0.930 . S
H89 C94 0.930 . S
H90 C98 0.930 . S
O91 Co60 2.037 . S
O91 C111 1.234 . S
C92 O66 1.269 . S
C92 O67 1.257 . S
C93 H68 0.930 . S
C93 C96 1.388 1_655 S
C93 C98 1.418 . S
C94 H89 0.930 . S
C94 C97 1.404 . S
C94 C98 1.353 1_455 S
N95 Co60 2.145 . S
N95 C96 1.397 . S
N95 C97 1.334 . S
C96 H77 0.929 . S
C96 C93 1.388 1_455 S
C96 N95 1.397 . S
C97 H78 0.929 . S
C97 C94 1.404 . S
C97 N95 1.334 . S
C98 H90 0.930 . S
C98 C93 1.418 . S
C98 C94 1.353 1_655 S
C99 H69 0.930 . S
C99 N100 1.330 . S
C99 C101 1.446 . S
N100 Co59 2.151 . S
N100 C99 1.330 . S
N100 C104 1.418 . S
C101 H80 0.929 . S
C101 C99 1.446 . S
C101 C102 1.332 . S
C102 H82 0.931 . S
C102 C101 1.332 . S
C102 C103 1.267 . S
C103 H71 0.929 . S
C103 C102 1.267 . S
C103 C104 1.251 . S
C104 H74 0.929 . S
C104 N100 1.418 . S
C104 C103 1.251 . S
C105 H72 0.930 . S
C105 C107 1.406 . S
C105 C110 1.261 . S
C106 H73 0.930 . S
C106 N108 1.325 . S
C106 C109 1.357 . S
C107 H75 0.928 . S
C107 C105 1.406 . S
C107 N108 1.261 . S
N108 Co59 2.214 . S
N108 C106 1.325 . S
N108 C107 1.261 . S
C109 H79 0.931 . S
C109 C106 1.357 . S
C109 C110 1.312 . S
C110 H81 0.930 . S
C110 C105 1.261 . S
C110 C109 1.312 . S
C111 O83 1.214 . S
C111 O91 1.234 . S
C112 H84 0.929 . S
C112 C115 1.391 1_455 S
C112 C117 1.391 . S
C113 H85 0.929 . S
C113 C114 1.390 . S
C113 N116 1.391 1_655 S
C114 H86 0.930 . S
C114 C113 1.390 . S
C114 C115 1.392 . S
C115 H87 0.929 . S
C115 C112 1.391 1_655 S
C115 C114 1.392 . S
N116 Co60 2.257 . S
N116 C113 1.391 1_455 S
N116 C117 1.388 . S
C117 H88 0.930 . S
C117 C112 1.391 . S
C117 N116 1.388 . S
Co118 O120 2.143 . S
Co118 O126 2.074 . S
Co118 O129 2.093 . S
Co118 O142 2.097 . S
Co118 N159 2.151 . S
Co118 N167 2.214 . S
Co119 O120 2.160 . S
Co119 O125 2.058 . S
Co119 O135 2.057 . S
Co119 O150 2.037 . S
Co119 N154 2.145 . S
Co119 N175 2.257 . S
O120 Co118 2.143 . S
O120 Co119 2.160 . S
C121 O122 1.278 . S
C121 O129 1.224 . S
O122 C121 1.278 . S
C123 O124 1.245 . S
C123 O135 1.232 . S
O124 C123 1.245 . S
O125 Co119 2.058 . S
O125 C151 1.269 . S
O126 Co118 2.074 . S
O126 C151 1.257 . S
H127 C152 0.930 . S
H128 C158 0.930 . S
O129 Co118 2.093 . S
O129 C121 1.224 . S
H130 C162 0.929 . S
H131 C164 0.930 . S
H132 C165 0.930 . S
H133 C163 0.929 . S
H134 C166 0.928 . S
O135 Co119 2.057 . S
O135 C123 1.232 . S
H136 C155 0.929 . S
H137 C156 0.929 . S
H138 C168 0.931 . S
H139 C160 0.929 . S
H140 C169 0.930 . S
H141 C161 0.931 1_545 S
O142 Co118 2.097 . S
O142 C170 1.214 . S
H143 C171 0.929 . S
H144 C172 0.929 . S
H145 C173 0.930 . S
H146 C174 0.929 . S
H147 C176 0.930 . S
H148 C153 0.930 . S
H149 C157 0.930 . S
O150 Co119 2.037 . S
O150 C170 1.234 . S
C151 O125 1.269 . S
C151 O126 1.257 . S
C152 H127 0.930 . S
C152 C155 1.388 . S
C152 C157 1.418 . S
C153 H148 0.930 . S
C153 C156 1.404 . S
C153 C157 1.353 . S
N154 Co119 2.145 . S
N154 C155 1.397 . S
N154 C156 1.334 . S
C155 H136 0.929 . S
C155 C152 1.388 . S
C155 N154 1.397 . S
C156 H137 0.929 . S
C156 C153 1.404 . S
C156 N154 1.334 . S
C157 H149 0.930 . S
C157 C152 1.418 . S
C157 C153 1.353 . S
C158 H128 0.930 . S
C158 N159 1.330 . S
C158 C160 1.446 . S
N159 Co118 2.151 . S
N159 C158 1.330 . S
N159 C163 1.418 . S
C160 H139 0.929 . S
C160 C158 1.446 . S
C160 C161 1.332 . S
C161 H141 0.931 1_565 S
C161 C160 1.332 . S
C161 C162 1.267 . S
C162 H130 0.929 . S
C162 C161 1.267 . S
C162 C163 1.251 . S
C163 H133 0.929 . S
C163 N159 1.418 . S
C163 C162 1.251 . S
C164 H131 0.930 . S
C164 C166 1.406 1_455 S
C164 C169 1.261 . S
C165 H132 0.930 . S
C165 N167 1.325 1_455 S
C165 C168 1.357 . S
C166 H134 0.928 . S
C166 C164 1.406 1_655 S
C166 N167 1.261 . S
N167 Co118 2.214 . S
N167 C165 1.325 1_655 S
N167 C166 1.261 . S
C168 H138 0.931 . S
C168 C165 1.357 . S
C168 C169 1.312 . S
C169 H140 0.930 . S
C169 C164 1.261 . S
C169 C168 1.312 . S
C170 O142 1.214 . S
C170 O150 1.234 . S
C171 H143 0.929 . S
C171 C174 1.391 . S
C171 C176 1.391 . S
C172 H144 0.929 . S
C172 C173 1.390 . S
C172 N175 1.391 . S
C173 H145 0.930 . S
C173 C172 1.390 . S
C173 C174 1.392 . S
C174 H146 0.929 . S
C174 C171 1.391 . S
C174 C173 1.392 . S
N175 Co119 2.257 . S
N175 C172 1.391 . S
N175 C176 1.388 . S
C176 H147 0.930 . S
C176 C171 1.391 . S
C176 N175 1.388 . S
Co177 O179 2.143 . S
Co177 O185 2.074 . S
Co177 O188 2.093 . S
Co177 O201 2.097 . S
Co177 N218 2.151 . S
Co177 N226 2.214 . S
Co178 O179 2.160 . S
Co178 O184 2.058 . S
Co178 O194 2.057 . S
Co178 O209 2.037 . S
Co178 N213 2.145 . S
Co178 N234 2.257 . S
O179 Co177 2.143 . S
O179 Co178 2.160 . S
C180 O181 1.278 . S
C180 O188 1.224 . S
O181 C180 1.278 . S
C182 O183 1.245 . S
C182 O194 1.232 . S
O183 C182 1.245 . S
O184 Co178 2.058 . S
O184 C210 1.269 . S
O185 Co177 2.074 . S
O185 C210 1.257 . S
H186 C211 0.930 . S
H187 C217 0.930 . S
O188 Co177 2.093 . S
O188 C180 1.224 . S
H189 C221 0.929 . S
H190 C223 0.930 . S
H191 C224 0.930 . S
H192 C222 0.929 . S
H193 C225 0.928 . S
O194 Co178 2.057 . S
O194 C182 1.232 . S
H195 C214 0.929 . S
H196 C215 0.929 . S
H197 C227 0.931 . S
H198 C219 0.929 . S
H199 C228 0.930 . S
H200 C220 0.931 . S
O201 Co177 2.097 . S
O201 C229 1.214 . S
H202 C230 0.929 . S
H203 C231 0.929 . S
H204 C232 0.930 . S
H205 C233 0.929 . S
H206 C235 0.930 . S
H207 C212 0.930 . S
H208 C216 0.930 . S
O209 Co178 2.037 . S
O209 C229 1.234 . S
C210 O184 1.269 . S
C210 O185 1.257 . S
C211 H186 0.930 . S
C211 C214 1.388 1_455 S
C211 C216 1.418 . S
C212 H207 0.930 . S
C212 C215 1.404 . S
C212 C216 1.353 1_655 S
N213 Co178 2.145 . S
N213 C214 1.397 . S
N213 C215 1.334 . S
C214 H195 0.929 . S
C214 C211 1.388 1_655 S
C214 N213 1.397 . S
C215 H196 0.929 . S
C215 C212 1.404 . S
C215 N213 1.334 . S
C216 H208 0.930 . S
C216 C211 1.418 . S
C216 C212 1.353 1_455 S
C217 H187 0.930 . S
C217 N218 1.330 . S
C217 C219 1.446 . S
N218 Co177 2.151 . S
N218 C217 1.330 . S
N218 C222 1.418 . S
C219 H198 0.929 . S
C219 C217 1.446 . S
C219 C220 1.332 . S
C220 H200 0.931 . S
C220 C219 1.332 . S
C220 C221 1.267 . S
C221 H189 0.929 . S
C221 C220 1.267 . S
C221 C222 1.251 . S
C222 H192 0.929 . S
C222 N218 1.418 . S
C222 C221 1.251 . S
C223 H190 0.930 . S
C223 C225 1.406 . S
C223 C228 1.261 . S
C224 H191 0.930 . S
C224 N226 1.325 . S
C224 C227 1.357 . S
C225 H193 0.928 . S
C225 C223 1.406 . S
C225 N226 1.261 . S
N226 Co177 2.214 . S
N226 C224 1.325 . S
N226 C225 1.261 . S
C227 H197 0.931 . S
C227 C224 1.357 . S
C227 C228 1.312 . S
C228 H199 0.930 . S
C228 C223 1.261 . S
C228 C227 1.312 . S
C229 O201 1.214 . S
C229 O209 1.234 . S
C230 H202 0.929 . S
C230 C233 1.391 1_655 S
C230 C235 1.391 . S
C231 H203 0.929 . S
C231 C232 1.390 . S
C231 N234 1.391 1_455 S
C232 H204 0.930 . S
C232 C231 1.390 . S
C232 C233 1.392 . S
C233 H205 0.929 . S
C233 C230 1.391 1_455 S
C233 C232 1.392 . S
N234 Co178 2.257 . S
N234 C231 1.391 1_655 S
N234 C235 1.388 . S
C235 H206 0.930 . S
C235 C230 1.391 . S
C235 N234 1.388 . S
Co236 O238 2.143 . S
Co236 O244 2.074 . S
Co236 O247 2.093 . S
Co236 O260 2.097 . S
Co236 N277 2.151 . S
Co236 N285 2.214 . S
Co237 O238 2.160 . S
Co237 O243 2.058 . S
Co237 O253 2.057 . S
Co237 O268 2.037 . S
Co237 N272 2.145 . S
Co237 N293 2.257 . S
O238 Co236 2.143 . S
O238 Co237 2.160 . S
C239 O240 1.278 . S
C239 O247 1.224 . S
O240 C239 1.278 . S
C241 O242 1.245 . S
C241 O253 1.232 . S
O242 C241 1.245 . S
O243 Co237 2.058 . S
O243 C269 1.269 . S
O244 Co236 2.074 . S
O244 C269 1.257 . S
H245 C270 0.930 . S
H246 C276 0.930 . S
O247 Co236 2.093 . S
O247 C239 1.224 . S
H248 C280 0.929 . S
H249 C282 0.930 . S
H250 C283 0.930 . S
H251 C281 0.929 . S
H252 C284 0.928 . S
O253 Co237 2.057 . S
O253 C241 1.232 . S
H254 C273 0.929 . S
H255 C274 0.929 . S
H256 C286 0.931 . S
H257 C278 0.929 . S
H258 C287 0.930 . S
H259 C279 0.931 . S
O260 Co236 2.097 . S
O260 C288 1.214 . S
H261 C289 0.929 . S
H262 C290 0.929 . S
H263 C291 0.930 . S
H264 C292 0.929 . S
H265 C294 0.930 . S
H266 C271 0.930 . S
H267 C275 0.930 . S
O268 Co237 2.037 . S
O268 C288 1.234 . S
C269 O243 1.269 . S
C269 O244 1.257 . S
C270 H245 0.930 . S
C270 C273 1.388 1_565 S
C270 C275 1.418 . S
C271 H266 0.930 . S
C271 C274 1.404 . S
C271 C275 1.353 1_545 S
N272 Co237 2.145 . S
N272 C273 1.397 . S
N272 C274 1.334 . S
C273 H254 0.929 . S
C273 C270 1.388 1_545 S
C273 N272 1.397 . S
C274 H255 0.929 . S
C274 C271 1.404 . S
C274 N272 1.334 . S
C275 H267 0.930 . S
C275 C270 1.418 . S
C275 C271 1.353 1_565 S
C276 H246 0.930 . S
C276 N277 1.330 . S
C276 C278 1.446 . S
N277 Co236 2.151 . S
N277 C276 1.330 . S
N277 C281 1.418 . S
C278 H257 0.929 . S
C278 C276 1.446 . S
C278 C279 1.332 . S
C279 H259 0.931 . S
C279 C278 1.332 . S
C279 C280 1.267 . S
C280 H248 0.929 . S
C280 C279 1.267 . S
C280 C281 1.251 . S
C281 H251 0.929 . S
C281 N277 1.418 . S
C281 C280 1.251 . S
C282 H249 0.930 . S
C282 C284 1.406 . S
C282 C287 1.261 . S
C283 H250 0.930 . S
C283 N285 1.325 . S
C283 C286 1.357 . S
C284 H252 0.928 . S
C284 C282 1.406 . S
C284 N285 1.261 . S
N285 Co236 2.214 . S
N285 C283 1.325 . S
N285 C284 1.261 . S
C286 H256 0.931 . S
C286 C283 1.357 . S
C286 C287 1.312 . S
C287 H258 0.930 . S
C287 C282 1.261 . S
C287 C286 1.312 . S
C288 O260 1.214 . S
C288 O268 1.234 . S
C289 H261 0.929 . S
C289 C292 1.391 1_545 S
C289 C294 1.391 . S
C290 H262 0.929 . S
C290 C291 1.390 . S
C290 N293 1.391 1_565 S
C291 H263 0.930 . S
C291 C290 1.390 . S
C291 C292 1.392 . S
C292 H264 0.929 . S
C292 C289 1.391 1_565 S
C292 C291 1.392 . S
N293 Co237 2.257 . S
N293 C290 1.391 1_545 S
N293 C294 1.388 . S
C294 H265 0.930 . S
C294 C289 1.391 . S
C294 N293 1.388 . S
Co295 O297 2.143 . S
Co295 O303 2.074 . S
Co295 O306 2.093 . S
Co295 O319 2.097 . S
Co295 N336 2.151 . S
Co295 N344 2.214 . S
Co296 O297 2.160 . S
Co296 O302 2.058 . S
Co296 O312 2.057 . S
Co296 O327 2.037 . S
Co296 N331 2.145 . S
Co296 N352 2.257 . S
O297 Co295 2.143 . S
O297 Co296 2.160 . S
C298 O299 1.278 . S
C298 O306 1.224 . S
O299 C298 1.278 . S
C300 O301 1.245 . S
C300 O312 1.232 . S
O301 C300 1.245 . S
O302 Co296 2.058 . S
O302 C328 1.269 . S
O303 Co295 2.074 . S
O303 C328 1.257 . S
H304 C329 0.930 . S
H305 C335 0.930 . S
O306 Co295 2.093 . S
O306 C298 1.224 . S
H307 C339 0.929 . S
H308 C341 0.930 . S
H309 C342 0.930 . S
H310 C340 0.929 . S
H311 C343 0.928 . S
O312 Co296 2.057 . S
O312 C300 1.232 . S
H313 C332 0.929 . S
H314 C333 0.929 . S
H315 C345 0.931 . S
H316 C337 0.929 . S
H317 C346 0.930 . S
H318 C338 0.931 1_655 S
O319 Co295 2.097 . S
O319 C347 1.214 . S
H320 C348 0.929 . S
H321 C349 0.929 . S
H322 C350 0.930 . S
H323 C351 0.929 . S
H324 C353 0.930 . S
H325 C330 0.930 . S
H326 C334 0.930 . S
O327 Co296 2.037 . S
O327 C347 1.234 . S
C328 O302 1.269 . S
C328 O303 1.257 . S
C329 H304 0.930 . S
C329 C332 1.388 . S
C329 C334 1.418 . S
C330 H325 0.930 . S
C330 C333 1.404 . S
C330 C334 1.353 . S
N331 Co296 2.145 . S
N331 C332 1.397 . S
N331 C333 1.334 . S
C332 H313 0.929 . S
C332 C329 1.388 . S
C332 N331 1.397 . S
C333 H314 0.929 . S
C333 C330 1.404 . S
C333 N331 1.334 . S
C334 H326 0.930 . S
C334 C329 1.418 . S
C334 C330 1.353 . S
C335 H305 0.930 . S
C335 N336 1.330 . S
C335 C337 1.446 . S
N336 Co295 2.151 . S
N336 C335 1.330 . S
N336 C340 1.418 . S
C337 H316 0.929 . S
C337 C335 1.446 . S
C337 C338 1.332 . S
C338 H318 0.931 1_455 S
C338 C337 1.332 . S
C338 C339 1.267 . S
C339 H307 0.929 . S
C339 C338 1.267 . S
C339 C340 1.251 . S
C340 H310 0.929 . S
C340 N336 1.418 . S
C340 C339 1.251 . S
C341 H308 0.930 . S
C341 C343 1.406 1_565 S
C341 C346 1.261 . S
C342 H309 0.930 . S
C342 N344 1.325 1_565 S
C342 C345 1.357 . S
C343 H311 0.928 . S
C343 C341 1.406 1_545 S
C343 N344 1.261 . S
N344 Co295 2.214 . S
N344 C342 1.325 1_545 S
N344 C343 1.261 . S
C345 H315 0.931 . S
C345 C342 1.357 . S
C345 C346 1.312 . S
C346 H317 0.930 . S
C346 C341 1.261 . S
C346 C345 1.312 . S
C347 O319 1.214 . S
C347 O327 1.234 . S
C348 H320 0.929 . S
C348 C351 1.391 . S
C348 C353 1.391 . S
C349 H321 0.929 . S
C349 C350 1.390 . S
C349 N352 1.391 . S
C350 H322 0.930 . S
C350 C349 1.390 . S
C350 C351 1.392 . S
C351 H323 0.929 . S
C351 C348 1.391 . S
C351 C350 1.392 . S
N352 Co296 2.257 . S
N352 C349 1.391 . S
N352 C353 1.388 . S
C353 H324 0.930 . S
C353 C348 1.391 . S
C353 N352 1.388 . S
Co354 O356 2.143 . S
Co354 O362 2.074 . S
Co354 O365 2.093 . S
Co354 O378 2.097 . S
Co354 N395 2.151 . S
Co354 N403 2.214 . S
Co355 O356 2.160 . S
Co355 O361 2.058 . S
Co355 O371 2.057 . S
Co355 O386 2.037 . S
Co355 N390 2.145 . S
Co355 N411 2.257 . S
O356 Co354 2.143 . S
O356 Co355 2.160 . S
C357 O358 1.278 . S
C357 O365 1.224 . S
O358 C357 1.278 . S
C359 O360 1.245 . S
C359 O371 1.232 . S
O360 C359 1.245 . S
O361 Co355 2.058 . S
O361 C387 1.269 . S
O362 Co354 2.074 . S
O362 C387 1.257 . S
H363 C388 0.930 . S
H364 C394 0.930 . S
O365 Co354 2.093 . S
O365 C357 1.224 . S
H366 C398 0.929 . S
H367 C400 0.930 . S
H368 C401 0.930 . S
H369 C399 0.929 . S
H370 C402 0.928 . S
O371 Co355 2.057 . S
O371 C359 1.232 . S
H372 C391 0.929 . S
H373 C392 0.929 . S
H374 C404 0.931 . S
H375 C396 0.929 . S
H376 C405 0.930 . S
H377 C397 0.931 . S
O378 Co354 2.097 . S
O378 C406 1.214 . S
H379 C407 0.929 . S
H380 C408 0.929 . S
H381 C409 0.930 . S
H382 C410 0.929 . S
H383 C412 0.930 . S
H384 C389 0.930 . S
H385 C393 0.930 . S
O386 Co355 2.037 . S
O386 C406 1.234 . S
C387 O361 1.269 . S
C387 O362 1.257 . S
C388 H363 0.930 . S
C388 C391 1.388 1_545 S
C388 C393 1.418 . S
C389 H384 0.930 . S
C389 C392 1.404 . S
C389 C393 1.353 1_565 S
N390 Co355 2.145 . S
N390 C391 1.397 . S
N390 C392 1.334 . S
C391 H372 0.929 . S
C391 C388 1.388 1_565 S
C391 N390 1.397 . S
C392 H373 0.929 . S
C392 C389 1.404 . S
C392 N390 1.334 . S
C393 H385 0.930 . S
C393 C388 1.418 . S
C393 C389 1.353 1_545 S
C394 H364 0.930 . S
C394 N395 1.330 . S
C394 C396 1.446 . S
N395 Co354 2.151 . S
N395 C394 1.330 . S
N395 C399 1.418 . S
C396 H375 0.929 . S
C396 C394 1.446 . S
C396 C397 1.332 . S
C397 H377 0.931 . S
C397 C396 1.332 . S
C397 C398 1.267 . S
C398 H366 0.929 . S
C398 C397 1.267 . S
C398 C399 1.251 . S
C399 H369 0.929 . S
C399 N395 1.418 . S
C399 C398 1.251 . S
C400 H367 0.930 . S
C400 C402 1.406 . S
C400 C405 1.261 . S
C401 H368 0.930 . S
C401 N403 1.325 . S
C401 C404 1.357 . S
C402 H370 0.928 . S
C402 C400 1.406 . S
C402 N403 1.261 . S
N403 Co354 2.214 . S
N403 C401 1.325 . S
N403 C402 1.261 . S
C404 H374 0.931 . S
C404 C401 1.357 . S
C404 C405 1.312 . S
C405 H376 0.930 . S
C405 C400 1.261 . S
C405 C404 1.312 . S
C406 O378 1.214 . S
C406 O386 1.234 . S
C407 H379 0.929 . S
C407 C410 1.391 1_565 S
C407 C412 1.391 . S
C408 H380 0.929 . S
C408 C409 1.390 . S
C408 N411 1.391 1_545 S
C409 H381 0.930 . S
C409 C408 1.390 . S
C409 C410 1.392 . S
C410 H382 0.929 . S
C410 C407 1.391 1_545 S
C410 C409 1.392 . S
N411 Co355 2.257 . S
N411 C408 1.391 1_565 S
N411 C412 1.388 . S
C412 H383 0.930 . S
C412 C407 1.391 . S
C412 N411 1.388 . S
Co413 O415 2.143 . S
Co413 O421 2.074 . S
Co413 O424 2.093 . S
Co413 O437 2.097 . S
Co413 N454 2.151 . S
Co413 N462 2.214 . S
Co414 O415 2.160 . S
Co414 O420 2.058 . S
Co414 O430 2.057 . S
Co414 O445 2.037 . S
Co414 N449 2.145 . S
Co414 N470 2.257 . S
O415 Co413 2.143 . S
O415 Co414 2.160 . S
C416 O417 1.278 . S
C416 O424 1.224 . S
O417 C416 1.278 . S
C418 O419 1.245 . S
C418 O430 1.232 . S
O419 C418 1.245 . S
O420 Co414 2.058 . S
O420 C446 1.269 . S
O421 Co413 2.074 . S
O421 C446 1.257 . S
H422 C447 0.930 . S
H423 C453 0.930 . S
O424 Co413 2.093 . S
O424 C416 1.224 . S
H425 C457 0.929 . S
H426 C459 0.930 . S
H427 C460 0.930 . S
H428 C458 0.929 . S
H429 C461 0.928 . S
O430 Co414 2.057 . S
O430 C418 1.232 . S
H431 C450 0.929 . S
H432 C451 0.929 . S
H433 C463 0.931 . S
H434 C455 0.929 . S
H435 C464 0.930 . S
H436 C456 0.931 1_455 S
O437 Co413 2.097 . S
O437 C465 1.214 . S
H438 C466 0.929 . S
H439 C467 0.929 . S
H440 C468 0.930 . S
H441 C469 0.929 . S
H442 C471 0.930 . S
H443 C448 0.930 . S
H444 C452 0.930 . S
O445 Co414 2.037 . S
O445 C465 1.234 . S
C446 O420 1.269 . S
C446 O421 1.257 . S
C447 H422 0.930 . S
C447 C450 1.388 . S
C447 C452 1.418 . S
C448 H443 0.930 . S
C448 C451 1.404 . S
C448 C452 1.353 . S
N449 Co414 2.145 . S
N449 C450 1.397 . S
N449 C451 1.334 . S
C450 H431 0.929 . S
C450 C447 1.388 . S
C450 N449 1.397 . S
C451 H432 0.929 . S
C451 C448 1.404 . S
C451 N449 1.334 . S
C452 H444 0.930 . S
C452 C447 1.418 . S
C452 C448 1.353 . S
C453 H423 0.930 . S
C453 N454 1.330 . S
C453 C455 1.446 . S
N454 Co413 2.151 . S
N454 C453 1.330 . S
N454 C458 1.418 . S
C455 H434 0.929 . S
C455 C453 1.446 . S
C455 C456 1.332 . S
C456 H436 0.931 1_655 S
C456 C455 1.332 . S
C456 C457 1.267 . S
C457 H425 0.929 . S
C457 C456 1.267 . S
C457 C458 1.251 . S
C458 H428 0.929 . S
C458 N454 1.418 . S
C458 C457 1.251 . S
C459 H426 0.930 . S
C459 C461 1.406 1_545 S
C459 C464 1.261 . S
C460 H427 0.930 . S
C460 N462 1.325 1_545 S
C460 C463 1.357 . S
C461 H429 0.928 . S
C461 C459 1.406 1_565 S
C461 N462 1.261 . S
N462 Co413 2.214 . S
N462 C460 1.325 1_565 S
N462 C461 1.261 . S
C463 H433 0.931 . S
C463 C460 1.357 . S
C463 C464 1.312 . S
C464 H435 0.930 . S
C464 C459 1.261 . S
C464 C463 1.312 . S
C465 O437 1.214 . S
C465 O445 1.234 . S
C466 H438 0.929 . S
C466 C469 1.391 . S
C466 C471 1.391 . S
C467 H439 0.929 . S
C467 C468 1.390 . S
C467 N470 1.391 . S
C468 H440 0.930 . S
C468 C467 1.390 . S
C468 C469 1.392 . S
C469 H441 0.929 . S
C469 C466 1.391 . S
C469 C468 1.392 . S
N470 Co414 2.257 . S
N470 C467 1.391 . S
N470 C471 1.388 . S
C471 H442 0.930 . S
C471 C466 1.391 . S
C471 N470 1.388 . S
C472 C473 1.363 . S
C472 C478 1.379 1_554 S
C472 N480 1.356 . S
C473 C472 1.363 . S
C473 C479 1.363 . S
C474 C475 1.363 . S
C474 C479 1.379 1_556 S
C474 N481 1.356 . S
C475 C474 1.363 . S
C475 C478 1.363 . S
N476 C478 1.356 . S
N476 H488 0.984 . S
N476 H489 0.985 . S
N477 C479 1.356 . S
N477 H482 0.984 . S
N477 H483 0.985 . S
C478 C472 1.379 1_556 S
C478 C475 1.363 . S
C478 N476 1.356 . S
C479 C473 1.363 . S
C479 C474 1.379 1_554 S
C479 N477 1.356 . S
N480 C472 1.356 . S
N480 H486 0.984 . S
N480 H487 0.984 . S
N481 C474 1.356 . S
N481 H484 0.984 . S
N481 H485 0.985 . S
H482 N477 0.984 . S
H483 N477 0.985 . S
H484 N481 0.984 . S
H485 N481 0.985 . S
H486 N480 0.984 . S
H487 N480 0.984 . S
H488 N476 0.984 . S
H489 N476 0.985 . S
C490 C491 1.363 . S
C490 C496 1.379 . S
C490 N498 1.356 . S
C491 C490 1.363 . S
C491 C497 1.363 . S
C492 C493 1.363 . S
C492 C497 1.379 . S
C492 N499 1.356 . S
C493 C492 1.363 . S
C493 C496 1.363 . S
N494 C496 1.356 . S
N494 H506 0.984 . S
N494 H507 0.985 . S
N495 C497 1.356 . S
N495 H500 0.984 . S
N495 H501 0.985 . S
C496 C490 1.379 . S
C496 C493 1.363 . S
C496 N494 1.356 . S
C497 C491 1.363 . S
C497 C492 1.379 . S
C497 N495 1.356 . S
N498 C490 1.356 . S
N498 H504 0.984 . S
N498 H505 0.984 . S
N499 C492 1.356 . S
N499 H502 0.984 . S
N499 H503 0.985 . S
H500 N495 0.984 . S
H501 N495 0.985 . S
H502 N499 0.984 . S
H503 N499 0.985 . S
H504 N498 0.984 . S
H505 N498 0.984 . S
H506 N494 0.984 . S
H507 N494 0.985 . S
C508 C509 1.363 . S
C508 C514 1.379 1_554 S
C508 N516 1.356 . S
C509 C508 1.363 . S
C509 C515 1.363 . S
C510 C511 1.363 . S
C510 C515 1.379 1_556 S
C510 N517 1.356 . S
C511 C510 1.363 . S
C511 C514 1.363 . S
N512 C514 1.356 . S
N512 H524 0.984 . S
N512 H525 0.985 . S
N513 C515 1.356 . S
N513 H518 0.984 . S
N513 H519 0.985 . S
C514 C508 1.379 1_556 S
C514 C511 1.363 . S
C514 N512 1.356 . S
C515 C509 1.363 . S
C515 C510 1.379 1_554 S
C515 N513 1.356 . S
N516 C508 1.356 . S
N516 H522 0.984 . S
N516 H523 0.984 . S
N517 C510 1.356 . S
N517 H520 0.984 . S
N517 H521 0.985 . S
H518 N513 0.984 . S
H519 N513 0.985 . S
H520 N517 0.984 . S
H521 N517 0.985 . S
H522 N516 0.984 . S
H523 N516 0.984 . S
H524 N512 0.984 . S
H525 N512 0.985 . S
C526 C527 1.363 . S
C526 C532 1.379 . S
C526 N534 1.356 . S
C527 C526 1.363 . S
C527 C533 1.363 . S
C528 C529 1.363 . S
C528 C533 1.379 . S
C528 N535 1.356 . S
C529 C528 1.363 . S
C529 C532 1.363 . S
N530 C532 1.356 . S
N530 H542 0.984 . S
N530 H543 0.985 . S
N531 C533 1.356 . S
N531 H536 0.984 . S
N531 H537 0.985 . S
C532 C526 1.379 . S
C532 C529 1.363 . S
C532 N530 1.356 . S
C533 C527 1.363 . S
C533 C528 1.379 . S
C533 N531 1.356 . S
N534 C526 1.356 . S
N534 H540 0.984 . S
N534 H541 0.984 . S
N535 C528 1.356 . S
N535 H538 0.984 . S
N535 H539 0.985 . S
H536 N531 0.984 . S
H537 N531 0.985 . S
H538 N535 0.984 . S
H539 N535 0.985 . S
H540 N534 0.984 . S
H541 N534 0.984 . S
H542 N530 0.984 . S
H543 N530 0.985 . S
C544 C545 1.363 . S
C544 C550 1.379 . S
C544 N552 1.356 . S
C545 C544 1.363 . S
C545 C551 1.363 . S
C546 C547 1.363 . S
C546 C551 1.379 . S
C546 N553 1.356 . S
C547 C546 1.363 . S
C547 C550 1.363 . S
N548 C550 1.356 . S
N548 H560 0.984 . S
N548 H561 0.985 . S
N549 C551 1.356 . S
N549 H554 0.984 . S
N549 H555 0.985 . S
C550 C544 1.379 . S
C550 C547 1.363 . S
C550 N548 1.356 . S
C551 C545 1.363 . S
C551 C546 1.379 . S
C551 N549 1.356 . S
N552 C544 1.356 . S
N552 H558 0.984 . S
N552 H559 0.984 . S
N553 C546 1.356 . S
N553 H556 0.984 . S
N553 H557 0.985 . S
H554 N549 0.984 . S
H555 N549 0.985 . S
H556 N553 0.984 . S
H557 N553 0.985 . S
H558 N552 0.984 . S
H559 N552 0.984 . S
H560 N548 0.984 . S
H561 N548 0.985 . S
C562 C563 1.363 . S
C562 C568 1.379 . S
C562 N570 1.356 . S
C563 C562 1.363 . S
C563 C569 1.363 . S
C564 C565 1.363 . S
C564 C569 1.379 1_545 S
C564 N571 1.356 . S
C565 C564 1.363 . S
C565 C568 1.363 1_545 S
N566 C568 1.356 . S
N566 H578 0.984 . S
N566 H579 0.985 1_565 S
N567 C569 1.356 . S
N567 H572 0.984 . S
N567 H573 0.984 . S
C568 C562 1.379 . S
C568 C565 1.363 1_565 S
C568 N566 1.356 . S
C569 C563 1.363 . S
C569 C564 1.379 1_565 S
C569 N567 1.356 . S
N570 C562 1.356 . S
N570 H576 0.984 . S
N570 H577 0.984 . S
N571 C564 1.356 . S
N571 H574 0.984 . S
N571 H575 0.985 . S
H572 N567 0.984 . S
H573 N567 0.984 . S
H574 N571 0.984 . S
H575 N571 0.985 . S
H576 N570 0.984 . S
H577 N570 0.984 . S
H578 N566 0.984 . S
H579 N566 0.985 1_545 S
C580 C581 1.363 . S
C580 C586 1.379 . S
C580 N588 1.356 . S
C581 C580 1.363 . S
C581 C587 1.363 . S
C582 C583 1.363 . S
C582 C587 1.379 . S
C582 N589 1.356 . S
C583 C582 1.363 . S
C583 C586 1.363 . S
N584 C586 1.356 . S
N584 H596 0.984 . S
N584 H597 0.985 . S
N585 C587 1.356 . S
N585 H590 0.984 . S
N585 H591 0.985 . S
C586 C580 1.379 . S
C586 C583 1.363 . S
C586 N584 1.356 . S
C587 C581 1.363 . S
C587 C582 1.379 . S
C587 N585 1.356 . S
N588 C580 1.356 . S
N588 H594 0.984 . S
N588 H595 0.984 . S
N589 C582 1.356 . S
N589 H592 0.984 . S
N589 H593 0.985 . S
H590 N585 0.984 . S
H591 N585 0.985 . S
H592 N589 0.984 . S
H593 N589 0.985 . S
H594 N588 0.984 . S
H595 N588 0.984 . S
H596 N584 0.984 . S
H597 N584 0.985 . S
C598 C599 1.363 . S
C598 C604 1.379 1_545 S
C598 N606 1.356 . S
C599 C598 1.363 . S
C599 C605 1.363 . S
C600 C601 1.363 1_545 S
C600 C605 1.379 . S
C600 N607 1.356 1_545 S
C601 C600 1.363 1_565 S
C601 C604 1.363 . S
N602 C604 1.356 . S
N602 H614 0.984 . S
N602 H615 0.985 . S
N603 C605 1.356 . S
N603 H608 0.984 . S
N603 H609 0.985 . S
C604 C598 1.379 1_565 S
C604 C601 1.363 . S
C604 N602 1.356 . S
C605 C599 1.363 . S
C605 C600 1.379 . S
C605 N603 1.356 . S
N606 C598 1.356 . S
N606 H612 0.984 . S
N606 H613 0.984 . S
N607 C600 1.356 1_565 S
N607 H610 0.984 . S
N607 H611 0.985 1_565 S
H608 N603 0.984 . S
H609 N603 0.985 . S
H610 N607 0.984 . S
H611 N607 0.985 1_545 S
H612 N606 0.984 . S
H613 N606 0.984 . S
H614 N602 0.984 . S
H615 N602 0.985 . S
C616 C617 1.363 . S
C616 C622 1.379 . S
C616 N624 1.356 . S
C617 C616 1.363 . S
C617 C623 1.363 . S
C618 C619 1.363 . S
C618 C623 1.379 1_455 S
C618 N625 1.356 . S
C619 C618 1.363 . S
C619 C622 1.363 1_455 S
N620 C622 1.356 . S
N620 H632 0.984 . S
N620 H633 0.985 1_655 S
N621 C623 1.356 . S
N621 H626 0.984 . S
N621 H627 0.985 . S
C622 C616 1.379 . S
C622 C619 1.363 1_655 S
C622 N620 1.356 . S
C623 C617 1.363 . S
C623 C618 1.379 1_655 S
C623 N621 1.356 . S
N624 C616 1.356 . S
N624 H630 0.984 . S
N624 H631 0.984 . S
N625 C618 1.356 . S
N625 H628 0.984 . S
N625 H629 0.985 . S
H626 N621 0.984 . S
H627 N621 0.985 . S
H628 N625 0.984 . S
H629 N625 0.985 . S
H630 N624 0.984 . S
H631 N624 0.984 . S
H632 N620 0.984 . S
H633 N620 0.985 1_455 S
C634 C635 1.363 . S
C634 C640 1.379 . S
C634 N642 1.356 . S
C635 C634 1.363 . S
C635 C641 1.363 . S
C636 C637 1.363 . S
C636 C641 1.379 . S
C636 N643 1.356 . S
C637 C636 1.363 . S
C637 C640 1.363 . S
N638 C640 1.356 . S
N638 H650 0.984 . S
N638 H651 0.985 . S
N639 C641 1.356 . S
N639 H644 0.984 . S
N639 H645 0.985 . S
C640 C634 1.379 . S
C640 C637 1.363 . S
C640 N638 1.356 . S
C641 C635 1.363 . S
C641 C636 1.379 . S
C641 N639 1.356 . S
N642 C634 1.356 . S
N642 H648 0.984 . S
N642 H649 0.984 . S
N643 C636 1.356 . S
N643 H646 0.984 . S
N643 H647 0.985 . S
H644 N639 0.984 . S
H645 N639 0.985 . S
H646 N643 0.984 . S
H647 N643 0.985 . S
H648 N642 0.984 . S
H649 N642 0.984 . S
H650 N638 0.984 . S
H651 N638 0.985 . S
C652 C653 1.363 . S
C652 C658 1.379 1_455 S
C652 N660 1.356 . S
C653 C652 1.363 . S
C653 C659 1.363 . S
C654 C655 1.363 1_455 S
C654 C659 1.379 . S
C654 N661 1.356 1_455 S
C655 C654 1.363 1_655 S
C655 C658 1.363 . S
N656 C658 1.356 . S
N656 H668 0.984 . S
N656 H669 0.985 . S
N657 C659 1.356 . S
N657 H662 0.984 . S
N657 H663 0.985 . S
C658 C652 1.379 1_655 S
C658 C655 1.363 . S
C658 N656 1.356 . S
C659 C653 1.363 . S
C659 C654 1.379 . S
C659 N657 1.356 . S
N660 C652 1.356 . S
N660 H666 0.984 . S
N660 H667 0.984 . S
N661 C654 1.356 1_655 S
N661 H664 0.984 . S
N661 H665 0.985 1_655 S
H662 N657 0.984 . S
H663 N657 0.985 . S
H664 N661 0.984 . S
H665 N661 0.985 1_455 S
H666 N660 0.984 . S
H667 N660 0.984 . S
H668 N656 0.984 . S
H669 N656 0.985 . S
C670 C671 1.363 . S
C670 C676 1.379 . S
C670 N678 1.356 . S
C671 C670 1.363 . S
C671 C677 1.363 . S
C672 C673 1.363 . S
C672 C677 1.379 . S
C672 N679 1.356 . S
C673 C672 1.363 . S
C673 C676 1.363 . S
N674 C676 1.356 . S
N674 H686 0.984 . S
N674 H687 0.985 . S
N675 C677 1.356 . S
N675 H680 0.984 . S
N675 H681 0.985 . S
C676 C670 1.379 . S
C676 C673 1.363 . S
C676 N674 1.356 . S
C677 C671 1.363 . S
C677 C672 1.379 . S
C677 N675 1.356 . S
N678 C670 1.356 . S
N678 H684 0.984 . S
N678 H685 0.984 . S
N679 C672 1.356 . S
N679 H682 0.984 . S
N679 H683 0.985 . S
H680 N675 0.984 . S
H681 N675 0.985 . S
H682 N679 0.984 . S
H683 N679 0.985 . S
H684 N678 0.984 . S
H685 N678 0.984 . S
H686 N674 0.984 . S
H687 N674 0.985 . S
C688 C689 1.363 . S
C688 C694 1.379 1_655 S
C688 N696 1.356 . S
C689 C688 1.363 . S
C689 C695 1.363 . S
C690 C691 1.363 . S
C690 C695 1.379 1_455 S
C690 N697 1.356 . S
C691 C690 1.363 . S
C691 C694 1.363 . S
N692 C694 1.356 . S
N692 H704 0.984 . S
N692 H705 0.985 . S
N693 C695 1.356 . S
N693 H698 0.984 . S
N693 H699 0.985 . S
C694 C688 1.379 1_455 S
C694 C691 1.363 . S
C694 N692 1.356 . S
C695 C689 1.363 . S
C695 C690 1.379 1_655 S
C695 N693 1.356 . S
N696 C688 1.356 . S
N696 H702 0.984 . S
N696 H703 0.984 . S
N697 C690 1.356 . S
N697 H700 0.984 . S
N697 H701 0.985 . S
H698 N693 0.984 . S
H699 N693 0.985 . S
H700 N697 0.984 . S
H701 N697 0.985 . S
H702 N696 0.984 . S
H703 N696 0.984 . S
H704 N692 0.984 . S
H705 N692 0.985 . S
C706 C707 1.363 1_455 S
C706 C712 1.379 . S
C706 N714 1.356 . S
C707 C706 1.363 1_655 S
C707 C713 1.363 . S
C708 C709 1.363 1_655 S
C708 C713 1.379 . S
C708 N715 1.356 . S
C709 C708 1.363 1_455 S
C709 C712 1.363 . S
N710 C712 1.356 . S
N710 H722 0.984 . S
N710 H723 0.985 . S
N711 C713 1.356 . S
N711 H716 0.984 . S
N711 H717 0.985 . S
C712 C706 1.379 . S
C712 C709 1.363 . S
C712 N710 1.356 . S
C713 C707 1.363 . S
C713 C708 1.379 . S
C713 N711 1.356 . S
N714 C706 1.356 . S
N714 H720 0.984 . S
N714 H721 0.984 . S
N715 C708 1.356 . S
N715 H718 0.984 . S
N715 H719 0.985 . S
H716 N711 0.984 . S
H717 N711 0.985 . S
H718 N715 0.984 . S
H719 N715 0.985 . S
H720 N714 0.984 . S
H721 N714 0.984 . S
H722 N710 0.984 . S
H723 N710 0.985 . S
C724 C725 1.363 . S
C724 C730 1.379 . S
C724 N732 1.356 . S
C725 C724 1.363 . S
C725 C731 1.363 1_545 S
C726 C727 1.363 . S
C726 C731 1.379 . S
C726 N733 1.356 . S
C727 C726 1.363 . S
C727 C730 1.363 1_565 S
N728 C730 1.356 . S
N728 H740 0.984 . S
N728 H741 0.985 . S
N729 C731 1.356 . S
N729 H734 0.984 . S
N729 H735 0.985 . S
C730 C724 1.379 . S
C730 C727 1.363 1_545 S
C730 N728 1.356 . S
C731 C725 1.363 1_565 S
C731 C726 1.379 . S
C731 N729 1.356 . S
N732 C724 1.356 . S
N732 H738 0.984 . S
N732 H739 0.984 . S
N733 C726 1.356 . S
N733 H736 0.984 . S
N733 H737 0.985 . S
H734 N729 0.984 . S
H735 N729 0.985 . S
H736 N733 0.984 . S
H737 N733 0.985 . S
H738 N732 0.984 . S
H739 N732 0.984 . S
H740 N728 0.984 . S
H741 N728 0.985 . S
C742 C743 1.363 . S
C742 C748 1.379 1_545 S
C742 N750 1.356 . S
C743 C742 1.363 . S
C743 C749 1.363 . S
C744 C745 1.363 . S
C744 C749 1.379 1_565 S
C744 N751 1.356 . S
C745 C744 1.363 . S
C745 C748 1.363 . S
N746 C748 1.356 . S
N746 H758 0.984 . S
N746 H759 0.985 . S
N747 C749 1.356 . S
N747 H752 0.984 . S
N747 H753 0.985 . S
C748 C742 1.379 1_565 S
C748 C745 1.363 . S
C748 N746 1.356 . S
C749 C743 1.363 . S
C749 C744 1.379 1_545 S
C749 N747 1.356 . S
N750 C742 1.356 . S
N750 H756 0.984 . S
N750 H757 0.984 . S
N751 C744 1.356 . S
N751 H754 0.984 . S
N751 H755 0.985 . S
H752 N747 0.984 . S
H753 N747 0.985 . S
H754 N751 0.984 . S
H755 N751 0.985 . S
H756 N750 0.984 . S
H757 N750 0.984 . S
H758 N746 0.984 . S
H759 N746 0.985 . S
C473 C3 1.481 . S
C475 C298 1.481 . S
C491 C62 1.481 . S
C493 C357 1.481 . S
C509 C121 1.481 . S
C511 C416 1.481 . S
C527 C239 1.481 . S
C529 C180 1.481 . S
C545 C5 1.619 . S
C547 C269 1.608 . S
C563 C64 1.619 . S
C565 C328 1.608 . S
C581 C387 1.608 . S
C583 C123 1.619 . S
C599 C182 1.619 . S
C601 C446 1.608 . S
C617 C241 1.619 . S
C619 C33 1.608 . S
C635 C92 1.608 . S
C637 C300 1.619 . S
C653 C359 1.619 . S
C655 C151 1.608 . S
C671 C210 1.608 . S
C673 C418 1.619 . S
C689 C170 1.063 . S
C691 C52 1.063 . S
C707 C229 1.063 . S
C709 C111 1.063 . S
C725 C288 1.063 . S
C727 C406 1.063 . S
C743 C347 1.063 . S
C745 C465 1.063 . S
