# Generated by pormake.
# Topology wjg, (4)-cn, num edge types: 1
# Building blocks:
#     Node 0, Type 0, BuildingBlock: CEKHIL_clean_sbu_0, # of connection points: 4
#     Node 1, Type 0, BuildingBlock: CEKHIL_clean_sbu_0, # of connection points: 4
#     Node 2, Type 0, BuildingBlock: CEKHIL_clean_sbu_0, # of connection points: 4
#     Node 3, Type 0, BuildingBlock: CEKHIL_clean_sbu_0, # of connection points: 4
#     Node 4, Type 0, BuildingBlock: CEKHIL_clean_sbu_0, # of connection points: 4
#     Node 5, Type 0, BuildingBlock: CEKHIL_clean_sbu_0, # of connection points: 4
#     Node 6, Type 0, BuildingBlock: CEKHIL_clean_sbu_0, # of connection points: 4
#     Node 7, Type 0, BuildingBlock: CEKHIL_clean_sbu_0, # of connection points: 4
#     Node 8, Type 0, BuildingBlock: CEKHIL_clean_sbu_0, # of connection points: 4
#     Node 9, Type 0, BuildingBlock: CEKHIL_clean_sbu_0, # of connection points: 4
#     Node 10, Type 0, BuildingBlock: CEKHIL_clean_sbu_0, # of connection points: 4
#     Node 11, Type 0, BuildingBlock: CEKHIL_clean_sbu_0, # of connection points: 4
#     Edge 12, Type (0, 0), BuildingBlock: OJICUG_clean_linker_0, # of connection points: 2
#     Edge 13, Type (0, 0), BuildingBlock: OJICUG_clean_linker_0, # of connection points: 2
#     Edge 14, Type (0, 0), BuildingBlock: OJICUG_clean_linker_0, # of connection points: 2
#     Edge 15, Type (0, 0), BuildingBlock: OJICUG_clean_linker_0, # of connection points: 2
#     Edge 16, Type (0, 0), BuildingBlock: OJICUG_clean_linker_0, # of connection points: 2
#     Edge 17, Type (0, 0), BuildingBlock: OJICUG_clean_linker_0, # of connection points: 2
#     Edge 18, Type (0, 0), BuildingBlock: OJICUG_clean_linker_0, # of connection points: 2
#     Edge 19, Type (0, 0), BuildingBlock: OJICUG_clean_linker_0, # of connection points: 2
#     Edge 20, Type (0, 0), BuildingBlock: OJICUG_clean_linker_0, # of connection points: 2
#     Edge 21, Type (0, 0), BuildingBlock: OJICUG_clean_linker_0, # of connection points: 2
#     Edge 22, Type (0, 0), BuildingBlock: OJICUG_clean_linker_0, # of connection points: 2
#     Edge 23, Type (0, 0), BuildingBlock: OJICUG_clean_linker_0, # of connection points: 2
#     Edge 24, Type (0, 0), BuildingBlock: OJICUG_clean_linker_0, # of connection points: 2
#     Edge 25, Type (0, 0), BuildingBlock: OJICUG_clean_linker_0, # of connection points: 2
#     Edge 26, Type (0, 0), BuildingBlock: OJICUG_clean_linker_0, # of connection points: 2
#     Edge 27, Type (0, 0), BuildingBlock: OJICUG_clean_linker_0, # of connection points: 2
#     Edge 28, Type (0, 0), BuildingBlock: OJICUG_clean_linker_0, # of connection points: 2
#     Edge 29, Type (0, 0), BuildingBlock: OJICUG_clean_linker_0, # of connection points: 2
#     Edge 30, Type (0, 0), BuildingBlock: OJICUG_clean_linker_0, # of connection points: 2
#     Edge 31, Type (0, 0), BuildingBlock: OJICUG_clean_linker_0, # of connection points: 2
#     Edge 32, Type (0, 0), BuildingBlock: OJICUG_clean_linker_0, # of connection points: 2
#     Edge 33, Type (0, 0), BuildingBlock: OJICUG_clean_linker_0, # of connection points: 2
#     Edge 34, Type (0, 0), BuildingBlock: OJICUG_clean_linker_0, # of connection points: 2
#     Edge 35, Type (0, 0), BuildingBlock: OJICUG_clean_linker_0, # of connection points: 2
# Relax obj value: 0.324
# Max RMSD: 0.122
# Mean RMSD: 0.112
data_MOF--net-wjg--node1-CEKHIL_clean_sbu_0--edge1-OJICUG_clean_linker_0
_symmetry_space_group_name_H-M    P1
_symmetry_Int_Tables_number       1
_symmetry_cell_setting            triclinic
loop_
_symmetry_equiv_pos_as_xyz
'x, y, z'
_cell_length_a     22.635341
_cell_length_b     22.526807
_cell_length_c     28.690002
_cell_angle_alpha  90.023463
_cell_angle_beta   89.95443
_cell_angle_gamma 120.15699
loop_
_atom_site_label
_atom_site_type_symbol
_atom_site_fract_x
_atom_site_fract_y
_atom_site_fract_z
_atom_type_partial_charge
Co0 Co 0.16307 0.46001 0.33074 0.0
O1 O 0.14446 0.44924 0.26495 0.0
O2 O 0.07819 0.37368 0.3174 0.0
C3 C 0.18853 0.57091 0.33216 0.0
O4 O 0.17151 0.45853 0.40276 0.0
Co5 Co 0.31157 0.57062 0.35791 0.0
O6 O 0.27828 0.54217 0.42205 0.0
C7 C 0.2833 0.43674 0.323 0.0
C8 C 0.09009 0.39143 0.27352 0.0
C9 C 0.21963 0.4924 0.43312 0.0
O10 O 0.21841 0.41254 0.32565 0.0
O11 O 0.32755 0.5004 0.32764 0.0
O12 O 0.1253 0.52239 0.33625 0.0
O13 O 0.23122 0.55061 0.32409 0.0
Co14 Co 0.77017 0.12285 0.65482 0.0
O15 O 0.75901 0.1081 0.58858 0.0
O16 O 0.71233 0.02466 0.64014 0.0
C17 C 0.75022 0.21116 0.65877 0.0
O18 O 0.77622 0.12783 0.72709 0.0
Co19 Co 0.89793 0.26765 0.67921 0.0
O20 O 0.86467 0.23453 0.7435 0.0
C21 C 0.91459 0.15922 0.64449 0.0
C22 C 0.72168 0.04316 0.59632 0.0
C23 C 0.81591 0.17576 0.75638 0.0
O24 O 0.85345 0.11317 0.65458 0.0
O25 O 0.92781 0.21961 0.63377 0.0
O26 O 0.69922 0.14857 0.65691 0.0
O27 O 0.80902 0.21735 0.6507 0.0
Co28 Co 0.54022 0.73034 0.977 0.0
O29 O 0.54276 0.70998 0.91221 0.0
O30 O 0.55694 0.65348 0.96972 0.0
C31 C 0.446 0.73942 0.97545 0.0
O32 O 0.53855 0.7421 0.04857 0.0
Co33 Co 0.56539 0.87829 0.99381 0.0
O34 O 0.54958 0.84694 0.05969 0.0
C35 C 0.68006 0.85949 0.97162 0.0
C36 C 0.55445 0.66184 0.92484 0.0
C37 C 0.54175 0.79035 0.07536 0.0
O38 O 0.64161 0.79483 0.97792 0.0
O39 O 0.65622 0.90006 0.96732 0.0
O40 O 0.44071 0.67932 0.97687 0.0
O41 O 0.50659 0.78958 0.96649 0.0
Co42 Co 0.8087 0.52137 0.33066 0.0
O43 O 0.82728 0.53222 0.26486 0.0
O44 O 0.89352 0.60776 0.31728 0.0
C45 C 0.78338 0.41051 0.33197 0.0
O46 O 0.8003 0.52278 0.4027 0.0
Co47 Co 0.66026 0.41054 0.35799 0.0
O48 O 0.69361 0.43902 0.42211 0.0
C49 C 0.68836 0.54445 0.32324 0.0
C50 C 0.88162 0.59005 0.27341 0.0
C51 C 0.75222 0.48886 0.43312 0.0
O52 O 0.75326 0.56872 0.32574 0.0
O53 O 0.64416 0.48078 0.32793 0.0
O54 O 0.8466 0.45908 0.33601 0.0
O55 O 0.74062 0.43074 0.32402 0.0
Co56 Co 0.20198 0.85868 0.65457 0.0
O57 O 0.21316 0.87335 0.58833 0.0
O58 O 0.25978 0.95686 0.63983 0.0
C59 C 0.22199 0.77041 0.65855 0.0
O60 O 0.19589 0.85378 0.72685 0.0
Co61 Co 0.07425 0.71389 0.67905 0.0
O62 O 0.10745 0.74708 0.74331 0.0
C63 C 0.05754 0.82227 0.64432 0.0
C64 C 0.25044 0.9383 0.59602 0.0
C65 C 0.15618 0.80586 0.75617 0.0
O66 O 0.11867 0.8683 0.65437 0.0
O67 O 0.04426 0.76184 0.63366 0.0
O68 O 0.27296 0.833 0.65664 0.0
O69 O 0.16318 0.76418 0.6505 0.0
Co70 Co 0.43198 0.25131 0.97653 0.0
O71 O 0.42961 0.27181 0.91176 0.0
O72 O 0.41515 0.3281 0.96934 0.0
C73 C 0.52627 0.24237 0.97501 0.0
O74 O 0.43344 0.2394 0.04809 0.0
Co75 Co 0.40691 0.10339 0.99319 0.0
O76 O 0.42251 0.1346 0.0591 0.0
C77 C 0.2922 0.12207 0.97105 0.0
C78 C 0.41778 0.31985 0.92444 0.0
C79 C 0.43023 0.19113 0.07483 0.0
O80 O 0.3306 0.18673 0.97737 0.0
O81 O 0.31609 0.08154 0.96674 0.0
O82 O 0.53149 0.30243 0.97645 0.0
O83 O 0.46575 0.19218 0.96597 0.0
Co84 Co 0.51676 0.7986 0.37842 0.0
O85 O 0.53127 0.80955 0.44478 0.0
O86 O 0.60473 0.88087 0.39346 0.0
C87 C 0.40811 0.77863 0.38389 0.0
O88 O 0.51509 0.79838 0.3059 0.0
Co89 Co 0.39696 0.65677 0.34509 0.0
O90 O 0.42562 0.69696 0.28256 0.0
C91 C 0.53562 0.67679 0.36011 0.0
C92 C 0.58843 0.86503 0.43723 0.0
C93 C 0.47864 0.75451 0.27365 0.0
O94 O 0.56035 0.7393 0.37408 0.0
O95 O 0.47228 0.6362 0.35151 0.0
O96 O 0.45851 0.84121 0.38109 0.0
O97 O 0.42524 0.73248 0.38603 0.0
Co98 Co 0.71848 0.53216 0.73088 0.0
O99 O 0.69605 0.53318 0.7954 0.0
O100 O 0.64666 0.55597 0.73742 0.0
C101 C 0.71983 0.43309 0.73131 0.0
O102 O 0.73292 0.53357 0.65958 0.0
Co103 Co 0.86183 0.54628 0.71595 0.0
O104 O 0.83394 0.53694 0.64948 0.0
C105 C 0.85313 0.66641 0.74068 0.0
C106 C 0.6523 0.55061 0.78234 0.0
C107 C 0.78035 0.53478 0.63324 0.0
O108 O 0.78874 0.63268 0.73266 0.0
O109 O 0.88888 0.63729 0.74519 0.0
O110 O 0.66199 0.43197 0.72848 0.0
O111 O 0.77158 0.49205 0.74166 0.0
Co112 Co 0.14034 0.78894 0.0598 0.0
O113 O 0.12536 0.77473 0.12585 0.0
O114 O 0.04311 0.72762 0.07368 0.0
C115 C 0.22974 0.77181 0.05437 0.0
O116 O 0.14477 0.79724 0.98764 0.0
Co117 Co 0.28065 0.91968 0.03615 0.0
O118 O 0.25004 0.88728 0.97148 0.0
C119 C 0.16767 0.93399 0.06881 0.0
C120 C 0.06109 0.7355 0.11754 0.0
C121 C 0.1919 0.83815 0.95842 0.0
O122 O 0.12643 0.86999 0.06191 0.0
O123 O 0.23207 0.95838 0.07301 0.0
O124 O 0.16797 0.71978 0.05592 0.0
O125 O 0.23494 0.83012 0.06414 0.0
Co126 Co 0.45501 0.18273 0.37788 0.0
O127 O 0.44054 0.17184 0.44426 0.0
O128 O 0.36706 0.10045 0.39302 0.0
C129 C 0.56367 0.20273 0.38323 0.0
O130 O 0.45667 0.18291 0.30536 0.0
Co131 Co 0.57481 0.32461 0.34447 0.0
O132 O 0.54611 0.28435 0.28197 0.0
C133 C 0.43606 0.30446 0.35958 0.0
C134 C 0.3834 0.11633 0.43677 0.0
C135 C 0.49311 0.22679 0.27309 0.0
O136 O 0.41139 0.24199 0.37361 0.0
O137 O 0.49939 0.34506 0.35089 0.0
O138 O 0.51328 0.14014 0.38047 0.0
O139 O 0.54653 0.24888 0.38538 0.0
Co140 Co 0.25362 0.44951 0.73083 0.0
O141 O 0.27613 0.44858 0.79532 0.0
O142 O 0.32539 0.42564 0.73725 0.0
C143 C 0.25235 0.54863 0.73127 0.0
O144 O 0.23909 0.44801 0.65956 0.0
Co145 Co 0.1103 0.43549 0.71613 0.0
O146 O 0.1381 0.44471 0.64961 0.0
C147 C 0.11893 0.31532 0.7408 0.0
C148 C 0.31982 0.43106 0.78219 0.0
C149 C 0.19165 0.4468 0.63329 0.0
O150 O 0.18331 0.34902 0.73272 0.0
O151 O 0.0832 0.34447 0.74536 0.0
O152 O 0.31017 0.54971 0.72835 0.0
O153 O 0.20059 0.48971 0.74169 0.0
Co154 Co 0.83143 0.19284 0.06001 0.0
O155 O 0.84632 0.20713 0.12605 0.0
O156 O 0.92866 0.25409 0.07385 0.0
C157 C 0.74211 0.21006 0.05452 0.0
O158 O 0.82712 0.18447 0.98785 0.0
Co159 Co 0.69113 0.06215 0.03642 0.0
O160 O 0.72182 0.0945 0.97173 0.0
C161 C 0.80401 0.04774 0.06909 0.0
C162 C 0.91061 0.24628 0.11772 0.0
C163 C 0.78001 0.14358 0.95865 0.0
O164 O 0.84526 0.11173 0.06218 0.0
O165 O 0.73958 0.02329 0.07317 0.0
O166 O 0.80389 0.26206 0.05607 0.0
O167 O 0.73684 0.15175 0.06435 0.0
C168 C 0.22701 0.65775 0.39333 0.0
C169 C 0.21496 0.64254 0.34572 0.0
H170 H 0.30246 0.71892 0.44407 0.0
C171 C 0.25646 0.6928 0.31307 0.0
H172 H 0.19593 0.61954 0.41913 0.0
C173 C 0.31715 0.75056 0.32743 0.0
C174 C 0.33664 0.7573 0.37435 0.0
H175 H 0.24824 0.68187 0.27609 0.0
H176 H 0.35383 0.78235 0.30109 0.0
C177 C 0.28826 0.71487 0.40764 0.0
C178 C 0.80013 0.33123 0.68829 0.0
C179 C 0.74238 0.26826 0.67654 0.0
H180 H 0.83827 0.43202 0.71611 0.0
C181 C 0.67706 0.25922 0.68418 0.0
H182 H 0.85114 0.33967 0.68304 0.0
C183 C 0.66967 0.31243 0.70285 0.0
C184 C 0.72746 0.37535 0.71468 0.0
H185 H 0.63162 0.21109 0.67564 0.0
H186 H 0.6187 0.30436 0.7078 0.0
C187 C 0.79274 0.38407 0.70751 0.0
C188 C 0.32684 0.69174 1.00354 0.0
C189 C 0.39042 0.74941 0.9931 0.0
H190 H 0.22691 0.65379 0.03162 0.0
C191 C 0.40138 0.81522 1.00331 0.0
H192 H 0.31691 0.64033 0.99626 0.0
C193 C 0.3497 0.82294 0.0242 0.0
C194 C 0.28627 0.76497 0.03482 0.0
H195 H 0.45006 0.86058 0.9959 0.0
H196 H 0.3593 0.87414 0.03176 0.0
C197 C 0.27537 0.69944 0.02411 0.0
C198 C 0.68337 0.26629 0.40713 0.0
C199 C 0.63516 0.22405 0.37372 0.0
H200 H 0.77565 0.36148 0.41888 0.0
C201 C 0.65491 0.23098 0.32683 0.0
H202 H 0.66894 0.26203 0.44354 0.0
C203 C 0.71572 0.28876 0.31262 0.0
C204 C 0.75705 0.33886 0.3454 0.0
H205 H 0.61834 0.19932 0.30043 0.0
H206 H 0.72412 0.29984 0.27566 0.0
C207 C 0.74475 0.32341 0.39296 0.0
C208 C 0.17208 0.65042 0.68823 0.0
C209 C 0.22982 0.71335 0.67637 0.0
H210 H 0.13393 0.54972 0.71617 0.0
C211 C 0.29514 0.7224 0.68395 0.0
H212 H 0.12106 0.64197 0.68302 0.0
C213 C 0.30253 0.66923 0.70267 0.0
C214 C 0.24474 0.60635 0.7146 0.0
H215 H 0.34059 0.7705 0.67533 0.0
H216 H 0.3535 0.6773 0.70757 0.0
C217 C 0.17947 0.59764 0.70749 0.0
C218 C 0.62234 0.15891 0.0241 0.0
C219 C 0.68569 0.21689 0.03482 0.0
H220 H 0.52216 0.12124 0.99557 0.0
C221 C 0.69663 0.28242 0.02405 0.0
H222 H 0.6127 0.10772 0.03171 0.0
C223 C 0.64528 0.29009 1.00332 0.0
C224 C 0.58178 0.23241 0.99278 0.0
H225 H 0.74504 0.32807 0.03163 0.0
H226 H 0.65525 0.34149 0.996 0.0
C227 C 0.57079 0.16661 1.00305 0.0
C228 C 0.28475 0.33378 0.35369 0.0
C229 C 0.31079 0.39003 0.3229 0.0
H230 H 0.30474 0.26241 0.39055 0.0
C231 C 0.37366 0.41197 0.30104 0.0
H232 H 0.23663 0.31669 0.3715 0.0
C233 C 0.41267 0.38249 0.31259 0.0
C234 C 0.38985 0.33012 0.34634 0.0
H235 H 0.39475 0.45514 0.27719 0.0
H236 H 0.46197 0.40245 0.29582 0.0
C237 C 0.32411 0.30366 0.36525 0.0
C238 C 0.03484 0.18922 0.65098 0.0
C239 C 0.96925 0.15695 0.67053 0.0
H240 H 0.13944 0.26431 0.66155 0.0
C241 C 0.96278 0.15376 0.71942 0.0
H242 H 0.04121 0.19155 0.61346 0.0
C243 C 0.01838 0.19876 0.74684 0.0
C244 C 0.08097 0.24344 0.72544 0.0
H245 H 0.91275 0.12768 0.73557 0.0
H246 H 0.00948 0.20643 0.78289 0.0
C247 C 0.0912 0.23124 0.67882 0.0
C248 C 0.83843 0.00899 1.00122 0.0
C249 C 0.82362 -7e-05 0.04926 0.0
H250 H 0.79791 0.96588 0.93428 0.0
C251 C 0.79137 0.93298 0.06712 0.0
H252 H 0.86629 0.06019 0.9865 0.0
C253 C 0.75576 0.87779 0.03667 0.0
C254 C 0.75031 0.8912 0.98941 0.0
H255 H 0.78161 0.9243 0.10419 0.0
H256 H 0.72044 0.82825 0.05176 0.0
C257 C 0.79927 0.95469 0.97087 0.0
C258 C 0.64759 0.67761 0.36557 0.0
C259 C 0.58178 0.65106 0.34681 0.0
H260 H 0.73512 0.66465 0.37163 0.0
C261 C 0.55885 0.59855 0.31316 0.0
H262 H 0.66703 0.71896 0.39079 0.0
C263 C 0.59785 0.56905 0.30154 0.0
C264 C 0.66081 0.59111 0.32323 0.0
H265 H 0.50949 0.5785 0.29651 0.0
H266 H 0.57669 0.5258 0.27775 0.0
C267 C 0.68693 0.64747 0.35394 0.0
C268 C 0.9373 0.79237 0.65079 0.0
C269 C 0.00286 0.82465 0.67033 0.0
H270 H 0.83268 0.7173 0.6614 0.0
C271 C 0.00925 0.82794 0.71921 0.0
H272 H 0.93098 0.78997 0.61327 0.0
C273 C 0.95361 0.783 0.74667 0.0
C274 C 0.89106 0.73828 0.72529 0.0
H275 H 0.05926 0.85404 0.73536 0.0
H276 H 0.96245 0.7754 0.78272 0.0
C277 C 0.88089 0.75041 0.67866 0.0
C278 C 0.21625 0.10387 0.03604 0.0
C279 C 0.2219 0.09032 0.98881 0.0
H280 H 0.19008 0.05764 0.1036 0.0
C281 C 0.17302 0.02676 0.97033 0.0
H282 H 0.25152 0.15348 0.05103 0.0
C283 C 0.13366 0.97257 1.00072 0.0
C284 C 0.14824 0.98179 0.04878 0.0
H285 H 0.17456 0.01551 0.93377 0.0
H286 H 0.10588 0.92136 0.98602 0.0
C287 C 0.18045 0.0488 0.06654 0.0
C288 C 0.93602 0.26118 0.20362 0.0
C289 C 0.95875 0.28033 0.15724 0.0
H290 H 0.9593 0.28024 0.27668 0.0
C291 C 0.02588 0.33365 0.14981 0.0
H292 H 0.88455 0.22002 0.21073 0.0
C293 C 0.06842 0.36836 0.18777 0.0
C294 C 0.04521 0.35027 0.23415 0.0
H295 H 0.04502 0.34973 0.11475 0.0
H296 H 0.11953 0.4102 0.18063 0.0
C297 C 0.97881 0.29548 0.2416 0.0
C298 C 0.64125 0.92601 0.56228 0.0
C299 C 0.69159 -0.00502 0.5561 0.0
H300 H 0.56987 0.83111 0.52966 0.0
C301 C 0.71162 0.01953 0.51012 0.0
H302 H 0.62466 0.90533 0.59697 0.0
C303 C 0.68063 0.97697 0.47136 0.0
C304 C 0.62839 0.90877 0.47751 0.0
H305 H 0.75063 0.07239 0.50389 0.0
H306 H 0.69599 -0.00181 0.43666 0.0
C307 C 0.60992 0.88357 0.5235 0.0
C308 C 0.56058 0.63277 0.84112 0.0
C309 C 0.5694 0.62359 0.88878 0.0
H310 H 0.57888 0.61644 0.77003 0.0
C311 C 0.59818 0.58318 0.90063 0.0
H312 H 0.53795 0.66314 0.83064 0.0
C313 C 0.62165 0.55647 0.8657 0.0
C314 C 0.61664 0.56925 0.81809 0.0
H315 H 0.60546 0.57482 0.93683 0.0
H316 H 0.64619 0.5279 0.87618 0.0
C317 C 0.58377 0.6058 0.80619 0.0
C318 C 0.03559 0.72056 0.20345 0.0
C319 C 0.01293 0.70138 0.15707 0.0
H320 H 0.01227 0.70145 0.27651 0.0
C321 C 0.94586 0.64795 0.14967 0.0
H322 H 0.08701 0.76181 0.21053 0.0
C323 C 0.90332 0.61316 0.18764 0.0
C324 C 0.92647 0.63128 0.23402 0.0
H325 H 0.92677 0.63183 0.11461 0.0
H326 H 0.85226 0.57123 0.18052 0.0
C327 C -0.0072 0.68619 0.24144 0.0
C328 C 0.36197 0.09787 0.52307 0.0
C329 C 0.34349 0.0726 0.4771 0.0
H330 H 0.34732 0.07619 0.59656 0.0
C331 C 0.29133 0.00436 0.47101 0.0
H332 H 0.40196 0.15036 0.52918 0.0
C333 C 0.26042 0.96183 0.5098 0.0
C334 C 0.28046 0.98644 0.55576 0.0
H335 H 0.27597 0.98309 0.43633 0.0
H336 H 0.22147 0.90894 0.50362 0.0
C337 C 0.33072 0.05545 0.56188 0.0
C338 C 0.37397 0.39845 0.90036 0.0
C339 C 0.40278 0.35808 0.88844 0.0
H340 H 0.32591 0.45371 0.87604 0.0
C341 C 0.4116 0.34893 0.84075 0.0
H342 H 0.36668 0.4068 0.93658 0.0
C343 C 0.38838 0.37588 0.80588 0.0
C344 C 0.35548 0.41241 0.81787 0.0
H345 H 0.43425 0.31858 0.83021 0.0
H346 H 0.39327 0.36527 0.7697 0.0
C347 C 0.35048 0.42516 0.86549 0.0
C348 C 0.14576 0.43995 0.5047 0.0
C349 C 0.21027 0.47339 0.48353 0.0
H350 H 0.08941 0.4051 0.56851 0.0
C351 C 0.26835 0.49211 0.51168 0.0
H352 H 0.10011 0.4245 0.48423 0.0
C353 C 0.26246 0.48049 0.55988 0.0
C354 C 0.19835 0.45053 0.58148 0.0
H355 H 0.31906 0.51704 0.49653 0.0
H356 H 0.30836 0.49758 0.5804 0.0
C357 C 0.13992 0.4291 0.55311 0.0
C358 C 0.84893 0.20739 0.88733 0.0
C359 C 0.79121 0.15128 0.90696 0.0
H360 H 0.90202 0.25876 0.82525 0.0
C361 C 0.74227 0.10146 0.87634 0.0
H362 H 0.88774 0.24654 0.90941 0.0
C363 C 0.75019 0.1082 0.82772 0.0
C364 C 0.80721 0.16508 0.80808 0.0
H365 H 0.69708 0.05687 0.88985 0.0
H366 H 0.71115 0.06933 0.80561 0.0
C367 C 0.85676 0.21422 0.83873 0.0
C368 C 0.54107 0.83115 0.20452 0.0
C369 C 0.50028 0.76563 0.22367 0.0
H370 H 0.5864 0.8902 0.14271 0.0
C371 C 0.47875 0.70798 0.19414 0.0
H372 H 0.55914 0.87646 0.2261 0.0
C373 C 0.49507 0.71551 0.14659 0.0
C374 C 0.5328 0.78097 0.1269 0.0
H375 H 0.4484 0.65635 0.20772 0.0
H376 H 0.4758 0.67009 0.12498 0.0
C377 C 0.55661 0.83872 0.15665 0.0
C378 C 0.82613 0.54156 0.50459 0.0
C379 C 0.76159 0.5079 0.48351 0.0
H380 H 0.88254 0.57666 0.56831 0.0
C381 C 0.70351 0.48907 0.51176 0.0
H382 H 0.87178 0.5571 0.48405 0.0
C383 C 0.70944 0.50078 0.55995 0.0
C384 C 0.77358 0.53095 0.58144 0.0
H385 H 0.65278 0.46398 0.49668 0.0
H386 H 0.66354 0.48359 0.58054 0.0
C387 C 0.832 0.55249 0.55299 0.0
C388 C 0.22967 0.88028 0.87609 0.0
C389 C 0.18076 0.83041 0.90674 0.0
H390 H 0.26081 0.91242 0.80535 0.0
C391 C 0.12311 0.77423 0.88713 0.0
H392 H 0.27479 0.92492 0.88958 0.0
C393 C 0.11533 0.76738 0.83854 0.0
C394 C 0.16485 0.81656 0.80786 0.0
H395 H 0.08432 0.73505 0.90924 0.0
H396 H 0.07012 0.72278 0.82508 0.0
C397 C 0.22179 0.87351 0.82748 0.0
C398 C 0.49285 0.27336 0.19366 0.0
C399 C 0.47146 0.21569 0.22313 0.0
H400 H 0.49576 0.31132 0.12455 0.0
C401 C 0.43086 0.15017 0.20394 0.0
H402 H 0.52304 0.32498 0.20728 0.0
C403 C 0.41538 0.14264 0.15607 0.0
C404 C 0.43908 0.20043 0.12637 0.0
H405 H 0.4129 0.10484 0.22548 0.0
H406 H 0.38575 0.09118 0.14209 0.0
C407 C 0.47659 0.26587 0.14612 0.0
loop_
_geom_bond_atom_site_label_1
_geom_bond_atom_site_label_2
_geom_bond_distance
_geom_bond_site_symmetry_2
_ccdc_geom_bond_type
Co0 O1 2.216 . S
Co0 O2 2.091 . S
Co0 O4 2.004 . S
Co0 O10 2.021 . S
Co0 O12 2.137 . S
Co0 O13 2.244 . S
O1 Co0 2.216 . S
O1 C8 1.247 . S
O2 Co0 2.091 . S
O2 C8 1.261 . S
C3 O12 1.247 . S
C3 O13 1.272 . S
O4 Co0 2.004 . S
O4 C9 1.259 . S
Co5 O6 2.061 . S
Co5 O11 2.052 . S
Co5 O13 2.135 . S
O6 Co5 2.061 . S
O6 C9 1.235 . S
C7 O10 1.238 . S
C7 O11 1.241 . S
C8 O1 1.247 . S
C8 O2 1.261 . S
C9 O4 1.259 . S
C9 O6 1.235 . S
O10 Co0 2.021 . S
O10 C7 1.238 . S
O11 Co5 2.052 . S
O11 C7 1.241 . S
O12 Co0 2.137 . S
O12 C3 1.247 . S
O13 Co0 2.244 . S
O13 C3 1.272 . S
O13 Co5 2.135 . S
Co14 O15 2.216 . S
Co14 O16 2.091 . S
Co14 O18 2.004 . S
Co14 O24 2.021 . S
Co14 O26 2.137 . S
Co14 O27 2.244 . S
O15 Co14 2.216 . S
O15 C22 1.247 . S
O16 Co14 2.091 . S
O16 C22 1.261 . S
C17 O26 1.247 . S
C17 O27 1.272 . S
O18 Co14 2.004 . S
O18 C23 1.259 . S
Co19 O20 2.061 . S
Co19 O25 2.052 . S
Co19 O27 2.135 . S
O20 Co19 2.061 . S
O20 C23 1.235 . S
C21 O24 1.238 . S
C21 O25 1.241 . S
C22 O15 1.247 . S
C22 O16 1.261 . S
C23 O18 1.259 . S
C23 O20 1.235 . S
O24 Co14 2.021 . S
O24 C21 1.238 . S
O25 Co19 2.052 . S
O25 C21 1.241 . S
O26 Co14 2.137 . S
O26 C17 1.247 . S
O27 Co14 2.244 . S
O27 C17 1.272 . S
O27 Co19 2.135 . S
Co28 O29 2.216 . S
Co28 O30 2.091 . S
Co28 O32 2.004 1_556 S
Co28 O38 2.021 . S
Co28 O40 2.137 . S
Co28 O41 2.244 1_556 S
O29 Co28 2.216 . S
O29 C36 1.247 . S
O30 Co28 2.091 . S
O30 C36 1.261 . S
C31 O40 1.247 . S
C31 O41 1.272 1_556 S
O32 Co28 2.004 1_554 S
O32 C37 1.259 . S
Co33 O34 2.061 . S
Co33 O39 2.052 . S
Co33 O41 2.133 . S
O34 Co33 2.061 . S
O34 C37 1.235 . S
C35 O38 1.238 . S
C35 O39 1.241 1_556 S
C36 O29 1.247 . S
C36 O30 1.261 . S
C37 O32 1.259 . S
C37 O34 1.235 . S
O38 Co28 2.021 . S
O38 C35 1.238 . S
O39 Co33 2.052 . S
O39 C35 1.241 1_554 S
O40 Co28 2.137 . S
O40 C31 1.247 . S
O41 Co28 2.244 1_554 S
O41 C31 1.272 1_554 S
O41 Co33 2.133 . S
Co42 O43 2.216 . S
Co42 O44 2.091 . S
Co42 O46 2.004 . S
Co42 O52 2.021 . S
Co42 O54 2.137 . S
Co42 O55 2.244 . S
O43 Co42 2.216 . S
O43 C50 1.247 . S
O44 Co42 2.091 . S
O44 C50 1.261 . S
C45 O54 1.247 . S
C45 O55 1.272 . S
O46 Co42 2.004 . S
O46 C51 1.259 . S
Co47 O48 2.061 . S
Co47 O53 2.052 . S
Co47 O55 2.135 . S
O48 Co47 2.061 . S
O48 C51 1.235 . S
C49 O52 1.238 . S
C49 O53 1.241 . S
C50 O43 1.247 . S
C50 O44 1.261 . S
C51 O46 1.259 . S
C51 O48 1.235 . S
O52 Co42 2.021 . S
O52 C49 1.238 . S
O53 Co47 2.052 . S
O53 C49 1.241 . S
O54 Co42 2.137 . S
O54 C45 1.247 . S
O55 Co42 2.244 . S
O55 C45 1.272 . S
O55 Co47 2.135 . S
Co56 O57 2.216 . S
Co56 O58 2.091 . S
Co56 O60 2.004 . S
Co56 O66 2.021 . S
Co56 O68 2.137 . S
Co56 O69 2.244 . S
O57 Co56 2.216 . S
O57 C64 1.247 . S
O58 Co56 2.091 . S
O58 C64 1.261 . S
C59 O68 1.247 . S
C59 O69 1.272 . S
O60 Co56 2.004 . S
O60 C65 1.259 . S
Co61 O62 2.061 . S
Co61 O67 2.052 . S
Co61 O69 2.135 . S
O62 Co61 2.061 . S
O62 C65 1.235 . S
C63 O66 1.238 . S
C63 O67 1.241 . S
C64 O57 1.247 . S
C64 O58 1.261 . S
C65 O60 1.259 . S
C65 O62 1.235 . S
O66 Co56 2.021 . S
O66 C63 1.238 . S
O67 Co61 2.052 . S
O67 C63 1.241 . S
O68 Co56 2.137 . S
O68 C59 1.247 . S
O69 Co56 2.244 . S
O69 C59 1.272 . S
O69 Co61 2.135 . S
Co70 O71 2.216 . S
Co70 O72 2.091 . S
Co70 O74 2.004 1_556 S
Co70 O80 2.021 . S
Co70 O82 2.137 . S
Co70 O83 2.244 1_556 S
O71 Co70 2.216 . S
O71 C78 1.247 . S
O72 Co70 2.091 . S
O72 C78 1.261 . S
C73 O82 1.247 . S
C73 O83 1.272 1_556 S
O74 Co70 2.004 1_554 S
O74 C79 1.259 . S
Co75 O76 2.061 . S
Co75 O81 2.052 . S
Co75 O83 2.133 . S
O76 Co75 2.061 . S
O76 C79 1.235 . S
C77 O80 1.238 . S
C77 O81 1.241 1_556 S
C78 O71 1.247 . S
C78 O72 1.261 . S
C79 O74 1.259 . S
C79 O76 1.235 . S
O80 Co70 2.021 . S
O80 C77 1.238 . S
O81 Co75 2.052 . S
O81 C77 1.241 1_554 S
O82 Co70 2.137 . S
O82 C73 1.247 . S
O83 Co70 2.244 1_554 S
O83 C73 1.272 1_554 S
O83 Co75 2.133 . S
Co84 O85 2.216 . S
Co84 O86 2.091 . S
Co84 O88 2.004 . S
Co84 O94 2.021 . S
Co84 O96 2.137 . S
Co84 O97 2.244 . S
O85 Co84 2.216 . S
O85 C92 1.247 . S
O86 Co84 2.091 . S
O86 C92 1.261 . S
C87 O96 1.247 . S
C87 O97 1.272 . S
O88 Co84 2.004 . S
O88 C93 1.259 . S
Co89 O90 2.061 . S
Co89 O95 2.052 . S
Co89 O97 2.135 . S
O90 Co89 2.061 . S
O90 C93 1.235 . S
C91 O94 1.238 . S
C91 O95 1.241 . S
C92 O85 1.247 . S
C92 O86 1.261 . S
C93 O88 1.259 . S
C93 O90 1.235 . S
O94 Co84 2.021 . S
O94 C91 1.238 . S
O95 Co89 2.052 . S
O95 C91 1.241 . S
O96 Co84 2.137 . S
O96 C87 1.247 . S
O97 Co84 2.244 . S
O97 C87 1.272 . S
O97 Co89 2.135 . S
Co98 O99 2.216 . S
Co98 O100 2.091 . S
Co98 O102 2.004 . S
Co98 O108 2.021 . S
Co98 O110 2.137 . S
Co98 O111 2.244 . S
O99 Co98 2.216 . S
O99 C106 1.247 . S
O100 Co98 2.091 . S
O100 C106 1.261 . S
C101 O110 1.247 . S
C101 O111 1.272 . S
O102 Co98 2.004 . S
O102 C107 1.259 . S
Co103 O104 2.061 . S
Co103 O109 2.052 . S
Co103 O111 2.135 . S
O104 Co103 2.061 . S
O104 C107 1.235 . S
C105 O108 1.238 . S
C105 O109 1.241 . S
C106 O99 1.247 . S
C106 O100 1.261 . S
C107 O102 1.259 . S
C107 O104 1.235 . S
O108 Co98 2.021 . S
O108 C105 1.238 . S
O109 Co103 2.052 . S
O109 C105 1.241 . S
O110 Co98 2.137 . S
O110 C101 1.247 . S
O111 Co98 2.244 . S
O111 C101 1.272 . S
O111 Co103 2.135 . S
Co112 O113 2.216 . S
Co112 O114 2.091 . S
Co112 O116 2.004 1_554 S
Co112 O122 2.021 . S
Co112 O124 2.137 . S
Co112 O125 2.244 1_554 S
O113 Co112 2.216 . S
O113 C120 1.247 . S
O114 Co112 2.091 . S
O114 C120 1.261 . S
C115 O124 1.247 . S
C115 O125 1.272 1_554 S
O116 Co112 2.004 1_556 S
O116 C121 1.259 . S
Co117 O118 2.061 . S
Co117 O123 2.052 . S
Co117 O125 2.133 . S
O118 Co117 2.061 . S
O118 C121 1.235 . S
C119 O122 1.238 . S
C119 O123 1.241 1_554 S
C120 O113 1.247 . S
C120 O114 1.261 . S
C121 O116 1.259 . S
C121 O118 1.235 . S
O122 Co112 2.021 . S
O122 C119 1.238 . S
O123 Co117 2.052 . S
O123 C119 1.241 1_556 S
O124 Co112 2.137 . S
O124 C115 1.247 . S
O125 Co112 2.244 1_556 S
O125 C115 1.272 1_556 S
O125 Co117 2.133 . S
Co126 O127 2.216 . S
Co126 O128 2.091 . S
Co126 O130 2.004 . S
Co126 O136 2.021 . S
Co126 O138 2.137 . S
Co126 O139 2.244 . S
O127 Co126 2.216 . S
O127 C134 1.247 . S
O128 Co126 2.091 . S
O128 C134 1.261 . S
C129 O138 1.247 . S
C129 O139 1.272 . S
O130 Co126 2.004 . S
O130 C135 1.259 . S
Co131 O132 2.061 . S
Co131 O137 2.052 . S
Co131 O139 2.135 . S
O132 Co131 2.061 . S
O132 C135 1.235 . S
C133 O136 1.238 . S
C133 O137 1.241 . S
C134 O127 1.247 . S
C134 O128 1.261 . S
C135 O130 1.259 . S
C135 O132 1.235 . S
O136 Co126 2.021 . S
O136 C133 1.238 . S
O137 Co131 2.052 . S
O137 C133 1.241 . S
O138 Co126 2.137 . S
O138 C129 1.247 . S
O139 Co126 2.244 . S
O139 C129 1.272 . S
O139 Co131 2.135 . S
Co140 O141 2.216 . S
Co140 O142 2.091 . S
Co140 O144 2.004 . S
Co140 O150 2.021 . S
Co140 O152 2.137 . S
Co140 O153 2.244 . S
O141 Co140 2.216 . S
O141 C148 1.247 . S
O142 Co140 2.091 . S
O142 C148 1.261 . S
C143 O152 1.247 . S
C143 O153 1.272 . S
O144 Co140 2.004 . S
O144 C149 1.259 . S
Co145 O146 2.061 . S
Co145 O151 2.052 . S
Co145 O153 2.135 . S
O146 Co145 2.061 . S
O146 C149 1.235 . S
C147 O150 1.238 . S
C147 O151 1.241 . S
C148 O141 1.247 . S
C148 O142 1.261 . S
C149 O144 1.259 . S
C149 O146 1.235 . S
O150 Co140 2.021 . S
O150 C147 1.238 . S
O151 Co145 2.052 . S
O151 C147 1.241 . S
O152 Co140 2.137 . S
O152 C143 1.247 . S
O153 Co140 2.244 . S
O153 C143 1.272 . S
O153 Co145 2.135 . S
Co154 O155 2.216 . S
Co154 O156 2.091 . S
Co154 O158 2.004 1_554 S
Co154 O164 2.021 . S
Co154 O166 2.137 . S
Co154 O167 2.244 1_554 S
O155 Co154 2.216 . S
O155 C162 1.247 . S
O156 Co154 2.091 . S
O156 C162 1.261 . S
C157 O166 1.247 . S
C157 O167 1.272 1_554 S
O158 Co154 2.004 1_556 S
O158 C163 1.259 . S
Co159 O160 2.061 . S
Co159 O165 2.052 . S
Co159 O167 2.133 . S
O160 Co159 2.061 . S
O160 C163 1.235 . S
C161 O164 1.238 . S
C161 O165 1.241 1_554 S
C162 O155 1.247 . S
C162 O156 1.261 . S
C163 O158 1.259 . S
C163 O160 1.235 . S
O164 Co154 2.021 . S
O164 C161 1.238 . S
O165 Co159 2.052 . S
O165 C161 1.241 1_556 S
O166 Co154 2.137 . S
O166 C157 1.247 . S
O167 Co154 2.244 1_556 S
O167 C157 1.272 1_556 S
O167 Co159 2.133 . S
C168 C169 1.387 . S
C168 H172 0.950 . S
C168 C177 1.390 . S
C169 C168 1.387 . S
C169 C171 1.387 . S
H170 C177 0.950 . S
C171 C169 1.387 . S
C171 C173 1.390 . S
C171 H175 0.950 . S
H172 C168 0.950 . S
C173 C171 1.390 . S
C173 C174 1.387 . S
C173 H176 0.950 . S
C174 C173 1.387 . S
C174 C177 1.387 . S
H175 C171 0.950 . S
H176 C173 0.950 . S
C177 C168 1.390 . S
C177 H170 0.950 . S
C177 C174 1.387 . S
C178 C179 1.387 . S
C178 H182 0.950 . S
C178 C187 1.390 . S
C179 C178 1.387 . S
C179 C181 1.387 . S
H180 C187 0.950 . S
C181 C179 1.387 . S
C181 C183 1.390 . S
C181 H185 0.950 . S
H182 C178 0.950 . S
C183 C181 1.390 . S
C183 C184 1.387 . S
C183 H186 0.950 . S
C184 C183 1.387 . S
C184 C187 1.387 . S
H185 C181 0.950 . S
H186 C183 0.950 . S
C187 C178 1.390 . S
C187 H180 0.950 . S
C187 C184 1.387 . S
C188 C189 1.387 . S
C188 H192 0.950 . S
C188 C197 1.390 1_556 S
C189 C188 1.387 . S
C189 C191 1.387 . S
H190 C197 0.950 . S
C191 C189 1.387 . S
C191 C193 1.390 1_556 S
C191 H195 0.950 . S
H192 C188 0.950 . S
C193 C191 1.390 1_554 S
C193 C194 1.387 . S
C193 H196 0.950 . S
C194 C193 1.387 . S
C194 C197 1.387 . S
H195 C191 0.950 . S
H196 C193 0.950 . S
C197 C188 1.390 1_554 S
C197 H190 0.950 . S
C197 C194 1.387 . S
C198 C199 1.387 . S
C198 H202 0.950 . S
C198 C207 1.390 . S
C199 C198 1.387 . S
C199 C201 1.387 . S
H200 C207 0.950 . S
C201 C199 1.387 . S
C201 C203 1.390 . S
C201 H205 0.950 . S
H202 C198 0.950 . S
C203 C201 1.390 . S
C203 C204 1.387 . S
C203 H206 0.950 . S
C204 C203 1.387 . S
C204 C207 1.387 . S
H205 C201 0.950 . S
H206 C203 0.950 . S
C207 C198 1.390 . S
C207 H200 0.950 . S
C207 C204 1.387 . S
C208 C209 1.387 . S
C208 H212 0.950 . S
C208 C217 1.390 . S
C209 C208 1.387 . S
C209 C211 1.387 . S
H210 C217 0.950 . S
C211 C209 1.387 . S
C211 C213 1.390 . S
C211 H215 0.950 . S
H212 C208 0.950 . S
C213 C211 1.390 . S
C213 C214 1.387 . S
C213 H216 0.950 . S
C214 C213 1.387 . S
C214 C217 1.387 . S
H215 C211 0.950 . S
H216 C213 0.950 . S
C217 C208 1.390 . S
C217 H210 0.950 . S
C217 C214 1.387 . S
C218 C219 1.387 . S
C218 H222 0.950 . S
C218 C227 1.390 1_554 S
C219 C218 1.387 . S
C219 C221 1.387 . S
H220 C227 0.950 . S
C221 C219 1.387 . S
C221 C223 1.390 1_554 S
C221 H225 0.950 . S
H222 C218 0.950 . S
C223 C221 1.390 1_556 S
C223 C224 1.387 . S
C223 H226 0.950 . S
C224 C223 1.387 . S
C224 C227 1.387 . S
H225 C221 0.950 . S
H226 C223 0.950 . S
C227 C218 1.390 1_556 S
C227 H220 0.950 . S
C227 C224 1.387 . S
C228 C229 1.387 . S
C228 H232 0.950 . S
C228 C237 1.390 . S
C229 C228 1.387 . S
C229 C231 1.387 . S
H230 C237 0.950 . S
C231 C229 1.387 . S
C231 C233 1.390 . S
C231 H235 0.950 . S
H232 C228 0.950 . S
C233 C231 1.390 . S
C233 C234 1.387 . S
C233 H236 0.950 . S
C234 C233 1.387 . S
C234 C237 1.387 . S
H235 C231 0.950 . S
H236 C233 0.950 . S
C237 C228 1.390 . S
C237 H230 0.950 . S
C237 C234 1.387 . S
C238 C239 1.387 . S
C238 H242 0.950 . S
C238 C247 1.390 1_655 S
C239 C238 1.387 . S
C239 C241 1.387 . S
H240 C247 0.950 . S
C241 C239 1.387 . S
C241 C243 1.390 1_655 S
C241 H245 0.950 . S
H242 C238 0.950 . S
C243 C241 1.390 1_455 S
C243 C244 1.387 . S
C243 H246 0.950 . S
C244 C243 1.387 . S
C244 C247 1.387 . S
H245 C241 0.950 . S
H246 C243 0.950 . S
C247 C238 1.390 1_455 S
C247 H240 0.950 . S
C247 C244 1.387 . S
C248 C249 1.387 . S
C248 H252 0.950 . S
C248 C257 1.390 1_544 S
C249 C248 1.387 . S
C249 C251 1.387 . S
H250 C257 0.950 . S
C251 C249 1.387 . S
C251 C253 1.390 1_544 S
C251 H255 0.950 . S
H252 C248 0.950 . S
C253 C251 1.390 1_566 S
C253 C254 1.387 . S
C253 H256 0.950 . S
C254 C253 1.387 . S
C254 C257 1.387 . S
H255 C251 0.950 . S
H256 C253 0.950 . S
C257 C248 1.390 1_566 S
C257 H250 0.950 . S
C257 C254 1.387 . S
C258 C259 1.387 . S
C258 H262 0.950 . S
C258 C267 1.390 . S
C259 C258 1.387 . S
C259 C261 1.387 . S
H260 C267 0.950 . S
C261 C259 1.387 . S
C261 C263 1.390 . S
C261 H265 0.950 . S
H262 C258 0.950 . S
C263 C261 1.390 . S
C263 C264 1.387 . S
C263 H266 0.950 . S
C264 C263 1.387 . S
C264 C267 1.387 . S
H265 C261 0.950 . S
H266 C263 0.950 . S
C267 C258 1.390 . S
C267 H260 0.950 . S
C267 C264 1.387 . S
C268 C269 1.387 . S
C268 H272 0.950 . S
C268 C277 1.390 1_455 S
C269 C268 1.387 . S
C269 C271 1.387 . S
H270 C277 0.950 . S
C271 C269 1.387 . S
C271 C273 1.390 1_455 S
C271 H275 0.950 . S
H272 C268 0.950 . S
C273 C271 1.390 1_655 S
C273 C274 1.387 . S
C273 H276 0.950 . S
C274 C273 1.387 . S
C274 C277 1.387 . S
H275 C271 0.950 . S
H276 C273 0.950 . S
C277 C268 1.390 1_655 S
C277 H270 0.950 . S
C277 C274 1.387 . S
C278 C279 1.387 . S
C278 H282 0.950 . S
C278 C287 1.390 1_546 S
C279 C278 1.387 . S
C279 C281 1.387 . S
H280 C287 0.950 . S
C281 C279 1.387 . S
C281 C283 1.390 1_546 S
C281 H285 0.950 . S
H282 C278 0.950 . S
C283 C281 1.390 1_564 S
C283 C284 1.387 . S
C283 H286 0.950 . S
C284 C283 1.387 . S
C284 C287 1.387 . S
H285 C281 0.950 . S
H286 C283 0.950 . S
C287 C278 1.390 1_564 S
C287 H280 0.950 . S
C287 C284 1.387 . S
C288 C289 1.387 . S
C288 H292 0.950 . S
C288 C297 1.391 . S
C289 C288 1.387 . S
C289 C291 1.387 . S
H290 C297 0.945 1_455 S
C291 C289 1.387 . S
C291 C293 1.390 1_655 S
C291 H295 0.950 . S
H292 C288 0.950 . S
C293 C291 1.390 1_455 S
C293 C294 1.387 . S
C293 H296 0.950 . S
C294 C293 1.387 . S
C294 C297 1.391 1_455 S
H295 C291 0.950 . S
H296 C293 0.950 . S
C297 C288 1.391 . S
C297 H290 0.945 1_655 S
C297 C294 1.391 1_655 S
C298 C299 1.387 . S
C298 H302 0.950 . S
C298 C307 1.390 1_545 S
C299 C298 1.387 . S
C299 C301 1.387 . S
H300 C307 0.950 . S
C301 C299 1.387 . S
C301 C303 1.390 1_545 S
C301 H305 0.950 . S
H302 C298 0.950 . S
C303 C301 1.390 1_565 S
C303 C304 1.387 . S
C303 H306 0.950 . S
C304 C303 1.387 . S
C304 C307 1.387 . S
H305 C301 0.950 . S
H306 C303 0.950 . S
C307 C298 1.390 1_565 S
C307 H300 0.950 . S
C307 C304 1.387 . S
C308 C309 1.387 . S
C308 H312 0.950 . S
C308 C317 1.390 . S
C309 C308 1.387 . S
C309 C311 1.387 . S
H310 C317 0.950 . S
C311 C309 1.387 . S
C311 C313 1.390 . S
C311 H315 0.950 . S
H312 C308 0.950 . S
C313 C311 1.390 . S
C313 C314 1.387 . S
C313 H316 0.950 . S
C314 C313 1.387 . S
C314 C317 1.387 . S
H315 C311 0.950 . S
H316 C313 0.950 . S
C317 C308 1.390 . S
C317 H310 0.950 . S
C317 C314 1.387 . S
C318 C319 1.387 . S
C318 H322 0.950 . S
C318 C327 1.390 . S
C319 C318 1.387 . S
C319 C321 1.387 . S
H320 C327 0.951 1_655 S
C321 C319 1.387 . S
C321 C323 1.390 1_455 S
C321 H325 0.950 . S
H322 C318 0.950 . S
C323 C321 1.390 1_655 S
C323 C324 1.387 . S
C323 H326 0.950 . S
C324 C323 1.387 . S
C324 C327 1.387 1_655 S
H325 C321 0.950 . S
H326 C323 0.950 . S
C327 C318 1.390 . S
C327 H320 0.951 1_455 S
C327 C324 1.387 1_455 S
C328 C329 1.387 . S
C328 H332 0.950 . S
C328 C337 1.390 1_545 S
C329 C328 1.387 . S
C329 C331 1.387 . S
H330 C337 0.950 . S
C331 C329 1.387 . S
C331 C333 1.390 1_545 S
C331 H335 0.950 . S
H332 C328 0.950 . S
C333 C331 1.390 1_565 S
C333 C334 1.387 . S
C333 H336 0.950 . S
C334 C333 1.387 . S
C334 C337 1.387 . S
H335 C331 0.950 . S
H336 C333 0.950 . S
C337 C328 1.390 1_565 S
C337 H330 0.950 . S
C337 C334 1.387 . S
C338 C339 1.387 . S
C338 H342 0.950 . S
C338 C347 1.390 . S
C339 C338 1.387 . S
C339 C341 1.387 . S
H340 C347 0.950 . S
C341 C339 1.387 . S
C341 C343 1.390 . S
C341 H345 0.950 . S
H342 C338 0.950 . S
C343 C341 1.390 . S
C343 C344 1.387 . S
C343 H346 0.950 . S
C344 C343 1.387 . S
C344 C347 1.387 . S
H345 C341 0.950 . S
H346 C343 0.950 . S
C347 C338 1.390 . S
C347 H340 0.950 . S
C347 C344 1.387 . S
C348 C349 1.387 . S
C348 H352 0.950 . S
C348 C357 1.390 . S
C349 C348 1.387 . S
C349 C351 1.387 . S
H350 C357 0.950 . S
C351 C349 1.387 . S
C351 C353 1.390 . S
C351 H355 0.950 . S
H352 C348 0.950 . S
C353 C351 1.390 . S
C353 C354 1.387 . S
C353 H356 0.950 . S
C354 C353 1.387 . S
C354 C357 1.387 . S
H355 C351 0.950 . S
H356 C353 0.950 . S
C357 C348 1.390 . S
C357 H350 0.950 . S
C357 C354 1.387 . S
C358 C359 1.387 . S
C358 H362 0.950 . S
C358 C367 1.390 . S
C359 C358 1.387 . S
C359 C361 1.387 . S
H360 C367 0.950 . S
C361 C359 1.387 . S
C361 C363 1.390 . S
C361 H365 0.950 . S
H362 C358 0.950 . S
C363 C361 1.390 . S
C363 C364 1.387 . S
C363 H366 0.950 . S
C364 C363 1.387 . S
C364 C367 1.387 . S
H365 C361 0.950 . S
H366 C363 0.950 . S
C367 C358 1.390 . S
C367 H360 0.950 . S
C367 C364 1.387 . S
C368 C369 1.387 . S
C368 H372 0.950 . S
C368 C377 1.390 . S
C369 C368 1.387 . S
C369 C371 1.387 . S
H370 C377 0.950 . S
C371 C369 1.387 . S
C371 C373 1.390 . S
C371 H375 0.950 . S
H372 C368 0.950 . S
C373 C371 1.390 . S
C373 C374 1.387 . S
C373 H376 0.950 . S
C374 C373 1.387 . S
C374 C377 1.387 . S
H375 C371 0.950 . S
H376 C373 0.950 . S
C377 C368 1.390 . S
C377 H370 0.950 . S
C377 C374 1.387 . S
C378 C379 1.387 . S
C378 H382 0.950 . S
C378 C387 1.390 . S
C379 C378 1.387 . S
C379 C381 1.387 . S
H380 C387 0.950 . S
C381 C379 1.387 . S
C381 C383 1.390 . S
C381 H385 0.950 . S
H382 C378 0.950 . S
C383 C381 1.390 . S
C383 C384 1.387 . S
C383 H386 0.950 . S
C384 C383 1.387 . S
C384 C387 1.387 . S
H385 C381 0.950 . S
H386 C383 0.950 . S
C387 C378 1.390 . S
C387 H380 0.950 . S
C387 C384 1.387 . S
C388 C389 1.387 . S
C388 H392 0.950 . S
C388 C397 1.390 . S
C389 C388 1.387 . S
C389 C391 1.387 . S
H390 C397 0.950 . S
C391 C389 1.387 . S
C391 C393 1.390 . S
C391 H395 0.950 . S
H392 C388 0.950 . S
C393 C391 1.390 . S
C393 C394 1.387 . S
C393 H396 0.950 . S
C394 C393 1.387 . S
C394 C397 1.387 . S
H395 C391 0.950 . S
H396 C393 0.950 . S
C397 C388 1.390 . S
C397 H390 0.950 . S
C397 C394 1.387 . S
C398 C399 1.387 . S
C398 H402 0.950 . S
C398 C407 1.390 . S
C399 C398 1.387 . S
C399 C401 1.387 . S
H400 C407 0.950 . S
C401 C399 1.387 . S
C401 C403 1.390 . S
C401 H405 0.950 . S
H402 C398 0.950 . S
C403 C401 1.390 . S
C403 C404 1.387 . S
C403 H406 0.950 . S
C404 C403 1.387 . S
C404 C407 1.387 . S
H405 C401 0.950 . S
H406 C403 0.950 . S
C407 C398 1.390 . S
C407 H400 0.950 . S
C407 C404 1.387 . S
C169 C3 1.617 . S
C174 C87 1.621 . S
C179 C17 1.621 . S
C184 C101 1.617 . S
C189 C31 1.564 . S
C194 C115 1.564 . S
C199 C129 1.621 . S
C204 C45 1.617 . S
C209 C59 1.621 . S
C214 C143 1.617 . S
C219 C157 1.563 . S
C224 C73 1.563 . S
C229 C7 1.178 . S
C234 C133 1.187 . S
C239 C21 1.187 . S
C244 C147 1.178 . S
C249 C161 1.149 . S
C254 C35 1.148 . S
C259 C91 1.187 . S
C264 C49 1.177 . S
C269 C63 1.187 . S
C274 C105 1.177 . S
C279 C77 1.145 . S
C284 C119 1.145 . S
C289 C162 1.718 . S
C294 C8 1.709 . S
C299 C22 1.847 . S
C304 C92 1.847 . S
C309 C36 1.719 . S
C314 C106 1.709 . S
C319 C120 1.718 . S
C324 C50 1.709 . S
C329 C134 1.847 . S
C334 C64 1.847 . S
C339 C78 1.720 . S
C344 C148 1.711 . S
C349 C9 1.215 . S
C354 C149 1.215 . S
C359 C163 1.303 . S
C364 C23 1.309 . S
C369 C93 1.312 . S
C374 C37 1.310 . S
C379 C51 1.222 . S
C384 C107 1.222 . S
C389 C121 1.308 . S
C394 C65 1.315 . S
C399 C135 1.306 . S
C404 C79 1.305 . S
