# Generated by pormake.
# Topology smu, (6)-cn, num edge types: 1
# Building blocks:
#     Node 0, Type 0, BuildingBlock: HISSIN_clean_sbu_0, # of connection points: 6
#     Node 1, Type 0, BuildingBlock: HISSIN_clean_sbu_0, # of connection points: 6
#     Node 2, Type 0, BuildingBlock: HISSIN_clean_sbu_0, # of connection points: 6
#     Node 3, Type 0, BuildingBlock: HISSIN_clean_sbu_0, # of connection points: 6
#     Node 4, Type 0, BuildingBlock: HISSIN_clean_sbu_0, # of connection points: 6
#     Node 5, Type 0, BuildingBlock: HISSIN_clean_sbu_0, # of connection points: 6
#     Edge 6, Type (0, 0), BuildingBlock: OJICUG_clean_linker_0, # of connection points: 2
#     Edge 7, Type (0, 0), BuildingBlock: OJICUG_clean_linker_0, # of connection points: 2
#     Edge 8, Type (0, 0), BuildingBlock: OJICUG_clean_linker_0, # of connection points: 2
#     Edge 9, Type (0, 0), BuildingBlock: OJICUG_clean_linker_0, # of connection points: 2
#     Edge 10, Type (0, 0), BuildingBlock: OJICUG_clean_linker_0, # of connection points: 2
#     Edge 11, Type (0, 0), BuildingBlock: OJICUG_clean_linker_0, # of connection points: 2
#     Edge 12, Type (0, 0), BuildingBlock: OJICUG_clean_linker_0, # of connection points: 2
#     Edge 13, Type (0, 0), BuildingBlock: OJICUG_clean_linker_0, # of connection points: 2
#     Edge 14, Type (0, 0), BuildingBlock: OJICUG_clean_linker_0, # of connection points: 2
#     Edge 15, Type (0, 0), BuildingBlock: OJICUG_clean_linker_0, # of connection points: 2
#     Edge 16, Type (0, 0), BuildingBlock: OJICUG_clean_linker_0, # of connection points: 2
#     Edge 17, Type (0, 0), BuildingBlock: OJICUG_clean_linker_0, # of connection points: 2
#     Edge 18, Type (0, 0), BuildingBlock: OJICUG_clean_linker_0, # of connection points: 2
#     Edge 19, Type (0, 0), BuildingBlock: OJICUG_clean_linker_0, # of connection points: 2
#     Edge 20, Type (0, 0), BuildingBlock: OJICUG_clean_linker_0, # of connection points: 2
#     Edge 21, Type (0, 0), BuildingBlock: OJICUG_clean_linker_0, # of connection points: 2
#     Edge 22, Type (0, 0), BuildingBlock: OJICUG_clean_linker_0, # of connection points: 2
#     Edge 23, Type (0, 0), BuildingBlock: OJICUG_clean_linker_0, # of connection points: 2
# Relax obj value: 0.233
# Max RMSD: 0.336
# Mean RMSD: 0.336
data_MOF--net-smu--node1-HISSIN_clean_sbu_0--edge1-OJICUG_clean_linker_0
_symmetry_space_group_name_H-M    P1
_symmetry_Int_Tables_number       1
_symmetry_cell_setting            triclinic
loop_
_symmetry_equiv_pos_as_xyz
'x, y, z'
_cell_length_a     31.919304
_cell_length_b     31.924466
_cell_length_c     20.163038
_cell_angle_alpha  89.887889
_cell_angle_beta   90.108561
_cell_angle_gamma 119.94257
loop_
_atom_site_label
_atom_site_type_symbol
_atom_site_fract_x
_atom_site_fract_y
_atom_site_fract_z
_atom_type_partial_charge
Eu0 Eu 0.31293 0.12295 0.26306 0.0
Eu1 Eu 0.39656 0.09163 0.26419 0.0
C2 C 0.33104 0.07187 0.13283 0.0
C3 C 0.22436 0.18022 0.26559 0.0
C4 C 0.19521 0.17678 0.21144 0.0
C5 C 0.19933 0.23098 0.32259 0.0
C6 C 0.16806 0.20016 0.21297 0.0
C7 C 0.22572 0.20696 0.32145 0.0
C8 C 0.17032 0.22818 0.26825 0.0
C9 C 0.25576 0.15882 0.26274 0.0
O10 O 0.43317 0.17071 0.23385 0.0
O11 O 0.38325 0.18749 0.29253 0.0
C12 C 0.42441 0.20216 0.26277 0.0
O13 O 0.30021 0.08222 0.36008 0.0
O14 O 0.44645 0.0743 0.21348 0.0
O15 O 0.44979 0.08177 0.3201 0.0
O16 O 0.37575 0.09121 0.37159 0.0
C17 C 0.33201 0.07649 0.39473 0.0
O18 O 0.26812 0.04357 0.25926 0.0
O19 O 0.32558 0.0193 0.2707 0.0
O20 O 0.36018 0.06259 0.16752 0.0
O21 O 0.26983 0.14694 0.31674 0.0
O22 O 0.27166 0.15021 0.20779 0.0
O23 O 0.31446 0.09973 0.15555 0.0
C24 C 0.524 0.10444 0.26335 0.0
C25 C 0.55244 0.12802 0.31928 0.0
C26 C 0.59786 0.12749 0.20118 0.0
C27 C 0.60299 0.15062 0.31635 0.0
C28 C 0.54739 0.10478 0.20418 0.0
C29 C 0.62641 0.15013 0.25748 0.0
C30 C 0.47032 0.07675 0.2672 0.0
C31 C 0.28042 1.01021 0.26467 0.0
H32 H 0.19347 0.1561 0.16793 0.0
H33 H 0.20248 0.25247 0.36576 0.0
H34 H 0.14506 0.19587 0.17099 0.0
H35 H 0.24828 0.21045 0.36367 0.0
H36 H 0.53569 0.1282 0.36585 0.0
H37 H 0.61447 0.12702 0.15463 0.0
H38 H 0.62357 0.16712 0.36096 0.0
H39 H 0.52661 0.08677 0.16026 0.0
Eu40 Eu 0.83795 0.72272 0.25753 0.0
Eu41 Eu 0.72382 0.63998 0.2618 0.0
C42 C 0.76647 0.70608 0.1306 0.0
C43 C 0.98346 0.81009 0.25663 0.0
C44 C 1.01027 0.831 0.19895 0.0
C45 C 0.05773 0.8437 0.32017 0.0
C46 C 0.06069 0.8589 0.20203 0.0
C47 C 1.00749 0.81706 0.31726 0.0
C48 C 0.08527 0.86524 0.26271 0.0
C49 C 0.93075 0.77906 0.25391 0.0
O50 O 0.76647 0.60432 0.22913 0.0
O51 O 0.83117 0.65263 0.29165 0.0
C52 C 0.80547 0.61192 0.26051 0.0
O53 O 0.81218 0.73443 0.35658 0.0
O54 O 0.65721 0.58852 0.21133 0.0
O55 O 0.66066 0.58791 0.31832 0.0
O56 O 0.7475 0.6581 0.36863 0.0
C57 C 0.77607 0.7018 0.39208 0.0
O58 O 0.80345 0.76771 0.25057 0.0
O59 O 0.72323 0.71108 0.27381 0.0
O60 O 0.72891 0.67742 0.1668 0.0
O61 O 0.90426 0.77538 0.30512 0.0
O62 O 0.90697 0.75273 0.20284 0.0
O63 O 0.81131 0.72213 0.1513 0.0
C64 C 0.61144 0.51197 0.2644 0.0
C65 C 0.60142 0.48553 0.32377 0.0
C66 C 0.56879 0.43582 0.20362 0.0
C67 C 0.5749 0.43497 0.32316 0.0
C68 C 0.5952 0.48647 0.20423 0.0
C69 C 0.55758 0.40948 0.26322 0.0
C70 C 0.6358 0.56566 0.26556 0.0
C71 C 0.7586 0.75594 0.26294 0.0
H72 H 0.99227 0.82603 0.15161 0.0
H73 H 0.07471 0.84651 0.36769 0.0
H74 H 0.08006 0.8758 0.15686 0.0
H75 H 0.98747 0.80083 0.36238 0.0
H76 H 0.61318 0.50387 0.37103 0.0
H77 H 0.55555 0.41737 0.15669 0.0
H78 H 0.56736 0.41578 0.3699 0.0
H79 H 0.60188 0.50566 0.15758 0.0
Eu80 Eu 0.91402 0.19828 0.25978 0.0
Eu81 Eu 0.94387 0.31193 0.25795 0.0
C82 C 0.96223 0.26332 0.12924 0.0
C83 C 0.85622 0.05271 0.26656 0.0
C84 C 0.86035 0.02754 0.21235 0.0
C85 C 0.80684 0.97655 0.32357 0.0
C86 C 0.83759 0.97714 0.21358 0.0
C87 C 0.82974 0.02687 0.32239 0.0
C88 C 0.81004 0.95099 0.26895 0.0
C89 C 0.87726 0.10546 0.26377 0.0
O90 O 0.8647 0.26754 0.28544 0.0
O91 O 0.85236 0.20577 0.21975 0.0
C92 C 0.83494 0.2289 0.2522 0.0
O93 O 0.93589 0.22259 0.36783 0.0
O94 O 0.95023 0.37248 0.19946 0.0
O95 O 0.96137 0.38029 0.30544 0.0
O96 O 0.96917 0.30513 0.35792 0.0
C97 C 0.96106 0.2669 0.39221 0.0
O98 O 0.99231 0.23368 0.27935 0.0
O99 O 1.0165 0.31359 0.25318 0.0
O100 O 0.94728 0.29234 0.1514 0.0
O101 O 0.86608 0.12893 0.3067 0.0
O102 O 0.90889 0.1324 0.21905 0.0
O103 O 0.95519 0.22522 0.16337 0.0
C104 C 0.92692 0.42379 0.25397 0.0
C105 C 0.91196 0.43341 0.31486 0.0
C106 C 0.89211 0.46689 0.19729 0.0
C107 C 0.88794 0.46003 0.31691 0.0
C108 C 0.91628 0.44046 0.19525 0.0
C109 C 0.87832 0.47769 0.2582 0.0
C110 C 0.9562 0.39943 0.25108 0.0
C111 C 0.02577 0.27859 0.26845 0.0
H112 H 0.8806 0.04669 0.16864 0.0
H113 H 0.78588 0.95769 0.36692 0.0
H114 H 0.84191 0.95878 0.1713 0.0
H115 H 0.82615 0.04549 0.36496 0.0
H116 H 0.91957 0.42122 0.36114 0.0
H117 H 0.88589 0.48044 0.15122 0.0
H118 H 0.87735 0.46726 0.36463 0.0
H119 H 0.9277 0.43406 0.14762 0.0
Eu120 Eu 0.09766 0.38764 0.76547 0.0
Eu121 Eu 0.12866 0.3044 0.76264 0.0
C122 C 0.0869 0.32519 0.89667 0.0
C123 C 0.11186 0.5159 0.76536 0.0
C124 C 0.13831 0.54459 0.81972 0.0
C125 C 0.13153 0.58956 0.70443 0.0
C126 C 0.16056 0.59513 0.81672 0.0
C127 C 0.10916 0.53909 0.70752 0.0
C128 C 0.15691 0.61835 0.75935 0.0
C129 C 0.08404 0.4622 0.76998 0.0
O130 O 0.04952 0.26016 0.75118 0.0
O131 O 0.02608 0.31634 0.77808 0.0
C132 C 1.0165 0.27166 0.76523 0.0
O133 O 0.06718 0.35177 0.66901 0.0
O134 O 0.13573 0.24496 0.80405 0.0
O135 O 0.17471 0.28166 0.7127 0.0
O136 O 0.10295 0.30491 0.65619 0.0
C137 C 0.07551 0.3222 0.63398 0.0
O138 O 0.17601 0.4221 0.73341 0.0
O139 O 0.19113 0.37432 0.79918 0.0
O140 O 0.09206 0.29309 0.86228 0.0
O141 O 0.0797 0.4378 0.71617 0.0
O142 O 0.09039 0.4419 0.82226 0.0
O143 O 0.10069 0.3685 0.87261 0.0
C144 C 0.18605 0.21623 0.75404 0.0
C145 C 0.2088 0.21372 0.69599 0.0
C146 C 0.20828 0.16229 0.80862 0.0
C147 C 0.23188 0.1864 0.69455 0.0
C148 C 0.18543 0.18986 0.81011 0.0
C149 C 0.23253 0.16088 0.75113 0.0
C150 C 0.16528 0.24818 0.75707 0.0
C151 C 0.20694 0.41458 0.76634 0.0
H152 H 0.14093 0.52803 0.86529 0.0
H153 H 0.12857 0.60598 0.65892 0.0
H154 H 0.17926 0.61585 0.8603 0.0
H155 H 0.08894 0.51812 0.66485 0.0
H156 H 0.20944 0.23348 0.65191 0.0
H157 H 0.20669 0.14196 0.85253 0.0
H158 H 0.2501 0.18626 0.64941 0.0
H159 H 0.16797 0.19112 0.85549 0.0
Eu160 Eu 0.31885 0.93616 0.75805 0.0
Eu161 Eu 0.20481 0.90709 0.76127 0.0
C162 C 0.27561 0.95783 0.8906 0.0
C163 C 0.43428 0.92402 0.75289 0.0
C164 C 0.41966 0.8814 0.78951 0.0
C165 C 0.5048 0.9206 0.71521 0.0
C166 C 0.4475 0.85845 0.78868 0.0
C167 C 0.47685 0.9431 0.71563 0.0
C168 C 0.49065 0.87775 0.75143 0.0
C169 C 0.40729 0.95056 0.75404 0.0
O170 O 0.24097 0.98602 0.77621 0.0
O171 O 0.31979 1.00814 0.74673 0.0
C172 C 0.28549 0.01852 0.76128 0.0
O173 O 0.29764 0.9356 0.65082 0.0
O174 O 0.13558 0.85953 0.80899 0.0
O175 O 0.13875 0.90249 0.72157 0.0
O176 O 0.23125 0.94495 0.66201 0.0
C177 C 0.26872 0.95052 0.62756 0.0
O178 O 0.27447 0.85692 0.78584 0.0
O179 O 0.21073 0.84411 0.72337 0.0
O180 O 0.23087 0.93057 0.86843 0.0
O181 O 0.38228 0.94777 0.7014 0.0
O182 O 0.38485 0.94924 0.80859 0.0
O183 O 0.31336 0.96625 0.85502 0.0
C184 C 0.05902 0.84979 0.76929 0.0
C185 C 0.03403 0.85662 0.71688 0.0
C186 C 0.98231 0.79619 0.82268 0.0
C187 C 0.98353 0.83306 0.71708 0.0
C188 C 0.03274 0.81991 0.82257 0.0
C189 C 0.95698 0.80196 0.76957 0.0
C190 C 0.11188 0.87065 0.76615 0.0
C191 C 0.23474 0.82699 0.7546 0.0
H192 H 0.38684 0.86588 0.81876 0.0
H193 H 0.53815 0.93766 0.68723 0.0
H194 H 0.43484 0.82536 0.81672 0.0
H195 H 0.48897 0.97607 0.68737 0.0
H196 H 0.05342 0.8795 0.67512 0.0
H197 H 0.9632 0.77251 0.86386 0.0
H198 H 0.96539 0.83946 0.67619 0.0
H199 H 0.05109 0.81402 0.86369 0.0
Eu200 Eu 0.64572 0.71477 0.7548 0.0
Eu201 Eu 0.7284 0.82876 0.75417 0.0
C202 C 0.7075 0.76088 0.88818 0.0
C203 C 0.51696 0.60188 0.75193 0.0
C204 C 0.49298 0.59426 0.81307 0.0
C205 C 0.43861 0.55529 0.69754 0.0
C206 C 0.44237 0.56693 0.81637 0.0
C207 C 0.48911 0.58235 0.69429 0.0
C208 C 0.41455 0.54667 0.75869 0.0
C209 C 0.57059 0.62725 0.74733 0.0
O210 O 0.77219 0.79429 0.77456 0.0
O211 O 0.71714 0.71382 0.75074 0.0
C212 C 0.76131 0.74941 0.76495 0.0
O213 O 0.66936 0.73312 0.64809 0.0
O214 O 0.74891 0.89793 0.80075 0.0
O215 O 0.7888 0.89512 0.71337 0.0
O216 O 0.74327 0.80192 0.65815 0.0
C217 C 0.71288 0.7629 0.62515 0.0
O218 O 0.61159 0.75949 0.78427 0.0
O219 O 0.65827 0.81936 0.71424 0.0
O220 O 0.72651 0.80489 0.86255 0.0
O221 O 0.59019 0.6555 0.69633 0.0
O222 O 0.59588 0.64535 0.80124 0.0
O223 O 0.67743 0.72213 0.85493 0.0
C224 C 0.8152 0.97458 0.76165 0.0
C225 C 0.84419 1.00046 0.7075 0.0
C226 C 0.84344 0.04999 0.82134 0.0
C227 C 0.8724 0.05081 0.71011 0.0
C228 C 0.81542 0.99971 0.81875 0.0
C229 C 0.87195 0.07628 0.76686 0.0
C230 C 0.78389 0.92173 0.75837 0.0
C231 C 0.61864 0.79664 0.74876 0.0
H232 H 0.51324 0.60872 0.85853 0.0
H233 H 0.41851 0.53975 0.65227 0.0
H234 H 0.42499 0.56143 0.86421 0.0
H235 H 0.5065 0.58716 0.64657 0.0
H236 H 0.84477 0.98186 0.66291 0.0
H237 H 0.84203 0.06823 0.86576 0.0
H238 H 0.89487 0.06966 0.66783 0.0
H239 H 0.79362 0.98054 0.86141 0.0
C240 C 0.33336 1.0048 0.98071 0.0
C241 C 0.28641 0.98501 0.9545 0.0
H242 H 0.3842 0.04876 0.05421 0.0
C243 C 0.25399 0.99668 0.98567 0.0
H244 H 0.35967 0.99714 0.95843 0.0
C245 C 0.26858 0.02726 0.04196 0.0
C246 C 0.31579 0.0466 0.06768 0.0
H247 H 0.2178 0.98277 0.9662 0.0
H248 H 0.24269 0.03457 0.06632 0.0
C249 C 0.34773 0.035 0.03578 0.0
C250 C 0.70065 0.70203 0.53744 0.0
C251 C 0.72936 0.74852 0.56445 0.0
H252 H 0.69313 0.65056 0.46393 0.0
C253 C 0.77527 0.77863 0.53654 0.0
H254 H 0.66548 0.67729 0.55811 0.0
C255 C 0.79145 0.76294 0.48224 0.0
C256 C 0.76231 0.7166 0.45485 0.0
H257 H 0.79875 0.81436 0.55656 0.0
H258 H 0.82648 0.78749 0.46102 0.0
C259 C 0.71689 0.68629 0.48373 0.0
C260 C 1.01057 0.32434 0.04149 0.0
C261 C 0.99306 0.27787 0.06855 0.0
H262 H 0.05454 0.37602 0.96816 0.0
C263 C 1.00918 0.24795 0.04086 0.0
H264 H 0.9999 0.34892 0.06207 0.0
C265 C 0.04116 0.26381 0.9867 0.0
C266 C 0.0582 0.31017 0.95931 0.0
H267 H 0.99709 0.21223 0.06095 0.0
H268 H 0.05186 0.23939 0.96561 0.0
C269 C 0.04271 0.34027 0.98796 0.0
C270 C 0.34614 0.03079 0.48575 0.0
C271 C 0.31633 0.04666 0.45675 0.0
H272 H 0.35442 0.98778 0.56043 0.0
C273 C 0.2698 0.02938 0.48357 0.0
H274 H 0.38202 0.04278 0.46649 0.0
C275 C 0.25344 0.99676 0.53721 0.0
C276 C 0.28327 0.98072 0.56585 0.0
H277 H 0.24561 0.04045 0.46245 0.0
H278 H 0.2176 0.98461 0.55676 0.0
C279 C 0.32989 0.99839 0.53926 0.0
C280 C 0.76938 0.78223 0.98117 0.0
C281 C 0.72325 0.75168 0.95361 0.0
H282 H 0.82048 0.79156 0.05841 0.0
C283 C 0.69353 0.70681 0.98405 0.0
H284 H 0.79357 0.81671 0.95823 0.0
C285 C 0.70921 0.6921 0.03896 0.0
C286 C 0.75514 0.7218 0.06668 0.0
H287 H 0.65789 0.6821 0.96458 0.0
H288 H 0.68472 0.65696 0.06004 0.0
C289 C 0.78526 0.76734 0.0374 0.0
C290 C 0.99988 0.24501 0.48723 0.0
C291 C 0.98714 0.277 0.45693 0.0
H292 H 0.03914 0.23428 0.56681 0.0
C293 C 1.00565 0.32342 0.48421 0.0
H294 H 0.98699 0.20925 0.46688 0.0
C295 C 0.03614 0.33795 0.53896 0.0
C296 C 0.04914 0.3066 0.56968 0.0
H297 H 0.99711 0.34938 0.46264 0.0
H298 H 0.04922 0.37415 0.55785 0.0
C299 C 0.0307 0.25972 0.54334 0.0
C300 C 0.70062 0.14846 0.21911 0.0
C301 C 0.6801 0.17138 0.25533 0.0
H302 H 0.7649 0.14849 0.18957 0.0
C303 C 0.71129 0.21406 0.29009 0.0
H304 H 0.67794 0.11507 0.19278 0.0
C305 C 0.76156 0.23315 0.28871 0.0
C306 C 0.78186 0.21005 0.2525 0.0
H307 H 0.69694 0.23301 0.31804 0.0
H308 H 0.78445 0.26589 0.31624 0.0
C309 C 0.7507 0.16754 0.21763 0.0
C310 C 0.48776 0.33457 0.31047 0.0
C311 C 0.52518 0.35597 0.26363 0.0
H312 H 0.42714 0.26988 0.34676 0.0
C313 C 0.53016 0.32603 0.21683 0.0
H314 H 0.48236 0.35652 0.34657 0.0
C315 C 0.49839 0.27578 0.21714 0.0
C316 C 0.46054 0.25469 0.26356 0.0
H317 H 0.55872 0.34143 0.18016 0.0
H318 H 0.50281 0.25367 0.18028 0.0
C319 C 0.45582 0.28478 0.31024 0.0
C320 C 0.82208 0.50557 0.214 0.0
C321 C 0.85691 0.50985 0.26068 0.0
H322 H 0.7779 0.53399 0.17767 0.0
C323 C 0.87298 0.54674 0.30838 0.0
H324 H 0.80873 0.47736 0.17683 0.0
C325 C 0.8556 0.57915 0.30858 0.0
C326 C 0.82131 0.57538 0.26149 0.0
H327 H 0.90018 0.55154 0.34451 0.0
H328 H 0.86947 0.60755 0.34552 0.0
C329 C 0.80421 0.53781 0.21469 0.0
C330 C 0.22194 0.70357 0.78904 0.0
C331 C 0.17777 0.67207 0.75751 0.0
H332 H 0.27475 0.77692 0.81273 0.0
C333 C 0.15301 0.69232 0.7249 0.0
H334 H 0.24232 0.68948 0.81417 0.0
C335 C 0.17182 0.74238 0.7236 0.0
C336 C 0.21591 0.77386 0.75509 0.0
H337 H 0.11846 0.66944 0.70124 0.0
H338 H 0.15135 0.75632 0.69831 0.0
C339 C 0.24076 0.75381 0.78787 0.0
C340 C 0.52448 0.82878 0.8056 0.0
C341 C 0.52119 0.85405 0.75014 0.0
H342 H 0.55723 0.79025 0.84838 0.0
C343 C 0.54869 0.85775 0.6935 0.0
H344 H 0.50465 0.82555 0.8506 0.0
C345 C 0.57986 0.83881 0.69321 0.0
C346 C 0.58346 0.81421 0.74871 0.0
H347 H 0.54636 0.87537 0.64889 0.0
H348 H 0.60107 0.84325 0.64914 0.0
C349 C 0.55486 0.80867 0.80458 0.0
C350 C 0.29012 0.44787 0.81428 0.0
C351 C 0.25958 0.45033 0.76592 0.0
H352 H 0.36247 0.47623 0.85016 0.0
C353 C 0.28019 0.48591 0.71631 0.0
H354 H 0.27546 0.42095 0.85328 0.0
C355 C 0.33033 0.51756 0.7143 0.0
C356 C 0.36094 0.51479 0.7624 0.0
H357 H 0.25773 0.48863 0.67815 0.0
H358 H 0.34516 0.54423 0.67501 0.0
C359 C 0.34005 0.47984 0.81279 0.0
C360 C 0.13154 0.27114 0.21218 0.0
C361 C 0.14123 0.25287 0.27036 0.0
H362 H 0.08743 0.29641 0.16645 0.0
C363 C 0.1203 0.25566 0.33031 0.0
H364 H 0.1477 0.27048 0.16532 0.0
C365 C 0.08785 0.27278 0.33115 0.0
C366 C 0.07481 0.28656 0.27207 0.0
H367 H 0.12595 0.24127 0.37597 0.0
H368 H 0.06885 0.27012 0.37683 0.0
C369 C 0.09828 0.28757 0.21298 0.0
C370 C 0.16112 0.92089 0.3254 0.0
C371 C 0.13903 0.89537 0.26685 0.0
H372 H 0.2256 0.9749 0.37153 0.0
C373 C 0.16873 0.9011 0.21184 0.0
H374 H 0.1401 0.91918 0.36839 0.0
C375 C 0.2183 0.93459 0.21369 0.0
C376 C 0.23918 0.96164 0.27116 0.0
H377 H 0.15358 0.88152 0.1662 0.0
H378 H 0.23936 0.94233 0.1686 0.0
C379 C 0.21064 0.95283 0.32774 0.0
C380 C 0.76596 0.8701 0.21238 0.0
C381 C 0.78583 0.8974 0.27046 0.0
H382 H 0.73901 0.8012 0.16525 0.0
C383 C 0.78489 0.87325 0.32934 0.0
H384 H 0.76541 0.88739 0.1664 0.0
C385 C 0.76757 0.82361 0.32902 0.0
C386 C 0.75153 0.79732 0.26986 0.0
H387 H 0.8007 0.89305 0.37469 0.0
H388 H 0.77159 0.80682 0.37341 0.0
C389 C 0.74936 0.8205 0.21201 0.0
C390 C 0.25616 0.10667 0.69214 0.0
C391 C 0.25735 0.13199 0.74975 0.0
H392 H 0.26836 0.05241 0.6502 0.0
C393 C 0.27996 0.1271 0.80699 0.0
H394 H 0.23827 0.10858 0.64752 0.0
C395 C 0.29677 0.09423 0.80831 0.0
C396 C 0.29241 0.06676 0.752 0.0
H397 H 0.28243 0.14676 0.85187 0.0
H398 H 0.30912 0.08715 0.85489 0.0
C399 C 0.27404 0.07482 0.69321 0.0
C400 C 0.87828 0.77205 0.82946 0.0
C401 C 0.90322 0.77691 0.76996 0.0
H402 H 0.81127 0.75564 0.87445 0.0
C403 C 0.8765 0.76036 0.71062 0.0
H404 H 0.89749 0.78505 0.87596 0.0
C405 C 0.82672 0.74335 0.7101 0.0
C406 C 0.80289 0.74216 0.76895 0.0
H407 H 0.8944 0.76281 0.66402 0.0
H408 H 0.80794 0.73571 0.66296 0.0
C409 C 0.82862 0.75457 0.82889 0.0
C410 C 0.95794 0.20262 0.8299 0.0
C411 C 0.96807 0.23003 0.77165 0.0
H412 H 0.92145 0.13241 0.87362 0.0
C413 C 0.94258 0.20783 0.71353 0.0
H414 H 0.97892 0.21858 0.87441 0.0
C415 C 0.90942 0.15826 0.71271 0.0
C416 C 0.90192 0.12989 0.7698 0.0
H417 H 0.95142 0.22792 0.66737 0.0
H418 H 0.8914 0.14186 0.6665 0.0
C419 C 0.92543 0.153 0.829 0.0
loop_
_geom_bond_atom_site_label_1
_geom_bond_atom_site_label_2
_geom_bond_distance
_geom_bond_site_symmetry_2
_ccdc_geom_bond_type
Eu0 C9 2.828 . S
Eu0 O11 2.392 . S
Eu0 O13 2.418 . S
Eu0 O18 2.373 . S
Eu0 O21 2.488 . S
Eu0 O22 2.471 . S
Eu0 O23 2.349 . S
Eu1 O10 2.373 . S
Eu1 O14 2.488 . S
Eu1 O15 2.471 . S
Eu1 O16 2.349 . S
Eu1 O19 2.392 . S
Eu1 O20 2.418 . S
Eu1 C30 2.828 . S
C2 O20 1.244 . S
C2 O23 1.265 . S
C3 C4 1.379 . S
C3 C7 1.373 . S
C3 C9 1.505 . S
C4 C3 1.379 . S
C4 C6 1.369 . S
C4 H32 0.930 . S
C5 C7 1.383 . S
C5 C8 1.382 . S
C5 H33 0.930 . S
C6 C4 1.369 . S
C6 C8 1.392 . S
C6 H34 0.930 . S
C7 C3 1.373 . S
C7 C5 1.383 . S
C7 H35 0.931 . S
C8 C5 1.382 . S
C8 C6 1.392 . S
C9 Eu0 2.828 . S
C9 C3 1.505 . S
C9 O21 1.249 . S
C9 O22 1.244 . S
O10 Eu1 2.373 . S
O10 C12 1.258 . S
O11 Eu0 2.392 . S
O11 C12 1.242 . S
C12 O10 1.258 . S
C12 O11 1.242 . S
O13 Eu0 2.418 . S
O13 C17 1.244 . S
O14 Eu1 2.488 . S
O14 C30 1.249 . S
O15 Eu1 2.471 . S
O15 C30 1.244 . S
O16 Eu1 2.349 . S
O16 C17 1.265 . S
C17 O13 1.244 . S
C17 O16 1.265 . S
O18 Eu0 2.373 . S
O18 C31 1.258 . S
O19 Eu1 2.392 . S
O19 C31 1.242 . S
O20 Eu1 2.418 . S
O20 C2 1.244 . S
O21 Eu0 2.488 . S
O21 C9 1.249 . S
O22 Eu0 2.471 . S
O22 C9 1.244 . S
O23 Eu0 2.349 . S
O23 C2 1.265 . S
C24 C25 1.379 . S
C24 C28 1.373 . S
C24 C30 1.505 . S
C25 C24 1.379 . S
C25 C27 1.369 . S
C25 H36 0.930 . S
C26 C28 1.383 . S
C26 C29 1.382 . S
C26 H37 0.930 . S
C27 C25 1.369 . S
C27 C29 1.392 . S
C27 H38 0.930 . S
C28 C24 1.373 . S
C28 C26 1.383 . S
C28 H39 0.931 . S
C29 C26 1.382 . S
C29 C27 1.392 . S
C30 Eu1 2.828 . S
C30 O14 1.249 . S
C30 O15 1.244 . S
C30 C24 1.505 . S
C31 O18 1.258 . S
C31 O19 1.242 . S
H32 C4 0.930 . S
H33 C5 0.930 . S
H34 C6 0.930 . S
H35 C7 0.931 . S
H36 C25 0.930 . S
H37 C26 0.930 . S
H38 C27 0.930 . S
H39 C28 0.931 . S
Eu40 C49 2.828 . S
Eu40 O51 2.392 . S
Eu40 O53 2.418 . S
Eu40 O58 2.373 . S
Eu40 O61 2.488 . S
Eu40 O62 2.471 . S
Eu40 O63 2.349 . S
Eu41 O50 2.373 . S
Eu41 O54 2.488 . S
Eu41 O55 2.471 . S
Eu41 O56 2.349 . S
Eu41 O59 2.392 . S
Eu41 O60 2.418 . S
Eu41 C70 2.828 . S
C42 O60 1.244 . S
C42 O63 1.265 . S
C43 C44 1.379 . S
C43 C47 1.373 1_655 S
C43 C49 1.505 . S
C44 C43 1.379 . S
C44 C46 1.369 1_655 S
C44 H72 0.930 . S
C45 C47 1.383 . S
C45 C48 1.382 . S
C45 H73 0.930 . S
C46 C44 1.369 1_455 S
C46 C48 1.392 . S
C46 H74 0.930 . S
C47 C43 1.373 1_455 S
C47 C45 1.383 . S
C47 H75 0.930 . S
C48 C45 1.382 . S
C48 C46 1.392 . S
C49 Eu40 2.828 . S
C49 C43 1.505 . S
C49 O61 1.249 . S
C49 O62 1.244 . S
O50 Eu41 2.373 . S
O50 C52 1.258 . S
O51 Eu40 2.392 . S
O51 C52 1.242 . S
C52 O50 1.258 . S
C52 O51 1.242 . S
O53 Eu40 2.418 . S
O53 C57 1.244 . S
O54 Eu41 2.488 . S
O54 C70 1.249 . S
O55 Eu41 2.471 . S
O55 C70 1.244 . S
O56 Eu41 2.349 . S
O56 C57 1.265 . S
C57 O53 1.244 . S
C57 O56 1.265 . S
O58 Eu40 2.373 . S
O58 C71 1.258 . S
O59 Eu41 2.392 . S
O59 C71 1.242 . S
O60 Eu41 2.418 . S
O60 C42 1.244 . S
O61 Eu40 2.488 . S
O61 C49 1.249 . S
O62 Eu40 2.471 . S
O62 C49 1.244 . S
O63 Eu40 2.349 . S
O63 C42 1.265 . S
C64 C65 1.379 . S
C64 C68 1.373 . S
C64 C70 1.505 . S
C65 C64 1.379 . S
C65 C67 1.369 . S
C65 H76 0.930 . S
C66 C68 1.383 . S
C66 C69 1.382 . S
C66 H77 0.930 . S
C67 C65 1.369 . S
C67 C69 1.392 . S
C67 H78 0.930 . S
C68 C64 1.373 . S
C68 C66 1.383 . S
C68 H79 0.931 . S
C69 C66 1.382 . S
C69 C67 1.392 . S
C70 Eu41 2.828 . S
C70 O54 1.249 . S
C70 O55 1.244 . S
C70 C64 1.505 . S
C71 O58 1.258 . S
C71 O59 1.242 . S
H72 C44 0.930 . S
H73 C45 0.930 . S
H74 C46 0.930 . S
H75 C47 0.930 . S
H76 C65 0.930 . S
H77 C66 0.930 . S
H78 C67 0.930 . S
H79 C68 0.931 . S
Eu80 C89 2.828 . S
Eu80 O91 2.392 . S
Eu80 O93 2.418 . S
Eu80 O98 2.373 . S
Eu80 O101 2.488 . S
Eu80 O102 2.471 . S
Eu80 O103 2.349 . S
Eu81 O90 2.373 . S
Eu81 O94 2.488 . S
Eu81 O95 2.471 . S
Eu81 O96 2.349 . S
Eu81 O99 2.392 . S
Eu81 O100 2.418 . S
Eu81 C110 2.828 . S
C82 O100 1.244 . S
C82 O103 1.265 . S
C83 C84 1.379 . S
C83 C87 1.373 1_545 S
C83 C89 1.505 . S
C84 C83 1.379 . S
C84 C86 1.369 1_545 S
C84 H112 0.930 . S
C85 C87 1.383 . S
C85 C88 1.382 . S
C85 H113 0.930 . S
C86 C84 1.369 1_565 S
C86 C88 1.392 . S
C86 H114 0.930 . S
C87 C83 1.373 1_565 S
C87 C85 1.383 . S
C87 H115 0.931 . S
C88 C85 1.382 . S
C88 C86 1.392 . S
C89 Eu80 2.828 . S
C89 C83 1.505 . S
C89 O101 1.249 . S
C89 O102 1.244 . S
O90 Eu81 2.373 . S
O90 C92 1.258 . S
O91 Eu80 2.392 . S
O91 C92 1.242 . S
C92 O90 1.258 . S
C92 O91 1.242 . S
O93 Eu80 2.418 . S
O93 C97 1.244 . S
O94 Eu81 2.488 . S
O94 C110 1.249 . S
O95 Eu81 2.471 . S
O95 C110 1.244 . S
O96 Eu81 2.349 . S
O96 C97 1.265 . S
C97 O93 1.244 . S
C97 O96 1.265 . S
O98 Eu80 2.373 . S
O98 C111 1.258 . S
O99 Eu81 2.392 . S
O99 C111 1.242 . S
O100 Eu81 2.418 . S
O100 C82 1.244 . S
O101 Eu80 2.488 . S
O101 C89 1.249 . S
O102 Eu80 2.471 . S
O102 C89 1.244 . S
O103 Eu80 2.349 . S
O103 C82 1.265 . S
C104 C105 1.379 . S
C104 C108 1.373 . S
C104 C110 1.505 . S
C105 C104 1.379 . S
C105 C107 1.369 . S
C105 H116 0.930 . S
C106 C108 1.383 . S
C106 C109 1.382 . S
C106 H117 0.930 . S
C107 C105 1.369 . S
C107 C109 1.392 . S
C107 H118 0.930 . S
C108 C104 1.373 . S
C108 C106 1.383 . S
C108 H119 0.931 . S
C109 C106 1.382 . S
C109 C107 1.392 . S
C110 Eu81 2.828 . S
C110 O94 1.249 . S
C110 O95 1.244 . S
C110 C104 1.505 . S
C111 O98 1.258 . S
C111 O99 1.242 . S
H112 C84 0.930 . S
H113 C85 0.930 . S
H114 C86 0.930 . S
H115 C87 0.931 . S
H116 C105 0.930 . S
H117 C106 0.930 . S
H118 C107 0.930 . S
H119 C108 0.931 . S
Eu120 C129 2.828 . S
Eu120 O131 2.392 . S
Eu120 O133 2.418 . S
Eu120 O138 2.373 . S
Eu120 O141 2.488 . S
Eu120 O142 2.471 . S
Eu120 O143 2.349 . S
Eu121 O130 2.373 . S
Eu121 O134 2.488 . S
Eu121 O135 2.471 . S
Eu121 O136 2.349 . S
Eu121 O139 2.392 . S
Eu121 O140 2.418 . S
Eu121 C150 2.828 . S
C122 O140 1.244 . S
C122 O143 1.265 . S
C123 C124 1.379 . S
C123 C127 1.373 . S
C123 C129 1.505 . S
C124 C123 1.379 . S
C124 C126 1.369 . S
C124 H152 0.930 . S
C125 C127 1.383 . S
C125 C128 1.382 . S
C125 H153 0.930 . S
C126 C124 1.369 . S
C126 C128 1.392 . S
C126 H154 0.930 . S
C127 C123 1.373 . S
C127 C125 1.383 . S
C127 H155 0.931 . S
C128 C125 1.382 . S
C128 C126 1.392 . S
C129 Eu120 2.828 . S
C129 C123 1.505 . S
C129 O141 1.249 . S
C129 O142 1.244 . S
O130 Eu121 2.373 . S
O130 C132 1.258 . S
O131 Eu120 2.392 . S
O131 C132 1.242 . S
C132 O130 1.258 . S
C132 O131 1.242 . S
O133 Eu120 2.418 . S
O133 C137 1.244 . S
O134 Eu121 2.488 . S
O134 C150 1.249 . S
O135 Eu121 2.471 . S
O135 C150 1.244 . S
O136 Eu121 2.349 . S
O136 C137 1.265 . S
C137 O133 1.244 . S
C137 O136 1.265 . S
O138 Eu120 2.373 . S
O138 C151 1.258 . S
O139 Eu121 2.392 . S
O139 C151 1.242 . S
O140 Eu121 2.418 . S
O140 C122 1.244 . S
O141 Eu120 2.488 . S
O141 C129 1.249 . S
O142 Eu120 2.471 . S
O142 C129 1.244 . S
O143 Eu120 2.349 . S
O143 C122 1.265 . S
C144 C145 1.379 . S
C144 C148 1.373 . S
C144 C150 1.505 . S
C145 C144 1.379 . S
C145 C147 1.369 . S
C145 H156 0.930 . S
C146 C148 1.383 . S
C146 C149 1.382 . S
C146 H157 0.930 . S
C147 C145 1.369 . S
C147 C149 1.392 . S
C147 H158 0.930 . S
C148 C144 1.373 . S
C148 C146 1.383 . S
C148 H159 0.931 . S
C149 C146 1.382 . S
C149 C147 1.392 . S
C150 Eu121 2.828 . S
C150 O134 1.249 . S
C150 O135 1.244 . S
C150 C144 1.505 . S
C151 O138 1.258 . S
C151 O139 1.242 . S
H152 C124 0.930 . S
H153 C125 0.930 . S
H154 C126 0.930 . S
H155 C127 0.931 . S
H156 C145 0.930 . S
H157 C146 0.930 . S
H158 C147 0.930 . S
H159 C148 0.931 . S
Eu160 C169 2.828 . S
Eu160 O171 2.392 . S
Eu160 O173 2.418 . S
Eu160 O178 2.373 . S
Eu160 O181 2.488 . S
Eu160 O182 2.471 . S
Eu160 O183 2.349 . S
Eu161 O170 2.373 . S
Eu161 O174 2.488 . S
Eu161 O175 2.471 . S
Eu161 O176 2.349 . S
Eu161 O179 2.392 . S
Eu161 O180 2.418 . S
Eu161 C190 2.828 . S
C162 O180 1.244 . S
C162 O183 1.265 . S
C163 C164 1.379 . S
C163 C167 1.373 . S
C163 C169 1.505 . S
C164 C163 1.379 . S
C164 C166 1.369 . S
C164 H192 0.930 . S
C165 C167 1.383 . S
C165 C168 1.382 . S
C165 H193 0.930 . S
C166 C164 1.369 . S
C166 C168 1.392 . S
C166 H194 0.930 . S
C167 C163 1.373 . S
C167 C165 1.383 . S
C167 H195 0.931 . S
C168 C165 1.382 . S
C168 C166 1.392 . S
C169 Eu160 2.828 . S
C169 C163 1.505 . S
C169 O181 1.249 . S
C169 O182 1.244 . S
O170 Eu161 2.373 . S
O170 C172 1.258 . S
O171 Eu160 2.392 . S
O171 C172 1.242 . S
C172 O170 1.258 . S
C172 O171 1.242 . S
O173 Eu160 2.418 . S
O173 C177 1.244 . S
O174 Eu161 2.488 . S
O174 C190 1.249 . S
O175 Eu161 2.471 . S
O175 C190 1.244 . S
O176 Eu161 2.349 . S
O176 C177 1.265 . S
C177 O173 1.244 . S
C177 O176 1.265 . S
O178 Eu160 2.373 . S
O178 C191 1.258 . S
O179 Eu161 2.392 . S
O179 C191 1.242 . S
O180 Eu161 2.418 . S
O180 C162 1.244 . S
O181 Eu160 2.488 . S
O181 C169 1.249 . S
O182 Eu160 2.471 . S
O182 C169 1.244 . S
O183 Eu160 2.349 . S
O183 C162 1.265 . S
C184 C185 1.379 . S
C184 C188 1.373 1_455 S
C184 C190 1.505 . S
C185 C184 1.379 . S
C185 C187 1.369 1_455 S
C185 H196 0.930 . S
C186 C188 1.383 . S
C186 C189 1.382 . S
C186 H197 0.930 . S
C187 C185 1.369 1_655 S
C187 C189 1.392 . S
C187 H198 0.930 . S
C188 C184 1.373 1_655 S
C188 C186 1.383 . S
C188 H199 0.931 . S
C189 C186 1.382 . S
C189 C187 1.392 . S
C190 Eu161 2.828 . S
C190 O174 1.249 . S
C190 O175 1.244 . S
C190 C184 1.505 . S
C191 O178 1.258 . S
C191 O179 1.242 . S
H192 C164 0.930 . S
H193 C165 0.930 . S
H194 C166 0.930 . S
H195 C167 0.931 . S
H196 C185 0.930 . S
H197 C186 0.930 . S
H198 C187 0.930 . S
H199 C188 0.931 . S
Eu200 C209 2.828 . S
Eu200 O211 2.392 . S
Eu200 O213 2.418 . S
Eu200 O218 2.373 . S
Eu200 O221 2.488 . S
Eu200 O222 2.471 . S
Eu200 O223 2.349 . S
Eu201 O210 2.373 . S
Eu201 O214 2.488 . S
Eu201 O215 2.471 . S
Eu201 O216 2.349 . S
Eu201 O219 2.392 . S
Eu201 O220 2.418 . S
Eu201 C230 2.828 . S
C202 O220 1.244 . S
C202 O223 1.265 . S
C203 C204 1.379 . S
C203 C207 1.373 . S
C203 C209 1.505 . S
C204 C203 1.379 . S
C204 C206 1.369 . S
C204 H232 0.930 . S
C205 C207 1.383 . S
C205 C208 1.382 . S
C205 H233 0.930 . S
C206 C204 1.369 . S
C206 C208 1.392 . S
C206 H234 0.930 . S
C207 C203 1.373 . S
C207 C205 1.383 . S
C207 H235 0.931 . S
C208 C205 1.382 . S
C208 C206 1.392 . S
C209 Eu200 2.828 . S
C209 C203 1.505 . S
C209 O221 1.249 . S
C209 O222 1.244 . S
O210 Eu201 2.373 . S
O210 C212 1.258 . S
O211 Eu200 2.392 . S
O211 C212 1.242 . S
C212 O210 1.258 . S
C212 O211 1.242 . S
O213 Eu200 2.418 . S
O213 C217 1.244 . S
O214 Eu201 2.488 . S
O214 C230 1.249 . S
O215 Eu201 2.471 . S
O215 C230 1.244 . S
O216 Eu201 2.349 . S
O216 C217 1.265 . S
C217 O213 1.244 . S
C217 O216 1.265 . S
O218 Eu200 2.373 . S
O218 C231 1.258 . S
O219 Eu201 2.392 . S
O219 C231 1.242 . S
O220 Eu201 2.418 . S
O220 C202 1.244 . S
O221 Eu200 2.488 . S
O221 C209 1.249 . S
O222 Eu200 2.471 . S
O222 C209 1.244 . S
O223 Eu200 2.349 . S
O223 C202 1.265 . S
C224 C225 1.379 . S
C224 C228 1.373 1_565 S
C224 C230 1.505 . S
C225 C224 1.379 . S
C225 C227 1.369 1_565 S
C225 H236 0.930 . S
C226 C228 1.383 . S
C226 C229 1.382 . S
C226 H237 0.930 . S
C227 C225 1.369 1_545 S
C227 C229 1.392 . S
C227 H238 0.930 . S
C228 C224 1.373 1_545 S
C228 C226 1.383 . S
C228 H239 0.930 . S
C229 C226 1.382 . S
C229 C227 1.392 . S
C230 Eu201 2.828 . S
C230 O214 1.249 . S
C230 O215 1.244 . S
C230 C224 1.505 . S
C231 O218 1.258 . S
C231 O219 1.242 . S
H232 C204 0.930 . S
H233 C205 0.930 . S
H234 C206 0.930 . S
H235 C207 0.931 . S
H236 C225 0.930 . S
H237 C226 0.930 . S
H238 C227 0.930 . S
H239 C228 0.930 . S
C240 C241 1.387 . S
C240 H244 0.950 . S
C240 C249 1.390 1_566 S
C241 C240 1.387 . S
C241 C243 1.387 . S
H242 C249 0.950 . S
C243 C241 1.387 . S
C243 C245 1.390 1_566 S
C243 H247 0.950 . S
H244 C240 0.950 . S
C245 C243 1.390 1_544 S
C245 C246 1.387 . S
C245 H248 0.950 . S
C246 C245 1.387 . S
C246 C249 1.387 . S
H247 C243 0.950 . S
H248 C245 0.950 . S
C249 C240 1.390 1_544 S
C249 H242 0.950 . S
C249 C246 1.387 . S
C250 C251 1.387 . S
C250 H254 0.950 . S
C250 C259 1.390 . S
C251 C250 1.387 . S
C251 C253 1.387 . S
H252 C259 0.950 . S
C253 C251 1.387 . S
C253 C255 1.390 . S
C253 H257 0.950 . S
H254 C250 0.950 . S
C255 C253 1.390 . S
C255 C256 1.387 . S
C255 H258 0.950 . S
C256 C255 1.387 . S
C256 C259 1.387 . S
H257 C253 0.950 . S
H258 C255 0.950 . S
C259 C250 1.390 . S
C259 H252 0.950 . S
C259 C256 1.387 . S
C260 C261 1.387 . S
C260 H264 0.950 . S
C260 C269 1.390 1_655 S
C261 C260 1.387 . S
C261 C263 1.387 1_554 S
H262 C269 0.950 . S
C263 C261 1.387 1_556 S
C263 C265 1.390 1_655 S
C263 H267 0.950 . S
H264 C260 0.950 . S
C265 C263 1.390 1_455 S
C265 C266 1.387 . S
C265 H268 0.950 . S
C266 C265 1.387 . S
C266 C269 1.387 1_556 S
H267 C263 0.950 . S
H268 C265 0.950 . S
C269 C260 1.390 1_455 S
C269 H262 0.950 . S
C269 C266 1.387 1_554 S
C270 C271 1.387 . S
C270 H274 0.950 . S
C270 C279 1.390 1_545 S
C271 C270 1.387 . S
C271 C273 1.387 . S
H272 C279 0.950 . S
C273 C271 1.387 . S
C273 C275 1.390 1_545 S
C273 H277 0.950 . S
H274 C270 0.950 . S
C275 C273 1.390 1_565 S
C275 C276 1.387 . S
C275 H278 0.950 . S
C276 C275 1.387 . S
C276 C279 1.387 . S
H277 C273 0.950 . S
H278 C275 0.950 . S
C279 C270 1.390 1_565 S
C279 H272 0.950 . S
C279 C276 1.387 . S
C280 C281 1.387 1_554 S
C280 H284 0.950 . S
C280 C289 1.390 . S
C281 C280 1.387 1_556 S
C281 C283 1.387 . S
H282 C289 0.950 . S
C283 C281 1.387 . S
C283 C285 1.390 . S
C283 H287 0.950 . S
H284 C280 0.950 . S
C285 C283 1.390 . S
C285 C286 1.387 1_556 S
C285 H288 0.950 . S
C286 C285 1.387 1_554 S
C286 C289 1.387 . S
H287 C283 0.950 . S
H288 C285 0.950 . S
C289 C280 1.390 . S
C289 H282 0.950 . S
C289 C286 1.387 . S
C290 C291 1.387 . S
C290 H294 0.950 . S
C290 C299 1.390 1_655 S
C291 C290 1.387 . S
C291 C293 1.387 . S
H292 C299 0.950 . S
C293 C291 1.387 . S
C293 C295 1.390 1_655 S
C293 H297 0.950 . S
H294 C290 0.950 . S
C295 C293 1.390 1_455 S
C295 C296 1.387 . S
C295 H298 0.950 . S
C296 C295 1.387 . S
C296 C299 1.387 . S
H297 C293 0.950 . S
H298 C295 0.950 . S
C299 C290 1.390 1_455 S
C299 H292 0.950 . S
C299 C296 1.387 . S
C300 C301 1.387 . S
C300 H304 0.950 . S
C300 C309 1.390 . S
C301 C300 1.387 . S
C301 C303 1.387 . S
H302 C309 0.950 . S
C303 C301 1.387 . S
C303 C305 1.390 . S
C303 H307 0.950 . S
H304 C300 0.950 . S
C305 C303 1.390 . S
C305 C306 1.387 . S
C305 H308 0.950 . S
C306 C305 1.387 . S
C306 C309 1.387 . S
H307 C303 0.950 . S
H308 C305 0.950 . S
C309 C300 1.390 . S
C309 H302 0.950 . S
C309 C306 1.387 . S
C310 C311 1.387 . S
C310 H314 0.950 . S
C310 C319 1.390 . S
C311 C310 1.387 . S
C311 C313 1.387 . S
H312 C319 0.950 . S
C313 C311 1.387 . S
C313 C315 1.390 . S
C313 H317 0.950 . S
H314 C310 0.950 . S
C315 C313 1.390 . S
C315 C316 1.387 . S
C315 H318 0.950 . S
C316 C315 1.387 . S
C316 C319 1.387 . S
H317 C313 0.950 . S
H318 C315 0.950 . S
C319 C310 1.390 . S
C319 H312 0.950 . S
C319 C316 1.387 . S
C320 C321 1.387 . S
C320 H324 0.950 . S
C320 C329 1.390 . S
C321 C320 1.387 . S
C321 C323 1.387 . S
H322 C329 0.950 . S
C323 C321 1.387 . S
C323 C325 1.390 . S
C323 H327 0.950 . S
H324 C320 0.950 . S
C325 C323 1.390 . S
C325 C326 1.387 . S
C325 H328 0.950 . S
C326 C325 1.387 . S
C326 C329 1.387 . S
H327 C323 0.950 . S
H328 C325 0.950 . S
C329 C320 1.390 . S
C329 H322 0.950 . S
C329 C326 1.387 . S
C330 C331 1.387 . S
C330 H334 0.950 . S
C330 C339 1.390 . S
C331 C330 1.387 . S
C331 C333 1.387 . S
H332 C339 0.950 . S
C333 C331 1.387 . S
C333 C335 1.390 . S
C333 H337 0.950 . S
H334 C330 0.950 . S
C335 C333 1.390 . S
C335 C336 1.387 . S
C335 H338 0.950 . S
C336 C335 1.387 . S
C336 C339 1.387 . S
H337 C333 0.950 . S
H338 C335 0.950 . S
C339 C330 1.390 . S
C339 H332 0.950 . S
C339 C336 1.387 . S
C340 C341 1.387 . S
C340 H344 0.950 . S
C340 C349 1.390 . S
C341 C340 1.387 . S
C341 C343 1.387 . S
H342 C349 0.950 . S
C343 C341 1.387 . S
C343 C345 1.390 . S
C343 H347 0.950 . S
H344 C340 0.950 . S
C345 C343 1.390 . S
C345 C346 1.387 . S
C345 H348 0.950 . S
C346 C345 1.387 . S
C346 C349 1.387 . S
H347 C343 0.950 . S
H348 C345 0.950 . S
C349 C340 1.390 . S
C349 H342 0.950 . S
C349 C346 1.387 . S
C350 C351 1.387 . S
C350 H354 0.950 . S
C350 C359 1.390 . S
C351 C350 1.387 . S
C351 C353 1.387 . S
H352 C359 0.950 . S
C353 C351 1.387 . S
C353 C355 1.390 . S
C353 H357 0.950 . S
H354 C350 0.950 . S
C355 C353 1.390 . S
C355 C356 1.387 . S
C355 H358 0.950 . S
C356 C355 1.387 . S
C356 C359 1.387 . S
H357 C353 0.950 . S
H358 C355 0.950 . S
C359 C350 1.390 . S
C359 H352 0.950 . S
C359 C356 1.387 . S
C360 C361 1.387 . S
C360 H364 0.950 . S
C360 C369 1.390 . S
C361 C360 1.387 . S
C361 C363 1.387 . S
H362 C369 0.950 . S
C363 C361 1.387 . S
C363 C365 1.390 . S
C363 H367 0.950 . S
H364 C360 0.950 . S
C365 C363 1.390 . S
C365 C366 1.387 . S
C365 H368 0.950 1_455 S
C366 C365 1.387 . S
C366 C369 1.387 . S
H367 C363 0.950 . S
H368 C365 0.950 1_655 S
C369 C360 1.390 . S
C369 H362 0.950 . S
C369 C366 1.387 . S
C370 C371 1.387 1_545 S
C370 H374 0.950 . S
C370 C379 1.390 . S
C371 C370 1.387 1_565 S
C371 C373 1.387 . S
H372 C379 0.950 . S
C373 C371 1.387 . S
C373 C375 1.390 . S
C373 H377 0.950 . S
H374 C370 0.950 . S
C375 C373 1.390 . S
C375 C376 1.387 . S
C375 H378 0.950 . S
C376 C375 1.387 . S
C376 C379 1.387 1_565 S
H377 C373 0.950 . S
H378 C375 0.950 . S
C379 C370 1.390 . S
C379 H372 0.950 . S
C379 C376 1.387 1_545 S
C380 C381 1.387 . S
C380 H384 0.950 . S
C380 C389 1.390 . S
C381 C380 1.387 . S
C381 C383 1.387 . S
H382 C389 0.950 . S
C383 C381 1.387 . S
C383 C385 1.390 . S
C383 H387 0.950 . S
H384 C380 0.950 . S
C385 C383 1.390 . S
C385 C386 1.387 . S
C385 H388 0.950 . S
C386 C385 1.387 . S
C386 C389 1.387 . S
H387 C383 0.950 . S
H388 C385 0.950 . S
C389 C380 1.390 . S
C389 H382 0.950 . S
C389 C386 1.387 . S
C390 C391 1.387 1_565 S
C390 H394 0.950 . S
C390 C399 1.390 . S
C391 C390 1.387 1_545 S
C391 C393 1.387 . S
H392 C399 0.950 . S
C393 C391 1.387 . S
C393 C395 1.390 . S
C393 H397 0.950 . S
H394 C390 0.950 . S
C395 C393 1.390 . S
C395 C396 1.387 . S
C395 H398 0.950 . S
C396 C395 1.387 . S
C396 C399 1.387 1_545 S
H397 C393 0.950 . S
H398 C395 0.950 . S
C399 C390 1.390 . S
C399 H392 0.950 . S
C399 C396 1.387 1_565 S
C400 C401 1.387 . S
C400 H404 0.950 . S
C400 C409 1.390 . S
C401 C400 1.387 . S
C401 C403 1.387 . S
H402 C409 0.950 . S
C403 C401 1.387 . S
C403 C405 1.390 . S
C403 H407 0.950 . S
H404 C400 0.950 . S
C405 C403 1.390 . S
C405 C406 1.387 . S
C405 H408 0.950 . S
C406 C405 1.387 . S
C406 C409 1.387 . S
H407 C403 0.950 . S
H408 C405 0.950 . S
C409 C400 1.390 . S
C409 H402 0.950 . S
C409 C406 1.387 . S
C410 C411 1.387 . S
C410 H414 0.950 . S
C410 C419 1.390 . S
C411 C410 1.387 . S
C411 C413 1.387 . S
H412 C419 0.950 . S
C413 C411 1.387 . S
C413 C415 1.390 . S
C413 H417 0.950 . S
H414 C410 0.950 . S
C415 C413 1.390 . S
C415 C416 1.387 . S
C415 H418 0.950 . S
C416 C415 1.387 . S
C416 C419 1.387 . S
H417 C413 0.950 . S
H418 C415 0.950 . S
C419 C410 1.390 . S
C419 H412 0.950 . S
C419 C416 1.387 . S
C241 C162 2.623 . S
C246 C2 2.385 . S
C251 C217 2.383 . S
C256 C57 2.622 . S
C261 C82 2.384 . S
C266 C122 2.622 . S
C271 C17 2.621 . S
C276 C177 2.382 . S
C281 C202 2.621 . S
C286 C42 2.382 . S
C291 C97 2.623 . S
C296 C137 2.385 . S
C301 C29 1.983 . S
C306 C92 1.910 . S
C311 C69 1.981 . S
C316 C12 1.907 . S
C321 C109 1.982 . S
C326 C52 1.910 . S
C331 C128 1.983 . S
C336 C191 1.910 . S
C341 C168 1.983 . S
C346 C231 1.910 . S
C351 C151 1.910 . S
C356 C208 1.982 . S
C361 C8 1.380 . S
C366 C111 1.504 1_455 S
C371 C48 1.386 . S
C376 C31 1.508 1_565 S
C381 C88 1.381 . S
C386 C71 1.504 . S
C391 C149 1.385 . S
C396 C172 1.507 1_545 S
C401 C189 1.381 . S
C406 C212 1.504 . S
C411 C132 1.504 1_655 S
C416 C229 1.381 . S
