# Generated by pormake.
# Topology zfl, (5)-cn, num edge types: 1
# Building blocks:
#     Node 0, Type 0, BuildingBlock: XOMCOT_clean_sbu_0, # of connection points: 5
#     Node 1, Type 0, BuildingBlock: XOMCOT_clean_sbu_0, # of connection points: 5
#     Node 2, Type 0, BuildingBlock: XOMCOT_clean_sbu_0, # of connection points: 5
#     Node 3, Type 0, BuildingBlock: XOMCOT_clean_sbu_0, # of connection points: 5
#     Node 4, Type 0, BuildingBlock: XOMCOT_clean_sbu_0, # of connection points: 5
#     Node 5, Type 0, BuildingBlock: XOMCOT_clean_sbu_0, # of connection points: 5
#     Node 6, Type 0, BuildingBlock: XOMCOT_clean_sbu_0, # of connection points: 5
#     Node 7, Type 0, BuildingBlock: XOMCOT_clean_sbu_0, # of connection points: 5
#     Node 8, Type 0, BuildingBlock: XOMCOT_clean_sbu_0, # of connection points: 5
#     Node 9, Type 0, BuildingBlock: XOMCOT_clean_sbu_0, # of connection points: 5
#     Node 10, Type 0, BuildingBlock: XOMCOT_clean_sbu_0, # of connection points: 5
#     Node 11, Type 0, BuildingBlock: XOMCOT_clean_sbu_0, # of connection points: 5
#     Node 12, Type 0, BuildingBlock: XOMCOT_clean_sbu_0, # of connection points: 5
#     Node 13, Type 0, BuildingBlock: XOMCOT_clean_sbu_0, # of connection points: 5
#     Node 14, Type 0, BuildingBlock: XOMCOT_clean_sbu_0, # of connection points: 5
#     Node 15, Type 0, BuildingBlock: XOMCOT_clean_sbu_0, # of connection points: 5
#     Edge 16, Type (0, 0), BuildingBlock: AJUNOK_clean_linker_0, # of connection points: 2
#     Edge 17, Type (0, 0), BuildingBlock: AJUNOK_clean_linker_0, # of connection points: 2
#     Edge 18, Type (0, 0), BuildingBlock: AJUNOK_clean_linker_0, # of connection points: 2
#     Edge 19, Type (0, 0), BuildingBlock: AJUNOK_clean_linker_0, # of connection points: 2
#     Edge 20, Type (0, 0), BuildingBlock: AJUNOK_clean_linker_0, # of connection points: 2
#     Edge 21, Type (0, 0), BuildingBlock: AJUNOK_clean_linker_0, # of connection points: 2
#     Edge 22, Type (0, 0), BuildingBlock: AJUNOK_clean_linker_0, # of connection points: 2
#     Edge 23, Type (0, 0), BuildingBlock: AJUNOK_clean_linker_0, # of connection points: 2
#     Edge 24, Type (0, 0), BuildingBlock: AJUNOK_clean_linker_0, # of connection points: 2
#     Edge 25, Type (0, 0), BuildingBlock: AJUNOK_clean_linker_0, # of connection points: 2
#     Edge 26, Type (0, 0), BuildingBlock: AJUNOK_clean_linker_0, # of connection points: 2
#     Edge 27, Type (0, 0), BuildingBlock: AJUNOK_clean_linker_0, # of connection points: 2
#     Edge 28, Type (0, 0), BuildingBlock: AJUNOK_clean_linker_0, # of connection points: 2
#     Edge 29, Type (0, 0), BuildingBlock: AJUNOK_clean_linker_0, # of connection points: 2
#     Edge 30, Type (0, 0), BuildingBlock: AJUNOK_clean_linker_0, # of connection points: 2
#     Edge 31, Type (0, 0), BuildingBlock: AJUNOK_clean_linker_0, # of connection points: 2
#     Edge 32, Type (0, 0), BuildingBlock: AJUNOK_clean_linker_0, # of connection points: 2
#     Edge 33, Type (0, 0), BuildingBlock: AJUNOK_clean_linker_0, # of connection points: 2
#     Edge 34, Type (0, 0), BuildingBlock: AJUNOK_clean_linker_0, # of connection points: 2
#     Edge 35, Type (0, 0), BuildingBlock: AJUNOK_clean_linker_0, # of connection points: 2
#     Edge 36, Type (0, 0), BuildingBlock: AJUNOK_clean_linker_0, # of connection points: 2
#     Edge 37, Type (0, 0), BuildingBlock: AJUNOK_clean_linker_0, # of connection points: 2
#     Edge 38, Type (0, 0), BuildingBlock: AJUNOK_clean_linker_0, # of connection points: 2
#     Edge 39, Type (0, 0), BuildingBlock: AJUNOK_clean_linker_0, # of connection points: 2
#     Edge 40, Type (0, 0), BuildingBlock: AJUNOK_clean_linker_0, # of connection points: 2
#     Edge 41, Type (0, 0), BuildingBlock: AJUNOK_clean_linker_0, # of connection points: 2
#     Edge 42, Type (0, 0), BuildingBlock: AJUNOK_clean_linker_0, # of connection points: 2
#     Edge 43, Type (0, 0), BuildingBlock: AJUNOK_clean_linker_0, # of connection points: 2
#     Edge 44, Type (0, 0), BuildingBlock: AJUNOK_clean_linker_0, # of connection points: 2
#     Edge 45, Type (0, 0), BuildingBlock: AJUNOK_clean_linker_0, # of connection points: 2
#     Edge 46, Type (0, 0), BuildingBlock: AJUNOK_clean_linker_0, # of connection points: 2
#     Edge 47, Type (0, 0), BuildingBlock: AJUNOK_clean_linker_0, # of connection points: 2
#     Edge 48, Type (0, 0), BuildingBlock: AJUNOK_clean_linker_0, # of connection points: 2
#     Edge 49, Type (0, 0), BuildingBlock: AJUNOK_clean_linker_0, # of connection points: 2
#     Edge 50, Type (0, 0), BuildingBlock: AJUNOK_clean_linker_0, # of connection points: 2
#     Edge 51, Type (0, 0), BuildingBlock: AJUNOK_clean_linker_0, # of connection points: 2
#     Edge 52, Type (0, 0), BuildingBlock: AJUNOK_clean_linker_0, # of connection points: 2
#     Edge 53, Type (0, 0), BuildingBlock: AJUNOK_clean_linker_0, # of connection points: 2
#     Edge 54, Type (0, 0), BuildingBlock: AJUNOK_clean_linker_0, # of connection points: 2
#     Edge 55, Type (0, 0), BuildingBlock: AJUNOK_clean_linker_0, # of connection points: 2
# Relax obj value: 0.249
# Max RMSD: 0.260
# Mean RMSD: 0.260
data_MOF--net-zfl--node1-XOMCOT_clean_sbu_0--edge1-AJUNOK_clean_linker_0
_symmetry_space_group_name_H-M    P1
_symmetry_Int_Tables_number       1
_symmetry_cell_setting            triclinic
loop_
_symmetry_equiv_pos_as_xyz
'x, y, z'
_cell_length_a     24.584168
_cell_length_b     24.577616
_cell_length_c     44.510041
_cell_angle_alpha  89.865013
_cell_angle_beta   89.927687
_cell_angle_gamma 89.912883
loop_
_atom_site_label
_atom_site_type_symbol
_atom_site_fract_x
_atom_site_fract_y
_atom_site_fract_z
_atom_type_partial_charge
Co0 Co 0.57795 0.11658 0.11414 0.0
C1 C 0.60567 1.00997 0.1366 0.0
C2 C 0.66107 0.0342 0.102 0.0
C3 C 0.66385 0.97865 0.10523 0.0
N4 N 0.62386 0.05392 0.12147 0.0
N5 N 0.62764 0.96323 0.12638 0.0
H6 H 0.57195 1.01175 0.1521 0.0
H7 H 0.67948 0.05745 0.08401 0.0
C8 C 0.68961 0.16402 0.12887 0.0
O9 O 0.70739 0.11573 0.13666 0.0
N10 N 0.52937 0.17738 0.10643 0.0
C11 C 0.4877 0.17913 0.0866 0.0
C12 C 0.45779 0.22526 0.09142 0.0
C13 C 0.52412 0.22313 0.12295 0.0
N14 N 0.48047 0.25263 0.11427 0.0
C15 C 0.50079 0.10829 0.16109 0.0
C16 C 0.57311 0.10308 0.20847 0.0
C17 C 0.51811 0.09084 0.21364 0.0
C18 C 0.48153 0.09555 0.18971 0.0
C19 C 0.59075 0.11599 0.17938 0.0
N20 N 0.55492 0.11654 0.15597 0.0
H21 H 0.47241 0.10863 0.14257 0.0
H22 H 0.6335 0.12208 0.17559 0.0
H23 H 0.4777 0.14862 0.07017 0.0
H24 H 0.5502 0.23339 0.14167 0.0
O25 O 0.52427 0.06643 0.09896 0.0
O26 O 0.58738 0.10604 0.07108 0.0
O27 O 0.6395 0.17103 0.12158 0.0
C28 C 0.54677 0.07202 0.07272 0.0
H29 H 0.68529 0.95132 0.09027 0.0
H30 H 0.42194 0.23785 0.07909 0.0
H31 H 0.60249 0.10095 0.22655 0.0
H32 H 0.43875 0.08654 0.19273 0.0
Co33 Co 0.4062 0.58112 0.61397 0.0
C34 C 0.51102 0.60685 0.63922 0.0
C35 C 0.48753 0.66749 0.60722 0.0
C36 C 0.54265 0.67137 0.61194 0.0
N37 N 0.46745 0.62684 0.62437 0.0
N38 N 0.55762 0.63238 0.63166 0.0
H39 H 0.50993 0.56901 0.65165 0.0
H40 H 0.4652 0.68794 0.58956 0.0
C41 C 0.35418 0.69079 0.63041 0.0
O42 O 0.40143 0.71023 0.63869 0.0
N43 N 0.34722 0.53225 0.60293 0.0
C44 C 0.35008 0.4914 0.58266 0.0
C45 C 0.3013 0.46515 0.58152 0.0
C46 C 0.29626 0.52914 0.61436 0.0
N47 N 0.26731 0.48905 0.60113 0.0
C48 C 0.41162 0.49974 0.65932 0.0
C49 C 0.41279 0.56956 0.70792 0.0
C50 C 0.42575 0.51456 0.71241 0.0
C51 C 0.42285 0.47905 0.68792 0.0
C52 C 0.40143 0.58855 0.67896 0.0
N53 N 0.40306 0.55408 0.65497 0.0
H54 H 0.41317 0.47258 0.64027 0.0
H55 H 0.39529 0.63148 0.67575 0.0
H56 H 0.38524 0.47952 0.56978 0.0
H57 H 0.28092 0.55503 0.63205 0.0
O58 O 0.45907 0.53034 0.59788 0.0
O59 O 0.41928 0.59607 0.57181 0.0
O60 O 0.34974 0.64087 0.62214 0.0
C61 C 0.45405 0.55601 0.57241 0.0
H62 H 0.57032 0.69558 0.59853 0.0
H63 H 0.29186 0.43012 0.56777 0.0
H64 H 0.41381 0.59808 0.72642 0.0
H65 H 0.43252 0.43628 0.69051 0.0
Co66 Co 0.94978 0.40154 0.11307 0.0
C67 C 0.91971 0.51058 0.12979 0.0
C68 C 0.85857 0.47532 0.10173 0.0
C69 C 0.85154 0.53078 0.10189 0.0
N70 N 0.90136 0.46248 0.11935 0.0
N71 N 0.89114 0.55292 0.11881 0.0
H72 H 0.95903 0.51508 0.14044 0.0
H73 H 0.83865 0.44732 0.08661 0.0
C74 C 0.84056 0.3488 0.13039 0.0
O75 O 0.82068 0.3957 0.13913 0.0
N76 N 1.00077 0.34225 0.10623 0.0
C77 C 0.04207 0.34118 0.08612 0.0
C78 C 0.0732 0.29583 0.09104 0.0
C79 C 1.00746 0.29683 0.12303 0.0
N80 N 0.05187 0.26839 0.11438 0.0
C81 C 0.02723 0.41399 0.15982 0.0
C82 C 0.95501 0.41818 0.20736 0.0
C83 C 1.00999 0.42995 0.21257 0.0
C84 C 0.04653 0.42614 0.18853 0.0
C85 C 0.9374 0.40587 0.17828 0.0
N86 N 0.97318 0.40511 0.1548 0.0
H87 H 0.05556 0.4139 0.14124 0.0
H88 H 0.89478 0.39957 0.1747 0.0
H89 H 0.05061 0.37141 0.06918 0.0
H90 H 0.98153 0.28573 0.14174 0.0
O91 O 1.00118 0.45305 0.09631 0.0
O92 O 0.93891 0.4091 0.07003 0.0
O93 O 0.89039 0.34496 0.12173 0.0
C94 C 0.97779 0.44513 0.07051 0.0
H95 H 0.82445 0.5534 0.08729 0.0
H96 H 0.10855 0.28352 0.07819 0.0
H97 H 0.92559 0.4199 0.22548 0.0
H98 H 0.08931 0.43503 0.19158 0.0
Co99 Co 0.1174 0.95051 0.61433 0.0
C100 C 1.00906 0.92222 0.63405 0.0
C101 C 0.04324 0.85884 0.60701 0.0
C102 C 0.98804 0.85128 0.60865 0.0
N103 N 0.05667 0.90325 0.62313 0.0
N104 N 0.96641 0.89205 0.62501 0.0
H105 H 1.00479 0.96253 0.64355 0.0
H106 H 0.07052 0.83773 0.59189 0.0
C107 C 0.16932 0.84197 0.63339 0.0
O108 O 0.12315 0.82486 0.64468 0.0
N109 N 0.17648 1.00022 0.60462 0.0
C110 C 0.17389 0.04254 0.58519 0.0
C111 C 0.2221 0.0699 0.58551 0.0
C112 C 0.22682 1.00312 0.6168 0.0
N113 N 0.25543 0.04537 0.60528 0.0
C114 C 0.10917 0.0323 0.65909 0.0
C115 C 0.10407 0.96433 0.70851 0.0
C116 C 0.09382 0.02 0.71236 0.0
C117 C 0.0978 0.05434 0.68732 0.0
C118 C 0.11579 0.944 0.67988 0.0
N119 N 0.11685 0.97764 0.65544 0.0
H120 H 0.10906 0.05898 0.63976 0.0
H121 H 0.12105 0.901 0.67747 0.0
H122 H 0.13925 0.05455 0.57192 0.0
H123 H 0.24207 0.97507 0.63357 0.0
O124 O 0.06523 1.00115 0.59749 0.0
O125 O 0.10673 0.93617 0.57181 0.0
O126 O 0.17389 0.89085 0.62322 0.0
C127 C 0.07137 0.97577 0.57211 0.0
H128 H 0.96494 0.8227 0.59531 0.0
H129 H 0.23163 0.10603 0.57258 0.0
H130 H 0.10143 0.93647 0.72735 0.0
H131 H 0.08933 0.09746 0.6892 0.0
Co132 Co 0.57615 0.40801 0.92508 0.0
C133 C 0.6023 0.51742 0.90671 0.0
C134 C 0.666 0.48438 0.93399 0.0
C135 C 0.67204 0.53989 0.93267 0.0
N136 N 0.62231 0.47012 0.9175 0.0
N137 N 0.63087 0.56073 0.91626 0.0
H138 H 0.56199 0.52082 0.89709 0.0
H139 H 0.68735 0.45742 0.9492 0.0
C140 C 0.68609 0.35819 0.90661 0.0
O141 O 0.70357 0.40523 0.89663 0.0
N142 N 0.52751 0.34748 0.93307 0.0
C143 C 0.48449 0.34696 0.95207 0.0
C144 C 0.45548 0.30011 0.94783 0.0
C145 C 0.52394 0.30038 0.9176 0.0
N146 N 0.48014 0.2711 0.92619 0.0
C147 C 0.49594 0.41783 0.87955 0.0
C148 C 0.56558 0.42376 0.83091 0.0
C149 C 0.51014 0.43468 0.82661 0.0
C150 C 0.47489 0.42981 0.85116 0.0
C151 C 0.58493 0.4115 0.85968 0.0
N152 N 0.55045 0.41014 0.88373 0.0
H153 H 0.46859 0.41722 0.89857 0.0
H154 H 0.62784 0.40595 0.86257 0.0
H155 H 0.47299 0.37889 0.9674 0.0
H156 H 0.55133 0.28889 0.89963 0.0
O157 O 0.52388 0.45823 0.94227 0.0
O158 O 0.58888 0.41672 0.96791 0.0
O159 O 0.63686 0.35291 0.91601 0.0
C160 C 0.54861 0.45132 0.96781 0.0
H161 H 0.69906 0.56356 0.9467 0.0
H162 H 0.41881 0.28823 0.95963 0.0
H163 H 0.59401 0.42632 0.81235 0.0
H164 H 0.4318 0.43799 0.84876 0.0
Co165 Co 0.11633 0.57853 0.42499 0.0
C166 C 1.00884 0.60643 0.40425 0.0
C167 C 0.04136 0.67001 0.43165 0.0
C168 C 0.98605 0.67675 0.42973 0.0
N169 N 0.05586 0.62584 0.41557 0.0
N170 N 0.96546 0.63578 0.41319 0.0
H171 H 1.0054 0.56605 0.39475 0.0
H172 H 0.06788 0.69122 0.44706 0.0
C173 C 0.16923 0.68646 0.40551 0.0
O174 O 0.12281 0.70372 0.3946 0.0
N175 N 0.17503 0.52858 0.43524 0.0
C176 C 0.17128 0.48548 0.45409 0.0
C177 C 0.22017 0.45914 0.45515 0.0
C178 C 0.22666 0.52702 0.42466 0.0
N179 N 0.25502 0.48529 0.43689 0.0
C180 C 0.10783 0.49672 0.38027 0.0
C181 C 0.10365 0.56509 0.33098 0.0
C182 C 0.09098 0.50997 0.32726 0.0
C183 C 0.0952 0.4752 0.35208 0.0
C184 C 0.1166 0.58485 0.35951 0.0
N185 N 0.11671 0.55116 0.38394 0.0
H186 H 0.10738 0.46996 0.39956 0.0
H187 H 0.12326 0.62762 0.36187 0.0
H188 H 0.1354 0.47228 0.46596 0.0
H189 H 0.24308 0.55549 0.40844 0.0
O190 O 0.06335 0.52847 0.44163 0.0
O191 O 0.10466 0.593 0.46748 0.0
O192 O 0.17324 0.63791 0.41627 0.0
C193 C 0.06908 0.55369 0.46707 0.0
H194 H 0.96214 0.70455 0.44323 0.0
H195 H 0.22914 0.42258 0.46785 0.0
H196 H 0.10164 0.59307 0.31217 0.0
H197 H 0.08578 0.43232 0.35007 0.0
Co198 Co 0.94388 0.11807 0.92577 0.0
C199 C 0.91887 1.00936 0.90619 0.0
C200 C 0.8536 0.04187 0.93246 0.0
C201 C 0.84861 0.98626 0.93172 0.0
N202 N 0.89777 0.05664 0.91639 0.0
N203 N 0.89089 0.96577 0.9161 0.0
H204 H 0.9595 1.0064 0.89688 0.0
H205 H 0.83144 0.0686 0.9474 0.0
C206 C 0.83474 0.17117 0.90774 0.0
O207 O 0.81536 0.12498 0.89777 0.0
N208 N 0.99227 0.17783 0.93604 0.0
C209 C 0.03043 0.17772 0.95789 0.0
C210 C 0.05762 0.22605 0.95744 0.0
C211 C 0.99749 0.22681 0.92237 0.0
N212 N 0.03706 0.25707 0.93525 0.0
C213 C 0.02488 0.11512 0.88019 0.0
C214 C 0.95555 0.10764 0.83158 0.0
C215 C 1.01151 0.1002 0.827 0.0
C216 C 0.04646 0.10539 0.85165 0.0
C217 C 0.93566 0.11775 0.8605 0.0
N218 N 0.97009 0.1201 0.8845 0.0
H219 H 0.05212 0.11581 0.89923 0.0
H220 H 0.89246 0.12037 0.86362 0.0
H221 H 0.03953 0.14488 0.97315 0.0
H222 H 0.97302 0.23978 0.9035 0.0
O223 O 0.99587 0.0663 0.94143 0.0
O224 O 0.93056 0.10461 0.96832 0.0
O225 O 0.88377 0.17427 0.91767 0.0
C226 C 0.97065 0.06979 0.96702 0.0
H227 H 0.82103 0.96249 0.94545 0.0
H228 H 0.09089 0.23722 0.97209 0.0
H229 H 0.9272 0.10382 0.81309 0.0
H230 H 0.08983 0.09894 0.84922 0.0
Co231 Co 0.40596 0.94599 0.42641 0.0
C232 C 0.51465 0.9183 0.408 0.0
C233 C 0.48303 0.85775 0.4379 0.0
C234 C 0.53861 0.85274 0.43693 0.0
N235 N 0.46779 0.89895 0.41966 0.0
N236 N 0.55854 0.89192 0.41876 0.0
H237 H 0.51723 0.9574 0.39682 0.0
H238 H 0.4566 0.83801 0.45402 0.0
C239 C 0.35529 0.83534 0.41027 0.0
O240 O 0.40287 0.81467 0.40351 0.0
N241 N 0.34584 0.99568 0.43367 0.0
C242 C 0.34529 0.03868 0.45261 0.0
C243 C 0.29885 0.06834 0.44796 0.0
C244 C 0.29917 0.99989 0.41784 0.0
N245 N 0.27015 0.04407 0.42613 0.0
C246 C 0.41471 0.02366 0.37961 0.0
C247 C 0.42568 0.95136 0.33254 0.0
C248 C 0.43542 1.00687 0.32741 0.0
C249 C 0.42798 0.04334 0.35114 0.0
C250 C 0.41189 0.93333 0.36143 0.0
N251 N 0.40809 0.96926 0.38468 0.0
H252 H 0.41258 0.05204 0.39807 0.0
H253 H 0.4076 0.89033 0.36531 0.0
H254 H 0.37684 0.0496 0.46827 0.0
H255 H 0.28777 0.97264 0.39987 0.0
O256 O 0.45666 0.99857 0.44213 0.0
O257 O 0.41518 0.93601 0.46961 0.0
O258 O 0.35041 0.88559 0.41792 0.0
C259 C 0.45052 0.97556 0.46819 0.0
H260 H 0.56282 0.82793 0.45198 0.0
H261 H 0.28691 0.105 0.45972 0.0
H262 H 0.43033 0.922 0.31461 0.0
H263 H 0.43525 0.08647 0.34812 0.0
Co264 Co 0.4433 0.90688 0.92611 0.0
C265 C 0.42031 1.01168 0.90012 0.0
C266 C 0.35795 0.98951 0.93135 0.0
C267 C 0.35609 0.04489 0.92703 0.0
N268 N 0.39867 0.96849 0.9146 0.0
N269 N 0.39651 0.05894 0.90808 0.0
H270 H 0.45786 1.00937 0.88753 0.0
H271 H 0.33625 0.96751 0.9487 0.0
C272 C 0.33363 0.85544 0.90939 0.0
O273 O 0.31418 0.90263 0.90078 0.0
N274 N 0.49065 0.84726 0.93828 0.0
C275 C 0.52754 0.84804 0.96081 0.0
C276 C 0.55476 0.79964 0.9615 0.0
C277 C 0.49678 0.79788 0.92531 0.0
N278 N 0.53522 0.76794 0.93947 0.0
C279 C 0.52618 0.90878 0.88154 0.0
C280 C 0.45803 0.91178 0.8322 0.0
C281 C 0.51371 0.92178 0.82809 0.0
C282 C 0.54817 0.91851 0.85307 0.0
C283 C 0.43773 0.90161 0.86105 0.0
N284 N 0.47149 0.90211 0.88538 0.0
H285 H 0.55273 0.90987 0.90087 0.0
H286 H 0.39448 0.89737 0.86394 0.0
H287 H 0.53598 0.88143 0.97571 0.0
H288 H 0.47408 0.78437 0.90591 0.0
O289 O 0.4946 0.95912 0.94206 0.0
O290 O 0.42727 0.92201 0.96795 0.0
O291 O 0.38335 0.85107 0.91798 0.0
C292 C 0.46773 0.95624 0.96722 0.0
H293 H 0.33208 0.07322 0.94012 0.0
H294 H 0.5875 0.78898 0.97667 0.0
H295 H 0.43012 0.91396 0.81342 0.0
H296 H 0.59128 0.92672 0.85094 0.0
Co297 Co 0.61703 0.45072 0.42524 0.0
C298 C 0.50873 0.42365 0.40593 0.0
C299 C 0.5424 0.35922 0.43248 0.0
C300 C 0.48686 0.35339 0.43183 0.0
N301 N 0.55636 0.40345 0.4162 0.0
N302 N 0.46565 0.39514 0.41601 0.0
H303 H 0.5051 0.46412 0.39644 0.0
H304 H 0.56959 0.33762 0.44744 0.0
C305 C 0.67125 0.34225 0.40735 0.0
O306 O 0.62537 0.32312 0.39679 0.0
N307 N 0.67589 0.50045 0.43517 0.0
C308 C 0.67384 0.54111 0.45556 0.0
C309 C 0.7218 0.56887 0.45514 0.0
C310 C 0.72565 0.5048 0.42234 0.0
N311 N 0.75452 0.54622 0.43441 0.0
C312 C 0.61199 0.53173 0.37986 0.0
C313 C 0.60299 0.4629 0.33116 0.0
C314 C 0.59446 0.51884 0.32691 0.0
C315 C 0.60048 0.55352 0.35158 0.0
C316 C 0.61498 0.44277 0.35986 0.0
N317 N 0.61794 0.47694 0.38393 0.0
H318 H 0.61302 0.55879 0.39894 0.0
H319 H 0.61844 0.39957 0.36279 0.0
H320 H 0.63979 0.55171 0.46964 0.0
H321 H 0.74018 0.47845 0.40464 0.0
O322 O 0.56454 0.50182 0.44084 0.0
O323 O 0.60448 0.43761 0.4679 0.0
O324 O 0.67405 0.39128 0.41731 0.0
C325 C 0.56907 0.47717 0.46656 0.0
H326 H 0.46359 0.32566 0.44573 0.0
H327 H 0.73159 0.60395 0.46878 0.0
H328 H 0.59863 0.43476 0.31262 0.0
H329 H 0.59325 0.59684 0.34943 0.0
Co330 Co 0.07532 0.61691 0.92429 0.0
C331 C 0.10221 0.5097 0.90282 0.0
C332 C 0.1659 0.54083 0.93061 0.0
C333 C 0.17152 0.48539 0.92872 0.0
N334 N 0.12227 0.55633 0.91434 0.0
N335 N 0.1304 0.46566 0.91197 0.0
H336 H 0.06185 0.50706 0.89319 0.0
H337 H 0.18716 0.56672 0.94632 0.0
C338 C 0.18414 0.66962 0.90675 0.0
O339 O 0.20177 0.62379 0.8953 0.0
N340 N 0.02574 0.67558 0.93505 0.0
C341 C 0.98309 0.67168 0.95417 0.0
C342 C 0.95669 0.72051 0.95541 0.0
C343 C 0.02387 0.72728 0.92452 0.0
N344 N 0.98238 0.75554 0.93703 0.0
C345 C 0.99422 0.61107 0.87914 0.0
C346 C 0.06344 0.60592 0.8303 0.0
C347 C 1.0083 0.5935 0.82629 0.0
C348 C 0.97313 0.5984 0.85088 0.0
C349 C 0.08283 0.61886 0.85893 0.0
N350 N 0.04868 0.61926 0.88314 0.0
H351 H 0.96713 0.61084 0.89827 0.0
H352 H 0.12567 0.62498 0.86165 0.0
H353 H 0.97022 0.6357 0.96608 0.0
H354 H 0.0519 0.74377 0.9081 0.0
O355 O 0.02459 0.56377 0.9398 0.0
O356 O 0.089 0.60304 0.96674 0.0
O357 O 0.13506 0.67376 0.9166 0.0
C358 C 0.04966 0.56754 0.96539 0.0
H359 H 0.19829 0.46087 0.94255 0.0
H360 H 0.9203 0.72927 0.96827 0.0
H361 H 0.09175 0.60352 0.81168 0.0
H362 H 0.93023 0.58921 0.84868 0.0
Co363 Co 0.90561 0.08025 0.42544 0.0
C364 C 1.0108 0.10362 0.39984 0.0
C365 C 0.98843 0.16486 0.43162 0.0
C366 C 0.0437 0.16727 0.42714 0.0
N367 N 0.96762 0.1246 0.41457 0.0
N368 N 0.0579 0.12758 0.40782 0.0
H369 H 1.00873 0.06635 0.38703 0.0
H370 H 0.96631 0.186 0.4491 0.0
C371 C 0.85654 0.19136 0.40927 0.0
O372 O 0.90371 0.20854 0.39937 0.0
N373 N 0.84552 0.03314 0.4371 0.0
C374 C 0.84706 0.99364 0.45831 0.0
C375 C 0.79847 0.96713 0.45894 0.0
C376 C 0.79528 0.02937 0.42486 0.0
N377 N 0.76585 0.98933 0.43803 0.0
C378 C 0.90677 0.99906 0.38014 0.0
C379 C 0.91235 0.0686 0.33136 0.0
C380 C 0.92296 0.01305 0.32707 0.0
C381 C 0.91776 0.97783 0.35167 0.0
C382 C 0.90096 0.08816 0.36022 0.0
N383 N 0.90053 0.05375 0.38435 0.0
H384 H 0.90682 0.97184 0.39924 0.0
H385 H 0.89657 0.13131 0.36326 0.0
H386 H 0.88112 0.98274 0.47226 0.0
H387 H 0.7808 0.05511 0.40679 0.0
O388 O 0.95715 0.02727 0.44047 0.0
O389 O 0.92147 0.09364 0.46762 0.0
O390 O 0.85064 0.14184 0.4181 0.0
C391 C 0.95479 0.05235 0.46612 0.0
H392 H 0.07196 0.19103 0.44034 0.0
H393 H 0.78826 0.93295 0.47326 0.0
H394 H 0.91512 0.09701 0.31278 0.0
H395 H 0.92554 0.93466 0.34928 0.0
Co396 Co 0.4424 0.61671 0.11448 0.0
C397 C 0.41889 0.51147 0.1398 0.0
C398 C 0.35852 0.53348 0.10737 0.0
C399 C 0.35641 0.47816 0.11187 0.0
N400 N 0.39822 0.5544 0.12472 0.0
N401 N 0.39559 0.46417 0.13163 0.0
H402 H 0.4551 0.51411 0.15342 0.0
H403 H 0.33766 0.55554 0.08974 0.0
C404 C 0.33109 0.66592 0.13055 0.0
O405 O 0.31333 0.61888 0.14044 0.0
N406 N 0.48887 0.67769 0.10391 0.0
C407 C 0.52592 0.6801 0.08147 0.0
C408 C 0.55621 0.72644 0.08451 0.0
C409 C 0.49701 0.72335 0.12013 0.0
N410 N 0.53827 0.75332 0.10884 0.0
C411 C 0.52298 0.61463 0.15989 0.0
C412 C 0.45394 0.61047 0.20885 0.0
C413 C 0.50975 0.60131 0.21321 0.0
C414 C 0.54454 0.60498 0.18838 0.0
C415 C 0.43399 0.62058 0.17989 0.0
N416 N 0.46829 0.62082 0.15574 0.0
H417 H 0.55009 0.61418 0.14075 0.0
H418 H 0.39079 0.62451 0.17683 0.0
H419 H 0.5325 0.64988 0.0644 0.0
H420 H 0.47499 0.73307 0.14051 0.0
O421 O 0.4962 0.56603 0.09942 0.0
O422 O 0.43012 0.60165 0.07206 0.0
O423 O 0.38057 0.671 0.12162 0.0
C424 C 0.47157 0.56851 0.07365 0.0
H425 H 0.33304 0.44979 0.09854 0.0
H426 H 0.58924 0.73934 0.07004 0.0
H427 H 0.42574 0.60791 0.22752 0.0
H428 H 0.58774 0.59729 0.19063 0.0
Co429 Co 0.90341 0.44555 0.61347 0.0
C430 C 0.0139 0.42291 0.63139 0.0
C431 C 0.98269 0.35842 0.60419 0.0
C432 C 0.03838 0.35443 0.60485 0.0
N433 N 0.96708 0.4013 0.62102 0.0
N434 N 0.058 0.39617 0.62114 0.0
H435 H 0.01599 0.46304 0.64132 0.0
H436 H 0.95625 0.33635 0.58912 0.0
C437 C 0.85663 0.33324 0.6305 0.0
O438 O 0.90402 0.3164 0.64028 0.0
N439 N 0.84108 0.49215 0.60525 0.0
C440 C 0.83597 0.52853 0.58255 0.0
C441 C 0.79009 0.55909 0.58702 0.0
C442 C 0.79714 0.50071 0.62297 0.0
N443 N 0.76617 0.54198 0.61247 0.0
C444 C 0.90928 0.52396 0.66 0.0
C445 C 0.91775 0.45253 0.70777 0.0
C446 C 0.92731 0.50806 0.71269 0.0
C447 C 0.92105 0.54414 0.68856 0.0
C448 C 0.90586 0.43402 0.6788 0.0
N449 N 0.90325 0.46944 0.65517 0.0
H450 H 0.90758 0.55209 0.64132 0.0
H451 H 0.90171 0.39107 0.67539 0.0
H452 H 0.8638 0.53418 0.56408 0.0
H453 H 0.7892 0.47883 0.64365 0.0
O454 O 0.95203 0.50053 0.59785 0.0
O455 O 0.91517 0.43547 0.57044 0.0
O456 O 0.8502 0.38262 0.62143 0.0
C457 C 0.94847 0.47674 0.57193 0.0
H458 H 0.06271 0.32805 0.59073 0.0
H459 H 0.7753 0.59156 0.57269 0.0
H460 H 0.92114 0.42341 0.72597 0.0
H461 H 0.92806 0.58733 0.69137 0.0
Co462 Co 0.07071 0.90394 0.1147 0.0
C463 C 0.10163 1.00861 0.13866 0.0
C464 C 0.15996 0.98163 0.10625 0.0
C465 C 0.16714 0.03645 0.11083 0.0
N466 N 0.11886 0.96392 0.12386 0.0
N467 N 0.12967 0.05361 0.13085 0.0
H468 H 0.06418 1.00969 0.15144 0.0
H469 H 0.17886 0.95795 0.08862 0.0
C470 C 0.17919 0.84993 0.13081 0.0
O471 O 0.1994 0.89662 0.13943 0.0
N472 N 0.01969 0.84622 0.10478 0.0
C473 C 0.97584 0.851 0.08659 0.0
C474 C 0.94954 0.80219 0.08515 0.0
C475 C 0.01855 0.79411 0.11465 0.0
N476 N 0.97638 0.76652 0.10259 0.0
C477 C 0.99032 0.91315 0.16032 0.0
C478 C 0.06025 0.91466 0.20887 0.0
C479 C 1.00534 0.92819 0.21334 0.0
C480 C 0.96987 0.92532 0.18882 0.0
C481 C 0.079 0.90213 0.17997 0.0
N482 N 0.04446 0.90339 0.15598 0.0
H483 H 0.96305 0.91468 0.14132 0.0
H484 H 0.1218 0.89503 0.17676 0.0
H485 H 0.96237 0.88741 0.07525 0.0
H486 H 0.0478 0.77668 0.13007 0.0
O487 O 0.02134 0.95796 0.09839 0.0
O488 O 0.08468 0.91494 0.07222 0.0
O489 O 0.12902 0.84587 0.12302 0.0
C490 C 0.04582 0.95106 0.07273 0.0
H491 H 0.19265 0.06271 0.09729 0.0
H492 H 0.91284 0.79364 0.07259 0.0
H493 H 0.08881 0.91567 0.22737 0.0
H494 H 0.92722 0.93551 0.19132 0.0
Co495 Co 0.61664 0.07467 0.61547 0.0
C496 C 0.50956 0.10426 0.63594 0.0
C497 C 0.54326 0.16736 0.60845 0.0
C498 C 0.48794 0.17454 0.60998 0.0
N499 N 0.55702 0.12313 0.62478 0.0
N500 N 0.46662 0.13384 0.62658 0.0
H501 H 0.50556 0.06395 0.64558 0.0
H502 H 0.57025 0.18814 0.59303 0.0
C503 C 0.67214 0.18183 0.6339 0.0
O504 O 0.6263 0.20126 0.64449 0.0
N505 N 0.67441 0.02364 0.60537 0.0
C506 C 0.6709 0.98178 0.58581 0.0
C507 C 0.71863 0.95338 0.58596 0.0
C508 C 0.72469 0.01937 0.61746 0.0
N509 N 0.75255 0.97685 0.60573 0.0
C510 C 0.60916 0.99273 0.66038 0.0
C511 C 0.6043 0.06069 0.70966 0.0
C512 C 0.59471 1.00491 0.71369 0.0
C513 C 0.59853 0.97062 0.68872 0.0
C514 C 0.61551 0.08109 0.68092 0.0
N515 N 0.61655 0.04739 0.65659 0.0
H516 H 0.60875 0.96608 0.64111 0.0
H517 H 0.62021 0.12421 0.67824 0.0
H518 H 0.63596 0.97083 0.57254 0.0
H519 H 0.74034 0.04658 0.6344 0.0
O520 O 0.56289 0.02552 0.59897 0.0
O521 O 0.60557 0.0894 0.573 0.0
O522 O 0.67476 0.13272 0.62398 0.0
C523 C 0.56935 0.0507 0.57349 0.0
H524 H 0.46459 0.20244 0.59621 0.0
H525 H 0.72742 0.91739 0.57283 0.0
H526 H 0.60156 0.08851 0.72844 0.0
H527 H 0.59046 0.92745 0.69076 0.0
C528 C 0.45202 0.09225 0.25663 0.0
C529 C 0.49886 0.07001 0.24317 0.0
C530 C 0.43147 0.07135 0.28372 0.0
C531 C 0.4565 0.02688 0.29812 0.0
H532 H 0.43121 0.12625 0.24619 0.0
H533 H 0.3955 0.08989 0.29339 0.0
S534 S 0.58007 0.95389 0.27223 0.0
N535 N 0.56943 1.00076 0.24623 0.0
N536 N 0.53116 0.96196 0.29729 0.0
C537 C 0.50333 1.00426 0.28493 0.0
C538 C 0.52448 0.02576 0.25747 0.0
C539 C 0.44456 0.42989 0.78343 0.0
C540 C 0.48955 0.4548 0.79725 0.0
C541 C 0.42394 0.44937 0.75599 0.0
C542 C 0.44689 0.49512 0.74178 0.0
H543 H 0.4255 0.39482 0.79378 0.0
H544 H 0.38955 0.42881 0.74595 0.0
S545 S 0.56477 0.57521 0.7689 0.0
N546 N 0.55596 0.52785 0.79481 0.0
N547 N 0.51742 0.56427 0.74335 0.0
C548 C 0.4917 0.52046 0.75546 0.0
C549 C 0.51299 0.50034 0.78315 0.0
C550 C 0.07458 0.42557 0.25624 0.0
C551 C 0.02892 0.44945 0.24238 0.0
C552 C 0.09431 0.44497 0.28382 0.0
C553 C 0.0697 0.4896 0.29819 0.0
H554 H 0.09509 0.39152 0.24571 0.0
H555 H 0.1295 0.42545 0.29378 0.0
S556 S 0.94892 0.56622 0.27146 0.0
N557 N 0.95963 0.51997 0.24524 0.0
N558 N 0.99657 0.5562 0.297 0.0
C559 C 0.02392 0.51363 0.28466 0.0
C560 C 1.00354 0.4936 0.25679 0.0
C561 C 0.02983 0.0164 0.75606 0.0
C562 C 0.07441 0.04127 0.74173 0.0
C563 C 1.00922 0.03648 0.78326 0.0
C564 C 0.03269 0.08192 0.79737 0.0
H565 H 1.01026 0.98146 0.74597 0.0
H566 H 0.97513 0.01567 0.79358 0.0
S567 S 0.15007 0.16177 0.76912 0.0
N568 N 0.14138 0.11381 0.74363 0.0
N569 N 0.10266 0.15153 0.79484 0.0
C570 C 0.07731 0.10717 0.78332 0.0
C571 C 0.09804 0.08697 0.75545 0.0
C572 C 0.5102 0.98601 0.78446 0.0
C573 C 0.53478 0.94101 0.7986 0.0
C574 C 0.53057 1.00695 0.75735 0.0
C575 C 0.57595 0.98333 0.74315 0.0
H576 H 0.47536 1.00575 0.79467 0.0
H577 H 0.51011 0.04146 0.74719 0.0
S578 S 0.65483 0.86464 0.77078 0.0
N579 N 0.6069 0.87341 0.79637 0.0
N580 N 0.64497 0.91255 0.74525 0.0
C581 C 0.60078 0.93815 0.75695 0.0
C582 C 0.58035 0.91716 0.78474 0.0
C583 C 0.52854 0.51688 0.28409 0.0
C584 C 0.5745 0.54038 0.29768 0.0
C585 C 0.5071 0.53783 0.25725 0.0
C586 C 0.53109 0.58276 0.24277 0.0
H587 H 0.50852 0.48241 0.29452 0.0
H588 H 0.47204 0.51801 0.24744 0.0
S589 S 0.65209 0.659 0.26903 0.0
N590 N 0.64336 0.61102 0.29463 0.0
N591 N 0.60308 0.65038 0.24414 0.0
C592 C 0.57707 0.60664 0.25609 0.0
C593 C 0.59867 0.58555 0.28356 0.0
C594 C 0.94269 0.59475 0.78305 0.0
C595 C 0.98818 0.57147 0.79731 0.0
C596 C 0.92289 0.5738 0.75583 0.0
C597 C 0.94726 0.5282 0.74219 0.0
H598 H 0.92266 0.62978 0.79284 0.0
H599 H 0.8881 0.59329 0.74544 0.0
S600 S 0.06647 0.45145 0.77106 0.0
N601 N 0.05614 0.49958 0.79625 0.0
N602 N 0.01938 0.46054 0.7451 0.0
C603 C 0.9924 0.50422 0.75646 0.0
C604 C 0.01276 0.5258 0.78398 0.0
C605 C 0.93923 0.92674 0.25654 0.0
C606 C 0.98563 0.94925 0.24274 0.0
C607 C 0.91901 0.94754 0.28377 0.0
C608 C 0.94376 0.99236 0.29783 0.0
H609 H 0.91864 0.89256 0.24629 0.0
H610 H 0.88348 0.92875 0.29377 0.0
S611 S 0.06589 0.06632 0.27074 0.0
N612 N 0.0554 0.01905 0.2451 0.0
N613 N 0.01754 0.05802 0.29613 0.0
C614 C 0.99003 0.01531 0.28419 0.0
C615 C 1.01093 0.99377 0.25671 0.0
C616 C 0.71006 0.2643 0.13237 0.0
C617 C 0.7286 0.21055 0.12892 0.0
C618 C 0.74663 0.30825 0.13312 0.0
C619 C 0.80339 0.30061 0.13001 0.0
H620 H 0.66698 0.27252 0.13488 0.0
H621 H 0.72994 0.34874 0.13592 0.0
S622 S 0.87256 0.16787 0.11868 0.0
N623 N 0.8075 0.15222 0.12136 0.0
N624 N 0.87581 0.2346 0.12242 0.0
C625 C 0.82233 0.24706 0.12604 0.0
C626 C 0.78513 0.20222 0.12561 0.0
C627 C 0.26991 0.82171 0.63215 0.0
C628 C 0.21592 0.80302 0.63209 0.0
C629 C 0.31399 0.78508 0.63178 0.0
C630 C 0.30608 0.72814 0.63078 0.0
H631 H 0.27828 0.86495 0.63296 0.0
H632 H 0.35473 0.80178 0.63207 0.0
S633 S 0.17246 0.65821 0.62864 0.0
N634 N 0.15696 0.72353 0.63002 0.0
N635 N 0.23951 0.65534 0.62889 0.0
C636 C 0.25223 0.70904 0.63009 0.0
C637 C 0.20734 0.74624 0.63088 0.0
C638 C 0.74109 0.21266 0.90768 0.0
C639 C 0.7981 0.21974 0.90775 0.0
C640 C 0.70516 0.25731 0.90765 0.0
C641 C 0.72463 0.3111 0.90709 0.0
H642 H 0.72384 0.17213 0.90795 0.0
H643 H 0.66179 0.24952 0.90768 0.0
S644 S 0.87032 0.35216 0.9072 0.0
N645 N 0.87207 0.28505 0.90758 0.0
N646 N 0.80522 0.36877 0.90704 0.0
C647 C 0.78161 0.31878 0.90716 0.0
C648 C 0.8181 0.27327 0.90765 0.0
C649 C 0.26733 0.70823 0.41748 0.0
C650 C 0.21662 0.72483 0.40592 0.0
C651 C 0.31172 0.7443 0.41878 0.0
C652 C 0.30713 0.7988 0.4091 0.0
H653 H 0.27294 0.66705 0.42563 0.0
H654 H 0.3499 0.72949 0.4278 0.0
S655 S 0.18548 0.86226 0.37476 0.0
N656 N 0.16605 0.79969 0.38291 0.0
N657 N 0.24916 0.86683 0.38613 0.0
C658 C 0.25715 0.81596 0.39731 0.0
C659 C 0.2121 0.77918 0.39549 0.0
C660 C 0.20341 0.77043 0.9074 0.0
C661 C 0.22257 0.71652 0.90821 0.0
C662 C 0.23964 0.81475 0.9076 0.0
C663 C 0.29659 0.80719 0.90917 0.0
H664 H 0.16014 0.7785 0.90607 0.0
H665 H 0.22263 0.8554 0.9067 0.0
S666 S 0.36754 0.67398 0.91369 0.0
N667 N 0.30241 0.65808 0.91179 0.0
N668 N 0.36989 0.74105 0.91262 0.0
C669 C 0.31613 0.75344 0.9107 0.0
C670 C 0.27934 0.70831 0.91008 0.0
C671 C 0.75604 0.21161 0.40717 0.0
C672 C 0.80985 0.23033 0.4096 0.0
C673 C 0.71191 0.24815 0.40629 0.0
C674 C 0.71947 0.30503 0.40836 0.0
H675 H 0.74791 0.16842 0.4054 0.0
H676 H 0.67138 0.23141 0.40416 0.0
S677 S 0.85227 0.37497 0.41677 0.0
N678 N 0.86813 0.30974 0.41505 0.0
N679 N 0.78539 0.37782 0.41393 0.0
C680 C 0.77304 0.32416 0.41147 0.0
C681 C 0.81807 0.28704 0.41192 0.0
C682 C 0.20217 0.75172 0.14131 0.0
C683 C 0.21664 0.80247 0.12919 0.0
C684 C 0.23952 0.70816 0.14182 0.0
C685 C 0.29264 0.71331 0.12985 0.0
H686 H 0.16225 0.74605 0.15116 0.0
H687 H 0.22652 0.67016 0.15186 0.0
S688 S 0.34716 0.83625 0.0917 0.0
N689 N 0.2857 0.85444 0.1028 0.0
N690 N 0.35528 0.7728 0.10309 0.0
C691 C 0.30663 0.76357 0.11668 0.0
C692 C 0.26883 0.80797 0.11652 0.0
C693 C 0.71243 0.27595 0.63445 0.0
C694 C 0.72026 0.21905 0.63262 0.0
C695 C 0.75631 0.31261 0.63319 0.0
C696 C 0.81021 0.29405 0.6306 0.0
H697 H 0.67182 0.29264 0.63666 0.0
H698 H 0.74792 0.3558 0.63479 0.0
S699 S 0.8534 0.14938 0.62403 0.0
N700 N 0.78656 0.14637 0.62716 0.0
N701 N 0.8689 0.21469 0.62534 0.0
C702 C 0.81873 0.2373 0.62855 0.0
C703 C 0.77392 0.20003 0.62938 0.0
C704 C 0.61648 0.81207 0.11969 0.0
C705 C 0.55995 0.80372 0.11969 0.0
C706 C 0.63843 0.86385 0.12433 0.0
C707 C 0.60465 0.90936 0.12868 0.0
H708 H 0.64377 0.77859 0.11484 0.0
H709 H 0.68212 0.86889 0.12296 0.0
S710 S 0.45332 0.90729 0.13273 0.0
N711 N 0.47069 0.84335 0.12679 0.0
N712 N 0.51098 0.94134 0.13428 0.0
C713 C 0.54785 0.90072 0.13046 0.0
C714 C 0.52576 0.84765 0.12626 0.0
C715 C 0.67101 0.53002 0.62767 0.0
C716 C 0.71663 0.56363 0.62452 0.0
C717 C 0.61919 0.55251 0.63208 0.0
C718 C 0.61153 0.60943 0.6338 0.0
H719 H 0.67492 0.48653 0.62439 0.0
H720 H 0.58473 0.5252 0.63195 0.0
S721 S 0.72032 0.71355 0.63223 0.0
N722 N 0.75259 0.65533 0.62695 0.0
N723 N 0.65537 0.69781 0.63611 0.0
C724 C 0.65778 0.64285 0.63324 0.0
C725 C 0.7103 0.61992 0.6284 0.0
C726 C 0.9293 0.63766 0.13964 0.0
C727 C 0.91365 0.6063 0.11472 0.0
C728 C 0.95251 0.68947 0.13572 0.0
C729 C 0.96101 0.71079 0.10677 0.0
H730 H 0.92258 0.62231 0.16216 0.0
H731 H 0.96204 0.71375 0.15528 0.0
S732 S 0.93566 0.64104 0.03448 0.0
N733 N 0.91451 0.5976 0.0603 0.0
N734 N 0.95765 0.69473 0.05306 0.0
C735 C 0.9482 0.67857 0.08182 0.0
C736 C 0.92464 0.6263 0.08574 0.0
C737 C 0.83794 0.93711 0.58759 0.0
C738 C 0.8074 0.95912 0.61139 0.0
C739 C 0.88922 0.91454 0.59239 0.0
C740 C 0.91235 0.91318 0.62121 0.0
H741 H 0.82197 0.93732 0.56493 0.0
H742 H 0.91138 0.89883 0.57323 0.0
S743 S 0.85082 0.96725 0.69101 0.0
N744 N 0.8046 0.97923 0.66487 0.0
N745 N 0.90244 0.93755 0.67373 0.0
C746 C 0.88329 0.93644 0.64514 0.0
C747 C 0.8305 0.95929 0.64028 0.0
C748 C 0.59234 0.64764 0.89797 0.0
C749 C 0.60609 0.61262 0.9218 0.0
C750 C 0.56676 0.69791 0.90354 0.0
C751 C 0.55387 0.71382 0.93306 0.0
H752 H 0.60229 0.63639 0.8751 0.0
H753 H 0.55869 0.72517 0.88493 0.0
S754 S 0.57359 0.63225 1.00231 0.0
N755 N 0.59967 0.59447 0.9753 0.0
N756 N 0.55111 0.68801 0.98573 0.0
C757 C 0.56475 0.67756 0.95671 0.0
C758 C 0.59098 0.62713 0.9511 0.0
C759 C 0.84089 0.58411 0.45194 0.0
C760 C 0.80912 0.56401 0.42818 0.0
C761 C 0.89132 0.60812 0.44671 0.0
C762 C 0.91235 0.61282 0.41749 0.0
H763 H 0.82637 0.58162 0.47487 0.0
H764 H 0.91441 0.62256 0.46579 0.0
S765 S 0.84785 0.56327 0.34762 0.0
N766 N 0.80346 0.54828 0.37432 0.0
N767 N 0.89987 0.59251 0.36463 0.0
C768 C 0.88243 0.5909 0.39357 0.0
C769 C 0.83043 0.56664 0.39887 0.0
C770 C 0.93478 0.88194 0.89731 0.0
C771 C 0.9154 0.91348 0.92138 0.0
C772 C 0.95936 0.83101 0.90244 0.0
C773 C 0.96564 0.81076 0.93182 0.0
H774 H 0.92977 0.89633 0.87447 0.0
H775 H 0.97161 0.80648 0.88342 0.0
S776 S 0.93015 0.88185 1.00253 0.0
N777 N 0.91003 0.92364 0.97565 0.0
N778 N 0.95641 0.82864 0.98519 0.0
C779 C 0.94931 0.84347 0.95601 0.0
C780 C 0.92412 0.8947 0.95084 0.0
C781 C 0.62981 0.92728 0.45176 0.0
C782 C 0.61046 0.91753 0.42262 0.0
C783 C 0.67917 0.95364 0.45641 0.0
C784 C 0.71141 0.97112 0.43214 0.0
H785 H 0.60629 0.91485 0.47119 0.0
H786 H 0.69278 0.95968 0.47929 0.0
S787 S 0.67658 0.95906 0.35142 0.0
N788 N 0.62468 0.93067 0.36914 0.0
N789 N 0.71918 0.97933 0.37783 0.0
C790 C 0.69156 0.96374 0.40283 0.0
C791 C 0.64067 0.93708 0.3981 0.0
C792 C 0.40686 0.21066 0.90945 0.0
C793 C 0.46228 0.21913 0.91554 0.0
C794 C 0.38632 0.15824 0.90493 0.0
C795 C 0.4204 0.1124 0.90659 0.0
H796 H 0.37891 0.24476 0.90947 0.0
H797 H 0.34303 0.15314 0.90151 0.0
S798 S 0.56924 0.11384 0.92177 0.0
N799 N 0.55128 0.17856 0.92204 0.0
N800 N 0.51311 0.07957 0.91447 0.0
C801 C 0.47658 0.12074 0.91144 0.0
C802 C 0.49742 0.17431 0.91566 0.0
C803 C 0.33018 0.46208 0.40224 0.0
C804 C 0.31026 0.46888 0.43163 0.0
C805 C 0.38119 0.43772 0.39714 0.0
C806 C 0.41314 0.41908 0.42126 0.0
H807 H 0.30535 0.47378 0.38322 0.0
H808 H 0.39538 0.43236 0.3743 0.0
S809 S 0.38238 0.43548 0.50237 0.0
N810 N 0.32874 0.46089 0.485 0.0
N811 N 0.424 0.41505 0.47552 0.0
C812 C 0.39464 0.42832 0.4507 0.0
C813 C 0.3433 0.45325 0.45584 0.0
C814 C 0.07289 0.34491 0.95193 0.0
C815 C 0.0552 0.31134 0.92834 0.0
C816 C 0.09778 0.39478 0.94628 0.0
C817 C 0.10574 0.41346 0.91678 0.0
H818 H 0.06792 0.33219 0.97508 0.0
H819 H 0.11052 0.41925 0.96521 0.0
S820 S 0.06266 0.34417 0.84705 0.0
N821 N 0.04476 0.30183 0.87423 0.0
N822 N 0.09051 0.3973 0.86373 0.0
C823 C 0.0859 0.38199 0.89295 0.0
C824 C 0.06081 0.33051 0.89868 0.0
C825 C 0.20961 0.11722 0.40887 0.0
C826 C 0.21815 0.06192 0.41546 0.0
C827 C 0.15711 0.13776 0.40426 0.0
C828 C 0.11138 0.10375 0.40631 0.0
H829 H 0.2437 0.14509 0.40856 0.0
H830 H 0.15186 0.18099 0.40048 0.0
S831 S 0.11299 0.95565 0.42346 0.0
N832 N 0.17769 0.97339 0.42335 0.0
N833 N 0.07864 1.01151 0.4154 0.0
C834 C 0.1198 0.04775 0.41178 0.0
C835 C 0.17337 0.02695 0.41616 0.0
C836 C 0.4054 0.31257 0.12929 0.0
C837 C 0.46149 0.30383 0.12553 0.0
C838 C 0.38455 0.36494 0.13365 0.0
C839 C 0.41898 0.4105 0.13408 0.0
H840 H 0.37731 0.27885 0.1274 0.0
H841 H 0.34089 0.37027 0.1351 0.0
S842 S 0.56994 0.40777 0.12704 0.0
N843 N 0.55155 0.34342 0.12457 0.0
N844 N 0.51303 0.44242 0.13178 0.0
C845 C 0.47575 0.40169 0.13209 0.0
C846 C 0.49683 0.3481 0.12808 0.0
C847 C 0.19265 0.46365 0.63571 0.0
C848 C 0.21214 0.47247 0.60638 0.0
C849 C 0.14184 0.4388 0.64057 0.0
C850 C 0.10975 0.42172 0.61623 0.0
H851 H 0.21772 0.47399 0.65484 0.0
H852 H 0.12806 0.43162 0.66335 0.0
S853 S 0.13921 0.44366 0.53537 0.0
N854 N 0.19278 0.46834 0.55296 0.0
N855 N 0.09812 0.42129 0.56201 0.0
C856 C 0.12767 0.43319 0.58692 0.0
C857 C 0.17871 0.45868 0.58203 0.0
C858 C 0.03474 0.17317 0.12801 0.0
C859 C 0.07097 0.21683 0.12527 0.0
C860 C 0.05396 0.11994 0.13181 0.0
C861 C 0.11024 0.10877 0.13332 0.0
H862 H 0.99164 0.17981 0.12496 0.0
H863 H 0.02458 0.08723 0.13142 0.0
S864 S 0.22093 0.21088 0.13302 0.0
N865 N 0.16482 0.24696 0.12825 0.0
N866 N 0.20118 0.14685 0.13594 0.0
C867 C 0.14649 0.15283 0.13314 0.0
C868 C 0.12684 0.20689 0.12901 0.0
C869 C 0.39232 0.10727 0.59297 0.0
C870 C 0.41334 0.11132 0.6222 0.0
C871 C 0.34183 0.08344 0.58771 0.0
C872 C 0.31011 0.06274 0.61142 0.0
H873 H 0.41545 0.12207 0.57392 0.0
H874 H 0.32716 0.08158 0.56481 0.0
S875 S 0.34832 0.06087 0.69196 0.0
N876 N 0.40049 0.09029 0.67502 0.0
N877 N 0.30412 0.04622 0.66521 0.0
C878 C 0.33129 0.0649 0.64071 0.0
C879 C 0.38326 0.08906 0.64607 0.0
C880 C 0.53396 0.01765 0.9931 0.0
C881 C 0.48567 0.98687 0.99416 0.0
C882 C 0.55329 0.04527 1.01849 0.0
C883 C 0.52518 0.04315 0.046 0.0
H884 H 0.55756 0.01997 0.97258 0.0
H885 H 0.59085 0.068 1.01657 0.0
S886 S 0.39505 0.97068 0.06031 0.0
N887 N 0.40912 0.95763 0.02479 0.0
N888 N 0.44525 1.00928 0.07244 0.0
C889 C 0.47637 0.01317 0.04726 0.0
C890 C 0.45666 0.98515 0.02138 0.0
C891 C 0.5266 0.50013 0.54773 0.0
C892 C 0.483 0.53709 0.54511 0.0
C893 C 0.55376 0.48021 0.52226 0.0
C894 C 0.53836 0.4965 0.49319 0.0
H895 H 0.54013 0.48661 0.56967 0.0
H896 H 0.58749 0.45238 0.52543 0.0
S897 S 0.42383 0.58899 0.47389 0.0
N898 N 0.42391 0.58695 0.51095 0.0
N899 N 0.47466 0.5496 0.46319 0.0
C900 C 0.49425 0.5328 0.49022 0.0
C901 C 0.4667 0.55312 0.51614 0.0
C902 C 0.03158 0.51947 0.04603 0.0
C903 C 0.99612 0.47477 0.04322 0.0
C904 C 0.04939 0.54878 0.02078 0.0
C905 C 0.03226 0.53469 0.99171 0.0
H906 H 0.04527 0.5325 0.06799 0.0
H907 H 0.07598 0.58332 0.02416 0.0
S908 S 0.94269 0.41861 0.97183 0.0
N909 N 0.9467 0.41627 1.00882 0.0
N910 N 0.97992 0.47122 0.96141 0.0
C911 C 0.99758 0.48947 0.9885 0.0
C912 C 0.97953 0.4596 1.01423 0.0
C913 C 0.99019 0.06468 0.51841 0.0
C914 C 0.98491 0.03188 0.49276 0.0
C915 C 0.01802 0.046 0.54394 0.0
C916 C 0.04185 0.99385 0.54481 0.0
H917 H 0.97294 0.10526 0.51876 0.0
H918 H 0.02129 0.07298 0.56306 0.0
S919 S 0.03533 0.88999 0.48466 0.0
N920 N 1.00291 0.94311 0.4706 0.0
N921 N 0.05571 0.90857 0.51843 0.0
C922 C 0.03625 0.96031 0.51951 0.0
C923 C 1.00768 0.97918 0.49354 0.0
C924 C 0.47979 0.50796 0.99516 0.0
C925 C 0.52995 0.48011 0.99528 0.0
C926 C 0.4611 0.53608 0.02058 0.0
C927 C 0.49186 0.5377 0.04718 0.0
H928 H 0.45451 0.50802 0.97524 0.0
H929 H 0.42222 0.55674 1.01932 0.0
S930 S 0.62773 0.4744 0.0586 0.0
N931 N 0.61096 0.45762 0.02396 0.0
N932 N 0.57629 0.51062 0.07162 0.0
C933 C 0.54236 0.51038 0.04754 0.0
C934 C 0.56128 0.4816 0.02164 0.0
C935 C 0.99577 0.49802 0.49129 0.0
C936 C 0.03832 0.53606 0.49416 0.0
C937 C 0.96698 0.47895 0.51646 0.0
C938 C 0.97945 0.49724 0.54554 0.0
H939 H 0.9845 0.48266 0.46937 0.0
H940 H 0.93458 0.44981 0.51304 0.0
S941 S 0.08899 0.59472 0.56555 0.0
N942 N 0.09234 0.5902 0.5286 0.0
N943 N 0.03861 0.55445 0.57584 0.0
C944 C 0.02199 0.53523 0.54876 0.0
C945 C 0.05125 0.55467 0.52311 0.0
C946 C 0.99046 0.02407 0.04798 0.0
C947 C 0.02776 0.98073 0.04541 0.0
C948 C 0.97163 0.05226 0.02255 0.0
C949 C 0.98945 0.03831 0.99355 0.0
H950 H 0.97574 0.03661 0.06985 0.0
H951 H 0.94338 0.08562 0.02574 0.0
S952 S 0.08388 0.92541 0.97427 0.0
N953 N 0.07989 0.9237 1.01128 0.0
N954 N 0.04463 0.97643 0.96361 0.0
C955 C 0.02624 0.9946 0.99061 0.0
C956 C 0.04541 0.96593 1.01649 0.0
C957 C 0.46479 0.98081 0.52394 0.0
C958 C 0.48141 0.99493 0.49472 0.0
C959 C 0.49315 0.99962 0.54923 0.0
C960 C 0.53931 0.03318 0.54629 0.0
H961 H 0.42933 0.95542 0.52735 0.0
H962 H 0.4786 0.98785 0.57128 0.0
S963 S 0.60152 0.07931 0.47464 0.0
N964 N 0.54836 0.04299 0.46428 0.0
N965 N 0.6014 0.07812 0.51172 0.0
C966 C 0.55661 0.04727 0.51719 0.0
C967 C 0.52778 0.02814 0.49145 0.0
loop_
_geom_bond_atom_site_label_1
_geom_bond_atom_site_label_2
_geom_bond_distance
_geom_bond_site_symmetry_2
_ccdc_geom_bond_type
Co0 N4 2.148 . S
Co0 N10 2.128 . S
Co0 N20 2.194 . S
Co0 O25 2.351 . S
Co0 O26 2.155 . S
Co0 O27 2.096 . S
C1 N4 1.301 . S
C1 N5 1.328 1_545 S
C1 H6 0.930 1_545 S
C2 C3 1.333 1_545 S
C2 N4 1.317 . S
C2 H7 0.930 . S
C3 C2 1.333 1_565 S
C3 N5 1.350 . S
C3 H29 0.931 . S
N4 Co0 2.148 . S
N4 C1 1.301 . S
N4 C2 1.317 . S
N5 C1 1.328 1_565 S
N5 C3 1.350 . S
H6 C1 0.930 1_565 S
H7 C2 0.930 . S
C8 O9 1.224 . S
C8 O27 1.247 . S
O9 C8 1.224 . S
N10 Co0 2.128 . S
N10 C11 1.355 . S
N10 C13 1.311 . S
C11 N10 1.355 . S
C11 C12 1.363 . S
C11 H23 0.929 . S
C12 C11 1.363 . S
C12 N14 1.375 . S
C12 H30 0.931 . S
C13 N10 1.311 . S
C13 N14 1.347 . S
C13 H24 0.929 . S
N14 C12 1.375 . S
N14 C13 1.347 . S
C15 C18 1.365 . S
C15 N20 1.328 . S
C15 H21 0.929 . S
C16 C17 1.362 . S
C16 C19 1.378 . S
C16 H31 0.929 . S
C17 C16 1.362 . S
C17 C18 1.366 . S
C18 C15 1.365 . S
C18 C17 1.366 . S
C18 H32 0.930 . S
C19 C16 1.378 . S
C19 N20 1.315 . S
C19 H22 0.930 . S
N20 Co0 2.194 . S
N20 C15 1.328 . S
N20 C19 1.315 . S
H21 C15 0.929 . S
H22 C19 0.930 . S
H23 C11 0.929 . S
H24 C13 0.929 . S
O25 Co0 2.351 . S
O25 C28 1.244 . S
O26 Co0 2.155 . S
O26 C28 1.240 . S
O27 Co0 2.096 . S
O27 C8 1.247 . S
C28 O25 1.244 . S
C28 O26 1.240 . S
H29 C3 0.931 . S
H30 C12 0.931 . S
H31 C16 0.929 . S
H32 C18 0.930 . S
Co33 N37 2.148 . S
Co33 N43 2.128 . S
Co33 N53 2.194 . S
Co33 O58 2.351 . S
Co33 O59 2.155 . S
Co33 O60 2.096 . S
C34 N37 1.301 . S
C34 N38 1.328 . S
C34 H39 0.930 . S
C35 C36 1.333 . S
C35 N37 1.317 . S
C35 H40 0.930 . S
C36 C35 1.333 . S
C36 N38 1.350 . S
C36 H62 0.931 . S
N37 Co33 2.148 . S
N37 C34 1.301 . S
N37 C35 1.317 . S
N38 C34 1.328 . S
N38 C36 1.350 . S
H39 C34 0.930 . S
H40 C35 0.930 . S
C41 O42 1.224 . S
C41 O60 1.247 . S
O42 C41 1.224 . S
N43 Co33 2.128 . S
N43 C44 1.355 . S
N43 C46 1.311 . S
C44 N43 1.355 . S
C44 C45 1.363 . S
C44 H56 0.929 . S
C45 C44 1.363 . S
C45 N47 1.375 . S
C45 H63 0.931 . S
C46 N43 1.311 . S
C46 N47 1.347 . S
C46 H57 0.929 . S
N47 C45 1.375 . S
N47 C46 1.347 . S
C48 C51 1.365 . S
C48 N53 1.328 . S
C48 H54 0.929 . S
C49 C50 1.362 . S
C49 C52 1.378 . S
C49 H64 0.929 . S
C50 C49 1.362 . S
C50 C51 1.366 . S
C51 C48 1.365 . S
C51 C50 1.366 . S
C51 H65 0.930 . S
C52 C49 1.378 . S
C52 N53 1.315 . S
C52 H55 0.930 . S
N53 Co33 2.194 . S
N53 C48 1.328 . S
N53 C52 1.315 . S
H54 C48 0.929 . S
H55 C52 0.930 . S
H56 C44 0.929 . S
H57 C46 0.929 . S
O58 Co33 2.351 . S
O58 C61 1.244 . S
O59 Co33 2.155 . S
O59 C61 1.240 . S
O60 Co33 2.096 . S
O60 C41 1.247 . S
C61 O58 1.244 . S
C61 O59 1.240 . S
H62 C36 0.931 . S
H63 C45 0.931 . S
H64 C49 0.929 . S
H65 C51 0.930 . S
Co66 N70 2.148 . S
Co66 N76 2.128 1_655 S
Co66 N86 2.194 1_655 S
Co66 O91 2.351 1_655 S
Co66 O92 2.155 . S
Co66 O93 2.096 . S
C67 N70 1.301 . S
C67 N71 1.328 . S
C67 H72 0.930 . S
C68 C69 1.333 . S
C68 N70 1.317 . S
C68 H73 0.930 . S
C69 C68 1.333 . S
C69 N71 1.350 . S
C69 H95 0.931 . S
N70 Co66 2.148 . S
N70 C67 1.301 . S
N70 C68 1.317 . S
N71 C67 1.328 . S
N71 C69 1.350 . S
H72 C67 0.930 . S
H73 C68 0.930 . S
C74 O75 1.224 . S
C74 O93 1.247 . S
O75 C74 1.224 . S
N76 Co66 2.128 1_455 S
N76 C77 1.355 . S
N76 C79 1.311 1_455 S
C77 N76 1.355 . S
C77 C78 1.363 . S
C77 H89 0.929 . S
C78 C77 1.363 . S
C78 N80 1.375 . S
C78 H96 0.931 . S
C79 N76 1.311 1_655 S
C79 N80 1.347 1_655 S
C79 H90 0.929 . S
N80 C78 1.375 . S
N80 C79 1.347 1_455 S
C81 C84 1.365 . S
C81 N86 1.328 . S
C81 H87 0.929 . S
C82 C83 1.362 . S
C82 C85 1.378 1_455 S
C82 H97 0.929 1_455 S
C83 C82 1.362 . S
C83 C84 1.366 . S
C84 C81 1.365 . S
C84 C83 1.366 . S
C84 H98 0.930 . S
C85 C82 1.378 1_655 S
C85 N86 1.315 1_655 S
C85 H88 0.930 . S
N86 Co66 2.194 1_455 S
N86 C81 1.328 . S
N86 C85 1.315 1_455 S
H87 C81 0.929 . S
H88 C85 0.930 . S
H89 C77 0.929 . S
H90 C79 0.929 . S
O91 Co66 2.351 1_455 S
O91 C94 1.244 . S
O92 Co66 2.155 . S
O92 C94 1.240 1_655 S
O93 Co66 2.096 . S
O93 C74 1.247 . S
C94 O91 1.244 . S
C94 O92 1.240 1_455 S
H95 C69 0.931 . S
H96 C78 0.931 . S
H97 C82 0.929 1_655 S
H98 C84 0.930 . S
Co99 N103 2.148 . S
Co99 N109 2.128 1_565 S
Co99 N119 2.194 1_565 S
Co99 O124 2.351 1_565 S
Co99 O125 2.155 . S
Co99 O126 2.096 . S
C100 N103 1.301 . S
C100 N104 1.328 1_455 S
C100 H105 0.930 1_455 S
C101 C102 1.333 1_455 S
C101 N103 1.317 . S
C101 H106 0.930 . S
C102 C101 1.333 1_655 S
C102 N104 1.350 . S
C102 H128 0.931 . S
N103 Co99 2.148 . S
N103 C100 1.301 . S
N103 C101 1.317 . S
N104 C100 1.328 1_655 S
N104 C102 1.350 . S
H105 C100 0.930 1_655 S
H106 C101 0.930 . S
C107 O108 1.224 . S
C107 O126 1.247 . S
O108 C107 1.224 . S
N109 Co99 2.128 1_545 S
N109 C110 1.355 . S
N109 C112 1.311 1_545 S
C110 N109 1.355 . S
C110 C111 1.363 . S
C110 H122 0.929 . S
C111 C110 1.363 . S
C111 N113 1.375 . S
C111 H129 0.931 . S
C112 N109 1.311 1_565 S
C112 N113 1.347 1_565 S
C112 H123 0.929 . S
N113 C111 1.375 . S
N113 C112 1.347 1_545 S
C114 C117 1.365 . S
C114 N119 1.328 . S
C114 H120 0.929 . S
C115 C116 1.362 . S
C115 C118 1.378 1_545 S
C115 H130 0.929 1_545 S
C116 C115 1.362 . S
C116 C117 1.366 . S
C117 C114 1.365 . S
C117 C116 1.366 . S
C117 H131 0.930 . S
C118 C115 1.378 1_565 S
C118 N119 1.315 1_565 S
C118 H121 0.930 . S
N119 Co99 2.194 1_545 S
N119 C114 1.328 . S
N119 C118 1.315 1_545 S
H120 C114 0.929 . S
H121 C118 0.930 . S
H122 C110 0.929 . S
H123 C112 0.929 . S
O124 Co99 2.351 1_545 S
O124 C127 1.244 . S
O125 Co99 2.155 . S
O125 C127 1.240 1_565 S
O126 Co99 2.096 . S
O126 C107 1.247 . S
C127 O124 1.244 . S
C127 O125 1.240 1_545 S
H128 C102 0.931 . S
H129 C111 0.931 . S
H130 C115 0.929 1_565 S
H131 C117 0.930 . S
Co132 N136 2.148 . S
Co132 N142 2.128 . S
Co132 N152 2.194 . S
Co132 O157 2.351 . S
Co132 O158 2.155 . S
Co132 O159 2.096 . S
C133 N136 1.301 . S
C133 N137 1.328 . S
C133 H138 0.930 . S
C134 C135 1.333 . S
C134 N136 1.317 . S
C134 H139 0.930 . S
C135 C134 1.333 . S
C135 N137 1.350 . S
C135 H161 0.931 . S
N136 Co132 2.148 . S
N136 C133 1.301 . S
N136 C134 1.317 . S
N137 C133 1.328 . S
N137 C135 1.350 . S
H138 C133 0.930 . S
H139 C134 0.930 . S
C140 O141 1.224 . S
C140 O159 1.247 . S
O141 C140 1.224 . S
N142 Co132 2.128 . S
N142 C143 1.355 . S
N142 C145 1.311 . S
C143 N142 1.355 . S
C143 C144 1.363 . S
C143 H155 0.929 . S
C144 C143 1.363 . S
C144 N146 1.375 . S
C144 H162 0.931 . S
C145 N142 1.311 . S
C145 N146 1.347 . S
C145 H156 0.929 . S
N146 C144 1.375 . S
N146 C145 1.347 . S
C147 C150 1.365 . S
C147 N152 1.328 . S
C147 H153 0.929 . S
C148 C149 1.362 . S
C148 C151 1.378 . S
C148 H163 0.929 . S
C149 C148 1.362 . S
C149 C150 1.366 . S
C150 C147 1.365 . S
C150 C149 1.366 . S
C150 H164 0.930 . S
C151 C148 1.378 . S
C151 N152 1.315 . S
C151 H154 0.930 . S
N152 Co132 2.194 . S
N152 C147 1.328 . S
N152 C151 1.315 . S
H153 C147 0.929 . S
H154 C151 0.930 . S
H155 C143 0.929 . S
H156 C145 0.929 . S
O157 Co132 2.351 . S
O157 C160 1.244 . S
O158 Co132 2.155 . S
O158 C160 1.240 . S
O159 Co132 2.096 . S
O159 C140 1.247 . S
C160 O157 1.244 . S
C160 O158 1.240 . S
H161 C135 0.931 . S
H162 C144 0.931 . S
H163 C148 0.929 . S
H164 C150 0.930 . S
Co165 N169 2.148 . S
Co165 N175 2.128 . S
Co165 N185 2.194 . S
Co165 O190 2.351 . S
Co165 O191 2.155 . S
Co165 O192 2.096 . S
C166 N169 1.301 . S
C166 N170 1.328 1_455 S
C166 H171 0.930 1_455 S
C167 C168 1.333 1_455 S
C167 N169 1.317 . S
C167 H172 0.930 . S
C168 C167 1.333 1_655 S
C168 N170 1.350 . S
C168 H194 0.931 . S
N169 Co165 2.148 . S
N169 C166 1.301 . S
N169 C167 1.317 . S
N170 C166 1.328 1_655 S
N170 C168 1.350 . S
H171 C166 0.930 1_655 S
H172 C167 0.930 . S
C173 O174 1.224 . S
C173 O192 1.247 . S
O174 C173 1.224 . S
N175 Co165 2.128 . S
N175 C176 1.355 . S
N175 C178 1.311 . S
C176 N175 1.355 . S
C176 C177 1.363 . S
C176 H188 0.929 . S
C177 C176 1.363 . S
C177 N179 1.375 . S
C177 H195 0.931 . S
C178 N175 1.311 . S
C178 N179 1.347 . S
C178 H189 0.929 . S
N179 C177 1.375 . S
N179 C178 1.347 . S
C180 C183 1.365 . S
C180 N185 1.328 . S
C180 H186 0.929 . S
C181 C182 1.362 . S
C181 C184 1.378 . S
C181 H196 0.929 . S
C182 C181 1.362 . S
C182 C183 1.366 . S
C183 C180 1.365 . S
C183 C182 1.366 . S
C183 H197 0.930 . S
C184 C181 1.378 . S
C184 N185 1.315 . S
C184 H187 0.930 . S
N185 Co165 2.194 . S
N185 C180 1.328 . S
N185 C184 1.315 . S
H186 C180 0.929 . S
H187 C184 0.930 . S
H188 C176 0.929 . S
H189 C178 0.929 . S
O190 Co165 2.351 . S
O190 C193 1.244 . S
O191 Co165 2.155 . S
O191 C193 1.240 . S
O192 Co165 2.096 . S
O192 C173 1.247 . S
C193 O190 1.244 . S
C193 O191 1.240 . S
H194 C168 0.931 . S
H195 C177 0.931 . S
H196 C181 0.929 . S
H197 C183 0.930 . S
Co198 N202 2.148 . S
Co198 N208 2.128 1_655 S
Co198 N218 2.194 1_655 S
Co198 O223 2.351 1_655 S
Co198 O224 2.155 . S
Co198 O225 2.096 . S
C199 N202 1.301 . S
C199 N203 1.328 1_545 S
C199 H204 0.930 1_545 S
C200 C201 1.333 1_545 S
C200 N202 1.317 . S
C200 H205 0.930 . S
C201 C200 1.333 1_565 S
C201 N203 1.350 . S
C201 H227 0.931 . S
N202 Co198 2.148 . S
N202 C199 1.301 . S
N202 C200 1.317 . S
N203 C199 1.328 1_565 S
N203 C201 1.350 . S
H204 C199 0.930 1_565 S
H205 C200 0.930 . S
C206 O207 1.224 . S
C206 O225 1.247 . S
O207 C206 1.224 . S
N208 Co198 2.128 1_455 S
N208 C209 1.355 . S
N208 C211 1.311 1_455 S
C209 N208 1.355 . S
C209 C210 1.363 . S
C209 H221 0.929 . S
C210 C209 1.363 . S
C210 N212 1.375 . S
C210 H228 0.931 . S
C211 N208 1.311 1_655 S
C211 N212 1.347 1_655 S
C211 H222 0.929 . S
N212 C210 1.375 . S
N212 C211 1.347 1_455 S
C213 C216 1.365 . S
C213 N218 1.328 . S
C213 H219 0.929 . S
C214 C215 1.362 . S
C214 C217 1.378 1_455 S
C214 H229 0.929 1_455 S
C215 C214 1.362 . S
C215 C216 1.366 . S
C216 C213 1.365 . S
C216 C215 1.366 . S
C216 H230 0.930 . S
C217 C214 1.378 1_655 S
C217 N218 1.315 1_655 S
C217 H220 0.930 . S
N218 Co198 2.194 1_455 S
N218 C213 1.328 . S
N218 C217 1.315 1_455 S
H219 C213 0.929 . S
H220 C217 0.930 . S
H221 C209 0.929 . S
H222 C211 0.929 . S
O223 Co198 2.351 1_455 S
O223 C226 1.244 . S
O224 Co198 2.155 . S
O224 C226 1.240 1_655 S
O225 Co198 2.096 . S
O225 C206 1.247 . S
C226 O223 1.244 . S
C226 O224 1.240 1_455 S
H227 C201 0.931 . S
H228 C210 0.931 . S
H229 C214 0.929 1_655 S
H230 C216 0.930 . S
Co231 N235 2.148 . S
Co231 N241 2.128 1_565 S
Co231 N251 2.194 1_565 S
Co231 O256 2.351 1_565 S
Co231 O257 2.155 . S
Co231 O258 2.096 . S
C232 N235 1.301 . S
C232 N236 1.328 . S
C232 H237 0.930 . S
C233 C234 1.333 . S
C233 N235 1.317 . S
C233 H238 0.930 . S
C234 C233 1.333 . S
C234 N236 1.350 . S
C234 H260 0.931 . S
N235 Co231 2.148 . S
N235 C232 1.301 . S
N235 C233 1.317 . S
N236 C232 1.328 . S
N236 C234 1.350 . S
H237 C232 0.930 . S
H238 C233 0.930 . S
C239 O240 1.224 . S
C239 O258 1.247 . S
O240 C239 1.224 . S
N241 Co231 2.128 1_545 S
N241 C242 1.355 . S
N241 C244 1.311 1_545 S
C242 N241 1.355 . S
C242 C243 1.363 . S
C242 H254 0.929 . S
C243 C242 1.363 . S
C243 N245 1.375 . S
C243 H261 0.931 . S
C244 N241 1.311 1_565 S
C244 N245 1.347 1_565 S
C244 H255 0.929 . S
N245 C243 1.375 . S
N245 C244 1.347 1_545 S
C246 C249 1.365 . S
C246 N251 1.328 . S
C246 H252 0.929 . S
C247 C248 1.362 . S
C247 C250 1.378 1_545 S
C247 H262 0.929 1_545 S
C248 C247 1.362 . S
C248 C249 1.366 . S
C249 C246 1.365 . S
C249 C248 1.366 . S
C249 H263 0.930 . S
C250 C247 1.378 1_565 S
C250 N251 1.315 1_565 S
C250 H253 0.930 . S
N251 Co231 2.194 1_545 S
N251 C246 1.328 . S
N251 C250 1.315 1_545 S
H252 C246 0.929 . S
H253 C250 0.930 . S
H254 C242 0.929 . S
H255 C244 0.929 . S
O256 Co231 2.351 1_545 S
O256 C259 1.244 . S
O257 Co231 2.155 . S
O257 C259 1.240 1_565 S
O258 Co231 2.096 . S
O258 C239 1.247 . S
C259 O256 1.244 . S
C259 O257 1.240 1_545 S
H260 C234 0.931 . S
H261 C243 0.931 . S
H262 C247 0.929 1_565 S
H263 C249 0.930 . S
Co264 N268 2.148 . S
Co264 N274 2.128 . S
Co264 N284 2.194 . S
Co264 O289 2.351 . S
Co264 O290 2.155 . S
Co264 O291 2.096 . S
C265 N268 1.301 . S
C265 N269 1.328 1_565 S
C265 H270 0.930 1_565 S
C266 C267 1.333 1_565 S
C266 N268 1.317 . S
C266 H271 0.930 . S
C267 C266 1.333 1_545 S
C267 N269 1.350 . S
C267 H293 0.931 . S
N268 Co264 2.148 . S
N268 C265 1.301 . S
N268 C266 1.317 . S
N269 C265 1.328 1_545 S
N269 C267 1.350 . S
H270 C265 0.930 1_545 S
H271 C266 0.930 . S
C272 O273 1.224 . S
C272 O291 1.247 . S
O273 C272 1.224 . S
N274 Co264 2.128 . S
N274 C275 1.355 . S
N274 C277 1.311 . S
C275 N274 1.355 . S
C275 C276 1.363 . S
C275 H287 0.929 . S
C276 C275 1.363 . S
C276 N278 1.375 . S
C276 H294 0.931 . S
C277 N274 1.311 . S
C277 N278 1.347 . S
C277 H288 0.929 . S
N278 C276 1.375 . S
N278 C277 1.347 . S
C279 C282 1.365 . S
C279 N284 1.328 . S
C279 H285 0.929 . S
C280 C281 1.362 . S
C280 C283 1.378 . S
C280 H295 0.929 . S
C281 C280 1.362 . S
C281 C282 1.366 . S
C282 C279 1.365 . S
C282 C281 1.366 . S
C282 H296 0.930 . S
C283 C280 1.378 . S
C283 N284 1.315 . S
C283 H286 0.930 . S
N284 Co264 2.194 . S
N284 C279 1.328 . S
N284 C283 1.315 . S
H285 C279 0.929 . S
H286 C283 0.930 . S
H287 C275 0.929 . S
H288 C277 0.929 . S
O289 Co264 2.351 . S
O289 C292 1.244 . S
O290 Co264 2.155 . S
O290 C292 1.240 . S
O291 Co264 2.096 . S
O291 C272 1.247 . S
C292 O289 1.244 . S
C292 O290 1.240 . S
H293 C267 0.931 . S
H294 C276 0.931 . S
H295 C280 0.929 . S
H296 C282 0.930 . S
Co297 N301 2.148 . S
Co297 N307 2.128 . S
Co297 N317 2.194 . S
Co297 O322 2.351 . S
Co297 O323 2.155 . S
Co297 O324 2.096 . S
C298 N301 1.301 . S
C298 N302 1.328 . S
C298 H303 0.930 . S
C299 C300 1.333 . S
C299 N301 1.317 . S
C299 H304 0.930 . S
C300 C299 1.333 . S
C300 N302 1.350 . S
C300 H326 0.931 . S
N301 Co297 2.148 . S
N301 C298 1.301 . S
N301 C299 1.317 . S
N302 C298 1.328 . S
N302 C300 1.350 . S
H303 C298 0.930 . S
H304 C299 0.930 . S
C305 O306 1.224 . S
C305 O324 1.247 . S
O306 C305 1.224 . S
N307 Co297 2.128 . S
N307 C308 1.355 . S
N307 C310 1.311 . S
C308 N307 1.355 . S
C308 C309 1.363 . S
C308 H320 0.929 . S
C309 C308 1.363 . S
C309 N311 1.375 . S
C309 H327 0.931 . S
C310 N307 1.311 . S
C310 N311 1.347 . S
C310 H321 0.929 . S
N311 C309 1.375 . S
N311 C310 1.347 . S
C312 C315 1.365 . S
C312 N317 1.328 . S
C312 H318 0.929 . S
C313 C314 1.362 . S
C313 C316 1.378 . S
C313 H328 0.929 . S
C314 C313 1.362 . S
C314 C315 1.366 . S
C315 C312 1.365 . S
C315 C314 1.366 . S
C315 H329 0.930 . S
C316 C313 1.378 . S
C316 N317 1.315 . S
C316 H319 0.930 . S
N317 Co297 2.194 . S
N317 C312 1.328 . S
N317 C316 1.315 . S
H318 C312 0.929 . S
H319 C316 0.930 . S
H320 C308 0.929 . S
H321 C310 0.929 . S
O322 Co297 2.351 . S
O322 C325 1.244 . S
O323 Co297 2.155 . S
O323 C325 1.240 . S
O324 Co297 2.096 . S
O324 C305 1.247 . S
C325 O322 1.244 . S
C325 O323 1.240 . S
H326 C300 0.931 . S
H327 C309 0.931 . S
H328 C313 0.929 . S
H329 C315 0.930 . S
Co330 N334 2.148 . S
Co330 N340 2.128 1_455 S
Co330 N350 2.194 1_455 S
Co330 O355 2.351 1_455 S
Co330 O356 2.155 . S
Co330 O357 2.096 . S
C331 N334 1.301 . S
C331 N335 1.328 . S
C331 H336 0.930 . S
C332 C333 1.333 . S
C332 N334 1.317 . S
C332 H337 0.930 . S
C333 C332 1.333 . S
C333 N335 1.350 . S
C333 H359 0.931 . S
N334 Co330 2.148 . S
N334 C331 1.301 . S
N334 C332 1.317 . S
N335 C331 1.328 . S
N335 C333 1.350 . S
H336 C331 0.930 . S
H337 C332 0.930 . S
C338 O339 1.224 . S
C338 O357 1.247 . S
O339 C338 1.224 . S
N340 Co330 2.128 1_655 S
N340 C341 1.355 . S
N340 C343 1.311 1_655 S
C341 N340 1.355 . S
C341 C342 1.363 . S
C341 H353 0.929 . S
C342 C341 1.363 . S
C342 N344 1.375 . S
C342 H360 0.931 . S
C343 N340 1.311 1_455 S
C343 N344 1.347 1_455 S
C343 H354 0.929 . S
N344 C342 1.375 . S
N344 C343 1.347 1_655 S
C345 C348 1.365 . S
C345 N350 1.328 . S
C345 H351 0.929 . S
C346 C347 1.362 . S
C346 C349 1.378 1_655 S
C346 H361 0.929 1_655 S
C347 C346 1.362 . S
C347 C348 1.366 . S
C348 C345 1.365 . S
C348 C347 1.366 . S
C348 H362 0.930 . S
C349 C346 1.378 1_455 S
C349 N350 1.315 1_455 S
C349 H352 0.930 . S
N350 Co330 2.194 1_655 S
N350 C345 1.328 . S
N350 C349 1.315 1_655 S
H351 C345 0.929 . S
H352 C349 0.930 . S
H353 C341 0.929 . S
H354 C343 0.929 . S
O355 Co330 2.351 1_655 S
O355 C358 1.244 . S
O356 Co330 2.155 . S
O356 C358 1.240 1_455 S
O357 Co330 2.096 . S
O357 C338 1.247 . S
C358 O355 1.244 . S
C358 O356 1.240 1_655 S
H359 C333 0.931 . S
H360 C342 0.931 . S
H361 C346 0.929 1_455 S
H362 C348 0.930 . S
Co363 N367 2.148 . S
Co363 N373 2.128 1_545 S
Co363 N383 2.194 1_545 S
Co363 O388 2.351 1_545 S
Co363 O389 2.155 . S
Co363 O390 2.096 . S
C364 N367 1.301 . S
C364 N368 1.328 1_655 S
C364 H369 0.930 1_655 S
C365 C366 1.333 1_655 S
C365 N367 1.317 . S
C365 H370 0.930 . S
C366 C365 1.333 1_455 S
C366 N368 1.350 . S
C366 H392 0.931 . S
N367 Co363 2.148 . S
N367 C364 1.301 . S
N367 C365 1.317 . S
N368 C364 1.328 1_455 S
N368 C366 1.350 . S
H369 C364 0.930 1_455 S
H370 C365 0.930 . S
C371 O372 1.224 . S
C371 O390 1.247 . S
O372 C371 1.224 . S
N373 Co363 2.128 1_565 S
N373 C374 1.355 . S
N373 C376 1.311 1_565 S
C374 N373 1.355 . S
C374 C375 1.363 . S
C374 H386 0.929 . S
C375 C374 1.363 . S
C375 N377 1.375 . S
C375 H393 0.931 . S
C376 N373 1.311 1_545 S
C376 N377 1.347 1_545 S
C376 H387 0.929 . S
N377 C375 1.375 . S
N377 C376 1.347 1_565 S
C378 C381 1.365 . S
C378 N383 1.328 . S
C378 H384 0.929 . S
C379 C380 1.362 . S
C379 C382 1.378 1_565 S
C379 H394 0.929 1_565 S
C380 C379 1.362 . S
C380 C381 1.366 . S
C381 C378 1.365 . S
C381 C380 1.366 . S
C381 H395 0.930 . S
C382 C379 1.378 1_545 S
C382 N383 1.315 1_545 S
C382 H385 0.930 . S
N383 Co363 2.194 1_565 S
N383 C378 1.328 . S
N383 C382 1.315 1_565 S
H384 C378 0.929 . S
H385 C382 0.930 . S
H386 C374 0.929 . S
H387 C376 0.929 . S
O388 Co363 2.351 1_565 S
O388 C391 1.244 . S
O389 Co363 2.155 . S
O389 C391 1.240 1_545 S
O390 Co363 2.096 . S
O390 C371 1.247 . S
C391 O388 1.244 . S
C391 O389 1.240 1_565 S
H392 C366 0.931 . S
H393 C375 0.931 . S
H394 C379 0.929 1_545 S
H395 C381 0.930 . S
Co396 N400 2.148 . S
Co396 N406 2.128 . S
Co396 N416 2.194 . S
Co396 O421 2.351 . S
Co396 O422 2.155 . S
Co396 O423 2.096 . S
C397 N400 1.301 . S
C397 N401 1.328 . S
C397 H402 0.930 . S
C398 C399 1.333 . S
C398 N400 1.317 . S
C398 H403 0.930 . S
C399 C398 1.333 . S
C399 N401 1.350 . S
C399 H425 0.931 . S
N400 Co396 2.148 . S
N400 C397 1.301 . S
N400 C398 1.317 . S
N401 C397 1.328 . S
N401 C399 1.350 . S
H402 C397 0.930 . S
H403 C398 0.930 . S
C404 O405 1.224 . S
C404 O423 1.247 . S
O405 C404 1.224 . S
N406 Co396 2.128 . S
N406 C407 1.355 . S
N406 C409 1.311 . S
C407 N406 1.355 . S
C407 C408 1.363 . S
C407 H419 0.929 . S
C408 C407 1.363 . S
C408 N410 1.375 . S
C408 H426 0.931 . S
C409 N406 1.311 . S
C409 N410 1.347 . S
C409 H420 0.929 . S
N410 C408 1.375 . S
N410 C409 1.347 . S
C411 C414 1.365 . S
C411 N416 1.328 . S
C411 H417 0.929 . S
C412 C413 1.362 . S
C412 C415 1.378 . S
C412 H427 0.929 . S
C413 C412 1.362 . S
C413 C414 1.366 . S
C414 C411 1.365 . S
C414 C413 1.366 . S
C414 H428 0.930 . S
C415 C412 1.378 . S
C415 N416 1.315 . S
C415 H418 0.930 . S
N416 Co396 2.194 . S
N416 C411 1.328 . S
N416 C415 1.315 . S
H417 C411 0.929 . S
H418 C415 0.930 . S
H419 C407 0.929 . S
H420 C409 0.929 . S
O421 Co396 2.351 . S
O421 C424 1.244 . S
O422 Co396 2.155 . S
O422 C424 1.240 . S
O423 Co396 2.096 . S
O423 C404 1.247 . S
C424 O421 1.244 . S
C424 O422 1.240 . S
H425 C399 0.931 . S
H426 C408 0.931 . S
H427 C412 0.929 . S
H428 C414 0.930 . S
Co429 N433 2.148 . S
Co429 N439 2.128 . S
Co429 N449 2.194 . S
Co429 O454 2.351 . S
Co429 O455 2.155 . S
Co429 O456 2.096 . S
C430 N433 1.301 . S
C430 N434 1.328 1_655 S
C430 H435 0.930 1_655 S
C431 C432 1.333 1_655 S
C431 N433 1.317 . S
C431 H436 0.930 . S
C432 C431 1.333 1_455 S
C432 N434 1.350 . S
C432 H458 0.931 . S
N433 Co429 2.148 . S
N433 C430 1.301 . S
N433 C431 1.317 . S
N434 C430 1.328 1_455 S
N434 C432 1.350 . S
H435 C430 0.930 1_455 S
H436 C431 0.930 . S
C437 O438 1.224 . S
C437 O456 1.247 . S
O438 C437 1.224 . S
N439 Co429 2.128 . S
N439 C440 1.355 . S
N439 C442 1.311 . S
C440 N439 1.355 . S
C440 C441 1.363 . S
C440 H452 0.929 . S
C441 C440 1.363 . S
C441 N443 1.375 . S
C441 H459 0.931 . S
C442 N439 1.311 . S
C442 N443 1.347 . S
C442 H453 0.929 . S
N443 C441 1.375 . S
N443 C442 1.347 . S
C444 C447 1.365 . S
C444 N449 1.328 . S
C444 H450 0.929 . S
C445 C446 1.362 . S
C445 C448 1.378 . S
C445 H460 0.929 . S
C446 C445 1.362 . S
C446 C447 1.366 . S
C447 C444 1.365 . S
C447 C446 1.366 . S
C447 H461 0.930 . S
C448 C445 1.378 . S
C448 N449 1.315 . S
C448 H451 0.930 . S
N449 Co429 2.194 . S
N449 C444 1.328 . S
N449 C448 1.315 . S
H450 C444 0.929 . S
H451 C448 0.930 . S
H452 C440 0.929 . S
H453 C442 0.929 . S
O454 Co429 2.351 . S
O454 C457 1.244 . S
O455 Co429 2.155 . S
O455 C457 1.240 . S
O456 Co429 2.096 . S
O456 C437 1.247 . S
C457 O454 1.244 . S
C457 O455 1.240 . S
H458 C432 0.931 . S
H459 C441 0.931 . S
H460 C445 0.929 . S
H461 C447 0.930 . S
Co462 N466 2.148 . S
Co462 N472 2.128 1_455 S
Co462 N482 2.194 1_455 S
Co462 O487 2.351 1_455 S
Co462 O488 2.155 . S
Co462 O489 2.096 . S
C463 N466 1.301 . S
C463 N467 1.328 1_565 S
C463 H468 0.930 1_565 S
C464 C465 1.333 1_565 S
C464 N466 1.317 . S
C464 H469 0.930 . S
C465 C464 1.333 1_545 S
C465 N467 1.350 . S
C465 H491 0.931 . S
N466 Co462 2.148 . S
N466 C463 1.301 . S
N466 C464 1.317 . S
N467 C463 1.328 1_545 S
N467 C465 1.350 . S
H468 C463 0.930 1_545 S
H469 C464 0.930 . S
C470 O471 1.224 . S
C470 O489 1.247 . S
O471 C470 1.224 . S
N472 Co462 2.128 1_655 S
N472 C473 1.355 . S
N472 C475 1.311 1_655 S
C473 N472 1.355 . S
C473 C474 1.363 . S
C473 H485 0.929 . S
C474 C473 1.363 . S
C474 N476 1.375 . S
C474 H492 0.931 . S
C475 N472 1.311 1_455 S
C475 N476 1.347 1_455 S
C475 H486 0.929 . S
N476 C474 1.375 . S
N476 C475 1.347 1_655 S
C477 C480 1.365 . S
C477 N482 1.328 . S
C477 H483 0.929 . S
C478 C479 1.362 . S
C478 C481 1.378 1_655 S
C478 H493 0.929 1_655 S
C479 C478 1.362 . S
C479 C480 1.366 . S
C480 C477 1.365 . S
C480 C479 1.366 . S
C480 H494 0.930 . S
C481 C478 1.378 1_455 S
C481 N482 1.315 1_455 S
C481 H484 0.930 . S
N482 Co462 2.194 1_655 S
N482 C477 1.328 . S
N482 C481 1.315 1_655 S
H483 C477 0.929 . S
H484 C481 0.930 . S
H485 C473 0.929 . S
H486 C475 0.929 . S
O487 Co462 2.351 1_655 S
O487 C490 1.244 . S
O488 Co462 2.155 . S
O488 C490 1.240 1_455 S
O489 Co462 2.096 . S
O489 C470 1.247 . S
C490 O487 1.244 . S
C490 O488 1.240 1_655 S
H491 C465 0.931 . S
H492 C474 0.931 . S
H493 C478 0.929 1_455 S
H494 C480 0.930 . S
Co495 N499 2.148 . S
Co495 N505 2.128 1_545 S
Co495 N515 2.194 1_545 S
Co495 O520 2.351 1_545 S
Co495 O521 2.155 . S
Co495 O522 2.096 . S
C496 N499 1.301 . S
C496 N500 1.328 . S
C496 H501 0.930 . S
C497 C498 1.333 . S
C497 N499 1.317 . S
C497 H502 0.930 . S
C498 C497 1.333 . S
C498 N500 1.350 . S
C498 H524 0.931 . S
N499 Co495 2.148 . S
N499 C496 1.301 . S
N499 C497 1.317 . S
N500 C496 1.328 . S
N500 C498 1.350 . S
H501 C496 0.930 . S
H502 C497 0.930 . S
C503 O504 1.224 . S
C503 O522 1.247 . S
O504 C503 1.224 . S
N505 Co495 2.128 1_565 S
N505 C506 1.355 . S
N505 C508 1.311 1_565 S
C506 N505 1.355 . S
C506 C507 1.363 . S
C506 H518 0.929 . S
C507 C506 1.363 . S
C507 N509 1.375 . S
C507 H525 0.931 . S
C508 N505 1.311 1_545 S
C508 N509 1.347 1_545 S
C508 H519 0.929 . S
N509 C507 1.375 . S
N509 C508 1.347 1_565 S
C510 C513 1.365 . S
C510 N515 1.328 . S
C510 H516 0.929 . S
C511 C512 1.362 . S
C511 C514 1.378 1_565 S
C511 H526 0.929 1_565 S
C512 C511 1.362 . S
C512 C513 1.366 . S
C513 C510 1.365 . S
C513 C512 1.366 . S
C513 H527 0.930 . S
C514 C511 1.378 1_545 S
C514 N515 1.315 1_545 S
C514 H517 0.930 . S
N515 Co495 2.194 1_565 S
N515 C510 1.328 . S
N515 C514 1.315 1_565 S
H516 C510 0.929 . S
H517 C514 0.930 . S
H518 C506 0.929 . S
H519 C508 0.929 . S
O520 Co495 2.351 1_565 S
O520 C523 1.244 . S
O521 Co495 2.155 . S
O521 C523 1.240 1_545 S
O522 Co495 2.096 . S
O522 C503 1.247 . S
C523 O520 1.244 . S
C523 O521 1.240 1_565 S
H524 C498 0.931 . S
H525 C507 0.931 . S
H526 C511 0.929 1_545 S
H527 C513 0.930 . S
C528 C529 1.369 . S
C528 C530 1.419 . S
C528 H532 0.930 . S
C529 C528 1.369 . S
C529 C538 1.429 . S
C530 C528 1.419 . S
C530 C531 1.363 . S
C530 H533 0.929 . S
C531 C530 1.363 . S
C531 C537 1.428 . S
H532 C528 0.930 . S
H533 C530 0.929 . S
S534 N535 1.613 1_565 S
S534 N536 1.610 . S
N535 S534 1.613 1_545 S
N535 C538 1.350 . S
N536 S534 1.610 . S
N536 C537 1.351 1_565 S
C537 C531 1.428 . S
C537 N536 1.351 1_545 S
C537 C538 1.434 . S
C538 C529 1.429 . S
C538 N535 1.350 . S
C538 C537 1.434 . S
C539 C540 1.369 . S
C539 C541 1.419 . S
C539 H543 0.930 . S
C540 C539 1.369 . S
C540 C549 1.429 . S
C541 C539 1.419 . S
C541 C542 1.363 . S
C541 H544 0.929 . S
C542 C541 1.363 . S
C542 C548 1.428 . S
H543 C539 0.930 . S
H544 C541 0.929 . S
S545 N546 1.613 . S
S545 N547 1.610 . S
N546 S545 1.613 . S
N546 C549 1.350 . S
N547 S545 1.610 . S
N547 C548 1.351 . S
C548 C542 1.428 . S
C548 N547 1.351 . S
C548 C549 1.434 . S
C549 C540 1.429 . S
C549 N546 1.350 . S
C549 C548 1.434 . S
C550 C551 1.369 . S
C550 C552 1.419 . S
C550 H554 0.930 . S
C551 C550 1.369 . S
C551 C560 1.429 . S
C552 C550 1.419 . S
C552 C553 1.363 . S
C552 H555 0.929 . S
C553 C552 1.363 . S
C553 C559 1.428 . S
H554 C550 0.930 . S
H555 C552 0.929 . S
S556 N557 1.613 . S
S556 N558 1.610 . S
N557 S556 1.613 . S
N557 C560 1.350 . S
N558 S556 1.610 . S
N558 C559 1.351 . S
C559 C553 1.428 . S
C559 N558 1.351 . S
C559 C560 1.434 . S
C560 C551 1.429 . S
C560 N557 1.350 . S
C560 C559 1.434 . S
C561 C562 1.369 . S
C561 C563 1.419 . S
C561 H565 0.930 . S
C562 C561 1.369 . S
C562 C571 1.429 . S
C563 C561 1.419 . S
C563 C564 1.363 . S
C563 H566 0.929 . S
C564 C563 1.363 . S
C564 C570 1.428 . S
H565 C561 0.930 . S
H566 C563 0.929 . S
S567 N568 1.613 1_565 S
S567 N569 1.610 1_565 S
N568 S567 1.613 1_545 S
N568 C571 1.350 . S
N569 S567 1.610 1_545 S
N569 C570 1.351 . S
C570 C564 1.428 . S
C570 N569 1.351 . S
C570 C571 1.434 . S
C571 C562 1.429 . S
C571 N568 1.350 . S
C571 C570 1.434 . S
C572 C573 1.369 . S
C572 C574 1.419 . S
C572 H576 0.930 . S
C573 C572 1.369 . S
C573 C582 1.429 . S
C574 C572 1.419 . S
C574 C575 1.363 . S
C574 H577 0.929 . S
C575 C574 1.363 . S
C575 C581 1.428 . S
H576 C572 0.930 . S
H577 C574 0.929 . S
S578 N579 1.613 . S
S578 N580 1.610 . S
N579 S578 1.613 . S
N579 C582 1.350 . S
N580 S578 1.610 . S
N580 C581 1.351 . S
C581 C575 1.428 . S
C581 N580 1.351 . S
C581 C582 1.434 . S
C582 C573 1.429 . S
C582 N579 1.350 . S
C582 C581 1.434 . S
C583 C584 1.369 . S
C583 C585 1.419 . S
C583 H587 0.930 . S
C584 C583 1.369 . S
C584 C593 1.429 . S
C585 C583 1.419 . S
C585 C586 1.363 . S
C585 H588 0.929 . S
C586 C585 1.363 . S
C586 C592 1.428 . S
H587 C583 0.930 . S
H588 C585 0.929 . S
S589 N590 1.613 . S
S589 N591 1.610 . S
N590 S589 1.613 . S
N590 C593 1.350 . S
N591 S589 1.610 . S
N591 C592 1.351 . S
C592 C586 1.428 . S
C592 N591 1.351 . S
C592 C593 1.434 . S
C593 C584 1.429 . S
C593 N590 1.350 . S
C593 C592 1.434 . S
C594 C595 1.369 . S
C594 C596 1.419 . S
C594 H598 0.930 . S
C595 C594 1.369 . S
C595 C604 1.429 . S
C596 C594 1.419 . S
C596 C597 1.363 . S
C596 H599 0.929 . S
C597 C596 1.363 . S
C597 C603 1.428 . S
H598 C594 0.930 . S
H599 C596 0.929 . S
S600 N601 1.613 . S
S600 N602 1.610 1_455 S
N601 S600 1.613 . S
N601 C604 1.350 1_455 S
N602 S600 1.610 1_655 S
N602 C603 1.351 . S
C603 C597 1.428 . S
C603 N602 1.351 . S
C603 C604 1.434 . S
C604 C595 1.429 . S
C604 N601 1.350 1_655 S
C604 C603 1.434 . S
C605 C606 1.369 . S
C605 C607 1.419 . S
C605 H609 0.930 . S
C606 C605 1.369 . S
C606 C615 1.429 . S
C607 C605 1.419 . S
C607 C608 1.363 . S
C607 H610 0.929 . S
C608 C607 1.363 . S
C608 C614 1.428 . S
H609 C605 0.930 . S
H610 C607 0.929 . S
S611 N612 1.613 . S
S611 N613 1.605 1_455 S
N612 S611 1.613 . S
N612 C615 1.350 1_455 S
N613 S611 1.605 1_655 S
N613 C614 1.357 . S
C614 C608 1.428 . S
C614 N613 1.357 . S
C614 C615 1.434 . S
C615 C606 1.429 . S
C615 N612 1.350 1_655 S
C615 C614 1.434 . S
C616 C617 1.369 . S
C616 C618 1.419 . S
C616 H620 0.930 . S
C617 C616 1.369 . S
C617 C626 1.429 . S
C618 C616 1.419 . S
C618 C619 1.363 . S
C618 H621 0.929 . S
C619 C618 1.363 . S
C619 C625 1.428 . S
H620 C616 0.930 . S
H621 C618 0.929 . S
S622 N623 1.613 . S
S622 N624 1.610 . S
N623 S622 1.613 . S
N623 C626 1.350 . S
N624 S622 1.610 . S
N624 C625 1.351 . S
C625 C619 1.428 . S
C625 N624 1.351 . S
C625 C626 1.434 . S
C626 C617 1.429 . S
C626 N623 1.350 . S
C626 C625 1.434 . S
C627 C628 1.369 . S
C627 C629 1.419 . S
C627 H631 0.930 . S
C628 C627 1.369 . S
C628 C637 1.429 . S
C629 C627 1.419 . S
C629 C630 1.363 . S
C629 H632 0.929 . S
C630 C629 1.363 . S
C630 C636 1.428 . S
H631 C627 0.930 . S
H632 C629 0.929 . S
S633 N634 1.613 . S
S633 N635 1.610 . S
N634 S633 1.613 . S
N634 C637 1.350 . S
N635 S633 1.610 . S
N635 C636 1.351 . S
C636 C630 1.428 . S
C636 N635 1.351 . S
C636 C637 1.434 . S
C637 C628 1.429 . S
C637 N634 1.350 . S
C637 C636 1.434 . S
C638 C639 1.369 . S
C638 C640 1.419 . S
C638 H642 0.930 . S
C639 C638 1.369 . S
C639 C648 1.429 . S
C640 C638 1.419 . S
C640 C641 1.363 . S
C640 H643 0.929 . S
C641 C640 1.363 . S
C641 C647 1.428 . S
H642 C638 0.930 . S
H643 C640 0.929 . S
S644 N645 1.613 . S
S644 N646 1.610 . S
N645 S644 1.613 . S
N645 C648 1.350 . S
N646 S644 1.610 . S
N646 C647 1.351 . S
C647 C641 1.428 . S
C647 N646 1.351 . S
C647 C648 1.434 . S
C648 C639 1.429 . S
C648 N645 1.350 . S
C648 C647 1.434 . S
C649 C650 1.369 . S
C649 C651 1.419 . S
C649 H653 0.930 . S
C650 C649 1.369 . S
C650 C659 1.429 . S
C651 C649 1.419 . S
C651 C652 1.363 . S
C651 H654 0.929 . S
C652 C651 1.363 . S
C652 C658 1.428 . S
H653 C649 0.930 . S
H654 C651 0.929 . S
S655 N656 1.613 . S
S655 N657 1.610 . S
N656 S655 1.613 . S
N656 C659 1.350 . S
N657 S655 1.610 . S
N657 C658 1.351 . S
C658 C652 1.428 . S
C658 N657 1.351 . S
C658 C659 1.434 . S
C659 C650 1.429 . S
C659 N656 1.350 . S
C659 C658 1.434 . S
C660 C661 1.369 . S
C660 C662 1.419 . S
C660 H664 0.930 . S
C661 C660 1.369 . S
C661 C670 1.429 . S
C662 C660 1.419 . S
C662 C663 1.363 . S
C662 H665 0.929 . S
C663 C662 1.363 . S
C663 C669 1.428 . S
H664 C660 0.930 . S
H665 C662 0.929 . S
S666 N667 1.613 . S
S666 N668 1.610 . S
N667 S666 1.613 . S
N667 C670 1.350 . S
N668 S666 1.610 . S
N668 C669 1.351 . S
C669 C663 1.428 . S
C669 N668 1.351 . S
C669 C670 1.434 . S
C670 C661 1.429 . S
C670 N667 1.350 . S
C670 C669 1.434 . S
C671 C672 1.369 . S
C671 C673 1.419 . S
C671 H675 0.930 . S
C672 C671 1.369 . S
C672 C681 1.429 . S
C673 C671 1.419 . S
C673 C674 1.363 . S
C673 H676 0.929 . S
C674 C673 1.363 . S
C674 C680 1.428 . S
H675 C671 0.930 . S
H676 C673 0.929 . S
S677 N678 1.613 . S
S677 N679 1.610 . S
N678 S677 1.613 . S
N678 C681 1.350 . S
N679 S677 1.610 . S
N679 C680 1.351 . S
C680 C674 1.428 . S
C680 N679 1.351 . S
C680 C681 1.434 . S
C681 C672 1.429 . S
C681 N678 1.350 . S
C681 C680 1.434 . S
C682 C683 1.369 . S
C682 C684 1.419 . S
C682 H686 0.930 . S
C683 C682 1.369 . S
C683 C692 1.429 . S
C684 C682 1.419 . S
C684 C685 1.363 . S
C684 H687 0.929 . S
C685 C684 1.363 . S
C685 C691 1.428 . S
H686 C682 0.930 . S
H687 C684 0.929 . S
S688 N689 1.613 . S
S688 N690 1.610 . S
N689 S688 1.613 . S
N689 C692 1.350 . S
N690 S688 1.610 . S
N690 C691 1.351 . S
C691 C685 1.428 . S
C691 N690 1.351 . S
C691 C692 1.434 . S
C692 C683 1.429 . S
C692 N689 1.350 . S
C692 C691 1.434 . S
C693 C694 1.369 . S
C693 C695 1.419 . S
C693 H697 0.930 . S
C694 C693 1.369 . S
C694 C703 1.429 . S
C695 C693 1.419 . S
C695 C696 1.363 . S
C695 H698 0.929 . S
C696 C695 1.363 . S
C696 C702 1.428 . S
H697 C693 0.930 . S
H698 C695 0.929 . S
S699 N700 1.613 . S
S699 N701 1.610 . S
N700 S699 1.613 . S
N700 C703 1.350 . S
N701 S699 1.610 . S
N701 C702 1.351 . S
C702 C696 1.428 . S
C702 N701 1.351 . S
C702 C703 1.434 . S
C703 C694 1.429 . S
C703 N700 1.350 . S
C703 C702 1.434 . S
C704 C705 1.369 . S
C704 C706 1.419 . S
C704 H708 0.930 . S
C705 C704 1.369 . S
C705 C714 1.429 . S
C706 C704 1.419 . S
C706 C707 1.363 . S
C706 H709 0.929 . S
C707 C706 1.363 . S
C707 C713 1.428 . S
H708 C704 0.930 . S
H709 C706 0.929 . S
S710 N711 1.613 . S
S710 N712 1.610 . S
N711 S710 1.613 . S
N711 C714 1.350 . S
N712 S710 1.610 . S
N712 C713 1.351 . S
C713 C707 1.428 . S
C713 N712 1.351 . S
C713 C714 1.434 . S
C714 C705 1.429 . S
C714 N711 1.350 . S
C714 C713 1.434 . S
C715 C716 1.369 . S
C715 C717 1.419 . S
C715 H719 0.930 . S
C716 C715 1.369 . S
C716 C725 1.429 . S
C717 C715 1.419 . S
C717 C718 1.363 . S
C717 H720 0.929 . S
C718 C717 1.363 . S
C718 C724 1.428 . S
H719 C715 0.930 . S
H720 C717 0.929 . S
S721 N722 1.613 . S
S721 N723 1.610 . S
N722 S721 1.613 . S
N722 C725 1.350 . S
N723 S721 1.610 . S
N723 C724 1.351 . S
C724 C718 1.428 . S
C724 N723 1.351 . S
C724 C725 1.434 . S
C725 C716 1.429 . S
C725 N722 1.350 . S
C725 C724 1.434 . S
C726 C727 1.369 . S
C726 C728 1.419 1_655 S
C726 H730 0.930 . S
C727 C726 1.369 . S
C727 C736 1.429 . S
C728 C726 1.419 1_455 S
C728 C729 1.363 1_455 S
C728 H731 0.929 . S
C729 C728 1.363 1_655 S
C729 C735 1.428 . S
H730 C726 0.930 . S
H731 C728 0.929 . S
S732 N733 1.613 . S
S732 N734 1.610 . S
N733 S732 1.613 . S
N733 C736 1.350 . S
N734 S732 1.610 . S
N734 C735 1.351 . S
C735 C729 1.428 . S
C735 N734 1.351 . S
C735 C736 1.434 . S
C736 C727 1.429 . S
C736 N733 1.350 . S
C736 C735 1.434 . S
C737 C738 1.369 . S
C737 C739 1.419 . S
C737 H741 0.930 . S
C738 C737 1.369 . S
C738 C747 1.429 1_565 S
C739 C737 1.419 . S
C739 C740 1.363 . S
C739 H742 0.929 . S
C740 C739 1.363 . S
C740 C746 1.428 . S
H741 C737 0.930 . S
H742 C739 0.929 . S
S743 N744 1.613 . S
S743 N745 1.610 . S
N744 S743 1.613 . S
N744 C747 1.350 . S
N745 S743 1.610 . S
N745 C746 1.351 1_545 S
C746 C740 1.428 . S
C746 N745 1.351 1_565 S
C746 C747 1.434 1_565 S
C747 C738 1.429 1_545 S
C747 N744 1.350 . S
C747 C746 1.434 1_545 S
C748 C749 1.369 . S
C748 C750 1.419 . S
C748 H752 0.930 . S
C749 C748 1.369 . S
C749 C758 1.429 . S
C750 C748 1.419 . S
C750 C751 1.363 . S
C750 H753 0.929 . S
C751 C750 1.363 . S
C751 C757 1.428 . S
H752 C748 0.930 . S
H753 C750 0.929 . S
S754 N755 1.613 . S
S754 N756 1.610 . S
N755 S754 1.613 . S
N755 C758 1.350 . S
N756 S754 1.610 . S
N756 C757 1.351 . S
C757 C751 1.428 . S
C757 N756 1.351 . S
C757 C758 1.434 . S
C758 C749 1.429 . S
C758 N755 1.350 . S
C758 C757 1.434 . S
C759 C760 1.369 . S
C759 C761 1.419 . S
C759 H763 0.930 . S
C760 C759 1.369 . S
C760 C769 1.429 . S
C761 C759 1.419 . S
C761 C762 1.363 . S
C761 H764 0.929 . S
C762 C761 1.363 . S
C762 C768 1.428 . S
H763 C759 0.930 . S
H764 C761 0.929 . S
S765 N766 1.613 . S
S765 N767 1.610 . S
N766 S765 1.613 . S
N766 C769 1.350 . S
N767 S765 1.610 . S
N767 C768 1.351 . S
C768 C762 1.428 . S
C768 N767 1.351 . S
C768 C769 1.434 . S
C769 C760 1.429 . S
C769 N766 1.350 . S
C769 C768 1.434 . S
C770 C771 1.369 . S
C770 C772 1.419 1_655 S
C770 H774 0.930 . S
C771 C770 1.369 . S
C771 C780 1.429 . S
C772 C770 1.419 1_455 S
C772 C773 1.363 1_455 S
C772 H775 0.929 . S
C773 C772 1.363 1_655 S
C773 C779 1.428 . S
H774 C770 0.930 . S
H775 C772 0.929 . S
S776 N777 1.613 . S
S776 N778 1.610 . S
N777 S776 1.613 . S
N777 C780 1.350 . S
N778 S776 1.610 . S
N778 C779 1.351 . S
C779 C773 1.428 . S
C779 N778 1.351 . S
C779 C780 1.434 . S
C780 C771 1.429 . S
C780 N777 1.350 . S
C780 C779 1.434 . S
C781 C782 1.369 . S
C781 C783 1.419 . S
C781 H785 0.930 . S
C782 C781 1.369 . S
C782 C791 1.429 . S
C783 C781 1.419 . S
C783 C784 1.363 . S
C783 H786 0.929 . S
C784 C783 1.363 . S
C784 C790 1.428 1_565 S
H785 C781 0.930 . S
H786 C783 0.929 . S
S787 N788 1.613 . S
S787 N789 1.610 . S
N788 S787 1.613 . S
N788 C791 1.350 1_545 S
N789 S787 1.610 . S
N789 C790 1.351 . S
C790 C784 1.428 1_545 S
C790 N789 1.351 . S
C790 C791 1.434 1_545 S
C791 C782 1.429 . S
C791 N788 1.350 1_565 S
C791 C790 1.434 1_565 S
C792 C793 1.369 . S
C792 C794 1.419 . S
C792 H796 0.930 . S
C793 C792 1.369 . S
C793 C802 1.429 . S
C794 C792 1.419 . S
C794 C795 1.363 . S
C794 H797 0.929 . S
C795 C794 1.363 . S
C795 C801 1.428 . S
H796 C792 0.930 . S
H797 C794 0.929 . S
S798 N799 1.613 . S
S798 N800 1.610 . S
N799 S798 1.613 . S
N799 C802 1.350 . S
N800 S798 1.610 . S
N800 C801 1.351 . S
C801 C795 1.428 . S
C801 N800 1.351 . S
C801 C802 1.434 . S
C802 C793 1.429 . S
C802 N799 1.350 . S
C802 C801 1.434 . S
C803 C804 1.369 . S
C803 C805 1.419 . S
C803 H807 0.930 . S
C804 C803 1.369 . S
C804 C813 1.429 . S
C805 C803 1.419 . S
C805 C806 1.363 . S
C805 H808 0.929 . S
C806 C805 1.363 . S
C806 C812 1.428 . S
H807 C803 0.930 . S
H808 C805 0.929 . S
S809 N810 1.613 . S
S809 N811 1.610 . S
N810 S809 1.613 . S
N810 C813 1.350 . S
N811 S809 1.610 . S
N811 C812 1.351 . S
C812 C806 1.428 . S
C812 N811 1.351 . S
C812 C813 1.434 . S
C813 C804 1.429 . S
C813 N810 1.350 . S
C813 C812 1.434 . S
C814 C815 1.369 . S
C814 C816 1.419 . S
C814 H818 0.930 . S
C815 C814 1.369 . S
C815 C824 1.429 1_455 S
C816 C814 1.419 . S
C816 C817 1.363 . S
C816 H819 0.929 . S
C817 C816 1.363 . S
C817 C823 1.428 . S
H818 C814 0.930 . S
H819 C816 0.929 . S
S820 N821 1.613 . S
S820 N822 1.610 . S
N821 S820 1.613 . S
N821 C824 1.350 . S
N822 S820 1.610 . S
N822 C823 1.351 1_655 S
C823 C817 1.428 . S
C823 N822 1.351 1_455 S
C823 C824 1.434 1_455 S
C824 C815 1.429 1_655 S
C824 N821 1.350 . S
C824 C823 1.434 1_655 S
C825 C826 1.369 . S
C825 C827 1.419 . S
C825 H829 0.930 . S
C826 C825 1.369 . S
C826 C835 1.429 1_545 S
C827 C825 1.419 . S
C827 C828 1.363 . S
C827 H830 0.929 . S
C828 C827 1.363 . S
C828 C834 1.428 . S
H829 C825 0.930 . S
H830 C827 0.929 . S
S831 N832 1.613 . S
S831 N833 1.610 . S
N832 S831 1.613 . S
N832 C835 1.350 . S
N833 S831 1.610 . S
N833 C834 1.351 1_565 S
C834 C828 1.428 . S
C834 N833 1.351 1_545 S
C834 C835 1.434 1_545 S
C835 C826 1.429 1_565 S
C835 N832 1.350 . S
C835 C834 1.434 1_565 S
C836 C837 1.369 . S
C836 C838 1.419 . S
C836 H840 0.930 . S
C837 C836 1.369 . S
C837 C846 1.429 . S
C838 C836 1.419 . S
C838 C839 1.363 . S
C838 H841 0.929 . S
C839 C838 1.363 . S
C839 C845 1.428 . S
H840 C836 0.930 . S
H841 C838 0.929 . S
S842 N843 1.613 . S
S842 N844 1.610 . S
N843 S842 1.613 . S
N843 C846 1.350 . S
N844 S842 1.610 . S
N844 C845 1.351 . S
C845 C839 1.428 . S
C845 N844 1.351 . S
C845 C846 1.434 . S
C846 C837 1.429 . S
C846 N843 1.350 . S
C846 C845 1.434 . S
C847 C848 1.369 . S
C847 C849 1.419 . S
C847 H851 0.930 . S
C848 C847 1.369 . S
C848 C857 1.429 . S
C849 C847 1.419 . S
C849 C850 1.363 . S
C849 H852 0.929 . S
C850 C849 1.363 . S
C850 C856 1.428 . S
H851 C847 0.930 . S
H852 C849 0.929 . S
S853 N854 1.613 . S
S853 N855 1.610 . S
N854 S853 1.613 . S
N854 C857 1.350 . S
N855 S853 1.610 . S
N855 C856 1.351 . S
C856 C850 1.428 . S
C856 N855 1.351 . S
C856 C857 1.434 . S
C857 C848 1.429 . S
C857 N854 1.350 . S
C857 C856 1.434 . S
C858 C859 1.369 1_655 S
C858 C860 1.419 1_655 S
C858 H862 0.930 . S
C859 C858 1.369 1_455 S
C859 C868 1.429 . S
C860 C858 1.419 1_455 S
C860 C861 1.363 . S
C860 H863 0.929 . S
C861 C860 1.363 . S
C861 C867 1.428 . S
H862 C858 0.930 . S
H863 C860 0.929 . S
S864 N865 1.613 . S
S864 N866 1.610 . S
N865 S864 1.613 . S
N865 C868 1.350 . S
N866 S864 1.610 . S
N866 C867 1.351 . S
C867 C861 1.428 . S
C867 N866 1.351 . S
C867 C868 1.434 . S
C868 C859 1.429 . S
C868 N865 1.350 . S
C868 C867 1.434 . S
C869 C870 1.369 . S
C869 C871 1.419 . S
C869 H873 0.930 . S
C870 C869 1.369 . S
C870 C879 1.429 . S
C871 C869 1.419 . S
C871 C872 1.363 . S
C871 H874 0.929 . S
C872 C871 1.363 . S
C872 C878 1.428 1_545 S
H873 C869 0.930 . S
H874 C871 0.929 . S
S875 N876 1.613 . S
S875 N877 1.610 . S
N876 S875 1.613 . S
N876 C879 1.350 1_565 S
N877 S875 1.610 . S
N877 C878 1.351 . S
C878 C872 1.428 1_565 S
C878 N877 1.351 . S
C878 C879 1.434 1_565 S
C879 C870 1.429 . S
C879 N876 1.350 1_545 S
C879 C878 1.434 1_545 S
C880 C881 1.369 1_554 S
C880 C882 1.419 1_565 S
C880 H884 0.930 . S
C881 C880 1.369 1_556 S
C881 C890 1.429 . S
C882 C880 1.419 1_545 S
C882 C883 1.363 . S
C882 H885 0.929 . S
C883 C882 1.363 . S
C883 C889 1.428 1_554 S
H884 C880 0.930 . S
H885 C882 0.929 . S
S886 N887 1.613 . S
S886 N888 1.610 1_565 S
N887 S886 1.613 . S
N887 C890 1.350 . S
N888 S886 1.610 1_545 S
N888 C889 1.351 . S
C889 C883 1.428 1_556 S
C889 N888 1.351 . S
C889 C890 1.434 1_545 S
C890 C881 1.429 . S
C890 N887 1.350 . S
C890 C889 1.434 1_565 S
C891 C892 1.369 . S
C891 C893 1.419 . S
C891 H895 0.930 . S
C892 C891 1.369 . S
C892 C901 1.429 . S
C893 C891 1.419 . S
C893 C894 1.363 . S
C893 H896 0.929 . S
C894 C893 1.363 . S
C894 C900 1.428 . S
H895 C891 0.930 . S
H896 C893 0.929 . S
S897 N898 1.613 . S
S897 N899 1.610 . S
N898 S897 1.613 . S
N898 C901 1.350 . S
N899 S897 1.610 . S
N899 C900 1.351 . S
C900 C894 1.428 . S
C900 N899 1.351 . S
C900 C901 1.434 . S
C901 C892 1.429 . S
C901 N898 1.350 . S
C901 C900 1.434 . S
C902 C903 1.369 . S
C902 C904 1.419 1_554 S
C902 H906 0.930 . S
C903 C902 1.369 . S
C903 C912 1.429 1_455 S
C904 C902 1.419 1_556 S
C904 C905 1.363 1_455 S
C904 H907 0.929 . S
C905 C904 1.363 1_655 S
C905 C911 1.428 . S
H906 C902 0.930 . S
H907 C904 0.929 . S
S908 N909 1.613 . S
S908 N910 1.610 1_554 S
N909 S908 1.613 . S
N909 C912 1.350 . S
N910 S908 1.610 1_556 S
N910 C911 1.351 . S
C911 C905 1.428 . S
C911 N910 1.351 . S
C911 C912 1.434 1_556 S
C912 C903 1.429 1_655 S
C912 N909 1.350 . S
C912 C911 1.434 1_554 S
C913 C914 1.369 1_545 S
C913 C915 1.419 1_655 S
C913 H917 0.930 . S
C914 C913 1.369 1_565 S
C914 C923 1.429 . S
C915 C913 1.419 1_455 S
C915 C916 1.363 . S
C915 H918 0.929 . S
C916 C915 1.363 . S
C916 C922 1.428 1_545 S
H917 C913 0.930 . S
H918 C915 0.929 . S
S919 N920 1.613 1_455 S
S919 N921 1.610 . S
N920 S919 1.613 1_655 S
N920 C923 1.350 . S
N921 S919 1.610 . S
N921 C922 1.351 . S
C922 C916 1.428 1_565 S
C922 N921 1.351 . S
C922 C923 1.434 1_455 S
C923 C914 1.429 . S
C923 N920 1.350 . S
C923 C922 1.434 1_655 S
C924 C925 1.369 . S
C924 C926 1.434 . S
C924 H928 0.930 . S
C925 C924 1.369 . S
C925 C934 1.429 1_556 S
C926 C924 1.434 . S
C926 C927 1.346 1_556 S
C926 H929 0.931 . S
C927 C926 1.346 1_554 S
C927 C933 1.428 . S
H928 C924 0.930 . S
H929 C926 0.931 . S
S930 N931 1.613 . S
S930 N932 1.610 . S
N931 S930 1.613 . S
N931 C934 1.350 . S
N932 S930 1.610 . S
N932 C933 1.351 . S
C933 C927 1.428 . S
C933 N932 1.351 . S
C933 C934 1.434 . S
C934 C925 1.429 1_554 S
C934 N931 1.350 . S
C934 C933 1.434 . S
C935 C936 1.369 . S
C935 C937 1.419 . S
C935 H939 0.930 . S
C936 C935 1.369 . S
C936 C945 1.429 1_455 S
C937 C935 1.419 . S
C937 C938 1.363 1_455 S
C937 H940 0.929 . S
C938 C937 1.363 1_655 S
C938 C944 1.428 . S
H939 C935 0.930 . S
H940 C937 0.929 . S
S941 N942 1.613 . S
S941 N943 1.610 . S
N942 S941 1.613 . S
N942 C945 1.350 . S
N943 S941 1.610 . S
N943 C944 1.351 . S
C944 C938 1.428 . S
C944 N943 1.351 . S
C944 C945 1.434 . S
C945 C936 1.429 1_655 S
C945 N942 1.350 . S
C945 C944 1.434 . S
C946 C947 1.364 1_445 S
C946 C948 1.423 . S
C946 H950 0.931 . S
C947 C946 1.364 1_665 S
C947 C956 1.429 1_554 S
C948 C946 1.423 . S
C948 C949 1.363 1_554 S
C948 H951 0.929 . S
C949 C948 1.363 1_556 S
C949 C955 1.428 1_445 S
H950 C946 0.931 . S
H951 C948 0.929 . S
S952 N953 1.613 . S
S952 N954 1.610 . S
N953 S952 1.613 . S
N953 C956 1.350 . S
N954 S952 1.610 . S
N954 C955 1.351 . S
C955 C949 1.428 1_665 S
C955 N954 1.351 . S
C955 C956 1.434 . S
C956 C947 1.429 1_556 S
C956 N953 1.350 . S
C956 C955 1.434 . S
C957 C958 1.369 1_565 S
C957 C959 1.419 . S
C957 H961 0.930 . S
C958 C957 1.369 1_545 S
C958 C967 1.429 . S
C959 C957 1.419 . S
C959 C960 1.363 . S
C959 H962 0.929 . S
C960 C959 1.363 . S
C960 C966 1.428 1_565 S
H961 C957 0.930 . S
H962 C959 0.929 . S
S963 N964 1.613 . S
S963 N965 1.610 . S
N964 S963 1.613 . S
N964 C967 1.350 . S
N965 S963 1.610 . S
N965 C966 1.351 . S
C966 C960 1.428 1_545 S
C966 N965 1.351 . S
C966 C967 1.434 . S
C967 C958 1.429 . S
C967 N964 1.350 . S
C967 C966 1.434 . S
C529 C17 1.624 . S
C531 C248 1.623 . S
C540 C149 1.623 . S
C542 C50 1.623 . S
C551 C83 1.624 . S
C553 C182 1.623 . S
C562 C116 1.624 . S
C564 C215 1.626 . S
C573 C281 1.628 . S
C575 C512 1.628 . S
C584 C314 1.629 . S
C586 C413 1.627 . S
C595 C347 1.623 . S
C597 C446 1.624 . S
C606 C479 1.624 . S
C608 C380 1.625 . S
C617 C8 2.168 . S
C619 C74 2.165 . S
C628 C107 2.168 . S
C630 C41 2.165 . S
C639 C206 2.166 . S
C641 C140 2.168 . S
C650 C173 2.166 . S
C652 C239 2.166 . S
C661 C338 2.168 . S
C663 C272 2.165 . S
C672 C371 2.168 . S
C674 C305 2.165 . S
C683 C470 2.168 . S
C685 C404 2.166 . S
C694 C503 2.166 . S
C696 C437 2.167 . S
C705 N410 0.924 . S
C707 N5 0.954 . S
C716 N443 0.909 . S
C718 N38 0.960 . S
C727 N71 0.958 . S
C729 N476 0.913 . S
C738 N509 0.927 . S
C740 N104 0.953 . S
C749 N137 0.957 . S
C751 N278 0.916 . S
C760 N311 0.917 . S
C762 N170 0.957 . S
C771 N203 0.958 . S
C773 N344 0.915 . S
C782 N236 0.953 . S
C784 N377 0.924 . S
C793 N146 0.926 . S
C795 N269 0.954 . S
C804 N179 0.910 . S
C806 N302 0.959 . S
C815 N212 0.926 . S
C817 N335 0.953 . S
C826 N245 0.927 . S
C828 N368 0.953 . S
C837 N14 0.927 . S
C839 N401 0.953 . S
C848 N47 0.924 . S
C850 N434 0.954 . S
C859 N80 0.907 . S
C861 N467 0.960 . S
C870 N500 0.952 . S
C872 N113 0.925 . S
C881 C292 1.864 . S
C883 C28 1.875 . S
C892 C61 1.872 . S
C894 C325 1.869 . S
C903 C94 1.867 . S
C905 C358 1.873 . S
C914 C391 1.876 . S
C916 C127 1.866 . S
C925 C160 1.871 . S
C927 C424 1.870 . S
C936 C193 1.865 . S
C938 C457 1.874 . S
C947 C490 1.873 . S
C949 C226 1.868 . S
C958 C259 1.875 . S
C960 C523 1.866 . S
