# Generated by pormake.
# Topology sra, (4)-cn, num edge types: 1
# Building blocks:
#     Node 0, Type 0, BuildingBlock: AZAVOO_clean_sbu_0, # of connection points: 4
#     Node 1, Type 0, BuildingBlock: AZAVOO_clean_sbu_0, # of connection points: 4
#     Node 2, Type 0, BuildingBlock: AZAVOO_clean_sbu_0, # of connection points: 4
#     Node 3, Type 0, BuildingBlock: AZAVOO_clean_sbu_0, # of connection points: 4
#     Node 4, Type 0, BuildingBlock: AZAVOO_clean_sbu_0, # of connection points: 4
#     Node 5, Type 0, BuildingBlock: AZAVOO_clean_sbu_0, # of connection points: 4
#     Node 6, Type 0, BuildingBlock: AZAVOO_clean_sbu_0, # of connection points: 4
#     Node 7, Type 0, BuildingBlock: AZAVOO_clean_sbu_0, # of connection points: 4
#     Edge 8, Type (0, 0), BuildingBlock: UVAHIK_clean_linker_0, # of connection points: 2
#     Edge 9, Type (0, 0), BuildingBlock: UVAHIK_clean_linker_0, # of connection points: 2
#     Edge 10, Type (0, 0), BuildingBlock: UVAHIK_clean_linker_0, # of connection points: 2
#     Edge 11, Type (0, 0), BuildingBlock: UVAHIK_clean_linker_0, # of connection points: 2
#     Edge 12, Type (0, 0), BuildingBlock: UVAHIK_clean_linker_0, # of connection points: 2
#     Edge 13, Type (0, 0), BuildingBlock: UVAHIK_clean_linker_0, # of connection points: 2
#     Edge 14, Type (0, 0), BuildingBlock: UVAHIK_clean_linker_0, # of connection points: 2
#     Edge 15, Type (0, 0), BuildingBlock: UVAHIK_clean_linker_0, # of connection points: 2
#     Edge 16, Type (0, 0), BuildingBlock: UVAHIK_clean_linker_0, # of connection points: 2
#     Edge 17, Type (0, 0), BuildingBlock: UVAHIK_clean_linker_0, # of connection points: 2
#     Edge 18, Type (0, 0), BuildingBlock: UVAHIK_clean_linker_0, # of connection points: 2
#     Edge 19, Type (0, 0), BuildingBlock: UVAHIK_clean_linker_0, # of connection points: 2
#     Edge 20, Type (0, 0), BuildingBlock: UVAHIK_clean_linker_0, # of connection points: 2
#     Edge 21, Type (0, 0), BuildingBlock: UVAHIK_clean_linker_0, # of connection points: 2
#     Edge 22, Type (0, 0), BuildingBlock: UVAHIK_clean_linker_0, # of connection points: 2
#     Edge 23, Type (0, 0), BuildingBlock: UVAHIK_clean_linker_0, # of connection points: 2
# Relax obj value: 0.077
# Max RMSD: 0.073
# Mean RMSD: 0.073
data_MOF--net-sra--node1-AZAVOO_clean_sbu_0--edge1-UVAHIK_clean_linker_0
_symmetry_space_group_name_H-M    P1
_symmetry_Int_Tables_number       1
_symmetry_cell_setting            triclinic
loop_
_symmetry_equiv_pos_as_xyz
'x, y, z'
_cell_length_a     34.640868
_cell_length_b     50.658548
_cell_length_c     57.001578
_cell_angle_alpha  89.863994
_cell_angle_beta   90.087384
_cell_angle_gamma 89.991286
loop_
_atom_site_label
_atom_site_type_symbol
_atom_site_fract_x
_atom_site_fract_y
_atom_site_fract_z
_atom_type_partial_charge
Mg0 Mg 0.01433 0.02747 0.16268 0.0
O1 O 0.02186 0.07266 0.16322 0.0
O2 O 0.08047 0.08331 0.14991 0.0
Mg3 Mg 0.10801 0.04513 0.13734 0.0
C4 C 0.04782 0.08976 0.15848 0.0
C5 C 0.94454 0.04671 0.19045 0.0
O6 O 0.97366 0.05813 0.20117 0.0
O7 O 0.00129 0.02982 0.1236 0.0
O8 O 0.05929 0.04184 0.10999 0.0
O9 O 0.04314 0.02442 0.19726 0.0
O10 O 0.07427 0.023 0.16345 0.0
C11 C 0.02363 0.03643 0.10681 0.0
C12 C 0.07557 0.02407 0.18603 0.0
O13 O 0.9512 0.03241 0.1726 0.0
Mg14 Mg -0.00549 0.42976 0.15784 0.0
O15 O -0.00913 0.38452 0.15567 0.0
O16 O 0.93406 0.37442 0.13936 0.0
Mg17 Mg 0.90263 0.41263 0.13015 0.0
C18 C 0.96617 0.36759 0.14856 0.0
C19 C 0.06703 0.44397 0.18353 0.0
O20 O 0.04061 0.4605 0.19108 0.0
O21 O 0.00771 0.43278 0.11891 0.0
O22 O 0.94984 0.42378 0.10345 0.0
O23 O 0.96483 0.4291 0.19229 0.0
O24 O 0.93454 0.43267 0.15828 0.0
C25 C 0.98535 0.43022 0.10124 0.0
C26 C 0.93266 0.4306 0.18078 0.0
O27 O 0.05778 0.42737 0.16783 0.0
Mg28 Mg 0.01804 0.97201 0.81136 0.0
O29 O 0.02628 0.92759 0.81822 0.0
O30 O 0.08586 0.92054 0.83194 0.0
Mg31 Mg 0.11427 0.96082 0.83637 0.0
C32 C 0.05291 0.91207 0.82534 0.0
C33 C 0.94584 0.94775 0.78908 0.0
O34 O 0.97388 0.93389 0.77969 0.0
O35 O 0.00837 0.97849 0.85056 0.0
O36 O 0.06839 0.97164 0.86366 0.0
O37 O 0.0445 0.96761 0.77601 0.0
O38 O 0.07767 0.97653 0.80816 0.0
C39 C 0.03293 0.97725 0.86726 0.0
C40 C 0.0776 0.97081 0.78616 0.0
O41 O 0.95417 0.96527 0.80421 0.0
Mg42 Mg -0.00165 0.57124 0.83084 0.0
O43 O -0.00364 0.61645 0.83425 0.0
O44 O 0.93983 0.62707 0.85054 0.0
Mg45 Mg 0.9066 0.58916 0.85826 0.0
C46 C 0.97233 0.63359 0.84175 0.0
C47 C 0.07333 0.58592 0.80428 0.0
O48 O 0.04797 0.6002 0.7927 0.0
O49 O 0.01049 0.56672 0.86984 0.0
O50 O 0.95268 0.57615 0.88506 0.0
O51 O 0.96908 0.57324 0.79611 0.0
O52 O 0.93832 0.56951 0.82986 0.0
C53 C 0.98789 0.56901 0.88738 0.0
C54 C 0.93673 0.572 0.80739 0.0
O55 O 0.06219 0.57257 0.82192 0.0
Mg56 Mg 0.51216 0.52491 0.67065 0.0
O57 O 0.52122 0.56955 0.66531 0.0
O58 O 0.57973 0.57608 0.6498 0.0
Mg59 Mg 0.60572 0.53567 0.64243 0.0
C60 C 0.54788 0.58486 0.65787 0.0
C61 C 0.43705 0.52081 0.69813 0.0
O62 O 0.46014 0.50439 0.70921 0.0
O63 O 0.49838 0.52071 0.63183 0.0
O64 O 0.55654 0.52806 0.61612 0.0
O65 O 0.54184 0.52741 0.70506 0.0
O66 O 0.57185 0.51933 0.67163 0.0
C67 C 0.52051 0.5231 0.61407 0.0
C68 C 0.5739 0.5243 0.69377 0.0
O69 O 0.44942 0.53253 0.67991 0.0
Mg70 Mg 0.50247 0.92591 0.65062 0.0
O71 O 0.50062 0.88085 0.64621 0.0
O72 O 0.44558 0.87094 0.6277 0.0
Mg73 Mg 0.41351 0.90923 0.61945 0.0
C74 C 0.47714 0.86403 0.63754 0.0
C75 C 0.57386 0.94132 0.67725 0.0
O76 O 0.54722 0.95822 0.68383 0.0
O77 O 0.51825 0.93152 0.61237 0.0
O78 O 0.46214 0.92284 0.59455 0.0
O79 O 0.47061 0.92268 0.68413 0.0
O80 O 0.44244 0.92778 0.64958 0.0
C81 C 0.49757 0.92991 0.59389 0.0
C82 C 0.43917 0.92432 0.67189 0.0
O83 O 0.56516 0.92406 0.66201 0.0
Mg84 Mg 0.50974 0.47006 0.32058 0.0
O85 O 0.51914 0.4252 0.32381 0.0
O86 O 0.57774 0.4176 0.33884 0.0
Mg87 Mg 0.60366 0.4576 0.34801 0.0
C88 C 0.5458 0.40939 0.3304 0.0
C89 C 0.43979 0.44711 0.29452 0.0
O90 O 0.46868 0.43459 0.28462 0.0
O91 O 0.49649 0.47185 0.35955 0.0
O92 O 0.55482 0.46376 0.37483 0.0
O93 O 0.53883 0.46997 0.28602 0.0
O94 O 0.56938 0.4757 0.31972 0.0
C95 C 0.51879 0.46855 0.37715 0.0
C96 C 0.57106 0.4723 0.29733 0.0
O97 O 0.44681 0.46319 0.31108 0.0
Mg98 Mg 0.49877 0.06795 0.32538 0.0
O99 O 0.49625 0.11305 0.32928 0.0
O100 O 0.44088 0.12286 0.34736 0.0
Mg101 Mg 0.40918 0.08444 0.35569 0.0
C102 C 0.47248 0.12984 0.33767 0.0
C103 C 0.57045 0.05308 0.29908 0.0
O104 O 0.54373 0.03663 0.29173 0.0
O105 O 0.51402 0.06318 0.36378 0.0
O106 O 0.45759 0.07159 0.38122 0.0
O107 O 0.46733 0.07035 0.29157 0.0
O108 O 0.43887 0.06561 0.32602 0.0
C109 C 0.49317 0.06488 0.38214 0.0
C110 C 0.43579 0.06858 0.30363 0.0
O111 O 0.56159 0.06996 0.3146 0.0
C112 C 0.01221 0.33012 0.15572 0.0
C113 C 0.97445 0.33909 0.15149 0.0
C114 C 0.01976 0.30313 0.15829 0.0
C115 C 0.9768 0.23737 0.14573 0.0
H116 H 0.05594 0.21262 0.18866 0.0
C117 C 0.00087 0.12677 0.16462 0.0
C118 C 0.03915 0.11812 0.16182 0.0
C119 C -0.00758 0.15373 0.16553 0.0
C120 C 0.03381 0.21931 0.17658 0.0
H121 H 0.91483 0.32681 0.14728 0.0
H122 H 0.92772 0.28005 0.15248 0.0
H123 H 0.04211 0.2598 0.18587 0.0
H124 H 0.09874 0.13097 0.15894 0.0
H125 H 0.08392 0.178 0.16083 0.0
H126 H 0.96825 0.19679 0.13671 0.0
C127 C 0.9518 0.29366 0.1531 0.0
C128 C 0.02601 0.24633 0.17486 0.0
C129 C 0.94436 0.32055 0.15023 0.0
C130 C 0.06892 0.13698 0.16096 0.0
C131 C 0.0605 0.1639 0.16217 0.0
C132 C 0.98427 0.21038 0.14768 0.0
C133 C 0.98963 0.28454 0.15698 0.0
C134 C -0.00245 0.25574 0.15928 0.0
C135 C 0.02212 0.17254 0.164 0.0
C136 C 0.013 0.20109 0.163 0.0
H137 H 0.03606 0.3439 0.1567 0.0
H138 H 0.04934 0.29685 0.16089 0.0
H139 H 0.95526 0.24383 0.13319 0.0
H140 H 0.97726 0.11277 0.16538 0.0
H141 H 0.9626 0.1599 0.16716 0.0
C142 C 0.00742 0.87357 0.82482 0.0
C143 C 0.04534 0.88331 0.82609 0.0
C144 C 0.00031 0.84645 0.82603 0.0
C145 C 0.04609 0.7831 0.8442 0.0
H146 H 0.96203 0.75267 0.80833 0.0
C147 C 0.01996 0.67034 0.83546 0.0
C148 C 0.98188 0.66201 0.83975 0.0
C149 C 0.02862 0.69723 0.83349 0.0
C150 C 0.98549 0.76095 0.81851 0.0
H151 H 0.1056 0.87213 0.82908 0.0
H152 H 0.09337 0.82489 0.83039 0.0
H153 H 0.9756 0.79974 0.80496 0.0
H154 H 0.92303 0.67544 0.84509 0.0
H155 H 0.93815 0.72224 0.8413 0.0
H156 H 0.0563 0.74401 0.8573 0.0
C157 C 0.06894 0.83817 0.82918 0.0
C158 C -0.00681 0.78795 0.8167 0.0
C159 C 0.07601 0.8653 0.82828 0.0
C160 C 0.95267 0.68115 0.84187 0.0
C161 C 0.96125 0.70795 0.83956 0.0
C162 C 0.03869 0.75603 0.84574 0.0
C163 C 0.03098 0.82836 0.82822 0.0
C164 C 0.0234 0.79945 0.82967 0.0
C165 C -0.00072 0.71626 0.83538 0.0
C166 C 0.00813 0.74475 0.83307 0.0
H167 H 0.9831 0.88693 0.82327 0.0
H168 H 0.97065 0.83972 0.82564 0.0
H169 H 0.06915 0.79126 0.85477 0.0
H170 H 0.04313 0.6561 0.83375 0.0
H171 H 0.05815 0.70315 0.83015 0.0
C172 C 0.50389 0.62412 0.65895 0.0
C173 C 0.54145 0.61373 0.65797 0.0
C174 C 0.49783 0.65138 0.65768 0.0
C175 C 0.54657 0.71346 0.63915 0.0
H176 H 0.46184 0.74618 0.67263 0.0
C177 C 0.52344 0.82678 0.64507 0.0
C178 C 0.48588 0.83552 0.63977 0.0
C179 C 0.5312 0.79983 0.64768 0.0
C180 C 0.48552 0.73725 0.66312 0.0
H181 H 0.60219 0.62381 0.65578 0.0
H182 H 0.59177 0.67127 0.65447 0.0
H183 H 0.47384 0.69905 0.67742 0.0
H184 H 0.42703 0.82277 0.63315 0.0
H185 H 0.44059 0.77585 0.63805 0.0
H186 H 0.55856 0.75198 0.6253 0.0
C187 C 0.56683 0.65843 0.6554 0.0
C188 C 0.49232 0.71022 0.66575 0.0
C189 C 0.57284 0.63119 0.65632 0.0
C190 C 0.45631 0.81673 0.63714 0.0
C191 C 0.46396 0.78987 0.6401 0.0
C192 C 0.54008 0.74057 0.6368 0.0
C193 C 0.52922 0.6689 0.65576 0.0
C194 C 0.52274 0.69789 0.65364 0.0
C195 C 0.50144 0.78117 0.64542 0.0
C196 C 0.50928 0.75265 0.64859 0.0
H197 H 0.47907 0.61118 0.66006 0.0
H198 H 0.46841 0.65861 0.65764 0.0
H199 H 0.56982 0.70466 0.62919 0.0
H200 H 0.54686 0.84075 0.64717 0.0
H201 H 0.56033 0.79359 0.65186 0.0
C202 C 0.5705 0.36294 0.33002 0.0
C203 C 0.53926 0.38059 0.32871 0.0
C204 C 0.56433 0.33571 0.32928 0.0
C205 C 0.49016 0.28496 0.3146 0.0
H206 H 0.55395 0.24039 0.35425 0.0
C207 C 0.45173 0.17718 0.3381 0.0
C208 C 0.48131 0.15836 0.33571 0.0
C209 C 0.45971 0.20409 0.33595 0.0
C210 C 0.53618 0.25259 0.34294 0.0
H211 H 0.47703 0.38347 0.3254 0.0
H212 H 0.46609 0.33602 0.32495 0.0
H213 H 0.56577 0.28778 0.35297 0.0
H214 H 0.54257 0.15311 0.32937 0.0
H215 H 0.55661 0.20033 0.32612 0.0
H216 H 0.45974 0.24964 0.30533 0.0
C217 C 0.49551 0.34314 0.32594 0.0
C218 C 0.543 0.27976 0.34209 0.0
C219 C 0.50174 0.3704 0.32635 0.0
C220 C 0.51914 0.1671 0.33127 0.0
C221 C 0.52722 0.19409 0.32949 0.0
C222 C 0.48302 0.25783 0.31573 0.0
C223 C 0.52672 0.32541 0.32754 0.0
C224 C 0.52002 0.29634 0.32796 0.0
C225 C 0.49753 0.21281 0.33172 0.0
C226 C 0.5059 0.24142 0.32995 0.0
H227 H 0.59982 0.37015 0.33157 0.0
H228 H 0.58916 0.32275 0.33002 0.0
H229 H 0.47235 0.29695 0.30316 0.0
H230 H 0.42224 0.17112 0.34142 0.0
H231 H 0.43636 0.21814 0.33794 0.0
C232 C 0.39527 0.0687 0.26737 0.0
C233 C 0.39773 0.06878 0.29197 0.0
C234 C 0.35962 0.06579 0.25623 0.0
C235 C 0.26216 0.03938 0.2674 0.0
H236 H 0.23777 0.07374 0.20834 0.0
C237 C 0.11258 0.03284 0.22287 0.0
C238 C 0.11241 0.0281 0.19858 0.0
C239 C 0.14711 0.03818 0.23457 0.0
C240 C 0.24438 0.06388 0.22475 0.0
H241 H 0.36452 0.06705 0.32417 0.0
H242 H 0.30225 0.06282 0.30476 0.0
H243 H 0.29796 0.08442 0.22849 0.0
H244 H 0.14859 0.02412 0.16775 0.0
H245 H 0.20879 0.03387 0.18816 0.0
H246 H 0.20834 0.01904 0.26369 0.0
C247 C 0.32797 0.06432 0.29406 0.0
C248 C 0.27882 0.06997 0.23628 0.0
C249 C 0.36366 0.06701 0.30519 0.0
C250 C 0.14759 0.02821 0.18635 0.0
C251 C 0.18208 0.03379 0.19802 0.0
C252 C 0.2276 0.03347 0.25596 0.0
C253 C 0.32562 0.06309 0.26946 0.0
C254 C 0.28822 0.05767 0.25768 0.0
C255 C 0.18211 0.03903 0.2222 0.0
C256 C 0.21852 0.04554 0.23446 0.0
H257 H 0.42103 0.06993 0.25667 0.0
H258 H 0.35896 0.06464 0.23726 0.0
H259 H 0.26881 0.02914 0.2836 0.0
H260 H 0.08596 0.03285 0.23281 0.0
H261 H 0.14633 0.04226 0.25321 0.0
C262 C 0.64323 0.47014 0.29776 0.0
C263 C 0.60833 0.4683 0.28532 0.0
C264 C 0.67828 0.46493 0.28667 0.0
C265 C 0.71913 0.43193 0.23432 0.0
H266 H 0.81 0.47298 0.25004 0.0
C267 C 0.86044 0.43169 0.18041 0.0
C268 C 0.89522 0.43067 0.1931 0.0
C269 C 0.82524 0.43418 0.19209 0.0
C270 C 0.78493 0.46117 0.24569 0.0
H271 H 0.5829 0.46049 0.25122 0.0
H272 H 0.64412 0.45225 0.23167 0.0
H273 H 0.74881 0.48282 0.26911 0.0
H274 H 0.92032 0.43077 0.22801 0.0
H275 H 0.85875 0.43542 0.24836 0.0
H276 H 0.75537 0.41081 0.21039 0.0
C277 C 0.64437 0.45691 0.2502 0.0
C278 C 0.74988 0.46676 0.25661 0.0
C279 C 0.60928 0.46188 0.26136 0.0
C280 C 0.89402 0.43152 0.21773 0.0
C281 C 0.85885 0.4343 0.22938 0.0
C282 C 0.75414 0.42653 0.22321 0.0
C283 C 0.67927 0.45811 0.26278 0.0
C284 C 0.71654 0.4522 0.25108 0.0
C285 C 0.82422 0.43603 0.21664 0.0
C286 C 0.78734 0.44109 0.22883 0.0
H287 H 0.64361 0.47541 0.31613 0.0
H288 H 0.70455 0.46581 0.29696 0.0
H289 H 0.6942 0.42001 0.22994 0.0
H290 H 0.86034 0.43126 0.16144 0.0
H291 H 0.79895 0.43567 0.18185 0.0
C292 C 0.11367 0.95645 0.75032 0.0
C293 C 0.11403 0.96548 0.7736 0.0
C294 C 0.14825 0.95063 0.73881 0.0
C295 C 0.25391 0.96255 0.74273 0.0
H296 H 0.26 0.90293 0.70031 0.0
C297 C 0.39846 0.92446 0.70794 0.0
C298 C 0.40102 0.92353 0.68336 0.0
C299 C 0.36268 0.92722 0.71885 0.0
C300 C 0.25854 0.91964 0.7121 0.0
H301 H 0.15104 0.97621 0.8028 0.0
H302 H 0.21079 0.96492 0.78332 0.0
H303 H 0.19873 0.91326 0.71949 0.0
H304 H 0.36788 0.92337 0.65101 0.0
H305 H 0.30524 0.92763 0.67022 0.0
H306 H 0.31393 0.96848 0.73573 0.0
C307 C 0.18403 0.96275 0.77367 0.0
C308 C 0.22349 0.92571 0.72296 0.0
C309 C 0.1496 0.96889 0.78502 0.0
C310 C 0.36691 0.924 0.66997 0.0
C311 C 0.33104 0.92638 0.68093 0.0
C312 C 0.28896 0.95624 0.73218 0.0
C313 C 0.18386 0.95358 0.75042 0.0
C314 C 0.22079 0.94724 0.73845 0.0
C315 C 0.32878 0.92873 0.70541 0.0
C316 C 0.29159 0.93474 0.71682 0.0
H317 H 0.0867 0.95377 0.74098 0.0
H318 H 0.14704 0.94406 0.72076 0.0
H319 H 0.25277 0.97965 0.75408 0.0
H320 H 0.42419 0.9241 0.71876 0.0
H321 H 0.36155 0.92874 0.73779 0.0
C322 C 0.64606 0.52664 0.69281 0.0
C323 C 0.6114 0.52929 0.70533 0.0
C324 C 0.6813 0.53286 0.70333 0.0
C325 C 0.72303 0.56965 0.75357 0.0
H326 H 0.81399 0.52803 0.73939 0.0
C327 C 0.86449 0.57207 0.80746 0.0
C328 C 0.89936 0.57226 0.79489 0.0
C329 C 0.82929 0.56946 0.79574 0.0
C330 C 0.7889 0.54002 0.74328 0.0
H331 H 0.58664 0.53956 0.73903 0.0
H332 H 0.64821 0.54948 0.75766 0.0
H333 H 0.75257 0.51683 0.72113 0.0
H334 H 0.92459 0.5707 0.7601 0.0
H335 H 0.86297 0.56579 0.73967 0.0
H336 H 0.75948 0.59225 0.77636 0.0
C337 C 0.64812 0.54346 0.73945 0.0
C338 C 0.7537 0.53364 0.73281 0.0
C339 C 0.61282 0.53751 0.72883 0.0
C340 C 0.89822 0.57062 0.77029 0.0
C341 C 0.86303 0.56767 0.7586 0.0
C342 C 0.75819 0.57582 0.76425 0.0
C343 C 0.68277 0.54147 0.72675 0.0
C344 C 0.72029 0.54835 0.73784 0.0
C345 C 0.82832 0.56665 0.77126 0.0
C346 C 0.79142 0.56104 0.7592 0.0
H347 H 0.64611 0.51997 0.67481 0.0
H348 H 0.70733 0.53131 0.69293 0.0
H349 H 0.69808 0.58171 0.75752 0.0
H350 H 0.86429 0.57314 0.8264 0.0
H351 H 0.80295 0.56852 0.80593 0.0
C352 C 0.64064 0.92298 0.68251 0.0
C353 C 0.61244 0.94179 0.68836 0.0
C354 C 0.67651 0.92304 0.6938 0.0
C355 C 0.74165 0.96574 0.72838 0.0
H356 H 0.78718 0.89943 0.74835 0.0
C357 C 0.87677 0.96239 0.78721 0.0
C358 C 0.90593 0.94481 0.78025 0.0
C359 C 0.84009 0.96111 0.77703 0.0
C360 C 0.77494 0.91808 0.74273 0.0
H361 H 0.59987 0.97549 0.71052 0.0
H362 H 0.66209 0.97541 0.73028 0.0
H363 H 0.72549 0.89933 0.72758 0.0
H364 H 0.91904 0.91142 0.75783 0.0
H365 H 0.85518 0.90927 0.74006 0.0
H366 H 0.79106 0.9845 0.74349 0.0
C367 C 0.65676 0.96082 0.71679 0.0
C368 C 0.73969 0.91802 0.73078 0.0
C369 C 0.62098 0.96077 0.70553 0.0
C370 C 0.89724 0.92531 0.76355 0.0
C371 C 0.86057 0.92398 0.75344 0.0
C372 C 0.77683 0.9658 0.74036 0.0
C373 C 0.68489 0.94191 0.71114 0.0
C374 C 0.72265 0.94186 0.72348 0.0
C375 C 0.8318 0.94214 0.75977 0.0
C376 C 0.79386 0.94198 0.74767 0.0
H377 H 0.63495 0.90812 0.66932 0.0
H378 H 0.69778 0.90841 0.68885 0.0
H379 H 0.7296 0.98441 0.72267 0.0
H380 H 0.8825 0.97758 0.8001 0.0
H381 H 0.8183 0.97512 0.78252 0.0
C382 C 0.37476 0.5461 0.69726 0.0
C383 C 0.39858 0.52704 0.7079 0.0
C384 C 0.3395 0.55305 0.70744 0.0
C385 C 0.26645 0.52981 0.75002 0.0
H386 H 0.238 0.60378 0.75303 0.0
C387 C 0.1387 0.56492 0.80589 0.0
C388 C 0.11293 0.58261 0.79507 0.0
C389 C 0.1744 0.55941 0.79567 0.0
C390 C 0.24543 0.58304 0.75216 0.0
H391 H 0.40378 0.50005 0.73736 0.0
H392 H 0.34263 0.51231 0.75515 0.0
H393 H 0.29774 0.59089 0.73345 0.0
H394 H 0.10522 0.60932 0.76562 0.0
H395 H 0.16756 0.59963 0.74778 0.0
H396 H 0.21429 0.52193 0.76877 0.0
C397 C 0.35091 0.5217 0.73882 0.0
C398 C 0.27956 0.57564 0.74088 0.0
C399 C 0.38609 0.51476 0.72866 0.0
C400 C 0.12437 0.59555 0.77437 0.0
C401 C 0.16015 0.59007 0.76418 0.0
C402 C 0.23244 0.5372 0.76132 0.0
C403 C 0.32733 0.54106 0.72844 0.0
C404 C 0.29052 0.54894 0.73977 0.0
C405 C 0.18518 0.57151 0.77446 0.0
C406 C 0.22161 0.56389 0.76261 0.0
H407 H 0.38354 0.5559 0.68122 0.0
H408 H 0.32174 0.56778 0.69884 0.0
H409 H 0.27371 0.50904 0.74912 0.0
H410 H 0.1309 0.55473 0.82192 0.0
H411 H 0.1934 0.54538 0.80423 0.0
C412 C 0.61782 0.03457 0.27056 0.0
C413 C 0.60947 0.05244 0.28867 0.0
C414 C 0.65416 0.03431 0.26008 0.0
C415 C 0.74042 0.07558 0.25077 0.0
H416 H 0.78769 0.0089 0.23379 0.0
C417 C 0.89801 0.0664 0.21888 0.0
C418 C 0.90519 0.04908 0.20016 0.0
C419 C 0.86155 0.06752 0.22921 0.0
C420 C 0.77464 0.02768 0.23819 0.0
H421 H 0.6329 0.08383 0.31024 0.0
H422 H 0.69673 0.0831 0.29213 0.0
H423 H 0.72553 0.00908 0.25375 0.0
H424 H 0.87956 0.01979 0.17722 0.0
H425 H 0.81574 0.02181 0.19529 0.0
H426 H 0.78983 0.09413 0.23536 0.0
C427 C 0.67489 0.06957 0.2858 0.0
C428 C 0.73907 0.0278 0.24964 0.0
C429 C 0.63842 0.06988 0.29627 0.0
C430 C 0.87493 0.03331 0.19164 0.0
C431 C 0.83849 0.03433 0.20208 0.0
C432 C 0.77611 0.07545 0.2394 0.0
C433 C 0.6831 0.05184 0.26752 0.0
C434 C 0.72146 0.05175 0.25598 0.0
C435 C 0.83156 0.05127 0.22111 0.0
C436 C 0.7935 0.0515 0.23292 0.0
H437 H 0.59612 0.02093 0.26422 0.0
H438 H 0.65933 0.02067 0.24582 0.0
H439 H 0.72737 0.09437 0.2551 0.0
H440 H 0.9207 0.07885 0.22583 0.0
H441 H 0.85715 0.08061 0.24396 0.0
C442 C 0.11468 0.46174 0.21231 0.0
C443 C 0.10597 0.44398 0.19417 0.0
C444 C 0.15079 0.46134 0.22313 0.0
C445 C 0.23534 0.4187 0.2335 0.0
H446 H 0.2846 0.48482 0.25016 0.0
C447 C 0.39281 0.4263 0.26683 0.0
C448 C 0.4003 0.44431 0.285 0.0
C449 C 0.35636 0.42513 0.2564 0.0
C450 C 0.27099 0.46619 0.24588 0.0
H451 H 0.12851 0.41203 0.17294 0.0
H452 H 0.19201 0.41159 0.19168 0.0
H453 H 0.22291 0.48539 0.22965 0.0
H454 H 0.37503 0.47457 0.30705 0.0
H455 H 0.3113 0.47243 0.28887 0.0
H456 H 0.28377 0.39956 0.24963 0.0
C457 C 0.1706 0.42557 0.19773 0.0
C458 C 0.23567 0.46651 0.2341 0.0
C459 C 0.13434 0.42594 0.1869 0.0
C460 C 0.37024 0.46056 0.29302 0.0
C461 C 0.33382 0.45946 0.28251 0.0
C462 C 0.27079 0.4184 0.24524 0.0
C463 C 0.17916 0.44324 0.21602 0.0
C464 C 0.21733 0.44278 0.22787 0.0
C465 C 0.32668 0.44201 0.26387 0.0
C466 C 0.28888 0.44215 0.25165 0.0
H467 H 0.09343 0.47581 0.21842 0.0
H468 H 0.15623 0.47494 0.23739 0.0
H469 H 0.2217 0.40008 0.22924 0.0
H470 H 0.41534 0.41346 0.26028 0.0
H471 H 0.3518 0.41161 0.24197 0.0
C472 C 0.02224 0.05639 0.06703 0.0
C473 C 0.00884 0.03701 0.0826 0.0
C474 C 0.01404 0.05464 0.04314 0.0
C475 C 0.96153 0.0158 -0.00274 0.0
H476 H 0.0566 0.02776 0.96302 0.0
C477 C 0.04663 0.97792 0.91013 0.0
C478 C 0.02115 0.98351 0.89158 0.0
C479 C 0.03838 0.98618 0.93281 0.0
C480 C 0.02976 0.02439 0.97231 0.0
H481 H 0.97415 0.00165 0.08594 0.0
H482 H 0.96139 0.99773 0.04388 0.0
H483 H 0.05244 0.04086 0.00367 0.0
H484 H 0.96581 0.00092 0.8826 0.0
H485 H 0.95137 0.01556 0.92272 0.0
H486 H 0.93996 0.99797 0.96564 0.0
C487 C 0.97735 0.01469 0.05011 0.0
C488 C 0.02711 0.03226 -0.00441 0.0
C489 C 0.98482 0.01683 0.07418 0.0
C490 C 0.98609 0.99641 0.89651 0.0
C491 C 0.9778 0.00475 0.91942 0.0
C492 C 0.96424 0.00786 0.97376 0.0
C493 C -0.00671 0.03301 0.03421 0.0
C494 C -0.00671 0.02762 0.00857 0.0
C495 C 0.00448 0.00033 0.9376 0.0
C496 C -0.00115 0.01144 0.96134 0.0
H497 H 0.04024 0.07241 0.07322 0.0
H498 H 0.02574 0.06956 0.0315 0.0
H499 H 0.93493 0.01217 0.0067 0.0
H500 H 0.07358 0.96761 0.9071 0.0
H501 H 0.05903 0.98194 0.94661 0.0
C502 C 0.03106 0.54138 0.91287 0.0
C503 C 0.0008 0.55976 0.91074 0.0
C504 C 0.03734 0.5281 0.9341 0.0
C505 C 0.97954 0.50671 0.98411 0.0
H506 H 0.07653 0.48318 0.01104 0.0
C507 C 0.0296 0.45652 0.07545 0.0
C508 C -0.00104 0.43848 0.07776 0.0
C509 C 0.03643 0.46912 0.05398 0.0
C510 C 0.04927 0.48964 0.00368 0.0
H511 H 0.9563 0.58077 0.92982 0.0
H512 H 0.96781 0.55814 0.96687 0.0
H513 H 0.07681 0.51323 0.97718 0.0
H514 H 0.95444 0.41724 0.05882 0.0
H515 H 0.96697 0.43866 0.02135 0.0
H516 H 0.95179 0.48376 0.01052 0.0
C517 C 0.98585 0.55331 0.95198 0.0
C518 C 0.04943 0.50673 0.98429 0.0
C519 C 0.97938 0.56638 0.93078 0.0
C520 C 0.97781 0.4314 0.05771 0.0
C521 C 0.98486 0.44378 0.03626 0.0
C522 C 0.97937 0.48968 0.00329 0.0
C523 C 0.01361 0.53314 0.95356 0.0
C524 C 0.01448 0.51558 0.97444 0.0
C525 C 0.01292 0.46372 0.03445 0.0
C526 C 0.01415 0.48088 0.01331 0.0
H527 H 0.04813 0.53587 0.89774 0.0
H528 H 0.05898 0.51269 0.93478 0.0
H529 H 0.95209 0.5127 0.97668 0.0
H530 H 0.04647 0.46236 0.09059 0.0
H531 H 0.05829 0.48438 0.05315 0.0
C532 C 0.4703 0.48657 0.4056 0.0
C533 C 0.50312 0.47105 0.40113 0.0
C534 C 0.45832 0.49111 0.42869 0.0
C535 C 0.46749 0.51393 0.47833 0.0
H536 H 0.47106 0.46007 0.5268 0.0
C537 C 0.52306 0.53167 0.57107 0.0
C538 C 0.50459 0.51967 0.59023 0.0
C539 C 0.51039 0.52693 0.54826 0.0
C540 C 0.46912 0.47529 0.51347 0.0
H541 H 0.54762 0.44681 0.41712 0.0
H542 H 0.52648 0.45446 0.45722 0.0
H543 H 0.47066 0.44711 0.48551 0.0
H544 H 0.4576 0.49393 0.60065 0.0
H545 H 0.43604 0.48499 0.5604 0.0
H546 H 0.4684 0.54214 0.50628 0.0
C547 C 0.51009 0.4632 0.44298 0.0
C548 C 0.46916 0.46788 0.48988 0.0
C549 C 0.52242 0.45904 0.42003 0.0
C550 C 0.47234 0.50346 0.58618 0.0
C551 C 0.46006 0.4983 0.56322 0.0
C552 C 0.46788 0.52134 0.50192 0.0
C553 C 0.47849 0.47975 0.44759 0.0
C554 C 0.46977 0.48716 0.47212 0.0
C555 C 0.47931 0.50979 0.54406 0.0
C556 C 0.47013 0.5021 0.51966 0.0
H557 H 0.45488 0.49608 0.39136 0.0
H558 H 0.43386 0.50395 0.43181 0.0
H559 H 0.46816 0.5292 0.465 0.0
H560 H 0.54781 0.54442 0.57367 0.0
H561 H 0.52609 0.53577 0.53381 0.0
C562 C 0.49463 0.93365 0.55017 0.0
C563 C 0.51337 0.93964 0.57138 0.0
C564 C 0.50518 0.94643 0.52943 0.0
C565 C 0.54237 0.97105 0.4861 0.0
H566 H 0.53719 0.0472 0.49261 0.0
C567 C 0.54195 0.0394 0.40549 0.0
C568 C 0.50918 0.0558 0.40486 0.0
C569 C 0.55296 0.02692 0.42635 0.0
C570 C 0.53918 0.02599 0.49057 0.0
H571 H 0.55943 0.9626 0.58719 0.0
H572 H 0.57741 0.98523 0.55091 0.0
H573 H 0.53826 0.0193 0.52766 0.0
H574 H 0.46418 0.07362 0.426 0.0
H575 H 0.48372 0.0521 0.46241 0.0
H576 H 0.5416 0.97768 0.44901 0.0
C577 C 0.55461 0.9706 0.55043 0.0
C578 C 0.54008 0.01004 0.51058 0.0
C579 C 0.54443 0.95753 0.57114 0.0
C580 C 0.4894 0.06097 0.42586 0.0
C581 C 0.50072 0.04876 0.44675 0.0
C582 C 0.54194 0.98701 0.46609 0.0
C583 C 0.53439 0.96567 0.52953 0.0
C584 C 0.54048 0.98239 0.50852 0.0
C585 C 0.53181 0.03095 0.44702 0.0
C586 C 0.53915 0.0146 0.46813 0.0
H587 H 0.47073 0.91987 0.54976 0.0
H588 H 0.48892 0.94236 0.5136 0.0
H589 H 0.54283 0.9498 0.48404 0.0
H590 H 0.55787 0.03502 0.38963 0.0
H591 H 0.57723 0.01343 0.42615 0.0
loop_
_geom_bond_atom_site_label_1
_geom_bond_atom_site_label_2
_geom_bond_distance
_geom_bond_site_symmetry_2
_ccdc_geom_bond_type
Mg0 O1 2.028 . S
Mg0 O7 1.986 . S
Mg0 O9 2.114 . S
Mg0 O10 2.251 . S
Mg0 O13 2.010 1_455 S
O1 Mg0 2.028 . S
O1 C4 1.250 . S
O2 Mg3 2.028 . S
O2 C4 1.248 . S
Mg3 O2 2.028 . S
Mg3 O8 2.032 . S
Mg3 O10 2.079 . S
C4 O1 1.250 . S
C4 O2 1.248 . S
C5 O6 1.264 . S
C5 O13 1.249 . S
O6 C5 1.264 . S
O7 Mg0 1.986 . S
O7 C11 1.246 . S
O8 Mg3 2.032 . S
O8 C11 1.259 . S
O9 Mg0 2.114 . S
O9 C12 1.252 . S
O10 Mg0 2.251 . S
O10 Mg3 2.079 . S
O10 C12 1.273 . S
C11 O7 1.246 . S
C11 O8 1.259 . S
C12 O9 1.252 . S
C12 O10 1.273 . S
O13 Mg0 2.010 1_655 S
O13 C5 1.249 . S
Mg14 O15 2.028 . S
Mg14 O21 1.986 . S
Mg14 O23 2.114 1_455 S
Mg14 O24 2.251 1_455 S
Mg14 O27 2.010 . S
O15 Mg14 2.028 . S
O15 C18 1.250 . S
O16 Mg17 2.028 . S
O16 C18 1.248 1_655 S
Mg17 O16 2.028 . S
Mg17 O22 2.032 . S
Mg17 O24 2.079 . S
C18 O15 1.250 . S
C18 O16 1.248 1_455 S
C19 O20 1.264 . S
C19 O27 1.249 . S
O20 C19 1.264 . S
O21 Mg14 1.986 . S
O21 C25 1.246 . S
O22 Mg17 2.032 . S
O22 C25 1.259 1_655 S
O23 Mg14 2.114 1_655 S
O23 C26 1.252 . S
O24 Mg14 2.251 1_655 S
O24 Mg17 2.079 . S
O24 C26 1.273 . S
C25 O21 1.246 . S
C25 O22 1.259 1_455 S
C26 O23 1.252 . S
C26 O24 1.273 . S
O27 Mg14 2.010 . S
O27 C19 1.249 . S
Mg28 O29 2.028 . S
Mg28 O35 1.986 . S
Mg28 O37 2.114 . S
Mg28 O38 2.251 . S
Mg28 O41 2.010 1_455 S
O29 Mg28 2.028 . S
O29 C32 1.250 . S
O30 Mg31 2.028 . S
O30 C32 1.248 . S
Mg31 O30 2.028 . S
Mg31 O36 2.032 . S
Mg31 O38 2.079 . S
C32 O29 1.250 . S
C32 O30 1.248 . S
C33 O34 1.264 . S
C33 O41 1.249 . S
O34 C33 1.264 . S
O35 Mg28 1.986 . S
O35 C39 1.246 . S
O36 Mg31 2.032 . S
O36 C39 1.259 . S
O37 Mg28 2.114 . S
O37 C40 1.252 . S
O38 Mg28 2.251 . S
O38 Mg31 2.079 . S
O38 C40 1.273 . S
C39 O35 1.246 . S
C39 O36 1.259 . S
C40 O37 1.252 . S
C40 O38 1.273 . S
O41 Mg28 2.010 1_655 S
O41 C33 1.249 . S
Mg42 O43 2.028 . S
Mg42 O49 1.986 . S
Mg42 O51 2.114 1_455 S
Mg42 O52 2.251 1_455 S
Mg42 O55 2.010 . S
O43 Mg42 2.028 . S
O43 C46 1.250 . S
O44 Mg45 2.028 . S
O44 C46 1.248 1_655 S
Mg45 O44 2.028 . S
Mg45 O50 2.032 . S
Mg45 O52 2.079 . S
C46 O43 1.250 . S
C46 O44 1.248 1_455 S
C47 O48 1.264 . S
C47 O55 1.249 . S
O48 C47 1.264 . S
O49 Mg42 1.986 . S
O49 C53 1.246 . S
O50 Mg45 2.032 . S
O50 C53 1.259 1_655 S
O51 Mg42 2.114 1_655 S
O51 C54 1.252 . S
O52 Mg42 2.251 1_655 S
O52 Mg45 2.079 . S
O52 C54 1.273 . S
C53 O49 1.246 . S
C53 O50 1.259 1_455 S
C54 O51 1.252 . S
C54 O52 1.273 . S
O55 Mg42 2.010 . S
O55 C47 1.249 . S
Mg56 O57 2.028 . S
Mg56 O63 1.986 . S
Mg56 O65 2.114 . S
Mg56 O66 2.251 . S
Mg56 O69 2.010 . S
O57 Mg56 2.028 . S
O57 C60 1.250 . S
O58 Mg59 2.028 . S
O58 C60 1.248 . S
Mg59 O58 2.028 . S
Mg59 O64 2.032 . S
Mg59 O66 2.079 . S
C60 O57 1.250 . S
C60 O58 1.248 . S
C61 O62 1.264 . S
C61 O69 1.249 . S
O62 C61 1.264 . S
O63 Mg56 1.986 . S
O63 C67 1.246 . S
O64 Mg59 2.032 . S
O64 C67 1.259 . S
O65 Mg56 2.114 . S
O65 C68 1.252 . S
O66 Mg56 2.251 . S
O66 Mg59 2.079 . S
O66 C68 1.273 . S
C67 O63 1.246 . S
C67 O64 1.259 . S
C68 O65 1.252 . S
C68 O66 1.273 . S
O69 Mg56 2.010 . S
O69 C61 1.249 . S
Mg70 O71 2.028 . S
Mg70 O77 1.986 . S
Mg70 O79 2.114 . S
Mg70 O80 2.251 . S
Mg70 O83 2.010 . S
O71 Mg70 2.028 . S
O71 C74 1.250 . S
O72 Mg73 2.028 . S
O72 C74 1.248 . S
Mg73 O72 2.028 . S
Mg73 O78 2.032 . S
Mg73 O80 2.079 . S
C74 O71 1.250 . S
C74 O72 1.248 . S
C75 O76 1.264 . S
C75 O83 1.249 . S
O76 C75 1.264 . S
O77 Mg70 1.986 . S
O77 C81 1.246 . S
O78 Mg73 2.032 . S
O78 C81 1.259 . S
O79 Mg70 2.114 . S
O79 C82 1.252 . S
O80 Mg70 2.251 . S
O80 Mg73 2.079 . S
O80 C82 1.273 . S
C81 O77 1.246 . S
C81 O78 1.259 . S
C82 O79 1.252 . S
C82 O80 1.273 . S
O83 Mg70 2.010 . S
O83 C75 1.249 . S
Mg84 O85 2.028 . S
Mg84 O91 1.986 . S
Mg84 O93 2.114 . S
Mg84 O94 2.251 . S
Mg84 O97 2.010 . S
O85 Mg84 2.028 . S
O85 C88 1.250 . S
O86 Mg87 2.028 . S
O86 C88 1.248 . S
Mg87 O86 2.028 . S
Mg87 O92 2.032 . S
Mg87 O94 2.079 . S
C88 O85 1.250 . S
C88 O86 1.248 . S
C89 O90 1.264 . S
C89 O97 1.249 . S
O90 C89 1.264 . S
O91 Mg84 1.986 . S
O91 C95 1.246 . S
O92 Mg87 2.032 . S
O92 C95 1.259 . S
O93 Mg84 2.114 . S
O93 C96 1.252 . S
O94 Mg84 2.251 . S
O94 Mg87 2.079 . S
O94 C96 1.273 . S
C95 O91 1.246 . S
C95 O92 1.259 . S
C96 O93 1.252 . S
C96 O94 1.273 . S
O97 Mg84 2.010 . S
O97 C89 1.249 . S
Mg98 O99 2.028 . S
Mg98 O105 1.986 . S
Mg98 O107 2.114 . S
Mg98 O108 2.251 . S
Mg98 O111 2.010 . S
O99 Mg98 2.028 . S
O99 C102 1.250 . S
O100 Mg101 2.028 . S
O100 C102 1.248 . S
Mg101 O100 2.028 . S
Mg101 O106 2.032 . S
Mg101 O108 2.079 . S
C102 O99 1.250 . S
C102 O100 1.248 . S
C103 O104 1.264 . S
C103 O111 1.249 . S
O104 C103 1.264 . S
O105 Mg98 1.986 . S
O105 C109 1.246 . S
O106 Mg101 2.032 . S
O106 C109 1.259 . S
O107 Mg98 2.114 . S
O107 C110 1.252 . S
O108 Mg98 2.251 . S
O108 Mg101 2.079 . S
O108 C110 1.273 . S
C109 O105 1.246 . S
C109 O106 1.259 . S
C110 O107 1.252 . S
C110 O108 1.273 . S
O111 Mg98 2.010 . S
O111 C103 1.249 . S
C112 C113 1.349 . S
C112 C114 1.327 . S
C112 H137 0.950 . S
C113 C112 1.349 . S
C113 C129 1.349 1_455 S
C114 C112 1.327 . S
C114 C133 1.429 . S
C114 H138 0.950 . S
C115 C132 1.574 . S
C115 C134 1.368 1_655 S
C115 H139 0.949 . S
H116 C120 0.949 . S
C117 C118 1.350 1_655 S
C117 C119 1.327 . S
C117 H140 0.949 . S
C118 C117 1.350 1_455 S
C118 C130 1.349 . S
C119 C117 1.327 . S
C119 C135 1.429 1_655 S
C119 H141 0.950 . S
C120 H116 0.949 . S
C120 C128 1.574 . S
C120 C136 1.368 . S
H121 C129 0.950 . S
H122 C127 0.950 . S
H123 C128 0.949 . S
H124 C130 0.950 . S
H125 C131 0.950 . S
H126 C132 0.949 . S
C127 H122 0.950 . S
C127 C129 1.327 . S
C127 C133 1.429 1_655 S
C128 C120 1.574 . S
C128 H123 0.949 . S
C128 C134 1.368 . S
C129 C113 1.349 1_655 S
C129 H121 0.950 . S
C129 C127 1.327 . S
C130 C118 1.349 . S
C130 H124 0.950 . S
C130 C131 1.327 . S
C131 H125 0.950 . S
C131 C130 1.327 . S
C131 C135 1.429 . S
C132 C115 1.574 . S
C132 H126 0.949 . S
C132 C136 1.368 1_655 S
C133 C114 1.429 . S
C133 C127 1.429 1_455 S
C133 C134 1.523 . S
C134 C115 1.368 1_455 S
C134 C128 1.368 . S
C134 C133 1.523 . S
C135 C119 1.429 1_455 S
C135 C131 1.429 . S
C135 C136 1.523 . S
C136 C120 1.368 . S
C136 C132 1.368 1_455 S
C136 C135 1.523 . S
H137 C112 0.950 . S
H138 C114 0.950 . S
H139 C115 0.949 . S
H140 C117 0.949 . S
H141 C119 0.950 . S
C142 C143 1.350 1_655 S
C142 C144 1.327 . S
C142 H167 0.949 . S
C143 C142 1.350 1_455 S
C143 C159 1.349 . S
C144 C142 1.327 . S
C144 C163 1.429 1_655 S
C144 H168 0.950 . S
C145 C162 1.574 . S
C145 C164 1.368 . S
C145 H169 0.949 . S
H146 C150 0.949 . S
C147 C148 1.349 . S
C147 C149 1.327 . S
C147 H170 0.950 . S
C148 C147 1.349 . S
C148 C160 1.349 1_455 S
C149 C147 1.327 . S
C149 C165 1.429 . S
C149 H171 0.950 . S
C150 H146 0.949 . S
C150 C158 1.574 . S
C150 C166 1.368 1_655 S
H151 C159 0.950 . S
H152 C157 0.950 . S
H153 C158 0.949 . S
H154 C160 0.950 . S
H155 C161 0.950 . S
H156 C162 0.949 . S
C157 H152 0.950 . S
C157 C159 1.327 . S
C157 C163 1.429 . S
C158 C150 1.574 . S
C158 H153 0.949 . S
C158 C164 1.368 1_655 S
C159 C143 1.349 . S
C159 H151 0.950 . S
C159 C157 1.327 . S
C160 C148 1.349 1_655 S
C160 H154 0.950 . S
C160 C161 1.327 . S
C161 H155 0.950 . S
C161 C160 1.327 . S
C161 C165 1.429 1_655 S
C162 C145 1.574 . S
C162 H156 0.949 . S
C162 C166 1.368 . S
C163 C144 1.429 1_455 S
C163 C157 1.429 . S
C163 C164 1.523 . S
C164 C145 1.368 . S
C164 C158 1.368 1_455 S
C164 C163 1.523 . S
C165 C149 1.429 . S
C165 C161 1.429 1_455 S
C165 C166 1.523 . S
C166 C150 1.368 1_455 S
C166 C162 1.368 . S
C166 C165 1.523 . S
H167 C142 0.949 . S
H168 C144 0.950 . S
H169 C145 0.949 . S
H170 C147 0.950 . S
H171 C149 0.950 . S
C172 C173 1.349 . S
C172 C174 1.327 . S
C172 H197 0.950 . S
C173 C172 1.349 . S
C173 C189 1.349 . S
C174 C172 1.327 . S
C174 C193 1.429 . S
C174 H198 0.950 . S
C175 C192 1.574 . S
C175 C194 1.368 . S
C175 H199 0.949 . S
H176 C180 0.949 . S
C177 C178 1.349 . S
C177 C179 1.327 . S
C177 H200 0.950 . S
C178 C177 1.349 . S
C178 C190 1.349 . S
C179 C177 1.327 . S
C179 C195 1.429 . S
C179 H201 0.950 . S
C180 H176 0.949 . S
C180 C188 1.574 . S
C180 C196 1.368 . S
H181 C189 0.950 . S
H182 C187 0.950 . S
H183 C188 0.949 . S
H184 C190 0.950 . S
H185 C191 0.950 . S
H186 C192 0.949 . S
C187 H182 0.950 . S
C187 C189 1.327 . S
C187 C193 1.429 . S
C188 C180 1.574 . S
C188 H183 0.949 . S
C188 C194 1.368 . S
C189 C173 1.349 . S
C189 H181 0.950 . S
C189 C187 1.327 . S
C190 C178 1.349 . S
C190 H184 0.950 . S
C190 C191 1.327 . S
C191 H185 0.950 . S
C191 C190 1.327 . S
C191 C195 1.429 . S
C192 C175 1.574 . S
C192 H186 0.949 . S
C192 C196 1.368 . S
C193 C174 1.429 . S
C193 C187 1.429 . S
C193 C194 1.523 . S
C194 C175 1.368 . S
C194 C188 1.368 . S
C194 C193 1.523 . S
C195 C179 1.429 . S
C195 C191 1.429 . S
C195 C196 1.523 . S
C196 C180 1.368 . S
C196 C192 1.368 . S
C196 C195 1.523 . S
H197 C172 0.950 . S
H198 C174 0.950 . S
H199 C175 0.949 . S
H200 C177 0.950 . S
H201 C179 0.950 . S
C202 C203 1.349 . S
C202 C204 1.327 . S
C202 H227 0.950 . S
C203 C202 1.349 . S
C203 C219 1.349 . S
C204 C202 1.327 . S
C204 C223 1.429 . S
C204 H228 0.950 . S
C205 C222 1.574 . S
C205 C224 1.368 . S
C205 H229 0.949 . S
H206 C210 0.949 . S
C207 C208 1.349 . S
C207 C209 1.327 . S
C207 H230 0.950 . S
C208 C207 1.349 . S
C208 C220 1.349 . S
C209 C207 1.327 . S
C209 C225 1.429 . S
C209 H231 0.950 . S
C210 H206 0.949 . S
C210 C218 1.574 . S
C210 C226 1.368 . S
H211 C219 0.950 . S
H212 C217 0.950 . S
H213 C218 0.949 . S
H214 C220 0.950 . S
H215 C221 0.950 . S
H216 C222 0.949 . S
C217 H212 0.950 . S
C217 C219 1.327 . S
C217 C223 1.429 . S
C218 C210 1.574 . S
C218 H213 0.949 . S
C218 C224 1.368 . S
C219 C203 1.349 . S
C219 H211 0.950 . S
C219 C217 1.327 . S
C220 C208 1.349 . S
C220 H214 0.950 . S
C220 C221 1.327 . S
C221 H215 0.950 . S
C221 C220 1.327 . S
C221 C225 1.429 . S
C222 C205 1.574 . S
C222 H216 0.949 . S
C222 C226 1.368 . S
C223 C204 1.429 . S
C223 C217 1.429 . S
C223 C224 1.523 . S
C224 C205 1.368 . S
C224 C218 1.368 . S
C224 C223 1.523 . S
C225 C209 1.429 . S
C225 C221 1.429 . S
C225 C226 1.523 . S
C226 C210 1.368 . S
C226 C222 1.368 . S
C226 C225 1.523 . S
H227 C202 0.950 . S
H228 C204 0.950 . S
H229 C205 0.949 . S
H230 C207 0.950 . S
H231 C209 0.950 . S
C232 C233 1.349 . S
C232 C234 1.327 . S
C232 H257 0.950 . S
C233 C232 1.349 . S
C233 C249 1.349 . S
C234 C232 1.327 . S
C234 C253 1.429 . S
C234 H258 0.950 . S
C235 C252 1.574 . S
C235 C254 1.368 . S
C235 H259 0.949 . S
H236 C240 0.949 . S
C237 C238 1.349 . S
C237 C239 1.327 . S
C237 H260 0.950 . S
C238 C237 1.349 . S
C238 C250 1.349 . S
C239 C237 1.327 . S
C239 C255 1.429 . S
C239 H261 0.950 . S
C240 H236 0.949 . S
C240 C248 1.574 . S
C240 C256 1.368 . S
H241 C249 0.950 . S
H242 C247 0.950 . S
H243 C248 0.949 . S
H244 C250 0.950 . S
H245 C251 0.950 . S
H246 C252 0.949 . S
C247 H242 0.950 . S
C247 C249 1.327 . S
C247 C253 1.429 . S
C248 C240 1.574 . S
C248 H243 0.949 . S
C248 C254 1.368 . S
C249 C233 1.349 . S
C249 H241 0.950 . S
C249 C247 1.327 . S
C250 C238 1.349 . S
C250 H244 0.950 . S
C250 C251 1.327 . S
C251 H245 0.950 . S
C251 C250 1.327 . S
C251 C255 1.429 . S
C252 C235 1.574 . S
C252 H246 0.949 . S
C252 C256 1.368 . S
C253 C234 1.429 . S
C253 C247 1.429 . S
C253 C254 1.523 . S
C254 C235 1.368 . S
C254 C248 1.368 . S
C254 C253 1.523 . S
C255 C239 1.429 . S
C255 C251 1.429 . S
C255 C256 1.523 . S
C256 C240 1.368 . S
C256 C252 1.368 . S
C256 C255 1.523 . S
H257 C232 0.950 . S
H258 C234 0.950 . S
H259 C235 0.949 . S
H260 C237 0.950 . S
H261 C239 0.950 . S
C262 C263 1.349 . S
C262 C264 1.327 . S
C262 H287 0.950 . S
C263 C262 1.349 . S
C263 C279 1.349 . S
C264 C262 1.327 . S
C264 C283 1.429 . S
C264 H288 0.950 . S
C265 C282 1.574 . S
C265 C284 1.368 . S
C265 H289 0.949 . S
H266 C270 0.949 . S
C267 C268 1.349 . S
C267 C269 1.327 . S
C267 H290 0.950 . S
C268 C267 1.349 . S
C268 C280 1.349 . S
C269 C267 1.327 . S
C269 C285 1.429 . S
C269 H291 0.950 . S
C270 H266 0.949 . S
C270 C278 1.574 . S
C270 C286 1.368 . S
H271 C279 0.950 . S
H272 C277 0.950 . S
H273 C278 0.949 . S
H274 C280 0.950 . S
H275 C281 0.950 . S
H276 C282 0.949 . S
C277 H272 0.950 . S
C277 C279 1.327 . S
C277 C283 1.429 . S
C278 C270 1.574 . S
C278 H273 0.949 . S
C278 C284 1.368 . S
C279 C263 1.349 . S
C279 H271 0.950 . S
C279 C277 1.327 . S
C280 C268 1.349 . S
C280 H274 0.950 . S
C280 C281 1.327 . S
C281 H275 0.950 . S
C281 C280 1.327 . S
C281 C285 1.429 . S
C282 C265 1.574 . S
C282 H276 0.949 . S
C282 C286 1.368 . S
C283 C264 1.429 . S
C283 C277 1.429 . S
C283 C284 1.523 . S
C284 C265 1.368 . S
C284 C278 1.368 . S
C284 C283 1.523 . S
C285 C269 1.429 . S
C285 C281 1.429 . S
C285 C286 1.523 . S
C286 C270 1.368 . S
C286 C282 1.368 . S
C286 C285 1.523 . S
H287 C262 0.950 . S
H288 C264 0.950 . S
H289 C265 0.949 . S
H290 C267 0.950 . S
H291 C269 0.950 . S
C292 C293 1.349 . S
C292 C294 1.327 . S
C292 H317 0.950 . S
C293 C292 1.349 . S
C293 C309 1.349 . S
C294 C292 1.327 . S
C294 C313 1.429 . S
C294 H318 0.950 . S
C295 C312 1.574 . S
C295 C314 1.368 . S
C295 H319 0.949 . S
H296 C300 0.949 . S
C297 C298 1.349 . S
C297 C299 1.327 . S
C297 H320 0.950 . S
C298 C297 1.349 . S
C298 C310 1.349 . S
C299 C297 1.327 . S
C299 C315 1.429 . S
C299 H321 0.950 . S
C300 H296 0.949 . S
C300 C308 1.574 . S
C300 C316 1.368 . S
H301 C309 0.950 . S
H302 C307 0.950 . S
H303 C308 0.949 . S
H304 C310 0.950 . S
H305 C311 0.950 . S
H306 C312 0.949 . S
C307 H302 0.950 . S
C307 C309 1.327 . S
C307 C313 1.429 . S
C308 C300 1.574 . S
C308 H303 0.949 . S
C308 C314 1.368 . S
C309 C293 1.349 . S
C309 H301 0.950 . S
C309 C307 1.327 . S
C310 C298 1.349 . S
C310 H304 0.950 . S
C310 C311 1.327 . S
C311 H305 0.950 . S
C311 C310 1.327 . S
C311 C315 1.429 . S
C312 C295 1.574 . S
C312 H306 0.949 . S
C312 C316 1.368 . S
C313 C294 1.429 . S
C313 C307 1.429 . S
C313 C314 1.523 . S
C314 C295 1.368 . S
C314 C308 1.368 . S
C314 C313 1.523 . S
C315 C299 1.429 . S
C315 C311 1.429 . S
C315 C316 1.523 . S
C316 C300 1.368 . S
C316 C312 1.368 . S
C316 C315 1.523 . S
H317 C292 0.950 . S
H318 C294 0.950 . S
H319 C295 0.949 . S
H320 C297 0.950 . S
H321 C299 0.950 . S
C322 C323 1.349 . S
C322 C324 1.327 . S
C322 H347 0.950 . S
C323 C322 1.349 . S
C323 C339 1.349 . S
C324 C322 1.327 . S
C324 C343 1.429 . S
C324 H348 0.950 . S
C325 C342 1.574 . S
C325 C344 1.368 . S
C325 H349 0.949 . S
H326 C330 0.949 . S
C327 C328 1.349 . S
C327 C329 1.327 . S
C327 H350 0.950 . S
C328 C327 1.349 . S
C328 C340 1.349 . S
C329 C327 1.327 . S
C329 C345 1.429 . S
C329 H351 0.950 . S
C330 H326 0.949 . S
C330 C338 1.574 . S
C330 C346 1.368 . S
H331 C339 0.950 . S
H332 C337 0.950 . S
H333 C338 0.949 . S
H334 C340 0.950 . S
H335 C341 0.950 . S
H336 C342 0.949 . S
C337 H332 0.950 . S
C337 C339 1.327 . S
C337 C343 1.429 . S
C338 C330 1.574 . S
C338 H333 0.949 . S
C338 C344 1.368 . S
C339 C323 1.349 . S
C339 H331 0.950 . S
C339 C337 1.327 . S
C340 C328 1.349 . S
C340 H334 0.950 . S
C340 C341 1.327 . S
C341 H335 0.950 . S
C341 C340 1.327 . S
C341 C345 1.429 . S
C342 C325 1.574 . S
C342 H336 0.949 . S
C342 C346 1.368 . S
C343 C324 1.429 . S
C343 C337 1.429 . S
C343 C344 1.523 . S
C344 C325 1.368 . S
C344 C338 1.368 . S
C344 C343 1.523 . S
C345 C329 1.429 . S
C345 C341 1.429 . S
C345 C346 1.523 . S
C346 C330 1.368 . S
C346 C342 1.368 . S
C346 C345 1.523 . S
H347 C322 0.950 . S
H348 C324 0.950 . S
H349 C325 0.949 . S
H350 C327 0.950 . S
H351 C329 0.950 . S
C352 C353 1.349 . S
C352 C354 1.327 . S
C352 H377 0.950 . S
C353 C352 1.349 . S
C353 C369 1.349 . S
C354 C352 1.327 . S
C354 C373 1.429 . S
C354 H378 0.950 . S
C355 C372 1.574 . S
C355 C374 1.368 . S
C355 H379 0.949 . S
H356 C360 0.949 . S
C357 C358 1.349 . S
C357 C359 1.327 . S
C357 H380 0.950 . S
C358 C357 1.349 . S
C358 C370 1.349 . S
C359 C357 1.327 . S
C359 C375 1.429 . S
C359 H381 0.950 . S
C360 H356 0.949 . S
C360 C368 1.574 . S
C360 C376 1.368 . S
H361 C369 0.950 . S
H362 C367 0.950 . S
H363 C368 0.949 . S
H364 C370 0.950 . S
H365 C371 0.950 . S
H366 C372 0.949 . S
C367 H362 0.950 . S
C367 C369 1.327 . S
C367 C373 1.429 . S
C368 C360 1.574 . S
C368 H363 0.949 . S
C368 C374 1.368 . S
C369 C353 1.349 . S
C369 H361 0.950 . S
C369 C367 1.327 . S
C370 C358 1.349 . S
C370 H364 0.950 . S
C370 C371 1.327 . S
C371 H365 0.950 . S
C371 C370 1.327 . S
C371 C375 1.429 . S
C372 C355 1.574 . S
C372 H366 0.949 . S
C372 C376 1.368 . S
C373 C354 1.429 . S
C373 C367 1.429 . S
C373 C374 1.523 . S
C374 C355 1.368 . S
C374 C368 1.368 . S
C374 C373 1.523 . S
C375 C359 1.429 . S
C375 C371 1.429 . S
C375 C376 1.523 . S
C376 C360 1.368 . S
C376 C372 1.368 . S
C376 C375 1.523 . S
H377 C352 0.950 . S
H378 C354 0.950 . S
H379 C355 0.949 . S
H380 C357 0.950 . S
H381 C359 0.950 . S
C382 C383 1.349 . S
C382 C384 1.327 . S
C382 H407 0.950 . S
C383 C382 1.349 . S
C383 C399 1.349 . S
C384 C382 1.327 . S
C384 C403 1.429 . S
C384 H408 0.950 . S
C385 C402 1.574 . S
C385 C404 1.368 . S
C385 H409 0.949 . S
H386 C390 0.949 . S
C387 C388 1.349 . S
C387 C389 1.327 . S
C387 H410 0.950 . S
C388 C387 1.349 . S
C388 C400 1.349 . S
C389 C387 1.327 . S
C389 C405 1.429 . S
C389 H411 0.950 . S
C390 H386 0.949 . S
C390 C398 1.574 . S
C390 C406 1.368 . S
H391 C399 0.950 . S
H392 C397 0.950 . S
H393 C398 0.949 . S
H394 C400 0.950 . S
H395 C401 0.950 . S
H396 C402 0.949 . S
C397 H392 0.950 . S
C397 C399 1.327 . S
C397 C403 1.429 . S
C398 C390 1.574 . S
C398 H393 0.949 . S
C398 C404 1.368 . S
C399 C383 1.349 . S
C399 H391 0.950 . S
C399 C397 1.327 . S
C400 C388 1.349 . S
C400 H394 0.950 . S
C400 C401 1.327 . S
C401 H395 0.950 . S
C401 C400 1.327 . S
C401 C405 1.429 . S
C402 C385 1.574 . S
C402 H396 0.949 . S
C402 C406 1.368 . S
C403 C384 1.429 . S
C403 C397 1.429 . S
C403 C404 1.523 . S
C404 C385 1.368 . S
C404 C398 1.368 . S
C404 C403 1.523 . S
C405 C389 1.429 . S
C405 C401 1.429 . S
C405 C406 1.523 . S
C406 C390 1.368 . S
C406 C402 1.368 . S
C406 C405 1.523 . S
H407 C382 0.950 . S
H408 C384 0.950 . S
H409 C385 0.949 . S
H410 C387 0.950 . S
H411 C389 0.950 . S
C412 C413 1.349 . S
C412 C414 1.327 . S
C412 H437 0.950 . S
C413 C412 1.349 . S
C413 C429 1.349 . S
C414 C412 1.327 . S
C414 C433 1.429 . S
C414 H438 0.950 . S
C415 C432 1.574 . S
C415 C434 1.368 . S
C415 H439 0.949 . S
H416 C420 0.949 . S
C417 C418 1.349 . S
C417 C419 1.327 . S
C417 H440 0.950 . S
C418 C417 1.349 . S
C418 C430 1.349 . S
C419 C417 1.327 . S
C419 C435 1.429 . S
C419 H441 0.950 . S
C420 H416 0.949 . S
C420 C428 1.574 . S
C420 C436 1.368 . S
H421 C429 0.950 . S
H422 C427 0.950 . S
H423 C428 0.949 . S
H424 C430 0.950 . S
H425 C431 0.950 . S
H426 C432 0.949 . S
C427 H422 0.950 . S
C427 C429 1.327 . S
C427 C433 1.429 . S
C428 C420 1.574 . S
C428 H423 0.949 . S
C428 C434 1.368 . S
C429 C413 1.349 . S
C429 H421 0.950 . S
C429 C427 1.327 . S
C430 C418 1.349 . S
C430 H424 0.950 . S
C430 C431 1.327 . S
C431 H425 0.950 . S
C431 C430 1.327 . S
C431 C435 1.429 . S
C432 C415 1.574 . S
C432 H426 0.949 . S
C432 C436 1.368 . S
C433 C414 1.429 . S
C433 C427 1.429 . S
C433 C434 1.523 . S
C434 C415 1.368 . S
C434 C428 1.368 . S
C434 C433 1.523 . S
C435 C419 1.429 . S
C435 C431 1.429 . S
C435 C436 1.523 . S
C436 C420 1.368 . S
C436 C432 1.368 . S
C436 C435 1.523 . S
H437 C412 0.950 . S
H438 C414 0.950 . S
H439 C415 0.949 . S
H440 C417 0.950 . S
H441 C419 0.950 . S
C442 C443 1.349 . S
C442 C444 1.327 . S
C442 H467 0.950 . S
C443 C442 1.349 . S
C443 C459 1.349 . S
C444 C442 1.327 . S
C444 C463 1.429 . S
C444 H468 0.950 . S
C445 C462 1.574 . S
C445 C464 1.368 . S
C445 H469 0.949 . S
H446 C450 0.949 . S
C447 C448 1.349 . S
C447 C449 1.327 . S
C447 H470 0.950 . S
C448 C447 1.349 . S
C448 C460 1.349 . S
C449 C447 1.327 . S
C449 C465 1.429 . S
C449 H471 0.950 . S
C450 H446 0.949 . S
C450 C458 1.574 . S
C450 C466 1.368 . S
H451 C459 0.950 . S
H452 C457 0.950 . S
H453 C458 0.949 . S
H454 C460 0.950 . S
H455 C461 0.950 . S
H456 C462 0.949 . S
C457 H452 0.950 . S
C457 C459 1.327 . S
C457 C463 1.429 . S
C458 C450 1.574 . S
C458 H453 0.949 . S
C458 C464 1.368 . S
C459 C443 1.349 . S
C459 H451 0.950 . S
C459 C457 1.327 . S
C460 C448 1.349 . S
C460 H454 0.950 . S
C460 C461 1.327 . S
C461 H455 0.950 . S
C461 C460 1.327 . S
C461 C465 1.429 . S
C462 C445 1.574 . S
C462 H456 0.949 . S
C462 C466 1.368 . S
C463 C444 1.429 . S
C463 C457 1.429 . S
C463 C464 1.523 . S
C464 C445 1.368 . S
C464 C458 1.368 . S
C464 C463 1.523 . S
C465 C449 1.429 . S
C465 C461 1.429 . S
C465 C466 1.523 . S
C466 C450 1.368 . S
C466 C462 1.368 . S
C466 C465 1.523 . S
H467 C442 0.950 . S
H468 C444 0.950 . S
H469 C445 0.949 . S
H470 C447 0.950 . S
H471 C449 0.950 . S
C472 C473 1.349 . S
C472 C474 1.327 . S
C472 H497 0.950 . S
C473 C472 1.349 . S
C473 C489 1.349 . S
C474 C472 1.327 . S
C474 C493 1.429 . S
C474 H498 0.950 . S
C475 C492 1.574 1_554 S
C475 C494 1.368 1_565 S
C475 H499 0.949 . S
H476 C480 0.949 . S
C477 C478 1.349 . S
C477 C479 1.327 . S
C477 H500 0.950 . S
C478 C477 1.349 . S
C478 C490 1.349 . S
C479 C477 1.327 . S
C479 C495 1.429 . S
C479 H501 0.950 . S
C480 H476 0.949 . S
C480 C488 1.574 1_556 S
C480 C496 1.368 1_545 S
H481 C489 0.950 1_565 S
H482 C487 0.977 . S
H483 C488 0.949 . S
H484 C490 0.950 1_545 S
H485 C491 0.977 . S
H486 C492 0.949 . S
C487 H482 0.977 . S
C487 C489 1.318 1_565 S
C487 C493 1.411 1_565 S
C488 C480 1.574 1_554 S
C488 H483 0.949 . S
C488 C494 1.368 . S
C489 C473 1.349 . S
C489 H481 0.950 1_545 S
C489 C487 1.318 1_545 S
C490 C478 1.349 . S
C490 H484 0.950 1_565 S
C490 C491 1.318 1_565 S
C491 H485 0.977 . S
C491 C490 1.318 1_545 S
C491 C495 1.411 1_545 S
C492 C475 1.574 1_556 S
C492 H486 0.949 . S
C492 C496 1.368 . S
C493 C474 1.429 . S
C493 C487 1.411 1_545 S
C493 C494 1.523 . S
C494 C475 1.368 1_545 S
C494 C488 1.368 . S
C494 C493 1.523 . S
C495 C479 1.429 . S
C495 C491 1.411 1_565 S
C495 C496 1.523 . S
C496 C480 1.368 1_565 S
C496 C492 1.368 . S
C496 C495 1.523 . S
H497 C472 0.950 . S
H498 C474 0.950 . S
H499 C475 0.949 . S
H500 C477 0.950 . S
H501 C479 0.950 . S
C502 C503 1.349 . S
C502 C504 1.327 . S
C502 H527 0.950 . S
C503 C502 1.349 . S
C503 C519 1.349 1_455 S
C504 C502 1.327 . S
C504 C523 1.429 . S
C504 H528 0.950 . S
C505 C522 1.574 1_556 S
C505 C524 1.368 1_655 S
C505 H529 0.949 . S
H506 C510 0.949 . S
C507 C508 1.349 1_655 S
C507 C509 1.327 . S
C507 H530 0.950 . S
C508 C507 1.349 1_455 S
C508 C520 1.349 . S
C509 C507 1.327 . S
C509 C525 1.429 1_655 S
C509 H531 0.950 . S
C510 H506 0.949 . S
C510 C518 1.574 1_554 S
C510 C526 1.368 . S
H511 C519 0.950 . S
H512 C517 0.950 . S
H513 C518 0.949 . S
H514 C520 0.950 . S
H515 C521 0.950 . S
H516 C522 0.949 . S
C517 H512 0.950 . S
C517 C519 1.327 . S
C517 C523 1.429 1_655 S
C518 C510 1.574 1_556 S
C518 H513 0.949 . S
C518 C524 1.368 . S
C519 C503 1.349 1_655 S
C519 H511 0.950 . S
C519 C517 1.327 . S
C520 C508 1.349 . S
C520 H514 0.950 . S
C520 C521 1.327 . S
C521 H515 0.950 . S
C521 C520 1.327 . S
C521 C525 1.429 . S
C522 C505 1.574 1_554 S
C522 H516 0.949 . S
C522 C526 1.368 1_655 S
C523 C504 1.429 . S
C523 C517 1.429 1_455 S
C523 C524 1.523 . S
C524 C505 1.368 1_455 S
C524 C518 1.368 . S
C524 C523 1.523 . S
C525 C509 1.429 1_455 S
C525 C521 1.429 . S
C525 C526 1.523 . S
C526 C510 1.368 . S
C526 C522 1.368 1_455 S
C526 C525 1.523 . S
H527 C502 0.950 . S
H528 C504 0.950 . S
H529 C505 0.949 . S
H530 C507 0.950 . S
H531 C509 0.950 . S
C532 C533 1.349 . S
C532 C534 1.327 . S
C532 H557 0.950 . S
C533 C532 1.349 . S
C533 C549 1.349 . S
C534 C532 1.327 . S
C534 C553 1.429 . S
C534 H558 0.950 . S
C535 C552 1.574 . S
C535 C554 1.368 . S
C535 H559 0.949 . S
H536 C540 0.949 . S
C537 C538 1.349 . S
C537 C539 1.327 . S
C537 H560 0.950 . S
C538 C537 1.349 . S
C538 C550 1.349 . S
C539 C537 1.327 . S
C539 C555 1.429 . S
C539 H561 0.950 . S
C540 H536 0.949 . S
C540 C548 1.574 . S
C540 C556 1.368 . S
H541 C549 0.950 . S
H542 C547 0.950 . S
H543 C548 0.949 . S
H544 C550 0.950 . S
H545 C551 0.950 . S
H546 C552 0.949 . S
C547 H542 0.950 . S
C547 C549 1.327 . S
C547 C553 1.429 . S
C548 C540 1.574 . S
C548 H543 0.949 . S
C548 C554 1.368 . S
C549 C533 1.349 . S
C549 H541 0.950 . S
C549 C547 1.327 . S
C550 C538 1.349 . S
C550 H544 0.950 . S
C550 C551 1.327 . S
C551 H545 0.950 . S
C551 C550 1.327 . S
C551 C555 1.429 . S
C552 C535 1.574 . S
C552 H546 0.949 . S
C552 C556 1.368 . S
C553 C534 1.429 . S
C553 C547 1.429 . S
C553 C554 1.523 . S
C554 C535 1.368 . S
C554 C548 1.368 . S
C554 C553 1.523 . S
C555 C539 1.429 . S
C555 C551 1.429 . S
C555 C556 1.523 . S
C556 C540 1.368 . S
C556 C552 1.368 . S
C556 C555 1.523 . S
H557 C532 0.950 . S
H558 C534 0.950 . S
H559 C535 0.949 . S
H560 C537 0.950 . S
H561 C539 0.950 . S
C562 C563 1.349 . S
C562 C564 1.327 . S
C562 H587 0.950 . S
C563 C562 1.349 . S
C563 C579 1.349 . S
C564 C562 1.327 . S
C564 C583 1.429 . S
C564 H588 0.950 . S
C565 C582 1.574 . S
C565 C584 1.368 1_545 S
C565 H589 0.949 . S
H566 C570 0.949 . S
C567 C568 1.349 . S
C567 C569 1.327 . S
C567 H590 0.950 . S
C568 C567 1.349 . S
C568 C580 1.349 . S
C569 C567 1.327 . S
C569 C585 1.429 . S
C569 H591 0.950 . S
C570 H566 0.949 . S
C570 C578 1.574 . S
C570 C586 1.368 1_565 S
H571 C579 0.950 . S
H572 C577 0.950 1_545 S
H573 C578 0.949 . S
H574 C580 0.950 . S
H575 C581 0.950 1_565 S
H576 C582 0.949 . S
C577 H572 0.950 1_565 S
C577 C579 1.327 . S
C577 C583 1.429 . S
C578 C570 1.574 . S
C578 H573 0.949 . S
C578 C584 1.368 . S
C579 C563 1.349 . S
C579 H571 0.950 . S
C579 C577 1.327 . S
C580 C568 1.349 . S
C580 H574 0.950 . S
C580 C581 1.327 . S
C581 H575 0.950 1_545 S
C581 C580 1.327 . S
C581 C585 1.429 . S
C582 C565 1.574 . S
C582 H576 0.949 . S
C582 C586 1.368 . S
C583 C564 1.429 . S
C583 C577 1.429 . S
C583 C584 1.523 . S
C584 C565 1.368 1_565 S
C584 C578 1.368 . S
C584 C583 1.523 . S
C585 C569 1.429 . S
C585 C581 1.429 . S
C585 C586 1.523 . S
C586 C570 1.368 1_545 S
C586 C582 1.368 . S
C586 C585 1.523 . S
H587 C562 0.950 . S
H588 C564 0.950 . S
H589 C565 0.949 . S
H590 C567 0.950 . S
H591 C569 0.950 . S
C113 C18 1.465 . S
C118 C4 1.465 . S
C143 C32 1.465 . S
C148 C46 1.465 . S
C173 C60 1.465 . S
C178 C74 1.465 . S
C203 C88 1.465 . S
C208 C102 1.465 . S
C233 C110 1.451 . S
C238 C12 1.451 . S
C263 C96 1.451 . S
C268 C26 1.451 . S
C293 C40 1.451 . S
C298 C82 1.451 . S
C323 C68 1.451 . S
C328 C54 1.451 . S
C353 C75 1.197 . S
C358 C33 1.197 . S
C383 C61 1.197 . S
C388 C47 1.197 . S
C413 C103 1.197 . S
C418 C5 1.197 . S
C443 C19 1.197 . S
C448 C89 1.197 . S
C473 C11 1.292 . S
C478 C39 1.292 . S
C503 C53 1.292 . S
C508 C25 1.292 . S
C533 C95 1.292 . S
C538 C67 1.292 . S
C563 C81 1.292 . S
C568 C109 1.292 . S
