# Generated by pormake.
# Topology reo-e, (6)-cn, num edge types: 1
# Building blocks:
#     Node 0, Type 0, BuildingBlock: MIDCAF_clean_sbu_0, # of connection points: 6
#     Node 1, Type 0, BuildingBlock: MIDCAF_clean_sbu_0, # of connection points: 6
#     Node 2, Type 0, BuildingBlock: MIDCAF_clean_sbu_0, # of connection points: 6
#     Node 3, Type 0, BuildingBlock: MIDCAF_clean_sbu_0, # of connection points: 6
#     Node 4, Type 0, BuildingBlock: MIDCAF_clean_sbu_0, # of connection points: 6
#     Node 5, Type 0, BuildingBlock: MIDCAF_clean_sbu_0, # of connection points: 6
#     Node 6, Type 0, BuildingBlock: MIDCAF_clean_sbu_0, # of connection points: 6
#     Node 7, Type 0, BuildingBlock: MIDCAF_clean_sbu_0, # of connection points: 6
#     Node 8, Type 0, BuildingBlock: MIDCAF_clean_sbu_0, # of connection points: 6
#     Node 9, Type 0, BuildingBlock: MIDCAF_clean_sbu_0, # of connection points: 6
#     Node 10, Type 0, BuildingBlock: MIDCAF_clean_sbu_0, # of connection points: 6
#     Node 11, Type 0, BuildingBlock: MIDCAF_clean_sbu_0, # of connection points: 6
#     Edge 12, Type (0, 0), BuildingBlock: KIFKEQ_clean_linker_1, # of connection points: 2
#     Edge 13, Type (0, 0), BuildingBlock: KIFKEQ_clean_linker_1, # of connection points: 2
#     Edge 14, Type (0, 0), BuildingBlock: KIFKEQ_clean_linker_1, # of connection points: 2
#     Edge 15, Type (0, 0), BuildingBlock: KIFKEQ_clean_linker_1, # of connection points: 2
#     Edge 16, Type (0, 0), BuildingBlock: KIFKEQ_clean_linker_1, # of connection points: 2
#     Edge 17, Type (0, 0), BuildingBlock: KIFKEQ_clean_linker_1, # of connection points: 2
#     Edge 18, Type (0, 0), BuildingBlock: KIFKEQ_clean_linker_1, # of connection points: 2
#     Edge 19, Type (0, 0), BuildingBlock: KIFKEQ_clean_linker_1, # of connection points: 2
#     Edge 20, Type (0, 0), BuildingBlock: KIFKEQ_clean_linker_1, # of connection points: 2
#     Edge 21, Type (0, 0), BuildingBlock: KIFKEQ_clean_linker_1, # of connection points: 2
#     Edge 22, Type (0, 0), BuildingBlock: KIFKEQ_clean_linker_1, # of connection points: 2
#     Edge 23, Type (0, 0), BuildingBlock: KIFKEQ_clean_linker_1, # of connection points: 2
#     Edge 24, Type (0, 0), BuildingBlock: KIFKEQ_clean_linker_1, # of connection points: 2
#     Edge 25, Type (0, 0), BuildingBlock: KIFKEQ_clean_linker_1, # of connection points: 2
#     Edge 26, Type (0, 0), BuildingBlock: KIFKEQ_clean_linker_1, # of connection points: 2
#     Edge 27, Type (0, 0), BuildingBlock: KIFKEQ_clean_linker_1, # of connection points: 2
#     Edge 28, Type (0, 0), BuildingBlock: KIFKEQ_clean_linker_1, # of connection points: 2
#     Edge 29, Type (0, 0), BuildingBlock: KIFKEQ_clean_linker_1, # of connection points: 2
#     Edge 30, Type (0, 0), BuildingBlock: KIFKEQ_clean_linker_1, # of connection points: 2
#     Edge 31, Type (0, 0), BuildingBlock: KIFKEQ_clean_linker_1, # of connection points: 2
#     Edge 32, Type (0, 0), BuildingBlock: KIFKEQ_clean_linker_1, # of connection points: 2
#     Edge 33, Type (0, 0), BuildingBlock: KIFKEQ_clean_linker_1, # of connection points: 2
#     Edge 34, Type (0, 0), BuildingBlock: KIFKEQ_clean_linker_1, # of connection points: 2
#     Edge 35, Type (0, 0), BuildingBlock: KIFKEQ_clean_linker_1, # of connection points: 2
#     Edge 36, Type (0, 0), BuildingBlock: KIFKEQ_clean_linker_1, # of connection points: 2
#     Edge 37, Type (0, 0), BuildingBlock: KIFKEQ_clean_linker_1, # of connection points: 2
#     Edge 38, Type (0, 0), BuildingBlock: KIFKEQ_clean_linker_1, # of connection points: 2
#     Edge 39, Type (0, 0), BuildingBlock: KIFKEQ_clean_linker_1, # of connection points: 2
#     Edge 40, Type (0, 0), BuildingBlock: KIFKEQ_clean_linker_1, # of connection points: 2
#     Edge 41, Type (0, 0), BuildingBlock: KIFKEQ_clean_linker_1, # of connection points: 2
#     Edge 42, Type (0, 0), BuildingBlock: KIFKEQ_clean_linker_1, # of connection points: 2
#     Edge 43, Type (0, 0), BuildingBlock: KIFKEQ_clean_linker_1, # of connection points: 2
#     Edge 44, Type (0, 0), BuildingBlock: KIFKEQ_clean_linker_1, # of connection points: 2
#     Edge 45, Type (0, 0), BuildingBlock: KIFKEQ_clean_linker_1, # of connection points: 2
#     Edge 46, Type (0, 0), BuildingBlock: KIFKEQ_clean_linker_1, # of connection points: 2
#     Edge 47, Type (0, 0), BuildingBlock: KIFKEQ_clean_linker_1, # of connection points: 2
# Relax obj value: 0.261
# Max RMSD: 0.248
# Mean RMSD: 0.246
data_MOF--net-reo-e--node1-MIDCAF_clean_sbu_0--edge1-KIFKEQ_clean_linker_1
_symmetry_space_group_name_H-M    P1
_symmetry_Int_Tables_number       1
_symmetry_cell_setting            triclinic
loop_
_symmetry_equiv_pos_as_xyz
'x, y, z'
_cell_length_a     37.875848
_cell_length_b     37.778778
_cell_length_c     37.844909
_cell_angle_alpha  90.120809
_cell_angle_beta   89.905095
_cell_angle_gamma 90.039705
loop_
_atom_site_label
_atom_site_type_symbol
_atom_site_fract_x
_atom_site_fract_y
_atom_site_fract_z
_atom_type_partial_charge
Zn0 Zn 0.144 0.24033 0.49758 0.0
Zn1 Zn 0.24543 0.15253 0.47372 0.0
Zn2 Zn 0.19537 0.19711 0.48162 0.0
C3 C 0.25389 0.20342 0.42138 0.0
C4 C 0.18511 0.1138 0.4656 0.0
O5 O 0.20766 0.22681 0.53112 0.0
O6 O 0.16171 0.26159 0.54126 0.0
C7 C 0.17241 0.26125 0.43164 0.0
O8 O 0.2226 0.21195 0.43178 0.0
O9 O 0.2714 0.18034 0.43782 0.0
O10 O 0.21725 0.1116 0.45713 0.0
O11 O 0.17262 0.14307 0.47791 0.0
O12 O 0.14849 0.26865 0.45377 0.0
O13 O 0.19314 0.23478 0.43702 0.0
O14 O 0.14505 0.16614 0.48551 0.0
O15 O 0.10561 0.20581 0.50265 0.0
C16 C 0.11336 0.17427 0.49503 0.0
O17 O 0.23255 0.2003 0.52676 0.0
O18 O 0.26443 0.15147 0.52277 0.0
C19 C 0.19175 0.25039 0.54996 0.0
C20 C 0.25588 0.17907 0.53953 0.0
Zn21 Zn 0.84209 0.25069 0.48819 0.0
Zn22 Zn 0.74068 0.15047 0.50096 0.0
Zn23 Zn 0.79332 0.19828 0.49445 0.0
C24 C 0.74064 0.19103 0.56224 0.0
C25 C 0.80607 0.11453 0.49231 0.0
O26 O 0.78218 0.22918 0.44618 0.0
O27 O 0.82164 0.27256 0.44559 0.0
C28 C 0.80743 0.26076 0.55253 0.0
O29 O 0.76509 0.20718 0.54495 0.0
O30 O 0.72602 0.16376 0.54966 0.0
O31 O 0.77308 0.10957 0.49326 0.0
O32 O 0.81902 0.14598 0.49392 0.0
O33 O 0.83194 0.27421 0.5343 0.0
O34 O 0.79094 0.23298 0.54163 0.0
O35 O 0.84527 0.17183 0.49054 0.0
O36 O 0.88193 0.21677 0.48199 0.0
C37 C 0.87654 0.18385 0.48463 0.0
O38 O 0.75659 0.20288 0.44895 0.0
O39 O 0.71143 0.16755 0.46091 0.0
C40 C 0.79543 0.25715 0.43197 0.0
C41 C 0.72606 0.19002 0.44105 0.0
Zn42 Zn 0.72845 0.83833 0.49865 0.0
Zn43 Zn 0.82861 0.74097 0.49203 0.0
Zn44 Zn 0.78021 0.79038 0.4956 0.0
C45 C 0.86224 0.80605 0.48345 0.0
C46 C 0.78218 0.72733 0.43777 0.0
O47 O 0.74912 0.78108 0.54386 0.0
O48 O 0.70174 0.81478 0.5377 0.0
C49 C 0.7936 0.87356 0.50642 0.0
O50 O 0.83167 0.81727 0.49318 0.0
O51 O 0.86725 0.77352 0.47757 0.0
O52 O 0.80559 0.71131 0.4552 0.0
O53 O 0.77135 0.7581 0.44764 0.0
O54 O 0.76085 0.87817 0.51082 0.0
O55 O 0.80574 0.84283 0.49817 0.0
O56 O 0.74661 0.7853 0.44854 0.0
O57 O 0.71178 0.83234 0.44888 0.0
C58 C 0.72278 0.80456 0.43388 0.0
O59 O 0.77673 0.75671 0.54281 0.0
O60 O 0.82587 0.72508 0.54216 0.0
C61 C 0.71871 0.7917 0.55476 0.0
C62 C 0.7977 0.73433 0.55745 0.0
Zn63 Zn 0.14399 0.73604 0.50629 0.0
Zn64 Zn 0.25602 0.87214 0.48612 0.0
Zn65 Zn 0.18474 0.78803 0.49241 0.0
C66 C 0.17433 0.86143 0.48633 0.0
C67 C 0.23175 0.80691 0.43763 0.0
O68 O 0.20795 0.76715 0.54026 0.0
O69 O 0.17675 0.7178 0.54345 0.0
C70 C 0.10201 0.79583 0.51176 0.0
O71 O 0.15278 0.83578 0.48877 0.0
O72 O 0.20652 0.85299 0.48502 0.0
O73 O 0.2326 0.82934 0.46252 0.0
O74 O 0.21001 0.78151 0.44164 0.0
O75 O 0.10098 0.7636 0.52055 0.0
O76 O 0.13062 0.80906 0.49898 0.0
O77 O 0.18973 0.7514 0.44705 0.0
O78 O 0.14609 0.71403 0.45794 0.0
C79 C 0.17065 0.72471 0.43797 0.0
O80 O 0.22943 0.7999 0.53176 0.0
O81 O 0.26853 0.84615 0.53147 0.0
C82 C 0.20158 0.73714 0.55469 0.0
C83 C 0.25578 0.81777 0.54508 0.0
Zn84 Zn 0.50144 0.23484 0.14088 0.0
Zn85 Zn 0.49299 0.13826 0.23893 0.0
Zn86 Zn 0.49828 0.18857 0.1894 0.0
C87 C 0.55739 0.17415 0.24913 0.0
C88 C 0.48906 0.10402 0.1739 0.0
O89 O 0.45174 0.22393 0.19281 0.0
O90 O 0.4513 0.25068 0.14091 0.0
C91 C 0.55456 0.25169 0.18797 0.0
O92 O 0.54493 0.1932 0.2239 0.0
O93 O 0.54077 0.1472 0.25984 0.0
O94 O 0.4859 0.09788 0.20651 0.0
O95 O 0.49522 0.1357 0.16283 0.0
O96 O 0.53623 0.26629 0.16432 0.0
O97 O 0.54642 0.22056 0.19916 0.0
O98 O 0.50145 0.16118 0.13737 0.0
O99 O 0.5186 0.20429 0.10194 0.0
C100 C 0.51236 0.17188 0.10693 0.0
O101 O 0.44984 0.19914 0.22049 0.0
O102 O 0.44968 0.15756 0.26169 0.0
C103 C 0.43682 0.24466 0.17033 0.0
C104 C 0.43563 0.18437 0.24767 0.0
Zn105 Zn 0.74112 0.49176 0.14507 0.0
Zn106 Zn 0.83806 0.50192 0.24731 0.0
Zn107 Zn 0.78858 0.49645 0.19552 0.0
C108 C 0.79424 0.56134 0.25169 0.0
C109 C 0.87386 0.4989 0.18317 0.0
O110 O 0.7575 0.44723 0.20253 0.0
O111 O 0.72872 0.44084 0.15206 0.0
C112 C 0.7221 0.54891 0.18732 0.0
O113 O 0.77885 0.54553 0.22578 0.0
O114 O 0.82113 0.548 0.26613 0.0
O115 O 0.87944 0.50253 0.21581 0.0
O116 O 0.84218 0.4959 0.17113 0.0
O117 O 0.70854 0.5284 0.16471 0.0
O118 O 0.75298 0.5425 0.19994 0.0
O119 O 0.81696 0.497 0.14455 0.0
O120 O 0.77381 0.50543 0.10615 0.0
C121 C 0.80637 0.50312 0.11286 0.0
O122 O 0.78233 0.45035 0.22996 0.0
O123 O 0.82461 0.45607 0.27006 0.0
C124 C 0.73725 0.42903 0.18204 0.0
C125 C 0.79896 0.43895 0.25727 0.0
Zn126 Zn 0.48927 0.83933 0.24185 0.0
Zn127 Zn 0.47434 0.73446 0.16233 0.0
Zn128 Zn 0.48005 0.78804 0.20069 0.0
C129 C 0.462 0.79206 0.11914 0.0
C130 C 0.42211 0.72693 0.2118 0.0
O131 O 0.52849 0.77918 0.23219 0.0
O132 O 0.52273 0.8178 0.27574 0.0
C133 C 0.49941 0.86638 0.17506 0.0
O134 O 0.47549 0.80791 0.14605 0.0
O135 O 0.45469 0.75951 0.12078 0.0
O136 O 0.4407 0.70734 0.19217 0.0
O137 O 0.43072 0.75967 0.21627 0.0
O138 O 0.50848 0.87294 0.20647 0.0
O139 O 0.48473 0.83652 0.1675 0.0
O140 O 0.43367 0.79127 0.23603 0.0
O141 O 0.4397 0.84522 0.25782 0.0
C142 C 0.42169 0.81729 0.25455 0.0
O143 O 0.5274 0.75363 0.20634 0.0
O144 O 0.52427 0.71827 0.15993 0.0
C145 C 0.53881 0.79203 0.26197 0.0
C146 C 0.54114 0.72968 0.1863 0.0
Zn147 Zn 0.1196 0.47816 0.25998 0.0
Zn148 Zn 0.25039 0.50667 0.14362 0.0
Zn149 Zn 0.19938 0.49087 0.18474 0.0
C150 C 0.23984 0.56292 0.19231 0.0
C151 C 0.19139 0.49638 0.10072 0.0
O152 O 0.20887 0.43961 0.20947 0.0
O153 O 0.16038 0.45906 0.2311 0.0
C154 C 0.17224 0.53949 0.2592 0.0
O155 O 0.21878 0.54052 0.20666 0.0
O156 O 0.25487 0.55563 0.16335 0.0
O157 O 0.22452 0.49925 0.09822 0.0
O158 O 0.17647 0.49481 0.13122 0.0
O159 O 0.14623 0.52326 0.27381 0.0
O160 O 0.18848 0.52863 0.23076 0.0
O161 O 0.15019 0.4881 0.15463 0.0
O162 O 0.1345 0.48001 0.20839 0.0
C163 C 0.12516 0.48292 0.17646 0.0
O164 O 0.23765 0.44687 0.18836 0.0
O165 O 0.28366 0.46861 0.15967 0.0
C166 C 0.18373 0.4352 0.23135 0.0
C167 C 0.26983 0.44411 0.17771 0.0
Zn168 Zn 0.48537 0.71345 0.85943 0.0
Zn169 Zn 0.50516 0.84228 0.74026 0.0
Zn170 Zn 0.49263 0.79692 0.78804 0.0
C171 C 0.4907 0.87969 0.8027 0.0
C172 C 0.44617 0.80551 0.71715 0.0
O173 O 0.5338 0.75254 0.79481 0.0
O174 O 0.53101 0.70498 0.83213 0.0
C175 C 0.48394 0.79759 0.86242 0.0
O176 O 0.49265 0.84834 0.81565 0.0
O177 O 0.49288 0.88448 0.76975 0.0
O178 O 0.46962 0.82566 0.7045 0.0
O179 O 0.44927 0.79353 0.74882 0.0
O180 O 0.4845 0.76651 0.8499 0.0
O181 O 0.48726 0.82219 0.83978 0.0
O182 O 0.44342 0.77036 0.776 0.0
O183 O 0.46446 0.74472 0.82171 0.0
C184 C 0.44051 0.74566 0.79856 0.0
O185 O 0.54293 0.78009 0.76713 0.0
O186 O 0.55562 0.82735 0.73531 0.0
C187 C 0.54649 0.72333 0.80812 0.0
C188 C 0.56447 0.7976 0.7477 0.0
Zn189 Zn 0.15159 0.50648 0.72728 0.0
Zn190 Zn 0.24733 0.48041 0.82921 0.0
Zn191 Zn 0.20214 0.49704 0.77801 0.0
C192 C 0.18294 0.49157 0.86156 0.0
C193 C 0.26976 0.54374 0.79584 0.0
O194 O 0.2051 0.4535 0.7397 0.0
O195 O 0.16434 0.46373 0.69901 0.0
C196 C 0.11687 0.50016 0.79169 0.0
O197 O 0.17378 0.49605 0.82915 0.0
O198 O 0.21451 0.48472 0.86951 0.0
O199 O 0.27886 0.52071 0.81819 0.0
O200 O 0.24075 0.54035 0.77849 0.0
O201 O 0.11022 0.50245 0.75913 0.0
O202 O 0.14898 0.49906 0.8028 0.0
O203 O 0.21561 0.5473 0.75183 0.0
O204 O 0.17064 0.5544 0.71507 0.0
C205 C 0.19912 0.56561 0.72845 0.0
O206 O 0.2295 0.44613 0.7662 0.0
O207 O 0.26197 0.43301 0.813 0.0
C208 C 0.18902 0.44481 0.71103 0.0
C209 C 0.25071 0.42522 0.78265 0.0
Zn210 Zn 0.48289 0.2493 0.83606 0.0
Zn211 Zn 0.50017 0.146 0.73765 0.0
Zn212 Zn 0.49187 0.19804 0.7857 0.0
C213 C 0.49444 0.11471 0.80411 0.0
C214 C 0.56079 0.18789 0.73529 0.0
O215 O 0.44211 0.22634 0.7741 0.0
O216 O 0.43693 0.26579 0.81723 0.0
C217 C 0.48495 0.1846 0.87095 0.0
O218 O 0.49305 0.1473 0.81387 0.0
O219 O 0.49609 0.1065 0.7718 0.0
O220 O 0.54851 0.15919 0.72342 0.0
O221 O 0.54278 0.20666 0.75737 0.0
O222 O 0.48096 0.21717 0.87727 0.0
O223 O 0.48979 0.17353 0.83907 0.0
O224 O 0.53665 0.23426 0.78125 0.0
O225 O 0.52783 0.27432 0.82333 0.0
C226 C 0.54619 0.26224 0.79815 0.0
O227 O 0.44705 0.20016 0.74868 0.0
O228 O 0.45957 0.1604 0.70738 0.0
C229 C 0.42493 0.25134 0.78963 0.0
C230 C 0.43968 0.18441 0.71941 0.0
Zn231 Zn 0.83857 0.49468 0.74669 0.0
Zn232 Zn 0.74949 0.49838 0.84659 0.0
Zn233 Zn 0.79412 0.4958 0.79637 0.0
C234 C 0.8132 0.48429 0.8782 0.0
C235 C 0.7281 0.44418 0.80181 0.0
O236 O 0.78497 0.54255 0.76312 0.0
O237 O 0.81372 0.5278 0.71441 0.0
C238 C 0.87692 0.50901 0.8066 0.0
O239 O 0.82347 0.49306 0.84698 0.0
O240 O 0.78071 0.48095 0.88483 0.0
O241 O 0.71559 0.46445 0.82523 0.0
O242 O 0.75931 0.44957 0.78941 0.0
O243 O 0.8794 0.51359 0.77368 0.0
O244 O 0.8475 0.49868 0.82023 0.0
O245 O 0.78683 0.4463 0.76519 0.0
O246 O 0.837 0.44319 0.73553 0.0
C247 C 0.80809 0.4293 0.74466 0.0
O248 O 0.76194 0.54492 0.79205 0.0
O249 O 0.73686 0.5496 0.84455 0.0
C250 C 0.79319 0.5485 0.73067 0.0
C251 C 0.74293 0.56238 0.81434 0.0
H252 H 0.20033 0.24599 0.36626 0.0
H253 H 0.15315 0.32999 0.42744 0.0
H254 H 0.20554 0.2861 0.3154 0.0
H255 H 0.15728 0.36939 0.37705 0.0
H256 H 0.12814 0.41474 0.27158 0.0
H257 H 0.12712 0.37049 0.31808 0.0
H258 H 0.2364 0.3455 0.29712 0.0
H259 H 0.23758 0.39048 0.25044 0.0
C260 C 0.19185 0.27309 0.36901 0.0
C261 C 0.17679 0.28487 0.40084 0.0
C262 C 0.19447 0.29594 0.33994 0.0
C263 C 0.18149 0.33074 0.34225 0.0
C264 C 0.16695 0.34253 0.3743 0.0
C265 C 0.16462 0.31992 0.40318 0.0
C266 C 0.15201 0.39989 0.27681 0.0
C267 C 0.18307 0.40636 0.25761 0.0
C268 C 0.15138 0.37449 0.30341 0.0
C269 C 0.18179 0.35487 0.31145 0.0
C270 C 0.21255 0.36019 0.29133 0.0
C271 C 0.21322 0.38588 0.26466 0.0
H272 H 0.57439 0.23943 0.27453 0.0
H273 H 0.61228 0.13202 0.26709 0.0
H274 H 0.62195 0.25345 0.31636 0.0
H275 H 0.66026 0.14622 0.30795 0.0
H276 H 0.65913 0.21387 0.43526 0.0
H277 H 0.62453 0.2194 0.38105 0.0
H278 H 0.71647 0.19216 0.31926 0.0
H279 H 0.75151 0.18782 0.37377 0.0
C280 C 0.5937 0.21928 0.28081 0.0
C281 C 0.58985 0.18468 0.26774 0.0
C282 C 0.62076 0.22726 0.30471 0.0
C283 C 0.64474 0.20093 0.31514 0.0
C284 C 0.64238 0.16708 0.29993 0.0
C285 C 0.61488 0.1589 0.27678 0.0
C286 C 0.67217 0.21031 0.40999 0.0
C287 C 0.70783 0.20049 0.40845 0.0
C288 C 0.65249 0.21364 0.37903 0.0
C289 C 0.66793 0.20624 0.3461 0.0
C290 C 0.70413 0.19822 0.34439 0.0
C291 C 0.7241 0.19582 0.37543 0.0
H292 H 0.75648 0.66104 0.43168 0.0
H293 H 0.77807 0.75562 0.37178 0.0
H294 H 0.74574 0.62843 0.37705 0.0
H295 H 0.7682 0.72264 0.3166 0.0
H296 H 0.82951 0.62268 0.26037 0.0
H297 H 0.81251 0.67163 0.29889 0.0
H298 H 0.71123 0.62222 0.3168 0.0
H299 H 0.72817 0.57342 0.27726 0.0
C300 C 0.75788 0.675 0.40673 0.0
C301 C 0.76835 0.71055 0.40565 0.0
C302 C 0.7514 0.6565 0.37551 0.0
C303 C 0.75619 0.67305 0.34264 0.0
C304 C 0.76421 0.70939 0.34165 0.0
C305 C 0.76995 0.72815 0.37307 0.0
C306 C 0.80308 0.62313 0.27137 0.0
C307 C 0.78016 0.59447 0.26623 0.0
C308 C 0.79322 0.65121 0.29319 0.0
C309 C 0.76063 0.65055 0.31093 0.0
C310 C 0.73646 0.62331 0.30332 0.0
C311 C 0.7461 0.5955 0.28079 0.0
H312 H 0.28321 0.85586 0.42568 0.0
H313 H 0.23489 0.76265 0.38054 0.0
H314 H 0.32508 0.85771 0.37683 0.0
H315 H 0.27722 0.7642 0.33172 0.0
H316 H 0.39388 0.75832 0.28539 0.0
H317 H 0.34351 0.75557 0.32575 0.0
H318 H 0.32621 0.86764 0.31161 0.0
H319 H 0.37603 0.87013 0.2707 0.0
C320 C 0.28144 0.83583 0.40527 0.0
C321 C 0.25609 0.80878 0.40721 0.0
C322 C 0.30528 0.837 0.37717 0.0
C323 C 0.30436 0.81108 0.35049 0.0
C324 C 0.2787 0.7843 0.35211 0.0
C325 C 0.25459 0.78336 0.3801 0.0
C326 C 0.3784 0.78198 0.2898 0.0
C327 C 0.38844 0.81428 0.27454 0.0
C328 C 0.34978 0.78051 0.31314 0.0
C329 C 0.33117 0.81147 0.32199 0.0
C330 C 0.34038 0.84347 0.30557 0.0
C331 C 0.36877 0.84486 0.28211 0.0
H332 H 0.24184 0.67864 0.5565 0.0
H333 H 0.20462 0.76499 0.62106 0.0
H334 H 0.25567 0.64468 0.60917 0.0
H335 H 0.21824 0.73085 0.67442 0.0
H336 H 0.16366 0.62716 0.72348 0.0
H337 H 0.18038 0.67873 0.68897 0.0
H338 H 0.28234 0.63181 0.66813 0.0
H339 H 0.26528 0.57989 0.70326 0.0
C340 C 0.23829 0.69096 0.58215 0.0
C341 C 0.22195 0.72412 0.58495 0.0
C342 C 0.24632 0.67158 0.61242 0.0
C343 C 0.23741 0.68479 0.64602 0.0
C344 C 0.22503 0.71985 0.64884 0.0
C345 C 0.21739 0.73947 0.6184 0.0
C346 C 0.1901 0.62849 0.71257 0.0
C347 C 0.2131 0.59963 0.71567 0.0
C348 C 0.19988 0.65819 0.69304 0.0
C349 C 0.23265 0.65933 0.67557 0.0
C350 C 0.25687 0.63163 0.68119 0.0
C351 C 0.24718 0.60199 0.70125 0.0
H352 H 0.28491 0.24192 0.55896 0.0
H353 H 0.26921 0.13444 0.59385 0.0
H354 H 0.32461 0.25255 0.60912 0.0
H355 H 0.30821 0.14518 0.64426 0.0
H356 H 0.37087 0.18298 0.74052 0.0
H357 H 0.31875 0.18934 0.70221 0.0
H358 H 0.38682 0.21516 0.61438 0.0
H359 H 0.43857 0.20746 0.65214 0.0
C360 C 0.28892 0.22108 0.57814 0.0
C361 C 0.27412 0.18744 0.57279 0.0
C362 C 0.31163 0.2271 0.60665 0.0
C363 C 0.31919 0.19971 0.63052 0.0
C364 C 0.30237 0.16683 0.62647 0.0
C365 C 0.28034 0.16061 0.59757 0.0
C366 C 0.37441 0.19075 0.7132 0.0
C367 C 0.40842 0.19451 0.69896 0.0
C368 C 0.34477 0.19442 0.69142 0.0
C369 C 0.34894 0.20286 0.6555 0.0
C370 C 0.38295 0.20907 0.64208 0.0
C371 C 0.41247 0.20446 0.66353 0.0
H372 H 0.74549 0.4133 0.71331 0.0
H373 H 0.84852 0.37076 0.7364 0.0
H374 H 0.73523 0.36497 0.67113 0.0
H375 H 0.83806 0.32217 0.69499 0.0
H376 H 0.80583 0.23419 0.61962 0.0
H377 H 0.79627 0.26809 0.67451 0.0
H378 H 0.77487 0.36163 0.61281 0.0
H379 H 0.78534 0.32814 0.55855 0.0
C380 C 0.76523 0.39274 0.71051 0.0
C381 C 0.7978 0.39563 0.72792 0.0
C382 C 0.75943 0.36523 0.68636 0.0
C383 C 0.78592 0.33998 0.67979 0.0
C384 C 0.81707 0.34105 0.69982 0.0
C385 C 0.82313 0.3689 0.72337 0.0
C386 C 0.79828 0.26179 0.61804 0.0
C387 C 0.79645 0.2788 0.58518 0.0
C388 C 0.79281 0.28109 0.64927 0.0
C389 C 0.78462 0.31738 0.6478 0.0
C390 C 0.78061 0.33361 0.6147 0.0
C391 C 0.78689 0.31459 0.58371 0.0
H392 H 0.65217 0.7681 0.56472 0.0
H393 H 0.75093 0.78511 0.61873 0.0
H394 H 0.62355 0.75464 0.6208 0.0
H395 H 0.72214 0.77196 0.67544 0.0
H396 H 0.62887 0.82834 0.74481 0.0
H397 H 0.67548 0.81261 0.70327 0.0
H398 H 0.61952 0.71662 0.67651 0.0
H399 H 0.57282 0.73252 0.71838 0.0
C400 C 0.66787 0.76805 0.58864 0.0
C401 C 0.70353 0.77779 0.58767 0.0
C402 C 0.65166 0.75992 0.6207 0.0
C403 C 0.67066 0.76215 0.65252 0.0
C404 C 0.70696 0.76992 0.65128 0.0
C405 C 0.72335 0.77751 0.61899 0.0
C406 C 0.6275 0.80302 0.73136 0.0
C407 C 0.59732 0.78174 0.73446 0.0
C408 C 0.65424 0.7939 0.70765 0.0
C409 C 0.65076 0.7637 0.68621 0.0
C410 C 0.62265 0.74019 0.69256 0.0
C411 C 0.59607 0.74915 0.71665 0.0
H412 H 0.37575 0.1471 0.2564 0.0
H413 H 0.42163 0.24981 0.27477 0.0
H414 H 0.32432 0.16362 0.29116 0.0
H415 H 0.36921 0.2675 0.30853 0.0
H416 H 0.31188 0.24453 0.41762 0.0
H417 H 0.35076 0.24968 0.36664 0.0
H418 H 0.27231 0.19782 0.30176 0.0
H419 H 0.23417 0.19149 0.35355 0.0
C420 C 0.37408 0.17377 0.2669 0.0
C421 C 0.40222 0.19744 0.26256 0.0
C422 C 0.34445 0.18345 0.28657 0.0
C423 C 0.34244 0.21701 0.30269 0.0
C424 C 0.3699 0.24144 0.29658 0.0
C425 C 0.39967 0.23161 0.27683 0.0
C426 C 0.30239 0.23575 0.39206 0.0
C427 C 0.26994 0.21811 0.38927 0.0
C428 C 0.32464 0.23869 0.36274 0.0
C429 C 0.31494 0.22366 0.33011 0.0
C430 C 0.28083 0.20919 0.32663 0.0
C431 C 0.25871 0.20603 0.3561 0.0
H432 H 0.73676 0.42338 0.28923 0.0
H433 H 0.83925 0.38063 0.26447 0.0
H434 H 0.72263 0.3703 0.32351 0.0
H435 H 0.82632 0.32845 0.29997 0.0
H436 H 0.80288 0.23682 0.36351 0.0
H437 H 0.79303 0.27496 0.31213 0.0
H438 H 0.74543 0.35357 0.38038 0.0
H439 H 0.75467 0.31512 0.43095 0.0
C440 C 0.7557 0.40197 0.2902 0.0
C441 C 0.78872 0.40548 0.27389 0.0
C442 C 0.74788 0.37182 0.31011 0.0
C443 C 0.77332 0.34506 0.31453 0.0
C444 C 0.8058 0.34809 0.29664 0.0
C445 C 0.81345 0.37813 0.27666 0.0
C446 C 0.78883 0.26157 0.36696 0.0
C447 C 0.7794 0.27329 0.40081 0.0
C448 C 0.78349 0.28353 0.33774 0.0
C449 C 0.76904 0.31759 0.34224 0.0
C450 C 0.75637 0.32749 0.37579 0.0
C451 C 0.7617 0.30555 0.40485 0.0
H452 H 0.60584 0.78904 0.23651 0.0
H453 H 0.54198 0.76598 0.32806 0.0
H454 H 0.65954 0.78182 0.27224 0.0
H455 H 0.59522 0.75753 0.36332 0.0
H456 H 0.69611 0.7395 0.41946 0.0
H457 H 0.65726 0.72364 0.37011 0.0
H458 H 0.67165 0.82793 0.32595 0.0
H459 H 0.7099 0.84387 0.37551 0.0
C460 C 0.60346 0.78097 0.26387 0.0
C461 C 0.57014 0.77822 0.27986 0.0
C462 C 0.63401 0.77686 0.2842 0.0
C463 C 0.63136 0.76916 0.32043 0.0
C464 C 0.59796 0.76305 0.33536 0.0
C465 C 0.56755 0.76805 0.31533 0.0
C466 C 0.69185 0.75852 0.39851 0.0
C467 C 0.70579 0.79286 0.40104 0.0
C468 C 0.66972 0.74946 0.37039 0.0
C469 C 0.66169 0.77453 0.34427 0.0
C470 C 0.67791 0.80797 0.34548 0.0
C471 C 0.69946 0.81721 0.37391 0.0
H472 H 0.23382 0.70181 0.41199 0.0
H473 H 0.12215 0.7039 0.38991 0.0
H474 H 0.24312 0.66235 0.36106 0.0
H475 H 0.13136 0.66523 0.33894 0.0
H476 H 0.15709 0.60695 0.24039 0.0
H477 H 0.16365 0.65966 0.27795 0.0
H478 H 0.21922 0.59709 0.35531 0.0
H479 H 0.21194 0.54455 0.31808 0.0
C480 C 0.2115 0.69459 0.39561 0.0
C481 C 0.17731 0.70577 0.40462 0.0
C482 C 0.21679 0.67207 0.36664 0.0
C483 C 0.18798 0.66098 0.346 0.0
C484 C 0.1541 0.67382 0.35404 0.0
C485 C 0.14877 0.69567 0.38331 0.0
C486 C 0.17168 0.60495 0.2649 0.0
C487 C 0.18408 0.57206 0.27659 0.0
C488 C 0.17537 0.63492 0.28635 0.0
C489 C 0.19181 0.63233 0.31954 0.0
C490 C 0.20677 0.5999 0.32972 0.0
C491 C 0.20252 0.56987 0.30857 0.0
H492 H 0.29368 0.75728 0.55164 0.0
H493 H 0.25983 0.85028 0.60849 0.0
H494 H 0.33677 0.74454 0.59832 0.0
H495 H 0.30226 0.83744 0.65533 0.0
H496 H 0.37794 0.80019 0.73949 0.0
H497 H 0.32519 0.79301 0.70258 0.0
H498 H 0.39139 0.78498 0.60992 0.0
H499 H 0.44384 0.79255 0.64666 0.0
C500 C 0.29455 0.77411 0.57485 0.0
C501 C 0.27362 0.80464 0.5768 0.0
C502 C 0.31922 0.76697 0.60137 0.0
C503 C 0.32294 0.79016 0.63024 0.0
C504 C 0.29973 0.81897 0.63354 0.0
C505 C 0.27554 0.82638 0.60679 0.0
C506 C 0.38111 0.79616 0.71132 0.0
C507 C 0.41481 0.79693 0.6958 0.0
C508 C 0.35102 0.79206 0.69028 0.0
C509 C 0.35428 0.7882 0.65348 0.0
C510 C 0.38814 0.78732 0.63828 0.0
C511 C 0.4181 0.792 0.6592 0.0
H512 H 0.1751 0.23816 0.61809 0.0
H513 H 0.2427 0.30036 0.55076 0.0
H514 H 0.18378 0.28058 0.66614 0.0
H515 H 0.25096 0.34332 0.59839 0.0
H516 H 0.25362 0.41979 0.69107 0.0
H517 H 0.26624 0.36361 0.66052 0.0
H518 H 0.15467 0.3394 0.66058 0.0
H519 H 0.14258 0.3947 0.69133 0.0
C520 C 0.19323 0.26003 0.61427 0.0
C521 C 0.20829 0.26624 0.58105 0.0
C522 C 0.19798 0.28443 0.64157 0.0
C523 C 0.21732 0.31565 0.63565 0.0
C524 C 0.23597 0.31949 0.60374 0.0
C525 C 0.23132 0.29493 0.57648 0.0
C526 C 0.23212 0.40185 0.68513 0.0
C527 C 0.19725 0.41111 0.69358 0.0
C528 C 0.23926 0.36993 0.66763 0.0
C529 C 0.21151 0.34688 0.65865 0.0
C530 C 0.17673 0.35612 0.6679 0.0
C531 C 0.16968 0.38799 0.68499 0.0
H532 H 0.58195 0.25303 0.71182 0.0
H533 H 0.61803 0.14638 0.72915 0.0
H534 H 0.63643 0.26628 0.6794 0.0
H535 H 0.67104 0.15839 0.69556 0.0
H536 H 0.76006 0.17409 0.62913 0.0
H537 H 0.72529 0.18513 0.68258 0.0
H538 H 0.65274 0.24875 0.62152 0.0
H539 H 0.68872 0.23907 0.56907 0.0
C540 C 0.60221 0.23296 0.70993 0.0
C541 C 0.59605 0.19884 0.72306 0.0
C542 C 0.63315 0.24025 0.69087 0.0
C543 C 0.65813 0.21332 0.68435 0.0
C544 C 0.65293 0.18006 0.70021 0.0
C545 C 0.62226 0.17295 0.71924 0.0
C546 C 0.73749 0.19164 0.62777 0.0
C547 C 0.72673 0.20566 0.59532 0.0
C548 C 0.71738 0.19778 0.65819 0.0
C549 C 0.68556 0.21704 0.65628 0.0
C550 C 0.67702 0.23394 0.62428 0.0
C551 C 0.6975 0.22826 0.59407 0.0
H552 H 0.76567 0.55175 0.66505 0.0
H553 H 0.79366 0.61635 0.75489 0.0
H554 H 0.75617 0.60488 0.6298 0.0
H555 H 0.78497 0.66992 0.7192 0.0
H556 H 0.83922 0.72327 0.61453 0.0
H557 H 0.82666 0.6842 0.66441 0.0
H558 H 0.7219 0.66536 0.62363 0.0
H559 H 0.73445 0.70488 0.57384 0.0
C560 C 0.76883 0.57745 0.67742 0.0
C561 C 0.78053 0.58023 0.71241 0.0
C562 C 0.76314 0.60782 0.65741 0.0
C563 C 0.76991 0.6414 0.67186 0.0
C564 C 0.77951 0.64426 0.7076 0.0
C565 C 0.78447 0.61377 0.72791 0.0
C566 C 0.81318 0.71161 0.61693 0.0
C567 C 0.78777 0.71688 0.59059 0.0
C568 C 0.80586 0.68958 0.64555 0.0
C569 C 0.77331 0.67188 0.64776 0.0
C570 C 0.74711 0.67888 0.6225 0.0
C571 C 0.75427 0.7014 0.59414 0.0
H572 H 0.37502 0.25121 0.13451 0.0
H573 H 0.43103 0.28812 0.22651 0.0
H574 H 0.32976 0.29662 0.14411 0.0
H575 H 0.38578 0.33325 0.23649 0.0
H576 H 0.34036 0.43994 0.18897 0.0
H577 H 0.37606 0.38659 0.19504 0.0
H578 H 0.28209 0.32221 0.18803 0.0
H579 H 0.24611 0.37595 0.18238 0.0
C580 C 0.37683 0.26822 0.15752 0.0
C581 C 0.40588 0.26582 0.18032 0.0
C582 C 0.35098 0.29407 0.16309 0.0
C583 C 0.35435 0.31839 0.19105 0.0
C584 C 0.38254 0.31474 0.21483 0.0
C585 C 0.40812 0.28867 0.20945 0.0
C586 C 0.32728 0.41443 0.18932 0.0
C587 C 0.29056 0.41199 0.18525 0.0
C588 C 0.34765 0.38393 0.19306 0.0
C589 C 0.33176 0.35033 0.19214 0.0
C590 C 0.2949 0.34784 0.18889 0.0
C591 C 0.27439 0.3785 0.1858 0.0
H592 H 0.25226 0.61211 0.77869 0.0
H593 H 0.3406 0.54384 0.80194 0.0
H594 H 0.29254 0.66309 0.77585 0.0
H595 H 0.38024 0.59447 0.80023 0.0
H596 H 0.42466 0.69603 0.84783 0.0
H597 H 0.38177 0.64829 0.84336 0.0
H598 H 0.35072 0.68528 0.74015 0.0
H599 H 0.39466 0.73278 0.74414 0.0
C600 C 0.28029 0.60791 0.78226 0.0
C601 C 0.29341 0.57412 0.79026 0.0
C602 C 0.30319 0.637 0.78093 0.0
C603 C 0.33927 0.63255 0.78825 0.0
C604 C 0.35242 0.59856 0.79498 0.0
C605 C 0.32974 0.56966 0.79594 0.0
C606 C 0.40884 0.69402 0.82413 0.0
C607 C 0.41312 0.71807 0.79625 0.0
C608 C 0.38424 0.66676 0.82162 0.0
C609 C 0.36323 0.66315 0.79133 0.0
C610 C 0.36656 0.68776 0.76384 0.0
C611 C 0.39158 0.71491 0.76619 0.0
H612 H 0.22596 0.35801 0.78802 0.0
H613 H 0.30848 0.42119 0.74149 0.0
H614 H 0.26022 0.30425 0.77611 0.0
H615 H 0.34298 0.36799 0.72987 0.0
H616 H 0.3652 0.25816 0.82723 0.0
H617 H 0.31325 0.29202 0.81128 0.0
H618 H 0.35569 0.30762 0.70634 0.0
H619 H 0.40819 0.27318 0.72277 0.0
C620 C 0.25077 0.36011 0.77388 0.0
C621 C 0.26483 0.39338 0.76564 0.0
C622 C 0.27041 0.32948 0.76713 0.0
C623 C 0.30456 0.33191 0.75256 0.0
C624 C 0.31672 0.36507 0.74086 0.0
C625 C 0.29711 0.39561 0.74769 0.0
C626 C 0.36282 0.2678 0.80038 0.0
C627 C 0.39062 0.26352 0.77631 0.0
C628 C 0.33288 0.28694 0.79105 0.0
C629 C 0.33041 0.3028 0.75757 0.0
C630 C 0.35697 0.29587 0.73238 0.0
C631 C 0.3869 0.27615 0.74168 0.0
H632 H 0.65886 0.44725 0.78692 0.0
H633 H 0.74732 0.37541 0.78905 0.0
H634 H 0.61904 0.39817 0.77558 0.0
H635 H 0.70715 0.32555 0.77741 0.0
H636 H 0.61125 0.25838 0.82743 0.0
H637 H 0.66057 0.29911 0.81724 0.0
H638 H 0.6008 0.35066 0.73491 0.0
H639 H 0.55139 0.31029 0.74586 0.0
C640 C 0.6698 0.42089 0.78411 0.0
C641 C 0.70598 0.41494 0.78893 0.0
C642 C 0.64707 0.39278 0.77729 0.0
C643 C 0.65996 0.35796 0.77559 0.0
C644 C 0.69653 0.35214 0.77868 0.0
C645 C 0.71947 0.38055 0.78512 0.0
C646 C 0.60926 0.27789 0.80658 0.0
C647 C 0.57788 0.28159 0.78743 0.0
C648 C 0.63748 0.30097 0.80051 0.0
C649 C 0.63442 0.32823 0.77543 0.0
C650 C 0.60375 0.33012 0.75462 0.0
C651 C 0.57557 0.30713 0.7608 0.0
H652 H 0.71374 0.57814 0.75047 0.0
H653 H 0.72907 0.61959 0.85563 0.0
H654 H 0.67228 0.62609 0.73781 0.0
H655 H 0.68736 0.66709 0.84334 0.0
H656 H 0.61212 0.75175 0.81623 0.0
H657 H 0.66837 0.7203 0.80829 0.0
H658 H 0.61204 0.63096 0.7645 0.0
H659 H 0.55638 0.66227 0.77276 0.0
C660 C 0.7093 0.59829 0.77037 0.0
C661 C 0.72464 0.59527 0.80399 0.0
C662 C 0.68535 0.62555 0.76325 0.0
C663 C 0.67636 0.65025 0.78964 0.0
C664 C 0.69396 0.64877 0.82229 0.0
C665 C 0.71765 0.6214 0.82946 0.0
C666 C 0.61215 0.72589 0.80381 0.0
C667 C 0.58022 0.70924 0.79508 0.0
C668 C 0.64419 0.70786 0.79939 0.0
C669 C 0.64462 0.67306 0.78598 0.0
C670 C 0.61274 0.65783 0.77452 0.0
C671 C 0.58083 0.67563 0.77938 0.0
H672 H 0.56245 0.70366 0.24977 0.0
H673 H 0.59572 0.71784 0.14165 0.0
H674 H 0.61331 0.66468 0.26008 0.0
H675 H 0.64698 0.67998 0.15222 0.0
H676 H 0.74376 0.61775 0.18917 0.0
H677 H 0.70578 0.67003 0.19746 0.0
H678 H 0.61741 0.60161 0.22033 0.0
H679 H 0.65478 0.54974 0.21064 0.0
C680 C 0.58143 0.69956 0.22871 0.0
C681 C 0.57535 0.71351 0.19491 0.0
C682 C 0.61039 0.67734 0.2346 0.0
C683 C 0.63399 0.6696 0.20696 0.0
C684 C 0.6294 0.68598 0.17404 0.0
C685 C 0.60003 0.70739 0.16793 0.0
C686 C 0.71641 0.61412 0.19679 0.0
C687 C 0.70189 0.58 0.199 0.0
C688 C 0.69483 0.64386 0.20159 0.0
C689 C 0.65885 0.63966 0.2097 0.0
C690 C 0.64518 0.60548 0.21455 0.0
C691 C 0.66641 0.57589 0.20876 0.0
H692 H 0.35608 0.75624 0.21322 0.0
H693 H 0.41453 0.66291 0.24239 0.0
H694 H 0.30051 0.7242 0.22294 0.0
H695 H 0.35968 0.63095 0.25197 0.0
H696 H 0.24141 0.62835 0.16399 0.0
H697 H 0.27866 0.67692 0.18362 0.0
H698 H 0.30189 0.61996 0.27969 0.0
H699 H 0.26464 0.57095 0.25943 0.0
C700 C 0.35697 0.72933 0.223 0.0
C701 C 0.38944 0.71185 0.22681 0.0
C702 C 0.32524 0.71094 0.22844 0.0
C703 C 0.32559 0.67487 0.2379 0.0
C704 C 0.35824 0.65872 0.24506 0.0
C705 C 0.38978 0.67693 0.23929 0.0
C706 C 0.25316 0.62699 0.19004 0.0
C707 C 0.25035 0.59596 0.21015 0.0
C708 C 0.27447 0.65492 0.20144 0.0
C709 C 0.29385 0.65209 0.23296 0.0
C710 C 0.28764 0.62273 0.25505 0.0
C711 C 0.26603 0.59482 0.24368 0.0
H712 H 0.55485 0.31918 0.21042 0.0
H713 H 0.62269 0.22874 0.19545 0.0
H714 H 0.60607 0.35671 0.22014 0.0
H715 H 0.67474 0.2667 0.20471 0.0
H716 H 0.73563 0.36504 0.14916 0.0
H717 H 0.69623 0.31558 0.16294 0.0
H718 H 0.65948 0.37124 0.25575 0.0
H719 H 0.69806 0.421 0.24107 0.0
C720 C 0.58085 0.30722 0.21027 0.0
C721 C 0.58502 0.27128 0.20202 0.0
C722 C 0.61022 0.32864 0.21604 0.0
C723 C 0.64448 0.3147 0.21301 0.0
C724 C 0.64862 0.27812 0.20707 0.0
C725 C 0.61897 0.25643 0.20193 0.0
C726 C 0.71998 0.36601 0.17313 0.0
C727 C 0.72028 0.39635 0.19455 0.0
C728 C 0.69764 0.33765 0.1812 0.0
C729 C 0.67476 0.33953 0.21047 0.0
C730 C 0.67687 0.36901 0.23311 0.0
C731 C 0.69927 0.39728 0.22504 0.0
H732 H 0.12286 0.89201 0.4466 0.0
H733 H 0.20169 0.91439 0.52567 0.0
H734 H 0.11018 0.95564 0.44154 0.0
H735 H 0.18831 0.97759 0.52152 0.0
H736 H 0.1459 0.08744 0.51957 0.0
H737 H 0.1307 0.02474 0.52721 0.0
H738 H 0.1633 0.00358 0.41995 0.0
H739 H 0.17983 0.0657 0.41286 0.0
C740 C 0.13648 0.91046 0.46374 0.0
C741 C 0.16307 0.8986 0.48663 0.0
C742 C 0.12928 0.94669 0.46082 0.0
C743 C 0.14791 0.97125 0.48155 0.0
C744 C 0.17313 0.95905 0.50578 0.0
C745 C 0.181 0.92306 0.50794 0.0
C746 C 0.14827 0.06964 0.49721 0.0
C747 C 0.16418 0.08107 0.46572 0.0
C748 C 0.13972 0.03386 0.50162 0.0
C749 C 0.14603 0.00955 0.47418 0.0
C750 C 0.15795 0.02193 0.44134 0.0
C751 C 0.16741 0.05739 0.43729 0.0
H752 H 0.07064 0.15947 0.54984 0.0
H753 H 0.08981 0.13306 0.44069 0.0
H754 H 0.00983 0.14033 0.5443 0.0
H755 H 0.02839 0.11352 0.43477 0.0
H756 H 0.92421 0.18457 0.43196 0.0
H757 H 0.98295 0.15919 0.43306 0.0
H758 H 0.95763 0.10514 0.53045 0.0
H759 H 0.89831 0.13124 0.52914 0.0
C760 C 0.06221 0.14763 0.52514 0.0
C761 C 0.08451 0.14824 0.49554 0.0
C762 C 0.02725 0.13652 0.5219 0.0
C763 C 0.01385 0.12636 0.48876 0.0
C764 C 0.03777 0.12188 0.46049 0.0
C765 C 0.073 0.13277 0.46389 0.0
C766 C 0.93079 0.16615 0.45285 0.0
C767 C 0.90705 0.16006 0.48063 0.0
C768 C 0.96442 0.15124 0.45338 0.0
C769 C 0.97531 0.13038 0.48211 0.0
C770 C 0.95015 0.1213 0.50808 0.0
C771 C 0.91616 0.13602 0.50729 0.0
H772 H 0.84832 0.08883 0.54402 0.0
H773 H 0.81184 0.06857 0.43813 0.0
H774 H 0.86607 0.02677 0.54958 0.0
H775 H 0.82933 0.00682 0.44338 0.0
H776 H 0.84496 0.89475 0.46026 0.0
H777 H 0.86925 0.9549 0.45612 0.0
H778 H 0.81766 0.98212 0.55441 0.0
H779 H 0.79327 0.92279 0.55797 0.0
C780 C 0.84599 0.07152 0.52128 0.0
C781 C 0.82881 0.08316 0.49066 0.0
C782 C 0.85591 0.03599 0.52449 0.0
C783 C 0.8486 0.01177 0.49713 0.0
C784 C 0.83558 0.02473 0.46488 0.0
C785 C 0.82541 0.06009 0.46184 0.0
C786 C 0.84015 0.91331 0.48159 0.0
C787 C 0.81692 0.90459 0.50916 0.0
C788 C 0.85395 0.94768 0.47921 0.0
C789 C 0.84511 0.97337 0.50475 0.0
C790 C 0.82529 0.96302 0.53443 0.0
C791 C 0.81103 0.92908 0.53639 0.0
H792 H 0.04806 0.79022 0.55878 0.0
H793 H 0.0819 0.84792 0.46647 0.0
H794 H 0.98888 0.81447 0.55238 0.0
H795 H 0.02246 0.87222 0.45987 0.0
H796 H 0.88352 0.84979 0.53626 0.0
H797 H 0.94513 0.86676 0.54661 0.0
H798 H 0.9724 0.82999 0.44194 0.0
H799 H 0.91145 0.81231 0.43223 0.0
C800 C 0.04308 0.80906 0.53783 0.0
C801 C 0.06935 0.81695 0.51291 0.0
C802 C 0.00931 0.82333 0.53438 0.0
C803 C 0.00106 0.84519 0.50553 0.0
C804 C 0.02819 0.85557 0.48241 0.0
C805 C 0.06219 0.84171 0.48623 0.0
C806 C 0.90244 0.84712 0.51492 0.0
C807 C 0.89321 0.82933 0.48369 0.0
C808 C 0.93764 0.85669 0.52086 0.0
C809 C 0.96358 0.84913 0.4953 0.0
C810 C 0.95303 0.83626 0.46209 0.0
C811 C 0.91815 0.82601 0.4565 0.0
H812 H 0.4362 0.18091 0.92261 0.0
H813 H 0.53401 0.1343 0.8874 0.0
H814 H 0.44393 0.15456 0.98053 0.0
H815 H 0.54239 0.10807 0.94612 0.0
H816 H 0.46252 0.12444 0.08551 0.0
H817 H 0.45427 0.10538 0.02415 0.0
H818 H 0.55645 0.14861 -0.00265 0.0
H819 H 0.56423 0.16784 0.0581 0.0
C820 C 0.45871 0.16379 0.92701 0.0
C821 C 0.48478 0.15999 0.90098 0.0
C822 C 0.46305 0.14836 0.96012 0.0
C823 C 0.49402 0.12953 0.96809 0.0
C824 C 0.51833 0.12256 0.94074 0.0
C825 C 0.51358 0.13753 0.90721 0.0
C826 C 0.48389 0.12814 0.0668 0.0
C827 C 0.51369 0.14815 0.0761 0.0
C828 C 0.47916 0.11733 0.03169 0.0
C829 C 0.50438 0.12617 0.00577 0.0
C830 C 0.53651 0.14133 0.01655 0.0
C831 C 0.54094 0.15258 0.05138 0.0
H832 H 0.81801 0.43116 0.92537 0.0
H833 H 0.86216 0.53287 0.89874 0.0
H834 H 0.8398 0.43715 0.9854 0.0
H835 H 0.88359 0.53948 0.95949 0.0
H836 H 0.80947 0.55449 0.06373 0.0
H837 H 0.83515 0.549 0.00514 0.0
H838 H 0.88317 0.44985 0.03518 0.0
H839 H 0.85782 0.45606 0.09461 0.0
C840 C 0.83399 0.45402 0.93203 0.0
C841 C 0.83801 0.48179 0.90787 0.0
C842 C 0.8467 0.45745 0.96641 0.0
C843 C 0.86282 0.48914 0.97737 0.0
C844 C 0.87103 0.51488 0.95178 0.0
C845 C 0.85884 0.5111 0.91705 0.0
C846 C 0.82695 0.53243 0.0583 0.0
C847 C 0.83137 0.50546 0.08324 0.0
C848 C 0.84195 0.52935 0.02479 0.0
C849 C 0.86083 0.49871 0.01537 0.0
C850 C 0.86865 0.47368 0.04173 0.0
C851 C 0.85419 0.47721 0.07567 0.0
H852 H 0.40738 0.78546 0.07417 0.0
H853 H 0.50872 0.83628 0.08614 0.0
H854 H 0.40952 0.79578 0.01071 0.0
H855 H 0.51127 0.84606 0.02204 0.0
H856 H 0.46439 0.75003 0.91207 0.0
H857 H 0.45444 0.76009 0.97459 0.0
H858 H 0.48201 0.8703 0.96227 0.0
H859 H 0.49186 0.86022 0.89874 0.0
C860 C 0.42951 0.80004 0.06329 0.0
C861 C 0.45813 0.80961 0.08474 0.0
C862 C 0.43082 0.80579 0.02701 0.0
C863 C 0.46098 0.82081 0.0115 0.0
C864 C 0.48777 0.8343 0.03341 0.0
C865 C 0.48629 0.8288 0.07003 0.0
C866 C 0.4684 0.77645 0.92252 0.0
C867 C 0.47896 0.80433 0.90051 0.0
C868 C 0.46235 0.78229 0.95831 0.0
C869 C 0.46692 0.81611 0.97311 0.0
C870 C 0.47809 0.84405 0.95137 0.0
C871 C 0.48373 0.83827 0.91516 0.0
H872 H 0.14297 0.43957 0.88992 0.0
H873 H 0.1685 0.55031 0.89919 0.0
H874 H 0.12395 0.43879 0.9517 0.0
H875 H 0.15025 0.54973 0.96088 0.0
H876 H 0.13928 0.53932 0.0755 0.0
H877 H 0.11454 0.53786 0.01544 0.0
H878 H 0.17362 0.44227 -0.00601 0.0
H879 H 0.19812 0.44424 0.05317 0.0
C880 C 0.14257 0.46416 0.9047 0.0
C881 C 0.15741 0.49491 0.89035 0.0
C882 C 0.13189 0.46374 0.94005 0.0
C883 C 0.13662 0.49392 0.96138 0.0
C884 C 0.1463 0.52601 0.94525 0.0
C885 C 0.15686 0.52641 0.9099 0.0
C886 C 0.14582 0.51748 0.0581 0.0
C887 C 0.17066 0.49203 0.0684 0.0
C888 C 0.13173 0.51661 0.02388 0.0
C889 C 0.14205 0.48995 -4e-05 0.0
C890 C 0.16457 0.46285 0.01179 0.0
C891 C 0.17899 0.46412 0.04554 0.0
H892 H 0.07198 0.44922 0.21015 0.0
H893 H 0.09414 0.51449 0.11929 0.0
H894 H 0.00928 0.45007 0.19573 0.0
H895 H 0.03074 0.51622 0.10533 0.0
H896 H 0.91642 0.55187 0.16122 0.0
H897 H 0.97898 0.54468 0.14678 0.0
H898 H 0.9651 0.43133 0.14377 0.0
H899 H 0.90232 0.43874 0.15747 0.0
C900 C 0.0634 0.4635 0.1869 0.0
C901 C 0.08775 0.48196 0.16594 0.0
C902 C 0.02761 0.46366 0.17841 0.0
C903 C 0.01531 0.48289 0.14919 0.0
C904 C 0.0397 0.50092 0.12777 0.0
C905 C 0.0758 0.49999 0.13579 0.0
C906 C 0.92638 0.52563 0.15529 0.0
C907 C 0.90481 0.49584 0.16015 0.0
C908 C 0.96215 0.52148 0.14718 0.0
C909 C 0.97681 0.48743 0.14463 0.0
C910 C 0.95433 0.45783 0.14567 0.0
C911 C 0.91844 0.46205 0.15321 0.0
H912 H 0.92292 0.56342 0.80517 0.0
H913 H 0.904 0.46223 0.85416 0.0
H914 H 0.98452 0.56091 0.82277 0.0
H915 H 0.96635 0.45917 0.87142 0.0
H916 H 0.09556 0.5495 0.83971 0.0
H917 H 0.03587 0.55368 0.86488 0.0
H918 H 0.01148 0.45024 0.82252 0.0
H919 H 0.07043 0.44667 0.79714 0.0
C920 C 0.93175 0.54135 0.82113 0.0
C921 C 0.9091 0.51281 0.82793 0.0
C922 C 0.96702 0.53996 0.83145 0.0
C923 C 0.98043 0.50956 0.84803 0.0
C924 C 0.95672 0.48282 0.85849 0.0
C925 C 0.92109 0.48458 0.84871 0.0
C926 C 0.07777 0.52716 0.83725 0.0
C927 C 0.08706 0.49793 0.81635 0.0
C928 C 0.04372 0.5295 0.85159 0.0
C929 C 0.01888 0.50244 0.84539 0.0
C930 C 0.02998 0.4714 0.8281 0.0
C931 C 0.06366 0.46938 0.81332 0.0
H932 H 0.54929 0.07252 0.81917 0.0
H933 H 0.44033 0.09208 0.84554 0.0
H934 H 0.54472 0.01299 0.84274 0.0
H935 H 0.43528 0.03192 0.86923 0.0
H936 H 0.43731 0.92601 0.79783 0.0
H937 H 0.43558 0.98516 0.82278 0.0
H938 H 0.52996 0.96273 0.8828 0.0
H939 H 0.53115 0.90272 0.85769 0.0
C940 C 0.52484 0.06447 0.83174 0.0
C941 C 0.49497 0.08617 0.83009 0.0
C942 C 0.5222 0.03044 0.84555 0.0
C943 C 0.48934 0.01744 0.85704 0.0
C944 C 0.4608 0.04114 0.86011 0.0
C945 C 0.46361 0.07547 0.84657 0.0
C946 C 0.45679 0.93332 0.81749 0.0
C947 C 0.48465 0.91042 0.82554 0.0
C948 C 0.45565 0.96708 0.83219 0.0
C949 C 0.48292 0.97882 0.8545 0.0
C950 C 0.5087 0.9544 0.86557 0.0
C951 C 0.50946 0.92022 0.85121 0.0
H952 H 0.44972 0.88862 0.12775 0.0
H953 H 0.55459 0.91067 0.16607 0.0
H954 H 0.44565 0.94915 0.10495 0.0
H955 H 0.55082 0.97058 0.14359 0.0
H956 H 0.53761 0.08089 0.12556 0.0
H957 H 0.54133 0.02006 0.10292 0.0
H958 H 0.43837 -0.00207 0.14713 0.0
H959 H 0.43509 0.05804 0.16948 0.0
C960 C 0.47255 0.90582 0.12966 0.0
C961 C 0.50218 0.89541 0.14924 0.0
C962 C 0.47018 0.94055 0.11682 0.0
C963 C 0.49755 0.96505 0.12323 0.0
C964 C 0.52919 0.95264 0.13811 0.0
C965 C 0.53135 0.91824 0.15123 0.0
C966 C 0.5152 0.06335 0.12883 0.0
C967 C 0.48626 0.07373 0.14956 0.0
C968 C 0.51734 0.02851 0.11606 0.0
C969 C 0.49044 0.00385 0.12375 0.0
C970 C 0.45955 0.01602 0.14047 0.0
C971 C 0.45767 0.0505 0.15353 0.0
loop_
_geom_bond_atom_site_label_1
_geom_bond_atom_site_label_2
_geom_bond_distance
_geom_bond_site_symmetry_2
_ccdc_geom_bond_type
Zn0 O6 1.920 . S
Zn0 O12 1.898 . S
Zn0 O15 1.905 . S
Zn1 O9 1.905 . S
Zn1 O10 1.898 . S
Zn1 O18 1.920 . S
Zn2 O5 2.080 . S
Zn2 O8 2.114 . S
Zn2 O11 2.120 . S
Zn2 O13 2.120 . S
Zn2 O14 2.114 . S
Zn2 O17 2.080 . S
C3 O8 1.166 . S
C3 O9 1.182 . S
C4 O10 1.167 . S
C4 O11 1.299 . S
O5 Zn2 2.080 . S
O5 C19 1.305 . S
O6 Zn0 1.920 . S
O6 C19 1.234 . S
C7 O12 1.167 . S
C7 O13 1.299 . S
O8 Zn2 2.114 . S
O8 C3 1.166 . S
O9 Zn1 1.905 . S
O9 C3 1.182 . S
O10 Zn1 1.898 . S
O10 C4 1.167 . S
O11 Zn2 2.120 . S
O11 C4 1.299 . S
O12 Zn0 1.898 . S
O12 C7 1.167 . S
O13 Zn2 2.120 . S
O13 C7 1.299 . S
O14 Zn2 2.114 . S
O14 C16 1.166 . S
O15 Zn0 1.905 . S
O15 C16 1.182 . S
C16 O14 1.166 . S
C16 O15 1.182 . S
O17 Zn2 2.080 . S
O17 C20 1.305 . S
O18 Zn1 1.920 . S
O18 C20 1.234 . S
C19 O5 1.305 . S
C19 O6 1.234 . S
C20 O17 1.305 . S
C20 O18 1.234 . S
Zn21 O27 1.920 . S
Zn21 O33 1.898 . S
Zn21 O36 1.905 . S
Zn22 O30 1.905 . S
Zn22 O31 1.898 . S
Zn22 O39 1.920 . S
Zn23 O26 2.080 . S
Zn23 O29 2.114 . S
Zn23 O32 2.120 . S
Zn23 O34 2.120 . S
Zn23 O35 2.114 . S
Zn23 O38 2.080 . S
C24 O29 1.166 . S
C24 O30 1.182 . S
C25 O31 1.167 . S
C25 O32 1.299 . S
O26 Zn23 2.080 . S
O26 C40 1.305 . S
O27 Zn21 1.920 . S
O27 C40 1.234 . S
C28 O33 1.167 . S
C28 O34 1.299 . S
O29 Zn23 2.114 . S
O29 C24 1.166 . S
O30 Zn22 1.905 . S
O30 C24 1.182 . S
O31 Zn22 1.898 . S
O31 C25 1.167 . S
O32 Zn23 2.120 . S
O32 C25 1.299 . S
O33 Zn21 1.898 . S
O33 C28 1.167 . S
O34 Zn23 2.120 . S
O34 C28 1.299 . S
O35 Zn23 2.114 . S
O35 C37 1.166 . S
O36 Zn21 1.905 . S
O36 C37 1.182 . S
C37 O35 1.166 . S
C37 O36 1.182 . S
O38 Zn23 2.080 . S
O38 C41 1.305 . S
O39 Zn22 1.920 . S
O39 C41 1.234 . S
C40 O26 1.305 . S
C40 O27 1.234 . S
C41 O38 1.305 . S
C41 O39 1.234 . S
Zn42 O48 1.920 . S
Zn42 O54 1.898 . S
Zn42 O57 1.905 . S
Zn43 O51 1.905 . S
Zn43 O52 1.898 . S
Zn43 O60 1.920 . S
Zn44 O47 2.080 . S
Zn44 O50 2.114 . S
Zn44 O53 2.120 . S
Zn44 O55 2.120 . S
Zn44 O56 2.114 . S
Zn44 O59 2.080 . S
C45 O50 1.166 . S
C45 O51 1.182 . S
C46 O52 1.167 . S
C46 O53 1.299 . S
O47 Zn44 2.080 . S
O47 C61 1.305 . S
O48 Zn42 1.920 . S
O48 C61 1.234 . S
C49 O54 1.167 . S
C49 O55 1.299 . S
O50 Zn44 2.114 . S
O50 C45 1.166 . S
O51 Zn43 1.905 . S
O51 C45 1.182 . S
O52 Zn43 1.898 . S
O52 C46 1.167 . S
O53 Zn44 2.120 . S
O53 C46 1.299 . S
O54 Zn42 1.898 . S
O54 C49 1.167 . S
O55 Zn44 2.120 . S
O55 C49 1.299 . S
O56 Zn44 2.114 . S
O56 C58 1.166 . S
O57 Zn42 1.905 . S
O57 C58 1.182 . S
C58 O56 1.166 . S
C58 O57 1.182 . S
O59 Zn44 2.080 . S
O59 C62 1.305 . S
O60 Zn43 1.920 . S
O60 C62 1.234 . S
C61 O47 1.305 . S
C61 O48 1.234 . S
C62 O59 1.305 . S
C62 O60 1.234 . S
Zn63 O69 1.920 . S
Zn63 O75 1.898 . S
Zn63 O78 1.905 . S
Zn64 O72 1.905 . S
Zn64 O73 1.898 . S
Zn64 O81 1.920 . S
Zn65 O68 2.080 . S
Zn65 O71 2.114 . S
Zn65 O74 2.120 . S
Zn65 O76 2.120 . S
Zn65 O77 2.114 . S
Zn65 O80 2.080 . S
C66 O71 1.166 . S
C66 O72 1.182 . S
C67 O73 1.167 . S
C67 O74 1.299 . S
O68 Zn65 2.080 . S
O68 C82 1.305 . S
O69 Zn63 1.920 . S
O69 C82 1.234 . S
C70 O75 1.167 . S
C70 O76 1.299 . S
O71 Zn65 2.114 . S
O71 C66 1.166 . S
O72 Zn64 1.905 . S
O72 C66 1.182 . S
O73 Zn64 1.898 . S
O73 C67 1.167 . S
O74 Zn65 2.120 . S
O74 C67 1.299 . S
O75 Zn63 1.898 . S
O75 C70 1.167 . S
O76 Zn65 2.120 . S
O76 C70 1.299 . S
O77 Zn65 2.114 . S
O77 C79 1.166 . S
O78 Zn63 1.905 . S
O78 C79 1.182 . S
C79 O77 1.166 . S
C79 O78 1.182 . S
O80 Zn65 2.080 . S
O80 C83 1.305 . S
O81 Zn64 1.920 . S
O81 C83 1.234 . S
C82 O68 1.305 . S
C82 O69 1.234 . S
C83 O80 1.305 . S
C83 O81 1.234 . S
Zn84 O90 1.920 . S
Zn84 O96 1.898 . S
Zn84 O99 1.905 . S
Zn85 O93 1.905 . S
Zn85 O94 1.898 . S
Zn85 O102 1.920 . S
Zn86 O89 2.080 . S
Zn86 O92 2.114 . S
Zn86 O95 2.120 . S
Zn86 O97 2.120 . S
Zn86 O98 2.114 . S
Zn86 O101 2.080 . S
C87 O92 1.166 . S
C87 O93 1.182 . S
C88 O94 1.167 . S
C88 O95 1.299 . S
O89 Zn86 2.080 . S
O89 C103 1.305 . S
O90 Zn84 1.920 . S
O90 C103 1.234 . S
C91 O96 1.167 . S
C91 O97 1.299 . S
O92 Zn86 2.114 . S
O92 C87 1.166 . S
O93 Zn85 1.905 . S
O93 C87 1.182 . S
O94 Zn85 1.898 . S
O94 C88 1.167 . S
O95 Zn86 2.120 . S
O95 C88 1.299 . S
O96 Zn84 1.898 . S
O96 C91 1.167 . S
O97 Zn86 2.120 . S
O97 C91 1.299 . S
O98 Zn86 2.114 . S
O98 C100 1.166 . S
O99 Zn84 1.905 . S
O99 C100 1.182 . S
C100 O98 1.166 . S
C100 O99 1.182 . S
O101 Zn86 2.080 . S
O101 C104 1.305 . S
O102 Zn85 1.920 . S
O102 C104 1.234 . S
C103 O89 1.305 . S
C103 O90 1.234 . S
C104 O101 1.305 . S
C104 O102 1.234 . S
Zn105 O111 1.920 . S
Zn105 O117 1.898 . S
Zn105 O120 1.905 . S
Zn106 O114 1.905 . S
Zn106 O115 1.898 . S
Zn106 O123 1.920 . S
Zn107 O110 2.080 . S
Zn107 O113 2.114 . S
Zn107 O116 2.120 . S
Zn107 O118 2.120 . S
Zn107 O119 2.114 . S
Zn107 O122 2.080 . S
C108 O113 1.166 . S
C108 O114 1.182 . S
C109 O115 1.167 . S
C109 O116 1.299 . S
O110 Zn107 2.080 . S
O110 C124 1.305 . S
O111 Zn105 1.920 . S
O111 C124 1.234 . S
C112 O117 1.167 . S
C112 O118 1.299 . S
O113 Zn107 2.114 . S
O113 C108 1.166 . S
O114 Zn106 1.905 . S
O114 C108 1.182 . S
O115 Zn106 1.898 . S
O115 C109 1.167 . S
O116 Zn107 2.120 . S
O116 C109 1.299 . S
O117 Zn105 1.898 . S
O117 C112 1.167 . S
O118 Zn107 2.120 . S
O118 C112 1.299 . S
O119 Zn107 2.114 . S
O119 C121 1.166 . S
O120 Zn105 1.905 . S
O120 C121 1.182 . S
C121 O119 1.166 . S
C121 O120 1.182 . S
O122 Zn107 2.080 . S
O122 C125 1.305 . S
O123 Zn106 1.920 . S
O123 C125 1.234 . S
C124 O110 1.305 . S
C124 O111 1.234 . S
C125 O122 1.305 . S
C125 O123 1.234 . S
Zn126 O132 1.920 . S
Zn126 O138 1.898 . S
Zn126 O141 1.905 . S
Zn127 O135 1.905 . S
Zn127 O136 1.898 . S
Zn127 O144 1.920 . S
Zn128 O131 2.080 . S
Zn128 O134 2.114 . S
Zn128 O137 2.120 . S
Zn128 O139 2.120 . S
Zn128 O140 2.114 . S
Zn128 O143 2.080 . S
C129 O134 1.166 . S
C129 O135 1.182 . S
C130 O136 1.167 . S
C130 O137 1.299 . S
O131 Zn128 2.080 . S
O131 C145 1.305 . S
O132 Zn126 1.920 . S
O132 C145 1.234 . S
C133 O138 1.167 . S
C133 O139 1.299 . S
O134 Zn128 2.114 . S
O134 C129 1.166 . S
O135 Zn127 1.905 . S
O135 C129 1.182 . S
O136 Zn127 1.898 . S
O136 C130 1.167 . S
O137 Zn128 2.120 . S
O137 C130 1.299 . S
O138 Zn126 1.898 . S
O138 C133 1.167 . S
O139 Zn128 2.120 . S
O139 C133 1.299 . S
O140 Zn128 2.114 . S
O140 C142 1.166 . S
O141 Zn126 1.905 . S
O141 C142 1.182 . S
C142 O140 1.166 . S
C142 O141 1.182 . S
O143 Zn128 2.080 . S
O143 C146 1.305 . S
O144 Zn127 1.920 . S
O144 C146 1.234 . S
C145 O131 1.305 . S
C145 O132 1.234 . S
C146 O143 1.305 . S
C146 O144 1.234 . S
Zn147 O153 1.920 . S
Zn147 O159 1.898 . S
Zn147 O162 1.905 . S
Zn148 O156 1.905 . S
Zn148 O157 1.898 . S
Zn148 O165 1.920 . S
Zn149 O152 2.080 . S
Zn149 O155 2.114 . S
Zn149 O158 2.120 . S
Zn149 O160 2.120 . S
Zn149 O161 2.114 . S
Zn149 O164 2.080 . S
C150 O155 1.166 . S
C150 O156 1.182 . S
C151 O157 1.167 . S
C151 O158 1.299 . S
O152 Zn149 2.080 . S
O152 C166 1.305 . S
O153 Zn147 1.920 . S
O153 C166 1.234 . S
C154 O159 1.167 . S
C154 O160 1.299 . S
O155 Zn149 2.114 . S
O155 C150 1.166 . S
O156 Zn148 1.905 . S
O156 C150 1.182 . S
O157 Zn148 1.898 . S
O157 C151 1.167 . S
O158 Zn149 2.120 . S
O158 C151 1.299 . S
O159 Zn147 1.898 . S
O159 C154 1.167 . S
O160 Zn149 2.120 . S
O160 C154 1.299 . S
O161 Zn149 2.114 . S
O161 C163 1.166 . S
O162 Zn147 1.905 . S
O162 C163 1.182 . S
C163 O161 1.166 . S
C163 O162 1.182 . S
O164 Zn149 2.080 . S
O164 C167 1.305 . S
O165 Zn148 1.920 . S
O165 C167 1.234 . S
C166 O152 1.305 . S
C166 O153 1.234 . S
C167 O164 1.305 . S
C167 O165 1.234 . S
Zn168 O174 1.920 . S
Zn168 O180 1.898 . S
Zn168 O183 1.905 . S
Zn169 O177 1.905 . S
Zn169 O178 1.898 . S
Zn169 O186 1.920 . S
Zn170 O173 2.080 . S
Zn170 O176 2.114 . S
Zn170 O179 2.120 . S
Zn170 O181 2.120 . S
Zn170 O182 2.114 . S
Zn170 O185 2.080 . S
C171 O176 1.166 . S
C171 O177 1.182 . S
C172 O178 1.167 . S
C172 O179 1.299 . S
O173 Zn170 2.080 . S
O173 C187 1.305 . S
O174 Zn168 1.920 . S
O174 C187 1.234 . S
C175 O180 1.167 . S
C175 O181 1.299 . S
O176 Zn170 2.114 . S
O176 C171 1.166 . S
O177 Zn169 1.905 . S
O177 C171 1.182 . S
O178 Zn169 1.898 . S
O178 C172 1.167 . S
O179 Zn170 2.120 . S
O179 C172 1.299 . S
O180 Zn168 1.898 . S
O180 C175 1.167 . S
O181 Zn170 2.120 . S
O181 C175 1.299 . S
O182 Zn170 2.114 . S
O182 C184 1.166 . S
O183 Zn168 1.905 . S
O183 C184 1.182 . S
C184 O182 1.166 . S
C184 O183 1.182 . S
O185 Zn170 2.080 . S
O185 C188 1.305 . S
O186 Zn169 1.920 . S
O186 C188 1.234 . S
C187 O173 1.305 . S
C187 O174 1.234 . S
C188 O185 1.305 . S
C188 O186 1.234 . S
Zn189 O195 1.920 . S
Zn189 O201 1.898 . S
Zn189 O204 1.905 . S
Zn190 O198 1.905 . S
Zn190 O199 1.898 . S
Zn190 O207 1.920 . S
Zn191 O194 2.080 . S
Zn191 O197 2.114 . S
Zn191 O200 2.120 . S
Zn191 O202 2.120 . S
Zn191 O203 2.114 . S
Zn191 O206 2.080 . S
C192 O197 1.166 . S
C192 O198 1.182 . S
C193 O199 1.167 . S
C193 O200 1.299 . S
O194 Zn191 2.080 . S
O194 C208 1.305 . S
O195 Zn189 1.920 . S
O195 C208 1.234 . S
C196 O201 1.167 . S
C196 O202 1.299 . S
O197 Zn191 2.114 . S
O197 C192 1.166 . S
O198 Zn190 1.905 . S
O198 C192 1.182 . S
O199 Zn190 1.898 . S
O199 C193 1.167 . S
O200 Zn191 2.120 . S
O200 C193 1.299 . S
O201 Zn189 1.898 . S
O201 C196 1.167 . S
O202 Zn191 2.120 . S
O202 C196 1.299 . S
O203 Zn191 2.114 . S
O203 C205 1.166 . S
O204 Zn189 1.905 . S
O204 C205 1.182 . S
C205 O203 1.166 . S
C205 O204 1.182 . S
O206 Zn191 2.080 . S
O206 C209 1.305 . S
O207 Zn190 1.920 . S
O207 C209 1.234 . S
C208 O194 1.305 . S
C208 O195 1.234 . S
C209 O206 1.305 . S
C209 O207 1.234 . S
Zn210 O216 1.920 . S
Zn210 O222 1.898 . S
Zn210 O225 1.905 . S
Zn211 O219 1.905 . S
Zn211 O220 1.898 . S
Zn211 O228 1.920 . S
Zn212 O215 2.080 . S
Zn212 O218 2.114 . S
Zn212 O221 2.120 . S
Zn212 O223 2.120 . S
Zn212 O224 2.114 . S
Zn212 O227 2.080 . S
C213 O218 1.166 . S
C213 O219 1.182 . S
C214 O220 1.167 . S
C214 O221 1.299 . S
O215 Zn212 2.080 . S
O215 C229 1.305 . S
O216 Zn210 1.920 . S
O216 C229 1.234 . S
C217 O222 1.167 . S
C217 O223 1.299 . S
O218 Zn212 2.114 . S
O218 C213 1.166 . S
O219 Zn211 1.905 . S
O219 C213 1.182 . S
O220 Zn211 1.898 . S
O220 C214 1.167 . S
O221 Zn212 2.120 . S
O221 C214 1.299 . S
O222 Zn210 1.898 . S
O222 C217 1.167 . S
O223 Zn212 2.120 . S
O223 C217 1.299 . S
O224 Zn212 2.114 . S
O224 C226 1.166 . S
O225 Zn210 1.905 . S
O225 C226 1.182 . S
C226 O224 1.166 . S
C226 O225 1.182 . S
O227 Zn212 2.080 . S
O227 C230 1.305 . S
O228 Zn211 1.920 . S
O228 C230 1.234 . S
C229 O215 1.305 . S
C229 O216 1.234 . S
C230 O227 1.305 . S
C230 O228 1.234 . S
Zn231 O237 1.920 . S
Zn231 O243 1.898 . S
Zn231 O246 1.905 . S
Zn232 O240 1.905 . S
Zn232 O241 1.898 . S
Zn232 O249 1.920 . S
Zn233 O236 2.080 . S
Zn233 O239 2.114 . S
Zn233 O242 2.120 . S
Zn233 O244 2.120 . S
Zn233 O245 2.114 . S
Zn233 O248 2.080 . S
C234 O239 1.166 . S
C234 O240 1.182 . S
C235 O241 1.167 . S
C235 O242 1.299 . S
O236 Zn233 2.080 . S
O236 C250 1.305 . S
O237 Zn231 1.920 . S
O237 C250 1.234 . S
C238 O243 1.167 . S
C238 O244 1.299 . S
O239 Zn233 2.114 . S
O239 C234 1.166 . S
O240 Zn232 1.905 . S
O240 C234 1.182 . S
O241 Zn232 1.898 . S
O241 C235 1.167 . S
O242 Zn233 2.120 . S
O242 C235 1.299 . S
O243 Zn231 1.898 . S
O243 C238 1.167 . S
O244 Zn233 2.120 . S
O244 C238 1.299 . S
O245 Zn233 2.114 . S
O245 C247 1.166 . S
O246 Zn231 1.905 . S
O246 C247 1.182 . S
C247 O245 1.166 . S
C247 O246 1.182 . S
O248 Zn233 2.080 . S
O248 C251 1.305 . S
O249 Zn232 1.920 . S
O249 C251 1.234 . S
C250 O236 1.305 . S
C250 O237 1.234 . S
C251 O248 1.305 . S
C251 O249 1.234 . S
H252 C260 0.950 . S
H253 C265 0.950 . S
H254 C262 0.950 . S
H255 C264 0.950 . S
H256 C266 0.950 . S
H257 C268 0.950 . S
H258 C270 0.950 . S
H259 C271 0.950 . S
C260 H252 0.950 . S
C260 C261 1.386 . S
C260 C262 1.391 . S
C261 C260 1.386 . S
C261 C265 1.393 . S
C262 H254 0.950 . S
C262 C260 1.391 . S
C262 C263 1.400 . S
C263 C262 1.400 . S
C263 C264 1.398 . S
C263 C269 1.491 . S
C264 H255 0.950 . S
C264 C263 1.398 . S
C264 C265 1.391 . S
C265 H253 0.950 . S
C265 C261 1.393 . S
C265 C264 1.391 . S
C266 H256 0.950 . S
C266 C267 1.386 . S
C266 C268 1.391 . S
C267 C266 1.386 . S
C267 C271 1.393 . S
C268 H257 0.950 . S
C268 C266 1.391 . S
C268 C269 1.400 . S
C269 C263 1.491 . S
C269 C268 1.400 . S
C269 C270 1.398 . S
C270 H258 0.950 . S
C270 C269 1.398 . S
C270 C271 1.391 . S
C271 H259 0.950 . S
C271 C267 1.393 . S
C271 C270 1.391 . S
H272 C280 0.950 . S
H273 C285 0.950 . S
H274 C282 0.950 . S
H275 C284 0.950 . S
H276 C286 0.950 . S
H277 C288 0.950 . S
H278 C290 0.950 . S
H279 C291 0.950 . S
C280 H272 0.950 . S
C280 C281 1.386 . S
C280 C282 1.391 . S
C281 C280 1.386 . S
C281 C285 1.393 . S
C282 H274 0.950 . S
C282 C280 1.391 . S
C282 C283 1.400 . S
C283 C282 1.400 . S
C283 C284 1.398 . S
C283 C289 1.491 . S
C284 H275 0.950 . S
C284 C283 1.398 . S
C284 C285 1.391 . S
C285 H273 0.950 . S
C285 C281 1.393 . S
C285 C284 1.391 . S
C286 H276 0.950 . S
C286 C287 1.386 . S
C286 C288 1.391 . S
C287 C286 1.386 . S
C287 C291 1.393 . S
C288 H277 0.950 . S
C288 C286 1.391 . S
C288 C289 1.400 . S
C289 C283 1.491 . S
C289 C288 1.400 . S
C289 C290 1.398 . S
C290 H278 0.950 . S
C290 C289 1.398 . S
C290 C291 1.391 . S
C291 H279 0.950 . S
C291 C287 1.393 . S
C291 C290 1.391 . S
H292 C300 0.950 . S
H293 C305 0.950 . S
H294 C302 0.950 . S
H295 C304 0.950 . S
H296 C306 0.950 . S
H297 C308 0.950 . S
H298 C310 0.950 . S
H299 C311 0.950 . S
C300 H292 0.950 . S
C300 C301 1.386 . S
C300 C302 1.391 . S
C301 C300 1.386 . S
C301 C305 1.393 . S
C302 H294 0.950 . S
C302 C300 1.391 . S
C302 C303 1.400 . S
C303 C302 1.400 . S
C303 C304 1.398 . S
C303 C309 1.491 . S
C304 H295 0.950 . S
C304 C303 1.398 . S
C304 C305 1.391 . S
C305 H293 0.950 . S
C305 C301 1.393 . S
C305 C304 1.391 . S
C306 H296 0.950 . S
C306 C307 1.386 . S
C306 C308 1.391 . S
C307 C306 1.386 . S
C307 C311 1.393 . S
C308 H297 0.950 . S
C308 C306 1.391 . S
C308 C309 1.400 . S
C309 C303 1.491 . S
C309 C308 1.400 . S
C309 C310 1.398 . S
C310 H298 0.950 . S
C310 C309 1.398 . S
C310 C311 1.391 . S
C311 H299 0.950 . S
C311 C307 1.393 . S
C311 C310 1.391 . S
H312 C320 0.950 . S
H313 C325 0.950 . S
H314 C322 0.950 . S
H315 C324 0.950 . S
H316 C326 0.950 . S
H317 C328 0.950 . S
H318 C330 0.950 . S
H319 C331 0.950 . S
C320 H312 0.950 . S
C320 C321 1.386 . S
C320 C322 1.391 . S
C321 C320 1.386 . S
C321 C325 1.393 . S
C322 H314 0.950 . S
C322 C320 1.391 . S
C322 C323 1.400 . S
C323 C322 1.400 . S
C323 C324 1.398 . S
C323 C329 1.491 . S
C324 H315 0.950 . S
C324 C323 1.398 . S
C324 C325 1.391 . S
C325 H313 0.950 . S
C325 C321 1.393 . S
C325 C324 1.391 . S
C326 H316 0.950 . S
C326 C327 1.386 . S
C326 C328 1.391 . S
C327 C326 1.386 . S
C327 C331 1.393 . S
C328 H317 0.950 . S
C328 C326 1.391 . S
C328 C329 1.400 . S
C329 C323 1.491 . S
C329 C328 1.400 . S
C329 C330 1.398 . S
C330 H318 0.950 . S
C330 C329 1.398 . S
C330 C331 1.391 . S
C331 H319 0.950 . S
C331 C327 1.393 . S
C331 C330 1.391 . S
H332 C340 0.950 . S
H333 C345 0.950 . S
H334 C342 0.950 . S
H335 C344 0.950 . S
H336 C346 0.950 . S
H337 C348 0.950 . S
H338 C350 0.950 . S
H339 C351 0.950 . S
C340 H332 0.950 . S
C340 C341 1.386 . S
C340 C342 1.391 . S
C341 C340 1.386 . S
C341 C345 1.393 . S
C342 H334 0.950 . S
C342 C340 1.391 . S
C342 C343 1.400 . S
C343 C342 1.400 . S
C343 C344 1.398 . S
C343 C349 1.491 . S
C344 H335 0.950 . S
C344 C343 1.398 . S
C344 C345 1.391 . S
C345 H333 0.950 . S
C345 C341 1.393 . S
C345 C344 1.391 . S
C346 H336 0.950 . S
C346 C347 1.386 . S
C346 C348 1.391 . S
C347 C346 1.386 . S
C347 C351 1.393 . S
C348 H337 0.950 . S
C348 C346 1.391 . S
C348 C349 1.400 . S
C349 C343 1.491 . S
C349 C348 1.400 . S
C349 C350 1.398 . S
C350 H338 0.950 . S
C350 C349 1.398 . S
C350 C351 1.391 . S
C351 H339 0.950 . S
C351 C347 1.393 . S
C351 C350 1.391 . S
H352 C360 0.950 . S
H353 C365 0.950 . S
H354 C362 0.950 . S
H355 C364 0.950 . S
H356 C366 0.950 . S
H357 C368 0.950 . S
H358 C370 0.950 . S
H359 C371 0.950 . S
C360 H352 0.950 . S
C360 C361 1.386 . S
C360 C362 1.391 . S
C361 C360 1.386 . S
C361 C365 1.393 . S
C362 H354 0.950 . S
C362 C360 1.391 . S
C362 C363 1.400 . S
C363 C362 1.400 . S
C363 C364 1.398 . S
C363 C369 1.491 . S
C364 H355 0.950 . S
C364 C363 1.398 . S
C364 C365 1.391 . S
C365 H353 0.950 . S
C365 C361 1.393 . S
C365 C364 1.391 . S
C366 H356 0.950 . S
C366 C367 1.386 . S
C366 C368 1.391 . S
C367 C366 1.386 . S
C367 C371 1.393 . S
C368 H357 0.950 . S
C368 C366 1.391 . S
C368 C369 1.400 . S
C369 C363 1.491 . S
C369 C368 1.400 . S
C369 C370 1.398 . S
C370 H358 0.950 . S
C370 C369 1.398 . S
C370 C371 1.391 . S
C371 H359 0.950 . S
C371 C367 1.393 . S
C371 C370 1.391 . S
H372 C380 0.950 . S
H373 C385 0.950 . S
H374 C382 0.950 . S
H375 C384 0.950 . S
H376 C386 0.950 . S
H377 C388 0.950 . S
H378 C390 0.950 . S
H379 C391 0.950 . S
C380 H372 0.950 . S
C380 C381 1.386 . S
C380 C382 1.391 . S
C381 C380 1.386 . S
C381 C385 1.393 . S
C382 H374 0.950 . S
C382 C380 1.391 . S
C382 C383 1.400 . S
C383 C382 1.400 . S
C383 C384 1.398 . S
C383 C389 1.491 . S
C384 H375 0.950 . S
C384 C383 1.398 . S
C384 C385 1.391 . S
C385 H373 0.950 . S
C385 C381 1.393 . S
C385 C384 1.391 . S
C386 H376 0.950 . S
C386 C387 1.386 . S
C386 C388 1.391 . S
C387 C386 1.386 . S
C387 C391 1.393 . S
C388 H377 0.950 . S
C388 C386 1.391 . S
C388 C389 1.400 . S
C389 C383 1.491 . S
C389 C388 1.400 . S
C389 C390 1.398 . S
C390 H378 0.950 . S
C390 C389 1.398 . S
C390 C391 1.391 . S
C391 H379 0.950 . S
C391 C387 1.393 . S
C391 C390 1.391 . S
H392 C400 0.950 . S
H393 C405 0.950 . S
H394 C402 0.950 . S
H395 C404 0.950 . S
H396 C406 0.950 . S
H397 C408 0.950 . S
H398 C410 0.950 . S
H399 C411 0.950 . S
C400 H392 0.950 . S
C400 C401 1.386 . S
C400 C402 1.391 . S
C401 C400 1.386 . S
C401 C405 1.393 . S
C402 H394 0.950 . S
C402 C400 1.391 . S
C402 C403 1.400 . S
C403 C402 1.400 . S
C403 C404 1.398 . S
C403 C409 1.491 . S
C404 H395 0.950 . S
C404 C403 1.398 . S
C404 C405 1.391 . S
C405 H393 0.950 . S
C405 C401 1.393 . S
C405 C404 1.391 . S
C406 H396 0.950 . S
C406 C407 1.386 . S
C406 C408 1.391 . S
C407 C406 1.386 . S
C407 C411 1.393 . S
C408 H397 0.950 . S
C408 C406 1.391 . S
C408 C409 1.400 . S
C409 C403 1.491 . S
C409 C408 1.400 . S
C409 C410 1.398 . S
C410 H398 0.950 . S
C410 C409 1.398 . S
C410 C411 1.391 . S
C411 H399 0.950 . S
C411 C407 1.393 . S
C411 C410 1.391 . S
H412 C420 0.950 . S
H413 C425 0.950 . S
H414 C422 0.950 . S
H415 C424 0.950 . S
H416 C426 0.950 . S
H417 C428 0.950 . S
H418 C430 0.950 . S
H419 C431 0.950 . S
C420 H412 0.950 . S
C420 C421 1.386 . S
C420 C422 1.391 . S
C421 C420 1.386 . S
C421 C425 1.393 . S
C422 H414 0.950 . S
C422 C420 1.391 . S
C422 C423 1.400 . S
C423 C422 1.400 . S
C423 C424 1.398 . S
C423 C429 1.491 . S
C424 H415 0.950 . S
C424 C423 1.398 . S
C424 C425 1.391 . S
C425 H413 0.950 . S
C425 C421 1.393 . S
C425 C424 1.391 . S
C426 H416 0.950 . S
C426 C427 1.386 . S
C426 C428 1.391 . S
C427 C426 1.386 . S
C427 C431 1.393 . S
C428 H417 0.950 . S
C428 C426 1.391 . S
C428 C429 1.400 . S
C429 C423 1.491 . S
C429 C428 1.400 . S
C429 C430 1.398 . S
C430 H418 0.950 . S
C430 C429 1.398 . S
C430 C431 1.391 . S
C431 H419 0.950 . S
C431 C427 1.393 . S
C431 C430 1.391 . S
H432 C440 0.950 . S
H433 C445 0.950 . S
H434 C442 0.950 . S
H435 C444 0.950 . S
H436 C446 0.950 . S
H437 C448 0.950 . S
H438 C450 0.950 . S
H439 C451 0.950 . S
C440 H432 0.950 . S
C440 C441 1.386 . S
C440 C442 1.391 . S
C441 C440 1.386 . S
C441 C445 1.393 . S
C442 H434 0.950 . S
C442 C440 1.391 . S
C442 C443 1.400 . S
C443 C442 1.400 . S
C443 C444 1.398 . S
C443 C449 1.491 . S
C444 H435 0.950 . S
C444 C443 1.398 . S
C444 C445 1.391 . S
C445 H433 0.950 . S
C445 C441 1.393 . S
C445 C444 1.391 . S
C446 H436 0.950 . S
C446 C447 1.386 . S
C446 C448 1.391 . S
C447 C446 1.386 . S
C447 C451 1.393 . S
C448 H437 0.950 . S
C448 C446 1.391 . S
C448 C449 1.400 . S
C449 C443 1.491 . S
C449 C448 1.400 . S
C449 C450 1.398 . S
C450 H438 0.950 . S
C450 C449 1.398 . S
C450 C451 1.391 . S
C451 H439 0.950 . S
C451 C447 1.393 . S
C451 C450 1.391 . S
H452 C460 0.950 . S
H453 C465 0.950 . S
H454 C462 0.950 . S
H455 C464 0.950 . S
H456 C466 0.950 . S
H457 C468 0.950 . S
H458 C470 0.950 . S
H459 C471 0.950 . S
C460 H452 0.950 . S
C460 C461 1.386 . S
C460 C462 1.391 . S
C461 C460 1.386 . S
C461 C465 1.393 . S
C462 H454 0.950 . S
C462 C460 1.391 . S
C462 C463 1.400 . S
C463 C462 1.400 . S
C463 C464 1.398 . S
C463 C469 1.491 . S
C464 H455 0.950 . S
C464 C463 1.398 . S
C464 C465 1.391 . S
C465 H453 0.950 . S
C465 C461 1.393 . S
C465 C464 1.391 . S
C466 H456 0.950 . S
C466 C467 1.386 . S
C466 C468 1.391 . S
C467 C466 1.386 . S
C467 C471 1.393 . S
C468 H457 0.950 . S
C468 C466 1.391 . S
C468 C469 1.400 . S
C469 C463 1.491 . S
C469 C468 1.400 . S
C469 C470 1.398 . S
C470 H458 0.950 . S
C470 C469 1.398 . S
C470 C471 1.391 . S
C471 H459 0.950 . S
C471 C467 1.393 . S
C471 C470 1.391 . S
H472 C480 0.950 . S
H473 C485 0.950 . S
H474 C482 0.950 . S
H475 C484 0.950 . S
H476 C486 0.950 . S
H477 C488 0.950 . S
H478 C490 0.950 . S
H479 C491 0.950 . S
C480 H472 0.950 . S
C480 C481 1.386 . S
C480 C482 1.391 . S
C481 C480 1.386 . S
C481 C485 1.393 . S
C482 H474 0.950 . S
C482 C480 1.391 . S
C482 C483 1.400 . S
C483 C482 1.400 . S
C483 C484 1.398 . S
C483 C489 1.491 . S
C484 H475 0.950 . S
C484 C483 1.398 . S
C484 C485 1.391 . S
C485 H473 0.950 . S
C485 C481 1.393 . S
C485 C484 1.391 . S
C486 H476 0.950 . S
C486 C487 1.386 . S
C486 C488 1.391 . S
C487 C486 1.386 . S
C487 C491 1.393 . S
C488 H477 0.950 . S
C488 C486 1.391 . S
C488 C489 1.400 . S
C489 C483 1.491 . S
C489 C488 1.400 . S
C489 C490 1.398 . S
C490 H478 0.950 . S
C490 C489 1.398 . S
C490 C491 1.391 . S
C491 H479 0.950 . S
C491 C487 1.393 . S
C491 C490 1.391 . S
H492 C500 0.950 . S
H493 C505 0.950 . S
H494 C502 0.950 . S
H495 C504 0.950 . S
H496 C506 0.950 . S
H497 C508 0.950 . S
H498 C510 0.950 . S
H499 C511 0.950 . S
C500 H492 0.950 . S
C500 C501 1.386 . S
C500 C502 1.391 . S
C501 C500 1.386 . S
C501 C505 1.393 . S
C502 H494 0.950 . S
C502 C500 1.391 . S
C502 C503 1.400 . S
C503 C502 1.400 . S
C503 C504 1.398 . S
C503 C509 1.491 . S
C504 H495 0.950 . S
C504 C503 1.398 . S
C504 C505 1.391 . S
C505 H493 0.950 . S
C505 C501 1.393 . S
C505 C504 1.391 . S
C506 H496 0.950 . S
C506 C507 1.386 . S
C506 C508 1.391 . S
C507 C506 1.386 . S
C507 C511 1.393 . S
C508 H497 0.950 . S
C508 C506 1.391 . S
C508 C509 1.400 . S
C509 C503 1.491 . S
C509 C508 1.400 . S
C509 C510 1.398 . S
C510 H498 0.950 . S
C510 C509 1.398 . S
C510 C511 1.391 . S
C511 H499 0.950 . S
C511 C507 1.393 . S
C511 C510 1.391 . S
H512 C520 0.950 . S
H513 C525 0.950 . S
H514 C522 0.950 . S
H515 C524 0.950 . S
H516 C526 0.950 . S
H517 C528 0.950 . S
H518 C530 0.950 . S
H519 C531 0.950 . S
C520 H512 0.950 . S
C520 C521 1.386 . S
C520 C522 1.391 . S
C521 C520 1.386 . S
C521 C525 1.393 . S
C522 H514 0.950 . S
C522 C520 1.391 . S
C522 C523 1.400 . S
C523 C522 1.400 . S
C523 C524 1.398 . S
C523 C529 1.491 . S
C524 H515 0.950 . S
C524 C523 1.398 . S
C524 C525 1.391 . S
C525 H513 0.950 . S
C525 C521 1.393 . S
C525 C524 1.391 . S
C526 H516 0.950 . S
C526 C527 1.386 . S
C526 C528 1.391 . S
C527 C526 1.386 . S
C527 C531 1.393 . S
C528 H517 0.950 . S
C528 C526 1.391 . S
C528 C529 1.400 . S
C529 C523 1.491 . S
C529 C528 1.400 . S
C529 C530 1.398 . S
C530 H518 0.950 . S
C530 C529 1.398 . S
C530 C531 1.391 . S
C531 H519 0.950 . S
C531 C527 1.393 . S
C531 C530 1.391 . S
H532 C540 0.950 . S
H533 C545 0.950 . S
H534 C542 0.950 . S
H535 C544 0.950 . S
H536 C546 0.950 . S
H537 C548 0.950 . S
H538 C550 0.950 . S
H539 C551 0.950 . S
C540 H532 0.950 . S
C540 C541 1.386 . S
C540 C542 1.391 . S
C541 C540 1.386 . S
C541 C545 1.393 . S
C542 H534 0.950 . S
C542 C540 1.391 . S
C542 C543 1.400 . S
C543 C542 1.400 . S
C543 C544 1.398 . S
C543 C549 1.491 . S
C544 H535 0.950 . S
C544 C543 1.398 . S
C544 C545 1.391 . S
C545 H533 0.950 . S
C545 C541 1.393 . S
C545 C544 1.391 . S
C546 H536 0.950 . S
C546 C547 1.386 . S
C546 C548 1.391 . S
C547 C546 1.386 . S
C547 C551 1.393 . S
C548 H537 0.950 . S
C548 C546 1.391 . S
C548 C549 1.400 . S
C549 C543 1.491 . S
C549 C548 1.400 . S
C549 C550 1.398 . S
C550 H538 0.950 . S
C550 C549 1.398 . S
C550 C551 1.391 . S
C551 H539 0.950 . S
C551 C547 1.393 . S
C551 C550 1.391 . S
H552 C560 0.950 . S
H553 C565 0.950 . S
H554 C562 0.950 . S
H555 C564 0.950 . S
H556 C566 0.950 . S
H557 C568 0.950 . S
H558 C570 0.950 . S
H559 C571 0.950 . S
C560 H552 0.950 . S
C560 C561 1.386 . S
C560 C562 1.391 . S
C561 C560 1.386 . S
C561 C565 1.393 . S
C562 H554 0.950 . S
C562 C560 1.391 . S
C562 C563 1.400 . S
C563 C562 1.400 . S
C563 C564 1.398 . S
C563 C569 1.491 . S
C564 H555 0.950 . S
C564 C563 1.398 . S
C564 C565 1.391 . S
C565 H553 0.950 . S
C565 C561 1.393 . S
C565 C564 1.391 . S
C566 H556 0.950 . S
C566 C567 1.386 . S
C566 C568 1.391 . S
C567 C566 1.386 . S
C567 C571 1.393 . S
C568 H557 0.950 . S
C568 C566 1.391 . S
C568 C569 1.400 . S
C569 C563 1.491 . S
C569 C568 1.400 . S
C569 C570 1.398 . S
C570 H558 0.950 . S
C570 C569 1.398 . S
C570 C571 1.391 . S
C571 H559 0.950 . S
C571 C567 1.393 . S
C571 C570 1.391 . S
H572 C580 0.950 . S
H573 C585 0.950 . S
H574 C582 0.950 . S
H575 C584 0.950 . S
H576 C586 0.950 . S
H577 C588 0.950 . S
H578 C590 0.950 . S
H579 C591 0.950 . S
C580 H572 0.950 . S
C580 C581 1.386 . S
C580 C582 1.391 . S
C581 C580 1.386 . S
C581 C585 1.393 . S
C582 H574 0.950 . S
C582 C580 1.391 . S
C582 C583 1.400 . S
C583 C582 1.400 . S
C583 C584 1.398 . S
C583 C589 1.491 . S
C584 H575 0.950 . S
C584 C583 1.398 . S
C584 C585 1.391 . S
C585 H573 0.950 . S
C585 C581 1.393 . S
C585 C584 1.391 . S
C586 H576 0.950 . S
C586 C587 1.386 . S
C586 C588 1.391 . S
C587 C586 1.386 . S
C587 C591 1.393 . S
C588 H577 0.950 . S
C588 C586 1.391 . S
C588 C589 1.400 . S
C589 C583 1.491 . S
C589 C588 1.400 . S
C589 C590 1.398 . S
C590 H578 0.950 . S
C590 C589 1.398 . S
C590 C591 1.391 . S
C591 H579 0.950 . S
C591 C587 1.393 . S
C591 C590 1.391 . S
H592 C600 0.950 . S
H593 C605 0.950 . S
H594 C602 0.950 . S
H595 C604 0.950 . S
H596 C606 0.950 . S
H597 C608 0.950 . S
H598 C610 0.950 . S
H599 C611 0.950 . S
C600 H592 0.950 . S
C600 C601 1.386 . S
C600 C602 1.391 . S
C601 C600 1.386 . S
C601 C605 1.393 . S
C602 H594 0.950 . S
C602 C600 1.391 . S
C602 C603 1.400 . S
C603 C602 1.400 . S
C603 C604 1.398 . S
C603 C609 1.491 . S
C604 H595 0.950 . S
C604 C603 1.398 . S
C604 C605 1.391 . S
C605 H593 0.950 . S
C605 C601 1.393 . S
C605 C604 1.391 . S
C606 H596 0.950 . S
C606 C607 1.386 . S
C606 C608 1.391 . S
C607 C606 1.386 . S
C607 C611 1.393 . S
C608 H597 0.950 . S
C608 C606 1.391 . S
C608 C609 1.400 . S
C609 C603 1.491 . S
C609 C608 1.400 . S
C609 C610 1.398 . S
C610 H598 0.950 . S
C610 C609 1.398 . S
C610 C611 1.391 . S
C611 H599 0.950 . S
C611 C607 1.393 . S
C611 C610 1.391 . S
H612 C620 0.950 . S
H613 C625 0.950 . S
H614 C622 0.950 . S
H615 C624 0.950 . S
H616 C626 0.950 . S
H617 C628 0.950 . S
H618 C630 0.950 . S
H619 C631 0.950 . S
C620 H612 0.950 . S
C620 C621 1.386 . S
C620 C622 1.391 . S
C621 C620 1.386 . S
C621 C625 1.393 . S
C622 H614 0.950 . S
C622 C620 1.391 . S
C622 C623 1.400 . S
C623 C622 1.400 . S
C623 C624 1.398 . S
C623 C629 1.491 . S
C624 H615 0.950 . S
C624 C623 1.398 . S
C624 C625 1.391 . S
C625 H613 0.950 . S
C625 C621 1.393 . S
C625 C624 1.391 . S
C626 H616 0.950 . S
C626 C627 1.386 . S
C626 C628 1.391 . S
C627 C626 1.386 . S
C627 C631 1.393 . S
C628 H617 0.950 . S
C628 C626 1.391 . S
C628 C629 1.400 . S
C629 C623 1.491 . S
C629 C628 1.400 . S
C629 C630 1.398 . S
C630 H618 0.950 . S
C630 C629 1.398 . S
C630 C631 1.391 . S
C631 H619 0.950 . S
C631 C627 1.393 . S
C631 C630 1.391 . S
H632 C640 0.950 . S
H633 C645 0.950 . S
H634 C642 0.950 . S
H635 C644 0.950 . S
H636 C646 0.950 . S
H637 C648 0.950 . S
H638 C650 0.950 . S
H639 C651 0.950 . S
C640 H632 0.950 . S
C640 C641 1.386 . S
C640 C642 1.391 . S
C641 C640 1.386 . S
C641 C645 1.393 . S
C642 H634 0.950 . S
C642 C640 1.391 . S
C642 C643 1.400 . S
C643 C642 1.400 . S
C643 C644 1.398 . S
C643 C649 1.491 . S
C644 H635 0.950 . S
C644 C643 1.398 . S
C644 C645 1.391 . S
C645 H633 0.950 . S
C645 C641 1.393 . S
C645 C644 1.391 . S
C646 H636 0.950 . S
C646 C647 1.386 . S
C646 C648 1.391 . S
C647 C646 1.386 . S
C647 C651 1.393 . S
C648 H637 0.950 . S
C648 C646 1.391 . S
C648 C649 1.400 . S
C649 C643 1.491 . S
C649 C648 1.400 . S
C649 C650 1.398 . S
C650 H638 0.950 . S
C650 C649 1.398 . S
C650 C651 1.391 . S
C651 H639 0.950 . S
C651 C647 1.393 . S
C651 C650 1.391 . S
H652 C660 0.950 . S
H653 C665 0.950 . S
H654 C662 0.950 . S
H655 C664 0.950 . S
H656 C666 0.950 . S
H657 C668 0.950 . S
H658 C670 0.950 . S
H659 C671 0.950 . S
C660 H652 0.950 . S
C660 C661 1.386 . S
C660 C662 1.391 . S
C661 C660 1.386 . S
C661 C665 1.393 . S
C662 H654 0.950 . S
C662 C660 1.391 . S
C662 C663 1.400 . S
C663 C662 1.400 . S
C663 C664 1.398 . S
C663 C669 1.491 . S
C664 H655 0.950 . S
C664 C663 1.398 . S
C664 C665 1.391 . S
C665 H653 0.950 . S
C665 C661 1.393 . S
C665 C664 1.391 . S
C666 H656 0.950 . S
C666 C667 1.386 . S
C666 C668 1.391 . S
C667 C666 1.386 . S
C667 C671 1.393 . S
C668 H657 0.950 . S
C668 C666 1.391 . S
C668 C669 1.400 . S
C669 C663 1.491 . S
C669 C668 1.400 . S
C669 C670 1.398 . S
C670 H658 0.950 . S
C670 C669 1.398 . S
C670 C671 1.391 . S
C671 H659 0.950 . S
C671 C667 1.393 . S
C671 C670 1.391 . S
H672 C680 0.950 . S
H673 C685 0.950 . S
H674 C682 0.950 . S
H675 C684 0.950 . S
H676 C686 0.950 . S
H677 C688 0.950 . S
H678 C690 0.950 . S
H679 C691 0.950 . S
C680 H672 0.950 . S
C680 C681 1.386 . S
C680 C682 1.391 . S
C681 C680 1.386 . S
C681 C685 1.393 . S
C682 H674 0.950 . S
C682 C680 1.391 . S
C682 C683 1.400 . S
C683 C682 1.400 . S
C683 C684 1.398 . S
C683 C689 1.491 . S
C684 H675 0.950 . S
C684 C683 1.398 . S
C684 C685 1.391 . S
C685 H673 0.950 . S
C685 C681 1.393 . S
C685 C684 1.391 . S
C686 H676 0.950 . S
C686 C687 1.386 . S
C686 C688 1.391 . S
C687 C686 1.386 . S
C687 C691 1.393 . S
C688 H677 0.950 . S
C688 C686 1.391 . S
C688 C689 1.400 . S
C689 C683 1.491 . S
C689 C688 1.400 . S
C689 C690 1.398 . S
C690 H678 0.950 . S
C690 C689 1.398 . S
C690 C691 1.391 . S
C691 H679 0.950 . S
C691 C687 1.393 . S
C691 C690 1.391 . S
H692 C700 0.950 . S
H693 C705 0.950 . S
H694 C702 0.950 . S
H695 C704 0.950 . S
H696 C706 0.950 . S
H697 C708 0.950 . S
H698 C710 0.950 . S
H699 C711 0.950 . S
C700 H692 0.950 . S
C700 C701 1.386 . S
C700 C702 1.391 . S
C701 C700 1.386 . S
C701 C705 1.393 . S
C702 H694 0.950 . S
C702 C700 1.391 . S
C702 C703 1.400 . S
C703 C702 1.400 . S
C703 C704 1.398 . S
C703 C709 1.491 . S
C704 H695 0.950 . S
C704 C703 1.398 . S
C704 C705 1.391 . S
C705 H693 0.950 . S
C705 C701 1.393 . S
C705 C704 1.391 . S
C706 H696 0.950 . S
C706 C707 1.386 . S
C706 C708 1.391 . S
C707 C706 1.386 . S
C707 C711 1.393 . S
C708 H697 0.950 . S
C708 C706 1.391 . S
C708 C709 1.400 . S
C709 C703 1.491 . S
C709 C708 1.400 . S
C709 C710 1.398 . S
C710 H698 0.950 . S
C710 C709 1.398 . S
C710 C711 1.391 . S
C711 H699 0.950 . S
C711 C707 1.393 . S
C711 C710 1.391 . S
H712 C720 0.950 . S
H713 C725 0.950 . S
H714 C722 0.950 . S
H715 C724 0.950 . S
H716 C726 0.950 . S
H717 C728 0.950 . S
H718 C730 0.950 . S
H719 C731 0.950 . S
C720 H712 0.950 . S
C720 C721 1.386 . S
C720 C722 1.391 . S
C721 C720 1.386 . S
C721 C725 1.393 . S
C722 H714 0.950 . S
C722 C720 1.391 . S
C722 C723 1.400 . S
C723 C722 1.400 . S
C723 C724 1.398 . S
C723 C729 1.491 . S
C724 H715 0.950 . S
C724 C723 1.398 . S
C724 C725 1.391 . S
C725 H713 0.950 . S
C725 C721 1.393 . S
C725 C724 1.391 . S
C726 H716 0.950 . S
C726 C727 1.386 . S
C726 C728 1.391 . S
C727 C726 1.386 . S
C727 C731 1.393 . S
C728 H717 0.950 . S
C728 C726 1.391 . S
C728 C729 1.400 . S
C729 C723 1.491 . S
C729 C728 1.400 . S
C729 C730 1.398 . S
C730 H718 0.950 . S
C730 C729 1.398 . S
C730 C731 1.391 . S
C731 H719 0.950 . S
C731 C727 1.393 . S
C731 C730 1.391 . S
H732 C740 0.950 . S
H733 C745 0.950 . S
H734 C742 0.950 . S
H735 C744 0.950 . S
H736 C746 0.950 . S
H737 C748 0.950 . S
H738 C750 0.950 . S
H739 C751 0.950 . S
C740 H732 0.950 . S
C740 C741 1.386 . S
C740 C742 1.391 . S
C741 C740 1.386 . S
C741 C745 1.393 . S
C742 H734 0.950 . S
C742 C740 1.391 . S
C742 C743 1.400 . S
C743 C742 1.400 . S
C743 C744 1.398 . S
C743 C749 1.491 1_565 S
C744 H735 0.950 . S
C744 C743 1.398 . S
C744 C745 1.391 . S
C745 H733 0.950 . S
C745 C741 1.393 . S
C745 C744 1.391 . S
C746 H736 0.950 . S
C746 C747 1.386 . S
C746 C748 1.391 . S
C747 C746 1.386 . S
C747 C751 1.393 . S
C748 H737 0.950 . S
C748 C746 1.391 . S
C748 C749 1.400 . S
C749 C743 1.491 1_545 S
C749 C748 1.400 . S
C749 C750 1.398 . S
C750 H738 0.950 . S
C750 C749 1.398 . S
C750 C751 1.391 . S
C751 H739 0.950 . S
C751 C747 1.393 . S
C751 C750 1.391 . S
H752 C760 0.950 . S
H753 C765 0.950 . S
H754 C762 0.950 . S
H755 C764 0.950 . S
H756 C766 0.950 . S
H757 C768 0.950 . S
H758 C770 0.950 . S
H759 C771 0.950 . S
C760 H752 0.950 . S
C760 C761 1.386 . S
C760 C762 1.391 . S
C761 C760 1.386 . S
C761 C765 1.393 . S
C762 H754 0.950 . S
C762 C760 1.391 . S
C762 C763 1.400 . S
C763 C762 1.400 . S
C763 C764 1.398 . S
C763 C769 1.491 1_455 S
C764 H755 0.950 . S
C764 C763 1.398 . S
C764 C765 1.391 . S
C765 H753 0.950 . S
C765 C761 1.393 . S
C765 C764 1.391 . S
C766 H756 0.950 . S
C766 C767 1.386 . S
C766 C768 1.391 . S
C767 C766 1.386 . S
C767 C771 1.393 . S
C768 H757 0.950 . S
C768 C766 1.391 . S
C768 C769 1.400 . S
C769 C763 1.491 1_655 S
C769 C768 1.400 . S
C769 C770 1.398 . S
C770 H758 0.950 . S
C770 C769 1.398 . S
C770 C771 1.391 . S
C771 H759 0.950 . S
C771 C767 1.393 . S
C771 C770 1.391 . S
H772 C780 0.950 . S
H773 C785 0.950 . S
H774 C782 0.950 . S
H775 C784 0.950 . S
H776 C786 0.950 . S
H777 C788 0.950 . S
H778 C790 0.950 . S
H779 C791 0.950 . S
C780 H772 0.950 . S
C780 C781 1.386 . S
C780 C782 1.391 . S
C781 C780 1.386 . S
C781 C785 1.393 . S
C782 H774 0.950 . S
C782 C780 1.391 . S
C782 C783 1.400 . S
C783 C782 1.400 . S
C783 C784 1.398 . S
C783 C789 1.491 1_545 S
C784 H775 0.950 . S
C784 C783 1.398 . S
C784 C785 1.391 . S
C785 H773 0.950 . S
C785 C781 1.393 . S
C785 C784 1.391 . S
C786 H776 0.950 . S
C786 C787 1.386 . S
C786 C788 1.391 . S
C787 C786 1.386 . S
C787 C791 1.393 . S
C788 H777 0.950 . S
C788 C786 1.391 . S
C788 C789 1.400 . S
C789 C783 1.491 1_565 S
C789 C788 1.400 . S
C789 C790 1.398 . S
C790 H778 0.950 . S
C790 C789 1.398 . S
C790 C791 1.391 . S
C791 H779 0.950 . S
C791 C787 1.393 . S
C791 C790 1.391 . S
H792 C800 0.950 . S
H793 C805 0.950 . S
H794 C802 0.950 . S
H795 C804 0.950 . S
H796 C806 0.950 . S
H797 C808 0.950 . S
H798 C810 0.950 . S
H799 C811 0.950 . S
C800 H792 0.950 . S
C800 C801 1.386 . S
C800 C802 1.391 . S
C801 C800 1.386 . S
C801 C805 1.393 . S
C802 H794 0.950 . S
C802 C800 1.391 . S
C802 C803 1.400 . S
C803 C802 1.400 . S
C803 C804 1.398 . S
C803 C809 1.491 1_455 S
C804 H795 0.950 . S
C804 C803 1.398 . S
C804 C805 1.391 . S
C805 H793 0.950 . S
C805 C801 1.393 . S
C805 C804 1.391 . S
C806 H796 0.950 . S
C806 C807 1.386 . S
C806 C808 1.391 . S
C807 C806 1.386 . S
C807 C811 1.393 . S
C808 H797 0.950 . S
C808 C806 1.391 . S
C808 C809 1.400 . S
C809 C803 1.491 1_655 S
C809 C808 1.400 . S
C809 C810 1.398 . S
C810 H798 0.950 . S
C810 C809 1.398 . S
C810 C811 1.391 . S
C811 H799 0.950 . S
C811 C807 1.393 . S
C811 C810 1.391 . S
H812 C820 0.950 . S
H813 C825 0.950 . S
H814 C822 0.950 . S
H815 C824 0.950 . S
H816 C826 0.950 . S
H817 C828 0.950 . S
H818 C830 0.950 . S
H819 C831 0.950 . S
C820 H812 0.950 . S
C820 C821 1.386 . S
C820 C822 1.391 . S
C821 C820 1.386 . S
C821 C825 1.393 . S
C822 H814 0.950 . S
C822 C820 1.391 . S
C822 C823 1.400 . S
C823 C822 1.400 . S
C823 C824 1.398 . S
C823 C829 1.491 1_556 S
C824 H815 0.950 . S
C824 C823 1.398 . S
C824 C825 1.391 . S
C825 H813 0.950 . S
C825 C821 1.393 . S
C825 C824 1.391 . S
C826 H816 0.950 . S
C826 C827 1.386 . S
C826 C828 1.391 . S
C827 C826 1.386 . S
C827 C831 1.393 . S
C828 H817 0.950 . S
C828 C826 1.391 . S
C828 C829 1.400 . S
C829 C823 1.491 1_554 S
C829 C828 1.400 . S
C829 C830 1.398 . S
C830 H818 0.950 . S
C830 C829 1.398 . S
C830 C831 1.391 . S
C831 H819 0.950 . S
C831 C827 1.393 . S
C831 C830 1.391 . S
H832 C840 0.950 . S
H833 C845 0.950 . S
H834 C842 0.950 . S
H835 C844 0.950 . S
H836 C846 0.950 . S
H837 C848 0.950 . S
H838 C850 0.950 . S
H839 C851 0.950 . S
C840 H832 0.950 . S
C840 C841 1.386 . S
C840 C842 1.391 . S
C841 C840 1.386 . S
C841 C845 1.393 . S
C842 H834 0.950 . S
C842 C840 1.391 . S
C842 C843 1.400 . S
C843 C842 1.400 . S
C843 C844 1.398 . S
C843 C849 1.491 1_556 S
C844 H835 0.950 . S
C844 C843 1.398 . S
C844 C845 1.391 . S
C845 H833 0.950 . S
C845 C841 1.393 . S
C845 C844 1.391 . S
C846 H836 0.950 . S
C846 C847 1.386 . S
C846 C848 1.391 . S
C847 C846 1.386 . S
C847 C851 1.393 . S
C848 H837 0.950 . S
C848 C846 1.391 . S
C848 C849 1.400 . S
C849 C843 1.491 1_554 S
C849 C848 1.400 . S
C849 C850 1.398 . S
C850 H838 0.950 . S
C850 C849 1.398 . S
C850 C851 1.391 . S
C851 H839 0.950 . S
C851 C847 1.393 . S
C851 C850 1.391 . S
H852 C860 0.950 . S
H853 C865 0.950 . S
H854 C862 0.950 . S
H855 C864 0.950 . S
H856 C866 0.950 . S
H857 C868 0.950 . S
H858 C870 0.950 . S
H859 C871 0.950 . S
C860 H852 0.950 . S
C860 C861 1.386 . S
C860 C862 1.391 . S
C861 C860 1.386 . S
C861 C865 1.393 . S
C862 H854 0.950 . S
C862 C860 1.391 . S
C862 C863 1.400 . S
C863 C862 1.400 . S
C863 C864 1.398 . S
C863 C869 1.491 1_554 S
C864 H855 0.950 . S
C864 C863 1.398 . S
C864 C865 1.391 . S
C865 H853 0.950 . S
C865 C861 1.393 . S
C865 C864 1.391 . S
C866 H856 0.950 . S
C866 C867 1.386 . S
C866 C868 1.391 . S
C867 C866 1.386 . S
C867 C871 1.393 . S
C868 H857 0.950 . S
C868 C866 1.391 . S
C868 C869 1.400 . S
C869 C863 1.491 1_556 S
C869 C868 1.400 . S
C869 C870 1.398 . S
C870 H858 0.950 . S
C870 C869 1.398 . S
C870 C871 1.391 . S
C871 H859 0.950 . S
C871 C867 1.393 . S
C871 C870 1.391 . S
H872 C880 0.950 . S
H873 C885 0.950 . S
H874 C882 0.950 . S
H875 C884 0.950 . S
H876 C886 0.950 . S
H877 C888 0.950 . S
H878 C890 0.950 . S
H879 C891 0.950 . S
C880 H872 0.950 . S
C880 C881 1.386 . S
C880 C882 1.391 . S
C881 C880 1.386 . S
C881 C885 1.393 . S
C882 H874 0.950 . S
C882 C880 1.391 . S
C882 C883 1.400 . S
C883 C882 1.400 . S
C883 C884 1.398 . S
C883 C889 1.491 1_556 S
C884 H875 0.950 . S
C884 C883 1.398 . S
C884 C885 1.391 . S
C885 H873 0.950 . S
C885 C881 1.393 . S
C885 C884 1.391 . S
C886 H876 0.950 . S
C886 C887 1.386 . S
C886 C888 1.391 . S
C887 C886 1.386 . S
C887 C891 1.393 . S
C888 H877 0.950 . S
C888 C886 1.391 . S
C888 C889 1.400 . S
C889 C883 1.491 1_554 S
C889 C888 1.400 . S
C889 C890 1.398 . S
C890 H878 0.950 . S
C890 C889 1.398 . S
C890 C891 1.391 . S
C891 H879 0.950 . S
C891 C887 1.393 . S
C891 C890 1.391 . S
H892 C900 0.950 . S
H893 C905 0.950 . S
H894 C902 0.950 . S
H895 C904 0.950 . S
H896 C906 0.950 . S
H897 C908 0.950 . S
H898 C910 0.950 . S
H899 C911 0.950 . S
C900 H892 0.950 . S
C900 C901 1.386 . S
C900 C902 1.391 . S
C901 C900 1.386 . S
C901 C905 1.393 . S
C902 H894 0.950 . S
C902 C900 1.391 . S
C902 C903 1.400 . S
C903 C902 1.400 . S
C903 C904 1.398 . S
C903 C909 1.491 1_455 S
C904 H895 0.950 . S
C904 C903 1.398 . S
C904 C905 1.391 . S
C905 H893 0.950 . S
C905 C901 1.393 . S
C905 C904 1.391 . S
C906 H896 0.950 . S
C906 C907 1.386 . S
C906 C908 1.391 . S
C907 C906 1.386 . S
C907 C911 1.393 . S
C908 H897 0.950 . S
C908 C906 1.391 . S
C908 C909 1.400 . S
C909 C903 1.491 1_655 S
C909 C908 1.400 . S
C909 C910 1.398 . S
C910 H898 0.950 . S
C910 C909 1.398 . S
C910 C911 1.391 . S
C911 H899 0.950 . S
C911 C907 1.393 . S
C911 C910 1.391 . S
H912 C920 0.950 . S
H913 C925 0.950 . S
H914 C922 0.950 . S
H915 C924 0.950 . S
H916 C926 0.950 . S
H917 C928 0.950 . S
H918 C930 0.950 . S
H919 C931 0.950 . S
C920 H912 0.950 . S
C920 C921 1.386 . S
C920 C922 1.391 . S
C921 C920 1.386 . S
C921 C925 1.393 . S
C922 H914 0.950 . S
C922 C920 1.391 . S
C922 C923 1.400 . S
C923 C922 1.400 . S
C923 C924 1.398 . S
C923 C929 1.491 1_655 S
C924 H915 0.950 . S
C924 C923 1.398 . S
C924 C925 1.391 . S
C925 H913 0.950 . S
C925 C921 1.393 . S
C925 C924 1.391 . S
C926 H916 0.950 . S
C926 C927 1.386 . S
C926 C928 1.391 . S
C927 C926 1.386 . S
C927 C931 1.393 . S
C928 H917 0.950 . S
C928 C926 1.391 . S
C928 C929 1.400 . S
C929 C923 1.491 1_455 S
C929 C928 1.400 . S
C929 C930 1.398 . S
C930 H918 0.950 . S
C930 C929 1.398 . S
C930 C931 1.391 . S
C931 H919 0.950 . S
C931 C927 1.393 . S
C931 C930 1.391 . S
H932 C940 0.950 . S
H933 C945 0.950 . S
H934 C942 0.950 . S
H935 C944 0.950 . S
H936 C946 0.950 . S
H937 C948 0.950 . S
H938 C950 0.950 . S
H939 C951 0.950 . S
C940 H932 0.950 . S
C940 C941 1.386 . S
C940 C942 1.391 . S
C941 C940 1.386 . S
C941 C945 1.393 . S
C942 H934 0.950 . S
C942 C940 1.391 . S
C942 C943 1.400 . S
C943 C942 1.400 . S
C943 C944 1.398 . S
C943 C949 1.491 1_545 S
C944 H935 0.950 . S
C944 C943 1.398 . S
C944 C945 1.391 . S
C945 H933 0.950 . S
C945 C941 1.393 . S
C945 C944 1.391 . S
C946 H936 0.950 . S
C946 C947 1.386 . S
C946 C948 1.391 . S
C947 C946 1.386 . S
C947 C951 1.393 . S
C948 H937 0.950 . S
C948 C946 1.391 . S
C948 C949 1.400 . S
C949 C943 1.491 1_565 S
C949 C948 1.400 . S
C949 C950 1.398 . S
C950 H938 0.950 . S
C950 C949 1.398 . S
C950 C951 1.391 . S
C951 H939 0.950 . S
C951 C947 1.393 . S
C951 C950 1.391 . S
H952 C960 0.950 . S
H953 C965 0.950 . S
H954 C962 0.950 . S
H955 C964 0.950 . S
H956 C966 0.950 . S
H957 C968 0.950 . S
H958 C970 0.950 . S
H959 C971 0.950 . S
C960 H952 0.950 . S
C960 C961 1.386 . S
C960 C962 1.391 . S
C961 C960 1.386 . S
C961 C965 1.393 . S
C962 H954 0.950 . S
C962 C960 1.391 . S
C962 C963 1.400 . S
C963 C962 1.400 . S
C963 C964 1.398 . S
C963 C969 1.491 1_565 S
C964 H955 0.950 . S
C964 C963 1.398 . S
C964 C965 1.391 . S
C965 H953 0.950 . S
C965 C961 1.393 . S
C965 C964 1.391 . S
C966 H956 0.950 . S
C966 C967 1.386 . S
C966 C968 1.391 . S
C967 C966 1.386 . S
C967 C971 1.393 . S
C968 H957 0.950 . S
C968 C966 1.391 . S
C968 C969 1.400 . S
C969 C963 1.491 1_545 S
C969 C968 1.400 . S
C969 C970 1.398 . S
C970 H958 0.950 . S
C970 C969 1.398 . S
C970 C971 1.391 . S
C971 H959 0.950 . S
C971 C967 1.393 . S
C971 C970 1.391 . S
C261 C7 1.393 . S
C267 C166 1.359 . S
C281 C87 1.377 . S
C287 C41 1.403 . S
C301 C46 1.423 . S
C307 C108 1.357 . S
C321 C67 1.411 . S
C327 C142 1.398 . S
C341 C82 1.449 . S
C347 C205 1.379 . S
C361 C20 1.387 . S
C367 C230 1.353 . S
C381 C247 1.384 . S
C387 C28 1.442 . S
C401 C61 1.395 . S
C407 C188 1.333 . S
C421 C104 1.398 . S
C427 C3 1.364 . S
C441 C125 1.397 . S
C447 C40 1.335 . S
C461 C145 1.401 . S
C467 C58 1.403 . S
C481 C79 1.344 . S
C487 C154 1.409 . S
C501 C83 1.341 . S
C507 C172 1.414 . S
C521 C19 1.355 . S
C527 C208 1.388 . S
C541 C214 1.417 . S
C547 C24 1.366 . S
C561 C250 1.404 . S
C567 C62 1.330 . S
C581 C103 1.386 . S
C587 C167 1.392 . S
C601 C193 1.385 . S
C607 C184 1.361 . S
C621 C209 1.352 . S
C627 C229 1.397 . S
C641 C235 1.427 . S
C647 C226 1.361 . S
C661 C251 1.339 . S
C667 C187 1.412 . S
C681 C146 1.350 . S
C687 C112 1.418 . S
C701 C130 1.395 . S
C707 C150 1.364 . S
C721 C91 1.397 . S
C727 C124 1.323 . S
C741 C66 1.287 . S
C747 C4 1.252 . S
C761 C16 1.288 . S
C767 C37 1.314 . S
C781 C25 1.229 . S
C787 C49 1.269 . S
C801 C70 1.287 . S
C807 C45 1.263 . S
C821 C217 1.284 . S
C827 C100 1.286 . S
C841 C234 1.304 . S
C847 C121 1.268 . S
C861 C129 1.274 . S
C867 C175 1.233 . S
C881 C192 1.253 . S
C887 C151 1.267 . S
C901 C163 1.277 . S
C907 C109 1.264 . S
C921 C238 1.259 . S
C927 C196 1.260 . S
C941 C213 1.329 . S
C947 C171 1.282 . S
C961 C133 1.224 . S
C967 C88 1.248 . S
