# Generated by pormake.
# Topology xfa, (7)-cn, num edge types: 1
# Building blocks:
#     Node 0, Type 0, BuildingBlock: HICVOG_clean_sbu_0, # of connection points: 7
#     Node 1, Type 0, BuildingBlock: HICVOG_clean_sbu_0, # of connection points: 7
#     Node 2, Type 0, BuildingBlock: HICVOG_clean_sbu_0, # of connection points: 7
#     Node 3, Type 0, BuildingBlock: HICVOG_clean_sbu_0, # of connection points: 7
#     Node 4, Type 0, BuildingBlock: HICVOG_clean_sbu_0, # of connection points: 7
#     Node 5, Type 0, BuildingBlock: HICVOG_clean_sbu_0, # of connection points: 7
#     Node 6, Type 0, BuildingBlock: HICVOG_clean_sbu_0, # of connection points: 7
#     Node 7, Type 0, BuildingBlock: HICVOG_clean_sbu_0, # of connection points: 7
#     Edge 8, Type (0, 0), BuildingBlock: CIFDUS_clean_linker_0, # of connection points: 2
#     Edge 9, Type (0, 0), BuildingBlock: CIFDUS_clean_linker_0, # of connection points: 2
#     Edge 10, Type (0, 0), BuildingBlock: CIFDUS_clean_linker_0, # of connection points: 2
#     Edge 11, Type (0, 0), BuildingBlock: CIFDUS_clean_linker_0, # of connection points: 2
#     Edge 12, Type (0, 0), BuildingBlock: CIFDUS_clean_linker_0, # of connection points: 2
#     Edge 13, Type (0, 0), BuildingBlock: CIFDUS_clean_linker_0, # of connection points: 2
#     Edge 14, Type (0, 0), BuildingBlock: CIFDUS_clean_linker_0, # of connection points: 2
#     Edge 15, Type (0, 0), BuildingBlock: CIFDUS_clean_linker_0, # of connection points: 2
#     Edge 16, Type (0, 0), BuildingBlock: CIFDUS_clean_linker_0, # of connection points: 2
#     Edge 17, Type (0, 0), BuildingBlock: CIFDUS_clean_linker_0, # of connection points: 2
#     Edge 18, Type (0, 0), BuildingBlock: CIFDUS_clean_linker_0, # of connection points: 2
#     Edge 19, Type (0, 0), BuildingBlock: CIFDUS_clean_linker_0, # of connection points: 2
#     Edge 20, Type (0, 0), BuildingBlock: CIFDUS_clean_linker_0, # of connection points: 2
#     Edge 21, Type (0, 0), BuildingBlock: CIFDUS_clean_linker_0, # of connection points: 2
#     Edge 22, Type (0, 0), BuildingBlock: CIFDUS_clean_linker_0, # of connection points: 2
#     Edge 23, Type (0, 0), BuildingBlock: CIFDUS_clean_linker_0, # of connection points: 2
#     Edge 24, Type (0, 0), BuildingBlock: CIFDUS_clean_linker_0, # of connection points: 2
#     Edge 25, Type (0, 0), BuildingBlock: CIFDUS_clean_linker_0, # of connection points: 2
#     Edge 26, Type (0, 0), BuildingBlock: CIFDUS_clean_linker_0, # of connection points: 2
#     Edge 27, Type (0, 0), BuildingBlock: CIFDUS_clean_linker_0, # of connection points: 2
#     Edge 28, Type (0, 0), BuildingBlock: CIFDUS_clean_linker_0, # of connection points: 2
#     Edge 29, Type (0, 0), BuildingBlock: CIFDUS_clean_linker_0, # of connection points: 2
#     Edge 30, Type (0, 0), BuildingBlock: CIFDUS_clean_linker_0, # of connection points: 2
#     Edge 31, Type (0, 0), BuildingBlock: CIFDUS_clean_linker_0, # of connection points: 2
#     Edge 32, Type (0, 0), BuildingBlock: CIFDUS_clean_linker_0, # of connection points: 2
#     Edge 33, Type (0, 0), BuildingBlock: CIFDUS_clean_linker_0, # of connection points: 2
#     Edge 34, Type (0, 0), BuildingBlock: CIFDUS_clean_linker_0, # of connection points: 2
#     Edge 35, Type (0, 0), BuildingBlock: CIFDUS_clean_linker_0, # of connection points: 2
# Relax obj value: 0.169
# Max RMSD: 0.222
# Mean RMSD: 0.213
data_MOF--net-xfa--node1-HICVOG_clean_sbu_0--edge1-CIFDUS_clean_linker_0
_symmetry_space_group_name_H-M    P1
_symmetry_Int_Tables_number       1
_symmetry_cell_setting            triclinic
loop_
_symmetry_equiv_pos_as_xyz
'x, y, z'
_cell_length_a     40.593354
_cell_length_b     40.857504
_cell_length_c     15.864684
_cell_angle_alpha  90.25363
_cell_angle_beta   89.591034
_cell_angle_gamma 90.339929
loop_
_atom_site_label
_atom_site_type_symbol
_atom_site_fract_x
_atom_site_fract_y
_atom_site_fract_z
_atom_type_partial_charge
Zn0 Zn 0.1094 0.2848 0.35612 0.0
C1 C 0.1358 0.21313 0.19298 0.0
N2 N 0.15877 0.2068 0.25059 0.0
C3 C 0.14995 0.22609 0.31526 0.0
N4 N 0.12295 0.2441 0.29815 0.0
N5 N 0.11397 0.23553 0.22102 0.0
C6 C 0.08457 0.2549 0.01683 0.0
O7 O 0.09716 0.27829 0.06396 0.0
O8 O 0.10327 0.27708 0.48188 0.0
Zn9 Zn 0.06932 0.2365 0.1804 0.0
N10 N 0.14575 0.31565 0.3398 0.0
C11 C 0.19251 0.32938 0.2555 0.0
C12 C 0.16526 0.30959 0.27151 0.0
C13 C 0.15196 0.34167 0.39188 0.0
N14 N 0.19899 0.35491 0.30763 0.0
C15 C 0.17951 0.36199 0.37546 0.0
O16 O 0.04572 0.27808 0.20569 0.0
C17 C 0.04586 0.30287 0.25417 0.0
O18 O 0.06796 0.30727 0.30999 0.0
H19 H 0.15978 0.28946 0.22956 0.0
H20 H 0.13602 0.34612 0.44562 0.0
C21 C 0.02475 0.17956 0.21201 0.0
C22 C 1.00787 0.1588 0.26909 0.0
C23 C 0.03344 0.18647 0.38347 0.0
C24 C 0.04979 0.20688 0.32726 0.0
N25 N 0.04529 0.2032 0.24297 0.0
N26 N 1.01293 0.16308 0.35321 0.0
H27 H 1.0211 0.17758 0.1447 0.0
C28 C 0.07586 0.26886 0.51532 0.0
O29 O 0.04962 0.2664 0.46771 0.0
O30 O 0.06946 0.23131 0.05278 0.0
H31 H 0.06572 0.22598 0.35064 0.0
H32 H 0.20837 0.32459 0.20181 0.0
H33 H 0.03681 0.1893 0.45071 0.0
Zn34 Zn 0.31486 0.57425 0.45198 0.0
C35 C 0.29111 0.65409 0.58228 0.0
N36 N 0.30479 0.66981 0.5167 0.0
C37 C 0.30875 0.64612 0.45914 0.0
N38 N 0.29824 0.61675 0.48783 0.0
N39 N 0.28609 0.62193 0.56453 0.0
C40 C 0.27098 0.57812 0.78383 0.0
O41 O 0.29164 0.55937 0.74193 0.0
O42 O 0.31987 0.5704 0.32515 0.0
Zn43 Zn 0.25001 0.59594 0.61581 0.0
N44 N 0.35706 0.56666 0.50547 0.0
C45 C 0.39553 0.58017 0.61286 0.0
C46 C 0.36652 0.58663 0.56977 0.0
C47 C 0.37575 0.54055 0.48184 0.0
N48 N 0.41407 0.55405 0.58974 0.0
C49 C 0.40522 0.53396 0.52494 0.0
O50 O 0.24578 0.54768 0.57869 0.0
C51 C 0.26098 0.52808 0.52948 0.0
O52 O 0.28545 0.53737 0.48528 0.0
H53 H 0.35151 0.60718 0.58829 0.0
H54 H 0.36725 0.52476 0.43147 0.0
C55 C 0.18719 0.63151 0.63213 0.0
C56 C 0.16065 0.64871 0.59683 0.0
C57 C 0.18054 0.63546 0.45973 0.0
C58 C 0.20683 0.61872 0.49468 0.0
N59 N 0.20988 0.61725 0.57978 0.0
N60 N 0.15833 0.65019 0.51135 0.0
H61 H 0.19034 0.63039 0.69974 0.0
C62 C 0.29431 0.56411 0.28179 0.0
O63 O 0.26579 0.56089 0.32063 0.0
O64 O 0.25148 0.59647 0.74336 0.0
H65 H 0.22513 0.60737 0.45437 0.0
H66 H 0.40322 0.59572 0.66456 0.0
H67 H 0.17798 0.63706 0.39205 0.0
Zn68 Zn 0.94089 0.74929 0.84331 0.0
C69 C 0.88846 0.79634 0.68282 0.0
N70 N 0.86522 0.79333 0.74247 0.0
C71 C 0.88274 0.7869 0.81185 0.0
N72 N 0.91534 0.78469 0.79386 0.0
N73 N 0.91893 0.79218 0.71341 0.0
C74 C 0.94719 0.78175 0.50437 0.0
O75 O 0.94138 0.75642 0.55307 0.0
O76 O 0.94069 0.75456 0.96977 0.0
Zn77 Zn 0.95972 0.80764 0.66538 0.0
N78 N 0.91829 0.70916 0.80862 0.0
C79 C 0.90854 0.67631 0.68703 0.0
C80 C 0.92443 0.70241 0.72611 0.0
C81 C 0.89691 0.69027 0.85483 0.0
N82 N 0.88693 0.65787 0.732 0.0
C83 C 0.88055 0.66381 0.815 0.0
O84 O 0.9968 0.77781 0.69156 0.0
C85 C 1.00711 0.7556 0.7405 0.0
O86 O 0.989 0.7441 0.79979 0.0
H87 H 0.94126 0.71771 0.69061 0.0
H88 H 0.89193 0.69632 0.92015 0.0
C89 C 1.00032 0.86523 0.70059 0.0
C90 C 1.00806 0.89458 0.74373 0.0
C91 C 0.95529 0.89306 0.80929 0.0
C92 C 0.94771 0.86425 0.76619 0.0
N93 N 0.97037 0.8506 0.7134 0.0
N94 N 0.98516 0.90743 0.79731 0.0
H95 H 1.0181 0.85371 0.65905 0.0
C96 C 0.95755 0.77783 0.00149 0.0
O97 O 0.97494 0.79673 0.951 0.0
O98 O 0.95591 0.8087 0.53826 0.0
H99 H 0.92405 0.85262 0.77603 0.0
H100 H 0.91305 0.67092 0.62114 0.0
H101 H 0.93758 0.9039 0.85219 0.0
Zn102 Zn 0.79628 0.44236 0.09853 0.0
C103 C 0.73352 0.39195 0.94706 0.0
N104 N 0.74103 0.36788 0.00043 0.0
C105 C 0.75826 0.38286 0.06091 0.0
N106 N 0.763 0.41491 0.04223 0.0
N107 N 0.74649 0.42109 0.97201 0.0
C108 C 0.75221 0.46861 0.76811 0.0
O109 O 0.78086 0.46667 0.80573 0.0
O110 O 0.7931 0.4406 0.22543 0.0
Zn111 Zn 0.73215 0.46508 0.93839 0.0
N112 N 0.83951 0.42614 0.06612 0.0
C113 C 0.88301 0.43121 0.96552 0.0
C114 C 0.85078 0.43762 0.99092 0.0
C115 C 0.85908 0.40761 0.1165 0.0
N116 N 0.90274 0.41339 0.01617 0.0
C117 C 0.89177 0.40119 0.091 0.0
O118 O 0.76403 0.50223 0.96323 0.0
C119 C 0.78767 0.51026 0.01143 0.0
O120 O 0.79931 0.49009 0.06412 0.0
H121 H 0.835 0.45239 0.95196 0.0
H122 H 0.84971 0.39893 0.17647 0.0
C123 C 0.67157 0.50013 0.97177 0.0
C124 C 0.64261 0.50723 0.01778 0.0
C125 C 0.65383 0.46269 0.10869 0.0
C126 C 0.6823 0.45571 0.06278 0.0
N127 N 0.69081 0.47463 0.99574 0.0
N128 N 0.63478 0.48822 0.0854 0.0
H129 H 0.67918 0.515 0.91874 0.0
C130 C 0.77412 0.45902 0.26826 0.0
O131 O 0.75444 0.47922 0.229 0.0
O132 O 0.72606 0.46781 0.81272 0.0
H133 H 0.69763 0.43551 0.08093 0.0
H134 H 0.89239 0.44057 0.9063 0.0
H135 H 0.64693 0.44796 0.16257 0.0
Zn136 Zn 0.61999 0.24668 0.39072 0.0
C137 C 0.66193 0.31098 0.54957 0.0
N138 N 0.68789 0.30455 0.49995 0.0
C139 C 0.67508 0.28836 0.43422 0.0
N140 N 0.6424 0.28333 0.44607 0.0
N141 N 0.63383 0.29802 0.51783 0.0
C142 C 0.58537 0.28892 0.72308 0.0
O143 O 0.58809 0.26027 0.6858 0.0
O144 O 0.62276 0.24976 0.26302 0.0
Zn145 Zn 0.58856 0.3088 0.55058 0.0
N146 N 0.64331 0.20814 0.42974 0.0
C147 C 0.65804 0.18058 0.55557 0.0
C148 C 0.64142 0.20552 0.51496 0.0
C149 C 0.66099 0.18623 0.38249 0.0
N150 N 0.67607 0.15916 0.50932 0.0
C151 C 0.67811 0.16097 0.42375 0.0
O152 O 0.55456 0.2742 0.52137 0.0
C153 C 0.54956 0.24922 0.47484 0.0
O154 O 0.5719 0.23837 0.42531 0.0
H155 H 0.62733 0.22313 0.55113 0.0
H156 H 0.66247 0.18895 0.31474 0.0
C157 C 0.55135 0.36821 0.52013 0.0
C158 C 0.54243 0.39581 0.47245 0.0
C159 C 0.58464 0.38309 0.37335 0.0
C160 C 0.59329 0.35588 0.42055 0.0
N161 N 0.57649 0.34881 0.4927 0.0
N162 N 0.55945 0.40226 0.40008 0.0
H163 H 0.53805 0.36169 0.57704 0.0
C164 C 0.6107 0.27347 0.22179 0.0
O165 O 0.59711 0.29786 0.26325 0.0
O166 O 0.58492 0.31457 0.67771 0.0
H167 H 0.613 0.34025 0.39904 0.0
H168 H 0.65691 0.17841 0.62346 0.0
H169 H 0.5977 0.38885 0.31557 0.0
Zn170 Zn 0.23967 0.07745 0.81195 0.0
C171 C 0.25822 0.16211 0.68794 0.0
N172 N 0.24537 0.17564 0.75765 0.0
C173 C 0.23897 0.15025 0.80821 0.0
N174 N 0.24955 0.12183 0.77339 0.0
N175 N 0.26259 0.12965 0.69893 0.0
C176 C 0.26161 0.10191 0.47877 0.0
O177 O 0.23668 0.09641 0.5301 0.0
O178 O 0.24047 0.07718 0.94139 0.0
Zn179 Zn 0.29794 0.10737 0.63673 0.0
N180 N 0.19762 0.06345 0.76128 0.0
C181 C 0.16024 0.07331 0.64914 0.0
C182 C 0.18774 0.08228 0.6957 0.0
C183 C 0.18024 0.03597 0.78337 0.0
N184 N 0.14332 0.04583 0.66999 0.0
C185 C 0.15224 0.02675 0.73599 0.0
O186 O 0.30741 0.06033 0.67347 0.0
C187 C 0.29754 0.039 0.72658 0.0
O188 O 0.2737 0.04457 0.77695 0.0
H189 H 0.2014 0.10395 0.67833 0.0
H190 H 0.18854 0.02111 0.83527 0.0
C191 C 0.35868 0.14929 0.61335 0.0
C192 C 0.38571 0.16632 0.64891 0.0
C193 C 0.37041 0.14655 0.7842 0.0
C194 C 0.3438 0.12994 0.74932 0.0
N195 N 0.33815 0.13166 0.66517 0.0
N196 N 0.3905 0.16443 0.73352 0.0
H197 H 0.3537 0.15067 0.54654 0.0
C198 C 0.26745 0.08656 0.97442 0.0
O199 O 0.29229 0.09392 0.92433 0.0
O200 O 0.28991 0.10771 0.50985 0.0
H201 H 0.32734 0.11589 0.78915 0.0
H202 H 0.15247 0.08799 0.59637 0.0
H203 H 0.37494 0.14549 0.85124 0.0
Zn204 Zn 0.43111 0.79017 0.89759 0.0
C205 C 0.38709 0.73599 0.07189 0.0
N206 N 0.36104 0.74025 0.02202 0.0
C207 C 0.37422 0.75228 0.95079 0.0
N208 N 0.40718 0.75614 0.95836 0.0
N209 N 0.41552 0.74495 0.0335 0.0
C210 C 0.47141 0.74553 0.23425 0.0
O211 O 0.47697 0.77447 0.20111 0.0
O212 O 0.42909 0.78508 0.77128 0.0
Zn213 Zn 0.4599 0.73029 0.06062 0.0
N214 N 0.41017 0.83097 0.9298 0.0
C215 C 0.40011 0.86694 0.04535 0.0
C216 C 0.41409 0.83856 0.0126 0.0
C217 C 0.39284 0.8509 0.87755 0.0
N218 N 0.38256 0.88662 0.994 0.0
C219 C 0.37856 0.87957 0.9108 0.0
O220 O 0.49524 0.76294 0.03096 0.0
C221 C 0.50097 0.7867 0.98141 0.0
O222 O 0.47913 0.79705 0.93089 0.0
H223 H 0.42795 0.82246 0.05288 0.0
H224 H 0.38979 0.84431 0.8119 0.0
C225 C 0.49519 0.67118 0.02216 0.0
C226 C 0.50294 0.643 0.97462 0.0
C227 C 0.4583 0.65447 0.8836 0.0
C228 C 0.45066 0.68218 0.93116 0.0
N229 N 0.46933 0.69017 -0.00094 0.0
N230 N 0.4842 0.63565 0.90616 0.0
H231 H 0.50985 0.67842 0.07586 0.0
C232 C 0.43799 0.75986 0.72999 0.0
O233 O 0.44734 0.73368 0.77096 0.0
O234 O 0.46394 0.72177 0.18579 0.0
H235 H 0.43023 0.69737 0.91336 0.0
H236 H 0.40296 0.87321 0.11123 0.0
H237 H 0.44379 0.64798 0.829 0.0
Zn238 Zn 0.74779 0.93087 0.13724 0.0
C239 C 0.80256 0.8787 0.29593 0.0
N240 N 0.79621 0.85564 0.23792 0.0
C241 C 0.78315 0.87221 0.17394 0.0
N242 N 0.78046 0.90428 0.19336 0.0
N243 N 0.79316 0.9087 0.26934 0.0
C244 C 0.77597 0.93837 0.47624 0.0
O245 O 0.75154 0.93 0.42656 0.0
O246 O 0.75437 0.92807 0.01144 0.0
Zn247 Zn 0.80459 0.95121 0.31577 0.0
N248 N 0.70579 0.91177 0.1698 0.0
C249 C 0.66813 0.90691 0.28473 0.0
C250 C 0.69673 0.92007 0.24966 0.0
C251 C 0.68708 0.89084 0.12257 0.0
N252 N 0.64969 0.88579 0.23858 0.0
C253 C 0.65818 0.87739 0.15828 0.0
O254 O 0.77446 0.98811 0.28482 0.0
C255 C 0.75349 0.99769 0.23128 0.0
O256 O 0.74358 0.97892 0.17223 0.0
H257 H 0.71198 0.93654 0.28615 0.0
H258 H 0.69494 0.88419 0.05948 0.0
C259 C 0.86016 0.99382 0.28198 0.0
C260 C 0.89094 1.00221 0.24595 0.0
C261 C 0.89556 0.94805 0.19224 0.0
C262 C 0.86531 0.93991 0.22844 0.0
N263 N 0.84819 0.96284 0.27276 0.0
N264 N 0.90762 0.97885 0.20182 0.0
H265 H 0.8454 1.01168 0.3154 0.0
C266 C 0.78264 0.93359 0.97934 0.0
O267 O 0.80731 0.94083 0.02942 0.0
O268 O 0.80249 0.94925 0.44338 0.0
H269 H 0.85555 0.91549 0.22084 0.0
H270 H 0.66077 0.91317 0.34843 0.0
H271 H 0.90938 0.93004 0.15671 0.0
H272 H 0.24046 0.38265 0.41416 0.0
H273 H 0.13828 0.40736 0.45089 0.0
H274 H 0.15449 0.46021 0.51257 0.0
H275 H 0.19818 0.50221 0.53928 0.0
H276 H 0.29984 0.47637 0.49529 0.0
H277 H 0.2834 0.42131 0.454 0.0
C278 C 0.22168 0.39939 0.43677 0.0
C279 C 0.18825 0.39113 0.42738 0.0
C280 C 0.23115 0.4298 0.47029 0.0
C281 C 0.16423 0.41295 0.45788 0.0
C282 C 0.17351 0.44334 0.49246 0.0
C283 C 0.21667 0.48425 0.52242 0.0
C284 C 0.25018 0.49353 0.51955 0.0
C285 C 0.20695 0.45246 0.4967 0.0
C286 C 0.27388 0.47002 0.49709 0.0
C287 C 0.26452 0.43849 0.47336 0.0
H288 H 0.03484 0.69788 0.79649 0.0
H289 H 0.0546 0.78262 0.64161 0.0
H290 H 0.10509 0.75804 0.59005 0.0
H291 H 0.1408 0.71054 0.57619 0.0
H292 H 0.12363 0.62561 0.73032 0.0
H293 H 0.07551 0.65221 0.79552 0.0
C294 C 0.05051 0.71118 0.75271 0.0
C295 C 0.04037 0.7419 0.72206 0.0
C296 C 0.07997 0.69677 0.7225 0.0
C297 C 0.06123 0.75877 0.66548 0.0
C298 C 0.09027 0.74474 0.63572 0.0
C299 C 0.12682 0.69808 0.62516 0.0
C300 C 0.13557 0.66618 0.64817 0.0
C301 C 0.09938 0.71344 0.6618 0.0
C302 C 0.11746 0.65032 0.712 0.0
C303 C 0.08981 0.66545 0.74873 0.0
H304 H 0.77287 0.55796 0.89797 0.0
H305 H 0.84169 0.53471 0.09471 0.0
H306 H 0.87449 0.58312 0.05936 0.0
H307 H 0.88725 0.62872 0.96105 0.0
H308 H 0.81942 0.64955 0.76087 0.0
H309 H 0.78262 0.60604 0.80968 0.0
C310 C 0.79474 0.56367 0.9342 0.0
C311 C 0.80479 0.54234 -0.00149 0.0
C312 C 0.81389 0.59128 0.91257 0.0
C313 C 0.83327 0.55044 0.04459 0.0
C314 C 0.85219 0.57817 0.02425 0.0
C315 C 0.86396 0.62427 0.92987 0.0
C316 C 0.85596 0.64244 0.85772 0.0
C317 C 0.84325 0.59834 0.95685 0.0
C318 C 0.82603 0.63596 0.81671 0.0
C319 C 0.80505 0.61094 0.8443 0.0
H320 H 0.98063 0.29082 0.24162 0.0
H321 H 0.05224 0.36906 0.23884 0.0
H322 H 1.00975 0.40758 0.19369 0.0
H323 H 0.95352 0.41723 0.14004 0.0
H324 H 0.88126 0.33966 0.15127 0.0
H325 H 0.92249 0.30258 0.20928 0.0
C326 C 0.9867 0.31647 0.23263 0.0
C327 C 1.01947 0.32717 0.2427 0.0
C328 C 0.96207 0.33842 0.20785 0.0
C329 C 0.02714 0.36041 0.23169 0.0
C330 C 1.0029 0.38232 0.20536 0.0
C331 C 0.94673 0.39238 0.15698 0.0
C332 C 0.91452 0.38105 0.14126 0.0
C333 C 0.97049 0.37138 0.19109 0.0
C334 C 0.90584 0.34892 0.16351 0.0
C335 C 0.92947 0.32769 0.19601 0.0
H336 H 0.66308 0.1221 0.28688 0.0
H337 H 0.73987 0.14427 0.46498 0.0
H338 H 0.77159 0.09748 0.4151 0.0
H339 H 0.77486 0.04698 0.33302 0.0
H340 H 0.69774 0.02243 0.15763 0.0
H341 H 0.66917 0.07333 0.19328 0.0
C342 C 0.68715 0.1171 0.31295 0.0
C343 C 0.69915 0.13666 0.37951 0.0
C344 C 0.70503 0.08939 0.28533 0.0
C345 C 0.73011 0.12957 0.41379 0.0
C346 C 0.74822 0.10272 0.38556 0.0
C347 C 0.75198 0.05284 0.3017 0.0
C348 C 0.73837 0.03058 0.24336 0.0
C349 C 0.73548 0.08188 0.32332 0.0
C350 C 0.70884 0.03896 0.20293 0.0
C351 C 0.69238 0.06807 0.22359 0.0
H352 H 0.43234 0.14821 0.53247 0.0
H353 H 0.39197 0.23161 0.66305 0.0
H354 H 0.43793 0.2657 0.61455 0.0
H355 H 0.49279 0.27019 0.54997 0.0
H356 H 0.53469 0.18676 0.42168 0.0
H357 H 0.48517 0.15455 0.45341 0.0
C358 C 0.43315 0.1741 0.54765 0.0
C359 C 0.40856 0.18756 0.60019 0.0
C360 C 0.46034 0.19344 0.52134 0.0
C361 C 0.41036 0.22091 0.62162 0.0
C362 C 0.43682 0.24032 0.59459 0.0
C363 C 0.49101 0.24507 0.52796 0.0
C364 C 0.51777 0.23093 0.48424 0.0
C365 C 0.46251 0.2266 0.54684 0.0
C366 C 0.51466 0.19839 0.4556 0.0
C367 C 0.4863 0.17986 0.47399 0.0
H368 H 0.27516 0.98257 0.79673 0.0
H369 H 0.36126 0.02545 0.67951 0.0
H370 H 0.39354 0.9772 0.71633 0.0
H371 H 0.39874 0.92564 0.7978 0.0
H372 H 0.3126 0.88436 0.91755 0.0
H373 H 0.27879 0.92873 0.8629 0.0
C374 C 0.30089 0.98121 0.77813 0.0
C375 C 0.31582 1.00781 0.73626 0.0
C376 C 0.31932 0.95356 0.80014 0.0
C377 C 0.34909 1.00538 0.71176 0.0
C378 C 0.36763 0.97783 0.73322 0.0
C379 C 0.37238 0.92597 0.80942 0.0
C380 C 0.35794 0.9017 0.86059 0.0
C381 C 0.35323 0.95213 0.77943 0.0
C382 C 0.32399 0.90263 0.87732 0.0
C383 C 0.30476 0.92812 0.8467 0.0
H384 H 0.61732 0.88859 0.02654 0.0
H385 H 0.65014 0.81377 0.19628 0.0
H386 H 0.60609 0.77717 0.14877 0.0
H387 H 0.55438 0.76928 0.07326 0.0
H388 H 0.51918 0.84498 0.90825 0.0
H389 H 0.56802 0.87815 0.93858 0.0
C390 C 0.61531 0.86387 0.05082 0.0
C391 C 0.63703 0.85357 0.11388 0.0
C392 C 0.58915 0.84336 0.02515 0.0
C393 C 0.63385 0.8219 0.14685 0.0
C394 C 0.60853 0.80113 0.12024 0.0
C395 C 0.55751 0.79284 0.04287 0.0
C396 C 0.5328 0.8047 0.98936 0.0
C397 C 0.58537 0.81202 0.06164 0.0
C398 C 0.53762 0.8352 0.95006 0.0
C399 C 0.56556 0.85429 0.96759 0.0
H400 H 0.22639 0.20677 0.88582 0.0
H401 H 0.19484 0.10602 0.8817 0.0
H402 H 0.15677 0.11663 -0.00141 0.0
H403 H 0.13464 0.15549 0.10709 0.0
H404 H 0.15983 0.25779 0.08778 0.0
H405 H 0.19613 0.24633 0.96886 0.0
C406 C 0.21125 0.18691 0.91005 0.0
C407 C 0.21574 0.15481 0.87981 0.0
C408 C 0.18704 0.19404 0.9701 0.0
C409 C 0.19462 0.13004 0.90956 0.0
C410 C 0.17185 0.13648 0.97434 0.0
C411 C 0.14689 0.17532 0.07388 0.0
C412 C 0.14407 0.20754 0.10445 0.0
C413 C 0.16811 0.16845 0.00572 0.0
C414 C 0.16074 0.23303 0.06314 0.0
C415 C 0.18215 0.22637 0.99661 0.0
H416 H 0.35394 0.67993 0.09107 0.0
H417 H 0.40651 0.7543 0.2282 0.0
H418 H 0.39326 0.72697 0.36168 0.0
H419 H 0.36086 0.68594 0.43866 0.0
H420 H 0.29131 0.62699 0.30224 0.0
H421 H 0.31711 0.64274 0.16829 0.0
C422 C 0.36328 0.68947 0.15029 0.0
C423 C 0.38362 0.71743 0.15034 0.0
C424 C 0.3523 0.67583 0.2263 0.0
C425 C 0.39371 0.73102 0.227 0.0
C426 C 0.38525 0.71591 0.30303 0.0
C427 C 0.35198 0.67596 0.37945 0.0
C428 C 0.3263 0.65269 0.37968 0.0
C429 C 0.36403 0.68866 0.30336 0.0
C430 C 0.31352 0.64161 0.30307 0.0
C431 C 0.32749 0.65176 0.22679 0.0
H432 H 0.89584 0.85583 0.60906 0.0
H433 H 0.85899 0.7578 0.57076 0.0
H434 H 0.82784 0.77568 0.44858 0.0
H435 H 0.80632 0.81973 0.3647 0.0
H436 H 0.84708 0.91687 0.38768 0.0
H437 H 0.88017 0.89946 0.50727 0.0
C438 C 0.88189 0.83837 0.57172 0.0
C439 C 0.8798 0.80555 0.59724 0.0
C440 C 0.86352 0.84901 0.50229 0.0
C441 C 0.86116 0.78305 0.5506 0.0
C442 C 0.84303 0.79335 0.4818 0.0
C443 C 0.82244 0.83729 0.39552 0.0
C444 C 0.82251 0.87024 0.37046 0.0
C445 C 0.84311 0.82643 0.45928 0.0
C446 C 0.84439 0.89215 0.40965 0.0
C447 C 0.86414 0.88186 0.47655 0.0
H448 H 0.64638 0.30901 0.7164 0.0
H449 H 0.68928 0.37012 0.52452 0.0
H450 H 0.71455 0.40454 0.63206 0.0
H451 H 0.7334 0.40792 0.78024 0.0
H452 H 0.67783 0.35766 0.97225 0.0
H453 H 0.64772 0.32772 0.86484 0.0
C454 C 0.65816 0.33162 0.69791 0.0
C455 C 0.6649 0.33738 0.61271 0.0
C456 C 0.67099 0.35263 0.76006 0.0
C457 C 0.68346 0.36528 0.59008 0.0
C458 C 0.6981 0.38496 0.65149 0.0
C459 C 0.71236 0.39344 0.79901 0.0
C460 C 0.70754 0.38593 0.88418 0.0
C461 C 0.69316 0.37797 0.73689 0.0
C462 C 0.68206 0.36402 0.90677 0.0
C463 C 0.66469 0.34679 0.84539 0.0
H464 H 0.12048 0.28377 0.63698 0.0
H465 H 0.02613 0.23708 0.59887 0.0
H466 H 1.0216 0.2259 0.74976 0.0
H467 H 0.04334 0.23172 0.89447 0.0
H468 H 0.13567 0.28229 0.93188 0.0
H469 H 0.1423 0.28914 0.7801 0.0
C470 C 0.09897 0.27104 0.66161 0.0
C471 C 0.07361 0.26149 0.60668 0.0
C472 C 0.0962 0.26527 0.74869 0.0
C473 C 0.0459 0.24502 0.63979 0.0
C474 C 0.04331 0.23851 0.72614 0.0
C475 C 0.06503 0.2439 0.86907 0.0
C476 C 0.08901 0.25638 0.92426 0.0
C477 C 0.06815 0.24883 0.78146 0.0
C478 C 0.11682 0.2725 0.89071 0.0
C479 C 0.12062 0.2765 0.80387 0.0
H480 H 0.24495 0.58011 0.17625 0.0
H481 H 0.34707 0.55168 0.17886 0.0
H482 H 0.34897 0.55341 0.0245 0.0
H483 H 0.32112 0.56226 0.88866 0.0
H484 H 0.22006 0.59436 0.88793 0.0
H485 H 0.21824 0.59211 0.04178 0.0
C486 C 0.26757 0.57409 0.14299 0.0
C487 C 0.29569 0.56523 0.18866 0.0
C488 C 0.26866 0.57591 0.05467 0.0
C489 C 0.32505 0.55832 0.14492 0.0
C490 C 0.32613 0.55932 0.05677 0.0
C491 C 0.29871 0.56872 0.92232 0.0
C492 C 0.27064 0.57811 0.87705 0.0
C493 C 0.29803 0.56794 0.01095 0.0
C494 C 0.24196 0.58701 0.92138 0.0
C495 C 0.24087 0.58564 0.00931 0.0
H496 H 0.97121 0.82233 0.38204 0.0
H497 H 0.91534 0.73331 0.41929 0.0
H498 H 0.91249 0.72487 0.26728 0.0
H499 H 0.92804 0.74122 0.12384 0.0
H500 H 0.98526 0.82936 0.08586 0.0
H501 H 0.98536 0.83963 0.23756 0.0
C502 C 0.95822 0.80124 0.35677 0.0
C503 C 0.94378 0.77836 0.41195 0.0
C504 C 0.95711 0.7962 0.26905 0.0
C505 C 0.92701 0.75113 0.37827 0.0
C506 C 0.92533 0.74626 0.29127 0.0
C507 C 0.94048 0.76272 0.14866 0.0
C508 C 0.95686 0.7843 0.09348 0.0
C509 C 0.94071 0.76836 0.23609 0.0
C510 C 0.97271 0.81214 0.12685 0.0
C511 C 0.97273 0.8181 0.21369 0.0
H512 H 0.72592 0.47891 0.37694 0.0
H513 H 0.82248 0.4353 0.36829 0.0
H514 H 0.82419 0.43468 0.522 0.0
H515 H 0.79898 0.44764 0.65867 0.0
H516 H 0.70133 0.48856 0.66912 0.0
H517 H 0.69925 0.48905 0.51486 0.0
C518 C 0.74732 0.4693 0.40882 0.0
C519 C 0.77418 0.4575 0.36134 0.0
C520 C 0.74797 0.4686 0.4974 0.0
C521 C 0.80151 0.44459 0.40339 0.0
C522 C 0.80255 0.4443 0.49128 0.0
C523 C 0.77728 0.45681 0.6272 0.0
C524 C 0.75054 0.46849 0.67508 0.0
C525 C 0.77607 0.45648 0.53886 0.0
C526 C 0.72232 0.47963 0.63351 0.0
C527 C 0.72113 0.47992 0.54539 0.0
H528 H 0.58783 0.32023 0.11443 0.0
H529 H 0.63102 0.22391 0.11807 0.0
H530 H 0.62622 0.22011 0.96521 0.0
H531 H 0.60894 0.24344 0.83064 0.0
H532 H 0.56713 0.3402 0.82472 0.0
H533 H 0.57201 0.3444 0.97827 0.0
C534 C 0.59631 0.29844 0.08182 0.0
C535 C 0.60961 0.27231 0.12813 0.0
C536 C 0.59347 0.29637 0.99348 0.0
C537 C 0.62063 0.24438 0.08444 0.0
C538 C 0.61781 0.24212 0.99686 0.0
C539 C 0.60064 0.26538 0.86291 0.0
C540 C 0.58735 0.29134 0.8163 0.0
C541 C 0.60401 0.26781 0.95085 0.0
C542 C 0.57726 0.31979 0.85912 0.0
C543 C 0.58012 0.32222 0.94691 0.0
H544 H 0.30857 0.10582 0.35531 0.0
H545 H 0.20386 0.0936 0.39316 0.0
H546 H 0.19614 0.0877 0.24125 0.0
H547 H 0.21933 0.08476 0.09684 0.0
H548 H 0.32418 0.09711 0.06072 0.0
H549 H 0.33148 0.10402 0.21195 0.0
C550 C 0.28403 0.10198 0.33044 0.0
C551 C 0.25691 0.09998 0.38596 0.0
C552 C 0.27974 0.09838 0.24291 0.0
C553 C 0.22527 0.09507 0.3522 0.0
C554 C 0.2208 0.09165 0.26515 0.0
C555 C 0.24378 0.0888 0.12215 0.0
C556 C 0.27116 0.09016 0.06718 0.0
C557 C 0.2479 0.09294 0.20981 0.0
C558 C 0.30261 0.09585 0.10121 0.0
C559 C 0.30687 0.09984 0.18793 0.0
H560 H 0.45764 0.79374 0.34569 0.0
H561 H 0.47473 0.68984 0.32934 0.0
H562 H 0.46503 0.68469 0.48148 0.0
H563 H 0.45195 0.71014 0.61943 0.0
H564 H 0.43212 0.81383 0.63134 0.0
H565 H 0.44225 0.81848 0.48051 0.0
C566 C 0.45965 0.77 0.3755 0.0
C567 C 0.46747 0.7423 0.32666 0.0
C568 C 0.4532 0.76714 0.46212 0.0
C569 C 0.4691 0.71159 0.36588 0.0
C570 C 0.46342 0.70863 0.45271 0.0
C571 C 0.44971 0.73371 0.58892 0.0
C572 C 0.4415 0.76161 0.63702 0.0
C573 C 0.45541 0.73627 0.50153 0.0
C574 C 0.43842 0.79192 0.5962 0.0
C575 C 0.44435 0.79468 0.50984 0.0
H576 H 0.73622 0.92321 0.85927 0.0
H577 H 0.83995 0.94319 0.89096 0.0
H578 H 0.8473 0.94578 0.73816 0.0
H579 H 0.82383 0.94438 0.59538 0.0
H580 H 0.72003 0.92435 0.56492 0.0
H581 H 0.71326 0.9198 0.7172 0.0
C582 C 0.76048 0.92802 0.83287 0.0
C583 C 0.78741 0.9333 0.88665 0.0
C584 C 0.76452 0.92967 0.74501 0.0
C585 C 0.81871 0.93928 0.85115 0.0
C586 C 0.82296 0.94079 0.76369 0.0
C587 C 0.79973 0.93908 0.6221 0.0
C588 C 0.77243 0.93503 0.56876 0.0
C589 C 0.79595 0.93643 0.71001 0.0
C590 C 0.74145 0.92772 0.60439 0.0
C591 C 0.73752 0.92511 0.69158 0.0
H592 H 0.19566 0.17587 0.66152 0.0
H593 H 0.29069 0.17745 0.53818 0.0
H594 H 0.2654 0.20243 0.41289 0.0
H595 H 0.21537 0.22227 0.33961 0.0
H596 H 0.12141 0.21835 0.46727 0.0
H597 H 0.14778 0.19838 0.59436 0.0
C598 C 0.2111 0.18205 0.60764 0.0
C599 C 0.245 0.17497 0.60858 0.0
C600 C 0.19676 0.19722 0.53889 0.0
C601 C 0.26453 0.18249 0.53815 0.0
C602 C 0.25011 0.19705 0.46741 0.0
C603 C 0.20102 0.21805 0.39653 0.0
C604 C 0.16672 0.22344 0.39623 0.0
C605 C 0.21623 0.20461 0.46747 0.0
C606 C 0.14799 0.21679 0.46849 0.0
C607 C 0.16297 0.20423 0.53992 0.0
H608 H 0.36629 0.69044 0.90817 0.0
H609 H 0.34635 0.78821 0.82279 0.0
H610 H 0.31254 0.76567 0.7073 0.0
H611 H 0.28971 0.71752 0.63111 0.0
H612 H 0.31369 0.62061 0.71597 0.0
H613 H 0.3425 0.64333 0.83653 0.0
C614 C 0.35481 0.70681 0.86348 0.0
C615 C 0.35913 0.7408 0.87219 0.0
C616 C 0.33476 0.69379 0.80055 0.0
C617 C 0.34387 0.76194 0.81552 0.0
C618 C 0.32418 0.74904 0.75079 0.0
C619 C 0.30025 0.70146 0.67794 0.0
C620 C 0.29796 0.6672 0.66708 0.0
C621 C 0.31923 0.71495 0.74336 0.0
C622 C 0.31276 0.64671 0.72625 0.0
C623 C 0.33047 0.65984 0.79332 0.0
H624 H 0.82018 0.78207 0.87026 0.0
H625 H 0.91538 0.82382 0.92685 0.0
H626 H 0.89063 0.85893 0.03363 0.0
H627 H 0.84199 0.87935 0.10658 0.0
H628 H 0.74697 0.83573 0.06169 0.0
H629 H 0.77094 0.80144 0.94911 0.0
C630 C 0.83555 0.79817 0.90797 0.0
C631 C 0.86979 0.79951 0.89257 0.0
C632 C 0.82086 0.81927 0.96723 0.0
C633 C 0.88936 0.82104 0.9402 0.0
C634 C 0.87502 0.84192 -0.0006 0.0
C635 C 0.82636 0.86306 0.07012 0.0
C636 C 0.79265 0.86075 0.08973 0.0
C637 C 0.84079 0.84175 0.01179 0.0
C638 C 0.77274 0.83867 0.04508 0.0
C639 C 0.78665 0.81858 0.98252 0.0
H640 H 0.6765 0.34838 0.37608 0.0
H641 H 0.70758 0.25055 0.31444 0.0
H642 H 0.74227 0.27236 0.19874 0.0
H643 H 0.76356 0.32035 0.11706 0.0
H644 H 0.73305 0.41726 0.1903 0.0
H645 H 0.70095 0.39509 0.30587 0.0
C646 C 0.69055 0.33172 0.33645 0.0
C647 C 0.68898 0.29791 0.35192 0.0
C648 C 0.71212 0.34456 0.27613 0.0
C649 C 0.70772 0.27658 0.30177 0.0
C650 C 0.72805 0.28917 0.23722 0.0
C651 C 0.75108 0.33659 0.16094 0.0
C652 C 0.75208 0.37077 0.14711 0.0
C653 C 0.73088 0.32327 0.22495 0.0
C654 C 0.73474 0.39137 0.20246 0.0
C655 C 0.71515 0.37848 0.26662 0.0
H656 H 0.95492 0.1366 0.35512 0.0
H657 H 1.0098 0.12071 0.12463 0.0
H658 H 0.97617 0.07228 0.09428 0.0
H659 H 0.93467 0.03175 0.14011 0.0
H660 H 0.88235 0.04681 0.37527 0.0
H661 H 0.91141 0.09832 0.39626 0.0
C662 C 0.95942 0.12273 0.29776 0.0
C663 C 0.98498 0.13229 0.24249 0.0
C664 C 0.94053 0.0946 0.28172 0.0
C665 C 0.99013 0.11424 0.16795 0.0
C666 C 0.97108 0.08631 0.15098 0.0
C667 C 0.92942 0.04639 0.19575 0.0
C668 C 0.90613 0.03523 0.25566 0.0
C669 C 0.94676 0.07585 0.2085 0.0
C670 C 0.89955 0.05475 0.32704 0.0
C671 C 0.91645 0.0842 0.33965 0.0
H672 H 0.50046 0.42743 0.36964 0.0
H673 H 0.52389 0.41494 0.63238 0.0
H674 H 0.48243 0.45553 0.67139 0.0
H675 H 0.4417 0.49688 0.63017 0.0
H676 H 0.41828 0.509 0.36723 0.0
H677 H 0.45739 0.46618 0.32919 0.0
C678 C 0.49636 0.43343 0.43554 0.0
C679 C 0.51527 0.41809 0.4979 0.0
C680 C 0.47251 0.45682 0.45749 0.0
C681 C 0.50944 0.42597 0.58306 0.0
C682 C 0.48589 0.44941 0.60539 0.0
C683 C 0.44502 0.49 0.56456 0.0
C684 C 0.42695 0.50612 0.50178 0.0
C685 C 0.4676 0.46531 0.54305 0.0
C686 C 0.43139 0.49675 0.41708 0.0
C687 C 0.45399 0.4724 0.39516 0.0
H688 H 0.12695 0.98336 0.62459 0.0
H689 H 0.12979 1.00572 0.89023 0.0
H690 H 0.08678 0.96459 0.91691 0.0
H691 H 0.04418 0.9267 0.86201 0.0
H692 H 0.04242 0.90384 0.59633 0.0
H693 H 0.08937 0.94043 0.57241 0.0
C694 C 0.11857 0.97877 0.68856 0.0
C695 C 0.13146 0.99764 0.75533 0.0
C696 C 0.09383 0.95518 0.70321 0.0
C697 C 0.12053 0.99133 0.8379 0.0
C698 C 0.0957 0.96803 0.85299 0.0
C699 C 0.05442 0.92938 0.79906 0.0
C700 C 0.03967 0.91261 0.731 0.0
C701 C 0.08153 0.95048 0.78579 0.0
C702 C 0.05339 0.91613 0.64995 0.0
C703 C 0.08012 0.93729 0.63613 0.0
H704 H 0.60752 0.54561 0.12452 0.0
H705 H 0.62676 0.52941 0.85979 0.0
H706 H 0.58621 0.57095 0.82384 0.0
H707 H 0.54309 0.6098 0.8675 0.0
H708 H 0.52425 0.62614 0.1324 0.0
H709 H 0.56688 0.58679 0.16823 0.0
C710 C 0.60299 0.55132 0.05892 0.0
C711 C 0.62026 0.53443 0.99505 0.0
C712 C 0.57962 0.57522 0.03869 0.0
C713 C 0.61425 0.54229 0.91035 0.0
C714 C 0.59083 0.56589 0.8897 0.0
C715 C 0.54846 0.60488 0.9331 0.0
C716 C 0.53053 0.62103 0.99706 0.0
C717 C 0.57308 0.5822 0.95332 0.0
C718 C 0.53794 0.61452 0.08179 0.0
C719 C 0.56218 0.59179 0.10238 0.0
loop_
_geom_bond_atom_site_label_1
_geom_bond_atom_site_label_2
_geom_bond_distance
_geom_bond_site_symmetry_2
_ccdc_geom_bond_type
Zn0 N4 2.020 . S
Zn0 O8 2.019 . S
Zn0 N10 2.119 . S
Zn0 O18 1.975 . S
C1 N2 1.334 . S
C1 N5 1.336 . S
N2 C1 1.334 . S
N2 C3 1.334 . S
C3 N2 1.334 . S
C3 N4 1.336 . S
N4 Zn0 2.020 . S
N4 C3 1.336 . S
N4 N5 1.354 . S
N5 C1 1.336 . S
N5 N4 1.354 . S
N5 Zn9 2.020 . S
C6 O7 1.244 . S
C6 O30 1.257 . S
O7 C6 1.244 . S
O8 Zn0 2.019 . S
O8 C28 1.257 . S
Zn9 N5 2.020 . S
Zn9 O16 1.975 . S
Zn9 N25 2.119 . S
Zn9 O30 2.019 . S
N10 Zn0 2.119 . S
N10 C12 1.334 . S
N10 C13 1.328 . S
C11 C12 1.391 . S
C11 N14 1.329 . S
C11 H32 0.930 . S
C12 N10 1.334 . S
C12 C11 1.391 . S
C12 H19 0.930 . S
C13 N10 1.328 . S
C13 C15 1.392 . S
C13 H20 0.930 . S
N14 C11 1.329 . S
N14 C15 1.331 . S
C15 C13 1.392 . S
C15 N14 1.331 . S
O16 Zn9 1.975 . S
O16 C17 1.252 . S
C17 O16 1.252 . S
C17 O18 1.252 . S
O18 Zn0 1.975 . S
O18 C17 1.252 . S
H19 C12 0.930 . S
H20 C13 0.930 . S
C21 C22 1.392 . S
C21 N25 1.328 1_655 S
C21 H27 0.930 . S
C22 C21 1.392 . S
C22 N26 1.331 . S
C23 C24 1.391 . S
C23 N26 1.329 . S
C23 H33 0.930 . S
C24 C23 1.391 . S
C24 N25 1.334 1_655 S
C24 H31 0.930 1_655 S
N25 Zn9 2.119 . S
N25 C21 1.328 1_455 S
N25 C24 1.334 1_455 S
N26 C22 1.331 . S
N26 C23 1.329 . S
H27 C21 0.930 . S
C28 O8 1.257 . S
C28 O29 1.244 . S
O29 C28 1.244 . S
O30 C6 1.257 . S
O30 Zn9 2.019 . S
H31 C24 0.930 1_455 S
H32 C11 0.930 . S
H33 C23 0.930 . S
Zn34 N38 2.020 . S
Zn34 O42 2.019 . S
Zn34 N44 2.119 . S
Zn34 O52 1.975 . S
C35 N36 1.334 . S
C35 N39 1.336 . S
N36 C35 1.334 . S
N36 C37 1.334 . S
C37 N36 1.334 . S
C37 N38 1.336 . S
N38 Zn34 2.020 . S
N38 C37 1.336 . S
N38 N39 1.354 . S
N39 C35 1.336 . S
N39 N38 1.354 . S
N39 Zn43 2.020 . S
C40 O41 1.244 . S
C40 O64 1.257 . S
O41 C40 1.244 . S
O42 Zn34 2.019 . S
O42 C62 1.257 . S
Zn43 N39 2.020 . S
Zn43 O50 1.975 . S
Zn43 N59 2.119 . S
Zn43 O64 2.019 . S
N44 Zn34 2.119 . S
N44 C46 1.334 . S
N44 C47 1.328 . S
C45 C46 1.391 . S
C45 N48 1.329 . S
C45 H66 0.930 . S
C46 N44 1.334 . S
C46 C45 1.391 . S
C46 H53 0.930 . S
C47 N44 1.328 . S
C47 C49 1.392 . S
C47 H54 0.930 . S
N48 C45 1.329 . S
N48 C49 1.331 . S
C49 C47 1.392 . S
C49 N48 1.331 . S
O50 Zn43 1.975 . S
O50 C51 1.252 . S
C51 O50 1.252 . S
C51 O52 1.252 . S
O52 Zn34 1.975 . S
O52 C51 1.252 . S
H53 C46 0.930 . S
H54 C47 0.930 . S
C55 C56 1.392 . S
C55 N59 1.328 . S
C55 H61 0.930 . S
C56 C55 1.392 . S
C56 N60 1.331 . S
C57 C58 1.391 . S
C57 N60 1.329 . S
C57 H67 0.930 . S
C58 C57 1.391 . S
C58 N59 1.334 . S
C58 H65 0.930 . S
N59 Zn43 2.119 . S
N59 C55 1.328 . S
N59 C58 1.334 . S
N60 C56 1.331 . S
N60 C57 1.329 . S
H61 C55 0.930 . S
C62 O42 1.257 . S
C62 O63 1.244 . S
O63 C62 1.244 . S
O64 C40 1.257 . S
O64 Zn43 2.019 . S
H65 C58 0.930 . S
H66 C45 0.930 . S
H67 C57 0.930 . S
Zn68 N72 2.020 . S
Zn68 O76 2.019 1_556 S
Zn68 N78 2.119 . S
Zn68 O86 1.975 . S
C69 N70 1.334 . S
C69 N73 1.336 . S
N70 C69 1.334 . S
N70 C71 1.334 . S
C71 N70 1.334 . S
C71 N72 1.336 . S
N72 Zn68 2.020 . S
N72 C71 1.336 . S
N72 N73 1.354 . S
N73 C69 1.336 . S
N73 N72 1.354 . S
N73 Zn77 2.020 . S
C74 O75 1.244 . S
C74 O98 1.257 . S
O75 C74 1.244 . S
O76 Zn68 2.019 1_554 S
O76 C96 1.257 . S
Zn77 N73 2.020 . S
Zn77 O84 1.975 . S
Zn77 N93 2.119 . S
Zn77 O98 2.019 . S
N78 Zn68 2.119 . S
N78 C80 1.334 . S
N78 C81 1.328 . S
C79 C80 1.391 . S
C79 N82 1.329 . S
C79 H100 0.930 . S
C80 N78 1.334 . S
C80 C79 1.391 . S
C80 H87 0.930 . S
C81 N78 1.328 . S
C81 C83 1.392 . S
C81 H88 0.930 . S
N82 C79 1.329 . S
N82 C83 1.331 . S
C83 C81 1.392 . S
C83 N82 1.331 . S
O84 Zn77 1.975 . S
O84 C85 1.252 . S
C85 O84 1.252 . S
C85 O86 1.252 . S
O86 Zn68 1.975 . S
O86 C85 1.252 . S
H87 C80 0.930 . S
H88 C81 0.930 . S
C89 C90 1.392 . S
C89 N93 1.328 1_455 S
C89 H95 0.930 . S
C90 C89 1.392 . S
C90 N94 1.331 . S
C91 C92 1.391 . S
C91 N94 1.329 . S
C91 H101 0.930 . S
C92 C91 1.391 . S
C92 N93 1.334 1_455 S
C92 H99 0.930 1_455 S
N93 Zn77 2.119 . S
N93 C89 1.328 1_655 S
N93 C92 1.334 1_655 S
N94 C90 1.331 . S
N94 C91 1.329 . S
H95 C89 0.930 . S
C96 O76 1.257 . S
C96 O97 1.244 . S
O97 C96 1.244 . S
O98 C74 1.257 . S
O98 Zn77 2.019 . S
H99 C92 0.930 1_655 S
H100 C79 0.930 . S
H101 C91 0.930 . S
Zn102 N106 2.020 . S
Zn102 O110 2.019 . S
Zn102 N112 2.119 . S
Zn102 O120 1.975 . S
C103 N104 1.334 . S
C103 N107 1.336 . S
N104 C103 1.334 . S
N104 C105 1.334 1_556 S
C105 N104 1.334 1_554 S
C105 N106 1.336 . S
N106 Zn102 2.020 . S
N106 C105 1.336 . S
N106 N107 1.354 1_554 S
N107 C103 1.336 . S
N107 N106 1.354 1_556 S
N107 Zn111 2.020 . S
C108 O109 1.244 . S
C108 O132 1.257 . S
O109 C108 1.244 . S
O110 Zn102 2.019 . S
O110 C130 1.257 . S
Zn111 N107 2.020 . S
Zn111 O118 1.975 . S
Zn111 N127 2.119 . S
Zn111 O132 2.019 . S
N112 Zn102 2.119 . S
N112 C114 1.334 1_554 S
N112 C115 1.328 . S
C113 C114 1.391 . S
C113 N116 1.329 1_556 S
C113 H134 0.930 . S
C114 N112 1.334 1_556 S
C114 C113 1.391 . S
C114 H121 0.930 . S
C115 N112 1.328 . S
C115 C117 1.392 . S
C115 H122 0.930 . S
N116 C113 1.329 1_554 S
N116 C117 1.331 . S
C117 C115 1.392 . S
C117 N116 1.331 . S
O118 Zn111 1.975 . S
O118 C119 1.243 1_556 S
C119 O118 1.243 1_554 S
C119 O120 1.261 . S
O120 Zn102 1.975 . S
O120 C119 1.261 . S
H121 C114 0.930 . S
H122 C115 0.930 . S
C123 C124 1.392 . S
C123 N127 1.328 . S
C123 H129 0.930 . S
C124 C123 1.392 . S
C124 N128 1.331 . S
C125 C126 1.391 . S
C125 N128 1.329 1_554 S
C125 H135 0.930 . S
C126 C125 1.391 . S
C126 N127 1.334 1_554 S
C126 H133 0.930 . S
N127 Zn111 2.119 . S
N127 C123 1.328 . S
N127 C126 1.334 1_556 S
N128 C124 1.331 . S
N128 C125 1.329 1_556 S
H129 C123 0.930 . S
C130 O110 1.257 . S
C130 O131 1.244 . S
O131 C130 1.244 . S
O132 C108 1.257 . S
O132 Zn111 2.019 . S
H133 C126 0.930 . S
H134 C113 0.930 . S
H135 C125 0.930 . S
Zn136 N140 2.020 . S
Zn136 O144 2.019 . S
Zn136 N146 2.119 . S
Zn136 O154 1.975 . S
C137 N138 1.334 . S
C137 N141 1.336 . S
N138 C137 1.334 . S
N138 C139 1.334 . S
C139 N138 1.334 . S
C139 N140 1.336 . S
N140 Zn136 2.020 . S
N140 C139 1.336 . S
N140 N141 1.354 . S
N141 C137 1.336 . S
N141 N140 1.354 . S
N141 Zn145 2.020 . S
C142 O143 1.244 . S
C142 O166 1.257 . S
O143 C142 1.244 . S
O144 Zn136 2.019 . S
O144 C164 1.257 . S
Zn145 N141 2.020 . S
Zn145 O152 1.975 . S
Zn145 N161 2.119 . S
Zn145 O166 2.019 . S
N146 Zn136 2.119 . S
N146 C148 1.334 . S
N146 C149 1.328 . S
C147 C148 1.391 . S
C147 N150 1.329 . S
C147 H168 0.930 . S
C148 N146 1.334 . S
C148 C147 1.391 . S
C148 H155 0.930 . S
C149 N146 1.328 . S
C149 C151 1.392 . S
C149 H156 0.930 . S
N150 C147 1.329 . S
N150 C151 1.331 . S
C151 C149 1.392 . S
C151 N150 1.331 . S
O152 Zn145 1.975 . S
O152 C153 1.252 . S
C153 O152 1.252 . S
C153 O154 1.252 . S
O154 Zn136 1.975 . S
O154 C153 1.252 . S
H155 C148 0.930 . S
H156 C149 0.930 . S
C157 C158 1.392 . S
C157 N161 1.328 . S
C157 H163 0.930 . S
C158 C157 1.392 . S
C158 N162 1.331 . S
C159 C160 1.391 . S
C159 N162 1.329 . S
C159 H169 0.930 . S
C160 C159 1.391 . S
C160 N161 1.334 . S
C160 H167 0.930 . S
N161 Zn145 2.119 . S
N161 C157 1.328 . S
N161 C160 1.334 . S
N162 C158 1.331 . S
N162 C159 1.329 . S
H163 C157 0.930 . S
C164 O144 1.257 . S
C164 O165 1.244 . S
O165 C164 1.244 . S
O166 C142 1.257 . S
O166 Zn145 2.019 . S
H167 C160 0.930 . S
H168 C147 0.930 . S
H169 C159 0.930 . S
Zn170 N174 2.020 . S
Zn170 O178 2.019 . S
Zn170 N180 2.119 . S
Zn170 O188 1.975 . S
C171 N172 1.334 . S
C171 N175 1.336 . S
N172 C171 1.334 . S
N172 C173 1.334 . S
C173 N172 1.334 . S
C173 N174 1.336 . S
N174 Zn170 2.020 . S
N174 C173 1.336 . S
N174 N175 1.354 . S
N175 C171 1.336 . S
N175 N174 1.354 . S
N175 Zn179 2.020 . S
C176 O177 1.244 . S
C176 O200 1.257 . S
O177 C176 1.244 . S
O178 Zn170 2.019 . S
O178 C198 1.257 . S
Zn179 N175 2.020 . S
Zn179 O186 1.975 . S
Zn179 N195 2.119 . S
Zn179 O200 2.019 . S
N180 Zn170 2.119 . S
N180 C182 1.334 1_545 S
N180 C183 1.328 1_545 S
C181 C182 1.391 . S
C181 N184 1.329 . S
C181 H202 0.930 . S
C182 N180 1.334 1_565 S
C182 C181 1.391 . S
C182 H189 0.930 1_565 S
C183 N180 1.328 1_565 S
C183 C185 1.392 . S
C183 H190 0.930 . S
N184 C181 1.329 . S
N184 C185 1.331 . S
C185 C183 1.392 . S
C185 N184 1.331 . S
O186 Zn179 1.975 . S
O186 C187 1.252 . S
C187 O186 1.252 . S
C187 O188 1.252 . S
O188 Zn170 1.975 . S
O188 C187 1.252 . S
H189 C182 0.930 1_545 S
H190 C183 0.930 . S
C191 C192 1.392 . S
C191 N195 1.328 . S
C191 H197 0.930 . S
C192 C191 1.392 . S
C192 N196 1.331 . S
C193 C194 1.391 . S
C193 N196 1.329 . S
C193 H203 0.930 . S
C194 C193 1.391 . S
C194 N195 1.334 . S
C194 H201 0.930 . S
N195 Zn179 2.119 . S
N195 C191 1.328 . S
N195 C194 1.334 . S
N196 C192 1.331 . S
N196 C193 1.329 . S
H197 C191 0.930 . S
C198 O178 1.257 . S
C198 O199 1.244 . S
O199 C198 1.244 . S
O200 C176 1.257 . S
O200 Zn179 2.019 . S
H201 C194 0.930 . S
H202 C181 0.930 . S
H203 C193 0.930 . S
Zn204 N208 2.020 . S
Zn204 O212 2.019 . S
Zn204 N214 2.119 . S
Zn204 O222 1.975 . S
C205 N206 1.334 . S
C205 N209 1.336 . S
N206 C205 1.334 . S
N206 C207 1.334 1_554 S
C207 N206 1.334 1_556 S
C207 N208 1.336 . S
N208 Zn204 2.020 . S
N208 C207 1.336 . S
N208 N209 1.354 1_556 S
N209 C205 1.336 . S
N209 N208 1.354 1_554 S
N209 Zn213 2.020 . S
C210 O211 1.244 . S
C210 O234 1.257 . S
O211 C210 1.244 . S
O212 Zn204 2.019 . S
O212 C232 1.257 . S
Zn213 N209 2.020 . S
Zn213 O220 1.975 . S
Zn213 N229 2.119 . S
Zn213 O234 2.019 . S
N214 Zn204 2.119 . S
N214 C216 1.334 1_556 S
N214 C217 1.328 . S
C215 C216 1.391 . S
C215 N218 1.329 1_554 S
C215 H236 0.930 . S
C216 N214 1.334 1_554 S
C216 C215 1.391 . S
C216 H223 0.930 . S
C217 N214 1.328 . S
C217 C219 1.392 . S
C217 H224 0.930 . S
N218 C215 1.329 1_556 S
N218 C219 1.331 . S
C219 C217 1.392 . S
C219 N218 1.331 . S
O220 Zn213 1.975 . S
O220 C221 1.243 1_554 S
C221 O220 1.243 1_556 S
C221 O222 1.261 . S
O222 Zn204 1.975 . S
O222 C221 1.261 . S
H223 C216 0.930 . S
H224 C217 0.930 . S
C225 C226 1.392 . S
C225 N229 1.328 . S
C225 H231 0.930 . S
C226 C225 1.392 . S
C226 N230 1.331 . S
C227 C228 1.391 . S
C227 N230 1.329 1_556 S
C227 H237 0.930 . S
C228 C227 1.391 . S
C228 N229 1.334 1_556 S
C228 H235 0.930 . S
N229 Zn213 2.119 . S
N229 C225 1.328 . S
N229 C228 1.334 1_554 S
N230 C226 1.331 . S
N230 C227 1.329 1_554 S
H231 C225 0.930 . S
C232 O212 1.257 . S
C232 O233 1.244 . S
O233 C232 1.244 . S
O234 C210 1.257 . S
O234 Zn213 2.019 . S
H235 C228 0.930 . S
H236 C215 0.930 . S
H237 C227 0.930 . S
Zn238 N242 2.020 . S
Zn238 O246 2.019 1_554 S
Zn238 N248 2.119 . S
Zn238 O256 1.975 . S
C239 N240 1.334 . S
C239 N243 1.336 . S
N240 C239 1.334 . S
N240 C241 1.334 . S
C241 N240 1.334 . S
C241 N242 1.336 . S
N242 Zn238 2.020 . S
N242 C241 1.336 . S
N242 N243 1.354 . S
N243 C239 1.336 . S
N243 N242 1.354 . S
N243 Zn247 2.020 . S
C244 O245 1.244 . S
C244 O268 1.257 . S
O245 C244 1.244 . S
O246 Zn238 2.019 1_556 S
O246 C266 1.257 . S
Zn247 N243 2.020 . S
Zn247 O254 1.975 . S
Zn247 N263 2.119 . S
Zn247 O268 2.019 . S
N248 Zn238 2.119 . S
N248 C250 1.334 . S
N248 C251 1.328 . S
C249 C250 1.391 . S
C249 N252 1.329 . S
C249 H270 0.930 . S
C250 N248 1.334 . S
C250 C249 1.391 . S
C250 H257 0.930 . S
C251 N248 1.328 . S
C251 C253 1.392 . S
C251 H258 0.930 . S
N252 C249 1.329 . S
N252 C253 1.331 . S
C253 C251 1.392 . S
C253 N252 1.331 . S
O254 Zn247 1.975 . S
O254 C255 1.252 . S
C255 O254 1.252 . S
C255 O256 1.252 . S
O256 Zn238 1.975 . S
O256 C255 1.252 . S
H257 C250 0.930 . S
H258 C251 0.930 . S
C259 C260 1.392 . S
C259 N263 1.328 1_545 S
C259 H265 0.930 . S
C260 C259 1.392 . S
C260 N264 1.331 . S
C261 C262 1.391 . S
C261 N264 1.329 . S
C261 H271 0.930 . S
C262 C261 1.391 . S
C262 N263 1.334 1_545 S
C262 H269 0.930 1_545 S
N263 Zn247 2.119 . S
N263 C259 1.328 1_565 S
N263 C262 1.334 1_565 S
N264 C260 1.331 . S
N264 C261 1.329 . S
H265 C259 0.930 . S
C266 O246 1.257 . S
C266 O267 1.244 . S
O267 C266 1.244 . S
O268 C244 1.257 . S
O268 Zn247 2.019 . S
H269 C262 0.930 1_565 S
H270 C249 0.930 . S
H271 C261 0.930 . S
H272 C278 0.930 . S
H273 C281 0.930 . S
H274 C282 0.930 . S
H275 C283 0.930 . S
H276 C286 0.930 . S
H277 C287 0.930 . S
C278 H272 0.930 . S
C278 C279 1.355 . S
C278 C280 1.415 . S
C279 C278 1.355 . S
C279 C281 1.419 . S
C280 C278 1.415 . S
C280 C285 1.425 . S
C280 C287 1.409 . S
C281 H273 0.930 . S
C281 C279 1.419 . S
C281 C282 1.362 . S
C282 H274 0.930 . S
C282 C281 1.362 . S
C282 C285 1.409 . S
C283 H275 0.930 . S
C283 C284 1.355 . S
C283 C285 1.415 . S
C284 C283 1.355 . S
C284 C286 1.419 . S
C285 C280 1.425 . S
C285 C282 1.409 . S
C285 C283 1.415 . S
C286 H276 0.930 . S
C286 C284 1.419 . S
C286 C287 1.362 . S
C287 H277 0.930 . S
C287 C280 1.409 . S
C287 C286 1.362 . S
H288 C294 0.930 . S
H289 C297 0.930 . S
H290 C298 0.930 . S
H291 C299 0.930 . S
H292 C302 0.930 . S
H293 C303 0.930 . S
C294 H288 0.930 . S
C294 C295 1.355 . S
C294 C296 1.415 . S
C295 C294 1.355 . S
C295 C297 1.419 . S
C296 C294 1.415 . S
C296 C301 1.425 . S
C296 C303 1.409 . S
C297 H289 0.930 . S
C297 C295 1.419 . S
C297 C298 1.362 . S
C298 H290 0.930 . S
C298 C297 1.362 . S
C298 C301 1.409 . S
C299 H291 0.930 . S
C299 C300 1.355 . S
C299 C301 1.415 . S
C300 C299 1.355 . S
C300 C302 1.419 . S
C301 C296 1.425 . S
C301 C298 1.409 . S
C301 C299 1.415 . S
C302 H292 0.930 . S
C302 C300 1.419 . S
C302 C303 1.362 . S
C303 H293 0.930 . S
C303 C296 1.409 . S
C303 C302 1.362 . S
H304 C310 0.930 . S
H305 C313 0.930 . S
H306 C314 0.930 . S
H307 C315 0.930 . S
H308 C318 0.930 . S
H309 C319 0.930 . S
C310 H304 0.930 . S
C310 C311 1.355 . S
C310 C312 1.415 . S
C311 C310 1.355 . S
C311 C313 1.419 1_556 S
C312 C310 1.415 . S
C312 C317 1.425 . S
C312 C319 1.409 . S
C313 H305 0.930 . S
C313 C311 1.419 1_554 S
C313 C314 1.362 1_554 S
C314 H306 0.930 . S
C314 C313 1.362 1_556 S
C314 C317 1.409 . S
C315 H307 0.930 . S
C315 C316 1.355 . S
C315 C317 1.415 . S
C316 C315 1.355 . S
C316 C318 1.419 . S
C317 C312 1.425 . S
C317 C314 1.409 . S
C317 C315 1.415 . S
C318 H308 0.930 . S
C318 C316 1.419 . S
C318 C319 1.362 . S
C319 H309 0.930 . S
C319 C312 1.409 . S
C319 C318 1.362 . S
H320 C326 0.930 . S
H321 C329 0.930 1_455 S
H322 C330 0.930 . S
H323 C331 0.930 . S
H324 C334 0.930 . S
H325 C335 0.930 . S
C326 H320 0.930 . S
C326 C327 1.355 . S
C326 C328 1.415 . S
C327 C326 1.355 . S
C327 C329 1.419 . S
C328 C326 1.415 . S
C328 C333 1.425 . S
C328 C335 1.409 . S
C329 H321 0.930 1_655 S
C329 C327 1.419 . S
C329 C330 1.362 . S
C330 H322 0.930 . S
C330 C329 1.362 . S
C330 C333 1.409 . S
C331 H323 0.930 . S
C331 C332 1.355 . S
C331 C333 1.415 . S
C332 C331 1.355 . S
C332 C334 1.419 . S
C333 C328 1.425 . S
C333 C330 1.409 . S
C333 C331 1.415 . S
C334 H324 0.930 . S
C334 C332 1.419 . S
C334 C335 1.362 . S
C335 H325 0.930 . S
C335 C328 1.409 . S
C335 C334 1.362 . S
H336 C342 0.930 . S
H337 C345 0.930 . S
H338 C346 0.930 . S
H339 C347 0.930 . S
H340 C350 0.930 1_565 S
H341 C351 0.930 . S
C342 H336 0.930 . S
C342 C343 1.355 . S
C342 C344 1.415 . S
C343 C342 1.355 . S
C343 C345 1.419 . S
C344 C342 1.415 . S
C344 C349 1.425 . S
C344 C351 1.409 . S
C345 H337 0.930 . S
C345 C343 1.419 . S
C345 C346 1.362 . S
C346 H338 0.930 . S
C346 C345 1.362 . S
C346 C349 1.409 . S
C347 H339 0.930 . S
C347 C348 1.355 . S
C347 C349 1.415 . S
C348 C347 1.355 . S
C348 C350 1.419 . S
C349 C344 1.425 . S
C349 C346 1.409 . S
C349 C347 1.415 . S
C350 H340 0.930 1_545 S
C350 C348 1.419 . S
C350 C351 1.362 . S
C351 H341 0.930 . S
C351 C344 1.409 . S
C351 C350 1.362 . S
H352 C358 0.930 . S
H353 C361 0.930 . S
H354 C362 0.930 . S
H355 C363 0.930 . S
H356 C366 0.930 . S
H357 C367 0.930 . S
C358 H352 0.930 . S
C358 C359 1.355 . S
C358 C360 1.415 . S
C359 C358 1.355 . S
C359 C361 1.419 . S
C360 C358 1.415 . S
C360 C365 1.425 . S
C360 C367 1.409 . S
C361 H353 0.930 . S
C361 C359 1.419 . S
C361 C362 1.362 . S
C362 H354 0.930 . S
C362 C361 1.362 . S
C362 C365 1.409 . S
C363 H355 0.930 . S
C363 C364 1.355 . S
C363 C365 1.415 . S
C364 C363 1.355 . S
C364 C366 1.419 . S
C365 C360 1.425 . S
C365 C362 1.409 . S
C365 C363 1.415 . S
C366 H356 0.930 . S
C366 C364 1.419 . S
C366 C367 1.362 . S
C367 H357 0.930 . S
C367 C360 1.409 . S
C367 C366 1.362 . S
H368 C374 0.930 . S
H369 C377 0.930 1_545 S
H370 C378 0.930 . S
H371 C379 0.930 . S
H372 C382 0.930 . S
H373 C383 0.930 . S
C374 H368 0.930 . S
C374 C375 1.355 . S
C374 C376 1.415 . S
C375 C374 1.355 . S
C375 C377 1.419 . S
C376 C374 1.415 . S
C376 C381 1.425 . S
C376 C383 1.409 . S
C377 H369 0.930 1_565 S
C377 C375 1.419 . S
C377 C378 1.362 . S
C378 H370 0.930 . S
C378 C377 1.362 . S
C378 C381 1.409 . S
C379 H371 0.930 . S
C379 C380 1.355 . S
C379 C381 1.415 . S
C380 C379 1.355 . S
C380 C382 1.419 . S
C381 C376 1.425 . S
C381 C378 1.409 . S
C381 C379 1.415 . S
C382 H372 0.930 . S
C382 C380 1.419 . S
C382 C383 1.362 . S
C383 H373 0.930 . S
C383 C376 1.409 . S
C383 C382 1.362 . S
H384 C390 0.930 . S
H385 C393 0.930 . S
H386 C394 0.930 1_556 S
H387 C395 0.930 . S
H388 C398 0.930 . S
H389 C399 0.930 . S
C390 H384 0.930 . S
C390 C391 1.355 . S
C390 C392 1.415 . S
C391 C390 1.355 . S
C391 C393 1.419 . S
C392 C390 1.415 . S
C392 C397 1.425 . S
C392 C399 1.409 . S
C393 H385 0.930 . S
C393 C391 1.419 . S
C393 C394 1.362 . S
C394 H386 0.930 1_554 S
C394 C393 1.362 . S
C394 C397 1.409 . S
C395 H387 0.930 . S
C395 C396 1.355 1_556 S
C395 C397 1.415 1_556 S
C396 C395 1.355 1_554 S
C396 C398 1.419 . S
C397 C392 1.425 . S
C397 C394 1.409 . S
C397 C395 1.415 1_554 S
C398 H388 0.930 . S
C398 C396 1.419 . S
C398 C399 1.362 . S
C399 H389 0.930 . S
C399 C392 1.409 . S
C399 C398 1.362 . S
H400 C406 0.930 . S
H401 C409 0.930 . S
H402 C410 0.930 . S
H403 C411 0.930 . S
H404 C414 0.930 . S
H405 C415 0.930 . S
C406 H400 0.930 . S
C406 C407 1.355 . S
C406 C408 1.415 . S
C407 C406 1.355 . S
C407 C409 1.419 . S
C408 C406 1.415 . S
C408 C413 1.425 1_556 S
C408 C415 1.409 . S
C409 H401 0.930 . S
C409 C407 1.419 . S
C409 C410 1.362 1_556 S
C410 H402 0.930 . S
C410 C409 1.362 1_554 S
C410 C413 1.409 . S
C411 H403 0.930 . S
C411 C412 1.355 . S
C411 C413 1.415 . S
C412 C411 1.355 . S
C412 C414 1.419 . S
C413 C408 1.425 1_554 S
C413 C410 1.409 . S
C413 C411 1.415 . S
C414 H404 0.930 . S
C414 C412 1.419 . S
C414 C415 1.362 1_554 S
C415 H405 0.930 . S
C415 C408 1.409 . S
C415 C414 1.362 1_556 S
H416 C422 0.930 . S
H417 C425 0.930 . S
H418 C426 0.930 . S
H419 C427 0.930 . S
H420 C430 0.930 . S
H421 C431 0.930 . S
C422 H416 0.930 . S
C422 C423 1.355 . S
C422 C424 1.415 . S
C423 C422 1.355 . S
C423 C425 1.419 . S
C424 C422 1.415 . S
C424 C429 1.425 . S
C424 C431 1.409 . S
C425 H417 0.930 . S
C425 C423 1.419 . S
C425 C426 1.362 . S
C426 H418 0.930 . S
C426 C425 1.362 . S
C426 C429 1.409 . S
C427 H419 0.930 . S
C427 C428 1.355 . S
C427 C429 1.415 . S
C428 C427 1.355 . S
C428 C430 1.419 . S
C429 C424 1.425 . S
C429 C426 1.409 . S
C429 C427 1.415 . S
C430 H420 0.930 . S
C430 C428 1.419 . S
C430 C431 1.362 . S
C431 H421 0.930 . S
C431 C424 1.409 . S
C431 C430 1.362 . S
H432 C438 0.930 . S
H433 C441 0.930 . S
H434 C442 0.930 . S
H435 C443 0.930 . S
H436 C446 0.930 . S
H437 C447 0.930 . S
C438 H432 0.930 . S
C438 C439 1.355 . S
C438 C440 1.415 . S
C439 C438 1.355 . S
C439 C441 1.419 . S
C440 C438 1.415 . S
C440 C445 1.425 . S
C440 C447 1.409 . S
C441 H433 0.930 . S
C441 C439 1.419 . S
C441 C442 1.362 . S
C442 H434 0.930 . S
C442 C441 1.362 . S
C442 C445 1.409 . S
C443 H435 0.930 . S
C443 C444 1.355 . S
C443 C445 1.415 . S
C444 C443 1.355 . S
C444 C446 1.419 . S
C445 C440 1.425 . S
C445 C442 1.409 . S
C445 C443 1.415 . S
C446 H436 0.930 . S
C446 C444 1.419 . S
C446 C447 1.362 . S
C447 H437 0.930 . S
C447 C440 1.409 . S
C447 C446 1.362 . S
H448 C454 0.930 . S
H449 C457 0.930 . S
H450 C458 0.930 . S
H451 C459 0.930 . S
H452 C462 0.930 . S
H453 C463 0.930 . S
C454 H448 0.930 . S
C454 C455 1.355 . S
C454 C456 1.415 . S
C455 C454 1.355 . S
C455 C457 1.419 . S
C456 C454 1.415 . S
C456 C461 1.425 . S
C456 C463 1.409 . S
C457 H449 0.930 . S
C457 C455 1.419 . S
C457 C458 1.362 . S
C458 H450 0.930 . S
C458 C457 1.362 . S
C458 C461 1.409 . S
C459 H451 0.930 . S
C459 C460 1.355 . S
C459 C461 1.415 . S
C460 C459 1.355 . S
C460 C462 1.419 . S
C461 C456 1.425 . S
C461 C458 1.409 . S
C461 C459 1.415 . S
C462 H452 0.930 . S
C462 C460 1.419 . S
C462 C463 1.362 . S
C463 H453 0.930 . S
C463 C456 1.409 . S
C463 C462 1.362 . S
H464 C470 0.930 . S
H465 C473 0.930 1_655 S
H466 C474 0.930 1_655 S
H467 C475 0.930 . S
H468 C478 0.930 . S
H469 C479 0.930 . S
C470 H464 0.930 . S
C470 C471 1.355 . S
C470 C472 1.415 . S
C471 C470 1.355 . S
C471 C473 1.419 . S
C472 C470 1.415 . S
C472 C477 1.425 . S
C472 C479 1.409 . S
C473 H465 0.930 1_455 S
C473 C471 1.419 . S
C473 C474 1.362 . S
C474 H466 0.930 1_455 S
C474 C473 1.362 . S
C474 C477 1.409 . S
C475 H467 0.930 . S
C475 C476 1.355 . S
C475 C477 1.415 . S
C476 C475 1.355 . S
C476 C478 1.419 . S
C477 C472 1.425 . S
C477 C474 1.409 . S
C477 C475 1.415 . S
C478 H468 0.930 . S
C478 C476 1.419 . S
C478 C479 1.362 . S
C479 H469 0.930 . S
C479 C472 1.409 . S
C479 C478 1.362 . S
H480 C486 0.930 . S
H481 C489 0.930 . S
H482 C490 0.930 . S
H483 C491 0.930 . S
H484 C494 0.930 . S
H485 C495 0.930 . S
C486 H480 0.930 . S
C486 C487 1.355 . S
C486 C488 1.415 . S
C487 C486 1.355 . S
C487 C489 1.419 . S
C488 C486 1.415 . S
C488 C493 1.425 . S
C488 C495 1.409 . S
C489 H481 0.930 . S
C489 C487 1.419 . S
C489 C490 1.362 . S
C490 H482 0.930 . S
C490 C489 1.362 . S
C490 C493 1.409 . S
C491 H483 0.930 . S
C491 C492 1.355 . S
C491 C493 1.415 1_556 S
C492 C491 1.355 . S
C492 C494 1.419 . S
C493 C488 1.425 . S
C493 C490 1.409 . S
C493 C491 1.415 1_554 S
C494 H484 0.930 . S
C494 C492 1.419 . S
C494 C495 1.362 1_556 S
C495 H485 0.930 . S
C495 C488 1.409 . S
C495 C494 1.362 1_554 S
H496 C502 0.930 . S
H497 C505 0.930 . S
H498 C506 0.930 . S
H499 C507 0.930 . S
H500 C510 0.930 . S
H501 C511 0.930 . S
C502 H496 0.930 . S
C502 C503 1.355 . S
C502 C504 1.415 . S
C503 C502 1.355 . S
C503 C505 1.419 . S
C504 C502 1.415 . S
C504 C509 1.425 . S
C504 C511 1.409 . S
C505 H497 0.930 . S
C505 C503 1.419 . S
C505 C506 1.362 . S
C506 H498 0.930 . S
C506 C505 1.362 . S
C506 C509 1.409 . S
C507 H499 0.930 . S
C507 C508 1.355 . S
C507 C509 1.415 . S
C508 C507 1.355 . S
C508 C510 1.419 . S
C509 C504 1.425 . S
C509 C506 1.409 . S
C509 C507 1.415 . S
C510 H500 0.930 . S
C510 C508 1.419 . S
C510 C511 1.362 . S
C511 H501 0.930 . S
C511 C504 1.409 . S
C511 C510 1.362 . S
H512 C518 0.930 . S
H513 C521 0.930 . S
H514 C522 0.930 . S
H515 C523 0.930 . S
H516 C526 0.930 . S
H517 C527 0.930 . S
C518 H512 0.930 . S
C518 C519 1.355 . S
C518 C520 1.415 . S
C519 C518 1.355 . S
C519 C521 1.419 . S
C520 C518 1.415 . S
C520 C525 1.425 . S
C520 C527 1.409 . S
C521 H513 0.930 . S
C521 C519 1.419 . S
C521 C522 1.362 . S
C522 H514 0.930 . S
C522 C521 1.362 . S
C522 C525 1.409 . S
C523 H515 0.930 . S
C523 C524 1.355 . S
C523 C525 1.415 . S
C524 C523 1.355 . S
C524 C526 1.419 . S
C525 C520 1.425 . S
C525 C522 1.409 . S
C525 C523 1.415 . S
C526 H516 0.930 . S
C526 C524 1.419 . S
C526 C527 1.362 . S
C527 H517 0.930 . S
C527 C520 1.409 . S
C527 C526 1.362 . S
H528 C534 0.930 . S
H529 C537 0.930 . S
H530 C538 0.930 . S
H531 C539 0.930 . S
H532 C542 0.930 . S
H533 C543 0.930 . S
C534 H528 0.930 . S
C534 C535 1.355 . S
C534 C536 1.415 1_554 S
C535 C534 1.355 . S
C535 C537 1.419 . S
C536 C534 1.415 1_556 S
C536 C541 1.425 . S
C536 C543 1.409 . S
C537 H529 0.930 . S
C537 C535 1.419 . S
C537 C538 1.362 1_554 S
C538 H530 0.930 . S
C538 C537 1.362 1_556 S
C538 C541 1.409 . S
C539 H531 0.930 . S
C539 C540 1.355 . S
C539 C541 1.415 . S
C540 C539 1.355 . S
C540 C542 1.419 . S
C541 C536 1.425 . S
C541 C538 1.409 . S
C541 C539 1.415 . S
C542 H532 0.930 . S
C542 C540 1.419 . S
C542 C543 1.362 . S
C543 H533 0.930 . S
C543 C536 1.409 . S
C543 C542 1.362 . S
H544 C550 0.930 . S
H545 C553 0.930 . S
H546 C554 0.930 . S
H547 C555 0.930 . S
H548 C558 0.930 . S
H549 C559 0.930 . S
C550 H544 0.930 . S
C550 C551 1.355 . S
C550 C552 1.415 . S
C551 C550 1.355 . S
C551 C553 1.419 . S
C552 C550 1.415 . S
C552 C557 1.425 . S
C552 C559 1.409 . S
C553 H545 0.930 . S
C553 C551 1.419 . S
C553 C554 1.362 . S
C554 H546 0.930 . S
C554 C553 1.362 . S
C554 C557 1.409 . S
C555 H547 0.930 . S
C555 C556 1.355 . S
C555 C557 1.415 . S
C556 C555 1.355 . S
C556 C558 1.419 . S
C557 C552 1.425 . S
C557 C554 1.409 . S
C557 C555 1.415 . S
C558 H548 0.930 . S
C558 C556 1.419 . S
C558 C559 1.362 . S
C559 H549 0.930 . S
C559 C552 1.409 . S
C559 C558 1.362 . S
H560 C566 0.930 . S
H561 C569 0.930 . S
H562 C570 0.930 . S
H563 C571 0.930 . S
H564 C574 0.930 . S
H565 C575 0.930 . S
C566 H560 0.930 . S
C566 C567 1.355 . S
C566 C568 1.415 . S
C567 C566 1.355 . S
C567 C569 1.419 . S
C568 C566 1.415 . S
C568 C573 1.425 . S
C568 C575 1.409 . S
C569 H561 0.930 . S
C569 C567 1.419 . S
C569 C570 1.362 . S
C570 H562 0.930 . S
C570 C569 1.362 . S
C570 C573 1.409 . S
C571 H563 0.930 . S
C571 C572 1.355 . S
C571 C573 1.415 . S
C572 C571 1.355 . S
C572 C574 1.419 . S
C573 C568 1.425 . S
C573 C570 1.409 . S
C573 C571 1.415 . S
C574 H564 0.930 . S
C574 C572 1.419 . S
C574 C575 1.362 . S
C575 H565 0.930 . S
C575 C568 1.409 . S
C575 C574 1.362 . S
H576 C582 0.930 . S
H577 C585 0.930 . S
H578 C586 0.930 1_545 S
H579 C587 0.930 . S
H580 C590 0.930 . S
H581 C591 0.930 . S
C582 H576 0.930 . S
C582 C583 1.355 . S
C582 C584 1.415 . S
C583 C582 1.355 . S
C583 C585 1.419 . S
C584 C582 1.415 . S
C584 C589 1.425 . S
C584 C591 1.409 . S
C585 H577 0.930 . S
C585 C583 1.419 . S
C585 C586 1.362 . S
C586 H578 0.930 1_565 S
C586 C585 1.362 . S
C586 C589 1.409 . S
C587 H579 0.930 . S
C587 C588 1.355 . S
C587 C589 1.415 . S
C588 C587 1.355 . S
C588 C590 1.419 . S
C589 C584 1.425 . S
C589 C586 1.409 . S
C589 C587 1.415 . S
C590 H580 0.930 . S
C590 C588 1.419 . S
C590 C591 1.362 . S
C591 H581 0.930 . S
C591 C584 1.409 . S
C591 C590 1.362 . S
H592 C598 0.930 . S
H593 C601 0.930 . S
H594 C602 0.930 . S
H595 C603 0.930 . S
H596 C606 0.930 . S
H597 C607 0.930 . S
C598 H592 0.930 . S
C598 C599 1.355 . S
C598 C600 1.415 . S
C599 C598 1.355 . S
C599 C601 1.419 . S
C600 C598 1.415 . S
C600 C605 1.425 . S
C600 C607 1.409 . S
C601 H593 0.930 . S
C601 C599 1.419 . S
C601 C602 1.362 . S
C602 H594 0.930 . S
C602 C601 1.362 . S
C602 C605 1.409 . S
C603 H595 0.930 . S
C603 C604 1.355 . S
C603 C605 1.415 . S
C604 C603 1.355 . S
C604 C606 1.419 . S
C605 C600 1.425 . S
C605 C602 1.409 . S
C605 C603 1.415 . S
C606 H596 0.930 . S
C606 C604 1.419 . S
C606 C607 1.362 . S
C607 H597 0.930 . S
C607 C600 1.409 . S
C607 C606 1.362 . S
H608 C614 0.930 . S
H609 C617 0.930 . S
H610 C618 0.930 . S
H611 C619 0.930 . S
H612 C622 0.930 . S
H613 C623 0.930 . S
C614 H608 0.930 . S
C614 C615 1.355 . S
C614 C616 1.415 . S
C615 C614 1.355 . S
C615 C617 1.419 . S
C616 C614 1.415 . S
C616 C621 1.425 . S
C616 C623 1.409 . S
C617 H609 0.930 . S
C617 C615 1.419 . S
C617 C618 1.362 . S
C618 H610 0.930 . S
C618 C617 1.362 . S
C618 C621 1.409 . S
C619 H611 0.930 . S
C619 C620 1.355 . S
C619 C621 1.415 . S
C620 C619 1.355 . S
C620 C622 1.419 . S
C621 C616 1.425 . S
C621 C618 1.409 . S
C621 C619 1.415 . S
C622 H612 0.930 . S
C622 C620 1.419 . S
C622 C623 1.362 . S
C623 H613 0.930 . S
C623 C616 1.409 . S
C623 C622 1.362 . S
H624 C630 0.930 . S
H625 C633 0.930 . S
H626 C634 0.930 . S
H627 C635 0.930 . S
H628 C638 0.930 . S
H629 C639 0.930 . S
C630 H624 0.930 . S
C630 C631 1.355 . S
C630 C632 1.415 . S
C631 C630 1.355 . S
C631 C633 1.419 1_556 S
C632 C630 1.415 . S
C632 C637 1.425 1_556 S
C632 C639 1.409 . S
C633 H625 0.930 . S
C633 C631 1.419 1_554 S
C633 C634 1.362 . S
C634 H626 0.930 . S
C634 C633 1.362 . S
C634 C637 1.409 . S
C635 H627 0.930 . S
C635 C636 1.355 . S
C635 C637 1.415 . S
C636 C635 1.355 . S
C636 C638 1.419 1_554 S
C637 C632 1.425 1_554 S
C637 C634 1.409 . S
C637 C635 1.415 . S
C638 H628 0.930 . S
C638 C636 1.419 1_556 S
C638 C639 1.362 . S
C639 H629 0.930 . S
C639 C632 1.409 . S
C639 C638 1.362 . S
H640 C646 0.930 . S
H641 C649 0.930 . S
H642 C650 0.930 . S
H643 C651 0.930 . S
H644 C654 0.930 . S
H645 C655 0.930 . S
C646 H640 0.930 . S
C646 C647 1.355 . S
C646 C648 1.415 . S
C647 C646 1.355 . S
C647 C649 1.419 . S
C648 C646 1.415 . S
C648 C653 1.425 . S
C648 C655 1.409 . S
C649 H641 0.930 . S
C649 C647 1.419 . S
C649 C650 1.362 . S
C650 H642 0.930 . S
C650 C649 1.362 . S
C650 C653 1.409 . S
C651 H643 0.930 . S
C651 C652 1.355 . S
C651 C653 1.415 . S
C652 C651 1.355 . S
C652 C654 1.419 . S
C653 C648 1.425 . S
C653 C650 1.409 . S
C653 C651 1.415 . S
C654 H644 0.930 . S
C654 C652 1.419 . S
C654 C655 1.362 . S
C655 H645 0.930 . S
C655 C648 1.409 . S
C655 C654 1.362 . S
H656 C662 0.930 . S
H657 C665 0.930 . S
H658 C666 0.930 . S
H659 C667 0.930 . S
H660 C670 0.930 . S
H661 C671 0.930 . S
C662 H656 0.930 . S
C662 C663 1.355 . S
C662 C664 1.415 . S
C663 C662 1.355 . S
C663 C665 1.419 . S
C664 C662 1.415 . S
C664 C669 1.425 . S
C664 C671 1.409 . S
C665 H657 0.930 . S
C665 C663 1.419 . S
C665 C666 1.362 . S
C666 H658 0.930 . S
C666 C665 1.362 . S
C666 C669 1.409 . S
C667 H659 0.930 . S
C667 C668 1.355 . S
C667 C669 1.415 . S
C668 C667 1.355 . S
C668 C670 1.419 . S
C669 C664 1.425 . S
C669 C666 1.409 . S
C669 C667 1.415 . S
C670 H660 0.930 . S
C670 C668 1.419 . S
C670 C671 1.362 . S
C671 H661 0.930 . S
C671 C664 1.409 . S
C671 C670 1.362 . S
H672 C678 0.930 . S
H673 C681 0.930 . S
H674 C682 0.930 . S
H675 C683 0.930 . S
H676 C686 0.930 . S
H677 C687 0.930 . S
C678 H672 0.930 . S
C678 C679 1.355 . S
C678 C680 1.415 . S
C679 C678 1.355 . S
C679 C681 1.419 . S
C680 C678 1.415 . S
C680 C685 1.425 . S
C680 C687 1.409 . S
C681 H673 0.930 . S
C681 C679 1.419 . S
C681 C682 1.362 . S
C682 H674 0.930 . S
C682 C681 1.362 . S
C682 C685 1.409 . S
C683 H675 0.930 . S
C683 C684 1.355 . S
C683 C685 1.415 . S
C684 C683 1.355 . S
C684 C686 1.419 . S
C685 C680 1.425 . S
C685 C682 1.409 . S
C685 C683 1.415 . S
C686 H676 0.930 . S
C686 C684 1.419 . S
C686 C687 1.362 . S
C687 H677 0.930 . S
C687 C680 1.409 . S
C687 C686 1.362 . S
H688 C694 0.930 . S
H689 C697 0.930 . S
H690 C698 0.930 . S
H691 C699 0.930 . S
H692 C702 0.930 . S
H693 C703 0.930 . S
C694 H688 0.930 . S
C694 C695 1.355 . S
C694 C696 1.415 . S
C695 C694 1.355 . S
C695 C697 1.419 . S
C696 C694 1.415 . S
C696 C701 1.425 . S
C696 C703 1.409 . S
C697 H689 0.930 . S
C697 C695 1.419 . S
C697 C698 1.362 . S
C698 H690 0.930 . S
C698 C697 1.362 . S
C698 C701 1.409 . S
C699 H691 0.930 . S
C699 C700 1.355 . S
C699 C701 1.415 . S
C700 C699 1.355 . S
C700 C702 1.419 . S
C701 C696 1.425 . S
C701 C698 1.409 . S
C701 C699 1.415 . S
C702 H692 0.930 . S
C702 C700 1.419 . S
C702 C703 1.362 . S
C703 H693 0.930 . S
C703 C696 1.409 . S
C703 C702 1.362 . S
H704 C710 0.930 1_554 S
H705 C713 0.930 . S
H706 C714 0.930 . S
H707 C715 0.930 1_556 S
H708 C718 0.930 . S
H709 C719 0.930 . S
C710 H704 0.930 1_556 S
C710 C711 1.355 . S
C710 C712 1.415 1_556 S
C711 C710 1.355 . S
C711 C713 1.419 . S
C712 C710 1.415 1_554 S
C712 C717 1.425 1_554 S
C712 C719 1.409 . S
C713 H705 0.930 . S
C713 C711 1.419 . S
C713 C714 1.362 . S
C714 H706 0.930 . S
C714 C713 1.362 . S
C714 C717 1.409 . S
C715 H707 0.930 1_554 S
C715 C716 1.355 . S
C715 C717 1.415 1_554 S
C716 C715 1.355 . S
C716 C718 1.419 . S
C717 C712 1.425 1_556 S
C717 C714 1.409 . S
C717 C715 1.415 1_556 S
C718 H708 0.930 . S
C718 C716 1.419 . S
C718 C719 1.362 . S
C719 H709 0.930 . S
C719 C712 1.409 . S
C719 C718 1.362 . S
C279 C15 1.693 . S
C284 C51 1.679 . S
C295 C85 1.622 1_455 S
C300 C56 1.540 . S
C311 C119 1.616 1_556 S
C316 C83 1.541 . S
C327 C17 1.731 1_655 S
C332 C117 1.780 . S
C343 C151 1.568 . S
C348 C255 1.634 1_545 S
C359 C192 1.652 . S
C364 C153 1.715 . S
C375 C187 1.725 1_565 S
C380 C219 1.778 . S
C391 C253 1.532 . S
C396 C221 1.619 1_554 S
C407 C173 2.595 . S
C412 C1 2.591 . S
C423 C205 2.397 . S
C428 C37 2.403 . S
C439 C69 2.579 . S
C444 C239 2.610 . S
C455 C137 2.379 . S
C460 C103 2.369 . S
C471 C28 1.191 . S
C476 C6 1.184 1_556 S
C487 C62 1.193 . S
C492 C40 1.199 . S
C503 C74 1.198 . S
C508 C96 1.187 . S
C519 C130 1.200 . S
C524 C108 1.204 . S
C535 C164 1.190 . S
C540 C142 1.196 . S
C551 C176 1.179 . S
C556 C198 1.188 1_554 S
C567 C210 1.202 . S
C572 C232 1.202 . S
C583 C266 1.191 . S
C588 C244 1.191 . S
C599 C171 1.326 . S
C604 C3 1.299 . S
C615 C207 1.508 . S
C620 C35 1.477 . S
C631 C71 1.298 . S
C636 C241 1.333 . S
C647 C139 1.496 . S
C652 C105 1.434 . S
C663 C22 1.462 . S
C668 C260 1.472 . S
C679 C158 1.442 . S
C684 C49 1.450 . S
C695 C185 1.582 . S
C700 C90 1.591 . S
C711 C124 1.882 . S
C716 C226 1.880 . S
