# Generated by pormake.
# Topology sow, (4)-cn, num edge types: 1
# Building blocks:
#     Node 0, Type 0, BuildingBlock: MUDLON_clean_sbu_0, # of connection points: 4
#     Node 1, Type 0, BuildingBlock: MUDLON_clean_sbu_0, # of connection points: 4
#     Node 2, Type 0, BuildingBlock: MUDLON_clean_sbu_0, # of connection points: 4
#     Node 3, Type 0, BuildingBlock: MUDLON_clean_sbu_0, # of connection points: 4
#     Node 4, Type 0, BuildingBlock: MUDLON_clean_sbu_0, # of connection points: 4
#     Node 5, Type 0, BuildingBlock: MUDLON_clean_sbu_0, # of connection points: 4
#     Node 6, Type 0, BuildingBlock: MUDLON_clean_sbu_0, # of connection points: 4
#     Node 7, Type 0, BuildingBlock: MUDLON_clean_sbu_0, # of connection points: 4
#     Edge 8, Type (0, 0), BuildingBlock: KIFKEQ_clean_linker_1, # of connection points: 2
#     Edge 9, Type (0, 0), BuildingBlock: KIFKEQ_clean_linker_1, # of connection points: 2
#     Edge 10, Type (0, 0), BuildingBlock: KIFKEQ_clean_linker_1, # of connection points: 2
#     Edge 11, Type (0, 0), BuildingBlock: KIFKEQ_clean_linker_1, # of connection points: 2
#     Edge 12, Type (0, 0), BuildingBlock: KIFKEQ_clean_linker_1, # of connection points: 2
#     Edge 13, Type (0, 0), BuildingBlock: KIFKEQ_clean_linker_1, # of connection points: 2
#     Edge 14, Type (0, 0), BuildingBlock: KIFKEQ_clean_linker_1, # of connection points: 2
#     Edge 15, Type (0, 0), BuildingBlock: KIFKEQ_clean_linker_1, # of connection points: 2
#     Edge 16, Type (0, 0), BuildingBlock: KIFKEQ_clean_linker_1, # of connection points: 2
#     Edge 17, Type (0, 0), BuildingBlock: KIFKEQ_clean_linker_1, # of connection points: 2
#     Edge 18, Type (0, 0), BuildingBlock: KIFKEQ_clean_linker_1, # of connection points: 2
#     Edge 19, Type (0, 0), BuildingBlock: KIFKEQ_clean_linker_1, # of connection points: 2
#     Edge 20, Type (0, 0), BuildingBlock: KIFKEQ_clean_linker_1, # of connection points: 2
#     Edge 21, Type (0, 0), BuildingBlock: KIFKEQ_clean_linker_1, # of connection points: 2
#     Edge 22, Type (0, 0), BuildingBlock: KIFKEQ_clean_linker_1, # of connection points: 2
#     Edge 23, Type (0, 0), BuildingBlock: KIFKEQ_clean_linker_1, # of connection points: 2
# Relax obj value: 0.167
# Max RMSD: 0.252
# Mean RMSD: 0.252
data_MOF--net-sow--node1-MUDLON_clean_sbu_0--edge1-KIFKEQ_clean_linker_1
_symmetry_space_group_name_H-M    P1
_symmetry_Int_Tables_number       1
_symmetry_cell_setting            triclinic
loop_
_symmetry_equiv_pos_as_xyz
'x, y, z'
_cell_length_a     41.75976
_cell_length_b     24.704073
_cell_length_c     24.994158
_cell_angle_alpha  89.88682
_cell_angle_beta   89.935695
_cell_angle_gamma 89.931781
loop_
_atom_site_label
_atom_site_type_symbol
_atom_site_fract_x
_atom_site_fract_y
_atom_site_fract_z
_atom_type_partial_charge
Mg0 Mg 0.15249 0.20609 0.0955 0.0
C1 C 0.1191 0.2835 0.17311 0.0
O2 O 0.1461 0.27873 0.19961 0.0
C3 C 0.18645 0.20926 0.98861 0.0
O4 O 0.1764 0.15889 0.9888 0.0
C5 C 0.09682 0.14635 0.05073 0.0
O6 O 0.08879 0.19723 0.04315 0.0
O7 O 0.12407 0.13591 0.07125 0.0
O8 O 0.11663 0.26143 0.12736 0.0
O9 O 0.18558 0.18759 0.16068 0.0
C10 C 0.21016 0.21742 0.16648 0.0
O11 O 0.21555 0.25589 0.13124 0.0
O12 O 0.17926 0.23961 0.02793 0.0
Mg13 Mg 0.37913 0.28787 0.59298 0.0
C14 C 0.41507 0.20815 0.66608 0.0
O15 O 0.3874 0.20472 0.69086 0.0
C16 C 0.32933 0.24422 0.51583 0.0
O17 O 0.31223 0.24431 0.55998 0.0
C18 C 0.42528 0.35932 0.53867 0.0
O19 O 0.42724 0.31358 0.51209 0.0
O20 O 0.40483 0.36294 0.57635 0.0
O21 O 0.41706 0.23584 0.62326 0.0
O22 O 0.3413 0.29422 0.65319 0.0
C23 C 0.34569 0.31022 0.70098 0.0
O24 O 0.3742 0.32745 0.71514 0.0
O25 O 0.35852 0.25881 0.51798 0.0
Mg26 Mg 0.65687 0.28174 0.94131 0.0
C27 C 0.6194 0.20833 0.86546 0.0
O28 O 0.64543 0.21301 0.83635 0.0
C29 C 0.70846 0.26723 0.02466 0.0
O30 O 0.72241 0.30169 0.99203 0.0
C31 C 0.60861 0.35095 0.9958 0.0
O32 O 0.60526 0.30433 0.02058 0.0
O33 O 0.63046 0.35547 0.96049 0.0
O34 O 0.61879 0.22921 0.91196 0.0
O35 O 0.69178 0.29395 0.87692 0.0
C36 C 0.71087 0.25534 0.86577 0.0
O37 O 0.70971 0.21104 0.89491 0.0
O38 O 0.68039 0.2507 1.01346 0.0
Mg39 Mg 0.88468 0.18729 0.44163 0.0
C40 C 0.91838 0.27528 0.37786 0.0
O41 O 0.89142 0.2744 0.35082 0.0
C42 C 0.83987 0.24693 0.52256 0.0
O43 O 0.83483 0.28151 0.48345 0.0
C44 C 0.93022 0.12004 0.50266 0.0
O45 O 0.92614 0.1631 0.5327 0.0
O46 O 0.91421 0.11638 0.45947 0.0
O47 O 0.92069 0.24693 0.42022 0.0
O48 O 0.85398 0.17748 0.37111 0.0
C49 C 0.82373 0.18402 0.37097 0.0
O50 O 0.80886 0.19277 0.41647 0.0
O51 O 0.85861 0.207 0.51505 0.0
Mg52 Mg 0.88037 0.78708 0.93534 0.0
C53 C 0.83207 0.75814 0.85372 0.0
O54 O 0.84348 0.71108 0.86931 0.0
C55 C 0.93206 0.85288 0.98475 0.0
O56 O 0.93638 0.80518 1.00697 0.0
C57 C 0.83018 0.75233 1.01566 0.0
O58 O 0.81182 0.7698 0.97663 0.0
O59 O 0.86044 0.75349 1.00942 0.0
O60 O 0.8424 0.80074 0.87648 0.0
O61 O 0.91441 0.73443 0.89472 0.0
C62 C 0.91963 0.74994 0.84693 0.0
O63 O 0.90426 0.79275 0.82908 0.0
O64 O 0.90857 0.85922 0.95288 0.0
Mg65 Mg 0.65637 0.69582 0.43368 0.0
C66 C 0.71793 0.6978 0.3679 0.0
O67 O 0.72679 0.72972 0.40712 0.0
C68 C 0.59576 0.64261 0.46928 0.0
O69 O 0.59029 0.69365 0.48088 0.0
C70 C 0.69377 0.75749 0.52207 0.0
O71 O 0.69341 0.79823 0.48821 0.0
O72 O 0.68038 0.71315 0.50922 0.0
O73 O 0.69049 0.67546 0.3702 0.0
O74 O 0.62638 0.76129 0.40341 0.0
C75 C 0.63123 0.78035 0.35676 0.0
O76 O 0.6573 0.76608 0.33095 0.0
O77 O 0.62262 0.62987 0.44857 0.0
Mg78 Mg 0.38768 0.70513 0.10395 0.0
C79 C 0.3436 0.73057 0.19238 0.0
O80 O 0.35905 0.77604 0.18363 0.0
C81 C 0.44249 0.64342 0.05993 0.0
O82 O 0.44963 0.69393 0.0486 0.0
C83 C 0.33804 0.75339 0.02908 0.0
O84 O 0.32028 0.74682 0.072 0.0
O85 O 0.36766 0.74133 0.03135 0.0
O86 O 0.34988 0.68999 0.1628 0.0
O87 O 0.42172 0.75483 0.14734 0.0
C88 C 0.43994 0.79301 0.13202 0.0
O89 O 0.4388 0.80978 0.08214 0.0
O90 O 0.41585 0.63355 0.08282 0.0
Mg91 Mg 0.1636 0.78708 0.60726 0.0
C92 C 0.21961 0.78157 0.6805 0.0
O93 O 0.22549 0.7421 0.6467 0.0
C94 C 0.10675 0.8613 0.6124 0.0
O95 O 0.10459 0.83602 0.65857 0.0
C96 C 0.18418 0.74523 0.49536 0.0
O97 O 0.15329 0.74233 0.48597 0.0
O98 O 0.19385 0.76089 0.54102 0.0
O99 O 0.19487 0.81078 0.6731 0.0
O100 O 0.13335 0.72467 0.64139 0.0
C101 C 0.10743 0.71053 0.61884 0.0
O102 O 0.1018 0.72715 0.56978 0.0
O103 O 0.13052 0.85099 0.58212 0.0
H104 H 0.34785 0.33431 0.80797 0.0
H105 H 0.28536 0.26967 0.6862 0.0
H106 H 0.3076 0.31417 0.876 0.0
H107 H 0.24501 0.25032 0.75408 0.0
H108 H 0.20293 0.15612 0.89697 0.0
H109 H 0.2395 0.18558 0.82695 0.0
H110 H 0.25399 0.33682 0.90981 0.0
H111 H 0.21756 0.30693 0.98062 0.0
C112 C 0.32538 0.31649 0.79556 0.0
C113 C 0.31999 0.30327 0.7416 0.0
C114 C 0.30222 0.30516 0.83459 0.0
C115 C 0.27314 0.28021 0.82062 0.0
C116 C 0.26734 0.26872 0.76638 0.0
C117 C 0.29044 0.28015 0.72738 0.0
C118 C 0.21372 0.19582 0.90023 0.0
C119 C 0.20732 0.22907 0.94456 0.0
C120 C 0.23457 0.21288 0.8598 0.0
C121 C 0.2497 0.26364 0.86263 0.0
C122 C 0.24299 0.29728 0.90662 0.0
C123 C 0.22196 0.28027 0.94705 0.0
H124 H 0.20337 0.14824 0.25191 0.0
H125 H 0.26282 0.27766 0.1914 0.0
H126 H 0.23423 0.1474 0.33486 0.0
H127 H 0.29303 0.27774 0.27446 0.0
H128 H 0.35677 0.24318 0.41598 0.0
H129 H 0.33022 0.22921 0.33016 0.0
H130 H 0.24023 0.20465 0.41209 0.0
H131 H 0.26684 0.21726 0.49767 0.0
C132 C 0.22314 0.17623 0.2561 0.0
C133 C 0.23049 0.21319 0.21504 0.0
C134 C 0.24072 0.17601 0.30383 0.0
C135 C 0.26606 0.21272 0.31161 0.0
C136 C 0.27399 0.24843 0.26976 0.0
C137 C 0.25646 0.24862 0.22213 0.0
C138 C 0.33139 0.23422 0.4157 0.0
C139 C 0.31393 0.23165 0.46377 0.0
C140 C 0.31611 0.22651 0.36644 0.0
C141 C 0.283 0.21609 0.36404 0.0
C142 C 0.2658 0.21192 0.41229 0.0
C143 C 0.28106 0.21954 0.46148 0.0
H144 H 0.75968 0.2029 0.35588 0.0
H145 H 0.84767 0.17461 0.26922 0.0
H146 H 0.7317 0.21836 0.27162 0.0
H147 H 0.81955 0.18909 0.18496 0.0
H148 H 0.7695 0.29101 0.05557 0.0
H149 H 0.79655 0.26554 0.13795 0.0
H150 H 0.71266 0.17714 0.18881 0.0
H151 H 0.68525 0.20344 0.10628 0.0
C152 C 0.77299 0.1992 0.31886 0.0
C153 C 0.80601 0.1878 0.31948 0.0
C154 C 0.75688 0.20783 0.27044 0.0
C155 C 0.77337 0.20538 0.22139 0.0
C156 C 0.80618 0.1922 0.22198 0.0
C157 C 0.82228 0.18351 0.27036 0.0
C158 C 0.75677 0.26596 0.08413 0.0
C159 C 0.72512 0.24943 0.07424 0.0
C160 C 0.77243 0.25098 0.13133 0.0
C161 C 0.75687 0.21912 0.17012 0.0
C162 C 0.72528 0.20211 0.16007 0.0
C163 C 0.70961 0.21696 0.11261 0.0
H164 H 0.74471 0.17258 0.82112 0.0
H165 H 0.72407 0.34274 0.80107 0.0
H166 H 0.77637 0.17348 0.73977 0.0
H167 H 0.75707 0.34435 0.72025 0.0
H168 H 0.78809 0.3111 0.54597 0.0
H169 H 0.75826 0.31562 0.62984 0.0
H170 H 0.82449 0.2019 0.70117 0.0
H171 H 0.85331 0.19578 0.61684 0.0
C172 C 0.74732 0.2105 0.79975 0.0
C173 C 0.7318 0.25759 0.81773 0.0
C174 C 0.76573 0.21113 0.75304 0.0
C175 C 0.76954 0.25905 0.72316 0.0
C176 C 0.75437 0.30647 0.74163 0.0
C177 C 0.73562 0.30569 0.78824 0.0
C178 C 0.79632 0.28725 0.57968 0.0
C179 C 0.82291 0.2527 0.5745 0.0
C180 C 0.77932 0.29007 0.628 0.0
C181 C 0.78869 0.2588 0.67252 0.0
C182 C 0.81598 0.22562 0.66759 0.0
C183 C 0.8327 0.22233 0.6192 0.0
H184 H 0.76665 0.74078 0.03824 0.0
H185 H 0.86036 0.72496 0.10969 0.0
H186 H 0.74189 0.71961 0.12373 0.0
H187 H 0.83542 0.70269 0.19556 0.0
H188 H 0.77617 0.7445 0.34864 0.0
H189 H 0.8048 0.75007 0.26391 0.0
H190 H 0.7329 0.64958 0.18978 0.0
H191 H 0.70384 0.64491 0.27442 0.0
C192 C 0.78203 0.73216 0.07208 0.0
C193 C 0.81554 0.73494 0.06709 0.0
C194 C 0.76778 0.71955 0.12115 0.0
C195 C 0.78661 0.70942 0.16669 0.0
C196 C 0.82018 0.71084 0.16145 0.0
C197 C 0.83449 0.72332 0.11216 0.0
C198 C 0.76664 0.72296 0.3145 0.0
C199 C 0.73751 0.69467 0.31832 0.0
C200 C 0.7832 0.72592 0.26587 0.0
C201 C 0.77105 0.70068 0.21978 0.0
C202 C 0.74267 0.67028 0.22424 0.0
C203 C 0.72611 0.66729 0.2729 0.0
H204 H 0.6916 0.68732 0.60648 0.0
H205 H 0.73517 0.83704 0.5547 0.0
H206 H 0.72218 0.69072 0.68911 0.0
H207 H 0.76672 0.83956 0.63688 0.0
H208 H 0.80251 0.84771 0.81018 0.0
H209 H 0.76663 0.85052 0.7328 0.0
H210 H 0.77592 0.67715 0.71578 0.0
H211 H 0.81062 0.67422 0.79333 0.0
C212 C 0.70776 0.721 0.6127 0.0
C213 C 0.71111 0.76168 0.57372 0.0
C214 C 0.72547 0.72282 0.66006 0.0
C215 C 0.7473 0.76506 0.66957 0.0
C216 C 0.74997 0.80665 0.63123 0.0
C217 C 0.732 0.80506 0.58391 0.0
C218 C 0.79662 0.81023 0.79008 0.0
C219 C 0.80937 0.76075 0.80812 0.0
C220 C 0.77623 0.81185 0.7455 0.0
C221 C 0.76821 0.76403 0.71799 0.0
C222 C 0.78094 0.71469 0.73642 0.0
C223 C 0.8011 0.71306 0.78089 0.0
H224 H 0.27517 0.77803 1.01105 0.0
H225 H 0.36631 0.7635 0.93032 0.0
H226 H 0.24881 0.79308 0.9256 0.0
H227 H 0.33994 0.77984 0.84465 0.0
H228 H 0.27443 0.72685 0.7048 0.0
H229 H 0.3046 0.72871 0.78777 0.0
H230 H 0.24131 0.8523 0.84932 0.0
H231 H 0.21051 0.84959 0.7662 0.0
C232 C 0.28971 0.7789 0.97514 0.0
C233 C 0.32285 0.76897 0.97758 0.0
C234 C 0.27457 0.78795 0.92604 0.0
C235 C 0.29217 0.78735 0.87805 0.0
C236 C 0.32555 0.77972 0.88072 0.0
C237 C 0.34072 0.77064 0.9299 0.0
C238 C 0.26707 0.75489 0.73573 0.0
C239 C 0.23985 0.78775 0.72893 0.0
C240 C 0.28458 0.75624 0.7833 0.0
C241 C 0.27539 0.79052 0.82546 0.0
C242 C 0.24882 0.82489 0.81796 0.0
C243 C 0.23128 0.82359 0.77018 0.0
H244 H 0.29942 0.65048 0.21412 0.0
H245 H 0.33449 0.80437 0.27122 0.0
H246 H 0.26075 0.648 0.28827 0.0
H247 H 0.29629 0.80175 0.34442 0.0
H248 H 0.24918 0.7562 0.49984 0.0
H249 H 0.28761 0.74698 0.42714 0.0
H250 H 0.21142 0.70161 0.31969 0.0
H251 H 0.17266 0.71067 0.39272 0.0
C252 C 0.29895 0.6836 0.24243 0.0
C253 C 0.32006 0.72758 0.23676 0.0
C254 C 0.27675 0.68228 0.28468 0.0
C255 C 0.27567 0.7245 0.32237 0.0
C256 C 0.29684 0.76822 0.31655 0.0
C257 C 0.31862 0.76985 0.27427 0.0
C258 C 0.24054 0.74379 0.46091 0.0
C259 C 0.20773 0.73474 0.45205 0.0
C260 C 0.2626 0.73868 0.41919 0.0
C261 C 0.2525 0.72408 0.36758 0.0
C262 C 0.21992 0.71269 0.3591 0.0
C263 C 0.19773 0.71819 0.40088 0.0
H264 H 0.11476 0.33016 0.2722 0.0
H265 H 0.05738 0.28177 0.13677 0.0
H266 H 0.06614 0.34672 0.32382 0.0
H267 H 1.00904 0.29653 0.18863 0.0
H268 H 0.92332 0.33296 0.28448 0.0
H269 H 0.97219 0.35334 0.23492 0.0
H270 H 0.02853 0.287 0.3644 0.0
H271 H 0.97995 0.26837 0.4144 0.0
C272 C 0.09179 0.32392 0.25311 0.0
C273 C 0.09 0.30385 0.2006 0.0
C274 C 0.06389 0.33309 0.28284 0.0
C275 C 0.03359 0.32215 0.26081 0.0
C276 C 0.03184 0.3059 0.20696 0.0
C277 C 0.05969 0.29706 0.17717 0.0
C278 C 0.94618 0.324 0.30292 0.0
C279 C 0.94767 0.29821 0.35306 0.0
C280 C 0.97422 0.33535 0.27432 0.0
C281 C 1.00436 0.32095 0.29512 0.0
C282 C 1.00586 0.29907 0.34709 0.0
C283 C 0.97787 0.28803 0.37578 0.0
H284 H 0.42113 0.15877 0.76396 0.0
H285 H 0.47647 0.21604 0.6291 0.0
H286 H 0.47051 0.14271 0.81373 0.0
H287 H 0.52548 0.20151 0.67908 0.0
H288 H 0.61249 0.15783 0.76895 0.0
H289 H 0.56283 0.14155 0.72051 0.0
H290 H 0.50877 0.20127 0.85566 0.0
H291 H 0.55829 0.21592 0.90457 0.0
C292 C 0.44381 0.1671 0.74457 0.0
C293 C 0.44479 0.18929 0.69274 0.0
C294 C 0.47212 0.15825 0.77327 0.0
C295 C 0.50203 0.17138 0.75076 0.0
C296 C 0.503 0.19035 0.69767 0.0
C297 C 0.47477 0.19906 0.669 0.0
C298 C 0.58997 0.16637 0.78876 0.0
C299 C 0.5894 0.18888 0.84037 0.0
C300 C 0.56148 0.15734 0.76084 0.0
C301 C 0.53175 0.17094 0.78373 0.0
C302 C 0.53114 0.1899 0.8368 0.0
C303 C 0.55962 0.19859 0.86485 0.0
H304 H 0.04857 0.67585 0.58552 0.0
H305 H 0.10547 0.69979 0.72777 0.0
H306 H 1.00085 0.66538 0.6408 0.0
H307 H 0.05777 0.69152 0.78269 0.0
H308 H 0.96693 0.67764 0.87557 0.0
H309 H 1.01155 0.64662 0.81961 0.0
H310 H 0.97222 0.73515 0.68549 0.0
H311 H 0.92785 0.76451 0.7404 0.0
C312 C 0.05104 0.67768 0.62861 0.0
C313 C 0.08069 0.6899 0.65211 0.0
C314 C 0.02365 0.67202 0.66033 0.0
C315 C 0.02528 0.6791 0.71614 0.0
C316 C 0.05551 0.68576 0.73993 0.0
C317 C 0.08295 0.69082 0.70826 0.0
C318 C 0.96758 0.68934 0.8338 0.0
C319 C 0.94414 0.72413 0.81259 0.0
C320 C 0.99318 0.67181 0.8018 0.0
C321 C 0.99564 0.68853 0.74802 0.0
C322 C 0.97103 0.72065 0.72636 0.0
C323 C 0.94566 0.73814 0.75817 0.0
H324 H 0.44637 0.76857 0.23762 0.0
H325 H 0.49125 0.85938 0.11011 0.0
H326 H 0.49233 0.7839 0.29412 0.0
H327 H 0.53726 0.8768 0.16796 0.0
H328 H 0.62804 0.80223 0.24983 0.0
H329 H 0.58035 0.82258 0.19841 0.0
H330 H 0.52616 0.8395 0.34493 0.0
H331 H 0.57382 0.81647 0.39645 0.0
C332 C 0.46579 0.793 0.22199 0.0
C333 C 0.46537 0.81183 0.16889 0.0
C334 C 0.49216 0.80238 0.25481 0.0
C335 C 0.51883 0.83126 0.23566 0.0
C336 C 0.51742 0.85354 0.18375 0.0
C337 C 0.49095 0.84387 0.15066 0.0
C338 C 0.60615 0.81147 0.27126 0.0
C339 C 0.60457 0.80643 0.32724 0.0
C340 C 0.5787 0.82358 0.24162 0.0
C341 C 0.54909 0.83158 0.26733 0.0
C342 C 0.54833 0.83202 0.32367 0.0
C343 C 0.57572 0.81921 0.3533 0.0
H344 H 0.10575 0.03606 0.05443 0.0
H345 H 0.03462 0.15826 0.01987 0.0
H346 H 0.06622 0.96552 0.03675 0.0
H347 H 0.995 0.08828 1.00412 0.0
H348 H 0.93796 0.94971 0.93159 0.0
H349 H 0.97858 0.0193 0.94476 0.0
H350 H 0.01952 0.92548 0.07389 0.0
H351 H 0.97966 0.85532 0.05941 0.0
C352 C 0.0817 0.04788 0.04315 0.0
C353 C 0.07342 0.10284 0.03855 0.0
C354 C 0.05891 0.00745 0.03337 0.0
C355 C 0.02724 0.021 0.0191 0.0
C356 C 1.01917 0.07606 1.01413 0.0
C357 C 0.04195 0.11634 0.02352 0.0
C358 C 0.95556 0.94409 0.96291 0.0
C359 C 0.95551 0.89693 0.99443 0.0
C360 C 0.97886 0.98409 0.97062 0.0
C361 C 1.00254 0.97815 1.01036 0.0
C362 C 1.00216 0.93115 0.04222 0.0
C363 C 0.97905 0.89104 0.03423 0.0
H364 H 0.59953 0.53242 0.45621 0.0
H365 H 0.53493 0.65948 0.5059 0.0
H366 H 0.55788 0.46537 0.47345 0.0
H367 H 0.49312 0.59284 0.5217 0.0
H368 H 0.43612 0.45234 0.59613 0.0
H369 H 0.47741 0.52051 0.58017 0.0
H370 H 0.50788 0.43417 0.43876 0.0
H371 H 0.46735 0.36565 0.45549 0.0
C372 C 0.57643 0.54609 0.47058 0.0
C373 C 0.57064 0.60135 0.47965 0.0
C374 C 0.55243 0.50768 0.48019 0.0
C375 C 0.52199 0.52359 0.49888 0.0
C376 C 0.51632 0.57891 0.50806 0.0
C377 C 0.54032 0.61723 0.49865 0.0
C378 C 0.45151 0.44817 0.56147 0.0
C379 C 0.44846 0.40342 0.52723 0.0
C380 C 0.47517 0.48733 0.55219 0.0
C381 C 0.49624 0.48274 0.50834 0.0
C382 C 0.49261 0.43854 0.47354 0.0
C383 C 0.46912 0.3994 0.48292 0.0
H384 H 0.50356 0.65545 0.02334 0.0
H385 H 0.43548 0.53329 0.07186 0.0
H386 H 0.54378 0.58603 1.0087 0.0
H387 H 0.47559 0.46315 0.05536 0.0
H388 H 0.56421 0.35723 0.07578 0.0
H389 H 0.52413 0.42722 0.09042 0.0
H390 H 0.55916 0.51402 0.95196 0.0
H391 H 0.60001 0.44471 0.93846 0.0
C392 C 0.49702 0.61362 0.03035 0.0
C393 C 0.46622 0.6 0.04886 0.0
C394 C 0.52013 0.57364 0.02161 0.0
C395 C 0.51309 0.51876 0.03075 0.0
C396 C 0.48211 0.50503 0.04868 0.0
C397 C 0.45899 0.54519 0.05779 0.0
C398 C 0.56351 0.39142 0.04861 0.0
C399 C 0.58541 0.39538 1.006 0.0
C400 C 0.54026 0.43139 0.05673 0.0
C401 C 0.53811 0.4763 0.02223 0.0
C402 C 0.56026 0.48046 0.97983 0.0
C403 C 0.5837 0.44062 0.97195 0.0
H404 H 0.05456 0.89312 0.67005 0.0
H405 H 0.09967 0.91332 0.51564 0.0
H406 H 1.01104 0.95231 0.64227 0.0
H407 H 0.05598 0.97334 0.48796 0.0
H408 H 0.95474 0.03648 0.44221 0.0
H409 H 0.99723 0.9728 0.4675 0.0
H410 H 1.00357 0.04848 0.62271 0.0
H411 H 0.96129 0.11131 0.59788 0.0
C412 C 0.05532 0.91039 0.6302 0.0
C413 C 0.08079 0.89868 0.59523 0.0
C414 C 0.03034 0.94449 0.61432 0.0
C415 C 0.03003 0.96773 0.56293 0.0
C416 C 0.05534 0.9557 0.52765 0.0
C417 C 0.08051 0.92169 0.54368 0.0
C418 C 0.96506 0.03914 0.48185 0.0
C419 C 0.95456 0.07896 0.51802 0.0
C420 C 0.98957 0.00298 0.49618 0.0
C421 C 1.00382 0.00555 0.54714 0.0
C422 C 0.99292 0.04491 0.58338 0.0
C423 C 0.96871 0.08116 0.56899 0.0
loop_
_geom_bond_atom_site_label_1
_geom_bond_atom_site_label_2
_geom_bond_distance
_geom_bond_site_symmetry_2
_ccdc_geom_bond_type
Mg0 O7 2.141 . S
Mg0 O8 2.048 . S
Mg0 O9 2.048 . S
Mg0 O12 2.141 . S
C1 O2 1.313 . S
C1 O8 1.195 . S
O2 C1 1.313 . S
C3 O4 1.245 . S
C3 O12 1.289 . S
O4 C3 1.245 . S
C5 O6 1.245 . S
C5 O7 1.289 . S
O6 C5 1.245 . S
O7 Mg0 2.141 . S
O7 C5 1.289 . S
O8 Mg0 2.048 . S
O8 C1 1.195 . S
O9 Mg0 2.048 . S
O9 C10 1.195 . S
C10 O9 1.195 . S
C10 O11 1.313 . S
O11 C10 1.313 . S
O12 Mg0 2.141 . S
O12 C3 1.289 . S
Mg13 O20 2.141 . S
Mg13 O21 2.048 . S
Mg13 O22 2.048 . S
Mg13 O25 2.141 . S
C14 O15 1.313 . S
C14 O21 1.195 . S
O15 C14 1.313 . S
C16 O17 1.245 . S
C16 O25 1.289 . S
O17 C16 1.245 . S
C18 O19 1.245 . S
C18 O20 1.289 . S
O19 C18 1.245 . S
O20 Mg13 2.141 . S
O20 C18 1.289 . S
O21 Mg13 2.048 . S
O21 C14 1.195 . S
O22 Mg13 2.048 . S
O22 C23 1.195 . S
C23 O22 1.195 . S
C23 O24 1.313 . S
O24 C23 1.313 . S
O25 Mg13 2.141 . S
O25 C16 1.289 . S
Mg26 O33 2.141 . S
Mg26 O34 2.048 . S
Mg26 O35 2.048 . S
Mg26 O38 2.141 . S
C27 O28 1.313 . S
C27 O34 1.195 . S
O28 C27 1.313 . S
C29 O30 1.245 . S
C29 O38 1.289 . S
O30 C29 1.245 . S
C31 O32 1.245 . S
C31 O33 1.289 . S
O32 C31 1.245 . S
O33 Mg26 2.141 . S
O33 C31 1.289 . S
O34 Mg26 2.048 . S
O34 C27 1.195 . S
O35 Mg26 2.048 . S
O35 C36 1.195 . S
C36 O35 1.195 . S
C36 O37 1.313 . S
O37 C36 1.313 . S
O38 Mg26 2.141 . S
O38 C29 1.289 . S
Mg39 O46 2.141 . S
Mg39 O47 2.048 . S
Mg39 O48 2.048 . S
Mg39 O51 2.141 . S
C40 O41 1.313 . S
C40 O47 1.195 . S
O41 C40 1.313 . S
C42 O43 1.245 . S
C42 O51 1.289 . S
O43 C42 1.245 . S
C44 O45 1.245 . S
C44 O46 1.289 . S
O45 C44 1.245 . S
O46 Mg39 2.141 . S
O46 C44 1.289 . S
O47 Mg39 2.048 . S
O47 C40 1.195 . S
O48 Mg39 2.048 . S
O48 C49 1.195 . S
C49 O48 1.195 . S
C49 O50 1.313 . S
O50 C49 1.313 . S
O51 Mg39 2.141 . S
O51 C42 1.289 . S
Mg52 O59 2.141 . S
Mg52 O60 2.048 . S
Mg52 O61 2.048 . S
Mg52 O64 2.141 . S
C53 O54 1.313 . S
C53 O60 1.195 . S
O54 C53 1.313 . S
C55 O56 1.245 . S
C55 O64 1.289 . S
O56 C55 1.245 . S
C57 O58 1.245 . S
C57 O59 1.289 . S
O58 C57 1.245 . S
O59 Mg52 2.141 . S
O59 C57 1.289 . S
O60 Mg52 2.048 . S
O60 C53 1.195 . S
O61 Mg52 2.048 . S
O61 C62 1.195 . S
C62 O61 1.195 . S
C62 O63 1.313 . S
O63 C62 1.313 . S
O64 Mg52 2.141 . S
O64 C55 1.289 . S
Mg65 O72 2.141 . S
Mg65 O73 2.048 . S
Mg65 O74 2.048 . S
Mg65 O77 2.141 . S
C66 O67 1.313 . S
C66 O73 1.195 . S
O67 C66 1.313 . S
C68 O69 1.245 . S
C68 O77 1.289 . S
O69 C68 1.245 . S
C70 O71 1.245 . S
C70 O72 1.289 . S
O71 C70 1.245 . S
O72 Mg65 2.141 . S
O72 C70 1.289 . S
O73 Mg65 2.048 . S
O73 C66 1.195 . S
O74 Mg65 2.048 . S
O74 C75 1.195 . S
C75 O74 1.195 . S
C75 O76 1.313 . S
O76 C75 1.313 . S
O77 Mg65 2.141 . S
O77 C68 1.289 . S
Mg78 O85 2.141 . S
Mg78 O86 2.048 . S
Mg78 O87 2.048 . S
Mg78 O90 2.141 . S
C79 O80 1.313 . S
C79 O86 1.195 . S
O80 C79 1.313 . S
C81 O82 1.245 . S
C81 O90 1.289 . S
O82 C81 1.245 . S
C83 O84 1.245 . S
C83 O85 1.289 . S
O84 C83 1.245 . S
O85 Mg78 2.141 . S
O85 C83 1.289 . S
O86 Mg78 2.048 . S
O86 C79 1.195 . S
O87 Mg78 2.048 . S
O87 C88 1.195 . S
C88 O87 1.195 . S
C88 O89 1.313 . S
O89 C88 1.313 . S
O90 Mg78 2.141 . S
O90 C81 1.289 . S
Mg91 O98 2.141 . S
Mg91 O99 2.048 . S
Mg91 O100 2.048 . S
Mg91 O103 2.141 . S
C92 O93 1.313 . S
C92 O99 1.195 . S
O93 C92 1.313 . S
C94 O95 1.245 . S
C94 O103 1.289 . S
O95 C94 1.245 . S
C96 O97 1.245 . S
C96 O98 1.289 . S
O97 C96 1.245 . S
O98 Mg91 2.141 . S
O98 C96 1.289 . S
O99 Mg91 2.048 . S
O99 C92 1.195 . S
O100 Mg91 2.048 . S
O100 C101 1.195 . S
C101 O100 1.195 . S
C101 O102 1.313 . S
O102 C101 1.313 . S
O103 Mg91 2.141 . S
O103 C94 1.289 . S
H104 C112 0.950 . S
H105 C117 0.950 . S
H106 C114 0.950 . S
H107 C116 0.950 . S
H108 C118 0.950 . S
H109 C120 0.950 . S
H110 C122 0.950 . S
H111 C123 0.950 . S
C112 H104 0.950 . S
C112 C113 1.386 . S
C112 C114 1.391 . S
C113 C112 1.386 . S
C113 C117 1.393 . S
C114 H106 0.950 . S
C114 C112 1.391 . S
C114 C115 1.400 . S
C115 C114 1.400 . S
C115 C116 1.398 . S
C115 C121 1.491 . S
C116 H107 0.950 . S
C116 C115 1.398 . S
C116 C117 1.391 . S
C117 H105 0.950 . S
C117 C113 1.393 . S
C117 C116 1.391 . S
C118 H108 0.950 . S
C118 C119 1.386 . S
C118 C120 1.391 . S
C119 C118 1.386 . S
C119 C123 1.393 . S
C120 H109 0.950 . S
C120 C118 1.391 . S
C120 C121 1.400 . S
C121 C115 1.491 . S
C121 C120 1.400 . S
C121 C122 1.398 . S
C122 H110 0.950 . S
C122 C121 1.398 . S
C122 C123 1.391 . S
C123 H111 0.950 . S
C123 C119 1.393 . S
C123 C122 1.391 . S
H124 C132 0.950 . S
H125 C137 0.950 . S
H126 C134 0.950 . S
H127 C136 0.950 . S
H128 C138 0.950 . S
H129 C140 0.950 . S
H130 C142 0.950 . S
H131 C143 0.950 . S
C132 H124 0.950 . S
C132 C133 1.386 . S
C132 C134 1.391 . S
C133 C132 1.386 . S
C133 C137 1.393 . S
C134 H126 0.950 . S
C134 C132 1.391 . S
C134 C135 1.400 . S
C135 C134 1.400 . S
C135 C136 1.398 . S
C135 C141 1.491 . S
C136 H127 0.950 . S
C136 C135 1.398 . S
C136 C137 1.391 . S
C137 H125 0.950 . S
C137 C133 1.393 . S
C137 C136 1.391 . S
C138 H128 0.950 . S
C138 C139 1.386 . S
C138 C140 1.391 . S
C139 C138 1.386 . S
C139 C143 1.393 . S
C140 H129 0.950 . S
C140 C138 1.391 . S
C140 C141 1.400 . S
C141 C135 1.491 . S
C141 C140 1.400 . S
C141 C142 1.398 . S
C142 H130 0.950 . S
C142 C141 1.398 . S
C142 C143 1.391 . S
C143 H131 0.950 . S
C143 C139 1.393 . S
C143 C142 1.391 . S
H144 C152 0.950 . S
H145 C157 0.950 . S
H146 C154 0.950 . S
H147 C156 0.950 . S
H148 C158 0.950 . S
H149 C160 0.950 . S
H150 C162 0.950 . S
H151 C163 0.950 . S
C152 H144 0.950 . S
C152 C153 1.386 . S
C152 C154 1.391 . S
C153 C152 1.386 . S
C153 C157 1.393 . S
C154 H146 0.950 . S
C154 C152 1.391 . S
C154 C155 1.400 . S
C155 C154 1.400 . S
C155 C156 1.398 . S
C155 C161 1.491 . S
C156 H147 0.950 . S
C156 C155 1.398 . S
C156 C157 1.391 . S
C157 H145 0.950 . S
C157 C153 1.393 . S
C157 C156 1.391 . S
C158 H148 0.950 . S
C158 C159 1.386 . S
C158 C160 1.391 . S
C159 C158 1.386 . S
C159 C163 1.393 . S
C160 H149 0.950 . S
C160 C158 1.391 . S
C160 C161 1.400 . S
C161 C155 1.491 . S
C161 C160 1.400 . S
C161 C162 1.398 . S
C162 H150 0.950 . S
C162 C161 1.398 . S
C162 C163 1.391 . S
C163 H151 0.950 . S
C163 C159 1.393 . S
C163 C162 1.391 . S
H164 C172 0.950 . S
H165 C177 0.950 . S
H166 C174 0.950 . S
H167 C176 0.950 . S
H168 C178 0.950 . S
H169 C180 0.950 . S
H170 C182 0.950 . S
H171 C183 0.950 . S
C172 H164 0.950 . S
C172 C173 1.386 . S
C172 C174 1.391 . S
C173 C172 1.386 . S
C173 C177 1.393 . S
C174 H166 0.950 . S
C174 C172 1.391 . S
C174 C175 1.400 . S
C175 C174 1.400 . S
C175 C176 1.398 . S
C175 C181 1.491 . S
C176 H167 0.950 . S
C176 C175 1.398 . S
C176 C177 1.391 . S
C177 H165 0.950 . S
C177 C173 1.393 . S
C177 C176 1.391 . S
C178 H168 0.950 . S
C178 C179 1.386 . S
C178 C180 1.391 . S
C179 C178 1.386 . S
C179 C183 1.393 . S
C180 H169 0.950 . S
C180 C178 1.391 . S
C180 C181 1.400 . S
C181 C175 1.491 . S
C181 C180 1.400 . S
C181 C182 1.398 . S
C182 H170 0.950 . S
C182 C181 1.398 . S
C182 C183 1.391 . S
C183 H171 0.950 . S
C183 C179 1.393 . S
C183 C182 1.391 . S
H184 C192 0.950 . S
H185 C197 0.950 . S
H186 C194 0.950 . S
H187 C196 0.950 . S
H188 C198 0.950 . S
H189 C200 0.950 . S
H190 C202 0.950 . S
H191 C203 0.950 . S
C192 H184 0.950 . S
C192 C193 1.386 . S
C192 C194 1.391 . S
C193 C192 1.386 . S
C193 C197 1.393 . S
C194 H186 0.950 . S
C194 C192 1.391 . S
C194 C195 1.400 . S
C195 C194 1.400 . S
C195 C196 1.398 . S
C195 C201 1.491 . S
C196 H187 0.950 . S
C196 C195 1.398 . S
C196 C197 1.391 . S
C197 H185 0.950 . S
C197 C193 1.393 . S
C197 C196 1.391 . S
C198 H188 0.950 . S
C198 C199 1.386 . S
C198 C200 1.391 . S
C199 C198 1.386 . S
C199 C203 1.393 . S
C200 H189 0.950 . S
C200 C198 1.391 . S
C200 C201 1.400 . S
C201 C195 1.491 . S
C201 C200 1.400 . S
C201 C202 1.398 . S
C202 H190 0.950 . S
C202 C201 1.398 . S
C202 C203 1.391 . S
C203 H191 0.950 . S
C203 C199 1.393 . S
C203 C202 1.391 . S
H204 C212 0.950 . S
H205 C217 0.950 . S
H206 C214 0.950 . S
H207 C216 0.950 . S
H208 C218 0.950 . S
H209 C220 0.950 . S
H210 C222 0.950 . S
H211 C223 0.950 . S
C212 H204 0.950 . S
C212 C213 1.386 . S
C212 C214 1.391 . S
C213 C212 1.386 . S
C213 C217 1.393 . S
C214 H206 0.950 . S
C214 C212 1.391 . S
C214 C215 1.400 . S
C215 C214 1.400 . S
C215 C216 1.398 . S
C215 C221 1.491 . S
C216 H207 0.950 . S
C216 C215 1.398 . S
C216 C217 1.391 . S
C217 H205 0.950 . S
C217 C213 1.393 . S
C217 C216 1.391 . S
C218 H208 0.950 . S
C218 C219 1.386 . S
C218 C220 1.391 . S
C219 C218 1.386 . S
C219 C223 1.393 . S
C220 H209 0.950 . S
C220 C218 1.391 . S
C220 C221 1.400 . S
C221 C215 1.491 . S
C221 C220 1.400 . S
C221 C222 1.398 . S
C222 H210 0.950 . S
C222 C221 1.398 . S
C222 C223 1.391 . S
C223 H211 0.950 . S
C223 C219 1.393 . S
C223 C222 1.391 . S
H224 C232 0.950 . S
H225 C237 0.950 . S
H226 C234 0.950 . S
H227 C236 0.950 . S
H228 C238 0.950 . S
H229 C240 0.950 . S
H230 C242 0.950 . S
H231 C243 0.950 . S
C232 H224 0.950 . S
C232 C233 1.386 . S
C232 C234 1.391 . S
C233 C232 1.386 . S
C233 C237 1.393 . S
C234 H226 0.950 . S
C234 C232 1.391 . S
C234 C235 1.400 . S
C235 C234 1.400 . S
C235 C236 1.398 . S
C235 C241 1.491 . S
C236 H227 0.950 . S
C236 C235 1.398 . S
C236 C237 1.391 . S
C237 H225 0.950 . S
C237 C233 1.393 . S
C237 C236 1.391 . S
C238 H228 0.950 . S
C238 C239 1.386 . S
C238 C240 1.391 . S
C239 C238 1.386 . S
C239 C243 1.393 . S
C240 H229 0.950 . S
C240 C238 1.391 . S
C240 C241 1.400 . S
C241 C235 1.491 . S
C241 C240 1.400 . S
C241 C242 1.398 . S
C242 H230 0.950 . S
C242 C241 1.398 . S
C242 C243 1.391 . S
C243 H231 0.950 . S
C243 C239 1.393 . S
C243 C242 1.391 . S
H244 C252 0.950 . S
H245 C257 0.950 . S
H246 C254 0.950 . S
H247 C256 0.950 . S
H248 C258 0.950 . S
H249 C260 0.950 . S
H250 C262 0.950 . S
H251 C263 0.950 . S
C252 H244 0.950 . S
C252 C253 1.386 . S
C252 C254 1.391 . S
C253 C252 1.386 . S
C253 C257 1.393 . S
C254 H246 0.950 . S
C254 C252 1.391 . S
C254 C255 1.400 . S
C255 C254 1.400 . S
C255 C256 1.398 . S
C255 C261 1.491 . S
C256 H247 0.950 . S
C256 C255 1.398 . S
C256 C257 1.391 . S
C257 H245 0.950 . S
C257 C253 1.393 . S
C257 C256 1.391 . S
C258 H248 0.950 . S
C258 C259 1.386 . S
C258 C260 1.391 . S
C259 C258 1.386 . S
C259 C263 1.393 . S
C260 H249 0.950 . S
C260 C258 1.391 . S
C260 C261 1.400 . S
C261 C255 1.491 . S
C261 C260 1.400 . S
C261 C262 1.398 . S
C262 H250 0.950 . S
C262 C261 1.398 . S
C262 C263 1.391 . S
C263 H251 0.950 . S
C263 C259 1.393 . S
C263 C262 1.391 . S
H264 C272 0.950 . S
H265 C277 0.950 . S
H266 C274 0.950 . S
H267 C276 0.950 . S
H268 C278 0.950 . S
H269 C280 0.950 . S
H270 C282 0.950 . S
H271 C283 0.950 . S
C272 H264 0.950 . S
C272 C273 1.386 . S
C272 C274 1.391 . S
C273 C272 1.386 . S
C273 C277 1.393 . S
C274 H266 0.950 . S
C274 C272 1.391 . S
C274 C275 1.400 . S
C275 C274 1.400 . S
C275 C276 1.398 . S
C275 C281 1.491 1_455 S
C276 H267 0.950 . S
C276 C275 1.398 . S
C276 C277 1.391 . S
C277 H265 0.950 . S
C277 C273 1.393 . S
C277 C276 1.391 . S
C278 H268 0.950 . S
C278 C279 1.386 . S
C278 C280 1.391 . S
C279 C278 1.386 . S
C279 C283 1.393 . S
C280 H269 0.950 . S
C280 C278 1.391 . S
C280 C281 1.400 . S
C281 C275 1.491 1_655 S
C281 C280 1.400 . S
C281 C282 1.398 . S
C282 H270 0.950 . S
C282 C281 1.398 . S
C282 C283 1.391 . S
C283 H271 0.950 . S
C283 C279 1.393 . S
C283 C282 1.391 . S
H284 C292 0.950 . S
H285 C297 0.950 . S
H286 C294 0.950 . S
H287 C296 0.950 . S
H288 C298 0.950 . S
H289 C300 0.950 . S
H290 C302 0.950 . S
H291 C303 0.950 . S
C292 H284 0.950 . S
C292 C293 1.386 . S
C292 C294 1.391 . S
C293 C292 1.386 . S
C293 C297 1.393 . S
C294 H286 0.950 . S
C294 C292 1.391 . S
C294 C295 1.400 . S
C295 C294 1.400 . S
C295 C296 1.398 . S
C295 C301 1.491 . S
C296 H287 0.950 . S
C296 C295 1.398 . S
C296 C297 1.391 . S
C297 H285 0.950 . S
C297 C293 1.393 . S
C297 C296 1.391 . S
C298 H288 0.950 . S
C298 C299 1.386 . S
C298 C300 1.391 . S
C299 C298 1.386 . S
C299 C303 1.393 . S
C300 H289 0.950 . S
C300 C298 1.391 . S
C300 C301 1.400 . S
C301 C295 1.491 . S
C301 C300 1.400 . S
C301 C302 1.398 . S
C302 H290 0.950 . S
C302 C301 1.398 . S
C302 C303 1.391 . S
C303 H291 0.950 . S
C303 C299 1.393 . S
C303 C302 1.391 . S
H304 C312 0.950 . S
H305 C317 0.950 . S
H306 C314 0.950 . S
H307 C316 0.950 . S
H308 C318 0.950 . S
H309 C320 0.950 . S
H310 C322 0.950 . S
H311 C323 0.950 . S
C312 H304 0.950 . S
C312 C313 1.386 . S
C312 C314 1.391 . S
C313 C312 1.386 . S
C313 C317 1.393 . S
C314 H306 0.950 . S
C314 C312 1.391 . S
C314 C315 1.400 . S
C315 C314 1.400 . S
C315 C316 1.398 . S
C315 C321 1.491 1_455 S
C316 H307 0.950 . S
C316 C315 1.398 . S
C316 C317 1.391 . S
C317 H305 0.950 . S
C317 C313 1.393 . S
C317 C316 1.391 . S
C318 H308 0.950 . S
C318 C319 1.386 . S
C318 C320 1.391 . S
C319 C318 1.386 . S
C319 C323 1.393 . S
C320 H309 0.950 . S
C320 C318 1.391 . S
C320 C321 1.400 . S
C321 C315 1.491 1_655 S
C321 C320 1.400 . S
C321 C322 1.398 . S
C322 H310 0.950 . S
C322 C321 1.398 . S
C322 C323 1.391 . S
C323 H311 0.950 . S
C323 C319 1.393 . S
C323 C322 1.391 . S
H324 C332 0.950 . S
H325 C337 0.950 . S
H326 C334 0.950 . S
H327 C336 0.950 . S
H328 C338 0.950 . S
H329 C340 0.950 . S
H330 C342 0.950 . S
H331 C343 0.950 . S
C332 H324 0.950 . S
C332 C333 1.386 . S
C332 C334 1.391 . S
C333 C332 1.386 . S
C333 C337 1.393 . S
C334 H326 0.950 . S
C334 C332 1.391 . S
C334 C335 1.400 . S
C335 C334 1.400 . S
C335 C336 1.398 . S
C335 C341 1.491 . S
C336 H327 0.950 . S
C336 C335 1.398 . S
C336 C337 1.391 . S
C337 H325 0.950 . S
C337 C333 1.393 . S
C337 C336 1.391 . S
C338 H328 0.950 . S
C338 C339 1.386 . S
C338 C340 1.391 . S
C339 C338 1.386 . S
C339 C343 1.393 . S
C340 H329 0.950 . S
C340 C338 1.391 . S
C340 C341 1.400 . S
C341 C335 1.491 . S
C341 C340 1.400 . S
C341 C342 1.398 . S
C342 H330 0.950 . S
C342 C341 1.398 . S
C342 C343 1.391 . S
C343 H331 0.950 . S
C343 C339 1.393 . S
C343 C342 1.391 . S
H344 C352 0.950 . S
H345 C357 0.950 . S
H346 C354 0.950 . S
H347 C356 0.950 1_655 S
H348 C358 0.950 . S
H349 C360 0.950 . S
H350 C362 0.950 1_455 S
H351 C363 0.950 . S
C352 H344 0.950 . S
C352 C353 1.386 1_556 S
C352 C354 1.391 . S
C353 C352 1.386 1_554 S
C353 C357 1.393 . S
C354 H346 0.950 . S
C354 C352 1.391 . S
C354 C355 1.400 1_556 S
C355 C354 1.400 1_554 S
C355 C356 1.398 . S
C355 C361 1.491 1_444 S
C356 H347 0.950 1_455 S
C356 C355 1.398 . S
C356 C357 1.391 . S
C357 H345 0.950 . S
C357 C353 1.393 . S
C357 C356 1.391 . S
C358 H348 0.950 . S
C358 C359 1.386 1_554 S
C358 C360 1.391 . S
C359 C358 1.386 1_556 S
C359 C363 1.393 . S
C360 H349 0.950 . S
C360 C358 1.391 . S
C360 C361 1.400 1_554 S
C361 C355 1.491 1_666 S
C361 C360 1.400 1_556 S
C361 C362 1.398 . S
C362 H350 0.950 1_655 S
C362 C361 1.398 . S
C362 C363 1.391 . S
C363 H351 0.950 . S
C363 C359 1.393 . S
C363 C362 1.391 . S
H364 C372 0.950 . S
H365 C377 0.950 . S
H366 C374 0.950 . S
H367 C376 0.950 . S
H368 C378 0.950 . S
H369 C380 0.950 . S
H370 C382 0.950 . S
H371 C383 0.950 . S
C372 H364 0.950 . S
C372 C373 1.386 . S
C372 C374 1.391 . S
C373 C372 1.386 . S
C373 C377 1.393 . S
C374 H366 0.950 . S
C374 C372 1.391 . S
C374 C375 1.400 . S
C375 C374 1.400 . S
C375 C376 1.398 . S
C375 C381 1.491 . S
C376 H367 0.950 . S
C376 C375 1.398 . S
C376 C377 1.391 . S
C377 H365 0.950 . S
C377 C373 1.393 . S
C377 C376 1.391 . S
C378 H368 0.950 . S
C378 C379 1.386 . S
C378 C380 1.391 . S
C379 C378 1.386 . S
C379 C383 1.393 . S
C380 H369 0.950 . S
C380 C378 1.391 . S
C380 C381 1.400 . S
C381 C375 1.491 . S
C381 C380 1.400 . S
C381 C382 1.398 . S
C382 H370 0.950 . S
C382 C381 1.398 . S
C382 C383 1.391 . S
C383 H371 0.950 . S
C383 C379 1.393 . S
C383 C382 1.391 . S
H384 C392 0.950 . S
H385 C397 0.950 . S
H386 C394 0.950 . S
H387 C396 0.950 . S
H388 C398 0.950 . S
H389 C400 0.950 . S
H390 C402 0.950 . S
H391 C403 0.950 . S
C392 H384 0.950 . S
C392 C393 1.386 1_556 S
C392 C394 1.391 . S
C393 C392 1.386 1_554 S
C393 C397 1.393 . S
C394 H386 0.950 . S
C394 C392 1.391 . S
C394 C395 1.400 1_556 S
C395 C394 1.400 1_554 S
C395 C396 1.398 . S
C395 C401 1.491 1_554 S
C396 H387 0.950 . S
C396 C395 1.398 . S
C396 C397 1.391 . S
C397 H385 0.950 . S
C397 C393 1.393 . S
C397 C396 1.391 . S
C398 H388 0.950 . S
C398 C399 1.386 1_554 S
C398 C400 1.391 . S
C399 C398 1.386 1_556 S
C399 C403 1.393 . S
C400 H389 0.950 . S
C400 C398 1.391 . S
C400 C401 1.400 1_554 S
C401 C395 1.491 1_556 S
C401 C400 1.400 1_556 S
C401 C402 1.398 . S
C402 H390 0.950 . S
C402 C401 1.398 . S
C402 C403 1.391 . S
C403 H391 0.950 . S
C403 C399 1.393 . S
C403 C402 1.391 . S
H404 C412 0.950 . S
H405 C417 0.950 . S
H406 C414 0.950 1_655 S
H407 C416 0.950 . S
H408 C418 0.950 . S
H409 C420 0.950 1_455 S
H410 C422 0.950 . S
H411 C423 0.950 . S
C412 H404 0.950 . S
C412 C413 1.386 . S
C412 C414 1.391 . S
C413 C412 1.386 . S
C413 C417 1.393 . S
C414 H406 0.950 1_455 S
C414 C412 1.391 . S
C414 C415 1.400 . S
C415 C414 1.400 . S
C415 C416 1.398 . S
C415 C421 1.491 1_465 S
C416 H407 0.950 . S
C416 C415 1.398 . S
C416 C417 1.391 . S
C417 H405 0.950 . S
C417 C413 1.393 . S
C417 C416 1.391 . S
C418 H408 0.950 . S
C418 C419 1.386 . S
C418 C420 1.391 . S
C419 C418 1.386 . S
C419 C423 1.393 . S
C420 H409 0.950 1_655 S
C420 C418 1.391 . S
C420 C421 1.400 . S
C421 C415 1.491 1_645 S
C421 C420 1.400 . S
C421 C422 1.398 . S
C422 H410 0.950 . S
C422 C421 1.398 . S
C422 C423 1.391 . S
C423 H411 0.950 . S
C423 C419 1.393 . S
C423 C422 1.391 . S
C113 C23 2.097 . S
C119 C3 2.106 1_556 S
C133 C10 2.100 . S
C139 C16 2.107 . S
C153 C49 2.100 . S
C159 C29 2.096 1_554 S
C173 C36 2.098 . S
C179 C42 2.096 . S
C193 C57 2.096 1_554 S
C199 C66 2.099 . S
C213 C70 2.104 . S
C219 C53 2.106 . S
C233 C83 2.099 1_556 S
C239 C92 2.095 . S
C253 C79 2.095 . S
C259 C96 2.098 . S
C273 C1 0.509 . S
C279 C40 0.535 . S
C293 C14 0.495 . S
C299 C27 0.507 . S
C313 C101 0.548 . S
C319 C62 0.552 . S
C333 C88 0.499 . S
C339 C75 0.497 . S
C353 C5 1.940 . S
C359 C55 1.940 . S
C373 C68 1.954 . S
C379 C18 1.954 . S
C393 C81 1.946 . S
C399 C31 1.946 . S
C413 C94 1.942 . S
C419 C44 1.942 . S
