# Generated by pormake.
# Topology xfw, (5)-cn, num edge types: 1
# Building blocks:
#     Node 0, Type 0, BuildingBlock: XOMCOT_clean_sbu_0, # of connection points: 5
#     Node 1, Type 0, BuildingBlock: XOMCOT_clean_sbu_0, # of connection points: 5
#     Node 2, Type 0, BuildingBlock: XOMCOT_clean_sbu_0, # of connection points: 5
#     Node 3, Type 0, BuildingBlock: XOMCOT_clean_sbu_0, # of connection points: 5
#     Node 4, Type 0, BuildingBlock: XOMCOT_clean_sbu_0, # of connection points: 5
#     Node 5, Type 0, BuildingBlock: XOMCOT_clean_sbu_0, # of connection points: 5
#     Node 6, Type 0, BuildingBlock: XOMCOT_clean_sbu_0, # of connection points: 5
#     Node 7, Type 0, BuildingBlock: XOMCOT_clean_sbu_0, # of connection points: 5
#     Edge 8, Type (0, 0), BuildingBlock: OJICUG_clean_linker_0, # of connection points: 2
#     Edge 9, Type (0, 0), BuildingBlock: OJICUG_clean_linker_0, # of connection points: 2
#     Edge 10, Type (0, 0), BuildingBlock: OJICUG_clean_linker_0, # of connection points: 2
#     Edge 11, Type (0, 0), BuildingBlock: OJICUG_clean_linker_0, # of connection points: 2
#     Edge 12, Type (0, 0), BuildingBlock: OJICUG_clean_linker_0, # of connection points: 2
#     Edge 13, Type (0, 0), BuildingBlock: OJICUG_clean_linker_0, # of connection points: 2
#     Edge 14, Type (0, 0), BuildingBlock: OJICUG_clean_linker_0, # of connection points: 2
#     Edge 15, Type (0, 0), BuildingBlock: OJICUG_clean_linker_0, # of connection points: 2
#     Edge 16, Type (0, 0), BuildingBlock: OJICUG_clean_linker_0, # of connection points: 2
#     Edge 17, Type (0, 0), BuildingBlock: OJICUG_clean_linker_0, # of connection points: 2
#     Edge 18, Type (0, 0), BuildingBlock: OJICUG_clean_linker_0, # of connection points: 2
#     Edge 19, Type (0, 0), BuildingBlock: OJICUG_clean_linker_0, # of connection points: 2
#     Edge 20, Type (0, 0), BuildingBlock: OJICUG_clean_linker_0, # of connection points: 2
#     Edge 21, Type (0, 0), BuildingBlock: OJICUG_clean_linker_0, # of connection points: 2
#     Edge 22, Type (0, 0), BuildingBlock: OJICUG_clean_linker_0, # of connection points: 2
#     Edge 23, Type (0, 0), BuildingBlock: OJICUG_clean_linker_0, # of connection points: 2
#     Edge 24, Type (0, 0), BuildingBlock: OJICUG_clean_linker_0, # of connection points: 2
#     Edge 25, Type (0, 0), BuildingBlock: OJICUG_clean_linker_0, # of connection points: 2
#     Edge 26, Type (0, 0), BuildingBlock: OJICUG_clean_linker_0, # of connection points: 2
#     Edge 27, Type (0, 0), BuildingBlock: OJICUG_clean_linker_0, # of connection points: 2
# Relax obj value: 0.363
# Max RMSD: 0.298
# Mean RMSD: 0.298
data_MOF--net-xfw--node1-XOMCOT_clean_sbu_0--edge1-OJICUG_clean_linker_0
_symmetry_space_group_name_H-M    P1
_symmetry_Int_Tables_number       1
_symmetry_cell_setting            triclinic
loop_
_symmetry_equiv_pos_as_xyz
'x, y, z'
_cell_length_a     23.028428
_cell_length_b     23.058131
_cell_length_c     43.487351
_cell_angle_alpha  89.940046
_cell_angle_beta   90.747757
_cell_angle_gamma 89.524616
loop_
_atom_site_label
_atom_site_type_symbol
_atom_site_fract_x
_atom_site_fract_y
_atom_site_fract_z
_atom_type_partial_charge
Co0 Co 0.17795 0.09818 0.62156 0.0
C1 C 0.17408 0.13028 0.68896 0.0
C2 C 0.23713 0.17824 0.66368 0.0
C3 C 0.23959 0.19552 0.69383 0.0
N4 N 0.19601 0.13742 0.66033 0.0
N5 N 0.2003 0.1653 0.70994 0.0
H6 H 0.14126 0.09889 0.69462 0.0
H7 H 0.26478 0.19376 0.64561 0.0
C8 C 0.19168 0.20267 0.57729 0.0
O9 O 0.22817 0.24255 0.56834 0.0
N10 N 0.15842 0.05967 0.58257 0.0
C11 C 0.10948 0.0716 0.56638 0.0
C12 C 0.10446 0.03492 0.54214 0.0
C13 C 0.18085 0.01202 0.56844 0.0
N14 N 0.14856 -0.00372 0.54339 0.0
C15 C 0.26973 0.03257 0.64798 0.0
C16 C 0.35003 0.04707 0.60197 0.0
C17 C 0.36601 0.01608 0.62863 0.0
C18 C 0.32501 0.00872 0.65167 0.0
C19 C 0.29414 0.07141 0.59943 0.0
N20 N 0.25504 0.064 0.62241 0.0
H21 H 0.23878 0.02689 0.66617 0.0
H22 H 0.2822 0.0958 0.57903 0.0
H23 H 0.07659 0.10262 0.57255 0.0
H24 H 0.21762 0.98742 0.57726 0.0
O25 O 0.1397 0.03701 0.64242 0.0
O26 O 0.09654 0.11813 0.62628 0.0
O27 O 0.20805 0.16838 0.59895 0.0
C28 C 0.09206 0.06641 0.63827 0.0
H29 H 0.2688 0.22773 0.70318 0.0
H30 H 0.06903 0.03597 0.52561 0.0
H31 H 0.38085 0.05361 0.58371 0.0
H32 H 0.33568 0.98476 0.67246 0.0
Co33 Co 0.0677 0.79485 0.41879 0.0
C34 C 0.1247 0.80623 0.35825 0.0
C35 C 0.18797 0.80016 0.39472 0.0
C36 C 0.21629 0.80799 0.36727 0.0
N37 N 0.13038 0.79848 0.38909 0.0
N38 N 0.17649 0.81183 0.3442 0.0
H39 H 0.08337 0.80861 0.34632 0.0
H40 H 0.20838 0.7975 0.41717 0.0
C41 C 0.15606 0.78257 0.47432 0.0
O42 O 0.19038 0.74359 0.4873 0.0
N43 N 0.00119 0.7902 0.44641 0.0
C44 C 0.94655 0.78854 0.4348 0.0
C45 C 0.9077 0.78968 0.45815 0.0
C46 C 0.99416 0.78785 0.47741 0.0
N47 N 0.93727 0.79073 0.485 0.0
C48 C 0.02557 0.7046 0.37839 0.0
C49 C 0.0272 0.61933 0.42321 0.0
C50 C 0.00178 0.60739 0.39464 0.0
C51 C 0.0021 0.65002 0.37171 0.0
C52 C 0.05066 0.6737 0.4288 0.0
N53 N 0.04936 0.71592 0.40669 0.0
H54 H 0.02158 0.73852 0.36142 0.0
H55 H 0.06604 0.68264 0.4518 0.0
H56 H 0.93515 0.78699 0.41064 0.0
H57 H 0.02924 0.7851 0.49412 0.0
O58 O 0.01755 0.83896 0.39068 0.0
O59 O 0.07668 0.87623 0.42569 0.0
O60 O 0.12441 0.76515 0.45152 0.0
C61 C 0.03681 0.88457 0.40497 0.0
H62 H 0.26276 0.81203 0.36482 0.0
H63 H 0.86087 0.79012 0.45552 0.0
H64 H 0.02711 0.58737 0.4415 0.0
H65 H 0.98197 0.64218 0.34947 0.0
Co66 Co 0.79629 0.89091 0.62707 0.0
C67 C 0.81207 0.86888 0.69472 0.0
C68 C 0.85054 0.80304 0.66651 0.0
C69 C 0.86295 0.79027 0.69676 0.0
N70 N 0.81849 0.85207 0.66513 0.0
N71 N 0.83908 0.83166 0.71464 0.0
H72 H 0.78954 0.90818 0.70139 0.0
H73 H 0.86514 0.77877 0.64677 0.0
C74 C 0.79813 0.77934 0.59009 0.0
O75 O 0.77652 0.7272 0.5867 0.0
N76 N 0.77376 0.92911 0.58858 0.0
C77 C 0.72324 0.92031 0.57331 0.0
C78 C 0.72066 0.95596 0.54795 0.0
C79 C 0.80077 0.9712 0.57242 0.0
N80 N 0.76939 0.98789 0.54734 0.0
C81 C 0.70102 0.96052 0.64547 0.0
C82 C 0.61858 0.87404 0.64485 0.0
C83 C 0.6006 0.93218 0.64629 0.0
C84 C 0.64262 0.97543 0.64803 0.0
C85 C 0.67793 0.86073 0.64324 0.0
N86 N 0.71791 0.90411 0.64167 0.0
H87 H 0.73216 -0.00494 0.64408 0.0
H88 H 0.69099 0.81583 0.64145 0.0
H89 H 0.69039 0.88976 0.58003 0.0
H90 H 0.84213 0.98978 0.57874 0.0
O91 O 0.8307 0.96134 0.64192 0.0
O92 O 0.87716 0.89218 0.6162 0.0
O93 O 0.77455 0.81312 0.6097 0.0
C94 C 0.87879 0.94169 0.63063 0.0
H95 H 0.88748 0.75295 0.70488 0.0
H96 H 0.68478 0.95935 0.5317 0.0
H97 H 0.58702 0.83949 0.64399 0.0
H98 H 0.63024 0.02082 0.64912 0.0
Co99 Co 0.87341 0.18509 0.43044 0.0
C100 C 0.8537 0.17621 0.36301 0.0
C101 C 0.78131 0.14451 0.38848 0.0
C102 C 0.77007 0.13649 0.3576 0.0
N103 N 0.83365 0.16941 0.39184 0.0
N104 N 0.81562 0.15629 0.34155 0.0
H105 H 0.89584 0.19405 0.35798 0.0
H106 H 0.75346 0.13238 0.40716 0.0
C107 C 0.76818 0.18653 0.47068 0.0
O108 O 0.72002 0.21275 0.4789 0.0
N109 N 0.91258 0.20196 0.46938 0.0
C110 C 0.89636 0.2448 0.4886 0.0
C111 C 0.93609 0.24867 0.51231 0.0
C112 C 0.96308 0.18103 0.4815 0.0
N113 N 0.97822 0.20878 0.50788 0.0
C114 C 0.94459 0.28043 0.41563 0.0
C115 C 0.85664 0.35812 0.40038 0.0
C116 C 0.91462 0.3763 0.39914 0.0
C117 C 0.95881 0.3364 0.40656 0.0
C118 C 0.84426 0.30115 0.40919 0.0
N119 N 0.88809 0.26367 0.41722 0.0
H120 H 0.97913 0.2506 0.422 0.0
H121 H 0.79958 0.28729 0.40965 0.0
H122 H 0.85921 0.2731 0.48505 0.0
H123 H 0.98904 0.14738 0.47098 0.0
O124 O 0.94233 0.14933 0.41446 0.0
O125 O 0.87273 0.10299 0.43921 0.0
O126 O 0.7976 0.20901 0.44904 0.0
C127 C 0.92132 0.10072 0.42423 0.0
H128 H 0.73102 0.11794 0.34777 0.0
H129 H 0.93551 0.28054 0.53057 0.0
H130 H 0.82132 0.3877 0.39468 0.0
H131 H 0.00404 0.34892 0.40644 0.0
Co132 Co 0.82542 0.10768 0.12014 0.0
C133 C 0.82047 0.12541 0.18859 0.0
C134 C 0.83218 0.20448 0.16354 0.0
C135 C 0.8341 0.2169 0.19438 0.0
N136 N 0.82302 0.14724 0.15967 0.0
N137 N 0.82695 0.16728 0.21022 0.0
H138 H 0.81674 0.07979 0.19382 0.0
H139 H 0.83918 0.23534 0.14529 0.0
C140 C 0.81842 0.21684 0.07906 0.0
O141 O 0.78569 0.2615 0.07124 0.0
N142 N 0.82975 0.06851 0.08041 0.0
C143 C 0.87359 0.07323 0.06025 0.0
C144 C 0.86538 0.03498 0.03651 0.0
C145 C 0.7972 0.02432 0.0693 0.0
N146 N 0.81743 0.00428 0.04223 0.0
C147 C 0.73023 0.04444 0.14448 0.0
C148 C 0.64642 0.08681 0.10411 0.0
C149 C 0.63133 0.04344 0.12508 0.0
C150 C 0.67402 0.02262 0.14564 0.0
C151 C 0.70325 0.107 0.10348 0.0
N152 N 0.74447 0.08592 0.12355 0.0
H153 H 0.7628 0.02613 0.15971 0.0
H154 H 0.71408 0.13756 0.08573 0.0
H155 H 0.91192 0.09901 0.0636 0.0
H156 H 0.76137 0.00504 0.08135 0.0
O157 O 0.86022 0.04012 0.13877 0.0
O158 O 0.90909 0.11523 0.12102 0.0
O159 O 0.80033 0.18305 0.10008 0.0
C160 C 0.90993 0.06388 0.13362 0.0
H161 H 0.8407 0.25936 0.20436 0.0
H162 H 0.89506 0.02678 1.01786 0.0
H163 H 0.61484 0.10454 0.08792 0.0
H164 H 0.66479 0.98829 0.16182 0.0
Co165 Co 0.12226 0.1877 0.93034 0.0
C166 C 0.14093 0.18261 0.86163 0.0
C167 C 0.21143 0.14743 0.88881 0.0
C168 C 0.22557 0.14282 0.85844 0.0
N169 N 0.15877 0.17268 0.89108 0.0
N170 N 0.18161 0.16491 0.84122 0.0
H171 H 0.10011 0.20329 0.85535 0.0
H172 H 0.23825 0.13353 0.908 0.0
C173 C 0.23248 0.18836 0.96945 0.0
O174 O 0.28081 0.21509 0.97681 0.0
N175 N 0.08789 0.20334 0.97016 0.0
C176 C 0.10791 0.24279 0.99051 0.0
C177 C 0.07093 0.24585 1.01496 0.0
C178 C 0.0379 0.18391 0.98233 0.0
N179 N 0.02683 0.20904 1.00975 0.0
C180 C 0.04589 0.2807 0.91783 0.0
C181 C 0.12666 0.36798 0.91274 0.0
C182 C 0.06728 0.38252 0.91395 0.0
C183 C 0.02692 0.33775 0.91536 0.0
C184 C 0.14411 0.30947 0.9152 0.0
N185 N 0.10365 0.26705 0.91875 0.0
H186 H 0.0136 0.24771 0.92097 0.0
H187 H 0.18987 0.29874 0.91545 0.0
H188 H 0.14555 0.26969 0.98728 0.0
H189 H 0.00914 0.1535 0.97114 0.0
O190 O 0.0515 0.15241 0.91553 0.0
O191 O 0.12384 0.10553 0.93878 0.0
O192 O 0.2006 0.21009 0.94785 0.0
C193 C 0.0726 0.10393 0.92594 0.0
H194 H 0.26546 0.12455 0.84958 0.0
H195 H 0.0744 0.27544 0.03419 0.0
H196 H 0.15921 0.40149 0.91141 0.0
H197 H 0.98069 0.34688 0.91574 0.0
Co198 Co 0.20422 0.88785 0.12336 0.0
C199 C 0.1943 0.86376 0.19187 0.0
C200 C 0.25965 0.81289 0.16947 0.0
C201 C 0.26078 0.79944 0.20017 0.0
N202 N 0.21799 0.85309 0.16392 0.0
N203 N 0.22005 0.83146 0.21451 0.0
H204 H 0.16028 0.89541 0.19579 0.0
H205 H 0.28859 0.79523 0.15242 0.0
C206 C 0.20933 0.77158 0.08633 0.0
O207 O 0.24406 0.7276 0.08052 0.0
N208 N 0.19103 0.92324 0.0828 0.0
C209 C 0.14612 0.91261 0.0634 0.0
C210 C 0.14694 0.95102 0.03926 0.0
C211 C 0.21657 0.97094 0.07082 0.0
N212 N 0.19104 0.98777 0.044 0.0
C213 C 0.30268 0.948 0.14587 0.0
C214 C 0.3787 0.91318 0.10061 0.0
C215 C 0.39846 0.95059 0.1239 0.0
C216 C 0.35953 0.96796 0.14671 0.0
C217 C 0.32121 0.8945 0.10051 0.0
N218 N 0.28424 0.91196 0.12301 0.0
H219 H 0.27311 0.9616 0.16361 0.0
H220 H 0.30616 0.86695 0.08203 0.0
H221 H 0.11145 0.88307 0.06772 0.0
H222 H 0.25154 0.99429 0.08196 0.0
O223 O 0.1713 0.95651 0.14106 0.0
O224 O 0.12141 0.87833 0.1276 0.0
O225 O 0.22767 0.81054 0.1049 0.0
C226 C 0.12135 0.9315 0.13785 0.0
H227 H 0.28968 0.76813 0.21104 0.0
H228 H 0.11507 0.95443 1.0208 0.0
H229 H 0.40733 0.89831 0.08266 0.0
H230 H 0.37243 -0.00242 0.1648 0.0
Co231 Co 0.89932 0.80715 0.9361 0.0
C232 C 0.87995 0.81141 0.86756 0.0
C233 C 0.80113 0.81656 0.89318 0.0
C234 C 0.78759 0.82359 0.86261 0.0
N235 N 0.85891 0.8086 0.89651 0.0
N236 N 0.83697 0.82092 0.84635 0.0
H237 H 0.9257 0.80904 0.86229 0.0
H238 H 0.77056 0.81944 0.91173 0.0
C239 C 0.78883 0.7936 0.97567 0.0
O240 O 0.74771 0.75723 0.98307 0.0
N241 N 0.93799 0.80815 0.97657 0.0
C242 C 0.92884 0.84968 0.99792 0.0
C243 C 0.96523 0.84116 1.02263 0.0
C244 C 0.98215 0.77568 0.98863 0.0
N245 N -0.00107 0.79487 1.01679 0.0
C246 C 0.98282 0.72014 0.91948 0.0
C247 C 0.91294 0.62461 0.92636 0.0
C248 C 0.97182 0.61595 0.91946 0.0
C249 C 0.00643 0.66483 0.91535 0.0
C250 C 0.89097 0.68085 0.93042 0.0
N251 N 0.92641 0.72791 0.92823 0.0
H252 H 0.01152 0.75649 0.91718 0.0
H253 H 0.84546 0.68568 0.93533 0.0
H254 H 0.90101 0.88697 0.99503 0.0
H255 H 0.00339 0.74026 0.97702 0.0
O256 O 0.96434 0.84659 0.91901 0.0
O257 O 0.88818 0.89086 0.93881 0.0
O258 O 0.82601 0.77712 0.95575 0.0
C259 C 0.9394 0.89464 0.92669 0.0
H260 H 0.74441 0.83069 0.85317 0.0
H261 H 0.97008 0.8698 0.04221 0.0
H262 H 0.88394 0.58818 0.92871 0.0
H263 H 0.05212 0.6606 0.91015 0.0
C264 C 0.20437 0.91182 0.52265 0.0
C265 C 0.15316 0.94524 0.5241 0.0
H266 H 0.2456 0.83521 0.50498 0.0
C267 C 0.10486 0.92709 0.50658 0.0
H268 H 0.24275 0.92437 0.53553 0.0
C269 C 0.1069 0.877 0.48898 0.0
C270 C 0.15669 0.84223 0.48791 0.0
H271 H 0.06375 0.94983 0.50715 0.0
H272 H 0.06774 0.86523 0.47763 0.0
C273 C 0.206 0.8609 0.50482 0.0
C274 C 0.82504 0.82952 0.54244 0.0
C275 C 0.84282 0.79742 0.56821 0.0
H276 H 0.84278 0.85547 0.49658 0.0
C277 C 0.89685 0.76835 0.56758 0.0
H278 H 0.78194 0.84779 0.54092 0.0
C279 C 0.93094 0.76937 0.54095 0.0
C280 C 0.91083 0.79894 0.51458 0.0
H281 H 0.91053 0.74133 0.58678 0.0
H282 H 0.97042 0.74363 0.54019 0.0
C283 C 0.85921 0.83164 0.51636 0.0
C284 C 0.76028 0.03105 0.49541 0.0
C285 C 0.78114 0.03417 0.52591 0.0
H286 H 0.74133 0.07705 0.45357 0.0
C287 C 0.80744 0.08575 0.53591 0.0
H288 H 0.74025 0.99175 0.48696 0.0
C289 C 0.80826 0.13459 0.51665 0.0
C290 C 0.78441 0.13226 0.48676 0.0
H291 H 0.82328 0.08975 0.55935 0.0
H292 H 0.82385 0.17523 0.52591 0.0
C293 C 0.76167 0.07962 0.4761 0.0
C294 C 0.13533 0.18477 0.52921 0.0
C295 C 0.13585 0.19884 0.56065 0.0
H296 H 0.08447 0.17516 0.48795 0.0
C297 C 0.08399 0.2162 0.57456 0.0
H298 H 0.1753 0.17291 0.51785 0.0
C299 C 0.03199 0.21771 0.55743 0.0
C300 C 0.03105 0.20274 0.52598 0.0
H301 H 0.08379 0.22903 0.59851 0.0
H302 H 0.99251 0.23096 0.56879 0.0
C303 C 0.08333 0.18575 0.51217 0.0
C304 C 0.7882 0.90225 0.97722 0.0
C305 C 0.7918 0.84877 0.99252 0.0
H306 H 0.79522 -0.00518 0.98154 0.0
C307 C 0.79452 0.84783 1.02483 0.0
H308 H 0.78216 0.90399 0.95251 0.0
C309 C 0.79918 0.89948 0.04144 0.0
C310 C 0.80103 0.95275 0.02596 0.0
H311 H 0.79535 0.80695 0.03715 0.0
H312 H 0.8046 0.89771 0.0662 0.0
C313 C 0.79434 0.95393 0.99379 0.0
C314 C 0.86988 0.19944 0.03035 0.0
C315 C 0.87244 0.20769 0.06231 0.0
H316 H 0.91746 0.19163 0.9886 0.0
C317 C 0.92643 0.21489 0.07696 0.0
H318 H 0.82836 0.19529 1.01858 0.0
C319 C 0.9774 0.21313 0.05981 0.0
C320 C 0.97502 0.20475 0.02775 0.0
H321 H 0.92905 0.2235 0.10142 0.0
H322 H 0.01866 0.21936 0.07151 0.0
C323 C 0.92077 0.197 1.01328 0.0
C324 C 0.22136 0.08085 0.97546 0.0
C325 C 0.21674 0.13689 0.98784 0.0
H326 H 0.21467 0.98922 0.98373 0.0
C327 C 0.20747 0.14286 1.0196 0.0
H328 H 0.23202 0.07464 0.95154 0.0
C329 C 0.20057 0.09387 0.03832 0.0
C330 C 0.2027 0.03806 0.02555 0.0
H331 H 0.20622 0.18553 0.03 0.0
H332 H 0.19262 0.09944 0.06263 0.0
C333 C 0.21263 0.03199 0.99394 0.0
C334 C 0.10411 0.77629 1.0194 0.0
C335 C 0.05048 0.7802 0.03415 0.0
H336 H 0.19668 0.77223 1.02481 0.0
C337 C 0.04903 0.77819 0.06649 0.0
H338 H 0.10627 0.77832 0.99456 0.0
C339 C 0.10066 0.77458 0.08382 0.0
C340 C 0.15432 0.77518 0.06897 0.0
H341 H 0.00795 0.78098 0.07825 0.0
H342 H 0.09874 0.77265 0.10866 0.0
C343 C 0.15561 0.77369 0.03668 0.0
C344 C 0.50709 0.93389 0.61654 0.0
C345 C 0.53879 0.94901 0.64313 0.0
H346 H 0.4275 0.94455 0.59072 0.0
C347 C 0.51322 0.98563 0.66494 0.0
H348 H 0.52646 0.90645 0.59918 0.0
C349 C 0.45687 0.00691 0.66023 0.0
C350 C 0.42557 0.99298 0.63331 0.0
H351 H 0.53715 -0.00171 0.68543 0.0
H352 H 0.43811 0.03532 0.67734 0.0
C353 C 0.45104 0.95618 0.61151 0.0
C354 C 0.92344 0.53874 0.40795 0.0
C355 C 0.97227 0.55148 0.39026 0.0
H356 H 0.86624 0.47307 0.4242 0.0
C357 C -0.00254 0.50785 0.3723 0.0
H358 H 0.90373 0.57192 0.42214 0.0
C359 C 0.97644 0.45114 0.37368 0.0
C360 C 0.92964 0.43754 0.39284 0.0
H361 H 0.03546 0.51684 0.35872 0.0
H362 H -0.0017 0.41741 0.36081 0.0
C363 C 0.90197 0.48233 0.40905 0.0
C364 C 0.54512 0.00323 0.15239 0.0
C365 C 0.57201 0.01878 0.1248 0.0
H366 H 0.4701 0.96815 0.17373 0.0
C367 C 0.54192 0.01023 0.09684 0.0
H368 H 0.56684 0.00958 0.17435 0.0
C369 C 0.48589 0.9877 0.09652 0.0
C370 C 0.45882 0.9726 0.12413 0.0
H371 H 0.56171 0.02066 0.07509 0.0
H372 H 0.46347 0.98307 0.07463 0.0
C373 C 0.48931 0.98014 0.15205 0.0
C374 C 0.0649 0.48628 0.89545 0.0
C375 C 0.04616 0.44343 0.91592 0.0
H376 H 0.05494 0.57407 0.8798 0.0
C377 C 0.00413 0.4581 0.93782 0.0
H378 H 0.09697 0.47606 0.87824 0.0
C379 C 0.9802 0.51379 0.93881 0.0
C380 C -0.00244 0.55652 0.9179 0.0
H381 H 0.98961 0.42627 0.95432 0.0
H382 H 0.94845 0.52348 0.95627 0.0
C383 C 0.04067 0.54228 0.89636 0.0
C384 C 0.98331 0.06626 0.63713 0.0
C385 C 0.03629 0.03633 0.64031 0.0
H386 H 0.89087 0.05898 0.63184 0.0
C387 C 0.03656 0.97529 0.64127 0.0
H388 H 0.98207 0.11318 0.63596 0.0
C389 C 0.98523 0.94463 0.63777 0.0
C390 C 0.93253 0.97439 0.63417 0.0
H391 H 0.07678 0.95083 0.64337 0.0
H392 H 0.98674 0.89764 0.63793 0.0
C393 C 0.93149 0.03535 0.63455 0.0
C394 C 0.94623 0.94322 0.4048 0.0
C395 C 0.00708 0.94082 0.40359 0.0
H396 H 0.87117 -0.00388 0.41362 0.0
C397 C 0.03923 0.99155 0.40807 0.0
H398 H 0.92072 0.90425 0.40214 0.0
C399 C 0.01104 0.04387 0.41428 0.0
C400 C 0.95046 0.04571 0.41714 0.0
H401 H 0.08628 0.99025 0.40784 0.0
H402 H 0.03676 0.08244 0.418 0.0
C403 C 0.91809 -0.0047 0.41197 0.0
C404 C 0.01362 0.93749 0.14249 0.0
C405 C 0.06741 0.96523 0.14129 0.0
H406 H 0.92129 0.94751 0.14165 0.0
C407 C 0.06917 0.02619 0.14009 0.0
H408 H 0.01116 0.89062 0.14331 0.0
C409 C 0.01788 0.05875 0.13847 0.0
C410 C 0.96409 0.0309 0.1387 0.0
H411 H 0.11017 0.04872 0.13887 0.0
H412 H 0.02035 0.10547 0.1363 0.0
C413 C 0.96233 0.97014 0.14155 0.0
C414 C 0.03321 0.94615 0.92609 0.0
C415 C 0.97215 0.9489 0.9254 0.0
H416 H 0.11284 0.99332 0.92735 0.0
C417 C 0.94416 0.00305 0.92464 0.0
H418 H 0.05592 0.90483 0.92713 0.0
C419 C 0.97703 0.05376 0.92406 0.0
C420 C 0.03811 0.05076 0.92516 0.0
H421 H 0.89719 0.00612 0.92435 0.0
H422 H 0.9547 0.0953 0.92346 0.0
C423 C 0.06588 -0.00336 0.92636 0.0
C424 C 0.14017 0.15337 0.75709 0.0
C425 C 0.19317 0.16734 0.74303 0.0
H426 H 0.09429 0.14298 0.79976 0.0
C427 C 0.2401 0.18376 0.76203 0.0
H428 H 0.10302 0.14097 0.74316 0.0
C429 C 0.23491 0.18523 0.79392 0.0
C430 C 0.1827 0.17034 0.80811 0.0
H431 H 0.28182 0.19406 0.75239 0.0
H432 H 0.27247 0.19713 0.80769 0.0
C433 C 0.13487 0.15525 0.78939 0.0
C434 C 0.25332 0.81348 0.26815 0.0
C435 C 0.20906 0.83065 0.24733 0.0
H436 H 0.27792 0.7931 0.31434 0.0
C437 C 0.154 0.844 0.25919 0.0
H438 H 0.29665 0.80392 0.26019 0.0
C439 C 0.14325 0.8385 0.29088 0.0
C440 C 0.18738 0.81971 0.31157 0.0
H441 H 0.11886 0.85728 0.24391 0.0
H442 H 0.10026 0.84893 0.29904 0.0
C443 C 0.24267 0.80791 0.29959 0.0
C444 C 0.79806 0.85976 0.79685 0.0
C445 C 0.84105 0.8282 0.81334 0.0
H446 H 0.7635 0.88552 0.75289 0.0
C447 C 0.88586 0.80165 0.79675 0.0
H448 H 0.76352 0.882 0.80879 0.0
C449 C 0.88613 0.8043 0.76451 0.0
C450 C 0.84163 0.83367 0.74796 0.0
H451 H 0.91968 0.77719 0.80859 0.0
H452 H 0.92103 0.78263 0.75257 0.0
C453 C 0.79834 0.86245 0.76467 0.0
C454 C 0.79141 0.11622 0.28997 0.0
C455 C 0.82143 0.15658 0.30846 0.0
H456 H 0.76984 0.08775 0.24427 0.0
C457 C 0.85577 0.19829 0.29395 0.0
H458 H 0.76525 0.0829 0.30034 0.0
C459 C 0.85858 0.20078 0.26186 0.0
C460 C 0.82733 0.16149 0.24334 0.0
H461 H 0.87928 0.23014 0.30735 0.0
H462 H 0.88508 0.23389 0.25153 0.0
C463 C 0.79451 0.11852 0.25781 0.0
loop_
_geom_bond_atom_site_label_1
_geom_bond_atom_site_label_2
_geom_bond_distance
_geom_bond_site_symmetry_2
_ccdc_geom_bond_type
Co0 N4 2.148 . S
Co0 N10 2.128 . S
Co0 N20 2.194 . S
Co0 O25 2.351 1_545 S
Co0 O26 2.155 . S
Co0 O27 2.096 . S
C1 N4 1.301 . S
C1 N5 1.328 . S
C1 H6 0.930 . S
C2 C3 1.333 . S
C2 N4 1.317 . S
C2 H7 0.930 . S
C3 C2 1.333 . S
C3 N5 1.350 . S
C3 H29 0.931 . S
N4 Co0 2.148 . S
N4 C1 1.301 . S
N4 C2 1.317 . S
N5 C1 1.328 . S
N5 C3 1.350 . S
H6 C1 0.930 . S
H7 C2 0.930 . S
C8 O9 1.224 . S
C8 O27 1.247 . S
O9 C8 1.224 . S
N10 Co0 2.128 . S
N10 C11 1.355 1_545 S
N10 C13 1.311 . S
C11 N10 1.355 1_565 S
C11 C12 1.363 . S
C11 H23 0.929 . S
C12 C11 1.363 . S
C12 N14 1.375 . S
C12 H30 0.931 . S
C13 N10 1.311 . S
C13 N14 1.347 1_545 S
C13 H24 0.929 . S
N14 C12 1.375 . S
N14 C13 1.347 1_565 S
C15 C18 1.365 1_545 S
C15 N20 1.328 . S
C15 H21 0.929 1_545 S
C16 C17 1.362 . S
C16 C19 1.378 . S
C16 H31 0.929 . S
C17 C16 1.362 . S
C17 C18 1.366 1_545 S
C18 C15 1.365 1_565 S
C18 C17 1.366 1_565 S
C18 H32 0.930 . S
C19 C16 1.378 . S
C19 N20 1.315 . S
C19 H22 0.930 . S
N20 Co0 2.194 . S
N20 C15 1.328 . S
N20 C19 1.315 . S
H21 C15 0.929 1_565 S
H22 C19 0.930 . S
H23 C11 0.929 . S
H24 C13 0.929 . S
O25 Co0 2.351 1_565 S
O25 C28 1.246 . S
O26 Co0 2.155 . S
O26 C28 1.231 1_545 S
O27 Co0 2.096 . S
O27 C8 1.247 . S
C28 O25 1.246 . S
C28 O26 1.231 1_565 S
H29 C3 0.931 . S
H30 C12 0.931 . S
H31 C16 0.929 . S
H32 C18 0.930 . S
Co33 N37 2.148 . S
Co33 N43 2.128 . S
Co33 N53 2.194 . S
Co33 O58 2.351 1_455 S
Co33 O59 2.155 . S
Co33 O60 2.096 . S
C34 N37 1.301 . S
C34 N38 1.328 . S
C34 H39 0.930 . S
C35 C36 1.333 . S
C35 N37 1.317 . S
C35 H40 0.930 . S
C36 C35 1.333 . S
C36 N38 1.350 . S
C36 H62 0.931 . S
N37 Co33 2.148 . S
N37 C34 1.301 . S
N37 C35 1.317 . S
N38 C34 1.328 . S
N38 C36 1.350 . S
H39 C34 0.930 . S
H40 C35 0.930 . S
C41 O42 1.224 . S
C41 O60 1.247 . S
O42 C41 1.224 . S
N43 Co33 2.128 . S
N43 C44 1.355 1_455 S
N43 C46 1.311 . S
C44 N43 1.355 1_655 S
C44 C45 1.363 . S
C44 H56 0.929 . S
C45 C44 1.363 . S
C45 N47 1.375 . S
C45 H63 0.931 . S
C46 N43 1.311 . S
C46 N47 1.347 1_455 S
C46 H57 0.929 . S
N47 C45 1.375 . S
N47 C46 1.347 1_655 S
C48 C51 1.365 1_455 S
C48 N53 1.328 . S
C48 H54 0.929 1_455 S
C49 C50 1.362 . S
C49 C52 1.378 . S
C49 H64 0.929 . S
C50 C49 1.362 . S
C50 C51 1.366 1_455 S
C51 C48 1.365 1_655 S
C51 C50 1.366 1_655 S
C51 H65 0.930 . S
C52 C49 1.378 . S
C52 N53 1.315 . S
C52 H55 0.930 . S
N53 Co33 2.194 . S
N53 C48 1.328 . S
N53 C52 1.315 . S
H54 C48 0.929 1_655 S
H55 C52 0.930 . S
H56 C44 0.929 . S
H57 C46 0.929 . S
O58 Co33 2.351 1_655 S
O58 C61 1.246 . S
O59 Co33 2.155 . S
O59 C61 1.231 1_455 S
O60 Co33 2.096 . S
O60 C41 1.247 . S
C61 O58 1.246 . S
C61 O59 1.231 1_655 S
H62 C36 0.931 . S
H63 C45 0.931 . S
H64 C49 0.929 . S
H65 C51 0.930 . S
Co66 N70 2.148 . S
Co66 N76 2.128 . S
Co66 N86 2.194 . S
Co66 O91 2.351 1_565 S
Co66 O92 2.155 . S
Co66 O93 2.096 . S
C67 N70 1.301 . S
C67 N71 1.328 . S
C67 H72 0.930 . S
C68 C69 1.333 . S
C68 N70 1.317 . S
C68 H73 0.930 . S
C69 C68 1.333 . S
C69 N71 1.350 . S
C69 H95 0.931 . S
N70 Co66 2.148 . S
N70 C67 1.301 . S
N70 C68 1.317 . S
N71 C67 1.328 . S
N71 C69 1.350 . S
H72 C67 0.930 . S
H73 C68 0.930 . S
C74 O75 1.224 . S
C74 O93 1.247 . S
O75 C74 1.224 . S
N76 Co66 2.128 . S
N76 C77 1.355 1_565 S
N76 C79 1.311 . S
C77 N76 1.355 1_545 S
C77 C78 1.363 . S
C77 H89 0.929 . S
C78 C77 1.363 . S
C78 N80 1.375 . S
C78 H96 0.931 . S
C79 N76 1.311 . S
C79 N80 1.347 1_565 S
C79 H90 0.929 . S
N80 C78 1.375 . S
N80 C79 1.347 1_545 S
C81 C84 1.365 1_565 S
C81 N86 1.328 . S
C81 H87 0.929 1_565 S
C82 C83 1.362 . S
C82 C85 1.378 . S
C82 H97 0.929 . S
C83 C82 1.362 . S
C83 C84 1.366 1_565 S
C84 C81 1.365 1_545 S
C84 C83 1.366 1_545 S
C84 H98 0.930 . S
C85 C82 1.378 . S
C85 N86 1.315 . S
C85 H88 0.930 . S
N86 Co66 2.194 . S
N86 C81 1.328 . S
N86 C85 1.315 . S
H87 C81 0.929 1_545 S
H88 C85 0.930 . S
H89 C77 0.929 . S
H90 C79 0.929 . S
O91 Co66 2.351 1_545 S
O91 C94 1.246 . S
O92 Co66 2.155 . S
O92 C94 1.231 1_565 S
O93 Co66 2.096 . S
O93 C74 1.247 . S
C94 O91 1.246 . S
C94 O92 1.231 1_545 S
H95 C69 0.931 . S
H96 C78 0.931 . S
H97 C82 0.929 . S
H98 C84 0.930 . S
Co99 N103 2.148 . S
Co99 N109 2.128 . S
Co99 N119 2.194 . S
Co99 O124 2.351 1_655 S
Co99 O125 2.155 . S
Co99 O126 2.096 . S
C100 N103 1.301 . S
C100 N104 1.328 . S
C100 H105 0.930 . S
C101 C102 1.333 . S
C101 N103 1.317 . S
C101 H106 0.930 . S
C102 C101 1.333 . S
C102 N104 1.350 . S
C102 H128 0.931 . S
N103 Co99 2.148 . S
N103 C100 1.301 . S
N103 C101 1.317 . S
N104 C100 1.328 . S
N104 C102 1.350 . S
H105 C100 0.930 . S
H106 C101 0.930 . S
C107 O108 1.224 . S
C107 O126 1.247 . S
O108 C107 1.224 . S
N109 Co99 2.128 . S
N109 C110 1.355 1_655 S
N109 C112 1.311 . S
C110 N109 1.355 1_455 S
C110 C111 1.363 . S
C110 H122 0.929 . S
C111 C110 1.363 . S
C111 N113 1.375 . S
C111 H129 0.931 . S
C112 N109 1.311 . S
C112 N113 1.347 1_655 S
C112 H123 0.929 . S
N113 C111 1.375 . S
N113 C112 1.347 1_455 S
C114 C117 1.365 1_655 S
C114 N119 1.328 . S
C114 H120 0.929 1_655 S
C115 C116 1.362 . S
C115 C118 1.378 . S
C115 H130 0.929 . S
C116 C115 1.362 . S
C116 C117 1.366 1_655 S
C117 C114 1.365 1_455 S
C117 C116 1.366 1_455 S
C117 H131 0.930 . S
C118 C115 1.378 . S
C118 N119 1.315 . S
C118 H121 0.930 . S
N119 Co99 2.194 . S
N119 C114 1.328 . S
N119 C118 1.315 . S
H120 C114 0.929 1_455 S
H121 C118 0.930 . S
H122 C110 0.929 . S
H123 C112 0.929 . S
O124 Co99 2.351 1_455 S
O124 C127 1.246 . S
O125 Co99 2.155 . S
O125 C127 1.231 1_655 S
O126 Co99 2.096 . S
O126 C107 1.247 . S
C127 O124 1.246 . S
C127 O125 1.231 1_455 S
H128 C102 0.931 . S
H129 C111 0.931 . S
H130 C115 0.929 . S
H131 C117 0.930 . S
Co132 N136 2.148 . S
Co132 N142 2.128 . S
Co132 N152 2.194 . S
Co132 O157 2.351 1_545 S
Co132 O158 2.155 . S
Co132 O159 2.096 . S
C133 N136 1.301 . S
C133 N137 1.328 . S
C133 H138 0.930 . S
C134 C135 1.333 . S
C134 N136 1.317 . S
C134 H139 0.930 . S
C135 C134 1.333 . S
C135 N137 1.350 . S
C135 H161 0.931 . S
N136 Co132 2.148 . S
N136 C133 1.301 . S
N136 C134 1.317 . S
N137 C133 1.328 . S
N137 C135 1.350 . S
H138 C133 0.930 . S
H139 C134 0.930 . S
C140 O141 1.224 . S
C140 O159 1.247 . S
O141 C140 1.224 . S
N142 Co132 2.128 . S
N142 C143 1.355 1_545 S
N142 C145 1.311 . S
C143 N142 1.355 1_565 S
C143 C144 1.363 . S
C143 H155 0.929 . S
C144 C143 1.363 . S
C144 N146 1.375 . S
C144 H162 0.931 . S
C145 N142 1.311 . S
C145 N146 1.347 1_545 S
C145 H156 0.929 . S
N146 C144 1.375 . S
N146 C145 1.347 1_565 S
C147 C150 1.365 1_545 S
C147 N152 1.328 . S
C147 H153 0.929 1_545 S
C148 C149 1.362 . S
C148 C151 1.378 . S
C148 H163 0.929 . S
C149 C148 1.362 . S
C149 C150 1.366 1_545 S
C150 C147 1.365 1_565 S
C150 C149 1.366 1_565 S
C150 H164 0.930 . S
C151 C148 1.378 . S
C151 N152 1.315 . S
C151 H154 0.930 . S
N152 Co132 2.194 . S
N152 C147 1.328 . S
N152 C151 1.315 . S
H153 C147 0.929 1_565 S
H154 C151 0.930 . S
H155 C143 0.929 . S
H156 C145 0.929 . S
O157 Co132 2.351 1_565 S
O157 C160 1.246 . S
O158 Co132 2.155 . S
O158 C160 1.231 1_545 S
O159 Co132 2.096 . S
O159 C140 1.247 . S
C160 O157 1.246 . S
C160 O158 1.231 1_565 S
H161 C135 0.931 . S
H162 C144 0.931 . S
H163 C148 0.929 . S
H164 C150 0.930 . S
Co165 N169 2.148 . S
Co165 N175 2.128 . S
Co165 N185 2.194 . S
Co165 O190 2.351 1_455 S
Co165 O191 2.155 . S
Co165 O192 2.096 . S
C166 N169 1.301 . S
C166 N170 1.328 . S
C166 H171 0.930 . S
C167 C168 1.333 . S
C167 N169 1.317 . S
C167 H172 0.930 . S
C168 C167 1.333 . S
C168 N170 1.350 . S
C168 H194 0.931 . S
N169 Co165 2.148 . S
N169 C166 1.301 . S
N169 C167 1.317 . S
N170 C166 1.328 . S
N170 C168 1.350 . S
H171 C166 0.930 . S
H172 C167 0.930 . S
C173 O174 1.224 . S
C173 O192 1.247 . S
O174 C173 1.224 . S
N175 Co165 2.128 . S
N175 C176 1.355 1_455 S
N175 C178 1.311 . S
C176 N175 1.355 1_655 S
C176 C177 1.363 . S
C176 H188 0.929 . S
C177 C176 1.363 . S
C177 N179 1.375 . S
C177 H195 0.931 . S
C178 N175 1.311 . S
C178 N179 1.347 1_455 S
C178 H189 0.929 . S
N179 C177 1.375 . S
N179 C178 1.347 1_655 S
C180 C183 1.365 1_455 S
C180 N185 1.328 . S
C180 H186 0.929 1_455 S
C181 C182 1.362 . S
C181 C184 1.378 . S
C181 H196 0.929 . S
C182 C181 1.362 . S
C182 C183 1.366 1_455 S
C183 C180 1.365 1_655 S
C183 C182 1.366 1_655 S
C183 H197 0.930 . S
C184 C181 1.378 . S
C184 N185 1.315 . S
C184 H187 0.930 . S
N185 Co165 2.194 . S
N185 C180 1.328 . S
N185 C184 1.315 . S
H186 C180 0.929 1_655 S
H187 C184 0.930 . S
H188 C176 0.929 . S
H189 C178 0.929 . S
O190 Co165 2.351 1_655 S
O190 C193 1.246 . S
O191 Co165 2.155 . S
O191 C193 1.231 1_455 S
O192 Co165 2.096 . S
O192 C173 1.247 . S
C193 O190 1.246 . S
C193 O191 1.231 1_655 S
H194 C168 0.931 . S
H195 C177 0.931 . S
H196 C181 0.929 . S
H197 C183 0.930 . S
Co198 N202 2.148 . S
Co198 N208 2.128 . S
Co198 N218 2.194 . S
Co198 O223 2.351 1_565 S
Co198 O224 2.155 . S
Co198 O225 2.096 . S
C199 N202 1.301 . S
C199 N203 1.328 . S
C199 H204 0.930 . S
C200 C201 1.333 . S
C200 N202 1.317 . S
C200 H205 0.930 . S
C201 C200 1.333 . S
C201 N203 1.350 . S
C201 H227 0.931 . S
N202 Co198 2.148 . S
N202 C199 1.301 . S
N202 C200 1.317 . S
N203 C199 1.328 . S
N203 C201 1.350 . S
H204 C199 0.930 . S
H205 C200 0.930 . S
C206 O207 1.224 . S
C206 O225 1.247 . S
O207 C206 1.224 . S
N208 Co198 2.128 . S
N208 C209 1.355 1_565 S
N208 C211 1.311 . S
C209 N208 1.355 1_545 S
C209 C210 1.363 . S
C209 H221 0.929 . S
C210 C209 1.363 . S
C210 N212 1.375 . S
C210 H228 0.931 . S
C211 N208 1.311 . S
C211 N212 1.347 1_565 S
C211 H222 0.929 . S
N212 C210 1.375 . S
N212 C211 1.347 1_545 S
C213 C216 1.365 1_565 S
C213 N218 1.328 . S
C213 H219 0.929 1_565 S
C214 C215 1.362 . S
C214 C217 1.378 . S
C214 H229 0.929 . S
C215 C214 1.362 . S
C215 C216 1.366 1_565 S
C216 C213 1.365 1_545 S
C216 C215 1.366 1_545 S
C216 H230 0.930 . S
C217 C214 1.378 . S
C217 N218 1.315 . S
C217 H220 0.930 . S
N218 Co198 2.194 . S
N218 C213 1.328 . S
N218 C217 1.315 . S
H219 C213 0.929 1_545 S
H220 C217 0.930 . S
H221 C209 0.929 . S
H222 C211 0.929 . S
O223 Co198 2.351 1_545 S
O223 C226 1.246 . S
O224 Co198 2.155 . S
O224 C226 1.231 1_565 S
O225 Co198 2.096 . S
O225 C206 1.247 . S
C226 O223 1.246 . S
C226 O224 1.231 1_545 S
H227 C201 0.931 . S
H228 C210 0.931 . S
H229 C214 0.929 . S
H230 C216 0.930 . S
Co231 N235 2.148 . S
Co231 N241 2.128 . S
Co231 N251 2.194 . S
Co231 O256 2.351 1_655 S
Co231 O257 2.155 . S
Co231 O258 2.096 . S
C232 N235 1.301 . S
C232 N236 1.328 . S
C232 H237 0.930 . S
C233 C234 1.333 . S
C233 N235 1.317 . S
C233 H238 0.930 . S
C234 C233 1.333 . S
C234 N236 1.350 . S
C234 H260 0.931 . S
N235 Co231 2.148 . S
N235 C232 1.301 . S
N235 C233 1.317 . S
N236 C232 1.328 . S
N236 C234 1.350 . S
H237 C232 0.930 . S
H238 C233 0.930 . S
C239 O240 1.224 . S
C239 O258 1.247 . S
O240 C239 1.224 . S
N241 Co231 2.128 . S
N241 C242 1.355 1_655 S
N241 C244 1.311 . S
C242 N241 1.355 1_455 S
C242 C243 1.363 . S
C242 H254 0.929 . S
C243 C242 1.363 . S
C243 N245 1.375 . S
C243 H261 0.931 . S
C244 N241 1.311 . S
C244 N245 1.347 1_655 S
C244 H255 0.929 . S
N245 C243 1.375 . S
N245 C244 1.347 1_455 S
C246 C249 1.365 1_655 S
C246 N251 1.328 . S
C246 H252 0.929 1_655 S
C247 C248 1.362 . S
C247 C250 1.378 . S
C247 H262 0.929 . S
C248 C247 1.362 . S
C248 C249 1.366 1_655 S
C249 C246 1.365 1_455 S
C249 C248 1.366 1_455 S
C249 H263 0.930 . S
C250 C247 1.378 . S
C250 N251 1.315 . S
C250 H253 0.930 . S
N251 Co231 2.194 . S
N251 C246 1.328 . S
N251 C250 1.315 . S
H252 C246 0.929 1_455 S
H253 C250 0.930 . S
H254 C242 0.929 . S
H255 C244 0.929 . S
O256 Co231 2.351 1_455 S
O256 C259 1.246 . S
O257 Co231 2.155 . S
O257 C259 1.231 1_655 S
O258 Co231 2.096 . S
O258 C239 1.247 . S
C259 O256 1.246 . S
C259 O257 1.231 1_455 S
H260 C234 0.931 . S
H261 C243 0.931 . S
H262 C247 0.929 . S
H263 C249 0.930 . S
C264 C265 1.387 . S
C264 H268 0.950 . S
C264 C273 1.390 . S
C265 C264 1.387 . S
C265 C267 1.387 . S
H266 C273 0.950 . S
C267 C265 1.387 . S
C267 C269 1.390 . S
C267 H271 0.950 . S
H268 C264 0.950 . S
C269 C267 1.390 . S
C269 C270 1.387 . S
C269 H272 0.950 . S
C270 C269 1.387 . S
C270 C273 1.387 . S
H271 C267 0.950 . S
H272 C269 0.950 . S
C273 C264 1.390 . S
C273 H266 0.950 . S
C273 C270 1.387 . S
C274 C275 1.387 . S
C274 H278 0.950 . S
C274 C283 1.390 . S
C275 C274 1.387 . S
C275 C277 1.387 . S
H276 C283 0.950 . S
C277 C275 1.387 . S
C277 C279 1.390 . S
C277 H281 0.950 . S
H278 C274 0.950 . S
C279 C277 1.390 . S
C279 C280 1.387 . S
C279 H282 0.950 . S
C280 C279 1.387 . S
C280 C283 1.387 . S
H281 C277 0.950 . S
H282 C279 0.950 . S
C283 C274 1.390 . S
C283 H276 0.950 . S
C283 C280 1.387 . S
C284 C285 1.387 . S
C284 H288 0.950 . S
C284 C293 1.390 . S
C285 C284 1.387 . S
C285 C287 1.387 . S
H286 C293 0.950 . S
C287 C285 1.387 . S
C287 C289 1.390 . S
C287 H291 0.950 . S
H288 C284 0.950 . S
C289 C287 1.390 . S
C289 C290 1.387 . S
C289 H292 0.950 . S
C290 C289 1.387 . S
C290 C293 1.387 . S
H291 C287 0.950 . S
H292 C289 0.950 . S
C293 C284 1.390 . S
C293 H286 0.950 . S
C293 C290 1.387 . S
C294 C295 1.387 . S
C294 H298 0.950 . S
C294 C303 1.390 . S
C295 C294 1.387 . S
C295 C297 1.387 . S
H296 C303 0.950 . S
C297 C295 1.387 . S
C297 C299 1.390 . S
C297 H301 0.950 . S
H298 C294 0.950 . S
C299 C297 1.390 . S
C299 C300 1.387 . S
C299 H302 0.950 . S
C300 C299 1.387 . S
C300 C303 1.387 . S
H301 C297 0.950 . S
H302 C299 0.950 . S
C303 C294 1.390 . S
C303 H296 0.950 . S
C303 C300 1.387 . S
C304 C305 1.387 . S
C304 H308 0.950 . S
C304 C313 1.390 . S
C305 C304 1.387 . S
C305 C307 1.387 . S
H306 C313 0.950 . S
C307 C305 1.387 . S
C307 C309 1.390 . S
C307 H311 0.950 . S
H308 C304 0.950 . S
C309 C307 1.390 . S
C309 C310 1.387 1_556 S
C309 H312 0.950 . S
C310 C309 1.387 1_554 S
C310 C313 1.387 1_554 S
H311 C307 0.950 . S
H312 C309 0.950 . S
C313 C304 1.390 . S
C313 H306 0.950 . S
C313 C310 1.387 1_556 S
C314 C315 1.387 . S
C314 H318 0.950 . S
C314 C323 1.390 . S
C315 C314 1.387 . S
C315 C317 1.387 . S
H316 C323 0.950 . S
C317 C315 1.387 . S
C317 C319 1.390 . S
C317 H321 0.950 . S
H318 C314 0.950 . S
C319 C317 1.390 . S
C319 C320 1.387 1_554 S
C319 H322 0.950 . S
C320 C319 1.387 1_556 S
C320 C323 1.387 1_556 S
H321 C317 0.950 . S
H322 C319 0.950 . S
C323 C314 1.390 . S
C323 H316 0.950 . S
C323 C320 1.387 1_554 S
C324 C325 1.387 . S
C324 H328 0.950 . S
C324 C333 1.390 . S
C325 C324 1.387 . S
C325 C327 1.387 . S
H326 C333 0.950 . S
C327 C325 1.387 . S
C327 C329 1.390 . S
C327 H331 0.950 . S
H328 C324 0.950 . S
C329 C327 1.390 . S
C329 C330 1.387 1_556 S
C329 H332 0.944 1_556 S
C330 C329 1.387 1_554 S
C330 C333 1.387 1_554 S
H331 C327 0.950 . S
H332 C329 0.944 1_554 S
C333 C324 1.390 . S
C333 H326 0.950 . S
C333 C330 1.387 1_556 S
C334 C335 1.387 1_554 S
C334 H338 0.950 . S
C334 C343 1.390 . S
C335 C334 1.387 1_556 S
C335 C337 1.387 1_556 S
H336 C343 0.950 . S
C337 C335 1.387 1_554 S
C337 C339 1.390 . S
C337 H341 0.950 . S
H338 C334 0.950 . S
C339 C337 1.390 . S
C339 C340 1.387 . S
C339 H342 0.950 . S
C340 C339 1.387 . S
C340 C343 1.387 . S
H341 C337 0.950 . S
H342 C339 0.950 . S
C343 C334 1.390 . S
C343 H336 0.950 . S
C343 C340 1.387 . S
C344 C345 1.387 . S
C344 H348 0.950 . S
C344 C353 1.390 1_565 S
C345 C344 1.387 . S
C345 C347 1.387 . S
H346 C353 0.950 . S
C347 C345 1.387 . S
C347 C349 1.390 1_565 S
C347 H351 0.950 . S
H348 C344 0.950 . S
C349 C347 1.390 1_545 S
C349 C350 1.387 . S
C349 H352 0.950 . S
C350 C349 1.387 . S
C350 C353 1.387 . S
H351 C347 0.950 . S
H352 C349 0.950 . S
C353 C344 1.390 1_545 S
C353 H346 0.950 . S
C353 C350 1.387 . S
C354 C355 1.387 . S
C354 H358 0.950 . S
C354 C363 1.390 1_455 S
C355 C354 1.387 . S
C355 C357 1.387 . S
H356 C363 0.950 . S
C357 C355 1.387 . S
C357 C359 1.390 1_455 S
C357 H361 0.950 . S
H358 C354 0.950 . S
C359 C357 1.390 1_655 S
C359 C360 1.387 . S
C359 H362 0.950 . S
C360 C359 1.387 . S
C360 C363 1.387 . S
H361 C357 0.950 . S
H362 C359 0.950 . S
C363 C354 1.390 1_655 S
C363 H356 0.950 . S
C363 C360 1.387 . S
C364 C365 1.387 . S
C364 H368 0.950 . S
C364 C373 1.390 1_545 S
C365 C364 1.387 . S
C365 C367 1.387 . S
H366 C373 0.950 . S
C367 C365 1.387 . S
C367 C369 1.390 1_545 S
C367 H371 0.950 . S
H368 C364 0.950 . S
C369 C367 1.390 1_565 S
C369 C370 1.387 . S
C369 H372 0.950 . S
C370 C369 1.387 . S
C370 C373 1.387 . S
H371 C367 0.950 . S
H372 C369 0.950 . S
C373 C364 1.390 1_565 S
C373 H366 0.950 . S
C373 C370 1.387 . S
C374 C375 1.387 . S
C374 H378 0.950 . S
C374 C383 1.390 1_455 S
C375 C374 1.387 . S
C375 C377 1.387 . S
H376 C383 0.950 . S
C377 C375 1.387 . S
C377 C379 1.390 1_455 S
C377 H381 0.950 . S
H378 C374 0.950 . S
C379 C377 1.390 1_655 S
C379 C380 1.387 . S
C379 H382 0.950 . S
C380 C379 1.387 . S
C380 C383 1.387 . S
H381 C377 0.950 . S
H382 C379 0.950 . S
C383 C374 1.390 1_655 S
C383 H376 0.950 . S
C383 C380 1.387 . S
C384 C385 1.387 . S
C384 H388 0.950 . S
C384 C393 1.390 1_465 S
C385 C384 1.387 . S
C385 C387 1.387 . S
H386 C393 0.950 . S
C387 C385 1.387 . S
C387 C389 1.390 1_465 S
C387 H391 0.950 . S
H388 C384 0.950 . S
C389 C387 1.390 1_645 S
C389 C390 1.387 . S
C389 H392 0.950 . S
C390 C389 1.387 . S
C390 C393 1.387 . S
H391 C387 0.950 . S
H392 C389 0.950 . S
C393 C384 1.390 1_645 S
C393 H386 0.950 . S
C393 C390 1.387 . S
C394 C395 1.387 . S
C394 H398 0.950 . S
C394 C403 1.390 1_665 S
C395 C394 1.387 . S
C395 C397 1.387 . S
H396 C403 0.950 . S
C397 C395 1.387 . S
C397 C399 1.390 1_665 S
C397 H401 0.950 . S
H398 C394 0.950 . S
C399 C397 1.390 1_445 S
C399 C400 1.387 . S
C399 H402 0.950 . S
C400 C399 1.387 . S
C400 C403 1.387 . S
H401 C397 0.950 . S
H402 C399 0.950 . S
C403 C394 1.390 1_445 S
C403 H396 0.950 . S
C403 C400 1.387 . S
C404 C405 1.387 . S
C404 H408 0.950 . S
C404 C413 1.390 1_445 S
C405 C404 1.387 . S
C405 C407 1.387 . S
H406 C413 0.950 . S
C407 C405 1.387 . S
C407 C409 1.390 1_445 S
C407 H411 0.950 . S
H408 C404 0.950 . S
C409 C407 1.390 1_665 S
C409 C410 1.387 . S
C409 H412 0.950 . S
C410 C409 1.387 . S
C410 C413 1.387 . S
H411 C407 0.950 . S
H412 C409 0.950 . S
C413 C404 1.390 1_665 S
C413 H406 0.950 . S
C413 C410 1.387 . S
C414 C415 1.387 . S
C414 H418 0.950 . S
C414 C423 1.390 1_465 S
C415 C414 1.387 . S
C415 C417 1.387 . S
H416 C423 0.950 . S
C417 C415 1.387 . S
C417 C419 1.390 1_465 S
C417 H421 0.950 . S
H418 C414 0.950 . S
C419 C417 1.390 1_645 S
C419 C420 1.387 . S
C419 H422 0.950 . S
C420 C419 1.387 . S
C420 C423 1.387 . S
H421 C417 0.950 . S
H422 C419 0.950 . S
C423 C414 1.390 1_645 S
C423 H416 0.950 . S
C423 C420 1.387 . S
C424 C425 1.387 . S
C424 H428 0.950 . S
C424 C433 1.390 . S
C425 C424 1.387 . S
C425 C427 1.387 . S
H426 C433 0.950 . S
C427 C425 1.387 . S
C427 C429 1.390 . S
C427 H431 0.950 . S
H428 C424 0.950 . S
C429 C427 1.390 . S
C429 C430 1.387 . S
C429 H432 0.950 . S
C430 C429 1.387 . S
C430 C433 1.387 . S
H431 C427 0.950 . S
H432 C429 0.950 . S
C433 C424 1.390 . S
C433 H426 0.950 . S
C433 C430 1.387 . S
C434 C435 1.387 . S
C434 H438 0.950 . S
C434 C443 1.390 . S
C435 C434 1.387 . S
C435 C437 1.387 . S
H436 C443 0.950 . S
C437 C435 1.387 . S
C437 C439 1.390 . S
C437 H441 0.950 . S
H438 C434 0.950 . S
C439 C437 1.390 . S
C439 C440 1.387 . S
C439 H442 0.950 . S
C440 C439 1.387 . S
C440 C443 1.387 . S
H441 C437 0.950 . S
H442 C439 0.950 . S
C443 C434 1.390 . S
C443 H436 0.950 . S
C443 C440 1.387 . S
C444 C445 1.387 . S
C444 H448 0.950 . S
C444 C453 1.390 . S
C445 C444 1.387 . S
C445 C447 1.387 . S
H446 C453 0.950 . S
C447 C445 1.387 . S
C447 C449 1.390 . S
C447 H451 0.950 . S
H448 C444 0.950 . S
C449 C447 1.390 . S
C449 C450 1.387 . S
C449 H452 0.950 . S
C450 C449 1.387 . S
C450 C453 1.387 . S
H451 C447 0.950 . S
H452 C449 0.950 . S
C453 C444 1.390 . S
C453 H446 0.950 . S
C453 C450 1.387 . S
C454 C455 1.387 . S
C454 H458 0.950 . S
C454 C463 1.390 . S
C455 C454 1.387 . S
C455 C457 1.387 . S
H456 C463 0.950 . S
C457 C455 1.387 . S
C457 C459 1.390 . S
C457 H461 0.950 . S
H458 C454 0.950 . S
C459 C457 1.390 . S
C459 C460 1.387 . S
C459 H462 0.950 . S
C460 C459 1.387 . S
C460 C463 1.387 . S
H461 C457 0.950 . S
H462 C459 0.950 . S
C463 C454 1.390 . S
C463 H456 0.950 . S
C463 C460 1.387 . S
C265 N14 1.205 . S
C270 C41 1.164 . S
C275 C74 1.165 . S
C280 N47 1.205 . S
C285 N80 1.205 . S
C290 C107 1.166 . S
C295 C8 1.165 . S
C300 N113 1.205 . S
C305 C239 1.165 . S
C310 N146 1.205 . S
C315 C140 1.163 . S
C320 N179 1.200 . S
C325 C173 1.165 . S
C330 N212 1.205 . S
C335 N245 1.205 . S
C340 C206 1.165 . S
C345 C83 1.389 . S
C350 C17 1.389 . S
C355 C50 1.388 . S
C360 C116 1.388 . S
C365 C149 1.389 . S
C370 C215 1.389 . S
C375 C182 1.388 . S
C380 C248 1.388 . S
C385 C28 0.999 . S
C390 C94 0.999 . S
C395 C61 1.005 . S
C400 C127 1.005 . S
C405 C226 0.999 . S
C410 C160 0.999 . S
C415 C259 1.005 . S
C420 C193 1.005 . S
C425 N5 1.811 . S
C430 N170 1.811 . S
C435 N203 1.811 . S
C440 N38 1.811 . S
C445 N236 1.811 . S
C450 N71 1.811 . S
C455 N104 1.810 . S
C460 N137 1.811 . S
