# Generated by pormake.
# Topology thp-x, (12)-cn, num edge types: 1
# Building blocks:
#     Node 0, Type 0, BuildingBlock: ZALLEG_clean_sbu_0, # of connection points: 12
#     Node 1, Type 0, BuildingBlock: ZALLEG_clean_sbu_0, # of connection points: 12
#     Node 2, Type 0, BuildingBlock: ZALLEG_clean_sbu_0, # of connection points: 12
#     Node 3, Type 0, BuildingBlock: ZALLEG_clean_sbu_0, # of connection points: 12
#     Node 4, Type 0, BuildingBlock: ZALLEG_clean_sbu_0, # of connection points: 12
#     Node 5, Type 0, BuildingBlock: ZALLEG_clean_sbu_0, # of connection points: 12
#     Node 6, Type 0, BuildingBlock: ZALLEG_clean_sbu_0, # of connection points: 12
#     Node 7, Type 0, BuildingBlock: ZALLEG_clean_sbu_0, # of connection points: 12
#     Node 8, Type 0, BuildingBlock: ZALLEG_clean_sbu_0, # of connection points: 12
#     Node 9, Type 0, BuildingBlock: ZALLEG_clean_sbu_0, # of connection points: 12
#     Node 10, Type 0, BuildingBlock: ZALLEG_clean_sbu_0, # of connection points: 12
#     Node 11, Type 0, BuildingBlock: ZALLEG_clean_sbu_0, # of connection points: 12
#     Edge 12, Type (0, 0), BuildingBlock: UVAHIK_clean_linker_0, # of connection points: 2
#     Edge 13, Type (0, 0), BuildingBlock: UVAHIK_clean_linker_0, # of connection points: 2
#     Edge 14, Type (0, 0), BuildingBlock: UVAHIK_clean_linker_0, # of connection points: 2
#     Edge 15, Type (0, 0), BuildingBlock: UVAHIK_clean_linker_0, # of connection points: 2
#     Edge 16, Type (0, 0), BuildingBlock: UVAHIK_clean_linker_0, # of connection points: 2
#     Edge 17, Type (0, 0), BuildingBlock: UVAHIK_clean_linker_0, # of connection points: 2
#     Edge 18, Type (0, 0), BuildingBlock: UVAHIK_clean_linker_0, # of connection points: 2
#     Edge 19, Type (0, 0), BuildingBlock: UVAHIK_clean_linker_0, # of connection points: 2
#     Edge 20, Type (0, 0), BuildingBlock: UVAHIK_clean_linker_0, # of connection points: 2
#     Edge 21, Type (0, 0), BuildingBlock: UVAHIK_clean_linker_0, # of connection points: 2
#     Edge 22, Type (0, 0), BuildingBlock: UVAHIK_clean_linker_0, # of connection points: 2
#     Edge 23, Type (0, 0), BuildingBlock: UVAHIK_clean_linker_0, # of connection points: 2
#     Edge 24, Type (0, 0), BuildingBlock: UVAHIK_clean_linker_0, # of connection points: 2
#     Edge 25, Type (0, 0), BuildingBlock: UVAHIK_clean_linker_0, # of connection points: 2
#     Edge 26, Type (0, 0), BuildingBlock: UVAHIK_clean_linker_0, # of connection points: 2
#     Edge 27, Type (0, 0), BuildingBlock: UVAHIK_clean_linker_0, # of connection points: 2
#     Edge 28, Type (0, 0), BuildingBlock: UVAHIK_clean_linker_0, # of connection points: 2
#     Edge 29, Type (0, 0), BuildingBlock: UVAHIK_clean_linker_0, # of connection points: 2
#     Edge 30, Type (0, 0), BuildingBlock: UVAHIK_clean_linker_0, # of connection points: 2
#     Edge 31, Type (0, 0), BuildingBlock: UVAHIK_clean_linker_0, # of connection points: 2
#     Edge 32, Type (0, 0), BuildingBlock: UVAHIK_clean_linker_0, # of connection points: 2
#     Edge 33, Type (0, 0), BuildingBlock: UVAHIK_clean_linker_0, # of connection points: 2
#     Edge 34, Type (0, 0), BuildingBlock: UVAHIK_clean_linker_0, # of connection points: 2
#     Edge 35, Type (0, 0), BuildingBlock: UVAHIK_clean_linker_0, # of connection points: 2
#     Edge 36, Type (0, 0), BuildingBlock: UVAHIK_clean_linker_0, # of connection points: 2
#     Edge 37, Type (0, 0), BuildingBlock: UVAHIK_clean_linker_0, # of connection points: 2
#     Edge 38, Type (0, 0), BuildingBlock: UVAHIK_clean_linker_0, # of connection points: 2
#     Edge 39, Type (0, 0), BuildingBlock: UVAHIK_clean_linker_0, # of connection points: 2
#     Edge 40, Type (0, 0), BuildingBlock: UVAHIK_clean_linker_0, # of connection points: 2
#     Edge 41, Type (0, 0), BuildingBlock: UVAHIK_clean_linker_0, # of connection points: 2
#     Edge 42, Type (0, 0), BuildingBlock: UVAHIK_clean_linker_0, # of connection points: 2
#     Edge 43, Type (0, 0), BuildingBlock: UVAHIK_clean_linker_0, # of connection points: 2
#     Edge 44, Type (0, 0), BuildingBlock: UVAHIK_clean_linker_0, # of connection points: 2
#     Edge 45, Type (0, 0), BuildingBlock: UVAHIK_clean_linker_0, # of connection points: 2
#     Edge 46, Type (0, 0), BuildingBlock: UVAHIK_clean_linker_0, # of connection points: 2
#     Edge 47, Type (0, 0), BuildingBlock: UVAHIK_clean_linker_0, # of connection points: 2
#     Edge 48, Type (0, 0), BuildingBlock: UVAHIK_clean_linker_0, # of connection points: 2
#     Edge 49, Type (0, 0), BuildingBlock: UVAHIK_clean_linker_0, # of connection points: 2
#     Edge 50, Type (0, 0), BuildingBlock: UVAHIK_clean_linker_0, # of connection points: 2
#     Edge 51, Type (0, 0), BuildingBlock: UVAHIK_clean_linker_0, # of connection points: 2
#     Edge 52, Type (0, 0), BuildingBlock: UVAHIK_clean_linker_0, # of connection points: 2
#     Edge 53, Type (0, 0), BuildingBlock: UVAHIK_clean_linker_0, # of connection points: 2
#     Edge 54, Type (0, 0), BuildingBlock: UVAHIK_clean_linker_0, # of connection points: 2
#     Edge 55, Type (0, 0), BuildingBlock: UVAHIK_clean_linker_0, # of connection points: 2
#     Edge 56, Type (0, 0), BuildingBlock: UVAHIK_clean_linker_0, # of connection points: 2
#     Edge 57, Type (0, 0), BuildingBlock: UVAHIK_clean_linker_0, # of connection points: 2
#     Edge 58, Type (0, 0), BuildingBlock: UVAHIK_clean_linker_0, # of connection points: 2
#     Edge 59, Type (0, 0), BuildingBlock: UVAHIK_clean_linker_0, # of connection points: 2
#     Edge 60, Type (0, 0), BuildingBlock: UVAHIK_clean_linker_0, # of connection points: 2
#     Edge 61, Type (0, 0), BuildingBlock: UVAHIK_clean_linker_0, # of connection points: 2
#     Edge 62, Type (0, 0), BuildingBlock: UVAHIK_clean_linker_0, # of connection points: 2
#     Edge 63, Type (0, 0), BuildingBlock: UVAHIK_clean_linker_0, # of connection points: 2
#     Edge 64, Type (0, 0), BuildingBlock: UVAHIK_clean_linker_0, # of connection points: 2
#     Edge 65, Type (0, 0), BuildingBlock: UVAHIK_clean_linker_0, # of connection points: 2
#     Edge 66, Type (0, 0), BuildingBlock: UVAHIK_clean_linker_0, # of connection points: 2
#     Edge 67, Type (0, 0), BuildingBlock: UVAHIK_clean_linker_0, # of connection points: 2
#     Edge 68, Type (0, 0), BuildingBlock: UVAHIK_clean_linker_0, # of connection points: 2
#     Edge 69, Type (0, 0), BuildingBlock: UVAHIK_clean_linker_0, # of connection points: 2
#     Edge 70, Type (0, 0), BuildingBlock: UVAHIK_clean_linker_0, # of connection points: 2
#     Edge 71, Type (0, 0), BuildingBlock: UVAHIK_clean_linker_0, # of connection points: 2
#     Edge 72, Type (0, 0), BuildingBlock: UVAHIK_clean_linker_0, # of connection points: 2
#     Edge 73, Type (0, 0), BuildingBlock: UVAHIK_clean_linker_0, # of connection points: 2
#     Edge 74, Type (0, 0), BuildingBlock: UVAHIK_clean_linker_0, # of connection points: 2
#     Edge 75, Type (0, 0), BuildingBlock: UVAHIK_clean_linker_0, # of connection points: 2
#     Edge 76, Type (0, 0), BuildingBlock: UVAHIK_clean_linker_0, # of connection points: 2
#     Edge 77, Type (0, 0), BuildingBlock: UVAHIK_clean_linker_0, # of connection points: 2
#     Edge 78, Type (0, 0), BuildingBlock: UVAHIK_clean_linker_0, # of connection points: 2
#     Edge 79, Type (0, 0), BuildingBlock: UVAHIK_clean_linker_0, # of connection points: 2
#     Edge 80, Type (0, 0), BuildingBlock: UVAHIK_clean_linker_0, # of connection points: 2
#     Edge 81, Type (0, 0), BuildingBlock: UVAHIK_clean_linker_0, # of connection points: 2
#     Edge 82, Type (0, 0), BuildingBlock: UVAHIK_clean_linker_0, # of connection points: 2
#     Edge 83, Type (0, 0), BuildingBlock: UVAHIK_clean_linker_0, # of connection points: 2
# Relax obj value: 0.246
# Max RMSD: 0.289
# Mean RMSD: 0.289
data_MOF--net-thp-x--node1-ZALLEG_clean_sbu_0--edge1-UVAHIK_clean_linker_0
_symmetry_space_group_name_H-M    P1
_symmetry_Int_Tables_number       1
_symmetry_cell_setting            triclinic
loop_
_symmetry_equiv_pos_as_xyz
'x, y, z'
_cell_length_a     43.210723
_cell_length_b     43.231659
_cell_length_c     43.272687
_cell_angle_alpha  89.891292
_cell_angle_beta   89.949646
_cell_angle_gamma 89.881742
loop_
_atom_site_label
_atom_site_type_symbol
_atom_site_fract_x
_atom_site_fract_y
_atom_site_fract_z
_atom_type_partial_charge
H0 H 0.05967 0.22753 0.44321 0.0
O1 O 0.04909 0.24275 0.42977 0.0
Tb2 Tb 0.02677 0.27631 0.45788 0.0
Tb3 Tb 0.08045 0.26479 0.39922 0.0
Tb4 Tb 1.0159 0.22208 0.40055 0.0
O5 O 0.05951 0.29751 0.42831 0.0
O6 O 0.99417 0.25479 0.42853 0.0
O7 O 1.00422 0.30925 0.4292 0.0
O8 O 0.05987 0.29818 0.36999 0.0
O9 O 0.99355 0.25336 0.37016 0.0
O10 O 0.0483 0.24289 0.371 0.0
H11 H 0.07567 0.30812 0.44029 0.0
H12 H 0.97809 0.24466 0.44107 0.0
Tb13 Tb 0.03748 0.32976 0.40002 0.0
Tb14 Tb 0.9728 0.28676 0.39899 0.0
H15 H 0.99361 0.3247 0.44231 0.0
H16 H 0.07512 0.30878 0.35663 0.0
Tb17 Tb 0.02677 0.27593 0.34169 0.0
H18 H 0.97818 0.24241 0.3573 0.0
H19 H 0.05896 0.22672 0.35896 0.0
O20 O 1.00496 0.30881 0.37066 0.0
H21 H 0.99413 0.32463 0.35826 0.0
O22 O 0.07768 0.27086 0.4805 0.0
O23 O 0.98464 0.28446 0.31588 0.0
O24 O 0.06911 0.26638 0.3162 0.0
O25 O 0.97599 0.28288 0.48059 0.0
O26 O 0.09733 0.21715 0.40123 0.0
O27 O 0.95571 0.33427 0.39992 0.0
O28 O 0.93776 0.25031 0.40156 0.0
O29 O 0.11575 0.30066 0.39881 0.0
O30 O 1.00784 0.19687 0.44399 0.0
O31 O 0.04101 0.36097 0.36109 0.0
O32 O 0.04517 0.3558 0.44297 0.0
O33 O 1.01206 0.19083 0.36123 0.0
O34 O 0.11187 0.26159 0.43817 0.0
O35 O 0.94678 0.29205 0.35547 0.0
O36 O 0.94181 0.29126 0.4381 0.0
O37 O 0.10634 0.25758 0.35609 0.0
O38 O 0.03665 0.31862 0.48303 0.0
O39 O 1.02112 0.22549 0.3191 0.0
O40 O 0.0323 0.32681 0.31881 0.0
O41 O 1.01636 0.23431 0.48376 0.0
O42 O 0.08525 0.34635 0.3982 0.0
O43 O 0.96855 0.20492 0.40007 0.0
O44 O 0.05178 0.1867 0.40121 0.0
O45 O 1.00115 0.36498 0.39974 0.0
C46 C 0.10736 0.26587 0.46829 0.0
C47 C 0.95609 0.29108 0.32593 0.0
C48 C 0.09729 0.25855 0.32653 0.0
C49 C 0.94636 0.28793 0.46835 0.0
C50 C 0.08237 0.19013 0.40146 0.0
C51 C 0.97052 0.36136 0.39982 0.0
C52 C 0.94146 0.21965 0.40212 0.0
C53 C 0.1123 0.33126 0.3984 0.0
C54 C 1.00818 0.20628 0.47344 0.0
C55 C 0.03719 0.35648 0.33095 0.0
C56 C 0.04467 0.34666 0.47252 0.0
C57 C 1.01607 0.19583 0.33108 0.0
H58 H 0.55554 0.72883 0.94295 0.0
O59 O 0.54512 0.74404 0.92937 0.0
Tb60 Tb 0.52158 0.77714 0.95699 0.0
Tb61 Tb 0.577 0.76632 0.89933 0.0
Tb62 Tb 0.51269 0.72294 0.89992 0.0
O63 O 0.55478 0.79855 0.92805 0.0
O64 O 0.48963 0.75523 0.92721 0.0
O65 O 0.49946 0.81 0.92783 0.0
O66 O 0.55663 0.79924 0.86958 0.0
O67 O 0.49062 0.75383 0.86881 0.0
O68 O 0.5455 0.7438 0.87081 0.0
H69 H 0.57046 0.8091 0.9407 0.0
H70 H 0.47334 0.74467 0.93914 0.0
Tb71 Tb 0.53323 0.83061 0.89918 0.0
Tb72 Tb 0.46887 0.78719 0.89707 0.0
H73 H 0.48842 0.82537 0.94069 0.0
H74 H 0.57224 0.81001 0.85677 0.0
Tb75 Tb 0.5242 0.77617 0.84079 0.0
H76 H 0.47573 0.7429 0.85537 0.0
H77 H 0.55648 0.72772 0.85895 0.0
O78 O 0.50168 0.8091 0.8693 0.0
H79 H 0.4913 0.82501 0.85667 0.0
O80 O 0.57192 0.77127 0.98061 0.0
O81 O 0.48263 0.78527 0.81405 0.0
O82 O 0.56678 0.76682 0.81584 0.0
O83 O 0.47029 0.78274 0.9786 0.0
O84 O 0.59442 0.71894 0.90148 0.0
O85 O 0.45153 0.83466 0.89755 0.0
O86 O 0.43407 0.7506 0.89714 0.0
O87 O 0.61171 0.80294 0.90112 0.0
O88 O 0.50432 0.69759 0.94334 0.0
O89 O 0.53794 0.8616 0.8599 0.0
O90 O 0.53971 0.85659 0.94244 0.0
O91 O 0.51025 0.69134 0.86133 0.0
O92 O 0.60734 0.76254 0.93908 0.0
O93 O 0.44416 0.79373 0.85294 0.0
O94 O 0.43671 0.79102 0.93558 0.0
O95 O 0.60366 0.75926 0.85635 0.0
O96 O 0.53068 0.81946 0.98248 0.0
O97 O 0.51914 0.72498 0.81856 0.0
O98 O 0.53026 0.82677 0.81784 0.0
O99 O 0.51146 0.7353 0.98301 0.0
O100 O 0.58055 0.84807 0.89945 0.0
O101 O 0.46544 0.7055 0.89743 0.0
O102 O 0.54919 0.68798 0.90094 0.0
O103 O 0.49682 0.86557 0.89771 0.0
C104 C 0.60187 0.76628 0.96912 0.0
C105 C 0.45414 0.79281 0.82362 0.0
C106 C 0.5949 0.75964 0.82664 0.0
C107 C 0.4408 0.78741 0.9659 0.0
C108 C 0.57978 0.69176 0.90141 0.0
C109 C 0.46624 0.86181 0.89721 0.0
C110 C 0.43815 0.72004 0.89716 0.0
C111 C 0.60778 0.83353 0.90157 0.0
C112 C 0.50409 0.70706 0.97279 0.0
C113 C 0.53484 0.85655 0.82972 0.0
C114 C 0.53861 0.84752 0.97203 0.0
C115 C 0.51432 0.69542 0.83113 0.0
H116 H 0.98944 0.72968 0.19496 0.0
O117 O 1.00005 0.74494 0.18179 0.0
Tb118 Tb 0.02401 0.77656 0.21016 0.0
Tb119 Tb 0.02993 0.7216 0.15141 0.0
Tb120 Tb 0.96801 0.76845 0.15447 0.0
O121 O 0.05458 0.75195 0.18086 0.0
O122 O 0.99135 0.80064 0.1825 0.0
O123 O 0.04665 0.8085 0.18022 0.0
O124 O 0.05314 0.75213 0.12224 0.0
O125 O 0.98965 0.79941 0.12377 0.0
O126 O 0.99689 0.74394 0.12345 0.0
H127 H 0.06973 0.74058 0.1937 0.0
H128 H 0.97706 0.8121 0.19621 0.0
Tb129 Tb 0.07618 0.78378 0.15129 0.0
Tb130 Tb 1.01428 0.83062 0.15116 0.0
H131 H 0.05877 0.82417 0.1915 0.0
H132 H 0.0681 0.74046 0.10954 0.0
Tb133 Tb 1.02049 0.77534 0.09386 0.0
H134 H 0.97382 0.81075 0.11184 0.0
H135 H 0.98464 0.72906 0.1112 0.0
O136 O 0.04499 0.80691 0.12165 0.0
H137 H 0.05598 0.82082 0.10726 0.0
O138 O 0.0294 0.72545 0.23288 0.0
O139 O 1.0134 0.81775 0.06797 0.0
O140 O 0.02602 0.73278 0.06817 0.0
O141 O 1.02048 0.82738 0.23268 0.0
O142 O 0.99171 0.68882 0.15571 0.0
O143 O 0.05218 0.86357 0.14535 0.0
O144 O 0.9678 0.85016 0.15434 0.0
O145 O 0.07667 0.70214 0.15158 0.0
O146 O 0.94328 0.76267 0.1987 0.0
O147 O 0.10658 0.78546 0.11202 0.0
O148 O 0.10384 0.78915 0.19366 0.0
O149 O 0.93588 0.76562 0.11613 0.0
O150 O 0.03437 0.69063 0.19039 0.0
O151 O 1.00834 0.8562 0.10737 0.0
O152 O 1.01443 0.86231 0.19024 0.0
O153 O 0.03194 0.6949 0.10802 0.0
O154 O 0.06721 0.78335 0.23458 0.0
O155 O 0.96891 0.77141 0.07247 0.0
O156 O 0.07161 0.77944 0.07005 0.0
O157 O 0.98237 0.76881 0.23729 0.0
O158 O 0.10951 0.74601 0.15122 0.0
O159 O 0.93478 0.80643 0.15578 0.0
O160 O 0.94813 0.72217 0.15549 0.0
O161 O 0.0957 0.82999 0.1455 0.0
C162 C 0.03282 0.69553 0.22068 0.0
C163 C 1.00856 0.84667 0.07789 0.0
C164 C 0.03066 0.70396 0.0784 0.0
C165 C 1.01754 0.85727 0.22049 0.0
C166 C 0.96138 0.69431 0.15756 0.0
C167 C 0.08233 0.85772 0.14263 0.0
C168 C 0.93999 0.83678 0.15579 0.0
C169 C 0.10446 0.71567 0.15156 0.0
C170 C 0.95351 0.76268 0.22792 0.0
C171 C 0.10177 0.78282 0.08187 0.0
C172 C 0.09561 0.78861 0.22349 0.0
C173 C 0.93944 0.76829 0.08567 0.0
H174 H 0.43441 0.98319 0.31087 0.0
O175 O 0.42233 0.99546 0.29578 0.0
Tb176 Tb 0.39241 0.02689 0.31786 0.0
Tb177 Tb 0.4526 1.02046 0.26617 0.0
Tb178 Tb 0.39316 0.96654 0.26937 0.0
O179 O 0.42253 0.05154 0.2891 0.0
O180 O 0.36346 0.99656 0.29291 0.0
O181 O 0.36392 0.05224 0.2871 0.0
O182 O 0.42586 0.04603 0.23371 0.0
O183 O 0.36625 0.99051 0.23664 0.0
O184 O 0.42435 0.99014 0.24059 0.0
H185 H 0.43481 0.06641 0.30122 0.0
H186 H 0.34981 0.98469 0.30679 0.0
Tb187 Tb 0.3946 0.07555 0.25728 0.0
Tb188 Tb 0.33641 1.02147 0.26055 0.0
H189 H 0.35058 0.06685 0.2985 0.0
H190 H 0.4396 0.05787 0.21972 0.0
Tb191 Tb 0.39784 1.01514 0.2088 0.0
H192 H 0.35423 0.97629 0.22348 0.0
H193 H 0.43766 0.97503 0.22987 0.0
O194 O 0.3672 0.04568 0.23112 0.0
H195 H 0.3553 0.05739 0.21558 0.0
O196 O 0.43452 0.03007 0.34622 0.0
O197 O 0.35967 1.01284 0.17618 0.0
O198 O 0.4425 1.01023 0.18461 0.0
O199 O 0.35223 0.02986 0.34782 0.0
O200 O 0.47489 0.96917 0.27066 0.0
O201 O 0.31132 0.06445 0.25341 0.0
O202 O 0.31031 0.97873 0.26309 0.0
O203 O 0.47574 0.0712 0.26324 0.0
O204 O 0.39021 0.94511 0.31492 0.0
O205 O 0.3973 0.09691 0.21178 0.0
O206 O 0.39455 0.10716 0.29666 0.0
O207 O 0.39775 0.93486 0.23036 0.0
O208 O 0.47616 0.02614 0.31005 0.0
O209 O 0.31557 1.01827 0.20877 0.0
O210 O 0.3117 0.02497 0.3106 0.0
O211 O 0.48025 1.01363 0.22484 0.0
O212 O 0.39159 0.07255 0.33909 0.0
O213 O 0.39893 0.96933 0.18773 0.0
O214 O 0.39809 0.0546 0.17706 0.0
O215 O 0.38963 0.98757 0.34939 0.0
O216 O 0.43388 0.1067 0.2562 0.0
O217 O 0.34975 0.94026 0.2676 0.0
O218 O 0.43185 0.9349 0.27412 0.0
O219 O 0.35151 0.10228 0.25161 0.0
C220 C 0.46452 0.0302 0.33843 0.0
C221 C 0.32908 1.01532 0.17945 0.0
C222 C 0.47148 1.00908 0.19554 0.0
C223 C 0.3223 0.02779 0.34112 0.0
C224 C 0.46232 0.93937 0.2732 0.0
C225 C 0.3219 0.09333 0.24984 0.0
C226 C 0.32025 0.94944 0.26502 0.0
C227 C 0.46401 0.10125 0.25958 0.0
C228 C 0.38855 0.95742 0.34315 0.0
C229 C 0.39743 0.08478 0.18344 0.0
C230 C 0.39357 0.10084 0.32683 0.0
C231 C 0.4004 0.94109 0.20027 0.0
H232 H 0.32187 0.43831 0.99581 0.0
O233 O 0.30665 0.42585 1.00749 0.0
Tb234 Tb 0.27468 0.456 0.02944 0.0
Tb235 Tb 0.2833 0.39471 0.97788 0.0
Tb236 Tb 0.3277 0.39789 0.04146 0.0
O237 O 0.25203 0.4258 0.99833 0.0
O238 O 0.29647 0.42767 0.06295 0.0
O239 O 0.24178 0.42899 0.05373 0.0
O240 O 0.25007 0.36723 1.00059 0.0
O241 O 0.29648 0.36894 0.06581 0.0
O242 O 0.30555 0.3674 1.01082 0.0
H243 H 0.24134 0.43768 0.98206 0.0
H244 H 0.3076 0.44067 0.07794 0.0
Tb245 Tb 0.21991 0.39911 1.02221 0.0
Tb246 Tb 0.26411 0.39942 0.08591 0.0
H247 H 0.22696 0.44302 0.06406 0.0
H248 H 0.23867 0.35376 0.9861 0.0
Tb249 Tb 0.27267 0.33962 0.03439 0.0
H250 H 0.30742 0.35638 0.08152 0.0
H251 H 0.3211 0.35441 1.00032 0.0
O252 O 0.24074 0.37037 0.05546 0.0
H253 H 0.22459 0.35894 0.06681 0.0
O254 O 0.28012 0.47684 0.97772 0.0
O255 O 0.26373 0.31579 0.07771 0.0
O256 O 0.28033 0.31184 0.99347 0.0
O257 O 0.26957 0.48033 0.0797 0.0
O258 O 0.33055 0.39459 0.9599 0.0
O259 O 0.21682 0.40301 0.10356 0.0
O260 O 0.3012 0.40149 0.12009 0.0
O261 O 0.24622 0.39485 0.94355 0.0
O262 O 0.35456 0.4411 0.0447 0.0
O263 O 0.18811 0.36056 1.02059 0.0
O264 O 0.19457 0.44248 1.0139 0.0
O265 O 0.35846 0.35859 0.04643 0.0
O266 O 0.28715 0.43283 0.94538 0.0
O267 O 0.25707 0.3572 0.11367 0.0
O268 O 0.26103 0.43934 0.1158 0.0
O269 O 0.28814 0.34985 0.954 0.0
O270 O 0.2327 0.48197 1.01981 0.0
O271 O 0.32342 0.31647 0.04003 0.0
O272 O 0.22126 0.31755 0.02988 0.0
O273 O 0.31743 0.48129 0.0363 0.0
O274 O 0.20161 0.39633 0.97541 0.0
O275 O 0.3459 0.39927 0.08845 0.0
O276 O 0.36212 0.39553 1.00473 0.0
O277 O 0.18536 0.40208 0.05873 0.0
C278 C 0.28416 0.46336 0.94852 0.0
C279 C 0.2571 0.3273 0.10564 0.0
C280 C 0.28687 0.32068 0.96456 0.0
C281 C 0.26482 0.46928 0.1099 0.0
C282 C 0.3579 0.39473 0.97429 0.0
C283 C 0.18947 0.40356 0.08917 0.0
C284 C 0.33175 0.40185 0.1158 0.0
C285 C 0.21569 0.39557 0.94796 0.0
C286 C 0.34587 0.47082 0.04274 0.0
C287 C 0.19175 0.33033 0.02512 0.0
C288 C 0.20416 0.4719 1.01328 0.0
C289 C 0.35335 0.32836 0.04396 0.0
H290 H 0.6881 0.48584 0.21437 0.0
O291 O 0.67592 0.49733 0.22987 0.0
Tb292 Tb 0.70598 0.52156 0.25988 0.0
Tb293 Tb 0.64502 0.5279 0.20785 0.0
Tb294 Tb 0.64866 0.46661 0.25524 0.0
O295 O 0.67631 0.55293 0.23608 0.0
O296 O 0.67836 0.49014 0.2856 0.0
O297 O 0.67748 0.54482 0.29201 0.0
O298 O 0.61765 0.55166 0.23971 0.0
O299 O 0.61972 0.48922 0.2873 0.0
O300 O 0.61709 0.49597 0.23184 0.0
H301 H 0.68863 0.56787 0.22387 0.0
H302 H 0.69198 0.47568 0.29696 0.0
Tb303 Tb 0.64817 0.57539 0.26886 0.0
Tb304 Tb 0.64888 0.51414 0.31645 0.0
H305 H 0.69063 0.55602 0.30679 0.0
H306 H 0.60443 0.56687 0.22906 0.0
Tb307 Tb 0.58941 0.52026 0.26444 0.0
H308 H 0.60788 0.47395 0.29946 0.0
H309 H 0.60363 0.48417 0.21764 0.0
O310 O 0.61892 0.54558 0.29456 0.0
H311 H 0.60664 0.55746 0.30977 0.0
O312 O 0.72709 0.5253 0.20818 0.0
O313 O 0.5653 0.51414 0.30799 0.0
O314 O 0.56212 0.52757 0.22295 0.0
O315 O 0.73 0.51715 0.31047 0.0
O316 O 0.6451 0.48928 0.17536 0.0
O317 O 0.65255 0.55319 0.34845 0.0
O318 O 0.65161 0.46801 0.33682 0.0
O319 O 0.64359 0.57387 0.18719 0.0
O320 O 0.69243 0.44062 0.25041 0.0
O321 O 0.60889 0.6063 0.27328 0.0
O322 O 0.69143 0.60189 0.27312 0.0
O323 O 0.60992 0.43504 0.25408 0.0
O324 O 0.68314 0.53061 0.17544 0.0
O325 O 0.60655 0.51045 0.34449 0.0
O326 O 0.68853 0.51138 0.34655 0.0
O327 O 0.60049 0.53341 0.18347 0.0
O328 O 0.73157 0.56427 0.26673 0.0
O329 O 0.56706 0.46888 0.26165 0.0
O330 O 0.56646 0.57126 0.26928 0.0
O331 O 0.73193 0.47914 0.25315 0.0
O332 O 0.64436 0.60769 0.23015 0.0
O333 O 0.65009 0.43403 0.29389 0.0
O334 O 0.6468 0.44621 0.20927 0.0
O335 O 0.64969 0.59618 0.31458 0.0
C336 C 0.71368 0.52822 0.17881 0.0
C337 C 0.57663 0.51025 0.3365 0.0
C338 C 0.57132 0.53356 0.19401 0.0
C339 C 0.71863 0.51366 0.34074 0.0
C340 C 0.64625 0.45901 0.18116 0.0
C341 C 0.65311 0.58349 0.3425 0.0
C342 C 0.65165 0.43991 0.32407 0.0
C343 C 0.64174 0.60188 0.20001 0.0
C344 C 0.72196 0.45008 0.24956 0.0
C345 C 0.57854 0.60125 0.27214 0.0
C346 C 0.72106 0.59277 0.27282 0.0
C347 C 0.57968 0.43913 0.25818 0.0
H348 H 0.72399 0.18814 0.99733 0.0
O349 O 0.74026 0.17571 1.00741 0.0
Tb350 Tb 0.77268 0.20459 0.03 0.0
Tb351 Tb 0.7198 0.14466 0.0387 0.0
Tb352 Tb 0.76256 0.14927 0.97387 0.0
O353 O 0.75087 0.17443 0.06201 0.0
O354 O 0.79546 0.1779 0.99558 0.0
O355 O 0.80611 0.17481 0.05022 0.0
O356 O 0.75259 0.11603 0.05934 0.0
O357 O 0.79534 0.11924 0.99354 0.0
O358 O 0.74074 0.11737 1.00411 0.0
H359 H 0.74 0.18695 0.07777 0.0
H360 H 0.806 0.19181 0.98077 0.0
Tb361 Tb 0.78475 0.14495 0.08143 0.0
Tb362 Tb 0.82723 0.14694 1.0165 0.0
H363 H 0.82206 0.1867 0.06128 0.0
H364 H 0.74205 0.10316 0.07492 0.0
Tb365 Tb 0.77426 0.08834 0.02515 0.0
H366 H 0.80604 0.10768 0.97707 0.0
H367 H 0.72562 0.10435 0.99301 0.0
O368 O 0.80712 0.11617 0.04865 0.0
H369 H 0.82258 0.10263 0.05876 0.0
O370 O 0.7214 0.22651 0.03661 0.0
O371 O 0.81691 0.06366 1.01492 0.0
O372 O 0.73263 0.06162 0.03369 0.0
O373 O 0.82329 0.22792 0.02519 0.0
O374 O 0.68438 0.14575 1.0028 0.0
O375 O 0.86274 0.14565 0.05211 0.0
O376 O 0.84417 0.15019 0.96914 0.0
O377 O 0.70314 0.14405 0.08652 0.0
O378 O 0.7549 0.19388 0.95015 0.0
O379 O 0.78874 0.10459 0.11135 0.0
O380 O 0.7912 0.18741 0.10882 0.0
O381 O 0.75939 0.11123 0.94129 0.0
O382 O 0.68813 0.18321 0.0437 0.0
O383 O 0.85368 0.10429 1.00795 0.0
O384 O 0.85809 0.18639 1.01428 0.0
O385 O 0.69471 0.10059 0.04421 0.0
O386 O 0.78158 0.2286 0.07309 0.0
O387 O 0.76848 0.06744 0.97359 0.0
O388 O 0.77997 0.0639 0.07508 0.0
O389 O 0.76286 0.23216 0.98917 0.0
O390 O 0.74893 0.14341 0.11671 0.0
O391 O 0.7987 0.15049 0.93856 0.0
O392 O 0.71492 0.1477 0.95721 0.0
O393 O 0.83258 0.14319 0.09784 0.0
C394 C 0.69192 0.21364 0.04101 0.0
C395 C 0.84503 0.07457 1.00779 0.0
C396 C 0.70436 0.0712 0.04199 0.0
C397 C 0.8531 0.21629 1.01958 0.0
C398 C 0.6879 0.14672 0.97223 0.0
C399 C 0.85951 0.14416 0.08266 0.0
C400 C 0.82935 0.15044 0.94207 0.0
C401 C 0.71832 0.14323 0.11343 0.0
C402 C 0.75534 0.22306 0.9606 0.0
C403 C 0.78474 0.07469 0.10525 0.0
C404 C 0.78954 0.21731 0.10079 0.0
C405 C 0.76341 0.08081 0.94445 0.0
H406 H 0.226 0.69015 0.50007 0.0
O407 O 0.24214 0.67789 0.51053 0.0
Tb408 Tb 0.2743 0.70684 0.53343 0.0
Tb409 Tb 0.22078 0.64734 0.54158 0.0
Tb410 Tb 0.2651 0.65089 0.47793 0.0
O411 O 0.25124 0.67736 0.56545 0.0
O412 O 0.29758 0.67947 0.50017 0.0
O413 O 0.30676 0.6771 0.55478 0.0
O414 O 0.25293 0.61863 0.56325 0.0
O415 O 0.29742 0.62089 0.49848 0.0
O416 O 0.24256 0.61945 0.50797 0.0
H417 H 0.24001 0.68984 0.581 0.0
H418 H 0.30826 0.69343 0.48554 0.0
Tb419 Tb 0.28435 0.64789 0.58592 0.0
Tb420 Tb 0.32876 0.64856 0.52222 0.0
H421 H 0.32241 0.68946 0.56574 0.0
H422 H 0.24222 0.60556 0.57854 0.0
Tb423 Tb 0.27547 0.59047 0.53008 0.0
H424 H 0.30851 0.60942 0.48219 0.0
H425 H 0.22771 0.60638 0.49657 0.0
O426 O 0.30776 0.61851 0.55426 0.0
H427 H 0.32319 0.60533 0.5649 0.0
O428 O 0.22333 0.72912 0.53881 0.0
O429 O 0.31786 0.56525 0.52064 0.0
O430 O 0.23331 0.5643 0.53777 0.0
O431 O 0.32531 0.72981 0.5281 0.0
O432 O 0.18627 0.64819 0.50483 0.0
O433 O 0.36308 0.64903 0.55923 0.0
O434 O 0.34679 0.65253 0.47529 0.0
O435 O 0.20254 0.64626 0.58853 0.0
O436 O 0.25714 0.69501 0.4536 0.0
O437 O 0.28872 0.60805 0.616 0.0
O438 O 0.2904 0.69074 0.61293 0.0
O439 O 0.2626 0.61275 0.44564 0.0
O440 O 0.18927 0.68629 0.5458 0.0
O441 O 0.35512 0.60557 0.51436 0.0
O442 O 0.35984 0.68752 0.5198 0.0
O443 O 0.19517 0.60356 0.54617 0.0
O444 O 0.28283 0.73147 0.57621 0.0
O445 O 0.27063 0.56916 0.47838 0.0
O446 O 0.28106 0.56659 0.5804 0.0
O447 O 0.26486 0.7338 0.49214 0.0
O448 O 0.24722 0.64488 0.62018 0.0
O449 O 0.30206 0.65334 0.44357 0.0
O450 O 0.21795 0.649 0.46004 0.0
O451 O 0.33148 0.6475 0.60397 0.0
C452 C 0.19371 0.71664 0.54289 0.0
C453 C 0.34611 0.57595 0.51394 0.0
C454 C 0.20471 0.5741 0.54468 0.0
C455 C 0.35515 0.7177 0.52336 0.0
C456 C 0.19056 0.64845 0.47437 0.0
C457 C 0.35888 0.64939 0.58976 0.0
C458 C 0.33257 0.65405 0.44794 0.0
C459 C 0.21668 0.64413 0.61587 0.0
C460 C 0.25731 0.72428 0.46373 0.0
C461 C 0.28557 0.57798 0.61041 0.0
C462 C 0.28984 0.72052 0.60429 0.0
C463 C 0.26646 0.58237 0.44897 0.0
H464 H 0.9401 0.48213 0.80852 0.0
O465 O 0.92714 0.49343 0.79341 0.0
Tb466 Tb 0.89743 0.52534 0.81507 0.0
Tb467 Tb 0.95533 0.51799 0.76129 0.0
Tb468 Tb 0.89734 0.46269 0.76975 0.0
O469 O 0.92547 0.5494 0.7841 0.0
O470 O 0.86841 0.49387 0.79242 0.0
O471 O 0.86694 0.54835 0.7843 0.0
O472 O 0.9267 0.54122 0.72885 0.0
O473 O 0.86823 0.48422 0.73693 0.0
O474 O 0.92684 0.48539 0.73837 0.0
H475 H 0.93751 0.5651 0.79538 0.0
H476 H 0.85585 0.48299 0.80799 0.0
Tb477 Tb 0.89569 0.57108 0.75234 0.0
Tb478 Tb 0.83897 0.51608 0.76015 0.0
H479 H 0.85353 0.56305 0.79557 0.0
H480 H 0.93968 0.55279 0.71398 0.0
Tb481 Tb 0.89856 0.50824 0.70669 0.0
H482 H 0.85524 0.46917 0.7257 0.0
H483 H 0.93944 0.46991 0.72732 0.0
O484 O 0.86819 0.53942 0.72867 0.0
H485 H 0.85555 0.55052 0.71325 0.0
O486 O 0.94077 0.53093 0.84138 0.0
O487 O 0.86005 0.50485 0.67508 0.0
O488 O 0.94253 0.50315 0.68107 0.0
O489 O 0.85796 0.52841 0.84587 0.0
O490 O 0.97867 0.46757 0.76594 0.0
O491 O 0.81254 0.55817 0.75289 0.0
O492 O 0.81385 0.47335 0.76866 0.0
O493 O 0.97737 0.56935 0.75703 0.0
O494 O 0.89741 0.44351 0.81636 0.0
O495 O 0.89621 0.59011 0.70566 0.0
O496 O 0.89555 0.60464 0.79028 0.0
O497 O 0.89728 0.429 0.73267 0.0
O498 O 0.98085 0.52571 0.80364 0.0
O499 O 0.81693 0.5115 0.70881 0.0
O500 O 0.81587 0.52103 0.81088 0.0
O501 O 0.98173 0.51061 0.7193 0.0
O502 O 0.89501 0.57179 0.83424 0.0
O503 O 0.89829 0.46107 0.68817 0.0
O504 O 0.89685 0.54607 0.67305 0.0
O505 O 0.89559 0.48761 0.84865 0.0
O506 O 0.93421 0.60272 0.74921 0.0
O507 O 0.85429 0.43632 0.77668 0.0
O508 O 0.93712 0.43178 0.77286 0.0
O509 O 0.85175 0.5967 0.74768 0.0
C510 C 0.97041 0.53113 0.83223 0.0
C511 C 0.82968 0.50773 0.67919 0.0
C512 C 0.97198 0.50408 0.69072 0.0
C513 C 0.82775 0.52533 0.84073 0.0
C514 C 0.96723 0.43751 0.76974 0.0
C515 C 0.82226 0.58713 0.74794 0.0
C516 C 0.8246 0.44522 0.77605 0.0
C517 C 0.9645 0.59892 0.75309 0.0
C518 C 0.89492 0.45715 0.8439 0.0
C519 C 0.89578 0.57651 0.67797 0.0
C520 C 0.89484 0.59952 0.82069 0.0
C521 C 0.89804 0.43349 0.70227 0.0
H522 H 0.81945 0.94173 0.49017 0.0
O523 O 0.8048 0.92851 0.50175 0.0
Tb524 Tb 0.77165 0.9563 0.5253 0.0
Tb525 Tb 0.78213 0.89714 0.47184 0.0
Tb526 Tb 0.82769 0.90062 0.53453 0.0
O527 O 0.74961 0.92619 0.49363 0.0
O528 O 0.79547 0.92822 0.55747 0.0
O529 O 0.74042 0.92729 0.54974 0.0
O530 O 0.7507 0.86755 0.49468 0.0
O531 O 0.79832 0.86972 0.55886 0.0
O532 O 0.80609 0.86992 0.50381 0.0
H533 H 0.73801 0.93796 0.47787 0.0
H534 H 0.8061 0.94142 0.57263 0.0
Tb535 Tb 0.71935 0.8974 0.51775 0.0
Tb536 Tb 0.76511 0.89806 0.58048 0.0
H537 H 0.72499 0.93993 0.56097 0.0
H538 H 0.73981 0.85373 0.48015 0.0
Tb539 Tb 0.77511 0.84006 0.52727 0.0
H540 H 0.8101 0.85737 0.57414 0.0
H541 H 0.82199 0.85753 0.49315 0.0
O542 O 0.74255 0.86884 0.5496 0.0
H543 H 0.72748 0.85597 0.56085 0.0
O544 O 0.77588 0.97844 0.47437 0.0
O545 O 0.76789 0.81473 0.57003 0.0
O546 O 0.78385 0.81375 0.48541 0.0
O547 O 0.76633 0.9795 0.57596 0.0
O548 O 0.82881 0.89841 0.45281 0.0
O549 O 0.71846 0.8972 0.59964 0.0
O550 O 0.80294 0.90154 0.61378 0.0
O551 O 0.74465 0.89516 0.43832 0.0
O552 O 0.85232 0.9452 0.53906 0.0
O553 O 0.6889 0.85803 0.51526 0.0
O554 O 0.69172 0.93985 0.51209 0.0
O555 O 0.8597 0.86215 0.53862 0.0
O556 O 0.78408 0.93618 0.43974 0.0
O557 O 0.76088 0.85486 0.60735 0.0
O558 O 0.7604 0.93733 0.61112 0.0
O559 O 0.78913 0.85314 0.44687 0.0
O560 O 0.72846 0.98069 0.51739 0.0
O561 O 0.8265 0.81858 0.53274 0.0
O562 O 0.72434 0.81637 0.52303 0.0
O563 O 0.81298 0.98366 0.53261 0.0
O564 O 0.70056 0.8944 0.471 0.0
O565 O 0.84694 0.90182 0.58107 0.0
O566 O 0.86135 0.89919 0.49685 0.0
O567 O 0.68591 0.89504 0.55567 0.0
C568 C 0.78018 0.96638 0.44465 0.0
C569 C 0.76171 0.82521 0.59844 0.0
C570 C 0.7897 0.82369 0.45668 0.0
C571 C 0.76258 0.96758 0.60593 0.0
C572 C 0.85652 0.89776 0.46645 0.0
C573 C 0.69082 0.89462 0.5861 0.0
C574 C 0.83333 0.90345 0.60875 0.0
C575 C 0.71429 0.89394 0.44332 0.0
C576 C 0.84194 0.97448 0.53854 0.0
C577 C 0.69423 0.82797 0.51882 0.0
C578 C 0.7001 0.96963 0.51187 0.0
C579 C 0.85591 0.83165 0.53653 0.0
H580 H 0.18726 0.9854 0.71348 0.0
O581 O 0.17426 0.99636 0.72865 0.0
Tb582 Tb 0.2026 1.02018 0.76055 0.0
Tb583 Tb 0.14432 0.02706 0.70556 0.0
Tb584 Tb 0.14627 0.96474 0.75212 0.0
O585 O 0.17372 0.05159 0.73607 0.0
O586 O 0.17447 0.9878 0.78439 0.0
O587 O 0.17276 0.04283 0.79203 0.0
O588 O 0.11538 0.05015 0.73669 0.0
O589 O 0.11601 0.98668 0.78327 0.0
O590 O 0.11566 0.9944 0.72773 0.0
H591 H 0.18649 0.06669 0.72462 0.0
H592 H 0.18785 0.97329 0.79597 0.0
Tb593 Tb 0.14409 0.07342 0.76806 0.0
Tb594 Tb 0.14354 1.01101 0.81448 0.0
H595 H 0.18503 0.05427 0.8074 0.0
H596 H 0.10257 0.0655 0.72572 0.0
Tb597 Tb 0.08659 1.01798 0.75963 0.0
H598 H 0.10377 0.971 0.79446 0.0
H599 H 0.10296 0.98278 0.71272 0.0
O600 O 0.11424 0.04265 0.79176 0.0
H601 H 0.10089 0.05394 0.80654 0.0
O602 O 0.2257 0.02504 0.70998 0.0
O603 O 0.06028 1.01033 0.80157 0.0
O604 O 0.06096 0.0257 0.71718 0.0
O605 O 0.225 1.01616 0.81159 0.0
O606 O 0.14677 0.98883 0.67256 0.0
O607 O 0.14373 0.0491 0.84755 0.0
O608 O 0.14572 0.96443 0.83388 0.0
O609 O 0.14392 0.07363 0.68612 0.0
O610 O 0.19042 0.93937 0.74789 0.0
O611 O 0.10435 0.10415 0.77139 0.0
O612 O 0.18685 0.10044 0.77278 0.0
O613 O 0.1077 0.93278 0.74872 0.0
O614 O 0.18378 0.0312 0.6745 0.0
O615 O 0.09963 1.00552 0.84008 0.0
O616 O 0.18251 1.00862 0.8461 0.0
O617 O 0.10083 0.03267 0.67943 0.0
O618 O 0.2274 0.06314 0.76779 0.0
O619 O 0.06474 0.96699 0.75511 0.0
O620 O 0.06291 0.06834 0.76436 0.0
O621 O 0.22931 0.97817 0.7537 0.0
O622 O 0.14228 0.10647 0.72987 0.0
O623 O 0.14621 0.93143 0.79012 0.0
O624 O 0.14672 0.94518 0.70578 0.0
O625 O 0.14312 0.09291 0.81452 0.0
C626 C 0.21401 0.02872 0.67999 0.0
C627 C 0.07015 1.00522 0.83042 0.0
C628 C 0.07126 0.03229 0.68876 0.0
C629 C 0.21277 1.01207 0.84134 0.0
C630 C 0.14798 0.95844 0.67791 0.0
C631 C 0.14391 0.07951 0.84234 0.0
C632 C 0.14634 0.93664 0.82045 0.0
C633 C 0.14177 0.1014 0.69948 0.0
C634 C 0.21981 0.94922 0.74834 0.0
C635 C 0.07426 0.09841 0.76839 0.0
C636 C 0.21658 0.09172 0.77286 0.0
C637 C 0.07734 0.93737 0.7514 0.0
H638 H 0.49292 0.22936 0.68852 0.0
O639 O 0.50426 0.24548 0.67702 0.0
Tb640 Tb 0.52679 0.27651 0.7075 0.0
Tb641 Tb 0.53618 0.22473 0.64663 0.0
Tb642 Tb 0.47317 0.2701 0.64965 0.0
O643 O 0.55921 0.25404 0.67821 0.0
O644 O 0.49477 0.30142 0.67975 0.0
O645 O 0.54965 0.30956 0.6796 0.0
O646 O 0.55944 0.2572 0.61963 0.0
O647 O 0.4952 0.30281 0.62106 0.0
O648 O 0.50391 0.24809 0.61857 0.0
H649 H 0.57401 0.2422 0.69104 0.0
H650 H 0.47961 0.31226 0.69303 0.0
Tb651 Tb 0.58129 0.28759 0.65059 0.0
Tb652 Tb 0.51837 0.33294 0.65058 0.0
H653 H 0.56053 0.32446 0.69291 0.0
H654 H 0.57512 0.24647 0.60698 0.0
Tb655 Tb 0.52739 0.28123 0.59116 0.0
H656 H 0.47977 0.31437 0.60884 0.0
H657 H 0.49274 0.23386 0.60467 0.0
O658 O 0.55108 0.31231 0.62096 0.0
H659 H 0.56264 0.32784 0.60877 0.0
O660 O 0.53122 0.22473 0.72856 0.0
O661 O 0.51999 0.32482 0.56719 0.0
O662 O 0.53501 0.24004 0.5637 0.0
O663 O 0.52143 0.32686 0.73162 0.0
O664 O 0.49889 0.19091 0.64433 0.0
O665 O 0.55583 0.36657 0.65421 0.0
O666 O 0.47144 0.35173 0.65132 0.0
O667 O 0.58318 0.20608 0.64762 0.0
O668 O 0.44671 0.26308 0.69266 0.0
O669 O 0.61263 0.29214 0.61177 0.0
O670 O 0.60726 0.29088 0.69425 0.0
O671 O 0.44201 0.26848 0.61082 0.0
O672 O 0.53864 0.19217 0.68482 0.0
O673 O 0.51412 0.36105 0.6084 0.0
O674 O 0.51423 0.36277 0.69026 0.0
O675 O 0.54155 0.20059 0.60198 0.0
O676 O 0.56914 0.28315 0.73358 0.0
O677 O 0.47615 0.27668 0.56836 0.0
O678 O 0.57849 0.28642 0.56889 0.0
O679 O 0.48437 0.26796 0.73273 0.0
O680 O 0.61534 0.25044 0.64914 0.0
O681 O 0.43924 0.30749 0.65003 0.0
O682 O 0.45459 0.22339 0.6455 0.0
O683 O 0.60015 0.33432 0.65252 0.0
C684 C 0.53503 0.19541 0.71523 0.0
C685 C 0.51459 0.35312 0.57853 0.0
C686 C 0.54083 0.21101 0.57275 0.0
C687 C 0.51708 0.35703 0.72029 0.0
C688 C 0.46847 0.19582 0.64365 0.0
C689 C 0.5863 0.36184 0.65528 0.0
C690 C 0.44382 0.33795 0.65013 0.0
C691 C 0.61073 0.22004 0.64834 0.0
C692 C 0.45581 0.26243 0.72224 0.0
C693 C 0.60819 0.29003 0.58142 0.0
C694 C 0.59785 0.28932 0.72371 0.0
C695 C 0.44636 0.27211 0.58063 0.0
C696 C 0.14167 0.37543 0.10084 0.0
C697 C 0.16248 0.39892 0.1089 0.0
C698 C 0.12828 0.3575 0.12399 0.0
C699 C 0.1275 0.34472 0.20867 0.0
H700 H 0.1624 0.26474 0.18653 0.0
C701 C 0.14814 0.27024 0.3038 0.0
C702 C 0.1206 0.25328 0.30276 0.0
C703 C 0.16229 0.27884 0.27617 0.0
C704 C 0.15298 0.2871 0.19286 0.0
H705 H 0.17934 0.42763 0.1461 0.0
H706 H 0.15572 0.39695 0.1865 0.0
H707 H 0.15426 0.30406 0.1465 0.0
H708 H 0.09075 0.22509 0.27423 0.0
H709 H 0.11535 0.24032 0.22602 0.0
H710 H 0.12696 0.32812 0.25504 0.0
C711 C 0.15038 0.39132 0.16271 0.0
C712 C 0.14754 0.30928 0.17004 0.0
C713 C 0.16395 0.40901 0.13958 0.0
C714 C 0.11156 0.23903 0.27513 0.0
C715 C 0.12587 0.24743 0.24759 0.0
C716 C 0.13333 0.32281 0.2314 0.0
C717 C 0.13534 0.3636 0.15502 0.0
C718 C 0.13502 0.3384 0.17788 0.0
C719 C 0.1485 0.27056 0.24799 0.0
C720 C 0.14655 0.29409 0.22373 0.0
H721 H 0.13972 0.36771 0.07718 0.0
H722 H 0.11586 0.33673 0.11759 0.0
H723 H 0.11779 0.36688 0.21526 0.0
H724 H 0.15575 0.28094 0.32511 0.0
H725 H 0.18023 0.29632 0.27676 0.0
C726 C 0.60181 0.64231 0.19477 0.0
C727 C 0.62581 0.62506 0.18098 0.0
C728 C 0.57537 0.6497 0.17776 0.0
C729 C 0.53312 0.61521 0.11464 0.0
H730 H 0.49728 0.69557 0.09816 0.0
C731 C 0.47221 0.69509 1.01852 0.0
C732 C 0.49369 0.68524 0.99631 0.0
C733 C 0.46903 0.67881 0.04612 0.0
C734 C 0.50585 0.67258 0.10329 0.0
H735 H 0.64415 0.60813 0.13757 0.0
H736 H 0.59851 0.62207 0.10767 0.0
H737 H 0.53585 0.69031 0.1384 0.0
H738 H 0.52458 0.64849 0.98236 0.0
H739 H 0.52071 0.62087 0.03106 0.0
H740 H 0.50451 0.59768 0.07847 0.0
C741 C 0.59934 0.62815 0.13194 0.0
C742 C 0.52831 0.6698 0.1262 0.0
C743 C 0.62569 0.62085 0.14885 0.0
C744 C 0.50837 0.65664 0.99966 0.0
C745 C 0.50574 0.64068 0.02756 0.0
C746 C 0.5103 0.61785 0.09209 0.0
C747 C 0.57325 0.64045 0.14685 0.0
C748 C 0.54371 0.64165 0.13017 0.0
C749 C 0.48837 0.65337 0.05212 0.0
C750 C 0.49868 0.64715 0.08418 0.0
H751 H 0.60146 0.64637 0.21944 0.0
H752 H 0.5557 0.66007 0.18937 0.0
H753 H 0.54426 0.59301 0.11817 0.0
H754 H 0.4599 0.71677 1.01564 0.0
H755 H 0.45457 0.68846 0.06417 0.0
C756 C 0.9086 0.27203 0.30178 0.0
C757 C 0.93283 0.29346 0.3017 0.0
C758 C 0.89745 0.26093 0.27373 0.0
C759 C 0.904 0.25938 0.18988 0.0
H760 H 0.94034 0.17832 0.20451 0.0
C761 C 0.90606 0.17512 0.09265 0.0
C762 C 0.88671 0.1506 0.10152 0.0
C763 C 0.92093 0.19253 0.11523 0.0
C764 C 0.93037 0.20091 0.20006 0.0
H765 H 0.95944 0.32547 0.27386 0.0
H766 H 0.93963 0.30633 0.22483 0.0
H767 H 0.93445 0.21444 0.24726 0.0
H768 H 0.87275 0.12076 0.13919 0.0
H769 H 0.89904 0.15054 0.17851 0.0
H770 H 0.89877 0.24542 0.14286 0.0
C771 C 0.92965 0.29762 0.24611 0.0
C772 C 0.92652 0.22133 0.2245 0.0
C773 C 0.94098 0.30852 0.27412 0.0
C774 C 0.88727 0.13992 0.13207 0.0
C775 C 0.90237 0.15707 0.15456 0.0
C776 C 0.90747 0.23873 0.16538 0.0
C777 C 0.9104 0.27161 0.24592 0.0
C778 C 0.91261 0.25033 0.21971 0.0
C779 C 0.9168 0.18508 0.14655 0.0
C780 C 0.92009 0.20904 0.17045 0.0
H781 H 0.90193 0.26031 0.32292 0.0
H782 H 0.88221 0.24105 0.27384 0.0
H783 H 0.89392 0.28198 0.18575 0.0
H784 H 0.90618 0.18358 0.06906 0.0
H785 H 0.93261 0.21366 0.1085 0.0
C786 C 0.44013 0.90065 0.19459 0.0
C787 C 0.41604 0.91796 0.18102 0.0
C788 C 0.46683 0.89411 0.17762 0.0
C789 C 0.50892 0.93233 0.1169 0.0
H790 H 0.54654 0.85397 0.09567 0.0
C791 C 0.53305 0.89694 1.00023 0.0
C792 C 0.54898 0.86924 0.99549 0.0
C793 C 0.53573 0.91196 0.02858 0.0
C794 C 0.53744 0.87639 0.10218 0.0
H795 H 0.39758 0.93532 0.13781 0.0
H796 H 0.44368 0.92284 0.10791 0.0
H797 H 0.5076 0.85578 0.13597 0.0
H798 H 0.58465 0.83862 1.01275 0.0
H799 H 0.58982 0.86513 0.0622 0.0
H800 H 0.53705 0.9527 0.08169 0.0
C801 C 0.44274 0.91615 0.13205 0.0
C802 C 0.5148 0.87719 0.1251 0.0
C803 C 0.41615 0.92262 0.14894 0.0
C804 C 0.57151 0.8596 1.01672 0.0
C805 C 0.57461 0.87487 0.04482 0.0
C806 C 0.53178 0.93162 0.09421 0.0
C807 C 0.469 0.90418 0.14694 0.0
C808 C 0.49879 0.9047 0.13069 0.0
C809 C 0.55424 0.89909 0.05222 0.0
C810 C 0.54406 0.90314 0.08462 0.0
H811 H 0.4404 0.89611 0.2192 0.0
H812 H 0.48664 0.88394 0.18918 0.0
H813 H 0.49728 0.95402 0.12173 0.0
H814 H 0.51596 0.9049 0.9837 0.0
H815 H 0.51996 0.93089 0.03323 0.0
C816 C 0.14567 0.68047 0.46105 0.0
C817 C 0.16396 0.65443 0.45464 0.0
C818 C 0.13241 0.69699 0.43674 0.0
C819 C 0.1255 0.6997 0.35125 0.0
H820 H 0.16252 0.78097 0.36102 0.0
C821 C 0.14331 0.76764 0.24592 0.0
C822 C 0.11985 0.79001 0.24679 0.0
C823 C 0.15562 0.75662 0.27357 0.0
C824 C 0.15238 0.75826 0.35811 0.0
H825 H 0.1778 0.62144 0.41973 0.0
H826 H 0.15424 0.64964 0.37743 0.0
H827 H 0.15716 0.7469 0.40592 0.0
H828 H 0.09565 0.82329 0.27529 0.0
H829 H 0.11756 0.8044 0.32358 0.0
H830 H 0.12155 0.71071 0.30335 0.0
C831 C 0.15045 0.65798 0.40072 0.0
C832 C 0.14861 0.73904 0.38376 0.0
C833 C 0.1639 0.64169 0.42493 0.0
C834 C 0.11354 0.8057 0.27443 0.0
C835 C 0.12609 0.79492 0.30202 0.0
C836 C 0.12965 0.71868 0.32566 0.0
C837 C 0.13715 0.68716 0.40618 0.0
C838 C 0.13543 0.70944 0.38045 0.0
C839 C 0.14461 0.76829 0.3018 0.0
C840 C 0.14355 0.74784 0.32883 0.0
H841 H 0.14541 0.69058 0.48396 0.0
H842 H 0.12154 0.71908 0.44151 0.0
H843 H 0.11516 0.67711 0.3481 0.0
H844 H 0.14852 0.7554 0.22469 0.0
H845 H 0.17029 0.73626 0.27309 0.0
C846 C 0.04767 0.68599 0.02734 0.0
C847 C 0.0307 0.68042 0.05439 0.0
C848 C 0.03802 0.67321 0.99949 0.0
C849 C 0.97659 0.62548 0.96299 0.0
H850 H 0.9683 0.69751 0.90973 0.0
C851 C 0.88639 0.62458 0.87081 0.0
C852 C 0.9004 0.62533 0.8416 0.0
C853 C 0.90196 0.63651 0.89624 0.0
C854 C 0.97052 0.6773 0.92442 0.0
H855 H 0.99367 0.65395 0.07509 0.0
H856 H 0.97626 0.63201 0.02645 0.0
H857 H 1.00309 0.69933 0.95402 0.0
H858 H 0.93856 0.64348 0.81483 0.0
H859 H 0.96556 0.66501 0.85916 0.0
H860 H 0.94324 0.60387 0.93377 0.0
C861 C 0.99707 0.64592 0.02641 0.0
C862 C 0.99076 0.67804 0.94945 0.0
C863 C 1.00707 0.65836 0.05436 0.0
C864 C 0.92725 0.64294 0.83712 0.0
C865 C 0.94289 0.65491 0.86259 0.0
C866 C 0.95617 0.62486 0.93815 0.0
C867 C 1.01098 0.6553 0.9985 0.0
C868 C 0.99368 0.65226 0.96925 0.0
C869 C 0.93149 0.64939 0.89246 0.0
C870 C 0.95257 0.65097 0.91905 0.0
H871 H 0.0662 0.70286 0.02715 0.0
H872 H 0.04974 0.67998 0.9784 0.0
H873 H 0.97856 0.60523 0.97766 0.0
H874 H 0.86549 0.61131 0.87458 0.0
H875 H 0.89246 0.63273 0.91912 0.0
C876 C 0.90496 0.77166 0.25687 0.0
C877 C 0.93183 0.75425 0.25232 0.0
C878 C 0.8906 0.77128 0.28574 0.0
C879 C 0.92652 0.77122 0.35934 0.0
H880 H 0.84892 0.81057 0.38087 0.0
C881 C 0.89837 0.85999 0.45912 0.0
C882 C 0.88136 0.88511 0.44717 0.0
C883 C 0.90658 0.8355 0.43978 0.0
C884 C 0.87062 0.79926 0.37532 0.0
H885 H 0.96138 0.71825 0.2709 0.0
H886 H 0.93598 0.71717 0.32128 0.0
H887 H 0.85009 0.77243 0.3393 0.0
H888 H 0.8662 0.90802 0.40529 0.0
H889 H 0.88148 0.86575 0.37138 0.0
H890 H 0.94722 0.79958 0.39424 0.0
C891 C 0.92646 0.7318 0.30327 0.0
C892 C 0.87124 0.77733 0.35179 0.0
C893 C 0.94107 0.73254 0.2746 0.0
C894 C 0.87874 0.88859 0.41505 0.0
C895 C 0.88688 0.86419 0.39579 0.0
C896 C 0.92581 0.79295 0.38305 0.0
C897 C 0.90321 0.75348 0.31002 0.0
C898 C 0.89961 0.76489 0.34202 0.0
C899 C 0.89845 0.83664 0.40849 0.0
C900 C 0.89826 0.80852 0.38961 0.0
H901 H 0.89735 0.78819 0.23961 0.0
H902 H 0.87247 0.78806 0.29 0.0
H903 H 0.94886 0.76214 0.35245 0.0
H904 H 0.90114 0.85696 0.4838 0.0
H905 H 0.91623 0.8146 0.44977 0.0
C906 C 0.15454 0.91142 0.8706 0.0
C907 C 0.14113 0.91058 0.84119 0.0
C908 C 0.13936 0.89784 0.89546 0.0
C909 C 0.05877 0.89291 0.9145 0.0
H910 H 0.09038 0.86887 0.99479 0.0
C911 C 0.99254 0.86309 0.02605 0.0
C912 C 1.00831 0.86993 0.05352 0.0
C913 C 1.00429 0.87342 0.99792 0.0
C914 C 0.08146 0.87608 0.97251 0.0
H915 H 0.10489 0.89052 0.81311 0.0
H916 H 0.07839 0.8663 0.85666 0.0
H917 H 0.12311 0.8629 0.94932 0.0
H918 H 0.04457 0.89733 0.07433 0.0
H919 H 0.06514 0.91552 0.02505 0.0
H920 H 1.01692 0.90576 0.93796 0.0
C921 C 0.10015 0.87801 0.86072 0.0
C922 C 0.09998 0.87219 0.94652 0.0
C923 C 0.11552 0.89149 0.83577 0.0
C924 C 0.03214 0.89182 0.0533 0.0
C925 C 0.0441 0.90191 0.02513 0.0
C926 C 0.04009 0.89648 0.94054 0.0
C927 C 0.11059 0.88343 0.89097 0.0
C928 C 0.08907 0.88113 0.91733 0.0
C929 C 0.03187 0.8904 0.99738 0.0
C930 C 0.05161 0.88877 0.96978 0.0
H931 H 0.17451 0.92585 0.87502 0.0
H932 H 0.14819 0.90221 0.91846 0.0
H933 H 0.04995 0.90067 0.89238 0.0
H934 H 0.97393 0.84632 0.02598 0.0
H935 H 0.99433 0.86454 0.97675 0.0
C936 C 0.09243 0.14361 0.3706 0.0
C937 C 0.10136 0.16298 0.395 0.0
C938 C 0.11505 0.12935 0.35259 0.0
C939 C 0.20006 0.1222 0.34208 0.0
H940 H 0.18272 0.15849 0.26163 0.0
C941 C 0.29935 0.14213 0.26835 0.0
C942 C 0.29808 0.11721 0.24777 0.0
C943 C 0.27184 0.1547 0.27952 0.0
C944 C 0.18771 0.14854 0.28408 0.0
H945 H 0.13928 0.17733 0.4242 0.0
H946 H 0.17867 0.15208 0.39343 0.0
H947 H 0.14089 0.1527 0.29941 0.0
H948 H 0.26885 0.09119 0.21663 0.0
H949 H 0.22081 0.11322 0.23614 0.0
H950 H 0.24698 0.11899 0.32713 0.0
C951 C 0.15466 0.14833 0.38737 0.0
C952 C 0.16383 0.14451 0.30542 0.0
C953 C 0.13211 0.1628 0.40512 0.0
C954 C 0.27002 0.10993 0.2332 0.0
C955 C 0.24256 0.12264 0.24422 0.0
C956 C 0.22388 0.12661 0.32099 0.0
C957 C 0.14645 0.1341 0.35938 0.0
C958 C 0.16995 0.13178 0.33482 0.0
C959 C 0.24342 0.14235 0.26983 0.0
C960 C 0.21799 0.14043 0.29216 0.0
H961 H 0.06867 0.14318 0.36262 0.0
H962 H 0.10819 0.11776 0.33151 0.0
H963 H 0.20534 0.11216 0.36443 0.0
H964 H 0.3209 0.14841 0.27947 0.0
H965 H 0.27278 0.17041 0.29898 0.0
C966 C 0.3947 0.70729 0.93112 0.0
C967 C 0.4117 0.70045 0.90435 0.0
C968 C 0.38287 0.68322 0.94903 0.0
C969 C 0.37606 0.59773 0.95376 0.0
H970 H 0.41397 0.609 0.0344 0.0
C971 C 0.39398 0.49361 0.02297 0.0
C972 C 0.36967 0.49459 0.04435 0.0
C973 C 0.40666 0.52125 1.01227 0.0
C974 C 0.4036 0.60568 1.01186 0.0
H975 H 0.42444 0.66474 0.87178 0.0
H976 H 0.40316 0.62287 0.90231 0.0
H977 H 0.40882 0.65322 0.99924 0.0
H978 H 0.34414 0.52332 0.07643 0.0
H979 H 0.36663 0.5716 0.05802 0.0
H980 H 0.37166 0.55014 0.96599 0.0
C981 C 0.39944 0.64635 0.9102 0.0
C982 C 0.39998 0.63094 0.99202 0.0
C983 C 0.41148 0.67034 0.89251 0.0
C984 C 0.36263 0.52239 0.0595 0.0
C985 C 0.37558 0.54995 0.04908 0.0
C986 C 0.3801 0.57255 0.97332 0.0
C987 C 0.38754 0.65242 0.93982 0.0
C988 C 0.38641 0.62708 0.96265 0.0
C989 C 0.39513 0.54958 0.02325 0.0
C990 C 0.39427 0.57625 1.00227 0.0
H991 H 0.39456 0.73048 0.94059 0.0
H992 H 0.37301 0.68849 0.97145 0.0
H993 H 0.36535 0.59415 0.93143 0.0
H994 H 0.39978 0.47227 1.01118 0.0
H995 H 0.42206 0.52065 0.9925 0.0
C996 C 0.77426 0.43366 0.23447 0.0
C997 C 0.74638 0.42675 0.24964 0.0
C998 C 0.80218 0.42345 0.24691 0.0
C999 C 0.82451 0.42303 0.3243 0.0
H1000 H 0.90607 0.39627 0.29843 0.0
C1001 C 0.92095 0.38871 0.40457 0.0
C1002 C 0.95119 0.3882 0.39295 0.0
C1003 C 0.89745 0.40236 0.38737 0.0
C1004 C 0.88357 0.40466 0.30565 0.0
H1005 H 0.72475 0.39885 0.28514 0.0
H1006 H 0.77364 0.38098 0.30695 0.0
H1007 H 0.86225 0.39041 0.26319 0.0
H1008 H 0.98205 0.40631 0.35783 0.0
H1009 H 0.9409 0.43059 0.3278 0.0
H1010 H 0.8455 0.43766 0.36649 0.0
C1011 C 0.77404 0.3946 0.2859 0.0
C1012 C 0.85852 0.40065 0.28572 0.0
C1013 C 0.74609 0.40458 0.27327 0.0
C1014 C 0.95874 0.40631 0.36709 0.0
C1015 C 0.93515 0.41981 0.34968 0.0
C1016 C 0.84951 0.42741 0.34401 0.0
C1017 C 0.80206 0.40647 0.27451 0.0
C1018 C 0.82874 0.40902 0.29533 0.0
C1019 C 0.90412 0.41552 0.35839 0.0
C1020 C 0.87916 0.41759 0.33522 0.0
H1021 H 0.77474 0.4505 0.21589 0.0
H1022 H 0.8236 0.43254 0.23757 0.0
H1023 H 0.80181 0.43077 0.33167 0.0
H1024 H 0.91482 0.37501 0.42467 0.0
H1025 H 0.8738 0.39889 0.39491 0.0
C1026 C 0.63107 0.88451 0.91057 0.0
C1027 C 0.63283 0.85233 0.91441 0.0
C1028 C 0.63966 0.90382 0.93471 0.0
C1029 C 0.67777 0.91602 1.00652 0.0
H1030 H 0.60206 0.96044 0.02646 0.0
C1031 C 0.69201 0.02341 0.07025 0.0
C1032 C 0.68261 0.04667 0.04967 0.0
C1033 C 0.67783 0.99454 0.06949 0.0
C1034 C 0.62322 0.94784 1.02164 0.0
H1035 H 0.65166 0.81542 0.94291 0.0
H1036 H 0.66752 0.84959 0.98483 0.0
H1037 H 0.60134 0.91974 0.98746 0.0
H1038 H 0.64848 0.06053 1.01594 0.0
H1039 H 0.62434 1.00991 1.01343 0.0
H1040 H 0.70049 0.94583 0.03822 0.0
C1041 C 0.65818 0.85958 0.96384 0.0
C1042 C 0.62284 0.92476 0.99927 0.0
C1043 C 0.64948 0.84017 0.93962 0.0
C1044 C 0.65607 0.04261 0.03177 0.0
C1045 C 0.64218 1.01357 0.03059 0.0
C1046 C 0.67828 0.93943 0.02862 0.0
C1047 C 0.65082 0.89109 0.96238 0.0
C1048 C 0.65047 0.91009 0.99039 0.0
C1049 C 0.65489 0.98858 0.04735 0.0
C1050 C 0.6514 0.95697 0.03483 0.0
H1051 H 0.61887 0.89445 0.89104 0.0
H1052 H 0.63483 0.92837 0.93292 0.0
H1053 H 0.69915 0.90453 1.0002 0.0
H1054 H 0.71225 0.02657 0.08467 0.0
H1055 H 0.68744 0.97596 0.08333 0.0
C1056 C 0.12241 0.87645 0.10701 0.0
C1057 C 0.10259 0.88242 0.13201 0.0
C1058 C 0.14944 0.89351 0.10352 0.0
C1059 C 0.19984 0.94578 0.14986 0.0
H1060 H 0.24112 0.86773 0.16732 0.0
C1061 C 0.26642 0.93303 0.25877 0.0
C1062 C 0.2979 0.92657 0.25435 0.0
C1063 C 0.24556 0.92683 0.23517 0.0
C1064 C 0.23025 0.88974 0.16212 0.0
H1065 H 0.0914 0.91417 0.16879 0.0
H1066 H 0.13903 0.94319 0.1639 0.0
H1067 H 0.19981 0.86944 0.12952 0.0
H1068 H 0.33119 0.90201 0.22585 0.0
H1069 H 0.29437 0.89041 0.18495 0.0
H1070 H 0.22904 0.9653 0.18455 0.0
C1071 C 0.13413 0.92572 0.14669 0.0
C1072 C 0.20686 0.891 0.14009 0.0
C1073 C 0.10687 0.90888 0.1499 0.0
C1074 C 0.30702 0.90764 0.22956 0.0
C1075 C 0.28612 0.90147 0.20585 0.0
C1076 C 0.22318 0.94446 0.17197 0.0
C1077 C 0.15716 0.91567 0.12585 0.0
C1078 C 0.18972 0.91848 0.13568 0.0
C1079 C 0.25608 0.91356 0.20751 0.0
C1080 C 0.23685 0.91596 0.17971 0.0
H1081 H 0.11874 0.8565 0.09232 0.0
H1082 H 0.16637 0.88601 0.08662 0.0
H1083 H 0.18747 0.96734 0.14643 0.0
H1084 H 0.25885 0.94708 0.27808 0.0
H1085 H 0.22197 0.93513 0.2373 0.0
C1086 C 0.19053 0.52323 0.9929 0.0
C1087 C 0.18117 0.49598 1.00785 0.0
C1088 C 0.1769 0.55122 1.00098 0.0
C1089 C 0.16757 0.57114 0.07593 0.0
H1090 H 0.14584 0.65467 0.05189 0.0
C1091 C 0.12926 0.66471 0.15639 0.0
C1092 C 0.13076 0.69531 0.14593 0.0
C1093 C 0.14422 0.64157 0.13992 0.0
C1094 C 0.15282 0.63154 0.05862 0.0
H1095 H 0.14607 0.47481 0.03662 0.0
H1096 H 0.1226 0.52394 0.05123 0.0
H1097 H 0.14073 0.61267 1.01436 0.0
H1098 H 0.15368 0.72701 0.11455 0.0
H1099 H 0.17998 0.68643 0.08564 0.0
H1100 H 0.18025 0.58964 0.11983 0.0
C1101 C 0.14041 0.52385 0.03358 0.0
C1102 C 0.14912 0.6076 0.03741 0.0
C1103 C 0.15391 0.49579 0.02534 0.0
C1104 C 0.15193 0.70338 0.1227 0.0
C1105 C 0.16674 0.68017 0.10599 0.0
C1106 C 0.1717 0.595 0.0969 0.0
C1107 C 0.1544 0.55165 0.02426 0.0
C1108 C 0.1556 0.57719 0.04634 0.0
C1109 C 0.16058 0.64905 0.11284 0.0
C1110 C 0.16363 0.6253 0.08874 0.0
H1111 H 0.21114 0.52348 0.9786 0.0
H1112 H 0.18762 0.57248 0.99315 0.0
H1113 H 0.17403 0.54787 0.08276 0.0
H1114 H 0.11345 0.65824 0.17473 0.0
H1115 H 0.13934 0.61776 0.14602 0.0
C1116 C 0.75043 0.6417 0.26746 0.0
C1117 C 0.74418 0.61458 0.28383 0.0
C1118 C 0.77819 0.65723 0.2727 0.0
C1119 C 0.85235 0.62507 0.28402 0.0
H1120 H 0.87419 0.70427 0.24839 0.0
C1121 C 0.95445 0.65509 0.19822 0.0
C1122 C 0.94207 0.67082 0.1725 0.0
C1123 C 0.93545 0.6479 0.22334 0.0
C1124 C 0.8687 0.68219 0.25892 0.0
H1125 H 0.75788 0.58536 0.32217 0.0
H1126 H 0.80642 0.61259 0.33149 0.0
H1127 H 0.82896 0.70053 0.28204 0.0
H1128 H 0.89978 0.6853 0.14987 0.0
H1129 H 0.86646 0.67161 0.19316 0.0
H1130 H 0.89064 0.60637 0.25863 0.0
C1131 C 0.79064 0.62155 0.3142 0.0
C1132 C 0.84301 0.6801 0.27827 0.0
C1133 C 0.76312 0.60585 0.30868 0.0
C1134 C 0.90988 0.67365 0.16965 0.0
C1135 C 0.89098 0.6665 0.19464 0.0
C1136 C 0.87813 0.62723 0.26479 0.0
C1137 C 0.79973 0.64553 0.29429 0.0
C1138 C 0.833 0.651 0.28858 0.0
C1139 C 0.90405 0.65583 0.22235 0.0
C1140 C 0.88478 0.6553 0.25025 0.0
H1141 H 0.73563 0.64894 0.24858 0.0
H1142 H 0.78433 0.67581 0.25705 0.0
H1143 H 0.84546 0.60226 0.29174 0.0
H1144 H 0.97919 0.65224 0.20084 0.0
H1145 H 0.94569 0.63882 0.24434 0.0
C1146 C 0.86036 1.02297 0.9895 0.0
C1147 C 0.8689 0.05118 1.00295 0.0
C1148 C 0.87469 0.99581 0.99919 0.0
C1149 C 0.88468 0.98104 0.07576 0.0
H1150 H 0.90227 0.89555 0.05587 0.0
C1151 C 0.91632 0.88817 0.16089 0.0
C1152 C 0.91371 0.85745 0.15104 0.0
C1153 C 0.90288 0.91164 0.14351 0.0
C1154 C 0.89649 0.91927 0.06149 0.0
H1155 H 0.90351 0.07476 0.03027 0.0
H1156 H 0.92822 0.02716 0.04764 0.0
H1157 H 0.90918 0.93542 1.01625 0.0
H1158 H 0.8896 0.82625 0.12033 0.0
H1159 H 0.86573 0.86729 0.09002 0.0
H1160 H 0.87118 0.9652 0.12055 0.0
C1161 C 0.91044 0.0258 0.03005 0.0
C1162 C 0.90125 0.942 0.03908 0.0
C1163 C 0.89623 0.05303 1.0202 0.0
C1164 C 0.89228 0.8499 0.12796 0.0
C1165 C 0.87893 0.8734 0.11039 0.0
C1166 C 0.87952 0.95839 0.09794 0.0
C1167 C 0.89703 0.99721 0.02257 0.0
C1168 C 0.89601 0.97307 0.04636 0.0
C1169 C 0.8868 0.90432 0.11628 0.0
C1170 C 0.88584 0.92736 0.09122 0.0
H1171 H 0.83975 1.02139 0.97532 0.0
H1172 H 0.86447 0.97391 0.99263 0.0
H1173 H 0.87916 1.00483 0.08142 0.0
H1174 H 0.93235 0.89432 0.17913 0.0
H1175 H 0.90894 0.9353 0.14897 0.0
C1176 C 0.22765 0.28168 0.12225 0.0
C1177 C 0.24972 0.30436 0.12916 0.0
C1178 C 0.22957 0.2527 0.1362 0.0
C1179 C 0.28396 0.20427 0.18285 0.0
H1180 H 0.29825 0.16573 0.10299 0.0
C1181 C 0.39234 0.13763 0.16352 0.0
C1182 C 0.38666 0.10598 0.15932 0.0
C1183 C 0.36886 0.15889 0.1577 0.0
C1184 C 0.29403 0.17594 0.12546 0.0
H1185 H 0.28709 0.31741 0.15953 0.0
H1186 H 0.29133 0.26669 0.18327 0.0
H1187 H 0.25972 0.2065 0.10774 0.0
H1188 H 0.35585 0.0726 0.13841 0.0
H1189 H 0.31512 0.10999 0.12726 0.0
H1190 H 0.32015 0.17497 0.19978 0.0
C1191 C 0.27232 0.2708 0.16749 0.0
C1192 C 0.27164 0.19898 0.12845 0.0
C1193 C 0.27009 0.29994 0.15383 0.0
C1194 C 0.36052 0.09682 0.14236 0.0
C1195 C 0.33695 0.11812 0.13645 0.0
C1196 C 0.30649 0.1814 0.17976 0.0
C1197 C 0.25424 0.24614 0.15628 0.0
C1198 C 0.26777 0.21471 0.15675 0.0
C1199 C 0.34012 0.14864 0.14674 0.0
C1200 C 0.31281 0.16848 0.15065 0.0
H1201 H 0.21134 0.28513 0.10352 0.0
H1202 H 0.21472 0.23434 0.12791 0.0
H1203 H 0.28111 0.21559 0.20499 0.0
H1204 H 0.41266 0.14528 0.176 0.0
H1205 H 0.37202 0.18273 0.16473 0.0
C1206 C 0.26096 0.75117 0.41334 0.0
C1207 C 0.24737 0.7485 0.44251 0.0
C1208 C 0.25958 0.7794 0.39784 0.0
C1209 C 0.2655 0.84428 0.37508 0.0
H1210 H 0.3005 0.88776 0.44535 0.0
C1211 C 0.37806 0.90477 0.36228 0.0
C1212 C 0.37682 0.93679 0.36736 0.0
C1213 C 0.35481 0.88595 0.37395 0.0
C1214 C 0.29037 0.87627 0.42557 0.0
H1215 H 0.21641 0.76978 0.47568 0.0
H1216 H 0.21361 0.81907 0.44836 0.0
H1217 H 0.26156 0.84824 0.45384 0.0
H1218 H 0.35472 0.97321 0.39406 0.0
H1219 H 0.31461 0.93968 0.41537 0.0
H1220 H 0.2965 0.87084 0.34719 0.0
C1221 C 0.22609 0.80006 0.43781 0.0
C1222 C 0.26772 0.8539 0.43024 0.0
C1223 C 0.22791 0.77204 0.45352 0.0
C1224 C 0.35583 0.94865 0.38924 0.0
C1225 C 0.33261 0.92966 0.40112 0.0
C1226 C 0.28829 0.8665 0.37047 0.0
C1227 C 0.24458 0.80492 0.4116 0.0
C1228 C 0.25676 0.83614 0.40522 0.0
C1229 C 0.33064 0.89891 0.39129 0.0
C1230 C 0.30221 0.88105 0.3959 0.0
H1231 H 0.27559 0.73289 0.40434 0.0
H1232 H 0.27383 0.78223 0.37743 0.0
H1233 H 0.257 0.83139 0.3554 0.0
H1234 H 0.39457 0.89492 0.34619 0.0
H1235 H 0.35428 0.86181 0.36726 0.0
C1236 C 1.01975 0.55476 0.84762 0.0
C1237 C 0.99433 0.53618 0.85535 0.0
C1238 C 0.04784 0.55056 0.86273 0.0
C1239 C 0.10021 0.50576 0.86474 0.0
H1240 H 0.11629 0.4669 0.94382 0.0
C1241 C 0.20511 0.4286 0.90302 0.0
C1242 C 0.19591 0.40374 0.92183 0.0
C1243 C 0.18286 0.44881 0.89118 0.0
C1244 C 0.11199 0.47774 0.92162 0.0
H1245 H 0.97613 0.50261 0.88764 0.0
H1246 H 0.02534 0.49438 0.91355 0.0
H1247 H 0.07421 0.5044 0.93931 0.0
H1248 H 0.15701 0.3764 0.93753 0.0
H1249 H 0.11812 0.41117 0.91608 0.0
H1250 H 0.13752 0.47821 0.847 0.0
C1251 C 0.02392 0.51241 0.89619 0.0
C1252 C 0.08822 0.49935 0.91916 0.0
C1253 C 0.99567 0.51698 0.88134 0.0
C1254 C 0.16453 0.39574 0.92343 0.0
C1255 C 0.14235 0.41583 0.91161 0.0
C1256 C 0.12416 0.4843 0.86731 0.0
C1257 C 0.05076 0.52721 0.88511 0.0
C1258 C 0.08114 0.51246 0.89036 0.0
C1259 C 0.15153 0.44371 0.8978 0.0
C1260 C 0.12913 0.46912 0.8954 0.0
H1261 H 1.01875 0.57019 0.82787 0.0
H1262 H 0.068 0.56291 0.85441 0.0
H1263 H 0.09516 0.51515 0.84207 0.0
H1264 H 0.22922 0.4351 0.90137 0.0
H1265 H 0.19028 0.47003 0.88009 0.0
C1266 C 0.6643 0.63588 0.36165 0.0
C1267 C 0.66772 0.60381 0.36531 0.0
C1268 C 0.68824 0.65558 0.37006 0.0
C1269 C 0.75677 0.66763 0.41467 0.0
H1270 H 0.77889 0.72059 0.34549 0.0
C1271 C 0.81698 0.77541 0.44298 0.0
C1272 C 0.79712 0.79958 0.43426 0.0
C1273 C 0.8168 0.74769 0.42665 0.0
C1274 C 0.7734 0.70567 0.36486 0.0
H1275 H 0.69628 0.56766 0.38553 0.0
H1276 H 0.73774 0.60253 0.40128 0.0
H1277 H 0.74238 0.67819 0.33792 0.0
H1278 H 0.76535 0.81623 0.39943 0.0
H1279 H 0.76376 0.76749 0.37157 0.0
H1280 H 0.78543 0.69631 0.44234 0.0
C1281 C 0.71705 0.61211 0.39081 0.0
C1282 C 0.75243 0.6816 0.3606 0.0
C1283 C 0.69307 0.5923 0.38225 0.0
C1284 C 0.7805 0.79757 0.40664 0.0
C1285 C 0.77988 0.76964 0.39058 0.0
C1286 C 0.7775 0.69187 0.41904 0.0
C1287 C 0.71555 0.6435 0.38279 0.0
C1288 C 0.74268 0.66368 0.3859 0.0
C1289 C 0.79603 0.74367 0.40205 0.0
C1290 C 0.78447 0.71235 0.3946 0.0
H1291 H 0.64482 0.64536 0.34899 0.0
H1292 H 0.68625 0.68001 0.36475 0.0
H1293 H 0.74976 0.65377 0.43434 0.0
H1294 H 0.83067 0.77703 0.46389 0.0
H1295 H 0.83025 0.7284 0.43538 0.0
C1296 C 0.34612 0.62819 0.39928 0.0
C1297 C 0.35276 0.65114 0.4211 0.0
C1298 C 0.37032 0.61321 0.38416 0.0
C1299 C 0.4559 0.6081 0.3791 0.0
H1300 H 0.44158 0.52352 0.40608 0.0
C1301 C 0.55714 0.53112 0.3856 0.0
C1302 C 0.55361 0.51025 0.36114 0.0
C1303 C 0.53092 0.54356 0.39963 0.0
C1304 C 0.44579 0.54711 0.39874 0.0
H1305 H 0.38811 0.68142 0.43929 0.0
H1306 H 0.43033 0.6556 0.41293 0.0
H1307 H 0.39845 0.56007 0.40423 0.0
H1308 H 0.52158 0.48057 0.33678 0.0
H1309 H 0.4758 0.50204 0.36148 0.0
H1310 H 0.50332 0.59527 0.37414 0.0
C1311 C 0.4069 0.64844 0.40776 0.0
C1312 C 0.42114 0.56784 0.39695 0.0
C1313 C 0.38274 0.66327 0.42292 0.0
C1314 C 0.52452 0.49719 0.35527 0.0
C1315 C 0.49837 0.50941 0.36947 0.0
C1316 C 0.48054 0.58749 0.38115 0.0
C1317 C 0.40103 0.62144 0.39076 0.0
C1318 C 0.42603 0.59857 0.38725 0.0
C1319 C 0.50141 0.53482 0.3893 0.0
C1320 C 0.47571 0.55695 0.39125 0.0
H1321 H 0.32306 0.61875 0.39734 0.0
H1322 H 0.36526 0.59294 0.37037 0.0
H1323 H 0.46026 0.63162 0.37159 0.0
H1324 H 0.57951 0.54121 0.39067 0.0
H1325 H 0.53362 0.56277 0.41545 0.0
C1326 C 0.1568 0.90647 0.65706 0.0
C1327 C 0.16065 0.93851 0.65361 0.0
C1328 C 0.18158 0.88679 0.65113 0.0
C1329 C 0.25636 0.87249 0.61952 0.0
H1330 H 0.27139 0.83598 0.7003 0.0
C1331 C 0.32074 0.76586 0.61844 0.0
C1332 C 0.2983 0.744 0.62682 0.0
C1333 C 0.32004 0.79529 0.63143 0.0
C1334 C 0.26803 0.84648 0.6778 0.0
H1335 H 0.18955 0.97419 0.63338 0.0
H1336 H 0.23255 0.93923 0.62179 0.0
H1337 H 0.2319 0.87605 0.69434 0.0
H1338 H 0.26152 0.73291 0.65873 0.0
H1339 H 0.25943 0.78441 0.6809 0.0
H1340 H 0.29031 0.84133 0.60221 0.0
C1341 C 0.21119 0.9298 0.63087 0.0
C1342 C 0.2453 0.86911 0.67432 0.0
C1343 C 0.18637 0.94962 0.63703 0.0
C1344 C 0.2788 0.74973 0.65191 0.0
C1345 C 0.27782 0.77931 0.66466 0.0
C1346 C 0.27895 0.84967 0.6229 0.0
C1347 C 0.20976 0.89897 0.64066 0.0
C1348 C 0.2381 0.88071 0.64484 0.0
C1349 C 0.2962 0.80313 0.65204 0.0
C1350 C 0.28343 0.83491 0.6517 0.0
H1351 H 0.13681 0.89729 0.6691 0.0
H1352 H 0.1798 0.86267 0.65777 0.0
H1353 H 0.2514 0.88168 0.59674 0.0
H1354 H 0.33646 0.76137 0.59941 0.0
H1355 H 0.33514 0.81296 0.62206 0.0
C1356 C 1.00271 0.51813 0.64484 0.0
C1357 C 0.99655 0.49722 0.66869 0.0
C1358 C 0.03267 0.52025 0.63301 0.0
C1359 C 0.10016 0.52856 0.61888 0.0
H1360 H 0.13772 0.54301 0.69917 0.0
C1361 C 0.1655 0.63633 0.63913 0.0
C1362 C 0.19748 0.63097 0.6405 0.0
C1363 C 0.14512 0.61239 0.64585 0.0
C1364 C 0.12787 0.53857 0.6766 0.0
H1365 H 1.01408 0.4584 0.69509 0.0
H1366 H 0.06636 0.46169 0.67403 0.0
H1367 H 0.09515 0.50643 0.69454 0.0
H1368 H 0.23308 0.59962 0.65706 0.0
H1369 H 0.19715 0.55784 0.66943 0.0
H1370 H 0.13143 0.56283 0.60167 0.0
C1371 C 0.04862 0.47689 0.66487 0.0
C1372 C 0.10375 0.51739 0.67372 0.0
C1373 C 1.01877 0.47498 0.67686 0.0
C1374 C 0.20849 0.60408 0.65526 0.0
C1375 C 0.18804 0.58 0.66196 0.0
C1376 C 0.12413 0.54983 0.62183 0.0
C1377 C 0.05646 0.5015 0.64519 0.0
C1378 C 0.08841 0.51365 0.64519 0.0
C1379 C 0.15665 0.58336 0.65471 0.0
C1380 C 0.13678 0.55617 0.65103 0.0
H1381 H 0.9857 0.53541 0.63832 0.0
H1382 H 0.03788 0.53936 0.61767 0.0
H1383 H 0.08909 0.52581 0.5966 0.0
H1384 H 0.15648 0.6571 0.62829 0.0
H1385 H 0.12071 0.61551 0.64098 0.0
C1386 C 0.02774 0.06667 0.67647 0.0
C1387 C 0.04757 0.0427 0.6672 0.0
C1388 C 0.99876 0.06987 0.66285 0.0
C1389 C 0.94438 0.0264 0.61175 0.0
H1390 H 0.90513 1.00925 0.69078 0.0
C1391 C 0.8845 0.91538 0.63005 0.0
C1392 C 0.85226 0.91804 0.63269 0.0
C1393 C 0.90301 0.94094 0.63598 0.0
C1394 C 0.91534 1.01453 0.66851 0.0
H1395 H 0.05578 1.00676 0.63362 0.0
H1396 H 1.00482 1.01128 0.61034 0.0
H1397 H 0.9478 0.04559 0.68822 0.0
H1398 H 0.81487 0.94627 0.65088 0.0
H1399 H 0.84763 0.99085 0.66196 0.0
H1400 H 0.91395 0.99233 0.59303 0.0
C1401 C 1.01127 0.02805 0.62773 0.0
C1402 C 0.93961 0.03565 0.66679 0.0
C1403 C 0.04046 0.02513 0.64116 0.0
C1404 C 0.83964 0.94391 0.64795 0.0
C1405 C 0.85821 0.96962 0.65386 0.0
C1406 C 0.92043 1.00499 0.6136 0.0
C1407 C 0.98914 0.04838 0.64059 0.0
C1408 C 0.95609 0.03968 0.63888 0.0
C1409 C 0.88945 0.96889 0.64539 0.0
C1410 C 0.9074 0.99746 0.64237 0.0
H1411 H 0.03345 0.08089 0.69623 0.0
H1412 H 0.98256 0.08639 0.67251 0.0
H1413 H 0.95607 0.02968 0.58983 0.0
H1414 H 0.89482 0.89543 0.6189 0.0
H1415 H 0.92744 0.9398 0.63038 0.0
C1416 C 0.65055 0.8553 0.59428 0.0
C1417 C 0.66681 0.881 0.60579 0.0
C1418 C 0.64305 0.83084 0.61402 0.0
C1419 C 0.67921 0.79637 0.6799 0.0
H1420 H 0.60145 0.75809 0.7021 0.0
C1421 C 0.64374 0.76927 0.79862 0.0
C1422 C 0.6175 0.75102 0.80317 0.0
C1423 C 0.65827 0.76928 0.76983 0.0
C1424 C 0.62369 0.76751 0.69545 0.0
H1425 H 0.68146 0.90469 0.64731 0.0
H1426 H 0.66744 0.86247 0.68188 0.0
H1427 H 0.60305 0.79467 0.65941 0.0
H1428 H 0.5891 0.71435 0.78448 0.0
H1429 H 0.61491 0.71384 0.7343 0.0
H1430 H 0.69962 0.77077 0.71702 0.0
C1431 C 0.6621 0.86047 0.6575 0.0
C1432 C 0.62437 0.78874 0.67119 0.0
C1433 C 0.66952 0.88482 0.63785 0.0
C1434 C 0.60909 0.72906 0.7809 0.0
C1435 C 0.62385 0.72874 0.7523 0.0
C1436 C 0.67863 0.77496 0.70398 0.0
C1437 C 0.65118 0.83253 0.64528 0.0
C1438 C 0.65168 0.80475 0.66479 0.0
C1439 C 0.64648 0.75101 0.74558 0.0
C1440 C 0.65038 0.7621 0.71346 0.0
H1441 H 0.64765 0.852 0.56967 0.0
H1442 H 0.63385 0.80965 0.60441 0.0
H1443 H 0.70075 0.80801 0.67452 0.0
H1444 H 0.65057 0.78618 0.81575 0.0
H1445 H 0.67583 0.78661 0.76556 0.0
C1446 C 1.01063 0.15572 0.50008 0.0
C1447 C 0.99686 0.18474 0.49671 0.0
C1448 C 1.00704 0.1397 0.5278 0.0
C1449 C 1.0087 0.17397 0.60211 0.0
H1450 H 0.04925 0.09556 0.6172 0.0
C1451 C 0.10585 0.14524 0.69255 0.0
C1452 C 0.12868 0.12579 0.67979 0.0
C1453 C 0.08051 0.15416 0.67463 0.0
C1454 C 0.03764 0.11749 0.61355 0.0
H1455 H 0.96314 0.21683 0.51527 0.0
H1456 H 0.95637 0.18855 0.56365 0.0
H1457 H 1.00721 0.09827 0.57984 0.0
H1458 H 0.14726 0.10728 0.63709 0.0
H1459 H 0.1032 0.12313 0.60587 0.0
H1460 H 0.04013 0.19326 0.63509 0.0
C1461 C 0.97087 0.17859 0.54581 0.0
C1462 C 1.01343 0.11898 0.59243 0.0
C1463 C 0.97498 0.19492 0.51837 0.0
C1464 C 0.1294 0.12137 0.64768 0.0
C1465 C 0.10397 0.12991 0.62996 0.0
C1466 C 0.03245 0.1723 0.62378 0.0
C1467 C 0.98985 0.15296 0.5522 0.0
C1468 C 1.00098 0.14784 0.58417 0.0
C1469 C 0.0783 0.14391 0.64406 0.0
C1470 C 0.0486 0.14456 0.62767 0.0
H1471 H 0.02689 0.1472 0.48301 0.0
H1472 H 1.02148 0.11953 0.53142 0.0
H1473 H 0.99944 0.19666 0.59682 0.0
H1474 H 0.10507 0.14976 0.71715 0.0
H1475 H 0.06136 0.16616 0.68542 0.0
C1476 C 0.40543 0.78354 0.7954 0.0
C1477 C 0.43237 0.80088 0.7992 0.0
C1478 C 0.39128 0.78257 0.76649 0.0
C1479 C 0.42759 0.77963 0.69256 0.0
H1480 H 0.35112 0.73702 0.67426 0.0
C1481 C 0.40089 0.6871 0.59625 0.0
C1482 C 0.38378 0.66235 0.60872 0.0
C1483 C 0.40906 0.71197 0.61505 0.0
C1484 C 0.37249 0.74924 0.67883 0.0
H1485 H 0.4623 0.83552 0.77895 0.0
H1486 H 0.43704 0.83457 0.72857 0.0
H1487 H 0.3514 0.77738 0.71353 0.0
H1488 H 0.36882 0.64029 0.65114 0.0
H1489 H 0.38404 0.68321 0.6841 0.0
H1490 H 0.44875 0.75038 0.65855 0.0
C1491 C 0.42738 0.82087 0.74721 0.0
C1492 C 0.37261 0.7724 0.70112 0.0
C1493 C 0.44185 0.82138 0.77592 0.0
C1494 C 0.3813 0.65949 0.64092 0.0
C1495 C 0.38944 0.68425 0.65966 0.0
C1496 C 0.4273 0.75683 0.66985 0.0
C1497 C 0.40414 0.799 0.74139 0.0
C1498 C 0.40067 0.78605 0.70995 0.0
C1499 C 0.40088 0.71154 0.64636 0.0
C1500 C 0.4002 0.74016 0.66447 0.0
H1501 H 0.39769 0.76786 0.81338 0.0
H1502 H 0.37314 0.76569 0.76304 0.0
H1503 H 0.44972 0.78961 0.69865 0.0
H1504 H 0.40378 0.68959 0.57152 0.0
H1505 H 0.41865 0.73264 0.6046 0.0
C1506 C 0.03538 0.39634 0.49866 0.0
C1507 C 0.05269 0.36909 0.49626 0.0
C1508 C 0.02997 0.4088 0.52787 0.0
C1509 C 1.02295 0.39763 0.60881 0.0
H1510 H 0.94994 0.35003 0.58639 0.0
C1511 C 0.92818 0.38584 0.69466 0.0
C1512 C 0.90612 0.40686 0.68319 0.0
C1513 C 0.94845 0.37134 0.67429 0.0
C1514 C 0.97048 0.36271 0.59308 0.0
H1515 H 0.08459 0.33829 0.51965 0.0
H1516 H 0.0744 0.35957 0.57061 0.0
H1517 H 0.99031 0.35936 0.54809 0.0
H1518 H 0.88281 0.42369 0.6422 0.0
H1519 H 0.91736 0.39738 0.60656 0.0
H1520 H 1.00235 0.40195 0.65359 0.0
C1521 C 0.06492 0.37136 0.55061 0.0
C1522 C 0.9932 0.36853 0.57122 0.0
C1523 C 0.07036 0.35888 0.5215 0.0
C1524 C 0.9001 0.408 0.65142 0.0
C1525 C 0.9199 0.39292 0.63108 0.0
C1526 C 1.00009 0.39172 0.63086 0.0
C1527 C 0.04128 0.39323 0.5541 0.0
C1528 C 1.01891 0.38696 0.57864 0.0
C1529 C 0.94589 0.37711 0.64256 0.0
C1530 C 0.97328 0.37506 0.62273 0.0
H1531 H 1.02204 0.40483 0.4792 0.0
H1532 H 1.01209 0.42625 0.53027 0.0
H1533 H 0.04299 0.41134 0.6149 0.0
H1534 H 0.93288 0.38418 0.7192 0.0
H1535 H 0.96811 0.35871 0.68339 0.0
C1536 C 0.64301 0.17947 0.96093 0.0
C1537 C 0.66082 0.1534 0.95335 0.0
C1538 C 0.62971 0.19706 0.9374 0.0
C1539 C 0.62195 0.2029 0.85213 0.0
H1540 H 0.66191 0.28252 0.86389 0.0
C1541 C 0.64519 0.2699 0.7483 0.0
C1542 C 0.62104 0.29151 0.74798 0.0
C1543 C 0.65684 0.25973 0.77656 0.0
C1544 C 0.65091 0.26029 0.86047 0.0
H1545 H 0.67355 0.12142 0.91714 0.0
H1546 H 0.64981 0.1514 0.8762 0.0
H1547 H 0.65533 0.24748 0.90797 0.0
H1548 H 0.59499 0.32467 0.77498 0.0
H1549 H 0.61563 0.30712 0.82438 0.0
H1550 H 0.61856 0.21524 0.80451 0.0
C1551 C 0.6465 0.159 0.89981 0.0
C1552 C 0.64646 0.24055 0.88563 0.0
C1553 C 0.66003 0.14166 0.92325 0.0
C1554 C 0.61333 0.30752 0.77509 0.0
C1555 C 0.62522 0.2976 0.80329 0.0
C1556 C 0.6268 0.22236 0.82705 0.0
C1557 C 0.63385 0.18823 0.90645 0.0
C1558 C 0.63236 0.21145 0.88153 0.0
C1559 C 0.64439 0.27147 0.80417 0.0
C1560 C 0.64187 0.25085 0.83094 0.0
H1561 H 0.64328 0.18879 0.98415 0.0
H1562 H 0.61934 0.21918 0.94308 0.0
H1563 H 0.61088 0.18076 0.84839 0.0
H1564 H 0.65152 0.25749 0.72748 0.0
H1565 H 0.67197 0.23972 0.77696 0.0
C1566 C 0.525 0.16271 0.54707 0.0
C1567 C 0.54419 0.18871 0.54772 0.0
C1568 C 0.51823 0.14877 0.51887 0.0
C1569 C 0.50667 0.18101 0.44309 0.0
H1570 H 0.46888 0.1013 0.42807 0.0
C1571 C 0.42817 0.14423 0.33951 0.0
C1572 C 0.40349 0.12497 0.34833 0.0
C1573 C 0.44876 0.15506 0.3618 0.0
C1574 C 0.47935 0.12369 0.43211 0.0
H1575 H 0.5759 0.21721 0.52144 0.0
H1576 H 0.56492 0.19215 0.47221 0.0
H1577 H 0.50738 0.10634 0.469 0.0
H1578 H 0.37735 0.10694 0.38709 0.0
H1579 H 0.41291 0.12652 0.42605 0.0
H1580 H 0.47797 0.19838 0.40654 0.0
C1581 C 0.55416 0.1832 0.493 0.0
C1582 C 0.50152 0.12647 0.45525 0.0
C1583 C 0.56054 0.19742 0.5211 0.0
C1584 C 0.39651 0.12136 0.37979 0.0
C1585 C 0.41704 0.13214 0.40199 0.0
C1586 C 0.48468 0.17813 0.41975 0.0
C1587 C 0.53088 0.16067 0.4913 0.0
C1588 C 0.51445 0.15544 0.46184 0.0
C1589 C 0.44443 0.14695 0.39288 0.0
C1590 C 0.46996 0.14977 0.41507 0.0
H1591 H 0.51226 0.15569 0.56749 0.0
H1592 H 0.5003 0.13131 0.5184 0.0
H1593 H 0.51585 0.20381 0.4478 0.0
H1594 H 0.43404 0.14744 0.31536 0.0
H1595 H 0.4696 0.16688 0.35442 0.0
C1596 C 0.38525 0.40018 0.92489 0.0
C1597 C 0.3846 0.38809 0.95488 0.0
C1598 C 0.4006 0.38418 0.90168 0.0
C1599 C 0.40627 0.30352 0.886 0.0
H1600 H 0.43465 0.33308 0.80634 0.0
C1601 C 0.44033 0.2415 0.77258 0.0
C1602 C 0.43244 0.2587 0.74619 0.0
C1603 C 0.42887 0.25035 0.80129 0.0
C1604 C 0.42636 0.32473 0.82848 0.0
H1605 H 0.40333 0.35325 0.98577 0.0
H1606 H 0.4302 0.32502 0.94496 0.0
H1607 H 0.44012 0.36609 0.85155 0.0
H1608 H 0.40195 0.29371 0.72738 0.0
H1609 H 0.382 0.30938 0.77772 0.0
H1610 H 0.39272 0.26196 0.86251 0.0
C1611 C 0.41863 0.34654 0.93927 0.0
C1612 C 0.42998 0.34335 0.85431 0.0
C1613 C 0.40354 0.36285 0.96261 0.0
C1614 C 0.40839 0.28036 0.74761 0.0
C1615 C 0.3971 0.28938 0.77638 0.0
C1616 C 0.40304 0.28466 0.86009 0.0
C1617 C 0.41508 0.3558 0.90835 0.0
C1618 C 0.41906 0.33336 0.88312 0.0
C1619 C 0.4098 0.27646 0.80336 0.0
C1620 C 0.41208 0.29569 0.83107 0.0
H1621 H 0.37085 0.4198 0.91868 0.0
H1622 H 0.39758 0.39201 0.87807 0.0
H1623 H 0.39717 0.29542 0.9079 0.0
H1624 H 0.45867 0.22438 0.77163 0.0
H1625 H 0.43867 0.23995 0.8219 0.0
C1626 C 0.66107 0.41621 0.37472 0.0
C1627 C 0.64694 0.41445 0.34568 0.0
C1628 C 0.64549 0.40537 0.40068 0.0
C1629 C 0.56439 0.40597 0.41983 0.0
H1630 H 0.59378 0.38501 0.50175 0.0
C1631 C 0.49775 0.37178 0.52764 0.0
C1632 C 0.51295 0.37774 0.55559 0.0
C1633 C 0.50846 0.38537 0.50053 0.0
C1634 C 0.58554 0.39161 0.47902 0.0
H1635 H 0.6093 0.39448 0.31967 0.0
H1636 H 0.58256 0.37427 0.3648 0.0
H1637 H 0.62747 0.37667 0.45745 0.0
H1638 H 0.54611 0.40698 0.5789 0.0
H1639 H 0.5652 0.43052 0.53133 0.0
H1640 H 0.52202 0.41999 0.44162 0.0
C1641 C 0.60491 0.38514 0.36784 0.0
C1642 C 0.60462 0.38631 0.4537 0.0
C1643 C 0.62051 0.39616 0.3419 0.0
C1644 C 0.5344 0.4019 0.55737 0.0
C1645 C 0.54536 0.41527 0.53019 0.0
C1646 C 0.54514 0.41093 0.44521 0.0
C1647 C 0.61586 0.39244 0.39748 0.0
C1648 C 0.5943 0.39355 0.42387 0.0
C1649 C 0.5346 0.40451 0.50155 0.0
C1650 C 0.55572 0.40405 0.47499 0.0
H1651 H 0.68186 0.42975 0.37785 0.0
H1652 H 0.65483 0.4109 0.42321 0.0
H1653 H 0.55609 0.41262 0.39716 0.0
H1654 H 0.48068 0.3535 0.52612 0.0
H1655 H 0.49951 0.37709 0.47868 0.0
C1656 C 0.76918 0.60264 0.73419 0.0
C1657 C 0.79782 0.61047 0.74725 0.0
C1658 C 0.7421 0.61545 0.74605 0.0
C1659 C 0.72315 0.62468 0.82305 0.0
H1660 H 0.64136 0.65195 0.79848 0.0
C1661 C 0.62996 0.66516 0.90497 0.0
C1662 C 0.59925 0.66499 0.89465 0.0
C1663 C 0.65283 0.65089 0.88745 0.0
C1664 C 0.66393 0.64348 0.80541 0.0
H1665 H 0.82167 0.64195 0.77791 0.0
H1666 H 0.7742 0.66414 0.79893 0.0
H1667 H 0.68384 0.65367 0.76105 0.0
H1668 H 0.56715 0.64515 0.86174 0.0
H1669 H 0.60719 0.61976 0.83122 0.0
H1670 H 0.70354 0.61384 0.86706 0.0
C1671 C 0.7726 0.64801 0.77986 0.0
C1672 C 0.68822 0.64514 0.7842 0.0
C1673 C 0.79971 0.63542 0.76776 0.0
C1674 C 0.59081 0.64575 0.86998 0.0
C1675 C 0.61375 0.63161 0.85225 0.0
C1676 C 0.6989 0.62259 0.84405 0.0
C1677 C 0.7438 0.63587 0.77107 0.0
C1678 C 0.71809 0.63645 0.7932 0.0
C1679 C 0.64507 0.63633 0.8595 0.0
C1680 C 0.66918 0.63253 0.83567 0.0
H1681 H 0.76745 0.5837 0.7179 0.0
H1682 H 0.72005 0.60604 0.73877 0.0
H1683 H 0.7459 0.61674 0.83005 0.0
H1684 H 0.6368 0.67966 0.92418 0.0
H1685 H 0.67674 0.65471 0.89384 0.0
C1686 C 0.90102 0.21208 0.4414 0.0
C1687 C 0.91638 0.20084 0.415 0.0
C1688 C 0.89227 0.19162 0.46484 0.0
C1689 C 0.92507 0.12307 0.49624 0.0
H1690 H 0.84664 0.10166 0.53371 0.0
C1691 C 0.88963 1.0036 0.52635 0.0
C1692 C 0.86364 0.99941 0.5451 0.0
C1693 C 0.90342 0.03271 0.52463 0.0
C1694 C 0.86904 0.10803 0.52447 0.0
H1695 H 0.92855 0.15969 0.38923 0.0
H1696 H 0.91235 0.12395 0.42969 0.0
H1697 H 0.84931 0.14525 0.49813 0.0
H1698 H 0.8349 1.01954 0.58083 0.0
H1699 H 0.85943 0.07027 0.57838 0.0
H1700 H 0.94467 0.08511 0.52129 0.0
C1701 C 0.90846 0.14851 0.43291 0.0
C1702 C 0.87034 0.1328 0.50383 0.0
C1703 C 0.91715 0.16888 0.40958 0.0
C1704 C 0.85463 1.02278 0.56569 0.0
C1705 C 0.86865 0.05171 0.5643 0.0
C1706 C 0.92389 0.09854 0.51712 0.0
C1707 C 0.89827 0.15997 0.46146 0.0
C1708 C 0.89794 0.13915 0.48827 0.0
C1709 C 0.89122 0.05766 0.54173 0.0
C1710 C 0.89543 0.0895 0.52985 0.0
H1711 H 0.89984 0.23666 0.44599 0.0
H1712 H 0.88384 0.20075 0.48659 0.0
H1713 H 0.94678 0.12828 0.48484 0.0
H1714 H 0.89693 0.98565 0.51047 0.0
H1715 H 0.92092 0.0364 0.50709 0.0
C1716 C 0.24514 0.90206 0.76748 0.0
C1717 C 0.24451 0.92633 0.74605 0.0
C1718 C 0.27359 0.89073 0.77762 0.0
C1719 C 0.35724 0.89666 0.77835 0.0
H1720 H 0.34378 0.93866 0.85662 0.0
C1721 C 0.45569 0.90524 0.8623 0.0
C1722 C 0.44717 0.88831 0.88866 0.0
C1723 C 0.4328 0.91786 0.84338 0.0
C1724 C 0.34791 0.92706 0.83483 0.0
H1725 H 0.27131 0.95286 0.71309 0.0
H1726 H 0.32105 0.93285 0.73069 0.0
H1727 H 0.30064 0.93121 0.82125 0.0
H1728 H 0.40964 0.8764 0.91952 0.0
H1729 H 0.3698 0.89915 0.88729 0.0
H1730 H 0.40437 0.89144 0.79248 0.0
C1731 C 0.30003 0.9229 0.74006 0.0
C1732 C 0.32325 0.92239 0.81485 0.0
C1733 C 0.27163 0.93444 0.73012 0.0
C1734 C 0.41653 0.88925 0.89911 0.0
C1735 C 0.39373 0.90219 0.88049 0.0
C1736 C 0.38199 0.90096 0.79862 0.0
C1737 C 0.30109 0.9036 0.76604 0.0
C1738 C 0.32761 0.90654 0.78688 0.0
C1739 C 0.40151 0.9141 0.85124 0.0
C1740 C 0.37734 0.9157 0.82731 0.0
H1741 H 0.22435 0.89538 0.77982 0.0
H1742 H 0.27414 0.87552 0.79755 0.0
H1743 H 0.36103 0.88503 0.75651 0.0
H1744 H 0.47933 0.90487 0.85392 0.0
H1745 H 0.43935 0.92758 0.82123 0.0
C1746 C 0.19026 0.52254 0.5635 0.0
C1747 C 0.18172 0.54973 0.54793 0.0
C1748 C 0.1784 0.49428 0.55382 0.0
C1749 C 0.17621 0.47251 0.4787 0.0
H1750 H 0.14765 0.39059 0.50085 0.0
C1751 C 0.13989 0.38077 0.39516 0.0
C1752 C 0.13935 0.35006 0.40543 0.0
C1753 C 0.15425 0.40319 0.41303 0.0
C1754 C 0.15654 0.41321 0.49474 0.0
H1755 H 0.14965 0.5703 0.51546 0.0
H1756 H 0.12918 0.52075 0.49817 0.0
H1757 H 0.14142 0.43319 0.53766 0.0
H1758 H 0.15822 0.31731 0.4385 0.0
H1759 H 0.18328 0.35665 0.4699 0.0
H1760 H 0.19159 0.45296 0.43608 0.0
C1761 C 0.14499 0.5211 0.51759 0.0
C1762 C 0.1523 0.43752 0.5155 0.0
C1763 C 0.15668 0.54941 0.52745 0.0
C1764 C 0.15812 0.34103 0.43035 0.0
C1765 C 0.17218 0.36354 0.44852 0.0
C1766 C 0.18081 0.44828 0.45821 0.0
C1767 C 0.15837 0.4935 0.52844 0.0
C1768 C 0.16123 0.46744 0.50708 0.0
C1769 C 0.16793 0.39493 0.44134 0.0
C1770 C 0.17027 0.41858 0.46564 0.0
H1771 H 0.20926 0.52265 0.57985 0.0
H1772 H 0.1887 0.47317 0.56268 0.0
H1773 H 0.18436 0.49536 0.47237 0.0
H1774 H 0.12577 0.38802 0.37575 0.0
H1775 H 0.15086 0.42722 0.40674 0.0
C1776 C 0.63752 0.38299 0.66762 0.0
C1777 C 0.60527 0.38566 0.67009 0.0
C1778 C 0.65596 0.3895 0.69307 0.0
C1779 C 0.66914 0.42406 0.76504 0.0
H1780 H 0.70963 0.3455 0.782 0.0
C1781 C 0.79354 0.39754 0.77079 0.0
C1782 C 0.80151 0.42372 0.78778 0.0
C1783 C 0.76472 0.38388 0.77555 0.0
C1784 C 0.69792 0.36739 0.77835 0.0
H1785 H 0.56777 0.40436 0.69786 0.0
H1786 H 0.60048 0.41648 0.74223 0.0
H1787 H 0.66608 0.34762 0.74618 0.0
H1788 H 0.78966 0.45277 0.8267 0.0
H1789 H 0.73917 0.42892 0.83509 0.0
H1790 H 0.70281 0.44458 0.79427 0.0
C1791 C 0.61107 0.40789 0.72123 0.0
C1792 C 0.6732 0.36864 0.75776 0.0
C1793 C 0.59254 0.40135 0.69564 0.0
C1794 C 0.78317 0.43294 0.81288 0.0
C1795 C 0.75449 0.41918 0.81781 0.0
C1796 C 0.694 0.42287 0.7855 0.0
C1797 C 0.64235 0.3995 0.72074 0.0
C1798 C 0.66038 0.39731 0.74932 0.0
C1799 C 0.74378 0.39672 0.79707 0.0
C1800 C 0.71035 0.39492 0.79007 0.0
H1801 H 0.64795 0.37155 0.6479 0.0
H1802 H 0.68042 0.38396 0.6921 0.0
H1803 H 0.65912 0.44626 0.75903 0.0
H1804 H 0.80778 0.39 0.75159 0.0
H1805 H 0.75738 0.36634 0.75931 0.0
C1806 C 0.63718 0.17018 0.65398 0.0
C1807 C 0.63717 0.20021 0.64188 0.0
C1808 C 0.65087 0.14637 0.63735 0.0
C1809 C 0.65189 0.13144 0.55637 0.0
H1810 H 0.67803 0.04999 0.58326 0.0
C1811 C 0.68314 1.0198 0.49148 0.0
C1812 C 0.67609 0.99304 0.50846 0.0
C1813 C 0.671 0.04814 0.5007 0.0
C1814 C 0.67024 0.07262 0.57569 0.0
H1815 H 0.65595 0.23046 0.60657 0.0
H1816 H 0.67999 0.18864 0.57732 0.0
H1817 H 0.68651 0.09421 0.61693 0.0
H1818 H 0.64612 0.97303 0.54317 0.0
H1819 H 0.62507 1.02273 0.55958 0.0
H1820 H 0.63603 0.10946 0.51481 0.0
C1821 C 0.66906 0.18335 0.59924 0.0
C1822 C 0.67561 0.09788 0.59468 0.0
C1823 C 0.65564 0.20727 0.61615 0.0
C1824 C 0.65199 0.9936 0.53007 0.0
C1825 C 0.64002 1.022 0.53946 0.0
C1826 C 0.6469 0.10608 0.53712 0.0
C1827 C 0.66433 0.15254 0.60841 0.0
C1828 C 0.66578 0.1274 0.58558 0.0
C1829 C 0.65219 0.04944 0.52703 0.0
C1830 C 0.65521 0.07645 0.54716 0.0
H1831 H 0.62317 0.16449 0.67398 0.0
H1832 H 0.64707 0.12286 0.64516 0.0
H1833 H 0.64351 0.1539 0.549 0.0
H1834 H 0.70142 1.01949 0.4743 0.0
H1835 H 0.68034 0.06909 0.49059 0.0
C1836 C 0.23883 0.14056 0.75446 0.0
C1837 C 0.24007 0.11565 0.77513 0.0
C1838 C 0.26635 0.15368 0.74408 0.0
C1839 C 0.35127 0.14821 0.74497 0.0
H1840 H 0.33942 0.12054 0.66039 0.0
C1841 C 0.45366 0.14685 0.66835 0.0
C1842 C 0.44796 0.16921 0.64557 0.0
C1843 C 0.42886 0.13151 0.68202 0.0
C1844 C 0.34306 0.12811 0.68396 0.0
H1845 H 0.26895 0.08966 0.80677 0.0
H1846 H 0.317 0.11271 0.78883 0.0
H1847 H 0.29498 0.12536 0.69469 0.0
H1848 H 0.41391 0.18842 0.6143 0.0
H1849 H 0.37067 0.16168 0.63778 0.0
H1850 H 0.39929 0.15163 0.73407 0.0
C1851 C 0.29532 0.12178 0.78007 0.0
C1852 C 0.31767 0.1315 0.70338 0.0
C1853 C 0.26787 0.10851 0.79025 0.0
C1854 C 0.41852 0.17154 0.63228 0.0
C1855 C 0.39378 0.15614 0.64577 0.0
C1856 C 0.37671 0.14511 0.72543 0.0
C1857 C 0.29475 0.14187 0.75463 0.0
C1858 C 0.32155 0.14202 0.73385 0.0
C1859 C 0.39853 0.13853 0.67267 0.0
C1860 C 0.37274 0.13535 0.69463 0.0
H1861 H 0.21743 0.14657 0.74285 0.0
H1862 H 0.26559 0.16972 0.72481 0.0
H1863 H 0.35472 0.15571 0.76859 0.0
H1864 H 0.47633 0.14458 0.67868 0.0
H1865 H 0.43305 0.11732 0.70225 0.0
C1866 C 0.35999 0.52968 0.48405 0.0
C1867 C 0.3687 0.55247 0.50533 0.0
C1868 C 0.37462 0.50099 0.48441 0.0
C1869 C 0.42814 0.45343 0.53272 0.0
H1870 H 0.35119 0.4128 0.55541 0.0
C1871 C 0.42119 0.38967 0.64347 0.0
C1872 C 0.41849 0.35765 0.63917 0.0
C1873 C 0.4121 0.40966 0.61998 0.0
C1874 C 0.37283 0.42354 0.54875 0.0
H1875 H 0.40243 0.56604 0.53951 0.0
H1876 H 0.4274 0.51569 0.54118 0.0
H1877 H 0.3507 0.4537 0.51678 0.0
H1878 H 0.39725 0.32187 0.61121 0.0
H1879 H 0.38077 0.3571 0.57038 0.0
H1880 H 0.44962 0.42465 0.56679 0.0
C1881 C 0.40968 0.51956 0.52391 0.0
C1882 C 0.37279 0.44668 0.52631 0.0
C1883 C 0.3953 0.54844 0.5232 0.0
C1884 C 0.40024 0.34646 0.61472 0.0
C1885 C 0.39113 0.36651 0.59112 0.0
C1886 C 0.4281 0.43045 0.55528 0.0
C1887 C 0.3973 0.49479 0.50678 0.0
C1888 C 0.40011 0.46324 0.51961 0.0
C1889 C 0.39958 0.39771 0.59261 0.0
C1890 C 0.40012 0.41683 0.56465 0.0
H1891 H 0.33977 0.53289 0.46956 0.0
H1892 H 0.36529 0.48254 0.47033 0.0
H1893 H 0.44954 0.46542 0.52763 0.0
H1894 H 0.43454 0.39885 0.66255 0.0
H1895 H 0.41776 0.434 0.62183 0.0
C1896 C 0.73249 0.77915 0.61402 0.0
C1897 C 0.75495 0.80136 0.62123 0.0
C1898 C 0.73436 0.7497 0.62694 0.0
C1899 C 0.77458 0.69428 0.61876 0.0
H1900 H 0.82105 0.66772 0.69055 0.0
C1901 C 0.85753 0.58703 0.63762 0.0
C1902 C 0.88461 0.59639 0.65297 0.0
C1903 C 0.83479 0.60888 0.63049 0.0
C1904 C 0.80787 0.67481 0.67044 0.0
H1905 H 0.79332 0.81288 0.65096 0.0
H1906 H 0.79729 0.76135 0.67313 0.0
H1907 H 0.7846 0.71074 0.69527 0.0
H1908 H 0.9127 0.63565 0.66591 0.0
H1909 H 0.8735 0.67389 0.65242 0.0
H1910 H 0.79924 0.65922 0.59369 0.0
C1911 C 0.77805 0.76624 0.65784 0.0
C1912 C 0.78688 0.69912 0.67322 0.0
C1913 C 0.77595 0.79582 0.64512 0.0
C1914 C 0.89174 0.62796 0.65454 0.0
C1915 C 0.86914 0.64975 0.64738 0.0
C1916 C 0.79547 0.66981 0.61606 0.0
C1917 C 0.75919 0.74225 0.6465 0.0
C1918 C 0.77145 0.71032 0.64698 0.0
C1919 C 0.83969 0.63999 0.63796 0.0
C1920 C 0.81346 0.66125 0.64147 0.0
H1921 H 0.71574 0.78347 0.59587 0.0
H1922 H 0.719 0.73183 0.61852 0.0
H1923 H 0.76325 0.70244 0.59797 0.0
H1924 H 0.8517 0.56276 0.6358 0.0
H1925 H 0.81232 0.60108 0.62264 0.0
C1926 C 0.76217 0.25018 0.91066 0.0
C1927 C 0.74715 0.24785 0.93917 0.0
C1928 C 0.76259 0.27851 0.89523 0.0
C1929 C 0.76888 0.35509 0.92573 0.0
H1930 H 0.80212 0.36904 0.84378 0.0
C1931 C 0.8572 0.45064 0.88629 0.0
C1932 C 0.88103 0.43782 0.8681 0.0
C1933 C 0.83273 0.43208 0.89622 0.0
C1934 C 0.79254 0.36562 0.86669 0.0
H1935 H 0.71592 0.27036 0.97124 0.0
H1936 H 0.7159 0.31971 0.94381 0.0
H1937 H 0.76339 0.32875 0.85158 0.0
H1938 H 0.90133 0.39508 0.85152 0.0
H1939 H 0.85902 0.36262 0.8696 0.0
H1940 H 0.79921 0.39114 0.9409 0.0
C1941 C 0.72832 0.30034 0.93386 0.0
C1942 C 0.77033 0.34275 0.87111 0.0
C1943 C 0.7284 0.27222 0.94957 0.0
C1944 C 0.88294 0.40558 0.86497 0.0
C1945 C 0.8585 0.38714 0.87475 0.0
C1946 C 0.79077 0.37826 0.92118 0.0
C1947 C 0.74782 0.30454 0.90823 0.0
C1948 C 0.76005 0.33569 0.90108 0.0
C1949 C 0.83234 0.40067 0.8884 0.0
C1950 C 0.80416 0.38215 0.89205 0.0
H1951 H 0.77643 0.23137 0.90217 0.0
H1952 H 0.7777 0.28075 0.87538 0.0
H1953 H 0.76156 0.35038 0.94921 0.0
H1954 H 0.85527 0.47541 0.88941 0.0
H1955 H 0.81299 0.44271 0.90745 0.0
C1956 C 0.48519 1.01028 0.38744 0.0
C1957 C 0.48733 0.03156 0.36312 0.0
C1958 C 0.51221 0.99952 0.40133 0.0
C1959 C 0.59732 1.00009 0.39896 0.0
H1960 H 0.58613 0.91645 0.36819 0.0
C1961 C 0.69986 0.92213 0.3962 0.0
C1962 C 0.69377 0.89794 0.41695 0.0
C1963 C 0.67527 0.93727 0.38185 0.0
C1964 C 0.58958 0.93974 0.37671 0.0
H1965 H 0.51718 0.0637 0.33896 0.0
H1966 H 0.56436 0.04504 0.36332 0.0
H1967 H 0.54166 0.95077 0.37273 0.0
H1968 H 0.65921 0.86608 0.43402 0.0
H1969 H 0.61637 0.892 0.40881 0.0
H1970 H 0.64521 0.98883 0.40353 0.0
C1971 C 0.54235 0.03614 0.37138 0.0
C1972 C 0.56415 0.95916 0.37989 0.0
C1973 C 0.51541 0.04672 0.35734 0.0
C1974 C 0.6641 0.8851 0.41843 0.0
C1975 C 0.6396 0.90001 0.40393 0.0
C1976 C 0.6228 0.9805 0.39609 0.0
C1977 C 0.54104 1.01025 0.39085 0.0
C1978 C 0.56777 0.98931 0.39143 0.0
C1979 C 0.64478 0.92788 0.38803 0.0
C1980 C 0.61907 0.95005 0.3852 0.0
H1981 H 0.46356 0.99863 0.39241 0.0
H1982 H 0.51086 0.97988 0.41687 0.0
H1983 H 0.60059 0.02348 0.40726 0.0
H1984 H 0.72277 0.93214 0.39454 0.0
H1985 H 0.6798 0.95829 0.36895 0.0
C1986 C 0.17727 0.0893 0.88743 0.0
C1987 C 0.15364 0.09971 0.86761 0.0
C1988 C 0.19807 0.11047 0.89996 0.0
C1989 C 0.23221 0.18027 0.87227 0.0
H1990 H 0.26349 0.19502 0.95471 0.0
C1991 C 0.27375 0.29487 0.91546 0.0
C1992 C 0.29123 0.29549 0.94262 0.0
C1993 C 0.26842 0.26672 0.90079 0.0
C1994 C 0.25583 0.19053 0.93132 0.0
H1995 H 0.12935 0.14003 0.85023 0.0
H1996 H 0.16528 0.17701 0.87276 0.0
H1997 H 0.22574 0.15411 0.94642 0.0
H1998 H 0.32151 0.26932 0.97282 0.0
H1999 H 0.31293 0.22018 0.94664 0.0
H2000 H 0.26147 0.21716 0.85716 0.0
C2001 C 0.16844 0.15259 0.87755 0.0
C2002 C 0.23392 0.16738 0.9268 0.0
C2003 C 0.14771 0.13152 0.86506 0.0
C2004 C 0.30737 0.26897 0.95214 0.0
C2005 C 0.30243 0.24093 0.93724 0.0
C2006 C 0.2543 0.20321 0.8767 0.0
C2007 C 0.19494 0.14198 0.89298 0.0
C2008 C 0.22096 0.16321 0.89753 0.0
C2009 C 0.28077 0.23917 0.91317 0.0
C2010 C 0.26523 0.20954 0.90652 0.0
H2011 H 0.18228 0.06485 0.88986 0.0
H2012 H 0.21822 0.10197 0.91226 0.0
H2013 H 0.22306 0.1766 0.84926 0.0
H2014 H 0.26125 0.31524 0.90777 0.0
H2015 H 0.25169 0.26619 0.88217 0.0
C2016 C 0.88009 0.14888 0.91653 0.0
C2017 C 0.84844 0.14185 0.9155 0.0
C2018 C 0.90148 0.1279 0.90482 0.0
C2019 C 0.91764 0.05838 0.86192 0.0
H2020 H 0.96519 0.03672 0.93508 0.0
C2021 C 1.01968 0.98343 0.84522 0.0
C2022 C 0.04568 1.00103 0.85326 0.0
C2023 C 0.99141 0.98901 0.85958 0.0
C2024 C 0.95184 0.04221 0.91461 0.0
H2025 H 0.81392 0.11152 0.89555 0.0
H2026 H 0.85149 0.07505 0.87453 0.0
H2027 H 0.92449 0.07585 0.93843 0.0
H2028 H 0.06444 0.03418 0.88551 0.0
H2029 H 1.01501 0.04467 0.91019 0.0
H2030 H 0.94599 0.0263 0.83753 0.0
C2031 C 0.85972 0.09613 0.88523 0.0
C2032 C 0.92886 0.06473 0.91642 0.0
C2033 C 0.83826 0.11722 0.89696 0.0
C2034 C 0.04449 1.02053 0.87897 0.0
C2035 C 1.01609 0.02643 0.89311 0.0
C2036 C 0.94082 0.036 0.86001 0.0
C2037 C 0.89124 0.10018 0.89156 0.0
C2038 C 0.91264 0.07388 0.88978 0.0
C2039 C 0.98892 1.01268 0.88159 0.0
C2040 C 0.95904 0.0287 0.88606 0.0
H2041 H 0.88839 0.16807 0.9303 0.0
H2042 H 0.92588 0.13173 0.90906 0.0
H2043 H 0.90496 0.06488 0.8413 0.0
H2044 H 1.02049 0.96779 0.82568 0.0
H2045 H 0.97095 0.97746 0.85094 0.0
C2046 C 0.65043 0.40681 0.15964 0.0
C2047 C 0.65647 0.4385 0.15632 0.0
C2048 C 0.67337 0.38546 0.1523 0.0
C2049 C 0.74752 0.36823 0.11877 0.0
H2050 H 0.76214 0.32913 0.19843 0.0
C2051 C 0.81743 0.26399 0.11659 0.0
C2052 C 0.79634 0.24054 0.12407 0.0
C2053 C 0.8142 0.29316 0.12977 0.0
C2054 C 0.75877 0.34028 0.17624 0.0
H2055 H 0.68717 0.47233 0.13566 0.0
H2056 H 0.72707 0.4348 0.12218 0.0
H2057 H 0.72268 0.36939 0.19358 0.0
H2058 H 0.7594 0.22657 0.15467 0.0
H2059 H 0.75303 0.27752 0.17727 0.0
H2060 H 0.78186 0.33787 0.10075 0.0
C2061 C 0.70533 0.42661 0.1316 0.0
C2062 C 0.73603 0.36294 0.17336 0.0
C2063 C 0.68226 0.448 0.13893 0.0
C2064 C 0.77573 0.2446 0.14861 0.0
C2065 C 0.77223 0.27388 0.16157 0.0
C2066 C 0.77016 0.34539 0.12157 0.0
C2067 C 0.70197 0.39576 0.14093 0.0
C2068 C 0.7292 0.37575 0.14428 0.0
C2069 C 0.78931 0.29903 0.14979 0.0
C2070 C 0.77476 0.32998 0.14998 0.0
H2071 H 0.63036 0.39897 0.17248 0.0
H2072 H 0.67011 0.36144 0.1587 0.0
H2073 H 0.74286 0.37834 0.09632 0.0
H2074 H 0.83383 0.26088 0.09787 0.0
H2075 H 0.82825 0.31197 0.12101 0.0
C2076 C 0.71012 0.11039 0.15908 0.0
C2077 C 0.69987 0.13499 0.14045 0.0
C2078 C 0.68854 0.0914 0.17362 0.0
C2079 C 0.60553 0.07866 0.18684 0.0
H2080 H 0.61622 1.00612 0.13472 0.0
C2081 C 0.50164 0.02436 0.14983 0.0
C2082 C 0.49673 1.00341 0.17397 0.0
C2083 C 0.53183 0.03023 0.14013 0.0
C2084 C 0.61323 0.02613 0.14948 0.0
H2085 H 0.66062 0.16337 0.12763 0.0
H2086 H 0.62304 0.1312 0.1542 0.0
H2087 H 0.66004 0.04111 0.14364 0.0
H2088 H 0.51706 0.96693 0.20174 0.0
H2089 H 0.56984 0.9776 0.18508 0.0
H2090 H 0.55844 0.06462 0.1914 0.0
C2091 C 0.64738 0.12574 0.15682 0.0
C2092 C 0.63821 0.04577 0.15508 0.0
C2093 C 0.66883 0.14421 0.14162 0.0
C2094 C 0.52081 0.98373 0.18348 0.0
C2095 C 0.55093 0.98957 0.17376 0.0
C2096 C 0.58073 0.05915 0.18124 0.0
C2097 C 0.65691 0.09775 0.17038 0.0
C2098 C 0.63413 0.07277 0.17289 0.0
C2099 C 0.55665 1.0152 0.15485 0.0
C2100 C 0.58417 0.03356 0.16157 0.0
H2101 H 0.73414 0.1032 0.15879 0.0
H2102 H 0.69626 0.0701 0.18439 0.0
H2103 H 0.60193 0.09936 0.20048 0.0
H2104 H 0.48318 0.0395 0.14207 0.0
H2105 H 0.53602 0.04997 0.12525 0.0
C2106 C 0.53945 0.52524 0.14737 0.0
C2107 C 0.54678 0.54324 0.17306 0.0
C2108 C 0.50974 0.52697 0.13493 0.0
C2109 C 0.4422 0.52349 0.12113 0.0
H2110 H 0.40673 0.50363 0.20132 0.0
C2111 C 0.38306 0.41205 0.13786 0.0
C2112 C 0.35085 0.41527 0.14033 0.0
C2113 C 0.40202 0.43698 0.14493 0.0
C2114 C 0.4159 0.50965 0.1788 0.0
H2115 H 0.53233 0.58133 0.20216 0.0
H2116 H 0.4804 0.58452 0.1803 0.0
H2117 H 0.44867 0.54088 0.19783 0.0
H2118 H 0.31389 0.44338 0.15964 0.0
H2119 H 0.34755 0.48672 0.17286 0.0
H2120 H 0.41124 0.48965 0.1028 0.0
C2121 C 0.49692 0.56862 0.17015 0.0
C2122 C 0.43969 0.53127 0.17657 0.0
C2123 C 0.52648 0.56667 0.18274 0.0
C2124 C 0.33864 0.44064 0.15672 0.0
C2125 C 0.3577 0.46565 0.1639 0.0
C2126 C 0.41861 0.50173 0.12343 0.0
C2127 C 0.48736 0.54655 0.14844 0.0
C2128 C 0.4547 0.53648 0.14803 0.0
C2129 C 0.38892 0.46475 0.15539 0.0
C2130 C 0.40694 0.49327 0.15255 0.0
H2131 H 0.55513 0.50731 0.13948 0.0
H2132 H 0.50328 0.50983 0.11791 0.0
H2133 H 0.4529 0.52752 0.09883 0.0
H2134 H 0.39309 0.39238 0.12597 0.0
H2135 H 0.42642 0.43568 0.13922 0.0
C2136 C 0.05078 0.63809 0.22271 0.0
C2137 C 0.0354 0.66307 0.23823 0.0
C2138 C 0.04962 0.60633 0.23226 0.0
C2139 C 0.03315 0.54894 0.29899 0.0
H2140 H 0.03076 0.4867 0.23469 0.0
C2141 C 0.05485 0.41395 0.32805 0.0
C2142 C 0.03852 0.38907 0.31352 0.0
C2143 C 0.05294 0.44577 0.31871 0.0
C2144 C 0.03139 0.50328 0.25338 0.0
H2145 H 1.00625 0.67004 0.2784 0.0
H2146 H 1.00585 0.61528 0.29619 0.0
H2147 H 0.03061 0.54203 0.22132 0.0
H2148 H 1.0068 0.38226 0.2754 0.0
H2149 H 1.00499 0.43707 0.25791 0.0
H2150 H 0.03504 0.51019 0.33101 0.0
C2151 C 1.01885 0.62088 0.27555 0.0
C2152 C 0.03147 0.53588 0.24556 0.0
C2153 C 1.0194 0.65315 0.2654 0.0
C2154 C 1.0207 0.3991 0.28755 0.0
C2155 C 1.01937 0.43139 0.27759 0.0
C2156 C 0.03396 0.51634 0.30678 0.0
C2157 C 0.03346 0.59604 0.25885 0.0
C2158 C 0.03231 0.56017 0.268 0.0
C2159 C 0.03498 0.45616 0.29333 0.0
C2160 C 0.03308 0.49205 0.28434 0.0
H2161 H 0.06361 0.64291 0.20176 0.0
H2162 H 0.06186 0.58952 0.21831 0.0
H2163 H 0.03397 0.56553 0.31767 0.0
H2164 H 0.06913 0.40901 0.34801 0.0
H2165 H 0.06606 0.46251 0.33183 0.0
C2166 C 0.6448 0.78621 1.00965 0.0
C2167 C 0.63355 0.76434 0.98772 0.0
C2168 C 0.67702 0.78725 1.01951 0.0
C2169 C 0.76095 0.75592 0.99834 0.0
H2170 H 0.78573 0.79307 0.07544 0.0
C2171 C 0.89852 0.76836 0.0371 0.0
C2172 C 0.90611 0.76869 0.06926 0.0
C2173 C 0.86656 0.76837 0.02586 0.0
C2174 C 0.77996 0.78224 0.05369 0.0
H2175 H 0.65104 0.72652 0.95985 0.0
H2176 H 0.70458 0.72796 0.97667 0.0
H2177 H 0.73114 0.79182 0.06096 0.0
H2178 H 0.88149 0.76919 0.11342 0.0
H2179 H 0.82963 0.76965 0.09471 0.0
H2180 H 0.80997 0.74651 0.9911 0.0
C2181 C 0.68895 0.74482 0.98655 0.0
C2182 C 0.74764 0.78178 0.04505 0.0
C2183 C 0.65711 0.74367 0.97702 0.0
C2184 C 0.87904 0.76913 0.08855 0.0
C2185 C 0.84783 0.76962 0.07754 0.0
C2186 C 0.79339 0.75672 1.00684 0.0
C2187 C 0.70065 0.7669 1.00785 0.0
C2188 C 0.73655 0.76831 1.01713 0.0
C2189 C 0.83985 0.76926 0.04583 0.0
C2190 C 0.80435 0.76961 0.03509 0.0
H2191 H 0.62908 0.80368 1.01828 0.0
H2192 H 0.68352 0.80512 0.0357 0.0
H2193 H 0.75519 0.74554 0.97639 0.0
H2194 H 0.91717 0.7679 1.0204 0.0
H2195 H 0.8629 0.76804 1.00113 0.0
C2196 C 0.04007 0.15078 0.29629 0.0
C2197 C 1.01468 0.1643 0.3125 0.0
C2198 C 0.04087 0.11844 0.28713 0.0
C2199 C 0.99612 0.0382 0.29682 0.0
H2200 H 0.05878 1.00743 0.24125 0.0
C2201 C 1.00235 0.90001 0.26352 0.0
C2202 C 1.0207 0.88928 0.23827 0.0
C2203 C 1.00202 0.93224 0.27347 0.0
C2204 C 0.04059 1.01474 0.25674 0.0
H2205 H 0.97067 0.15062 0.33199 0.0
H2206 H 0.97128 0.09686 0.31562 0.0
H2207 H 0.05716 0.06195 0.25426 0.0
H2208 H 0.05249 0.90755 0.20439 0.0
H2209 H 0.05236 0.9609 0.22087 0.0
H2210 H 0.97942 0.99093 0.29905 0.0
C2211 C 0.99113 0.11075 0.30956 0.0
C2212 C 0.03984 0.04723 0.26467 0.0
C2213 C 0.99044 0.14278 0.31872 0.0
C2214 C 0.03852 0.91328 0.22429 0.0
C2215 C 0.03827 0.94503 0.23403 0.0
C2216 C 0.99689 1.00565 0.28889 0.0
C2217 C 1.01654 0.09677 0.29375 0.0
C2218 C 1.01751 0.06063 0.28501 0.0
C2219 C 1.0198 0.95634 0.25886 0.0
C2220 C 1.0191 0.99231 0.26835 0.0
H2221 H 0.06033 0.16484 0.29194 0.0
H2222 H 0.06153 0.11034 0.27557 0.0
H2223 H 0.97833 0.0455 0.31278 0.0
H2224 H 0.98712 0.8838 0.27501 0.0
H2225 H 0.98716 0.93815 0.29268 0.0
C2226 C 0.38395 0.80734 0.97035 0.0
C2227 C 0.40822 0.7888 0.98328 0.0
C2228 C 0.35202 0.80584 0.97969 0.0
C2229 C 0.29393 0.77321 0.04157 0.0
H2230 H 0.2309 0.80012 0.98376 0.0
C2231 C 0.16214 0.78735 0.08339 0.0
C2232 C 0.1349 0.78332 0.06467 0.0
C2233 C 0.19331 0.78683 0.07225 0.0
C2234 C 0.24768 0.79229 1.0006 0.0
H2235 H 0.41379 0.75292 1.01781 0.0
H2236 H 0.3591 0.75098 0.03481 0.0
H2237 H 0.28581 0.80139 0.96921 0.0
H2238 H 0.12384 0.77625 1.01634 0.0
H2239 H 0.17809 0.77632 0.99669 0.0
H2240 H 0.25592 0.7642 0.07298 0.0
C2241 C 0.36514 0.76736 1.01687 0.0
C2242 C 0.28019 0.79328 0.99218 0.0
C2243 C 0.39748 0.7687 1.0072 0.0
C2244 C 0.14248 0.77945 0.0327 0.0
C2245 C 0.17446 0.77948 1.02122 0.0
C2246 C 0.26153 0.77266 0.05012 0.0
C2247 C 0.34086 0.78557 1.00308 0.0
C2248 C 0.30487 0.78388 1.01232 0.0
C2249 C 0.20127 0.78275 0.04082 0.0
C2250 C 0.23687 0.78228 0.03014 0.0
H2251 H 0.38956 0.82316 0.95174 0.0
H2252 H 0.3359 0.82105 0.96805 0.0
H2253 H 0.31061 0.76557 0.05859 0.0
H2254 H 0.15997 0.79094 0.10802 0.0
H2255 H 0.21153 0.79027 0.08902 0.0
C2256 C 0.30439 0.05548 0.39176 0.0
C2257 C 0.30231 0.02922 0.37189 0.0
C2258 C 0.29531 0.05535 0.42393 0.0
C2259 C 0.27428 1.00107 0.49475 0.0
H2260 H 0.25747 0.07825 0.53646 0.0
C2261 C 0.25008 1.00591 0.63506 0.0
C2262 C 0.23298 0.03077 0.64854 0.0
C2263 C 0.2591 1.00523 0.60261 0.0
C2264 C 0.26184 0.05601 0.52591 0.0
H2265 H 0.28978 0.98089 0.37479 0.0
H2266 H 0.27348 0.98062 0.42942 0.0
H2267 H 0.26936 0.0779 0.48146 0.0
H2268 H 0.21201 0.07405 0.63457 0.0
H2269 H 0.22815 0.07365 0.58063 0.0
H2270 H 0.26667 0.97926 0.5395 0.0
C2271 C 0.2818 1.00219 0.41985 0.0
C2272 C 0.26919 0.05584 0.49327 0.0
C2273 C 0.29067 1.00247 0.38741 0.0
C2274 C 0.22607 0.05477 0.62688 0.0
C2275 C 0.23535 0.05435 0.59485 0.0
C2276 C 0.26721 1.00127 0.52759 0.0
C2277 C 0.28408 0.02858 0.43976 0.0
C2278 C 0.2757 0.02839 0.47602 0.0
C2279 C 0.25185 0.02938 0.58091 0.0
C2280 C 0.26051 0.02878 0.54472 0.0
H2281 H 0.31459 0.07645 0.38262 0.0
H2282 H 0.29855 0.07653 0.43675 0.0
H2283 H 0.27905 0.97894 0.48412 0.0
H2284 H 0.2553 0.98595 0.64927 0.0
H2285 H 0.27161 0.98512 0.5945 0.0
C2286 C 0.28958 0.46045 0.88836 0.0
C2287 C 0.28465 0.47958 0.91506 0.0
C2288 C 0.28863 0.47108 0.85701 0.0
C2289 C 0.29198 0.54224 0.80197 0.0
H2290 H 0.2656 0.48368 0.73968 0.0
C2291 C 0.30763 0.57076 0.66582 0.0
C2292 C 0.28763 0.55934 0.64211 0.0
C2293 C 0.3063 0.56133 0.69767 0.0
C2294 C 0.27312 0.50082 0.75623 0.0
H2295 H 0.27527 0.52775 0.92529 0.0
H2296 H 0.27482 0.54654 0.87087 0.0
H2297 H 0.26495 0.46941 0.7945 0.0
H2298 H 0.24927 0.52755 0.63739 0.0
H2299 H 0.24789 0.50998 0.69194 0.0
H2300 H 0.30053 0.57351 0.76359 0.0
C2301 C 0.27905 0.52219 0.87492 0.0
C2302 C 0.27297 0.49236 0.78862 0.0
C2303 C 0.27938 0.51124 0.90697 0.0
C2304 C 0.2663 0.53671 0.65324 0.0
C2305 C 0.26523 0.52681 0.68547 0.0
C2306 C 0.2927 0.5505 0.76948 0.0
C2307 C 0.28327 0.50228 0.84857 0.0
C2308 C 0.28245 0.51263 0.81298 0.0
C2309 C 0.28485 0.53927 0.70921 0.0
C2310 C 0.28336 0.53014 0.74511 0.0
H2311 H 0.29408 0.436 0.89125 0.0
H2312 H 0.29271 0.45418 0.83905 0.0
H2313 H 0.29968 0.55926 0.81856 0.0
H2314 H 0.32433 0.58846 0.65988 0.0
H2315 H 0.32253 0.57185 0.71349 0.0
C2316 C 0.82992 0.49514 0.62024 0.0
C2317 C 0.81285 0.5069 0.6462 0.0
C2318 C 0.82014 0.49731 0.58867 0.0
C2319 C 0.75153 0.50896 0.53247 0.0
H2320 H 0.81494 0.52233 0.47048 0.0
C2321 C 0.72382 0.49256 0.39672 0.0
C2322 C 0.73702 0.51109 0.37262 0.0
C2323 C 0.73313 0.4935 0.42853 0.0
C2324 C 0.79648 0.51858 0.48698 0.0
H2325 H 0.76933 0.53028 0.655 0.0
H2326 H 0.75137 0.53235 0.60037 0.0
H2327 H 0.8284 0.52113 0.52566 0.0
H2328 H 0.77229 0.54625 0.36733 0.0
H2329 H 0.78981 0.54664 0.42202 0.0
H2330 H 0.71977 0.50543 0.49375 0.0
C2331 C 0.77353 0.52166 0.60513 0.0
C2332 C 0.80438 0.51771 0.5195 0.0
C2333 C 0.78387 0.5202 0.6373 0.0
C2334 C 0.76149 0.53042 0.38344 0.0
C2335 C 0.7714 0.53094 0.41572 0.0
C2336 C 0.74376 0.50901 0.4999 0.0
C2337 C 0.79172 0.51077 0.57943 0.0
C2338 C 0.78228 0.51288 0.54371 0.0
C2339 C 0.75703 0.5129 0.43974 0.0
C2340 C 0.76587 0.51383 0.47568 0.0
H2341 H 0.85216 0.48421 0.62405 0.0
H2342 H 0.83534 0.48785 0.57116 0.0
H2343 H 0.73313 0.50502 0.54899 0.0
H2344 H 0.70471 0.47748 0.39116 0.0
H2345 H 0.72106 0.4786 0.44463 0.0
C2346 C 0.7735 0.03458 0.90234 0.0
C2347 C 0.7625 0.06451 0.91114 0.0
C2348 C 0.7741 0.02403 0.87021 0.0
C2349 C 0.76998 0.05459 0.78402 0.0
H2350 H 0.75653 0.96978 0.75979 0.0
C2351 C 0.77893 1.01098 0.64815 0.0
C2352 C 0.76039 0.98562 0.63803 0.0
C2353 C 0.77997 1.02111 0.68033 0.0
C2354 C 0.76035 0.99383 0.76547 0.0
H2355 H 0.74293 0.10536 0.88872 0.0
H2356 H 0.7449 0.08803 0.83602 0.0
H2357 H 0.75733 0.98388 0.81477 0.0
H2358 H 0.72835 0.95225 0.65759 0.0
H2359 H 0.73044 0.96898 0.71097 0.0
H2360 H 0.77354 0.06447 0.73478 0.0
C2361 C 0.75333 0.07224 0.85354 0.0
C2362 C 0.76104 1.00205 0.79794 0.0
C2363 C 0.7521 0.08235 0.88508 0.0
C2364 C 0.74303 0.97186 0.66268 0.0
C2365 C 0.74447 0.98147 0.69442 0.0
C2366 C 0.77 0.04625 0.7516 0.0
C2367 C 0.76446 0.0428 0.84439 0.0
C2368 C 0.76548 0.03289 0.8087 0.0
C2369 C 0.76321 1.00624 0.70496 0.0
C2370 C 0.76478 1.01555 0.7408 0.0
H2371 H 0.78225 1.01928 0.92014 0.0
H2372 H 0.783 1.00108 0.86561 0.0
H2373 H 0.77385 0.07863 0.7897 0.0
H2374 H 0.79379 1.02237 0.63152 0.0
H2375 H 0.79506 0.04021 0.68603 0.0
C2376 C 0.33209 1.01525 0.11906 0.0
C2377 C 0.31275 1.01539 0.14607 0.0
C2378 C 0.32113 1.01559 0.08785 0.0
C2379 C 0.24979 1.00418 0.03341 0.0
H2380 H 0.30527 0.03633 0.97081 0.0
C2381 C 0.219 0.99094 0.89741 0.0
C2382 C 0.23075 1.01056 0.87348 0.0
C2383 C 0.22857 0.99218 0.92921 0.0
C2384 C 0.28895 0.02714 0.9874 0.0
H2385 H 0.26379 1.01524 0.15697 0.0
H2386 H 0.24455 1.01518 0.1028 0.0
H2387 H 0.31991 0.03756 0.02527 0.0
H2388 H 0.26318 0.04833 0.86835 0.0
H2389 H 0.28065 0.04991 0.92282 0.0
H2390 H 0.21876 0.9939 0.99542 0.0
C2391 C 0.26934 1.01523 0.10645 0.0
C2392 C 0.29769 0.02757 1.01969 0.0
C2393 C 0.28054 1.01534 0.13841 0.0
C2394 C 0.25367 0.03163 0.88439 0.0
C2395 C 0.26357 0.03275 0.9166 0.0
C2396 C 0.24119 1.00341 1.00102 0.0
C2397 C 0.28936 1.01567 0.07977 0.0
C2398 C 0.27862 1.01599 0.04424 0.0
C2399 C 0.25099 1.01334 0.94057 0.0
C2400 C 0.26042 1.01476 0.97646 0.0
H2401 H 0.35702 1.01505 0.12159 0.0
H2402 H 0.33836 1.01522 0.06974 0.0
H2403 H 0.23363 0.99481 0.05007 0.0
H2404 H 0.20105 0.97448 0.89165 0.0
H2405 H 0.21786 0.97608 0.94507 0.0
C2406 C 0.26754 0.53421 0.40731 0.0
C2407 C 0.2671 0.56629 0.41541 0.0
C2408 C 0.26762 0.52342 0.37519 0.0
C2409 C 0.28065 0.55265 0.28886 0.0
H2410 H 0.24469 0.4753 0.263 0.0
C2411 C 0.28509 0.50965 0.15303 0.0
C2412 C 0.26291 0.4881 0.14151 0.0
C2413 C 0.28615 0.51929 0.18534 0.0
C2414 C 0.25489 0.49728 0.26907 0.0
H2415 H 0.26631 0.6108 0.39131 0.0
H2416 H 0.2671 0.59283 0.33924 0.0
H2417 H 0.24569 0.48918 0.31795 0.0
H2418 H 0.22467 0.46069 0.15875 0.0
H2419 H 0.22625 0.47698 0.21236 0.0
H2420 H 0.29013 0.56069 0.24014 0.0
C2421 C 0.26753 0.57539 0.35719 0.0
C2422 C 0.2557 0.5053 0.30162 0.0
C2423 C 0.26689 0.58595 0.38855 0.0
C2424 C 0.24203 0.47758 0.16495 0.0
C2425 C 0.24326 0.4868 0.19687 0.0
C2426 C 0.28027 0.54443 0.25642 0.0
C2427 C 0.26789 0.54378 0.34872 0.0
C2428 C 0.2683 0.53355 0.31302 0.0
C2429 C 0.26561 0.50769 0.20885 0.0
C2430 C 0.26706 0.51651 0.2449 0.0
H2431 H 0.2676 0.5172 0.42568 0.0
H2432 H 0.26786 0.49872 0.37121 0.0
H2433 H 0.2912 0.57447 0.29492 0.0
H2434 H 0.30281 0.51805 0.13746 0.0
H2435 H 0.30422 0.5352 0.19204 0.0
C2436 C 0.76145 0.52217 0.13741 0.0
C2437 C 0.72995 0.52837 0.14544 0.0
C2438 C 0.77235 0.52132 0.10537 0.0
C2439 C 0.74211 0.5158 1.01914 0.0
H2440 H 0.82431 0.54003 0.99406 0.0
C2441 C 0.78577 0.5075 0.8837 0.0
C2442 C 0.80957 0.52758 0.8727 0.0
C2443 C 0.77586 0.5068 0.91594 0.0
C2444 C 0.80098 0.53316 0.99996 0.0
H2445 H 0.6866 0.53897 0.12157 0.0
H2446 H 0.70468 0.53679 0.06941 0.0
H2447 H 0.81006 0.54 0.04898 0.0
H2448 H 0.84058 0.56258 0.89067 0.0
H2449 H 0.82395 0.56148 0.94413 0.0
H2450 H 0.73308 0.50862 0.97025 0.0
C2451 C 0.72148 0.53228 0.08739 0.0
C2452 C 0.79273 0.53291 0.03242 0.0
C2453 C 0.71092 0.53371 0.11872 0.0
C2454 C 0.82205 0.5468 0.8965 0.0
C2455 C 0.81257 0.54587 0.9283 0.0
C2456 C 0.75053 0.51552 0.98676 0.0
C2457 C 0.75251 0.52594 0.07901 0.0
C2458 C 0.76277 0.52459 0.04345 0.0
C2459 C 0.7894 0.52561 0.93975 0.0
C2460 C 0.78023 0.52456 0.97563 0.0
H2461 H 0.77785 0.51763 0.15576 0.0
H2462 H 0.79656 0.51633 0.10135 0.0
H2463 H 0.71886 0.50868 0.02505 0.0
H2464 H 0.77551 0.49124 0.86776 0.0
H2465 H 0.75807 0.49042 0.92234 0.0
C2466 C 0.81074 0.05866 0.15733 0.0
C2467 C 0.78556 0.05504 0.1363 0.0
C2468 C 0.80985 0.04937 0.18939 0.0
C2469 C 0.75449 1.02216 0.25742 0.0
H2470 H 0.83095 1.01568 0.3032 0.0
C2471 C 0.75417 0.99586 0.39717 0.0
C2472 C 0.78112 0.98517 0.41308 0.0
C2473 C 0.75411 1.00467 0.3647 0.0
C2474 C 0.80889 1.01703 0.29155 0.0
H2475 H 0.73805 0.0393 0.13699 0.0
H2476 H 0.73658 1.02249 0.19143 0.0
H2477 H 0.83189 0.02768 0.24841 0.0
H2478 H 0.82892 0.97428 0.40306 0.0
H2479 H 0.82932 0.99003 0.34892 0.0
H2480 H 0.73157 1.01119 0.30081 0.0
C2481 C 0.75796 0.03226 0.18288 0.0
C2482 C 0.80943 0.02449 0.25893 0.0
C2483 C 0.759 0.04142 0.15051 0.0
C2484 C 0.80772 0.98372 0.39356 0.0
C2485 C 0.80779 0.9927 0.36136 0.0
C2486 C 0.75394 1.01482 0.2902 0.0
C2487 C 0.7833 0.03615 0.20398 0.0
C2488 C 0.78231 0.02744 0.24019 0.0
C2489 C 0.78094 1.00326 0.34515 0.0
C2490 C 0.78115 1.01183 0.30888 0.0
H2491 H 0.83142 0.0702 0.14916 0.0
H2492 H 0.83024 0.05397 0.20305 0.0
H2493 H 0.73249 0.02399 0.24565 0.0
H2494 H 0.73236 0.99611 0.40951 0.0
H2495 H 0.73237 1.01223 0.35488 0.0
C2496 C 0.63243 0.21245 0.05179 0.0
C2497 C 0.65877 0.23041 0.04241 0.0
C2498 C 0.60096 0.22292 0.05073 0.0
C2499 C 0.54566 0.29365 0.04601 0.0
H2500 H 0.48261 0.2323 0.02931 0.0
C2501 C 0.40992 0.32334 0.06395 0.0
C2502 C 0.3855 0.31027 0.04586 0.0
C2503 C 0.44176 0.31381 0.06237 0.0
C2504 C 0.49939 0.25022 0.03406 0.0
H2505 H 0.66831 0.27635 0.02471 0.0
H2506 H 0.61381 0.29517 0.02435 0.0
H2507 H 0.53758 0.21797 0.0287 0.0
H2508 H 0.37951 0.27511 1.01079 0.0
H2509 H 0.43416 0.2574 1.00917 0.0
H2510 H 0.5074 0.32576 0.05199 0.0
C2511 C 0.6182 0.27181 0.03226 0.0
C2512 C 0.53184 0.24177 0.03391 0.0
C2513 C 0.6503 0.2609 0.03265 0.0
C2514 C 0.39596 0.28582 0.02627 0.0
C2515 C 0.42822 0.27578 0.02505 0.0
C2516 C 0.51314 0.30195 0.04685 0.0
C2517 C 0.59213 0.25289 0.04082 0.0
C2518 C 0.55646 0.26307 0.0399 0.0
C2519 C 0.45262 0.2899 0.04266 0.0
C2520 C 0.48851 0.2806 0.04095 0.0
H2521 H 0.63576 0.18903 0.06002 0.0
H2522 H 0.58322 0.20697 0.0583 0.0
H2523 H 0.56248 0.31148 0.05094 0.0
H2524 H 0.40453 0.34234 0.07935 0.0
H2525 H 0.45813 0.32569 0.07705 0.0
C2526 C 0.65192 0.78473 0.5364 0.0
C2527 C 0.66194 0.81002 0.51758 0.0
C2528 C 0.61964 0.77478 0.53796 0.0
C2529 C 0.53456 0.80351 0.52252 0.0
H2530 H 0.50896 0.71809 0.52714 0.0
C2531 C 0.39766 0.76205 0.53785 0.0
C2532 C 0.38778 0.7351 0.52153 0.0
C2533 C 0.42994 0.77219 0.53849 0.0
C2534 C 0.51509 0.74232 0.52595 0.0
H2535 H 0.6419 0.84341 0.48568 0.0
H2536 H 0.58842 0.82726 0.48907 0.0
H2537 H 0.56433 0.73133 0.52684 0.0
H2538 H 0.40813 0.69913 0.49275 0.0
H2539 H 0.46145 0.71555 0.49485 0.0
H2540 H 0.4853 0.81452 0.52237 0.0
C2541 C 0.6052 0.81461 0.50272 0.0
C2542 C 0.54771 0.75007 0.52593 0.0
C2543 C 0.63701 0.82389 0.50059 0.0
C2544 C 0.41284 0.71983 0.50595 0.0
C2545 C 0.4446 0.72933 0.50725 0.0
C2546 C 0.50194 0.7958 0.52348 0.0
C2547 C 0.59483 0.7899 0.52163 0.0
C2548 C 0.55891 0.78101 0.52376 0.0
C2549 C 0.45485 0.7557 0.52368 0.0
C2550 C 0.49074 0.76482 0.5248 0.0
H2551 H 0.66874 0.77323 0.55098 0.0
H2552 H 0.61399 0.75566 0.55312 0.0
H2553 H 0.54069 0.82772 0.52101 0.0
H2554 H 0.38073 0.77492 0.55108 0.0
H2555 H 0.4355 0.79267 0.55169 0.0
C2556 C 0.98445 0.38626 0.79678 0.0
C2557 C 0.98654 0.40633 0.77065 0.0
C2558 C 0.99337 0.35406 0.7964 0.0
C2559 C 1.01423 0.28376 0.74169 0.0
H2560 H 0.0305 0.24129 0.81865 0.0
C2561 C 0.03847 0.14355 0.74556 0.0
C2562 C 0.05506 0.12968 0.77053 0.0
C2563 C 0.02939 0.176 0.74514 0.0
C2564 C 0.0263 0.25205 0.79647 0.0
H2565 H 0.99869 0.40387 0.72219 0.0
H2566 H 1.0148 0.34916 0.7215 0.0
H2567 H 1.01884 0.29633 0.81855 0.0
H2568 H 0.07517 0.14294 0.81429 0.0
H2569 H 0.05917 0.19695 0.81418 0.0
H2570 H 1.02189 0.23919 0.71968 0.0
C2571 C 1.00666 0.35857 0.74317 0.0
C2572 C 1.01906 0.28472 0.79645 0.0
C2573 C 0.99793 0.39105 0.7437 0.0
C2574 C 0.06149 0.15095 0.79489 0.0
C2575 C 0.05228 0.18302 0.79465 0.0
C2576 C 1.02124 0.2509 0.74174 0.0
C2577 C 1.00445 0.33847 0.76949 0.0
C2578 C 1.01273 0.30221 0.7691 0.0
C2579 C 0.03626 0.19732 0.76958 0.0
C2580 C 0.02772 0.23351 0.76916 0.0
H2581 H 0.97445 0.3953 0.81788 0.0
H2582 H 0.99016 0.34105 0.81752 0.0
H2583 H 1.00959 0.29462 0.71964 0.0
H2584 H 0.03373 0.12972 0.72532 0.0
H2585 H 1.01722 0.18441 0.72497 0.0
C2586 C 0.53358 0.64331 0.25829 0.0
C2587 C 0.56064 0.63357 0.27464 0.0
C2588 C 0.52304 0.67547 0.25765 0.0
C2589 C 0.55126 0.76105 0.2729 0.0
H2590 H 0.46522 0.78495 0.26889 0.0
C2591 C 0.50823 0.89759 0.2612 0.0
C2592 C 0.47971 0.90668 0.2753 0.0
C2593 C 0.5189 0.86546 0.26041 0.0
C2594 C 0.48961 0.77936 0.27004 0.0
H2595 H 0.59645 0.65388 0.30338 0.0
H2596 H 0.57913 0.70713 0.30173 0.0
H2597 H 0.47977 0.72999 0.26846 0.0
H2598 H 0.44151 0.88515 0.30004 0.0
H2599 H 0.45902 0.8321 0.29798 0.0
H2600 H 0.56112 0.81045 0.27387 0.0
C2601 C 0.56561 0.6903 0.28915 0.0
C2602 C 0.49814 0.74692 0.26958 0.0
C2603 C 0.57562 0.65861 0.29029 0.0
C2604 C 0.46342 0.88101 0.2886 0.0
C2605 C 0.47359 0.8494 0.28726 0.0
C2606 C 0.54276 0.79352 0.27258 0.0
C2607 C 0.53912 0.70044 0.2726 0.0
C2608 C 0.52936 0.73625 0.2714 0.0
C2609 C 0.50156 0.83991 0.27294 0.0
C2610 C 0.51151 0.80416 0.27155 0.0
H2611 H 0.52099 0.62636 0.24491 0.0
H2612 H 0.50256 0.68086 0.24431 0.0
H2613 H 0.57565 0.75546 0.27405 0.0
H2614 H 0.52205 0.91507 0.24979 0.0
H2615 H 0.5406 0.86058 0.24891 0.0
C2616 C 0.91481 0.83227 0.54948 0.0
C2617 C 0.88887 0.81481 0.53846 0.0
C2618 C 0.94629 0.82187 0.54869 0.0
C2619 C 1.00152 0.75141 0.54131 0.0
H2620 H 0.06509 0.81348 0.52975 0.0
C2621 C 0.13634 0.72012 0.56083 0.0
C2622 C 0.1613 0.73424 0.54424 0.0
C2623 C 0.10462 0.72986 0.55893 0.0
C2624 C 0.04815 0.79537 0.53303 0.0
H2625 H 0.8798 0.77001 0.51806 0.0
H2626 H 0.93428 0.75122 0.51812 0.0
H2627 H 1.01019 0.82802 0.52864 0.0
H2628 H 0.16853 0.77176 0.51181 0.0
H2629 H 0.11397 0.78965 0.50959 0.0
H2630 H 0.0395 0.71885 0.54625 0.0
C2631 C 0.92964 0.77408 0.52718 0.0
C2632 C 1.01576 0.80392 0.53259 0.0
C2633 C 0.89757 0.78493 0.52735 0.0
C2634 C 0.15156 0.76 0.52596 0.0
C2635 C 0.11939 0.77021 0.52442 0.0
C2636 C 0.03395 0.74296 0.54241 0.0
C2637 C 0.95538 0.79251 0.53739 0.0
C2638 C 0.99099 0.78235 0.53676 0.0
C2639 C 0.09447 0.75505 0.54044 0.0
C2640 C 0.05873 0.76457 0.53837 0.0
H2641 H 0.9111 0.8552 0.55879 0.0
H2642 H 0.96381 0.83736 0.55754 0.0
H2643 H 0.98454 0.73337 0.54479 0.0
H2644 H 0.14118 0.70025 0.57533 0.0
H2645 H 0.08781 0.71717 0.57245 0.0
C2646 C 0.07085 0.88201 0.72901 0.0
C2647 C 0.05956 0.90532 0.74955 0.0
C2648 C 0.06173 0.85006 0.73015 0.0
C2649 C 1.00397 0.79061 0.76759 0.0
H2650 H 0.05788 0.7291 0.73086 0.0
C2651 C 0.96141 0.65912 0.75607 0.0
C2652 C 0.98088 0.63221 0.75415 0.0
C2653 C 0.97219 0.69036 0.75649 0.0
C2654 C 0.04217 0.74544 0.7415 0.0
H2655 H 0.02881 0.90933 0.78885 0.0
H2656 H 1.01216 0.85465 0.79033 0.0
H2657 H 0.07209 0.78394 0.72985 0.0
H2658 H 0.02979 0.6215 0.75083 0.0
H2659 H 0.04867 0.67587 0.75111 0.0
H2660 H 0.9742 0.75224 0.77951 0.0
C2661 C 0.02836 0.86141 0.7725 0.0
C2662 C 0.05035 0.77793 0.74067 0.0
C2663 C 0.03774 0.89373 0.77144 0.0
C2664 C 1.01298 0.64001 0.75251 0.0
C2665 C 0.02398 0.67204 0.75254 0.0
C2666 C 0.99567 0.75824 0.76815 0.0
C2667 C 0.04042 0.83803 0.75215 0.0
C2668 C 0.03154 0.80205 0.75356 0.0
C2669 C 1.00382 0.69858 0.75473 0.0
C2670 C 1.01425 0.73414 0.75499 0.0
H2671 H 0.08807 0.88841 0.71196 0.0
H2672 H 0.07196 0.83464 0.71334 0.0
H2673 H 0.98805 0.80686 0.77804 0.0
H2674 H 0.93656 0.65651 0.75743 0.0
H2675 H 0.95484 0.70838 0.75762 0.0
C2676 C 0.53509 0.15396 0.7635 0.0
C2677 C 0.53417 0.16192 0.73142 0.0
C2678 C 0.53496 0.12189 0.77451 0.0
C2679 C 0.51964 0.0357 0.74644 0.0
H2680 H 0.55746 1.00978 0.823 0.0
C2681 C 0.51479 0.90026 0.78997 0.0
C2682 C 0.53698 0.88842 0.81139 0.0
C2683 C 0.51398 0.93257 0.7803 0.0
C2684 C 0.54673 1.01586 0.80125 0.0
H2685 H 0.53239 0.13782 0.68711 0.0
H2686 H 0.53164 0.08573 0.70545 0.0
H2687 H 0.55679 0.06466 0.80856 0.0
H2688 H 0.57536 0.90503 0.83891 0.0
H2689 H 0.57433 0.95878 0.82238 0.0
H2690 H 0.5094 0.98709 0.73911 0.0
C2691 C 0.5323 0.10374 0.72275 0.0
C2692 C 0.54612 0.04837 0.79291 0.0
C2693 C 0.53294 0.13506 0.71195 0.0
C2694 C 0.55805 0.91155 0.82199 0.0
C2695 C 0.55713 0.9435 0.81264 0.0
C2696 C 0.5199 1.0033 0.75494 0.0
C2697 C 0.53331 0.09539 0.75439 0.0
C2698 C 0.53283 0.05977 0.76493 0.0
C2699 C 0.53486 0.95576 0.79171 0.0
C2700 C 0.53373 0.99177 0.78259 0.0
H2701 H 0.53624 0.17241 0.78033 0.0
H2702 H 0.53582 0.11798 0.7992 0.0
H2703 H 0.50849 0.04178 0.7249 0.0
H2704 H 0.49693 0.88491 0.78159 0.0
H2705 H 0.4959 0.93951 0.76446 0.0
C2706 C 0.16437 0.24676 0.47293 0.0
C2707 C 0.13982 0.26494 0.48584 0.0
C2708 C 0.19625 0.24882 0.4821 0.0
C2709 C 0.25393 0.27842 0.54466 0.0
H2710 H 0.31689 0.26163 0.48304 0.0
C2711 C 0.38712 0.26018 0.58113 0.0
C2712 C 0.41334 0.27083 0.56363 0.0
C2713 C 0.35566 0.26121 0.5708 0.0
C2714 C 0.3001 0.26656 0.50095 0.0
H2715 H 0.13366 0.30067 0.52034 0.0
H2716 H 0.18842 0.30315 0.53743 0.0
H2717 H 0.26171 0.25999 0.46925 0.0
H2718 H 0.42258 0.29055 0.51847 0.0
H2719 H 0.36807 0.29069 0.49974 0.0
H2720 H 0.29227 0.28418 0.57653 0.0
C2721 C 0.18253 0.28684 0.51944 0.0
C2722 C 0.26754 0.26538 0.49294 0.0
C2723 C 0.15022 0.28514 0.50976 0.0
C2724 C 0.40471 0.28168 0.53359 0.0
C2725 C 0.3726 0.28194 0.52274 0.0
C2726 C 0.28642 0.27886 0.55283 0.0
C2727 C 0.20703 0.26911 0.50549 0.0
C2728 C 0.24297 0.27124 0.51444 0.0
C2729 C 0.34668 0.2722 0.54133 0.0
C2730 C 0.31099 0.27295 0.53137 0.0
H2731 H 0.15905 0.23085 0.45439 0.0
H2732 H 0.21271 0.23401 0.4704 0.0
H2733 H 0.23719 0.28315 0.56266 0.0
H2734 H 0.39052 0.25092 0.60413 0.0
H2735 H 0.33803 0.25272 0.58643 0.0
C2736 C 0.52818 0.65327 0.78612 0.0
C2737 C 0.51347 0.66248 0.81425 0.0
C2738 C 0.52939 0.62107 0.77585 0.0
C2739 C 0.52184 0.53554 0.80621 0.0
H2740 H 0.5126 0.51008 0.72123 0.0
C2741 C 0.53406 0.39941 0.7632 0.0
C2742 C 0.5147 0.3889 0.73865 0.0
C2743 C 0.53492 0.43167 0.77315 0.0
C2744 C 0.51533 0.51618 0.74531 0.0
H2745 H 0.488 0.64095 0.8521 0.0
H2746 H 0.49119 0.5879 0.83544 0.0
H2747 H 0.51294 0.5654 0.73457 0.0
H2748 H 0.48099 0.40781 0.70649 0.0
H2749 H 0.48308 0.46141 0.72271 0.0
H2750 H 0.52492 0.48637 0.81689 0.0
C2751 C 0.50196 0.6052 0.82087 0.0
C2752 C 0.51571 0.54876 0.75309 0.0
C2753 C 0.50006 0.63684 0.83056 0.0
C2754 C 0.49634 0.41322 0.72549 0.0
C2755 C 0.49774 0.44505 0.73478 0.0
C2756 C 0.52235 0.503 0.79834 0.0
C2757 C 0.51679 0.59564 0.7933 0.0
C2758 C 0.51853 0.55988 0.78395 0.0
C2759 C 0.51725 0.45595 0.75871 0.0
C2760 C 0.51866 0.49184 0.76758 0.0
H2761 H 0.53956 0.67074 0.77226 0.0
H2762 H 0.54121 0.61605 0.75439 0.0
H2763 H 0.52432 0.54163 0.83033 0.0
H2764 H 0.54969 0.38307 0.77401 0.0
H2765 H 0.55062 0.43775 0.79162 0.0
C2766 C 0.66617 0.30618 0.57977 0.0
C2767 C 0.6408 0.29177 0.56409 0.0
C2768 C 0.69783 0.30454 0.56993 0.0
C2769 C 0.75417 0.28724 0.50227 0.0
H2770 H 0.81723 0.28501 0.56589 0.0
C2771 C 0.88894 0.30603 0.47098 0.0
C2772 C 0.9139 0.29003 0.4859 0.0
C2773 C 0.85722 0.30475 0.48069 0.0
C2774 C 0.80041 0.28557 0.54738 0.0
H2775 H 0.63288 0.26397 0.52327 0.0
H2776 H 0.6875 0.26258 0.50514 0.0
H2777 H 0.76209 0.28577 0.57989 0.0
H2778 H 0.92101 0.25969 0.52518 0.0
H2779 H 0.86638 0.25891 0.54319 0.0
H2780 H 0.79252 0.28796 0.46977 0.0
C2781 C 0.68234 0.27517 0.52612 0.0
C2782 C 0.76791 0.28621 0.55557 0.0
C2783 C 0.65017 0.27625 0.5365 0.0
C2784 C 0.90409 0.27325 0.51263 0.0
C2785 C 0.87189 0.27253 0.52292 0.0
C2786 C 0.78668 0.28741 0.49409 0.0
C2787 C 0.70759 0.28879 0.54292 0.0
C2788 C 0.74334 0.28708 0.5334 0.0
C2789 C 0.84703 0.2878 0.50684 0.0
C2790 C 0.81125 0.28658 0.51627 0.0
H2791 H 0.66175 0.31873 0.60096 0.0
H2792 H 0.71496 0.31613 0.58397 0.0
H2793 H 0.73735 0.28799 0.48376 0.0
H2794 H 0.89372 0.31955 0.45044 0.0
H2795 H 0.8404 0.31757 0.46725 0.0
C2796 C 0.13132 0.33315 1.02244 0.0
C2797 C 0.15835 0.31391 0.0254 0.0
C2798 C 0.10004 0.32232 0.02307 0.0
C2799 C 0.04537 0.25146 1.01481 0.0
H2800 H 0.98287 0.30795 0.04564 0.0
C2801 C 0.90894 0.22387 0.99831 0.0
C2802 C 0.88516 0.23443 1.01881 0.0
C2803 C 0.94086 0.23304 1.00013 0.0
C2804 C 0.99947 0.29139 0.03683 0.0
H2805 H 0.16913 0.26521 0.0308 0.0
H2806 H 0.11475 0.24614 0.03082 0.0
H2807 H 0.03768 0.32211 0.04709 0.0
H2808 H 0.88042 0.26425 0.05869 0.0
H2809 H 0.93508 0.28129 0.06107 0.0
H2810 H 1.00702 0.22086 1.00426 0.0
C2811 C 0.11855 0.27076 0.02845 0.0
C2812 C 0.03187 0.2998 0.03744 0.0
C2813 C 0.15058 0.28189 0.02846 0.0
C2814 C 0.89632 0.2558 0.04129 0.0
C2815 C 0.92863 0.26542 0.0429 0.0
C2816 C 1.01285 0.24326 1.01368 0.0
C2817 C 0.09191 0.29078 0.02607 0.0
C2818 C 0.05633 0.2803 0.0264 0.0
C2819 C 0.95243 0.25391 0.02266 0.0
C2820 C 0.98838 0.26289 0.02457 0.0
H2821 H 0.13381 0.35789 1.01967 0.0
H2822 H 0.08188 0.3394 1.02052 0.0
H2823 H 0.06202 0.23505 1.00581 0.0
H2824 H 0.90298 0.20714 0.9807 0.0
H2825 H 0.95669 0.22329 0.98338 0.0
C2826 C 0.50254 0.14504 0.28112 0.0
C2827 C 0.4826 0.1329 0.25784 0.0
C2828 C 0.51216 0.17732 0.28189 0.0
C2829 C 0.4934 0.26015 0.2463 0.0
H2830 H 0.5673 0.2863 0.28879 0.0
C2831 C 0.53094 0.39825 0.25728 0.0
C2832 C 0.56302 0.40594 0.25991 0.0
C2833 C 0.51973 0.36628 0.25757 0.0
C2834 C 0.54648 0.28016 0.27642 0.0
H2835 H 0.45746 0.14895 0.21759 0.0
H2836 H 0.47395 0.20269 0.21856 0.0
H2837 H 0.55307 0.23169 0.28802 0.0
H2838 H 0.60702 0.38145 0.26501 0.0
H2839 H 0.58834 0.32961 0.26599 0.0
H2840 H 0.48683 0.30883 0.23487 0.0
C2841 C 0.48261 0.18765 0.2366 0.0
C2842 C 0.53795 0.24781 0.27624 0.0
C2843 C 0.47331 0.15571 0.23572 0.0
C2844 C 0.5822 0.37893 0.26306 0.0
C2845 C 0.57119 0.34774 0.26384 0.0
C2846 C 0.50175 0.29263 0.24682 0.0
C2847 C 0.50211 0.2002 0.25989 0.0
C2848 C 0.51119 0.23619 0.26091 0.0
C2849 C 0.53959 0.33964 0.26106 0.0
C2850 C 0.52889 0.3041 0.26162 0.0
H2851 H 0.5097 0.12995 0.29979 0.0
H2852 H 0.52683 0.1845 0.3008 0.0
H2853 H 0.47235 0.254 0.23434 0.0
H2854 H 0.51433 0.41681 0.2545 0.0
H2855 H 0.49509 0.36256 0.25528 0.0
loop_
_geom_bond_atom_site_label_1
_geom_bond_atom_site_label_2
_geom_bond_distance
_geom_bond_site_symmetry_2
_ccdc_geom_bond_type
H0 O1 0.850 . S
O1 H0 0.850 . S
O1 Tb2 2.341 . S
O1 Tb3 2.341 . S
O1 Tb4 2.341 . S
Tb2 O1 2.341 . S
Tb2 O5 2.341 . S
Tb2 O6 2.341 1_455 S
Tb2 O7 2.341 1_455 S
Tb2 O22 2.344 . S
Tb2 O25 2.344 1_455 S
Tb2 O38 2.344 1_455 S
Tb2 O41 2.344 . S
Tb3 O1 2.341 . S
Tb3 O5 2.341 . S
Tb3 O8 2.341 . S
Tb3 O10 2.341 . S
Tb3 O26 2.344 . S
Tb3 O29 2.344 . S
Tb3 O34 2.344 . S
Tb3 O37 2.344 . S
Tb4 O1 2.341 . S
Tb4 O6 2.341 1_455 S
Tb4 O9 2.341 1_455 S
Tb4 O10 2.341 . S
Tb4 O30 2.344 . S
Tb4 O33 2.344 . S
Tb4 O43 2.344 1_455 S
Tb4 O44 2.344 . S
O5 Tb2 2.341 . S
O5 Tb3 2.341 . S
O5 H11 0.850 . S
O5 Tb13 2.341 1_455 S
O6 Tb2 2.341 1_655 S
O6 Tb4 2.341 1_655 S
O6 H12 0.850 . S
O6 Tb14 2.341 . S
O7 Tb2 2.341 1_655 S
O7 Tb13 2.341 . S
O7 Tb14 2.341 . S
O7 H15 0.850 . S
O8 Tb3 2.341 . S
O8 Tb13 2.341 1_455 S
O8 H16 0.850 . S
O8 Tb17 2.341 . S
O9 Tb4 2.341 1_655 S
O9 Tb14 2.341 . S
O9 Tb17 2.341 1_655 S
O9 H18 0.850 . S
O10 Tb3 2.341 . S
O10 Tb4 2.341 . S
O10 Tb17 2.341 . S
O10 H19 0.850 . S
H11 O5 0.850 . S
H12 O6 0.850 . S
Tb13 O5 2.341 1_655 S
Tb13 O7 2.341 . S
Tb13 O8 2.341 1_655 S
Tb13 O20 2.341 . S
Tb13 O31 2.344 . S
Tb13 O32 2.344 . S
Tb13 O42 2.344 1_655 S
Tb13 O45 2.344 . S
Tb14 O6 2.341 . S
Tb14 O7 2.341 . S
Tb14 O9 2.341 . S
Tb14 O20 2.341 . S
Tb14 O27 2.344 . S
Tb14 O28 2.344 . S
Tb14 O35 2.344 . S
Tb14 O36 2.344 . S
H15 O7 0.850 . S
H16 O8 0.850 . S
Tb17 O8 2.341 . S
Tb17 O9 2.341 1_455 S
Tb17 O10 2.341 . S
Tb17 O20 2.341 1_455 S
Tb17 O23 2.344 1_455 S
Tb17 O24 2.344 . S
Tb17 O39 2.344 . S
Tb17 O40 2.344 1_455 S
H18 O9 0.850 . S
H19 O10 0.850 . S
O20 Tb13 2.341 . S
O20 Tb14 2.341 . S
O20 Tb17 2.341 1_655 S
O20 H21 0.850 . S
H21 O20 0.850 . S
O22 Tb2 2.344 . S
O22 C46 1.272 . S
O23 Tb17 2.344 1_655 S
O23 C47 1.272 . S
O24 Tb17 2.344 . S
O24 C48 1.272 . S
O25 Tb2 2.344 1_655 S
O25 C49 1.272 . S
O26 Tb3 2.344 . S
O26 C50 1.272 . S
O27 Tb14 2.344 . S
O27 C51 1.272 . S
O28 Tb14 2.344 . S
O28 C52 1.272 . S
O29 Tb3 2.344 . S
O29 C53 1.272 . S
O30 Tb4 2.344 . S
O30 C54 1.272 . S
O31 Tb13 2.344 . S
O31 C55 1.272 . S
O32 Tb13 2.344 . S
O32 C56 1.272 . S
O33 Tb4 2.344 . S
O33 C57 1.272 . S
O34 Tb3 2.344 . S
O34 C46 1.272 . S
O35 Tb14 2.344 . S
O35 C47 1.272 . S
O36 Tb14 2.344 . S
O36 C49 1.272 . S
O37 Tb3 2.344 . S
O37 C48 1.272 . S
O38 Tb2 2.344 1_655 S
O38 C56 1.272 . S
O39 Tb17 2.344 . S
O39 C57 1.272 . S
O40 Tb17 2.344 1_655 S
O40 C55 1.272 . S
O41 Tb2 2.344 . S
O41 C54 1.272 . S
O42 Tb13 2.344 1_455 S
O42 C53 1.272 . S
O43 Tb4 2.344 1_655 S
O43 C52 1.272 . S
O44 Tb4 2.344 . S
O44 C50 1.272 . S
O45 Tb13 2.344 . S
O45 C51 1.272 . S
C46 O22 1.272 . S
C46 O34 1.272 . S
C47 O23 1.272 . S
C47 O35 1.272 . S
C48 O24 1.272 . S
C48 O37 1.272 . S
C49 O25 1.272 . S
C49 O36 1.272 . S
C50 O26 1.272 . S
C50 O44 1.272 . S
C51 O27 1.272 . S
C51 O45 1.272 . S
C52 O28 1.272 . S
C52 O43 1.272 . S
C53 O29 1.272 . S
C53 O42 1.272 . S
C54 O30 1.272 . S
C54 O41 1.272 . S
C55 O31 1.272 . S
C55 O40 1.272 . S
C56 O32 1.272 . S
C56 O38 1.272 . S
C57 O33 1.272 . S
C57 O39 1.272 . S
H58 O59 0.850 . S
O59 H58 0.850 . S
O59 Tb60 2.341 . S
O59 Tb61 2.341 . S
O59 Tb62 2.341 . S
Tb60 O59 2.341 . S
Tb60 O63 2.341 . S
Tb60 O64 2.341 . S
Tb60 O65 2.341 . S
Tb60 O80 2.344 . S
Tb60 O83 2.344 . S
Tb60 O96 2.344 . S
Tb60 O99 2.344 . S
Tb61 O59 2.341 . S
Tb61 O63 2.341 . S
Tb61 O66 2.341 . S
Tb61 O68 2.341 . S
Tb61 O84 2.344 . S
Tb61 O87 2.344 . S
Tb61 O92 2.344 . S
Tb61 O95 2.344 . S
Tb62 O59 2.341 . S
Tb62 O64 2.341 . S
Tb62 O67 2.341 . S
Tb62 O68 2.341 . S
Tb62 O88 2.344 . S
Tb62 O91 2.344 . S
Tb62 O101 2.344 . S
Tb62 O102 2.344 . S
O63 Tb60 2.341 . S
O63 Tb61 2.341 . S
O63 H69 0.850 . S
O63 Tb71 2.341 . S
O64 Tb60 2.341 . S
O64 Tb62 2.341 . S
O64 H70 0.850 . S
O64 Tb72 2.341 . S
O65 Tb60 2.341 . S
O65 Tb71 2.341 . S
O65 Tb72 2.341 . S
O65 H73 0.850 . S
O66 Tb61 2.341 . S
O66 Tb71 2.341 . S
O66 H74 0.850 . S
O66 Tb75 2.341 . S
O67 Tb62 2.341 . S
O67 Tb72 2.341 . S
O67 Tb75 2.341 . S
O67 H76 0.850 . S
O68 Tb61 2.341 . S
O68 Tb62 2.341 . S
O68 Tb75 2.341 . S
O68 H77 0.850 . S
H69 O63 0.850 . S
H70 O64 0.850 . S
Tb71 O63 2.341 . S
Tb71 O65 2.341 . S
Tb71 O66 2.341 . S
Tb71 O78 2.341 . S
Tb71 O89 2.344 . S
Tb71 O90 2.344 . S
Tb71 O100 2.344 . S
Tb71 O103 2.344 . S
Tb72 O64 2.341 . S
Tb72 O65 2.341 . S
Tb72 O67 2.341 . S
Tb72 O78 2.341 . S
Tb72 O85 2.344 . S
Tb72 O86 2.344 . S
Tb72 O93 2.344 . S
Tb72 O94 2.344 . S
H73 O65 0.850 . S
H74 O66 0.850 . S
Tb75 O66 2.341 . S
Tb75 O67 2.341 . S
Tb75 O68 2.341 . S
Tb75 O78 2.341 . S
Tb75 O81 2.344 . S
Tb75 O82 2.344 . S
Tb75 O97 2.344 . S
Tb75 O98 2.344 . S
H76 O67 0.850 . S
H77 O68 0.850 . S
O78 Tb71 2.341 . S
O78 Tb72 2.341 . S
O78 Tb75 2.341 . S
O78 H79 0.850 . S
H79 O78 0.850 . S
O80 Tb60 2.344 . S
O80 C104 1.272 . S
O81 Tb75 2.344 . S
O81 C105 1.272 . S
O82 Tb75 2.344 . S
O82 C106 1.272 . S
O83 Tb60 2.344 . S
O83 C107 1.272 . S
O84 Tb61 2.344 . S
O84 C108 1.272 . S
O85 Tb72 2.344 . S
O85 C109 1.272 . S
O86 Tb72 2.344 . S
O86 C110 1.272 . S
O87 Tb61 2.344 . S
O87 C111 1.272 . S
O88 Tb62 2.344 . S
O88 C112 1.272 . S
O89 Tb71 2.344 . S
O89 C113 1.272 . S
O90 Tb71 2.344 . S
O90 C114 1.272 . S
O91 Tb62 2.344 . S
O91 C115 1.272 . S
O92 Tb61 2.344 . S
O92 C104 1.272 . S
O93 Tb72 2.344 . S
O93 C105 1.272 . S
O94 Tb72 2.344 . S
O94 C107 1.272 . S
O95 Tb61 2.344 . S
O95 C106 1.272 . S
O96 Tb60 2.344 . S
O96 C114 1.272 . S
O97 Tb75 2.344 . S
O97 C115 1.272 . S
O98 Tb75 2.344 . S
O98 C113 1.272 . S
O99 Tb60 2.344 . S
O99 C112 1.272 . S
O100 Tb71 2.344 . S
O100 C111 1.272 . S
O101 Tb62 2.344 . S
O101 C110 1.272 . S
O102 Tb62 2.344 . S
O102 C108 1.272 . S
O103 Tb71 2.344 . S
O103 C109 1.272 . S
C104 O80 1.272 . S
C104 O92 1.272 . S
C105 O81 1.272 . S
C105 O93 1.272 . S
C106 O82 1.272 . S
C106 O95 1.272 . S
C107 O83 1.272 . S
C107 O94 1.272 . S
C108 O84 1.272 . S
C108 O102 1.272 . S
C109 O85 1.272 . S
C109 O103 1.272 . S
C110 O86 1.272 . S
C110 O101 1.272 . S
C111 O87 1.272 . S
C111 O100 1.272 . S
C112 O88 1.272 . S
C112 O99 1.272 . S
C113 O89 1.272 . S
C113 O98 1.272 . S
C114 O90 1.272 . S
C114 O96 1.272 . S
C115 O91 1.272 . S
C115 O97 1.272 . S
H116 O117 0.850 . S
O117 H116 0.850 . S
O117 Tb118 2.341 1_655 S
O117 Tb119 2.341 . S
O117 Tb120 2.341 . S
Tb118 O117 2.341 1_455 S
Tb118 O121 2.341 . S
Tb118 O122 2.341 1_455 S
Tb118 O123 2.341 . S
Tb118 O138 2.344 1_455 S
Tb118 O141 2.344 . S
Tb118 O154 2.344 . S
Tb118 O157 2.344 1_455 S
Tb119 O117 2.341 . S
Tb119 O121 2.341 1_655 S
Tb119 O124 2.341 1_655 S
Tb119 O126 2.341 . S
Tb119 O142 2.344 . S
Tb119 O145 2.344 1_655 S
Tb119 O150 2.344 . S
Tb119 O153 2.344 . S
Tb120 O117 2.341 . S
Tb120 O122 2.341 . S
Tb120 O125 2.341 . S
Tb120 O126 2.341 . S
Tb120 O146 2.344 . S
Tb120 O149 2.344 . S
Tb120 O159 2.344 . S
Tb120 O160 2.344 . S
O121 Tb118 2.341 . S
O121 Tb119 2.341 1_455 S
O121 H127 0.850 . S
O121 Tb129 2.341 . S
O122 Tb118 2.341 1_655 S
O122 Tb120 2.341 . S
O122 H128 0.850 . S
O122 Tb130 2.341 1_655 S
O123 Tb118 2.341 . S
O123 Tb129 2.341 . S
O123 Tb130 2.341 . S
O123 H131 0.850 . S
O124 Tb119 2.341 1_455 S
O124 Tb129 2.341 . S
O124 H132 0.850 . S
O124 Tb133 2.341 . S
O125 Tb120 2.341 . S
O125 Tb130 2.341 1_655 S
O125 Tb133 2.341 1_655 S
O125 H134 0.850 . S
O126 Tb119 2.341 . S
O126 Tb120 2.341 . S
O126 Tb133 2.341 1_655 S
O126 H135 0.850 . S
H127 O121 0.850 . S
H128 O122 0.850 . S
Tb129 O121 2.341 . S
Tb129 O123 2.341 . S
Tb129 O124 2.341 . S
Tb129 O136 2.341 . S
Tb129 O147 2.344 . S
Tb129 O148 2.344 . S
Tb129 O158 2.344 . S
Tb129 O161 2.344 . S
Tb130 O122 2.341 1_455 S
Tb130 O123 2.341 . S
Tb130 O125 2.341 1_455 S
Tb130 O136 2.341 . S
Tb130 O143 2.344 . S
Tb130 O144 2.344 1_455 S
Tb130 O151 2.344 . S
Tb130 O152 2.344 . S
H131 O123 0.850 . S
H132 O124 0.850 . S
Tb133 O124 2.341 . S
Tb133 O125 2.341 1_455 S
Tb133 O126 2.341 1_455 S
Tb133 O136 2.341 . S
Tb133 O139 2.344 . S
Tb133 O140 2.344 1_455 S
Tb133 O155 2.344 1_455 S
Tb133 O156 2.344 . S
H134 O125 0.850 . S
H135 O126 0.850 . S
O136 Tb129 2.341 . S
O136 Tb130 2.341 . S
O136 Tb133 2.341 . S
O136 H137 0.850 . S
H137 O136 0.850 . S
O138 Tb118 2.344 1_655 S
O138 C162 1.272 . S
O139 Tb133 2.344 . S
O139 C163 1.272 . S
O140 Tb133 2.344 1_655 S
O140 C164 1.272 . S
O141 Tb118 2.344 . S
O141 C165 1.272 . S
O142 Tb119 2.344 . S
O142 C166 1.272 . S
O143 Tb130 2.344 . S
O143 C167 1.272 . S
O144 Tb130 2.344 1_655 S
O144 C168 1.272 . S
O145 Tb119 2.344 1_455 S
O145 C169 1.272 . S
O146 Tb120 2.344 . S
O146 C170 1.272 . S
O147 Tb129 2.344 . S
O147 C171 1.272 . S
O148 Tb129 2.344 . S
O148 C172 1.272 . S
O149 Tb120 2.344 . S
O149 C173 1.272 . S
O150 Tb119 2.344 . S
O150 C162 1.272 . S
O151 Tb130 2.344 . S
O151 C163 1.272 . S
O152 Tb130 2.344 . S
O152 C165 1.272 . S
O153 Tb119 2.344 . S
O153 C164 1.272 . S
O154 Tb118 2.344 . S
O154 C172 1.272 . S
O155 Tb133 2.344 1_655 S
O155 C173 1.272 . S
O156 Tb133 2.344 . S
O156 C171 1.272 . S
O157 Tb118 2.344 1_655 S
O157 C170 1.272 . S
O158 Tb129 2.344 . S
O158 C169 1.272 . S
O159 Tb120 2.344 . S
O159 C168 1.272 . S
O160 Tb120 2.344 . S
O160 C166 1.272 . S
O161 Tb129 2.344 . S
O161 C167 1.272 . S
C162 O138 1.272 . S
C162 O150 1.272 . S
C163 O139 1.272 . S
C163 O151 1.272 . S
C164 O140 1.272 . S
C164 O153 1.272 . S
C165 O141 1.272 . S
C165 O152 1.272 . S
C166 O142 1.272 . S
C166 O160 1.272 . S
C167 O143 1.272 . S
C167 O161 1.272 . S
C168 O144 1.272 . S
C168 O159 1.272 . S
C169 O145 1.272 . S
C169 O158 1.272 . S
C170 O146 1.272 . S
C170 O157 1.272 . S
C171 O147 1.272 . S
C171 O156 1.272 . S
C172 O148 1.272 . S
C172 O154 1.272 . S
C173 O149 1.272 . S
C173 O155 1.272 . S
H174 O175 0.850 . S
O175 H174 0.850 . S
O175 Tb176 2.341 . S
O175 Tb177 2.341 1_565 S
O175 Tb178 2.341 . S
Tb176 O175 2.341 . S
Tb176 O179 2.341 1_565 S
Tb176 O180 2.341 . S
Tb176 O181 2.341 1_565 S
Tb176 O196 2.344 . S
Tb176 O199 2.344 . S
Tb176 O212 2.344 1_565 S
Tb176 O215 2.344 . S
Tb177 O175 2.341 1_545 S
Tb177 O179 2.341 . S
Tb177 O182 2.341 . S
Tb177 O184 2.341 1_545 S
Tb177 O200 2.344 1_545 S
Tb177 O203 2.344 . S
Tb177 O208 2.344 1_545 S
Tb177 O211 2.344 . S
Tb178 O175 2.341 . S
Tb178 O180 2.341 . S
Tb178 O183 2.341 . S
Tb178 O184 2.341 . S
Tb178 O204 2.344 . S
Tb178 O207 2.344 . S
Tb178 O217 2.344 . S
Tb178 O218 2.344 . S
O179 Tb176 2.341 1_545 S
O179 Tb177 2.341 . S
O179 H185 0.850 . S
O179 Tb187 2.341 . S
O180 Tb176 2.341 . S
O180 Tb178 2.341 . S
O180 H186 0.850 . S
O180 Tb188 2.341 1_565 S
O181 Tb176 2.341 1_545 S
O181 Tb187 2.341 . S
O181 Tb188 2.341 . S
O181 H189 0.850 . S
O182 Tb177 2.341 . S
O182 Tb187 2.341 . S
O182 H190 0.850 . S
O182 Tb191 2.341 . S
O183 Tb178 2.341 . S
O183 Tb188 2.341 1_565 S
O183 Tb191 2.341 1_565 S
O183 H192 0.850 . S
O184 Tb177 2.341 1_565 S
O184 Tb178 2.341 . S
O184 Tb191 2.341 1_565 S
O184 H193 0.850 . S
H185 O179 0.850 . S
H186 O180 0.850 . S
Tb187 O179 2.341 . S
Tb187 O181 2.341 . S
Tb187 O182 2.341 . S
Tb187 O194 2.341 . S
Tb187 O205 2.344 . S
Tb187 O206 2.344 . S
Tb187 O216 2.344 . S
Tb187 O219 2.344 . S
Tb188 O180 2.341 1_545 S
Tb188 O181 2.341 . S
Tb188 O183 2.341 1_545 S
Tb188 O194 2.341 . S
Tb188 O201 2.344 . S
Tb188 O202 2.344 1_545 S
Tb188 O209 2.344 . S
Tb188 O210 2.344 1_545 S
H189 O181 0.850 . S
H190 O182 0.850 . S
Tb191 O182 2.341 . S
Tb191 O183 2.341 1_545 S
Tb191 O184 2.341 1_545 S
Tb191 O194 2.341 . S
Tb191 O197 2.344 . S
Tb191 O198 2.344 . S
Tb191 O213 2.344 1_545 S
Tb191 O214 2.344 . S
H192 O183 0.850 . S
H193 O184 0.850 . S
O194 Tb187 2.341 . S
O194 Tb188 2.341 . S
O194 Tb191 2.341 . S
O194 H195 0.850 . S
H195 O194 0.850 . S
O196 Tb176 2.344 . S
O196 C220 1.272 . S
O197 Tb191 2.344 . S
O197 C221 1.272 . S
O198 Tb191 2.344 . S
O198 C222 1.272 . S
O199 Tb176 2.344 . S
O199 C223 1.272 . S
O200 Tb177 2.344 1_565 S
O200 C224 1.272 . S
O201 Tb188 2.344 . S
O201 C225 1.272 . S
O202 Tb188 2.344 1_565 S
O202 C226 1.272 . S
O203 Tb177 2.344 . S
O203 C227 1.272 . S
O204 Tb178 2.344 . S
O204 C228 1.272 . S
O205 Tb187 2.344 . S
O205 C229 1.272 . S
O206 Tb187 2.344 . S
O206 C230 1.272 . S
O207 Tb178 2.344 . S
O207 C231 1.272 . S
O208 Tb177 2.344 1_565 S
O208 C220 1.272 . S
O209 Tb188 2.344 . S
O209 C221 1.272 . S
O210 Tb188 2.344 1_565 S
O210 C223 1.272 . S
O211 Tb177 2.344 . S
O211 C222 1.272 . S
O212 Tb176 2.344 1_545 S
O212 C230 1.272 . S
O213 Tb191 2.344 1_565 S
O213 C231 1.272 . S
O214 Tb191 2.344 . S
O214 C229 1.272 . S
O215 Tb176 2.344 . S
O215 C228 1.272 . S
O216 Tb187 2.344 . S
O216 C227 1.272 . S
O217 Tb178 2.344 . S
O217 C226 1.272 . S
O218 Tb178 2.344 . S
O218 C224 1.272 . S
O219 Tb187 2.344 . S
O219 C225 1.272 . S
C220 O196 1.272 . S
C220 O208 1.272 . S
C221 O197 1.272 . S
C221 O209 1.272 . S
C222 O198 1.272 . S
C222 O211 1.272 . S
C223 O199 1.272 . S
C223 O210 1.272 . S
C224 O200 1.272 . S
C224 O218 1.272 . S
C225 O201 1.272 . S
C225 O219 1.272 . S
C226 O202 1.272 . S
C226 O217 1.272 . S
C227 O203 1.272 . S
C227 O216 1.272 . S
C228 O204 1.272 . S
C228 O215 1.272 . S
C229 O205 1.272 . S
C229 O214 1.272 . S
C230 O206 1.272 . S
C230 O212 1.272 . S
C231 O207 1.272 . S
C231 O213 1.272 . S
H232 O233 0.850 . S
O233 H232 0.850 . S
O233 Tb234 2.341 1_556 S
O233 Tb235 2.341 . S
O233 Tb236 2.341 . S
Tb234 O233 2.341 1_554 S
Tb234 O237 2.341 1_554 S
Tb234 O238 2.341 . S
Tb234 O239 2.341 . S
Tb234 O254 2.344 1_554 S
Tb234 O257 2.344 . S
Tb234 O270 2.344 . S
Tb234 O273 2.344 1_554 S
Tb235 O233 2.341 . S
Tb235 O237 2.341 . S
Tb235 O240 2.341 . S
Tb235 O242 2.341 . S
Tb235 O258 2.344 . S
Tb235 O261 2.344 . S
Tb235 O266 2.344 . S
Tb235 O269 2.344 . S
Tb236 O233 2.341 . S
Tb236 O238 2.341 1_556 S
Tb236 O241 2.341 1_556 S
Tb236 O242 2.341 . S
Tb236 O262 2.344 . S
Tb236 O265 2.344 . S
Tb236 O275 2.344 1_556 S
Tb236 O276 2.344 . S
O237 Tb234 2.341 1_556 S
O237 Tb235 2.341 . S
O237 H243 0.850 . S
O237 Tb245 2.341 1_556 S
O238 Tb234 2.341 . S
O238 Tb236 2.341 1_554 S
O238 H244 0.850 . S
O238 Tb246 2.341 . S
O239 Tb234 2.341 . S
O239 Tb245 2.341 . S
O239 Tb246 2.341 . S
O239 H247 0.850 . S
O240 Tb235 2.341 . S
O240 Tb245 2.341 1_556 S
O240 H248 0.850 . S
O240 Tb249 2.341 1_556 S
O241 Tb236 2.341 1_554 S
O241 Tb246 2.341 . S
O241 Tb249 2.341 . S
O241 H250 0.850 . S
O242 Tb235 2.341 . S
O242 Tb236 2.341 . S
O242 Tb249 2.341 1_556 S
O242 H251 0.850 . S
H243 O237 0.850 . S
H244 O238 0.850 . S
Tb245 O237 2.341 1_554 S
Tb245 O239 2.341 . S
Tb245 O240 2.341 1_554 S
Tb245 O252 2.341 . S
Tb245 O263 2.344 . S
Tb245 O264 2.344 . S
Tb245 O274 2.344 1_554 S
Tb245 O277 2.344 . S
Tb246 O238 2.341 . S
Tb246 O239 2.341 . S
Tb246 O241 2.341 . S
Tb246 O252 2.341 . S
Tb246 O259 2.344 . S
Tb246 O260 2.344 . S
Tb246 O267 2.344 . S
Tb246 O268 2.344 . S
H247 O239 0.850 . S
H248 O240 0.850 . S
Tb249 O240 2.341 1_554 S
Tb249 O241 2.341 . S
Tb249 O242 2.341 1_554 S
Tb249 O252 2.341 . S
Tb249 O255 2.344 . S
Tb249 O256 2.344 1_554 S
Tb249 O271 2.344 1_554 S
Tb249 O272 2.344 . S
H250 O241 0.850 . S
H251 O242 0.850 . S
O252 Tb245 2.341 . S
O252 Tb246 2.341 . S
O252 Tb249 2.341 . S
O252 H253 0.850 . S
H253 O252 0.850 . S
O254 Tb234 2.344 1_556 S
O254 C278 1.272 . S
O255 Tb249 2.344 . S
O255 C279 1.272 . S
O256 Tb249 2.344 1_556 S
O256 C280 1.272 . S
O257 Tb234 2.344 . S
O257 C281 1.272 . S
O258 Tb235 2.344 . S
O258 C282 1.272 . S
O259 Tb246 2.344 . S
O259 C283 1.272 . S
O260 Tb246 2.344 . S
O260 C284 1.272 . S
O261 Tb235 2.344 . S
O261 C285 1.272 . S
O262 Tb236 2.344 . S
O262 C286 1.272 . S
O263 Tb245 2.344 . S
O263 C287 1.272 . S
O264 Tb245 2.344 . S
O264 C288 1.272 . S
O265 Tb236 2.344 . S
O265 C289 1.272 . S
O266 Tb235 2.344 . S
O266 C278 1.272 . S
O267 Tb246 2.344 . S
O267 C279 1.272 . S
O268 Tb246 2.344 . S
O268 C281 1.272 . S
O269 Tb235 2.344 . S
O269 C280 1.272 . S
O270 Tb234 2.344 . S
O270 C288 1.272 . S
O271 Tb249 2.344 1_556 S
O271 C289 1.272 . S
O272 Tb249 2.344 . S
O272 C287 1.272 . S
O273 Tb234 2.344 1_556 S
O273 C286 1.272 . S
O274 Tb245 2.344 1_556 S
O274 C285 1.272 . S
O275 Tb236 2.344 1_554 S
O275 C284 1.272 . S
O276 Tb236 2.344 . S
O276 C282 1.272 . S
O277 Tb245 2.344 . S
O277 C283 1.272 . S
C278 O254 1.272 . S
C278 O266 1.272 . S
C279 O255 1.272 . S
C279 O267 1.272 . S
C280 O256 1.272 . S
C280 O269 1.272 . S
C281 O257 1.272 . S
C281 O268 1.272 . S
C282 O258 1.272 . S
C282 O276 1.272 . S
C283 O259 1.272 . S
C283 O277 1.272 . S
C284 O260 1.272 . S
C284 O275 1.272 . S
C285 O261 1.272 . S
C285 O274 1.272 . S
C286 O262 1.272 . S
C286 O273 1.272 . S
C287 O263 1.272 . S
C287 O272 1.272 . S
C288 O264 1.272 . S
C288 O270 1.272 . S
C289 O265 1.272 . S
C289 O271 1.272 . S
H290 O291 0.850 . S
O291 H290 0.850 . S
O291 Tb292 2.341 . S
O291 Tb293 2.341 . S
O291 Tb294 2.341 . S
Tb292 O291 2.341 . S
Tb292 O295 2.341 . S
Tb292 O296 2.341 . S
Tb292 O297 2.341 . S
Tb292 O312 2.344 . S
Tb292 O315 2.344 . S
Tb292 O328 2.344 . S
Tb292 O331 2.344 . S
Tb293 O291 2.341 . S
Tb293 O295 2.341 . S
Tb293 O298 2.341 . S
Tb293 O300 2.341 . S
Tb293 O316 2.344 . S
Tb293 O319 2.344 . S
Tb293 O324 2.344 . S
Tb293 O327 2.344 . S
Tb294 O291 2.341 . S
Tb294 O296 2.341 . S
Tb294 O299 2.341 . S
Tb294 O300 2.341 . S
Tb294 O320 2.344 . S
Tb294 O323 2.344 . S
Tb294 O333 2.344 . S
Tb294 O334 2.344 . S
O295 Tb292 2.341 . S
O295 Tb293 2.341 . S
O295 H301 0.850 . S
O295 Tb303 2.341 . S
O296 Tb292 2.341 . S
O296 Tb294 2.341 . S
O296 H302 0.850 . S
O296 Tb304 2.341 . S
O297 Tb292 2.341 . S
O297 Tb303 2.341 . S
O297 Tb304 2.341 . S
O297 H305 0.850 . S
O298 Tb293 2.341 . S
O298 Tb303 2.341 . S
O298 H306 0.850 . S
O298 Tb307 2.341 . S
O299 Tb294 2.341 . S
O299 Tb304 2.341 . S
O299 Tb307 2.341 . S
O299 H308 0.850 . S
O300 Tb293 2.341 . S
O300 Tb294 2.341 . S
O300 Tb307 2.341 . S
O300 H309 0.850 . S
H301 O295 0.850 . S
H302 O296 0.850 . S
Tb303 O295 2.341 . S
Tb303 O297 2.341 . S
Tb303 O298 2.341 . S
Tb303 O310 2.341 . S
Tb303 O321 2.344 . S
Tb303 O322 2.344 . S
Tb303 O332 2.344 . S
Tb303 O335 2.344 . S
Tb304 O296 2.341 . S
Tb304 O297 2.341 . S
Tb304 O299 2.341 . S
Tb304 O310 2.341 . S
Tb304 O317 2.344 . S
Tb304 O318 2.344 . S
Tb304 O325 2.344 . S
Tb304 O326 2.344 . S
H305 O297 0.850 . S
H306 O298 0.850 . S
Tb307 O298 2.341 . S
Tb307 O299 2.341 . S
Tb307 O300 2.341 . S
Tb307 O310 2.341 . S
Tb307 O313 2.344 . S
Tb307 O314 2.344 . S
Tb307 O329 2.344 . S
Tb307 O330 2.344 . S
H308 O299 0.850 . S
H309 O300 0.850 . S
O310 Tb303 2.341 . S
O310 Tb304 2.341 . S
O310 Tb307 2.341 . S
O310 H311 0.850 . S
H311 O310 0.850 . S
O312 Tb292 2.344 . S
O312 C336 1.272 . S
O313 Tb307 2.344 . S
O313 C337 1.272 . S
O314 Tb307 2.344 . S
O314 C338 1.272 . S
O315 Tb292 2.344 . S
O315 C339 1.272 . S
O316 Tb293 2.344 . S
O316 C340 1.272 . S
O317 Tb304 2.344 . S
O317 C341 1.272 . S
O318 Tb304 2.344 . S
O318 C342 1.272 . S
O319 Tb293 2.344 . S
O319 C343 1.272 . S
O320 Tb294 2.344 . S
O320 C344 1.272 . S
O321 Tb303 2.344 . S
O321 C345 1.272 . S
O322 Tb303 2.344 . S
O322 C346 1.272 . S
O323 Tb294 2.344 . S
O323 C347 1.272 . S
O324 Tb293 2.344 . S
O324 C336 1.272 . S
O325 Tb304 2.344 . S
O325 C337 1.272 . S
O326 Tb304 2.344 . S
O326 C339 1.272 . S
O327 Tb293 2.344 . S
O327 C338 1.272 . S
O328 Tb292 2.344 . S
O328 C346 1.272 . S
O329 Tb307 2.344 . S
O329 C347 1.272 . S
O330 Tb307 2.344 . S
O330 C345 1.272 . S
O331 Tb292 2.344 . S
O331 C344 1.272 . S
O332 Tb303 2.344 . S
O332 C343 1.272 . S
O333 Tb294 2.344 . S
O333 C342 1.272 . S
O334 Tb294 2.344 . S
O334 C340 1.272 . S
O335 Tb303 2.344 . S
O335 C341 1.272 . S
C336 O312 1.272 . S
C336 O324 1.272 . S
C337 O313 1.272 . S
C337 O325 1.272 . S
C338 O314 1.272 . S
C338 O327 1.272 . S
C339 O315 1.272 . S
C339 O326 1.272 . S
C340 O316 1.272 . S
C340 O334 1.272 . S
C341 O317 1.272 . S
C341 O335 1.272 . S
C342 O318 1.272 . S
C342 O333 1.272 . S
C343 O319 1.272 . S
C343 O332 1.272 . S
C344 O320 1.272 . S
C344 O331 1.272 . S
C345 O321 1.272 . S
C345 O330 1.272 . S
C346 O322 1.272 . S
C346 O328 1.272 . S
C347 O323 1.272 . S
C347 O329 1.272 . S
H348 O349 0.850 . S
O349 H348 0.850 . S
O349 Tb350 2.341 1_556 S
O349 Tb351 2.341 . S
O349 Tb352 2.341 . S
Tb350 O349 2.341 1_554 S
Tb350 O353 2.341 . S
Tb350 O354 2.341 1_554 S
Tb350 O355 2.341 . S
Tb350 O370 2.344 1_554 S
Tb350 O373 2.344 . S
Tb350 O386 2.344 . S
Tb350 O389 2.344 1_554 S
Tb351 O349 2.341 . S
Tb351 O353 2.341 1_556 S
Tb351 O356 2.341 1_556 S
Tb351 O358 2.341 . S
Tb351 O374 2.344 . S
Tb351 O377 2.344 1_556 S
Tb351 O382 2.344 . S
Tb351 O385 2.344 . S
Tb352 O349 2.341 . S
Tb352 O354 2.341 . S
Tb352 O357 2.341 . S
Tb352 O358 2.341 . S
Tb352 O378 2.344 . S
Tb352 O381 2.344 . S
Tb352 O391 2.344 . S
Tb352 O392 2.344 . S
O353 Tb350 2.341 . S
O353 Tb351 2.341 1_554 S
O353 H359 0.850 . S
O353 Tb361 2.341 . S
O354 Tb350 2.341 1_556 S
O354 Tb352 2.341 . S
O354 H360 0.850 . S
O354 Tb362 2.341 1_556 S
O355 Tb350 2.341 . S
O355 Tb361 2.341 . S
O355 Tb362 2.341 . S
O355 H363 0.850 . S
O356 Tb351 2.341 1_554 S
O356 Tb361 2.341 . S
O356 H364 0.850 . S
O356 Tb365 2.341 . S
O357 Tb352 2.341 . S
O357 Tb362 2.341 1_556 S
O357 Tb365 2.341 1_556 S
O357 H366 0.850 . S
O358 Tb351 2.341 . S
O358 Tb352 2.341 . S
O358 Tb365 2.341 1_556 S
O358 H367 0.850 . S
H359 O353 0.850 . S
H360 O354 0.850 . S
Tb361 O353 2.341 . S
Tb361 O355 2.341 . S
Tb361 O356 2.341 . S
Tb361 O368 2.341 . S
Tb361 O379 2.344 . S
Tb361 O380 2.344 . S
Tb361 O390 2.344 . S
Tb361 O393 2.344 . S
Tb362 O354 2.341 1_554 S
Tb362 O355 2.341 . S
Tb362 O357 2.341 1_554 S
Tb362 O368 2.341 . S
Tb362 O375 2.344 . S
Tb362 O376 2.344 1_554 S
Tb362 O383 2.344 . S
Tb362 O384 2.344 . S
H363 O355 0.850 . S
H364 O356 0.850 . S
Tb365 O356 2.341 . S
Tb365 O357 2.341 1_554 S
Tb365 O358 2.341 1_554 S
Tb365 O368 2.341 . S
Tb365 O371 2.344 . S
Tb365 O372 2.344 1_554 S
Tb365 O387 2.344 1_554 S
Tb365 O388 2.344 . S
H366 O357 0.850 . S
H367 O358 0.850 . S
O368 Tb361 2.341 . S
O368 Tb362 2.341 . S
O368 Tb365 2.341 . S
O368 H369 0.850 . S
H369 O368 0.850 . S
O370 Tb350 2.344 1_556 S
O370 C394 1.272 . S
O371 Tb365 2.344 . S
O371 C395 1.272 . S
O372 Tb365 2.344 1_556 S
O372 C396 1.272 . S
O373 Tb350 2.344 . S
O373 C397 1.272 . S
O374 Tb351 2.344 . S
O374 C398 1.272 . S
O375 Tb362 2.344 . S
O375 C399 1.272 . S
O376 Tb362 2.344 1_556 S
O376 C400 1.272 . S
O377 Tb351 2.344 1_554 S
O377 C401 1.272 . S
O378 Tb352 2.344 . S
O378 C402 1.272 . S
O379 Tb361 2.344 . S
O379 C403 1.272 . S
O380 Tb361 2.344 . S
O380 C404 1.272 . S
O381 Tb352 2.344 . S
O381 C405 1.272 . S
O382 Tb351 2.344 . S
O382 C394 1.272 . S
O383 Tb362 2.344 . S
O383 C395 1.272 . S
O384 Tb362 2.344 . S
O384 C397 1.272 . S
O385 Tb351 2.344 . S
O385 C396 1.272 . S
O386 Tb350 2.344 . S
O386 C404 1.272 . S
O387 Tb365 2.344 1_556 S
O387 C405 1.272 . S
O388 Tb365 2.344 . S
O388 C403 1.272 . S
O389 Tb350 2.344 1_556 S
O389 C402 1.272 . S
O390 Tb361 2.344 . S
O390 C401 1.272 . S
O391 Tb352 2.344 . S
O391 C400 1.272 . S
O392 Tb352 2.344 . S
O392 C398 1.272 . S
O393 Tb361 2.344 . S
O393 C399 1.272 . S
C394 O370 1.272 . S
C394 O382 1.272 . S
C395 O371 1.272 . S
C395 O383 1.272 . S
C396 O372 1.272 . S
C396 O385 1.272 . S
C397 O373 1.272 . S
C397 O384 1.272 . S
C398 O374 1.272 . S
C398 O392 1.272 . S
C399 O375 1.272 . S
C399 O393 1.272 . S
C400 O376 1.272 . S
C400 O391 1.272 . S
C401 O377 1.272 . S
C401 O390 1.272 . S
C402 O378 1.272 . S
C402 O389 1.272 . S
C403 O379 1.272 . S
C403 O388 1.272 . S
C404 O380 1.272 . S
C404 O386 1.272 . S
C405 O381 1.272 . S
C405 O387 1.272 . S
H406 O407 0.850 . S
O407 H406 0.850 . S
O407 Tb408 2.341 . S
O407 Tb409 2.341 . S
O407 Tb410 2.341 . S
Tb408 O407 2.341 . S
Tb408 O411 2.341 . S
Tb408 O412 2.341 . S
Tb408 O413 2.341 . S
Tb408 O428 2.344 . S
Tb408 O431 2.344 . S
Tb408 O444 2.344 . S
Tb408 O447 2.344 . S
Tb409 O407 2.341 . S
Tb409 O411 2.341 . S
Tb409 O414 2.341 . S
Tb409 O416 2.341 . S
Tb409 O432 2.344 . S
Tb409 O435 2.344 . S
Tb409 O440 2.344 . S
Tb409 O443 2.344 . S
Tb410 O407 2.341 . S
Tb410 O412 2.341 . S
Tb410 O415 2.341 . S
Tb410 O416 2.341 . S
Tb410 O436 2.344 . S
Tb410 O439 2.344 . S
Tb410 O449 2.344 . S
Tb410 O450 2.344 . S
O411 Tb408 2.341 . S
O411 Tb409 2.341 . S
O411 H417 0.850 . S
O411 Tb419 2.341 . S
O412 Tb408 2.341 . S
O412 Tb410 2.341 . S
O412 H418 0.850 . S
O412 Tb420 2.341 . S
O413 Tb408 2.341 . S
O413 Tb419 2.341 . S
O413 Tb420 2.341 . S
O413 H421 0.850 . S
O414 Tb409 2.341 . S
O414 Tb419 2.341 . S
O414 H422 0.850 . S
O414 Tb423 2.341 . S
O415 Tb410 2.341 . S
O415 Tb420 2.341 . S
O415 Tb423 2.341 . S
O415 H424 0.850 . S
O416 Tb409 2.341 . S
O416 Tb410 2.341 . S
O416 Tb423 2.341 . S
O416 H425 0.850 . S
H417 O411 0.850 . S
H418 O412 0.850 . S
Tb419 O411 2.341 . S
Tb419 O413 2.341 . S
Tb419 O414 2.341 . S
Tb419 O426 2.341 . S
Tb419 O437 2.344 . S
Tb419 O438 2.344 . S
Tb419 O448 2.344 . S
Tb419 O451 2.344 . S
Tb420 O412 2.341 . S
Tb420 O413 2.341 . S
Tb420 O415 2.341 . S
Tb420 O426 2.341 . S
Tb420 O433 2.344 . S
Tb420 O434 2.344 . S
Tb420 O441 2.344 . S
Tb420 O442 2.344 . S
H421 O413 0.850 . S
H422 O414 0.850 . S
Tb423 O414 2.341 . S
Tb423 O415 2.341 . S
Tb423 O416 2.341 . S
Tb423 O426 2.341 . S
Tb423 O429 2.344 . S
Tb423 O430 2.344 . S
Tb423 O445 2.344 . S
Tb423 O446 2.344 . S
H424 O415 0.850 . S
H425 O416 0.850 . S
O426 Tb419 2.341 . S
O426 Tb420 2.341 . S
O426 Tb423 2.341 . S
O426 H427 0.850 . S
H427 O426 0.850 . S
O428 Tb408 2.344 . S
O428 C452 1.272 . S
O429 Tb423 2.344 . S
O429 C453 1.272 . S
O430 Tb423 2.344 . S
O430 C454 1.272 . S
O431 Tb408 2.344 . S
O431 C455 1.272 . S
O432 Tb409 2.344 . S
O432 C456 1.272 . S
O433 Tb420 2.344 . S
O433 C457 1.272 . S
O434 Tb420 2.344 . S
O434 C458 1.272 . S
O435 Tb409 2.344 . S
O435 C459 1.272 . S
O436 Tb410 2.344 . S
O436 C460 1.272 . S
O437 Tb419 2.344 . S
O437 C461 1.272 . S
O438 Tb419 2.344 . S
O438 C462 1.272 . S
O439 Tb410 2.344 . S
O439 C463 1.272 . S
O440 Tb409 2.344 . S
O440 C452 1.272 . S
O441 Tb420 2.344 . S
O441 C453 1.272 . S
O442 Tb420 2.344 . S
O442 C455 1.272 . S
O443 Tb409 2.344 . S
O443 C454 1.272 . S
O444 Tb408 2.344 . S
O444 C462 1.272 . S
O445 Tb423 2.344 . S
O445 C463 1.272 . S
O446 Tb423 2.344 . S
O446 C461 1.272 . S
O447 Tb408 2.344 . S
O447 C460 1.272 . S
O448 Tb419 2.344 . S
O448 C459 1.272 . S
O449 Tb410 2.344 . S
O449 C458 1.272 . S
O450 Tb410 2.344 . S
O450 C456 1.272 . S
O451 Tb419 2.344 . S
O451 C457 1.272 . S
C452 O428 1.272 . S
C452 O440 1.272 . S
C453 O429 1.272 . S
C453 O441 1.272 . S
C454 O430 1.272 . S
C454 O443 1.272 . S
C455 O431 1.272 . S
C455 O442 1.272 . S
C456 O432 1.272 . S
C456 O450 1.272 . S
C457 O433 1.272 . S
C457 O451 1.272 . S
C458 O434 1.272 . S
C458 O449 1.272 . S
C459 O435 1.272 . S
C459 O448 1.272 . S
C460 O436 1.272 . S
C460 O447 1.272 . S
C461 O437 1.272 . S
C461 O446 1.272 . S
C462 O438 1.272 . S
C462 O444 1.272 . S
C463 O439 1.272 . S
C463 O445 1.272 . S
H464 O465 0.850 . S
O465 H464 0.850 . S
O465 Tb466 2.341 . S
O465 Tb467 2.341 . S
O465 Tb468 2.341 . S
Tb466 O465 2.341 . S
Tb466 O469 2.341 . S
Tb466 O470 2.341 . S
Tb466 O471 2.341 . S
Tb466 O486 2.344 . S
Tb466 O489 2.344 . S
Tb466 O502 2.344 . S
Tb466 O505 2.344 . S
Tb467 O465 2.341 . S
Tb467 O469 2.341 . S
Tb467 O472 2.341 . S
Tb467 O474 2.341 . S
Tb467 O490 2.344 . S
Tb467 O493 2.344 . S
Tb467 O498 2.344 . S
Tb467 O501 2.344 . S
Tb468 O465 2.341 . S
Tb468 O470 2.341 . S
Tb468 O473 2.341 . S
Tb468 O474 2.341 . S
Tb468 O494 2.344 . S
Tb468 O497 2.344 . S
Tb468 O507 2.344 . S
Tb468 O508 2.344 . S
O469 Tb466 2.341 . S
O469 Tb467 2.341 . S
O469 H475 0.850 . S
O469 Tb477 2.341 . S
O470 Tb466 2.341 . S
O470 Tb468 2.341 . S
O470 H476 0.850 . S
O470 Tb478 2.341 . S
O471 Tb466 2.341 . S
O471 Tb477 2.341 . S
O471 Tb478 2.341 . S
O471 H479 0.850 . S
O472 Tb467 2.341 . S
O472 Tb477 2.341 . S
O472 H480 0.850 . S
O472 Tb481 2.341 . S
O473 Tb468 2.341 . S
O473 Tb478 2.341 . S
O473 Tb481 2.341 . S
O473 H482 0.850 . S
O474 Tb467 2.341 . S
O474 Tb468 2.341 . S
O474 Tb481 2.341 . S
O474 H483 0.850 . S
H475 O469 0.850 . S
H476 O470 0.850 . S
Tb477 O469 2.341 . S
Tb477 O471 2.341 . S
Tb477 O472 2.341 . S
Tb477 O484 2.341 . S
Tb477 O495 2.344 . S
Tb477 O496 2.344 . S
Tb477 O506 2.344 . S
Tb477 O509 2.344 . S
Tb478 O470 2.341 . S
Tb478 O471 2.341 . S
Tb478 O473 2.341 . S
Tb478 O484 2.341 . S
Tb478 O491 2.344 . S
Tb478 O492 2.344 . S
Tb478 O499 2.344 . S
Tb478 O500 2.344 . S
H479 O471 0.850 . S
H480 O472 0.850 . S
Tb481 O472 2.341 . S
Tb481 O473 2.341 . S
Tb481 O474 2.341 . S
Tb481 O484 2.341 . S
Tb481 O487 2.344 . S
Tb481 O488 2.344 . S
Tb481 O503 2.344 . S
Tb481 O504 2.344 . S
H482 O473 0.850 . S
H483 O474 0.850 . S
O484 Tb477 2.341 . S
O484 Tb478 2.341 . S
O484 Tb481 2.341 . S
O484 H485 0.850 . S
H485 O484 0.850 . S
O486 Tb466 2.344 . S
O486 C510 1.272 . S
O487 Tb481 2.344 . S
O487 C511 1.272 . S
O488 Tb481 2.344 . S
O488 C512 1.272 . S
O489 Tb466 2.344 . S
O489 C513 1.272 . S
O490 Tb467 2.344 . S
O490 C514 1.272 . S
O491 Tb478 2.344 . S
O491 C515 1.272 . S
O492 Tb478 2.344 . S
O492 C516 1.272 . S
O493 Tb467 2.344 . S
O493 C517 1.272 . S
O494 Tb468 2.344 . S
O494 C518 1.272 . S
O495 Tb477 2.344 . S
O495 C519 1.272 . S
O496 Tb477 2.344 . S
O496 C520 1.272 . S
O497 Tb468 2.344 . S
O497 C521 1.272 . S
O498 Tb467 2.344 . S
O498 C510 1.272 . S
O499 Tb478 2.344 . S
O499 C511 1.272 . S
O500 Tb478 2.344 . S
O500 C513 1.272 . S
O501 Tb467 2.344 . S
O501 C512 1.272 . S
O502 Tb466 2.344 . S
O502 C520 1.272 . S
O503 Tb481 2.344 . S
O503 C521 1.272 . S
O504 Tb481 2.344 . S
O504 C519 1.272 . S
O505 Tb466 2.344 . S
O505 C518 1.272 . S
O506 Tb477 2.344 . S
O506 C517 1.272 . S
O507 Tb468 2.344 . S
O507 C516 1.272 . S
O508 Tb468 2.344 . S
O508 C514 1.272 . S
O509 Tb477 2.344 . S
O509 C515 1.272 . S
C510 O486 1.272 . S
C510 O498 1.272 . S
C511 O487 1.272 . S
C511 O499 1.272 . S
C512 O488 1.272 . S
C512 O501 1.272 . S
C513 O489 1.272 . S
C513 O500 1.272 . S
C514 O490 1.272 . S
C514 O508 1.272 . S
C515 O491 1.272 . S
C515 O509 1.272 . S
C516 O492 1.272 . S
C516 O507 1.272 . S
C517 O493 1.272 . S
C517 O506 1.272 . S
C518 O494 1.272 . S
C518 O505 1.272 . S
C519 O495 1.272 . S
C519 O504 1.272 . S
C520 O496 1.272 . S
C520 O502 1.272 . S
C521 O497 1.272 . S
C521 O503 1.272 . S
H522 O523 0.850 . S
O523 H522 0.850 . S
O523 Tb524 2.341 . S
O523 Tb525 2.341 . S
O523 Tb526 2.341 . S
Tb524 O523 2.341 . S
Tb524 O527 2.341 . S
Tb524 O528 2.341 . S
Tb524 O529 2.341 . S
Tb524 O544 2.344 . S
Tb524 O547 2.344 . S
Tb524 O560 2.344 . S
Tb524 O563 2.344 . S
Tb525 O523 2.341 . S
Tb525 O527 2.341 . S
Tb525 O530 2.341 . S
Tb525 O532 2.341 . S
Tb525 O548 2.344 . S
Tb525 O551 2.344 . S
Tb525 O556 2.344 . S
Tb525 O559 2.344 . S
Tb526 O523 2.341 . S
Tb526 O528 2.341 . S
Tb526 O531 2.341 . S
Tb526 O532 2.341 . S
Tb526 O552 2.344 . S
Tb526 O555 2.344 . S
Tb526 O565 2.344 . S
Tb526 O566 2.344 . S
O527 Tb524 2.341 . S
O527 Tb525 2.341 . S
O527 H533 0.850 . S
O527 Tb535 2.341 . S
O528 Tb524 2.341 . S
O528 Tb526 2.341 . S
O528 H534 0.850 . S
O528 Tb536 2.341 . S
O529 Tb524 2.341 . S
O529 Tb535 2.341 . S
O529 Tb536 2.341 . S
O529 H537 0.850 . S
O530 Tb525 2.341 . S
O530 Tb535 2.341 . S
O530 H538 0.850 . S
O530 Tb539 2.341 . S
O531 Tb526 2.341 . S
O531 Tb536 2.341 . S
O531 Tb539 2.341 . S
O531 H540 0.850 . S
O532 Tb525 2.341 . S
O532 Tb526 2.341 . S
O532 Tb539 2.341 . S
O532 H541 0.850 . S
H533 O527 0.850 . S
H534 O528 0.850 . S
Tb535 O527 2.341 . S
Tb535 O529 2.341 . S
Tb535 O530 2.341 . S
Tb535 O542 2.341 . S
Tb535 O553 2.344 . S
Tb535 O554 2.344 . S
Tb535 O564 2.344 . S
Tb535 O567 2.344 . S
Tb536 O528 2.341 . S
Tb536 O529 2.341 . S
Tb536 O531 2.341 . S
Tb536 O542 2.341 . S
Tb536 O549 2.344 . S
Tb536 O550 2.344 . S
Tb536 O557 2.344 . S
Tb536 O558 2.344 . S
H537 O529 0.850 . S
H538 O530 0.850 . S
Tb539 O530 2.341 . S
Tb539 O531 2.341 . S
Tb539 O532 2.341 . S
Tb539 O542 2.341 . S
Tb539 O545 2.344 . S
Tb539 O546 2.344 . S
Tb539 O561 2.344 . S
Tb539 O562 2.344 . S
H540 O531 0.850 . S
H541 O532 0.850 . S
O542 Tb535 2.341 . S
O542 Tb536 2.341 . S
O542 Tb539 2.341 . S
O542 H543 0.850 . S
H543 O542 0.850 . S
O544 Tb524 2.344 . S
O544 C568 1.272 . S
O545 Tb539 2.344 . S
O545 C569 1.272 . S
O546 Tb539 2.344 . S
O546 C570 1.272 . S
O547 Tb524 2.344 . S
O547 C571 1.272 . S
O548 Tb525 2.344 . S
O548 C572 1.272 . S
O549 Tb536 2.344 . S
O549 C573 1.272 . S
O550 Tb536 2.344 . S
O550 C574 1.272 . S
O551 Tb525 2.344 . S
O551 C575 1.272 . S
O552 Tb526 2.344 . S
O552 C576 1.272 . S
O553 Tb535 2.344 . S
O553 C577 1.272 . S
O554 Tb535 2.344 . S
O554 C578 1.272 . S
O555 Tb526 2.344 . S
O555 C579 1.272 . S
O556 Tb525 2.344 . S
O556 C568 1.272 . S
O557 Tb536 2.344 . S
O557 C569 1.272 . S
O558 Tb536 2.344 . S
O558 C571 1.272 . S
O559 Tb525 2.344 . S
O559 C570 1.272 . S
O560 Tb524 2.344 . S
O560 C578 1.272 . S
O561 Tb539 2.344 . S
O561 C579 1.272 . S
O562 Tb539 2.344 . S
O562 C577 1.272 . S
O563 Tb524 2.344 . S
O563 C576 1.272 . S
O564 Tb535 2.344 . S
O564 C575 1.272 . S
O565 Tb526 2.344 . S
O565 C574 1.272 . S
O566 Tb526 2.344 . S
O566 C572 1.272 . S
O567 Tb535 2.344 . S
O567 C573 1.272 . S
C568 O544 1.272 . S
C568 O556 1.272 . S
C569 O545 1.272 . S
C569 O557 1.272 . S
C570 O546 1.272 . S
C570 O559 1.272 . S
C571 O547 1.272 . S
C571 O558 1.272 . S
C572 O548 1.272 . S
C572 O566 1.272 . S
C573 O549 1.272 . S
C573 O567 1.272 . S
C574 O550 1.272 . S
C574 O565 1.272 . S
C575 O551 1.272 . S
C575 O564 1.272 . S
C576 O552 1.272 . S
C576 O563 1.272 . S
C577 O553 1.272 . S
C577 O562 1.272 . S
C578 O554 1.272 . S
C578 O560 1.272 . S
C579 O555 1.272 . S
C579 O561 1.272 . S
H580 O581 0.850 . S
O581 H580 0.850 . S
O581 Tb582 2.341 1_565 S
O581 Tb583 2.341 . S
O581 Tb584 2.341 . S
Tb582 O581 2.341 1_545 S
Tb582 O585 2.341 . S
Tb582 O586 2.341 1_545 S
Tb582 O587 2.341 . S
Tb582 O602 2.344 1_545 S
Tb582 O605 2.344 . S
Tb582 O618 2.344 . S
Tb582 O621 2.344 1_545 S
Tb583 O581 2.341 . S
Tb583 O585 2.341 1_565 S
Tb583 O588 2.341 1_565 S
Tb583 O590 2.341 . S
Tb583 O606 2.344 . S
Tb583 O609 2.344 1_565 S
Tb583 O614 2.344 . S
Tb583 O617 2.344 . S
Tb584 O581 2.341 . S
Tb584 O586 2.341 . S
Tb584 O589 2.341 . S
Tb584 O590 2.341 . S
Tb584 O610 2.344 . S
Tb584 O613 2.344 . S
Tb584 O623 2.344 . S
Tb584 O624 2.344 . S
O585 Tb582 2.341 . S
O585 Tb583 2.341 1_545 S
O585 H591 0.850 . S
O585 Tb593 2.341 . S
O586 Tb582 2.341 1_565 S
O586 Tb584 2.341 . S
O586 H592 0.850 . S
O586 Tb594 2.341 1_565 S
O587 Tb582 2.341 . S
O587 Tb593 2.341 . S
O587 Tb594 2.341 . S
O587 H595 0.850 . S
O588 Tb583 2.341 1_545 S
O588 Tb593 2.341 . S
O588 H596 0.850 . S
O588 Tb597 2.341 . S
O589 Tb584 2.341 . S
O589 Tb594 2.341 1_565 S
O589 Tb597 2.341 1_565 S
O589 H598 0.850 . S
O590 Tb583 2.341 . S
O590 Tb584 2.341 . S
O590 Tb597 2.341 1_565 S
O590 H599 0.850 . S
H591 O585 0.850 . S
H592 O586 0.850 . S
Tb593 O585 2.341 . S
Tb593 O587 2.341 . S
Tb593 O588 2.341 . S
Tb593 O600 2.341 . S
Tb593 O611 2.344 . S
Tb593 O612 2.344 . S
Tb593 O622 2.344 . S
Tb593 O625 2.344 . S
Tb594 O586 2.341 1_545 S
Tb594 O587 2.341 . S
Tb594 O589 2.341 1_545 S
Tb594 O600 2.341 . S
Tb594 O607 2.344 . S
Tb594 O608 2.344 1_545 S
Tb594 O615 2.344 . S
Tb594 O616 2.344 . S
H595 O587 0.850 . S
H596 O588 0.850 . S
Tb597 O588 2.341 . S
Tb597 O589 2.341 1_545 S
Tb597 O590 2.341 1_545 S
Tb597 O600 2.341 . S
Tb597 O603 2.344 . S
Tb597 O604 2.344 1_545 S
Tb597 O619 2.344 1_545 S
Tb597 O620 2.344 . S
H598 O589 0.850 . S
H599 O590 0.850 . S
O600 Tb593 2.341 . S
O600 Tb594 2.341 . S
O600 Tb597 2.341 . S
O600 H601 0.850 . S
H601 O600 0.850 . S
O602 Tb582 2.344 1_565 S
O602 C626 1.272 . S
O603 Tb597 2.344 . S
O603 C627 1.272 . S
O604 Tb597 2.344 1_565 S
O604 C628 1.272 . S
O605 Tb582 2.344 . S
O605 C629 1.272 . S
O606 Tb583 2.344 . S
O606 C630 1.272 . S
O607 Tb594 2.344 . S
O607 C631 1.272 . S
O608 Tb594 2.344 1_565 S
O608 C632 1.272 . S
O609 Tb583 2.344 1_545 S
O609 C633 1.272 . S
O610 Tb584 2.344 . S
O610 C634 1.272 . S
O611 Tb593 2.344 . S
O611 C635 1.272 . S
O612 Tb593 2.344 . S
O612 C636 1.272 . S
O613 Tb584 2.344 . S
O613 C637 1.272 . S
O614 Tb583 2.344 . S
O614 C626 1.272 . S
O615 Tb594 2.344 . S
O615 C627 1.272 . S
O616 Tb594 2.344 . S
O616 C629 1.272 . S
O617 Tb583 2.344 . S
O617 C628 1.272 . S
O618 Tb582 2.344 . S
O618 C636 1.272 . S
O619 Tb597 2.344 1_565 S
O619 C637 1.272 . S
O620 Tb597 2.344 . S
O620 C635 1.272 . S
O621 Tb582 2.344 1_565 S
O621 C634 1.272 . S
O622 Tb593 2.344 . S
O622 C633 1.272 . S
O623 Tb584 2.344 . S
O623 C632 1.272 . S
O624 Tb584 2.344 . S
O624 C630 1.272 . S
O625 Tb593 2.344 . S
O625 C631 1.272 . S
C626 O602 1.272 . S
C626 O614 1.272 . S
C627 O603 1.272 . S
C627 O615 1.272 . S
C628 O604 1.272 . S
C628 O617 1.272 . S
C629 O605 1.272 . S
C629 O616 1.272 . S
C630 O606 1.272 . S
C630 O624 1.272 . S
C631 O607 1.272 . S
C631 O625 1.272 . S
C632 O608 1.272 . S
C632 O623 1.272 . S
C633 O609 1.272 . S
C633 O622 1.272 . S
C634 O610 1.272 . S
C634 O621 1.272 . S
C635 O611 1.272 . S
C635 O620 1.272 . S
C636 O612 1.272 . S
C636 O618 1.272 . S
C637 O613 1.272 . S
C637 O619 1.272 . S
H638 O639 0.850 . S
O639 H638 0.850 . S
O639 Tb640 2.341 . S
O639 Tb641 2.341 . S
O639 Tb642 2.341 . S
Tb640 O639 2.341 . S
Tb640 O643 2.341 . S
Tb640 O644 2.341 . S
Tb640 O645 2.341 . S
Tb640 O660 2.344 . S
Tb640 O663 2.344 . S
Tb640 O676 2.344 . S
Tb640 O679 2.344 . S
Tb641 O639 2.341 . S
Tb641 O643 2.341 . S
Tb641 O646 2.341 . S
Tb641 O648 2.341 . S
Tb641 O664 2.344 . S
Tb641 O667 2.344 . S
Tb641 O672 2.344 . S
Tb641 O675 2.344 . S
Tb642 O639 2.341 . S
Tb642 O644 2.341 . S
Tb642 O647 2.341 . S
Tb642 O648 2.341 . S
Tb642 O668 2.344 . S
Tb642 O671 2.344 . S
Tb642 O681 2.344 . S
Tb642 O682 2.344 . S
O643 Tb640 2.341 . S
O643 Tb641 2.341 . S
O643 H649 0.850 . S
O643 Tb651 2.341 . S
O644 Tb640 2.341 . S
O644 Tb642 2.341 . S
O644 H650 0.850 . S
O644 Tb652 2.341 . S
O645 Tb640 2.341 . S
O645 Tb651 2.341 . S
O645 Tb652 2.341 . S
O645 H653 0.850 . S
O646 Tb641 2.341 . S
O646 Tb651 2.341 . S
O646 H654 0.850 . S
O646 Tb655 2.341 . S
O647 Tb642 2.341 . S
O647 Tb652 2.341 . S
O647 Tb655 2.341 . S
O647 H656 0.850 . S
O648 Tb641 2.341 . S
O648 Tb642 2.341 . S
O648 Tb655 2.341 . S
O648 H657 0.850 . S
H649 O643 0.850 . S
H650 O644 0.850 . S
Tb651 O643 2.341 . S
Tb651 O645 2.341 . S
Tb651 O646 2.341 . S
Tb651 O658 2.341 . S
Tb651 O669 2.344 . S
Tb651 O670 2.344 . S
Tb651 O680 2.344 . S
Tb651 O683 2.344 . S
Tb652 O644 2.341 . S
Tb652 O645 2.341 . S
Tb652 O647 2.341 . S
Tb652 O658 2.341 . S
Tb652 O665 2.344 . S
Tb652 O666 2.344 . S
Tb652 O673 2.344 . S
Tb652 O674 2.344 . S
H653 O645 0.850 . S
H654 O646 0.850 . S
Tb655 O646 2.341 . S
Tb655 O647 2.341 . S
Tb655 O648 2.341 . S
Tb655 O658 2.341 . S
Tb655 O661 2.344 . S
Tb655 O662 2.344 . S
Tb655 O677 2.344 . S
Tb655 O678 2.344 . S
H656 O647 0.850 . S
H657 O648 0.850 . S
O658 Tb651 2.341 . S
O658 Tb652 2.341 . S
O658 Tb655 2.341 . S
O658 H659 0.850 . S
H659 O658 0.850 . S
O660 Tb640 2.344 . S
O660 C684 1.272 . S
O661 Tb655 2.344 . S
O661 C685 1.272 . S
O662 Tb655 2.344 . S
O662 C686 1.272 . S
O663 Tb640 2.344 . S
O663 C687 1.272 . S
O664 Tb641 2.344 . S
O664 C688 1.272 . S
O665 Tb652 2.344 . S
O665 C689 1.272 . S
O666 Tb652 2.344 . S
O666 C690 1.272 . S
O667 Tb641 2.344 . S
O667 C691 1.272 . S
O668 Tb642 2.344 . S
O668 C692 1.272 . S
O669 Tb651 2.344 . S
O669 C693 1.272 . S
O670 Tb651 2.344 . S
O670 C694 1.272 . S
O671 Tb642 2.344 . S
O671 C695 1.272 . S
O672 Tb641 2.344 . S
O672 C684 1.272 . S
O673 Tb652 2.344 . S
O673 C685 1.272 . S
O674 Tb652 2.344 . S
O674 C687 1.272 . S
O675 Tb641 2.344 . S
O675 C686 1.272 . S
O676 Tb640 2.344 . S
O676 C694 1.272 . S
O677 Tb655 2.344 . S
O677 C695 1.272 . S
O678 Tb655 2.344 . S
O678 C693 1.272 . S
O679 Tb640 2.344 . S
O679 C692 1.272 . S
O680 Tb651 2.344 . S
O680 C691 1.272 . S
O681 Tb642 2.344 . S
O681 C690 1.272 . S
O682 Tb642 2.344 . S
O682 C688 1.272 . S
O683 Tb651 2.344 . S
O683 C689 1.272 . S
C684 O660 1.272 . S
C684 O672 1.272 . S
C685 O661 1.272 . S
C685 O673 1.272 . S
C686 O662 1.272 . S
C686 O675 1.272 . S
C687 O663 1.272 . S
C687 O674 1.272 . S
C688 O664 1.272 . S
C688 O682 1.272 . S
C689 O665 1.272 . S
C689 O683 1.272 . S
C690 O666 1.272 . S
C690 O681 1.272 . S
C691 O667 1.272 . S
C691 O680 1.272 . S
C692 O668 1.272 . S
C692 O679 1.272 . S
C693 O669 1.272 . S
C693 O678 1.272 . S
C694 O670 1.272 . S
C694 O676 1.272 . S
C695 O671 1.272 . S
C695 O677 1.272 . S
C696 C697 1.349 . S
C696 C698 1.327 . S
C696 H721 0.950 . S
C697 C696 1.349 . S
C697 C713 1.349 . S
C698 C696 1.327 . S
C698 C717 1.429 . S
C698 H722 0.950 . S
C699 C716 1.574 . S
C699 C718 1.368 . S
C699 H723 0.949 . S
H700 C704 0.949 . S
C701 C702 1.349 . S
C701 C703 1.327 . S
C701 H724 0.950 . S
C702 C701 1.349 . S
C702 C714 1.349 . S
C703 C701 1.327 . S
C703 C719 1.429 . S
C703 H725 0.950 . S
C704 H700 0.949 . S
C704 C712 1.574 . S
C704 C720 1.368 . S
H705 C713 0.950 . S
H706 C711 0.950 . S
H707 C712 0.949 . S
H708 C714 0.950 . S
H709 C715 0.950 . S
H710 C716 0.949 . S
C711 H706 0.950 . S
C711 C713 1.327 . S
C711 C717 1.429 . S
C712 C704 1.574 . S
C712 H707 0.949 . S
C712 C718 1.368 . S
C713 C697 1.349 . S
C713 H705 0.950 . S
C713 C711 1.327 . S
C714 C702 1.349 . S
C714 H708 0.950 . S
C714 C715 1.327 . S
C715 H709 0.950 . S
C715 C714 1.327 . S
C715 C719 1.429 . S
C716 C699 1.574 . S
C716 H710 0.949 . S
C716 C720 1.368 . S
C717 C698 1.429 . S
C717 C711 1.429 . S
C717 C718 1.523 . S
C718 C699 1.368 . S
C718 C712 1.368 . S
C718 C717 1.523 . S
C719 C703 1.429 . S
C719 C715 1.429 . S
C719 C720 1.523 . S
C720 C704 1.368 . S
C720 C716 1.368 . S
C720 C719 1.523 . S
H721 C696 0.950 . S
H722 C698 0.950 . S
H723 C699 0.949 . S
H724 C701 0.950 . S
H725 C703 0.950 . S
C726 C727 1.349 . S
C726 C728 1.327 . S
C726 H751 0.950 . S
C727 C726 1.349 . S
C727 C743 1.349 . S
C728 C726 1.327 . S
C728 C747 1.429 . S
C728 H752 0.950 . S
C729 C746 1.574 . S
C729 C748 1.368 . S
C729 H753 0.949 . S
H730 C734 0.949 . S
C731 C732 1.349 . S
C731 C733 1.327 . S
C731 H754 0.950 . S
C732 C731 1.349 . S
C732 C744 1.349 . S
C733 C731 1.327 . S
C733 C749 1.429 1_556 S
C733 H755 0.950 . S
C734 H730 0.949 . S
C734 C742 1.574 . S
C734 C750 1.368 . S
H735 C743 0.950 . S
H736 C741 0.950 . S
H737 C742 0.949 . S
H738 C744 0.950 . S
H739 C745 0.950 1_554 S
H740 C746 0.949 . S
C741 H736 0.950 . S
C741 C743 1.327 . S
C741 C747 1.429 . S
C742 C734 1.574 . S
C742 H737 0.949 . S
C742 C748 1.368 . S
C743 C727 1.349 . S
C743 H735 0.950 . S
C743 C741 1.327 . S
C744 C732 1.349 . S
C744 H738 0.950 . S
C744 C745 1.327 . S
C745 H739 0.950 1_556 S
C745 C744 1.327 . S
C745 C749 1.429 1_556 S
C746 C729 1.574 . S
C746 H740 0.949 . S
C746 C750 1.368 . S
C747 C728 1.429 . S
C747 C741 1.429 . S
C747 C748 1.523 . S
C748 C729 1.368 . S
C748 C742 1.368 . S
C748 C747 1.523 . S
C749 C733 1.429 1_554 S
C749 C745 1.429 1_554 S
C749 C750 1.523 . S
C750 C734 1.368 . S
C750 C746 1.368 . S
C750 C749 1.523 . S
H751 C726 0.950 . S
H752 C728 0.950 . S
H753 C729 0.949 . S
H754 C731 0.950 . S
H755 C733 0.950 . S
C756 C757 1.349 . S
C756 C758 1.327 . S
C756 H781 0.950 . S
C757 C756 1.349 . S
C757 C773 1.349 . S
C758 C756 1.327 . S
C758 C777 1.429 . S
C758 H782 0.950 . S
C759 C776 1.574 . S
C759 C778 1.368 . S
C759 H783 0.949 . S
H760 C764 0.949 . S
C761 C762 1.349 . S
C761 C763 1.327 . S
C761 H784 0.950 . S
C762 C761 1.349 . S
C762 C774 1.349 . S
C763 C761 1.327 . S
C763 C779 1.429 . S
C763 H785 0.950 . S
C764 H760 0.949 . S
C764 C772 1.574 . S
C764 C780 1.368 . S
H765 C773 0.950 . S
H766 C771 0.950 . S
H767 C772 0.949 . S
H768 C774 0.950 . S
H769 C775 0.950 . S
H770 C776 0.949 . S
C771 H766 0.950 . S
C771 C773 1.327 . S
C771 C777 1.429 . S
C772 C764 1.574 . S
C772 H767 0.949 . S
C772 C778 1.368 . S
C773 C757 1.349 . S
C773 H765 0.950 . S
C773 C771 1.327 . S
C774 C762 1.349 . S
C774 H768 0.950 . S
C774 C775 1.327 . S
C775 H769 0.950 . S
C775 C774 1.327 . S
C775 C779 1.429 . S
C776 C759 1.574 . S
C776 H770 0.949 . S
C776 C780 1.368 . S
C777 C758 1.429 . S
C777 C771 1.429 . S
C777 C778 1.523 . S
C778 C759 1.368 . S
C778 C772 1.368 . S
C778 C777 1.523 . S
C779 C763 1.429 . S
C779 C775 1.429 . S
C779 C780 1.523 . S
C780 C764 1.368 . S
C780 C776 1.368 . S
C780 C779 1.523 . S
H781 C756 0.950 . S
H782 C758 0.950 . S
H783 C759 0.949 . S
H784 C761 0.950 . S
H785 C763 0.950 . S
C786 C787 1.349 . S
C786 C788 1.327 . S
C786 H811 0.950 . S
C787 C786 1.349 . S
C787 C803 1.349 . S
C788 C786 1.327 . S
C788 C807 1.429 . S
C788 H812 0.950 . S
C789 C806 1.574 . S
C789 C808 1.368 . S
C789 H813 0.949 . S
H790 C794 0.949 . S
C791 C792 1.349 . S
C791 C793 1.327 . S
C791 H814 0.950 . S
C792 C791 1.349 . S
C792 C804 1.349 . S
C793 C791 1.327 . S
C793 C809 1.429 1_556 S
C793 H815 0.950 . S
C794 H790 0.949 . S
C794 C802 1.574 . S
C794 C810 1.368 . S
H795 C803 0.950 . S
H796 C801 0.950 . S
H797 C802 0.949 . S
H798 C804 0.950 . S
H799 C805 0.950 . S
H800 C806 0.949 . S
C801 H796 0.950 . S
C801 C803 1.327 . S
C801 C807 1.429 . S
C802 C794 1.574 . S
C802 H797 0.949 . S
C802 C808 1.368 . S
C803 C787 1.349 . S
C803 H795 0.950 . S
C803 C801 1.327 . S
C804 C792 1.349 . S
C804 H798 0.950 . S
C804 C805 1.327 1_556 S
C805 H799 0.950 . S
C805 C804 1.327 1_554 S
C805 C809 1.429 . S
C806 C789 1.574 . S
C806 H800 0.949 . S
C806 C810 1.368 . S
C807 C788 1.429 . S
C807 C801 1.429 . S
C807 C808 1.523 . S
C808 C789 1.368 . S
C808 C802 1.368 . S
C808 C807 1.523 . S
C809 C793 1.429 1_554 S
C809 C805 1.429 . S
C809 C810 1.523 . S
C810 C794 1.368 . S
C810 C806 1.368 . S
C810 C809 1.523 . S
H811 C786 0.950 . S
H812 C788 0.950 . S
H813 C789 0.949 . S
H814 C791 0.950 . S
H815 C793 0.950 . S
C816 C817 1.349 . S
C816 C818 1.327 . S
C816 H841 0.950 . S
C817 C816 1.349 . S
C817 C833 1.349 . S
C818 C816 1.327 . S
C818 C837 1.429 . S
C818 H842 0.950 . S
C819 C836 1.574 . S
C819 C838 1.368 . S
C819 H843 0.949 . S
H820 C824 0.949 . S
C821 C822 1.349 . S
C821 C823 1.327 . S
C821 H844 0.950 . S
C822 C821 1.349 . S
C822 C834 1.349 . S
C823 C821 1.327 . S
C823 C839 1.429 . S
C823 H845 0.950 . S
C824 H820 0.949 . S
C824 C832 1.574 . S
C824 C840 1.368 . S
H825 C833 0.950 . S
H826 C831 0.950 . S
H827 C832 0.949 . S
H828 C834 0.950 . S
H829 C835 0.950 . S
H830 C836 0.949 . S
C831 H826 0.950 . S
C831 C833 1.327 . S
C831 C837 1.429 . S
C832 C824 1.574 . S
C832 H827 0.949 . S
C832 C838 1.368 . S
C833 C817 1.349 . S
C833 H825 0.950 . S
C833 C831 1.327 . S
C834 C822 1.349 . S
C834 H828 0.950 . S
C834 C835 1.327 . S
C835 H829 0.950 . S
C835 C834 1.327 . S
C835 C839 1.429 . S
C836 C819 1.574 . S
C836 H830 0.949 . S
C836 C840 1.368 . S
C837 C818 1.429 . S
C837 C831 1.429 . S
C837 C838 1.523 . S
C838 C819 1.368 . S
C838 C832 1.368 . S
C838 C837 1.523 . S
C839 C823 1.429 . S
C839 C835 1.429 . S
C839 C840 1.523 . S
C840 C824 1.368 . S
C840 C836 1.368 . S
C840 C839 1.523 . S
H841 C816 0.950 . S
H842 C818 0.950 . S
H843 C819 0.949 . S
H844 C821 0.950 . S
H845 C823 0.950 . S
C846 C847 1.349 . S
C846 C848 1.327 1_554 S
C846 H871 0.950 1_655 S
C847 C846 1.349 . S
C847 C863 1.349 . S
C848 C846 1.327 1_556 S
C848 C867 1.429 . S
C848 H872 0.950 . S
C849 C866 1.574 . S
C849 C868 1.368 . S
C849 H873 0.949 . S
H850 C854 0.949 . S
C851 C852 1.349 . S
C851 C853 1.327 . S
C851 H874 0.950 . S
C852 C851 1.349 . S
C852 C864 1.349 . S
C853 C851 1.327 . S
C853 C869 1.429 . S
C853 H875 0.950 . S
C854 H850 0.949 . S
C854 C862 1.574 . S
C854 C870 1.368 . S
H855 C863 0.950 . S
H856 C861 0.950 . S
H857 C862 0.949 . S
H858 C864 0.950 . S
H859 C865 0.950 . S
H860 C866 0.949 . S
C861 H856 0.950 . S
C861 C863 1.327 . S
C861 C867 1.429 1_554 S
C862 C854 1.574 . S
C862 H857 0.949 . S
C862 C868 1.368 . S
C863 C847 1.349 . S
C863 H855 0.950 . S
C863 C861 1.327 . S
C864 C852 1.349 . S
C864 H858 0.950 . S
C864 C865 1.327 . S
C865 H859 0.950 . S
C865 C864 1.327 . S
C865 C869 1.429 . S
C866 C849 1.574 . S
C866 H860 0.949 . S
C866 C870 1.368 . S
C867 C848 1.429 . S
C867 C861 1.429 1_556 S
C867 C868 1.523 . S
C868 C849 1.368 . S
C868 C862 1.368 . S
C868 C867 1.523 . S
C869 C853 1.429 . S
C869 C865 1.429 . S
C869 C870 1.523 . S
C870 C854 1.368 . S
C870 C866 1.368 . S
C870 C869 1.523 . S
H871 C846 0.950 1_455 S
H872 C848 0.950 . S
H873 C849 0.949 . S
H874 C851 0.950 . S
H875 C853 0.950 . S
C876 C877 1.349 . S
C876 C878 1.327 . S
C876 H901 0.950 . S
C877 C876 1.349 . S
C877 C893 1.349 . S
C878 C876 1.327 . S
C878 C897 1.429 . S
C878 H902 0.950 . S
C879 C896 1.574 . S
C879 C898 1.368 . S
C879 H903 0.949 . S
H880 C884 0.949 . S
C881 C882 1.349 . S
C881 C883 1.327 . S
C881 H904 0.950 . S
C882 C881 1.349 . S
C882 C894 1.349 . S
C883 C881 1.327 . S
C883 C899 1.429 . S
C883 H905 0.950 . S
C884 H880 0.949 . S
C884 C892 1.574 . S
C884 C900 1.368 . S
H885 C893 0.950 . S
H886 C891 0.950 . S
H887 C892 0.949 . S
H888 C894 0.950 . S
H889 C895 0.950 . S
H890 C896 0.949 . S
C891 H886 0.950 . S
C891 C893 1.327 . S
C891 C897 1.429 . S
C892 C884 1.574 . S
C892 H887 0.949 . S
C892 C898 1.368 . S
C893 C877 1.349 . S
C893 H885 0.950 . S
C893 C891 1.327 . S
C894 C882 1.349 . S
C894 H888 0.950 . S
C894 C895 1.327 . S
C895 H889 0.950 . S
C895 C894 1.327 . S
C895 C899 1.429 . S
C896 C879 1.574 . S
C896 H890 0.949 . S
C896 C900 1.368 . S
C897 C878 1.429 . S
C897 C891 1.429 . S
C897 C898 1.523 . S
C898 C879 1.368 . S
C898 C892 1.368 . S
C898 C897 1.523 . S
C899 C883 1.429 . S
C899 C895 1.429 . S
C899 C900 1.523 . S
C900 C884 1.368 . S
C900 C896 1.368 . S
C900 C899 1.523 . S
H901 C876 0.950 . S
H902 C878 0.950 . S
H903 C879 0.949 . S
H904 C881 0.950 . S
H905 C883 0.950 . S
C906 C907 1.349 . S
C906 C908 1.327 . S
C906 H931 0.950 . S
C907 C906 1.349 . S
C907 C923 1.349 . S
C908 C906 1.327 . S
C908 C927 1.429 . S
C908 H932 0.950 . S
C909 C926 1.574 . S
C909 C928 1.368 . S
C909 H933 0.949 . S
H910 C914 0.949 . S
C911 C912 1.349 . S
C911 C913 1.327 . S
C911 H934 0.950 1_455 S
C912 C911 1.349 . S
C912 C924 1.349 . S
C913 C911 1.327 . S
C913 C929 1.429 1_554 S
C913 H935 0.950 1_554 S
C914 H910 0.949 . S
C914 C922 1.574 . S
C914 C930 1.368 . S
H915 C923 0.950 . S
H916 C921 0.950 . S
H917 C922 0.949 . S
H918 C924 0.950 . S
H919 C925 0.950 . S
H920 C926 0.949 . S
C921 H916 0.950 . S
C921 C923 1.327 . S
C921 C927 1.429 . S
C922 C914 1.574 . S
C922 H917 0.949 . S
C922 C928 1.368 . S
C923 C907 1.349 . S
C923 H915 0.950 . S
C923 C921 1.327 . S
C924 C912 1.349 . S
C924 H918 0.950 . S
C924 C925 1.327 . S
C925 H919 0.950 . S
C925 C924 1.327 . S
C925 C929 1.429 1_554 S
C926 C909 1.574 . S
C926 H920 0.949 . S
C926 C930 1.368 . S
C927 C908 1.429 . S
C927 C921 1.429 . S
C927 C928 1.523 . S
C928 C909 1.368 . S
C928 C922 1.368 . S
C928 C927 1.523 . S
C929 C913 1.429 1_556 S
C929 C925 1.429 1_556 S
C929 C930 1.523 . S
C930 C914 1.368 . S
C930 C926 1.368 . S
C930 C929 1.523 . S
H931 C906 0.950 . S
H932 C908 0.950 . S
H933 C909 0.949 . S
H934 C911 0.950 1_655 S
H935 C913 0.950 1_556 S
C936 C937 1.349 . S
C936 C938 1.327 . S
C936 H961 0.950 . S
C937 C936 1.349 . S
C937 C953 1.349 . S
C938 C936 1.327 . S
C938 C957 1.429 . S
C938 H962 0.950 . S
C939 C956 1.574 . S
C939 C958 1.368 . S
C939 H963 0.949 . S
H940 C944 0.949 . S
C941 C942 1.349 . S
C941 C943 1.327 . S
C941 H964 0.950 . S
C942 C941 1.349 . S
C942 C954 1.349 . S
C943 C941 1.327 . S
C943 C959 1.429 . S
C943 H965 0.950 . S
C944 H940 0.949 . S
C944 C952 1.574 . S
C944 C960 1.368 . S
H945 C953 0.950 . S
H946 C951 0.950 . S
H947 C952 0.949 . S
H948 C954 0.950 . S
H949 C955 0.950 . S
H950 C956 0.949 . S
C951 H946 0.950 . S
C951 C953 1.327 . S
C951 C957 1.429 . S
C952 C944 1.574 . S
C952 H947 0.949 . S
C952 C958 1.368 . S
C953 C937 1.349 . S
C953 H945 0.950 . S
C953 C951 1.327 . S
C954 C942 1.349 . S
C954 H948 0.950 . S
C954 C955 1.327 . S
C955 H949 0.950 . S
C955 C954 1.327 . S
C955 C959 1.429 . S
C956 C939 1.574 . S
C956 H950 0.949 . S
C956 C960 1.368 . S
C957 C938 1.429 . S
C957 C951 1.429 . S
C957 C958 1.523 . S
C958 C939 1.368 . S
C958 C952 1.368 . S
C958 C957 1.523 . S
C959 C943 1.429 . S
C959 C955 1.429 . S
C959 C960 1.523 . S
C960 C944 1.368 . S
C960 C956 1.368 . S
C960 C959 1.523 . S
H961 C936 0.950 . S
H962 C938 0.950 . S
H963 C939 0.949 . S
H964 C941 0.950 . S
H965 C943 0.950 . S
C966 C967 1.349 . S
C966 C968 1.327 . S
C966 H991 0.950 . S
C967 C966 1.349 . S
C967 C983 1.349 . S
C968 C966 1.327 . S
C968 C987 1.429 . S
C968 H992 0.950 . S
C969 C986 1.574 . S
C969 C988 1.368 . S
C969 H993 0.949 . S
H970 C974 0.949 . S
C971 C972 1.349 . S
C971 C973 1.327 . S
C971 H994 0.950 . S
C972 C971 1.349 . S
C972 C984 1.349 1_556 S
C973 C971 1.327 . S
C973 C989 1.429 . S
C973 H995 0.950 . S
C974 H970 0.949 . S
C974 C982 1.574 . S
C974 C990 1.368 . S
H975 C983 0.950 . S
H976 C981 0.950 . S
H977 C982 0.949 . S
H978 C984 0.950 . S
H979 C985 0.949 . S
H980 C986 0.949 . S
C981 H976 0.950 . S
C981 C983 1.327 . S
C981 C987 1.429 . S
C982 C974 1.574 . S
C982 H977 0.949 . S
C982 C988 1.368 . S
C983 C967 1.349 . S
C983 H975 0.950 . S
C983 C981 1.327 . S
C984 C972 1.349 1_554 S
C984 H978 0.950 . S
C984 C985 1.327 1_554 S
C985 H979 0.949 . S
C985 C984 1.327 1_556 S
C985 C989 1.429 . S
C986 C969 1.574 . S
C986 H980 0.949 . S
C986 C990 1.368 . S
C987 C968 1.429 . S
C987 C981 1.429 . S
C987 C988 1.523 . S
C988 C969 1.368 . S
C988 C982 1.368 . S
C988 C987 1.523 . S
C989 C973 1.429 . S
C989 C985 1.429 . S
C989 C990 1.523 . S
C990 C974 1.368 . S
C990 C986 1.368 . S
C990 C989 1.523 . S
H991 C966 0.950 . S
H992 C968 0.950 . S
H993 C969 0.949 . S
H994 C971 0.950 . S
H995 C973 0.950 . S
C996 C997 1.349 . S
C996 C998 1.327 . S
C996 H1021 0.950 . S
C997 C996 1.349 . S
C997 C1013 1.349 . S
C998 C996 1.327 . S
C998 C1017 1.429 . S
C998 H1022 0.950 . S
C999 C1016 1.574 . S
C999 C1018 1.368 . S
C999 H1023 0.949 . S
H1000 C1004 0.949 . S
C1001 C1002 1.349 . S
C1001 C1003 1.327 . S
C1001 H1024 0.950 . S
C1002 C1001 1.349 . S
C1002 C1014 1.349 . S
C1003 C1001 1.327 . S
C1003 C1019 1.429 . S
C1003 H1025 0.950 . S
C1004 H1000 0.949 . S
C1004 C1012 1.574 . S
C1004 C1020 1.368 . S
H1005 C1013 0.950 . S
H1006 C1011 0.950 . S
H1007 C1012 0.949 . S
H1008 C1014 0.950 . S
H1009 C1015 0.950 . S
H1010 C1016 0.949 . S
C1011 H1006 0.950 . S
C1011 C1013 1.327 . S
C1011 C1017 1.429 . S
C1012 C1004 1.574 . S
C1012 H1007 0.949 . S
C1012 C1018 1.368 . S
C1013 C997 1.349 . S
C1013 H1005 0.950 . S
C1013 C1011 1.327 . S
C1014 C1002 1.349 . S
C1014 H1008 0.950 . S
C1014 C1015 1.327 . S
C1015 H1009 0.950 . S
C1015 C1014 1.327 . S
C1015 C1019 1.429 . S
C1016 C999 1.574 . S
C1016 H1010 0.949 . S
C1016 C1020 1.368 . S
C1017 C998 1.429 . S
C1017 C1011 1.429 . S
C1017 C1018 1.523 . S
C1018 C999 1.368 . S
C1018 C1012 1.368 . S
C1018 C1017 1.523 . S
C1019 C1003 1.429 . S
C1019 C1015 1.429 . S
C1019 C1020 1.523 . S
C1020 C1004 1.368 . S
C1020 C1016 1.368 . S
C1020 C1019 1.523 . S
H1021 C996 0.950 . S
H1022 C998 0.950 . S
H1023 C999 0.949 . S
H1024 C1001 0.950 . S
H1025 C1003 0.950 . S
C1026 C1027 1.349 . S
C1026 C1028 1.327 . S
C1026 H1051 0.950 . S
C1027 C1026 1.349 . S
C1027 C1043 1.349 . S
C1028 C1026 1.327 . S
C1028 C1047 1.429 . S
C1028 H1052 0.950 . S
C1029 C1046 1.574 . S
C1029 C1048 1.368 . S
C1029 H1053 0.949 . S
H1030 C1034 0.949 . S
C1031 C1032 1.349 . S
C1031 C1033 1.327 1_545 S
C1031 H1054 0.950 1_556 S
C1032 C1031 1.349 . S
C1032 C1044 1.349 . S
C1033 C1031 1.327 1_565 S
C1033 C1049 1.429 . S
C1033 H1055 0.950 . S
C1034 H1030 0.949 . S
C1034 C1042 1.574 . S
C1034 C1050 1.368 . S
H1035 C1043 0.950 . S
H1036 C1041 0.950 . S
H1037 C1042 0.949 . S
H1038 C1044 0.950 . S
H1039 C1045 0.950 . S
H1040 C1046 0.949 . S
C1041 H1036 0.950 . S
C1041 C1043 1.327 . S
C1041 C1047 1.429 . S
C1042 C1034 1.574 . S
C1042 H1037 0.949 . S
C1042 C1048 1.368 . S
C1043 C1027 1.349 . S
C1043 H1035 0.950 . S
C1043 C1041 1.327 . S
C1044 C1032 1.349 . S
C1044 H1038 0.950 . S
C1044 C1045 1.327 . S
C1045 H1039 0.950 . S
C1045 C1044 1.327 . S
C1045 C1049 1.429 1_545 S
C1046 C1029 1.574 . S
C1046 H1040 0.949 . S
C1046 C1050 1.368 . S
C1047 C1028 1.429 . S
C1047 C1041 1.429 . S
C1047 C1048 1.523 . S
C1048 C1029 1.368 . S
C1048 C1042 1.368 . S
C1048 C1047 1.523 . S
C1049 C1033 1.429 . S
C1049 C1045 1.429 1_565 S
C1049 C1050 1.523 . S
C1050 C1034 1.368 . S
C1050 C1046 1.368 . S
C1050 C1049 1.523 . S
H1051 C1026 0.950 . S
H1052 C1028 0.950 . S
H1053 C1029 0.949 . S
H1054 C1031 0.950 1_554 S
H1055 C1033 0.950 . S
C1056 C1057 1.349 . S
C1056 C1058 1.327 . S
C1056 H1081 0.950 . S
C1057 C1056 1.349 . S
C1057 C1073 1.349 . S
C1058 C1056 1.327 . S
C1058 C1077 1.429 . S
C1058 H1082 0.950 . S
C1059 C1076 1.574 . S
C1059 C1078 1.368 . S
C1059 H1083 0.949 . S
H1060 C1064 0.949 . S
C1061 C1062 1.349 . S
C1061 C1063 1.327 . S
C1061 H1084 0.950 . S
C1062 C1061 1.349 . S
C1062 C1074 1.349 . S
C1063 C1061 1.327 . S
C1063 C1079 1.429 . S
C1063 H1085 0.950 . S
C1064 H1060 0.949 . S
C1064 C1072 1.574 . S
C1064 C1080 1.368 . S
H1065 C1073 0.950 . S
H1066 C1071 0.950 . S
H1067 C1072 0.949 . S
H1068 C1074 0.950 . S
H1069 C1075 0.950 . S
H1070 C1076 0.949 . S
C1071 H1066 0.950 . S
C1071 C1073 1.327 . S
C1071 C1077 1.429 . S
C1072 C1064 1.574 . S
C1072 H1067 0.949 . S
C1072 C1078 1.368 . S
C1073 C1057 1.349 . S
C1073 H1065 0.950 . S
C1073 C1071 1.327 . S
C1074 C1062 1.349 . S
C1074 H1068 0.950 . S
C1074 C1075 1.327 . S
C1075 H1069 0.950 . S
C1075 C1074 1.327 . S
C1075 C1079 1.429 . S
C1076 C1059 1.574 . S
C1076 H1070 0.949 . S
C1076 C1080 1.368 . S
C1077 C1058 1.429 . S
C1077 C1071 1.429 . S
C1077 C1078 1.523 . S
C1078 C1059 1.368 . S
C1078 C1072 1.368 . S
C1078 C1077 1.523 . S
C1079 C1063 1.429 . S
C1079 C1075 1.429 . S
C1079 C1080 1.523 . S
C1080 C1064 1.368 . S
C1080 C1076 1.368 . S
C1080 C1079 1.523 . S
H1081 C1056 0.950 . S
H1082 C1058 0.950 . S
H1083 C1059 0.949 . S
H1084 C1061 0.950 . S
H1085 C1063 0.950 . S
C1086 C1087 1.349 1_556 S
C1086 C1088 1.327 1_556 S
C1086 H1111 0.950 . S
C1087 C1086 1.349 1_554 S
C1087 C1103 1.349 . S
C1088 C1086 1.327 1_554 S
C1088 C1107 1.429 . S
C1088 H1112 0.950 1_554 S
C1089 C1106 1.574 . S
C1089 C1108 1.368 . S
C1089 H1113 0.949 . S
H1090 C1094 0.949 . S
C1091 C1092 1.349 . S
C1091 C1093 1.327 . S
C1091 H1114 0.950 . S
C1092 C1091 1.349 . S
C1092 C1104 1.349 . S
C1093 C1091 1.327 . S
C1093 C1109 1.429 . S
C1093 H1115 0.950 . S
C1094 H1090 0.949 . S
C1094 C1102 1.574 . S
C1094 C1110 1.368 . S
H1095 C1103 0.950 . S
H1096 C1101 0.950 . S
H1097 C1102 0.949 . S
H1098 C1104 0.950 . S
H1099 C1105 0.950 . S
H1100 C1106 0.949 . S
C1101 H1096 0.950 . S
C1101 C1103 1.327 . S
C1101 C1107 1.429 . S
C1102 C1094 1.574 . S
C1102 H1097 0.949 . S
C1102 C1108 1.368 . S
C1103 C1087 1.349 . S
C1103 H1095 0.950 . S
C1103 C1101 1.327 . S
C1104 C1092 1.349 . S
C1104 H1098 0.950 . S
C1104 C1105 1.327 . S
C1105 H1099 0.950 . S
C1105 C1104 1.327 . S
C1105 C1109 1.429 . S
C1106 C1089 1.574 . S
C1106 H1100 0.949 . S
C1106 C1110 1.368 . S
C1107 C1088 1.429 . S
C1107 C1101 1.429 . S
C1107 C1108 1.523 . S
C1108 C1089 1.368 . S
C1108 C1102 1.368 . S
C1108 C1107 1.523 . S
C1109 C1093 1.429 . S
C1109 C1105 1.429 . S
C1109 C1110 1.523 . S
C1110 C1094 1.368 . S
C1110 C1106 1.368 . S
C1110 C1109 1.523 . S
H1111 C1086 0.950 . S
H1112 C1088 0.950 1_556 S
H1113 C1089 0.949 . S
H1114 C1091 0.950 . S
H1115 C1093 0.950 . S
C1116 C1117 1.349 . S
C1116 C1118 1.327 . S
C1116 H1141 0.950 . S
C1117 C1116 1.349 . S
C1117 C1133 1.349 . S
C1118 C1116 1.327 . S
C1118 C1137 1.429 . S
C1118 H1142 0.950 . S
C1119 C1136 1.574 . S
C1119 C1138 1.368 . S
C1119 H1143 0.949 . S
H1120 C1124 0.949 . S
C1121 C1122 1.349 . S
C1121 C1123 1.327 . S
C1121 H1144 0.950 . S
C1122 C1121 1.349 . S
C1122 C1134 1.349 . S
C1123 C1121 1.327 . S
C1123 C1139 1.429 . S
C1123 H1145 0.950 . S
C1124 H1120 0.949 . S
C1124 C1132 1.574 . S
C1124 C1140 1.368 . S
H1125 C1133 0.950 . S
H1126 C1131 0.950 . S
H1127 C1132 0.949 . S
H1128 C1134 0.950 . S
H1129 C1135 0.950 . S
H1130 C1136 0.949 . S
C1131 H1126 0.950 . S
C1131 C1133 1.327 . S
C1131 C1137 1.429 . S
C1132 C1124 1.574 . S
C1132 H1127 0.949 . S
C1132 C1138 1.368 . S
C1133 C1117 1.349 . S
C1133 H1125 0.950 . S
C1133 C1131 1.327 . S
C1134 C1122 1.349 . S
C1134 H1128 0.950 . S
C1134 C1135 1.327 . S
C1135 H1129 0.950 . S
C1135 C1134 1.327 . S
C1135 C1139 1.429 . S
C1136 C1119 1.574 . S
C1136 H1130 0.949 . S
C1136 C1140 1.368 . S
C1137 C1118 1.429 . S
C1137 C1131 1.429 . S
C1137 C1138 1.523 . S
C1138 C1119 1.368 . S
C1138 C1132 1.368 . S
C1138 C1137 1.523 . S
C1139 C1123 1.429 . S
C1139 C1135 1.429 . S
C1139 C1140 1.523 . S
C1140 C1124 1.368 . S
C1140 C1136 1.368 . S
C1140 C1139 1.523 . S
H1141 C1116 0.950 . S
H1142 C1118 0.950 . S
H1143 C1119 0.949 . S
H1144 C1121 0.950 . S
H1145 C1123 0.950 . S
C1146 C1147 1.349 . S
C1146 C1148 1.327 . S
C1146 H1171 0.950 1_554 S
C1147 C1146 1.349 . S
C1147 C1163 1.349 . S
C1148 C1146 1.327 . S
C1148 C1167 1.429 1_545 S
C1148 H1172 0.950 1_545 S
C1149 C1166 1.574 . S
C1149 C1168 1.368 . S
C1149 H1173 0.949 . S
H1150 C1154 0.949 . S
C1151 C1152 1.349 . S
C1151 C1153 1.327 . S
C1151 H1174 0.950 . S
C1152 C1151 1.349 . S
C1152 C1164 1.349 . S
C1153 C1151 1.327 . S
C1153 C1169 1.429 . S
C1153 H1175 0.950 . S
C1154 H1150 0.949 . S
C1154 C1162 1.574 . S
C1154 C1170 1.368 . S
H1155 C1163 0.950 . S
H1156 C1161 0.950 . S
H1157 C1162 0.949 . S
H1158 C1164 0.950 . S
H1159 C1165 0.950 . S
H1160 C1166 0.949 . S
C1161 H1156 0.950 . S
C1161 C1163 1.327 . S
C1161 C1167 1.429 1_545 S
C1162 C1154 1.574 . S
C1162 H1157 0.949 . S
C1162 C1168 1.368 . S
C1163 C1147 1.349 . S
C1163 H1155 0.950 . S
C1163 C1161 1.327 . S
C1164 C1152 1.349 . S
C1164 H1158 0.950 . S
C1164 C1165 1.327 . S
C1165 H1159 0.950 . S
C1165 C1164 1.327 . S
C1165 C1169 1.429 . S
C1166 C1149 1.574 . S
C1166 H1160 0.949 . S
C1166 C1170 1.368 . S
C1167 C1148 1.429 1_565 S
C1167 C1161 1.429 1_565 S
C1167 C1168 1.523 . S
C1168 C1149 1.368 . S
C1168 C1162 1.368 . S
C1168 C1167 1.523 . S
C1169 C1153 1.429 . S
C1169 C1165 1.429 . S
C1169 C1170 1.523 . S
C1170 C1154 1.368 . S
C1170 C1166 1.368 . S
C1170 C1169 1.523 . S
H1171 C1146 0.950 1_556 S
H1172 C1148 0.950 1_565 S
H1173 C1149 0.949 . S
H1174 C1151 0.950 . S
H1175 C1153 0.950 . S
C1176 C1177 1.349 . S
C1176 C1178 1.327 . S
C1176 H1201 0.950 . S
C1177 C1176 1.349 . S
C1177 C1193 1.349 . S
C1178 C1176 1.327 . S
C1178 C1197 1.429 . S
C1178 H1202 0.950 . S
C1179 C1196 1.574 . S
C1179 C1198 1.368 . S
C1179 H1203 0.949 . S
H1180 C1184 0.949 . S
C1181 C1182 1.349 . S
C1181 C1183 1.327 . S
C1181 H1204 0.950 . S
C1182 C1181 1.349 . S
C1182 C1194 1.349 . S
C1183 C1181 1.327 . S
C1183 C1199 1.429 . S
C1183 H1205 0.950 . S
C1184 H1180 0.949 . S
C1184 C1192 1.574 . S
C1184 C1200 1.368 . S
H1185 C1193 0.950 . S
H1186 C1191 0.950 . S
H1187 C1192 0.949 . S
H1188 C1194 0.950 . S
H1189 C1195 0.950 . S
H1190 C1196 0.949 . S
C1191 H1186 0.950 . S
C1191 C1193 1.327 . S
C1191 C1197 1.429 . S
C1192 C1184 1.574 . S
C1192 H1187 0.949 . S
C1192 C1198 1.368 . S
C1193 C1177 1.349 . S
C1193 H1185 0.950 . S
C1193 C1191 1.327 . S
C1194 C1182 1.349 . S
C1194 H1188 0.950 . S
C1194 C1195 1.327 . S
C1195 H1189 0.950 . S
C1195 C1194 1.327 . S
C1195 C1199 1.429 . S
C1196 C1179 1.574 . S
C1196 H1190 0.949 . S
C1196 C1200 1.368 . S
C1197 C1178 1.429 . S
C1197 C1191 1.429 . S
C1197 C1198 1.523 . S
C1198 C1179 1.368 . S
C1198 C1192 1.368 . S
C1198 C1197 1.523 . S
C1199 C1183 1.429 . S
C1199 C1195 1.429 . S
C1199 C1200 1.523 . S
C1200 C1184 1.368 . S
C1200 C1196 1.368 . S
C1200 C1199 1.523 . S
H1201 C1176 0.950 . S
H1202 C1178 0.950 . S
H1203 C1179 0.949 . S
H1204 C1181 0.950 . S
H1205 C1183 0.950 . S
C1206 C1207 1.349 . S
C1206 C1208 1.327 . S
C1206 H1231 0.950 . S
C1207 C1206 1.349 . S
C1207 C1223 1.349 . S
C1208 C1206 1.327 . S
C1208 C1227 1.429 . S
C1208 H1232 0.950 . S
C1209 C1226 1.574 . S
C1209 C1228 1.368 . S
C1209 H1233 0.949 . S
H1210 C1214 0.949 . S
C1211 C1212 1.349 . S
C1211 C1213 1.327 . S
C1211 H1234 0.950 . S
C1212 C1211 1.349 . S
C1212 C1224 1.349 . S
C1213 C1211 1.327 . S
C1213 C1229 1.429 . S
C1213 H1235 0.950 . S
C1214 H1210 0.949 . S
C1214 C1222 1.574 . S
C1214 C1230 1.368 . S
H1215 C1223 0.950 . S
H1216 C1221 0.950 . S
H1217 C1222 0.949 . S
H1218 C1224 0.950 . S
H1219 C1225 0.950 . S
H1220 C1226 0.949 . S
C1221 H1216 0.950 . S
C1221 C1223 1.327 . S
C1221 C1227 1.429 . S
C1222 C1214 1.574 . S
C1222 H1217 0.949 . S
C1222 C1228 1.368 . S
C1223 C1207 1.349 . S
C1223 H1215 0.950 . S
C1223 C1221 1.327 . S
C1224 C1212 1.349 . S
C1224 H1218 0.950 . S
C1224 C1225 1.327 . S
C1225 H1219 0.950 . S
C1225 C1224 1.327 . S
C1225 C1229 1.429 . S
C1226 C1209 1.574 . S
C1226 H1220 0.949 . S
C1226 C1230 1.368 . S
C1227 C1208 1.429 . S
C1227 C1221 1.429 . S
C1227 C1228 1.523 . S
C1228 C1209 1.368 . S
C1228 C1222 1.368 . S
C1228 C1227 1.523 . S
C1229 C1213 1.429 . S
C1229 C1225 1.429 . S
C1229 C1230 1.523 . S
C1230 C1214 1.368 . S
C1230 C1226 1.368 . S
C1230 C1229 1.523 . S
H1231 C1206 0.950 . S
H1232 C1208 0.950 . S
H1233 C1209 0.949 . S
H1234 C1211 0.950 . S
H1235 C1213 0.950 . S
C1236 C1237 1.349 . S
C1236 C1238 1.327 . S
C1236 H1261 0.950 . S
C1237 C1236 1.349 . S
C1237 C1253 1.349 . S
C1238 C1236 1.327 . S
C1238 C1257 1.429 1_655 S
C1238 H1262 0.950 . S
C1239 C1256 1.574 . S
C1239 C1258 1.368 . S
C1239 H1263 0.949 . S
H1240 C1244 0.949 . S
C1241 C1242 1.349 . S
C1241 C1243 1.327 . S
C1241 H1264 0.950 . S
C1242 C1241 1.349 . S
C1242 C1254 1.349 . S
C1243 C1241 1.327 . S
C1243 C1259 1.429 . S
C1243 H1265 0.950 . S
C1244 H1240 0.949 . S
C1244 C1252 1.574 . S
C1244 C1260 1.368 . S
H1245 C1253 0.950 . S
H1246 C1251 0.950 1_455 S
H1247 C1252 0.949 . S
H1248 C1254 0.950 . S
H1249 C1255 0.950 . S
H1250 C1256 0.949 . S
C1251 H1246 0.950 1_655 S
C1251 C1253 1.327 . S
C1251 C1257 1.429 1_655 S
C1252 C1244 1.574 . S
C1252 H1247 0.949 . S
C1252 C1258 1.368 . S
C1253 C1237 1.349 . S
C1253 H1245 0.950 . S
C1253 C1251 1.327 . S
C1254 C1242 1.349 . S
C1254 H1248 0.950 . S
C1254 C1255 1.327 . S
C1255 H1249 0.950 . S
C1255 C1254 1.327 . S
C1255 C1259 1.429 . S
C1256 C1239 1.574 . S
C1256 H1250 0.949 . S
C1256 C1260 1.368 . S
C1257 C1238 1.429 1_455 S
C1257 C1251 1.429 1_455 S
C1257 C1258 1.523 . S
C1258 C1239 1.368 . S
C1258 C1252 1.368 . S
C1258 C1257 1.523 . S
C1259 C1243 1.429 . S
C1259 C1255 1.429 . S
C1259 C1260 1.523 . S
C1260 C1244 1.368 . S
C1260 C1256 1.368 . S
C1260 C1259 1.523 . S
H1261 C1236 0.950 . S
H1262 C1238 0.950 . S
H1263 C1239 0.949 . S
H1264 C1241 0.950 . S
H1265 C1243 0.950 . S
C1266 C1267 1.349 . S
C1266 C1268 1.327 . S
C1266 H1291 0.950 . S
C1267 C1266 1.349 . S
C1267 C1283 1.349 . S
C1268 C1266 1.327 . S
C1268 C1287 1.429 . S
C1268 H1292 0.950 . S
C1269 C1286 1.574 . S
C1269 C1288 1.368 . S
C1269 H1293 0.949 . S
H1270 C1274 0.949 . S
C1271 C1272 1.349 . S
C1271 C1273 1.327 . S
C1271 H1294 0.950 . S
C1272 C1271 1.349 . S
C1272 C1284 1.349 . S
C1273 C1271 1.327 . S
C1273 C1289 1.429 . S
C1273 H1295 0.950 . S
C1274 H1270 0.949 . S
C1274 C1282 1.574 . S
C1274 C1290 1.368 . S
H1275 C1283 0.950 . S
H1276 C1281 0.950 . S
H1277 C1282 0.949 . S
H1278 C1284 0.950 . S
H1279 C1285 0.950 . S
H1280 C1286 0.949 . S
C1281 H1276 0.950 . S
C1281 C1283 1.327 . S
C1281 C1287 1.429 . S
C1282 C1274 1.574 . S
C1282 H1277 0.949 . S
C1282 C1288 1.368 . S
C1283 C1267 1.349 . S
C1283 H1275 0.950 . S
C1283 C1281 1.327 . S
C1284 C1272 1.349 . S
C1284 H1278 0.950 . S
C1284 C1285 1.327 . S
C1285 H1279 0.950 . S
C1285 C1284 1.327 . S
C1285 C1289 1.429 . S
C1286 C1269 1.574 . S
C1286 H1280 0.949 . S
C1286 C1290 1.368 . S
C1287 C1268 1.429 . S
C1287 C1281 1.429 . S
C1287 C1288 1.523 . S
C1288 C1269 1.368 . S
C1288 C1282 1.368 . S
C1288 C1287 1.523 . S
C1289 C1273 1.429 . S
C1289 C1285 1.429 . S
C1289 C1290 1.523 . S
C1290 C1274 1.368 . S
C1290 C1286 1.368 . S
C1290 C1289 1.523 . S
H1291 C1266 0.950 . S
H1292 C1268 0.950 . S
H1293 C1269 0.949 . S
H1294 C1271 0.950 . S
H1295 C1273 0.950 . S
C1296 C1297 1.349 . S
C1296 C1298 1.327 . S
C1296 H1321 0.950 . S
C1297 C1296 1.349 . S
C1297 C1313 1.349 . S
C1298 C1296 1.327 . S
C1298 C1317 1.429 . S
C1298 H1322 0.950 . S
C1299 C1316 1.574 . S
C1299 C1318 1.368 . S
C1299 H1323 0.949 . S
H1300 C1304 0.949 . S
C1301 C1302 1.349 . S
C1301 C1303 1.327 . S
C1301 H1324 0.950 . S
C1302 C1301 1.349 . S
C1302 C1314 1.349 . S
C1303 C1301 1.327 . S
C1303 C1319 1.429 . S
C1303 H1325 0.950 . S
C1304 H1300 0.949 . S
C1304 C1312 1.574 . S
C1304 C1320 1.368 . S
H1305 C1313 0.950 . S
H1306 C1311 0.950 . S
H1307 C1312 0.949 . S
H1308 C1314 0.950 . S
H1309 C1315 0.950 . S
H1310 C1316 0.949 . S
C1311 H1306 0.950 . S
C1311 C1313 1.327 . S
C1311 C1317 1.429 . S
C1312 C1304 1.574 . S
C1312 H1307 0.949 . S
C1312 C1318 1.368 . S
C1313 C1297 1.349 . S
C1313 H1305 0.950 . S
C1313 C1311 1.327 . S
C1314 C1302 1.349 . S
C1314 H1308 0.950 . S
C1314 C1315 1.327 . S
C1315 H1309 0.950 . S
C1315 C1314 1.327 . S
C1315 C1319 1.429 . S
C1316 C1299 1.574 . S
C1316 H1310 0.949 . S
C1316 C1320 1.368 . S
C1317 C1298 1.429 . S
C1317 C1311 1.429 . S
C1317 C1318 1.523 . S
C1318 C1299 1.368 . S
C1318 C1312 1.368 . S
C1318 C1317 1.523 . S
C1319 C1303 1.429 . S
C1319 C1315 1.429 . S
C1319 C1320 1.523 . S
C1320 C1304 1.368 . S
C1320 C1316 1.368 . S
C1320 C1319 1.523 . S
H1321 C1296 0.950 . S
H1322 C1298 0.950 . S
H1323 C1299 0.949 . S
H1324 C1301 0.950 . S
H1325 C1303 0.950 . S
C1326 C1327 1.349 . S
C1326 C1328 1.327 . S
C1326 H1351 0.950 . S
C1327 C1326 1.349 . S
C1327 C1343 1.349 . S
C1328 C1326 1.327 . S
C1328 C1347 1.429 . S
C1328 H1352 0.950 . S
C1329 C1346 1.574 . S
C1329 C1348 1.368 . S
C1329 H1353 0.949 . S
H1330 C1334 0.949 . S
C1331 C1332 1.349 . S
C1331 C1333 1.327 . S
C1331 H1354 0.950 . S
C1332 C1331 1.349 . S
C1332 C1344 1.349 . S
C1333 C1331 1.327 . S
C1333 C1349 1.429 . S
C1333 H1355 0.950 . S
C1334 H1330 0.949 . S
C1334 C1342 1.574 . S
C1334 C1350 1.368 . S
H1335 C1343 0.950 . S
H1336 C1341 0.950 . S
H1337 C1342 0.949 . S
H1338 C1344 0.950 . S
H1339 C1345 0.950 . S
H1340 C1346 0.949 . S
C1341 H1336 0.950 . S
C1341 C1343 1.327 . S
C1341 C1347 1.429 . S
C1342 C1334 1.574 . S
C1342 H1337 0.949 . S
C1342 C1348 1.368 . S
C1343 C1327 1.349 . S
C1343 H1335 0.950 . S
C1343 C1341 1.327 . S
C1344 C1332 1.349 . S
C1344 H1338 0.950 . S
C1344 C1345 1.327 . S
C1345 H1339 0.950 . S
C1345 C1344 1.327 . S
C1345 C1349 1.429 . S
C1346 C1329 1.574 . S
C1346 H1340 0.949 . S
C1346 C1350 1.368 . S
C1347 C1328 1.429 . S
C1347 C1341 1.429 . S
C1347 C1348 1.523 . S
C1348 C1329 1.368 . S
C1348 C1342 1.368 . S
C1348 C1347 1.523 . S
C1349 C1333 1.429 . S
C1349 C1345 1.429 . S
C1349 C1350 1.523 . S
C1350 C1334 1.368 . S
C1350 C1346 1.368 . S
C1350 C1349 1.523 . S
H1351 C1326 0.950 . S
H1352 C1328 0.950 . S
H1353 C1329 0.949 . S
H1354 C1331 0.950 . S
H1355 C1333 0.950 . S
C1356 C1357 1.349 . S
C1356 C1358 1.327 1_655 S
C1356 H1381 0.950 . S
C1357 C1356 1.349 . S
C1357 C1373 1.349 . S
C1358 C1356 1.327 1_455 S
C1358 C1377 1.429 . S
C1358 H1382 0.950 . S
C1359 C1376 1.574 . S
C1359 C1378 1.368 . S
C1359 H1383 0.949 . S
H1360 C1364 0.949 . S
C1361 C1362 1.349 . S
C1361 C1363 1.327 . S
C1361 H1384 0.950 . S
C1362 C1361 1.349 . S
C1362 C1374 1.349 . S
C1363 C1361 1.327 . S
C1363 C1379 1.429 . S
C1363 H1385 0.950 . S
C1364 H1360 0.949 . S
C1364 C1372 1.574 . S
C1364 C1380 1.368 . S
H1365 C1373 0.950 . S
H1366 C1371 0.950 . S
H1367 C1372 0.949 . S
H1368 C1374 0.950 . S
H1369 C1375 0.950 . S
H1370 C1376 0.949 . S
C1371 H1366 0.950 . S
C1371 C1373 1.327 . S
C1371 C1377 1.429 1_655 S
C1372 C1364 1.574 . S
C1372 H1367 0.949 . S
C1372 C1378 1.368 . S
C1373 C1357 1.349 . S
C1373 H1365 0.950 . S
C1373 C1371 1.327 . S
C1374 C1362 1.349 . S
C1374 H1368 0.950 . S
C1374 C1375 1.327 . S
C1375 H1369 0.950 . S
C1375 C1374 1.327 . S
C1375 C1379 1.429 . S
C1376 C1359 1.574 . S
C1376 H1370 0.949 . S
C1376 C1380 1.368 . S
C1377 C1358 1.429 . S
C1377 C1371 1.429 1_455 S
C1377 C1378 1.523 . S
C1378 C1359 1.368 . S
C1378 C1372 1.368 . S
C1378 C1377 1.523 . S
C1379 C1363 1.429 . S
C1379 C1375 1.429 . S
C1379 C1380 1.523 . S
C1380 C1364 1.368 . S
C1380 C1376 1.368 . S
C1380 C1379 1.523 . S
H1381 C1356 0.950 . S
H1382 C1358 0.950 . S
H1383 C1359 0.949 . S
H1384 C1361 0.950 . S
H1385 C1363 0.950 . S
C1386 C1387 1.349 . S
C1386 C1388 1.327 1_455 S
C1386 H1411 0.950 1_565 S
C1387 C1386 1.349 . S
C1387 C1403 1.349 . S
C1388 C1386 1.327 1_655 S
C1388 C1407 1.429 . S
C1388 H1412 0.950 . S
C1389 C1406 1.574 . S
C1389 C1408 1.368 . S
C1389 H1413 0.949 . S
H1390 C1394 0.949 . S
C1391 C1392 1.349 . S
C1391 C1393 1.327 . S
C1391 H1414 0.950 . S
C1392 C1391 1.349 . S
C1392 C1404 1.349 . S
C1393 C1391 1.327 . S
C1393 C1409 1.429 . S
C1393 H1415 0.950 . S
C1394 H1390 0.949 . S
C1394 C1402 1.574 . S
C1394 C1410 1.368 . S
H1395 C1403 0.950 . S
H1396 C1401 0.950 . S
H1397 C1402 0.949 . S
H1398 C1404 0.950 . S
H1399 C1405 0.950 . S
H1400 C1406 0.949 . S
C1401 H1396 0.950 . S
C1401 C1403 1.327 . S
C1401 C1407 1.429 1_455 S
C1402 C1394 1.574 . S
C1402 H1397 0.949 . S
C1402 C1408 1.368 . S
C1403 C1387 1.349 . S
C1403 H1395 0.950 . S
C1403 C1401 1.327 . S
C1404 C1392 1.349 . S
C1404 H1398 0.950 . S
C1404 C1405 1.327 . S
C1405 H1399 0.950 . S
C1405 C1404 1.327 . S
C1405 C1409 1.429 . S
C1406 C1389 1.574 . S
C1406 H1400 0.949 . S
C1406 C1410 1.368 . S
C1407 C1388 1.429 . S
C1407 C1401 1.429 1_655 S
C1407 C1408 1.523 . S
C1408 C1389 1.368 . S
C1408 C1402 1.368 . S
C1408 C1407 1.523 . S
C1409 C1393 1.429 . S
C1409 C1405 1.429 . S
C1409 C1410 1.523 . S
C1410 C1394 1.368 . S
C1410 C1406 1.368 . S
C1410 C1409 1.523 . S
H1411 C1386 0.950 1_545 S
H1412 C1388 0.950 . S
H1413 C1389 0.949 . S
H1414 C1391 0.950 . S
H1415 C1393 0.950 . S
C1416 C1417 1.349 . S
C1416 C1418 1.327 . S
C1416 H1441 0.950 . S
C1417 C1416 1.349 . S
C1417 C1433 1.349 . S
C1418 C1416 1.327 . S
C1418 C1437 1.429 . S
C1418 H1442 0.950 . S
C1419 C1436 1.574 . S
C1419 C1438 1.368 . S
C1419 H1443 0.949 . S
H1420 C1424 0.949 . S
C1421 C1422 1.349 . S
C1421 C1423 1.327 . S
C1421 H1444 0.950 . S
C1422 C1421 1.349 . S
C1422 C1434 1.349 . S
C1423 C1421 1.327 . S
C1423 C1439 1.429 . S
C1423 H1445 0.950 . S
C1424 H1420 0.949 . S
C1424 C1432 1.574 . S
C1424 C1440 1.368 . S
H1425 C1433 0.950 . S
H1426 C1431 0.950 . S
H1427 C1432 0.949 . S
H1428 C1434 0.950 . S
H1429 C1435 0.950 . S
H1430 C1436 0.949 . S
C1431 H1426 0.950 . S
C1431 C1433 1.327 . S
C1431 C1437 1.429 . S
C1432 C1424 1.574 . S
C1432 H1427 0.949 . S
C1432 C1438 1.368 . S
C1433 C1417 1.349 . S
C1433 H1425 0.950 . S
C1433 C1431 1.327 . S
C1434 C1422 1.349 . S
C1434 H1428 0.950 . S
C1434 C1435 1.327 . S
C1435 H1429 0.950 . S
C1435 C1434 1.327 . S
C1435 C1439 1.429 . S
C1436 C1419 1.574 . S
C1436 H1430 0.949 . S
C1436 C1440 1.368 . S
C1437 C1418 1.429 . S
C1437 C1431 1.429 . S
C1437 C1438 1.523 . S
C1438 C1419 1.368 . S
C1438 C1432 1.368 . S
C1438 C1437 1.523 . S
C1439 C1423 1.429 . S
C1439 C1435 1.429 . S
C1439 C1440 1.523 . S
C1440 C1424 1.368 . S
C1440 C1436 1.368 . S
C1440 C1439 1.523 . S
H1441 C1416 0.950 . S
H1442 C1418 0.950 . S
H1443 C1419 0.949 . S
H1444 C1421 0.950 . S
H1445 C1423 0.950 . S
C1446 C1447 1.349 . S
C1446 C1448 1.327 . S
C1446 H1471 0.950 . S
C1447 C1446 1.349 . S
C1447 C1463 1.349 . S
C1448 C1446 1.327 . S
C1448 C1467 1.429 . S
C1448 H1472 0.950 . S
C1449 C1466 1.574 . S
C1449 C1468 1.368 . S
C1449 H1473 0.949 . S
H1450 C1454 0.949 . S
C1451 C1452 1.349 . S
C1451 C1453 1.327 . S
C1451 H1474 0.950 . S
C1452 C1451 1.349 . S
C1452 C1464 1.349 . S
C1453 C1451 1.327 . S
C1453 C1469 1.429 . S
C1453 H1475 0.950 . S
C1454 H1450 0.949 . S
C1454 C1462 1.574 . S
C1454 C1470 1.368 . S
H1455 C1463 0.950 1_655 S
H1456 C1461 0.950 . S
H1457 C1462 0.949 . S
H1458 C1464 0.950 . S
H1459 C1465 0.950 . S
H1460 C1466 0.949 . S
C1461 H1456 0.950 . S
C1461 C1463 1.327 . S
C1461 C1467 1.429 . S
C1462 C1454 1.574 . S
C1462 H1457 0.949 . S
C1462 C1468 1.368 . S
C1463 C1447 1.349 . S
C1463 H1455 0.950 1_455 S
C1463 C1461 1.327 . S
C1464 C1452 1.349 . S
C1464 H1458 0.950 . S
C1464 C1465 1.327 . S
C1465 H1459 0.950 . S
C1465 C1464 1.327 . S
C1465 C1469 1.429 . S
C1466 C1449 1.574 . S
C1466 H1460 0.949 . S
C1466 C1470 1.368 . S
C1467 C1448 1.429 . S
C1467 C1461 1.429 . S
C1467 C1468 1.523 . S
C1468 C1449 1.368 . S
C1468 C1462 1.368 . S
C1468 C1467 1.523 . S
C1469 C1453 1.429 . S
C1469 C1465 1.429 . S
C1469 C1470 1.523 . S
C1470 C1454 1.368 . S
C1470 C1466 1.368 . S
C1470 C1469 1.523 . S
H1471 C1446 0.950 . S
H1472 C1448 0.950 . S
H1473 C1449 0.949 . S
H1474 C1451 0.950 . S
H1475 C1453 0.950 . S
C1476 C1477 1.349 . S
C1476 C1478 1.327 . S
C1476 H1501 0.950 . S
C1477 C1476 1.349 . S
C1477 C1493 1.349 . S
C1478 C1476 1.327 . S
C1478 C1497 1.429 . S
C1478 H1502 0.950 . S
C1479 C1496 1.574 . S
C1479 C1498 1.368 . S
C1479 H1503 0.949 . S
H1480 C1484 0.949 . S
C1481 C1482 1.349 . S
C1481 C1483 1.327 . S
C1481 H1504 0.950 . S
C1482 C1481 1.349 . S
C1482 C1494 1.349 . S
C1483 C1481 1.327 . S
C1483 C1499 1.429 . S
C1483 H1505 0.950 . S
C1484 H1480 0.949 . S
C1484 C1492 1.574 . S
C1484 C1500 1.368 . S
H1485 C1493 0.950 . S
H1486 C1491 0.950 . S
H1487 C1492 0.949 . S
H1488 C1494 0.950 . S
H1489 C1495 0.950 . S
H1490 C1496 0.949 . S
C1491 H1486 0.950 . S
C1491 C1493 1.327 . S
C1491 C1497 1.429 . S
C1492 C1484 1.574 . S
C1492 H1487 0.949 . S
C1492 C1498 1.368 . S
C1493 C1477 1.349 . S
C1493 H1485 0.950 . S
C1493 C1491 1.327 . S
C1494 C1482 1.349 . S
C1494 H1488 0.950 . S
C1494 C1495 1.327 . S
C1495 H1489 0.950 . S
C1495 C1494 1.327 . S
C1495 C1499 1.429 . S
C1496 C1479 1.574 . S
C1496 H1490 0.949 . S
C1496 C1500 1.368 . S
C1497 C1478 1.429 . S
C1497 C1491 1.429 . S
C1497 C1498 1.523 . S
C1498 C1479 1.368 . S
C1498 C1492 1.368 . S
C1498 C1497 1.523 . S
C1499 C1483 1.429 . S
C1499 C1495 1.429 . S
C1499 C1500 1.523 . S
C1500 C1484 1.368 . S
C1500 C1496 1.368 . S
C1500 C1499 1.523 . S
H1501 C1476 0.950 . S
H1502 C1478 0.950 . S
H1503 C1479 0.949 . S
H1504 C1481 0.950 . S
H1505 C1483 0.950 . S
C1506 C1507 1.349 . S
C1506 C1508 1.327 . S
C1506 H1531 0.950 . S
C1507 C1506 1.349 . S
C1507 C1523 1.349 . S
C1508 C1506 1.327 . S
C1508 C1527 1.429 . S
C1508 H1532 0.950 . S
C1509 C1526 1.574 . S
C1509 C1528 1.368 . S
C1509 H1533 0.949 . S
H1510 C1514 0.949 . S
C1511 C1512 1.349 . S
C1511 C1513 1.327 . S
C1511 H1534 0.950 . S
C1512 C1511 1.349 . S
C1512 C1524 1.349 . S
C1513 C1511 1.327 . S
C1513 C1529 1.429 . S
C1513 H1535 0.950 . S
C1514 H1510 0.949 . S
C1514 C1522 1.574 . S
C1514 C1530 1.368 . S
H1515 C1523 0.950 1_455 S
H1516 C1521 0.950 . S
H1517 C1522 0.949 . S
H1518 C1524 0.950 . S
H1519 C1525 0.950 . S
H1520 C1526 0.949 . S
C1521 H1516 0.950 . S
C1521 C1523 1.327 . S
C1521 C1527 1.429 . S
C1522 C1514 1.574 . S
C1522 H1517 0.949 . S
C1522 C1528 1.368 . S
C1523 C1507 1.349 . S
C1523 H1515 0.950 1_655 S
C1523 C1521 1.327 . S
C1524 C1512 1.349 . S
C1524 H1518 0.950 . S
C1524 C1525 1.327 . S
C1525 H1519 0.950 . S
C1525 C1524 1.327 . S
C1525 C1529 1.429 . S
C1526 C1509 1.574 . S
C1526 H1520 0.949 . S
C1526 C1530 1.368 . S
C1527 C1508 1.429 . S
C1527 C1521 1.429 . S
C1527 C1528 1.523 . S
C1528 C1509 1.368 . S
C1528 C1522 1.368 . S
C1528 C1527 1.523 . S
C1529 C1513 1.429 . S
C1529 C1525 1.429 . S
C1529 C1530 1.523 . S
C1530 C1514 1.368 . S
C1530 C1526 1.368 . S
C1530 C1529 1.523 . S
H1531 C1506 0.950 . S
H1532 C1508 0.950 . S
H1533 C1509 0.949 . S
H1534 C1511 0.950 . S
H1535 C1513 0.950 . S
C1536 C1537 1.349 . S
C1536 C1538 1.327 . S
C1536 H1561 0.950 . S
C1537 C1536 1.349 . S
C1537 C1553 1.349 . S
C1538 C1536 1.327 . S
C1538 C1557 1.429 . S
C1538 H1562 0.950 . S
C1539 C1556 1.574 . S
C1539 C1558 1.368 . S
C1539 H1563 0.949 . S
H1540 C1544 0.949 . S
C1541 C1542 1.349 . S
C1541 C1543 1.327 . S
C1541 H1564 0.950 . S
C1542 C1541 1.349 . S
C1542 C1554 1.349 . S
C1543 C1541 1.327 . S
C1543 C1559 1.429 . S
C1543 H1565 0.950 . S
C1544 H1540 0.949 . S
C1544 C1552 1.574 . S
C1544 C1560 1.368 . S
H1545 C1553 0.950 . S
H1546 C1551 0.950 . S
H1547 C1552 0.949 . S
H1548 C1554 0.950 . S
H1549 C1555 0.950 . S
H1550 C1556 0.949 . S
C1551 H1546 0.950 . S
C1551 C1553 1.327 . S
C1551 C1557 1.429 . S
C1552 C1544 1.574 . S
C1552 H1547 0.949 . S
C1552 C1558 1.368 . S
C1553 C1537 1.349 . S
C1553 H1545 0.950 . S
C1553 C1551 1.327 . S
C1554 C1542 1.349 . S
C1554 H1548 0.950 . S
C1554 C1555 1.327 . S
C1555 H1549 0.950 . S
C1555 C1554 1.327 . S
C1555 C1559 1.429 . S
C1556 C1539 1.574 . S
C1556 H1550 0.949 . S
C1556 C1560 1.368 . S
C1557 C1538 1.429 . S
C1557 C1551 1.429 . S
C1557 C1558 1.523 . S
C1558 C1539 1.368 . S
C1558 C1552 1.368 . S
C1558 C1557 1.523 . S
C1559 C1543 1.429 . S
C1559 C1555 1.429 . S
C1559 C1560 1.523 . S
C1560 C1544 1.368 . S
C1560 C1556 1.368 . S
C1560 C1559 1.523 . S
H1561 C1536 0.950 . S
H1562 C1538 0.950 . S
H1563 C1539 0.949 . S
H1564 C1541 0.950 . S
H1565 C1543 0.950 . S
C1566 C1567 1.349 . S
C1566 C1568 1.327 . S
C1566 H1591 0.950 . S
C1567 C1566 1.349 . S
C1567 C1583 1.349 . S
C1568 C1566 1.327 . S
C1568 C1587 1.429 . S
C1568 H1592 0.950 . S
C1569 C1586 1.574 . S
C1569 C1588 1.368 . S
C1569 H1593 0.949 . S
H1570 C1574 0.949 . S
C1571 C1572 1.349 . S
C1571 C1573 1.327 . S
C1571 H1594 0.950 . S
C1572 C1571 1.349 . S
C1572 C1584 1.349 . S
C1573 C1571 1.327 . S
C1573 C1589 1.429 . S
C1573 H1595 0.950 . S
C1574 H1570 0.949 . S
C1574 C1582 1.574 . S
C1574 C1590 1.368 . S
H1575 C1583 0.950 . S
H1576 C1581 0.950 . S
H1577 C1582 0.949 . S
H1578 C1584 0.950 . S
H1579 C1585 0.950 . S
H1580 C1586 0.949 . S
C1581 H1576 0.950 . S
C1581 C1583 1.327 . S
C1581 C1587 1.429 . S
C1582 C1574 1.574 . S
C1582 H1577 0.949 . S
C1582 C1588 1.368 . S
C1583 C1567 1.349 . S
C1583 H1575 0.950 . S
C1583 C1581 1.327 . S
C1584 C1572 1.349 . S
C1584 H1578 0.950 . S
C1584 C1585 1.327 . S
C1585 H1579 0.950 . S
C1585 C1584 1.327 . S
C1585 C1589 1.429 . S
C1586 C1569 1.574 . S
C1586 H1580 0.949 . S
C1586 C1590 1.368 . S
C1587 C1568 1.429 . S
C1587 C1581 1.429 . S
C1587 C1588 1.523 . S
C1588 C1569 1.368 . S
C1588 C1582 1.368 . S
C1588 C1587 1.523 . S
C1589 C1573 1.429 . S
C1589 C1585 1.429 . S
C1589 C1590 1.523 . S
C1590 C1574 1.368 . S
C1590 C1586 1.368 . S
C1590 C1589 1.523 . S
H1591 C1566 0.950 . S
H1592 C1568 0.950 . S
H1593 C1569 0.949 . S
H1594 C1571 0.950 . S
H1595 C1573 0.950 . S
C1596 C1597 1.349 . S
C1596 C1598 1.327 . S
C1596 H1621 0.950 . S
C1597 C1596 1.349 . S
C1597 C1613 1.349 . S
C1598 C1596 1.327 . S
C1598 C1617 1.429 . S
C1598 H1622 0.950 . S
C1599 C1616 1.574 . S
C1599 C1618 1.368 . S
C1599 H1623 0.949 . S
H1600 C1604 0.949 . S
C1601 C1602 1.349 . S
C1601 C1603 1.327 . S
C1601 H1624 0.950 . S
C1602 C1601 1.349 . S
C1602 C1614 1.349 . S
C1603 C1601 1.327 . S
C1603 C1619 1.429 . S
C1603 H1625 0.950 . S
C1604 H1600 0.949 . S
C1604 C1612 1.574 . S
C1604 C1620 1.368 . S
H1605 C1613 0.950 . S
H1606 C1611 0.950 . S
H1607 C1612 0.949 . S
H1608 C1614 0.950 . S
H1609 C1615 0.950 . S
H1610 C1616 0.949 . S
C1611 H1606 0.950 . S
C1611 C1613 1.327 . S
C1611 C1617 1.429 . S
C1612 C1604 1.574 . S
C1612 H1607 0.949 . S
C1612 C1618 1.368 . S
C1613 C1597 1.349 . S
C1613 H1605 0.950 . S
C1613 C1611 1.327 . S
C1614 C1602 1.349 . S
C1614 H1608 0.950 . S
C1614 C1615 1.327 . S
C1615 H1609 0.950 . S
C1615 C1614 1.327 . S
C1615 C1619 1.429 . S
C1616 C1599 1.574 . S
C1616 H1610 0.949 . S
C1616 C1620 1.368 . S
C1617 C1598 1.429 . S
C1617 C1611 1.429 . S
C1617 C1618 1.523 . S
C1618 C1599 1.368 . S
C1618 C1612 1.368 . S
C1618 C1617 1.523 . S
C1619 C1603 1.429 . S
C1619 C1615 1.429 . S
C1619 C1620 1.523 . S
C1620 C1604 1.368 . S
C1620 C1616 1.368 . S
C1620 C1619 1.523 . S
H1621 C1596 0.950 . S
H1622 C1598 0.950 . S
H1623 C1599 0.949 . S
H1624 C1601 0.950 . S
H1625 C1603 0.950 . S
C1626 C1627 1.349 . S
C1626 C1628 1.327 . S
C1626 H1651 0.950 . S
C1627 C1626 1.349 . S
C1627 C1643 1.349 . S
C1628 C1626 1.327 . S
C1628 C1647 1.429 . S
C1628 H1652 0.950 . S
C1629 C1646 1.574 . S
C1629 C1648 1.368 . S
C1629 H1653 0.949 . S
H1630 C1634 0.949 . S
C1631 C1632 1.349 . S
C1631 C1633 1.327 . S
C1631 H1654 0.950 . S
C1632 C1631 1.349 . S
C1632 C1644 1.349 . S
C1633 C1631 1.327 . S
C1633 C1649 1.429 . S
C1633 H1655 0.950 . S
C1634 H1630 0.949 . S
C1634 C1642 1.574 . S
C1634 C1650 1.368 . S
H1635 C1643 0.950 . S
H1636 C1641 0.950 . S
H1637 C1642 0.949 . S
H1638 C1644 0.950 . S
H1639 C1645 0.950 . S
H1640 C1646 0.949 . S
C1641 H1636 0.950 . S
C1641 C1643 1.327 . S
C1641 C1647 1.429 . S
C1642 C1634 1.574 . S
C1642 H1637 0.949 . S
C1642 C1648 1.368 . S
C1643 C1627 1.349 . S
C1643 H1635 0.950 . S
C1643 C1641 1.327 . S
C1644 C1632 1.349 . S
C1644 H1638 0.950 . S
C1644 C1645 1.327 . S
C1645 H1639 0.950 . S
C1645 C1644 1.327 . S
C1645 C1649 1.429 . S
C1646 C1629 1.574 . S
C1646 H1640 0.949 . S
C1646 C1650 1.368 . S
C1647 C1628 1.429 . S
C1647 C1641 1.429 . S
C1647 C1648 1.523 . S
C1648 C1629 1.368 . S
C1648 C1642 1.368 . S
C1648 C1647 1.523 . S
C1649 C1633 1.429 . S
C1649 C1645 1.429 . S
C1649 C1650 1.523 . S
C1650 C1634 1.368 . S
C1650 C1646 1.368 . S
C1650 C1649 1.523 . S
H1651 C1626 0.950 . S
H1652 C1628 0.950 . S
H1653 C1629 0.949 . S
H1654 C1631 0.950 . S
H1655 C1633 0.950 . S
C1656 C1657 1.349 . S
C1656 C1658 1.327 . S
C1656 H1681 0.950 . S
C1657 C1656 1.349 . S
C1657 C1673 1.349 . S
C1658 C1656 1.327 . S
C1658 C1677 1.429 . S
C1658 H1682 0.950 . S
C1659 C1676 1.574 . S
C1659 C1678 1.368 . S
C1659 H1683 0.949 . S
H1660 C1664 0.949 . S
C1661 C1662 1.349 . S
C1661 C1663 1.327 . S
C1661 H1684 0.950 . S
C1662 C1661 1.349 . S
C1662 C1674 1.349 . S
C1663 C1661 1.327 . S
C1663 C1679 1.429 . S
C1663 H1685 0.950 . S
C1664 H1660 0.949 . S
C1664 C1672 1.574 . S
C1664 C1680 1.368 . S
H1665 C1673 0.950 . S
H1666 C1671 0.950 . S
H1667 C1672 0.949 . S
H1668 C1674 0.950 . S
H1669 C1675 0.950 . S
H1670 C1676 0.949 . S
C1671 H1666 0.950 . S
C1671 C1673 1.327 . S
C1671 C1677 1.429 . S
C1672 C1664 1.574 . S
C1672 H1667 0.949 . S
C1672 C1678 1.368 . S
C1673 C1657 1.349 . S
C1673 H1665 0.950 . S
C1673 C1671 1.327 . S
C1674 C1662 1.349 . S
C1674 H1668 0.950 . S
C1674 C1675 1.327 . S
C1675 H1669 0.950 . S
C1675 C1674 1.327 . S
C1675 C1679 1.429 . S
C1676 C1659 1.574 . S
C1676 H1670 0.949 . S
C1676 C1680 1.368 . S
C1677 C1658 1.429 . S
C1677 C1671 1.429 . S
C1677 C1678 1.523 . S
C1678 C1659 1.368 . S
C1678 C1672 1.368 . S
C1678 C1677 1.523 . S
C1679 C1663 1.429 . S
C1679 C1675 1.429 . S
C1679 C1680 1.523 . S
C1680 C1664 1.368 . S
C1680 C1676 1.368 . S
C1680 C1679 1.523 . S
H1681 C1656 0.950 . S
H1682 C1658 0.950 . S
H1683 C1659 0.949 . S
H1684 C1661 0.950 . S
H1685 C1663 0.950 . S
C1686 C1687 1.349 . S
C1686 C1688 1.327 . S
C1686 H1711 0.950 . S
C1687 C1686 1.349 . S
C1687 C1703 1.349 . S
C1688 C1686 1.327 . S
C1688 C1707 1.429 . S
C1688 H1712 0.950 . S
C1689 C1706 1.574 . S
C1689 C1708 1.368 . S
C1689 H1713 0.949 . S
H1690 C1694 0.949 . S
C1691 C1692 1.349 . S
C1691 C1693 1.327 . S
C1691 H1714 0.950 . S
C1692 C1691 1.349 . S
C1692 C1704 1.349 . S
C1693 C1691 1.327 . S
C1693 C1709 1.429 1_565 S
C1693 H1715 0.950 . S
C1694 H1690 0.949 . S
C1694 C1702 1.574 . S
C1694 C1710 1.368 . S
H1695 C1703 0.950 . S
H1696 C1701 0.950 . S
H1697 C1702 0.949 . S
H1698 C1704 0.950 . S
H1699 C1705 0.950 . S
H1700 C1706 0.949 . S
C1701 H1696 0.950 . S
C1701 C1703 1.327 . S
C1701 C1707 1.429 . S
C1702 C1694 1.574 . S
C1702 H1697 0.949 . S
C1702 C1708 1.368 . S
C1703 C1687 1.349 . S
C1703 H1695 0.950 . S
C1703 C1701 1.327 . S
C1704 C1692 1.349 . S
C1704 H1698 0.950 . S
C1704 C1705 1.327 1_565 S
C1705 H1699 0.950 . S
C1705 C1704 1.327 1_545 S
C1705 C1709 1.429 . S
C1706 C1689 1.574 . S
C1706 H1700 0.949 . S
C1706 C1710 1.368 . S
C1707 C1688 1.429 . S
C1707 C1701 1.429 . S
C1707 C1708 1.523 . S
C1708 C1689 1.368 . S
C1708 C1702 1.368 . S
C1708 C1707 1.523 . S
C1709 C1693 1.429 1_545 S
C1709 C1705 1.429 . S
C1709 C1710 1.523 . S
C1710 C1694 1.368 . S
C1710 C1706 1.368 . S
C1710 C1709 1.523 . S
H1711 C1686 0.950 . S
H1712 C1688 0.950 . S
H1713 C1689 0.949 . S
H1714 C1691 0.950 . S
H1715 C1693 0.950 . S
C1716 C1717 1.349 . S
C1716 C1718 1.327 . S
C1716 H1741 0.950 . S
C1717 C1716 1.349 . S
C1717 C1733 1.349 . S
C1718 C1716 1.327 . S
C1718 C1737 1.429 . S
C1718 H1742 0.950 . S
C1719 C1736 1.574 . S
C1719 C1738 1.368 . S
C1719 H1743 0.949 . S
H1720 C1724 0.949 . S
C1721 C1722 1.349 . S
C1721 C1723 1.327 . S
C1721 H1744 0.950 . S
C1722 C1721 1.349 . S
C1722 C1734 1.349 . S
C1723 C1721 1.327 . S
C1723 C1739 1.429 . S
C1723 H1745 0.950 . S
C1724 H1720 0.949 . S
C1724 C1732 1.574 . S
C1724 C1740 1.368 . S
H1725 C1733 0.950 . S
H1726 C1731 0.950 . S
H1727 C1732 0.949 . S
H1728 C1734 0.950 . S
H1729 C1735 0.950 . S
H1730 C1736 0.949 . S
C1731 H1726 0.950 . S
C1731 C1733 1.327 . S
C1731 C1737 1.429 . S
C1732 C1724 1.574 . S
C1732 H1727 0.949 . S
C1732 C1738 1.368 . S
C1733 C1717 1.349 . S
C1733 H1725 0.950 . S
C1733 C1731 1.327 . S
C1734 C1722 1.349 . S
C1734 H1728 0.950 . S
C1734 C1735 1.327 . S
C1735 H1729 0.950 . S
C1735 C1734 1.327 . S
C1735 C1739 1.429 . S
C1736 C1719 1.574 . S
C1736 H1730 0.949 . S
C1736 C1740 1.368 . S
C1737 C1718 1.429 . S
C1737 C1731 1.429 . S
C1737 C1738 1.523 . S
C1738 C1719 1.368 . S
C1738 C1732 1.368 . S
C1738 C1737 1.523 . S
C1739 C1723 1.429 . S
C1739 C1735 1.429 . S
C1739 C1740 1.523 . S
C1740 C1724 1.368 . S
C1740 C1736 1.368 . S
C1740 C1739 1.523 . S
H1741 C1716 0.950 . S
H1742 C1718 0.950 . S
H1743 C1719 0.949 . S
H1744 C1721 0.950 . S
H1745 C1723 0.950 . S
C1746 C1747 1.349 . S
C1746 C1748 1.327 . S
C1746 H1771 0.950 . S
C1747 C1746 1.349 . S
C1747 C1763 1.349 . S
C1748 C1746 1.327 . S
C1748 C1767 1.429 . S
C1748 H1772 0.950 . S
C1749 C1766 1.574 . S
C1749 C1768 1.368 . S
C1749 H1773 0.949 . S
H1750 C1754 0.949 . S
C1751 C1752 1.349 . S
C1751 C1753 1.327 . S
C1751 H1774 0.950 . S
C1752 C1751 1.349 . S
C1752 C1764 1.349 . S
C1753 C1751 1.327 . S
C1753 C1769 1.429 . S
C1753 H1775 0.950 . S
C1754 H1750 0.949 . S
C1754 C1762 1.574 . S
C1754 C1770 1.368 . S
H1755 C1763 0.950 . S
H1756 C1761 0.950 . S
H1757 C1762 0.949 . S
H1758 C1764 0.950 . S
H1759 C1765 0.950 . S
H1760 C1766 0.949 . S
C1761 H1756 0.950 . S
C1761 C1763 1.327 . S
C1761 C1767 1.429 . S
C1762 C1754 1.574 . S
C1762 H1757 0.949 . S
C1762 C1768 1.368 . S
C1763 C1747 1.349 . S
C1763 H1755 0.950 . S
C1763 C1761 1.327 . S
C1764 C1752 1.349 . S
C1764 H1758 0.950 . S
C1764 C1765 1.327 . S
C1765 H1759 0.950 . S
C1765 C1764 1.327 . S
C1765 C1769 1.429 . S
C1766 C1749 1.574 . S
C1766 H1760 0.949 . S
C1766 C1770 1.368 . S
C1767 C1748 1.429 . S
C1767 C1761 1.429 . S
C1767 C1768 1.523 . S
C1768 C1749 1.368 . S
C1768 C1762 1.368 . S
C1768 C1767 1.523 . S
C1769 C1753 1.429 . S
C1769 C1765 1.429 . S
C1769 C1770 1.523 . S
C1770 C1754 1.368 . S
C1770 C1766 1.368 . S
C1770 C1769 1.523 . S
H1771 C1746 0.950 . S
H1772 C1748 0.950 . S
H1773 C1749 0.949 . S
H1774 C1751 0.950 . S
H1775 C1753 0.950 . S
C1776 C1777 1.349 . S
C1776 C1778 1.327 . S
C1776 H1801 0.950 . S
C1777 C1776 1.349 . S
C1777 C1793 1.349 . S
C1778 C1776 1.327 . S
C1778 C1797 1.429 . S
C1778 H1802 0.950 . S
C1779 C1796 1.574 . S
C1779 C1798 1.368 . S
C1779 H1803 0.949 . S
H1780 C1784 0.949 . S
C1781 C1782 1.349 . S
C1781 C1783 1.327 . S
C1781 H1804 0.950 . S
C1782 C1781 1.349 . S
C1782 C1794 1.349 . S
C1783 C1781 1.327 . S
C1783 C1799 1.429 . S
C1783 H1805 0.950 . S
C1784 H1780 0.949 . S
C1784 C1792 1.574 . S
C1784 C1800 1.368 . S
H1785 C1793 0.950 . S
H1786 C1791 0.950 . S
H1787 C1792 0.949 . S
H1788 C1794 0.950 . S
H1789 C1795 0.950 . S
H1790 C1796 0.949 . S
C1791 H1786 0.950 . S
C1791 C1793 1.327 . S
C1791 C1797 1.429 . S
C1792 C1784 1.574 . S
C1792 H1787 0.949 . S
C1792 C1798 1.368 . S
C1793 C1777 1.349 . S
C1793 H1785 0.950 . S
C1793 C1791 1.327 . S
C1794 C1782 1.349 . S
C1794 H1788 0.950 . S
C1794 C1795 1.327 . S
C1795 H1789 0.950 . S
C1795 C1794 1.327 . S
C1795 C1799 1.429 . S
C1796 C1779 1.574 . S
C1796 H1790 0.949 . S
C1796 C1800 1.368 . S
C1797 C1778 1.429 . S
C1797 C1791 1.429 . S
C1797 C1798 1.523 . S
C1798 C1779 1.368 . S
C1798 C1792 1.368 . S
C1798 C1797 1.523 . S
C1799 C1783 1.429 . S
C1799 C1795 1.429 . S
C1799 C1800 1.523 . S
C1800 C1784 1.368 . S
C1800 C1796 1.368 . S
C1800 C1799 1.523 . S
H1801 C1776 0.950 . S
H1802 C1778 0.950 . S
H1803 C1779 0.949 . S
H1804 C1781 0.950 . S
H1805 C1783 0.950 . S
C1806 C1807 1.349 . S
C1806 C1808 1.327 . S
C1806 H1831 0.950 . S
C1807 C1806 1.349 . S
C1807 C1823 1.349 . S
C1808 C1806 1.327 . S
C1808 C1827 1.429 . S
C1808 H1832 0.950 . S
C1809 C1826 1.574 . S
C1809 C1828 1.368 . S
C1809 H1833 0.949 . S
H1810 C1814 0.949 . S
C1811 C1812 1.349 . S
C1811 C1813 1.327 1_565 S
C1811 H1834 0.950 . S
C1812 C1811 1.349 . S
C1812 C1824 1.349 . S
C1813 C1811 1.327 1_545 S
C1813 C1829 1.429 . S
C1813 H1835 0.950 . S
C1814 H1810 0.949 . S
C1814 C1822 1.574 . S
C1814 C1830 1.368 . S
H1815 C1823 0.950 . S
H1816 C1821 0.950 . S
H1817 C1822 0.949 . S
H1818 C1824 0.950 . S
H1819 C1825 0.950 . S
H1820 C1826 0.949 . S
C1821 H1816 0.950 . S
C1821 C1823 1.327 . S
C1821 C1827 1.429 . S
C1822 C1814 1.574 . S
C1822 H1817 0.949 . S
C1822 C1828 1.368 . S
C1823 C1807 1.349 . S
C1823 H1815 0.950 . S
C1823 C1821 1.327 . S
C1824 C1812 1.349 . S
C1824 H1818 0.950 . S
C1824 C1825 1.327 . S
C1825 H1819 0.950 . S
C1825 C1824 1.327 . S
C1825 C1829 1.429 1_565 S
C1826 C1809 1.574 . S
C1826 H1820 0.949 . S
C1826 C1830 1.368 . S
C1827 C1808 1.429 . S
C1827 C1821 1.429 . S
C1827 C1828 1.523 . S
C1828 C1809 1.368 . S
C1828 C1822 1.368 . S
C1828 C1827 1.523 . S
C1829 C1813 1.429 . S
C1829 C1825 1.429 1_545 S
C1829 C1830 1.523 . S
C1830 C1814 1.368 . S
C1830 C1826 1.368 . S
C1830 C1829 1.523 . S
H1831 C1806 0.950 . S
H1832 C1808 0.950 . S
H1833 C1809 0.949 . S
H1834 C1811 0.950 . S
H1835 C1813 0.950 . S
C1836 C1837 1.349 . S
C1836 C1838 1.327 . S
C1836 H1861 0.950 . S
C1837 C1836 1.349 . S
C1837 C1853 1.349 . S
C1838 C1836 1.327 . S
C1838 C1857 1.429 . S
C1838 H1862 0.950 . S
C1839 C1856 1.574 . S
C1839 C1858 1.368 . S
C1839 H1863 0.949 . S
H1840 C1844 0.949 . S
C1841 C1842 1.349 . S
C1841 C1843 1.327 . S
C1841 H1864 0.950 . S
C1842 C1841 1.349 . S
C1842 C1854 1.349 . S
C1843 C1841 1.327 . S
C1843 C1859 1.429 . S
C1843 H1865 0.950 . S
C1844 H1840 0.949 . S
C1844 C1852 1.574 . S
C1844 C1860 1.368 . S
H1845 C1853 0.950 . S
H1846 C1851 0.950 . S
H1847 C1852 0.949 . S
H1848 C1854 0.950 . S
H1849 C1855 0.950 . S
H1850 C1856 0.949 . S
C1851 H1846 0.950 . S
C1851 C1853 1.327 . S
C1851 C1857 1.429 . S
C1852 C1844 1.574 . S
C1852 H1847 0.949 . S
C1852 C1858 1.368 . S
C1853 C1837 1.349 . S
C1853 H1845 0.950 . S
C1853 C1851 1.327 . S
C1854 C1842 1.349 . S
C1854 H1848 0.950 . S
C1854 C1855 1.327 . S
C1855 H1849 0.950 . S
C1855 C1854 1.327 . S
C1855 C1859 1.429 . S
C1856 C1839 1.574 . S
C1856 H1850 0.949 . S
C1856 C1860 1.368 . S
C1857 C1838 1.429 . S
C1857 C1851 1.429 . S
C1857 C1858 1.523 . S
C1858 C1839 1.368 . S
C1858 C1852 1.368 . S
C1858 C1857 1.523 . S
C1859 C1843 1.429 . S
C1859 C1855 1.429 . S
C1859 C1860 1.523 . S
C1860 C1844 1.368 . S
C1860 C1856 1.368 . S
C1860 C1859 1.523 . S
H1861 C1836 0.950 . S
H1862 C1838 0.950 . S
H1863 C1839 0.949 . S
H1864 C1841 0.950 . S
H1865 C1843 0.950 . S
C1866 C1867 1.349 . S
C1866 C1868 1.327 . S
C1866 H1891 0.950 . S
C1867 C1866 1.349 . S
C1867 C1883 1.349 . S
C1868 C1866 1.327 . S
C1868 C1887 1.429 . S
C1868 H1892 0.950 . S
C1869 C1886 1.574 . S
C1869 C1888 1.368 . S
C1869 H1893 0.949 . S
H1870 C1874 0.949 . S
C1871 C1872 1.349 . S
C1871 C1873 1.327 . S
C1871 H1894 0.950 . S
C1872 C1871 1.349 . S
C1872 C1884 1.349 . S
C1873 C1871 1.327 . S
C1873 C1889 1.429 . S
C1873 H1895 0.950 . S
C1874 H1870 0.949 . S
C1874 C1882 1.574 . S
C1874 C1890 1.368 . S
H1875 C1883 0.950 . S
H1876 C1881 0.950 . S
H1877 C1882 0.949 . S
H1878 C1884 0.950 . S
H1879 C1885 0.950 . S
H1880 C1886 0.949 . S
C1881 H1876 0.950 . S
C1881 C1883 1.327 . S
C1881 C1887 1.429 . S
C1882 C1874 1.574 . S
C1882 H1877 0.949 . S
C1882 C1888 1.368 . S
C1883 C1867 1.349 . S
C1883 H1875 0.950 . S
C1883 C1881 1.327 . S
C1884 C1872 1.349 . S
C1884 H1878 0.950 . S
C1884 C1885 1.327 . S
C1885 H1879 0.950 . S
C1885 C1884 1.327 . S
C1885 C1889 1.429 . S
C1886 C1869 1.574 . S
C1886 H1880 0.949 . S
C1886 C1890 1.368 . S
C1887 C1868 1.429 . S
C1887 C1881 1.429 . S
C1887 C1888 1.523 . S
C1888 C1869 1.368 . S
C1888 C1882 1.368 . S
C1888 C1887 1.523 . S
C1889 C1873 1.429 . S
C1889 C1885 1.429 . S
C1889 C1890 1.523 . S
C1890 C1874 1.368 . S
C1890 C1886 1.368 . S
C1890 C1889 1.523 . S
H1891 C1866 0.950 . S
H1892 C1868 0.950 . S
H1893 C1869 0.949 . S
H1894 C1871 0.950 . S
H1895 C1873 0.950 . S
C1896 C1897 1.349 . S
C1896 C1898 1.327 . S
C1896 H1921 0.950 . S
C1897 C1896 1.349 . S
C1897 C1913 1.349 . S
C1898 C1896 1.327 . S
C1898 C1917 1.429 . S
C1898 H1922 0.950 . S
C1899 C1916 1.574 . S
C1899 C1918 1.368 . S
C1899 H1923 0.949 . S
H1900 C1904 0.949 . S
C1901 C1902 1.349 . S
C1901 C1903 1.327 . S
C1901 H1924 0.950 . S
C1902 C1901 1.349 . S
C1902 C1914 1.349 . S
C1903 C1901 1.327 . S
C1903 C1919 1.429 . S
C1903 H1925 0.950 . S
C1904 H1900 0.949 . S
C1904 C1912 1.574 . S
C1904 C1920 1.368 . S
H1905 C1913 0.950 . S
H1906 C1911 0.950 . S
H1907 C1912 0.949 . S
H1908 C1914 0.950 . S
H1909 C1915 0.950 . S
H1910 C1916 0.949 . S
C1911 H1906 0.950 . S
C1911 C1913 1.327 . S
C1911 C1917 1.429 . S
C1912 C1904 1.574 . S
C1912 H1907 0.949 . S
C1912 C1918 1.368 . S
C1913 C1897 1.349 . S
C1913 H1905 0.950 . S
C1913 C1911 1.327 . S
C1914 C1902 1.349 . S
C1914 H1908 0.950 . S
C1914 C1915 1.327 . S
C1915 H1909 0.950 . S
C1915 C1914 1.327 . S
C1915 C1919 1.429 . S
C1916 C1899 1.574 . S
C1916 H1910 0.949 . S
C1916 C1920 1.368 . S
C1917 C1898 1.429 . S
C1917 C1911 1.429 . S
C1917 C1918 1.523 . S
C1918 C1899 1.368 . S
C1918 C1912 1.368 . S
C1918 C1917 1.523 . S
C1919 C1903 1.429 . S
C1919 C1915 1.429 . S
C1919 C1920 1.523 . S
C1920 C1904 1.368 . S
C1920 C1916 1.368 . S
C1920 C1919 1.523 . S
H1921 C1896 0.950 . S
H1922 C1898 0.950 . S
H1923 C1899 0.949 . S
H1924 C1901 0.950 . S
H1925 C1903 0.950 . S
C1926 C1927 1.349 . S
C1926 C1928 1.327 . S
C1926 H1951 0.950 . S
C1927 C1926 1.349 . S
C1927 C1943 1.349 . S
C1928 C1926 1.327 . S
C1928 C1947 1.429 . S
C1928 H1952 0.950 . S
C1929 C1946 1.574 . S
C1929 C1948 1.368 . S
C1929 H1953 0.949 . S
H1930 C1934 0.949 . S
C1931 C1932 1.349 . S
C1931 C1933 1.327 . S
C1931 H1954 0.950 . S
C1932 C1931 1.349 . S
C1932 C1944 1.349 . S
C1933 C1931 1.327 . S
C1933 C1949 1.429 . S
C1933 H1955 0.950 . S
C1934 H1930 0.949 . S
C1934 C1942 1.574 . S
C1934 C1950 1.368 . S
H1935 C1943 0.950 . S
H1936 C1941 0.950 . S
H1937 C1942 0.949 . S
H1938 C1944 0.950 . S
H1939 C1945 0.950 . S
H1940 C1946 0.949 . S
C1941 H1936 0.950 . S
C1941 C1943 1.327 . S
C1941 C1947 1.429 . S
C1942 C1934 1.574 . S
C1942 H1937 0.949 . S
C1942 C1948 1.368 . S
C1943 C1927 1.349 . S
C1943 H1935 0.950 . S
C1943 C1941 1.327 . S
C1944 C1932 1.349 . S
C1944 H1938 0.950 . S
C1944 C1945 1.327 . S
C1945 H1939 0.950 . S
C1945 C1944 1.327 . S
C1945 C1949 1.429 . S
C1946 C1929 1.574 . S
C1946 H1940 0.949 . S
C1946 C1950 1.368 . S
C1947 C1928 1.429 . S
C1947 C1941 1.429 . S
C1947 C1948 1.523 . S
C1948 C1929 1.368 . S
C1948 C1942 1.368 . S
C1948 C1947 1.523 . S
C1949 C1933 1.429 . S
C1949 C1945 1.429 . S
C1949 C1950 1.523 . S
C1950 C1934 1.368 . S
C1950 C1946 1.368 . S
C1950 C1949 1.523 . S
H1951 C1926 0.950 . S
H1952 C1928 0.950 . S
H1953 C1929 0.949 . S
H1954 C1931 0.950 . S
H1955 C1933 0.950 . S
C1956 C1957 1.349 . S
C1956 C1958 1.327 . S
C1956 H1981 0.950 . S
C1957 C1956 1.349 . S
C1957 C1973 1.335 1_565 S
C1958 C1956 1.327 . S
C1958 C1977 1.429 . S
C1958 H1982 0.950 . S
C1959 C1976 1.574 . S
C1959 C1978 1.368 . S
C1959 H1983 0.949 . S
H1960 C1964 0.949 . S
C1961 C1962 1.349 . S
C1961 C1963 1.327 . S
C1961 H1984 0.950 . S
C1962 C1961 1.349 . S
C1962 C1974 1.349 . S
C1963 C1961 1.327 . S
C1963 C1979 1.429 . S
C1963 H1985 0.950 . S
C1964 H1960 0.949 . S
C1964 C1972 1.574 . S
C1964 C1980 1.368 . S
H1965 C1973 0.977 . S
H1966 C1971 0.967 . S
H1967 C1972 0.949 . S
H1968 C1974 0.950 . S
H1969 C1975 0.950 . S
H1970 C1976 0.949 . S
C1971 H1966 0.967 . S
C1971 C1973 1.315 1_565 S
C1971 C1977 1.429 . S
C1972 C1964 1.574 . S
C1972 H1967 0.949 . S
C1972 C1978 1.368 . S
C1973 C1957 1.335 1_545 S
C1973 H1965 0.977 . S
C1973 C1971 1.315 1_545 S
C1974 C1962 1.349 . S
C1974 H1968 0.950 . S
C1974 C1975 1.327 . S
C1975 H1969 0.950 . S
C1975 C1974 1.327 . S
C1975 C1979 1.429 . S
C1976 C1959 1.574 . S
C1976 H1970 0.949 . S
C1976 C1980 1.368 . S
C1977 C1958 1.429 . S
C1977 C1971 1.429 . S
C1977 C1978 1.523 . S
C1978 C1959 1.368 . S
C1978 C1972 1.368 . S
C1978 C1977 1.523 . S
C1979 C1963 1.429 . S
C1979 C1975 1.429 . S
C1979 C1980 1.523 . S
C1980 C1964 1.368 . S
C1980 C1976 1.368 . S
C1980 C1979 1.523 . S
H1981 C1956 0.950 . S
H1982 C1958 0.950 . S
H1983 C1959 0.949 . S
H1984 C1961 0.950 . S
H1985 C1963 0.950 . S
C1986 C1987 1.349 . S
C1986 C1988 1.327 . S
C1986 H2011 0.950 . S
C1987 C1986 1.349 . S
C1987 C2003 1.349 . S
C1988 C1986 1.327 . S
C1988 C2007 1.429 . S
C1988 H2012 0.950 . S
C1989 C2006 1.574 . S
C1989 C2008 1.368 . S
C1989 H2013 0.949 . S
H1990 C1994 0.949 . S
C1991 C1992 1.349 . S
C1991 C1993 1.327 . S
C1991 H2014 0.950 . S
C1992 C1991 1.349 . S
C1992 C2004 1.349 . S
C1993 C1991 1.327 . S
C1993 C2009 1.429 . S
C1993 H2015 0.950 . S
C1994 H1990 0.949 . S
C1994 C2002 1.574 . S
C1994 C2010 1.368 . S
H1995 C2003 0.950 . S
H1996 C2001 0.950 . S
H1997 C2002 0.949 . S
H1998 C2004 0.950 . S
H1999 C2005 0.950 . S
H2000 C2006 0.949 . S
C2001 H1996 0.950 . S
C2001 C2003 1.327 . S
C2001 C2007 1.429 . S
C2002 C1994 1.574 . S
C2002 H1997 0.949 . S
C2002 C2008 1.368 . S
C2003 C1987 1.349 . S
C2003 H1995 0.950 . S
C2003 C2001 1.327 . S
C2004 C1992 1.349 . S
C2004 H1998 0.950 . S
C2004 C2005 1.327 . S
C2005 H1999 0.950 . S
C2005 C2004 1.327 . S
C2005 C2009 1.429 . S
C2006 C1989 1.574 . S
C2006 H2000 0.949 . S
C2006 C2010 1.368 . S
C2007 C1988 1.429 . S
C2007 C2001 1.429 . S
C2007 C2008 1.523 . S
C2008 C1989 1.368 . S
C2008 C2002 1.368 . S
C2008 C2007 1.523 . S
C2009 C1993 1.429 . S
C2009 C2005 1.429 . S
C2009 C2010 1.523 . S
C2010 C1994 1.368 . S
C2010 C2006 1.368 . S
C2010 C2009 1.523 . S
H2011 C1986 0.950 . S
H2012 C1988 0.950 . S
H2013 C1989 0.949 . S
H2014 C1991 0.950 . S
H2015 C1993 0.950 . S
C2016 C2017 1.349 . S
C2016 C2018 1.327 . S
C2016 H2041 0.950 . S
C2017 C2016 1.349 . S
C2017 C2033 1.349 . S
C2018 C2016 1.327 . S
C2018 C2037 1.429 . S
C2018 H2042 0.950 . S
C2019 C2036 1.574 . S
C2019 C2038 1.368 . S
C2019 H2043 0.949 . S
H2020 C2024 0.949 . S
C2021 C2022 1.349 . S
C2021 C2023 1.327 1_455 S
C2021 H2044 0.950 1_545 S
C2022 C2021 1.349 . S
C2022 C2034 1.349 . S
C2023 C2021 1.327 1_655 S
C2023 C2039 1.429 . S
C2023 H2045 0.950 . S
C2024 H2020 0.949 . S
C2024 C2032 1.574 . S
C2024 C2040 1.368 . S
H2025 C2033 0.950 . S
H2026 C2031 0.950 . S
H2027 C2032 0.949 . S
H2028 C2034 0.950 . S
H2029 C2035 0.950 . S
H2030 C2036 0.949 . S
C2031 H2026 0.950 . S
C2031 C2033 1.327 . S
C2031 C2037 1.429 . S
C2032 C2024 1.574 . S
C2032 H2027 0.949 . S
C2032 C2038 1.368 . S
C2033 C2017 1.349 . S
C2033 H2025 0.950 . S
C2033 C2031 1.327 . S
C2034 C2022 1.349 . S
C2034 H2028 0.950 . S
C2034 C2035 1.327 . S
C2035 H2029 0.950 . S
C2035 C2034 1.327 . S
C2035 C2039 1.429 1_455 S
C2036 C2019 1.574 . S
C2036 H2030 0.949 . S
C2036 C2040 1.368 . S
C2037 C2018 1.429 . S
C2037 C2031 1.429 . S
C2037 C2038 1.523 . S
C2038 C2019 1.368 . S
C2038 C2032 1.368 . S
C2038 C2037 1.523 . S
C2039 C2023 1.429 . S
C2039 C2035 1.429 1_655 S
C2039 C2040 1.523 . S
C2040 C2024 1.368 . S
C2040 C2036 1.368 . S
C2040 C2039 1.523 . S
H2041 C2016 0.950 . S
H2042 C2018 0.950 . S
H2043 C2019 0.949 . S
H2044 C2021 0.950 1_565 S
H2045 C2023 0.950 . S
C2046 C2047 1.349 . S
C2046 C2048 1.327 . S
C2046 H2071 0.950 . S
C2047 C2046 1.349 . S
C2047 C2063 1.349 . S
C2048 C2046 1.327 . S
C2048 C2067 1.429 . S
C2048 H2072 0.950 . S
C2049 C2066 1.574 . S
C2049 C2068 1.368 . S
C2049 H2073 0.949 . S
H2050 C2054 0.949 . S
C2051 C2052 1.349 . S
C2051 C2053 1.327 . S
C2051 H2074 0.950 . S
C2052 C2051 1.349 . S
C2052 C2064 1.349 . S
C2053 C2051 1.327 . S
C2053 C2069 1.429 . S
C2053 H2075 0.950 . S
C2054 H2050 0.949 . S
C2054 C2062 1.574 . S
C2054 C2070 1.368 . S
H2055 C2063 0.950 . S
H2056 C2061 0.950 . S
H2057 C2062 0.949 . S
H2058 C2064 0.950 . S
H2059 C2065 0.950 . S
H2060 C2066 0.949 . S
C2061 H2056 0.950 . S
C2061 C2063 1.327 . S
C2061 C2067 1.429 . S
C2062 C2054 1.574 . S
C2062 H2057 0.949 . S
C2062 C2068 1.368 . S
C2063 C2047 1.349 . S
C2063 H2055 0.950 . S
C2063 C2061 1.327 . S
C2064 C2052 1.349 . S
C2064 H2058 0.950 . S
C2064 C2065 1.327 . S
C2065 H2059 0.950 . S
C2065 C2064 1.327 . S
C2065 C2069 1.429 . S
C2066 C2049 1.574 . S
C2066 H2060 0.949 . S
C2066 C2070 1.368 . S
C2067 C2048 1.429 . S
C2067 C2061 1.429 . S
C2067 C2068 1.523 . S
C2068 C2049 1.368 . S
C2068 C2062 1.368 . S
C2068 C2067 1.523 . S
C2069 C2053 1.429 . S
C2069 C2065 1.429 . S
C2069 C2070 1.523 . S
C2070 C2054 1.368 . S
C2070 C2066 1.368 . S
C2070 C2069 1.523 . S
H2071 C2046 0.950 . S
H2072 C2048 0.950 . S
H2073 C2049 0.949 . S
H2074 C2051 0.950 . S
H2075 C2053 0.950 . S
C2076 C2077 1.349 . S
C2076 C2078 1.327 . S
C2076 H2101 0.950 . S
C2077 C2076 1.349 . S
C2077 C2093 1.349 . S
C2078 C2076 1.327 . S
C2078 C2097 1.429 . S
C2078 H2102 0.950 . S
C2079 C2096 1.574 . S
C2079 C2098 1.368 . S
C2079 H2103 0.949 . S
H2080 C2084 0.949 . S
C2081 C2082 1.349 . S
C2081 C2083 1.327 . S
C2081 H2104 0.950 . S
C2082 C2081 1.349 . S
C2082 C2094 1.349 1_545 S
C2083 C2081 1.327 . S
C2083 C2099 1.429 . S
C2083 H2105 0.950 . S
C2084 H2080 0.949 . S
C2084 C2092 1.574 . S
C2084 C2100 1.368 . S
H2085 C2093 0.950 . S
H2086 C2091 0.950 . S
H2087 C2092 0.949 . S
H2088 C2094 0.950 . S
H2089 C2095 0.950 1_565 S
H2090 C2096 0.949 . S
C2091 H2086 0.950 . S
C2091 C2093 1.327 . S
C2091 C2097 1.429 . S
C2092 C2084 1.574 . S
C2092 H2087 0.949 . S
C2092 C2098 1.368 . S
C2093 C2077 1.349 . S
C2093 H2085 0.950 . S
C2093 C2091 1.327 . S
C2094 C2082 1.349 1_565 S
C2094 H2088 0.950 . S
C2094 C2095 1.327 1_565 S
C2095 H2089 0.950 1_545 S
C2095 C2094 1.327 1_545 S
C2095 C2099 1.429 . S
C2096 C2079 1.574 . S
C2096 H2090 0.949 . S
C2096 C2100 1.368 . S
C2097 C2078 1.429 . S
C2097 C2091 1.429 . S
C2097 C2098 1.523 . S
C2098 C2079 1.368 . S
C2098 C2092 1.368 . S
C2098 C2097 1.523 . S
C2099 C2083 1.429 . S
C2099 C2095 1.429 . S
C2099 C2100 1.523 . S
C2100 C2084 1.368 . S
C2100 C2096 1.368 . S
C2100 C2099 1.523 . S
H2101 C2076 0.950 . S
H2102 C2078 0.950 . S
H2103 C2079 0.949 . S
H2104 C2081 0.950 . S
H2105 C2083 0.950 . S
C2106 C2107 1.349 . S
C2106 C2108 1.327 . S
C2106 H2131 0.950 . S
C2107 C2106 1.349 . S
C2107 C2123 1.349 . S
C2108 C2106 1.327 . S
C2108 C2127 1.429 . S
C2108 H2132 0.950 . S
C2109 C2126 1.574 . S
C2109 C2128 1.368 . S
C2109 H2133 0.949 . S
H2110 C2114 0.949 . S
C2111 C2112 1.349 . S
C2111 C2113 1.327 . S
C2111 H2134 0.950 . S
C2112 C2111 1.349 . S
C2112 C2124 1.349 . S
C2113 C2111 1.327 . S
C2113 C2129 1.429 . S
C2113 H2135 0.950 . S
C2114 H2110 0.949 . S
C2114 C2122 1.574 . S
C2114 C2130 1.368 . S
H2115 C2123 0.950 . S
H2116 C2121 0.950 . S
H2117 C2122 0.949 . S
H2118 C2124 0.950 . S
H2119 C2125 0.950 . S
H2120 C2126 0.949 . S
C2121 H2116 0.950 . S
C2121 C2123 1.327 . S
C2121 C2127 1.429 . S
C2122 C2114 1.574 . S
C2122 H2117 0.949 . S
C2122 C2128 1.368 . S
C2123 C2107 1.349 . S
C2123 H2115 0.950 . S
C2123 C2121 1.327 . S
C2124 C2112 1.349 . S
C2124 H2118 0.950 . S
C2124 C2125 1.327 . S
C2125 H2119 0.950 . S
C2125 C2124 1.327 . S
C2125 C2129 1.429 . S
C2126 C2109 1.574 . S
C2126 H2120 0.949 . S
C2126 C2130 1.368 . S
C2127 C2108 1.429 . S
C2127 C2121 1.429 . S
C2127 C2128 1.523 . S
C2128 C2109 1.368 . S
C2128 C2122 1.368 . S
C2128 C2127 1.523 . S
C2129 C2113 1.429 . S
C2129 C2125 1.429 . S
C2129 C2130 1.523 . S
C2130 C2114 1.368 . S
C2130 C2126 1.368 . S
C2130 C2129 1.523 . S
H2131 C2106 0.950 . S
H2132 C2108 0.950 . S
H2133 C2109 0.949 . S
H2134 C2111 0.950 . S
H2135 C2113 0.950 . S
C2136 C2137 1.349 . S
C2136 C2138 1.327 . S
C2136 H2161 0.950 . S
C2137 C2136 1.349 . S
C2137 C2153 1.349 . S
C2138 C2136 1.327 . S
C2138 C2157 1.429 . S
C2138 H2162 0.950 . S
C2139 C2156 1.574 . S
C2139 C2158 1.368 . S
C2139 H2163 0.949 . S
H2140 C2144 0.949 . S
C2141 C2142 1.349 . S
C2141 C2143 1.327 . S
C2141 H2164 0.950 . S
C2142 C2141 1.349 . S
C2142 C2154 1.349 . S
C2143 C2141 1.327 . S
C2143 C2159 1.429 . S
C2143 H2165 0.950 . S
C2144 H2140 0.949 . S
C2144 C2152 1.574 . S
C2144 C2160 1.368 . S
H2145 C2153 0.950 . S
H2146 C2151 0.950 . S
H2147 C2152 0.949 . S
H2148 C2154 0.950 . S
H2149 C2155 0.950 . S
H2150 C2156 0.949 . S
C2151 H2146 0.950 . S
C2151 C2153 1.327 . S
C2151 C2157 1.429 . S
C2152 C2144 1.574 . S
C2152 H2147 0.949 . S
C2152 C2158 1.368 . S
C2153 C2137 1.349 . S
C2153 H2145 0.950 . S
C2153 C2151 1.327 . S
C2154 C2142 1.349 . S
C2154 H2148 0.950 . S
C2154 C2155 1.327 . S
C2155 H2149 0.950 . S
C2155 C2154 1.327 . S
C2155 C2159 1.429 . S
C2156 C2139 1.574 . S
C2156 H2150 0.949 . S
C2156 C2160 1.368 . S
C2157 C2138 1.429 . S
C2157 C2151 1.429 . S
C2157 C2158 1.523 . S
C2158 C2139 1.368 . S
C2158 C2152 1.368 . S
C2158 C2157 1.523 . S
C2159 C2143 1.429 . S
C2159 C2155 1.429 . S
C2159 C2160 1.523 . S
C2160 C2144 1.368 . S
C2160 C2156 1.368 . S
C2160 C2159 1.523 . S
H2161 C2136 0.950 . S
H2162 C2138 0.950 . S
H2163 C2139 0.949 . S
H2164 C2141 0.950 . S
H2165 C2143 0.950 . S
C2166 C2167 1.349 . S
C2166 C2168 1.327 . S
C2166 H2191 0.950 . S
C2167 C2166 1.349 . S
C2167 C2183 1.349 . S
C2168 C2166 1.327 . S
C2168 C2187 1.429 . S
C2168 H2192 0.950 1_556 S
C2169 C2186 1.574 . S
C2169 C2188 1.368 . S
C2169 H2193 0.949 . S
H2170 C2174 0.949 . S
C2171 C2172 1.349 . S
C2171 C2173 1.327 . S
C2171 H2194 0.950 . S
C2172 C2171 1.349 . S
C2172 C2184 1.349 . S
C2173 C2171 1.327 . S
C2173 C2189 1.429 . S
C2173 H2195 0.950 1_554 S
C2174 H2170 0.949 . S
C2174 C2182 1.574 . S
C2174 C2190 1.368 . S
H2175 C2183 0.950 . S
H2176 C2181 0.950 . S
H2177 C2182 0.949 . S
H2178 C2184 0.950 . S
H2179 C2185 0.950 . S
H2180 C2186 0.949 . S
C2181 H2176 0.950 . S
C2181 C2183 1.327 . S
C2181 C2187 1.429 . S
C2182 C2174 1.574 . S
C2182 H2177 0.949 . S
C2182 C2188 1.368 1_554 S
C2183 C2167 1.349 . S
C2183 H2175 0.950 . S
C2183 C2181 1.327 . S
C2184 C2172 1.349 . S
C2184 H2178 0.950 . S
C2184 C2185 1.327 . S
C2185 H2179 0.950 . S
C2185 C2184 1.327 . S
C2185 C2189 1.429 . S
C2186 C2169 1.574 . S
C2186 H2180 0.949 . S
C2186 C2190 1.368 1_556 S
C2187 C2168 1.429 . S
C2187 C2181 1.429 . S
C2187 C2188 1.523 . S
C2188 C2169 1.368 . S
C2188 C2182 1.368 1_556 S
C2188 C2187 1.523 . S
C2189 C2173 1.429 . S
C2189 C2185 1.429 . S
C2189 C2190 1.523 . S
C2190 C2174 1.368 . S
C2190 C2186 1.368 1_554 S
C2190 C2189 1.523 . S
H2191 C2166 0.950 . S
H2192 C2168 0.950 1_554 S
H2193 C2169 0.949 . S
H2194 C2171 0.950 . S
H2195 C2173 0.950 1_556 S
C2196 C2197 1.349 . S
C2196 C2198 1.327 . S
C2196 H2221 0.950 . S
C2197 C2196 1.349 . S
C2197 C2213 1.370 . S
C2198 C2196 1.327 . S
C2198 C2217 1.429 . S
C2198 H2222 0.950 . S
C2199 C2216 1.574 1_545 S
C2199 C2218 1.366 1_655 S
C2199 H2223 0.952 . S
H2200 C2204 0.949 . S
C2201 C2202 1.370 . S
C2201 C2203 1.327 . S
C2201 H2224 0.930 1_455 S
C2202 C2201 1.370 . S
C2202 C2214 1.349 . S
C2203 C2201 1.327 . S
C2203 C2219 1.440 . S
C2203 H2225 0.938 1_455 S
C2204 H2200 0.949 . S
C2204 C2212 1.574 1_565 S
C2204 C2220 1.368 . S
H2205 C2213 0.930 1_655 S
H2206 C2211 0.938 1_655 S
H2207 C2212 0.949 . S
H2208 C2214 0.950 . S
H2209 C2215 0.950 . S
H2210 C2216 0.952 . S
C2211 H2206 0.938 1_455 S
C2211 C2213 1.327 . S
C2211 C2217 1.440 . S
C2212 C2204 1.574 1_545 S
C2212 H2207 0.949 . S
C2212 C2218 1.368 . S
C2213 C2197 1.370 . S
C2213 H2205 0.930 1_455 S
C2213 C2211 1.327 . S
C2214 C2202 1.349 . S
C2214 H2208 0.950 . S
C2214 C2215 1.327 . S
C2215 H2209 0.950 . S
C2215 C2214 1.327 . S
C2215 C2219 1.429 . S
C2216 C2199 1.574 1_565 S
C2216 H2210 0.952 . S
C2216 C2220 1.366 1_655 S
C2217 C2198 1.429 . S
C2217 C2211 1.440 . S
C2217 C2218 1.523 . S
C2218 C2199 1.366 1_455 S
C2218 C2212 1.368 . S
C2218 C2217 1.523 . S
C2219 C2203 1.440 . S
C2219 C2215 1.429 . S
C2219 C2220 1.523 . S
C2220 C2204 1.368 . S
C2220 C2216 1.366 1_455 S
C2220 C2219 1.523 . S
H2221 C2196 0.950 . S
H2222 C2198 0.950 . S
H2223 C2199 0.952 . S
H2224 C2201 0.930 1_655 S
H2225 C2203 0.938 1_655 S
C2226 C2227 1.349 . S
C2226 C2228 1.327 . S
C2226 H2251 0.950 . S
C2227 C2226 1.349 . S
C2227 C2243 1.349 . S
C2228 C2226 1.327 . S
C2228 C2247 1.429 . S
C2228 H2252 0.950 . S
C2229 C2246 1.574 . S
C2229 C2248 1.368 1_554 S
C2229 H2253 0.949 . S
H2230 C2234 0.949 . S
C2231 C2232 1.349 . S
C2231 C2233 1.327 . S
C2231 H2254 0.950 . S
C2232 C2231 1.349 . S
C2232 C2244 1.349 . S
C2233 C2231 1.327 . S
C2233 C2249 1.429 . S
C2233 H2255 0.950 . S
C2234 H2230 0.949 . S
C2234 C2242 1.574 . S
C2234 C2250 1.368 1_556 S
H2235 C2243 0.950 . S
H2236 C2241 0.950 1_554 S
H2237 C2242 0.949 . S
H2238 C2244 0.950 . S
H2239 C2245 0.950 1_556 S
H2240 C2246 0.949 . S
C2241 H2236 0.950 1_556 S
C2241 C2243 1.327 . S
C2241 C2247 1.429 . S
C2242 C2234 1.574 . S
C2242 H2237 0.949 . S
C2242 C2248 1.368 . S
C2243 C2227 1.349 . S
C2243 H2235 0.950 . S
C2243 C2241 1.327 . S
C2244 C2232 1.349 . S
C2244 H2238 0.950 . S
C2244 C2245 1.327 . S
C2245 H2239 0.950 1_554 S
C2245 C2244 1.327 . S
C2245 C2249 1.429 . S
C2246 C2229 1.574 . S
C2246 H2240 0.949 . S
C2246 C2250 1.368 . S
C2247 C2228 1.429 . S
C2247 C2241 1.429 . S
C2247 C2248 1.523 . S
C2248 C2229 1.368 1_556 S
C2248 C2242 1.368 . S
C2248 C2247 1.523 . S
C2249 C2233 1.429 . S
C2249 C2245 1.429 . S
C2249 C2250 1.523 . S
C2250 C2234 1.368 1_554 S
C2250 C2246 1.368 . S
C2250 C2249 1.523 . S
H2251 C2226 0.950 . S
H2252 C2228 0.950 . S
H2253 C2229 0.949 . S
H2254 C2231 0.950 . S
H2255 C2233 0.950 . S
C2256 C2257 1.349 1_545 S
C2256 C2258 1.327 . S
C2256 H2281 0.950 . S
C2257 C2256 1.349 1_565 S
C2257 C2273 1.349 . S
C2258 C2256 1.327 . S
C2258 C2277 1.429 1_545 S
C2258 H2282 0.950 . S
C2259 C2276 1.574 . S
C2259 C2278 1.368 . S
C2259 H2283 0.949 . S
H2260 C2264 0.949 . S
C2261 C2262 1.349 . S
C2261 C2263 1.327 . S
C2261 H2284 0.950 . S
C2262 C2261 1.349 . S
C2262 C2274 1.349 1_565 S
C2263 C2261 1.327 . S
C2263 C2279 1.429 . S
C2263 H2285 0.950 . S
C2264 H2260 0.949 . S
C2264 C2272 1.574 . S
C2264 C2280 1.368 1_545 S
H2265 C2273 0.950 . S
H2266 C2271 0.950 . S
H2267 C2272 0.949 . S
H2268 C2274 0.950 . S
H2269 C2275 0.950 . S
H2270 C2276 0.949 . S
C2271 H2266 0.950 . S
C2271 C2273 1.327 . S
C2271 C2277 1.429 . S
C2272 C2264 1.574 . S
C2272 H2267 0.949 . S
C2272 C2278 1.368 1_545 S
C2273 C2257 1.349 . S
C2273 H2265 0.950 . S
C2273 C2271 1.327 . S
C2274 C2262 1.349 1_545 S
C2274 H2268 0.950 . S
C2274 C2275 1.327 . S
C2275 H2269 0.950 . S
C2275 C2274 1.327 . S
C2275 C2279 1.429 1_545 S
C2276 C2259 1.574 . S
C2276 H2270 0.949 . S
C2276 C2280 1.368 . S
C2277 C2258 1.429 1_565 S
C2277 C2271 1.429 . S
C2277 C2278 1.523 . S
C2278 C2259 1.368 . S
C2278 C2272 1.368 1_565 S
C2278 C2277 1.523 . S
C2279 C2263 1.429 . S
C2279 C2275 1.429 1_565 S
C2279 C2280 1.523 . S
C2280 C2264 1.368 1_565 S
C2280 C2276 1.368 . S
C2280 C2279 1.523 . S
H2281 C2256 0.950 . S
H2282 C2258 0.950 . S
H2283 C2259 0.949 . S
H2284 C2261 0.950 . S
H2285 C2263 0.950 . S
C2286 C2287 1.349 . S
C2286 C2288 1.327 . S
C2286 H2311 0.950 . S
C2287 C2286 1.349 . S
C2287 C2303 1.349 . S
C2288 C2286 1.327 . S
C2288 C2307 1.429 . S
C2288 H2312 0.950 . S
C2289 C2306 1.574 . S
C2289 C2308 1.368 . S
C2289 H2313 0.949 . S
H2290 C2294 0.949 . S
C2291 C2292 1.349 . S
C2291 C2293 1.327 . S
C2291 H2314 0.950 . S
C2292 C2291 1.349 . S
C2292 C2304 1.349 . S
C2293 C2291 1.327 . S
C2293 C2309 1.429 . S
C2293 H2315 0.950 . S
C2294 H2290 0.949 . S
C2294 C2302 1.574 . S
C2294 C2310 1.368 . S
H2295 C2303 0.950 . S
H2296 C2301 0.950 . S
H2297 C2302 0.949 . S
H2298 C2304 0.950 . S
H2299 C2305 0.950 . S
H2300 C2306 0.949 . S
C2301 H2296 0.950 . S
C2301 C2303 1.327 . S
C2301 C2307 1.429 . S
C2302 C2294 1.574 . S
C2302 H2297 0.949 . S
C2302 C2308 1.368 . S
C2303 C2287 1.349 . S
C2303 H2295 0.950 . S
C2303 C2301 1.327 . S
C2304 C2292 1.349 . S
C2304 H2298 0.950 . S
C2304 C2305 1.327 . S
C2305 H2299 0.950 . S
C2305 C2304 1.327 . S
C2305 C2309 1.429 . S
C2306 C2289 1.574 . S
C2306 H2300 0.949 . S
C2306 C2310 1.368 . S
C2307 C2288 1.429 . S
C2307 C2301 1.429 . S
C2307 C2308 1.523 . S
C2308 C2289 1.368 . S
C2308 C2302 1.368 . S
C2308 C2307 1.523 . S
C2309 C2293 1.429 . S
C2309 C2305 1.429 . S
C2309 C2310 1.523 . S
C2310 C2294 1.368 . S
C2310 C2306 1.368 . S
C2310 C2309 1.523 . S
H2311 C2286 0.950 . S
H2312 C2288 0.950 . S
H2313 C2289 0.949 . S
H2314 C2291 0.950 . S
H2315 C2293 0.950 . S
C2316 C2317 1.349 . S
C2316 C2318 1.327 . S
C2316 H2341 0.950 . S
C2317 C2316 1.349 . S
C2317 C2333 1.349 . S
C2318 C2316 1.327 . S
C2318 C2337 1.429 . S
C2318 H2342 0.950 . S
C2319 C2336 1.574 . S
C2319 C2338 1.368 . S
C2319 H2343 0.949 . S
H2320 C2324 0.949 . S
C2321 C2322 1.349 . S
C2321 C2323 1.327 . S
C2321 H2344 0.950 . S
C2322 C2321 1.349 . S
C2322 C2334 1.349 . S
C2323 C2321 1.327 . S
C2323 C2339 1.429 . S
C2323 H2345 0.950 . S
C2324 H2320 0.949 . S
C2324 C2332 1.574 . S
C2324 C2340 1.368 . S
H2325 C2333 0.950 . S
H2326 C2331 0.950 . S
H2327 C2332 0.949 . S
H2328 C2334 0.950 . S
H2329 C2335 0.950 . S
H2330 C2336 0.949 . S
C2331 H2326 0.950 . S
C2331 C2333 1.327 . S
C2331 C2337 1.429 . S
C2332 C2324 1.574 . S
C2332 H2327 0.949 . S
C2332 C2338 1.368 . S
C2333 C2317 1.349 . S
C2333 H2325 0.950 . S
C2333 C2331 1.327 . S
C2334 C2322 1.349 . S
C2334 H2328 0.950 . S
C2334 C2335 1.327 . S
C2335 H2329 0.950 . S
C2335 C2334 1.327 . S
C2335 C2339 1.429 . S
C2336 C2319 1.574 . S
C2336 H2330 0.949 . S
C2336 C2340 1.368 . S
C2337 C2318 1.429 . S
C2337 C2331 1.429 . S
C2337 C2338 1.523 . S
C2338 C2319 1.368 . S
C2338 C2332 1.368 . S
C2338 C2337 1.523 . S
C2339 C2323 1.429 . S
C2339 C2335 1.429 . S
C2339 C2340 1.523 . S
C2340 C2324 1.368 . S
C2340 C2336 1.368 . S
C2340 C2339 1.523 . S
H2341 C2316 0.950 . S
H2342 C2318 0.950 . S
H2343 C2319 0.949 . S
H2344 C2321 0.950 . S
H2345 C2323 0.950 . S
C2346 C2347 1.349 . S
C2346 C2348 1.327 . S
C2346 H2371 0.956 . S
C2347 C2346 1.349 . S
C2347 C2363 1.349 . S
C2348 C2346 1.327 . S
C2348 C2367 1.429 . S
C2348 H2372 0.950 1_545 S
C2349 C2366 1.574 . S
C2349 C2368 1.368 . S
C2349 H2373 0.949 . S
H2350 C2354 0.949 . S
C2351 C2352 1.349 . S
C2351 C2353 1.327 . S
C2351 H2374 0.956 . S
C2352 C2351 1.349 . S
C2352 C2364 1.349 . S
C2353 C2351 1.327 . S
C2353 C2369 1.429 . S
C2353 H2375 0.950 1_565 S
C2354 H2350 0.949 . S
C2354 C2362 1.574 . S
C2354 C2370 1.368 . S
H2355 C2363 0.950 . S
H2356 C2361 0.950 . S
H2357 C2362 0.949 . S
H2358 C2364 0.950 . S
H2359 C2365 0.950 . S
H2360 C2366 0.949 . S
C2361 H2356 0.950 . S
C2361 C2363 1.327 . S
C2361 C2367 1.429 . S
C2362 C2354 1.574 . S
C2362 H2357 0.949 . S
C2362 C2368 1.368 1_565 S
C2363 C2347 1.349 . S
C2363 H2355 0.950 . S
C2363 C2361 1.327 . S
C2364 C2352 1.349 . S
C2364 H2358 0.950 . S
C2364 C2365 1.327 . S
C2365 H2359 0.950 . S
C2365 C2364 1.327 . S
C2365 C2369 1.429 . S
C2366 C2349 1.574 . S
C2366 H2360 0.949 . S
C2366 C2370 1.368 1_545 S
C2367 C2348 1.429 . S
C2367 C2361 1.429 . S
C2367 C2368 1.523 . S
C2368 C2349 1.368 . S
C2368 C2362 1.368 1_545 S
C2368 C2367 1.523 . S
C2369 C2353 1.429 . S
C2369 C2365 1.429 . S
C2369 C2370 1.523 . S
C2370 C2354 1.368 . S
C2370 C2366 1.368 1_565 S
C2370 C2369 1.523 . S
H2371 C2346 0.956 . S
H2372 C2348 0.950 1_565 S
H2373 C2349 0.949 . S
H2374 C2351 0.956 . S
H2375 C2353 0.950 1_545 S
C2376 C2377 1.349 . S
C2376 C2378 1.327 . S
C2376 H2401 0.950 . S
C2377 C2376 1.349 . S
C2377 C2393 1.349 1_545 S
C2378 C2376 1.327 . S
C2378 C2397 1.429 . S
C2378 H2402 0.950 . S
C2379 C2396 1.574 1_554 S
C2379 C2398 1.368 1_565 S
C2379 H2403 0.949 . S
H2380 C2384 0.949 . S
C2381 C2382 1.349 1_565 S
C2381 C2383 1.327 . S
C2381 H2404 0.950 . S
C2382 C2381 1.349 1_545 S
C2382 C2394 1.349 . S
C2383 C2381 1.327 . S
C2383 C2399 1.429 1_565 S
C2383 H2405 0.950 . S
C2384 H2380 0.949 . S
C2384 C2392 1.574 1_556 S
C2384 C2400 1.368 . S
H2385 C2393 0.950 . S
H2386 C2391 0.950 . S
H2387 C2392 0.949 . S
H2388 C2394 0.950 . S
H2389 C2395 0.950 . S
H2390 C2396 0.949 . S
C2391 H2386 0.950 . S
C2391 C2393 1.327 . S
C2391 C2397 1.429 1_565 S
C2392 C2384 1.574 1_554 S
C2392 H2387 0.949 . S
C2392 C2398 1.368 . S
C2393 C2377 1.349 1_565 S
C2393 H2385 0.950 . S
C2393 C2391 1.327 . S
C2394 C2382 1.349 . S
C2394 H2388 0.950 . S
C2394 C2395 1.327 . S
C2395 H2389 0.950 . S
C2395 C2394 1.327 . S
C2395 C2399 1.429 . S
C2396 C2379 1.574 1_556 S
C2396 H2390 0.949 . S
C2396 C2400 1.368 1_565 S
C2397 C2378 1.429 . S
C2397 C2391 1.429 1_545 S
C2397 C2398 1.523 . S
C2398 C2379 1.368 1_545 S
C2398 C2392 1.368 . S
C2398 C2397 1.523 . S
C2399 C2383 1.429 1_545 S
C2399 C2395 1.429 . S
C2399 C2400 1.523 . S
C2400 C2384 1.368 . S
C2400 C2396 1.368 1_545 S
C2400 C2399 1.523 . S
H2401 C2376 0.950 . S
H2402 C2378 0.950 . S
H2403 C2379 0.949 . S
H2404 C2381 0.950 . S
H2405 C2383 0.950 . S
C2406 C2407 1.349 . S
C2406 C2408 1.327 . S
C2406 H2431 0.950 . S
C2407 C2406 1.349 . S
C2407 C2423 1.349 . S
C2408 C2406 1.327 . S
C2408 C2427 1.429 . S
C2408 H2432 0.950 . S
C2409 C2426 1.574 . S
C2409 C2428 1.368 . S
C2409 H2433 0.949 . S
H2410 C2414 0.949 . S
C2411 C2412 1.349 . S
C2411 C2413 1.327 . S
C2411 H2434 0.950 . S
C2412 C2411 1.349 . S
C2412 C2424 1.349 . S
C2413 C2411 1.327 . S
C2413 C2429 1.429 . S
C2413 H2435 0.950 . S
C2414 H2410 0.949 . S
C2414 C2422 1.574 . S
C2414 C2430 1.368 . S
H2415 C2423 0.950 . S
H2416 C2421 0.950 . S
H2417 C2422 0.949 . S
H2418 C2424 0.950 . S
H2419 C2425 0.950 . S
H2420 C2426 0.949 . S
C2421 H2416 0.950 . S
C2421 C2423 1.327 . S
C2421 C2427 1.429 . S
C2422 C2414 1.574 . S
C2422 H2417 0.949 . S
C2422 C2428 1.368 . S
C2423 C2407 1.349 . S
C2423 H2415 0.950 . S
C2423 C2421 1.327 . S
C2424 C2412 1.349 . S
C2424 H2418 0.950 . S
C2424 C2425 1.327 . S
C2425 H2419 0.950 . S
C2425 C2424 1.327 . S
C2425 C2429 1.429 . S
C2426 C2409 1.574 . S
C2426 H2420 0.949 . S
C2426 C2430 1.368 . S
C2427 C2408 1.429 . S
C2427 C2421 1.429 . S
C2427 C2428 1.523 . S
C2428 C2409 1.368 . S
C2428 C2422 1.368 . S
C2428 C2427 1.523 . S
C2429 C2413 1.429 . S
C2429 C2425 1.429 . S
C2429 C2430 1.523 . S
C2430 C2414 1.368 . S
C2430 C2426 1.368 . S
C2430 C2429 1.523 . S
H2431 C2406 0.950 . S
H2432 C2408 0.950 . S
H2433 C2409 0.949 . S
H2434 C2411 0.950 . S
H2435 C2413 0.950 . S
C2436 C2437 1.349 . S
C2436 C2438 1.327 . S
C2436 H2461 0.950 . S
C2437 C2436 1.349 . S
C2437 C2453 1.349 . S
C2438 C2436 1.327 . S
C2438 C2457 1.429 . S
C2438 H2462 0.950 . S
C2439 C2456 1.574 1_554 S
C2439 C2458 1.368 . S
C2439 H2463 0.949 . S
H2440 C2444 0.949 . S
C2441 C2442 1.349 . S
C2441 C2443 1.327 . S
C2441 H2464 0.950 . S
C2442 C2441 1.349 . S
C2442 C2454 1.349 . S
C2443 C2441 1.327 . S
C2443 C2459 1.429 . S
C2443 H2465 0.950 . S
C2444 H2440 0.949 . S
C2444 C2452 1.574 1_556 S
C2444 C2460 1.368 . S
H2445 C2453 0.950 . S
H2446 C2451 0.950 . S
H2447 C2452 0.949 . S
H2448 C2454 0.950 . S
H2449 C2455 0.950 . S
H2450 C2456 0.949 . S
C2451 H2446 0.950 . S
C2451 C2453 1.327 . S
C2451 C2457 1.429 . S
C2452 C2444 1.574 1_554 S
C2452 H2447 0.949 . S
C2452 C2458 1.368 . S
C2453 C2437 1.349 . S
C2453 H2445 0.950 . S
C2453 C2451 1.327 . S
C2454 C2442 1.349 . S
C2454 H2448 0.950 . S
C2454 C2455 1.327 . S
C2455 H2449 0.950 . S
C2455 C2454 1.327 . S
C2455 C2459 1.429 . S
C2456 C2439 1.574 1_556 S
C2456 H2450 0.949 . S
C2456 C2460 1.368 . S
C2457 C2438 1.429 . S
C2457 C2451 1.429 . S
C2457 C2458 1.523 . S
C2458 C2439 1.368 . S
C2458 C2452 1.368 . S
C2458 C2457 1.523 . S
C2459 C2443 1.429 . S
C2459 C2455 1.429 . S
C2459 C2460 1.523 . S
C2460 C2444 1.368 . S
C2460 C2456 1.368 . S
C2460 C2459 1.523 . S
H2461 C2436 0.950 . S
H2462 C2438 0.950 . S
H2463 C2439 0.949 . S
H2464 C2441 0.950 . S
H2465 C2443 0.950 . S
C2466 C2467 1.349 . S
C2466 C2468 1.327 . S
C2466 H2491 0.950 . S
C2467 C2466 1.349 . S
C2467 C2483 1.349 . S
C2468 C2466 1.327 . S
C2468 C2487 1.429 . S
C2468 H2492 0.950 . S
C2469 C2486 1.583 . S
C2469 C2488 1.368 . S
C2469 H2493 0.949 . S
H2470 C2474 0.949 . S
C2471 C2472 1.349 . S
C2471 C2473 1.327 . S
C2471 H2494 0.950 . S
C2472 C2471 1.349 . S
C2472 C2484 1.349 . S
C2473 C2471 1.327 . S
C2473 C2489 1.429 . S
C2473 H2495 0.950 . S
C2474 H2470 0.949 . S
C2474 C2482 1.583 . S
C2474 C2490 1.368 . S
H2475 C2483 0.950 . S
H2476 C2481 0.950 . S
H2477 C2482 0.951 . S
H2478 C2484 0.950 . S
H2479 C2485 0.950 . S
H2480 C2486 0.951 . S
C2481 H2476 0.950 . S
C2481 C2483 1.327 . S
C2481 C2487 1.429 . S
C2482 C2474 1.583 . S
C2482 H2477 0.951 . S
C2482 C2488 1.359 1_565 S
C2483 C2467 1.349 . S
C2483 H2475 0.950 . S
C2483 C2481 1.327 . S
C2484 C2472 1.349 . S
C2484 H2478 0.950 . S
C2484 C2485 1.327 . S
C2485 H2479 0.950 . S
C2485 C2484 1.327 . S
C2485 C2489 1.429 . S
C2486 C2469 1.583 . S
C2486 H2480 0.951 . S
C2486 C2490 1.359 1_545 S
C2487 C2468 1.429 . S
C2487 C2481 1.429 . S
C2487 C2488 1.523 . S
C2488 C2469 1.368 . S
C2488 C2482 1.359 1_545 S
C2488 C2487 1.523 . S
C2489 C2473 1.429 . S
C2489 C2485 1.429 . S
C2489 C2490 1.523 . S
C2490 C2474 1.368 . S
C2490 C2486 1.359 1_565 S
C2490 C2489 1.523 . S
H2491 C2466 0.950 . S
H2492 C2468 0.950 . S
H2493 C2469 0.949 . S
H2494 C2471 0.950 . S
H2495 C2473 0.950 . S
C2496 C2497 1.349 . S
C2496 C2498 1.327 . S
C2496 H2521 0.950 . S
C2497 C2496 1.349 . S
C2497 C2513 1.349 1_556 S
C2498 C2496 1.327 . S
C2498 C2517 1.429 . S
C2498 H2522 0.950 . S
C2499 C2516 1.574 . S
C2499 C2518 1.368 1_554 S
C2499 H2523 0.949 . S
H2500 C2504 0.949 . S
C2501 C2502 1.349 1_554 S
C2501 C2503 1.327 . S
C2501 H2524 0.950 . S
C2502 C2501 1.349 1_556 S
C2502 C2514 1.349 . S
C2503 C2501 1.327 . S
C2503 C2519 1.429 1_554 S
C2503 H2525 0.950 . S
C2504 H2500 0.949 . S
C2504 C2512 1.574 . S
C2504 C2520 1.368 . S
H2505 C2513 0.950 . S
H2506 C2511 0.950 . S
H2507 C2512 0.949 . S
H2508 C2514 0.950 . S
H2509 C2515 0.950 . S
H2510 C2516 0.949 . S
C2511 H2506 0.950 . S
C2511 C2513 1.327 . S
C2511 C2517 1.429 1_554 S
C2512 C2504 1.574 . S
C2512 H2507 0.949 . S
C2512 C2518 1.368 . S
C2513 C2497 1.349 1_554 S
C2513 H2505 0.950 . S
C2513 C2511 1.327 . S
C2514 C2502 1.349 . S
C2514 H2508 0.950 . S
C2514 C2515 1.327 . S
C2515 H2509 0.950 . S
C2515 C2514 1.327 . S
C2515 C2519 1.429 . S
C2516 C2499 1.574 . S
C2516 H2510 0.949 . S
C2516 C2520 1.368 1_554 S
C2517 C2498 1.429 . S
C2517 C2511 1.429 1_556 S
C2517 C2518 1.523 . S
C2518 C2499 1.368 1_556 S
C2518 C2512 1.368 . S
C2518 C2517 1.523 . S
C2519 C2503 1.429 1_556 S
C2519 C2515 1.429 . S
C2519 C2520 1.523 . S
C2520 C2504 1.368 . S
C2520 C2516 1.368 1_556 S
C2520 C2519 1.523 . S
H2521 C2496 0.950 . S
H2522 C2498 0.950 . S
H2523 C2499 0.949 . S
H2524 C2501 0.950 . S
H2525 C2503 0.950 . S
C2526 C2527 1.349 . S
C2526 C2528 1.327 . S
C2526 H2551 0.950 . S
C2527 C2526 1.349 . S
C2527 C2543 1.349 . S
C2528 C2526 1.327 . S
C2528 C2547 1.429 . S
C2528 H2552 0.950 . S
C2529 C2546 1.574 . S
C2529 C2548 1.368 . S
C2529 H2553 0.949 . S
H2530 C2534 0.949 . S
C2531 C2532 1.349 . S
C2531 C2533 1.327 . S
C2531 H2554 0.950 . S
C2532 C2531 1.349 . S
C2532 C2544 1.349 . S
C2533 C2531 1.327 . S
C2533 C2549 1.429 . S
C2533 H2555 0.950 . S
C2534 H2530 0.949 . S
C2534 C2542 1.574 . S
C2534 C2550 1.368 . S
H2535 C2543 0.950 . S
H2536 C2541 0.950 . S
H2537 C2542 0.949 . S
H2538 C2544 0.950 . S
H2539 C2545 0.950 . S
H2540 C2546 0.949 . S
C2541 H2536 0.950 . S
C2541 C2543 1.327 . S
C2541 C2547 1.429 . S
C2542 C2534 1.574 . S
C2542 H2537 0.949 . S
C2542 C2548 1.368 . S
C2543 C2527 1.349 . S
C2543 H2535 0.950 . S
C2543 C2541 1.327 . S
C2544 C2532 1.349 . S
C2544 H2538 0.950 . S
C2544 C2545 1.327 . S
C2545 H2539 0.950 . S
C2545 C2544 1.327 . S
C2545 C2549 1.429 . S
C2546 C2529 1.574 . S
C2546 H2540 0.949 . S
C2546 C2550 1.368 . S
C2547 C2528 1.429 . S
C2547 C2541 1.429 . S
C2547 C2548 1.523 . S
C2548 C2529 1.368 . S
C2548 C2542 1.368 . S
C2548 C2547 1.523 . S
C2549 C2533 1.429 . S
C2549 C2545 1.429 . S
C2549 C2550 1.523 . S
C2550 C2534 1.368 . S
C2550 C2546 1.368 . S
C2550 C2549 1.523 . S
H2551 C2526 0.950 . S
H2552 C2528 0.950 . S
H2553 C2529 0.949 . S
H2554 C2531 0.950 . S
H2555 C2533 0.950 . S
C2556 C2557 1.349 . S
C2556 C2558 1.327 . S
C2556 H2581 0.950 . S
C2557 C2556 1.349 . S
C2557 C2573 1.349 . S
C2558 C2556 1.327 . S
C2558 C2577 1.429 . S
C2558 H2582 0.950 . S
C2559 C2576 1.574 . S
C2559 C2578 1.368 1_455 S
C2559 H2583 0.949 . S
H2560 C2564 0.949 . S
C2561 C2562 1.349 . S
C2561 C2563 1.327 . S
C2561 H2584 0.950 . S
C2562 C2561 1.349 . S
C2562 C2574 1.349 . S
C2563 C2561 1.327 . S
C2563 C2579 1.429 . S
C2563 H2585 0.950 . S
C2564 H2560 0.949 . S
C2564 C2572 1.574 . S
C2564 C2580 1.368 1_655 S
H2565 C2573 0.950 . S
H2566 C2571 0.950 1_455 S
H2567 C2572 0.949 . S
H2568 C2574 0.950 . S
H2569 C2575 0.950 1_655 S
H2570 C2576 0.949 . S
C2571 H2566 0.950 1_655 S
C2571 C2573 1.327 . S
C2571 C2577 1.429 . S
C2572 C2564 1.574 . S
C2572 H2567 0.949 . S
C2572 C2578 1.368 . S
C2573 C2557 1.349 . S
C2573 H2565 0.950 . S
C2573 C2571 1.327 . S
C2574 C2562 1.349 . S
C2574 H2568 0.950 . S
C2574 C2575 1.327 . S
C2575 H2569 0.950 1_455 S
C2575 C2574 1.327 . S
C2575 C2579 1.429 . S
C2576 C2559 1.574 . S
C2576 H2570 0.949 . S
C2576 C2580 1.368 . S
C2577 C2558 1.429 . S
C2577 C2571 1.429 . S
C2577 C2578 1.523 . S
C2578 C2559 1.368 1_655 S
C2578 C2572 1.368 . S
C2578 C2577 1.523 . S
C2579 C2563 1.429 . S
C2579 C2575 1.429 . S
C2579 C2580 1.523 . S
C2580 C2564 1.368 1_455 S
C2580 C2576 1.368 . S
C2580 C2579 1.523 . S
H2581 C2556 0.950 . S
H2582 C2558 0.950 . S
H2583 C2559 0.949 . S
H2584 C2561 0.950 . S
H2585 C2563 0.950 . S
C2586 C2587 1.349 . S
C2586 C2588 1.327 . S
C2586 H2611 0.950 . S
C2587 C2586 1.349 . S
C2587 C2603 1.349 . S
C2588 C2586 1.327 . S
C2588 C2607 1.429 . S
C2588 H2612 0.950 . S
C2589 C2606 1.574 . S
C2589 C2608 1.368 . S
C2589 H2613 0.949 . S
H2590 C2594 0.949 . S
C2591 C2592 1.349 . S
C2591 C2593 1.327 . S
C2591 H2614 0.950 . S
C2592 C2591 1.349 . S
C2592 C2604 1.349 . S
C2593 C2591 1.327 . S
C2593 C2609 1.429 . S
C2593 H2615 0.950 . S
C2594 H2590 0.949 . S
C2594 C2602 1.574 . S
C2594 C2610 1.368 . S
H2595 C2603 0.950 . S
H2596 C2601 0.950 . S
H2597 C2602 0.949 . S
H2598 C2604 0.950 . S
H2599 C2605 0.950 . S
H2600 C2606 0.949 . S
C2601 H2596 0.950 . S
C2601 C2603 1.327 . S
C2601 C2607 1.429 . S
C2602 C2594 1.574 . S
C2602 H2597 0.949 . S
C2602 C2608 1.368 . S
C2603 C2587 1.349 . S
C2603 H2595 0.950 . S
C2603 C2601 1.327 . S
C2604 C2592 1.349 . S
C2604 H2598 0.950 . S
C2604 C2605 1.327 . S
C2605 H2599 0.950 . S
C2605 C2604 1.327 . S
C2605 C2609 1.429 . S
C2606 C2589 1.574 . S
C2606 H2600 0.949 . S
C2606 C2610 1.368 . S
C2607 C2588 1.429 . S
C2607 C2601 1.429 . S
C2607 C2608 1.523 . S
C2608 C2589 1.368 . S
C2608 C2602 1.368 . S
C2608 C2607 1.523 . S
C2609 C2593 1.429 . S
C2609 C2605 1.429 . S
C2609 C2610 1.523 . S
C2610 C2594 1.368 . S
C2610 C2606 1.368 . S
C2610 C2609 1.523 . S
H2611 C2586 0.950 . S
H2612 C2588 0.950 . S
H2613 C2589 0.949 . S
H2614 C2591 0.950 . S
H2615 C2593 0.950 . S
C2616 C2617 1.349 . S
C2616 C2618 1.327 . S
C2616 H2641 0.950 . S
C2617 C2616 1.349 . S
C2617 C2633 1.349 . S
C2618 C2616 1.327 . S
C2618 C2637 1.429 . S
C2618 H2642 0.950 . S
C2619 C2636 1.574 1_655 S
C2619 C2638 1.368 . S
C2619 H2643 0.949 . S
H2620 C2624 0.949 . S
C2621 C2622 1.349 . S
C2621 C2623 1.327 . S
C2621 H2644 0.950 . S
C2622 C2621 1.349 . S
C2622 C2634 1.349 . S
C2623 C2621 1.327 . S
C2623 C2639 1.429 . S
C2623 H2645 0.950 . S
C2624 H2620 0.949 . S
C2624 C2632 1.574 1_455 S
C2624 C2640 1.368 . S
H2625 C2633 0.950 . S
H2626 C2631 0.950 . S
H2627 C2632 0.949 . S
H2628 C2634 0.950 . S
H2629 C2635 0.950 . S
H2630 C2636 0.949 . S
C2631 H2626 0.950 . S
C2631 C2633 1.327 . S
C2631 C2637 1.429 . S
C2632 C2624 1.574 1_655 S
C2632 H2627 0.949 . S
C2632 C2638 1.368 . S
C2633 C2617 1.349 . S
C2633 H2625 0.950 . S
C2633 C2631 1.327 . S
C2634 C2622 1.349 . S
C2634 H2628 0.950 . S
C2634 C2635 1.327 . S
C2635 H2629 0.950 . S
C2635 C2634 1.327 . S
C2635 C2639 1.429 . S
C2636 C2619 1.574 1_455 S
C2636 H2630 0.949 . S
C2636 C2640 1.368 . S
C2637 C2618 1.429 . S
C2637 C2631 1.429 . S
C2637 C2638 1.523 . S
C2638 C2619 1.368 . S
C2638 C2632 1.368 . S
C2638 C2637 1.523 . S
C2639 C2623 1.429 . S
C2639 C2635 1.429 . S
C2639 C2640 1.523 . S
C2640 C2624 1.368 . S
C2640 C2636 1.368 . S
C2640 C2639 1.523 . S
H2641 C2616 0.950 . S
H2642 C2618 0.950 . S
H2643 C2619 0.949 . S
H2644 C2621 0.950 . S
H2645 C2623 0.950 . S
C2646 C2647 1.349 . S
C2646 C2648 1.327 . S
C2646 H2671 0.950 . S
C2647 C2646 1.349 . S
C2647 C2663 1.349 . S
C2648 C2646 1.327 . S
C2648 C2667 1.429 . S
C2648 H2672 0.950 . S
C2649 C2666 1.574 . S
C2649 C2668 1.368 1_655 S
C2649 H2673 0.949 . S
H2650 C2654 0.949 . S
C2651 C2652 1.349 . S
C2651 C2653 1.327 . S
C2651 H2674 0.950 . S
C2652 C2651 1.349 . S
C2652 C2664 1.349 . S
C2653 C2651 1.327 . S
C2653 C2669 1.429 . S
C2653 H2675 0.950 . S
C2654 H2650 0.949 . S
C2654 C2662 1.574 . S
C2654 C2670 1.368 1_455 S
H2655 C2663 0.950 . S
H2656 C2661 0.950 1_655 S
H2657 C2662 0.949 . S
H2658 C2664 0.950 . S
H2659 C2665 0.950 1_455 S
H2660 C2666 0.949 . S
C2661 H2656 0.950 1_455 S
C2661 C2663 1.327 . S
C2661 C2667 1.429 . S
C2662 C2654 1.574 . S
C2662 H2657 0.949 . S
C2662 C2668 1.368 . S
C2663 C2647 1.349 . S
C2663 H2655 0.950 . S
C2663 C2661 1.327 . S
C2664 C2652 1.349 . S
C2664 H2658 0.950 . S
C2664 C2665 1.327 . S
C2665 H2659 0.950 1_655 S
C2665 C2664 1.327 . S
C2665 C2669 1.429 . S
C2666 C2649 1.574 . S
C2666 H2660 0.949 . S
C2666 C2670 1.368 . S
C2667 C2648 1.429 . S
C2667 C2661 1.429 . S
C2667 C2668 1.523 . S
C2668 C2649 1.368 1_455 S
C2668 C2662 1.368 . S
C2668 C2667 1.523 . S
C2669 C2653 1.429 . S
C2669 C2665 1.429 . S
C2669 C2670 1.523 . S
C2670 C2654 1.368 1_655 S
C2670 C2666 1.368 . S
C2670 C2669 1.523 . S
H2671 C2646 0.950 . S
H2672 C2648 0.950 . S
H2673 C2649 0.949 . S
H2674 C2651 0.950 . S
H2675 C2653 0.950 . S
C2676 C2677 1.349 . S
C2676 C2678 1.327 . S
C2676 H2701 0.950 . S
C2677 C2676 1.349 . S
C2677 C2693 1.349 . S
C2678 C2676 1.327 . S
C2678 C2697 1.429 . S
C2678 H2702 0.950 . S
C2679 C2696 1.574 1_545 S
C2679 C2698 1.368 . S
C2679 H2703 0.949 . S
H2680 C2684 0.949 . S
C2681 C2682 1.349 . S
C2681 C2683 1.327 . S
C2681 H2704 0.950 . S
C2682 C2681 1.349 . S
C2682 C2694 1.349 . S
C2683 C2681 1.327 . S
C2683 C2699 1.429 . S
C2683 H2705 0.950 . S
C2684 H2680 0.949 . S
C2684 C2692 1.574 1_565 S
C2684 C2700 1.368 . S
H2685 C2693 0.950 . S
H2686 C2691 0.950 . S
H2687 C2692 0.949 . S
H2688 C2694 0.950 . S
H2689 C2695 0.950 . S
H2690 C2696 0.949 . S
C2691 H2686 0.950 . S
C2691 C2693 1.327 . S
C2691 C2697 1.429 . S
C2692 C2684 1.574 1_545 S
C2692 H2687 0.949 . S
C2692 C2698 1.368 . S
C2693 C2677 1.349 . S
C2693 H2685 0.950 . S
C2693 C2691 1.327 . S
C2694 C2682 1.349 . S
C2694 H2688 0.950 . S
C2694 C2695 1.327 . S
C2695 H2689 0.950 . S
C2695 C2694 1.327 . S
C2695 C2699 1.429 . S
C2696 C2679 1.574 1_565 S
C2696 H2690 0.949 . S
C2696 C2700 1.368 . S
C2697 C2678 1.429 . S
C2697 C2691 1.429 . S
C2697 C2698 1.523 . S
C2698 C2679 1.368 . S
C2698 C2692 1.368 . S
C2698 C2697 1.523 . S
C2699 C2683 1.429 . S
C2699 C2695 1.429 . S
C2699 C2700 1.523 . S
C2700 C2684 1.368 . S
C2700 C2696 1.368 . S
C2700 C2699 1.523 . S
H2701 C2676 0.950 . S
H2702 C2678 0.950 . S
H2703 C2679 0.949 . S
H2704 C2681 0.950 . S
H2705 C2683 0.950 . S
C2706 C2707 1.349 . S
C2706 C2708 1.327 . S
C2706 H2731 0.950 . S
C2707 C2706 1.349 . S
C2707 C2723 1.349 . S
C2708 C2706 1.327 . S
C2708 C2727 1.429 . S
C2708 H2732 0.950 . S
C2709 C2726 1.574 . S
C2709 C2728 1.368 . S
C2709 H2733 0.949 . S
H2710 C2714 0.949 . S
C2711 C2712 1.349 . S
C2711 C2713 1.327 . S
C2711 H2734 0.950 . S
C2712 C2711 1.349 . S
C2712 C2724 1.349 . S
C2713 C2711 1.327 . S
C2713 C2729 1.429 . S
C2713 H2735 0.950 . S
C2714 H2710 0.949 . S
C2714 C2722 1.574 . S
C2714 C2730 1.368 . S
H2715 C2723 0.950 . S
H2716 C2721 0.950 . S
H2717 C2722 0.949 . S
H2718 C2724 0.950 . S
H2719 C2725 0.950 . S
H2720 C2726 0.949 . S
C2721 H2716 0.950 . S
C2721 C2723 1.327 . S
C2721 C2727 1.429 . S
C2722 C2714 1.574 . S
C2722 H2717 0.949 . S
C2722 C2728 1.368 . S
C2723 C2707 1.349 . S
C2723 H2715 0.950 . S
C2723 C2721 1.327 . S
C2724 C2712 1.349 . S
C2724 H2718 0.950 . S
C2724 C2725 1.327 . S
C2725 H2719 0.950 . S
C2725 C2724 1.327 . S
C2725 C2729 1.429 . S
C2726 C2709 1.574 . S
C2726 H2720 0.949 . S
C2726 C2730 1.368 . S
C2727 C2708 1.429 . S
C2727 C2721 1.429 . S
C2727 C2728 1.523 . S
C2728 C2709 1.368 . S
C2728 C2722 1.368 . S
C2728 C2727 1.523 . S
C2729 C2713 1.429 . S
C2729 C2725 1.429 . S
C2729 C2730 1.523 . S
C2730 C2714 1.368 . S
C2730 C2726 1.368 . S
C2730 C2729 1.523 . S
H2731 C2706 0.950 . S
H2732 C2708 0.950 . S
H2733 C2709 0.949 . S
H2734 C2711 0.950 . S
H2735 C2713 0.950 . S
C2736 C2737 1.349 . S
C2736 C2738 1.327 . S
C2736 H2761 0.950 . S
C2737 C2736 1.349 . S
C2737 C2753 1.349 . S
C2738 C2736 1.327 . S
C2738 C2757 1.429 . S
C2738 H2762 0.950 . S
C2739 C2756 1.574 . S
C2739 C2758 1.368 . S
C2739 H2763 0.949 . S
H2740 C2744 0.949 . S
C2741 C2742 1.349 . S
C2741 C2743 1.327 . S
C2741 H2764 0.950 . S
C2742 C2741 1.349 . S
C2742 C2754 1.349 . S
C2743 C2741 1.327 . S
C2743 C2759 1.429 . S
C2743 H2765 0.950 . S
C2744 H2740 0.949 . S
C2744 C2752 1.574 . S
C2744 C2760 1.368 . S
H2745 C2753 0.950 . S
H2746 C2751 0.950 . S
H2747 C2752 0.949 . S
H2748 C2754 0.950 . S
H2749 C2755 0.950 . S
H2750 C2756 0.949 . S
C2751 H2746 0.950 . S
C2751 C2753 1.327 . S
C2751 C2757 1.429 . S
C2752 C2744 1.574 . S
C2752 H2747 0.949 . S
C2752 C2758 1.368 . S
C2753 C2737 1.349 . S
C2753 H2745 0.950 . S
C2753 C2751 1.327 . S
C2754 C2742 1.349 . S
C2754 H2748 0.950 . S
C2754 C2755 1.327 . S
C2755 H2749 0.950 . S
C2755 C2754 1.327 . S
C2755 C2759 1.429 . S
C2756 C2739 1.574 . S
C2756 H2750 0.949 . S
C2756 C2760 1.368 . S
C2757 C2738 1.429 . S
C2757 C2751 1.429 . S
C2757 C2758 1.523 . S
C2758 C2739 1.368 . S
C2758 C2752 1.368 . S
C2758 C2757 1.523 . S
C2759 C2743 1.429 . S
C2759 C2755 1.429 . S
C2759 C2760 1.523 . S
C2760 C2744 1.368 . S
C2760 C2756 1.368 . S
C2760 C2759 1.523 . S
H2761 C2736 0.950 . S
H2762 C2738 0.950 . S
H2763 C2739 0.949 . S
H2764 C2741 0.950 . S
H2765 C2743 0.950 . S
C2766 C2767 1.349 . S
C2766 C2768 1.327 . S
C2766 H2791 0.950 . S
C2767 C2766 1.349 . S
C2767 C2783 1.349 . S
C2768 C2766 1.327 . S
C2768 C2787 1.429 . S
C2768 H2792 0.950 . S
C2769 C2786 1.574 . S
C2769 C2788 1.368 . S
C2769 H2793 0.949 . S
H2770 C2774 0.949 . S
C2771 C2772 1.349 . S
C2771 C2773 1.327 . S
C2771 H2794 0.950 . S
C2772 C2771 1.349 . S
C2772 C2784 1.349 . S
C2773 C2771 1.327 . S
C2773 C2789 1.429 . S
C2773 H2795 0.950 . S
C2774 H2770 0.949 . S
C2774 C2782 1.574 . S
C2774 C2790 1.368 . S
H2775 C2783 0.950 . S
H2776 C2781 0.950 . S
H2777 C2782 0.949 . S
H2778 C2784 0.950 . S
H2779 C2785 0.950 . S
H2780 C2786 0.949 . S
C2781 H2776 0.950 . S
C2781 C2783 1.327 . S
C2781 C2787 1.429 . S
C2782 C2774 1.574 . S
C2782 H2777 0.949 . S
C2782 C2788 1.368 . S
C2783 C2767 1.349 . S
C2783 H2775 0.950 . S
C2783 C2781 1.327 . S
C2784 C2772 1.349 . S
C2784 H2778 0.950 . S
C2784 C2785 1.327 . S
C2785 H2779 0.950 . S
C2785 C2784 1.327 . S
C2785 C2789 1.429 . S
C2786 C2769 1.574 . S
C2786 H2780 0.949 . S
C2786 C2790 1.368 . S
C2787 C2768 1.429 . S
C2787 C2781 1.429 . S
C2787 C2788 1.523 . S
C2788 C2769 1.368 . S
C2788 C2782 1.368 . S
C2788 C2787 1.523 . S
C2789 C2773 1.429 . S
C2789 C2785 1.429 . S
C2789 C2790 1.523 . S
C2790 C2774 1.368 . S
C2790 C2786 1.368 . S
C2790 C2789 1.523 . S
H2791 C2766 0.950 . S
H2792 C2768 0.950 . S
H2793 C2769 0.949 . S
H2794 C2771 0.950 . S
H2795 C2773 0.950 . S
C2796 C2797 1.349 . S
C2796 C2798 1.327 . S
C2796 H2821 0.950 . S
C2797 C2796 1.349 . S
C2797 C2813 1.349 1_554 S
C2798 C2796 1.327 . S
C2798 C2817 1.429 . S
C2798 H2822 0.950 . S
C2799 C2816 1.574 1_455 S
C2799 C2818 1.368 1_556 S
C2799 H2823 0.949 . S
H2800 C2804 0.949 . S
C2801 C2802 1.349 1_556 S
C2801 C2803 1.327 . S
C2801 H2824 0.950 . S
C2802 C2801 1.349 1_554 S
C2802 C2814 1.349 . S
C2803 C2801 1.327 . S
C2803 C2819 1.429 1_556 S
C2803 H2825 0.950 . S
C2804 H2800 0.949 . S
C2804 C2812 1.574 1_655 S
C2804 C2820 1.368 . S
H2805 C2813 0.950 . S
H2806 C2811 0.950 . S
H2807 C2812 0.949 . S
H2808 C2814 0.950 . S
H2809 C2815 0.950 . S
H2810 C2816 0.949 . S
C2811 H2806 0.950 . S
C2811 C2813 1.327 . S
C2811 C2817 1.429 1_556 S
C2812 C2804 1.574 1_455 S
C2812 H2807 0.949 . S
C2812 C2818 1.368 . S
C2813 C2797 1.349 1_556 S
C2813 H2805 0.950 . S
C2813 C2811 1.327 . S
C2814 C2802 1.349 . S
C2814 H2808 0.950 . S
C2814 C2815 1.327 . S
C2815 H2809 0.950 . S
C2815 C2814 1.327 . S
C2815 C2819 1.429 . S
C2816 C2799 1.574 1_655 S
C2816 H2810 0.949 . S
C2816 C2820 1.368 1_556 S
C2817 C2798 1.429 . S
C2817 C2811 1.429 1_554 S
C2817 C2818 1.523 . S
C2818 C2799 1.368 1_554 S
C2818 C2812 1.368 . S
C2818 C2817 1.523 . S
C2819 C2803 1.429 1_554 S
C2819 C2815 1.429 . S
C2819 C2820 1.523 . S
C2820 C2804 1.368 . S
C2820 C2816 1.368 1_554 S
C2820 C2819 1.523 . S
H2821 C2796 0.950 . S
H2822 C2798 0.950 . S
H2823 C2799 0.949 . S
H2824 C2801 0.950 . S
H2825 C2803 0.950 . S
C2826 C2827 1.349 . S
C2826 C2828 1.327 . S
C2826 H2851 0.950 . S
C2827 C2826 1.349 . S
C2827 C2843 1.349 . S
C2828 C2826 1.327 . S
C2828 C2847 1.429 . S
C2828 H2852 0.950 . S
C2829 C2846 1.574 . S
C2829 C2848 1.368 . S
C2829 H2853 0.949 . S
H2830 C2834 0.949 . S
C2831 C2832 1.349 . S
C2831 C2833 1.327 . S
C2831 H2854 0.950 . S
C2832 C2831 1.349 . S
C2832 C2844 1.349 . S
C2833 C2831 1.327 . S
C2833 C2849 1.429 . S
C2833 H2855 0.950 . S
C2834 H2830 0.949 . S
C2834 C2842 1.574 . S
C2834 C2850 1.368 . S
H2835 C2843 0.950 . S
H2836 C2841 0.950 . S
H2837 C2842 0.949 . S
H2838 C2844 0.950 . S
H2839 C2845 0.950 . S
H2840 C2846 0.949 . S
C2841 H2836 0.950 . S
C2841 C2843 1.327 . S
C2841 C2847 1.429 . S
C2842 C2834 1.574 . S
C2842 H2837 0.949 . S
C2842 C2848 1.368 . S
C2843 C2827 1.349 . S
C2843 H2835 0.950 . S
C2843 C2841 1.327 . S
C2844 C2832 1.349 . S
C2844 H2838 0.950 . S
C2844 C2845 1.327 . S
C2845 H2839 0.950 . S
C2845 C2844 1.327 . S
C2845 C2849 1.429 . S
C2846 C2829 1.574 . S
C2846 H2840 0.949 . S
C2846 C2850 1.368 . S
C2847 C2828 1.429 . S
C2847 C2841 1.429 . S
C2847 C2848 1.523 . S
C2848 C2829 1.368 . S
C2848 C2842 1.368 . S
C2848 C2847 1.523 . S
C2849 C2833 1.429 . S
C2849 C2845 1.429 . S
C2849 C2850 1.523 . S
C2850 C2834 1.368 . S
C2850 C2846 1.368 . S
C2850 C2849 1.523 . S
H2851 C2826 0.950 . S
H2852 C2828 0.950 . S
H2853 C2829 0.949 . S
H2854 C2831 0.950 . S
H2855 C2833 0.950 . S
C697 C283 0.603 . S
C702 C48 0.592 . S
C727 C343 0.603 . S
C732 C112 0.599 . S
C757 C47 0.599 . S
C762 C399 0.602 . S
C787 C231 0.603 . S
C792 C114 0.602 . S
C817 C456 0.603 . S
C822 C172 0.595 . S
C847 C164 0.599 . S
C852 C520 0.602 . S
C877 C170 0.599 . S
C882 C572 0.606 . S
C907 C632 0.603 . S
C912 C163 0.602 . S
C937 C50 0.603 . S
C942 C225 0.592 . S
C967 C110 0.603 . S
C972 C286 0.599 . S
C997 C344 0.599 . S
C1002 C51 0.607 . S
C1027 C111 0.603 . S
C1032 C396 0.599 . S
C1057 C167 0.603 . S
C1062 C226 0.599 . S
C1087 C288 0.599 . S
C1092 C169 0.601 . S
C1117 C346 0.599 . S
C1122 C166 0.607 . S
C1147 C395 0.599 . S
C1152 C168 0.606 . S
C1177 C279 0.599 . S
C1182 C229 0.597 . S
C1207 C460 0.599 . S
C1212 C228 0.607 . S
C1237 C510 0.599 . S
C1242 C285 0.606 . S
C1267 C341 0.603 . S
C1272 C570 0.599 . S
C1297 C458 0.603 . S
C1302 C337 0.599 . S
C1327 C630 0.603 . S
C1332 C462 0.602 . S
C1357 C512 0.599 . S
C1362 C459 0.603 . S
C1387 C628 0.599 . S
C1392 C574 0.602 . S
C1417 C573 0.603 . S
C1422 C106 0.599 . S
C1447 C54 0.599 . S
C1452 C633 0.601 . S
C1477 C105 0.599 . S
C1482 C457 0.603 . S
C1507 C56 0.599 . S
C1512 C521 0.602 . S
C1537 C398 0.603 . S
C1542 C694 0.602 . S
C1567 C686 0.599 . S
C1572 C230 0.601 . S
C1597 C282 0.603 . S
C1602 C692 0.602 . S
C1627 C342 0.603 . S
C1632 C685 0.599 . S
C1657 C515 0.599 . S
C1662 C108 0.603 . S
C1687 C52 0.603 . S
C1692 C576 0.602 . S
C1717 C634 0.599 . S
C1722 C109 0.606 . S
C1747 C454 0.599 . S
C1752 C53 0.600 . S
C1777 C689 0.603 . S
C1782 C516 0.599 . S
C1807 C691 0.603 . S
C1812 C578 0.599 . S
C1837 C636 0.599 . S
C1842 C688 0.600 . S
C1867 C453 0.599 . S
C1872 C690 0.603 . S
C1897 C569 0.599 . S
C1902 C519 0.603 . S
C1927 C402 0.599 . S
C1932 C518 0.606 . S
C1957 C220 0.599 . S
C1962 C575 0.602 . S
C1987 C631 0.603 . S
C1992 C280 0.599 . S
C2017 C400 0.603 . S
C2022 C627 0.602 . S
C2047 C340 0.603 . S
C2052 C404 0.595 . S
C2077 C401 0.603 . S
C2082 C222 0.595 . S
C2107 C338 0.599 . S
C2112 C284 0.600 . S
C2137 C162 2.791 . S
C2142 C55 2.791 . S
C2167 C104 2.791 . S
C2172 C173 2.795 . S
C2197 C57 2.791 . S
C2202 C165 2.791 . S
C2227 C107 2.791 . S
C2232 C171 2.787 . S
C2257 C223 2.791 . S
C2262 C626 2.791 . S
C2287 C278 2.791 . S
C2292 C461 2.795 . S
C2317 C511 2.791 . S
C2322 C339 2.791 . S
C2347 C405 2.791 . S
C2352 C571 2.795 . S
C2377 C221 2.791 . S
C2382 C629 2.791 . S
C2407 C463 2.791 . S
C2412 C281 2.787 . S
C2437 C336 2.791 . S
C2442 C513 2.791 . S
C2467 C403 2.791 . S
C2472 C568 2.787 . S
C2497 C394 2.791 . S
C2502 C289 2.791 . S
C2527 C577 2.791 . S
C2532 C455 2.791 . S
C2557 C514 2.791 . S
C2562 C635 2.787 . S
C2587 C345 2.791 . S
C2592 C224 2.795 . S
C2617 C579 2.791 . S
C2622 C452 2.791 . S
C2647 C637 2.791 . S
C2652 C517 2.795 . S
C2677 C684 2.791 . S
C2682 C113 2.791 . S
C2707 C46 2.791 . S
C2712 C695 2.787 . S
C2737 C115 2.791 . S
C2742 C687 2.791 . S
C2767 C693 2.791 . S
C2772 C49 2.795 . S
C2797 C287 2.791 . S
C2802 C397 2.791 . S
C2827 C227 2.791 . S
C2832 C347 2.787 . S
