# Generated by pormake.
# Topology qtz-x, (6)-cn, num edge types: 1
# Building blocks:
#     Node 0, Type 0, BuildingBlock: BETDAH_clean_sbu_0, # of connection points: 6
#     Node 1, Type 0, BuildingBlock: BETDAH_clean_sbu_0, # of connection points: 6
#     Node 2, Type 0, BuildingBlock: BETDAH_clean_sbu_0, # of connection points: 6
#     Edge 3, Type (0, 0), BuildingBlock: ZUJKAS_clean_linker_0, # of connection points: 2
#     Edge 4, Type (0, 0), BuildingBlock: ZUJKAS_clean_linker_0, # of connection points: 2
#     Edge 5, Type (0, 0), BuildingBlock: ZUJKAS_clean_linker_0, # of connection points: 2
#     Edge 6, Type (0, 0), BuildingBlock: ZUJKAS_clean_linker_0, # of connection points: 2
#     Edge 7, Type (0, 0), BuildingBlock: ZUJKAS_clean_linker_0, # of connection points: 2
#     Edge 8, Type (0, 0), BuildingBlock: ZUJKAS_clean_linker_0, # of connection points: 2
#     Edge 9, Type (0, 0), BuildingBlock: ZUJKAS_clean_linker_0, # of connection points: 2
#     Edge 10, Type (0, 0), BuildingBlock: ZUJKAS_clean_linker_0, # of connection points: 2
#     Edge 11, Type (0, 0), BuildingBlock: ZUJKAS_clean_linker_0, # of connection points: 2
# Relax obj value: 0.172
# Max RMSD: 0.237
# Mean RMSD: 0.217
data_MOF--net-qtz-x--node1-BETDAH_clean_sbu_0--edge1-ZUJKAS_clean_linker_0
_symmetry_space_group_name_H-M    P1
_symmetry_Int_Tables_number       1
_symmetry_cell_setting            triclinic
loop_
_symmetry_equiv_pos_as_xyz
'x, y, z'
_cell_length_a     19.0149
_cell_length_b     19.015433
_cell_length_c     65.901394
_cell_angle_alpha  73.566081
_cell_angle_beta   109.94123
_cell_angle_gamma 121.17961
loop_
_atom_site_label
_atom_site_type_symbol
_atom_site_fract_x
_atom_site_fract_y
_atom_site_fract_z
_atom_type_partial_charge
Ho0 Ho 0.98276 0.58969 0.18712 0.0
Ho1 Ho 0.15135 0.71177 0.17732 0.0
C2 C 0.14987 0.66826 0.2266 0.0
C3 C 0.86422 0.46688 0.20497 0.0
C4 C 0.84993 0.43829 0.2274 0.0
C5 C 0.89332 0.39843 0.24359 0.0
C6 C 0.87874 0.37134 0.26458 0.0
C7 C 0.8206 0.38353 0.26996 0.0
C8 C 0.77731 0.4234 0.25377 0.0
C9 C 0.79148 0.45001 0.23275 0.0
C10 C 1.0134 0.74923 0.17935 0.0
C11 C 0.98476 0.64315 0.13727 0.0
C12 C 0.27546 0.82785 0.16048 0.0
C13 C 0.29898 0.8387 0.14016 0.0
C14 C 0.24417 0.842 0.11964 0.0
C15 C 0.26338 0.8436 0.10078 0.0
C16 C 0.33784 0.84194 0.102 0.0
C17 C 0.39384 0.84125 0.12249 0.0
C18 C 0.37465 0.8398 0.14134 0.0
C19 C 0.11757 0.55083 0.18441 0.0
O20 O 0.07559 0.60406 0.22037 0.0
O21 O 0.18756 0.72875 0.21213 0.0
O22 O 0.86176 0.53596 0.19512 0.0
O23 O 0.92487 0.4613 0.2015 0.0
O24 O 0.93993 0.68735 0.17321 0.0
O25 O 0.06623 0.72323 0.19031 0.0
O26 O 0.06101 0.70332 0.14424 0.0
O27 O 0.94303 0.58165 0.15109 0.0
O28 O 0.28108 0.76702 0.17512 0.0
O29 O 0.20697 0.83235 0.1585 0.0
O30 O 0.19107 0.61146 0.19096 0.0
O31 O 0.06661 0.5789 0.17356 0.0
H32 H 0.93876 0.38812 0.24012 0.0
H33 H 0.91386 0.34167 0.27669 0.0
H34 H 0.73131 0.43288 0.25724 0.0
H35 H 0.75641 0.47974 0.22063 0.0
H36 H 0.18562 0.84181 0.11813 0.0
H37 H 0.21954 0.84563 0.08525 0.0
H38 H 0.45131 0.83908 0.12409 0.0
H39 H 0.41791 0.83714 0.15695 0.0
Ho40 Ho 0.75019 0.13867 0.53796 0.0
Ho41 Ho 0.68719 0.96425 0.5327 0.0
C42 C 0.73366 -0.0025 0.58057 0.0
C43 C 0.78225 0.27363 0.54943 0.0
C44 C 0.79416 0.29936 0.56991 0.0
C45 C 0.74528 0.24505 0.58498 0.0
C46 C 0.76129 0.26922 0.60492 0.0
C47 C 0.82662 0.34806 0.61016 0.0
C48 C 0.8749 0.40229 0.59489 0.0
C49 C 0.85869 0.37813 0.57497 0.0
C50 C 0.86974 0.10647 0.53546 0.0
C51 C 0.70453 0.10702 0.4898 0.0
C52 C 0.65342 0.83415 0.5185 0.0
C53 C 0.61118 0.8114 0.49628 0.0
C54 C 0.62859 0.76241 0.48834 0.0
C55 C 0.59285 0.74655 0.46664 0.0
C56 C 0.53945 0.77988 0.45251 0.0
C57 C 0.52169 0.82821 0.46072 0.0
C58 C 0.55738 0.84403 0.4823 0.0
C59 C 0.56645 -0.00356 0.5344 0.0
O60 O 0.72921 0.06692 0.57112 0.0
O61 O 0.73329 0.9503 0.56911 0.0
O62 O 0.84084 0.2582 0.54885 0.0
O63 O 0.70606 0.21906 0.54086 0.0
O64 O 0.86396 0.17385 0.52645 0.0
O65 O 0.81358 0.05996 0.54614 0.0
O66 O 0.69846 0.03301 0.49873 0.0
O67 O 0.71473 0.15865 0.5016 0.0
O68 O 0.60614 0.83436 0.52894 0.0
O69 O 0.72749 0.8999 0.52038 0.0
O70 O 0.57049 0.92805 0.54302 0.0
O71 O 0.62399 0.04305 0.52418 0.0
H72 H 0.69519 0.18378 0.58142 0.0
H73 H 0.72226 0.22629 0.61617 0.0
H74 H 0.92656 0.46286 0.59852 0.0
H75 H 0.89759 0.42055 0.56363 0.0
H76 H 0.67087 0.73764 0.4988 0.0
H77 H 0.60864 0.70986 0.4608 0.0
H78 H 0.47992 0.85383 0.45047 0.0
H79 H 0.54368 0.88277 0.48801 0.0
Ho80 Ho 0.71526 0.78421 0.85381 0.0
Ho81 Ho 0.85514 0.7408 0.86107 0.0
C82 C 0.81505 0.7424 0.90329 0.0
C83 C 0.58505 0.78671 0.85715 0.0
C84 C 0.56309 0.79018 0.87608 0.0
C85 C 0.47867 0.76251 0.87575 0.0
C86 C 0.45777 0.76386 0.89401 0.0
C87 C 0.52107 0.79256 0.91295 0.0
C88 C 0.60564 0.82003 0.91316 0.0
C89 C 0.6264 0.81891 0.89491 0.0
C90 C 0.87012 0.91498 0.85434 0.0
C91 C 0.75736 0.7856 0.81114 0.0
C92 C 0.98244 0.73252 0.85826 0.0
C93 C 0.98795 0.69562 0.84236 0.0
C94 C 0.05956 0.73593 0.83373 0.0
C95 C 0.06093 0.70502 0.81701 0.0
C96 C 0.99082 0.63304 0.80882 0.0
C97 C 0.91989 0.59218 0.8178 0.0
C98 C 0.91821 0.62343 0.83428 0.0
C99 C 0.69952 0.60983 0.85973 0.0
O100 O 0.7436 0.73984 0.89009 0.0
O101 O 0.87761 0.75774 0.89541 0.0
O102 O 0.65033 0.85294 0.8513 0.0
O103 O 0.58611 0.71832 0.85735 0.0
O104 O 0.80083 0.91544 0.84188 0.0
O105 O 0.85373 0.84754 0.86688 0.0
O106 O 0.82424 0.77828 0.82447 0.0
O107 O 0.698 0.77985 0.81866 0.0
O108 O 0.93377 0.68032 0.87149 0.0
O109 O 0.97114 0.79821 0.8503 0.0
O110 O 0.76834 0.60824 0.87202 0.0
O111 O 0.71718 0.67817 0.84765 0.0
H112 H 0.42892 0.73947 0.86143 0.0
H113 H 0.39193 0.74134 0.89341 0.0
H114 H 0.65609 0.84351 0.92733 0.0
H115 H 0.69207 0.84062 0.89552 0.0
H116 H 0.11352 0.79226 0.83956 0.0
H117 H 0.11642 0.73764 0.81037 0.0
H118 H 0.86433 0.53758 0.81154 0.0
H119 H 0.86136 0.59213 0.84031 0.0
H120 H 0.15726 0.88105 0.19693 0.0
H121 H 0.17486 0.0177 0.19763 0.0
H122 H 0.91617 0.94347 0.16137 0.0
H123 H 0.89858 0.8074 0.16039 0.0
H124 H 0.02901 0.10244 0.1462 0.0
H125 H 0.07617 0.06363 0.23581 0.0
H126 H 0.14743 0.0488 0.22736 0.0
H127 H 0.03609 0.978 0.22122 0.0
C128 C 0.10431 0.89408 0.18906 0.0
C129 C 0.02633 0.83341 0.17876 0.0
C130 C 0.11424 0.97191 0.18959 0.0
C131 C 0.0463 -0.00975 0.17992 0.0
C132 C 0.96924 0.93051 0.16907 0.0
H133 H 0.97281 0.42135 0.16605 0.0
H134 H 0.95276 0.28398 0.16498 0.0
C135 C 0.95928 0.85279 0.16854 0.0
C136 C 0.0552 0.07155 0.18107 0.0
H137 H 0.09623 0.19603 0.21662 0.0
C138 C 0.04339 0.12283 0.16159 0.0
C139 C 0.07375 0.09795 0.20116 0.0
C140 C 0.08338 0.04404 0.22259 0.0
C141 C 0.05145 0.20057 0.16166 0.0
C142 C 0.07023 0.22707 0.18175 0.0
C143 C 0.08176 0.17564 0.20123 0.0
C144 C 0.08047 0.30891 0.18297 0.0
C145 C 0.04197 0.25454 0.14023 0.0
C146 C 0.15781 0.36748 0.19407 0.0
C147 C 0.16909 0.44549 0.19485 0.0
C148 C 0.10312 0.46641 0.18459 0.0
C149 C 0.0249 0.40705 0.17397 0.0
C150 C 1.01361 0.32883 0.17322 0.0
H151 H 0.0488 0.23468 0.12699 0.0
H152 H 0.9781 0.25018 0.13549 0.0
H153 H 0.08959 0.32049 0.14159 0.0
H154 H 0.21008 0.35333 0.20183 0.0
H155 H 0.22996 0.48987 0.20323 0.0
H156 H 0.43993 0.8962 0.55537 0.0
H157 H 0.32239 0.91543 0.55525 0.0
H158 H 0.41621 0.14754 0.51339 0.0
H159 H 0.53528 0.12878 0.5136 0.0
H160 H 0.36708 0.15552 0.54807 0.0
H161 H 0.11443 0.88578 0.50539 0.0
H162 H 0.18303 0.86021 0.52914 0.0
H163 H 0.22479 0.92776 0.50617 0.0
C164 C 0.43556 0.95132 0.54605 0.0
C165 C 0.49659 0.01068 0.53434 0.0
C166 C 0.3679 0.96198 0.54591 0.0
C167 C 0.35917 0.03204 0.53395 0.0
C168 C 0.4211 0.09255 0.52259 0.0
H169 H 0.99558 0.20748 0.51425 0.0
H170 H 0.11343 0.18913 0.51414 0.0
C171 C 0.48909 0.08184 0.52271 0.0
C172 C 0.28615 0.04229 0.53372 0.0
H173 H 0.06968 0.94943 0.52119 0.0
C174 C 0.30209 0.11079 0.54205 0.0
C175 C 0.20112 0.98365 0.52598 0.0
C176 C 0.17955 0.9106 0.51598 0.0
C177 C 0.23563 0.12136 0.54325 0.0
C178 C 0.15061 0.06265 0.53555 0.0
C179 C 0.13467 -0.00579 0.5272 0.0
C180 C 0.07752 0.07253 0.53546 0.0
C181 C 0.25718 0.19441 0.55326 0.0
C182 C 1.016 0.01176 0.54691 0.0
C183 C 0.94786 0.02196 0.54691 0.0
C184 C 0.93978 0.09287 0.53533 0.0
C185 C 1.00039 0.15253 0.52352 0.0
C186 C 0.06823 0.14238 0.52354 0.0
H187 H 0.32245 0.21953 0.56376 0.0
H188 H 0.25319 0.2446 0.54009 0.0
H189 H 0.21219 0.17709 0.56316 0.0
H190 H 1.0213 0.95691 0.55607 0.0
H191 H 0.90193 0.97473 0.55606 0.0
H192 H 1.02058 0.92609 0.88093 0.0
H193 H 0.16168 0.04561 0.88172 0.0
H194 H 0.05266 0.18208 0.82919 0.0
H195 H 0.91173 0.06349 0.82852 0.0
H196 H 0.24861 0.12634 0.84845 0.0
H197 H 0.19199 0.3412 0.87504 0.0
H198 H 0.12249 0.23084 0.87683 0.0
H199 H 0.1159 0.29598 0.85122 0.0
C200 C 0.02685 0.98178 0.86963 0.0
C201 C 0.95535 -0.01403 0.85479 0.0
C202 C 0.10732 0.04985 0.87008 0.0
C203 C 0.11739 0.12319 0.85578 0.0
C204 C 0.04609 0.12681 0.8407 0.0
H205 H 0.55073 0.59886 0.83194 0.0
H206 H 0.409 0.47982 0.83056 0.0
C207 C 0.96573 0.0589 0.84026 0.0
C208 C 0.20264 0.19537 0.85629 0.0
H209 H 0.31994 0.39941 0.86401 0.0
C210 C 0.26442 0.18595 0.85195 0.0
C211 C 0.22287 0.27312 0.86079 0.0
C212 C 0.16015 0.28601 0.86643 0.0
C213 C 0.34562 0.25261 0.85167 0.0
C214 C 0.36586 0.33031 0.85619 0.0
C215 C 0.30406 0.3398 0.86048 0.0
C216 C 0.45141 0.40211 0.85698 0.0
C217 C 0.40856 0.23976 0.84612 0.0
C218 C 0.52178 0.39814 0.87247 0.0
C219 C 0.60243 0.46587 0.87331 0.0
C220 C 0.61401 0.5389 0.85873 0.0
C221 C 0.54346 0.54324 0.84336 0.0
C222 C 0.46266 0.47541 0.84256 0.0
H223 H 0.37694 0.18437 0.83761 0.0
H224 H 0.4461 0.29484 0.83568 0.0
H225 H 0.45293 0.23023 0.86137 0.0
H226 H 0.51423 0.34281 0.88404 0.0
H227 H 0.65569 0.46112 0.88542 0.0
H228 H 0.40794 0.83907 0.91394 0.0
H229 H 0.37538 0.84601 0.94596 0.0
H230 H 0.55402 0.76044 0.98786 0.0
H231 H 0.58523 0.75096 0.95594 0.0
H232 H 0.39818 0.68097 0.99976 0.0
H233 H 0.53304 0.02377 0.98725 0.0
H234 H 0.45607 0.97382 0.96411 0.0
H235 H 0.55477 0.97016 0.97342 0.0
C236 C 0.4397 0.8209 0.92995 0.0
C237 C 0.49951 0.79484 0.93236 0.0
C238 C 0.42168 0.82579 0.94823 0.0
C239 C 0.4633 0.80504 0.96927 0.0
C240 C 0.52169 0.77736 0.97176 0.0
H241 H 0.49036 0.92188 0.09077 0.0
H242 H 0.52011 0.91054 0.05885 0.0
C243 C 0.53983 0.77253 0.9535 0.0
C244 C 0.44568 0.8118 0.9887 0.0
H245 H 0.45758 0.95008 1.015 0.0
C246 C 0.41122 0.73976 1.00313 0.0
C247 C 0.46386 0.88879 0.99319 0.0
C248 C 0.50469 0.96876 0.97881 0.0
C249 C 0.39324 0.74243 1.0218 0.0
C250 C 0.40908 0.81907 0.02595 0.0
C251 C 0.44474 0.8913 1.01168 0.0
C252 C 0.39036 0.82588 0.0452 0.0
C253 C 0.35886 0.66344 0.03711 0.0
C254 C 0.30734 0.78299 0.04796 0.0
C255 C 0.29021 0.78878 0.06627 0.0
C256 C 0.35574 0.83817 0.08213 0.0
C257 C 0.43862 0.88232 0.07907 0.0
C258 C 0.45567 0.87635 0.06076 0.0
H259 H 0.37106 0.61552 0.03471 0.0
H260 H 0.38721 0.67523 0.05435 0.0
H261 H 0.28937 0.63801 0.034 0.0
H262 H 0.25571 0.74491 0.03594 0.0
H263 H 0.22578 0.75331 0.06817 0.0
H264 H 0.69007 0.01846 0.46091 0.0
H265 H 0.70504 0.06634 0.4234 0.0
H266 H 0.73441 0.30281 0.42753 0.0
H267 H 0.72145 0.2561 0.46532 0.0
H268 H 0.61711 0.12009 0.38664 0.0
H269 H 0.944 0.37423 0.40803 0.0
H270 H 0.89172 0.29527 0.4283 0.0
H271 H 0.8691 0.38133 0.41703 0.0
C272 C 0.69948 0.08068 0.45389 0.0
C273 C 0.70545 0.13371 0.46631 0.0
C274 C 0.70802 0.10797 0.43236 0.0
C275 C 0.72296 0.18896 0.42272 0.0
C276 C 0.72537 0.24087 0.43476 0.0
H277 H 0.80358 0.4649 0.29495 0.0
H278 H 0.77678 0.41656 0.33151 0.0
C279 C 0.71716 0.21375 0.45635 0.0
C280 C 0.73665 0.21893 0.40018 0.0
H281 H 0.87806 0.36901 0.37039 0.0
C282 C 0.67427 0.17442 0.38312 0.0
C283 C 0.81148 0.28964 0.39552 0.0
C284 C 0.8833 0.33747 0.4132 0.0
C285 C 0.68404 0.19932 0.36158 0.0
C286 C 0.75856 0.27024 0.35694 0.0
C287 C 0.8208 0.31491 0.37394 0.0
C288 C 0.77361 0.29872 0.33459 0.0
C289 C 0.61393 0.15026 0.34388 0.0
C290 C 0.78179 0.24904 0.32422 0.0
C291 C 0.79727 0.27657 0.30333 0.0
C292 C 0.8048 0.35443 0.29231 0.0
C293 C 0.79701 0.4042 0.30281 0.0
C294 C 0.78211 0.37684 0.32376 0.0
H295 H 0.55344 0.11005 0.34908 0.0
H296 H 0.60355 0.19216 0.3289 0.0
H297 H 0.63186 0.10987 0.33977 0.0
H298 H 0.77681 0.1891 0.33237 0.0
H299 H 0.80235 0.23638 0.29571 0.0
H300 H 0.65131 0.83683 0.77818 0.0
H301 H 0.64639 0.86871 0.73905 0.0
H302 H 0.84216 0.80102 0.75071 0.0
H303 H 0.84835 0.76985 0.78976 0.0
H304 H 0.81606 -0.0103 0.72085 0.0
H305 H 0.62375 0.66794 0.69933 0.0
H306 H 0.61265 0.6965 0.72158 0.0
H307 H 0.70505 0.68795 0.72431 0.0
C308 C 0.6929 0.82811 0.77243 0.0
C309 C 0.75025 0.8008 0.78721 0.0
C310 C 0.69014 0.84657 0.75005 0.0
C311 C 0.74374 0.837 0.74196 0.0
C312 C 0.80003 0.80856 0.75658 0.0
H313 H 0.78228 0.88438 0.60924 0.0
H314 H 0.78837 0.84735 0.64845 0.0
C315 C 0.80349 0.79093 0.77894 0.0
C316 C 0.74302 0.85924 0.71835 0.0
H317 H 0.67324 0.77573 0.67131 0.0
C318 C 0.78468 0.94308 0.70996 0.0
C319 C 0.70336 0.79825 0.7043 0.0
C320 C 0.65825 0.70741 0.71265 0.0
C321 C 0.78806 0.96766 0.6879 0.0
C322 C 0.74614 0.90677 0.67356 0.0
C323 C 0.70517 0.82266 0.68212 0.0
C324 C 0.74265 0.92909 0.64965 0.0
C325 C 0.83875 0.05865 0.68043 0.0
C326 C 0.71349 -0.01388 0.63701 0.0
C327 C 0.71128 0.00821 0.61474 0.0
C328 C 0.73623 0.97247 0.6043 0.0
C329 C 0.76293 0.91335 0.61675 0.0
C330 C 0.76635 0.89212 0.6392 0.0
H331 H 0.88903 0.09166 0.69414 0.0
H332 H 0.86889 0.06812 0.66745 0.0
H333 H 0.79626 0.08763 0.67394 0.0
H334 H 0.69174 0.01342 0.64431 0.0
H335 H 0.68874 0.0527 0.60565 0.0
H336 H 0.69423 0.69437 0.92511 0.0
H337 H 0.70815 0.66813 0.9644 0.0
H338 H 0.97013 0.7319 0.97532 0.0
H339 H 0.95616 0.75632 0.93595 0.0
H340 H 0.89227 0.59445 1.00185 0.0
H341 H 0.81834 0.83637 1.00562 0.0
H342 H 0.73632 0.76193 0.98782 0.0
H343 H 0.83793 0.82982 0.98147 0.0
C344 C 0.75506 0.70326 0.93582 0.0
C345 C 0.82428 0.72801 0.92728 0.0
C346 C 0.76299 0.68857 0.95836 0.0
C347 C 0.8406 0.69932 0.97294 0.0
C348 C 0.90961 0.72338 0.96446 0.0
H349 H 0.03252 0.77739 0.10656 0.0
H350 H 0.98896 0.78275 0.06715 0.0
C351 C 0.90159 0.73757 0.9419 0.0
C352 C 0.85 0.68468 0.99701 0.0
H353 H 0.83425 0.74777 0.0383 0.0
C354 C 0.87927 0.62779 1.0098 0.0
C355 C 0.83343 0.72838 1.00748 0.0
C356 C 0.80552 0.79308 0.99494 0.0
C357 C 0.89346 0.61425 0.03266 0.0
C358 C 0.87655 0.65765 0.0431 0.0
C359 C 0.84619 0.71368 0.0303 0.0
C360 C 0.89836 0.6526 0.0673 0.0
C361 C 0.92971 0.55608 0.04552 0.0
C362 C 0.86076 0.57775 0.08072 0.0
C363 C 0.88617 0.5743 0.10355 0.0
C364 C 0.9497 0.64568 0.11329 0.0
C365 C 0.9846 0.7208 0.0997 0.0
C366 C 0.95931 0.72419 0.07707 0.0
H367 H 0.95427 0.53998 0.03538 0.0
H368 H 0.98184 0.58405 0.0596 0.0
H369 H 0.87951 0.49783 0.05191 0.0
H370 H 0.81243 0.5219 0.07356 0.0
H371 H 0.85788 0.51555 0.11352 0.0
H372 H 0.08598 0.56243 0.26138 0.0
H373 H 0.15132 0.57501 0.30014 0.0
H374 H 0.36808 0.79982 0.28388 0.0
H375 H 0.30386 0.78772 0.24518 0.0
H376 H 0.40843 0.68498 0.31775 0.0
H377 H 0.1757 0.74802 0.3322 0.0
H378 H 0.13167 0.65634 0.31982 0.0
H379 H 0.18575 0.75656 0.30522 0.0
C380 C 0.14761 0.61455 0.26603 0.0
C381 C 0.1895 0.6743 0.25013 0.0
C382 C 0.18466 0.62179 0.2882 0.0
C383 C 0.26411 0.68886 0.29486 0.0
C384 C 0.30662 0.74772 0.27907 0.0
H385 H 0.51937 0.89029 0.41681 0.0
H386 H 0.45261 0.86468 0.37891 0.0
C387 C 0.26963 0.74074 0.25694 0.0
C388 C 0.30331 0.69826 0.31827 0.0
H389 H 0.28084 0.7359 0.36282 0.0
C390 C 0.38043 0.69574 0.32765 0.0
C391 C 0.267 0.71319 0.33105 0.0
C392 C 0.18582 0.71943 0.3216 0.0
C393 C 0.42209 0.7075 0.34952 0.0
C394 C 0.3854 0.72172 0.36233 0.0
C395 C 0.30843 0.72442 0.35295 0.0
C396 C 0.42731 0.73672 0.38532 0.0
C397 C 0.50599 0.70661 0.35868 0.0
C398 C 0.43516 0.67314 0.40149 0.0
C399 C 0.47253 0.68723 0.42327 0.0
C400 C 0.50262 0.76524 0.42927 0.0
C401 C 0.4955 0.82902 0.41288 0.0
C402 C 0.4578 0.81471 0.39118 0.0
H403 H 0.5328 0.70948 0.34572 0.0
H404 H 0.55229 0.75964 0.36803 0.0
H405 H 0.49734 0.64862 0.37003 0.0
H406 H 0.41109 0.6122 0.39731 0.0
H407 H 0.47599 0.63647 0.43546 0.0
H408 H 0.9389 0.47348 0.80451 0.0
H409 H 0.9209 0.4213 0.77216 0.0
H410 H 1.01646 0.67085 0.73846 0.0
H411 H 0.03554 0.72338 0.77083 0.0
H412 H 0.81735 0.43338 0.73277 0.0
H413 H 0.14682 0.5853 0.72408 0.0
H414 H 0.12201 0.5804 0.74872 0.0
H415 H 0.11594 0.65753 0.72586 0.0
C416 C 0.95708 0.51724 0.79027 0.0
C417 C 0.98881 0.6025 0.79018 0.0
C418 C 0.94689 0.48742 0.77184 0.0
C419 C 0.96826 0.54224 0.75298 0.0
C420 C 1.00156 0.62761 0.753 0.0
H421 H 0.86967 0.50046 0.61844 0.0
H422 H 0.90484 0.54363 0.65371 0.0
C423 C 1.01233 0.65757 0.77149 0.0
C424 C 0.94954 0.50954 0.7328 0.0
H425 H 0.03722 0.52639 0.69313 0.0
C426 C 0.86562 0.45295 0.72425 0.0
C427 C 1.01261 0.53522 0.7217 0.0
C428 C 0.10452 0.59231 0.73066 0.0
C429 C 0.84267 0.42315 0.70456 0.0
C430 C 0.90534 0.45039 0.69325 0.0
C431 C 0.98939 0.50602 0.70189 0.0
C432 C 0.88428 0.42344 0.67207 0.0
C433 C 0.75125 0.36459 0.69564 0.0
C434 C 0.86148 0.34159 0.67083 0.0
C435 C 0.84216 0.31681 0.65073 0.0
C436 C 0.84525 0.37356 0.63152 0.0
C437 C 0.86786 0.45549 0.63292 0.0
C438 C 0.8876 0.48024 0.65303 0.0
H439 H 0.70861 0.35931 0.70469 0.0
H440 H 0.73056 0.38565 0.67817 0.0
H441 H 0.74436 0.30202 0.69683 0.0
H442 H 0.85946 0.29718 0.68545 0.0
H443 H 0.82635 0.25365 0.6503 0.0
loop_
_geom_bond_atom_site_label_1
_geom_bond_atom_site_label_2
_geom_bond_distance
_geom_bond_site_symmetry_2
_ccdc_geom_bond_type
Ho0 C3 2.811 . S
Ho0 O20 2.322 1_655 S
Ho0 O22 2.378 . S
Ho0 O23 2.524 . S
Ho0 O24 2.381 . S
Ho0 O25 2.669 1_655 S
Ho0 O27 2.346 . S
Ho0 O31 2.305 . S
Ho1 C12 2.811 . S
Ho1 O21 2.346 . S
Ho1 O25 2.305 . S
Ho1 O26 2.322 1_455 S
Ho1 O28 2.378 . S
Ho1 O29 2.524 . S
Ho1 O30 2.381 . S
Ho1 O31 2.669 1_455 S
C2 O20 1.259 . S
C2 O21 1.268 . S
C3 Ho0 2.811 . S
C3 C4 1.488 . S
C3 O22 1.215 . S
C3 O23 1.289 . S
C4 C3 1.488 . S
C4 C5 1.348 . S
C4 C9 1.413 . S
C5 C4 1.348 . S
C5 C6 1.442 . S
C5 H32 0.930 . S
C6 C5 1.442 . S
C6 C7 1.381 . S
C6 H33 0.931 . S
C7 C6 1.381 . S
C7 C8 1.321 . S
C8 C7 1.321 . S
C8 C9 1.403 . S
C8 H34 0.934 . S
C9 C4 1.413 . S
C9 C8 1.403 . S
C9 H35 0.930 . S
C10 O24 1.275 . S
C10 O25 1.256 1_655 S
C11 O26 1.259 . S
C11 O27 1.268 . S
C12 Ho1 2.811 . S
C12 C13 1.488 . S
C12 O28 1.215 . S
C12 O29 1.289 . S
C13 C12 1.488 . S
C13 C14 1.348 . S
C13 C18 1.413 . S
C14 C13 1.348 . S
C14 C15 1.442 . S
C14 H36 0.930 . S
C15 C14 1.442 . S
C15 C16 1.381 . S
C15 H37 0.931 . S
C16 C15 1.381 . S
C16 C17 1.321 . S
C17 C16 1.321 . S
C17 C18 1.403 . S
C17 H38 0.934 . S
C18 C13 1.413 . S
C18 C17 1.403 . S
C18 H39 0.930 . S
C19 O30 1.275 . S
C19 O31 1.256 1_455 S
O20 Ho0 2.322 1_455 S
O20 C2 1.259 . S
O21 Ho1 2.346 . S
O21 C2 1.268 . S
O22 Ho0 2.378 . S
O22 C3 1.215 . S
O23 Ho0 2.524 . S
O23 C3 1.289 . S
O24 Ho0 2.381 . S
O24 C10 1.275 . S
O25 Ho0 2.669 1_455 S
O25 Ho1 2.305 . S
O25 C10 1.256 1_455 S
O26 Ho1 2.322 1_655 S
O26 C11 1.259 . S
O27 Ho0 2.346 . S
O27 C11 1.268 . S
O28 Ho1 2.378 . S
O28 C12 1.215 . S
O29 Ho1 2.524 . S
O29 C12 1.289 . S
O30 Ho1 2.381 . S
O30 C19 1.275 . S
O31 Ho0 2.305 . S
O31 Ho1 2.669 1_655 S
O31 C19 1.256 1_655 S
H32 C5 0.930 . S
H33 C6 0.931 . S
H34 C8 0.934 . S
H35 C9 0.930 . S
H36 C14 0.930 . S
H37 C15 0.931 . S
H38 C17 0.934 . S
H39 C18 0.930 . S
Ho40 C43 2.811 . S
Ho40 O60 2.322 . S
Ho40 O62 2.378 . S
Ho40 O63 2.524 . S
Ho40 O64 2.381 . S
Ho40 O65 2.669 1_545 S
Ho40 O67 2.346 . S
Ho40 O71 2.305 . S
Ho41 C52 2.811 . S
Ho41 O61 2.346 . S
Ho41 O65 2.305 . S
Ho41 O66 2.322 1_565 S
Ho41 O68 2.378 . S
Ho41 O69 2.524 . S
Ho41 O70 2.381 . S
Ho41 O71 2.669 1_565 S
C42 O60 1.259 1_565 S
C42 O61 1.268 . S
C43 Ho40 2.811 . S
C43 C44 1.488 . S
C43 O62 1.215 . S
C43 O63 1.289 . S
C44 C43 1.488 . S
C44 C45 1.348 . S
C44 C49 1.413 . S
C45 C44 1.348 . S
C45 C46 1.442 . S
C45 H72 0.930 . S
C46 C45 1.442 . S
C46 C47 1.381 . S
C46 H73 0.931 . S
C47 C46 1.381 . S
C47 C48 1.321 . S
C48 C47 1.321 . S
C48 C49 1.403 . S
C48 H74 0.934 . S
C49 C44 1.413 . S
C49 C48 1.403 . S
C49 H75 0.930 . S
C50 O64 1.275 . S
C50 O65 1.256 1_545 S
C51 O66 1.259 . S
C51 O67 1.268 . S
C52 Ho41 2.811 . S
C52 C53 1.488 . S
C52 O68 1.215 . S
C52 O69 1.289 . S
C53 C52 1.488 . S
C53 C54 1.348 . S
C53 C58 1.413 . S
C54 C53 1.348 . S
C54 C55 1.442 . S
C54 H76 0.930 . S
C55 C54 1.442 . S
C55 C56 1.381 . S
C55 H77 0.931 . S
C56 C55 1.381 . S
C56 C57 1.321 . S
C57 C56 1.321 . S
C57 C58 1.403 . S
C57 H78 0.934 . S
C58 C53 1.413 . S
C58 C57 1.403 . S
C58 H79 0.930 . S
C59 O70 1.275 . S
C59 O71 1.256 1_565 S
O60 Ho40 2.322 . S
O60 C42 1.259 1_545 S
O61 Ho41 2.346 . S
O61 C42 1.268 . S
O62 Ho40 2.378 . S
O62 C43 1.215 . S
O63 Ho40 2.524 . S
O63 C43 1.289 . S
O64 Ho40 2.381 . S
O64 C50 1.275 . S
O65 Ho40 2.669 1_565 S
O65 Ho41 2.305 . S
O65 C50 1.256 1_565 S
O66 Ho41 2.322 1_545 S
O66 C51 1.259 . S
O67 Ho40 2.346 . S
O67 C51 1.268 . S
O68 Ho41 2.378 . S
O68 C52 1.215 . S
O69 Ho41 2.524 . S
O69 C52 1.289 . S
O70 Ho41 2.381 . S
O70 C59 1.275 . S
O71 Ho40 2.305 . S
O71 Ho41 2.669 1_545 S
O71 C59 1.256 1_545 S
H72 C45 0.930 . S
H73 C46 0.931 . S
H74 C48 0.934 . S
H75 C49 0.930 . S
H76 C54 0.930 . S
H77 C55 0.931 . S
H78 C57 0.934 . S
H79 C58 0.930 . S
Ho80 C83 2.811 . S
Ho80 O100 2.322 . S
Ho80 O102 2.378 . S
Ho80 O103 2.524 . S
Ho80 O104 2.381 1_565 S
Ho80 O105 2.669 . S
Ho80 O107 2.346 . S
Ho80 O111 2.305 . S
Ho81 C92 2.811 . S
Ho81 O101 2.346 . S
Ho81 O105 2.305 . S
Ho81 O106 2.322 . S
Ho81 O108 2.378 . S
Ho81 O109 2.524 . S
Ho81 O110 2.381 . S
Ho81 O111 2.669 . S
C82 O100 1.259 . S
C82 O101 1.268 . S
C83 Ho80 2.811 . S
C83 C84 1.488 . S
C83 O102 1.215 . S
C83 O103 1.289 . S
C84 C83 1.488 . S
C84 C85 1.348 . S
C84 C89 1.413 1_565 S
C85 C84 1.348 . S
C85 C86 1.442 . S
C85 H112 0.930 . S
C86 C85 1.442 . S
C86 C87 1.381 . S
C86 H113 0.931 . S
C87 C86 1.381 . S
C87 C88 1.321 1_565 S
C88 C87 1.321 1_545 S
C88 C89 1.403 . S
C88 H114 0.934 . S
C89 C84 1.413 1_545 S
C89 C88 1.403 . S
C89 H115 0.930 . S
C90 O104 1.275 1_565 S
C90 O105 1.256 . S
C91 O106 1.259 . S
C91 O107 1.268 . S
C92 Ho81 2.811 . S
C92 C93 1.488 . S
C92 O108 1.215 . S
C92 O109 1.289 . S
C93 C92 1.488 . S
C93 C94 1.348 . S
C93 C98 1.413 . S
C94 C93 1.348 . S
C94 C95 1.442 . S
C94 H116 0.930 . S
C95 C94 1.442 . S
C95 C96 1.381 . S
C95 H117 0.931 1_655 S
C96 C95 1.381 . S
C96 C97 1.321 . S
C97 C96 1.321 . S
C97 C98 1.403 . S
C97 H118 0.934 . S
C98 C93 1.413 . S
C98 C97 1.403 . S
C98 H119 0.930 . S
C99 O110 1.275 . S
C99 O111 1.256 . S
O100 Ho80 2.322 . S
O100 C82 1.259 . S
O101 Ho81 2.346 . S
O101 C82 1.268 . S
O102 Ho80 2.378 . S
O102 C83 1.215 . S
O103 Ho80 2.524 . S
O103 C83 1.289 . S
O104 Ho80 2.381 1_545 S
O104 C90 1.275 1_545 S
O105 Ho80 2.669 . S
O105 Ho81 2.305 . S
O105 C90 1.256 . S
O106 Ho81 2.322 . S
O106 C91 1.259 . S
O107 Ho80 2.346 . S
O107 C91 1.268 . S
O108 Ho81 2.378 . S
O108 C92 1.215 . S
O109 Ho81 2.524 . S
O109 C92 1.289 . S
O110 Ho81 2.381 . S
O110 C99 1.275 . S
O111 Ho80 2.305 . S
O111 Ho81 2.669 . S
O111 C99 1.256 . S
H112 C85 0.930 . S
H113 C86 0.931 . S
H114 C88 0.934 . S
H115 C89 0.930 . S
H116 C94 0.930 . S
H117 C95 0.931 1_455 S
H118 C97 0.934 . S
H119 C98 0.930 . S
H120 C128 0.929 . S
H121 C130 0.930 1_545 S
H122 C132 0.930 . S
H123 C135 0.929 . S
H124 C138 0.930 . S
H125 C140 0.960 . S
H126 C140 0.960 . S
H127 C140 0.960 . S
C128 H120 0.929 . S
C128 C129 1.377 . S
C128 C130 1.384 . S
C129 C128 1.377 . S
C129 C135 1.390 1_455 S
C130 H121 0.930 1_565 S
C130 C128 1.384 . S
C130 C131 1.372 . S
C131 C130 1.372 . S
C131 C132 1.400 1_455 S
C131 C136 1.490 1_565 S
C132 H122 0.930 . S
C132 C131 1.400 1_655 S
C132 C135 1.386 . S
H133 C149 0.930 . S
H134 C150 0.931 . S
C135 H123 0.929 . S
C135 C129 1.390 1_655 S
C135 C132 1.386 . S
C136 C131 1.490 1_545 S
C136 C138 1.395 1_455 S
C136 C139 1.403 . S
H137 C143 0.930 . S
C138 H124 0.930 . S
C138 C136 1.395 1_655 S
C138 C141 1.403 . S
C139 C136 1.403 . S
C139 C140 1.524 . S
C139 C143 1.400 . S
C140 H125 0.960 . S
C140 H126 0.960 . S
C140 H127 0.960 . S
C140 C139 1.524 . S
C141 C138 1.403 . S
C141 C142 1.392 . S
C141 C145 1.495 . S
C142 C141 1.392 . S
C142 C143 1.385 1_655 S
C142 C144 1.478 . S
C143 H137 0.930 . S
C143 C139 1.400 . S
C143 C142 1.385 1_455 S
C144 C142 1.478 . S
C144 C146 1.381 1_655 S
C144 C150 1.383 . S
C145 C141 1.495 . S
C145 H151 0.959 . S
C145 H152 0.961 . S
C145 H153 0.960 . S
C146 C144 1.381 1_455 S
C146 C147 1.394 . S
C146 H154 0.930 . S
C147 C146 1.394 . S
C147 C148 1.383 1_455 S
C147 H155 0.929 . S
C148 C147 1.383 1_655 S
C148 C149 1.377 . S
C149 H133 0.930 . S
C149 C148 1.377 . S
C149 C150 1.379 . S
C150 H134 0.931 . S
C150 C144 1.383 . S
C150 C149 1.379 . S
H151 C145 0.959 . S
H152 C145 0.961 . S
H153 C145 0.960 . S
H154 C146 0.930 . S
H155 C147 0.929 . S
H156 C164 0.929 . S
H157 C166 0.930 . S
H158 C168 0.930 . S
H159 C171 0.929 . S
H160 C174 0.930 . S
H161 C176 0.960 . S
H162 C176 0.960 . S
H163 C176 0.960 . S
C164 H156 0.929 . S
C164 C165 1.377 . S
C164 C166 1.384 . S
C165 C164 1.377 . S
C165 C171 1.390 . S
C166 H157 0.930 . S
C166 C164 1.384 . S
C166 C167 1.372 . S
C167 C166 1.372 . S
C167 C168 1.400 . S
C167 C172 1.490 . S
C168 H158 0.930 . S
C168 C167 1.400 . S
C168 C171 1.386 . S
H169 C185 0.930 . S
H170 C186 0.931 1_455 S
C171 H159 0.929 . S
C171 C165 1.390 . S
C171 C168 1.386 . S
C172 C167 1.490 . S
C172 C174 1.395 . S
C172 C175 1.403 1_545 S
H173 C179 0.930 . S
C174 H160 0.930 . S
C174 C172 1.395 . S
C174 C177 1.403 . S
C175 C172 1.403 1_565 S
C175 C176 1.524 . S
C175 C179 1.400 . S
C176 H161 0.960 . S
C176 H162 0.960 . S
C176 H163 0.960 . S
C176 C175 1.524 . S
C177 C174 1.403 . S
C177 C178 1.392 . S
C177 C181 1.495 . S
C178 C177 1.392 . S
C178 C179 1.385 1_545 S
C178 C180 1.478 . S
C179 H173 0.930 . S
C179 C175 1.400 . S
C179 C178 1.385 1_565 S
C180 C178 1.478 . S
C180 C182 1.381 . S
C180 C186 1.383 1_455 S
C181 C177 1.495 . S
C181 H187 0.959 . S
C181 H188 0.961 . S
C181 H189 0.960 . S
C182 C180 1.381 . S
C182 C183 1.394 1_455 S
C182 H190 0.930 . S
C183 C182 1.394 1_655 S
C183 C184 1.383 . S
C183 H191 0.929 1_545 S
C184 C183 1.383 . S
C184 C185 1.377 . S
C185 H169 0.930 . S
C185 C184 1.377 . S
C185 C186 1.379 . S
C186 H170 0.931 1_655 S
C186 C180 1.383 1_655 S
C186 C185 1.379 . S
H187 C181 0.959 . S
H188 C181 0.961 . S
H189 C181 0.960 . S
H190 C182 0.930 . S
H191 C183 0.929 1_565 S
H192 C200 0.929 1_565 S
H193 C202 0.930 . S
H194 C204 0.930 . S
H195 C207 0.929 . S
H196 C210 0.930 . S
H197 C212 0.960 . S
H198 C212 0.960 . S
H199 C212 0.960 . S
C200 H192 0.929 1_545 S
C200 C201 1.377 1_455 S
C200 C202 1.384 . S
C201 C200 1.377 1_655 S
C201 C207 1.390 . S
C202 H193 0.930 . S
C202 C200 1.384 . S
C202 C203 1.372 . S
C203 C202 1.372 . S
C203 C204 1.400 . S
C203 C208 1.490 . S
C204 H194 0.930 . S
C204 C203 1.400 . S
C204 C207 1.386 1_455 S
H205 C221 0.930 . S
H206 C222 0.931 . S
C207 H195 0.929 . S
C207 C201 1.390 . S
C207 C204 1.386 1_655 S
C208 C203 1.490 . S
C208 C210 1.395 . S
C208 C211 1.403 . S
H209 C215 0.930 . S
C210 H196 0.930 . S
C210 C208 1.395 . S
C210 C213 1.403 . S
C211 C208 1.403 . S
C211 C212 1.524 . S
C211 C215 1.400 . S
C212 H197 0.960 . S
C212 H198 0.960 . S
C212 H199 0.960 . S
C212 C211 1.524 . S
C213 C210 1.403 . S
C213 C214 1.392 . S
C213 C217 1.495 . S
C214 C213 1.392 . S
C214 C215 1.385 . S
C214 C216 1.478 . S
C215 H209 0.930 . S
C215 C211 1.400 . S
C215 C214 1.385 . S
C216 C214 1.478 . S
C216 C218 1.381 . S
C216 C222 1.383 . S
C217 C213 1.495 . S
C217 H223 0.959 . S
C217 H224 0.961 . S
C217 H225 0.960 . S
C218 C216 1.381 . S
C218 C219 1.394 . S
C218 H226 0.930 . S
C219 C218 1.394 . S
C219 C220 1.383 . S
C219 H227 0.929 . S
C220 C219 1.383 . S
C220 C221 1.377 . S
C221 H205 0.930 . S
C221 C220 1.377 . S
C221 C222 1.379 . S
C222 H206 0.931 . S
C222 C216 1.383 . S
C222 C221 1.379 . S
H223 C217 0.959 . S
H224 C217 0.961 . S
H225 C217 0.960 . S
H226 C218 0.930 . S
H227 C219 0.929 . S
H228 C236 0.929 . S
H229 C238 0.930 . S
H230 C240 0.928 1_545 S
H231 C243 0.929 . S
H232 C246 0.930 . S
H233 C248 0.960 . S
H234 C248 0.960 . S
H235 C248 0.960 . S
C236 H228 0.929 . S
C236 C237 1.377 . S
C236 C238 1.384 . S
C237 C236 1.377 . S
C237 C243 1.390 1_565 S
C238 H229 0.930 . S
C238 C236 1.384 . S
C238 C239 1.372 . S
C239 C238 1.372 . S
C239 C240 1.400 . S
C239 C244 1.490 . S
C240 H230 0.928 1_565 S
C240 C239 1.400 . S
C240 C243 1.387 1_565 S
H241 C257 0.930 . S
H242 C258 0.931 . S
C243 H231 0.929 . S
C243 C237 1.390 1_545 S
C243 C240 1.387 1_545 S
C244 C239 1.490 . S
C244 C246 1.395 . S
C244 C247 1.403 . S
H245 C251 0.930 1_545 S
C246 H232 0.930 . S
C246 C244 1.395 . S
C246 C249 1.403 . S
C247 C244 1.403 . S
C247 C248 1.524 1_565 S
C247 C251 1.400 . S
C248 H233 0.960 . S
C248 H234 0.960 . S
C248 H235 0.960 . S
C248 C247 1.524 1_545 S
C249 C246 1.403 . S
C249 C250 1.393 1_556 S
C249 C253 1.495 1_556 S
C250 C249 1.393 1_554 S
C250 C251 1.385 1_554 S
C250 C252 1.477 . S
C251 H245 0.930 1_565 S
C251 C247 1.400 . S
C251 C250 1.385 1_556 S
C252 C250 1.477 . S
C252 C254 1.381 . S
C252 C258 1.383 . S
C253 C249 1.495 1_554 S
C253 H259 0.959 1_554 S
C253 H260 0.961 . S
C253 H261 0.960 . S
C254 C252 1.381 . S
C254 C255 1.394 . S
C254 H262 0.946 . S
C255 C254 1.394 . S
C255 C256 1.383 . S
C255 H263 0.929 . S
C256 C255 1.383 . S
C256 C257 1.377 . S
C257 H241 0.930 . S
C257 C256 1.377 . S
C257 C258 1.379 . S
C258 H242 0.931 . S
C258 C252 1.383 . S
C258 C257 1.379 . S
H259 C253 0.959 1_556 S
H260 C253 0.961 . S
H261 C253 0.960 . S
H262 C254 0.946 . S
H263 C255 0.929 . S
H264 C272 0.929 . S
H265 C274 0.930 . S
H266 C276 0.930 . S
H267 C279 0.929 . S
H268 C282 0.930 . S
H269 C284 0.960 . S
H270 C284 0.960 . S
H271 C284 0.960 . S
C272 H264 0.929 . S
C272 C273 1.377 . S
C272 C274 1.384 . S
C273 C272 1.377 . S
C273 C279 1.390 . S
C274 H265 0.930 . S
C274 C272 1.384 . S
C274 C275 1.372 . S
C275 C274 1.372 . S
C275 C276 1.400 . S
C275 C280 1.490 . S
C276 H266 0.930 . S
C276 C275 1.400 . S
C276 C279 1.386 . S
H277 C293 0.930 . S
H278 C294 0.931 . S
C279 H267 0.929 . S
C279 C273 1.390 . S
C279 C276 1.386 . S
C280 C275 1.490 . S
C280 C282 1.395 . S
C280 C283 1.403 . S
H281 C287 0.930 . S
C282 H268 0.930 . S
C282 C280 1.395 . S
C282 C285 1.403 . S
C283 C280 1.403 . S
C283 C284 1.524 . S
C283 C287 1.400 . S
C284 H269 0.960 . S
C284 H270 0.960 . S
C284 H271 0.960 . S
C284 C283 1.524 . S
C285 C282 1.403 . S
C285 C286 1.392 . S
C285 C289 1.495 . S
C286 C285 1.392 . S
C286 C287 1.385 . S
C286 C288 1.478 . S
C287 H281 0.930 . S
C287 C283 1.400 . S
C287 C286 1.385 . S
C288 C286 1.478 . S
C288 C290 1.381 . S
C288 C294 1.383 . S
C289 C285 1.495 . S
C289 H295 0.959 . S
C289 H296 0.961 . S
C289 H297 0.960 . S
C290 C288 1.381 . S
C290 C291 1.394 . S
C290 H298 0.930 . S
C291 C290 1.394 . S
C291 C292 1.383 . S
C291 H299 0.929 . S
C292 C291 1.383 . S
C292 C293 1.377 . S
C293 H277 0.930 . S
C293 C292 1.377 . S
C293 C294 1.379 . S
C294 H278 0.931 . S
C294 C288 1.383 . S
C294 C293 1.379 . S
H295 C289 0.959 . S
H296 C289 0.961 . S
H297 C289 0.960 . S
H298 C290 0.930 . S
H299 C291 0.929 . S
H300 C308 0.929 . S
H301 C310 0.926 1_545 S
H302 C312 0.930 . S
H303 C315 0.929 . S
H304 C318 0.930 1_545 S
H305 C320 0.960 . S
H306 C320 0.960 . S
H307 C320 0.960 . S
C308 H300 0.929 . S
C308 C309 1.377 . S
C308 C310 1.384 . S
C309 C308 1.377 . S
C309 C315 1.390 . S
C310 H301 0.926 1_565 S
C310 C308 1.384 . S
C310 C311 1.372 . S
C311 C310 1.372 . S
C311 C312 1.400 . S
C311 C316 1.490 . S
C312 H302 0.930 . S
C312 C311 1.400 . S
C312 C315 1.386 . S
H313 C329 0.930 . S
H314 C330 0.931 . S
C315 H303 0.929 . S
C315 C309 1.390 . S
C315 C312 1.386 . S
C316 C311 1.490 . S
C316 C318 1.395 . S
C316 C319 1.403 . S
H317 C323 0.930 . S
C318 H304 0.930 1_565 S
C318 C316 1.395 . S
C318 C321 1.403 . S
C319 C316 1.403 . S
C319 C320 1.524 . S
C319 C323 1.400 . S
C320 H305 0.960 . S
C320 H306 0.960 . S
C320 H307 0.960 . S
C320 C319 1.524 . S
C321 C318 1.403 . S
C321 C322 1.392 . S
C321 C325 1.495 1_565 S
C322 C321 1.392 . S
C322 C323 1.385 . S
C322 C324 1.478 . S
C323 H317 0.930 . S
C323 C319 1.400 . S
C323 C322 1.385 . S
C324 C322 1.478 . S
C324 C326 1.381 . S
C324 C330 1.383 . S
C325 C321 1.495 1_545 S
C325 H331 0.959 . S
C325 H332 0.961 . S
C325 H333 0.960 . S
C326 C324 1.381 . S
C326 C327 1.394 . S
C326 H334 0.930 1_565 S
C327 C326 1.394 . S
C327 C328 1.383 . S
C327 H335 0.929 1_565 S
C328 C327 1.383 . S
C328 C329 1.377 . S
C329 H313 0.930 . S
C329 C328 1.377 . S
C329 C330 1.379 . S
C330 H314 0.931 . S
C330 C324 1.383 . S
C330 C329 1.379 . S
H331 C325 0.959 . S
H332 C325 0.961 . S
H333 C325 0.960 . S
H334 C326 0.930 1_545 S
H335 C327 0.929 1_545 S
H336 C344 0.929 . S
H337 C346 0.930 . S
H338 C348 0.930 . S
H339 C351 0.929 . S
H340 C354 0.930 . S
H341 C356 0.960 . S
H342 C356 0.960 . S
H343 C356 0.960 . S
C344 H336 0.929 . S
C344 C345 1.377 . S
C344 C346 1.384 . S
C345 C344 1.377 . S
C345 C351 1.390 . S
C346 H337 0.930 . S
C346 C344 1.384 . S
C346 C347 1.372 . S
C347 C346 1.372 . S
C347 C348 1.400 . S
C347 C352 1.490 . S
C348 H338 0.930 . S
C348 C347 1.400 . S
C348 C351 1.386 . S
H349 C365 0.930 . S
H350 C366 0.931 . S
C351 H339 0.929 . S
C351 C345 1.390 . S
C351 C348 1.386 . S
C352 C347 1.490 . S
C352 C354 1.395 . S
C352 C355 1.403 . S
H353 C359 0.930 . S
C354 H340 0.930 . S
C354 C352 1.395 . S
C354 C357 1.403 1_556 S
C355 C352 1.403 . S
C355 C356 1.524 . S
C355 C359 1.400 1_556 S
C356 H341 0.960 . S
C356 H342 0.960 . S
C356 H343 0.960 . S
C356 C355 1.524 . S
C357 C354 1.403 1_554 S
C357 C358 1.392 . S
C357 C361 1.495 . S
C358 C357 1.392 . S
C358 C359 1.385 . S
C358 C360 1.478 . S
C359 H353 0.930 . S
C359 C355 1.400 1_554 S
C359 C358 1.385 . S
C360 C358 1.478 . S
C360 C362 1.381 . S
C360 C366 1.383 . S
C361 C357 1.495 . S
C361 H367 0.959 . S
C361 H368 0.961 . S
C361 H369 0.960 . S
C362 C360 1.381 . S
C362 C363 1.394 . S
C362 H370 0.930 . S
C363 C362 1.394 . S
C363 C364 1.383 . S
C363 H371 0.929 . S
C364 C363 1.383 . S
C364 C365 1.377 . S
C365 H349 0.930 . S
C365 C364 1.377 . S
C365 C366 1.379 . S
C366 H350 0.931 . S
C366 C360 1.383 . S
C366 C365 1.379 . S
H367 C361 0.959 . S
H368 C361 0.961 . S
H369 C361 0.960 . S
H370 C362 0.930 . S
H371 C363 0.929 . S
H372 C380 0.929 . S
H373 C382 0.930 . S
H374 C384 0.930 . S
H375 C387 0.929 . S
H376 C390 0.930 . S
H377 C392 0.960 . S
H378 C392 0.960 . S
H379 C392 0.960 . S
C380 H372 0.929 . S
C380 C381 1.377 . S
C380 C382 1.384 . S
C381 C380 1.377 . S
C381 C387 1.390 . S
C382 H373 0.930 . S
C382 C380 1.384 . S
C382 C383 1.372 . S
C383 C382 1.372 . S
C383 C384 1.400 . S
C383 C388 1.490 . S
C384 H374 0.930 . S
C384 C383 1.400 . S
C384 C387 1.386 . S
H385 C401 0.930 . S
H386 C402 0.931 . S
C387 H375 0.929 . S
C387 C381 1.390 . S
C387 C384 1.386 . S
C388 C383 1.490 . S
C388 C390 1.395 . S
C388 C391 1.403 . S
H389 C395 0.930 . S
C390 H376 0.930 . S
C390 C388 1.395 . S
C390 C393 1.403 . S
C391 C388 1.403 . S
C391 C392 1.524 . S
C391 C395 1.400 . S
C392 H377 0.960 . S
C392 H378 0.960 . S
C392 H379 0.960 . S
C392 C391 1.524 . S
C393 C390 1.403 . S
C393 C394 1.392 . S
C393 C397 1.495 . S
C394 C393 1.392 . S
C394 C395 1.385 . S
C394 C396 1.478 . S
C395 H389 0.930 . S
C395 C391 1.400 . S
C395 C394 1.385 . S
C396 C394 1.478 . S
C396 C398 1.381 . S
C396 C402 1.383 . S
C397 C393 1.495 . S
C397 H403 0.959 . S
C397 H404 0.961 . S
C397 H405 0.960 . S
C398 C396 1.381 . S
C398 C399 1.394 . S
C398 H406 0.930 . S
C399 C398 1.394 . S
C399 C400 1.383 . S
C399 H407 0.929 . S
C400 C399 1.383 . S
C400 C401 1.377 . S
C401 H385 0.930 . S
C401 C400 1.377 . S
C401 C402 1.379 . S
C402 H386 0.931 . S
C402 C396 1.383 . S
C402 C401 1.379 . S
H403 C397 0.959 . S
H404 C397 0.961 . S
H405 C397 0.960 . S
H406 C398 0.930 . S
H407 C399 0.929 . S
H408 C416 0.929 . S
H409 C418 0.930 . S
H410 C420 0.930 . S
H411 C423 0.929 1_455 S
H412 C426 0.930 . S
H413 C428 0.960 . S
H414 C428 0.960 . S
H415 C428 0.960 . S
C416 H408 0.929 . S
C416 C417 1.377 . S
C416 C418 1.384 . S
C417 C416 1.377 . S
C417 C423 1.390 . S
C418 H409 0.930 . S
C418 C416 1.384 . S
C418 C419 1.372 . S
C419 C418 1.372 . S
C419 C420 1.400 . S
C419 C424 1.490 . S
C420 H410 0.930 . S
C420 C419 1.400 . S
C420 C423 1.386 . S
H421 C437 0.930 . S
H422 C438 0.931 . S
C423 H411 0.929 1_655 S
C423 C417 1.390 . S
C423 C420 1.386 . S
C424 C419 1.490 . S
C424 C426 1.395 . S
C424 C427 1.403 . S
H425 C431 0.930 1_455 S
C426 H412 0.930 . S
C426 C424 1.395 . S
C426 C429 1.403 . S
C427 C424 1.403 . S
C427 C428 1.524 1_655 S
C427 C431 1.400 . S
C428 H413 0.960 . S
C428 H414 0.960 . S
C428 H415 0.960 . S
C428 C427 1.524 1_455 S
C429 C426 1.403 . S
C429 C430 1.392 . S
C429 C433 1.495 . S
C430 C429 1.392 . S
C430 C431 1.385 . S
C430 C432 1.478 . S
C431 H425 0.930 1_655 S
C431 C427 1.400 . S
C431 C430 1.385 . S
C432 C430 1.478 . S
C432 C434 1.381 . S
C432 C438 1.383 . S
C433 C429 1.495 . S
C433 H439 0.959 . S
C433 H440 0.961 . S
C433 H441 0.960 . S
C434 C432 1.381 . S
C434 C435 1.394 . S
C434 H442 0.930 . S
C435 C434 1.394 . S
C435 C436 1.383 . S
C435 H443 0.929 . S
C436 C435 1.383 . S
C436 C437 1.377 . S
C437 H421 0.930 . S
C437 C436 1.377 . S
C437 C438 1.379 . S
C438 H422 0.931 . S
C438 C432 1.383 . S
C438 C437 1.379 . S
H439 C433 0.959 . S
H440 C433 0.961 . S
H441 C433 0.960 . S
H442 C434 0.930 . S
H443 C435 0.929 . S
C129 C10 1.317 1_455 S
C148 C19 1.306 1_655 S
C165 C59 1.393 1_545 S
C184 C50 1.372 . S
C201 C90 1.167 1_545 S
C220 C99 1.136 . S
C237 C87 0.912 . S
C256 C16 0.885 . S
C273 C51 1.844 . S
C292 C7 1.817 . S
C309 C91 2.293 . S
C328 C42 2.274 . S
C345 C82 2.208 . S
C364 C11 2.175 . S
C381 C2 1.474 . S
C400 C56 1.435 . S
C417 C96 0.900 . S
C436 C47 0.890 . S
