# Generated by pormake.
# Topology mon, (4)-cn, num edge types: 1
# Building blocks:
#     Node 0, Type 0, BuildingBlock: AZAVOO_clean_sbu_0, # of connection points: 4
#     Node 1, Type 0, BuildingBlock: AZAVOO_clean_sbu_0, # of connection points: 4
#     Node 2, Type 0, BuildingBlock: AZAVOO_clean_sbu_0, # of connection points: 4
#     Node 3, Type 0, BuildingBlock: AZAVOO_clean_sbu_0, # of connection points: 4
#     Node 4, Type 0, BuildingBlock: AZAVOO_clean_sbu_0, # of connection points: 4
#     Node 5, Type 0, BuildingBlock: AZAVOO_clean_sbu_0, # of connection points: 4
#     Node 6, Type 0, BuildingBlock: AZAVOO_clean_sbu_0, # of connection points: 4
#     Node 7, Type 0, BuildingBlock: AZAVOO_clean_sbu_0, # of connection points: 4
#     Node 8, Type 0, BuildingBlock: AZAVOO_clean_sbu_0, # of connection points: 4
#     Node 9, Type 0, BuildingBlock: AZAVOO_clean_sbu_0, # of connection points: 4
#     Node 10, Type 0, BuildingBlock: AZAVOO_clean_sbu_0, # of connection points: 4
#     Node 11, Type 0, BuildingBlock: AZAVOO_clean_sbu_0, # of connection points: 4
#     Node 12, Type 0, BuildingBlock: AZAVOO_clean_sbu_0, # of connection points: 4
#     Node 13, Type 0, BuildingBlock: AZAVOO_clean_sbu_0, # of connection points: 4
#     Node 14, Type 0, BuildingBlock: AZAVOO_clean_sbu_0, # of connection points: 4
#     Node 15, Type 0, BuildingBlock: AZAVOO_clean_sbu_0, # of connection points: 4
#     Edge 16, Type (0, 0), BuildingBlock: AJUNOK_clean_linker_0, # of connection points: 2
#     Edge 17, Type (0, 0), BuildingBlock: AJUNOK_clean_linker_0, # of connection points: 2
#     Edge 18, Type (0, 0), BuildingBlock: AJUNOK_clean_linker_0, # of connection points: 2
#     Edge 19, Type (0, 0), BuildingBlock: AJUNOK_clean_linker_0, # of connection points: 2
#     Edge 20, Type (0, 0), BuildingBlock: AJUNOK_clean_linker_0, # of connection points: 2
#     Edge 21, Type (0, 0), BuildingBlock: AJUNOK_clean_linker_0, # of connection points: 2
#     Edge 22, Type (0, 0), BuildingBlock: AJUNOK_clean_linker_0, # of connection points: 2
#     Edge 23, Type (0, 0), BuildingBlock: AJUNOK_clean_linker_0, # of connection points: 2
#     Edge 24, Type (0, 0), BuildingBlock: AJUNOK_clean_linker_0, # of connection points: 2
#     Edge 25, Type (0, 0), BuildingBlock: AJUNOK_clean_linker_0, # of connection points: 2
#     Edge 26, Type (0, 0), BuildingBlock: AJUNOK_clean_linker_0, # of connection points: 2
#     Edge 27, Type (0, 0), BuildingBlock: AJUNOK_clean_linker_0, # of connection points: 2
#     Edge 28, Type (0, 0), BuildingBlock: AJUNOK_clean_linker_0, # of connection points: 2
#     Edge 29, Type (0, 0), BuildingBlock: AJUNOK_clean_linker_0, # of connection points: 2
#     Edge 30, Type (0, 0), BuildingBlock: AJUNOK_clean_linker_0, # of connection points: 2
#     Edge 31, Type (0, 0), BuildingBlock: AJUNOK_clean_linker_0, # of connection points: 2
#     Edge 32, Type (0, 0), BuildingBlock: AJUNOK_clean_linker_0, # of connection points: 2
#     Edge 33, Type (0, 0), BuildingBlock: AJUNOK_clean_linker_0, # of connection points: 2
#     Edge 34, Type (0, 0), BuildingBlock: AJUNOK_clean_linker_0, # of connection points: 2
#     Edge 35, Type (0, 0), BuildingBlock: AJUNOK_clean_linker_0, # of connection points: 2
#     Edge 36, Type (0, 0), BuildingBlock: AJUNOK_clean_linker_0, # of connection points: 2
#     Edge 37, Type (0, 0), BuildingBlock: AJUNOK_clean_linker_0, # of connection points: 2
#     Edge 38, Type (0, 0), BuildingBlock: AJUNOK_clean_linker_0, # of connection points: 2
#     Edge 39, Type (0, 0), BuildingBlock: AJUNOK_clean_linker_0, # of connection points: 2
#     Edge 40, Type (0, 0), BuildingBlock: AJUNOK_clean_linker_0, # of connection points: 2
#     Edge 41, Type (0, 0), BuildingBlock: AJUNOK_clean_linker_0, # of connection points: 2
#     Edge 42, Type (0, 0), BuildingBlock: AJUNOK_clean_linker_0, # of connection points: 2
#     Edge 43, Type (0, 0), BuildingBlock: AJUNOK_clean_linker_0, # of connection points: 2
#     Edge 44, Type (0, 0), BuildingBlock: AJUNOK_clean_linker_0, # of connection points: 2
#     Edge 45, Type (0, 0), BuildingBlock: AJUNOK_clean_linker_0, # of connection points: 2
#     Edge 46, Type (0, 0), BuildingBlock: AJUNOK_clean_linker_0, # of connection points: 2
#     Edge 47, Type (0, 0), BuildingBlock: AJUNOK_clean_linker_0, # of connection points: 2
# Relax obj value: 0.179
# Max RMSD: 0.147
# Mean RMSD: 0.147
data_MOF--net-mon--node1-AZAVOO_clean_sbu_0--edge1-AJUNOK_clean_linker_0
_symmetry_space_group_name_H-M    P1
_symmetry_Int_Tables_number       1
_symmetry_cell_setting            triclinic
loop_
_symmetry_equiv_pos_as_xyz
'x, y, z'
_cell_length_a     25.303927
_cell_length_b     25.302782
_cell_length_c     62.746398
_cell_angle_alpha  89.96812
_cell_angle_beta   89.949365
_cell_angle_gamma 89.947145
loop_
_atom_site_label
_atom_site_type_symbol
_atom_site_fract_x
_atom_site_fract_y
_atom_site_fract_z
_atom_type_partial_charge
Mg0 Mg 0.0572 0.02065 0.56603 0.0
O1 O 0.12858 -0.01075 0.5841 0.0
O2 O 0.20034 0.03252 0.57313 0.0
Mg3 Mg 0.17476 0.09004 0.54696 0.0
C4 C 0.17811 -0.00191 0.58496 0.0
C5 C 0.96691 0.94919 0.58181 0.0
O6 O 0.96336 0.94422 0.56101 0.0
O7 O 0.05738 0.09672 0.58535 0.0
O8 O 0.12639 0.13875 0.57099 0.0
O9 O 0.07046 0.9617 0.54039 0.0
O10 O 0.10405 0.04221 0.54013 0.0
C11 C 0.08684 0.13748 0.58369 0.0
C12 C 0.09919 -0.00298 0.53096 0.0
O13 O 0.00247 0.97918 0.58942 0.0
Mg14 Mg 0.25667 0.74746 0.81969 0.0
O15 O 0.29083 0.8204 0.83587 0.0
O16 O 0.24829 0.89159 0.8238 0.0
Mg17 Mg 0.18892 0.86421 0.79871 0.0
C18 C 0.28295 0.87017 0.83576 0.0
C19 C 0.32795 0.6584 0.83609 0.0
O20 O 0.33102 0.65315 0.81529 0.0
O21 O 0.18169 0.75208 0.83973 0.0
O22 O 0.14071 0.82026 0.82418 0.0
O23 O 0.31404 0.75563 0.79306 0.0
O24 O 0.23447 0.79133 0.79303 0.0
C25 C 0.14173 0.78263 0.83779 0.0
C26 C 0.27861 0.78364 0.78334 0.0
O27 O 0.29879 0.69476 0.84368 0.0
Mg28 Mg 0.54711 0.95503 0.06789 0.0
O29 O 0.47457 0.98735 0.08519 0.0
O30 O 0.40422 0.94153 0.07442 0.0
Mg31 Mg 0.43131 0.88199 0.04934 0.0
C32 C 0.42517 0.97748 0.08586 0.0
C33 C 0.64949 0.98703 0.09168 0.0
O34 O 0.66582 0.94437 0.08172 0.0
O35 O 0.54772 0.88097 0.08858 0.0
O36 O 0.47984 0.83691 0.07437 0.0
O37 O 0.53419 0.01095 0.04117 0.0
O38 O 0.50138 0.93021 0.04217 0.0
C39 C 0.51878 0.83974 0.0873 0.0
C40 C 0.50635 0.97431 0.03217 0.0
O41 O 0.60128 0.00055 0.09011 0.0
Mg42 Mg 0.33176 0.23748 0.31734 0.0
O43 O 0.30241 0.1625 0.3334 0.0
O44 O 0.34814 0.09371 0.32099 0.0
Mg45 Mg 0.40591 0.12535 0.29606 0.0
C46 C 0.31269 0.11319 0.33313 0.0
C47 C 0.2606 0.32519 0.3346 0.0
O48 O 0.26014 0.33404 0.31397 0.0
O49 O 0.40623 0.23687 0.33737 0.0
O50 O 0.45101 0.17101 0.32197 0.0
O51 O 0.27425 0.22636 0.29114 0.0
O52 O 0.35595 0.19541 0.29055 0.0
C53 C 0.44766 0.20845 0.33559 0.0
C54 C 0.31081 0.20008 0.2813 0.0
O55 O 0.28775 0.28679 0.34169 0.0
Mg56 Mg 0.06126 0.95855 0.40499 0.0
O57 O 0.13485 -0.01042 0.38845 0.0
O58 O 0.20453 0.94209 0.39879 0.0
Mg59 Mg 0.17492 0.88158 0.42307 0.0
C60 C 0.18407 0.97909 0.38772 0.0
C61 C 0.97477 0.03516 0.39015 0.0
O62 O 0.96964 0.03664 0.41097 0.0
O63 O 0.0597 0.88649 0.3836 0.0
O64 O 0.1267 0.83953 0.39706 0.0
O65 O 0.07496 0.01265 0.43214 0.0
O66 O 0.10547 0.9309 0.43072 0.0
C67 C 0.08813 0.84483 0.38407 0.0
C68 C 0.10143 0.97471 0.441 0.0
O69 O 0.0101 0.00549 0.38213 0.0
Mg70 Mg 0.32158 0.73984 0.65709 0.0
O71 O 0.29213 0.81507 0.64103 0.0
O72 O 0.33943 0.88334 0.65286 0.0
Mg73 Mg 0.39828 0.85145 0.67729 0.0
C74 C 0.3031 0.86424 0.6411 0.0
C75 C 0.28468 0.64225 0.63061 0.0
O76 O 0.32761 0.62216 0.63918 0.0
O77 O 0.39515 0.73894 0.63617 0.0
O78 O 0.44099 0.80488 0.65096 0.0
O79 O 0.2659 0.75249 0.68381 0.0
O80 O 0.34806 0.78213 0.68357 0.0
C81 C 0.43677 0.76728 0.63745 0.0
C82 C 0.30325 0.77852 0.69319 0.0
O83 O 0.2736 0.69052 0.63391 0.0
Mg84 Mg 0.54202 0.01825 0.90626 0.0
O85 O 0.4677 0.98789 0.88978 0.0
O86 O 0.3988 0.03427 0.90178 0.0
Mg87 Mg 0.42899 0.09262 0.92672 0.0
C88 C 0.4184 -0.00154 0.88986 0.0
C89 C 0.64315 0.98238 0.88321 0.0
O90 O 0.66109 0.01991 0.89571 0.0
O91 O 0.54201 0.09277 0.88594 0.0
O92 O 0.47567 0.13759 0.90102 0.0
O93 O 0.53019 0.9613 0.93262 0.0
O94 O 0.49873 0.0428 0.93274 0.0
C95 C 0.51356 0.13428 0.88757 0.0
C96 C 0.50331 -0.00215 0.94218 0.0
O97 O 0.5938 0.9731 0.88296 0.0
Mg98 Mg 0.27024 0.236 0.15438 0.0
O99 O 0.30304 0.16116 0.13902 0.0
O100 O 0.25717 0.09212 0.15108 0.0
Mg101 Mg 0.19653 0.1227 0.17509 0.0
C102 C 0.29346 0.1117 0.13939 0.0
C103 C 0.30704 0.33488 0.12878 0.0
O104 O 0.26478 0.35463 0.138 0.0
O105 O 0.19709 0.23376 0.13319 0.0
O106 O 0.1528 0.16752 0.1486 0.0
O107 O 0.32494 0.22659 0.18169 0.0
O108 O 0.2441 0.19392 0.18093 0.0
C109 C 0.15603 0.20465 0.13482 0.0
C110 C 0.28785 0.20003 0.19105 0.0
O111 O 0.31764 0.28618 0.13124 0.0
Mg112 Mg 0.83464 0.23502 0.15306 0.0
O113 O 0.79918 0.30671 0.13631 0.0
O114 O 0.84087 0.37906 0.14764 0.0
Mg115 Mg 0.90184 0.35344 0.17242 0.0
C116 C 0.80599 0.35661 0.13611 0.0
C117 C 0.79696 0.13076 0.13283 0.0
O118 O 0.83092 0.11356 0.14706 0.0
O119 O 0.90872 0.23876 0.13243 0.0
O120 O 0.94913 0.30862 0.14687 0.0
O121 O 0.77758 0.24451 0.17949 0.0
O122 O 0.85708 0.28072 0.17922 0.0
C123 C 0.94813 0.27015 0.13367 0.0
C124 C 0.81251 0.27395 0.18875 0.0
O125 O 0.79122 0.18029 0.13037 0.0
Mg126 Mg 0.75878 0.73277 0.65141 0.0
O127 O 0.79174 0.65917 0.63528 0.0
O128 O 0.7491 0.58859 0.64784 0.0
Mg129 Mg 0.69013 0.6172 0.6729 0.0
C130 C 0.78362 0.60946 0.63565 0.0
C131 C 0.82819 0.82244 0.6357 0.0
O132 O 0.82597 0.82896 0.65644 0.0
O133 O 0.6835 0.72907 0.63155 0.0
O134 O 0.64246 0.66123 0.6473 0.0
O135 O 0.81669 0.72384 0.67767 0.0
O136 O 0.73647 0.68956 0.6783 0.0
C137 C 0.6435 0.69868 0.63362 0.0
C138 C 0.7813 0.69622 0.68757 0.0
O139 O 0.802 0.78474 0.62746 0.0
Mg140 Mg 0.76619 0.24384 0.31537 0.0
O141 O 0.79914 0.31813 0.33039 0.0
O142 O 0.7561 0.38889 0.31831 0.0
Mg143 Mg 0.69528 0.35841 0.29434 0.0
C144 C 0.79161 0.36785 0.32997 0.0
C145 C 0.84213 0.15981 0.33321 0.0
O146 O 0.84647 0.15223 0.31257 0.0
O147 O 0.69321 0.24821 0.33623 0.0
O148 O 0.65011 0.31561 0.32109 0.0
O149 O 0.82209 0.2519 0.28839 0.0
O150 O 0.74155 0.28571 0.28853 0.0
C151 C 0.65301 0.27852 0.3349 0.0
C152 C 0.7857 0.27878 0.27872 0.0
O153 O 0.81059 0.1952 0.33989 0.0
Mg154 Mg 0.82091 0.74001 0.81402 0.0
O155 O 0.79017 0.66532 0.83026 0.0
O156 O 0.83823 0.59699 0.81884 0.0
Mg157 Mg 0.89796 0.62762 0.79451 0.0
C158 C 0.80138 0.61615 0.83037 0.0
C159 C 0.78597 0.83988 0.83847 0.0
O160 O 0.82764 0.85742 0.82817 0.0
O161 O 0.89381 0.74068 0.83525 0.0
O162 O 0.94029 0.67468 0.82074 0.0
O163 O 0.76642 0.72771 0.78681 0.0
O164 O 0.848 0.69686 0.78796 0.0
C165 C 0.93561 0.71249 0.83413 0.0
C166 C 0.80417 0.70137 0.77776 0.0
O167 O 0.77358 0.79141 0.83676 0.0
Mg168 Mg 0.55456 0.52092 0.06519 0.0
O169 O 0.62588 0.48442 0.08159 0.0
O170 O 0.69869 0.52637 0.07099 0.0
Mg171 Mg 0.67326 0.58925 0.04686 0.0
C172 C 0.67578 0.49078 0.08204 0.0
C173 C 0.45103 0.47804 0.08515 0.0
O174 O 0.43163 0.51105 0.07099 0.0
O175 O 0.55803 0.59343 0.08662 0.0
O176 O 0.62802 0.63502 0.0728 0.0
O177 O 0.56453 0.4657 0.03826 0.0
O178 O 0.60033 0.5454 0.03924 0.0
C179 C 0.58928 0.63303 0.08588 0.0
C180 C 0.59382 0.50133 0.02932 0.0
O181 O 0.50078 0.47547 0.08763 0.0
Mg182 Mg 0.03975 0.46027 0.56359 0.0
O183 O 0.96608 0.49005 0.58075 0.0
O184 O 0.89656 0.44392 0.56933 0.0
Mg185 Mg 0.92575 0.38576 0.54413 0.0
C186 C 0.9168 0.47959 0.58112 0.0
C187 C 0.14159 0.50261 0.58479 0.0
O188 O 0.1616 0.46912 0.57097 0.0
O189 O 0.04137 0.38542 0.58375 0.0
O190 O 0.97389 0.34096 0.56937 0.0
O191 O 0.02602 0.5173 0.53736 0.0
O192 O -0.005 0.43578 0.53755 0.0
C193 C 0.01248 0.34416 0.58245 0.0
C194 C -0.0011 0.48064 0.52801 0.0
O195 O 0.09168 0.50606 0.58657 0.0
Mg196 Mg 0.55393 0.45601 0.9037 0.0
O197 O 0.62553 0.48939 0.88625 0.0
O198 O 0.69724 0.44579 0.89713 0.0
Mg199 Mg 0.67172 0.38644 0.92258 0.0
C200 C 0.67516 0.48082 0.88554 0.0
C201 C 0.4616 0.5251 0.88946 0.0
O202 O 0.45658 0.52339 0.91028 0.0
O203 O 0.55534 0.38118 0.88352 0.0
O204 O 0.62456 0.33916 0.89782 0.0
O205 O 0.56564 0.51303 0.93018 0.0
O206 O 0.60019 0.43296 0.92956 0.0
C207 C 0.58557 0.34082 0.88489 0.0
C208 C 0.59413 0.47715 0.93939 0.0
O209 O 0.49914 0.4993 0.88086 0.0
Mg210 Mg 0.03869 0.52879 0.40344 0.0
O211 O 0.96823 0.49527 0.3859 0.0
O212 O 0.89519 0.53823 0.3956 0.0
Mg213 Mg 0.92026 0.59923 0.42053 0.0
C214 C 0.91858 0.50266 0.38471 0.0
C215 C 0.12817 0.45568 0.38941 0.0
O216 O 0.13133 0.45418 0.41029 0.0
O217 O 0.03858 0.60176 0.38263 0.0
O218 O 0.96885 0.64523 0.3956 0.0
O219 O 0.0252 0.47211 0.42956 0.0
O220 O -0.00867 0.55276 0.42899 0.0
C221 C 0.00881 0.64242 0.38314 0.0
C222 C -0.00394 0.50787 0.43851 0.0
O223 O 0.09318 0.48487 0.38089 0.0
C224 C 0.10412 0.23163 0.59299 0.0
C225 C 0.06887 0.18855 0.59278 0.0
C226 C 0.08544 0.28376 0.59284 0.0
C227 C 0.03091 0.29435 0.59229 0.0
H228 H 0.14619 0.22517 0.59105 0.0
H229 H 0.11381 0.31533 0.59059 0.0
S230 S 0.92308 0.19657 0.59864 0.0
N231 N 0.97748 0.16059 0.59751 0.0
N232 N 0.94256 0.25869 0.5969 0.0
C233 C -0.00422 0.25214 0.59557 0.0
C234 C 0.01477 0.19904 0.59594 0.0
C235 C 0.02661 0.6943 0.84717 0.0
C236 C 0.98442 0.73021 0.84499 0.0
C237 C 0.07891 0.71209 0.84836 0.0
C238 C 0.09054 0.76636 0.8471 0.0
H239 H 0.01974 0.65221 0.84563 0.0
H240 H 0.11024 0.68296 0.8475 0.0
S241 S -0.00637 0.87625 0.8487 0.0
N242 N 0.95708 0.82232 0.84735 0.0
N243 N 0.05558 0.85568 0.84924 0.0
C244 C 0.04843 0.80247 0.84863 0.0
C245 C -0.00489 0.78436 0.84767 0.0
C246 C 0.51899 0.69462 0.09812 0.0
C247 C 0.5732 0.68314 0.09622 0.0
C248 C 0.50115 0.74702 0.0984 0.0
C249 C 0.53693 0.78949 0.09701 0.0
H250 H 0.48982 0.6635 0.09672 0.0
H251 H 0.45899 0.7541 0.09733 0.0
S252 S 0.68309 0.77959 0.09968 0.0
N253 N 0.66258 0.71769 0.09876 0.0
N254 N 0.62911 0.81631 0.09953 0.0
C255 C 0.59118 0.77833 0.09908 0.0
C256 C 0.60934 0.72493 0.09858 0.0
C257 C 0.5921 0.20808 0.3471 0.0
C258 C 0.60337 0.26236 0.34543 0.0
C259 C 0.53979 0.19018 0.34709 0.0
C260 C 0.49738 0.22604 0.34572 0.0
H261 H 0.62333 0.17899 0.3456 0.0
H262 H 0.53278 0.14807 0.34571 0.0
S263 S 0.50685 0.37213 0.34916 0.0
N264 N 0.56879 0.35165 0.34829 0.0
N265 N 0.47023 0.31815 0.34869 0.0
C266 C 0.5083 0.28024 0.34818 0.0
C267 C 0.56159 0.29843 0.3479 0.0
C268 C 0.01353 0.78772 0.37299 0.0
C269 C 0.06837 0.79655 0.37355 0.0
C270 C -0.00665 0.73623 0.37291 0.0
C271 C 0.02744 0.69221 0.37319 0.0
H272 H 0.98609 0.82008 0.37539 0.0
H273 H 0.95118 0.73108 0.37506 0.0
S274 S 0.17314 0.69585 0.36622 0.0
N275 N 0.15551 0.7585 0.36825 0.0
N276 N 0.11779 0.66151 0.36764 0.0
C277 C 0.08168 0.70103 0.36955 0.0
C278 C 0.10218 0.75348 0.36989 0.0
C279 C 0.52773 0.78641 0.62455 0.0
C280 C 0.48585 0.75014 0.62658 0.0
C281 C 0.5802 0.76903 0.62328 0.0
C282 C 0.5923 0.71484 0.62431 0.0
H283 H 0.52047 0.82841 0.62626 0.0
H284 H 0.61128 0.79835 0.62428 0.0
S285 S 0.49643 0.60429 0.62228 0.0
N286 N 0.45936 0.6579 0.62385 0.0
N287 N 0.55819 0.62533 0.62181 0.0
C288 C 0.55053 0.67847 0.62263 0.0
C289 C 0.49704 0.69615 0.62368 0.0
C290 C 0.51349 0.27891 0.87516 0.0
C291 C 0.56793 0.29003 0.87566 0.0
C292 C 0.49534 0.22669 0.87609 0.0
C293 C 0.53101 0.18403 0.87728 0.0
H294 H 0.48475 0.31043 0.87672 0.0
H295 H 0.45333 0.22009 0.87813 0.0
S296 S 0.67675 0.19236 0.87155 0.0
N297 N 0.65669 0.25448 0.87191 0.0
N298 N 0.62265 0.15616 0.87334 0.0
C299 C 0.58502 0.1945 0.87397 0.0
C300 C 0.6035 0.24772 0.87326 0.0
C301 C 0.06461 0.18403 0.12296 0.0
C302 C 0.10613 0.2209 0.12435 0.0
C303 C 0.0118 0.20064 0.12257 0.0
C304 C -0.00101 0.25465 0.1238 0.0
H305 H 0.07263 0.14214 0.12458 0.0
H306 H 0.98128 0.17085 0.12404 0.0
S307 S 0.09301 0.36659 0.12022 0.0
N308 N 0.13096 0.31352 0.12121 0.0
N309 N 0.03157 0.34466 0.12074 0.0
C310 C 0.04005 0.29163 0.12146 0.0
C311 C 0.09386 0.27473 0.12163 0.0
C312 C 0.12066 0.02887 0.47314 0.0
C313 C 0.11768 0.97879 0.46355 0.0
C314 C 0.1206 0.03424 0.49534 0.0
C315 C 0.11647 -0.0103 0.50867 0.0
H316 H 0.11937 0.06434 0.46347 0.0
H317 H 0.11901 0.07376 0.50195 0.0
S318 S 0.11926 0.84953 0.4916 0.0
N319 N 0.11998 0.88352 0.46913 0.0
N320 N 0.11846 0.89387 0.5109 0.0
C321 C 0.11925 0.93934 0.49936 0.0
C322 C 0.12027 0.9338 0.47674 0.0
C323 C 0.33574 0.79459 0.75127 0.0
C324 C 0.28537 0.79802 0.76065 0.0
C325 C 0.34176 0.79376 0.72909 0.0
C326 C 0.29747 0.79534 0.71557 0.0
H327 H 0.37051 0.7891 0.7611 0.0
H328 H 0.38094 0.78734 0.72261 0.0
S329 S 0.15814 0.81512 0.73195 0.0
N330 N 0.19122 0.81176 0.75458 0.0
N331 N 0.2027 0.80882 0.71288 0.0
C332 C 0.24753 0.80402 0.72465 0.0
C333 C 0.24142 0.8058 0.74723 0.0
C334 C 0.48905 0.03035 0.00029 0.0
C335 C 0.48914 0.98 0.00978 0.0
C336 C 0.48779 0.03609 0.9781 0.0
C337 C 0.48757 -0.00842 0.96468 0.0
H338 H 0.49359 0.06548 0.00998 0.0
H339 H 0.49174 0.07546 0.9715 0.0
S340 S 0.47607 0.8517 0.98154 0.0
N341 N 0.47959 0.88523 0.00407 0.0
N342 N 0.47855 0.89622 0.96233 0.0
C343 C 0.48199 0.94141 0.97395 0.0
C344 C 0.48236 0.93554 -0.00345 0.0
C345 C 0.34325 0.18417 0.2232 0.0
C346 C 0.29299 0.1847 0.21368 0.0
C347 C 0.3488 0.18362 0.24538 0.0
C348 C 0.30422 0.18463 0.25879 0.0
H349 H 0.37853 0.18749 0.21349 0.0
H350 H 0.38822 0.18689 0.25197 0.0
S351 S 0.16422 0.17569 0.2419 0.0
N352 N 0.19799 0.17763 0.21938 0.0
N353 N 0.20865 0.17788 0.26113 0.0
C354 C 0.25398 0.17993 0.24953 0.0
C355 C 0.2483 0.17958 0.22692 0.0
C356 C 0.84909 0.29255 0.22468 0.0
C357 C 0.80509 0.29088 0.21102 0.0
C358 C 0.84256 0.29315 0.24684 0.0
C359 C 0.79188 0.29319 0.25604 0.0
H360 H 0.88876 0.28879 0.21834 0.0
H361 H 0.87741 0.2902 0.25679 0.0
S362 S 0.66438 0.30086 0.22692 0.0
N363 N 0.70965 0.29755 0.208 0.0
N364 N 0.69714 0.30014 0.24966 0.0
C365 C 0.74778 0.29773 0.24248 0.0
C366 C 0.75446 0.29612 0.21992 0.0
C367 C 0.74383 0.68003 0.72359 0.0
C368 C 0.78836 0.68181 0.71017 0.0
C369 C 0.74934 0.68193 0.74578 0.0
C370 C 0.79955 0.68459 0.75528 0.0
H371 H 0.70433 0.68172 0.71698 0.0
H372 H 0.71396 0.68465 0.75545 0.0
S373 S 0.92857 0.67838 0.72712 0.0
N374 N 0.88411 0.6781 0.70788 0.0
N375 N 0.89474 0.68034 0.74962 0.0
C376 C 0.8444 0.68021 0.74208 0.0
C377 C 0.83872 0.67921 0.71947 0.0
C378 C 0.60922 0.53384 0.97126 0.0
C379 C 0.61054 0.48342 0.96186 0.0
C380 C 0.60968 0.53976 -0.00655 0.0
C381 C 0.61042 0.49535 0.00693 0.0
H382 H 0.6042 0.5688 0.96149 0.0
H383 H 0.60464 0.57906 0.0 0.0
S384 S 0.6252 0.3556 -0.00959 0.0
N385 N 0.62183 0.38887 0.9678 0.0
N386 N 0.62114 0.40023 0.00953 0.0
C387 C 0.61724 0.44523 -0.00221 0.0
C388 C 0.61779 0.4392 0.9752 0.0
C389 C 0.98113 0.53834 0.49664 0.0
C390 C 0.98098 0.48754 0.50576 0.0
C391 C 0.97966 0.5451 0.4745 0.0
C392 C 0.97892 0.50118 0.46079 0.0
H393 H 0.98625 0.57299 0.50657 0.0
H394 H 0.9842 0.58467 0.46816 0.0
S395 S 0.96573 0.36074 0.47662 0.0
N396 N 0.96999 0.39318 0.49938 0.0
N397 N 0.96852 0.40612 0.45773 0.0
C398 C 0.97265 0.4507 0.46969 0.0
C399 C 0.9733 0.44379 0.49224 0.0
C400 C 0.22166 0.88439 0.62021 0.0
C401 C 0.27215 0.89994 0.62715 0.0
C402 C 0.19144 0.91678 0.60687 0.0
C403 C 0.21071 0.96579 0.59965 0.0
H404 H 0.20505 0.84692 0.6252 0.0
H405 H 0.15291 0.90276 0.60193 0.0
S406 S 0.34055 0.02508 0.61325 0.0
N407 N 0.34007 0.96793 0.62595 0.0
N408 N 0.28339 0.02868 0.60067 0.0
C409 C 0.26113 0.98197 0.60649 0.0
C410 C 0.29175 0.94916 0.6203 0.0
C411 C 0.36586 0.88544 0.85638 0.0
C412 C 0.31619 0.90393 0.84959 0.0
C413 C 0.39869 0.91652 0.86919 0.0
C414 C 0.38289 0.96709 0.87602 0.0
H415 H 0.37991 0.84677 0.85158 0.0
H416 H 0.43655 0.90041 0.87397 0.0
S417 S 0.25627 0.03381 0.86288 0.0
N418 N 0.25261 0.9761 0.85071 0.0
N419 N 0.31414 0.03438 0.875 0.0
C420 C 0.33316 0.98603 0.86947 0.0
C421 C 0.29992 0.95456 0.85619 0.0
C422 C 0.4081 0.06051 0.10628 0.0
C423 C 0.39103 0.01006 0.09987 0.0
C424 C 0.37618 0.09301 0.11895 0.0
C425 C 0.32615 0.07614 0.12601 0.0
H426 H 0.44618 0.07552 0.10122 0.0
H427 H 0.39113 0.1316 0.12335 0.0
S428 S 0.26335 0.94689 0.11409 0.0
N429 N 0.32097 0.94438 0.10178 0.0
N430 N 0.26112 0.00531 0.12576 0.0
C431 C 0.30877 0.02549 0.11994 0.0
C432 C 0.3411 -0.00744 0.10682 0.0
C433 C 0.20102 0.06261 0.36778 0.0
C434 C 0.21821 0.01191 0.37386 0.0
C435 C 0.23207 0.09496 0.35478 0.0
C436 C 0.28137 0.07777 0.34704 0.0
H437 H 0.16335 0.07782 0.37327 0.0
H438 H 0.21688 0.13365 0.35059 0.0
S439 S 0.3445 0.94808 0.3581 0.0
N440 N 0.28781 0.94581 0.37112 0.0
N441 N 0.34616 0.00659 0.34646 0.0
C442 C 0.29908 0.02703 0.35289 0.0
C443 C 0.26758 -0.00581 0.36637 0.0
C444 C 0.94217 0.06052 0.35395 0.0
C445 C 0.94003 0.06732 0.37619 0.0
C446 C 0.91013 0.09032 0.34029 0.0
C447 C 0.87465 0.12835 0.34826 0.0
H448 H 0.9688 0.03183 0.34693 0.0
H449 H 0.91351 0.08344 0.32331 0.0
S450 S 0.85399 0.16207 0.40529 0.0
N451 N 0.89949 0.11531 0.40561 0.0
N452 N 0.83938 0.17137 0.37994 0.0
C453 C 0.872 0.13565 0.37049 0.0
C454 C 0.90461 0.10515 0.38443 0.0
C455 C 0.67572 0.0762 0.10502 0.0
C456 C 0.68769 0.02223 0.10254 0.0
C457 C 0.71191 0.11114 0.11429 0.0
C458 C 0.76119 0.09337 0.12181 0.0
H459 H 0.63833 0.09191 0.09948 0.0
H460 H 0.70065 0.15227 0.11591 0.0
S461 S 0.81171 0.95574 0.11925 0.0
N462 N 0.75251 0.95264 0.10828 0.0
N463 N 0.8202 0.01816 0.1261 0.0
C464 C 0.77365 0.03945 0.11953 0.0
C465 C 0.73703 0.00395 0.10979 0.0
C466 C 0.69824 0.86261 0.85436 0.0
C467 C 0.751 0.87685 0.85021 0.0
C468 C 0.66346 0.89746 0.86457 0.0
C469 C 0.6802 0.94773 0.87136 0.0
H470 H 0.68331 0.8244 0.84944 0.0
H471 H 0.62331 0.88445 0.86745 0.0
S472 S 0.81453 0.00419 0.86448 0.0
N473 N 0.81837 0.94483 0.85367 0.0
N474 N 0.75317 0.01013 0.87312 0.0
C475 C 0.73292 0.96249 0.86739 0.0
C476 C 0.76824 0.92714 0.85675 0.0
C477 C 0.86325 0.85043 0.60008 0.0
C478 C 0.86253 0.85675 0.62235 0.0
C479 C 0.89663 0.8809 0.58717 0.0
C480 C 0.93093 0.91887 0.59596 0.0
H481 H 0.83808 0.82142 0.59248 0.0
H482 H 0.89584 0.87406 0.57013 0.0
S483 S 0.94351 0.95207 0.65338 0.0
N484 N 0.89853 0.90493 0.65265 0.0
N485 N 0.96123 0.96194 0.62839 0.0
C486 C 0.93023 0.9261 0.6182 0.0
C487 C 0.89607 0.89518 0.63137 0.0
C488 C 0.78998 0.43958 0.11542 0.0
C489 C 0.77212 0.38969 0.12222 0.0
C490 C 0.75878 0.47174 0.10229 0.0
C491 C 0.70812 0.45567 0.09574 0.0
H492 H 0.82863 0.4538 0.12009 0.0
H493 H 0.77435 0.50978 0.09747 0.0
S494 S 0.64254 0.32873 0.10939 0.0
N495 N 0.70034 0.32574 0.1215 0.0
N496 N 0.64151 0.3863 0.09702 0.0
C497 C 0.68962 0.40592 0.10252 0.0
C498 C 0.72167 0.3729 0.11567 0.0
C499 C 0.80765 0.4528 0.34936 0.0
C500 C 0.82503 0.40192 0.34359 0.0
C501 C 0.83797 0.48508 0.36274 0.0
C502 C 0.88719 0.46802 0.37058 0.0
H503 H 0.76994 0.46759 0.34377 0.0
H504 H 0.82286 0.52384 0.36684 0.0
S505 S 0.95104 0.33835 0.36001 0.0
N506 N 0.89498 0.33615 0.34664 0.0
N507 N 0.95195 0.39681 0.37164 0.0
C508 C 0.90528 0.4174 0.36478 0.0
C509 C 0.87422 0.38436 0.35135 0.0
C510 C 0.89833 0.56166 0.60188 0.0
C511 C 0.88203 0.51116 0.59522 0.0
C512 C 0.86602 0.59314 0.61479 0.0
C513 C 0.8164 0.57513 0.62184 0.0
H514 H 0.93614 0.57746 0.59687 0.0
H515 H 0.88041 0.63177 0.61943 0.0
S516 S 0.7555 0.44545 0.6092 0.0
N517 N 0.81303 0.44431 0.59677 0.0
N518 N 0.75246 0.50336 0.62124 0.0
C519 C 0.79972 0.5245 0.61547 0.0
C520 C 0.83243 0.49261 0.60209 0.0
C521 C 0.71991 0.59622 0.85142 0.0
C522 C 0.77017 0.58037 0.84422 0.0
C523 C 0.68937 0.56347 0.86451 0.0
C524 C 0.70808 0.51378 0.87121 0.0
H525 H 0.70371 0.63417 0.84679 0.0
H526 H 0.65101 0.57766 0.86965 0.0
S527 S 0.83706 0.45341 0.85682 0.0
N528 N 0.83724 0.51132 0.84469 0.0
N529 N 0.77994 0.44994 0.86946 0.0
C530 C 0.75828 0.49733 0.86416 0.0
C531 C 0.78923 0.53051 0.85061 0.0
C532 C 0.43063 0.55826 0.854 0.0
C533 C 0.42553 0.5581 0.87633 0.0
C534 C 0.39844 0.59025 0.84121 0.0
C535 C 0.35991 0.62372 0.85018 0.0
H536 H 0.46001 0.53372 0.84625 0.0
H537 H 0.40447 0.58912 0.82412 0.0
S538 S 0.32909 0.63697 0.9078 0.0
N539 N 0.37768 0.59347 0.90688 0.0
N540 N 0.31744 0.65367 0.88282 0.0
C541 C 0.35381 0.62353 0.87247 0.0
C542 C 0.38649 0.59072 0.88553 0.0
C543 C 0.23081 0.52609 0.5991 0.0
C544 C 0.17682 0.53839 0.59694 0.0
C545 C 0.26541 0.55996 0.60994 0.0
C546 C 0.24757 0.60792 0.61872 0.0
H547 H 0.24654 0.48982 0.59246 0.0
H548 H 0.30655 0.54858 0.61132 0.0
S549 S 0.10987 0.65887 0.61736 0.0
N550 N 0.10711 0.60201 0.60454 0.0
N551 N 0.17214 0.66589 0.62463 0.0
C552 C 0.1937 0.62089 0.61657 0.0
C553 C 0.15833 0.58605 0.6058 0.0
C554 C 0.16198 0.42787 0.35368 0.0
C555 C 0.16359 0.42283 0.376 0.0
C556 C 0.19388 0.39655 0.34053 0.0
C557 C 0.22858 0.35863 0.34912 0.0
H558 H 0.1357 0.45615 0.3462 0.0
H559 H 0.19077 0.40189 0.32345 0.0
S560 S 0.2487 0.33024 0.40663 0.0
N561 N 0.20355 0.37732 0.40618 0.0
N562 N 0.26336 0.31839 0.38145 0.0
C563 C 0.23101 0.3534 0.37143 0.0
C564 C 0.19861 0.3855 0.38486 0.0
C565 C 0.36146 0.45346 0.09885 0.0
C566 C 0.41549 0.44135 0.0967 0.0
C567 C 0.32664 0.41871 0.10915 0.0
C568 C 0.3443 0.37002 0.11732 0.0
H569 H 0.34592 0.49029 0.09265 0.0
H570 H 0.28548 0.42999 0.11059 0.0
S571 S 0.482 0.31912 0.11561 0.0
N572 N 0.48505 0.37708 0.1036 0.0
N573 N 0.41958 0.31149 0.12262 0.0
C574 C 0.3982 0.35719 0.11513 0.0
C575 C 0.4338 0.39295 0.10495 0.0
loop_
_geom_bond_atom_site_label_1
_geom_bond_atom_site_label_2
_geom_bond_distance
_geom_bond_site_symmetry_2
_ccdc_geom_bond_type
Mg0 O1 2.028 . S
Mg0 O7 1.986 . S
Mg0 O9 2.114 1_545 S
Mg0 O10 2.251 . S
Mg0 O13 2.010 . S
O1 Mg0 2.028 . S
O1 C4 1.250 . S
O2 Mg3 2.028 . S
O2 C4 1.248 . S
Mg3 O2 2.028 . S
Mg3 O8 2.032 . S
Mg3 O10 2.079 . S
C4 O1 1.250 . S
C4 O2 1.248 . S
C5 O6 1.264 . S
C5 O13 1.249 1_665 S
O6 C5 1.264 . S
O7 Mg0 1.986 . S
O7 C11 1.246 . S
O8 Mg3 2.032 . S
O8 C11 1.259 . S
O9 Mg0 2.114 1_565 S
O9 C12 1.252 1_565 S
O10 Mg0 2.251 . S
O10 Mg3 2.079 . S
O10 C12 1.273 . S
C11 O7 1.246 . S
C11 O8 1.259 . S
C12 O9 1.252 1_545 S
C12 O10 1.273 . S
O13 Mg0 2.010 . S
O13 C5 1.249 1_445 S
Mg14 O15 2.028 . S
Mg14 O21 1.986 . S
Mg14 O23 2.114 . S
Mg14 O24 2.251 . S
Mg14 O27 2.010 . S
O15 Mg14 2.028 . S
O15 C18 1.250 . S
O16 Mg17 2.028 . S
O16 C18 1.248 . S
Mg17 O16 2.028 . S
Mg17 O22 2.032 . S
Mg17 O24 2.079 . S
C18 O15 1.250 . S
C18 O16 1.248 . S
C19 O20 1.264 . S
C19 O27 1.249 . S
O20 C19 1.264 . S
O21 Mg14 1.986 . S
O21 C25 1.246 . S
O22 Mg17 2.032 . S
O22 C25 1.259 . S
O23 Mg14 2.114 . S
O23 C26 1.252 . S
O24 Mg14 2.251 . S
O24 Mg17 2.079 . S
O24 C26 1.273 . S
C25 O21 1.246 . S
C25 O22 1.259 . S
C26 O23 1.252 . S
C26 O24 1.273 . S
O27 Mg14 2.010 . S
O27 C19 1.249 . S
Mg28 O29 2.028 . S
Mg28 O35 1.986 . S
Mg28 O37 2.114 1_565 S
Mg28 O38 2.251 . S
Mg28 O41 2.010 . S
O29 Mg28 2.028 . S
O29 C32 1.250 . S
O30 Mg31 2.028 . S
O30 C32 1.248 . S
Mg31 O30 2.028 . S
Mg31 O36 2.032 . S
Mg31 O38 2.079 . S
C32 O29 1.250 . S
C32 O30 1.248 . S
C33 O34 1.264 . S
C33 O41 1.249 1_545 S
O34 C33 1.264 . S
O35 Mg28 1.986 . S
O35 C39 1.246 . S
O36 Mg31 2.032 . S
O36 C39 1.259 . S
O37 Mg28 2.114 1_545 S
O37 C40 1.252 1_545 S
O38 Mg28 2.251 . S
O38 Mg31 2.079 . S
O38 C40 1.273 . S
C39 O35 1.246 . S
C39 O36 1.259 . S
C40 O37 1.252 1_565 S
C40 O38 1.273 . S
O41 Mg28 2.010 . S
O41 C33 1.249 1_565 S
Mg42 O43 2.028 . S
Mg42 O49 1.986 . S
Mg42 O51 2.114 . S
Mg42 O52 2.251 . S
Mg42 O55 2.010 . S
O43 Mg42 2.028 . S
O43 C46 1.250 . S
O44 Mg45 2.028 . S
O44 C46 1.248 . S
Mg45 O44 2.028 . S
Mg45 O50 2.032 . S
Mg45 O52 2.079 . S
C46 O43 1.250 . S
C46 O44 1.248 . S
C47 O48 1.264 . S
C47 O55 1.249 . S
O48 C47 1.264 . S
O49 Mg42 1.986 . S
O49 C53 1.246 . S
O50 Mg45 2.032 . S
O50 C53 1.259 . S
O51 Mg42 2.114 . S
O51 C54 1.252 . S
O52 Mg42 2.251 . S
O52 Mg45 2.079 . S
O52 C54 1.273 . S
C53 O49 1.246 . S
C53 O50 1.259 . S
C54 O51 1.252 . S
C54 O52 1.273 . S
O55 Mg42 2.010 . S
O55 C47 1.249 . S
Mg56 O57 2.028 . S
Mg56 O63 1.986 . S
Mg56 O65 2.114 1_565 S
Mg56 O66 2.251 . S
Mg56 O69 2.010 . S
O57 Mg56 2.028 . S
O57 C60 1.250 . S
O58 Mg59 2.028 . S
O58 C60 1.248 . S
Mg59 O58 2.028 . S
Mg59 O64 2.032 . S
Mg59 O66 2.079 . S
C60 O57 1.250 . S
C60 O58 1.248 . S
C61 O62 1.264 . S
C61 O69 1.249 1_645 S
O62 C61 1.264 . S
O63 Mg56 1.986 . S
O63 C67 1.246 . S
O64 Mg59 2.032 . S
O64 C67 1.259 . S
O65 Mg56 2.114 1_545 S
O65 C68 1.252 1_545 S
O66 Mg56 2.251 . S
O66 Mg59 2.079 . S
O66 C68 1.273 . S
C67 O63 1.246 . S
C67 O64 1.259 . S
C68 O65 1.252 1_565 S
C68 O66 1.273 . S
O69 Mg56 2.010 . S
O69 C61 1.249 1_465 S
Mg70 O71 2.028 . S
Mg70 O77 1.986 . S
Mg70 O79 2.114 . S
Mg70 O80 2.251 . S
Mg70 O83 2.010 . S
O71 Mg70 2.028 . S
O71 C74 1.250 . S
O72 Mg73 2.028 . S
O72 C74 1.248 . S
Mg73 O72 2.028 . S
Mg73 O78 2.032 . S
Mg73 O80 2.079 . S
C74 O71 1.250 . S
C74 O72 1.248 . S
C75 O76 1.264 . S
C75 O83 1.249 . S
O76 C75 1.264 . S
O77 Mg70 1.986 . S
O77 C81 1.246 . S
O78 Mg73 2.032 . S
O78 C81 1.259 . S
O79 Mg70 2.114 . S
O79 C82 1.252 . S
O80 Mg70 2.251 . S
O80 Mg73 2.079 . S
O80 C82 1.273 . S
C81 O77 1.246 . S
C81 O78 1.259 . S
C82 O79 1.252 . S
C82 O80 1.273 . S
O83 Mg70 2.010 . S
O83 C75 1.249 . S
Mg84 O85 2.028 . S
Mg84 O91 1.986 . S
Mg84 O93 2.114 1_545 S
Mg84 O94 2.251 . S
Mg84 O97 2.010 . S
O85 Mg84 2.028 . S
O85 C88 1.250 . S
O86 Mg87 2.028 . S
O86 C88 1.248 . S
Mg87 O86 2.028 . S
Mg87 O92 2.032 . S
Mg87 O94 2.079 . S
C88 O85 1.250 . S
C88 O86 1.248 . S
C89 O90 1.264 . S
C89 O97 1.249 1_565 S
O90 C89 1.264 . S
O91 Mg84 1.986 . S
O91 C95 1.246 . S
O92 Mg87 2.032 . S
O92 C95 1.259 . S
O93 Mg84 2.114 1_565 S
O93 C96 1.252 1_565 S
O94 Mg84 2.251 . S
O94 Mg87 2.079 . S
O94 C96 1.273 . S
C95 O91 1.246 . S
C95 O92 1.259 . S
C96 O93 1.252 1_545 S
C96 O94 1.273 . S
O97 Mg84 2.010 . S
O97 C89 1.249 1_545 S
Mg98 O99 2.028 . S
Mg98 O105 1.986 . S
Mg98 O107 2.114 . S
Mg98 O108 2.251 . S
Mg98 O111 2.010 . S
O99 Mg98 2.028 . S
O99 C102 1.250 . S
O100 Mg101 2.028 . S
O100 C102 1.248 . S
Mg101 O100 2.028 . S
Mg101 O106 2.032 . S
Mg101 O108 2.079 . S
C102 O99 1.250 . S
C102 O100 1.248 . S
C103 O104 1.264 . S
C103 O111 1.249 . S
O104 C103 1.264 . S
O105 Mg98 1.986 . S
O105 C109 1.246 . S
O106 Mg101 2.032 . S
O106 C109 1.259 . S
O107 Mg98 2.114 . S
O107 C110 1.252 . S
O108 Mg98 2.251 . S
O108 Mg101 2.079 . S
O108 C110 1.273 . S
C109 O105 1.246 . S
C109 O106 1.259 . S
C110 O107 1.252 . S
C110 O108 1.273 . S
O111 Mg98 2.010 . S
O111 C103 1.249 . S
Mg112 O113 2.028 . S
Mg112 O119 1.986 . S
Mg112 O121 2.114 . S
Mg112 O122 2.251 . S
Mg112 O125 2.010 . S
O113 Mg112 2.028 . S
O113 C116 1.250 . S
O114 Mg115 2.028 . S
O114 C116 1.248 . S
Mg115 O114 2.028 . S
Mg115 O120 2.032 . S
Mg115 O122 2.079 . S
C116 O113 1.250 . S
C116 O114 1.248 . S
C117 O118 1.264 . S
C117 O125 1.249 . S
O118 C117 1.264 . S
O119 Mg112 1.986 . S
O119 C123 1.246 . S
O120 Mg115 2.032 . S
O120 C123 1.259 . S
O121 Mg112 2.114 . S
O121 C124 1.252 . S
O122 Mg112 2.251 . S
O122 Mg115 2.079 . S
O122 C124 1.273 . S
C123 O119 1.246 . S
C123 O120 1.259 . S
C124 O121 1.252 . S
C124 O122 1.273 . S
O125 Mg112 2.010 . S
O125 C117 1.249 . S
Mg126 O127 2.028 . S
Mg126 O133 1.986 . S
Mg126 O135 2.114 . S
Mg126 O136 2.251 . S
Mg126 O139 2.010 . S
O127 Mg126 2.028 . S
O127 C130 1.250 . S
O128 Mg129 2.028 . S
O128 C130 1.248 . S
Mg129 O128 2.028 . S
Mg129 O134 2.032 . S
Mg129 O136 2.079 . S
C130 O127 1.250 . S
C130 O128 1.248 . S
C131 O132 1.264 . S
C131 O139 1.249 . S
O132 C131 1.264 . S
O133 Mg126 1.986 . S
O133 C137 1.246 . S
O134 Mg129 2.032 . S
O134 C137 1.259 . S
O135 Mg126 2.114 . S
O135 C138 1.252 . S
O136 Mg126 2.251 . S
O136 Mg129 2.079 . S
O136 C138 1.273 . S
C137 O133 1.246 . S
C137 O134 1.259 . S
C138 O135 1.252 . S
C138 O136 1.273 . S
O139 Mg126 2.010 . S
O139 C131 1.249 . S
Mg140 O141 2.028 . S
Mg140 O147 1.986 . S
Mg140 O149 2.114 . S
Mg140 O150 2.251 . S
Mg140 O153 2.010 . S
O141 Mg140 2.028 . S
O141 C144 1.250 . S
O142 Mg143 2.028 . S
O142 C144 1.248 . S
Mg143 O142 2.028 . S
Mg143 O148 2.032 . S
Mg143 O150 2.079 . S
C144 O141 1.250 . S
C144 O142 1.248 . S
C145 O146 1.264 . S
C145 O153 1.249 . S
O146 C145 1.264 . S
O147 Mg140 1.986 . S
O147 C151 1.246 . S
O148 Mg143 2.032 . S
O148 C151 1.259 . S
O149 Mg140 2.114 . S
O149 C152 1.252 . S
O150 Mg140 2.251 . S
O150 Mg143 2.079 . S
O150 C152 1.273 . S
C151 O147 1.246 . S
C151 O148 1.259 . S
C152 O149 1.252 . S
C152 O150 1.273 . S
O153 Mg140 2.010 . S
O153 C145 1.249 . S
Mg154 O155 2.028 . S
Mg154 O161 1.986 . S
Mg154 O163 2.114 . S
Mg154 O164 2.251 . S
Mg154 O167 2.010 . S
O155 Mg154 2.028 . S
O155 C158 1.250 . S
O156 Mg157 2.028 . S
O156 C158 1.248 . S
Mg157 O156 2.028 . S
Mg157 O162 2.032 . S
Mg157 O164 2.079 . S
C158 O155 1.250 . S
C158 O156 1.248 . S
C159 O160 1.264 . S
C159 O167 1.249 . S
O160 C159 1.264 . S
O161 Mg154 1.986 . S
O161 C165 1.246 . S
O162 Mg157 2.032 . S
O162 C165 1.259 . S
O163 Mg154 2.114 . S
O163 C166 1.252 . S
O164 Mg154 2.251 . S
O164 Mg157 2.079 . S
O164 C166 1.273 . S
C165 O161 1.246 . S
C165 O162 1.259 . S
C166 O163 1.252 . S
C166 O164 1.273 . S
O167 Mg154 2.010 . S
O167 C159 1.249 . S
Mg168 O169 2.028 . S
Mg168 O175 1.986 . S
Mg168 O177 2.114 . S
Mg168 O178 2.251 . S
Mg168 O181 2.010 . S
O169 Mg168 2.028 . S
O169 C172 1.250 . S
O170 Mg171 2.028 . S
O170 C172 1.248 . S
Mg171 O170 2.028 . S
Mg171 O176 2.032 . S
Mg171 O178 2.079 . S
C172 O169 1.250 . S
C172 O170 1.248 . S
C173 O174 1.264 . S
C173 O181 1.249 . S
O174 C173 1.264 . S
O175 Mg168 1.986 . S
O175 C179 1.246 . S
O176 Mg171 2.032 . S
O176 C179 1.259 . S
O177 Mg168 2.114 . S
O177 C180 1.252 . S
O178 Mg168 2.251 . S
O178 Mg171 2.079 . S
O178 C180 1.273 . S
C179 O175 1.246 . S
C179 O176 1.259 . S
C180 O177 1.252 . S
C180 O178 1.273 . S
O181 Mg168 2.010 . S
O181 C173 1.249 . S
Mg182 O183 2.028 1_455 S
Mg182 O189 1.986 . S
Mg182 O191 2.114 . S
Mg182 O192 2.251 1_455 S
Mg182 O195 2.010 . S
O183 Mg182 2.028 1_655 S
O183 C186 1.250 . S
O184 Mg185 2.028 . S
O184 C186 1.248 . S
Mg185 O184 2.028 . S
Mg185 O190 2.032 . S
Mg185 O192 2.079 . S
C186 O183 1.250 . S
C186 O184 1.248 . S
C187 O188 1.264 . S
C187 O195 1.249 . S
O188 C187 1.264 . S
O189 Mg182 1.986 . S
O189 C193 1.246 . S
O190 Mg185 2.032 . S
O190 C193 1.259 1_655 S
O191 Mg182 2.114 . S
O191 C194 1.252 . S
O192 Mg182 2.251 1_655 S
O192 Mg185 2.079 . S
O192 C194 1.273 1_655 S
C193 O189 1.246 . S
C193 O190 1.259 1_455 S
C194 O191 1.252 . S
C194 O192 1.273 1_455 S
O195 Mg182 2.010 . S
O195 C187 1.249 . S
Mg196 O197 2.028 . S
Mg196 O203 1.986 . S
Mg196 O205 2.114 . S
Mg196 O206 2.251 . S
Mg196 O209 2.010 . S
O197 Mg196 2.028 . S
O197 C200 1.250 . S
O198 Mg199 2.028 . S
O198 C200 1.248 . S
Mg199 O198 2.028 . S
Mg199 O204 2.032 . S
Mg199 O206 2.079 . S
C200 O197 1.250 . S
C200 O198 1.248 . S
C201 O202 1.264 . S
C201 O209 1.249 . S
O202 C201 1.264 . S
O203 Mg196 1.986 . S
O203 C207 1.246 . S
O204 Mg199 2.032 . S
O204 C207 1.259 . S
O205 Mg196 2.114 . S
O205 C208 1.252 . S
O206 Mg196 2.251 . S
O206 Mg199 2.079 . S
O206 C208 1.273 . S
C207 O203 1.246 . S
C207 O204 1.259 . S
C208 O205 1.252 . S
C208 O206 1.273 . S
O209 Mg196 2.010 . S
O209 C201 1.249 . S
Mg210 O211 2.028 1_455 S
Mg210 O217 1.986 . S
Mg210 O219 2.114 . S
Mg210 O220 2.251 1_455 S
Mg210 O223 2.010 . S
O211 Mg210 2.028 1_655 S
O211 C214 1.250 . S
O212 Mg213 2.028 . S
O212 C214 1.248 . S
Mg213 O212 2.028 . S
Mg213 O218 2.032 . S
Mg213 O220 2.079 . S
C214 O211 1.250 . S
C214 O212 1.248 . S
C215 O216 1.264 . S
C215 O223 1.249 . S
O216 C215 1.264 . S
O217 Mg210 1.986 . S
O217 C221 1.246 . S
O218 Mg213 2.032 . S
O218 C221 1.259 1_655 S
O219 Mg210 2.114 . S
O219 C222 1.252 . S
O220 Mg210 2.251 1_655 S
O220 Mg213 2.079 . S
O220 C222 1.273 1_655 S
C221 O217 1.246 . S
C221 O218 1.259 1_455 S
C222 O219 1.252 . S
C222 O220 1.273 1_455 S
O223 Mg210 2.010 . S
O223 C215 1.249 . S
C224 C225 1.369 . S
C224 C226 1.419 . S
C224 H228 0.930 . S
C225 C224 1.369 . S
C225 C234 1.429 . S
C226 C224 1.419 . S
C226 C227 1.363 . S
C226 H229 0.929 . S
C227 C226 1.363 . S
C227 C233 1.428 . S
H228 C224 0.930 . S
H229 C226 0.929 . S
S230 N231 1.613 . S
S230 N232 1.610 . S
N231 S230 1.613 . S
N231 C234 1.350 . S
N232 S230 1.610 . S
N232 C233 1.351 . S
C233 C227 1.428 . S
C233 N232 1.351 . S
C233 C234 1.434 . S
C234 C225 1.429 . S
C234 N231 1.350 . S
C234 C233 1.434 . S
C235 C236 1.369 . S
C235 C237 1.419 . S
C235 H239 0.930 . S
C236 C235 1.369 . S
C236 C245 1.429 . S
C237 C235 1.419 . S
C237 C238 1.363 . S
C237 H240 0.929 . S
C238 C237 1.363 . S
C238 C244 1.428 . S
H239 C235 0.930 . S
H240 C237 0.929 . S
S241 N242 1.613 1_455 S
S241 N243 1.610 . S
N242 S241 1.613 1_655 S
N242 C245 1.350 1_655 S
N243 S241 1.610 . S
N243 C244 1.351 . S
C244 C238 1.428 . S
C244 N243 1.351 . S
C244 C245 1.434 . S
C245 C236 1.429 . S
C245 N242 1.350 1_455 S
C245 C244 1.434 . S
C246 C247 1.369 . S
C246 C248 1.419 . S
C246 H250 0.930 . S
C247 C246 1.369 . S
C247 C256 1.429 . S
C248 C246 1.419 . S
C248 C249 1.363 . S
C248 H251 0.929 . S
C249 C248 1.363 . S
C249 C255 1.428 . S
H250 C246 0.930 . S
H251 C248 0.929 . S
S252 N253 1.613 . S
S252 N254 1.610 . S
N253 S252 1.613 . S
N253 C256 1.350 . S
N254 S252 1.610 . S
N254 C255 1.351 . S
C255 C249 1.428 . S
C255 N254 1.351 . S
C255 C256 1.434 . S
C256 C247 1.429 . S
C256 N253 1.350 . S
C256 C255 1.434 . S
C257 C258 1.369 . S
C257 C259 1.419 . S
C257 H261 0.930 . S
C258 C257 1.369 . S
C258 C267 1.429 . S
C259 C257 1.419 . S
C259 C260 1.363 . S
C259 H262 0.929 . S
C260 C259 1.363 . S
C260 C266 1.428 . S
H261 C257 0.930 . S
H262 C259 0.929 . S
S263 N264 1.613 . S
S263 N265 1.610 . S
N264 S263 1.613 . S
N264 C267 1.350 . S
N265 S263 1.610 . S
N265 C266 1.351 . S
C266 C260 1.428 . S
C266 N265 1.351 . S
C266 C267 1.434 . S
C267 C258 1.429 . S
C267 N264 1.350 . S
C267 C266 1.434 . S
C268 C269 1.369 . S
C268 C270 1.419 . S
C268 H272 0.930 . S
C269 C268 1.369 . S
C269 C278 1.429 . S
C270 C268 1.419 . S
C270 C271 1.363 . S
C270 H273 0.929 1_455 S
C271 C270 1.363 . S
C271 C277 1.428 . S
H272 C268 0.930 . S
H273 C270 0.929 1_655 S
S274 N275 1.613 . S
S274 N276 1.610 . S
N275 S274 1.613 . S
N275 C278 1.350 . S
N276 S274 1.610 . S
N276 C277 1.351 . S
C277 C271 1.428 . S
C277 N276 1.351 . S
C277 C278 1.434 . S
C278 C269 1.429 . S
C278 N275 1.350 . S
C278 C277 1.434 . S
C279 C280 1.369 . S
C279 C281 1.419 . S
C279 H283 0.930 . S
C280 C279 1.369 . S
C280 C289 1.429 . S
C281 C279 1.419 . S
C281 C282 1.363 . S
C281 H284 0.929 . S
C282 C281 1.363 . S
C282 C288 1.428 . S
H283 C279 0.930 . S
H284 C281 0.929 . S
S285 N286 1.613 . S
S285 N287 1.610 . S
N286 S285 1.613 . S
N286 C289 1.350 . S
N287 S285 1.610 . S
N287 C288 1.351 . S
C288 C282 1.428 . S
C288 N287 1.351 . S
C288 C289 1.434 . S
C289 C280 1.429 . S
C289 N286 1.350 . S
C289 C288 1.434 . S
C290 C291 1.369 . S
C290 C292 1.419 . S
C290 H294 0.930 . S
C291 C290 1.369 . S
C291 C300 1.429 . S
C292 C290 1.419 . S
C292 C293 1.363 . S
C292 H295 0.929 . S
C293 C292 1.363 . S
C293 C299 1.428 . S
H294 C290 0.930 . S
H295 C292 0.929 . S
S296 N297 1.613 . S
S296 N298 1.610 . S
N297 S296 1.613 . S
N297 C300 1.350 . S
N298 S296 1.610 . S
N298 C299 1.351 . S
C299 C293 1.428 . S
C299 N298 1.351 . S
C299 C300 1.434 . S
C300 C291 1.429 . S
C300 N297 1.350 . S
C300 C299 1.434 . S
C301 C302 1.369 . S
C301 C303 1.419 . S
C301 H305 0.930 . S
C302 C301 1.369 . S
C302 C311 1.429 . S
C303 C301 1.419 . S
C303 C304 1.363 . S
C303 H306 0.929 . S
C304 C303 1.363 . S
C304 C310 1.428 . S
H305 C301 0.930 . S
H306 C303 0.929 . S
S307 N308 1.613 . S
S307 N309 1.610 . S
N308 S307 1.613 . S
N308 C311 1.350 . S
N309 S307 1.610 . S
N309 C310 1.351 . S
C310 C304 1.428 . S
C310 N309 1.351 . S
C310 C311 1.434 . S
C311 C302 1.429 . S
C311 N308 1.350 . S
C311 C310 1.434 . S
C312 C313 1.369 1_545 S
C312 C314 1.419 . S
C312 H316 0.930 . S
C313 C312 1.369 1_565 S
C313 C322 1.429 . S
C314 C312 1.419 . S
C314 C315 1.363 . S
C314 H317 0.929 . S
C315 C314 1.363 . S
C315 C321 1.428 1_545 S
H316 C312 0.930 . S
H317 C314 0.929 . S
S318 N319 1.613 . S
S318 N320 1.610 . S
N319 S318 1.613 . S
N319 C322 1.350 . S
N320 S318 1.610 . S
N320 C321 1.351 . S
C321 C315 1.428 1_565 S
C321 N320 1.351 . S
C321 C322 1.434 . S
C322 C313 1.429 . S
C322 N319 1.350 . S
C322 C321 1.434 . S
C323 C324 1.369 . S
C323 C325 1.419 . S
C323 H327 0.930 . S
C324 C323 1.369 . S
C324 C333 1.429 . S
C325 C323 1.419 . S
C325 C326 1.363 . S
C325 H328 0.929 . S
C326 C325 1.363 . S
C326 C332 1.428 . S
H327 C323 0.930 . S
H328 C325 0.929 . S
S329 N330 1.613 . S
S329 N331 1.610 . S
N330 S329 1.613 . S
N330 C333 1.350 . S
N331 S329 1.610 . S
N331 C332 1.351 . S
C332 C326 1.428 . S
C332 N331 1.351 . S
C332 C333 1.434 . S
C333 C324 1.429 . S
C333 N330 1.350 . S
C333 C332 1.434 . S
C334 C335 1.369 1_545 S
C334 C336 1.419 1_554 S
C334 H338 0.930 . S
C335 C334 1.369 1_565 S
C335 C344 1.429 . S
C336 C334 1.419 1_556 S
C336 C337 1.363 . S
C336 H339 0.929 . S
C337 C336 1.363 . S
C337 C343 1.428 1_545 S
H338 C334 0.930 . S
H339 C336 0.929 . S
S340 N341 1.613 1_556 S
S340 N342 1.610 . S
N341 S340 1.613 1_554 S
N341 C344 1.350 . S
N342 S340 1.610 . S
N342 C343 1.351 . S
C343 C337 1.428 1_565 S
C343 N342 1.351 . S
C343 C344 1.434 1_556 S
C344 C335 1.429 . S
C344 N341 1.350 . S
C344 C343 1.434 1_554 S
C345 C346 1.369 . S
C345 C347 1.419 . S
C345 H349 0.930 . S
C346 C345 1.369 . S
C346 C355 1.429 . S
C347 C345 1.419 . S
C347 C348 1.363 . S
C347 H350 0.929 . S
C348 C347 1.363 . S
C348 C354 1.428 . S
H349 C345 0.930 . S
H350 C347 0.929 . S
S351 N352 1.613 . S
S351 N353 1.610 . S
N352 S351 1.613 . S
N352 C355 1.350 . S
N353 S351 1.610 . S
N353 C354 1.351 . S
C354 C348 1.428 . S
C354 N353 1.351 . S
C354 C355 1.434 . S
C355 C346 1.429 . S
C355 N352 1.350 . S
C355 C354 1.434 . S
C356 C357 1.369 . S
C356 C358 1.419 . S
C356 H360 0.930 . S
C357 C356 1.369 . S
C357 C366 1.429 . S
C358 C356 1.419 . S
C358 C359 1.363 . S
C358 H361 0.929 . S
C359 C358 1.363 . S
C359 C365 1.428 . S
H360 C356 0.930 . S
H361 C358 0.929 . S
S362 N363 1.613 . S
S362 N364 1.610 . S
N363 S362 1.613 . S
N363 C366 1.350 . S
N364 S362 1.610 . S
N364 C365 1.351 . S
C365 C359 1.428 . S
C365 N364 1.351 . S
C365 C366 1.434 . S
C366 C357 1.429 . S
C366 N363 1.350 . S
C366 C365 1.434 . S
C367 C368 1.369 . S
C367 C369 1.419 . S
C367 H371 0.930 . S
C368 C367 1.369 . S
C368 C377 1.429 . S
C369 C367 1.419 . S
C369 C370 1.363 . S
C369 H372 0.929 . S
C370 C369 1.363 . S
C370 C376 1.428 . S
H371 C367 0.930 . S
H372 C369 0.929 . S
S373 N374 1.613 . S
S373 N375 1.610 . S
N374 S373 1.613 . S
N374 C377 1.350 . S
N375 S373 1.610 . S
N375 C376 1.351 . S
C376 C370 1.428 . S
C376 N375 1.351 . S
C376 C377 1.434 . S
C377 C368 1.429 . S
C377 N374 1.350 . S
C377 C376 1.434 . S
C378 C379 1.369 . S
C378 C380 1.419 1_556 S
C378 H382 0.930 . S
C379 C378 1.369 . S
C379 C388 1.429 . S
C380 C378 1.419 1_554 S
C380 C381 1.363 . S
C380 H383 0.929 . S
C381 C380 1.363 . S
C381 C387 1.428 . S
H382 C378 0.930 . S
H383 C380 0.929 . S
S384 N385 1.613 1_554 S
S384 N386 1.610 . S
N385 S384 1.613 1_556 S
N385 C388 1.350 . S
N386 S384 1.610 . S
N386 C387 1.351 . S
C387 C381 1.428 . S
C387 N386 1.351 . S
C387 C388 1.434 1_554 S
C388 C379 1.429 . S
C388 N385 1.350 . S
C388 C387 1.434 1_556 S
C389 C390 1.369 . S
C389 C391 1.419 . S
C389 H393 0.930 . S
C390 C389 1.369 . S
C390 C399 1.429 1_455 S
C391 C389 1.419 . S
C391 C392 1.363 . S
C391 H394 0.929 . S
C392 C391 1.363 . S
C392 C398 1.428 1_455 S
H393 C389 0.930 . S
H394 C391 0.929 . S
S395 N396 1.613 . S
S395 N397 1.610 . S
N396 S395 1.613 . S
N396 C399 1.350 . S
N397 S395 1.610 . S
N397 C398 1.351 . S
C398 C392 1.428 1_655 S
C398 N397 1.351 . S
C398 C399 1.434 . S
C399 C390 1.429 1_655 S
C399 N396 1.350 . S
C399 C398 1.434 . S
C400 C401 1.369 . S
C400 C402 1.419 . S
C400 H404 0.930 . S
C401 C400 1.369 . S
C401 C410 1.429 . S
C402 C400 1.419 . S
C402 C403 1.363 . S
C402 H405 0.929 . S
C403 C402 1.363 . S
C403 C409 1.428 . S
H404 C400 0.930 . S
H405 C402 0.929 . S
S406 N407 1.613 . S
S406 N408 1.610 . S
N407 S406 1.613 . S
N407 C410 1.350 . S
N408 S406 1.610 . S
N408 C409 1.351 . S
C409 C403 1.428 . S
C409 N408 1.351 . S
C409 C410 1.434 . S
C410 C401 1.429 . S
C410 N407 1.350 . S
C410 C409 1.434 . S
C411 C412 1.369 . S
C411 C413 1.419 . S
C411 H415 0.930 . S
C412 C411 1.369 . S
C412 C421 1.429 . S
C413 C411 1.419 . S
C413 C414 1.363 . S
C413 H416 0.929 . S
C414 C413 1.363 . S
C414 C420 1.428 . S
H415 C411 0.930 . S
H416 C413 0.929 . S
S417 N418 1.613 1_545 S
S417 N419 1.610 . S
N418 S417 1.613 1_565 S
N418 C421 1.350 . S
N419 S417 1.610 . S
N419 C420 1.351 1_545 S
C420 C414 1.428 . S
C420 N419 1.351 1_565 S
C420 C421 1.434 . S
C421 C412 1.429 . S
C421 N418 1.350 . S
C421 C420 1.434 . S
C422 C423 1.369 . S
C422 C424 1.419 . S
C422 H426 0.930 . S
C423 C422 1.369 . S
C423 C432 1.429 . S
C424 C422 1.419 . S
C424 C425 1.363 . S
C424 H427 0.929 . S
C425 C424 1.363 . S
C425 C431 1.428 . S
H426 C422 0.930 . S
H427 C424 0.929 . S
S428 N429 1.613 1_545 S
S428 N430 1.610 . S
N429 S428 1.613 1_565 S
N429 C432 1.350 1_565 S
N430 S428 1.610 . S
N430 C431 1.351 . S
C431 C425 1.428 . S
C431 N430 1.351 . S
C431 C432 1.434 . S
C432 C423 1.429 . S
C432 N429 1.350 1_545 S
C432 C431 1.434 . S
C433 C434 1.369 . S
C433 C435 1.419 . S
C433 H437 0.930 . S
C434 C433 1.369 . S
C434 C443 1.429 . S
C435 C433 1.419 . S
C435 C436 1.363 . S
C435 H438 0.929 . S
C436 C435 1.363 . S
C436 C442 1.428 . S
H437 C433 0.930 . S
H438 C435 0.929 . S
S439 N440 1.613 . S
S439 N441 1.610 1_565 S
N440 S439 1.613 . S
N440 C443 1.350 1_565 S
N441 S439 1.610 1_545 S
N441 C442 1.351 . S
C442 C436 1.428 . S
C442 N441 1.351 . S
C442 C443 1.434 . S
C443 C434 1.429 . S
C443 N440 1.350 1_545 S
C443 C442 1.434 . S
C444 C445 1.369 . S
C444 C446 1.419 . S
C444 H448 0.930 . S
C445 C444 1.369 . S
C445 C454 1.429 . S
C446 C444 1.419 . S
C446 C447 1.363 . S
C446 H449 0.929 . S
C447 C446 1.363 . S
C447 C453 1.428 . S
H448 C444 0.930 . S
H449 C446 0.929 . S
S450 N451 1.613 . S
S450 N452 1.610 . S
N451 S450 1.613 . S
N451 C454 1.350 . S
N452 S450 1.610 . S
N452 C453 1.351 . S
C453 C447 1.428 . S
C453 N452 1.351 . S
C453 C454 1.434 . S
C454 C445 1.429 . S
C454 N451 1.350 . S
C454 C453 1.434 . S
C455 C456 1.369 . S
C455 C457 1.419 . S
C455 H459 0.930 . S
C456 C455 1.369 . S
C456 C465 1.429 . S
C457 C455 1.419 . S
C457 C458 1.363 . S
C457 H460 0.929 . S
C458 C457 1.363 . S
C458 C464 1.428 . S
H459 C455 0.930 . S
H460 C457 0.929 . S
S461 N462 1.613 . S
S461 N463 1.610 . S
N462 S461 1.613 . S
N462 C465 1.350 . S
N463 S461 1.610 . S
N463 C464 1.351 . S
C464 C458 1.428 . S
C464 N463 1.351 . S
C464 C465 1.434 . S
C465 C456 1.429 . S
C465 N462 1.350 . S
C465 C464 1.434 . S
C466 C467 1.369 . S
C466 C468 1.419 . S
C466 H470 0.930 . S
C467 C466 1.369 . S
C467 C476 1.429 . S
C468 C466 1.419 . S
C468 C469 1.363 . S
C468 H471 0.929 . S
C469 C468 1.363 . S
C469 C475 1.428 . S
H470 C466 0.930 . S
H471 C468 0.929 . S
S472 N473 1.613 . S
S472 N474 1.610 . S
N473 S472 1.613 . S
N473 C476 1.350 . S
N474 S472 1.610 . S
N474 C475 1.351 . S
C475 C469 1.428 . S
C475 N474 1.351 . S
C475 C476 1.434 . S
C476 C467 1.429 . S
C476 N473 1.350 . S
C476 C475 1.434 . S
C477 C478 1.369 . S
C477 C479 1.419 . S
C477 H481 0.930 . S
C478 C477 1.369 . S
C478 C487 1.429 . S
C479 C477 1.419 . S
C479 C480 1.363 . S
C479 H482 0.929 . S
C480 C479 1.363 . S
C480 C486 1.428 . S
H481 C477 0.930 . S
H482 C479 0.929 . S
S483 N484 1.613 . S
S483 N485 1.610 1_655 S
N484 S483 1.613 . S
N484 C487 1.350 . S
N485 S483 1.610 1_455 S
N485 C486 1.351 1_455 S
C486 C480 1.428 . S
C486 N485 1.351 1_655 S
C486 C487 1.434 . S
C487 C478 1.429 . S
C487 N484 1.350 . S
C487 C486 1.434 . S
C488 C489 1.369 . S
C488 C490 1.419 . S
C488 H492 0.930 . S
C489 C488 1.369 . S
C489 C498 1.429 . S
C490 C488 1.419 . S
C490 C491 1.363 . S
C490 H493 0.929 . S
C491 C490 1.363 . S
C491 C497 1.428 . S
H492 C488 0.930 . S
H493 C490 0.929 . S
S494 N495 1.613 . S
S494 N496 1.610 . S
N495 S494 1.613 . S
N495 C498 1.350 . S
N496 S494 1.610 . S
N496 C497 1.351 . S
C497 C491 1.428 . S
C497 N496 1.351 . S
C497 C498 1.434 . S
C498 C489 1.429 . S
C498 N495 1.350 . S
C498 C497 1.434 . S
C499 C500 1.369 . S
C499 C501 1.419 . S
C499 H503 0.930 . S
C500 C499 1.369 . S
C500 C509 1.429 . S
C501 C499 1.419 . S
C501 C502 1.363 . S
C501 H504 0.929 . S
C502 C501 1.363 . S
C502 C508 1.428 . S
H503 C499 0.930 . S
H504 C501 0.929 . S
S505 N506 1.613 . S
S505 N507 1.610 . S
N506 S505 1.613 . S
N506 C509 1.350 . S
N507 S505 1.610 . S
N507 C508 1.351 . S
C508 C502 1.428 . S
C508 N507 1.351 . S
C508 C509 1.434 . S
C509 C500 1.429 . S
C509 N506 1.350 . S
C509 C508 1.434 . S
C510 C511 1.369 . S
C510 C512 1.419 . S
C510 H514 0.930 . S
C511 C510 1.369 . S
C511 C520 1.429 . S
C512 C510 1.419 . S
C512 C513 1.363 . S
C512 H515 0.929 . S
C513 C512 1.363 . S
C513 C519 1.428 . S
H514 C510 0.930 . S
H515 C512 0.929 . S
S516 N517 1.613 . S
S516 N518 1.610 . S
N517 S516 1.613 . S
N517 C520 1.350 . S
N518 S516 1.610 . S
N518 C519 1.351 . S
C519 C513 1.428 . S
C519 N518 1.351 . S
C519 C520 1.434 . S
C520 C511 1.429 . S
C520 N517 1.350 . S
C520 C519 1.434 . S
C521 C522 1.369 . S
C521 C523 1.419 . S
C521 H525 0.930 . S
C522 C521 1.369 . S
C522 C531 1.429 . S
C523 C521 1.419 . S
C523 C524 1.363 . S
C523 H526 0.929 . S
C524 C523 1.363 . S
C524 C530 1.428 . S
H525 C521 0.930 . S
H526 C523 0.929 . S
S527 N528 1.613 . S
S527 N529 1.610 . S
N528 S527 1.613 . S
N528 C531 1.350 . S
N529 S527 1.610 . S
N529 C530 1.351 . S
C530 C524 1.428 . S
C530 N529 1.351 . S
C530 C531 1.434 . S
C531 C522 1.429 . S
C531 N528 1.350 . S
C531 C530 1.434 . S
C532 C533 1.369 . S
C532 C534 1.419 . S
C532 H536 0.930 . S
C533 C532 1.369 . S
C533 C542 1.429 . S
C534 C532 1.419 . S
C534 C535 1.363 . S
C534 H537 0.929 . S
C535 C534 1.363 . S
C535 C541 1.428 . S
H536 C532 0.930 . S
H537 C534 0.929 . S
S538 N539 1.613 . S
S538 N540 1.610 . S
N539 S538 1.613 . S
N539 C542 1.350 . S
N540 S538 1.610 . S
N540 C541 1.351 . S
C541 C535 1.428 . S
C541 N540 1.351 . S
C541 C542 1.434 . S
C542 C533 1.429 . S
C542 N539 1.350 . S
C542 C541 1.434 . S
C543 C544 1.369 . S
C543 C545 1.419 . S
C543 H547 0.930 . S
C544 C543 1.369 . S
C544 C553 1.429 . S
C545 C543 1.419 . S
C545 C546 1.363 . S
C545 H548 0.929 . S
C546 C545 1.363 . S
C546 C552 1.428 . S
H547 C543 0.930 . S
H548 C545 0.929 . S
S549 N550 1.613 . S
S549 N551 1.610 . S
N550 S549 1.613 . S
N550 C553 1.350 . S
N551 S549 1.610 . S
N551 C552 1.351 . S
C552 C546 1.428 . S
C552 N551 1.351 . S
C552 C553 1.434 . S
C553 C544 1.429 . S
C553 N550 1.350 . S
C553 C552 1.434 . S
C554 C555 1.369 . S
C554 C556 1.419 . S
C554 H558 0.930 . S
C555 C554 1.369 . S
C555 C564 1.429 . S
C556 C554 1.419 . S
C556 C557 1.363 . S
C556 H559 0.929 . S
C557 C556 1.363 . S
C557 C563 1.428 . S
H558 C554 0.930 . S
H559 C556 0.929 . S
S560 N561 1.613 . S
S560 N562 1.610 . S
N561 S560 1.613 . S
N561 C564 1.350 . S
N562 S560 1.610 . S
N562 C563 1.351 . S
C563 C557 1.428 . S
C563 N562 1.351 . S
C563 C564 1.434 . S
C564 C555 1.429 . S
C564 N561 1.350 . S
C564 C563 1.434 . S
C565 C566 1.369 . S
C565 C567 1.419 . S
C565 H569 0.930 . S
C566 C565 1.369 . S
C566 C575 1.429 . S
C567 C565 1.419 . S
C567 C568 1.363 . S
C567 H570 0.929 . S
C568 C567 1.363 . S
C568 C574 1.428 . S
H569 C565 0.930 . S
H570 C567 0.929 . S
S571 N572 1.613 . S
S571 N573 1.610 . S
N572 S571 1.613 . S
N572 C575 1.350 . S
N573 S571 1.610 . S
N573 C574 1.351 . S
C574 C568 1.428 . S
C574 N573 1.351 . S
C574 C575 1.434 . S
C575 C566 1.429 . S
C575 N572 1.350 . S
C575 C574 1.434 . S
C225 C11 1.247 . S
C227 C193 1.247 . S
C236 C165 1.247 1_455 S
C238 C25 1.248 . S
C247 C179 1.253 . S
C249 C39 1.252 . S
C258 C151 1.251 . S
C260 C53 1.251 . S
C269 C67 1.254 . S
C271 C221 1.253 . S
C280 C81 1.248 . S
C282 C137 1.248 . S
C291 C207 1.254 . S
C293 C95 1.253 . S
C302 C109 1.247 . S
C304 C123 1.248 1_455 S
C313 C68 1.596 . S
C315 C12 1.596 . S
C324 C26 1.597 . S
C326 C82 1.597 . S
C335 C40 1.597 . S
C337 C96 1.596 . S
C346 C110 1.595 . S
C348 C54 1.595 . S
C357 C124 1.597 . S
C359 C152 1.597 . S
C368 C138 1.595 . S
C370 C166 1.595 . S
C379 C208 1.596 . S
C381 C180 1.595 . S
C390 C194 1.597 . S
C392 C222 1.597 . S
C401 C74 1.313 . S
C403 C4 1.309 1_565 S
C412 C18 1.310 . S
C414 C88 1.313 1_565 S
C423 C32 1.309 1_545 S
C425 C102 1.313 . S
C434 C60 1.311 1_545 S
C436 C46 1.311 . S
C445 C61 1.198 . S
C447 C145 1.210 . S
C456 C33 1.200 . S
C458 C117 1.198 . S
C467 C159 1.203 . S
C469 C89 1.197 . S
C478 C131 1.201 . S
C480 C5 1.211 . S
C489 C116 1.314 . S
C491 C172 1.310 . S
C500 C144 1.313 . S
C502 C214 1.312 . S
C511 C186 1.309 . S
C513 C130 1.313 . S
C522 C158 1.309 . S
C524 C200 1.314 . S
C533 C201 1.198 . S
C535 C19 1.199 . S
C544 C187 1.211 . S
C546 C75 1.210 . S
C555 C215 1.195 . S
C557 C47 1.207 . S
C566 C173 1.212 . S
C568 C103 1.210 . S
