# Generated by pormake.
# Topology lcs, (4)-cn, num edge types: 1
# Building blocks:
#     Node 0, Type 0, BuildingBlock: NAHDIM_clean_sbu_0, # of connection points: 4
#     Node 1, Type 0, BuildingBlock: NAHDIM_clean_sbu_0, # of connection points: 4
#     Node 2, Type 0, BuildingBlock: NAHDIM_clean_sbu_0, # of connection points: 4
#     Node 3, Type 0, BuildingBlock: NAHDIM_clean_sbu_0, # of connection points: 4
#     Node 4, Type 0, BuildingBlock: NAHDIM_clean_sbu_0, # of connection points: 4
#     Node 5, Type 0, BuildingBlock: NAHDIM_clean_sbu_0, # of connection points: 4
#     Node 6, Type 0, BuildingBlock: NAHDIM_clean_sbu_0, # of connection points: 4
#     Node 7, Type 0, BuildingBlock: NAHDIM_clean_sbu_0, # of connection points: 4
#     Node 8, Type 0, BuildingBlock: NAHDIM_clean_sbu_0, # of connection points: 4
#     Node 9, Type 0, BuildingBlock: NAHDIM_clean_sbu_0, # of connection points: 4
#     Node 10, Type 0, BuildingBlock: NAHDIM_clean_sbu_0, # of connection points: 4
#     Node 11, Type 0, BuildingBlock: NAHDIM_clean_sbu_0, # of connection points: 4
#     Node 12, Type 0, BuildingBlock: NAHDIM_clean_sbu_0, # of connection points: 4
#     Node 13, Type 0, BuildingBlock: NAHDIM_clean_sbu_0, # of connection points: 4
#     Node 14, Type 0, BuildingBlock: NAHDIM_clean_sbu_0, # of connection points: 4
#     Node 15, Type 0, BuildingBlock: NAHDIM_clean_sbu_0, # of connection points: 4
#     Node 16, Type 0, BuildingBlock: NAHDIM_clean_sbu_0, # of connection points: 4
#     Node 17, Type 0, BuildingBlock: NAHDIM_clean_sbu_0, # of connection points: 4
#     Node 18, Type 0, BuildingBlock: NAHDIM_clean_sbu_0, # of connection points: 4
#     Node 19, Type 0, BuildingBlock: NAHDIM_clean_sbu_0, # of connection points: 4
#     Node 20, Type 0, BuildingBlock: NAHDIM_clean_sbu_0, # of connection points: 4
#     Node 21, Type 0, BuildingBlock: NAHDIM_clean_sbu_0, # of connection points: 4
#     Node 22, Type 0, BuildingBlock: NAHDIM_clean_sbu_0, # of connection points: 4
#     Node 23, Type 0, BuildingBlock: NAHDIM_clean_sbu_0, # of connection points: 4
#     Edge 24, Type (0, 0), BuildingBlock: XIVTED_clean_linker_0, # of connection points: 2
#     Edge 25, Type (0, 0), BuildingBlock: XIVTED_clean_linker_0, # of connection points: 2
#     Edge 26, Type (0, 0), BuildingBlock: XIVTED_clean_linker_0, # of connection points: 2
#     Edge 27, Type (0, 0), BuildingBlock: XIVTED_clean_linker_0, # of connection points: 2
#     Edge 28, Type (0, 0), BuildingBlock: XIVTED_clean_linker_0, # of connection points: 2
#     Edge 29, Type (0, 0), BuildingBlock: XIVTED_clean_linker_0, # of connection points: 2
#     Edge 30, Type (0, 0), BuildingBlock: XIVTED_clean_linker_0, # of connection points: 2
#     Edge 31, Type (0, 0), BuildingBlock: XIVTED_clean_linker_0, # of connection points: 2
#     Edge 32, Type (0, 0), BuildingBlock: XIVTED_clean_linker_0, # of connection points: 2
#     Edge 33, Type (0, 0), BuildingBlock: XIVTED_clean_linker_0, # of connection points: 2
#     Edge 34, Type (0, 0), BuildingBlock: XIVTED_clean_linker_0, # of connection points: 2
#     Edge 35, Type (0, 0), BuildingBlock: XIVTED_clean_linker_0, # of connection points: 2
#     Edge 36, Type (0, 0), BuildingBlock: XIVTED_clean_linker_0, # of connection points: 2
#     Edge 37, Type (0, 0), BuildingBlock: XIVTED_clean_linker_0, # of connection points: 2
#     Edge 38, Type (0, 0), BuildingBlock: XIVTED_clean_linker_0, # of connection points: 2
#     Edge 39, Type (0, 0), BuildingBlock: XIVTED_clean_linker_0, # of connection points: 2
#     Edge 40, Type (0, 0), BuildingBlock: XIVTED_clean_linker_0, # of connection points: 2
#     Edge 41, Type (0, 0), BuildingBlock: XIVTED_clean_linker_0, # of connection points: 2
#     Edge 42, Type (0, 0), BuildingBlock: XIVTED_clean_linker_0, # of connection points: 2
#     Edge 43, Type (0, 0), BuildingBlock: XIVTED_clean_linker_0, # of connection points: 2
#     Edge 44, Type (0, 0), BuildingBlock: XIVTED_clean_linker_0, # of connection points: 2
#     Edge 45, Type (0, 0), BuildingBlock: XIVTED_clean_linker_0, # of connection points: 2
#     Edge 46, Type (0, 0), BuildingBlock: XIVTED_clean_linker_0, # of connection points: 2
#     Edge 47, Type (0, 0), BuildingBlock: XIVTED_clean_linker_0, # of connection points: 2
#     Edge 48, Type (0, 0), BuildingBlock: XIVTED_clean_linker_0, # of connection points: 2
#     Edge 49, Type (0, 0), BuildingBlock: XIVTED_clean_linker_0, # of connection points: 2
#     Edge 50, Type (0, 0), BuildingBlock: XIVTED_clean_linker_0, # of connection points: 2
#     Edge 51, Type (0, 0), BuildingBlock: XIVTED_clean_linker_0, # of connection points: 2
#     Edge 52, Type (0, 0), BuildingBlock: XIVTED_clean_linker_0, # of connection points: 2
#     Edge 53, Type (0, 0), BuildingBlock: XIVTED_clean_linker_0, # of connection points: 2
#     Edge 54, Type (0, 0), BuildingBlock: XIVTED_clean_linker_0, # of connection points: 2
#     Edge 55, Type (0, 0), BuildingBlock: XIVTED_clean_linker_0, # of connection points: 2
#     Edge 56, Type (0, 0), BuildingBlock: XIVTED_clean_linker_0, # of connection points: 2
#     Edge 57, Type (0, 0), BuildingBlock: XIVTED_clean_linker_0, # of connection points: 2
#     Edge 58, Type (0, 0), BuildingBlock: XIVTED_clean_linker_0, # of connection points: 2
#     Edge 59, Type (0, 0), BuildingBlock: XIVTED_clean_linker_0, # of connection points: 2
#     Edge 60, Type (0, 0), BuildingBlock: XIVTED_clean_linker_0, # of connection points: 2
#     Edge 61, Type (0, 0), BuildingBlock: XIVTED_clean_linker_0, # of connection points: 2
#     Edge 62, Type (0, 0), BuildingBlock: XIVTED_clean_linker_0, # of connection points: 2
#     Edge 63, Type (0, 0), BuildingBlock: XIVTED_clean_linker_0, # of connection points: 2
#     Edge 64, Type (0, 0), BuildingBlock: XIVTED_clean_linker_0, # of connection points: 2
#     Edge 65, Type (0, 0), BuildingBlock: XIVTED_clean_linker_0, # of connection points: 2
#     Edge 66, Type (0, 0), BuildingBlock: XIVTED_clean_linker_0, # of connection points: 2
#     Edge 67, Type (0, 0), BuildingBlock: XIVTED_clean_linker_0, # of connection points: 2
#     Edge 68, Type (0, 0), BuildingBlock: XIVTED_clean_linker_0, # of connection points: 2
#     Edge 69, Type (0, 0), BuildingBlock: XIVTED_clean_linker_0, # of connection points: 2
#     Edge 70, Type (0, 0), BuildingBlock: XIVTED_clean_linker_0, # of connection points: 2
#     Edge 71, Type (0, 0), BuildingBlock: XIVTED_clean_linker_0, # of connection points: 2
# Relax obj value: 0.090
# Max RMSD: 0.162
# Mean RMSD: 0.151
data_MOF--net-lcs--node1-NAHDIM_clean_sbu_0--edge1-XIVTED_clean_linker_0
_symmetry_space_group_name_H-M    P1
_symmetry_Int_Tables_number       1
_symmetry_cell_setting            triclinic
loop_
_symmetry_equiv_pos_as_xyz
'x, y, z'
_cell_length_a     50.462797
_cell_length_b     48.642792
_cell_length_c     48.5704
_cell_angle_alpha  91.619598
_cell_angle_beta   90.702474
_cell_angle_gamma 91.276097
loop_
_atom_site_label
_atom_site_type_symbol
_atom_site_fract_x
_atom_site_fract_y
_atom_site_fract_z
_atom_type_partial_charge
C0 C 0.95975 0.28988 0.36699 0.0
O1 O 0.96553 0.29867 0.34241 0.0
O2 O -0.00332 0.2237 0.33765 0.0
Zn3 Zn 0.00656 0.25945 0.35728 0.0
O4 O 0.01747 0.28902 0.33124 0.0
C5 C 0.0598 0.25039 0.37492 0.0
O6 O 0.06396 0.25229 0.34839 0.0
O7 O 0.97468 0.27255 0.37813 0.0
C8 C 0.02583 0.28594 0.30681 0.0
O9 O 0.02888 0.26105 0.29629 0.0
C10 C 0.97733 0.22199 0.32068 0.0
O11 O 0.96469 0.24438 0.3146 0.0
O12 O 0.03642 0.25299 0.38389 0.0
C13 C 0.06268 0.74328 0.62848 0.0
O14 O 0.06644 0.74962 0.65474 0.0
O15 O 0.00609 0.70627 0.6645 0.0
Zn16 Zn 0.00903 0.74226 0.64561 0.0
O17 O 0.01689 0.77364 0.67244 0.0
C18 C 0.95443 0.75486 0.63771 0.0
O19 O 0.95503 0.75558 0.66478 0.0
O20 O 0.03917 0.73953 0.61928 0.0
C21 C 0.01475 0.79783 0.66362 0.0
O22 O 0.00659 0.80102 0.63814 0.0
C23 C 0.00097 0.7036 0.68983 0.0
O24 O -0.00313 0.72558 0.7054 0.0
O25 O 0.97539 0.74916 0.62474 0.0
C26 C 0.4661 0.77812 0.92016 0.0
O27 O 0.48693 0.79287 0.91308 0.0
O28 O 0.46836 0.70826 0.86034 0.0
Zn29 Zn 0.48572 0.74159 0.87866 0.0
O30 O 0.49045 0.77283 0.85281 0.0
C31 C 0.53497 0.71524 0.8788 0.0
O32 O 0.52552 0.70696 0.85457 0.0
O33 O 0.46206 0.75454 0.90881 0.0
C34 C 0.49748 0.77087 0.82783 0.0
O35 O 0.50192 0.74651 0.81668 0.0
C36 C 0.44993 0.70889 0.84235 0.0
O37 O 0.44154 0.73272 0.83413 0.0
O38 O 0.52119 0.73108 0.89383 0.0
C39 C 0.54169 0.24242 0.10454 0.0
O40 O 0.54636 0.26891 0.10862 0.0
O41 O 0.48584 0.22573 0.17076 0.0
Zn42 Zn 0.49904 0.25182 0.14259 0.0
O43 O 0.52007 0.28285 0.16077 0.0
C44 C 0.44735 0.27304 0.13559 0.0
O45 O 0.44725 0.27014 0.1624 0.0
O46 O 0.52223 0.23103 0.11645 0.0
C47 C 0.5157 0.29198 0.18501 0.0
O48 O 0.49655 0.28081 0.19931 0.0
C49 C 0.50084 0.20795 0.18099 0.0
O50 O 0.52575 0.20715 0.17351 0.0
O51 O 0.46788 0.26661 0.1222 0.0
C52 C 0.04439 0.7686 0.07611 0.0
O53 O 0.04451 0.74457 0.08778 0.0
O54 O 0.00231 0.74293 0.12722 0.0
Zn55 Zn 0.99328 0.77386 0.10245 0.0
O56 O 0.98266 0.80717 0.12447 0.0
C57 C 0.96442 0.73797 0.06569 0.0
O58 O 0.98655 0.72438 0.0676 0.0
O59 O 0.02456 0.784 0.07922 0.0
C60 C 0.96896 0.80524 0.14612 0.0
O61 O 0.96192 0.78077 0.1546 0.0
C62 C 0.01937 0.74506 0.14664 0.0
O63 O 0.03161 0.76883 0.15167 0.0
O64 O 0.96267 0.76095 0.07851 0.0
C65 C 0.45102 0.71977 0.39886 0.0
O66 O 0.45205 0.72432 0.37235 0.0
O67 O 0.51726 0.69957 0.37116 0.0
Zn68 Zn 0.50558 0.73221 0.39363 0.0
O69 O 0.49833 0.76384 0.3691 0.0
C70 C 0.55781 0.74637 0.41038 0.0
O71 O 0.56086 0.74239 0.38374 0.0
O72 O 0.4722 0.72205 0.41325 0.0
C73 C 0.50074 0.78841 0.37847 0.0
O74 O 0.50842 0.79283 0.40419 0.0
C75 C 0.51397 0.697 0.34523 0.0
O76 O 0.50189 0.71632 0.33189 0.0
O77 O 0.53488 0.74303 0.42044 0.0
C78 C 0.55615 0.29855 0.61514 0.0
O79 O 0.54896 0.30879 0.63915 0.0
O80 O 0.52045 0.23557 0.65001 0.0
Zn81 Zn 0.51038 0.26614 0.62517 0.0
O82 O 0.49547 0.2983 0.64634 0.0
C83 C 0.46238 0.24003 0.61508 0.0
O84 O 0.46514 0.24035 0.64202 0.0
O85 O 0.54227 0.27907 0.60391 0.0
C86 C 0.49008 0.29932 0.67183 0.0
O87 O 0.49457 0.27792 0.68698 0.0
C88 C 0.53935 0.23548 0.66749 0.0
O89 O 0.55487 0.25738 0.67088 0.0
O90 O 0.48064 0.25086 0.60087 0.0
C91 C 0.94548 0.21972 0.95018 0.0
O92 O 0.9439 0.24553 0.9432 0.0
O93 O 0.01318 0.19743 0.90058 0.0
Zn94 Zn -0.00305 0.22513 0.92605 0.0
O95 O 0.98335 0.25531 0.9029 0.0
C96 C 0.04568 0.22681 0.95703 0.0
O97 O 0.04723 0.20172 0.94656 0.0
O98 O 0.96679 0.20699 0.94573 0.0
C99 C -0.00071 0.27135 0.89077 0.0
O100 O 0.02494 0.26824 0.89387 0.0
C101 C 0.00021 0.18554 0.88091 0.0
O102 O 0.97513 0.19129 0.87711 0.0
O103 O 0.02514 0.24062 0.95214 0.0
C104 C 0.42438 0.94181 0.27347 0.0
O105 O 0.41374 0.93832 0.24877 0.0
O106 O 0.37575 0.98555 0.24192 0.0
Zn107 Zn 0.39681 0.99458 0.27652 0.0
O108 O 0.37311 0.00276 0.30856 0.0
C109 C 0.40873 0.0514 0.26959 0.0
O110 O 0.38334 0.05297 0.2749 0.0
O111 O 0.41998 0.96364 0.28748 0.0
C112 C 0.34905 0.00981 0.30692 0.0
O113 O 0.33776 0.01203 0.2826 0.0
C114 C 0.35767 0.96702 0.2397 0.0
O115 O 0.35207 0.95201 0.26103 0.0
O116 O 0.4195 0.02804 0.26949 0.0
C117 C 0.20408 0.17973 0.49419 0.0
O118 O 0.19889 0.17304 0.51961 0.0
O119 O 0.23164 0.12871 0.53428 0.0
Zn120 Zn 0.24922 0.14442 0.50094 0.0
O121 O 0.25752 0.11512 0.47253 0.0
C122 C 0.29499 0.15512 0.53462 0.0
O123 O 0.28424 0.1345 0.54769 0.0
O124 O 0.22479 0.17068 0.48275 0.0
C125 C 0.27548 0.09757 0.47574 0.0
O126 O 0.28875 0.09741 0.49917 0.0
C127 C 0.22526 0.10363 0.53762 0.0
O128 O 0.22898 0.08548 0.51759 0.0
O129 O 0.28342 0.16374 0.51322 0.0
C130 C 0.16363 0.04323 0.72242 0.0
O131 O 0.15794 0.06188 0.74139 0.0
O132 O 0.1173 0.03715 0.77538 0.0
Zn133 Zn 0.13851 0.00606 0.76006 0.0
O134 O 0.11376 0.97508 0.7481 0.0
C135 C 0.1707 0.01098 0.80906 0.0
O136 O 0.16322 0.03662 0.80794 0.0
O137 O 0.15803 0.0181 0.72652 0.0
C138 C 0.10742 0.95487 0.76284 0.0
O139 O 0.11739 0.95344 0.78785 0.0
C140 C 0.09323 0.04169 0.76951 0.0
O141 O 0.0804 0.02538 0.75165 0.0
O142 O 0.16342 0.99394 0.78995 0.0
C143 C 0.31268 0.874 0.00208 0.0
O144 O 0.31382 0.90083 0.00592 0.0
O145 O 0.26615 0.90353 0.04947 0.0
Zn146 Zn 0.25876 0.88404 0.01295 0.0
O147 O 0.25291 0.90944 0.98151 0.0
C148 C 0.20603 0.86003 0.00242 0.0
O149 O 0.20517 0.87754 0.98237 0.0
O150 O 0.29046 0.86143 0.00396 0.0
C151 C 0.23934 0.93112 0.98221 0.0
O152 O 0.22855 0.93921 0.00546 0.0
C153 C 0.27676 0.92726 0.05351 0.0
O154 O 0.28275 0.9423 0.03233 0.0
O155 O 0.22682 0.859 0.01738 0.0
C156 C 0.28595 0.34362 0.04074 0.0
O157 O 0.26506 0.35086 0.05486 0.0
O158 O 0.24613 0.39844 0.0204 0.0
Zn159 Zn 0.25506 0.36496 -0.00278 0.0
O160 O 0.26464 0.37548 0.9588 0.0
C161 C 0.20557 0.33846 0.01322 0.0
O162 O 0.20659 0.35663 0.03374 0.0
O163 O 0.28621 0.34733 0.01496 0.0
C164 C 0.2471 0.37934 0.9404 0.0
O165 O 0.22191 0.37632 0.94634 0.0
C166 C 0.22653 0.41353 0.01534 0.0
O167 O 0.21179 0.40807 0.99332 0.0
O168 O 0.22405 0.33811 -0.00434 0.0
C169 C 0.67587 0.11908 0.02029 0.0
O170 O 0.67107 0.09247 0.01761 0.0
O171 O 0.73423 0.08003 0.04162 0.0
Zn172 Zn 0.72722 0.10101 0.00742 0.0
O173 O 0.71317 0.07652 0.9764 0.0
C174 C 0.78315 0.11135 0.00115 0.0
O175 O 0.78473 0.08695 0.01189 0.0
O176 O 0.69927 0.12829 0.01657 0.0
C177 C 0.72676 0.06367 0.95857 0.0
O178 O 0.75276 0.0653 0.95998 0.0
C179 C 0.73676 0.05419 0.04299 0.0
O180 O 0.73461 0.03869 0.02045 0.0
O181 O 0.76047 0.12136 -0.00317 0.0
C182 C 0.0913 0.56926 0.21224 0.0
O183 O 0.11652 0.56974 0.21934 0.0
O184 O 0.12174 0.50648 0.17749 0.0
Zn185 Zn 0.10155 0.51256 0.21246 0.0
O186 O 0.12644 0.51934 0.24458 0.0
C187 C 0.08843 0.45522 0.21332 0.0
O188 O 0.11059 0.454 0.19948 0.0
O189 O 0.07941 0.54614 0.20819 0.0
C190 C 0.11657 0.52075 0.26848 0.0
O191 O 0.09087 0.51708 0.27116 0.0
C192 C 0.14687 0.50778 0.17636 0.0
O193 O 0.16078 0.51376 0.19886 0.0
O194 O 0.07963 0.47863 0.22046 0.0
C195 C 0.79824 0.82822 0.53716 0.0
O196 O 0.79786 0.82837 0.51011 0.0
O197 O 0.7377 0.88992 0.55786 0.0
Zn198 Zn 0.75405 0.86369 0.53066 0.0
O199 O 0.77193 0.88522 0.50118 0.0
C200 C 0.70694 0.82802 0.52565 0.0
O201 O 0.70507 0.83257 0.55234 0.0
O202 O 0.78101 0.84165 0.55042 0.0
C203 C 0.75833 0.89362 0.48103 0.0
O204 O 0.73272 0.88821 0.47999 0.0
C205 C 0.71532 0.90053 0.55348 0.0
O206 O 0.70232 0.89425 0.53048 0.0
O207 O 0.72621 0.83869 0.51282 0.0
C208 C 0.81518 0.98874 0.21782 0.0
O209 O 0.82368 0.96353 0.21979 0.0
O210 O 0.87293 0.96954 0.25318 0.0
Zn211 Zn 0.84953 0.00023 0.26536 0.0
O212 O 0.87076 0.03526 0.27222 0.0
C213 C 0.84453 0.9813 0.31992 0.0
O214 O 0.87047 0.98118 0.31802 0.0
O215 O 0.82308 0.00714 0.23531 0.0
C216 C 0.89516 0.03636 0.27903 0.0
O217 O 0.90788 0.01343 0.28253 0.0
C218 C 0.88738 0.97165 0.2321 0.0
O219 O 0.88755 -0.00531 0.21861 0.0
O220 O 0.83084 0.98924 0.29964 0.0
C221 C 0.21003 0.66645 0.51929 0.0
O222 O 0.23263 0.66215 0.53199 0.0
O223 O 0.23959 0.60052 0.51125 0.0
Zn224 Zn 0.22999 0.6261 0.48125 0.0
O225 O 0.2115 0.6047 0.45051 0.0
C226 C 0.28303 0.64982 0.48269 0.0
O227 O 0.28243 0.6426 0.50854 0.0
O228 O 0.20481 0.65368 0.49664 0.0
C229 C 0.2234 0.5963 0.42907 0.0
O230 O 0.24892 0.6015 0.42674 0.0
C231 C 0.25607 0.58145 0.50757 0.0
O232 O 0.2669 0.57801 0.48329 0.0
O233 O 0.26279 0.64512 0.46731 0.0
C234 C 0.32933 0.49631 0.67567 0.0
O235 O 0.35336 0.48655 0.67446 0.0
O236 O 0.36895 0.46742 0.72556 0.0
Zn237 Zn 0.33936 0.49344 0.73385 0.0
O238 O 0.35486 0.52952 0.74818 0.0
C239 C 0.3112 0.45131 0.76252 0.0
O240 O 0.32133 0.43548 0.74317 0.0
O241 O 0.31886 0.50044 0.69906 0.0
C242 C 0.36356 0.53234 0.77277 0.0
O243 O 0.36209 0.51134 0.78913 0.0
C244 C 0.38101 0.45373 0.74357 0.0
O245 O 0.37454 0.45658 0.76959 0.0
O246 O 0.31549 0.47714 0.76226 0.0
C247 C 0.58267 0.05536 0.7486 0.0
O248 O 0.6065 0.05297 0.75932 0.0
O249 O 0.60796 0.98819 0.71766 0.0
Zn250 Zn 0.58604 -0.00234 0.75066 0.0
O251 O 0.60832 0.0025 0.78506 0.0
C252 C 0.56138 0.94381 0.74391 0.0
O253 O 0.5791 0.94132 0.72448 0.0
O254 O 0.56869 0.03371 0.74336 0.0
C255 C 0.62945 0.99014 0.79107 0.0
O256 O 0.63894 0.97181 0.77367 0.0
C257 C 0.63118 -0.003 0.71245 0.0
O258 O 0.64352 0.01412 0.72992 0.0
O259 O 0.5597 0.96666 0.75712 0.0
C260 C 0.704 0.6346 0.94596 0.0
O261 O 0.71117 0.61098 0.93496 0.0
O262 O 0.73933 0.60374 0.01311 0.0
Zn263 Zn 0.74922 0.62454 0.9795 0.0
O264 O 0.76155 0.59939 0.94886 0.0
C265 C 0.80159 0.63813 0.99419 0.0
O266 O 0.80199 0.61115 0.99229 0.0
O267 O 0.71754 0.64522 0.96597 0.0
C268 C 0.76793 0.57437 0.95053 0.0
O269 O 0.76671 0.56231 0.97435 0.0
C270 C 0.71978 0.58686 0.01326 0.0
O271 O 0.70587 0.58215 0.99051 0.0
O272 O 0.77988 0.65009 0.98971 0.0
C273 C 0.92245 0.42408 0.78389 0.0
O274 O 0.89692 0.42395 0.77817 0.0
O275 O 0.89785 0.46841 0.73052 0.0
Zn276 Zn 0.91559 0.47789 0.76709 0.0
O277 O 0.88785 0.48571 0.79526 0.0
C278 C 0.95747 0.5136 0.74732 0.0
O279 O 0.96319 0.49204 0.73177 0.0
O280 O 0.93612 0.44583 0.78001 0.0
C281 C 0.86958 0.50258 0.79069 0.0
O282 O 0.86867 0.51473 0.7669 0.0
C283 C 0.89459 0.48599 0.71195 0.0
O284 O 0.9032 0.51143 0.71638 0.0
O285 O 0.93863 0.51176 0.7643 0.0
C286 C 0.81047 0.37424 0.47057 0.0
O287 O 0.80872 0.40102 0.46868 0.0
O288 O 0.78525 0.40499 0.53643 0.0
Zn289 Zn 0.76743 0.38638 0.50341 0.0
O290 O 0.75624 0.4126 0.47436 0.0
C291 C 0.72085 0.37922 0.5331 0.0
O292 O 0.7283 0.40447 0.54038 0.0
O293 O 0.79406 0.36149 0.48554 0.0
C294 C 0.74721 0.43673 0.4763 0.0
O295 O 0.74341 0.44821 0.50069 0.0
C296 C 0.79899 0.4272 0.53712 0.0
O297 O 0.80216 0.44097 0.51448 0.0
O298 O 0.73505 0.36573 0.5163 0.0
C299 C 0.65946 0.51168 0.19252 0.0
O300 O 0.63771 0.49633 0.1925 0.0
O301 O 0.62672 0.53185 0.26392 0.0
Zn302 Zn 0.65345 0.50503 0.25002 0.0
O303 O 0.63486 0.46899 0.24132 0.0
C304 C 0.68198 0.51528 0.30136 0.0
O305 O 0.66812 0.53782 0.30201 0.0
O306 O 0.67058 0.51856 0.21542 0.0
C307 C 0.61731 0.4587 0.25672 0.0
O308 O 0.61119 0.47176 0.27975 0.0
C309 C 0.61259 0.54726 0.24935 0.0
O310 O 0.61472 0.54623 0.22242 0.0
O311 O 0.67996 0.49897 0.28046 0.0
H312 H 0.10005 0.40206 0.19905 0.0
H313 H 0.01336 0.33917 0.31891 0.0
H314 H 0.04829 0.45018 0.25047 0.0
H315 H 0.05281 0.28876 0.25813 0.0
H316 H 0.02557 0.37992 0.2935 0.0
H317 H 0.08236 0.36022 0.21942 0.0
C318 C 0.08478 0.40382 0.21444 0.0
C319 C 0.07578 0.42969 0.22322 0.0
C320 C 0.03144 0.35996 0.28558 0.0
C321 C 0.05564 0.38189 0.24679 0.0
C322 C 0.02457 0.33665 0.30016 0.0
C323 C 0.03227 0.31051 0.29074 0.0
C324 C 0.04637 0.35723 0.26151 0.0
C325 C 0.04654 0.30852 0.26617 0.0
C326 C 0.07469 0.37991 0.22605 0.0
C327 C 0.05588 0.4307 0.24312 0.0
N328 N 0.05334 0.33162 0.25251 0.0
N329 N 0.04668 0.40716 0.25443 0.0
H330 H 0.94629 0.75476 0.58186 0.0
H331 H 0.80395 0.82281 0.59284 0.0
H332 H 0.90735 0.772 0.65891 0.0
H333 H 0.84096 0.80171 0.51563 0.0
H334 H 0.84066 0.80215 0.61732 0.0
H335 H 0.90698 0.76974 0.55718 0.0
C336 C 0.92942 0.76156 0.59361 0.0
C337 C 0.93018 0.76228 0.62252 0.0
C338 C 0.8407 0.80189 0.59502 0.0
C339 C 0.88512 0.77957 0.59436 0.0
C340 C 0.81973 0.8137 0.58101 0.0
C341 C 0.81946 0.81416 0.55212 0.0
C342 C 0.86165 0.79055 0.58007 0.0
C343 C 0.84039 0.80192 0.5379 0.0
C344 C 0.90697 0.77011 0.57949 0.0
C345 C 0.90769 0.77119 0.63662 0.0
N346 N 0.86073 0.79077 0.55203 0.0
N347 N 0.88614 0.77964 0.6224 0.0
H348 H 0.36389 0.5818 0.74709 0.0
H349 H 0.45755 0.65712 0.8608 0.0
H350 H 0.39103 0.54306 0.82087 0.0
H351 H 0.41403 0.70129 0.79972 0.0
H352 H 0.43634 0.61435 0.84379 0.0
H353 H 0.38489 0.62509 0.76364 0.0
C354 C 0.37425 0.58239 0.76677 0.0
C355 C 0.37572 0.55877 0.78263 0.0
C356 C 0.43139 0.63339 0.83412 0.0
C357 C 0.39988 0.60814 0.80155 0.0
C358 C 0.44357 0.65784 0.84374 0.0
C359 C 0.43751 0.68286 0.83168 0.0
C360 C 0.41317 0.63384 0.81209 0.0
C361 C 0.41921 0.68248 0.80967 0.0
C362 C 0.38617 0.60711 0.77621 0.0
C363 C 0.38934 0.56075 0.80798 0.0
N364 N 0.40772 0.65831 0.80051 0.0
N365 N 0.40099 0.58497 0.81659 0.0
H366 H 0.58823 0.25869 0.08072 0.0
H367 H 0.62437 0.1057 0.03186 0.0
H368 H 0.53701 0.18754 0.09113 0.0
H369 H 0.67905 0.17506 0.02858 0.0
H370 H 0.59034 0.13643 0.04894 0.0
H371 H 0.61989 0.22938 0.05687 0.0
C372 C 0.58353 0.23696 0.07781 0.0
C373 C 0.56003 0.22552 0.08813 0.0
C374 C 0.60975 0.14496 0.04437 0.0
C375 C 0.59618 0.19188 0.06095 0.0
C376 C 0.6292 0.12742 0.03459 0.0
C377 C 0.65467 0.13778 0.029 0.0
C378 C 0.61578 0.1731 0.04861 0.0
C379 C 0.65972 0.16614 0.0328 0.0
C380 C 0.60165 0.22024 0.06424 0.0
C381 C 0.55496 0.19724 0.08369 0.0
N382 N 0.64048 0.1828 0.0425 0.0
N383 N 0.57294 0.18139 0.07056 0.0
H384 H 0.04155 0.57627 0.19042 0.0
H385 H 0.06002 0.7399 0.18399 0.0
H386 H 0.1103 0.62162 0.22237 0.0
H387 H -0.00326 0.69348 0.14238 0.0
H388 H 0.07526 0.69745 0.20412 0.0
H389 H 0.02146 0.61976 0.17853 0.0
C390 C 0.05232 0.59536 0.19516 0.0
C391 C 0.07776 0.59529 0.20713 0.0
C392 C 0.05792 0.69661 0.19075 0.0
C393 C 0.05494 0.64508 0.19355 0.0
C394 C 0.04917 0.72085 0.1793 0.0
C395 C 0.02725 0.72021 0.16124 0.0
C396 C 0.04461 0.67155 0.18412 0.0
C397 C 0.01389 0.69492 0.15599 0.0
C398 C 0.04087 0.62018 0.18832 0.0
C399 C 0.09076 0.62066 0.2129 0.0
N400 N 0.02289 0.67159 0.16723 0.0
N401 N 0.07927 0.6445 0.20591 0.0
H402 H 0.60896 0.75577 0.39486 0.0
H403 H 0.65925 0.80851 0.54459 0.0
H404 H 0.55855 0.75805 0.46604 0.0
H405 H 0.70626 0.81278 0.47108 0.0
H406 H 0.62334 0.78613 0.51732 0.0
H407 H 0.64597 0.77285 0.42365 0.0
C408 C 0.60567 0.75978 0.41658 0.0
C409 C 0.58056 0.75562 0.42801 0.0
C410 C 0.64158 0.79185 0.50723 0.0
C411 C 0.62295 0.77527 0.46118 0.0
C412 C 0.66212 0.80455 0.52279 0.0
C413 C 0.68575 0.81267 0.51007 0.0
C414 C 0.64476 0.78717 0.47879 0.0
C415 C 0.68835 0.80703 0.48175 0.0
C416 C 0.62685 0.76955 0.43303 0.0
C417 C 0.57755 0.76107 0.45634 0.0
N418 N 0.66809 0.79473 0.46708 0.0
N419 N 0.59849 0.77071 0.47195 0.0
H420 H 0.4785 0.34672 0.6459 0.0
H421 H 0.40423 0.41447 0.77471 0.0
H422 H 0.47266 0.30815 0.72467 0.0
H423 H 0.40183 0.44575 0.69242 0.0
H424 H 0.43371 0.37827 0.75858 0.0
H425 H 0.45493 0.38604 0.66456 0.0
C426 C 0.47237 0.34655 0.66719 0.0
C427 C 0.47736 0.32396 0.68368 0.0
C428 C 0.42683 0.39317 0.74413 0.0
C429 C 0.45024 0.36904 0.70519 0.0
C430 C 0.41007 0.41388 0.75332 0.0
C431 C 0.40041 0.43305 0.73483 0.0
C432 C 0.43404 0.39174 0.7163 0.0
C433 C 0.40863 0.43131 0.70736 0.0
C434 C 0.45887 0.36904 0.67783 0.0
C435 C 0.4691 0.32505 0.71118 0.0
N436 N 0.42488 0.41096 0.69893 0.0
N437 N 0.45579 0.34718 0.72105 0.0
H438 H 0.89535 0.23902 0.95671 0.0
H439 H 0.83461 0.095 0.00484 0.0
H440 H 0.94187 0.16649 0.96699 0.0
H441 H 0.78712 0.1641 0.98316 0.0
H442 H 0.87455 0.12192 0.99457 0.0
H443 H 0.85596 0.21305 0.97044 0.0
C444 C 0.89734 0.21769 0.96205 0.0
C445 C 0.92193 0.20487 0.96056 0.0
C446 C 0.85539 0.13119 0.99207 0.0
C447 C 0.87687 0.17498 0.97617 0.0
C448 C 0.83257 0.11582 -0.00208 0.0
C449 C 0.80747 0.12728 0.99477 0.0
C450 C 0.85311 0.15825 0.98313 0.0
C451 C 0.80605 0.15439 0.98578 0.0
C452 C 0.8748 0.20284 0.96978 0.0
C453 C 0.92329 0.17717 0.96774 0.0
N454 N 0.82855 0.16895 0.98029 0.0
N455 N 0.90105 0.16313 0.97515 0.0
H456 H 0.31542 0.06038 0.47389 0.0
H457 H 0.29994 0.03247 0.31134 0.0
H458 H 0.25294 0.09363 0.42418 0.0
H459 H 0.36596 0.00547 0.36026 0.0
H460 H 0.27899 0.04948 0.35344 0.0
H461 H 0.33063 0.03451 0.43349 0.0
C462 C 0.30473 0.06204 0.45456 0.0
C463 C 0.28308 0.07947 0.45234 0.0
C464 C 0.29797 0.03963 0.35496 0.0
C465 C 0.30047 0.05003 0.40598 0.0
C466 C 0.30992 0.02988 0.33094 0.0
C467 C 0.33489 0.01783 0.33225 0.0
C468 C 0.31108 0.03728 0.38045 0.0
C469 C 0.34683 0.0149 0.35823 0.0
C470 C 0.31346 0.0473 0.43147 0.0
C471 C 0.26989 0.08066 0.42678 0.0
N472 N 0.33491 0.02473 0.38126 0.0
N473 N 0.27894 0.06633 0.40454 0.0
H474 H 0.17473 0.01019 0.67759 0.0
H475 H 0.21618 0.136 0.5833 0.0
H476 H 0.17647 0.09517 0.70593 0.0
H477 H 0.21255 0.0514 0.55381 0.0
H478 H 0.20213 0.12123 0.62848 0.0
H479 H 0.18964 0.02466 0.63249 0.0
C480 C 0.17839 0.03189 0.6744 0.0
C481 C 0.17428 0.05152 0.69559 0.0
C482 C 0.20435 0.10587 0.61214 0.0
C483 C 0.19122 0.06821 0.6439 0.0
C484 C 0.21232 0.1143 0.58628 0.0
C485 C 0.21555 0.0949 0.56469 0.0
C486 C 0.19955 0.07782 0.61656 0.0
C487 C 0.21029 0.06707 0.56983 0.0
C488 C 0.18683 0.04013 0.64859 0.0
C489 C 0.17933 0.07932 0.69022 0.0
N490 N 0.20259 0.05935 0.59526 0.0
N491 N 0.18747 0.08683 0.6649 0.0
H492 H 0.17966 0.03903 0.85801 0.0
H493 H 0.25063 0.91388 0.92968 0.0
H494 H 0.19382 0.96121 0.81643 0.0
H495 H 0.21419 0.98 0.97554 0.0
H496 H 0.23725 0.935 0.88686 0.0
H497 H 0.19959 0.02148 0.89997 0.0
C498 C 0.18721 0.01835 0.85759 0.0
C499 C 0.18491 0.00148 0.83371 0.0
C500 C 0.23232 0.94496 0.90629 0.0
C501 C 0.20775 0.98137 0.88164 0.0
C502 C 0.24003 0.93299 0.93078 0.0
C503 C 0.23334 0.9451 0.95629 0.0
C504 C 0.21801 0.96935 0.90724 0.0
C505 C 0.2196 0.96987 0.95636 0.0
C506 C 0.19847 0.00834 0.88159 0.0
C507 C 0.19503 0.97486 0.83441 0.0
N508 N 0.21232 0.98116 0.93219 0.0
N509 N 0.20596 0.9656 0.85802 0.0
H510 H 0.30609 0.97322 0.06961 0.0
H511 H 0.31939 0.92779 0.22637 0.0
H512 H 0.26692 0.9013 0.10169 0.0
H513 H 0.36306 -0.00391 0.19264 0.0
H514 H 0.29684 0.92018 0.18187 0.0
H515 H 0.32364 0.98464 0.11575 0.0
C516 C 0.30095 0.95998 0.08638 0.0
C517 C 0.28519 0.93614 0.08171 0.0
C518 C 0.31129 0.93689 0.18425 0.0
C519 C 0.30536 0.94898 0.13454 0.0
C520 C 0.32419 0.94123 0.20965 0.0
C521 C 0.34327 0.96249 0.2132 0.0
C522 C 0.3175 0.95395 0.16224 0.0
C523 C 0.34861 0.97933 0.19082 0.0
C524 C 0.31106 0.96646 0.11272 0.0
C525 C 0.27916 0.91978 0.10427 0.0
N526 N 0.33586 0.97464 0.1663 0.0
N527 N 0.28938 0.92641 0.12965 0.0
H528 H 0.29221 0.33389 0.09563 0.0
H529 H 0.44069 0.28129 0.08039 0.0
H530 H 0.3328 0.32767 0.01802 0.0
H531 H 0.40011 0.28794 0.15797 0.0
H532 H 0.40121 0.29782 0.05708 0.0
H533 H 0.33136 0.31642 0.11872 0.0
C534 C 0.30933 0.32879 0.08341 0.0
C535 C 0.30923 0.33229 0.05484 0.0
C536 C 0.40094 0.29566 0.0792 0.0
C537 C 0.35417 0.31233 0.08118 0.0
C538 C 0.42349 0.28624 0.09253 0.0
C539 C 0.42371 0.28324 0.12119 0.0
C540 C 0.37844 0.30213 0.09462 0.0
C541 C 0.40084 0.28995 0.13585 0.0
C542 C 0.3317 0.31883 0.09663 0.0
C543 C 0.33199 0.32532 0.04009 0.0
N544 N 0.37914 0.29908 0.1224 0.0
N545 N 0.35355 0.31571 0.05344 0.0
H546 H 0.9778 0.85878 0.13227 0.0
H547 H 0.8886 0.92017 0.2533 0.0
H548 H 0.93938 0.80899 0.19295 0.0
H549 H 0.91988 0.96852 0.18741 0.0
H550 H 0.91085 0.88002 0.23421 0.0
H551 H 0.96048 0.89989 0.15495 0.0
C552 C 0.96583 0.85648 0.15045 0.0
C553 C 0.95987 0.83036 0.16062 0.0
C554 C 0.91295 0.89943 0.22399 0.0
C555 C 0.93995 0.8774 0.18666 0.0
C556 C 0.90029 0.9224 0.2349 0.0
C557 C 0.90224 0.94772 0.22181 0.0
C558 C 0.92771 0.90177 0.19983 0.0
C559 C 0.91772 0.94938 0.1981 0.0
C560 C 0.95592 0.87999 0.16337 0.0
C561 C 0.94435 0.82868 0.18431 0.0
N562 N 0.92977 0.92668 0.1878 0.0
N563 N 0.93484 0.85188 0.19647 0.0
H564 H 0.1605 0.67787 0.49969 0.0
H565 H 0.11543 0.74699 0.64217 0.0
H566 H 0.21317 0.69373 0.56935 0.0
H567 H 0.06202 0.72724 0.57396 0.0
H568 H 0.15263 0.73339 0.61357 0.0
H569 H 0.12552 0.70171 0.52431 0.0
C570 C 0.16481 0.6866 0.52006 0.0
C571 C 0.18971 0.68349 0.53262 0.0
C572 C 0.1328 0.73225 0.60478 0.0
C573 C 0.14969 0.71069 0.56097 0.0
C574 C 0.11153 0.74003 0.6211 0.0
C575 C 0.08553 0.73791 0.61055 0.0
C576 C 0.12803 0.72221 0.57774 0.0
C577 C 0.08171 0.72896 0.58304 0.0
C578 C 0.1448 0.70019 0.53412 0.0
C579 C 0.1942 0.69541 0.55896 0.0
N580 N 0.10271 0.7212 0.56766 0.0
N581 N 0.1743 0.70826 0.57237 0.0
H582 H 0.98396 0.68908 0.74097 0.0
H583 H 0.99141 0.52761 0.70612 0.0
H584 H 0.01318 0.65472 0.66453 0.0
H585 H 0.951 0.56178 0.77661 0.0
H586 H 0.00621 0.57397 0.69446 0.0
H587 H 0.978 0.64246 0.7579 0.0
C588 C 0.98929 0.67177 0.72783 0.0
C589 C -0.00121 0.67579 0.70119 0.0
C590 C 0.99431 0.57128 0.71263 0.0
C591 C 0.99212 0.62247 0.72043 0.0
C592 C 0.98595 0.5448 0.71936 0.0
C593 C 0.96967 0.54084 0.74218 0.0
C594 C 0.98638 0.59394 0.72885 0.0
C595 C 0.96329 0.5639 0.75865 0.0
C596 C 0.98588 0.64517 0.73749 0.0
C597 C 0.00551 0.65259 0.6851 0.0
N598 N 0.97147 0.58948 0.75153 0.0
N599 N 0.00192 0.62695 0.69492 0.0
H600 H 0.20865 0.19695 0.44126 0.0
H601 H 0.05796 0.24341 0.4307 0.0
H602 H 0.15502 0.19696 0.50987 0.0
H603 H 0.11184 0.2427 0.36231 0.0
H604 H 0.09422 0.23014 0.461 0.0
H605 H 0.17452 0.21772 0.41316 0.0
C606 C 0.18977 0.20154 0.45051 0.0
C607 C 0.18461 0.19497 0.47791 0.0
C608 C 0.09814 0.23305 0.4394 0.0
C609 C 0.14534 0.21861 0.44573 0.0
C610 C 0.07744 0.24061 0.42207 0.0
C611 C 0.08182 0.24396 0.39386 0.0
C612 C 0.12339 0.22874 0.42845 0.0
C613 C 0.1075 0.24018 0.38387 0.0
C614 C 0.17026 0.21338 0.43442 0.0
C615 C 0.15983 0.20154 0.4888 0.0
N616 N 0.12726 0.23263 0.40112 0.0
N617 N 0.14103 0.21279 0.47261 0.0
H618 H 0.57729 0.43133 0.28319 0.0
H619 H 0.55803 0.31784 0.16166 0.0
H620 H 0.62524 0.42732 0.21021 0.0
H621 H 0.51009 0.31941 0.23471 0.0
H622 H 0.58367 0.35722 0.18023 0.0
H623 H 0.55325 0.38958 0.26692 0.0
C624 C 0.58284 0.42163 0.26383 0.0
C625 C 0.60324 0.4329 0.24799 0.0
C626 C 0.5676 0.34896 0.19228 0.0
C627 C 0.57584 0.38525 0.22927 0.0
C628 C 0.55291 0.32644 0.18166 0.0
C629 C 0.53179 0.31537 0.19661 0.0
C630 C 0.56114 0.36063 0.21804 0.0
C631 C 0.52617 0.32733 0.22246 0.0
C632 C 0.56911 0.39782 0.25456 0.0
C633 C 0.60961 0.41944 0.22309 0.0
N634 N 0.54071 0.34941 0.23234 0.0
N635 N 0.59591 0.39642 0.21448 0.0
H636 H 0.36305 0.89488 -0.00289 0.0
H637 H 0.42009 0.75375 0.93754 0.0
H638 H 0.31723 0.81891 0.99006 0.0
H639 H 0.46532 0.83016 0.94309 0.0
H640 H 0.38393 0.77596 0.96178 0.0
H641 H 0.40215 0.87034 0.98201 0.0
C642 C 0.36123 0.87299 0.99251 0.0
C643 C 0.33676 0.85897 0.99458 0.0
C644 C 0.40185 0.78781 0.95793 0.0
C645 C 0.3815 0.83074 0.97726 0.0
C646 C 0.42255 0.77512 0.94413 0.0
C647 C 0.44565 0.79022 0.93798 0.0
C648 C 0.40422 0.81582 0.96555 0.0
C649 C 0.44779 0.81779 0.94719 0.0
C650 C 0.3836 0.85898 0.98393 0.0
C651 C 0.33565 0.83058 0.98856 0.0
N652 N 0.42722 0.82977 0.96028 0.0
N653 N 0.35767 0.81743 0.97998 0.0
H654 H 0.89765 0.37626 0.7983 0.0
H655 H 0.02721 0.31247 0.86569 0.0
H656 H 0.97443 0.4173 0.79906 0.0
H657 H 0.94777 0.27985 0.87601 0.0
H658 H 0.00925 0.34871 0.83742 0.0
H659 H 0.91687 0.33817 0.82257 0.0
C660 C 0.91861 0.3772 0.80342 0.0
C661 C 0.93442 0.4001 0.79679 0.0
C662 C -0.0042 0.33358 0.84586 0.0
C663 C 0.95656 0.35652 0.82472 0.0
C664 C 0.00602 0.31288 0.86197 0.0
C665 C 0.98895 0.29317 0.87333 0.0
C666 C 0.96834 0.33444 0.84095 0.0
C667 C 0.96167 0.29468 0.8678 0.0
C668 C 0.92956 0.35546 0.81736 0.0
C669 C 0.96148 0.40011 0.80389 0.0
N670 N 0.95223 0.31495 0.85202 0.0
N671 N 0.97169 0.37868 0.81757 0.0
H672 H 0.32643 0.1944 0.51037 0.0
H673 H 0.42564 0.20763 0.63953 0.0
H674 H 0.321 0.14472 0.58245 0.0
H675 H 0.4444 0.243 0.5614 0.0
H676 H 0.3855 0.18701 0.61914 0.0
H677 H 0.36811 0.21495 0.52883 0.0
C678 C 0.33397 0.18783 0.53003 0.0
C679 C 0.32018 0.16787 0.54494 0.0
C680 C 0.39838 0.19919 0.60634 0.0
C681 C 0.36758 0.19125 0.56608 0.0
C682 C 0.42132 0.21107 0.61801 0.0
C683 C 0.4384 0.2271 0.60214 0.0
C684 C 0.3922 0.20349 0.57857 0.0
C685 C 0.43178 0.23071 0.57433 0.0
C686 C 0.35776 0.19948 0.54048 0.0
C687 C 0.33089 0.16003 0.57023 0.0
N688 N 0.40905 0.21908 0.56341 0.0
N689 N 0.35384 0.17181 0.58001 0.0
H690 H 0.51504 0.68681 0.28936 0.0
H691 H 0.6025 0.55279 0.30425 0.0
H692 H 0.53844 0.65293 0.36698 0.0
H693 H 0.58267 0.58704 0.22575 0.0
H694 H 0.57573 0.58736 0.32709 0.0
H695 H 0.53637 0.64851 0.26526 0.0
C696 C 0.5245 0.67125 0.30134 0.0
C697 C 0.52514 0.67319 0.33023 0.0
C698 C 0.5771 0.5873 0.30485 0.0
C699 C 0.54955 0.62943 0.30283 0.0
C700 C 0.59241 0.56753 0.29176 0.0
C701 C 0.59501 0.56715 0.26303 0.0
C702 C 0.5643 0.60698 0.28917 0.0
C703 C 0.58131 0.58667 0.24796 0.0
C704 C 0.53668 0.64942 0.28756 0.0
C705 C 0.5376 0.65241 0.34469 0.0
N706 N 0.56665 0.60593 0.26124 0.0
N707 N 0.54939 0.6315 0.33083 0.0
H708 H 0.09422 0.74752 0.07621 0.0
H709 H 0.15542 0.86519 0.9827 0.0
H710 H 0.04821 0.81272 0.0426 0.0
H711 H 0.20246 0.81707 0.03751 0.0
H712 H 0.11569 0.84012 -0.00278 0.0
H713 H 0.1338 0.76699 0.05481 0.0
C714 C 0.09238 0.76575 0.0641 0.0
C715 C 0.06794 0.77867 0.06137 0.0
C716 C 0.13475 0.83495 0.00591 0.0
C717 C 0.11305 0.80092 0.03683 0.0
C718 C 0.15745 0.84916 -0.00243 0.0
C719 C 0.18226 0.84338 0.00912 0.0
C720 C 0.13692 0.81464 0.02572 0.0
C721 C 0.18369 0.82237 0.02828 0.0
C722 C 0.11499 0.77689 0.05199 0.0
C723 C 0.06671 0.80225 0.04544 0.0
N724 N 0.16131 0.80881 0.03605 0.0
N725 N 0.08898 0.81266 0.03382 0.0
H726 H 0.66445 0.9186 0.55548 0.0
H727 H 0.68416 -0.0007 0.7004 0.0
H728 H 0.7391 0.92323 0.59998 0.0
H729 H 0.60809 0.97144 0.66736 0.0
H730 H 0.70545 0.97901 0.65973 0.0
H731 H 0.64438 0.9457 0.59253 0.0
C732 C 0.67667 0.92549 0.57294 0.0
C733 C 0.70341 0.91843 0.57479 0.0
C734 C 0.68409 0.97753 0.66139 0.0
C735 C 0.68061 0.94947 0.61715 0.0
C736 C 0.67194 0.98916 0.6845 0.0
C737 C 0.64437 0.98682 0.68734 0.0
C738 C 0.66847 0.96381 0.64093 0.0
C739 C 0.62945 0.97347 0.66614 0.0
C740 C 0.66519 0.94089 0.5941 0.0
C741 C 0.71833 0.92799 0.59786 0.0
N742 N 0.6417 0.96244 0.64385 0.0
N743 N 0.7067 0.94298 0.6182 0.0
H744 H 0.7913 0.97617 0.32952 0.0
H745 H 0.81115 0.90613 0.47532 0.0
H746 H 0.86788 0.96262 0.36676 0.0
H747 H 0.73494 0.91515 0.4356 0.0
H748 H 0.83213 0.92952 0.43715 0.0
H749 H 0.77014 0.9567 0.36972 0.0
C750 C 0.80367 0.96922 0.34621 0.0
C751 C 0.83142 0.9709 0.34471 0.0
C752 C 0.81081 0.92645 0.43682 0.0
C753 C 0.8073 0.94852 0.39077 0.0
C754 C 0.79881 0.91311 0.45862 0.0
C755 C 0.77125 0.90856 0.45859 0.0
C756 C 0.79514 0.93534 0.41483 0.0
C757 C 0.75626 0.9181 0.43644 0.0
C758 C 0.79157 0.95807 0.36915 0.0
C759 C 0.84643 0.96163 0.36698 0.0
N760 N 0.76841 0.93097 0.41542 0.0
N761 N 0.83418 0.95075 0.38905 0.0
H762 H 0.74996 0.0009 0.05337 0.0
H763 H 0.79121 0.03767 0.20973 0.0
H764 H 0.73988 0.08032 0.09339 0.0
H765 H 0.80204 0.95758 0.17145 0.0
H766 H 0.76818 0.05191 0.16836 0.0
H767 H 0.7651 0.98299 0.09736 0.0
C768 C 0.75071 0.0145 0.07142 0.0
C769 C 0.74391 0.04222 0.06963 0.0
C770 C 0.7754 0.03114 0.16902 0.0
C771 C 0.76119 0.02192 0.1199 0.0
C772 C 0.78856 0.02299 0.19268 0.0
C773 C 0.79881 -0.00352 0.19395 0.0
C774 C 0.77257 0.01275 0.1463 0.0
C775 C 0.79457 0.97827 0.1713 0.0
C776 C 0.75937 0.00427 0.09651 0.0
C777 C 0.74517 0.05888 0.0937 0.0
N778 N 0.78199 0.98683 0.14826 0.0
N779 N 0.75381 0.04851 0.11774 0.0
H780 H 0.60993 0.0178 0.83554 0.0
H781 H 0.74867 0.03558 0.91477 0.0
H782 H 0.68082 0.97926 0.80605 0.0
H783 H 0.67349 0.05783 0.94952 0.0
H784 H 0.72497 0.01432 0.87495 0.0
H785 H 0.63357 0.03238 0.87753 0.0
C786 C 0.6305 0.01231 0.83795 0.0
C787 C 0.64348 -0.00258 0.8172 0.0
C788 C 0.71372 0.02366 0.89144 0.0
C789 C 0.67083 0.01425 0.86534 0.0
C790 C 0.72722 0.03581 0.91415 0.0
C791 C 0.71306 0.04873 0.9354 0.0
C792 C 0.68594 0.02464 0.88998 0.0
C793 C 0.68528 0.04833 0.93356 0.0
C794 C 0.64399 0.02058 0.86202 0.0
C795 C 0.67009 0.99072 0.82157 0.0
N796 N 0.67269 0.03669 0.91119 0.0
N797 N 0.68301 -0.00057 0.8451 0.0
H798 H 0.56174 0.72943 0.92693 0.0
H799 H 0.67519 0.62033 0.89978 0.0
H800 H 0.56705 0.67851 0.85301 0.0
H801 H 0.67837 0.67928 0.96797 0.0
H802 H 0.63499 0.64128 0.88305 0.0
H803 H 0.60393 0.71129 0.94302 0.0
C804 C 0.57179 0.71451 0.91406 0.0
C805 C 0.5608 0.70538 0.88863 0.0
C806 C 0.64448 0.64976 0.90162 0.0
C807 C 0.60891 0.68455 0.90693 0.0
C808 C 0.66746 0.63775 0.91124 0.0
C809 C 0.68013 0.64802 0.93537 0.0
C810 C 0.63389 0.67214 0.91629 0.0
C811 C 0.66922 0.67072 0.94926 0.0
C812 C 0.59587 0.70422 0.92324 0.0
C813 C 0.57471 0.6861 0.87277 0.0
N814 N 0.6466 0.68196 0.93959 0.0
N815 N 0.59794 0.67626 0.88224 0.0
H816 H 0.1149 0.0795 0.80619 0.0
H817 H 0.9783 0.15359 0.83859 0.0
H818 H 0.04086 0.05578 0.76572 0.0
H819 H 0.05223 0.17153 0.88183 0.0
H820 H 0.00087 0.11964 0.80956 0.0
H821 H 0.0923 0.11551 0.83172 0.0
C822 C 0.09386 0.08191 0.80259 0.0
C823 C 0.07972 0.06446 0.78389 0.0
C824 C 0.01211 0.13108 0.82538 0.0
C825 C 0.05361 0.10577 0.81325 0.0
C826 C -0.00074 0.15045 0.84194 0.0
C827 C 0.01338 0.16534 0.86274 0.0
C828 C 0.03925 0.12668 0.82965 0.0
C829 C 0.0405 0.16047 0.86614 0.0
C830 C 0.08094 0.10251 0.81723 0.0
C831 C 0.05251 0.06871 0.78 0.0
N832 N 0.05251 0.14156 0.84981 0.0
N833 N 0.04029 0.0889 0.79467 0.0
H834 H 0.92849 0.33183 0.35161 0.0
H835 H 0.82874 0.32191 0.4776 0.0
H836 H 0.93796 0.27257 0.41535 0.0
H837 H 0.8392 0.39365 0.42817 0.0
H838 H 0.86439 0.29957 0.45179 0.0
H839 H 0.89094 0.35065 0.37614 0.0
C840 C 0.92263 0.3227 0.37075 0.0
C841 C 0.9365 0.30071 0.38154 0.0
C842 C 0.85877 0.32019 0.44668 0.0
C843 C 0.89338 0.32219 0.40975 0.0
C844 C 0.83842 0.33287 0.46128 0.0
C845 C 0.83112 0.35969 0.45507 0.0
C846 C 0.87147 0.33436 0.42556 0.0
C847 C 0.8443 0.37303 0.43379 0.0
C848 C 0.9012 0.33352 0.38479 0.0
C849 C 0.92791 0.28968 0.40641 0.0
N850 N 0.86375 0.3602 0.41979 0.0
N851 N 0.90684 0.30056 0.41974 0.0
H852 H 0.52662 0.9399 0.78669 0.0
H853 H 0.51813 0.77547 0.7761 0.0
H854 H 0.56222 0.89155 0.72165 0.0
H855 H 0.4878 0.82392 0.84409 0.0
H856 H 0.52923 0.81796 0.75262 0.0
H857 H 0.50679 0.89785 0.80454 0.0
C858 C 0.53001 0.9205 0.77596 0.0
C859 C 0.54636 0.91923 0.75282 0.0
C860 C 0.51996 0.81927 0.77258 0.0
C861 C 0.5239 0.87097 0.77328 0.0
C862 C 0.51359 0.79501 0.78599 0.0
C863 C 0.50228 0.79613 0.81223 0.0
C864 C 0.51495 0.84481 0.78551 0.0
C865 C 0.49674 0.82205 0.82399 0.0
C866 C 0.51874 0.89647 0.78621 0.0
C867 C 0.54995 0.89351 0.73969 0.0
N868 N 0.50329 0.84533 0.81064 0.0
N869 N 0.53903 0.87037 0.75026 0.0
H870 H 0.93319 0.21038 0.28881 0.0
H871 H 0.94585 0.04707 0.29809 0.0
H872 H -0.00159 0.17149 0.32951 0.0
H873 H 0.87593 0.08717 0.26858 0.0
H874 H 0.96769 0.09218 0.30518 0.0
H875 H 0.91447 0.16501 0.27616 0.0
C876 C 0.94372 0.19231 0.29488 0.0
C877 C 0.96729 0.19475 0.31045 0.0
C878 C 0.9476 0.09107 0.29708 0.0
C879 C 0.94588 0.14271 0.29616 0.0
C880 C 0.93512 0.06533 0.29302 0.0
C881 C 0.90896 0.06334 0.2829 0.0
C882 C 0.93386 0.11496 0.29084 0.0
C883 C 0.89605 0.0877 0.27661 0.0
C884 C 0.93296 0.16639 0.28773 0.0
C885 C 0.98009 0.17059 0.31765 0.0
N886 N 0.90861 0.11247 0.28073 0.0
N887 N 0.96914 0.14557 0.31058 0.0
H888 H 0.53659 0.06791 0.72156 0.0
H889 H 0.57977 0.22583 0.70408 0.0
H890 H 0.60807 0.10509 0.75711 0.0
H891 H 0.50972 0.18775 0.66631 0.0
H892 H 0.58837 0.18288 0.72727 0.0
H893 H 0.52418 0.11285 0.70486 0.0
C894 C 0.54956 0.08555 0.72607 0.0
C895 C 0.57352 0.08268 0.74054 0.0
C896 C 0.57104 0.18399 0.71401 0.0
C897 C 0.55953 0.13413 0.72137 0.0
C898 C 0.56612 0.20852 0.70078 0.0
C899 C 0.54414 0.21033 0.68302 0.0
C900 C 0.55385 0.16113 0.70944 0.0
C901 C 0.52705 0.18725 0.67962 0.0
C902 C 0.54249 0.1112 0.71648 0.0
C903 C 0.58951 0.10628 0.74585 0.0
N904 N 0.53235 0.16359 0.69257 0.0
N905 N 0.58232 0.13096 0.73611 0.0
H906 H 0.15668 0.3431 0.03644 0.0
H907 H 0.09636 0.20826 0.9591 0.0
H908 H 0.20155 0.29126 0.98146 0.0
H909 H 0.04828 0.276 0.98603 0.0
H910 H 0.13576 0.23336 0.97678 0.0
H911 H 0.11746 0.31352 0.02715 0.0
C912 C 0.15836 0.32534 0.02265 0.0
C913 C 0.18233 0.31972 0.0095 0.0
C914 C 0.11653 0.24258 0.97903 0.0
C915 C 0.13773 0.28583 -0.00095 0.0
C916 C 0.09402 0.22824 0.96908 0.0
C917 C 0.06902 0.2402 0.97084 0.0
C918 C 0.11401 0.26892 0.99109 0.0
C919 C 0.06721 0.26614 0.98402 0.0
C920 C 0.13597 0.30857 0.01732 0.0
C921 C 0.18338 0.29647 0.99182 0.0
N922 N 0.08945 0.27972 0.99355 0.0
N923 N 0.16138 0.28038 0.98708 0.0
H924 H 0.40246 0.71296 0.37374 0.0
H925 H 0.3302 0.66162 0.5094 0.0
H926 H 0.44192 0.70741 0.45271 0.0
H927 H 0.29145 0.66599 0.42992 0.0
H928 H 0.3708 0.68031 0.48957 0.0
H929 H 0.36112 0.69768 0.39454 0.0
C930 C 0.40243 0.7086 0.39548 0.0
C931 C 0.42573 0.71137 0.41148 0.0
C932 C 0.35339 0.67726 0.47649 0.0
C933 C 0.37841 0.69381 0.43544 0.0
C934 C 0.33018 0.6666 0.4878 0.0
C935 C 0.30741 0.66214 0.47127 0.0
C936 C 0.35384 0.68349 0.44844 0.0
C937 C 0.30855 0.66902 0.44344 0.0
C938 C 0.3788 0.69986 0.40735 0.0
C939 C 0.42446 0.70549 0.43957 0.0
N940 N 0.3314 0.67927 0.43289 0.0
N941 N 0.4012 0.69691 0.45064 0.0
H942 H 0.83051 0.54063 0.78931 0.0
H943 H 0.79356 0.52518 0.94802 0.0
H944 H 0.86588 0.48124 0.84213 0.0
H945 H 0.76722 0.5911 0.89742 0.0
H946 H 0.81512 0.50452 0.90781 0.0
H947 H 0.80213 0.55506 0.82714 0.0
C948 C 0.83218 0.53048 0.8088 0.0
C949 C 0.8508 0.50991 0.81265 0.0
C950 C 0.80444 0.5234 0.9055 0.0
C951 C 0.81841 0.52638 0.85608 0.0
C952 C 0.79207 0.53515 0.92842 0.0
C953 C 0.77884 0.56005 0.92613 0.0
C954 C 0.80343 0.53662 0.88017 0.0
C955 C 0.77748 0.57205 0.90021 0.0
C956 C 0.81599 0.53875 0.83041 0.0
C957 C 0.85196 0.49737 0.83832 0.0
N958 N 0.78975 0.5603 0.87831 0.0
N959 N 0.83611 0.50593 0.85913 0.0
H960 H 0.70318 0.54499 0.18438 0.0
H961 H 0.67884 0.5502 0.02132 0.0
H962 H 0.63981 0.50067 0.14068 0.0
H963 H 0.74321 0.59367 0.06423 0.0
H964 H 0.6653 0.5305 0.06478 0.0
H965 H 0.7192 0.56184 0.14045 0.0
C966 C 0.69269 0.53873 0.16556 0.0
C967 C 0.67007 0.52148 0.16622 0.0
C968 C 0.68245 0.54427 0.06468 0.0
C969 C 0.68824 0.54069 0.11594 0.0
C970 C 0.6902 0.55552 0.03985 0.0
C971 C 0.71212 0.57371 0.03914 0.0
C972 C 0.69667 0.5513 0.08902 0.0
C973 C 0.72613 0.57981 0.06381 0.0
C974 C 0.70184 0.54836 0.14049 0.0
C975 C 0.65728 0.51401 0.1412 0.0
N976 N 0.7181 0.56871 0.08776 0.0
N977 N 0.6665 0.52372 0.11712 0.0
H978 H 0.72386 0.48697 0.47099 0.0
H979 H 0.71383 0.47093 0.30684 0.0
H980 H 0.75622 0.41962 0.42338 0.0
H981 H 0.68308 0.54032 0.35265 0.0
H982 H 0.73299 0.45418 0.34933 0.0
H983 H 0.71176 0.50898 0.42797 0.0
C984 C 0.72854 0.47688 0.45155 0.0
C985 C 0.74081 0.45128 0.45081 0.0
C986 C 0.72225 0.4732 0.3501 0.0
C987 C 0.72711 0.4763 0.40161 0.0
C988 C 0.71134 0.48281 0.32579 0.0
C989 C 0.6966 0.50692 0.32621 0.0
C990 C 0.71826 0.48767 0.37511 0.0
C991 C 0.69418 0.52154 0.35138 0.0
C992 C 0.72166 0.48946 0.427 0.0
C993 C 0.74653 0.43922 0.42501 0.0
N994 N 0.70465 0.51153 0.37489 0.0
N995 N 0.73951 0.45175 0.40152 0.0
H996 H 0.88793 0.51684 0.66613 0.0
H997 H 0.79934 0.40118 0.5862 0.0
H998 H 0.86935 0.43702 0.6985 0.0
H999 H 0.82887 0.47438 0.54745 0.0
H1000 H 0.82238 0.41581 0.62862 0.0
H1001 H 0.8642 0.50325 0.62349 0.0
C1002 C 0.87888 0.49646 0.66428 0.0
C1003 C 0.88064 0.47802 0.68592 0.0
C1004 C 0.82385 0.4287 0.61086 0.0
C1005 C 0.85339 0.46244 0.63727 0.0
C1006 C 0.81062 0.4204 0.5866 0.0
C1007 C 0.81223 0.43655 0.56316 0.0
C1008 C 0.83875 0.45342 0.61184 0.0
C1009 C 0.82714 0.46126 0.565 0.0
C1010 C 0.86537 0.48873 0.63992 0.0
C1011 C 0.86855 0.45189 0.68236 0.0
N1012 N 0.83984 0.46896 0.58895 0.0
N1013 N 0.8554 0.44492 0.65854 0.0
H1014 H 0.39121 0.10399 0.26664 0.0
H1015 H 0.52459 0.16182 0.19982 0.0
H1016 H 0.46084 0.0553 0.25442 0.0
H1017 H 0.45141 0.20605 0.20324 0.0
H1018 H 0.50383 0.125 0.22589 0.0
H1019 H 0.41532 0.14389 0.24959 0.0
C1020 C 0.41164 0.10171 0.26055 0.0
C1021 C 0.42393 0.07618 0.26165 0.0
C1022 C 0.49241 0.14288 0.22111 0.0
C1023 C 0.45164 0.12182 0.24201 0.0
C1024 C 0.50426 0.16393 0.20629 0.0
C1025 C 0.48961 0.18689 0.19908 0.0
C1026 C 0.46577 0.14488 0.22882 0.0
C1027 C 0.46337 0.18858 0.20809 0.0
C1028 C 0.4254 0.12453 0.2508 0.0
C1029 C 0.45052 0.07455 0.2537 0.0
N1030 N 0.45225 0.16778 0.22233 0.0
N1031 N 0.46344 0.09702 0.24401 0.0
H1032 H 0.01334 0.85202 0.65057 0.0
H1033 H 0.09573 0.90454 0.78449 0.0
H1034 H 0.03689 0.79854 0.71553 0.0
H1035 H 0.07943 0.95443 0.71439 0.0
H1036 H 0.06934 0.86688 0.76265 0.0
H1037 H 0.03232 0.89118 0.67696 0.0
C1038 C 0.02233 0.84852 0.67049 0.0
C1039 C 0.02379 0.82192 0.68071 0.0
C1040 C 0.07143 0.88615 0.75217 0.0
C1041 C 0.04572 0.86671 0.71103 0.0
C1042 C 0.08644 0.90766 0.76463 0.0
C1043 C 0.09002 0.93256 0.75111 0.0
C1044 C 0.05985 0.88967 0.72608 0.0
C1045 C 0.07746 0.9355 0.72545 0.0
C1046 C 0.0332 0.87091 0.68555 0.0
C1047 C 0.03549 0.81868 0.70677 0.0
N1048 N 0.06306 0.91428 0.71374 0.0
N1049 N 0.04621 0.84081 0.72096 0.0
H1050 H 0.50404 0.84333 0.39191 0.0
H1051 H 0.43165 0.88911 0.25358 0.0
H1052 H 0.48073 0.78645 0.32568 0.0
H1053 H 0.4517 0.94418 0.32235 0.0
H1054 H 0.45367 0.85199 0.27729 0.0
H1055 H 0.48904 0.88125 0.36436 0.0
C1056 C 0.49589 0.83881 0.37151 0.0
C1057 C 0.49341 0.81165 0.36119 0.0
C1058 C 0.45339 0.87227 0.28707 0.0
C1059 C 0.47609 0.85502 0.32951 0.0
C1060 C 0.44089 0.89347 0.27352 0.0
C1061 C 0.43961 0.91972 0.28611 0.0
C1062 C 0.46471 0.87741 0.31335 0.0
C1063 C 0.45196 0.92421 0.31195 0.0
C1064 C 0.48732 0.8605 0.35576 0.0
C1065 C 0.48287 0.80707 0.33452 0.0
N1066 N 0.46384 0.90324 0.32475 0.0
N1067 N 0.47442 0.82854 0.31966 0.0
H1068 H 0.85163 0.61872 -0.00156 0.0
H1069 H 0.9153 0.75991 0.05849 0.0
H1070 H 0.80739 0.69337 0.00696 0.0
H1071 H 0.9602 0.68724 0.04019 0.0
H1072 H 0.87587 0.73682 0.03823 0.0
H1073 H 0.89179 0.64422 0.01252 0.0
C1074 C 0.85036 0.64053 0.00323 0.0
C1075 C 0.82607 0.65391 0.00171 0.0
C1076 C 0.89441 0.72603 0.03845 0.0
C1077 C 0.87212 0.6833 0.01792 0.0
C1078 C 0.91693 0.73919 0.05001 0.0
C1079 C 0.94105 0.72539 0.05123 0.0
C1080 C 0.89599 0.69884 0.02821 0.0
C1081 C 0.94202 0.69863 0.03983 0.0
C1082 C 0.87336 0.65512 0.0112 0.0
C1083 C 0.82569 0.68224 0.00795 0.0
N1084 N 0.91977 0.68617 0.029 0.0
N1085 N 0.84838 0.69599 0.01599 0.0
H1086 H 0.5811 0.27892 0.56869 0.0
H1087 H 0.68968 0.40138 0.57292 0.0
H1088 H 0.58582 0.34367 0.63134 0.0
H1089 H 0.69627 0.32947 0.51947 0.0
H1090 H 0.64948 0.38161 0.59201 0.0
H1091 H 0.6213 0.29815 0.54787 0.0
C1092 C 0.59053 0.29717 0.57802 0.0
C1093 C 0.5801 0.3097 0.6018 0.0
C1094 C 0.65968 0.37007 0.57614 0.0
C1095 C 0.62586 0.33174 0.57813 0.0
C1096 C 0.68266 0.38139 0.56516 0.0
C1097 C 0.69642 0.36704 0.54459 0.0
C1098 C 0.65017 0.3442 0.56644 0.0
C1099 C 0.68632 0.3412 0.53538 0.0
C1100 C 0.61348 0.30807 0.56619 0.0
C1101 C 0.59314 0.33326 0.61307 0.0
N1102 N 0.66373 0.33059 0.54635 0.0
N1103 N 0.61525 0.3435 0.60111 0.0
H1104 H 0.2525 0.43041 0.0629 0.0
H1105 H 0.12445 0.49954 0.12521 0.0
H1106 H 0.1808 0.44272 0.01585 0.0
H1107 H 0.19963 0.49843 0.16851 0.0
H1108 H 0.14592 0.48225 0.08369 0.0
H1109 H 0.23498 0.45888 0.10035 0.0
C1110 C 0.23321 0.43939 0.06029 0.0
C1111 C 0.21794 0.43388 0.03635 0.0
C1112 C 0.15781 0.48606 0.10217 0.0
C1113 C 0.19767 0.46625 0.07925 0.0
C1114 C 0.14554 0.49588 0.12593 0.0
C1115 C 0.16021 0.50011 0.15046 0.0
C1116 C 0.1849 0.48013 0.10301 0.0
C1117 C 0.18752 0.49527 0.1501 0.0
C1118 C 0.22322 0.45565 0.0817 0.0
C1119 C 0.19318 0.44622 0.03402 0.0
N1120 N 0.19893 0.48521 0.12683 0.0
N1121 N 0.18366 0.46153 0.05537 0.0
H1122 H 0.27505 0.47465 0.79693 0.0
H1123 H 0.29335 0.36874 0.9141 0.0
H1124 H 0.31867 0.40037 0.78278 0.0
H1125 H 0.2189 0.40949 0.90413 0.0
H1126 H 0.3067 0.38439 0.86867 0.0
H1127 H 0.25722 0.45523 0.83918 0.0
C1128 C 0.28066 0.45418 0.80262 0.0
C1129 C 0.29829 0.43903 0.78642 0.0
C1130 C 0.28739 0.38971 0.87641 0.0
C1131 C 0.27859 0.41716 0.83472 0.0
C1132 C 0.27983 0.38096 0.90231 0.0
C1133 C 0.25502 0.38788 0.91278 0.0
C1134 C 0.27028 0.40608 0.86129 0.0
C1135 C 0.23816 0.40364 0.89668 0.0
C1136 C 0.27046 0.44314 0.82659 0.0
C1137 C 0.30499 0.41263 0.79463 0.0
N1138 N 0.24625 0.41257 0.87181 0.0
N1139 N 0.29544 0.40267 0.81849 0.0
H1140 H 0.29507 0.54317 0.509 0.0
H1141 H 0.28146 0.52137 0.67097 0.0
H1142 H 0.23616 0.58208 0.55968 0.0
H1143 H 0.34609 0.49044 0.62251 0.0
H1144 H 0.26124 0.53866 0.62914 0.0
H1145 H 0.3107 0.51873 0.54918 0.0
C1146 C 0.28528 0.54642 0.52851 0.0
C1147 C 0.26443 0.56488 0.53104 0.0
C1148 C 0.27976 0.52794 0.62763 0.0
C1149 C 0.28223 0.53703 0.57706 0.0
C1150 C 0.2913 0.51801 0.65151 0.0
C1151 C 0.31565 0.50467 0.65028 0.0
C1152 C 0.29264 0.52451 0.60233 0.0
C1153 C 0.32742 0.5008 0.62446 0.0
C1154 C 0.29425 0.53249 0.55144 0.0
C1155 C 0.25243 0.56821 0.55681 0.0
N1156 N 0.31588 0.51083 0.60153 0.0
N1157 N 0.2616 0.55454 0.57884 0.0
H1158 H 0.1702 0.53097 0.27009 0.0
H1159 H 0.17117 0.5801 0.42852 0.0
H1160 H 0.10138 0.528 0.32198 0.0
H1161 H 0.24114 0.57986 0.37821 0.0
H1162 H 0.14588 0.55873 0.39025 0.0
H1163 H 0.1971 0.54653 0.30994 0.0
C1164 C 0.16077 0.53342 0.28989 0.0
C1165 C 0.13346 0.52836 0.29268 0.0
C1166 C 0.16679 0.56321 0.38759 0.0
C1167 C 0.16411 0.54626 0.33832 0.0
C1168 C 0.18126 0.57545 0.40945 0.0
C1169 C 0.20829 0.58196 0.4065 0.0
C1170 C 0.17937 0.55753 0.3625 0.0
C1171 C 0.22032 0.5753 0.38136 0.0
C1172 C 0.17615 0.54232 0.31264 0.0
C1173 C 0.12233 0.53179 0.31884 0.0
N1174 N 0.20573 0.5636 0.36025 0.0
N1175 N 0.13767 0.54068 0.34061 0.0
loop_
_geom_bond_atom_site_label_1
_geom_bond_atom_site_label_2
_geom_bond_distance
_geom_bond_site_symmetry_2
_ccdc_geom_bond_type
C0 O1 1.160 . S
C0 O7 1.185 . S
O1 C0 1.160 . S
O2 Zn3 1.898 1_655 S
O2 C10 1.284 . S
Zn3 O2 1.898 1_455 S
Zn3 O4 2.032 . S
Zn3 O7 2.085 1_455 S
Zn3 O12 1.979 . S
O4 Zn3 2.032 . S
O4 C8 1.278 . S
C5 O6 1.203 . S
C5 O12 1.267 . S
O6 C5 1.203 . S
O7 C0 1.185 . S
O7 Zn3 2.085 1_655 S
C8 O4 1.278 . S
C8 O9 1.211 . S
O9 C8 1.211 . S
C10 O2 1.284 . S
C10 O11 1.273 1_655 S
O11 C10 1.273 1_455 S
O12 Zn3 1.979 . S
O12 C5 1.267 . S
C13 O14 1.160 . S
C13 O20 1.185 . S
O14 C13 1.160 . S
O15 Zn16 1.899 1_655 S
O15 C23 1.284 . S
Zn16 O15 1.899 1_455 S
Zn16 O17 2.032 . S
Zn16 O20 2.086 . S
Zn16 O25 1.977 1_455 S
O17 Zn16 2.032 . S
O17 C21 1.278 . S
C18 O19 1.203 . S
C18 O25 1.267 . S
O19 C18 1.203 . S
O20 C13 1.185 . S
O20 Zn16 2.086 . S
C21 O17 1.278 . S
C21 O22 1.207 . S
O22 C21 1.207 . S
C23 O15 1.284 . S
C23 O24 1.273 . S
O24 C23 1.273 . S
O25 Zn16 1.977 1_655 S
O25 C18 1.267 . S
C26 O27 1.160 . S
C26 O33 1.185 . S
O27 C26 1.160 . S
O28 Zn29 1.899 . S
O28 C36 1.284 . S
Zn29 O28 1.899 . S
Zn29 O30 2.032 . S
Zn29 O33 2.086 . S
Zn29 O38 1.977 . S
O30 Zn29 2.032 . S
O30 C34 1.278 . S
C31 O32 1.203 . S
C31 O38 1.267 . S
O32 C31 1.203 . S
O33 C26 1.185 . S
O33 Zn29 2.086 . S
C34 O30 1.278 . S
C34 O35 1.211 . S
O35 C34 1.211 . S
C36 O28 1.284 . S
C36 O37 1.273 . S
O37 C36 1.273 . S
O38 Zn29 1.977 . S
O38 C31 1.267 . S
C39 O40 1.160 . S
C39 O46 1.185 . S
O40 C39 1.160 . S
O41 Zn42 1.899 . S
O41 C49 1.284 . S
Zn42 O41 1.899 . S
Zn42 O43 2.032 . S
Zn42 O46 2.086 . S
Zn42 O51 1.977 . S
O43 Zn42 2.032 . S
O43 C47 1.278 . S
C44 O45 1.203 . S
C44 O51 1.267 . S
O45 C44 1.203 . S
O46 C39 1.185 . S
O46 Zn42 2.086 . S
C47 O43 1.278 . S
C47 O48 1.211 . S
O48 C47 1.211 . S
C49 O41 1.284 . S
C49 O50 1.273 . S
O50 C49 1.273 . S
O51 Zn42 1.977 . S
O51 C44 1.267 . S
C52 O53 1.160 . S
C52 O59 1.185 . S
O53 C52 1.160 . S
O54 Zn55 1.899 . S
O54 C62 1.284 . S
Zn55 O54 1.899 . S
Zn55 O56 2.032 . S
Zn55 O59 2.086 . S
Zn55 O64 1.977 1_455 S
O56 Zn55 2.032 . S
O56 C60 1.278 1_455 S
C57 O58 1.203 . S
C57 O64 1.267 . S
O58 C57 1.203 . S
O59 C52 1.185 . S
O59 Zn55 2.086 . S
C60 O56 1.278 1_655 S
C60 O61 1.211 . S
O61 C60 1.211 . S
C62 O54 1.284 . S
C62 O63 1.273 . S
O63 C62 1.273 . S
O64 Zn55 1.977 1_655 S
O64 C57 1.267 . S
C65 O66 1.160 . S
C65 O72 1.185 . S
O66 C65 1.160 . S
O67 Zn68 1.899 . S
O67 C75 1.284 . S
Zn68 O67 1.899 . S
Zn68 O69 2.032 . S
Zn68 O72 2.086 . S
Zn68 O77 1.977 . S
O69 Zn68 2.032 . S
O69 C73 1.278 . S
C70 O71 1.203 . S
C70 O77 1.267 . S
O71 C70 1.203 . S
O72 C65 1.185 . S
O72 Zn68 2.086 . S
C73 O69 1.278 . S
C73 O74 1.211 . S
O74 C73 1.211 . S
C75 O67 1.284 . S
C75 O76 1.273 . S
O76 C75 1.273 . S
O77 Zn68 1.977 . S
O77 C70 1.267 . S
C78 O79 1.160 . S
C78 O85 1.185 . S
O79 C78 1.160 . S
O80 Zn81 1.899 . S
O80 C88 1.284 . S
Zn81 O80 1.899 . S
Zn81 O82 2.032 . S
Zn81 O85 2.086 . S
Zn81 O90 1.977 . S
O82 Zn81 2.032 . S
O82 C86 1.278 . S
C83 O84 1.203 . S
C83 O90 1.267 . S
O84 C83 1.203 . S
O85 C78 1.185 . S
O85 Zn81 2.086 . S
C86 O82 1.278 . S
C86 O87 1.211 . S
O87 C86 1.211 . S
C88 O80 1.284 . S
C88 O89 1.273 . S
O89 C88 1.273 . S
O90 Zn81 1.977 . S
O90 C83 1.267 . S
C91 O92 1.160 . S
C91 O98 1.185 . S
O92 C91 1.160 . S
O93 Zn94 1.899 . S
O93 C101 1.284 . S
Zn94 O93 1.899 . S
Zn94 O95 2.032 1_455 S
Zn94 O98 2.086 1_455 S
Zn94 O103 1.977 . S
O95 Zn94 2.032 1_655 S
O95 C99 1.278 . S
C96 O97 1.203 . S
C96 O103 1.267 . S
O97 C96 1.203 . S
O98 C91 1.185 . S
O98 Zn94 2.086 1_655 S
C99 O95 1.278 . S
C99 O100 1.211 1_655 S
O100 C99 1.211 1_455 S
C101 O93 1.284 . S
C101 O102 1.273 . S
O102 C101 1.273 . S
O103 Zn94 1.977 . S
O103 C96 1.267 . S
C104 O105 1.160 . S
C104 O111 1.185 . S
O105 C104 1.160 . S
O106 Zn107 1.899 1_565 S
O106 C114 1.284 . S
Zn107 O106 1.899 1_545 S
Zn107 O108 2.032 . S
Zn107 O111 2.086 1_545 S
Zn107 O116 1.977 . S
O108 Zn107 2.032 . S
O108 C112 1.278 . S
C109 O110 1.203 . S
C109 O116 1.267 . S
O110 C109 1.203 . S
O111 C104 1.185 . S
O111 Zn107 2.086 1_565 S
C112 O108 1.278 . S
C112 O113 1.211 . S
O113 C112 1.211 . S
C114 O106 1.284 . S
C114 O115 1.273 1_565 S
O115 C114 1.273 1_545 S
O116 Zn107 1.977 . S
O116 C109 1.267 . S
C117 O118 1.160 . S
C117 O124 1.185 . S
O118 C117 1.160 . S
O119 Zn120 1.899 . S
O119 C127 1.284 . S
Zn120 O119 1.899 . S
Zn120 O121 2.032 . S
Zn120 O124 2.086 . S
Zn120 O129 1.977 . S
O121 Zn120 2.032 . S
O121 C125 1.278 . S
C122 O123 1.203 . S
C122 O129 1.267 . S
O123 C122 1.203 . S
O124 C117 1.185 . S
O124 Zn120 2.086 . S
C125 O121 1.278 . S
C125 O126 1.211 . S
O126 C125 1.211 . S
C127 O119 1.284 . S
C127 O128 1.273 . S
O128 C127 1.273 . S
O129 Zn120 1.977 . S
O129 C122 1.267 . S
C130 O131 1.160 . S
C130 O137 1.185 . S
O131 C130 1.160 . S
O132 Zn133 1.899 . S
O132 C140 1.284 . S
Zn133 O132 1.899 . S
Zn133 O134 2.032 1_545 S
Zn133 O137 2.086 . S
Zn133 O142 1.977 1_545 S
O134 Zn133 2.032 1_565 S
O134 C138 1.278 . S
C135 O136 1.203 . S
C135 O142 1.267 . S
O136 C135 1.203 . S
O137 C130 1.185 . S
O137 Zn133 2.086 . S
C138 O134 1.278 . S
C138 O139 1.211 . S
O139 C138 1.211 . S
C140 O132 1.284 . S
C140 O141 1.273 . S
O141 C140 1.273 . S
O142 Zn133 1.977 1_565 S
O142 C135 1.267 . S
C143 O144 1.160 . S
C143 O150 1.185 . S
O144 C143 1.160 . S
O145 Zn146 1.899 . S
O145 C153 1.284 . S
Zn146 O145 1.899 . S
Zn146 O147 2.032 1_554 S
Zn146 O150 2.086 1_554 S
Zn146 O155 1.977 . S
O147 Zn146 2.032 1_556 S
O147 C151 1.278 . S
C148 O149 1.203 . S
C148 O155 1.267 . S
O149 C148 1.203 . S
O150 C143 1.185 . S
O150 Zn146 2.086 1_556 S
C151 O147 1.278 . S
C151 O152 1.211 . S
O152 C151 1.211 . S
C153 O145 1.284 . S
C153 O154 1.273 . S
O154 C153 1.273 . S
O155 Zn146 1.977 . S
O155 C148 1.267 . S
C156 O157 1.160 . S
C156 O163 1.185 . S
O157 C156 1.160 . S
O158 Zn159 1.899 . S
O158 C166 1.284 . S
Zn159 O158 1.899 . S
Zn159 O160 2.032 1_554 S
Zn159 O163 2.086 . S
Zn159 O168 1.977 1_554 S
O160 Zn159 2.032 1_556 S
O160 C164 1.278 . S
C161 O162 1.204 . S
C161 O168 1.267 . S
O162 C161 1.204 . S
O163 C156 1.185 . S
O163 Zn159 2.086 . S
C164 O160 1.278 . S
C164 O165 1.211 . S
O165 C164 1.211 . S
C166 O158 1.284 . S
C166 O167 1.273 . S
O167 C166 1.273 . S
O168 Zn159 1.977 1_556 S
O168 C161 1.267 . S
C169 O170 1.160 . S
C169 O176 1.185 . S
O170 C169 1.160 . S
O171 Zn172 1.899 . S
O171 C179 1.284 . S
Zn172 O171 1.899 . S
Zn172 O173 2.032 1_554 S
Zn172 O176 2.086 . S
Zn172 O181 1.977 1_554 S
O173 Zn172 2.032 1_556 S
O173 C177 1.278 . S
C174 O175 1.203 . S
C174 O181 1.267 . S
O175 C174 1.203 . S
O176 C169 1.185 . S
O176 Zn172 2.086 . S
C177 O173 1.278 . S
C177 O178 1.211 . S
O178 C177 1.211 . S
C179 O171 1.284 . S
C179 O180 1.273 . S
O180 C179 1.273 . S
O181 Zn172 1.977 1_556 S
O181 C174 1.267 . S
C182 O183 1.160 . S
C182 O189 1.185 . S
O183 C182 1.160 . S
O184 Zn185 1.899 . S
O184 C192 1.284 . S
Zn185 O184 1.899 . S
Zn185 O186 2.032 . S
Zn185 O189 2.086 . S
Zn185 O194 1.977 . S
O186 Zn185 2.032 . S
O186 C190 1.278 . S
C187 O188 1.203 . S
C187 O194 1.267 . S
O188 C187 1.203 . S
O189 C182 1.185 . S
O189 Zn185 2.086 . S
C190 O186 1.278 . S
C190 O191 1.211 . S
O191 C190 1.211 . S
C192 O184 1.284 . S
C192 O193 1.273 . S
O193 C192 1.273 . S
O194 Zn185 1.977 . S
O194 C187 1.267 . S
C195 O196 1.160 . S
C195 O202 1.185 . S
O196 C195 1.160 . S
O197 Zn198 1.899 . S
O197 C205 1.284 . S
Zn198 O197 1.899 . S
Zn198 O199 2.032 . S
Zn198 O202 2.086 . S
Zn198 O207 1.977 . S
O199 Zn198 2.032 . S
O199 C203 1.278 . S
C200 O201 1.203 . S
C200 O207 1.267 . S
O201 C200 1.203 . S
O202 C195 1.185 . S
O202 Zn198 2.086 . S
C203 O199 1.278 . S
C203 O204 1.211 . S
O204 C203 1.211 . S
C205 O197 1.284 . S
C205 O206 1.273 . S
O206 C205 1.273 . S
O207 Zn198 1.977 . S
O207 C200 1.267 . S
C208 O209 1.160 . S
C208 O215 1.185 . S
O209 C208 1.160 . S
O210 Zn211 1.899 . S
O210 C218 1.284 . S
Zn211 O210 1.899 . S
Zn211 O212 2.032 1_565 S
Zn211 O215 2.086 1_565 S
Zn211 O220 1.977 . S
O212 Zn211 2.032 1_545 S
O212 C216 1.278 . S
C213 O214 1.203 . S
C213 O220 1.267 . S
O214 C213 1.203 . S
O215 C208 1.185 . S
O215 Zn211 2.086 1_545 S
C216 O212 1.278 . S
C216 O217 1.211 . S
O217 C216 1.211 . S
C218 O210 1.284 . S
C218 O219 1.273 . S
O219 C218 1.273 . S
O220 Zn211 1.977 . S
O220 C213 1.267 . S
C221 O222 1.160 . S
C221 O228 1.185 . S
O222 C221 1.160 . S
O223 Zn224 1.899 . S
O223 C231 1.284 . S
Zn224 O223 1.899 . S
Zn224 O225 2.032 . S
Zn224 O228 2.086 . S
Zn224 O233 1.977 . S
O225 Zn224 2.032 . S
O225 C229 1.278 . S
C226 O227 1.203 . S
C226 O233 1.267 . S
O227 C226 1.203 . S
O228 C221 1.185 . S
O228 Zn224 2.086 . S
C229 O225 1.278 . S
C229 O230 1.211 . S
O230 C229 1.211 . S
C231 O223 1.284 . S
C231 O232 1.273 . S
O232 C231 1.273 . S
O233 Zn224 1.977 . S
O233 C226 1.267 . S
C234 O235 1.160 . S
C234 O241 1.185 . S
O235 C234 1.160 . S
O236 Zn237 1.899 . S
O236 C244 1.284 . S
Zn237 O236 1.899 . S
Zn237 O238 2.032 . S
Zn237 O241 2.086 . S
Zn237 O246 1.977 . S
O238 Zn237 2.032 . S
O238 C242 1.278 . S
C239 O240 1.203 . S
C239 O246 1.267 . S
O240 C239 1.203 . S
O241 C234 1.185 . S
O241 Zn237 2.086 . S
C242 O238 1.278 . S
C242 O243 1.211 . S
O243 C242 1.211 . S
C244 O236 1.284 . S
C244 O245 1.273 . S
O245 C244 1.273 . S
O246 Zn237 1.977 . S
O246 C239 1.267 . S
C247 O248 1.160 . S
C247 O254 1.185 . S
O248 C247 1.160 . S
O249 Zn250 1.899 1_565 S
O249 C257 1.284 . S
Zn250 O249 1.899 1_545 S
Zn250 O251 2.032 . S
Zn250 O254 2.086 . S
Zn250 O259 1.977 1_545 S
O251 Zn250 2.032 . S
O251 C255 1.278 . S
C252 O253 1.203 . S
C252 O259 1.267 . S
O253 C252 1.203 . S
O254 C247 1.185 . S
O254 Zn250 2.086 . S
C255 O251 1.278 . S
C255 O256 1.211 1_545 S
O256 C255 1.211 1_565 S
C257 O249 1.284 . S
C257 O258 1.273 . S
O258 C257 1.273 . S
O259 Zn250 1.977 1_565 S
O259 C252 1.267 . S
C260 O261 1.160 . S
C260 O267 1.185 . S
O261 C260 1.160 . S
O262 Zn263 1.899 . S
O262 C270 1.284 . S
Zn263 O262 1.899 . S
Zn263 O264 2.032 1_554 S
Zn263 O267 2.086 1_554 S
Zn263 O272 1.977 . S
O264 Zn263 2.032 1_556 S
O264 C268 1.278 . S
C265 O266 1.203 . S
C265 O272 1.267 . S
O266 C265 1.203 . S
O267 C260 1.185 . S
O267 Zn263 2.086 1_556 S
C268 O264 1.278 . S
C268 O269 1.211 . S
O269 C268 1.211 . S
C270 O262 1.284 . S
C270 O271 1.273 . S
O271 C270 1.273 . S
O272 Zn263 1.977 . S
O272 C265 1.267 . S
C273 O274 1.160 . S
C273 O280 1.185 . S
O274 C273 1.160 . S
O275 Zn276 1.899 . S
O275 C283 1.284 . S
Zn276 O275 1.899 . S
Zn276 O277 2.032 . S
Zn276 O280 2.086 . S
Zn276 O285 1.977 . S
O277 Zn276 2.032 . S
O277 C281 1.278 . S
C278 O279 1.203 . S
C278 O285 1.267 . S
O279 C278 1.203 . S
O280 C273 1.185 . S
O280 Zn276 2.086 . S
C281 O277 1.278 . S
C281 O282 1.211 . S
O282 C281 1.211 . S
C283 O275 1.284 . S
C283 O284 1.273 . S
O284 C283 1.273 . S
O285 Zn276 1.977 . S
O285 C278 1.267 . S
C286 O287 1.160 . S
C286 O293 1.185 . S
O287 C286 1.160 . S
O288 Zn289 1.899 . S
O288 C296 1.284 . S
Zn289 O288 1.899 . S
Zn289 O290 2.032 . S
Zn289 O293 2.086 . S
Zn289 O298 1.977 . S
O290 Zn289 2.032 . S
O290 C294 1.278 . S
C291 O292 1.203 . S
C291 O298 1.267 . S
O292 C291 1.203 . S
O293 C286 1.185 . S
O293 Zn289 2.086 . S
C294 O290 1.278 . S
C294 O295 1.211 . S
O295 C294 1.211 . S
C296 O288 1.284 . S
C296 O297 1.273 . S
O297 C296 1.273 . S
O298 Zn289 1.977 . S
O298 C291 1.267 . S
C299 O300 1.160 . S
C299 O306 1.185 . S
O300 C299 1.160 . S
O301 Zn302 1.899 . S
O301 C309 1.284 . S
Zn302 O301 1.899 . S
Zn302 O303 2.032 . S
Zn302 O306 2.086 . S
Zn302 O311 1.977 . S
O303 Zn302 2.032 . S
O303 C307 1.278 . S
C304 O305 1.203 . S
C304 O311 1.267 . S
O305 C304 1.203 . S
O306 C299 1.185 . S
O306 Zn302 2.086 . S
C307 O303 1.278 . S
C307 O308 1.211 . S
O308 C307 1.211 . S
C309 O301 1.284 . S
C309 O310 1.273 . S
O310 C309 1.273 . S
O311 Zn302 1.977 . S
O311 C304 1.267 . S
H312 C318 0.930 . S
H313 C322 0.930 . S
H314 C327 0.929 . S
H315 C325 0.929 . S
H316 C320 0.929 . S
H317 C326 0.929 . S
C318 H312 0.930 . S
C318 C319 1.367 . S
C318 C326 1.378 . S
C319 C318 1.367 . S
C319 C327 1.433 . S
C320 H316 0.929 . S
C320 C322 1.378 . S
C320 C324 1.350 . S
C321 C324 1.463 . S
C321 C326 1.350 . S
C321 N329 1.427 . S
C322 H313 0.930 . S
C322 C320 1.378 . S
C322 C323 1.367 . S
C323 C322 1.367 . S
C323 C325 1.433 . S
C324 C320 1.350 . S
C324 C321 1.463 . S
C324 N328 1.427 . S
C325 H315 0.929 . S
C325 C323 1.433 . S
C325 N328 1.384 . S
C326 H317 0.929 . S
C326 C318 1.378 . S
C326 C321 1.350 . S
C327 H314 0.929 . S
C327 C319 1.433 . S
C327 N329 1.384 . S
N328 C324 1.427 . S
N328 C325 1.384 . S
N329 C321 1.427 . S
N329 C327 1.384 . S
H330 C336 0.930 . S
H331 C340 0.930 . S
H332 C345 0.929 . S
H333 C343 0.929 . S
H334 C338 0.929 . S
H335 C344 0.929 . S
C336 H330 0.930 . S
C336 C337 1.367 . S
C336 C344 1.378 . S
C337 C336 1.367 . S
C337 C345 1.433 . S
C338 H334 0.929 . S
C338 C340 1.378 . S
C338 C342 1.350 . S
C339 C342 1.463 . S
C339 C344 1.350 . S
C339 N347 1.427 . S
C340 H331 0.930 . S
C340 C338 1.378 . S
C340 C341 1.367 . S
C341 C340 1.367 . S
C341 C343 1.433 . S
C342 C338 1.350 . S
C342 C339 1.463 . S
C342 N346 1.427 . S
C343 H333 0.929 . S
C343 C341 1.433 . S
C343 N346 1.384 . S
C344 H335 0.929 . S
C344 C336 1.378 . S
C344 C339 1.350 . S
C345 H332 0.929 . S
C345 C337 1.433 . S
C345 N347 1.384 . S
N346 C342 1.427 . S
N346 C343 1.384 . S
N347 C339 1.427 . S
N347 C345 1.384 . S
H348 C354 0.930 . S
H349 C358 0.930 . S
H350 C363 0.929 . S
H351 C361 0.929 . S
H352 C356 0.929 . S
H353 C362 0.929 . S
C354 H348 0.930 . S
C354 C355 1.367 . S
C354 C362 1.378 . S
C355 C354 1.367 . S
C355 C363 1.433 . S
C356 H352 0.929 . S
C356 C358 1.378 . S
C356 C360 1.350 . S
C357 C360 1.463 . S
C357 C362 1.350 . S
C357 N365 1.427 . S
C358 H349 0.930 . S
C358 C356 1.378 . S
C358 C359 1.367 . S
C359 C358 1.367 . S
C359 C361 1.433 . S
C360 C356 1.350 . S
C360 C357 1.463 . S
C360 N364 1.427 . S
C361 H351 0.929 . S
C361 C359 1.433 . S
C361 N364 1.384 . S
C362 H353 0.929 . S
C362 C354 1.378 . S
C362 C357 1.350 . S
C363 H350 0.929 . S
C363 C355 1.433 . S
C363 N365 1.384 . S
N364 C360 1.427 . S
N364 C361 1.384 . S
N365 C357 1.427 . S
N365 C363 1.384 . S
H366 C372 0.930 . S
H367 C376 0.930 . S
H368 C381 0.929 . S
H369 C379 0.929 . S
H370 C374 0.929 . S
H371 C380 0.929 . S
C372 H366 0.930 . S
C372 C373 1.367 . S
C372 C380 1.378 . S
C373 C372 1.367 . S
C373 C381 1.433 . S
C374 H370 0.929 . S
C374 C376 1.378 . S
C374 C378 1.350 . S
C375 C378 1.463 . S
C375 C380 1.350 . S
C375 N383 1.427 . S
C376 H367 0.930 . S
C376 C374 1.378 . S
C376 C377 1.367 . S
C377 C376 1.367 . S
C377 C379 1.433 . S
C378 C374 1.350 . S
C378 C375 1.463 . S
C378 N382 1.427 . S
C379 H369 0.929 . S
C379 C377 1.433 . S
C379 N382 1.384 . S
C380 H371 0.929 . S
C380 C372 1.378 . S
C380 C375 1.350 . S
C381 H368 0.929 . S
C381 C373 1.433 . S
C381 N383 1.384 . S
N382 C378 1.427 . S
N382 C379 1.384 . S
N383 C375 1.427 . S
N383 C381 1.384 . S
H384 C390 0.930 . S
H385 C394 0.930 . S
H386 C399 0.929 . S
H387 C397 0.929 . S
H388 C392 0.929 . S
H389 C398 0.929 . S
C390 H384 0.930 . S
C390 C391 1.367 . S
C390 C398 1.378 . S
C391 C390 1.367 . S
C391 C399 1.433 . S
C392 H388 0.929 . S
C392 C394 1.378 . S
C392 C396 1.350 . S
C393 C396 1.463 . S
C393 C398 1.350 . S
C393 N401 1.427 . S
C394 H385 0.930 . S
C394 C392 1.378 . S
C394 C395 1.367 . S
C395 C394 1.367 . S
C395 C397 1.433 . S
C396 C392 1.350 . S
C396 C393 1.463 . S
C396 N400 1.427 . S
C397 H387 0.929 . S
C397 C395 1.433 . S
C397 N400 1.384 . S
C398 H389 0.929 . S
C398 C390 1.378 . S
C398 C393 1.350 . S
C399 H386 0.929 . S
C399 C391 1.433 . S
C399 N401 1.384 . S
N400 C396 1.427 . S
N400 C397 1.384 . S
N401 C393 1.427 . S
N401 C399 1.384 . S
H402 C408 0.930 . S
H403 C412 0.930 . S
H404 C417 0.929 . S
H405 C415 0.929 . S
H406 C410 0.929 . S
H407 C416 0.929 . S
C408 H402 0.930 . S
C408 C409 1.367 . S
C408 C416 1.378 . S
C409 C408 1.367 . S
C409 C417 1.433 . S
C410 H406 0.929 . S
C410 C412 1.378 . S
C410 C414 1.350 . S
C411 C414 1.463 . S
C411 C416 1.350 . S
C411 N419 1.427 . S
C412 H403 0.930 . S
C412 C410 1.378 . S
C412 C413 1.367 . S
C413 C412 1.367 . S
C413 C415 1.433 . S
C414 C410 1.350 . S
C414 C411 1.463 . S
C414 N418 1.427 . S
C415 H405 0.929 . S
C415 C413 1.433 . S
C415 N418 1.384 . S
C416 H407 0.929 . S
C416 C408 1.378 . S
C416 C411 1.350 . S
C417 H404 0.929 . S
C417 C409 1.433 . S
C417 N419 1.384 . S
N418 C414 1.427 . S
N418 C415 1.384 . S
N419 C411 1.427 . S
N419 C417 1.384 . S
H420 C426 0.930 . S
H421 C430 0.930 . S
H422 C435 0.929 . S
H423 C433 0.929 . S
H424 C428 0.929 . S
H425 C434 0.929 . S
C426 H420 0.930 . S
C426 C427 1.367 . S
C426 C434 1.378 . S
C427 C426 1.367 . S
C427 C435 1.433 . S
C428 H424 0.929 . S
C428 C430 1.378 . S
C428 C432 1.350 . S
C429 C432 1.463 . S
C429 C434 1.350 . S
C429 N437 1.427 . S
C430 H421 0.930 . S
C430 C428 1.378 . S
C430 C431 1.367 . S
C431 C430 1.367 . S
C431 C433 1.433 . S
C432 C428 1.350 . S
C432 C429 1.463 . S
C432 N436 1.427 . S
C433 H423 0.929 . S
C433 C431 1.433 . S
C433 N436 1.384 . S
C434 H425 0.929 . S
C434 C426 1.378 . S
C434 C429 1.350 . S
C435 H422 0.929 . S
C435 C427 1.433 . S
C435 N437 1.384 . S
N436 C432 1.427 . S
N436 C433 1.384 . S
N437 C429 1.427 . S
N437 C435 1.384 . S
H438 C444 0.930 . S
H439 C448 0.930 . S
H440 C453 0.929 . S
H441 C451 0.929 . S
H442 C446 0.929 . S
H443 C452 0.929 . S
C444 H438 0.930 . S
C444 C445 1.367 . S
C444 C452 1.378 . S
C445 C444 1.367 . S
C445 C453 1.433 . S
C446 H442 0.929 . S
C446 C448 1.378 . S
C446 C450 1.350 . S
C447 C450 1.463 . S
C447 C452 1.350 . S
C447 N455 1.427 . S
C448 H439 0.930 . S
C448 C446 1.378 . S
C448 C449 1.367 . S
C449 C448 1.367 . S
C449 C451 1.433 . S
C450 C446 1.350 . S
C450 C447 1.463 . S
C450 N454 1.427 . S
C451 H441 0.929 . S
C451 C449 1.433 . S
C451 N454 1.384 . S
C452 H443 0.929 . S
C452 C444 1.378 . S
C452 C447 1.350 . S
C453 H440 0.929 . S
C453 C445 1.433 . S
C453 N455 1.384 . S
N454 C450 1.427 . S
N454 C451 1.384 . S
N455 C447 1.427 . S
N455 C453 1.384 . S
H456 C462 0.930 . S
H457 C466 0.930 . S
H458 C471 0.929 . S
H459 C469 0.929 . S
H460 C464 0.929 . S
H461 C470 0.929 . S
C462 H456 0.930 . S
C462 C463 1.367 . S
C462 C470 1.378 . S
C463 C462 1.367 . S
C463 C471 1.433 . S
C464 H460 0.929 . S
C464 C466 1.378 . S
C464 C468 1.350 . S
C465 C468 1.463 . S
C465 C470 1.350 . S
C465 N473 1.427 . S
C466 H457 0.930 . S
C466 C464 1.378 . S
C466 C467 1.367 . S
C467 C466 1.367 . S
C467 C469 1.433 . S
C468 C464 1.350 . S
C468 C465 1.463 . S
C468 N472 1.427 . S
C469 H459 0.929 . S
C469 C467 1.433 . S
C469 N472 1.384 . S
C470 H461 0.929 . S
C470 C462 1.378 . S
C470 C465 1.350 . S
C471 H458 0.929 . S
C471 C463 1.433 . S
C471 N473 1.384 . S
N472 C468 1.427 . S
N472 C469 1.384 . S
N473 C465 1.427 . S
N473 C471 1.384 . S
H474 C480 0.930 . S
H475 C484 0.930 . S
H476 C489 0.929 . S
H477 C487 0.929 . S
H478 C482 0.929 . S
H479 C488 0.929 . S
C480 H474 0.930 . S
C480 C481 1.367 . S
C480 C488 1.378 . S
C481 C480 1.367 . S
C481 C489 1.433 . S
C482 H478 0.929 . S
C482 C484 1.378 . S
C482 C486 1.350 . S
C483 C486 1.463 . S
C483 C488 1.350 . S
C483 N491 1.427 . S
C484 H475 0.930 . S
C484 C482 1.378 . S
C484 C485 1.367 . S
C485 C484 1.367 . S
C485 C487 1.433 . S
C486 C482 1.350 . S
C486 C483 1.463 . S
C486 N490 1.427 . S
C487 H477 0.929 . S
C487 C485 1.433 . S
C487 N490 1.384 . S
C488 H479 0.929 . S
C488 C480 1.378 . S
C488 C483 1.350 . S
C489 H476 0.929 . S
C489 C481 1.433 . S
C489 N491 1.384 . S
N490 C486 1.427 . S
N490 C487 1.384 . S
N491 C483 1.427 . S
N491 C489 1.384 . S
H492 C498 0.930 1_545 S
H493 C502 0.930 . S
H494 C507 0.929 . S
H495 C505 0.929 . S
H496 C500 0.929 . S
H497 C506 0.929 1_545 S
C498 H492 0.930 1_565 S
C498 C499 1.367 . S
C498 C506 1.378 . S
C499 C498 1.367 . S
C499 C507 1.433 . S
C500 H496 0.929 . S
C500 C502 1.378 . S
C500 C504 1.350 . S
C501 C504 1.463 . S
C501 C506 1.350 . S
C501 N509 1.427 . S
C502 H493 0.930 . S
C502 C500 1.378 . S
C502 C503 1.367 . S
C503 C502 1.367 . S
C503 C505 1.433 . S
C504 C500 1.350 . S
C504 C501 1.463 . S
C504 N508 1.427 . S
C505 H495 0.929 . S
C505 C503 1.433 . S
C505 N508 1.384 . S
C506 H497 0.929 1_565 S
C506 C498 1.378 . S
C506 C501 1.350 . S
C507 H494 0.929 . S
C507 C499 1.433 . S
C507 N509 1.384 . S
N508 C504 1.427 . S
N508 C505 1.384 . S
N509 C501 1.427 . S
N509 C507 1.384 . S
H510 C516 0.930 . S
H511 C520 0.930 . S
H512 C525 0.929 . S
H513 C523 0.929 1_545 S
H514 C518 0.929 . S
H515 C524 0.929 . S
C516 H510 0.930 . S
C516 C517 1.367 . S
C516 C524 1.378 . S
C517 C516 1.367 . S
C517 C525 1.433 . S
C518 H514 0.929 . S
C518 C520 1.378 . S
C518 C522 1.350 . S
C519 C522 1.463 . S
C519 C524 1.350 . S
C519 N527 1.427 . S
C520 H511 0.930 . S
C520 C518 1.378 . S
C520 C521 1.367 . S
C521 C520 1.367 . S
C521 C523 1.433 . S
C522 C518 1.350 . S
C522 C519 1.463 . S
C522 N526 1.427 . S
C523 H513 0.929 1_565 S
C523 C521 1.433 . S
C523 N526 1.384 . S
C524 H515 0.929 . S
C524 C516 1.378 . S
C524 C519 1.350 . S
C525 H512 0.929 . S
C525 C517 1.433 . S
C525 N527 1.384 . S
N526 C522 1.427 . S
N526 C523 1.384 . S
N527 C519 1.427 . S
N527 C525 1.384 . S
H528 C534 0.930 . S
H529 C538 0.930 . S
H530 C543 0.929 . S
H531 C541 0.929 . S
H532 C536 0.929 . S
H533 C542 0.929 . S
C534 H528 0.930 . S
C534 C535 1.367 . S
C534 C542 1.378 . S
C535 C534 1.367 . S
C535 C543 1.433 . S
C536 H532 0.929 . S
C536 C538 1.378 . S
C536 C540 1.350 . S
C537 C540 1.463 . S
C537 C542 1.350 . S
C537 N545 1.427 . S
C538 H529 0.930 . S
C538 C536 1.378 . S
C538 C539 1.367 . S
C539 C538 1.367 . S
C539 C541 1.433 . S
C540 C536 1.350 . S
C540 C537 1.463 . S
C540 N544 1.427 . S
C541 H531 0.929 . S
C541 C539 1.433 . S
C541 N544 1.384 . S
C542 H533 0.929 . S
C542 C534 1.378 . S
C542 C537 1.350 . S
C543 H530 0.929 . S
C543 C535 1.433 . S
C543 N545 1.384 . S
N544 C540 1.427 . S
N544 C541 1.384 . S
N545 C537 1.427 . S
N545 C543 1.384 . S
H546 C552 0.930 . S
H547 C556 0.930 . S
H548 C561 0.929 . S
H549 C559 0.929 . S
H550 C554 0.929 . S
H551 C560 0.929 . S
C552 H546 0.930 . S
C552 C553 1.367 . S
C552 C560 1.378 . S
C553 C552 1.367 . S
C553 C561 1.433 . S
C554 H550 0.929 . S
C554 C556 1.378 . S
C554 C558 1.350 . S
C555 C558 1.463 . S
C555 C560 1.350 . S
C555 N563 1.427 . S
C556 H547 0.930 . S
C556 C554 1.378 . S
C556 C557 1.367 . S
C557 C556 1.367 . S
C557 C559 1.433 . S
C558 C554 1.350 . S
C558 C555 1.463 . S
C558 N562 1.427 . S
C559 H549 0.929 . S
C559 C557 1.433 . S
C559 N562 1.384 . S
C560 H551 0.929 . S
C560 C552 1.378 . S
C560 C555 1.350 . S
C561 H548 0.929 . S
C561 C553 1.433 . S
C561 N563 1.384 . S
N562 C558 1.427 . S
N562 C559 1.384 . S
N563 C555 1.427 . S
N563 C561 1.384 . S
H564 C570 0.930 . S
H565 C574 0.930 . S
H566 C579 0.929 . S
H567 C577 0.929 . S
H568 C572 0.929 . S
H569 C578 0.929 . S
C570 H564 0.930 . S
C570 C571 1.367 . S
C570 C578 1.378 . S
C571 C570 1.367 . S
C571 C579 1.433 . S
C572 H568 0.929 . S
C572 C574 1.378 . S
C572 C576 1.350 . S
C573 C576 1.463 . S
C573 C578 1.350 . S
C573 N581 1.427 . S
C574 H565 0.930 . S
C574 C572 1.378 . S
C574 C575 1.367 . S
C575 C574 1.367 . S
C575 C577 1.433 . S
C576 C572 1.350 . S
C576 C573 1.463 . S
C576 N580 1.427 . S
C577 H567 0.929 . S
C577 C575 1.433 . S
C577 N580 1.384 . S
C578 H569 0.929 . S
C578 C570 1.378 . S
C578 C573 1.350 . S
C579 H566 0.929 . S
C579 C571 1.433 . S
C579 N581 1.384 . S
N580 C576 1.427 . S
N580 C577 1.384 . S
N581 C573 1.427 . S
N581 C579 1.384 . S
H582 C588 0.930 . S
H583 C592 0.930 . S
H584 C597 0.929 . S
H585 C595 0.929 . S
H586 C590 0.929 . S
H587 C596 0.929 . S
C588 H582 0.930 . S
C588 C589 1.367 . S
C588 C596 1.378 . S
C589 C588 1.367 . S
C589 C597 1.433 . S
C590 H586 0.929 . S
C590 C592 1.378 . S
C590 C594 1.350 . S
C591 C594 1.463 . S
C591 C596 1.350 . S
C591 N599 1.427 . S
C592 H583 0.930 . S
C592 C590 1.378 . S
C592 C593 1.367 . S
C593 C592 1.367 . S
C593 C595 1.433 . S
C594 C590 1.350 . S
C594 C591 1.463 . S
C594 N598 1.427 . S
C595 H585 0.929 . S
C595 C593 1.433 . S
C595 N598 1.384 . S
C596 H587 0.929 . S
C596 C588 1.378 . S
C596 C591 1.350 . S
C597 H584 0.929 . S
C597 C589 1.433 . S
C597 N599 1.384 . S
N598 C594 1.427 . S
N598 C595 1.384 . S
N599 C591 1.427 . S
N599 C597 1.384 . S
H600 C606 0.930 . S
H601 C610 0.930 . S
H602 C615 0.929 . S
H603 C613 0.929 . S
H604 C608 0.929 . S
H605 C614 0.929 . S
C606 H600 0.930 . S
C606 C607 1.367 . S
C606 C614 1.378 . S
C607 C606 1.367 . S
C607 C615 1.433 . S
C608 H604 0.929 . S
C608 C610 1.378 . S
C608 C612 1.350 . S
C609 C612 1.463 . S
C609 C614 1.350 . S
C609 N617 1.427 . S
C610 H601 0.930 . S
C610 C608 1.378 . S
C610 C611 1.367 . S
C611 C610 1.367 . S
C611 C613 1.433 . S
C612 C608 1.350 . S
C612 C609 1.463 . S
C612 N616 1.427 . S
C613 H603 0.929 . S
C613 C611 1.433 . S
C613 N616 1.384 . S
C614 H605 0.929 . S
C614 C606 1.378 . S
C614 C609 1.350 . S
C615 H602 0.929 . S
C615 C607 1.433 . S
C615 N617 1.384 . S
N616 C612 1.427 . S
N616 C613 1.384 . S
N617 C609 1.427 . S
N617 C615 1.384 . S
H618 C624 0.930 . S
H619 C628 0.930 . S
H620 C633 0.929 . S
H621 C631 0.929 . S
H622 C626 0.929 . S
H623 C632 0.929 . S
C624 H618 0.930 . S
C624 C625 1.367 . S
C624 C632 1.378 . S
C625 C624 1.367 . S
C625 C633 1.433 . S
C626 H622 0.929 . S
C626 C628 1.378 . S
C626 C630 1.350 . S
C627 C630 1.463 . S
C627 C632 1.350 . S
C627 N635 1.427 . S
C628 H619 0.930 . S
C628 C626 1.378 . S
C628 C629 1.367 . S
C629 C628 1.367 . S
C629 C631 1.433 . S
C630 C626 1.350 . S
C630 C627 1.463 . S
C630 N634 1.427 . S
C631 H621 0.929 . S
C631 C629 1.433 . S
C631 N634 1.384 . S
C632 H623 0.929 . S
C632 C624 1.378 . S
C632 C627 1.350 . S
C633 H620 0.929 . S
C633 C625 1.433 . S
C633 N635 1.384 . S
N634 C630 1.427 . S
N634 C631 1.384 . S
N635 C627 1.427 . S
N635 C633 1.384 . S
H636 C642 0.930 . S
H637 C646 0.930 . S
H638 C651 0.929 . S
H639 C649 0.929 . S
H640 C644 0.929 . S
H641 C650 0.929 . S
C642 H636 0.930 . S
C642 C643 1.367 . S
C642 C650 1.378 . S
C643 C642 1.367 . S
C643 C651 1.433 . S
C644 H640 0.929 . S
C644 C646 1.378 . S
C644 C648 1.350 . S
C645 C648 1.463 . S
C645 C650 1.350 . S
C645 N653 1.427 . S
C646 H637 0.930 . S
C646 C644 1.378 . S
C646 C647 1.367 . S
C647 C646 1.367 . S
C647 C649 1.433 . S
C648 C644 1.350 . S
C648 C645 1.463 . S
C648 N652 1.427 . S
C649 H639 0.929 . S
C649 C647 1.433 . S
C649 N652 1.384 . S
C650 H641 0.929 . S
C650 C642 1.378 . S
C650 C645 1.350 . S
C651 H638 0.929 . S
C651 C643 1.433 . S
C651 N653 1.384 . S
N652 C648 1.427 . S
N652 C649 1.384 . S
N653 C645 1.427 . S
N653 C651 1.384 . S
H654 C660 0.930 . S
H655 C664 0.930 1_455 S
H656 C669 0.929 . S
H657 C667 0.929 . S
H658 C662 0.929 . S
H659 C668 0.929 . S
C660 H654 0.930 . S
C660 C661 1.367 . S
C660 C668 1.378 . S
C661 C660 1.367 . S
C661 C669 1.433 . S
C662 H658 0.929 . S
C662 C664 1.378 . S
C662 C666 1.350 . S
C663 C666 1.463 . S
C663 C668 1.350 . S
C663 N671 1.427 . S
C664 H655 0.930 1_655 S
C664 C662 1.378 . S
C664 C665 1.367 . S
C665 C664 1.367 . S
C665 C667 1.433 . S
C666 C662 1.350 . S
C666 C663 1.463 . S
C666 N670 1.427 . S
C667 H657 0.929 . S
C667 C665 1.433 . S
C667 N670 1.384 . S
C668 H659 0.929 . S
C668 C660 1.378 . S
C668 C663 1.350 . S
C669 H656 0.929 . S
C669 C661 1.433 . S
C669 N671 1.384 . S
N670 C666 1.427 . S
N670 C667 1.384 . S
N671 C663 1.427 . S
N671 C669 1.384 . S
H672 C678 0.930 . S
H673 C682 0.930 . S
H674 C687 0.929 . S
H675 C685 0.929 . S
H676 C680 0.929 . S
H677 C686 0.929 . S
C678 H672 0.930 . S
C678 C679 1.367 . S
C678 C686 1.378 . S
C679 C678 1.367 . S
C679 C687 1.433 . S
C680 H676 0.929 . S
C680 C682 1.378 . S
C680 C684 1.350 . S
C681 C684 1.463 . S
C681 C686 1.350 . S
C681 N689 1.427 . S
C682 H673 0.930 . S
C682 C680 1.378 . S
C682 C683 1.367 . S
C683 C682 1.367 . S
C683 C685 1.433 . S
C684 C680 1.350 . S
C684 C681 1.463 . S
C684 N688 1.427 . S
C685 H675 0.929 . S
C685 C683 1.433 . S
C685 N688 1.384 . S
C686 H677 0.929 . S
C686 C678 1.378 . S
C686 C681 1.350 . S
C687 H674 0.929 . S
C687 C679 1.433 . S
C687 N689 1.384 . S
N688 C684 1.427 . S
N688 C685 1.384 . S
N689 C681 1.427 . S
N689 C687 1.384 . S
H690 C696 0.930 . S
H691 C700 0.930 . S
H692 C705 0.929 . S
H693 C703 0.929 . S
H694 C698 0.929 . S
H695 C704 0.929 . S
C696 H690 0.930 . S
C696 C697 1.367 . S
C696 C704 1.378 . S
C697 C696 1.367 . S
C697 C705 1.433 . S
C698 H694 0.929 . S
C698 C700 1.378 . S
C698 C702 1.350 . S
C699 C702 1.463 . S
C699 C704 1.350 . S
C699 N707 1.427 . S
C700 H691 0.930 . S
C700 C698 1.378 . S
C700 C701 1.367 . S
C701 C700 1.367 . S
C701 C703 1.433 . S
C702 C698 1.350 . S
C702 C699 1.463 . S
C702 N706 1.427 . S
C703 H693 0.929 . S
C703 C701 1.433 . S
C703 N706 1.384 . S
C704 H695 0.929 . S
C704 C696 1.378 . S
C704 C699 1.350 . S
C705 H692 0.929 . S
C705 C697 1.433 . S
C705 N707 1.384 . S
N706 C702 1.427 . S
N706 C703 1.384 . S
N707 C699 1.427 . S
N707 C705 1.384 . S
H708 C714 0.930 . S
H709 C718 0.930 . S
H710 C723 0.929 . S
H711 C721 0.929 . S
H712 C716 0.929 . S
H713 C722 0.929 . S
C714 H708 0.930 . S
C714 C715 1.367 . S
C714 C722 1.378 . S
C715 C714 1.367 . S
C715 C723 1.433 . S
C716 H712 0.929 . S
C716 C718 1.378 . S
C716 C720 1.350 . S
C717 C720 1.463 . S
C717 C722 1.350 . S
C717 N725 1.427 . S
C718 H709 0.930 . S
C718 C716 1.378 . S
C718 C719 1.367 . S
C719 C718 1.367 . S
C719 C721 1.433 . S
C720 C716 1.350 . S
C720 C717 1.463 . S
C720 N724 1.427 . S
C721 H711 0.929 . S
C721 C719 1.433 . S
C721 N724 1.384 . S
C722 H713 0.929 . S
C722 C714 1.378 . S
C722 C717 1.350 . S
C723 H710 0.929 . S
C723 C715 1.433 . S
C723 N725 1.384 . S
N724 C720 1.427 . S
N724 C721 1.384 . S
N725 C717 1.427 . S
N725 C723 1.384 . S
H726 C732 0.930 . S
H727 C736 0.930 . S
H728 C741 0.929 . S
H729 C739 0.929 . S
H730 C734 0.929 . S
H731 C740 0.929 . S
C732 H726 0.930 . S
C732 C733 1.367 . S
C732 C740 1.378 . S
C733 C732 1.367 . S
C733 C741 1.433 . S
C734 H730 0.929 . S
C734 C736 1.378 . S
C734 C738 1.350 . S
C735 C738 1.463 . S
C735 C740 1.350 . S
C735 N743 1.427 . S
C736 H727 0.930 . S
C736 C734 1.378 . S
C736 C737 1.367 . S
C737 C736 1.367 . S
C737 C739 1.433 . S
C738 C734 1.350 . S
C738 C735 1.463 . S
C738 N742 1.427 . S
C739 H729 0.929 . S
C739 C737 1.433 . S
C739 N742 1.384 . S
C740 H731 0.929 . S
C740 C732 1.378 . S
C740 C735 1.350 . S
C741 H728 0.929 . S
C741 C733 1.433 . S
C741 N743 1.384 . S
N742 C738 1.427 . S
N742 C739 1.384 . S
N743 C735 1.427 . S
N743 C741 1.384 . S
H744 C750 0.930 . S
H745 C754 0.930 . S
H746 C759 0.929 . S
H747 C757 0.929 . S
H748 C752 0.929 . S
H749 C758 0.929 . S
C750 H744 0.930 . S
C750 C751 1.367 . S
C750 C758 1.378 . S
C751 C750 1.367 . S
C751 C759 1.433 . S
C752 H748 0.929 . S
C752 C754 1.378 . S
C752 C756 1.350 . S
C753 C756 1.463 . S
C753 C758 1.350 . S
C753 N761 1.427 . S
C754 H745 0.930 . S
C754 C752 1.378 . S
C754 C755 1.367 . S
C755 C754 1.367 . S
C755 C757 1.433 . S
C756 C752 1.350 . S
C756 C753 1.463 . S
C756 N760 1.427 . S
C757 H747 0.929 . S
C757 C755 1.433 . S
C757 N760 1.384 . S
C758 H749 0.929 . S
C758 C750 1.378 . S
C758 C753 1.350 . S
C759 H746 0.929 . S
C759 C751 1.433 . S
C759 N761 1.384 . S
N760 C756 1.427 . S
N760 C757 1.384 . S
N761 C753 1.427 . S
N761 C759 1.384 . S
H762 C768 0.930 . S
H763 C772 0.930 . S
H764 C777 0.929 . S
H765 C775 0.929 . S
H766 C770 0.929 . S
H767 C776 0.929 . S
C768 H762 0.930 . S
C768 C769 1.367 . S
C768 C776 1.378 . S
C769 C768 1.367 . S
C769 C777 1.433 . S
C770 H766 0.929 . S
C770 C772 1.378 . S
C770 C774 1.350 . S
C771 C774 1.463 . S
C771 C776 1.350 . S
C771 N779 1.427 . S
C772 H763 0.930 . S
C772 C770 1.378 . S
C772 C773 1.367 . S
C773 C772 1.367 . S
C773 C775 1.433 . S
C774 C770 1.350 . S
C774 C771 1.463 . S
C774 N778 1.427 . S
C775 H765 0.929 . S
C775 C773 1.433 . S
C775 N778 1.384 . S
C776 H767 0.929 . S
C776 C768 1.378 . S
C776 C771 1.350 . S
C777 H764 0.929 . S
C777 C769 1.433 . S
C777 N779 1.384 . S
N778 C774 1.427 . S
N778 C775 1.384 . S
N779 C771 1.427 . S
N779 C777 1.384 . S
H780 C786 0.930 . S
H781 C790 0.930 . S
H782 C795 0.929 1_565 S
H783 C793 0.929 . S
H784 C788 0.929 . S
H785 C794 0.929 . S
C786 H780 0.930 . S
C786 C787 1.367 . S
C786 C794 1.378 . S
C787 C786 1.367 . S
C787 C795 1.433 . S
C788 H784 0.929 . S
C788 C790 1.378 . S
C788 C792 1.350 . S
C789 C792 1.463 . S
C789 C794 1.350 . S
C789 N797 1.427 . S
C790 H781 0.930 . S
C790 C788 1.378 . S
C790 C791 1.367 . S
C791 C790 1.367 . S
C791 C793 1.433 . S
C792 C788 1.350 . S
C792 C789 1.463 . S
C792 N796 1.427 . S
C793 H783 0.929 . S
C793 C791 1.433 . S
C793 N796 1.384 . S
C794 H785 0.929 . S
C794 C786 1.378 . S
C794 C789 1.350 . S
C795 H782 0.929 1_545 S
C795 C787 1.433 . S
C795 N797 1.384 . S
N796 C792 1.427 . S
N796 C793 1.384 . S
N797 C789 1.427 . S
N797 C795 1.384 . S
H798 C804 0.930 . S
H799 C808 0.930 . S
H800 C813 0.929 . S
H801 C811 0.929 . S
H802 C806 0.929 . S
H803 C812 0.929 . S
C804 H798 0.930 . S
C804 C805 1.367 . S
C804 C812 1.378 . S
C805 C804 1.367 . S
C805 C813 1.433 . S
C806 H802 0.929 . S
C806 C808 1.378 . S
C806 C810 1.350 . S
C807 C810 1.463 . S
C807 C812 1.350 . S
C807 N815 1.427 . S
C808 H799 0.930 . S
C808 C806 1.378 . S
C808 C809 1.367 . S
C809 C808 1.367 . S
C809 C811 1.433 . S
C810 C806 1.350 . S
C810 C807 1.463 . S
C810 N814 1.427 . S
C811 H801 0.929 . S
C811 C809 1.433 . S
C811 N814 1.384 . S
C812 H803 0.929 . S
C812 C804 1.378 . S
C812 C807 1.350 . S
C813 H800 0.929 . S
C813 C805 1.433 . S
C813 N815 1.384 . S
N814 C810 1.427 . S
N814 C811 1.384 . S
N815 C807 1.427 . S
N815 C813 1.384 . S
H816 C822 0.930 . S
H817 C826 0.930 . S
H818 C831 0.929 . S
H819 C829 0.929 . S
H820 C824 0.929 . S
H821 C830 0.929 . S
C822 H816 0.930 . S
C822 C823 1.367 . S
C822 C830 1.378 . S
C823 C822 1.367 . S
C823 C831 1.433 . S
C824 H820 0.929 . S
C824 C826 1.378 . S
C824 C828 1.350 . S
C825 C828 1.463 . S
C825 C830 1.350 . S
C825 N833 1.427 . S
C826 H817 0.930 . S
C826 C824 1.378 . S
C826 C827 1.367 . S
C827 C826 1.367 . S
C827 C829 1.433 . S
C828 C824 1.350 . S
C828 C825 1.463 . S
C828 N832 1.427 . S
C829 H819 0.929 . S
C829 C827 1.433 . S
C829 N832 1.384 . S
C830 H821 0.929 . S
C830 C822 1.378 . S
C830 C825 1.350 . S
C831 H818 0.929 . S
C831 C823 1.433 . S
C831 N833 1.384 . S
N832 C828 1.427 . S
N832 C829 1.384 . S
N833 C825 1.427 . S
N833 C831 1.384 . S
H834 C840 0.930 . S
H835 C844 0.930 . S
H836 C849 0.929 . S
H837 C847 0.929 . S
H838 C842 0.929 . S
H839 C848 0.929 . S
C840 H834 0.930 . S
C840 C841 1.367 . S
C840 C848 1.378 . S
C841 C840 1.367 . S
C841 C849 1.433 . S
C842 H838 0.929 . S
C842 C844 1.378 . S
C842 C846 1.350 . S
C843 C846 1.463 . S
C843 C848 1.350 . S
C843 N851 1.427 . S
C844 H835 0.930 . S
C844 C842 1.378 . S
C844 C845 1.367 . S
C845 C844 1.367 . S
C845 C847 1.433 . S
C846 C842 1.350 . S
C846 C843 1.463 . S
C846 N850 1.427 . S
C847 H837 0.929 . S
C847 C845 1.433 . S
C847 N850 1.384 . S
C848 H839 0.929 . S
C848 C840 1.378 . S
C848 C843 1.350 . S
C849 H836 0.929 . S
C849 C841 1.433 . S
C849 N851 1.384 . S
N850 C846 1.427 . S
N850 C847 1.384 . S
N851 C843 1.427 . S
N851 C849 1.384 . S
H852 C858 0.930 . S
H853 C862 0.930 . S
H854 C867 0.929 . S
H855 C865 0.929 . S
H856 C860 0.929 . S
H857 C866 0.929 . S
C858 H852 0.930 . S
C858 C859 1.367 . S
C858 C866 1.378 . S
C859 C858 1.367 . S
C859 C867 1.433 . S
C860 H856 0.929 . S
C860 C862 1.378 . S
C860 C864 1.350 . S
C861 C864 1.463 . S
C861 C866 1.350 . S
C861 N869 1.427 . S
C862 H853 0.930 . S
C862 C860 1.378 . S
C862 C863 1.367 . S
C863 C862 1.367 . S
C863 C865 1.433 . S
C864 C860 1.350 . S
C864 C861 1.463 . S
C864 N868 1.427 . S
C865 H855 0.929 . S
C865 C863 1.433 . S
C865 N868 1.384 . S
C866 H857 0.929 . S
C866 C858 1.378 . S
C866 C861 1.350 . S
C867 H854 0.929 . S
C867 C859 1.433 . S
C867 N869 1.384 . S
N868 C864 1.427 . S
N868 C865 1.384 . S
N869 C861 1.427 . S
N869 C867 1.384 . S
H870 C876 0.930 . S
H871 C880 0.930 . S
H872 C885 0.929 . S
H873 C883 0.929 . S
H874 C878 0.929 . S
H875 C884 0.929 . S
C876 H870 0.930 . S
C876 C877 1.367 . S
C876 C884 1.378 . S
C877 C876 1.367 . S
C877 C885 1.433 . S
C878 H874 0.929 . S
C878 C880 1.378 . S
C878 C882 1.350 . S
C879 C882 1.463 . S
C879 C884 1.350 . S
C879 N887 1.427 . S
C880 H871 0.930 . S
C880 C878 1.378 . S
C880 C881 1.367 . S
C881 C880 1.367 . S
C881 C883 1.433 . S
C882 C878 1.350 . S
C882 C879 1.463 . S
C882 N886 1.427 . S
C883 H873 0.929 . S
C883 C881 1.433 . S
C883 N886 1.384 . S
C884 H875 0.929 . S
C884 C876 1.378 . S
C884 C879 1.350 . S
C885 H872 0.929 . S
C885 C877 1.433 . S
C885 N887 1.384 . S
N886 C882 1.427 . S
N886 C883 1.384 . S
N887 C879 1.427 . S
N887 C885 1.384 . S
H888 C894 0.930 . S
H889 C898 0.930 . S
H890 C903 0.929 . S
H891 C901 0.929 . S
H892 C896 0.929 . S
H893 C902 0.929 . S
C894 H888 0.930 . S
C894 C895 1.367 . S
C894 C902 1.378 . S
C895 C894 1.367 . S
C895 C903 1.433 . S
C896 H892 0.929 . S
C896 C898 1.378 . S
C896 C900 1.350 . S
C897 C900 1.463 . S
C897 C902 1.350 . S
C897 N905 1.427 . S
C898 H889 0.930 . S
C898 C896 1.378 . S
C898 C899 1.367 . S
C899 C898 1.367 . S
C899 C901 1.433 . S
C900 C896 1.350 . S
C900 C897 1.463 . S
C900 N904 1.427 . S
C901 H891 0.929 . S
C901 C899 1.433 . S
C901 N904 1.384 . S
C902 H893 0.929 . S
C902 C894 1.378 . S
C902 C897 1.350 . S
C903 H890 0.929 . S
C903 C895 1.433 . S
C903 N905 1.384 . S
N904 C900 1.427 . S
N904 C901 1.384 . S
N905 C897 1.427 . S
N905 C903 1.384 . S
H906 C912 0.930 . S
H907 C916 0.930 . S
H908 C921 0.929 . S
H909 C919 0.929 . S
H910 C914 0.929 . S
H911 C920 0.929 . S
C912 H906 0.930 . S
C912 C913 1.367 . S
C912 C920 1.378 . S
C913 C912 1.367 . S
C913 C921 1.433 . S
C914 H910 0.929 . S
C914 C916 1.378 . S
C914 C918 1.350 . S
C915 C918 1.463 . S
C915 C920 1.350 . S
C915 N923 1.427 . S
C916 H907 0.930 . S
C916 C914 1.378 . S
C916 C917 1.367 . S
C917 C916 1.367 . S
C917 C919 1.433 . S
C918 C914 1.350 . S
C918 C915 1.463 . S
C918 N922 1.427 . S
C919 H909 0.929 . S
C919 C917 1.433 . S
C919 N922 1.384 . S
C920 H911 0.929 . S
C920 C912 1.378 . S
C920 C915 1.350 . S
C921 H908 0.929 . S
C921 C913 1.433 . S
C921 N923 1.384 . S
N922 C918 1.427 . S
N922 C919 1.384 . S
N923 C915 1.427 . S
N923 C921 1.384 . S
H924 C930 0.930 . S
H925 C934 0.930 . S
H926 C939 0.929 . S
H927 C937 0.929 . S
H928 C932 0.929 . S
H929 C938 0.929 . S
C930 H924 0.930 . S
C930 C931 1.367 . S
C930 C938 1.378 . S
C931 C930 1.367 . S
C931 C939 1.433 . S
C932 H928 0.929 . S
C932 C934 1.378 . S
C932 C936 1.350 . S
C933 C936 1.463 . S
C933 C938 1.350 . S
C933 N941 1.427 . S
C934 H925 0.930 . S
C934 C932 1.378 . S
C934 C935 1.367 . S
C935 C934 1.367 . S
C935 C937 1.433 . S
C936 C932 1.350 . S
C936 C933 1.463 . S
C936 N940 1.427 . S
C937 H927 0.929 . S
C937 C935 1.433 . S
C937 N940 1.384 . S
C938 H929 0.929 . S
C938 C930 1.378 . S
C938 C933 1.350 . S
C939 H926 0.929 . S
C939 C931 1.433 . S
C939 N941 1.384 . S
N940 C936 1.427 . S
N940 C937 1.384 . S
N941 C933 1.427 . S
N941 C939 1.384 . S
H942 C948 0.930 . S
H943 C952 0.930 . S
H944 C957 0.929 . S
H945 C955 0.929 . S
H946 C950 0.929 . S
H947 C956 0.929 . S
C948 H942 0.930 . S
C948 C949 1.367 . S
C948 C956 1.378 . S
C949 C948 1.367 . S
C949 C957 1.433 . S
C950 H946 0.929 . S
C950 C952 1.378 . S
C950 C954 1.350 . S
C951 C954 1.463 . S
C951 C956 1.350 . S
C951 N959 1.427 . S
C952 H943 0.930 . S
C952 C950 1.378 . S
C952 C953 1.367 . S
C953 C952 1.367 . S
C953 C955 1.433 . S
C954 C950 1.350 . S
C954 C951 1.463 . S
C954 N958 1.427 . S
C955 H945 0.929 . S
C955 C953 1.433 . S
C955 N958 1.384 . S
C956 H947 0.929 . S
C956 C948 1.378 . S
C956 C951 1.350 . S
C957 H944 0.929 . S
C957 C949 1.433 . S
C957 N959 1.384 . S
N958 C954 1.427 . S
N958 C955 1.384 . S
N959 C951 1.427 . S
N959 C957 1.384 . S
H960 C966 0.930 . S
H961 C970 0.930 . S
H962 C975 0.929 . S
H963 C973 0.929 . S
H964 C968 0.929 . S
H965 C974 0.929 . S
C966 H960 0.930 . S
C966 C967 1.367 . S
C966 C974 1.378 . S
C967 C966 1.367 . S
C967 C975 1.433 . S
C968 H964 0.929 . S
C968 C970 1.378 . S
C968 C972 1.350 . S
C969 C972 1.463 . S
C969 C974 1.350 . S
C969 N977 1.427 . S
C970 H961 0.930 . S
C970 C968 1.378 . S
C970 C971 1.367 . S
C971 C970 1.367 . S
C971 C973 1.433 . S
C972 C968 1.350 . S
C972 C969 1.463 . S
C972 N976 1.427 . S
C973 H963 0.929 . S
C973 C971 1.433 . S
C973 N976 1.384 . S
C974 H965 0.929 . S
C974 C966 1.378 . S
C974 C969 1.350 . S
C975 H962 0.929 . S
C975 C967 1.433 . S
C975 N977 1.384 . S
N976 C972 1.427 . S
N976 C973 1.384 . S
N977 C969 1.427 . S
N977 C975 1.384 . S
H978 C984 0.930 . S
H979 C988 0.930 . S
H980 C993 0.929 . S
H981 C991 0.929 . S
H982 C986 0.929 . S
H983 C992 0.929 . S
C984 H978 0.930 . S
C984 C985 1.367 . S
C984 C992 1.378 . S
C985 C984 1.367 . S
C985 C993 1.433 . S
C986 H982 0.929 . S
C986 C988 1.378 . S
C986 C990 1.350 . S
C987 C990 1.463 . S
C987 C992 1.350 . S
C987 N995 1.427 . S
C988 H979 0.930 . S
C988 C986 1.378 . S
C988 C989 1.367 . S
C989 C988 1.367 . S
C989 C991 1.433 . S
C990 C986 1.350 . S
C990 C987 1.463 . S
C990 N994 1.427 . S
C991 H981 0.929 . S
C991 C989 1.433 . S
C991 N994 1.384 . S
C992 H983 0.929 . S
C992 C984 1.378 . S
C992 C987 1.350 . S
C993 H980 0.929 . S
C993 C985 1.433 . S
C993 N995 1.384 . S
N994 C990 1.427 . S
N994 C991 1.384 . S
N995 C987 1.427 . S
N995 C993 1.384 . S
H996 C1002 0.930 . S
H997 C1006 0.930 . S
H998 C1011 0.929 . S
H999 C1009 0.929 . S
H1000 C1004 0.929 . S
H1001 C1010 0.929 . S
C1002 H996 0.930 . S
C1002 C1003 1.367 . S
C1002 C1010 1.378 . S
C1003 C1002 1.367 . S
C1003 C1011 1.433 . S
C1004 H1000 0.929 . S
C1004 C1006 1.378 . S
C1004 C1008 1.350 . S
C1005 C1008 1.463 . S
C1005 C1010 1.350 . S
C1005 N1013 1.427 . S
C1006 H997 0.930 . S
C1006 C1004 1.378 . S
C1006 C1007 1.367 . S
C1007 C1006 1.367 . S
C1007 C1009 1.433 . S
C1008 C1004 1.350 . S
C1008 C1005 1.463 . S
C1008 N1012 1.427 . S
C1009 H999 0.929 . S
C1009 C1007 1.433 . S
C1009 N1012 1.384 . S
C1010 H1001 0.929 . S
C1010 C1002 1.378 . S
C1010 C1005 1.350 . S
C1011 H998 0.929 . S
C1011 C1003 1.433 . S
C1011 N1013 1.384 . S
N1012 C1008 1.427 . S
N1012 C1009 1.384 . S
N1013 C1005 1.427 . S
N1013 C1011 1.384 . S
H1014 C1020 0.930 . S
H1015 C1024 0.930 . S
H1016 C1029 0.929 . S
H1017 C1027 0.929 . S
H1018 C1022 0.929 . S
H1019 C1028 0.929 . S
C1020 H1014 0.930 . S
C1020 C1021 1.367 . S
C1020 C1028 1.378 . S
C1021 C1020 1.367 . S
C1021 C1029 1.433 . S
C1022 H1018 0.929 . S
C1022 C1024 1.378 . S
C1022 C1026 1.350 . S
C1023 C1026 1.463 . S
C1023 C1028 1.350 . S
C1023 N1031 1.427 . S
C1024 H1015 0.930 . S
C1024 C1022 1.378 . S
C1024 C1025 1.367 . S
C1025 C1024 1.367 . S
C1025 C1027 1.433 . S
C1026 C1022 1.350 . S
C1026 C1023 1.463 . S
C1026 N1030 1.427 . S
C1027 H1017 0.929 . S
C1027 C1025 1.433 . S
C1027 N1030 1.384 . S
C1028 H1019 0.929 . S
C1028 C1020 1.378 . S
C1028 C1023 1.350 . S
C1029 H1016 0.929 . S
C1029 C1021 1.433 . S
C1029 N1031 1.384 . S
N1030 C1026 1.427 . S
N1030 C1027 1.384 . S
N1031 C1023 1.427 . S
N1031 C1029 1.384 . S
H1032 C1038 0.930 . S
H1033 C1042 0.930 . S
H1034 C1047 0.929 . S
H1035 C1045 0.929 . S
H1036 C1040 0.929 . S
H1037 C1046 0.929 . S
C1038 H1032 0.930 . S
C1038 C1039 1.367 . S
C1038 C1046 1.378 . S
C1039 C1038 1.367 . S
C1039 C1047 1.433 . S
C1040 H1036 0.929 . S
C1040 C1042 1.378 . S
C1040 C1044 1.350 . S
C1041 C1044 1.463 . S
C1041 C1046 1.350 . S
C1041 N1049 1.427 . S
C1042 H1033 0.930 . S
C1042 C1040 1.378 . S
C1042 C1043 1.367 . S
C1043 C1042 1.367 . S
C1043 C1045 1.433 . S
C1044 C1040 1.350 . S
C1044 C1041 1.463 . S
C1044 N1048 1.427 . S
C1045 H1035 0.929 . S
C1045 C1043 1.433 . S
C1045 N1048 1.384 . S
C1046 H1037 0.929 . S
C1046 C1038 1.378 . S
C1046 C1041 1.350 . S
C1047 H1034 0.929 . S
C1047 C1039 1.433 . S
C1047 N1049 1.384 . S
N1048 C1044 1.427 . S
N1048 C1045 1.384 . S
N1049 C1041 1.427 . S
N1049 C1047 1.384 . S
H1050 C1056 0.930 . S
H1051 C1060 0.930 . S
H1052 C1065 0.929 . S
H1053 C1063 0.929 . S
H1054 C1058 0.929 . S
H1055 C1064 0.929 . S
C1056 H1050 0.930 . S
C1056 C1057 1.367 . S
C1056 C1064 1.378 . S
C1057 C1056 1.367 . S
C1057 C1065 1.433 . S
C1058 H1054 0.929 . S
C1058 C1060 1.378 . S
C1058 C1062 1.350 . S
C1059 C1062 1.463 . S
C1059 C1064 1.350 . S
C1059 N1067 1.427 . S
C1060 H1051 0.930 . S
C1060 C1058 1.378 . S
C1060 C1061 1.367 . S
C1061 C1060 1.367 . S
C1061 C1063 1.433 . S
C1062 C1058 1.350 . S
C1062 C1059 1.463 . S
C1062 N1066 1.427 . S
C1063 H1053 0.929 . S
C1063 C1061 1.433 . S
C1063 N1066 1.384 . S
C1064 H1055 0.929 . S
C1064 C1056 1.378 . S
C1064 C1059 1.350 . S
C1065 H1052 0.929 . S
C1065 C1057 1.433 . S
C1065 N1067 1.384 . S
N1066 C1062 1.427 . S
N1066 C1063 1.384 . S
N1067 C1059 1.427 . S
N1067 C1065 1.384 . S
H1068 C1074 0.930 . S
H1069 C1078 0.930 . S
H1070 C1083 0.929 . S
H1071 C1081 0.929 . S
H1072 C1076 0.929 . S
H1073 C1082 0.929 . S
C1074 H1068 0.930 . S
C1074 C1075 1.367 . S
C1074 C1082 1.378 . S
C1075 C1074 1.367 . S
C1075 C1083 1.433 . S
C1076 H1072 0.929 . S
C1076 C1078 1.378 . S
C1076 C1080 1.350 . S
C1077 C1080 1.463 . S
C1077 C1082 1.350 . S
C1077 N1085 1.427 . S
C1078 H1069 0.930 . S
C1078 C1076 1.378 . S
C1078 C1079 1.367 . S
C1079 C1078 1.367 . S
C1079 C1081 1.433 . S
C1080 C1076 1.350 . S
C1080 C1077 1.463 . S
C1080 N1084 1.427 . S
C1081 H1071 0.929 . S
C1081 C1079 1.433 . S
C1081 N1084 1.384 . S
C1082 H1073 0.929 . S
C1082 C1074 1.378 . S
C1082 C1077 1.350 . S
C1083 H1070 0.929 . S
C1083 C1075 1.433 . S
C1083 N1085 1.384 . S
N1084 C1080 1.427 . S
N1084 C1081 1.384 . S
N1085 C1077 1.427 . S
N1085 C1083 1.384 . S
H1086 C1092 0.930 . S
H1087 C1096 0.930 . S
H1088 C1101 0.929 . S
H1089 C1099 0.929 . S
H1090 C1094 0.929 . S
H1091 C1100 0.929 . S
C1092 H1086 0.930 . S
C1092 C1093 1.367 . S
C1092 C1100 1.378 . S
C1093 C1092 1.367 . S
C1093 C1101 1.433 . S
C1094 H1090 0.929 . S
C1094 C1096 1.378 . S
C1094 C1098 1.350 . S
C1095 C1098 1.463 . S
C1095 C1100 1.350 . S
C1095 N1103 1.427 . S
C1096 H1087 0.930 . S
C1096 C1094 1.378 . S
C1096 C1097 1.367 . S
C1097 C1096 1.367 . S
C1097 C1099 1.433 . S
C1098 C1094 1.350 . S
C1098 C1095 1.463 . S
C1098 N1102 1.427 . S
C1099 H1089 0.929 . S
C1099 C1097 1.433 . S
C1099 N1102 1.384 . S
C1100 H1091 0.929 . S
C1100 C1092 1.378 . S
C1100 C1095 1.350 . S
C1101 H1088 0.929 . S
C1101 C1093 1.433 . S
C1101 N1103 1.384 . S
N1102 C1098 1.427 . S
N1102 C1099 1.384 . S
N1103 C1095 1.427 . S
N1103 C1101 1.384 . S
H1104 C1110 0.930 . S
H1105 C1114 0.930 . S
H1106 C1119 0.929 . S
H1107 C1117 0.929 . S
H1108 C1112 0.929 . S
H1109 C1118 0.929 . S
C1110 H1104 0.930 . S
C1110 C1111 1.367 . S
C1110 C1118 1.378 . S
C1111 C1110 1.367 . S
C1111 C1119 1.433 . S
C1112 H1108 0.929 . S
C1112 C1114 1.378 . S
C1112 C1116 1.350 . S
C1113 C1116 1.463 . S
C1113 C1118 1.350 . S
C1113 N1121 1.427 . S
C1114 H1105 0.930 . S
C1114 C1112 1.378 . S
C1114 C1115 1.367 . S
C1115 C1114 1.367 . S
C1115 C1117 1.433 . S
C1116 C1112 1.350 . S
C1116 C1113 1.463 . S
C1116 N1120 1.427 . S
C1117 H1107 0.929 . S
C1117 C1115 1.433 . S
C1117 N1120 1.384 . S
C1118 H1109 0.929 . S
C1118 C1110 1.378 . S
C1118 C1113 1.350 . S
C1119 H1106 0.929 . S
C1119 C1111 1.433 . S
C1119 N1121 1.384 . S
N1120 C1116 1.427 . S
N1120 C1117 1.384 . S
N1121 C1113 1.427 . S
N1121 C1119 1.384 . S
H1122 C1128 0.930 . S
H1123 C1132 0.930 . S
H1124 C1137 0.929 . S
H1125 C1135 0.929 . S
H1126 C1130 0.929 . S
H1127 C1136 0.929 . S
C1128 H1122 0.930 . S
C1128 C1129 1.367 . S
C1128 C1136 1.378 . S
C1129 C1128 1.367 . S
C1129 C1137 1.433 . S
C1130 H1126 0.929 . S
C1130 C1132 1.378 . S
C1130 C1134 1.350 . S
C1131 C1134 1.463 . S
C1131 C1136 1.350 . S
C1131 N1139 1.427 . S
C1132 H1123 0.930 . S
C1132 C1130 1.378 . S
C1132 C1133 1.367 . S
C1133 C1132 1.367 . S
C1133 C1135 1.433 . S
C1134 C1130 1.350 . S
C1134 C1131 1.463 . S
C1134 N1138 1.427 . S
C1135 H1125 0.929 . S
C1135 C1133 1.433 . S
C1135 N1138 1.384 . S
C1136 H1127 0.929 . S
C1136 C1128 1.378 . S
C1136 C1131 1.350 . S
C1137 H1124 0.929 . S
C1137 C1129 1.433 . S
C1137 N1139 1.384 . S
N1138 C1134 1.427 . S
N1138 C1135 1.384 . S
N1139 C1131 1.427 . S
N1139 C1137 1.384 . S
H1140 C1146 0.930 . S
H1141 C1150 0.930 . S
H1142 C1155 0.929 . S
H1143 C1153 0.929 . S
H1144 C1148 0.929 . S
H1145 C1154 0.929 . S
C1146 H1140 0.930 . S
C1146 C1147 1.367 . S
C1146 C1154 1.378 . S
C1147 C1146 1.367 . S
C1147 C1155 1.433 . S
C1148 H1144 0.929 . S
C1148 C1150 1.378 . S
C1148 C1152 1.350 . S
C1149 C1152 1.463 . S
C1149 C1154 1.350 . S
C1149 N1157 1.427 . S
C1150 H1141 0.930 . S
C1150 C1148 1.378 . S
C1150 C1151 1.367 . S
C1151 C1150 1.367 . S
C1151 C1153 1.433 . S
C1152 C1148 1.350 . S
C1152 C1149 1.463 . S
C1152 N1156 1.427 . S
C1153 H1143 0.929 . S
C1153 C1151 1.433 . S
C1153 N1156 1.384 . S
C1154 H1145 0.929 . S
C1154 C1146 1.378 . S
C1154 C1149 1.350 . S
C1155 H1142 0.929 . S
C1155 C1147 1.433 . S
C1155 N1157 1.384 . S
N1156 C1152 1.427 . S
N1156 C1153 1.384 . S
N1157 C1149 1.427 . S
N1157 C1155 1.384 . S
H1158 C1164 0.930 . S
H1159 C1168 0.930 . S
H1160 C1173 0.929 . S
H1161 C1171 0.929 . S
H1162 C1166 0.929 . S
H1163 C1172 0.929 . S
C1164 H1158 0.930 . S
C1164 C1165 1.367 . S
C1164 C1172 1.378 . S
C1165 C1164 1.367 . S
C1165 C1173 1.433 . S
C1166 H1162 0.929 . S
C1166 C1168 1.378 . S
C1166 C1170 1.350 . S
C1167 C1170 1.463 . S
C1167 C1172 1.350 . S
C1167 N1175 1.427 . S
C1168 H1159 0.930 . S
C1168 C1166 1.378 . S
C1168 C1169 1.367 . S
C1169 C1168 1.367 . S
C1169 C1171 1.433 . S
C1170 C1166 1.350 . S
C1170 C1167 1.463 . S
C1170 N1174 1.427 . S
C1171 H1161 0.929 . S
C1171 C1169 1.433 . S
C1171 N1174 1.384 . S
C1172 H1163 0.929 . S
C1172 C1164 1.378 . S
C1172 C1167 1.350 . S
C1173 H1160 0.929 . S
C1173 C1165 1.433 . S
C1173 N1175 1.384 . S
N1174 C1170 1.427 . S
N1174 C1171 1.384 . S
N1175 C1167 1.427 . S
N1175 C1173 1.384 . S
C319 C187 1.258 . S
C323 C8 1.270 . S
C337 C18 1.211 . S
C341 C195 1.209 . S
C355 C242 1.290 . S
C359 C36 1.308 . S
C373 C39 1.189 . S
C377 C169 1.181 . S
C391 C182 1.292 . S
C395 C62 1.324 . S
C409 C70 1.209 . S
C413 C200 1.217 . S
C427 C86 1.218 . S
C431 C244 1.261 . S
C445 C91 1.199 . S
C449 C174 1.177 . S
C463 C125 1.238 . S
C467 C112 1.249 . S
C481 C130 1.298 . S
C485 C127 1.325 . S
C499 C135 1.261 . S
C503 C151 1.264 . S
C517 C153 1.294 . S
C521 C114 1.292 . S
C535 C156 1.202 . S
C539 C44 1.209 . S
C553 C60 1.233 . S
C557 C218 1.268 . S
C571 C221 1.191 . S
C575 C13 1.178 . S
C589 C23 1.445 . S
C593 C278 1.404 . S
C607 C117 1.362 . S
C611 C5 1.373 . S
C625 C307 1.404 . S
C629 C47 1.403 . S
C643 C143 1.356 . S
C647 C26 1.356 . S
C661 C273 1.459 . S
C665 C99 1.460 . S
C679 C122 1.371 . S
C683 C83 1.365 . S
C697 C75 1.442 . S
C701 C309 1.441 . S
C715 C52 1.343 . S
C719 C148 1.359 . S
C733 C205 1.444 . S
C737 C257 1.441 . S
C751 C213 1.514 . S
C755 C203 1.497 . S
C769 C179 1.414 . S
C773 C208 1.367 . S
C787 C255 1.412 . S
C791 C177 1.410 . S
C805 C31 1.372 . S
C809 C260 1.350 . S
C823 C140 1.441 . S
C827 C101 1.442 . S
C841 C0 1.361 . S
C845 C286 1.361 . S
C859 C252 1.267 . S
C863 C34 1.277 . S
C877 C10 1.308 . S
C881 C216 1.274 . S
C895 C247 1.296 . S
C899 C88 1.324 . S
C913 C161 1.207 . S
C917 C96 1.210 . S
C931 C65 1.198 . S
C935 C226 1.177 . S
C949 C281 1.245 . S
C953 C268 1.244 . S
C967 C299 1.292 . S
C971 C270 1.326 . S
C985 C294 1.277 . S
C989 C304 1.264 . S
C1003 C283 1.290 . S
C1007 C296 1.292 . S
C1021 C109 1.400 . S
C1025 C49 1.444 . S
C1039 C21 1.402 . S
C1043 C138 1.404 . S
C1057 C73 1.454 . S
C1061 C104 1.453 . S
C1075 C265 1.365 . S
C1079 C57 1.369 . S
C1093 C78 1.351 . S
C1097 C291 1.357 . S
C1111 C166 1.444 . S
C1115 C192 1.442 . S
C1129 C239 1.512 . S
C1133 C164 1.490 . S
C1147 C231 1.415 . S
C1151 C234 1.370 . S
C1165 C190 1.414 . S
C1169 C229 1.413 . S
