# Generated by pormake.
# Topology fnc, (5)-cn, num edge types: 1
# Building blocks:
#     Node 0, Type 0, BuildingBlock: BEQFEK_clean_sbu_0, # of connection points: 5
#     Node 1, Type 0, BuildingBlock: BEQFEK_clean_sbu_0, # of connection points: 5
#     Node 2, Type 0, BuildingBlock: BEQFEK_clean_sbu_0, # of connection points: 5
#     Node 3, Type 0, BuildingBlock: BEQFEK_clean_sbu_0, # of connection points: 5
#     Node 4, Type 0, BuildingBlock: BEQFEK_clean_sbu_0, # of connection points: 5
#     Node 5, Type 0, BuildingBlock: BEQFEK_clean_sbu_0, # of connection points: 5
#     Node 6, Type 0, BuildingBlock: BEQFEK_clean_sbu_0, # of connection points: 5
#     Node 7, Type 0, BuildingBlock: BEQFEK_clean_sbu_0, # of connection points: 5
#     Node 8, Type 0, BuildingBlock: BEQFEK_clean_sbu_0, # of connection points: 5
#     Node 9, Type 0, BuildingBlock: BEQFEK_clean_sbu_0, # of connection points: 5
#     Node 10, Type 0, BuildingBlock: BEQFEK_clean_sbu_0, # of connection points: 5
#     Node 11, Type 0, BuildingBlock: BEQFEK_clean_sbu_0, # of connection points: 5
#     Node 12, Type 0, BuildingBlock: BEQFEK_clean_sbu_0, # of connection points: 5
#     Node 13, Type 0, BuildingBlock: BEQFEK_clean_sbu_0, # of connection points: 5
#     Node 14, Type 0, BuildingBlock: BEQFEK_clean_sbu_0, # of connection points: 5
#     Node 15, Type 0, BuildingBlock: BEQFEK_clean_sbu_0, # of connection points: 5
#     Node 16, Type 0, BuildingBlock: BEQFEK_clean_sbu_0, # of connection points: 5
#     Node 17, Type 0, BuildingBlock: BEQFEK_clean_sbu_0, # of connection points: 5
#     Edge 18, Type (0, 0), BuildingBlock: AJUNOK_clean_linker_0, # of connection points: 2
#     Edge 19, Type (0, 0), BuildingBlock: AJUNOK_clean_linker_0, # of connection points: 2
#     Edge 20, Type (0, 0), BuildingBlock: AJUNOK_clean_linker_0, # of connection points: 2
#     Edge 21, Type (0, 0), BuildingBlock: AJUNOK_clean_linker_0, # of connection points: 2
#     Edge 22, Type (0, 0), BuildingBlock: AJUNOK_clean_linker_0, # of connection points: 2
#     Edge 23, Type (0, 0), BuildingBlock: AJUNOK_clean_linker_0, # of connection points: 2
#     Edge 24, Type (0, 0), BuildingBlock: AJUNOK_clean_linker_0, # of connection points: 2
#     Edge 25, Type (0, 0), BuildingBlock: AJUNOK_clean_linker_0, # of connection points: 2
#     Edge 26, Type (0, 0), BuildingBlock: AJUNOK_clean_linker_0, # of connection points: 2
#     Edge 27, Type (0, 0), BuildingBlock: AJUNOK_clean_linker_0, # of connection points: 2
#     Edge 28, Type (0, 0), BuildingBlock: AJUNOK_clean_linker_0, # of connection points: 2
#     Edge 29, Type (0, 0), BuildingBlock: AJUNOK_clean_linker_0, # of connection points: 2
#     Edge 30, Type (0, 0), BuildingBlock: AJUNOK_clean_linker_0, # of connection points: 2
#     Edge 31, Type (0, 0), BuildingBlock: AJUNOK_clean_linker_0, # of connection points: 2
#     Edge 32, Type (0, 0), BuildingBlock: AJUNOK_clean_linker_0, # of connection points: 2
#     Edge 33, Type (0, 0), BuildingBlock: AJUNOK_clean_linker_0, # of connection points: 2
#     Edge 34, Type (0, 0), BuildingBlock: AJUNOK_clean_linker_0, # of connection points: 2
#     Edge 35, Type (0, 0), BuildingBlock: AJUNOK_clean_linker_0, # of connection points: 2
#     Edge 36, Type (0, 0), BuildingBlock: AJUNOK_clean_linker_0, # of connection points: 2
#     Edge 37, Type (0, 0), BuildingBlock: AJUNOK_clean_linker_0, # of connection points: 2
#     Edge 38, Type (0, 0), BuildingBlock: AJUNOK_clean_linker_0, # of connection points: 2
#     Edge 39, Type (0, 0), BuildingBlock: AJUNOK_clean_linker_0, # of connection points: 2
#     Edge 40, Type (0, 0), BuildingBlock: AJUNOK_clean_linker_0, # of connection points: 2
#     Edge 41, Type (0, 0), BuildingBlock: AJUNOK_clean_linker_0, # of connection points: 2
#     Edge 42, Type (0, 0), BuildingBlock: AJUNOK_clean_linker_0, # of connection points: 2
#     Edge 43, Type (0, 0), BuildingBlock: AJUNOK_clean_linker_0, # of connection points: 2
#     Edge 44, Type (0, 0), BuildingBlock: AJUNOK_clean_linker_0, # of connection points: 2
#     Edge 45, Type (0, 0), BuildingBlock: AJUNOK_clean_linker_0, # of connection points: 2
#     Edge 46, Type (0, 0), BuildingBlock: AJUNOK_clean_linker_0, # of connection points: 2
#     Edge 47, Type (0, 0), BuildingBlock: AJUNOK_clean_linker_0, # of connection points: 2
#     Edge 48, Type (0, 0), BuildingBlock: AJUNOK_clean_linker_0, # of connection points: 2
#     Edge 49, Type (0, 0), BuildingBlock: AJUNOK_clean_linker_0, # of connection points: 2
#     Edge 50, Type (0, 0), BuildingBlock: AJUNOK_clean_linker_0, # of connection points: 2
#     Edge 51, Type (0, 0), BuildingBlock: AJUNOK_clean_linker_0, # of connection points: 2
#     Edge 52, Type (0, 0), BuildingBlock: AJUNOK_clean_linker_0, # of connection points: 2
#     Edge 53, Type (0, 0), BuildingBlock: AJUNOK_clean_linker_0, # of connection points: 2
#     Edge 54, Type (0, 0), BuildingBlock: AJUNOK_clean_linker_0, # of connection points: 2
#     Edge 55, Type (0, 0), BuildingBlock: AJUNOK_clean_linker_0, # of connection points: 2
#     Edge 56, Type (0, 0), BuildingBlock: AJUNOK_clean_linker_0, # of connection points: 2
#     Edge 57, Type (0, 0), BuildingBlock: AJUNOK_clean_linker_0, # of connection points: 2
#     Edge 58, Type (0, 0), BuildingBlock: AJUNOK_clean_linker_0, # of connection points: 2
#     Edge 59, Type (0, 0), BuildingBlock: AJUNOK_clean_linker_0, # of connection points: 2
#     Edge 60, Type (0, 0), BuildingBlock: AJUNOK_clean_linker_0, # of connection points: 2
#     Edge 61, Type (0, 0), BuildingBlock: AJUNOK_clean_linker_0, # of connection points: 2
#     Edge 62, Type (0, 0), BuildingBlock: AJUNOK_clean_linker_0, # of connection points: 2
# Relax obj value: 0.286
# Max RMSD: 0.304
# Mean RMSD: 0.277
data_MOF--net-fnc--node1-BEQFEK_clean_sbu_0--edge1-AJUNOK_clean_linker_0
_symmetry_space_group_name_H-M    P1
_symmetry_Int_Tables_number       1
_symmetry_cell_setting            triclinic
loop_
_symmetry_equiv_pos_as_xyz
'x, y, z'
_cell_length_a     70.246631
_cell_length_b     76.440855
_cell_length_c     14.65641
_cell_angle_alpha  89.091844
_cell_angle_beta   92.088657
_cell_angle_gamma 127.69811
loop_
_atom_site_label
_atom_site_type_symbol
_atom_site_fract_x
_atom_site_fract_y
_atom_site_fract_z
_atom_type_partial_charge
Co0 Co 0.04611 0.47963 0.01708 0.0
Co1 Co 0.01569 0.46455 0.19233 0.0
C2 C 0.05711 0.4618 0.16627 0.0
O3 O 0.06494 0.47166 0.09005 0.0
O4 O 0.03923 0.45915 0.20017 0.0
C5 C 0.05377 0.47597 0.83507 0.0
O6 O 0.04972 0.45778 0.86588 0.0
C7 C 0.0256 0.4732 0.38406 0.0
C8 C 0.99042 0.45097 0.44803 0.0
C9 C 0.01498 0.46586 0.4678 0.0
N10 N 0.00832 0.46294 0.31767 0.0
N11 N 0.98723 0.44974 0.35621 0.0
C12 C 0.05187 0.49009 0.36697 0.0
H13 H 0.05443 0.49975 0.30512 0.0
H14 H 0.06143 0.50142 0.42651 0.0
H15 H 0.05997 0.48166 0.35503 0.0
C16 C 0.04859 0.5193 0.04882 0.0
N17 N 0.04349 0.49997 0.07643 0.0
N18 N 0.02977 0.49299 0.14758 0.0
C19 C 0.02579 0.50753 0.16803 0.0
C20 C 0.03745 0.52467 0.10583 0.0
C21 C 0.06036 0.53035 0.9612 0.0
H22 H 0.07615 0.5306 0.95287 0.0
H23 H 0.06612 0.54749 0.95917 0.0
H24 H 0.04737 0.52077 0.90343 0.0
O25 O 0.01301 0.45229 0.9916 0.0
O26 O 0.98897 0.44155 0.10847 0.0
H27 H 0.99155 0.48722 0.23053 0.0
H28 H 0.00647 0.51669 0.23952 0.0
C29 C 0.00914 0.50381 0.24024 0.0
H30 H 0.01681 0.50406 0.30812 0.0
H31 H 0.97083 0.4393 0.3201 0.0
O32 O 0.05666 0.48987 0.89171 0.0
C33 C 0.99237 0.43917 0.02588 0.0
Co34 Co 0.57868 0.6448 0.99359 0.0
Co35 Co 0.5948 0.63539 0.17956 0.0
C36 C 0.59611 0.67582 0.14561 0.0
O37 O 0.58725 0.6713 0.06408 0.0
O38 O 0.59953 0.6633 0.18777 0.0
C39 C 0.5857 0.65739 0.81225 0.0
O40 O 0.60564 0.67451 0.8515 0.0
C41 C 0.58476 0.62995 0.37126 0.0
C42 C 0.61682 0.63515 0.43485 0.0
C43 C 0.59644 0.63322 0.45468 0.0
N44 N 0.59757 0.62993 0.30513 0.0
N45 N 0.6165 0.63263 0.34381 0.0
C46 C 0.56382 0.63023 0.35375 0.0
H47 H 0.56196 0.63296 0.28055 0.0
H48 H 0.54709 0.61407 0.37359 0.0
H49 H 0.56579 0.6432 0.39605 0.0
C50 C 0.53494 0.59924 0.0261 0.0
N51 N 0.55651 0.61769 0.05386 0.0
N52 N 0.56383 0.61335 0.12872 0.0
C53 C 0.54726 0.59202 0.15073 0.0
C54 C 0.52841 0.58232 0.08634 0.0
C55 C 0.5216 0.59767 0.94087 0.0
H56 H 0.52361 0.61316 0.93153 0.0
H57 H 0.50224 0.5833 0.94309 0.0
H58 H 0.5295 0.5957 0.88155 0.0
O59 O 0.60768 0.64693 0.97731 0.0
O60 O 0.62021 0.63954 0.10248 0.0
H61 H 0.54088 0.56281 0.20963 0.0
H62 H 0.54388 0.58203 0.28971 0.0
C63 C 0.5508 0.58062 0.22564 0.0
H64 H 0.57022 0.58856 0.23673 0.0
H65 H 0.63025 0.63466 0.30763 0.0
O66 O 0.56864 0.64322 0.86324 0.0
C67 C 0.62202 0.64428 0.01778 0.0
Co68 Co 0.4369 0.06396 0.18289 0.0
Co69 Co 0.41285 0.03817 0.99883 0.0
C70 C 0.42981 0.0855 0.03607 0.0
O71 O 0.43911 0.08812 0.11591 0.0
O72 O 0.41941 0.06734 0.99284 0.0
C73 C 0.46047 0.07874 0.38332 0.0
O74 O 0.4835 0.09473 0.37369 0.0
C75 C 0.42651 0.04309 0.81301 0.0
C76 C 0.39337 0.01677 0.73707 0.0
C77 C 0.41725 0.03489 0.72575 0.0
N78 N 0.40915 0.03033 0.87302 0.0
N79 N 0.38938 0.01445 0.82744 0.0
C80 C 0.45075 0.06415 0.83859 0.0
H81 H 0.45073 0.07032 0.90621 0.0
H82 H 0.4642 0.061 0.84325 0.0
H83 H 0.45648 0.07704 0.78638 0.0
C84 C 0.46894 0.05188 0.14653 0.0
N85 N 0.4511 0.05308 0.12214 0.0
N86 N 0.43969 0.0408 0.04876 0.0
C87 C 0.44959 0.03109 0.02496 0.0
C88 C 0.46846 0.0378 0.08597 0.0
C89 C 0.48582 0.06378 0.22685 0.0
H90 H 0.47628 0.05533 0.29041 0.0
H91 H 0.49167 0.08093 0.2291 0.0
H92 H 0.50184 0.06419 0.22328 0.0
O93 O 0.40294 0.03879 0.19718 0.0
O94 O 0.38401 0.01754 0.07494 0.0
H95 H 0.41978 0.00476 0.94267 0.0
H96 H 0.44318 0.00193 0.9684 0.0
C97 C 0.43948 0.01383 0.95168 0.0
H98 H 0.44809 0.02193 0.8864 0.0
H99 H 0.37293 0.00271 0.85743 0.0
O100 O 0.4464 0.06953 0.31384 0.0
C101 C 0.38422 0.02173 0.1592 0.0
Co102 Co 0.98624 0.61498 0.15843 0.0
Co103 Co 0.0127 0.63505 0.97598 0.0
C104 C 0.96021 0.61674 0.00492 0.0
O105 O 0.95858 0.60991 0.08632 0.0
O106 O 0.97982 0.62662 0.96328 0.0
C107 C 0.96888 0.59372 0.35093 0.0
O108 O 0.95197 0.57282 0.33028 0.0
C109 C 0.00763 0.6219 0.78968 0.0
C110 C 0.03509 0.65276 0.71895 0.0
C111 C 0.01587 0.63063 0.70399 0.0
N112 N 0.02137 0.63798 0.85237 0.0
N113 N 0.03802 0.65636 0.80996 0.0
C114 C 0.9851 0.5994 0.81101 0.0
H115 H 0.9701 0.59509 0.76357 0.0
H116 H 0.98003 0.59842 0.8825 0.0
H117 H 0.9881 0.5869 0.80215 0.0
C118 C 0.00082 0.58619 0.12867 0.0
N119 N -0.00062 0.60238 0.10357 0.0
N120 N 0.01221 0.61215 0.03069 0.0
C121 C 0.02267 0.60283 0.00847 0.0
C122 C 0.01556 0.58596 0.0692 0.0
C123 C 0.9894 0.57205 0.21089 0.0
H124 H 0.99667 0.58271 0.27279 0.0
H125 H 0.96972 0.5633 0.20539 0.0
H126 H 0.9929 0.55976 0.21805 0.0
O127 O 0.01225 0.64687 0.17267 0.0
O128 O 0.03374 0.66299 0.04955 0.0
H129 H 0.04945 0.628 0.91931 0.0
H130 H 0.05203 0.60626 0.94496 0.0
C131 C 0.03926 0.61002 0.9311 0.0
H132 H 0.02853 0.60094 0.86822 0.0
H133 H 0.05036 0.67161 0.84249 0.0
O134 O 0.98042 0.60787 0.28885 0.0
C135 C 0.02978 0.66385 0.13304 0.0
Co136 Co 0.41087 0.42645 0.17309 0.0
Co137 Co 0.38828 0.42825 0.98551 0.0
C138 C 0.39988 0.39547 0.03265 0.0
O139 O 0.40953 0.40258 0.11225 0.0
O140 O 0.39156 0.40398 0.9876 0.0
C141 C 0.43377 0.43725 0.37682 0.0
O142 O 0.45243 0.43717 0.37936 0.0
C143 C 0.39254 0.42866 0.78853 0.0
C144 C 0.38438 0.45067 0.73746 0.0
C145 C 0.39409 0.44027 0.71206 0.0
N146 N 0.38401 0.43305 0.85792 0.0
N147 N 0.37826 0.44561 0.82578 0.0
C148 C 0.39713 0.41204 0.79325 0.0
H149 H 0.38192 0.39696 0.82677 0.0
H150 H 0.41415 0.41927 0.83322 0.0
H151 H 0.39831 0.40686 0.72483 0.0
C152 C 0.44831 0.4729 0.12934 0.0
N153 N 0.42769 0.45295 0.10726 0.0
N154 N 0.41782 0.4546 0.03284 0.0
C155 C 0.43204 0.4759 0.00565 0.0
C156 C 0.45173 0.48809 0.06598 0.0
C157 C 0.46431 0.47731 0.21025 0.0
H158 H 0.46465 0.46311 0.22098 0.0
H159 H 0.48291 0.49261 0.20097 0.0
H160 H 0.45708 0.47937 0.27178 0.0
O161 O 0.37791 0.4158 0.18655 0.0
O162 O 0.36034 0.41848 0.06478 0.0
H163 H 0.43879 0.50318 0.92562 0.0
H164 H 0.42638 0.47798 0.86322 0.0
C165 C 0.42598 0.48488 0.92841 0.0
H166 H 0.4077 0.47993 0.93708 0.0
H167 H 0.37142 0.45174 0.86516 0.0
O168 O 0.42202 0.4332 0.30217 0.0
C169 C 0.35991 0.41337 0.14862 0.0
Co170 Co 0.57345 0.99712 0.00849 0.0
Co171 Co 0.59322 0.0246 0.19126 0.0
C172 C 0.58812 0.98214 0.15898 0.0
O173 O 0.57854 0.97735 0.07857 0.0
O174 O 0.59426 -0.00051 0.19985 0.0
C175 C 0.55112 0.97913 0.80851 0.0
O176 O 0.52937 0.96075 0.82012 0.0
C177 C 0.57849 0.01742 0.37667 0.0
C178 C 0.60997 0.04554 0.45343 0.0
C179 C 0.58729 0.02557 0.46446 0.0
N180 N 0.59501 0.03188 0.3169 0.0
N181 N 0.61373 0.04883 0.36304 0.0
C182 C 0.55596 0.99503 0.34986 0.0
H183 H 0.55146 0.98257 0.40263 0.0
H184 H 0.55774 0.98963 0.28325 0.0
H185 H 0.54077 0.99585 0.34241 0.0
C186 C 0.53349 -0.00027 0.04214 0.0
N187 N 0.55392 0.00266 0.06755 0.0
N188 N 0.5635 0.01563 0.14009 0.0
C189 C 0.54982 0.02162 0.16237 0.0
C190 C 0.53015 0.01151 0.10196 0.0
C191 C 0.51829 0.98697 0.95945 0.0
H192 H 0.52784 0.99649 0.89747 0.0
H193 H 0.51546 0.97104 0.95702 0.0
H194 H 0.5006 0.98375 0.96003 0.0
O195 O 0.60478 0.02601 0.99374 0.0
O196 O 0.62014 0.04826 0.11444 0.0
H197 H 0.57733 0.05106 0.23804 0.0
H198 H 0.55039 0.04851 0.21085 0.0
C199 C 0.55741 0.03931 0.231 0.0
H200 H 0.55014 0.03165 0.2983 0.0
H201 H 0.62958 0.06194 0.33337 0.0
O202 O 0.56477 0.99033 0.87688 0.0
C203 C 0.62115 0.04457 0.03068 0.0
Co204 Co 0.69949 0.80049 0.33288 0.0
Co205 Co 0.67142 0.78415 0.51526 0.0
C206 C 0.7175 0.78898 0.48716 0.0
O207 O 0.7211 0.79615 0.40548 0.0
O208 O 0.69932 0.78399 0.52941 0.0
C209 C 0.70658 0.795 0.1561 0.0
O210 O 0.70393 0.77832 0.19782 0.0
C211 C 0.67579 0.79265 0.70945 0.0
C212 C 0.64447 0.76066 0.76053 0.0
C213 C 0.66576 0.78067 0.78853 0.0
N214 N 0.66128 0.78023 0.63781 0.0
N215 N 0.64228 0.7613 0.66906 0.0
C216 C 0.70026 0.81435 0.70151 0.0
H217 H 0.70665 0.81697 0.63091 0.0
H218 H 0.69933 0.82784 0.7195 0.0
H219 H 0.71329 0.81538 0.75076 0.0
C220 C 0.69926 0.83842 0.36971 0.0
N221 N 0.69436 0.81899 0.39327 0.0
N222 N 0.68126 0.8115 0.46648 0.0
C223 C 0.67708 0.82574 0.49102 0.0
C224 C 0.68859 0.84343 0.43115 0.0
C225 C 0.71336 0.85153 0.28851 0.0
H226 H 0.72784 0.84997 0.27816 0.0
H227 H 0.7213 0.86922 0.29689 0.0
H228 H 0.70119 0.84483 0.22687 0.0
O229 O 0.66794 0.77153 0.31042 0.0
O230 O 0.64624 0.75887 0.43434 0.0
H231 H 0.65139 0.82907 0.54641 0.0
H232 H 0.67007 0.82796 0.62942 0.0
C233 C 0.66004 0.82114 0.56321 0.0
H234 H 0.646 0.80306 0.57062 0.0
H235 H 0.62896 0.74807 0.62756 0.0
O236 O 0.70917 0.80996 0.2051 0.0
C237 C 0.6486 0.75694 0.35 0.0
Co238 Co 0.2588 0.9814 0.35357 0.0
Co239 Co 0.27296 0.97083 0.5405 0.0
C240 C 0.2755 0.0118 0.50639 0.0
O241 O 0.26728 0.00759 0.42407 0.0
O242 O 0.2786 0.99922 0.5498 0.0
C243 C 0.23968 0.98025 0.15273 0.0
O244 O 0.21929 0.97711 0.16256 0.0
C245 C 0.25957 0.96466 0.72664 0.0
C246 C 0.28791 0.96562 0.80225 0.0
C247 C 0.26833 0.96556 0.81386 0.0
N248 N 0.27326 0.96428 0.66616 0.0
N249 N 0.29003 0.96456 0.7117 0.0
C250 C 0.24059 0.9673 0.70106 0.0
H251 H 0.24402 0.98149 0.7389 0.0
H252 H 0.23985 0.96968 0.62672 0.0
H253 H 0.22274 0.95223 0.72041 0.0
C254 C 0.21337 0.93641 0.38377 0.0
N255 N 0.23563 0.95415 0.41021 0.0
N256 N 0.24237 0.94925 0.48506 0.0
C257 C 0.22483 0.92819 0.50786 0.0
C258 C 0.20587 0.91945 0.44472 0.0
C259 C 0.20049 0.93521 0.29787 0.0
H260 H 0.21091 0.93705 0.23846 0.0
H261 H 0.19938 0.94907 0.29736 0.0
H262 H 0.1821 0.9193 0.29135 0.0
O263 O 0.2878 0.98349 0.34234 0.0
O264 O 0.29934 0.97532 0.46812 0.0
H265 H 0.24503 0.92209 0.59749 0.0
H266 H 0.21362 0.89848 0.58034 0.0
C267 C 0.2264 0.91671 0.58812 0.0
H268 H 0.22181 0.92125 0.65046 0.0
H269 H 0.30386 0.96558 0.68114 0.0
O270 O 0.25172 0.98132 0.22197 0.0
C271 C 0.30187 0.98067 0.38395 0.0
Co272 Co 0.075 0.37171 0.31882 0.0
Co273 Co 0.09722 0.39686 0.50514 0.0
C274 C 0.04392 0.3564 0.47302 0.0
O275 O 0.04499 0.35261 0.38955 0.0
O276 O 0.06231 0.37249 0.5169 0.0
C277 C 0.06688 0.35267 0.12018 0.0
O278 O 0.05866 0.33213 0.13285 0.0
C279 C 0.10256 0.39004 0.69424 0.0
C280 C 0.11385 0.42094 0.75968 0.0
C281 C 0.10555 0.3995 0.77876 0.0
N282 N 0.10815 0.40488 0.62893 0.0
N283 N 0.11546 0.42354 0.66845 0.0
C284 C 0.0919 0.36645 0.67468 0.0
H285 H 0.08634 0.36216 0.60177 0.0
H286 H 0.10556 0.36389 0.69101 0.0
H287 H 0.07649 0.35523 0.71879 0.0
C288 C 0.11252 0.36554 0.34984 0.0
N289 N 0.10138 0.37409 0.37345 0.0
N290 N 0.11222 0.38641 0.44726 0.0
C291 C 0.13109 0.38663 0.47117 0.0
C292 C 0.13168 0.37323 0.41071 0.0
C293 C 0.10478 0.35015 0.27095 0.0
H294 H 0.10793 0.35925 0.20656 0.0
H295 H 0.08524 0.33643 0.27454 0.0
H296 H 0.1149 0.34333 0.27009 0.0
O297 O 0.08228 0.40093 0.30981 0.0
O298 O 0.10005 0.42099 0.43578 0.0
H299 H 0.14759 0.41244 0.57314 0.0
H300 H 0.1662 0.40501 0.53749 0.0
C301 C 0.14759 0.39855 0.55255 0.0
H302 H 0.14165 0.38686 0.60998 0.0
H303 H 0.1196 0.43738 0.63314 0.0
O304 O 0.07219 0.36523 0.1877 0.0
C305 C 0.09215 0.41885 0.35382 0.0
Co306 Co 0.68988 0.97051 0.33394 0.0
Co307 Co 0.66168 0.95199 0.51401 0.0
C308 C 0.70737 4e-05 0.49034 0.0
O309 O 0.71174 0.99826 0.4086 0.0
O310 O 0.689 0.98373 0.5296 0.0
C311 C 0.71069 0.97621 0.13911 0.0
O312 O 0.73199 0.98119 0.15606 0.0
C313 C 0.66914 0.94703 0.70312 0.0
C314 C 0.63718 0.94012 0.76635 0.0
C315 C 0.65978 0.94572 0.78688 0.0
N316 N 0.65311 0.94292 0.63673 0.0
N317 N 0.63382 0.93832 0.67488 0.0
C318 C 0.69401 0.95454 0.68547 0.0
H319 H 0.69892 0.96002 0.61402 0.0
H320 H 0.69466 0.94054 0.69719 0.0
H321 H 0.70748 0.96799 0.73322 0.0
C322 C 0.6922 0.93313 0.36564 0.0
N323 N 0.68549 0.9456 0.38865 0.0
N324 N 0.67187 0.93684 0.46017 0.0
C325 C 0.669 0.91828 0.4837 0.0
C326 C 0.68207 0.91547 0.42536 0.0
C327 C 0.7087 0.93855 0.29013 0.0
H328 H 0.69889 0.93511 0.22366 0.0
H329 H 0.72414 0.95639 0.29366 0.0
H330 H 0.71549 0.92873 0.29449 0.0
O331 O 0.65825 0.96443 0.31735 0.0
O332 O 0.63578 0.9493 0.43872 0.0
H333 H 0.6451 0.88537 0.53797 0.0
H334 H 0.66241 0.907 0.62185 0.0
C335 C 0.65241 0.90257 0.55538 0.0
H336 H 0.63739 0.9035 0.56263 0.0
H337 H 0.61918 0.93577 0.63849 0.0
O338 O 0.6973 0.97269 0.20392 0.0
C339 C 0.63862 0.95614 0.35676 0.0
Co340 Co 0.05544 0.77495 0.32585 0.0
Co341 Co 0.07143 0.76552 0.51226 0.0
C342 C 0.02235 0.75543 0.47442 0.0
O343 O 0.02551 0.76289 0.39335 0.0
O344 O 0.03828 0.7554 0.5178 0.0
C345 C 0.04236 0.76711 0.14036 0.0
O346 O 0.02535 0.74747 0.17241 0.0
C347 C 0.0736 0.77333 0.70441 0.0
C348 C 0.08572 0.7553 0.76872 0.0
C349 C 0.07717 0.76703 0.78792 0.0
N350 N 0.07966 0.76576 0.63818 0.0
N351 N 0.08725 0.75522 0.67707 0.0
C352 C 0.06296 0.78514 0.68812 0.0
H353 H 0.06671 0.7922 0.61853 0.0
H354 H 0.0703 0.79848 0.7398 0.0
H355 H 0.04323 0.7733 0.69607 0.0
C356 C 0.09944 0.81995 0.36805 0.0
N357 N 0.0833 0.7985 0.38931 0.0
N358 N 0.09083 0.79434 0.46403 0.0
C359 C 0.11213 0.81298 0.49237 0.0
C360 C 0.11823 0.82979 0.43253 0.0
C361 C 0.09767 0.83019 0.28361 0.0
H362 H 0.10207 0.82464 0.22397 0.0
H363 H 0.07895 0.8245 0.27294 0.0
H364 H 0.11031 0.84851 0.28746 0.0
O365 O 0.05825 0.75122 0.31012 0.0
O366 O 0.07128 0.74405 0.43418 0.0
H367 H 0.12594 0.8 0.57928 0.0
H368 H 0.1449 0.83 0.57686 0.0
C369 C 0.12608 0.81459 0.57579 0.0
H370 H 0.11726 0.81452 0.63716 0.0
H371 H 0.09211 0.74689 0.6411 0.0
O372 O 0.05558 0.78307 0.19653 0.0
C373 C 0.06453 0.74053 0.34996 0.0
Co374 Co 0.22696 0.3222 0.35914 0.0
Co375 Co 0.24915 0.34946 0.54338 0.0
C376 C 0.23786 0.3043 0.51332 0.0
O377 O 0.22933 0.30079 0.43142 0.0
O378 O 0.24564 0.32202 0.55529 0.0
C379 C 0.23119 0.31533 0.17924 0.0
O380 O 0.24842 0.3157 0.21998 0.0
C381 C 0.23965 0.34656 0.73567 0.0
C382 C 0.27537 0.373 0.79615 0.0
C383 C 0.25233 0.3549 0.81841 0.0
N384 N 0.25447 0.35909 0.6678 0.0
N385 N 0.27569 0.37516 0.70462 0.0
C386 C 0.21484 0.32532 0.72073 0.0
H387 H 0.21233 0.31881 0.65069 0.0
H388 H 0.20147 0.32836 0.72947 0.0
H389 H 0.21113 0.31285 0.77203 0.0
C390 C 0.19165 0.33053 0.39101 0.0
N391 N 0.21026 0.33076 0.41939 0.0
N392 N 0.2206 0.34346 0.49262 0.0
C393 C 0.20925 0.35203 0.51217 0.0
C394 C 0.19047 0.34405 0.44871 0.0
C395 C 0.17778 0.32043 0.30287 0.0
H396 H 0.17513 0.30482 0.28948 0.0
H397 H 0.16009 0.31719 0.30387 0.0
H398 H 0.18822 0.33208 0.24668 0.0
O399 O 0.25942 0.34948 0.33925 0.0
O400 O 0.27693 0.37049 0.46337 0.0
H401 H 0.23763 0.38098 0.58728 0.0
H402 H 0.20995 0.37798 0.57494 0.0
C403 C 0.21768 0.36904 0.58524 0.0
H404 H 0.212 0.36079 0.65235 0.0
H405 H 0.29092 0.38642 0.66712 0.0
O406 O 0.21582 0.31391 0.22899 0.0
C407 C 0.27703 0.36706 0.37843 0.0
Co408 Co 0.37936 0.14013 0.69948 0.0
Co409 Co 0.34991 0.12011 0.87869 0.0
C410 C 0.39946 0.13091 0.85138 0.0
O411 O 0.40378 0.13951 0.77216 0.0
O412 O 0.37987 0.12332 0.88935 0.0
C413 C 0.39776 0.1616 0.50564 0.0
O414 O 0.41521 0.18232 0.52693 0.0
C415 C 0.3571 0.13419 0.06548 0.0
C416 C 0.33001 0.10376 0.13922 0.0
C417 C 0.3498 0.12576 0.15225 0.0
N418 N 0.34227 0.11808 0.00395 0.0
N419 N 0.32588 0.09995 0.0484 0.0
C420 C 0.37976 0.15634 0.04167 0.0
H421 H 0.3943 0.16186 0.09381 0.0
H422 H 0.38578 0.15593 0.97353 0.0
H423 H 0.3763 0.16868 0.03983 0.0
C424 C 0.36964 0.17257 0.73288 0.0
N425 N 0.36926 0.15528 0.75737 0.0
N426 N 0.35532 0.14555 0.82772 0.0
C427 C 0.34613 0.15602 0.84916 0.0
C428 C 0.35494 0.17353 0.79013 0.0
C429 C 0.38356 0.18768 0.65568 0.0
H430 H 0.37505 0.17867 0.59013 0.0
H431 H 0.40216 0.19292 0.66089 0.0
H432 H 0.38419 0.20254 0.65671 0.0
O433 O 0.35043 0.1093 0.6838 0.0
O434 O 0.32626 0.09347 0.80006 0.0
H435 H 0.31662 0.12974 0.92681 0.0
H436 H 0.31479 0.15175 0.89629 0.0
C437 C 0.32713 0.14785 0.91781 0.0
H438 H 0.33581 0.15619 0.98434 0.0
H439 H 0.31296 0.08467 0.01714 0.0
O440 O 0.38579 0.14741 0.56752 0.0
C441 C 0.33121 0.09274 0.71779 0.0
Co442 Co 0.91848 0.33048 0.65305 0.0
Co443 Co 0.93314 0.31956 0.83812 0.0
C444 C 0.93524 0.36069 0.80685 0.0
O445 O 0.92686 0.35682 0.72466 0.0
O446 O 0.93822 0.34774 0.84788 0.0
C447 C 0.89853 0.3277 0.45074 0.0
O448 O 0.87761 0.32353 0.4606 0.0
C449 C 0.91861 0.31113 0.02458 0.0
C450 C 0.94976 0.3169 0.09976 0.0
C451 C 0.92837 0.31382 0.11191 0.0
N452 N 0.93363 0.31288 0.96393 0.0
N453 N 0.95204 0.31592 0.00939 0.0
C454 C 0.89684 0.30967 0.99836 0.0
H455 H 0.89805 0.31578 0.92816 0.0
H456 H 0.88061 0.29215 1.00073 0.0
H457 H 0.89439 0.31907 0.04691 0.0
C458 C 0.87363 0.28445 0.68262 0.0
N459 N 0.89551 0.30274 0.70975 0.0
N460 N 0.90278 0.29796 0.78331 0.0
C461 C 0.88617 0.27658 0.80429 0.0
C462 C 0.86698 0.26737 0.74205 0.0
C463 C 0.85982 0.28319 0.59979 0.0
H464 H 0.8599 0.29774 0.59896 0.0
H465 H 0.84095 0.26783 0.59876 0.0
H466 H 0.86871 0.2836 0.53789 0.0
O467 O 0.94792 0.33304 0.64136 0.0
O468 O 0.95898 0.32364 0.7641 0.0
H469 H 0.88098 0.24713 0.85248 0.0
H470 H 0.88271 0.26429 0.9398 0.0
C471 C 0.8902 0.26452 0.87415 0.0
H472 H 0.90972 0.2729 0.88513 0.0
H473 H 0.96703 0.31908 0.97871 0.0
O474 O 0.91111 0.32974 0.5202 0.0
C475 C 0.96195 0.32986 0.68099 0.0
Co476 Co 0.75668 0.72335 0.81908 0.0
Co477 Co 0.73289 0.69719 0.63531 0.0
C478 C 0.74957 0.74435 0.66995 0.0
O479 O 0.75884 0.74725 0.75 0.0
O480 O 0.73938 0.72613 0.6278 0.0
C481 C 0.77988 0.73922 0.02022 0.0
O482 O 0.80321 0.75411 0.01213 0.0
C483 C 0.74578 0.70266 0.44855 0.0
C484 C 0.712 0.67715 0.37361 0.0
C485 C 0.73575 0.69541 0.36145 0.0
N486 N 0.72889 0.68941 0.50943 0.0
N487 N 0.70873 0.674 0.46435 0.0
C488 C 0.77019 0.72356 0.47347 0.0
H489 H 0.77172 0.72779 0.54657 0.0
H490 H 0.78407 0.7214 0.46022 0.0
H491 H 0.77396 0.73743 0.43076 0.0
C492 C 0.7889 0.71123 0.78514 0.0
N493 N 0.77096 0.71226 0.76017 0.0
N494 N 0.75969 0.69991 0.68673 0.0
C495 C 0.76976 0.69033 0.6636 0.0
C496 C 0.78866 0.69728 0.72485 0.0
C497 C 0.80437 0.72168 0.86984 0.0
H498 H 0.79305 0.71372 0.9303 0.0
H499 H 0.81233 0.73945 0.87119 0.0
H500 H 0.81894 0.71994 0.87372 0.0
O501 O 0.72267 0.69831 0.83336 0.0
O502 O 0.70397 0.67699 0.71092 0.0
H503 H 0.74098 0.66384 0.57905 0.0
H504 H 0.7666 0.66367 0.59536 0.0
C505 C 0.7609 0.67429 0.58602 0.0
H506 H 0.76852 0.68361 0.52182 0.0
H507 H 0.69245 0.66219 0.49519 0.0
O508 O 0.76618 0.72997 0.94986 0.0
C509 C 0.704 0.68131 0.79482 0.0
Co510 Co 0.30434 0.26581 0.86578 0.0
Co511 Co 0.3324 0.28446 0.68472 0.0
C512 C 0.28246 0.2726 0.711 0.0
O513 O 0.27904 0.26484 0.79162 0.0
O514 O 0.302 0.28052 0.67185 0.0
C515 C 0.28479 0.24444 0.05764 0.0
O516 O 0.26667 0.22403 0.0349 0.0
C517 C 0.32478 0.27021 0.49854 0.0
C518 C 0.35307 0.30011 0.42501 0.0
C519 C 0.33252 0.27845 0.41191 0.0
N520 N 0.34006 0.28611 0.56009 0.0
N521 N 0.35718 0.30389 0.51583 0.0
C522 C 0.30143 0.24858 0.52193 0.0
H523 H 0.29668 0.24856 0.59309 0.0
H524 H 0.30312 0.23516 0.51514 0.0
H525 H 0.28672 0.24488 0.47422 0.0
C526 C 0.31358 0.23287 0.83493 0.0
N527 N 0.31425 0.25031 0.81019 0.0
N528 N 0.32744 0.25937 0.73767 0.0
C529 C 0.33585 0.24833 0.7148 0.0
C530 C 0.32715 0.23099 0.77494 0.0
C531 C 0.3003 0.2184 0.91451 0.0
H532 H 0.30907 0.22804 0.97865 0.0
H533 H 0.28159 0.2129 0.91013 0.0
H534 H 0.29987 0.20365 0.91588 0.0
O535 O 0.33327 0.29694 0.88117 0.0
O536 O 0.35619 0.31149 0.76082 0.0
H537 H 0.36576 0.27409 0.63734 0.0
H538 H 0.36539 0.25052 0.66005 0.0
C539 C 0.35408 0.25583 0.64343 0.0
H540 H 0.34467 0.24844 0.57658 0.0
H541 H 0.37066 0.31901 0.54716 0.0
O542 O 0.29755 0.25865 0.99694 0.0
C543 C 0.35228 0.31297 0.84377 0.0
Co544 Co 0.75326 0.11045 0.82608 0.0
Co545 Co 0.73128 0.11263 0.63894 0.0
C546 C 0.74345 0.08083 0.67696 0.0
O547 O 0.75207 0.08722 0.75827 0.0
O548 O 0.73525 0.08937 0.632 0.0
C549 C 0.74941 0.09887 0.00747 0.0
O550 O 0.73229 0.07979 0.96874 0.0
C551 C 0.7408 0.11965 0.44699 0.0
C552 C 0.70579 0.10779 0.38389 0.0
C553 C 0.72852 0.11455 0.3637 0.0
N554 N 0.72613 0.11618 0.51344 0.0
N555 N 0.70533 0.10946 0.47514 0.0
C556 C 0.76475 0.12446 0.4638 0.0
H557 H 0.7656 0.11262 0.42493 0.0
H558 H 0.76827 0.1237 0.53749 0.0
H559 H 0.7791 0.14129 0.43895 0.0
C560 C 0.78927 0.15795 0.78804 0.0
N561 N 0.76973 0.13758 0.76348 0.0
N562 N 0.75981 0.13888 0.68835 0.0
C563 C 0.77265 0.16019 0.66303 0.0
C564 C 0.79169 0.173 0.72556 0.0
C565 C 0.80501 0.16272 0.87045 0.0
H566 H 0.80654 0.1492 0.8805 0.0
H567 H 0.82318 0.17875 0.86387 0.0
H568 H 0.79663 0.16343 0.93152 0.0
O569 O 0.72043 0.1004 0.84231 0.0
O570 O 0.70305 0.1019 0.71634 0.0
H571 H 0.74582 0.1573 0.57413 0.0
H572 H 0.77227 0.18547 0.59744 0.0
C573 C 0.76566 0.16827 0.58497 0.0
H574 H 0.77383 0.16806 0.52203 0.0
H575 H 0.69023 0.10433 0.51157 0.0
O576 O 0.76442 0.11482 0.95616 0.0
C577 C 0.70271 0.09794 0.80148 0.0
Co578 Co 0.88891 0.65107 0.66509 0.0
Co579 Co 0.91003 0.67902 0.84754 0.0
C580 C 0.90282 0.63551 0.81461 0.0
O581 O 0.89269 0.63047 0.73515 0.0
O582 O 0.90973 0.65322 0.85429 0.0
C583 C 0.86631 0.63359 0.46609 0.0
O584 O 0.84397 0.61661 0.48143 0.0
C585 C 0.89502 0.67138 0.03281 0.0
C586 C 0.92718 0.69815 0.11164 0.0
C587 C 0.90398 0.67873 0.12111 0.0
N588 N 0.91193 0.68581 0.974 0.0
N589 N 0.93108 0.70195 0.02148 0.0
C590 C 0.87194 0.64952 0.00472 0.0
H591 H 0.87328 0.64425 0.93692 0.0
H592 H 0.85727 0.6511 0.99959 0.0
H593 H 0.86697 0.63663 0.05593 0.0
C594 C 0.85118 0.65691 0.69675 0.0
N595 N 0.87069 0.65835 0.72335 0.0
N596 N 0.88096 0.67152 0.79526 0.0
C597 C 0.86874 0.67917 0.81555 0.0
C598 C 0.84936 0.67004 0.75441 0.0
C599 C 0.83645 0.64555 0.61142 0.0
H600 H 0.84787 0.65397 0.55154 0.0
H601 H 0.83 0.6282 0.61186 0.0
H602 H 0.82079 0.64573 0.60511 0.0
O603 O 0.92125 0.67902 0.65383 0.0
O604 O 0.93782 0.70206 0.77178 0.0
H605 H 0.89653 0.70762 0.89506 0.0
H606 H 0.86969 0.70562 0.87392 0.0
C607 C 0.8766 0.69611 0.88832 0.0
H608 H 0.86946 0.68767 0.95448 0.0
H609 H 0.94727 0.71475 0.99271 0.0
O610 O 0.88106 0.64484 0.53211 0.0
C611 C 0.93861 0.69735 0.68936 0.0
C612 C 0.02995 0.48024 0.71983 0.0
C613 C 0.04699 0.47652 0.73932 0.0
C614 C 0.01988 0.477 0.63142 0.0
C615 C 0.027 0.47055 0.55915 0.0
H616 H 0.02346 0.4846 0.77417 0.0
H617 H 0.00624 0.47933 0.6197 0.0
S618 S 0.07192 0.4598 0.57451 0.0
N619 N 0.07088 0.46648 0.67976 0.0
N620 N 0.05276 0.46123 0.51292 0.0
C621 C 0.04468 0.46758 0.57739 0.0
C622 C 0.05447 0.47035 0.66774 0.0
C623 C 0.60716 0.66643 0.66599 0.0
C624 C 0.58606 0.65198 0.71534 0.0
C625 C 0.61018 0.66026 0.58139 0.0
C626 C 0.59214 0.63952 0.54206 0.0
H627 H 0.62198 0.68235 0.6944 0.0
H628 H 0.62695 0.6717 0.54713 0.0
S629 S 0.53276 0.59621 0.63766 0.0
N630 N 0.54614 0.61636 0.71437 0.0
N631 N 0.55199 0.60497 0.55503 0.0
C632 C 0.57052 0.62532 0.58771 0.0
C633 C 0.56742 0.63151 0.67434 0.0
C634 C 0.41596 0.04861 0.57189 0.0
C635 C 0.42866 0.04562 0.63823 0.0
C636 C 0.42672 0.05992 0.49084 0.0
C637 C 0.45066 0.06883 0.47335 0.0
H638 H 0.39765 0.04244 0.58319 0.0
H639 H 0.41619 0.06173 0.44136 0.0
S640 S 0.49056 0.06292 0.6195 0.0
N641 N 0.46556 0.05039 0.67665 0.0
N642 N 0.48611 0.07242 0.52577 0.0
C643 C 0.46343 0.06563 0.53829 0.0
C644 C 0.45233 0.05377 0.62027 0.0
C645 C 0.99787 0.63151 0.55648 0.0
C646 C 0.0033 0.62035 0.61539 0.0
C647 C 0.98556 0.62215 0.47282 0.0
C648 C 0.97794 0.60113 0.44556 0.0
H649 H 0.00321 0.64765 0.57508 0.0
H650 H 0.98234 0.6316 0.42825 0.0
S651 S 0.98919 0.56579 0.57233 0.0
N652 N 0.00138 0.58775 0.63863 0.0
N653 N 0.97743 0.56977 0.48232 0.0
C654 C 0.98303 0.58967 0.50411 0.0
C655 C 0.99595 0.5994 0.58884 0.0
C656 C 0.43532 0.44147 0.54654 0.0
C657 C 0.42564 0.44128 0.46077 0.0
C658 C 0.42604 0.44267 0.62707 0.0
C659 C 0.406 0.44276 0.62552 0.0
H660 H 0.44982 0.44015 0.55194 0.0
H661 H 0.43436 0.44298 0.69124 0.0
S662 S 0.37894 0.44941 0.41945 0.0
N663 N 0.39877 0.4468 0.37936 0.0
N664 N 0.38029 0.44745 0.53146 0.0
C665 C 0.39775 0.44485 0.5406 0.0
C666 C 0.40765 0.44428 0.45812 0.0
C667 C 0.58368 0.00164 0.69762 0.0
C668 C 0.55916 0.98925 0.71739 0.0
C669 C 0.59258 0.01349 0.61616 0.0
C670 C 0.57735 0.01362 0.55168 0.0
H671 H 0.59616 0.00226 0.74583 0.0
H672 H 0.61152 0.02247 0.6033 0.0
S673 S 0.51231 0.98617 0.57623 0.0
N674 N 0.52007 0.97893 0.66865 0.0
N675 N 0.53698 0.00199 0.5172 0.0
C676 C 0.5529 0.00179 0.5717 0.0
C677 C 0.54374 0.98936 0.65403 0.0
C678 C 0.68612 0.80426 0.92887 0.0
C679 C 0.67811 0.78525 0.87879 0.0
C680 C 0.69666 0.80804 0.01686 0.0
C681 C 0.69985 0.79307 0.05723 0.0
H682 H 0.68346 0.81587 0.9011 0.0
H683 H 0.70149 0.82238 0.05467 0.0
S684 S 0.6849 0.74238 0.94683 0.0
N685 N 0.67604 0.75244 0.87094 0.0
N686 N 0.69628 0.75962 0.03472 0.0
C687 C 0.69328 0.77473 0.00463 0.0
C688 C 0.68224 0.77077 0.9159 0.0
C689 C 0.23681 0.95761 0.92046 0.0
C690 C 0.26127 0.96991 0.89958 0.0
C691 C 0.22974 0.96185 1.00025 0.0
C692 C 0.24694 0.97834 0.06244 0.0
H693 H 0.22304 0.94423 0.87603 0.0
H694 H 0.21079 0.95154 0.0152 0.0
S695 S 0.31308 0.01643 0.036 0.0
N696 N 0.30254 0.00032 0.94447 0.0
N697 N 0.28934 0.00778 0.0959 0.0
C698 C 0.27141 0.99101 0.04162 0.0
C699 C 0.27856 0.98688 0.95996 0.0
C700 C 0.0971 0.37066 0.89253 0.0
C701 C 0.09584 0.38779 0.86678 0.0
C702 C 0.08642 0.35837 0.97203 0.0
C703 C 0.07466 0.36319 0.02994 0.0
H704 H 0.10674 0.36688 0.85194 0.0
H705 H 0.08825 0.34566 0.99015 0.0
S706 S 0.06654 0.40648 0.99554 0.0
N707 N 0.08156 0.40869 0.90634 0.0
N708 N 0.06242 0.38623 0.05727 0.0
C709 C 0.07349 0.38039 0.00586 0.0
C710 C 0.08397 0.39262 0.92432 0.0
C711 C 0.70253 0.95797 0.9873 0.0
C712 C 0.69976 0.97058 0.04595 0.0
C713 C 0.68921 0.94958 0.90438 0.0
C714 C 0.67302 0.95388 0.87646 0.0
H715 H 0.71428 0.95377 0.00733 0.0
H716 H 0.69128 0.9393 0.86288 0.0
S717 S 0.66075 0.9875 0.00337 0.0
N718 N 0.68034 0.98762 0.06967 0.0
N719 N 0.65595 0.97255 0.91285 0.0
C720 C 0.67053 0.96687 0.93401 0.0
C721 C 0.68382 0.97514 0.01871 0.0
C722 C 0.08383 0.78268 0.9445 0.0
C723 C 0.06796 0.76769 0.87565 0.0
C724 C 0.07521 0.78338 0.02829 0.0
C725 C 0.05044 0.76885 0.04632 0.0
H726 H 0.10301 0.7938 0.93375 0.0
H727 H 0.08816 0.79473 0.08059 0.0
S728 S 0.00153 0.72737 0.88499 0.0
N729 N 0.02642 0.73883 0.82812 0.0
N730 N 0.01018 0.73974 0.98599 0.0
C731 C 0.0344 0.75416 0.97668 0.0
C732 C 0.04317 0.75367 0.89119 0.0
C733 C 0.26004 0.33894 0.9508 0.0
C734 C 0.24542 0.34359 0.90778 0.0
C735 C 0.25438 0.32856 0.03591 0.0
C736 C 0.23399 0.32264 0.08244 0.0
H737 H 0.27612 0.34347 0.91855 0.0
H738 H 0.26665 0.32588 0.06663 0.0
S739 S 0.18942 0.33069 0.99652 0.0
N740 N 0.20933 0.34099 0.91557 0.0
N741 N 0.19859 0.32157 0.0761 0.0
C742 C 0.2188 0.32666 0.03858 0.0
C743 C 0.22456 0.33713 0.95126 0.0
C744 C 0.38184 0.13413 0.37968 0.0
C745 C 0.38881 0.15468 0.41025 0.0
C746 C 0.36939 0.12505 0.2958 0.0
C747 C 0.36334 0.13613 0.2396 0.0
H748 H 0.38576 0.12485 0.42189 0.0
H749 H 0.36444 0.1092 0.27463 0.0
S750 S 0.37747 0.19048 0.28807 0.0
N751 N 0.38908 0.18607 0.37727 0.0
N752 N 0.36541 0.16887 0.21966 0.0
C753 C 0.37072 0.15697 0.26811 0.0
C754 C 0.38356 0.1663 0.35347 0.0
C755 C 0.889 0.30848 0.30001 0.0
C756 C 0.90585 0.32575 0.36042 0.0
C757 C 0.89637 0.30449 0.22022 0.0
C758 C 0.92079 0.3178 0.19756 0.0
H759 H 0.87014 0.29744 0.31628 0.0
H760 H 0.88289 0.29064 0.17687 0.0
S761 S 0.97151 0.36651 0.32865 0.0
N762 N 0.94773 0.357 0.38979 0.0
N763 N 0.9615 0.34986 0.23921 0.0
C764 C 0.93767 0.33547 0.25637 0.0
C765 C 0.9302 0.33939 0.33772 0.0
C766 C 0.78162 0.72631 0.176 0.0
C767 C 0.76937 0.72995 0.11011 0.0
C768 C 0.7705 0.71484 0.25659 0.0
C769 C 0.74688 0.70686 0.27457 0.0
H770 H 0.79956 0.73162 0.16372 0.0
H771 H 0.78031 0.71179 0.30413 0.0
S772 S 0.7081 0.71416 0.12783 0.0
N773 N 0.73291 0.72583 0.07025 0.0
N774 N 0.71223 0.70466 0.22239 0.0
C775 C 0.73468 0.71086 0.21012 0.0
C776 C 0.74591 0.72238 0.12791 0.0
C777 C 0.30152 0.27182 0.18415 0.0
C778 C 0.29341 0.25089 0.15343 0.0
C779 C 0.31381 0.28037 0.26858 0.0
C780 C 0.31882 0.26849 0.32461 0.0
H781 H 0.2988 0.28189 0.14154 0.0
H782 H 0.31964 0.29652 0.2899 0.0
S783 S 0.30175 0.21304 0.27508 0.0
N784 N 0.29093 0.21831 0.18597 0.0
N785 N 0.31472 0.2347 0.3439 0.0
C786 C 0.31039 0.24733 0.29575 0.0
C787 C 0.29751 0.23845 0.2102 0.0
C788 C 0.72138 0.0897 0.23684 0.0
C789 C 0.73544 0.11094 0.27598 0.0
C790 C 0.72704 0.08576 0.15271 0.0
C791 C 0.74686 0.10299 0.10366 0.0
H792 H 0.70567 0.07603 0.27108 0.0
H793 H 0.71516 0.06917 0.12453 0.0
S794 S 0.79004 0.16156 0.18041 0.0
N795 N 0.77055 0.14926 0.26282 0.0
N796 N 0.78129 0.14208 0.10414 0.0
C797 C 0.7616 0.12423 0.14417 0.0
C798 C 0.75584 0.12815 0.23039 0.0
C799 C 0.89783 0.65205 0.34967 0.0
C800 C 0.8741 0.64251 0.37314 0.0
C801 C 0.90731 0.66378 0.26826 0.0
C802 C 0.89337 0.66639 0.20701 0.0
H803 H 0.90922 0.65057 0.39541 0.0
H804 H 0.92567 0.67078 0.25295 0.0
S805 S 0.83048 0.64545 0.23822 0.0
N806 N 0.83694 0.63675 0.32936 0.0
N807 N 0.85483 0.65907 0.17663 0.0
C808 C 0.86952 0.6568 0.22918 0.0
C809 C 0.85982 0.64472 0.31205 0.0
C810 C 0.04508 0.57815 0.09421 0.0
C811 C 0.02164 0.57064 0.06975 0.0
C812 C 0.05044 0.56325 0.10291 0.0
C813 C 0.03246 0.54053 0.08738 0.0
H814 H 0.0591 0.5955 0.10925 0.0
H815 H 0.06847 0.56938 0.12446 0.0
S816 S 0.96896 0.51308 0.01444 0.0
N817 N 0.98083 0.53946 0.02507 0.0
N818 N 0.9909 0.51145 0.04062 0.0
C819 C 0.00926 0.53303 0.05947 0.0
C820 C 0.00382 0.54812 0.05099 0.0
C821 C 0.47429 0.52456 0.14557 0.0
C822 C 0.47085 0.51221 0.06807 0.0
C823 C 0.4927 0.5474 0.15007 0.0
C824 C 0.50816 0.55856 0.07714 0.0
H825 H 0.46269 0.51648 0.20307 0.0
H826 H 0.49499 0.55639 0.21117 0.0
S827 S 0.5075 0.53339 0.86175 0.0
N828 N 0.48477 0.51249 0.91852 0.0
N829 N 0.51959 0.55547 0.92717 0.0
C830 C 0.50496 0.54637 0.99948 0.0
C831 C 0.48621 0.52313 0.99491 0.0
C832 C 0.5103 0.02517 0.01591 0.0
C833 C 0.51238 0.01586 0.0954 0.0
C834 C 0.49578 0.03202 0.01306 0.0
C835 C 0.48308 0.02988 0.08979 0.0
H836 H 0.52059 0.02787 0.95677 0.0
H837 H 0.49494 0.03954 0.95131 0.0
S838 S 0.4806 0.00434 0.31052 0.0
N839 N 0.49929 0.00335 0.24988 0.0
N840 N 0.47185 0.01609 0.24438 0.0
C841 C 0.48433 0.01985 0.16836 0.0
C842 C 0.49906 0.01287 0.17119 0.0
C843 C 0.68007 0.86712 0.3502 0.0
C844 C 0.68794 0.86239 0.42963 0.0
C845 C 0.67842 0.88451 0.34889 0.0
C846 C 0.68458 0.89764 0.427 0.0
H847 H 0.67469 0.85705 0.28932 0.0
H848 H 0.67192 0.88748 0.28697 0.0
S849 S 0.70812 0.89316 0.64923 0.0
N850 N 0.70327 0.87297 0.58628 0.0
N851 N 0.70015 0.90564 0.58383 0.0
C852 C 0.69291 0.89335 0.50612 0.0
C853 C 0.6946 0.8757 0.50743 0.0
C854 C 0.14005 0.8703 0.44907 0.0
C855 C 0.14062 0.85257 0.43303 0.0
C856 C 0.16134 0.89208 0.45196 0.0
C857 C 0.18365 0.89658 0.43884 0.0
H858 H 0.1231 0.86726 0.46047 0.0
H859 H 0.16043 0.90544 0.46556 0.0
S860 S 0.19428 0.856 0.38722 0.0
N861 N 0.16489 0.84088 0.39902 0.0
N862 N 0.20499 0.88191 0.40393 0.0
C863 C 0.18433 0.87904 0.4205 0.0
C864 C 0.16273 0.85694 0.41777 0.0
C865 C 0.15088 0.33698 0.45056 0.0
C866 C 0.17565 0.35157 0.43528 0.0
C867 C 0.13669 0.34414 0.44195 0.0
C868 C 0.14692 0.36605 0.41778 0.0
H869 H 0.14255 0.32007 0.47049 0.0
H870 H 0.11766 0.33256 0.45515 0.0
S871 S 0.21053 0.41004 0.36389 0.0
N872 N 0.20959 0.38842 0.3901 0.0
N873 N 0.18284 0.40189 0.37423 0.0
C874 C 0.17153 0.38062 0.40047 0.0
C875 C 0.18594 0.37334 0.409 0.0
C876 C 0.3437 0.21399 0.85864 0.0
C877 C 0.33323 0.2156 0.77865 0.0
C878 C 0.35081 0.20038 0.8616 0.0
C879 C 0.34786 0.18816 0.78442 0.0
H880 H 0.34676 0.22357 0.91878 0.0
H881 H 0.35889 0.19957 0.92432 0.0
S882 S 0.31964 0.18539 0.56103 0.0
N883 N 0.31905 0.20299 0.62234 0.0
N884 N 0.3325 0.17746 0.62782 0.0
C885 C 0.33705 0.18935 0.70462 0.0
C886 C 0.32973 0.20311 0.70173 0.0
C887 C 0.84186 0.23159 0.65589 0.0
C888 C 0.84603 0.24381 0.73488 0.0
C889 C 0.82381 0.20864 0.65257 0.0
C890 C 0.80953 0.19731 0.72826 0.0
H891 H 0.85317 0.2397 0.59767 0.0
H892 H 0.82148 0.1996 0.59157 0.0
S893 S 0.81157 0.22228 0.94664 0.0
N894 N 0.83334 0.24335 0.88733 0.0
N895 N 0.7992 0.20022 0.88079 0.0
C896 C 0.81288 0.20951 0.80601 0.0
C897 C 0.83123 0.2328 0.80941 0.0
C898 C 0.82819 0.70468 0.712 0.0
C899 C 0.80362 0.6898 0.73025 0.0
C900 C 0.84283 0.69799 0.71799 0.0
C901 C 0.83331 0.6763 0.7432 0.0
H902 H 0.8361 0.72156 0.69314 0.0
H903 H 0.86176 0.70988 0.70378 0.0
S904 S 0.77019 0.6313 0.79917 0.0
N905 N 0.77038 0.6526 0.77499 0.0
N906 N 0.79803 0.64003 0.78644 0.0
C907 C 0.80877 0.66125 0.76091 0.0
C908 C 0.79386 0.66804 0.75465 0.0
C909 C 0.09861 0.44709 0.24169 0.0
C910 C 0.08693 0.43363 0.31807 0.0
C911 C 0.08941 0.45675 0.19355 0.0
C912 C 0.06783 0.45264 0.21878 0.0
H913 H 0.11444 0.44953 0.21725 0.0
H914 H 0.09885 0.46691 0.1349 0.0
S915 S 0.02895 0.41561 0.4072 0.0
N916 N 0.05232 0.41548 0.41312 0.0
N917 N 0.03429 0.43244 0.32281 0.0
C918 C 0.05597 0.43884 0.29506 0.0
C919 C 0.06569 0.42962 0.34452 0.0
C920 C 0.61729 0.71598 0.34159 0.0
C921 C 0.63015 0.73649 0.29771 0.0
C922 C 0.60463 0.69625 0.29092 0.0
C923 C 0.60405 0.69624 0.19448 0.0
H924 H 0.61852 0.71516 0.41524 0.0
H925 H 0.59638 0.68094 0.32783 0.0
S926 S 0.63067 0.74542 0.04756 0.0
N927 N 0.63862 0.75556 0.15262 0.0
N928 N 0.61456 0.71833 0.05769 0.0
C929 C 0.61478 0.71648 0.14999 0.0
C930 C 0.62794 0.73665 0.20158 0.0
C931 C 0.36571 0.01151 0.3126 0.0
C932 C 0.36293 0.00738 0.21729 0.0
C933 C 0.34588 0.001 0.36901 0.0
C934 C 0.32247 0.986 0.33235 0.0
H935 H 0.38333 0.02375 0.34389 0.0
H936 H 0.34882 0.00593 0.44019 0.0
S937 S 0.30532 0.96557 0.09277 0.0
N938 N 0.3349 0.98438 0.09257 0.0
N939 N 0.29754 0.96486 0.19856 0.0
C940 C 0.31946 0.98019 0.23922 0.0
C941 C 0.3397 0.99078 0.1817 0.0
C942 C 0.42938 0.10424 0.89579 0.0
C943 C 0.42929 0.10281 0.99198 0.0
C944 C 0.42259 0.11599 0.84951 0.0
C945 C 0.4151 0.12639 0.89789 0.0
H946 H 0.4332 0.09499 0.85564 0.0
H947 H 0.42097 0.11506 0.77564 0.0
S948 S 0.41509 0.13043 0.15003 0.0
N949 N 0.42407 0.1152 0.13379 0.0
N950 N 0.41095 0.13694 0.04715 0.0
C951 C 0.41712 0.12682 0.99406 0.0
C952 C 0.42433 0.11511 0.04113 0.0
C953 C 0.97517 0.42097 0.8726 0.0
C954 C 0.9731 0.42005 0.96853 0.0
C955 C 0.96073 0.40187 0.81762 0.0
C956 C 0.94385 0.38115 0.85677 0.0
H957 H 0.98906 0.43636 0.84015 0.0
H958 H 0.9643 0.40307 0.74558 0.0
S959 S 0.92871 0.37016 0.10149 0.0
N960 N 0.95067 0.39701 0.09793 0.0
N961 N 0.92372 0.36124 0.99498 0.0
C962 C 0.94012 0.38036 0.95108 0.0
C963 C 0.95466 0.39977 0.00693 0.0
C964 C 0.68513 0.67016 0.94721 0.0
C965 C 0.68236 0.66743 0.85117 0.0
C966 C 0.66527 0.66087 0.00266 0.0
C967 C 0.64191 0.64863 0.96409 0.0
H968 H 0.7029 0.68042 0.97984 0.0
H969 H 0.66837 0.66458 0.07514 0.0
S970 S 0.6243 0.63198 0.72054 0.0
N971 N 0.65402 0.64824 0.72269 0.0
N972 N 0.61662 0.63087 0.82686 0.0
C973 C 0.63867 0.64391 0.86965 0.0
C974 C 0.65891 0.65325 0.81317 0.0
C975 C 0.93871 0.61482 0.86104 0.0
C976 C 0.94 0.6149 0.95747 0.0
C977 C 0.92387 0.61861 0.81312 0.0
C978 C 0.91005 0.62289 0.86012 0.0
H979 H 0.95043 0.61325 0.82223 0.0
H980 H 0.92507 0.62035 0.73961 0.0
S981 S 0.90412 0.62163 0.11124 0.0
N982 N 0.92375 0.61678 0.09726 0.0
N983 N 0.89617 0.62419 0.00745 0.0
C984 C 0.90944 0.62091 0.95593 0.0
C985 C 0.92433 0.61682 0.00466 0.0
C986 C 0.39915 0.37396 0.9037 0.0
C987 C 0.39433 0.37488 0.99518 0.0
C988 C 0.38659 0.35377 0.85578 0.0
C989 C 0.36899 0.33372 0.89843 0.0
H990 H 0.41193 0.38901 0.86752 0.0
H991 H 0.38977 0.35407 0.78382 0.0
S992 S 0.35479 0.32708 0.14462 0.0
N993 N 0.37423 0.35405 0.131 0.0
N994 N 0.35126 0.31594 0.04379 0.0
C995 C 0.36636 0.33433 0.99341 0.0
C996 C 0.37898 0.35494 0.0413 0.0
C997 C 0.6584 0.07077 0.81935 0.0
C998 C 0.68103 0.08834 0.85537 0.0
C999 C 0.63892 0.0575 0.87654 0.0
C1000 C 0.64125 0.06133 0.97197 0.0
H1001 H 0.65613 0.06626 0.74786 0.0
H1002 H 0.62212 0.04351 0.8457 0.0
S1003 S 0.69574 0.10834 0.09575 0.0
N1004 N 0.70402 0.11104 0.98922 0.0
N1005 N 0.66728 0.08616 0.09667 0.0
C1006 C 0.66327 0.08012 0.0072 0.0
C1007 C 0.68318 0.09357 0.94891 0.0
C1008 C 0.61987 0.95723 0.21033 0.0
C1009 C 0.62023 0.9567 0.30679 0.0
C1010 C 0.60706 0.96312 0.16087 0.0
C1011 C 0.59444 0.96897 0.20632 0.0
H1012 H 0.63073 0.95431 0.1729 0.0
H1013 H 0.60875 0.96491 0.08751 0.0
S1014 S 0.58657 0.96702 0.45644 0.0
N1015 N 0.60427 0.95986 0.44453 0.0
N1016 N 0.58051 0.97115 0.35201 0.0
C1017 C 0.59291 0.96659 0.30194 0.0
C1018 C 0.60569 0.96036 0.35215 0.0
C1019 C 0.05192 0.70468 0.14576 0.0
C1020 C 0.0444 0.68475 0.18644 0.0
C1021 C 0.06027 0.72327 0.19961 0.0
C1022 C 0.0616 0.72268 0.29604 0.0
H1023 H 0.0497 0.70548 0.07264 0.0
H1024 H 0.06446 0.73786 0.16538 0.0
S1025 S 0.04841 0.67559 0.43389 0.0
N1026 N 0.04204 0.66635 0.32751 0.0
N1027 N 0.05782 0.70134 0.42835 0.0
C1028 C 0.05635 0.7035 0.33669 0.0
C1029 C 0.04767 0.68451 0.28194 0.0
C1030 C 0.34077 0.40067 0.30052 0.0
C1031 C 0.33866 0.40402 0.2065 0.0
C1032 C 0.32118 0.39042 0.3578 0.0
C1033 C 0.29835 0.38236 0.32308 0.0
H1034 H 0.3576 0.40533 0.33045 0.0
H1035 H 0.32364 0.38753 0.42835 0.0
S1036 S 0.28273 0.38769 0.08464 0.0
N1037 N 0.31178 0.39948 0.08343 0.0
N1038 N 0.27455 0.37925 0.19042 0.0
C1039 C 0.29588 0.38605 0.23018 0.0
C1040 C 0.31607 0.39704 0.17205 0.0
C1041 C 0.73928 0.77268 0.48323 0.0
C1042 C 0.73251 0.78358 0.53248 0.0
C1043 C 0.74685 0.76151 0.52881 0.0
C1044 C 0.74828 0.76113 0.62511 0.0
H1045 H 0.73674 0.77114 0.40962 0.0
H1046 H 0.75016 0.75193 0.48834 0.0
S1047 S 0.73671 0.79056 0.78439 0.0
N1048 N 0.73083 0.79584 0.68195 0.0
N1049 N 0.7453 0.77506 0.76727 0.0
C1050 C 0.74395 0.77385 0.67457 0.0
C1051 C 0.73595 0.78499 0.62825 0.0
C1052 C 0.27931 0.03416 0.638 0.0
C1053 C 0.28591 0.03327 0.54963 0.0
C1054 C 0.29345 0.05363 0.6911 0.0
C1055 C 0.31505 0.07272 0.65848 0.0
H1056 H 0.26364 0.01941 0.66765 0.0
H1057 H 0.28789 0.05342 0.75933 0.0
S1058 S 0.34049 0.07783 0.43198 0.0
N1059 N 0.31509 0.05249 0.43212 0.0
N1060 N 0.34217 0.08896 0.53038 0.0
C1061 C 0.32145 0.07194 0.56878 0.0
C1062 C 0.30676 0.05225 0.51479 0.0
C1063 C 0.00284 0.3457 0.48157 0.0
C1064 C 0.02068 0.3445 0.51846 0.0
C1065 C 0.98367 0.34029 0.53423 0.0
C1066 C 0.98156 0.33351 0.62614 0.0
H1067 H 0.00451 0.35221 0.41362 0.0
H1068 H 0.97086 0.34223 0.50309 0.0
S1069 S 0.02192 0.32446 0.74902 0.0
N1070 N 0.03374 0.33362 0.64773 0.0
N1071 N 0.99784 0.3236 0.74746 0.0
C1072 C 0.99852 0.33088 0.6616 0.0
C1073 C 0.01804 0.33638 0.60762 0.0
C1074 C 0.26477 0.27502 0.56465 0.0
C1075 C 0.26485 0.27428 0.66113 0.0
C1076 C 0.25337 0.28233 0.51501 0.0
C1077 C 0.24188 0.28941 0.5602 0.0
H1078 H 0.27495 0.27129 0.52737 0.0
H1079 H 0.2555 0.28435 0.44185 0.0
S1080 S 0.23345 0.28729 0.80995 0.0
N1081 N 0.24963 0.27848 0.79839 0.0
N1082 N 0.22837 0.29232 0.70552 0.0
C1083 C 0.23985 0.28672 0.65568 0.0
C1084 C 0.25126 0.27909 0.70612 0.0
C1085 C 0.74124 0.0611 0.53808 0.0
C1086 C 0.74039 0.06182 0.63393 0.0
C1087 C 0.73249 0.0414 0.49193 0.0
C1088 C 0.72208 0.02159 0.53991 0.0
H1089 H 0.7475 0.07561 0.49789 0.0
H1090 H 0.73223 0.04139 0.41798 0.0
S1091 S 0.71813 0.01523 0.79222 0.0
N1092 N 0.73071 0.0416 0.77565 0.0
N1093 N 0.71376 0.00451 0.68962 0.0
C1094 C 0.72276 0.02251 0.63629 0.0
C1095 C 0.73207 0.04265 0.68319 0.0
C1096 C 0.97594 0.73558 0.65243 0.0
C1097 C 0.95925 0.71295 0.63025 0.0
C1098 C 0.99545 0.75013 0.5962 0.0
C1099 C 0.99866 0.7426 0.51547 0.0
H1100 H 0.97421 0.74201 0.71426 0.0
H1101 H 0.00861 0.76719 0.61772 0.0
S1102 S 0.96145 0.68513 0.42881 0.0
N1103 N 0.94819 0.68382 0.52217 0.0
N1104 N 0.98447 0.71142 0.41756 0.0
C1105 C 0.98199 0.72031 0.49154 0.0
C1106 C 0.96241 0.70542 0.5487 0.0
loop_
_geom_bond_atom_site_label_1
_geom_bond_atom_site_label_2
_geom_bond_distance
_geom_bond_site_symmetry_2
_ccdc_geom_bond_type
Co0 O3 1.970 1_556 S
Co0 N17 1.989 1_556 S
Co0 O25 1.967 . S
Co0 O32 1.920 . S
Co1 O4 1.966 . S
Co1 N10 2.022 . S
Co1 N18 1.993 . S
Co1 O26 1.941 . S
C2 O3 1.258 . S
C2 O4 1.263 . S
O3 Co0 1.970 1_554 S
O3 C2 1.258 . S
O4 Co1 1.966 . S
O4 C2 1.263 . S
C5 O6 1.235 . S
C5 O32 1.289 . S
O6 C5 1.235 . S
C7 C9 1.400 . S
C7 N10 1.351 . S
C7 C12 1.501 . S
C8 C9 1.387 . S
C8 N11 1.341 . S
C9 C7 1.400 . S
C9 C8 1.387 . S
N10 Co1 2.022 . S
N10 C7 1.351 . S
N10 N11 1.365 . S
N11 C8 1.341 . S
N11 N10 1.365 . S
N11 H31 0.893 . S
C12 C7 1.501 . S
C12 H13 0.961 . S
C12 H14 0.961 . S
C12 H15 0.960 . S
H13 C12 0.961 . S
H14 C12 0.961 . S
H15 C12 0.960 . S
C16 N17 1.342 1_556 S
C16 C20 1.401 1_556 S
C16 C21 1.499 . S
N17 Co0 1.989 1_554 S
N17 C16 1.342 1_554 S
N17 N18 1.388 . S
N18 Co1 1.993 . S
N18 N17 1.388 . S
N18 C19 1.346 . S
C19 N18 1.346 . S
C19 C20 1.396 . S
C19 C29 1.510 . S
C20 C16 1.401 1_554 S
C20 C19 1.396 . S
C21 C16 1.499 . S
C21 H22 0.959 . S
C21 H23 0.960 . S
C21 H24 0.961 . S
H22 C21 0.959 . S
H23 C21 0.960 . S
H24 C21 0.961 . S
O25 Co0 1.967 . S
O25 C33 1.258 1_556 S
O26 Co1 1.941 . S
O26 C33 1.266 . S
H27 C29 0.959 . S
H28 C29 0.961 . S
C29 C19 1.510 . S
C29 H27 0.959 . S
C29 H28 0.961 . S
C29 H30 0.960 . S
H30 C29 0.960 . S
H31 N11 0.893 . S
O32 Co0 1.920 . S
O32 C5 1.289 . S
C33 O25 1.258 1_554 S
C33 O26 1.266 . S
Co34 O37 1.970 1_556 S
Co34 N51 1.989 1_556 S
Co34 O59 1.967 . S
Co34 O66 1.920 . S
Co35 O38 1.966 . S
Co35 N44 2.022 . S
Co35 N52 1.993 . S
Co35 O60 1.941 . S
C36 O37 1.258 . S
C36 O38 1.263 . S
O37 Co34 1.970 1_554 S
O37 C36 1.258 . S
O38 Co35 1.966 . S
O38 C36 1.263 . S
C39 O40 1.235 . S
C39 O66 1.289 . S
O40 C39 1.235 . S
C41 C43 1.400 . S
C41 N44 1.351 . S
C41 C46 1.501 . S
C42 C43 1.387 . S
C42 N45 1.341 . S
C43 C41 1.400 . S
C43 C42 1.387 . S
N44 Co35 2.022 . S
N44 C41 1.351 . S
N44 N45 1.365 . S
N45 C42 1.341 . S
N45 N44 1.365 . S
N45 H65 0.862 . S
C46 C41 1.501 . S
C46 H47 0.961 . S
C46 H48 0.961 . S
C46 H49 0.960 . S
H47 C46 0.961 . S
H48 C46 0.961 . S
H49 C46 0.960 . S
C50 N51 1.342 . S
C50 C54 1.401 . S
C50 C55 1.499 1_554 S
N51 Co34 1.989 1_554 S
N51 C50 1.342 . S
N51 N52 1.388 . S
N52 Co35 1.993 . S
N52 N51 1.388 . S
N52 C53 1.346 . S
C53 N52 1.346 . S
C53 C54 1.396 . S
C53 C63 1.510 . S
C54 C50 1.401 . S
C54 C53 1.396 . S
C55 C50 1.499 1_556 S
C55 H56 0.959 . S
C55 H57 0.960 . S
C55 H58 0.961 . S
H56 C55 0.959 . S
H57 C55 0.960 . S
H58 C55 0.961 . S
O59 Co34 1.967 . S
O59 C67 1.258 1_556 S
O60 Co35 1.941 . S
O60 C67 1.266 . S
H61 C63 0.959 . S
H62 C63 0.961 . S
C63 C53 1.510 . S
C63 H61 0.959 . S
C63 H62 0.961 . S
C63 H64 0.960 . S
H64 C63 0.960 . S
H65 N45 0.862 . S
O66 Co34 1.920 . S
O66 C39 1.289 . S
C67 O59 1.258 1_554 S
C67 O60 1.266 . S
Co68 O71 1.970 . S
Co68 N85 1.989 . S
Co68 O93 1.967 . S
Co68 O100 1.920 . S
Co69 O72 1.966 . S
Co69 N78 2.022 . S
Co69 N86 1.993 1_556 S
Co69 O94 1.941 1_556 S
C70 O71 1.258 . S
C70 O72 1.263 1_554 S
O71 Co68 1.970 . S
O71 C70 1.258 . S
O72 Co69 1.966 . S
O72 C70 1.263 1_556 S
C73 O74 1.235 . S
C73 O100 1.289 . S
O74 C73 1.235 . S
C75 C77 1.400 . S
C75 N78 1.351 . S
C75 C80 1.501 . S
C76 C77 1.387 . S
C76 N79 1.341 . S
C77 C75 1.400 . S
C77 C76 1.387 . S
N78 Co69 2.022 . S
N78 C75 1.351 . S
N78 N79 1.365 . S
N79 C76 1.341 . S
N79 N78 1.365 . S
N79 H99 0.883 . S
C80 C75 1.501 . S
C80 H81 0.961 . S
C80 H82 0.961 . S
C80 H83 0.960 . S
H81 C80 0.961 . S
H82 C80 0.961 . S
H83 C80 0.960 . S
C84 N85 1.342 . S
C84 C88 1.401 . S
C84 C89 1.499 . S
N85 Co68 1.989 . S
N85 C84 1.342 . S
N85 N86 1.388 . S
N86 Co69 1.993 1_554 S
N86 N85 1.388 . S
N86 C87 1.346 . S
C87 N86 1.346 . S
C87 C88 1.396 . S
C87 C97 1.510 1_554 S
C88 C84 1.401 . S
C88 C87 1.396 . S
C89 C84 1.499 . S
C89 H90 0.959 . S
C89 H91 0.960 . S
C89 H92 0.961 . S
H90 C89 0.959 . S
H91 C89 0.960 . S
H92 C89 0.961 . S
O93 Co68 1.967 . S
O93 C101 1.258 . S
O94 Co69 1.941 1_554 S
O94 C101 1.266 . S
H95 C97 0.959 . S
H96 C97 0.961 . S
C97 C87 1.510 1_556 S
C97 H95 0.959 . S
C97 H96 0.961 . S
C97 H98 0.960 . S
H98 C97 0.960 . S
H99 N79 0.883 . S
O100 Co68 1.920 . S
O100 C73 1.289 . S
C101 O93 1.258 . S
C101 O94 1.266 . S
Co102 O105 1.970 . S
Co102 N119 1.989 1_655 S
Co102 O127 1.967 1_655 S
Co102 O134 1.920 . S
Co103 O106 1.966 1_455 S
Co103 N112 2.022 . S
Co103 N120 1.993 1_556 S
Co103 O128 1.941 1_556 S
C104 O105 1.258 . S
C104 O106 1.263 1_554 S
O105 Co102 1.970 . S
O105 C104 1.258 . S
O106 Co103 1.966 1_655 S
O106 C104 1.263 1_556 S
C107 O108 1.235 . S
C107 O134 1.289 . S
O108 C107 1.235 . S
C109 C111 1.400 . S
C109 N112 1.351 . S
C109 C114 1.501 1_455 S
C110 C111 1.387 . S
C110 N113 1.341 . S
C111 C109 1.400 . S
C111 C110 1.387 . S
N112 Co103 2.022 . S
N112 C109 1.351 . S
N112 N113 1.365 . S
N113 C110 1.341 . S
N113 N112 1.365 . S
N113 H133 0.862 . S
C114 C109 1.501 1_655 S
C114 H115 0.961 . S
C114 H116 0.961 . S
C114 H117 0.960 . S
H115 C114 0.961 . S
H116 C114 0.961 . S
H117 C114 0.960 . S
C118 N119 1.342 . S
C118 C122 1.401 . S
C118 C123 1.499 . S
N119 Co102 1.989 1_455 S
N119 C118 1.342 . S
N119 N120 1.388 . S
N120 Co103 1.993 1_554 S
N120 N119 1.388 . S
N120 C121 1.346 1_554 S
C121 N120 1.346 1_556 S
C121 C122 1.396 1_556 S
C121 C131 1.510 . S
C122 C118 1.401 . S
C122 C121 1.396 1_554 S
C123 C118 1.499 . S
C123 H124 0.959 . S
C123 H125 0.959 1_455 S
C123 H126 0.961 . S
H124 C123 0.959 . S
H125 C123 0.959 1_655 S
H126 C123 0.961 . S
O127 Co102 1.967 1_455 S
O127 C135 1.258 . S
O128 Co103 1.941 1_554 S
O128 C135 1.266 . S
H129 C131 0.959 . S
H130 C131 0.961 . S
C131 C121 1.510 . S
C131 H129 0.959 . S
C131 H130 0.961 . S
C131 H132 0.960 . S
H132 C131 0.960 . S
H133 N113 0.862 . S
O134 Co102 1.920 . S
O134 C107 1.289 . S
C135 O127 1.258 . S
C135 O128 1.266 . S
Co136 O139 1.970 . S
Co136 N153 1.989 . S
Co136 O161 1.967 . S
Co136 O168 1.920 . S
Co137 O140 1.967 . S
Co137 N146 2.011 1_554 S
Co137 N154 1.998 . S
Co137 O162 1.947 . S
C138 O139 1.258 . S
C138 O140 1.263 . S
O139 Co136 1.970 . S
O139 C138 1.258 . S
O140 Co137 1.967 . S
O140 C138 1.263 . S
C141 O142 1.235 . S
C141 O168 1.289 . S
O142 C141 1.235 . S
C143 C145 1.400 . S
C143 N146 1.351 . S
C143 C148 1.501 . S
C144 C145 1.387 . S
C144 N147 1.341 . S
C145 C143 1.400 . S
C145 C144 1.387 . S
N146 Co137 2.011 1_556 S
N146 C143 1.351 . S
N146 N147 1.365 . S
N147 C144 1.341 . S
N147 N146 1.365 . S
N147 H167 0.862 . S
C148 C143 1.501 . S
C148 H149 0.961 . S
C148 H150 0.961 . S
C148 H151 0.960 . S
H149 C148 0.961 . S
H150 C148 0.961 . S
H151 C148 0.960 . S
C152 N153 1.342 . S
C152 C156 1.401 . S
C152 C157 1.499 . S
N153 Co136 1.989 . S
N153 C152 1.342 . S
N153 N154 1.388 . S
N154 Co137 1.998 . S
N154 N153 1.388 . S
N154 C155 1.346 . S
C155 N154 1.346 . S
C155 C156 1.396 . S
C155 C165 1.510 1_554 S
C156 C152 1.401 . S
C156 C155 1.396 . S
C157 C152 1.499 . S
C157 H158 0.959 . S
C157 H159 0.960 . S
C157 H160 0.961 . S
H158 C157 0.959 . S
H159 C157 0.960 . S
H160 C157 0.961 . S
O161 Co136 1.967 . S
O161 C169 1.258 . S
O162 Co137 1.947 . S
O162 C169 1.266 . S
H163 C165 0.959 . S
H164 C165 0.961 . S
C165 C155 1.510 1_556 S
C165 H163 0.959 . S
C165 H164 0.961 . S
C165 H166 0.960 . S
H166 C165 0.960 . S
H167 N147 0.862 . S
O168 Co136 1.920 . S
O168 C141 1.289 . S
C169 O161 1.258 . S
C169 O162 1.266 . S
Co170 O173 1.970 1_556 S
Co170 N187 1.992 1_556 S
Co170 O195 1.967 1_565 S
Co170 O202 1.920 . S
Co171 O174 1.966 1_545 S
Co171 N180 2.022 . S
Co171 N188 1.993 . S
Co171 O196 1.941 . S
C172 O173 1.258 . S
C172 O174 1.263 . S
O173 Co170 1.970 1_554 S
O173 C172 1.258 . S
O174 Co171 1.966 1_565 S
O174 C172 1.263 . S
C175 O176 1.235 . S
C175 O202 1.289 . S
O176 C175 1.235 . S
C177 C179 1.400 . S
C177 N180 1.351 . S
C177 C182 1.501 1_545 S
C178 C179 1.387 . S
C178 N181 1.341 . S
C179 C177 1.400 . S
C179 C178 1.387 . S
N180 Co171 2.022 . S
N180 C177 1.351 . S
N180 N181 1.365 . S
N181 C178 1.341 . S
N181 N180 1.365 . S
N181 H201 0.862 . S
C182 C177 1.501 1_565 S
C182 H183 0.961 . S
C182 H184 0.961 . S
C182 H185 0.960 . S
H183 C182 0.961 . S
H184 C182 0.961 . S
H185 C182 0.960 . S
C186 N187 1.344 1_556 S
C186 C190 1.396 1_566 S
C186 C191 1.499 . S
N187 Co170 1.992 1_554 S
N187 C186 1.344 1_554 S
N187 N188 1.387 1_565 S
N188 Co171 1.993 . S
N188 N187 1.387 1_545 S
N188 C189 1.346 . S
C189 N188 1.346 . S
C189 C190 1.396 . S
C189 C199 1.510 . S
C190 C186 1.396 1_544 S
C190 C189 1.396 . S
C191 C186 1.499 . S
C191 H192 0.959 . S
C191 H193 0.960 . S
C191 H194 0.961 1_565 S
H192 C191 0.959 . S
H193 C191 0.960 . S
H194 C191 0.961 1_545 S
O195 Co170 1.967 1_545 S
O195 C203 1.258 1_556 S
O196 Co171 1.941 . S
O196 C203 1.266 . S
H197 C199 0.959 . S
H198 C199 0.961 . S
C199 C189 1.510 . S
C199 H197 0.959 . S
C199 H198 0.961 . S
C199 H200 0.960 . S
H200 C199 0.960 . S
H201 N181 0.862 . S
O202 Co170 1.920 . S
O202 C175 1.289 . S
C203 O195 1.258 1_554 S
C203 O196 1.266 . S
Co204 O207 1.970 . S
Co204 N221 1.989 . S
Co204 O229 1.967 . S
Co204 O236 1.920 . S
Co205 O208 1.966 . S
Co205 N214 2.022 . S
Co205 N222 1.993 . S
Co205 O230 1.941 . S
C206 O207 1.258 . S
C206 O208 1.263 . S
O207 Co204 1.970 . S
O207 C206 1.258 . S
O208 Co205 1.966 . S
O208 C206 1.263 . S
C209 O210 1.235 . S
C209 O236 1.289 . S
O210 C209 1.235 . S
C211 C213 1.400 . S
C211 N214 1.351 . S
C211 C216 1.501 . S
C212 C213 1.387 . S
C212 N215 1.341 . S
C213 C211 1.400 . S
C213 C212 1.387 . S
N214 Co205 2.022 . S
N214 C211 1.351 . S
N214 N215 1.365 . S
N215 C212 1.341 . S
N215 N214 1.365 . S
N215 H235 0.862 . S
C216 C211 1.501 . S
C216 H217 0.961 . S
C216 H218 0.961 . S
C216 H219 0.960 . S
H217 C216 0.961 . S
H218 C216 0.961 . S
H219 C216 0.960 . S
C220 N221 1.342 . S
C220 C224 1.401 . S
C220 C225 1.499 . S
N221 Co204 1.989 . S
N221 C220 1.342 . S
N221 N222 1.388 . S
N222 Co205 1.993 . S
N222 N221 1.388 . S
N222 C223 1.346 . S
C223 N222 1.346 . S
C223 C224 1.396 . S
C223 C233 1.510 . S
C224 C220 1.401 . S
C224 C223 1.396 . S
C225 C220 1.499 . S
C225 H226 0.959 . S
C225 H227 0.960 . S
C225 H228 0.961 . S
H226 C225 0.959 . S
H227 C225 0.960 . S
H228 C225 0.961 . S
O229 Co204 1.967 . S
O229 C237 1.258 . S
O230 Co205 1.941 . S
O230 C237 1.266 . S
H231 C233 0.959 . S
H232 C233 0.961 . S
C233 C223 1.510 . S
C233 H231 0.959 . S
C233 H232 0.961 . S
C233 H234 0.960 . S
H234 C233 0.960 . S
H235 N215 0.862 . S
O236 Co204 1.920 . S
O236 C209 1.289 . S
C237 O229 1.258 . S
C237 O230 1.266 . S
Co238 O241 1.970 1_565 S
Co238 N255 1.989 . S
Co238 O263 1.967 . S
Co238 O270 1.920 . S
Co239 O242 1.966 1_565 S
Co239 N248 2.022 . S
Co239 N256 1.993 . S
Co239 O264 1.941 . S
C240 O241 1.258 . S
C240 O242 1.263 . S
O241 Co238 1.970 1_545 S
O241 C240 1.258 . S
O242 Co239 1.966 1_545 S
O242 C240 1.263 . S
C243 O244 1.235 . S
C243 O270 1.289 . S
O244 C243 1.235 . S
C245 C247 1.400 . S
C245 N248 1.351 . S
C245 C250 1.501 . S
C246 C247 1.387 . S
C246 N249 1.341 . S
C247 C245 1.400 . S
C247 C246 1.387 . S
N248 Co239 2.022 . S
N248 C245 1.351 . S
N248 N249 1.365 . S
N249 C246 1.341 . S
N249 N248 1.365 . S
N249 H269 0.862 . S
C250 C245 1.501 . S
C250 H251 0.945 1_565 S
C250 H252 0.961 . S
C250 H253 0.960 1_565 S
H251 C250 0.945 1_545 S
H252 C250 0.961 . S
H253 C250 0.960 1_545 S
C254 N255 1.342 . S
C254 C258 1.401 . S
C254 C259 1.499 . S
N255 Co238 1.989 . S
N255 C254 1.342 . S
N255 N256 1.388 . S
N256 Co239 1.993 . S
N256 N255 1.388 . S
N256 C257 1.346 . S
C257 N256 1.346 . S
C257 C258 1.396 . S
C257 C267 1.510 . S
C258 C254 1.401 . S
C258 C257 1.396 . S
C259 C254 1.499 . S
C259 H260 0.959 . S
C259 H261 0.960 . S
C259 H262 0.961 . S
H260 C259 0.959 . S
H261 C259 0.960 . S
H262 C259 0.961 . S
O263 Co238 1.967 . S
O263 C271 1.258 . S
O264 Co239 1.941 . S
O264 C271 1.266 . S
H265 C267 0.959 . S
H266 C267 0.961 . S
C267 C257 1.510 . S
C267 H265 0.959 . S
C267 H266 0.961 . S
C267 H268 0.960 . S
H268 C267 0.960 . S
H269 N249 0.862 . S
O270 Co238 1.920 . S
O270 C243 1.289 . S
C271 O263 1.258 . S
C271 O264 1.266 . S
Co272 O275 1.970 . S
Co272 N289 1.989 . S
Co272 O297 1.967 . S
Co272 O304 1.920 . S
Co273 O276 1.966 . S
Co273 N282 2.022 . S
Co273 N290 1.993 . S
Co273 O298 1.941 . S
C274 O275 1.258 . S
C274 O276 1.263 . S
O275 Co272 1.970 . S
O275 C274 1.258 . S
O276 Co273 1.966 . S
O276 C274 1.263 . S
C277 O278 1.235 . S
C277 O304 1.289 . S
O278 C277 1.235 . S
C279 C281 1.400 . S
C279 N282 1.351 . S
C279 C284 1.501 . S
C280 C281 1.387 . S
C280 N283 1.341 . S
C281 C279 1.400 . S
C281 C280 1.387 . S
N282 Co273 2.022 . S
N282 C279 1.351 . S
N282 N283 1.365 . S
N283 C280 1.341 . S
N283 N282 1.365 . S
N283 H303 0.862 . S
C284 C279 1.501 . S
C284 H285 0.961 . S
C284 H286 0.961 . S
C284 H287 0.960 . S
H285 C284 0.961 . S
H286 C284 0.961 . S
H287 C284 0.960 . S
C288 N289 1.342 . S
C288 C292 1.401 . S
C288 C293 1.499 . S
N289 Co272 1.989 . S
N289 C288 1.342 . S
N289 N290 1.388 . S
N290 Co273 1.993 . S
N290 N289 1.388 . S
N290 C291 1.346 . S
C291 N290 1.346 . S
C291 C292 1.396 . S
C291 C301 1.510 . S
C292 C288 1.401 . S
C292 C291 1.396 . S
C293 C288 1.499 . S
C293 H294 0.959 . S
C293 H295 0.960 . S
C293 H296 0.961 . S
H294 C293 0.959 . S
H295 C293 0.960 . S
H296 C293 0.961 . S
O297 Co272 1.967 . S
O297 C305 1.258 . S
O298 Co273 1.941 . S
O298 C305 1.266 . S
H299 C301 0.959 . S
H300 C301 0.961 . S
C301 C291 1.510 . S
C301 H299 0.959 . S
C301 H300 0.961 . S
C301 H302 0.960 . S
H302 C301 0.960 . S
H303 N283 0.862 . S
O304 Co272 1.920 . S
O304 C277 1.289 . S
C305 O297 1.258 . S
C305 O298 1.266 . S
Co306 O309 1.970 . S
Co306 N323 1.989 . S
Co306 O331 1.967 . S
Co306 O338 1.920 . S
Co307 O310 1.966 . S
Co307 N316 2.022 . S
Co307 N324 1.993 . S
Co307 O332 1.941 . S
C308 O309 1.258 1_545 S
C308 O310 1.263 1_545 S
O309 Co306 1.970 . S
O309 C308 1.258 1_565 S
O310 Co307 1.966 . S
O310 C308 1.263 1_565 S
C311 O312 1.235 . S
C311 O338 1.289 . S
O312 C311 1.235 . S
C313 C315 1.400 . S
C313 N316 1.351 . S
C313 C318 1.501 . S
C314 C315 1.387 . S
C314 N317 1.341 . S
C315 C313 1.400 . S
C315 C314 1.387 . S
N316 Co307 2.022 . S
N316 C313 1.351 . S
N316 N317 1.365 . S
N317 C314 1.341 . S
N317 N316 1.365 . S
N317 H337 0.862 . S
C318 C313 1.501 . S
C318 H319 0.961 . S
C318 H320 0.961 . S
C318 H321 0.960 . S
H319 C318 0.961 . S
H320 C318 0.961 . S
H321 C318 0.960 . S
C322 N323 1.342 . S
C322 C326 1.401 . S
C322 C327 1.499 . S
N323 Co306 1.989 . S
N323 C322 1.342 . S
N323 N324 1.388 . S
N324 Co307 1.993 . S
N324 N323 1.388 . S
N324 C325 1.346 . S
C325 N324 1.346 . S
C325 C326 1.396 . S
C325 C335 1.510 . S
C326 C322 1.401 . S
C326 C325 1.396 . S
C327 C322 1.499 . S
C327 H328 0.959 . S
C327 H329 0.960 . S
C327 H330 0.961 . S
H328 C327 0.959 . S
H329 C327 0.960 . S
H330 C327 0.961 . S
O331 Co306 1.967 . S
O331 C339 1.258 . S
O332 Co307 1.941 . S
O332 C339 1.266 . S
H333 C335 0.959 . S
H334 C335 0.961 . S
C335 C325 1.510 . S
C335 H333 0.959 . S
C335 H334 0.961 . S
C335 H336 0.960 . S
H336 C335 0.960 . S
H337 N317 0.862 . S
O338 Co306 1.920 . S
O338 C311 1.289 . S
C339 O331 1.258 . S
C339 O332 1.266 . S
Co340 O343 1.970 . S
Co340 N357 1.989 . S
Co340 O365 1.967 . S
Co340 O372 1.920 . S
Co341 O344 1.966 . S
Co341 N350 2.022 . S
Co341 N358 1.993 . S
Co341 O366 1.941 . S
C342 O343 1.258 . S
C342 O344 1.263 . S
O343 Co340 1.970 . S
O343 C342 1.258 . S
O344 Co341 1.966 . S
O344 C342 1.263 . S
C345 O346 1.235 . S
C345 O372 1.289 . S
O346 C345 1.235 . S
C347 C349 1.400 . S
C347 N350 1.351 . S
C347 C352 1.501 . S
C348 C349 1.387 . S
C348 N351 1.341 . S
C349 C347 1.400 . S
C349 C348 1.387 . S
N350 Co341 2.022 . S
N350 C347 1.351 . S
N350 N351 1.365 . S
N351 C348 1.341 . S
N351 N350 1.365 . S
N351 H371 0.862 . S
C352 C347 1.501 . S
C352 H353 0.961 . S
C352 H354 0.961 . S
C352 H355 0.960 . S
H353 C352 0.961 . S
H354 C352 0.961 . S
H355 C352 0.960 . S
C356 N357 1.342 . S
C356 C360 1.401 . S
C356 C361 1.499 . S
N357 Co340 1.989 . S
N357 C356 1.342 . S
N357 N358 1.388 . S
N358 Co341 1.993 . S
N358 N357 1.388 . S
N358 C359 1.346 . S
C359 N358 1.346 . S
C359 C360 1.396 . S
C359 C369 1.510 . S
C360 C356 1.401 . S
C360 C359 1.396 . S
C361 C356 1.499 . S
C361 H362 0.959 . S
C361 H363 0.960 . S
C361 H364 0.961 . S
H362 C361 0.959 . S
H363 C361 0.960 . S
H364 C361 0.961 . S
O365 Co340 1.967 . S
O365 C373 1.258 . S
O366 Co341 1.941 . S
O366 C373 1.266 . S
H367 C369 0.959 . S
H368 C369 0.961 . S
C369 C359 1.510 . S
C369 H367 0.959 . S
C369 H368 0.961 . S
C369 H370 0.960 . S
H370 C369 0.960 . S
H371 N351 0.862 . S
O372 Co340 1.920 . S
O372 C345 1.289 . S
C373 O365 1.258 . S
C373 O366 1.266 . S
Co374 O377 1.970 . S
Co374 N391 1.989 . S
Co374 O399 1.967 . S
Co374 O406 1.920 . S
Co375 O378 1.966 . S
Co375 N384 2.022 . S
Co375 N392 1.993 . S
Co375 O400 1.941 . S
C376 O377 1.258 . S
C376 O378 1.263 . S
O377 Co374 1.970 . S
O377 C376 1.258 . S
O378 Co375 1.966 . S
O378 C376 1.263 . S
C379 O380 1.235 . S
C379 O406 1.289 . S
O380 C379 1.235 . S
C381 C383 1.400 . S
C381 N384 1.351 . S
C381 C386 1.501 . S
C382 C383 1.387 . S
C382 N385 1.341 . S
C383 C381 1.400 . S
C383 C382 1.387 . S
N384 Co375 2.022 . S
N384 C381 1.351 . S
N384 N385 1.365 . S
N385 C382 1.341 . S
N385 N384 1.365 . S
N385 H405 0.862 . S
C386 C381 1.501 . S
C386 H387 0.961 . S
C386 H388 0.961 . S
C386 H389 0.960 . S
H387 C386 0.961 . S
H388 C386 0.961 . S
H389 C386 0.960 . S
C390 N391 1.342 . S
C390 C394 1.401 . S
C390 C395 1.499 . S
N391 Co374 1.989 . S
N391 C390 1.342 . S
N391 N392 1.388 . S
N392 Co375 1.993 . S
N392 N391 1.388 . S
N392 C393 1.346 . S
C393 N392 1.346 . S
C393 C394 1.396 . S
C393 C403 1.510 . S
C394 C390 1.401 . S
C394 C393 1.396 . S
C395 C390 1.499 . S
C395 H396 0.959 . S
C395 H397 0.960 . S
C395 H398 0.961 . S
H396 C395 0.959 . S
H397 C395 0.960 . S
H398 C395 0.961 . S
O399 Co374 1.967 . S
O399 C407 1.258 . S
O400 Co375 1.941 . S
O400 C407 1.266 . S
H401 C403 0.959 . S
H402 C403 0.961 . S
C403 C393 1.510 . S
C403 H401 0.959 . S
C403 H402 0.961 . S
C403 H404 0.960 . S
H404 C403 0.960 . S
H405 N385 0.862 . S
O406 Co374 1.920 . S
O406 C379 1.289 . S
C407 O399 1.258 . S
C407 O400 1.266 . S
Co408 O411 1.970 . S
Co408 N425 1.989 . S
Co408 O433 1.967 . S
Co408 O440 1.920 . S
Co409 O412 1.966 . S
Co409 N418 2.022 . S
Co409 N426 1.993 . S
Co409 O434 1.941 . S
C410 O411 1.258 . S
C410 O412 1.263 . S
O411 Co408 1.970 . S
O411 C410 1.258 . S
O412 Co409 1.966 . S
O412 C410 1.263 . S
C413 O414 1.235 . S
C413 O440 1.289 . S
O414 C413 1.235 . S
C415 C417 1.400 . S
C415 N418 1.351 1_554 S
C415 C420 1.501 . S
C416 C417 1.387 . S
C416 N419 1.341 . S
C417 C415 1.400 . S
C417 C416 1.387 . S
N418 Co409 2.022 . S
N418 C415 1.351 1_556 S
N418 N419 1.365 1_556 S
N419 C416 1.341 . S
N419 N418 1.365 1_554 S
N419 H439 0.862 1_554 S
C420 C415 1.501 . S
C420 H421 0.961 . S
C420 H422 0.961 . S
C420 H423 0.960 . S
H421 C420 0.961 . S
H422 C420 0.961 . S
H423 C420 0.960 . S
C424 N425 1.342 . S
C424 C428 1.401 . S
C424 C429 1.499 . S
N425 Co408 1.989 . S
N425 C424 1.342 . S
N425 N426 1.388 . S
N426 Co409 1.993 . S
N426 N425 1.388 . S
N426 C427 1.346 . S
C427 N426 1.346 . S
C427 C428 1.396 . S
C427 C437 1.510 . S
C428 C424 1.401 . S
C428 C427 1.396 . S
C429 C424 1.499 . S
C429 H430 0.959 . S
C429 H431 0.960 . S
C429 H432 0.961 . S
H430 C429 0.959 . S
H431 C429 0.960 . S
H432 C429 0.961 . S
O433 Co408 1.967 . S
O433 C441 1.258 . S
O434 Co409 1.941 . S
O434 C441 1.266 . S
H435 C437 0.959 . S
H436 C437 0.961 . S
C437 C427 1.510 . S
C437 H435 0.959 . S
C437 H436 0.961 . S
C437 H438 0.960 . S
H438 C437 0.960 . S
H439 N419 0.862 1_556 S
O440 Co408 1.920 . S
O440 C413 1.289 . S
C441 O433 1.258 . S
C441 O434 1.266 . S
Co442 O445 1.970 . S
Co442 N459 1.989 . S
Co442 O467 1.967 . S
Co442 O474 1.920 . S
Co443 O446 1.966 . S
Co443 N452 2.022 . S
Co443 N460 1.993 . S
Co443 O468 1.941 . S
C444 O445 1.258 . S
C444 O446 1.263 . S
O445 Co442 1.970 . S
O445 C444 1.258 . S
O446 Co443 1.966 . S
O446 C444 1.263 . S
C447 O448 1.235 . S
C447 O474 1.289 . S
O448 C447 1.235 . S
C449 C451 1.400 . S
C449 N452 1.351 1_554 S
C449 C454 1.501 . S
C450 C451 1.387 . S
C450 N453 1.341 1_554 S
C451 C449 1.400 . S
C451 C450 1.387 . S
N452 Co443 2.022 . S
N452 C449 1.351 1_556 S
N452 N453 1.365 . S
N453 C450 1.341 1_556 S
N453 N452 1.365 . S
N453 H473 0.862 . S
C454 C449 1.501 . S
C454 H455 0.961 1_554 S
C454 H456 0.961 . S
C454 H457 0.960 . S
H455 C454 0.961 1_556 S
H456 C454 0.961 . S
H457 C454 0.960 . S
C458 N459 1.342 . S
C458 C462 1.401 . S
C458 C463 1.499 . S
N459 Co442 1.989 . S
N459 C458 1.342 . S
N459 N460 1.388 . S
N460 Co443 1.993 . S
N460 N459 1.388 . S
N460 C461 1.346 . S
C461 N460 1.346 . S
C461 C462 1.396 . S
C461 C471 1.510 . S
C462 C458 1.401 . S
C462 C461 1.396 . S
C463 C458 1.499 . S
C463 H464 0.959 . S
C463 H465 0.960 . S
C463 H466 0.961 . S
H464 C463 0.959 . S
H465 C463 0.960 . S
H466 C463 0.961 . S
O467 Co442 1.967 . S
O467 C475 1.258 . S
O468 Co443 1.941 . S
O468 C475 1.266 . S
H469 C471 0.959 . S
H470 C471 0.961 . S
C471 C461 1.510 . S
C471 H469 0.959 . S
C471 H470 0.961 . S
C471 H472 0.960 . S
H472 C471 0.960 . S
H473 N453 0.862 . S
O474 Co442 1.920 . S
O474 C447 1.289 . S
C475 O467 1.258 . S
C475 O468 1.266 . S
Co476 O479 1.970 . S
Co476 N493 1.989 . S
Co476 O501 1.967 . S
Co476 O508 1.920 . S
Co477 O480 1.966 . S
Co477 N486 2.022 . S
Co477 N494 1.993 . S
Co477 O502 1.941 . S
C478 O479 1.258 . S
C478 O480 1.263 . S
O479 Co476 1.970 . S
O479 C478 1.258 . S
O480 Co477 1.966 . S
O480 C478 1.263 . S
C481 O482 1.235 1_554 S
C481 O508 1.289 1_554 S
O482 C481 1.235 1_556 S
C483 C485 1.400 . S
C483 N486 1.351 . S
C483 C488 1.501 . S
C484 C485 1.387 . S
C484 N487 1.341 . S
C485 C483 1.400 . S
C485 C484 1.387 . S
N486 Co477 2.022 . S
N486 C483 1.351 . S
N486 N487 1.365 . S
N487 C484 1.341 . S
N487 N486 1.365 . S
N487 H507 0.862 . S
C488 C483 1.501 . S
C488 H489 0.961 . S
C488 H490 0.961 . S
C488 H491 0.960 . S
H489 C488 0.961 . S
H490 C488 0.961 . S
H491 C488 0.960 . S
C492 N493 1.342 . S
C492 C496 1.401 . S
C492 C497 1.499 . S
N493 Co476 1.989 . S
N493 C492 1.342 . S
N493 N494 1.388 . S
N494 Co477 1.993 . S
N494 N493 1.388 . S
N494 C495 1.346 . S
C495 N494 1.346 . S
C495 C496 1.396 . S
C495 C505 1.510 . S
C496 C492 1.401 . S
C496 C495 1.396 . S
C497 C492 1.499 . S
C497 H498 0.959 . S
C497 H499 0.960 . S
C497 H500 0.961 . S
H498 C497 0.959 . S
H499 C497 0.960 . S
H500 C497 0.961 . S
O501 Co476 1.967 . S
O501 C509 1.258 . S
O502 Co477 1.941 . S
O502 C509 1.266 . S
H503 C505 0.959 . S
H504 C505 0.961 . S
C505 C495 1.510 . S
C505 H503 0.959 . S
C505 H504 0.961 . S
C505 H506 0.960 . S
H506 C505 0.960 . S
H507 N487 0.862 . S
O508 Co476 1.920 . S
O508 C481 1.289 1_556 S
C509 O501 1.258 . S
C509 O502 1.266 . S
Co510 O513 1.970 . S
Co510 N527 1.989 . S
Co510 O535 1.967 . S
Co510 O542 1.920 1_556 S
Co511 O514 1.966 . S
Co511 N520 2.022 . S
Co511 N528 1.993 . S
Co511 O536 1.941 . S
C512 O513 1.258 . S
C512 O514 1.263 . S
O513 Co510 1.970 . S
O513 C512 1.258 . S
O514 Co511 1.966 . S
O514 C512 1.263 . S
C515 O516 1.235 1_554 S
C515 O542 1.289 . S
O516 C515 1.235 1_556 S
C517 C519 1.400 . S
C517 N520 1.351 . S
C517 C522 1.501 . S
C518 C519 1.387 . S
C518 N521 1.341 . S
C519 C517 1.400 . S
C519 C518 1.387 . S
N520 Co511 2.022 . S
N520 C517 1.351 . S
N520 N521 1.365 . S
N521 C518 1.341 . S
N521 N520 1.365 . S
N521 H541 0.862 . S
C522 C517 1.501 . S
C522 H523 0.961 . S
C522 H524 0.961 . S
C522 H525 0.960 . S
H523 C522 0.961 . S
H524 C522 0.961 . S
H525 C522 0.960 . S
C526 N527 1.342 . S
C526 C530 1.401 . S
C526 C531 1.499 . S
N527 Co510 1.989 . S
N527 C526 1.342 . S
N527 N528 1.388 . S
N528 Co511 1.993 . S
N528 N527 1.388 . S
N528 C529 1.346 . S
C529 N528 1.346 . S
C529 C530 1.396 . S
C529 C539 1.510 . S
C530 C526 1.401 . S
C530 C529 1.396 . S
C531 C526 1.499 . S
C531 H532 0.959 . S
C531 H533 0.960 . S
C531 H534 0.961 . S
H532 C531 0.959 . S
H533 C531 0.960 . S
H534 C531 0.961 . S
O535 Co510 1.967 . S
O535 C543 1.258 . S
O536 Co511 1.941 . S
O536 C543 1.266 . S
H537 C539 0.959 . S
H538 C539 0.961 . S
C539 C529 1.510 . S
C539 H537 0.959 . S
C539 H538 0.961 . S
C539 H540 0.960 . S
H540 C539 0.960 . S
H541 N521 0.862 . S
O542 Co510 1.920 1_554 S
O542 C515 1.289 . S
C543 O535 1.258 . S
C543 O536 1.266 . S
Co544 O547 1.970 . S
Co544 N561 1.989 . S
Co544 O569 1.967 . S
Co544 O576 1.920 . S
Co545 O548 1.966 . S
Co545 N554 2.022 . S
Co545 N562 1.993 . S
Co545 O570 1.941 . S
C546 O547 1.258 . S
C546 O548 1.263 . S
O547 Co544 1.970 . S
O547 C546 1.258 . S
O548 Co545 1.966 . S
O548 C546 1.263 . S
C549 O550 1.235 . S
C549 O576 1.289 . S
O550 C549 1.235 . S
C551 C553 1.400 . S
C551 N554 1.351 . S
C551 C556 1.501 . S
C552 C553 1.387 . S
C552 N555 1.341 . S
C553 C551 1.400 . S
C553 C552 1.387 . S
N554 Co545 2.022 . S
N554 C551 1.351 . S
N554 N555 1.365 . S
N555 C552 1.341 . S
N555 N554 1.365 . S
N555 H575 0.862 . S
C556 C551 1.501 . S
C556 H557 0.961 . S
C556 H558 0.961 . S
C556 H559 0.960 . S
H557 C556 0.961 . S
H558 C556 0.961 . S
H559 C556 0.960 . S
C560 N561 1.342 . S
C560 C564 1.401 . S
C560 C565 1.499 . S
N561 Co544 1.989 . S
N561 C560 1.342 . S
N561 N562 1.388 . S
N562 Co545 1.993 . S
N562 N561 1.388 . S
N562 C563 1.346 . S
C563 N562 1.346 . S
C563 C564 1.396 . S
C563 C573 1.510 . S
C564 C560 1.401 . S
C564 C563 1.396 . S
C565 C560 1.499 . S
C565 H566 0.959 . S
C565 H567 0.960 . S
C565 H568 0.961 . S
H566 C565 0.959 . S
H567 C565 0.960 . S
H568 C565 0.961 . S
O569 Co544 1.967 . S
O569 C577 1.258 . S
O570 Co545 1.941 . S
O570 C577 1.266 . S
H571 C573 0.959 . S
H572 C573 0.961 . S
C573 C563 1.510 . S
C573 H571 0.959 . S
C573 H572 0.961 . S
C573 H574 0.960 . S
H574 C573 0.960 . S
H575 N555 0.862 . S
O576 Co544 1.920 . S
O576 C549 1.289 . S
C577 O569 1.258 . S
C577 O570 1.266 . S
Co578 O581 1.970 . S
Co578 N595 1.989 . S
Co578 O603 1.967 . S
Co578 O610 1.920 . S
Co579 O582 1.966 . S
Co579 N588 2.022 . S
Co579 N596 1.993 . S
Co579 O604 1.941 . S
C580 O581 1.258 . S
C580 O582 1.263 . S
O581 Co578 1.970 . S
O581 C580 1.258 . S
O582 Co579 1.966 . S
O582 C580 1.263 . S
C583 O584 1.235 . S
C583 O610 1.289 . S
O584 C583 1.235 . S
C585 C587 1.400 . S
C585 N588 1.351 1_554 S
C585 C590 1.501 . S
C586 C587 1.387 . S
C586 N589 1.341 . S
C587 C585 1.400 . S
C587 C586 1.387 . S
N588 Co579 2.022 . S
N588 C585 1.351 1_556 S
N588 N589 1.365 1_556 S
N589 C586 1.341 . S
N589 N588 1.365 1_554 S
N589 H609 0.862 1_554 S
C590 C585 1.501 . S
C590 H591 0.961 1_554 S
C590 H592 0.961 . S
C590 H593 0.960 . S
H591 C590 0.961 1_556 S
H592 C590 0.961 . S
H593 C590 0.960 . S
C594 N595 1.342 . S
C594 C598 1.401 . S
C594 C599 1.499 . S
N595 Co578 1.989 . S
N595 C594 1.342 . S
N595 N596 1.388 . S
N596 Co579 1.993 . S
N596 N595 1.388 . S
N596 C597 1.346 . S
C597 N596 1.346 . S
C597 C598 1.396 . S
C597 C607 1.510 . S
C598 C594 1.401 . S
C598 C597 1.396 . S
C599 C594 1.499 . S
C599 H600 0.959 . S
C599 H601 0.960 . S
C599 H602 0.961 . S
H600 C599 0.959 . S
H601 C599 0.960 . S
H602 C599 0.961 . S
O603 Co578 1.967 . S
O603 C611 1.258 . S
O604 Co579 1.941 . S
O604 C611 1.266 . S
H605 C607 0.959 . S
H606 C607 0.961 . S
C607 C597 1.510 . S
C607 H605 0.959 . S
C607 H606 0.961 . S
C607 H608 0.960 . S
H608 C607 0.960 . S
H609 N589 0.862 1_556 S
O610 Co578 1.920 . S
O610 C583 1.289 . S
C611 O603 1.258 . S
C611 O604 1.266 . S
C612 C613 1.369 . S
C612 C614 1.419 . S
C612 H616 0.930 . S
C613 C612 1.369 . S
C613 C622 1.429 . S
C614 C612 1.419 . S
C614 C615 1.363 . S
C614 H617 0.929 . S
C615 C614 1.363 . S
C615 C621 1.428 . S
H616 C612 0.930 . S
H617 C614 0.929 . S
S618 N619 1.613 . S
S618 N620 1.610 . S
N619 S618 1.613 . S
N619 C622 1.350 . S
N620 S618 1.610 . S
N620 C621 1.351 . S
C621 C615 1.428 . S
C621 N620 1.351 . S
C621 C622 1.434 . S
C622 C613 1.429 . S
C622 N619 1.350 . S
C622 C621 1.434 . S
C623 C624 1.369 . S
C623 C625 1.419 . S
C623 H627 0.930 . S
C624 C623 1.369 . S
C624 C633 1.429 . S
C625 C623 1.419 . S
C625 C626 1.363 . S
C625 H628 0.929 . S
C626 C625 1.363 . S
C626 C632 1.428 . S
H627 C623 0.930 . S
H628 C625 0.929 . S
S629 N630 1.613 . S
S629 N631 1.610 . S
N630 S629 1.613 . S
N630 C633 1.350 . S
N631 S629 1.610 . S
N631 C632 1.351 . S
C632 C626 1.428 . S
C632 N631 1.351 . S
C632 C633 1.434 . S
C633 C624 1.429 . S
C633 N630 1.350 . S
C633 C632 1.434 . S
C634 C635 1.369 . S
C634 C636 1.419 . S
C634 H638 0.930 . S
C635 C634 1.369 . S
C635 C644 1.429 . S
C636 C634 1.419 . S
C636 C637 1.363 . S
C636 H639 0.929 . S
C637 C636 1.363 . S
C637 C643 1.428 . S
H638 C634 0.930 . S
H639 C636 0.929 . S
S640 N641 1.613 . S
S640 N642 1.610 . S
N641 S640 1.613 . S
N641 C644 1.350 . S
N642 S640 1.610 . S
N642 C643 1.351 . S
C643 C637 1.428 . S
C643 N642 1.351 . S
C643 C644 1.434 . S
C644 C635 1.429 . S
C644 N641 1.350 . S
C644 C643 1.434 . S
C645 C646 1.369 . S
C645 C647 1.419 . S
C645 H649 0.930 . S
C646 C645 1.369 . S
C646 C655 1.429 1_455 S
C647 C645 1.419 . S
C647 C648 1.363 1_455 S
C647 H650 0.929 . S
C648 C647 1.363 1_655 S
C648 C654 1.428 . S
H649 C645 0.930 . S
H650 C647 0.929 . S
S651 N652 1.613 . S
S651 N653 1.610 . S
N652 S651 1.613 . S
N652 C655 1.350 . S
N653 S651 1.610 . S
N653 C654 1.351 . S
C654 C648 1.428 . S
C654 N653 1.351 . S
C654 C655 1.434 . S
C655 C646 1.429 1_655 S
C655 N652 1.350 . S
C655 C654 1.434 . S
C656 C657 1.369 . S
C656 C658 1.419 . S
C656 H660 0.930 . S
C657 C656 1.369 . S
C657 C666 1.429 . S
C658 C656 1.419 . S
C658 C659 1.363 . S
C658 H661 0.929 . S
C659 C658 1.363 . S
C659 C665 1.428 . S
H660 C656 0.930 . S
H661 C658 0.929 . S
S662 N663 1.613 . S
S662 N664 1.610 . S
N663 S662 1.613 . S
N663 C666 1.350 . S
N664 S662 1.610 . S
N664 C665 1.351 . S
C665 C659 1.428 . S
C665 N664 1.351 . S
C665 C666 1.434 . S
C666 C657 1.429 . S
C666 N663 1.350 . S
C666 C665 1.434 . S
C667 C668 1.369 . S
C667 C669 1.419 1_565 S
C667 H671 0.930 . S
C668 C667 1.369 . S
C668 C677 1.429 . S
C669 C667 1.419 1_545 S
C669 C670 1.363 . S
C669 H672 0.929 . S
C670 C669 1.363 . S
C670 C676 1.428 1_545 S
H671 C667 0.930 . S
H672 C669 0.929 . S
S673 N674 1.613 . S
S673 N675 1.610 . S
N674 S673 1.613 . S
N674 C677 1.350 . S
N675 S673 1.610 . S
N675 C676 1.351 . S
C676 C670 1.428 1_565 S
C676 N675 1.351 . S
C676 C677 1.434 . S
C677 C668 1.429 . S
C677 N674 1.350 . S
C677 C676 1.434 . S
C678 C679 1.369 . S
C678 C680 1.419 1_556 S
C678 H682 0.930 . S
C679 C678 1.369 . S
C679 C688 1.429 . S
C680 C678 1.419 1_554 S
C680 C681 1.363 . S
C680 H683 0.929 . S
C681 C680 1.363 . S
C681 C687 1.428 1_554 S
H682 C678 0.930 . S
H683 C680 0.929 . S
S684 N685 1.613 . S
S684 N686 1.610 . S
N685 S684 1.613 . S
N685 C688 1.350 . S
N686 S684 1.610 . S
N686 C687 1.351 . S
C687 C681 1.428 1_556 S
C687 N686 1.351 . S
C687 C688 1.434 . S
C688 C679 1.429 . S
C688 N685 1.350 . S
C688 C687 1.434 . S
C689 C690 1.369 . S
C689 C691 1.419 . S
C689 H693 0.930 . S
C690 C689 1.369 . S
C690 C699 1.428 1_556 S
C691 C689 1.419 . S
C691 C692 1.363 1_556 S
C691 H694 0.929 . S
C692 C691 1.363 1_554 S
C692 C698 1.428 . S
H693 C689 0.930 . S
H694 C691 0.929 . S
S695 N696 1.613 . S
S695 N697 1.610 . S
N696 S695 1.613 . S
N696 C699 1.350 . S
N697 S695 1.610 . S
N697 C698 1.351 . S
C698 C692 1.428 . S
C698 N697 1.351 . S
C698 C699 1.434 . S
C699 C690 1.428 1_554 S
C699 N696 1.350 . S
C699 C698 1.434 . S
C700 C701 1.369 . S
C700 C702 1.419 . S
C700 H704 0.930 . S
C701 C700 1.369 . S
C701 C710 1.429 . S
C702 C700 1.419 . S
C702 C703 1.363 1_556 S
C702 H705 0.929 . S
C703 C702 1.363 1_554 S
C703 C709 1.428 . S
H704 C700 0.930 . S
H705 C702 0.929 . S
S706 N707 1.613 1_554 S
S706 N708 1.610 . S
N707 S706 1.613 1_556 S
N707 C710 1.350 . S
N708 S706 1.610 . S
N708 C709 1.351 . S
C709 C703 1.428 . S
C709 N708 1.351 . S
C709 C710 1.434 1_554 S
C710 C701 1.429 . S
C710 N707 1.350 . S
C710 C709 1.434 1_556 S
C711 C712 1.369 . S
C711 C713 1.419 1_554 S
C711 H715 0.930 . S
C712 C711 1.369 . S
C712 C721 1.429 . S
C713 C711 1.419 1_556 S
C713 C714 1.363 . S
C713 H716 0.929 . S
C714 C713 1.363 . S
C714 C720 1.428 . S
H715 C711 0.930 . S
H716 C713 0.929 . S
S717 N718 1.613 1_556 S
S717 N719 1.610 1_545 S
N718 S717 1.613 1_554 S
N718 C721 1.350 1_545 S
N719 S717 1.610 1_565 S
N719 C720 1.351 . S
C720 C714 1.428 . S
C720 N719 1.351 . S
C720 C721 1.434 1_556 S
C721 C712 1.429 . S
C721 N718 1.350 1_565 S
C721 C720 1.434 1_554 S
C722 C723 1.369 . S
C722 C724 1.419 1_556 S
C722 H726 0.929 1_556 S
C723 C722 1.369 . S
C723 C732 1.429 . S
C724 C722 1.419 1_554 S
C724 C725 1.363 . S
C724 H727 0.929 . S
C725 C724 1.363 . S
C725 C731 1.428 1_554 S
H726 C722 0.929 1_554 S
H727 C724 0.929 . S
S728 N729 1.613 . S
S728 N730 1.610 . S
N729 S728 1.613 . S
N729 C732 1.350 . S
N730 S728 1.610 . S
N730 C731 1.351 . S
C731 C725 1.428 1_556 S
C731 N730 1.351 . S
C731 C732 1.434 . S
C732 C723 1.429 . S
C732 N729 1.350 . S
C732 C731 1.434 . S
C733 C734 1.369 . S
C733 C735 1.419 1_556 S
C733 H737 0.930 . S
C734 C733 1.369 . S
C734 C743 1.430 . S
C735 C733 1.419 1_554 S
C735 C736 1.363 . S
C735 H738 0.929 . S
C736 C735 1.363 . S
C736 C742 1.428 . S
H737 C733 0.930 . S
H738 C735 0.929 . S
S739 N740 1.613 . S
S739 N741 1.610 . S
N740 S739 1.613 . S
N740 C743 1.350 1_554 S
N741 S739 1.610 . S
N741 C742 1.351 . S
C742 C736 1.428 . S
C742 N741 1.351 . S
C742 C743 1.432 1_554 S
C743 C734 1.430 . S
C743 N740 1.350 1_556 S
C743 C742 1.432 1_556 S
C744 C745 1.369 . S
C744 C746 1.419 . S
C744 H748 0.930 . S
C745 C744 1.369 . S
C745 C754 1.429 . S
C746 C744 1.419 . S
C746 C747 1.363 . S
C746 H749 0.929 . S
C747 C746 1.363 . S
C747 C753 1.428 . S
H748 C744 0.930 . S
H749 C746 0.929 . S
S750 N751 1.613 . S
S750 N752 1.610 . S
N751 S750 1.613 . S
N751 C754 1.350 . S
N752 S750 1.610 . S
N752 C753 1.351 . S
C753 C747 1.428 . S
C753 N752 1.351 . S
C753 C754 1.434 . S
C754 C745 1.429 . S
C754 N751 1.350 . S
C754 C753 1.434 . S
C755 C756 1.369 . S
C755 C757 1.419 . S
C755 H759 0.930 . S
C756 C755 1.369 . S
C756 C765 1.429 . S
C757 C755 1.419 . S
C757 C758 1.363 . S
C757 H760 0.929 . S
C758 C757 1.363 . S
C758 C764 1.428 . S
H759 C755 0.930 . S
H760 C757 0.929 . S
S761 N762 1.613 . S
S761 N763 1.610 . S
N762 S761 1.613 . S
N762 C765 1.350 . S
N763 S761 1.610 . S
N763 C764 1.351 . S
C764 C758 1.428 . S
C764 N763 1.351 . S
C764 C765 1.434 . S
C765 C756 1.429 . S
C765 N762 1.350 . S
C765 C764 1.434 . S
C766 C767 1.369 . S
C766 C768 1.419 . S
C766 H770 0.930 . S
C767 C766 1.369 . S
C767 C776 1.429 . S
C768 C766 1.419 . S
C768 C769 1.363 . S
C768 H771 0.929 . S
C769 C768 1.363 . S
C769 C775 1.428 . S
H770 C766 0.930 . S
H771 C768 0.929 . S
S772 N773 1.613 . S
S772 N774 1.610 . S
N773 S772 1.613 . S
N773 C776 1.350 . S
N774 S772 1.610 . S
N774 C775 1.351 . S
C775 C769 1.428 . S
C775 N774 1.351 . S
C775 C776 1.434 . S
C776 C767 1.429 . S
C776 N773 1.350 . S
C776 C775 1.434 . S
C777 C778 1.369 . S
C777 C779 1.419 . S
C777 H781 0.930 . S
C778 C777 1.369 . S
C778 C787 1.429 . S
C779 C777 1.419 . S
C779 C780 1.363 . S
C779 H782 0.929 . S
C780 C779 1.363 . S
C780 C786 1.428 . S
H781 C777 0.930 . S
H782 C779 0.929 . S
S783 N784 1.613 . S
S783 N785 1.610 . S
N784 S783 1.613 . S
N784 C787 1.350 . S
N785 S783 1.610 . S
N785 C786 1.351 . S
C786 C780 1.428 . S
C786 N785 1.351 . S
C786 C787 1.434 . S
C787 C778 1.429 . S
C787 N784 1.350 . S
C787 C786 1.434 . S
C788 C789 1.369 . S
C788 C790 1.419 . S
C788 H792 0.930 . S
C789 C788 1.369 . S
C789 C798 1.429 . S
C790 C788 1.419 . S
C790 C791 1.363 . S
C790 H793 0.929 . S
C791 C790 1.363 . S
C791 C797 1.428 . S
H792 C788 0.930 . S
H793 C790 0.929 . S
S794 N795 1.613 . S
S794 N796 1.610 . S
N795 S794 1.613 . S
N795 C798 1.350 . S
N796 S794 1.610 . S
N796 C797 1.351 . S
C797 C791 1.428 . S
C797 N796 1.351 . S
C797 C798 1.434 . S
C798 C789 1.429 . S
C798 N795 1.350 . S
C798 C797 1.434 . S
C799 C800 1.369 . S
C799 C801 1.419 . S
C799 H803 0.930 . S
C800 C799 1.369 . S
C800 C809 1.429 . S
C801 C799 1.419 . S
C801 C802 1.363 . S
C801 H804 0.929 . S
C802 C801 1.363 . S
C802 C808 1.428 . S
H803 C799 0.930 . S
H804 C801 0.929 . S
S805 N806 1.613 . S
S805 N807 1.610 . S
N806 S805 1.613 . S
N806 C809 1.350 . S
N807 S805 1.610 . S
N807 C808 1.351 . S
C808 C802 1.428 . S
C808 N807 1.351 . S
C808 C809 1.434 . S
C809 C800 1.429 . S
C809 N806 1.350 . S
C809 C808 1.434 . S
C810 C811 1.369 . S
C810 C812 1.419 . S
C810 H814 0.930 . S
C811 C810 1.369 . S
C811 C820 1.429 . S
C812 C810 1.419 . S
C812 C813 1.363 . S
C812 H815 0.929 . S
C813 C812 1.363 . S
C813 C819 1.428 . S
H814 C810 0.930 . S
H815 C812 0.929 . S
S816 N817 1.613 1_556 S
S816 N818 1.610 1_656 S
N817 S816 1.613 1_554 S
N817 C820 1.350 1_655 S
N818 S816 1.610 1_454 S
N818 C819 1.351 . S
C819 C813 1.428 . S
C819 N818 1.351 . S
C819 C820 1.434 . S
C820 C811 1.429 . S
C820 N817 1.350 1_455 S
C820 C819 1.434 . S
C821 C822 1.369 . S
C821 C823 1.419 . S
C821 H825 0.930 . S
C822 C821 1.369 . S
C822 C831 1.429 . S
C823 C821 1.419 . S
C823 C824 1.363 . S
C823 H826 0.929 . S
C824 C823 1.363 . S
C824 C830 1.428 . S
H825 C821 0.930 . S
H826 C823 0.929 . S
S827 N828 1.613 . S
S827 N829 1.610 . S
N828 S827 1.613 . S
N828 C831 1.350 1_556 S
N829 S827 1.610 . S
N829 C830 1.351 1_556 S
C830 C824 1.428 . S
C830 N829 1.351 1_554 S
C830 C831 1.434 . S
C831 C822 1.429 . S
C831 N828 1.350 1_554 S
C831 C830 1.434 . S
C832 C833 1.369 . S
C832 C834 1.419 . S
C832 H836 0.930 1_554 S
C833 C832 1.369 . S
C833 C842 1.429 . S
C834 C832 1.419 . S
C834 C835 1.363 . S
C834 H837 0.929 1_554 S
C835 C834 1.363 . S
C835 C841 1.428 . S
H836 C832 0.930 1_556 S
H837 C834 0.929 1_556 S
S838 N839 1.613 . S
S838 N840 1.610 . S
N839 S838 1.613 . S
N839 C842 1.350 1_565 S
N840 S838 1.610 . S
N840 C841 1.351 1_565 S
C841 C835 1.428 . S
C841 N840 1.351 1_545 S
C841 C842 1.434 . S
C842 C833 1.429 . S
C842 N839 1.350 1_545 S
C842 C841 1.434 . S
C843 C844 1.369 . S
C843 C845 1.419 . S
C843 H847 0.930 . S
C844 C843 1.369 . S
C844 C853 1.429 . S
C845 C843 1.419 . S
C845 C846 1.363 . S
C845 H848 0.929 . S
C846 C845 1.363 . S
C846 C852 1.428 . S
H847 C843 0.930 . S
H848 C845 0.929 . S
S849 N850 1.613 . S
S849 N851 1.610 . S
N850 S849 1.613 . S
N850 C853 1.350 . S
N851 S849 1.610 . S
N851 C852 1.351 . S
C852 C846 1.428 . S
C852 N851 1.351 . S
C852 C853 1.434 . S
C853 C844 1.429 . S
C853 N850 1.350 . S
C853 C852 1.434 . S
C854 C855 1.369 . S
C854 C856 1.419 . S
C854 H858 0.930 . S
C855 C854 1.369 . S
C855 C864 1.429 . S
C856 C854 1.419 . S
C856 C857 1.363 . S
C856 H859 0.929 . S
C857 C856 1.363 . S
C857 C863 1.428 . S
H858 C854 0.930 . S
H859 C856 0.929 . S
S860 N861 1.613 . S
S860 N862 1.610 . S
N861 S860 1.613 . S
N861 C864 1.350 . S
N862 S860 1.610 . S
N862 C863 1.351 . S
C863 C857 1.428 . S
C863 N862 1.351 . S
C863 C864 1.434 . S
C864 C855 1.429 . S
C864 N861 1.350 . S
C864 C863 1.434 . S
C865 C866 1.369 . S
C865 C867 1.419 . S
C865 H869 0.930 . S
C866 C865 1.369 . S
C866 C875 1.429 . S
C867 C865 1.419 . S
C867 C868 1.363 . S
C867 H870 0.929 . S
C868 C867 1.363 . S
C868 C874 1.428 . S
H869 C865 0.930 . S
H870 C867 0.929 . S
S871 N872 1.613 . S
S871 N873 1.610 . S
N872 S871 1.613 . S
N872 C875 1.350 . S
N873 S871 1.610 . S
N873 C874 1.351 . S
C874 C868 1.428 . S
C874 N873 1.351 . S
C874 C875 1.434 . S
C875 C866 1.429 . S
C875 N872 1.350 . S
C875 C874 1.434 . S
C876 C877 1.369 . S
C876 C878 1.419 . S
C876 H880 0.930 . S
C877 C876 1.369 . S
C877 C886 1.429 . S
C878 C876 1.419 . S
C878 C879 1.363 . S
C878 H881 0.929 . S
C879 C878 1.363 . S
C879 C885 1.428 . S
H880 C876 0.930 . S
H881 C878 0.929 . S
S882 N883 1.613 . S
S882 N884 1.610 . S
N883 S882 1.613 . S
N883 C886 1.350 . S
N884 S882 1.610 . S
N884 C885 1.351 . S
C885 C879 1.428 . S
C885 N884 1.351 . S
C885 C886 1.434 . S
C886 C877 1.429 . S
C886 N883 1.350 . S
C886 C885 1.434 . S
C887 C888 1.369 . S
C887 C889 1.419 . S
C887 H891 0.930 . S
C888 C887 1.369 . S
C888 C897 1.429 . S
C889 C887 1.419 . S
C889 C890 1.363 . S
C889 H892 0.929 . S
C890 C889 1.363 . S
C890 C896 1.428 . S
H891 C887 0.930 . S
H892 C889 0.929 . S
S893 N894 1.613 . S
S893 N895 1.610 . S
N894 S893 1.613 . S
N894 C897 1.350 . S
N895 S893 1.610 . S
N895 C896 1.351 . S
C896 C890 1.428 . S
C896 N895 1.351 . S
C896 C897 1.434 . S
C897 C888 1.429 . S
C897 N894 1.350 . S
C897 C896 1.434 . S
C898 C899 1.369 . S
C898 C900 1.419 . S
C898 H902 0.930 . S
C899 C898 1.369 . S
C899 C908 1.429 . S
C900 C898 1.419 . S
C900 C901 1.363 . S
C900 H903 0.929 . S
C901 C900 1.363 . S
C901 C907 1.428 . S
H902 C898 0.930 . S
H903 C900 0.929 . S
S904 N905 1.613 . S
S904 N906 1.610 . S
N905 S904 1.613 . S
N905 C908 1.350 . S
N906 S904 1.610 . S
N906 C907 1.351 . S
C907 C901 1.428 . S
C907 N906 1.351 . S
C907 C908 1.434 . S
C908 C899 1.429 . S
C908 N905 1.350 . S
C908 C907 1.434 . S
C909 C910 1.369 . S
C909 C911 1.419 . S
C909 H913 0.930 . S
C910 C909 1.369 . S
C910 C919 1.429 . S
C911 C909 1.419 . S
C911 C912 1.363 . S
C911 H914 0.929 . S
C912 C911 1.363 . S
C912 C918 1.428 . S
H913 C909 0.930 . S
H914 C911 0.929 . S
S915 N916 1.613 . S
S915 N917 1.610 . S
N916 S915 1.613 . S
N916 C919 1.350 . S
N917 S915 1.610 . S
N917 C918 1.351 . S
C918 C912 1.428 . S
C918 N917 1.351 . S
C918 C919 1.434 . S
C919 C910 1.429 . S
C919 N916 1.350 . S
C919 C918 1.434 . S
C920 C921 1.369 . S
C920 C922 1.419 . S
C920 H924 0.930 . S
C921 C920 1.369 . S
C921 C930 1.429 . S
C922 C920 1.419 . S
C922 C923 1.363 . S
C922 H925 0.929 . S
C923 C922 1.363 . S
C923 C929 1.428 . S
H924 C920 0.930 . S
H925 C922 0.929 . S
S926 N927 1.613 . S
S926 N928 1.610 . S
N927 S926 1.613 . S
N927 C930 1.350 . S
N928 S926 1.610 . S
N928 C929 1.351 . S
C929 C923 1.428 . S
C929 N928 1.351 . S
C929 C930 1.434 . S
C930 C921 1.429 . S
C930 N927 1.350 . S
C930 C929 1.434 . S
C931 C932 1.369 . S
C931 C933 1.419 . S
C931 H935 0.930 . S
C932 C931 1.369 . S
C932 C941 1.429 1_545 S
C933 C931 1.419 . S
C933 C934 1.363 1_545 S
C933 H936 0.929 . S
C934 C933 1.363 1_565 S
C934 C940 1.428 . S
H935 C931 0.930 . S
H936 C933 0.929 . S
S937 N938 1.613 . S
S937 N939 1.610 . S
N938 S937 1.613 . S
N938 C941 1.350 . S
N939 S937 1.610 . S
N939 C940 1.351 . S
C940 C934 1.428 . S
C940 N939 1.351 . S
C940 C941 1.434 . S
C941 C932 1.429 1_565 S
C941 N938 1.350 . S
C941 C940 1.434 . S
C942 C943 1.369 . S
C942 C944 1.419 . S
C942 H946 0.930 . S
C943 C942 1.369 . S
C943 C952 1.429 1_556 S
C944 C942 1.419 . S
C944 C945 1.363 . S
C944 H947 0.929 . S
C945 C944 1.363 . S
C945 C951 1.428 . S
H946 C942 0.930 . S
H947 C944 0.929 . S
S948 N949 1.613 . S
S948 N950 1.610 1_554 S
N949 S948 1.613 . S
N949 C952 1.350 . S
N950 S948 1.610 1_556 S
N950 C951 1.351 . S
C951 C945 1.428 . S
C951 N950 1.351 . S
C951 C952 1.434 1_556 S
C952 C943 1.429 1_554 S
C952 N949 1.350 . S
C952 C951 1.434 1_554 S
C953 C954 1.369 . S
C953 C955 1.419 . S
C953 H957 0.930 . S
C954 C953 1.369 . S
C954 C963 1.429 . S
C955 C953 1.419 . S
C955 C956 1.363 . S
C955 H958 0.929 . S
C956 C955 1.363 . S
C956 C962 1.428 . S
H957 C953 0.930 . S
H958 C955 0.929 . S
S959 N960 1.613 . S
S959 N961 1.610 1_554 S
N960 S959 1.613 . S
N960 C963 1.350 1_554 S
N961 S959 1.610 1_556 S
N961 C962 1.351 . S
C962 C956 1.428 . S
C962 N961 1.351 . S
C962 C963 1.434 . S
C963 C954 1.429 . S
C963 N960 1.350 1_556 S
C963 C962 1.434 . S
C964 C965 1.369 . S
C964 C966 1.412 1_556 S
C964 H968 0.930 . S
C965 C964 1.369 . S
C965 C974 1.429 . S
C966 C964 1.412 1_554 S
C966 C967 1.362 1_554 S
C966 H969 0.937 . S
C967 C966 1.362 1_556 S
C967 C973 1.428 . S
H968 C964 0.930 . S
H969 C966 0.937 . S
S970 N971 1.613 . S
S970 N972 1.610 . S
N971 S970 1.613 . S
N971 C974 1.350 . S
N972 S970 1.610 . S
N972 C973 1.351 . S
C973 C967 1.428 . S
C973 N972 1.351 . S
C973 C974 1.434 . S
C974 C965 1.429 . S
C974 N971 1.350 . S
C974 C973 1.434 . S
C975 C976 1.369 . S
C975 C977 1.419 . S
C975 H979 0.930 . S
C976 C975 1.369 . S
C976 C985 1.429 . S
C977 C975 1.419 . S
C977 C978 1.363 . S
C977 H980 0.929 . S
C978 C977 1.363 . S
C978 C984 1.428 . S
H979 C975 0.930 . S
H980 C977 0.929 . S
S981 N982 1.613 . S
S981 N983 1.610 1_554 S
N982 S981 1.613 . S
N982 C985 1.350 1_554 S
N983 S981 1.610 1_556 S
N983 C984 1.351 . S
C984 C978 1.428 . S
C984 N983 1.351 . S
C984 C985 1.434 . S
C985 C976 1.429 . S
C985 N982 1.350 1_556 S
C985 C984 1.434 . S
C986 C987 1.369 1_556 S
C986 C988 1.419 . S
C986 H990 0.930 . S
C987 C986 1.369 1_554 S
C987 C996 1.429 . S
C988 C986 1.419 . S
C988 C989 1.363 . S
C988 H991 0.929 . S
C989 C988 1.363 . S
C989 C995 1.428 . S
H990 C986 0.930 . S
H991 C988 0.929 . S
S992 N993 1.613 . S
S992 N994 1.610 1_554 S
N993 S992 1.613 . S
N993 C996 1.350 . S
N994 S992 1.610 1_556 S
N994 C995 1.351 . S
C995 C989 1.428 . S
C995 N994 1.351 . S
C995 C996 1.434 1_556 S
C996 C987 1.429 . S
C996 N993 1.350 . S
C996 C995 1.434 1_554 S
C997 C998 1.369 . S
C997 C999 1.419 . S
C997 H1001 0.930 . S
C998 C997 1.369 . S
C998 C1007 1.429 . S
C999 C997 1.419 . S
C999 C1000 1.363 . S
C999 H1002 0.929 . S
C1000 C999 1.363 . S
C1000 C1006 1.428 . S
H1001 C997 0.930 . S
H1002 C999 0.929 . S
S1003 N1004 1.613 . S
S1003 N1005 1.610 1_556 S
N1004 S1003 1.613 . S
N1004 C1007 1.350 . S
N1005 S1003 1.610 1_554 S
N1005 C1006 1.351 1_554 S
C1006 C1000 1.428 . S
C1006 N1005 1.351 1_556 S
C1006 C1007 1.434 . S
C1007 C998 1.429 . S
C1007 N1004 1.350 . S
C1007 C1006 1.434 . S
C1008 C1009 1.369 . S
C1008 C1010 1.419 . S
C1008 H1012 0.930 . S
C1009 C1008 1.369 . S
C1009 C1018 1.429 . S
C1010 C1008 1.419 . S
C1010 C1011 1.363 . S
C1010 H1013 0.929 . S
C1011 C1010 1.363 . S
C1011 C1017 1.428 . S
H1012 C1008 0.930 . S
H1013 C1010 0.929 . S
S1014 N1015 1.613 . S
S1014 N1016 1.610 . S
N1015 S1014 1.613 . S
N1015 C1018 1.350 . S
N1016 S1014 1.610 . S
N1016 C1017 1.351 . S
C1017 C1011 1.428 . S
C1017 N1016 1.351 . S
C1017 C1018 1.434 . S
C1018 C1009 1.429 . S
C1018 N1015 1.350 . S
C1018 C1017 1.434 . S
C1019 C1020 1.369 . S
C1019 C1021 1.419 . S
C1019 H1023 0.930 . S
C1020 C1019 1.369 . S
C1020 C1029 1.429 . S
C1021 C1019 1.419 . S
C1021 C1022 1.363 . S
C1021 H1024 0.929 . S
C1022 C1021 1.363 . S
C1022 C1028 1.428 . S
H1023 C1019 0.930 . S
H1024 C1021 0.929 . S
S1025 N1026 1.613 . S
S1025 N1027 1.610 . S
N1026 S1025 1.613 . S
N1026 C1029 1.350 . S
N1027 S1025 1.610 . S
N1027 C1028 1.351 . S
C1028 C1022 1.428 . S
C1028 N1027 1.351 . S
C1028 C1029 1.434 . S
C1029 C1020 1.429 . S
C1029 N1026 1.350 . S
C1029 C1028 1.434 . S
C1030 C1031 1.369 . S
C1030 C1032 1.419 . S
C1030 H1034 0.930 . S
C1031 C1030 1.369 . S
C1031 C1040 1.429 . S
C1032 C1030 1.419 . S
C1032 C1033 1.363 . S
C1032 H1035 0.929 . S
C1033 C1032 1.363 . S
C1033 C1039 1.428 . S
H1034 C1030 0.930 . S
H1035 C1032 0.929 . S
S1036 N1037 1.613 . S
S1036 N1038 1.610 . S
N1037 S1036 1.613 . S
N1037 C1040 1.350 . S
N1038 S1036 1.610 . S
N1038 C1039 1.351 . S
C1039 C1033 1.428 . S
C1039 N1038 1.351 . S
C1039 C1040 1.434 . S
C1040 C1031 1.429 . S
C1040 N1037 1.350 . S
C1040 C1039 1.434 . S
C1041 C1042 1.369 . S
C1041 C1043 1.419 . S
C1041 H1045 0.930 . S
C1042 C1041 1.369 . S
C1042 C1051 1.429 . S
C1043 C1041 1.419 . S
C1043 C1044 1.363 . S
C1043 H1046 0.929 . S
C1044 C1043 1.363 . S
C1044 C1050 1.428 . S
H1045 C1041 0.930 . S
H1046 C1043 0.929 . S
S1047 N1048 1.613 . S
S1047 N1049 1.610 . S
N1048 S1047 1.613 . S
N1048 C1051 1.350 . S
N1049 S1047 1.610 . S
N1049 C1050 1.351 . S
C1050 C1044 1.428 . S
C1050 N1049 1.351 . S
C1050 C1051 1.434 . S
C1051 C1042 1.429 . S
C1051 N1048 1.350 . S
C1051 C1050 1.434 . S
C1052 C1053 1.369 . S
C1052 C1054 1.419 . S
C1052 H1056 0.930 . S
C1053 C1052 1.369 . S
C1053 C1062 1.429 . S
C1054 C1052 1.419 . S
C1054 C1055 1.363 . S
C1054 H1057 0.929 . S
C1055 C1054 1.363 . S
C1055 C1061 1.428 . S
H1056 C1052 0.930 . S
H1057 C1054 0.929 . S
S1058 N1059 1.613 . S
S1058 N1060 1.610 . S
N1059 S1058 1.613 . S
N1059 C1062 1.350 . S
N1060 S1058 1.610 . S
N1060 C1061 1.351 . S
C1061 C1055 1.428 . S
C1061 N1060 1.351 . S
C1061 C1062 1.434 . S
C1062 C1053 1.429 . S
C1062 N1059 1.350 . S
C1062 C1061 1.434 . S
C1063 C1064 1.369 . S
C1063 C1065 1.419 1_455 S
C1063 H1067 0.930 . S
C1064 C1063 1.369 . S
C1064 C1073 1.429 1_455 S
C1065 C1063 1.419 1_655 S
C1065 C1066 1.363 . S
C1065 H1068 0.929 . S
C1066 C1065 1.363 . S
C1066 C1072 1.428 . S
H1067 C1063 0.930 . S
H1068 C1065 0.929 . S
S1069 N1070 1.613 . S
S1069 N1071 1.610 . S
N1070 S1069 1.613 . S
N1070 C1073 1.350 . S
N1071 S1069 1.610 . S
N1071 C1072 1.351 . S
C1072 C1066 1.428 . S
C1072 N1071 1.351 . S
C1072 C1073 1.434 . S
C1073 C1064 1.429 1_655 S
C1073 N1070 1.350 . S
C1073 C1072 1.434 . S
C1074 C1075 1.369 . S
C1074 C1076 1.419 . S
C1074 H1078 0.930 . S
C1075 C1074 1.369 . S
C1075 C1084 1.429 . S
C1076 C1074 1.419 . S
C1076 C1077 1.363 . S
C1076 H1079 0.929 . S
C1077 C1076 1.363 . S
C1077 C1083 1.428 . S
H1078 C1074 0.930 . S
H1079 C1076 0.929 . S
S1080 N1081 1.613 . S
S1080 N1082 1.610 . S
N1081 S1080 1.613 . S
N1081 C1084 1.350 . S
N1082 S1080 1.610 . S
N1082 C1083 1.351 . S
C1083 C1077 1.428 . S
C1083 N1082 1.351 . S
C1083 C1084 1.434 . S
C1084 C1075 1.429 . S
C1084 N1081 1.350 . S
C1084 C1083 1.434 . S
C1085 C1086 1.369 . S
C1085 C1087 1.419 . S
C1085 H1089 0.930 . S
C1086 C1085 1.369 . S
C1086 C1095 1.429 . S
C1087 C1085 1.419 . S
C1087 C1088 1.363 . S
C1087 H1090 0.929 . S
C1088 C1087 1.363 . S
C1088 C1094 1.428 . S
H1089 C1085 0.930 . S
H1090 C1087 0.929 . S
S1091 N1092 1.602 1_565 S
S1091 N1093 1.612 . S
N1092 S1091 1.602 1_545 S
N1092 C1095 1.350 . S
N1093 S1091 1.612 . S
N1093 C1094 1.351 1_565 S
C1094 C1088 1.428 . S
C1094 N1093 1.351 1_545 S
C1094 C1095 1.434 . S
C1095 C1086 1.429 . S
C1095 N1092 1.350 . S
C1095 C1094 1.434 . S
C1096 C1097 1.369 . S
C1096 C1098 1.419 . S
C1096 H1100 0.930 . S
C1097 C1096 1.369 . S
C1097 C1106 1.429 . S
C1098 C1096 1.419 . S
C1098 C1099 1.363 . S
C1098 H1101 0.929 . S
C1099 C1098 1.363 . S
C1099 C1105 1.428 . S
H1100 C1096 0.930 . S
H1101 C1098 0.929 . S
S1102 N1103 1.613 . S
S1102 N1104 1.610 . S
N1103 S1102 1.613 . S
N1103 C1106 1.350 . S
N1104 S1102 1.610 . S
N1104 C1105 1.351 . S
C1105 C1099 1.428 . S
C1105 N1104 1.351 . S
C1105 C1106 1.434 . S
C1106 C1097 1.429 . S
C1106 N1103 1.350 . S
C1106 C1105 1.434 . S
C613 C5 1.487 . S
C615 C9 1.551 . S
C624 C39 1.556 . S
C626 C43 1.655 . S
C635 C77 1.570 . S
C637 C73 1.495 . S
C646 C111 1.567 . S
C648 C107 1.494 . S
C657 C141 1.550 . S
C659 C145 1.647 . S
C668 C175 1.560 . S
C670 C179 1.647 . S
C679 C213 1.469 . S
C681 C209 1.416 . S
C690 C247 1.650 . S
C692 C243 1.552 . S
C701 C281 1.562 . S
C703 C277 1.487 . S
C712 C311 1.425 . S
C714 C315 1.481 . S
C723 C349 1.659 . S
C725 C345 1.573 . S
C734 C383 1.566 . S
C736 C379 1.483 . S
C745 C413 1.412 . S
C747 C417 1.464 . S
C756 C447 1.475 . S
C758 C451 1.548 . S
C767 C481 1.487 . S
C769 C485 1.558 . S
C778 C515 1.421 . S
C780 C519 1.473 . S
C789 C553 1.571 . S
C791 C549 1.499 1_554 S
C800 C583 1.414 . S
C802 C587 1.473 . S
C811 C122 1.565 . S
C813 C20 1.553 . S
C822 C156 1.529 . S
C824 C54 1.527 . S
C833 C190 1.519 . S
C835 C88 1.527 . S
C844 C224 1.392 . S
C846 C326 1.383 . S
C855 C360 1.469 . S
C857 C258 1.482 . S
C866 C394 1.449 . S
C868 C292 1.440 . S
C877 C530 1.538 . S
C879 C428 1.532 . S
C888 C462 1.511 . S
C890 C564 1.531 . S
C899 C496 1.521 . S
C901 C598 1.510 . S
C910 C305 1.670 . S
C912 C2 1.609 . S
C921 C237 1.614 . S
C923 C36 1.579 . S
C932 C101 1.584 . S
C934 C271 1.581 . S
C943 C70 1.607 1_556 S
C945 C410 1.551 . S
C954 C33 1.808 1_656 S
C956 C444 1.685 . S
C965 C509 1.607 . S
C967 C67 1.625 1_556 S
C976 C104 1.659 1_556 S
C978 C580 1.576 . S
C987 C138 1.589 . S
C989 C543 1.626 . S
C998 C577 1.594 . S
C1000 C203 1.635 1_556 S
C1009 C339 1.631 . S
C1011 C172 1.591 . S
C1020 C135 1.558 . S
C1022 C373 1.561 . S
C1031 C169 1.581 . S
C1033 C407 1.560 . S
C1042 C206 1.492 . S
C1044 C478 1.496 . S
C1053 C240 1.580 . S
C1055 C441 1.617 . S
C1064 C274 1.539 . S
C1066 C475 1.565 . S
C1075 C512 1.565 . S
C1077 C376 1.597 . S
C1086 C546 1.476 . S
C1088 C308 1.470 . S
C1097 C611 1.609 . S
C1099 C342 1.592 1_655 S
