# Generated by pormake.
# Topology wmc, (6)-cn, num edge types: 1
# Building blocks:
#     Node 0, Type 0, BuildingBlock: UKALOJ_clean_sbu_0, # of connection points: 6
#     Node 1, Type 0, BuildingBlock: UKALOJ_clean_sbu_0, # of connection points: 6
#     Node 2, Type 0, BuildingBlock: UKALOJ_clean_sbu_0, # of connection points: 6
#     Node 3, Type 0, BuildingBlock: UKALOJ_clean_sbu_0, # of connection points: 6
#     Node 4, Type 0, BuildingBlock: UKALOJ_clean_sbu_0, # of connection points: 6
#     Node 5, Type 0, BuildingBlock: UKALOJ_clean_sbu_0, # of connection points: 6
#     Node 6, Type 0, BuildingBlock: UKALOJ_clean_sbu_0, # of connection points: 6
#     Node 7, Type 0, BuildingBlock: UKALOJ_clean_sbu_0, # of connection points: 6
#     Node 8, Type 0, BuildingBlock: UKALOJ_clean_sbu_0, # of connection points: 6
#     Node 9, Type 0, BuildingBlock: UKALOJ_clean_sbu_0, # of connection points: 6
#     Node 10, Type 0, BuildingBlock: UKALOJ_clean_sbu_0, # of connection points: 6
#     Node 11, Type 0, BuildingBlock: UKALOJ_clean_sbu_0, # of connection points: 6
#     Node 12, Type 0, BuildingBlock: UKALOJ_clean_sbu_0, # of connection points: 6
#     Node 13, Type 0, BuildingBlock: UKALOJ_clean_sbu_0, # of connection points: 6
#     Node 14, Type 0, BuildingBlock: UKALOJ_clean_sbu_0, # of connection points: 6
#     Node 15, Type 0, BuildingBlock: UKALOJ_clean_sbu_0, # of connection points: 6
#     Node 16, Type 0, BuildingBlock: UKALOJ_clean_sbu_0, # of connection points: 6
#     Node 17, Type 0, BuildingBlock: UKALOJ_clean_sbu_0, # of connection points: 6
#     Edge 18, Type (0, 0), BuildingBlock: OJICUG_clean_linker_0, # of connection points: 2
#     Edge 19, Type (0, 0), BuildingBlock: OJICUG_clean_linker_0, # of connection points: 2
#     Edge 20, Type (0, 0), BuildingBlock: OJICUG_clean_linker_0, # of connection points: 2
#     Edge 21, Type (0, 0), BuildingBlock: OJICUG_clean_linker_0, # of connection points: 2
#     Edge 22, Type (0, 0), BuildingBlock: OJICUG_clean_linker_0, # of connection points: 2
#     Edge 23, Type (0, 0), BuildingBlock: OJICUG_clean_linker_0, # of connection points: 2
#     Edge 24, Type (0, 0), BuildingBlock: OJICUG_clean_linker_0, # of connection points: 2
#     Edge 25, Type (0, 0), BuildingBlock: OJICUG_clean_linker_0, # of connection points: 2
#     Edge 26, Type (0, 0), BuildingBlock: OJICUG_clean_linker_0, # of connection points: 2
#     Edge 27, Type (0, 0), BuildingBlock: OJICUG_clean_linker_0, # of connection points: 2
#     Edge 28, Type (0, 0), BuildingBlock: OJICUG_clean_linker_0, # of connection points: 2
#     Edge 29, Type (0, 0), BuildingBlock: OJICUG_clean_linker_0, # of connection points: 2
#     Edge 30, Type (0, 0), BuildingBlock: OJICUG_clean_linker_0, # of connection points: 2
#     Edge 31, Type (0, 0), BuildingBlock: OJICUG_clean_linker_0, # of connection points: 2
#     Edge 32, Type (0, 0), BuildingBlock: OJICUG_clean_linker_0, # of connection points: 2
#     Edge 33, Type (0, 0), BuildingBlock: OJICUG_clean_linker_0, # of connection points: 2
#     Edge 34, Type (0, 0), BuildingBlock: OJICUG_clean_linker_0, # of connection points: 2
#     Edge 35, Type (0, 0), BuildingBlock: OJICUG_clean_linker_0, # of connection points: 2
#     Edge 36, Type (0, 0), BuildingBlock: OJICUG_clean_linker_0, # of connection points: 2
#     Edge 37, Type (0, 0), BuildingBlock: OJICUG_clean_linker_0, # of connection points: 2
#     Edge 38, Type (0, 0), BuildingBlock: OJICUG_clean_linker_0, # of connection points: 2
#     Edge 39, Type (0, 0), BuildingBlock: OJICUG_clean_linker_0, # of connection points: 2
#     Edge 40, Type (0, 0), BuildingBlock: OJICUG_clean_linker_0, # of connection points: 2
#     Edge 41, Type (0, 0), BuildingBlock: OJICUG_clean_linker_0, # of connection points: 2
#     Edge 42, Type (0, 0), BuildingBlock: OJICUG_clean_linker_0, # of connection points: 2
#     Edge 43, Type (0, 0), BuildingBlock: OJICUG_clean_linker_0, # of connection points: 2
#     Edge 44, Type (0, 0), BuildingBlock: OJICUG_clean_linker_0, # of connection points: 2
#     Edge 45, Type (0, 0), BuildingBlock: OJICUG_clean_linker_0, # of connection points: 2
#     Edge 46, Type (0, 0), BuildingBlock: OJICUG_clean_linker_0, # of connection points: 2
#     Edge 47, Type (0, 0), BuildingBlock: OJICUG_clean_linker_0, # of connection points: 2
#     Edge 48, Type (0, 0), BuildingBlock: OJICUG_clean_linker_0, # of connection points: 2
#     Edge 49, Type (0, 0), BuildingBlock: OJICUG_clean_linker_0, # of connection points: 2
#     Edge 50, Type (0, 0), BuildingBlock: OJICUG_clean_linker_0, # of connection points: 2
#     Edge 51, Type (0, 0), BuildingBlock: OJICUG_clean_linker_0, # of connection points: 2
#     Edge 52, Type (0, 0), BuildingBlock: OJICUG_clean_linker_0, # of connection points: 2
#     Edge 53, Type (0, 0), BuildingBlock: OJICUG_clean_linker_0, # of connection points: 2
#     Edge 54, Type (0, 0), BuildingBlock: OJICUG_clean_linker_0, # of connection points: 2
#     Edge 55, Type (0, 0), BuildingBlock: OJICUG_clean_linker_0, # of connection points: 2
#     Edge 56, Type (0, 0), BuildingBlock: OJICUG_clean_linker_0, # of connection points: 2
#     Edge 57, Type (0, 0), BuildingBlock: OJICUG_clean_linker_0, # of connection points: 2
#     Edge 58, Type (0, 0), BuildingBlock: OJICUG_clean_linker_0, # of connection points: 2
#     Edge 59, Type (0, 0), BuildingBlock: OJICUG_clean_linker_0, # of connection points: 2
#     Edge 60, Type (0, 0), BuildingBlock: OJICUG_clean_linker_0, # of connection points: 2
#     Edge 61, Type (0, 0), BuildingBlock: OJICUG_clean_linker_0, # of connection points: 2
#     Edge 62, Type (0, 0), BuildingBlock: OJICUG_clean_linker_0, # of connection points: 2
#     Edge 63, Type (0, 0), BuildingBlock: OJICUG_clean_linker_0, # of connection points: 2
#     Edge 64, Type (0, 0), BuildingBlock: OJICUG_clean_linker_0, # of connection points: 2
#     Edge 65, Type (0, 0), BuildingBlock: OJICUG_clean_linker_0, # of connection points: 2
#     Edge 66, Type (0, 0), BuildingBlock: OJICUG_clean_linker_0, # of connection points: 2
#     Edge 67, Type (0, 0), BuildingBlock: OJICUG_clean_linker_0, # of connection points: 2
#     Edge 68, Type (0, 0), BuildingBlock: OJICUG_clean_linker_0, # of connection points: 2
#     Edge 69, Type (0, 0), BuildingBlock: OJICUG_clean_linker_0, # of connection points: 2
#     Edge 70, Type (0, 0), BuildingBlock: OJICUG_clean_linker_0, # of connection points: 2
#     Edge 71, Type (0, 0), BuildingBlock: OJICUG_clean_linker_0, # of connection points: 2
# Relax obj value: 0.416
# Max RMSD: 0.233
# Mean RMSD: 0.233
data_MOF--net-wmc--node1-UKALOJ_clean_sbu_0--edge1-OJICUG_clean_linker_0
_symmetry_space_group_name_H-M    P1
_symmetry_Int_Tables_number       1
_symmetry_cell_setting            triclinic
loop_
_symmetry_equiv_pos_as_xyz
'x, y, z'
_cell_length_a     39.349354
_cell_length_b     39.336489
_cell_length_c     21.871856
_cell_angle_alpha  89.997119
_cell_angle_beta   90.02048
_cell_angle_gamma 119.99964
loop_
_atom_site_label
_atom_site_type_symbol
_atom_site_fract_x
_atom_site_fract_y
_atom_site_fract_z
_atom_type_partial_charge
Zn0 Zn 0.57419 0.10084 -0.0049 0.0
O1 O 0.54112 0.1314 -0.01732 0.0
C2 C 0.60617 0.13033 0.87355 0.0
Zn3 Zn 0.62755 0.16061 -0.00153 0.0
C4 C 0.55852 0.16847 -0.01088 0.0
O5 O 0.59515 0.18764 -0.00297 0.0
C6 C 0.6492 0.09879 0.01279 0.0
O7 O 0.62341 0.15926 0.09487 0.0
O8 O 0.56722 0.10335 0.08709 0.0
N9 N 0.67718 0.21433 -0.0039 0.0
C10 C 0.71476 0.22807 0.01358 0.0
C11 C 0.71391 0.27094 0.95483 0.0
N12 N 0.67682 0.2412 0.96008 0.0
N13 N 0.73835 0.26324 -0.01273 0.0
C14 C 0.4912 0.03724 0.94352 0.0
C15 C 0.46685 0.99505 0.01484 0.0
N16 N 0.51967 0.04784 -0.0132 0.0
N17 N 0.50414 0.02143 0.03102 0.0
N18 N 0.4577 1.0042 0.96005 0.0
H19 H 0.46646 0.0575 0.87394 0.0
H20 H 0.50543 0.04942 0.84877 0.0
H21 H 0.51647 0.09204 0.89255 0.0
C22 C 0.49512 0.06058 0.8869 0.0
C23 C 0.72863 0.20551 0.05115 0.0
H24 H 0.70489 0.18447 0.08169 0.0
H25 H 0.75453 0.22539 0.07904 0.0
H26 H 0.73757 0.18913 0.02004 0.0
O27 O 0.66109 0.13441 0.00101 0.0
O28 O 0.61207 0.07434 0.01456 0.0
C29 C 0.5927 0.13131 0.11943 0.0
O30 O 0.58249 0.09945 0.90205 0.0
O31 O 0.62883 0.16124 0.90297 0.0
Zn32 Zn 0.94408 0.48252 -0.005 0.0
O33 O 0.91354 0.41891 -0.01771 0.0
C34 C 0.91457 0.48528 0.87349 0.0
Zn35 Zn 0.88431 0.47614 -0.00161 0.0
C36 C 0.87647 0.39923 -0.01139 0.0
O37 O 0.85731 0.41669 -0.00339 0.0
C38 C 0.94608 0.55957 0.01319 0.0
O39 O 0.88567 0.47313 0.09477 0.0
O40 O 0.94157 0.47285 0.08697 0.0
N41 N 0.83058 0.47204 -0.00389 0.0
C42 C 0.81683 0.49586 0.01368 0.0
C43 C 0.774 0.45222 0.95478 0.0
N44 N 0.80373 0.44486 0.95999 0.0
N45 N 0.78168 0.48431 -0.01266 0.0
C46 C 1.00769 0.46324 0.94307 0.0
C47 C 0.0499 0.48093 0.01437 0.0
N48 N 0.9971 0.48101 -0.01349 0.0
N49 N 1.02352 0.4918 0.03072 0.0
N50 N 0.04074 0.46274 0.95948 0.0
H51 H 0.95289 0.43379 0.89212 0.0
H52 H 0.98743 0.41838 0.87327 0.0
H53 H 0.99547 0.46547 0.84838 0.0
C54 C 0.98434 0.44393 0.88641 0.0
C55 C 0.83935 0.53223 0.0514 0.0
H56 H 0.86039 0.52948 0.0819 0.0
H57 H 0.81946 0.53819 0.07934 0.0
H58 H 0.85572 0.55761 0.02038 0.0
O59 O 0.91048 0.53587 0.00129 0.0
O60 O 0.97053 0.54688 0.01482 0.0
C61 C 0.91361 0.47033 0.11931 0.0
O62 O 0.94544 0.49239 0.90198 0.0
O63 O 0.88368 0.47699 0.90292 0.0
Zn64 Zn 0.56242 0.47079 -0.00548 0.0
O65 O 0.62606 0.50392 -0.01795 0.0
C66 C 0.55984 0.43852 0.87308 0.0
Zn67 Zn 0.56889 0.41746 -0.00189 0.0
C68 C 0.64575 0.48655 -0.01146 0.0
O69 O 0.62831 0.44992 -0.00346 0.0
C70 C 0.48541 0.3957 0.01243 0.0
O71 O 0.57179 0.42185 0.0945 0.0
O72 O 0.57196 0.47798 0.08652 0.0
N73 N 0.57302 0.36785 -0.00396 0.0
C74 C 0.54923 0.3303 0.01374 0.0
C75 C 0.59281 0.33101 0.95489 0.0
N76 N 0.60017 0.36812 0.95996 0.0
N77 N 0.56075 0.30665 -0.01248 0.0
C78 C 0.58163 0.55366 0.94253 0.0
C79 C 0.56383 0.57812 0.01375 0.0
N80 N 0.56385 0.52527 -0.01407 0.0
N81 N 0.55299 0.54087 0.03008 0.0
N82 N 0.58206 0.58718 0.95892 0.0
H83 H 0.62651 0.57834 0.87282 0.0
H84 H 0.57949 0.5392 0.84787 0.0
H85 H 0.61121 0.5284 0.89174 0.0
C86 C 0.601 0.54966 0.88594 0.0
C87 C 0.5129 0.31652 0.05148 0.0
H88 H 0.51563 0.34037 0.08182 0.0
H89 H 0.50701 0.29075 0.0796 0.0
H90 H 0.48748 0.30739 0.02049 0.0
O91 O 0.50917 0.38384 0.00077 0.0
O92 O 0.49805 0.43284 0.01404 0.0
C93 C 0.57451 0.45258 0.11896 0.0
O94 O 0.55268 0.46228 0.90148 0.0
O95 O 0.56814 0.41594 0.90261 0.0
Zn96 Zn 0.94403 0.4708 0.49501 0.0
O97 O 0.91349 0.50389 0.48251 0.0
C98 C 0.91445 0.43863 0.37352 0.0
Zn99 Zn 0.88427 0.41744 0.49848 0.0
C100 C 0.87643 0.48651 0.48897 0.0
O101 O 0.85727 0.44987 0.49693 0.0
C102 C 0.94604 0.39574 0.51286 0.0
O103 O 0.8857 0.42174 0.59487 0.0
O104 O 0.94161 0.4779 0.58701 0.0
N105 N 0.83056 0.36781 0.49624 0.0
C106 C 0.81682 0.33026 0.51395 0.0
C107 C 0.77398 0.33097 0.45497 0.0
N108 N 0.80371 0.36807 0.46007 0.0
N109 N 0.78167 0.3066 0.48765 0.0
C110 C 1.00765 0.55373 0.44327 0.0
C111 C 0.04985 0.57814 0.5146 0.0
N112 N 0.99704 0.5253 0.48661 0.0
N113 N 1.02346 0.54086 0.53083 0.0
N114 N 0.0407 0.58725 0.45978 0.0
H115 H 0.98744 0.57844 0.37358 0.0
H116 H 0.99541 0.53937 0.34856 0.0
H117 H 0.95285 0.52847 0.39234 0.0
C118 C 0.98432 0.54977 0.38664 0.0
C119 C 0.83936 0.31649 0.55177 0.0
H120 H 0.86045 0.34033 0.58213 0.0
H121 H 0.81948 0.29071 0.57986 0.0
H122 H 0.85568 0.30737 0.52083 0.0
O123 O 0.91042 0.38386 0.50114 0.0
O124 O 0.9705 0.43288 0.51455 0.0
C125 C 0.91367 0.45247 0.61939 0.0
O126 O 0.94534 0.46237 0.40198 0.0
O127 O 0.88357 0.41602 0.40298 0.0
Zn128 Zn 0.57415 0.4826 0.49459 0.0
O129 O 0.54106 0.41899 0.48178 0.0
C130 C 0.60641 0.48545 0.37309 0.0
Zn131 Zn 0.62751 0.47617 0.498 0.0
C132 C 0.55844 0.39929 0.48799 0.0
O133 O 0.59507 0.41673 0.49598 0.0
C134 C 0.6492 0.55961 0.513 0.0
O135 O 0.6231 0.47302 0.59438 0.0
O136 O 0.56699 0.47286 0.58654 0.0
N137 N 0.67713 0.47206 0.49571 0.0
C138 C 0.71466 0.49582 0.51351 0.0
C139 C 0.71396 0.45237 0.4543 0.0
N140 N 0.67686 0.445 0.4594 0.0
N141 N 0.73831 0.48436 0.48713 0.0
C142 C 0.49125 0.46339 0.44273 0.0
C143 C 0.46678 0.48103 0.51411 0.0
N144 N 0.51964 0.48113 0.48616 0.0
N145 N 0.50403 0.49189 0.53042 0.0
N146 N 0.45772 0.46288 0.4592 0.0
H147 H 0.46662 0.41857 0.37285 0.0
H148 H 0.50565 0.46568 0.34802 0.0
H149 H 0.51658 0.43397 0.39165 0.0
C150 C 0.49526 0.44412 0.38601 0.0
C151 C 0.72842 0.53207 0.5515 0.0
H152 H 0.70458 0.52926 0.58189 0.0
H153 H 0.7542 0.53793 0.57958 0.0
H154 H 0.73753 0.55756 0.52067 0.0
O155 O 0.66109 0.5359 0.5011 0.0
O156 O 0.61207 0.54695 0.51453 0.0
C157 C 0.59238 0.47025 0.6189 0.0
O158 O 0.58263 0.49252 0.40156 0.0
O159 O 0.62903 0.47716 0.40253 0.0
Zn160 Zn 0.5688 0.16065 0.49848 0.0
O161 O 0.5715 0.15915 0.59488 0.0
C162 C 0.48533 0.09886 0.51258 0.0
Zn163 Zn 0.56239 0.10088 0.49501 0.0
C164 C 0.57426 0.13118 0.61941 0.0
O165 O 0.57183 0.10326 0.58704 0.0
C166 C 0.55997 0.13054 0.37352 0.0
O167 O 0.62601 0.13142 0.4827 0.0
O168 O 0.62823 0.18765 0.49724 0.0
N169 N 0.56389 0.04785 0.4865 0.0
C170 C 0.58173 0.0373 0.44314 0.0
C171 C 0.56388 0.99499 0.51429 0.0
N172 N 0.55299 0.02137 0.53061 0.0
N173 N 0.58217 1.00421 0.45952 0.0
C174 C 0.54905 0.22815 0.5135 0.0
C175 C 0.59302 0.27113 0.45523 0.0
N176 N 0.57294 0.21442 0.49627 0.0
N177 N 0.60032 0.24136 0.46055 0.0
N178 N 0.56076 0.26339 0.48733 0.0
H179 H 0.51508 0.18448 0.58135 0.0
H180 H 0.50635 0.2254 0.57846 0.0
H181 H 0.48729 0.1892 0.51934 0.0
C182 C 0.51249 0.20555 0.5507 0.0
C183 C 0.60116 0.06072 0.38661 0.0
H184 H 0.62672 0.05761 0.37359 0.0
H185 H 0.57971 0.04966 0.34846 0.0
H186 H 0.61133 0.09219 0.39241 0.0
O187 O 0.55274 0.09962 0.40197 0.0
O188 O 0.56825 0.16144 0.40298 0.0
C189 C 0.64569 0.16848 0.48929 0.0
O190 O 0.50906 0.13448 0.50085 0.0
O191 O 0.49802 0.0744 0.51437 0.0
Zn192 Zn 0.24077 0.43421 0.32763 0.0
O193 O 0.20762 0.46468 0.31505 0.0
C194 C 0.27304 0.46378 0.20614 0.0
Zn195 Zn 0.29409 0.49404 0.3311 0.0
C196 C 0.22498 0.50177 0.32127 0.0
O197 O 0.26161 0.52099 0.32919 0.0
C198 C 0.31587 0.43232 0.34578 0.0
O199 O 0.28965 0.49267 0.4275 0.0
O200 O 0.23361 0.43662 0.41959 0.0
N201 N 0.34367 0.54781 0.32895 0.0
C202 C 0.38123 0.5616 0.34658 0.0
C203 C 0.38041 0.60442 0.28769 0.0
N204 N 0.34333 0.57466 0.29284 0.0
N205 N 0.40482 0.59676 0.32029 0.0
C206 C 0.15792 0.37051 0.27569 0.0
C207 C 0.13349 0.32829 0.34697 0.0
N208 N 0.18631 0.38114 0.31909 0.0
N209 N 0.17074 0.35471 0.36329 0.0
N210 N 0.12441 0.33743 0.29211 0.0
H211 H 0.13323 0.3907 0.20592 0.0
H212 H 0.17233 0.38276 0.181 0.0
H213 H 0.18317 0.42533 0.22479 0.0
C214 C 0.1619 0.39385 0.21905 0.0
C215 C 0.39507 0.53908 0.38432 0.0
H216 H 0.3713 0.51803 0.41479 0.0
H217 H 0.42091 0.55899 0.41231 0.0
H218 H 0.40411 0.52273 0.35333 0.0
O219 O 0.32771 0.46795 0.33409 0.0
O220 O 0.27875 0.40781 0.34729 0.0
C221 C 0.25896 0.46464 0.45199 0.0
O222 O 0.24926 0.43291 0.23459 0.0
O223 O 0.29565 0.49468 0.23561 0.0
Zn224 Zn 0.61071 0.81595 0.32795 0.0
O225 O 0.58012 0.75232 0.31535 0.0
C226 C 0.58136 0.81866 0.20633 0.0
Zn227 Zn 0.55098 0.80962 0.33117 0.0
C228 C 0.54304 0.73267 0.32156 0.0
O229 O 0.52389 0.75017 0.3294 0.0
C230 C 0.61279 0.89304 0.34593 0.0
O231 O 0.55219 0.8066 0.42758 0.0
O232 O 0.6081 0.80633 0.41992 0.0
N233 N 0.49734 0.80565 0.32869 0.0
C234 C 0.48359 0.82937 0.34679 0.0
C235 C 0.44091 0.78625 0.28711 0.0
N236 N 0.47058 0.77879 0.29207 0.0
N237 N 0.44854 0.81809 0.3203 0.0
C238 C 0.67433 0.79654 0.27657 0.0
C239 C 0.71641 0.81428 0.34805 0.0
N240 N 0.66369 0.81438 0.31981 0.0
N241 N 0.69004 0.82521 0.36414 0.0
N242 N 0.70733 0.79603 0.29323 0.0
H243 H 0.65413 0.75158 0.20692 0.0
H244 H 0.66229 0.79868 0.18177 0.0
H245 H 0.61961 0.7671 0.22538 0.0
C246 C 0.65107 0.77719 0.21986 0.0
C247 C 0.50608 0.86545 0.38515 0.0
H248 H 0.48616 0.87116 0.41347 0.0
H249 H 0.52243 0.89108 0.35458 0.0
H250 H 0.52714 0.86251 0.41532 0.0
O251 O 0.57718 0.86935 0.33404 0.0
O252 O 0.63721 0.88032 0.34764 0.0
C253 C 0.58011 0.80381 0.45219 0.0
O254 O 0.6122 0.82575 0.23488 0.0
O255 O 0.55047 0.81046 0.2357 0.0
Zn256 Zn 0.22908 0.80418 0.32908 0.0
O257 O 0.29269 0.83726 0.31663 0.0
C258 C 0.22663 0.77199 0.20769 0.0
Zn259 Zn 0.23548 0.75081 0.33273 0.0
C260 C 0.31237 0.8199 0.32347 0.0
O261 O 0.29491 0.78328 0.3316 0.0
C262 C 0.15202 0.72914 0.34674 0.0
O263 O 0.23811 0.75505 0.42908 0.0
O264 O 0.23858 0.81134 0.42111 0.0
N265 N 0.23963 0.70118 0.33064 0.0
C266 C 0.21569 0.66352 0.34766 0.0
C267 C 0.25983 0.66462 0.28972 0.0
N268 N 0.26713 0.70169 0.29512 0.0
N269 N 0.22748 0.64004 0.32157 0.0
C270 C 0.24839 0.88705 0.27692 0.0
C271 C 0.23062 0.91162 0.348 0.0
N272 N 0.23059 0.85871 0.32038 0.0
N273 N 0.21975 0.87437 0.36445 0.0
N274 N 0.24886 0.92061 0.29318 0.0
H275 H 0.2933 0.91163 0.20722 0.0
H276 H 0.24626 0.87249 0.1823 0.0
H277 H 0.27796 0.8617 0.22627 0.0
C278 C 0.26777 0.88298 0.22038 0.0
C279 C 0.17902 0.64948 0.38462 0.0
H280 H 0.18154 0.67308 0.41535 0.0
H281 H 0.1728 0.62343 0.41227 0.0
H282 H 0.15391 0.6407 0.3531 0.0
O283 O 0.17574 0.71724 0.335 0.0
O284 O 0.16472 0.76629 0.34854 0.0
C285 C 0.24094 0.78582 0.45355 0.0
O286 O 0.21936 0.79566 0.23608 0.0
O287 O 0.23499 0.74945 0.23722 0.0
Zn288 Zn 0.55077 0.75073 0.83131 0.0
O289 O 0.55232 0.75504 0.92771 0.0
C290 C 0.61253 0.729 0.84554 0.0
Zn291 Zn 0.61055 0.80408 0.82783 0.0
C292 C 0.58033 0.78575 0.95222 0.0
O293 O 0.60825 0.8112 0.91983 0.0
C294 C 0.58084 0.77191 0.70634 0.0
O295 O 0.58005 0.83722 0.81549 0.0
O296 O 0.52381 0.7832 0.82987 0.0
N297 N 0.66358 0.85857 0.81926 0.0
C298 C 0.67415 0.88697 0.77588 0.0
C299 C 0.71647 0.9114 0.84703 0.0
N300 N 0.69008 0.87415 0.86338 0.0
N301 N 0.70725 0.92048 0.79224 0.0
C302 C 0.48328 0.6635 0.84654 0.0
C303 C 0.44033 0.66443 0.78811 0.0
N304 N 0.49701 0.70111 0.82918 0.0
N305 N 0.47008 0.70151 0.79335 0.0
N306 N 0.44806 0.63994 0.82036 0.0
H307 H 0.52696 0.67329 0.91446 0.0
H308 H 0.48603 0.62364 0.91175 0.0
H309 H 0.5222 0.64064 0.85265 0.0
C310 C 0.50588 0.64957 0.8839 0.0
C311 C 0.65073 0.88299 0.71933 0.0
H312 H 0.65388 0.91167 0.70625 0.0
H313 H 0.66174 0.87253 0.68121 0.0
H314 H 0.61927 0.86173 0.72516 0.0
O315 O 0.61174 0.79563 0.73479 0.0
O316 O 0.54996 0.74929 0.7358 0.0
C317 C 0.54299 0.81985 0.82197 0.0
O318 O 0.57691 0.71712 0.83384 0.0
O319 O 0.63699 0.76613 0.84724 0.0
Zn320 Zn 0.24074 0.81587 0.82923 0.0
O321 O 0.20769 0.75225 0.81663 0.0
C322 C 0.27276 0.81849 0.70772 0.0
Zn323 Zn 0.2941 0.80948 0.83264 0.0
C324 C 0.22507 0.73257 0.82314 0.0
O325 O 0.2617 0.75003 0.83114 0.0
C326 C 0.31574 0.89293 0.84708 0.0
O327 O 0.28995 0.80663 0.92901 0.0
O328 O 0.23373 0.80628 0.92121 0.0
N329 N 0.34373 0.80541 0.83021 0.0
C330 C 0.38132 0.82925 0.84765 0.0
C331 C 0.38044 0.78556 0.78882 0.0
N332 N 0.34336 0.77819 0.79413 0.0
N333 N 0.40489 0.81769 0.82127 0.0
C334 C 0.15776 0.7965 0.77761 0.0
C335 C 0.13336 0.81424 0.84898 0.0
N336 N 0.18621 0.81433 0.82093 0.0
N337 N 0.17065 0.82515 0.86519 0.0
N338 N 0.12424 0.79599 0.79414 0.0
H339 H 0.13307 0.75156 0.70793 0.0
H340 H 0.17203 0.79865 0.68286 0.0
H341 H 0.18307 0.76704 0.72656 0.0
C342 C 0.16172 0.77715 0.72094 0.0
C343 C 0.39521 0.86566 0.88529 0.0
H344 H 0.37148 0.86294 0.91585 0.0
H345 H 0.4211 0.87164 0.91317 0.0
H346 H 0.40417 0.89101 0.85423 0.0
O347 O 0.32763 0.86922 0.83525 0.0
O348 O 0.27861 0.88024 0.84885 0.0
C349 C 0.25922 0.80382 0.95356 0.0
O350 O 0.24908 0.82567 0.73621 0.0
O351 O 0.29538 0.81018 0.73714 0.0
Zn352 Zn 0.23535 0.49389 0.83106 0.0
O353 O 0.23845 0.49254 0.92744 0.0
C354 C 0.15191 0.43215 0.84581 0.0
Zn355 Zn 0.22892 0.43409 0.8276 0.0
C356 C 0.2412 0.46457 0.95195 0.0
O357 O 0.23859 0.43656 0.91959 0.0
C358 C 0.22615 0.46363 0.70611 0.0
O359 O 0.29252 0.46461 0.81493 0.0
O360 O 0.29478 0.52089 0.8292 0.0
N361 N 0.23037 0.38104 0.8191 0.0
C362 C 0.24813 0.37041 0.77569 0.0
C363 C 0.23044 0.32822 0.84701 0.0
N364 N 0.21958 0.35463 0.86332 0.0
N365 N 0.24861 0.33735 0.79214 0.0
C366 C 0.21573 0.56138 0.84686 0.0
C367 C 0.25905 0.60416 0.78757 0.0
N368 N 0.23945 0.54761 0.82889 0.0
N369 N 0.26644 0.57443 0.79252 0.0
N370 N 0.22713 0.59651 0.82054 0.0
H371 H 0.1824 0.51778 0.91518 0.0
H372 H 0.17378 0.55878 0.91321 0.0
H373 H 0.15401 0.52255 0.8542 0.0
C374 C 0.17955 0.53887 0.88495 0.0
C375 C 0.26743 0.39373 0.71903 0.0
H376 H 0.29296 0.39061 0.70591 0.0
H377 H 0.24589 0.3826 0.681 0.0
H378 H 0.27759 0.42521 0.72474 0.0
O379 O 0.21906 0.43275 0.73455 0.0
O380 O 0.23443 0.49452 0.73559 0.0
C381 C 0.31222 0.5017 0.82122 0.0
O382 O 0.17565 0.46776 0.83402 0.0
O383 O 0.16456 0.40766 0.84737 0.0
Zn384 Zn 0.90731 0.76731 0.66297 0.0
O385 O 0.87424 0.79784 0.65025 0.0
C386 C 0.93953 0.79688 0.54157 0.0
Zn387 Zn 0.96066 0.8271 0.66655 0.0
C388 C 0.89159 0.8349 0.65688 0.0
O389 O 0.9282 0.85408 0.66504 0.0
C390 C 0.98232 0.76531 0.68101 0.0
O391 O 0.95638 0.82566 0.76289 0.0
O392 O 0.90015 0.7698 0.75497 0.0
N393 N 1.01027 0.88089 0.66434 0.0
C394 C 0.04793 0.89464 0.68138 0.0
C395 C 0.04678 0.93761 0.62325 0.0
N396 N 1.00973 0.90784 0.62871 0.0
N397 N 0.07138 0.92987 0.65517 0.0
C398 C 0.82444 0.70372 0.61086 0.0
C399 C 0.79986 0.66147 0.68206 0.0
N400 N 0.85278 0.71429 0.65436 0.0
N401 N 0.8371 0.68784 0.69851 0.0
N402 N 0.79088 0.67067 0.62717 0.0
H403 H 0.79991 0.72404 0.54102 0.0
H404 H 0.83897 0.716 0.51621 0.0
H405 H 0.84984 0.75857 0.56 0.0
C406 C 0.82854 0.72711 0.55423 0.0
C407 C 0.062 0.87205 0.71845 0.0
H408 H 0.03844 0.85105 0.74928 0.0
H409 H 0.08809 0.89193 0.746 0.0
H410 H 0.07071 0.85564 0.68701 0.0
O411 O 0.99421 0.80093 0.6692 0.0
O412 O 0.94519 0.74085 0.68271 0.0
C413 C 0.92562 0.79773 0.78737 0.0
O414 O 0.91583 0.76597 0.56999 0.0
O415 O 0.96207 0.8278 0.57106 0.0
Zn416 Zn 0.27721 0.149 0.66079 0.0
O417 O 0.24671 0.08534 0.64834 0.0
C418 C 0.24766 0.15164 0.53923 0.0
Zn419 Zn 0.21741 0.14254 0.66415 0.0
C420 C 0.20963 0.06565 0.65451 0.0
O421 O 0.19044 0.08309 0.66231 0.0
C422 C 0.27914 0.22603 0.67876 0.0
O423 O 0.21879 0.13951 0.76057 0.0
O424 O 0.27481 0.13949 0.75275 0.0
N425 N 0.16368 0.1384 0.66191 0.0
C426 C 0.14991 0.16218 0.67963 0.0
C427 C 0.10711 0.11864 0.62058 0.0
N428 N 0.13685 0.11128 0.62569 0.0
N429 N 0.11477 0.15067 0.65329 0.0
C430 C 0.34088 0.12977 0.60906 0.0
C431 C 0.38308 0.1476 0.68038 0.0
N432 N 0.33025 0.14757 0.65238 0.0
N433 N 0.35667 0.15845 0.69661 0.0
N434 N 0.37395 0.12935 0.62556 0.0
H435 H 0.28608 0.10016 0.55813 0.0
H436 H 0.32071 0.08484 0.53937 0.0
H437 H 0.32863 0.13187 0.51434 0.0
C438 C 0.31755 0.11037 0.55242 0.0
C439 C 0.17242 0.19848 0.71749 0.0
H440 H 0.19348 0.19571 0.74789 0.0
H441 H 0.15252 0.20437 0.74555 0.0
H442 H 0.18876 0.22393 0.68658 0.0
O443 O 0.24352 0.20227 0.66705 0.0
O444 O 0.30363 0.21339 0.68034 0.0
C445 C 0.24682 0.13686 0.78511 0.0
O446 O 0.27851 0.15872 0.56773 0.0
O447 O 0.21677 0.14341 0.56865 0.0
Zn448 Zn 0.89556 0.13726 0.66093 0.0
O449 O 0.95918 0.17031 0.64847 0.0
C450 C 0.893 0.10517 0.5394 0.0
Zn451 Zn 0.9019 0.08387 0.66434 0.0
C452 C 0.97882 0.15288 0.65493 0.0
O453 O 0.96133 0.11624 0.66287 0.0
C454 C 0.81848 0.06225 0.67872 0.0
O455 O 0.90476 0.0881 0.76073 0.0
O456 O 0.9051 0.14432 0.75294 0.0
N457 N 0.90591 0.0342 0.66208 0.0
C458 C 0.88214 0.9967 0.68004 0.0
C459 C 0.92546 0.99721 0.6208 0.0
N460 N 0.93289 0.03434 0.62574 0.0
N461 N 0.89351 0.97295 0.65374 0.0
C462 C 0.91493 0.22026 0.60928 0.0
C463 C 0.89715 0.24466 0.68061 0.0
N464 N 0.8971 0.19181 0.65258 0.0
N465 N 0.88625 0.20737 0.6968 0.0
N466 N 0.91541 0.25378 0.62581 0.0
H467 H 0.95987 0.24498 0.53966 0.0
H468 H 0.91282 0.20597 0.51454 0.0
H469 H 0.94444 0.19497 0.55833 0.0
C470 C 0.93431 0.21631 0.55265 0.0
C471 C 0.84595 0.98307 0.71807 0.0
H472 H 0.84879 1.00702 0.74825 0.0
H473 H 0.84013 0.95738 0.74636 0.0
H474 H 0.82043 0.97384 0.68727 0.0
O475 O 0.84217 0.05033 0.66692 0.0
O476 O 0.8312 0.0994 0.68046 0.0
C477 C 0.90756 0.11884 0.78529 0.0
O478 O 0.88584 0.12889 0.56786 0.0
O479 O 0.90122 0.0825 0.56886 0.0
Zn480 Zn 0.21766 0.0839 0.16414 0.0
O481 O 0.21897 0.08829 0.26052 0.0
C482 C 0.27943 0.06226 0.17901 0.0
Zn483 Zn 0.2774 0.1373 0.16077 0.0
C484 C 0.24692 0.11903 0.28507 0.0
O485 O 0.2749 0.14446 0.25274 0.0
C486 C 0.24792 0.10504 0.03923 0.0
O487 O 0.24685 0.17035 0.14806 0.0
O488 O 0.19061 0.11629 0.16225 0.0
N489 N 0.33042 0.19183 0.15237 0.0
C490 C 0.34105 0.22025 0.109 0.0
C491 C 0.3832 0.2447 0.18038 0.0
N492 N 0.35681 0.20743 0.19663 0.0
N493 N 0.37408 0.25378 0.12551 0.0
C494 C 0.15024 0.99677 0.18005 0.0
C495 C 0.10749 0.99718 0.1205 0.0
N496 N 0.16398 0.03423 0.16189 0.0
N497 N 0.13719 0.03432 0.12536 0.0
N498 N 0.11515 0.97297 0.15369 0.0
H499 H 0.19385 1.0072 0.24847 0.0
H500 H 0.15287 0.95757 0.24672 0.0
H501 H 0.18907 0.97388 0.18773 0.0
C502 C 0.17276 0.98319 0.21835 0.0
C503 C 0.31774 0.21625 0.05231 0.0
H504 H 0.28628 0.19492 0.05795 0.0
H505 H 0.32084 0.24491 0.03922 0.0
H506 H 0.3289 0.20588 0.01428 0.0
O507 O 0.27878 0.12883 0.06772 0.0
O508 O 0.21704 0.08238 0.06868 0.0
C509 C 0.20977 0.15293 0.1543 0.0
O510 O 0.24383 0.05034 0.16713 0.0
O511 O 0.30387 0.09941 0.1806 0.0
Zn512 Zn 0.90752 0.14905 0.16097 0.0
O513 O 0.87437 0.08539 0.14863 0.0
C514 C 0.93956 0.15156 0.03942 0.0
Zn515 Zn 0.96085 0.14259 0.16434 0.0
C516 C 0.89175 0.06569 0.15491 0.0
O517 O 0.92839 0.08314 0.16273 0.0
C518 C 0.98259 0.22609 0.17875 0.0
O519 O 0.95659 0.1397 0.26077 0.0
O520 O 0.9005 0.1396 0.25294 0.0
N521 N 1.01044 0.13843 0.16206 0.0
C522 C 0.04803 0.16226 0.17951 0.0
C523 C 0.04712 0.11849 0.12082 0.0
N524 N 1.01005 0.11117 0.12607 0.0
N525 N 0.07159 0.15064 0.15322 0.0
C526 C 0.82458 0.12977 0.10929 0.0
C527 C 0.80026 0.14765 0.18057 0.0
N528 N 0.85304 0.14761 0.15259 0.0
N529 N 0.83753 0.15852 0.19679 0.0
N530 N 0.7911 0.12935 0.12579 0.0
H531 H 0.7998 0.08477 0.0397 0.0
H532 H 0.83885 0.13179 0.01457 0.0
H533 H 0.84976 0.10013 0.05841 0.0
C534 C 0.82848 0.11032 0.0527 0.0
C535 C 0.06194 0.19871 0.21705 0.0
H536 H 0.03822 0.19603 0.24761 0.0
H537 H 0.08785 0.20473 0.24492 0.0
H538 H 0.07089 0.22403 0.18592 0.0
O539 O 0.99445 0.20233 0.16703 0.0
O540 O 0.94547 0.21344 0.18041 0.0
C541 C 0.92592 0.13704 0.28531 0.0
O542 O 0.91585 0.1587 0.06792 0.0
O543 O 0.96222 0.14332 0.06883 0.0
Zn544 Zn 0.90215 0.82712 0.16657 0.0
O545 O 0.90491 0.82561 0.26291 0.0
C546 C 0.81869 0.76534 0.18073 0.0
Zn547 Zn 0.89572 0.76734 0.16295 0.0
C548 C 0.90773 0.79766 0.28739 0.0
O549 O 0.9053 0.76975 0.25498 0.0
C550 C 0.89316 0.79699 0.04155 0.0
O551 O 0.95933 0.79787 0.15039 0.0
O552 O 0.96158 0.8541 0.16526 0.0
N553 N 0.89722 0.71431 0.15433 0.0
C554 C 0.915 0.70375 0.11088 0.0
C555 C 0.89728 0.66146 0.18204 0.0
N556 N 0.88641 0.68783 0.19846 0.0
N557 N 0.91549 0.67067 0.1272 0.0
C558 C 0.88241 0.89464 0.1815 0.0
C559 C 0.92646 0.93762 0.12335 0.0
N560 N 0.90632 0.8809 0.1644 0.0
N561 N 0.93376 0.90785 0.12875 0.0
N562 N 0.89417 0.92988 0.15533 0.0
H563 H 0.84838 0.851 0.24936 0.0
H564 H 0.83965 0.89192 0.24629 0.0
H565 H 0.82065 0.85568 0.18722 0.0
C566 C 0.84581 0.87205 0.21863 0.0
C567 C 0.93434 0.72716 0.05429 0.0
H568 H 0.95988 0.72406 0.04114 0.0
H569 H 0.91282 0.71609 0.01623 0.0
H570 H 0.94451 0.75863 0.06011 0.0
O571 O 0.88592 0.76606 0.06995 0.0
O572 O 0.90154 0.8279 0.07106 0.0
C573 C 0.97902 0.83492 0.15713 0.0
O574 O 0.84244 0.80097 0.16901 0.0
O575 O 0.83136 0.74087 0.18249 0.0
C576 C 0.53521 0.20729 0.9346 0.0
C577 C 0.53814 0.19091 -0.0102 0.0
H578 H 0.54003 0.25833 0.89111 0.0
C579 C 0.53848 0.20919 0.04517 0.0
H580 H 0.536 0.1942 0.8914 0.0
C581 C 0.54158 0.24615 0.045 0.0
C582 C 0.54384 0.26485 -0.01058 0.0
H583 H 0.54189 0.1975 0.08817 0.0
H584 H 0.54696 0.2619 0.08775 0.0
C585 C 0.53813 0.24417 0.93445 0.0
C586 C 0.79896 0.30455 0.04453 0.0
C587 C 0.78013 0.28814 -0.011 0.0
H588 H 0.84768 0.35346 0.08762 0.0
C589 C 0.80068 0.30319 0.93396 0.0
H590 H 0.78331 0.29414 0.08734 0.0
C591 C 0.83755 0.33715 0.93402 0.0
C592 C 0.85405 0.3564 -0.0108 0.0
H593 H 0.78642 0.29094 0.89065 0.0
H594 H 0.85052 0.35106 0.89078 0.0
C595 C 0.83591 0.33841 0.04461 0.0
C596 C 0.7065 0.50669 0.04464 0.0
C597 C 0.68857 0.50695 -0.01079 0.0
H598 H 0.7507 0.49825 0.08741 0.0
C599 C 0.70786 0.50977 0.93406 0.0
H600 H 0.69141 0.50335 0.0876 0.0
C601 C 0.74181 0.50684 0.93404 0.0
C602 C 0.75679 0.50122 -0.01091 0.0
H603 H 0.69399 0.50891 0.89081 0.0
H604 H 0.75408 0.50487 0.89075 0.0
C605 C 0.74034 0.50357 0.0446 0.0
C606 C 0.79874 0.50341 0.54475 0.0
C607 C 0.78009 0.50123 0.48914 0.0
H608 H 0.84731 0.50304 0.588 0.0
C609 C 0.80081 0.50697 0.43421 0.0
H610 H 0.78295 0.49797 0.58746 0.0
C611 C 0.83768 0.50988 0.43443 0.0
C612 C 0.854 0.50689 0.48964 0.0
H613 H 0.78669 0.50514 0.39085 0.0
H614 H 0.85078 0.50912 0.39123 0.0
C615 C 0.83568 0.50651 0.54498 0.0
C616 C 0.54116 0.30462 0.54416 0.0
C617 C 0.54383 0.28826 0.48874 0.0
H618 H 0.54112 0.35347 0.58701 0.0
C619 C 0.53849 0.30332 0.43356 0.0
H620 H 0.54626 0.29419 0.58707 0.0
C621 C 0.53553 0.33725 0.43342 0.0
C622 C 0.53804 0.35646 0.48854 0.0
H623 H 0.5407 0.29111 0.39034 0.0
H624 H 0.53662 0.35118 0.39013 0.0
C625 C 0.53801 0.33844 0.54404 0.0
C626 C 0.70781 0.20723 0.43482 0.0
C627 C 0.6885 0.19091 0.49001 0.0
H628 H 0.75406 0.25823 0.39129 0.0
C629 C 0.70645 0.20921 0.54537 0.0
H630 H 0.69393 0.19412 0.39161 0.0
C631 C 0.74032 0.24614 0.54519 0.0
C632 C 0.75677 0.26481 0.4896 0.0
H633 H 0.69134 0.19756 0.58837 0.0
H634 H 0.75069 0.26192 0.58793 0.0
C635 C 0.74178 0.24409 0.43465 0.0
C636 C 0.2052 0.578 0.26735 0.0
C637 C 0.21046 0.59822 0.32268 0.0
H638 H 0.20333 0.52836 0.22356 0.0
C639 C 0.20765 0.579 0.37796 0.0
H640 H 0.20752 0.59256 0.22424 0.0
C641 C 0.20445 0.542 0.37757 0.0
C642 C 0.20456 0.52418 0.32195 0.0
H643 H 0.21267 0.5944 0.42099 0.0
H644 H 0.20745 0.52992 0.42046 0.0
C645 C 0.20217 0.54107 0.26695 0.0
C646 C 0.50238 0.67194 0.37764 0.0
C647 C 0.52057 0.68985 0.32221 0.0
H648 H 0.44975 0.62777 0.42039 0.0
C649 C 0.50408 0.67055 0.26706 0.0
H650 H 0.51416 0.68704 0.42061 0.0
C651 C 0.46719 0.63661 0.26702 0.0
C652 C 0.44661 0.62165 0.32206 0.0
H653 H 0.51709 0.68441 0.22382 0.0
H654 H 0.45295 0.62433 0.22372 0.0
C655 C 0.46542 0.63811 0.37758 0.0
C656 C 0.40851 0.84086 0.26814 0.0
C657 C 0.42357 0.83489 0.32283 0.0
H658 H 0.36059 0.84308 0.22562 0.0
C659 C 0.40709 0.8367 0.37862 0.0
H660 H 0.42081 0.8393 0.22463 0.0
C661 C 0.37317 0.83966 0.37921 0.0
C662 C 0.35519 0.84029 0.32404 0.0
H663 H 0.4175 0.83108 0.42114 0.0
H664 H 0.35808 0.83593 0.4223 0.0
C665 C 0.37449 0.84365 0.2687 0.0
C666 C 0.5025 0.84003 0.87825 0.0
C667 C 0.52059 0.84027 0.82275 0.0
H668 H 0.44995 0.83165 0.9212 0.0
C669 C 0.50405 0.8431 0.76767 0.0
H670 H 0.51432 0.83669 0.92117 0.0
C671 C 0.46719 0.8402 0.76778 0.0
C672 C 0.44669 0.83461 0.8229 0.0
H673 H 0.51699 0.84223 0.72437 0.0
H674 H 0.45289 0.83824 0.72454 0.0
C675 C 0.46556 0.83696 0.87834 0.0
C676 C 0.20443 0.63647 0.76799 0.0
C677 C 0.21028 0.62144 0.8228 0.0
H678 H 0.20223 0.68436 0.72527 0.0
C679 C 0.20825 0.63789 0.87851 0.0
H680 H 0.20616 0.6242 0.72455 0.0
C681 C 0.2052 0.67177 0.87893 0.0
C682 C 0.20469 0.68974 0.82369 0.0
H683 H 0.21376 0.62749 0.92112 0.0
H684 H 0.20877 0.68685 0.922 0.0
C685 C 0.20156 0.67046 0.7684 0.0
C686 C 0.37302 0.5422 0.87726 0.0
C687 C 0.35503 0.52413 0.82179 0.0
H688 H 0.41724 0.59475 0.92023 0.0
C689 C 0.37425 0.54077 0.76666 0.0
H690 H 0.35798 0.53031 0.92023 0.0
C691 C 0.40817 0.57767 0.76675 0.0
C692 C 0.4232 0.59813 0.82189 0.0
H693 H 0.36034 0.52786 0.72339 0.0
H694 H 0.42038 0.59203 0.7235 0.0
C695 C 0.40684 0.57917 0.87733 0.0
C696 C 0.87465 0.91276 0.7119 0.0
C697 C 0.87669 0.93117 0.65612 0.0
H698 H 0.87522 0.8644 0.75561 0.0
C699 C 0.87088 0.91023 0.60138 0.0
H700 H 0.88014 0.92872 0.75446 0.0
C701 C 0.86805 0.87339 0.60194 0.0
C702 C 0.87119 0.85732 0.65731 0.0
H703 H 0.87261 0.92418 0.55788 0.0
H704 H 0.86875 0.86012 0.55887 0.0
C705 C 0.87164 0.87585 0.71248 0.0
C706 C 0.17028 1.00349 0.60039 0.0
C707 C 0.18722 0.02282 0.65534 0.0
H708 H 0.11879 0.95731 0.55777 0.0
C709 C 0.16944 1.00494 0.711 0.0
H710 H 0.18297 1.01731 0.55698 0.0
C711 C 0.13244 0.97115 0.71147 0.0
C712 C 0.11319 0.95469 0.65623 0.0
H713 H 0.18156 0.02007 0.75385 0.0
H714 H 0.11709 0.96083 0.75453 0.0
C715 C 0.13337 0.96959 0.60087 0.0
C716 C 0.04091 0.17617 0.60042 0.0
C717 C 1.02163 0.17324 0.65561 0.0
H718 H 0.08713 0.17137 0.55691 0.0
C719 C 0.03958 0.17288 0.71098 0.0
H720 H 0.02703 0.17539 0.55721 0.0
C721 C 0.07342 0.16979 0.7108 0.0
C722 C 0.08986 0.16755 0.65522 0.0
H723 H 1.02449 0.16947 0.75398 0.0
H724 H 0.08379 0.16439 0.75355 0.0
C725 C 0.07487 0.17325 0.60026 0.0
C726 C 0.17075 0.17598 0.09976 0.0
C727 C 0.18732 0.1733 0.15491 0.0
H728 H 0.11957 0.17097 0.05649 0.0
C729 C 0.16923 0.17317 0.21035 0.0
H730 H 0.1837 0.17502 0.05651 0.0
C731 C 0.13227 0.17003 0.21035 0.0
C732 C 0.11338 0.16755 0.15486 0.0
H733 H 0.18106 0.16994 0.25333 0.0
H734 H 0.11666 0.16481 0.2532 0.0
C735 C 0.13388 0.17304 0.09977 0.0
C736 C 0.87449 0.97118 0.21178 0.0
C737 C 0.87717 0.9547 0.15649 0.0
H738 H 0.87442 0.02012 0.25425 0.0
C739 C 0.87181 0.9696 0.10118 0.0
H740 H 0.87959 0.96084 0.25479 0.0
C741 C 0.86881 1.00352 0.10078 0.0
C742 C 0.87133 0.02287 0.15575 0.0
H743 H 0.87402 0.9573 0.05806 0.0
H744 H 0.86988 1.01734 0.05738 0.0
C745 C 0.87131 1.00499 0.21139 0.0
C746 C 0.07378 0.9129 0.21207 0.0
C747 C 0.09018 0.9312 0.15624 0.0
H748 H 1.02486 0.86464 0.25588 0.0
C749 C 0.07507 0.91015 0.10158 0.0
H750 H 0.08424 0.92895 0.25457 0.0
C751 C 0.04106 0.87331 0.10223 0.0
C752 C 1.02184 0.85736 0.15762 0.0
H753 H 0.0873 0.92401 0.05805 0.0
H754 H 0.02711 0.85995 0.05919 0.0
C755 C 0.03989 0.876 0.21274 0.0
C756 C 0.59159 0.16715 0.27842 0.0
C757 C 0.56508 0.13179 0.30734 0.0
H758 H 0.6222 0.19458 0.19572 0.0
C759 C 0.54784 0.09663 0.27418 0.0
H760 H 0.60573 0.19456 0.30355 0.0
C761 C 0.5574 0.09663 0.21317 0.0
C762 C 0.58465 0.13175 0.18451 0.0
H763 H 0.52755 0.06898 0.29576 0.0
H764 H 0.54376 0.06899 0.18865 0.0
C765 C 0.60157 0.16709 0.21731 0.0
C766 C 0.94834 0.46028 0.27417 0.0
C767 C 0.9132 0.44239 0.30732 0.0
H768 H 0.97594 0.48375 0.18859 0.0
C769 C 0.87783 0.43345 0.27833 0.0
H770 H 0.97599 0.46771 0.2958 0.0
C771 C 0.87787 0.44341 0.21717 0.0
C772 C 0.91319 0.46182 0.18438 0.0
H773 H 0.85043 0.42019 0.30344 0.0
H774 H 0.85037 0.4365 0.19554 0.0
C775 C 0.94831 0.46975 0.2131 0.0
C776 C 0.61161 0.45399 0.27795 0.0
C777 C 0.6026 0.48039 0.30688 0.0
H778 H 0.60856 0.42341 0.19526 0.0
C779 C 0.58457 0.4975 0.27371 0.0
H780 H 0.62498 0.43995 0.30308 0.0
C781 C 0.57503 0.48791 0.21267 0.0
C782 C 0.58303 0.46074 0.18402 0.0
H783 H 0.57708 0.51769 0.29529 0.0
H784 H 0.56093 0.50143 0.18813 0.0
C785 C 0.60158 0.44397 0.21684 0.0
C786 C 0.94846 0.49738 0.77415 0.0
C787 C 0.91332 0.48021 0.80729 0.0
H788 H 0.97605 0.50137 0.68861 0.0
C789 C 0.87793 0.45376 0.77834 0.0
H790 H 0.97612 0.51761 0.79575 0.0
C791 C 0.87796 0.44375 0.71724 0.0
C792 C 0.91328 0.46058 0.68445 0.0
H793 H 0.85054 0.43968 0.80345 0.0
H794 H 0.85045 0.42316 0.69563 0.0
C795 C 0.94842 0.4878 0.71313 0.0
C796 C 0.60121 0.44331 0.71679 0.0
C797 C 0.58427 0.4617 0.68395 0.0
H798 H 0.60546 0.42011 0.80309 0.0
C799 C 0.55704 0.46958 0.71263 0.0
H800 H 0.62183 0.43643 0.6952 0.0
C801 C 0.54754 0.4601 0.77368 0.0
C802 C 0.56483 0.44225 0.80688 0.0
H803 H 0.54338 0.48356 0.68809 0.0
H804 H 0.5273 0.4675 0.79526 0.0
C805 C 0.59129 0.43334 0.77793 0.0
C806 C 0.58428 0.0964 0.77423 0.0
C807 C 0.60229 0.13156 0.80736 0.0
H808 H 0.56067 0.06878 0.68867 0.0
C809 C 0.61124 0.16696 0.77841 0.0
H810 H 0.57683 0.06873 0.79583 0.0
C811 C 0.6012 0.16692 0.7173 0.0
C812 C 0.58271 0.13158 0.6845 0.0
H813 H 0.62458 0.19437 0.80352 0.0
H814 H 0.60816 0.19443 0.69568 0.0
C815 C 0.57473 0.09643 0.7132 0.0
C816 C 0.22366 0.42984 0.54568 0.0
C817 C 0.25081 0.46502 0.51704 0.0
H818 H 0.1939 0.40208 0.62828 0.0
C819 C 0.26758 0.50034 0.54987 0.0
H820 H 0.21013 0.40221 0.52114 0.0
C821 C 0.25758 0.50033 0.61099 0.0
C822 C 0.2312 0.46491 0.63991 0.0
H823 H 0.28813 0.52788 0.52831 0.0
H824 H 0.27162 0.52773 0.63613 0.0
C825 C 0.21408 0.42977 0.60671 0.0
C826 C 0.54432 0.77689 0.55003 0.0
C827 C 0.57965 0.79528 0.51727 0.0
H828 H 0.51684 0.75364 0.63627 0.0
C829 C 0.61474 0.80311 0.54599 0.0
H830 H 0.51684 0.77005 0.5284 0.0
C831 C 0.61473 0.79357 0.60702 0.0
C832 C 0.57959 0.77571 0.64015 0.0
H833 H 0.64238 0.81709 0.5215 0.0
H834 H 0.64237 0.80093 0.62864 0.0
C835 C 0.54424 0.76687 0.61117 0.0
C836 C 0.27784 0.78696 0.61258 0.0
C837 C 0.26892 0.81342 0.64153 0.0
H838 H 0.27475 0.75641 0.52984 0.0
C839 C 0.25097 0.83063 0.60837 0.0
H840 H 0.29113 0.77285 0.6377 0.0
C841 C 0.24146 0.8211 0.54732 0.0
C842 C 0.24939 0.79389 0.51864 0.0
H843 H 0.24355 0.85087 0.62997 0.0
H844 H 0.22745 0.83471 0.52277 0.0
C845 C 0.26783 0.777 0.55145 0.0
C846 C 0.54467 0.77716 0.05007 0.0
C847 C 0.57999 0.79385 0.0173 0.0
H848 H 0.51728 0.77325 0.13626 0.0
C849 C 0.61518 0.82092 0.046 0.0
H850 H 0.51712 0.75669 0.02845 0.0
C851 C 0.61526 0.83053 0.10703 0.0
C852 C 0.58012 0.81354 0.14014 0.0
H853 H 0.6428 0.83438 0.02149 0.0
H854 H 0.64296 0.85067 0.12863 0.0
C855 C 0.54469 0.7872 0.11117 0.0
C856 C 0.22384 0.80307 0.04727 0.0
C857 C 0.25117 0.79532 0.01863 0.0
H858 H 0.19398 0.80083 0.12986 0.0
C859 C 0.2682 0.77703 0.05148 0.0
H860 H 0.21011 0.81697 0.02272 0.0
C861 C 0.25827 0.76702 0.11262 0.0
C862 C 0.23169 0.77578 0.14151 0.0
H863 H 0.28889 0.77025 0.02992 0.0
H864 H 0.2725 0.75386 0.13779 0.0
C865 C 0.21432 0.79355 0.1083 0.0
C866 C 0.24185 0.42987 0.04572 0.0
C867 C 0.24977 0.465 0.01701 0.0
H868 H 0.24392 0.4022 0.12839 0.0
C869 C 0.26823 0.50034 0.0498 0.0
H870 H 0.22782 0.40222 0.0212 0.0
C871 C 0.27823 0.5004 0.11094 0.0
C872 C 0.26928 0.46502 0.13993 0.0
H873 H 0.27514 0.52785 0.02819 0.0
H874 H 0.29151 0.52781 0.13606 0.0
C875 C 0.25136 0.42986 0.10677 0.0
C876 C 0.93458 0.83351 0.88528 0.0
C877 C 0.91754 0.79817 0.85244 0.0
H878 H 0.93893 0.86098 0.97157 0.0
C879 C 0.89023 0.76308 0.8811 0.0
H880 H 0.95526 0.86098 0.86369 0.0
C881 C 0.88076 0.76309 0.94216 0.0
C882 C 0.89815 0.79824 0.97535 0.0
H883 H 0.8765 0.73545 0.85655 0.0
H884 H 0.86045 0.73546 0.96374 0.0
C885 C 0.92469 0.83358 0.94642 0.0
C886 C 0.21116 0.10976 0.88298 0.0
C887 C 0.24647 0.12837 0.85018 0.0
H888 H 0.1838 0.08634 0.96922 0.0
C889 C 0.28166 0.13647 0.87885 0.0
H890 H 0.18362 0.10272 0.86139 0.0
C891 C 0.28176 0.12695 0.93987 0.0
C892 C 0.24663 0.10884 0.97303 0.0
H893 H 0.30928 0.15062 0.85432 0.0
H894 H 0.30945 0.1345 0.96145 0.0
C895 C 0.2112 0.09976 0.9441 0.0
C896 C 0.90816 0.15412 0.87908 0.0
C897 C 0.91607 0.12691 0.85037 0.0
H898 H 0.91032 0.18392 0.96173 0.0
C899 C 0.93454 0.11003 0.88313 0.0
H900 H 0.89412 0.16773 0.85458 0.0
C901 C 0.9446 0.12001 0.94425 0.0
C902 C 0.9357 0.14648 0.97322 0.0
H903 H 0.94145 0.08944 0.8615 0.0
H904 H 0.95791 0.10591 0.96934 0.0
C905 C 0.91773 0.16368 0.94011 0.0
C906 C 0.21113 0.11026 0.38287 0.0
C907 C 0.24647 0.12714 0.35013 0.0
H908 H 0.18365 0.10609 0.46908 0.0
C909 C 0.28159 0.15433 0.37888 0.0
H910 H 0.18364 0.08968 0.36122 0.0
C911 C 0.28159 0.16386 0.43993 0.0
C912 C 0.24643 0.14664 0.47303 0.0
H913 H 0.30923 0.16794 0.3544 0.0
H914 H 0.30923 0.18407 0.46158 0.0
C915 C 0.21106 0.12021 0.444 0.0
C916 C 0.89072 0.13666 0.37902 0.0
C917 C 0.91783 0.1286 0.35039 0.0
H918 H 0.86092 0.13464 0.46157 0.0
C919 C 0.93457 0.11001 0.38322 0.0
H920 H 0.87722 0.15079 0.35447 0.0
C921 C 0.92453 0.09999 0.44433 0.0
C922 C 0.89815 0.10903 0.47322 0.0
H923 H 0.95508 0.10299 0.36166 0.0
H924 H 0.93852 0.08659 0.46947 0.0
C925 C 0.8811 0.12712 0.44003 0.0
C926 C 0.93457 0.83341 0.3853 0.0
C927 C 0.91624 0.79808 0.35246 0.0
H928 H 0.95777 0.86088 0.47158 0.0
C929 C 0.90844 0.76298 0.38113 0.0
H930 H 0.9414 0.8609 0.36371 0.0
C931 C 0.91795 0.76298 0.44218 0.0
C932 C 0.93576 0.79813 0.47537 0.0
H933 H 0.89451 0.73535 0.35657 0.0
H934 H 0.91062 0.73534 0.46377 0.0
C935 C 0.94458 0.83348 0.44643 0.0
C936 C 0.34839 0.93996 0.93311 0.0
C937 C 0.34678 0.93178 0.8702 0.0
H938 H 0.38499 0.96906 0.01103 0.0
C939 C 0.3819 0.95162 0.83645 0.0
H940 H 0.32238 0.92401 0.96108 0.0
C941 C 0.41791 0.97645 0.86522 0.0
C942 C 0.42002 0.98278 0.92877 0.0
H943 H 0.38212 0.94472 0.78853 0.0
H944 H 0.44439 0.98824 0.83815 0.0
C945 C 0.38453 0.96502 0.96201 0.0
C946 C 0.06847 0.4509 0.86447 0.0
C947 C 0.06216 0.44655 0.92801 0.0
H948 H 0.10014 0.44698 0.78763 0.0
C949 C 0.07995 0.42876 0.96107 0.0
H950 H 0.05666 0.46564 0.83754 0.0
C951 C 0.10498 0.41771 0.932 0.0
C952 C 0.11312 0.42439 0.86909 0.0
H953 H 0.07593 0.42507 0.01008 0.0
H954 H 0.12094 0.40758 0.95986 0.0
C955 C 0.09328 0.43977 0.83553 0.0
C956 C 0.62706 0.69647 0.93158 0.0
C957 C 0.62033 0.69796 0.8687 0.0
H958 H 0.61975 0.66001 0.0096 0.0
C959 C 0.60496 0.66276 0.83508 0.0
H960 H 0.63719 0.72254 0.95947 0.0
C961 C 0.59387 0.62679 0.86396 0.0
C962 C 0.59826 0.62481 0.9275 0.0
H963 H 0.59773 0.66244 0.78719 0.0
H964 H 0.57915 0.60025 0.83701 0.0
C965 C 0.61605 0.66038 0.9606 0.0
C966 C 0.07988 0.66044 0.46163 0.0
C967 C 0.06213 0.62491 0.42844 0.0
H968 H 0.12088 0.7226 0.46067 0.0
C969 C 0.0685 0.62695 0.36492 0.0
H970 H 0.0758 0.66002 0.51064 0.0
C971 C 0.09337 0.66295 0.33613 0.0
C972 C 0.11318 0.69811 0.36983 0.0
H973 H 0.05671 0.60044 0.3379 0.0
H974 H 0.10029 0.66268 0.28823 0.0
C975 C 0.10495 0.69657 0.43271 0.0
C976 C 0.38454 0.42886 0.46087 0.0
C977 C 0.42008 0.44669 0.42778 0.0
H978 H 0.32238 0.40766 0.45976 0.0
C979 C 0.41808 0.4511 0.36426 0.0
H980 H 0.38492 0.42514 0.50987 0.0
C981 C 0.38211 0.43998 0.33538 0.0
C982 C 0.34692 0.42455 0.36899 0.0
H983 H 0.4446 0.46587 0.33731 0.0
H984 H 0.38241 0.44723 0.2875 0.0
C985 C 0.34843 0.41782 0.43186 0.0
C986 C 0.62719 0.93995 0.43216 0.0
C987 C 0.62059 0.93185 0.36923 0.0
H988 H 0.61973 0.96895 0.51024 0.0
C989 C 0.60529 0.95175 0.33562 0.0
H990 H 0.63726 0.92394 0.46004 0.0
C991 C 0.59414 0.97656 0.36453 0.0
C992 C 0.5984 0.98281 0.4281 0.0
H993 H 0.59815 0.94492 0.28768 0.0
H994 H 0.57946 0.98841 0.33756 0.0
C995 C 0.61613 0.96497 0.46121 0.0
C996 C 0.08478 0.30961 0.19716 0.0
C997 C 0.08678 0.31598 0.26069 0.0
H998 H 0.04912 0.27781 0.1204 0.0
C999 C 0.05124 0.29823 0.29379 0.0
H1000 H 0.1113 0.3214 0.17021 0.0
C1001 C 1.01514 0.27316 0.26478 0.0
C1002 C 1.01363 0.26493 0.2019 0.0
H1003 H 0.05162 0.30231 0.34279 0.0
H1004 H 0.98909 0.25723 0.29268 0.0
C1005 C 0.04881 0.28474 0.16829 0.0
C1006 C 0.73518 0.78403 0.19851 0.0
C1007 C 0.72877 0.77976 0.26204 0.0
H1008 H 0.767 0.78001 0.12196 0.0
C1009 C 0.74649 0.76201 0.29536 0.0
H1010 H 0.72343 0.79874 0.17139 0.0
C1011 C 0.77158 0.75092 0.26658 0.0
C1012 C 0.77983 0.75754 0.2037 0.0
H1013 H 0.74239 0.75839 0.34437 0.0
H1014 H 0.78749 0.74084 0.29464 0.0
C1015 C 0.76004 0.77285 0.16986 0.0
C1016 C 0.28284 0.99381 0.29458 0.0
C1017 C 0.26506 0.9582 0.26161 0.0
H1018 H 0.304 0.05598 0.29318 0.0
C1019 C 0.26072 0.96008 0.19804 0.0
H1020 H 0.2865 0.99352 0.3436 0.0
C1021 C 0.27186 0.99601 0.16899 0.0
C1022 C 0.28722 0.03127 0.20246 0.0
H1023 H 0.246 0.93351 0.17118 0.0
H1024 H 0.26466 0.99562 0.12106 0.0
C1025 C 0.29389 0.02987 0.26539 0.0
C1026 C 0.77154 0.02976 0.76486 0.0
C1027 C 0.77967 0.03124 0.70195 0.0
H1028 H 0.74249 0.99332 0.84292 0.0
C1029 C 0.75978 0.99604 0.66835 0.0
H1030 H 0.78752 0.05584 0.79274 0.0
C1031 C 0.73494 0.96008 0.69726 0.0
C1032 C 0.72867 0.95811 0.76081 0.0
H1033 H 0.76664 0.99571 0.62044 0.0
H1034 H 0.72309 0.93354 0.6703 0.0
C1035 C 0.74649 0.99368 0.7939 0.0
C1036 C 1.01494 0.75091 0.76708 0.0
C1037 C 1.01336 0.75751 0.70417 0.0
H1038 H 0.05151 0.75839 0.84503 0.0
C1039 C 0.0485 0.77282 0.67046 0.0
H1040 H 0.98892 0.74084 0.79503 0.0
C1041 C 0.0845 0.784 0.69927 0.0
C1042 C 0.08657 0.77974 0.76282 0.0
H1043 H 0.04874 0.77996 0.62254 0.0
H1044 H 0.11098 0.79871 0.67223 0.0
C1045 C 0.05107 0.762 0.79602 0.0
C1046 C 0.27151 0.28466 0.66834 0.0
C1047 C 0.28692 0.26487 0.70196 0.0
H1048 H 0.24565 0.32129 0.67024 0.0
C1049 C 0.29365 0.2731 0.76484 0.0
H1050 H 0.26427 0.27772 0.62045 0.0
C1051 C 0.28262 0.29817 0.79384 0.0
C1052 C 0.2648 0.31591 0.76073 0.0
H1053 H 0.30381 0.25718 0.79273 0.0
H1054 H 0.28634 0.30226 0.84284 0.0
C1055 C 0.2604 0.30952 0.6972 0.0
C1056 C 0.71545 0.61825 0.50299 0.0
C1057 C 0.68021 0.59839 0.53645 0.0
H1058 H 0.77794 0.65483 0.50518 0.0
C1059 C 0.68163 0.60647 0.59938 0.0
H1060 H 0.71582 0.61142 0.45507 0.0
C1061 C 0.71769 0.63147 0.62856 0.0
C1062 C 0.75329 0.64928 0.5956 0.0
H1063 H 0.65553 0.5905 0.62715 0.0
H1064 H 0.718 0.63545 0.67758 0.0
C1065 C 0.75138 0.64302 0.53204 0.0
C1066 C 0.41314 0.09536 0.62743 0.0
C1067 C 0.3954 0.11314 0.59424 0.0
H1068 H 0.45415 0.07422 0.6265 0.0
C1069 C 0.40179 0.1175 0.53072 0.0
H1070 H 0.40905 0.09168 0.67643 0.0
C1071 C 0.42668 0.10639 0.50194 0.0
C1072 C 0.44649 0.09104 0.53566 0.0
H1073 H 0.39 0.13221 0.5037 0.0
H1074 H 0.43362 0.11361 0.45406 0.0
C1075 C 0.43823 0.08433 0.59852 0.0
C1076 C 0.93849 0.32954 0.50222 0.0
C1077 C 0.95385 0.3647 0.53596 0.0
H1078 H 0.91262 0.26703 0.50393 0.0
C1079 C 0.96051 0.36312 0.59884 0.0
H1080 H 0.9313 0.3293 0.45432 0.0
C1081 C 0.94944 0.32698 0.62774 0.0
C1082 C 0.93166 0.29146 0.59451 0.0
H1083 H 0.97062 0.38915 0.62682 0.0
H1084 H 0.9531 0.32654 0.67674 0.0
C1085 C 0.92735 0.29353 0.53098 0.0
C1086 C 0.40192 0.29347 0.03064 0.0
C1087 C 0.39552 0.29144 0.09416 0.0
H1088 H 0.43373 0.32918 0.95395 0.0
C1089 C 0.41326 0.32698 0.12732 0.0
H1090 H 0.39014 0.26695 0.00364 0.0
C1091 C 0.43833 0.36311 0.09838 0.0
C1092 C 0.44657 0.36464 0.03551 0.0
H1093 H 0.40916 0.32658 0.17632 0.0
H1094 H 0.45424 0.38915 0.12633 0.0
C1095 C 0.42678 0.32946 0.00183 0.0
C1096 C 0.75136 0.11741 0.03094 0.0
C1097 C 0.75343 0.11312 0.09448 0.0
H1098 H 0.71561 0.11344 0.95426 0.0
C1099 C 0.71794 0.09538 0.12769 0.0
H1100 H 0.77785 0.1321 0.00391 0.0
C1101 C 0.68181 0.08433 0.09878 0.0
C1102 C 0.68023 0.09097 0.03588 0.0
H1103 H 0.71838 0.09175 0.17671 0.0
H1104 H 0.6558 0.07426 0.12675 0.0
C1105 C 0.71536 0.10627 0.00216 0.0
C1106 C 0.9385 0.61824 0.0031 0.0
C1107 C 0.95386 0.59836 0.03661 0.0
H1108 H 0.91263 0.65486 0.00521 0.0
C1109 C 0.96053 0.60645 0.09953 0.0
H1110 H 0.93131 0.61142 0.95518 0.0
C1111 C 0.94947 0.63146 0.12868 0.0
C1112 C 0.93169 0.64928 0.09567 0.0
H1113 H 0.97064 0.59046 0.12734 0.0
H1114 H 0.95314 0.63544 0.1777 0.0
C1115 C 0.92736 0.64304 0.03211 0.0
loop_
_geom_bond_atom_site_label_1
_geom_bond_atom_site_label_2
_geom_bond_distance
_geom_bond_site_symmetry_2
_ccdc_geom_bond_type
Zn0 O1 2.055 . S
Zn0 O8 2.046 . S
Zn0 N16 2.036 . S
Zn0 O28 2.053 . S
Zn0 O30 2.066 1_554 S
O1 Zn0 2.055 . S
O1 C4 1.259 1_554 S
C2 O30 1.256 . S
C2 O31 1.244 . S
Zn3 O5 2.046 . S
Zn3 O7 2.055 . S
Zn3 N9 2.036 . S
Zn3 O27 2.066 . S
Zn3 O31 2.053 1_554 S
C4 O1 1.259 1_556 S
C4 O5 1.251 1_556 S
O5 Zn3 2.046 . S
O5 C4 1.251 1_554 S
C6 O27 1.256 . S
C6 O28 1.244 . S
O7 Zn3 2.055 . S
O7 C29 1.259 . S
O8 Zn0 2.046 . S
O8 C29 1.254 . S
N9 Zn3 2.036 . S
N9 C10 1.298 . S
N9 N12 1.398 1_554 S
C10 N9 1.298 . S
C10 N13 1.367 . S
C10 C23 1.481 . S
C11 N12 1.299 . S
C11 N13 1.379 1_556 S
N12 N9 1.398 1_556 S
N12 C11 1.299 . S
N13 C10 1.367 . S
N13 C11 1.379 1_554 S
C14 N16 1.298 1_556 S
C14 N18 1.367 1_545 S
C14 C22 1.481 . S
C15 N17 1.299 1_565 S
C15 N18 1.379 1_554 S
N16 Zn0 2.036 . S
N16 C14 1.298 1_554 S
N16 N17 1.398 . S
N17 C15 1.299 1_545 S
N17 N16 1.398 . S
N18 C14 1.367 1_565 S
N18 C15 1.379 1_556 S
H19 C22 0.980 . S
H20 C22 0.981 . S
H21 C22 0.981 . S
C22 C14 1.481 . S
C22 H19 0.980 . S
C22 H20 0.981 . S
C22 H21 0.981 . S
C23 C10 1.481 . S
C23 H24 0.980 . S
C23 H25 0.981 . S
C23 H26 0.981 . S
H24 C23 0.980 . S
H25 C23 0.981 . S
H26 C23 0.981 . S
O27 Zn3 2.066 . S
O27 C6 1.256 . S
O28 Zn0 2.053 . S
O28 C6 1.244 . S
C29 O7 1.259 . S
C29 O8 1.254 . S
O30 Zn0 2.066 1_556 S
O30 C2 1.256 . S
O31 C2 1.244 . S
O31 Zn3 2.053 1_556 S
Zn32 O33 2.055 . S
Zn32 O40 2.046 . S
Zn32 N48 2.036 . S
Zn32 O60 2.053 . S
Zn32 O62 2.066 1_554 S
O33 Zn32 2.055 . S
O33 C36 1.259 1_554 S
C34 O62 1.256 . S
C34 O63 1.244 . S
Zn35 O37 2.046 . S
Zn35 O39 2.055 . S
Zn35 N41 2.036 . S
Zn35 O59 2.066 . S
Zn35 O63 2.053 1_554 S
C36 O33 1.259 1_556 S
C36 O37 1.251 1_556 S
O37 Zn35 2.046 . S
O37 C36 1.251 1_554 S
C38 O59 1.256 . S
C38 O60 1.244 . S
O39 Zn35 2.055 . S
O39 C61 1.259 . S
O40 Zn32 2.046 . S
O40 C61 1.254 . S
N41 Zn35 2.036 . S
N41 C42 1.298 . S
N41 N44 1.398 1_554 S
C42 N41 1.298 . S
C42 N45 1.367 . S
C42 C55 1.481 . S
C43 N44 1.299 . S
C43 N45 1.379 1_556 S
N44 N41 1.398 1_556 S
N44 C43 1.299 . S
N45 C42 1.367 . S
N45 C43 1.379 1_554 S
C46 N48 1.298 1_556 S
C46 N50 1.367 1_655 S
C46 C54 1.481 . S
C47 N49 1.299 1_455 S
C47 N50 1.379 1_554 S
N48 Zn32 2.036 . S
N48 C46 1.298 1_554 S
N48 N49 1.398 . S
N49 C47 1.299 1_655 S
N49 N48 1.398 . S
N50 C46 1.367 1_455 S
N50 C47 1.379 1_556 S
H51 C54 0.980 . S
H52 C54 0.981 . S
H53 C54 0.981 . S
C54 C46 1.481 . S
C54 H51 0.980 . S
C54 H52 0.981 . S
C54 H53 0.981 . S
C55 C42 1.481 . S
C55 H56 0.980 . S
C55 H57 0.981 . S
C55 H58 0.981 . S
H56 C55 0.980 . S
H57 C55 0.981 . S
H58 C55 0.981 . S
O59 Zn35 2.066 . S
O59 C38 1.256 . S
O60 Zn32 2.053 . S
O60 C38 1.244 . S
C61 O39 1.259 . S
C61 O40 1.254 . S
O62 Zn32 2.066 1_556 S
O62 C34 1.256 . S
O63 C34 1.244 . S
O63 Zn35 2.053 1_556 S
Zn64 O65 2.055 . S
Zn64 O72 2.046 . S
Zn64 N80 2.036 . S
Zn64 O92 2.053 . S
Zn64 O94 2.066 1_554 S
O65 Zn64 2.055 . S
O65 C68 1.259 1_554 S
C66 O94 1.256 . S
C66 O95 1.244 . S
Zn67 O69 2.046 . S
Zn67 O71 2.055 . S
Zn67 N73 2.036 . S
Zn67 O91 2.066 . S
Zn67 O95 2.053 1_554 S
C68 O65 1.259 1_556 S
C68 O69 1.251 1_556 S
O69 Zn67 2.046 . S
O69 C68 1.251 1_554 S
C70 O91 1.256 . S
C70 O92 1.244 . S
O71 Zn67 2.055 . S
O71 C93 1.259 . S
O72 Zn64 2.046 . S
O72 C93 1.254 . S
N73 Zn67 2.036 . S
N73 C74 1.298 . S
N73 N76 1.398 1_554 S
C74 N73 1.298 . S
C74 N77 1.367 . S
C74 C87 1.481 . S
C75 N76 1.299 . S
C75 N77 1.379 1_556 S
N76 N73 1.398 1_556 S
N76 C75 1.299 . S
N77 C74 1.367 . S
N77 C75 1.379 1_554 S
C78 N80 1.298 1_556 S
C78 N82 1.367 . S
C78 C86 1.481 . S
C79 N81 1.299 . S
C79 N82 1.379 1_554 S
N80 Zn64 2.036 . S
N80 C78 1.298 1_554 S
N80 N81 1.398 . S
N81 C79 1.299 . S
N81 N80 1.398 . S
N82 C78 1.367 . S
N82 C79 1.379 1_556 S
H83 C86 0.980 . S
H84 C86 0.981 . S
H85 C86 0.981 . S
C86 C78 1.481 . S
C86 H83 0.980 . S
C86 H84 0.981 . S
C86 H85 0.981 . S
C87 C74 1.481 . S
C87 H88 0.980 . S
C87 H89 0.981 . S
C87 H90 0.981 . S
H88 C87 0.980 . S
H89 C87 0.981 . S
H90 C87 0.981 . S
O91 Zn67 2.066 . S
O91 C70 1.256 . S
O92 Zn64 2.053 . S
O92 C70 1.244 . S
C93 O71 1.259 . S
C93 O72 1.254 . S
O94 Zn64 2.066 1_556 S
O94 C66 1.256 . S
O95 C66 1.244 . S
O95 Zn67 2.053 1_556 S
Zn96 O97 2.055 . S
Zn96 O104 2.046 . S
Zn96 N112 2.036 . S
Zn96 O124 2.053 . S
Zn96 O126 2.066 . S
O97 Zn96 2.055 . S
O97 C100 1.259 . S
C98 O126 1.256 . S
C98 O127 1.244 . S
Zn99 O101 2.046 . S
Zn99 O103 2.055 . S
Zn99 N105 2.036 . S
Zn99 O123 2.066 . S
Zn99 O127 2.053 . S
C100 O97 1.259 . S
C100 O101 1.254 . S
O101 Zn99 2.046 . S
O101 C100 1.254 . S
C102 O123 1.256 . S
C102 O124 1.244 . S
O103 Zn99 2.055 . S
O103 C125 1.259 . S
O104 Zn96 2.046 . S
O104 C125 1.254 . S
N105 Zn99 2.036 . S
N105 C106 1.298 . S
N105 N108 1.398 . S
C106 N105 1.298 . S
C106 N109 1.367 . S
C106 C119 1.481 . S
C107 N108 1.299 . S
C107 N109 1.379 . S
N108 N105 1.398 . S
N108 C107 1.299 . S
N109 C106 1.367 . S
N109 C107 1.379 . S
C110 N112 1.298 . S
C110 N114 1.367 1_655 S
C110 C118 1.481 . S
C111 N113 1.299 1_455 S
C111 N114 1.379 . S
N112 Zn96 2.036 . S
N112 C110 1.298 . S
N112 N113 1.398 . S
N113 C111 1.299 1_655 S
N113 N112 1.398 . S
N114 C110 1.367 1_455 S
N114 C111 1.379 . S
H115 C118 0.980 . S
H116 C118 0.981 . S
H117 C118 0.981 . S
C118 C110 1.481 . S
C118 H115 0.980 . S
C118 H116 0.981 . S
C118 H117 0.981 . S
C119 C106 1.481 . S
C119 H120 0.980 . S
C119 H121 0.981 . S
C119 H122 0.981 . S
H120 C119 0.980 . S
H121 C119 0.981 . S
H122 C119 0.981 . S
O123 Zn99 2.066 . S
O123 C102 1.256 . S
O124 Zn96 2.053 . S
O124 C102 1.244 . S
C125 O103 1.259 . S
C125 O104 1.254 . S
O126 Zn96 2.066 . S
O126 C98 1.256 . S
O127 C98 1.244 . S
O127 Zn99 2.053 . S
Zn128 O129 2.055 . S
Zn128 O136 2.046 . S
Zn128 N144 2.036 . S
Zn128 O156 2.053 . S
Zn128 O158 2.066 . S
O129 Zn128 2.055 . S
O129 C132 1.259 . S
C130 O158 1.256 . S
C130 O159 1.244 . S
Zn131 O133 2.046 . S
Zn131 O135 2.055 . S
Zn131 N137 2.036 . S
Zn131 O155 2.066 . S
Zn131 O159 2.053 . S
C132 O129 1.259 . S
C132 O133 1.254 . S
O133 Zn131 2.046 . S
O133 C132 1.254 . S
C134 O155 1.256 . S
C134 O156 1.244 . S
O135 Zn131 2.055 . S
O135 C157 1.259 . S
O136 Zn128 2.046 . S
O136 C157 1.254 . S
N137 Zn131 2.036 . S
N137 C138 1.298 . S
N137 N140 1.398 . S
C138 N137 1.298 . S
C138 N141 1.367 . S
C138 C151 1.481 . S
C139 N140 1.299 . S
C139 N141 1.379 . S
N140 N137 1.398 . S
N140 C139 1.299 . S
N141 C138 1.367 . S
N141 C139 1.379 . S
C142 N144 1.298 . S
C142 N146 1.367 . S
C142 C150 1.481 . S
C143 N145 1.299 . S
C143 N146 1.379 . S
N144 Zn128 2.036 . S
N144 C142 1.298 . S
N144 N145 1.398 . S
N145 C143 1.299 . S
N145 N144 1.398 . S
N146 C142 1.367 . S
N146 C143 1.379 . S
H147 C150 0.980 . S
H148 C150 0.981 . S
H149 C150 0.981 . S
C150 C142 1.481 . S
C150 H147 0.980 . S
C150 H148 0.981 . S
C150 H149 0.981 . S
C151 C138 1.481 . S
C151 H152 0.980 . S
C151 H153 0.981 . S
C151 H154 0.981 . S
H152 C151 0.980 . S
H153 C151 0.981 . S
H154 C151 0.981 . S
O155 Zn131 2.066 . S
O155 C134 1.256 . S
O156 Zn128 2.053 . S
O156 C134 1.244 . S
C157 O135 1.259 . S
C157 O136 1.254 . S
O158 Zn128 2.066 . S
O158 C130 1.256 . S
O159 C130 1.244 . S
O159 Zn131 2.053 . S
Zn160 O161 2.055 . S
Zn160 O168 2.046 . S
Zn160 N176 2.036 . S
Zn160 O188 2.053 . S
Zn160 O190 2.066 . S
O161 Zn160 2.055 . S
O161 C164 1.259 . S
C162 O190 1.256 . S
C162 O191 1.244 . S
Zn163 O165 2.046 . S
Zn163 O167 2.055 . S
Zn163 N169 2.036 . S
Zn163 O187 2.066 . S
Zn163 O191 2.053 . S
C164 O161 1.259 . S
C164 O165 1.254 . S
O165 Zn163 2.046 . S
O165 C164 1.254 . S
C166 O187 1.256 . S
C166 O188 1.244 . S
O167 Zn163 2.055 . S
O167 C189 1.259 . S
O168 Zn160 2.046 . S
O168 C189 1.254 . S
N169 Zn163 2.036 . S
N169 C170 1.298 . S
N169 N172 1.398 . S
C170 N169 1.298 . S
C170 N173 1.367 1_545 S
C170 C183 1.481 . S
C171 N172 1.299 1_565 S
C171 N173 1.379 . S
N172 N169 1.398 . S
N172 C171 1.299 1_545 S
N173 C170 1.367 1_565 S
N173 C171 1.379 . S
C174 N176 1.298 . S
C174 N178 1.367 . S
C174 C182 1.481 . S
C175 N177 1.299 . S
C175 N178 1.379 . S
N176 Zn160 2.036 . S
N176 C174 1.298 . S
N176 N177 1.398 . S
N177 C175 1.299 . S
N177 N176 1.398 . S
N178 C174 1.367 . S
N178 C175 1.379 . S
H179 C182 0.980 . S
H180 C182 0.981 . S
H181 C182 0.981 . S
C182 C174 1.481 . S
C182 H179 0.980 . S
C182 H180 0.981 . S
C182 H181 0.981 . S
C183 C170 1.481 . S
C183 H184 0.980 . S
C183 H185 0.981 . S
C183 H186 0.981 . S
H184 C183 0.980 . S
H185 C183 0.981 . S
H186 C183 0.981 . S
O187 Zn163 2.066 . S
O187 C166 1.256 . S
O188 Zn160 2.053 . S
O188 C166 1.244 . S
C189 O167 1.259 . S
C189 O168 1.254 . S
O190 Zn160 2.066 . S
O190 C162 1.256 . S
O191 C162 1.244 . S
O191 Zn163 2.053 . S
Zn192 O193 2.055 . S
Zn192 O200 2.046 . S
Zn192 N208 2.036 . S
Zn192 O220 2.053 . S
Zn192 O222 2.066 . S
O193 Zn192 2.055 . S
O193 C196 1.259 . S
C194 O222 1.256 . S
C194 O223 1.244 . S
Zn195 O197 2.046 . S
Zn195 O199 2.055 . S
Zn195 N201 2.036 . S
Zn195 O219 2.066 . S
Zn195 O223 2.053 . S
C196 O193 1.259 . S
C196 O197 1.254 . S
O197 Zn195 2.046 . S
O197 C196 1.254 . S
C198 O219 1.256 . S
C198 O220 1.244 . S
O199 Zn195 2.055 . S
O199 C221 1.259 . S
O200 Zn192 2.046 . S
O200 C221 1.254 . S
N201 Zn195 2.036 . S
N201 C202 1.298 . S
N201 N204 1.398 . S
C202 N201 1.298 . S
C202 N205 1.367 . S
C202 C215 1.481 . S
C203 N204 1.299 . S
C203 N205 1.379 . S
N204 N201 1.398 . S
N204 C203 1.299 . S
N205 C202 1.367 . S
N205 C203 1.379 . S
C206 N208 1.298 . S
C206 N210 1.367 . S
C206 C214 1.481 . S
C207 N209 1.299 . S
C207 N210 1.379 . S
N208 Zn192 2.036 . S
N208 C206 1.298 . S
N208 N209 1.398 . S
N209 C207 1.299 . S
N209 N208 1.398 . S
N210 C206 1.367 . S
N210 C207 1.379 . S
H211 C214 0.980 . S
H212 C214 0.981 . S
H213 C214 0.981 . S
C214 C206 1.481 . S
C214 H211 0.980 . S
C214 H212 0.981 . S
C214 H213 0.981 . S
C215 C202 1.481 . S
C215 H216 0.980 . S
C215 H217 0.981 . S
C215 H218 0.981 . S
H216 C215 0.980 . S
H217 C215 0.981 . S
H218 C215 0.981 . S
O219 Zn195 2.066 . S
O219 C198 1.256 . S
O220 Zn192 2.053 . S
O220 C198 1.244 . S
C221 O199 1.259 . S
C221 O200 1.254 . S
O222 Zn192 2.066 . S
O222 C194 1.256 . S
O223 C194 1.244 . S
O223 Zn195 2.053 . S
Zn224 O225 2.055 . S
Zn224 O232 2.046 . S
Zn224 N240 2.036 . S
Zn224 O252 2.053 . S
Zn224 O254 2.066 . S
O225 Zn224 2.055 . S
O225 C228 1.259 . S
C226 O254 1.256 . S
C226 O255 1.244 . S
Zn227 O229 2.046 . S
Zn227 O231 2.055 . S
Zn227 N233 2.036 . S
Zn227 O251 2.066 . S
Zn227 O255 2.053 . S
C228 O225 1.259 . S
C228 O229 1.254 . S
O229 Zn227 2.046 . S
O229 C228 1.254 . S
C230 O251 1.256 . S
C230 O252 1.244 . S
O231 Zn227 2.055 . S
O231 C253 1.259 . S
O232 Zn224 2.046 . S
O232 C253 1.254 . S
N233 Zn227 2.036 . S
N233 C234 1.298 . S
N233 N236 1.398 . S
C234 N233 1.298 . S
C234 N237 1.367 . S
C234 C247 1.481 . S
C235 N236 1.299 . S
C235 N237 1.379 . S
N236 N233 1.398 . S
N236 C235 1.299 . S
N237 C234 1.367 . S
N237 C235 1.379 . S
C238 N240 1.298 . S
C238 N242 1.367 . S
C238 C246 1.481 . S
C239 N241 1.299 . S
C239 N242 1.379 . S
N240 Zn224 2.036 . S
N240 C238 1.298 . S
N240 N241 1.398 . S
N241 C239 1.299 . S
N241 N240 1.398 . S
N242 C238 1.367 . S
N242 C239 1.379 . S
H243 C246 0.980 . S
H244 C246 0.981 . S
H245 C246 0.981 . S
C246 C238 1.481 . S
C246 H243 0.980 . S
C246 H244 0.981 . S
C246 H245 0.981 . S
C247 C234 1.481 . S
C247 H248 0.980 . S
C247 H249 0.981 . S
C247 H250 0.981 . S
H248 C247 0.980 . S
H249 C247 0.981 . S
H250 C247 0.981 . S
O251 Zn227 2.066 . S
O251 C230 1.256 . S
O252 Zn224 2.053 . S
O252 C230 1.244 . S
C253 O231 1.259 . S
C253 O232 1.254 . S
O254 Zn224 2.066 . S
O254 C226 1.256 . S
O255 C226 1.244 . S
O255 Zn227 2.053 . S
Zn256 O257 2.055 . S
Zn256 O264 2.046 . S
Zn256 N272 2.036 . S
Zn256 O284 2.053 . S
Zn256 O286 2.066 . S
O257 Zn256 2.055 . S
O257 C260 1.259 . S
C258 O286 1.256 . S
C258 O287 1.244 . S
Zn259 O261 2.046 . S
Zn259 O263 2.055 . S
Zn259 N265 2.036 . S
Zn259 O283 2.066 . S
Zn259 O287 2.053 . S
C260 O257 1.259 . S
C260 O261 1.254 . S
O261 Zn259 2.046 . S
O261 C260 1.254 . S
C262 O283 1.256 . S
C262 O284 1.244 . S
O263 Zn259 2.055 . S
O263 C285 1.259 . S
O264 Zn256 2.046 . S
O264 C285 1.254 . S
N265 Zn259 2.036 . S
N265 C266 1.298 . S
N265 N268 1.398 . S
C266 N265 1.298 . S
C266 N269 1.367 . S
C266 C279 1.481 . S
C267 N268 1.299 . S
C267 N269 1.379 . S
N268 N265 1.398 . S
N268 C267 1.299 . S
N269 C266 1.367 . S
N269 C267 1.379 . S
C270 N272 1.298 . S
C270 N274 1.367 . S
C270 C278 1.481 . S
C271 N273 1.299 . S
C271 N274 1.379 . S
N272 Zn256 2.036 . S
N272 C270 1.298 . S
N272 N273 1.398 . S
N273 C271 1.299 . S
N273 N272 1.398 . S
N274 C270 1.367 . S
N274 C271 1.379 . S
H275 C278 0.980 . S
H276 C278 0.981 . S
H277 C278 0.981 . S
C278 C270 1.481 . S
C278 H275 0.980 . S
C278 H276 0.981 . S
C278 H277 0.981 . S
C279 C266 1.481 . S
C279 H280 0.980 . S
C279 H281 0.981 . S
C279 H282 0.981 . S
H280 C279 0.980 . S
H281 C279 0.981 . S
H282 C279 0.981 . S
O283 Zn259 2.066 . S
O283 C262 1.256 . S
O284 Zn256 2.053 . S
O284 C262 1.244 . S
C285 O263 1.259 . S
C285 O264 1.254 . S
O286 Zn256 2.066 . S
O286 C258 1.256 . S
O287 C258 1.244 . S
O287 Zn259 2.053 . S
Zn288 O289 2.055 . S
Zn288 O296 2.046 . S
Zn288 N304 2.036 . S
Zn288 O316 2.053 . S
Zn288 O318 2.066 . S
O289 Zn288 2.055 . S
O289 C292 1.259 . S
C290 O318 1.256 . S
C290 O319 1.244 . S
Zn291 O293 2.046 . S
Zn291 O295 2.055 . S
Zn291 N297 2.036 . S
Zn291 O315 2.066 . S
Zn291 O319 2.053 . S
C292 O289 1.259 . S
C292 O293 1.254 . S
O293 Zn291 2.046 . S
O293 C292 1.254 . S
C294 O315 1.256 . S
C294 O316 1.244 . S
O295 Zn291 2.055 . S
O295 C317 1.259 . S
O296 Zn288 2.046 . S
O296 C317 1.254 . S
N297 Zn291 2.036 . S
N297 C298 1.298 . S
N297 N300 1.398 . S
C298 N297 1.298 . S
C298 N301 1.367 . S
C298 C311 1.481 . S
C299 N300 1.299 . S
C299 N301 1.379 . S
N300 N297 1.398 . S
N300 C299 1.299 . S
N301 C298 1.367 . S
N301 C299 1.379 . S
C302 N304 1.298 . S
C302 N306 1.367 . S
C302 C310 1.481 . S
C303 N305 1.299 . S
C303 N306 1.379 . S
N304 Zn288 2.036 . S
N304 C302 1.298 . S
N304 N305 1.398 . S
N305 C303 1.299 . S
N305 N304 1.398 . S
N306 C302 1.367 . S
N306 C303 1.379 . S
H307 C310 0.980 . S
H308 C310 0.981 . S
H309 C310 0.981 . S
C310 C302 1.481 . S
C310 H307 0.980 . S
C310 H308 0.981 . S
C310 H309 0.981 . S
C311 C298 1.481 . S
C311 H312 0.980 . S
C311 H313 0.981 . S
C311 H314 0.981 . S
H312 C311 0.980 . S
H313 C311 0.981 . S
H314 C311 0.981 . S
O315 Zn291 2.066 . S
O315 C294 1.256 . S
O316 Zn288 2.053 . S
O316 C294 1.244 . S
C317 O295 1.259 . S
C317 O296 1.254 . S
O318 Zn288 2.066 . S
O318 C290 1.256 . S
O319 C290 1.244 . S
O319 Zn291 2.053 . S
Zn320 O321 2.055 . S
Zn320 O328 2.046 . S
Zn320 N336 2.036 . S
Zn320 O348 2.053 . S
Zn320 O350 2.066 . S
O321 Zn320 2.055 . S
O321 C324 1.259 . S
C322 O350 1.256 . S
C322 O351 1.244 . S
Zn323 O325 2.046 . S
Zn323 O327 2.055 . S
Zn323 N329 2.036 . S
Zn323 O347 2.066 . S
Zn323 O351 2.053 . S
C324 O321 1.259 . S
C324 O325 1.254 . S
O325 Zn323 2.046 . S
O325 C324 1.254 . S
C326 O347 1.256 . S
C326 O348 1.244 . S
O327 Zn323 2.055 . S
O327 C349 1.259 . S
O328 Zn320 2.046 . S
O328 C349 1.254 . S
N329 Zn323 2.036 . S
N329 C330 1.298 . S
N329 N332 1.398 . S
C330 N329 1.298 . S
C330 N333 1.367 . S
C330 C343 1.481 . S
C331 N332 1.299 . S
C331 N333 1.379 . S
N332 N329 1.398 . S
N332 C331 1.299 . S
N333 C330 1.367 . S
N333 C331 1.379 . S
C334 N336 1.298 . S
C334 N338 1.367 . S
C334 C342 1.481 . S
C335 N337 1.299 . S
C335 N338 1.379 . S
N336 Zn320 2.036 . S
N336 C334 1.298 . S
N336 N337 1.398 . S
N337 C335 1.299 . S
N337 N336 1.398 . S
N338 C334 1.367 . S
N338 C335 1.379 . S
H339 C342 0.980 . S
H340 C342 0.981 . S
H341 C342 0.981 . S
C342 C334 1.481 . S
C342 H339 0.980 . S
C342 H340 0.981 . S
C342 H341 0.981 . S
C343 C330 1.481 . S
C343 H344 0.980 . S
C343 H345 0.981 . S
C343 H346 0.981 . S
H344 C343 0.980 . S
H345 C343 0.981 . S
H346 C343 0.981 . S
O347 Zn323 2.066 . S
O347 C326 1.256 . S
O348 Zn320 2.053 . S
O348 C326 1.244 . S
C349 O327 1.259 . S
C349 O328 1.254 . S
O350 Zn320 2.066 . S
O350 C322 1.256 . S
O351 C322 1.244 . S
O351 Zn323 2.053 . S
Zn352 O353 2.055 . S
Zn352 O360 2.046 . S
Zn352 N368 2.036 . S
Zn352 O380 2.053 . S
Zn352 O382 2.066 . S
O353 Zn352 2.055 . S
O353 C356 1.259 . S
C354 O382 1.256 . S
C354 O383 1.244 . S
Zn355 O357 2.046 . S
Zn355 O359 2.055 . S
Zn355 N361 2.036 . S
Zn355 O379 2.066 . S
Zn355 O383 2.053 . S
C356 O353 1.259 . S
C356 O357 1.254 . S
O357 Zn355 2.046 . S
O357 C356 1.254 . S
C358 O379 1.256 . S
C358 O380 1.244 . S
O359 Zn355 2.055 . S
O359 C381 1.259 . S
O360 Zn352 2.046 . S
O360 C381 1.254 . S
N361 Zn355 2.036 . S
N361 C362 1.298 . S
N361 N364 1.398 . S
C362 N361 1.298 . S
C362 N365 1.367 . S
C362 C375 1.481 . S
C363 N364 1.299 . S
C363 N365 1.379 . S
N364 N361 1.398 . S
N364 C363 1.299 . S
N365 C362 1.367 . S
N365 C363 1.379 . S
C366 N368 1.298 . S
C366 N370 1.367 . S
C366 C374 1.481 . S
C367 N369 1.299 . S
C367 N370 1.379 . S
N368 Zn352 2.036 . S
N368 C366 1.298 . S
N368 N369 1.398 . S
N369 C367 1.299 . S
N369 N368 1.398 . S
N370 C366 1.367 . S
N370 C367 1.379 . S
H371 C374 0.980 . S
H372 C374 0.981 . S
H373 C374 0.981 . S
C374 C366 1.481 . S
C374 H371 0.980 . S
C374 H372 0.981 . S
C374 H373 0.981 . S
C375 C362 1.481 . S
C375 H376 0.980 . S
C375 H377 0.981 . S
C375 H378 0.981 . S
H376 C375 0.980 . S
H377 C375 0.981 . S
H378 C375 0.981 . S
O379 Zn355 2.066 . S
O379 C358 1.256 . S
O380 Zn352 2.053 . S
O380 C358 1.244 . S
C381 O359 1.259 . S
C381 O360 1.254 . S
O382 Zn352 2.066 . S
O382 C354 1.256 . S
O383 C354 1.244 . S
O383 Zn355 2.053 . S
Zn384 O385 2.055 . S
Zn384 O392 2.046 . S
Zn384 N400 2.036 . S
Zn384 O412 2.053 . S
Zn384 O414 2.066 . S
O385 Zn384 2.055 . S
O385 C388 1.259 . S
C386 O414 1.256 . S
C386 O415 1.244 . S
Zn387 O389 2.046 . S
Zn387 O391 2.055 . S
Zn387 N393 2.036 1_655 S
Zn387 O411 2.066 . S
Zn387 O415 2.053 . S
C388 O385 1.259 . S
C388 O389 1.254 . S
O389 Zn387 2.046 . S
O389 C388 1.254 . S
C390 O411 1.256 . S
C390 O412 1.244 . S
O391 Zn387 2.055 . S
O391 C413 1.259 . S
O392 Zn384 2.046 . S
O392 C413 1.254 . S
N393 Zn387 2.036 1_455 S
N393 C394 1.298 . S
N393 N396 1.398 . S
C394 N393 1.298 . S
C394 N397 1.367 . S
C394 C407 1.481 . S
C395 N396 1.299 . S
C395 N397 1.379 . S
N396 N393 1.398 . S
N396 C395 1.299 . S
N397 C394 1.367 . S
N397 C395 1.379 . S
C398 N400 1.298 . S
C398 N402 1.367 . S
C398 C406 1.481 . S
C399 N401 1.299 . S
C399 N402 1.379 . S
N400 Zn384 2.036 . S
N400 C398 1.298 . S
N400 N401 1.398 . S
N401 C399 1.299 . S
N401 N400 1.398 . S
N402 C398 1.367 . S
N402 C399 1.379 . S
H403 C406 0.980 . S
H404 C406 0.981 . S
H405 C406 0.981 . S
C406 C398 1.481 . S
C406 H403 0.980 . S
C406 H404 0.981 . S
C406 H405 0.981 . S
C407 C394 1.481 . S
C407 H408 0.980 . S
C407 H409 0.981 . S
C407 H410 0.981 . S
H408 C407 0.980 . S
H409 C407 0.981 . S
H410 C407 0.981 . S
O411 Zn387 2.066 . S
O411 C390 1.256 . S
O412 Zn384 2.053 . S
O412 C390 1.244 . S
C413 O391 1.259 . S
C413 O392 1.254 . S
O414 Zn384 2.066 . S
O414 C386 1.256 . S
O415 C386 1.244 . S
O415 Zn387 2.053 . S
Zn416 O417 2.055 . S
Zn416 O424 2.046 . S
Zn416 N432 2.036 . S
Zn416 O444 2.053 . S
Zn416 O446 2.066 . S
O417 Zn416 2.055 . S
O417 C420 1.259 . S
C418 O446 1.256 . S
C418 O447 1.244 . S
Zn419 O421 2.046 . S
Zn419 O423 2.055 . S
Zn419 N425 2.036 . S
Zn419 O443 2.066 . S
Zn419 O447 2.053 . S
C420 O417 1.259 . S
C420 O421 1.254 . S
O421 Zn419 2.046 . S
O421 C420 1.254 . S
C422 O443 1.256 . S
C422 O444 1.244 . S
O423 Zn419 2.055 . S
O423 C445 1.259 . S
O424 Zn416 2.046 . S
O424 C445 1.254 . S
N425 Zn419 2.036 . S
N425 C426 1.298 . S
N425 N428 1.398 . S
C426 N425 1.298 . S
C426 N429 1.367 . S
C426 C439 1.481 . S
C427 N428 1.299 . S
C427 N429 1.379 . S
N428 N425 1.398 . S
N428 C427 1.299 . S
N429 C426 1.367 . S
N429 C427 1.379 . S
C430 N432 1.298 . S
C430 N434 1.367 . S
C430 C438 1.481 . S
C431 N433 1.299 . S
C431 N434 1.379 . S
N432 Zn416 2.036 . S
N432 C430 1.298 . S
N432 N433 1.398 . S
N433 C431 1.299 . S
N433 N432 1.398 . S
N434 C430 1.367 . S
N434 C431 1.379 . S
H435 C438 0.980 . S
H436 C438 0.981 . S
H437 C438 0.981 . S
C438 C430 1.481 . S
C438 H435 0.980 . S
C438 H436 0.981 . S
C438 H437 0.981 . S
C439 C426 1.481 . S
C439 H440 0.980 . S
C439 H441 0.981 . S
C439 H442 0.981 . S
H440 C439 0.980 . S
H441 C439 0.981 . S
H442 C439 0.981 . S
O443 Zn419 2.066 . S
O443 C422 1.256 . S
O444 Zn416 2.053 . S
O444 C422 1.244 . S
C445 O423 1.259 . S
C445 O424 1.254 . S
O446 Zn416 2.066 . S
O446 C418 1.256 . S
O447 C418 1.244 . S
O447 Zn419 2.053 . S
Zn448 O449 2.055 . S
Zn448 O456 2.046 . S
Zn448 N464 2.036 . S
Zn448 O476 2.053 . S
Zn448 O478 2.066 . S
O449 Zn448 2.055 . S
O449 C452 1.259 . S
C450 O478 1.256 . S
C450 O479 1.244 . S
Zn451 O453 2.046 . S
Zn451 O455 2.055 . S
Zn451 N457 2.036 1_545 S
Zn451 O475 2.066 . S
Zn451 O479 2.053 . S
C452 O449 1.259 . S
C452 O453 1.254 . S
O453 Zn451 2.046 . S
O453 C452 1.254 . S
C454 O475 1.256 . S
C454 O476 1.244 . S
O455 Zn451 2.055 . S
O455 C477 1.259 . S
O456 Zn448 2.046 . S
O456 C477 1.254 . S
N457 Zn451 2.036 1_565 S
N457 C458 1.298 . S
N457 N460 1.398 . S
C458 N457 1.298 . S
C458 N461 1.367 . S
C458 C471 1.481 . S
C459 N460 1.299 . S
C459 N461 1.379 . S
N460 N457 1.398 . S
N460 C459 1.299 . S
N461 C458 1.367 . S
N461 C459 1.379 . S
C462 N464 1.298 . S
C462 N466 1.367 . S
C462 C470 1.481 . S
C463 N465 1.299 . S
C463 N466 1.379 . S
N464 Zn448 2.036 . S
N464 C462 1.298 . S
N464 N465 1.398 . S
N465 C463 1.299 . S
N465 N464 1.398 . S
N466 C462 1.367 . S
N466 C463 1.379 . S
H467 C470 0.980 . S
H468 C470 0.981 . S
H469 C470 0.981 . S
C470 C462 1.481 . S
C470 H467 0.980 . S
C470 H468 0.981 . S
C470 H469 0.981 . S
C471 C458 1.481 . S
C471 H472 0.980 . S
C471 H473 0.981 . S
C471 H474 0.981 . S
H472 C471 0.980 . S
H473 C471 0.981 . S
H474 C471 0.981 . S
O475 Zn451 2.066 . S
O475 C454 1.256 . S
O476 Zn448 2.053 . S
O476 C454 1.244 . S
C477 O455 1.259 . S
C477 O456 1.254 . S
O478 Zn448 2.066 . S
O478 C450 1.256 . S
O479 C450 1.244 . S
O479 Zn451 2.053 . S
Zn480 O481 2.055 . S
Zn480 O488 2.046 . S
Zn480 N496 2.036 1_545 S
Zn480 O508 2.053 . S
Zn480 O510 2.066 . S
O481 Zn480 2.055 . S
O481 C484 1.259 . S
C482 O510 1.256 . S
C482 O511 1.244 . S
Zn483 O485 2.046 . S
Zn483 O487 2.055 . S
Zn483 N489 2.036 . S
Zn483 O507 2.066 . S
Zn483 O511 2.053 . S
C484 O481 1.259 . S
C484 O485 1.254 . S
O485 Zn483 2.046 . S
O485 C484 1.254 . S
C486 O507 1.256 . S
C486 O508 1.244 . S
O487 Zn483 2.055 . S
O487 C509 1.259 . S
O488 Zn480 2.046 . S
O488 C509 1.254 . S
N489 Zn483 2.036 . S
N489 C490 1.298 . S
N489 N492 1.398 . S
C490 N489 1.298 . S
C490 N493 1.367 . S
C490 C503 1.481 . S
C491 N492 1.299 . S
C491 N493 1.379 . S
N492 N489 1.398 . S
N492 C491 1.299 . S
N493 C490 1.367 . S
N493 C491 1.379 . S
C494 N496 1.298 . S
C494 N498 1.367 . S
C494 C502 1.481 . S
C495 N497 1.299 . S
C495 N498 1.379 . S
N496 Zn480 2.036 1_565 S
N496 C494 1.298 . S
N496 N497 1.398 . S
N497 C495 1.299 . S
N497 N496 1.398 . S
N498 C494 1.367 . S
N498 C495 1.379 . S
H499 C502 0.980 . S
H500 C502 0.981 . S
H501 C502 0.981 . S
C502 C494 1.481 . S
C502 H499 0.980 . S
C502 H500 0.981 . S
C502 H501 0.981 . S
C503 C490 1.481 . S
C503 H504 0.980 . S
C503 H505 0.981 . S
C503 H506 0.981 . S
H504 C503 0.980 . S
H505 C503 0.981 . S
H506 C503 0.981 . S
O507 Zn483 2.066 . S
O507 C486 1.256 . S
O508 Zn480 2.053 . S
O508 C486 1.244 . S
C509 O487 1.259 . S
C509 O488 1.254 . S
O510 Zn480 2.066 . S
O510 C482 1.256 . S
O511 C482 1.244 . S
O511 Zn483 2.053 . S
Zn512 O513 2.055 . S
Zn512 O520 2.046 . S
Zn512 N528 2.036 . S
Zn512 O540 2.053 . S
Zn512 O542 2.066 . S
O513 Zn512 2.055 . S
O513 C516 1.259 . S
C514 O542 1.256 . S
C514 O543 1.244 . S
Zn515 O517 2.046 . S
Zn515 O519 2.055 . S
Zn515 N521 2.036 1_655 S
Zn515 O539 2.066 . S
Zn515 O543 2.053 . S
C516 O513 1.259 . S
C516 O517 1.254 . S
O517 Zn515 2.046 . S
O517 C516 1.254 . S
C518 O539 1.256 . S
C518 O540 1.244 . S
O519 Zn515 2.055 . S
O519 C541 1.259 . S
O520 Zn512 2.046 . S
O520 C541 1.254 . S
N521 Zn515 2.036 1_455 S
N521 C522 1.298 . S
N521 N524 1.398 . S
C522 N521 1.298 . S
C522 N525 1.367 . S
C522 C535 1.481 . S
C523 N524 1.299 . S
C523 N525 1.379 . S
N524 N521 1.398 . S
N524 C523 1.299 . S
N525 C522 1.367 . S
N525 C523 1.379 . S
C526 N528 1.298 . S
C526 N530 1.367 . S
C526 C534 1.481 . S
C527 N529 1.299 . S
C527 N530 1.379 . S
N528 Zn512 2.036 . S
N528 C526 1.298 . S
N528 N529 1.398 . S
N529 C527 1.299 . S
N529 N528 1.398 . S
N530 C526 1.367 . S
N530 C527 1.379 . S
H531 C534 0.980 . S
H532 C534 0.981 . S
H533 C534 0.981 . S
C534 C526 1.481 . S
C534 H531 0.980 . S
C534 H532 0.981 . S
C534 H533 0.981 . S
C535 C522 1.481 . S
C535 H536 0.980 . S
C535 H537 0.981 . S
C535 H538 0.981 . S
H536 C535 0.980 . S
H537 C535 0.981 . S
H538 C535 0.981 . S
O539 Zn515 2.066 . S
O539 C518 1.256 . S
O540 Zn512 2.053 . S
O540 C518 1.244 . S
C541 O519 1.259 . S
C541 O520 1.254 . S
O542 Zn512 2.066 . S
O542 C514 1.256 . S
O543 C514 1.244 . S
O543 Zn515 2.053 . S
Zn544 O545 2.055 . S
Zn544 O552 2.046 . S
Zn544 N560 2.036 . S
Zn544 O572 2.053 . S
Zn544 O574 2.066 . S
O545 Zn544 2.055 . S
O545 C548 1.259 . S
C546 O574 1.256 . S
C546 O575 1.244 . S
Zn547 O549 2.046 . S
Zn547 O551 2.055 . S
Zn547 N553 2.036 . S
Zn547 O571 2.066 . S
Zn547 O575 2.053 . S
C548 O545 1.259 . S
C548 O549 1.254 . S
O549 Zn547 2.046 . S
O549 C548 1.254 . S
C550 O571 1.256 . S
C550 O572 1.244 . S
O551 Zn547 2.055 . S
O551 C573 1.259 . S
O552 Zn544 2.046 . S
O552 C573 1.254 . S
N553 Zn547 2.036 . S
N553 C554 1.298 . S
N553 N556 1.398 . S
C554 N553 1.298 . S
C554 N557 1.367 . S
C554 C567 1.481 . S
C555 N556 1.299 . S
C555 N557 1.379 . S
N556 N553 1.398 . S
N556 C555 1.299 . S
N557 C554 1.367 . S
N557 C555 1.379 . S
C558 N560 1.298 . S
C558 N562 1.367 . S
C558 C566 1.481 . S
C559 N561 1.299 . S
C559 N562 1.379 . S
N560 Zn544 2.036 . S
N560 C558 1.298 . S
N560 N561 1.398 . S
N561 C559 1.299 . S
N561 N560 1.398 . S
N562 C558 1.367 . S
N562 C559 1.379 . S
H563 C566 0.980 . S
H564 C566 0.981 . S
H565 C566 0.981 . S
C566 C558 1.481 . S
C566 H563 0.980 . S
C566 H564 0.981 . S
C566 H565 0.981 . S
C567 C554 1.481 . S
C567 H568 0.980 . S
C567 H569 0.981 . S
C567 H570 0.981 . S
H568 C567 0.980 . S
H569 C567 0.981 . S
H570 C567 0.981 . S
O571 Zn547 2.066 . S
O571 C550 1.256 . S
O572 Zn544 2.053 . S
O572 C550 1.244 . S
C573 O551 1.259 . S
C573 O552 1.254 . S
O574 Zn544 2.066 . S
O574 C546 1.256 . S
O575 C546 1.244 . S
O575 Zn547 2.053 . S
C576 C577 1.387 . S
C576 H580 0.950 . S
C576 C585 1.390 . S
C577 C576 1.387 . S
C577 C579 1.387 1_556 S
H578 C585 0.950 . S
C579 C577 1.387 1_554 S
C579 C581 1.390 . S
C579 H583 0.950 . S
H580 C576 0.950 . S
C581 C579 1.390 . S
C581 C582 1.387 . S
C581 H584 0.950 . S
C582 C581 1.387 . S
C582 C585 1.387 1_554 S
H583 C579 0.950 . S
H584 C581 0.950 . S
C585 C576 1.390 . S
C585 H578 0.950 . S
C585 C582 1.387 1_556 S
C586 C587 1.387 . S
C586 H590 0.950 . S
C586 C595 1.390 . S
C587 C586 1.387 . S
C587 C589 1.387 1_554 S
H588 C595 0.950 . S
C589 C587 1.387 1_556 S
C589 C591 1.390 . S
C589 H593 0.950 . S
H590 C586 0.950 . S
C591 C589 1.390 . S
C591 C592 1.387 . S
C591 H594 0.950 . S
C592 C591 1.387 . S
C592 C595 1.387 1_556 S
H593 C589 0.950 . S
H594 C591 0.950 . S
C595 C586 1.390 . S
C595 H588 0.950 . S
C595 C592 1.387 1_554 S
C596 C597 1.387 1_554 S
C596 H600 0.950 . S
C596 C605 1.390 . S
C597 C596 1.387 1_556 S
C597 C599 1.387 . S
H598 C605 0.950 . S
C599 C597 1.387 . S
C599 C601 1.390 . S
C599 H603 0.950 . S
H600 C596 0.950 . S
C601 C599 1.390 . S
C601 C602 1.387 1_556 S
C601 H604 0.950 . S
C602 C601 1.387 1_554 S
C602 C605 1.387 . S
H603 C599 0.950 . S
H604 C601 0.950 . S
C605 C596 1.390 . S
C605 H598 0.950 . S
C605 C602 1.387 . S
C606 C607 1.387 . S
C606 H610 0.950 . S
C606 C615 1.390 . S
C607 C606 1.387 . S
C607 C609 1.387 . S
H608 C615 0.950 . S
C609 C607 1.387 . S
C609 C611 1.390 . S
C609 H613 0.950 . S
H610 C606 0.950 . S
C611 C609 1.390 . S
C611 C612 1.387 . S
C611 H614 0.950 . S
C612 C611 1.387 . S
C612 C615 1.387 . S
H613 C609 0.950 . S
H614 C611 0.950 . S
C615 C606 1.390 . S
C615 H608 0.950 . S
C615 C612 1.387 . S
C616 C617 1.387 . S
C616 H620 0.950 . S
C616 C625 1.390 . S
C617 C616 1.387 . S
C617 C619 1.387 . S
H618 C625 0.950 . S
C619 C617 1.387 . S
C619 C621 1.390 . S
C619 H623 0.950 . S
H620 C616 0.950 . S
C621 C619 1.390 . S
C621 C622 1.387 . S
C621 H624 0.950 . S
C622 C621 1.387 . S
C622 C625 1.387 . S
H623 C619 0.950 . S
H624 C621 0.950 . S
C625 C616 1.390 . S
C625 H618 0.950 . S
C625 C622 1.387 . S
C626 C627 1.387 . S
C626 H630 0.950 . S
C626 C635 1.390 . S
C627 C626 1.387 . S
C627 C629 1.387 . S
H628 C635 0.950 . S
C629 C627 1.387 . S
C629 C631 1.390 . S
C629 H633 0.950 . S
H630 C626 0.950 . S
C631 C629 1.390 . S
C631 C632 1.387 . S
C631 H634 0.950 . S
C632 C631 1.387 . S
C632 C635 1.387 . S
H633 C629 0.950 . S
H634 C631 0.950 . S
C635 C626 1.390 . S
C635 H628 0.950 . S
C635 C632 1.387 . S
C636 C637 1.387 . S
C636 H640 0.950 . S
C636 C645 1.390 . S
C637 C636 1.387 . S
C637 C639 1.387 . S
H638 C645 0.950 . S
C639 C637 1.387 . S
C639 C641 1.390 . S
C639 H643 0.950 . S
H640 C636 0.950 . S
C641 C639 1.390 . S
C641 C642 1.387 . S
C641 H644 0.950 . S
C642 C641 1.387 . S
C642 C645 1.387 . S
H643 C639 0.950 . S
H644 C641 0.950 . S
C645 C636 1.390 . S
C645 H638 0.950 . S
C645 C642 1.387 . S
C646 C647 1.387 . S
C646 H650 0.950 . S
C646 C655 1.390 . S
C647 C646 1.387 . S
C647 C649 1.387 . S
H648 C655 0.950 . S
C649 C647 1.387 . S
C649 C651 1.390 . S
C649 H653 0.950 . S
H650 C646 0.950 . S
C651 C649 1.390 . S
C651 C652 1.387 . S
C651 H654 0.950 . S
C652 C651 1.387 . S
C652 C655 1.387 . S
H653 C649 0.950 . S
H654 C651 0.950 . S
C655 C646 1.390 . S
C655 H648 0.950 . S
C655 C652 1.387 . S
C656 C657 1.387 . S
C656 H660 0.950 . S
C656 C665 1.390 . S
C657 C656 1.387 . S
C657 C659 1.387 . S
H658 C665 0.950 . S
C659 C657 1.387 . S
C659 C661 1.390 . S
C659 H663 0.950 . S
H660 C656 0.950 . S
C661 C659 1.390 . S
C661 C662 1.387 . S
C661 H664 0.950 . S
C662 C661 1.387 . S
C662 C665 1.387 . S
H663 C659 0.950 . S
H664 C661 0.950 . S
C665 C656 1.390 . S
C665 H658 0.950 . S
C665 C662 1.387 . S
C666 C667 1.387 . S
C666 H670 0.950 . S
C666 C675 1.390 . S
C667 C666 1.387 . S
C667 C669 1.387 . S
H668 C675 0.950 . S
C669 C667 1.387 . S
C669 C671 1.390 . S
C669 H673 0.950 . S
H670 C666 0.950 . S
C671 C669 1.390 . S
C671 C672 1.387 . S
C671 H674 0.950 . S
C672 C671 1.387 . S
C672 C675 1.387 . S
H673 C669 0.950 . S
H674 C671 0.950 . S
C675 C666 1.390 . S
C675 H668 0.950 . S
C675 C672 1.387 . S
C676 C677 1.387 . S
C676 H680 0.950 . S
C676 C685 1.390 . S
C677 C676 1.387 . S
C677 C679 1.387 . S
H678 C685 0.950 . S
C679 C677 1.387 . S
C679 C681 1.390 . S
C679 H683 0.950 . S
H680 C676 0.950 . S
C681 C679 1.390 . S
C681 C682 1.387 . S
C681 H684 0.950 . S
C682 C681 1.387 . S
C682 C685 1.387 . S
H683 C679 0.950 . S
H684 C681 0.950 . S
C685 C676 1.390 . S
C685 H678 0.950 . S
C685 C682 1.387 . S
C686 C687 1.387 . S
C686 H690 0.950 . S
C686 C695 1.390 . S
C687 C686 1.387 . S
C687 C689 1.387 . S
H688 C695 0.950 . S
C689 C687 1.387 . S
C689 C691 1.390 . S
C689 H693 0.950 . S
H690 C686 0.950 . S
C691 C689 1.390 . S
C691 C692 1.387 . S
C691 H694 0.950 . S
C692 C691 1.387 . S
C692 C695 1.387 . S
H693 C689 0.950 . S
H694 C691 0.950 . S
C695 C686 1.390 . S
C695 H688 0.950 . S
C695 C692 1.387 . S
C696 C697 1.387 . S
C696 H700 0.950 . S
C696 C705 1.390 . S
C697 C696 1.387 . S
C697 C699 1.387 . S
H698 C705 0.950 . S
C699 C697 1.387 . S
C699 C701 1.390 . S
C699 H703 0.950 . S
H700 C696 0.950 . S
C701 C699 1.390 . S
C701 C702 1.387 . S
C701 H704 0.950 . S
C702 C701 1.387 . S
C702 C705 1.387 . S
H703 C699 0.950 . S
H704 C701 0.950 . S
C705 C696 1.390 . S
C705 H698 0.950 . S
C705 C702 1.387 . S
C706 C707 1.387 1_565 S
C706 H710 0.950 1_565 S
C706 C715 1.390 . S
C707 C706 1.387 1_545 S
C707 C709 1.387 . S
H708 C715 0.950 . S
C709 C707 1.387 . S
C709 C711 1.390 1_545 S
C709 H713 0.950 . S
H710 C706 0.950 1_545 S
C711 C709 1.390 1_565 S
C711 C712 1.387 . S
C711 H714 0.950 . S
C712 C711 1.387 . S
C712 C715 1.387 . S
H713 C709 0.950 . S
H714 C711 0.950 . S
C715 C706 1.390 . S
C715 H708 0.950 . S
C715 C712 1.387 . S
C716 C717 1.387 1_455 S
C716 H720 0.950 . S
C716 C725 1.390 . S
C717 C716 1.387 1_655 S
C717 C719 1.387 . S
H718 C725 0.950 . S
C719 C717 1.387 . S
C719 C721 1.390 1_655 S
C719 H723 0.950 . S
H720 C716 0.950 . S
C721 C719 1.390 1_455 S
C721 C722 1.387 . S
C721 H724 0.950 . S
C722 C721 1.387 . S
C722 C725 1.387 . S
H723 C719 0.950 . S
H724 C721 0.950 . S
C725 C716 1.390 . S
C725 H718 0.950 . S
C725 C722 1.387 . S
C726 C727 1.387 . S
C726 H730 0.950 . S
C726 C735 1.390 . S
C727 C726 1.387 . S
C727 C729 1.387 . S
H728 C735 0.950 . S
C729 C727 1.387 . S
C729 C731 1.390 . S
C729 H733 0.950 . S
H730 C726 0.950 . S
C731 C729 1.390 . S
C731 C732 1.387 . S
C731 H734 0.950 . S
C732 C731 1.387 . S
C732 C735 1.387 . S
H733 C729 0.950 . S
H734 C731 0.950 . S
C735 C726 1.390 . S
C735 H728 0.950 . S
C735 C732 1.387 . S
C736 C737 1.387 . S
C736 H740 0.950 . S
C736 C745 1.390 1_565 S
C737 C736 1.387 . S
C737 C739 1.387 . S
H738 C745 0.950 . S
C739 C737 1.387 . S
C739 C741 1.390 1_565 S
C739 H743 0.950 . S
H740 C736 0.950 . S
C741 C739 1.390 1_545 S
C741 C742 1.387 . S
C741 H744 0.950 . S
C742 C741 1.387 . S
C742 C745 1.387 . S
H743 C739 0.950 . S
H744 C741 0.950 . S
C745 C736 1.390 1_545 S
C745 H738 0.950 . S
C745 C742 1.387 . S
C746 C747 1.387 . S
C746 H750 0.950 . S
C746 C755 1.390 1_455 S
C747 C746 1.387 . S
C747 C749 1.387 . S
H748 C755 0.950 . S
C749 C747 1.387 . S
C749 C751 1.390 . S
C749 H753 0.950 . S
H750 C746 0.950 . S
C751 C749 1.390 . S
C751 C752 1.387 1_455 S
C751 H754 0.950 1_455 S
C752 C751 1.387 1_655 S
C752 C755 1.387 . S
H753 C749 0.950 . S
H754 C751 0.950 1_655 S
C755 C746 1.390 1_655 S
C755 H748 0.950 . S
C755 C752 1.387 . S
C756 C757 1.387 . S
C756 H760 0.950 . S
C756 C765 1.390 . S
C757 C756 1.387 . S
C757 C759 1.387 . S
H758 C765 0.950 . S
C759 C757 1.387 . S
C759 C761 1.390 . S
C759 H763 0.950 . S
H760 C756 0.950 . S
C761 C759 1.390 . S
C761 C762 1.387 . S
C761 H764 0.950 . S
C762 C761 1.387 . S
C762 C765 1.387 . S
H763 C759 0.950 . S
H764 C761 0.950 . S
C765 C756 1.390 . S
C765 H758 0.950 . S
C765 C762 1.387 . S
C766 C767 1.387 . S
C766 H770 0.950 . S
C766 C775 1.390 . S
C767 C766 1.387 . S
C767 C769 1.387 . S
H768 C775 0.950 . S
C769 C767 1.387 . S
C769 C771 1.390 . S
C769 H773 0.950 . S
H770 C766 0.950 . S
C771 C769 1.390 . S
C771 C772 1.387 . S
C771 H774 0.950 . S
C772 C771 1.387 . S
C772 C775 1.387 . S
H773 C769 0.950 . S
H774 C771 0.950 . S
C775 C766 1.390 . S
C775 H768 0.950 . S
C775 C772 1.387 . S
C776 C777 1.387 . S
C776 H780 0.950 . S
C776 C785 1.390 . S
C777 C776 1.387 . S
C777 C779 1.387 . S
H778 C785 0.950 . S
C779 C777 1.387 . S
C779 C781 1.390 . S
C779 H783 0.950 . S
H780 C776 0.950 . S
C781 C779 1.390 . S
C781 C782 1.387 . S
C781 H784 0.950 . S
C782 C781 1.387 . S
C782 C785 1.387 . S
H783 C779 0.950 . S
H784 C781 0.950 . S
C785 C776 1.390 . S
C785 H778 0.950 . S
C785 C782 1.387 . S
C786 C787 1.387 . S
C786 H790 0.950 . S
C786 C795 1.390 . S
C787 C786 1.387 . S
C787 C789 1.387 . S
H788 C795 0.950 . S
C789 C787 1.387 . S
C789 C791 1.390 . S
C789 H793 0.950 . S
H790 C786 0.950 . S
C791 C789 1.390 . S
C791 C792 1.387 . S
C791 H794 0.950 . S
C792 C791 1.387 . S
C792 C795 1.387 . S
H793 C789 0.950 . S
H794 C791 0.950 . S
C795 C786 1.390 . S
C795 H788 0.950 . S
C795 C792 1.387 . S
C796 C797 1.387 . S
C796 H800 0.950 . S
C796 C805 1.390 . S
C797 C796 1.387 . S
C797 C799 1.387 . S
H798 C805 0.950 . S
C799 C797 1.387 . S
C799 C801 1.390 . S
C799 H803 0.950 . S
H800 C796 0.950 . S
C801 C799 1.390 . S
C801 C802 1.387 . S
C801 H804 0.950 . S
C802 C801 1.387 . S
C802 C805 1.387 . S
H803 C799 0.950 . S
H804 C801 0.950 . S
C805 C796 1.390 . S
C805 H798 0.950 . S
C805 C802 1.387 . S
C806 C807 1.387 . S
C806 H810 0.950 . S
C806 C815 1.390 . S
C807 C806 1.387 . S
C807 C809 1.387 . S
H808 C815 0.950 . S
C809 C807 1.387 . S
C809 C811 1.390 . S
C809 H813 0.950 . S
H810 C806 0.950 . S
C811 C809 1.390 . S
C811 C812 1.387 . S
C811 H814 0.950 . S
C812 C811 1.387 . S
C812 C815 1.387 . S
H813 C809 0.950 . S
H814 C811 0.950 . S
C815 C806 1.390 . S
C815 H808 0.950 . S
C815 C812 1.387 . S
C816 C817 1.387 . S
C816 H820 0.950 . S
C816 C825 1.390 . S
C817 C816 1.387 . S
C817 C819 1.387 . S
H818 C825 0.950 . S
C819 C817 1.387 . S
C819 C821 1.390 . S
C819 H823 0.950 . S
H820 C816 0.950 . S
C821 C819 1.390 . S
C821 C822 1.387 . S
C821 H824 0.950 . S
C822 C821 1.387 . S
C822 C825 1.387 . S
H823 C819 0.950 . S
H824 C821 0.950 . S
C825 C816 1.390 . S
C825 H818 0.950 . S
C825 C822 1.387 . S
C826 C827 1.387 . S
C826 H830 0.950 . S
C826 C835 1.390 . S
C827 C826 1.387 . S
C827 C829 1.387 . S
H828 C835 0.950 . S
C829 C827 1.387 . S
C829 C831 1.390 . S
C829 H833 0.950 . S
H830 C826 0.950 . S
C831 C829 1.390 . S
C831 C832 1.387 . S
C831 H834 0.950 . S
C832 C831 1.387 . S
C832 C835 1.387 . S
H833 C829 0.950 . S
H834 C831 0.950 . S
C835 C826 1.390 . S
C835 H828 0.950 . S
C835 C832 1.387 . S
C836 C837 1.387 . S
C836 H840 0.950 . S
C836 C845 1.390 . S
C837 C836 1.387 . S
C837 C839 1.387 . S
H838 C845 0.950 . S
C839 C837 1.387 . S
C839 C841 1.390 . S
C839 H843 0.950 . S
H840 C836 0.950 . S
C841 C839 1.390 . S
C841 C842 1.387 . S
C841 H844 0.950 . S
C842 C841 1.387 . S
C842 C845 1.387 . S
H843 C839 0.950 . S
H844 C841 0.950 . S
C845 C836 1.390 . S
C845 H838 0.950 . S
C845 C842 1.387 . S
C846 C847 1.387 . S
C846 H850 0.950 . S
C846 C855 1.390 . S
C847 C846 1.387 . S
C847 C849 1.387 . S
H848 C855 0.950 . S
C849 C847 1.387 . S
C849 C851 1.390 . S
C849 H853 0.950 . S
H850 C846 0.950 . S
C851 C849 1.390 . S
C851 C852 1.387 . S
C851 H854 0.950 . S
C852 C851 1.387 . S
C852 C855 1.387 . S
H853 C849 0.950 . S
H854 C851 0.950 . S
C855 C846 1.390 . S
C855 H848 0.950 . S
C855 C852 1.387 . S
C856 C857 1.387 . S
C856 H860 0.950 . S
C856 C865 1.390 . S
C857 C856 1.387 . S
C857 C859 1.387 . S
H858 C865 0.950 . S
C859 C857 1.387 . S
C859 C861 1.390 . S
C859 H863 0.950 . S
H860 C856 0.950 . S
C861 C859 1.390 . S
C861 C862 1.387 . S
C861 H864 0.950 . S
C862 C861 1.387 . S
C862 C865 1.387 . S
H863 C859 0.950 . S
H864 C861 0.950 . S
C865 C856 1.390 . S
C865 H858 0.950 . S
C865 C862 1.387 . S
C866 C867 1.387 . S
C866 H870 0.950 . S
C866 C875 1.390 . S
C867 C866 1.387 . S
C867 C869 1.387 . S
H868 C875 0.950 . S
C869 C867 1.387 . S
C869 C871 1.390 . S
C869 H873 0.950 . S
H870 C866 0.950 . S
C871 C869 1.390 . S
C871 C872 1.387 . S
C871 H874 0.950 . S
C872 C871 1.387 . S
C872 C875 1.387 . S
H873 C869 0.950 . S
H874 C871 0.950 . S
C875 C866 1.390 . S
C875 H868 0.950 . S
C875 C872 1.387 . S
C876 C877 1.387 . S
C876 H880 0.950 . S
C876 C885 1.390 . S
C877 C876 1.387 . S
C877 C879 1.387 . S
H878 C885 0.950 . S
C879 C877 1.387 . S
C879 C881 1.390 . S
C879 H883 0.950 . S
H880 C876 0.950 . S
C881 C879 1.390 . S
C881 C882 1.387 . S
C881 H884 0.950 . S
C882 C881 1.387 . S
C882 C885 1.387 . S
H883 C879 0.950 . S
H884 C881 0.950 . S
C885 C876 1.390 . S
C885 H878 0.950 . S
C885 C882 1.387 . S
C886 C887 1.387 . S
C886 H890 0.950 . S
C886 C895 1.390 . S
C887 C886 1.387 . S
C887 C889 1.387 . S
H888 C895 0.950 . S
C889 C887 1.387 . S
C889 C891 1.390 . S
C889 H893 0.950 . S
H890 C886 0.950 . S
C891 C889 1.390 . S
C891 C892 1.387 . S
C891 H894 0.950 . S
C892 C891 1.387 . S
C892 C895 1.387 . S
H893 C889 0.950 . S
H894 C891 0.950 . S
C895 C886 1.390 . S
C895 H888 0.950 . S
C895 C892 1.387 . S
C896 C897 1.387 . S
C896 H900 0.950 . S
C896 C905 1.390 . S
C897 C896 1.387 . S
C897 C899 1.387 . S
H898 C905 0.950 . S
C899 C897 1.387 . S
C899 C901 1.390 . S
C899 H903 0.950 . S
H900 C896 0.950 . S
C901 C899 1.390 . S
C901 C902 1.387 . S
C901 H904 0.950 1_556 S
C902 C901 1.387 . S
C902 C905 1.387 . S
H903 C899 0.950 . S
H904 C901 0.950 1_554 S
C905 C896 1.390 . S
C905 H898 0.950 . S
C905 C902 1.387 . S
C906 C907 1.387 . S
C906 H910 0.950 . S
C906 C915 1.390 . S
C907 C906 1.387 . S
C907 C909 1.387 . S
H908 C915 0.950 . S
C909 C907 1.387 . S
C909 C911 1.390 . S
C909 H913 0.950 . S
H910 C906 0.950 . S
C911 C909 1.390 . S
C911 C912 1.387 . S
C911 H914 0.950 . S
C912 C911 1.387 . S
C912 C915 1.387 . S
H913 C909 0.950 . S
H914 C911 0.950 . S
C915 C906 1.390 . S
C915 H908 0.950 . S
C915 C912 1.387 . S
C916 C917 1.387 . S
C916 H920 0.950 . S
C916 C925 1.390 . S
C917 C916 1.387 . S
C917 C919 1.387 . S
H918 C925 0.950 . S
C919 C917 1.387 . S
C919 C921 1.390 . S
C919 H923 0.950 . S
H920 C916 0.950 . S
C921 C919 1.390 . S
C921 C922 1.387 . S
C921 H924 0.950 . S
C922 C921 1.387 . S
C922 C925 1.387 . S
H923 C919 0.950 . S
H924 C921 0.950 . S
C925 C916 1.390 . S
C925 H918 0.950 . S
C925 C922 1.387 . S
C926 C927 1.387 . S
C926 H930 0.950 . S
C926 C935 1.390 . S
C927 C926 1.387 . S
C927 C929 1.387 . S
H928 C935 0.950 . S
C929 C927 1.387 . S
C929 C931 1.390 . S
C929 H933 0.950 . S
H930 C926 0.950 . S
C931 C929 1.390 . S
C931 C932 1.387 . S
C931 H934 0.950 . S
C932 C931 1.387 . S
C932 C935 1.387 . S
H933 C929 0.950 . S
H934 C931 0.950 . S
C935 C926 1.390 . S
C935 H928 0.950 . S
C935 C932 1.387 . S
C936 C937 1.387 . S
C936 H940 0.950 . S
C936 C945 1.390 . S
C937 C936 1.387 . S
C937 C939 1.387 . S
H938 C945 0.950 1_554 S
C939 C937 1.387 . S
C939 C941 1.390 . S
C939 H943 0.950 . S
H940 C936 0.950 . S
C941 C939 1.390 . S
C941 C942 1.387 . S
C941 H944 0.950 . S
C942 C941 1.387 . S
C942 C945 1.387 . S
H943 C939 0.950 . S
H944 C941 0.950 . S
C945 C936 1.390 . S
C945 H938 0.950 1_556 S
C945 C942 1.387 . S
C946 C947 1.387 . S
C946 H950 0.950 . S
C946 C955 1.390 . S
C947 C946 1.387 . S
C947 C949 1.387 . S
H948 C955 0.950 . S
C949 C947 1.387 . S
C949 C951 1.390 . S
C949 H953 0.950 . S
H950 C946 0.950 . S
C951 C949 1.390 . S
C951 C952 1.387 . S
C951 H954 0.950 . S
C952 C951 1.387 . S
C952 C955 1.387 . S
H953 C949 0.950 . S
H954 C951 0.950 . S
C955 C946 1.390 . S
C955 H948 0.950 . S
C955 C952 1.387 . S
C956 C957 1.387 . S
C956 H960 0.950 . S
C956 C965 1.390 . S
C957 C956 1.387 . S
C957 C959 1.387 . S
H958 C965 0.950 1_554 S
C959 C957 1.387 . S
C959 C961 1.390 . S
C959 H963 0.950 . S
H960 C956 0.950 . S
C961 C959 1.390 . S
C961 C962 1.387 . S
C961 H964 0.950 . S
C962 C961 1.387 . S
C962 C965 1.387 . S
H963 C959 0.950 . S
H964 C961 0.950 . S
C965 C956 1.390 . S
C965 H958 0.950 1_556 S
C965 C962 1.387 . S
C966 C967 1.387 . S
C966 H970 0.950 . S
C966 C975 1.390 . S
C967 C966 1.387 . S
C967 C969 1.387 . S
H968 C975 0.950 . S
C969 C967 1.387 . S
C969 C971 1.390 . S
C969 H973 0.950 . S
H970 C966 0.950 . S
C971 C969 1.390 . S
C971 C972 1.387 . S
C971 H974 0.950 . S
C972 C971 1.387 . S
C972 C975 1.387 . S
H973 C969 0.950 . S
H974 C971 0.950 . S
C975 C966 1.390 . S
C975 H968 0.950 . S
C975 C972 1.387 . S
C976 C977 1.387 . S
C976 H980 0.950 . S
C976 C985 1.390 . S
C977 C976 1.387 . S
C977 C979 1.387 . S
H978 C985 0.950 . S
C979 C977 1.387 . S
C979 C981 1.390 . S
C979 H983 0.950 . S
H980 C976 0.950 . S
C981 C979 1.390 . S
C981 C982 1.387 . S
C981 H984 0.950 . S
C982 C981 1.387 . S
C982 C985 1.387 . S
H983 C979 0.950 . S
H984 C981 0.950 . S
C985 C976 1.390 . S
C985 H978 0.950 . S
C985 C982 1.387 . S
C986 C987 1.387 . S
C986 H990 0.950 . S
C986 C995 1.390 . S
C987 C986 1.387 . S
C987 C989 1.387 . S
H988 C995 0.950 . S
C989 C987 1.387 . S
C989 C991 1.390 . S
C989 H993 0.950 . S
H990 C986 0.950 . S
C991 C989 1.390 . S
C991 C992 1.387 . S
C991 H994 0.950 . S
C992 C991 1.387 . S
C992 C995 1.387 . S
H993 C989 0.950 . S
H994 C991 0.950 . S
C995 C986 1.390 . S
C995 H988 0.950 . S
C995 C992 1.387 . S
C996 C997 1.387 . S
C996 H1000 0.950 . S
C996 C1005 1.390 . S
C997 C996 1.387 . S
C997 C999 1.387 . S
H998 C1005 0.950 . S
C999 C997 1.387 . S
C999 C1001 1.390 . S
C999 H1003 0.950 . S
H1000 C996 0.950 . S
C1001 C999 1.390 . S
C1001 C1002 1.387 . S
C1001 H1004 0.950 1_455 S
C1002 C1001 1.387 . S
C1002 C1005 1.387 . S
H1003 C999 0.950 . S
H1004 C1001 0.950 1_655 S
C1005 C996 1.390 . S
C1005 H998 0.950 . S
C1005 C1002 1.387 . S
C1006 C1007 1.387 . S
C1006 H1010 0.950 . S
C1006 C1015 1.390 . S
C1007 C1006 1.387 . S
C1007 C1009 1.387 . S
H1008 C1015 0.950 . S
C1009 C1007 1.387 . S
C1009 C1011 1.390 . S
C1009 H1013 0.950 . S
H1010 C1006 0.950 . S
C1011 C1009 1.390 . S
C1011 C1012 1.387 . S
C1011 H1014 0.950 . S
C1012 C1011 1.387 . S
C1012 C1015 1.387 . S
H1013 C1009 0.950 . S
H1014 C1011 0.950 . S
C1015 C1006 1.390 . S
C1015 H1008 0.950 . S
C1015 C1012 1.387 . S
C1016 C1017 1.387 . S
C1016 H1020 0.950 . S
C1016 C1025 1.390 . S
C1017 C1016 1.387 . S
C1017 C1019 1.387 . S
H1018 C1025 0.950 . S
C1019 C1017 1.387 . S
C1019 C1021 1.390 . S
C1019 H1023 0.950 . S
H1020 C1016 0.950 . S
C1021 C1019 1.390 . S
C1021 C1022 1.387 . S
C1021 H1024 0.950 . S
C1022 C1021 1.387 . S
C1022 C1025 1.387 . S
H1023 C1019 0.950 . S
H1024 C1021 0.950 . S
C1025 C1016 1.390 . S
C1025 H1018 0.950 . S
C1025 C1022 1.387 . S
C1026 C1027 1.387 . S
C1026 H1030 0.950 . S
C1026 C1035 1.390 . S
C1027 C1026 1.387 . S
C1027 C1029 1.387 . S
H1028 C1035 0.950 . S
C1029 C1027 1.387 . S
C1029 C1031 1.390 . S
C1029 H1033 0.950 . S
H1030 C1026 0.950 . S
C1031 C1029 1.390 . S
C1031 C1032 1.387 . S
C1031 H1034 0.950 . S
C1032 C1031 1.387 . S
C1032 C1035 1.387 . S
H1033 C1029 0.950 . S
H1034 C1031 0.950 . S
C1035 C1026 1.390 . S
C1035 H1028 0.950 . S
C1035 C1032 1.387 . S
C1036 C1037 1.387 . S
C1036 H1040 0.950 1_455 S
C1036 C1045 1.390 . S
C1037 C1036 1.387 . S
C1037 C1039 1.387 . S
H1038 C1045 0.950 . S
C1039 C1037 1.387 . S
C1039 C1041 1.390 . S
C1039 H1043 0.950 . S
H1040 C1036 0.950 1_655 S
C1041 C1039 1.390 . S
C1041 C1042 1.387 . S
C1041 H1044 0.950 . S
C1042 C1041 1.387 . S
C1042 C1045 1.387 . S
H1043 C1039 0.950 . S
H1044 C1041 0.950 . S
C1045 C1036 1.390 . S
C1045 H1038 0.950 . S
C1045 C1042 1.387 . S
C1046 C1047 1.387 . S
C1046 H1050 0.950 . S
C1046 C1055 1.390 . S
C1047 C1046 1.387 . S
C1047 C1049 1.387 . S
H1048 C1055 0.950 . S
C1049 C1047 1.387 . S
C1049 C1051 1.390 . S
C1049 H1053 0.950 . S
H1050 C1046 0.950 . S
C1051 C1049 1.390 . S
C1051 C1052 1.387 . S
C1051 H1054 0.950 . S
C1052 C1051 1.387 . S
C1052 C1055 1.387 . S
H1053 C1049 0.950 . S
H1054 C1051 0.950 . S
C1055 C1046 1.390 . S
C1055 H1048 0.950 . S
C1055 C1052 1.387 . S
C1056 C1057 1.387 . S
C1056 H1060 0.950 . S
C1056 C1065 1.390 . S
C1057 C1056 1.387 . S
C1057 C1059 1.387 . S
H1058 C1065 0.950 . S
C1059 C1057 1.387 . S
C1059 C1061 1.390 . S
C1059 H1063 0.950 . S
H1060 C1056 0.950 . S
C1061 C1059 1.390 . S
C1061 C1062 1.387 . S
C1061 H1064 0.950 . S
C1062 C1061 1.387 . S
C1062 C1065 1.387 . S
H1063 C1059 0.950 . S
H1064 C1061 0.950 . S
C1065 C1056 1.390 . S
C1065 H1058 0.950 . S
C1065 C1062 1.387 . S
C1066 C1067 1.387 . S
C1066 H1070 0.950 . S
C1066 C1075 1.390 . S
C1067 C1066 1.387 . S
C1067 C1069 1.387 . S
H1068 C1075 0.950 . S
C1069 C1067 1.387 . S
C1069 C1071 1.390 . S
C1069 H1073 0.950 . S
H1070 C1066 0.950 . S
C1071 C1069 1.390 . S
C1071 C1072 1.387 . S
C1071 H1074 0.950 . S
C1072 C1071 1.387 . S
C1072 C1075 1.387 . S
H1073 C1069 0.950 . S
H1074 C1071 0.950 . S
C1075 C1066 1.390 . S
C1075 H1068 0.950 . S
C1075 C1072 1.387 . S
C1076 C1077 1.387 . S
C1076 H1080 0.950 . S
C1076 C1085 1.390 . S
C1077 C1076 1.387 . S
C1077 C1079 1.387 . S
H1078 C1085 0.950 . S
C1079 C1077 1.387 . S
C1079 C1081 1.390 . S
C1079 H1083 0.950 . S
H1080 C1076 0.950 . S
C1081 C1079 1.390 . S
C1081 C1082 1.387 . S
C1081 H1084 0.950 . S
C1082 C1081 1.387 . S
C1082 C1085 1.387 . S
H1083 C1079 0.950 . S
H1084 C1081 0.950 . S
C1085 C1076 1.390 . S
C1085 H1078 0.950 . S
C1085 C1082 1.387 . S
C1086 C1087 1.387 . S
C1086 H1090 0.950 . S
C1086 C1095 1.390 . S
C1087 C1086 1.387 . S
C1087 C1089 1.387 . S
H1088 C1095 0.950 . S
C1089 C1087 1.387 . S
C1089 C1091 1.390 . S
C1089 H1093 0.950 . S
H1090 C1086 0.950 . S
C1091 C1089 1.390 . S
C1091 C1092 1.387 . S
C1091 H1094 0.950 . S
C1092 C1091 1.387 . S
C1092 C1095 1.387 . S
H1093 C1089 0.950 . S
H1094 C1091 0.950 . S
C1095 C1086 1.390 . S
C1095 H1088 0.950 . S
C1095 C1092 1.387 . S
C1096 C1097 1.387 . S
C1096 H1100 0.950 . S
C1096 C1105 1.390 . S
C1097 C1096 1.387 . S
C1097 C1099 1.387 . S
H1098 C1105 0.950 . S
C1099 C1097 1.387 . S
C1099 C1101 1.390 . S
C1099 H1103 0.950 . S
H1100 C1096 0.950 . S
C1101 C1099 1.390 . S
C1101 C1102 1.387 . S
C1101 H1104 0.950 . S
C1102 C1101 1.387 . S
C1102 C1105 1.387 . S
H1103 C1099 0.950 . S
H1104 C1101 0.950 . S
C1105 C1096 1.390 . S
C1105 H1098 0.950 . S
C1105 C1102 1.387 . S
C1106 C1107 1.387 . S
C1106 H1110 0.950 1_554 S
C1106 C1115 1.390 . S
C1107 C1106 1.387 . S
C1107 C1109 1.387 . S
H1108 C1115 0.950 . S
C1109 C1107 1.387 . S
C1109 C1111 1.390 . S
C1109 H1113 0.950 . S
H1110 C1106 0.950 1_556 S
C1111 C1109 1.390 . S
C1111 C1112 1.387 . S
C1111 H1114 0.950 . S
C1112 C1111 1.387 . S
C1112 C1115 1.387 . S
H1113 C1109 0.950 . S
H1114 C1111 0.950 . S
C1115 C1106 1.390 . S
C1115 H1108 0.950 . S
C1115 C1112 1.387 . S
C577 C4 0.907 . S
C582 N77 0.908 . S
C587 N13 0.905 . S
C592 C36 0.911 . S
C597 C68 0.906 . S
C602 N45 0.901 . S
C607 N141 0.908 . S
C612 C100 0.906 . S
C617 N178 0.907 . S
C622 C132 0.902 . S
C627 C189 0.907 . S
C632 N109 0.903 . S
C637 N269 0.906 . S
C642 C196 0.901 . S
C647 C228 0.908 . S
C652 N205 0.904 . S
C657 N237 0.908 . S
C662 C260 0.907 . S
C667 C317 0.902 . S
C672 N333 0.902 . S
C677 N370 0.904 . S
C682 C324 0.908 . S
C687 C381 0.902 . S
C692 N306 0.907 . S
C697 N461 0.903 . S
C702 C388 0.907 . S
C707 C420 0.903 . S
C712 N397 0.907 . S
C717 C452 0.905 . S
C722 N429 0.908 . S
C727 C509 0.903 . S
C732 N525 0.901 . S
C737 N562 0.906 . S
C742 C516 0.901 . S
C747 N498 0.907 . S
C752 C573 0.903 . S
C757 C166 1.510 . S
C762 C29 1.468 . S
C767 C98 1.508 . S
C772 C61 1.465 . S
C777 C130 1.510 . S
C782 C93 1.467 . S
C787 C34 1.510 . S
C792 C125 1.468 . S
C797 C157 1.465 . S
C802 C66 1.508 . S
C807 C2 1.510 . S
C812 C164 1.468 . S
C817 C221 1.464 . S
C822 C358 1.507 . S
C827 C253 1.468 . S
C832 C294 1.510 . S
C837 C322 1.510 . S
C842 C285 1.468 . S
C847 C292 1.465 1_554 S
C852 C226 1.508 . S
C857 C349 1.467 1_554 S
C862 C258 1.510 . S
C867 C356 1.468 1_554 S
C872 C194 1.510 . S
C877 C413 1.468 . S
C882 C550 1.510 1_556 S
C887 C445 1.468 . S
C892 C486 1.510 1_556 S
C897 C477 1.465 . S
C902 C514 1.508 1_556 S
C907 C484 1.465 . S
C912 C418 1.508 . S
C917 C541 1.468 . S
C922 C450 1.510 . S
C927 C548 1.464 . S
C932 C386 1.508 . S
C937 C326 1.820 . S
C942 N18 1.927 . S
C947 N50 1.927 . S
C952 C354 1.818 . S
C957 C290 1.820 . S
C962 N82 1.927 . S
C967 N114 1.927 . S
C972 C262 1.817 . S
C977 N146 1.926 . S
C982 C198 1.818 . S
C987 C230 1.818 . S
C992 N173 1.927 . S
C997 N210 1.927 . S
C1002 C518 1.817 1_455 S
C1007 N242 1.927 . S
C1012 C546 1.817 . S
C1017 N274 1.927 . S
C1022 C482 1.820 1_565 S
C1027 C454 1.817 1_565 S
C1032 N301 1.927 . S
C1037 C390 1.818 1_455 S
C1042 N338 1.927 . S
C1047 C422 1.820 . S
C1052 N365 1.927 . S
C1057 C134 1.818 . S
C1062 N402 1.926 . S
C1067 N434 1.927 . S
C1072 C162 1.820 . S
C1077 C102 1.817 . S
C1082 N466 1.927 . S
C1087 N493 1.927 . S
C1092 C70 1.819 . S
C1097 N530 1.927 . S
C1102 C6 1.820 . S
C1107 C38 1.820 . S
C1112 N557 1.927 . S
