# Generated by pormake.
# Topology ung, (4)-cn, num edge types: 1
# Building blocks:
#     Node 0, Type 0, BuildingBlock: KUFVIS_clean_sbu_0, # of connection points: 4
#     Node 1, Type 0, BuildingBlock: KUFVIS_clean_sbu_0, # of connection points: 4
#     Node 2, Type 0, BuildingBlock: KUFVIS_clean_sbu_0, # of connection points: 4
#     Node 3, Type 0, BuildingBlock: KUFVIS_clean_sbu_0, # of connection points: 4
#     Node 4, Type 0, BuildingBlock: KUFVIS_clean_sbu_0, # of connection points: 4
#     Node 5, Type 0, BuildingBlock: KUFVIS_clean_sbu_0, # of connection points: 4
#     Node 6, Type 0, BuildingBlock: KUFVIS_clean_sbu_0, # of connection points: 4
#     Node 7, Type 0, BuildingBlock: KUFVIS_clean_sbu_0, # of connection points: 4
#     Node 8, Type 0, BuildingBlock: KUFVIS_clean_sbu_0, # of connection points: 4
#     Node 9, Type 0, BuildingBlock: KUFVIS_clean_sbu_0, # of connection points: 4
#     Node 10, Type 0, BuildingBlock: KUFVIS_clean_sbu_0, # of connection points: 4
#     Node 11, Type 0, BuildingBlock: KUFVIS_clean_sbu_0, # of connection points: 4
#     Node 12, Type 0, BuildingBlock: KUFVIS_clean_sbu_0, # of connection points: 4
#     Node 13, Type 0, BuildingBlock: KUFVIS_clean_sbu_0, # of connection points: 4
#     Node 14, Type 0, BuildingBlock: KUFVIS_clean_sbu_0, # of connection points: 4
#     Node 15, Type 0, BuildingBlock: KUFVIS_clean_sbu_0, # of connection points: 4
#     Node 16, Type 0, BuildingBlock: KUFVIS_clean_sbu_0, # of connection points: 4
#     Node 17, Type 0, BuildingBlock: KUFVIS_clean_sbu_0, # of connection points: 4
#     Edge 18, Type (0, 0), BuildingBlock: ZUJKAS_clean_linker_0, # of connection points: 2
#     Edge 19, Type (0, 0), BuildingBlock: ZUJKAS_clean_linker_0, # of connection points: 2
#     Edge 20, Type (0, 0), BuildingBlock: ZUJKAS_clean_linker_0, # of connection points: 2
#     Edge 21, Type (0, 0), BuildingBlock: ZUJKAS_clean_linker_0, # of connection points: 2
#     Edge 22, Type (0, 0), BuildingBlock: ZUJKAS_clean_linker_0, # of connection points: 2
#     Edge 23, Type (0, 0), BuildingBlock: ZUJKAS_clean_linker_0, # of connection points: 2
#     Edge 24, Type (0, 0), BuildingBlock: ZUJKAS_clean_linker_0, # of connection points: 2
#     Edge 25, Type (0, 0), BuildingBlock: ZUJKAS_clean_linker_0, # of connection points: 2
#     Edge 26, Type (0, 0), BuildingBlock: ZUJKAS_clean_linker_0, # of connection points: 2
#     Edge 27, Type (0, 0), BuildingBlock: ZUJKAS_clean_linker_0, # of connection points: 2
#     Edge 28, Type (0, 0), BuildingBlock: ZUJKAS_clean_linker_0, # of connection points: 2
#     Edge 29, Type (0, 0), BuildingBlock: ZUJKAS_clean_linker_0, # of connection points: 2
#     Edge 30, Type (0, 0), BuildingBlock: ZUJKAS_clean_linker_0, # of connection points: 2
#     Edge 31, Type (0, 0), BuildingBlock: ZUJKAS_clean_linker_0, # of connection points: 2
#     Edge 32, Type (0, 0), BuildingBlock: ZUJKAS_clean_linker_0, # of connection points: 2
#     Edge 33, Type (0, 0), BuildingBlock: ZUJKAS_clean_linker_0, # of connection points: 2
#     Edge 34, Type (0, 0), BuildingBlock: ZUJKAS_clean_linker_0, # of connection points: 2
#     Edge 35, Type (0, 0), BuildingBlock: ZUJKAS_clean_linker_0, # of connection points: 2
#     Edge 36, Type (0, 0), BuildingBlock: ZUJKAS_clean_linker_0, # of connection points: 2
#     Edge 37, Type (0, 0), BuildingBlock: ZUJKAS_clean_linker_0, # of connection points: 2
#     Edge 38, Type (0, 0), BuildingBlock: ZUJKAS_clean_linker_0, # of connection points: 2
#     Edge 39, Type (0, 0), BuildingBlock: ZUJKAS_clean_linker_0, # of connection points: 2
#     Edge 40, Type (0, 0), BuildingBlock: ZUJKAS_clean_linker_0, # of connection points: 2
#     Edge 41, Type (0, 0), BuildingBlock: ZUJKAS_clean_linker_0, # of connection points: 2
#     Edge 42, Type (0, 0), BuildingBlock: ZUJKAS_clean_linker_0, # of connection points: 2
#     Edge 43, Type (0, 0), BuildingBlock: ZUJKAS_clean_linker_0, # of connection points: 2
#     Edge 44, Type (0, 0), BuildingBlock: ZUJKAS_clean_linker_0, # of connection points: 2
#     Edge 45, Type (0, 0), BuildingBlock: ZUJKAS_clean_linker_0, # of connection points: 2
#     Edge 46, Type (0, 0), BuildingBlock: ZUJKAS_clean_linker_0, # of connection points: 2
#     Edge 47, Type (0, 0), BuildingBlock: ZUJKAS_clean_linker_0, # of connection points: 2
#     Edge 48, Type (0, 0), BuildingBlock: ZUJKAS_clean_linker_0, # of connection points: 2
#     Edge 49, Type (0, 0), BuildingBlock: ZUJKAS_clean_linker_0, # of connection points: 2
#     Edge 50, Type (0, 0), BuildingBlock: ZUJKAS_clean_linker_0, # of connection points: 2
#     Edge 51, Type (0, 0), BuildingBlock: ZUJKAS_clean_linker_0, # of connection points: 2
#     Edge 52, Type (0, 0), BuildingBlock: ZUJKAS_clean_linker_0, # of connection points: 2
#     Edge 53, Type (0, 0), BuildingBlock: ZUJKAS_clean_linker_0, # of connection points: 2
# Relax obj value: 0.111
# Max RMSD: 0.231
# Mean RMSD: 0.222
data_MOF--net-ung--node1-KUFVIS_clean_sbu_0--edge1-ZUJKAS_clean_linker_0
_symmetry_space_group_name_H-M    P1
_symmetry_Int_Tables_number       1
_symmetry_cell_setting            triclinic
loop_
_symmetry_equiv_pos_as_xyz
'x, y, z'
_cell_length_a     92.990736
_cell_length_b     94.784561
_cell_length_c     28.675772
_cell_angle_alpha  89.972522
_cell_angle_beta   89.471081
_cell_angle_gamma 120.67893
loop_
_atom_site_label
_atom_site_type_symbol
_atom_site_fract_x
_atom_site_fract_y
_atom_site_fract_z
_atom_type_partial_charge
Mn0 Mn 0.06301 0.62652 0.24264 0.0
Mn1 Mn 0.02196 0.598 0.23724 0.0
C2 C 0.04577 0.63143 0.19732 0.0
C3 C 0.08439 0.64841 0.28261 0.0
C4 C 0.04893 0.59554 0.18378 0.0
O5 O 0.05954 0.61117 0.29616 0.0
O6 O 0.0317 0.59397 0.29384 0.0
C7 C 0.01042 0.60825 0.32004 0.0
N8 N 0.00958 0.60519 0.27345 0.0
C9 C 0.98846 0.61243 0.26361 0.0
C10 C 0.98901 0.61554 0.31156 0.0
C11 C 6e-05 0.61347 0.33987 0.0
C12 C -0.00097 0.6072 0.24587 0.0
H13 H 0.01897 0.60677 0.34185 0.0
C14 C 0.04604 0.59912 0.31226 0.0
O15 O 0.08754 0.63943 0.25496 0.0
O16 O 0.06894 0.64466 0.28666 0.0
N17 N 0.01077 0.60024 0.18457 0.0
C18 C 0.01206 0.59709 0.13884 0.0
C19 C 0.00203 0.59884 0.10573 0.0
C20 C 0.99067 0.60365 0.12004 0.0
C21 C 0.98933 0.60649 0.16741 0.0
C22 C -0.00045 0.60442 0.19886 0.0
H23 H 0.02076 0.59339 0.12763 0.0
O24 O 0.06185 0.63984 0.19091 0.0
O25 O 0.04029 0.6208 0.23141 0.0
O26 O 0.06131 0.60934 0.19614 0.0
O27 O 0.03391 0.59004 0.19814 0.0
C28 C 0.97842 0.61153 0.18459 0.0
C29 C 0.97802 0.61454 0.23263 0.0
H30 H 0.98109 0.61964 0.32696 0.0
H31 H 0.00062 0.61593 0.37686 0.0
H32 H 0.0031 0.59657 0.06925 0.0
H33 H 0.98309 0.60516 0.09434 0.0
H34 H 0.9704 0.61329 0.16109 0.0
H35 H 0.96971 0.61858 0.24534 0.0
Mn36 Mn 0.50481 0.48203 0.25355 0.0
Mn37 Mn 0.49864 0.51397 0.26496 0.0
C38 C 0.48557 0.48058 0.30726 0.0
C39 C 0.49872 0.45872 0.21181 0.0
C40 C 0.5286 0.51344 0.30434 0.0
O41 O 0.51618 0.49602 0.19636 0.0
O42 O 0.50831 0.51483 0.20234 0.0
C43 C 0.47208 0.50444 0.19502 0.0
N44 N 0.4775 0.50849 0.23966 0.0
C45 C 0.45151 0.50611 0.26392 0.0
C46 C 0.44569 0.50203 0.21813 0.0
C47 C 0.45601 0.50114 0.18358 0.0
C48 C 0.46763 0.50925 0.27325 0.0
H49 H 0.47998 0.50372 0.16841 0.0
C50 C 0.51531 0.5081 0.18048 0.0
O51 O 0.51242 0.46645 0.23564 0.0
O52 O 0.4886 0.46431 0.21307 0.0
N53 N 0.48926 0.51474 0.32393 0.0
C54 C 0.49654 0.5183 0.36669 0.0
C55 C 0.48773 0.51932 0.40532 0.0
C56 C 0.47164 0.5169 0.39949 0.0
C57 C 0.46453 0.51354 0.35502 0.0
C58 C 0.47392 0.51272 0.31781 0.0
H59 H 0.50894 0.52027 0.37136 0.0
O60 O 0.49113 0.47053 0.31005 0.0
O61 O 0.49089 0.49065 0.27199 0.0
O62 O 0.52397 0.49857 0.29459 0.0
O63 O 0.52042 0.52039 0.29286 0.0
C64 C 0.44844 0.51084 0.34621 0.0
C65 C 0.44188 0.50702 0.30077 0.0
H66 H 0.43329 0.49945 0.20918 0.0
H67 H 0.45157 0.49791 0.14821 0.0
H68 H 0.49332 0.52197 0.4395 0.0
H69 H 0.46484 0.5176 0.42941 0.0
H70 H 0.44093 0.51152 0.37424 0.0
H71 H 0.42939 0.50471 0.2946 0.0
Mn72 Mn 0.64405 0.06531 0.24959 0.0
Mn73 Mn 0.65386 0.10482 0.24873 0.0
C74 C 0.66705 0.0844 0.20843 0.0
C75 C 0.64565 0.04447 0.28734 0.0
C76 C 0.62667 0.07861 0.1888 0.0
O77 O 0.63013 0.06622 0.3022 0.0
O78 O 0.638 0.09293 0.30146 0.0
C79 C 0.67271 0.11493 0.33695 0.0
N80 N 0.6721 0.11688 0.29008 0.0
C81 C 0.70059 0.1393 0.28825 0.0
C82 C 0.70148 0.13761 0.33655 0.0
C83 C 0.68749 0.12535 0.36097 0.0
C84 C 0.68552 0.12858 0.26621 0.0
H85 H 0.662 0.10549 0.35583 0.0
C86 C 0.6295 0.07837 0.3184 0.0
O87 O 0.63347 0.04107 0.25898 0.0
O88 O 0.65668 0.0598 0.29344 0.0
N89 N 0.66914 0.1179 0.20013 0.0
C90 C 0.66638 0.11759 0.15345 0.0
C91 C 0.67926 0.12888 0.12387 0.0
C92 C 0.69476 0.14049 0.14263 0.0
C93 C 0.69721 0.14074 0.19086 0.0
C94 C 0.68391 0.12921 0.21862 0.0
H95 H 0.65449 0.10871 0.13885 0.0
O96 O 0.66034 0.0689 0.1993 0.0
O97 O 0.66036 0.08824 0.24252 0.0
O98 O 0.62845 0.06673 0.20221 0.0
O99 O 0.63535 0.09322 0.20441 0.0
C100 C 0.71239 0.15187 0.21245 0.0
C101 C 0.71411 0.1511 0.26105 0.0
H102 H 0.71288 0.1456 0.35519 0.0
H103 H 0.68811 0.12392 0.39821 0.0
H104 H 0.67726 0.12863 0.08669 0.0
H105 H 0.70468 0.14914 0.11967 0.0
H106 H 0.72286 0.16102 0.19196 0.0
H107 H 0.7259 0.1596 0.27714 0.0
Mn108 Mn 0.0603 0.48151 0.74212 0.0
Mn109 Mn 0.01959 0.47036 0.74328 0.0
C110 C 0.04127 0.45817 0.70335 0.0
C111 C 0.08219 0.48149 0.78091 0.0
C112 C 0.04604 0.49813 0.68335 0.0
O113 O 0.05863 0.49531 0.79336 0.0
O114 O 0.03077 0.48461 0.79797 0.0
C115 C 0.00856 0.44953 0.82815 0.0
N116 N 0.00705 0.45135 0.78167 0.0
C117 C 0.9844 0.42342 0.77564 0.0
C118 C 0.98563 0.42128 0.82353 0.0
C119 C 0.99779 0.43438 0.84986 0.0
C120 C 0.99545 0.43881 0.75596 0.0
H121 H 0.01794 0.45957 0.84843 0.0
C122 C 0.04567 0.49418 0.81252 0.0
O123 O 0.08507 0.49277 0.75024 0.0
O124 O 0.06672 0.47023 0.78824 0.0
N125 N 0.00714 0.45653 0.69249 0.0
C126 C 0.00799 0.46045 0.64641 0.0
C127 C 0.99681 0.44862 0.61512 0.0
C128 C 0.98479 0.43296 0.63155 0.0
C129 C 0.98403 0.42926 0.67918 0.0
C130 C 0.99539 0.4416 0.70879 0.0
H131 H 0.01715 0.47249 0.63356 0.0
O132 O 0.05712 0.46504 0.69378 0.0
O133 O 0.03714 0.46488 0.73636 0.0
O134 O 0.0582 0.496 0.69283 0.0
O135 O 0.0315 0.48972 0.70196 0.0
C136 C 0.97261 0.41376 0.69835 0.0
C137 C 0.97283 0.41083 0.74652 0.0
H138 H 0.97739 0.4096 0.84038 0.0
H139 H -0.00112 0.4328 0.88679 0.0
H140 H 0.99746 0.45157 0.57841 0.0
H141 H 0.97622 0.42386 0.60726 0.0
H142 H 0.96374 0.40395 0.67627 0.0
H143 H 0.96413 0.3988 0.76075 0.0
Mn144 Mn 0.63872 0.63106 0.75384 0.0
Mn145 Mn 0.60454 0.6345 0.74555 0.0
C146 C 0.63746 0.65097 0.79605 0.0
C147 C 0.66393 0.63639 0.72156 0.0
C148 C 0.60558 0.60771 0.80056 0.0
O149 O 0.62666 0.61755 0.69749 0.0
O150 O 0.60627 0.62345 0.68838 0.0
C151 C 0.61474 0.65792 0.66669 0.0
N152 N 0.6096 0.65391 0.71186 0.0
C153 C 0.60974 0.67913 0.72328 0.0
C154 C 0.61493 0.68349 0.67676 0.0
C155 C 0.61746 0.67285 0.64838 0.0
C156 C 0.60709 0.66404 0.73946 0.0
H157 H 0.61676 0.64979 0.64487 0.0
C158 C 0.61448 0.61662 0.675 0.0
O159 O 0.65522 0.62371 0.7484 0.0
O160 O 0.65817 0.64612 0.71452 0.0
N161 N 0.60138 0.64497 0.79846 0.0
C162 C 0.59751 0.63945 0.84332 0.0
C163 C 0.59511 0.64893 0.87667 0.0
C164 C 0.59664 0.66391 0.86351 0.0
C165 C 0.60059 0.66931 0.81711 0.0
C166 C 0.60268 0.65927 0.78531 0.0
H167 H 0.59632 0.62795 0.85365 0.0
O168 O 0.64799 0.64639 0.80717 0.0
O169 O 0.6284 0.64412 0.75935 0.0
O170 O 0.62122 0.61327 0.79644 0.0
O171 O 0.59803 0.61427 0.78143 0.0
C172 C 0.60289 0.68442 0.80138 0.0
C173 C 0.60747 0.68933 0.7545 0.0
H174 H 0.61717 0.69505 0.6626 0.0
H175 H 0.62155 0.67617 0.61253 0.0
H176 H 0.59212 0.6447 0.91245 0.0
H177 H 0.59485 0.67121 0.88938 0.0
H178 H 0.60141 0.69247 0.82521 0.0
H179 H 0.60944 0.70108 0.74299 0.0
Mn180 Mn 0.49535 0.0599 0.74764 0.0
Mn181 Mn 0.48605 0.02066 0.75815 0.0
C182 C 0.47156 0.04145 0.78721 0.0
C183 C 0.49459 0.07957 0.70098 0.0
C184 C 0.51204 0.04852 0.81711 0.0
O185 O 0.51079 0.05823 0.70142 0.0
O186 O 0.50207 0.03134 0.70497 0.0
C187 C 0.46765 0.00792 0.66995 0.0
N188 N 0.4681 0.00719 0.71731 0.0
C189 C 0.43984 0.98437 0.72075 0.0
C190 C 0.43911 0.98478 0.67197 0.0
C191 C 0.45307 0.99663 0.64649 0.0
C192 C 0.45472 0.9959 0.74219 0.0
H193 H 0.47832 0.01706 0.65027 0.0
C194 C 0.51124 0.04573 0.68749 0.0
O195 O 0.50575 0.08383 0.73334 0.0
O196 O 0.48392 0.06405 0.69648 0.0
N197 N 0.47066 0.00863 0.80774 0.0
C198 C 0.47326 0.01013 0.85463 0.0
C199 C 0.46039 -0.00064 0.88516 0.0
C200 C 0.44508 0.98705 0.86718 0.0
C201 C 0.44283 0.98553 0.81878 0.0
C202 C 0.45614 0.99655 0.79006 0.0
H203 H 0.485 0.01955 0.86868 0.0
O204 O 0.47768 0.05709 0.79238 0.0
O205 O 0.47917 0.03706 0.75737 0.0
O206 O 0.50976 0.05984 0.80123 0.0
O207 O 0.50425 0.03375 0.8022 0.0
C208 C 0.42783 0.97365 0.79792 0.0
C209 C 0.42631 0.97311 0.74895 0.0
H210 H 0.42787 0.97614 0.65375 0.0
H211 H 0.45258 0.99709 0.60886 0.0
H212 H 0.46225 0.00058 0.92247 0.0
H213 H 0.43513 0.97887 0.89084 0.0
H214 H 0.41732 0.96496 0.81922 0.0
H215 H 0.41465 0.96404 0.73335 0.0
Mn216 Mn 0.7227 0.95541 0.58656 0.0
Mn217 Mn 0.6827 0.924 0.58228 0.0
C218 C 0.70323 0.95912 0.54874 0.0
C219 C 0.74386 0.9771 0.62776 0.0
C220 C 0.71038 0.9265 0.51972 0.0
O221 O 0.72177 0.93941 0.63447 0.0
O222 O 0.69452 0.91997 0.6338 0.0
C223 C 0.6708 0.9298 0.67229 0.0
N224 N 0.66935 0.92801 0.62515 0.0
C225 C 0.64549 0.93153 0.62533 0.0
C226 C 0.64664 0.93329 0.67394 0.0
C227 C 0.65937 0.93245 0.69749 0.0
C228 C 0.65718 0.92884 0.60212 0.0
H229 H 0.68061 0.92924 0.69047 0.0
C230 C 0.70936 0.92615 0.64983 0.0
O231 O 0.74727 0.96955 0.59562 0.0
O232 O 0.72821 0.97213 0.63549 0.0
N233 N 0.66953 0.92596 0.53464 0.0
C234 C 0.67053 0.92464 0.48755 0.0
C235 C 0.65894 0.92564 0.45875 0.0
C236 C 0.64632 0.92775 0.47865 0.0
C237 C 0.64532 0.92873 0.52726 0.0
C238 C 0.65716 0.92757 0.55422 0.0
H239 H 0.6802 0.92301 0.47202 0.0
O240 O 0.71909 0.96899 0.54104 0.0
O241 O 0.69917 0.94769 0.58016 0.0
O242 O 0.72195 0.9404 0.53428 0.0
O243 O 0.69546 0.91913 0.53622 0.0
C244 C 0.63326 0.93117 0.54995 0.0
C245 C 0.63337 0.9326 0.59894 0.0
H246 H 0.6379 0.93541 0.69348 0.0
H247 H 0.6604 0.93389 0.73497 0.0
H248 H 0.65978 0.92484 0.42127 0.0
H249 H 0.63751 0.92869 0.45629 0.0
H250 H 0.62399 0.93219 0.53 0.0
H251 H 0.62416 0.93468 0.61593 0.0
Mn252 Mn 0.18066 0.80846 0.61115 0.0
Mn253 Mn 0.18502 0.84536 0.63497 0.0
C254 C 0.1585 0.8093 0.64491 0.0
C255 C 0.17524 0.78809 0.5571 0.0
C256 C 0.19999 0.82943 0.69314 0.0
O257 O 0.20167 0.82468 0.5754 0.0
O258 O 0.20079 0.84778 0.58444 0.0
C259 C 0.17311 0.8517 0.5465 0.0
N260 N 0.17221 0.85039 0.59385 0.0
C261 C 0.15153 0.85844 0.59757 0.0
C262 C 0.15229 0.85998 0.54882 0.0
C263 C 0.16308 0.85653 0.52318 0.0
C264 C 0.16183 0.85362 0.61886 0.0
H265 H 0.18144 0.84912 0.52677 0.0
C266 C 0.20703 0.83973 0.56634 0.0
O267 O 0.18427 0.7902 0.5936 0.0
O268 O 0.16945 0.79789 0.55194 0.0
N269 N 0.17065 0.84523 0.68335 0.0
C270 C 0.17056 0.84204 0.72974 0.0
C271 C 0.16009 0.84441 0.76022 0.0
C272 C 0.14996 0.8502 0.74281 0.0
C273 C 0.15037 0.85354 0.69503 0.0
C274 C 0.16115 0.85106 0.66638 0.0
H275 H 0.17844 0.83776 0.74344 0.0
O276 O 0.15912 0.79593 0.64558 0.0
O277 O 0.17055 0.82174 0.62228 0.0
O278 O 0.19313 0.81554 0.67304 0.0
O279 O 0.1985 0.84145 0.67979 0.0
C280 C 0.1402 0.85883 0.6745 0.0
C281 C 0.14073 0.86122 0.62579 0.0
H282 H 0.14454 0.86365 0.5307 0.0
H283 H 0.16368 0.85762 0.48555 0.0
H284 H 0.15986 0.84183 0.79707 0.0
H285 H 0.14181 0.85191 0.76639 0.0
H286 H 0.13169 0.86079 0.69576 0.0
H287 H 0.13264 0.865 0.61033 0.0
Mn288 Mn 0.30732 0.39056 0.58521 0.0
Mn289 Mn 0.27253 0.35311 0.58454 0.0
C290 C 0.30715 0.36926 0.62377 0.0
C291 C 0.33191 0.40954 0.5479 0.0
C292 C 0.27662 0.38104 0.64574 0.0
O293 O 0.29347 0.39241 0.53436 0.0
O294 O 0.2718 0.36645 0.53172 0.0
C295 C 0.279 0.34076 0.49681 0.0
N296 N 0.27596 0.33917 0.54363 0.0
C297 C 0.27734 0.31451 0.54629 0.0
C298 C 0.28036 0.31582 0.49803 0.0
C299 C 0.28121 0.32901 0.47321 0.0
C300 C 0.27513 0.32653 0.56786 0.0
H301 H 0.27978 0.35095 0.47769 0.0
C302 C 0.27983 0.38131 0.51679 0.0
O303 O 0.3247 0.41424 0.57806 0.0
O304 O 0.32474 0.39398 0.53943 0.0
N305 N 0.27154 0.33889 0.63348 0.0
C306 C 0.26902 0.33968 0.68007 0.0
C307 C 0.26817 0.32754 0.71002 0.0
C308 C 0.26978 0.31466 0.69175 0.0
C309 C 0.27206 0.31395 0.6436 0.0
C310 C 0.27264 0.3263 0.6154 0.0
H311 H 0.26783 0.34958 0.69434 0.0
O312 O 0.31827 0.3843 0.63344 0.0
O313 O 0.29677 0.36713 0.59061 0.0
O314 O 0.29175 0.39138 0.63437 0.0
O315 O 0.26827 0.36666 0.62834 0.0
C316 C 0.27407 0.30162 0.62256 0.0
C317 C 0.27672 0.30191 0.57395 0.0
H318 H 0.28217 0.30684 0.47974 0.0
H319 H 0.28363 0.33016 0.436 0.0
H320 H 0.26637 0.32816 0.74714 0.0
H321 H 0.26931 0.30543 0.71503 0.0
H322 H 0.27378 0.29196 0.64351 0.0
H323 H 0.27842 0.29246 0.55825 0.0
Mn324 Mn 0.73822 0.8206 0.08241 0.0
Mn325 Mn 0.777 0.85407 0.08305 0.0
C326 C 0.75881 0.82005 0.12453 0.0
C327 C 0.71852 0.79679 0.04543 0.0
C328 C 0.7483 0.85094 0.14205 0.0
O329 O 0.73781 0.83426 0.02915 0.0
O330 O 0.76422 0.85556 0.02954 0.0
C331 C 0.78976 0.8474 0.99593 0.0
N332 N 0.79119 0.85039 0.04261 0.0
C333 C 0.81643 0.84924 0.04557 0.0
C334 C 0.81529 0.84627 0.99746 0.0
C335 C 0.80188 0.8453 0.97257 0.0
C336 C 0.80401 0.85129 0.06692 0.0
H337 H 0.77943 0.84659 0.97672 0.0
C338 C 0.74946 0.84778 0.01255 0.0
O339 O 0.71394 0.80456 0.07359 0.0
O340 O 0.73443 0.80282 0.03912 0.0
N341 N 0.79098 0.85452 0.13229 0.0
C342 C 0.78983 0.85673 0.17884 0.0
C343 C 0.80212 0.85766 0.20886 0.0
C344 C 0.81555 0.85648 0.19067 0.0
C345 C 0.81653 0.85434 0.14262 0.0
C346 C 0.80399 0.85365 0.11435 0.0
H347 H 0.77956 0.8577 0.19299 0.0
O348 O 0.74316 0.8096 0.13328 0.0
O349 O 0.76202 0.83023 0.09 0.0
O350 O 0.73738 0.83649 0.12916 0.0
O351 O 0.76333 0.85867 0.12642 0.0
C352 C 0.82931 0.85259 0.12177 0.0
C353 C 0.82924 0.85 0.0733 0.0
H354 H 0.82458 0.84458 0.97934 0.0
H355 H 0.80087 0.84293 0.93548 0.0
H356 H 0.80126 0.85928 0.24593 0.0
H357 H 0.82501 0.85721 0.21392 0.0
H358 H 0.83915 0.85302 0.14278 0.0
H359 H 0.83901 0.84848 0.05776 0.0
Mn360 Mn 0.29917 0.95794 0.10126 0.0
Mn361 Mn 0.26262 0.95541 0.12967 0.0
C362 C 0.29951 0.97909 0.14065 0.0
C363 C 0.32 0.96387 0.04648 0.0
C364 C 0.27689 0.9379 0.1834 0.0
O365 O 0.28239 0.93923 0.06233 0.0
O366 O 0.25862 0.93892 0.08035 0.0
C367 C 0.25737 0.96764 0.04022 0.0
N368 N 0.25918 0.96898 0.08737 0.0
C369 C 0.25669 0.99303 0.08798 0.0
C370 C 0.25467 0.99184 0.03947 0.0
C371 C 0.25504 0.9791 0.01549 0.0
C372 C 0.25891 0.98122 0.11075 0.0
H373 H 0.25777 0.95793 0.02165 0.0
C374 C 0.26677 0.93343 0.05811 0.0
O375 O 0.31704 0.95368 0.08058 0.0
O376 O 0.31086 0.97059 0.04437 0.0
N377 N 0.26425 0.97043 0.17681 0.0
C378 C 0.26649 0.9699 0.22354 0.0
C379 C 0.26662 0.9819 0.25255 0.0
C380 C 0.26424 0.99419 0.23332 0.0
C381 C 0.26154 0.99423 0.18531 0.0
C382 C 0.2614 0.98188 0.1582 0.0
H383 H 0.26834 0.96049 0.23848 0.0
O384 O 0.31257 0.97752 0.14021 0.0
O385 O 0.28674 0.96855 0.11626 0.0
O386 O 0.29033 0.94337 0.15938 0.0
O387 O 0.26567 0.94155 0.17516 0.0
C388 C 0.25919 0.00617 0.16319 0.0
C389 C 0.2568 0.00559 0.11455 0.0
H390 H 0.25294 0.00069 0.02024 0.0
H391 H 0.25358 0.97815 0.97802 0.0
H392 H 0.26863 0.98173 0.2896 0.0
H393 H 0.26453 0.00352 0.25573 0.0
H394 H 0.25933 0.01594 0.1832 0.0
H395 H 0.25514 0.01491 0.09788 0.0
Mn396 Mn 0.16862 0.40589 0.08794 0.0
Mn397 Mn 0.16055 0.36705 0.09841 0.0
C398 C 0.14643 0.38749 0.13354 0.0
C399 C 0.16551 0.42464 0.04311 0.0
C400 C 0.18871 0.39612 0.1488 0.0
O401 O 0.18261 0.40395 0.03673 0.0
O402 O 0.17352 0.37694 0.04001 0.0
C403 C 0.13782 0.35206 0.01859 0.0
N404 N 0.14082 0.35235 0.06506 0.0
C405 C 0.11364 0.32861 0.07912 0.0
C406 C 0.11029 0.32799 0.03134 0.0
C407 C 0.12242 0.3398 0.00098 0.0
C408 C 0.12922 0.34109 0.09461 0.0
H409 H 0.14711 0.36114 0.99521 0.0
C410 C 0.18218 0.39116 0.02114 0.0
O411 O 0.17787 0.42958 0.07196 0.0
O412 O 0.15507 0.40899 0.04097 0.0
N413 N 0.14805 0.35585 0.15334 0.0
C414 C 0.15296 0.35862 0.19869 0.0
C415 C 0.14211 0.34811 0.23369 0.0
C416 C 0.12641 0.33479 0.22168 0.0
C417 C 0.12173 0.33206 0.17474 0.0
C418 C 0.13312 0.34286 0.14134 0.0
H419 H 0.16504 0.36879 0.20813 0.0
O420 O 0.15235 0.40312 0.13794 0.0
O421 O 0.15324 0.38309 0.1013 0.0
O422 O 0.18515 0.40697 0.13679 0.0
O423 O 0.18075 0.38128 0.13461 0.0
C424 C 0.10608 0.31922 0.15984 0.0
C425 C 0.10202 0.31752 0.11208 0.0
H426 H 0.0984 0.31859 0.01764 0.0
H427 H 0.1199 0.33944 0.9641 0.0
H428 H 0.14583 0.35029 0.26985 0.0
H429 H 0.11804 0.32677 0.24881 0.0
H430 H 0.09698 0.31073 0.1849 0.0
H431 H 0.08987 0.30775 0.10113 0.0
Mn432 Mn 0.39323 0.28738 0.91273 0.0
Mn433 Mn 0.35454 0.25405 0.90472 0.0
C434 C 0.37414 0.28789 0.86318 0.0
C435 C 0.4116 0.31096 0.95302 0.0
C436 C 0.38511 0.25687 0.85661 0.0
O437 O 0.39176 0.27365 0.96854 0.0
O438 O 0.36516 0.25284 0.9633 0.0
C439 C 0.33878 0.26125 0.98409 0.0
N440 N 0.33905 0.25798 0.93796 0.0
C441 C 0.31376 0.25838 0.92456 0.0
C442 C 0.31314 0.26166 0.97199 0.0
C443 C 0.32575 0.26317 0.00183 0.0
C444 C 0.32712 0.25673 0.90883 0.0
H445 H 0.34842 0.26237 0.00714 0.0
C446 C 0.37927 0.26043 0.98386 0.0
O447 O 0.41709 0.3035 0.9268 0.0
O448 O 0.39556 0.30493 0.9549 0.0
N449 N 0.3425 0.25328 0.85014 0.0
C450 C 0.34515 0.25047 0.80515 0.0
C451 C 0.33378 0.24886 0.7707 0.0
C452 C 0.31965 0.24982 0.78299 0.0
C453 C 0.31705 0.25246 0.82964 0.0
C454 C 0.32884 0.25405 0.8624 0.0
H455 H 0.35587 0.24951 0.79561 0.0
O456 O 0.39 0.29845 0.85835 0.0
O457 O 0.36982 0.27777 0.89832 0.0
O458 O 0.39559 0.2715 0.86924 0.0
O459 O 0.36968 0.24924 0.86878 0.0
C460 C 0.30322 0.25358 0.84496 0.0
C461 C 0.30167 0.25671 0.89227 0.0
H462 H 0.30308 0.26308 0.98583 0.0
H463 H 0.3254 0.26576 0.03845 0.0
H464 H 0.33585 0.24678 0.7348 0.0
H465 H 0.31087 0.24849 0.75633 0.0
H466 H 0.29374 0.25214 0.8206 0.0
H467 H 0.29111 0.25778 0.90346 0.0
Mn468 Mn 0.83988 0.1431 0.92083 0.0
Mn469 Mn 0.83145 0.17373 0.92625 0.0
C470 C 0.82154 0.14242 0.97652 0.0
C471 C 0.83376 0.11821 0.88817 0.0
C472 C 0.86335 0.17668 0.96306 0.0
O473 O 0.8485 0.15472 0.85863 0.0
O474 O 0.84087 0.17375 0.86386 0.0
C475 C 0.80398 0.16084 0.858 0.0
N476 N 0.80969 0.16622 0.90177 0.0
C477 C 0.78306 0.1623 0.92619 0.0
C478 C 0.77691 0.15682 0.88127 0.0
C479 C 0.78741 0.15605 0.84708 0.0
C480 C 0.79968 0.16694 0.935 0.0
H481 H 0.812 0.16019 0.83169 0.0
C482 C 0.84735 0.16655 0.84183 0.0
O483 O 0.84838 0.12797 0.90588 0.0
O484 O 0.82299 0.12302 0.8892 0.0
N485 N 0.8222 0.17519 0.9847 0.0
C486 C 0.82985 0.18011 0.02678 0.0
C487 C 0.82096 0.18126 0.06501 0.0
C488 C 0.80438 0.17748 0.0595 0.0
C489 C 0.79683 0.17261 0.01575 0.0
C490 C 0.80635 0.17182 0.97883 0.0
H491 H 0.84262 0.18309 0.03118 0.0
O492 O 0.8285 0.13365 0.98195 0.0
O493 O 0.82533 0.15104 0.9384 0.0
O494 O 0.85983 0.16204 0.95423 0.0
O495 O 0.85377 0.18223 0.95309 0.0
C496 C 0.78017 0.16832 0.00744 0.0
C497 C 0.77327 0.1631 0.96275 0.0
H498 H 0.76413 0.15305 0.87275 0.0
H499 H 0.78274 0.15175 0.81241 0.0
H500 H 0.82688 0.18503 0.09866 0.0
H501 H 0.79754 0.1783 0.08915 0.0
H502 H 0.77249 0.16881 0.03529 0.0
H503 H 0.76037 0.1596 0.95697 0.0
Mn504 Mn 0.98214 0.73749 0.89996 0.0
Mn505 Mn 0.9876 0.7753 0.88532 0.0
C506 C 0.00552 0.75706 0.86103 0.0
C507 C 0.98461 0.71894 0.94736 0.0
C508 C 0.9643 0.74604 0.82617 0.0
O509 O 0.96534 0.73764 0.94423 0.0
O510 O 0.97107 0.76362 0.93691 0.0
C511 C 0.00388 0.78983 0.97505 0.0
N512 N 0.00405 0.7903 0.92758 0.0
C513 C 0.03043 0.81571 0.92618 0.0
C514 C 0.03049 0.81556 0.97508 0.0
C515 C 0.01717 0.80254 -0.00039 0.0
C516 C 0.0168 0.80276 0.90363 0.0
H517 H 0.99368 0.77981 0.99399 0.0
C518 C 0.96303 0.7493 0.95555 0.0
O519 O 0.97356 0.71391 0.91448 0.0
O520 O 0.99405 0.73466 0.95266 0.0
N521 N 0.00315 0.78823 0.83706 0.0
C522 C 0.00175 0.78593 0.79003 0.0
C523 C 0.0144 0.79752 0.76044 0.0
C524 C 0.02821 0.81146 0.77943 0.0
C525 C 0.02925 0.81368 0.82788 0.0
C526 C 0.01624 0.80174 0.85564 0.0
H527 H 0.99116 0.77525 0.77524 0.0
O528 O 0.00062 0.74162 0.85715 0.0
O529 O 0.99694 0.76079 0.88962 0.0
O530 O 0.96752 0.7357 0.84456 0.0
O531 O 0.97082 0.76088 0.83975 0.0
C532 C 0.04293 0.82701 0.84982 0.0
C533 C 0.04353 0.82801 0.89893 0.0
H534 H 0.04076 0.82529 0.99415 0.0
H535 H 0.01717 0.80229 0.03734 0.0
H536 H 0.01353 0.7957 0.72309 0.0
H537 H 0.03802 0.82029 0.75651 0.0
H538 H 0.0532 0.83641 0.82927 0.0
H539 H 0.05423 0.83819 0.91539 0.0
Mn540 Mn 0.39761 0.14829 0.41209 0.0
Mn541 Mn 0.35896 0.14243 0.42756 0.0
C542 C 0.37566 0.12772 0.37153 0.0
C543 C 0.41849 0.14423 0.4411 0.0
C544 C 0.38592 0.16971 0.36766 0.0
O545 O 0.3998 0.16193 0.4689 0.0
O546 O 0.37291 0.1542 0.48224 0.0
C547 C 0.34802 0.11941 0.50762 0.0
N548 N 0.34558 0.12294 0.46339 0.0
C549 C 0.31977 0.09716 0.45762 0.0
C550 C 0.32194 0.09327 0.50322 0.0
C551 C 0.33617 0.10442 0.52824 0.0
C552 C 0.33207 0.11222 0.43878 0.0
H553 H 0.35893 0.12797 0.52699 0.0
C554 C 0.38834 0.1619 0.49355 0.0
O555 O 0.4221 0.15661 0.41388 0.0
O556 O 0.4028 0.1341 0.45017 0.0
N557 N 0.34385 0.1311 0.37783 0.0
C558 C 0.34386 0.13653 0.33381 0.0
C559 C 0.33061 0.12669 0.30388 0.0
C560 C 0.31734 0.11154 0.3198 0.0
C561 C 0.31748 0.10633 0.3655 0.0
C562 C 0.33106 0.11662 0.39363 0.0
H563 H 0.35391 0.14825 0.32157 0.0
O564 O 0.39098 0.13282 0.35883 0.0
O565 O 0.37366 0.13416 0.40935 0.0
O566 O 0.39676 0.16529 0.37028 0.0
O567 O 0.37186 0.16256 0.38941 0.0
C568 C 0.30467 0.09135 0.38427 0.0
C569 C 0.3059 0.08668 0.4301 0.0
H570 H 0.31279 0.08175 0.5193 0.0
H571 H 0.33797 0.10149 0.56339 0.0
H572 H 0.33057 0.13081 0.26871 0.0
H573 H 0.30712 0.10402 0.29665 0.0
H574 H 0.29385 0.08326 0.36369 0.0
H575 H 0.2961 0.07502 0.44385 0.0
Mn576 Mn 0.96816 0.29184 0.41918 0.0
Mn577 Mn 0.93265 0.29297 0.41169 0.0
C578 C 0.96375 0.30816 0.46927 0.0
C579 C 0.99511 0.30139 0.39202 0.0
C580 C 0.9345 0.26522 0.45802 0.0
O581 O 0.95876 0.28127 0.35707 0.0
O582 O 0.93612 0.28392 0.35265 0.0
C583 C 0.94357 0.31841 0.33813 0.0
N584 N 0.93762 0.31305 0.38211 0.0
C585 C 0.93696 0.33759 0.39873 0.0
C586 C 0.94296 0.34333 0.3535 0.0
C587 C 0.94632 0.33371 0.32311 0.0
C588 C 0.93441 0.32223 0.41168 0.0
H589 H 0.94624 0.31109 0.31475 0.0
C590 C 0.94598 0.27944 0.33579 0.0
O591 O 0.98659 0.28701 0.41164 0.0
O592 O 0.98796 0.31002 0.38836 0.0
N593 N 0.92774 0.3015 0.46611 0.0
C594 C 0.92274 0.29453 0.50923 0.0
C595 C 0.91931 0.3028 0.5442 0.0
C596 C 0.92091 0.31807 0.53436 0.0
C597 C 0.92588 0.3249 0.48956 0.0
C598 C 0.92907 0.31606 0.45609 0.0
H599 H 0.92151 0.28281 0.51697 0.0
O600 O 0.97465 0.30394 0.47898 0.0
O601 O 0.95613 0.30308 0.42958 0.0
O602 O 0.95022 0.27126 0.45294 0.0
O603 O 0.92662 0.27213 0.44339 0.0
C604 C 0.92799 0.34022 0.47697 0.0
C605 C 0.93361 0.3466 0.43167 0.0
H606 H 0.94516 0.35515 0.34184 0.0
H607 H 0.95104 0.33809 0.28822 0.0
H608 H 0.91548 0.29745 0.57869 0.0
H609 H 0.91837 0.32446 0.56152 0.0
H610 H 0.92547 0.34727 0.50197 0.0
H611 H 0.93541 0.3585 0.42263 0.0
Mn612 Mn 0.82737 0.71601 0.39827 0.0
Mn613 Mn 0.82191 0.67795 0.39521 0.0
C614 C 0.80685 0.69568 0.44363 0.0
C615 C 0.82258 0.73555 0.36485 0.0
C616 C 0.84911 0.70575 0.45095 0.0
O617 O 0.84052 0.71667 0.34143 0.0
O618 O 0.83536 0.6908 0.33963 0.0
C619 C 0.80032 0.66598 0.31213 0.0
N620 N 0.80287 0.66427 0.35797 0.0
C621 C 0.77603 0.63951 0.36483 0.0
C622 C 0.77316 0.64093 0.3176 0.0
C623 C 0.78535 0.65424 0.29118 0.0
C624 C 0.79121 0.65155 0.38376 0.0
H625 H 0.80962 0.67623 0.29176 0.0
C626 C 0.84204 0.70535 0.32273 0.0
O627 O 0.83567 0.73987 0.39029 0.0
O628 O 0.81231 0.71997 0.35938 0.0
N629 N 0.80915 0.66392 0.4461 0.0
C630 C 0.81355 0.66473 0.49166 0.0
C631 C 0.80257 0.65249 0.52305 0.0
C632 C 0.7873 0.63945 0.50718 0.0
C633 C 0.78312 0.63879 0.46006 0.0
C634 C 0.79462 0.65127 0.43032 0.0
H635 H 0.8253 0.67469 0.50404 0.0
O636 O 0.81229 0.711 0.4527 0.0
O637 O 0.81311 0.69263 0.40674 0.0
O638 O 0.84531 0.71654 0.44039 0.0
O639 O 0.84138 0.69111 0.43526 0.0
C640 C 0.76788 0.62639 0.4416 0.0
C641 C 0.76432 0.62677 0.39405 0.0
H642 H 0.7616 0.63194 0.30136 0.0
H643 H 0.78319 0.65547 0.25477 0.0
H644 H 0.80587 0.65309 0.55939 0.0
H645 H 0.77884 0.63005 0.53149 0.0
H646 H 0.75872 0.61661 0.4638 0.0
H647 H 0.75247 0.61728 0.38039 0.0
H648 H 0.07442 0.51328 0.86134 0.0
H649 H 0.07833 0.53135 0.92696 0.0
H650 H 0.02634 0.51714 0.92144 0.0
H651 H 0.02221 0.49901 0.85596 0.0
H652 H 0.05238 0.55331 0.92208 0.0
H653 H 0.05766 0.51605 0.06408 0.0
H654 H 0.06955 0.51929 0.0111 0.0
H655 H 0.04718 0.50702 0.01 0.0
C656 C 0.06378 0.51393 0.87413 0.0
C657 C 0.04799 0.50469 0.85329 0.0
C658 C 0.06605 0.52422 0.9117 0.0
C659 C 0.0526 0.52547 0.92892 0.0
C660 C 0.03684 0.51627 0.90849 0.0
H661 H 0.02767 0.56344 0.16206 0.0
H662 H 0.03114 0.54744 0.10118 0.0
C663 C 0.03452 0.5059 0.87116 0.0
C664 C 0.05495 0.53669 0.96756 0.0
H665 H 0.05919 0.54077 0.08565 0.0
C666 C 0.05407 0.55072 0.95781 0.0
C667 C 0.0571 0.53313 0.01393 0.0
C668 C 0.05786 0.51803 0.02583 0.0
C669 C 0.05491 0.56117 0.9936 0.0
C670 C 0.05673 0.55746 0.04012 0.0
C671 C 0.05795 0.5436 0.04978 0.0
C672 C 0.05566 0.56692 0.07943 0.0
C673 C 0.05318 0.57575 0.98181 0.0
C674 C 0.06849 0.58306 0.08779 0.0
C675 C 0.0666 0.59229 0.12277 0.0
C676 C 0.05177 0.5855 0.1496 0.0
C677 C 0.0392 0.56911 0.14187 0.0
C678 C 0.04116 0.55991 0.10723 0.0
H679 H 0.04996 0.57584 0.94464 0.0
H680 H 0.04337 0.57578 0.00412 0.0
H681 H 0.06515 0.58722 0.98882 0.0
H682 H 0.07981 0.58861 0.06667 0.0
H683 H 0.07652 0.60487 0.12783 0.0
H684 H 0.61481 0.60002 0.88179 0.0
H685 H 0.59721 0.57739 0.93472 0.0
H686 H 0.55655 0.5595 0.83713 0.0
H687 H 0.57386 0.58282 0.78555 0.0
H688 H 0.54539 0.56043 0.9159 0.0
H689 H 0.58196 0.53043 0.94327 0.0
H690 H 0.59499 0.55176 0.9561 0.0
H691 H 0.58726 0.54548 0.8977 0.0
C692 C 0.6022 0.59109 0.87143 0.0
C693 C 0.59561 0.59313 0.82989 0.0
C694 C 0.59219 0.57803 0.9014 0.0
C695 C 0.57563 0.56648 0.88954 0.0
C696 C 0.5693 0.5682 0.847 0.0
H697 H 0.52154 0.49259 0.10948 0.0
H698 H 0.53385 0.50401 0.03275 0.0
C699 C 0.57915 0.58152 0.81764 0.0
C700 C 0.56439 0.55397 0.92412 0.0
H701 H 0.56355 0.52817 0.00843 0.0
C702 C 0.54921 0.55308 0.93529 0.0
C703 C 0.56902 0.54398 0.94882 0.0
C704 C 0.58411 0.54284 0.93534 0.0
C705 C 0.53922 0.54349 0.97265 0.0
C706 C 0.54494 0.53515 0.00086 0.0
C707 C 0.55939 0.53494 0.98753 0.0
C708 C 0.53696 0.52788 0.04634 0.0
C709 C 0.52281 0.54267 0.98189 0.0
C710 C 0.53491 0.53759 0.07958 0.0
C711 C 0.52771 0.53108 0.12291 0.0
C712 C 0.52282 0.51482 0.13438 0.0
C713 C 0.52522 0.50518 0.10154 0.0
C714 C 0.5322 0.51166 0.05774 0.0
H715 H 0.51734 0.54389 0.94892 0.0
H716 H 0.51359 0.53097 -0.00077 0.0
H717 H 0.52498 0.55302 0.00468 0.0
H718 H 0.53907 0.55033 0.07222 0.0
H719 H 0.52625 0.53888 0.14776 0.0
H720 H 0.60567 0.04963 0.14458 0.0
H721 H 0.58622 0.04515 0.08171 0.0
H722 H 0.60032 0.09608 0.08646 0.0
H723 H 0.61966 0.10073 0.14951 0.0
H724 H 0.56549 0.07403 0.0821 0.0
H725 H 0.60028 0.06125 0.94633 0.0
H726 H 0.59525 0.04885 -0.00192 0.0
H727 H 0.60942 0.07061 0.0014 0.0
C728 C 0.60463 0.05989 0.1324 0.0
C729 C 0.61432 0.07556 0.15205 0.0
C730 C 0.59357 0.05731 0.09629 0.0
C731 C 0.59207 0.07035 0.07904 0.0
C732 C 0.6014 0.08589 0.09918 0.0
H733 H 0.53182 0.07823 0.85973 0.0
H734 H 0.55145 0.08423 0.92344 0.0
C735 C 0.61245 0.0885 0.13525 0.0
C736 C 0.58073 0.06781 0.03999 0.0
H737 H 0.5736 0.05668 0.92561 0.0
C738 C 0.56728 0.07032 0.04778 0.0
C739 C 0.58321 0.06305 0.99531 0.0
C740 C 0.5979 0.06092 0.98447 0.0
C741 C 0.55592 0.06774 0.01227 0.0
C742 C 0.55829 0.0628 0.96775 0.0
C743 C 0.57185 0.06046 0.95985 0.0
C744 C 0.5465 0.05937 0.92925 0.0
C745 C 0.54123 0.06987 0.023 0.0
C746 C 0.53753 0.04351 0.9109 0.0
C747 C 0.52642 0.04006 0.87446 0.0
C748 C 0.52409 0.05244 0.85539 0.0
C749 C 0.53324 0.06839 0.87364 0.0
C750 C 0.54439 0.07183 0.91021 0.0
H751 H 0.5392 0.07018 0.06114 0.0
H752 H 0.54358 0.08162 0.00765 0.0
H753 H 0.52961 0.0598 0.00751 0.0
H754 H 0.53905 0.03375 0.92507 0.0
H755 H 0.51961 0.02762 0.86142 0.0
H756 H 0.61037 0.04946 0.36531 0.0
H757 H 0.59027 0.04372 0.42807 0.0
H758 H 0.60246 0.09413 0.42549 0.0
H759 H 0.62257 0.10007 0.36196 0.0
H760 H 0.59526 0.05812 0.51678 0.0
H761 H 0.55122 0.06752 0.40995 0.0
H762 H 0.56763 0.06506 0.3844 0.0
H763 H 0.57244 0.08437 0.40925 0.0
C764 C 0.60884 0.0594 0.37794 0.0
C765 C 0.618 0.07523 0.35821 0.0
C766 C 0.59735 0.05606 0.41391 0.0
C767 C 0.59474 0.06843 0.43077 0.0
C768 C 0.60412 0.08435 0.4122 0.0
H769 H 0.53188 0.0742 0.64053 0.0
H770 H 0.55185 0.07871 0.57862 0.0
C771 C 0.61566 0.08774 0.37611 0.0
C772 C 0.58211 0.06456 0.46777 0.0
H773 H 0.54533 0.06309 0.49095 0.0
C774 C 0.5843 0.05914 0.5112 0.0
C775 C 0.56781 0.06581 0.46001 0.0
C776 C 0.56449 0.07087 0.41328 0.0
C777 C 0.57272 0.05531 0.54768 0.0
C778 C 0.55852 0.05673 0.54006 0.0
C779 C 0.55626 0.06201 0.49649 0.0
C780 C 0.54626 0.0536 0.57754 0.0
C781 C 0.57598 0.0502 0.59441 0.0
C782 C 0.53637 0.03788 0.59703 0.0
C783 C 0.52487 0.0352 0.63269 0.0
C784 C 0.52309 0.04821 0.6492 0.0
C785 C 0.53293 0.06388 0.62894 0.0
C786 C 0.54436 0.06652 0.59344 0.0
H787 H 0.58906 0.05293 0.59723 0.0
H788 H 0.57344 0.05651 0.62315 0.0
H789 H 0.56749 0.0368 0.59921 0.0
H790 H 0.5375 0.02771 0.58454 0.0
H791 H 0.51743 0.02298 0.64732 0.0
H792 H 0.0213 0.57036 0.35106 0.0
H793 H 0.02369 0.55513 0.41643 0.0
H794 H 0.07554 0.5924 0.43192 0.0
H795 H 0.07335 0.60779 0.36672 0.0
H796 H 0.04773 0.54382 0.42071 0.0
H797 H 0.05397 0.58571 0.56532 0.0
H798 H 0.04522 0.58599 0.50957 0.0
H799 H 0.06739 0.59489 0.51518 0.0
C800 C 0.03319 0.57542 0.36855 0.0
C801 C 0.04713 0.59031 0.35354 0.0
C802 C 0.03453 0.56667 0.4058 0.0
C803 C 0.04976 0.57272 0.429 0.0
C804 C 0.06364 0.58764 0.41467 0.0
H805 H 0.0723 0.51466 0.62161 0.0
H806 H 0.07503 0.53389 0.56004 0.0
C807 C 0.06235 0.59637 0.37728 0.0
C808 C 0.05121 0.56309 0.46725 0.0
H809 H 0.05593 0.56256 0.58501 0.0
C810 C 0.04963 0.54792 0.45662 0.0
C811 C 0.05365 0.56856 0.51391 0.0
C812 C 0.05505 0.58462 0.52704 0.0
C813 C 0.05022 0.53792 0.4917 0.0
C814 C 0.05256 0.54333 0.53842 0.0
C815 C 0.05431 0.55858 0.549 0.0
C816 C 0.05171 0.53265 0.57717 0.0
C817 C 0.04781 0.52142 0.47889 0.0
C818 C 0.03789 0.52595 0.60756 0.0
C819 C 0.03627 0.51499 0.64251 0.0
C820 C 0.04851 0.5106 0.64802 0.0
C821 C 0.06265 0.51776 0.61833 0.0
C822 C 0.0642 0.52869 0.58306 0.0
H823 H 0.04379 0.5181 0.44218 0.0
H824 H 0.05978 0.52166 0.48339 0.0
H825 H 0.03834 0.51171 0.50226 0.0
H826 H 0.02815 0.52891 0.60352 0.0
H827 H 0.02527 0.50982 0.66488 0.0
H828 H 0.58673 0.60776 0.62222 0.0
H829 H 0.57672 0.58883 0.55646 0.0
H830 H 0.61978 0.58321 0.566 0.0
H831 H 0.63003 0.60221 0.6315 0.0
H832 H 0.6114 0.58721 0.47321 0.0
H833 H 0.55716 0.53873 0.57251 0.0
H834 H 0.55863 0.55837 0.57452 0.0
H835 H 0.57473 0.55585 0.6004 0.0
C836 C 0.59417 0.60263 0.61018 0.0
C837 C 0.6091 0.60639 0.63251 0.0
C838 C 0.58837 0.59173 0.5728 0.0
C839 C 0.59737 0.58442 0.55714 0.0
C840 C 0.6126 0.58864 0.57796 0.0
H841 H 0.5423 0.50202 0.36747 0.0
H842 H 0.563 0.51825 0.42695 0.0
C843 C 0.6184 0.59949 0.61542 0.0
C844 C 0.5907 0.5722 0.51938 0.0
H845 H 0.55635 0.53592 0.48952 0.0
C846 C 0.59949 0.57587 0.47685 0.0
C847 C 0.5754 0.55723 0.52476 0.0
C848 C 0.56599 0.55219 0.57066 0.0
C849 C 0.59275 0.56543 0.43839 0.0
C850 C 0.57678 0.55113 0.44269 0.0
C851 C 0.56857 0.54693 0.48619 0.0
C852 C 0.56727 0.54162 0.40166 0.0
C853 C 0.60259 0.57 0.39325 0.0
C854 C 0.56316 0.54943 0.36722 0.0
C855 C 0.55138 0.54024 0.33355 0.0
C856 C 0.5434 0.52304 0.33375 0.0
C857 C 0.54832 0.51526 0.36633 0.0
C858 C 0.56009 0.5245 0.40034 0.0
H859 H 0.61625 0.57732 0.39974 0.0
H860 H 0.59982 0.55896 0.37285 0.0
H861 H 0.59924 0.57766 0.37194 0.0
H862 H 0.56825 0.56256 0.36812 0.0
H863 H 0.54791 0.54659 0.30875 0.0
H864 H 0.71783 0.83914 0.18565 0.0
H865 H 0.71082 0.85204 0.24867 0.0
H866 H 0.76099 0.89377 0.24389 0.0
H867 H 0.76823 0.88102 0.18135 0.0
H868 H 0.7495 0.88031 0.3339 0.0
H869 H 0.70395 0.89172 0.24221 0.0
H870 H 0.69989 0.87107 0.2388 0.0
H871 H 0.71835 0.88747 0.21151 0.0
C872 C 0.72735 0.85113 0.19765 0.0
C873 C 0.7436 0.85903 0.17831 0.0
C874 C 0.72328 0.8585 0.23353 0.0
C875 C 0.73535 0.87391 0.25048 0.0
C876 C 0.7515 0.88189 0.23107 0.0
H877 H 0.74025 0.93793 0.47328 0.0
H878 H 0.74629 0.92501 0.40835 0.0
C879 C 0.75559 0.87457 0.19524 0.0
C880 C 0.73144 0.88142 0.29001 0.0
H881 H 0.70691 0.89689 0.32341 0.0
C882 C 0.74023 0.88399 0.33164 0.0
C883 C 0.7193 0.88613 0.28681 0.0
C884 C 0.7099 0.88411 0.24235 0.0
C885 C 0.73707 0.891 0.37052 0.0
C886 C 0.72502 0.89582 0.36725 0.0
C887 C 0.71616 0.89318 0.32568 0.0
C888 C 0.7214 0.90363 0.40663 0.0
C889 C 0.74643 0.8929 0.41502 0.0
C890 C 0.70532 0.89602 0.42644 0.0
C891 C 0.70178 0.9034 0.46337 0.0
C892 C 0.71426 0.91858 0.48106 0.0
C893 C 0.73037 0.9262 0.46082 0.0
C894 C 0.73387 0.91881 0.42383 0.0
H895 H 0.75191 0.88487 0.41553 0.0
H896 H 0.75681 0.9058 0.41801 0.0
H897 H 0.73809 0.88997 0.44597 0.0
H898 H 0.69551 0.88433 0.41343 0.0
H899 H 0.68922 0.89719 0.47788 0.0
H900 H 0.21947 0.82622 0.50496 0.0
H901 H 0.23896 0.84016 0.43991 0.0
H902 H 0.24395 0.8861 0.48238 0.0
H903 H 0.22489 0.87248 0.54737 0.0
H904 H 0.23172 0.85447 0.37086 0.0
H905 H 0.29153 0.90092 0.44658 0.0
H906 H 0.27588 0.8836 0.48001 0.0
H907 H 0.27477 0.90197 0.47429 0.0
C908 C 0.22507 0.83937 0.50113 0.0
C909 C 0.2205 0.84822 0.5311 0.0
C910 C 0.23623 0.84731 0.46401 0.0
C911 C 0.24311 0.86421 0.45674 0.0
C912 C 0.23917 0.87315 0.48799 0.0
H913 H 0.24947 0.92277 0.24076 0.0
H914 H 0.24386 0.90299 0.30264 0.0
C915 C 0.22805 0.86527 0.52487 0.0
C916 C 0.25208 0.87218 0.41288 0.0
H917 H 0.28413 0.9087 0.37227 0.0
C918 C 0.24347 0.86607 0.37091 0.0
C919 C 0.26754 0.88717 0.41267 0.0
C920 C 0.27802 0.89367 0.45585 0.0
C921 C 0.24901 0.87541 0.32983 0.0
C922 C 0.26333 0.89129 0.33114 0.0
C923 C 0.27293 0.89664 0.37171 0.0
C924 C 0.26709 0.90322 0.29317 0.0
C925 C 0.23896 0.86859 0.28602 0.0
C926 C 0.28228 0.91027 0.26843 0.0
C927 C 0.2856 0.92169 0.23292 0.0
C928 C 0.27382 0.92632 0.22206 0.0
C929 C 0.25879 0.91944 0.24785 0.0
C930 C 0.25549 0.90803 0.28306 0.0
H931 H 0.23211 0.85496 0.28619 0.0
H932 H 0.22958 0.87249 0.28396 0.0
H933 H 0.24708 0.87315 0.2544 0.0
H934 H 0.29145 0.90682 0.27627 0.0
H935 H 0.29733 0.9268 0.21389 0.0
H936 H 0.25132 0.36158 0.46783 0.0
H937 H 0.23922 0.36968 0.40553 0.0
H938 H 0.27974 0.41976 0.41596 0.0
H939 H 0.2921 0.41183 0.47793 0.0
H940 H 0.22919 0.39346 0.41039 0.0
H941 H 0.27879 0.40913 0.27597 0.0
H942 H 0.27667 0.39717 0.32734 0.0
H943 H 0.28557 0.41895 0.33164 0.0
C944 C 0.25774 0.37431 0.45679 0.0
C945 C 0.27272 0.38602 0.47789 0.0
C946 C 0.25077 0.37892 0.42127 0.0
C947 C 0.25867 0.39528 0.40602 0.0
C948 C 0.27359 0.40702 0.42684 0.0
H949 H 0.20165 0.42099 0.21327 0.0
H950 H 0.22106 0.42485 0.27633 0.0
C951 C 0.2806 0.40244 0.46235 0.0
C952 C 0.25105 0.39995 0.36855 0.0
H953 H 0.25591 0.41172 0.25427 0.0
C954 C 0.23509 0.39767 0.3764 0.0
C955 C 0.25887 0.40545 0.3244 0.0
C956 C 0.27587 0.40774 0.31394 0.0
C957 C 0.22639 0.40009 0.34058 0.0
C958 C 0.234 0.40511 0.296 0.0
C959 C 0.25024 0.40805 0.2887 0.0
C960 C 0.22428 0.40472 0.25505 0.0
C961 C 0.20877 0.39631 0.34987 0.0
C962 C 0.22027 0.39258 0.22145 0.0
C963 C 0.2093 0.39037 0.18573 0.0
C964 C 0.20216 0.40031 0.1827 0.0
C965 C 0.20695 0.41314 0.21478 0.0
C966 C 0.21794 0.4153 0.25089 0.0
H967 H 0.204 0.39058 0.3847 0.0
H968 H 0.20844 0.40784 0.34829 0.0
H969 H 0.20019 0.38793 0.32284 0.0
H970 H 0.22507 0.38433 0.22403 0.0
H971 H 0.20603 0.3805 0.16127 0.0
H972 H 0.20151 0.41876 0.96817 0.0
H973 H 0.2197 0.4217 0.90208 0.0
H974 H 0.20475 0.37067 0.91472 0.0
H975 H 0.18659 0.36752 0.98067 0.0
H976 H 0.24119 0.39506 0.9103 0.0
H977 H 0.20379 0.40068 0.76835 0.0
H978 H 0.20808 0.41321 0.81947 0.0
H979 H 0.19457 0.39141 0.82406 0.0
C980 C 0.20201 0.40813 0.95679 0.0
C981 C 0.19259 0.3929 0.97981 0.0
C982 C 0.21238 0.40985 0.919 0.0
C983 C 0.21346 0.39638 0.90373 0.0
C984 C 0.20403 0.38118 0.92624 0.0
H985 H 0.24398 0.36351 0.67426 0.0
H986 H 0.23044 0.37041 0.73579 0.0
C987 C 0.19363 0.37942 0.96383 0.0
C988 C 0.22464 0.39802 0.86477 0.0
H989 H 0.22771 0.39979 0.74611 0.0
C990 C 0.23846 0.39636 0.87439 0.0
C991 C 0.22089 0.39968 0.81822 0.0
C992 C 0.206 0.40128 0.8065 0.0
C993 C 0.24832 0.39566 0.83829 0.0
C994 C 0.24424 0.39677 0.79163 0.0
C995 C 0.2308 0.39906 0.78208 0.0
C996 C 0.25249 0.39356 0.75241 0.0
C997 C 0.26246 0.39286 0.85011 0.0
C998 C 0.26934 0.40446 0.74118 0.0
C999 C 0.2772 0.40056 0.70594 0.0
C1000 C 0.26828 0.38569 0.68156 0.0
C1001 C 0.25127 0.37503 0.6924 0.0
C1002 C 0.24346 0.37896 0.72742 0.0
H1003 H 0.26265 0.39027 0.88782 0.0
H1004 H 0.26145 0.38244 0.82971 0.0
H1005 H 0.27456 0.40396 0.8407 0.0
H1006 H 0.27643 0.41585 0.76005 0.0
H1007 H 0.29029 0.40907 0.69837 0.0
H1008 H 0.71969 0.83495 0.967 0.0
H1009 H 0.71257 0.84728 0.90341 0.0
H1010 H 0.76263 0.88921 0.9036 0.0
H1011 H 0.77003 0.87693 0.96713 0.0
H1012 H 0.71398 0.87759 0.90574 0.0
H1013 H 0.75461 0.87587 0.76544 0.0
H1014 H 0.74968 0.86381 0.81827 0.0
H1015 H 0.76528 0.88527 0.81859 0.0
C1016 C 0.72929 0.84674 0.9534 0.0
C1017 C 0.74547 0.85495 0.97232 0.0
C1018 C 0.72515 0.85376 0.91704 0.0
C1019 C 0.7371 0.86906 0.89859 0.0
C1020 C 0.75331 0.87725 0.91691 0.0
H1021 H 0.73859 0.93639 0.69602 0.0
H1022 H 0.74423 0.92191 0.75658 0.0
C1023 C 0.75748 0.87025 0.95337 0.0
C1024 C 0.73236 0.87673 0.86155 0.0
H1025 H 0.74138 0.89115 0.74971 0.0
C1026 C 0.71987 0.88047 0.87148 0.0
C1027 C 0.74007 0.8804 0.81699 0.0
C1028 C 0.75306 0.87601 0.80387 0.0
C1029 C 0.7152 0.88824 0.83835 0.0
C1030 C 0.72305 0.8921 0.79395 0.0
C1031 C 0.7354 0.88817 0.78385 0.0
C1032 C 0.71916 0.90082 0.758 0.0
C1033 C 0.70228 0.89272 0.85157 0.0
C1034 C 0.70314 0.89372 0.73871 0.0
C1035 C 0.6998 0.90199 0.70397 0.0
C1036 C 0.71248 0.91746 0.68776 0.0
C1037 C 0.72849 0.92449 0.70747 0.0
C1038 C 0.73179 0.91624 0.74211 0.0
H1039 H 0.70025 0.89225 0.88992 0.0
H1040 H 0.70606 0.90521 0.83876 0.0
H1041 H 0.6902 0.88391 0.83526 0.0
H1042 H 0.6933 0.88168 0.75004 0.0
H1043 H 0.68737 0.89618 0.68946 0.0
H1044 H 0.23339 0.90992 0.06025 0.0
H1045 H 0.21934 0.8849 0.01316 0.0
H1046 H 0.2656 0.89996 0.93909 0.0
H1047 H 0.27972 0.92455 0.98641 0.0
H1048 H 0.21452 0.88087 0.92196 0.0
H1049 H 0.25234 0.85387 0.97286 0.0
H1050 H 0.25288 0.87058 0.00463 0.0
H1051 H 0.2658 0.87455 0.95332 0.0
C1052 C 0.24052 0.90787 0.03383 0.0
C1053 C 0.25769 0.91912 0.02729 0.0
C1054 C 0.23252 0.89353 0.00726 0.0
C1055 C 0.24157 0.89028 0.97379 0.0
C1056 C 0.25852 0.90185 0.96606 0.0
H1057 H 0.23107 0.8533 0.71586 0.0
H1058 H 0.24017 0.86325 0.79496 0.0
C1059 C 0.26653 0.91602 0.99278 0.0
C1060 C 0.23326 0.87547 0.94423 0.0
H1061 H 0.23983 0.84637 0.89513 0.0
C1062 C 0.21969 0.87297 0.91715 0.0
C1063 C 0.23987 0.86501 0.93839 0.0
C1064 C 0.25341 0.86604 0.96932 0.0
C1065 C 0.21361 0.86134 0.88138 0.0
C1066 C 0.22137 0.85208 0.8726 0.0
C1067 C 0.23403 0.85361 0.90193 0.0
C1068 C 0.21839 0.84315 0.82843 0.0
C1069 C 0.19978 0.85987 0.85077 0.0
C1070 C 0.20369 0.82802 0.82171 0.0
C1071 C 0.19866 0.82214 0.77649 0.0
C1072 C 0.20819 0.83153 0.73799 0.0
C1073 C 0.22369 0.84579 0.74519 0.0
C1074 C 0.22883 0.8515 0.79025 0.0
H1075 H 0.19494 0.86785 0.86263 0.0
H1076 H 0.20441 0.86327 0.81429 0.0
H1077 H 0.18926 0.84697 0.85062 0.0
H1078 H 0.19546 0.82153 0.85093 0.0
H1079 H 0.18649 0.81129 0.77151 0.0
H1080 H 0.41674 0.26793 0.82083 0.0
H1081 H 0.42529 0.25362 0.76603 0.0
H1082 H 0.3749 0.21221 0.7664 0.0
H1083 H 0.36631 0.22609 0.82115 0.0
H1084 H 0.39972 0.20354 0.77284 0.0
H1085 H 0.41215 0.24763 0.62746 0.0
H1086 H 0.42313 0.2557 0.6812 0.0
H1087 H 0.40093 0.24719 0.67962 0.0
C1088 C 0.40751 0.25574 0.80944 0.0
C1089 C 0.3908 0.24823 0.82522 0.0
C1090 C 0.41242 0.24762 0.77806 0.0
C1091 C 0.40068 0.23194 0.76194 0.0
C1092 C 0.38416 0.2243 0.77855 0.0
H1093 H 0.36795 0.15934 0.56607 0.0
H1094 H 0.37533 0.17681 0.63463 0.0
C1095 C 0.37926 0.23232 0.80978 0.0
C1096 C 0.40501 0.22347 0.72612 0.0
H1097 H 0.4111 0.22311 0.60873 0.0
C1098 C 0.40259 0.20797 0.73712 0.0
C1099 C 0.40885 0.22934 0.67965 0.0
C1100 C 0.41136 0.24583 0.66589 0.0
C1101 C 0.40278 0.1977 0.70226 0.0
C1102 C 0.40531 0.20307 0.65539 0.0
C1103 C 0.4091 0.21907 0.64484 0.0
C1104 C 0.40159 0.19157 0.61646 0.0
C1105 C 0.39949 0.18091 0.71552 0.0
C1106 C 0.41395 0.19417 0.58351 0.0
C1107 C 0.40978 0.18415 0.5442 0.0
C1108 C 0.39312 0.17162 0.53689 0.0
C1109 C 0.38087 0.16892 0.57052 0.0
C1110 C 0.38509 0.1788 0.60993 0.0
H1111 H 0.40287 0.18052 0.75238 0.0
H1112 H 0.38597 0.17185 0.71165 0.0
H1113 H 0.40662 0.17714 0.69256 0.0
H1114 H 0.42672 0.2041 0.58782 0.0
H1115 H 0.41949 0.18658 0.51883 0.0
H1116 H 0.85073 0.14976 0.76881 0.0
H1117 H 0.86263 0.16072 0.69129 0.0
H1118 H 0.87249 0.20855 0.7335 0.0
H1119 H 0.85993 0.19755 0.80952 0.0
H1120 H 0.85966 0.2017 0.65033 0.0
H1121 H 0.91105 0.18795 0.65703 0.0
H1122 H 0.89032 0.17044 0.66184 0.0
H1123 H 0.89817 0.18559 0.70718 0.0
C1124 C 0.85544 0.16261 0.76131 0.0
C1125 C 0.85442 0.17283 0.79506 0.0
C1126 C 0.86233 0.16887 0.7172 0.0
C1127 C 0.86869 0.18552 0.70681 0.0
C1128 C 0.86762 0.19565 0.74062 0.0
H1129 H 0.94436 0.25687 0.53673 0.0
H1130 H 0.92686 0.23423 0.5899 0.0
C1131 C 0.86044 0.18936 0.7841 0.0
C1132 C 0.87649 0.19274 0.66101 0.0
H1133 H 0.91019 0.20222 0.59121 0.0
C1134 C 0.87064 0.20172 0.63711 0.0
C1135 C 0.89078 0.19267 0.6439 0.0
C1136 C 0.89807 0.18377 0.66891 0.0
C1137 C 0.87935 0.21163 0.59868 0.0
C1138 C 0.89386 0.21185 0.58201 0.0
C1139 C 0.89906 0.20198 0.60399 0.0
C1140 C 0.90495 0.22381 0.54608 0.0
C1141 C 0.87356 0.22266 0.57886 0.0
C1142 C 0.8987 0.22511 0.50291 0.0
C1143 C 0.90853 0.23837 0.47325 0.0
C1144 C 0.92497 0.25008 0.48548 0.0
C1145 C 0.93171 0.24796 0.5266 0.0
C1146 C 0.92172 0.23501 0.55689 0.0
H1147 H 0.86478 0.22382 0.60289 0.0
H1148 H 0.88432 0.23515 0.57164 0.0
H1149 H 0.8669 0.21742 0.54573 0.0
H1150 H 0.886 0.21629 0.49305 0.0
H1151 H 0.90319 0.23967 0.44127 0.0
H1152 H 0.94755 0.71585 0.78384 0.0
H1153 H 0.92833 0.70783 0.71805 0.0
H1154 H 0.93555 0.7565 0.71291 0.0
H1155 H 0.95457 0.76463 0.77836 0.0
H1156 H 0.90155 0.73045 0.71252 0.0
H1157 H 0.94082 0.72251 0.5795 0.0
H1158 H 0.93751 0.71178 0.63393 0.0
H1159 H 0.94935 0.73378 0.63276 0.0
C1160 C 0.94508 0.72486 0.76867 0.0
C1161 C 0.95262 0.74089 0.7865 0.0
C1162 C 0.93418 0.72028 0.73095 0.0
C1163 C 0.93071 0.73165 0.71047 0.0
C1164 C 0.93814 0.74758 0.72824 0.0
H1165 H 0.86856 0.73522 0.49459 0.0
H1166 H 0.88872 0.74126 0.55658 0.0
C1167 C 0.94901 0.75218 0.76573 0.0
C1168 C 0.91897 0.72699 0.67131 0.0
H1169 H 0.91401 0.71659 0.5562 0.0
C1170 C 0.90424 0.72739 0.67833 0.0
C1171 C 0.92256 0.72298 0.62693 0.0
C1172 C 0.93846 0.72282 0.61744 0.0
C1173 C 0.89295 0.72389 0.64203 0.0
C1174 C 0.89669 0.72022 0.59735 0.0
C1175 C 0.91128 0.71953 0.59048 0.0
C1176 C 0.88551 0.71698 0.55745 0.0
C1177 C 0.87701 0.72395 0.65193 0.0
C1178 C 0.87757 0.70155 0.53628 0.0
C1179 C 0.86613 0.69807 0.50065 0.0
C1180 C 0.86245 0.71001 0.48546 0.0
C1181 C 0.87097 0.72569 0.5056 0.0
C1182 C 0.88244 0.72915 0.5412 0.0
H1183 H 0.87406 0.72287 0.68987 0.0
H1184 H 0.87845 0.73568 0.63929 0.0
H1185 H 0.86627 0.71375 0.63361 0.0
H1186 H 0.87988 0.69204 0.54822 0.0
H1187 H 0.85986 0.68587 0.4859 0.0
H1188 H 0.85634 0.73412 0.27342 0.0
H1189 H 0.87532 0.74199 0.20665 0.0
H1190 H 0.87099 0.69447 0.20873 0.0
H1191 H 0.85176 0.68632 0.27552 0.0
H1192 H 0.90595 0.74331 0.20678 0.0
H1193 H 0.86405 0.701 0.07086 0.0
H1194 H 0.85623 0.70503 0.12403 0.0
H1195 H 0.86388 0.69102 0.12431 0.0
C1196 C 0.85924 0.72522 0.25953 0.0
C1197 C 0.85255 0.70957 0.28005 0.0
C1198 C 0.8701 0.72978 0.22131 0.0
C1199 C 0.87442 0.71877 0.2026 0.0
C1200 C 0.86755 0.70304 0.22223 0.0
H1201 H 0.94446 0.72087 0.00487 0.0
H1202 H 0.92303 0.71475 0.0637 0.0
C1203 C 0.85664 0.69843 0.26054 0.0
C1204 C 0.88698 0.72419 0.16457 0.0
H1205 H 0.89326 0.71544 0.05354 0.0
C1206 C 0.90316 0.73734 0.17307 0.0
C1207 C 0.88324 0.71638 0.12074 0.0
C1208 C 0.86587 0.70267 0.10913 0.0
C1209 C 0.91591 0.74254 0.13935 0.0
C1210 C 0.91225 0.7345 0.09585 0.0
C1211 C 0.89598 0.72156 0.08701 0.0
C1212 C 0.92536 0.73861 0.0601 0.0
C1213 C 0.93332 0.75615 0.15113 0.0
C1214 C 0.93375 0.75411 0.03851 0.0
C1215 C 0.94614 0.75774 0.00474 0.0
C1216 C 0.95022 0.74586 0.99192 0.0
C1217 C 0.94168 0.73034 0.01374 0.0
C1218 C 0.92938 0.72677 0.04736 0.0
H1219 H 0.93476 0.75875 0.18912 0.0
H1220 H 0.94278 0.753 0.13968 0.0
H1221 H 0.93599 0.76752 0.13257 0.0
H1222 H 0.93063 0.76333 0.0475 0.0
H1223 H 0.9524 0.76977 0.98852 0.0
H1224 H 0.40216 0.17693 0.28393 0.0
H1225 H 0.40374 0.19645 0.22559 0.0
H1226 H 0.37889 0.21255 0.32106 0.0
H1227 H 0.37642 0.19232 0.37844 0.0
H1228 H 0.3643 0.20635 0.24334 0.0
H1229 H 0.43173 0.24415 0.20405 0.0
H1230 H 0.42499 0.22292 0.1964 0.0
H1231 H 0.42386 0.23036 0.25344 0.0
C1232 C 0.39737 0.1849 0.29275 0.0
C1233 C 0.38916 0.18315 0.33554 0.0
C1234 C 0.39839 0.19616 0.25952 0.0
C1235 C 0.39169 0.20621 0.26911 0.0
C1236 C 0.38417 0.20496 0.31283 0.0
H1237 H 0.40132 0.27649 0.05407 0.0
H1238 H 0.40426 0.26474 0.12685 0.0
C1239 C 0.38278 0.19342 0.34558 0.0
C1240 C 0.39077 0.21657 0.23183 0.0
H1241 H 0.41315 0.24315 0.14351 0.0
C1242 C 0.37508 0.21463 0.22211 0.0
C1243 C 0.40483 0.22762 0.20449 0.0
C1244 C 0.42231 0.23151 0.21555 0.0
C1245 C 0.37292 0.22283 0.18469 0.0
C1246 C 0.38667 0.2327 0.15485 0.0
C1247 C 0.40253 0.2353 0.16581 0.0
C1248 C 0.38471 0.23992 0.11126 0.0
C1249 C 0.35589 0.22082 0.17774 0.0
C1250 C 0.37291 0.22985 0.0781 0.0
C1251 C 0.37099 0.23657 0.03701 0.0
C1252 C 0.38118 0.25342 0.02767 0.0
C1253 C 0.39329 0.26345 0.06035 0.0
C1254 C 0.39499 0.25676 0.1019 0.0
H1255 H 0.3489 0.21816 0.21133 0.0
H1256 H 0.35684 0.23197 0.16202 0.0
H1257 H 0.34849 0.21028 0.15429 0.0
H1258 H 0.36524 0.21675 0.08379 0.0
H1259 H 0.36174 0.2285 0.01215 0.0
H1260 H 0.9179 0.26943 0.28363 0.0
H1261 H 0.90946 0.25202 0.21463 0.0
H1262 H 0.95571 0.25184 0.21695 0.0
H1263 H 0.96438 0.26932 0.28594 0.0
H1264 H 0.94454 0.25588 0.12458 0.0
H1265 H 0.89629 0.20264 0.22657 0.0
H1266 H 0.89535 0.22101 0.2333 0.0
H1267 H 0.91331 0.22051 0.25361 0.0
C1268 C 0.9264 0.26589 0.26927 0.0
C1269 C 0.94173 0.27063 0.29075 0.0
C1270 C 0.92152 0.25588 0.22995 0.0
C1271 C 0.93186 0.25047 0.21139 0.0
C1272 C 0.94753 0.25583 0.2311 0.0
H1273 H 0.88135 0.16812 0.01969 0.0
H1274 H 0.9025 0.18585 0.07624 0.0
C1275 C 0.95242 0.2658 0.27056 0.0
C1276 C 0.92589 0.23864 0.17262 0.0
H1277 H 0.89425 0.20051 0.14373 0.0
C1278 C 0.9337 0.24368 0.12874 0.0
C1279 C 0.91205 0.2226 0.17858 0.0
C1280 C 0.90383 0.21626 0.22565 0.0
C1281 C 0.92724 0.23341 0.08979 0.0
C1282 C 0.91255 0.21787 0.09506 0.0
C1283 C 0.90548 0.21245 0.13964 0.0
C1284 C 0.90293 0.20795 0.05464 0.0
C1285 C 0.93596 0.23946 0.04323 0.0
C1286 C 0.89653 0.21459 0.02301 0.0
C1287 C 0.88448 0.20454 0.99093 0.0
C1288 C 0.87849 0.18759 0.99 0.0
C1289 C 0.88575 0.18113 0.01948 0.0
C1290 C 0.8978 0.19123 0.05183 0.0
H1291 H 0.94956 0.24815 0.04767 0.0
H1292 H 0.93424 0.22914 0.02094 0.0
H1293 H 0.93069 0.2461 0.02491 0.0
H1294 H 0.9 0.22735 0.02515 0.0
H1295 H 0.87923 0.20993 0.9685 0.0
H1296 H 0.11847 0.66187 0.27603 0.0
H1297 H 0.13999 0.68527 0.32035 0.0
H1298 H 0.10147 0.68951 0.3924 0.0
H1299 H 0.08009 0.6664 0.34879 0.0
H1300 H 0.14483 0.7182 0.32476 0.0
H1301 H 0.13094 0.68783 0.49772 0.0
H1302 H 0.12461 0.6765 0.44377 0.0
H1303 H 0.1125 0.68463 0.46859 0.0
C1304 C 0.11463 0.66777 0.30152 0.0
C1305 C 0.0976 0.66228 0.30903 0.0
C1306 C 0.12691 0.6811 0.32671 0.0
C1307 C 0.12225 0.6889 0.36007 0.0
C1308 C 0.10528 0.68345 0.3674 0.0
H1309 H 0.15596 0.78044 0.47959 0.0
H1310 H 0.14705 0.7569 0.42857 0.0
C1311 C 0.09309 0.67028 0.34221 0.0
C1312 C 0.13488 0.7032 0.3865 0.0
H1313 H 0.14451 0.71733 0.49778 0.0
C1314 C 0.14509 0.71799 0.36255 0.0
C1315 C 0.13539 0.7028 0.43569 0.0
C1316 C 0.12539 0.68704 0.46297 0.0
C1317 C 0.15485 0.73268 0.38685 0.0
C1318 C 0.15411 0.73253 0.43618 0.0
C1319 C 0.14493 0.7175 0.45996 0.0
C1320 C 0.16125 0.74781 0.46378 0.0
C1321 C 0.16548 0.74829 0.35945 0.0
C1322 C 0.17204 0.75044 0.50095 0.0
C1323 C 0.17701 0.76383 0.53059 0.0
C1324 C 0.17117 0.77473 0.52371 0.0
C1325 C 0.16071 0.77229 0.48575 0.0
C1326 C 0.15574 0.75892 0.45623 0.0
H1327 H 0.16938 0.7457 0.32529 0.0
H1328 H 0.15807 0.75422 0.35238 0.0
H1329 H 0.17683 0.75703 0.37897 0.0
H1330 H 0.1763 0.74192 0.50765 0.0
H1331 H 0.18509 0.76539 0.55954 0.0
H1332 H 0.48516 0.48144 0.40171 0.0
H1333 H 0.4611 0.47499 0.45245 0.0
H1334 H 0.43066 0.46631 0.33094 0.0
H1335 H 0.45481 0.47325 0.28049 0.0
H1336 H 0.42403 0.4825 0.40011 0.0
H1337 H 0.42417 0.42781 0.47029 0.0
H1338 H 0.44302 0.44708 0.47952 0.0
H1339 H 0.43703 0.43945 0.42125 0.0
C1340 C 0.47334 0.47838 0.38616 0.0
C1341 C 0.47176 0.47815 0.33758 0.0
C1342 C 0.45965 0.47466 0.41498 0.0
C1343 C 0.44408 0.47003 0.3954 0.0
C1344 C 0.44259 0.46995 0.34672 0.0
H1345 H 0.34555 0.40366 0.47217 0.0
H1346 H 0.37345 0.42105 0.43941 0.0
C1347 C 0.45633 0.4739 0.31799 0.0
C1348 C 0.42895 0.46395 0.425 0.0
H1349 H 0.40255 0.43189 0.49535 0.0
C1350 C 0.41944 0.4716 0.42157 0.0
C1351 C 0.42295 0.4496 0.45255 0.0
C1352 C 0.43221 0.44039 0.45597 0.0
C1353 C 0.40375 0.46491 0.44359 0.0
C1354 C 0.39759 0.45033 0.46992 0.0
C1355 C 0.40743 0.44313 0.47516 0.0
C1356 C 0.38019 0.44105 0.48732 0.0
C1357 C 0.39345 0.47289 0.4365 0.0
C1358 C 0.37464 0.44677 0.52444 0.0
C1359 C 0.35855 0.43683 0.54321 0.0
C1360 C 0.348 0.42105 0.52526 0.0
C1361 C 0.35345 0.4157 0.487 0.0
C1362 C 0.36938 0.42562 0.46821 0.0
H1363 H 0.39935 0.48322 0.41106 0.0
H1364 H 0.38079 0.46372 0.42399 0.0
H1365 H 0.39189 0.47769 0.47029 0.0
H1366 H 0.38291 0.45861 0.53986 0.0
H1367 H 0.35464 0.44121 0.57282 0.0
H1368 H 0.70157 0.96365 0.45682 0.0
H1369 H 0.68471 0.97319 0.41833 0.0
H1370 H 0.66142 0.97205 0.55036 0.0
H1371 H 0.6792 0.96352 0.58929 0.0
H1372 H 0.65223 0.9621 0.40685 0.0
H1373 H 0.68052 0.01884 0.51399 0.0
H1374 H 0.68792 0.00462 0.51602 0.0
H1375 H 0.66895 1e-05 0.5462 0.0
C1376 C 0.69269 0.96527 0.47739 0.0
C1377 C 0.69126 0.96244 0.52562 0.0
C1378 C 0.68301 0.97063 0.45544 0.0
C1379 C 0.67187 0.97347 0.48146 0.0
C1380 C 0.67011 0.97021 0.52965 0.0
H1381 H 0.62072 0.01335 0.31186 0.0
H1382 H 0.62354 0.99379 0.36183 0.0
C1383 C 0.68003 0.96509 0.55176 0.0
C1384 C 0.66345 0.98123 0.45812 0.0
H1385 H 0.66304 0.01698 0.45367 0.0
C1386 C 0.65439 0.97402 0.41731 0.0
C1387 C 0.66631 0.99679 0.47193 0.0
C1388 C 0.67655 0.00561 0.51417 0.0
C1389 C 0.64912 0.98244 0.38825 0.0
C1390 C 0.65258 0.99825 0.40123 0.0
C1391 C 0.6605 0.00488 0.44378 0.0
C1392 C 0.65038 0.00919 0.36887 0.0
C1393 C 0.64091 0.97481 0.34259 0.0
C1394 C 0.66446 0.02427 0.3564 0.0
C1395 C 0.66283 0.03546 0.32891 0.0
C1396 C 0.6471 0.03174 0.3127 0.0
C1397 C 0.63301 0.01642 0.32366 0.0
C1398 C 0.63461 0.00524 0.35204 0.0
H1399 H 0.64187 0.96388 0.33409 0.0
H1400 H 0.62746 0.97089 0.34473 0.0
H1401 H 0.64667 0.98384 0.31362 0.0
H1402 H 0.67676 0.02753 0.36866 0.0
H1403 H 0.67393 0.04713 0.32074 0.0
H1404 H 0.69591 0.10416 0.25375 0.0
H1405 H 0.72413 0.11832 0.21937 0.0
H1406 H 0.70304 0.10313 0.08239 0.0
H1407 H 0.67487 0.08892 0.11681 0.0
H1408 H 0.72492 0.09224 0.11109 0.0
H1409 H 0.75339 0.15956 0.13658 0.0
H1410 H 0.7419 0.14624 0.18481 0.0
H1411 H 0.73107 0.14579 0.13287 0.0
C1412 C 0.69735 0.10449 0.21617 0.0
C1413 C 0.68335 0.09588 0.18758 0.0
C1414 C 0.71343 0.11253 0.1966 0.0
C1415 C 0.71561 0.11189 0.14834 0.0
C1416 C 0.70156 0.10388 0.11967 0.0
H1417 H 0.79054 0.13197 0.94573 0.0
H1418 H 0.76558 0.12502 0.99232 0.0
C1419 C 0.68553 0.0958 0.13922 0.0
C1420 C 0.73229 0.11714 0.12845 0.0
H1421 H 0.77064 0.15046 0.1041 0.0
C1422 C 0.73492 0.10498 0.10958 0.0
C1423 C 0.74533 0.13371 0.12728 0.0
C1424 C 0.74288 0.14717 0.14622 0.0
C1425 C 0.75015 0.109 0.08838 0.0
C1426 C 0.763 0.12561 0.08579 0.0
C1427 C 0.76066 0.13775 0.10615 0.0
C1428 C 0.77832 0.13056 0.05843 0.0
C1429 C 0.75236 0.0955 0.06828 0.0
C1430 C 0.79367 0.13602 0.08047 0.0
C1431 C 0.80794 0.13997 0.05384 0.0
C1432 C 0.80698 0.13893 0.00508 0.0
C1433 C 0.79158 0.13329 0.98328 0.0
C1434 C 0.77736 0.12925 0.00976 0.0
H1435 H 0.74287 0.08325 0.08226 0.0
H1436 H 0.75101 0.09532 0.02984 0.0
H1437 H 0.76502 0.09767 0.07585 0.0
H1438 H 0.79453 0.13696 0.1181 0.0
H1439 H 0.81971 0.144 0.07113 0.0
H1440 H 0.97165 0.68599 0.93444 0.0
H1441 H 0.97833 0.66794 0.97867 0.0
H1442 H 0.00931 0.70795 0.07045 0.0
H1443 H 0.00302 0.72606 0.02606 0.0
H1444 H 0.02562 0.69364 0.03234 0.0
H1445 H 0.96451 0.64618 0.1077 0.0
H1446 H 0.96459 0.64924 0.04582 0.0
H1447 H 0.96804 0.66547 0.08482 0.0
C1448 C 0.97967 0.69083 0.96451 0.0
C1449 C 0.98692 0.70745 0.9766 0.0
C1450 C 0.98338 0.68049 0.98991 0.0
C1451 C 0.99421 0.68658 0.02805 0.0
C1452 C 0.00091 0.703 0.04116 0.0
H1453 H 0.02584 0.64189 0.23365 0.0
H1454 H 0.01162 0.65361 0.19058 0.0
C1455 C 0.99732 0.71334 0.01568 0.0
C1456 C 3e-05 0.67652 0.05159 0.0
H1457 H 0.98735 0.64183 0.1166 0.0
C1458 C 0.01724 0.68231 0.05077 0.0
C1459 C 0.98906 0.66179 0.07573 0.0
C1460 C 0.97053 0.65532 0.07905 0.0
C1461 C 0.02386 0.67389 0.07372 0.0
C1462 C 0.0129 0.65902 0.09722 0.0
C1463 C 0.99566 0.65315 0.09809 0.0
C1464 C 0.01939 0.64989 0.12255 0.0
C1465 C 0.04259 0.68122 0.0736 0.0
C1466 C 0.02809 0.64362 0.09842 0.0
C1467 C 0.03624 0.63704 0.12292 0.0
C1468 C 0.0353 0.63615 0.17173 0.0
C1469 C 0.02624 0.64202 0.19587 0.0
C1470 C 0.01819 0.64872 0.17138 0.0
H1471 H 0.04935 0.69441 0.06357 0.0
H1472 H 0.04696 0.68 0.10846 0.0
H1473 H 0.046 0.6746 0.04802 0.0
H1474 H 0.02906 0.64432 0.06072 0.0
H1475 H 0.04345 0.63284 0.10384 0.0
H1476 H 0.44424 0.33415 0.93441 0.0
H1477 H 0.46206 0.35901 0.97935 0.0
H1478 H 0.42235 0.34429 0.08121 0.0
H1479 H 0.40432 0.3201 0.03503 0.0
H1480 H 0.43347 0.37395 0.05888 0.0
H1481 H 0.48854 0.36805 0.09478 0.0
H1482 H 0.48467 0.36758 0.03351 0.0
H1483 H 0.46951 0.35147 0.07095 0.0
C1484 C 0.43944 0.33623 0.96661 0.0
C1485 C 0.4229 0.32534 0.98114 0.0
C1486 C 0.44967 0.35033 0.99255 0.0
C1487 C 0.44367 0.35345 0.03415 0.0
C1488 C 0.42729 0.34221 0.04925 0.0
H1489 H 0.4993 0.43115 0.23654 0.0
H1490 H 0.48716 0.40541 0.19218 0.0
C1491 C 0.41697 0.3284 0.0228 0.0
C1492 C 0.45369 0.36905 0.05997 0.0
H1493 H 0.49168 0.3944 0.10937 0.0
C1494 C 0.44615 0.37829 0.0702 0.0
C1495 C 0.47019 0.37471 0.07532 0.0
C1496 C 0.47863 0.36484 0.06852 0.0
C1497 C 0.45454 0.39297 0.09507 0.0
C1498 C 0.47135 0.39912 0.10813 0.0
C1499 C 0.4789 0.38982 0.09857 0.0
C1500 C 0.48106 0.41512 0.13203 0.0
C1501 C 0.44507 0.40148 0.10805 0.0
C1502 C 0.48238 0.42926 0.11204 0.0
C1503 C 0.48882 0.44367 0.13768 0.0
C1504 C 0.49468 0.4444 0.18299 0.0
C1505 C 0.49483 0.43078 0.20155 0.0
C1506 C 0.48792 0.41613 0.17628 0.0
H1507 H 0.43135 0.39276 0.10893 0.0
H1508 H 0.44888 0.40743 0.14268 0.0
H1509 H 0.44762 0.41103 0.08152 0.0
H1510 H 0.47771 0.42892 0.07736 0.0
H1511 H 0.48881 0.45415 0.12256 0.0
H1512 H 0.95999 0.3087 0.56274 0.0
H1513 H 0.96696 0.33286 0.61013 0.0
H1514 H 0.97668 0.36167 0.48472 0.0
H1515 H 0.9696 0.33753 0.43758 0.0
H1516 H -0.00142 0.35909 0.60495 0.0
H1517 H 0.95393 0.37986 0.56631 0.0
H1518 H 0.94886 0.35887 0.55929 0.0
H1519 H 0.96114 0.37403 0.51562 0.0
C1520 C 0.96299 0.32007 0.54552 0.0
C1521 C 0.96383 0.32125 0.49672 0.0
C1522 C 0.96697 0.33383 0.57249 0.0
C1523 C 0.97211 0.34901 0.55099 0.0
C1524 C 0.97227 0.35 0.5021 0.0
H1525 H 0.03554 0.45058 0.61174 0.0
H1526 H 0.01709 0.42335 0.57814 0.0
C1527 C 0.96822 0.33622 0.47515 0.0
C1528 C 0.98005 0.36422 0.57894 0.0
H1529 H 0.98015 0.39978 0.59874 0.0
C1530 C 0.99437 0.36786 0.60433 0.0
C1531 C 0.97457 0.37565 0.57788 0.0
C1532 C 0.95869 0.3719 0.55366 0.0
C1533 C 0.00376 0.38291 0.62703 0.0
C1534 C -0.00137 0.39457 0.62448 0.0
C1535 C 0.98406 0.3908 0.60029 0.0
C1536 C 0.00878 0.41103 0.64495 0.0
C1537 C 0.0195 0.38653 0.65201 0.0
C1538 C 0.01012 0.41299 0.69349 0.0
C1539 C 0.02054 0.42847 0.71254 0.0
C1540 C 0.02953 0.44217 0.68327 0.0
C1541 C 0.02838 0.44017 0.63477 0.0
C1542 C 0.01787 0.42471 0.6157 0.0
H1543 H 0.02306 0.3772 0.64476 0.0
H1544 H 0.03006 0.39879 0.6416 0.0
H1545 H 0.01752 0.38671 0.69018 0.0
H1546 H 0.00323 0.40253 0.71654 0.0
H1547 H 0.02169 0.42974 0.75008 0.0
H1548 H 0.68828 0.66477 0.68244 0.0
H1549 H 0.71172 0.66867 0.63387 0.0
H1550 H 0.69691 0.61791 0.65446 0.0
H1551 H 0.67364 0.61405 0.70468 0.0
H1552 H 0.73061 0.63768 0.65601 0.0
H1553 H 0.7057 0.6524 0.50156 0.0
H1554 H 0.708 0.66574 0.54881 0.0
H1555 H 0.69352 0.64399 0.55435 0.0
C1556 C 0.6901 0.65448 0.67699 0.0
C1557 C 0.67908 0.63908 0.69687 0.0
C1558 C 0.7034 0.65668 0.64895 0.0
C1559 C 0.7057 0.64344 0.63938 0.0
C1560 C 0.6952 0.62822 0.66099 0.0
H1561 H 0.7774 0.67108 0.41051 0.0
H1562 H 0.75219 0.65285 0.45614 0.0
C1563 C 0.68197 0.62606 0.68971 0.0
C1564 C 0.71898 0.64566 0.60621 0.0
H1565 H 0.73529 0.66213 0.49962 0.0
C1566 C 0.73153 0.64274 0.62143 0.0
C1567 C 0.71984 0.65164 0.56048 0.0
C1568 C 0.70592 0.65343 0.54018 0.0
C1569 C 0.74562 0.64693 0.5934 0.0
C1570 C 0.7474 0.65472 0.54978 0.0
C1571 C 0.73417 0.6564 0.53326 0.0
C1572 C 0.76339 0.66294 0.52305 0.0
C1573 C 0.7585 0.64316 0.61129 0.0
C1574 C 0.77819 0.67442 0.54531 0.0
C1575 C 0.79267 0.68437 0.51934 0.0
C1576 C 0.7926 0.68312 0.47066 0.0
C1577 C 0.77791 0.67167 0.44821 0.0
C1578 C 0.76349 0.66143 0.47427 0.0
H1579 H 0.75243 0.63156 0.63184 0.0
H1580 H 0.7659 0.64205 0.58251 0.0
H1581 H 0.76712 0.65311 0.63497 0.0
H1582 H 0.77835 0.67642 0.5825 0.0
H1583 H 0.80377 0.69352 0.53713 0.0
H1584 H 0.41382 0.12064 0.50332 0.0
H1585 H 0.435 0.11785 0.54452 0.0
H1586 H 0.47394 0.16022 0.4719 0.0
H1587 H 0.45263 0.16321 0.43012 0.0
H1588 H 0.47777 0.13139 0.47577 0.0
H1589 H 0.46567 0.14888 0.64924 0.0
H1590 H 0.44675 0.1343 0.62065 0.0
H1591 H 0.45967 0.1544 0.59552 0.0
C1592 C 0.42686 0.12939 0.4959 0.0
C1593 C 0.43155 0.14219 0.46357 0.0
C1594 C 0.43896 0.12784 0.51977 0.0
C1595 C 0.45599 0.13903 0.51192 0.0
C1596 C 0.46082 0.15159 0.47876 0.0
H1597 H 0.51064 0.11313 0.70999 0.0
H1598 H 0.50698 0.13233 0.66077 0.0
C1599 C 0.44866 0.15324 0.45491 0.0
C1600 C 0.46845 0.13695 0.53785 0.0
H1601 H 0.4769 0.13073 0.64884 0.0
C1602 C 0.47801 0.13169 0.51358 0.0
C1603 C 0.46904 0.13772 0.58707 0.0
C1604 C 0.45986 0.14431 0.61465 0.0
C1605 C 0.48676 0.12554 0.53759 0.0
C1606 C 0.48565 0.12445 0.58685 0.0
C1607 C 0.47758 0.13137 0.61105 0.0
C1608 C 0.48994 0.11367 0.61314 0.0
C1609 C 0.49637 0.11946 0.50992 0.0
C1610 C 0.48154 0.0969 0.60275 0.0
C1611 C 0.48345 0.086 0.6308 0.0
C1612 C 0.49379 0.09161 0.67006 0.0
C1613 C 0.50261 0.10848 0.67989 0.0
C1614 C 0.50058 0.11944 0.6518 0.0
H1615 H 0.50138 0.12656 0.47696 0.0
H1616 H 0.50691 0.12033 0.53023 0.0
H1617 H 0.48784 0.10644 0.50051 0.0
H1618 H 0.47291 0.09209 0.57393 0.0
H1619 H 0.47651 0.07308 0.62218 0.0
H1620 H 0.3254 0.98038 0.96451 0.0
H1621 H 0.3492 0.98969 0.91115 0.0
H1622 H 0.36924 0.96687 -0.00149 0.0
H1623 H 0.34519 0.9571 0.05136 0.0
H1624 H 0.38045 0.01077 0.93552 0.0
H1625 H 0.37702 0.95415 0.87037 0.0
H1626 H 0.35958 0.95402 0.89912 0.0
H1627 H 0.37613 0.95465 0.93283 0.0
C1628 C 0.33473 0.97711 0.97193 0.0
C1629 C 0.33352 0.96811 0.0122 0.0
C1630 C 0.34828 0.98239 0.94134 0.0
C1631 C 0.36089 0.97883 0.95058 0.0
C1632 C 0.35945 0.96942 0.99007 0.0
H1633 H 0.46455 0.03912 0.87914 0.0
H1634 H 0.43708 0.02259 0.91685 0.0
C1635 C 0.34578 0.96397 0.02047 0.0
C1636 C 0.37644 0.98665 0.92217 0.0
H1637 H 0.40349 0.97917 0.86086 0.0
C1638 C 0.38536 0.00382 0.91872 0.0
C1639 C 0.38277 0.97757 0.9 0.0
C1640 C 0.37329 0.95907 0.90032 0.0
C1641 C 0.40068 0.01221 0.89487 0.0
C1642 C 0.40743 0.00319 0.87486 0.0
C1643 C 0.39832 0.986 0.87686 0.0
C1644 C 0.42413 0.0116 0.85267 0.0
C1645 C 0.40955 0.03068 0.89144 0.0
C1646 C 0.42589 0.01047 0.80441 0.0
C1647 C 0.44157 0.01979 0.78301 0.0
C1648 C 0.45562 0.03003 0.80987 0.0
C1649 C 0.45386 0.03101 0.85812 0.0
C1650 C 0.43824 0.02166 0.87951 0.0
H1651 H 0.40087 0.0353 0.89781 0.0
H1652 H 0.41949 0.03611 0.91811 0.0
H1653 H 0.41553 0.03504 0.85659 0.0
H1654 H 0.41508 0.00283 0.78322 0.0
H1655 H 0.44267 0.01935 0.74546 0.0
H1656 H 0.07868 0.46164 0.85365 0.0
H1657 H 0.10054 0.46078 0.89721 0.0
H1658 H 0.13824 0.50017 0.81258 0.0
H1659 H 0.11621 0.50113 0.76826 0.0
H1660 H 0.14253 0.47289 0.82152 0.0
H1661 H 0.13296 0.49252 0.99444 0.0
H1662 H 0.11351 0.47703 0.97035 0.0
H1663 H 0.12534 0.49662 0.94136 0.0
C1664 C 0.0916 0.47023 0.84436 0.0
C1665 C 0.09572 0.48146 0.80747 0.0
C1666 C 0.1041 0.46983 0.86966 0.0
C1667 C 0.121 0.48064 0.85879 0.0
C1668 C 0.12524 0.49187 0.82188 0.0
H1669 H 0.18096 0.45826 0.0492 0.0
H1670 H 0.17524 0.47645 0.00153 0.0
C1671 C 0.11267 0.49238 0.79659 0.0
C1672 C 0.13389 0.479 0.88404 0.0
H1673 H 0.14397 0.47402 0.99447 0.0
C1674 C 0.14326 0.47361 0.85926 0.0
C1675 C 0.13514 0.48026 0.93317 0.0
C1676 C 0.12633 0.4871 0.96131 0.0
C1677 C 0.15243 0.46781 0.88272 0.0
C1678 C 0.15199 0.46722 0.93204 0.0
C1679 C 0.1441 0.47424 0.95665 0.0
C1680 C 0.15697 0.45695 0.95818 0.0
C1681 C 0.16176 0.46155 0.85451 0.0
C1682 C 0.1485 0.44003 0.94983 0.0
C1683 C 0.15158 0.4297 0.97704 0.0
C1684 C 0.1632 0.43605 0.01337 0.0
C1685 C 0.17197 0.45306 0.02133 0.0
C1686 C 0.16874 0.46343 0.99415 0.0
H1687 H 0.16598 0.46804 0.82042 0.0
H1688 H 0.1728 0.46304 0.87352 0.0
H1689 H 0.15329 0.44831 0.84733 0.0
H1690 H 0.13906 0.43469 0.92308 0.0
H1691 H 0.14462 0.41667 0.96993 0.0
H1692 H 0.63802 0.65626 0.88869 0.0
H1693 H 0.64568 0.6821 0.92704 0.0
H1694 H 0.6479 0.70413 0.79325 0.0
H1695 H 0.64173 0.67862 0.75485 0.0
H1696 H 0.67418 0.72256 0.83427 0.0
H1697 H 0.62515 0.70755 0.966 0.0
H1698 H 0.63262 0.69365 0.97346 0.0
H1699 H 0.62251 0.69352 0.91986 0.0
C1700 C 0.63974 0.66654 0.86776 0.0
C1701 C 0.63868 0.66535 0.81908 0.0
C1702 C 0.64389 0.68126 0.88969 0.0
C1703 C 0.64693 0.69505 0.86332 0.0
C1704 C 0.64541 0.69366 0.81455 0.0
H1705 H 0.68567 0.78628 0.0271 0.0
H1706 H 0.66648 0.76266 0.9793 0.0
C1707 C 0.64166 0.67904 0.79259 0.0
C1708 C 0.65436 0.71138 0.88586 0.0
H1709 H 0.65326 0.7302 0.98627 0.0
C1710 C 0.66929 0.72429 0.86689 0.0
C1711 C 0.64795 0.71398 0.92792 0.0
C1712 C 0.63106 0.70145 0.94756 0.0
C1713 C 0.67859 0.73916 0.89045 0.0
C1714 C 0.67323 0.74094 0.93524 0.0
C1715 C 0.65764 0.72863 0.95256 0.0
C1716 C 0.68432 0.75486 0.96573 0.0
C1717 C 0.69425 0.75267 0.86732 0.0
C1718 C 0.70045 0.75796 0.97521 0.0
C1719 C 0.71141 0.77147 0.00168 0.0
C1720 C 0.70633 0.78193 0.02034 0.0
C1721 C 0.68989 0.7784 0.01298 0.0
C1722 C 0.67896 0.76496 0.98568 0.0
H1723 H 0.69315 0.75199 0.82873 0.0
H1724 H 0.69697 0.76499 0.87862 0.0
H1725 H 0.70501 0.75123 0.87649 0.0
H1726 H 0.70466 0.74999 0.96167 0.0
H1727 H 0.72392 0.77374 0.00741 0.0
H1728 H 0.73989 0.99461 0.69648 0.0
H1729 H 0.76155 0.0169 0.7421 0.0
H1730 H 0.79951 0.01233 0.66788 0.0
H1731 H 0.77779 0.98998 0.62138 0.0
H1732 H 0.78624 0.01632 0.79998 0.0
H1733 H 0.81418 0.06149 0.65359 0.0
H1734 H 0.79377 0.04327 0.64932 0.0
H1735 H 0.81218 0.0417 0.64648 0.0
C1736 C 0.75283 0.99833 0.6897 0.0
C1737 C 0.75713 0.9906 0.65514 0.0
C1738 C 0.76519 0.01104 0.71594 0.0
C1739 C 0.78211 0.01631 0.70816 0.0
C1740 C 0.78652 0.00855 0.67401 0.0
H1741 H 0.85447 0.10813 0.85138 0.0
H1742 H 0.84577 0.08218 0.81025 0.0
C1743 C 0.7741 0.99578 0.6476 0.0
C1744 C 0.79489 0.03014 0.73585 0.0
H1745 H 0.82256 0.07135 0.72932 0.0
C1746 C 0.79449 0.02828 0.78448 0.0
C1747 C 0.80575 0.04567 0.71546 0.0
C1748 C 0.80655 0.04831 0.66338 0.0
C1749 C 0.80377 0.0418 0.81346 0.0
C1750 C 0.81352 0.05755 0.79326 0.0
C1751 C 0.81505 0.05921 0.74457 0.0
C1752 C 0.81931 0.07251 0.82141 0.0
C1753 C 0.80232 0.03932 0.86562 0.0
C1754 C 0.80731 0.07556 0.84096 0.0
C1755 C 0.81217 0.09028 0.86357 0.0
C1756 C 0.82917 0.10225 0.86741 0.0
C1757 C 0.84129 0.09904 0.84908 0.0
C1758 C 0.83636 0.08429 0.82563 0.0
H1759 H 0.79888 0.0266 0.87517 0.0
H1760 H 0.81422 0.04808 0.88292 0.0
H1761 H 0.79236 0.04144 0.87919 0.0
H1762 H 0.79409 0.06672 0.83741 0.0
H1763 H 0.80255 0.09238 0.87749 0.0
H1764 H 0.13953 0.82105 0.60922 0.0
H1765 H 0.11637 0.82174 0.64782 0.0
H1766 H 0.11869 0.7929 0.76123 0.0
H1767 H 0.14368 0.79511 0.7266 0.0
H1768 H 0.08881 0.80509 0.6661 0.0
H1769 H 0.11241 0.82072 0.84269 0.0
H1770 H 0.12591 0.82139 0.79643 0.0
H1771 H 0.11354 0.80286 0.83052 0.0
C1772 C 0.13564 0.81582 0.64382 0.0
C1773 C 0.14417 0.8093 0.66686 0.0
C1774 C 0.12208 0.81578 0.66551 0.0
C1775 C 0.11608 0.80815 0.70932 0.0
C1776 C 0.12371 0.80012 0.72971 0.0
H1777 H 0.01448 0.75492 0.77345 0.0
H1778 H 0.04176 0.77128 0.73708 0.0
C1779 C 0.13782 0.80105 0.70935 0.0
C1780 C 0.10103 0.80719 0.73182 0.0
H1781 H 0.0818 0.80072 0.83778 0.0
C1782 C 0.0876 0.8047 0.70375 0.0
C1783 C 0.09922 0.80755 0.78096 0.0
C1784 C 0.1137 0.81353 0.81406 0.0
C1785 C 0.07219 0.80102 0.72334 0.0
C1786 C 0.0695 0.79804 0.77197 0.0
C1787 C 0.08335 0.80219 0.80026 0.0
C1788 C 0.0524 0.78897 0.79326 0.0
C1789 C 0.05909 0.80041 0.69135 0.0
C1790 C 0.04928 0.79251 0.8387 0.0
C1791 C 0.03391 0.78228 0.86091 0.0
C1792 C 0.02103 0.76903 0.83704 0.0
C1793 C 0.02402 0.76554 0.79177 0.0
C1794 C 0.03959 0.77517 0.77055 0.0
H1795 H 0.065 0.81045 0.66503 0.0
H1796 H 0.05309 0.7887 0.67184 0.0
H1797 H 0.04938 0.80164 0.71062 0.0
H1798 H 0.05886 0.80287 0.8577 0.0
H1799 H 0.03222 0.78451 0.897 0.0
H1800 H 0.30789 0.36288 0.71517 0.0
H1801 H 0.31496 0.34341 0.74901 0.0
H1802 H 0.31903 0.32763 0.61099 0.0
H1803 H 0.31192 0.34711 0.57708 0.0
H1804 H 0.29947 0.30485 0.72435 0.0
H1805 H 0.36672 0.34958 0.68556 0.0
H1806 H 0.35175 0.35618 0.69316 0.0
H1807 H 0.35128 0.34528 0.64163 0.0
C1808 C 0.30991 0.35494 0.69229 0.0
C1809 C 0.30888 0.35601 0.64381 0.0
C1810 C 0.3139 0.34386 0.71151 0.0
C1811 C 0.31736 0.33407 0.68238 0.0
C1812 C 0.3162 0.335 0.63388 0.0
H1813 H 0.37374 0.28871 0.76907 0.0
H1814 H 0.35724 0.2964 0.72044 0.0
C1815 C 0.31208 0.34601 0.61465 0.0
C1816 C 0.32388 0.32422 0.70281 0.0
H1817 H 0.36049 0.32602 0.72816 0.0
C1818 C 0.31278 0.30933 0.72496 0.0
C1819 C 0.34122 0.33014 0.70301 0.0
C1820 C 0.35355 0.34619 0.67975 0.0
C1821 C 0.31869 0.30027 0.74822 0.0
C1822 C 0.33612 0.30651 0.75012 0.0
C1823 C 0.34712 0.32121 0.72668 0.0
C1824 C 0.34349 0.29871 0.77835 0.0
C1825 C 0.30628 0.28401 0.76988 0.0
C1826 C 0.34104 0.29718 0.82695 0.0
C1827 C 0.35036 0.29266 0.85459 0.0
C1828 C 0.36221 0.28957 0.83401 0.0
C1829 C 0.36441 0.29074 0.78544 0.0
C1830 C 0.355 0.29511 0.75777 0.0
H1831 H 0.29354 0.27909 0.75553 0.0
H1832 H 0.31028 0.27497 0.7637 0.0
H1833 H 0.30557 0.28549 0.80805 0.0
H1834 H 0.33267 0.30042 0.84381 0.0
H1835 H 0.34893 0.2924 0.89218 0.0
H1836 H 0.0089 0.28399 0.357 0.0
H1837 H 0.03533 0.29528 0.31281 0.0
H1838 H 0.04553 0.34433 0.33983 0.0
H1839 H 0.0191 0.33317 0.38232 0.0
H1840 H 0.0463 0.33823 0.24743 0.0
H1841 H 0.08483 0.31958 0.34822 0.0
H1842 H 0.0642 0.30341 0.33308 0.0
H1843 H 0.06664 0.31906 0.37297 0.0
C1844 C 0.01701 0.29717 0.35425 0.0
C1845 C 0.01199 0.30774 0.3726 0.0
C1846 C 0.03209 0.3036 0.32918 0.0
C1847 C 0.04236 0.32064 0.32314 0.0
C1848 C 0.03773 0.33114 0.34391 0.0
H1849 H 0.14159 0.38604 0.22688 0.0
H1850 H 0.11567 0.36782 0.27005 0.0
C1851 C 0.02265 0.32476 0.36816 0.0
C1852 C 0.0571 0.32777 0.29163 0.0
H1853 H 0.09652 0.3343 0.27817 0.0
C1854 C 0.05726 0.33729 0.25393 0.0
C1855 C 0.07131 0.32647 0.30033 0.0
C1856 C 0.07189 0.31669 0.34101 0.0
C1857 C 0.07151 0.34618 0.22582 0.0
C1858 C 0.08582 0.34505 0.23471 0.0
C1859 C 0.08548 0.33505 0.27139 0.0
C1860 C 0.10163 0.35517 0.20862 0.0
C1861 C 0.07133 0.35734 0.18846 0.0
C1862 C 0.10228 0.35405 0.15993 0.0
C1863 C 0.11698 0.36455 0.1354 0.0
C1864 C 0.13132 0.37589 0.15942 0.0
C1865 C 0.13069 0.37709 0.20799 0.0
C1866 C 0.11597 0.36667 0.23252 0.0
H1867 H 0.06099 0.35983 0.19396 0.0
H1868 H 0.08333 0.36924 0.18741 0.0
H1869 H 0.06953 0.35139 0.15398 0.0
H1870 H 0.0914 0.34515 0.14089 0.0
H1871 H 0.11714 0.36387 0.0977 0.0
H1872 H 0.79355 0.73023 0.32746 0.0
H1873 H 0.78877 0.74956 0.28422 0.0
H1874 H 0.84015 0.78752 0.30432 0.0
H1875 H 0.84491 0.76822 0.34927 0.0
H1876 H 0.8193 0.79925 0.31539 0.0
H1877 H 0.8039 0.76403 0.15205 0.0
H1878 H 0.7908 0.75125 0.19878 0.0
H1879 H 0.81308 0.75962 0.20095 0.0
C1880 C 0.80384 0.7427 0.32281 0.0
C1881 C 0.81965 0.74769 0.34133 0.0
C1882 C 0.80113 0.75371 0.29777 0.0
C1883 C 0.81423 0.76984 0.28981 0.0
C1884 C 0.82992 0.77506 0.30959 0.0
H1885 H 0.78375 0.81715 0.08438 0.0
H1886 H 0.80229 0.80963 0.12308 0.0
C1887 C 0.83261 0.76405 0.33528 0.0
C1888 C 0.81126 0.78111 0.2612 0.0
H1889 H 0.79322 0.78244 0.1598 0.0
C1890 C 0.81389 0.79577 0.28097 0.0
C1891 C 0.80474 0.77688 0.21567 0.0
C1892 C 0.80316 0.76218 0.19046 0.0
C1893 C 0.80897 0.80566 0.25779 0.0
C1894 C 0.80074 0.80045 0.21442 0.0
C1895 C 0.79928 0.78642 0.1933 0.0
C1896 C 0.79208 0.80824 0.19235 0.0
C1897 C 0.81251 0.82146 0.28046 0.0
C1898 C 0.78039 0.8103 0.21826 0.0
C1899 C 0.77026 0.81516 0.19633 0.0
C1900 C 0.77154 0.81792 0.14806 0.0
C1901 C 0.78315 0.81586 0.12198 0.0
C1902 C 0.79356 0.81135 0.14405 0.0
H1903 H 0.8244 0.82701 0.30012 0.0
H1904 H 0.81335 0.83051 0.25447 0.0
H1905 H 0.80236 0.81884 0.30584 0.0
H1906 H 0.77841 0.80732 0.25507 0.0
H1907 H 0.76098 0.81616 0.21682 0.0
H1908 H 0.29596 0.00298 0.09959 0.0
H1909 H 0.30325 0.02964 0.1337 0.0
H1910 H 0.31482 0.01494 0.2637 0.0
H1911 H 0.30765 0.98844 0.22972 0.0
H1912 H 0.29365 0.03523 0.255 0.0
H1913 H 0.35726 0.05983 0.17667 0.0
H1914 H 0.33875 0.04594 0.14461 0.0
H1915 H 0.34488 0.0385 0.19344 0.0
C1916 C 0.29953 0.00532 0.13587 0.0
C1917 C 0.3008 0.99362 0.1627 0.0
C1918 C 0.30373 0.02048 0.15517 0.0
C1919 C 0.30937 0.02407 0.20124 0.0
C1920 C 0.31024 0.01223 0.22831 0.0
H1921 H 0.35236 0.09795 0.40623 0.0
H1922 H 0.33324 0.07365 0.36116 0.0
C1923 C 0.30619 0.99718 0.20895 0.0
C1924 C 0.31648 0.04079 0.21972 0.0
H1925 H 0.35375 0.07644 0.23053 0.0
C1926 C 0.30672 0.04439 0.24929 0.0
C1927 C 0.33345 0.05263 0.21165 0.0
C1928 C 0.34431 0.04918 0.17987 0.0
C1929 C 0.31375 0.05954 0.2723 0.0
C1930 C 0.33101 0.07107 0.26638 0.0
C1931 C 0.34052 0.06762 0.23517 0.0
C1932 C 0.33992 0.08626 0.29439 0.0
C1933 C 0.30268 0.06316 0.30231 0.0
C1934 C 0.35006 0.10142 0.272 0.0
C1935 C 0.36112 0.11519 0.29769 0.0
C1936 C 0.36196 0.11412 0.34625 0.0
C1937 C 0.35146 0.09915 0.36895 0.0
C1938 C 0.34049 0.0853 0.34321 0.0
H1939 H 0.28925 0.05506 0.29385 0.0
H1940 H 0.30436 0.06119 0.33951 0.0
H1941 H 0.30607 0.07611 0.2975 0.0
H1942 H 0.34999 0.10241 0.23438 0.0
H1943 H 0.36938 0.12659 0.2795 0.0
loop_
_geom_bond_atom_site_label_1
_geom_bond_atom_site_label_2
_geom_bond_distance
_geom_bond_site_symmetry_2
_ccdc_geom_bond_type
Mn0 O5 2.095 . S
Mn0 O15 2.162 . S
Mn0 O16 2.297 . S
Mn0 O24 2.385 . S
Mn0 O25 2.209 . S
Mn0 O26 2.094 . S
Mn1 O6 2.121 . S
Mn1 N8 2.257 . S
Mn1 N17 2.282 . S
Mn1 O25 2.215 . S
Mn1 O27 2.117 . S
C2 O24 1.234 . S
C2 O25 1.283 . S
C3 O15 1.281 . S
C3 O16 1.236 . S
C4 O26 1.240 . S
C4 O27 1.264 . S
O5 Mn0 2.095 . S
O5 C14 1.250 . S
O6 Mn1 2.121 . S
O6 C14 1.258 . S
C7 N8 1.326 . S
C7 C11 1.460 1_455 S
C7 H13 0.929 . S
N8 Mn1 2.257 . S
N8 C7 1.326 . S
N8 C12 1.362 1_455 S
C9 C10 1.258 . S
C9 C12 1.431 . S
C9 C29 1.449 . S
C10 C9 1.258 . S
C10 C11 1.477 . S
C10 H30 0.931 . S
C11 C7 1.460 1_655 S
C11 C10 1.477 . S
C11 H31 0.930 . S
C12 N8 1.362 1_655 S
C12 C9 1.431 . S
C12 C22 1.476 1_655 S
H13 C7 0.929 . S
C14 O5 1.250 . S
C14 O6 1.258 . S
O15 Mn0 2.162 . S
O15 C3 1.281 . S
O16 Mn0 2.297 . S
O16 C3 1.236 . S
N17 Mn1 2.282 . S
N17 C18 1.328 . S
N17 C22 1.318 . S
C18 N17 1.328 . S
C18 C19 1.457 . S
C18 H23 0.929 . S
C19 C18 1.457 . S
C19 C20 1.291 . S
C19 H32 0.931 . S
C20 C19 1.291 . S
C20 C21 1.373 1_455 S
C20 H33 0.899 1_455 S
C21 C20 1.373 1_655 S
C21 C22 1.396 1_655 S
C21 C28 1.403 . S
C22 C12 1.476 1_455 S
C22 N17 1.318 . S
C22 C21 1.396 1_455 S
H23 C18 0.929 . S
O24 Mn0 2.385 . S
O24 C2 1.234 . S
O25 Mn0 2.209 . S
O25 Mn1 2.215 . S
O25 C2 1.283 . S
O26 Mn0 2.094 . S
O26 C4 1.240 . S
O27 Mn1 2.117 . S
O27 C4 1.264 . S
C28 C21 1.403 . S
C28 C29 1.399 . S
C28 H34 0.929 . S
C29 C9 1.449 . S
C29 C28 1.399 . S
C29 H35 0.930 . S
H30 C10 0.931 . S
H31 C11 0.930 . S
H32 C19 0.931 . S
H33 C20 0.899 1_655 S
H34 C28 0.929 . S
H35 C29 0.930 . S
Mn36 O41 2.095 . S
Mn36 O51 2.162 . S
Mn36 O52 2.297 . S
Mn36 O60 2.385 . S
Mn36 O61 2.209 . S
Mn36 O62 2.094 . S
Mn37 O42 2.121 . S
Mn37 N44 2.257 . S
Mn37 N53 2.282 . S
Mn37 O61 2.215 . S
Mn37 O63 2.117 . S
C38 O60 1.234 . S
C38 O61 1.283 . S
C39 O51 1.281 . S
C39 O52 1.236 . S
C40 O62 1.240 . S
C40 O63 1.264 . S
O41 Mn36 2.095 . S
O41 C50 1.250 . S
O42 Mn37 2.121 . S
O42 C50 1.258 . S
C43 N44 1.326 . S
C43 C47 1.460 . S
C43 H49 0.929 . S
N44 Mn37 2.257 . S
N44 C43 1.326 . S
N44 C48 1.362 . S
C45 C46 1.258 . S
C45 C48 1.431 . S
C45 C65 1.449 . S
C46 C45 1.258 . S
C46 C47 1.477 . S
C46 H66 0.931 . S
C47 C43 1.460 . S
C47 C46 1.477 . S
C47 H67 0.930 . S
C48 N44 1.362 . S
C48 C45 1.431 . S
C48 C58 1.476 . S
H49 C43 0.929 . S
C50 O41 1.250 . S
C50 O42 1.258 . S
O51 Mn36 2.162 . S
O51 C39 1.281 . S
O52 Mn36 2.297 . S
O52 C39 1.236 . S
N53 Mn37 2.282 . S
N53 C54 1.328 . S
N53 C58 1.318 . S
C54 N53 1.328 . S
C54 C55 1.457 . S
C54 H59 0.929 . S
C55 C54 1.457 . S
C55 C56 1.291 . S
C55 H68 0.931 . S
C56 C55 1.291 . S
C56 C57 1.373 . S
C56 H69 0.929 . S
C57 C56 1.373 . S
C57 C58 1.396 . S
C57 C64 1.403 . S
C58 C48 1.476 . S
C58 N53 1.318 . S
C58 C57 1.396 . S
H59 C54 0.929 . S
O60 Mn36 2.385 . S
O60 C38 1.234 . S
O61 Mn36 2.209 . S
O61 Mn37 2.215 . S
O61 C38 1.283 . S
O62 Mn36 2.094 . S
O62 C40 1.240 . S
O63 Mn37 2.117 . S
O63 C40 1.264 . S
C64 C57 1.403 . S
C64 C65 1.399 . S
C64 H70 0.929 . S
C65 C45 1.449 . S
C65 C64 1.399 . S
C65 H71 0.930 . S
H66 C46 0.931 . S
H67 C47 0.930 . S
H68 C55 0.931 . S
H69 C56 0.929 . S
H70 C64 0.929 . S
H71 C65 0.930 . S
Mn72 O77 2.095 . S
Mn72 O87 2.162 . S
Mn72 O88 2.297 . S
Mn72 O96 2.385 . S
Mn72 O97 2.209 . S
Mn72 O98 2.094 . S
Mn73 O78 2.121 . S
Mn73 N80 2.257 . S
Mn73 N89 2.282 . S
Mn73 O97 2.215 . S
Mn73 O99 2.117 . S
C74 O96 1.234 . S
C74 O97 1.283 . S
C75 O87 1.281 . S
C75 O88 1.236 . S
C76 O98 1.240 . S
C76 O99 1.264 . S
O77 Mn72 2.095 . S
O77 C86 1.250 . S
O78 Mn73 2.121 . S
O78 C86 1.258 . S
C79 N80 1.326 . S
C79 C83 1.460 . S
C79 H85 0.929 . S
N80 Mn73 2.257 . S
N80 C79 1.326 . S
N80 C84 1.362 . S
C81 C82 1.258 . S
C81 C84 1.431 . S
C81 C101 1.449 . S
C82 C81 1.258 . S
C82 C83 1.477 . S
C82 H102 0.931 . S
C83 C79 1.460 . S
C83 C82 1.477 . S
C83 H103 0.930 . S
C84 N80 1.362 . S
C84 C81 1.431 . S
C84 C94 1.476 . S
H85 C79 0.929 . S
C86 O77 1.250 . S
C86 O78 1.258 . S
O87 Mn72 2.162 . S
O87 C75 1.281 . S
O88 Mn72 2.297 . S
O88 C75 1.236 . S
N89 Mn73 2.282 . S
N89 C90 1.328 . S
N89 C94 1.318 . S
C90 N89 1.328 . S
C90 C91 1.457 . S
C90 H95 0.929 . S
C91 C90 1.457 . S
C91 C92 1.291 . S
C91 H104 0.931 . S
C92 C91 1.291 . S
C92 C93 1.373 . S
C92 H105 0.929 . S
C93 C92 1.373 . S
C93 C94 1.396 . S
C93 C100 1.403 . S
C94 C84 1.476 . S
C94 N89 1.318 . S
C94 C93 1.396 . S
H95 C90 0.929 . S
O96 Mn72 2.385 . S
O96 C74 1.234 . S
O97 Mn72 2.209 . S
O97 Mn73 2.215 . S
O97 C74 1.283 . S
O98 Mn72 2.094 . S
O98 C76 1.240 . S
O99 Mn73 2.117 . S
O99 C76 1.264 . S
C100 C93 1.403 . S
C100 C101 1.399 . S
C100 H106 0.929 . S
C101 C81 1.449 . S
C101 C100 1.399 . S
C101 H107 0.930 . S
H102 C82 0.931 . S
H103 C83 0.930 . S
H104 C91 0.931 . S
H105 C92 0.929 . S
H106 C100 0.929 . S
H107 C101 0.930 . S
Mn108 O113 2.095 . S
Mn108 O123 2.162 . S
Mn108 O124 2.297 . S
Mn108 O132 2.385 . S
Mn108 O133 2.209 . S
Mn108 O134 2.094 . S
Mn109 O114 2.121 . S
Mn109 N116 2.257 . S
Mn109 N125 2.282 . S
Mn109 O133 2.215 . S
Mn109 O135 2.117 . S
C110 O132 1.234 . S
C110 O133 1.283 . S
C111 O123 1.281 . S
C111 O124 1.236 . S
C112 O134 1.240 . S
C112 O135 1.264 . S
O113 Mn108 2.095 . S
O113 C122 1.250 . S
O114 Mn109 2.121 . S
O114 C122 1.258 . S
C115 N116 1.316 1_655 S
C115 C119 1.481 . S
C115 H121 0.919 1_655 S
N116 Mn109 2.257 . S
N116 C115 1.316 1_455 S
N116 C120 1.362 1_455 S
C117 C118 1.258 . S
C117 C120 1.431 . S
C117 C137 1.449 . S
C118 C117 1.258 . S
C118 C119 1.477 . S
C118 H138 0.931 . S
C119 C115 1.481 . S
C119 C118 1.477 . S
C119 H139 0.930 . S
C120 N116 1.362 1_655 S
C120 C117 1.431 . S
C120 C130 1.476 1_655 S
H121 C115 0.919 1_455 S
C122 O113 1.250 . S
C122 O114 1.258 . S
O123 Mn108 2.162 . S
O123 C111 1.281 . S
O124 Mn108 2.297 . S
O124 C111 1.236 . S
N125 Mn109 2.282 . S
N125 C126 1.328 . S
N125 C130 1.318 . S
C126 N125 1.328 . S
C126 C127 1.457 . S
C126 H131 0.929 . S
C127 C126 1.457 . S
C127 C128 1.291 . S
C127 H140 0.931 . S
C128 C127 1.291 . S
C128 C129 1.373 1_455 S
C128 H141 0.929 1_455 S
C129 C128 1.373 1_655 S
C129 C130 1.396 1_655 S
C129 C136 1.403 . S
C130 C120 1.476 1_455 S
C130 N125 1.318 . S
C130 C129 1.396 1_455 S
H131 C126 0.929 . S
O132 Mn108 2.385 . S
O132 C110 1.234 . S
O133 Mn108 2.209 . S
O133 Mn109 2.215 . S
O133 C110 1.283 . S
O134 Mn108 2.094 . S
O134 C112 1.240 . S
O135 Mn109 2.117 . S
O135 C112 1.264 . S
C136 C129 1.403 . S
C136 C137 1.399 . S
C136 H142 0.929 . S
C137 C117 1.449 . S
C137 C136 1.399 . S
C137 H143 0.930 . S
H138 C118 0.931 . S
H139 C119 0.930 . S
H140 C127 0.931 . S
H141 C128 0.929 1_655 S
H142 C136 0.929 . S
H143 C137 0.930 . S
Mn144 O149 2.095 . S
Mn144 O159 2.162 . S
Mn144 O160 2.297 . S
Mn144 O168 2.385 . S
Mn144 O169 2.209 . S
Mn144 O170 2.094 . S
Mn145 O150 2.121 . S
Mn145 N152 2.257 . S
Mn145 N161 2.282 . S
Mn145 O169 2.215 . S
Mn145 O171 2.117 . S
C146 O168 1.234 . S
C146 O169 1.283 . S
C147 O159 1.281 . S
C147 O160 1.236 . S
C148 O170 1.240 . S
C148 O171 1.264 . S
O149 Mn144 2.095 . S
O149 C158 1.250 . S
O150 Mn145 2.121 . S
O150 C158 1.258 . S
C151 N152 1.326 . S
C151 C155 1.460 . S
C151 H157 0.929 . S
N152 Mn145 2.257 . S
N152 C151 1.326 . S
N152 C156 1.362 . S
C153 C154 1.258 . S
C153 C156 1.431 . S
C153 C173 1.449 . S
C154 C153 1.258 . S
C154 C155 1.477 . S
C154 H174 0.931 . S
C155 C151 1.460 . S
C155 C154 1.477 . S
C155 H175 0.930 . S
C156 N152 1.362 . S
C156 C153 1.431 . S
C156 C166 1.476 . S
H157 C151 0.929 . S
C158 O149 1.250 . S
C158 O150 1.258 . S
O159 Mn144 2.162 . S
O159 C147 1.281 . S
O160 Mn144 2.297 . S
O160 C147 1.236 . S
N161 Mn145 2.282 . S
N161 C162 1.328 . S
N161 C166 1.318 . S
C162 N161 1.328 . S
C162 C163 1.457 . S
C162 H167 0.929 . S
C163 C162 1.457 . S
C163 C164 1.291 . S
C163 H176 0.931 . S
C164 C163 1.291 . S
C164 C165 1.373 . S
C164 H177 0.929 . S
C165 C164 1.373 . S
C165 C166 1.396 . S
C165 C172 1.403 . S
C166 C156 1.476 . S
C166 N161 1.318 . S
C166 C165 1.396 . S
H167 C162 0.929 . S
O168 Mn144 2.385 . S
O168 C146 1.234 . S
O169 Mn144 2.209 . S
O169 Mn145 2.215 . S
O169 C146 1.283 . S
O170 Mn144 2.094 . S
O170 C148 1.240 . S
O171 Mn145 2.117 . S
O171 C148 1.264 . S
C172 C165 1.403 . S
C172 C173 1.399 . S
C172 H178 0.929 . S
C173 C153 1.449 . S
C173 C172 1.399 . S
C173 H179 0.930 . S
H174 C154 0.931 . S
H175 C155 0.930 . S
H176 C163 0.931 . S
H177 C164 0.929 . S
H178 C172 0.929 . S
H179 C173 0.930 . S
Mn180 O185 2.095 . S
Mn180 O195 2.162 . S
Mn180 O196 2.297 . S
Mn180 O204 2.385 . S
Mn180 O205 2.209 . S
Mn180 O206 2.094 . S
Mn181 O186 2.121 . S
Mn181 N188 2.257 . S
Mn181 N197 2.282 . S
Mn181 O205 2.215 . S
Mn181 O207 2.117 . S
C182 O204 1.234 . S
C182 O205 1.283 . S
C183 O195 1.281 . S
C183 O196 1.236 . S
C184 O206 1.240 . S
C184 O207 1.264 . S
O185 Mn180 2.095 . S
O185 C194 1.250 . S
O186 Mn181 2.121 . S
O186 C194 1.258 . S
C187 N188 1.326 . S
C187 C191 1.460 1_545 S
C187 H193 0.929 . S
N188 Mn181 2.257 . S
N188 C187 1.326 . S
N188 C192 1.340 1_545 S
C189 C190 1.258 . S
C189 C192 1.482 . S
C189 C209 1.449 . S
C190 C189 1.258 . S
C190 C191 1.477 . S
C190 H210 0.931 . S
C191 C187 1.460 1_565 S
C191 C190 1.477 . S
C191 H211 0.930 . S
C192 N188 1.340 1_565 S
C192 C189 1.482 . S
C192 C202 1.448 1_565 S
H193 C187 0.929 . S
C194 O185 1.250 . S
C194 O186 1.258 . S
O195 Mn180 2.162 . S
O195 C183 1.281 . S
O196 Mn180 2.297 . S
O196 C183 1.236 . S
N197 Mn181 2.282 . S
N197 C198 1.328 . S
N197 C202 1.318 . S
C198 N197 1.328 . S
C198 C199 1.457 . S
C198 H203 0.929 . S
C199 C198 1.457 . S
C199 C200 1.291 . S
C199 H212 0.931 . S
C200 C199 1.291 . S
C200 C201 1.373 1_545 S
C200 H213 0.921 1_545 S
C201 C200 1.373 1_565 S
C201 C202 1.396 1_565 S
C201 C208 1.403 . S
C202 C192 1.448 1_545 S
C202 N197 1.318 . S
C202 C201 1.396 1_545 S
H203 C198 0.929 . S
O204 Mn180 2.385 . S
O204 C182 1.234 . S
O205 Mn180 2.209 . S
O205 Mn181 2.215 . S
O205 C182 1.283 . S
O206 Mn180 2.094 . S
O206 C184 1.240 . S
O207 Mn181 2.117 . S
O207 C184 1.264 . S
C208 C201 1.403 . S
C208 C209 1.399 . S
C208 H214 0.929 . S
C209 C189 1.449 . S
C209 C208 1.399 . S
C209 H215 0.930 . S
H210 C190 0.931 . S
H211 C191 0.930 . S
H212 C199 0.931 . S
H213 C200 0.921 1_565 S
H214 C208 0.929 . S
H215 C209 0.930 . S
Mn216 O221 2.095 . S
Mn216 O231 2.162 . S
Mn216 O232 2.297 . S
Mn216 O240 2.385 . S
Mn216 O241 2.209 . S
Mn216 O242 2.094 . S
Mn217 O222 2.121 . S
Mn217 N224 2.257 . S
Mn217 N233 2.282 . S
Mn217 O241 2.215 . S
Mn217 O243 2.117 . S
C218 O240 1.234 . S
C218 O241 1.283 . S
C219 O231 1.281 . S
C219 O232 1.236 . S
C220 O242 1.240 . S
C220 O243 1.264 . S
O221 Mn216 2.095 . S
O221 C230 1.250 . S
O222 Mn217 2.121 . S
O222 C230 1.258 . S
C223 N224 1.326 . S
C223 C227 1.460 . S
C223 H229 0.929 . S
N224 Mn217 2.257 . S
N224 C223 1.326 . S
N224 C228 1.362 . S
C225 C226 1.258 . S
C225 C228 1.431 . S
C225 C245 1.449 . S
C226 C225 1.258 . S
C226 C227 1.477 . S
C226 H246 0.931 . S
C227 C223 1.460 . S
C227 C226 1.477 . S
C227 H247 0.930 . S
C228 N224 1.362 . S
C228 C225 1.431 . S
C228 C238 1.476 . S
H229 C223 0.929 . S
C230 O221 1.250 . S
C230 O222 1.258 . S
O231 Mn216 2.162 . S
O231 C219 1.281 . S
O232 Mn216 2.297 . S
O232 C219 1.236 . S
N233 Mn217 2.282 . S
N233 C234 1.328 . S
N233 C238 1.318 . S
C234 N233 1.328 . S
C234 C235 1.457 . S
C234 H239 0.929 . S
C235 C234 1.457 . S
C235 C236 1.291 . S
C235 H248 0.931 . S
C236 C235 1.291 . S
C236 C237 1.373 . S
C236 H249 0.929 . S
C237 C236 1.373 . S
C237 C238 1.396 . S
C237 C244 1.403 . S
C238 C228 1.476 . S
C238 N233 1.318 . S
C238 C237 1.396 . S
H239 C234 0.929 . S
O240 Mn216 2.385 . S
O240 C218 1.234 . S
O241 Mn216 2.209 . S
O241 Mn217 2.215 . S
O241 C218 1.283 . S
O242 Mn216 2.094 . S
O242 C220 1.240 . S
O243 Mn217 2.117 . S
O243 C220 1.264 . S
C244 C237 1.403 . S
C244 C245 1.399 . S
C244 H250 0.929 . S
C245 C225 1.449 . S
C245 C244 1.399 . S
C245 H251 0.930 . S
H246 C226 0.931 . S
H247 C227 0.930 . S
H248 C235 0.931 . S
H249 C236 0.929 . S
H250 C244 0.929 . S
H251 C245 0.930 . S
Mn252 O257 2.095 . S
Mn252 O267 2.162 . S
Mn252 O268 2.297 . S
Mn252 O276 2.385 . S
Mn252 O277 2.209 . S
Mn252 O278 2.094 . S
Mn253 O258 2.121 . S
Mn253 N260 2.257 . S
Mn253 N269 2.282 . S
Mn253 O277 2.215 . S
Mn253 O279 2.117 . S
C254 O276 1.234 . S
C254 O277 1.283 . S
C255 O267 1.281 . S
C255 O268 1.236 . S
C256 O278 1.240 . S
C256 O279 1.264 . S
O257 Mn252 2.095 . S
O257 C266 1.250 . S
O258 Mn253 2.121 . S
O258 C266 1.258 . S
C259 N260 1.326 . S
C259 C263 1.460 . S
C259 H265 0.929 . S
N260 Mn253 2.257 . S
N260 C259 1.326 . S
N260 C264 1.362 . S
C261 C262 1.258 . S
C261 C264 1.431 . S
C261 C281 1.449 . S
C262 C261 1.258 . S
C262 C263 1.477 . S
C262 H282 0.931 . S
C263 C259 1.460 . S
C263 C262 1.477 . S
C263 H283 0.930 . S
C264 N260 1.362 . S
C264 C261 1.431 . S
C264 C274 1.476 . S
H265 C259 0.929 . S
C266 O257 1.250 . S
C266 O258 1.258 . S
O267 Mn252 2.162 . S
O267 C255 1.281 . S
O268 Mn252 2.297 . S
O268 C255 1.236 . S
N269 Mn253 2.282 . S
N269 C270 1.328 . S
N269 C274 1.318 . S
C270 N269 1.328 . S
C270 C271 1.457 . S
C270 H275 0.929 . S
C271 C270 1.457 . S
C271 C272 1.291 . S
C271 H284 0.931 . S
C272 C271 1.291 . S
C272 C273 1.373 . S
C272 H285 0.929 . S
C273 C272 1.373 . S
C273 C274 1.396 . S
C273 C280 1.403 . S
C274 C264 1.476 . S
C274 N269 1.318 . S
C274 C273 1.396 . S
H275 C270 0.929 . S
O276 Mn252 2.385 . S
O276 C254 1.234 . S
O277 Mn252 2.209 . S
O277 Mn253 2.215 . S
O277 C254 1.283 . S
O278 Mn252 2.094 . S
O278 C256 1.240 . S
O279 Mn253 2.117 . S
O279 C256 1.264 . S
C280 C273 1.403 . S
C280 C281 1.399 . S
C280 H286 0.929 . S
C281 C261 1.449 . S
C281 C280 1.399 . S
C281 H287 0.930 . S
H282 C262 0.931 . S
H283 C263 0.930 . S
H284 C271 0.931 . S
H285 C272 0.929 . S
H286 C280 0.929 . S
H287 C281 0.930 . S
Mn288 O293 2.095 . S
Mn288 O303 2.162 . S
Mn288 O304 2.297 . S
Mn288 O312 2.385 . S
Mn288 O313 2.209 . S
Mn288 O314 2.094 . S
Mn289 O294 2.121 . S
Mn289 N296 2.257 . S
Mn289 N305 2.282 . S
Mn289 O313 2.215 . S
Mn289 O315 2.117 . S
C290 O312 1.234 . S
C290 O313 1.283 . S
C291 O303 1.281 . S
C291 O304 1.236 . S
C292 O314 1.240 . S
C292 O315 1.264 . S
O293 Mn288 2.095 . S
O293 C302 1.250 . S
O294 Mn289 2.121 . S
O294 C302 1.258 . S
C295 N296 1.326 . S
C295 C299 1.460 . S
C295 H301 0.929 . S
N296 Mn289 2.257 . S
N296 C295 1.326 . S
N296 C300 1.362 . S
C297 C298 1.258 . S
C297 C300 1.431 . S
C297 C317 1.449 . S
C298 C297 1.258 . S
C298 C299 1.477 . S
C298 H318 0.931 . S
C299 C295 1.460 . S
C299 C298 1.477 . S
C299 H319 0.930 . S
C300 N296 1.362 . S
C300 C297 1.431 . S
C300 C310 1.476 . S
H301 C295 0.929 . S
C302 O293 1.250 . S
C302 O294 1.258 . S
O303 Mn288 2.162 . S
O303 C291 1.281 . S
O304 Mn288 2.297 . S
O304 C291 1.236 . S
N305 Mn289 2.282 . S
N305 C306 1.328 . S
N305 C310 1.318 . S
C306 N305 1.328 . S
C306 C307 1.457 . S
C306 H311 0.929 . S
C307 C306 1.457 . S
C307 C308 1.291 . S
C307 H320 0.931 . S
C308 C307 1.291 . S
C308 C309 1.373 . S
C308 H321 0.929 . S
C309 C308 1.373 . S
C309 C310 1.396 . S
C309 C316 1.403 . S
C310 C300 1.476 . S
C310 N305 1.318 . S
C310 C309 1.396 . S
H311 C306 0.929 . S
O312 Mn288 2.385 . S
O312 C290 1.234 . S
O313 Mn288 2.209 . S
O313 Mn289 2.215 . S
O313 C290 1.283 . S
O314 Mn288 2.094 . S
O314 C292 1.240 . S
O315 Mn289 2.117 . S
O315 C292 1.264 . S
C316 C309 1.403 . S
C316 C317 1.399 . S
C316 H322 0.929 . S
C317 C297 1.449 . S
C317 C316 1.399 . S
C317 H323 0.930 . S
H318 C298 0.931 . S
H319 C299 0.930 . S
H320 C307 0.931 . S
H321 C308 0.929 . S
H322 C316 0.929 . S
H323 C317 0.930 . S
Mn324 O329 2.095 . S
Mn324 O339 2.162 . S
Mn324 O340 2.297 . S
Mn324 O348 2.385 . S
Mn324 O349 2.209 . S
Mn324 O350 2.094 . S
Mn325 O330 2.121 . S
Mn325 N332 2.257 . S
Mn325 N341 2.282 . S
Mn325 O349 2.215 . S
Mn325 O351 2.117 . S
C326 O348 1.234 . S
C326 O349 1.283 . S
C327 O339 1.281 . S
C327 O340 1.236 . S
C328 O350 1.240 . S
C328 O351 1.264 . S
O329 Mn324 2.095 . S
O329 C338 1.250 . S
O330 Mn325 2.121 . S
O330 C338 1.258 . S
C331 N332 1.326 . S
C331 C335 1.460 . S
C331 H337 0.929 . S
N332 Mn325 2.257 . S
N332 C331 1.326 . S
N332 C336 1.362 . S
C333 C334 1.258 . S
C333 C336 1.431 . S
C333 C353 1.449 . S
C334 C333 1.258 . S
C334 C335 1.477 . S
C334 H354 0.931 . S
C335 C331 1.460 . S
C335 C334 1.477 . S
C335 H355 0.930 1_554 S
C336 N332 1.362 . S
C336 C333 1.431 . S
C336 C346 1.476 . S
H337 C331 0.929 . S
C338 O329 1.250 . S
C338 O330 1.258 . S
O339 Mn324 2.162 . S
O339 C327 1.281 . S
O340 Mn324 2.297 . S
O340 C327 1.236 . S
N341 Mn325 2.282 . S
N341 C342 1.328 . S
N341 C346 1.318 . S
C342 N341 1.328 . S
C342 C343 1.457 . S
C342 H347 0.929 . S
C343 C342 1.457 . S
C343 C344 1.291 . S
C343 H356 0.931 . S
C344 C343 1.291 . S
C344 C345 1.373 . S
C344 H357 0.929 . S
C345 C344 1.373 . S
C345 C346 1.396 . S
C345 C352 1.403 . S
C346 C336 1.476 . S
C346 N341 1.318 . S
C346 C345 1.396 . S
H347 C342 0.929 . S
O348 Mn324 2.385 . S
O348 C326 1.234 . S
O349 Mn324 2.209 . S
O349 Mn325 2.215 . S
O349 C326 1.283 . S
O350 Mn324 2.094 . S
O350 C328 1.240 . S
O351 Mn325 2.117 . S
O351 C328 1.264 . S
C352 C345 1.403 . S
C352 C353 1.399 . S
C352 H358 0.929 . S
C353 C333 1.449 . S
C353 C352 1.399 . S
C353 H359 0.930 . S
H354 C334 0.931 . S
H355 C335 0.930 1_556 S
H356 C343 0.931 . S
H357 C344 0.929 . S
H358 C352 0.929 . S
H359 C353 0.930 . S
Mn360 O365 2.095 . S
Mn360 O375 2.162 . S
Mn360 O376 2.297 . S
Mn360 O384 2.385 . S
Mn360 O385 2.209 . S
Mn360 O386 2.094 . S
Mn361 O366 2.121 . S
Mn361 N368 2.257 . S
Mn361 N377 2.282 . S
Mn361 O385 2.215 . S
Mn361 O387 2.117 . S
C362 O384 1.234 . S
C362 O385 1.283 . S
C363 O375 1.281 . S
C363 O376 1.236 . S
C364 O386 1.240 . S
C364 O387 1.264 . S
O365 Mn360 2.095 . S
O365 C374 1.250 . S
O366 Mn361 2.121 . S
O366 C374 1.258 . S
C367 N368 1.326 . S
C367 C371 1.460 . S
C367 H373 0.929 . S
N368 Mn361 2.257 . S
N368 C367 1.326 . S
N368 C372 1.362 . S
C369 C370 1.276 . S
C369 C372 1.431 . S
C369 C389 1.449 1_565 S
C370 C369 1.276 . S
C370 C371 1.514 . S
C370 H390 0.878 1_565 S
C371 C367 1.460 . S
C371 C370 1.514 . S
C371 H391 0.930 . S
C372 N368 1.362 . S
C372 C369 1.431 . S
C372 C382 1.476 . S
H373 C367 0.929 . S
C374 O365 1.250 . S
C374 O366 1.258 . S
O375 Mn360 2.162 . S
O375 C363 1.281 . S
O376 Mn360 2.297 . S
O376 C363 1.236 . S
N377 Mn361 2.282 . S
N377 C378 1.328 . S
N377 C382 1.318 . S
C378 N377 1.328 . S
C378 C379 1.457 . S
C378 H383 0.929 . S
C379 C378 1.457 . S
C379 C380 1.291 . S
C379 H392 0.931 . S
C380 C379 1.291 . S
C380 C381 1.373 . S
C380 H393 0.929 . S
C381 C380 1.373 . S
C381 C382 1.396 . S
C381 C388 1.403 1_565 S
C382 C372 1.476 . S
C382 N377 1.318 . S
C382 C381 1.396 . S
H383 C378 0.929 . S
O384 Mn360 2.385 . S
O384 C362 1.234 . S
O385 Mn360 2.209 . S
O385 Mn361 2.215 . S
O385 C362 1.283 . S
O386 Mn360 2.094 . S
O386 C364 1.240 . S
O387 Mn361 2.117 . S
O387 C364 1.264 . S
C388 C381 1.403 1_545 S
C388 C389 1.399 . S
C388 H394 0.929 . S
C389 C369 1.449 1_545 S
C389 C388 1.399 . S
C389 H395 0.930 . S
H390 C370 0.878 1_545 S
H391 C371 0.930 . S
H392 C379 0.931 . S
H393 C380 0.929 . S
H394 C388 0.929 . S
H395 C389 0.930 . S
Mn396 O401 2.095 . S
Mn396 O411 2.162 . S
Mn396 O412 2.297 . S
Mn396 O420 2.385 . S
Mn396 O421 2.209 . S
Mn396 O422 2.094 . S
Mn397 O402 2.121 . S
Mn397 N404 2.257 . S
Mn397 N413 2.282 . S
Mn397 O421 2.215 . S
Mn397 O423 2.117 . S
C398 O420 1.234 . S
C398 O421 1.283 . S
C399 O411 1.281 . S
C399 O412 1.236 . S
C400 O422 1.240 . S
C400 O423 1.264 . S
O401 Mn396 2.095 . S
O401 C410 1.250 . S
O402 Mn397 2.121 . S
O402 C410 1.258 . S
C403 N404 1.326 . S
C403 C407 1.460 . S
C403 H409 0.929 . S
N404 Mn397 2.257 . S
N404 C403 1.326 . S
N404 C408 1.362 . S
C405 C406 1.258 . S
C405 C408 1.431 . S
C405 C425 1.449 . S
C406 C405 1.258 . S
C406 C407 1.477 . S
C406 H426 0.931 . S
C407 C403 1.460 . S
C407 C406 1.477 . S
C407 H427 0.930 . S
C408 N404 1.362 . S
C408 C405 1.431 . S
C408 C418 1.476 . S
H409 C403 0.929 . S
C410 O401 1.250 . S
C410 O402 1.258 . S
O411 Mn396 2.162 . S
O411 C399 1.281 . S
O412 Mn396 2.297 . S
O412 C399 1.236 . S
N413 Mn397 2.282 . S
N413 C414 1.328 . S
N413 C418 1.318 . S
C414 N413 1.328 . S
C414 C415 1.457 . S
C414 H419 0.929 . S
C415 C414 1.457 . S
C415 C416 1.291 . S
C415 H428 0.931 . S
C416 C415 1.291 . S
C416 C417 1.373 . S
C416 H429 0.929 . S
C417 C416 1.373 . S
C417 C418 1.396 . S
C417 C424 1.403 . S
C418 C408 1.476 . S
C418 N413 1.318 . S
C418 C417 1.396 . S
H419 C414 0.929 . S
O420 Mn396 2.385 . S
O420 C398 1.234 . S
O421 Mn396 2.209 . S
O421 Mn397 2.215 . S
O421 C398 1.283 . S
O422 Mn396 2.094 . S
O422 C400 1.240 . S
O423 Mn397 2.117 . S
O423 C400 1.264 . S
C424 C417 1.403 . S
C424 C425 1.399 . S
C424 H430 0.929 . S
C425 C405 1.449 . S
C425 C424 1.399 . S
C425 H431 0.930 . S
H426 C406 0.931 . S
H427 C407 0.930 . S
H428 C415 0.931 . S
H429 C416 0.929 . S
H430 C424 0.929 . S
H431 C425 0.930 . S
Mn432 O437 2.095 . S
Mn432 O447 2.162 . S
Mn432 O448 2.297 . S
Mn432 O456 2.385 . S
Mn432 O457 2.209 . S
Mn432 O458 2.094 . S
Mn433 O438 2.121 . S
Mn433 N440 2.257 . S
Mn433 N449 2.282 . S
Mn433 O457 2.215 . S
Mn433 O459 2.117 . S
C434 O456 1.234 . S
C434 O457 1.283 . S
C435 O447 1.281 . S
C435 O448 1.236 . S
C436 O458 1.240 . S
C436 O459 1.264 . S
O437 Mn432 2.095 . S
O437 C446 1.250 . S
O438 Mn433 2.121 . S
O438 C446 1.258 . S
C439 N440 1.326 . S
C439 C443 1.460 . S
C439 H445 0.929 . S
N440 Mn433 2.257 . S
N440 C439 1.326 . S
N440 C444 1.362 . S
C441 C442 1.258 . S
C441 C444 1.431 . S
C441 C461 1.449 . S
C442 C441 1.258 . S
C442 C443 1.477 . S
C442 H462 0.931 . S
C443 C439 1.460 . S
C443 C442 1.477 . S
C443 H463 0.930 . S
C444 N440 1.362 . S
C444 C441 1.431 . S
C444 C454 1.476 . S
H445 C439 0.929 . S
C446 O437 1.250 . S
C446 O438 1.258 . S
O447 Mn432 2.162 . S
O447 C435 1.281 . S
O448 Mn432 2.297 . S
O448 C435 1.236 . S
N449 Mn433 2.282 . S
N449 C450 1.328 . S
N449 C454 1.318 . S
C450 N449 1.328 . S
C450 C451 1.457 . S
C450 H455 0.929 . S
C451 C450 1.457 . S
C451 C452 1.291 . S
C451 H464 0.931 . S
C452 C451 1.291 . S
C452 C453 1.373 . S
C452 H465 0.929 . S
C453 C452 1.373 . S
C453 C454 1.396 . S
C453 C460 1.403 . S
C454 C444 1.476 . S
C454 N449 1.318 . S
C454 C453 1.396 . S
H455 C450 0.929 . S
O456 Mn432 2.385 . S
O456 C434 1.234 . S
O457 Mn432 2.209 . S
O457 Mn433 2.215 . S
O457 C434 1.283 . S
O458 Mn432 2.094 . S
O458 C436 1.240 . S
O459 Mn433 2.117 . S
O459 C436 1.264 . S
C460 C453 1.403 . S
C460 C461 1.399 . S
C460 H466 0.929 . S
C461 C441 1.449 . S
C461 C460 1.399 . S
C461 H467 0.930 . S
H462 C442 0.931 . S
H463 C443 0.930 . S
H464 C451 0.931 . S
H465 C452 0.929 . S
H466 C460 0.929 . S
H467 C461 0.930 . S
Mn468 O473 2.095 . S
Mn468 O483 2.162 . S
Mn468 O484 2.297 . S
Mn468 O492 2.385 . S
Mn468 O493 2.209 . S
Mn468 O494 2.098 . S
Mn469 O474 2.121 . S
Mn469 N476 2.257 . S
Mn469 N485 2.282 1_556 S
Mn469 O493 2.215 . S
Mn469 O495 2.117 1_556 S
C470 O492 1.234 . S
C470 O493 1.283 . S
C471 O483 1.281 . S
C471 O484 1.236 . S
C472 O494 1.238 1_554 S
C472 O495 1.264 . S
O473 Mn468 2.095 . S
O473 C482 1.250 . S
O474 Mn469 2.121 . S
O474 C482 1.258 . S
C475 N476 1.326 . S
C475 C479 1.460 . S
C475 H481 0.929 . S
N476 Mn469 2.257 . S
N476 C475 1.326 . S
N476 C480 1.362 . S
C477 C478 1.258 . S
C477 C480 1.431 . S
C477 C497 1.449 1_556 S
C478 C477 1.258 . S
C478 C479 1.477 . S
C478 H498 0.931 . S
C479 C475 1.460 . S
C479 C478 1.477 . S
C479 H499 0.930 . S
C480 N476 1.362 . S
C480 C477 1.431 . S
C480 C490 1.476 1_556 S
H481 C475 0.929 . S
C482 O473 1.250 . S
C482 O474 1.258 . S
O483 Mn468 2.162 . S
O483 C471 1.281 . S
O484 Mn468 2.297 . S
O484 C471 1.236 . S
N485 Mn469 2.282 1_554 S
N485 C486 1.328 . S
N485 C490 1.318 . S
C486 N485 1.328 . S
C486 C487 1.457 . S
C486 H491 0.929 . S
C487 C486 1.457 . S
C487 C488 1.291 . S
C487 H500 0.931 . S
C488 C487 1.291 . S
C488 C489 1.373 . S
C488 H501 0.929 . S
C489 C488 1.373 . S
C489 C490 1.396 . S
C489 C496 1.403 . S
C490 C480 1.476 1_554 S
C490 N485 1.318 . S
C490 C489 1.396 . S
H491 C486 0.929 . S
O492 Mn468 2.385 . S
O492 C470 1.234 . S
O493 Mn468 2.209 . S
O493 Mn469 2.215 . S
O493 C470 1.283 . S
O494 Mn468 2.098 . S
O494 C472 1.238 1_556 S
O495 Mn469 2.117 1_554 S
O495 C472 1.264 . S
C496 C489 1.403 . S
C496 C497 1.399 . S
C496 H502 0.929 . S
C497 C477 1.449 1_554 S
C497 C496 1.399 . S
C497 H503 0.930 . S
H498 C478 0.931 . S
H499 C479 0.930 . S
H500 C487 0.931 . S
H501 C488 0.929 . S
H502 C496 0.929 . S
H503 C497 0.930 . S
Mn504 O509 2.095 . S
Mn504 O519 2.162 . S
Mn504 O520 2.297 . S
Mn504 O528 2.385 . S
Mn504 O529 2.209 . S
Mn504 O530 2.094 . S
Mn505 O510 2.121 . S
Mn505 N512 2.257 . S
Mn505 N521 2.282 . S
Mn505 O529 2.215 . S
Mn505 O531 2.117 . S
C506 O528 1.234 . S
C506 O529 1.283 . S
C507 O519 1.281 . S
C507 O520 1.236 . S
C508 O530 1.240 . S
C508 O531 1.264 . S
O509 Mn504 2.095 . S
O509 C518 1.250 . S
O510 Mn505 2.121 . S
O510 C518 1.258 . S
C511 N512 1.326 . S
C511 C515 1.460 1_655 S
C511 H517 0.929 . S
N512 Mn505 2.257 . S
N512 C511 1.326 . S
N512 C516 1.362 1_655 S
C513 C514 1.258 . S
C513 C516 1.431 . S
C513 C533 1.449 . S
C514 C513 1.258 . S
C514 C515 1.477 . S
C514 H534 0.931 . S
C515 C511 1.460 1_455 S
C515 C514 1.477 . S
C515 H535 0.930 . S
C516 N512 1.362 1_455 S
C516 C513 1.431 . S
C516 C526 1.476 . S
H517 C511 0.929 . S
C518 O509 1.250 . S
C518 O510 1.258 . S
O519 Mn504 2.162 . S
O519 C507 1.281 . S
O520 Mn504 2.297 . S
O520 C507 1.236 . S
N521 Mn505 2.282 . S
N521 C522 1.328 . S
N521 C526 1.318 1_655 S
C522 N521 1.328 . S
C522 C523 1.457 . S
C522 H527 0.929 . S
C523 C522 1.457 . S
C523 C524 1.291 1_655 S
C523 H536 0.931 . S
C524 C523 1.291 1_455 S
C524 C525 1.373 . S
C524 H537 0.929 . S
C525 C524 1.373 . S
C525 C526 1.396 . S
C525 C532 1.403 . S
C526 C516 1.476 . S
C526 N521 1.318 1_455 S
C526 C525 1.396 . S
H527 C522 0.929 . S
O528 Mn504 2.385 . S
O528 C506 1.234 . S
O529 Mn504 2.209 . S
O529 Mn505 2.215 . S
O529 C506 1.283 . S
O530 Mn504 2.094 . S
O530 C508 1.240 . S
O531 Mn505 2.117 . S
O531 C508 1.264 . S
C532 C525 1.403 . S
C532 C533 1.399 . S
C532 H538 0.929 . S
C533 C513 1.449 . S
C533 C532 1.399 . S
C533 H539 0.930 . S
H534 C514 0.931 . S
H535 C515 0.930 . S
H536 C523 0.931 . S
H537 C524 0.929 . S
H538 C532 0.929 . S
H539 C533 0.930 . S
Mn540 O545 2.095 . S
Mn540 O555 2.162 . S
Mn540 O556 2.297 . S
Mn540 O564 2.385 . S
Mn540 O565 2.209 . S
Mn540 O566 2.094 . S
Mn541 O546 2.121 . S
Mn541 N548 2.257 . S
Mn541 N557 2.282 . S
Mn541 O565 2.215 . S
Mn541 O567 2.117 . S
C542 O564 1.234 . S
C542 O565 1.283 . S
C543 O555 1.281 . S
C543 O556 1.236 . S
C544 O566 1.240 . S
C544 O567 1.264 . S
O545 Mn540 2.095 . S
O545 C554 1.250 . S
O546 Mn541 2.121 . S
O546 C554 1.258 . S
C547 N548 1.326 . S
C547 C551 1.460 . S
C547 H553 0.929 . S
N548 Mn541 2.257 . S
N548 C547 1.326 . S
N548 C552 1.362 . S
C549 C550 1.258 . S
C549 C552 1.431 . S
C549 C569 1.449 . S
C550 C549 1.258 . S
C550 C551 1.477 . S
C550 H570 0.931 . S
C551 C547 1.460 . S
C551 C550 1.477 . S
C551 H571 0.930 . S
C552 N548 1.362 . S
C552 C549 1.431 . S
C552 C562 1.476 . S
H553 C547 0.929 . S
C554 O545 1.250 . S
C554 O546 1.258 . S
O555 Mn540 2.162 . S
O555 C543 1.281 . S
O556 Mn540 2.297 . S
O556 C543 1.236 . S
N557 Mn541 2.282 . S
N557 C558 1.328 . S
N557 C562 1.318 . S
C558 N557 1.328 . S
C558 C559 1.457 . S
C558 H563 0.929 . S
C559 C558 1.457 . S
C559 C560 1.291 . S
C559 H572 0.931 . S
C560 C559 1.291 . S
C560 C561 1.373 . S
C560 H573 0.929 . S
C561 C560 1.373 . S
C561 C562 1.396 . S
C561 C568 1.403 . S
C562 C552 1.476 . S
C562 N557 1.318 . S
C562 C561 1.396 . S
H563 C558 0.929 . S
O564 Mn540 2.385 . S
O564 C542 1.234 . S
O565 Mn540 2.209 . S
O565 Mn541 2.215 . S
O565 C542 1.283 . S
O566 Mn540 2.094 . S
O566 C544 1.240 . S
O567 Mn541 2.117 . S
O567 C544 1.264 . S
C568 C561 1.403 . S
C568 C569 1.399 . S
C568 H574 0.929 . S
C569 C549 1.449 . S
C569 C568 1.399 . S
C569 H575 0.930 . S
H570 C550 0.931 . S
H571 C551 0.930 . S
H572 C559 0.931 . S
H573 C560 0.929 . S
H574 C568 0.929 . S
H575 C569 0.930 . S
Mn576 O581 2.095 . S
Mn576 O591 2.162 . S
Mn576 O592 2.297 . S
Mn576 O600 2.385 . S
Mn576 O601 2.209 . S
Mn576 O602 2.094 . S
Mn577 O582 2.121 . S
Mn577 N584 2.257 . S
Mn577 N593 2.282 . S
Mn577 O601 2.215 . S
Mn577 O603 2.117 . S
C578 O600 1.234 . S
C578 O601 1.283 . S
C579 O591 1.281 1_455 S
C579 O592 1.236 1_455 S
C580 O602 1.240 . S
C580 O603 1.264 . S
O581 Mn576 2.095 . S
O581 C590 1.250 . S
O582 Mn577 2.121 . S
O582 C590 1.258 . S
C583 N584 1.326 . S
C583 C587 1.460 . S
C583 H589 0.929 . S
N584 Mn577 2.257 . S
N584 C583 1.326 . S
N584 C588 1.362 . S
C585 C586 1.258 . S
C585 C588 1.431 . S
C585 C605 1.449 . S
C586 C585 1.258 . S
C586 C587 1.477 . S
C586 H606 0.931 . S
C587 C583 1.460 . S
C587 C586 1.477 . S
C587 H607 0.930 . S
C588 N584 1.362 . S
C588 C585 1.431 . S
C588 C598 1.476 . S
H589 C583 0.929 . S
C590 O581 1.250 . S
C590 O582 1.258 . S
O591 Mn576 2.162 . S
O591 C579 1.281 1_655 S
O592 Mn576 2.297 . S
O592 C579 1.236 1_655 S
N593 Mn577 2.282 . S
N593 C594 1.328 . S
N593 C598 1.318 . S
C594 N593 1.328 . S
C594 C595 1.457 . S
C594 H599 0.929 . S
C595 C594 1.457 . S
C595 C596 1.291 . S
C595 H608 0.931 . S
C596 C595 1.291 . S
C596 C597 1.373 . S
C596 H609 0.929 . S
C597 C596 1.373 . S
C597 C598 1.396 . S
C597 C604 1.403 . S
C598 C588 1.476 . S
C598 N593 1.318 . S
C598 C597 1.396 . S
H599 C594 0.929 . S
O600 Mn576 2.385 . S
O600 C578 1.234 . S
O601 Mn576 2.209 . S
O601 Mn577 2.215 . S
O601 C578 1.283 . S
O602 Mn576 2.094 . S
O602 C580 1.240 . S
O603 Mn577 2.117 . S
O603 C580 1.264 . S
C604 C597 1.403 . S
C604 C605 1.399 . S
C604 H610 0.929 . S
C605 C585 1.449 . S
C605 C604 1.399 . S
C605 H611 0.930 . S
H606 C586 0.931 . S
H607 C587 0.930 . S
H608 C595 0.931 . S
H609 C596 0.929 . S
H610 C604 0.929 . S
H611 C605 0.930 . S
Mn612 O617 2.095 . S
Mn612 O627 2.162 . S
Mn612 O628 2.297 . S
Mn612 O636 2.385 . S
Mn612 O637 2.209 . S
Mn612 O638 2.094 . S
Mn613 O618 2.121 . S
Mn613 N620 2.257 . S
Mn613 N629 2.282 . S
Mn613 O637 2.215 . S
Mn613 O639 2.117 . S
C614 O636 1.234 . S
C614 O637 1.283 . S
C615 O627 1.281 . S
C615 O628 1.236 . S
C616 O638 1.240 . S
C616 O639 1.264 . S
O617 Mn612 2.095 . S
O617 C626 1.250 . S
O618 Mn613 2.121 . S
O618 C626 1.258 . S
C619 N620 1.326 . S
C619 C623 1.460 . S
C619 H625 0.929 . S
N620 Mn613 2.257 . S
N620 C619 1.326 . S
N620 C624 1.362 . S
C621 C622 1.258 . S
C621 C624 1.431 . S
C621 C641 1.449 . S
C622 C621 1.258 . S
C622 C623 1.477 . S
C622 H642 0.931 . S
C623 C619 1.460 . S
C623 C622 1.477 . S
C623 H643 0.930 . S
C624 N620 1.362 . S
C624 C621 1.431 . S
C624 C634 1.476 . S
H625 C619 0.929 . S
C626 O617 1.250 . S
C626 O618 1.258 . S
O627 Mn612 2.162 . S
O627 C615 1.281 . S
O628 Mn612 2.297 . S
O628 C615 1.236 . S
N629 Mn613 2.282 . S
N629 C630 1.328 . S
N629 C634 1.318 . S
C630 N629 1.328 . S
C630 C631 1.457 . S
C630 H635 0.929 . S
C631 C630 1.457 . S
C631 C632 1.291 . S
C631 H644 0.931 . S
C632 C631 1.291 . S
C632 C633 1.373 . S
C632 H645 0.929 . S
C633 C632 1.373 . S
C633 C634 1.396 . S
C633 C640 1.403 . S
C634 C624 1.476 . S
C634 N629 1.318 . S
C634 C633 1.396 . S
H635 C630 0.929 . S
O636 Mn612 2.385 . S
O636 C614 1.234 . S
O637 Mn612 2.209 . S
O637 Mn613 2.215 . S
O637 C614 1.283 . S
O638 Mn612 2.094 . S
O638 C616 1.240 . S
O639 Mn613 2.117 . S
O639 C616 1.264 . S
C640 C633 1.403 . S
C640 C641 1.399 . S
C640 H646 0.929 . S
C641 C621 1.449 . S
C641 C640 1.399 . S
C641 H647 0.930 . S
H642 C622 0.931 . S
H643 C623 0.930 . S
H644 C631 0.931 . S
H645 C632 0.929 . S
H646 C640 0.929 . S
H647 C641 0.930 . S
H648 C656 0.929 . S
H649 C658 0.930 . S
H650 C660 0.930 . S
H651 C663 0.929 . S
H652 C666 0.930 . S
H653 C668 0.960 . S
H654 C668 0.960 1_556 S
H655 C668 0.960 . S
C656 H648 0.929 . S
C656 C657 1.377 . S
C656 C658 1.384 . S
C657 C656 1.377 . S
C657 C663 1.390 . S
C658 H649 0.930 . S
C658 C656 1.384 . S
C658 C659 1.372 . S
C659 C658 1.372 . S
C659 C660 1.400 . S
C659 C664 1.490 . S
C660 H650 0.930 . S
C660 C659 1.400 . S
C660 C663 1.386 . S
H661 C677 0.930 . S
H662 C678 0.931 . S
C663 H651 0.929 . S
C663 C657 1.390 . S
C663 C660 1.386 . S
C664 C659 1.490 . S
C664 C666 1.395 . S
C664 C667 1.403 . S
H665 C671 0.930 . S
C666 H652 0.930 . S
C666 C664 1.395 . S
C666 C669 1.403 . S
C667 C664 1.403 . S
C667 C668 1.524 1_556 S
C667 C671 1.400 1_556 S
C668 H653 0.960 . S
C668 H654 0.960 1_554 S
C668 H655 0.960 . S
C668 C667 1.524 1_554 S
C669 C666 1.403 . S
C669 C670 1.392 1_556 S
C669 C673 1.495 . S
C670 C669 1.392 1_554 S
C670 C671 1.385 . S
C670 C672 1.478 . S
C671 H665 0.930 . S
C671 C667 1.400 1_554 S
C671 C670 1.385 . S
C672 C670 1.478 . S
C672 C674 1.381 . S
C672 C678 1.383 . S
C673 C669 1.495 . S
C673 H679 0.959 . S
C673 H680 0.961 . S
C673 H681 0.960 . S
C674 C672 1.381 . S
C674 C675 1.394 . S
C674 H682 0.930 . S
C675 C674 1.394 . S
C675 C676 1.383 . S
C675 H683 0.929 . S
C676 C675 1.383 . S
C676 C677 1.377 . S
C677 H661 0.930 . S
C677 C676 1.377 . S
C677 C678 1.379 . S
C678 H662 0.931 . S
C678 C672 1.383 . S
C678 C677 1.379 . S
H679 C673 0.959 . S
H680 C673 0.961 . S
H681 C673 0.960 . S
H682 C674 0.930 . S
H683 C675 0.929 . S
H684 C692 0.929 . S
H685 C694 0.930 . S
H686 C696 0.930 . S
H687 C699 0.929 . S
H688 C702 0.930 . S
H689 C704 0.960 1_554 S
H690 C704 0.960 1_554 S
H691 C704 0.960 . S
C692 H684 0.929 . S
C692 C693 1.377 . S
C692 C694 1.384 . S
C693 C692 1.377 . S
C693 C699 1.390 . S
C694 H685 0.930 . S
C694 C692 1.384 . S
C694 C695 1.372 . S
C695 C694 1.372 . S
C695 C696 1.400 . S
C695 C700 1.490 . S
C696 H686 0.930 . S
C696 C695 1.400 . S
C696 C699 1.386 . S
H697 C713 0.930 . S
H698 C714 0.931 . S
C699 H687 0.929 . S
C699 C693 1.390 . S
C699 C696 1.386 . S
C700 C695 1.490 . S
C700 C702 1.395 . S
C700 C703 1.403 . S
H701 C707 0.930 . S
C702 H688 0.930 . S
C702 C700 1.395 . S
C702 C705 1.403 1_556 S
C703 C700 1.403 . S
C703 C704 1.524 . S
C703 C707 1.400 1_556 S
C704 H689 0.960 1_556 S
C704 H690 0.960 1_556 S
C704 H691 0.960 . S
C704 C703 1.524 . S
C705 C702 1.403 1_554 S
C705 C706 1.392 . S
C705 C709 1.495 . S
C706 C705 1.392 . S
C706 C707 1.385 . S
C706 C708 1.478 . S
C707 H701 0.930 . S
C707 C703 1.400 1_554 S
C707 C706 1.385 . S
C708 C706 1.478 . S
C708 C710 1.381 . S
C708 C714 1.383 . S
C709 C705 1.495 . S
C709 H715 0.959 1_554 S
C709 H716 0.961 1_554 S
C709 H717 0.960 . S
C710 C708 1.381 . S
C710 C711 1.394 . S
C710 H718 0.930 . S
C711 C710 1.394 . S
C711 C712 1.383 . S
C711 H719 0.929 . S
C712 C711 1.383 . S
C712 C713 1.377 . S
C713 H697 0.930 . S
C713 C712 1.377 . S
C713 C714 1.379 . S
C714 H698 0.931 . S
C714 C708 1.383 . S
C714 C713 1.379 . S
H715 C709 0.959 1_556 S
H716 C709 0.961 1_556 S
H717 C709 0.960 . S
H718 C710 0.930 . S
H719 C711 0.929 . S
H720 C728 0.929 . S
H721 C730 0.930 . S
H722 C732 0.930 . S
H723 C735 0.929 . S
H724 C738 0.930 . S
H725 C740 0.960 . S
H726 C740 0.960 . S
H727 C740 0.960 . S
C728 H720 0.929 . S
C728 C729 1.377 . S
C728 C730 1.384 . S
C729 C728 1.377 . S
C729 C735 1.390 . S
C730 H721 0.930 . S
C730 C728 1.384 . S
C730 C731 1.372 . S
C731 C730 1.372 . S
C731 C732 1.400 . S
C731 C736 1.490 . S
C732 H722 0.930 . S
C732 C731 1.400 . S
C732 C735 1.386 . S
H733 C749 0.930 . S
H734 C750 0.931 . S
C735 H723 0.929 . S
C735 C729 1.390 . S
C735 C732 1.386 . S
C736 C731 1.490 . S
C736 C738 1.395 . S
C736 C739 1.403 1_554 S
H737 C743 0.930 . S
C738 H724 0.930 . S
C738 C736 1.395 . S
C738 C741 1.403 . S
C739 C736 1.403 1_556 S
C739 C740 1.524 . S
C739 C743 1.400 . S
C740 H725 0.960 . S
C740 H726 0.960 . S
C740 H727 0.960 . S
C740 C739 1.524 . S
C741 C738 1.403 . S
C741 C742 1.392 1_554 S
C741 C745 1.495 . S
C742 C741 1.392 1_556 S
C742 C743 1.385 . S
C742 C744 1.478 . S
C743 H737 0.930 . S
C743 C739 1.400 . S
C743 C742 1.385 . S
C744 C742 1.478 . S
C744 C746 1.381 . S
C744 C750 1.383 . S
C745 C741 1.495 . S
C745 H751 0.959 . S
C745 H752 0.961 . S
C745 H753 0.960 . S
C746 C744 1.381 . S
C746 C747 1.394 . S
C746 H754 0.930 . S
C747 C746 1.394 . S
C747 C748 1.383 . S
C747 H755 0.929 . S
C748 C747 1.383 . S
C748 C749 1.377 . S
C749 H733 0.930 . S
C749 C748 1.377 . S
C749 C750 1.379 . S
C750 H734 0.931 . S
C750 C744 1.383 . S
C750 C749 1.379 . S
H751 C745 0.959 . S
H752 C745 0.961 . S
H753 C745 0.960 . S
H754 C746 0.930 . S
H755 C747 0.929 . S
H756 C764 0.929 . S
H757 C766 0.930 . S
H758 C768 0.930 . S
H759 C771 0.929 . S
H760 C774 0.930 . S
H761 C776 0.960 . S
H762 C776 0.960 . S
H763 C776 0.960 . S
C764 H756 0.929 . S
C764 C765 1.377 . S
C764 C766 1.384 . S
C765 C764 1.377 . S
C765 C771 1.390 . S
C766 H757 0.930 . S
C766 C764 1.384 . S
C766 C767 1.372 . S
C767 C766 1.372 . S
C767 C768 1.400 . S
C767 C772 1.490 . S
C768 H758 0.930 . S
C768 C767 1.400 . S
C768 C771 1.386 . S
H769 C785 0.930 . S
H770 C786 0.931 . S
C771 H759 0.929 . S
C771 C765 1.390 . S
C771 C768 1.386 . S
C772 C767 1.490 . S
C772 C774 1.395 . S
C772 C775 1.403 . S
H773 C779 0.930 . S
C774 H760 0.930 . S
C774 C772 1.395 . S
C774 C777 1.403 . S
C775 C772 1.403 . S
C775 C776 1.524 . S
C775 C779 1.400 . S
C776 H761 0.960 . S
C776 H762 0.960 . S
C776 H763 0.960 . S
C776 C775 1.524 . S
C777 C774 1.403 . S
C777 C778 1.392 . S
C777 C781 1.495 . S
C778 C777 1.392 . S
C778 C779 1.385 . S
C778 C780 1.478 . S
C779 H773 0.930 . S
C779 C775 1.400 . S
C779 C778 1.385 . S
C780 C778 1.478 . S
C780 C782 1.381 . S
C780 C786 1.383 . S
C781 C777 1.495 . S
C781 H787 0.959 . S
C781 H788 0.961 . S
C781 H789 0.960 . S
C782 C780 1.381 . S
C782 C783 1.394 . S
C782 H790 0.930 . S
C783 C782 1.394 . S
C783 C784 1.383 . S
C783 H791 0.929 . S
C784 C783 1.383 . S
C784 C785 1.377 . S
C785 H769 0.930 . S
C785 C784 1.377 . S
C785 C786 1.379 . S
C786 H770 0.931 . S
C786 C780 1.383 . S
C786 C785 1.379 . S
H787 C781 0.959 . S
H788 C781 0.961 . S
H789 C781 0.960 . S
H790 C782 0.930 . S
H791 C783 0.929 . S
H792 C800 0.929 . S
H793 C802 0.930 . S
H794 C804 0.930 . S
H795 C807 0.929 . S
H796 C810 0.930 . S
H797 C812 0.960 . S
H798 C812 0.960 . S
H799 C812 0.960 . S
C800 H792 0.929 . S
C800 C801 1.377 . S
C800 C802 1.384 . S
C801 C800 1.377 . S
C801 C807 1.390 . S
C802 H793 0.930 . S
C802 C800 1.384 . S
C802 C803 1.372 . S
C803 C802 1.372 . S
C803 C804 1.400 . S
C803 C808 1.490 . S
C804 H794 0.930 . S
C804 C803 1.400 . S
C804 C807 1.386 . S
H805 C821 0.930 . S
H806 C822 0.931 . S
C807 H795 0.929 . S
C807 C801 1.390 . S
C807 C804 1.386 . S
C808 C803 1.490 . S
C808 C810 1.395 . S
C808 C811 1.403 . S
H809 C815 0.930 . S
C810 H796 0.930 . S
C810 C808 1.395 . S
C810 C813 1.403 . S
C811 C808 1.403 . S
C811 C812 1.524 . S
C811 C815 1.400 . S
C812 H797 0.960 . S
C812 H798 0.960 . S
C812 H799 0.960 . S
C812 C811 1.524 . S
C813 C810 1.403 . S
C813 C814 1.392 . S
C813 C817 1.495 . S
C814 C813 1.392 . S
C814 C815 1.385 . S
C814 C816 1.478 . S
C815 H809 0.930 . S
C815 C811 1.400 . S
C815 C814 1.385 . S
C816 C814 1.478 . S
C816 C818 1.381 . S
C816 C822 1.383 . S
C817 C813 1.495 . S
C817 H823 0.959 . S
C817 H824 0.961 . S
C817 H825 0.960 . S
C818 C816 1.381 . S
C818 C819 1.394 . S
C818 H826 0.930 . S
C819 C818 1.394 . S
C819 C820 1.383 . S
C819 H827 0.929 . S
C820 C819 1.383 . S
C820 C821 1.377 . S
C821 H805 0.930 . S
C821 C820 1.377 . S
C821 C822 1.379 . S
C822 H806 0.931 . S
C822 C816 1.383 . S
C822 C821 1.379 . S
H823 C817 0.959 . S
H824 C817 0.961 . S
H825 C817 0.960 . S
H826 C818 0.930 . S
H827 C819 0.929 . S
H828 C836 0.929 . S
H829 C838 0.930 . S
H830 C840 0.930 . S
H831 C843 0.929 . S
H832 C846 0.930 . S
H833 C848 0.960 . S
H834 C848 0.960 . S
H835 C848 0.960 . S
C836 H828 0.929 . S
C836 C837 1.377 . S
C836 C838 1.384 . S
C837 C836 1.377 . S
C837 C843 1.390 . S
C838 H829 0.930 . S
C838 C836 1.384 . S
C838 C839 1.372 . S
C839 C838 1.372 . S
C839 C840 1.400 . S
C839 C844 1.490 . S
C840 H830 0.930 . S
C840 C839 1.400 . S
C840 C843 1.386 . S
H841 C857 0.930 . S
H842 C858 0.931 . S
C843 H831 0.929 . S
C843 C837 1.390 . S
C843 C840 1.386 . S
C844 C839 1.490 . S
C844 C846 1.395 . S
C844 C847 1.403 . S
H845 C851 0.930 . S
C846 H832 0.930 . S
C846 C844 1.395 . S
C846 C849 1.403 . S
C847 C844 1.403 . S
C847 C848 1.524 . S
C847 C851 1.400 . S
C848 H833 0.960 . S
C848 H834 0.960 . S
C848 H835 0.960 . S
C848 C847 1.524 . S
C849 C846 1.403 . S
C849 C850 1.392 . S
C849 C853 1.495 . S
C850 C849 1.392 . S
C850 C851 1.385 . S
C850 C852 1.478 . S
C851 H845 0.930 . S
C851 C847 1.400 . S
C851 C850 1.385 . S
C852 C850 1.478 . S
C852 C854 1.381 . S
C852 C858 1.383 . S
C853 C849 1.495 . S
C853 H859 0.959 . S
C853 H860 0.961 . S
C853 H861 0.960 . S
C854 C852 1.381 . S
C854 C855 1.394 . S
C854 H862 0.930 . S
C855 C854 1.394 . S
C855 C856 1.383 . S
C855 H863 0.929 . S
C856 C855 1.383 . S
C856 C857 1.377 . S
C857 H841 0.930 . S
C857 C856 1.377 . S
C857 C858 1.379 . S
C858 H842 0.931 . S
C858 C852 1.383 . S
C858 C857 1.379 . S
H859 C853 0.959 . S
H860 C853 0.961 . S
H861 C853 0.960 . S
H862 C854 0.930 . S
H863 C855 0.929 . S
H864 C872 0.929 . S
H865 C874 0.930 . S
H866 C876 0.930 . S
H867 C879 0.929 . S
H868 C882 0.930 . S
H869 C884 0.960 . S
H870 C884 0.960 . S
H871 C884 0.960 . S
C872 H864 0.929 . S
C872 C873 1.377 . S
C872 C874 1.384 . S
C873 C872 1.377 . S
C873 C879 1.390 . S
C874 H865 0.930 . S
C874 C872 1.384 . S
C874 C875 1.372 . S
C875 C874 1.372 . S
C875 C876 1.400 . S
C875 C880 1.490 . S
C876 H866 0.930 . S
C876 C875 1.400 . S
C876 C879 1.386 . S
H877 C893 0.930 . S
H878 C894 0.931 . S
C879 H867 0.929 . S
C879 C873 1.390 . S
C879 C876 1.386 . S
C880 C875 1.490 . S
C880 C882 1.395 . S
C880 C883 1.403 . S
H881 C887 0.930 . S
C882 H868 0.930 . S
C882 C880 1.395 . S
C882 C885 1.403 . S
C883 C880 1.403 . S
C883 C884 1.524 . S
C883 C887 1.400 . S
C884 H869 0.960 . S
C884 H870 0.960 . S
C884 H871 0.960 . S
C884 C883 1.524 . S
C885 C882 1.403 . S
C885 C886 1.392 . S
C885 C889 1.495 . S
C886 C885 1.392 . S
C886 C887 1.385 . S
C886 C888 1.478 . S
C887 H881 0.930 . S
C887 C883 1.400 . S
C887 C886 1.385 . S
C888 C886 1.478 . S
C888 C890 1.381 . S
C888 C894 1.383 . S
C889 C885 1.495 . S
C889 H895 0.959 . S
C889 H896 0.961 . S
C889 H897 0.960 . S
C890 C888 1.381 . S
C890 C891 1.394 . S
C890 H898 0.930 . S
C891 C890 1.394 . S
C891 C892 1.383 . S
C891 H899 0.929 . S
C892 C891 1.383 . S
C892 C893 1.377 . S
C893 H877 0.930 . S
C893 C892 1.377 . S
C893 C894 1.379 . S
C894 H878 0.931 . S
C894 C888 1.383 . S
C894 C893 1.379 . S
H895 C889 0.959 . S
H896 C889 0.961 . S
H897 C889 0.960 . S
H898 C890 0.930 . S
H899 C891 0.929 . S
H900 C908 0.929 . S
H901 C910 0.930 . S
H902 C912 0.930 . S
H903 C915 0.929 . S
H904 C918 0.930 . S
H905 C920 0.960 . S
H906 C920 0.960 . S
H907 C920 0.960 . S
C908 H900 0.929 . S
C908 C909 1.377 . S
C908 C910 1.384 . S
C909 C908 1.377 . S
C909 C915 1.390 . S
C910 H901 0.930 . S
C910 C908 1.384 . S
C910 C911 1.372 . S
C911 C910 1.372 . S
C911 C912 1.400 . S
C911 C916 1.490 . S
C912 H902 0.930 . S
C912 C911 1.400 . S
C912 C915 1.386 . S
H913 C929 0.930 . S
H914 C930 0.931 . S
C915 H903 0.929 . S
C915 C909 1.390 . S
C915 C912 1.386 . S
C916 C911 1.490 . S
C916 C918 1.395 . S
C916 C919 1.403 . S
H917 C923 0.930 . S
C918 H904 0.930 . S
C918 C916 1.395 . S
C918 C921 1.403 . S
C919 C916 1.403 . S
C919 C920 1.524 . S
C919 C923 1.400 . S
C920 H905 0.960 . S
C920 H906 0.960 . S
C920 H907 0.960 . S
C920 C919 1.524 . S
C921 C918 1.403 . S
C921 C922 1.392 . S
C921 C925 1.495 . S
C922 C921 1.392 . S
C922 C923 1.385 . S
C922 C924 1.478 . S
C923 H917 0.930 . S
C923 C919 1.400 . S
C923 C922 1.385 . S
C924 C922 1.478 . S
C924 C926 1.381 . S
C924 C930 1.383 . S
C925 C921 1.495 . S
C925 H931 0.959 . S
C925 H932 0.961 . S
C925 H933 0.960 . S
C926 C924 1.381 . S
C926 C927 1.394 . S
C926 H934 0.930 . S
C927 C926 1.394 . S
C927 C928 1.383 . S
C927 H935 0.929 . S
C928 C927 1.383 . S
C928 C929 1.377 . S
C929 H913 0.930 . S
C929 C928 1.377 . S
C929 C930 1.379 . S
C930 H914 0.931 . S
C930 C924 1.383 . S
C930 C929 1.379 . S
H931 C925 0.959 . S
H932 C925 0.961 . S
H933 C925 0.960 . S
H934 C926 0.930 . S
H935 C927 0.929 . S
H936 C944 0.929 . S
H937 C946 0.930 . S
H938 C948 0.930 . S
H939 C951 0.929 . S
H940 C954 0.930 . S
H941 C956 0.960 . S
H942 C956 0.960 . S
H943 C956 0.960 . S
C944 H936 0.929 . S
C944 C945 1.377 . S
C944 C946 1.384 . S
C945 C944 1.377 . S
C945 C951 1.390 . S
C946 H937 0.930 . S
C946 C944 1.384 . S
C946 C947 1.372 . S
C947 C946 1.372 . S
C947 C948 1.400 . S
C947 C952 1.490 . S
C948 H938 0.930 . S
C948 C947 1.400 . S
C948 C951 1.386 . S
H949 C965 0.930 . S
H950 C966 0.931 . S
C951 H939 0.929 . S
C951 C945 1.390 . S
C951 C948 1.386 . S
C952 C947 1.490 . S
C952 C954 1.395 . S
C952 C955 1.403 . S
H953 C959 0.930 . S
C954 H940 0.930 . S
C954 C952 1.395 . S
C954 C957 1.403 . S
C955 C952 1.403 . S
C955 C956 1.524 . S
C955 C959 1.400 . S
C956 H941 0.960 . S
C956 H942 0.960 . S
C956 H943 0.960 . S
C956 C955 1.524 . S
C957 C954 1.403 . S
C957 C958 1.392 . S
C957 C961 1.495 . S
C958 C957 1.392 . S
C958 C959 1.385 . S
C958 C960 1.478 . S
C959 H953 0.930 . S
C959 C955 1.400 . S
C959 C958 1.385 . S
C960 C958 1.478 . S
C960 C962 1.381 . S
C960 C966 1.383 . S
C961 C957 1.495 . S
C961 H967 0.959 . S
C961 H968 0.961 . S
C961 H969 0.960 . S
C962 C960 1.381 . S
C962 C963 1.394 . S
C962 H970 0.930 . S
C963 C962 1.394 . S
C963 C964 1.383 . S
C963 H971 0.929 . S
C964 C963 1.383 . S
C964 C965 1.377 . S
C965 H949 0.930 . S
C965 C964 1.377 . S
C965 C966 1.379 . S
C966 H950 0.931 . S
C966 C960 1.383 . S
C966 C965 1.379 . S
H967 C961 0.959 . S
H968 C961 0.961 . S
H969 C961 0.960 . S
H970 C962 0.930 . S
H971 C963 0.929 . S
H972 C980 0.929 1_554 S
H973 C982 0.930 . S
H974 C984 0.930 . S
H975 C987 0.929 . S
H976 C990 0.930 . S
H977 C992 0.960 . S
H978 C992 0.960 . S
H979 C992 0.960 . S
C980 H972 0.929 1_556 S
C980 C981 1.377 . S
C980 C982 1.384 . S
C981 C980 1.377 . S
C981 C987 1.390 . S
C982 H973 0.930 . S
C982 C980 1.384 . S
C982 C983 1.372 . S
C983 C982 1.372 . S
C983 C984 1.400 . S
C983 C988 1.490 . S
C984 H974 0.930 . S
C984 C983 1.400 . S
C984 C987 1.386 . S
H985 C1001 0.930 . S
H986 C1002 0.931 . S
C987 H975 0.929 . S
C987 C981 1.390 . S
C987 C984 1.386 . S
C988 C983 1.490 . S
C988 C990 1.395 . S
C988 C991 1.403 . S
H989 C995 0.930 . S
C990 H976 0.930 . S
C990 C988 1.395 . S
C990 C993 1.403 . S
C991 C988 1.403 . S
C991 C992 1.524 . S
C991 C995 1.400 . S
C992 H977 0.960 . S
C992 H978 0.960 . S
C992 H979 0.960 . S
C992 C991 1.524 . S
C993 C990 1.403 . S
C993 C994 1.392 . S
C993 C997 1.495 . S
C994 C993 1.392 . S
C994 C995 1.385 . S
C994 C996 1.478 . S
C995 H989 0.930 . S
C995 C991 1.400 . S
C995 C994 1.385 . S
C996 C994 1.478 . S
C996 C998 1.381 . S
C996 C1002 1.383 . S
C997 C993 1.495 . S
C997 H1003 0.959 . S
C997 H1004 0.961 . S
C997 H1005 0.960 . S
C998 C996 1.381 . S
C998 C999 1.394 . S
C998 H1006 0.930 . S
C999 C998 1.394 . S
C999 C1000 1.383 . S
C999 H1007 0.929 . S
C1000 C999 1.383 . S
C1000 C1001 1.377 . S
C1001 H985 0.930 . S
C1001 C1000 1.377 . S
C1001 C1002 1.379 . S
C1002 H986 0.931 . S
C1002 C996 1.383 . S
C1002 C1001 1.379 . S
H1003 C997 0.959 . S
H1004 C997 0.961 . S
H1005 C997 0.960 . S
H1006 C998 0.930 . S
H1007 C999 0.929 . S
H1008 C1016 0.929 . S
H1009 C1018 0.930 . S
H1010 C1020 0.930 . S
H1011 C1023 0.929 . S
H1012 C1026 0.930 . S
H1013 C1028 0.960 . S
H1014 C1028 0.960 . S
H1015 C1028 0.960 . S
C1016 H1008 0.929 . S
C1016 C1017 1.377 . S
C1016 C1018 1.384 . S
C1017 C1016 1.377 . S
C1017 C1023 1.390 . S
C1018 H1009 0.930 . S
C1018 C1016 1.384 . S
C1018 C1019 1.372 . S
C1019 C1018 1.372 . S
C1019 C1020 1.400 . S
C1019 C1024 1.490 . S
C1020 H1010 0.930 . S
C1020 C1019 1.400 . S
C1020 C1023 1.386 . S
H1021 C1037 0.930 . S
H1022 C1038 0.931 . S
C1023 H1011 0.929 . S
C1023 C1017 1.390 . S
C1023 C1020 1.386 . S
C1024 C1019 1.490 . S
C1024 C1026 1.395 . S
C1024 C1027 1.403 . S
H1025 C1031 0.930 . S
C1026 H1012 0.930 . S
C1026 C1024 1.395 . S
C1026 C1029 1.403 . S
C1027 C1024 1.403 . S
C1027 C1028 1.524 . S
C1027 C1031 1.400 . S
C1028 H1013 0.960 . S
C1028 H1014 0.960 . S
C1028 H1015 0.960 . S
C1028 C1027 1.524 . S
C1029 C1026 1.403 . S
C1029 C1030 1.392 . S
C1029 C1033 1.495 . S
C1030 C1029 1.392 . S
C1030 C1031 1.385 . S
C1030 C1032 1.478 . S
C1031 H1025 0.930 . S
C1031 C1027 1.400 . S
C1031 C1030 1.385 . S
C1032 C1030 1.478 . S
C1032 C1034 1.381 . S
C1032 C1038 1.383 . S
C1033 C1029 1.495 . S
C1033 H1039 0.959 . S
C1033 H1040 0.961 . S
C1033 H1041 0.960 . S
C1034 C1032 1.381 . S
C1034 C1035 1.394 . S
C1034 H1042 0.930 . S
C1035 C1034 1.394 . S
C1035 C1036 1.383 . S
C1035 H1043 0.929 . S
C1036 C1035 1.383 . S
C1036 C1037 1.377 . S
C1037 H1021 0.930 . S
C1037 C1036 1.377 . S
C1037 C1038 1.379 . S
C1038 H1022 0.931 . S
C1038 C1032 1.383 . S
C1038 C1037 1.379 . S
H1039 C1033 0.959 . S
H1040 C1033 0.961 . S
H1041 C1033 0.960 . S
H1042 C1034 0.930 . S
H1043 C1035 0.929 . S
H1044 C1052 0.929 1_554 S
H1045 C1054 0.930 . S
H1046 C1056 0.930 . S
H1047 C1059 0.929 . S
H1048 C1062 0.930 . S
H1049 C1064 0.960 . S
H1050 C1064 0.960 . S
H1051 C1064 0.960 . S
C1052 H1044 0.929 1_556 S
C1052 C1053 1.377 . S
C1052 C1054 1.384 . S
C1053 C1052 1.377 . S
C1053 C1059 1.390 . S
C1054 H1045 0.930 . S
C1054 C1052 1.384 . S
C1054 C1055 1.372 . S
C1055 C1054 1.372 . S
C1055 C1056 1.400 . S
C1055 C1060 1.490 . S
C1056 H1046 0.930 . S
C1056 C1055 1.400 . S
C1056 C1059 1.386 . S
H1057 C1073 0.930 . S
H1058 C1074 0.931 . S
C1059 H1047 0.929 . S
C1059 C1053 1.390 . S
C1059 C1056 1.386 . S
C1060 C1055 1.490 . S
C1060 C1062 1.395 . S
C1060 C1063 1.403 . S
H1061 C1067 0.930 . S
C1062 H1048 0.930 . S
C1062 C1060 1.395 . S
C1062 C1065 1.403 . S
C1063 C1060 1.403 . S
C1063 C1064 1.524 . S
C1063 C1067 1.400 . S
C1064 H1049 0.960 . S
C1064 H1050 0.960 . S
C1064 H1051 0.960 . S
C1064 C1063 1.524 . S
C1065 C1062 1.403 . S
C1065 C1066 1.392 . S
C1065 C1069 1.495 . S
C1066 C1065 1.392 . S
C1066 C1067 1.385 . S
C1066 C1068 1.478 . S
C1067 H1061 0.930 . S
C1067 C1063 1.400 . S
C1067 C1066 1.385 . S
C1068 C1066 1.478 . S
C1068 C1070 1.381 . S
C1068 C1074 1.383 . S
C1069 C1065 1.495 . S
C1069 H1075 0.959 . S
C1069 H1076 0.961 . S
C1069 H1077 0.960 . S
C1070 C1068 1.381 . S
C1070 C1071 1.394 . S
C1070 H1078 0.930 . S
C1071 C1070 1.394 . S
C1071 C1072 1.383 . S
C1071 H1079 0.929 . S
C1072 C1071 1.383 . S
C1072 C1073 1.377 . S
C1073 H1057 0.930 . S
C1073 C1072 1.377 . S
C1073 C1074 1.379 . S
C1074 H1058 0.931 . S
C1074 C1068 1.383 . S
C1074 C1073 1.379 . S
H1075 C1069 0.959 . S
H1076 C1069 0.961 . S
H1077 C1069 0.960 . S
H1078 C1070 0.930 . S
H1079 C1071 0.929 . S
H1080 C1088 0.929 . S
H1081 C1090 0.930 . S
H1082 C1092 0.930 . S
H1083 C1095 0.929 . S
H1084 C1098 0.930 . S
H1085 C1100 0.960 . S
H1086 C1100 0.960 . S
H1087 C1100 0.960 . S
C1088 H1080 0.929 . S
C1088 C1089 1.377 . S
C1088 C1090 1.384 . S
C1089 C1088 1.377 . S
C1089 C1095 1.390 . S
C1090 H1081 0.930 . S
C1090 C1088 1.384 . S
C1090 C1091 1.372 . S
C1091 C1090 1.372 . S
C1091 C1092 1.400 . S
C1091 C1096 1.490 . S
C1092 H1082 0.930 . S
C1092 C1091 1.400 . S
C1092 C1095 1.386 . S
H1093 C1109 0.930 . S
H1094 C1110 0.931 . S
C1095 H1083 0.929 . S
C1095 C1089 1.390 . S
C1095 C1092 1.386 . S
C1096 C1091 1.490 . S
C1096 C1098 1.395 . S
C1096 C1099 1.403 . S
H1097 C1103 0.930 . S
C1098 H1084 0.930 . S
C1098 C1096 1.395 . S
C1098 C1101 1.403 . S
C1099 C1096 1.403 . S
C1099 C1100 1.524 . S
C1099 C1103 1.400 . S
C1100 H1085 0.960 . S
C1100 H1086 0.960 . S
C1100 H1087 0.960 . S
C1100 C1099 1.524 . S
C1101 C1098 1.403 . S
C1101 C1102 1.392 . S
C1101 C1105 1.495 . S
C1102 C1101 1.392 . S
C1102 C1103 1.385 . S
C1102 C1104 1.478 . S
C1103 H1097 0.930 . S
C1103 C1099 1.400 . S
C1103 C1102 1.385 . S
C1104 C1102 1.478 . S
C1104 C1106 1.381 . S
C1104 C1110 1.383 . S
C1105 C1101 1.495 . S
C1105 H1111 0.959 . S
C1105 H1112 0.961 . S
C1105 H1113 0.960 . S
C1106 C1104 1.381 . S
C1106 C1107 1.394 . S
C1106 H1114 0.930 . S
C1107 C1106 1.394 . S
C1107 C1108 1.383 . S
C1107 H1115 0.929 . S
C1108 C1107 1.383 . S
C1108 C1109 1.377 . S
C1109 H1093 0.930 . S
C1109 C1108 1.377 . S
C1109 C1110 1.379 . S
C1110 H1094 0.931 . S
C1110 C1104 1.383 . S
C1110 C1109 1.379 . S
H1111 C1105 0.959 . S
H1112 C1105 0.961 . S
H1113 C1105 0.960 . S
H1114 C1106 0.930 . S
H1115 C1107 0.929 . S
H1116 C1124 0.929 . S
H1117 C1126 0.930 . S
H1118 C1128 0.930 . S
H1119 C1131 0.929 . S
H1120 C1134 0.930 . S
H1121 C1136 0.960 . S
H1122 C1136 0.960 . S
H1123 C1136 0.960 . S
C1124 H1116 0.929 . S
C1124 C1125 1.377 . S
C1124 C1126 1.384 . S
C1125 C1124 1.377 . S
C1125 C1131 1.390 . S
C1126 H1117 0.930 . S
C1126 C1124 1.384 . S
C1126 C1127 1.372 . S
C1127 C1126 1.372 . S
C1127 C1128 1.400 . S
C1127 C1132 1.490 . S
C1128 H1118 0.930 . S
C1128 C1127 1.400 . S
C1128 C1131 1.386 . S
H1129 C1145 0.930 . S
H1130 C1146 0.931 . S
C1131 H1119 0.929 . S
C1131 C1125 1.390 . S
C1131 C1128 1.386 . S
C1132 C1127 1.490 . S
C1132 C1134 1.395 . S
C1132 C1135 1.403 . S
H1133 C1139 0.930 . S
C1134 H1120 0.930 . S
C1134 C1132 1.395 . S
C1134 C1137 1.403 . S
C1135 C1132 1.403 . S
C1135 C1136 1.524 . S
C1135 C1139 1.400 . S
C1136 H1121 0.960 . S
C1136 H1122 0.960 . S
C1136 H1123 0.960 . S
C1136 C1135 1.524 . S
C1137 C1134 1.403 . S
C1137 C1138 1.392 . S
C1137 C1141 1.495 . S
C1138 C1137 1.392 . S
C1138 C1139 1.385 . S
C1138 C1140 1.478 . S
C1139 H1133 0.930 . S
C1139 C1135 1.400 . S
C1139 C1138 1.385 . S
C1140 C1138 1.478 . S
C1140 C1142 1.381 . S
C1140 C1146 1.383 . S
C1141 C1137 1.495 . S
C1141 H1147 0.959 . S
C1141 H1148 0.961 . S
C1141 H1149 0.960 . S
C1142 C1140 1.381 . S
C1142 C1143 1.394 . S
C1142 H1150 0.930 . S
C1143 C1142 1.394 . S
C1143 C1144 1.383 . S
C1143 H1151 0.929 . S
C1144 C1143 1.383 . S
C1144 C1145 1.377 . S
C1145 H1129 0.930 . S
C1145 C1144 1.377 . S
C1145 C1146 1.379 . S
C1146 H1130 0.931 . S
C1146 C1140 1.383 . S
C1146 C1145 1.379 . S
H1147 C1141 0.959 . S
H1148 C1141 0.961 . S
H1149 C1141 0.960 . S
H1150 C1142 0.930 . S
H1151 C1143 0.929 . S
H1152 C1160 0.929 . S
H1153 C1162 0.930 . S
H1154 C1164 0.930 . S
H1155 C1167 0.929 . S
H1156 C1170 0.930 . S
H1157 C1172 0.960 . S
H1158 C1172 0.960 . S
H1159 C1172 0.960 . S
C1160 H1152 0.929 . S
C1160 C1161 1.377 . S
C1160 C1162 1.384 . S
C1161 C1160 1.377 . S
C1161 C1167 1.390 . S
C1162 H1153 0.930 . S
C1162 C1160 1.384 . S
C1162 C1163 1.372 . S
C1163 C1162 1.372 . S
C1163 C1164 1.400 . S
C1163 C1168 1.490 . S
C1164 H1154 0.930 . S
C1164 C1163 1.400 . S
C1164 C1167 1.386 . S
H1165 C1181 0.930 . S
H1166 C1182 0.931 . S
C1167 H1155 0.929 . S
C1167 C1161 1.390 . S
C1167 C1164 1.386 . S
C1168 C1163 1.490 . S
C1168 C1170 1.395 . S
C1168 C1171 1.403 . S
H1169 C1175 0.930 . S
C1170 H1156 0.930 . S
C1170 C1168 1.395 . S
C1170 C1173 1.403 . S
C1171 C1168 1.403 . S
C1171 C1172 1.524 . S
C1171 C1175 1.400 . S
C1172 H1157 0.960 . S
C1172 H1158 0.960 . S
C1172 H1159 0.960 . S
C1172 C1171 1.524 . S
C1173 C1170 1.403 . S
C1173 C1174 1.392 . S
C1173 C1177 1.495 . S
C1174 C1173 1.392 . S
C1174 C1175 1.385 . S
C1174 C1176 1.478 . S
C1175 H1169 0.930 . S
C1175 C1171 1.400 . S
C1175 C1174 1.385 . S
C1176 C1174 1.478 . S
C1176 C1178 1.381 . S
C1176 C1182 1.383 . S
C1177 C1173 1.495 . S
C1177 H1183 0.959 . S
C1177 H1184 0.961 . S
C1177 H1185 0.960 . S
C1178 C1176 1.381 . S
C1178 C1179 1.394 . S
C1178 H1186 0.930 . S
C1179 C1178 1.394 . S
C1179 C1180 1.383 . S
C1179 H1187 0.929 . S
C1180 C1179 1.383 . S
C1180 C1181 1.377 . S
C1181 H1165 0.930 . S
C1181 C1180 1.377 . S
C1181 C1182 1.379 . S
C1182 H1166 0.931 . S
C1182 C1176 1.383 . S
C1182 C1181 1.379 . S
H1183 C1177 0.959 . S
H1184 C1177 0.961 . S
H1185 C1177 0.960 . S
H1186 C1178 0.930 . S
H1187 C1179 0.929 . S
H1188 C1196 0.929 . S
H1189 C1198 0.930 . S
H1190 C1200 0.930 . S
H1191 C1203 0.929 . S
H1192 C1206 0.930 . S
H1193 C1208 0.960 . S
H1194 C1208 0.960 . S
H1195 C1208 0.960 . S
C1196 H1188 0.929 . S
C1196 C1197 1.377 . S
C1196 C1198 1.384 . S
C1197 C1196 1.377 . S
C1197 C1203 1.390 . S
C1198 H1189 0.930 . S
C1198 C1196 1.384 . S
C1198 C1199 1.372 . S
C1199 C1198 1.372 . S
C1199 C1200 1.400 . S
C1199 C1204 1.490 . S
C1200 H1190 0.930 . S
C1200 C1199 1.400 . S
C1200 C1203 1.386 . S
H1201 C1217 0.930 . S
H1202 C1218 0.931 . S
C1203 H1191 0.929 . S
C1203 C1197 1.390 . S
C1203 C1200 1.386 . S
C1204 C1199 1.490 . S
C1204 C1206 1.395 . S
C1204 C1207 1.403 . S
H1205 C1211 0.930 . S
C1206 H1192 0.930 . S
C1206 C1204 1.395 . S
C1206 C1209 1.403 . S
C1207 C1204 1.403 . S
C1207 C1208 1.524 . S
C1207 C1211 1.400 . S
C1208 H1193 0.960 . S
C1208 H1194 0.960 . S
C1208 H1195 0.960 . S
C1208 C1207 1.524 . S
C1209 C1206 1.403 . S
C1209 C1210 1.392 . S
C1209 C1213 1.495 . S
C1210 C1209 1.392 . S
C1210 C1211 1.385 . S
C1210 C1212 1.478 . S
C1211 H1205 0.930 . S
C1211 C1207 1.400 . S
C1211 C1210 1.385 . S
C1212 C1210 1.478 . S
C1212 C1214 1.381 . S
C1212 C1218 1.383 . S
C1213 C1209 1.495 . S
C1213 H1219 0.959 . S
C1213 H1220 0.961 . S
C1213 H1221 0.960 . S
C1214 C1212 1.381 . S
C1214 C1215 1.394 1_554 S
C1214 H1222 0.930 . S
C1215 C1214 1.394 1_556 S
C1215 C1216 1.383 1_556 S
C1215 H1223 0.929 . S
C1216 C1215 1.383 1_554 S
C1216 C1217 1.377 . S
C1217 H1201 0.930 . S
C1217 C1216 1.377 . S
C1217 C1218 1.379 . S
C1218 H1202 0.931 . S
C1218 C1212 1.383 . S
C1218 C1217 1.379 . S
H1219 C1213 0.959 . S
H1220 C1213 0.961 . S
H1221 C1213 0.960 . S
H1222 C1214 0.930 . S
H1223 C1215 0.929 . S
H1224 C1232 0.929 . S
H1225 C1234 0.930 . S
H1226 C1236 0.930 . S
H1227 C1239 0.929 . S
H1228 C1242 0.930 . S
H1229 C1244 0.960 . S
H1230 C1244 0.960 . S
H1231 C1244 0.960 . S
C1232 H1224 0.929 . S
C1232 C1233 1.377 . S
C1232 C1234 1.384 . S
C1233 C1232 1.377 . S
C1233 C1239 1.390 . S
C1234 H1225 0.930 . S
C1234 C1232 1.384 . S
C1234 C1235 1.372 . S
C1235 C1234 1.372 . S
C1235 C1236 1.400 . S
C1235 C1240 1.490 . S
C1236 H1226 0.930 . S
C1236 C1235 1.400 . S
C1236 C1239 1.386 . S
H1237 C1253 0.930 . S
H1238 C1254 0.931 . S
C1239 H1227 0.929 . S
C1239 C1233 1.390 . S
C1239 C1236 1.386 . S
C1240 C1235 1.490 . S
C1240 C1242 1.395 . S
C1240 C1243 1.403 . S
H1241 C1247 0.930 . S
C1242 H1228 0.930 . S
C1242 C1240 1.395 . S
C1242 C1245 1.403 . S
C1243 C1240 1.403 . S
C1243 C1244 1.524 . S
C1243 C1247 1.400 . S
C1244 H1229 0.960 . S
C1244 H1230 0.960 . S
C1244 H1231 0.960 . S
C1244 C1243 1.524 . S
C1245 C1242 1.403 . S
C1245 C1246 1.392 . S
C1245 C1249 1.495 . S
C1246 C1245 1.392 . S
C1246 C1247 1.385 . S
C1246 C1248 1.478 . S
C1247 H1241 0.930 . S
C1247 C1243 1.400 . S
C1247 C1246 1.385 . S
C1248 C1246 1.478 . S
C1248 C1250 1.381 . S
C1248 C1254 1.383 . S
C1249 C1245 1.495 . S
C1249 H1255 0.959 . S
C1249 H1256 0.961 . S
C1249 H1257 0.960 . S
C1250 C1248 1.381 . S
C1250 C1251 1.394 1_554 S
C1250 H1258 0.930 . S
C1251 C1250 1.394 1_556 S
C1251 C1252 1.383 . S
C1251 H1259 0.929 . S
C1252 C1251 1.383 . S
C1252 C1253 1.377 1_556 S
C1253 H1237 0.930 . S
C1253 C1252 1.377 1_554 S
C1253 C1254 1.379 . S
C1254 H1238 0.931 . S
C1254 C1248 1.383 . S
C1254 C1253 1.379 . S
H1255 C1249 0.959 . S
H1256 C1249 0.961 . S
H1257 C1249 0.960 . S
H1258 C1250 0.930 . S
H1259 C1251 0.929 . S
H1260 C1268 0.929 . S
H1261 C1270 0.930 . S
H1262 C1272 0.930 . S
H1263 C1275 0.929 . S
H1264 C1278 0.930 . S
H1265 C1280 0.960 . S
H1266 C1280 0.960 . S
H1267 C1280 0.960 . S
C1268 H1260 0.929 . S
C1268 C1269 1.377 . S
C1268 C1270 1.384 . S
C1269 C1268 1.377 . S
C1269 C1275 1.390 . S
C1270 H1261 0.930 . S
C1270 C1268 1.384 . S
C1270 C1271 1.372 . S
C1271 C1270 1.372 . S
C1271 C1272 1.400 . S
C1271 C1276 1.490 . S
C1272 H1262 0.930 . S
C1272 C1271 1.400 . S
C1272 C1275 1.386 . S
H1273 C1289 0.930 . S
H1274 C1290 0.931 . S
C1275 H1263 0.929 . S
C1275 C1269 1.390 . S
C1275 C1272 1.386 . S
C1276 C1271 1.490 . S
C1276 C1278 1.395 . S
C1276 C1279 1.403 . S
H1277 C1283 0.930 . S
C1278 H1264 0.930 . S
C1278 C1276 1.395 . S
C1278 C1281 1.403 . S
C1279 C1276 1.403 . S
C1279 C1280 1.524 . S
C1279 C1283 1.400 . S
C1280 H1265 0.960 . S
C1280 H1266 0.960 . S
C1280 H1267 0.960 . S
C1280 C1279 1.524 . S
C1281 C1278 1.403 . S
C1281 C1282 1.392 . S
C1281 C1285 1.495 . S
C1282 C1281 1.392 . S
C1282 C1283 1.385 . S
C1282 C1284 1.478 . S
C1283 H1277 0.930 . S
C1283 C1279 1.400 . S
C1283 C1282 1.385 . S
C1284 C1282 1.478 . S
C1284 C1286 1.381 . S
C1284 C1290 1.383 . S
C1285 C1281 1.495 . S
C1285 H1291 0.959 . S
C1285 H1292 0.961 . S
C1285 H1293 0.960 . S
C1286 C1284 1.381 . S
C1286 C1287 1.394 . S
C1286 H1294 0.930 . S
C1287 C1286 1.394 . S
C1287 C1288 1.383 . S
C1287 H1295 0.929 . S
C1288 C1287 1.383 . S
C1288 C1289 1.377 . S
C1289 H1273 0.930 . S
C1289 C1288 1.377 . S
C1289 C1290 1.379 . S
C1290 H1274 0.931 . S
C1290 C1284 1.383 . S
C1290 C1289 1.379 . S
H1291 C1285 0.959 . S
H1292 C1285 0.961 . S
H1293 C1285 0.960 . S
H1294 C1286 0.930 . S
H1295 C1287 0.929 . S
H1296 C1304 0.929 . S
H1297 C1306 0.930 . S
H1298 C1308 0.930 . S
H1299 C1311 0.929 . S
H1300 C1314 0.930 . S
H1301 C1316 0.960 . S
H1302 C1316 0.960 . S
H1303 C1316 0.960 . S
C1304 H1296 0.929 . S
C1304 C1305 1.377 . S
C1304 C1306 1.384 . S
C1305 C1304 1.377 . S
C1305 C1311 1.390 . S
C1306 H1297 0.930 . S
C1306 C1304 1.384 . S
C1306 C1307 1.372 . S
C1307 C1306 1.372 . S
C1307 C1308 1.400 . S
C1307 C1312 1.490 . S
C1308 H1298 0.930 . S
C1308 C1307 1.400 . S
C1308 C1311 1.386 . S
H1309 C1325 0.930 . S
H1310 C1326 0.931 . S
C1311 H1299 0.929 . S
C1311 C1305 1.390 . S
C1311 C1308 1.386 . S
C1312 C1307 1.490 . S
C1312 C1314 1.395 . S
C1312 C1315 1.403 . S
H1313 C1319 0.930 . S
C1314 H1300 0.930 . S
C1314 C1312 1.395 . S
C1314 C1317 1.403 . S
C1315 C1312 1.403 . S
C1315 C1316 1.524 . S
C1315 C1319 1.400 . S
C1316 H1301 0.960 . S
C1316 H1302 0.960 . S
C1316 H1303 0.960 . S
C1316 C1315 1.524 . S
C1317 C1314 1.403 . S
C1317 C1318 1.392 . S
C1317 C1321 1.495 . S
C1318 C1317 1.392 . S
C1318 C1319 1.385 . S
C1318 C1320 1.478 . S
C1319 H1313 0.930 . S
C1319 C1315 1.400 . S
C1319 C1318 1.385 . S
C1320 C1318 1.478 . S
C1320 C1322 1.381 . S
C1320 C1326 1.383 . S
C1321 C1317 1.495 . S
C1321 H1327 0.959 . S
C1321 H1328 0.961 . S
C1321 H1329 0.960 . S
C1322 C1320 1.381 . S
C1322 C1323 1.394 . S
C1322 H1330 0.930 . S
C1323 C1322 1.394 . S
C1323 C1324 1.383 . S
C1323 H1331 0.929 . S
C1324 C1323 1.383 . S
C1324 C1325 1.377 . S
C1325 H1309 0.930 . S
C1325 C1324 1.377 . S
C1325 C1326 1.379 . S
C1326 H1310 0.931 . S
C1326 C1320 1.383 . S
C1326 C1325 1.379 . S
H1327 C1321 0.959 . S
H1328 C1321 0.961 . S
H1329 C1321 0.960 . S
H1330 C1322 0.930 . S
H1331 C1323 0.929 . S
H1332 C1340 0.929 . S
H1333 C1342 0.930 . S
H1334 C1344 0.930 . S
H1335 C1347 0.929 . S
H1336 C1350 0.930 . S
H1337 C1352 0.960 . S
H1338 C1352 0.960 . S
H1339 C1352 0.960 . S
C1340 H1332 0.929 . S
C1340 C1341 1.377 . S
C1340 C1342 1.384 . S
C1341 C1340 1.377 . S
C1341 C1347 1.390 . S
C1342 H1333 0.930 . S
C1342 C1340 1.384 . S
C1342 C1343 1.372 . S
C1343 C1342 1.372 . S
C1343 C1344 1.400 . S
C1343 C1348 1.490 . S
C1344 H1334 0.930 . S
C1344 C1343 1.400 . S
C1344 C1347 1.386 . S
H1345 C1361 0.930 . S
H1346 C1362 0.931 . S
C1347 H1335 0.929 . S
C1347 C1341 1.390 . S
C1347 C1344 1.386 . S
C1348 C1343 1.490 . S
C1348 C1350 1.395 . S
C1348 C1351 1.403 . S
H1349 C1355 0.930 . S
C1350 H1336 0.930 . S
C1350 C1348 1.395 . S
C1350 C1353 1.403 . S
C1351 C1348 1.403 . S
C1351 C1352 1.524 . S
C1351 C1355 1.400 . S
C1352 H1337 0.960 . S
C1352 H1338 0.960 . S
C1352 H1339 0.960 . S
C1352 C1351 1.524 . S
C1353 C1350 1.403 . S
C1353 C1354 1.392 . S
C1353 C1357 1.495 . S
C1354 C1353 1.392 . S
C1354 C1355 1.385 . S
C1354 C1356 1.478 . S
C1355 H1349 0.930 . S
C1355 C1351 1.400 . S
C1355 C1354 1.385 . S
C1356 C1354 1.478 . S
C1356 C1358 1.381 . S
C1356 C1362 1.383 . S
C1357 C1353 1.495 . S
C1357 H1363 0.959 . S
C1357 H1364 0.961 . S
C1357 H1365 0.960 . S
C1358 C1356 1.381 . S
C1358 C1359 1.394 . S
C1358 H1366 0.930 . S
C1359 C1358 1.394 . S
C1359 C1360 1.383 . S
C1359 H1367 0.929 . S
C1360 C1359 1.383 . S
C1360 C1361 1.377 . S
C1361 H1345 0.930 . S
C1361 C1360 1.377 . S
C1361 C1362 1.379 . S
C1362 H1346 0.931 . S
C1362 C1356 1.383 . S
C1362 C1361 1.379 . S
H1363 C1357 0.959 . S
H1364 C1357 0.961 . S
H1365 C1357 0.960 . S
H1366 C1358 0.930 . S
H1367 C1359 0.929 . S
H1368 C1376 0.929 . S
H1369 C1378 0.930 . S
H1370 C1380 0.930 . S
H1371 C1383 0.929 . S
H1372 C1386 0.930 . S
H1373 C1388 0.960 1_545 S
H1374 C1388 0.960 1_545 S
H1375 C1388 0.960 . S
C1376 H1368 0.929 . S
C1376 C1377 1.377 . S
C1376 C1378 1.384 . S
C1377 C1376 1.377 . S
C1377 C1383 1.390 . S
C1378 H1369 0.930 . S
C1378 C1376 1.384 . S
C1378 C1379 1.372 . S
C1379 C1378 1.372 . S
C1379 C1380 1.400 . S
C1379 C1384 1.490 . S
C1380 H1370 0.930 . S
C1380 C1379 1.400 . S
C1380 C1383 1.386 . S
H1381 C1397 0.930 . S
H1382 C1398 0.931 1_565 S
C1383 H1371 0.929 . S
C1383 C1377 1.390 . S
C1383 C1380 1.386 . S
C1384 C1379 1.490 . S
C1384 C1386 1.395 . S
C1384 C1387 1.403 . S
H1385 C1391 0.930 . S
C1386 H1372 0.930 . S
C1386 C1384 1.395 . S
C1386 C1389 1.403 . S
C1387 C1384 1.403 . S
C1387 C1388 1.524 . S
C1387 C1391 1.400 1_565 S
C1388 H1373 0.960 1_565 S
C1388 H1374 0.960 1_565 S
C1388 H1375 0.960 . S
C1388 C1387 1.524 . S
C1389 C1386 1.403 . S
C1389 C1390 1.392 1_565 S
C1389 C1393 1.495 . S
C1390 C1389 1.392 1_545 S
C1390 C1391 1.385 . S
C1390 C1392 1.478 . S
C1391 H1385 0.930 . S
C1391 C1387 1.400 1_545 S
C1391 C1390 1.385 . S
C1392 C1390 1.478 . S
C1392 C1394 1.381 . S
C1392 C1398 1.383 . S
C1393 C1389 1.495 . S
C1393 H1399 0.959 . S
C1393 H1400 0.961 . S
C1393 H1401 0.960 1_565 S
C1394 C1392 1.381 . S
C1394 C1395 1.394 . S
C1394 H1402 0.930 . S
C1395 C1394 1.394 . S
C1395 C1396 1.383 . S
C1395 H1403 0.929 . S
C1396 C1395 1.383 . S
C1396 C1397 1.377 . S
C1397 H1381 0.930 . S
C1397 C1396 1.377 . S
C1397 C1398 1.379 . S
C1398 H1382 0.931 1_545 S
C1398 C1392 1.383 . S
C1398 C1397 1.379 . S
H1399 C1393 0.959 . S
H1400 C1393 0.961 . S
H1401 C1393 0.960 1_545 S
H1402 C1394 0.930 . S
H1403 C1395 0.929 . S
H1404 C1412 0.929 . S
H1405 C1414 0.930 . S
H1406 C1416 0.930 . S
H1407 C1419 0.929 . S
H1408 C1422 0.930 . S
H1409 C1424 0.960 . S
H1410 C1424 0.960 . S
H1411 C1424 0.960 . S
C1412 H1404 0.929 . S
C1412 C1413 1.377 . S
C1412 C1414 1.384 . S
C1413 C1412 1.377 . S
C1413 C1419 1.390 . S
C1414 H1405 0.930 . S
C1414 C1412 1.384 . S
C1414 C1415 1.372 . S
C1415 C1414 1.372 . S
C1415 C1416 1.400 . S
C1415 C1420 1.490 . S
C1416 H1406 0.930 . S
C1416 C1415 1.400 . S
C1416 C1419 1.386 . S
H1417 C1433 0.930 . S
H1418 C1434 0.923 1_556 S
C1419 H1407 0.929 . S
C1419 C1413 1.390 . S
C1419 C1416 1.386 . S
C1420 C1415 1.490 . S
C1420 C1422 1.395 . S
C1420 C1423 1.403 . S
H1421 C1427 0.930 . S
C1422 H1408 0.930 . S
C1422 C1420 1.395 . S
C1422 C1425 1.403 . S
C1423 C1420 1.403 . S
C1423 C1424 1.524 . S
C1423 C1427 1.400 . S
C1424 H1409 0.960 . S
C1424 H1410 0.960 . S
C1424 H1411 0.960 . S
C1424 C1423 1.524 . S
C1425 C1422 1.403 . S
C1425 C1426 1.392 . S
C1425 C1429 1.495 . S
C1426 C1425 1.392 . S
C1426 C1427 1.385 . S
C1426 C1428 1.478 . S
C1427 H1421 0.930 . S
C1427 C1423 1.400 . S
C1427 C1426 1.385 . S
C1428 C1426 1.478 . S
C1428 C1430 1.381 . S
C1428 C1434 1.401 . S
C1429 C1425 1.495 . S
C1429 H1435 0.959 . S
C1429 H1436 0.961 . S
C1429 H1437 0.960 . S
C1430 C1428 1.381 . S
C1430 C1431 1.394 . S
C1430 H1438 0.930 . S
C1431 C1430 1.394 . S
C1431 C1432 1.383 1_554 S
C1431 H1439 0.929 . S
C1432 C1431 1.383 1_556 S
C1432 C1433 1.377 . S
C1433 H1417 0.930 . S
C1433 C1432 1.377 . S
C1433 C1434 1.369 1_556 S
C1434 H1418 0.923 1_554 S
C1434 C1428 1.401 . S
C1434 C1433 1.369 1_554 S
H1435 C1429 0.959 . S
H1436 C1429 0.961 . S
H1437 C1429 0.960 . S
H1438 C1430 0.930 . S
H1439 C1431 0.929 . S
H1440 C1448 0.929 . S
H1441 C1450 0.930 . S
H1442 C1452 0.930 . S
H1443 C1455 0.929 . S
H1444 C1458 0.930 . S
H1445 C1460 0.960 . S
H1446 C1460 0.960 . S
H1447 C1460 0.960 . S
C1448 H1440 0.929 . S
C1448 C1449 1.377 . S
C1448 C1450 1.384 . S
C1449 C1448 1.377 . S
C1449 C1455 1.390 1_556 S
C1450 H1441 0.930 . S
C1450 C1448 1.384 . S
C1450 C1451 1.372 1_556 S
C1451 C1450 1.372 1_554 S
C1451 C1452 1.400 . S
C1451 C1456 1.490 1_655 S
C1452 H1442 0.930 . S
C1452 C1451 1.400 . S
C1452 C1455 1.386 . S
H1453 C1469 0.930 . S
H1454 C1470 0.931 . S
C1455 H1443 0.929 . S
C1455 C1449 1.390 1_554 S
C1455 C1452 1.386 . S
C1456 C1451 1.490 1_455 S
C1456 C1458 1.395 . S
C1456 C1459 1.403 1_455 S
H1457 C1463 0.922 1_655 S
C1458 H1444 0.930 . S
C1458 C1456 1.395 . S
C1458 C1461 1.403 . S
C1459 C1456 1.403 1_655 S
C1459 C1460 1.524 . S
C1459 C1463 1.400 1_655 S
C1460 H1445 0.960 . S
C1460 H1446 0.960 . S
C1460 H1447 0.960 . S
C1460 C1459 1.524 . S
C1461 C1458 1.403 . S
C1461 C1462 1.392 . S
C1461 C1465 1.495 . S
C1462 C1461 1.392 . S
C1462 C1463 1.385 . S
C1462 C1464 1.478 . S
C1463 H1457 0.922 1_455 S
C1463 C1459 1.400 1_455 S
C1463 C1462 1.385 . S
C1464 C1462 1.478 . S
C1464 C1466 1.381 . S
C1464 C1470 1.383 . S
C1465 C1461 1.495 . S
C1465 H1471 0.959 . S
C1465 H1472 0.961 . S
C1465 H1473 0.960 . S
C1466 C1464 1.381 . S
C1466 C1467 1.394 . S
C1466 H1474 0.930 . S
C1467 C1466 1.394 . S
C1467 C1468 1.383 . S
C1467 H1475 0.929 . S
C1468 C1467 1.383 . S
C1468 C1469 1.377 . S
C1469 H1453 0.930 . S
C1469 C1468 1.377 . S
C1469 C1470 1.379 . S
C1470 H1454 0.931 . S
C1470 C1464 1.383 . S
C1470 C1469 1.379 . S
H1471 C1465 0.959 . S
H1472 C1465 0.961 . S
H1473 C1465 0.960 . S
H1474 C1466 0.930 . S
H1475 C1467 0.929 . S
H1476 C1484 0.929 . S
H1477 C1486 0.930 . S
H1478 C1488 0.930 . S
H1479 C1491 0.929 . S
H1480 C1494 0.930 . S
H1481 C1496 0.960 . S
H1482 C1496 0.960 . S
H1483 C1496 0.960 . S
C1484 H1476 0.929 . S
C1484 C1485 1.377 . S
C1484 C1486 1.384 . S
C1485 C1484 1.377 . S
C1485 C1491 1.390 1_556 S
C1486 H1477 0.930 . S
C1486 C1484 1.384 . S
C1486 C1487 1.372 1_556 S
C1487 C1486 1.372 1_554 S
C1487 C1488 1.400 . S
C1487 C1492 1.490 . S
C1488 H1478 0.930 . S
C1488 C1487 1.400 . S
C1488 C1491 1.386 . S
H1489 C1505 0.930 . S
H1490 C1506 0.931 . S
C1491 H1479 0.929 . S
C1491 C1485 1.390 1_554 S
C1491 C1488 1.386 . S
C1492 C1487 1.490 . S
C1492 C1494 1.395 . S
C1492 C1495 1.403 . S
H1493 C1499 0.930 . S
C1494 H1480 0.930 . S
C1494 C1492 1.395 . S
C1494 C1497 1.403 . S
C1495 C1492 1.403 . S
C1495 C1496 1.524 . S
C1495 C1499 1.400 . S
C1496 H1481 0.960 . S
C1496 H1482 0.960 . S
C1496 H1483 0.960 . S
C1496 C1495 1.524 . S
C1497 C1494 1.403 . S
C1497 C1498 1.392 . S
C1497 C1501 1.495 . S
C1498 C1497 1.392 . S
C1498 C1499 1.385 . S
C1498 C1500 1.478 . S
C1499 H1493 0.930 . S
C1499 C1495 1.400 . S
C1499 C1498 1.385 . S
C1500 C1498 1.478 . S
C1500 C1502 1.381 . S
C1500 C1506 1.383 . S
C1501 C1497 1.495 . S
C1501 H1507 0.959 . S
C1501 H1508 0.961 . S
C1501 H1509 0.960 . S
C1502 C1500 1.381 . S
C1502 C1503 1.394 . S
C1502 H1510 0.930 . S
C1503 C1502 1.394 . S
C1503 C1504 1.383 . S
C1503 H1511 0.929 . S
C1504 C1503 1.383 . S
C1504 C1505 1.377 . S
C1505 H1489 0.930 . S
C1505 C1504 1.377 . S
C1505 C1506 1.379 . S
C1506 H1490 0.931 . S
C1506 C1500 1.383 . S
C1506 C1505 1.379 . S
H1507 C1501 0.959 . S
H1508 C1501 0.961 . S
H1509 C1501 0.960 . S
H1510 C1502 0.930 . S
H1511 C1503 0.929 . S
H1512 C1520 0.929 . S
H1513 C1522 0.930 1_455 S
H1514 C1524 0.930 . S
H1515 C1527 0.929 . S
H1516 C1530 0.930 . S
H1517 C1532 0.960 . S
H1518 C1532 0.960 . S
H1519 C1532 0.960 . S
C1520 H1512 0.929 . S
C1520 C1521 1.377 . S
C1520 C1522 1.384 . S
C1521 C1520 1.377 . S
C1521 C1527 1.390 . S
C1522 H1513 0.930 1_655 S
C1522 C1520 1.384 . S
C1522 C1523 1.372 . S
C1523 C1522 1.372 . S
C1523 C1524 1.400 . S
C1523 C1528 1.490 1_655 S
C1524 H1514 0.930 . S
C1524 C1523 1.400 . S
C1524 C1527 1.386 . S
H1525 C1541 0.930 . S
H1526 C1542 0.931 . S
C1527 H1515 0.929 . S
C1527 C1521 1.390 . S
C1527 C1524 1.386 . S
C1528 C1523 1.490 1_455 S
C1528 C1530 1.395 . S
C1528 C1531 1.403 1_455 S
H1529 C1535 0.930 1_655 S
C1530 H1516 0.930 . S
C1530 C1528 1.395 . S
C1530 C1533 1.403 . S
C1531 C1528 1.403 1_655 S
C1531 C1532 1.524 . S
C1531 C1535 1.400 1_655 S
C1532 H1517 0.960 . S
C1532 H1518 0.960 . S
C1532 H1519 0.960 . S
C1532 C1531 1.524 . S
C1533 C1530 1.403 . S
C1533 C1534 1.392 . S
C1533 C1537 1.495 . S
C1534 C1533 1.392 . S
C1534 C1535 1.385 . S
C1534 C1536 1.478 . S
C1535 H1529 0.930 1_455 S
C1535 C1531 1.400 1_455 S
C1535 C1534 1.385 . S
C1536 C1534 1.478 . S
C1536 C1538 1.381 . S
C1536 C1542 1.383 . S
C1537 C1533 1.495 . S
C1537 H1543 0.959 . S
C1537 H1544 0.961 . S
C1537 H1545 0.960 . S
C1538 C1536 1.381 . S
C1538 C1539 1.394 . S
C1538 H1546 0.930 . S
C1539 C1538 1.394 . S
C1539 C1540 1.383 . S
C1539 H1547 0.929 . S
C1540 C1539 1.383 . S
C1540 C1541 1.377 . S
C1541 H1525 0.930 . S
C1541 C1540 1.377 . S
C1541 C1542 1.379 . S
C1542 H1526 0.931 . S
C1542 C1536 1.383 . S
C1542 C1541 1.379 . S
H1543 C1537 0.959 . S
H1544 C1537 0.961 . S
H1545 C1537 0.960 . S
H1546 C1538 0.930 . S
H1547 C1539 0.929 . S
H1548 C1556 0.929 . S
H1549 C1558 0.930 . S
H1550 C1560 0.930 . S
H1551 C1563 0.929 . S
H1552 C1566 0.930 . S
H1553 C1568 0.960 . S
H1554 C1568 0.960 . S
H1555 C1568 0.960 . S
C1556 H1548 0.929 . S
C1556 C1557 1.377 . S
C1556 C1558 1.384 . S
C1557 C1556 1.377 . S
C1557 C1563 1.390 . S
C1558 H1549 0.930 . S
C1558 C1556 1.384 . S
C1558 C1559 1.372 . S
C1559 C1558 1.372 . S
C1559 C1560 1.400 . S
C1559 C1564 1.490 . S
C1560 H1550 0.930 . S
C1560 C1559 1.400 . S
C1560 C1563 1.386 . S
H1561 C1577 0.930 . S
H1562 C1578 0.931 . S
C1563 H1551 0.929 . S
C1563 C1557 1.390 . S
C1563 C1560 1.386 . S
C1564 C1559 1.490 . S
C1564 C1566 1.395 . S
C1564 C1567 1.403 . S
H1565 C1571 0.930 . S
C1566 H1552 0.930 . S
C1566 C1564 1.395 . S
C1566 C1569 1.403 . S
C1567 C1564 1.403 . S
C1567 C1568 1.524 . S
C1567 C1571 1.400 . S
C1568 H1553 0.960 . S
C1568 H1554 0.960 . S
C1568 H1555 0.960 . S
C1568 C1567 1.524 . S
C1569 C1566 1.403 . S
C1569 C1570 1.392 . S
C1569 C1573 1.495 . S
C1570 C1569 1.392 . S
C1570 C1571 1.385 . S
C1570 C1572 1.478 . S
C1571 H1565 0.930 . S
C1571 C1567 1.400 . S
C1571 C1570 1.385 . S
C1572 C1570 1.478 . S
C1572 C1574 1.381 . S
C1572 C1578 1.383 . S
C1573 C1569 1.495 . S
C1573 H1579 0.959 . S
C1573 H1580 0.961 . S
C1573 H1581 0.960 . S
C1574 C1572 1.381 . S
C1574 C1575 1.394 . S
C1574 H1582 0.930 . S
C1575 C1574 1.394 . S
C1575 C1576 1.383 . S
C1575 H1583 0.929 . S
C1576 C1575 1.383 . S
C1576 C1577 1.377 . S
C1577 H1561 0.930 . S
C1577 C1576 1.377 . S
C1577 C1578 1.379 . S
C1578 H1562 0.931 . S
C1578 C1572 1.383 . S
C1578 C1577 1.379 . S
H1579 C1573 0.959 . S
H1580 C1573 0.961 . S
H1581 C1573 0.960 . S
H1582 C1574 0.930 . S
H1583 C1575 0.929 . S
H1584 C1592 0.929 . S
H1585 C1594 0.930 . S
H1586 C1596 0.930 . S
H1587 C1599 0.929 . S
H1588 C1602 0.930 . S
H1589 C1604 0.960 . S
H1590 C1604 0.960 . S
H1591 C1604 0.960 . S
C1592 H1584 0.929 . S
C1592 C1593 1.377 . S
C1592 C1594 1.384 . S
C1593 C1592 1.377 . S
C1593 C1599 1.390 . S
C1594 H1585 0.930 . S
C1594 C1592 1.384 . S
C1594 C1595 1.372 . S
C1595 C1594 1.372 . S
C1595 C1596 1.400 . S
C1595 C1600 1.490 . S
C1596 H1586 0.930 . S
C1596 C1595 1.400 . S
C1596 C1599 1.386 . S
H1597 C1613 0.930 . S
H1598 C1614 0.931 . S
C1599 H1587 0.929 . S
C1599 C1593 1.390 . S
C1599 C1596 1.386 . S
C1600 C1595 1.490 . S
C1600 C1602 1.395 . S
C1600 C1603 1.403 . S
H1601 C1607 0.930 . S
C1602 H1588 0.930 . S
C1602 C1600 1.395 . S
C1602 C1605 1.403 . S
C1603 C1600 1.403 . S
C1603 C1604 1.524 . S
C1603 C1607 1.400 . S
C1604 H1589 0.960 . S
C1604 H1590 0.960 . S
C1604 H1591 0.960 . S
C1604 C1603 1.524 . S
C1605 C1602 1.403 . S
C1605 C1606 1.392 . S
C1605 C1609 1.495 . S
C1606 C1605 1.392 . S
C1606 C1607 1.385 . S
C1606 C1608 1.478 . S
C1607 H1601 0.930 . S
C1607 C1603 1.400 . S
C1607 C1606 1.385 . S
C1608 C1606 1.478 . S
C1608 C1610 1.381 . S
C1608 C1614 1.383 . S
C1609 C1605 1.495 . S
C1609 H1615 0.959 . S
C1609 H1616 0.961 . S
C1609 H1617 0.960 . S
C1610 C1608 1.381 . S
C1610 C1611 1.394 . S
C1610 H1618 0.930 . S
C1611 C1610 1.394 . S
C1611 C1612 1.383 . S
C1611 H1619 0.929 . S
C1612 C1611 1.383 . S
C1612 C1613 1.377 . S
C1613 H1597 0.930 . S
C1613 C1612 1.377 . S
C1613 C1614 1.379 . S
C1614 H1598 0.931 . S
C1614 C1608 1.383 . S
C1614 C1613 1.379 . S
H1615 C1609 0.959 . S
H1616 C1609 0.961 . S
H1617 C1609 0.960 . S
H1618 C1610 0.930 . S
H1619 C1611 0.929 . S
H1620 C1628 0.929 . S
H1621 C1630 0.930 . S
H1622 C1632 0.930 . S
H1623 C1635 0.929 . S
H1624 C1638 0.930 . S
H1625 C1640 0.960 . S
H1626 C1640 0.960 . S
H1627 C1640 0.960 1_554 S
C1628 H1620 0.929 . S
C1628 C1629 1.377 1_556 S
C1628 C1630 1.384 . S
C1629 C1628 1.377 1_554 S
C1629 C1635 1.390 . S
C1630 H1621 0.930 . S
C1630 C1628 1.384 . S
C1630 C1631 1.372 . S
C1631 C1630 1.372 . S
C1631 C1632 1.400 1_556 S
C1631 C1636 1.490 . S
C1632 H1622 0.930 . S
C1632 C1631 1.400 1_554 S
C1632 C1635 1.386 . S
H1633 C1649 0.930 . S
H1634 C1650 0.931 . S
C1635 H1623 0.929 . S
C1635 C1629 1.390 . S
C1635 C1632 1.386 . S
C1636 C1631 1.490 . S
C1636 C1638 1.395 1_565 S
C1636 C1639 1.403 . S
H1637 C1643 0.930 . S
C1638 H1624 0.930 . S
C1638 C1636 1.395 1_545 S
C1638 C1641 1.403 . S
C1639 C1636 1.403 . S
C1639 C1640 1.524 . S
C1639 C1643 1.400 1_565 S
C1640 H1625 0.960 . S
C1640 H1626 0.960 . S
C1640 H1627 0.960 1_556 S
C1640 C1639 1.524 . S
C1641 C1638 1.403 . S
C1641 C1642 1.392 . S
C1641 C1645 1.495 . S
C1642 C1641 1.392 . S
C1642 C1643 1.385 . S
C1642 C1644 1.478 . S
C1643 H1637 0.930 . S
C1643 C1639 1.400 1_545 S
C1643 C1642 1.385 . S
C1644 C1642 1.478 . S
C1644 C1646 1.381 . S
C1644 C1650 1.383 . S
C1645 C1641 1.495 . S
C1645 H1651 0.959 . S
C1645 H1652 0.961 . S
C1645 H1653 0.960 . S
C1646 C1644 1.381 . S
C1646 C1647 1.394 . S
C1646 H1654 0.930 . S
C1647 C1646 1.394 . S
C1647 C1648 1.383 . S
C1647 H1655 0.929 . S
C1648 C1647 1.383 . S
C1648 C1649 1.377 . S
C1649 H1633 0.930 . S
C1649 C1648 1.377 . S
C1649 C1650 1.379 . S
C1650 H1634 0.931 . S
C1650 C1644 1.383 . S
C1650 C1649 1.379 . S
H1651 C1645 0.959 . S
H1652 C1645 0.961 . S
H1653 C1645 0.960 . S
H1654 C1646 0.930 . S
H1655 C1647 0.929 . S
H1656 C1664 0.929 . S
H1657 C1666 0.930 . S
H1658 C1668 0.930 . S
H1659 C1671 0.929 . S
H1660 C1674 0.930 . S
H1661 C1676 0.960 1_554 S
H1662 C1676 0.960 . S
H1663 C1676 0.960 . S
C1664 H1656 0.929 . S
C1664 C1665 1.377 . S
C1664 C1666 1.384 . S
C1665 C1664 1.377 . S
C1665 C1671 1.390 . S
C1666 H1657 0.930 . S
C1666 C1664 1.384 . S
C1666 C1667 1.372 . S
C1667 C1666 1.372 . S
C1667 C1668 1.400 . S
C1667 C1672 1.490 . S
C1668 H1658 0.930 . S
C1668 C1667 1.400 . S
C1668 C1671 1.386 . S
H1669 C1685 0.930 . S
H1670 C1686 0.931 . S
C1671 H1659 0.929 . S
C1671 C1665 1.390 . S
C1671 C1668 1.386 . S
C1672 C1667 1.490 . S
C1672 C1674 1.395 . S
C1672 C1675 1.403 . S
H1673 C1679 0.930 . S
C1674 H1660 0.930 . S
C1674 C1672 1.395 . S
C1674 C1677 1.403 . S
C1675 C1672 1.403 . S
C1675 C1676 1.524 . S
C1675 C1679 1.400 . S
C1676 H1661 0.960 1_556 S
C1676 H1662 0.960 . S
C1676 H1663 0.960 . S
C1676 C1675 1.524 . S
C1677 C1674 1.403 . S
C1677 C1678 1.392 . S
C1677 C1681 1.495 . S
C1678 C1677 1.392 . S
C1678 C1679 1.385 . S
C1678 C1680 1.478 . S
C1679 H1673 0.930 . S
C1679 C1675 1.400 . S
C1679 C1678 1.385 . S
C1680 C1678 1.478 . S
C1680 C1682 1.381 . S
C1680 C1686 1.383 . S
C1681 C1677 1.495 . S
C1681 H1687 0.959 . S
C1681 H1688 0.961 . S
C1681 H1689 0.960 . S
C1682 C1680 1.381 . S
C1682 C1683 1.394 1_556 S
C1682 H1690 0.930 . S
C1683 C1682 1.394 1_554 S
C1683 C1684 1.383 . S
C1683 H1691 0.929 . S
C1684 C1683 1.383 . S
C1684 C1685 1.377 . S
C1685 H1669 0.930 . S
C1685 C1684 1.377 . S
C1685 C1686 1.379 1_554 S
C1686 H1670 0.931 . S
C1686 C1680 1.383 . S
C1686 C1685 1.379 1_556 S
H1687 C1681 0.959 . S
H1688 C1681 0.961 . S
H1689 C1681 0.960 . S
H1690 C1682 0.930 . S
H1691 C1683 0.929 . S
H1692 C1700 0.929 . S
H1693 C1702 0.930 . S
H1694 C1704 0.930 . S
H1695 C1707 0.929 . S
H1696 C1710 0.930 . S
H1697 C1712 0.960 . S
H1698 C1712 0.960 . S
H1699 C1712 0.960 . S
C1700 H1692 0.929 . S
C1700 C1701 1.377 . S
C1700 C1702 1.384 . S
C1701 C1700 1.377 . S
C1701 C1707 1.390 . S
C1702 H1693 0.930 . S
C1702 C1700 1.384 . S
C1702 C1703 1.372 . S
C1703 C1702 1.372 . S
C1703 C1704 1.400 . S
C1703 C1708 1.490 . S
C1704 H1694 0.930 . S
C1704 C1703 1.400 . S
C1704 C1707 1.386 . S
H1705 C1721 0.930 . S
H1706 C1722 0.931 . S
C1707 H1695 0.929 . S
C1707 C1701 1.390 . S
C1707 C1704 1.386 . S
C1708 C1703 1.490 . S
C1708 C1710 1.395 . S
C1708 C1711 1.403 . S
H1709 C1715 0.930 . S
C1710 H1696 0.930 . S
C1710 C1708 1.395 . S
C1710 C1713 1.403 . S
C1711 C1708 1.403 . S
C1711 C1712 1.524 . S
C1711 C1715 1.400 . S
C1712 H1697 0.960 . S
C1712 H1698 0.960 . S
C1712 H1699 0.960 . S
C1712 C1711 1.524 . S
C1713 C1710 1.403 . S
C1713 C1714 1.392 . S
C1713 C1717 1.495 . S
C1714 C1713 1.392 . S
C1714 C1715 1.385 . S
C1714 C1716 1.478 . S
C1715 H1709 0.930 . S
C1715 C1711 1.400 . S
C1715 C1714 1.385 . S
C1716 C1714 1.478 . S
C1716 C1718 1.381 . S
C1716 C1722 1.383 . S
C1717 C1713 1.495 . S
C1717 H1723 0.959 . S
C1717 H1724 0.961 . S
C1717 H1725 0.960 . S
C1718 C1716 1.381 . S
C1718 C1719 1.394 1_556 S
C1718 H1726 0.930 . S
C1719 C1718 1.394 1_554 S
C1719 C1720 1.383 . S
C1719 H1727 0.929 . S
C1720 C1719 1.383 . S
C1720 C1721 1.377 1_554 S
C1721 H1705 0.930 . S
C1721 C1720 1.377 1_556 S
C1721 C1722 1.379 . S
C1722 H1706 0.931 . S
C1722 C1716 1.383 . S
C1722 C1721 1.379 . S
H1723 C1717 0.959 . S
H1724 C1717 0.961 . S
H1725 C1717 0.960 . S
H1726 C1718 0.930 . S
H1727 C1719 0.929 . S
H1728 C1736 0.929 . S
H1729 C1738 0.930 . S
H1730 C1740 0.930 . S
H1731 C1743 0.929 . S
H1732 C1746 0.930 . S
H1733 C1748 0.960 . S
H1734 C1748 0.960 . S
H1735 C1748 0.960 . S
C1736 H1728 0.929 . S
C1736 C1737 1.377 . S
C1736 C1738 1.384 1_565 S
C1737 C1736 1.377 . S
C1737 C1743 1.390 1_565 S
C1738 H1729 0.930 . S
C1738 C1736 1.384 1_545 S
C1738 C1739 1.372 . S
C1739 C1738 1.372 . S
C1739 C1740 1.400 . S
C1739 C1744 1.490 . S
C1740 H1730 0.930 . S
C1740 C1739 1.400 . S
C1740 C1743 1.386 . S
H1741 C1757 0.930 . S
H1742 C1758 0.931 . S
C1743 H1731 0.929 . S
C1743 C1737 1.390 1_545 S
C1743 C1740 1.386 . S
C1744 C1739 1.490 . S
C1744 C1746 1.395 . S
C1744 C1747 1.403 . S
H1745 C1751 0.930 . S
C1746 H1732 0.930 . S
C1746 C1744 1.395 . S
C1746 C1749 1.403 . S
C1747 C1744 1.403 . S
C1747 C1748 1.524 . S
C1747 C1751 1.400 . S
C1748 H1733 0.960 . S
C1748 H1734 0.960 . S
C1748 H1735 0.960 . S
C1748 C1747 1.524 . S
C1749 C1746 1.403 . S
C1749 C1750 1.392 . S
C1749 C1753 1.495 . S
C1750 C1749 1.392 . S
C1750 C1751 1.385 . S
C1750 C1752 1.478 . S
C1751 H1745 0.930 . S
C1751 C1747 1.400 . S
C1751 C1750 1.385 . S
C1752 C1750 1.478 . S
C1752 C1754 1.381 . S
C1752 C1758 1.383 . S
C1753 C1749 1.495 . S
C1753 H1759 0.959 . S
C1753 H1760 0.961 . S
C1753 H1761 0.960 . S
C1754 C1752 1.381 . S
C1754 C1755 1.394 . S
C1754 H1762 0.930 . S
C1755 C1754 1.394 . S
C1755 C1756 1.383 . S
C1755 H1763 0.929 . S
C1756 C1755 1.383 . S
C1756 C1757 1.377 . S
C1757 H1741 0.930 . S
C1757 C1756 1.377 . S
C1757 C1758 1.379 . S
C1758 H1742 0.931 . S
C1758 C1752 1.383 . S
C1758 C1757 1.379 . S
H1759 C1753 0.959 . S
H1760 C1753 0.961 . S
H1761 C1753 0.960 . S
H1762 C1754 0.930 . S
H1763 C1755 0.929 . S
H1764 C1772 0.929 . S
H1765 C1774 0.930 . S
H1766 C1776 0.930 . S
H1767 C1779 0.929 . S
H1768 C1782 0.930 . S
H1769 C1784 0.960 . S
H1770 C1784 0.960 . S
H1771 C1784 0.960 . S
C1772 H1764 0.929 . S
C1772 C1773 1.377 . S
C1772 C1774 1.384 . S
C1773 C1772 1.377 . S
C1773 C1779 1.390 . S
C1774 H1765 0.930 . S
C1774 C1772 1.384 . S
C1774 C1775 1.372 . S
C1775 C1774 1.372 . S
C1775 C1776 1.400 . S
C1775 C1780 1.490 . S
C1776 H1766 0.930 . S
C1776 C1775 1.400 . S
C1776 C1779 1.386 . S
H1777 C1793 0.930 . S
H1778 C1794 0.931 . S
C1779 H1767 0.929 . S
C1779 C1773 1.390 . S
C1779 C1776 1.386 . S
C1780 C1775 1.490 . S
C1780 C1782 1.395 . S
C1780 C1783 1.403 . S
H1781 C1787 0.930 . S
C1782 H1768 0.930 . S
C1782 C1780 1.395 . S
C1782 C1785 1.403 . S
C1783 C1780 1.403 . S
C1783 C1784 1.524 . S
C1783 C1787 1.400 . S
C1784 H1769 0.960 . S
C1784 H1770 0.960 . S
C1784 H1771 0.960 . S
C1784 C1783 1.524 . S
C1785 C1782 1.403 . S
C1785 C1786 1.392 . S
C1785 C1789 1.495 . S
C1786 C1785 1.392 . S
C1786 C1787 1.385 . S
C1786 C1788 1.478 . S
C1787 H1781 0.930 . S
C1787 C1783 1.400 . S
C1787 C1786 1.385 . S
C1788 C1786 1.478 . S
C1788 C1790 1.381 . S
C1788 C1794 1.383 . S
C1789 C1785 1.495 . S
C1789 H1795 0.959 . S
C1789 H1796 0.961 . S
C1789 H1797 0.960 . S
C1790 C1788 1.381 . S
C1790 C1791 1.394 . S
C1790 H1798 0.930 . S
C1791 C1790 1.394 . S
C1791 C1792 1.383 . S
C1791 H1799 0.929 . S
C1792 C1791 1.383 . S
C1792 C1793 1.377 . S
C1793 H1777 0.930 . S
C1793 C1792 1.377 . S
C1793 C1794 1.379 . S
C1794 H1778 0.931 . S
C1794 C1788 1.383 . S
C1794 C1793 1.379 . S
H1795 C1789 0.959 . S
H1796 C1789 0.961 . S
H1797 C1789 0.960 . S
H1798 C1790 0.930 . S
H1799 C1791 0.929 . S
H1800 C1808 0.929 . S
H1801 C1810 0.930 . S
H1802 C1812 0.930 . S
H1803 C1815 0.929 . S
H1804 C1818 0.930 . S
H1805 C1820 0.960 . S
H1806 C1820 0.960 . S
H1807 C1820 0.960 . S
C1808 H1800 0.929 . S
C1808 C1809 1.377 . S
C1808 C1810 1.384 . S
C1809 C1808 1.377 . S
C1809 C1815 1.390 . S
C1810 H1801 0.930 . S
C1810 C1808 1.384 . S
C1810 C1811 1.372 . S
C1811 C1810 1.372 . S
C1811 C1812 1.400 . S
C1811 C1816 1.490 . S
C1812 H1802 0.930 . S
C1812 C1811 1.400 . S
C1812 C1815 1.386 . S
H1813 C1829 0.930 . S
H1814 C1830 0.931 . S
C1815 H1803 0.929 . S
C1815 C1809 1.390 . S
C1815 C1812 1.386 . S
C1816 C1811 1.490 . S
C1816 C1818 1.395 . S
C1816 C1819 1.403 . S
H1817 C1823 0.930 . S
C1818 H1804 0.930 . S
C1818 C1816 1.395 . S
C1818 C1821 1.403 . S
C1819 C1816 1.403 . S
C1819 C1820 1.524 . S
C1819 C1823 1.400 . S
C1820 H1805 0.960 . S
C1820 H1806 0.960 . S
C1820 H1807 0.960 . S
C1820 C1819 1.524 . S
C1821 C1818 1.403 . S
C1821 C1822 1.392 . S
C1821 C1825 1.495 . S
C1822 C1821 1.392 . S
C1822 C1823 1.385 . S
C1822 C1824 1.478 . S
C1823 H1817 0.930 . S
C1823 C1819 1.400 . S
C1823 C1822 1.385 . S
C1824 C1822 1.478 . S
C1824 C1826 1.381 . S
C1824 C1830 1.383 . S
C1825 C1821 1.495 . S
C1825 H1831 0.959 . S
C1825 H1832 0.961 . S
C1825 H1833 0.960 . S
C1826 C1824 1.381 . S
C1826 C1827 1.394 . S
C1826 H1834 0.930 . S
C1827 C1826 1.394 . S
C1827 C1828 1.383 . S
C1827 H1835 0.929 . S
C1828 C1827 1.383 . S
C1828 C1829 1.377 . S
C1829 H1813 0.930 . S
C1829 C1828 1.377 . S
C1829 C1830 1.379 . S
C1830 H1814 0.931 . S
C1830 C1824 1.383 . S
C1830 C1829 1.379 . S
H1831 C1825 0.959 . S
H1832 C1825 0.961 . S
H1833 C1825 0.960 . S
H1834 C1826 0.930 . S
H1835 C1827 0.929 . S
H1836 C1844 0.929 . S
H1837 C1846 0.930 . S
H1838 C1848 0.930 . S
H1839 C1851 0.929 . S
H1840 C1854 0.930 . S
H1841 C1856 0.960 . S
H1842 C1856 0.960 . S
H1843 C1856 0.960 . S
C1844 H1836 0.929 . S
C1844 C1845 1.377 . S
C1844 C1846 1.384 . S
C1845 C1844 1.377 . S
C1845 C1851 1.390 . S
C1846 H1837 0.930 . S
C1846 C1844 1.384 . S
C1846 C1847 1.372 . S
C1847 C1846 1.372 . S
C1847 C1848 1.400 . S
C1847 C1852 1.490 . S
C1848 H1838 0.930 . S
C1848 C1847 1.400 . S
C1848 C1851 1.386 . S
H1849 C1865 0.930 . S
H1850 C1866 0.931 . S
C1851 H1839 0.929 . S
C1851 C1845 1.390 . S
C1851 C1848 1.386 . S
C1852 C1847 1.490 . S
C1852 C1854 1.395 . S
C1852 C1855 1.403 . S
H1853 C1859 0.930 . S
C1854 H1840 0.930 . S
C1854 C1852 1.395 . S
C1854 C1857 1.403 . S
C1855 C1852 1.403 . S
C1855 C1856 1.524 . S
C1855 C1859 1.400 . S
C1856 H1841 0.960 . S
C1856 H1842 0.960 . S
C1856 H1843 0.960 . S
C1856 C1855 1.524 . S
C1857 C1854 1.403 . S
C1857 C1858 1.392 . S
C1857 C1861 1.495 . S
C1858 C1857 1.392 . S
C1858 C1859 1.385 . S
C1858 C1860 1.478 . S
C1859 H1853 0.930 . S
C1859 C1855 1.400 . S
C1859 C1858 1.385 . S
C1860 C1858 1.478 . S
C1860 C1862 1.381 . S
C1860 C1866 1.383 . S
C1861 C1857 1.495 . S
C1861 H1867 0.959 . S
C1861 H1868 0.961 . S
C1861 H1869 0.960 . S
C1862 C1860 1.381 . S
C1862 C1863 1.394 . S
C1862 H1870 0.930 . S
C1863 C1862 1.394 . S
C1863 C1864 1.383 . S
C1863 H1871 0.929 . S
C1864 C1863 1.383 . S
C1864 C1865 1.377 . S
C1865 H1849 0.930 . S
C1865 C1864 1.377 . S
C1865 C1866 1.379 . S
C1866 H1850 0.931 . S
C1866 C1860 1.383 . S
C1866 C1865 1.379 . S
H1867 C1861 0.959 . S
H1868 C1861 0.961 . S
H1869 C1861 0.960 . S
H1870 C1862 0.930 . S
H1871 C1863 0.929 . S
H1872 C1880 0.929 . S
H1873 C1882 0.930 . S
H1874 C1884 0.930 . S
H1875 C1887 0.929 . S
H1876 C1890 0.930 . S
H1877 C1892 0.960 . S
H1878 C1892 0.960 . S
H1879 C1892 0.960 . S
C1880 H1872 0.929 . S
C1880 C1881 1.377 . S
C1880 C1882 1.384 . S
C1881 C1880 1.377 . S
C1881 C1887 1.390 . S
C1882 H1873 0.930 . S
C1882 C1880 1.384 . S
C1882 C1883 1.372 . S
C1883 C1882 1.372 . S
C1883 C1884 1.400 . S
C1883 C1888 1.490 . S
C1884 H1874 0.930 . S
C1884 C1883 1.400 . S
C1884 C1887 1.386 . S
H1885 C1901 0.930 . S
H1886 C1902 0.931 . S
C1887 H1875 0.929 . S
C1887 C1881 1.390 . S
C1887 C1884 1.386 . S
C1888 C1883 1.490 . S
C1888 C1890 1.395 . S
C1888 C1891 1.403 . S
H1889 C1895 0.930 . S
C1890 H1876 0.930 . S
C1890 C1888 1.395 . S
C1890 C1893 1.403 . S
C1891 C1888 1.403 . S
C1891 C1892 1.524 . S
C1891 C1895 1.400 . S
C1892 H1877 0.960 . S
C1892 H1878 0.960 . S
C1892 H1879 0.960 . S
C1892 C1891 1.524 . S
C1893 C1890 1.403 . S
C1893 C1894 1.392 . S
C1893 C1897 1.495 . S
C1894 C1893 1.392 . S
C1894 C1895 1.385 . S
C1894 C1896 1.478 . S
C1895 H1889 0.930 . S
C1895 C1891 1.400 . S
C1895 C1894 1.385 . S
C1896 C1894 1.478 . S
C1896 C1898 1.381 . S
C1896 C1902 1.383 . S
C1897 C1893 1.495 . S
C1897 H1903 0.959 . S
C1897 H1904 0.961 . S
C1897 H1905 0.960 . S
C1898 C1896 1.381 . S
C1898 C1899 1.394 . S
C1898 H1906 0.930 . S
C1899 C1898 1.394 . S
C1899 C1900 1.383 . S
C1899 H1907 0.929 . S
C1900 C1899 1.383 . S
C1900 C1901 1.377 . S
C1901 H1885 0.930 . S
C1901 C1900 1.377 . S
C1901 C1902 1.379 . S
C1902 H1886 0.931 . S
C1902 C1896 1.383 . S
C1902 C1901 1.379 . S
H1903 C1897 0.959 . S
H1904 C1897 0.961 . S
H1905 C1897 0.960 . S
H1906 C1898 0.930 . S
H1907 C1899 0.929 . S
H1908 C1916 0.929 . S
H1909 C1918 0.930 . S
H1910 C1920 0.930 . S
H1911 C1923 0.869 1_565 S
H1912 C1926 0.930 . S
H1913 C1928 0.960 . S
H1914 C1928 0.960 . S
H1915 C1928 0.960 . S
C1916 H1908 0.929 . S
C1916 C1917 1.377 1_545 S
C1916 C1918 1.384 . S
C1917 C1916 1.377 1_565 S
C1917 C1923 1.402 1_565 S
C1918 H1909 0.930 . S
C1918 C1916 1.384 . S
C1918 C1919 1.372 . S
C1919 C1918 1.372 . S
C1919 C1920 1.400 . S
C1919 C1924 1.490 . S
C1920 H1910 0.930 . S
C1920 C1919 1.400 . S
C1920 C1923 1.436 . S
H1921 C1937 0.930 . S
H1922 C1938 0.931 . S
C1923 H1911 0.869 1_545 S
C1923 C1917 1.402 1_545 S
C1923 C1920 1.436 . S
C1924 C1919 1.490 . S
C1924 C1926 1.395 . S
C1924 C1927 1.403 . S
H1925 C1931 0.930 . S
C1926 H1912 0.930 . S
C1926 C1924 1.395 . S
C1926 C1929 1.403 . S
C1927 C1924 1.403 . S
C1927 C1928 1.524 . S
C1927 C1931 1.400 . S
C1928 H1913 0.960 . S
C1928 H1914 0.960 . S
C1928 H1915 0.960 . S
C1928 C1927 1.524 . S
C1929 C1926 1.403 . S
C1929 C1930 1.392 . S
C1929 C1933 1.495 . S
C1930 C1929 1.392 . S
C1930 C1931 1.385 . S
C1930 C1932 1.478 . S
C1931 H1925 0.930 . S
C1931 C1927 1.400 . S
C1931 C1930 1.385 . S
C1932 C1930 1.478 . S
C1932 C1934 1.381 . S
C1932 C1938 1.383 . S
C1933 C1929 1.495 . S
C1933 H1939 0.959 . S
C1933 H1940 0.961 . S
C1933 H1941 0.960 . S
C1934 C1932 1.381 . S
C1934 C1935 1.394 . S
C1934 H1942 0.930 . S
C1935 C1934 1.394 . S
C1935 C1936 1.383 . S
C1935 H1943 0.929 . S
C1936 C1935 1.383 . S
C1936 C1937 1.377 . S
C1937 H1921 0.930 . S
C1937 C1936 1.377 . S
C1937 C1938 1.379 . S
C1938 H1922 0.931 . S
C1938 C1932 1.383 . S
C1938 C1937 1.379 . S
H1939 C1933 0.959 . S
H1940 C1933 0.961 . S
H1941 C1933 0.960 . S
H1942 C1934 0.930 . S
H1943 C1935 0.929 . S
C657 C122 1.182 . S
C676 C4 1.150 . S
C693 C148 1.161 . S
C712 C50 1.182 . S
C729 C76 1.197 . S
C748 C184 1.189 . S
C765 C86 1.162 . S
C784 C194 1.135 . S
C801 C14 1.203 . S
C820 C112 1.168 . S
C837 C158 1.169 . S
C856 C40 1.135 . S
C873 C328 1.191 . S
C892 C220 1.221 . S
C909 C266 1.175 . S
C928 C364 1.176 . S
C945 C302 1.180 . S
C964 C400 1.143 . S
C981 C410 1.185 1_556 S
C1000 C292 1.167 . S
C1017 C338 1.175 1_556 S
C1036 C230 1.195 . S
C1053 C374 1.178 1_556 S
C1072 C256 1.138 . S
C1089 C436 1.188 . S
C1108 C554 1.202 . S
C1125 C482 1.186 . S
C1144 C580 1.153 . S
C1161 C508 1.186 . S
C1180 C616 1.171 . S
C1197 C626 1.184 . S
C1216 C518 1.167 1_554 S
C1233 C544 1.177 . S
C1252 C446 1.185 . S
C1269 C590 1.183 . S
C1288 C472 1.166 . S
C1305 C3 1.173 . S
C1324 C255 1.156 . S
C1341 C38 1.096 . S
C1360 C291 1.128 . S
C1377 C218 1.109 . S
C1396 C75 1.147 . S
C1413 C74 1.105 . S
C1432 C470 1.061 . S
C1449 C507 1.141 . S
C1468 C2 1.072 . S
C1485 C435 1.164 . S
C1504 C39 1.140 . S
C1521 C578 1.089 . S
C1540 C110 1.051 . S
C1557 C147 1.133 . S
C1576 C614 1.109 . S
C1593 C543 1.171 . S
C1612 C183 1.149 . S
C1629 C363 1.152 . S
C1648 C182 1.111 . S
C1665 C111 1.164 . S
C1684 C399 1.152 . S
C1701 C146 1.099 . S
C1720 C327 1.110 . S
C1737 C219 1.157 . S
C1756 C471 1.172 . S
C1773 C254 1.083 . S
C1792 C506 1.090 1_455 S
C1809 C290 1.079 . S
C1828 C434 1.111 . S
C1845 C579 1.136 . S
C1864 C398 1.107 . S
C1881 C615 1.155 . S
C1900 C326 1.122 . S
C1917 C362 1.082 . S
C1936 C542 1.109 . S
