# Generated by pormake.
# Topology twf-e, (6)-cn, num edge types: 1
# Building blocks:
#     Node 0, Type 0, BuildingBlock: JUFBIX_clean_sbu_0, # of connection points: 6
#     Node 1, Type 0, BuildingBlock: JUFBIX_clean_sbu_0, # of connection points: 6
#     Node 2, Type 0, BuildingBlock: JUFBIX_clean_sbu_0, # of connection points: 6
#     Node 3, Type 0, BuildingBlock: JUFBIX_clean_sbu_0, # of connection points: 6
#     Node 4, Type 0, BuildingBlock: JUFBIX_clean_sbu_0, # of connection points: 6
#     Node 5, Type 0, BuildingBlock: JUFBIX_clean_sbu_0, # of connection points: 6
#     Node 6, Type 0, BuildingBlock: JUFBIX_clean_sbu_0, # of connection points: 6
#     Node 7, Type 0, BuildingBlock: JUFBIX_clean_sbu_0, # of connection points: 6
#     Node 8, Type 0, BuildingBlock: JUFBIX_clean_sbu_0, # of connection points: 6
#     Node 9, Type 0, BuildingBlock: JUFBIX_clean_sbu_0, # of connection points: 6
#     Node 10, Type 0, BuildingBlock: JUFBIX_clean_sbu_0, # of connection points: 6
#     Node 11, Type 0, BuildingBlock: JUFBIX_clean_sbu_0, # of connection points: 6
#     Node 12, Type 0, BuildingBlock: JUFBIX_clean_sbu_0, # of connection points: 6
#     Node 13, Type 0, BuildingBlock: JUFBIX_clean_sbu_0, # of connection points: 6
#     Node 14, Type 0, BuildingBlock: JUFBIX_clean_sbu_0, # of connection points: 6
#     Node 15, Type 0, BuildingBlock: JUFBIX_clean_sbu_0, # of connection points: 6
#     Node 16, Type 0, BuildingBlock: JUFBIX_clean_sbu_0, # of connection points: 6
#     Node 17, Type 0, BuildingBlock: JUFBIX_clean_sbu_0, # of connection points: 6
#     Node 18, Type 0, BuildingBlock: JUFBIX_clean_sbu_0, # of connection points: 6
#     Node 19, Type 0, BuildingBlock: JUFBIX_clean_sbu_0, # of connection points: 6
#     Node 20, Type 0, BuildingBlock: JUFBIX_clean_sbu_0, # of connection points: 6
#     Node 21, Type 0, BuildingBlock: JUFBIX_clean_sbu_0, # of connection points: 6
#     Node 22, Type 0, BuildingBlock: JUFBIX_clean_sbu_0, # of connection points: 6
#     Node 23, Type 0, BuildingBlock: JUFBIX_clean_sbu_0, # of connection points: 6
#     Node 24, Type 0, BuildingBlock: JUFBIX_clean_sbu_0, # of connection points: 6
#     Node 25, Type 0, BuildingBlock: JUFBIX_clean_sbu_0, # of connection points: 6
#     Node 26, Type 0, BuildingBlock: JUFBIX_clean_sbu_0, # of connection points: 6
#     Node 27, Type 0, BuildingBlock: JUFBIX_clean_sbu_0, # of connection points: 6
#     Node 28, Type 0, BuildingBlock: JUFBIX_clean_sbu_0, # of connection points: 6
#     Node 29, Type 0, BuildingBlock: JUFBIX_clean_sbu_0, # of connection points: 6
#     Node 30, Type 0, BuildingBlock: JUFBIX_clean_sbu_0, # of connection points: 6
#     Node 31, Type 0, BuildingBlock: JUFBIX_clean_sbu_0, # of connection points: 6
#     Node 32, Type 0, BuildingBlock: JUFBIX_clean_sbu_0, # of connection points: 6
#     Node 33, Type 0, BuildingBlock: JUFBIX_clean_sbu_0, # of connection points: 6
#     Node 34, Type 0, BuildingBlock: JUFBIX_clean_sbu_0, # of connection points: 6
#     Node 35, Type 0, BuildingBlock: JUFBIX_clean_sbu_0, # of connection points: 6
#     Node 36, Type 0, BuildingBlock: JUFBIX_clean_sbu_0, # of connection points: 6
#     Node 37, Type 0, BuildingBlock: JUFBIX_clean_sbu_0, # of connection points: 6
#     Node 38, Type 0, BuildingBlock: JUFBIX_clean_sbu_0, # of connection points: 6
#     Node 39, Type 0, BuildingBlock: JUFBIX_clean_sbu_0, # of connection points: 6
#     Node 40, Type 0, BuildingBlock: JUFBIX_clean_sbu_0, # of connection points: 6
#     Node 41, Type 0, BuildingBlock: JUFBIX_clean_sbu_0, # of connection points: 6
#     Node 42, Type 0, BuildingBlock: JUFBIX_clean_sbu_0, # of connection points: 6
#     Node 43, Type 0, BuildingBlock: JUFBIX_clean_sbu_0, # of connection points: 6
#     Node 44, Type 0, BuildingBlock: JUFBIX_clean_sbu_0, # of connection points: 6
#     Node 45, Type 0, BuildingBlock: JUFBIX_clean_sbu_0, # of connection points: 6
#     Node 46, Type 0, BuildingBlock: JUFBIX_clean_sbu_0, # of connection points: 6
#     Node 47, Type 0, BuildingBlock: JUFBIX_clean_sbu_0, # of connection points: 6
#     Edge 48, Type (0, 0), None
#     Edge 49, Type (0, 0), None
#     Edge 50, Type (0, 0), None
#     Edge 51, Type (0, 0), None
#     Edge 52, Type (0, 0), None
#     Edge 53, Type (0, 0), None
#     Edge 54, Type (0, 0), None
#     Edge 55, Type (0, 0), None
#     Edge 56, Type (0, 0), None
#     Edge 57, Type (0, 0), None
#     Edge 58, Type (0, 0), None
#     Edge 59, Type (0, 0), None
#     Edge 60, Type (0, 0), None
#     Edge 61, Type (0, 0), None
#     Edge 62, Type (0, 0), None
#     Edge 63, Type (0, 0), None
#     Edge 64, Type (0, 0), None
#     Edge 65, Type (0, 0), None
#     Edge 66, Type (0, 0), None
#     Edge 67, Type (0, 0), None
#     Edge 68, Type (0, 0), None
#     Edge 69, Type (0, 0), None
#     Edge 70, Type (0, 0), None
#     Edge 71, Type (0, 0), None
#     Edge 72, Type (0, 0), None
#     Edge 73, Type (0, 0), None
#     Edge 74, Type (0, 0), None
#     Edge 75, Type (0, 0), None
#     Edge 76, Type (0, 0), None
#     Edge 77, Type (0, 0), None
#     Edge 78, Type (0, 0), None
#     Edge 79, Type (0, 0), None
#     Edge 80, Type (0, 0), None
#     Edge 81, Type (0, 0), None
#     Edge 82, Type (0, 0), None
#     Edge 83, Type (0, 0), None
#     Edge 84, Type (0, 0), None
#     Edge 85, Type (0, 0), None
#     Edge 86, Type (0, 0), None
#     Edge 87, Type (0, 0), None
#     Edge 88, Type (0, 0), None
#     Edge 89, Type (0, 0), None
#     Edge 90, Type (0, 0), None
#     Edge 91, Type (0, 0), None
#     Edge 92, Type (0, 0), None
#     Edge 93, Type (0, 0), None
#     Edge 94, Type (0, 0), None
#     Edge 95, Type (0, 0), None
#     Edge 96, Type (0, 0), None
#     Edge 97, Type (0, 0), None
#     Edge 98, Type (0, 0), None
#     Edge 99, Type (0, 0), None
#     Edge 100, Type (0, 0), None
#     Edge 101, Type (0, 0), None
#     Edge 102, Type (0, 0), None
#     Edge 103, Type (0, 0), None
#     Edge 104, Type (0, 0), None
#     Edge 105, Type (0, 0), None
#     Edge 106, Type (0, 0), None
#     Edge 107, Type (0, 0), None
#     Edge 108, Type (0, 0), None
#     Edge 109, Type (0, 0), None
#     Edge 110, Type (0, 0), None
#     Edge 111, Type (0, 0), None
#     Edge 112, Type (0, 0), None
#     Edge 113, Type (0, 0), None
#     Edge 114, Type (0, 0), None
#     Edge 115, Type (0, 0), None
#     Edge 116, Type (0, 0), None
#     Edge 117, Type (0, 0), None
#     Edge 118, Type (0, 0), None
#     Edge 119, Type (0, 0), None
#     Edge 120, Type (0, 0), None
#     Edge 121, Type (0, 0), None
#     Edge 122, Type (0, 0), None
#     Edge 123, Type (0, 0), None
#     Edge 124, Type (0, 0), None
#     Edge 125, Type (0, 0), None
#     Edge 126, Type (0, 0), None
#     Edge 127, Type (0, 0), None
#     Edge 128, Type (0, 0), None
#     Edge 129, Type (0, 0), None
#     Edge 130, Type (0, 0), None
#     Edge 131, Type (0, 0), None
#     Edge 132, Type (0, 0), None
#     Edge 133, Type (0, 0), None
#     Edge 134, Type (0, 0), None
#     Edge 135, Type (0, 0), None
#     Edge 136, Type (0, 0), None
#     Edge 137, Type (0, 0), None
#     Edge 138, Type (0, 0), None
#     Edge 139, Type (0, 0), None
#     Edge 140, Type (0, 0), None
#     Edge 141, Type (0, 0), None
#     Edge 142, Type (0, 0), None
#     Edge 143, Type (0, 0), None
#     Edge 144, Type (0, 0), None
#     Edge 145, Type (0, 0), None
#     Edge 146, Type (0, 0), None
#     Edge 147, Type (0, 0), None
#     Edge 148, Type (0, 0), None
#     Edge 149, Type (0, 0), None
#     Edge 150, Type (0, 0), None
#     Edge 151, Type (0, 0), None
#     Edge 152, Type (0, 0), None
#     Edge 153, Type (0, 0), None
#     Edge 154, Type (0, 0), None
#     Edge 155, Type (0, 0), None
#     Edge 156, Type (0, 0), None
#     Edge 157, Type (0, 0), None
#     Edge 158, Type (0, 0), None
#     Edge 159, Type (0, 0), None
#     Edge 160, Type (0, 0), None
#     Edge 161, Type (0, 0), None
#     Edge 162, Type (0, 0), None
#     Edge 163, Type (0, 0), None
#     Edge 164, Type (0, 0), None
#     Edge 165, Type (0, 0), None
#     Edge 166, Type (0, 0), None
#     Edge 167, Type (0, 0), None
#     Edge 168, Type (0, 0), None
#     Edge 169, Type (0, 0), None
#     Edge 170, Type (0, 0), None
#     Edge 171, Type (0, 0), None
#     Edge 172, Type (0, 0), None
#     Edge 173, Type (0, 0), None
#     Edge 174, Type (0, 0), None
#     Edge 175, Type (0, 0), None
#     Edge 176, Type (0, 0), None
#     Edge 177, Type (0, 0), None
#     Edge 178, Type (0, 0), None
#     Edge 179, Type (0, 0), None
#     Edge 180, Type (0, 0), None
#     Edge 181, Type (0, 0), None
#     Edge 182, Type (0, 0), None
#     Edge 183, Type (0, 0), None
#     Edge 184, Type (0, 0), None
#     Edge 185, Type (0, 0), None
#     Edge 186, Type (0, 0), None
#     Edge 187, Type (0, 0), None
#     Edge 188, Type (0, 0), None
#     Edge 189, Type (0, 0), None
#     Edge 190, Type (0, 0), None
#     Edge 191, Type (0, 0), None
# Relax obj value: 1.346
# Max RMSD: 0.242
# Mean RMSD: 0.191
data_MOF--net-twf-e--node1-JUFBIX_clean_sbu_0--edge1-none
_symmetry_space_group_name_H-M    P1
_symmetry_Int_Tables_number       1
_symmetry_cell_setting            triclinic
loop_
_symmetry_equiv_pos_as_xyz
'x, y, z'
_cell_length_a     28.711574
_cell_length_b     28.765354
_cell_length_c     28.986865
_cell_angle_alpha  84.863223
_cell_angle_beta   90.292243
_cell_angle_gamma 91.998117
loop_
_atom_site_label
_atom_site_type_symbol
_atom_site_fract_x
_atom_site_fract_y
_atom_site_fract_z
_atom_type_partial_charge
Co0 Co 0.10163 0.33789 0.50154 0.0
C1 C 0.11886 0.34653 0.40186 0.0
Co2 Co 0.13691 0.27631 0.49852 0.0
C3 C 1.05798 0.37595 0.51725 0.0
C4 C 1.07267 0.43544 0.47275 0.0
N5 N 0.09222 0.40415 0.50371 0.0
N6 N 1.0173 0.38653 0.49838 0.0
C7 C 1.02646 0.42353 0.46785 0.0
H8 H 1.05891 0.35732 0.54988 0.0
H9 H 0.08659 0.47071 0.46602 0.0
C10 C 0.12809 0.29349 0.60943 0.0
N11 N 0.16326 0.22211 0.47919 0.0
C12 C 0.20148 0.19733 0.49021 0.0
C13 C 0.14681 0.20386 0.44046 0.0
N14 N 0.20843 0.16431 0.46043 0.0
C15 C 0.17392 0.16811 0.42936 0.0
C16 C 0.19719 0.34258 0.50308 0.0
O17 O 0.11698 0.3282 0.58054 0.0
O18 O 0.13564 0.25844 0.58265 0.0
O19 O 0.19425 0.29924 0.5068 0.0
O20 O 0.16112 0.36513 0.49357 0.0
O21 O 0.14328 0.31145 0.42132 0.0
H22 H 0.1177 0.21703 0.42004 0.0
H23 H 0.22373 0.20328 0.51938 0.0
O24 O 0.08861 0.35586 0.43092 0.0
O25 O 1.0331 0.29565 0.50623 0.0
O26 O 1.07655 0.2414 0.4892 0.0
C27 C 1.03538 0.25323 0.49568 0.0
H28 H 1.00038 0.447 0.45411 0.0
H29 H 0.17039 0.14859 0.39921 0.0
Co30 Co 0.95698 0.1213 0.50826 0.0
C31 C 0.94154 0.14885 0.60614 0.0
Co32 Co 0.90039 0.16343 0.50969 0.0
C33 C 1.02739 0.09075 0.46439 0.0
C34 C 1.04393 0.09687 0.53492 0.0
N35 N 1.00813 0.08728 0.50649 0.0
N36 N 1.07228 0.10639 0.46427 0.0
C37 C 0.08228 0.11135 0.50911 0.0
H38 H 1.00847 0.08302 0.43355 0.0
H39 H 1.04246 0.09466 0.57227 0.0
C40 C 0.88756 0.11792 0.41881 0.0
N41 N 0.88276 0.19748 0.44391 0.0
C42 C 0.85035 0.231 0.44623 0.0
C43 C 0.91664 0.22648 0.42083 0.0
N44 N 0.87148 0.27146 0.45532 0.0
C45 C 0.90894 0.27193 0.42772 0.0
C46 C 0.99435 0.21499 0.49373 0.0
O47 O 0.92579 0.09851 0.43624 0.0
O48 O 0.87888 0.1519 0.44265 0.0
O49 O 0.95288 0.21842 0.507 0.0
O50 O 1.00078 0.17486 0.48111 0.0
O51 O 0.90648 0.15588 0.58058 0.0
H52 H 0.94991 0.21445 0.41032 0.0
H53 H 0.81694 0.22088 0.46191 0.0
O54 O 0.97606 0.13774 0.58111 0.0
O55 O 0.92463 0.07077 0.53576 0.0
O56 O 0.85904 0.10631 0.51996 0.0
C57 C 0.88104 0.07016 0.53778 0.0
H58 H 0.11685 0.11804 0.52268 0.0
H59 H 0.93611 0.29909 0.42521 0.0
Co60 Co 0.10189 0.88223 0.47632 0.0
C61 C 0.10408 0.87769 0.37972 0.0
Co62 Co 0.10777 0.9545 0.46011 0.0
C63 C 0.14448 0.82787 0.53542 0.0
C64 C 0.14741 0.7984 0.47351 0.0
N65 N 0.117 0.81941 0.5 0.0
N66 N 0.1896 0.83408 0.5233 0.0
C67 C 0.19221 0.81141 0.48499 0.0
H68 H 0.13013 0.84073 0.56443 0.0
H69 H 0.13821 0.78457 0.44133 0.0
C70 C 0.09649 0.94935 0.571 0.0
N71 N 0.10904 1.0129 0.43228 0.0
C72 C 0.12354 1.04964 0.45347 0.0
C73 C 0.09109 1.03019 0.39167 0.0
N74 N 0.10413 0.08848 0.43478 0.0
C75 C 0.09004 0.07775 0.39225 0.0
C76 C 1.02135 0.9137 0.46707 0.0
O77 O 0.10262 0.90968 0.55215 0.0
O78 O 0.09035 0.97977 0.53477 0.0
O79 O 1.04378 0.94704 0.44441 0.0
O80 O 1.03973 0.87352 0.47253 0.0
O81 O 0.11213 0.92281 0.38439 0.0
H82 H 1.07423 1.00951 0.3666 0.0
H83 H 0.13523 1.04596 0.48897 0.0
O84 O 0.09855 0.85522 0.41797 0.0
O85 O 0.16452 0.89824 0.46553 0.0
O86 O 0.1421 0.94375 0.40911 0.0
C87 C 0.17612 0.93144 0.43616 0.0
H88 H 0.22145 0.81362 0.46161 0.0
H89 H 1.06885 0.09988 0.36909 0.0
Co90 Co 0.33753 0.11128 0.49167 0.0
C91 C 0.35029 0.07393 0.39904 0.0
Co92 Co 0.29114 1.06143 0.47658 0.0
C93 C 0.34408 0.20023 0.50063 0.0
C94 C 0.36065 0.19165 0.43259 0.0
N95 N 0.36566 0.17052 0.47661 0.0
N96 N 0.31694 0.23036 0.47466 0.0
C97 C 0.32987 0.22707 0.43106 0.0
H98 H 0.33853 0.19312 0.53677 0.0
H99 H 0.37624 0.18042 0.40177 0.0
C100 C 0.29152 0.10034 0.57915 0.0
N101 N 0.2525 1.01456 0.47759 0.0
C102 C 0.23768 0.98992 0.44253 0.0
C103 C 0.22188 1.00533 0.51202 0.0
N104 N 0.19902 0.96573 0.45526 0.0
C105 C 0.18935 0.9766 0.49761 0.0
C106 C 0.37501 1.03454 0.51337 0.0
O107 O 0.32918 0.1174 0.56075 0.0
O108 O 0.2668 0.07849 0.54915 0.0
O109 O 0.33319 1.02431 0.50511 0.0
O110 O 0.39036 0.07688 0.50584 0.0
O111 O 0.31961 1.04267 0.4122 0.0
H112 H 0.22263 1.01555 0.54664 0.0
H113 H 0.25389 0.98978 0.409 0.0
O114 O 0.35306 0.10519 0.42653 0.0
O115 O 0.28065 0.14389 0.48195 0.0
O116 O 0.24188 0.09634 0.44437 0.0
C117 C 0.24431 0.13484 0.461 0.0
H118 H 0.31935 0.2495 0.40113 0.0
H119 H 0.16255 0.96121 0.51806 0.0
Co120 Co 0.08957 0.97289 0.74304 0.0
C121 C 0.09842 0.95571 0.63216 0.0
Co122 Co 0.12487 0.91132 0.74004 0.0
C123 C 1.02502 1.05191 0.75135 0.0
C124 C 1.07966 1.04531 0.80112 0.0
N125 N 1.06322 1.02709 0.76238 0.0
N126 N 1.0181 0.08493 0.78114 0.0
C127 C 1.05258 0.08108 0.81223 0.0
H128 H 1.00279 1.046 0.72216 0.0
H129 H 0.10876 1.03211 0.82154 0.0
C130 C 0.10762 0.90266 0.83971 0.0
N131 N 0.13425 0.84507 0.73786 0.0
C132 C 0.16853 0.87323 0.72434 0.0
C133 C 0.15375 0.81376 0.76883 0.0
N134 N 0.20918 0.8626 0.74323 0.0
C135 C 0.19997 0.8256 0.77375 0.0
C136 C 0.19111 0.99597 0.7459 0.0
O137 O 0.08318 0.93772 0.82023 0.0
O138 O 0.13789 0.89336 0.81066 0.0
O139 O 0.1934 0.95354 0.73535 0.0
O140 O 0.14994 1.00779 0.75238 0.0
O141 O 0.10953 0.921 0.66105 0.0
H142 H 0.13979 0.77849 0.77553 0.0
H143 H 0.16762 0.89188 0.69171 0.0
O144 O 0.09086 0.99076 0.65893 0.0
O145 O 1.03223 0.94994 0.73472 0.0
O146 O 1.06539 0.88409 0.74802 0.0
C147 C 1.02931 0.90661 0.73848 0.0
H148 H 1.05612 0.10058 0.84238 0.0
H149 H 0.22602 0.80209 0.78748 0.0
Co150 Co 0.32613 0.08576 0.7319 0.0
C151 C 0.33895 0.13123 0.82282 0.0
Co152 Co 0.26953 0.1279 0.73337 0.0
C153 C 0.37613 1.01815 0.79534 0.0
C154 C 0.30985 1.0227 0.82076 0.0
N155 N 0.34374 1.05168 0.79768 0.0
N156 N 0.35499 0.97771 0.78625 0.0
C157 C 0.31753 0.97724 0.81386 0.0
H158 H 0.40954 1.02827 0.77966 0.0
H159 H 0.27659 1.03474 0.83127 0.0
C160 C 0.28497 0.10041 0.63547 0.0
N161 N 0.21839 0.16192 0.73515 0.0
C162 C 0.19914 0.15844 0.77725 0.0
C163 C 0.18259 0.15233 0.70673 0.0
N164 N 0.15425 0.14278 0.77738 0.0
C165 C 0.14425 0.13783 0.73254 0.0
C166 C 0.3455 0.17906 0.70387 0.0
O167 O 0.32004 0.09333 0.66102 0.0
O168 O 0.25046 0.11149 0.66052 0.0
O169 O 0.30191 0.17844 0.7059 0.0
O170 O 0.36749 0.14289 0.72166 0.0
O171 O 0.30071 0.15064 0.8054 0.0
H172 H 0.18405 0.15455 0.66938 0.0
H173 H 0.21806 0.16619 0.80809 0.0
O174 O 0.34763 0.09727 0.79895 0.0
O175 O 0.27361 1.03079 0.73458 0.0
O176 O 0.22572 0.07432 0.76049 0.0
C177 C 0.23214 1.03421 0.74786 0.0
H178 H 0.29035 0.9501 0.81638 0.0
H179 H 0.10968 0.13113 0.71898 0.0
Co180 Co 0.11877 0.2947 0.78151 0.0
C181 C 0.13002 0.29984 0.6706 0.0
Co182 Co 0.12465 0.36695 0.76527 0.0
C183 C 0.10301 0.19955 0.78817 0.0
C184 C 0.13547 0.21901 0.84996 0.0
N185 N 0.11752 0.23629 0.80935 0.0
N186 N 0.12241 0.16071 0.80687 0.0
C187 C 0.1365 0.17144 0.84939 0.0
H188 H 0.09131 0.20322 0.75267 0.0
H189 H 0.15233 0.23969 0.87502 0.0
C190 C 0.1225 0.3715 0.86189 0.0
N191 N 0.1095 0.42977 0.74162 0.0
C192 C 0.082 0.4213 0.70621 0.0
C193 C 1.07909 0.45076 0.76813 0.0
N194 N 1.03689 0.41506 0.71836 0.0
C195 C 1.03429 0.43774 0.75667 0.0
C196 C 1.05042 0.31775 0.80549 0.0
O197 O 0.11444 0.32638 0.85723 0.0
O198 O 0.12803 0.39397 0.82364 0.0
O199 O 1.06202 0.35094 0.77611 0.0
O200 O 0.08445 0.30544 0.83253 0.0
O201 O 0.12389 0.33951 0.68944 0.0
H202 H 0.0883 0.46458 0.8003 0.0
H203 H 0.09635 0.40844 0.67721 0.0
O204 O 0.13619 0.26942 0.70682 0.0
O205 O 0.18276 0.30219 0.79721 0.0
O206 O 0.18681 0.37567 0.76899 0.0
C207 C 0.20519 0.33549 0.7745 0.0
H208 H 0.15768 0.14931 0.87257 0.0
H209 H 1.00506 0.43551 0.78007 0.0
Co210 Co 0.93537 0.1878 0.76505 0.0
C211 C 0.93496 0.14893 0.66245 0.0
Co212 Co 0.88897 0.13798 0.74993 0.0
C213 C 0.98882 0.25932 0.7991 0.0
C214 C 1.00465 0.24387 0.72964 0.0
N215 N 0.974 0.23468 0.76404 0.0
N216 N 1.02752 0.28345 0.7864 0.0
C217 C 1.0372 0.27256 0.74407 0.0
H218 H 0.97257 0.2595 0.83261 0.0
H219 H 1.00393 0.23363 0.69502 0.0
C220 C 0.87622 0.17528 0.84259 0.0
N221 N 0.86086 0.07873 0.76502 0.0
C222 C 0.88248 1.04905 0.74101 0.0
C223 C 0.86589 1.05762 0.80904 0.0
N224 N 0.90966 1.01895 0.76699 0.0
C225 C 0.89672 1.02225 0.81058 0.0
C226 C 0.98223 0.11442 0.78058 0.0
O227 O 0.90692 0.20654 0.82946 0.0
O228 O 0.87344 0.14407 0.81506 0.0
O229 O 0.94589 0.10539 0.75963 0.0
O230 O 0.98465 0.1529 0.79725 0.0
O231 O 0.89731 0.13185 0.68085 0.0
H232 H 0.85026 0.06883 0.83985 0.0
H233 H 0.88799 1.05615 0.70486 0.0
O234 O 0.95969 0.17076 0.69246 0.0
O235 O 0.89329 0.22492 0.73654 0.0
O236 O 0.83614 0.17234 0.73577 0.0
C237 C 0.85148 0.21467 0.72826 0.0
H238 H 1.06401 0.28794 0.72363 0.0
H239 H 0.90726 0.99983 0.84051 0.0
Co240 Co 0.47612 1.0591 0.2995 0.0
C241 C 0.58575 0.079 0.30568 0.0
Co242 Co 0.48871 0.08676 0.35865 0.0
C243 C 0.46609 1.01829 0.21472 0.0
C244 C 0.42528 0.98517 0.27094 0.0
N245 N 0.45561 1.02139 0.25883 0.0
N246 N 0.44523 0.97987 0.20025 0.0
C247 C 0.41847 0.95971 0.2345 0.0
H248 H 0.49213 1.04032 0.19568 0.0
H249 H 0.41231 0.97468 0.30532 0.0
C250 C 0.39243 0.07439 0.36378 0.0
N251 N 0.50246 0.09707 0.42568 0.0
C252 C 0.50554 0.13309 0.39614 0.0
C253 C 0.47656 0.11246 0.45993 0.0
N254 N 0.4777 0.16742 0.40436 0.0
C255 C 0.46186 0.15681 0.44716 0.0
C256 C 0.47463 0.14639 0.27367 0.0
O257 O 0.40469 1.04733 0.33297 0.0
O258 O 0.42458 0.10248 0.37184 0.0
O259 O 0.49393 0.14183 0.31266 0.0
O260 O 0.45359 0.1114 0.25985 0.0
O261 O 0.56384 0.07731 0.34492 0.0
H262 H 0.47783 0.09726 0.49541 0.0
H263 H 0.5348 0.13697 0.3741 0.0
O264 O 0.5536 0.0725 0.27333 0.0
O265 O 0.49838 1.00588 0.3299 0.0
O266 O 0.47611 1.03122 0.39172 0.0
C267 C 0.49408 0.9998 0.37241 0.0
H268 H 0.39821 0.92729 0.23399 0.0
H269 H 0.44918 0.18153 0.46951 0.0
Co270 Co 0.16253 0.48376 0.34278 0.0
C271 C 0.13321 0.38748 0.35762 0.0
Co272 Co 0.12157 0.48344 0.28583 0.0
C273 C 0.2148 0.52544 0.39187 0.0
C274 C 0.24929 0.46526 0.37814 0.0
N275 N 0.20753 0.4813 0.38947 0.0
N276 N 0.25175 0.54087 0.36676 0.0
C277 C 0.27583 0.50283 0.36013 0.0
H278 H 0.18547 0.54544 0.39869 0.0
H279 H 0.25443 0.43003 0.36934 0.0
C280 C 0.13802 0.59222 0.29414 0.0
N281 N 1.07472 0.48055 0.24238 0.0
C282 C 1.02915 0.4693 0.25007 0.0
C283 C 1.07342 0.52053 0.21479 0.0
N284 N 1.00075 0.50292 0.23172 0.0
C285 C 1.02973 0.53697 0.21311 0.0
C286 C 1.07687 0.49264 0.36429 0.0
O287 O 0.15022 0.56356 0.32987 0.0
O288 O 0.13077 0.56416 0.26214 0.0
O289 O 1.07902 0.49765 0.32152 0.0
O290 O 0.11392 0.48439 0.38706 0.0
O291 O 0.1077 0.40708 0.32285 0.0
H292 H 0.10302 0.53713 0.19623 0.0
H293 H 1.01685 0.43771 0.27011 0.0
O294 O 0.16843 0.41399 0.36287 0.0
O295 O 0.21572 0.48486 0.29176 0.0
O296 O 0.16708 0.46658 0.23976 0.0
C297 C 0.20938 0.47463 0.24994 0.0
H298 H 0.30251 0.50027 0.33485 0.0
H299 H 1.01944 0.56747 0.19129 0.0
Co300 Co 0.74634 0.12672 0.35193 0.0
C301 C 0.84902 0.11198 0.37552 0.0
Co302 Co 0.75322 1.06659 0.31373 0.0
C303 C 0.68782 0.18985 0.37377 0.0
C304 C 0.75683 0.21548 0.38042 0.0
N305 N 0.73077 0.17533 0.38376 0.0
N306 N 0.68547 0.23581 0.36032 0.0
C307 C 0.72923 0.25201 0.36737 0.0
H308 H 0.65734 0.16818 0.38314 0.0
H309 H 0.79417 0.21836 0.37923 0.0
C310 C 0.64625 0.09038 0.30291 0.0
N311 N 0.77486 1.02706 0.26749 0.0
C312 C 0.74953 1.00346 0.23632 0.0
C313 C 0.8184 1.02951 0.24951 0.0
N314 N 0.77531 0.99245 0.19986 0.0
C315 C 0.81855 1.00928 0.20794 0.0
C316 C 0.76528 1.04322 0.38597 0.0
O317 O 0.66827 0.11348 0.33386 0.0
O318 O 0.67875 0.07011 0.28004 0.0
O319 O 0.79786 1.05034 0.3542 0.0
O320 O 0.75183 0.08031 0.40368 0.0
O321 O 0.83501 0.07473 0.35288 0.0
H322 H 0.84761 1.04829 0.26371 0.0
H323 H 0.71209 0.99843 0.23769 0.0
O324 O 0.81668 0.14216 0.37099 0.0
O325 O 0.74678 0.16842 0.30273 0.0
O326 O 0.78098 0.11345 0.2717 0.0
C327 C 0.76942 0.15516 0.27026 0.0
H328 H 0.7401 0.28856 0.36595 0.0
H329 H 0.84822 1.00721 0.18538 0.0
Co330 Co 0.09783 0.7456 0.33143 0.0
C331 C 0.10693 0.84749 0.33754 0.0
Co332 Co 0.14017 0.7728 0.28556 0.0
C333 C 1.03811 0.71839 0.36944 0.0
C334 C 1.04075 0.77297 0.41049 0.0
N335 N 1.06839 0.74247 0.39108 0.0
N336 N 0.99584 0.73476 0.36662 0.0
C337 C 0.99616 0.77012 0.39339 0.0
H338 H 1.04738 0.68964 0.35199 0.0
H339 H 1.04997 0.78973 0.44105 0.0
C340 C 0.12988 0.6537 0.29385 0.0
N341 N 0.16101 0.80416 0.23314 0.0
C342 C 0.13658 0.7997 0.19476 0.0
C343 C 0.17811 0.84857 0.22802 0.0
N344 N 0.14193 0.83614 0.16238 0.0
C345 C 0.16407 0.86915 0.18587 0.0
C346 C 0.19317 0.76433 0.34531 0.0
O347 O 0.11448 0.67066 0.33012 0.0
O348 O 0.13918 0.69136 0.26317 0.0
O349 O 0.1959 0.76473 0.30243 0.0
O350 O 0.15358 0.75776 0.36494 0.0
O351 O 0.14383 0.83929 0.31585 0.0
H352 H 0.19825 0.86561 0.25368 0.0
H353 H 0.11707 0.76763 0.18943 0.0
O354 O 1.07831 0.81333 0.33768 0.0
O355 O 1.04172 0.73328 0.28682 0.0
O356 O 0.083 0.79067 0.26141 0.0
C357 C 1.0458 0.76906 0.26027 0.0
H358 H 0.96578 0.78705 0.40497 0.0
H359 H 0.17762 0.90242 0.17016 0.0
Co360 Co 0.47328 0.18256 0.92788 0.0
C361 C 0.58026 0.15874 0.93873 0.0
Co362 Co 0.48016 0.12239 0.88968 0.0
C363 C 0.47688 0.24583 1.0052 0.0
C364 C 0.40817 0.21909 0.99247 0.0
N365 N 0.45159 0.22201 0.97418 0.0
N366 N 0.45122 0.25647 1.04189 0.0
C367 C 0.40809 0.23918 1.03411 0.0
H368 H 0.51427 0.25118 1.00362 0.0
H369 H 0.37903 0.20004 0.97845 0.0
C370 C 0.37749 0.13714 0.86611 0.0
N371 N 0.49575 0.07383 0.8578 0.0
C372 C 0.5387 1.05933 0.8678 0.0
C373 C 0.46971 1.03367 0.86114 0.0
N374 N 0.54108 1.01338 0.88127 0.0
C375 C 0.49732 0.99716 0.87422 0.0
C376 C 0.45713 0.09391 0.97132 0.0
O377 O 0.39148 0.17439 0.88876 0.0
O378 O 0.40982 0.10696 0.87062 0.0
O379 O 0.47976 0.08064 0.93885 0.0
O380 O 0.44557 0.13562 0.96987 0.0
O381 O 0.55823 0.13566 0.90776 0.0
H382 H 0.43237 1.03077 0.8623 0.0
H383 H 0.56918 0.08102 0.85841 0.0
O384 O 0.54776 0.17905 0.96155 0.0
O385 O 0.42863 0.19879 0.88743 0.0
O386 O 0.47464 0.16882 0.83794 0.0
C387 C 0.46121 0.20591 0.85565 0.0
H388 H 0.37855 0.24087 1.05691 0.0
H389 H 0.48647 0.9606 0.87564 0.0
Co390 Co 0.08641 0.47638 0.95607 0.0
C391 C 0.0967 0.59548 0.94775 0.0
Co392 Co 0.12874 0.50358 0.91017 0.0
C393 C 0.09003 0.4495 1.04689 0.0
C394 C 1.04851 0.40062 1.01364 0.0
N395 N 1.06561 0.44503 1.0085 0.0
N396 N 0.08464 0.41307 0.07929 0.0
C397 C 1.06254 0.38005 1.0558 0.0
H398 H 0.10954 0.48157 1.05222 0.0
H399 H 1.02838 0.38357 0.98797 0.0
C400 C 0.11965 0.4017 0.90408 0.0
N401 N 0.15813 0.50664 0.85046 0.0
C402 C 0.18839 0.5307 0.87215 0.0
C403 C 0.18581 0.47615 0.83107 0.0
N404 N 0.23067 0.51434 0.87501 0.0
C405 C 0.23038 0.47899 0.84823 0.0
C406 C 0.1808 0.48012 0.98133 0.0
O407 O 0.08275 0.40989 0.92579 0.0
O408 O 0.14827 0.43586 0.90393 0.0
O409 O 0.18486 0.51591 0.95479 0.0
O410 O 0.14359 0.45852 0.98021 0.0
O411 O 0.11207 0.57852 0.91147 0.0
H412 H 0.17666 0.45947 0.80044 0.0
H413 H 0.1791 0.55945 0.88957 0.0
O414 O 0.0874 0.55783 0.97844 0.0
O415 O 1.03067 0.48444 0.93922 0.0
O416 O 1.07296 0.4914 0.87669 0.0
C417 C 1.03339 0.48483 0.89635 0.0
H418 H 1.04897 0.34679 0.07151 0.0
H419 H 0.26077 0.46208 0.83666 0.0
Co420 Co 0.73781 0.16238 0.883 0.0
C421 C 0.83409 0.17477 0.87788 0.0
Co422 Co 0.75039 0.19003 0.94215 0.0
C423 C 0.72101 0.11609 0.84547 0.0
C424 C 0.74996 0.13676 0.78168 0.0
N425 N 0.72407 0.15213 0.81595 0.0
N426 N 0.74884 0.08176 0.83721 0.0
C427 C 0.76466 0.0924 0.79442 0.0
H428 H 0.69175 0.11219 0.86751 0.0
H429 H 0.74868 0.15198 0.74621 0.0
C430 C 0.64076 0.17014 0.93595 0.0
N431 N 0.7709 0.22774 0.98282 0.0
C432 C 0.76044 0.23084 1.02694 0.0
C433 C 0.80121 0.26397 0.9707 0.0
N434 N 0.78129 0.26927 1.04139 0.0
C435 C 0.80804 0.28942 1.00714 0.0
C436 C 0.73245 0.24935 0.86926 0.0
O437 O 0.66268 0.17183 0.89671 0.0
O438 O 0.6729 0.17663 0.9683 0.0
O439 O 0.72813 0.24325 0.91176 0.0
O440 O 0.75043 0.21793 0.84995 0.0
O441 O 0.82182 0.20182 0.90868 0.0
H442 H 0.81417 0.27446 0.93631 0.0
H443 H 0.7344 0.2088 1.04598 0.0
O444 O 0.80196 0.14667 0.86982 0.0
O445 O 0.73258 0.10729 0.92897 0.0
O446 O 0.77292 0.13771 0.98179 0.0
C447 C 0.75187 0.10273 0.96797 0.0
H448 H 0.77733 1.0677 0.77204 0.0
H449 H 0.82828 0.32186 1.00763 0.0
Co450 Co 0.10493 0.76575 0.95574 0.0
C451 C 0.08854 0.65697 0.94744 0.0
Co452 Co 1.06399 0.76541 0.89879 0.0
C453 C 0.19732 0.77991 0.99155 0.0
C454 C 0.15302 0.72872 1.02683 0.0
N455 N 0.15175 0.76868 0.99923 0.0
N456 N 0.22571 0.74627 1.0099 0.0
C457 C 0.1967 0.71225 1.02853 0.0
H458 H 0.20965 0.81148 0.9715 0.0
H459 H 0.1234 0.71213 1.04538 0.0
C460 C 0.09328 0.86171 0.88395 0.0
N461 N 1.01903 0.76785 0.85206 0.0
C462 C 1.01176 0.72371 0.84968 0.0
C463 C 0.97726 0.7839 0.86334 0.0
N464 N 0.9748 0.70829 0.87478 0.0
C465 C 0.95071 0.74634 0.88137 0.0
C466 C 1.01708 0.77452 0.9916 0.0
O467 O 0.11879 0.84211 0.91872 0.0
O468 O 1.05807 0.83518 0.8787 0.0
O469 O 1.01075 0.76428 0.94979 0.0
O470 O 1.05937 0.78259 1.00178 0.0
O471 O 1.07634 0.68562 0.91171 0.0
H472 H 0.9721 0.81913 0.87211 0.0
H473 H 1.04109 0.7037 0.84287 0.0
O474 O 0.09577 0.68503 0.97945 0.0
O475 O 0.14753 0.75156 0.92008 0.0
O476 O 0.11263 0.7648 0.85454 0.0
C477 C 0.14968 0.75656 0.87731 0.0
H478 H 0.20698 0.68175 1.05036 0.0
H479 H 0.92402 0.74892 0.90662 0.0
Co480 Co 0.28453 0.49938 0.12258 0.0
C481 C 0.29036 0.59608 0.13881 0.0
Co482 Co 0.33424 0.49912 0.15732 0.0
C483 C 0.23308 0.49858 1.04061 0.0
C484 C 0.23158 0.43255 0.08199 0.0
N485 N 0.24652 0.47742 0.08129 0.0
N486 N 0.20995 0.46845 1.01593 0.0
C487 C 0.20834 0.42699 1.04172 0.0
H488 H 0.23816 0.5356 1.03045 0.0
H489 H 0.23711 0.40593 0.11007 0.0
C490 C 0.34314 0.39265 0.15251 0.0
N491 N 0.38233 0.46983 0.19383 0.0
C492 C 0.42627 0.48316 0.20262 0.0
C493 C 0.3733 0.43717 0.22972 0.0
N494 N 0.43065 0.48079 0.2491 0.0
C495 C 0.40775 0.44021 0.26178 0.0
C496 C 0.24765 0.47753 0.21134 0.0
O497 O 0.32826 0.43185 0.12895 0.0
O498 O 0.32886 0.43178 0.13347 0.0
O499 O 0.29096 0.48601 0.21628 0.0
O500 O 0.23669 0.47592 0.16962 0.0
O501 O 0.3249 0.57368 0.16027 0.0
H502 H 0.34024 0.41874 0.23661 0.0
H503 H 0.44319 0.51113 0.18062 0.0
O504 O 0.2597 0.56803 0.12074 0.0
O505 O 0.31751 0.5256 1.07005 0.0
O506 O 0.37989 0.51809 0.10796 0.0
C507 C 0.35967 0.53382 0.07129 0.0
H508 H 0.18967 0.39561 1.03284 0.0
H509 H 0.40337 0.42592 0.29741 0.0
Co510 Co 0.27811 0.76245 0.12541 0.0
C511 C 0.29219 0.65365 0.12936 0.0
Co512 Co 0.33151 0.74333 0.10246 0.0
C513 C 0.206 0.82133 0.12184 0.0
C514 C 0.18142 0.75176 0.12093 0.0
N515 N 0.21922 0.77725 0.13196 0.0
N516 N 0.15951 0.82455 0.12 0.0
C517 C 0.14638 0.78182 0.1075 0.0
H518 H 0.22876 0.85153 0.1247 0.0
H519 H 0.17922 0.71416 0.12196 0.0
C520 C 0.33398 0.84694 0.10156 0.0
N521 N 0.38989 0.74133 0.07592 0.0
C522 C 0.37216 0.73752 1.03476 0.0
C523 C 0.42035 0.77758 1.06729 0.0
N524 N 0.37936 0.77432 1.00314 0.0
C525 C 0.41338 0.79841 1.02246 0.0
C526 C 0.26416 0.75563 1.03431 0.0
O527 O 0.30604 0.83274 0.13476 0.0
O528 O 0.33864 0.81358 0.07671 0.0
O529 O 0.29 0.72389 1.04846 0.0
O530 O 0.26157 0.78537 1.06192 0.0
O531 O 0.33175 0.67467 0.12516 0.0
H532 H 0.45129 0.7809 0.08807 0.0
H533 H 0.35629 0.70491 1.02773 0.0
O534 O 0.25857 0.68396 0.12332 0.0
O535 O 0.28875 0.74497 0.18645 0.0
O536 O 0.35939 0.75629 0.15761 0.0
C537 C 0.33229 0.74488 0.19202 0.0
H538 H 0.11034 0.77028 0.10373 0.0
H539 H 0.43694 0.8201 1.00135 0.0
Co540 Co 0.48112 0.30489 0.16454 0.0
C541 C 0.59038 0.31761 0.14394 0.0
Co542 Co 0.49057 0.36884 0.12273 0.0
C543 C 0.45729 0.21351 0.21819 0.0
C544 C 0.51647 0.25513 0.23692 0.0
N545 N 0.47698 0.25723 0.21139 0.0
N546 N 0.48466 0.18563 0.2461 0.0
C547 C 0.52336 0.21107 0.25329 0.0
H548 H 0.42464 0.2025 0.20304 0.0
H549 H 0.54225 0.28297 0.23991 0.0
C550 C 0.39291 0.36807 0.14576 0.0
N551 N 0.49652 0.4182 0.08096 0.0
C552 C 0.51069 0.40056 1.04458 0.0
C553 C 0.4767 0.45868 1.06535 0.0
N554 N 0.50039 0.42477 1.00528 0.0
C555 C 0.48096 0.46389 1.01733 0.0
C556 C 0.46514 0.28007 0.07901 0.0
O557 O 0.40746 0.32895 0.16815 0.0
O558 O 0.42422 0.38892 0.12078 0.0
O559 O 0.4751 0.32331 0.07392 0.0
O560 O 0.46345 0.26122 0.11996 0.0
O561 O 0.56831 0.35348 0.12409 0.0
H562 H 0.45786 0.48062 0.08658 0.0
H563 H 0.53193 0.37022 1.04801 0.0
O564 O 0.5586 0.28731 0.16046 0.0
O565 O 0.49496 0.34373 0.21003 0.0
O566 O 0.50075 0.40827 0.16602 0.0
C567 C 0.50063 0.38707 0.20572 0.0
H568 H 0.55452 0.19848 0.27074 0.0
H569 H 0.47008 0.49275 0.99366 0.0
Co570 Co 0.89496 0.50583 0.13914 0.0
C571 C 0.89252 0.40223 0.14006 0.0
Co572 Co 0.94838 0.48674 0.11621 0.0
C573 C 0.8543 0.51165 0.20681 0.0
C574 C 0.8061 0.47158 0.17429 0.0
N575 N 0.83656 0.50784 0.16565 0.0
N576 N 0.8471 0.47485 0.23843 0.0
C577 C 0.81306 0.45076 0.21912 0.0
H578 H 0.87016 0.54425 0.21384 0.0
H579 H 0.77514 0.46828 0.15353 0.0
C580 C 0.93427 0.59553 0.11225 0.0
N581 N 1.00728 0.47197 0.10964 0.0
C582 C 1.02052 0.42789 0.11975 0.0
C583 C 1.04506 0.49748 0.12067 0.0
N584 N 1.06701 0.4247 0.12163 0.0
C585 C 1.08011 0.46744 0.13412 0.0
C586 C 0.8942 0.50432 1.04959 0.0
O587 O 0.89471 0.57449 0.11644 0.0
O588 O 0.96789 0.56523 0.11831 0.0
O589 O 0.93774 0.50424 1.05516 0.0
O590 O 0.8671 0.49287 0.08398 0.0
O591 O 0.92046 0.41644 0.10686 0.0
H592 H 1.04724 0.53508 0.11966 0.0
H593 H 0.99777 0.39768 0.11687 0.0
O594 O 0.88784 0.4356 0.1649 0.0
O595 O 0.93646 0.52528 0.19316 0.0
O596 O 0.96492 0.46381 0.17969 0.0
C597 C 0.96231 0.49354 0.20731 0.0
H598 H 0.78948 0.42911 0.24024 0.0
H599 H 0.11615 0.479 0.13791 0.0
Co600 Co 0.736 0.88013 0.11885 0.0
C601 C 0.83362 0.88095 0.09585 0.0
Co602 Co 0.74536 0.94421 0.07716 0.0
C603 C 0.71584 0.84851 0.19698 0.0
C604 C 0.74981 0.79032 0.17631 0.0
N605 N 0.73001 0.83079 0.16064 0.0
N606 N 0.72615 0.82436 0.23632 0.0
C607 C 0.74556 0.7852 0.22433 0.0
H608 H 0.69466 0.87889 0.19351 0.0
H609 H 0.76863 0.76834 0.15513 0.0
C610 C 0.63614 0.93148 0.09771 0.0
N611 N 0.74954 0.99189 1.03032 0.0
C612 C 0.76921 1.03563 1.0235 0.0
C613 C 0.7101 0.99393 1.00471 0.0
N614 N 0.74187 1.06345 0.99551 0.0
C615 C 0.70321 1.03798 0.98828 0.0
C616 C 0.72586 0.86202 1.0359 0.0
O617 O 0.65825 0.89564 0.11758 0.0
O618 O 0.66789 0.96176 0.08113 0.0
O619 O 0.73164 0.90535 1.03164 0.0
O620 O 0.72564 0.84077 0.07558 0.0
O621 O 0.81908 0.9202 0.07369 0.0
H622 H 0.68435 0.96608 1.00171 0.0
H623 H 0.80181 1.04668 1.03871 0.0
O624 O 0.80229 0.8599 0.12065 0.0
O625 O 0.75172 0.92561 0.16767 0.0
O626 O 0.76284 0.9879 0.12179 0.0
C627 C 0.7614 0.96891 0.1627 0.0
H628 H 0.75643 0.75638 0.24805 0.0
H629 H 0.67205 1.05053 0.97081 0.0
Co630 Co 0.89222 0.75007 0.08433 0.0
C631 C 0.88363 0.85673 0.08935 0.0
Co632 Co 0.94202 0.74982 0.11903 0.0
C633 C 0.80023 0.76608 1.03904 0.0
C634 C 0.8532 0.81217 1.01209 0.0
N635 N 0.84413 0.77946 1.04793 0.0
N636 N 0.79593 0.76851 0.99256 0.0
C637 C 0.81884 0.8091 0.97994 0.0
H638 H 0.78331 0.73807 1.06098 0.0
H639 H 0.88627 0.8306 1.00527 0.0
C640 C 0.93607 0.65309 0.10285 0.0
N641 N 0.98013 0.77171 0.16027 0.0
C642 C 0.99354 0.75057 0.20097 0.0
C643 C 0.99512 0.81656 0.15952 0.0
N644 N 1.01669 0.78071 0.22563 0.0
C645 C 1.01835 0.82215 0.1998 0.0
C646 C 0.86687 0.71542 0.17039 0.0
O647 O 0.90151 0.6755 0.08143 0.0
O648 O 0.96679 0.68114 0.12084 0.0
O649 O 0.90904 0.72363 0.1716 0.0
O650 O 0.84663 0.73118 0.13374 0.0
O651 O 0.89852 0.81745 0.11276 0.0
H652 H 0.98961 0.84317 0.13143 0.0
H653 H 0.9884 0.71357 0.21118 0.0
O654 O 0.89773 0.81736 0.10806 0.0
O655 O 0.93548 0.76313 1.02531 0.0
O656 O 0.98981 0.77322 0.07193 0.0
C657 C 0.97881 0.7716 1.03022 0.0
H658 H 0.8233 0.8234 0.94432 0.0
H659 H 1.03704 0.85352 0.20866 0.0
Co660 Co 0.46754 0.94681 0.08159 0.0
C661 C 0.57541 0.93544 0.0945 0.0
Co662 Co 0.47299 0.88197 0.11443 0.0
C663 C 0.46623 1.02253 1.01573 0.0
C664 C 0.41404 1.02601 1.06764 0.0
N665 N 0.4478 0.99914 1.05291 0.0
N666 N 0.4459 1.06342 1.00689 0.0
C667 C 0.41344 1.06674 1.0394 0.0
H668 H 0.4956 1.01103 0.99706 0.0
H669 H 0.39275 1.0173 0.09808 0.0
C670 C 0.37949 0.8793 0.10552 0.0
N671 N 0.47948 0.82952 0.15938 0.0
C672 C 0.5183 0.84639 0.17635 0.0
C673 C 0.45053 0.82896 0.19672 0.0
N674 N 0.51104 0.87315 0.21094 0.0
C675 C 0.4695 0.8576 0.22849 0.0
C676 C 0.45685 0.95984 0.16295 0.0
O677 O 0.39048 0.92356 0.09354 0.0
O678 O 0.41421 0.85582 0.11272 0.0
O679 O 0.4518 0.91707 0.16147 0.0
O680 O 0.47483 0.98263 0.12977 0.0
O681 O 0.54824 0.90417 0.11541 0.0
H682 H 0.41485 0.8158 0.19721 0.0
H683 H 0.55067 0.84074 0.16076 0.0
O684 O 0.54752 0.96364 1.06987 0.0
O685 O 0.45943 0.91846 1.02961 0.0
O686 O 0.48514 0.85386 1.06427 0.0
C687 C 0.48143 0.88226 1.02757 0.0
H688 H 0.39097 0.09587 1.04196 0.0
H689 H 0.45232 0.87005 0.25785 0.0
Co690 Co 0.75354 0.36715 0.1272 0.0
C691 C 0.84703 0.36986 0.1361 0.0
Co692 Co 0.75898 0.30231 0.16006 0.0
C693 C 0.70819 0.40274 1.06532 0.0
C694 C 0.77595 0.42019 1.04492 0.0
N695 N 0.74702 0.41961 0.08228 0.0
N696 N 0.71544 0.37599 1.03073 0.0
C697 C 0.75698 0.39155 1.01316 0.0
H698 H 0.67582 0.40838 0.08093 0.0
H699 H 0.81163 0.43337 1.04442 0.0
C700 C 0.65111 0.31365 0.14715 0.0
N701 N 0.77874 0.24998 0.18872 0.0
C702 C 0.76031 0.22656 0.22588 0.0
C703 C 0.81252 0.22313 0.17398 0.0
N704 N 0.78064 0.18567 0.2347 0.0
C705 C 0.81311 0.18238 0.20219 0.0
C706 C 0.74507 0.36686 0.21407 0.0
O707 O 0.67828 0.34492 0.12623 0.0
O708 O 0.67901 0.28545 0.17179 0.0
O709 O 0.76707 0.33065 0.21206 0.0
O710 O 0.7414 0.39525 0.17737 0.0
O711 O 0.83604 0.32559 0.14811 0.0
H712 H 0.8338 0.23186 0.14354 0.0
H713 H 0.73095 0.23805 0.24456 0.0
O714 O 0.8123 0.39332 0.1289 0.0
O715 O 0.77472 0.33208 0.08016 0.0
O716 O 0.75171 0.26652 0.11188 0.0
C717 C 0.76967 0.2893 0.07869 0.0
H718 H 0.77415 0.37911 0.9838 0.0
H719 H 0.83558 0.15324 0.19961 0.0
Co720 Co 0.60164 0.83789 1.00155 0.0
C721 C 0.61886 0.84653 0.90187 0.0
Co722 Co 0.63693 0.7763 0.99854 0.0
C723 C 0.55801 0.87596 1.01728 0.0
C724 C 0.57271 0.93546 0.97277 0.0
N725 N 0.59226 0.90415 1.00373 0.0
N726 N 0.51736 0.88661 0.99842 0.0
C727 C 0.52648 0.92359 0.96787 0.0
H728 H 0.55892 0.85732 1.0499 0.0
H729 H 0.58665 0.97073 0.96605 0.0
C730 C 0.62811 0.79349 0.10944 0.0
N731 N 0.66327 0.72209 0.97921 0.0
C732 C 0.70149 0.69732 0.99022 0.0
C733 C 0.64681 0.70383 0.94049 0.0
N734 N 0.70844 0.66429 0.96045 0.0
C735 C 0.67393 0.66808 0.92938 0.0
C736 C 0.6972 0.84255 1.00303 0.0
O737 O 0.61701 0.8282 0.08055 0.0
O738 O 0.63567 0.75845 0.08267 0.0
O739 O 0.69428 0.79922 1.0068 0.0
O740 O 0.66114 0.86512 0.99356 0.0
O741 O 0.64328 0.81145 0.92134 0.0
H742 H 0.61769 0.71699 0.92008 0.0
H743 H 0.72374 0.70327 1.01939 0.0
O744 O 0.58861 0.85586 0.93094 0.0
O745 O 0.53311 0.79567 1.00624 0.0
O746 O 0.57656 0.74141 0.98923 0.0
C747 C 0.53539 0.75324 0.9957 0.0
H748 H 0.50039 0.94706 0.95414 0.0
H749 H 0.67039 0.64856 0.89925 0.0
Co750 Co 0.45697 0.62132 1.00826 0.0
C751 C 0.44152 0.64887 0.10613 0.0
Co752 Co 0.40037 0.66345 1.00968 0.0
C753 C 0.52735 0.59077 0.96438 0.0
C754 C 0.54394 0.59693 1.03489 0.0
N755 N 0.50812 0.58731 1.00649 0.0
N756 N 0.57224 0.60643 0.96422 0.0
C757 C 0.58226 0.61141 1.00905 0.0
H758 H 0.50842 0.58299 0.93356 0.0
H759 H 0.54248 0.59475 0.07224 0.0
C760 C 0.38755 0.61794 0.91879 0.0
N761 N 0.38275 0.69751 0.94389 0.0
C762 C 0.35034 0.73102 0.94625 0.0
C763 C 0.41667 0.72651 0.92084 0.0
N764 N 0.37151 0.77145 0.9553 0.0
C765 C 0.40902 0.77197 0.92778 0.0
C766 C 0.49435 0.71501 0.99374 0.0
O767 O 0.42578 0.59853 0.93623 0.0
O768 O 0.37888 0.65193 0.94263 0.0
O769 O 0.45287 0.71843 1.007 0.0
O770 O 0.50077 0.67489 0.98111 0.0
O771 O 0.40646 0.6559 0.08056 0.0
H772 H 0.44993 0.71445 0.91033 0.0
H773 H 0.31694 0.7209 0.96195 0.0
O774 O 0.47604 0.63777 0.0811 0.0
O775 O 0.42462 0.57079 1.03574 0.0
O776 O 0.35903 0.60632 1.01994 0.0
C777 C 0.38104 0.57017 1.03776 0.0
H778 H 0.61684 0.61812 1.02259 0.0
H779 H 0.43621 0.79911 0.92532 0.0
Co780 Co 0.60191 0.38221 0.9763 0.0
C781 C 0.60405 0.37767 0.87971 0.0
Co782 Co 0.60771 0.45449 0.96009 0.0
C783 C 0.64458 0.32792 1.03539 0.0
C784 C 0.64755 0.29843 0.97348 0.0
N785 N 0.6171 0.3194 0.99998 0.0
N786 N 0.68966 0.33424 1.0232 0.0
C787 C 0.69234 0.31153 0.98493 0.0
H788 H 0.63021 0.34077 1.06439 0.0
H789 H 0.63836 0.28457 0.94132 0.0
C790 C 0.59646 0.44934 1.07098 0.0
N791 N 0.60893 0.5129 0.93226 0.0
C792 C 0.62346 0.54964 0.95343 0.0
C793 C 0.59098 0.53018 0.89165 0.0
N794 N 0.60407 0.58849 0.93473 0.0
C795 C 0.58996 0.57775 0.89221 0.0
C796 C 0.52133 0.41358 0.96701 0.0
O797 O 0.60262 0.40967 1.05213 0.0
O798 O 0.59029 0.47976 1.03476 0.0
O799 O 0.54372 0.44701 0.94444 0.0
O800 O 0.53977 0.37343 0.97254 0.0
O801 O 0.61203 0.4228 0.88437 0.0
H802 H 0.57411 0.5095 0.8666 0.0
H803 H 0.63516 0.54598 0.98893 0.0
O804 O 0.5986 0.35519 0.91796 0.0
O805 O 0.66452 0.3983 0.96547 0.0
O806 O 0.642 0.44378 0.90907 0.0
C807 C 0.67607 0.43152 0.93609 0.0
H808 H 0.72158 0.31379 0.96153 0.0
H809 H 0.56878 0.59988 0.86904 0.0
Co810 Co 0.83755 0.61126 0.99167 0.0
C811 C 0.8503 0.57391 0.89904 0.0
Co812 Co 0.79117 0.5614 0.97659 0.0
C813 C 0.84413 0.70022 1.00061 0.0
C814 C 0.86064 0.69162 0.93256 0.0
N815 N 0.86568 0.6705 0.97658 0.0
N816 N 0.81705 0.73038 0.97464 0.0
C817 C 0.82988 0.72706 0.93103 0.0
H818 H 0.83857 0.69311 1.03676 0.0
H819 H 0.8762 0.68037 0.90172 0.0
C820 C 0.79154 0.60032 0.07915 0.0
N821 N 0.75251 0.51453 0.97758 0.0
C822 C 0.73765 0.48994 0.9425 0.0
C823 C 0.72187 0.50533 1.01199 0.0
N824 N 0.69893 0.46583 0.95518 0.0
C825 C 0.68929 0.47667 0.99754 0.0
C826 C 0.87503 0.53453 1.01333 0.0
O827 O 0.82919 0.61741 1.06075 0.0
O828 O 0.76684 0.57844 1.04916 0.0
O829 O 0.83322 0.52425 1.00509 0.0
O830 O 0.89037 0.57687 1.00585 0.0
O831 O 0.81961 0.54265 0.91219 0.0
H832 H 0.72264 0.51552 1.04663 0.0
H833 H 0.7539 0.48977 0.90898 0.0
O834 O 0.85308 0.60515 0.92654 0.0
O835 O 0.78067 0.64389 0.98196 0.0
O836 O 0.74191 0.59632 0.94439 0.0
C837 C 0.74433 0.63483 0.96102 0.0
H838 H 0.81932 0.74948 0.9011 0.0
H839 H 0.6625 0.46126 1.018 0.0
Co840 Co 0.58955 0.4729 0.24301 0.0
C841 C 0.5984 0.4557 0.13214 0.0
Co842 Co 0.62486 0.41132 0.24003 0.0
C843 C 0.52501 0.55193 0.25134 0.0
C844 C 0.57967 0.54534 0.30109 0.0
N845 N 0.56321 0.52711 0.26236 0.0
N846 N 0.51808 0.58495 0.28112 0.0
C847 C 0.55258 0.58111 0.3122 0.0
H848 H 0.50278 0.54601 0.22215 0.0
H849 H 0.60877 0.53215 0.32151 0.0
C850 C 0.60763 0.40266 0.3397 0.0
N851 N 0.63421 0.34507 0.23784 0.0
C852 C 0.6685 0.37322 0.22431 0.0
C853 C 0.65372 0.31373 0.26881 0.0
N854 N 0.70913 0.36252 0.24319 0.0
C855 C 0.69996 0.32554 0.27372 0.0
C856 C 0.69111 0.49595 0.24588 0.0
O857 O 0.58318 0.43773 0.32022 0.0
O858 O 0.63789 0.39335 0.31064 0.0
O859 O 0.69339 0.45352 0.23534 0.0
O860 O 0.64993 0.50778 0.25235 0.0
O861 O 0.6095 0.421 0.16104 0.0
H862 H 0.63973 0.27848 0.27551 0.0
H863 H 0.66761 0.39189 0.19169 0.0
O864 O 0.59083 0.49075 0.15891 0.0
O865 O 0.53219 0.44997 0.23471 0.0
O866 O 0.56537 0.38409 0.24803 0.0
C867 C 0.52931 0.40663 0.23853 0.0
H868 H 0.55612 0.60062 0.34235 0.0
H869 H 0.726 0.30203 0.28745 0.0
Co870 Co 0.82614 0.58575 0.23192 0.0
C871 C 0.83896 0.63121 0.32283 0.0
Co872 Co 0.76954 0.62788 0.23337 0.0
C873 C 0.87615 0.51814 0.29532 0.0
C874 C 0.80982 0.52267 0.32075 0.0
N875 N 0.84375 0.55166 0.29769 0.0
N876 N 0.85495 0.47772 0.28627 0.0
C877 C 0.81745 0.47721 0.3138 0.0
H878 H 0.90954 0.52825 0.27962 0.0
H879 H 0.77657 0.53474 0.33126 0.0
C880 C 0.78499 0.60039 0.13548 0.0
N881 N 0.7184 0.6619 0.23515 0.0
C882 C 0.69918 0.65842 0.27727 0.0
C883 C 0.68258 0.65226 0.20676 0.0
N884 N 0.6543 0.64275 0.27744 0.0
C885 C 0.64427 0.63776 0.23261 0.0
C886 C 0.84551 0.67904 0.2039 0.0
O887 O 0.82006 0.59332 0.16103 0.0
O888 O 0.75048 0.61147 0.16052 0.0
O889 O 0.80191 0.67842 0.20591 0.0
O890 O 0.86751 0.64288 0.22168 0.0
O891 O 0.80073 0.65062 0.30541 0.0
H892 H 0.68402 0.65446 0.16941 0.0
H893 H 0.71811 0.66622 0.30808 0.0
O894 O 0.84763 0.59724 0.29897 0.0
O895 O 0.77362 0.53077 0.23458 0.0
O896 O 0.72573 0.5743 0.2605 0.0
C897 C 0.73214 0.53419 0.24785 0.0
H898 H 0.79025 0.45008 0.31626 0.0
H899 H 0.60969 0.63105 0.21907 0.0
Co900 Co 0.61884 0.7947 0.28152 0.0
C901 C 0.63004 0.79985 0.17062 0.0
Co902 Co 0.62463 0.86698 0.2653 0.0
C903 C 0.60309 0.69955 0.28821 0.0
C904 C 0.63558 0.71902 0.34998 0.0
N905 N 0.61764 0.7363 0.30936 0.0
N906 N 0.62247 0.6607 0.30692 0.0
C907 C 0.63658 0.67145 0.34944 0.0
H908 H 0.59139 0.70321 0.25271 0.0
H909 H 0.65245 0.73971 0.37503 0.0
C910 C 0.62253 0.87152 0.3619 0.0
N911 N 0.60939 0.92978 0.24164 0.0
C912 C 0.5819 0.92125 0.20625 0.0
C913 C 0.57895 0.95073 0.26816 0.0
N914 N 0.53682 0.91491 0.21845 0.0
C915 C 0.53415 0.93762 0.25673 0.0
C916 C 0.55047 0.81767 0.30556 0.0
O917 O 0.61453 0.82639 0.35725 0.0
O918 O 0.62799 0.894 0.32365 0.0
O919 O 0.56203 0.85088 0.27617 0.0
O920 O 0.58455 0.80541 0.33257 0.0
O921 O 0.62389 0.83952 0.18947 0.0
H922 H 0.58815 0.96459 0.30032 0.0
H923 H 0.59627 0.90839 0.17725 0.0
O924 O 0.63625 0.76944 0.20684 0.0
O925 O 0.68282 0.80221 0.29717 0.0
O926 O 0.68677 0.87577 0.26898 0.0
C927 C 0.70521 0.83561 0.27456 0.0
H928 H 0.65775 0.64932 0.37261 0.0
H929 H 0.50493 0.93535 0.28015 0.0
Co930 Co 0.43534 0.68784 0.26505 0.0
C931 C 0.43494 0.64896 0.16245 0.0
Co932 Co 0.38895 0.63799 0.24992 0.0
C933 C 0.48884 0.7593 0.29914 0.0
C934 C 0.50467 0.74386 0.22967 0.0
N935 N 0.47399 0.73471 0.26405 0.0
N936 N 0.5276 0.78335 0.28648 0.0
C937 C 0.53726 0.7725 0.24413 0.0
H938 H 0.47257 0.7595 0.33263 0.0
H939 H 0.50392 0.73367 0.19503 0.0
C940 C 0.37621 0.6753 0.34259 0.0
N941 N 0.36085 0.57876 0.26505 0.0
C942 C 0.38243 0.54906 0.24102 0.0
C943 C 0.3659 0.55765 0.30907 0.0
N944 N 0.40955 0.51893 0.267 0.0
C945 C 0.39671 0.52226 0.31061 0.0
C946 C 0.48221 0.61443 0.28056 0.0
O947 O 0.40691 0.70656 0.32947 0.0
O948 O 0.37342 0.64411 0.31504 0.0
O949 O 0.44587 0.6054 0.25962 0.0
O950 O 0.48463 0.65292 0.29723 0.0
O951 O 0.3973 0.63184 0.18084 0.0
H952 H 0.35031 0.56888 0.3399 0.0
H953 H 0.38796 0.55615 0.20487 0.0
O954 O 0.45965 0.67081 0.19245 0.0
O955 O 0.39326 0.72498 0.23656 0.0
O956 O 0.33612 0.67235 0.23576 0.0
C957 C 0.35145 0.71469 0.22829 0.0
H958 H 0.56406 0.78789 0.22369 0.0
H959 H 0.40729 0.49985 0.34054 0.0
Co960 Co 0.97612 0.55906 0.79949 0.0
C961 C 0.08574 0.57895 0.80568 0.0
Co962 Co 0.9887 0.58674 0.85864 0.0
C963 C 0.96607 0.5183 0.7147 0.0
C964 C 0.92527 0.48515 0.77091 0.0
N965 N 0.9556 0.52137 0.75882 0.0
N966 N 0.9452 0.4799 0.7002 0.0
C967 C 0.91843 0.45973 0.73445 0.0
H968 H 0.99213 0.54034 0.69567 0.0
H969 H 0.91229 0.47466 0.80529 0.0
C970 C 0.89244 0.57437 0.86377 0.0
N971 N 1.00246 0.59707 0.92565 0.0
C972 C 1.00557 0.63309 0.89612 0.0
C973 C 0.97654 0.61247 0.95989 0.0
N974 N 0.97778 0.66746 0.90436 0.0
C975 C 0.96186 0.65683 0.94711 0.0
C976 C 0.97463 0.64634 0.77365 0.0
O977 O 0.9047 0.5473 0.83298 0.0
O978 O 0.92458 0.60247 0.87182 0.0
O979 O 0.99393 0.64179 0.81263 0.0
O980 O 0.95358 0.61136 0.75984 0.0
O981 O 1.06382 0.57727 0.84491 0.0
H982 H 0.97777 0.59726 0.99536 0.0
H983 H 1.03482 0.63696 0.87406 0.0
O984 O 1.0536 0.57246 0.77333 0.0
O985 O 0.99837 0.50583 0.82988 0.0
O986 O 0.97609 0.5312 0.89173 0.0
C987 C 0.99401 0.49977 0.87238 0.0
H988 H 0.89817 0.42731 0.73392 0.0
H989 H 0.94915 0.68155 0.96945 0.0
Co990 Co 0.66252 0.98375 0.84279 0.0
C991 C 0.6332 0.88747 0.85763 0.0
Co992 Co 0.62155 0.98344 0.78584 0.0
C993 C 0.71474 1.02543 0.8918 0.0
C994 C 0.74929 0.96524 0.87818 0.0
N995 N 0.70752 0.98128 0.88951 0.0
N996 N 0.75166 1.04081 0.86663 0.0
C997 C 0.77581 1.0028 0.86008 0.0
H998 H 0.68543 1.04544 0.89865 0.0
H999 H 0.75447 0.92998 0.86951 0.0
C1000 C 0.63802 0.09222 0.79413 0.0
N1001 N 0.57471 0.98054 0.74238 0.0
C1002 C 0.52914 0.9693 0.75006 0.0
C1003 C 0.57342 1.0205 0.71478 0.0
N1004 N 0.50074 1.00293 0.7317 0.0
C1005 C 0.52975 1.03696 0.71308 0.0
C1006 C 0.57687 0.99266 0.8643 0.0
O1007 O 0.65021 1.06356 0.82986 0.0
O1008 O 0.63074 1.06416 0.76213 0.0
O1009 O 0.579 0.99765 0.82152 0.0
O1010 O 0.61392 0.98439 0.88707 0.0
O1011 O 0.60769 0.90708 0.82287 0.0
H1012 H 0.60304 1.03709 0.69622 0.0
H1013 H 0.51682 0.93772 0.77012 0.0
O1014 O 0.66842 0.91399 0.86288 0.0
O1015 O 0.71571 0.98484 0.79177 0.0
O1016 O 0.66706 0.96657 0.73977 0.0
C1017 C 0.70936 0.97461 0.74995 0.0
H1018 H 0.80253 1.00022 0.83485 0.0
H1019 H 0.51946 1.06745 0.69125 0.0
Co1020 Co 0.24632 0.62671 0.85194 0.0
C1021 C 0.349 0.61199 0.87551 0.0
Co1022 Co 0.25321 0.56656 0.81374 0.0
C1023 C 0.18779 0.68985 0.87373 0.0
C1024 C 0.2568 0.7155 0.88041 0.0
N1025 N 0.23073 0.67534 0.88373 0.0
N1026 N 0.18548 0.73582 0.86035 0.0
C1027 C 0.22922 0.75205 0.86737 0.0
H1028 H 0.15729 0.66819 0.88307 0.0
H1029 H 0.29414 0.71837 0.87925 0.0
C1030 C 0.14624 0.59034 0.80292 0.0
N1031 N 0.27486 0.52703 0.7675 0.0
C1032 C 0.24954 0.5034 0.73635 0.0
C1033 C 0.31839 0.52955 0.74948 0.0
N1034 N 0.27532 0.49244 0.69986 0.0
C1035 C 0.31854 0.50933 0.70791 0.0
C1036 C 0.26532 0.54327 0.88605 0.0
O1037 O 0.16826 0.61344 0.83387 0.0
O1038 O 0.17874 0.57007 0.78006 0.0
O1039 O 0.29785 0.55034 0.85422 0.0
O1040 O 0.25181 0.58034 0.90373 0.0
O1041 O 0.33502 0.57474 0.85286 0.0
H1042 H 0.34759 0.54837 0.76366 0.0
H1043 H 0.21211 0.49833 0.73774 0.0
O1044 O 0.31665 0.64216 0.871 0.0
O1045 O 0.24675 0.66839 0.80273 0.0
O1046 O 0.28096 0.61342 0.7717 0.0
C1047 C 0.26939 0.65513 0.77026 0.0
H1048 H 0.24008 0.78861 0.86599 0.0
H1049 H 0.34819 0.50732 0.68531 0.0
Co1050 Co 0.5978 0.24559 0.83143 0.0
C1051 C 0.60688 0.34748 0.83751 0.0
Co1052 Co 0.64016 0.2728 0.78553 0.0
C1053 C 0.53816 0.21839 0.86949 0.0
C1054 C 0.54083 0.27297 0.91056 0.0
N1055 N 0.56846 0.24246 0.89112 0.0
N1056 N 0.49589 0.23474 0.86678 0.0
C1057 C 0.49622 0.27013 0.89349 0.0
H1058 H 0.5474 0.18964 0.85203 0.0
H1059 H 0.55007 0.28969 0.94113 0.0
C1060 C 0.62987 0.1537 0.79383 0.0
N1061 N 0.66094 0.30418 0.7331 0.0
C1062 C 0.63649 0.29979 0.69472 0.0
C1063 C 0.6781 0.34857 0.728 0.0
N1064 N 0.64192 0.33623 0.66234 0.0
C1065 C 0.66408 0.3692 0.68586 0.0
C1066 C 0.69314 0.26438 0.84525 0.0
O1067 O 0.61447 0.17066 0.8301 0.0
O1068 O 0.63918 0.19136 0.76315 0.0
O1069 O 0.69592 0.26476 0.80238 0.0
O1070 O 0.65356 0.25777 0.86489 0.0
O1071 O 0.64378 0.33929 0.81581 0.0
H1072 H 0.69826 0.36557 0.75368 0.0
H1073 H 0.61695 0.26775 0.68936 0.0
O1074 O 0.57827 0.31332 0.83767 0.0
O1075 O 0.54164 0.23326 0.78686 0.0
O1076 O 0.58297 0.2906 0.76142 0.0
C1077 C 0.54575 0.26903 0.7603 0.0
H1078 H 0.46586 0.28707 0.90508 0.0
H1079 H 0.67768 0.40246 0.67018 0.0
Co1080 Co 0.97329 0.68258 0.42787 0.0
C1081 C 1.08026 0.65878 0.43872 0.0
Co1082 Co 0.98019 0.6224 0.38966 0.0
C1083 C 0.97687 0.74589 0.50517 0.0
C1084 C 0.90818 0.71907 0.49249 0.0
N1085 N 0.95158 0.72204 0.47416 0.0
N1086 N 0.95122 0.75649 0.54189 0.0
C1087 C 0.90811 0.73915 0.53413 0.0
H1088 H 1.01425 0.75127 0.50358 0.0
H1089 H 0.87906 0.69999 0.47848 0.0
C1090 C 0.8775 0.63713 0.36611 0.0
N1091 N 0.99579 0.57382 0.35782 0.0
C1092 C 1.03874 0.55933 0.36784 0.0
C1093 C 0.96973 0.53365 0.36115 0.0
N1094 N 1.04107 0.51337 0.38124 0.0
C1095 C 0.99733 0.49711 0.37422 0.0
C1096 C 0.95715 0.59394 0.47132 0.0
O1097 O 0.89148 0.67438 0.38877 0.0
O1098 O 0.90985 0.60696 0.37061 0.0
O1099 O 0.97979 0.58068 0.43884 0.0
O1100 O 0.94559 0.63565 0.46987 0.0
O1101 O 1.05825 0.63569 0.40775 0.0
H1102 H 0.9324 0.53076 0.36229 0.0
H1103 H 1.06923 0.581 0.35847 0.0
O1104 O 1.04776 0.6791 0.46154 0.0
O1105 O 0.92864 0.6988 0.38741 0.0
O1106 O 0.97466 0.66879 0.33789 0.0
C1107 C 0.96117 0.70586 0.35558 0.0
H1108 H 0.87858 0.74079 0.55696 0.0
H1109 H 0.9865 0.46056 0.37561 0.0
Co1110 Co 0.58643 0.97639 0.4561 0.0
C1111 C 0.5967 0.09549 0.44777 0.0
Co1112 Co 0.62877 1.00359 0.41017 0.0
C1113 C 0.59012 0.94941 0.54693 0.0
C1114 C 0.54853 0.90061 0.51365 0.0
N1115 N 0.56568 0.94501 0.50854 0.0
N1116 N 0.58466 0.91299 0.57933 0.0
C1117 C 0.56253 0.88001 0.55581 0.0
H1118 H 0.60966 0.98145 0.55229 0.0
H1119 H 0.52837 0.88361 0.48797 0.0
C1120 C 0.6197 0.9017 0.4041 0.0
N1121 N 0.65807 1.00665 0.35042 0.0
C1122 C 0.68834 1.0307 0.37211 0.0
C1123 C 0.68573 0.97616 0.331 0.0
N1124 N 0.73061 1.01436 0.37485 0.0
C1125 C 0.73032 0.97898 0.34813 0.0
C1126 C 0.68085 0.98015 0.4813 0.0
O1127 O 0.58281 0.90989 0.42582 0.0
O1128 O 0.64831 0.93587 0.40394 0.0
O1129 O 0.68494 1.01593 0.45474 0.0
O1130 O 0.64363 0.95859 0.4802 0.0
O1131 O 0.61208 0.07852 0.41149 0.0
H1132 H 0.67656 0.95951 0.30035 0.0
H1133 H 0.67909 1.05946 0.38954 0.0
O1134 O 0.5874 1.05783 0.47846 0.0
O1135 O 0.53066 0.98441 0.43927 0.0
O1136 O 0.57298 0.99139 0.37674 0.0
C1137 C 0.53341 0.98478 0.3964 0.0
H1138 H 0.54891 0.84675 0.57149 0.0
H1139 H 0.7607 0.96205 0.33655 0.0
Co1140 Co 0.23782 0.66241 0.38301 0.0
C1141 C 0.33409 0.67479 0.37788 0.0
Co1142 Co 0.25039 0.69007 0.44216 0.0
C1143 C 0.22098 0.61608 0.3455 0.0
C1144 C 0.24998 0.63675 0.28172 0.0
N1145 N 0.22408 0.65212 0.31598 0.0
N1146 N 0.24876 0.58173 0.33722 0.0
C1147 C 0.26467 0.59239 0.29446 0.0
H1148 H 0.19172 0.6122 0.36755 0.0
H1149 H 0.24873 0.65198 0.24626 0.0
C1150 C 0.14077 0.67018 0.43595 0.0
N1151 N 0.27091 0.72776 0.48283 0.0
C1152 C 0.26045 0.73083 0.52696 0.0
C1153 C 0.30123 0.76398 0.47073 0.0
N1154 N 0.28133 0.76924 0.54144 0.0
C1155 C 0.30807 0.78941 0.50719 0.0
C1156 C 0.23252 0.74937 0.36929 0.0
O1157 O 0.16269 0.67187 0.39672 0.0
O1158 O 0.1729 0.67667 0.46831 0.0
O1159 O 0.22814 0.7433 0.41178 0.0
O1160 O 0.25045 0.71795 0.34994 0.0
O1161 O 0.32181 0.70184 0.40868 0.0
H1162 H 0.31419 0.77448 0.43635 0.0
H1163 H 0.2344 0.70879 0.54599 0.0
O1164 O 0.30195 0.64667 0.36983 0.0
O1165 O 0.23257 0.60734 0.429 0.0
O1166 O 0.27292 0.63775 0.4818 0.0
C1167 C 0.25187 0.60277 0.46798 0.0
H1168 H 0.27737 0.56768 0.2721 0.0
H1169 H 0.32832 0.82183 0.5077 0.0
Co1170 Co 0.60496 0.26575 0.45573 0.0
C1171 C 0.58855 0.15697 0.44745 0.0
Co1172 Co 0.564 0.26542 0.39878 0.0
C1173 C 0.69734 0.27991 0.49155 0.0
C1174 C 0.65302 0.22875 0.52685 0.0
N1175 N 0.65176 0.2687 0.49922 0.0
N1176 N 0.72571 0.24626 0.50993 0.0
C1177 C 0.69669 0.21226 0.52856 0.0
H1178 H 0.70968 0.31147 0.47149 0.0
H1179 H 0.62338 0.21217 0.54539 0.0
C1180 C 0.59329 0.36171 0.38393 0.0
N1181 N 0.51904 0.26788 0.35202 0.0
C1182 C 0.51182 0.22372 0.34975 0.0
C1183 C 0.47726 0.28391 0.3633 0.0
N1184 N 0.47489 0.20835 0.37491 0.0
C1185 C 0.45073 0.24637 0.38141 0.0
C1186 C 0.5171 0.27454 0.49159 0.0
O1187 O 0.6188 0.34212 0.4187 0.0
O1188 O 0.55808 0.33518 0.37868 0.0
O1189 O 0.51076 0.26431 0.44977 0.0
O1190 O 0.5594 0.2826 0.50177 0.0
O1191 O 0.57634 0.18561 0.41172 0.0
H1192 H 0.47207 0.31919 0.37194 0.0
H1193 H 0.54114 0.2037 0.34292 0.0
O1194 O 0.59579 0.18504 0.47945 0.0
O1195 O 0.64756 0.25155 0.42008 0.0
O1196 O 0.61263 0.2648 0.35453 0.0
C1197 C 0.64968 0.25654 0.3773 0.0
H1198 H 0.70695 0.18176 0.5504 0.0
H1199 H 0.424 0.24897 0.40662 0.0
Co1200 Co 0.78452 0.99937 0.6226 0.0
C1201 C 0.79035 0.09608 0.63884 0.0
Co1202 Co 0.83422 0.99911 0.65734 0.0
C1203 C 0.73311 0.9986 0.5406 0.0
C1204 C 0.7316 0.93255 0.58196 0.0
N1205 N 0.74652 0.97742 0.58129 0.0
N1206 N 0.71001 0.96847 0.51589 0.0
C1207 C 0.70839 0.927 0.54166 0.0
H1208 H 0.73817 1.03562 0.53046 0.0
H1209 H 0.73712 0.90592 0.61003 0.0
C1210 C 0.84313 0.89266 0.65256 0.0
N1211 N 0.8823 0.96982 0.69387 0.0
C1212 C 0.92625 0.98314 0.70262 0.0
C1213 C 0.87322 0.93719 0.7298 0.0
N1214 N 0.93063 0.98072 0.74909 0.0
C1215 C 0.90766 0.94022 0.76189 0.0
C1216 C 0.74762 0.97752 0.71135 0.0
O1217 O 0.82824 0.93184 0.62898 0.0
O1218 O 0.82884 0.93178 0.6335 0.0
O1219 O 0.79093 0.98601 0.71629 0.0
O1220 O 0.73666 0.9759 0.66963 0.0
O1221 O 0.82489 0.07367 0.66031 0.0
H1222 H 0.84015 0.91878 0.73668 0.0
H1223 H 0.94318 1.01111 0.68062 0.0
O1224 O 0.75969 1.06803 0.62077 0.0
O1225 O 0.81751 1.0256 0.57008 0.0
O1226 O 0.87989 1.01808 0.608 0.0
C1227 C 0.85967 1.03383 0.57134 0.0
H1228 H 0.68974 0.89563 0.53276 0.0
H1229 H 0.90324 0.92601 0.79755 0.0
Co1230 Co 0.77812 0.26245 0.62544 0.0
C1231 C 0.79218 0.15364 0.62939 0.0
Co1232 Co 0.83151 0.24333 0.60248 0.0
C1233 C 0.70604 0.32136 0.62189 0.0
C1234 C 0.68144 0.2518 0.62096 0.0
N1235 N 0.71923 0.27727 0.632 0.0
N1236 N 0.65955 0.3246 0.61999 0.0
C1237 C 0.64642 0.28187 0.60749 0.0
H1238 H 0.72881 0.35155 0.62477 0.0
H1239 H 0.67922 0.21419 0.62198 0.0
C1240 C 0.834 0.34694 0.60156 0.0
N1241 N 0.88988 0.2413 0.57593 0.0
C1242 C 0.87215 0.23745 0.53477 0.0
C1243 C 0.92034 0.27757 0.5673 0.0
N1244 N 0.87942 0.27422 0.50315 0.0
C1245 C 0.91338 0.2984 0.52246 0.0
C1246 C 0.76416 0.25563 0.53433 0.0
O1247 O 0.80608 0.33273 0.63477 0.0
O1248 O 0.83865 0.31357 0.57671 0.0
O1249 O 0.78999 0.22388 0.54849 0.0
O1250 O 0.76157 0.28536 0.56195 0.0
O1251 O 0.83174 0.17467 0.62519 0.0
H1252 H 0.95124 0.28093 0.58812 0.0
H1253 H 0.85626 0.20486 0.52774 0.0
O1254 O 0.75857 0.18396 0.62336 0.0
O1255 O 0.78877 0.24497 0.68649 0.0
O1256 O 0.85941 0.2563 0.65762 0.0
C1257 C 0.83231 0.24491 0.69203 0.0
H1258 H 0.61037 0.27034 0.60369 0.0
H1259 H 0.93688 0.32014 0.50134 0.0
Co1260 Co 0.98109 0.80488 0.66458 0.0
C1261 C 0.09035 0.81759 0.64398 0.0
Co1262 Co 0.99053 0.86882 0.62276 0.0
C1263 C 0.95728 0.71346 0.7182 0.0
C1264 C 1.01647 0.75508 0.73692 0.0
N1265 N 0.97697 0.75719 0.7114 0.0
N1266 N 0.98466 0.68557 0.74607 0.0
C1267 C 1.02337 0.71101 0.75325 0.0
H1268 H 0.92462 0.70247 0.70306 0.0
H1269 H 1.04224 0.78292 0.73992 0.0
C1270 C 0.89288 0.86805 0.64579 0.0
N1271 N 0.99649 0.9182 0.58103 0.0
C1272 C 1.01073 0.90061 0.54465 0.0
C1273 C 0.97669 0.95871 0.56545 0.0
N1274 N 1.00055 0.92495 0.50539 0.0
C1275 C 0.98102 0.96401 0.51744 0.0
C1276 C 0.96513 0.78008 0.57901 0.0
O1277 O 0.90744 0.82895 0.66822 0.0
O1278 O 0.92418 0.88887 0.62077 0.0
O1279 O 0.97514 0.82331 0.57392 0.0
O1280 O 0.9634 0.76124 0.61997 0.0
O1281 O 1.06829 0.85349 0.62416 0.0
H1282 H 0.95779 0.98058 0.58669 0.0
H1283 H 1.03194 0.87026 0.54803 0.0
O1284 O 1.05857 0.78729 0.66047 0.0
O1285 O 0.99495 0.84369 0.7101 0.0
O1286 O 1.00066 0.90824 0.66607 0.0
C1287 C 1.00055 0.88703 0.70576 0.0
H1288 H 1.05453 0.69842 0.7707 0.0
H1289 H 0.97012 0.99286 0.49378 0.0
Co1290 Co 0.39496 1.00584 0.63912 0.0
C1291 C 0.39251 0.90224 0.64006 0.0
Co1292 Co 0.44837 0.98674 0.61618 0.0
C1293 C 0.3543 1.01171 0.7068 0.0
C1294 C 0.30611 0.9716 0.67428 0.0
N1295 N 0.33657 1.00787 0.66564 0.0
N1296 N 0.34703 0.97494 0.73842 0.0
C1297 C 0.31307 0.95077 0.71912 0.0
H1298 H 0.37019 1.0443 0.71383 0.0
H1299 H 0.27519 0.96825 0.65348 0.0
C1300 C 0.43428 0.09553 0.61222 0.0
N1301 N 0.50726 0.97195 0.6096 0.0
C1302 C 0.52048 0.92787 0.6197 0.0
C1303 C 0.54505 0.99744 0.62065 0.0
N1304 N 0.56697 0.92465 0.62164 0.0
C1305 C 0.58008 0.96739 0.63413 0.0
C1306 C 0.39418 1.00429 0.54958 0.0
O1307 O 0.39472 0.0745 0.61641 0.0
O1308 O 0.4679 1.06523 0.61827 0.0
O1309 O 0.43772 1.00423 0.55513 0.0
O1310 O 0.36708 0.99286 0.58398 0.0
O1311 O 0.42043 0.91644 0.60685 0.0
H1312 H 0.54724 1.03505 0.61964 0.0
H1313 H 0.49773 0.89767 0.6168 0.0
O1314 O 0.38783 0.9356 0.6649 0.0
O1315 O 0.43646 1.02529 0.69312 0.0
O1316 O 0.46493 0.96382 0.67966 0.0
C1317 C 0.46231 0.99355 0.70728 0.0
H1318 H 0.28954 0.92907 0.74024 0.0
H1319 H 0.61611 0.97893 0.63795 0.0
Co1320 Co 0.23604 0.38015 0.61882 0.0
C1321 C 0.33365 0.38097 0.59582 0.0
Co1322 Co 0.24538 0.44423 0.57712 0.0
C1323 C 0.2158 0.34845 0.69692 0.0
C1324 C 0.24982 0.2903 0.67621 0.0
N1325 N 0.23004 0.33079 0.66057 0.0
N1326 N 0.22598 0.32418 0.73621 0.0
C1327 C 0.24549 0.28509 0.72423 0.0
H1328 H 0.19465 0.37885 0.69349 0.0
H1329 H 0.2687 0.26837 0.65501 0.0
C1330 C 0.13617 0.4315 0.59767 0.0
N1331 N 0.24956 0.49192 0.5303 0.0
C1332 C 0.26922 0.53567 0.5235 0.0
C1333 C 0.2101 0.49399 0.50471 0.0
N1334 N 0.24187 0.56351 0.49554 0.0
C1335 C 0.2032 0.53804 0.48832 0.0
C1336 C 0.22594 0.36206 0.53586 0.0
O1337 O 0.15827 0.39563 0.61752 0.0
O1338 O 0.16793 0.46179 0.58112 0.0
O1339 O 0.23164 0.4054 0.53157 0.0
O1340 O 0.22574 0.34081 0.57553 0.0
O1341 O 0.3191 0.4202 0.57362 0.0
H1342 H 0.18435 0.46614 0.50169 0.0
H1343 H 0.30184 0.54671 0.53869 0.0
O1344 O 0.30233 0.35996 0.62066 0.0
O1345 O 0.25169 0.4256 0.66768 0.0
O1346 O 0.2629 0.48788 0.62179 0.0
C1347 C 0.26141 0.4689 0.6627 0.0
H1348 H 0.25639 0.25627 0.74793 0.0
H1349 H 0.17203 0.5506 0.47085 0.0
Co1350 Co 0.39223 0.25008 0.58431 0.0
C1351 C 0.38364 0.35672 0.5893 0.0
Co1352 Co 0.44203 0.24983 0.61901 0.0
C1353 C 0.30025 0.2661 0.53904 0.0
C1354 C 0.35328 0.31215 0.51202 0.0
N1355 N 0.34416 0.27948 0.54789 0.0
N1356 N 0.29596 0.26858 0.49257 0.0
C1357 C 0.31893 0.30909 0.47983 0.0
H1358 H 0.28333 0.23809 0.56098 0.0
H1359 H 0.38636 0.33055 0.5052 0.0
C1360 C 0.43608 0.15309 0.60282 0.0
N1361 N 0.48013 0.27171 0.66026 0.0
C1362 C 0.49351 0.25055 0.70098 0.0
C1363 C 0.4951 0.31656 0.65955 0.0
N1364 N 0.51663 0.28069 0.72567 0.0
C1365 C 0.51829 0.32213 0.69985 0.0
C1366 C 0.36687 0.21541 0.67034 0.0
O1367 O 0.40152 0.1755 0.5814 0.0
O1368 O 0.4668 0.18114 0.62081 0.0
O1369 O 0.40904 0.22363 0.67156 0.0
O1370 O 0.34663 0.23119 0.6337 0.0
O1371 O 0.39853 0.31746 0.61274 0.0
H1372 H 0.48961 0.34318 0.63146 0.0
H1373 H 0.48838 0.21355 0.71117 0.0
O1374 O 0.39774 0.31737 0.60804 0.0
O1375 O 0.43551 0.26313 0.5253 0.0
O1376 O 0.48984 0.27324 0.57192 0.0
C1377 C 0.47884 0.27161 0.53021 0.0
H1378 H 0.32343 0.32331 0.44419 0.0
H1379 H 0.53697 0.35351 0.70874 0.0
Co1380 Co 0.96758 0.44683 0.58157 0.0
C1381 C 1.07544 0.43546 0.59447 0.0
Co1382 Co 0.973 0.38198 0.61443 0.0
C1383 C 0.96625 0.52255 0.51571 0.0
C1384 C 0.91406 0.52602 0.56762 0.0
N1385 N 0.94783 0.49915 0.55289 0.0
N1386 N 0.94593 0.56344 0.50688 0.0
C1387 C 0.91346 0.56675 0.53939 0.0
H1388 H 0.99561 0.51104 0.49703 0.0
H1389 H 0.89278 0.51731 0.59807 0.0
C1390 C 0.87951 0.37929 0.60551 0.0
N1391 N 0.9795 0.32957 0.65942 0.0
C1392 C 1.01833 0.34649 0.67633 0.0
C1393 C 0.95059 0.32905 0.69678 0.0
N1394 N 1.01108 0.37332 0.71086 0.0
C1395 C 0.96957 0.35774 0.7285 0.0
C1396 C 0.95683 0.45987 0.66291 0.0
O1397 O 0.89051 0.42355 0.59351 0.0
O1398 O 0.91422 0.35582 0.61273 0.0
O1399 O 0.95178 0.41711 0.66142 0.0
O1400 O 0.97486 0.48265 0.62975 0.0
O1401 O 1.04826 0.40421 0.61537 0.0
H1402 H 0.91492 0.31582 0.69733 0.0
H1403 H 1.05069 0.3408 0.66074 0.0
O1404 O 1.04756 0.46368 0.56984 0.0
O1405 O 0.95949 0.41849 0.5296 0.0
O1406 O 0.98515 0.35384 0.56428 0.0
C1407 C 0.98142 0.38224 0.52759 0.0
H1408 H 0.891 0.59589 0.54197 0.0
H1409 H 0.95242 0.3702 0.75787 0.0
Co1410 Co 0.25353 0.86714 0.62721 0.0
C1411 C 0.347 0.86986 0.63611 0.0
Co1412 Co 0.25895 0.80229 0.66008 0.0
C1413 C 0.20817 0.90264 0.56534 0.0
C1414 C 0.27589 0.9201 0.54486 0.0
N1415 N 0.24699 0.91957 0.58224 0.0
N1416 N 0.21541 0.87582 0.5308 0.0
C1417 C 0.25691 0.89141 0.51315 0.0
H1418 H 0.1758 0.90832 0.58094 0.0
H1419 H 0.31156 0.93334 0.54429 0.0
C1420 C 0.15108 0.81362 0.64718 0.0
N1421 N 0.27872 0.74997 0.68874 0.0
C1422 C 0.26029 0.72655 0.7259 0.0
C1423 C 0.31249 0.72311 0.67399 0.0
N1424 N 0.28061 0.68565 0.7347 0.0
C1425 C 0.31309 0.68236 0.7022 0.0
C1426 C 0.24509 0.86688 0.71405 0.0
O1427 O 0.17826 0.84488 0.62627 0.0
O1428 O 0.17897 0.78542 0.67181 0.0
O1429 O 0.26702 0.83062 0.71207 0.0
O1430 O 0.24138 0.89527 0.67735 0.0
O1431 O 0.33601 0.8256 0.64814 0.0
H1432 H 0.33378 0.73185 0.64355 0.0
H1433 H 0.23093 0.73804 0.74459 0.0
O1434 O 0.31229 0.89333 0.62888 0.0
O1435 O 0.27475 0.83204 0.58021 0.0
O1436 O 0.25168 0.76649 0.61189 0.0
C1437 C 0.26969 0.78927 0.57873 0.0
H1438 H 0.27405 0.87896 0.48378 0.0
H1439 H 0.33555 0.65323 0.6996 0.0
loop_
_geom_bond_atom_site_label_1
_geom_bond_atom_site_label_2
_geom_bond_distance
_geom_bond_site_symmetry_2
_ccdc_geom_bond_type
Co0 N5 2.057 . S
Co0 O17 2.021 . S
Co0 O20 2.062 1_655 S
Co0 O24 2.117 1_655 S
Co0 O25 2.020 . S
C1 O21 1.259 . S
C1 O24 1.258 . S
Co2 N11 2.057 . S
Co2 O18 2.117 . S
Co2 O19 2.020 . S
Co2 O21 2.021 . S
Co2 O26 2.062 . S
C3 N5 1.316 . S
C3 N6 1.347 . S
C3 H8 0.931 . S
C4 N5 1.375 . S
C4 C7 1.350 . S
C4 H9 0.930 . S
N5 Co0 2.057 . S
N5 C3 1.316 . S
N5 C4 1.375 . S
N6 C3 1.347 . S
N6 C7 1.373 . S
C7 C4 1.350 . S
C7 N6 1.373 . S
C7 H28 0.931 . S
H8 C3 0.931 . S
H9 C4 0.930 . S
C10 O17 1.259 1_455 S
C10 O18 1.258 . S
N11 Co2 2.057 . S
N11 C12 1.316 . S
N11 C13 1.375 . S
C12 N11 1.316 . S
C12 N14 1.347 . S
C12 H23 0.931 . S
C13 N11 1.375 . S
C13 C15 1.350 . S
C13 H22 0.930 . S
N14 C12 1.347 . S
N14 C15 1.373 . S
C15 C13 1.350 . S
C15 N14 1.373 . S
C15 H29 0.931 . S
C16 O19 1.256 . S
C16 O20 1.255 . S
O17 Co0 2.021 . S
O17 C10 1.259 1_655 S
O18 Co2 2.117 . S
O18 C10 1.258 . S
O19 Co2 2.020 . S
O19 C16 1.256 . S
O20 Co0 2.062 1_455 S
O20 C16 1.255 . S
O21 C1 1.259 . S
O21 Co2 2.021 . S
H22 C13 0.930 . S
H23 C12 0.931 . S
O24 Co0 2.117 1_455 S
O24 C1 1.258 . S
O25 Co0 2.020 . S
O25 C27 1.256 . S
O26 Co2 2.062 . S
O26 C27 1.255 1_455 S
C27 O25 1.256 . S
C27 O26 1.255 1_655 S
H28 C7 0.931 . S
H29 C15 0.931 . S
Co30 N35 2.057 . S
Co30 O47 2.021 . S
Co30 O50 2.062 . S
Co30 O54 2.117 . S
Co30 O55 2.020 . S
C31 O51 1.259 . S
C31 O54 1.258 . S
Co32 N41 2.057 . S
Co32 O48 2.117 . S
Co32 O49 2.020 . S
Co32 O51 2.021 . S
Co32 O56 2.062 . S
C33 N35 1.316 1_565 S
C33 N36 1.347 . S
C33 H38 0.931 . S
C34 N35 1.375 1_565 S
C34 C37 1.350 . S
C34 H39 0.930 1_565 S
N35 Co30 2.057 . S
N35 C33 1.316 1_545 S
N35 C34 1.375 1_545 S
N36 C33 1.347 . S
N36 C37 1.373 . S
C37 C34 1.350 . S
C37 N36 1.373 . S
C37 H58 0.931 . S
H38 C33 0.931 . S
H39 C34 0.930 1_545 S
C40 O47 1.259 . S
C40 O48 1.258 . S
N41 Co32 2.057 . S
N41 C42 1.316 . S
N41 C43 1.375 . S
C42 N41 1.316 . S
C42 N44 1.347 . S
C42 H53 0.931 . S
C43 N41 1.375 . S
C43 C45 1.350 . S
C43 H52 0.930 . S
N44 C42 1.347 . S
N44 C45 1.373 . S
C45 C43 1.350 . S
C45 N44 1.373 . S
C45 H59 0.931 . S
C46 O49 1.256 . S
C46 O50 1.255 . S
O47 Co30 2.021 . S
O47 C40 1.259 . S
O48 Co32 2.117 . S
O48 C40 1.258 . S
O49 Co32 2.020 . S
O49 C46 1.256 . S
O50 Co30 2.062 . S
O50 C46 1.255 . S
O51 C31 1.259 . S
O51 Co32 2.021 . S
H52 C43 0.930 . S
H53 C42 0.931 . S
O54 Co30 2.117 . S
O54 C31 1.258 . S
O55 Co30 2.020 . S
O55 C57 1.256 . S
O56 Co32 2.062 . S
O56 C57 1.255 . S
C57 O55 1.256 . S
C57 O56 1.255 . S
H58 C37 0.931 . S
H59 C45 0.931 . S
Co60 N65 2.057 . S
Co60 O77 2.021 . S
Co60 O80 2.062 . S
Co60 O84 2.117 . S
Co60 O85 2.020 . S
C61 O81 1.259 . S
C61 O84 1.258 . S
Co62 N71 2.057 1_455 S
Co62 O78 2.117 . S
Co62 O79 2.020 1_455 S
Co62 O81 2.021 . S
Co62 O86 2.062 . S
C63 N65 1.316 . S
C63 N66 1.347 . S
C63 H68 0.931 . S
C64 N65 1.375 . S
C64 C67 1.350 . S
C64 H69 0.930 . S
N65 Co60 2.057 . S
N65 C63 1.316 . S
N65 C64 1.375 . S
N66 C63 1.347 . S
N66 C67 1.373 . S
C67 C64 1.350 . S
C67 N66 1.373 . S
C67 H88 0.931 . S
H68 C63 0.931 . S
H69 C64 0.930 . S
C70 O77 1.259 . S
C70 O78 1.258 . S
N71 Co62 2.057 1_655 S
N71 C72 1.316 . S
N71 C73 1.375 . S
C72 N71 1.316 . S
C72 N74 1.347 . S
C72 H83 0.931 . S
C73 N71 1.375 . S
C73 C75 1.350 . S
C73 H82 0.930 . S
N74 C72 1.347 . S
N74 C75 1.373 . S
C75 C73 1.350 . S
C75 N74 1.373 . S
C75 H89 0.931 1_565 S
C76 O79 1.256 . S
C76 O80 1.255 1_655 S
O77 Co60 2.021 . S
O77 C70 1.259 . S
O78 Co62 2.117 . S
O78 C70 1.258 . S
O79 Co62 2.020 1_655 S
O79 C76 1.256 . S
O80 Co60 2.062 . S
O80 C76 1.255 1_455 S
O81 C61 1.259 . S
O81 Co62 2.021 . S
H82 C73 0.930 . S
H83 C72 0.931 . S
O84 Co60 2.117 . S
O84 C61 1.258 . S
O85 Co60 2.020 . S
O85 C87 1.256 . S
O86 Co62 2.062 . S
O86 C87 1.255 . S
C87 O85 1.256 . S
C87 O86 1.255 . S
H88 C67 0.931 . S
H89 C75 0.931 1_545 S
Co90 N95 2.057 . S
Co90 O107 2.021 . S
Co90 O110 2.062 . S
Co90 O114 2.117 . S
Co90 O115 2.020 . S
C91 O111 1.259 1_545 S
C91 O114 1.258 . S
Co92 N101 2.057 . S
Co92 O108 2.117 . S
Co92 O109 2.020 . S
Co92 O111 2.021 . S
Co92 O116 2.062 1_565 S
C93 N95 1.316 . S
C93 N96 1.347 . S
C93 H98 0.931 . S
C94 N95 1.375 . S
C94 C97 1.350 . S
C94 H99 0.930 . S
N95 Co90 2.057 . S
N95 C93 1.316 . S
N95 C94 1.375 . S
N96 C93 1.347 . S
N96 C97 1.373 . S
C97 C94 1.350 . S
C97 N96 1.373 . S
C97 H118 0.931 . S
H98 C93 0.931 . S
H99 C94 0.930 . S
C100 O107 1.259 . S
C100 O108 1.258 1_545 S
N101 Co92 2.057 . S
N101 C102 1.316 . S
N101 C103 1.375 . S
C102 N101 1.316 . S
C102 N104 1.347 . S
C102 H113 0.931 . S
C103 N101 1.375 . S
C103 C105 1.350 . S
C103 H112 0.930 . S
N104 C102 1.347 . S
N104 C105 1.373 . S
C105 C103 1.350 . S
C105 N104 1.373 . S
C105 H119 0.931 . S
C106 O109 1.256 . S
C106 O110 1.255 1_565 S
O107 Co90 2.021 . S
O107 C100 1.259 . S
O108 Co92 2.117 . S
O108 C100 1.258 1_565 S
O109 Co92 2.020 . S
O109 C106 1.256 . S
O110 Co90 2.062 . S
O110 C106 1.255 1_545 S
O111 C91 1.259 1_565 S
O111 Co92 2.021 . S
H112 C103 0.930 . S
H113 C102 0.931 . S
O114 Co90 2.117 . S
O114 C91 1.258 . S
O115 Co90 2.020 . S
O115 C117 1.256 . S
O116 Co92 2.062 1_545 S
O116 C117 1.255 . S
C117 O115 1.256 . S
C117 O116 1.255 . S
H118 C97 0.931 . S
H119 C105 0.931 . S
Co120 N125 2.057 1_455 S
Co120 O137 2.021 . S
Co120 O140 2.062 . S
Co120 O144 2.117 . S
Co120 O145 2.020 1_455 S
C121 O141 1.259 . S
C121 O144 1.258 . S
Co122 N131 2.057 . S
Co122 O138 2.117 . S
Co122 O139 2.020 . S
Co122 O141 2.021 . S
Co122 O146 2.062 . S
C123 N125 1.316 . S
C123 N126 1.347 1_565 S
C123 H128 0.931 . S
C124 N125 1.375 . S
C124 C127 1.350 1_565 S
C124 H129 0.930 . S
N125 Co120 2.057 1_655 S
N125 C123 1.316 . S
N125 C124 1.375 . S
N126 C123 1.347 1_545 S
N126 C127 1.373 . S
C127 C124 1.350 1_545 S
C127 N126 1.373 . S
C127 H148 0.931 . S
H128 C123 0.931 . S
H129 C124 0.930 . S
C130 O137 1.259 . S
C130 O138 1.258 . S
N131 Co122 2.057 . S
N131 C132 1.316 . S
N131 C133 1.375 . S
C132 N131 1.316 . S
C132 N134 1.347 . S
C132 H143 0.931 . S
C133 N131 1.375 . S
C133 C135 1.350 . S
C133 H142 0.930 . S
N134 C132 1.347 . S
N134 C135 1.373 . S
C135 C133 1.350 . S
C135 N134 1.373 . S
C135 H149 0.931 . S
C136 O139 1.256 . S
C136 O140 1.255 . S
O137 Co120 2.021 . S
O137 C130 1.259 . S
O138 Co122 2.117 . S
O138 C130 1.258 . S
O139 Co122 2.020 . S
O139 C136 1.256 . S
O140 Co120 2.062 . S
O140 C136 1.255 . S
O141 C121 1.259 . S
O141 Co122 2.021 . S
H142 C133 0.930 . S
H143 C132 0.931 . S
O144 Co120 2.117 . S
O144 C121 1.258 . S
O145 Co120 2.020 1_655 S
O145 C147 1.256 . S
O146 Co122 2.062 . S
O146 C147 1.255 1_455 S
C147 O145 1.256 . S
C147 O146 1.255 1_655 S
H148 C127 0.931 . S
H149 C135 0.931 . S
Co150 N155 2.057 . S
Co150 O167 2.021 . S
Co150 O170 2.062 1_565 S
Co150 O174 2.117 1_565 S
Co150 O175 2.020 . S
C151 O171 1.259 . S
C151 O174 1.258 . S
Co152 N161 2.057 . S
Co152 O168 2.117 . S
Co152 O169 2.020 . S
Co152 O171 2.021 . S
Co152 O176 2.062 . S
C153 N155 1.316 . S
C153 N156 1.347 . S
C153 H158 0.931 . S
C154 N155 1.375 . S
C154 C157 1.350 . S
C154 H159 0.930 . S
N155 Co150 2.057 . S
N155 C153 1.316 . S
N155 C154 1.375 . S
N156 C153 1.347 . S
N156 C157 1.373 . S
C157 C154 1.350 . S
C157 N156 1.373 . S
C157 H178 0.931 . S
H158 C153 0.931 . S
H159 C154 0.930 . S
C160 O167 1.259 1_545 S
C160 O168 1.258 . S
N161 Co152 2.057 . S
N161 C162 1.316 . S
N161 C163 1.375 . S
C162 N161 1.316 . S
C162 N164 1.347 . S
C162 H173 0.931 . S
C163 N161 1.375 . S
C163 C165 1.350 . S
C163 H172 0.930 . S
N164 C162 1.347 . S
N164 C165 1.373 . S
C165 C163 1.350 . S
C165 N164 1.373 . S
C165 H179 0.931 . S
C166 O169 1.256 . S
C166 O170 1.255 . S
O167 Co150 2.021 . S
O167 C160 1.259 1_565 S
O168 Co152 2.117 . S
O168 C160 1.258 . S
O169 Co152 2.020 . S
O169 C166 1.256 . S
O170 Co150 2.062 1_545 S
O170 C166 1.255 . S
O171 C151 1.259 . S
O171 Co152 2.021 . S
H172 C163 0.930 . S
H173 C162 0.931 . S
O174 Co150 2.117 1_545 S
O174 C151 1.258 . S
O175 Co150 2.020 . S
O175 C177 1.256 . S
O176 Co152 2.062 . S
O176 C177 1.255 1_545 S
C177 O175 1.256 . S
C177 O176 1.255 1_565 S
H178 C157 0.931 . S
H179 C165 0.931 . S
Co180 N185 2.057 . S
Co180 O197 2.021 . S
Co180 O200 2.062 . S
Co180 O204 2.117 . S
Co180 O205 2.020 . S
C181 O201 1.259 1_455 S
C181 O204 1.258 . S
Co182 N191 2.057 . S
Co182 O198 2.117 1_655 S
Co182 O199 2.020 . S
Co182 O201 2.021 . S
Co182 O206 2.062 1_655 S
C183 N185 1.316 . S
C183 N186 1.347 . S
C183 H188 0.931 . S
C184 N185 1.375 . S
C184 C187 1.350 . S
C184 H189 0.930 . S
N185 Co180 2.057 . S
N185 C183 1.316 . S
N185 C184 1.375 . S
N186 C183 1.347 . S
N186 C187 1.373 . S
C187 C184 1.350 . S
C187 N186 1.373 . S
C187 H208 0.931 . S
H188 C183 0.931 . S
H189 C184 0.930 . S
C190 O197 1.259 . S
C190 O198 1.258 . S
N191 Co182 2.057 . S
N191 C192 1.316 . S
N191 C193 1.375 . S
C192 N191 1.316 . S
C192 N194 1.347 . S
C192 H203 0.931 . S
C193 N191 1.375 . S
C193 C195 1.350 . S
C193 H202 0.930 . S
N194 C192 1.347 . S
N194 C195 1.373 . S
C195 C193 1.350 . S
C195 N194 1.373 . S
C195 H209 0.931 . S
C196 O199 1.256 . S
C196 O200 1.255 1_655 S
O197 Co180 2.021 . S
O197 C190 1.259 . S
O198 Co182 2.117 1_455 S
O198 C190 1.258 . S
O199 Co182 2.020 . S
O199 C196 1.256 . S
O200 Co180 2.062 . S
O200 C196 1.255 1_455 S
O201 C181 1.259 1_655 S
O201 Co182 2.021 . S
H202 C193 0.930 . S
H203 C192 0.931 . S
O204 Co180 2.117 . S
O204 C181 1.258 . S
O205 Co180 2.020 . S
O205 C207 1.256 . S
O206 Co182 2.062 1_455 S
O206 C207 1.255 . S
C207 O205 1.256 . S
C207 O206 1.255 . S
H208 C187 0.931 . S
H209 C195 0.931 . S
Co210 N215 2.057 . S
Co210 O227 2.021 . S
Co210 O230 2.062 . S
Co210 O234 2.117 . S
Co210 O235 2.020 . S
C211 O231 1.259 . S
C211 O234 1.258 . S
Co212 N221 2.057 . S
Co212 O228 2.117 . S
Co212 O229 2.020 . S
Co212 O231 2.021 . S
Co212 O236 2.062 . S
C213 N215 1.316 . S
C213 N216 1.347 . S
C213 H218 0.931 . S
C214 N215 1.375 . S
C214 C217 1.350 . S
C214 H219 0.930 . S
N215 Co210 2.057 . S
N215 C213 1.316 . S
N215 C214 1.375 . S
N216 C213 1.347 . S
N216 C217 1.373 . S
C217 C214 1.350 . S
C217 N216 1.373 . S
C217 H238 0.931 1_655 S
H218 C213 0.931 . S
H219 C214 0.930 . S
C220 O227 1.259 . S
C220 O228 1.258 . S
N221 Co212 2.057 . S
N221 C222 1.316 . S
N221 C223 1.375 . S
C222 N221 1.316 . S
C222 N224 1.347 1_545 S
C222 H233 0.931 . S
C223 N221 1.375 . S
C223 C225 1.350 1_545 S
C223 H232 0.930 . S
N224 C222 1.347 1_565 S
N224 C225 1.373 . S
C225 C223 1.350 1_565 S
C225 N224 1.373 . S
C225 H239 0.931 . S
C226 O229 1.256 . S
C226 O230 1.255 . S
O227 Co210 2.021 . S
O227 C220 1.259 . S
O228 Co212 2.117 . S
O228 C220 1.258 . S
O229 Co212 2.020 . S
O229 C226 1.256 . S
O230 Co210 2.062 . S
O230 C226 1.255 . S
O231 C211 1.259 . S
O231 Co212 2.021 . S
H232 C223 0.930 . S
H233 C222 0.931 . S
O234 Co210 2.117 . S
O234 C211 1.258 . S
O235 Co210 2.020 . S
O235 C237 1.256 . S
O236 Co212 2.062 . S
O236 C237 1.255 . S
C237 O235 1.256 . S
C237 O236 1.255 . S
H238 C217 0.931 1_455 S
H239 C225 0.931 . S
Co240 N245 2.057 1_545 S
Co240 O257 2.021 1_545 S
Co240 O260 2.062 . S
Co240 O264 2.117 . S
Co240 O265 2.020 1_545 S
C241 O261 1.259 . S
C241 O264 1.258 . S
Co242 N251 2.057 . S
Co242 O258 2.117 . S
Co242 O259 2.020 . S
Co242 O261 2.021 . S
Co242 O266 2.062 . S
C243 N245 1.316 . S
C243 N246 1.347 . S
C243 H248 0.931 . S
C244 N245 1.375 . S
C244 C247 1.350 . S
C244 H249 0.930 . S
N245 Co240 2.057 1_565 S
N245 C243 1.316 . S
N245 C244 1.375 . S
N246 C243 1.347 . S
N246 C247 1.373 . S
C247 C244 1.350 . S
C247 N246 1.373 . S
C247 H268 0.931 . S
H248 C243 0.931 . S
H249 C244 0.930 . S
C250 O257 1.259 1_545 S
C250 O258 1.258 . S
N251 Co242 2.057 . S
N251 C252 1.316 . S
N251 C253 1.375 . S
C252 N251 1.316 . S
C252 N254 1.347 . S
C252 H263 0.931 . S
C253 N251 1.375 . S
C253 C255 1.350 . S
C253 H262 0.930 . S
N254 C252 1.347 . S
N254 C255 1.373 . S
C255 C253 1.350 . S
C255 N254 1.373 . S
C255 H269 0.931 . S
C256 O259 1.256 . S
C256 O260 1.255 . S
O257 Co240 2.021 1_565 S
O257 C250 1.259 1_565 S
O258 Co242 2.117 . S
O258 C250 1.258 . S
O259 Co242 2.020 . S
O259 C256 1.256 . S
O260 Co240 2.062 . S
O260 C256 1.255 . S
O261 C241 1.259 . S
O261 Co242 2.021 . S
H262 C253 0.930 . S
H263 C252 0.931 . S
O264 Co240 2.117 . S
O264 C241 1.258 . S
O265 Co240 2.020 1_565 S
O265 C267 1.256 . S
O266 Co242 2.062 . S
O266 C267 1.255 1_545 S
C267 O265 1.256 . S
C267 O266 1.255 1_565 S
H268 C247 0.931 . S
H269 C255 0.931 . S
Co270 N275 2.057 . S
Co270 O287 2.021 . S
Co270 O290 2.062 . S
Co270 O294 2.117 . S
Co270 O295 2.020 . S
C271 O291 1.259 . S
C271 O294 1.258 . S
Co272 N281 2.057 . S
Co272 O288 2.117 1_655 S
Co272 O289 2.020 . S
Co272 O291 2.021 1_655 S
Co272 O296 2.062 1_655 S
C273 N275 1.316 . S
C273 N276 1.347 . S
C273 H278 0.931 . S
C274 N275 1.375 . S
C274 C277 1.350 . S
C274 H279 0.930 . S
N275 Co270 2.057 . S
N275 C273 1.316 . S
N275 C274 1.375 . S
N276 C273 1.347 . S
N276 C277 1.373 . S
C277 C274 1.350 . S
C277 N276 1.373 . S
C277 H298 0.931 . S
H278 C273 0.931 . S
H279 C274 0.930 . S
C280 O287 1.259 . S
C280 O288 1.258 . S
N281 Co272 2.057 . S
N281 C282 1.316 . S
N281 C283 1.375 . S
C282 N281 1.316 . S
C282 N284 1.347 . S
C282 H293 0.931 . S
C283 N281 1.375 . S
C283 C285 1.350 . S
C283 H292 0.930 . S
N284 C282 1.347 . S
N284 C285 1.373 . S
C285 C283 1.350 . S
C285 N284 1.373 . S
C285 H299 0.931 . S
C286 O289 1.256 . S
C286 O290 1.255 1_655 S
O287 Co270 2.021 . S
O287 C280 1.259 . S
O288 Co272 2.117 1_455 S
O288 C280 1.258 . S
O289 Co272 2.020 . S
O289 C286 1.256 . S
O290 Co270 2.062 . S
O290 C286 1.255 1_455 S
O291 C271 1.259 . S
O291 Co272 2.021 1_455 S
H292 C283 0.930 . S
H293 C282 0.931 . S
O294 Co270 2.117 . S
O294 C271 1.258 . S
O295 Co270 2.020 . S
O295 C297 1.256 . S
O296 Co272 2.062 1_455 S
O296 C297 1.255 . S
C297 O295 1.256 . S
C297 O296 1.255 . S
H298 C277 0.931 . S
H299 C285 0.931 . S
Co300 N305 2.057 . S
Co300 O317 2.021 . S
Co300 O320 2.062 . S
Co300 O324 2.117 . S
Co300 O325 2.020 . S
C301 O321 1.259 . S
C301 O324 1.258 . S
Co302 N311 2.057 1_545 S
Co302 O318 2.117 . S
Co302 O319 2.020 1_545 S
Co302 O321 2.021 . S
Co302 O326 2.062 . S
C303 N305 1.316 . S
C303 N306 1.347 . S
C303 H308 0.931 . S
C304 N305 1.375 . S
C304 C307 1.350 . S
C304 H309 0.930 . S
N305 Co300 2.057 . S
N305 C303 1.316 . S
N305 C304 1.375 . S
N306 C303 1.347 . S
N306 C307 1.373 . S
C307 C304 1.350 . S
C307 N306 1.373 . S
C307 H328 0.931 . S
H308 C303 0.931 . S
H309 C304 0.930 . S
C310 O317 1.259 . S
C310 O318 1.258 . S
N311 Co302 2.057 1_565 S
N311 C312 1.316 . S
N311 C313 1.375 . S
C312 N311 1.316 . S
C312 N314 1.347 . S
C312 H323 0.931 . S
C313 N311 1.375 . S
C313 C315 1.350 . S
C313 H322 0.930 . S
N314 C312 1.347 . S
N314 C315 1.373 . S
C315 C313 1.350 . S
C315 N314 1.373 . S
C315 H329 0.931 . S
C316 O319 1.260 . S
C316 O320 1.243 1_565 S
O317 Co300 2.021 . S
O317 C310 1.259 . S
O318 Co302 2.117 . S
O318 C310 1.258 . S
O319 Co302 2.020 1_565 S
O319 C316 1.260 . S
O320 Co300 2.062 . S
O320 C316 1.243 1_545 S
O321 C301 1.259 . S
O321 Co302 2.021 . S
H322 C313 0.930 . S
H323 C312 0.931 . S
O324 Co300 2.117 . S
O324 C301 1.258 . S
O325 Co300 2.020 . S
O325 C327 1.256 . S
O326 Co302 2.062 . S
O326 C327 1.255 . S
C327 O325 1.256 . S
C327 O326 1.255 . S
H328 C307 0.931 . S
H329 C315 0.931 . S
Co330 N335 2.057 . S
Co330 O347 2.021 . S
Co330 O350 2.062 1_655 S
Co330 O354 2.117 1_655 S
Co330 O355 2.020 . S
C331 O351 1.259 . S
C331 O354 1.258 . S
Co332 N341 2.057 . S
Co332 O348 2.117 . S
Co332 O349 2.020 . S
Co332 O351 2.021 . S
Co332 O356 2.062 . S
C333 N335 1.316 . S
C333 N336 1.347 . S
C333 H338 0.931 . S
C334 N335 1.375 . S
C334 C337 1.350 . S
C334 H339 0.930 . S
N335 Co330 2.057 . S
N335 C333 1.316 . S
N335 C334 1.375 . S
N336 C333 1.347 . S
N336 C337 1.373 . S
C337 C334 1.350 . S
C337 N336 1.373 . S
C337 H358 0.931 . S
H338 C333 0.931 . S
H339 C334 0.930 . S
C340 O347 1.259 1_455 S
C340 O348 1.258 . S
N341 Co332 2.057 . S
N341 C342 1.316 . S
N341 C343 1.375 . S
C342 N341 1.316 . S
C342 N344 1.347 . S
C342 H353 0.931 . S
C343 N341 1.375 . S
C343 C345 1.350 . S
C343 H352 0.930 . S
N344 C342 1.347 . S
N344 C345 1.373 . S
C345 C343 1.350 . S
C345 N344 1.373 . S
C345 H359 0.931 . S
C346 O349 1.256 . S
C346 O350 1.255 . S
O347 Co330 2.021 . S
O347 C340 1.259 1_655 S
O348 Co332 2.117 . S
O348 C340 1.258 . S
O349 Co332 2.020 . S
O349 C346 1.256 . S
O350 Co330 2.062 1_455 S
O350 C346 1.255 . S
O351 C331 1.259 . S
O351 Co332 2.021 . S
H352 C343 0.930 . S
H353 C342 0.931 . S
O354 Co330 2.117 1_455 S
O354 C331 1.258 . S
O355 Co330 2.020 . S
O355 C357 1.256 . S
O356 Co332 2.062 . S
O356 C357 1.255 1_455 S
C357 O355 1.256 . S
C357 O356 1.255 1_655 S
H358 C337 0.931 . S
H359 C345 0.931 . S
Co360 N365 2.057 . S
Co360 O377 2.021 . S
Co360 O380 2.062 . S
Co360 O384 2.117 . S
Co360 O385 2.020 . S
C361 O381 1.259 . S
C361 O384 1.258 . S
Co362 N371 2.057 1_545 S
Co362 O378 2.117 . S
Co362 O379 2.020 1_545 S
Co362 O381 2.021 . S
Co362 O386 2.062 . S
C363 N365 1.316 . S
C363 N366 1.347 . S
C363 H368 0.931 . S
C364 N365 1.375 . S
C364 C367 1.350 . S
C364 H369 0.930 . S
N365 Co360 2.057 . S
N365 C363 1.316 . S
N365 C364 1.375 . S
N366 C363 1.347 . S
N366 C367 1.373 . S
C367 C364 1.350 . S
C367 N366 1.373 . S
C367 H388 0.931 1_556 S
H368 C363 0.931 . S
H369 C364 0.930 . S
C370 O377 1.259 . S
C370 O378 1.258 . S
N371 Co362 2.057 1_565 S
N371 C372 1.316 . S
N371 C373 1.375 . S
C372 N371 1.316 . S
C372 N374 1.347 . S
C372 H383 0.931 . S
C373 N371 1.375 . S
C373 C375 1.350 . S
C373 H382 0.930 . S
N374 C372 1.347 . S
N374 C375 1.373 . S
C375 C373 1.350 . S
C375 N374 1.373 . S
C375 H389 0.931 . S
C376 O379 1.256 1_545 S
C376 O380 1.255 . S
O377 Co360 2.021 . S
O377 C370 1.259 . S
O378 Co362 2.117 . S
O378 C370 1.258 . S
O379 Co362 2.020 1_565 S
O379 C376 1.256 1_565 S
O380 Co360 2.062 . S
O380 C376 1.255 . S
O381 C361 1.259 . S
O381 Co362 2.021 . S
H382 C373 0.930 . S
H383 C372 0.931 . S
O384 Co360 2.117 . S
O384 C361 1.258 . S
O385 Co360 2.020 . S
O385 C387 1.256 . S
O386 Co362 2.062 . S
O386 C387 1.255 . S
C387 O385 1.256 . S
C387 O386 1.255 . S
H388 C367 0.931 1_554 S
H389 C375 0.931 . S
Co390 N395 2.057 1_455 S
Co390 O407 2.021 . S
Co390 O410 2.062 . S
Co390 O414 2.117 . S
Co390 O415 2.020 1_455 S
C391 O411 1.259 . S
C391 O414 1.258 . S
Co392 N401 2.057 . S
Co392 O408 2.117 . S
Co392 O409 2.020 . S
Co392 O411 2.021 . S
Co392 O416 2.062 . S
C393 N395 1.316 . S
C393 N396 1.347 . S
C393 H398 0.931 . S
C394 N395 1.375 . S
C394 C397 1.350 . S
C394 H399 0.930 . S
N395 Co390 2.057 1_655 S
N395 C393 1.316 . S
N395 C394 1.375 . S
N396 C393 1.347 . S
N396 C397 1.373 . S
C397 C394 1.350 . S
C397 N396 1.373 . S
C397 H418 0.931 . S
H398 C393 0.931 . S
H399 C394 0.930 . S
C400 O407 1.259 . S
C400 O408 1.258 . S
N401 Co392 2.057 . S
N401 C402 1.316 . S
N401 C403 1.375 . S
C402 N401 1.316 . S
C402 N404 1.347 . S
C402 H413 0.931 . S
C403 N401 1.375 . S
C403 C405 1.350 . S
C403 H412 0.930 . S
N404 C402 1.347 . S
N404 C405 1.373 . S
C405 C403 1.350 . S
C405 N404 1.373 . S
C405 H419 0.931 . S
C406 O409 1.256 . S
C406 O410 1.255 . S
O407 Co390 2.021 . S
O407 C400 1.259 . S
O408 Co392 2.117 . S
O408 C400 1.258 . S
O409 Co392 2.020 . S
O409 C406 1.256 . S
O410 Co390 2.062 . S
O410 C406 1.255 . S
O411 C391 1.259 . S
O411 Co392 2.021 . S
H412 C403 0.930 . S
H413 C402 0.931 . S
O414 Co390 2.117 . S
O414 C391 1.258 . S
O415 Co390 2.020 1_655 S
O415 C417 1.256 . S
O416 Co392 2.062 . S
O416 C417 1.255 1_455 S
C417 O415 1.256 . S
C417 O416 1.255 1_655 S
H418 C397 0.931 . S
H419 C405 0.931 . S
Co420 N425 2.057 . S
Co420 O437 2.021 . S
Co420 O440 2.062 . S
Co420 O444 2.117 . S
Co420 O445 2.020 . S
C421 O441 1.259 . S
C421 O444 1.258 . S
Co422 N431 2.057 . S
Co422 O438 2.117 . S
Co422 O439 2.020 . S
Co422 O441 2.021 . S
Co422 O446 2.062 . S
C423 N425 1.316 1_565 S
C423 N426 1.347 . S
C423 H428 0.931 . S
C424 N425 1.375 . S
C424 C427 1.350 1_545 S
C424 H429 0.930 . S
N425 Co420 2.057 . S
N425 C423 1.316 1_545 S
N425 C424 1.375 . S
N426 C423 1.347 . S
N426 C427 1.373 . S
C427 C424 1.350 1_565 S
C427 N426 1.373 . S
C427 H448 0.931 . S
H428 C423 0.931 . S
H429 C424 0.930 . S
C430 O437 1.259 . S
C430 O438 1.258 . S
N431 Co422 2.057 . S
N431 C432 1.316 . S
N431 C433 1.375 . S
C432 N431 1.316 . S
C432 N434 1.358 . S
C432 H443 0.931 . S
C433 N431 1.375 . S
C433 C435 1.350 1_556 S
C433 H442 0.930 . S
N434 C432 1.358 . S
N434 C435 1.371 1_556 S
C435 C433 1.350 1_554 S
C435 N434 1.371 1_554 S
C435 H449 0.931 . S
C436 O439 1.256 . S
C436 O440 1.255 . S
O437 Co420 2.021 . S
O437 C430 1.259 . S
O438 Co422 2.117 . S
O438 C430 1.258 . S
O439 Co422 2.020 . S
O439 C436 1.256 . S
O440 Co420 2.062 . S
O440 C436 1.255 . S
O441 C421 1.259 . S
O441 Co422 2.021 . S
H442 C433 0.930 . S
H443 C432 0.931 . S
O444 Co420 2.117 . S
O444 C421 1.258 . S
O445 Co420 2.020 . S
O445 C447 1.256 . S
O446 Co422 2.062 . S
O446 C447 1.255 . S
C447 O445 1.256 . S
C447 O446 1.255 . S
H448 C427 0.931 . S
H449 C435 0.931 . S
Co450 N455 2.057 . S
Co450 O467 2.021 . S
Co450 O470 2.062 . S
Co450 O474 2.117 . S
Co450 O475 2.020 . S
C451 O471 1.259 . S
C451 O474 1.258 . S
Co452 N461 2.057 . S
Co452 O468 2.117 1_655 S
Co452 O469 2.020 . S
Co452 O471 2.021 1_655 S
Co452 O476 2.062 1_655 S
C453 N455 1.316 . S
C453 N456 1.347 1_556 S
C453 H458 0.931 . S
C454 N455 1.375 . S
C454 C457 1.350 1_556 S
C454 H459 0.930 . S
N455 Co450 2.057 . S
N455 C453 1.316 . S
N455 C454 1.375 . S
N456 C453 1.347 1_554 S
N456 C457 1.373 . S
C457 C454 1.350 1_554 S
C457 N456 1.373 . S
C457 H478 0.931 . S
H458 C453 0.931 . S
H459 C454 0.930 . S
C460 O467 1.259 . S
C460 O468 1.258 . S
N461 Co452 2.057 . S
N461 C462 1.316 . S
N461 C463 1.375 . S
C462 N461 1.316 . S
C462 N464 1.347 . S
C462 H473 0.931 . S
C463 N461 1.375 . S
C463 C465 1.350 . S
C463 H472 0.930 . S
N464 C462 1.347 . S
N464 C465 1.373 . S
C465 C463 1.350 . S
C465 N464 1.373 . S
C465 H479 0.931 . S
C466 O469 1.256 . S
C466 O470 1.255 1_655 S
O467 Co450 2.021 . S
O467 C460 1.259 . S
O468 Co452 2.117 1_455 S
O468 C460 1.258 . S
O469 Co452 2.020 . S
O469 C466 1.256 . S
O470 Co450 2.062 . S
O470 C466 1.255 1_455 S
O471 C451 1.259 . S
O471 Co452 2.021 1_455 S
H472 C463 0.930 . S
H473 C462 0.931 . S
O474 Co450 2.117 . S
O474 C451 1.258 . S
O475 Co450 2.020 . S
O475 C477 1.256 . S
O476 Co452 2.062 1_455 S
O476 C477 1.255 . S
C477 O475 1.256 . S
C477 O476 1.255 . S
H478 C457 0.931 . S
H479 C465 0.931 . S
Co480 N485 2.057 . S
Co480 O497 2.021 1_556 S
Co480 O500 2.062 1_556 S
Co480 O504 2.117 1_556 S
Co480 O505 2.020 . S
C481 O501 1.259 . S
C481 O504 1.258 . S
Co482 N491 2.057 . S
Co482 O498 2.117 . S
Co482 O499 2.020 . S
Co482 O501 2.021 . S
Co482 O506 2.062 . S
C483 N485 1.316 . S
C483 N486 1.347 . S
C483 H488 0.931 . S
C484 N485 1.375 . S
C484 C487 1.350 . S
C484 H489 0.930 . S
N485 Co480 2.057 . S
N485 C483 1.316 . S
N485 C484 1.375 . S
N486 C483 1.347 . S
N486 C487 1.373 . S
C487 C484 1.350 . S
C487 N486 1.373 . S
C487 H508 0.931 . S
H488 C483 0.931 . S
H489 C484 0.930 . S
C490 O497 1.259 . S
C490 O498 1.258 . S
N491 Co482 2.057 . S
N491 C492 1.316 . S
N491 C493 1.375 . S
C492 N491 1.316 . S
C492 N494 1.347 . S
C492 H503 0.931 . S
C493 N491 1.375 . S
C493 C495 1.350 . S
C493 H502 0.930 . S
N494 C492 1.347 . S
N494 C495 1.373 . S
C495 C493 1.350 . S
C495 N494 1.373 . S
C495 H509 0.931 . S
C496 O499 1.256 . S
C496 O500 1.255 . S
O497 Co480 2.021 1_554 S
O497 C490 1.259 . S
O498 Co482 2.117 . S
O498 C490 1.258 . S
O499 Co482 2.020 . S
O499 C496 1.256 . S
O500 Co480 2.062 1_554 S
O500 C496 1.255 . S
O501 C481 1.259 . S
O501 Co482 2.021 . S
H502 C493 0.930 . S
H503 C492 0.931 . S
O504 Co480 2.117 1_554 S
O504 C481 1.258 . S
O505 Co480 2.020 . S
O505 C507 1.256 . S
O506 Co482 2.062 . S
O506 C507 1.255 1_554 S
C507 O505 1.256 . S
C507 O506 1.255 1_556 S
H508 C487 0.931 . S
H509 C495 0.931 . S
Co510 N515 2.057 . S
Co510 O527 2.021 . S
Co510 O530 2.062 . S
Co510 O534 2.117 . S
Co510 O535 2.020 . S
C511 O531 1.259 . S
C511 O534 1.258 . S
Co512 N521 2.057 1_554 S
Co512 O528 2.117 . S
Co512 O529 2.020 1_554 S
Co512 O531 2.021 . S
Co512 O536 2.062 . S
C513 N515 1.316 . S
C513 N516 1.347 . S
C513 H518 0.931 . S
C514 N515 1.375 . S
C514 C517 1.350 . S
C514 H519 0.930 . S
N515 Co510 2.057 . S
N515 C513 1.316 . S
N515 C514 1.375 . S
N516 C513 1.347 . S
N516 C517 1.373 . S
C517 C514 1.350 . S
C517 N516 1.373 . S
C517 H538 0.931 . S
H518 C513 0.931 . S
H519 C514 0.930 . S
C520 O527 1.259 . S
C520 O528 1.258 . S
N521 Co512 2.057 1_556 S
N521 C522 1.316 . S
N521 C523 1.375 . S
C522 N521 1.316 . S
C522 N524 1.347 . S
C522 H533 0.931 . S
C523 N521 1.375 . S
C523 C525 1.350 . S
C523 H532 0.930 . S
N524 C522 1.347 . S
N524 C525 1.373 . S
C525 C523 1.350 . S
C525 N524 1.373 . S
C525 H539 0.931 . S
C526 O529 1.256 1_554 S
C526 O530 1.255 . S
O527 Co510 2.021 . S
O527 C520 1.259 . S
O528 Co512 2.117 . S
O528 C520 1.258 . S
O529 Co512 2.020 1_556 S
O529 C526 1.256 1_556 S
O530 Co510 2.062 . S
O530 C526 1.255 . S
O531 C511 1.259 . S
O531 Co512 2.021 . S
H532 C523 0.930 . S
H533 C522 0.931 . S
O534 Co510 2.117 . S
O534 C511 1.258 . S
O535 Co510 2.020 . S
O535 C537 1.256 . S
O536 Co512 2.062 . S
O536 C537 1.255 . S
C537 O535 1.256 . S
C537 O536 1.255 . S
H538 C517 0.931 . S
H539 C525 0.931 . S
Co540 N545 2.057 . S
Co540 O557 2.021 . S
Co540 O560 2.062 . S
Co540 O564 2.117 . S
Co540 O565 2.020 . S
C541 O561 1.259 . S
C541 O564 1.258 . S
Co542 N551 2.057 1_554 S
Co542 O558 2.117 . S
Co542 O559 2.026 . S
Co542 O561 2.021 . S
Co542 O566 2.062 . S
C543 N545 1.316 . S
C543 N546 1.347 . S
C543 H548 0.931 . S
C544 N545 1.375 . S
C544 C547 1.350 . S
C544 H549 0.930 . S
N545 Co540 2.057 . S
N545 C543 1.316 . S
N545 C544 1.375 . S
N546 C543 1.347 . S
N546 C547 1.373 . S
C547 C544 1.350 . S
C547 N546 1.373 . S
C547 H568 0.931 . S
H548 C543 0.931 . S
H549 C544 0.930 . S
C550 O557 1.259 . S
C550 O558 1.258 . S
N551 Co542 2.057 1_556 S
N551 C552 1.316 . S
N551 C553 1.375 . S
C552 N551 1.316 . S
C552 N554 1.347 . S
C552 H563 0.931 . S
C553 N551 1.375 . S
C553 C555 1.350 . S
C553 H562 0.930 . S
N554 C552 1.347 . S
N554 C555 1.373 . S
C555 C553 1.350 . S
C555 N554 1.373 . S
C555 H569 0.931 . S
C556 O559 1.260 . S
C556 O560 1.255 . S
O557 Co540 2.021 . S
O557 C550 1.259 . S
O558 Co542 2.117 . S
O558 C550 1.258 . S
O559 Co542 2.026 . S
O559 C556 1.260 . S
O560 Co540 2.062 . S
O560 C556 1.255 . S
O561 C541 1.259 . S
O561 Co542 2.021 . S
H562 C553 0.930 . S
H563 C552 0.931 . S
O564 Co540 2.117 . S
O564 C541 1.258 . S
O565 Co540 2.020 . S
O565 C567 1.256 . S
O566 Co542 2.062 . S
O566 C567 1.255 . S
C567 O565 1.256 . S
C567 O566 1.255 . S
H568 C547 0.931 . S
H569 C555 0.931 . S
Co570 N575 2.057 . S
Co570 O587 2.021 . S
Co570 O590 2.062 . S
Co570 O594 2.117 . S
Co570 O595 2.020 . S
C571 O591 1.259 . S
C571 O594 1.258 . S
Co572 N581 2.057 1_554 S
Co572 O588 2.117 . S
Co572 O589 2.020 1_554 S
Co572 O591 2.021 . S
Co572 O596 2.062 . S
C573 N575 1.316 . S
C573 N576 1.347 . S
C573 H578 0.931 . S
C574 N575 1.375 . S
C574 C577 1.350 . S
C574 H579 0.930 . S
N575 Co570 2.057 . S
N575 C573 1.316 . S
N575 C574 1.375 . S
N576 C573 1.347 . S
N576 C577 1.373 . S
C577 C574 1.350 . S
C577 N576 1.373 . S
C577 H598 0.931 . S
H578 C573 0.931 . S
H579 C574 0.930 . S
C580 O587 1.259 . S
C580 O588 1.258 . S
N581 Co572 2.057 1_556 S
N581 C582 1.316 . S
N581 C583 1.375 . S
C582 N581 1.316 . S
C582 N584 1.347 . S
C582 H593 0.931 . S
C583 N581 1.375 . S
C583 C585 1.350 . S
C583 H592 0.930 . S
N584 C582 1.347 . S
N584 C585 1.373 . S
C585 C583 1.350 . S
C585 N584 1.373 . S
C585 H599 0.931 . S
C586 O589 1.256 . S
C586 O590 1.255 1_556 S
O587 Co570 2.021 . S
O587 C580 1.259 . S
O588 Co572 2.117 . S
O588 C580 1.258 . S
O589 Co572 2.020 1_556 S
O589 C586 1.256 . S
O590 Co570 2.062 . S
O590 C586 1.255 1_554 S
O591 C571 1.259 . S
O591 Co572 2.021 . S
H592 C583 0.930 . S
H593 C582 0.931 . S
O594 Co570 2.117 . S
O594 C571 1.258 . S
O595 Co570 2.020 . S
O595 C597 1.256 . S
O596 Co572 2.062 . S
O596 C597 1.255 . S
C597 O595 1.256 . S
C597 O596 1.255 . S
H598 C577 0.931 . S
H599 C585 0.931 . S
Co600 N605 2.057 . S
Co600 O617 2.021 . S
Co600 O620 2.062 . S
Co600 O624 2.117 . S
Co600 O625 2.020 . S
C601 O621 1.259 . S
C601 O624 1.258 . S
Co602 N611 2.075 . S
Co602 O618 2.112 1_556 S
Co602 O619 2.033 . S
Co602 O621 2.018 1_556 S
Co602 O626 2.042 1_556 S
C603 N605 1.316 . S
C603 N606 1.347 . S
C603 H608 0.931 . S
C604 N605 1.375 . S
C604 C607 1.350 . S
C604 H609 0.930 . S
N605 Co600 2.057 . S
N605 C603 1.316 . S
N605 C604 1.375 . S
N606 C603 1.347 . S
N606 C607 1.373 . S
C607 C604 1.350 . S
C607 N606 1.373 . S
C607 H628 0.931 . S
H608 C603 0.931 . S
H609 C604 0.930 . S
C610 O617 1.259 . S
C610 O618 1.258 . S
N611 Co602 2.075 . S
N611 C612 1.316 . S
N611 C613 1.375 . S
C612 N611 1.316 . S
C612 N614 1.347 . S
C612 H623 0.931 . S
C613 N611 1.375 . S
C613 C615 1.350 . S
C613 H622 0.930 . S
N614 C612 1.347 . S
N614 C615 1.373 . S
C615 C613 1.350 . S
C615 N614 1.373 . S
C615 H629 0.931 1_565 S
C616 O619 1.256 . S
C616 O620 1.255 1_556 S
O617 Co600 2.021 . S
O617 C610 1.259 . S
O618 Co602 2.112 1_554 S
O618 C610 1.258 . S
O619 Co602 2.033 . S
O619 C616 1.256 . S
O620 Co600 2.062 . S
O620 C616 1.255 1_554 S
O621 C601 1.259 . S
O621 Co602 2.018 1_554 S
H622 C613 0.930 . S
H623 C612 0.931 . S
O624 Co600 2.117 . S
O624 C601 1.258 . S
O625 Co600 2.020 . S
O625 C627 1.256 . S
O626 Co602 2.042 1_554 S
O626 C627 1.255 . S
C627 O625 1.256 . S
C627 O626 1.255 . S
H628 C607 0.931 . S
H629 C615 0.931 1_545 S
Co630 N635 2.057 1_554 S
Co630 O647 2.021 . S
Co630 O650 2.062 . S
Co630 O654 2.117 . S
Co630 O655 2.020 . S
C631 O651 1.259 . S
C631 O654 1.258 . S
Co632 N641 2.057 . S
Co632 O648 2.117 . S
Co632 O649 2.020 . S
Co632 O651 2.021 . S
Co632 O656 2.062 . S
C633 N635 1.316 . S
C633 N636 1.347 . S
C633 H638 0.931 . S
C634 N635 1.375 . S
C634 C637 1.350 . S
C634 H639 0.930 . S
N635 Co630 2.057 1_556 S
N635 C633 1.316 . S
N635 C634 1.375 . S
N636 C633 1.347 . S
N636 C637 1.373 . S
C637 C634 1.350 . S
C637 N636 1.373 . S
C637 H658 0.931 . S
H638 C633 0.931 . S
H639 C634 0.930 . S
C640 O647 1.259 . S
C640 O648 1.258 . S
N641 Co632 2.057 . S
N641 C642 1.316 . S
N641 C643 1.375 . S
C642 N641 1.316 . S
C642 N644 1.347 . S
C642 H653 0.931 . S
C643 N641 1.375 . S
C643 C645 1.350 . S
C643 H652 0.930 . S
N644 C642 1.347 . S
N644 C645 1.373 . S
C645 C643 1.350 . S
C645 N644 1.373 . S
C645 H659 0.931 . S
C646 O649 1.256 . S
C646 O650 1.255 . S
O647 Co630 2.021 . S
O647 C640 1.259 . S
O648 Co632 2.117 . S
O648 C640 1.258 . S
O649 Co632 2.020 . S
O649 C646 1.256 . S
O650 Co630 2.062 . S
O650 C646 1.255 . S
O651 C631 1.259 . S
O651 Co632 2.021 . S
H652 C643 0.930 . S
H653 C642 0.931 . S
O654 Co630 2.117 . S
O654 C631 1.258 . S
O655 Co630 2.020 . S
O655 C657 1.256 . S
O656 Co632 2.062 . S
O656 C657 1.255 . S
C657 O655 1.256 . S
C657 O656 1.255 . S
H658 C637 0.931 . S
H659 C645 0.931 . S
Co660 N665 2.057 . S
Co660 O677 2.021 . S
Co660 O680 2.062 1_556 S
Co660 O684 2.115 1_556 S
Co660 O685 2.020 . S
C661 O681 1.259 . S
C661 O684 1.262 . S
Co662 N671 2.057 . S
Co662 O678 2.117 . S
Co662 O679 2.020 . S
Co662 O681 2.021 . S
Co662 O686 2.062 . S
C663 N665 1.316 . S
C663 N666 1.347 1_565 S
C663 H668 0.931 . S
C664 N665 1.375 . S
C664 C667 1.350 1_565 S
C664 H669 0.930 . S
N665 Co660 2.057 . S
N665 C663 1.316 . S
N665 C664 1.375 . S
N666 C663 1.347 1_545 S
N666 C667 1.373 . S
C667 C664 1.350 1_545 S
C667 N666 1.373 . S
C667 H688 0.931 . S
H668 C663 0.931 . S
H669 C664 0.930 . S
C670 O677 1.259 1_554 S
C670 O678 1.258 . S
N671 Co662 2.057 . S
N671 C672 1.316 . S
N671 C673 1.375 . S
C672 N671 1.316 . S
C672 N674 1.347 . S
C672 H683 0.931 . S
C673 N671 1.375 . S
C673 C675 1.350 . S
C673 H682 0.930 . S
N674 C672 1.347 . S
N674 C675 1.373 . S
C675 C673 1.350 . S
C675 N674 1.373 . S
C675 H689 0.931 . S
C676 O679 1.256 . S
C676 O680 1.255 . S
O677 Co660 2.021 . S
O677 C670 1.259 1_556 S
O678 Co662 2.117 . S
O678 C670 1.258 . S
O679 Co662 2.020 . S
O679 C676 1.256 . S
O680 Co660 2.062 1_554 S
O680 C676 1.255 . S
O681 C661 1.259 . S
O681 Co662 2.021 . S
H682 C673 0.930 . S
H683 C672 0.931 . S
O684 Co660 2.115 1_554 S
O684 C661 1.262 . S
O685 Co660 2.020 . S
O685 C687 1.256 . S
O686 Co662 2.062 . S
O686 C687 1.255 1_554 S
C687 O685 1.256 . S
C687 O686 1.255 1_556 S
H688 C667 0.931 . S
H689 C675 0.931 . S
Co690 N695 2.057 1_554 S
Co690 O707 2.021 . S
Co690 O710 2.062 . S
Co690 O714 2.117 . S
Co690 O715 2.020 . S
C691 O711 1.259 . S
C691 O714 1.258 . S
Co692 N701 2.057 . S
Co692 O708 2.117 . S
Co692 O709 2.020 . S
Co692 O711 2.021 . S
Co692 O716 2.062 . S
C693 N695 1.316 . S
C693 N696 1.347 . S
C693 H698 0.931 . S
C694 N695 1.375 . S
C694 C697 1.350 . S
C694 H699 0.930 . S
N695 Co690 2.057 1_556 S
N695 C693 1.316 . S
N695 C694 1.375 . S
N696 C693 1.347 . S
N696 C697 1.373 . S
C697 C694 1.350 . S
C697 N696 1.373 . S
C697 H718 0.931 . S
H698 C693 0.931 . S
H699 C694 0.930 . S
C700 O707 1.259 . S
C700 O708 1.258 . S
N701 Co692 2.057 . S
N701 C702 1.316 . S
N701 C703 1.375 . S
C702 N701 1.316 . S
C702 N704 1.347 . S
C702 H713 0.931 . S
C703 N701 1.375 . S
C703 C705 1.350 . S
C703 H712 0.930 . S
N704 C702 1.347 . S
N704 C705 1.373 . S
C705 C703 1.350 . S
C705 N704 1.373 . S
C705 H719 0.931 . S
C706 O709 1.256 . S
C706 O710 1.255 . S
O707 Co690 2.021 . S
O707 C700 1.259 . S
O708 Co692 2.117 . S
O708 C700 1.258 . S
O709 Co692 2.020 . S
O709 C706 1.256 . S
O710 Co690 2.062 . S
O710 C706 1.255 . S
O711 C691 1.259 . S
O711 Co692 2.021 . S
H712 C703 0.930 . S
H713 C702 0.931 . S
O714 Co690 2.117 . S
O714 C691 1.258 . S
O715 Co690 2.020 . S
O715 C717 1.256 . S
O716 Co692 2.062 . S
O716 C717 1.255 . S
C717 O715 1.256 . S
C717 O716 1.255 . S
H718 C697 0.931 . S
H719 C705 0.931 . S
Co720 N725 2.057 . S
Co720 O737 2.021 . S
Co720 O740 2.062 . S
Co720 O744 2.117 . S
Co720 O745 2.020 . S
C721 O741 1.259 . S
C721 O744 1.258 . S
Co722 N731 2.057 . S
Co722 O738 2.117 . S
Co722 O739 2.020 . S
Co722 O741 2.021 . S
Co722 O746 2.062 . S
C723 N725 1.316 . S
C723 N726 1.347 . S
C723 H728 0.931 . S
C724 N725 1.375 . S
C724 C727 1.350 . S
C724 H729 0.930 . S
N725 Co720 2.057 . S
N725 C723 1.316 . S
N725 C724 1.375 . S
N726 C723 1.347 . S
N726 C727 1.373 . S
C727 C724 1.350 . S
C727 N726 1.373 . S
C727 H748 0.931 . S
H728 C723 0.931 . S
H729 C724 0.930 . S
C730 O737 1.259 . S
C730 O738 1.258 . S
N731 Co722 2.057 . S
N731 C732 1.316 . S
N731 C733 1.375 . S
C732 N731 1.316 . S
C732 N734 1.347 . S
C732 H743 0.931 . S
C733 N731 1.375 . S
C733 C735 1.350 . S
C733 H742 0.930 . S
N734 C732 1.347 . S
N734 C735 1.373 . S
C735 C733 1.350 . S
C735 N734 1.373 . S
C735 H749 0.931 . S
C736 O739 1.256 . S
C736 O740 1.255 . S
O737 Co720 2.021 . S
O737 C730 1.259 . S
O738 Co722 2.117 . S
O738 C730 1.258 . S
O739 Co722 2.020 . S
O739 C736 1.256 . S
O740 Co720 2.062 . S
O740 C736 1.255 . S
O741 C721 1.259 . S
O741 Co722 2.021 . S
H742 C733 0.930 . S
H743 C732 0.931 . S
O744 Co720 2.117 . S
O744 C721 1.258 . S
O745 Co720 2.020 . S
O745 C747 1.256 . S
O746 Co722 2.062 . S
O746 C747 1.255 . S
C747 O745 1.256 . S
C747 O746 1.255 . S
H748 C727 0.931 . S
H749 C735 0.931 . S
Co750 N755 2.057 . S
Co750 O767 2.021 . S
Co750 O770 2.062 . S
Co750 O774 2.117 . S
Co750 O775 2.020 . S
C751 O771 1.259 . S
C751 O774 1.258 . S
Co752 N761 2.057 . S
Co752 O768 2.117 . S
Co752 O769 2.020 . S
Co752 O771 2.021 . S
Co752 O776 2.062 . S
C753 N755 1.316 . S
C753 N756 1.347 . S
C753 H758 0.931 . S
C754 N755 1.375 . S
C754 C757 1.350 . S
C754 H759 0.930 . S
N755 Co750 2.057 . S
N755 C753 1.316 . S
N755 C754 1.375 . S
N756 C753 1.347 . S
N756 C757 1.373 . S
C757 C754 1.350 . S
C757 N756 1.373 . S
C757 H778 0.931 . S
H758 C753 0.931 . S
H759 C754 0.930 . S
C760 O767 1.259 . S
C760 O768 1.258 . S
N761 Co752 2.057 . S
N761 C762 1.316 . S
N761 C763 1.375 . S
C762 N761 1.316 . S
C762 N764 1.347 . S
C762 H773 0.931 . S
C763 N761 1.375 . S
C763 C765 1.350 . S
C763 H772 0.930 . S
N764 C762 1.347 . S
N764 C765 1.373 . S
C765 C763 1.350 . S
C765 N764 1.373 . S
C765 H779 0.931 . S
C766 O769 1.256 . S
C766 O770 1.255 . S
O767 Co750 2.021 . S
O767 C760 1.259 . S
O768 Co752 2.117 . S
O768 C760 1.258 . S
O769 Co752 2.020 . S
O769 C766 1.256 . S
O770 Co750 2.062 . S
O770 C766 1.255 . S
O771 C751 1.259 . S
O771 Co752 2.021 . S
H772 C763 0.930 . S
H773 C762 0.931 . S
O774 Co750 2.117 . S
O774 C751 1.258 . S
O775 Co750 2.020 . S
O775 C777 1.256 . S
O776 Co752 2.062 . S
O776 C777 1.255 . S
C777 O775 1.256 . S
C777 O776 1.255 . S
H778 C757 0.931 . S
H779 C765 0.931 . S
Co780 N785 2.057 . S
Co780 O797 2.021 . S
Co780 O800 2.062 . S
Co780 O804 2.117 . S
Co780 O805 2.020 . S
C781 O801 1.259 . S
C781 O804 1.258 . S
Co782 N791 2.057 . S
Co782 O798 2.117 . S
Co782 O799 2.020 . S
Co782 O801 2.021 . S
Co782 O806 2.062 . S
C783 N785 1.316 . S
C783 N786 1.347 . S
C783 H788 0.931 . S
C784 N785 1.375 . S
C784 C787 1.350 . S
C784 H789 0.930 . S
N785 Co780 2.057 . S
N785 C783 1.316 . S
N785 C784 1.375 . S
N786 C783 1.347 . S
N786 C787 1.373 . S
C787 C784 1.350 . S
C787 N786 1.373 . S
C787 H808 0.931 . S
H788 C783 0.931 . S
H789 C784 0.930 . S
C790 O797 1.259 . S
C790 O798 1.258 . S
N791 Co782 2.057 . S
N791 C792 1.316 . S
N791 C793 1.375 . S
C792 N791 1.316 . S
C792 N794 1.347 . S
C792 H803 0.931 . S
C793 N791 1.375 . S
C793 C795 1.350 . S
C793 H802 0.930 . S
N794 C792 1.347 . S
N794 C795 1.373 . S
C795 C793 1.350 . S
C795 N794 1.373 . S
C795 H809 0.931 . S
C796 O799 1.256 . S
C796 O800 1.255 . S
O797 Co780 2.021 . S
O797 C790 1.259 . S
O798 Co782 2.117 . S
O798 C790 1.258 . S
O799 Co782 2.020 . S
O799 C796 1.256 . S
O800 Co780 2.062 . S
O800 C796 1.255 . S
O801 C781 1.259 . S
O801 Co782 2.021 . S
H802 C793 0.930 . S
H803 C792 0.931 . S
O804 Co780 2.117 . S
O804 C781 1.258 . S
O805 Co780 2.020 . S
O805 C807 1.256 . S
O806 Co782 2.062 . S
O806 C807 1.255 . S
C807 O805 1.256 . S
C807 O806 1.255 . S
H808 C787 0.931 . S
H809 C795 0.931 . S
Co810 N815 2.057 . S
Co810 O827 2.021 . S
Co810 O830 2.062 . S
Co810 O834 2.117 . S
Co810 O835 2.020 . S
C811 O831 1.259 . S
C811 O834 1.258 . S
Co812 N821 2.057 . S
Co812 O828 2.117 . S
Co812 O829 2.020 . S
Co812 O831 2.021 . S
Co812 O836 2.062 . S
C813 N815 1.316 . S
C813 N816 1.347 . S
C813 H818 0.931 . S
C814 N815 1.375 . S
C814 C817 1.350 . S
C814 H819 0.930 . S
N815 Co810 2.057 . S
N815 C813 1.316 . S
N815 C814 1.375 . S
N816 C813 1.347 . S
N816 C817 1.373 . S
C817 C814 1.350 . S
C817 N816 1.373 . S
C817 H838 0.931 . S
H818 C813 0.931 . S
H819 C814 0.930 . S
C820 O827 1.259 . S
C820 O828 1.258 . S
N821 Co812 2.057 . S
N821 C822 1.316 . S
N821 C823 1.375 . S
C822 N821 1.316 . S
C822 N824 1.347 . S
C822 H833 0.931 . S
C823 N821 1.375 . S
C823 C825 1.350 . S
C823 H832 0.930 . S
N824 C822 1.347 . S
N824 C825 1.373 . S
C825 C823 1.350 . S
C825 N824 1.373 . S
C825 H839 0.931 . S
C826 O829 1.256 . S
C826 O830 1.255 . S
O827 Co810 2.021 . S
O827 C820 1.259 . S
O828 Co812 2.117 . S
O828 C820 1.258 . S
O829 Co812 2.020 . S
O829 C826 1.256 . S
O830 Co810 2.062 . S
O830 C826 1.255 . S
O831 C811 1.259 . S
O831 Co812 2.021 . S
H832 C823 0.930 . S
H833 C822 0.931 . S
O834 Co810 2.117 . S
O834 C811 1.258 . S
O835 Co810 2.020 . S
O835 C837 1.256 . S
O836 Co812 2.062 . S
O836 C837 1.255 . S
C837 O835 1.256 . S
C837 O836 1.255 . S
H838 C817 0.931 . S
H839 C825 0.931 . S
Co840 N845 2.057 . S
Co840 O857 2.021 . S
Co840 O860 2.062 . S
Co840 O864 2.117 . S
Co840 O865 2.020 . S
C841 O861 1.259 . S
C841 O864 1.258 . S
Co842 N851 2.057 . S
Co842 O858 2.117 . S
Co842 O859 2.020 . S
Co842 O861 2.021 . S
Co842 O866 2.062 . S
C843 N845 1.316 . S
C843 N846 1.347 . S
C843 H848 0.931 . S
C844 N845 1.375 . S
C844 C847 1.350 . S
C844 H849 0.930 . S
N845 Co840 2.057 . S
N845 C843 1.316 . S
N845 C844 1.375 . S
N846 C843 1.347 . S
N846 C847 1.373 . S
C847 C844 1.350 . S
C847 N846 1.373 . S
C847 H868 0.931 . S
H848 C843 0.931 . S
H849 C844 0.930 . S
C850 O857 1.259 . S
C850 O858 1.258 . S
N851 Co842 2.057 . S
N851 C852 1.316 . S
N851 C853 1.375 . S
C852 N851 1.316 . S
C852 N854 1.347 . S
C852 H863 0.931 . S
C853 N851 1.375 . S
C853 C855 1.350 . S
C853 H862 0.930 . S
N854 C852 1.347 . S
N854 C855 1.373 . S
C855 C853 1.350 . S
C855 N854 1.373 . S
C855 H869 0.931 . S
C856 O859 1.256 . S
C856 O860 1.255 . S
O857 Co840 2.021 . S
O857 C850 1.259 . S
O858 Co842 2.117 . S
O858 C850 1.258 . S
O859 Co842 2.020 . S
O859 C856 1.256 . S
O860 Co840 2.062 . S
O860 C856 1.255 . S
O861 C841 1.259 . S
O861 Co842 2.021 . S
H862 C853 0.930 . S
H863 C852 0.931 . S
O864 Co840 2.117 . S
O864 C841 1.258 . S
O865 Co840 2.020 . S
O865 C867 1.256 . S
O866 Co842 2.062 . S
O866 C867 1.255 . S
C867 O865 1.256 . S
C867 O866 1.255 . S
H868 C847 0.931 . S
H869 C855 0.931 . S
Co870 N875 2.057 . S
Co870 O887 2.021 . S
Co870 O890 2.062 . S
Co870 O894 2.117 . S
Co870 O895 2.020 . S
C871 O891 1.259 . S
C871 O894 1.258 . S
Co872 N881 2.057 . S
Co872 O888 2.117 . S
Co872 O889 2.020 . S
Co872 O891 2.021 . S
Co872 O896 2.062 . S
C873 N875 1.316 . S
C873 N876 1.347 . S
C873 H878 0.931 . S
C874 N875 1.375 . S
C874 C877 1.350 . S
C874 H879 0.930 . S
N875 Co870 2.057 . S
N875 C873 1.316 . S
N875 C874 1.375 . S
N876 C873 1.347 . S
N876 C877 1.373 . S
C877 C874 1.350 . S
C877 N876 1.373 . S
C877 H898 0.931 . S
H878 C873 0.931 . S
H879 C874 0.930 . S
C880 O887 1.259 . S
C880 O888 1.258 . S
N881 Co872 2.057 . S
N881 C882 1.316 . S
N881 C883 1.375 . S
C882 N881 1.316 . S
C882 N884 1.347 . S
C882 H893 0.931 . S
C883 N881 1.375 . S
C883 C885 1.350 . S
C883 H892 0.930 . S
N884 C882 1.347 . S
N884 C885 1.373 . S
C885 C883 1.350 . S
C885 N884 1.373 . S
C885 H899 0.931 . S
C886 O889 1.256 . S
C886 O890 1.255 . S
O887 Co870 2.021 . S
O887 C880 1.259 . S
O888 Co872 2.117 . S
O888 C880 1.258 . S
O889 Co872 2.020 . S
O889 C886 1.256 . S
O890 Co870 2.062 . S
O890 C886 1.255 . S
O891 C871 1.259 . S
O891 Co872 2.021 . S
H892 C883 0.930 . S
H893 C882 0.931 . S
O894 Co870 2.117 . S
O894 C871 1.258 . S
O895 Co870 2.020 . S
O895 C897 1.256 . S
O896 Co872 2.062 . S
O896 C897 1.255 . S
C897 O895 1.256 . S
C897 O896 1.255 . S
H898 C877 0.931 . S
H899 C885 0.931 . S
Co900 N905 2.057 . S
Co900 O917 2.021 . S
Co900 O920 2.062 . S
Co900 O924 2.117 . S
Co900 O925 2.020 . S
C901 O921 1.259 . S
C901 O924 1.258 . S
Co902 N911 2.057 . S
Co902 O918 2.117 . S
Co902 O919 2.020 . S
Co902 O921 2.021 . S
Co902 O926 2.062 . S
C903 N905 1.316 . S
C903 N906 1.347 . S
C903 H908 0.931 . S
C904 N905 1.375 . S
C904 C907 1.350 . S
C904 H909 0.930 . S
N905 Co900 2.057 . S
N905 C903 1.316 . S
N905 C904 1.375 . S
N906 C903 1.347 . S
N906 C907 1.373 . S
C907 C904 1.350 . S
C907 N906 1.373 . S
C907 H928 0.931 . S
H908 C903 0.931 . S
H909 C904 0.930 . S
C910 O917 1.259 . S
C910 O918 1.258 . S
N911 Co902 2.057 . S
N911 C912 1.316 . S
N911 C913 1.375 . S
C912 N911 1.316 . S
C912 N914 1.347 . S
C912 H923 0.931 . S
C913 N911 1.375 . S
C913 C915 1.350 . S
C913 H922 0.930 . S
N914 C912 1.347 . S
N914 C915 1.373 . S
C915 C913 1.350 . S
C915 N914 1.373 . S
C915 H929 0.931 . S
C916 O919 1.256 . S
C916 O920 1.255 . S
O917 Co900 2.021 . S
O917 C910 1.259 . S
O918 Co902 2.117 . S
O918 C910 1.258 . S
O919 Co902 2.020 . S
O919 C916 1.256 . S
O920 Co900 2.062 . S
O920 C916 1.255 . S
O921 C901 1.259 . S
O921 Co902 2.021 . S
H922 C913 0.930 . S
H923 C912 0.931 . S
O924 Co900 2.117 . S
O924 C901 1.258 . S
O925 Co900 2.020 . S
O925 C927 1.256 . S
O926 Co902 2.062 . S
O926 C927 1.255 . S
C927 O925 1.256 . S
C927 O926 1.255 . S
H928 C907 0.931 . S
H929 C915 0.931 . S
Co930 N935 2.057 . S
Co930 O947 2.021 . S
Co930 O950 2.062 . S
Co930 O954 2.117 . S
Co930 O955 2.020 . S
C931 O951 1.259 . S
C931 O954 1.258 . S
Co932 N941 2.057 . S
Co932 O948 2.117 . S
Co932 O949 2.020 . S
Co932 O951 2.021 . S
Co932 O956 2.062 . S
C933 N935 1.316 . S
C933 N936 1.347 . S
C933 H938 0.931 . S
C934 N935 1.375 . S
C934 C937 1.350 . S
C934 H939 0.930 . S
N935 Co930 2.057 . S
N935 C933 1.316 . S
N935 C934 1.375 . S
N936 C933 1.347 . S
N936 C937 1.373 . S
C937 C934 1.350 . S
C937 N936 1.373 . S
C937 H958 0.931 . S
H938 C933 0.931 . S
H939 C934 0.930 . S
C940 O947 1.259 . S
C940 O948 1.258 . S
N941 Co932 2.057 . S
N941 C942 1.316 . S
N941 C943 1.375 . S
C942 N941 1.316 . S
C942 N944 1.347 . S
C942 H953 0.931 . S
C943 N941 1.375 . S
C943 C945 1.350 . S
C943 H952 0.930 . S
N944 C942 1.347 . S
N944 C945 1.373 . S
C945 C943 1.350 . S
C945 N944 1.373 . S
C945 H959 0.931 . S
C946 O949 1.256 . S
C946 O950 1.255 . S
O947 Co930 2.021 . S
O947 C940 1.259 . S
O948 Co932 2.117 . S
O948 C940 1.258 . S
O949 Co932 2.020 . S
O949 C946 1.256 . S
O950 Co930 2.062 . S
O950 C946 1.255 . S
O951 C931 1.259 . S
O951 Co932 2.021 . S
H952 C943 0.930 . S
H953 C942 0.931 . S
O954 Co930 2.117 . S
O954 C931 1.258 . S
O955 Co930 2.020 . S
O955 C957 1.256 . S
O956 Co932 2.062 . S
O956 C957 1.255 . S
C957 O955 1.256 . S
C957 O956 1.255 . S
H958 C937 0.931 . S
H959 C945 0.931 . S
Co960 N965 2.057 . S
Co960 O977 2.021 . S
Co960 O980 2.062 . S
Co960 O984 2.117 . S
Co960 O985 2.020 . S
C961 O981 1.259 . S
C961 O984 1.258 . S
Co962 N971 2.057 . S
Co962 O978 2.117 . S
Co962 O979 2.020 . S
Co962 O981 2.021 . S
Co962 O986 2.062 . S
C963 N965 1.316 . S
C963 N966 1.347 . S
C963 H968 0.931 . S
C964 N965 1.375 . S
C964 C967 1.350 . S
C964 H969 0.930 . S
N965 Co960 2.057 . S
N965 C963 1.316 . S
N965 C964 1.375 . S
N966 C963 1.347 . S
N966 C967 1.373 . S
C967 C964 1.350 . S
C967 N966 1.373 . S
C967 H988 0.931 . S
H968 C963 0.931 . S
H969 C964 0.930 . S
C970 O977 1.259 . S
C970 O978 1.258 . S
N971 Co962 2.057 . S
N971 C972 1.316 . S
N971 C973 1.375 . S
C972 N971 1.316 . S
C972 N974 1.347 . S
C972 H983 0.931 . S
C973 N971 1.375 . S
C973 C975 1.350 . S
C973 H982 0.930 . S
N974 C972 1.347 . S
N974 C975 1.373 . S
C975 C973 1.350 . S
C975 N974 1.373 . S
C975 H989 0.931 . S
C976 O979 1.256 . S
C976 O980 1.255 . S
O977 Co960 2.021 . S
O977 C970 1.259 . S
O978 Co962 2.117 . S
O978 C970 1.258 . S
O979 Co962 2.020 . S
O979 C976 1.256 . S
O980 Co960 2.062 . S
O980 C976 1.255 . S
O981 C961 1.259 . S
O981 Co962 2.021 . S
H982 C973 0.930 . S
H983 C972 0.931 . S
O984 Co960 2.117 . S
O984 C961 1.258 . S
O985 Co960 2.020 . S
O985 C987 1.256 . S
O986 Co962 2.062 . S
O986 C987 1.255 . S
C987 O985 1.256 . S
C987 O986 1.255 . S
H988 C967 0.931 . S
H989 C975 0.931 . S
Co990 N995 2.057 . S
Co990 O1007 2.021 . S
Co990 O1010 2.062 . S
Co990 O1014 2.117 . S
Co990 O1015 2.020 . S
C991 O1011 1.259 . S
C991 O1014 1.258 . S
Co992 N1001 2.057 . S
Co992 O1008 2.117 . S
Co992 O1009 2.020 . S
Co992 O1011 2.021 . S
Co992 O1016 2.062 . S
C993 N995 1.316 . S
C993 N996 1.347 . S
C993 H998 0.931 . S
C994 N995 1.375 . S
C994 C997 1.350 . S
C994 H999 0.930 . S
N995 Co990 2.057 . S
N995 C993 1.316 . S
N995 C994 1.375 . S
N996 C993 1.347 . S
N996 C997 1.373 . S
C997 C994 1.350 . S
C997 N996 1.373 . S
C997 H1018 0.931 . S
H998 C993 0.931 . S
H999 C994 0.930 . S
C1000 O1007 1.259 . S
C1000 O1008 1.258 . S
N1001 Co992 2.057 . S
N1001 C1002 1.316 . S
N1001 C1003 1.375 . S
C1002 N1001 1.316 . S
C1002 N1004 1.347 . S
C1002 H1013 0.931 . S
C1003 N1001 1.375 . S
C1003 C1005 1.350 . S
C1003 H1012 0.930 . S
N1004 C1002 1.347 . S
N1004 C1005 1.373 . S
C1005 C1003 1.350 . S
C1005 N1004 1.373 . S
C1005 H1019 0.931 . S
C1006 O1009 1.256 . S
C1006 O1010 1.255 . S
O1007 Co990 2.021 . S
O1007 C1000 1.259 . S
O1008 Co992 2.117 . S
O1008 C1000 1.258 . S
O1009 Co992 2.020 . S
O1009 C1006 1.256 . S
O1010 Co990 2.062 . S
O1010 C1006 1.255 . S
O1011 C991 1.259 . S
O1011 Co992 2.021 . S
H1012 C1003 0.930 . S
H1013 C1002 0.931 . S
O1014 Co990 2.117 . S
O1014 C991 1.258 . S
O1015 Co990 2.020 . S
O1015 C1017 1.256 . S
O1016 Co992 2.062 . S
O1016 C1017 1.255 . S
C1017 O1015 1.256 . S
C1017 O1016 1.255 . S
H1018 C997 0.931 . S
H1019 C1005 0.931 . S
Co1020 N1025 2.057 . S
Co1020 O1037 2.021 . S
Co1020 O1040 2.062 . S
Co1020 O1044 2.117 . S
Co1020 O1045 2.020 . S
C1021 O1041 1.259 . S
C1021 O1044 1.258 . S
Co1022 N1031 2.057 . S
Co1022 O1038 2.117 . S
Co1022 O1039 2.020 . S
Co1022 O1041 2.021 . S
Co1022 O1046 2.062 . S
C1023 N1025 1.316 . S
C1023 N1026 1.347 . S
C1023 H1028 0.931 . S
C1024 N1025 1.375 . S
C1024 C1027 1.350 . S
C1024 H1029 0.930 . S
N1025 Co1020 2.057 . S
N1025 C1023 1.316 . S
N1025 C1024 1.375 . S
N1026 C1023 1.347 . S
N1026 C1027 1.373 . S
C1027 C1024 1.350 . S
C1027 N1026 1.373 . S
C1027 H1048 0.931 . S
H1028 C1023 0.931 . S
H1029 C1024 0.930 . S
C1030 O1037 1.259 . S
C1030 O1038 1.258 . S
N1031 Co1022 2.057 . S
N1031 C1032 1.316 . S
N1031 C1033 1.375 . S
C1032 N1031 1.316 . S
C1032 N1034 1.347 . S
C1032 H1043 0.931 . S
C1033 N1031 1.375 . S
C1033 C1035 1.350 . S
C1033 H1042 0.930 . S
N1034 C1032 1.347 . S
N1034 C1035 1.373 . S
C1035 C1033 1.350 . S
C1035 N1034 1.373 . S
C1035 H1049 0.931 . S
C1036 O1039 1.256 . S
C1036 O1040 1.255 . S
O1037 Co1020 2.021 . S
O1037 C1030 1.259 . S
O1038 Co1022 2.117 . S
O1038 C1030 1.258 . S
O1039 Co1022 2.020 . S
O1039 C1036 1.256 . S
O1040 Co1020 2.062 . S
O1040 C1036 1.255 . S
O1041 C1021 1.259 . S
O1041 Co1022 2.021 . S
H1042 C1033 0.930 . S
H1043 C1032 0.931 . S
O1044 Co1020 2.117 . S
O1044 C1021 1.258 . S
O1045 Co1020 2.020 . S
O1045 C1047 1.256 . S
O1046 Co1022 2.062 . S
O1046 C1047 1.255 . S
C1047 O1045 1.256 . S
C1047 O1046 1.255 . S
H1048 C1027 0.931 . S
H1049 C1035 0.931 . S
Co1050 N1055 2.057 . S
Co1050 O1067 2.021 . S
Co1050 O1070 2.062 . S
Co1050 O1074 2.117 . S
Co1050 O1075 2.020 . S
C1051 O1071 1.259 . S
C1051 O1074 1.258 . S
Co1052 N1061 2.057 . S
Co1052 O1068 2.117 . S
Co1052 O1069 2.020 . S
Co1052 O1071 2.021 . S
Co1052 O1076 2.062 . S
C1053 N1055 1.316 . S
C1053 N1056 1.347 . S
C1053 H1058 0.931 . S
C1054 N1055 1.375 . S
C1054 C1057 1.350 . S
C1054 H1059 0.930 . S
N1055 Co1050 2.057 . S
N1055 C1053 1.316 . S
N1055 C1054 1.375 . S
N1056 C1053 1.347 . S
N1056 C1057 1.373 . S
C1057 C1054 1.350 . S
C1057 N1056 1.373 . S
C1057 H1078 0.931 . S
H1058 C1053 0.931 . S
H1059 C1054 0.930 . S
C1060 O1067 1.259 . S
C1060 O1068 1.258 . S
N1061 Co1052 2.057 . S
N1061 C1062 1.316 . S
N1061 C1063 1.375 . S
C1062 N1061 1.316 . S
C1062 N1064 1.347 . S
C1062 H1073 0.931 . S
C1063 N1061 1.375 . S
C1063 C1065 1.350 . S
C1063 H1072 0.930 . S
N1064 C1062 1.347 . S
N1064 C1065 1.373 . S
C1065 C1063 1.350 . S
C1065 N1064 1.373 . S
C1065 H1079 0.931 . S
C1066 O1069 1.256 . S
C1066 O1070 1.255 . S
O1067 Co1050 2.021 . S
O1067 C1060 1.259 . S
O1068 Co1052 2.117 . S
O1068 C1060 1.258 . S
O1069 Co1052 2.020 . S
O1069 C1066 1.256 . S
O1070 Co1050 2.062 . S
O1070 C1066 1.255 . S
O1071 C1051 1.259 . S
O1071 Co1052 2.021 . S
H1072 C1063 0.930 . S
H1073 C1062 0.931 . S
O1074 Co1050 2.117 . S
O1074 C1051 1.258 . S
O1075 Co1050 2.020 . S
O1075 C1077 1.256 . S
O1076 Co1052 2.062 . S
O1076 C1077 1.255 . S
C1077 O1075 1.256 . S
C1077 O1076 1.255 . S
H1078 C1057 0.931 . S
H1079 C1065 0.931 . S
Co1080 N1085 2.057 . S
Co1080 O1097 2.021 . S
Co1080 O1100 2.062 . S
Co1080 O1104 2.117 . S
Co1080 O1105 2.020 . S
C1081 O1101 1.259 . S
C1081 O1104 1.258 . S
Co1082 N1091 2.057 . S
Co1082 O1098 2.117 . S
Co1082 O1099 2.020 . S
Co1082 O1101 2.021 . S
Co1082 O1106 2.062 . S
C1083 N1085 1.316 . S
C1083 N1086 1.347 . S
C1083 H1088 0.931 . S
C1084 N1085 1.375 . S
C1084 C1087 1.350 . S
C1084 H1089 0.930 . S
N1085 Co1080 2.057 . S
N1085 C1083 1.316 . S
N1085 C1084 1.375 . S
N1086 C1083 1.347 . S
N1086 C1087 1.373 . S
C1087 C1084 1.350 . S
C1087 N1086 1.373 . S
C1087 H1108 0.931 . S
H1088 C1083 0.931 . S
H1089 C1084 0.930 . S
C1090 O1097 1.259 . S
C1090 O1098 1.258 . S
N1091 Co1082 2.057 . S
N1091 C1092 1.316 . S
N1091 C1093 1.375 . S
C1092 N1091 1.316 . S
C1092 N1094 1.347 . S
C1092 H1103 0.931 . S
C1093 N1091 1.375 . S
C1093 C1095 1.350 . S
C1093 H1102 0.930 . S
N1094 C1092 1.347 . S
N1094 C1095 1.373 . S
C1095 C1093 1.350 . S
C1095 N1094 1.373 . S
C1095 H1109 0.931 . S
C1096 O1099 1.256 . S
C1096 O1100 1.255 . S
O1097 Co1080 2.021 . S
O1097 C1090 1.259 . S
O1098 Co1082 2.117 . S
O1098 C1090 1.258 . S
O1099 Co1082 2.020 . S
O1099 C1096 1.256 . S
O1100 Co1080 2.062 . S
O1100 C1096 1.255 . S
O1101 C1081 1.259 . S
O1101 Co1082 2.021 . S
H1102 C1093 0.930 . S
H1103 C1092 0.931 . S
O1104 Co1080 2.117 . S
O1104 C1081 1.258 . S
O1105 Co1080 2.020 . S
O1105 C1107 1.256 . S
O1106 Co1082 2.062 . S
O1106 C1107 1.255 . S
C1107 O1105 1.256 . S
C1107 O1106 1.255 . S
H1108 C1087 0.931 . S
H1109 C1095 0.931 . S
Co1110 N1115 2.057 . S
Co1110 O1127 2.021 . S
Co1110 O1130 2.062 . S
Co1110 O1134 2.117 . S
Co1110 O1135 2.020 . S
C1111 O1131 1.259 . S
C1111 O1134 1.258 1_545 S
Co1112 N1121 2.057 . S
Co1112 O1128 2.117 . S
Co1112 O1129 2.020 . S
Co1112 O1131 2.021 1_565 S
Co1112 O1136 2.062 . S
C1113 N1115 1.316 . S
C1113 N1116 1.347 . S
C1113 H1118 0.931 . S
C1114 N1115 1.375 . S
C1114 C1117 1.350 . S
C1114 H1119 0.930 . S
N1115 Co1110 2.057 . S
N1115 C1113 1.316 . S
N1115 C1114 1.375 . S
N1116 C1113 1.347 . S
N1116 C1117 1.373 . S
C1117 C1114 1.350 . S
C1117 N1116 1.373 . S
C1117 H1138 0.931 . S
H1118 C1113 0.931 . S
H1119 C1114 0.930 . S
C1120 O1127 1.259 . S
C1120 O1128 1.258 . S
N1121 Co1112 2.057 . S
N1121 C1122 1.316 . S
N1121 C1123 1.375 . S
C1122 N1121 1.316 . S
C1122 N1124 1.347 . S
C1122 H1133 0.931 1_565 S
C1123 N1121 1.375 . S
C1123 C1125 1.350 . S
C1123 H1132 0.930 . S
N1124 C1122 1.347 . S
N1124 C1125 1.373 . S
C1125 C1123 1.350 . S
C1125 N1124 1.373 . S
C1125 H1139 0.931 . S
C1126 O1129 1.256 . S
C1126 O1130 1.255 . S
O1127 Co1110 2.021 . S
O1127 C1120 1.259 . S
O1128 Co1112 2.117 . S
O1128 C1120 1.258 . S
O1129 Co1112 2.020 . S
O1129 C1126 1.256 . S
O1130 Co1110 2.062 . S
O1130 C1126 1.255 . S
O1131 C1111 1.259 . S
O1131 Co1112 2.021 1_545 S
H1132 C1123 0.930 . S
H1133 C1122 0.931 1_545 S
O1134 Co1110 2.117 . S
O1134 C1111 1.258 1_565 S
O1135 Co1110 2.020 . S
O1135 C1137 1.256 . S
O1136 Co1112 2.062 . S
O1136 C1137 1.255 . S
C1137 O1135 1.256 . S
C1137 O1136 1.255 . S
H1138 C1117 0.931 . S
H1139 C1125 0.931 . S
Co1140 N1145 2.057 . S
Co1140 O1157 2.021 . S
Co1140 O1160 2.062 . S
Co1140 O1164 2.117 . S
Co1140 O1165 2.020 . S
C1141 O1161 1.259 . S
C1141 O1164 1.258 . S
Co1142 N1151 2.057 . S
Co1142 O1158 2.117 . S
Co1142 O1159 2.020 . S
Co1142 O1161 2.021 . S
Co1142 O1166 2.062 . S
C1143 N1145 1.316 . S
C1143 N1146 1.347 . S
C1143 H1148 0.931 . S
C1144 N1145 1.375 . S
C1144 C1147 1.350 . S
C1144 H1149 0.930 . S
N1145 Co1140 2.057 . S
N1145 C1143 1.316 . S
N1145 C1144 1.375 . S
N1146 C1143 1.347 . S
N1146 C1147 1.373 . S
C1147 C1144 1.350 . S
C1147 N1146 1.373 . S
C1147 H1168 0.931 . S
H1148 C1143 0.931 . S
H1149 C1144 0.930 . S
C1150 O1157 1.259 . S
C1150 O1158 1.258 . S
N1151 Co1142 2.057 . S
N1151 C1152 1.316 . S
N1151 C1153 1.375 . S
C1152 N1151 1.316 . S
C1152 N1154 1.347 . S
C1152 H1163 0.931 . S
C1153 N1151 1.375 . S
C1153 C1155 1.350 . S
C1153 H1162 0.930 . S
N1154 C1152 1.347 . S
N1154 C1155 1.373 . S
C1155 C1153 1.350 . S
C1155 N1154 1.373 . S
C1155 H1169 0.931 . S
C1156 O1159 1.256 . S
C1156 O1160 1.255 . S
O1157 Co1140 2.021 . S
O1157 C1150 1.259 . S
O1158 Co1142 2.117 . S
O1158 C1150 1.258 . S
O1159 Co1142 2.020 . S
O1159 C1156 1.256 . S
O1160 Co1140 2.062 . S
O1160 C1156 1.255 . S
O1161 C1141 1.259 . S
O1161 Co1142 2.021 . S
H1162 C1153 0.930 . S
H1163 C1152 0.931 . S
O1164 Co1140 2.117 . S
O1164 C1141 1.258 . S
O1165 Co1140 2.020 . S
O1165 C1167 1.256 . S
O1166 Co1142 2.062 . S
O1166 C1167 1.255 . S
C1167 O1165 1.256 . S
C1167 O1166 1.255 . S
H1168 C1147 0.931 . S
H1169 C1155 0.931 . S
Co1170 N1175 2.057 . S
Co1170 O1187 2.021 . S
Co1170 O1190 2.062 . S
Co1170 O1194 2.117 . S
Co1170 O1195 2.020 . S
C1171 O1191 1.259 . S
C1171 O1194 1.258 . S
Co1172 N1181 2.057 . S
Co1172 O1188 2.117 . S
Co1172 O1189 2.020 . S
Co1172 O1191 2.021 . S
Co1172 O1196 2.062 . S
C1173 N1175 1.316 . S
C1173 N1176 1.347 . S
C1173 H1178 0.931 . S
C1174 N1175 1.375 . S
C1174 C1177 1.350 . S
C1174 H1179 0.930 . S
N1175 Co1170 2.057 . S
N1175 C1173 1.316 . S
N1175 C1174 1.375 . S
N1176 C1173 1.347 . S
N1176 C1177 1.373 . S
C1177 C1174 1.350 . S
C1177 N1176 1.373 . S
C1177 H1198 0.931 . S
H1178 C1173 0.931 . S
H1179 C1174 0.930 . S
C1180 O1187 1.259 . S
C1180 O1188 1.258 . S
N1181 Co1172 2.057 . S
N1181 C1182 1.316 . S
N1181 C1183 1.375 . S
C1182 N1181 1.316 . S
C1182 N1184 1.347 . S
C1182 H1193 0.931 . S
C1183 N1181 1.375 . S
C1183 C1185 1.350 . S
C1183 H1192 0.930 . S
N1184 C1182 1.347 . S
N1184 C1185 1.373 . S
C1185 C1183 1.350 . S
C1185 N1184 1.373 . S
C1185 H1199 0.931 . S
C1186 O1189 1.256 . S
C1186 O1190 1.255 . S
O1187 Co1170 2.021 . S
O1187 C1180 1.259 . S
O1188 Co1172 2.117 . S
O1188 C1180 1.258 . S
O1189 Co1172 2.020 . S
O1189 C1186 1.256 . S
O1190 Co1170 2.062 . S
O1190 C1186 1.255 . S
O1191 C1171 1.259 . S
O1191 Co1172 2.021 . S
H1192 C1183 0.930 . S
H1193 C1182 0.931 . S
O1194 Co1170 2.117 . S
O1194 C1171 1.258 . S
O1195 Co1170 2.020 . S
O1195 C1197 1.256 . S
O1196 Co1172 2.062 . S
O1196 C1197 1.255 . S
C1197 O1195 1.256 . S
C1197 O1196 1.255 . S
H1198 C1177 0.931 . S
H1199 C1185 0.931 . S
Co1200 N1205 2.057 . S
Co1200 O1217 2.021 . S
Co1200 O1220 2.062 . S
Co1200 O1224 2.117 . S
Co1200 O1225 2.020 . S
C1201 O1221 1.259 . S
C1201 O1224 1.258 1_545 S
Co1202 N1211 2.057 . S
Co1202 O1218 2.117 . S
Co1202 O1219 2.020 . S
Co1202 O1221 2.021 1_565 S
Co1202 O1226 2.062 . S
C1203 N1205 1.316 . S
C1203 N1206 1.347 . S
C1203 H1208 0.931 . S
C1204 N1205 1.375 . S
C1204 C1207 1.350 . S
C1204 H1209 0.930 . S
N1205 Co1200 2.057 . S
N1205 C1203 1.316 . S
N1205 C1204 1.375 . S
N1206 C1203 1.347 . S
N1206 C1207 1.373 . S
C1207 C1204 1.350 . S
C1207 N1206 1.373 . S
C1207 H1228 0.931 . S
H1208 C1203 0.931 . S
H1209 C1204 0.930 . S
C1210 O1217 1.259 . S
C1210 O1218 1.258 . S
N1211 Co1202 2.057 . S
N1211 C1212 1.316 . S
N1211 C1213 1.375 . S
C1212 N1211 1.316 . S
C1212 N1214 1.347 . S
C1212 H1223 0.931 1_565 S
C1213 N1211 1.375 . S
C1213 C1215 1.350 . S
C1213 H1222 0.930 . S
N1214 C1212 1.347 . S
N1214 C1215 1.373 . S
C1215 C1213 1.350 . S
C1215 N1214 1.373 . S
C1215 H1229 0.931 . S
C1216 O1219 1.256 . S
C1216 O1220 1.255 . S
O1217 Co1200 2.021 . S
O1217 C1210 1.259 . S
O1218 Co1202 2.117 . S
O1218 C1210 1.258 . S
O1219 Co1202 2.020 . S
O1219 C1216 1.256 . S
O1220 Co1200 2.062 . S
O1220 C1216 1.255 . S
O1221 C1201 1.259 . S
O1221 Co1202 2.021 1_545 S
H1222 C1213 0.930 . S
H1223 C1212 0.931 1_545 S
O1224 Co1200 2.117 . S
O1224 C1201 1.258 1_565 S
O1225 Co1200 2.020 . S
O1225 C1227 1.256 . S
O1226 Co1202 2.062 . S
O1226 C1227 1.255 . S
C1227 O1225 1.256 . S
C1227 O1226 1.255 . S
H1228 C1207 0.931 . S
H1229 C1215 0.931 . S
Co1230 N1235 2.057 . S
Co1230 O1247 2.021 . S
Co1230 O1250 2.062 . S
Co1230 O1254 2.117 . S
Co1230 O1255 2.020 . S
C1231 O1251 1.259 . S
C1231 O1254 1.258 . S
Co1232 N1241 2.057 . S
Co1232 O1248 2.117 . S
Co1232 O1249 2.020 . S
Co1232 O1251 2.021 . S
Co1232 O1256 2.062 . S
C1233 N1235 1.316 . S
C1233 N1236 1.347 . S
C1233 H1238 0.931 . S
C1234 N1235 1.375 . S
C1234 C1237 1.350 . S
C1234 H1239 0.930 . S
N1235 Co1230 2.057 . S
N1235 C1233 1.316 . S
N1235 C1234 1.375 . S
N1236 C1233 1.347 . S
N1236 C1237 1.373 . S
C1237 C1234 1.350 . S
C1237 N1236 1.373 . S
C1237 H1258 0.931 . S
H1238 C1233 0.931 . S
H1239 C1234 0.930 . S
C1240 O1247 1.259 . S
C1240 O1248 1.258 . S
N1241 Co1232 2.057 . S
N1241 C1242 1.316 . S
N1241 C1243 1.375 . S
C1242 N1241 1.316 . S
C1242 N1244 1.347 . S
C1242 H1253 0.931 . S
C1243 N1241 1.375 . S
C1243 C1245 1.350 . S
C1243 H1252 0.930 . S
N1244 C1242 1.347 . S
N1244 C1245 1.373 . S
C1245 C1243 1.350 . S
C1245 N1244 1.373 . S
C1245 H1259 0.931 . S
C1246 O1249 1.256 . S
C1246 O1250 1.255 . S
O1247 Co1230 2.021 . S
O1247 C1240 1.259 . S
O1248 Co1232 2.117 . S
O1248 C1240 1.258 . S
O1249 Co1232 2.020 . S
O1249 C1246 1.256 . S
O1250 Co1230 2.062 . S
O1250 C1246 1.255 . S
O1251 C1231 1.259 . S
O1251 Co1232 2.021 . S
H1252 C1243 0.930 . S
H1253 C1242 0.931 . S
O1254 Co1230 2.117 . S
O1254 C1231 1.258 . S
O1255 Co1230 2.020 . S
O1255 C1257 1.256 . S
O1256 Co1232 2.062 . S
O1256 C1257 1.255 . S
C1257 O1255 1.256 . S
C1257 O1256 1.255 . S
H1258 C1237 0.931 . S
H1259 C1245 0.931 . S
Co1260 N1265 2.057 . S
Co1260 O1277 2.021 . S
Co1260 O1280 2.062 . S
Co1260 O1284 2.117 . S
Co1260 O1285 2.020 . S
C1261 O1281 1.259 . S
C1261 O1284 1.258 . S
Co1262 N1271 2.057 . S
Co1262 O1278 2.117 . S
Co1262 O1279 2.020 . S
Co1262 O1281 2.021 . S
Co1262 O1286 2.062 . S
C1263 N1265 1.316 . S
C1263 N1266 1.347 . S
C1263 H1268 0.931 . S
C1264 N1265 1.375 . S
C1264 C1267 1.350 . S
C1264 H1269 0.930 . S
N1265 Co1260 2.057 . S
N1265 C1263 1.316 . S
N1265 C1264 1.375 . S
N1266 C1263 1.347 . S
N1266 C1267 1.373 . S
C1267 C1264 1.350 . S
C1267 N1266 1.373 . S
C1267 H1288 0.931 . S
H1268 C1263 0.931 . S
H1269 C1264 0.930 . S
C1270 O1277 1.259 . S
C1270 O1278 1.258 . S
N1271 Co1262 2.057 . S
N1271 C1272 1.316 . S
N1271 C1273 1.375 . S
C1272 N1271 1.316 . S
C1272 N1274 1.347 . S
C1272 H1283 0.931 . S
C1273 N1271 1.375 . S
C1273 C1275 1.350 . S
C1273 H1282 0.930 . S
N1274 C1272 1.347 . S
N1274 C1275 1.373 . S
C1275 C1273 1.350 . S
C1275 N1274 1.373 . S
C1275 H1289 0.931 . S
C1276 O1279 1.256 . S
C1276 O1280 1.255 . S
O1277 Co1260 2.021 . S
O1277 C1270 1.259 . S
O1278 Co1262 2.117 . S
O1278 C1270 1.258 . S
O1279 Co1262 2.020 . S
O1279 C1276 1.256 . S
O1280 Co1260 2.062 . S
O1280 C1276 1.255 . S
O1281 C1261 1.259 . S
O1281 Co1262 2.021 . S
H1282 C1273 0.930 . S
H1283 C1272 0.931 . S
O1284 Co1260 2.117 . S
O1284 C1261 1.258 . S
O1285 Co1260 2.020 . S
O1285 C1287 1.256 . S
O1286 Co1262 2.062 . S
O1286 C1287 1.255 . S
C1287 O1285 1.256 . S
C1287 O1286 1.255 . S
H1288 C1267 0.931 . S
H1289 C1275 0.931 . S
Co1290 N1295 2.057 . S
Co1290 O1307 2.021 . S
Co1290 O1310 2.062 . S
Co1290 O1314 2.117 . S
Co1290 O1315 2.020 . S
C1291 O1311 1.259 . S
C1291 O1314 1.258 . S
Co1292 N1301 2.057 . S
Co1292 O1308 2.117 . S
Co1292 O1309 2.020 . S
Co1292 O1311 2.021 . S
Co1292 O1316 2.062 . S
C1293 N1295 1.316 . S
C1293 N1296 1.347 . S
C1293 H1298 0.931 . S
C1294 N1295 1.375 . S
C1294 C1297 1.350 . S
C1294 H1299 0.930 . S
N1295 Co1290 2.057 . S
N1295 C1293 1.316 . S
N1295 C1294 1.375 . S
N1296 C1293 1.347 . S
N1296 C1297 1.373 . S
C1297 C1294 1.350 . S
C1297 N1296 1.373 . S
C1297 H1318 0.931 . S
H1298 C1293 0.931 . S
H1299 C1294 0.930 . S
C1300 O1307 1.259 . S
C1300 O1308 1.258 . S
N1301 Co1292 2.057 . S
N1301 C1302 1.316 . S
N1301 C1303 1.375 . S
C1302 N1301 1.316 . S
C1302 N1304 1.347 . S
C1302 H1313 0.931 . S
C1303 N1301 1.375 . S
C1303 C1305 1.350 . S
C1303 H1312 0.930 . S
N1304 C1302 1.347 . S
N1304 C1305 1.373 . S
C1305 C1303 1.350 . S
C1305 N1304 1.373 . S
C1305 H1319 0.931 . S
C1306 O1309 1.256 . S
C1306 O1310 1.255 . S
O1307 Co1290 2.021 . S
O1307 C1300 1.259 . S
O1308 Co1292 2.117 . S
O1308 C1300 1.258 . S
O1309 Co1292 2.020 . S
O1309 C1306 1.256 . S
O1310 Co1290 2.062 . S
O1310 C1306 1.255 . S
O1311 C1291 1.259 . S
O1311 Co1292 2.021 . S
H1312 C1303 0.930 . S
H1313 C1302 0.931 . S
O1314 Co1290 2.117 . S
O1314 C1291 1.258 . S
O1315 Co1290 2.020 . S
O1315 C1317 1.256 . S
O1316 Co1292 2.062 . S
O1316 C1317 1.255 . S
C1317 O1315 1.256 . S
C1317 O1316 1.255 . S
H1318 C1297 0.931 . S
H1319 C1305 0.931 . S
Co1320 N1325 2.057 . S
Co1320 O1337 2.021 . S
Co1320 O1340 2.062 . S
Co1320 O1344 2.117 . S
Co1320 O1345 2.020 . S
C1321 O1341 1.259 . S
C1321 O1344 1.258 . S
Co1322 N1331 2.057 . S
Co1322 O1338 2.117 . S
Co1322 O1339 2.020 . S
Co1322 O1341 2.021 . S
Co1322 O1346 2.062 . S
C1323 N1325 1.316 . S
C1323 N1326 1.347 . S
C1323 H1328 0.931 . S
C1324 N1325 1.375 . S
C1324 C1327 1.350 . S
C1324 H1329 0.930 . S
N1325 Co1320 2.057 . S
N1325 C1323 1.316 . S
N1325 C1324 1.375 . S
N1326 C1323 1.347 . S
N1326 C1327 1.373 . S
C1327 C1324 1.350 . S
C1327 N1326 1.373 . S
C1327 H1348 0.931 . S
H1328 C1323 0.931 . S
H1329 C1324 0.930 . S
C1330 O1337 1.259 . S
C1330 O1338 1.258 . S
N1331 Co1322 2.057 . S
N1331 C1332 1.316 . S
N1331 C1333 1.375 . S
C1332 N1331 1.316 . S
C1332 N1334 1.347 . S
C1332 H1343 0.931 . S
C1333 N1331 1.375 . S
C1333 C1335 1.350 . S
C1333 H1342 0.930 . S
N1334 C1332 1.347 . S
N1334 C1335 1.373 . S
C1335 C1333 1.350 . S
C1335 N1334 1.373 . S
C1335 H1349 0.931 . S
C1336 O1339 1.256 . S
C1336 O1340 1.255 . S
O1337 Co1320 2.021 . S
O1337 C1330 1.259 . S
O1338 Co1322 2.117 . S
O1338 C1330 1.258 . S
O1339 Co1322 2.020 . S
O1339 C1336 1.256 . S
O1340 Co1320 2.062 . S
O1340 C1336 1.255 . S
O1341 C1321 1.259 . S
O1341 Co1322 2.021 . S
H1342 C1333 0.930 . S
H1343 C1332 0.931 . S
O1344 Co1320 2.117 . S
O1344 C1321 1.258 . S
O1345 Co1320 2.020 . S
O1345 C1347 1.256 . S
O1346 Co1322 2.062 . S
O1346 C1347 1.255 . S
C1347 O1345 1.256 . S
C1347 O1346 1.255 . S
H1348 C1327 0.931 . S
H1349 C1335 0.931 . S
Co1350 N1355 2.057 . S
Co1350 O1367 2.021 . S
Co1350 O1370 2.062 . S
Co1350 O1374 2.117 . S
Co1350 O1375 2.020 . S
C1351 O1371 1.259 . S
C1351 O1374 1.258 . S
Co1352 N1361 2.057 . S
Co1352 O1368 2.117 . S
Co1352 O1369 2.020 . S
Co1352 O1371 2.021 . S
Co1352 O1376 2.062 . S
C1353 N1355 1.316 . S
C1353 N1356 1.347 . S
C1353 H1358 0.931 . S
C1354 N1355 1.375 . S
C1354 C1357 1.350 . S
C1354 H1359 0.930 . S
N1355 Co1350 2.057 . S
N1355 C1353 1.316 . S
N1355 C1354 1.375 . S
N1356 C1353 1.347 . S
N1356 C1357 1.373 . S
C1357 C1354 1.350 . S
C1357 N1356 1.373 . S
C1357 H1378 0.931 . S
H1358 C1353 0.931 . S
H1359 C1354 0.930 . S
C1360 O1367 1.259 . S
C1360 O1368 1.258 . S
N1361 Co1352 2.057 . S
N1361 C1362 1.316 . S
N1361 C1363 1.375 . S
C1362 N1361 1.316 . S
C1362 N1364 1.347 . S
C1362 H1373 0.931 . S
C1363 N1361 1.375 . S
C1363 C1365 1.350 . S
C1363 H1372 0.930 . S
N1364 C1362 1.347 . S
N1364 C1365 1.373 . S
C1365 C1363 1.350 . S
C1365 N1364 1.373 . S
C1365 H1379 0.931 . S
C1366 O1369 1.256 . S
C1366 O1370 1.255 . S
O1367 Co1350 2.021 . S
O1367 C1360 1.259 . S
O1368 Co1352 2.117 . S
O1368 C1360 1.258 . S
O1369 Co1352 2.020 . S
O1369 C1366 1.256 . S
O1370 Co1350 2.062 . S
O1370 C1366 1.255 . S
O1371 C1351 1.259 . S
O1371 Co1352 2.021 . S
H1372 C1363 0.930 . S
H1373 C1362 0.931 . S
O1374 Co1350 2.117 . S
O1374 C1351 1.258 . S
O1375 Co1350 2.020 . S
O1375 C1377 1.256 . S
O1376 Co1352 2.062 . S
O1376 C1377 1.255 . S
C1377 O1375 1.256 . S
C1377 O1376 1.255 . S
H1378 C1357 0.931 . S
H1379 C1365 0.931 . S
Co1380 N1385 2.057 . S
Co1380 O1397 2.021 . S
Co1380 O1400 2.062 . S
Co1380 O1404 2.117 . S
Co1380 O1405 2.020 . S
C1381 O1401 1.259 . S
C1381 O1404 1.258 . S
Co1382 N1391 2.057 . S
Co1382 O1398 2.117 . S
Co1382 O1399 2.020 . S
Co1382 O1401 2.021 . S
Co1382 O1406 2.062 . S
C1383 N1385 1.316 . S
C1383 N1386 1.347 . S
C1383 H1388 0.931 . S
C1384 N1385 1.375 . S
C1384 C1387 1.350 . S
C1384 H1389 0.930 . S
N1385 Co1380 2.057 . S
N1385 C1383 1.316 . S
N1385 C1384 1.375 . S
N1386 C1383 1.347 . S
N1386 C1387 1.373 . S
C1387 C1384 1.350 . S
C1387 N1386 1.373 . S
C1387 H1408 0.931 . S
H1388 C1383 0.931 . S
H1389 C1384 0.930 . S
C1390 O1397 1.259 . S
C1390 O1398 1.258 . S
N1391 Co1382 2.057 . S
N1391 C1392 1.316 . S
N1391 C1393 1.375 . S
C1392 N1391 1.316 . S
C1392 N1394 1.347 . S
C1392 H1403 0.931 . S
C1393 N1391 1.375 . S
C1393 C1395 1.350 . S
C1393 H1402 0.930 . S
N1394 C1392 1.347 . S
N1394 C1395 1.373 . S
C1395 C1393 1.350 . S
C1395 N1394 1.373 . S
C1395 H1409 0.931 . S
C1396 O1399 1.256 . S
C1396 O1400 1.255 . S
O1397 Co1380 2.021 . S
O1397 C1390 1.259 . S
O1398 Co1382 2.117 . S
O1398 C1390 1.258 . S
O1399 Co1382 2.020 . S
O1399 C1396 1.256 . S
O1400 Co1380 2.062 . S
O1400 C1396 1.255 . S
O1401 C1381 1.259 . S
O1401 Co1382 2.021 . S
H1402 C1393 0.930 . S
H1403 C1392 0.931 . S
O1404 Co1380 2.117 . S
O1404 C1381 1.258 . S
O1405 Co1380 2.020 . S
O1405 C1407 1.256 . S
O1406 Co1382 2.062 . S
O1406 C1407 1.255 . S
C1407 O1405 1.256 . S
C1407 O1406 1.255 . S
H1408 C1387 0.931 . S
H1409 C1395 0.931 . S
Co1410 N1415 2.057 . S
Co1410 O1427 2.021 . S
Co1410 O1430 2.062 . S
Co1410 O1434 2.117 . S
Co1410 O1435 2.020 . S
C1411 O1431 1.259 . S
C1411 O1434 1.258 . S
Co1412 N1421 2.057 . S
Co1412 O1428 2.117 . S
Co1412 O1429 2.020 . S
Co1412 O1431 2.021 . S
Co1412 O1436 2.062 . S
C1413 N1415 1.316 . S
C1413 N1416 1.347 . S
C1413 H1418 0.931 . S
C1414 N1415 1.375 . S
C1414 C1417 1.350 . S
C1414 H1419 0.930 . S
N1415 Co1410 2.057 . S
N1415 C1413 1.316 . S
N1415 C1414 1.375 . S
N1416 C1413 1.347 . S
N1416 C1417 1.373 . S
C1417 C1414 1.350 . S
C1417 N1416 1.373 . S
C1417 H1438 0.931 . S
H1418 C1413 0.931 . S
H1419 C1414 0.930 . S
C1420 O1427 1.259 . S
C1420 O1428 1.258 . S
N1421 Co1412 2.057 . S
N1421 C1422 1.316 . S
N1421 C1423 1.375 . S
C1422 N1421 1.316 . S
C1422 N1424 1.347 . S
C1422 H1433 0.931 . S
C1423 N1421 1.375 . S
C1423 C1425 1.350 . S
C1423 H1432 0.930 . S
N1424 C1422 1.347 . S
N1424 C1425 1.373 . S
C1425 C1423 1.350 . S
C1425 N1424 1.373 . S
C1425 H1439 0.931 . S
C1426 O1429 1.256 . S
C1426 O1430 1.255 . S
O1427 Co1410 2.021 . S
O1427 C1420 1.259 . S
O1428 Co1412 2.117 . S
O1428 C1420 1.258 . S
O1429 Co1412 2.020 . S
O1429 C1426 1.256 . S
O1430 Co1410 2.062 . S
O1430 C1426 1.255 . S
O1431 C1411 1.259 . S
O1431 Co1412 2.021 . S
H1432 C1423 0.930 . S
H1433 C1422 0.931 . S
O1434 Co1410 2.117 . S
O1434 C1411 1.258 . S
O1435 Co1410 2.020 . S
O1435 C1437 1.256 . S
O1436 Co1412 2.062 . S
O1436 C1437 1.255 . S
C1437 O1435 1.256 . S
C1437 O1436 1.255 . S
H1438 C1417 0.931 . S
H1439 C1425 0.931 . S
C181 C10 4.285 . S
C211 C31 4.367 . S
C121 C70 4.284 . S
C160 C100 4.367 . S
C310 C241 4.141 . S
C340 C280 4.485 . S
C430 C361 4.141 . S
C451 C391 4.484 . S
C511 C481 4.404 . S
C700 C541 4.283 . S
C640 C580 4.404 . S
C610 C661 4.283 . S
C730 C901 4.285 1_556 S
C751 C931 4.367 1_556 S
C790 C841 4.285 1_556 S
C820 C880 4.367 1_556 S
C961 C1030 4.141 1_655 S
C1000 C1060 4.484 1_565 S
C1081 C1150 4.141 1_655 S
C1171 C1111 4.484 . S
C1201 C1231 4.404 . S
C1420 C1261 4.282 1_455 S
C1300 C1360 4.404 1_565 S
C1330 C1381 4.283 1_455 S
C1 C271 4.460 . S
C40 C301 3.656 . S
C61 C331 2.826 . S
C250 C91 4.023 . S
C460 C130 4.460 . S
C370 C151 3.656 . S
C400 C190 2.827 . S
C220 C421 4.023 . S
C550 C490 4.913 . S
C670 C520 2.943 . S
C571 C691 2.943 . S
C631 C601 4.913 . S
C721 C991 4.460 . S
C1021 C760 3.656 . S
C1051 C781 2.827 . S
C811 C970 4.024 . S
C1180 C850 4.460 . S
C871 C1090 3.656 . S
C910 C1120 2.826 . S
C940 C1141 4.023 . S
C1210 C1270 4.913 . S
C1390 C1240 2.943 . S
C1411 C1291 2.943 . S
C1321 C1351 4.913 . S
N14 C117 1.780 . S
C27 C46 2.481 . S
N74 N36 0.974 . S
N104 C87 0.452 . S
C177 C136 2.481 . S
N186 N164 0.974 . S
C196 N216 0.452 . S
N126 C226 1.780 . S
C256 N546 1.498 . S
N284 C597 0.882 . S
N314 C627 1.681 . S
N344 N516 1.203 . S
C376 N666 1.269 . S
N486 C406 1.262 . S
C717 N434 1.057 1_554 S
C466 C657 3.296 1_556 S
C496 C297 3.296 . S
C526 N456 0.882 . S
C556 N366 1.681 1_554 S
N396 N584 1.204 . S
C447 N614 1.498 1_545 S
C357 N644 1.262 . S
N246 C676 1.068 . S
N704 C327 1.269 . S
N734 C837 1.780 . S
C766 C747 2.481 . S
N756 N794 0.974 . S
C807 N824 0.452 . S
C856 C897 2.481 . S
N906 N884 0.974 . S
N936 C916 0.452 . S
C946 N846 1.780 . S
C976 N1266 1.498 . S
C1317 N1004 0.881 . S
C1347 N1034 1.681 . S
N1064 N1236 1.204 . S
N1386 C1096 1.269 . S
C1126 N1206 1.262 . S
N1154 C1437 1.068 . S
C1186 C1377 3.297 . S
C1017 C1216 3.297 . S
N1176 C1246 0.882 . S
N1086 C1276 1.681 . S
N1304 N1116 1.203 . S
C1167 N1334 1.498 . S
N1364 C1077 1.262 . S
C1396 N966 1.068 . S
C1047 N1424 1.269 . S
C16 C1336 2.215 . S
N1244 N44 3.392 . S
C76 N1274 2.193 . S
C106 C1306 2.471 . S
N134 C1426 1.199 . S
C166 C1366 2.868 . S
N194 N1394 3.300 . S
N224 N1214 2.955 . S
N254 N1184 2.710 . S
C286 N1094 1.709 . S
C316 N1124 2.591 . S
C346 C1156 2.626 . S
N374 C1006 1.708 . S
N404 C1036 2.589 . S
C436 C1066 2.626 . S
N464 N974 2.710 . S
N494 N944 2.955 . S
N524 N764 3.391 . S
N554 C796 2.194 . S
C586 C826 2.471 . S
C616 C736 2.215 . S
C646 C886 2.868 . S
N674 N914 3.300 . S
C706 N854 1.199 . S
C147 C1287 2.215 . S
N156 N1296 3.392 . S
C207 N1326 2.194 . S
C237 C1257 2.471 . S
N6 C1407 1.199 . S
C57 C1227 2.868 1_545 S
N66 N1416 3.300 . S
N1356 N96 2.955 . S
N426 N996 2.711 . S
C477 N1026 1.708 . S
C387 N1056 2.589 . S
C417 C987 2.626 . S
N306 C1197 1.708 . S
N336 C1107 2.589 . S
C267 C1137 2.626 . S
N276 N1146 2.710 . S
N636 N816 2.955 . S
N576 N876 3.391 . S
N606 C927 2.194 . S
C537 C957 2.471 . S
C567 C867 2.215 . S
C507 C777 2.868 . S
N696 N786 3.300 . S
C687 N726 1.199 . S
