# Generated by pormake.
# Topology sow, (4)-cn, num edge types: 1
# Building blocks:
#     Node 0, Type 0, BuildingBlock: MUDLON_clean_sbu_0, # of connection points: 4
#     Node 1, Type 0, BuildingBlock: MUDLON_clean_sbu_0, # of connection points: 4
#     Node 2, Type 0, BuildingBlock: MUDLON_clean_sbu_0, # of connection points: 4
#     Node 3, Type 0, BuildingBlock: MUDLON_clean_sbu_0, # of connection points: 4
#     Node 4, Type 0, BuildingBlock: MUDLON_clean_sbu_0, # of connection points: 4
#     Node 5, Type 0, BuildingBlock: MUDLON_clean_sbu_0, # of connection points: 4
#     Node 6, Type 0, BuildingBlock: MUDLON_clean_sbu_0, # of connection points: 4
#     Node 7, Type 0, BuildingBlock: MUDLON_clean_sbu_0, # of connection points: 4
#     Edge 8, Type (0, 0), BuildingBlock: EZIPEK_clean_linker_0, # of connection points: 2
#     Edge 9, Type (0, 0), BuildingBlock: EZIPEK_clean_linker_0, # of connection points: 2
#     Edge 10, Type (0, 0), BuildingBlock: EZIPEK_clean_linker_0, # of connection points: 2
#     Edge 11, Type (0, 0), BuildingBlock: EZIPEK_clean_linker_0, # of connection points: 2
#     Edge 12, Type (0, 0), BuildingBlock: EZIPEK_clean_linker_0, # of connection points: 2
#     Edge 13, Type (0, 0), BuildingBlock: EZIPEK_clean_linker_0, # of connection points: 2
#     Edge 14, Type (0, 0), BuildingBlock: EZIPEK_clean_linker_0, # of connection points: 2
#     Edge 15, Type (0, 0), BuildingBlock: EZIPEK_clean_linker_0, # of connection points: 2
#     Edge 16, Type (0, 0), BuildingBlock: EZIPEK_clean_linker_0, # of connection points: 2
#     Edge 17, Type (0, 0), BuildingBlock: EZIPEK_clean_linker_0, # of connection points: 2
#     Edge 18, Type (0, 0), BuildingBlock: EZIPEK_clean_linker_0, # of connection points: 2
#     Edge 19, Type (0, 0), BuildingBlock: EZIPEK_clean_linker_0, # of connection points: 2
#     Edge 20, Type (0, 0), BuildingBlock: EZIPEK_clean_linker_0, # of connection points: 2
#     Edge 21, Type (0, 0), BuildingBlock: EZIPEK_clean_linker_0, # of connection points: 2
#     Edge 22, Type (0, 0), BuildingBlock: EZIPEK_clean_linker_0, # of connection points: 2
#     Edge 23, Type (0, 0), BuildingBlock: EZIPEK_clean_linker_0, # of connection points: 2
# Relax obj value: 0.165
# Max RMSD: 0.253
# Mean RMSD: 0.253
data_MOF--net-sow--node1-MUDLON_clean_sbu_0--edge1-EZIPEK_clean_linker_0
_symmetry_space_group_name_H-M    P1
_symmetry_Int_Tables_number       1
_symmetry_cell_setting            triclinic
loop_
_symmetry_equiv_pos_as_xyz
'x, y, z'
_cell_length_a     30.30154
_cell_length_b     18.72089
_cell_length_c     18.433772
_cell_angle_alpha  90.477437
_cell_angle_beta   90.953921
_cell_angle_gamma 89.714798
loop_
_atom_site_label
_atom_site_type_symbol
_atom_site_fract_x
_atom_site_fract_y
_atom_site_fract_z
_atom_type_partial_charge
Mg0 Mg 0.15552 0.19369 0.1015 0.0
C1 C 0.08582 0.33111 0.13388 0.0
O2 O 0.07555 0.39111 0.10104 0.0
C3 C 0.20641 0.25689 0.97436 0.0
O4 O 0.18841 0.31701 0.99645 0.0
C5 C 0.07347 0.10683 0.06034 0.0
O6 O 0.05636 0.17106 0.05343 0.0
O7 O 0.11358 0.10026 0.08105 0.0
O8 O 0.11632 0.29371 0.10453 0.0
O9 O 0.20032 0.18154 0.19625 0.0
C10 C 0.21903 0.23635 0.22403 0.0
O11 O 0.21119 0.29937 0.19559 0.0
O12 O 0.19843 0.1991 1.00745 0.0
Mg13 Mg 0.38786 0.27865 0.60903 0.0
C14 C 0.45279 0.13628 0.63817 0.0
O15 O 0.45976 0.07363 0.60778 0.0
C16 C 0.33786 0.22417 0.47421 0.0
O17 O 0.35758 0.16391 0.49146 0.0
C18 C 0.46434 0.36025 0.54695 0.0
O19 O 0.46654 0.30187 0.50716 0.0
O20 O 0.43504 0.36561 0.59545 0.0
O21 O 0.42165 0.1738 0.60986 0.0
O22 O 0.34421 0.29488 0.70255 0.0
C23 C 0.3229 0.24225 0.72755 0.0
O24 O 0.32731 0.17907 0.69689 0.0
O25 O 0.34447 0.27977 0.51301 0.0
Mg26 Mg 0.66713 0.31527 0.89444 0.0
C27 C 0.60162 0.26139 0.78986 0.0
O28 O 0.61805 0.31719 0.75733 0.0
C29 C 0.70068 0.22196 0.0246 0.0
O30 O 0.67198 0.17426 1.00149 0.0
C31 C 0.59346 0.38617 0.9697 0.0
O32 O 0.59413 0.32175 0.99746 0.0
O33 O 0.62334 0.40339 0.9252 0.0
O34 O 0.61839 0.24177 0.85036 0.0
O35 O 0.71401 0.33407 0.80689 0.0
C36 C 0.73119 0.27792 0.77944 0.0
O37 O 0.72055 0.21542 0.80571 0.0
O38 O 0.70428 0.28092 0.99138 0.0
Mg39 Mg 0.87831 0.16481 0.39959 0.0
C40 C 0.94317 0.21686 0.2971 0.0
O41 O 0.92552 0.16154 0.26358 0.0
C42 C 0.85313 0.24586 0.54257 0.0
O43 O 0.89323 0.27206 0.5413 0.0
C44 C 0.95094 0.08619 0.47731 0.0
O45 O 0.95369 0.14994 0.50727 0.0
O46 O 0.91975 0.07345 0.43169 0.0
O47 O 0.928 0.23643 0.35819 0.0
O48 O 0.83141 0.14508 0.30925 0.0
C49 C 0.81783 0.20009 0.275 0.0
O50 O 0.832 0.2633 0.29596 0.0
O51 O 0.83997 0.20374 0.49223 0.0
Mg52 Mg 0.88427 0.77743 0.92766 0.0
C53 C 0.8212 0.73409 0.80519 0.0
O54 O 0.82898 0.67134 0.83426 0.0
C55 C 0.96641 0.86415 0.96828 0.0
O56 O 0.9835 0.79989 0.97504 0.0
C57 C 0.83439 0.71387 0.0549 0.0
O58 O 0.85353 0.65449 0.03333 0.0
O59 O 0.84128 0.77177 0.02135 0.0
O60 O 0.83974 0.78917 0.83265 0.0
O61 O 0.92322 0.67721 0.92541 0.0
C62 C 0.9532 0.63868 0.8962 0.0
O63 O 0.96339 0.57918 0.93003 0.0
O64 O 0.92625 0.87083 0.94788 0.0
Mg65 Mg 0.65424 0.68294 0.42002 0.0
C66 C 0.71805 0.72266 0.30172 0.0
O67 O 0.71124 0.78585 0.3311 0.0
C68 C 0.58003 0.59683 0.48255 0.0
O69 O 0.57721 0.65456 0.5232 0.0
C70 C 0.70357 0.74198 0.55345 0.0
O71 O 0.68429 0.8018 0.53353 0.0
O72 O 0.69687 0.68506 0.51679 0.0
O73 O 0.69878 0.66847 0.32767 0.0
O74 O 0.61815 0.78587 0.41613 0.0
C75 C 0.58805 0.82372 0.38531 0.0
O76 O 0.57952 0.88567 0.41617 0.0
O77 O 0.6089 0.59345 0.43323 0.0
Mg78 Mg 0.37632 0.65069 0.1205 0.0
C79 C 0.31066 0.69197 0.23119 0.0
O80 O 0.31095 0.74745 0.18799 0.0
C81 C 0.44911 0.57697 0.04601 0.0
O82 O 0.44909 0.64113 0.01766 0.0
C83 C 0.34343 0.73439 0.98335 0.0
O84 O 0.37751 0.77614 0.99538 0.0
O85 O 0.33637 0.68225 0.02543 0.0
O86 O 0.3337 0.63731 0.21459 0.0
O87 O 0.42662 0.72438 0.15956 0.0
C88 C 0.44104 0.70975 0.22309 0.0
O89 O 0.42165 0.65947 0.26005 0.0
O90 O 0.41908 0.56096 0.09071 0.0
Mg91 Mg 0.15819 0.79009 0.61664 0.0
C92 C 0.22055 0.75115 0.73931 0.0
O93 O 0.20076 0.69 0.72622 0.0
C94 C 0.08561 0.87334 0.5469 0.0
O95 O 0.08156 0.81008 0.51617 0.0
C96 C 0.2275 0.73846 0.50981 0.0
O97 O 0.25305 0.74853 0.56718 0.0
O98 O 0.18612 0.74913 0.51494 0.0
O99 O 0.21013 0.8051 0.70067 0.0
O100 O 0.1082 0.72274 0.66343 0.0
C101 C 0.09567 0.74287 0.72596 0.0
O102 O 0.11608 0.79623 0.75855 0.0
O103 O 0.11782 0.8844 0.59101 0.0
C104 C 0.24774 0.22998 0.78157 0.0
C105 C 0.29249 0.25137 0.78981 0.0
C106 C 0.27884 0.2852 0.91682 0.0
C107 C 0.23571 0.25629 0.91052 0.0
N108 N 0.17992 0.19495 0.83938 0.0
N109 N 0.35252 0.2902 0.86821 0.0
C110 C 0.22046 0.22665 0.84362 0.0
C111 C 0.30849 0.27727 0.85805 0.0
N112 N 0.23069 0.21611 0.71374 0.0
N113 N 0.29162 0.31996 0.9792 0.0
H114 H 0.37546 0.2841 0.82727 0.0
H115 H 0.36707 0.30106 0.91864 0.0
H116 H 0.27192 0.32329 0.02498 0.0
H117 H 0.32046 0.34976 0.984 0.0
H118 H 0.1973 0.20738 0.7031 0.0
H119 H 0.24916 0.22027 0.66672 0.0
H120 H 0.16919 0.16462 0.79495 0.0
H121 H 0.15791 0.19493 0.88228 0.0
C122 C 0.29344 0.25719 0.28259 0.0
C123 C 0.24988 0.23001 0.28753 0.0
C124 C 0.2656 0.19334 0.41323 0.0
C125 C 0.30749 0.22675 0.41025 0.0
N126 N 0.35972 0.298 0.34558 0.0
N127 N 0.19198 0.18239 0.36123 0.0
C128 C 0.32084 0.26121 0.34602 0.0
C129 C 0.23535 0.20025 0.35369 0.0
N130 N 0.30945 0.27579 0.21645 0.0
N131 N 0.25461 0.15516 0.47318 0.0
H132 H 0.16858 0.18781 0.31972 0.0
H133 H 0.17821 0.16812 0.41037 0.0
H134 H 0.27453 0.15261 0.51979 0.0
H135 H 0.22708 0.1222 0.47512 0.0
H136 H 0.34229 0.28894 0.20791 0.0
H137 H 0.291 0.27136 0.16835 0.0
H138 H 0.36874 0.33139 0.30349 0.0
H139 H 0.38177 0.29925 0.38962 0.0
C140 C 0.7943 0.15737 0.14931 0.0
C141 C 0.78466 0.19529 0.21437 0.0
C142 C 0.71851 0.24743 0.156 0.0
C143 C 0.7278 0.20889 0.09133 0.0
N144 N 0.76938 0.11723 0.02985 0.0
N145 N 0.73212 0.26131 0.28546 0.0
C146 C 0.76391 0.16027 0.08935 0.0
C147 C 0.74509 0.23592 0.21932 0.0
N148 N 0.83369 0.12212 0.14312 0.0
N149 N 0.68457 0.29584 0.15666 0.0
H150 H 0.75007 0.25193 0.33327 0.0
H151 H 0.70162 0.28535 0.29439 0.0
H152 H 0.66264 0.30266 0.11301 0.0
H153 H 0.67956 0.33219 0.19881 0.0
H154 H 0.84526 0.10117 0.0945 0.0
H155 H 0.85647 0.11764 0.18574 0.0
H156 H 0.79186 0.07505 0.02811 0.0
H157 H 0.74916 0.12024 0.98362 0.0
C158 C 0.75279 0.30565 0.65055 0.0
C159 C 0.7646 0.28107 0.72104 0.0
C160 C 0.83505 0.23527 0.67489 0.0
C161 C 0.82388 0.26162 0.60491 0.0
N162 N 0.77666 0.33434 0.52904 0.0
N163 N 0.82088 0.23854 0.80402 0.0
C164 C 0.78408 0.30068 0.59368 0.0
C165 C 0.80701 0.25085 0.73425 0.0
N166 N 0.71101 0.33048 0.63694 0.0
N167 N 0.87127 0.19218 0.68404 0.0
H168 H 0.80149 0.25051 0.84882 0.0
H169 H 0.85299 0.22331 0.81798 0.0
H170 H 0.8926 0.17914 0.6421 0.0
H171 H 0.8782 0.16447 0.73167 0.0
H172 H 0.69858 0.34084 0.58507 0.0
H173 H 0.68757 0.33652 0.67721 0.0
H174 H 0.75064 0.36982 0.51984 0.0
H175 H 0.79878 0.33163 0.48631 0.0
C176 C 0.76269 0.68188 0.11262 0.0
C177 C 0.80511 0.71345 0.11865 0.0
C178 C 0.79263 0.74002 0.24739 0.0
C179 C 0.74851 0.71544 0.23946 0.0
N180 N 0.68936 0.67192 0.16184 0.0
N181 N 0.85951 0.7787 0.18909 0.0
C182 C 0.73302 0.68807 0.17153 0.0
C183 C 0.81974 0.74453 0.18524 0.0
N184 N 0.75063 0.6462 0.0504 0.0
N185 N 0.8093 0.75587 0.31502 0.0
H186 H 0.88147 0.77968 0.14614 0.0
H187 H 0.8696 0.81001 0.23321 0.0
H188 H 0.79092 0.75119 0.36209 0.0
H189 H 0.84242 0.76698 0.32558 0.0
H190 H 0.72252 0.6146 0.04581 0.0
H191 H 0.77024 0.64412 1.00446 0.0
H192 H 0.67495 0.65991 0.11158 0.0
H193 H 0.66642 0.67626 0.20301 0.0
C194 C 0.7197 0.70824 0.68288 0.0
C195 C 0.73347 0.7412 0.61806 0.0
C196 C 0.80545 0.76833 0.67489 0.0
C197 C 0.79057 0.73981 0.7414 0.0
N198 N 0.73065 0.69581 0.8128 0.0
N199 N 0.78686 0.81098 0.55419 0.0
C200 C 0.74691 0.71314 0.74646 0.0
C201 C 0.77547 0.77422 0.61485 0.0
N202 N 0.68063 0.67202 0.68372 0.0
N203 N 0.84888 0.78592 0.66759 0.0
H204 H 0.76716 0.81267 0.50729 0.0
H205 H 0.8145 0.84366 0.55183 0.0
H206 H 0.87206 0.78141 0.70956 0.0
H207 H 0.86293 0.79918 0.61837 0.0
H208 H 0.67132 0.63952 0.72635 0.0
H209 H 0.65863 0.67038 0.63962 0.0
H210 H 0.69774 0.68313 0.82134 0.0
H211 H 0.749 0.70079 0.86094 0.0
C212 C 0.31846 0.69567 0.85843 0.0
C213 C 0.31493 0.74427 0.91757 0.0
C214 C 0.25126 0.80236 0.85754 0.0
C215 C 0.25547 0.75479 0.79741 0.0
N216 N 0.29939 0.66809 0.73304 0.0
N217 N 0.28386 0.85204 0.96813 0.0
C218 C 0.29095 0.70486 0.79576 0.0
C219 C 0.28336 0.80053 0.91512 0.0
N220 N 0.34781 0.64002 0.86247 0.0
N221 N 0.21517 0.84619 0.86203 0.0
H222 H 0.30553 0.85075 0.01265 0.0
H223 H 0.26516 0.89878 0.96532 0.0
H224 H 0.19098 0.8495 0.82142 0.0
H225 H 0.20734 0.87557 0.90829 0.0
H226 H 0.34805 0.59756 0.82564 0.0
H227 H 0.37046 0.63387 0.90522 0.0
H228 H 0.32731 0.63642 0.72565 0.0
H229 H 0.28069 0.6747 0.68556 0.0
C230 C 0.30431 0.75673 0.35 0.0
C231 C 0.2905 0.69953 0.3041 0.0
C232 C 0.23737 0.66313 0.39622 0.0
C233 C 0.24787 0.72522 0.43786 0.0
N234 N 0.2845 0.83939 0.44555 0.0
N235 N 0.24021 0.60273 0.27911 0.0
C236 C 0.27949 0.77428 0.41232 0.0
C237 C 0.25609 0.65364 0.32609 0.0
N238 N 0.34226 0.79282 0.33568 0.0
N239 N 0.21074 0.61213 0.42463 0.0
H240 H 0.25333 0.59399 0.22783 0.0
H241 H 0.21204 0.57285 0.28869 0.0
H242 H 0.19651 0.61732 0.47555 0.0
H243 H 0.20561 0.56233 0.40045 0.0
H244 H 0.35633 0.82999 0.37141 0.0
H245 H 0.36233 0.7801 0.29202 0.0
H246 H 0.3037 0.88005 0.42447 0.0
H247 H 0.26585 0.85581 0.48977 0.0
C248 C 0.02355 0.35245 0.22189 0.0
C249 C 0.05677 0.30607 0.19464 0.0
C250 C 1.02137 0.20553 0.2552 0.0
C251 C 0.98367 0.24931 0.26777 0.0
N252 N 0.94803 0.36476 0.26069 0.0
N253 N 0.09847 0.20117 0.22265 0.0
C254 C 0.98474 0.32314 0.25158 0.0
C255 C 0.05892 0.23556 0.22153 0.0
N256 N 0.03081 0.42434 0.22524 0.0
N257 N 1.02139 0.13561 0.27616 0.0
H258 H 0.12705 0.23002 0.21432 0.0
H259 H 0.10401 0.15005 0.24256 0.0
H260 H 0.99625 0.11311 0.30623 0.0
H261 H 0.04592 0.09897 0.26323 0.0
H262 H 1.00927 0.46029 0.24988 0.0
H263 H 0.06141 0.44643 0.21359 0.0
H264 H 0.94555 0.41689 0.24162 0.0
H265 H 0.91871 0.34553 0.28175 0.0
C266 C 0.48356 0.23501 0.7204 0.0
C267 C 0.48565 0.16407 0.69408 0.0
C268 C 0.56095 0.15275 0.74431 0.0
C269 C 0.56117 0.22706 0.75991 0.0
N270 N 0.52205 0.34026 0.76329 0.0
N271 N 0.51607 0.04815 0.72306 0.0
C272 C 0.52229 0.26865 0.74813 0.0
C273 C 0.52142 0.12033 0.71812 0.0
N274 N 0.44338 0.2661 0.72894 0.0
N275 N 0.599 0.1136 0.75066 0.0
H276 H 0.48538 0.02392 0.7159 0.0
H277 H 0.53984 0.01417 0.74556 0.0
H278 H 0.62892 0.13528 0.76854 0.0
H279 H 0.60177 0.06116 0.73183 0.0
H280 H 0.4385 0.31633 0.75222 0.0
H281 H 0.41504 0.23526 0.72418 0.0
H282 H 0.49688 0.37447 0.74585 0.0
H283 H 0.54773 0.36638 0.79064 0.0
C284 C 0.05225 0.6397 0.77373 0.0
C285 C 0.05511 0.7135 0.75802 0.0
C286 C 0.98117 0.73242 0.80762 0.0
C287 C 0.98177 0.66173 0.83412 0.0
N288 N 1.00413 0.54176 0.80289 0.0
N289 N 1.02083 0.83027 0.75364 0.0
C290 C 1.01329 0.61311 0.80545 0.0
C291 C 1.01905 0.76 0.77302 0.0
N292 N 0.08753 0.5955 0.76226 0.0
N293 N 0.94251 0.76936 0.80728 0.0
H294 H 0.04592 0.85134 0.7224 0.0
H295 H 0.99801 0.86857 0.76978 0.0
H296 H 0.91335 0.74243 0.81634 0.0
H297 H 0.93809 0.82043 0.7865 0.0
H298 H 0.08898 0.54312 0.78085 0.0
H299 H 0.11687 0.61271 0.73959 0.0
H300 H 0.02419 0.50424 0.77729 0.0
H301 H 0.97331 0.52182 0.81661 0.0
C302 C 0.51872 0.69569 0.27035 0.0
C303 C 0.48259 0.74133 0.25203 0.0
C304 C 0.52564 0.8446 0.29407 0.0
C305 C 0.5577 0.79762 0.32489 0.0
N306 N 0.59644 0.68931 0.29982 0.0
N307 N 0.45095 0.8599 0.24784 0.0
C308 C 0.55761 0.72561 0.30165 0.0
C309 C 0.4861 0.81619 0.26305 0.0
N310 N 0.5161 0.62372 0.25797 0.0
N311 N 0.53483 0.91567 0.28843 0.0
H312 H 0.42151 0.84159 0.2245 0.0
H313 H 0.44977 0.91346 0.26347 0.0
H314 H 0.56597 0.93624 0.30121 0.0
H315 H 0.51438 0.95184 0.26125 0.0
H316 H 0.53872 0.58729 0.27969 0.0
H317 H 0.49048 0.59986 0.22832 0.0
H318 H 0.60006 0.63774 0.27907 0.0
H319 H 0.62578 0.71706 0.30665 0.0
C320 C 0.03113 0.03919 0.96369 0.0
C321 C 0.04727 0.04331 0.03652 0.0
C322 C 1.0088 0.93173 0.06484 0.0
C323 C 0.99269 0.92759 0.99202 0.0
N324 N 0.9823 0.98247 0.87502 0.0
N325 N 0.05781 -0.01183 0.15338 0.0
C326 C 1.002 0.98291 0.94232 0.0
C327 C 0.038 -0.01207 0.08618 0.0
N328 N 0.04634 0.08627 0.91357 0.0
N329 N 0.99353 0.88475 0.11501 0.0
H330 H 0.07806 0.02931 0.1722 0.0
H331 H 0.05701 0.94532 0.18891 0.0
H332 H 0.97086 0.84462 0.10238 0.0
H333 H 0.99976 0.88919 0.17053 0.0
H334 H 0.04006 0.08195 0.85806 0.0
H335 H 0.06901 0.1264 0.92622 0.0
H336 H 0.98309 0.02525 0.83941 0.0
H337 H 0.96223 0.94113 0.8561 0.0
C338 C 0.50538 0.53911 0.47654 0.0
C339 C 0.55078 0.53513 0.49669 0.0
C340 C 0.53942 0.41688 0.55062 0.0
C341 C 0.4939 0.42123 0.53134 0.0
N342 N 0.43399 0.4803 0.46812 0.0
N343 N 0.61066 0.47595 0.55986 0.0
C344 C 0.47691 0.481 0.49258 0.0
C345 C 0.5678 0.47524 0.53515 0.0
N346 N 0.48952 0.59927 0.44313 0.0
N347 N 0.55557 0.35611 0.58244 0.0
H348 H 0.63251 0.51718 0.54881 0.0
H349 H 0.62429 0.43824 0.59487 0.0
H350 H 0.53552 0.31361 0.59694 0.0
H351 H 0.58892 0.34546 0.59133 0.0
H352 H 0.45627 0.60986 0.43319 0.0
H353 H 0.50977 0.64114 0.42754 0.0
H354 H 0.42016 0.51815 0.43352 0.0
H355 H 0.41219 0.43896 0.47906 0.0
C356 C 0.52997 0.54535 0.04821 0.0
C357 C 0.48576 0.52649 0.02902 0.0
C358 C 0.5124 0.41681 0.96934 0.0
C359 C 0.55666 0.43598 0.9879 0.0
N360 N 0.60763 0.51173 0.05372 0.0
N361 N 0.43486 0.45078 0.96301 0.0
C362 C 0.5655 0.49889 0.02908 0.0
C363 C 0.47692 0.46351 0.98801 0.0
N364 N 0.53797 0.60851 0.08392 0.0
N365 N 0.50425 0.35313 0.93474 0.0
H366 H 0.40804 0.48338 0.97576 0.0
H367 H 0.42656 0.41098 0.92559 0.0
H368 H 0.5291 0.31973 0.91541 0.0
H369 H 0.47299 0.33116 0.92773 0.0
H370 H 0.56917 0.63041 0.09186 0.0
H371 H 0.51301 0.64148 0.10361 0.0
H372 H 0.61612 0.55173 0.09078 0.0
H373 H 0.63442 0.4791 0.0409 0.0
C374 C 1.00661 0.91614 0.54897 0.0
C375 C 0.05154 0.92939 0.53195 0.0
C376 C 0.03034 0.04502 0.47872 0.0
C377 C 0.98532 0.03131 0.49471 0.0
N378 N 0.9311 0.96046 0.55495 0.0
N379 N 0.10564 0.00037 0.47148 0.0
C380 C 0.97352 0.96824 0.53189 0.0
C381 C 0.06334 -0.00735 0.49513 0.0
N382 N 0.9955 0.85298 0.58065 0.0
N383 N 0.0417 0.10883 0.44867 0.0
H384 H 0.1307 0.96341 0.48221 0.0
H385 H 0.11562 0.04046 0.43672 0.0
H386 H 1.01867 0.14654 0.43082 0.0
H387 H 0.07401 0.12664 0.4444 0.0
H388 H 0.96328 0.83525 0.58634 0.0
H389 H 1.01874 0.81586 0.59912 0.0
H390 H 0.9208 0.92023 0.58924 0.0
H391 H 0.90611 -0.0025 0.54396 0.0
loop_
_geom_bond_atom_site_label_1
_geom_bond_atom_site_label_2
_geom_bond_distance
_geom_bond_site_symmetry_2
_ccdc_geom_bond_type
Mg0 O7 2.141 . S
Mg0 O8 2.048 . S
Mg0 O9 2.048 . S
Mg0 O12 2.141 . S
C1 O2 1.313 . S
C1 O8 1.195 . S
O2 C1 1.313 . S
C3 O4 1.245 . S
C3 O12 1.289 1_556 S
O4 C3 1.245 . S
C5 O6 1.245 . S
C5 O7 1.289 1_556 S
O6 C5 1.245 . S
O7 Mg0 2.141 . S
O7 C5 1.289 1_554 S
O8 Mg0 2.048 . S
O8 C1 1.195 . S
O9 Mg0 2.048 . S
O9 C10 1.195 . S
C10 O9 1.195 . S
C10 O11 1.313 . S
O11 C10 1.313 . S
O12 Mg0 2.141 . S
O12 C3 1.289 1_554 S
Mg13 O20 2.141 . S
Mg13 O21 2.048 . S
Mg13 O22 2.048 . S
Mg13 O25 2.141 . S
C14 O15 1.313 . S
C14 O21 1.195 . S
O15 C14 1.313 . S
C16 O17 1.245 . S
C16 O25 1.289 . S
O17 C16 1.245 . S
C18 O19 1.245 . S
C18 O20 1.289 . S
O19 C18 1.245 . S
O20 Mg13 2.141 . S
O20 C18 1.289 . S
O21 Mg13 2.048 . S
O21 C14 1.195 . S
O22 Mg13 2.048 . S
O22 C23 1.195 . S
C23 O22 1.195 . S
C23 O24 1.313 . S
O24 C23 1.313 . S
O25 Mg13 2.141 . S
O25 C16 1.289 . S
Mg26 O33 2.141 . S
Mg26 O34 2.048 . S
Mg26 O35 2.048 . S
Mg26 O38 2.141 . S
C27 O28 1.313 . S
C27 O34 1.195 . S
O28 C27 1.313 . S
C29 O30 1.245 . S
C29 O38 1.289 1_554 S
O30 C29 1.245 . S
C31 O32 1.245 . S
C31 O33 1.289 1_554 S
O32 C31 1.245 . S
O33 Mg26 2.141 . S
O33 C31 1.289 1_556 S
O34 Mg26 2.048 . S
O34 C27 1.195 . S
O35 Mg26 2.048 . S
O35 C36 1.195 . S
C36 O35 1.195 . S
C36 O37 1.313 . S
O37 C36 1.313 . S
O38 Mg26 2.141 . S
O38 C29 1.289 1_556 S
Mg39 O46 2.141 . S
Mg39 O47 2.048 . S
Mg39 O48 2.048 . S
Mg39 O51 2.141 . S
C40 O41 1.313 . S
C40 O47 1.195 . S
O41 C40 1.313 . S
C42 O43 1.245 . S
C42 O51 1.289 . S
O43 C42 1.245 . S
C44 O45 1.245 . S
C44 O46 1.289 . S
O45 C44 1.245 . S
O46 Mg39 2.141 . S
O46 C44 1.289 . S
O47 Mg39 2.048 . S
O47 C40 1.195 . S
O48 Mg39 2.048 . S
O48 C49 1.195 . S
C49 O48 1.195 . S
C49 O50 1.313 . S
O50 C49 1.313 . S
O51 Mg39 2.141 . S
O51 C42 1.289 . S
Mg52 O59 2.141 . S
Mg52 O60 2.048 . S
Mg52 O61 2.048 . S
Mg52 O64 2.141 . S
C53 O54 1.313 . S
C53 O60 1.195 . S
O54 C53 1.313 . S
C55 O56 1.245 . S
C55 O64 1.289 1_554 S
O56 C55 1.245 . S
C57 O58 1.245 . S
C57 O59 1.289 1_554 S
O58 C57 1.245 . S
O59 Mg52 2.141 . S
O59 C57 1.289 1_556 S
O60 Mg52 2.048 . S
O60 C53 1.195 . S
O61 Mg52 2.048 . S
O61 C62 1.195 . S
C62 O61 1.195 . S
C62 O63 1.313 . S
O63 C62 1.313 . S
O64 Mg52 2.141 . S
O64 C55 1.289 1_556 S
Mg65 O72 2.141 . S
Mg65 O73 2.048 . S
Mg65 O74 2.048 . S
Mg65 O77 2.141 . S
C66 O67 1.313 . S
C66 O73 1.195 . S
O67 C66 1.313 . S
C68 O69 1.245 . S
C68 O77 1.289 . S
O69 C68 1.245 . S
C70 O71 1.245 . S
C70 O72 1.289 . S
O71 C70 1.245 . S
O72 Mg65 2.141 . S
O72 C70 1.289 . S
O73 Mg65 2.048 . S
O73 C66 1.195 . S
O74 Mg65 2.048 . S
O74 C75 1.195 . S
C75 O74 1.195 . S
C75 O76 1.313 . S
O76 C75 1.313 . S
O77 Mg65 2.141 . S
O77 C68 1.289 . S
Mg78 O85 2.141 . S
Mg78 O86 2.048 . S
Mg78 O87 2.048 . S
Mg78 O90 2.141 . S
C79 O80 1.313 . S
C79 O86 1.195 . S
O80 C79 1.313 . S
C81 O82 1.245 . S
C81 O90 1.289 1_556 S
O82 C81 1.245 . S
C83 O84 1.245 . S
C83 O85 1.289 1_556 S
O84 C83 1.245 . S
O85 Mg78 2.141 . S
O85 C83 1.289 1_554 S
O86 Mg78 2.048 . S
O86 C79 1.195 . S
O87 Mg78 2.048 . S
O87 C88 1.195 . S
C88 O87 1.195 . S
C88 O89 1.313 . S
O89 C88 1.313 . S
O90 Mg78 2.141 . S
O90 C81 1.289 1_554 S
Mg91 O98 2.141 . S
Mg91 O99 2.048 . S
Mg91 O100 2.048 . S
Mg91 O103 2.141 . S
C92 O93 1.313 . S
C92 O99 1.195 . S
O93 C92 1.313 . S
C94 O95 1.245 . S
C94 O103 1.289 . S
O95 C94 1.245 . S
C96 O97 1.245 . S
C96 O98 1.289 . S
O97 C96 1.245 . S
O98 Mg91 2.141 . S
O98 C96 1.289 . S
O99 Mg91 2.048 . S
O99 C92 1.195 . S
O100 Mg91 2.048 . S
O100 C101 1.195 . S
C101 O100 1.195 . S
C101 O102 1.313 . S
O102 C101 1.313 . S
O103 Mg91 2.141 . S
O103 C94 1.289 . S
C104 C105 1.363 . S
C104 C110 1.379 . S
C104 N112 1.356 . S
C105 C104 1.363 . S
C105 C111 1.363 . S
C106 C107 1.363 . S
C106 C111 1.379 . S
C106 N113 1.356 . S
C107 C106 1.363 . S
C107 C110 1.363 . S
N108 C110 1.356 . S
N108 H120 0.984 . S
N108 H121 0.985 . S
N109 C111 1.356 . S
N109 H114 0.984 . S
N109 H115 0.985 . S
C110 C104 1.379 . S
C110 C107 1.363 . S
C110 N108 1.356 . S
C111 C105 1.363 . S
C111 C106 1.379 . S
C111 N109 1.356 . S
N112 C104 1.356 . S
N112 H118 0.984 . S
N112 H119 0.984 . S
N113 C106 1.356 . S
N113 H116 0.984 . S
N113 H117 0.985 . S
H114 N109 0.984 . S
H115 N109 0.985 . S
H116 N113 0.984 . S
H117 N113 0.985 . S
H118 N112 0.984 . S
H119 N112 0.984 . S
H120 N108 0.984 . S
H121 N108 0.985 . S
C122 C123 1.363 . S
C122 C128 1.379 . S
C122 N130 1.356 . S
C123 C122 1.363 . S
C123 C129 1.363 . S
C124 C125 1.363 . S
C124 C129 1.379 . S
C124 N131 1.356 . S
C125 C124 1.363 . S
C125 C128 1.363 . S
N126 C128 1.356 . S
N126 H138 0.984 . S
N126 H139 0.985 . S
N127 C129 1.356 . S
N127 H132 0.984 . S
N127 H133 0.985 . S
C128 C122 1.379 . S
C128 C125 1.363 . S
C128 N126 1.356 . S
C129 C123 1.363 . S
C129 C124 1.379 . S
C129 N127 1.356 . S
N130 C122 1.356 . S
N130 H136 0.984 . S
N130 H137 0.984 . S
N131 C124 1.356 . S
N131 H134 0.984 . S
N131 H135 0.985 . S
H132 N127 0.984 . S
H133 N127 0.985 . S
H134 N131 0.984 . S
H135 N131 0.985 . S
H136 N130 0.984 . S
H137 N130 0.984 . S
H138 N126 0.984 . S
H139 N126 0.985 . S
C140 C141 1.363 . S
C140 C146 1.379 . S
C140 N148 1.356 . S
C141 C140 1.363 . S
C141 C147 1.363 . S
C142 C143 1.363 . S
C142 C147 1.379 . S
C142 N149 1.356 . S
C143 C142 1.363 . S
C143 C146 1.363 . S
N144 C146 1.356 . S
N144 H156 0.984 . S
N144 H157 0.985 . S
N145 C147 1.356 . S
N145 H150 0.984 . S
N145 H151 0.985 . S
C146 C140 1.379 . S
C146 C143 1.363 . S
C146 N144 1.356 . S
C147 C141 1.363 . S
C147 C142 1.379 . S
C147 N145 1.356 . S
N148 C140 1.356 . S
N148 H154 0.984 . S
N148 H155 0.984 . S
N149 C142 1.356 . S
N149 H152 0.984 . S
N149 H153 0.985 . S
H150 N145 0.984 . S
H151 N145 0.985 . S
H152 N149 0.984 . S
H153 N149 0.985 . S
H154 N148 0.984 . S
H155 N148 0.984 . S
H156 N144 0.984 . S
H157 N144 0.985 . S
C158 C159 1.363 . S
C158 C164 1.379 . S
C158 N166 1.356 . S
C159 C158 1.363 . S
C159 C165 1.363 . S
C160 C161 1.363 . S
C160 C165 1.379 . S
C160 N167 1.356 . S
C161 C160 1.363 . S
C161 C164 1.363 . S
N162 C164 1.356 . S
N162 H174 0.984 . S
N162 H175 0.985 . S
N163 C165 1.356 . S
N163 H168 0.984 . S
N163 H169 0.985 . S
C164 C158 1.379 . S
C164 C161 1.363 . S
C164 N162 1.356 . S
C165 C159 1.363 . S
C165 C160 1.379 . S
C165 N163 1.356 . S
N166 C158 1.356 . S
N166 H172 0.984 . S
N166 H173 0.984 . S
N167 C160 1.356 . S
N167 H170 0.984 . S
N167 H171 0.985 . S
H168 N163 0.984 . S
H169 N163 0.985 . S
H170 N167 0.984 . S
H171 N167 0.985 . S
H172 N166 0.984 . S
H173 N166 0.984 . S
H174 N162 0.984 . S
H175 N162 0.985 . S
C176 C177 1.363 . S
C176 C182 1.379 . S
C176 N184 1.356 . S
C177 C176 1.363 . S
C177 C183 1.363 . S
C178 C179 1.363 . S
C178 C183 1.379 . S
C178 N185 1.356 . S
C179 C178 1.363 . S
C179 C182 1.363 . S
N180 C182 1.356 . S
N180 H192 0.984 . S
N180 H193 0.985 . S
N181 C183 1.356 . S
N181 H186 0.984 . S
N181 H187 0.985 . S
C182 C176 1.379 . S
C182 C179 1.363 . S
C182 N180 1.356 . S
C183 C177 1.363 . S
C183 C178 1.379 . S
C183 N181 1.356 . S
N184 C176 1.356 . S
N184 H190 0.984 . S
N184 H191 0.984 . S
N185 C178 1.356 . S
N185 H188 0.984 . S
N185 H189 0.985 . S
H186 N181 0.984 . S
H187 N181 0.985 . S
H188 N185 0.984 . S
H189 N185 0.985 . S
H190 N184 0.984 . S
H191 N184 0.984 . S
H192 N180 0.984 . S
H193 N180 0.985 . S
C194 C195 1.363 . S
C194 C200 1.379 . S
C194 N202 1.356 . S
C195 C194 1.363 . S
C195 C201 1.363 . S
C196 C197 1.363 . S
C196 C201 1.379 . S
C196 N203 1.356 . S
C197 C196 1.363 . S
C197 C200 1.363 . S
N198 C200 1.356 . S
N198 H210 0.984 . S
N198 H211 0.985 . S
N199 C201 1.356 . S
N199 H204 0.984 . S
N199 H205 0.985 . S
C200 C194 1.379 . S
C200 C197 1.363 . S
C200 N198 1.356 . S
C201 C195 1.363 . S
C201 C196 1.379 . S
C201 N199 1.356 . S
N202 C194 1.356 . S
N202 H208 0.984 . S
N202 H209 0.984 . S
N203 C196 1.356 . S
N203 H206 0.984 . S
N203 H207 0.985 . S
H204 N199 0.984 . S
H205 N199 0.985 . S
H206 N203 0.984 . S
H207 N203 0.985 . S
H208 N202 0.984 . S
H209 N202 0.984 . S
H210 N198 0.984 . S
H211 N198 0.985 . S
C212 C213 1.363 . S
C212 C218 1.379 . S
C212 N220 1.356 . S
C213 C212 1.363 . S
C213 C219 1.363 . S
C214 C215 1.363 . S
C214 C219 1.379 . S
C214 N221 1.356 . S
C215 C214 1.363 . S
C215 C218 1.363 . S
N216 C218 1.356 . S
N216 H228 0.984 . S
N216 H229 0.985 . S
N217 C219 1.356 . S
N217 H222 0.984 . S
N217 H223 0.985 . S
C218 C212 1.379 . S
C218 C215 1.363 . S
C218 N216 1.356 . S
C219 C213 1.363 . S
C219 C214 1.379 . S
C219 N217 1.356 . S
N220 C212 1.356 . S
N220 H226 0.984 . S
N220 H227 0.984 . S
N221 C214 1.356 . S
N221 H224 0.984 . S
N221 H225 0.985 . S
H222 N217 0.984 . S
H223 N217 0.985 . S
H224 N221 0.984 . S
H225 N221 0.985 . S
H226 N220 0.984 . S
H227 N220 0.984 . S
H228 N216 0.984 . S
H229 N216 0.985 . S
C230 C231 1.363 . S
C230 C236 1.379 . S
C230 N238 1.356 . S
C231 C230 1.363 . S
C231 C237 1.363 . S
C232 C233 1.363 . S
C232 C237 1.379 . S
C232 N239 1.356 . S
C233 C232 1.363 . S
C233 C236 1.363 . S
N234 C236 1.356 . S
N234 H246 0.984 . S
N234 H247 0.985 . S
N235 C237 1.356 . S
N235 H240 0.984 . S
N235 H241 0.985 . S
C236 C230 1.379 . S
C236 C233 1.363 . S
C236 N234 1.356 . S
C237 C231 1.363 . S
C237 C232 1.379 . S
C237 N235 1.356 . S
N238 C230 1.356 . S
N238 H244 0.984 . S
N238 H245 0.984 . S
N239 C232 1.356 . S
N239 H242 0.984 . S
N239 H243 0.985 . S
H240 N235 0.984 . S
H241 N235 0.985 . S
H242 N239 0.984 . S
H243 N239 0.985 . S
H244 N238 0.984 . S
H245 N238 0.984 . S
H246 N234 0.984 . S
H247 N234 0.985 . S
C248 C249 1.363 . S
C248 C254 1.379 1_455 S
C248 N256 1.356 . S
C249 C248 1.363 . S
C249 C255 1.363 . S
C250 C251 1.363 . S
C250 C255 1.379 1_655 S
C250 N257 1.356 . S
C251 C250 1.363 . S
C251 C254 1.363 . S
N252 C254 1.356 . S
N252 H264 0.984 . S
N252 H265 0.985 . S
N253 C255 1.356 . S
N253 H258 0.984 . S
N253 H259 0.985 . S
C254 C248 1.379 1_655 S
C254 C251 1.363 . S
C254 N252 1.356 . S
C255 C249 1.363 . S
C255 C250 1.379 1_455 S
C255 N253 1.356 . S
N256 C248 1.356 . S
N256 H262 0.984 . S
N256 H263 0.984 . S
N257 C250 1.356 . S
N257 H260 0.984 . S
N257 H261 0.985 . S
H258 N253 0.984 . S
H259 N253 0.985 . S
H260 N257 0.984 . S
H261 N257 0.985 . S
H262 N256 0.984 . S
H263 N256 0.984 . S
H264 N252 0.984 . S
H265 N252 0.985 . S
C266 C267 1.363 . S
C266 C272 1.379 . S
C266 N274 1.356 . S
C267 C266 1.363 . S
C267 C273 1.363 . S
C268 C269 1.363 . S
C268 C273 1.379 . S
C268 N275 1.356 . S
C269 C268 1.363 . S
C269 C272 1.363 . S
N270 C272 1.356 . S
N270 H282 0.984 . S
N270 H283 0.985 . S
N271 C273 1.356 . S
N271 H276 0.984 . S
N271 H277 0.985 . S
C272 C266 1.379 . S
C272 C269 1.363 . S
C272 N270 1.356 . S
C273 C267 1.363 . S
C273 C268 1.379 . S
C273 N271 1.356 . S
N274 C266 1.356 . S
N274 H280 0.984 . S
N274 H281 0.984 . S
N275 C268 1.356 . S
N275 H278 0.984 . S
N275 H279 0.985 . S
H276 N271 0.984 . S
H277 N271 0.985 . S
H278 N275 0.984 . S
H279 N275 0.985 . S
H280 N274 0.984 . S
H281 N274 0.984 . S
H282 N270 0.984 . S
H283 N270 0.985 . S
C284 C285 1.363 . S
C284 C290 1.379 1_455 S
C284 N292 1.356 . S
C285 C284 1.363 . S
C285 C291 1.363 . S
C286 C287 1.363 . S
C286 C291 1.379 1_655 S
C286 N293 1.356 . S
C287 C286 1.363 . S
C287 C290 1.363 . S
N288 C290 1.356 . S
N288 H300 0.984 . S
N288 H301 0.985 . S
N289 C291 1.356 . S
N289 H294 0.984 . S
N289 H295 0.985 . S
C290 C284 1.379 1_655 S
C290 C287 1.363 . S
C290 N288 1.356 . S
C291 C285 1.363 . S
C291 C286 1.379 1_455 S
C291 N289 1.356 . S
N292 C284 1.356 . S
N292 H298 0.984 . S
N292 H299 0.984 . S
N293 C286 1.356 . S
N293 H296 0.984 . S
N293 H297 0.985 . S
H294 N289 0.984 . S
H295 N289 0.985 . S
H296 N293 0.984 . S
H297 N293 0.985 . S
H298 N292 0.984 . S
H299 N292 0.984 . S
H300 N288 0.984 . S
H301 N288 0.985 . S
C302 C303 1.363 . S
C302 C308 1.379 . S
C302 N310 1.356 . S
C303 C302 1.363 . S
C303 C309 1.363 . S
C304 C305 1.363 . S
C304 C309 1.379 . S
C304 N311 1.356 . S
C305 C304 1.363 . S
C305 C308 1.363 . S
N306 C308 1.356 . S
N306 H318 0.984 . S
N306 H319 0.985 . S
N307 C309 1.356 . S
N307 H312 0.984 . S
N307 H313 0.985 . S
C308 C302 1.379 . S
C308 C305 1.363 . S
C308 N306 1.356 . S
C309 C303 1.363 . S
C309 C304 1.379 . S
C309 N307 1.356 . S
N310 C302 1.356 . S
N310 H316 0.984 . S
N310 H317 0.984 . S
N311 C304 1.356 . S
N311 H314 0.984 . S
N311 H315 0.985 . S
H312 N307 0.984 . S
H313 N307 0.985 . S
H314 N311 0.984 . S
H315 N311 0.985 . S
H316 N310 0.984 . S
H317 N310 0.984 . S
H318 N306 0.984 . S
H319 N306 0.985 . S
C320 C321 1.363 1_655 S
C320 C326 1.379 1_545 S
C320 N328 1.354 1_655 S
C321 C320 1.363 1_455 S
C321 C327 1.363 1_556 S
C322 C323 1.363 1_455 S
C322 C327 1.379 1_565 S
C322 N329 1.354 1_455 S
C323 C322 1.363 1_655 S
C323 C326 1.363 1_554 S
N324 C326 1.356 . S
N324 H336 0.984 . S
N324 H337 0.985 . S
N325 C327 1.356 . S
N325 H330 0.984 . S
N325 H331 0.985 . S
C326 C320 1.379 1_565 S
C326 C323 1.363 1_556 S
C326 N324 1.356 . S
C327 C321 1.363 1_554 S
C327 C322 1.379 1_545 S
C327 N325 1.356 . S
N328 C320 1.354 1_455 S
N328 H334 0.974 1_455 S
N328 H335 0.998 . S
N329 C322 1.354 1_655 S
N329 H332 0.998 . S
N329 H333 0.974 1_655 S
H330 N325 0.984 . S
H331 N325 0.985 . S
H332 N329 0.998 . S
H333 N329 0.974 1_455 S
H334 N328 0.974 1_655 S
H335 N328 0.998 . S
H336 N324 0.984 . S
H337 N324 0.985 . S
C338 C339 1.363 . S
C338 C344 1.379 . S
C338 N346 1.356 . S
C339 C338 1.363 . S
C339 C345 1.363 . S
C340 C341 1.363 . S
C340 C345 1.379 . S
C340 N347 1.356 . S
C341 C340 1.363 . S
C341 C344 1.363 . S
N342 C344 1.356 . S
N342 H354 0.984 . S
N342 H355 0.985 . S
N343 C345 1.356 . S
N343 H348 0.984 . S
N343 H349 0.985 . S
C344 C338 1.379 . S
C344 C341 1.363 . S
C344 N342 1.356 . S
C345 C339 1.363 . S
C345 C340 1.379 . S
C345 N343 1.356 . S
N346 C338 1.356 . S
N346 H352 0.984 . S
N346 H353 0.984 . S
N347 C340 1.356 . S
N347 H350 0.984 . S
N347 H351 0.985 . S
H348 N343 0.984 . S
H349 N343 0.985 . S
H350 N347 0.984 . S
H351 N347 0.985 . S
H352 N346 0.984 . S
H353 N346 0.984 . S
H354 N342 0.984 . S
H355 N342 0.985 . S
C356 C357 1.363 1_554 S
C356 C362 1.379 . S
C356 N364 1.356 . S
C357 C356 1.363 1_556 S
C357 C363 1.363 . S
C358 C359 1.363 1_556 S
C358 C363 1.379 . S
C358 N365 1.356 . S
C359 C358 1.363 1_554 S
C359 C362 1.363 . S
N360 C362 1.356 . S
N360 H372 0.984 . S
N360 H373 0.985 . S
N361 C363 1.356 . S
N361 H366 0.984 . S
N361 H367 0.985 . S
C362 C356 1.379 . S
C362 C359 1.363 . S
C362 N360 1.356 . S
C363 C357 1.363 . S
C363 C358 1.379 . S
C363 N361 1.356 . S
N364 C356 1.356 . S
N364 H370 0.984 . S
N364 H371 0.984 . S
N365 C358 1.356 . S
N365 H368 0.984 . S
N365 H369 0.985 . S
H366 N361 0.984 . S
H367 N361 0.985 . S
H368 N365 0.984 . S
H369 N365 0.985 . S
H370 N364 0.984 . S
H371 N364 0.984 . S
H372 N360 0.984 . S
H373 N360 0.985 . S
C374 C375 1.363 1_655 S
C374 C380 1.379 1_565 S
C374 N382 1.356 . S
C375 C374 1.363 1_455 S
C375 C381 1.363 . S
C376 C377 1.363 1_455 S
C376 C381 1.379 1_545 S
C376 N383 1.356 . S
C377 C376 1.363 1_655 S
C377 C380 1.363 . S
N378 C380 1.356 . S
N378 H390 0.984 1_545 S
N378 H391 0.985 . S
N379 C381 1.356 . S
N379 H384 0.984 . S
N379 H385 0.985 1_565 S
C380 C374 1.379 1_545 S
C380 C377 1.363 . S
C380 N378 1.356 . S
C381 C375 1.363 . S
C381 C376 1.379 1_565 S
C381 N379 1.356 . S
N382 C374 1.356 . S
N382 H388 0.984 . S
N382 H389 0.984 1_655 S
N383 C376 1.356 . S
N383 H386 0.984 1_455 S
N383 H387 0.985 . S
H384 N379 0.984 . S
H385 N379 0.985 1_545 S
H386 N383 0.984 1_655 S
H387 N383 0.985 . S
H388 N382 0.984 . S
H389 N382 0.984 1_455 S
H390 N378 0.984 1_565 S
H391 N378 0.985 . S
C105 C23 1.982 . S
C107 C3 1.998 . S
C123 C10 1.982 . S
C125 C16 1.998 . S
C141 C49 1.982 . S
C143 C29 1.998 . S
C159 C36 1.982 . S
C161 C42 1.998 . S
C177 C57 1.998 . S
C179 C66 1.982 . S
C195 C70 1.998 . S
C197 C53 1.982 . S
C213 C83 1.998 . S
C215 C92 1.983 . S
C231 C79 1.982 . S
C233 C96 1.998 . S
C249 C1 0.860 . S
C251 C40 0.860 . S
C267 C14 0.860 . S
C269 C27 0.860 . S
C285 C101 0.860 . S
C287 C62 0.860 . S
C303 C88 0.860 . S
C305 C75 0.860 . S
C321 C5 2.048 . S
C323 C55 2.048 . S
C339 C68 2.048 . S
C341 C18 2.048 . S
C357 C81 2.048 . S
C359 C31 2.048 . S
C375 C94 2.048 . S
C377 C44 2.048 . S
