# Generated by pormake.
# Topology umr, (4)-cn, num edge types: 1
# Building blocks:
#     Node 0, Type 0, BuildingBlock: CEKHIL_clean_sbu_0, # of connection points: 4
#     Node 1, Type 0, BuildingBlock: CEKHIL_clean_sbu_0, # of connection points: 4
#     Node 2, Type 0, BuildingBlock: CEKHIL_clean_sbu_0, # of connection points: 4
#     Node 3, Type 0, BuildingBlock: CEKHIL_clean_sbu_0, # of connection points: 4
#     Node 4, Type 0, BuildingBlock: CEKHIL_clean_sbu_0, # of connection points: 4
#     Node 5, Type 0, BuildingBlock: CEKHIL_clean_sbu_0, # of connection points: 4
#     Node 6, Type 0, BuildingBlock: CEKHIL_clean_sbu_0, # of connection points: 4
#     Node 7, Type 0, BuildingBlock: CEKHIL_clean_sbu_0, # of connection points: 4
#     Node 8, Type 0, BuildingBlock: CEKHIL_clean_sbu_0, # of connection points: 4
#     Node 9, Type 0, BuildingBlock: CEKHIL_clean_sbu_0, # of connection points: 4
#     Node 10, Type 0, BuildingBlock: CEKHIL_clean_sbu_0, # of connection points: 4
#     Node 11, Type 0, BuildingBlock: CEKHIL_clean_sbu_0, # of connection points: 4
#     Node 12, Type 0, BuildingBlock: CEKHIL_clean_sbu_0, # of connection points: 4
#     Node 13, Type 0, BuildingBlock: CEKHIL_clean_sbu_0, # of connection points: 4
#     Node 14, Type 0, BuildingBlock: CEKHIL_clean_sbu_0, # of connection points: 4
#     Node 15, Type 0, BuildingBlock: CEKHIL_clean_sbu_0, # of connection points: 4
#     Node 16, Type 0, BuildingBlock: CEKHIL_clean_sbu_0, # of connection points: 4
#     Node 17, Type 0, BuildingBlock: CEKHIL_clean_sbu_0, # of connection points: 4
#     Node 18, Type 0, BuildingBlock: CEKHIL_clean_sbu_0, # of connection points: 4
#     Node 19, Type 0, BuildingBlock: CEKHIL_clean_sbu_0, # of connection points: 4
#     Node 20, Type 0, BuildingBlock: CEKHIL_clean_sbu_0, # of connection points: 4
#     Node 21, Type 0, BuildingBlock: CEKHIL_clean_sbu_0, # of connection points: 4
#     Node 22, Type 0, BuildingBlock: CEKHIL_clean_sbu_0, # of connection points: 4
#     Node 23, Type 0, BuildingBlock: CEKHIL_clean_sbu_0, # of connection points: 4
#     Node 24, Type 0, BuildingBlock: CEKHIL_clean_sbu_0, # of connection points: 4
#     Node 25, Type 0, BuildingBlock: CEKHIL_clean_sbu_0, # of connection points: 4
#     Node 26, Type 0, BuildingBlock: CEKHIL_clean_sbu_0, # of connection points: 4
#     Node 27, Type 0, BuildingBlock: CEKHIL_clean_sbu_0, # of connection points: 4
#     Node 28, Type 0, BuildingBlock: CEKHIL_clean_sbu_0, # of connection points: 4
#     Node 29, Type 0, BuildingBlock: CEKHIL_clean_sbu_0, # of connection points: 4
#     Node 30, Type 0, BuildingBlock: CEKHIL_clean_sbu_0, # of connection points: 4
#     Node 31, Type 0, BuildingBlock: CEKHIL_clean_sbu_0, # of connection points: 4
#     Edge 32, Type (0, 0), BuildingBlock: KIFKEQ_clean_linker_1, # of connection points: 2
#     Edge 33, Type (0, 0), BuildingBlock: KIFKEQ_clean_linker_1, # of connection points: 2
#     Edge 34, Type (0, 0), BuildingBlock: KIFKEQ_clean_linker_1, # of connection points: 2
#     Edge 35, Type (0, 0), BuildingBlock: KIFKEQ_clean_linker_1, # of connection points: 2
#     Edge 36, Type (0, 0), BuildingBlock: KIFKEQ_clean_linker_1, # of connection points: 2
#     Edge 37, Type (0, 0), BuildingBlock: KIFKEQ_clean_linker_1, # of connection points: 2
#     Edge 38, Type (0, 0), BuildingBlock: KIFKEQ_clean_linker_1, # of connection points: 2
#     Edge 39, Type (0, 0), BuildingBlock: KIFKEQ_clean_linker_1, # of connection points: 2
#     Edge 40, Type (0, 0), BuildingBlock: KIFKEQ_clean_linker_1, # of connection points: 2
#     Edge 41, Type (0, 0), BuildingBlock: KIFKEQ_clean_linker_1, # of connection points: 2
#     Edge 42, Type (0, 0), BuildingBlock: KIFKEQ_clean_linker_1, # of connection points: 2
#     Edge 43, Type (0, 0), BuildingBlock: KIFKEQ_clean_linker_1, # of connection points: 2
#     Edge 44, Type (0, 0), BuildingBlock: KIFKEQ_clean_linker_1, # of connection points: 2
#     Edge 45, Type (0, 0), BuildingBlock: KIFKEQ_clean_linker_1, # of connection points: 2
#     Edge 46, Type (0, 0), BuildingBlock: KIFKEQ_clean_linker_1, # of connection points: 2
#     Edge 47, Type (0, 0), BuildingBlock: KIFKEQ_clean_linker_1, # of connection points: 2
#     Edge 48, Type (0, 0), BuildingBlock: KIFKEQ_clean_linker_1, # of connection points: 2
#     Edge 49, Type (0, 0), BuildingBlock: KIFKEQ_clean_linker_1, # of connection points: 2
#     Edge 50, Type (0, 0), BuildingBlock: KIFKEQ_clean_linker_1, # of connection points: 2
#     Edge 51, Type (0, 0), BuildingBlock: KIFKEQ_clean_linker_1, # of connection points: 2
#     Edge 52, Type (0, 0), BuildingBlock: KIFKEQ_clean_linker_1, # of connection points: 2
#     Edge 53, Type (0, 0), BuildingBlock: KIFKEQ_clean_linker_1, # of connection points: 2
#     Edge 54, Type (0, 0), BuildingBlock: KIFKEQ_clean_linker_1, # of connection points: 2
#     Edge 55, Type (0, 0), BuildingBlock: KIFKEQ_clean_linker_1, # of connection points: 2
#     Edge 56, Type (0, 0), BuildingBlock: KIFKEQ_clean_linker_1, # of connection points: 2
#     Edge 57, Type (0, 0), BuildingBlock: KIFKEQ_clean_linker_1, # of connection points: 2
#     Edge 58, Type (0, 0), BuildingBlock: KIFKEQ_clean_linker_1, # of connection points: 2
#     Edge 59, Type (0, 0), BuildingBlock: KIFKEQ_clean_linker_1, # of connection points: 2
#     Edge 60, Type (0, 0), BuildingBlock: KIFKEQ_clean_linker_1, # of connection points: 2
#     Edge 61, Type (0, 0), BuildingBlock: KIFKEQ_clean_linker_1, # of connection points: 2
#     Edge 62, Type (0, 0), BuildingBlock: KIFKEQ_clean_linker_1, # of connection points: 2
#     Edge 63, Type (0, 0), BuildingBlock: KIFKEQ_clean_linker_1, # of connection points: 2
#     Edge 64, Type (0, 0), BuildingBlock: KIFKEQ_clean_linker_1, # of connection points: 2
#     Edge 65, Type (0, 0), BuildingBlock: KIFKEQ_clean_linker_1, # of connection points: 2
#     Edge 66, Type (0, 0), BuildingBlock: KIFKEQ_clean_linker_1, # of connection points: 2
#     Edge 67, Type (0, 0), BuildingBlock: KIFKEQ_clean_linker_1, # of connection points: 2
#     Edge 68, Type (0, 0), BuildingBlock: KIFKEQ_clean_linker_1, # of connection points: 2
#     Edge 69, Type (0, 0), BuildingBlock: KIFKEQ_clean_linker_1, # of connection points: 2
#     Edge 70, Type (0, 0), BuildingBlock: KIFKEQ_clean_linker_1, # of connection points: 2
#     Edge 71, Type (0, 0), BuildingBlock: KIFKEQ_clean_linker_1, # of connection points: 2
#     Edge 72, Type (0, 0), BuildingBlock: KIFKEQ_clean_linker_1, # of connection points: 2
#     Edge 73, Type (0, 0), BuildingBlock: KIFKEQ_clean_linker_1, # of connection points: 2
#     Edge 74, Type (0, 0), BuildingBlock: KIFKEQ_clean_linker_1, # of connection points: 2
#     Edge 75, Type (0, 0), BuildingBlock: KIFKEQ_clean_linker_1, # of connection points: 2
#     Edge 76, Type (0, 0), BuildingBlock: KIFKEQ_clean_linker_1, # of connection points: 2
#     Edge 77, Type (0, 0), BuildingBlock: KIFKEQ_clean_linker_1, # of connection points: 2
#     Edge 78, Type (0, 0), BuildingBlock: KIFKEQ_clean_linker_1, # of connection points: 2
#     Edge 79, Type (0, 0), BuildingBlock: KIFKEQ_clean_linker_1, # of connection points: 2
#     Edge 80, Type (0, 0), BuildingBlock: KIFKEQ_clean_linker_1, # of connection points: 2
#     Edge 81, Type (0, 0), BuildingBlock: KIFKEQ_clean_linker_1, # of connection points: 2
#     Edge 82, Type (0, 0), BuildingBlock: KIFKEQ_clean_linker_1, # of connection points: 2
#     Edge 83, Type (0, 0), BuildingBlock: KIFKEQ_clean_linker_1, # of connection points: 2
#     Edge 84, Type (0, 0), BuildingBlock: KIFKEQ_clean_linker_1, # of connection points: 2
#     Edge 85, Type (0, 0), BuildingBlock: KIFKEQ_clean_linker_1, # of connection points: 2
#     Edge 86, Type (0, 0), BuildingBlock: KIFKEQ_clean_linker_1, # of connection points: 2
#     Edge 87, Type (0, 0), BuildingBlock: KIFKEQ_clean_linker_1, # of connection points: 2
#     Edge 88, Type (0, 0), BuildingBlock: KIFKEQ_clean_linker_1, # of connection points: 2
#     Edge 89, Type (0, 0), BuildingBlock: KIFKEQ_clean_linker_1, # of connection points: 2
#     Edge 90, Type (0, 0), BuildingBlock: KIFKEQ_clean_linker_1, # of connection points: 2
#     Edge 91, Type (0, 0), BuildingBlock: KIFKEQ_clean_linker_1, # of connection points: 2
#     Edge 92, Type (0, 0), BuildingBlock: KIFKEQ_clean_linker_1, # of connection points: 2
#     Edge 93, Type (0, 0), BuildingBlock: KIFKEQ_clean_linker_1, # of connection points: 2
#     Edge 94, Type (0, 0), BuildingBlock: KIFKEQ_clean_linker_1, # of connection points: 2
#     Edge 95, Type (0, 0), BuildingBlock: KIFKEQ_clean_linker_1, # of connection points: 2
# Relax obj value: 0.090
# Max RMSD: 0.107
# Mean RMSD: 0.107
data_MOF--net-umr--node1-CEKHIL_clean_sbu_0--edge1-KIFKEQ_clean_linker_1
_symmetry_space_group_name_H-M    P1
_symmetry_Int_Tables_number       1
_symmetry_cell_setting            triclinic
loop_
_symmetry_equiv_pos_as_xyz
'x, y, z'
_cell_length_a     83.96939
_cell_length_b     83.98424
_cell_length_c     26.923863
_cell_angle_alpha  90.011141
_cell_angle_beta   89.994479
_cell_angle_gamma 89.994875
loop_
_atom_site_label
_atom_site_type_symbol
_atom_site_fract_x
_atom_site_fract_y
_atom_site_fract_z
_atom_type_partial_charge
Co0 Co 0.16324 0.29509 0.02895 0.0
O1 O 0.14143 0.3008 0.0411 0.0
O2 O 0.16208 0.31562 0.06241 0.0
C3 C 0.15932 0.2874 0.94948 0.0
O4 O 0.18744 0.29339 0.01988 0.0
Co5 Co 0.17225 0.26019 0.00042 0.0
O6 O 0.19231 0.27054 0.97893 0.0
C7 C 0.16321 0.26808 0.10372 0.0
C8 C 0.14668 0.31391 0.06054 0.0
C9 C 0.19679 0.28407 -0.00469 0.0
O10 O 0.16407 0.28315 0.09447 0.0
O11 O 0.16467 0.25734 0.07027 0.0
O12 O 0.16138 0.30239 0.95978 0.0
O13 O 0.15856 0.27805 0.9872 0.0
Co14 Co 0.96551 0.91389 0.28171 0.0
O15 O 0.9602 0.89221 0.29839 0.0
O16 O 0.94493 0.91308 0.31433 0.0
C17 C 0.97353 0.90849 0.2034 0.0
O18 O 0.96645 0.93787 0.26891 0.0
Co19 Co 0.99972 0.92425 0.25044 0.0
O20 O 0.98878 0.94374 0.22662 0.0
C21 C 0.99242 0.9166 0.35572 0.0
C22 C 0.94691 0.89773 0.31601 0.0
C23 C 0.97516 0.94758 0.24369 0.0
O24 O 0.9773 0.91634 0.34691 0.0
O25 O 1.00296 0.91821 0.3217 0.0
O26 O 0.95847 0.9104 0.21296 0.0
O27 O 0.98286 0.90898 0.24123 0.0
Co28 Co 0.34803 0.71511 0.53374 0.0
O29 O 0.3701 0.71034 0.54673 0.0
O30 O 0.34992 0.69464 0.56645 0.0
C31 C 0.35181 0.72336 0.45472 0.0
O32 O 0.32383 0.71532 0.52456 0.0
Co33 Co 0.33596 0.74893 0.5047 0.0
O34 O 0.31706 0.73706 0.48077 0.0
C35 C 0.344 0.74158 0.60966 0.0
C36 C 0.36523 0.69695 0.56554 0.0
C37 C 0.31374 0.72347 0.49896 0.0
O38 O 0.34627 0.72672 0.59949 0.0
O39 O 0.34076 0.75211 0.57678 0.0
O40 O 0.35065 0.70823 0.46445 0.0
O41 O 0.35168 0.73265 0.49272 0.0
Co42 Co 0.54595 0.09818 0.78332 0.0
O43 O 0.55132 0.12012 0.79562 0.0
O44 O 0.56624 0.0996 0.8176 0.0
C45 C 0.5385 0.10191 0.70352 0.0
O46 O 0.54492 0.07401 0.77517 0.0
Co47 Co 0.51178 0.08756 0.7526 0.0
O48 O 0.52285 0.06772 0.73221 0.0
C49 C 0.5186 0.09702 0.85659 0.0
C50 C 0.56439 0.11497 0.81575 0.0
C51 C 0.53633 0.06403 0.75061 0.0
O52 O 0.53374 0.09713 0.84816 0.0
O53 O 0.50815 0.09482 0.82259 0.0
O54 O 0.55348 0.10013 0.71442 0.0
O55 O 0.52893 0.10234 0.74079 0.0
Co56 Co 0.16228 0.71672 0.45365 0.0
O57 O 0.14014 0.71237 0.44041 0.0
O58 O 0.16005 0.69638 0.42034 0.0
C59 C 0.15854 0.72478 0.53286 0.0
O60 O 0.18648 0.71648 0.46307 0.0
Co61 Co 0.17491 0.75022 0.48413 0.0
O62 O 0.19357 0.73792 0.50779 0.0
C63 C 0.16703 0.74334 0.37869 0.0
C64 C 0.14478 0.69893 0.42144 0.0
C65 C 0.19668 0.72435 0.48906 0.0
O66 O 0.16436 0.72852 0.38831 0.0
O67 O 0.17041 0.7537 0.412 0.0
O68 O 0.15946 0.70966 0.52268 0.0
O69 O 0.15889 0.73418 0.49517 0.0
Co70 Co 0.54699 0.9128 0.6983 0.0
O71 O 0.55201 0.89099 0.68209 0.0
O72 O 0.56763 0.91163 0.66639 0.0
C73 C 0.53858 0.90799 0.77661 0.0
O74 O 0.54645 0.93685 0.7106 0.0
Co75 Co 0.51292 0.92409 0.72797 0.0
O76 O 0.5244 0.94295 0.7539 0.0
C77 C 0.52071 0.91758 0.62224 0.0
C78 C 0.56541 0.89632 0.66466 0.0
C79 C 0.53803 0.94661 0.73659 0.0
O80 O 0.53556 0.91535 0.63252 0.0
O81 O 0.51003 0.92022 0.65521 0.0
O82 O 0.55372 0.90936 0.76729 0.0
O83 O 0.52937 0.90843 0.73843 0.0
Co84 Co 0.34917 0.29587 0.95585 0.0
O85 O 0.37085 0.30245 0.94611 0.0
O86 O 0.34988 0.31653 0.92306 0.0
C87 C 0.35226 0.28798 0.0355 0.0
O88 O 0.32499 0.29311 0.96217 0.0
Co89 Co 0.34172 0.26029 0.9811 0.0
O90 O 0.32024 0.26894 -0.0048 0.0
C91 C 0.35138 0.26931 0.8797 0.0
C92 C 0.36531 0.31537 0.92617 0.0
C93 C 0.31548 0.2826 0.98075 0.0
O94 O 0.34945 0.28422 0.88978 0.0
O95 O 0.35049 0.25829 0.91242 0.0
O96 O 0.34999 0.30296 0.02551 0.0
O97 O 0.35398 0.27888 -0.0025 0.0
Co98 Co 0.9641 0.09938 0.19846 0.0
O99 O 0.95837 0.12134 0.18758 0.0
O100 O 0.94335 0.10069 0.16711 0.0
C101 C 0.97255 0.10244 0.27762 0.0
O102 O 0.96553 0.07517 0.20526 0.0
Co103 Co 0.99889 0.08913 0.22368 0.0
O104 O 0.98842 0.06899 0.24415 0.0
C105 C 0.99047 0.09961 0.12199 0.0
C106 C 0.94513 0.11606 0.16891 0.0
C107 C 0.97469 0.06521 0.22781 0.0
O108 O 0.97545 0.09886 0.13204 0.0
O109 O 1.00139 0.09758 0.15457 0.0
O110 O 0.95742 0.10088 0.2683 0.0
O111 O 0.98161 0.10338 0.23921 0.0
Co112 Co 0.84835 0.71718 0.95264 0.0
O113 O 0.87021 0.71124 0.94231 0.0
O114 O 0.84958 0.69671 0.91903 0.0
C115 C 0.85157 0.72475 0.03249 0.0
O116 O 0.8241 0.71908 0.9591 0.0
Co117 Co 0.83922 0.7521 0.98163 0.0
O118 O 0.81829 0.74238 -0.00378 0.0
C119 C 0.84724 0.74418 0.8773 0.0
C120 C 0.86498 0.69824 0.92213 0.0
C121 C 0.81413 0.72883 0.97927 0.0
O122 O 0.84814 0.72916 0.8872 0.0
O123 O 0.84491 0.75492 0.91023 0.0
O124 O 0.8495 0.70979 0.02184 0.0
O125 O 0.85277 0.73415 -0.00498 0.0
Co126 Co 0.04464 0.09792 0.69917 0.0
O127 O 0.04989 0.11942 0.68032 0.0
O128 O 0.06545 0.09852 0.66776 0.0
C129 C 0.03617 0.10399 0.77653 0.0
O130 O 0.04368 0.07405 0.71519 0.0
Co131 Co 0.01012 0.08806 0.7285 0.0
O132 O 0.02122 0.06959 0.75834 0.0
C133 C 0.01855 0.09256 0.62245 0.0
C134 C 0.06332 0.11382 0.66409 0.0
C135 C 0.03485 0.06515 0.74283 0.0
O136 O 0.03339 0.09465 0.63329 0.0
O137 O 0.00763 0.09065 0.6551 0.0
O138 O 0.05129 0.10217 0.76773 0.0
O139 O 0.02702 0.10326 0.73823 0.0
Co140 Co 0.66272 0.29562 0.45888 0.0
O141 O 0.64081 0.30012 0.44317 0.0
O142 O 0.661 0.31608 0.42585 0.0
C143 C 0.6577 0.28743 0.53716 0.0
O144 O 0.68678 0.29557 0.47101 0.0
Co145 Co 0.67464 0.26198 0.49018 0.0
O146 O 0.69323 0.27396 0.51584 0.0
C147 C 0.66838 0.26923 0.38387 0.0
C148 C 0.64572 0.31358 0.42509 0.0
C149 C 0.69668 0.28751 0.49756 0.0
O150 O 0.66551 0.28401 0.39362 0.0
O151 O 0.67135 0.25877 0.41722 0.0
O152 O 0.65911 0.30254 0.52762 0.0
O153 O 0.65855 0.27808 0.49941 0.0
Co154 Co 0.46669 0.91344 0.19811 0.0
O155 O 0.46209 0.89144 0.183 0.0
O156 O 0.44605 0.91168 0.16652 0.0
C157 C 0.47524 0.9091 0.27648 0.0
O158 O 0.46676 0.93757 0.20944 0.0
Co159 Co 0.50055 0.92551 0.22685 0.0
O160 O 0.48868 0.94416 0.25263 0.0
C161 C 0.49282 0.91826 0.12156 0.0
C162 C 0.44855 0.89641 0.16561 0.0
C163 C 0.47498 0.94753 0.23532 0.0
O164 O 0.47801 0.91587 0.13209 0.0
O165 O 0.50347 0.92128 0.15429 0.0
O166 O 0.46008 0.91016 0.26725 0.0
O167 O 0.48443 0.90958 0.23823 0.0
Co168 Co 0.84862 0.2963 0.53069 0.0
O169 O 0.8707 0.30184 0.53935 0.0
O170 O 0.85046 0.31665 0.56445 0.0
C171 C 0.85098 0.28873 0.45051 0.0
O172 O 0.82436 0.29505 0.52633 0.0
Co173 Co 0.83794 0.2619 0.50259 0.0
O174 O 0.81773 0.27278 0.48479 0.0
C175 C 0.84898 0.26912 0.60468 0.0
C176 C 0.8658 0.31489 0.56017 0.0
C177 C 0.81416 0.28629 0.50329 0.0
O178 O 0.84872 0.28423 0.59584 0.0
O179 O 0.84642 0.25854 0.57135 0.0
O180 O 0.84936 0.30373 0.46148 0.0
O181 O 0.85219 0.27924 0.4878 0.0
Co182 Co 0.4657 0.09906 0.28321 0.0
O183 O 0.46044 0.12107 0.29477 0.0
O184 O 0.44539 0.10072 0.3174 0.0
C185 C 0.47317 0.1025 0.20331 0.0
O186 O 0.46666 0.07484 0.27563 0.0
Co187 Co 0.49989 0.08833 0.25293 0.0
O188 O 0.48872 0.06854 0.23253 0.0
C189 C 0.49302 0.09796 0.35671 0.0
C190 C 0.44732 0.11608 0.31492 0.0
C191 C 0.47523 0.06487 0.25096 0.0
O192 O 0.47789 0.09814 0.34813 0.0
O193 O 0.50349 0.09566 0.32284 0.0
O194 O 0.45817 0.10083 0.21428 0.0
O195 O 0.48274 0.10304 0.24056 0.0
Co196 Co 0.66322 0.71487 0.03012 0.0
O197 O 0.64174 0.7097 0.04942 0.0
O198 O 0.66262 0.69405 0.06131 0.0
C199 C 0.65693 0.72346 0.95311 0.0
O200 O 0.68704 0.71575 0.01374 0.0
Co201 Co 0.67318 0.74936 0.00067 0.0
O202 O 0.69175 0.7383 0.97133 0.0
C203 C 0.66908 0.7408 0.10684 0.0
C204 C 0.64734 0.69623 0.06536 0.0
C205 C 0.6961 0.72464 0.98678 0.0
O206 O 0.66674 0.72601 0.09598 0.0
O207 O 0.67097 0.75174 0.07424 0.0
O208 O 0.65874 0.70833 0.9616 0.0
O209 O 0.65785 0.73255 0.99149 0.0
Co210 Co 0.04571 0.91287 0.78235 0.0
O211 O 0.05226 0.89105 0.78898 0.0
O212 O 0.0663 0.91163 0.81539 0.0
C213 C 0.03795 0.91094 0.70225 0.0
O214 O 0.04302 0.93709 0.77966 0.0
Co215 Co 0.01017 0.92073 0.75774 0.0
O216 O 0.01858 0.94262 0.74961 0.0
C217 C 0.01905 0.90965 0.85785 0.0
C218 C 0.06512 0.89626 0.81006 0.0
C219 C 0.03237 0.94699 0.76413 0.0
O220 O 0.03397 0.91163 0.84812 0.0
O221 O 0.00806 0.911 0.82517 0.0
O222 O 0.05291 0.91314 0.71281 0.0
O223 O 0.02877 0.90867 0.73977 0.0
Co224 Co 0.66364 0.7951 0.53126 0.0
O225 O 0.6418 0.80142 0.54033 0.0
O226 O 0.66264 0.8159 0.56268 0.0
C227 C 0.66111 0.78673 0.4519 0.0
O228 O 0.68788 0.79268 0.52622 0.0
Co229 Co 0.67181 0.75951 0.5085 0.0
O230 O 0.69347 0.76811 0.49746 0.0
C231 C 0.66087 0.76898 0.60819 0.0
C232 C 0.64723 0.81444 0.5599 0.0
C233 C 0.6978 0.78206 0.51054 0.0
O234 O 0.66316 0.78381 0.59786 0.0
O235 O 0.66198 0.75784 0.57592 0.0
O236 O 0.66304 0.8018 0.4613 0.0
O237 O 0.6593 0.77779 0.49023 0.0
Co238 Co 0.4657 0.41292 0.78163 0.0
O239 O 0.45908 0.39118 0.7898 0.0
O240 O 0.44503 0.41201 0.81423 0.0
C241 C 0.47369 0.41043 0.70186 0.0
O242 O 0.46845 0.43713 0.77705 0.0
Co243 Co 0.50143 0.42034 0.75772 0.0
O244 O 0.49336 0.44234 0.75007 0.0
C245 C 0.49215 0.40975 0.85774 0.0
C246 C 0.44617 0.39661 0.8101 0.0
C247 C 0.47943 0.44684 0.76272 0.0
O248 O 0.4773 0.41214 0.84777 0.0
O249 O 0.5032 0.41059 0.82511 0.0
O250 O 0.45869 0.41261 0.71187 0.0
O251 O 0.48275 0.40841 0.73981 0.0
Co252 Co 0.84758 0.21651 0.0295 0.0
O253 O 0.869 0.21081 0.04766 0.0
O254 O 0.84772 0.19609 0.06339 0.0
C255 C 0.85345 0.22384 0.95086 0.0
O256 O 0.82369 0.21815 0.01482 0.0
Co257 Co 0.83909 0.25114 -0.00299 0.0
O258 O 0.81944 0.24076 0.97211 0.0
C259 C 0.84555 0.24385 0.10275 0.0
C260 C 0.8631 0.19779 0.06592 0.0
C261 C 0.81474 0.22731 0.98841 0.0
O262 O 0.84513 0.22872 0.09409 0.0
O263 O 0.84475 0.25439 0.06848 0.0
O264 O 0.85113 0.2089 0.96135 0.0
O265 O 0.8533 0.23339 0.9882 0.0
Co266 Co 0.0456 0.59908 0.28371 0.0
O267 O 0.04961 0.62119 0.29846 0.0
O268 O 0.066 0.60142 0.31659 0.0
C269 C 0.03724 0.60341 0.20517 0.0
O270 O 0.04624 0.57496 0.27265 0.0
Co271 Co 0.01231 0.58598 0.25305 0.0
O272 O 0.02483 0.56766 0.22813 0.0
C273 C 0.01928 0.59335 0.35881 0.0
C274 C 0.06319 0.61665 0.31666 0.0
C275 C 0.03849 0.56471 0.24646 0.0
O276 O 0.03403 0.59635 0.34909 0.0
O277 O 0.00892 0.58994 0.32556 0.0
O278 O 0.0524 0.60259 0.21481 0.0
O279 O 0.02793 0.60249 0.24302 0.0
Co280 Co 0.66202 0.21566 0.95831 0.0
O281 O 0.64021 0.20903 0.95193 0.0
O282 O 0.66084 0.19506 0.92538 0.0
C283 C 0.66025 0.22349 0.03837 0.0
O284 O 0.68625 0.21849 0.96066 0.0
Co285 Co 0.66966 0.25131 0.98218 0.0
O286 O 0.69159 0.24303 0.99023 0.0
C287 C 0.65844 0.24219 0.88259 0.0
C288 C 0.64547 0.19619 0.93079 0.0
C289 C 0.69607 0.22926 0.97584 0.0
O290 O 0.66066 0.22731 0.89247 0.0
O291 O 0.65967 0.25324 0.91509 0.0
O292 O 0.66235 0.20852 0.02793 0.0
O293 O 0.65787 0.23262 0.00078 0.0
Co294 Co 0.04738 0.4135 0.19997 0.0
O295 O 0.05188 0.39145 0.18581 0.0
O296 O 0.0679 0.41149 0.16749 0.0
C297 C 0.03897 0.40918 0.27851 0.0
O298 O 0.04749 0.43765 0.21053 0.0
Co299 Co 0.01376 0.42595 0.22996 0.0
O300 O 0.02589 0.44456 0.25478 0.0
C301 C 0.02105 0.41857 0.12439 0.0
C302 C 0.06541 0.39621 0.16778 0.0
C303 C 0.03951 0.44776 0.23653 0.0
O304 O 0.03585 0.41584 0.13433 0.0
O305 O 0.01058 0.42183 0.15747 0.0
O306 O 0.05413 0.4103 0.26909 0.0
O307 O 0.02972 0.40981 0.24049 0.0
Co308 Co 0.8492 0.79711 0.45318 0.0
O309 O 0.87068 0.80272 0.43533 0.0
O310 O 0.84952 0.81767 0.42021 0.0
C311 C 0.85496 0.78933 0.53145 0.0
O312 O 0.82527 0.79558 0.46777 0.0
Co313 Co 0.84043 0.76235 0.48418 0.0
O314 O 0.82086 0.77276 0.50935 0.0
C315 C 0.84732 0.77009 0.3791 0.0
C316 C 0.8649 0.81588 0.41772 0.0
C317 C 0.81625 0.78633 0.49369 0.0
O318 O 0.8467 0.78519 0.38813 0.0
O319 O 0.84652 0.75944 0.41301 0.0
O320 O 0.85289 0.80435 0.52166 0.0
O321 O 0.85471 0.77999 0.49363 0.0
Co322 Co 0.46666 0.59914 0.7019 0.0
O323 O 0.46022 0.62102 0.6959 0.0
O324 O 0.44587 0.60051 0.6704 0.0
C325 C 0.47509 0.60073 0.78144 0.0
O326 O 0.46917 0.57489 0.70434 0.0
Co327 Co 0.50245 0.59121 0.72271 0.0
O328 O 0.49421 0.56922 0.72909 0.0
C329 C 0.49264 0.60281 0.62438 0.0
C330 C 0.44718 0.61587 0.67565 0.0
C331 C 0.48014 0.56496 0.71717 0.0
O332 O 0.47786 0.60037 0.63515 0.0
O333 O 0.5039 0.60164 0.65619 0.0
O334 O 0.46001 0.59888 0.77197 0.0
O335 O 0.48398 0.60307 0.74325 0.0
Co336 Co 0.34765 0.21521 0.45541 0.0
O337 O 0.36971 0.21065 0.44169 0.0
O338 O 0.34968 0.19468 0.42284 0.0
C339 C 0.35191 0.22356 0.53404 0.0
O340 O 0.32348 0.21525 0.46535 0.0
Co341 Co 0.33538 0.24888 0.48526 0.0
O342 O 0.31663 0.23687 0.50961 0.0
C343 C 0.34268 0.2415 0.37963 0.0
C344 C 0.36497 0.19717 0.42334 0.0
C345 C 0.31336 0.2233 0.49112 0.0
O346 O 0.34548 0.22673 0.38973 0.0
O347 O 0.33937 0.25198 0.41262 0.0
O348 O 0.35062 0.20842 0.52462 0.0
O349 O 0.35141 0.23282 0.49604 0.0
Co350 Co 0.5472 0.59776 0.20227 0.0
O351 O 0.55194 0.61953 0.18473 0.0
O352 O 0.56797 0.59904 0.17128 0.0
C353 C 0.53837 0.60334 0.27961 0.0
O354 O 0.54709 0.57383 0.21608 0.0
Co355 Co 0.51341 0.58591 0.23195 0.0
O356 O 0.52504 0.56723 0.25853 0.0
C357 C 0.52143 0.59154 0.12575 0.0
C358 C 0.56554 0.6143 0.16851 0.0
C359 C 0.5388 0.56387 0.24164 0.0
O360 O 0.53614 0.59446 0.1363 0.0
O361 O 0.51074 0.58878 0.15859 0.0
O362 O 0.55355 0.6019 0.27119 0.0
O363 O 0.5293 0.60222 0.24123 0.0
Co364 Co 0.1641 0.79701 0.95344 0.0
O365 O 0.14205 0.80186 0.94035 0.0
O366 O 0.16228 0.81741 0.92016 0.0
C367 C 0.16023 0.78902 0.03266 0.0
O368 O 0.1883 0.79669 0.96251 0.0
Co369 Co 0.176 0.76322 0.9837 0.0
O370 O 0.19505 0.77504 0.00675 0.0
C371 C 0.16802 0.77027 0.87846 0.0
C372 C 0.14696 0.81518 0.92123 0.0
C373 C 0.19841 0.78855 0.98804 0.0
O374 O 0.16581 0.78517 0.8881 0.0
O375 O 0.17119 0.75984 0.91171 0.0
O376 O 0.1615 0.80411 0.02253 0.0
O377 O 0.16035 0.77962 -0.00506 0.0
Co378 Co 0.96662 0.41268 0.70068 0.0
O379 O 0.96091 0.39081 0.68936 0.0
O380 O 0.94608 0.41141 0.66757 0.0
C381 C 0.97449 0.40924 0.78032 0.0
O382 O 0.96826 0.43693 0.70826 0.0
Co383 Co 1.00171 0.42174 0.72884 0.0
O384 O 0.99232 0.44298 0.74035 0.0
C385 C 0.99344 0.41425 0.62457 0.0
C386 C 0.94779 0.39602 0.66978 0.0
C387 C 0.97844 0.44697 0.72568 0.0
O388 O 0.97843 0.41341 0.63482 0.0
O389 O 1.00429 0.41617 0.65738 0.0
O390 O 0.95945 0.41106 0.77016 0.0
O391 O 0.98374 0.40828 0.74246 0.0
Co392 Co 0.34981 0.79557 0.03341 0.0
O393 O 0.37178 0.80019 0.04908 0.0
O394 O 0.35145 0.81614 0.0654 0.0
C395 C 0.35433 0.78717 0.95491 0.0
O396 O 0.32572 0.79559 0.02174 0.0
Co397 Co 0.33763 0.76188 0.00327 0.0
O398 O 0.31889 0.77379 0.97835 0.0
C399 C 0.34457 0.76928 0.10907 0.0
C400 C 0.36673 0.8137 0.06651 0.0
C401 C 0.31564 0.78747 -0.00394 0.0
O402 O 0.34717 0.7841 0.0991 0.0
O403 O 0.34157 0.75877 0.0759 0.0
O404 O 0.35324 0.80232 0.96442 0.0
O405 O 0.35373 0.77792 -0.00705 0.0
Co406 Co 0.96511 0.5995 0.78308 0.0
O407 O 0.95942 0.62144 0.79314 0.0
O408 O 0.94463 0.60099 0.81641 0.0
C409 C 0.97287 0.60244 0.70315 0.0
O410 O 0.96667 0.57521 0.77699 0.0
Co411 Co 1.0001 0.59009 0.75478 0.0
O412 O 0.99072 0.56873 0.74559 0.0
C413 C 0.99209 0.59851 0.8586 0.0
C414 C 0.94633 0.61636 0.81319 0.0
C415 C 0.9768 0.56498 0.76039 0.0
O416 O 0.97704 0.59916 0.84874 0.0
O417 O 1.00285 0.59642 0.82556 0.0
O418 O 0.95784 0.60071 0.71361 0.0
O419 O 0.98218 0.60358 0.74081 0.0
Co420 Co 0.1617 0.21456 0.5292 0.0
O421 O 0.13979 0.20919 0.54268 0.0
O422 O 0.16046 0.19406 0.56205 0.0
C423 C 0.1577 0.22246 0.44994 0.0
O424 O 0.18584 0.21556 0.52003 0.0
Co425 Co 0.17235 0.24884 0.4995 0.0
O426 O 0.19228 0.23795 0.47895 0.0
C427 C 0.16311 0.24155 0.6034 0.0
C428 C 0.1451 0.19598 0.56152 0.0
C429 C 0.19589 0.22432 0.49639 0.0
O430 O 0.16311 0.22643 0.59455 0.0
O431 O 0.16512 0.25211 0.56966 0.0
O432 O 0.15939 0.20741 0.46006 0.0
O433 O 0.15743 0.23183 0.4877 0.0
Co434 Co 0.54632 0.41237 0.28151 0.0
O435 O 0.55081 0.39032 0.29561 0.0
O436 O 0.56678 0.41038 0.31429 0.0
C437 C 0.53801 0.40799 0.2029 0.0
O438 O 0.54641 0.43649 0.2713 0.0
Co439 Co 0.51277 0.42479 0.25097 0.0
O440 O 0.52484 0.44358 0.22721 0.0
C441 C 0.51998 0.41767 0.35685 0.0
C442 C 0.56428 0.3951 0.31397 0.0
C443 C 0.53842 0.44672 0.24581 0.0
O444 O 0.53474 0.41473 0.34703 0.0
O445 O 0.50956 0.42096 0.32364 0.0
O446 O 0.55315 0.40925 0.21239 0.0
O447 O 0.52872 0.40862 0.24081 0.0
H448 H 0.29209 0.26111 -0.00047 0.0
H449 H 0.29925 0.31112 0.96818 0.0
H450 H 0.26357 0.26515 0.00026 0.0
H451 H 0.27013 0.31511 0.96957 0.0
H452 H 0.21537 0.30536 0.0482 0.0
H453 H 0.24453 0.30822 0.04306 0.0
H454 H 0.24546 0.27527 0.92026 0.0
H455 H 0.21671 0.27242 0.92489 0.0
C456 C 0.28764 0.27304 -0.0068 0.0
C457 C 0.29807 0.28577 0.98345 0.0
C458 C 0.27124 0.27531 -0.00642 0.0
C459 C 0.2647 0.29039 0.98472 0.0
C460 C 0.27496 0.30336 0.97654 0.0
C461 C 0.29156 0.30104 0.97552 0.0
C462 C 0.22178 0.29906 0.01936 0.0
C463 C 0.21376 0.28838 0.98768 0.0
C464 C 0.23842 0.30075 0.01635 0.0
C465 C 0.24716 0.29183 0.98156 0.0
C466 C 0.23898 0.28217 0.94762 0.0
C467 C 0.22251 0.28049 0.95056 0.0
H468 H 0.95794 0.96559 0.30904 0.0
H469 H 0.98122 0.96745 0.16615 0.0
H470 H 0.95367 0.99446 0.30574 0.0
H471 H 0.97661 0.99616 0.16241 0.0
H472 H 0.95815 0.04724 0.16057 0.0
H473 H 0.95409 0.01829 0.16284 0.0
H474 H 0.9762 0.01641 0.30742 0.0
H475 H 0.98062 0.04514 0.30462 0.0
C476 C 0.96174 0.97209 0.27637 0.0
C477 C 0.97004 0.96433 0.23803 0.0
C478 C 0.95934 0.98858 0.27459 0.0
C479 C 0.96483 0.9975 0.23387 0.0
C480 C 0.97215 0.98955 0.19405 0.0
C481 C 0.97487 0.97315 0.19634 0.0
C482 C 0.96183 0.04066 0.1932 0.0
C483 C 0.96982 0.04837 0.23225 0.0
C484 C 0.95955 0.02413 0.19441 0.0
C485 C 0.96484 0.01515 0.23529 0.0
C486 C 0.97189 0.02305 0.27566 0.0
C487 C 0.97451 0.03946 0.27391 0.0
H488 H 0.2138 0.70727 0.42092 0.0
H489 H 0.217 0.72861 0.56647 0.0
H490 H 0.24257 0.70224 0.42215 0.0
H491 H 0.24557 0.72335 0.56804 0.0
H492 H 0.29348 0.72835 0.42178 0.0
H493 H 0.26483 0.7235 0.42001 0.0
H494 H 0.26753 0.70178 0.56506 0.0
H495 H 0.29637 0.70639 0.56646 0.0
C496 C 0.22056 0.71046 0.4537 0.0
C497 C 0.21322 0.71848 0.4934 0.0
C498 C 0.23701 0.70764 0.45431 0.0
C499 C 0.2463 0.71245 0.49511 0.0
C500 C 0.23871 0.71939 0.53628 0.0
C501 C 0.22238 0.7225 0.53523 0.0
C502 C 0.28801 0.7222 0.45277 0.0
C503 C 0.2971 0.71787 0.49444 0.0
C504 C 0.27163 0.71932 0.45161 0.0
C505 C 0.26395 0.71233 0.4925 0.0
C506 C 0.27317 0.70722 0.53311 0.0
C507 C 0.28965 0.7098 0.53382 0.0
H508 H 0.55342 0.04659 0.81789 0.0
H509 H 0.53072 0.0436 0.67431 0.0
H510 H 0.55832 0.01779 0.81597 0.0
H511 H 0.53591 0.015 0.67197 0.0
H512 H 0.55471 0.96467 0.67012 0.0
H513 H 0.55859 0.99361 0.67287 0.0
H514 H 0.5369 0.99508 0.81814 0.0
H515 H 0.53273 0.96631 0.81499 0.0
C516 C 0.54984 0.03985 0.78545 0.0
C517 C 0.54155 0.04727 0.74646 0.0
C518 C 0.55261 0.0234 0.78444 0.0
C519 C 0.54749 0.0142 0.74384 0.0
C520 C 0.54011 0.02182 0.70352 0.0
C521 C 0.53703 0.03816 0.70503 0.0
C522 C 0.55115 0.97114 0.70312 0.0
C523 C 0.54329 0.96331 0.74217 0.0
C524 C 0.55331 0.98768 0.70458 0.0
C525 C 0.54798 0.99656 0.74563 0.0
C526 C 0.54122 0.98852 0.7862 0.0
C527 C 0.53875 0.97208 0.78428 0.0
H528 H 0.71479 0.70353 0.03934 0.0
H529 H 0.71552 0.73554 0.91367 0.0
H530 H 0.74394 0.70113 0.03442 0.0
H531 H 0.74437 0.73316 0.9093 0.0
H532 H 0.78979 0.74945 -0.00477 0.0
H533 H 0.76143 0.74439 0.9919 0.0
H534 H 0.77024 0.69474 0.96172 0.0
H535 H 0.79918 0.69978 0.96423 0.0
C536 C 0.72107 0.70964 0.00981 0.0
C537 C 0.71289 0.72 0.97754 0.0
C538 C 0.73771 0.70822 0.00698 0.0
C539 C 0.7463 0.71709 0.97177 0.0
C540 C 0.73798 0.72628 0.93692 0.0
C541 C 0.72147 0.72769 0.93965 0.0
C542 C 0.78585 0.73738 0.98819 0.0
C543 C 0.79685 0.72503 0.97982 0.0
C544 C 0.76956 0.73453 0.98612 0.0
C545 C 0.76372 0.71923 0.97623 0.0
C546 C 0.77453 0.70665 0.96933 0.0
C547 C 0.79103 0.70956 0.97064 0.0
H548 H 0.01059 0.97063 0.77039 0.0
H549 H 0.06133 0.9627 0.75976 0.0
H550 H 0.01492 0.99912 0.77041 0.0
H551 H 0.06566 0.99176 0.75932 0.0
H552 H 0.0545 0.04532 0.68878 0.0
H553 H 0.05699 0.01632 0.69864 0.0
H554 H 0.02829 0.0186 0.83137 0.0
H555 H 0.02569 0.04727 0.82159 0.0
C556 C 0.02272 0.97497 0.768 0.0
C557 C 0.03562 0.96435 0.76504 0.0
C558 C 0.02519 0.99134 0.76837 0.0
C559 C 0.04063 0.99766 0.76532 0.0
C560 C 0.05364 0.98716 0.76184 0.0
C561 C 0.05116 0.97059 0.76231 0.0
C562 C 0.04911 0.03966 0.72077 0.0
C563 C 0.03959 0.04851 0.75379 0.0
C564 C 0.05057 0.02308 0.72645 0.0
C565 C 0.04258 0.01523 0.76527 0.0
C566 C 0.03434 0.02433 0.80064 0.0
C567 C 0.03284 0.04075 0.79495 0.0
H568 H 0.71425 0.30418 0.42979 0.0
H569 H 0.71685 0.28264 0.57515 0.0
H570 H 0.74317 0.30819 0.43073 0.0
H571 H 0.74562 0.28692 0.57645 0.0
H572 H 0.79311 0.28048 0.42891 0.0
H573 H 0.7645 0.28561 0.42876 0.0
H574 H 0.76838 0.30818 0.5723 0.0
H575 H 0.79722 0.30333 0.572 0.0
C576 C 0.72092 0.30076 0.46252 0.0
C577 C 0.71335 0.29297 0.50222 0.0
C578 C 0.73745 0.30298 0.46295 0.0
C579 C 0.74661 0.29779 0.50356 0.0
C580 C 0.73885 0.29113 0.54482 0.0
C581 C 0.7224 0.2886 0.54395 0.0
C582 C 0.7879 0.28681 0.46001 0.0
C583 C 0.79734 0.29139 0.50065 0.0
C584 C 0.77156 0.28985 0.45975 0.0
C585 C 0.76424 0.29727 0.50055 0.0
C586 C 0.77375 0.30243 0.5404 0.0
C587 C 0.79022 0.2997 0.54016 0.0
H588 H 0.45806 0.96541 0.16882 0.0
H589 H 0.47976 0.9672 0.31407 0.0
H590 H 0.45368 0.99428 0.17197 0.0
H591 H 0.47511 0.99588 0.3176 0.0
H592 H 0.45839 0.04718 0.31834 0.0
H593 H 0.45372 0.01833 0.31595 0.0
H594 H 0.4757 0.01604 0.1712 0.0
H595 H 0.48064 0.04467 0.17398 0.0
C596 C 0.46145 0.97189 0.20198 0.0
C597 C 0.46938 0.96412 0.24102 0.0
C598 C 0.45901 0.98839 0.20367 0.0
C599 C 0.46411 0.9973 0.24494 0.0
C600 C 0.47095 0.98931 0.28549 0.0
C601 C 0.47369 0.97291 0.28334 0.0
C602 C 0.46191 0.04053 0.28563 0.0
C603 C 0.47002 0.0481 0.24655 0.0
C604 C 0.45928 0.02406 0.28434 0.0
C605 C 0.46436 0.01497 0.24341 0.0
C606 C 0.47153 0.02275 0.20301 0.0
C607 C 0.47446 0.03911 0.20478 0.0
H608 H 0.72181 0.76051 0.50881 0.0
H609 H 0.7132 0.81127 0.51063 0.0
H610 H 0.75023 0.76522 0.50881 0.0
H611 H 0.74222 0.81596 0.51012 0.0
H612 H 0.79664 0.80615 0.43925 0.0
H613 H 0.76749 0.80817 0.44651 0.0
H614 H 0.76882 0.77811 0.57631 0.0
H615 H 0.79761 0.77602 0.56928 0.0
C616 C 0.72595 0.77273 0.50896 0.0
C617 C 0.71515 0.78552 0.50981 0.0
C618 C 0.7423 0.7754 0.50924 0.0
C619 C 0.74841 0.79094 0.50992 0.0
C620 C 0.73776 0.80386 0.50971 0.0
C621 C 0.72121 0.80117 0.51021 0.0
C622 C 0.79072 0.80035 0.47008 0.0
C623 C 0.79938 0.79063 0.50305 0.0
C624 C 0.77407 0.80154 0.47425 0.0
C625 C 0.76594 0.79308 0.51151 0.0
C626 C 0.77479 0.78456 0.54684 0.0
C627 C 0.79127 0.78334 0.54267 0.0
H628 H 0.45224 0.46303 0.73402 0.0
H629 H 0.49998 0.46981 0.78957 0.0
H630 H 0.44991 0.49199 0.72033 0.0
H631 H 0.49755 0.49829 0.77754 0.0
H632 H 0.50016 0.54176 0.68818 0.0
H633 H 0.49738 0.51328 0.69977 0.0
H634 H 0.45024 0.52017 0.7603 0.0
H635 H 0.45291 0.54912 0.74703 0.0
C636 C 0.46206 0.47072 0.74426 0.0
C637 C 0.47641 0.46419 0.76193 0.0
C638 C 0.46073 0.48725 0.73643 0.0
C639 C 0.47372 0.49736 0.74652 0.0
C640 C 0.48752 0.4908 0.76779 0.0
C641 C 0.48889 0.47447 0.77495 0.0
C642 C 0.4891 0.53723 0.70338 0.0
C643 C 0.47687 0.54766 0.71748 0.0
C644 C 0.48753 0.5209 0.71029 0.0
C645 C 0.47378 0.5145 0.7324 0.0
C646 C 0.46102 0.52478 0.74352 0.0
C647 C 0.46253 0.5413 0.73593 0.0
H648 H 0.71945 0.25141 0.97226 0.0
H649 H 0.71221 0.20046 0.97643 0.0
H650 H 0.74797 0.24747 0.97062 0.0
H651 H 0.74134 0.19653 0.97511 0.0
H652 H 0.79539 0.20712 0.04229 0.0
H653 H 0.7663 0.20464 0.03505 0.0
H654 H 0.7671 0.23527 0.90644 0.0
H655 H 0.79583 0.23785 0.91362 0.0
C656 C 0.72393 0.23931 0.97295 0.0
C657 C 0.71349 0.22625 0.9745 0.0
C658 C 0.74034 0.23707 0.97165 0.0
C659 C 0.74687 0.2217 0.97225 0.0
C660 C 0.73656 0.20851 0.97449 0.0
C661 C 0.71995 0.21077 0.97502 0.0
C662 C 0.78937 0.21299 0.0118 0.0
C663 C 0.79786 0.22298 0.97922 0.0
C664 C 0.77275 0.21152 0.00759 0.0
C665 C 0.76446 0.22 0.97069 0.0
C666 C 0.77316 0.22883 0.93574 0.0
C667 C 0.78963 0.23033 0.93998 0.0
H668 H 0.03485 0.46803 0.3139 0.0
H669 H 0.05661 0.46506 0.16891 0.0
H670 H 0.03973 0.49667 0.31551 0.0
H671 H 0.06126 0.49389 0.17017 0.0
H672 H 0.05578 0.54769 0.3143 0.0
H673 H 0.06091 0.51895 0.31305 0.0
H674 H 0.03974 0.51586 0.16727 0.0
H675 H 0.03439 0.54441 0.16886 0.0
C676 C 0.04098 0.47347 0.28282 0.0
C677 C 0.04523 0.46436 0.24112 0.0
C678 C 0.04387 0.48985 0.28388 0.0
C679 C 0.0508 0.49751 0.24285 0.0
C680 C 0.05585 0.48827 0.20222 0.0
C681 C 0.05326 0.47179 0.20161 0.0
C682 C 0.05262 0.54092 0.2815 0.0
C683 C 0.04455 0.54823 0.24186 0.0
C684 C 0.05549 0.52449 0.2809 0.0
C685 C 0.05067 0.51517 0.24015 0.0
C686 C 0.0437 0.52273 0.199 0.0
C687 C 0.04054 0.53906 0.20004 0.0
H688 H 0.29599 0.20736 0.42116 0.0
H689 H 0.293 0.22737 0.56857 0.0
H690 H 0.26706 0.20331 0.421 0.0
H691 H 0.26424 0.223 0.56882 0.0
H692 H 0.21289 0.20636 0.56253 0.0
H693 H 0.2417 0.20156 0.56209 0.0
H694 H 0.24549 0.22582 0.42127 0.0
H695 H 0.21686 0.2309 0.42215 0.0
C696 C 0.28922 0.21043 0.45406 0.0
C697 C 0.29668 0.2178 0.49474 0.0
C698 C 0.27269 0.20818 0.45386 0.0
C699 C 0.26343 0.2129 0.49482 0.0
C700 C 0.27109 0.21915 0.5369 0.0
C701 C 0.28752 0.22173 0.53666 0.0
C702 C 0.21985 0.21036 0.53103 0.0
C703 C 0.21268 0.21914 0.49259 0.0
C704 C 0.23631 0.20766 0.53088 0.0
C705 C 0.2458 0.21333 0.49167 0.0
C706 C 0.23845 0.22119 0.45174 0.0
C707 C 0.22209 0.2242 0.45243 0.0
H708 H 0.53409 0.46753 0.16965 0.0
H709 H 0.55505 0.46352 0.31554 0.0
H710 H 0.53909 0.49618 0.17025 0.0
H711 H 0.55973 0.49235 0.31656 0.0
H712 H 0.55681 0.54684 0.17594 0.0
H713 H 0.56133 0.51802 0.17635 0.0
H714 H 0.53766 0.51453 0.31821 0.0
H715 H 0.53283 0.54322 0.31738 0.0
C716 C 0.54006 0.47275 0.20141 0.0
C717 C 0.54409 0.46335 0.24266 0.0
C718 C 0.543 0.48912 0.20164 0.0
C719 C 0.54974 0.49646 0.24354 0.0
C720 C 0.5545 0.48695 0.28384 0.0
C721 C 0.55189 0.47049 0.28314 0.0
C722 C 0.55294 0.53997 0.20777 0.0
C723 C 0.54434 0.54723 0.24644 0.0
C724 C 0.55547 0.52349 0.20788 0.0
C725 C 0.5498 0.51407 0.24722 0.0
C726 C 0.54226 0.52152 0.2876 0.0
C727 C 0.53942 0.53792 0.28699 0.0
H728 H 0.29518 0.78225 0.91942 0.0
H729 H 0.29855 0.80517 0.0626 0.0
H730 H 0.26657 0.78743 0.91778 0.0
H731 H 0.26977 0.81009 0.06133 0.0
H732 H 0.21574 0.80499 0.91895 0.0
H733 H 0.24463 0.80934 0.91927 0.0
H734 H 0.24755 0.78859 0.06565 0.0
H735 H 0.21885 0.78396 0.06494 0.0
C736 C 0.28984 0.78868 0.95009 0.0
C737 C 0.29905 0.79319 0.99131 0.0
C738 C 0.27348 0.79173 0.949 0.0
C739 C 0.26596 0.7991 0.98954 0.0
C740 C 0.27529 0.80437 0.02966 0.0
C741 C 0.29174 0.8016 0.03027 0.0
C742 C 0.22252 0.80173 0.95163 0.0
C743 C 0.21511 0.79401 0.99176 0.0
C744 C 0.23903 0.80416 0.95171 0.0
C745 C 0.24831 0.79926 -0.00758 0.0
C746 C 0.24069 0.7926 0.03395 0.0
C747 C 0.22428 0.78986 0.03342 0.0
H748 H 0.99865 0.4704 0.70131 0.0
H749 H 0.95031 0.46243 0.74987 0.0
H750 H 0.99516 0.49885 0.71125 0.0
H751 H 0.94686 0.49144 0.76124 0.0
H752 H 0.95032 0.54896 0.72524 0.0
H753 H 0.94785 0.5198 0.71538 0.0
H754 H 0.99275 0.5137 0.7912 0.0
H755 H 0.99537 0.54235 0.79945 0.0
C756 C 0.98721 0.47479 0.71401 0.0
C757 C 0.97486 0.4642 0.7258 0.0
C758 C 0.98522 0.4911 0.71983 0.0
C759 C 0.9709 0.49734 0.73841 0.0
C760 C 0.95807 0.48691 0.74723 0.0
C761 C 0.96004 0.47038 0.74077 0.0
C762 C 0.95943 0.54126 0.74052 0.0
C763 C 0.97318 0.54781 0.76229 0.0
C764 C 0.95802 0.52464 0.73494 0.0
C765 C 0.97032 0.51453 0.7514 0.0
C766 C 0.9833 0.52119 0.7769 0.0
C767 C 0.98478 0.53759 0.78182 0.0
H768 H 0.1511 0.25753 0.92174 0.0
H769 H 0.16722 0.30251 0.86251 0.0
H770 H 0.15114 0.24611 0.83886 0.0
H771 H 0.16783 0.29091 0.77923 0.0
H772 H 0.15221 0.27058 0.63181 0.0
H773 H 0.15075 0.28156 0.71501 0.0
H774 H 0.16859 0.23724 0.77482 0.0
H775 H 0.16954 0.22602 0.69104 0.0
C776 C 0.15474 0.26497 0.8909 0.0
C777 C 0.15914 0.28093 0.89854 0.0
C778 C 0.15487 0.25837 0.84338 0.0
C779 C 0.15955 0.26752 0.80228 0.0
C780 C 0.16393 0.28355 0.80995 0.0
C781 C 0.16366 0.29021 0.85762 0.0
C782 C 0.15576 0.26312 0.66272 0.0
C783 C 0.16109 0.24744 0.65481 0.0
C784 C 0.15504 0.26948 0.71046 0.0
C785 C 0.15976 0.2604 0.75166 0.0
C786 C 0.16473 0.24455 0.74396 0.0
C787 C 0.1653 0.2381 0.69599 0.0
H788 H 0.03427 0.9177 0.94452 0.0
H789 H 0.99169 0.89531 0.88774 0.0
H790 H 0.02323 0.91659 0.02844 0.0
H791 H 0.98087 0.89379 0.9713 0.0
H792 H 0.95819 0.91292 0.11441 0.0
H793 H 0.96996 0.91186 0.03138 0.0
H794 H 0.01551 0.89959 0.0957 0.0
H795 H 1.00388 0.90112 0.17819 0.0
C796 C 0.02273 0.91223 0.95011 0.0
C797 C 0.01379 0.90675 0.9095 0.0
C798 C 0.01637 0.91159 -0.00184 0.0
C799 C 1.00103 0.90532 0.00652 0.0
C800 C 0.99251 0.89909 0.96609 0.0
C801 C 0.99879 0.89984 0.91821 0.0
C802 C 0.97068 0.90995 0.11063 0.0
C803 C 0.98011 0.90718 0.15272 0.0
C804 C 0.97744 0.90925 0.06312 0.0
C805 C 0.99372 0.90566 0.05685 0.0
C806 C 1.00302 0.90265 0.09912 0.0
C807 C 0.99631 0.90344 0.14643 0.0
H808 H 0.3513 0.70729 0.36585 0.0
H809 H 0.35152 0.75459 0.42895 0.0
H810 H 0.35011 0.71885 0.28258 0.0
H811 H 0.3497 0.76608 0.34657 0.0
H812 H 0.36096 0.7821 0.18795 0.0
H813 H 0.36368 0.77075 0.27122 0.0
H814 H 0.33178 0.73251 0.23047 0.0
H815 H 0.32954 0.74349 0.14749 0.0
C816 C 0.35105 0.72012 0.36194 0.0
C817 C 0.35143 0.73 0.40392 0.0
C818 C 0.35026 0.72678 0.31431 0.0
C819 C 0.34972 0.74344 0.3078 0.0
C820 C 0.35031 0.75324 0.34997 0.0
C821 C 0.35121 0.74661 0.39735 0.0
C822 C 0.35446 0.77134 0.19707 0.0
C823 C 0.34515 0.76363 0.16108 0.0
C824 C 0.356 0.76482 0.24473 0.0
C825 C 0.3481 0.75057 0.25743 0.0
C826 C 0.3384 0.74322 0.22172 0.0
C827 C 0.337 0.74961 0.17418 0.0
H828 H 0.5089 0.11067 0.67474 0.0
H829 H 0.55379 0.09377 0.61694 0.0
H830 H 0.49771 0.11069 0.59162 0.0
H831 H 0.5424 0.09319 0.53335 0.0
H832 H 0.52238 0.10819 0.38466 0.0
H833 H 0.53338 0.1098 0.46785 0.0
H834 H 0.48861 0.09335 0.52832 0.0
H835 H 0.47739 0.09229 0.44465 0.0
C836 C 0.51637 0.10687 0.64415 0.0
C837 C 0.53223 0.10221 0.6523 0.0
C838 C 0.50989 0.10677 0.59646 0.0
C839 C 0.51907 0.10185 0.55565 0.0
C840 C 0.53502 0.09726 0.5638 0.0
C841 C 0.54157 0.09752 0.61166 0.0
C842 C 0.51483 0.10499 0.41572 0.0
C843 C 0.49902 0.10003 0.40803 0.0
C844 C 0.52121 0.10579 0.46348 0.0
C845 C 0.512 0.10152 0.50491 0.0
C846 C 0.49603 0.09689 0.49734 0.0
C847 C 0.48958 0.09625 0.4494 0.0
H848 H 0.15138 0.78334 0.80057 0.0
H849 H 0.18189 0.74386 0.83972 0.0
H850 H 0.14786 0.772 0.71761 0.0
H851 H 0.17888 0.73289 0.75698 0.0
H852 H 0.15873 0.70845 0.6213 0.0
H853 H 0.16021 0.71978 0.70486 0.0
H854 H 0.16149 0.76714 0.64203 0.0
H855 H 0.15935 0.75591 0.55945 0.0
C856 C 0.15749 0.77238 0.79124 0.0
C857 C 0.16681 0.76445 0.82675 0.0
C858 C 0.1555 0.76586 0.74375 0.0
C859 C 0.16296 0.7514 0.7307 0.0
C860 C 0.1726 0.74377 0.76601 0.0
C861 C 0.17444 0.75017 0.81341 0.0
C862 C 0.15922 0.72127 0.62555 0.0
C863 C 0.159 0.73126 0.58384 0.0
C864 C 0.16017 0.72779 0.67334 0.0
C865 C 0.16105 0.74441 0.68025 0.0
C866 C 0.16061 0.75433 0.63834 0.0
C867 C 0.15953 0.74785 0.59082 0.0
H868 H 0.47981 0.90114 0.04462 0.0
H869 H 0.51845 0.933 0.08109 0.0
H870 H 0.49104 0.89746 0.96154 0.0
H871 H 0.52932 0.92982 -0.00177 0.0
H872 H 0.55456 0.90899 0.86549 0.0
H873 H 0.54296 0.91086 0.94852 0.0
H874 H 0.49575 0.91036 0.88441 0.0
H875 H 0.5073 0.90783 0.80221 0.0
C876 C 0.49054 0.90754 0.03462 0.0
C877 C 0.49831 0.91725 0.06947 0.0
C878 C 0.497 0.90545 0.98707 0.0
C879 C 0.51125 0.91317 0.97335 0.0
C880 C 0.51863 0.92331 0.00785 0.0
C881 C 0.51229 0.92526 0.05529 0.0
C882 C 0.54172 0.90914 0.86932 0.0
C883 C 0.53187 0.90836 0.82733 0.0
C884 C 0.53504 0.91034 0.91681 0.0
C885 C 0.51838 0.91091 0.92321 0.0
C886 C 0.50859 0.90979 0.8811 0.0
C887 C 0.51525 0.90847 0.83382 0.0
H888 H 0.34899 0.30383 0.12406 0.0
H889 H 0.35343 0.25674 0.061 0.0
H890 H 0.34703 0.29211 0.20692 0.0
H891 H 0.35075 0.24504 0.14282 0.0
H892 H 0.36053 0.22955 0.30274 0.0
H893 H 0.3636 0.24104 0.21984 0.0
H894 H 0.32908 0.2774 0.25669 0.0
H895 H 0.32656 0.26633 0.33953 0.0
C896 C 0.34947 0.291 0.12789 0.0
C897 C 0.3513 0.28123 0.08605 0.0
C898 C 0.34824 0.28425 0.17527 0.0
C899 C 0.34865 0.26758 0.18163 0.0
C900 C 0.35061 0.25789 0.1396 0.0
C901 C 0.352 0.26463 0.09249 0.0
C902 C 0.35353 0.23991 0.2928 0.0
C903 C 0.34342 0.24711 0.32769 0.0
C904 C 0.35527 0.24652 0.24534 0.0
C905 C 0.34673 0.26031 0.23169 0.0
C906 C 0.33619 0.26708 0.26623 0.0
C907 C 0.33463 0.26063 0.31365 0.0
H908 H 0.99339 0.07685 0.58279 0.0
H909 H 0.03171 0.1088 0.54404 0.0
H910 H 0.98261 0.07912 0.49943 0.0
H911 H 0.02055 0.11163 0.46059 0.0
H912 H 1.00392 0.10199 0.30228 0.0
H913 H 0.01571 0.09879 0.38389 0.0
H914 H 0.96869 0.09757 0.44925 0.0
H915 H 0.95685 0.10007 0.36674 0.0
C916 C 0.99952 0.08438 0.55629 0.0
C917 C 0.01335 0.09272 0.57 0.0
C918 C 0.99324 0.08581 0.50858 0.0
C919 C 1.0005 0.09578 0.47338 0.0
C920 C 0.01467 0.10375 0.48659 0.0
C921 C 0.0211 0.10214 0.53437 0.0
C922 C 0.99606 0.101 0.33402 0.0
C923 C 0.97942 0.10118 0.32802 0.0
C924 C 1.00286 0.09929 0.38099 0.0
C925 C 0.99321 0.09788 0.42334 0.0
C926 C 0.97652 0.09833 0.41739 0.0
C927 C 0.9697 0.09989 0.37018 0.0
H928 H 0.84344 0.70941 0.11887 0.0
H929 H 0.85881 0.75482 0.0608 0.0
H930 H 0.8422 0.72093 0.20224 0.0
H931 H 0.85807 0.76616 0.14371 0.0
H932 H 0.83952 0.78553 0.2922 0.0
H933 H 0.84015 0.77444 0.20812 0.0
H934 H 0.85955 0.73052 0.26599 0.0
H935 H 0.85849 0.74134 0.34932 0.0
C936 C 0.84666 0.72179 0.12401 0.0
C937 C 0.85121 0.7312 0.08342 0.0
C938 C 0.84602 0.7284 0.1717 0.0
C939 C 0.85002 0.74451 0.17966 0.0
C940 C 0.85463 0.75383 0.13889 0.0
C941 C 0.85517 0.74727 0.09137 0.0
C942 C 0.844 0.77356 0.28675 0.0
C943 C 0.84881 0.76428 0.32744 0.0
C944 C 0.84438 0.76719 0.23866 0.0
C945 C 0.84973 0.75149 0.23039 0.0
C946 C 0.85496 0.74246 0.27106 0.0
C947 C 0.85446 0.74875 0.31888 0.0
H948 H 0.01807 0.1135 0.09305 0.0
H949 H 0.97516 0.09219 0.03472 0.0
H950 H 0.02874 0.11587 0.00962 0.0
H951 H 0.98611 0.09405 0.95067 0.0
H952 H 1.00566 0.11093 0.80193 0.0
H953 H 0.99391 0.11142 0.88457 0.0
H954 H 0.03951 0.09877 0.94785 0.0
H955 H 0.05135 0.09882 0.86508 0.0
C956 C 0.0109 0.10931 0.06224 0.0
C957 C 0.99583 0.1025 0.07046 0.0
C958 C 0.01708 0.11057 0.01438 0.0
C959 C 0.00845 0.10489 0.9734 0.0
C960 C 0.99307 0.09863 0.98136 0.0
C961 C 0.98678 0.09754 0.02947 0.0
C962 C 0.01319 0.10834 0.83357 0.0
C963 C 0.02944 0.10485 0.82711 0.0
C964 C 0.00642 0.10852 0.88093 0.0
C965 C 0.01571 0.1051 0.92296 0.0
C966 C 0.03203 0.10172 0.91641 0.0
C967 C 0.03883 0.10167 0.86899 0.0
H968 H 0.65073 0.25699 0.5621 0.0
H969 H 0.66145 0.3029 0.62623 0.0
H970 H 0.64895 0.2454 0.64454 0.0
H971 H 0.66016 0.29116 0.70925 0.0
H972 H 0.64356 0.2692 0.85232 0.0
H973 H 0.64205 0.27994 0.76864 0.0
H974 H 0.66582 0.238 0.71232 0.0
H975 H 0.66692 0.22703 0.79628 0.0
C976 C 0.65277 0.26461 0.59394 0.0
C977 C 0.65628 0.28085 0.58777 0.0
C978 C 0.65183 0.25792 0.64122 0.0
C979 C 0.65448 0.26729 0.68356 0.0
C980 C 0.65784 0.28363 0.67742 0.0
C981 C 0.65867 0.29036 0.62993 0.0
C982 C 0.6483 0.26217 0.82197 0.0
C983 C 0.65548 0.24732 0.83091 0.0
C984 C 0.64755 0.26841 0.77405 0.0
C985 C 0.65407 0.25999 0.73385 0.0
C986 C 0.6606 0.24478 0.74242 0.0
C987 C 0.66122 0.23846 0.7905 0.0
H988 H 0.50652 0.90986 0.30204 0.0
H989 H 0.45925 0.90917 0.36533 0.0
H990 H 0.518 0.91202 0.38446 0.0
H991 H 0.47079 0.91069 0.44849 0.0
H992 H 0.49474 0.9321 0.58313 0.0
H993 H 0.48398 0.92951 0.49996 0.0
H994 H 0.52296 0.89836 0.46033 0.0
H995 H 0.53408 0.90143 0.54381 0.0
C996 C 0.49856 0.91002 0.33368 0.0
C997 C 0.48195 0.90947 0.32718 0.0
C998 C 0.50518 0.91113 0.38106 0.0
C999 C 0.49536 0.9116 0.42323 0.0
C1000 C 0.47872 0.91067 0.41676 0.0
C1001 C 0.47208 0.90968 0.36919 0.0
C1002 C 0.50107 0.92473 0.55664 0.0
C1003 C 0.51522 0.91689 0.57011 0.0
C1004 C 0.49481 0.92314 0.509 0.0
C1005 C 0.50242 0.91352 0.47357 0.0
C1006 C 0.51682 0.90595 0.48661 0.0
C1007 C 0.52321 0.9077 0.53438 0.0
H1008 H 0.83846 0.22822 0.18993 0.0
H1009 H 0.85561 0.27308 0.1324 0.0
H1010 H 0.83916 0.23921 0.27406 0.0
H1011 H 0.8568 0.28381 0.21581 0.0
H1012 H 0.84208 0.30422 0.36506 0.0
H1013 H 0.8403 0.29293 0.28151 0.0
H1014 H 0.85691 0.24765 0.33769 0.0
H1015 H 0.85811 0.25875 0.42085 0.0
C1016 C 0.84254 0.24033 0.19527 0.0
C1017 C 0.84686 0.24979 0.15442 0.0
C1018 C 0.84297 0.24665 0.24345 0.0
C1019 C 0.84791 0.26248 0.25176 0.0
C1020 C 0.85255 0.27174 0.21086 0.0
C1021 C 0.85198 0.26551 0.16292 0.0
C1022 C 0.84534 0.29187 0.35937 0.0
C1023 C 0.85024 0.28238 0.39941 0.0
C1024 C 0.84439 0.28539 0.31153 0.0
C1025 C 0.84846 0.26933 0.30276 0.0
C1026 C 0.8534 0.25994 0.34304 0.0
C1027 C 0.85422 0.26636 0.39073 0.0
H1028 H 0.45784 0.09394 0.11724 0.0
H1029 H 0.50278 0.11104 0.17402 0.0
H1030 H 0.46921 0.09287 0.03367 0.0
H1031 H 0.51395 0.11058 0.09086 0.0
H1032 H 0.5342 0.09153 0.9447 0.0
H1033 H 0.52299 0.09289 0.02836 0.0
H1034 H 0.47821 0.10913 0.96737 0.0
H1035 H 0.4892 0.10722 0.88425 0.0
C1036 C 0.47007 0.09763 0.11173 0.0
C1037 C 0.47943 0.10252 0.15208 0.0
C1038 C 0.4766 0.09709 0.06388 0.0
C1039 C 0.49256 0.10159 0.05544 0.0
C1040 C 0.50176 0.10671 0.09595 0.0
C1041 C 0.4953 0.10709 0.14365 0.0
C1042 C 0.52201 0.09549 0.94933 0.0
C1043 C 0.51257 0.09914 0.90785 0.0
C1044 C 0.51556 0.09631 -0.00274 0.0
C1045 C 0.49961 0.10099 0.00469 0.0
C1046 C 0.49038 0.1051 0.96313 0.0
C1047 C 0.49675 0.10411 0.9154 0.0
H1048 H 0.65084 0.75423 0.9288 0.0
H1049 H 0.66064 0.70823 0.86388 0.0
H1050 H 0.64997 0.76612 0.84643 0.0
H1051 H 0.66021 0.7202 0.78126 0.0
H1052 H 0.645 0.74255 0.63802 0.0
H1053 H 0.6426 0.73199 0.72164 0.0
H1054 H 0.66752 0.77309 0.77903 0.0
H1055 H 0.66953 0.78392 0.6949 0.0
C1056 C 0.65282 0.74665 0.89684 0.0
C1057 C 0.65581 0.73029 0.90273 0.0
C1058 C 0.65242 0.7535 0.84964 0.0
C1059 C 0.65506 0.74416 0.8072 0.0
C1060 C 0.65789 0.72772 0.81313 0.0
C1061 C 0.65821 0.72085 0.86043 0.0
C1062 C 0.64983 0.74944 0.66855 0.0
C1063 C 0.65761 0.764 0.65986 0.0
C1064 C 0.64855 0.74331 0.71646 0.0
C1065 C 0.65514 0.75151 0.75696 0.0
C1066 C 0.66226 0.76648 0.74865 0.0
C1067 C 0.66342 0.77271 0.70051 0.0
H1068 H 0.0218 0.90694 0.38482 0.0
H1069 H 0.97661 0.92294 0.44313 0.0
H1070 H 0.03261 0.90573 0.46814 0.0
H1071 H 0.98766 0.92223 0.5272 0.0
H1072 H 0.00801 0.90328 0.67328 0.0
H1073 H 0.99666 0.90449 0.59042 0.0
H1074 H 0.04135 0.92251 0.53376 0.0
H1075 H 0.05289 0.92074 0.61693 0.0
C1076 C 0.01417 0.91031 0.41553 0.0
C1077 C 0.99835 0.91513 0.4073 0.0
C1078 C 0.02044 0.90972 0.46339 0.0
C1079 C 0.01111 0.91408 0.50445 0.0
C1080 C 0.99516 0.91866 0.49642 0.0
C1081 C 0.98881 0.9191 0.4483 0.0
C1082 C 0.01543 0.9075 0.64312 0.0
C1083 C 0.03137 0.91186 0.65151 0.0
C1084 C 0.00887 0.90831 0.59562 0.0
C1085 C 0.01804 0.91362 0.5553 0.0
C1086 C 0.03399 0.91812 0.56382 0.0
C1087 C 0.04061 0.91718 0.61144 0.0
H1088 H 0.66128 0.75534 0.42743 0.0
H1089 H 0.66387 0.80236 0.36292 0.0
H1090 H 0.66417 0.74349 0.34576 0.0
H1091 H 0.66604 0.79048 0.2804 0.0
H1092 H 0.6856 0.7655 0.14595 0.0
H1093 H 0.68404 0.7762 0.22958 0.0
H1094 H 0.65085 0.73898 0.2696 0.0
H1095 H 0.65297 0.72789 0.18585 0.0
C1096 C 0.66237 0.76317 0.39568 0.0
C1097 C 0.66243 0.77981 0.40163 0.0
C1098 C 0.66389 0.75634 0.34869 0.0
C1099 C 0.66536 0.76598 0.30633 0.0
C1100 C 0.66524 0.78266 0.31227 0.0
C1101 C 0.66387 0.78951 0.35949 0.0
C1102 C 0.67807 0.75952 0.17276 0.0
C1103 C 0.66932 0.74592 0.15933 0.0
C1104 C 0.67706 0.76575 0.22063 0.0
C1105 C 0.6671 0.75867 0.25622 0.0
C1106 C 0.65873 0.74471 0.24326 0.0
C1107 C 0.65992 0.73832 0.19532 0.0
H1108 H 0.50496 0.40983 0.6764 0.0
H1109 H 0.45778 0.413 0.61326 0.0
H1110 H 0.51659 0.41194 0.59427 0.0
H1111 H 0.46943 0.41441 0.53021 0.0
H1112 H 0.49494 0.43384 0.39557 0.0
H1113 H 0.48395 0.43203 0.47866 0.0
H1114 H 0.52062 0.39821 0.51849 0.0
H1115 H 0.53203 0.40055 0.43522 0.0
C1116 C 0.49704 0.41088 0.64485 0.0
C1117 C 0.48044 0.41135 0.65131 0.0
C1118 C 0.50374 0.41194 0.59759 0.0
C1119 C 0.494 0.41334 0.55546 0.0
C1120 C 0.47733 0.41361 0.5619 0.0
C1121 C 0.47062 0.41271 0.60941 0.0
C1122 C 0.50072 0.42605 0.42211 0.0
C1123 C 0.51431 0.41725 0.4088 0.0
C1124 C 0.49431 0.42491 0.4697 0.0
C1125 C 0.50121 0.4148 0.50518 0.0
C1126 C 0.51505 0.40623 0.49223 0.0
C1127 C 0.52161 0.40753 0.44455 0.0
H1128 H 0.86034 0.24013 0.63197 0.0
H1129 H 0.84385 0.28478 0.69284 0.0
H1130 H 0.86272 0.2292 0.71512 0.0
H1131 H 0.84571 0.27364 0.77647 0.0
H1132 H 0.86286 0.25333 0.92277 0.0
H1133 H 0.86334 0.26458 0.8396 0.0
H1134 H 0.846 0.21999 0.7803 0.0
H1135 H 0.84609 0.20856 0.86377 0.0
C1136 C 0.85721 0.24763 0.66323 0.0
C1137 C 0.85179 0.2633 0.65581 0.0
C1138 C 0.85847 0.2413 0.71094 0.0
C1139 C 0.8542 0.25042 0.75257 0.0
C1140 C 0.84924 0.26629 0.74529 0.0
C1141 C 0.84814 0.2727 0.69738 0.0
C1142 C 0.85924 0.2459 0.89189 0.0
C1143 C 0.85442 0.23007 0.8997 0.0
C1144 C 0.85941 0.25239 0.84422 0.0
C1145 C 0.85461 0.24327 0.80316 0.0
C1146 C 0.84998 0.22732 0.81096 0.0
C1147 C 0.84996 0.22076 0.85876 0.0
H1148 H 0.00607 0.60192 0.17887 0.0
H1149 H 0.05335 0.60606 0.11693 0.0
H1150 H 0.99477 0.60142 0.09599 0.0
H1151 H 0.04195 0.60622 0.03343 0.0
H1152 H 0.01906 0.58562 0.89573 0.0
H1153 H 0.02977 0.58782 0.97875 0.0
H1154 H 0.98918 0.61626 0.02245 0.0
H1155 H 0.97809 0.61354 0.93859 0.0
C1156 C 0.01407 0.60286 0.14745 0.0
C1157 C 0.03064 0.60385 0.15438 0.0
C1158 C 0.00754 0.60274 0.09985 0.0
C1159 C 0.01741 0.60372 0.05792 0.0
C1160 C 0.034 0.60514 0.06492 0.0
C1161 C 0.04056 0.60513 0.11269 0.0
C1162 C 0.01238 0.5924 0.92292 0.0
C1163 C 0.99777 0.59954 0.91047 0.0
C1164 C 0.01862 0.59376 0.97057 0.0
C1165 C 0.01052 0.60245 0.00719 0.0
C1166 C 0.99572 0.60941 -0.00487 0.0
C1167 C 0.98934 0.60788 0.9472 0.0
H1168 H 0.68434 0.24398 0.34544 0.0
H1169 H 0.65177 0.28163 0.3051 0.0
H1170 H 0.68264 0.23312 0.26208 0.0
H1171 H 0.64952 0.27037 0.22172 0.0
H1172 H 0.66053 0.25473 0.06418 0.0
H1173 H 0.66319 0.26621 0.1463 0.0
H1174 H 0.665 0.21895 0.20977 0.0
H1175 H 0.66308 0.20743 0.12662 0.0
C1176 C 0.67675 0.24991 0.31868 0.0
C1177 C 0.66811 0.26362 0.33187 0.0
C1178 C 0.67567 0.24359 0.27094 0.0
C1179 C 0.66577 0.2507 0.23523 0.0
C1180 C 0.65738 0.26465 0.24811 0.0
C1181 C 0.65864 0.27112 0.29588 0.0
C1182 C 0.66157 0.24675 0.09558 0.0
C1183 C 0.66167 0.23015 0.08892 0.0
C1184 C 0.66295 0.25337 0.14285 0.0
C1185 C 0.66427 0.24356 0.18485 0.0
C1186 C 0.66426 0.2269 0.1782 0.0
C1187 C 0.66306 0.22026 0.13064 0.0
H1188 H 0.0196 0.42844 0.58668 0.0
H1189 H 0.97988 0.3986 0.54507 0.0
H1190 H 0.03037 0.42638 0.5036 0.0
H1191 H 0.99106 0.39604 0.46125 0.0
H1192 H 0.00771 0.40974 0.30412 0.0
H1193 H 0.99621 0.41056 0.38672 0.0
H1194 H 0.04339 0.408 0.45052 0.0
H1195 H 0.05497 0.40783 0.36725 0.0
C1196 C 0.01321 0.42131 0.5597 0.0
C1197 C 0.99895 0.41355 0.57251 0.0
C1198 C 0.01949 0.42002 0.51207 0.0
C1199 C 0.01179 0.4108 0.47588 0.0
C1200 C 0.99728 0.40329 0.48823 0.0
C1201 C 0.99086 0.40474 0.53612 0.0
C1202 C 0.01566 0.40936 0.33575 0.0
C1203 C 0.03228 0.4089 0.32921 0.0
C1204 C 0.00903 0.40968 0.3832 0.0
C1205 C 0.01883 0.40942 0.42538 0.0
C1206 C 0.03548 0.40852 0.41881 0.0
C1207 C 0.04214 0.40833 0.37118 0.0
H1208 H 0.86427 0.73105 0.80016 0.0
H1209 H 0.83307 0.77012 0.83773 0.0
H1210 H 0.86781 0.74227 0.71689 0.0
H1211 H 0.836 0.78091 0.75487 0.0
H1212 H 0.85491 0.80562 0.61976 0.0
H1213 H 0.85428 0.7943 0.7033 0.0
H1214 H 0.8546 0.74688 0.64068 0.0
H1215 H 0.85602 0.75816 0.55797 0.0
C1216 C 0.85802 0.74189 0.79038 0.0
C1217 C 0.84853 0.74978 0.82549 0.0
C1218 C 0.86002 0.74834 0.74276 0.0
C1219 C 0.85236 0.76266 0.72929 0.0
C1220 C 0.84249 0.77018 0.76422 0.0
C1221 C 0.84069 0.76389 0.81169 0.0
C1222 C 0.85499 0.7928 0.62403 0.0
C1223 C 0.85537 0.78281 0.58234 0.0
C1224 C 0.85452 0.78628 0.67183 0.0
C1225 C 0.85422 0.76963 0.67881 0.0
C1226 C 0.85499 0.75971 0.63694 0.0
C1227 C 0.85565 0.76622 0.58935 0.0
H1228 H 0.53393 0.60826 0.04731 0.0
H1229 H 0.49673 0.57503 0.0863 0.0
H1230 H 0.52273 0.61058 0.9638 0.0
H1231 H 0.48591 0.57684 0.00289 0.0
H1232 H 0.45951 0.59736 0.87027 0.0
H1233 H 0.47142 0.5949 0.95268 0.0
H1234 H 0.51839 0.59732 0.88726 0.0
H1235 H 0.5065 0.60044 0.80571 0.0
C1236 C 0.52355 0.60124 0.03772 0.0
C1237 C 0.51612 0.5916 0.07342 0.0
C1238 C 0.51711 0.60254 0.9899 0.0
C1239 C 0.50325 0.59406 0.97673 0.0
C1240 C 0.4963 0.5839 0.01202 0.0
C1241 C 0.50259 0.58276 0.05978 0.0
C1242 C 0.47236 0.59739 0.87367 0.0
C1243 C 0.48205 0.59908 0.83156 0.0
C1244 C 0.47922 0.59588 0.92081 0.0
C1245 C 0.49591 0.59586 0.9267 0.0
C1246 C 0.50553 0.59752 0.88436 0.0
C1247 C 0.49868 0.59918 0.83745 0.0
H1248 H 0.34808 0.20815 0.62322 0.0
H1249 H 0.35778 0.25426 0.55894 0.0
H1250 H 0.3489 0.22 0.70617 0.0
H1251 H 0.35909 0.26597 0.64129 0.0
H1252 H 0.34188 0.28421 0.79386 0.0
H1253 H 0.34242 0.27313 0.70988 0.0
H1254 H 0.36701 0.23149 0.76488 0.0
H1255 H 0.36605 0.24232 0.84847 0.0
C1256 C 0.35051 0.22076 0.62686 0.0
C1257 C 0.35281 0.23026 0.58466 0.0
C1258 C 0.35107 0.22756 0.67431 0.0
C1259 C 0.35406 0.24398 0.68042 0.0
C1260 C 0.3565 0.25338 0.63803 0.0
C1261 C 0.35584 0.24661 0.59078 0.0
C1262 C 0.3476 0.27281 0.78775 0.0
C1263 C 0.35378 0.26408 0.82779 0.0
C1264 C 0.34791 0.26643 0.73968 0.0
C1265 C 0.35454 0.25127 0.73075 0.0
C1266 C 0.36142 0.24297 0.77057 0.0
C1267 C 0.36099 0.24926 0.81845 0.0
H1268 H 0.51877 0.61893 0.59313 0.0
H1269 H 0.47769 0.59341 0.5386 0.0
H1270 H 0.52941 0.62049 0.50932 0.0
H1271 H 0.48858 0.59455 0.45444 0.0
H1272 H 0.50748 0.60914 0.30299 0.0
H1273 H 0.4955 0.61106 0.385 0.0
H1274 H 0.54147 0.60232 0.45192 0.0
H1275 H 0.55355 0.60086 0.36948 0.0
C1276 C 0.51195 0.61374 0.56305 0.0
C1277 C 0.49746 0.60591 0.57247 0.0
C1278 C 0.51812 0.61452 0.51505 0.0
C1279 C 0.51004 0.60737 0.47525 0.0
C1280 C 0.4951 0.60025 0.48422 0.0
C1281 C 0.48883 0.5996 0.5324 0.0
C1282 C 0.51505 0.60768 0.33523 0.0
C1283 C 0.53146 0.60482 0.32985 0.0
C1284 C 0.50815 0.6087 0.38226 0.0
C1285 C 0.51747 0.60681 0.42512 0.0
C1286 C 0.53395 0.60407 0.4197 0.0
C1287 C 0.54089 0.60314 0.37252 0.0
H1288 H 0.15043 0.73067 0.29999 0.0
H1289 H 0.18173 0.76938 0.34054 0.0
H1290 H 0.14764 0.74205 0.2168 0.0
H1291 H 0.17942 0.78038 0.25766 0.0
H1292 H 0.16047 0.80532 0.12117 0.0
H1293 H 0.1613 0.79394 0.20475 0.0
H1294 H 0.16181 0.74657 0.14183 0.0
H1295 H 0.16033 0.75787 0.05917 0.0
C1296 C 0.15686 0.74147 0.29095 0.0
C1297 C 0.16619 0.74917 0.32691 0.0
C1298 C 0.15528 0.74801 0.24332 0.0
C1299 C 0.16317 0.76227 0.23063 0.0
C1300 C 0.17282 0.76966 0.26639 0.0
C1301 C 0.17425 0.76325 0.31389 0.0
C1302 C 0.16066 0.79249 0.12539 0.0
C1303 C 0.16041 0.78251 0.08363 0.0
C1304 C 0.16124 0.78595 0.1732 0.0
C1305 C 0.16169 0.7693 0.18009 0.0
C1306 C 0.16124 0.7594 0.13813 0.0
C1307 C 0.16054 0.76592 0.09058 0.0
H1308 H 1.00567 0.40814 0.80613 0.0
H1309 H 0.95848 0.41185 0.86898 0.0
H1310 H 0.01729 0.41058 0.88806 0.0
H1311 H 0.97014 0.41359 0.95205 0.0
H1312 H 0.99595 0.43439 0.08469 0.0
H1313 H 0.98473 0.43167 0.0021 0.0
H1314 H 0.02139 0.39755 0.96473 0.0
H1315 H 0.03302 0.40078 0.04739 0.0
C1316 C 0.99774 0.40936 0.8376 0.0
C1317 C 0.98113 0.40995 0.83105 0.0
C1318 C 1.00444 0.4106 0.88478 0.0
C1319 C 0.9947 0.41231 0.92681 0.0
C1320 C 0.97803 0.41257 0.92038 0.0
C1321 C 0.97131 0.41147 0.8729 0.0
C1322 C 1.00168 0.42635 0.05875 0.0
C1323 C 0.01534 0.41774 0.07255 0.0
C1324 C 0.99514 0.42468 0.01149 0.0
C1325 C 1.00197 0.41421 0.97687 0.0
C1326 C 0.01587 0.40582 0.99031 0.0
C1327 C 0.02256 0.40766 0.03762 0.0
H1328 H 0.35399 0.80327 0.86619 0.0
H1329 H 0.35391 0.75594 0.92894 0.0
H1330 H 0.35229 0.7918 0.78293 0.0
H1331 H 0.35156 0.74453 0.8465 0.0
H1332 H 0.36095 0.72841 0.68682 0.0
H1333 H 0.36473 0.73965 0.76986 0.0
H1334 H 0.33327 0.77859 0.73233 0.0
H1335 H 0.32998 0.76772 0.64957 0.0
C1336 C 0.35359 0.79045 0.8622 0.0
C1337 C 0.35398 0.78053 0.90409 0.0
C1338 C 0.3525 0.78384 0.81457 0.0
C1339 C 0.35166 0.76721 0.80794 0.0
C1340 C 0.35237 0.75735 0.84999 0.0
C1341 C 0.35358 0.76393 0.8974 0.0
C1342 C 0.35479 0.73931 0.69659 0.0
C1343 C 0.34528 0.74723 0.66155 0.0
C1344 C 0.35694 0.74577 0.74412 0.0
C1345 C 0.34947 0.76017 0.75765 0.0
C1346 C 0.33958 0.76776 0.72289 0.0
C1347 C 0.33758 0.76142 0.67548 0.0
H1348 H 1.00402 0.60329 0.67706 0.0
H1349 H 0.95676 0.5997 0.61468 0.0
H1350 H 0.01555 0.6008 0.59507 0.0
H1351 H 0.96835 0.59792 0.53149 0.0
H1352 H 0.99416 0.57742 0.39814 0.0
H1353 H 0.98294 0.57994 0.48084 0.0
H1354 H 0.01954 0.61406 0.51879 0.0
H1355 H 0.03115 0.61102 0.4361 0.0
C1356 C 0.99605 0.60208 0.64569 0.0
C1357 C 0.97945 0.60156 0.65239 0.0
C1358 C 1.0027 0.60081 0.59847 0.0
C1359 C 0.99293 0.59916 0.55652 0.0
C1360 C 0.97626 0.59891 0.56309 0.0
C1361 C 0.96959 0.60004 0.61064 0.0
C1362 C 0.99987 0.58541 0.42424 0.0
C1363 C 0.01352 0.59408 0.4106 0.0
C1364 C 0.99333 0.58697 0.47156 0.0
C1365 C 1.00016 0.59737 0.50638 0.0
C1366 C 0.01403 0.60582 0.49307 0.0
C1367 C 0.02071 0.6041 0.44573 0.0
H1368 H 0.17048 0.28337 0.19128 0.0
H1369 H 0.15066 0.23979 0.13254 0.0
H1370 H 0.16901 0.27226 0.27518 0.0
H1371 H 0.14874 0.22895 0.21578 0.0
H1372 H 0.16463 0.20709 0.36257 0.0
H1373 H 0.16559 0.21872 0.2794 0.0
H1374 H 0.15123 0.26422 0.33978 0.0
H1375 H 0.1508 0.25273 0.42258 0.0
C1376 C 0.16559 0.27155 0.19636 0.0
C1377 C 0.16084 0.26241 0.15526 0.0
C1378 C 0.16472 0.26516 0.24439 0.0
C1379 C 0.15894 0.24959 0.25222 0.0
C1380 C 0.15365 0.24077 0.21113 0.0
C1381 C 0.15465 0.24707 0.16335 0.0
C1382 C 0.16165 0.21954 0.35789 0.0
C1383 C 0.15767 0.22898 0.39901 0.0
C1384 C 0.16213 0.22623 0.31027 0.0
C1385 C 0.1585 0.24246 0.30283 0.0
C1386 C 0.15437 0.25179 0.34412 0.0
C1387 C 0.15401 0.24515 0.39159 0.0
H1388 H 0.55344 0.41181 0.11367 0.0
H1389 H 0.50734 0.40204 0.17805 0.0
H1390 H 0.54153 0.41111 0.03075 0.0
H1391 H 0.49559 0.40089 0.09576 0.0
H1392 H 0.47737 0.419 0.94405 0.0
H1393 H 0.48851 0.41799 0.02791 0.0
H1394 H 0.52982 0.39313 0.97164 0.0
H1395 H 0.51893 0.39451 0.88818 0.0
C1396 C 0.54082 0.40939 0.11006 0.0
C1397 C 0.53133 0.40705 0.15227 0.0
C1398 C 0.53399 0.4089 0.06263 0.0
C1399 C 0.51756 0.40597 0.0566 0.0
C1400 C 0.50818 0.40345 0.099 0.0
C1401 C 0.51497 0.40402 0.1462 0.0
C1402 C 0.48869 0.4131 0.94985 0.0
C1403 C 0.49733 0.40697 0.90951 0.0
C1404 C 0.49511 0.41253 -0.00216 0.0
C1405 C 0.5102 0.40569 0.00637 0.0
C1406 C 0.51839 0.39886 0.96625 0.0
C1407 C 0.51206 0.39954 0.91845 0.0
H1408 H 0.11448 0.31335 0.05295 0.0
H1409 H 0.15318 0.34277 0.10534 0.0
H1410 H 0.09551 0.33361 0.07719 0.0
H1411 H 0.13392 0.36311 0.1314 0.0
H1412 H 0.09472 0.40223 0.12602 0.0
H1413 H 0.11489 0.38276 0.10077 0.0
H1414 H 0.08406 0.34464 0.14949 0.0
H1415 H 0.06391 0.36392 0.17298 0.0
C1416 C 0.11896 0.32411 0.07017 0.0
C1417 C 0.13537 0.32638 0.07744 0.0
C1418 C 0.10802 0.33575 0.08437 0.0
C1419 C 0.11311 0.34999 0.10674 0.0
C1420 C 0.12957 0.35235 0.11391 0.0
C1421 C 0.1406 0.34065 0.09936 0.0
C1422 C 0.09225 0.38967 0.13096 0.0
C1423 C 0.07764 0.38462 0.15109 0.0
C1424 C 0.10387 0.37852 0.11692 0.0
C1425 C 0.10112 0.36208 0.12282 0.0
C1426 C 0.08652 0.35714 0.1434 0.0
C1427 C 0.07494 0.36823 0.1571 0.0
H1428 H 0.86053 0.84821 0.4191 0.0
H1429 H 0.89359 0.81172 0.37363 0.0
H1430 H 0.87999 0.86869 0.39722 0.0
H1431 H 0.91257 0.83194 0.34841 0.0
H1432 H 0.95098 0.86832 0.35566 0.0
H1433 H 0.93066 0.84936 0.38028 0.0
H1434 H 0.89405 0.88306 0.33839 0.0
H1435 H 0.91464 0.90244 0.31711 0.0
C1436 C 0.87184 0.84461 0.40335 0.0
C1437 C 0.87562 0.8284 0.39841 0.0
C1438 C 0.88303 0.85634 0.39064 0.0
C1439 C 0.89812 0.8521 0.37174 0.0
C1440 C 0.90142 0.8358 0.36452 0.0
C1441 C 0.89043 0.82414 0.37836 0.0
C1442 C 0.93858 0.87172 0.35224 0.0
C1443 C 0.93439 0.88682 0.33438 0.0
C1444 C 0.92684 0.86075 0.36576 0.0
C1445 C 0.91054 0.8644 0.36041 0.0
C1446 C 0.90639 0.87975 0.34353 0.0
C1447 C 0.9182 0.89089 0.33114 0.0
H1448 H 0.35893 0.66751 0.60574 0.0
H1449 H 0.39758 0.69871 0.56411 0.0
H1450 H 0.37823 0.64742 0.63277 0.0
H1451 H 0.41671 0.67866 0.58974 0.0
H1452 H 0.4188 0.60951 0.62811 0.0
H1453 H 0.39849 0.62876 0.60203 0.0
H1454 H 0.4267 0.66692 0.66405 0.0
H1455 H 0.44696 0.64792 0.68869 0.0
C1456 C 0.37153 0.67008 0.60236 0.0
C1457 C 0.37672 0.68476 0.58308 0.0
C1458 C 0.38258 0.65852 0.61747 0.0
C1459 C 0.39905 0.66142 0.61368 0.0
C1460 C 0.40415 0.67609 0.59411 0.0
C1461 C 0.39315 0.6876 0.57916 0.0
C1462 C 0.42063 0.62202 0.63603 0.0
C1463 C 0.43456 0.62719 0.66013 0.0
C1464 C 0.40895 0.63304 0.62139 0.0
C1465 C 0.411 0.64944 0.63058 0.0
C1466 C 0.42484 0.65446 0.6554 0.0
C1467 C 0.43645 0.64352 0.66981 0.0
H1468 H 0.61338 0.19592 0.94261 0.0
H1469 H 0.65203 0.16789 0.88283 0.0
H1470 H 0.59448 0.17575 0.91673 0.0
H1471 H 0.63285 0.14763 0.8556 0.0
H1472 H 0.59356 0.10824 0.85761 0.0
H1473 H 0.61376 0.12731 0.88575 0.0
H1474 H 0.58328 0.16615 0.84069 0.0
H1475 H 0.56316 0.14729 0.81389 0.0
C1476 C 0.61786 0.18546 0.92367 0.0
C1477 C 0.63423 0.18358 0.91452 0.0
C1478 C 0.60697 0.17389 0.90857 0.0
C1479 C 0.61209 0.16011 0.8836 0.0
C1480 C 0.62851 0.15806 0.87502 0.0
C1481 C 0.63949 0.1697 0.89031 0.0
C1482 C 0.59118 0.12087 0.85401 0.0
C1483 C 0.57669 0.12625 0.83384 0.0
C1484 C 0.6028 0.13178 0.86975 0.0
C1485 C 0.60013 0.14828 0.86576 0.0
C1486 C 0.58566 0.15356 0.84522 0.0
C1487 C 0.57411 0.14271 0.8296 0.0
H1488 H 0.06117 0.64896 0.31196 0.0
H1489 H 0.09243 0.61102 0.35908 0.0
H1490 H 0.08113 0.66849 0.3353 0.0
H1491 H 0.11235 0.6307 0.38419 0.0
H1492 H 0.15058 0.67002 0.37715 0.0
H1493 H 0.13107 0.64992 0.35226 0.0
H1494 H 0.09312 0.6802 0.40558 0.0
H1495 H 0.11248 0.70035 0.42871 0.0
C1496 C 0.07225 0.64478 0.32789 0.0
C1497 C 0.07517 0.62842 0.3338 0.0
C1498 C 0.08371 0.65602 0.34153 0.0
C1499 C 0.09839 0.65124 0.36188 0.0
C1500 C 0.10128 0.63483 0.36807 0.0
C1501 C 0.08981 0.62355 0.3541 0.0
C1502 C 0.13805 0.6724 0.38317 0.0
C1503 C 0.13309 0.68683 0.40462 0.0
C1504 C 0.12686 0.66082 0.36933 0.0
C1505 C 0.11046 0.6634 0.37679 0.0
C1506 C 0.10558 0.67786 0.39835 0.0
C1507 C 0.11672 0.68943 0.41187 0.0
H1508 H 0.65184 0.84676 0.56225 0.0
H1509 H 0.61761 0.81017 0.59707 0.0
H1510 H 0.63234 0.86719 0.58422 0.0
H1511 H 0.59856 0.83024 0.6227 0.0
H1512 H 0.56093 0.86748 0.62132 0.0
H1513 H 0.58101 0.84854 0.5945 0.0
H1514 H 0.61803 0.88085 0.64311 0.0
H1515 H 0.59772 0.90027 0.66619 0.0
C1516 C 0.64022 0.84312 0.57551 0.0
C1517 C 0.63616 0.82692 0.57756 0.0
C1518 C 0.62901 0.85482 0.58838 0.0
C1519 C 0.61362 0.85053 0.60474 0.0
C1520 C 0.60996 0.8342 0.60863 0.0
C1521 C 0.62098 0.8226 0.59449 0.0
C1522 C 0.57338 0.87056 0.62576 0.0
C1523 C 0.57777 0.8853 0.64592 0.0
C1524 C 0.58498 0.8596 0.61095 0.0
C1525 C 0.60133 0.86286 0.61741 0.0
C1526 C 0.60567 0.87784 0.63688 0.0
C1527 C 0.59402 0.88899 0.65041 0.0
H1528 H 0.44603 0.36445 0.80115 0.0
H1529 H 0.41754 0.40354 0.85582 0.0
H1530 H 0.42578 0.34574 0.82759 0.0
H1531 H 0.39716 0.38453 0.88361 0.0
H1532 H 0.35814 0.34422 0.88221 0.0
H1533 H 0.37702 0.36467 0.85396 0.0
H1534 H 0.41612 0.33557 0.90522 0.0
H1535 H 0.39754 0.31528 0.93209 0.0
C1536 C 0.43545 0.36908 0.81908 0.0
C1537 C 0.43349 0.38551 0.82669 0.0
C1538 C 0.42383 0.3583 0.83448 0.0
C1539 C 0.4099 0.36358 0.85828 0.0
C1540 C 0.40772 0.38007 0.86519 0.0
C1541 C 0.41943 0.39094 0.84959 0.0
C1542 C 0.37078 0.34224 0.88724 0.0
C1543 C 0.37633 0.32805 0.90899 0.0
C1544 C 0.38158 0.35398 0.8714 0.0
C1545 C 0.39811 0.3517 0.87689 0.0
C1546 C 0.40352 0.33761 0.89943 0.0
C1547 C 0.39282 0.32597 0.91509 0.0
H1548 H 0.89118 0.20214 0.11335 0.0
H1549 H 0.85909 0.16544 0.06326 0.0
H1550 H 0.9101 0.18206 0.14011 0.0
H1551 H 0.87854 0.14512 0.08645 0.0
H1552 H 0.91289 0.11114 0.1658 0.0
H1553 H 0.89224 0.13051 0.14504 0.0
H1554 H 0.92877 0.1651 0.11003 0.0
H1555 H 0.9491 0.14612 0.13432 0.0
C1556 C 0.88823 0.1897 0.10794 0.0
C1557 C 0.87371 0.18534 0.08617 0.0
C1558 C 0.89919 0.17812 0.12266 0.0
C1559 C 0.89618 0.16181 0.1145 0.0
C1560 C 0.88135 0.15746 0.09386 0.0
C1561 C 0.87017 0.16911 0.08036 0.0
C1562 C 0.91641 0.12291 0.15356 0.0
C1563 C 0.93258 0.12719 0.15205 0.0
C1564 C 0.90457 0.13405 0.14141 0.0
C1565 C 0.90867 0.14961 0.1264 0.0
C1566 C 0.92496 0.15353 0.12308 0.0
C1567 C 0.93671 0.14256 0.13644 0.0
H1568 H 0.8972 0.69876 0.92918 0.0
H1569 H 0.85835 0.6693 0.87812 0.0
H1570 H 0.9161 0.67846 0.90445 0.0
H1571 H 0.87751 0.6489 0.85185 0.0
H1572 H 0.91735 0.60998 0.85715 0.0
H1573 H 0.89705 0.62929 0.88307 0.0
H1574 H 0.92682 0.66762 0.8299 0.0
H1575 H 0.94704 0.64858 0.8055 0.0
C1576 C 0.89267 0.68797 0.91226 0.0
C1577 C 0.87624 0.68572 0.90537 0.0
C1578 C 0.90356 0.67632 0.89782 0.0
C1579 C 0.89839 0.66207 0.87569 0.0
C1580 C 0.88191 0.65969 0.86909 0.0
C1581 C 0.87094 0.67142 0.88377 0.0
C1582 C 0.91954 0.62255 0.85128 0.0
C1583 C 0.93388 0.62774 0.82965 0.0
C1584 C 0.90786 0.6336 0.86575 0.0
C1585 C 0.91032 0.65004 0.85891 0.0
C1586 C 0.92461 0.65511 0.83671 0.0
C1587 C 0.93622 0.64414 0.82247 0.0
H1588 H 0.11512 0.20012 0.59697 0.0
H1589 H 0.14997 0.16377 0.5656 0.0
H1590 H 0.09611 0.17987 0.62183 0.0
H1591 H 0.13059 0.14322 0.58698 0.0
H1592 H 0.09569 0.11008 0.66806 0.0
H1593 H 0.116 0.12963 0.64573 0.0
H1594 H 0.07908 0.16119 0.59191 0.0
H1595 H 0.05899 0.14214 0.6177 0.0
C1596 C 0.11865 0.18773 0.59509 0.0
C1597 C 0.134 0.18353 0.57928 0.0
C1598 C 0.10767 0.17603 0.60877 0.0
C1599 C 0.11154 0.15972 0.60562 0.0
C1600 C 0.12709 0.15557 0.59051 0.0
C1601 C 0.13823 0.16735 0.57801 0.0
C1602 C 0.09202 0.12119 0.65116 0.0
C1603 C 0.07578 0.12466 0.64494 0.0
C1604 C 0.10366 0.13243 0.63814 0.0
C1605 C 0.09932 0.14726 0.61757 0.0
C1606 C 0.08301 0.15026 0.60924 0.0
C1607 C 0.07142 0.13922 0.62343 0.0
H1608 H 0.59312 0.40114 0.35858 0.0
H1609 H 0.56304 0.36282 0.30721 0.0
H1610 H 0.61317 0.38173 0.38486 0.0
H1611 H 0.58312 0.34358 0.33164 0.0
H1612 H 0.61341 0.31202 0.42854 0.0
H1613 H 0.59423 0.33204 0.40342 0.0
H1614 H 0.63257 0.36268 0.35513 0.0
H1615 H 0.65194 0.34266 0.38212 0.0
C1616 C 0.5908 0.38859 0.35285 0.0
C1617 C 0.57643 0.38353 0.33118 0.0
C1618 C 0.60234 0.37746 0.36751 0.0
C1619 C 0.59978 0.36103 0.3606 0.0
C1620 C 0.58542 0.35607 0.33854 0.0
C1621 C 0.5739 0.36714 0.32428 0.0
C1622 C 0.6178 0.32299 0.41239 0.0
C1623 C 0.63422 0.3257 0.40715 0.0
C1624 C 0.60676 0.33448 0.3977 0.0
C1625 C 0.61179 0.34899 0.37687 0.0
C1626 C 0.62825 0.35172 0.3715 0.0
C1627 C 0.63936 0.3402 0.38656 0.0
H1628 H 0.39629 0.80928 0.10549 0.0
H1629 H 0.36265 0.84595 0.06609 0.0
H1630 H 0.41546 0.82945 0.13022 0.0
H1631 H 0.38219 0.86631 0.08704 0.0
H1632 H 0.41623 0.90015 0.16613 0.0
H1633 H 0.39608 0.88038 0.14524 0.0
H1634 H 0.43333 0.84753 0.10191 0.0
H1635 H 0.45327 0.86693 0.12655 0.0
C1636 C 0.39306 0.82171 0.10183 0.0
C1637 C 0.378 0.82604 0.08394 0.0
C1638 C 0.40414 0.83336 0.11543 0.0
C1639 C 0.40064 0.8497 0.11006 0.0
C1640 C 0.38539 0.85396 0.09256 0.0
C1641 C 0.37415 0.84227 0.08025 0.0
C1642 C 0.42004 0.88869 0.15195 0.0
C1643 C 0.43631 0.88503 0.1482 0.0
C1644 C 0.40847 0.87731 0.13968 0.0
C1645 C 0.41291 0.86211 0.12217 0.0
C1646 C 0.42928 0.8588 0.11673 0.0
C1647 C 0.4408 0.87002 0.13027 0.0
H1648 H 0.91861 0.40266 0.62761 0.0
H1649 H 0.94874 0.36374 0.67416 0.0
H1650 H 0.89827 0.3835 0.60095 0.0
H1651 H 0.9285 0.34482 0.649 0.0
H1652 H 0.89799 0.3143 0.55024 0.0
H1653 H 0.91716 0.33444 0.5747 0.0
H1654 H 0.87906 0.36372 0.63211 0.0
H1655 H 0.85966 0.34354 0.60618 0.0
C1656 C 0.92089 0.39005 0.63217 0.0
C1657 C 0.93535 0.38473 0.65267 0.0
C1658 C 0.9092 0.37908 0.61727 0.0
C1659 C 0.91177 0.36259 0.62252 0.0
C1660 C 0.9262 0.35739 0.64344 0.0
C1661 C 0.93782 0.36828 0.65813 0.0
C1662 C 0.89365 0.325 0.56814 0.0
C1663 C 0.87729 0.32725 0.57651 0.0
C1664 C 0.90468 0.33656 0.58241 0.0
C1665 C 0.89971 0.35068 0.60579 0.0
C1666 C 0.8833 0.35304 0.61383 0.0
C1667 C 0.8722 0.34143 0.59935 0.0
H1668 H 0.35906 0.16783 0.38161 0.0
H1669 H 0.39727 0.19895 0.42744 0.0
H1670 H 0.37862 0.14784 0.35571 0.0
H1671 H 0.41665 0.17898 0.40323 0.0
H1672 H 0.44799 0.14832 0.30679 0.0
H1673 H 0.42773 0.16737 0.33107 0.0
H1674 H 0.39835 0.12905 0.38649 0.0
H1675 H 0.41863 0.10978 0.36053 0.0
C1676 C 0.37161 0.1704 0.38617 0.0
C1677 C 0.3766 0.18504 0.40626 0.0
C1678 C 0.38283 0.1589 0.37173 0.0
C1679 C 0.39926 0.16178 0.37715 0.0
C1680 C 0.40415 0.17641 0.39754 0.0
C1681 C 0.39299 0.18788 0.41168 0.0
C1682 C 0.43725 0.14391 0.32429 0.0
C1683 C 0.43499 0.12752 0.33192 0.0
C1684 C 0.42561 0.15488 0.33848 0.0
C1685 C 0.41139 0.14982 0.36113 0.0
C1686 C 0.40908 0.13338 0.36873 0.0
C1687 C 0.42075 0.12234 0.35423 0.0
H1688 H 0.61864 0.70054 0.10956 0.0
H1689 H 0.65147 0.66389 0.06362 0.0
H1690 H 0.59962 0.6804 0.1352 0.0
H1691 H 0.632 0.64352 0.08603 0.0
H1692 H 0.59782 0.60994 0.16778 0.0
H1693 H 0.61825 0.6294 0.14605 0.0
H1694 H 0.58141 0.66284 0.10416 0.0
H1695 H 0.56121 0.64377 0.12916 0.0
C1696 C 0.62174 0.68811 0.10479 0.0
C1697 C 0.6365 0.68378 0.08452 0.0
C1698 C 0.61074 0.6765 0.11891 0.0
C1699 C 0.61399 0.66019 0.11186 0.0
C1700 C 0.62901 0.65588 0.09257 0.0
C1701 C 0.6402 0.66756 0.07953 0.0
C1702 C 0.59416 0.62146 0.1537 0.0
C1703 C 0.57794 0.6254 0.15047 0.0
C1704 C 0.60588 0.63264 0.14102 0.0
C1705 C 0.60162 0.64791 0.12385 0.0
C1706 C 0.58529 0.65149 0.11877 0.0
C1707 C 0.57364 0.64047 0.13255 0.0
H1708 H 0.06542 0.86421 0.79747 0.0
H1709 H 0.0934 0.90271 0.85829 0.0
H1710 H 0.08565 0.84527 0.8225 0.0
H1711 H 0.11371 0.88349 0.88476 0.0
H1712 H 0.11462 0.8135 0.92269 0.0
H1713 H 0.09553 0.8336 0.89713 0.0
H1714 H 0.13406 0.86476 0.85406 0.0
H1715 H 0.15333 0.84462 0.88101 0.0
C1716 C 0.07588 0.86865 0.81651 0.0
C1717 C 0.07773 0.88499 0.82612 0.0
C1718 C 0.08748 0.85773 0.83114 0.0
C1719 C 0.10128 0.86279 0.85613 0.0
C1720 C 0.10328 0.87919 0.86529 0.0
C1721 C 0.09161 0.89019 0.85044 0.0
C1722 C 0.11907 0.8246 0.90764 0.0
C1723 C 0.13551 0.8274 0.90366 0.0
C1724 C 0.10809 0.83614 0.89275 0.0
C1725 C 0.11322 0.8508 0.87317 0.0
C1726 C 0.12969 0.85367 0.86936 0.0
C1727 C 0.14073 0.84207 0.88441 0.0
loop_
_geom_bond_atom_site_label_1
_geom_bond_atom_site_label_2
_geom_bond_distance
_geom_bond_site_symmetry_2
_ccdc_geom_bond_type
Co0 O1 2.216 . S
Co0 O2 2.091 . S
Co0 O4 2.004 . S
Co0 O10 2.021 . S
Co0 O12 2.137 1_554 S
Co0 O13 2.244 . S
O1 Co0 2.216 . S
O1 C8 1.247 . S
O2 Co0 2.091 . S
O2 C8 1.261 . S
C3 O12 1.247 . S
C3 O13 1.272 1_556 S
O4 Co0 2.004 . S
O4 C9 1.259 . S
Co5 O6 2.061 . S
Co5 O11 2.052 . S
Co5 O13 2.135 . S
O6 Co5 2.061 . S
O6 C9 1.235 . S
C7 O10 1.238 . S
C7 O11 1.241 . S
C8 O1 1.247 . S
C8 O2 1.261 . S
C9 O4 1.259 . S
C9 O6 1.235 . S
O10 Co0 2.021 . S
O10 C7 1.238 . S
O11 Co5 2.052 . S
O11 C7 1.241 . S
O12 Co0 2.137 1_556 S
O12 C3 1.247 . S
O13 Co0 2.244 . S
O13 C3 1.272 1_554 S
O13 Co5 2.135 . S
Co14 O15 2.216 . S
Co14 O16 2.091 . S
Co14 O18 2.004 . S
Co14 O24 2.021 . S
Co14 O26 2.137 . S
Co14 O27 2.244 . S
O15 Co14 2.216 . S
O15 C22 1.247 . S
O16 Co14 2.091 . S
O16 C22 1.261 . S
C17 O26 1.247 . S
C17 O27 1.272 . S
O18 Co14 2.004 . S
O18 C23 1.259 . S
Co19 O20 2.061 . S
Co19 O25 2.052 . S
Co19 O27 2.135 . S
O20 Co19 2.061 . S
O20 C23 1.235 . S
C21 O24 1.238 . S
C21 O25 1.241 . S
C22 O15 1.247 . S
C22 O16 1.261 . S
C23 O18 1.259 . S
C23 O20 1.235 . S
O24 Co14 2.021 . S
O24 C21 1.238 . S
O25 Co19 2.052 . S
O25 C21 1.241 . S
O26 Co14 2.137 . S
O26 C17 1.247 . S
O27 Co14 2.244 . S
O27 C17 1.272 . S
O27 Co19 2.135 . S
Co28 O29 2.216 . S
Co28 O30 2.091 . S
Co28 O32 2.004 . S
Co28 O38 2.021 . S
Co28 O40 2.137 . S
Co28 O41 2.244 . S
O29 Co28 2.216 . S
O29 C36 1.247 . S
O30 Co28 2.091 . S
O30 C36 1.261 . S
C31 O40 1.247 . S
C31 O41 1.272 . S
O32 Co28 2.004 . S
O32 C37 1.259 . S
Co33 O34 2.061 . S
Co33 O39 2.052 . S
Co33 O41 2.135 . S
O34 Co33 2.061 . S
O34 C37 1.235 . S
C35 O38 1.238 . S
C35 O39 1.241 . S
C36 O29 1.247 . S
C36 O30 1.261 . S
C37 O32 1.259 . S
C37 O34 1.235 . S
O38 Co28 2.021 . S
O38 C35 1.238 . S
O39 Co33 2.052 . S
O39 C35 1.241 . S
O40 Co28 2.137 . S
O40 C31 1.247 . S
O41 Co28 2.244 . S
O41 C31 1.272 . S
O41 Co33 2.135 . S
Co42 O43 2.216 . S
Co42 O44 2.091 . S
Co42 O46 2.004 . S
Co42 O52 2.021 . S
Co42 O54 2.137 . S
Co42 O55 2.244 . S
O43 Co42 2.216 . S
O43 C50 1.247 . S
O44 Co42 2.091 . S
O44 C50 1.261 . S
C45 O54 1.247 . S
C45 O55 1.272 . S
O46 Co42 2.004 . S
O46 C51 1.259 . S
Co47 O48 2.061 . S
Co47 O53 2.052 . S
Co47 O55 2.135 . S
O48 Co47 2.061 . S
O48 C51 1.235 . S
C49 O52 1.238 . S
C49 O53 1.241 . S
C50 O43 1.247 . S
C50 O44 1.261 . S
C51 O46 1.259 . S
C51 O48 1.235 . S
O52 Co42 2.021 . S
O52 C49 1.238 . S
O53 Co47 2.052 . S
O53 C49 1.241 . S
O54 Co42 2.137 . S
O54 C45 1.247 . S
O55 Co42 2.244 . S
O55 C45 1.272 . S
O55 Co47 2.135 . S
Co56 O57 2.216 . S
Co56 O58 2.091 . S
Co56 O60 2.004 . S
Co56 O66 2.021 . S
Co56 O68 2.137 . S
Co56 O69 2.244 . S
O57 Co56 2.216 . S
O57 C64 1.247 . S
O58 Co56 2.091 . S
O58 C64 1.261 . S
C59 O68 1.247 . S
C59 O69 1.272 . S
O60 Co56 2.004 . S
O60 C65 1.259 . S
Co61 O62 2.061 . S
Co61 O67 2.052 . S
Co61 O69 2.135 . S
O62 Co61 2.061 . S
O62 C65 1.235 . S
C63 O66 1.238 . S
C63 O67 1.241 . S
C64 O57 1.247 . S
C64 O58 1.261 . S
C65 O60 1.259 . S
C65 O62 1.235 . S
O66 Co56 2.021 . S
O66 C63 1.238 . S
O67 Co61 2.052 . S
O67 C63 1.241 . S
O68 Co56 2.137 . S
O68 C59 1.247 . S
O69 Co56 2.244 . S
O69 C59 1.272 . S
O69 Co61 2.135 . S
Co70 O71 2.216 . S
Co70 O72 2.091 . S
Co70 O74 2.004 . S
Co70 O80 2.021 . S
Co70 O82 2.137 . S
Co70 O83 2.244 . S
O71 Co70 2.216 . S
O71 C78 1.247 . S
O72 Co70 2.091 . S
O72 C78 1.261 . S
C73 O82 1.247 . S
C73 O83 1.272 . S
O74 Co70 2.004 . S
O74 C79 1.259 . S
Co75 O76 2.061 . S
Co75 O81 2.052 . S
Co75 O83 2.135 . S
O76 Co75 2.061 . S
O76 C79 1.235 . S
C77 O80 1.238 . S
C77 O81 1.241 . S
C78 O71 1.247 . S
C78 O72 1.261 . S
C79 O74 1.259 . S
C79 O76 1.235 . S
O80 Co70 2.021 . S
O80 C77 1.238 . S
O81 Co75 2.052 . S
O81 C77 1.241 . S
O82 Co70 2.137 . S
O82 C73 1.247 . S
O83 Co70 2.244 . S
O83 C73 1.272 . S
O83 Co75 2.135 . S
Co84 O85 2.216 . S
Co84 O86 2.091 . S
Co84 O88 2.004 . S
Co84 O94 2.021 . S
Co84 O96 2.137 1_556 S
Co84 O97 2.244 . S
O85 Co84 2.216 . S
O85 C92 1.247 . S
O86 Co84 2.091 . S
O86 C92 1.261 . S
C87 O96 1.247 . S
C87 O97 1.272 1_554 S
O88 Co84 2.004 . S
O88 C93 1.259 . S
Co89 O90 2.061 . S
Co89 O95 2.052 . S
Co89 O97 2.135 . S
O90 Co89 2.061 . S
O90 C93 1.235 . S
C91 O94 1.238 . S
C91 O95 1.241 . S
C92 O85 1.247 . S
C92 O86 1.261 . S
C93 O88 1.259 . S
C93 O90 1.235 . S
O94 Co84 2.021 . S
O94 C91 1.238 . S
O95 Co89 2.052 . S
O95 C91 1.241 . S
O96 Co84 2.137 1_554 S
O96 C87 1.247 . S
O97 Co84 2.244 . S
O97 C87 1.272 1_556 S
O97 Co89 2.135 . S
Co98 O99 2.216 . S
Co98 O100 2.091 . S
Co98 O102 2.004 . S
Co98 O108 2.021 . S
Co98 O110 2.137 . S
Co98 O111 2.244 . S
O99 Co98 2.216 . S
O99 C106 1.247 . S
O100 Co98 2.091 . S
O100 C106 1.261 . S
C101 O110 1.247 . S
C101 O111 1.272 . S
O102 Co98 2.004 . S
O102 C107 1.259 . S
Co103 O104 2.061 . S
Co103 O109 2.052 . S
Co103 O111 2.135 . S
O104 Co103 2.061 . S
O104 C107 1.235 . S
C105 O108 1.238 . S
C105 O109 1.241 . S
C106 O99 1.247 . S
C106 O100 1.261 . S
C107 O102 1.259 . S
C107 O104 1.235 . S
O108 Co98 2.021 . S
O108 C105 1.238 . S
O109 Co103 2.052 . S
O109 C105 1.241 . S
O110 Co98 2.137 . S
O110 C101 1.247 . S
O111 Co98 2.244 . S
O111 C101 1.272 . S
O111 Co103 2.135 . S
Co112 O113 2.216 . S
Co112 O114 2.091 . S
Co112 O116 2.004 . S
Co112 O122 2.021 . S
Co112 O124 2.137 1_556 S
Co112 O125 2.244 . S
O113 Co112 2.216 . S
O113 C120 1.247 . S
O114 Co112 2.091 . S
O114 C120 1.261 . S
C115 O124 1.247 . S
C115 O125 1.272 1_554 S
O116 Co112 2.004 . S
O116 C121 1.259 . S
Co117 O118 2.061 . S
Co117 O123 2.052 . S
Co117 O125 2.135 . S
O118 Co117 2.061 . S
O118 C121 1.235 . S
C119 O122 1.238 . S
C119 O123 1.241 . S
C120 O113 1.247 . S
C120 O114 1.261 . S
C121 O116 1.259 . S
C121 O118 1.235 . S
O122 Co112 2.021 . S
O122 C119 1.238 . S
O123 Co117 2.052 . S
O123 C119 1.241 . S
O124 Co112 2.137 1_554 S
O124 C115 1.247 . S
O125 Co112 2.244 . S
O125 C115 1.272 1_556 S
O125 Co117 2.135 . S
Co126 O127 2.216 . S
Co126 O128 2.091 . S
Co126 O130 2.004 . S
Co126 O136 2.021 . S
Co126 O138 2.137 . S
Co126 O139 2.244 . S
O127 Co126 2.216 . S
O127 C134 1.247 . S
O128 Co126 2.091 . S
O128 C134 1.261 . S
C129 O138 1.247 . S
C129 O139 1.272 . S
O130 Co126 2.004 . S
O130 C135 1.259 . S
Co131 O132 2.061 . S
Co131 O137 2.052 . S
Co131 O139 2.135 . S
O132 Co131 2.061 . S
O132 C135 1.235 . S
C133 O136 1.238 . S
C133 O137 1.241 . S
C134 O127 1.247 . S
C134 O128 1.261 . S
C135 O130 1.259 . S
C135 O132 1.235 . S
O136 Co126 2.021 . S
O136 C133 1.238 . S
O137 Co131 2.052 . S
O137 C133 1.241 . S
O138 Co126 2.137 . S
O138 C129 1.247 . S
O139 Co126 2.244 . S
O139 C129 1.272 . S
O139 Co131 2.135 . S
Co140 O141 2.216 . S
Co140 O142 2.091 . S
Co140 O144 2.004 . S
Co140 O150 2.021 . S
Co140 O152 2.137 . S
Co140 O153 2.244 . S
O141 Co140 2.216 . S
O141 C148 1.247 . S
O142 Co140 2.091 . S
O142 C148 1.261 . S
C143 O152 1.247 . S
C143 O153 1.272 . S
O144 Co140 2.004 . S
O144 C149 1.259 . S
Co145 O146 2.061 . S
Co145 O151 2.052 . S
Co145 O153 2.135 . S
O146 Co145 2.061 . S
O146 C149 1.235 . S
C147 O150 1.238 . S
C147 O151 1.241 . S
C148 O141 1.247 . S
C148 O142 1.261 . S
C149 O144 1.259 . S
C149 O146 1.235 . S
O150 Co140 2.021 . S
O150 C147 1.238 . S
O151 Co145 2.052 . S
O151 C147 1.241 . S
O152 Co140 2.137 . S
O152 C143 1.247 . S
O153 Co140 2.244 . S
O153 C143 1.272 . S
O153 Co145 2.135 . S
Co154 O155 2.216 . S
Co154 O156 2.091 . S
Co154 O158 2.004 . S
Co154 O164 2.021 . S
Co154 O166 2.137 . S
Co154 O167 2.244 . S
O155 Co154 2.216 . S
O155 C162 1.247 . S
O156 Co154 2.091 . S
O156 C162 1.261 . S
C157 O166 1.247 . S
C157 O167 1.272 . S
O158 Co154 2.004 . S
O158 C163 1.259 . S
Co159 O160 2.061 . S
Co159 O165 2.052 . S
Co159 O167 2.135 . S
O160 Co159 2.061 . S
O160 C163 1.235 . S
C161 O164 1.238 . S
C161 O165 1.241 . S
C162 O155 1.247 . S
C162 O156 1.261 . S
C163 O158 1.259 . S
C163 O160 1.235 . S
O164 Co154 2.021 . S
O164 C161 1.238 . S
O165 Co159 2.052 . S
O165 C161 1.241 . S
O166 Co154 2.137 . S
O166 C157 1.247 . S
O167 Co154 2.244 . S
O167 C157 1.272 . S
O167 Co159 2.135 . S
Co168 O169 2.216 . S
Co168 O170 2.091 . S
Co168 O172 2.004 . S
Co168 O178 2.021 . S
Co168 O180 2.137 . S
Co168 O181 2.244 . S
O169 Co168 2.216 . S
O169 C176 1.247 . S
O170 Co168 2.091 . S
O170 C176 1.261 . S
C171 O180 1.247 . S
C171 O181 1.272 . S
O172 Co168 2.004 . S
O172 C177 1.259 . S
Co173 O174 2.061 . S
Co173 O179 2.052 . S
Co173 O181 2.135 . S
O174 Co173 2.061 . S
O174 C177 1.235 . S
C175 O178 1.238 . S
C175 O179 1.241 . S
C176 O169 1.247 . S
C176 O170 1.261 . S
C177 O172 1.259 . S
C177 O174 1.235 . S
O178 Co168 2.021 . S
O178 C175 1.238 . S
O179 Co173 2.052 . S
O179 C175 1.241 . S
O180 Co168 2.137 . S
O180 C171 1.247 . S
O181 Co168 2.244 . S
O181 C171 1.272 . S
O181 Co173 2.135 . S
Co182 O183 2.216 . S
Co182 O184 2.091 . S
Co182 O186 2.004 . S
Co182 O192 2.021 . S
Co182 O194 2.137 . S
Co182 O195 2.244 . S
O183 Co182 2.216 . S
O183 C190 1.247 . S
O184 Co182 2.091 . S
O184 C190 1.261 . S
C185 O194 1.247 . S
C185 O195 1.272 . S
O186 Co182 2.004 . S
O186 C191 1.259 . S
Co187 O188 2.061 . S
Co187 O193 2.052 . S
Co187 O195 2.135 . S
O188 Co187 2.061 . S
O188 C191 1.235 . S
C189 O192 1.238 . S
C189 O193 1.241 . S
C190 O183 1.247 . S
C190 O184 1.261 . S
C191 O186 1.259 . S
C191 O188 1.235 . S
O192 Co182 2.021 . S
O192 C189 1.238 . S
O193 Co187 2.052 . S
O193 C189 1.241 . S
O194 Co182 2.137 . S
O194 C185 1.247 . S
O195 Co182 2.244 . S
O195 C185 1.272 . S
O195 Co187 2.135 . S
Co196 O197 2.216 . S
Co196 O198 2.091 . S
Co196 O200 2.004 . S
Co196 O206 2.021 . S
Co196 O208 2.137 1_554 S
Co196 O209 2.244 . S
O197 Co196 2.216 . S
O197 C204 1.247 . S
O198 Co196 2.091 . S
O198 C204 1.261 . S
C199 O208 1.247 . S
C199 O209 1.272 1_556 S
O200 Co196 2.004 . S
O200 C205 1.259 . S
Co201 O202 2.061 . S
Co201 O207 2.052 . S
Co201 O209 2.135 . S
O202 Co201 2.061 . S
O202 C205 1.235 . S
C203 O206 1.238 . S
C203 O207 1.241 . S
C204 O197 1.247 . S
C204 O198 1.261 . S
C205 O200 1.259 . S
C205 O202 1.235 . S
O206 Co196 2.021 . S
O206 C203 1.238 . S
O207 Co201 2.052 . S
O207 C203 1.241 . S
O208 Co196 2.137 1_556 S
O208 C199 1.247 . S
O209 Co196 2.244 . S
O209 C199 1.272 1_554 S
O209 Co201 2.135 . S
Co210 O211 2.216 . S
Co210 O212 2.091 . S
Co210 O214 2.004 . S
Co210 O220 2.021 . S
Co210 O222 2.137 . S
Co210 O223 2.244 . S
O211 Co210 2.216 . S
O211 C218 1.247 . S
O212 Co210 2.091 . S
O212 C218 1.261 . S
C213 O222 1.247 . S
C213 O223 1.272 . S
O214 Co210 2.004 . S
O214 C219 1.259 . S
Co215 O216 2.061 . S
Co215 O221 2.052 . S
Co215 O223 2.135 . S
O216 Co215 2.061 . S
O216 C219 1.235 . S
C217 O220 1.238 . S
C217 O221 1.241 . S
C218 O211 1.247 . S
C218 O212 1.261 . S
C219 O214 1.259 . S
C219 O216 1.235 . S
O220 Co210 2.021 . S
O220 C217 1.238 . S
O221 Co215 2.052 . S
O221 C217 1.241 . S
O222 Co210 2.137 . S
O222 C213 1.247 . S
O223 Co210 2.244 . S
O223 C213 1.272 . S
O223 Co215 2.135 . S
Co224 O225 2.216 . S
Co224 O226 2.091 . S
Co224 O228 2.004 . S
Co224 O234 2.021 . S
Co224 O236 2.137 . S
Co224 O237 2.244 . S
O225 Co224 2.216 . S
O225 C232 1.247 . S
O226 Co224 2.091 . S
O226 C232 1.261 . S
C227 O236 1.247 . S
C227 O237 1.272 . S
O228 Co224 2.004 . S
O228 C233 1.259 . S
Co229 O230 2.061 . S
Co229 O235 2.052 . S
Co229 O237 2.135 . S
O230 Co229 2.061 . S
O230 C233 1.235 . S
C231 O234 1.238 . S
C231 O235 1.241 . S
C232 O225 1.247 . S
C232 O226 1.261 . S
C233 O228 1.259 . S
C233 O230 1.235 . S
O234 Co224 2.021 . S
O234 C231 1.238 . S
O235 Co229 2.052 . S
O235 C231 1.241 . S
O236 Co224 2.137 . S
O236 C227 1.247 . S
O237 Co224 2.244 . S
O237 C227 1.272 . S
O237 Co229 2.135 . S
Co238 O239 2.216 . S
Co238 O240 2.091 . S
Co238 O242 2.004 . S
Co238 O248 2.021 . S
Co238 O250 2.137 . S
Co238 O251 2.244 . S
O239 Co238 2.216 . S
O239 C246 1.247 . S
O240 Co238 2.091 . S
O240 C246 1.261 . S
C241 O250 1.247 . S
C241 O251 1.272 . S
O242 Co238 2.004 . S
O242 C247 1.259 . S
Co243 O244 2.061 . S
Co243 O249 2.052 . S
Co243 O251 2.135 . S
O244 Co243 2.061 . S
O244 C247 1.235 . S
C245 O248 1.238 . S
C245 O249 1.241 . S
C246 O239 1.247 . S
C246 O240 1.261 . S
C247 O242 1.259 . S
C247 O244 1.235 . S
O248 Co238 2.021 . S
O248 C245 1.238 . S
O249 Co243 2.052 . S
O249 C245 1.241 . S
O250 Co238 2.137 . S
O250 C241 1.247 . S
O251 Co238 2.244 . S
O251 C241 1.272 . S
O251 Co243 2.135 . S
Co252 O253 2.216 . S
Co252 O254 2.091 . S
Co252 O256 2.004 . S
Co252 O262 2.021 . S
Co252 O264 2.137 1_554 S
Co252 O265 2.244 . S
O253 Co252 2.216 . S
O253 C260 1.247 . S
O254 Co252 2.091 . S
O254 C260 1.261 . S
C255 O264 1.247 . S
C255 O265 1.272 1_556 S
O256 Co252 2.004 . S
O256 C261 1.259 . S
Co257 O258 2.061 . S
Co257 O263 2.052 . S
Co257 O265 2.135 . S
O258 Co257 2.061 . S
O258 C261 1.235 . S
C259 O262 1.238 . S
C259 O263 1.241 . S
C260 O253 1.247 . S
C260 O254 1.261 . S
C261 O256 1.259 . S
C261 O258 1.235 . S
O262 Co252 2.021 . S
O262 C259 1.238 . S
O263 Co257 2.052 . S
O263 C259 1.241 . S
O264 Co252 2.137 1_556 S
O264 C255 1.247 . S
O265 Co252 2.244 . S
O265 C255 1.272 1_554 S
O265 Co257 2.135 . S
Co266 O267 2.216 . S
Co266 O268 2.091 . S
Co266 O270 2.004 . S
Co266 O276 2.021 . S
Co266 O278 2.137 . S
Co266 O279 2.244 . S
O267 Co266 2.216 . S
O267 C274 1.247 . S
O268 Co266 2.091 . S
O268 C274 1.261 . S
C269 O278 1.247 . S
C269 O279 1.272 . S
O270 Co266 2.004 . S
O270 C275 1.259 . S
Co271 O272 2.061 . S
Co271 O277 2.052 . S
Co271 O279 2.135 . S
O272 Co271 2.061 . S
O272 C275 1.235 . S
C273 O276 1.238 . S
C273 O277 1.241 . S
C274 O267 1.247 . S
C274 O268 1.261 . S
C275 O270 1.259 . S
C275 O272 1.235 . S
O276 Co266 2.021 . S
O276 C273 1.238 . S
O277 Co271 2.052 . S
O277 C273 1.241 . S
O278 Co266 2.137 . S
O278 C269 1.247 . S
O279 Co266 2.244 . S
O279 C269 1.272 . S
O279 Co271 2.135 . S
Co280 O281 2.216 . S
Co280 O282 2.091 . S
Co280 O284 2.004 . S
Co280 O290 2.021 . S
Co280 O292 2.137 1_556 S
Co280 O293 2.244 . S
O281 Co280 2.216 . S
O281 C288 1.247 . S
O282 Co280 2.091 . S
O282 C288 1.261 . S
C283 O292 1.247 . S
C283 O293 1.272 1_554 S
O284 Co280 2.004 . S
O284 C289 1.259 . S
Co285 O286 2.061 . S
Co285 O291 2.052 . S
Co285 O293 2.135 . S
O286 Co285 2.061 . S
O286 C289 1.235 . S
C287 O290 1.238 . S
C287 O291 1.241 . S
C288 O281 1.247 . S
C288 O282 1.261 . S
C289 O284 1.259 . S
C289 O286 1.235 . S
O290 Co280 2.021 . S
O290 C287 1.238 . S
O291 Co285 2.052 . S
O291 C287 1.241 . S
O292 Co280 2.137 1_554 S
O292 C283 1.247 . S
O293 Co280 2.244 . S
O293 C283 1.272 1_556 S
O293 Co285 2.135 . S
Co294 O295 2.216 . S
Co294 O296 2.091 . S
Co294 O298 2.004 . S
Co294 O304 2.021 . S
Co294 O306 2.137 . S
Co294 O307 2.244 . S
O295 Co294 2.216 . S
O295 C302 1.247 . S
O296 Co294 2.091 . S
O296 C302 1.261 . S
C297 O306 1.247 . S
C297 O307 1.272 . S
O298 Co294 2.004 . S
O298 C303 1.259 . S
Co299 O300 2.061 . S
Co299 O305 2.052 . S
Co299 O307 2.135 . S
O300 Co299 2.061 . S
O300 C303 1.235 . S
C301 O304 1.238 . S
C301 O305 1.241 . S
C302 O295 1.247 . S
C302 O296 1.261 . S
C303 O298 1.259 . S
C303 O300 1.235 . S
O304 Co294 2.021 . S
O304 C301 1.238 . S
O305 Co299 2.052 . S
O305 C301 1.241 . S
O306 Co294 2.137 . S
O306 C297 1.247 . S
O307 Co294 2.244 . S
O307 C297 1.272 . S
O307 Co299 2.135 . S
Co308 O309 2.216 . S
Co308 O310 2.091 . S
Co308 O312 2.004 . S
Co308 O318 2.021 . S
Co308 O320 2.137 . S
Co308 O321 2.244 . S
O309 Co308 2.216 . S
O309 C316 1.247 . S
O310 Co308 2.091 . S
O310 C316 1.261 . S
C311 O320 1.247 . S
C311 O321 1.272 . S
O312 Co308 2.004 . S
O312 C317 1.259 . S
Co313 O314 2.061 . S
Co313 O319 2.052 . S
Co313 O321 2.135 . S
O314 Co313 2.061 . S
O314 C317 1.235 . S
C315 O318 1.238 . S
C315 O319 1.241 . S
C316 O309 1.247 . S
C316 O310 1.261 . S
C317 O312 1.259 . S
C317 O314 1.235 . S
O318 Co308 2.021 . S
O318 C315 1.238 . S
O319 Co313 2.052 . S
O319 C315 1.241 . S
O320 Co308 2.137 . S
O320 C311 1.247 . S
O321 Co308 2.244 . S
O321 C311 1.272 . S
O321 Co313 2.135 . S
Co322 O323 2.216 . S
Co322 O324 2.091 . S
Co322 O326 2.004 . S
Co322 O332 2.021 . S
Co322 O334 2.137 . S
Co322 O335 2.244 . S
O323 Co322 2.216 . S
O323 C330 1.247 . S
O324 Co322 2.091 . S
O324 C330 1.261 . S
C325 O334 1.247 . S
C325 O335 1.272 . S
O326 Co322 2.004 . S
O326 C331 1.259 . S
Co327 O328 2.061 . S
Co327 O333 2.052 . S
Co327 O335 2.135 . S
O328 Co327 2.061 . S
O328 C331 1.235 . S
C329 O332 1.238 . S
C329 O333 1.241 . S
C330 O323 1.247 . S
C330 O324 1.261 . S
C331 O326 1.259 . S
C331 O328 1.235 . S
O332 Co322 2.021 . S
O332 C329 1.238 . S
O333 Co327 2.052 . S
O333 C329 1.241 . S
O334 Co322 2.137 . S
O334 C325 1.247 . S
O335 Co322 2.244 . S
O335 C325 1.272 . S
O335 Co327 2.135 . S
Co336 O337 2.216 . S
Co336 O338 2.091 . S
Co336 O340 2.004 . S
Co336 O346 2.021 . S
Co336 O348 2.137 . S
Co336 O349 2.244 . S
O337 Co336 2.216 . S
O337 C344 1.247 . S
O338 Co336 2.091 . S
O338 C344 1.261 . S
C339 O348 1.247 . S
C339 O349 1.272 . S
O340 Co336 2.004 . S
O340 C345 1.259 . S
Co341 O342 2.061 . S
Co341 O347 2.052 . S
Co341 O349 2.135 . S
O342 Co341 2.061 . S
O342 C345 1.235 . S
C343 O346 1.238 . S
C343 O347 1.241 . S
C344 O337 1.247 . S
C344 O338 1.261 . S
C345 O340 1.259 . S
C345 O342 1.235 . S
O346 Co336 2.021 . S
O346 C343 1.238 . S
O347 Co341 2.052 . S
O347 C343 1.241 . S
O348 Co336 2.137 . S
O348 C339 1.247 . S
O349 Co336 2.244 . S
O349 C339 1.272 . S
O349 Co341 2.135 . S
Co350 O351 2.216 . S
Co350 O352 2.091 . S
Co350 O354 2.004 . S
Co350 O360 2.021 . S
Co350 O362 2.137 . S
Co350 O363 2.244 . S
O351 Co350 2.216 . S
O351 C358 1.247 . S
O352 Co350 2.091 . S
O352 C358 1.261 . S
C353 O362 1.247 . S
C353 O363 1.272 . S
O354 Co350 2.004 . S
O354 C359 1.259 . S
Co355 O356 2.061 . S
Co355 O361 2.052 . S
Co355 O363 2.135 . S
O356 Co355 2.061 . S
O356 C359 1.235 . S
C357 O360 1.238 . S
C357 O361 1.241 . S
C358 O351 1.247 . S
C358 O352 1.261 . S
C359 O354 1.259 . S
C359 O356 1.235 . S
O360 Co350 2.021 . S
O360 C357 1.238 . S
O361 Co355 2.052 . S
O361 C357 1.241 . S
O362 Co350 2.137 . S
O362 C353 1.247 . S
O363 Co350 2.244 . S
O363 C353 1.272 . S
O363 Co355 2.135 . S
Co364 O365 2.216 . S
Co364 O366 2.091 . S
Co364 O368 2.004 . S
Co364 O374 2.021 . S
Co364 O376 2.137 1_556 S
Co364 O377 2.244 . S
O365 Co364 2.216 . S
O365 C372 1.247 . S
O366 Co364 2.091 . S
O366 C372 1.261 . S
C367 O376 1.247 . S
C367 O377 1.272 1_554 S
O368 Co364 2.004 . S
O368 C373 1.259 . S
Co369 O370 2.061 . S
Co369 O375 2.052 . S
Co369 O377 2.135 . S
O370 Co369 2.061 . S
O370 C373 1.235 . S
C371 O374 1.238 . S
C371 O375 1.241 . S
C372 O365 1.247 . S
C372 O366 1.261 . S
C373 O368 1.259 . S
C373 O370 1.235 . S
O374 Co364 2.021 . S
O374 C371 1.238 . S
O375 Co369 2.052 . S
O375 C371 1.241 . S
O376 Co364 2.137 1_554 S
O376 C367 1.247 . S
O377 Co364 2.244 . S
O377 C367 1.272 1_556 S
O377 Co369 2.135 . S
Co378 O379 2.216 . S
Co378 O380 2.091 . S
Co378 O382 2.004 . S
Co378 O388 2.021 . S
Co378 O390 2.137 . S
Co378 O391 2.244 . S
O379 Co378 2.216 . S
O379 C386 1.247 . S
O380 Co378 2.091 . S
O380 C386 1.261 . S
C381 O390 1.247 . S
C381 O391 1.272 . S
O382 Co378 2.004 . S
O382 C387 1.259 . S
Co383 O384 2.061 . S
Co383 O389 2.052 . S
Co383 O391 2.135 . S
O384 Co383 2.061 . S
O384 C387 1.235 . S
C385 O388 1.238 . S
C385 O389 1.241 . S
C386 O379 1.247 . S
C386 O380 1.261 . S
C387 O382 1.259 . S
C387 O384 1.235 . S
O388 Co378 2.021 . S
O388 C385 1.238 . S
O389 Co383 2.052 . S
O389 C385 1.241 . S
O390 Co378 2.137 . S
O390 C381 1.247 . S
O391 Co378 2.244 . S
O391 C381 1.272 . S
O391 Co383 2.135 . S
Co392 O393 2.216 . S
Co392 O394 2.091 . S
Co392 O396 2.004 . S
Co392 O402 2.021 . S
Co392 O404 2.137 1_554 S
Co392 O405 2.244 . S
O393 Co392 2.216 . S
O393 C400 1.247 . S
O394 Co392 2.091 . S
O394 C400 1.261 . S
C395 O404 1.247 . S
C395 O405 1.272 1_556 S
O396 Co392 2.004 . S
O396 C401 1.259 . S
Co397 O398 2.061 . S
Co397 O403 2.052 . S
Co397 O405 2.135 . S
O398 Co397 2.061 . S
O398 C401 1.235 . S
C399 O402 1.238 . S
C399 O403 1.241 . S
C400 O393 1.247 . S
C400 O394 1.261 . S
C401 O396 1.259 . S
C401 O398 1.235 . S
O402 Co392 2.021 . S
O402 C399 1.238 . S
O403 Co397 2.052 . S
O403 C399 1.241 . S
O404 Co392 2.137 1_556 S
O404 C395 1.247 . S
O405 Co392 2.244 . S
O405 C395 1.272 1_554 S
O405 Co397 2.135 . S
Co406 O407 2.216 . S
Co406 O408 2.091 . S
Co406 O410 2.004 . S
Co406 O416 2.021 . S
Co406 O418 2.137 . S
Co406 O419 2.244 . S
O407 Co406 2.216 . S
O407 C414 1.247 . S
O408 Co406 2.091 . S
O408 C414 1.261 . S
C409 O418 1.247 . S
C409 O419 1.272 . S
O410 Co406 2.004 . S
O410 C415 1.259 . S
Co411 O412 2.061 . S
Co411 O417 2.052 . S
Co411 O419 2.135 . S
O412 Co411 2.061 . S
O412 C415 1.235 . S
C413 O416 1.238 . S
C413 O417 1.241 . S
C414 O407 1.247 . S
C414 O408 1.261 . S
C415 O410 1.259 . S
C415 O412 1.235 . S
O416 Co406 2.021 . S
O416 C413 1.238 . S
O417 Co411 2.052 . S
O417 C413 1.241 . S
O418 Co406 2.137 . S
O418 C409 1.247 . S
O419 Co406 2.244 . S
O419 C409 1.272 . S
O419 Co411 2.135 . S
Co420 O421 2.216 . S
Co420 O422 2.091 . S
Co420 O424 2.004 . S
Co420 O430 2.021 . S
Co420 O432 2.137 . S
Co420 O433 2.244 . S
O421 Co420 2.216 . S
O421 C428 1.247 . S
O422 Co420 2.091 . S
O422 C428 1.261 . S
C423 O432 1.247 . S
C423 O433 1.272 . S
O424 Co420 2.004 . S
O424 C429 1.259 . S
Co425 O426 2.061 . S
Co425 O431 2.052 . S
Co425 O433 2.135 . S
O426 Co425 2.061 . S
O426 C429 1.235 . S
C427 O430 1.238 . S
C427 O431 1.241 . S
C428 O421 1.247 . S
C428 O422 1.261 . S
C429 O424 1.259 . S
C429 O426 1.235 . S
O430 Co420 2.021 . S
O430 C427 1.238 . S
O431 Co425 2.052 . S
O431 C427 1.241 . S
O432 Co420 2.137 . S
O432 C423 1.247 . S
O433 Co420 2.244 . S
O433 C423 1.272 . S
O433 Co425 2.135 . S
Co434 O435 2.216 . S
Co434 O436 2.091 . S
Co434 O438 2.004 . S
Co434 O444 2.021 . S
Co434 O446 2.137 . S
Co434 O447 2.244 . S
O435 Co434 2.216 . S
O435 C442 1.247 . S
O436 Co434 2.091 . S
O436 C442 1.261 . S
C437 O446 1.247 . S
C437 O447 1.272 . S
O438 Co434 2.004 . S
O438 C443 1.259 . S
Co439 O440 2.061 . S
Co439 O445 2.052 . S
Co439 O447 2.135 . S
O440 Co439 2.061 . S
O440 C443 1.235 . S
C441 O444 1.238 . S
C441 O445 1.241 . S
C442 O435 1.247 . S
C442 O436 1.261 . S
C443 O438 1.259 . S
C443 O440 1.235 . S
O444 Co434 2.021 . S
O444 C441 1.238 . S
O445 Co439 2.052 . S
O445 C441 1.241 . S
O446 Co434 2.137 . S
O446 C437 1.247 . S
O447 Co434 2.244 . S
O447 C437 1.272 . S
O447 Co439 2.135 . S
H448 C456 0.950 . S
H449 C461 0.950 . S
H450 C458 0.950 . S
H451 C460 0.950 . S
H452 C462 0.950 . S
H453 C464 0.950 . S
H454 C466 0.950 . S
H455 C467 0.950 . S
C456 H448 0.950 . S
C456 C457 1.386 . S
C456 C458 1.391 . S
C457 C456 1.386 . S
C457 C461 1.393 1_556 S
C458 H450 0.950 . S
C458 C456 1.391 . S
C458 C459 1.400 . S
C459 C458 1.400 . S
C459 C460 1.398 1_556 S
C459 C465 1.491 1_556 S
C460 H451 0.950 . S
C460 C459 1.398 1_554 S
C460 C461 1.391 . S
C461 H449 0.950 . S
C461 C457 1.393 1_554 S
C461 C460 1.391 . S
C462 H452 0.950 . S
C462 C463 1.386 . S
C462 C464 1.391 . S
C463 C462 1.386 . S
C463 C467 1.393 1_554 S
C464 H453 0.950 . S
C464 C462 1.391 . S
C464 C465 1.400 . S
C465 C459 1.491 1_554 S
C465 C464 1.400 . S
C465 C466 1.398 1_554 S
C466 H454 0.950 . S
C466 C465 1.398 1_556 S
C466 C467 1.391 . S
C467 H455 0.950 . S
C467 C463 1.393 1_556 S
C467 C466 1.391 . S
H468 C476 0.950 . S
H469 C481 0.950 . S
H470 C478 0.950 . S
H471 C480 0.950 . S
H472 C482 0.950 . S
H473 C484 0.950 . S
H474 C486 0.950 . S
H475 C487 0.950 . S
C476 H468 0.950 . S
C476 C477 1.386 . S
C476 C478 1.391 . S
C477 C476 1.386 . S
C477 C481 1.393 . S
C478 H470 0.950 . S
C478 C476 1.391 . S
C478 C479 1.400 . S
C479 C478 1.400 . S
C479 C480 1.398 . S
C479 C485 1.491 1_565 S
C480 H471 0.950 . S
C480 C479 1.398 . S
C480 C481 1.391 . S
C481 H469 0.950 . S
C481 C477 1.393 . S
C481 C480 1.391 . S
C482 H472 0.950 . S
C482 C483 1.386 . S
C482 C484 1.391 . S
C483 C482 1.386 . S
C483 C487 1.393 . S
C484 H473 0.950 . S
C484 C482 1.391 . S
C484 C485 1.400 . S
C485 C479 1.491 1_545 S
C485 C484 1.400 . S
C485 C486 1.398 . S
C486 H474 0.950 . S
C486 C485 1.398 . S
C486 C487 1.391 . S
C487 H475 0.950 . S
C487 C483 1.393 . S
C487 C486 1.391 . S
H488 C496 0.950 . S
H489 C501 0.950 . S
H490 C498 0.950 . S
H491 C500 0.950 . S
H492 C502 0.950 . S
H493 C504 0.950 . S
H494 C506 0.950 . S
H495 C507 0.950 . S
C496 H488 0.950 . S
C496 C497 1.386 . S
C496 C498 1.391 . S
C497 C496 1.386 . S
C497 C501 1.393 . S
C498 H490 0.950 . S
C498 C496 1.391 . S
C498 C499 1.400 . S
C499 C498 1.400 . S
C499 C500 1.398 . S
C499 C505 1.491 . S
C500 H491 0.950 . S
C500 C499 1.398 . S
C500 C501 1.391 . S
C501 H489 0.950 . S
C501 C497 1.393 . S
C501 C500 1.391 . S
C502 H492 0.950 . S
C502 C503 1.386 . S
C502 C504 1.391 . S
C503 C502 1.386 . S
C503 C507 1.393 . S
C504 H493 0.950 . S
C504 C502 1.391 . S
C504 C505 1.400 . S
C505 C499 1.491 . S
C505 C504 1.400 . S
C505 C506 1.398 . S
C506 H494 0.950 . S
C506 C505 1.398 . S
C506 C507 1.391 . S
C507 H495 0.950 . S
C507 C503 1.393 . S
C507 C506 1.391 . S
H508 C516 0.950 . S
H509 C521 0.950 . S
H510 C518 0.950 . S
H511 C520 0.950 . S
H512 C522 0.950 . S
H513 C524 0.950 . S
H514 C526 0.950 . S
H515 C527 0.950 . S
C516 H508 0.950 . S
C516 C517 1.386 . S
C516 C518 1.391 . S
C517 C516 1.386 . S
C517 C521 1.393 . S
C518 H510 0.950 . S
C518 C516 1.391 . S
C518 C519 1.400 . S
C519 C518 1.400 . S
C519 C520 1.398 . S
C519 C525 1.491 1_545 S
C520 H511 0.950 . S
C520 C519 1.398 . S
C520 C521 1.391 . S
C521 H509 0.950 . S
C521 C517 1.393 . S
C521 C520 1.391 . S
C522 H512 0.950 . S
C522 C523 1.386 . S
C522 C524 1.391 . S
C523 C522 1.386 . S
C523 C527 1.393 . S
C524 H513 0.950 . S
C524 C522 1.391 . S
C524 C525 1.400 . S
C525 C519 1.491 1_565 S
C525 C524 1.400 . S
C525 C526 1.398 . S
C526 H514 0.950 . S
C526 C525 1.398 . S
C526 C527 1.391 . S
C527 H515 0.950 . S
C527 C523 1.393 . S
C527 C526 1.391 . S
H528 C536 0.950 . S
H529 C541 0.950 . S
H530 C538 0.950 . S
H531 C540 0.950 . S
H532 C542 0.950 . S
H533 C544 0.950 . S
H534 C546 0.950 . S
H535 C547 0.950 . S
C536 H528 0.950 . S
C536 C537 1.386 . S
C536 C538 1.391 . S
C537 C536 1.386 . S
C537 C541 1.393 1_554 S
C538 H530 0.950 . S
C538 C536 1.391 . S
C538 C539 1.400 . S
C539 C538 1.400 . S
C539 C540 1.398 1_554 S
C539 C545 1.491 1_554 S
C540 H531 0.950 . S
C540 C539 1.398 1_556 S
C540 C541 1.391 . S
C541 H529 0.950 . S
C541 C537 1.393 1_556 S
C541 C540 1.391 . S
C542 H532 0.950 . S
C542 C543 1.386 . S
C542 C544 1.391 . S
C543 C542 1.386 . S
C543 C547 1.393 1_556 S
C544 H533 0.950 . S
C544 C542 1.391 . S
C544 C545 1.400 . S
C545 C539 1.491 1_556 S
C545 C544 1.400 . S
C545 C546 1.398 1_556 S
C546 H534 0.950 . S
C546 C545 1.398 1_554 S
C546 C547 1.391 . S
C547 H535 0.950 . S
C547 C543 1.393 1_554 S
C547 C546 1.391 . S
H548 C556 0.950 . S
H549 C561 0.950 . S
H550 C558 0.950 . S
H551 C560 0.950 . S
H552 C562 0.950 . S
H553 C564 0.950 . S
H554 C566 0.950 . S
H555 C567 0.950 . S
C556 H548 0.950 . S
C556 C557 1.386 . S
C556 C558 1.391 . S
C557 C556 1.386 . S
C557 C561 1.393 . S
C558 H550 0.950 . S
C558 C556 1.391 . S
C558 C559 1.400 . S
C559 C558 1.400 . S
C559 C560 1.398 . S
C559 C565 1.491 1_565 S
C560 H551 0.950 . S
C560 C559 1.398 . S
C560 C561 1.391 . S
C561 H549 0.950 . S
C561 C557 1.393 . S
C561 C560 1.391 . S
C562 H552 0.950 . S
C562 C563 1.386 . S
C562 C564 1.391 . S
C563 C562 1.386 . S
C563 C567 1.393 . S
C564 H553 0.950 . S
C564 C562 1.391 . S
C564 C565 1.400 . S
C565 C559 1.491 1_545 S
C565 C564 1.400 . S
C565 C566 1.398 . S
C566 H554 0.950 . S
C566 C565 1.398 . S
C566 C567 1.391 . S
C567 H555 0.950 . S
C567 C563 1.393 . S
C567 C566 1.391 . S
H568 C576 0.950 . S
H569 C581 0.950 . S
H570 C578 0.950 . S
H571 C580 0.950 . S
H572 C582 0.950 . S
H573 C584 0.950 . S
H574 C586 0.950 . S
H575 C587 0.950 . S
C576 H568 0.950 . S
C576 C577 1.386 . S
C576 C578 1.391 . S
C577 C576 1.386 . S
C577 C581 1.393 . S
C578 H570 0.950 . S
C578 C576 1.391 . S
C578 C579 1.400 . S
C579 C578 1.400 . S
C579 C580 1.398 . S
C579 C585 1.491 . S
C580 H571 0.950 . S
C580 C579 1.398 . S
C580 C581 1.391 . S
C581 H569 0.950 . S
C581 C577 1.393 . S
C581 C580 1.391 . S
C582 H572 0.950 . S
C582 C583 1.386 . S
C582 C584 1.391 . S
C583 C582 1.386 . S
C583 C587 1.393 . S
C584 H573 0.950 . S
C584 C582 1.391 . S
C584 C585 1.400 . S
C585 C579 1.491 . S
C585 C584 1.400 . S
C585 C586 1.398 . S
C586 H574 0.950 . S
C586 C585 1.398 . S
C586 C587 1.391 . S
C587 H575 0.950 . S
C587 C583 1.393 . S
C587 C586 1.391 . S
H588 C596 0.950 . S
H589 C601 0.950 . S
H590 C598 0.950 . S
H591 C600 0.950 . S
H592 C602 0.950 . S
H593 C604 0.950 . S
H594 C606 0.950 . S
H595 C607 0.950 . S
C596 H588 0.950 . S
C596 C597 1.386 . S
C596 C598 1.391 . S
C597 C596 1.386 . S
C597 C601 1.393 . S
C598 H590 0.950 . S
C598 C596 1.391 . S
C598 C599 1.400 . S
C599 C598 1.400 . S
C599 C600 1.398 . S
C599 C605 1.491 1_565 S
C600 H591 0.950 . S
C600 C599 1.398 . S
C600 C601 1.391 . S
C601 H589 0.950 . S
C601 C597 1.393 . S
C601 C600 1.391 . S
C602 H592 0.950 . S
C602 C603 1.386 . S
C602 C604 1.391 . S
C603 C602 1.386 . S
C603 C607 1.393 . S
C604 H593 0.950 . S
C604 C602 1.391 . S
C604 C605 1.400 . S
C605 C599 1.491 1_545 S
C605 C604 1.400 . S
C605 C606 1.398 . S
C606 H594 0.950 . S
C606 C605 1.398 . S
C606 C607 1.391 . S
C607 H595 0.950 . S
C607 C603 1.393 . S
C607 C606 1.391 . S
H608 C616 0.950 . S
H609 C621 0.950 . S
H610 C618 0.950 . S
H611 C620 0.950 . S
H612 C622 0.950 . S
H613 C624 0.950 . S
H614 C626 0.950 . S
H615 C627 0.950 . S
C616 H608 0.950 . S
C616 C617 1.386 . S
C616 C618 1.391 . S
C617 C616 1.386 . S
C617 C621 1.393 . S
C618 H610 0.950 . S
C618 C616 1.391 . S
C618 C619 1.400 . S
C619 C618 1.400 . S
C619 C620 1.398 . S
C619 C625 1.491 . S
C620 H611 0.950 . S
C620 C619 1.398 . S
C620 C621 1.391 . S
C621 H609 0.950 . S
C621 C617 1.393 . S
C621 C620 1.391 . S
C622 H612 0.950 . S
C622 C623 1.386 . S
C622 C624 1.391 . S
C623 C622 1.386 . S
C623 C627 1.393 . S
C624 H613 0.950 . S
C624 C622 1.391 . S
C624 C625 1.400 . S
C625 C619 1.491 . S
C625 C624 1.400 . S
C625 C626 1.398 . S
C626 H614 0.950 . S
C626 C625 1.398 . S
C626 C627 1.391 . S
C627 H615 0.950 . S
C627 C623 1.393 . S
C627 C626 1.391 . S
H628 C636 0.950 . S
H629 C641 0.950 . S
H630 C638 0.950 . S
H631 C640 0.950 . S
H632 C642 0.950 . S
H633 C644 0.950 . S
H634 C646 0.950 . S
H635 C647 0.950 . S
C636 H628 0.950 . S
C636 C637 1.386 . S
C636 C638 1.391 . S
C637 C636 1.386 . S
C637 C641 1.393 . S
C638 H630 0.950 . S
C638 C636 1.391 . S
C638 C639 1.400 . S
C639 C638 1.400 . S
C639 C640 1.398 . S
C639 C645 1.491 . S
C640 H631 0.950 . S
C640 C639 1.398 . S
C640 C641 1.391 . S
C641 H629 0.950 . S
C641 C637 1.393 . S
C641 C640 1.391 . S
C642 H632 0.950 . S
C642 C643 1.386 . S
C642 C644 1.391 . S
C643 C642 1.386 . S
C643 C647 1.393 . S
C644 H633 0.950 . S
C644 C642 1.391 . S
C644 C645 1.400 . S
C645 C639 1.491 . S
C645 C644 1.400 . S
C645 C646 1.398 . S
C646 H634 0.950 . S
C646 C645 1.398 . S
C646 C647 1.391 . S
C647 H635 0.950 . S
C647 C643 1.393 . S
C647 C646 1.391 . S
H648 C656 0.950 . S
H649 C661 0.950 . S
H650 C658 0.950 . S
H651 C660 0.950 . S
H652 C662 0.950 . S
H653 C664 0.950 . S
H654 C666 0.950 . S
H655 C667 0.950 . S
C656 H648 0.950 . S
C656 C657 1.386 . S
C656 C658 1.391 . S
C657 C656 1.386 . S
C657 C661 1.393 1_556 S
C658 H650 0.950 . S
C658 C656 1.391 . S
C658 C659 1.400 . S
C659 C658 1.400 . S
C659 C660 1.398 1_556 S
C659 C665 1.491 1_556 S
C660 H651 0.950 . S
C660 C659 1.398 1_554 S
C660 C661 1.391 . S
C661 H649 0.950 . S
C661 C657 1.393 1_554 S
C661 C660 1.391 . S
C662 H652 0.950 . S
C662 C663 1.386 . S
C662 C664 1.391 . S
C663 C662 1.386 . S
C663 C667 1.393 1_554 S
C664 H653 0.950 . S
C664 C662 1.391 . S
C664 C665 1.400 . S
C665 C659 1.491 1_554 S
C665 C664 1.400 . S
C665 C666 1.398 1_554 S
C666 H654 0.950 . S
C666 C665 1.398 1_556 S
C666 C667 1.391 . S
C667 H655 0.950 . S
C667 C663 1.393 1_556 S
C667 C666 1.391 . S
H668 C676 0.950 . S
H669 C681 0.950 . S
H670 C678 0.950 . S
H671 C680 0.950 . S
H672 C682 0.950 . S
H673 C684 0.950 . S
H674 C686 0.950 . S
H675 C687 0.950 . S
C676 H668 0.950 . S
C676 C677 1.386 . S
C676 C678 1.391 . S
C677 C676 1.386 . S
C677 C681 1.393 . S
C678 H670 0.950 . S
C678 C676 1.391 . S
C678 C679 1.400 . S
C679 C678 1.400 . S
C679 C680 1.398 . S
C679 C685 1.491 . S
C680 H671 0.950 . S
C680 C679 1.398 . S
C680 C681 1.391 . S
C681 H669 0.950 . S
C681 C677 1.393 . S
C681 C680 1.391 . S
C682 H672 0.950 . S
C682 C683 1.386 . S
C682 C684 1.391 . S
C683 C682 1.386 . S
C683 C687 1.393 . S
C684 H673 0.950 . S
C684 C682 1.391 . S
C684 C685 1.400 . S
C685 C679 1.491 . S
C685 C684 1.400 . S
C685 C686 1.398 . S
C686 H674 0.950 . S
C686 C685 1.398 . S
C686 C687 1.391 . S
C687 H675 0.950 . S
C687 C683 1.393 . S
C687 C686 1.391 . S
H688 C696 0.950 . S
H689 C701 0.950 . S
H690 C698 0.950 . S
H691 C700 0.950 . S
H692 C702 0.950 . S
H693 C704 0.950 . S
H694 C706 0.950 . S
H695 C707 0.950 . S
C696 H688 0.950 . S
C696 C697 1.386 . S
C696 C698 1.391 . S
C697 C696 1.386 . S
C697 C701 1.393 . S
C698 H690 0.950 . S
C698 C696 1.391 . S
C698 C699 1.400 . S
C699 C698 1.400 . S
C699 C700 1.398 . S
C699 C705 1.491 . S
C700 H691 0.950 . S
C700 C699 1.398 . S
C700 C701 1.391 . S
C701 H689 0.950 . S
C701 C697 1.393 . S
C701 C700 1.391 . S
C702 H692 0.950 . S
C702 C703 1.386 . S
C702 C704 1.391 . S
C703 C702 1.386 . S
C703 C707 1.393 . S
C704 H693 0.950 . S
C704 C702 1.391 . S
C704 C705 1.400 . S
C705 C699 1.491 . S
C705 C704 1.400 . S
C705 C706 1.398 . S
C706 H694 0.950 . S
C706 C705 1.398 . S
C706 C707 1.391 . S
C707 H695 0.950 . S
C707 C703 1.393 . S
C707 C706 1.391 . S
H708 C716 0.950 . S
H709 C721 0.950 . S
H710 C718 0.950 . S
H711 C720 0.950 . S
H712 C722 0.950 . S
H713 C724 0.950 . S
H714 C726 0.950 . S
H715 C727 0.950 . S
C716 H708 0.950 . S
C716 C717 1.386 . S
C716 C718 1.391 . S
C717 C716 1.386 . S
C717 C721 1.393 . S
C718 H710 0.950 . S
C718 C716 1.391 . S
C718 C719 1.400 . S
C719 C718 1.400 . S
C719 C720 1.398 . S
C719 C725 1.491 . S
C720 H711 0.950 . S
C720 C719 1.398 . S
C720 C721 1.391 . S
C721 H709 0.950 . S
C721 C717 1.393 . S
C721 C720 1.391 . S
C722 H712 0.950 . S
C722 C723 1.386 . S
C722 C724 1.391 . S
C723 C722 1.386 . S
C723 C727 1.393 . S
C724 H713 0.950 . S
C724 C722 1.391 . S
C724 C725 1.400 . S
C725 C719 1.491 . S
C725 C724 1.400 . S
C725 C726 1.398 . S
C726 H714 0.950 . S
C726 C725 1.398 . S
C726 C727 1.391 . S
C727 H715 0.950 . S
C727 C723 1.393 . S
C727 C726 1.391 . S
H728 C736 0.950 . S
H729 C741 0.950 . S
H730 C738 0.950 . S
H731 C740 0.950 . S
H732 C742 0.950 . S
H733 C744 0.950 . S
H734 C746 0.950 . S
H735 C747 0.950 . S
C736 H728 0.950 . S
C736 C737 1.386 1_556 S
C736 C738 1.391 . S
C737 C736 1.386 1_554 S
C737 C741 1.393 . S
C738 H730 0.950 . S
C738 C736 1.391 . S
C738 C739 1.400 1_556 S
C739 C738 1.400 1_554 S
C739 C740 1.398 . S
C739 C745 1.491 1_554 S
C740 H731 0.950 . S
C740 C739 1.398 . S
C740 C741 1.391 . S
C741 H729 0.950 . S
C741 C737 1.393 . S
C741 C740 1.391 . S
C742 H732 0.950 . S
C742 C743 1.386 1_554 S
C742 C744 1.391 . S
C743 C742 1.386 1_556 S
C743 C747 1.393 . S
C744 H733 0.950 . S
C744 C742 1.391 . S
C744 C745 1.400 1_554 S
C745 C739 1.491 1_556 S
C745 C744 1.400 1_556 S
C745 C746 1.398 . S
C746 H734 0.950 . S
C746 C745 1.398 . S
C746 C747 1.391 . S
C747 H735 0.950 . S
C747 C743 1.393 . S
C747 C746 1.391 . S
H748 C756 0.950 . S
H749 C761 0.950 . S
H750 C758 0.950 . S
H751 C760 0.950 . S
H752 C762 0.950 . S
H753 C764 0.950 . S
H754 C766 0.950 . S
H755 C767 0.950 . S
C756 H748 0.950 . S
C756 C757 1.386 . S
C756 C758 1.391 . S
C757 C756 1.386 . S
C757 C761 1.393 . S
C758 H750 0.950 . S
C758 C756 1.391 . S
C758 C759 1.400 . S
C759 C758 1.400 . S
C759 C760 1.398 . S
C759 C765 1.491 . S
C760 H751 0.950 . S
C760 C759 1.398 . S
C760 C761 1.391 . S
C761 H749 0.950 . S
C761 C757 1.393 . S
C761 C760 1.391 . S
C762 H752 0.950 . S
C762 C763 1.386 . S
C762 C764 1.391 . S
C763 C762 1.386 . S
C763 C767 1.393 . S
C764 H753 0.950 . S
C764 C762 1.391 . S
C764 C765 1.400 . S
C765 C759 1.491 . S
C765 C764 1.400 . S
C765 C766 1.398 . S
C766 H754 0.950 . S
C766 C765 1.398 . S
C766 C767 1.391 . S
C767 H755 0.950 . S
C767 C763 1.393 . S
C767 C766 1.391 . S
H768 C776 0.950 . S
H769 C781 0.950 . S
H770 C778 0.950 . S
H771 C780 0.950 . S
H772 C782 0.950 . S
H773 C784 0.950 . S
H774 C786 0.950 . S
H775 C787 0.950 . S
C776 H768 0.950 . S
C776 C777 1.386 . S
C776 C778 1.391 . S
C777 C776 1.386 . S
C777 C781 1.393 . S
C778 H770 0.950 . S
C778 C776 1.391 . S
C778 C779 1.400 . S
C779 C778 1.400 . S
C779 C780 1.398 . S
C779 C785 1.491 . S
C780 H771 0.950 . S
C780 C779 1.398 . S
C780 C781 1.391 . S
C781 H769 0.950 . S
C781 C777 1.393 . S
C781 C780 1.391 . S
C782 H772 0.950 . S
C782 C783 1.386 . S
C782 C784 1.391 . S
C783 C782 1.386 . S
C783 C787 1.393 . S
C784 H773 0.950 . S
C784 C782 1.391 . S
C784 C785 1.400 . S
C785 C779 1.491 . S
C785 C784 1.400 . S
C785 C786 1.398 . S
C786 H774 0.950 . S
C786 C785 1.398 . S
C786 C787 1.391 . S
C787 H775 0.950 . S
C787 C783 1.393 . S
C787 C786 1.391 . S
H788 C796 0.950 . S
H789 C801 0.950 . S
H790 C798 0.950 . S
H791 C800 0.950 1_554 S
H792 C802 0.950 . S
H793 C804 0.950 . S
H794 C806 0.956 . S
H795 C807 0.950 . S
C796 H788 0.950 . S
C796 C797 1.386 . S
C796 C798 1.391 1_556 S
C797 C796 1.386 . S
C797 C801 1.393 . S
C798 H790 0.950 . S
C798 C796 1.391 1_554 S
C798 C799 1.400 . S
C799 C798 1.400 . S
C799 C800 1.398 1_454 S
C799 C805 1.491 1_455 S
C800 H791 0.950 1_556 S
C800 C799 1.398 1_656 S
C800 C801 1.391 1_655 S
C801 H789 0.950 . S
C801 C797 1.393 . S
C801 C800 1.391 1_455 S
C802 H792 0.950 . S
C802 C803 1.386 . S
C802 C804 1.391 . S
C803 C802 1.386 . S
C803 C807 1.393 . S
C804 H793 0.950 . S
C804 C802 1.391 . S
C804 C805 1.400 . S
C805 C799 1.491 1_655 S
C805 C804 1.400 . S
C805 C806 1.396 1_655 S
C806 H794 0.956 . S
C806 C805 1.396 1_455 S
C806 C807 1.387 1_455 S
C807 H795 0.950 . S
C807 C803 1.393 . S
C807 C806 1.387 1_655 S
H808 C816 0.950 . S
H809 C821 0.950 . S
H810 C818 0.950 . S
H811 C820 0.950 . S
H812 C822 0.950 . S
H813 C824 0.950 . S
H814 C826 0.950 . S
H815 C827 0.950 . S
C816 H808 0.950 . S
C816 C817 1.386 . S
C816 C818 1.391 . S
C817 C816 1.386 . S
C817 C821 1.393 . S
C818 H810 0.950 . S
C818 C816 1.391 . S
C818 C819 1.400 . S
C819 C818 1.400 . S
C819 C820 1.398 . S
C819 C825 1.491 . S
C820 H811 0.950 . S
C820 C819 1.398 . S
C820 C821 1.391 . S
C821 H809 0.950 . S
C821 C817 1.393 . S
C821 C820 1.391 . S
C822 H812 0.950 . S
C822 C823 1.386 . S
C822 C824 1.391 . S
C823 C822 1.386 . S
C823 C827 1.393 . S
C824 H813 0.950 . S
C824 C822 1.391 . S
C824 C825 1.400 . S
C825 C819 1.491 . S
C825 C824 1.400 . S
C825 C826 1.398 . S
C826 H814 0.950 . S
C826 C825 1.398 . S
C826 C827 1.391 . S
C827 H815 0.950 . S
C827 C823 1.393 . S
C827 C826 1.391 . S
H828 C836 0.950 . S
H829 C841 0.950 . S
H830 C838 0.950 . S
H831 C840 0.950 . S
H832 C842 0.950 . S
H833 C844 0.950 . S
H834 C846 0.950 . S
H835 C847 0.950 . S
C836 H828 0.950 . S
C836 C837 1.386 . S
C836 C838 1.391 . S
C837 C836 1.386 . S
C837 C841 1.393 . S
C838 H830 0.950 . S
C838 C836 1.391 . S
C838 C839 1.400 . S
C839 C838 1.400 . S
C839 C840 1.398 . S
C839 C845 1.491 . S
C840 H831 0.950 . S
C840 C839 1.398 . S
C840 C841 1.391 . S
C841 H829 0.950 . S
C841 C837 1.393 . S
C841 C840 1.391 . S
C842 H832 0.950 . S
C842 C843 1.386 . S
C842 C844 1.391 . S
C843 C842 1.386 . S
C843 C847 1.393 . S
C844 H833 0.950 . S
C844 C842 1.391 . S
C844 C845 1.400 . S
C845 C839 1.491 . S
C845 C844 1.400 . S
C845 C846 1.398 . S
C846 H834 0.950 . S
C846 C845 1.398 . S
C846 C847 1.391 . S
C847 H835 0.950 . S
C847 C843 1.393 . S
C847 C846 1.391 . S
H848 C856 0.950 . S
H849 C861 0.950 . S
H850 C858 0.950 . S
H851 C860 0.950 . S
H852 C862 0.950 . S
H853 C864 0.950 . S
H854 C866 0.950 . S
H855 C867 0.950 . S
C856 H848 0.950 . S
C856 C857 1.386 . S
C856 C858 1.391 . S
C857 C856 1.386 . S
C857 C861 1.393 . S
C858 H850 0.950 . S
C858 C856 1.391 . S
C858 C859 1.400 . S
C859 C858 1.400 . S
C859 C860 1.398 . S
C859 C865 1.491 . S
C860 H851 0.950 . S
C860 C859 1.398 . S
C860 C861 1.391 . S
C861 H849 0.950 . S
C861 C857 1.393 . S
C861 C860 1.391 . S
C862 H852 0.950 . S
C862 C863 1.386 . S
C862 C864 1.391 . S
C863 C862 1.386 . S
C863 C867 1.393 . S
C864 H853 0.950 . S
C864 C862 1.391 . S
C864 C865 1.400 . S
C865 C859 1.491 . S
C865 C864 1.400 . S
C865 C866 1.398 . S
C866 H854 0.950 . S
C866 C865 1.398 . S
C866 C867 1.391 . S
C867 H855 0.950 . S
C867 C863 1.393 . S
C867 C866 1.391 . S
H868 C876 0.950 . S
H869 C881 0.950 . S
H870 C878 0.950 . S
H871 C880 0.950 . S
H872 C882 0.950 . S
H873 C884 0.950 . S
H874 C886 0.950 . S
H875 C887 0.950 . S
C876 H868 0.950 . S
C876 C877 1.386 . S
C876 C878 1.391 1_554 S
C877 C876 1.386 . S
C877 C881 1.393 . S
C878 H870 0.950 . S
C878 C876 1.391 1_556 S
C878 C879 1.400 . S
C879 C878 1.400 . S
C879 C880 1.398 1_556 S
C879 C885 1.491 . S
C880 H871 0.950 . S
C880 C879 1.398 1_554 S
C880 C881 1.391 . S
C881 H869 0.950 . S
C881 C877 1.393 . S
C881 C880 1.391 . S
C882 H872 0.950 . S
C882 C883 1.386 . S
C882 C884 1.391 . S
C883 C882 1.386 . S
C883 C887 1.393 . S
C884 H873 0.950 . S
C884 C882 1.391 . S
C884 C885 1.400 . S
C885 C879 1.491 . S
C885 C884 1.400 . S
C885 C886 1.398 . S
C886 H874 0.950 . S
C886 C885 1.398 . S
C886 C887 1.391 . S
C887 H875 0.950 . S
C887 C883 1.393 . S
C887 C886 1.391 . S
H888 C896 0.950 . S
H889 C901 0.950 . S
H890 C898 0.950 . S
H891 C900 0.950 . S
H892 C902 0.950 . S
H893 C904 0.950 . S
H894 C906 0.950 . S
H895 C907 0.950 . S
C896 H888 0.950 . S
C896 C897 1.386 . S
C896 C898 1.391 . S
C897 C896 1.386 . S
C897 C901 1.393 . S
C898 H890 0.950 . S
C898 C896 1.391 . S
C898 C899 1.400 . S
C899 C898 1.400 . S
C899 C900 1.398 . S
C899 C905 1.491 . S
C900 H891 0.950 . S
C900 C899 1.398 . S
C900 C901 1.391 . S
C901 H889 0.950 . S
C901 C897 1.393 . S
C901 C900 1.391 . S
C902 H892 0.950 . S
C902 C903 1.386 . S
C902 C904 1.391 . S
C903 C902 1.386 . S
C903 C907 1.393 . S
C904 H893 0.950 . S
C904 C902 1.391 . S
C904 C905 1.400 . S
C905 C899 1.491 . S
C905 C904 1.400 . S
C905 C906 1.398 . S
C906 H894 0.950 . S
C906 C905 1.398 . S
C906 C907 1.391 . S
C907 H895 0.950 . S
C907 C903 1.393 . S
C907 C906 1.391 . S
H908 C916 0.950 1_655 S
H909 C921 0.950 . S
H910 C918 0.950 . S
H911 C920 0.950 . S
H912 C922 0.950 1_455 S
H913 C924 0.950 . S
H914 C926 0.950 . S
H915 C927 0.950 . S
C916 H908 0.950 1_455 S
C916 C917 1.386 . S
C916 C918 1.391 1_455 S
C917 C916 1.386 . S
C917 C921 1.393 . S
C918 H910 0.950 . S
C918 C916 1.391 1_655 S
C918 C919 1.400 1_655 S
C919 C918 1.400 1_455 S
C919 C920 1.398 . S
C919 C925 1.491 1_455 S
C920 H911 0.950 . S
C920 C919 1.398 . S
C920 C921 1.391 . S
C921 H909 0.950 . S
C921 C917 1.393 . S
C921 C920 1.391 . S
C922 H912 0.950 1_655 S
C922 C923 1.386 . S
C922 C924 1.391 1_655 S
C923 C922 1.386 . S
C923 C927 1.393 . S
C924 H913 0.950 . S
C924 C922 1.391 1_455 S
C924 C925 1.400 1_455 S
C925 C919 1.491 1_655 S
C925 C924 1.400 1_655 S
C925 C926 1.398 . S
C926 H914 0.950 . S
C926 C925 1.398 . S
C926 C927 1.391 . S
C927 H915 0.950 . S
C927 C923 1.393 . S
C927 C926 1.391 . S
H928 C936 0.950 . S
H929 C941 0.950 . S
H930 C938 0.950 . S
H931 C940 0.950 . S
H932 C942 0.950 . S
H933 C944 0.950 . S
H934 C946 0.950 . S
H935 C947 0.950 . S
C936 H928 0.950 . S
C936 C937 1.386 . S
C936 C938 1.391 . S
C937 C936 1.386 . S
C937 C941 1.393 . S
C938 H930 0.950 . S
C938 C936 1.391 . S
C938 C939 1.400 . S
C939 C938 1.400 . S
C939 C940 1.398 . S
C939 C945 1.491 . S
C940 H931 0.950 . S
C940 C939 1.398 . S
C940 C941 1.391 . S
C941 H929 0.950 . S
C941 C937 1.393 . S
C941 C940 1.391 . S
C942 H932 0.950 . S
C942 C943 1.386 . S
C942 C944 1.391 . S
C943 C942 1.386 . S
C943 C947 1.393 . S
C944 H933 0.950 . S
C944 C942 1.391 . S
C944 C945 1.400 . S
C945 C939 1.491 . S
C945 C944 1.400 . S
C945 C946 1.398 . S
C946 H934 0.950 . S
C946 C945 1.398 . S
C946 C947 1.391 . S
C947 H935 0.950 . S
C947 C943 1.393 . S
C947 C946 1.391 . S
H948 C956 0.950 . S
H949 C961 0.950 . S
H950 C958 0.929 1_455 S
H951 C960 0.950 . S
H952 C962 0.950 . S
H953 C964 0.950 . S
H954 C966 0.950 . S
H955 C967 0.950 . S
C956 H948 0.950 . S
C956 C957 1.386 . S
C956 C958 1.391 1_554 S
C957 C956 1.386 . S
C957 C961 1.393 . S
C958 H950 0.929 1_655 S
C958 C956 1.391 1_556 S
C958 C959 1.400 . S
C959 C958 1.400 . S
C959 C960 1.398 . S
C959 C965 1.491 1_655 S
C960 H951 0.950 . S
C960 C959 1.398 . S
C960 C961 1.391 1_556 S
C961 H949 0.950 . S
C961 C957 1.393 . S
C961 C960 1.391 1_554 S
C962 H952 0.950 . S
C962 C963 1.386 . S
C962 C964 1.391 . S
C963 C962 1.386 . S
C963 C967 1.393 . S
C964 H953 0.950 . S
C964 C962 1.391 . S
C964 C965 1.400 . S
C965 C959 1.491 1_455 S
C965 C964 1.400 . S
C965 C966 1.398 . S
C966 H954 0.950 . S
C966 C965 1.398 . S
C966 C967 1.391 . S
C967 H955 0.950 . S
C967 C963 1.393 . S
C967 C966 1.391 . S
H968 C976 0.950 . S
H969 C981 0.950 . S
H970 C978 0.950 . S
H971 C980 0.950 . S
H972 C982 0.950 . S
H973 C984 0.950 . S
H974 C986 0.950 . S
H975 C987 0.950 . S
C976 H968 0.950 . S
C976 C977 1.386 . S
C976 C978 1.391 . S
C977 C976 1.386 . S
C977 C981 1.393 . S
C978 H970 0.950 . S
C978 C976 1.391 . S
C978 C979 1.400 . S
C979 C978 1.400 . S
C979 C980 1.398 . S
C979 C985 1.491 . S
C980 H971 0.950 . S
C980 C979 1.398 . S
C980 C981 1.391 . S
C981 H969 0.950 . S
C981 C977 1.393 . S
C981 C980 1.391 . S
C982 H972 0.950 . S
C982 C983 1.386 . S
C982 C984 1.391 . S
C983 C982 1.386 . S
C983 C987 1.393 . S
C984 H973 0.950 . S
C984 C982 1.391 . S
C984 C985 1.400 . S
C985 C979 1.491 . S
C985 C984 1.400 . S
C985 C986 1.398 . S
C986 H974 0.950 . S
C986 C985 1.398 . S
C986 C987 1.391 . S
C987 H975 0.950 . S
C987 C983 1.393 . S
C987 C986 1.391 . S
H988 C996 0.950 . S
H989 C1001 0.950 . S
H990 C998 0.950 . S
H991 C1000 0.950 . S
H992 C1002 0.950 . S
H993 C1004 0.950 . S
H994 C1006 0.950 . S
H995 C1007 0.950 . S
C996 H988 0.950 . S
C996 C997 1.386 . S
C996 C998 1.391 . S
C997 C996 1.386 . S
C997 C1001 1.393 . S
C998 H990 0.950 . S
C998 C996 1.391 . S
C998 C999 1.400 . S
C999 C998 1.400 . S
C999 C1000 1.398 . S
C999 C1005 1.491 . S
C1000 H991 0.950 . S
C1000 C999 1.398 . S
C1000 C1001 1.391 . S
C1001 H989 0.950 . S
C1001 C997 1.393 . S
C1001 C1000 1.391 . S
C1002 H992 0.950 . S
C1002 C1003 1.386 . S
C1002 C1004 1.391 . S
C1003 C1002 1.386 . S
C1003 C1007 1.393 . S
C1004 H993 0.950 . S
C1004 C1002 1.391 . S
C1004 C1005 1.400 . S
C1005 C999 1.491 . S
C1005 C1004 1.400 . S
C1005 C1006 1.398 . S
C1006 H994 0.950 . S
C1006 C1005 1.398 . S
C1006 C1007 1.391 . S
C1007 H995 0.950 . S
C1007 C1003 1.393 . S
C1007 C1006 1.391 . S
H1008 C1016 0.950 . S
H1009 C1021 0.950 . S
H1010 C1018 0.950 . S
H1011 C1020 0.950 . S
H1012 C1022 0.950 . S
H1013 C1024 0.950 . S
H1014 C1026 0.950 . S
H1015 C1027 0.950 . S
C1016 H1008 0.950 . S
C1016 C1017 1.386 . S
C1016 C1018 1.391 . S
C1017 C1016 1.386 . S
C1017 C1021 1.393 . S
C1018 H1010 0.950 . S
C1018 C1016 1.391 . S
C1018 C1019 1.400 . S
C1019 C1018 1.400 . S
C1019 C1020 1.398 . S
C1019 C1025 1.491 . S
C1020 H1011 0.950 . S
C1020 C1019 1.398 . S
C1020 C1021 1.391 . S
C1021 H1009 0.950 . S
C1021 C1017 1.393 . S
C1021 C1020 1.391 . S
C1022 H1012 0.950 . S
C1022 C1023 1.386 . S
C1022 C1024 1.391 . S
C1023 C1022 1.386 . S
C1023 C1027 1.393 . S
C1024 H1013 0.950 . S
C1024 C1022 1.391 . S
C1024 C1025 1.400 . S
C1025 C1019 1.491 . S
C1025 C1024 1.400 . S
C1025 C1026 1.398 . S
C1026 H1014 0.950 . S
C1026 C1025 1.398 . S
C1026 C1027 1.391 . S
C1027 H1015 0.950 . S
C1027 C1023 1.393 . S
C1027 C1026 1.391 . S
H1028 C1036 0.950 . S
H1029 C1041 0.950 . S
H1030 C1038 0.950 . S
H1031 C1040 0.950 . S
H1032 C1042 0.950 . S
H1033 C1044 0.950 . S
H1034 C1046 0.950 . S
H1035 C1047 0.950 . S
C1036 H1028 0.950 . S
C1036 C1037 1.386 . S
C1036 C1038 1.391 . S
C1037 C1036 1.386 . S
C1037 C1041 1.393 . S
C1038 H1030 0.950 . S
C1038 C1036 1.391 . S
C1038 C1039 1.400 . S
C1039 C1038 1.400 . S
C1039 C1040 1.398 . S
C1039 C1045 1.491 . S
C1040 H1031 0.950 . S
C1040 C1039 1.398 . S
C1040 C1041 1.391 . S
C1041 H1029 0.950 . S
C1041 C1037 1.393 . S
C1041 C1040 1.391 . S
C1042 H1032 0.950 . S
C1042 C1043 1.386 . S
C1042 C1044 1.391 1_556 S
C1043 C1042 1.386 . S
C1043 C1047 1.393 . S
C1044 H1033 0.950 . S
C1044 C1042 1.391 1_554 S
C1044 C1045 1.400 . S
C1045 C1039 1.491 . S
C1045 C1044 1.400 . S
C1045 C1046 1.398 1_554 S
C1046 H1034 0.950 . S
C1046 C1045 1.398 1_556 S
C1046 C1047 1.391 . S
C1047 H1035 0.950 . S
C1047 C1043 1.393 . S
C1047 C1046 1.391 . S
H1048 C1056 0.950 . S
H1049 C1061 0.950 . S
H1050 C1058 0.950 . S
H1051 C1060 0.950 . S
H1052 C1062 0.950 . S
H1053 C1064 0.950 . S
H1054 C1066 0.950 . S
H1055 C1067 0.950 . S
C1056 H1048 0.950 . S
C1056 C1057 1.386 . S
C1056 C1058 1.391 . S
C1057 C1056 1.386 . S
C1057 C1061 1.393 . S
C1058 H1050 0.950 . S
C1058 C1056 1.391 . S
C1058 C1059 1.400 . S
C1059 C1058 1.400 . S
C1059 C1060 1.398 . S
C1059 C1065 1.491 . S
C1060 H1051 0.950 . S
C1060 C1059 1.398 . S
C1060 C1061 1.391 . S
C1061 H1049 0.950 . S
C1061 C1057 1.393 . S
C1061 C1060 1.391 . S
C1062 H1052 0.950 . S
C1062 C1063 1.386 . S
C1062 C1064 1.391 . S
C1063 C1062 1.386 . S
C1063 C1067 1.393 . S
C1064 H1053 0.950 . S
C1064 C1062 1.391 . S
C1064 C1065 1.400 . S
C1065 C1059 1.491 . S
C1065 C1064 1.400 . S
C1065 C1066 1.398 . S
C1066 H1054 0.950 . S
C1066 C1065 1.398 . S
C1066 C1067 1.391 . S
C1067 H1055 0.950 . S
C1067 C1063 1.393 . S
C1067 C1066 1.391 . S
H1068 C1076 0.950 . S
H1069 C1081 0.950 . S
H1070 C1078 0.950 . S
H1071 C1080 0.950 . S
H1072 C1082 0.950 . S
H1073 C1084 0.950 . S
H1074 C1086 0.950 . S
H1075 C1087 0.950 . S
C1076 H1068 0.950 . S
C1076 C1077 1.386 . S
C1076 C1078 1.391 . S
C1077 C1076 1.386 . S
C1077 C1081 1.393 . S
C1078 H1070 0.950 . S
C1078 C1076 1.391 . S
C1078 C1079 1.400 . S
C1079 C1078 1.400 . S
C1079 C1080 1.398 . S
C1079 C1085 1.491 1_655 S
C1080 H1071 0.950 . S
C1080 C1079 1.398 . S
C1080 C1081 1.391 . S
C1081 H1069 0.950 . S
C1081 C1077 1.393 . S
C1081 C1080 1.391 . S
C1082 H1072 0.950 . S
C1082 C1083 1.386 . S
C1082 C1084 1.391 . S
C1083 C1082 1.386 . S
C1083 C1087 1.393 . S
C1084 H1073 0.950 . S
C1084 C1082 1.391 . S
C1084 C1085 1.400 . S
C1085 C1079 1.491 1_455 S
C1085 C1084 1.400 . S
C1085 C1086 1.398 . S
C1086 H1074 0.950 . S
C1086 C1085 1.398 . S
C1086 C1087 1.391 . S
C1087 H1075 0.950 . S
C1087 C1083 1.393 . S
C1087 C1086 1.391 . S
H1088 C1096 0.950 . S
H1089 C1101 0.950 . S
H1090 C1098 0.950 . S
H1091 C1100 0.950 . S
H1092 C1102 0.950 . S
H1093 C1104 0.950 . S
H1094 C1106 0.950 . S
H1095 C1107 0.950 . S
C1096 H1088 0.950 . S
C1096 C1097 1.386 . S
C1096 C1098 1.391 . S
C1097 C1096 1.386 . S
C1097 C1101 1.393 . S
C1098 H1090 0.950 . S
C1098 C1096 1.391 . S
C1098 C1099 1.400 . S
C1099 C1098 1.400 . S
C1099 C1100 1.398 . S
C1099 C1105 1.491 . S
C1100 H1091 0.950 . S
C1100 C1099 1.398 . S
C1100 C1101 1.391 . S
C1101 H1089 0.950 . S
C1101 C1097 1.393 . S
C1101 C1100 1.391 . S
C1102 H1092 0.950 . S
C1102 C1103 1.386 . S
C1102 C1104 1.391 . S
C1103 C1102 1.386 . S
C1103 C1107 1.393 . S
C1104 H1093 0.950 . S
C1104 C1102 1.391 . S
C1104 C1105 1.400 . S
C1105 C1099 1.491 . S
C1105 C1104 1.400 . S
C1105 C1106 1.398 . S
C1106 H1094 0.950 . S
C1106 C1105 1.398 . S
C1106 C1107 1.391 . S
C1107 H1095 0.950 . S
C1107 C1103 1.393 . S
C1107 C1106 1.391 . S
H1108 C1116 0.950 . S
H1109 C1121 0.950 . S
H1110 C1118 0.950 . S
H1111 C1120 0.950 . S
H1112 C1122 0.950 . S
H1113 C1124 0.950 . S
H1114 C1126 0.950 . S
H1115 C1127 0.950 . S
C1116 H1108 0.950 . S
C1116 C1117 1.386 . S
C1116 C1118 1.391 . S
C1117 C1116 1.386 . S
C1117 C1121 1.393 . S
C1118 H1110 0.950 . S
C1118 C1116 1.391 . S
C1118 C1119 1.400 . S
C1119 C1118 1.400 . S
C1119 C1120 1.398 . S
C1119 C1125 1.491 . S
C1120 H1111 0.950 . S
C1120 C1119 1.398 . S
C1120 C1121 1.391 . S
C1121 H1109 0.950 . S
C1121 C1117 1.393 . S
C1121 C1120 1.391 . S
C1122 H1112 0.950 . S
C1122 C1123 1.386 . S
C1122 C1124 1.391 . S
C1123 C1122 1.386 . S
C1123 C1127 1.393 . S
C1124 H1113 0.950 . S
C1124 C1122 1.391 . S
C1124 C1125 1.400 . S
C1125 C1119 1.491 . S
C1125 C1124 1.400 . S
C1125 C1126 1.398 . S
C1126 H1114 0.950 . S
C1126 C1125 1.398 . S
C1126 C1127 1.391 . S
C1127 H1115 0.950 . S
C1127 C1123 1.393 . S
C1127 C1126 1.391 . S
H1128 C1136 0.950 . S
H1129 C1141 0.950 . S
H1130 C1138 0.950 . S
H1131 C1140 0.950 . S
H1132 C1142 0.950 . S
H1133 C1144 0.950 . S
H1134 C1146 0.950 . S
H1135 C1147 0.950 . S
C1136 H1128 0.950 . S
C1136 C1137 1.386 . S
C1136 C1138 1.391 . S
C1137 C1136 1.386 . S
C1137 C1141 1.393 . S
C1138 H1130 0.950 . S
C1138 C1136 1.391 . S
C1138 C1139 1.400 . S
C1139 C1138 1.400 . S
C1139 C1140 1.398 . S
C1139 C1145 1.491 . S
C1140 H1131 0.950 . S
C1140 C1139 1.398 . S
C1140 C1141 1.391 . S
C1141 H1129 0.950 . S
C1141 C1137 1.393 . S
C1141 C1140 1.391 . S
C1142 H1132 0.950 . S
C1142 C1143 1.386 . S
C1142 C1144 1.391 . S
C1143 C1142 1.386 . S
C1143 C1147 1.393 . S
C1144 H1133 0.950 . S
C1144 C1142 1.391 . S
C1144 C1145 1.400 . S
C1145 C1139 1.491 . S
C1145 C1144 1.400 . S
C1145 C1146 1.398 . S
C1146 H1134 0.950 . S
C1146 C1145 1.398 . S
C1146 C1147 1.391 . S
C1147 H1135 0.950 . S
C1147 C1143 1.393 . S
C1147 C1146 1.391 . S
H1148 C1156 0.950 . S
H1149 C1161 0.950 . S
H1150 C1158 0.950 1_655 S
H1151 C1160 0.950 . S
H1152 C1162 0.950 . S
H1153 C1164 0.947 1_455 S
H1154 C1166 0.950 . S
H1155 C1167 0.950 . S
C1156 H1148 0.950 . S
C1156 C1157 1.386 . S
C1156 C1158 1.391 . S
C1157 C1156 1.386 . S
C1157 C1161 1.393 . S
C1158 H1150 0.950 1_455 S
C1158 C1156 1.391 . S
C1158 C1159 1.400 . S
C1159 C1158 1.400 . S
C1159 C1160 1.398 . S
C1159 C1165 1.491 1_455 S
C1160 H1151 0.950 . S
C1160 C1159 1.398 . S
C1160 C1161 1.391 . S
C1161 H1149 0.950 . S
C1161 C1157 1.393 . S
C1161 C1160 1.391 . S
C1162 H1152 0.950 . S
C1162 C1163 1.386 . S
C1162 C1164 1.393 1_556 S
C1163 C1162 1.386 . S
C1163 C1167 1.393 . S
C1164 H1153 0.947 1_655 S
C1164 C1162 1.393 1_554 S
C1164 C1165 1.401 . S
C1165 C1159 1.491 1_655 S
C1165 C1164 1.401 . S
C1165 C1166 1.398 . S
C1166 H1154 0.950 . S
C1166 C1165 1.398 . S
C1166 C1167 1.391 1_554 S
C1167 H1155 0.950 . S
C1167 C1163 1.393 . S
C1167 C1166 1.391 1_556 S
H1168 C1176 0.950 . S
H1169 C1181 0.950 . S
H1170 C1178 0.950 . S
H1171 C1180 0.950 . S
H1172 C1182 0.950 . S
H1173 C1184 0.950 . S
H1174 C1186 0.950 . S
H1175 C1187 0.950 . S
C1176 H1168 0.950 . S
C1176 C1177 1.386 . S
C1176 C1178 1.391 . S
C1177 C1176 1.386 . S
C1177 C1181 1.393 . S
C1178 H1170 0.950 . S
C1178 C1176 1.391 . S
C1178 C1179 1.400 . S
C1179 C1178 1.400 . S
C1179 C1180 1.398 . S
C1179 C1185 1.491 . S
C1180 H1171 0.950 . S
C1180 C1179 1.398 . S
C1180 C1181 1.391 . S
C1181 H1169 0.950 . S
C1181 C1177 1.393 . S
C1181 C1180 1.391 . S
C1182 H1172 0.950 . S
C1182 C1183 1.386 . S
C1182 C1184 1.391 . S
C1183 C1182 1.386 . S
C1183 C1187 1.393 . S
C1184 H1173 0.950 . S
C1184 C1182 1.391 . S
C1184 C1185 1.400 . S
C1185 C1179 1.491 . S
C1185 C1184 1.400 . S
C1185 C1186 1.398 . S
C1186 H1174 0.950 . S
C1186 C1185 1.398 . S
C1186 C1187 1.391 . S
C1187 H1175 0.950 . S
C1187 C1183 1.393 . S
C1187 C1186 1.391 . S
H1188 C1196 0.950 . S
H1189 C1201 0.950 . S
H1190 C1198 0.918 1_455 S
H1191 C1200 0.950 . S
H1192 C1202 0.950 . S
H1193 C1204 0.950 1_655 S
H1194 C1206 0.950 . S
H1195 C1207 0.950 . S
C1196 H1188 0.950 . S
C1196 C1197 1.386 . S
C1196 C1198 1.421 . S
C1197 C1196 1.386 . S
C1197 C1201 1.393 . S
C1198 H1190 0.918 1_655 S
C1198 C1196 1.421 . S
C1198 C1199 1.408 . S
C1199 C1198 1.408 . S
C1199 C1200 1.398 . S
C1199 C1205 1.491 1_655 S
C1200 H1191 0.950 . S
C1200 C1199 1.398 . S
C1200 C1201 1.391 . S
C1201 H1189 0.950 . S
C1201 C1197 1.393 . S
C1201 C1200 1.391 . S
C1202 H1192 0.950 . S
C1202 C1203 1.386 . S
C1202 C1204 1.391 . S
C1203 C1202 1.386 . S
C1203 C1207 1.393 . S
C1204 H1193 0.950 1_455 S
C1204 C1202 1.391 . S
C1204 C1205 1.400 . S
C1205 C1199 1.491 1_455 S
C1205 C1204 1.400 . S
C1205 C1206 1.398 . S
C1206 H1194 0.950 . S
C1206 C1205 1.398 . S
C1206 C1207 1.391 . S
C1207 H1195 0.950 . S
C1207 C1203 1.393 . S
C1207 C1206 1.391 . S
H1208 C1216 0.950 . S
H1209 C1221 0.950 . S
H1210 C1218 0.950 . S
H1211 C1220 0.950 . S
H1212 C1222 0.950 . S
H1213 C1224 0.950 . S
H1214 C1226 0.950 . S
H1215 C1227 0.950 . S
C1216 H1208 0.950 . S
C1216 C1217 1.386 . S
C1216 C1218 1.391 . S
C1217 C1216 1.386 . S
C1217 C1221 1.393 . S
C1218 H1210 0.950 . S
C1218 C1216 1.391 . S
C1218 C1219 1.400 . S
C1219 C1218 1.400 . S
C1219 C1220 1.398 . S
C1219 C1225 1.491 . S
C1220 H1211 0.950 . S
C1220 C1219 1.398 . S
C1220 C1221 1.391 . S
C1221 H1209 0.950 . S
C1221 C1217 1.393 . S
C1221 C1220 1.391 . S
C1222 H1212 0.950 . S
C1222 C1223 1.386 . S
C1222 C1224 1.391 . S
C1223 C1222 1.386 . S
C1223 C1227 1.393 . S
C1224 H1213 0.950 . S
C1224 C1222 1.391 . S
C1224 C1225 1.400 . S
C1225 C1219 1.491 . S
C1225 C1224 1.400 . S
C1225 C1226 1.398 . S
C1226 H1214 0.950 . S
C1226 C1225 1.398 . S
C1226 C1227 1.391 . S
C1227 H1215 0.950 . S
C1227 C1223 1.393 . S
C1227 C1226 1.391 . S
H1228 C1236 0.950 . S
H1229 C1241 0.950 . S
H1230 C1238 0.950 . S
H1231 C1240 0.950 . S
H1232 C1242 0.950 . S
H1233 C1244 0.950 . S
H1234 C1246 0.950 . S
H1235 C1247 0.950 . S
C1236 H1228 0.950 . S
C1236 C1237 1.386 . S
C1236 C1238 1.391 1_554 S
C1237 C1236 1.386 . S
C1237 C1241 1.393 . S
C1238 H1230 0.950 . S
C1238 C1236 1.391 1_556 S
C1238 C1239 1.400 . S
C1239 C1238 1.400 . S
C1239 C1240 1.398 1_556 S
C1239 C1245 1.491 . S
C1240 H1231 0.950 . S
C1240 C1239 1.398 1_554 S
C1240 C1241 1.391 . S
C1241 H1229 0.950 . S
C1241 C1237 1.393 . S
C1241 C1240 1.391 . S
C1242 H1232 0.950 . S
C1242 C1243 1.386 . S
C1242 C1244 1.391 . S
C1243 C1242 1.386 . S
C1243 C1247 1.393 . S
C1244 H1233 0.950 . S
C1244 C1242 1.391 . S
C1244 C1245 1.400 . S
C1245 C1239 1.491 . S
C1245 C1244 1.400 . S
C1245 C1246 1.398 . S
C1246 H1234 0.950 . S
C1246 C1245 1.398 . S
C1246 C1247 1.391 . S
C1247 H1235 0.950 . S
C1247 C1243 1.393 . S
C1247 C1246 1.391 . S
H1248 C1256 0.950 . S
H1249 C1261 0.950 . S
H1250 C1258 0.950 . S
H1251 C1260 0.950 . S
H1252 C1262 0.950 . S
H1253 C1264 0.950 . S
H1254 C1266 0.950 . S
H1255 C1267 0.950 . S
C1256 H1248 0.950 . S
C1256 C1257 1.386 . S
C1256 C1258 1.391 . S
C1257 C1256 1.386 . S
C1257 C1261 1.393 . S
C1258 H1250 0.950 . S
C1258 C1256 1.391 . S
C1258 C1259 1.400 . S
C1259 C1258 1.400 . S
C1259 C1260 1.398 . S
C1259 C1265 1.491 . S
C1260 H1251 0.950 . S
C1260 C1259 1.398 . S
C1260 C1261 1.391 . S
C1261 H1249 0.950 . S
C1261 C1257 1.393 . S
C1261 C1260 1.391 . S
C1262 H1252 0.950 . S
C1262 C1263 1.386 . S
C1262 C1264 1.391 . S
C1263 C1262 1.386 . S
C1263 C1267 1.393 . S
C1264 H1253 0.950 . S
C1264 C1262 1.391 . S
C1264 C1265 1.400 . S
C1265 C1259 1.491 . S
C1265 C1264 1.400 . S
C1265 C1266 1.398 . S
C1266 H1254 0.950 . S
C1266 C1265 1.398 . S
C1266 C1267 1.391 . S
C1267 H1255 0.950 . S
C1267 C1263 1.393 . S
C1267 C1266 1.391 . S
H1268 C1276 0.950 . S
H1269 C1281 0.950 . S
H1270 C1278 0.950 . S
H1271 C1280 0.950 . S
H1272 C1282 0.950 . S
H1273 C1284 0.950 . S
H1274 C1286 0.950 . S
H1275 C1287 0.950 . S
C1276 H1268 0.950 . S
C1276 C1277 1.386 . S
C1276 C1278 1.391 . S
C1277 C1276 1.386 . S
C1277 C1281 1.393 . S
C1278 H1270 0.950 . S
C1278 C1276 1.391 . S
C1278 C1279 1.400 . S
C1279 C1278 1.400 . S
C1279 C1280 1.398 . S
C1279 C1285 1.491 . S
C1280 H1271 0.950 . S
C1280 C1279 1.398 . S
C1280 C1281 1.391 . S
C1281 H1269 0.950 . S
C1281 C1277 1.393 . S
C1281 C1280 1.391 . S
C1282 H1272 0.950 . S
C1282 C1283 1.386 . S
C1282 C1284 1.391 . S
C1283 C1282 1.386 . S
C1283 C1287 1.393 . S
C1284 H1273 0.950 . S
C1284 C1282 1.391 . S
C1284 C1285 1.400 . S
C1285 C1279 1.491 . S
C1285 C1284 1.400 . S
C1285 C1286 1.398 . S
C1286 H1274 0.950 . S
C1286 C1285 1.398 . S
C1286 C1287 1.391 . S
C1287 H1275 0.950 . S
C1287 C1283 1.393 . S
C1287 C1286 1.391 . S
H1288 C1296 0.950 . S
H1289 C1301 0.950 . S
H1290 C1298 0.950 . S
H1291 C1300 0.950 . S
H1292 C1302 0.950 . S
H1293 C1304 0.950 . S
H1294 C1306 0.950 . S
H1295 C1307 0.950 . S
C1296 H1288 0.950 . S
C1296 C1297 1.386 . S
C1296 C1298 1.391 . S
C1297 C1296 1.386 . S
C1297 C1301 1.393 . S
C1298 H1290 0.950 . S
C1298 C1296 1.391 . S
C1298 C1299 1.400 . S
C1299 C1298 1.400 . S
C1299 C1300 1.398 . S
C1299 C1305 1.491 . S
C1300 H1291 0.950 . S
C1300 C1299 1.398 . S
C1300 C1301 1.391 . S
C1301 H1289 0.950 . S
C1301 C1297 1.393 . S
C1301 C1300 1.391 . S
C1302 H1292 0.950 . S
C1302 C1303 1.386 . S
C1302 C1304 1.391 . S
C1303 C1302 1.386 . S
C1303 C1307 1.393 . S
C1304 H1293 0.950 . S
C1304 C1302 1.391 . S
C1304 C1305 1.400 . S
C1305 C1299 1.491 . S
C1305 C1304 1.400 . S
C1305 C1306 1.398 . S
C1306 H1294 0.950 . S
C1306 C1305 1.398 . S
C1306 C1307 1.391 . S
C1307 H1295 0.950 . S
C1307 C1303 1.393 . S
C1307 C1306 1.391 . S
H1308 C1316 0.950 . S
H1309 C1321 0.950 . S
H1310 C1318 0.950 1_455 S
H1311 C1320 0.950 . S
H1312 C1322 0.950 . S
H1313 C1324 0.980 . S
H1314 C1326 0.950 . S
H1315 C1327 0.950 . S
C1316 H1308 0.950 . S
C1316 C1317 1.386 . S
C1316 C1318 1.391 . S
C1317 C1316 1.386 . S
C1317 C1321 1.393 . S
C1318 H1310 0.950 1_655 S
C1318 C1316 1.391 . S
C1318 C1319 1.400 . S
C1319 C1318 1.400 . S
C1319 C1320 1.398 . S
C1319 C1325 1.491 1_655 S
C1320 H1311 0.950 . S
C1320 C1319 1.398 . S
C1320 C1321 1.391 . S
C1321 H1309 0.950 . S
C1321 C1317 1.393 . S
C1321 C1320 1.391 . S
C1322 H1312 0.950 . S
C1322 C1323 1.386 . S
C1322 C1324 1.372 1_454 S
C1323 C1322 1.386 . S
C1323 C1327 1.393 . S
C1324 H1313 0.980 . S
C1324 C1322 1.372 1_656 S
C1324 C1325 1.392 1_655 S
C1325 C1319 1.491 1_455 S
C1325 C1324 1.392 1_455 S
C1325 C1326 1.398 . S
C1326 H1314 0.950 . S
C1326 C1325 1.398 . S
C1326 C1327 1.391 1_556 S
C1327 H1315 0.950 . S
C1327 C1323 1.393 . S
C1327 C1326 1.391 1_554 S
H1328 C1336 0.950 . S
H1329 C1341 0.950 . S
H1330 C1338 0.950 . S
H1331 C1340 0.950 . S
H1332 C1342 0.950 . S
H1333 C1344 0.950 . S
H1334 C1346 0.950 . S
H1335 C1347 0.950 . S
C1336 H1328 0.950 . S
C1336 C1337 1.386 . S
C1336 C1338 1.391 . S
C1337 C1336 1.386 . S
C1337 C1341 1.393 . S
C1338 H1330 0.950 . S
C1338 C1336 1.391 . S
C1338 C1339 1.400 . S
C1339 C1338 1.400 . S
C1339 C1340 1.398 . S
C1339 C1345 1.491 . S
C1340 H1331 0.950 . S
C1340 C1339 1.398 . S
C1340 C1341 1.391 . S
C1341 H1329 0.950 . S
C1341 C1337 1.393 . S
C1341 C1340 1.391 . S
C1342 H1332 0.950 . S
C1342 C1343 1.386 . S
C1342 C1344 1.391 . S
C1343 C1342 1.386 . S
C1343 C1347 1.393 . S
C1344 H1333 0.950 . S
C1344 C1342 1.391 . S
C1344 C1345 1.400 . S
C1345 C1339 1.491 . S
C1345 C1344 1.400 . S
C1345 C1346 1.398 . S
C1346 H1334 0.950 . S
C1346 C1345 1.398 . S
C1346 C1347 1.391 . S
C1347 H1335 0.950 . S
C1347 C1343 1.393 . S
C1347 C1346 1.391 . S
H1348 C1356 0.950 1_455 S
H1349 C1361 0.950 . S
H1350 C1358 0.950 . S
H1351 C1360 0.950 . S
H1352 C1362 0.940 1_655 S
H1353 C1364 0.950 . S
H1354 C1366 0.950 . S
H1355 C1367 0.950 . S
C1356 H1348 0.950 1_655 S
C1356 C1357 1.386 . S
C1356 C1358 1.391 1_655 S
C1357 C1356 1.386 . S
C1357 C1361 1.393 . S
C1358 H1350 0.950 . S
C1358 C1356 1.391 1_455 S
C1358 C1359 1.400 1_455 S
C1359 C1358 1.400 1_655 S
C1359 C1360 1.398 . S
C1359 C1365 1.491 1_655 S
C1360 H1351 0.950 . S
C1360 C1359 1.398 . S
C1360 C1361 1.391 . S
C1361 H1349 0.950 . S
C1361 C1357 1.393 . S
C1361 C1360 1.391 . S
C1362 H1352 0.940 1_455 S
C1362 C1363 1.403 . S
C1362 C1364 1.384 1_455 S
C1363 C1362 1.403 . S
C1363 C1367 1.393 . S
C1364 H1353 0.950 . S
C1364 C1362 1.384 1_655 S
C1364 C1365 1.400 1_655 S
C1365 C1359 1.491 1_455 S
C1365 C1364 1.400 1_455 S
C1365 C1366 1.398 . S
C1366 H1354 0.950 . S
C1366 C1365 1.398 . S
C1366 C1367 1.391 . S
C1367 H1355 0.950 . S
C1367 C1363 1.393 . S
C1367 C1366 1.391 . S
H1368 C1376 0.950 . S
H1369 C1381 0.950 . S
H1370 C1378 0.950 . S
H1371 C1380 0.950 . S
H1372 C1382 0.950 . S
H1373 C1384 0.950 . S
H1374 C1386 0.950 . S
H1375 C1387 0.950 . S
C1376 H1368 0.950 . S
C1376 C1377 1.386 . S
C1376 C1378 1.391 . S
C1377 C1376 1.386 . S
C1377 C1381 1.393 . S
C1378 H1370 0.950 . S
C1378 C1376 1.391 . S
C1378 C1379 1.400 . S
C1379 C1378 1.400 . S
C1379 C1380 1.398 . S
C1379 C1385 1.491 . S
C1380 H1371 0.950 . S
C1380 C1379 1.398 . S
C1380 C1381 1.391 . S
C1381 H1369 0.950 . S
C1381 C1377 1.393 . S
C1381 C1380 1.391 . S
C1382 H1372 0.950 . S
C1382 C1383 1.386 . S
C1382 C1384 1.391 . S
C1383 C1382 1.386 . S
C1383 C1387 1.393 . S
C1384 H1373 0.950 . S
C1384 C1382 1.391 . S
C1384 C1385 1.400 . S
C1385 C1379 1.491 . S
C1385 C1384 1.400 . S
C1385 C1386 1.398 . S
C1386 H1374 0.950 . S
C1386 C1385 1.398 . S
C1386 C1387 1.391 . S
C1387 H1375 0.950 . S
C1387 C1383 1.393 . S
C1387 C1386 1.391 . S
H1388 C1396 0.950 . S
H1389 C1401 0.950 . S
H1390 C1398 0.950 . S
H1391 C1400 0.950 . S
H1392 C1402 0.950 . S
H1393 C1404 0.950 . S
H1394 C1406 0.951 . S
H1395 C1407 0.950 . S
C1396 H1388 0.950 . S
C1396 C1397 1.386 . S
C1396 C1398 1.391 . S
C1397 C1396 1.386 . S
C1397 C1401 1.393 . S
C1398 H1390 0.950 . S
C1398 C1396 1.391 . S
C1398 C1399 1.400 . S
C1399 C1398 1.400 . S
C1399 C1400 1.398 . S
C1399 C1405 1.491 . S
C1400 H1391 0.950 . S
C1400 C1399 1.398 . S
C1400 C1401 1.391 . S
C1401 H1389 0.950 . S
C1401 C1397 1.393 . S
C1401 C1400 1.391 . S
C1402 H1392 0.950 . S
C1402 C1403 1.386 . S
C1402 C1404 1.391 1_556 S
C1403 C1402 1.386 . S
C1403 C1407 1.393 . S
C1404 H1393 0.950 . S
C1404 C1402 1.391 1_554 S
C1404 C1405 1.400 . S
C1405 C1399 1.491 . S
C1405 C1404 1.400 . S
C1405 C1406 1.398 1_554 S
C1406 H1394 0.951 . S
C1406 C1405 1.398 1_556 S
C1406 C1407 1.391 . S
C1407 H1395 0.950 . S
C1407 C1403 1.393 . S
C1407 C1406 1.391 . S
H1408 C1416 0.950 . S
H1409 C1421 0.950 . S
H1410 C1418 0.950 . S
H1411 C1420 0.950 . S
H1412 C1422 0.950 . S
H1413 C1424 0.950 . S
H1414 C1426 0.950 . S
H1415 C1427 0.950 . S
C1416 H1408 0.950 . S
C1416 C1417 1.386 . S
C1416 C1418 1.391 . S
C1417 C1416 1.386 . S
C1417 C1421 1.393 . S
C1418 H1410 0.950 . S
C1418 C1416 1.391 . S
C1418 C1419 1.400 . S
C1419 C1418 1.400 . S
C1419 C1420 1.398 . S
C1419 C1425 1.491 . S
C1420 H1411 0.950 . S
C1420 C1419 1.398 . S
C1420 C1421 1.391 . S
C1421 H1409 0.950 . S
C1421 C1417 1.393 . S
C1421 C1420 1.391 . S
C1422 H1412 0.950 . S
C1422 C1423 1.386 . S
C1422 C1424 1.391 . S
C1423 C1422 1.386 . S
C1423 C1427 1.393 . S
C1424 H1413 0.950 . S
C1424 C1422 1.391 . S
C1424 C1425 1.400 . S
C1425 C1419 1.491 . S
C1425 C1424 1.400 . S
C1425 C1426 1.398 . S
C1426 H1414 0.950 . S
C1426 C1425 1.398 . S
C1426 C1427 1.391 . S
C1427 H1415 0.950 . S
C1427 C1423 1.393 . S
C1427 C1426 1.391 . S
H1428 C1436 0.950 . S
H1429 C1441 0.950 . S
H1430 C1438 0.950 . S
H1431 C1440 0.950 . S
H1432 C1442 0.950 . S
H1433 C1444 0.950 . S
H1434 C1446 0.950 . S
H1435 C1447 0.950 . S
C1436 H1428 0.950 . S
C1436 C1437 1.386 . S
C1436 C1438 1.391 . S
C1437 C1436 1.386 . S
C1437 C1441 1.393 . S
C1438 H1430 0.950 . S
C1438 C1436 1.391 . S
C1438 C1439 1.400 . S
C1439 C1438 1.400 . S
C1439 C1440 1.398 . S
C1439 C1445 1.491 . S
C1440 H1431 0.950 . S
C1440 C1439 1.398 . S
C1440 C1441 1.391 . S
C1441 H1429 0.950 . S
C1441 C1437 1.393 . S
C1441 C1440 1.391 . S
C1442 H1432 0.950 . S
C1442 C1443 1.386 . S
C1442 C1444 1.391 . S
C1443 C1442 1.386 . S
C1443 C1447 1.393 . S
C1444 H1433 0.950 . S
C1444 C1442 1.391 . S
C1444 C1445 1.400 . S
C1445 C1439 1.491 . S
C1445 C1444 1.400 . S
C1445 C1446 1.398 . S
C1446 H1434 0.950 . S
C1446 C1445 1.398 . S
C1446 C1447 1.391 . S
C1447 H1435 0.950 . S
C1447 C1443 1.393 . S
C1447 C1446 1.391 . S
H1448 C1456 0.950 . S
H1449 C1461 0.950 . S
H1450 C1458 0.950 . S
H1451 C1460 0.950 . S
H1452 C1462 0.950 . S
H1453 C1464 0.950 . S
H1454 C1466 0.950 . S
H1455 C1467 0.950 . S
C1456 H1448 0.950 . S
C1456 C1457 1.386 . S
C1456 C1458 1.391 . S
C1457 C1456 1.386 . S
C1457 C1461 1.393 . S
C1458 H1450 0.950 . S
C1458 C1456 1.391 . S
C1458 C1459 1.400 . S
C1459 C1458 1.400 . S
C1459 C1460 1.398 . S
C1459 C1465 1.491 . S
C1460 H1451 0.950 . S
C1460 C1459 1.398 . S
C1460 C1461 1.391 . S
C1461 H1449 0.950 . S
C1461 C1457 1.393 . S
C1461 C1460 1.391 . S
C1462 H1452 0.950 . S
C1462 C1463 1.386 . S
C1462 C1464 1.391 . S
C1463 C1462 1.386 . S
C1463 C1467 1.393 . S
C1464 H1453 0.950 . S
C1464 C1462 1.391 . S
C1464 C1465 1.400 . S
C1465 C1459 1.491 . S
C1465 C1464 1.400 . S
C1465 C1466 1.398 . S
C1466 H1454 0.950 . S
C1466 C1465 1.398 . S
C1466 C1467 1.391 . S
C1467 H1455 0.950 . S
C1467 C1463 1.393 . S
C1467 C1466 1.391 . S
H1468 C1476 0.950 . S
H1469 C1481 0.950 . S
H1470 C1478 0.950 . S
H1471 C1480 0.950 . S
H1472 C1482 0.950 . S
H1473 C1484 0.950 . S
H1474 C1486 0.950 . S
H1475 C1487 0.950 . S
C1476 H1468 0.950 . S
C1476 C1477 1.386 . S
C1476 C1478 1.391 . S
C1477 C1476 1.386 . S
C1477 C1481 1.393 . S
C1478 H1470 0.950 . S
C1478 C1476 1.391 . S
C1478 C1479 1.400 . S
C1479 C1478 1.400 . S
C1479 C1480 1.398 . S
C1479 C1485 1.491 . S
C1480 H1471 0.950 . S
C1480 C1479 1.398 . S
C1480 C1481 1.391 . S
C1481 H1469 0.950 . S
C1481 C1477 1.393 . S
C1481 C1480 1.391 . S
C1482 H1472 0.950 . S
C1482 C1483 1.386 . S
C1482 C1484 1.391 . S
C1483 C1482 1.386 . S
C1483 C1487 1.393 . S
C1484 H1473 0.950 . S
C1484 C1482 1.391 . S
C1484 C1485 1.400 . S
C1485 C1479 1.491 . S
C1485 C1484 1.400 . S
C1485 C1486 1.398 . S
C1486 H1474 0.950 . S
C1486 C1485 1.398 . S
C1486 C1487 1.391 . S
C1487 H1475 0.950 . S
C1487 C1483 1.393 . S
C1487 C1486 1.391 . S
H1488 C1496 0.950 . S
H1489 C1501 0.950 . S
H1490 C1498 0.950 . S
H1491 C1500 0.950 . S
H1492 C1502 0.950 . S
H1493 C1504 0.950 . S
H1494 C1506 0.950 . S
H1495 C1507 0.950 . S
C1496 H1488 0.950 . S
C1496 C1497 1.386 . S
C1496 C1498 1.391 . S
C1497 C1496 1.386 . S
C1497 C1501 1.393 . S
C1498 H1490 0.950 . S
C1498 C1496 1.391 . S
C1498 C1499 1.400 . S
C1499 C1498 1.400 . S
C1499 C1500 1.398 . S
C1499 C1505 1.491 . S
C1500 H1491 0.950 . S
C1500 C1499 1.398 . S
C1500 C1501 1.391 . S
C1501 H1489 0.950 . S
C1501 C1497 1.393 . S
C1501 C1500 1.391 . S
C1502 H1492 0.950 . S
C1502 C1503 1.386 . S
C1502 C1504 1.391 . S
C1503 C1502 1.386 . S
C1503 C1507 1.393 . S
C1504 H1493 0.950 . S
C1504 C1502 1.391 . S
C1504 C1505 1.400 . S
C1505 C1499 1.491 . S
C1505 C1504 1.400 . S
C1505 C1506 1.398 . S
C1506 H1494 0.950 . S
C1506 C1505 1.398 . S
C1506 C1507 1.391 . S
C1507 H1495 0.950 . S
C1507 C1503 1.393 . S
C1507 C1506 1.391 . S
H1508 C1516 0.950 . S
H1509 C1521 0.950 . S
H1510 C1518 0.950 . S
H1511 C1520 0.950 . S
H1512 C1522 0.950 . S
H1513 C1524 0.950 . S
H1514 C1526 0.950 . S
H1515 C1527 0.950 . S
C1516 H1508 0.950 . S
C1516 C1517 1.386 . S
C1516 C1518 1.391 . S
C1517 C1516 1.386 . S
C1517 C1521 1.393 . S
C1518 H1510 0.950 . S
C1518 C1516 1.391 . S
C1518 C1519 1.400 . S
C1519 C1518 1.400 . S
C1519 C1520 1.398 . S
C1519 C1525 1.491 . S
C1520 H1511 0.950 . S
C1520 C1519 1.398 . S
C1520 C1521 1.391 . S
C1521 H1509 0.950 . S
C1521 C1517 1.393 . S
C1521 C1520 1.391 . S
C1522 H1512 0.950 . S
C1522 C1523 1.386 . S
C1522 C1524 1.391 . S
C1523 C1522 1.386 . S
C1523 C1527 1.393 . S
C1524 H1513 0.950 . S
C1524 C1522 1.391 . S
C1524 C1525 1.400 . S
C1525 C1519 1.491 . S
C1525 C1524 1.400 . S
C1525 C1526 1.398 . S
C1526 H1514 0.950 . S
C1526 C1525 1.398 . S
C1526 C1527 1.391 . S
C1527 H1515 0.950 . S
C1527 C1523 1.393 . S
C1527 C1526 1.391 . S
H1528 C1536 0.950 . S
H1529 C1541 0.950 . S
H1530 C1538 0.950 . S
H1531 C1540 0.950 . S
H1532 C1542 0.950 . S
H1533 C1544 0.950 . S
H1534 C1546 0.950 . S
H1535 C1547 0.950 . S
C1536 H1528 0.950 . S
C1536 C1537 1.386 . S
C1536 C1538 1.391 . S
C1537 C1536 1.386 . S
C1537 C1541 1.393 . S
C1538 H1530 0.950 . S
C1538 C1536 1.391 . S
C1538 C1539 1.400 . S
C1539 C1538 1.400 . S
C1539 C1540 1.398 . S
C1539 C1545 1.491 . S
C1540 H1531 0.950 . S
C1540 C1539 1.398 . S
C1540 C1541 1.391 . S
C1541 H1529 0.950 . S
C1541 C1537 1.393 . S
C1541 C1540 1.391 . S
C1542 H1532 0.950 . S
C1542 C1543 1.386 . S
C1542 C1544 1.391 . S
C1543 C1542 1.386 . S
C1543 C1547 1.393 . S
C1544 H1533 0.950 . S
C1544 C1542 1.391 . S
C1544 C1545 1.400 . S
C1545 C1539 1.491 . S
C1545 C1544 1.400 . S
C1545 C1546 1.398 . S
C1546 H1534 0.950 . S
C1546 C1545 1.398 . S
C1546 C1547 1.391 . S
C1547 H1535 0.950 . S
C1547 C1543 1.393 . S
C1547 C1546 1.391 . S
H1548 C1556 0.950 . S
H1549 C1561 0.950 . S
H1550 C1558 0.950 . S
H1551 C1560 0.950 . S
H1552 C1562 0.950 . S
H1553 C1564 0.950 . S
H1554 C1566 0.950 . S
H1555 C1567 0.950 . S
C1556 H1548 0.950 . S
C1556 C1557 1.386 . S
C1556 C1558 1.391 . S
C1557 C1556 1.386 . S
C1557 C1561 1.393 . S
C1558 H1550 0.950 . S
C1558 C1556 1.391 . S
C1558 C1559 1.400 . S
C1559 C1558 1.400 . S
C1559 C1560 1.398 . S
C1559 C1565 1.491 . S
C1560 H1551 0.950 . S
C1560 C1559 1.398 . S
C1560 C1561 1.391 . S
C1561 H1549 0.950 . S
C1561 C1557 1.393 . S
C1561 C1560 1.391 . S
C1562 H1552 0.950 . S
C1562 C1563 1.386 . S
C1562 C1564 1.391 . S
C1563 C1562 1.386 . S
C1563 C1567 1.393 . S
C1564 H1553 0.950 . S
C1564 C1562 1.391 . S
C1564 C1565 1.400 . S
C1565 C1559 1.491 . S
C1565 C1564 1.400 . S
C1565 C1566 1.398 . S
C1566 H1554 0.950 . S
C1566 C1565 1.398 . S
C1566 C1567 1.391 . S
C1567 H1555 0.950 . S
C1567 C1563 1.393 . S
C1567 C1566 1.391 . S
H1568 C1576 0.950 . S
H1569 C1581 0.950 . S
H1570 C1578 0.950 . S
H1571 C1580 0.950 . S
H1572 C1582 0.950 . S
H1573 C1584 0.950 . S
H1574 C1586 0.950 . S
H1575 C1587 0.950 . S
C1576 H1568 0.950 . S
C1576 C1577 1.386 . S
C1576 C1578 1.391 . S
C1577 C1576 1.386 . S
C1577 C1581 1.393 . S
C1578 H1570 0.950 . S
C1578 C1576 1.391 . S
C1578 C1579 1.400 . S
C1579 C1578 1.400 . S
C1579 C1580 1.398 . S
C1579 C1585 1.491 . S
C1580 H1571 0.950 . S
C1580 C1579 1.398 . S
C1580 C1581 1.391 . S
C1581 H1569 0.950 . S
C1581 C1577 1.393 . S
C1581 C1580 1.391 . S
C1582 H1572 0.950 . S
C1582 C1583 1.386 . S
C1582 C1584 1.391 . S
C1583 C1582 1.386 . S
C1583 C1587 1.393 . S
C1584 H1573 0.950 . S
C1584 C1582 1.391 . S
C1584 C1585 1.400 . S
C1585 C1579 1.491 . S
C1585 C1584 1.400 . S
C1585 C1586 1.398 . S
C1586 H1574 0.950 . S
C1586 C1585 1.398 . S
C1586 C1587 1.391 . S
C1587 H1575 0.950 . S
C1587 C1583 1.393 . S
C1587 C1586 1.391 . S
H1588 C1596 0.950 . S
H1589 C1601 0.950 . S
H1590 C1598 0.950 . S
H1591 C1600 0.950 . S
H1592 C1602 0.950 . S
H1593 C1604 0.950 . S
H1594 C1606 0.950 . S
H1595 C1607 0.950 . S
C1596 H1588 0.950 . S
C1596 C1597 1.386 . S
C1596 C1598 1.391 . S
C1597 C1596 1.386 . S
C1597 C1601 1.393 . S
C1598 H1590 0.950 . S
C1598 C1596 1.391 . S
C1598 C1599 1.400 . S
C1599 C1598 1.400 . S
C1599 C1600 1.398 . S
C1599 C1605 1.491 . S
C1600 H1591 0.950 . S
C1600 C1599 1.398 . S
C1600 C1601 1.391 . S
C1601 H1589 0.950 . S
C1601 C1597 1.393 . S
C1601 C1600 1.391 . S
C1602 H1592 0.950 . S
C1602 C1603 1.386 . S
C1602 C1604 1.391 . S
C1603 C1602 1.386 . S
C1603 C1607 1.393 . S
C1604 H1593 0.950 . S
C1604 C1602 1.391 . S
C1604 C1605 1.400 . S
C1605 C1599 1.491 . S
C1605 C1604 1.400 . S
C1605 C1606 1.398 . S
C1606 H1594 0.950 . S
C1606 C1605 1.398 . S
C1606 C1607 1.391 . S
C1607 H1595 0.950 . S
C1607 C1603 1.393 . S
C1607 C1606 1.391 . S
H1608 C1616 0.950 . S
H1609 C1621 0.950 . S
H1610 C1618 0.950 . S
H1611 C1620 0.950 . S
H1612 C1622 0.950 . S
H1613 C1624 0.950 . S
H1614 C1626 0.950 . S
H1615 C1627 0.950 . S
C1616 H1608 0.950 . S
C1616 C1617 1.386 . S
C1616 C1618 1.391 . S
C1617 C1616 1.386 . S
C1617 C1621 1.393 . S
C1618 H1610 0.950 . S
C1618 C1616 1.391 . S
C1618 C1619 1.400 . S
C1619 C1618 1.400 . S
C1619 C1620 1.398 . S
C1619 C1625 1.491 . S
C1620 H1611 0.950 . S
C1620 C1619 1.398 . S
C1620 C1621 1.391 . S
C1621 H1609 0.950 . S
C1621 C1617 1.393 . S
C1621 C1620 1.391 . S
C1622 H1612 0.950 . S
C1622 C1623 1.386 . S
C1622 C1624 1.391 . S
C1623 C1622 1.386 . S
C1623 C1627 1.393 . S
C1624 H1613 0.950 . S
C1624 C1622 1.391 . S
C1624 C1625 1.400 . S
C1625 C1619 1.491 . S
C1625 C1624 1.400 . S
C1625 C1626 1.398 . S
C1626 H1614 0.950 . S
C1626 C1625 1.398 . S
C1626 C1627 1.391 . S
C1627 H1615 0.950 . S
C1627 C1623 1.393 . S
C1627 C1626 1.391 . S
H1628 C1636 0.950 . S
H1629 C1641 0.950 . S
H1630 C1638 0.950 . S
H1631 C1640 0.950 . S
H1632 C1642 0.950 . S
H1633 C1644 0.950 . S
H1634 C1646 0.950 . S
H1635 C1647 0.950 . S
C1636 H1628 0.950 . S
C1636 C1637 1.386 . S
C1636 C1638 1.391 . S
C1637 C1636 1.386 . S
C1637 C1641 1.393 . S
C1638 H1630 0.950 . S
C1638 C1636 1.391 . S
C1638 C1639 1.400 . S
C1639 C1638 1.400 . S
C1639 C1640 1.398 . S
C1639 C1645 1.491 . S
C1640 H1631 0.950 . S
C1640 C1639 1.398 . S
C1640 C1641 1.391 . S
C1641 H1629 0.950 . S
C1641 C1637 1.393 . S
C1641 C1640 1.391 . S
C1642 H1632 0.950 . S
C1642 C1643 1.386 . S
C1642 C1644 1.391 . S
C1643 C1642 1.386 . S
C1643 C1647 1.393 . S
C1644 H1633 0.950 . S
C1644 C1642 1.391 . S
C1644 C1645 1.400 . S
C1645 C1639 1.491 . S
C1645 C1644 1.400 . S
C1645 C1646 1.398 . S
C1646 H1634 0.950 . S
C1646 C1645 1.398 . S
C1646 C1647 1.391 . S
C1647 H1635 0.950 . S
C1647 C1643 1.393 . S
C1647 C1646 1.391 . S
H1648 C1656 0.950 . S
H1649 C1661 0.950 . S
H1650 C1658 0.950 . S
H1651 C1660 0.950 . S
H1652 C1662 0.950 . S
H1653 C1664 0.950 . S
H1654 C1666 0.950 . S
H1655 C1667 0.950 . S
C1656 H1648 0.950 . S
C1656 C1657 1.386 . S
C1656 C1658 1.391 . S
C1657 C1656 1.386 . S
C1657 C1661 1.393 . S
C1658 H1650 0.950 . S
C1658 C1656 1.391 . S
C1658 C1659 1.400 . S
C1659 C1658 1.400 . S
C1659 C1660 1.398 . S
C1659 C1665 1.491 . S
C1660 H1651 0.950 . S
C1660 C1659 1.398 . S
C1660 C1661 1.391 . S
C1661 H1649 0.950 . S
C1661 C1657 1.393 . S
C1661 C1660 1.391 . S
C1662 H1652 0.950 . S
C1662 C1663 1.386 . S
C1662 C1664 1.391 . S
C1663 C1662 1.386 . S
C1663 C1667 1.393 . S
C1664 H1653 0.950 . S
C1664 C1662 1.391 . S
C1664 C1665 1.400 . S
C1665 C1659 1.491 . S
C1665 C1664 1.400 . S
C1665 C1666 1.398 . S
C1666 H1654 0.950 . S
C1666 C1665 1.398 . S
C1666 C1667 1.391 . S
C1667 H1655 0.950 . S
C1667 C1663 1.393 . S
C1667 C1666 1.391 . S
H1668 C1676 0.950 . S
H1669 C1681 0.950 . S
H1670 C1678 0.950 . S
H1671 C1680 0.950 . S
H1672 C1682 0.950 . S
H1673 C1684 0.950 . S
H1674 C1686 0.950 . S
H1675 C1687 0.950 . S
C1676 H1668 0.950 . S
C1676 C1677 1.386 . S
C1676 C1678 1.391 . S
C1677 C1676 1.386 . S
C1677 C1681 1.393 . S
C1678 H1670 0.950 . S
C1678 C1676 1.391 . S
C1678 C1679 1.400 . S
C1679 C1678 1.400 . S
C1679 C1680 1.398 . S
C1679 C1685 1.491 . S
C1680 H1671 0.950 . S
C1680 C1679 1.398 . S
C1680 C1681 1.391 . S
C1681 H1669 0.950 . S
C1681 C1677 1.393 . S
C1681 C1680 1.391 . S
C1682 H1672 0.950 . S
C1682 C1683 1.386 . S
C1682 C1684 1.391 . S
C1683 C1682 1.386 . S
C1683 C1687 1.393 . S
C1684 H1673 0.950 . S
C1684 C1682 1.391 . S
C1684 C1685 1.400 . S
C1685 C1679 1.491 . S
C1685 C1684 1.400 . S
C1685 C1686 1.398 . S
C1686 H1674 0.950 . S
C1686 C1685 1.398 . S
C1686 C1687 1.391 . S
C1687 H1675 0.950 . S
C1687 C1683 1.393 . S
C1687 C1686 1.391 . S
H1688 C1696 0.950 . S
H1689 C1701 0.950 . S
H1690 C1698 0.950 . S
H1691 C1700 0.950 . S
H1692 C1702 0.950 . S
H1693 C1704 0.950 . S
H1694 C1706 0.950 . S
H1695 C1707 0.950 . S
C1696 H1688 0.950 . S
C1696 C1697 1.386 . S
C1696 C1698 1.391 . S
C1697 C1696 1.386 . S
C1697 C1701 1.393 . S
C1698 H1690 0.950 . S
C1698 C1696 1.391 . S
C1698 C1699 1.400 . S
C1699 C1698 1.400 . S
C1699 C1700 1.398 . S
C1699 C1705 1.491 . S
C1700 H1691 0.950 . S
C1700 C1699 1.398 . S
C1700 C1701 1.391 . S
C1701 H1689 0.950 . S
C1701 C1697 1.393 . S
C1701 C1700 1.391 . S
C1702 H1692 0.950 . S
C1702 C1703 1.386 . S
C1702 C1704 1.391 . S
C1703 C1702 1.386 . S
C1703 C1707 1.393 . S
C1704 H1693 0.950 . S
C1704 C1702 1.391 . S
C1704 C1705 1.400 . S
C1705 C1699 1.491 . S
C1705 C1704 1.400 . S
C1705 C1706 1.398 . S
C1706 H1694 0.950 . S
C1706 C1705 1.398 . S
C1706 C1707 1.391 . S
C1707 H1695 0.950 . S
C1707 C1703 1.393 . S
C1707 C1706 1.391 . S
H1708 C1716 0.950 . S
H1709 C1721 0.950 . S
H1710 C1718 0.950 . S
H1711 C1720 0.950 . S
H1712 C1722 0.950 . S
H1713 C1724 0.950 . S
H1714 C1726 0.950 . S
H1715 C1727 0.950 . S
C1716 H1708 0.950 . S
C1716 C1717 1.386 . S
C1716 C1718 1.391 . S
C1717 C1716 1.386 . S
C1717 C1721 1.393 . S
C1718 H1710 0.950 . S
C1718 C1716 1.391 . S
C1718 C1719 1.400 . S
C1719 C1718 1.400 . S
C1719 C1720 1.398 . S
C1719 C1725 1.491 . S
C1720 H1711 0.950 . S
C1720 C1719 1.398 . S
C1720 C1721 1.391 . S
C1721 H1709 0.950 . S
C1721 C1717 1.393 . S
C1721 C1720 1.391 . S
C1722 H1712 0.950 . S
C1722 C1723 1.386 . S
C1722 C1724 1.391 . S
C1723 C1722 1.386 . S
C1723 C1727 1.393 . S
C1724 H1713 0.950 . S
C1724 C1722 1.391 . S
C1724 C1725 1.400 . S
C1725 C1719 1.491 . S
C1725 C1724 1.400 . S
C1725 C1726 1.398 . S
C1726 H1714 0.950 . S
C1726 C1725 1.398 . S
C1726 C1727 1.391 . S
C1727 H1715 0.950 . S
C1727 C1723 1.393 . S
C1727 C1726 1.391 . S
C457 C93 1.459 . S
C463 C9 1.474 . S
C477 C23 1.468 . S
C483 C107 1.478 . S
C497 C65 1.479 . S
C503 C37 1.465 . S
C517 C51 1.467 . S
C523 C79 1.478 . S
C537 C205 1.471 . S
C543 C121 1.459 . S
C557 C219 1.479 . S
C563 C135 1.463 . S
C577 C149 1.459 . S
C583 C177 1.473 . S
C597 C163 1.479 . S
C603 C191 1.465 . S
C617 C233 1.460 . S
C623 C317 1.470 . S
C637 C247 1.473 . S
C643 C331 1.475 . S
C657 C289 1.460 . S
C663 C261 1.471 . S
C677 C303 1.460 . S
C683 C275 1.469 . S
C697 C345 1.476 . S
C703 C429 1.472 . S
C717 C443 1.478 . S
C723 C359 1.462 . S
C737 C401 1.462 . S
C743 C373 1.478 . S
C757 C387 1.475 . S
C763 C415 1.473 . S
C777 C3 1.237 . S
C783 C427 1.222 . S
C797 C217 1.221 . S
C803 C17 1.239 . S
C817 C31 1.230 . S
C823 C399 1.227 . S
C837 C45 1.241 . S
C843 C189 1.222 . S
C857 C371 1.235 . S
C863 C59 1.233 . S
C877 C161 1.224 . S
C883 C73 1.241 . S
C897 C87 1.230 . S
C903 C343 1.227 . S
C917 C133 1.232 . S
C923 C101 1.226 . S
C937 C115 1.241 . S
C943 C315 1.222 . S
C957 C105 1.221 . S
C963 C129 1.238 . S
C977 C143 1.223 . S
C983 C287 1.239 . S
C997 C157 1.224 . S
C1003 C77 1.234 . S
C1017 C259 1.223 . S
C1023 C171 1.236 . S
C1037 C185 1.241 . S
C1043 C49 1.222 . S
C1057 C199 1.223 . S
C1063 C231 1.240 . S
C1077 C21 1.222 . S
C1083 C213 1.237 . S
C1097 C227 1.239 . S
C1103 C203 1.229 . S
C1117 C241 1.239 . S
C1123 C441 1.228 . S
C1137 C175 1.240 . S
C1143 C255 1.223 . S
C1157 C269 1.231 . S
C1163 C413 1.237 . S
C1177 C147 1.231 . S
C1183 C283 1.226 . S
C1197 C385 1.226 . S
C1203 C297 1.231 . S
C1217 C119 1.237 . S
C1223 C311 1.231 . S
C1237 C357 1.227 . S
C1243 C325 1.240 . S
C1257 C339 1.235 . S
C1263 C91 1.223 . S
C1277 C329 1.224 . S
C1283 C353 1.241 . S
C1297 C63 1.226 . S
C1303 C367 1.231 . S
C1317 C381 1.230 . S
C1323 C301 1.227 . S
C1337 C395 1.234 . S
C1343 C35 1.235 . S
C1357 C409 1.225 . S
C1363 C273 1.233 . S
C1377 C7 1.239 . S
C1383 C423 1.223 . S
C1397 C437 1.240 . S
C1403 C245 1.221 . S
C1417 C8 1.414 . S
C1423 C302 1.416 . S
C1437 C316 1.421 . S
C1443 C22 1.420 . S
C1457 C36 1.417 . S
C1463 C330 1.420 . S
C1477 C288 1.414 . S
C1483 C50 1.415 . S
C1497 C274 1.414 . S
C1503 C64 1.416 . S
C1517 C232 1.418 . S
C1523 C78 1.421 . S
C1537 C246 1.414 . S
C1543 C92 1.415 . S
C1557 C260 1.414 . S
C1563 C106 1.418 . S
C1577 C120 1.421 . S
C1583 C414 1.419 . S
C1597 C428 1.417 . S
C1603 C134 1.421 . S
C1617 C442 1.416 . S
C1623 C148 1.414 . S
C1637 C400 1.416 . S
C1643 C162 1.420 . S
C1657 C386 1.415 . S
C1663 C176 1.414 . S
C1677 C344 1.418 . S
C1683 C190 1.414 . S
C1697 C204 1.421 . S
C1703 C358 1.418 . S
C1717 C218 1.415 . S
C1723 C372 1.419 . S
