# Generated by pormake.
# Topology umf, (4)-cn, num edge types: 1
# Building blocks:
#     Node 0, Type 0, BuildingBlock: ESEHIV_clean_sbu_0, # of connection points: 4
#     Node 1, Type 0, BuildingBlock: ESEHIV_clean_sbu_0, # of connection points: 4
#     Node 2, Type 0, BuildingBlock: ESEHIV_clean_sbu_0, # of connection points: 4
#     Node 3, Type 0, BuildingBlock: ESEHIV_clean_sbu_0, # of connection points: 4
#     Node 4, Type 0, BuildingBlock: ESEHIV_clean_sbu_0, # of connection points: 4
#     Node 5, Type 0, BuildingBlock: ESEHIV_clean_sbu_0, # of connection points: 4
#     Node 6, Type 0, BuildingBlock: ESEHIV_clean_sbu_0, # of connection points: 4
#     Node 7, Type 0, BuildingBlock: ESEHIV_clean_sbu_0, # of connection points: 4
#     Edge 8, Type (0, 0), BuildingBlock: XIVTED_clean_linker_0, # of connection points: 2
#     Edge 9, Type (0, 0), BuildingBlock: XIVTED_clean_linker_0, # of connection points: 2
#     Edge 10, Type (0, 0), BuildingBlock: XIVTED_clean_linker_0, # of connection points: 2
#     Edge 11, Type (0, 0), BuildingBlock: XIVTED_clean_linker_0, # of connection points: 2
#     Edge 12, Type (0, 0), BuildingBlock: XIVTED_clean_linker_0, # of connection points: 2
#     Edge 13, Type (0, 0), BuildingBlock: XIVTED_clean_linker_0, # of connection points: 2
#     Edge 14, Type (0, 0), BuildingBlock: XIVTED_clean_linker_0, # of connection points: 2
#     Edge 15, Type (0, 0), BuildingBlock: XIVTED_clean_linker_0, # of connection points: 2
#     Edge 16, Type (0, 0), BuildingBlock: XIVTED_clean_linker_0, # of connection points: 2
#     Edge 17, Type (0, 0), BuildingBlock: XIVTED_clean_linker_0, # of connection points: 2
#     Edge 18, Type (0, 0), BuildingBlock: XIVTED_clean_linker_0, # of connection points: 2
#     Edge 19, Type (0, 0), BuildingBlock: XIVTED_clean_linker_0, # of connection points: 2
#     Edge 20, Type (0, 0), BuildingBlock: XIVTED_clean_linker_0, # of connection points: 2
#     Edge 21, Type (0, 0), BuildingBlock: XIVTED_clean_linker_0, # of connection points: 2
#     Edge 22, Type (0, 0), BuildingBlock: XIVTED_clean_linker_0, # of connection points: 2
#     Edge 23, Type (0, 0), BuildingBlock: XIVTED_clean_linker_0, # of connection points: 2
# Relax obj value: 0.065
# Max RMSD: 0.103
# Mean RMSD: 0.103
data_MOF--net-umf--node1-ESEHIV_clean_sbu_0--edge1-XIVTED_clean_linker_0
_symmetry_space_group_name_H-M    P1
_symmetry_Int_Tables_number       1
_symmetry_cell_setting            triclinic
loop_
_symmetry_equiv_pos_as_xyz
'x, y, z'
_cell_length_a     34.339392
_cell_length_b     34.375527
_cell_length_c     52.39858
_cell_angle_alpha  90.165232
_cell_angle_beta   90.108732
_cell_angle_gamma 90.119708
loop_
_atom_site_label
_atom_site_type_symbol
_atom_site_fract_x
_atom_site_fract_y
_atom_site_fract_z
_atom_type_partial_charge
Cu0 Cu 0.03455 0.25153 0.16544 0.0
N1 N 1.00279 0.20826 0.17074 0.0
N2 N 0.98734 0.14599 0.17717 0.0
C3 C 0.01537 0.17336 0.17869 0.0
C4 C 0.95545 0.16459 0.16839 0.0
C5 C 0.96515 0.20308 0.16434 0.0
O6 O 0.07879 0.24594 0.18907 0.0
C7 C 0.03762 0.22877 0.11274 0.0
O8 O 0.03058 0.19382 0.12167 0.0
H9 H 0.045 0.16774 0.18448 0.0
H10 H 0.94673 0.2252 0.15604 0.0
N11 N 0.0073 0.29596 0.1753 0.0
N12 N 0.99043 0.35839 0.17963 0.0
C13 C 0.01659 0.3331 0.16986 0.0
C14 C 0.97431 0.29776 0.18907 0.0
C15 C 0.96376 0.33622 0.1917 0.0
C16 C 0.10579 0.22058 0.18779 0.0
O17 O 0.10935 0.19965 0.16691 0.0
H18 H 0.04181 0.34129 0.15874 0.0
H19 H 0.95911 0.27287 0.19679 0.0
O20 O 0.04455 0.25645 0.12847 0.0
H21 H 0.92792 0.1509 0.16372 0.0
H22 H 0.93883 0.34703 0.20213 0.0
Cu23 Cu 0.75897 0.03589 0.66755 0.0
N24 N 0.80119 1.00185 0.67007 0.0
N25 N 0.86348 0.98357 0.67167 0.0
C26 C 0.83722 0.01073 0.67854 0.0
C27 C 0.84323 0.95629 0.65868 0.0
C28 C 0.80473 0.96751 0.65788 0.0
O29 O 0.76758 0.07806 0.69245 0.0
C30 C 0.78149 0.04613 0.61543 0.0
O31 O 0.81698 0.0426 0.62449 0.0
H32 H 0.84484 0.03826 0.68726 0.0
H33 H 0.7816 0.95343 0.64725 0.0
N34 N 0.71357 0.00933 0.67699 0.0
N35 N 0.65067 0.99313 0.68121 0.0
C36 C 0.67634 0.02011 0.67277 0.0
C37 C 0.71139 0.97453 0.68858 0.0
C38 C 0.67273 0.96445 0.69117 0.0
C39 C 0.79444 0.10373 0.6917 0.0
O40 O 0.81591 0.10666 0.67106 0.0
H41 H 0.66834 0.04682 0.66323 0.0
H42 H 0.73622 0.95756 0.69461 0.0
O43 O 0.75313 0.04893 0.63109 0.0
H44 H 0.85583 0.93145 0.64903 0.0
H45 H 0.66175 0.93818 0.69996 0.0
Cu46 Cu 0.96688 0.75757 0.164 0.0
N47 N 1.00119 0.79828 0.17032 0.0
N48 N 0.02034 0.85935 0.1777 0.0
C49 C 0.98987 0.83471 0.17574 0.0
C50 C 0.05219 0.83734 0.17323 0.0
C51 C 0.04023 0.79962 0.1686 0.0
O52 O 0.92006 0.77128 0.18385 0.0
C53 C 0.98922 0.73959 0.11378 0.0
O54 O 0.01792 0.72305 0.12627 0.0
H55 H 0.95961 0.84315 0.17705 0.0
H56 H 0.05857 0.77518 0.16371 0.0
N57 N 0.98825 0.71109 0.17629 0.0
N58 N 1.00138 0.64799 0.18177 0.0
C59 C 0.97792 0.67429 0.17034 0.0
C60 C 0.01892 0.70787 0.19217 0.0
C61 C 0.02712 0.66908 0.19554 0.0
C62 C 0.92379 0.77109 0.20816 0.0
O63 O 0.95672 0.75862 0.21791 0.0
H64 H 0.95446 0.66704 0.15733 0.0
H65 H 0.03437 0.73208 0.20068 0.0
O66 O 0.96168 0.75538 0.12653 0.0
H67 H 0.08195 0.84774 0.1729 0.0
H68 H 0.05009 0.65732 0.20738 0.0
Cu69 Cu 0.25023 0.97161 0.66188 0.0
N70 N 0.21041 0.00775 0.6662 0.0
N71 N 0.14902 0.02799 0.6702 0.0
C72 C 0.17451 0.99909 0.67478 0.0
C73 C 0.16962 0.05607 0.65837 0.0
C74 C 0.20764 0.04357 0.65605 0.0
O75 O 0.23192 0.92603 0.68124 0.0
C76 C 0.2732 0.99088 0.6117 0.0
O77 O 0.2926 0.01798 0.62407 0.0
H78 H 0.16637 0.97076 0.68199 0.0
H79 H 0.23082 0.05827 0.64597 0.0
N80 N 0.29668 0.99155 0.6757 0.0
N81 N 0.35983 1.0042 0.68277 0.0
C82 C 0.33376 0.98144 0.67029 0.0
C83 C 0.29942 0.02135 0.69228 0.0
C84 C 0.33821 0.02925 0.69666 0.0
C85 C 0.2505 0.90917 0.6992 0.0
O86 O 0.28735 0.9177 0.70299 0.0
H87 H 0.34138 0.95874 0.65685 0.0
H88 H 0.27484 0.03668 0.70033 0.0
O89 O 0.25436 0.96542 0.62452 0.0
H90 H 0.15756 0.08264 0.65066 0.0
H91 H 0.34958 0.05172 0.70914 0.0
Cu92 Cu 0.04445 0.76467 0.87416 0.0
N93 N 1.0068 0.80328 0.86976 0.0
N94 N 0.98518 0.86435 0.86669 0.0
C95 C 0.01448 0.83957 0.86148 0.0
C96 C 0.95777 0.84283 0.87854 0.0
C97 C 0.97109 0.80502 0.88024 0.0
O98 O 0.09008 0.78539 0.85597 0.0
C99 C 0.04404 0.7844 0.92707 0.0
O100 O 0.0411 0.82 0.91825 0.0
H101 H 0.04261 0.84856 0.85429 0.0
H102 H 0.95733 0.78141 0.89046 0.0
N103 N 0.02758 0.71833 0.85855 0.0
N104 N 0.01769 0.65532 0.84932 0.0
C105 C 0.03132 0.68124 0.86672 0.0
C106 C 0.0108 0.71575 0.83541 0.0
C107 C 1.00474 0.67709 0.82965 0.0
C108 C 0.11153 0.76655 0.84039 0.0
O109 O 0.10831 0.72853 0.83901 0.0
H110 H 0.04486 0.67339 0.88465 0.0
H111 H 1.00408 0.74037 0.82338 0.0
O112 O 0.04954 0.75652 0.91129 0.0
H113 H 0.93126 0.85417 0.88684 0.0
H114 H 0.99182 0.66587 0.81226 0.0
Cu115 Cu 0.25096 0.03866 0.37234 0.0
N116 N 0.20929 1.0039 0.36917 0.0
N117 N 0.14741 0.98429 0.36666 0.0
C118 C 0.17335 0.0121 0.36036 0.0
C119 C 0.16777 0.95729 0.37965 0.0
C120 C 0.20606 0.96931 0.38096 0.0
O121 O 0.24114 0.08225 0.34893 0.0
C122 C 0.22953 0.04608 0.42478 0.0
O123 O 0.19395 0.04318 0.41573 0.0
H124 H 0.16548 0.03952 0.35174 0.0
H125 H 0.22917 0.95557 0.39169 0.0
N126 N 0.2961 0.01404 0.36068 0.0
N127 N 0.3587 0.9994 0.35383 0.0
C128 C 0.33328 0.01997 0.3682 0.0
C129 C 0.29809 0.98876 0.3411 0.0
C130 C 0.3366 0.97974 0.33679 0.0
C131 C 0.21337 0.10679 0.34998 0.0
O132 O 0.19108 0.10772 0.37033 0.0
H133 H 0.34159 0.04009 0.38319 0.0
H134 H 0.27325 0.97838 0.33031 0.0
O135 O 0.25782 0.04931 0.40911 0.0
H136 H 0.15533 0.9321 0.38895 0.0
H137 H 0.34752 0.96047 0.3221 0.0
Cu138 Cu 0.97696 0.25651 0.87443 0.0
N139 N 0.00997 0.21342 0.87153 0.0
N140 N 0.02659 0.15059 0.86988 0.0
C141 C 0.99989 0.17753 0.86334 0.0
C142 C 0.05479 0.17023 0.88242 0.0
C143 C 0.04457 0.20899 0.88328 0.0
O144 O 0.93314 0.24716 0.8509 0.0
C145 C 0.99189 0.27757 0.92543 0.0
O146 O 0.02149 0.2949 0.91441 0.0
H147 H 0.97208 0.17057 0.85477 0.0
H148 H 0.05981 0.23179 0.89349 0.0
N149 N 1.00233 0.30173 0.86288 0.0
N150 N 0.01717 0.3642 0.85517 0.0
C151 C 0.99311 0.33933 0.86752 0.0
C152 C 0.03314 0.30293 0.84711 0.0
C153 C 0.04232 0.34127 0.84231 0.0
C154 C 0.90769 0.22014 0.85211 0.0
O155 O 0.90565 0.19877 0.87282 0.0
H156 H 0.96889 0.34819 0.87936 0.0
H157 H 0.04775 0.2776 0.83948 0.0
O158 O 0.9664 0.26063 0.91138 0.0
H159 H 0.07982 0.15713 0.89156 0.0
H160 H 0.06592 0.35146 0.83038 0.0
Cu161 Cu 0.7582 0.97473 0.37759 0.0
N162 N 0.79974 0.00894 0.37305 0.0
N163 N 0.86186 0.02731 0.3696 0.0
C164 C 0.83577 0.9986 0.36558 0.0
C165 C 0.84155 0.05694 0.37994 0.0
C166 C 0.8031 0.04557 0.38194 0.0
O167 O 0.77169 0.9282 0.35729 0.0
C168 C 0.73689 0.99413 0.42803 0.0
O169 O 0.71841 0.02198 0.41596 0.0
H170 H 0.84337 0.96948 0.35947 0.0
H171 H 0.77985 0.06179 0.39088 0.0
N172 N 0.71209 0.99679 0.36482 0.0
N173 N 0.64926 0.0083 0.35633 0.0
C174 C 0.6749 0.98591 0.36926 0.0
C175 C 0.70977 0.02716 0.34875 0.0
C176 C 0.67115 0.03417 0.34337 0.0
C177 C 0.77202 0.93225 0.33301 0.0
O178 O 0.76093 0.96571 0.32344 0.0
H179 H 0.66686 0.96184 0.38145 0.0
H180 H 0.73454 0.04294 0.34133 0.0
O181 O 0.75467 0.96821 0.41493 0.0
H182 H 0.85399 0.08401 0.38677 0.0
H183 H 0.66 0.05684 0.33108 0.0
H184 H 0.9287 0.40763 0.18036 0.0
H185 H 0.06221 0.59816 0.18449 0.0
H186 H 0.05404 0.40499 0.17557 0.0
H187 H 0.93773 0.60233 0.17394 0.0
H188 H 0.05947 0.52726 0.18256 0.0
H189 H 0.93095 0.47877 0.17935 0.0
C190 C 0.9567 0.42201 0.17913 0.0
C191 C 0.99125 0.40028 0.17814 0.0
C192 C 0.03273 0.54362 0.18056 0.0
C193 C 0.99406 0.48172 0.1769 0.0
C194 C 0.03426 0.58412 0.18183 0.0
C195 C 1.0001 0.6062 0.17955 0.0
C196 C 0.99672 0.52486 0.17722 0.0
C197 C 0.96476 0.58644 0.17565 0.0
C198 C 0.95795 0.46261 0.17839 0.0
C199 C 0.02668 0.42048 0.17616 0.0
N200 N 0.96393 0.54687 0.1748 0.0
N201 N 0.02718 0.46002 0.17578 0.0
H202 H 0.41014 0.06458 0.68891 0.0
H203 H 0.60065 0.93182 0.6787 0.0
H204 H 0.40581 0.94152 0.67292 0.0
H205 H 0.60425 0.05721 0.68084 0.0
H206 H 0.52951 0.93438 0.67801 0.0
H207 H 0.48117 0.06208 0.68749 0.0
C208 C 0.42411 0.03696 0.6852 0.0
C209 C 0.40185 1.00314 0.68118 0.0
C210 C 0.54583 0.96135 0.67854 0.0
C211 C 0.48354 1.0001 0.67939 0.0
C212 C 0.58652 0.95992 0.6791 0.0
C213 C 0.60861 0.99437 0.67994 0.0
C214 C 0.52687 0.99751 0.67906 0.0
C215 C 0.58853 0.02994 0.67999 0.0
C216 C 0.46474 0.03561 0.68422 0.0
C217 C 0.42171 0.96833 0.67597 0.0
N218 N 0.54888 0.03057 0.67973 0.0
N219 N 0.46137 0.96766 0.6754 0.0
H220 H 0.99347 0.41266 0.89338 0.0
H221 H 0.0251 0.60489 0.80979 0.0
H222 H 0.0387 0.4122 0.81669 0.0
H223 H 0.01152 0.60937 0.89152 0.0
H224 H 0.0242 0.53399 0.81161 0.0
H225 H 0.99375 0.48424 0.89275 0.0
C226 C 1.00324 0.42757 0.87639 0.0
C227 C 0.0162 0.40631 0.85508 0.0
C228 C 0.02145 0.55037 0.8292 0.0
C229 C 0.01658 0.48815 0.85421 0.0
C230 C 0.02173 0.59096 0.82815 0.0
C231 C 0.01823 0.61325 0.85052 0.0
C232 C 0.01721 0.53153 0.85279 0.0
C233 C 0.01457 0.59338 0.87383 0.0
C234 C 1.00366 0.4684 0.8761 0.0
C235 C 0.02892 0.42724 0.83366 0.0
N236 N 0.01391 0.55367 0.87435 0.0
N237 N 0.02862 0.46681 0.83374 0.0
H238 H 0.40436 0.00722 0.39602 0.0
H239 H 0.60151 0.0215 0.31623 0.0
H240 H 0.40902 0.99354 0.31429 0.0
H241 H 0.60133 0.98892 0.39558 0.0
H242 H 0.53032 0.0189 0.31601 0.0
H243 H 0.47602 0.0081 0.39724 0.0
C244 C 0.42046 1.00453 0.37837 0.0
C245 C 0.40071 1.00017 0.35503 0.0
C246 C 0.5458 0.01219 0.33348 0.0
C247 C 0.48241 1.00142 0.35624 0.0
C248 C 0.58641 0.01387 0.33363 0.0
C249 C 0.60733 1.00543 0.35596 0.0
C250 C 0.52572 1.00263 0.35593 0.0
C251 C 0.58628 0.9953 0.37793 0.0
C252 C 0.46126 1.00477 0.37908 0.0
C253 C 0.423 0.9965 0.33271 0.0
N254 N 0.54657 0.9945 0.37745 0.0
N255 N 0.46254 0.99748 0.33385 0.0
H256 H 0.02628 0.32646 0.95972 0.0
H257 H 0.01089 0.17813 0.07625 0.0
H258 H 0.96051 0.21966 0.95562 0.0
H259 H 0.04912 0.29697 0.08575 0.0
H260 H 0.99576 0.1916 0.03162 0.0
H261 H 0.03668 0.31574 1.00532 0.0
C262 C 0.01352 0.30096 0.9685 0.0
C263 C 0.99236 0.27396 0.95375 0.0
C264 C 0.00746 0.21476 0.04342 0.0
C265 C 1.00505 0.26101 1.00612 0.0
C266 C 0.01646 0.20705 0.06896 0.0
C267 C 0.03153 0.23642 0.08496 0.0
C268 C 0.01385 0.25209 0.03347 0.0
C269 C 0.03774 0.27335 0.07423 0.0
C270 C 0.0196 0.29483 0.99458 0.0
C271 C 0.97666 0.24143 0.96623 0.0
N272 N 0.02902 0.28006 0.04919 0.0
N273 N 0.98372 0.23563 0.9916 0.0
H274 H 0.83405 0.02305 0.57926 0.0
H275 H 0.68737 0.03011 0.46112 0.0
H276 H 0.71294 0.0535 0.58796 0.0
H277 H 0.79492 0.96567 0.45937 0.0
H278 H 0.69714 0.04246 0.5067 0.0
H279 H 0.82185 0.00707 0.53453 0.0
C280 C 0.80489 0.0268 0.57176 0.0
C281 C 0.7745 0.03989 0.58757 0.0
C282 C 0.71844 0.02529 0.49645 0.0
C283 C 0.76033 0.02124 0.53598 0.0
C284 C 0.71287 0.01814 0.4704 0.0
C285 C 0.74033 0.99669 0.45633 0.0
C286 C 0.75215 0.01161 0.50863 0.0
C287 C 0.77283 0.98203 0.46944 0.0
C288 C 0.79792 0.01729 0.54618 0.0
C289 C 0.73732 0.0437 0.57659 0.0
N290 N 0.77806 0.99014 0.49475 0.0
N291 N 0.73133 0.03459 0.5515 0.0
H292 H 0.02937 0.69224 0.08139 0.0
H293 H 0.01462 0.83523 0.96232 0.0
H294 H 0.95703 0.79461 0.08172 0.0
H295 H 0.05349 0.71649 0.9547 0.0
H296 H 0.99764 0.82261 1.00675 0.0
H297 H 0.0415 0.70165 0.03584 0.0
C298 C 0.01566 0.71652 0.07182 0.0
C299 C 0.99207 0.74266 0.08549 0.0
C300 C 0.00986 0.79927 0.9954 0.0
C301 C 1.00662 0.75408 0.03319 0.0
C302 C 0.01991 0.8065 0.96999 0.0
C303 C 0.03579 0.77693 0.9546 0.0
C304 C 0.01612 0.76228 1.00587 0.0
C305 C 0.04149 0.74023 0.96576 0.0
C306 C 0.02266 0.72186 0.04577 0.0
C307 C 0.97516 0.77357 0.07198 0.0
N308 N 0.0319 0.73403 0.99071 0.0
N309 N 0.98314 0.77869 0.04668 0.0
H310 H 0.17676 0.02259 0.46067 0.0
H311 H 0.3234 0.02673 0.57896 0.0
H312 H 0.29823 0.05225 0.4523 0.0
H313 H 0.21477 0.96361 0.58004 0.0
H314 H 0.31392 0.03972 0.53348 0.0
H315 H 0.18874 1.00585 0.50523 0.0
C316 C 0.20596 0.02598 0.46821 0.0
C317 C 0.23651 0.03909 0.45254 0.0
C318 C 0.29232 0.02271 0.54356 0.0
C319 C 0.25042 0.01959 0.50395 0.0
C320 C 0.29771 0.01518 0.56956 0.0
C321 C 0.26987 0.99392 0.58342 0.0
C322 C 0.25842 0.00956 0.53123 0.0
C323 C 0.23716 0.97983 0.57015 0.0
C324 C 0.2128 0.01605 0.49369 0.0
C325 C 0.27374 0.04244 0.46357 0.0
N326 N 0.23213 0.98828 0.54491 0.0
N327 N 0.27959 0.03293 0.48858 0.0
H328 H 0.16619 0.16857 0.19259 0.0
H329 H 0.15754 0.16368 0.34525 0.0
H330 H 0.09474 0.24633 0.23708 0.0
H331 H 0.24343 0.1012 0.30141 0.0
H332 H 0.13532 0.1954 0.30607 0.0
H333 H 0.19602 0.14489 0.23207 0.0
C334 C 0.15706 0.18106 0.2106 0.0
C335 C 0.12776 0.20955 0.21135 0.0
C336 C 0.15928 0.17504 0.30503 0.0
C337 C 0.16157 0.18196 0.25693 0.0
C338 C 0.17206 0.15689 0.32746 0.0
C339 C 0.20245 0.12957 0.32678 0.0
C340 C 0.17665 0.16561 0.28152 0.0
C341 C 0.21997 0.12205 0.30301 0.0
C342 C 0.1741 0.16742 0.23321 0.0
C343 C 0.1172 0.22443 0.23542 0.0
N344 N 0.20662 0.13962 0.2814 0.0
N345 N 0.13376 0.21024 0.25715 0.0
H346 H 0.91477 0.24881 0.80333 0.0
H347 H 0.76658 0.09442 0.74058 0.0
H348 H 0.85055 0.1642 0.84711 0.0
H349 H 0.84804 0.16288 0.69696 0.0
H350 H 0.79012 0.12603 0.77964 0.0
H351 H 0.88373 0.22417 0.76442 0.0
C352 C 0.89377 0.22539 0.80488 0.0
C353 C 0.88546 0.20857 0.82871 0.0
C354 C 0.80264 0.13436 0.76151 0.0
C355 C 0.84976 0.17995 0.78388 0.0
C356 C 0.78906 0.11644 0.73911 0.0
C357 C 0.80535 0.12582 0.71529 0.0
C358 C 0.83264 0.16219 0.76023 0.0
C359 C 0.8346 0.15453 0.7148 0.0
C360 C 0.87618 0.21118 0.78255 0.0
C361 C 0.85803 0.17811 0.82927 0.0
N362 N 0.84732 0.17154 0.73685 0.0
N363 N 0.84133 0.16476 0.80727 0.0
H364 H 0.81613 0.86709 0.34432 0.0
H365 H 0.86192 0.81963 0.1967 0.0
H366 H 0.76561 0.92948 0.28112 0.0
H367 H 0.91955 0.76373 0.25991 0.0
H368 H 0.82037 0.85457 0.22724 0.0
H369 H 0.84833 0.82344 0.31372 0.0
C370 C 0.81134 0.87131 0.32408 0.0
C371 C 0.78825 0.90223 0.31537 0.0
C372 C 0.84187 0.83435 0.2344 0.0
C373 C 0.82527 0.85251 0.28013 0.0
C374 C 0.86545 0.81421 0.21692 0.0
C375 C 0.89447 0.78879 0.22567 0.0
C376 C 0.84723 0.82898 0.26085 0.0
C377 C 0.89781 0.78322 0.2522 0.0
C378 C 0.8299 0.8465 0.30657 0.0
C379 C 0.78335 0.9063 0.28882 0.0
N380 N 0.87476 0.80322 0.26876 0.0
N381 N 0.80178 0.882 0.27224 0.0
H382 H 0.1729 0.91118 0.71165 0.0
H383 H 0.17568 0.74073 0.81404 0.0
H384 H 0.28011 0.85315 0.73111 0.0
H385 H 0.09998 0.84003 0.82158 0.0
H386 H 0.20991 0.774 0.77911 0.0
H387 H 0.14037 0.87688 0.74667 0.0
C388 C 0.18949 0.89076 0.72299 0.0
C389 C 0.22937 0.88502 0.71833 0.0
C390 C 0.18597 0.78852 0.78856 0.0
C391 C 0.19211 0.84555 0.75849 0.0
C392 C 0.16646 0.76962 0.80851 0.0
C393 C 0.13509 0.78771 0.82097 0.0
C394 C 0.17331 0.82532 0.78043 0.0
C395 C 0.12426 0.82511 0.8128 0.0
C396 C 0.17096 0.8715 0.74314 0.0
C397 C 0.24937 0.8585 0.73398 0.0
N398 N 0.14297 0.84241 0.79289 0.0
N399 N 0.23053 0.83959 0.75322 0.0
H400 H 0.93292 0.09269 0.19097 0.0
H401 H 0.07437 0.91344 0.16403 0.0
H402 H 0.05373 0.10491 0.16989 0.0
H403 H 0.96146 0.90076 0.19926 0.0
H404 H 0.06749 0.98384 0.16666 0.0
H405 H 0.94224 0.02214 0.19404 0.0
C406 C 0.96137 0.08055 0.18709 0.0
C407 C 0.99256 0.10473 0.18026 0.0
C408 C 0.0443 0.96563 0.17395 0.0
C409 C 1.0035 0.02434 0.18367 0.0
C410 C 0.04832 0.92532 0.17258 0.0
C411 C 0.01827 0.90093 0.18114 0.0
C412 C 0.00989 0.98176 0.18381 0.0
C413 C 0.98501 0.91828 0.19184 0.0
C414 C 0.96676 0.04039 0.18897 0.0
C415 C 0.02897 0.08756 0.17561 0.0
N416 N 0.98158 0.95761 0.19267 0.0
N417 N 0.03334 0.04846 0.17724 0.0
H418 H 0.10784 1.00161 0.71047 0.0
H419 H 0.91322 0.97417 0.63239 0.0
H420 H 0.09592 0.04588 0.63405 0.0
H421 H 0.90781 1.00508 0.71202 0.0
H422 H 0.98353 0.98728 0.6328 0.0
H423 H 0.03685 0.99094 0.71197 0.0
C424 C 0.09011 0.00937 0.69416 0.0
C425 C 0.1074 0.02495 0.67221 0.0
C426 C 0.96694 0.99099 0.6502 0.0
C427 C 0.02716 0.01178 0.67343 0.0
C428 C 0.92708 0.98314 0.65004 0.0
C429 C 0.90504 0.98831 0.67227 0.0
C430 C 0.98498 1.00322 0.6729 0.0
C431 C 0.92407 1.00072 0.69457 0.0
C432 C 0.04986 1.00333 0.69501 0.0
C433 C 0.08348 0.03433 0.65142 0.0
N434 N 0.96316 0.00744 0.69443 0.0
N435 N 0.04459 0.02709 0.65239 0.0
H436 H 0.03856 0.09918 0.90793 0.0
H437 H 0.00827 0.90798 0.82666 0.0
H438 H 1.00196 0.10778 0.82949 0.0
H439 H 0.96925 0.91532 0.90457 0.0
H440 H 0.01765 0.97915 0.82642 0.0
H441 H 0.02598 0.02884 0.90652 0.0
C442 C 0.02835 0.08607 0.89033 0.0
C443 C 0.02146 0.10905 0.86873 0.0
C444 C 1.00669 0.96512 0.84345 0.0
C445 C 0.00728 0.02896 0.86694 0.0
C446 C 1.00138 0.92475 0.84358 0.0
C447 C 0.98759 0.9061 0.86556 0.0
C448 C 0.99939 0.98661 0.86574 0.0
C449 C 0.97936 0.92882 0.88715 0.0
C450 C 0.02085 0.04615 0.88961 0.0
C451 C 0.0076 0.09086 0.84648 0.0
N452 N 0.9859 0.96785 0.88684 0.0
N453 N 1.00131 0.05172 0.84603 0.0
H454 H 0.91438 0.04799 0.40556 0.0
H455 H 0.10369 1.00293 0.3256 0.0
H456 H 0.90359 0.99708 0.33067 0.0
H457 H 0.09712 0.97624 0.40571 0.0
H458 H 0.0327 0.0141 0.32517 0.0
H459 H 0.98492 0.03636 0.40422 0.0
C460 C 0.92707 0.03493 0.3887 0.0
C461 C 0.90346 0.02357 0.36813 0.0
C462 C 0.04689 1.00552 0.34275 0.0
C463 C 0.9836 0.01046 0.36641 0.0
C464 C 0.08711 0.99918 0.34298 0.0
C465 C 0.10582 0.98821 0.36563 0.0
C466 C 0.02576 1.00212 0.36554 0.0
C467 C 0.08346 0.98405 0.38782 0.0
C468 C 0.96708 0.02799 0.38804 0.0
C469 C 0.92106 1.00616 0.34684 0.0
N470 N 0.04462 0.99149 0.38731 0.0
N471 N 0.96025 1.00038 0.3464 0.0
loop_
_geom_bond_atom_site_label_1
_geom_bond_atom_site_label_2
_geom_bond_distance
_geom_bond_site_symmetry_2
_ccdc_geom_bond_type
Cu0 N1 1.999 . S
Cu0 O6 1.974 . S
Cu0 N11 1.985 . S
Cu0 O20 1.959 . S
N1 Cu0 1.999 . S
N1 C3 1.263 . S
N1 C5 1.389 . S
N2 C3 1.358 . S
N2 C4 1.400 . S
C3 N1 1.263 . S
C3 N2 1.358 . S
C3 H9 0.930 . S
C4 N2 1.400 . S
C4 C5 1.351 . S
C4 H21 0.930 1_455 S
C5 N1 1.389 . S
C5 C4 1.351 . S
C5 H10 0.930 1_455 S
O6 Cu0 1.974 . S
O6 C16 1.282 . S
C7 O8 1.261 . S
C7 O20 1.251 . S
O8 C7 1.261 . S
H9 C3 0.930 . S
H10 C5 0.930 1_655 S
N11 Cu0 1.985 . S
N11 C13 1.335 . S
N11 C14 1.390 . S
N12 C13 1.345 . S
N12 C15 1.336 . S
C13 N11 1.335 . S
C13 N12 1.345 . S
C13 H18 0.930 . S
C14 N11 1.390 . S
C14 C15 1.346 . S
C14 H19 0.930 . S
C15 N12 1.336 . S
C15 C14 1.346 . S
C15 H22 0.929 . S
C16 O6 1.282 . S
C16 O17 1.216 . S
O17 C16 1.216 . S
H18 C13 0.930 . S
H19 C14 0.930 . S
O20 Cu0 1.959 . S
O20 C7 1.251 . S
H21 C4 0.930 1_655 S
H22 C15 0.929 . S
Cu23 N24 1.999 . S
Cu23 O29 1.974 . S
Cu23 N34 1.985 . S
Cu23 O43 1.959 . S
N24 Cu23 1.999 . S
N24 C26 1.263 . S
N24 C28 1.389 . S
N25 C26 1.358 . S
N25 C27 1.400 . S
C26 N24 1.263 . S
C26 N25 1.358 . S
C26 H32 0.930 . S
C27 N25 1.400 . S
C27 C28 1.351 . S
C27 H44 0.930 1_545 S
C28 N24 1.389 . S
C28 C27 1.351 . S
C28 H33 0.930 1_545 S
O29 Cu23 1.974 . S
O29 C39 1.282 . S
C30 O31 1.261 . S
C30 O43 1.251 . S
O31 C30 1.261 . S
H32 C26 0.930 . S
H33 C28 0.930 1_565 S
N34 Cu23 1.985 . S
N34 C36 1.335 . S
N34 C37 1.390 . S
N35 C36 1.345 . S
N35 C38 1.336 . S
C36 N34 1.335 . S
C36 N35 1.345 . S
C36 H41 0.930 . S
C37 N34 1.390 . S
C37 C38 1.346 . S
C37 H42 0.930 . S
C38 N35 1.336 . S
C38 C37 1.346 . S
C38 H45 0.929 . S
C39 O29 1.282 . S
C39 O40 1.216 . S
O40 C39 1.216 . S
H41 C36 0.930 . S
H42 C37 0.930 . S
O43 Cu23 1.959 . S
O43 C30 1.251 . S
H44 C27 0.930 1_565 S
H45 C38 0.929 . S
Cu46 N47 1.999 . S
Cu46 O52 1.974 . S
Cu46 N57 1.985 . S
Cu46 O66 1.959 . S
N47 Cu46 1.999 . S
N47 C49 1.263 . S
N47 C51 1.389 . S
N48 C49 1.358 . S
N48 C50 1.400 . S
C49 N47 1.263 . S
C49 N48 1.358 . S
C49 H55 0.930 . S
C50 N48 1.400 . S
C50 C51 1.351 . S
C50 H67 0.930 1_655 S
C51 N47 1.389 . S
C51 C50 1.351 . S
C51 H56 0.930 1_655 S
O52 Cu46 1.974 . S
O52 C62 1.282 . S
C53 O54 1.261 . S
C53 O66 1.251 . S
O54 C53 1.261 . S
H55 C49 0.930 . S
H56 C51 0.930 1_455 S
N57 Cu46 1.985 . S
N57 C59 1.335 . S
N57 C60 1.390 . S
N58 C59 1.345 . S
N58 C61 1.336 . S
C59 N57 1.335 . S
C59 N58 1.345 . S
C59 H64 0.930 . S
C60 N57 1.390 . S
C60 C61 1.346 . S
C60 H65 0.930 . S
C61 N58 1.336 . S
C61 C60 1.346 . S
C61 H68 0.929 . S
C62 O52 1.282 . S
C62 O63 1.216 . S
O63 C62 1.216 . S
H64 C59 0.930 . S
H65 C60 0.930 . S
O66 Cu46 1.959 . S
O66 C53 1.251 . S
H67 C50 0.930 1_455 S
H68 C61 0.929 . S
Cu69 N70 1.999 . S
Cu69 O75 1.974 . S
Cu69 N80 1.985 . S
Cu69 O89 1.959 . S
N70 Cu69 1.999 . S
N70 C72 1.263 . S
N70 C74 1.389 . S
N71 C72 1.358 . S
N71 C73 1.400 . S
C72 N70 1.263 . S
C72 N71 1.358 . S
C72 H78 0.930 . S
C73 N71 1.400 . S
C73 C74 1.351 . S
C73 H90 0.930 1_565 S
C74 N70 1.389 . S
C74 C73 1.351 . S
C74 H79 0.930 1_565 S
O75 Cu69 1.974 . S
O75 C85 1.282 . S
C76 O77 1.261 . S
C76 O89 1.251 . S
O77 C76 1.261 . S
H78 C72 0.930 . S
H79 C74 0.930 1_545 S
N80 Cu69 1.985 . S
N80 C82 1.335 . S
N80 C83 1.390 . S
N81 C82 1.345 . S
N81 C84 1.336 . S
C82 N80 1.335 . S
C82 N81 1.345 . S
C82 H87 0.930 . S
C83 N80 1.390 . S
C83 C84 1.346 . S
C83 H88 0.930 . S
C84 N81 1.336 . S
C84 C83 1.346 . S
C84 H91 0.929 . S
C85 O75 1.282 . S
C85 O86 1.216 . S
O86 C85 1.216 . S
H87 C82 0.930 . S
H88 C83 0.930 . S
O89 Cu69 1.959 . S
O89 C76 1.251 . S
H90 C73 0.930 1_545 S
H91 C84 0.929 . S
Cu92 N93 1.999 . S
Cu92 O98 1.974 . S
Cu92 N103 1.985 . S
Cu92 O112 1.959 . S
N93 Cu92 1.999 . S
N93 C95 1.263 . S
N93 C97 1.389 . S
N94 C95 1.358 . S
N94 C96 1.400 . S
C95 N93 1.263 . S
C95 N94 1.358 . S
C95 H101 0.930 . S
C96 N94 1.400 . S
C96 C97 1.351 . S
C96 H113 0.930 1_455 S
C97 N93 1.389 . S
C97 C96 1.351 . S
C97 H102 0.930 1_455 S
O98 Cu92 1.974 . S
O98 C108 1.282 . S
C99 O100 1.261 . S
C99 O112 1.251 . S
O100 C99 1.261 . S
H101 C95 0.930 . S
H102 C97 0.930 1_655 S
N103 Cu92 1.985 . S
N103 C105 1.335 . S
N103 C106 1.390 . S
N104 C105 1.345 . S
N104 C107 1.336 . S
C105 N103 1.335 . S
C105 N104 1.345 . S
C105 H110 0.930 . S
C106 N103 1.390 . S
C106 C107 1.346 . S
C106 H111 0.930 . S
C107 N104 1.336 . S
C107 C106 1.346 . S
C107 H114 0.929 . S
C108 O98 1.282 . S
C108 O109 1.216 . S
O109 C108 1.216 . S
H110 C105 0.930 . S
H111 C106 0.930 . S
O112 Cu92 1.959 . S
O112 C99 1.251 . S
H113 C96 0.930 1_655 S
H114 C107 0.929 . S
Cu115 N116 1.999 . S
Cu115 O121 1.974 . S
Cu115 N126 1.985 . S
Cu115 O135 1.959 . S
N116 Cu115 1.999 . S
N116 C118 1.263 . S
N116 C120 1.389 . S
N117 C118 1.358 . S
N117 C119 1.400 . S
C118 N116 1.263 . S
C118 N117 1.358 . S
C118 H124 0.930 . S
C119 N117 1.400 . S
C119 C120 1.351 . S
C119 H136 0.930 1_545 S
C120 N116 1.389 . S
C120 C119 1.351 . S
C120 H125 0.930 1_545 S
O121 Cu115 1.974 . S
O121 C131 1.282 . S
C122 O123 1.261 . S
C122 O135 1.251 . S
O123 C122 1.261 . S
H124 C118 0.930 . S
H125 C120 0.930 1_565 S
N126 Cu115 1.985 . S
N126 C128 1.335 . S
N126 C129 1.390 . S
N127 C128 1.345 . S
N127 C130 1.336 . S
C128 N126 1.335 . S
C128 N127 1.345 . S
C128 H133 0.930 . S
C129 N126 1.390 . S
C129 C130 1.346 . S
C129 H134 0.930 . S
C130 N127 1.336 . S
C130 C129 1.346 . S
C130 H137 0.929 . S
C131 O121 1.282 . S
C131 O132 1.216 . S
O132 C131 1.216 . S
H133 C128 0.930 . S
H134 C129 0.930 . S
O135 Cu115 1.959 . S
O135 C122 1.251 . S
H136 C119 0.930 1_565 S
H137 C130 0.929 . S
Cu138 N139 1.999 . S
Cu138 O144 1.974 . S
Cu138 N149 1.985 . S
Cu138 O158 1.959 . S
N139 Cu138 1.999 . S
N139 C141 1.263 . S
N139 C143 1.389 . S
N140 C141 1.358 . S
N140 C142 1.400 . S
C141 N139 1.263 . S
C141 N140 1.358 . S
C141 H147 0.930 . S
C142 N140 1.400 . S
C142 C143 1.351 . S
C142 H159 0.930 1_655 S
C143 N139 1.389 . S
C143 C142 1.351 . S
C143 H148 0.930 1_655 S
O144 Cu138 1.974 . S
O144 C154 1.282 . S
C145 O146 1.261 . S
C145 O158 1.251 . S
O146 C145 1.261 . S
H147 C141 0.930 . S
H148 C143 0.930 1_455 S
N149 Cu138 1.985 . S
N149 C151 1.335 . S
N149 C152 1.390 . S
N150 C151 1.345 . S
N150 C153 1.336 . S
C151 N149 1.335 . S
C151 N150 1.345 . S
C151 H156 0.930 . S
C152 N149 1.390 . S
C152 C153 1.346 . S
C152 H157 0.930 . S
C153 N150 1.336 . S
C153 C152 1.346 . S
C153 H160 0.929 . S
C154 O144 1.282 . S
C154 O155 1.216 . S
O155 C154 1.216 . S
H156 C151 0.930 . S
H157 C152 0.930 . S
O158 Cu138 1.959 . S
O158 C145 1.251 . S
H159 C142 0.930 1_455 S
H160 C153 0.929 . S
Cu161 N162 1.999 . S
Cu161 O167 1.974 . S
Cu161 N172 1.985 . S
Cu161 O181 1.959 . S
N162 Cu161 1.999 . S
N162 C164 1.263 . S
N162 C166 1.389 . S
N163 C164 1.358 . S
N163 C165 1.400 . S
C164 N162 1.263 . S
C164 N163 1.358 . S
C164 H170 0.930 . S
C165 N163 1.400 . S
C165 C166 1.351 . S
C165 H182 0.930 1_565 S
C166 N162 1.389 . S
C166 C165 1.351 . S
C166 H171 0.930 1_565 S
O167 Cu161 1.974 . S
O167 C177 1.282 . S
C168 O169 1.261 . S
C168 O181 1.251 . S
O169 C168 1.261 . S
H170 C164 0.930 . S
H171 C166 0.930 1_545 S
N172 Cu161 1.985 . S
N172 C174 1.335 . S
N172 C175 1.390 . S
N173 C174 1.345 . S
N173 C176 1.336 . S
C174 N172 1.335 . S
C174 N173 1.345 . S
C174 H179 0.930 . S
C175 N172 1.390 . S
C175 C176 1.346 . S
C175 H180 0.930 . S
C176 N173 1.336 . S
C176 C175 1.346 . S
C176 H183 0.929 . S
C177 O167 1.282 . S
C177 O178 1.216 . S
O178 C177 1.216 . S
H179 C174 0.930 . S
H180 C175 0.930 . S
O181 Cu161 1.959 . S
O181 C168 1.251 . S
H182 C165 0.930 1_545 S
H183 C176 0.929 . S
H184 C190 0.930 1_655 S
H185 C194 0.930 1_455 S
H186 C199 0.929 . S
H187 C197 0.929 . S
H188 C192 0.929 . S
H189 C198 0.929 . S
C190 H184 0.930 1_455 S
C190 C191 1.367 . S
C190 C198 1.378 1_455 S
C191 C190 1.367 . S
C191 C199 1.433 . S
C192 H188 0.929 . S
C192 C194 1.378 1_455 S
C192 C196 1.350 1_455 S
C193 C196 1.463 1_455 S
C193 C198 1.350 1_455 S
C193 N201 1.427 . S
C194 H185 0.930 1_655 S
C194 C192 1.378 1_655 S
C194 C195 1.367 . S
C195 C194 1.367 . S
C195 C197 1.433 . S
C196 C192 1.350 1_655 S
C196 C193 1.463 1_655 S
C196 N200 1.427 . S
C197 H187 0.929 . S
C197 C195 1.433 . S
C197 N200 1.384 . S
C198 H189 0.929 . S
C198 C190 1.378 1_655 S
C198 C193 1.350 1_655 S
C199 H186 0.929 . S
C199 C191 1.433 . S
C199 N201 1.384 . S
N200 C196 1.427 . S
N200 C197 1.384 . S
N201 C193 1.427 . S
N201 C199 1.384 . S
H202 C208 0.930 1_545 S
H203 C212 0.930 1_565 S
H204 C217 0.929 . S
H205 C215 0.929 . S
H206 C210 0.929 . S
H207 C216 0.929 . S
C208 H202 0.930 1_565 S
C208 C209 1.367 . S
C208 C216 1.378 1_565 S
C209 C208 1.367 . S
C209 C217 1.433 . S
C210 H206 0.929 . S
C210 C212 1.378 1_565 S
C210 C214 1.350 1_565 S
C211 C214 1.463 1_565 S
C211 C216 1.350 1_565 S
C211 N219 1.427 . S
C212 H203 0.930 1_545 S
C212 C210 1.378 1_545 S
C212 C213 1.367 . S
C213 C212 1.367 . S
C213 C215 1.433 . S
C214 C210 1.350 1_545 S
C214 C211 1.463 1_545 S
C214 N218 1.427 . S
C215 H205 0.929 . S
C215 C213 1.433 . S
C215 N218 1.384 . S
C216 H207 0.929 . S
C216 C208 1.378 1_545 S
C216 C211 1.350 1_545 S
C217 H204 0.929 . S
C217 C209 1.433 . S
C217 N219 1.384 . S
N218 C214 1.427 . S
N218 C215 1.384 . S
N219 C211 1.427 . S
N219 C217 1.384 . S
H220 C226 0.930 1_455 S
H221 C230 0.930 1_655 S
H222 C235 0.929 . S
H223 C233 0.929 . S
H224 C228 0.929 . S
H225 C234 0.929 . S
C226 H220 0.930 1_655 S
C226 C227 1.367 . S
C226 C234 1.378 1_655 S
C227 C226 1.367 . S
C227 C235 1.433 . S
C228 H224 0.929 . S
C228 C230 1.378 1_655 S
C228 C232 1.350 1_655 S
C229 C232 1.463 1_655 S
C229 C234 1.350 1_655 S
C229 N237 1.427 . S
C230 H221 0.930 1_455 S
C230 C228 1.378 1_455 S
C230 C231 1.367 . S
C231 C230 1.367 . S
C231 C233 1.433 . S
C232 C228 1.350 1_455 S
C232 C229 1.463 1_455 S
C232 N236 1.427 . S
C233 H223 0.929 . S
C233 C231 1.433 . S
C233 N236 1.384 . S
C234 H225 0.929 . S
C234 C226 1.378 1_455 S
C234 C229 1.350 1_455 S
C235 H222 0.929 . S
C235 C227 1.433 . S
C235 N237 1.384 . S
N236 C232 1.427 . S
N236 C233 1.384 . S
N237 C229 1.427 . S
N237 C235 1.384 . S
H238 C244 0.930 1_565 S
H239 C248 0.930 1_545 S
H240 C253 0.929 . S
H241 C251 0.929 . S
H242 C246 0.929 . S
H243 C252 0.929 . S
C244 H238 0.930 1_545 S
C244 C245 1.367 . S
C244 C252 1.378 1_545 S
C245 C244 1.367 . S
C245 C253 1.433 . S
C246 H242 0.929 . S
C246 C248 1.378 1_545 S
C246 C250 1.350 1_545 S
C247 C250 1.463 1_545 S
C247 C252 1.350 1_545 S
C247 N255 1.427 . S
C248 H239 0.930 1_565 S
C248 C246 1.378 1_565 S
C248 C249 1.367 . S
C249 C248 1.367 . S
C249 C251 1.433 . S
C250 C246 1.350 1_565 S
C250 C247 1.463 1_565 S
C250 N254 1.427 . S
C251 H241 0.929 . S
C251 C249 1.433 . S
C251 N254 1.384 . S
C252 H243 0.929 . S
C252 C244 1.378 1_565 S
C252 C247 1.350 1_565 S
C253 H240 0.929 . S
C253 C245 1.433 . S
C253 N255 1.384 . S
N254 C250 1.427 . S
N254 C251 1.384 . S
N255 C247 1.427 . S
N255 C253 1.384 . S
H256 C262 0.930 . S
H257 C266 0.930 . S
H258 C271 0.929 . S
H259 C269 0.929 . S
H260 C264 0.929 . S
H261 C270 0.929 . S
C262 H256 0.930 . S
C262 C263 1.367 . S
C262 C270 1.378 . S
C263 C262 1.367 . S
C263 C271 1.433 1_655 S
C264 H260 0.929 . S
C264 C266 1.378 . S
C264 C268 1.350 . S
C265 C268 1.463 1_656 S
C265 C270 1.350 . S
C265 N273 1.427 1_655 S
C266 H257 0.930 . S
C266 C264 1.378 . S
C266 C267 1.367 . S
C267 C266 1.367 . S
C267 C269 1.433 1_455 S
C268 C264 1.350 . S
C268 C265 1.463 1_454 S
C268 N272 1.427 1_455 S
C269 H259 0.929 . S
C269 C267 1.433 1_655 S
C269 N272 1.384 . S
C270 H261 0.929 . S
C270 C262 1.378 . S
C270 C265 1.350 . S
C271 H258 0.929 . S
C271 C263 1.433 1_455 S
C271 N273 1.384 . S
N272 C268 1.427 1_655 S
N272 C269 1.384 . S
N273 C265 1.427 1_455 S
N273 C271 1.384 . S
H274 C280 0.930 . S
H275 C284 0.930 . S
H276 C289 0.929 . S
H277 C287 0.929 . S
H278 C282 0.929 . S
H279 C288 0.929 . S
C280 H274 0.930 . S
C280 C281 1.367 . S
C280 C288 1.378 . S
C281 C280 1.367 . S
C281 C289 1.433 1_545 S
C282 H278 0.929 . S
C282 C284 1.378 . S
C282 C286 1.350 . S
C283 C286 1.463 1_545 S
C283 C288 1.350 . S
C283 N291 1.427 1_545 S
C284 H275 0.930 . S
C284 C282 1.378 . S
C284 C285 1.367 . S
C285 C284 1.367 . S
C285 C287 1.433 1_565 S
C286 C282 1.350 . S
C286 C283 1.463 1_565 S
C286 N290 1.427 1_565 S
C287 H277 0.929 . S
C287 C285 1.433 1_545 S
C287 N290 1.384 . S
C288 H279 0.929 . S
C288 C280 1.378 . S
C288 C283 1.350 . S
C289 H276 0.929 . S
C289 C281 1.433 1_565 S
C289 N291 1.384 . S
N290 C286 1.427 1_545 S
N290 C287 1.384 . S
N291 C283 1.427 1_565 S
N291 C289 1.384 . S
H292 C298 0.930 . S
H293 C302 0.930 . S
H294 C307 0.929 . S
H295 C305 0.929 . S
H296 C300 0.929 . S
H297 C306 0.929 . S
C298 H292 0.930 . S
C298 C299 1.367 . S
C298 C306 1.378 . S
C299 C298 1.367 . S
C299 C307 1.433 1_655 S
C300 H296 0.929 . S
C300 C302 1.378 . S
C300 C304 1.350 . S
C301 C304 1.463 1_654 S
C301 C306 1.350 . S
C301 N309 1.427 1_655 S
C302 H293 0.930 . S
C302 C300 1.378 . S
C302 C303 1.367 . S
C303 C302 1.367 . S
C303 C305 1.433 1_455 S
C304 C300 1.350 . S
C304 C301 1.463 1_456 S
C304 N308 1.427 1_455 S
C305 H295 0.929 . S
C305 C303 1.433 1_655 S
C305 N308 1.384 . S
C306 H297 0.929 . S
C306 C298 1.378 . S
C306 C301 1.350 . S
C307 H294 0.929 . S
C307 C299 1.433 1_455 S
C307 N309 1.384 . S
N308 C304 1.427 1_655 S
N308 C305 1.384 . S
N309 C301 1.427 1_455 S
N309 C307 1.384 . S
H310 C316 0.930 . S
H311 C320 0.930 . S
H312 C325 0.929 . S
H313 C323 0.929 . S
H314 C318 0.929 . S
H315 C324 0.929 . S
C316 H310 0.930 . S
C316 C317 1.367 . S
C316 C324 1.378 . S
C317 C316 1.367 . S
C317 C325 1.433 1_545 S
C318 H314 0.929 . S
C318 C320 1.378 . S
C318 C322 1.350 . S
C319 C322 1.463 1_545 S
C319 C324 1.350 . S
C319 N327 1.427 1_545 S
C320 H311 0.930 . S
C320 C318 1.378 . S
C320 C321 1.367 . S
C321 C320 1.367 . S
C321 C323 1.433 1_565 S
C322 C318 1.350 . S
C322 C319 1.463 1_565 S
C322 N326 1.427 1_565 S
C323 H313 0.929 . S
C323 C321 1.433 1_545 S
C323 N326 1.384 . S
C324 H315 0.929 . S
C324 C316 1.378 . S
C324 C319 1.350 . S
C325 H312 0.929 . S
C325 C317 1.433 1_565 S
C325 N327 1.384 . S
N326 C322 1.427 1_545 S
N326 C323 1.384 . S
N327 C319 1.427 1_565 S
N327 C325 1.384 . S
H328 C334 0.930 . S
H329 C338 0.930 . S
H330 C343 0.929 . S
H331 C341 0.929 . S
H332 C336 0.929 . S
H333 C342 0.929 . S
C334 H328 0.930 . S
C334 C335 1.367 . S
C334 C342 1.378 . S
C335 C334 1.367 . S
C335 C343 1.433 . S
C336 H332 0.929 . S
C336 C338 1.378 . S
C336 C340 1.350 . S
C337 C340 1.463 . S
C337 C342 1.350 . S
C337 N345 1.427 . S
C338 H329 0.930 . S
C338 C336 1.378 . S
C338 C339 1.367 . S
C339 C338 1.367 . S
C339 C341 1.433 . S
C340 C336 1.350 . S
C340 C337 1.463 . S
C340 N344 1.427 . S
C341 H331 0.929 . S
C341 C339 1.433 . S
C341 N344 1.384 . S
C342 H333 0.929 . S
C342 C334 1.378 . S
C342 C337 1.350 . S
C343 H330 0.929 . S
C343 C335 1.433 . S
C343 N345 1.384 . S
N344 C340 1.427 . S
N344 C341 1.384 . S
N345 C337 1.427 . S
N345 C343 1.384 . S
H346 C352 0.930 . S
H347 C356 0.930 . S
H348 C361 0.929 . S
H349 C359 0.929 . S
H350 C354 0.929 . S
H351 C360 0.929 . S
C352 H346 0.930 . S
C352 C353 1.367 . S
C352 C360 1.378 . S
C353 C352 1.367 . S
C353 C361 1.433 . S
C354 H350 0.929 . S
C354 C356 1.378 . S
C354 C358 1.350 . S
C355 C358 1.463 . S
C355 C360 1.350 . S
C355 N363 1.427 . S
C356 H347 0.930 . S
C356 C354 1.378 . S
C356 C357 1.367 . S
C357 C356 1.367 . S
C357 C359 1.433 . S
C358 C354 1.350 . S
C358 C355 1.463 . S
C358 N362 1.427 . S
C359 H349 0.929 . S
C359 C357 1.433 . S
C359 N362 1.384 . S
C360 H351 0.929 . S
C360 C352 1.378 . S
C360 C355 1.350 . S
C361 H348 0.929 . S
C361 C353 1.433 . S
C361 N363 1.384 . S
N362 C358 1.427 . S
N362 C359 1.384 . S
N363 C355 1.427 . S
N363 C361 1.384 . S
H364 C370 0.930 . S
H365 C374 0.930 . S
H366 C379 0.929 . S
H367 C377 0.929 . S
H368 C372 0.929 . S
H369 C378 0.929 . S
C370 H364 0.930 . S
C370 C371 1.367 . S
C370 C378 1.378 . S
C371 C370 1.367 . S
C371 C379 1.433 . S
C372 H368 0.929 . S
C372 C374 1.378 . S
C372 C376 1.350 . S
C373 C376 1.463 . S
C373 C378 1.350 . S
C373 N381 1.427 . S
C374 H365 0.930 . S
C374 C372 1.378 . S
C374 C375 1.367 . S
C375 C374 1.367 . S
C375 C377 1.433 . S
C376 C372 1.350 . S
C376 C373 1.463 . S
C376 N380 1.427 . S
C377 H367 0.929 . S
C377 C375 1.433 . S
C377 N380 1.384 . S
C378 H369 0.929 . S
C378 C370 1.378 . S
C378 C373 1.350 . S
C379 H366 0.929 . S
C379 C371 1.433 . S
C379 N381 1.384 . S
N380 C376 1.427 . S
N380 C377 1.384 . S
N381 C373 1.427 . S
N381 C379 1.384 . S
H382 C388 0.930 . S
H383 C392 0.930 . S
H384 C397 0.929 . S
H385 C395 0.929 . S
H386 C390 0.929 . S
H387 C396 0.929 . S
C388 H382 0.930 . S
C388 C389 1.367 . S
C388 C396 1.378 . S
C389 C388 1.367 . S
C389 C397 1.433 . S
C390 H386 0.929 . S
C390 C392 1.378 . S
C390 C394 1.350 . S
C391 C394 1.463 . S
C391 C396 1.350 . S
C391 N399 1.427 . S
C392 H383 0.930 . S
C392 C390 1.378 . S
C392 C393 1.367 . S
C393 C392 1.367 . S
C393 C395 1.433 . S
C394 C390 1.350 . S
C394 C391 1.463 . S
C394 N398 1.427 . S
C395 H385 0.929 . S
C395 C393 1.433 . S
C395 N398 1.384 . S
C396 H387 0.929 . S
C396 C388 1.378 . S
C396 C391 1.350 . S
C397 H384 0.929 . S
C397 C389 1.433 . S
C397 N399 1.384 . S
N398 C394 1.427 . S
N398 C395 1.384 . S
N399 C391 1.427 . S
N399 C397 1.384 . S
H400 C406 0.936 . S
H401 C410 0.936 . S
H402 C415 0.929 . S
H403 C413 0.929 . S
H404 C408 0.929 . S
H405 C414 0.929 . S
C406 H400 0.936 . S
C406 C407 1.367 . S
C406 C414 1.378 1_455 S
C407 C406 1.367 . S
C407 C415 1.433 . S
C408 H404 0.929 . S
C408 C410 1.378 1_455 S
C408 C412 1.350 1_455 S
C409 C412 1.463 1_445 S
C409 C414 1.350 1_455 S
C409 N417 1.427 . S
C410 H401 0.936 . S
C410 C408 1.378 1_655 S
C410 C411 1.367 . S
C411 C410 1.367 . S
C411 C413 1.433 . S
C412 C408 1.350 1_655 S
C412 C409 1.463 1_665 S
C412 N416 1.427 . S
C413 H403 0.929 . S
C413 C411 1.433 . S
C413 N416 1.384 . S
C414 H405 0.929 . S
C414 C406 1.378 1_655 S
C414 C409 1.350 1_655 S
C415 H402 0.929 . S
C415 C407 1.433 . S
C415 N417 1.384 . S
N416 C412 1.427 . S
N416 C413 1.384 . S
N417 C409 1.427 . S
N417 C415 1.384 . S
H418 C424 0.930 . S
H419 C428 0.930 . S
H420 C433 0.929 . S
H421 C431 0.929 . S
H422 C426 0.929 . S
H423 C432 0.929 . S
C424 H418 0.930 . S
C424 C425 1.367 . S
C424 C432 1.378 1_565 S
C425 C424 1.367 . S
C425 C433 1.433 . S
C426 H422 0.929 . S
C426 C428 1.378 1_565 S
C426 C430 1.350 1_565 S
C427 C430 1.463 1_465 S
C427 C432 1.350 1_565 S
C427 N435 1.427 . S
C428 H419 0.930 . S
C428 C426 1.378 1_545 S
C428 C429 1.367 . S
C429 C428 1.367 . S
C429 C431 1.433 . S
C430 C426 1.350 1_545 S
C430 C427 1.463 1_645 S
C430 N434 1.427 . S
C431 H421 0.929 . S
C431 C429 1.433 . S
C431 N434 1.384 . S
C432 H423 0.929 . S
C432 C424 1.378 1_545 S
C432 C427 1.350 1_545 S
C433 H420 0.929 . S
C433 C425 1.433 . S
C433 N435 1.384 . S
N434 C430 1.427 . S
N434 C431 1.384 . S
N435 C427 1.427 . S
N435 C433 1.384 . S
H436 C442 0.930 . S
H437 C446 0.930 . S
H438 C451 0.929 . S
H439 C449 0.929 . S
H440 C444 0.929 . S
H441 C450 0.929 . S
C442 H436 0.930 . S
C442 C443 1.367 . S
C442 C450 1.378 . S
C443 C442 1.367 . S
C443 C451 1.433 . S
C444 H440 0.929 . S
C444 C446 1.378 . S
C444 C448 1.350 . S
C445 C448 1.463 1_645 S
C445 C450 1.350 . S
C445 N453 1.427 . S
C446 H437 0.930 . S
C446 C444 1.378 . S
C446 C447 1.367 . S
C447 C446 1.367 . S
C447 C449 1.433 . S
C448 C444 1.350 . S
C448 C445 1.463 1_465 S
C448 N452 1.427 . S
C449 H439 0.929 . S
C449 C447 1.433 . S
C449 N452 1.384 . S
C450 H441 0.929 . S
C450 C442 1.378 . S
C450 C445 1.350 . S
C451 H438 0.929 . S
C451 C443 1.433 . S
C451 N453 1.384 . S
N452 C448 1.427 . S
N452 C449 1.384 . S
N453 C445 1.427 . S
N453 C451 1.384 . S
H454 C460 0.930 . S
H455 C464 0.930 . S
H456 C469 0.929 . S
H457 C467 0.929 . S
H458 C462 0.929 . S
H459 C468 0.929 . S
C460 H454 0.930 . S
C460 C461 1.367 . S
C460 C468 1.378 . S
C461 C460 1.367 . S
C461 C469 1.433 . S
C462 H458 0.929 . S
C462 C464 1.378 . S
C462 C466 1.350 . S
C463 C466 1.463 1_665 S
C463 C468 1.350 . S
C463 N471 1.427 . S
C464 H455 0.930 . S
C464 C462 1.378 . S
C464 C465 1.367 . S
C465 C464 1.367 . S
C465 C467 1.433 . S
C466 C462 1.350 . S
C466 C463 1.463 1_445 S
C466 N470 1.427 . S
C467 H457 0.929 . S
C467 C465 1.433 . S
C467 N470 1.384 . S
C468 H459 0.929 . S
C468 C460 1.378 . S
C468 C463 1.350 . S
C469 H456 0.929 . S
C469 C461 1.433 . S
C469 N471 1.384 . S
N470 C466 1.427 . S
N470 C467 1.384 . S
N471 C463 1.427 . S
N471 C469 1.384 . S
C191 N12 1.710 . S
C195 N58 1.708 . S
C209 N81 1.709 . S
C213 N35 1.709 . S
C227 N150 1.711 . S
C231 N104 1.707 . S
C245 N127 1.712 . S
C249 N173 1.707 . S
C263 C145 1.656 . S
C267 C7 1.652 . S
C281 C30 1.652 . S
C285 C168 1.656 . S
C299 C53 1.656 . S
C303 C99 1.652 . S
C317 C122 1.652 . S
C321 C76 1.657 . S
C335 C16 1.658 . S
C339 C131 1.660 . S
C353 C154 1.665 . S
C357 C39 1.666 . S
C371 C177 1.664 . S
C375 C62 1.661 . S
C389 C85 1.665 . S
C393 C108 1.663 . S
C407 N2 1.356 . S
C411 N48 1.352 . S
C425 N71 1.358 . S
C429 N25 1.353 . S
C443 N140 1.363 . S
C447 N94 1.368 . S
C461 N163 1.361 . S
C465 N117 1.366 . S
