# Generated by pormake.
# Topology nov, (5)-cn, num edge types: 1
# Building blocks:
#     Node 0, Type 0, BuildingBlock: XOMCOT_clean_sbu_0, # of connection points: 5
#     Node 1, Type 0, BuildingBlock: XOMCOT_clean_sbu_0, # of connection points: 5
#     Node 2, Type 0, BuildingBlock: XOMCOT_clean_sbu_0, # of connection points: 5
#     Node 3, Type 0, BuildingBlock: XOMCOT_clean_sbu_0, # of connection points: 5
#     Node 4, Type 0, BuildingBlock: XOMCOT_clean_sbu_0, # of connection points: 5
#     Node 5, Type 0, BuildingBlock: XOMCOT_clean_sbu_0, # of connection points: 5
#     Node 6, Type 0, BuildingBlock: XOMCOT_clean_sbu_0, # of connection points: 5
#     Node 7, Type 0, BuildingBlock: XOMCOT_clean_sbu_0, # of connection points: 5
#     Edge 8, Type (0, 0), BuildingBlock: UVAHIK_clean_linker_0, # of connection points: 2
#     Edge 9, Type (0, 0), BuildingBlock: UVAHIK_clean_linker_0, # of connection points: 2
#     Edge 10, Type (0, 0), BuildingBlock: UVAHIK_clean_linker_0, # of connection points: 2
#     Edge 11, Type (0, 0), BuildingBlock: UVAHIK_clean_linker_0, # of connection points: 2
#     Edge 12, Type (0, 0), BuildingBlock: UVAHIK_clean_linker_0, # of connection points: 2
#     Edge 13, Type (0, 0), BuildingBlock: UVAHIK_clean_linker_0, # of connection points: 2
#     Edge 14, Type (0, 0), BuildingBlock: UVAHIK_clean_linker_0, # of connection points: 2
#     Edge 15, Type (0, 0), BuildingBlock: UVAHIK_clean_linker_0, # of connection points: 2
#     Edge 16, Type (0, 0), BuildingBlock: UVAHIK_clean_linker_0, # of connection points: 2
#     Edge 17, Type (0, 0), BuildingBlock: UVAHIK_clean_linker_0, # of connection points: 2
#     Edge 18, Type (0, 0), BuildingBlock: UVAHIK_clean_linker_0, # of connection points: 2
#     Edge 19, Type (0, 0), BuildingBlock: UVAHIK_clean_linker_0, # of connection points: 2
#     Edge 20, Type (0, 0), BuildingBlock: UVAHIK_clean_linker_0, # of connection points: 2
#     Edge 21, Type (0, 0), BuildingBlock: UVAHIK_clean_linker_0, # of connection points: 2
#     Edge 22, Type (0, 0), BuildingBlock: UVAHIK_clean_linker_0, # of connection points: 2
#     Edge 23, Type (0, 0), BuildingBlock: UVAHIK_clean_linker_0, # of connection points: 2
#     Edge 24, Type (0, 0), BuildingBlock: UVAHIK_clean_linker_0, # of connection points: 2
#     Edge 25, Type (0, 0), BuildingBlock: UVAHIK_clean_linker_0, # of connection points: 2
#     Edge 26, Type (0, 0), BuildingBlock: UVAHIK_clean_linker_0, # of connection points: 2
#     Edge 27, Type (0, 0), BuildingBlock: UVAHIK_clean_linker_0, # of connection points: 2
# Relax obj value: 0.161
# Max RMSD: 0.191
# Mean RMSD: 0.191
data_MOF--net-nov--node1-XOMCOT_clean_sbu_0--edge1-UVAHIK_clean_linker_0
_symmetry_space_group_name_H-M    P1
_symmetry_Int_Tables_number       1
_symmetry_cell_setting            triclinic
loop_
_symmetry_equiv_pos_as_xyz
'x, y, z'
_cell_length_a     35.21829
_cell_length_b     68.002968
_cell_length_c     35.293272
_cell_angle_alpha  90.012623
_cell_angle_beta   89.963321
_cell_angle_gamma 89.927654
loop_
_atom_site_label
_atom_site_type_symbol
_atom_site_fract_x
_atom_site_fract_y
_atom_site_fract_z
_atom_type_partial_charge
Co0 Co 0.02913 0.1535 0.1466 0.0
C1 C 0.03162 0.11452 0.10539 0.0
C2 C 0.06818 0.11595 0.15376 0.0
C3 C 0.07047 0.09739 0.13888 0.0
N4 N 0.04487 0.12704 0.13219 0.0
N5 N 0.04753 0.09645 0.10845 0.0
H6 H 0.00981 0.11806 0.0851 0.0
H7 H 0.08149 0.12076 0.17974 0.0
C8 C 0.11337 0.155 0.15155 0.0
O9 O 0.11405 0.14786 0.11694 0.0
N10 N 0.01348 0.1793 0.16313 0.0
C11 C 0.99048 0.19206 0.14508 0.0
C12 C 0.98558 0.20836 0.16782 0.0
C13 C 0.02188 0.18778 0.19658 0.0
N14 N 0.00525 0.20559 0.20022 0.0
C15 C 0.02333 0.15932 0.06583 0.0
C16 C 0.07138 0.19138 0.0627 0.0
C17 C 0.05209 0.18573 0.02977 0.0
C18 C 0.02814 0.16931 0.03151 0.0
C19 C 0.06586 0.18098 0.0963 0.0
N20 N 0.04271 0.16484 0.09758 0.0
H21 H 1.00199 0.14807 0.06728 0.0
H22 H 0.07881 0.1866 0.12181 0.0
H23 H 0.97785 0.18956 0.11757 0.0
H24 H 0.03972 0.18096 0.21781 0.0
O25 O 0.97688 0.14705 0.13619 0.0
O26 O 0.0058 0.14245 0.19132 0.0
O27 O 0.08159 0.1585 0.16782 0.0
C28 C 0.97481 0.14132 0.1713 0.0
H29 H 0.08637 0.08522 0.15069 0.0
H30 H 0.96805 0.22101 0.16141 0.0
H31 H 0.08982 0.20412 0.06284 0.0
H32 H 0.01153 0.16489 0.00715 0.0
Co33 Co 0.54453 0.86124 0.64337 0.0
C34 C 0.54542 0.89992 0.60385 0.0
C35 C 0.50775 0.89931 0.65174 0.0
C36 C 0.50822 0.91806 0.63741 0.0
N37 N 0.53091 0.88793 0.63073 0.0
N38 N 0.53204 0.91852 0.60747 0.0
H39 H 0.56652 0.89538 0.58332 0.0
H40 H 0.49267 0.89451 0.67676 0.0
C41 C 0.47075 0.84173 0.66624 0.0
O42 O 0.48265 0.82481 0.65271 0.0
N43 N 0.55834 0.83461 0.65789 0.0
C44 C 0.57525 0.82021 0.63765 0.0
C45 C 0.58067 0.80413 0.66081 0.0
C46 C 0.55465 0.82721 0.6932 0.0
N47 N 0.56765 0.80856 0.69574 0.0
C48 C 0.56028 0.84982 0.56679 0.0
C49 C 0.48677 0.84132 0.54522 0.0
C50 C 0.51669 0.83633 0.52085 0.0
C51 C 0.55365 0.84145 0.53131 0.0
C52 C 0.49464 0.85018 0.58018 0.0
N53 N 0.5313 0.85285 0.59191 0.0
H54 H 0.58927 0.85279 0.57468 0.0
H55 H 0.47104 0.85465 0.59753 0.0
H56 H 0.58387 0.82113 0.60844 0.0
H57 H 0.54189 0.83527 0.71639 0.0
O58 O 0.59755 0.86722 0.63547 0.0
O59 O 0.56728 0.87059 0.69004 0.0
O60 O 0.49127 0.85715 0.66325 0.0
C61 C 0.59889 0.87193 0.6711 0.0
H62 H 0.49259 0.9305 0.64855 0.0
H63 H 0.5939 0.79039 0.65268 0.0
H64 H 0.45762 0.83829 0.53739 0.0
H65 H 0.57752 0.83812 0.51302 0.0
Co66 Co 0.02454 0.86119 0.86083 0.0
C67 C 0.02274 0.90042 0.90093 0.0
C68 C 0.05566 0.90028 0.84988 0.0
C69 C 0.05458 0.91914 0.86351 0.0
N70 N 0.03651 0.88833 0.87363 0.0
N71 N 0.03374 0.9193 0.89551 0.0
H72 H 0.00321 0.896 0.92282 0.0
H73 H 0.06841 0.89573 0.82341 0.0
C74 C 0.10855 0.86332 0.85347 0.0
O75 O 0.10856 0.87174 0.88701 0.0
N76 N 0.01244 0.83467 0.84585 0.0
C77 C 0.99186 0.82124 0.86488 0.0
C78 C 0.98828 0.80472 0.84247 0.0
C79 C 0.02076 0.82637 0.81223 0.0
N80 N 0.00635 0.80804 0.80931 0.0
C81 C 0.01995 0.85558 0.94157 0.0
C82 C 0.07439 0.82637 0.94568 0.0
C83 C 0.05329 0.83083 0.97827 0.0
C84 C 0.02609 0.84587 0.97597 0.0
C85 C 0.06712 0.8363 0.91184 0.0
N86 N 0.04072 0.85105 0.91007 0.0
H87 H 0.99645 0.86565 0.9398 0.0
H88 H 0.08132 0.83122 0.88656 0.0
H89 H 0.97974 0.82344 0.89274 0.0
H90 H 0.0368 0.83375 0.79028 0.0
O91 O 0.97178 0.86581 0.87231 0.0
O92 O 0.99845 0.87076 0.81619 0.0
O93 O 0.07717 0.85787 0.83855 0.0
C94 C 0.96797 0.87113 0.83714 0.0
H95 H 0.0677 0.93181 0.85041 0.0
H96 H 0.97257 0.79156 0.84958 0.0
H97 H 0.09553 0.81479 0.94583 0.0
H98 H 0.00802 0.84935 0.99988 0.0
Co99 Co 0.55051 0.15427 0.36166 0.0
C100 C 0.55085 0.11474 0.40113 0.0
C101 C 0.51845 0.11557 0.34978 0.0
C102 C 0.51926 0.09655 0.36249 0.0
N103 N 0.53763 0.12718 0.37414 0.0
N104 N 0.53971 0.09598 0.39466 0.0
H105 H 0.57018 0.11878 0.42346 0.0
H106 H 0.50614 0.12046 0.32334 0.0
C107 C 0.46633 0.15294 0.35526 0.0
O108 O 0.46594 0.14459 0.38885 0.0
N109 N 0.56324 0.18074 0.34675 0.0
C110 C 0.58424 0.19407 0.3656 0.0
C111 C 0.58809 0.21054 0.34309 0.0
C112 C 0.55494 0.18908 0.31315 0.0
N113 N 0.56977 0.20732 0.31004 0.0
C114 C 0.55719 0.15943 0.44219 0.0
C115 C 0.50333 0.18884 0.44872 0.0
C116 C 0.52521 0.18395 0.48047 0.0
C117 C 0.55221 0.16892 0.47698 0.0
C118 C 0.50957 0.17916 0.41433 0.0
N119 N 0.53564 0.16429 0.41142 0.0
H120 H 0.58027 0.14914 0.43954 0.0
H121 H 0.49493 0.18454 0.38955 0.0
H122 H 0.59649 0.19181 0.39336 0.0
H123 H 0.53864 0.18178 0.29131 0.0
O124 O 0.60326 0.14904 0.37204 0.0
O125 O 0.57542 0.14465 0.31635 0.0
O126 O 0.49784 0.15816 0.34032 0.0
C127 C 0.60621 0.14382 0.33673 0.0
H128 H 0.50653 0.08398 0.34861 0.0
H129 H 0.6042 0.2236 0.35004 0.0
H130 H 0.48313 0.20085 0.44982 0.0
H131 H 0.57024 0.16494 0.50062 0.0
Co132 Co 0.52521 0.65496 0.14564 0.0
C133 C 0.52474 0.61592 0.10455 0.0
C134 C 0.55775 0.61603 0.15551 0.0
C135 C 0.55715 0.59722 0.14157 0.0
N136 N 0.53811 0.62798 0.13208 0.0
N137 N 0.53631 0.59711 0.10961 0.0
H138 H 0.50505 0.62028 0.08276 0.0
H139 H 0.57043 0.62055 0.18201 0.0
C140 C 0.60929 0.65353 0.15123 0.0
O141 O 0.60913 0.64549 0.11736 0.0
N142 N 0.51215 0.68134 0.16129 0.0
C143 C 0.49315 0.69506 0.14129 0.0
C144 C 0.48913 0.71162 0.16347 0.0
C145 C 0.51874 0.68949 0.19549 0.0
N146 N 0.50506 0.70803 0.19752 0.0
C147 C 0.51916 0.66083 0.06491 0.0
C148 C 0.57243 0.69056 0.06055 0.0
C149 C 0.55136 0.68591 0.02812 0.0
C150 C 0.52478 0.67061 0.03047 0.0
C151 C 0.56591 0.68045 0.09432 0.0
N152 N 0.54008 0.66546 0.09623 0.0
H153 H 0.49599 0.6506 0.06688 0.0
H154 H 0.58014 0.68559 0.1195 0.0
H155 H 0.4827 0.69311 0.11274 0.0
H156 H 0.53321 0.682 0.21838 0.0
O157 O 0.47232 0.64981 0.13545 0.0
O158 O 0.50087 0.64492 0.19067 0.0
O159 O 0.57802 0.65864 0.16687 0.0
C160 C 0.46984 0.64429 0.17066 0.0
H161 H 0.5705 0.58452 0.1544 0.0
H162 H 0.47475 0.72509 0.15554 0.0
H163 H 0.59296 0.7024 0.06027 0.0
H164 H 0.50682 0.66701 0.00657 0.0
Co165 Co 0.0483 0.36211 0.64632 0.0
C166 C 0.04919 0.40116 0.606 0.0
C167 C 0.0112 0.40024 0.65334 0.0
C168 C 0.01166 0.41906 0.63952 0.0
N169 N 0.03387 0.38874 0.63185 0.0
N170 N 0.03567 0.4197 0.60984 0.0
H171 H 0.07176 0.39731 0.58673 0.0
H172 H 0.99666 0.39553 0.67874 0.0
C173 C 0.96388 0.36154 0.65194 0.0
O174 O 0.96306 0.36885 0.61747 0.0
N175 N 0.06281 0.33614 0.66283 0.0
C176 C 0.08541 0.32316 0.64483 0.0
C177 C 0.08961 0.30681 0.66757 0.0
C178 C 0.05394 0.32775 0.69623 0.0
N179 N 0.0699 0.30978 0.69992 0.0
C180 C 0.05321 0.35627 0.56541 0.0
C181 C 0.00411 0.32462 0.56283 0.0
C182 C 0.02337 0.33004 0.52972 0.0
C183 C 0.04781 0.34628 0.53116 0.0
C184 C 0.01023 0.33502 0.59634 0.0
N185 N 0.034 0.35091 0.59739 0.0
H186 H 0.0748 0.3674 0.56658 0.0
H187 H 0.99724 0.32956 0.62197 0.0
H188 H 0.09825 0.32553 0.61736 0.0
H189 H 0.03624 0.33474 0.71739 0.0
O190 O 0.10089 0.36791 0.63583 0.0
O191 O 0.07214 0.3729 0.69096 0.0
O192 O 0.99571 0.35771 0.66777 0.0
C193 C 0.10317 0.3737 0.67091 0.0
H194 H 0.9961 0.43141 0.65107 0.0
H195 H 0.10668 0.29399 0.6612 0.0
H196 H 0.98523 0.31206 0.56319 0.0
H197 H 0.06431 0.35055 0.5066 0.0
Co198 Co 0.5261 0.36207 0.86084 0.0
C199 C 0.52668 0.40142 0.90045 0.0
C200 C 0.56406 0.39979 0.85267 0.0
C201 C 0.56382 0.41879 0.86555 0.0
N202 N 0.54154 0.38862 0.87492 0.0
N203 N 0.54025 0.41986 0.89549 0.0
H204 H 0.50422 0.39796 0.9201 0.0
H205 H 0.57808 0.39476 0.82719 0.0
C206 C 0.61025 0.36068 0.8554 0.0
O207 O 0.61084 0.36794 0.88992 0.0
N208 N 0.51054 0.3362 0.8446 0.0
C209 C 0.48468 0.32443 0.86117 0.0
C210 C 0.47915 0.30823 0.83833 0.0
C211 C 0.52039 0.32713 0.81208 0.0
N212 N 0.50164 0.30998 0.80753 0.0
C213 C 0.5218 0.3566 0.94193 0.0
C214 C 0.56903 0.32413 0.94435 0.0
C215 C 0.55059 0.33001 0.97768 0.0
C216 C 0.52704 0.34664 0.97626 0.0
C217 C 0.56303 0.33448 0.91074 0.0
N218 N 0.54025 0.35079 0.90978 0.0
H219 H 0.50094 0.36813 0.94089 0.0
H220 H 0.57548 0.32877 0.88503 0.0
H221 H 0.47031 0.32762 0.88756 0.0
H222 H 0.53973 0.33335 0.79147 0.0
O223 O 0.47394 0.36848 0.87185 0.0
O224 O 0.50208 0.37297 0.81626 0.0
O225 O 0.57849 0.35712 0.83922 0.0
C226 C 0.47136 0.37415 0.83675 0.0
H227 H 0.57891 0.43105 0.85306 0.0
H228 H 0.4599 0.29617 0.84383 0.0
H229 H 0.58726 0.3113 0.94392 0.0
H230 H 0.51115 0.35131 1.00096 0.0
Co231 Co 0.04692 0.65393 0.35991 0.0
C232 C 0.04315 0.61485 0.40049 0.0
C233 C 0.00842 0.61642 0.35081 0.0
C234 C 0.00585 0.59778 0.36528 0.0
N235 N 0.03081 0.62744 0.37338 0.0
N236 N 0.02765 0.59675 0.39654 0.0
H237 H 0.06405 0.61837 0.42169 0.0
H238 H 0.99596 0.62135 0.32448 0.0
C239 C 0.9628 0.65553 0.35345 0.0
O240 O 0.96146 0.64805 0.38776 0.0
N241 N 0.06299 0.67981 0.34437 0.0
C242 C 0.08789 0.69174 0.3619 0.0
C243 C 0.09322 0.7082 0.3397 0.0
C244 C 0.05358 0.689 0.3119 0.0
N245 N 0.07159 0.70643 0.30829 0.0
C246 C 0.05194 0.65939 0.44076 0.0
C247 C 0.00336 0.69129 0.44417 0.0
C248 C 0.02249 0.68552 0.47714 0.0
C249 C 0.04673 0.66919 0.47523 0.0
C250 C 0.00935 0.68109 0.41038 0.0
N251 N 0.03268 0.665 0.40898 0.0
H252 H 0.07353 0.64823 0.43925 0.0
H253 H 0.99658 0.68683 0.38487 0.0
H254 H 0.10156 0.68856 0.38865 0.0
H255 H 0.03492 0.68272 0.29078 0.0
O256 O 0.09886 0.6472 0.37108 0.0
O257 O 0.07101 0.64316 0.31525 0.0
O258 O 0.99488 0.65921 0.33798 0.0
C259 C 0.10156 0.64171 0.33588 0.0
H260 H 0.99057 0.58563 0.35265 0.0
H261 H 0.11162 0.72048 0.34617 0.0
H262 H 0.98473 0.70397 0.44412 0.0
H263 H 0.06329 0.6647 0.49959 0.0
C264 C 0.01799 0.9348 0.95718 0.0
C265 C 0.02455 0.93639 0.91801 0.0
C266 C 0.01284 0.95169 0.97936 0.0
C267 C 0.99504 1.0059 0.97362 0.0
H268 H 0.05227 1.007 0.06731 0.0
C269 C 0.00474 0.0754 0.07003 0.0
C270 C 0.04059 0.07912 0.08596 0.0
C271 C 0.99782 0.05772 0.05072 0.0
C272 C 0.03622 1.00699 0.04114 0.0
H273 H 0.02819 0.95695 0.87116 0.0
H274 H 0.02038 0.9862 0.90963 0.0
H275 H 0.04761 0.9765 0.03175 0.0
H276 H 0.09771 0.06776 0.09241 0.0
H277 H 0.08598 0.03729 0.05851 0.0
H278 H 0.98528 0.0367 0.98222 0.0
C279 C 0.01893 0.972 0.9234 0.0
C280 C 0.03305 0.98938 0.02101 0.0
C281 C 0.02403 0.95517 0.90134 0.0
C282 C 0.06958 0.06513 0.08117 0.0
C283 C 0.06276 0.0476 0.06185 0.0
C284 C 0.99833 0.02357 0.99374 0.0
C285 C 0.01402 0.97054 0.96282 0.0
C286 C 0.01312 0.98868 0.98654 0.0
C287 C 0.02667 0.04349 0.04689 0.0
C288 C 0.01974 0.02442 0.02729 0.0
H289 H 0.01822 0.92056 0.97089 0.0
H290 H 0.00859 0.95 0.00957 0.0
H291 H 0.97894 1.00585 0.94748 0.0
H292 H 0.98178 0.08583 0.07352 0.0
H293 H 0.96965 0.055 0.03963 0.0
C294 C 0.55441 0.06055 0.39676 0.0
C295 C 0.54903 0.07849 0.41578 0.0
C296 C 0.55933 0.04309 0.41693 0.0
C297 C 0.5793 0.02239 0.51256 0.0
H298 H 0.52355 0.97765 0.4733 0.0
C299 C 0.54147 0.9544 0.60278 0.0
C300 C 0.54195 0.93572 0.5857 0.0
C301 C 0.54808 0.97134 0.58144 0.0
C302 C 0.53984 0.98987 0.48436 0.0
H303 H 0.54611 0.09235 0.47086 0.0
H304 H 0.55401 0.06169 0.50651 0.0
H305 H 0.52429 0.00829 0.43788 0.0
H306 H 0.55104 0.92013 0.53299 0.0
H307 H 0.56272 0.94984 0.49541 0.0
H308 H 0.59389 1.00397 0.55965 0.0
C309 C 0.55493 0.06115 0.47586 0.0
C310 C 0.54028 1.0075 0.46403 0.0
C311 C 0.55035 0.07873 0.45554 0.0
C312 C 0.55052 0.93431 0.54692 0.0
C313 C 0.5569 0.95133 0.5254 0.0
C314 C 0.57872 1.00474 0.533 0.0
C315 C 0.55864 0.04304 0.45676 0.0
C316 C 0.55978 0.02406 0.47795 0.0
C317 C 0.55524 0.97007 0.54237 0.0
C318 C 0.55867 0.98832 0.5193 0.0
H319 H 0.55438 0.05999 0.36611 0.0
H320 H 0.56317 0.02955 0.40122 0.0
H321 H 0.59507 0.03472 0.52389 0.0
H322 H 0.53561 0.95598 0.63273 0.0
H323 H 0.54629 0.9855 0.59539 0.0
C324 C 0.52485 0.56139 0.10396 0.0
C325 C 0.52738 0.58005 0.08698 0.0
C326 C 0.51956 0.54454 0.08196 0.0
C327 C 0.53763 0.52587 0.9863 0.0
H328 H 0.47538 0.48195 0.01873 0.0
C329 C 0.52857 0.45563 0.89651 0.0
C330 C 0.53018 0.43754 0.9157 0.0
C331 C 0.5227 0.47314 0.91629 0.0
C332 C 0.49315 0.49401 0.00943 0.0
H333 H 0.52501 0.59571 0.03366 0.0
H334 H 0.51567 0.56618 0.99495 0.0
H335 H 0.47448 0.51261 0.05485 0.0
H336 H 0.52546 0.42354 0.9705 0.0
H337 H 0.51592 0.45426 0.00554 0.0
H338 H 0.55723 0.50726 0.94163 0.0
C339 C 0.51809 0.56463 0.02539 0.0
C340 C 0.49253 0.51161 0.03007 0.0
C341 C 0.52311 0.58155 0.04752 0.0
C342 C 0.5242 0.43727 0.95503 0.0
C343 C 0.51867 0.45489 0.97501 0.0
C344 C 0.5384 0.50828 0.96581 0.0
C345 C 0.51682 0.54589 0.04234 0.0
C346 C 0.51501 0.5277 0.01891 0.0
C347 C 0.51865 0.4731 0.95593 0.0
C348 C 0.51637 0.49205 0.97719 0.0
H349 H 0.52743 0.55976 0.13435 0.0
H350 H 0.51899 0.53037 0.09595 0.0
H351 H 0.55582 0.53782 0.9773 0.0
H352 H 0.53222 0.45625 0.86608 0.0
H353 H 0.52178 0.48678 0.90047 0.0
C354 C 0.05597 0.43548 0.54987 0.0
C355 C 0.04553 0.43697 0.5882 0.0
C356 C 0.06179 0.45246 0.52811 0.0
C357 C 0.0749 0.5069 0.5349 0.0
H358 H 0.02579 0.50698 0.43668 0.0
C359 C 0.06893 0.57605 0.4374 0.0
C360 C 0.03407 0.57935 0.41906 0.0
C361 C 0.07544 0.55847 0.45714 0.0
C362 C 0.03958 0.50724 0.46409 0.0
H363 H 0.03557 0.45745 0.63428 0.0
H364 H 0.0447 0.48683 0.59644 0.0
H365 H 0.02952 0.47658 0.47272 0.0
H366 H 0.97817 0.56722 0.40867 0.0
H367 H 0.98926 0.53684 0.44309 0.0
H368 H 0.08334 0.53783 0.52687 0.0
C369 C 0.04864 0.47265 0.58303 0.0
C370 C 0.04222 0.48971 0.48455 0.0
C371 C 0.04281 0.45575 0.60467 0.0
C372 C 0.00562 0.56495 0.42174 0.0
C373 C 0.01205 0.54748 0.4414 0.0
C374 C 0.0722 0.52448 0.51441 0.0
C375 C 0.05746 0.47127 0.54429 0.0
C376 C 0.05916 0.48938 0.52059 0.0
C377 C 0.04718 0.54387 0.45893 0.0
C378 C 0.05369 0.52494 0.47915 0.0
H379 H 0.05827 0.42124 0.53636 0.0
H380 H 0.06904 0.45084 0.49845 0.0
H381 H 0.08864 0.50713 0.56233 0.0
H382 H 0.09153 0.58679 0.43561 0.0
H383 H 0.10287 0.55612 0.47023 0.0
C384 C 0.39529 0.15372 0.35305 0.0
C385 C 0.43034 0.15588 0.33444 0.0
C386 C 0.36124 0.15573 0.33309 0.0
C387 C 0.32158 0.1501 0.23846 0.0
H388 H 0.23702 0.18067 0.27721 0.0
C389 C 0.18398 0.15843 0.15231 0.0
C390 C 0.14943 0.15796 0.17216 0.0
C391 C 0.21837 0.16001 0.17174 0.0
C392 C 0.26016 0.17187 0.26618 0.0
H393 H 0.45716 0.16208 0.28039 0.0
H394 H 0.39758 0.16528 0.24545 0.0
H395 H 0.29683 0.17988 0.31215 0.0
H396 H 0.12372 0.1591 0.22793 0.0
H397 H 0.18374 0.16119 0.26202 0.0
H398 H 0.28493 0.14144 0.19331 0.0
C399 C 0.39656 0.16207 0.2755 0.0
C400 C 0.29446 0.1715 0.28614 0.0
C401 C 0.43062 0.16033 0.29555 0.0
C402 C 0.14991 0.15951 0.21184 0.0
C403 C 0.18438 0.16081 0.23136 0.0
C404 C 0.2872 0.15025 0.21876 0.0
C405 C 0.36155 0.15969 0.29404 0.0
C406 C 0.32548 0.1606 0.27247 0.0
C407 C 0.21912 0.16086 0.21158 0.0
C408 C 0.25598 0.16113 0.23233 0.0
H409 H 0.39411 0.15036 0.38302 0.0
H410 H 0.33465 0.15367 0.34802 0.0
H411 H 0.34486 0.14133 0.22758 0.0
H412 H 0.18452 0.15749 0.12168 0.0
H413 H 0.24441 0.16048 0.15544 0.0
C414 C 0.4159 0.8619 0.68935 0.0
C415 C 0.43242 0.84334 0.6833 0.0
C416 C 0.38018 0.86358 0.70625 0.0
C417 C 0.29315 0.83532 0.73056 0.0
H418 H 0.2777 0.87834 0.80099 0.0
C419 C 0.14577 0.85353 0.79564 0.0
C420 C 0.14499 0.86002 0.83345 0.0
C421 C 0.1804 0.85099 0.77671 0.0
C422 C 0.28155 0.86611 0.78171 0.0
H423 H 0.42417 0.81194 0.69004 0.0
H424 H 0.36211 0.81488 0.72042 0.0
H425 H 0.3387 0.87457 0.76982 0.0
H426 H 0.18003 0.86841 0.88133 0.0
H427 H 0.2401 0.86357 0.84879 0.0
H428 H 0.23623 0.82651 0.74358 0.0
C429 C 0.37648 0.82815 0.71142 0.0
C430 C 0.31647 0.86412 0.76333 0.0
C431 C 0.41216 0.82646 0.69418 0.0
C432 C 0.17954 0.86358 0.85209 0.0
C433 C 0.21407 0.86091 0.8333 0.0
C434 C 0.2582 0.83726 0.74916 0.0
C435 C 0.36014 0.84675 0.71792 0.0
C436 C 0.32276 0.84872 0.73745 0.0
C437 C 0.21501 0.85477 0.79525 0.0
C438 C 0.25198 0.85267 0.77504 0.0
H439 H 0.43048 0.8752 0.68088 0.0
H440 H 0.36821 0.87813 0.70999 0.0
H441 H 0.2968 0.8234 0.71053 0.0
H442 H 0.11962 0.85068 0.78045 0.0
H443 H 0.17997 0.84644 0.7473 0.0
C444 C 0.92493 0.87842 0.78233 0.0
C445 C 0.93026 0.87616 0.82152 0.0
C446 C 0.8885 0.88136 0.76753 0.0
C447 C 0.78811 0.87212 0.79145 0.0
H448 H 0.76812 0.90497 0.70393 0.0
C449 C 0.63758 0.87919 0.72901 0.0
C450 C 0.63523 0.87709 0.68949 0.0
C451 C 0.67277 0.88206 0.74653 0.0
C452 C 0.7733 0.89569 0.72832 0.0
H453 H 0.90191 0.87611 0.8761 0.0
H454 H 0.83862 0.88156 0.85042 0.0
H455 H 0.83154 0.90457 0.73194 0.0
H456 H 0.66764 0.87715 0.6372 0.0
H457 H 0.72889 0.88204 0.66772 0.0
H458 H 0.73019 0.86297 0.78753 0.0
C459 C 0.86236 0.88064 0.83098 0.0
C460 C 0.80964 0.89543 0.74432 0.0
C461 C 0.89869 0.87763 0.84572 0.0
C462 C 0.66852 0.87869 0.66774 0.0
C463 C 0.70363 0.88161 0.68522 0.0
C464 C 0.75183 0.87241 0.77553 0.0
C465 C 0.85668 0.88216 0.79166 0.0
C466 C 0.81759 0.88347 0.77585 0.0
C467 C 0.70628 0.88296 0.72487 0.0
C468 C 0.74408 0.88401 0.74351 0.0
H469 H 0.94872 0.87731 0.76298 0.0
H470 H 0.88514 0.88227 0.73709 0.0
H471 H 0.79334 0.86246 0.81529 0.0
H472 H 0.6124 0.87806 0.74651 0.0
H473 H 0.6738 0.88329 0.77711 0.0
C474 C 0.67487 0.13561 0.34418 0.0
C475 C 0.64335 0.13832 0.32039 0.0
C476 C 0.71083 0.13214 0.32891 0.0
C477 C 0.76218 0.11862 0.24051 0.0
H478 H 0.84392 0.14825 0.28683 0.0
C479 C 0.90505 0.1351 0.1662 0.0
C480 C 0.93815 0.13557 0.18839 0.0
C481 C 0.86961 0.13206 0.18302 0.0
C482 C 0.82162 0.13959 0.27392 0.0
H483 H 0.62448 0.13888 0.26196 0.0
H484 H 0.6875 0.1332 0.23514 0.0
H485 H 0.78088 0.14928 0.31469 0.0
H486 H 0.96032 0.13226 0.24533 0.0
H487 H 0.89844 0.12682 0.2747 0.0
H488 H 0.80304 0.10941 0.19907 0.0
C489 C 0.68436 0.13346 0.26566 0.0
C490 C 0.78539 0.14017 0.28991 0.0
C491 C 0.64826 0.13681 0.281 0.0
C492 C 0.93531 0.13206 0.2275 0.0
C493 C 0.89984 0.12906 0.24435 0.0
C494 C 0.7985 0.11809 0.22441 0.0
C495 C 0.7162 0.13146 0.28945 0.0
C496 C 0.75512 0.12983 0.27328 0.0
C497 C 0.86651 0.12947 0.22241 0.0
C498 C 0.82856 0.1287 0.24079 0.0
H499 H 0.67192 0.13649 0.37469 0.0
H500 H 0.73456 0.13026 0.34808 0.0
H501 H 0.73963 0.11028 0.22726 0.0
H502 H 0.90632 0.13774 0.13596 0.0
H503 H 0.84449 0.13262 0.16536 0.0
C504 C 0.89198 0.65806 0.35092 0.0
C505 C 0.92717 0.65869 0.33215 0.0
C506 C 0.85812 0.65983 0.33061 0.0
C507 C 0.81832 0.65027 0.23739 0.0
H508 H 0.73492 0.68329 0.2708 0.0
C509 C 0.68014 0.65553 0.15107 0.0
C510 C 0.64575 0.65651 0.17114 0.0
C511 C 0.71477 0.65759 0.16989 0.0
C512 C 0.75773 0.6738 0.26131 0.0
H513 H 0.95449 0.66209 0.27743 0.0
H514 H 0.89515 0.66489 0.24186 0.0
H515 H 0.79493 0.68375 0.3054 0.0
H516 H 0.62061 0.6606 0.22666 0.0
H517 H 0.68104 0.66351 0.25981 0.0
H518 H 0.7811 0.63969 0.19427 0.0
C519 C 0.89391 0.66304 0.27232 0.0
C520 C 0.79215 0.67416 0.28105 0.0
C521 C 0.92782 0.66153 0.29271 0.0
C522 C 0.64667 0.65986 0.2104 0.0
C523 C 0.68137 0.66165 0.22935 0.0
C524 C 0.78381 0.64971 0.21796 0.0
C525 C 0.85873 0.66204 0.29105 0.0
C526 C 0.82274 0.66237 0.26931 0.0
C527 C 0.71592 0.6604 0.20937 0.0
C528 C 0.75298 0.66143 0.22967 0.0
H529 H 0.89054 0.65596 0.38131 0.0
H530 H 0.8314 0.65887 0.34572 0.0
H531 H 0.84125 0.6408 0.22808 0.0
H532 H 0.68035 0.6532 0.12071 0.0
H533 H 0.74067 0.657 0.15337 0.0
C534 C 0.92821 0.35508 0.71218 0.0
C535 C 0.92794 0.35855 0.67291 0.0
C536 C 0.89411 0.35341 0.73225 0.0
C537 C 0.79219 0.34287 0.72197 0.0
H538 H 0.78147 0.3746 0.81262 0.0
C539 C 0.64699 0.35546 0.79529 0.0
C540 C 0.64641 0.35762 0.83488 0.0
C541 C 0.68153 0.35402 0.77585 0.0
C542 C 0.78408 0.36534 0.78779 0.0
H543 H 0.89169 0.36234 0.62376 0.0
H544 H 0.83224 0.35921 0.65881 0.0
H545 H 0.84152 0.37443 0.77852 0.0
H546 H 0.68147 0.35905 0.88528 0.0
H547 H 0.74145 0.35586 0.85169 0.0
H548 H 0.73491 0.33359 0.73136 0.0
C549 C 0.85882 0.35784 0.67402 0.0
C550 C 0.81854 0.36531 0.76818 0.0
C551 C 0.89288 0.35975 0.65401 0.0
C552 C 0.68097 0.35764 0.85471 0.0
C553 C 0.71542 0.35594 0.83537 0.0
C554 C 0.75779 0.34271 0.74184 0.0
C555 C 0.85908 0.35491 0.71342 0.0
C556 C 0.8229 0.35419 0.73495 0.0
C557 C 0.71626 0.35446 0.79561 0.0
C558 C 0.75319 0.35404 0.77491 0.0
H559 H 0.95474 0.35406 0.72757 0.0
H560 H 0.89514 0.35098 0.76257 0.0
H561 H 0.79489 0.33401 0.6966 0.0
H562 H 0.62081 0.35547 0.77919 0.0
H563 H 0.68097 0.35313 0.74522 0.0
C564 C 0.42957 0.38134 0.781 0.0
C565 C 0.43443 0.38002 0.82042 0.0
C566 C 0.39346 0.38447 0.76558 0.0
C567 C 0.29261 0.37714 0.79006 0.0
H568 H 0.27427 0.40641 0.69759 0.0
C569 C 0.14263 0.38333 0.72686 0.0
C570 C 0.13991 0.37939 0.68789 0.0
C571 C 0.17801 0.38662 0.74364 0.0
C572 C 0.27901 0.39813 0.72338 0.0
H573 H 0.40578 0.38211 0.87466 0.0
H574 H 0.34309 0.38803 0.84789 0.0
H575 H 0.33753 0.40662 0.72606 0.0
H576 H 0.17192 0.37665 0.63564 0.0
H577 H 0.23364 0.38229 0.66493 0.0
H578 H 0.23441 0.36841 0.78718 0.0
C579 C 0.36688 0.38612 0.82877 0.0
C580 C 0.31525 0.39823 0.73966 0.0
C581 C 0.40287 0.38286 0.84414 0.0
C582 C 0.17309 0.37962 0.66576 0.0
C583 C 0.20846 0.38297 0.68252 0.0
C584 C 0.25645 0.37711 0.7739 0.0
C585 C 0.36153 0.38646 0.78929 0.0
C586 C 0.32258 0.38756 0.77303 0.0
C587 C 0.2114 0.38609 0.72178 0.0
C588 C 0.24928 0.38744 0.74018 0.0
H589 H 0.45337 0.37915 0.762 0.0
H590 H 0.39039 0.38447 0.73505 0.0
H591 H 0.29733 0.36842 0.8153 0.0
H592 H 0.11755 0.38333 0.74465 0.0
H593 H 0.17928 0.38926 0.77388 0.0
C594 C 0.16991 0.63281 0.34338 0.0
C595 C 0.1385 0.63583 0.31959 0.0
C596 C 0.20598 0.62968 0.32807 0.0
C597 C 0.25822 0.61848 0.23887 0.0
H598 H 0.33813 0.64857 0.28726 0.0
C599 C 0.3999 0.63851 0.16555 0.0
C600 C 0.43306 0.63871 0.18766 0.0
C601 C 0.36458 0.63493 0.18224 0.0
C602 C 0.31635 0.6398 0.27373 0.0
H603 H 0.11986 0.63712 0.26112 0.0
H604 H 0.18298 0.63203 0.2343 0.0
H605 H 0.27516 0.6479 0.31531 0.0
H606 H 0.45544 0.63454 0.24432 0.0
H607 H 0.3938 0.6282 0.27344 0.0
H608 H 0.2995 0.61089 0.19664 0.0
C609 C 0.17973 0.63179 0.26481 0.0
C610 C 0.28017 0.63939 0.28986 0.0
C611 C 0.14355 0.63479 0.28016 0.0
C612 C 0.43037 0.63458 0.22656 0.0
C613 C 0.39505 0.63105 0.24327 0.0
C614 C 0.29448 0.61895 0.22264 0.0
C615 C 0.21152 0.62967 0.28861 0.0
C616 C 0.25055 0.62887 0.27249 0.0
C617 C 0.36168 0.63152 0.22142 0.0
C618 C 0.32385 0.62976 0.23974 0.0
H619 H 0.16683 0.63335 0.3739 0.0
H620 H 0.22968 0.62767 0.34722 0.0
H621 H 0.23619 0.61004 0.22502 0.0
H622 H 0.40107 0.64162 0.13547 0.0
H623 H 0.33941 0.63558 0.16468 0.0
C624 C 0.07114 0.27634 0.72765 0.0
C625 C 0.06747 0.2968 0.73216 0.0
C626 C 0.06888 0.26378 0.75897 0.0
C627 C 0.03477 0.26194 0.85843 0.0
H628 H 0.10277 0.21723 0.8662 0.0
C629 C 0.05324 0.21849 0.99717 0.0
C630 C 0.05452 0.19786 0.9948 0.0
C631 C 0.0544 0.23001 0.96445 0.0
C632 C 0.08331 0.22953 0.86423 0.0
H633 H 0.05936 0.32009 0.77334 0.0
H634 H 0.05574 0.2983 0.82787 0.0
H635 H 0.10557 0.23841 0.81043 0.0
H636 H 0.05835 0.17316 0.95614 0.0
H637 H 0.06029 0.19336 0.89877 0.0
H638 H 0.01288 0.25321 0.91243 0.0
C639 C 0.05951 0.29187 0.80004 0.0
C640 C 0.08486 0.24167 0.83225 0.0
C641 C 0.06161 0.3044 0.76874 0.0
C642 C 0.05717 0.18902 0.95887 0.0
C643 C 0.05857 0.20058 0.92607 0.0
C644 C 0.03335 0.24987 0.89042 0.0
C645 C 0.06304 0.27139 0.79558 0.0
C646 C 0.06076 0.25811 0.82906 0.0
C647 C 0.05697 0.22121 0.92851 0.0
C648 C 0.05777 0.23361 0.89383 0.0
H649 H 0.07518 0.27 0.69982 0.0
H650 H 0.07116 0.24808 0.75439 0.0
H651 H 0.01525 0.27423 0.85661 0.0
H652 H 0.05065 0.22577 0.02435 0.0
H653 H 0.05351 0.24586 0.96733 0.0
C654 C 0.49112 0.80668 0.4877 0.0
C655 C 0.5101 0.82479 0.48585 0.0
C656 C 0.48899 0.7945 0.45582 0.0
C657 C 0.53546 0.78664 0.36166 0.0
H658 H 0.45147 0.75064 0.34685 0.0
C659 C 0.51132 0.74139 0.22434 0.0
C660 C 0.50599 0.7211 0.2296 0.0
C661 C 0.51166 0.75418 0.25538 0.0
C662 C 0.47517 0.76057 0.3508 0.0
H663 H 0.54024 0.84482 0.44898 0.0
H664 H 0.53481 0.82419 0.39271 0.0
H665 H 0.4503 0.77347 0.40015 0.0
H666 H 0.49635 0.6983 0.27128 0.0
H667 H 0.49601 0.72078 0.32569 0.0
H668 H 0.55948 0.77405 0.31132 0.0
C669 C 0.52283 0.81888 0.41904 0.0
C670 C 0.47467 0.77363 0.38147 0.0
C671 C 0.52561 0.83086 0.45115 0.0
C672 C 0.50082 0.71385 0.26652 0.0
C673 C 0.50034 0.7267 0.29752 0.0
C674 C 0.53554 0.77386 0.33061 0.0
C675 C 0.50522 0.8003 0.42105 0.0
C676 C 0.50494 0.7868 0.38754 0.0
C677 C 0.50586 0.74698 0.29223 0.0
C678 C 0.50553 0.76062 0.32502 0.0
H679 H 0.47941 0.80154 0.5143 0.0
H680 H 0.47577 0.78024 0.45895 0.0
H681 H 0.55978 0.79613 0.36564 0.0
H682 H 0.51558 0.74731 0.19619 0.0
H683 H 0.51585 0.76976 0.25055 0.0
C684 C 0.05389 0.82732 0.04947 0.0
C685 C 0.05723 0.81875 0.01332 0.0
C686 C 0.05572 0.8157 0.08217 0.0
C687 C 0.04448 0.76402 0.11408 0.0
H688 H 0.09487 0.7826 0.20487 0.0
C689 C 0.03622 0.72096 0.25462 0.0
C690 C 0.06933 0.71986 0.27673 0.0
C691 C 0.03429 0.73362 0.22347 0.0
C692 C 0.08092 0.77711 0.17967 0.0
H693 H 0.06497 0.79108 0.98354 0.0
H694 H 0.06954 0.77107 0.04026 0.0
H695 H 0.09379 0.80327 0.14845 0.0
H696 H 0.12644 0.73119 0.28328 0.0
H697 H 0.12333 0.75307 0.2287 0.0
H698 H 0.03262 0.73764 0.14477 0.0
C699 C 0.0649 0.78673 0.04343 0.0
C700 C 0.07989 0.78908 0.14743 0.0
C701 C 0.0629 0.79831 0.0108 0.0
C702 C 0.10035 0.73186 0.26715 0.0
C703 C 0.09852 0.74445 0.23585 0.0
C704 C 0.04564 0.75204 0.14622 0.0
C705 C 0.06096 0.79522 0.07955 0.0
C706 C 0.06176 0.78266 0.11416 0.0
C707 C 0.06551 0.74543 0.21347 0.0
C708 C 0.06391 0.75839 0.17945 0.0
H709 H 0.0498 0.84302 0.05253 0.0
H710 H 0.05224 0.82274 0.10948 0.0
H711 H 0.02975 0.75868 0.0892 0.0
H712 H 0.01162 0.71215 0.26161 0.0
H713 H 0.00814 0.73424 0.20738 0.0
C714 C 0.47161 0.28628 0.76368 0.0
C715 C 0.50379 0.29682 0.77556 0.0
C716 C 0.47352 0.27374 0.73231 0.0
C717 C 0.53973 0.2443 0.67565 0.0
H718 H 0.46279 0.24764 0.59739 0.0
C719 C 0.55507 0.20279 0.53372 0.0
C720 C 0.52219 0.19565 0.51592 0.0
C721 C 0.55242 0.21467 0.56594 0.0
C722 C 0.48419 0.24622 0.61923 0.0
H723 H 0.5633 0.30225 0.76424 0.0
H724 H 0.56681 0.28012 0.70962 0.0
H725 H 0.45885 0.26909 0.6526 0.0
H726 H 0.46078 0.19501 0.51834 0.0
H727 H 0.45602 0.21522 0.57534 0.0
H728 H 0.56473 0.22119 0.64299 0.0
C729 C 0.54007 0.28165 0.72453 0.0
C730 C 0.48199 0.25862 0.6508 0.0
C731 C 0.53801 0.29442 0.75557 0.0
C732 C 0.48659 0.20043 0.53134 0.0
C733 C 0.48392 0.21212 0.5639 0.0
C734 C 0.54169 0.23172 0.64434 0.0
C735 C 0.5078 0.27124 0.71247 0.0
C736 C 0.50985 0.25787 0.67923 0.0
C737 C 0.51681 0.21955 0.58151 0.0
C738 C 0.51408 0.23258 0.61552 0.0
H739 H 0.44477 0.28797 0.77828 0.0
H740 H 0.44826 0.26582 0.72379 0.0
H741 H 0.56134 0.24322 0.69738 0.0
H742 H 0.58289 0.19965 0.52209 0.0
H743 H 0.57838 0.2204 0.57807 0.0
C744 C 0.56621 0.77541 0.72478 0.0
C745 C 0.56725 0.79599 0.7287 0.0
C746 C 0.56508 0.76324 0.75671 0.0
C747 C 0.54081 0.76377 0.85881 0.0
H748 H 0.5987 0.71524 0.86153 0.0
C749 C 0.55778 0.71863 0.99584 0.0
C750 C 0.55475 0.69805 0.99318 0.0
C751 C 0.55971 0.73023 0.96325 0.0
C752 C 0.58205 0.72864 0.86105 0.0
H753 H 0.56892 0.81982 0.76948 0.0
H754 H 0.56711 0.79865 0.82508 0.0
H755 H 0.60159 0.7362 0.80545 0.0
H756 H 0.55176 0.67355 0.95401 0.0
H757 H 0.55479 0.69388 0.89692 0.0
H758 H 0.52138 0.75627 0.9144 0.0
C759 C 0.56641 0.79191 0.79729 0.0
C760 C 0.58369 0.74066 0.8289 0.0
C761 C 0.56747 0.80407 0.76537 0.0
C762 C 0.55391 0.68936 0.95703 0.0
C763 C 0.55598 0.70099 0.92435 0.0
C764 C 0.53923 0.75178 0.89093 0.0
C765 C 0.56502 0.77133 0.79338 0.0
C766 C 0.56317 0.75842 0.82743 0.0
C767 C 0.55866 0.72158 0.9271 0.0
C768 C 0.55994 0.73411 0.89252 0.0
H769 H 0.56547 0.76869 0.697 0.0
H770 H 0.56347 0.74748 0.75261 0.0
H771 H 0.52406 0.77713 0.85841 0.0
H772 H 0.55792 0.72586 0.02318 0.0
H773 H 0.56219 0.74602 0.96642 0.0
C774 C 0.02065 0.29725 0.49736 0.0
C775 C 0.0202 0.31787 0.49484 0.0
C776 C 0.01827 0.28565 0.4648 0.0
C777 C 0.03188 0.28708 0.36072 0.0
H778 H 0.97378 0.2387 0.36418 0.0
C779 C 0.00286 0.23902 0.22797 0.0
C780 C 0.00692 0.21858 0.23252 0.0
C781 C 0.00413 0.25158 0.25936 0.0
C782 C 0.99038 0.25208 0.36285 0.0
H783 H 0.01679 0.3425 0.45603 0.0
H784 H 0.01213 0.32223 0.399 0.0
H785 H 0.9759 0.25994 0.41971 0.0
H786 H 0.01513 0.19533 0.27375 0.0
H787 H 0.01759 0.21721 0.32841 0.0
H788 H 0.0461 0.27918 0.30364 0.0
C789 C 0.01488 0.31502 0.42622 0.0
C790 C 0.99166 0.26426 0.39471 0.0
C791 C 0.01745 0.32664 0.45888 0.0
C792 C 0.0123 0.211 0.26918 0.0
C793 C 0.01329 0.22353 0.30056 0.0
C794 C 0.03042 0.27492 0.32874 0.0
C795 C 0.01523 0.29436 0.42879 0.0
C796 C 0.0127 0.28184 0.39421 0.0
C797 C 0.00916 0.24396 0.29604 0.0
C798 C 0.00992 0.2572 0.32956 0.0
H799 H 0.02361 0.29001 0.52454 0.0
H800 H 0.01949 0.26982 0.46786 0.0
H801 H 0.04878 0.30036 0.35945 0.0
H802 H 0.99903 0.24533 0.20009 0.0
H803 H 1.00061 0.26724 0.25496 0.0
C804 C 0.55684 0.32701 0.04863 0.0
C805 C 0.5538 0.31803 0.01286 0.0
C806 C 0.55947 0.31558 0.08156 0.0
C807 C 0.58293 0.26508 0.11426 0.0
H808 H 0.52832 0.28044 0.20501 0.0
C809 C 0.56375 0.21241 0.24083 0.0
C810 C 0.56808 0.22018 0.2775 0.0
C811 C 0.56264 0.22479 0.20924 0.0
C812 C 0.54408 0.27606 0.18003 0.0
H813 H 0.54994 0.28996 0.9839 0.0
H814 H 0.55435 0.27013 0.04104 0.0
H815 H 0.52543 0.30127 0.14875 0.0
H816 H 0.57408 0.24718 0.3096 0.0
H817 H 0.57247 0.26881 0.25436 0.0
H818 H 0.60127 0.23978 0.14536 0.0
C819 C 0.55566 0.28598 0.0437 0.0
C820 C 0.54247 0.28802 0.14777 0.0
C821 C 0.55314 0.29737 0.01087 0.0
C822 C 0.57105 0.24069 0.28177 0.0
C823 C 0.56975 0.2531 0.25013 0.0
C824 C 0.58444 0.25311 0.14643 0.0
C825 C 0.55897 0.29491 0.0795 0.0
C826 C 0.56167 0.2826 0.11437 0.0
C827 C 0.56571 0.24529 0.21346 0.0
C828 C 0.56484 0.25837 0.17963 0.0
H829 H 0.55771 0.34287 0.05113 0.0
H830 H 0.56241 0.32295 0.1086 0.0
H831 H 0.59869 0.26062 0.08933 0.0
H832 H 0.5618 0.1967 0.23637 0.0
H833 H 0.55906 0.21829 0.18145 0.0
C834 C 0.01759 0.68841 0.54814 0.0
C835 C 0.01967 0.69745 0.51236 0.0
C836 C 0.01621 0.69978 0.58119 0.0
C837 C 0.04048 0.74913 0.61729 0.0
H838 H 0.9708 0.73653 0.69882 0.0
C839 C 0.01236 0.80289 0.74018 0.0
C840 C 0.00834 0.79514 0.77689 0.0
C841 C 0.01417 0.79046 0.70872 0.0
C842 C 0.99079 0.74011 0.67654 0.0
H843 H 0.02236 0.72555 0.48338 0.0
H844 H 0.01936 0.74531 0.54079 0.0
H845 H 0.97306 0.71567 0.64253 0.0
H846 H 0.00341 0.76817 0.80922 0.0
H847 H 0.0068 0.74642 0.75428 0.0
H848 H 0.0583 0.77352 0.65112 0.0
C849 C 0.019 0.72944 0.54338 0.0
C850 C 0.99204 0.72815 0.64427 0.0
C851 C 0.02022 0.7181 0.51041 0.0
C852 C 0.00607 0.77463 0.78133 0.0
C853 C 0.00798 0.76216 0.74981 0.0
C854 C 0.03931 0.76103 0.64953 0.0
C855 C 0.01718 0.72043 0.57917 0.0
C856 C 0.01666 0.73264 0.61413 0.0
C857 C 0.01212 0.76994 0.71311 0.0
C858 C 0.01421 0.75679 0.67943 0.0
H859 H 0.01695 0.67254 0.55058 0.0
H860 H 0.01506 0.6924 0.60836 0.0
H861 H 0.06029 0.75279 0.59489 0.0
H862 H 0.01344 0.81861 0.7356 0.0
H863 H 0.0166 0.79699 0.68084 0.0
loop_
_geom_bond_atom_site_label_1
_geom_bond_atom_site_label_2
_geom_bond_distance
_geom_bond_site_symmetry_2
_ccdc_geom_bond_type
Co0 N4 2.148 . S
Co0 N10 2.128 . S
Co0 N20 2.194 . S
Co0 O25 2.351 1_455 S
Co0 O26 2.155 1_455 S
Co0 O27 2.096 . S
C1 N4 1.301 . S
C1 N5 1.328 . S
C1 H6 0.930 1_455 S
C2 C3 1.333 . S
C2 N4 1.317 . S
C2 H7 0.930 . S
C3 C2 1.333 . S
C3 N5 1.350 . S
C3 H29 0.931 . S
N4 Co0 2.148 . S
N4 C1 1.301 . S
N4 C2 1.317 . S
N5 C1 1.328 . S
N5 C3 1.350 . S
H6 C1 0.930 1_655 S
H7 C2 0.930 . S
C8 O9 1.224 . S
C8 O27 1.247 . S
O9 C8 1.224 . S
N10 Co0 2.128 . S
N10 C11 1.355 1_455 S
N10 C13 1.311 . S
C11 N10 1.355 1_655 S
C11 C12 1.363 1_655 S
C11 H23 0.929 . S
C12 C11 1.363 1_455 S
C12 N14 1.375 . S
C12 H30 0.931 1_455 S
C13 N10 1.311 . S
C13 N14 1.347 . S
C13 H24 0.929 . S
N14 C12 1.375 . S
N14 C13 1.347 . S
C15 C18 1.365 . S
C15 N20 1.328 1_655 S
C15 H21 0.929 . S
C16 C17 1.362 . S
C16 C19 1.378 . S
C16 H31 0.929 . S
C17 C16 1.362 . S
C17 C18 1.366 1_455 S
C18 C15 1.365 . S
C18 C17 1.366 1_655 S
C18 H32 0.930 . S
C19 C16 1.378 . S
C19 N20 1.315 . S
C19 H22 0.930 . S
N20 Co0 2.194 . S
N20 C15 1.328 1_455 S
N20 C19 1.315 . S
H21 C15 0.929 . S
H22 C19 0.930 . S
H23 C11 0.929 . S
H24 C13 0.929 . S
O25 Co0 2.351 1_655 S
O25 C28 1.244 . S
O26 Co0 2.155 1_655 S
O26 C28 1.240 . S
O27 Co0 2.096 . S
O27 C8 1.247 . S
C28 O25 1.244 . S
C28 O26 1.240 . S
H29 C3 0.931 . S
H30 C12 0.931 1_655 S
H31 C16 0.929 . S
H32 C18 0.930 . S
Co33 N37 2.148 . S
Co33 N43 2.128 . S
Co33 N53 2.194 . S
Co33 O58 2.351 . S
Co33 O59 2.155 . S
Co33 O60 2.096 . S
C34 N37 1.301 . S
C34 N38 1.328 . S
C34 H39 0.930 . S
C35 C36 1.333 . S
C35 N37 1.317 . S
C35 H40 0.930 . S
C36 C35 1.333 . S
C36 N38 1.350 . S
C36 H62 0.931 . S
N37 Co33 2.148 . S
N37 C34 1.301 . S
N37 C35 1.317 . S
N38 C34 1.328 . S
N38 C36 1.350 . S
H39 C34 0.930 . S
H40 C35 0.930 . S
C41 O42 1.224 . S
C41 O60 1.247 . S
O42 C41 1.224 . S
N43 Co33 2.128 . S
N43 C44 1.355 . S
N43 C46 1.311 . S
C44 N43 1.355 . S
C44 C45 1.363 . S
C44 H56 0.929 . S
C45 C44 1.363 . S
C45 N47 1.375 . S
C45 H63 0.931 . S
C46 N43 1.311 . S
C46 N47 1.347 . S
C46 H57 0.929 . S
N47 C45 1.375 . S
N47 C46 1.347 . S
C48 C51 1.365 . S
C48 N53 1.328 . S
C48 H54 0.929 . S
C49 C50 1.362 . S
C49 C52 1.378 . S
C49 H64 0.929 . S
C50 C49 1.362 . S
C50 C51 1.366 . S
C51 C48 1.365 . S
C51 C50 1.366 . S
C51 H65 0.930 . S
C52 C49 1.378 . S
C52 N53 1.315 . S
C52 H55 0.930 . S
N53 Co33 2.194 . S
N53 C48 1.328 . S
N53 C52 1.315 . S
H54 C48 0.929 . S
H55 C52 0.930 . S
H56 C44 0.929 . S
H57 C46 0.929 . S
O58 Co33 2.351 . S
O58 C61 1.244 . S
O59 Co33 2.155 . S
O59 C61 1.240 . S
O60 Co33 2.096 . S
O60 C41 1.247 . S
C61 O58 1.244 . S
C61 O59 1.240 . S
H62 C36 0.931 . S
H63 C45 0.931 . S
H64 C49 0.929 . S
H65 C51 0.930 . S
Co66 N70 2.148 . S
Co66 N76 2.128 . S
Co66 N86 2.194 . S
Co66 O91 2.351 1_455 S
Co66 O92 2.155 1_455 S
Co66 O93 2.096 . S
C67 N70 1.301 . S
C67 N71 1.328 . S
C67 H72 0.930 1_455 S
C68 C69 1.333 . S
C68 N70 1.317 . S
C68 H73 0.930 . S
C69 C68 1.333 . S
C69 N71 1.350 . S
C69 H95 0.931 . S
N70 Co66 2.148 . S
N70 C67 1.301 . S
N70 C68 1.317 . S
N71 C67 1.328 . S
N71 C69 1.350 . S
H72 C67 0.930 1_655 S
H73 C68 0.930 . S
C74 O75 1.224 . S
C74 O93 1.247 . S
O75 C74 1.224 . S
N76 Co66 2.128 . S
N76 C77 1.355 1_455 S
N76 C79 1.311 . S
C77 N76 1.355 1_655 S
C77 C78 1.363 1_655 S
C77 H89 0.929 . S
C78 C77 1.363 1_455 S
C78 N80 1.375 . S
C78 H96 0.931 1_455 S
C79 N76 1.311 . S
C79 N80 1.347 . S
C79 H90 0.929 . S
N80 C78 1.375 . S
N80 C79 1.347 . S
C81 C84 1.365 . S
C81 N86 1.328 1_655 S
C81 H87 0.929 . S
C82 C83 1.362 . S
C82 C85 1.378 . S
C82 H97 0.929 . S
C83 C82 1.362 . S
C83 C84 1.366 1_455 S
C84 C81 1.365 . S
C84 C83 1.366 1_655 S
C84 H98 0.930 . S
C85 C82 1.378 . S
C85 N86 1.315 . S
C85 H88 0.930 . S
N86 Co66 2.194 . S
N86 C81 1.328 1_455 S
N86 C85 1.315 . S
H87 C81 0.929 . S
H88 C85 0.930 . S
H89 C77 0.929 . S
H90 C79 0.929 . S
O91 Co66 2.351 1_655 S
O91 C94 1.244 . S
O92 Co66 2.155 1_655 S
O92 C94 1.240 . S
O93 Co66 2.096 . S
O93 C74 1.247 . S
C94 O91 1.244 . S
C94 O92 1.240 . S
H95 C69 0.931 . S
H96 C78 0.931 1_655 S
H97 C82 0.929 . S
H98 C84 0.930 . S
Co99 N103 2.148 . S
Co99 N109 2.128 . S
Co99 N119 2.194 . S
Co99 O124 2.351 . S
Co99 O125 2.155 . S
Co99 O126 2.096 . S
C100 N103 1.301 . S
C100 N104 1.328 . S
C100 H105 0.930 . S
C101 C102 1.333 . S
C101 N103 1.317 . S
C101 H106 0.930 . S
C102 C101 1.333 . S
C102 N104 1.350 . S
C102 H128 0.931 . S
N103 Co99 2.148 . S
N103 C100 1.301 . S
N103 C101 1.317 . S
N104 C100 1.328 . S
N104 C102 1.350 . S
H105 C100 0.930 . S
H106 C101 0.930 . S
C107 O108 1.224 . S
C107 O126 1.247 . S
O108 C107 1.224 . S
N109 Co99 2.128 . S
N109 C110 1.355 . S
N109 C112 1.311 . S
C110 N109 1.355 . S
C110 C111 1.363 . S
C110 H122 0.929 . S
C111 C110 1.363 . S
C111 N113 1.375 . S
C111 H129 0.931 . S
C112 N109 1.311 . S
C112 N113 1.347 . S
C112 H123 0.929 . S
N113 C111 1.375 . S
N113 C112 1.347 . S
C114 C117 1.365 . S
C114 N119 1.328 . S
C114 H120 0.929 . S
C115 C116 1.362 . S
C115 C118 1.378 . S
C115 H130 0.929 . S
C116 C115 1.362 . S
C116 C117 1.366 . S
C117 C114 1.365 . S
C117 C116 1.366 . S
C117 H131 0.930 . S
C118 C115 1.378 . S
C118 N119 1.315 . S
C118 H121 0.930 . S
N119 Co99 2.194 . S
N119 C114 1.328 . S
N119 C118 1.315 . S
H120 C114 0.929 . S
H121 C118 0.930 . S
H122 C110 0.929 . S
H123 C112 0.929 . S
O124 Co99 2.351 . S
O124 C127 1.244 . S
O125 Co99 2.155 . S
O125 C127 1.240 . S
O126 Co99 2.096 . S
O126 C107 1.247 . S
C127 O124 1.244 . S
C127 O125 1.240 . S
H128 C102 0.931 . S
H129 C111 0.931 . S
H130 C115 0.929 . S
H131 C117 0.930 . S
Co132 N136 2.148 . S
Co132 N142 2.128 . S
Co132 N152 2.194 . S
Co132 O157 2.351 . S
Co132 O158 2.155 . S
Co132 O159 2.096 . S
C133 N136 1.301 . S
C133 N137 1.328 . S
C133 H138 0.930 . S
C134 C135 1.333 . S
C134 N136 1.317 . S
C134 H139 0.930 . S
C135 C134 1.333 . S
C135 N137 1.350 . S
C135 H161 0.931 . S
N136 Co132 2.148 . S
N136 C133 1.301 . S
N136 C134 1.317 . S
N137 C133 1.328 . S
N137 C135 1.350 . S
H138 C133 0.930 . S
H139 C134 0.930 . S
C140 O141 1.224 . S
C140 O159 1.247 . S
O141 C140 1.224 . S
N142 Co132 2.128 . S
N142 C143 1.355 . S
N142 C145 1.311 . S
C143 N142 1.355 . S
C143 C144 1.363 . S
C143 H155 0.929 . S
C144 C143 1.363 . S
C144 N146 1.375 . S
C144 H162 0.931 . S
C145 N142 1.311 . S
C145 N146 1.347 . S
C145 H156 0.929 . S
N146 C144 1.375 . S
N146 C145 1.347 . S
C147 C150 1.365 . S
C147 N152 1.328 . S
C147 H153 0.929 . S
C148 C149 1.362 . S
C148 C151 1.378 . S
C148 H163 0.929 . S
C149 C148 1.362 . S
C149 C150 1.366 . S
C150 C147 1.365 . S
C150 C149 1.366 . S
C150 H164 0.930 . S
C151 C148 1.378 . S
C151 N152 1.315 . S
C151 H154 0.930 . S
N152 Co132 2.194 . S
N152 C147 1.328 . S
N152 C151 1.315 . S
H153 C147 0.929 . S
H154 C151 0.930 . S
H155 C143 0.929 . S
H156 C145 0.929 . S
O157 Co132 2.351 . S
O157 C160 1.244 . S
O158 Co132 2.155 . S
O158 C160 1.240 . S
O159 Co132 2.096 . S
O159 C140 1.247 . S
C160 O157 1.244 . S
C160 O158 1.240 . S
H161 C135 0.931 . S
H162 C144 0.931 . S
H163 C148 0.929 . S
H164 C150 0.930 . S
Co165 N169 2.148 . S
Co165 N175 2.128 . S
Co165 N185 2.194 . S
Co165 O190 2.351 . S
Co165 O191 2.155 . S
Co165 O192 2.096 . S
C166 N169 1.301 . S
C166 N170 1.328 . S
C166 H171 0.930 . S
C167 C168 1.333 . S
C167 N169 1.317 . S
C167 H172 0.930 1_455 S
C168 C167 1.333 . S
C168 N170 1.350 . S
C168 H194 0.931 . S
N169 Co165 2.148 . S
N169 C166 1.301 . S
N169 C167 1.317 . S
N170 C166 1.328 . S
N170 C168 1.350 . S
H171 C166 0.930 . S
H172 C167 0.930 1_655 S
C173 O174 1.224 . S
C173 O192 1.247 1_655 S
O174 C173 1.224 . S
N175 Co165 2.128 . S
N175 C176 1.355 . S
N175 C178 1.311 . S
C176 N175 1.355 . S
C176 C177 1.363 . S
C176 H188 0.929 . S
C177 C176 1.363 . S
C177 N179 1.375 . S
C177 H195 0.931 . S
C178 N175 1.311 . S
C178 N179 1.347 . S
C178 H189 0.929 . S
N179 C177 1.375 . S
N179 C178 1.347 . S
C180 C183 1.365 . S
C180 N185 1.328 . S
C180 H186 0.929 . S
C181 C182 1.362 . S
C181 C184 1.378 . S
C181 H196 0.929 1_455 S
C182 C181 1.362 . S
C182 C183 1.366 . S
C183 C180 1.365 . S
C183 C182 1.366 . S
C183 H197 0.930 . S
C184 C181 1.378 . S
C184 N185 1.315 . S
C184 H187 0.930 1_455 S
N185 Co165 2.194 . S
N185 C180 1.328 . S
N185 C184 1.315 . S
H186 C180 0.929 . S
H187 C184 0.930 1_655 S
H188 C176 0.929 . S
H189 C178 0.929 . S
O190 Co165 2.351 . S
O190 C193 1.244 . S
O191 Co165 2.155 . S
O191 C193 1.240 . S
O192 Co165 2.096 . S
O192 C173 1.247 1_455 S
C193 O190 1.244 . S
C193 O191 1.240 . S
H194 C168 0.931 . S
H195 C177 0.931 . S
H196 C181 0.929 1_655 S
H197 C183 0.930 . S
Co198 N202 2.148 . S
Co198 N208 2.128 . S
Co198 N218 2.194 . S
Co198 O223 2.351 . S
Co198 O224 2.155 . S
Co198 O225 2.096 . S
C199 N202 1.301 . S
C199 N203 1.328 . S
C199 H204 0.930 . S
C200 C201 1.333 . S
C200 N202 1.317 . S
C200 H205 0.930 . S
C201 C200 1.333 . S
C201 N203 1.350 . S
C201 H227 0.931 . S
N202 Co198 2.148 . S
N202 C199 1.301 . S
N202 C200 1.317 . S
N203 C199 1.328 . S
N203 C201 1.350 . S
H204 C199 0.930 . S
H205 C200 0.930 . S
C206 O207 1.224 . S
C206 O225 1.247 . S
O207 C206 1.224 . S
N208 Co198 2.128 . S
N208 C209 1.355 . S
N208 C211 1.311 . S
C209 N208 1.355 . S
C209 C210 1.363 . S
C209 H221 0.929 . S
C210 C209 1.363 . S
C210 N212 1.375 . S
C210 H228 0.931 . S
C211 N208 1.311 . S
C211 N212 1.347 . S
C211 H222 0.929 . S
N212 C210 1.375 . S
N212 C211 1.347 . S
C213 C216 1.365 . S
C213 N218 1.328 . S
C213 H219 0.929 . S
C214 C215 1.362 . S
C214 C217 1.378 . S
C214 H229 0.929 . S
C215 C214 1.362 . S
C215 C216 1.366 . S
C216 C213 1.365 . S
C216 C215 1.366 . S
C216 H230 0.930 . S
C217 C214 1.378 . S
C217 N218 1.315 . S
C217 H220 0.930 . S
N218 Co198 2.194 . S
N218 C213 1.328 . S
N218 C217 1.315 . S
H219 C213 0.929 . S
H220 C217 0.930 . S
H221 C209 0.929 . S
H222 C211 0.929 . S
O223 Co198 2.351 . S
O223 C226 1.244 . S
O224 Co198 2.155 . S
O224 C226 1.240 . S
O225 Co198 2.096 . S
O225 C206 1.247 . S
C226 O223 1.244 . S
C226 O224 1.240 . S
H227 C201 0.931 . S
H228 C210 0.931 . S
H229 C214 0.929 . S
H230 C216 0.930 . S
Co231 N235 2.148 . S
Co231 N241 2.128 . S
Co231 N251 2.194 . S
Co231 O256 2.351 . S
Co231 O257 2.155 . S
Co231 O258 2.096 . S
C232 N235 1.301 . S
C232 N236 1.328 . S
C232 H237 0.930 . S
C233 C234 1.333 . S
C233 N235 1.317 . S
C233 H238 0.930 1_455 S
C234 C233 1.333 . S
C234 N236 1.350 . S
C234 H260 0.931 . S
N235 Co231 2.148 . S
N235 C232 1.301 . S
N235 C233 1.317 . S
N236 C232 1.328 . S
N236 C234 1.350 . S
H237 C232 0.930 . S
H238 C233 0.930 1_655 S
C239 O240 1.224 . S
C239 O258 1.247 1_655 S
O240 C239 1.224 . S
N241 Co231 2.128 . S
N241 C242 1.355 . S
N241 C244 1.311 . S
C242 N241 1.355 . S
C242 C243 1.363 . S
C242 H254 0.929 . S
C243 C242 1.363 . S
C243 N245 1.375 . S
C243 H261 0.931 . S
C244 N241 1.311 . S
C244 N245 1.347 . S
C244 H255 0.929 . S
N245 C243 1.375 . S
N245 C244 1.347 . S
C246 C249 1.365 . S
C246 N251 1.328 . S
C246 H252 0.929 . S
C247 C248 1.362 . S
C247 C250 1.378 . S
C247 H262 0.929 1_455 S
C248 C247 1.362 . S
C248 C249 1.366 . S
C249 C246 1.365 . S
C249 C248 1.366 . S
C249 H263 0.930 . S
C250 C247 1.378 . S
C250 N251 1.315 . S
C250 H253 0.930 1_455 S
N251 Co231 2.194 . S
N251 C246 1.328 . S
N251 C250 1.315 . S
H252 C246 0.929 . S
H253 C250 0.930 1_655 S
H254 C242 0.929 . S
H255 C244 0.929 . S
O256 Co231 2.351 . S
O256 C259 1.244 . S
O257 Co231 2.155 . S
O257 C259 1.240 . S
O258 Co231 2.096 . S
O258 C239 1.247 1_455 S
C259 O256 1.244 . S
C259 O257 1.240 . S
H260 C234 0.931 . S
H261 C243 0.931 . S
H262 C247 0.929 1_655 S
H263 C249 0.930 . S
C264 C265 1.349 . S
C264 C266 1.327 . S
C264 H289 0.950 . S
C265 C264 1.349 . S
C265 C281 1.349 1_455 S
C266 C264 1.327 . S
C266 C285 1.429 . S
C266 H290 0.950 . S
C267 C284 1.574 1_565 S
C267 C286 1.368 1_655 S
C267 H291 0.949 . S
H268 C272 0.949 . S
C269 C270 1.349 1_655 S
C269 C271 1.327 . S
C269 H292 0.950 . S
C270 C269 1.349 1_455 S
C270 C282 1.349 . S
C271 C269 1.327 . S
C271 C287 1.429 1_655 S
C271 H293 0.950 . S
C272 H268 0.949 . S
C272 C280 1.574 1_545 S
C272 C288 1.368 . S
H273 C281 0.950 . S
H274 C279 0.950 . S
H275 C280 0.949 . S
H276 C282 0.950 . S
H277 C283 0.950 . S
H278 C284 0.949 . S
C279 H274 0.950 . S
C279 C281 1.327 . S
C279 C285 1.429 1_655 S
C280 C272 1.574 1_565 S
C280 H275 0.949 . S
C280 C286 1.368 1_554 S
C281 C265 1.349 1_655 S
C281 H273 0.950 . S
C281 C279 1.327 . S
C282 C270 1.349 . S
C282 H276 0.950 . S
C282 C283 1.327 . S
C283 H277 0.950 . S
C283 C282 1.327 . S
C283 C287 1.429 . S
C284 C267 1.574 1_545 S
C284 H278 0.949 . S
C284 C288 1.368 1_656 S
C285 C266 1.429 . S
C285 C279 1.429 1_455 S
C285 C286 1.523 . S
C286 C267 1.368 1_455 S
C286 C280 1.368 1_556 S
C286 C285 1.523 . S
C287 C271 1.429 1_455 S
C287 C283 1.429 . S
C287 C288 1.523 . S
C288 C272 1.368 . S
C288 C284 1.368 1_454 S
C288 C287 1.523 . S
H289 C264 0.950 . S
H290 C266 0.950 . S
H291 C267 0.949 . S
H292 C269 0.950 . S
H293 C271 0.950 . S
C294 C295 1.349 . S
C294 C296 1.327 . S
C294 H319 0.950 . S
C295 C294 1.349 . S
C295 C311 1.349 . S
C296 C294 1.327 . S
C296 C315 1.429 . S
C296 H320 0.950 . S
C297 C314 1.574 1_545 S
C297 C316 1.368 . S
C297 H321 0.949 . S
H298 C302 0.949 . S
C299 C300 1.349 . S
C299 C301 1.327 . S
C299 H322 0.950 . S
C300 C299 1.349 . S
C300 C312 1.349 . S
C301 C299 1.327 . S
C301 C317 1.429 . S
C301 H323 0.950 . S
C302 H298 0.949 . S
C302 C310 1.574 1_565 S
C302 C318 1.368 . S
H303 C311 0.950 . S
H304 C309 0.950 . S
H305 C310 0.949 . S
H306 C312 0.950 . S
H307 C313 0.950 . S
H308 C314 0.949 . S
C309 H304 0.950 . S
C309 C311 1.327 . S
C309 C315 1.429 . S
C310 C302 1.574 1_545 S
C310 H305 0.949 . S
C310 C316 1.368 . S
C311 C295 1.349 . S
C311 H303 0.950 . S
C311 C309 1.327 . S
C312 C300 1.349 . S
C312 H306 0.950 . S
C312 C313 1.327 . S
C313 H307 0.950 . S
C313 C312 1.327 . S
C313 C317 1.429 . S
C314 C297 1.574 1_565 S
C314 H308 0.949 . S
C314 C318 1.368 . S
C315 C296 1.429 . S
C315 C309 1.429 . S
C315 C316 1.523 . S
C316 C297 1.368 . S
C316 C310 1.368 . S
C316 C315 1.523 . S
C317 C301 1.429 . S
C317 C313 1.429 . S
C317 C318 1.523 . S
C318 C302 1.368 . S
C318 C314 1.368 . S
C318 C317 1.523 . S
H319 C294 0.950 . S
H320 C296 0.950 . S
H321 C297 0.949 . S
H322 C299 0.950 . S
H323 C301 0.950 . S
C324 C325 1.349 . S
C324 C326 1.327 . S
C324 H349 0.950 . S
C325 C324 1.349 . S
C325 C341 1.349 . S
C326 C324 1.327 . S
C326 C345 1.429 . S
C326 H350 0.950 . S
C327 C344 1.574 . S
C327 C346 1.368 1_556 S
C327 H351 0.949 . S
H328 C332 0.949 . S
C329 C330 1.349 . S
C329 C331 1.327 . S
C329 H352 0.950 . S
C330 C329 1.349 . S
C330 C342 1.349 . S
C331 C329 1.327 . S
C331 C347 1.429 . S
C331 H353 0.950 . S
C332 H328 0.949 . S
C332 C340 1.574 . S
C332 C348 1.368 1_554 S
H333 C341 0.950 . S
H334 C339 0.950 1_556 S
H335 C340 0.949 . S
H336 C342 0.950 . S
H337 C343 0.950 1_554 S
H338 C344 0.949 . S
C339 H334 0.950 1_554 S
C339 C341 1.327 . S
C339 C345 1.429 . S
C340 C332 1.574 . S
C340 H335 0.949 . S
C340 C346 1.368 . S
C341 C325 1.349 . S
C341 H333 0.950 . S
C341 C339 1.327 . S
C342 C330 1.349 . S
C342 H336 0.950 . S
C342 C343 1.327 . S
C343 H337 0.950 1_556 S
C343 C342 1.327 . S
C343 C347 1.429 . S
C344 C327 1.574 . S
C344 H338 0.949 . S
C344 C348 1.368 . S
C345 C326 1.429 . S
C345 C339 1.429 . S
C345 C346 1.523 . S
C346 C327 1.368 1_554 S
C346 C340 1.368 . S
C346 C345 1.523 . S
C347 C331 1.429 . S
C347 C343 1.429 . S
C347 C348 1.523 . S
C348 C332 1.368 1_556 S
C348 C344 1.368 . S
C348 C347 1.523 . S
H349 C324 0.950 . S
H350 C326 0.950 . S
H351 C327 0.949 . S
H352 C329 0.950 . S
H353 C331 0.950 . S
C354 C355 1.349 . S
C354 C356 1.327 . S
C354 H379 0.950 . S
C355 C354 1.349 . S
C355 C371 1.349 . S
C356 C354 1.327 . S
C356 C375 1.429 . S
C356 H380 0.950 . S
C357 C374 1.574 . S
C357 C376 1.368 . S
C357 H381 0.949 . S
H358 C362 0.949 . S
C359 C360 1.349 . S
C359 C361 1.327 . S
C359 H382 0.950 . S
C360 C359 1.349 . S
C360 C372 1.349 . S
C361 C359 1.327 . S
C361 C377 1.429 . S
C361 H383 0.950 . S
C362 H358 0.949 . S
C362 C370 1.574 . S
C362 C378 1.368 . S
H363 C371 0.950 . S
H364 C369 0.950 . S
H365 C370 0.949 . S
H366 C372 0.950 . S
H367 C373 0.950 . S
H368 C374 0.949 . S
C369 H364 0.950 . S
C369 C371 1.327 . S
C369 C375 1.429 . S
C370 C362 1.574 . S
C370 H365 0.949 . S
C370 C376 1.368 . S
C371 C355 1.349 . S
C371 H363 0.950 . S
C371 C369 1.327 . S
C372 C360 1.349 . S
C372 H366 0.950 . S
C372 C373 1.327 . S
C373 H367 0.950 . S
C373 C372 1.327 . S
C373 C377 1.429 . S
C374 C357 1.574 . S
C374 H368 0.949 . S
C374 C378 1.368 . S
C375 C356 1.429 . S
C375 C369 1.429 . S
C375 C376 1.523 . S
C376 C357 1.368 . S
C376 C370 1.368 . S
C376 C375 1.523 . S
C377 C361 1.429 . S
C377 C373 1.429 . S
C377 C378 1.523 . S
C378 C362 1.368 . S
C378 C374 1.368 . S
C378 C377 1.523 . S
H379 C354 0.950 . S
H380 C356 0.950 . S
H381 C357 0.949 . S
H382 C359 0.950 . S
H383 C361 0.950 . S
C384 C385 1.349 . S
C384 C386 1.327 . S
C384 H409 0.950 . S
C385 C384 1.349 . S
C385 C401 1.349 . S
C386 C384 1.327 . S
C386 C405 1.429 . S
C386 H410 0.950 . S
C387 C404 1.574 . S
C387 C406 1.368 . S
C387 H411 0.949 . S
H388 C392 0.949 . S
C389 C390 1.349 . S
C389 C391 1.327 . S
C389 H412 0.950 . S
C390 C389 1.349 . S
C390 C402 1.349 . S
C391 C389 1.327 . S
C391 C407 1.429 . S
C391 H413 0.950 . S
C392 H388 0.949 . S
C392 C400 1.574 . S
C392 C408 1.368 . S
H393 C401 0.950 . S
H394 C399 0.950 . S
H395 C400 0.949 . S
H396 C402 0.950 . S
H397 C403 0.950 . S
H398 C404 0.949 . S
C399 H394 0.950 . S
C399 C401 1.327 . S
C399 C405 1.429 . S
C400 C392 1.574 . S
C400 H395 0.949 . S
C400 C406 1.368 . S
C401 C385 1.349 . S
C401 H393 0.950 . S
C401 C399 1.327 . S
C402 C390 1.349 . S
C402 H396 0.950 . S
C402 C403 1.327 . S
C403 H397 0.950 . S
C403 C402 1.327 . S
C403 C407 1.429 . S
C404 C387 1.574 . S
C404 H398 0.949 . S
C404 C408 1.368 . S
C405 C386 1.429 . S
C405 C399 1.429 . S
C405 C406 1.523 . S
C406 C387 1.368 . S
C406 C400 1.368 . S
C406 C405 1.523 . S
C407 C391 1.429 . S
C407 C403 1.429 . S
C407 C408 1.523 . S
C408 C392 1.368 . S
C408 C404 1.368 . S
C408 C407 1.523 . S
H409 C384 0.950 . S
H410 C386 0.950 . S
H411 C387 0.949 . S
H412 C389 0.950 . S
H413 C391 0.950 . S
C414 C415 1.349 . S
C414 C416 1.327 . S
C414 H439 0.950 . S
C415 C414 1.349 . S
C415 C431 1.349 . S
C416 C414 1.327 . S
C416 C435 1.429 . S
C416 H440 0.950 . S
C417 C434 1.574 . S
C417 C436 1.368 . S
C417 H441 0.949 . S
H418 C422 0.949 . S
C419 C420 1.349 . S
C419 C421 1.327 . S
C419 H442 0.950 . S
C420 C419 1.349 . S
C420 C432 1.349 . S
C421 C419 1.327 . S
C421 C437 1.429 . S
C421 H443 0.950 . S
C422 H418 0.949 . S
C422 C430 1.574 . S
C422 C438 1.368 . S
H423 C431 0.950 . S
H424 C429 0.950 . S
H425 C430 0.949 . S
H426 C432 0.950 . S
H427 C433 0.950 . S
H428 C434 0.949 . S
C429 H424 0.950 . S
C429 C431 1.327 . S
C429 C435 1.429 . S
C430 C422 1.574 . S
C430 H425 0.949 . S
C430 C436 1.368 . S
C431 C415 1.349 . S
C431 H423 0.950 . S
C431 C429 1.327 . S
C432 C420 1.349 . S
C432 H426 0.950 . S
C432 C433 1.327 . S
C433 H427 0.950 . S
C433 C432 1.327 . S
C433 C437 1.429 . S
C434 C417 1.574 . S
C434 H428 0.949 . S
C434 C438 1.368 . S
C435 C416 1.429 . S
C435 C429 1.429 . S
C435 C436 1.523 . S
C436 C417 1.368 . S
C436 C430 1.368 . S
C436 C435 1.523 . S
C437 C421 1.429 . S
C437 C433 1.429 . S
C437 C438 1.523 . S
C438 C422 1.368 . S
C438 C434 1.368 . S
C438 C437 1.523 . S
H439 C414 0.950 . S
H440 C416 0.950 . S
H441 C417 0.949 . S
H442 C419 0.950 . S
H443 C421 0.950 . S
C444 C445 1.349 . S
C444 C446 1.327 . S
C444 H469 0.950 . S
C445 C444 1.349 . S
C445 C461 1.349 . S
C446 C444 1.327 . S
C446 C465 1.429 . S
C446 H470 0.950 . S
C447 C464 1.574 . S
C447 C466 1.368 . S
C447 H471 0.949 . S
H448 C452 0.949 . S
C449 C450 1.349 . S
C449 C451 1.327 . S
C449 H472 0.950 . S
C450 C449 1.349 . S
C450 C462 1.349 . S
C451 C449 1.327 . S
C451 C467 1.429 . S
C451 H473 0.950 . S
C452 H448 0.949 . S
C452 C460 1.574 . S
C452 C468 1.368 . S
H453 C461 0.950 . S
H454 C459 0.950 . S
H455 C460 0.949 . S
H456 C462 0.950 . S
H457 C463 0.950 . S
H458 C464 0.949 . S
C459 H454 0.950 . S
C459 C461 1.327 . S
C459 C465 1.429 . S
C460 C452 1.574 . S
C460 H455 0.949 . S
C460 C466 1.368 . S
C461 C445 1.349 . S
C461 H453 0.950 . S
C461 C459 1.327 . S
C462 C450 1.349 . S
C462 H456 0.950 . S
C462 C463 1.327 . S
C463 H457 0.950 . S
C463 C462 1.327 . S
C463 C467 1.429 . S
C464 C447 1.574 . S
C464 H458 0.949 . S
C464 C468 1.368 . S
C465 C446 1.429 . S
C465 C459 1.429 . S
C465 C466 1.523 . S
C466 C447 1.368 . S
C466 C460 1.368 . S
C466 C465 1.523 . S
C467 C451 1.429 . S
C467 C463 1.429 . S
C467 C468 1.523 . S
C468 C452 1.368 . S
C468 C464 1.368 . S
C468 C467 1.523 . S
H469 C444 0.950 . S
H470 C446 0.950 . S
H471 C447 0.949 . S
H472 C449 0.950 . S
H473 C451 0.950 . S
C474 C475 1.349 . S
C474 C476 1.327 . S
C474 H499 0.950 . S
C475 C474 1.349 . S
C475 C491 1.349 . S
C476 C474 1.327 . S
C476 C495 1.429 . S
C476 H500 0.950 . S
C477 C494 1.574 . S
C477 C496 1.368 . S
C477 H501 0.949 . S
H478 C482 0.949 . S
C479 C480 1.349 . S
C479 C481 1.327 . S
C479 H502 0.950 . S
C480 C479 1.349 . S
C480 C492 1.349 . S
C481 C479 1.327 . S
C481 C497 1.429 . S
C481 H503 0.950 . S
C482 H478 0.949 . S
C482 C490 1.574 . S
C482 C498 1.368 . S
H483 C491 0.950 . S
H484 C489 0.950 . S
H485 C490 0.949 . S
H486 C492 0.950 . S
H487 C493 0.950 . S
H488 C494 0.949 . S
C489 H484 0.950 . S
C489 C491 1.327 . S
C489 C495 1.429 . S
C490 C482 1.574 . S
C490 H485 0.949 . S
C490 C496 1.368 . S
C491 C475 1.349 . S
C491 H483 0.950 . S
C491 C489 1.327 . S
C492 C480 1.349 . S
C492 H486 0.950 . S
C492 C493 1.327 . S
C493 H487 0.950 . S
C493 C492 1.327 . S
C493 C497 1.429 . S
C494 C477 1.574 . S
C494 H488 0.949 . S
C494 C498 1.368 . S
C495 C476 1.429 . S
C495 C489 1.429 . S
C495 C496 1.523 . S
C496 C477 1.368 . S
C496 C490 1.368 . S
C496 C495 1.523 . S
C497 C481 1.429 . S
C497 C493 1.429 . S
C497 C498 1.523 . S
C498 C482 1.368 . S
C498 C494 1.368 . S
C498 C497 1.523 . S
H499 C474 0.950 . S
H500 C476 0.950 . S
H501 C477 0.949 . S
H502 C479 0.950 . S
H503 C481 0.950 . S
C504 C505 1.349 . S
C504 C506 1.327 . S
C504 H529 0.950 . S
C505 C504 1.349 . S
C505 C521 1.349 . S
C506 C504 1.327 . S
C506 C525 1.429 . S
C506 H530 0.950 . S
C507 C524 1.574 . S
C507 C526 1.368 . S
C507 H531 0.949 . S
H508 C512 0.949 . S
C509 C510 1.349 . S
C509 C511 1.327 . S
C509 H532 0.950 . S
C510 C509 1.349 . S
C510 C522 1.349 . S
C511 C509 1.327 . S
C511 C527 1.429 . S
C511 H533 0.950 . S
C512 H508 0.949 . S
C512 C520 1.574 . S
C512 C528 1.368 . S
H513 C521 0.950 . S
H514 C519 0.950 . S
H515 C520 0.949 . S
H516 C522 0.950 . S
H517 C523 0.950 . S
H518 C524 0.949 . S
C519 H514 0.950 . S
C519 C521 1.327 . S
C519 C525 1.429 . S
C520 C512 1.574 . S
C520 H515 0.949 . S
C520 C526 1.368 . S
C521 C505 1.349 . S
C521 H513 0.950 . S
C521 C519 1.327 . S
C522 C510 1.349 . S
C522 H516 0.950 . S
C522 C523 1.327 . S
C523 H517 0.950 . S
C523 C522 1.327 . S
C523 C527 1.429 . S
C524 C507 1.574 . S
C524 H518 0.949 . S
C524 C528 1.368 . S
C525 C506 1.429 . S
C525 C519 1.429 . S
C525 C526 1.523 . S
C526 C507 1.368 . S
C526 C520 1.368 . S
C526 C525 1.523 . S
C527 C511 1.429 . S
C527 C523 1.429 . S
C527 C528 1.523 . S
C528 C512 1.368 . S
C528 C524 1.368 . S
C528 C527 1.523 . S
H529 C504 0.950 . S
H530 C506 0.950 . S
H531 C507 0.949 . S
H532 C509 0.950 . S
H533 C511 0.950 . S
C534 C535 1.349 . S
C534 C536 1.327 . S
C534 H559 0.950 . S
C535 C534 1.349 . S
C535 C551 1.349 . S
C536 C534 1.327 . S
C536 C555 1.429 . S
C536 H560 0.950 . S
C537 C554 1.574 . S
C537 C556 1.368 . S
C537 H561 0.949 . S
H538 C542 0.949 . S
C539 C540 1.349 . S
C539 C541 1.327 . S
C539 H562 0.950 . S
C540 C539 1.349 . S
C540 C552 1.349 . S
C541 C539 1.327 . S
C541 C557 1.429 . S
C541 H563 0.950 . S
C542 H538 0.949 . S
C542 C550 1.574 . S
C542 C558 1.368 . S
H543 C551 0.950 . S
H544 C549 0.950 . S
H545 C550 0.949 . S
H546 C552 0.950 . S
H547 C553 0.950 . S
H548 C554 0.949 . S
C549 H544 0.950 . S
C549 C551 1.327 . S
C549 C555 1.429 . S
C550 C542 1.574 . S
C550 H545 0.949 . S
C550 C556 1.368 . S
C551 C535 1.349 . S
C551 H543 0.950 . S
C551 C549 1.327 . S
C552 C540 1.349 . S
C552 H546 0.950 . S
C552 C553 1.327 . S
C553 H547 0.950 . S
C553 C552 1.327 . S
C553 C557 1.429 . S
C554 C537 1.574 . S
C554 H548 0.949 . S
C554 C558 1.368 . S
C555 C536 1.429 . S
C555 C549 1.429 . S
C555 C556 1.523 . S
C556 C537 1.368 . S
C556 C550 1.368 . S
C556 C555 1.523 . S
C557 C541 1.429 . S
C557 C553 1.429 . S
C557 C558 1.523 . S
C558 C542 1.368 . S
C558 C554 1.368 . S
C558 C557 1.523 . S
H559 C534 0.950 . S
H560 C536 0.950 . S
H561 C537 0.949 . S
H562 C539 0.950 . S
H563 C541 0.950 . S
C564 C565 1.349 . S
C564 C566 1.327 . S
C564 H589 0.950 . S
C565 C564 1.349 . S
C565 C581 1.349 . S
C566 C564 1.327 . S
C566 C585 1.429 . S
C566 H590 0.950 . S
C567 C584 1.574 . S
C567 C586 1.368 . S
C567 H591 0.949 . S
H568 C572 0.949 . S
C569 C570 1.349 . S
C569 C571 1.327 . S
C569 H592 0.950 . S
C570 C569 1.349 . S
C570 C582 1.349 . S
C571 C569 1.327 . S
C571 C587 1.429 . S
C571 H593 0.950 . S
C572 H568 0.949 . S
C572 C580 1.574 . S
C572 C588 1.368 . S
H573 C581 0.950 . S
H574 C579 0.950 . S
H575 C580 0.949 . S
H576 C582 0.950 . S
H577 C583 0.950 . S
H578 C584 0.949 . S
C579 H574 0.950 . S
C579 C581 1.327 . S
C579 C585 1.429 . S
C580 C572 1.574 . S
C580 H575 0.949 . S
C580 C586 1.368 . S
C581 C565 1.349 . S
C581 H573 0.950 . S
C581 C579 1.327 . S
C582 C570 1.349 . S
C582 H576 0.950 . S
C582 C583 1.327 . S
C583 H577 0.950 . S
C583 C582 1.327 . S
C583 C587 1.429 . S
C584 C567 1.574 . S
C584 H578 0.949 . S
C584 C588 1.368 . S
C585 C566 1.429 . S
C585 C579 1.429 . S
C585 C586 1.523 . S
C586 C567 1.368 . S
C586 C580 1.368 . S
C586 C585 1.523 . S
C587 C571 1.429 . S
C587 C583 1.429 . S
C587 C588 1.523 . S
C588 C572 1.368 . S
C588 C584 1.368 . S
C588 C587 1.523 . S
H589 C564 0.950 . S
H590 C566 0.950 . S
H591 C567 0.949 . S
H592 C569 0.950 . S
H593 C571 0.950 . S
C594 C595 1.349 . S
C594 C596 1.327 . S
C594 H619 0.950 . S
C595 C594 1.349 . S
C595 C611 1.349 . S
C596 C594 1.327 . S
C596 C615 1.429 . S
C596 H620 0.950 . S
C597 C614 1.574 . S
C597 C616 1.368 . S
C597 H621 0.949 . S
H598 C602 0.949 . S
C599 C600 1.349 . S
C599 C601 1.327 . S
C599 H622 0.950 . S
C600 C599 1.349 . S
C600 C612 1.349 . S
C601 C599 1.327 . S
C601 C617 1.429 . S
C601 H623 0.950 . S
C602 H598 0.949 . S
C602 C610 1.574 . S
C602 C618 1.368 . S
H603 C611 0.950 . S
H604 C609 0.950 . S
H605 C610 0.949 . S
H606 C612 0.950 . S
H607 C613 0.950 . S
H608 C614 0.949 . S
C609 H604 0.950 . S
C609 C611 1.327 . S
C609 C615 1.429 . S
C610 C602 1.574 . S
C610 H605 0.949 . S
C610 C616 1.368 . S
C611 C595 1.349 . S
C611 H603 0.950 . S
C611 C609 1.327 . S
C612 C600 1.349 . S
C612 H606 0.950 . S
C612 C613 1.327 . S
C613 H607 0.950 . S
C613 C612 1.327 . S
C613 C617 1.429 . S
C614 C597 1.574 . S
C614 H608 0.949 . S
C614 C618 1.368 . S
C615 C596 1.429 . S
C615 C609 1.429 . S
C615 C616 1.523 . S
C616 C597 1.368 . S
C616 C610 1.368 . S
C616 C615 1.523 . S
C617 C601 1.429 . S
C617 C613 1.429 . S
C617 C618 1.523 . S
C618 C602 1.368 . S
C618 C614 1.368 . S
C618 C617 1.523 . S
H619 C594 0.950 . S
H620 C596 0.950 . S
H621 C597 0.949 . S
H622 C599 0.950 . S
H623 C601 0.950 . S
C624 C625 1.349 . S
C624 C626 1.327 . S
C624 H649 0.950 . S
C625 C624 1.349 . S
C625 C641 1.349 . S
C626 C624 1.327 . S
C626 C645 1.429 . S
C626 H650 0.950 . S
C627 C644 1.574 . S
C627 C646 1.368 . S
C627 H651 0.949 . S
H628 C632 0.949 . S
C629 C630 1.349 . S
C629 C631 1.327 1_554 S
C629 H652 0.950 . S
C630 C629 1.349 . S
C630 C642 1.349 1_554 S
C631 C629 1.327 1_556 S
C631 C647 1.429 . S
C631 H653 0.950 . S
C632 H628 0.949 . S
C632 C640 1.574 . S
C632 C648 1.368 . S
H633 C641 0.950 . S
H634 C639 0.950 . S
H635 C640 0.949 . S
H636 C642 0.950 . S
H637 C643 0.950 . S
H638 C644 0.949 . S
C639 H634 0.950 . S
C639 C641 1.327 . S
C639 C645 1.429 . S
C640 C632 1.574 . S
C640 H635 0.949 . S
C640 C646 1.368 . S
C641 C625 1.349 . S
C641 H633 0.950 . S
C641 C639 1.327 . S
C642 C630 1.349 1_556 S
C642 H636 0.950 . S
C642 C643 1.327 . S
C643 H637 0.950 . S
C643 C642 1.327 . S
C643 C647 1.429 . S
C644 C627 1.574 . S
C644 H638 0.949 . S
C644 C648 1.368 . S
C645 C626 1.429 . S
C645 C639 1.429 . S
C645 C646 1.523 . S
C646 C627 1.368 . S
C646 C640 1.368 . S
C646 C645 1.523 . S
C647 C631 1.429 . S
C647 C643 1.429 . S
C647 C648 1.523 . S
C648 C632 1.368 . S
C648 C644 1.368 . S
C648 C647 1.523 . S
H649 C624 0.950 . S
H650 C626 0.950 . S
H651 C627 0.949 . S
H652 C629 0.950 . S
H653 C631 0.950 . S
C654 C655 1.349 . S
C654 C656 1.327 . S
C654 H679 0.950 . S
C655 C654 1.349 . S
C655 C671 1.349 . S
C656 C654 1.327 . S
C656 C675 1.429 . S
C656 H680 0.950 . S
C657 C674 1.574 . S
C657 C676 1.368 . S
C657 H681 0.949 . S
H658 C662 0.949 . S
C659 C660 1.349 . S
C659 C661 1.327 . S
C659 H682 0.950 . S
C660 C659 1.349 . S
C660 C672 1.349 . S
C661 C659 1.327 . S
C661 C677 1.429 . S
C661 H683 0.950 . S
C662 H658 0.949 . S
C662 C670 1.574 . S
C662 C678 1.368 . S
H663 C671 0.950 . S
H664 C669 0.950 . S
H665 C670 0.949 . S
H666 C672 0.950 . S
H667 C673 0.950 . S
H668 C674 0.949 . S
C669 H664 0.950 . S
C669 C671 1.327 . S
C669 C675 1.429 . S
C670 C662 1.574 . S
C670 H665 0.949 . S
C670 C676 1.368 . S
C671 C655 1.349 . S
C671 H663 0.950 . S
C671 C669 1.327 . S
C672 C660 1.349 . S
C672 H666 0.950 . S
C672 C673 1.327 . S
C673 H667 0.950 . S
C673 C672 1.327 . S
C673 C677 1.429 . S
C674 C657 1.574 . S
C674 H668 0.949 . S
C674 C678 1.368 . S
C675 C656 1.429 . S
C675 C669 1.429 . S
C675 C676 1.523 . S
C676 C657 1.368 . S
C676 C670 1.368 . S
C676 C675 1.523 . S
C677 C661 1.429 . S
C677 C673 1.429 . S
C677 C678 1.523 . S
C678 C662 1.368 . S
C678 C674 1.368 . S
C678 C677 1.523 . S
H679 C654 0.950 . S
H680 C656 0.950 . S
H681 C657 0.949 . S
H682 C659 0.950 . S
H683 C661 0.950 . S
C684 C685 1.349 1_554 S
C684 C686 1.327 . S
C684 H709 0.950 . S
C685 C684 1.349 1_556 S
C685 C701 1.349 . S
C686 C684 1.327 . S
C686 C705 1.429 . S
C686 H710 0.950 . S
C687 C704 1.574 . S
C687 C706 1.368 . S
C687 H711 0.949 . S
H688 C692 0.949 . S
C689 C690 1.349 . S
C689 C691 1.327 . S
C689 H712 0.950 . S
C690 C689 1.349 . S
C690 C702 1.349 . S
C691 C689 1.327 . S
C691 C707 1.429 . S
C691 H713 0.950 . S
C692 H688 0.949 . S
C692 C700 1.574 . S
C692 C708 1.368 . S
H693 C701 0.950 . S
H694 C699 0.950 . S
H695 C700 0.949 . S
H696 C702 0.950 . S
H697 C703 0.950 . S
H698 C704 0.949 . S
C699 H694 0.950 . S
C699 C701 1.327 1_554 S
C699 C705 1.429 . S
C700 C692 1.574 . S
C700 H695 0.949 . S
C700 C706 1.368 . S
C701 C685 1.349 . S
C701 H693 0.950 . S
C701 C699 1.327 1_556 S
C702 C690 1.349 . S
C702 H696 0.950 . S
C702 C703 1.327 . S
C703 H697 0.950 . S
C703 C702 1.327 . S
C703 C707 1.429 . S
C704 C687 1.574 . S
C704 H698 0.949 . S
C704 C708 1.368 . S
C705 C686 1.429 . S
C705 C699 1.429 . S
C705 C706 1.523 . S
C706 C687 1.368 . S
C706 C700 1.368 . S
C706 C705 1.523 . S
C707 C691 1.429 . S
C707 C703 1.429 . S
C707 C708 1.523 . S
C708 C692 1.368 . S
C708 C704 1.368 . S
C708 C707 1.523 . S
H709 C684 0.950 . S
H710 C686 0.950 . S
H711 C687 0.949 . S
H712 C689 0.950 . S
H713 C691 0.950 . S
C714 C715 1.349 . S
C714 C716 1.327 . S
C714 H739 0.950 . S
C715 C714 1.349 . S
C715 C731 1.349 . S
C716 C714 1.327 . S
C716 C735 1.429 . S
C716 H740 0.950 . S
C717 C734 1.574 . S
C717 C736 1.368 . S
C717 H741 0.949 . S
H718 C722 0.949 . S
C719 C720 1.349 . S
C719 C721 1.327 . S
C719 H742 0.950 . S
C720 C719 1.349 . S
C720 C732 1.349 . S
C721 C719 1.327 . S
C721 C737 1.429 . S
C721 H743 0.950 . S
C722 H718 0.949 . S
C722 C730 1.574 . S
C722 C738 1.368 . S
H723 C731 0.950 . S
H724 C729 0.950 . S
H725 C730 0.949 . S
H726 C732 0.950 . S
H727 C733 0.950 . S
H728 C734 0.949 . S
C729 H724 0.950 . S
C729 C731 1.327 . S
C729 C735 1.429 . S
C730 C722 1.574 . S
C730 H725 0.949 . S
C730 C736 1.368 . S
C731 C715 1.349 . S
C731 H723 0.950 . S
C731 C729 1.327 . S
C732 C720 1.349 . S
C732 H726 0.950 . S
C732 C733 1.327 . S
C733 H727 0.950 . S
C733 C732 1.327 . S
C733 C737 1.429 . S
C734 C717 1.574 . S
C734 H728 0.949 . S
C734 C738 1.368 . S
C735 C716 1.429 . S
C735 C729 1.429 . S
C735 C736 1.523 . S
C736 C717 1.368 . S
C736 C730 1.368 . S
C736 C735 1.523 . S
C737 C721 1.429 . S
C737 C733 1.429 . S
C737 C738 1.523 . S
C738 C722 1.368 . S
C738 C734 1.368 . S
C738 C737 1.523 . S
H739 C714 0.950 . S
H740 C716 0.950 . S
H741 C717 0.949 . S
H742 C719 0.950 . S
H743 C721 0.950 . S
C744 C745 1.349 . S
C744 C746 1.327 . S
C744 H769 0.950 . S
C745 C744 1.349 . S
C745 C761 1.349 . S
C746 C744 1.327 . S
C746 C765 1.429 . S
C746 H770 0.950 . S
C747 C764 1.574 . S
C747 C766 1.368 . S
C747 H771 0.949 . S
H748 C752 0.949 . S
C749 C750 1.349 . S
C749 C751 1.327 1_554 S
C749 H772 0.950 . S
C750 C749 1.349 . S
C750 C762 1.349 1_554 S
C751 C749 1.327 1_556 S
C751 C767 1.429 . S
C751 H773 0.950 . S
C752 H748 0.949 . S
C752 C760 1.574 . S
C752 C768 1.368 . S
H753 C761 0.950 . S
H754 C759 0.950 . S
H755 C760 0.949 . S
H756 C762 0.950 . S
H757 C763 0.950 . S
H758 C764 0.949 . S
C759 H754 0.950 . S
C759 C761 1.327 . S
C759 C765 1.429 . S
C760 C752 1.574 . S
C760 H755 0.949 . S
C760 C766 1.368 . S
C761 C745 1.349 . S
C761 H753 0.950 . S
C761 C759 1.327 . S
C762 C750 1.349 1_556 S
C762 H756 0.950 . S
C762 C763 1.327 . S
C763 H757 0.950 . S
C763 C762 1.327 . S
C763 C767 1.429 . S
C764 C747 1.574 . S
C764 H758 0.949 . S
C764 C768 1.368 . S
C765 C746 1.429 . S
C765 C759 1.429 . S
C765 C766 1.523 . S
C766 C747 1.368 . S
C766 C760 1.368 . S
C766 C765 1.523 . S
C767 C751 1.429 . S
C767 C763 1.429 . S
C767 C768 1.523 . S
C768 C752 1.368 . S
C768 C764 1.368 . S
C768 C767 1.523 . S
H769 C744 0.950 . S
H770 C746 0.950 . S
H771 C747 0.949 . S
H772 C749 0.950 . S
H773 C751 0.950 . S
C774 C775 1.349 . S
C774 C776 1.327 . S
C774 H799 0.950 . S
C775 C774 1.349 . S
C775 C791 1.349 . S
C776 C774 1.327 . S
C776 C795 1.429 . S
C776 H800 0.950 . S
C777 C794 1.574 . S
C777 C796 1.368 . S
C777 H801 0.949 . S
H778 C782 0.949 . S
C779 C780 1.349 . S
C779 C781 1.327 . S
C779 H802 0.950 . S
C780 C779 1.349 . S
C780 C792 1.349 . S
C781 C779 1.327 . S
C781 C797 1.429 . S
C781 H803 0.950 . S
C782 H778 0.949 . S
C782 C790 1.574 . S
C782 C798 1.368 . S
H783 C791 0.950 . S
H784 C789 0.950 . S
H785 C790 0.949 . S
H786 C792 0.950 . S
H787 C793 0.950 . S
H788 C794 0.949 . S
C789 H784 0.950 . S
C789 C791 1.327 . S
C789 C795 1.429 . S
C790 C782 1.574 . S
C790 H785 0.949 . S
C790 C796 1.368 . S
C791 C775 1.349 . S
C791 H783 0.950 . S
C791 C789 1.327 . S
C792 C780 1.349 . S
C792 H786 0.950 . S
C792 C793 1.327 . S
C793 H787 0.950 . S
C793 C792 1.327 . S
C793 C797 1.429 . S
C794 C777 1.574 . S
C794 H788 0.949 . S
C794 C798 1.368 . S
C795 C776 1.429 . S
C795 C789 1.429 . S
C795 C796 1.523 . S
C796 C777 1.368 . S
C796 C790 1.368 . S
C796 C795 1.523 . S
C797 C781 1.429 . S
C797 C793 1.429 . S
C797 C798 1.523 . S
C798 C782 1.368 . S
C798 C794 1.368 . S
C798 C797 1.523 . S
H799 C774 0.950 . S
H800 C776 0.950 . S
H801 C777 0.949 . S
H802 C779 0.950 . S
H803 C781 0.950 . S
C804 C805 1.349 1_554 S
C804 C806 1.327 . S
C804 H829 0.950 . S
C805 C804 1.349 1_556 S
C805 C821 1.349 . S
C806 C804 1.327 . S
C806 C825 1.429 . S
C806 H830 0.950 . S
C807 C824 1.574 . S
C807 C826 1.368 . S
C807 H831 0.949 . S
H808 C812 0.949 . S
C809 C810 1.349 . S
C809 C811 1.327 . S
C809 H832 0.950 . S
C810 C809 1.349 . S
C810 C822 1.349 . S
C811 C809 1.327 . S
C811 C827 1.429 . S
C811 H833 0.950 . S
C812 H808 0.949 . S
C812 C820 1.574 . S
C812 C828 1.368 . S
H813 C821 0.950 . S
H814 C819 0.950 . S
H815 C820 0.949 . S
H816 C822 0.950 . S
H817 C823 0.950 . S
H818 C824 0.949 . S
C819 H814 0.950 . S
C819 C821 1.327 1_554 S
C819 C825 1.429 . S
C820 C812 1.574 . S
C820 H815 0.949 . S
C820 C826 1.368 . S
C821 C805 1.349 . S
C821 H813 0.950 . S
C821 C819 1.327 1_556 S
C822 C810 1.349 . S
C822 H816 0.950 . S
C822 C823 1.327 . S
C823 H817 0.950 . S
C823 C822 1.327 . S
C823 C827 1.429 . S
C824 C807 1.574 . S
C824 H818 0.949 . S
C824 C828 1.368 . S
C825 C806 1.429 . S
C825 C819 1.429 . S
C825 C826 1.523 . S
C826 C807 1.368 . S
C826 C820 1.368 . S
C826 C825 1.523 . S
C827 C811 1.429 . S
C827 C823 1.429 . S
C827 C828 1.523 . S
C828 C812 1.368 . S
C828 C824 1.368 . S
C828 C827 1.523 . S
H829 C804 0.950 . S
H830 C806 0.950 . S
H831 C807 0.949 . S
H832 C809 0.950 . S
H833 C811 0.950 . S
C834 C835 1.349 . S
C834 C836 1.327 . S
C834 H859 0.950 . S
C835 C834 1.349 . S
C835 C851 1.349 . S
C836 C834 1.327 . S
C836 C855 1.429 . S
C836 H860 0.950 . S
C837 C854 1.574 . S
C837 C856 1.368 . S
C837 H861 0.949 . S
H838 C842 0.949 . S
C839 C840 1.349 . S
C839 C841 1.327 . S
C839 H862 0.950 . S
C840 C839 1.349 . S
C840 C852 1.349 . S
C841 C839 1.327 . S
C841 C857 1.429 . S
C841 H863 0.950 . S
C842 H838 0.949 . S
C842 C850 1.574 . S
C842 C858 1.368 . S
H843 C851 0.950 . S
H844 C849 0.950 . S
H845 C850 0.949 . S
H846 C852 0.950 . S
H847 C853 0.950 . S
H848 C854 0.949 . S
C849 H844 0.950 . S
C849 C851 1.327 . S
C849 C855 1.429 . S
C850 C842 1.574 . S
C850 H845 0.949 . S
C850 C856 1.368 . S
C851 C835 1.349 . S
C851 H843 0.950 . S
C851 C849 1.327 . S
C852 C840 1.349 . S
C852 H846 0.950 . S
C852 C853 1.327 . S
C853 H847 0.950 . S
C853 C852 1.327 . S
C853 C857 1.429 . S
C854 C837 1.574 . S
C854 H848 0.949 . S
C854 C858 1.368 . S
C855 C836 1.429 . S
C855 C849 1.429 . S
C855 C856 1.523 . S
C856 C837 1.368 . S
C856 C850 1.368 . S
C856 C855 1.523 . S
C857 C841 1.429 . S
C857 C853 1.429 . S
C857 C858 1.523 . S
C858 C842 1.368 . S
C858 C854 1.368 . S
C858 C857 1.523 . S
H859 C834 0.950 . S
H860 C836 0.950 . S
H861 C837 0.949 . S
H862 C839 0.950 . S
H863 C841 0.950 . S
C265 N71 1.358 . S
C270 N5 1.358 . S
C295 N104 1.358 . S
C300 N38 1.358 . S
C325 N137 1.358 . S
C330 N203 1.358 . S
C355 N170 1.358 . S
C360 N236 1.358 . S
C385 C107 1.531 . S
C390 C8 1.531 . S
C415 C41 1.531 . S
C420 C74 1.531 . S
C445 C94 0.923 . S
C450 C61 0.923 . S
C475 C127 0.923 . S
C480 C28 0.923 . S
C505 C239 1.531 . S
C510 C140 1.531 . S
C535 C173 1.531 . S
C540 C206 1.531 . S
C565 C226 0.923 . S
C570 C193 0.923 . S
C595 C259 0.923 . S
C600 C160 0.923 . S
C625 N179 1.579 . S
C630 C17 1.620 . S
C655 C50 1.620 . S
C660 N146 1.580 . S
C685 C83 1.620 . S
C690 N245 1.579 . S
C715 N212 1.580 . S
C720 C116 1.620 . S
C745 N47 1.580 . S
C750 C149 1.620 . S
C775 C182 1.620 . S
C780 N14 1.579 . S
C805 C215 1.620 . S
C810 N113 1.580 . S
C835 C248 1.620 . S
C840 N80 1.579 . S
