# Generated by pormake.
# Topology ilc, (8)-cn, num edge types: 1
# Building blocks:
#     Node 0, Type 0, BuildingBlock: HISSIN_clean_sbu_1, # of connection points: 8
#     Node 1, Type 0, BuildingBlock: HISSIN_clean_sbu_1, # of connection points: 8
#     Node 2, Type 0, BuildingBlock: HISSIN_clean_sbu_1, # of connection points: 8
#     Edge 3, Type (0, 0), BuildingBlock: UVAHIK_clean_linker_0, # of connection points: 2
#     Edge 4, Type (0, 0), BuildingBlock: UVAHIK_clean_linker_0, # of connection points: 2
#     Edge 5, Type (0, 0), BuildingBlock: UVAHIK_clean_linker_0, # of connection points: 2
#     Edge 6, Type (0, 0), BuildingBlock: UVAHIK_clean_linker_0, # of connection points: 2
#     Edge 7, Type (0, 0), BuildingBlock: UVAHIK_clean_linker_0, # of connection points: 2
#     Edge 8, Type (0, 0), BuildingBlock: UVAHIK_clean_linker_0, # of connection points: 2
#     Edge 9, Type (0, 0), BuildingBlock: UVAHIK_clean_linker_0, # of connection points: 2
#     Edge 10, Type (0, 0), BuildingBlock: UVAHIK_clean_linker_0, # of connection points: 2
#     Edge 11, Type (0, 0), BuildingBlock: UVAHIK_clean_linker_0, # of connection points: 2
#     Edge 12, Type (0, 0), BuildingBlock: UVAHIK_clean_linker_0, # of connection points: 2
#     Edge 13, Type (0, 0), BuildingBlock: UVAHIK_clean_linker_0, # of connection points: 2
#     Edge 14, Type (0, 0), BuildingBlock: UVAHIK_clean_linker_0, # of connection points: 2
# Relax obj value: 0.145
# Max RMSD: 0.201
# Mean RMSD: 0.201
data_MOF--net-ilc--node1-HISSIN_clean_sbu_1--edge1-UVAHIK_clean_linker_0
_symmetry_space_group_name_H-M    P1
_symmetry_Int_Tables_number       1
_symmetry_cell_setting            triclinic
loop_
_symmetry_equiv_pos_as_xyz
'x, y, z'
_cell_length_a     27.760168
_cell_length_b     38.569337
_cell_length_c     23.958967
_cell_angle_alpha  100.88159
_cell_angle_beta   76.460625
_cell_angle_gamma 140.6992
loop_
_atom_site_label
_atom_site_type_symbol
_atom_site_fract_x
_atom_site_fract_y
_atom_site_fract_z
_atom_type_partial_charge
Eu0 Eu 0.96242 0.9775 0.92436 0.0
C1 C 0.14591 0.08085 0.94476 0.0
O2 O 0.93092 0.91212 0.86316 0.0
C3 C 0.07824 0.97648 0.15798 0.0
C4 C 0.0224 0.91328 0.25023 0.0
C5 C 1.01119 0.95271 0.19497 0.0
C6 C 0.9825 0.92024 0.24064 0.0
C7 C 0.11756 0.96887 0.16804 0.0
C8 C 0.09015 0.93794 0.21492 0.0
Eu9 Eu 0.11067 0.07021 0.07329 0.0
O10 O 0.90029 0.94053 0.01319 0.0
O11 O 0.12771 0.12648 0.14184 0.0
O12 O 0.18612 0.10866 0.98763 0.0
O13 O 0.99602 0.02411 0.05309 0.0
C14 C 0.17251 0.17681 0.12856 0.0
O15 O 0.20829 0.19346 0.07583 0.0
O16 O 0.05583 0.98988 0.07946 0.0
C17 C 0.10747 1.00859 0.10824 0.0
C18 C 0.941 0.88611 0.87427 0.0
O19 O 0.97013 0.89945 0.92087 0.0
O20 O 0.16399 0.06218 0.11436 0.0
O21 O 0.07243 0.03651 0.96073 0.0
C22 C 0.93136 0.01879 0.89323 0.0
O23 O 0.99586 0.03633 0.87349 0.0
C24 C 0.88841 1.00461 0.84989 0.0
C25 C 0.80642 0.97695 0.76723 0.0
C26 C 0.84389 0.9545 0.81987 0.0
C27 C 0.80296 0.94053 0.77811 0.0
C28 C 0.89245 0.04117 0.83784 0.0
C29 C 0.85115 0.0274 0.79631 0.0
C30 C 0.9324 0.97096 0.05938 0.0
O31 O 0.88921 0.98333 0.93493 0.0
H32 H 1.00166 0.8896 0.28664 0.0
H33 H 0.98139 0.95914 0.18815 0.0
H34 H 0.16973 0.98757 0.14017 0.0
H35 H 0.77842 0.96772 0.73272 0.0
H36 H 0.84253 0.92704 0.82814 0.0
H37 H 0.92765 0.0801 0.86053 0.0
Eu38 Eu 0.62918 0.30985 0.25539 0.0
C39 C 0.80362 0.41497 0.28337 0.0
O40 O 0.59645 0.24658 0.189 0.0
C41 C 0.80012 0.34565 0.49382 0.0
C42 C 0.80733 0.32316 0.59366 0.0
C43 C 0.77198 0.35047 0.54768 0.0
C44 C 0.77263 0.33725 0.59807 0.0
C45 C 0.83318 0.33035 0.49019 0.0
C46 C 0.83793 0.32 0.54048 0.0
Eu47 Eu 0.76508 0.39988 0.41469 0.0
O48 O 0.55821 0.26413 0.33872 0.0
O49 O 0.7785 0.45328 0.48583 0.0
O50 O 0.8361 0.44372 0.3297 0.0
O51 O 0.65351 0.34493 0.38028 0.0
C52 C 0.76241 0.47638 0.47886 0.0
O53 O 0.73703 0.46615 0.43129 0.0
O54 O 0.72117 0.32711 0.4395 0.0
C55 C 0.79034 0.35324 0.44143 0.0
C56 C 0.62537 0.23102 0.1875 0.0
O57 O 0.67216 0.25335 0.22435 0.0
O58 O 0.84561 0.40367 0.42268 0.0
O59 O 0.73842 0.36253 0.29097 0.0
C60 C 0.60215 0.35669 0.23355 0.0
O61 O 0.66218 0.37002 0.20758 0.0
C62 C 0.55284 0.34091 0.19563 0.0
C63 C 0.46423 0.31036 0.11727 0.0
C64 C 0.5064 0.29017 0.16718 0.0
C65 C 0.4646 0.27548 0.12577 0.0
C66 C 0.55425 0.3764 0.18534 0.0
C67 C 0.50872 0.36078 0.14655 0.0
C68 C 0.58925 0.29171 0.38585 0.0
O69 O 0.56451 0.32357 0.27681 0.0
H70 H 0.80584 0.31035 0.6312 0.0
H71 H 0.74685 0.36241 0.54973 0.0
H72 H 0.85337 0.32534 0.44867 0.0
H73 H 0.43498 0.30094 0.08377 0.0
H74 H 0.50676 0.26356 0.17492 0.0
H75 H 0.59102 0.41599 0.20679 0.0
Eu76 Eu 0.28487 0.63459 0.59266 0.0
C77 C 0.46198 0.73557 0.61029 0.0
O78 O 0.27007 0.57922 0.52405 0.0
C79 C 0.50483 0.70219 0.8179 0.0
C80 C 0.59255 0.73165 0.89637 0.0
C81 C 0.55033 0.75252 0.84751 0.0
C82 C 0.59369 0.76726 0.88751 0.0
C83 C 0.50254 0.66621 0.82839 0.0
C84 C 0.54685 0.68097 0.86769 0.0
Eu85 Eu 0.4291 0.72912 0.74495 0.0
O86 O 0.2088 0.59514 0.67783 0.0
O87 O 0.46013 0.79473 0.80568 0.0
O88 O 0.49323 0.76649 0.65645 0.0
O89 O 0.31988 0.67079 0.70725 0.0
C90 C 0.43029 0.80913 0.80409 0.0
O91 O 0.38258 0.78444 0.76707 0.0
O92 O 0.39667 0.67145 0.79735 0.0
C93 C 0.45987 0.68753 0.7761 0.0
C94 C 0.22123 0.52773 0.53599 0.0
O95 O 0.18108 0.50979 0.58746 0.0
O96 O 0.50082 0.7219 0.73348 0.0
O97 O 0.3986 0.68245 0.61713 0.0
C98 C 0.28555 0.6947 0.55747 0.0
O99 O 0.33895 0.71443 0.58476 0.0
C100 C 0.31232 0.72501 0.50678 0.0
C101 C 0.36376 0.78494 0.41271 0.0
C102 C 0.38015 0.75005 0.47007 0.0
C103 C 0.40658 0.78089 0.42354 0.0
C104 C 0.27005 0.72978 0.49559 0.0
C105 C 0.29527 0.75905 0.4478 0.0
C106 C 0.24743 0.62379 0.72152 0.0
O107 O 0.22854 0.64097 0.55337 0.0
H108 H 0.62271 0.7414 0.92931 0.0
H109 H 0.55041 0.77952 0.84041 0.0
H110 H 0.46641 0.62697 0.80623 0.0
H111 H 0.38305 0.80754 0.37571 0.0
H112 H 0.41243 0.74598 0.4778 0.0
H113 H 0.21743 0.71025 0.52338 0.0
C114 C 0.81152 0.88794 0.70917 0.0
C115 C 0.7675 0.89346 0.73829 0.0
C116 C 0.79468 0.86064 0.65619 0.0
C117 C 0.75198 0.80613 0.53772 0.0
H118 H 0.76327 0.8914 0.45821 0.0
C119 C 0.85694 0.84165 0.29735 0.0
C120 C 0.91547 0.89708 0.28286 0.0
C121 C 0.80836 0.8231 0.34947 0.0
C122 C 0.75886 0.86649 0.47942 0.0
H123 H 0.66325 0.86601 0.74093 0.0
H124 H 0.63496 0.81931 0.6477 0.0
H125 H 0.72652 0.88141 0.56147 0.0
H126 H 0.96459 0.97541 0.30797 0.0
H127 H 0.88038 0.94361 0.39902 0.0
H128 H 0.78996 0.79464 0.45617 0.0
C129 C 0.68288 0.83671 0.66526 0.0
C130 C 0.73691 0.8602 0.53868 0.0
C131 C 0.69924 0.86352 0.71847 0.0
C132 C 0.91946 0.93241 0.31817 0.0
C133 C 0.87118 0.914 0.37052 0.0
C134 C 0.77322 0.81195 0.47819 0.0
C135 C 0.73383 0.83876 0.63181 0.0
C136 C 0.73605 0.83172 0.56871 0.0
C137 C 0.81776 0.8598 0.3881 0.0
C138 C 0.77969 0.84397 0.44863 0.0
H139 H 0.8642 0.91026 0.72354 0.0
H140 H 0.83485 0.86267 0.63146 0.0
H141 H 0.75229 0.7843 0.55991 0.0
H142 H 0.85278 0.81367 0.27037 0.0
H143 H 0.76624 0.78074 0.36082 0.0
C144 C 0.74628 0.33316 0.70594 0.0
C145 C 0.72744 0.32948 0.65369 0.0
C146 C 0.69255 0.30993 0.75546 0.0
C147 C 0.51772 0.26063 0.82827 0.0
H148 H 0.48831 0.16154 0.89861 0.0
C149 C 0.3782 0.20586 0.05187 0.0
C150 C 0.4378 0.2322 0.08222 0.0
C151 C 0.377 0.18687 0.99585 0.0
C152 C 0.49473 0.18824 0.87896 0.0
H153 H 0.64162 0.30687 0.61605 0.0
H154 H 0.55336 0.27373 0.70506 0.0
H155 H 0.57404 0.20544 0.80822 0.0
H156 H 0.53079 0.24676 0.08264 0.0
H157 H 0.52746 0.21324 0.9872 0.0
H158 H 0.44337 0.24702 0.90076 0.0
C159 C 0.60658 0.28948 0.70531 0.0
C160 C 0.54445 0.21386 0.82772 0.0
C161 C 0.65849 0.31 0.65475 0.0
C162 C 0.48491 0.22804 0.06056 0.0
C163 C 0.48302 0.20853 0.00504 0.0
C164 C 0.46862 0.23549 0.87992 0.0
C165 C 0.62061 0.28522 0.75452 0.0
C166 C 0.55932 0.25238 0.80366 0.0
C167 C 0.43459 0.19342 0.9702 0.0
C168 C 0.46013 0.20149 0.90747 0.0
H169 H 0.80064 0.35092 0.70802 0.0
H170 H 0.70625 0.30965 0.79405 0.0
H171 H 0.52733 0.28949 0.80991 0.0
H172 H 0.33836 0.20582 0.06856 0.0
H173 H 0.33699 0.17317 0.97056 0.0
C174 C 0.69691 0.84382 0.94797 0.0
C175 C 0.62873 0.81391 0.92801 0.0
C176 C 0.71297 0.87041 1.0013 0.0
C177 C 0.64283 0.90035 0.12883 0.0
H178 H 0.63181 0.8151 0.20798 0.0
C179 C 0.4732 0.77141 0.34672 0.0
C180 C 0.47478 0.80554 0.38202 0.0
C181 C 0.52266 0.79092 0.29491 0.0
C182 C 0.63614 0.84003 0.18692 0.0
H183 H 0.53195 0.7971 0.94285 0.0
H184 H 0.56099 0.84442 0.03489 0.0
H185 H 0.6698 0.82598 0.10496 0.0
H186 H 0.5342 0.888 0.39517 0.0
H187 H 0.62329 0.92307 0.30587 0.0
H188 H 0.60326 0.91076 0.21021 0.0
C189 C 0.60125 0.84652 0.01022 0.0
C190 C 0.65884 0.84684 0.12777 0.0
C191 C 0.58459 0.81934 0.95721 0.0
C192 C 0.53203 0.86099 0.36818 0.0
C193 C 0.58204 0.88072 0.31668 0.0
C194 C 0.62075 0.89395 0.18827 0.0
C195 C 0.66198 0.86834 0.03469 0.0
C196 C 0.65952 0.87524 0.0978 0.0
C197 C 0.57502 0.84512 0.27792 0.0
C198 C 0.6143 0.86187 0.21771 0.0
H199 H 0.73321 0.84162 0.92544 0.0
H200 H 0.76076 0.88774 0.01896 0.0
H201 H 0.64241 0.92213 0.10669 0.0
H202 H 0.42901 0.72839 0.35646 0.0
H203 H 0.51514 0.76206 0.26633 0.0
C204 C 0.25076 0.79719 0.46429 0.0
C205 C 0.25175 0.76332 0.43223 0.0
C206 C 0.22863 0.81341 0.4412 0.0
C207 C 0.22665 0.83537 0.29924 0.0
H208 H 0.11775 0.85953 0.3859 0.0
C209 C 0.12928 0.89602 0.19751 0.0
C210 C 0.13117 0.93129 0.22986 0.0
C211 C 0.14908 0.87791 0.22013 0.0
C212 C 0.14919 0.85368 0.36129 0.0
H213 H 0.22596 0.71671 0.35329 0.0
H214 H 0.1849 0.74343 0.31362 0.0
H215 H 0.13195 0.8172 0.43233 0.0
H216 H 0.15943 0.97823 0.30887 0.0
H217 H 0.19618 0.94804 0.34777 0.0
H218 H 0.24389 0.87189 0.22821 0.0
C219 C 0.20275 0.7586 0.35583 0.0
C220 C 0.15699 0.82922 0.38788 0.0
C221 C 0.22514 0.74269 0.37877 0.0
C222 C 0.15809 0.95122 0.28316 0.0
C223 C 0.17801 0.93334 0.30566 0.0
C224 C 0.21876 0.85978 0.27263 0.0
C225 C 0.20726 0.79592 0.38572 0.0
C226 C 0.1959 0.81984 0.3572 0.0
C227 C 0.17079 0.8948 0.27544 0.0
C228 C 0.1803 0.86948 0.30344 0.0
H229 H 0.2723 0.8142 0.50521 0.0
H230 H 0.23302 0.84236 0.46524 0.0
H231 H 0.25834 0.82974 0.27467 0.0
H232 H 0.10741 0.87954 0.15672 0.0
H233 H 0.14276 0.84811 0.19587 0.0
C234 C 0.16318 0.43651 0.50693 0.0
C235 C 0.21374 0.49102 0.49317 0.0
C236 C 0.1582 0.40239 0.46746 0.0
C237 C 0.26695 0.40732 0.33769 0.0
H238 H 0.07082 0.25381 0.32341 0.0
C239 C 0.22629 0.26673 0.15647 0.0
C240 C 0.17969 0.21338 0.17138 0.0
C241 C 0.23144 0.3008 0.19619 0.0
C242 C 0.12616 0.29646 0.32734 0.0
H243 H 0.2976 0.55209 0.42662 0.0
H244 H 0.28805 0.49238 0.35742 0.0
H245 H 0.07645 0.3125 0.39076 0.0
H246 H 0.10205 0.15404 0.2399 0.0
H247 H 0.11088 0.2135 0.3092 0.0
H248 H 0.31645 0.39126 0.27383 0.0
C249 C 0.25325 0.47623 0.39915 0.0
C250 C 0.12943 0.33015 0.36598 0.0
C251 C 0.25832 0.51039 0.43869 0.0
C252 C 0.13849 0.19491 0.22701 0.0
C253 C 0.14319 0.22887 0.26663 0.0
C254 C 0.26361 0.37368 0.29888 0.0
C255 C 0.20359 0.42192 0.41318 0.0
C256 C 0.19988 0.38604 0.37168 0.0
C257 C 0.18949 0.28214 0.25161 0.0
C258 C 0.19319 0.31784 0.29327 0.0
H259 H 0.12802 0.42027 0.54854 0.0
H260 H 0.11992 0.36104 0.48006 0.0
H261 H 0.32241 0.4499 0.34166 0.0
H262 H 0.25841 0.28213 0.11387 0.0
H263 H 0.26704 0.3414 0.18304 0.0
C264 C 0.5649 0.81618 0.54473 0.0
C265 C 0.50206 0.75923 0.55201 0.0
C266 C 0.60856 0.83867 0.4907 0.0
C267 C 0.6855 0.8803 0.36909 0.0
H268 H 0.71371 0.80261 0.27403 0.0
C269 C 0.82904 0.88997 0.12438 0.0
C270 C 0.89177 0.94696 0.11747 0.0
C271 C 0.78478 0.86713 0.17818 0.0
C272 C 0.70604 0.82476 0.29945 0.0
H273 H 0.43346 0.6811 0.50754 0.0
H274 H 0.50872 0.72006 0.4134 0.0
H275 H 0.62593 0.76265 0.36313 0.0
H276 H 0.95978 0.02484 0.16243 0.0
H277 H 0.88334 0.98527 0.25613 0.0
H278 H 0.7657 0.94246 0.30546 0.0
C279 C 0.52577 0.74768 0.44953 0.0
C280 C 0.65489 0.8015 0.35077 0.0
C281 C 0.4819 0.72521 0.50355 0.0
C282 C 0.91135 0.98069 0.16611 0.0
C283 C 0.8668 0.95787 0.21987 0.0
C284 C 0.73672 0.9036 0.3178 0.0
C285 C 0.59126 0.80481 0.44254 0.0
C286 C 0.64364 0.82883 0.38645 0.0
C287 C 0.80128 0.9007 0.22644 0.0
C288 C 0.74818 0.87635 0.28222 0.0
H289 H 0.58199 0.84357 0.58117 0.0
H290 H 0.65847 0.88278 0.48767 0.0
H291 H 0.67772 0.90241 0.39448 0.0
H292 H 0.81253 0.86282 0.08779 0.0
H293 H 0.735 0.823 0.18089 0.0
C294 C 0.93122 0.32957 0.56212 0.0
C295 C 0.86347 0.2977 0.53991 0.0
C296 C 0.94136 0.30439 0.58349 0.0
C297 C 0.82151 0.18539 0.66433 0.0
H298 H 0.98684 0.20738 0.6386 0.0
C299 C 0.7924 0.04637 0.76722 0.0
C300 C 0.8579 0.06617 0.77881 0.0
C301 C 0.79915 0.07918 0.74011 0.0
C302 C 0.94089 0.20157 0.64719 0.0
H303 H 0.75583 0.21547 0.51899 0.0
H304 H 0.77315 0.17136 0.55666 0.0
H305 H 0.99168 0.25546 0.5791 0.0
H306 H 0.98166 0.13731 0.77431 0.0
H307 H 0.99342 0.19585 0.72918 0.0
H308 H 0.77167 0.13361 0.73347 0.0
C309 C 0.8187 0.21566 0.55694 0.0
C310 C 0.94346 0.22869 0.61262 0.0
C311 C 0.8092 0.24084 0.53477 0.0
C312 C 0.93007 0.12095 0.76616 0.0
C313 C 0.93685 0.15416 0.73937 0.0
C314 C 0.81962 0.15927 0.69949 0.0
C315 C 0.88306 0.24705 0.58394 0.0
C316 C 0.88287 0.21981 0.62021 0.0
C317 C 0.8716 0.1332 0.72458 0.0
C318 C 0.87836 0.16594 0.69074 0.0
H319 H 0.97299 0.37341 0.56759 0.0
H320 H 0.99129 0.32937 0.60431 0.0
H321 H 0.77503 0.17902 0.67197 0.0
H322 H 0.73586 1.00448 0.77694 0.0
H323 H 0.74746 0.06102 0.72908 0.0
C324 C 0.80698 0.52895 0.57192 0.0
C325 C 0.77592 0.5153 0.52229 0.0
C326 C 0.82232 0.56734 0.61162 0.0
C327 C 0.77441 0.63634 0.6587 0.0
H328 H 0.96547 0.74495 0.72274 0.0
C329 C 0.886 0.82645 0.7863 0.0
C330 C 0.9199 0.84242 0.83507 0.0
C331 C 0.86653 0.78535 0.74928 0.0
C332 C 0.91143 0.71452 0.70581 0.0
H333 H 0.73586 0.53092 0.47583 0.0
H334 H 0.76304 0.59793 0.54466 0.0
H335 H 0.93426 0.6749 0.65698 0.0
H336 H 0.95927 0.82733 0.88342 0.0
H337 H 0.92495 0.75558 0.81916 0.0
H338 H 0.7518 0.67617 0.70736 0.0
C339 C 0.77482 0.57861 0.55333 0.0
C340 C 0.89349 0.6743 0.66812 0.0
C341 C 0.75963 0.54036 0.51365 0.0
C342 C 0.93354 0.8162 0.84612 0.0
C343 C 0.91424 0.77524 0.80908 0.0
C344 C 0.79235 0.67657 0.6964 0.0
C345 C 0.80675 0.59284 0.60266 0.0
C346 C 0.82486 0.63479 0.64396 0.0
C347 C 0.8807 0.75938 0.76011 0.0
C348 C 0.86118 0.71625 0.72033 0.0
H349 H 0.82004 0.51032 0.57996 0.0
H350 H 0.84603 0.57684 0.64952 0.0
H351 H 0.72054 0.60606 0.64155 0.0
H352 H 0.87468 0.84579 0.77652 0.0
H353 H 0.84153 0.77456 0.71163 0.0
C354 C 0.57275 0.29381 0.4942 0.0
C355 C 0.5459 0.26439 0.44241 0.0
C356 C 0.52593 0.26856 0.54691 0.0
C357 C 0.32736 0.16545 0.61268 0.0
H358 H 0.39908 0.1703 0.73811 0.0
C359 C 0.14505 0.06359 0.83779 0.0
C360 C 0.18282 0.09905 0.88456 0.0
C361 C 0.18464 0.07978 0.78156 0.0
C362 C 0.37838 0.1688 0.7035 0.0
H363 H 0.44921 0.18494 0.40574 0.0
H364 H 0.36775 0.14177 0.49748 0.0
H365 H 0.47685 0.20286 0.64273 0.0
H366 H 0.29035 0.1802 0.9086 0.0
H367 H 0.3594 0.20752 0.8113 0.0
H368 H 0.2271 0.1292 0.67252 0.0
C369 C 0.42496 0.1841 0.49719 0.0
C370 C 0.42334 0.18807 0.64946 0.0
C371 C 0.47205 0.20892 0.44472 0.0
C372 C 0.25996 0.15143 0.87376 0.0
C373 C 0.29964 0.16717 0.81801 0.0
C374 C 0.28151 0.14517 0.66653 0.0
C375 C 0.45107 0.21378 0.54873 0.0
C376 C 0.39956 0.18829 0.60416 0.0
C377 C 0.26291 0.13129 0.77139 0.0
C378 C 0.30749 0.14789 0.71284 0.0
H379 H 0.62881 0.33666 0.494 0.0
H380 H 0.54704 0.29243 0.5862 0.0
H381 H 0.30743 0.16473 0.57815 0.0
H382 H 0.0859 0.02283 0.84475 0.0
H383 H 0.15494 0.05136 0.74629 0.0
C384 C 0.44553 0.37853 0.12429 0.0
C385 C 0.51309 0.39854 0.13018 0.0
C386 C 0.44894 0.40978 0.09768 0.0
C387 C 0.57725 0.51952 0.99127 0.0
H388 H 0.4338 0.51959 0.03644 0.0
C389 C 0.60822 0.66181 0.89032 0.0
C390 C 0.54129 0.64259 0.88424 0.0
C391 C 0.60357 0.62989 0.91696 0.0
C392 C 0.47354 0.51931 0.02269 0.0
H393 H 0.63736 0.46823 0.11561 0.0
H394 H 0.64368 0.52356 0.07004 0.0
H395 H 0.43005 0.47209 0.09509 0.0
H396 H 0.41694 0.57366 0.89857 0.0
H397 H 0.40856 0.51716 0.94418 0.0
H398 H 0.62071 0.56666 0.91888 0.0
C399 C 0.58786 0.48319 0.08516 0.0
C400 C 0.47164 0.49229 0.05655 0.0
C401 C 0.58435 0.45189 0.11204 0.0
C402 C 0.46946 0.58938 0.90229 0.0
C403 C 0.46477 0.55741 0.9292 0.0
C404 C 0.57911 0.54649 0.95742 0.0
C405 C 0.52018 0.46186 0.07612 0.0
C406 C 0.52363 0.49217 0.04136 0.0
C407 C 0.53181 0.5779 0.9383 0.0
C408 C 0.52739 0.54685 0.97272 0.0
H409 H 0.38991 0.33755 0.13806 0.0
H410 H 0.39564 0.39189 0.09141 0.0
H411 H 0.61704 0.51928 0.97753 0.0
H412 H 0.6644 0.70266 0.87665 0.0
H413 H 0.65642 0.64719 0.92336 0.0
C414 C 0.50237 0.88018 0.88195 0.0
C415 C 0.45024 0.85266 0.84292 0.0
C416 C 0.52131 0.92149 0.91815 0.0
C417 C 0.45234 0.97506 0.9806 0.0
H418 H 0.66322 0.10598 0.00853 0.0
C419 C 0.55463 0.16347 0.10665 0.0
C420 C 0.60543 0.18871 0.14602 0.0
C421 C 0.53571 0.12307 0.06829 0.0
C422 C 0.60389 0.06947 1.00163 0.0
H423 H 0.37719 0.84708 0.81143 0.0
H424 H 0.41065 0.91921 0.87403 0.0
H425 H 0.63009 0.03417 0.94529 0.0
H426 H 0.67615 0.1912 0.17579 0.0
H427 H 0.64286 0.1209 0.10963 0.0
H428 H 0.42621 1.01042 0.0371 0.0
C429 C 0.43625 0.90851 0.87725 0.0
C430 C 0.58487 0.02821 0.9654 0.0
C431 C 0.41741 0.86731 0.84106 0.0
C432 C 0.63703 0.17281 0.14597 0.0
C433 C 0.61829 0.13264 0.1077 0.0
C434 C 0.4714 0.01638 0.01684 0.0
C435 C 0.4885 0.93621 0.91625 0.0
C436 C 0.50879 0.98034 0.95459 0.0
C437 C 0.56741 0.10719 0.06835 0.0
C438 C 0.54736 0.064 0.02808 0.0
H439 H 0.52859 0.86985 0.88462 0.0
H440 H 0.56101 0.94145 0.94814 0.0
H441 H 0.39297 0.93845 0.97388 0.0
H442 H 0.5294 0.17485 0.10545 0.0
H443 H 0.49691 0.1047 0.03817 0.0
C444 C 0.24178 0.63892 0.82872 0.0
C445 C 0.20971 0.60342 0.78101 0.0
C446 C 0.19952 0.62026 0.884 0.0
C447 C 0.99709 0.5101 0.95526 0.0
H448 H 0.08842 0.55626 0.09187 0.0
C449 C 0.81638 0.40621 0.17579 0.0
C450 C 0.84381 0.43946 0.22543 0.0
C451 C 0.86039 0.42828 0.12168 0.0
C452 C 0.06215 0.5435 0.05422 0.0
H453 H 0.11001 0.51996 0.75411 0.0
H454 H 0.03768 0.48727 0.84986 0.0
H455 H 0.16875 0.59036 0.99831 0.0
H456 H 0.93788 0.52242 0.25683 0.0
H457 H 1.01415 0.56094 0.16256 0.0
H458 H 0.89043 0.46287 0.01101 0.0
C459 C 0.09433 0.52984 0.84489 0.0
C460 C 0.10829 0.56306 1.00051 0.0
C461 C 0.13622 0.54849 0.78994 0.0
C462 C 0.91498 0.49563 0.21948 0.0
C463 C 0.9591 0.51765 0.16546 0.0
C464 C 0.951 0.49047 0.00886 0.0
C465 C 0.12444 0.5657 0.89254 0.0
C466 C 0.07626 0.54626 0.95022 0.0
C467 C 0.93311 0.48408 0.11597 0.0
C468 C 0.98277 0.50664 0.05904 0.0
H469 H 0.29798 0.68157 0.8231 0.0
H470 H 0.22453 0.64913 0.91961 0.0
H471 H 0.97058 0.49718 0.91771 0.0
H472 H 0.76225 0.36269 0.17886 0.0
H473 H 0.83875 0.40109 0.08461 0.0
loop_
_geom_bond_atom_site_label_1
_geom_bond_atom_site_label_2
_geom_bond_distance
_geom_bond_site_symmetry_2
_ccdc_geom_bond_type
Eu0 O2 2.323 . S
Eu0 O10 2.328 1_556 S
Eu0 O21 2.316 1_655 S
Eu0 C22 2.837 . S
Eu0 O23 2.488 . S
Eu0 O31 2.461 . S
C1 O12 1.251 . S
C1 O21 1.237 1_545 S
O2 Eu0 2.323 . S
O2 C18 1.279 . S
C3 C5 1.383 . S
C3 C7 1.388 1_545 S
C3 C17 1.491 . S
C4 C6 1.403 . S
C4 C8 1.385 . S
C4 H32 0.931 . S
C5 C3 1.383 . S
C5 C6 1.393 1_545 S
C5 H33 0.930 . S
C6 C4 1.403 . S
C6 C5 1.393 1_565 S
C7 C3 1.388 1_565 S
C7 C8 1.394 . S
C7 H34 0.930 . S
C8 C4 1.385 . S
C8 C7 1.394 . S
Eu9 O11 2.323 . S
Eu9 O12 2.328 1_554 S
Eu9 O13 2.316 1_455 S
Eu9 O16 2.488 . S
Eu9 C17 2.837 . S
Eu9 O20 2.461 . S
O10 Eu0 2.328 1_554 S
O10 C30 1.251 . S
O11 Eu9 2.323 . S
O11 C14 1.279 . S
O12 C1 1.251 . S
O12 Eu9 2.328 1_556 S
O13 Eu9 2.316 1_655 S
O13 C30 1.237 1_545 S
C14 O11 1.279 . S
C14 O15 1.244 . S
O15 C14 1.244 . S
O16 Eu9 2.488 . S
O16 C17 1.271 . S
C17 C3 1.491 . S
C17 Eu9 2.837 . S
C17 O16 1.271 . S
C17 O20 1.261 . S
C18 O2 1.279 . S
C18 O19 1.244 . S
O19 C18 1.244 . S
O20 Eu9 2.461 . S
O20 C17 1.261 . S
O21 Eu0 2.316 1_455 S
O21 C1 1.237 1_565 S
C22 Eu0 2.837 . S
C22 O23 1.271 . S
C22 C24 1.491 . S
C22 O31 1.261 . S
O23 Eu0 2.488 . S
O23 C22 1.271 . S
C24 C22 1.491 . S
C24 C26 1.383 . S
C24 C28 1.388 1_565 S
C25 C27 1.403 . S
C25 C29 1.385 . S
C25 H35 0.931 . S
C26 C24 1.383 . S
C26 C27 1.393 1_565 S
C26 H36 0.930 . S
C27 C25 1.403 . S
C27 C26 1.393 1_545 S
C28 C24 1.388 1_545 S
C28 C29 1.394 . S
C28 H37 0.930 . S
C29 C25 1.385 . S
C29 C28 1.394 . S
C30 O10 1.251 . S
C30 O13 1.237 1_565 S
O31 Eu0 2.461 . S
O31 C22 1.261 . S
H32 C4 0.931 . S
H33 C5 0.930 . S
H34 C7 0.930 . S
H35 C25 0.931 . S
H36 C26 0.930 . S
H37 C28 0.930 . S
Eu38 O40 2.323 . S
Eu38 O48 2.328 . S
Eu38 O59 2.316 . S
Eu38 C60 2.837 . S
Eu38 O61 2.488 . S
Eu38 O69 2.461 . S
C39 O50 1.251 . S
C39 O59 1.237 . S
O40 Eu38 2.323 . S
O40 C56 1.279 . S
C41 C43 1.383 . S
C41 C45 1.388 . S
C41 C55 1.491 . S
C42 C44 1.403 . S
C42 C46 1.385 . S
C42 H70 0.931 . S
C43 C41 1.383 . S
C43 C44 1.393 . S
C43 H71 0.930 . S
C44 C42 1.403 . S
C44 C43 1.393 . S
C45 C41 1.388 . S
C45 C46 1.394 . S
C45 H72 0.930 . S
C46 C42 1.385 . S
C46 C45 1.394 . S
Eu47 O49 2.323 . S
Eu47 O50 2.328 . S
Eu47 O51 2.316 . S
Eu47 O54 2.488 . S
Eu47 C55 2.837 . S
Eu47 O58 2.461 . S
O48 Eu38 2.328 . S
O48 C68 1.251 . S
O49 Eu47 2.323 . S
O49 C52 1.279 . S
O50 C39 1.251 . S
O50 Eu47 2.328 . S
O51 Eu47 2.316 . S
O51 C68 1.237 . S
C52 O49 1.279 . S
C52 O53 1.244 . S
O53 C52 1.244 . S
O54 Eu47 2.488 . S
O54 C55 1.271 . S
C55 C41 1.491 . S
C55 Eu47 2.837 . S
C55 O54 1.271 . S
C55 O58 1.261 . S
C56 O40 1.279 . S
C56 O57 1.244 . S
O57 C56 1.244 . S
O58 Eu47 2.461 . S
O58 C55 1.261 . S
O59 Eu38 2.316 . S
O59 C39 1.237 . S
C60 Eu38 2.837 . S
C60 O61 1.271 . S
C60 C62 1.491 . S
C60 O69 1.261 . S
O61 Eu38 2.488 . S
O61 C60 1.271 . S
C62 C60 1.491 . S
C62 C64 1.383 . S
C62 C66 1.388 . S
C63 C65 1.403 . S
C63 C67 1.385 . S
C63 H73 0.931 . S
C64 C62 1.383 . S
C64 C65 1.393 . S
C64 H74 0.930 . S
C65 C63 1.403 . S
C65 C64 1.393 . S
C66 C62 1.388 . S
C66 C67 1.394 . S
C66 H75 0.930 . S
C67 C63 1.385 . S
C67 C66 1.394 . S
C68 O48 1.251 . S
C68 O51 1.237 . S
O69 Eu38 2.461 . S
O69 C60 1.261 . S
H70 C42 0.931 . S
H71 C43 0.930 . S
H72 C45 0.930 . S
H73 C63 0.931 . S
H74 C64 0.930 . S
H75 C66 0.930 . S
Eu76 O78 2.323 . S
Eu76 O86 2.328 . S
Eu76 O97 2.316 . S
Eu76 C98 2.837 . S
Eu76 O99 2.488 . S
Eu76 O107 2.461 . S
C77 O88 1.251 . S
C77 O97 1.237 . S
O78 Eu76 2.323 . S
O78 C94 1.279 . S
C79 C81 1.383 . S
C79 C83 1.388 . S
C79 C93 1.491 . S
C80 C82 1.403 . S
C80 C84 1.385 . S
C80 H108 0.931 . S
C81 C79 1.383 . S
C81 C82 1.393 . S
C81 H109 0.930 . S
C82 C80 1.403 . S
C82 C81 1.393 . S
C83 C79 1.388 . S
C83 C84 1.394 . S
C83 H110 0.930 . S
C84 C80 1.385 . S
C84 C83 1.394 . S
Eu85 O87 2.323 . S
Eu85 O88 2.328 . S
Eu85 O89 2.316 . S
Eu85 O92 2.488 . S
Eu85 C93 2.837 . S
Eu85 O96 2.461 . S
O86 Eu76 2.328 . S
O86 C106 1.251 . S
O87 Eu85 2.323 . S
O87 C90 1.279 . S
O88 C77 1.251 . S
O88 Eu85 2.328 . S
O89 Eu85 2.316 . S
O89 C106 1.237 . S
C90 O87 1.279 . S
C90 O91 1.244 . S
O91 C90 1.244 . S
O92 Eu85 2.488 . S
O92 C93 1.271 . S
C93 C79 1.491 . S
C93 Eu85 2.837 . S
C93 O92 1.271 . S
C93 O96 1.261 . S
C94 O78 1.279 . S
C94 O95 1.244 . S
O95 C94 1.244 . S
O96 Eu85 2.461 . S
O96 C93 1.261 . S
O97 Eu76 2.316 . S
O97 C77 1.237 . S
C98 Eu76 2.837 . S
C98 O99 1.271 . S
C98 C100 1.491 . S
C98 O107 1.261 . S
O99 Eu76 2.488 . S
O99 C98 1.271 . S
C100 C98 1.491 . S
C100 C102 1.383 . S
C100 C104 1.388 . S
C101 C103 1.403 . S
C101 C105 1.385 . S
C101 H111 0.931 . S
C102 C100 1.383 . S
C102 C103 1.393 . S
C102 H112 0.930 . S
C103 C101 1.403 . S
C103 C102 1.393 . S
C104 C100 1.388 . S
C104 C105 1.394 . S
C104 H113 0.930 . S
C105 C101 1.385 . S
C105 C104 1.394 . S
C106 O86 1.251 . S
C106 O89 1.237 . S
O107 Eu76 2.461 . S
O107 C98 1.261 . S
H108 C80 0.931 . S
H109 C81 0.930 . S
H110 C83 0.930 . S
H111 C101 0.931 . S
H112 C102 0.930 . S
H113 C104 0.930 . S
C114 C115 1.349 . S
C114 C116 1.327 1_655 S
C114 H139 0.950 1_655 S
C115 C114 1.349 . S
C115 C131 1.349 1_545 S
C116 C114 1.327 1_455 S
C116 C135 1.429 1_455 S
C116 H140 0.950 . S
C117 C134 1.574 . S
C117 C136 1.368 1_565 S
C117 H141 0.949 . S
H118 C122 0.949 . S
C119 C120 1.349 . S
C119 C121 1.327 1_455 S
C119 H142 0.950 1_455 S
C120 C119 1.349 . S
C120 C132 1.349 1_565 S
C121 C119 1.327 1_655 S
C121 C137 1.429 1_655 S
C121 H143 0.950 . S
C122 H118 0.949 . S
C122 C130 1.574 . S
C122 C138 1.368 1_545 S
H123 C131 0.950 . S
H124 C129 0.950 . S
H125 C130 0.949 . S
H126 C132 0.950 . S
H127 C133 0.950 . S
H128 C134 0.949 . S
C129 H124 0.950 . S
C129 C131 1.327 . S
C129 C135 1.429 1_565 S
C130 C122 1.574 . S
C130 H125 0.949 . S
C130 C136 1.368 1_455 S
C131 C115 1.349 1_565 S
C131 H123 0.950 . S
C131 C129 1.327 . S
C132 C120 1.349 1_545 S
C132 H126 0.950 . S
C132 C133 1.327 . S
C133 H127 0.950 . S
C133 C132 1.327 . S
C133 C137 1.429 1_545 S
C134 C117 1.574 . S
C134 H128 0.949 . S
C134 C138 1.368 1_655 S
C135 C116 1.429 1_655 S
C135 C129 1.429 1_545 S
C135 C136 1.523 . S
C136 C117 1.368 1_545 S
C136 C130 1.368 1_655 S
C136 C135 1.523 . S
C137 C121 1.429 1_455 S
C137 C133 1.429 1_565 S
C137 C138 1.523 . S
C138 C122 1.368 1_565 S
C138 C134 1.368 1_455 S
C138 C137 1.523 . S
H139 C114 0.950 1_455 S
H140 C116 0.950 . S
H141 C117 0.949 . S
H142 C119 0.950 1_655 S
H143 C121 0.950 . S
C144 C145 1.349 . S
C144 C146 1.327 . S
C144 H169 0.950 . S
C145 C144 1.349 . S
C145 C161 1.349 . S
C146 C144 1.327 . S
C146 C165 1.429 . S
C146 H170 0.950 . S
C147 C164 1.574 . S
C147 C166 1.368 . S
C147 H171 0.949 . S
H148 C152 0.949 . S
C149 C150 1.349 . S
C149 C151 1.327 1_554 S
C149 H172 0.950 . S
C150 C149 1.349 . S
C150 C162 1.349 . S
C151 C149 1.327 1_556 S
C151 C167 1.429 . S
C151 H173 0.950 . S
C152 H148 0.949 . S
C152 C160 1.574 . S
C152 C168 1.368 . S
H153 C161 0.950 . S
H154 C159 0.950 . S
H155 C160 0.949 . S
H156 C162 0.950 . S
H157 C163 0.950 . S
H158 C164 0.949 . S
C159 H154 0.950 . S
C159 C161 1.327 . S
C159 C165 1.429 . S
C160 C152 1.574 . S
C160 H155 0.949 . S
C160 C166 1.368 . S
C161 C145 1.349 . S
C161 H153 0.950 . S
C161 C159 1.327 . S
C162 C150 1.349 . S
C162 H156 0.950 . S
C162 C163 1.327 1_554 S
C163 H157 0.950 . S
C163 C162 1.327 1_556 S
C163 C167 1.429 . S
C164 C147 1.574 . S
C164 H158 0.949 . S
C164 C168 1.368 . S
C165 C146 1.429 . S
C165 C159 1.429 . S
C165 C166 1.523 . S
C166 C147 1.368 . S
C166 C160 1.368 . S
C166 C165 1.523 . S
C167 C151 1.429 . S
C167 C163 1.429 . S
C167 C168 1.523 . S
C168 C152 1.368 . S
C168 C164 1.368 . S
C168 C167 1.523 . S
H169 C144 0.950 . S
H170 C146 0.950 . S
H171 C147 0.949 . S
H172 C149 0.950 . S
H173 C151 0.950 . S
C174 C175 1.349 . S
C174 C176 1.327 1_556 S
C174 H199 0.950 . S
C175 C174 1.349 . S
C175 C191 1.349 . S
C176 C174 1.327 1_554 S
C176 C195 1.429 . S
C176 H200 0.950 . S
C177 C194 1.574 . S
C177 C196 1.368 . S
C177 H201 0.949 . S
H178 C182 0.949 . S
C179 C180 1.349 . S
C179 C181 1.327 . S
C179 H202 0.950 . S
C180 C179 1.349 . S
C180 C192 1.349 . S
C181 C179 1.327 . S
C181 C197 1.429 . S
C181 H203 0.950 . S
C182 H178 0.949 . S
C182 C190 1.574 . S
C182 C198 1.368 . S
H183 C191 0.950 . S
H184 C189 0.950 . S
H185 C190 0.949 . S
H186 C192 0.950 . S
H187 C193 0.950 . S
H188 C194 0.949 . S
C189 H184 0.950 . S
C189 C191 1.327 1_554 S
C189 C195 1.429 . S
C190 C182 1.574 . S
C190 H185 0.949 . S
C190 C196 1.368 . S
C191 C175 1.349 . S
C191 H183 0.950 . S
C191 C189 1.327 1_556 S
C192 C180 1.349 . S
C192 H186 0.950 . S
C192 C193 1.327 . S
C193 H187 0.950 . S
C193 C192 1.327 . S
C193 C197 1.429 . S
C194 C177 1.574 . S
C194 H188 0.949 . S
C194 C198 1.368 . S
C195 C176 1.429 . S
C195 C189 1.429 . S
C195 C196 1.523 . S
C196 C177 1.368 . S
C196 C190 1.368 . S
C196 C195 1.523 . S
C197 C181 1.429 . S
C197 C193 1.429 . S
C197 C198 1.523 . S
C198 C182 1.368 . S
C198 C194 1.368 . S
C198 C197 1.523 . S
H199 C174 0.950 . S
H200 C176 0.950 . S
H201 C177 0.949 . S
H202 C179 0.950 . S
H203 C181 0.950 . S
C204 C205 1.349 . S
C204 C206 1.327 . S
C204 H229 0.950 . S
C205 C204 1.349 . S
C205 C221 1.349 . S
C206 C204 1.327 . S
C206 C225 1.429 . S
C206 H230 0.950 . S
C207 C224 1.574 . S
C207 C226 1.368 . S
C207 H231 0.949 . S
H208 C212 0.949 . S
C209 C210 1.349 . S
C209 C211 1.327 . S
C209 H232 0.950 . S
C210 C209 1.349 . S
C210 C222 1.349 . S
C211 C209 1.327 . S
C211 C227 1.429 . S
C211 H233 0.950 . S
C212 H208 0.949 . S
C212 C220 1.574 . S
C212 C228 1.368 . S
H213 C221 0.950 . S
H214 C219 0.950 . S
H215 C220 0.949 . S
H216 C222 0.950 . S
H217 C223 0.950 . S
H218 C224 0.949 . S
C219 H214 0.950 . S
C219 C221 1.327 . S
C219 C225 1.429 . S
C220 C212 1.574 . S
C220 H215 0.949 . S
C220 C226 1.368 . S
C221 C205 1.349 . S
C221 H213 0.950 . S
C221 C219 1.327 . S
C222 C210 1.349 . S
C222 H216 0.950 . S
C222 C223 1.327 . S
C223 H217 0.950 . S
C223 C222 1.327 . S
C223 C227 1.429 . S
C224 C207 1.574 . S
C224 H218 0.949 . S
C224 C228 1.368 . S
C225 C206 1.429 . S
C225 C219 1.429 . S
C225 C226 1.523 . S
C226 C207 1.368 . S
C226 C220 1.368 . S
C226 C225 1.523 . S
C227 C211 1.429 . S
C227 C223 1.429 . S
C227 C228 1.523 . S
C228 C212 1.368 . S
C228 C224 1.368 . S
C228 C227 1.523 . S
H229 C204 0.950 . S
H230 C206 0.950 . S
H231 C207 0.949 . S
H232 C209 0.950 . S
H233 C211 0.950 . S
C234 C235 1.349 . S
C234 C236 1.327 . S
C234 H259 0.950 . S
C235 C234 1.349 . S
C235 C251 1.349 . S
C236 C234 1.327 . S
C236 C255 1.429 . S
C236 H260 0.950 . S
C237 C254 1.574 . S
C237 C256 1.368 . S
C237 H261 0.949 . S
H238 C242 0.949 . S
C239 C240 1.349 . S
C239 C241 1.327 . S
C239 H262 0.950 . S
C240 C239 1.349 . S
C240 C252 1.349 . S
C241 C239 1.327 . S
C241 C257 1.429 . S
C241 H263 0.950 . S
C242 H238 0.949 . S
C242 C250 1.574 . S
C242 C258 1.368 . S
H243 C251 0.950 . S
H244 C249 0.950 . S
H245 C250 0.949 . S
H246 C252 0.953 1_655 S
H247 C253 0.950 . S
H248 C254 0.949 . S
C249 H244 0.950 . S
C249 C251 1.327 . S
C249 C255 1.429 . S
C250 C242 1.574 . S
C250 H245 0.949 . S
C250 C256 1.368 . S
C251 C235 1.349 . S
C251 H243 0.950 . S
C251 C249 1.327 . S
C252 C240 1.349 . S
C252 H246 0.953 1_455 S
C252 C253 1.327 . S
C253 H247 0.950 . S
C253 C252 1.327 . S
C253 C257 1.429 . S
C254 C237 1.574 . S
C254 H248 0.949 . S
C254 C258 1.368 . S
C255 C236 1.429 . S
C255 C249 1.429 . S
C255 C256 1.523 . S
C256 C237 1.368 . S
C256 C250 1.368 . S
C256 C255 1.523 . S
C257 C241 1.429 . S
C257 C253 1.429 . S
C257 C258 1.523 . S
C258 C242 1.368 . S
C258 C254 1.368 . S
C258 C257 1.523 . S
H259 C234 0.950 . S
H260 C236 0.950 . S
H261 C237 0.949 . S
H262 C239 0.950 . S
H263 C241 0.950 . S
C264 C265 1.349 . S
C264 C266 1.327 . S
C264 H289 0.950 . S
C265 C264 1.349 . S
C265 C281 1.349 . S
C266 C264 1.327 . S
C266 C285 1.429 . S
C266 H290 0.950 . S
C267 C284 1.574 . S
C267 C286 1.368 . S
C267 H291 0.949 . S
H268 C272 0.949 . S
C269 C270 1.349 . S
C269 C271 1.327 . S
C269 H292 0.950 . S
C270 C269 1.349 . S
C270 C282 1.349 . S
C271 C269 1.327 . S
C271 C287 1.429 . S
C271 H293 0.950 . S
C272 H268 0.949 . S
C272 C280 1.574 . S
C272 C288 1.368 . S
H273 C281 0.950 . S
H274 C279 0.950 . S
H275 C280 0.949 . S
H276 C282 0.950 . S
H277 C283 0.950 . S
H278 C284 0.949 . S
C279 H274 0.950 . S
C279 C281 1.327 . S
C279 C285 1.429 . S
C280 C272 1.574 . S
C280 H275 0.949 . S
C280 C286 1.368 . S
C281 C265 1.349 . S
C281 H273 0.950 . S
C281 C279 1.327 . S
C282 C270 1.349 . S
C282 H276 0.950 . S
C282 C283 1.327 . S
C283 H277 0.950 . S
C283 C282 1.327 . S
C283 C287 1.429 . S
C284 C267 1.574 . S
C284 H278 0.949 . S
C284 C288 1.368 . S
C285 C266 1.429 . S
C285 C279 1.429 . S
C285 C286 1.523 . S
C286 C267 1.368 . S
C286 C280 1.368 . S
C286 C285 1.523 . S
C287 C271 1.429 . S
C287 C283 1.429 . S
C287 C288 1.523 . S
C288 C272 1.368 . S
C288 C284 1.368 . S
C288 C287 1.523 . S
H289 C264 0.950 . S
H290 C266 0.950 . S
H291 C267 0.949 . S
H292 C269 0.950 . S
H293 C271 0.950 . S
C294 C295 1.349 . S
C294 C296 1.327 . S
C294 H319 0.950 . S
C295 C294 1.349 . S
C295 C311 1.349 . S
C296 C294 1.327 . S
C296 C315 1.429 . S
C296 H320 0.950 . S
C297 C314 1.574 . S
C297 C316 1.368 . S
C297 H321 0.949 . S
H298 C302 0.949 . S
C299 C300 1.349 . S
C299 C301 1.327 . S
C299 H322 0.950 . S
C300 C299 1.349 . S
C300 C312 1.349 . S
C301 C299 1.327 . S
C301 C317 1.429 . S
C301 H323 0.950 . S
C302 H298 0.949 . S
C302 C310 1.574 . S
C302 C318 1.368 . S
H303 C311 0.950 . S
H304 C309 0.950 . S
H305 C310 0.949 . S
H306 C312 0.950 . S
H307 C313 0.950 . S
H308 C314 0.949 . S
C309 H304 0.950 . S
C309 C311 1.327 . S
C309 C315 1.429 . S
C310 C302 1.574 . S
C310 H305 0.949 . S
C310 C316 1.368 . S
C311 C295 1.349 . S
C311 H303 0.950 . S
C311 C309 1.327 . S
C312 C300 1.349 . S
C312 H306 0.950 . S
C312 C313 1.327 . S
C313 H307 0.950 . S
C313 C312 1.327 . S
C313 C317 1.429 . S
C314 C297 1.574 . S
C314 H308 0.949 . S
C314 C318 1.368 . S
C315 C296 1.429 . S
C315 C309 1.429 . S
C315 C316 1.523 . S
C316 C297 1.368 . S
C316 C310 1.368 . S
C316 C315 1.523 . S
C317 C301 1.429 . S
C317 C313 1.429 . S
C317 C318 1.523 . S
C318 C302 1.368 . S
C318 C314 1.368 . S
C318 C317 1.523 . S
H319 C294 0.950 . S
H320 C296 0.950 . S
H321 C297 0.949 . S
H322 C299 0.950 . S
H323 C301 0.950 . S
C324 C325 1.349 . S
C324 C326 1.327 . S
C324 H349 0.950 . S
C325 C324 1.349 . S
C325 C341 1.349 . S
C326 C324 1.327 . S
C326 C345 1.429 . S
C326 H350 0.950 . S
C327 C344 1.574 . S
C327 C346 1.368 . S
C327 H351 0.949 . S
H328 C332 0.949 . S
C329 C330 1.349 . S
C329 C331 1.327 . S
C329 H352 0.950 . S
C330 C329 1.349 . S
C330 C342 1.349 . S
C331 C329 1.327 . S
C331 C347 1.429 . S
C331 H353 0.950 . S
C332 H328 0.949 . S
C332 C340 1.574 . S
C332 C348 1.368 . S
H333 C341 0.950 . S
H334 C339 0.950 . S
H335 C340 0.949 . S
H336 C342 0.950 . S
H337 C343 0.950 . S
H338 C344 0.949 . S
C339 H334 0.950 . S
C339 C341 1.327 . S
C339 C345 1.429 . S
C340 C332 1.574 . S
C340 H335 0.949 . S
C340 C346 1.368 . S
C341 C325 1.349 . S
C341 H333 0.950 . S
C341 C339 1.327 . S
C342 C330 1.349 . S
C342 H336 0.950 . S
C342 C343 1.327 . S
C343 H337 0.950 . S
C343 C342 1.327 . S
C343 C347 1.429 . S
C344 C327 1.574 . S
C344 H338 0.949 . S
C344 C348 1.368 . S
C345 C326 1.429 . S
C345 C339 1.429 . S
C345 C346 1.523 . S
C346 C327 1.368 . S
C346 C340 1.368 . S
C346 C345 1.523 . S
C347 C331 1.429 . S
C347 C343 1.429 . S
C347 C348 1.523 . S
C348 C332 1.368 . S
C348 C344 1.368 . S
C348 C347 1.523 . S
H349 C324 0.950 . S
H350 C326 0.950 . S
H351 C327 0.949 . S
H352 C329 0.950 . S
H353 C331 0.950 . S
C354 C355 1.349 . S
C354 C356 1.327 . S
C354 H379 0.950 . S
C355 C354 1.349 . S
C355 C371 1.349 . S
C356 C354 1.327 . S
C356 C375 1.429 . S
C356 H380 0.950 . S
C357 C374 1.574 . S
C357 C376 1.368 . S
C357 H381 0.949 . S
H358 C362 0.949 . S
C359 C360 1.349 . S
C359 C361 1.327 . S
C359 H382 0.950 . S
C360 C359 1.349 . S
C360 C372 1.349 . S
C361 C359 1.327 . S
C361 C377 1.429 . S
C361 H383 0.950 . S
C362 H358 0.949 . S
C362 C370 1.574 . S
C362 C378 1.368 . S
H363 C371 0.950 . S
H364 C369 0.950 . S
H365 C370 0.949 . S
H366 C372 0.950 . S
H367 C373 0.950 . S
H368 C374 0.949 . S
C369 H364 0.950 . S
C369 C371 1.327 . S
C369 C375 1.429 . S
C370 C362 1.574 . S
C370 H365 0.949 . S
C370 C376 1.368 . S
C371 C355 1.349 . S
C371 H363 0.950 . S
C371 C369 1.327 . S
C372 C360 1.349 . S
C372 H366 0.950 . S
C372 C373 1.327 . S
C373 H367 0.950 . S
C373 C372 1.327 . S
C373 C377 1.429 . S
C374 C357 1.574 . S
C374 H368 0.949 . S
C374 C378 1.368 . S
C375 C356 1.429 . S
C375 C369 1.429 . S
C375 C376 1.523 . S
C376 C357 1.368 . S
C376 C370 1.368 . S
C376 C375 1.523 . S
C377 C361 1.429 . S
C377 C373 1.429 . S
C377 C378 1.523 . S
C378 C362 1.368 . S
C378 C374 1.368 . S
C378 C377 1.523 . S
H379 C354 0.950 . S
H380 C356 0.950 . S
H381 C357 0.949 . S
H382 C359 0.950 . S
H383 C361 0.950 . S
C384 C385 1.349 . S
C384 C386 1.327 . S
C384 H409 0.950 . S
C385 C384 1.349 . S
C385 C401 1.349 . S
C386 C384 1.327 . S
C386 C405 1.429 . S
C386 H410 0.950 . S
C387 C404 1.574 . S
C387 C406 1.368 1_556 S
C387 H411 0.949 . S
H388 C392 0.949 . S
C389 C390 1.349 . S
C389 C391 1.327 . S
C389 H412 0.950 . S
C390 C389 1.349 . S
C390 C402 1.349 . S
C391 C389 1.327 . S
C391 C407 1.429 . S
C391 H413 0.950 . S
C392 H388 0.949 . S
C392 C400 1.574 . S
C392 C408 1.368 1_554 S
H393 C401 0.950 . S
H394 C399 0.950 . S
H395 C400 0.949 . S
H396 C402 0.950 . S
H397 C403 0.950 . S
H398 C404 0.949 . S
C399 H394 0.950 . S
C399 C401 1.327 . S
C399 C405 1.429 . S
C400 C392 1.574 . S
C400 H395 0.949 . S
C400 C406 1.368 . S
C401 C385 1.349 . S
C401 H393 0.950 . S
C401 C399 1.327 . S
C402 C390 1.349 . S
C402 H396 0.950 . S
C402 C403 1.327 . S
C403 H397 0.950 . S
C403 C402 1.327 . S
C403 C407 1.429 . S
C404 C387 1.574 . S
C404 H398 0.949 . S
C404 C408 1.368 . S
C405 C386 1.429 . S
C405 C399 1.429 . S
C405 C406 1.523 . S
C406 C387 1.368 1_554 S
C406 C400 1.368 . S
C406 C405 1.523 . S
C407 C391 1.429 . S
C407 C403 1.429 . S
C407 C408 1.523 . S
C408 C392 1.368 1_556 S
C408 C404 1.368 . S
C408 C407 1.523 . S
H409 C384 0.950 . S
H410 C386 0.950 . S
H411 C387 0.949 . S
H412 C389 0.950 . S
H413 C391 0.950 . S
C414 C415 1.349 . S
C414 C416 1.327 . S
C414 H439 0.950 . S
C415 C414 1.349 . S
C415 C431 1.349 . S
C416 C414 1.327 . S
C416 C435 1.429 . S
C416 H440 0.950 . S
C417 C434 1.574 1_566 S
C417 C436 1.368 . S
C417 H441 0.949 . S
H418 C422 0.949 . S
C419 C420 1.349 . S
C419 C421 1.327 . S
C419 H442 0.950 . S
C420 C419 1.349 . S
C420 C432 1.349 . S
C421 C419 1.327 . S
C421 C437 1.429 . S
C421 H443 0.950 . S
C422 H418 0.949 . S
C422 C430 1.574 1_544 S
C422 C438 1.368 . S
H423 C431 0.950 . S
H424 C429 0.950 . S
H425 C430 0.949 . S
H426 C432 0.950 . S
H427 C433 0.950 . S
H428 C434 0.949 . S
C429 H424 0.950 . S
C429 C431 1.327 . S
C429 C435 1.429 . S
C430 C422 1.574 1_566 S
C430 H425 0.949 . S
C430 C436 1.368 . S
C431 C415 1.349 . S
C431 H423 0.950 . S
C431 C429 1.327 . S
C432 C420 1.349 . S
C432 H426 0.950 . S
C432 C433 1.327 . S
C433 H427 0.950 . S
C433 C432 1.327 . S
C433 C437 1.429 . S
C434 C417 1.574 1_544 S
C434 H428 0.949 . S
C434 C438 1.368 . S
C435 C416 1.429 . S
C435 C429 1.429 . S
C435 C436 1.523 . S
C436 C417 1.368 . S
C436 C430 1.368 . S
C436 C435 1.523 . S
C437 C421 1.429 . S
C437 C433 1.429 . S
C437 C438 1.523 . S
C438 C422 1.368 . S
C438 C434 1.368 . S
C438 C437 1.523 . S
H439 C414 0.950 . S
H440 C416 0.950 . S
H441 C417 0.949 . S
H442 C419 0.950 . S
H443 C421 0.950 . S
C444 C445 1.349 . S
C444 C446 1.327 . S
C444 H469 0.950 . S
C445 C444 1.349 . S
C445 C461 1.349 . S
C446 C444 1.327 . S
C446 C465 1.429 . S
C446 H470 0.950 . S
C447 C464 1.574 1_456 S
C447 C466 1.368 . S
C447 H471 0.949 . S
H448 C452 0.949 . S
C449 C450 1.349 . S
C449 C451 1.327 . S
C449 H472 0.950 . S
C450 C449 1.349 . S
C450 C462 1.349 . S
C451 C449 1.327 . S
C451 C467 1.429 . S
C451 H473 0.950 . S
C452 H448 0.949 . S
C452 C460 1.574 1_654 S
C452 C468 1.368 . S
H453 C461 0.950 . S
H454 C459 0.950 . S
H455 C460 0.949 . S
H456 C462 0.950 . S
H457 C463 0.950 . S
H458 C464 0.949 . S
C459 H454 0.950 . S
C459 C461 1.327 . S
C459 C465 1.429 . S
C460 C452 1.574 1_456 S
C460 H455 0.949 . S
C460 C466 1.368 . S
C461 C445 1.349 . S
C461 H453 0.950 . S
C461 C459 1.327 . S
C462 C450 1.349 . S
C462 H456 0.950 . S
C462 C463 1.327 . S
C463 H457 0.950 . S
C463 C462 1.327 . S
C463 C467 1.429 . S
C464 C447 1.574 1_654 S
C464 H458 0.949 . S
C464 C468 1.368 . S
C465 C446 1.429 . S
C465 C459 1.429 . S
C465 C466 1.523 . S
C466 C447 1.368 . S
C466 C460 1.368 . S
C466 C465 1.523 . S
C467 C451 1.429 . S
C467 C463 1.429 . S
C467 C468 1.523 . S
C468 C452 1.368 . S
C468 C464 1.368 . S
C468 C467 1.523 . S
H469 C444 0.950 . S
H470 C446 0.950 . S
H471 C447 0.949 . S
H472 C449 0.950 . S
H473 C451 0.950 . S
C115 C27 0.334 . S
C120 C6 0.334 . S
C145 C44 0.334 . S
C150 C65 0.334 . S
C175 C82 0.334 . S
C180 C103 0.334 . S
C205 C105 2.626 . S
C210 C8 2.626 . S
C235 C94 1.164 . S
C240 C14 1.161 . S
C265 C77 1.425 . S
C270 C30 1.424 . S
C295 C46 2.626 . S
C300 C29 2.626 . S
C325 C52 1.164 . S
C330 C18 1.166 . S
C355 C68 1.425 . S
C360 C1 1.426 . S
C385 C67 2.626 . S
C390 C84 2.626 . S
C415 C90 1.164 . S
C420 C56 1.164 . S
C445 C106 1.425 . S
C450 C39 1.425 . S
