# Generated by pormake.
# Topology umz, (4)-cn, num edge types: 1
# Building blocks:
#     Node 0, Type 0, BuildingBlock: TATPOV_clean_sbu_0, # of connection points: 4
#     Node 1, Type 0, BuildingBlock: TATPOV_clean_sbu_0, # of connection points: 4
#     Node 2, Type 0, BuildingBlock: TATPOV_clean_sbu_0, # of connection points: 4
#     Node 3, Type 0, BuildingBlock: TATPOV_clean_sbu_0, # of connection points: 4
#     Node 4, Type 0, BuildingBlock: TATPOV_clean_sbu_0, # of connection points: 4
#     Node 5, Type 0, BuildingBlock: TATPOV_clean_sbu_0, # of connection points: 4
#     Node 6, Type 0, BuildingBlock: TATPOV_clean_sbu_0, # of connection points: 4
#     Node 7, Type 0, BuildingBlock: TATPOV_clean_sbu_0, # of connection points: 4
#     Node 8, Type 0, BuildingBlock: TATPOV_clean_sbu_0, # of connection points: 4
#     Node 9, Type 0, BuildingBlock: TATPOV_clean_sbu_0, # of connection points: 4
#     Node 10, Type 0, BuildingBlock: TATPOV_clean_sbu_0, # of connection points: 4
#     Node 11, Type 0, BuildingBlock: TATPOV_clean_sbu_0, # of connection points: 4
#     Node 12, Type 0, BuildingBlock: TATPOV_clean_sbu_0, # of connection points: 4
#     Node 13, Type 0, BuildingBlock: TATPOV_clean_sbu_0, # of connection points: 4
#     Node 14, Type 0, BuildingBlock: TATPOV_clean_sbu_0, # of connection points: 4
#     Node 15, Type 0, BuildingBlock: TATPOV_clean_sbu_0, # of connection points: 4
#     Edge 16, Type (0, 0), BuildingBlock: KIFKEQ_clean_linker_1, # of connection points: 2
#     Edge 17, Type (0, 0), BuildingBlock: KIFKEQ_clean_linker_1, # of connection points: 2
#     Edge 18, Type (0, 0), BuildingBlock: KIFKEQ_clean_linker_1, # of connection points: 2
#     Edge 19, Type (0, 0), BuildingBlock: KIFKEQ_clean_linker_1, # of connection points: 2
#     Edge 20, Type (0, 0), BuildingBlock: KIFKEQ_clean_linker_1, # of connection points: 2
#     Edge 21, Type (0, 0), BuildingBlock: KIFKEQ_clean_linker_1, # of connection points: 2
#     Edge 22, Type (0, 0), BuildingBlock: KIFKEQ_clean_linker_1, # of connection points: 2
#     Edge 23, Type (0, 0), BuildingBlock: KIFKEQ_clean_linker_1, # of connection points: 2
#     Edge 24, Type (0, 0), BuildingBlock: KIFKEQ_clean_linker_1, # of connection points: 2
#     Edge 25, Type (0, 0), BuildingBlock: KIFKEQ_clean_linker_1, # of connection points: 2
#     Edge 26, Type (0, 0), BuildingBlock: KIFKEQ_clean_linker_1, # of connection points: 2
#     Edge 27, Type (0, 0), BuildingBlock: KIFKEQ_clean_linker_1, # of connection points: 2
#     Edge 28, Type (0, 0), BuildingBlock: KIFKEQ_clean_linker_1, # of connection points: 2
#     Edge 29, Type (0, 0), BuildingBlock: KIFKEQ_clean_linker_1, # of connection points: 2
#     Edge 30, Type (0, 0), BuildingBlock: KIFKEQ_clean_linker_1, # of connection points: 2
#     Edge 31, Type (0, 0), BuildingBlock: KIFKEQ_clean_linker_1, # of connection points: 2
#     Edge 32, Type (0, 0), BuildingBlock: KIFKEQ_clean_linker_1, # of connection points: 2
#     Edge 33, Type (0, 0), BuildingBlock: KIFKEQ_clean_linker_1, # of connection points: 2
#     Edge 34, Type (0, 0), BuildingBlock: KIFKEQ_clean_linker_1, # of connection points: 2
#     Edge 35, Type (0, 0), BuildingBlock: KIFKEQ_clean_linker_1, # of connection points: 2
#     Edge 36, Type (0, 0), BuildingBlock: KIFKEQ_clean_linker_1, # of connection points: 2
#     Edge 37, Type (0, 0), BuildingBlock: KIFKEQ_clean_linker_1, # of connection points: 2
#     Edge 38, Type (0, 0), BuildingBlock: KIFKEQ_clean_linker_1, # of connection points: 2
#     Edge 39, Type (0, 0), BuildingBlock: KIFKEQ_clean_linker_1, # of connection points: 2
#     Edge 40, Type (0, 0), BuildingBlock: KIFKEQ_clean_linker_1, # of connection points: 2
#     Edge 41, Type (0, 0), BuildingBlock: KIFKEQ_clean_linker_1, # of connection points: 2
#     Edge 42, Type (0, 0), BuildingBlock: KIFKEQ_clean_linker_1, # of connection points: 2
#     Edge 43, Type (0, 0), BuildingBlock: KIFKEQ_clean_linker_1, # of connection points: 2
#     Edge 44, Type (0, 0), BuildingBlock: KIFKEQ_clean_linker_1, # of connection points: 2
#     Edge 45, Type (0, 0), BuildingBlock: KIFKEQ_clean_linker_1, # of connection points: 2
#     Edge 46, Type (0, 0), BuildingBlock: KIFKEQ_clean_linker_1, # of connection points: 2
#     Edge 47, Type (0, 0), BuildingBlock: KIFKEQ_clean_linker_1, # of connection points: 2
# Relax obj value: 0.193
# Max RMSD: 0.156
# Mean RMSD: 0.156
data_MOF--net-umz--node1-TATPOV_clean_sbu_0--edge1-KIFKEQ_clean_linker_1
_symmetry_space_group_name_H-M    P1
_symmetry_Int_Tables_number       1
_symmetry_cell_setting            triclinic
loop_
_symmetry_equiv_pos_as_xyz
'x, y, z'
_cell_length_a     62.383671
_cell_length_b     61.832396
_cell_length_c     22.969078
_cell_angle_alpha  90.000544
_cell_angle_beta   89.723834
_cell_angle_gamma 89.535422
loop_
_atom_site_label
_atom_site_type_symbol
_atom_site_fract_x
_atom_site_fract_y
_atom_site_fract_z
_atom_type_partial_charge
Zn0 Zn -0.00294 0.57992 0.01516 0.0
Zn1 Zn -2e-05 0.62009 0.03914 0.0
O2 O 0.96997 0.61081 0.07043 0.0
O3 O 0.96724 0.5766 0.04621 0.0
O4 O -0.00202 0.65231 0.0309 0.0
O5 O 0.00291 0.58112 0.92949 0.0
O6 O 0.01304 0.61322 0.9583 0.0
C7 C 0.95941 0.59322 0.0706 0.0
C8 C 0.03014 0.59288 0.10236 0.0
O9 O 0.02238 0.61196 0.09875 0.0
O10 O 0.02261 0.57778 0.07115 0.0
C11 C -0.00837 0.66721 0.06501 0.0
O12 O 0.98572 0.66244 0.11843 0.0
C13 C 0.01263 0.59857 0.91946 0.0
Zn14 Zn 0.91759 0.00856 0.5826 0.0
Zn15 Zn 0.85607 0.00619 0.55068 0.0
O16 O 0.86184 0.97459 0.57842 0.0
O17 O 0.89487 0.98478 0.58944 0.0
O18 O 0.827 0.0075 0.51268 0.0
O19 O 0.91448 0.02236 0.50372 0.0
O20 O 0.87874 0.01964 0.4914 0.0
C21 C 0.8809 0.9701 0.59371 0.0
C22 C 0.87603 0.02655 0.63223 0.0
O23 O 0.8561 0.02649 0.62228 0.0
O24 O 0.88702 0.01229 0.6062 0.0
C25 C 0.81174 -0.00364 0.53344 0.0
O26 O 0.81526 0.98441 0.57977 0.0
C27 C 0.89749 0.02552 0.47374 0.0
Zn28 Zn 0.46879 0.90188 0.03843 0.0
Zn29 Zn 0.47242 0.86181 0.04928 0.0
O30 O 0.50153 0.87332 0.08137 0.0
O31 O 0.49597 0.90842 0.07959 0.0
O32 O 0.47765 0.83015 0.03713 0.0
O33 O 0.46781 0.90319 0.95215 0.0
O34 O 0.46109 0.86883 0.96625 0.0
C35 C 0.50778 0.89248 0.09277 0.0
C36 C 0.4367 0.8825 0.11402 0.0
O37 O 0.44858 0.86568 0.11019 0.0
O38 O 0.44107 0.89917 0.08427 0.0
C39 C 0.48164 0.8147 0.07183 0.0
O40 O 0.48259 0.81836 0.12809 0.0
C41 C 0.46161 0.88522 0.93282 0.0
Zn42 Zn 0.57679 0.48623 0.51509 0.0
Zn43 Zn 0.61619 0.47999 0.54374 0.0
O44 O 0.60852 0.51138 0.57071 0.0
O45 O 0.57558 0.51717 0.54093 0.0
O46 O 0.64841 0.47806 0.54198 0.0
O47 O 0.57904 0.4781 0.43078 0.0
O48 O 0.60992 0.46628 0.46356 0.0
C49 C 0.59206 0.52372 0.56725 0.0
C50 C 0.58549 0.45359 0.60826 0.0
O51 O 0.60505 0.4592 0.60422 0.0
O52 O 0.57148 0.46219 0.57536 0.0
C53 C 0.66164 0.49255 0.55678 0.0
O54 O 0.65459 0.51032 0.58198 0.0
C55 C 0.59591 0.46697 0.42352 0.0
Zn56 Zn 0.00535 0.90435 0.91557 0.0
Zn57 Zn 0.00504 0.86302 0.90285 0.0
O58 O 0.97523 0.87331 0.87158 0.0
O59 O 0.97594 0.9086 0.8833 0.0
O60 O 0.00243 0.83109 0.91654 0.0
O61 O 0.01006 0.9055 0.00098 0.0
O62 O 0.01731 0.87129 -0.01636 0.0
C63 C 0.9663 0.89186 0.86634 0.0
C64 C 0.03765 0.8855 0.83436 0.0
O65 O 0.02797 0.86763 0.84102 0.0
O66 O 0.03154 0.90223 0.86205 0.0
C67 C -0.01156 0.81797 0.89823 0.0
O68 O 0.97391 0.82458 0.86087 0.0
C69 C 0.01757 0.88754 0.01762 0.0
Zn70 Zn 0.5746 -0.00416 0.43294 0.0
Zn71 Zn 0.61437 0.00227 0.40767 0.0
O72 O 0.60768 0.97117 0.37842 0.0
O73 O 0.57473 0.96486 0.40751 0.0
O74 O 0.64644 0.0033 0.4121 0.0
O75 O 0.5755 0.00375 0.51712 0.0
O76 O 0.6073 0.01454 0.48919 0.0
C77 C 0.5916 0.95859 0.38163 0.0
C78 C 0.58406 0.02932 0.34256 0.0
O79 O 0.6037 0.02396 0.34824 0.0
O80 O 0.56974 0.0201 0.37307 0.0
C81 C 0.66133 0.0028 0.37422 0.0
O82 O 0.65656 0.00157 0.31869 0.0
C83 C 0.59252 0.01393 0.52752 0.0
Zn84 Zn 0.47763 0.5784 0.92105 0.0
Zn85 Zn 0.47482 0.61922 0.90539 0.0
O86 O 0.50539 0.61087 0.87459 0.0
O87 O 0.50735 0.57577 0.88858 0.0
O88 O 0.47522 0.65133 0.91774 0.0
O89 O 0.47226 0.57726 0.00664 0.0
O90 O 0.46173 0.61021 -0.01511 0.0
C91 C 0.5157 0.59302 0.87 0.0
C92 C 0.4446 0.59413 0.83765 0.0
O93 O 0.45296 0.61271 0.84324 0.0
O94 O 0.45166 0.57815 0.86678 0.0
C95 C 0.48867 0.66498 0.89888 0.0
O96 O 0.50381 0.65873 0.8625 0.0
C97 C 0.46238 0.59442 0.02042 0.0
Zn98 Zn 0.89942 0.47955 0.4245 0.0
Zn99 Zn 0.85898 0.47923 0.4114 0.0
O100 O 0.8687 0.50915 0.37852 0.0
O101 O 0.90356 0.50912 0.39163 0.0
O102 O 0.82742 0.48299 0.42621 0.0
O103 O 0.90089 0.47459 0.50987 0.0
O104 O 0.8674 0.46639 0.49192 0.0
C105 C 0.88682 0.51843 0.37317 0.0
C106 C 0.88204 0.44685 0.3427 0.0
O107 O 0.86392 0.45618 0.34942 0.0
O108 O 0.89829 0.45327 0.37067 0.0
C109 C 0.81161 0.48365 0.39169 0.0
O110 O 0.81488 0.48164 0.33539 0.0
C111 C 0.88342 0.46633 0.52608 0.0
Zn112 Zn 0.98051 0.40536 0.91497 0.0
Zn113 Zn 0.97702 0.36472 0.90958 0.0
O114 O 0.00738 0.37135 0.87382 0.0
O115 O 0.01008 0.40661 0.88272 0.0
O116 O 0.97758 0.33283 0.92702 0.0
O117 O 0.97498 0.41016 -0.00134 0.0
O118 O 0.96584 0.37617 -0.01012 0.0
C119 C 0.01801 0.38873 0.86651 0.0
C120 C 0.94592 0.38904 0.83984 0.0
O121 O 0.95347 0.37021 0.84957 0.0
O122 O 0.95442 0.40553 0.86272 0.0
C123 C 0.98564 0.31761 0.8967 0.0
O124 O -0.00566 0.322 0.84589 0.0
C125 C 0.96611 0.3936 0.01962 0.0
Zn126 Zn 0.07742 0.98404 0.41461 0.0
Zn127 Zn 0.1175 0.98036 0.40306 0.0
O128 O 0.1093 0.01111 0.37005 0.0
O129 O 0.07458 0.01398 0.38476 0.0
O130 O 0.14973 0.98044 0.41161 0.0
O131 O 0.0746 0.97816 0.49836 0.0
O132 O 0.10817 0.96857 0.48484 0.0
C133 C 0.09186 0.022 0.36621 0.0
C134 C 0.09208 0.94952 0.33553 0.0
O135 O 0.1108 0.95702 0.34305 0.0
O136 O 0.07607 0.95802 0.36119 0.0
C137 C 0.1604 -0.00228 0.41795 0.0
O138 O 0.15044 0.01648 0.4152 0.0
C139 C 0.09136 0.96892 0.51676 0.0
Zn140 Zn 0.49966 0.07996 0.88313 0.0
Zn141 Zn 0.49921 0.12054 0.89709 0.0
O142 O 0.46887 0.112 0.86519 0.0
O143 O 0.46813 0.07666 0.87404 0.0
O144 O 0.49723 0.1525 0.91371 0.0
O145 O 0.5144 0.07394 0.95775 0.0
O146 O 0.51056 0.10863 0.97631 0.0
C147 C 0.45873 0.09419 0.86121 0.0
C148 C 0.5275 0.10179 0.80373 0.0
O149 O 0.5229 0.11824 0.83473 0.0
O150 O 0.51842 0.08388 0.81287 0.0
C151 C 0.48014 0.16384 0.91325 0.0
O152 O 0.4619 0.15476 0.89941 0.0
C153 C 0.51705 0.08984 -0.00858 0.0
Zn154 Zn 0.40061 0.49682 0.4027 0.0
Zn155 Zn 0.36001 0.5008 0.40718 0.0
O156 O 0.366 0.46977 0.37414 0.0
O157 O 0.40092 0.46573 0.38081 0.0
O158 O 0.32881 0.50026 0.42831 0.0
O159 O 0.4073 0.50613 0.48257 0.0
O160 O 0.37268 0.51268 0.48456 0.0
C161 C 0.38285 0.45814 0.36762 0.0
C162 C 0.38203 0.52953 0.32441 0.0
O163 O 0.36383 0.52371 0.3438 0.0
O164 O 0.3991 0.52049 0.34209 0.0
C165 C 0.31343 0.497 0.39353 0.0
O166 O 0.31749 0.49407 0.3379 0.0
C167 C 0.39108 0.51399 0.50823 0.0
Zn168 Zn 0.97673 0.07718 0.03573 0.0
Zn169 Zn 0.97439 0.11876 0.04133 0.0
O170 O 0.00514 0.11164 0.07213 0.0
O171 O 0.00663 0.07616 0.06597 0.0
O172 O 0.97446 0.1509 0.02748 0.0
O173 O 0.97154 0.07421 0.95114 0.0
O174 O 0.96371 0.10876 0.9599 0.0
C175 C 0.01532 0.09385 0.07942 0.0
C176 C 0.94406 0.0942 0.11617 0.0
O177 O 0.95198 0.11264 0.10446 0.0
O178 O 0.95128 0.07733 0.09124 0.0
C179 C 0.98356 0.1655 0.05712 0.0
O180 O -0.00638 0.16024 0.10526 0.0
C181 C 0.96413 0.09148 0.92961 0.0
Zn182 Zn 0.39738 -0.00725 0.52626 0.0
Zn183 Zn 0.35945 0.98276 0.54275 0.0
O184 O 0.36547 0.01419 0.57435 0.0
O185 O 0.39612 0.02461 0.53739 0.0
O186 O 0.32717 0.98074 0.5366 0.0
O187 O 0.40233 0.97963 0.44891 0.0
O188 O 0.36895 0.96992 0.46235 0.0
C189 C 0.37972 0.02875 0.56797 0.0
C190 C 0.3892 0.96129 0.62089 0.0
O191 O 0.36975 0.96145 0.60432 0.0
O192 O 0.40276 0.97359 0.5966 0.0
C193 C 0.31416 -0.00455 0.55323 0.0
O194 O 0.32153 0.01247 0.58058 0.0
C195 C 0.38613 0.96932 0.43198 0.0
Zn196 Zn 0.49944 0.40334 0.07053 0.0
Zn197 Zn 0.50042 0.36285 0.05384 0.0
O198 O 0.46956 0.37074 0.08331 0.0
O199 O 0.46754 0.406 0.07389 0.0
O200 O 0.49901 0.33101 0.03544 0.0
O201 O 0.51587 0.40952 -0.00211 0.0
O202 O 0.5116 0.37526 0.97558 0.0
C203 C 0.45863 0.38825 0.08574 0.0
C204 C 0.52645 0.38136 0.1514 0.0
O205 O 0.52355 0.36545 0.11722 0.0
O206 O 0.51628 0.39893 0.14409 0.0
C207 C 0.48427 0.31847 0.05293 0.0
O208 O 0.4691 0.32603 0.08734 0.0
C209 C 0.51842 0.39404 0.96255 0.0
Zn210 Zn 0.07591 0.50209 0.55632 0.0
Zn211 Zn 0.11615 0.50321 0.54344 0.0
O212 O 0.10919 0.4721 0.57488 0.0
O213 O 0.07427 0.4701 0.56507 0.0
O214 O 0.1475 0.50236 0.52361 0.0
O215 O 0.06921 0.51671 0.48168 0.0
O216 O 0.10389 0.51488 0.46537 0.0
C217 C 0.0919 0.46122 0.57821 0.0
C218 C 0.09647 0.53081 0.63658 0.0
O219 O 0.11315 0.52661 0.60643 0.0
O220 O 0.07901 0.52126 0.62649 0.0
C221 C 0.16216 0.49234 0.551 0.0
O222 O 0.15724 0.4813 0.59801 0.0
C223 C 0.08513 0.52051 0.4492 0.0
H224 H 0.98385 0.70479 0.12585 0.0
H225 H -0.0045 0.68018 0.95227 0.0
H226 H 0.98142 0.74157 0.08636 0.0
H227 H -0.00694 0.71664 0.9134 0.0
H228 H 0.96663 0.78275 0.85758 0.0
H229 H 0.96575 0.74644 0.90006 0.0
H230 H 0.00736 0.7674 0.03837 0.0
H231 H 0.00834 0.8035 -0.00382 0.0
C232 C 0.98584 0.7072 0.07944 0.0
C233 C -0.01004 0.68957 0.04233 0.0
C234 C 0.98449 0.72821 0.05687 0.0
C235 C 0.98697 0.73191 -0.00324 0.0
C236 C -0.00919 0.71426 0.95975 0.0
C237 C -0.00762 0.69337 -0.01776 0.0
C238 C 0.97556 0.77959 0.89705 0.0
C239 C 0.9877 0.79593 0.92317 0.0
C240 C 0.97507 0.75883 0.92131 0.0
C241 C 0.98647 0.75414 0.97258 0.0
C242 C -0.00174 0.7706 -0.00079 0.0
C243 C -0.00102 0.79121 0.97461 0.0
H244 H 0.69833 0.00092 0.30829 0.0
H245 H 0.67539 0.00457 0.48599 0.0
H246 H 0.73531 -0.00081 0.34391 0.0
H247 H 0.71194 0.0031 0.52092 0.0
H248 H 0.77619 0.97428 0.56744 0.0
H249 H 0.74051 0.97583 0.52542 0.0
H250 H 0.76261 0.02146 0.39649 0.0
H251 H 0.79861 0.0197 0.43815 0.0
C252 C 0.70115 0.00146 0.35476 0.0
C253 C 0.68388 0.00272 0.39422 0.0
C254 C 0.7223 0.00055 0.37512 0.0
C255 C 0.72651 0.00076 0.43526 0.0
C256 C 0.70923 0.00246 0.4744 0.0
C257 C 0.68824 0.00344 0.45422 0.0
C258 C 0.77352 0.98462 0.53006 0.0
C259 C 0.79023 -0.00301 0.50646 0.0
C260 C 0.75303 0.98557 0.50609 0.0
C261 C 0.7487 -0.00109 0.45794 0.0
C262 C 0.76549 0.01093 0.43337 0.0
C263 C 0.78606 0.01001 0.45748 0.0
H264 H 0.48582 0.77627 0.13099 0.0
H265 H 0.48442 0.80335 0.95747 0.0
H266 H 0.48903 0.73997 0.08916 0.0
H267 H 0.48739 0.76728 0.91617 0.0
H268 H 0.51214 0.69998 0.8634 0.0
H269 H 0.51239 0.73609 0.90694 0.0
H270 H 0.46495 0.71599 0.0329 0.0
H271 H 0.46472 0.68007 -0.01005 0.0
C272 C 0.4863 0.77451 0.08409 0.0
C273 C 0.4847 0.79269 0.04765 0.0
C274 C 0.48804 0.75375 0.06013 0.0
C275 C 0.48839 0.75081 -0.00064 0.0
C276 C 0.48738 0.76903 0.9631 0.0
C277 C 0.48551 0.7897 -0.01308 0.0
C278 C 0.50175 0.7033 0.9003 0.0
C279 C 0.48838 0.68717 0.92304 0.0
C280 C 0.50188 0.72397 0.92519 0.0
C281 C 0.4888 0.7288 0.97362 0.0
C282 C 0.47545 0.71266 -0.00376 0.0
C283 C 0.47518 0.69213 0.97113 0.0
H284 H 0.6955 0.51833 0.5862 0.0
H285 H 0.67883 0.46275 0.48209 0.0
H286 H 0.73191 0.51699 0.54611 0.0
H287 H 0.71503 0.4615 0.44234 0.0
H288 H 0.77327 0.48198 0.33382 0.0
H289 H 0.73725 0.48442 0.37586 0.0
H290 H 0.76442 0.49293 0.54679 0.0
H291 H 0.80032 0.49066 0.50511 0.0
C292 C 0.69963 0.50574 0.55521 0.0
C293 C 0.68425 0.49068 0.53731 0.0
C294 C 0.72046 0.50497 0.5323 0.0
C295 C 0.72621 0.48929 0.49058 0.0
C296 C 0.71096 0.47399 0.47366 0.0
C297 C 0.69027 0.4746 0.49696 0.0
C298 C 0.77156 0.48446 0.38029 0.0
C299 C 0.78968 0.48601 0.41605 0.0
C300 C 0.75095 0.48575 0.40441 0.0
C301 C 0.74805 0.48876 0.46467 0.0
C302 C 0.76615 0.49077 0.50019 0.0
C303 C 0.78672 0.48935 0.47622 0.0
H304 H 0.9737 0.3045 0.0055 0.0
H305 H -0.0021 0.28019 0.84122 0.0
H306 H 0.97371 0.26792 0.0447 0.0
H307 H -0.00201 0.24349 0.88086 0.0
H308 H 0.96976 0.17992 0.95139 0.0
H309 H 0.97093 0.21655 0.91288 0.0
H310 H -0.00054 0.23873 0.07283 0.0
H311 H -0.00177 0.20194 0.1118 0.0
C312 C 0.97904 0.29136 -0.02231 0.0
C313 C 0.98573 0.29527 0.92006 0.0
C314 C 0.97919 0.27041 0.0004 0.0
C315 C 0.98587 0.25283 0.96593 0.0
C316 C -0.00742 0.2567 0.90831 0.0
C317 C -0.0074 0.27772 0.88568 0.0
C318 C 0.97625 0.19258 -0.02145 0.0
C319 C 0.98387 0.18799 0.03481 0.0
C320 C 0.97707 0.21355 0.9562 0.0
C321 C 0.98537 0.2305 -0.01032 0.0
C322 C -0.00716 0.226 0.04614 0.0
C323 C -0.00781 0.20493 0.06839 0.0
H324 H 0.28235 0.02461 0.5789 0.0
H325 H 0.2943 0.96445 0.48815 0.0
H326 H 0.24543 0.02459 0.54498 0.0
H327 H 0.25749 0.9647 0.45308 0.0
H328 H 0.18382 0.96208 0.44992 0.0
H329 H 0.22072 0.96093 0.48421 0.0
H330 H 0.22589 0.02977 0.45564 0.0
H331 H 0.18882 0.03102 0.4229 0.0
C332 C 0.27709 0.01134 0.55187 0.0
C333 C 0.2913 -0.00545 0.53621 0.0
C334 C 0.25596 0.01143 0.53196 0.0
C335 C 0.24854 -0.00525 0.49581 0.0
C336 C 0.26262 0.97771 0.48121 0.0
C337 C 0.28376 0.9776 0.50122 0.0
C338 C 0.19288 0.97695 0.45053 0.0
C339 C 0.18334 -0.00333 0.43393 0.0
C340 C 0.21407 0.97627 0.47008 0.0
C341 C 0.22623 -0.00472 0.47316 0.0
C342 C 0.21684 0.0149 0.45502 0.0
C343 C 0.19563 0.01559 0.4358 0.0
H344 H 0.4469 0.19301 0.91667 0.0
H345 H 0.51475 0.18662 0.95081 0.0
H346 H 0.44785 0.23055 0.94943 0.0
H347 H 0.51557 0.22392 -0.01557 0.0
H348 H 0.51344 0.29771 -0.0169 0.0
H349 H 0.51213 0.2607 0.94711 0.0
H350 H 0.45274 0.25081 0.04049 0.0
H351 H 0.45382 0.28799 0.07584 0.0
C352 C 0.462 0.19959 0.93113 0.0
C353 C 0.48074 0.18681 0.93115 0.0
C354 C 0.46251 0.22105 0.95023 0.0
C355 C 0.48177 0.23018 0.96966 0.0
C356 C 0.50053 0.21745 0.96908 0.0
C357 C 0.50003 0.19603 0.95002 0.0
C358 C 0.5001 0.28765 -0.00392 0.0
C359 C 0.48375 0.29579 0.03246 0.0
C360 C 0.49941 0.26641 0.9756 0.0
C361 C 0.48233 0.25283 -0.00905 0.0
C362 C 0.46597 0.26096 0.02731 0.0
C363 C 0.46669 0.28221 0.04793 0.0
H364 H 0.30042 0.49953 0.50701 0.0
H365 H 0.27622 0.49239 0.33206 0.0
H366 H 0.264 0.49818 0.54523 0.0
H367 H 0.23973 0.49072 0.37061 0.0
H368 H 0.17706 0.51382 0.45547 0.0
H369 H 0.21353 0.51469 0.41777 0.0
H370 H 0.23429 0.47281 0.55746 0.0
H371 H 0.19773 0.47219 0.59598 0.0
C372 C 0.28733 0.49762 0.47665 0.0
C373 C 0.29123 0.49612 0.41639 0.0
C374 C 0.26647 0.49669 0.49868 0.0
C375 C 0.24899 0.49431 0.46099 0.0
C376 C 0.25286 0.49279 0.40073 0.0
C377 C 0.27377 0.49365 0.37866 0.0
C378 C 0.18937 0.50478 0.47828 0.0
C379 C 0.18447 0.49291 0.52879 0.0
C380 C 0.21027 0.50518 0.45637 0.0
C381 C 0.22678 0.49374 0.48442 0.0
C382 C 0.22193 0.48195 0.53514 0.0
C383 C 0.20098 0.48152 0.55708 0.0
H384 H 0.00597 0.58451 0.80885 0.0
H385 H 0.05343 0.61316 0.92052 0.0
H386 H 0.03386 0.57651 0.73656 0.0
H387 H 0.08149 0.6041 0.8493 0.0
H388 H 0.10108 0.52982 0.75384 0.0
H389 H 0.08472 0.55623 0.82035 0.0
H390 H 0.07043 0.59802 0.67508 0.0
H391 H 0.08753 0.57198 0.60892 0.0
C392 C 0.02222 0.58978 0.81687 0.0
C393 C 0.02759 0.59946 0.86992 0.0
C394 C 0.03813 0.58525 0.77568 0.0
C395 C 0.05969 0.58976 0.78777 0.0
C396 C 0.06492 0.60074 0.83903 0.0
C397 C 0.04886 0.60594 0.87947 0.0
C398 C 0.09573 0.54528 0.73684 0.0
C399 C 0.09569 0.54912 0.67675 0.0
C400 C 0.08633 0.56034 0.77468 0.0
C401 C 0.07637 0.57902 0.75242 0.0
C402 C 0.07825 0.58382 0.69302 0.0
C403 C 0.08807 0.56899 0.65539 0.0
H404 H 0.91249 0.06442 0.12316 0.0
H405 H 0.94106 0.1172 0.21731 0.0
H406 H 0.89512 0.05205 0.21228 0.0
H407 H 0.92371 0.10472 0.30685 0.0
H408 H 0.93299 0.04667 0.43638 0.0
H409 H 0.93709 0.0692 0.35129 0.0
H410 H 0.87127 0.05768 0.30404 0.0
H411 H 0.86686 0.03491 0.39092 0.0
C412 C 0.91439 0.07382 0.16258 0.0
C413 C 0.92845 0.09145 0.16385 0.0
C414 C 0.90433 0.06682 0.21349 0.0
C415 C 0.90846 0.07717 0.26653 0.0
C416 C 0.9205 0.09633 0.26644 0.0
C417 C 0.93034 0.10352 0.21525 0.0
C418 C 0.91924 0.0489 0.40833 0.0
C419 C 0.89961 0.03875 0.42034 0.0
C420 C 0.92155 0.06216 0.35991 0.0
C421 C 0.90439 0.06551 0.32167 0.0
C422 C 0.88468 0.05549 0.3333 0.0
C423 C 0.88223 0.04236 0.38264 0.0
H424 H 0.41999 0.87668 0.91106 0.0
H425 H 0.47941 0.89487 0.82866 0.0
H426 H 0.39997 0.89113 0.82805 0.0
H427 H 0.45964 0.9082 0.74442 0.0
H428 H 0.42251 0.96795 0.69222 0.0
H429 H 0.43927 0.94251 0.758 0.0
H430 H 0.39082 0.89522 0.7188 0.0
H431 H 0.37357 0.92127 0.65217 0.0
C432 C 0.42877 0.88262 0.87359 0.0
C433 C 0.45113 0.88496 0.87598 0.0
C434 C 0.41732 0.89092 0.82621 0.0
C435 C 0.42826 0.90138 0.78081 0.0
C436 C 0.45082 0.90073 0.77972 0.0
C437 C 0.46216 0.89293 0.8275 0.0
C438 C 0.41532 0.95217 0.69757 0.0
C439 C 0.39692 0.94647 0.66655 0.0
C440 C 0.42508 0.93748 0.73479 0.0
C441 C 0.41683 0.91658 0.74177 0.0
C442 C 0.3977 0.91112 0.71331 0.0
C443 C 0.38778 0.92603 0.67573 0.0
H444 H 0.52376 0.38049 0.269 0.0
H445 H 0.56829 0.38542 0.12563 0.0
H446 H 0.55026 0.3965 0.33395 0.0
H447 H 0.59446 0.40241 0.19005 0.0
H448 H 0.58349 0.47225 0.31087 0.0
H449 H 0.57458 0.44319 0.243 0.0
H450 H 0.59806 0.39585 0.36544 0.0
H451 H 0.60805 0.42496 0.43223 0.0
C452 C 0.53966 0.38386 0.25229 0.0
C453 C 0.5442 0.38157 0.1928 0.0
C454 C 0.55477 0.39308 0.28924 0.0
C455 C 0.57427 0.40066 0.26661 0.0
C456 C 0.57961 0.39643 0.20835 0.0
C457 C 0.56471 0.38664 0.17173 0.0
C458 C 0.5877 0.45573 0.32197 0.0
C459 C 0.59648 0.45082 0.37648 0.0
C460 C 0.58265 0.43914 0.28328 0.0
C461 C 0.58574 0.41742 0.29932 0.0
C462 C 0.59585 0.41252 0.35206 0.0
C463 C 0.60157 0.42918 0.39 0.0
H464 H 0.10834 0.94249 0.22621 0.0
H465 H 0.06647 0.91565 0.35717 0.0
H466 H 0.09273 0.91834 0.1533 0.0
H467 H 0.05121 0.89137 0.28503 0.0
H468 H 0.00489 0.90273 0.12266 0.0
H469 H 0.02773 0.90938 0.20643 0.0
H470 H 0.08122 0.87933 0.1168 0.0
H471 H 0.05792 0.87198 0.03323 0.0
C472 C 0.09652 0.93076 0.23981 0.0
C473 C 0.08818 0.93115 0.2966 0.0
C474 C 0.08764 0.9169 0.19829 0.0
C475 C 0.0705 0.90333 0.21359 0.0
C476 C 0.06419 0.90191 0.27211 0.0
C477 C 0.07286 0.91582 0.31321 0.0
C478 C 0.02129 0.89682 0.12188 0.0
C479 C 0.02968 0.88675 0.07212 0.0
C480 C 0.03438 0.90056 0.16971 0.0
C481 C 0.05624 0.89482 0.16796 0.0
C482 C 0.06441 0.88378 0.11919 0.0
C483 C 0.05108 0.87947 0.07179 0.0
H484 H 0.56879 0.09475 0.83004 0.0
H485 H 0.5258 0.10595 0.68663 0.0
H486 H 0.59396 0.07627 0.76445 0.0
H487 H 0.55131 0.08817 0.62069 0.0
H488 H 0.57103 0.01018 0.63025 0.0
H489 H 0.56333 0.03946 0.69874 0.0
H490 H 0.6055 0.08164 0.60331 0.0
H491 H 0.61389 0.05212 0.53535 0.0
C492 C 0.56549 0.09464 0.78375 0.0
C493 C 0.54553 0.10177 0.76296 0.0
C494 C 0.57984 0.08402 0.74643 0.0
C495 C 0.57443 0.08089 0.68796 0.0
C496 C 0.55584 0.09073 0.66564 0.0
C497 C 0.54131 0.10096 0.70317 0.0
C498 C 0.57936 0.02538 0.62523 0.0
C499 C 0.59295 0.02891 0.5774 0.0
C500 C 0.57496 0.04209 0.66427 0.0
C501 C 0.58383 0.06263 0.65566 0.0
C502 C 0.59866 0.06582 0.61066 0.0
C503 C 0.60346 0.04891 0.57214 0.0
H504 H 0.37011 0.53172 0.21048 0.0
H505 H 0.40069 0.56732 0.34801 0.0
H506 H 0.38636 0.55592 0.13824 0.0
H507 H 0.4169 0.59141 0.27629 0.0
H508 H 0.4206 0.60658 0.02452 0.0
H509 H 0.39464 0.59766 0.10143 0.0
H510 H 0.44611 0.57215 0.20667 0.0
H511 H 0.47179 0.58019 0.1291 0.0
C512 C 0.37934 0.54542 0.22525 0.0
C513 C 0.38429 0.54778 0.28434 0.0
C514 C 0.38865 0.55923 0.1841 0.0
C515 C 0.40305 0.5753 0.20201 0.0
C516 C 0.40593 0.57908 0.2616 0.0
C517 C 0.39664 0.56537 0.30249 0.0
C518 C 0.42637 0.59972 0.06499 0.0
C519 C 0.44814 0.59416 0.07146 0.0
C520 C 0.41153 0.59453 0.10858 0.0
C521 C 0.41845 0.58437 0.15981 0.0
C522 C 0.44045 0.58026 0.16778 0.0
C523 C 0.45513 0.58482 0.12359 0.0
H524 H 0.93899 0.37278 0.7307 0.0
H525 H 0.91168 0.41423 0.8632 0.0
H526 H 0.91485 0.38903 0.65848 0.0
H527 H 0.88752 0.4302 0.7917 0.0
H528 H 0.89988 0.47775 0.63019 0.0
H529 H 0.90674 0.45394 0.7127 0.0
H530 H 0.87502 0.40168 0.62405 0.0
H531 H 0.86743 0.42597 0.54177 0.0
C532 C 0.92713 0.38457 0.74482 0.0
C533 C 0.92736 0.39264 0.80187 0.0
C534 C 0.9133 0.39383 0.70367 0.0
C535 C 0.89965 0.41111 0.71962 0.0
C536 C 0.89807 0.41708 0.77835 0.0
C537 C 0.91189 0.40798 0.8191 0.0
C538 C 0.89369 0.46143 0.62933 0.0
C539 C 0.88304 0.45368 0.58017 0.0
C540 C 0.89756 0.4478 0.67644 0.0
C541 C 0.89135 0.426 0.6746 0.0
C542 C 0.87983 0.41845 0.62649 0.0
C543 C 0.8754 0.43235 0.57983 0.0
H544 H 0.94055 0.36312 0.07265 0.0
H545 H 0.96053 0.42981 0.0851 0.0
H546 H 0.91384 0.36972 0.15007 0.0
H547 H 0.93372 0.43622 0.16022 0.0
H548 H 0.86848 0.44813 0.23055 0.0
H549 H 0.88617 0.42921 0.14962 0.0
H550 H 0.92204 0.39035 0.27151 0.0
H551 H 0.90482 0.40962 0.3524 0.0
C552 C 0.93947 0.37903 0.09223 0.0
C553 C 0.95267 0.39595 0.07257 0.0
C554 C 0.92406 0.38279 0.13586 0.0
C555 C 0.9215 0.40358 0.15941 0.0
C556 C 0.93517 0.42018 0.14146 0.0
C557 C 0.95067 0.4164 0.0989 0.0
C558 C 0.87928 0.43479 0.23998 0.0
C559 C 0.88555 0.43043 0.29736 0.0
C560 C 0.88941 0.42401 0.19379 0.0
C561 C 0.90547 0.4085 0.20482 0.0
C562 C 0.90958 0.40216 0.26222 0.0
C563 C 0.8998 0.41321 0.30832 0.0
H564 H 0.03719 0.87118 0.72251 0.0
H565 H 0.07502 0.90688 0.84583 0.0
H566 H 0.05719 0.88781 0.64238 0.0
H567 H 0.09531 0.92303 0.7658 0.0
H568 H 0.12165 0.94105 0.56293 0.0
H569 H 0.11547 0.91356 0.6388 0.0
H570 H 0.0507 0.9371 0.66075 0.0
H571 H 0.05672 0.96464 0.58754 0.0
C572 C 0.0506 0.88155 0.7325 0.0
C573 C 0.05442 0.88811 0.78992 0.0
C574 C 0.06204 0.89101 0.68677 0.0
C575 C 0.07764 0.90669 0.69839 0.0
C576 C 0.08348 0.91083 0.75606 0.0
C577 C 0.07179 0.90172 0.80167 0.0
C578 C 0.10625 0.94061 0.58487 0.0
C579 C 0.08967 0.95505 0.56906 0.0
C580 C 0.1027 0.92475 0.62753 0.0
C581 C 0.08246 0.92303 0.65387 0.0
C582 C 0.06629 0.93792 0.63981 0.0
C583 C 0.06987 0.95384 0.59832 0.0
H584 H 0.60764 0.04494 0.25103 0.0
H585 H 0.54536 0.04979 0.33347 0.0
H586 H 0.59422 0.06597 0.16855 0.0
H587 H 0.53205 0.07066 0.25116 0.0
H588 H 0.51487 0.11252 0.09478 0.0
H589 H 0.53444 0.10413 0.18502 0.0
H590 H 0.56722 0.0516 0.09716 0.0
H591 H 0.54776 0.05966 0.00864 0.0
C592 C 0.59126 0.05089 0.25219 0.0
C593 C 0.57741 0.04526 0.29802 0.0
C594 C 0.5836 0.06293 0.20504 0.0
C595 C 0.56202 0.0697 0.20322 0.0
C596 C 0.54876 0.06574 0.25146 0.0
C597 C 0.55634 0.05356 0.2983 0.0
C598 C 0.52642 0.09934 0.09497 0.0
C599 C 0.52948 0.08644 0.04522 0.0
C600 C 0.53762 0.09459 0.14633 0.0
C601 C 0.55241 0.07727 0.14793 0.0
C602 C 0.55617 0.06521 0.09715 0.0
C603 C 0.54476 0.06964 0.04663 0.0
H604 H 0.42904 0.52739 0.55165 0.0
H605 H 0.36059 0.5324 0.58066 0.0
H606 H 0.43508 0.55316 0.62911 0.0
H607 H 0.367 0.55809 0.66057 0.0
H608 H 0.41113 0.5666 0.84505 0.0
H609 H 0.39179 0.55118 0.76285 0.0
H610 H 0.42301 0.59601 0.64689 0.0
H611 H 0.44204 0.61183 0.72937 0.0
C612 C 0.41524 0.53382 0.57486 0.0
C613 C 0.39431 0.52771 0.56009 0.0
C614 C 0.41874 0.54885 0.61865 0.0
C615 C 0.40146 0.55792 0.64952 0.0
C616 C 0.3805 0.5515 0.63641 0.0
C617 C 0.37691 0.53668 0.59133 0.0
C618 C 0.41313 0.57375 0.80231 0.0
C619 C 0.42834 0.59004 0.79301 0.0
C620 C 0.40196 0.56504 0.7555 0.0
C621 C 0.40621 0.57227 0.69886 0.0
C622 C 0.41955 0.59024 0.69045 0.0
C623 C 0.43042 0.59925 0.7375 0.0
H624 H 0.86271 0.04618 0.73291 0.0
H625 H 0.91313 0.04626 0.6037 0.0
H626 H 0.88448 0.06934 0.79566 0.0
H627 H 0.93467 0.06941 0.66542 0.0
H628 H 0.97468 0.06596 0.8381 0.0
H629 H 0.95196 0.05687 0.75626 0.0
H630 H 0.90506 0.10421 0.81339 0.0
H631 H 0.92816 0.11348 0.89574 0.0
C632 C 0.87816 0.05166 0.71736 0.0
C633 C 0.8866 0.04394 0.66456 0.0
C634 C 0.89057 0.06498 0.75297 0.0
C635 C 0.91144 0.07083 0.73575 0.0
C636 C 0.91885 0.06478 0.68029 0.0
C637 C 0.90658 0.0514 0.64518 0.0
C638 C 0.95986 0.07492 0.83211 0.0
C639 C 0.95313 0.09034 0.87317 0.0
C640 C 0.94684 0.06979 0.78514 0.0
C641 C 0.92665 0.07975 0.77866 0.0
C642 C 0.92049 0.09622 0.81762 0.0
C643 C 0.93378 0.10165 0.86429 0.0
H644 H 0.42301 0.95823 0.37615 0.0
H645 H 0.35504 0.94488 0.3783 0.0
H646 H 0.4286 0.92985 0.30483 0.0
H647 H 0.36085 0.91651 0.30437 0.0
H648 H 0.39856 0.90372 0.10743 0.0
H649 H 0.3802 0.92061 0.19011 0.0
H650 H 0.42099 0.88512 0.30798 0.0
H651 H 0.4391 0.86785 0.22535 0.0
C652 C 0.40918 0.94942 0.36103 0.0
C653 C 0.38854 0.95391 0.38296 0.0
C654 C 0.41247 0.93293 0.32075 0.0
C655 C 0.39522 0.92071 0.3005 0.0
C656 C 0.37441 0.92554 0.32037 0.0
C657 C 0.37111 0.94187 0.36202 0.0
C658 C 0.40278 0.89864 0.15109 0.0
C659 C 0.42045 0.88482 0.16025 0.0
C660 C 0.39224 0.90827 0.1983 0.0
C661 C 0.3995 0.90439 0.255 0.0
C662 C 0.4152 0.88834 0.2644 0.0
C663 C 0.4255 0.8784 0.21717 0.0
H664 H 0.54859 0.42445 0.94506 0.0
H665 H 0.51626 0.372 0.85867 0.0
H666 H 0.56785 0.43272 0.85591 0.0
H667 H 0.5356 0.38058 0.76807 0.0
H668 H 0.54658 0.43415 0.61888 0.0
H669 H 0.53303 0.41406 0.70226 0.0
H670 H 0.59505 0.41797 0.784 0.0
H671 H 0.60871 0.43822 0.70055 0.0
C672 C 0.54566 0.41461 0.90691 0.0
C673 C 0.53066 0.39781 0.90844 0.0
C674 C 0.55694 0.41917 0.85605 0.0
C675 C 0.55328 0.40724 0.80517 0.0
C676 C 0.5387 0.39 0.80684 0.0
C677 C 0.52764 0.38514 0.85843 0.0
C678 C 0.55747 0.43039 0.65411 0.0
C679 C 0.57858 0.43822 0.65378 0.0
C680 C 0.54974 0.41867 0.70158 0.0
C681 C 0.56293 0.41469 0.74978 0.0
C682 C 0.5845 0.42105 0.74754 0.0
C683 C 0.5923 0.43264 0.69981 0.0
H684 H 0.05128 0.54661 0.42591 0.0
H685 H 0.11186 0.52481 0.35396 0.0
H686 H 0.04509 0.56872 0.34057 0.0
H687 H 0.10534 0.54705 0.26684 0.0
H688 H 0.05674 0.5578 0.10385 0.0
H689 H 0.07626 0.54374 0.18744 0.0
H690 H 0.05961 0.60116 0.28513 0.0
H691 H 0.03995 0.61531 0.20134 0.0
C692 C 0.06331 0.54651 0.39173 0.0
C693 C 0.0819 0.53366 0.39621 0.0
C694 C 0.05991 0.55951 0.3432 0.0
C695 C 0.07485 0.5598 0.29741 0.0
C696 C 0.09364 0.54718 0.30184 0.0
C697 C 0.09728 0.53439 0.35133 0.0
C698 C 0.05773 0.56771 0.14264 0.0
C699 C 0.04631 0.58736 0.14676 0.0
C700 C 0.0691 0.55973 0.19029 0.0
C701 C 0.06907 0.57118 0.24298 0.0
C702 C 0.0596 0.5919 0.24508 0.0
C703 C 0.04838 0.59999 0.19716 0.0
H704 H 0.91794 0.54876 0.38126 0.0
H705 H 0.862 0.53182 0.28183 0.0
H706 H 0.92863 0.57407 0.30572 0.0
H707 H 0.87275 0.55726 0.20561 0.0
H708 H 0.94755 0.61744 0.16545 0.0
H709 H 0.92285 0.60631 0.24265 0.0
H710 H 0.90391 0.55151 0.13889 0.0
H711 H 0.92844 0.56259 0.06216 0.0
C712 C 0.90751 0.55104 0.34413 0.0
C713 C 0.8893 0.5381 0.3371 0.0
C714 C 0.91357 0.56566 0.30085 0.0
C715 C 0.90169 0.56747 0.24919 0.0
C716 C 0.88234 0.55605 0.24468 0.0
C717 C 0.8761 0.5416 0.28852 0.0
C718 C 0.93749 0.6035 0.15822 0.0
C719 C 0.94019 0.59069 0.10809 0.0
C720 C 0.92345 0.59705 0.20263 0.0
C721 C 0.91165 0.57785 0.19731 0.0
C722 C 0.91265 0.56643 0.14441 0.0
C723 C 0.92683 0.57272 0.10043 0.0
H724 H 0.91787 0.94783 0.58102 0.0
H725 H 0.85829 0.9483 0.67716 0.0
H726 H 0.93279 0.92142 0.64869 0.0
H727 H 0.87358 0.92216 0.74656 0.0
H728 H 0.95373 0.86951 0.77014 0.0
H729 H 0.92724 0.88182 0.69858 0.0
H730 H 0.908 0.93356 0.81396 0.0
H731 H 0.93481 0.92173 0.88449 0.0
C732 C 0.9077 0.94159 0.61543 0.0
C733 C 0.88691 0.94993 0.62375 0.0
C734 C 0.91623 0.92647 0.65413 0.0
C735 C 0.90431 0.91975 0.70274 0.0
C736 C 0.883 0.92701 0.70911 0.0
C737 C 0.87423 0.94182 0.66933 0.0
C738 C 0.94324 0.88296 0.78114 0.0
C739 C 0.94637 0.89476 0.83264 0.0
C740 C 0.92816 0.89003 0.74015 0.0
C741 C 0.91563 0.90861 0.75086 0.0
C742 C 0.91728 0.91904 0.80493 0.0
C743 C 0.93267 0.91232 0.84518 0.0
H744 H 0.52711 0.93111 0.10969 0.0
H745 H 0.53299 0.86329 0.15311 0.0
H746 H 0.55548 0.93953 0.17754 0.0
H747 H 0.56157 0.87205 0.2226 0.0
H748 H 0.61184 0.95182 0.27782 0.0
H749 H 0.59802 0.9292 0.1996 0.0
H750 H 0.55379 0.89969 0.31988 0.0
H751 H 0.56716 0.92266 0.39796 0.0
C752 C 0.53481 0.91788 0.13263 0.0
C753 C 0.52764 0.89652 0.12617 0.0
C754 C 0.55121 0.92273 0.17125 0.0
C755 C 0.56081 0.90641 0.20483 0.0
C756 C 0.55447 0.88487 0.19677 0.0
C757 C 0.53815 0.8799 0.15711 0.0
C758 C 0.59996 0.93974 0.28837 0.0
C759 C 0.59023 0.93933 0.34369 0.0
C760 C 0.59203 0.92682 0.24347 0.0
C761 C 0.57468 0.91297 0.25372 0.0
C762 C 0.56722 0.9102 0.31095 0.0
C763 C 0.57483 0.92342 0.3556 0.0
H764 H 0.56302 0.55673 0.5573 0.0
H765 H 0.61591 0.53448 0.66273 0.0
H766 H 0.55159 0.5809 0.63498 0.0
H767 H 0.60453 0.55893 0.74067 0.0
H768 H 0.54668 0.56196 0.87637 0.0
H769 H 0.57266 0.55271 0.80123 0.0
H770 H 0.55527 0.61044 0.70604 0.0
H771 H 0.52902 0.61969 0.7818 0.0
C772 C 0.57272 0.55762 0.59622 0.0
C773 C 0.59007 0.5433 0.60431 0.0
C774 C 0.56621 0.57161 0.64084 0.0
C775 C 0.57686 0.57152 0.69467 0.0
C776 C 0.59576 0.55909 0.70009 0.0
C777 C 0.60238 0.54518 0.65518 0.0
C778 C 0.54891 0.57309 0.84045 0.0
C779 C 0.53555 0.59136 0.83456 0.0
C780 C 0.56394 0.56786 0.79737 0.0
C781 C 0.56585 0.58066 0.74702 0.0
C782 C 0.55399 0.6001 0.74394 0.0
C783 C 0.53906 0.60548 0.78755 0.0
H784 H 0.06322 0.42901 0.56203 0.0
H785 H 0.11794 0.44654 0.66551 0.0
H786 H 0.05292 0.40248 0.63454 0.0
H787 H 0.10774 0.41967 0.73848 0.0
H788 H 0.02957 0.36258 0.77501 0.0
H789 H 0.05608 0.37141 0.6998 0.0
H790 H 0.07715 0.42555 0.80317 0.0
H791 H 0.05098 0.41665 0.87756 0.0
C792 C 0.07361 0.42647 0.59913 0.0
C793 C 0.0911 0.44016 0.60873 0.0
C794 C 0.06775 0.41114 0.64079 0.0
C795 C 0.0792 0.40929 0.69319 0.0
C796 C 0.09836 0.42098 0.69906 0.0
C797 C 0.10432 0.43626 0.657 0.0
C798 C 0.04054 0.37577 0.78262 0.0
C799 C 0.03801 0.38915 0.83164 0.0
C800 C 0.05562 0.38093 0.73937 0.0
C801 C 0.06853 0.39942 0.74487 0.0
C802 C 0.06764 0.41114 0.79731 0.0
C803 C 0.05249 0.40613 0.84 0.0
H804 H 0.04728 0.06432 0.06623 0.0
H805 H 0.02901 0.12053 0.16672 0.0
H806 H 0.07426 0.05506 0.13784 0.0
H807 H 0.05632 0.11131 0.23908 0.0
H808 H 0.11654 0.03408 0.27296 0.0
H809 H 0.10594 0.06031 0.19843 0.0
H810 H 0.05279 0.08093 0.30681 0.0
H811 H 0.06347 0.05503 0.38071 0.0
C812 C 0.04966 0.07519 0.1026 0.0
C813 C 0.03581 0.09292 0.11144 0.0
C814 C 0.06528 0.06997 0.14365 0.0
C815 C 0.06725 0.08223 0.19487 0.0
C816 C 0.05501 0.10138 0.20043 0.0
C817 C 0.03946 0.10675 0.15882 0.0
C818 C 0.10319 0.04492 0.28182 0.0
C819 C 0.09054 0.04223 0.33201 0.0
C820 C 0.09702 0.05984 0.23898 0.0
C821 C 0.07823 0.07239 0.24602 0.0
C822 C 0.06734 0.07161 0.29971 0.0
C823 C 0.07338 0.05661 0.3421 0.0
H824 H 0.3573 0.03528 0.66953 0.0
H825 H 0.40425 0.06483 0.55676 0.0
H826 H 0.36834 0.05885 0.74898 0.0
H827 H 0.41555 0.08795 0.63594 0.0
H828 H 0.42918 0.06235 0.87114 0.0
H829 H 0.40139 0.05396 0.8016 0.0
H830 H 0.4129 0.11448 0.71313 0.0
H831 H 0.44118 0.12273 0.78298 0.0
C832 C 0.36936 0.04739 0.66091 0.0
C833 C 0.38029 0.0478 0.60723 0.0
C834 C 0.37584 0.06078 0.70669 0.0
C835 C 0.39327 0.07489 0.69948 0.0
C836 C 0.40212 0.07731 0.64342 0.0
C837 C 0.39569 0.06391 0.59783 0.0
C838 C 0.4253 0.07424 0.83809 0.0
C839 C 0.43768 0.09298 0.83181 0.0
C840 C 0.40919 0.0695 0.79822 0.0
C841 C 0.40513 0.08334 0.75086 0.0
C842 C 0.41588 0.10328 0.74849 0.0
C843 C 0.43198 0.1081 0.7888 0.0
H844 H 0.42749 0.41878 0.07183 0.0
H845 H 0.44184 0.35971 0.16445 0.0
H846 H 0.39925 0.42718 0.14133 0.0
H847 H 0.41333 0.36809 0.23449 0.0
H848 H 0.35704 0.44777 0.27624 0.0
H849 H 0.36643 0.42174 0.19987 0.0
H850 H 0.41817 0.39732 0.30628 0.0
H851 H 0.40879 0.42318 0.38182 0.0
C852 C 0.42398 0.40712 0.10571 0.0
C853 C 0.43721 0.38888 0.11357 0.0
C854 C 0.40763 0.41185 0.1455 0.0
C855 C 0.40432 0.39852 0.19429 0.0
C856 C 0.41572 0.37883 0.19779 0.0
C857 C 0.43199 0.37398 0.1575 0.0
C858 C 0.36971 0.43608 0.28438 0.0
C859 C 0.38249 0.43773 0.33435 0.0
C860 C 0.37519 0.42127 0.24047 0.0
C861 C 0.39335 0.40779 0.24638 0.0
C862 C 0.40408 0.4074 0.30008 0.0
C863 C 0.39878 0.42233 0.34348 0.0
loop_
_geom_bond_atom_site_label_1
_geom_bond_atom_site_label_2
_geom_bond_distance
_geom_bond_site_symmetry_2
_ccdc_geom_bond_type
Zn0 O3 2.031 1_455 S
Zn0 O5 2.036 1_554 S
Zn0 O10 2.067 . S
Zn1 O2 1.962 1_455 S
Zn1 O4 1.986 . S
Zn1 O6 1.996 . S
Zn1 O9 1.943 . S
O2 Zn1 1.962 1_655 S
O2 C7 1.254 . S
O3 Zn0 2.031 1_655 S
O3 C7 1.269 . S
O4 Zn1 1.986 . S
O4 C11 1.262 . S
O5 Zn0 2.036 1_556 S
O5 C13 1.266 . S
O6 Zn1 1.996 . S
O6 C13 1.257 1_554 S
C7 O2 1.254 . S
C7 O3 1.269 . S
C8 O9 1.249 . S
C8 O10 1.270 . S
O9 Zn1 1.943 . S
O9 C8 1.249 . S
O10 Zn0 2.067 . S
O10 C8 1.270 . S
C11 O4 1.262 . S
C11 O12 1.232 . S
O12 C11 1.232 . S
C13 O5 1.266 . S
C13 O6 1.257 1_556 S
Zn14 O17 2.031 1_545 S
Zn14 O19 2.049 . S
Zn14 O24 2.067 . S
Zn15 O16 1.962 1_545 S
Zn15 O18 1.986 . S
Zn15 O20 1.996 . S
Zn15 O23 1.943 . S
O16 Zn15 1.962 1_565 S
O16 C21 1.254 . S
O17 Zn14 2.031 1_565 S
O17 C21 1.269 . S
O18 Zn15 1.986 . S
O18 C25 1.262 . S
O19 Zn14 2.049 . S
O19 C27 1.260 . S
O20 Zn15 1.996 . S
O20 C27 1.257 . S
C21 O16 1.254 . S
C21 O17 1.269 . S
C22 O23 1.249 . S
C22 O24 1.270 . S
O23 Zn15 1.943 . S
O23 C22 1.249 . S
O24 Zn14 2.067 . S
O24 C22 1.270 . S
C25 O18 1.262 . S
C25 O26 1.232 . S
O26 C25 1.232 . S
C27 O19 1.260 . S
C27 O20 1.257 . S
Zn28 O31 2.031 . S
Zn28 O33 2.036 1_554 S
Zn28 O38 2.067 . S
Zn29 O30 1.962 . S
Zn29 O32 1.986 . S
Zn29 O34 1.996 . S
Zn29 O37 1.943 . S
O30 Zn29 1.962 . S
O30 C35 1.254 . S
O31 Zn28 2.031 . S
O31 C35 1.269 . S
O32 Zn29 1.986 . S
O32 C39 1.262 . S
O33 Zn28 2.036 1_556 S
O33 C41 1.266 . S
O34 Zn29 1.996 . S
O34 C41 1.257 1_554 S
C35 O30 1.254 . S
C35 O31 1.269 . S
C36 O37 1.249 . S
C36 O38 1.270 . S
O37 Zn29 1.943 . S
O37 C36 1.249 . S
O38 Zn28 2.067 . S
O38 C36 1.270 . S
C39 O32 1.262 . S
C39 O40 1.232 . S
O40 C39 1.232 . S
C41 O33 1.266 . S
C41 O34 1.257 1_556 S
Zn42 O45 2.031 . S
Zn42 O47 2.049 . S
Zn42 O52 2.067 . S
Zn43 O44 1.962 . S
Zn43 O46 1.986 . S
Zn43 O48 1.996 . S
Zn43 O51 1.943 . S
O44 Zn43 1.962 . S
O44 C49 1.254 . S
O45 Zn42 2.031 . S
O45 C49 1.269 . S
O46 Zn43 1.986 . S
O46 C53 1.262 . S
O47 Zn42 2.049 . S
O47 C55 1.260 . S
O48 Zn43 1.996 . S
O48 C55 1.257 . S
C49 O44 1.254 . S
C49 O45 1.269 . S
C50 O51 1.249 . S
C50 O52 1.270 . S
O51 Zn43 1.943 . S
O51 C50 1.249 . S
O52 Zn42 2.067 . S
O52 C50 1.270 . S
C53 O46 1.262 . S
C53 O54 1.232 . S
O54 C53 1.232 . S
C55 O47 1.260 . S
C55 O48 1.257 . S
Zn56 O59 2.031 1_455 S
Zn56 O61 2.037 1_556 S
Zn56 O66 2.067 . S
Zn57 O58 1.962 1_455 S
Zn57 O60 1.986 . S
Zn57 O62 1.996 . S
Zn57 O65 1.943 . S
O58 Zn57 1.962 1_655 S
O58 C63 1.254 . S
O59 Zn56 2.031 1_655 S
O59 C63 1.269 . S
O60 Zn57 1.986 . S
O60 C67 1.262 . S
O61 Zn56 2.037 1_554 S
O61 C69 1.265 . S
O62 Zn57 1.996 . S
O62 C69 1.257 1_556 S
C63 O58 1.254 . S
C63 O59 1.269 . S
C64 O65 1.249 . S
C64 O66 1.270 . S
O65 Zn57 1.943 . S
O65 C64 1.249 . S
O66 Zn56 2.067 . S
O66 C64 1.270 . S
C67 O60 1.262 . S
C67 O68 1.232 . S
O68 C67 1.232 . S
C69 O61 1.265 . S
C69 O62 1.257 1_554 S
Zn70 O73 2.031 1_545 S
Zn70 O75 2.049 . S
Zn70 O80 2.067 . S
Zn71 O72 1.962 1_545 S
Zn71 O74 1.986 . S
Zn71 O76 1.996 . S
Zn71 O79 1.943 . S
O72 Zn71 1.962 1_565 S
O72 C77 1.254 . S
O73 Zn70 2.031 1_565 S
O73 C77 1.269 . S
O74 Zn71 1.986 . S
O74 C81 1.262 . S
O75 Zn70 2.049 . S
O75 C83 1.260 . S
O76 Zn71 1.996 . S
O76 C83 1.257 . S
C77 O72 1.254 . S
C77 O73 1.269 . S
C78 O79 1.249 . S
C78 O80 1.270 . S
O79 Zn71 1.943 . S
O79 C78 1.249 . S
O80 Zn70 2.067 . S
O80 C78 1.270 . S
C81 O74 1.262 . S
C81 O82 1.232 . S
O82 C81 1.232 . S
C83 O75 1.260 . S
C83 O76 1.257 . S
Zn84 O87 2.031 . S
Zn84 O89 2.036 1_556 S
Zn84 O94 2.067 . S
Zn85 O86 1.962 . S
Zn85 O88 1.986 . S
Zn85 O90 1.996 . S
Zn85 O93 1.943 . S
O86 Zn85 1.962 . S
O86 C91 1.254 . S
O87 Zn84 2.031 . S
O87 C91 1.269 . S
O88 Zn85 1.986 . S
O88 C95 1.262 . S
O89 Zn84 2.036 1_554 S
O89 C97 1.266 . S
O90 Zn85 1.996 . S
O90 C97 1.257 1_556 S
C91 O86 1.254 . S
C91 O87 1.269 . S
C92 O93 1.249 . S
C92 O94 1.270 . S
O93 Zn85 1.943 . S
O93 C92 1.249 . S
O94 Zn84 2.067 . S
O94 C92 1.270 . S
C95 O88 1.262 . S
C95 O96 1.232 . S
O96 C95 1.232 . S
C97 O89 1.266 . S
C97 O90 1.257 1_554 S
Zn98 O101 2.031 . S
Zn98 O103 2.049 . S
Zn98 O108 2.067 . S
Zn99 O100 1.962 . S
Zn99 O102 1.986 . S
Zn99 O104 1.996 . S
Zn99 O107 1.943 . S
O100 Zn99 1.962 . S
O100 C105 1.254 . S
O101 Zn98 2.031 . S
O101 C105 1.269 . S
O102 Zn99 1.986 . S
O102 C109 1.262 . S
O103 Zn98 2.049 . S
O103 C111 1.260 . S
O104 Zn99 1.996 . S
O104 C111 1.257 . S
C105 O100 1.254 . S
C105 O101 1.269 . S
C106 O107 1.249 . S
C106 O108 1.270 . S
O107 Zn99 1.943 . S
O107 C106 1.249 . S
O108 Zn98 2.067 . S
O108 C106 1.270 . S
C109 O102 1.262 . S
C109 O110 1.232 . S
O110 C109 1.232 . S
C111 O103 1.260 . S
C111 O104 1.257 . S
Zn112 O115 2.031 1_655 S
Zn112 O117 2.036 1_556 S
Zn112 O122 2.067 . S
Zn113 O114 1.962 1_655 S
Zn113 O116 1.986 . S
Zn113 O118 1.996 . S
Zn113 O121 1.943 . S
O114 Zn113 1.962 1_455 S
O114 C119 1.254 . S
O115 Zn112 2.031 1_455 S
O115 C119 1.269 . S
O116 Zn113 1.986 . S
O116 C123 1.262 . S
O117 Zn112 2.036 1_554 S
O117 C125 1.266 . S
O118 Zn113 1.996 . S
O118 C125 1.257 1_556 S
C119 O114 1.254 . S
C119 O115 1.269 . S
C120 O121 1.249 . S
C120 O122 1.270 . S
O121 Zn113 1.943 . S
O121 C120 1.249 . S
O122 Zn112 2.067 . S
O122 C120 1.270 . S
C123 O116 1.262 . S
C123 O124 1.232 . S
O124 C123 1.232 . S
C125 O117 1.266 . S
C125 O118 1.257 1_554 S
Zn126 O129 2.031 1_565 S
Zn126 O131 2.049 . S
Zn126 O136 2.067 . S
Zn127 O128 1.962 1_565 S
Zn127 O130 1.986 . S
Zn127 O132 1.996 . S
Zn127 O135 1.943 . S
O128 Zn127 1.962 1_545 S
O128 C133 1.254 . S
O129 Zn126 2.031 1_545 S
O129 C133 1.269 . S
O130 Zn127 1.986 . S
O130 C137 1.262 . S
O131 Zn126 2.049 . S
O131 C139 1.260 . S
O132 Zn127 1.996 . S
O132 C139 1.257 . S
C133 O128 1.254 . S
C133 O129 1.269 . S
C134 O135 1.249 . S
C134 O136 1.270 . S
O135 Zn127 1.943 . S
O135 C134 1.249 . S
O136 Zn126 2.067 . S
O136 C134 1.270 . S
C137 O130 1.262 . S
C137 O138 1.232 . S
O138 C137 1.232 . S
C139 O131 1.260 . S
C139 O132 1.257 . S
Zn140 O143 2.031 . S
Zn140 O145 2.036 1_556 S
Zn140 O150 2.067 . S
Zn141 O142 1.962 . S
Zn141 O144 1.986 . S
Zn141 O146 1.996 . S
Zn141 O149 1.943 . S
O142 Zn141 1.962 . S
O142 C147 1.254 . S
O143 Zn140 2.031 . S
O143 C147 1.269 . S
O144 Zn141 1.986 . S
O144 C151 1.262 . S
O145 Zn140 2.036 1_554 S
O145 C153 1.266 . S
O146 Zn141 1.996 . S
O146 C153 1.257 1_556 S
C147 O142 1.254 . S
C147 O143 1.269 . S
C148 O149 1.249 . S
C148 O150 1.270 . S
O149 Zn141 1.943 . S
O149 C148 1.249 . S
O150 Zn140 2.067 . S
O150 C148 1.270 . S
C151 O144 1.262 . S
C151 O152 1.232 . S
O152 C151 1.232 . S
C153 O145 1.266 . S
C153 O146 1.257 1_554 S
Zn154 O157 2.031 . S
Zn154 O159 2.049 . S
Zn154 O164 2.067 . S
Zn155 O156 1.962 . S
Zn155 O158 1.986 . S
Zn155 O160 1.996 . S
Zn155 O163 1.943 . S
O156 Zn155 1.962 . S
O156 C161 1.254 . S
O157 Zn154 2.031 . S
O157 C161 1.269 . S
O158 Zn155 1.986 . S
O158 C165 1.262 . S
O159 Zn154 2.049 . S
O159 C167 1.260 . S
O160 Zn155 1.996 . S
O160 C167 1.257 . S
C161 O156 1.254 . S
C161 O157 1.269 . S
C162 O163 1.249 . S
C162 O164 1.270 . S
O163 Zn155 1.943 . S
O163 C162 1.249 . S
O164 Zn154 2.067 . S
O164 C162 1.270 . S
C165 O158 1.262 . S
C165 O166 1.232 . S
O166 C165 1.232 . S
C167 O159 1.260 . S
C167 O160 1.257 . S
Zn168 O171 2.031 1_655 S
Zn168 O173 2.037 1_554 S
Zn168 O178 2.067 . S
Zn169 O170 1.962 1_655 S
Zn169 O172 1.986 . S
Zn169 O174 1.996 . S
Zn169 O177 1.943 . S
O170 Zn169 1.962 1_455 S
O170 C175 1.254 . S
O171 Zn168 2.031 1_455 S
O171 C175 1.269 . S
O172 Zn169 1.986 . S
O172 C179 1.262 . S
O173 Zn168 2.037 1_556 S
O173 C181 1.265 . S
O174 Zn169 1.996 . S
O174 C181 1.257 1_554 S
C175 O170 1.254 . S
C175 O171 1.269 . S
C176 O177 1.249 . S
C176 O178 1.270 . S
O177 Zn169 1.943 . S
O177 C176 1.249 . S
O178 Zn168 2.067 . S
O178 C176 1.270 . S
C179 O172 1.262 . S
C179 O180 1.232 . S
O180 C179 1.232 . S
C181 O173 1.265 . S
C181 O174 1.257 1_556 S
Zn182 O185 2.031 1_565 S
Zn182 O187 2.049 . S
Zn182 O192 2.067 . S
Zn183 O184 1.962 1_565 S
Zn183 O186 1.986 . S
Zn183 O188 1.996 . S
Zn183 O191 1.943 . S
O184 Zn183 1.962 1_545 S
O184 C189 1.254 . S
O185 Zn182 2.031 1_545 S
O185 C189 1.269 . S
O186 Zn183 1.986 . S
O186 C193 1.262 . S
O187 Zn182 2.049 . S
O187 C195 1.260 . S
O188 Zn183 1.996 . S
O188 C195 1.257 . S
C189 O184 1.254 . S
C189 O185 1.269 . S
C190 O191 1.249 . S
C190 O192 1.270 . S
O191 Zn183 1.943 . S
O191 C190 1.249 . S
O192 Zn182 2.067 . S
O192 C190 1.270 . S
C193 O186 1.262 . S
C193 O194 1.232 . S
O194 C193 1.232 . S
C195 O187 1.260 . S
C195 O188 1.257 . S
Zn196 O199 2.031 . S
Zn196 O201 2.036 1_554 S
Zn196 O206 2.067 . S
Zn197 O198 1.962 . S
Zn197 O200 1.986 . S
Zn197 O202 1.996 . S
Zn197 O205 1.943 . S
O198 Zn197 1.962 . S
O198 C203 1.254 . S
O199 Zn196 2.031 . S
O199 C203 1.269 . S
O200 Zn197 1.986 . S
O200 C207 1.262 . S
O201 Zn196 2.036 1_556 S
O201 C209 1.266 . S
O202 Zn197 1.996 . S
O202 C209 1.257 1_554 S
C203 O198 1.254 . S
C203 O199 1.269 . S
C204 O205 1.249 . S
C204 O206 1.270 . S
O205 Zn197 1.943 . S
O205 C204 1.249 . S
O206 Zn196 2.067 . S
O206 C204 1.270 . S
C207 O200 1.262 . S
C207 O208 1.232 . S
O208 C207 1.232 . S
C209 O201 1.266 . S
C209 O202 1.257 1_556 S
Zn210 O213 2.031 . S
Zn210 O215 2.049 . S
Zn210 O220 2.067 . S
Zn211 O212 1.962 . S
Zn211 O214 1.986 . S
Zn211 O216 1.996 . S
Zn211 O219 1.943 . S
O212 Zn211 1.962 . S
O212 C217 1.254 . S
O213 Zn210 2.031 . S
O213 C217 1.269 . S
O214 Zn211 1.986 . S
O214 C221 1.262 . S
O215 Zn210 2.049 . S
O215 C223 1.260 . S
O216 Zn211 1.996 . S
O216 C223 1.257 . S
C217 O212 1.254 . S
C217 O213 1.269 . S
C218 O219 1.249 . S
C218 O220 1.270 . S
O219 Zn211 1.943 . S
O219 C218 1.249 . S
O220 Zn210 2.067 . S
O220 C218 1.270 . S
C221 O214 1.262 . S
C221 O222 1.232 . S
O222 C221 1.232 . S
C223 O215 1.260 . S
C223 O216 1.257 . S
H224 C232 0.950 . S
H225 C237 0.950 . S
H226 C234 0.950 . S
H227 C236 0.950 . S
H228 C238 0.950 . S
H229 C240 0.950 . S
H230 C242 0.950 . S
H231 C243 0.950 . S
C232 H224 0.950 . S
C232 C233 1.386 . S
C232 C234 1.391 . S
C233 C232 1.386 . S
C233 C237 1.393 1_554 S
C234 H226 0.950 . S
C234 C232 1.391 . S
C234 C235 1.400 . S
C235 C234 1.400 . S
C235 C236 1.398 1_554 S
C235 C241 1.491 1_554 S
C236 H227 0.950 . S
C236 C235 1.398 1_556 S
C236 C237 1.391 . S
C237 H225 0.950 . S
C237 C233 1.393 1_556 S
C237 C236 1.391 . S
C238 H228 0.950 . S
C238 C239 1.386 . S
C238 C240 1.391 . S
C239 C238 1.386 . S
C239 C243 1.393 1_556 S
C240 H229 0.950 . S
C240 C238 1.391 . S
C240 C241 1.400 . S
C241 C235 1.491 1_556 S
C241 C240 1.400 . S
C241 C242 1.398 1_556 S
C242 H230 0.950 . S
C242 C241 1.398 1_554 S
C242 C243 1.391 . S
C243 H231 0.950 . S
C243 C239 1.393 1_554 S
C243 C242 1.391 . S
H244 C252 0.950 . S
H245 C257 0.948 . S
H246 C254 0.950 . S
H247 C256 0.948 1_565 S
H248 C258 0.950 . S
H249 C260 0.950 . S
H250 C262 0.950 . S
H251 C263 0.950 . S
C252 H244 0.950 . S
C252 C253 1.386 . S
C252 C254 1.391 . S
C253 C252 1.386 . S
C253 C257 1.394 1_545 S
C254 H246 0.950 . S
C254 C252 1.391 . S
C254 C255 1.400 . S
C255 C254 1.400 . S
C255 C256 1.401 . S
C255 C261 1.491 . S
C256 H247 0.948 1_545 S
C256 C255 1.401 . S
C256 C257 1.391 1_545 S
C257 H245 0.948 . S
C257 C253 1.394 1_565 S
C257 C256 1.391 1_565 S
C258 H248 0.950 . S
C258 C259 1.386 1_565 S
C258 C260 1.391 . S
C259 C258 1.386 1_545 S
C259 C263 1.393 . S
C260 H249 0.950 . S
C260 C258 1.391 . S
C260 C261 1.400 1_565 S
C261 C255 1.491 . S
C261 C260 1.400 1_545 S
C261 C262 1.398 . S
C262 H250 0.950 . S
C262 C261 1.398 . S
C262 C263 1.391 . S
C263 H251 0.950 . S
C263 C259 1.393 . S
C263 C262 1.391 . S
H264 C272 0.950 . S
H265 C277 0.950 . S
H266 C274 0.950 . S
H267 C276 0.950 . S
H268 C278 0.950 . S
H269 C280 0.950 . S
H270 C282 0.950 . S
H271 C283 0.950 . S
C272 H264 0.950 . S
C272 C273 1.386 . S
C272 C274 1.391 . S
C273 C272 1.386 . S
C273 C277 1.393 1_554 S
C274 H266 0.950 . S
C274 C272 1.391 . S
C274 C275 1.400 . S
C275 C274 1.400 . S
C275 C276 1.398 1_554 S
C275 C281 1.491 1_554 S
C276 H267 0.950 . S
C276 C275 1.398 1_556 S
C276 C277 1.391 . S
C277 H265 0.950 . S
C277 C273 1.393 1_556 S
C277 C276 1.391 . S
C278 H268 0.950 . S
C278 C279 1.386 . S
C278 C280 1.391 . S
C279 C278 1.386 . S
C279 C283 1.393 1_556 S
C280 H269 0.950 . S
C280 C278 1.391 . S
C280 C281 1.400 . S
C281 C275 1.491 1_556 S
C281 C280 1.400 . S
C281 C282 1.398 1_556 S
C282 H270 0.950 . S
C282 C281 1.398 1_554 S
C282 C283 1.391 . S
C283 H271 0.950 . S
C283 C279 1.393 1_554 S
C283 C282 1.391 . S
H284 C292 0.950 . S
H285 C297 0.950 . S
H286 C294 0.950 . S
H287 C296 0.950 . S
H288 C298 0.950 . S
H289 C300 0.950 . S
H290 C302 0.950 . S
H291 C303 0.950 . S
C292 H284 0.950 . S
C292 C293 1.386 . S
C292 C294 1.391 . S
C293 C292 1.386 . S
C293 C297 1.393 . S
C294 H286 0.950 . S
C294 C292 1.391 . S
C294 C295 1.400 . S
C295 C294 1.400 . S
C295 C296 1.398 . S
C295 C301 1.491 . S
C296 H287 0.950 . S
C296 C295 1.398 . S
C296 C297 1.391 . S
C297 H285 0.950 . S
C297 C293 1.393 . S
C297 C296 1.391 . S
C298 H288 0.950 . S
C298 C299 1.386 . S
C298 C300 1.391 . S
C299 C298 1.386 . S
C299 C303 1.393 . S
C300 H289 0.950 . S
C300 C298 1.391 . S
C300 C301 1.400 . S
C301 C295 1.491 . S
C301 C300 1.400 . S
C301 C302 1.398 . S
C302 H290 0.950 . S
C302 C301 1.398 . S
C302 C303 1.391 . S
C303 H291 0.950 . S
C303 C299 1.393 . S
C303 C302 1.391 . S
H304 C312 0.950 . S
H305 C317 0.950 . S
H306 C314 0.950 . S
H307 C316 0.950 . S
H308 C318 0.950 . S
H309 C320 0.950 . S
H310 C322 0.950 . S
H311 C323 0.950 . S
C312 H304 0.950 . S
C312 C313 1.386 1_554 S
C312 C314 1.391 . S
C313 C312 1.386 1_556 S
C313 C317 1.393 . S
C314 H306 0.950 . S
C314 C312 1.391 . S
C314 C315 1.400 1_554 S
C315 C314 1.400 1_556 S
C315 C316 1.398 . S
C315 C321 1.491 1_556 S
C316 H307 0.950 . S
C316 C315 1.398 . S
C316 C317 1.391 . S
C317 H305 0.950 . S
C317 C313 1.393 . S
C317 C316 1.391 . S
C318 H308 0.950 . S
C318 C319 1.386 1_556 S
C318 C320 1.391 . S
C319 C318 1.386 1_554 S
C319 C323 1.393 . S
C320 H309 0.950 . S
C320 C318 1.391 . S
C320 C321 1.400 1_556 S
C321 C315 1.491 1_554 S
C321 C320 1.400 1_554 S
C321 C322 1.398 . S
C322 H310 0.950 . S
C322 C321 1.398 . S
C322 C323 1.391 . S
C323 H311 0.950 . S
C323 C319 1.393 . S
C323 C322 1.391 . S
H324 C332 0.950 . S
H325 C337 0.950 . S
H326 C334 0.950 . S
H327 C336 0.950 . S
H328 C338 0.950 . S
H329 C340 0.950 . S
H330 C342 0.950 . S
H331 C343 0.950 . S
C332 H324 0.950 . S
C332 C333 1.386 1_545 S
C332 C334 1.391 . S
C333 C332 1.386 1_565 S
C333 C337 1.393 . S
C334 H326 0.950 . S
C334 C332 1.391 . S
C334 C335 1.400 1_545 S
C335 C334 1.400 1_565 S
C335 C336 1.398 . S
C335 C341 1.491 . S
C336 H327 0.950 . S
C336 C335 1.398 . S
C336 C337 1.391 . S
C337 H325 0.950 . S
C337 C333 1.393 . S
C337 C336 1.391 . S
C338 H328 0.950 . S
C338 C339 1.386 . S
C338 C340 1.391 . S
C339 C338 1.386 . S
C339 C343 1.393 1_565 S
C340 H329 0.950 . S
C340 C338 1.391 . S
C340 C341 1.400 . S
C341 C335 1.491 . S
C341 C340 1.400 . S
C341 C342 1.398 1_565 S
C342 H330 0.950 . S
C342 C341 1.398 1_545 S
C342 C343 1.391 . S
C343 H331 0.950 . S
C343 C339 1.393 1_545 S
C343 C342 1.391 . S
H344 C352 0.950 . S
H345 C357 0.950 . S
H346 C354 0.951 . S
H347 C356 0.950 . S
H348 C358 0.950 . S
H349 C360 0.951 . S
H350 C362 0.950 . S
H351 C363 0.950 . S
C352 H344 0.950 . S
C352 C353 1.386 . S
C352 C354 1.391 . S
C353 C352 1.386 . S
C353 C357 1.393 . S
C354 H346 0.951 . S
C354 C352 1.391 . S
C354 C355 1.400 . S
C355 C354 1.400 . S
C355 C356 1.398 . S
C355 C361 1.491 1_556 S
C356 H347 0.950 . S
C356 C355 1.398 . S
C356 C357 1.391 . S
C357 H345 0.950 . S
C357 C353 1.393 . S
C357 C356 1.391 . S
C358 H348 0.950 . S
C358 C359 1.386 . S
C358 C360 1.391 . S
C359 C358 1.386 . S
C359 C363 1.393 . S
C360 H349 0.951 . S
C360 C358 1.391 . S
C360 C361 1.400 . S
C361 C355 1.491 1_554 S
C361 C360 1.400 . S
C361 C362 1.398 . S
C362 H350 0.950 . S
C362 C361 1.398 . S
C362 C363 1.391 . S
C363 H351 0.950 . S
C363 C359 1.393 . S
C363 C362 1.391 . S
H364 C372 0.950 . S
H365 C377 0.950 . S
H366 C374 0.950 . S
H367 C376 0.950 . S
H368 C378 0.950 . S
H369 C380 0.950 . S
H370 C382 0.950 . S
H371 C383 0.950 . S
C372 H364 0.950 . S
C372 C373 1.386 . S
C372 C374 1.391 . S
C373 C372 1.386 . S
C373 C377 1.393 . S
C374 H366 0.950 . S
C374 C372 1.391 . S
C374 C375 1.400 . S
C375 C374 1.400 . S
C375 C376 1.398 . S
C375 C381 1.491 . S
C376 H367 0.950 . S
C376 C375 1.398 . S
C376 C377 1.391 . S
C377 H365 0.950 . S
C377 C373 1.393 . S
C377 C376 1.391 . S
C378 H368 0.950 . S
C378 C379 1.386 . S
C378 C380 1.391 . S
C379 C378 1.386 . S
C379 C383 1.393 . S
C380 H369 0.950 . S
C380 C378 1.391 . S
C380 C381 1.400 . S
C381 C375 1.491 . S
C381 C380 1.400 . S
C381 C382 1.398 . S
C382 H370 0.950 . S
C382 C381 1.398 . S
C382 C383 1.391 . S
C383 H371 0.950 . S
C383 C379 1.393 . S
C383 C382 1.391 . S
H384 C392 0.950 . S
H385 C397 0.950 . S
H386 C394 0.950 . S
H387 C396 0.950 . S
H388 C398 0.950 . S
H389 C400 0.950 . S
H390 C402 0.950 . S
H391 C403 0.950 . S
C392 H384 0.950 . S
C392 C393 1.386 . S
C392 C394 1.391 . S
C393 C392 1.386 . S
C393 C397 1.393 . S
C394 H386 0.950 . S
C394 C392 1.391 . S
C394 C395 1.400 . S
C395 C394 1.400 . S
C395 C396 1.398 . S
C395 C401 1.491 . S
C396 H387 0.950 . S
C396 C395 1.398 . S
C396 C397 1.391 . S
C397 H385 0.950 . S
C397 C393 1.393 . S
C397 C396 1.391 . S
C398 H388 0.950 . S
C398 C399 1.386 . S
C398 C400 1.391 . S
C399 C398 1.386 . S
C399 C403 1.393 . S
C400 H389 0.950 . S
C400 C398 1.391 . S
C400 C401 1.400 . S
C401 C395 1.491 . S
C401 C400 1.400 . S
C401 C402 1.398 . S
C402 H390 0.950 . S
C402 C401 1.398 . S
C402 C403 1.391 . S
C403 H391 0.950 . S
C403 C399 1.393 . S
C403 C402 1.391 . S
H404 C412 0.950 . S
H405 C417 0.950 . S
H406 C414 0.950 . S
H407 C416 0.950 . S
H408 C418 0.950 . S
H409 C420 0.950 . S
H410 C422 0.950 . S
H411 C423 0.950 . S
C412 H404 0.950 . S
C412 C413 1.386 . S
C412 C414 1.391 . S
C413 C412 1.386 . S
C413 C417 1.393 . S
C414 H406 0.950 . S
C414 C412 1.391 . S
C414 C415 1.400 . S
C415 C414 1.400 . S
C415 C416 1.398 . S
C415 C421 1.491 . S
C416 H407 0.950 . S
C416 C415 1.398 . S
C416 C417 1.391 . S
C417 H405 0.950 . S
C417 C413 1.393 . S
C417 C416 1.391 . S
C418 H408 0.950 . S
C418 C419 1.386 . S
C418 C420 1.391 . S
C419 C418 1.386 . S
C419 C423 1.393 . S
C420 H409 0.950 . S
C420 C418 1.391 . S
C420 C421 1.400 . S
C421 C415 1.491 . S
C421 C420 1.400 . S
C421 C422 1.398 . S
C422 H410 0.950 . S
C422 C421 1.398 . S
C422 C423 1.391 . S
C423 H411 0.950 . S
C423 C419 1.393 . S
C423 C422 1.391 . S
H424 C432 0.950 . S
H425 C437 0.950 . S
H426 C434 0.950 . S
H427 C436 0.950 . S
H428 C438 0.950 . S
H429 C440 0.950 . S
H430 C442 0.950 . S
H431 C443 0.950 . S
C432 H424 0.950 . S
C432 C433 1.386 . S
C432 C434 1.391 . S
C433 C432 1.386 . S
C433 C437 1.393 . S
C434 H426 0.950 . S
C434 C432 1.391 . S
C434 C435 1.400 . S
C435 C434 1.400 . S
C435 C436 1.398 . S
C435 C441 1.491 . S
C436 H427 0.950 . S
C436 C435 1.398 . S
C436 C437 1.391 . S
C437 H425 0.950 . S
C437 C433 1.393 . S
C437 C436 1.391 . S
C438 H428 0.950 . S
C438 C439 1.386 . S
C438 C440 1.391 . S
C439 C438 1.386 . S
C439 C443 1.393 . S
C440 H429 0.950 . S
C440 C438 1.391 . S
C440 C441 1.400 . S
C441 C435 1.491 . S
C441 C440 1.400 . S
C441 C442 1.398 . S
C442 H430 0.950 . S
C442 C441 1.398 . S
C442 C443 1.391 . S
C443 H431 0.950 . S
C443 C439 1.393 . S
C443 C442 1.391 . S
H444 C452 0.950 . S
H445 C457 0.950 . S
H446 C454 0.950 . S
H447 C456 0.950 . S
H448 C458 0.950 . S
H449 C460 0.950 . S
H450 C462 0.950 . S
H451 C463 0.950 . S
C452 H444 0.950 . S
C452 C453 1.386 . S
C452 C454 1.391 . S
C453 C452 1.386 . S
C453 C457 1.393 . S
C454 H446 0.950 . S
C454 C452 1.391 . S
C454 C455 1.400 . S
C455 C454 1.400 . S
C455 C456 1.398 . S
C455 C461 1.491 . S
C456 H447 0.950 . S
C456 C455 1.398 . S
C456 C457 1.391 . S
C457 H445 0.950 . S
C457 C453 1.393 . S
C457 C456 1.391 . S
C458 H448 0.950 . S
C458 C459 1.386 . S
C458 C460 1.391 . S
C459 C458 1.386 . S
C459 C463 1.393 . S
C460 H449 0.950 . S
C460 C458 1.391 . S
C460 C461 1.400 . S
C461 C455 1.491 . S
C461 C460 1.400 . S
C461 C462 1.398 . S
C462 H450 0.950 . S
C462 C461 1.398 . S
C462 C463 1.391 . S
C463 H451 0.950 . S
C463 C459 1.393 . S
C463 C462 1.391 . S
H464 C472 0.950 . S
H465 C477 0.950 . S
H466 C474 0.950 . S
H467 C476 0.950 . S
H468 C478 0.950 . S
H469 C480 0.950 . S
H470 C482 0.950 . S
H471 C483 0.950 . S
C472 H464 0.950 . S
C472 C473 1.386 . S
C472 C474 1.391 . S
C473 C472 1.386 . S
C473 C477 1.393 . S
C474 H466 0.950 . S
C474 C472 1.391 . S
C474 C475 1.400 . S
C475 C474 1.400 . S
C475 C476 1.398 . S
C475 C481 1.491 . S
C476 H467 0.950 . S
C476 C475 1.398 . S
C476 C477 1.391 . S
C477 H465 0.950 . S
C477 C473 1.393 . S
C477 C476 1.391 . S
C478 H468 0.950 . S
C478 C479 1.386 . S
C478 C480 1.391 . S
C479 C478 1.386 . S
C479 C483 1.393 . S
C480 H469 0.950 . S
C480 C478 1.391 . S
C480 C481 1.400 . S
C481 C475 1.491 . S
C481 C480 1.400 . S
C481 C482 1.398 . S
C482 H470 0.950 . S
C482 C481 1.398 . S
C482 C483 1.391 . S
C483 H471 0.950 . S
C483 C479 1.393 . S
C483 C482 1.391 . S
H484 C492 0.950 . S
H485 C497 0.950 . S
H486 C494 0.950 . S
H487 C496 0.950 . S
H488 C498 0.950 . S
H489 C500 0.950 . S
H490 C502 0.950 . S
H491 C503 0.950 . S
C492 H484 0.950 . S
C492 C493 1.386 . S
C492 C494 1.391 . S
C493 C492 1.386 . S
C493 C497 1.393 . S
C494 H486 0.950 . S
C494 C492 1.391 . S
C494 C495 1.400 . S
C495 C494 1.400 . S
C495 C496 1.398 . S
C495 C501 1.491 . S
C496 H487 0.950 . S
C496 C495 1.398 . S
C496 C497 1.391 . S
C497 H485 0.950 . S
C497 C493 1.393 . S
C497 C496 1.391 . S
C498 H488 0.950 . S
C498 C499 1.386 . S
C498 C500 1.391 . S
C499 C498 1.386 . S
C499 C503 1.393 . S
C500 H489 0.950 . S
C500 C498 1.391 . S
C500 C501 1.400 . S
C501 C495 1.491 . S
C501 C500 1.400 . S
C501 C502 1.398 . S
C502 H490 0.950 . S
C502 C501 1.398 . S
C502 C503 1.391 . S
C503 H491 0.950 . S
C503 C499 1.393 . S
C503 C502 1.391 . S
H504 C512 0.950 . S
H505 C517 0.950 . S
H506 C514 0.950 . S
H507 C516 0.950 . S
H508 C518 0.950 . S
H509 C520 0.950 . S
H510 C522 0.950 . S
H511 C523 0.950 . S
C512 H504 0.950 . S
C512 C513 1.386 . S
C512 C514 1.391 . S
C513 C512 1.386 . S
C513 C517 1.393 . S
C514 H506 0.950 . S
C514 C512 1.391 . S
C514 C515 1.400 . S
C515 C514 1.400 . S
C515 C516 1.398 . S
C515 C521 1.491 . S
C516 H507 0.950 . S
C516 C515 1.398 . S
C516 C517 1.391 . S
C517 H505 0.950 . S
C517 C513 1.393 . S
C517 C516 1.391 . S
C518 H508 0.950 . S
C518 C519 1.386 . S
C518 C520 1.391 . S
C519 C518 1.386 . S
C519 C523 1.393 . S
C520 H509 0.950 . S
C520 C518 1.391 . S
C520 C521 1.400 . S
C521 C515 1.491 . S
C521 C520 1.400 . S
C521 C522 1.398 . S
C522 H510 0.950 . S
C522 C521 1.398 . S
C522 C523 1.391 . S
C523 H511 0.950 . S
C523 C519 1.393 . S
C523 C522 1.391 . S
H524 C532 0.950 . S
H525 C537 0.950 . S
H526 C534 0.950 . S
H527 C536 0.950 . S
H528 C538 0.950 . S
H529 C540 0.950 . S
H530 C542 0.950 . S
H531 C543 0.950 . S
C532 H524 0.950 . S
C532 C533 1.386 . S
C532 C534 1.391 . S
C533 C532 1.386 . S
C533 C537 1.393 . S
C534 H526 0.950 . S
C534 C532 1.391 . S
C534 C535 1.400 . S
C535 C534 1.400 . S
C535 C536 1.398 . S
C535 C541 1.491 . S
C536 H527 0.950 . S
C536 C535 1.398 . S
C536 C537 1.391 . S
C537 H525 0.950 . S
C537 C533 1.393 . S
C537 C536 1.391 . S
C538 H528 0.950 . S
C538 C539 1.386 . S
C538 C540 1.391 . S
C539 C538 1.386 . S
C539 C543 1.393 . S
C540 H529 0.950 . S
C540 C538 1.391 . S
C540 C541 1.400 . S
C541 C535 1.491 . S
C541 C540 1.400 . S
C541 C542 1.398 . S
C542 H530 0.950 . S
C542 C541 1.398 . S
C542 C543 1.391 . S
C543 H531 0.950 . S
C543 C539 1.393 . S
C543 C542 1.391 . S
H544 C552 0.950 . S
H545 C557 0.950 . S
H546 C554 0.950 . S
H547 C556 0.950 . S
H548 C558 0.950 . S
H549 C560 0.950 . S
H550 C562 0.950 . S
H551 C563 0.950 . S
C552 H544 0.950 . S
C552 C553 1.386 . S
C552 C554 1.391 . S
C553 C552 1.386 . S
C553 C557 1.393 . S
C554 H546 0.950 . S
C554 C552 1.391 . S
C554 C555 1.400 . S
C555 C554 1.400 . S
C555 C556 1.398 . S
C555 C561 1.491 . S
C556 H547 0.950 . S
C556 C555 1.398 . S
C556 C557 1.391 . S
C557 H545 0.950 . S
C557 C553 1.393 . S
C557 C556 1.391 . S
C558 H548 0.950 . S
C558 C559 1.386 . S
C558 C560 1.391 . S
C559 C558 1.386 . S
C559 C563 1.393 . S
C560 H549 0.950 . S
C560 C558 1.391 . S
C560 C561 1.400 . S
C561 C555 1.491 . S
C561 C560 1.400 . S
C561 C562 1.398 . S
C562 H550 0.950 . S
C562 C561 1.398 . S
C562 C563 1.391 . S
C563 H551 0.950 . S
C563 C559 1.393 . S
C563 C562 1.391 . S
H564 C572 0.950 . S
H565 C577 0.950 . S
H566 C574 0.950 . S
H567 C576 0.950 . S
H568 C578 0.950 . S
H569 C580 0.950 . S
H570 C582 0.950 . S
H571 C583 0.950 . S
C572 H564 0.950 . S
C572 C573 1.386 . S
C572 C574 1.391 . S
C573 C572 1.386 . S
C573 C577 1.393 . S
C574 H566 0.950 . S
C574 C572 1.391 . S
C574 C575 1.400 . S
C575 C574 1.400 . S
C575 C576 1.398 . S
C575 C581 1.491 . S
C576 H567 0.950 . S
C576 C575 1.398 . S
C576 C577 1.391 . S
C577 H565 0.950 . S
C577 C573 1.393 . S
C577 C576 1.391 . S
C578 H568 0.950 . S
C578 C579 1.386 . S
C578 C580 1.391 . S
C579 C578 1.386 . S
C579 C583 1.393 . S
C580 H569 0.950 . S
C580 C578 1.391 . S
C580 C581 1.400 . S
C581 C575 1.491 . S
C581 C580 1.400 . S
C581 C582 1.398 . S
C582 H570 0.950 . S
C582 C581 1.398 . S
C582 C583 1.391 . S
C583 H571 0.950 . S
C583 C579 1.393 . S
C583 C582 1.391 . S
H584 C592 0.950 . S
H585 C597 0.950 . S
H586 C594 0.950 . S
H587 C596 0.950 . S
H588 C598 0.950 . S
H589 C600 0.950 . S
H590 C602 0.950 . S
H591 C603 0.950 . S
C592 H584 0.950 . S
C592 C593 1.386 . S
C592 C594 1.391 . S
C593 C592 1.386 . S
C593 C597 1.393 . S
C594 H586 0.950 . S
C594 C592 1.391 . S
C594 C595 1.400 . S
C595 C594 1.400 . S
C595 C596 1.398 . S
C595 C601 1.491 . S
C596 H587 0.950 . S
C596 C595 1.398 . S
C596 C597 1.391 . S
C597 H585 0.950 . S
C597 C593 1.393 . S
C597 C596 1.391 . S
C598 H588 0.950 . S
C598 C599 1.386 . S
C598 C600 1.391 . S
C599 C598 1.386 . S
C599 C603 1.393 . S
C600 H589 0.950 . S
C600 C598 1.391 . S
C600 C601 1.400 . S
C601 C595 1.491 . S
C601 C600 1.400 . S
C601 C602 1.398 . S
C602 H590 0.950 . S
C602 C601 1.398 . S
C602 C603 1.391 . S
C603 H591 0.950 . S
C603 C599 1.393 . S
C603 C602 1.391 . S
H604 C612 0.950 . S
H605 C617 0.950 . S
H606 C614 0.950 . S
H607 C616 0.950 . S
H608 C618 0.950 . S
H609 C620 0.950 . S
H610 C622 0.950 . S
H611 C623 0.950 . S
C612 H604 0.950 . S
C612 C613 1.386 . S
C612 C614 1.391 . S
C613 C612 1.386 . S
C613 C617 1.393 . S
C614 H606 0.950 . S
C614 C612 1.391 . S
C614 C615 1.400 . S
C615 C614 1.400 . S
C615 C616 1.398 . S
C615 C621 1.491 . S
C616 H607 0.950 . S
C616 C615 1.398 . S
C616 C617 1.391 . S
C617 H605 0.950 . S
C617 C613 1.393 . S
C617 C616 1.391 . S
C618 H608 0.950 . S
C618 C619 1.386 . S
C618 C620 1.391 . S
C619 C618 1.386 . S
C619 C623 1.393 . S
C620 H609 0.950 . S
C620 C618 1.391 . S
C620 C621 1.400 . S
C621 C615 1.491 . S
C621 C620 1.400 . S
C621 C622 1.398 . S
C622 H610 0.950 . S
C622 C621 1.398 . S
C622 C623 1.391 . S
C623 H611 0.950 . S
C623 C619 1.393 . S
C623 C622 1.391 . S
H624 C632 0.950 . S
H625 C637 0.950 . S
H626 C634 0.950 . S
H627 C636 0.950 . S
H628 C638 0.950 . S
H629 C640 0.950 . S
H630 C642 0.950 . S
H631 C643 0.950 . S
C632 H624 0.950 . S
C632 C633 1.386 . S
C632 C634 1.391 . S
C633 C632 1.386 . S
C633 C637 1.393 . S
C634 H626 0.950 . S
C634 C632 1.391 . S
C634 C635 1.400 . S
C635 C634 1.400 . S
C635 C636 1.398 . S
C635 C641 1.491 . S
C636 H627 0.950 . S
C636 C635 1.398 . S
C636 C637 1.391 . S
C637 H625 0.950 . S
C637 C633 1.393 . S
C637 C636 1.391 . S
C638 H628 0.950 . S
C638 C639 1.386 . S
C638 C640 1.391 . S
C639 C638 1.386 . S
C639 C643 1.393 . S
C640 H629 0.950 . S
C640 C638 1.391 . S
C640 C641 1.400 . S
C641 C635 1.491 . S
C641 C640 1.400 . S
C641 C642 1.398 . S
C642 H630 0.950 . S
C642 C641 1.398 . S
C642 C643 1.391 . S
C643 H631 0.950 . S
C643 C639 1.393 . S
C643 C642 1.391 . S
H644 C652 0.950 . S
H645 C657 0.950 . S
H646 C654 0.950 . S
H647 C656 0.950 . S
H648 C658 0.950 . S
H649 C660 0.950 . S
H650 C662 0.950 . S
H651 C663 0.950 . S
C652 H644 0.950 . S
C652 C653 1.386 . S
C652 C654 1.391 . S
C653 C652 1.386 . S
C653 C657 1.393 . S
C654 H646 0.950 . S
C654 C652 1.391 . S
C654 C655 1.400 . S
C655 C654 1.400 . S
C655 C656 1.398 . S
C655 C661 1.491 . S
C656 H647 0.950 . S
C656 C655 1.398 . S
C656 C657 1.391 . S
C657 H645 0.950 . S
C657 C653 1.393 . S
C657 C656 1.391 . S
C658 H648 0.950 . S
C658 C659 1.386 . S
C658 C660 1.391 . S
C659 C658 1.386 . S
C659 C663 1.393 . S
C660 H649 0.950 . S
C660 C658 1.391 . S
C660 C661 1.400 . S
C661 C655 1.491 . S
C661 C660 1.400 . S
C661 C662 1.398 . S
C662 H650 0.950 . S
C662 C661 1.398 . S
C662 C663 1.391 . S
C663 H651 0.950 . S
C663 C659 1.393 . S
C663 C662 1.391 . S
H664 C672 0.950 . S
H665 C677 0.950 . S
H666 C674 0.950 . S
H667 C676 0.950 . S
H668 C678 0.950 . S
H669 C680 0.950 . S
H670 C682 0.950 . S
H671 C683 0.950 . S
C672 H664 0.950 . S
C672 C673 1.386 . S
C672 C674 1.391 . S
C673 C672 1.386 . S
C673 C677 1.393 . S
C674 H666 0.950 . S
C674 C672 1.391 . S
C674 C675 1.400 . S
C675 C674 1.400 . S
C675 C676 1.398 . S
C675 C681 1.491 . S
C676 H667 0.950 . S
C676 C675 1.398 . S
C676 C677 1.391 . S
C677 H665 0.950 . S
C677 C673 1.393 . S
C677 C676 1.391 . S
C678 H668 0.950 . S
C678 C679 1.386 . S
C678 C680 1.391 . S
C679 C678 1.386 . S
C679 C683 1.393 . S
C680 H669 0.950 . S
C680 C678 1.391 . S
C680 C681 1.400 . S
C681 C675 1.491 . S
C681 C680 1.400 . S
C681 C682 1.398 . S
C682 H670 0.950 . S
C682 C681 1.398 . S
C682 C683 1.391 . S
C683 H671 0.950 . S
C683 C679 1.393 . S
C683 C682 1.391 . S
H684 C692 0.950 . S
H685 C697 0.950 . S
H686 C694 0.950 . S
H687 C696 0.950 . S
H688 C698 0.950 . S
H689 C700 0.950 . S
H690 C702 0.950 . S
H691 C703 0.950 . S
C692 H684 0.950 . S
C692 C693 1.386 . S
C692 C694 1.391 . S
C693 C692 1.386 . S
C693 C697 1.393 . S
C694 H686 0.950 . S
C694 C692 1.391 . S
C694 C695 1.400 . S
C695 C694 1.400 . S
C695 C696 1.398 . S
C695 C701 1.491 . S
C696 H687 0.950 . S
C696 C695 1.398 . S
C696 C697 1.391 . S
C697 H685 0.950 . S
C697 C693 1.393 . S
C697 C696 1.391 . S
C698 H688 0.950 . S
C698 C699 1.386 . S
C698 C700 1.391 . S
C699 C698 1.386 . S
C699 C703 1.393 . S
C700 H689 0.950 . S
C700 C698 1.391 . S
C700 C701 1.400 . S
C701 C695 1.491 . S
C701 C700 1.400 . S
C701 C702 1.398 . S
C702 H690 0.950 . S
C702 C701 1.398 . S
C702 C703 1.391 . S
C703 H691 0.950 . S
C703 C699 1.393 . S
C703 C702 1.391 . S
H704 C712 0.950 . S
H705 C717 0.950 . S
H706 C714 0.950 . S
H707 C716 0.950 . S
H708 C718 0.950 . S
H709 C720 0.950 . S
H710 C722 0.950 . S
H711 C723 0.950 . S
C712 H704 0.950 . S
C712 C713 1.386 . S
C712 C714 1.391 . S
C713 C712 1.386 . S
C713 C717 1.393 . S
C714 H706 0.950 . S
C714 C712 1.391 . S
C714 C715 1.400 . S
C715 C714 1.400 . S
C715 C716 1.398 . S
C715 C721 1.491 . S
C716 H707 0.950 . S
C716 C715 1.398 . S
C716 C717 1.391 . S
C717 H705 0.950 . S
C717 C713 1.393 . S
C717 C716 1.391 . S
C718 H708 0.950 . S
C718 C719 1.386 . S
C718 C720 1.391 . S
C719 C718 1.386 . S
C719 C723 1.393 . S
C720 H709 0.950 . S
C720 C718 1.391 . S
C720 C721 1.400 . S
C721 C715 1.491 . S
C721 C720 1.400 . S
C721 C722 1.398 . S
C722 H710 0.950 . S
C722 C721 1.398 . S
C722 C723 1.391 . S
C723 H711 0.950 . S
C723 C719 1.393 . S
C723 C722 1.391 . S
H724 C732 0.950 . S
H725 C737 0.950 . S
H726 C734 0.950 . S
H727 C736 0.950 . S
H728 C738 0.950 . S
H729 C740 0.950 . S
H730 C742 0.950 . S
H731 C743 0.950 . S
C732 H724 0.950 . S
C732 C733 1.386 . S
C732 C734 1.391 . S
C733 C732 1.386 . S
C733 C737 1.393 . S
C734 H726 0.950 . S
C734 C732 1.391 . S
C734 C735 1.400 . S
C735 C734 1.400 . S
C735 C736 1.398 . S
C735 C741 1.491 . S
C736 H727 0.950 . S
C736 C735 1.398 . S
C736 C737 1.391 . S
C737 H725 0.950 . S
C737 C733 1.393 . S
C737 C736 1.391 . S
C738 H728 0.950 . S
C738 C739 1.386 . S
C738 C740 1.391 . S
C739 C738 1.386 . S
C739 C743 1.393 . S
C740 H729 0.950 . S
C740 C738 1.391 . S
C740 C741 1.400 . S
C741 C735 1.491 . S
C741 C740 1.400 . S
C741 C742 1.398 . S
C742 H730 0.950 . S
C742 C741 1.398 . S
C742 C743 1.391 . S
C743 H731 0.950 . S
C743 C739 1.393 . S
C743 C742 1.391 . S
H744 C752 0.950 . S
H745 C757 0.950 . S
H746 C754 0.950 . S
H747 C756 0.950 . S
H748 C758 0.950 . S
H749 C760 0.950 . S
H750 C762 0.950 . S
H751 C763 0.950 . S
C752 H744 0.950 . S
C752 C753 1.386 . S
C752 C754 1.391 . S
C753 C752 1.386 . S
C753 C757 1.393 . S
C754 H746 0.950 . S
C754 C752 1.391 . S
C754 C755 1.400 . S
C755 C754 1.400 . S
C755 C756 1.398 . S
C755 C761 1.491 . S
C756 H747 0.950 . S
C756 C755 1.398 . S
C756 C757 1.391 . S
C757 H745 0.950 . S
C757 C753 1.393 . S
C757 C756 1.391 . S
C758 H748 0.950 . S
C758 C759 1.386 . S
C758 C760 1.391 . S
C759 C758 1.386 . S
C759 C763 1.393 . S
C760 H749 0.950 . S
C760 C758 1.391 . S
C760 C761 1.400 . S
C761 C755 1.491 . S
C761 C760 1.400 . S
C761 C762 1.398 . S
C762 H750 0.950 . S
C762 C761 1.398 . S
C762 C763 1.391 . S
C763 H751 0.950 . S
C763 C759 1.393 . S
C763 C762 1.391 . S
H764 C772 0.950 . S
H765 C777 0.950 . S
H766 C774 0.950 . S
H767 C776 0.950 . S
H768 C778 0.950 . S
H769 C780 0.950 . S
H770 C782 0.950 . S
H771 C783 0.950 . S
C772 H764 0.950 . S
C772 C773 1.386 . S
C772 C774 1.391 . S
C773 C772 1.386 . S
C773 C777 1.393 . S
C774 H766 0.950 . S
C774 C772 1.391 . S
C774 C775 1.400 . S
C775 C774 1.400 . S
C775 C776 1.398 . S
C775 C781 1.491 . S
C776 H767 0.950 . S
C776 C775 1.398 . S
C776 C777 1.391 . S
C777 H765 0.950 . S
C777 C773 1.393 . S
C777 C776 1.391 . S
C778 H768 0.950 . S
C778 C779 1.386 . S
C778 C780 1.391 . S
C779 C778 1.386 . S
C779 C783 1.393 . S
C780 H769 0.950 . S
C780 C778 1.391 . S
C780 C781 1.400 . S
C781 C775 1.491 . S
C781 C780 1.400 . S
C781 C782 1.398 . S
C782 H770 0.950 . S
C782 C781 1.398 . S
C782 C783 1.391 . S
C783 H771 0.950 . S
C783 C779 1.393 . S
C783 C782 1.391 . S
H784 C792 0.950 . S
H785 C797 0.950 . S
H786 C794 0.950 . S
H787 C796 0.950 . S
H788 C798 0.950 . S
H789 C800 0.950 . S
H790 C802 0.950 . S
H791 C803 0.950 . S
C792 H784 0.950 . S
C792 C793 1.386 . S
C792 C794 1.391 . S
C793 C792 1.386 . S
C793 C797 1.393 . S
C794 H786 0.950 . S
C794 C792 1.391 . S
C794 C795 1.400 . S
C795 C794 1.400 . S
C795 C796 1.398 . S
C795 C801 1.491 . S
C796 H787 0.950 . S
C796 C795 1.398 . S
C796 C797 1.391 . S
C797 H785 0.950 . S
C797 C793 1.393 . S
C797 C796 1.391 . S
C798 H788 0.950 . S
C798 C799 1.386 . S
C798 C800 1.391 . S
C799 C798 1.386 . S
C799 C803 1.393 . S
C800 H789 0.950 . S
C800 C798 1.391 . S
C800 C801 1.400 . S
C801 C795 1.491 . S
C801 C800 1.400 . S
C801 C802 1.398 . S
C802 H790 0.950 . S
C802 C801 1.398 . S
C802 C803 1.391 . S
C803 H791 0.950 . S
C803 C799 1.393 . S
C803 C802 1.391 . S
H804 C812 0.950 . S
H805 C817 0.950 . S
H806 C814 0.950 . S
H807 C816 0.950 . S
H808 C818 0.950 . S
H809 C820 0.950 . S
H810 C822 0.950 . S
H811 C823 0.950 . S
C812 H804 0.950 . S
C812 C813 1.386 . S
C812 C814 1.391 . S
C813 C812 1.386 . S
C813 C817 1.393 . S
C814 H806 0.950 . S
C814 C812 1.391 . S
C814 C815 1.400 . S
C815 C814 1.400 . S
C815 C816 1.398 . S
C815 C821 1.491 . S
C816 H807 0.950 . S
C816 C815 1.398 . S
C816 C817 1.391 . S
C817 H805 0.950 . S
C817 C813 1.393 . S
C817 C816 1.391 . S
C818 H808 0.950 . S
C818 C819 1.386 . S
C818 C820 1.391 . S
C819 C818 1.386 . S
C819 C823 1.393 . S
C820 H809 0.950 . S
C820 C818 1.391 . S
C820 C821 1.400 . S
C821 C815 1.491 . S
C821 C820 1.400 . S
C821 C822 1.398 . S
C822 H810 0.950 . S
C822 C821 1.398 . S
C822 C823 1.391 . S
C823 H811 0.950 . S
C823 C819 1.393 . S
C823 C822 1.391 . S
H824 C832 0.950 . S
H825 C837 0.950 . S
H826 C834 0.950 . S
H827 C836 0.950 . S
H828 C838 0.950 . S
H829 C840 0.950 . S
H830 C842 0.950 . S
H831 C843 0.950 . S
C832 H824 0.950 . S
C832 C833 1.386 . S
C832 C834 1.391 . S
C833 C832 1.386 . S
C833 C837 1.393 . S
C834 H826 0.950 . S
C834 C832 1.391 . S
C834 C835 1.400 . S
C835 C834 1.400 . S
C835 C836 1.398 . S
C835 C841 1.491 . S
C836 H827 0.950 . S
C836 C835 1.398 . S
C836 C837 1.391 . S
C837 H825 0.950 . S
C837 C833 1.393 . S
C837 C836 1.391 . S
C838 H828 0.950 . S
C838 C839 1.386 . S
C838 C840 1.391 . S
C839 C838 1.386 . S
C839 C843 1.393 . S
C840 H829 0.950 . S
C840 C838 1.391 . S
C840 C841 1.400 . S
C841 C835 1.491 . S
C841 C840 1.400 . S
C841 C842 1.398 . S
C842 H830 0.950 . S
C842 C841 1.398 . S
C842 C843 1.391 . S
C843 H831 0.950 . S
C843 C839 1.393 . S
C843 C842 1.391 . S
H844 C852 0.950 . S
H845 C857 0.950 . S
H846 C854 0.950 . S
H847 C856 0.950 . S
H848 C858 0.950 . S
H849 C860 0.950 . S
H850 C862 0.950 . S
H851 C863 0.950 . S
C852 H844 0.950 . S
C852 C853 1.386 . S
C852 C854 1.391 . S
C853 C852 1.386 . S
C853 C857 1.393 . S
C854 H846 0.950 . S
C854 C852 1.391 . S
C854 C855 1.400 . S
C855 C854 1.400 . S
C855 C856 1.398 . S
C855 C861 1.491 . S
C856 H847 0.950 . S
C856 C855 1.398 . S
C856 C857 1.391 . S
C857 H845 0.950 . S
C857 C853 1.393 . S
C857 C856 1.391 . S
C858 H848 0.950 . S
C858 C859 1.386 . S
C858 C860 1.391 . S
C859 C858 1.386 . S
C859 C863 1.393 . S
C860 H849 0.950 . S
C860 C858 1.391 . S
C860 C861 1.400 . S
C861 C855 1.491 . S
C861 C860 1.400 . S
C861 C862 1.398 . S
C862 H850 0.950 . S
C862 C861 1.398 . S
C862 C863 1.391 . S
C863 H851 0.950 . S
C863 C859 1.393 . S
C863 C862 1.391 . S
C233 C11 1.180 . S
C239 C67 1.176 . S
C253 C81 1.179 . S
C259 C25 1.176 . S
C273 C39 1.180 . S
C279 C95 1.177 . S
C293 C53 1.183 . S
C299 C109 1.179 . S
C313 C123 1.182 . S
C319 C179 1.178 . S
C333 C193 1.176 . S
C339 C137 1.177 . S
C353 C151 1.177 . S
C359 C207 1.176 . S
C373 C165 1.180 . S
C379 C221 1.177 . S
C393 C13 1.146 . S
C399 C218 1.135 . S
C413 C176 1.129 . S
C419 C27 1.121 . S
C433 C41 1.108 . S
C439 C190 1.145 . S
C453 C204 1.164 . S
C459 C55 1.118 . S
C473 C134 1.158 . S
C479 C69 1.112 . S
C493 C148 1.130 . S
C499 C83 1.119 . S
C513 C162 1.165 . S
C519 C97 1.147 . S
C533 C120 1.149 . S
C539 C111 1.108 . S
C553 C125 1.135 . S
C559 C106 1.169 . S
C573 C64 1.131 . S
C579 C139 1.118 . S
C593 C78 1.148 . S
C599 C153 1.153 . S
C613 C167 1.120 . S
C619 C92 1.130 . S
C633 C22 1.139 . S
C639 C181 1.149 . S
C653 C195 1.131 . S
C659 C36 1.129 . S
C673 C209 1.153 . S
C679 C50 1.155 . S
C693 C223 1.153 . S
C699 C8 1.153 . S
C713 C105 1.240 . S
C719 C7 1.247 . S
C733 C21 1.242 . S
C739 C63 1.244 . S
C753 C35 1.254 . S
C759 C77 1.235 . S
C773 C49 1.235 . S
C779 C91 1.254 . S
C793 C217 1.260 . S
C799 C119 1.246 . S
C813 C175 1.254 . S
C819 C133 1.252 . S
C833 C189 1.242 . S
C839 C147 1.244 . S
C853 C203 1.247 . S
C859 C161 1.259 . S
