# Generated by pormake.
# Topology vbm, (6)-cn, num edge types: 1
# Building blocks:
#     Node 0, Type 0, BuildingBlock: KUMBUR_clean_sbu_0, # of connection points: 6
#     Node 1, Type 0, BuildingBlock: KUMBUR_clean_sbu_0, # of connection points: 6
#     Node 2, Type 0, BuildingBlock: KUMBUR_clean_sbu_0, # of connection points: 6
#     Node 3, Type 0, BuildingBlock: KUMBUR_clean_sbu_0, # of connection points: 6
#     Node 4, Type 0, BuildingBlock: KUMBUR_clean_sbu_0, # of connection points: 6
#     Node 5, Type 0, BuildingBlock: KUMBUR_clean_sbu_0, # of connection points: 6
#     Node 6, Type 0, BuildingBlock: KUMBUR_clean_sbu_0, # of connection points: 6
#     Node 7, Type 0, BuildingBlock: KUMBUR_clean_sbu_0, # of connection points: 6
#     Node 8, Type 0, BuildingBlock: KUMBUR_clean_sbu_0, # of connection points: 6
#     Node 9, Type 0, BuildingBlock: KUMBUR_clean_sbu_0, # of connection points: 6
#     Node 10, Type 0, BuildingBlock: KUMBUR_clean_sbu_0, # of connection points: 6
#     Node 11, Type 0, BuildingBlock: KUMBUR_clean_sbu_0, # of connection points: 6
#     Node 12, Type 0, BuildingBlock: KUMBUR_clean_sbu_0, # of connection points: 6
#     Node 13, Type 0, BuildingBlock: KUMBUR_clean_sbu_0, # of connection points: 6
#     Node 14, Type 0, BuildingBlock: KUMBUR_clean_sbu_0, # of connection points: 6
#     Node 15, Type 0, BuildingBlock: KUMBUR_clean_sbu_0, # of connection points: 6
#     Edge 16, Type (0, 0), BuildingBlock: XIVTED_clean_linker_0, # of connection points: 2
#     Edge 17, Type (0, 0), BuildingBlock: XIVTED_clean_linker_0, # of connection points: 2
#     Edge 18, Type (0, 0), BuildingBlock: XIVTED_clean_linker_0, # of connection points: 2
#     Edge 19, Type (0, 0), BuildingBlock: XIVTED_clean_linker_0, # of connection points: 2
#     Edge 20, Type (0, 0), BuildingBlock: XIVTED_clean_linker_0, # of connection points: 2
#     Edge 21, Type (0, 0), BuildingBlock: XIVTED_clean_linker_0, # of connection points: 2
#     Edge 22, Type (0, 0), BuildingBlock: XIVTED_clean_linker_0, # of connection points: 2
#     Edge 23, Type (0, 0), BuildingBlock: XIVTED_clean_linker_0, # of connection points: 2
#     Edge 24, Type (0, 0), BuildingBlock: XIVTED_clean_linker_0, # of connection points: 2
#     Edge 25, Type (0, 0), BuildingBlock: XIVTED_clean_linker_0, # of connection points: 2
#     Edge 26, Type (0, 0), BuildingBlock: XIVTED_clean_linker_0, # of connection points: 2
#     Edge 27, Type (0, 0), BuildingBlock: XIVTED_clean_linker_0, # of connection points: 2
#     Edge 28, Type (0, 0), BuildingBlock: XIVTED_clean_linker_0, # of connection points: 2
#     Edge 29, Type (0, 0), BuildingBlock: XIVTED_clean_linker_0, # of connection points: 2
#     Edge 30, Type (0, 0), BuildingBlock: XIVTED_clean_linker_0, # of connection points: 2
#     Edge 31, Type (0, 0), BuildingBlock: XIVTED_clean_linker_0, # of connection points: 2
#     Edge 32, Type (0, 0), BuildingBlock: XIVTED_clean_linker_0, # of connection points: 2
#     Edge 33, Type (0, 0), BuildingBlock: XIVTED_clean_linker_0, # of connection points: 2
#     Edge 34, Type (0, 0), BuildingBlock: XIVTED_clean_linker_0, # of connection points: 2
#     Edge 35, Type (0, 0), BuildingBlock: XIVTED_clean_linker_0, # of connection points: 2
#     Edge 36, Type (0, 0), BuildingBlock: XIVTED_clean_linker_0, # of connection points: 2
#     Edge 37, Type (0, 0), BuildingBlock: XIVTED_clean_linker_0, # of connection points: 2
#     Edge 38, Type (0, 0), BuildingBlock: XIVTED_clean_linker_0, # of connection points: 2
#     Edge 39, Type (0, 0), BuildingBlock: XIVTED_clean_linker_0, # of connection points: 2
#     Edge 40, Type (0, 0), BuildingBlock: XIVTED_clean_linker_0, # of connection points: 2
#     Edge 41, Type (0, 0), BuildingBlock: XIVTED_clean_linker_0, # of connection points: 2
#     Edge 42, Type (0, 0), BuildingBlock: XIVTED_clean_linker_0, # of connection points: 2
#     Edge 43, Type (0, 0), BuildingBlock: XIVTED_clean_linker_0, # of connection points: 2
#     Edge 44, Type (0, 0), BuildingBlock: XIVTED_clean_linker_0, # of connection points: 2
#     Edge 45, Type (0, 0), BuildingBlock: XIVTED_clean_linker_0, # of connection points: 2
#     Edge 46, Type (0, 0), BuildingBlock: XIVTED_clean_linker_0, # of connection points: 2
#     Edge 47, Type (0, 0), BuildingBlock: XIVTED_clean_linker_0, # of connection points: 2
#     Edge 48, Type (0, 0), BuildingBlock: XIVTED_clean_linker_0, # of connection points: 2
#     Edge 49, Type (0, 0), BuildingBlock: XIVTED_clean_linker_0, # of connection points: 2
#     Edge 50, Type (0, 0), BuildingBlock: XIVTED_clean_linker_0, # of connection points: 2
#     Edge 51, Type (0, 0), BuildingBlock: XIVTED_clean_linker_0, # of connection points: 2
#     Edge 52, Type (0, 0), BuildingBlock: XIVTED_clean_linker_0, # of connection points: 2
#     Edge 53, Type (0, 0), BuildingBlock: XIVTED_clean_linker_0, # of connection points: 2
#     Edge 54, Type (0, 0), BuildingBlock: XIVTED_clean_linker_0, # of connection points: 2
#     Edge 55, Type (0, 0), BuildingBlock: XIVTED_clean_linker_0, # of connection points: 2
#     Edge 56, Type (0, 0), BuildingBlock: XIVTED_clean_linker_0, # of connection points: 2
#     Edge 57, Type (0, 0), BuildingBlock: XIVTED_clean_linker_0, # of connection points: 2
#     Edge 58, Type (0, 0), BuildingBlock: XIVTED_clean_linker_0, # of connection points: 2
#     Edge 59, Type (0, 0), BuildingBlock: XIVTED_clean_linker_0, # of connection points: 2
#     Edge 60, Type (0, 0), BuildingBlock: XIVTED_clean_linker_0, # of connection points: 2
#     Edge 61, Type (0, 0), BuildingBlock: XIVTED_clean_linker_0, # of connection points: 2
#     Edge 62, Type (0, 0), BuildingBlock: XIVTED_clean_linker_0, # of connection points: 2
#     Edge 63, Type (0, 0), BuildingBlock: XIVTED_clean_linker_0, # of connection points: 2
# Relax obj value: 0.082
# Max RMSD: 0.146
# Mean RMSD: 0.146
data_MOF--net-vbm--node1-KUMBUR_clean_sbu_0--edge1-XIVTED_clean_linker_0
_symmetry_space_group_name_H-M    P1
_symmetry_Int_Tables_number       1
_symmetry_cell_setting            triclinic
loop_
_symmetry_equiv_pos_as_xyz
'x, y, z'
_cell_length_a     51.569497
_cell_length_b     24.380251
_cell_length_c     58.548161
_cell_angle_alpha  89.972481
_cell_angle_beta   90.024102
_cell_angle_gamma 89.973186
loop_
_atom_site_label
_atom_site_type_symbol
_atom_site_fract_x
_atom_site_fract_y
_atom_site_fract_z
_atom_type_partial_charge
Tb0 Tb 0.16068 0.08327 0.12124 0.0
C1 C 0.07566 0.20819 0.17228 0.0
C2 C 0.03638 0.19439 0.15053 0.0
C3 C 0.03394 0.20806 0.19159 0.0
C4 C 0.06364 0.19811 0.15175 0.0
C5 C 0.061 0.21431 0.19243 0.0
C6 C 0.02163 0.19814 0.17064 0.0
C7 C 0.10066 0.23668 0.21227 0.0
N8 N 0.10177 0.2144 0.17228 0.0
C9 C 0.11431 0.23061 0.19178 0.0
C10 C 0.07392 0.22789 0.21267 0.0
Tb11 Tb 0.12272 0.2009 0.13811 0.0
N12 N 0.07862 0.19519 0.13275 0.0
C13 C 0.06719 0.19266 0.11168 0.0
C14 C 0.02476 0.18863 0.12909 0.0
C15 C 0.04023 0.1886 0.10956 0.0
H16 H 0.13499 0.23721 0.1918 0.0
H17 H 0.03142 0.18517 0.09284 0.0
H18 H 1.00069 0.19477 0.1701 0.0
H19 H 0.11079 0.24815 0.22774 0.0
H20 H 0.07867 0.19225 0.09634 0.0
H21 H 0.25217 0.10586 0.16551 0.0
H22 H 1.00389 0.18545 0.1274 0.0
H23 H 0.14809 0.04337 0.0681 0.0
H24 H 0.20491 0.09574 0.16251 0.0
H25 H 0.17198 0.03152 0.03199 0.0
H26 H 0.02232 0.21214 0.20691 0.0
H27 H 0.27929 0.10574 0.13068 0.0
H28 H 0.28211 0.09412 0.08803 0.0
H29 H 0.06337 0.23287 0.22854 0.0
H30 H 0.26028 0.07333 0.05161 0.0
N31 N 0.20469 0.0915 0.12613 0.0
C32 C 0.2163 0.09541 0.14708 0.0
C33 C 0.25845 0.10134 0.12921 0.0
C34 C 0.24666 0.09383 0.10793 0.0
C35 C 0.24322 0.10124 0.14891 0.0
C36 C 0.21945 0.08853 0.10701 0.0
H37 H 0.2192 0.04917 0.03057 0.0
N38 N 0.18129 0.0689 0.08701 0.0
C39 C 0.18217 0.04433 0.04725 0.0
C40 C 0.20732 0.07649 0.08669 0.0
C41 C 0.16869 0.05095 0.06781 0.0
C42 C 0.2088 0.05448 0.0465 0.0
C43 C 0.22181 0.06994 0.06647 0.0
O44 O 0.14895 1.00252 0.1137 0.0
O45 O 0.12261 0.1152 0.1294 0.0
O46 O 0.12004 0.13982 0.16558 0.0
O47 O 0.15838 0.09202 0.15879 0.0
O48 O 0.12445 0.05924 0.10387 0.0
O49 O 0.17321 1.0194 0.1428 0.0
O50 O 0.13499 0.28096 0.14625 0.0
O51 O 0.16102 0.16955 0.12974 0.0
O52 O 0.16284 0.14309 0.09363 0.0
O53 O 0.12463 0.19149 0.10033 0.0
O54 O 0.15853 0.22291 0.15623 0.0
O55 O 0.11139 0.26592 0.11661 0.0
C56 C 0.10865 0.08862 0.11556 0.0
C57 C 0.1777 0.93247 0.12505 0.0
C58 C 0.1809 0.83239 0.12217 0.0
C59 C 0.16655 0.88009 0.12739 0.0
C60 C 0.2066 0.8383 0.11446 0.0
C61 C 0.20335 0.93718 0.11739 0.0
C62 C 0.21767 0.89029 0.11212 0.0
C63 C 0.1388 0.10623 0.17228 0.0
C64 C 0.16215 0.98148 0.1305 0.0
C65 C 0.24879 0.07772 0.067 0.0
C66 C 0.26121 0.08963 0.08772 0.0
C67 C 0.17466 0.19518 0.1442 0.0
C68 C 0.10727 0.35253 0.13467 0.0
C69 C 0.11868 0.40461 0.13212 0.0
C70 C 0.10462 0.4527 0.13734 0.0
C71 C 0.07898 0.44748 0.14529 0.0
C72 C 0.08168 0.34852 0.14255 0.0
C73 C 0.06766 0.39579 0.14784 0.0
C74 C 0.14373 0.1752 0.08664 0.0
C75 C 0.1225 0.30303 0.12928 0.0
H76 H 0.1468 0.8766 0.13355 0.0
H77 H 0.21809 0.80276 0.10992 0.0
H78 H 0.21233 0.97694 0.1155 0.0
H79 H 0.23744 0.89425 0.10612 0.0
H80 H 0.13839 0.40757 0.12581 0.0
H81 H 0.06772 0.48333 0.14985 0.0
H82 H 0.07253 0.30901 0.14461 0.0
H83 H 0.04795 0.39235 0.15401 0.0
Tb84 Tb 0.86974 0.96898 0.12311 0.0
C85 C 0.95634 0.83857 0.16958 0.0
C86 C 0.99452 0.85626 0.14686 0.0
C87 C 0.99891 0.83697 0.1874 0.0
C88 C 0.96734 0.85188 0.14893 0.0
C89 C 0.97195 0.82966 0.18899 0.0
C90 C 1.01019 0.85026 0.16633 0.0
C91 C 0.93345 0.80165 0.20934 0.0
N92 N 0.93031 0.83118 0.17024 0.0
C93 C 0.91886 0.81053 0.18953 0.0
C94 C 0.96008 0.81196 0.20917 0.0
Tb95 Tb 0.90766 0.84931 0.13729 0.0
N96 N 0.95149 0.85647 0.13054 0.0
C97 C 0.96197 0.86088 0.10914 0.0
C98 C 1.00513 0.86445 0.12516 0.0
C99 C 0.9888 0.86576 0.10617 0.0
H100 H 0.89829 0.80246 0.18991 0.0
H101 H 0.99683 0.87082 0.08923 0.0
H102 H 0.03108 0.85414 0.16514 0.0
H103 H 0.92414 0.78675 0.2247 0.0
H104 H 0.9498 0.86234 0.09421 0.0
H105 H 0.78164 0.94318 0.17216 0.0
H106 H 0.0259 0.86819 0.12281 0.0
H107 H 0.87853 1.01214 0.06991 0.0
H108 H 0.8286 0.95373 0.1667 0.0
H109 H 0.85205 0.02619 0.03529 0.0
H110 H 1.01125 0.83087 0.20217 0.0
H111 H 0.7521 0.94516 0.13887 0.0
H112 H 0.74623 0.95912 0.09659 0.0
H113 H 0.97137 0.80468 0.22449 0.0
H114 H 0.76539 0.9822 0.05926 0.0
N115 N 0.82621 0.96018 0.13041 0.0
C116 C 0.81613 0.95491 0.15192 0.0
C117 C 0.77279 0.94979 0.13632 0.0
C118 C 0.78303 0.95859 0.11451 0.0
C119 C 0.7894 0.94883 0.15514 0.0
C120 C 0.81011 0.9641 0.11216 0.0
H121 H 0.80484 1.00812 0.03628 0.0
N122 N 0.84676 0.985 0.09024 0.0
C123 C 0.843 1.01226 0.05093 0.0
C124 C 0.82076 0.97728 0.0913 0.0
C125 C 0.85794 1.0044 0.07062 0.0
C126 C 0.81638 1.00186 0.05153 0.0
C127 C 0.80485 0.98498 0.072 0.0
O128 O 0.8811 0.04967 0.11505 0.0
O129 O 0.90804 0.93611 0.12998 0.0
O130 O 0.91079 0.90507 0.16651 0.0
O131 O 0.87456 0.96112 0.16046 0.0
O132 O 0.90509 0.99239 0.10448 0.0
O133 O 0.85834 0.0328 0.14511 0.0
O134 O 0.89524 0.76864 0.14424 0.0
O135 O 0.86931 0.88223 0.13053 0.0
O136 O 0.86589 0.91107 0.095 0.0
O137 O 0.90406 0.86137 0.09975 0.0
O138 O 0.87238 0.82655 0.15608 0.0
O139 O 0.9184 0.78628 0.11462 0.0
C140 C 0.92135 0.96294 0.11569 0.0
C141 C 0.85268 0.11937 0.12731 0.0
C142 C 0.84914 0.21922 0.12386 0.0
C143 C 0.86391 0.17183 0.12862 0.0
C144 C 0.82295 0.21297 0.1176 0.0
C145 C 0.82651 0.11428 0.12115 0.0
C146 C 0.81179 0.16087 0.11628 0.0
C147 C 0.89348 0.94155 0.17349 0.0
C148 C 0.86866 0.0707 0.13229 0.0
C149 C 0.77796 0.97697 0.07393 0.0
C150 C 0.76706 0.96378 0.09518 0.0
C151 C 0.85598 0.85579 0.14495 0.0
C152 C 0.92324 0.69869 0.13163 0.0
C153 C 0.91173 0.64658 0.12982 0.0
C154 C 0.92618 0.59863 0.13438 0.0
C155 C 0.95232 0.60397 0.14095 0.0
C156 C 0.94935 0.70285 0.1381 0.0
C157 C 0.96375 0.65571 0.14276 0.0
C158 C 0.8844 0.87889 0.08698 0.0
C159 C 0.90763 0.74806 0.12692 0.0
H160 H 0.88405 0.17564 0.13368 0.0
H161 H 0.81113 0.24831 0.11344 0.0
H162 H 0.81743 0.07449 0.12016 0.0
H163 H 0.79163 0.1566 0.11143 0.0
H164 H 0.89163 0.64348 0.12456 0.0
H165 H 0.96389 0.56818 0.14498 0.0
H166 H 0.95864 0.74236 0.1395 0.0
H167 H 0.98386 0.65927 0.14786 0.0
Tb168 Tb 0.16199 0.97064 0.38147 0.0
C169 C 0.07644 0.84442 0.33194 0.0
C170 C 0.03749 0.85868 0.35408 0.0
C171 C 0.03442 0.84411 0.31311 0.0
C172 C 0.06474 0.85498 0.35257 0.0
C173 C 0.06146 0.83777 0.31198 0.0
C174 C 0.02244 0.85452 0.33415 0.0
C175 C 0.1008 0.81441 0.29184 0.0
N176 N 0.10253 0.83804 0.33168 0.0
C177 C 0.11476 0.821 0.31215 0.0
C178 C 0.07406 0.82347 0.29168 0.0
Tb179 Tb 0.12401 0.85226 0.36554 0.0
N180 N 0.08 0.85821 0.37139 0.0
C181 C 0.0689 0.86103 0.39259 0.0
C182 C 0.02619 0.86475 0.37563 0.0
C183 C 0.04197 0.86508 0.39499 0.0
H184 H 0.13543 0.81419 0.31198 0.0
H185 H 0.03342 0.86873 0.4118 0.0
H186 H 1.0015 0.85789 0.33492 0.0
H187 H 0.11067 0.80233 0.27633 0.0
H188 H 0.08062 0.86164 0.4078 0.0
H189 H 0.25334 0.94499 0.33727 0.0
H190 H 1.00535 0.86792 0.37755 0.0
H191 H 0.14956 1.01277 0.43433 0.0
H192 H 0.20611 0.95554 0.34025 0.0
H193 H 0.17358 0.02644 0.47026 0.0
H194 H 0.02256 0.83964 0.29794 0.0
H195 H 0.28057 0.94703 0.37205 0.0
H196 H 0.28354 0.96097 0.41456 0.0
H197 H 0.06327 0.81805 0.27596 0.0
H198 H 0.26183 0.98372 0.45082 0.0
N199 N 0.20599 0.96196 0.37657 0.0
C200 C 0.21753 0.95672 0.35565 0.0
C201 C 0.25974 0.95163 0.3735 0.0
C202 C 0.24802 0.96039 0.39472 0.0
C203 C 0.24444 0.95063 0.35384 0.0
C204 C 0.22082 0.96588 0.39564 0.0
H205 H 0.22082 1.00899 0.47172 0.0
N206 N 0.18272 0.98649 0.41554 0.0
C207 C 0.18372 1.01293 0.45509 0.0
C208 C 0.20876 0.97897 0.41587 0.0
C209 C 0.17017 1.00527 0.43462 0.0
C210 C 0.21037 1.0029 0.45586 0.0
C211 C 0.22331 0.98648 0.436 0.0
O212 O 0.15025 0.05172 0.38845 0.0
O213 O 0.12388 0.93832 0.37365 0.0
O214 O 0.12135 0.91229 0.33758 0.0
O215 O 0.15971 0.96023 0.34405 0.0
O216 O 0.12585 0.9951 0.39886 0.0
O217 O 0.17448 0.03369 0.35948 0.0
O218 O 0.13606 0.77198 0.35743 0.0
O219 O 0.1623 0.88396 0.37356 0.0
O220 O 0.16461 0.91184 0.40936 0.0
O221 O 0.12648 0.86264 0.40332 0.0
O222 O 0.15973 0.82961 0.34744 0.0
O223 O 0.11307 0.78757 0.38736 0.0
C224 C 0.11001 0.96526 0.38743 0.0
C225 C 0.1792 0.12111 0.37682 0.0
C226 C 0.18279 0.22121 0.37956 0.0
C227 C 0.16818 0.17371 0.37456 0.0
C228 C 0.20858 0.21486 0.38703 0.0
C229 C 0.20496 0.11606 0.3842 0.0
C230 C 0.2195 0.1627 0.3893 0.0
C231 C 0.14017 0.94543 0.33064 0.0
C232 C 0.16349 0.07214 0.37156 0.0
C233 C 0.25029 0.9786 0.43549 0.0
C234 C 0.26264 0.96558 0.41486 0.0
C235 C 0.1759 0.85772 0.35927 0.0
C236 C 0.10836 0.70082 0.3695 0.0
C237 C 0.11959 0.64843 0.37193 0.0
C238 C 0.10517 0.60062 0.36703 0.0
C239 C 0.07939 0.60643 0.35945 0.0
C240 C 0.08263 0.7053 0.36202 0.0
C241 C 0.06828 0.65835 0.357 0.0
C242 C 0.14573 0.87968 0.41672 0.0
C243 C 0.12386 0.75017 0.3746 0.0
H244 H 0.14835 0.17754 0.36862 0.0
H245 H 0.22026 0.2502 0.39142 0.0
H246 H 0.21386 0.0762 0.38598 0.0
H247 H 0.23934 0.15843 0.39509 0.0
H248 H 0.13941 0.64503 0.37793 0.0
H249 H 0.06786 0.57083 0.35511 0.0
H250 H 0.07359 0.74496 0.36008 0.0
H251 H 0.04846 0.6622 0.35112 0.0
Tb252 Tb 0.87023 0.08116 0.38118 0.0
C253 C 0.956 0.212 0.3331 0.0
C254 C 0.99474 0.19498 0.35522 0.0
C255 C 0.99823 0.21544 0.31472 0.0
C256 C 0.9675 0.19863 0.35354 0.0
C257 C 0.97119 0.22203 0.31353 0.0
C258 C 1.00999 0.20187 0.33555 0.0
C259 C 0.93215 0.2497 0.29388 0.0
N260 N 0.92992 0.2186 0.33282 0.0
C261 C 0.91794 0.23922 0.31377 0.0
C262 C 0.95885 0.24026 0.29365 0.0
Tb263 Tb 0.90809 0.20011 0.36611 0.0
N264 N 0.95206 0.19346 0.37216 0.0
C265 C 0.96298 0.18916 0.3934 0.0
C266 C 1.00583 0.18678 0.37674 0.0
C267 C 0.98989 0.18487 0.39596 0.0
H268 H 0.89731 0.24642 0.31361 0.0
H269 H 0.99829 0.17985 0.41278 0.0
H270 H 0.03092 0.1986 0.33644 0.0
H271 H 0.92247 0.26487 0.27874 0.0
H272 H 0.95112 0.18735 0.40851 0.0
H273 H 0.78071 0.10648 0.33404 0.0
H274 H 0.02666 0.18358 0.37878 0.0
H275 H 0.88058 0.03893 0.43434 0.0
H276 H 0.82781 0.09583 0.33849 0.0
H277 H 0.85513 0.02542 0.46954 0.0
H278 H 1.01024 0.22238 0.29982 0.0
H279 H 0.75215 0.10492 0.36796 0.0
H280 H 0.74751 0.09141 0.41039 0.0
H281 H 0.96983 0.24854 0.27825 0.0
H282 H 0.76776 0.06881 0.44733 0.0
N283 N 0.82648 0.08989 0.37483 0.0
C284 C 0.81578 0.09492 0.35354 0.0
C285 C 0.77291 0.1003 0.37007 0.0
C286 C 0.78378 0.09172 0.39166 0.0
C287 C 0.78896 0.10103 0.35089 0.0
C288 C 0.81093 0.08619 0.39344 0.0
H289 H 0.80789 0.04332 0.46952 0.0
N290 N 0.84821 0.0656 0.41459 0.0
C291 C 0.84562 0.03905 0.45406 0.0
C292 C 0.82218 0.07325 0.41407 0.0
C293 C 0.85997 0.04661 0.43403 0.0
C294 C 0.81897 0.04935 0.454 0.0
C295 C 0.80684 0.06585 0.43374 0.0
O296 O 0.88176 1.00031 0.38889 0.0
O297 O 0.90846 0.11356 0.37377 0.0
O298 O 0.91104 0.14269 0.33723 0.0
O299 O 0.87396 0.09014 0.3438 0.0
O300 O 0.90593 0.05739 0.39931 0.0
O301 O 0.85818 1.01756 0.35937 0.0
O302 O 0.89548 0.28075 0.3593 0.0
O303 O 0.8698 0.16775 0.37345 0.0
O304 O 0.86688 0.13972 0.40906 0.0
O305 O 0.90518 0.18854 0.40378 0.0
O306 O 0.87262 0.22254 0.34755 0.0
O307 O 0.91909 0.26318 0.38867 0.0
C308 C 0.92201 0.08673 0.38789 0.0
C309 C 0.85298 0.93078 0.37708 0.0
C310 C 0.84949 0.83088 0.38043 0.0
C311 C 0.86418 0.87828 0.37553 0.0
C312 C 0.82343 0.83717 0.38706 0.0
C313 C 0.82695 0.93589 0.38363 0.0
C314 C 0.81231 0.88929 0.38863 0.0
C315 C 0.89328 0.10668 0.33049 0.0
C316 C 0.86885 0.97948 0.37188 0.0
C317 C 0.7799 0.07383 0.43238 0.0
C318 C 0.76838 0.08675 0.41135 0.0
C319 C 0.85633 0.19389 0.35902 0.0
C320 C 0.92351 0.35093 0.37168 0.0
C321 C 0.91192 0.40298 0.37364 0.0
C322 C 0.92624 0.45106 0.36902 0.0
C323 C 0.95231 0.44588 0.36222 0.0
C324 C 0.94955 0.34698 0.365 0.0
C325 C 0.9638 0.39423 0.36025 0.0
C326 C 0.88563 0.17164 0.41681 0.0
C327 C 0.90807 0.30138 0.3765 0.0
H328 H 0.88422 0.87445 0.37018 0.0
H329 H 0.81167 0.80184 0.39133 0.0
H330 H 0.81789 0.97571 0.38482 0.0
H331 H 0.79225 0.89358 0.39377 0.0
H332 H 0.89187 0.40594 0.37907 0.0
H333 H 0.96378 0.48175 0.35813 0.0
H334 H 0.9589 0.30755 0.36349 0.0
H335 H 0.98386 0.39081 0.35499 0.0
Tb336 Tb 0.90699 0.84889 0.86599 0.0
C337 C 0.82075 0.97505 0.91374 0.0
C338 C 0.78257 0.95685 0.89102 0.0
C339 C 0.77831 0.97416 0.93174 0.0
C340 C 0.8097 0.96236 0.893 0.0
C341 C 0.80522 0.98225 0.93331 0.0
C342 C 0.76699 0.96147 0.91062 0.0
C343 C 0.84376 1.00938 0.95388 0.0
N344 N 0.84675 0.98295 0.91443 0.0
C345 C 0.8583 1.00201 0.93395 0.0
C346 C 0.81714 0.99881 0.95365 0.0
Tb347 Tb 0.86911 0.96783 0.88116 0.0
N348 N 0.82542 0.9592 0.87449 0.0
C349 C 0.8149 0.95486 0.8531 0.0
C350 C 0.77189 0.94884 0.86932 0.0
C351 C 0.78811 0.94877 0.85025 0.0
H352 H 0.87888 1.0099 0.93438 0.0
H353 H 0.78 0.94382 0.83332 0.0
H354 H 0.74613 0.95681 0.90949 0.0
H355 H 0.85309 1.02309 0.96942 0.0
H356 H 0.82705 0.95446 0.83813 0.0
H357 H 0.99707 0.86826 0.91287 0.0
H358 H 0.75115 0.94426 0.86706 0.0
H359 H 0.89633 0.8037 0.81329 0.0
H360 H 0.94992 0.86078 0.90849 0.0
H361 H 0.92159 0.78598 0.77841 0.0
H362 H 0.76603 0.97901 0.94662 0.0
H363 H 0.02553 0.86513 0.87891 0.0
H364 H 0.02989 0.85087 0.83653 0.0
H365 H 0.80591 1.00471 0.96909 0.0
H366 H 1.0093 0.8278 0.79981 0.0
N367 N 0.95094 0.85527 0.87213 0.0
C368 C 0.96181 0.85922 0.8934 0.0
C369 C 1.0047 0.86194 0.87683 0.0
C370 C 0.99366 0.8541 0.85527 0.0
C371 C 0.98871 0.86352 0.89602 0.0
C372 C 0.96643 0.85047 0.85353 0.0
H373 H 0.96895 0.80217 0.77807 0.0
N374 N 0.9289 0.83096 0.83267 0.0
C375 C 0.93123 0.80078 0.79363 0.0
C376 C 0.95498 0.8375 0.83303 0.0
C377 C 0.91697 0.81084 0.81352 0.0
C378 C 0.95793 0.81012 0.79348 0.0
C379 C 0.97023 0.82788 0.81345 0.0
O380 O 0.89442 0.76835 0.8589 0.0
O381 O 0.86859 0.88124 0.87331 0.0
O382 O 0.8658 0.90911 0.90905 0.0
O383 O 0.90403 0.85997 0.90363 0.0
O384 O 0.87164 0.82709 0.84718 0.0
O385 O 0.9178 0.78536 0.88844 0.0
O386 O 0.88053 0.04856 0.8892 0.0
O387 O 0.90736 0.9353 0.87392 0.0
O388 O 0.91028 0.90692 0.83736 0.0
O389 O 0.87315 0.95948 0.84377 0.0
O390 O 0.90469 0.99122 0.89951 0.0
O391 O 0.85738 0.03193 0.8594 0.0
C392 C 0.85528 0.85548 0.85866 0.0
C393 C 0.92234 0.69782 0.87129 0.0
C394 C 0.92547 0.59762 0.86902 0.0
C395 C 0.91098 0.64556 0.87357 0.0
C396 C 0.95141 0.60315 0.8619 0.0
C397 C 0.94826 0.70202 0.86432 0.0
C398 C 0.96265 0.65494 0.8596 0.0
C399 C 0.88455 0.87698 0.91672 0.0
C400 C 0.90685 0.74736 0.87613 0.0
C401 C 0.99725 0.83443 0.81471 0.0
C402 C 1.00896 0.84759 0.8356 0.0
C403 C 0.92085 0.96193 0.88815 0.0
C404 C 0.8519 0.11841 0.87729 0.0
C405 C 0.86282 0.17116 0.87545 0.0
C406 C 0.84793 0.21837 0.88029 0.0
C407 C 0.82198 0.21161 0.88719 0.0
C408 C 0.82597 0.11293 0.88408 0.0
C409 C 0.81115 0.1593 0.88905 0.0
C410 C 0.8926 0.94308 0.83056 0.0
C411 C 0.86788 0.06978 0.87212 0.0
H412 H 0.89102 0.64235 0.87921 0.0
H413 H 0.963 0.56741 0.85783 0.0
H414 H 0.95743 0.74156 0.86257 0.0
H415 H 0.98262 0.65859 0.85411 0.0
H416 H 0.88278 0.17532 0.86993 0.0
H417 H 0.81007 0.24674 0.89145 0.0
H418 H 0.81712 0.07297 0.88549 0.0
H419 H 0.79118 0.15468 0.89438 0.0
Tb420 Tb 0.12353 0.19958 0.86532 0.0
C421 C 0.20732 0.09185 0.91898 0.0
C422 C 0.24583 0.10519 0.89609 0.0
C423 C 0.24914 0.10267 0.93752 0.0
C424 C 0.21878 0.09802 0.89786 0.0
C425 C 0.22239 0.0925 0.93905 0.0
C426 C 0.26085 0.10905 0.91606 0.0
C427 C 0.18398 0.0669 0.96018 0.0
N428 N 0.18152 0.08111 0.91963 0.0
C429 C 0.1699 0.06631 0.93974 0.0
C430 C 0.21026 0.08087 0.95989 0.0
Tb431 Tb 0.15996 0.08352 0.88535 0.0
N432 N 0.20362 0.09294 0.87903 0.0
C433 C 0.21468 0.09067 0.85782 0.0
C434 C 0.25702 0.10628 0.87434 0.0
C435 C 0.24143 0.09808 0.85514 0.0
H436 H 0.14953 0.05602 0.94011 0.0
H437 H 0.24996 0.09774 0.83826 0.0
H438 H 0.28163 0.11522 0.91507 0.0
H439 H 0.17454 0.05678 0.97615 0.0
H440 H 0.20292 0.08484 0.84277 0.0
H441 H 0.03474 0.19574 0.91602 0.0
H442 H 0.27772 0.11191 0.87221 0.0
H443 H 0.13004 0.2348 0.81013 0.0
H444 H 0.08082 0.20924 0.91011 0.0
H445 H 0.10279 0.23648 0.77569 0.0
H446 H 0.26106 0.10397 0.95276 0.0
H447 H 1.00573 0.17862 0.88326 0.0
H448 H 0.99991 0.17391 0.8409 0.0
H449 H 0.22113 0.08105 0.97573 0.0
H450 H 0.0184 0.18562 0.80253 0.0
N451 N 0.07986 0.19418 0.874 0.0
C452 C 0.06932 0.19966 0.8954 0.0
C453 C 0.02636 0.18354 0.88043 0.0
C454 C 0.03668 0.18362 0.85839 0.0
C455 C 0.04268 0.19307 0.89895 0.0
C456 C 0.06375 0.18994 0.85565 0.0
H457 H 0.05654 0.21053 0.77812 0.0
N458 N 0.09981 0.20713 0.83214 0.0
C459 C 0.09447 0.22489 0.79196 0.0
C460 C 0.07409 0.19645 0.83402 0.0
C461 C 0.10981 0.22453 0.81164 0.0
C462 C 0.06843 0.20991 0.79338 0.0
C463 C 0.05776 0.19678 0.81465 0.0
O464 O 0.1414 0.26782 0.88121 0.0
O465 O 0.16167 0.16773 0.87331 0.0
O466 O 0.16227 0.14974 0.9102 0.0
O467 O 0.12315 0.19318 0.90313 0.0
O468 O 0.15815 0.21295 0.84427 0.0
O469 O 0.10975 0.27941 0.85838 0.0
O470 O 0.14962 1.00585 0.89823 0.0
O471 O 0.12196 0.11403 0.87506 0.0
O472 O 0.12662 0.14313 0.83624 0.0
O473 O 0.15629 0.07613 0.84803 0.0
O474 O 0.12329 0.06447 0.90299 0.0
O475 O 0.17366 1.01306 0.86835 0.0
C476 C 0.17476 0.18848 0.85716 0.0
C477 C 0.14183 0.34869 0.85898 0.0
C478 C 0.15944 0.44188 0.85925 0.0
C479 C 0.14495 0.39991 0.86986 0.0
C480 C 0.17056 0.43222 0.83772 0.0
C481 C 0.15273 0.34081 0.83725 0.0
C482 C 0.16707 0.38213 0.82678 0.0
C483 C 0.14266 0.18042 0.91694 0.0
C484 C 0.12754 0.30365 0.87034 0.0
C485 C 0.03116 0.18642 0.81724 0.0
C486 C 0.02063 0.17979 0.83908 0.0
C487 C 0.10777 0.09054 0.88968 0.0
C488 C 0.18015 0.93526 0.892 0.0
C489 C 0.17335 0.87977 0.8888 0.0
C490 C 0.18932 0.83743 0.89746 0.0
C491 C 0.2117 0.8518 0.90988 0.0
C492 C 0.20296 0.94797 0.90385 0.0
C493 C 0.21847 0.9066 0.91292 0.0
C494 C 0.14138 0.09968 0.83243 0.0
C495 C 0.16333 0.97947 0.88311 0.0
H496 H 0.13649 0.40679 0.88657 0.0
H497 H 0.18166 0.4639 0.82918 0.0
H498 H 0.15021 0.30293 0.82819 0.0
H499 H 0.17546 0.37533 0.81008 0.0
H500 H 0.15601 0.86974 0.87921 0.0
H501 H 0.22407 0.8206 0.91729 0.0
H502 H 0.2089 0.98974 0.90611 0.0
H503 H 0.23589 0.91708 0.92228 0.0
Tb504 Tb 0.90978 0.2016 0.63768 0.0
C505 C 0.82337 0.07366 0.591 0.0
C506 C 0.78541 0.0924 0.61391 0.0
C507 C 0.78074 0.07398 0.57331 0.0
C508 C 0.81252 0.08689 0.61176 0.0
C509 C 0.80765 0.0659 0.57159 0.0
C510 C 0.76963 0.08723 0.59445 0.0
C511 C 0.846 0.03829 0.55086 0.0
N512 N 0.84937 0.06582 0.59015 0.0
C513 C 0.86074 0.04623 0.57065 0.0
C514 C 0.81937 0.04882 0.55124 0.0
Tb515 Tb 0.87204 0.0818 0.62319 0.0
N516 N 0.82843 0.0907 0.63014 0.0
C517 C 0.81813 0.0958 0.65158 0.0
C518 C 0.77495 0.1011 0.63564 0.0
C519 C 0.79136 0.10191 0.65459 0.0
H520 H 0.88133 0.03839 0.57013 0.0
H521 H 0.78343 0.10745 0.67155 0.0
H522 H 0.74879 0.0919 0.5957 0.0
H523 H 0.85519 1.02418 0.53532 0.0
H524 H 0.83044 0.09684 0.66645 0.0
H525 H 0.99949 0.18134 0.59031 0.0
H526 H 0.75423 0.10573 0.63803 0.0
H527 H 0.89978 0.24744 0.69037 0.0
H528 H 0.95241 0.18948 0.59493 0.0
H529 H 0.92525 0.26265 0.7254 0.0
H530 H 0.76832 0.06871 0.55855 0.0
H531 H 0.0282 0.18354 0.62414 0.0
H532 H 0.03291 0.19687 0.66654 0.0
H533 H 0.80799 0.04247 0.53591 0.0
H534 H 1.01265 0.21939 0.70346 0.0
N535 N 0.95369 0.19475 0.63129 0.0
C536 C 0.9644 0.19074 0.60996 0.0
C537 C 1.0074 0.18713 0.62632 0.0
C538 C 0.99654 0.19488 0.64795 0.0
C539 C 0.99127 0.18607 0.6072 0.0
C540 C 0.96934 0.19909 0.64982 0.0
H541 H 0.9725 0.24498 0.72552 0.0
N542 N 0.93206 0.21927 0.67087 0.0
C543 C 0.93473 0.24809 0.71007 0.0
C544 C 0.9581 0.212 0.6704 0.0
C545 C 0.92037 0.2395 0.69012 0.0
C546 C 0.96138 0.23792 0.7101 0.0
C547 C 0.97349 0.22064 0.68997 0.0
O548 O 0.89736 0.28225 0.64474 0.0
O549 O 0.87148 0.16866 0.63055 0.0
O550 O 0.86865 0.13956 0.59493 0.0
O551 O 0.90666 0.18956 0.60011 0.0
O552 O 0.87434 0.22411 0.65623 0.0
O553 O 0.92045 0.26487 0.61508 0.0
O554 O 0.88334 1.001 0.61517 0.0
O555 O 0.91019 0.11489 0.63029 0.0
O556 O 0.91272 0.14539 0.66681 0.0
O557 O 0.8764 0.08986 0.66056 0.0
O558 O 0.90768 0.05818 0.60498 0.0
O559 O 0.86065 1.01802 0.64523 0.0
C560 C 0.85806 0.19501 0.64494 0.0
C561 C 0.92534 0.35234 0.63217 0.0
C562 C 0.92866 0.45245 0.63456 0.0
C563 C 0.91405 0.40469 0.63007 0.0
C564 C 0.95469 0.44667 0.6414 0.0
C565 C 0.95136 0.34784 0.63889 0.0
C566 C 0.96588 0.39476 0.64353 0.0
C567 C 0.88725 0.17182 0.58711 0.0
C568 C 0.90969 0.30302 0.62743 0.0
C569 C 1.00048 0.21349 0.68858 0.0
C570 C 1.012 0.20062 0.66757 0.0
C571 C 0.92374 0.08794 0.61623 0.0
C572 C 0.8548 0.93148 0.62747 0.0
C573 C 0.86577 0.87873 0.62905 0.0
C574 C 0.85078 0.83158 0.62441 0.0
C575 C 0.82467 0.8384 0.61796 0.0
C576 C 0.82871 0.93704 0.62115 0.0
C577 C 0.81379 0.89073 0.61637 0.0
C578 C 0.89525 0.10918 0.6737 0.0
C579 C 0.87091 0.98002 0.63242 0.0
H580 H 0.89402 0.40811 0.62463 0.0
H581 H 0.96638 0.48229 0.64541 0.0
H582 H 0.96048 0.30819 0.64052 0.0
H583 H 0.98592 0.39089 0.64882 0.0
H584 H 0.88585 0.8745 0.63423 0.0
H585 H 0.81268 0.8033 0.61387 0.0
H586 H 0.81982 0.977 0.61998 0.0
H587 H 0.79369 0.89541 0.61139 0.0
Tb588 Tb 0.12536 0.84911 0.63783 0.0
C589 C 0.21067 0.97707 0.58959 0.0
C590 C 0.24939 0.95837 0.61154 0.0
C591 C 0.2527 0.97691 0.57084 0.0
C592 C 0.22222 0.9638 0.61007 0.0
C593 C 0.22574 0.98483 0.56978 0.0
C594 C 0.26451 0.96371 0.59171 0.0
C595 C 0.18667 1.01188 0.54996 0.0
N596 N 0.18463 0.98465 0.58937 0.0
C597 C 0.1726 1.00397 0.57012 0.0
C598 C 0.21332 1.00163 0.5497 0.0
Tb599 Tb 0.16308 0.96842 0.62297 0.0
N600 N 0.20692 0.95973 0.62883 0.0
C601 C 0.21792 0.95446 0.65 0.0
C602 C 0.26057 0.94954 0.63299 0.0
C603 C 0.24478 0.94846 0.65234 0.0
H604 H 0.15198 1.01161 0.57005 0.0
H605 H 0.25327 0.9428 0.66909 0.0
H606 H 0.2854 0.95912 0.59244 0.0
H607 H 0.17695 0.02574 0.53462 0.0
H608 H 0.20611 0.95328 0.66517 0.0
H609 H 0.03469 0.87195 0.59206 0.0
H610 H 0.28136 0.94498 0.63487 0.0
H611 H 0.13652 0.79963 0.68974 0.0
H612 H 0.08189 0.86385 0.59588 0.0
H613 H 0.11168 0.77973 0.72466 0.0
H614 H 0.26463 0.98221 0.55577 0.0
H615 H 1.00668 0.86718 0.62627 0.0
H616 H 1.00284 0.85062 0.66854 0.0
H617 H 0.22418 1.00793 0.53408 0.0
H618 H 0.02386 0.82498 0.70479 0.0
N619 N 0.08133 0.85644 0.6322 0.0
C620 C 0.07019 0.8616 0.61108 0.0
C621 C 0.02752 0.86372 0.62811 0.0
C622 C 0.03883 0.85463 0.64948 0.0
C623 C 0.04326 0.86624 0.60877 0.0
C624 C 0.06608 0.85069 0.65091 0.0
H625 H 0.06441 0.79703 0.72576 0.0
N626 N 0.10382 0.82927 0.67113 0.0
C627 C 0.1019 0.79596 0.70976 0.0
C628 C 0.07776 0.8363 0.67114 0.0
C629 C 0.11592 0.80728 0.68986 0.0
C630 C 0.07524 0.80596 0.71035 0.0
C631 C 0.06275 0.82548 0.69075 0.0
O632 O 0.13816 0.76826 0.64395 0.0
O633 O 0.16361 0.88162 0.63029 0.0
O634 O 0.1661 0.91048 0.59482 0.0
O635 O 0.12781 0.86174 0.6002 0.0
O636 O 0.161 0.82597 0.65594 0.0
O637 O 0.11391 0.78675 0.6151 0.0
O638 O 0.15144 0.04939 0.61562 0.0
O639 O 0.12496 0.93596 0.63073 0.0
O640 O 0.12322 0.90491 0.66731 0.0
O641 O 0.15992 0.95852 0.66036 0.0
O642 O 0.12714 0.99254 0.60532 0.0
O643 O 0.17538 0.03168 0.64486 0.0
C644 C 0.17716 0.85505 0.64452 0.0
C645 C 0.10975 0.69859 0.63177 0.0
C646 C 0.10707 0.59847 0.63455 0.0
C647 C 0.12136 0.64653 0.62985 0.0
C648 C 0.08102 0.60364 0.64142 0.0
C649 C 0.08373 0.70252 0.63851 0.0
C650 C 0.06951 0.65528 0.64335 0.0
C651 C 0.14723 0.87887 0.58707 0.0
C652 C 0.12515 0.74816 0.62689 0.0
C653 C 0.03573 0.83248 0.68985 0.0
C654 C 0.02377 0.8471 0.66922 0.0
C655 C 0.11121 0.96311 0.61686 0.0
C656 C 0.18042 0.11867 0.62725 0.0
C657 C 0.1692 0.17117 0.62871 0.0
C658 C 0.18385 0.21856 0.6237 0.0
C659 C 0.20991 0.21226 0.61704 0.0
C660 C 0.20646 0.11357 0.62069 0.0
C661 C 0.22106 0.16015 0.61557 0.0
C662 C 0.14111 0.94073 0.67398 0.0
C663 C 0.16459 0.06996 0.63254 0.0
H664 H 0.14139 0.64358 0.62438 0.0
H665 H 0.06958 0.56778 0.64558 0.0
H666 H 0.07436 0.74195 0.63999 0.0
H667 H 0.04947 0.65869 0.64865 0.0
H668 H 0.14916 0.17501 0.63407 0.0
H669 H 0.22164 0.24757 0.61268 0.0
H670 H 0.21554 0.07378 0.61957 0.0
H671 H 0.24111 0.15586 0.61042 0.0
Tb672 Tb 0.66078 0.58242 0.12273 0.0
C673 C 0.5746 0.71232 0.17027 0.0
C674 C 0.53612 0.69562 0.14781 0.0
C675 C 0.53224 0.7141 0.18844 0.0
C676 C 0.56333 0.69963 0.14968 0.0
C677 C 0.55924 0.72095 0.18985 0.0
C678 C 0.52068 0.70145 0.16742 0.0
C679 C 0.59807 0.74758 0.21004 0.0
N680 N 0.60066 0.71923 0.17077 0.0
C681 C 0.61242 0.73896 0.19008 0.0
C682 C 0.57139 0.73785 0.21002 0.0
Tb683 Tb 0.62289 0.70169 0.13754 0.0
N684 N 0.57895 0.69514 0.13115 0.0
C685 C 0.56822 0.69119 0.10983 0.0
C686 C 0.52523 0.68794 0.12618 0.0
C687 C 0.54134 0.68671 0.10706 0.0
H688 H 0.63301 0.74658 0.19039 0.0
H689 H 0.53311 0.68202 0.09017 0.0
H690 H 0.49977 0.69787 0.16639 0.0
H691 H 0.6076 0.76181 0.2254 0.0
H692 H 0.58019 0.68981 0.0948 0.0
H693 H 0.74927 0.6061 0.17148 0.0
H694 H 0.50443 0.6845 0.12399 0.0
H695 H 0.65166 0.54006 0.06949 0.0
H696 H 0.70226 0.59587 0.16618 0.0
H697 H 0.6779 0.52655 0.03471 0.0
H698 H 0.52008 0.72002 0.20333 0.0
H699 H 0.77856 0.60539 0.13804 0.0
H700 H 0.78412 0.59274 0.09566 0.0
H701 H 0.56029 0.7449 0.22545 0.0
H702 H 0.7647 0.57052 0.05835 0.0
N703 N 0.70438 0.59099 0.12985 0.0
C704 C 0.71462 0.59529 0.15134 0.0
C705 C 0.75785 0.60096 0.13556 0.0
C706 C 0.74744 0.59298 0.11375 0.0
C707 C 0.74138 0.60117 0.15447 0.0
C708 C 0.72034 0.58766 0.1115 0.0
H709 H 0.72509 0.54483 0.0355 0.0
N710 N 0.68355 0.56712 0.08971 0.0
C711 C 0.68704 0.54036 0.05033 0.0
C712 C 0.70954 0.57495 0.09065 0.0
C713 C 0.67225 0.54791 0.07011 0.0
C714 C 0.71366 0.55089 0.05082 0.0
C715 C 0.72532 0.56755 0.07126 0.0
O716 O 0.64952 0.50181 0.11445 0.0
O717 O 0.62254 0.61515 0.12984 0.0
O718 O 0.61974 0.64484 0.16641 0.0
O719 O 0.65621 0.58969 0.16013 0.0
O720 O 0.62525 0.559 0.1043 0.0
O721 O 0.67216 0.51831 0.14462 0.0
O722 O 0.63546 0.78217 0.14462 0.0
O723 O 0.66127 0.66904 0.13048 0.0
O724 O 0.66413 0.64081 0.09468 0.0
O725 O 0.62594 0.6901 0.09997 0.0
O726 O 0.6582 0.72383 0.15637 0.0
O727 O 0.61215 0.76509 0.11502 0.0
C728 C 0.6091 0.5884 0.11562 0.0
C729 C 0.67789 0.43195 0.12673 0.0
C730 C 0.6815 0.3321 0.12348 0.0
C731 C 0.66676 0.37945 0.1283 0.0
C732 C 0.70761 0.3384 0.11698 0.0
C733 C 0.70396 0.43713 0.12029 0.0
C734 C 0.71868 0.39055 0.11541 0.0
C735 C 0.63721 0.60851 0.17325 0.0
C736 C 0.66189 0.48057 0.1317 0.0
C737 C 0.75222 0.57551 0.07309 0.0
C738 C 0.76328 0.58822 0.09433 0.0
C739 C 0.67458 0.69497 0.14508 0.0
C740 C 0.60756 0.85253 0.13219 0.0
C741 C 0.61928 0.9045 0.13073 0.0
C742 C 0.60501 0.95251 0.13553 0.0
C743 C 0.57878 0.94742 0.14184 0.0
C744 C 0.5814 0.8486 0.13849 0.0
C745 C 0.56714 0.89583 0.1433 0.0
C746 C 0.64539 0.67284 0.08692 0.0
C747 C 0.62304 0.80307 0.12737 0.0
H748 H 0.64652 0.37564 0.13303 0.0
H749 H 0.71964 0.30298 0.11347 0.0
H750 H 0.71297 0.47697 0.11911 0.0
H751 H 0.73882 0.39486 0.11051 0.0
H752 H 0.6396 0.90737 0.12613 0.0
H753 H 0.56711 0.98339 0.14533 0.0
H754 H 0.57195 0.80919 0.13962 0.0
H755 H 0.54693 0.89247 0.14808 0.0
Tb756 Tb 0.36955 0.47006 0.12186 0.0
C757 C 0.45537 0.3432 0.17078 0.0
C758 C 0.49417 0.35784 0.14847 0.0
C759 C 0.49751 0.34266 0.1894 0.0
C760 C 0.46694 0.35406 0.15011 0.0
C761 C 0.47047 0.33632 0.19065 0.0
C762 C 0.50935 0.35338 0.16832 0.0
C763 C 0.43125 0.31302 0.21097 0.0
N764 N 0.42927 0.33693 0.17116 0.0
C765 C 0.41716 0.31985 0.19075 0.0
C766 C 0.45799 0.32191 0.211 0.0
Tb767 Tb 0.40761 0.35154 0.13742 0.0
N768 N 0.45156 0.35764 0.13137 0.0
C769 C 0.46252 0.36095 0.11013 0.0
C770 C 0.50532 0.36437 0.12689 0.0
C771 C 0.48943 0.36509 0.1076 0.0
H772 H 0.39648 0.31317 0.19101 0.0
H773 H 0.49787 0.36911 0.09077 0.0
H774 H 0.53028 0.35678 0.16746 0.0
H775 H 0.42147 0.30089 0.22652 0.0
H776 H 0.45068 0.3619 0.09498 0.0
H777 H 0.2787 0.44435 0.16683 0.0
H778 H 0.52615 0.36762 0.12488 0.0
H779 H 0.38147 0.51247 0.06894 0.0
H780 H 0.32592 0.45453 0.16345 0.0
H781 H 0.35705 0.52682 0.03326 0.0
H782 H 0.50946 0.33802 0.2045 0.0
H783 H 0.25107 0.44724 0.13231 0.0
H784 H 0.24763 0.46188 0.08986 0.0
H785 H 0.46888 0.31634 0.22666 0.0
H786 H 0.26895 0.48489 0.05345 0.0
N787 N 0.32561 0.46159 0.12714 0.0
C788 C 0.31431 0.45607 0.14816 0.0
C789 C 0.27189 0.45169 0.13068 0.0
C790 C 0.28337 0.4607 0.10937 0.0
C791 C 0.28741 0.4502 0.1502 0.0
C792 C 0.31057 0.46596 0.10822 0.0
H793 H 0.30976 0.50995 0.03222 0.0
N794 N 0.34848 0.4864 0.08799 0.0
C795 C 0.34707 0.51326 0.0485 0.0
C796 C 0.32242 0.47918 0.0879 0.0
C797 C 0.36084 0.50521 0.06883 0.0
C798 C 0.32039 0.50356 0.04796 0.0
C799 C 0.30765 0.48707 0.06791 0.0
O800 O 0.38135 0.55108 0.11494 0.0
O801 O 0.40772 0.43761 0.12936 0.0
O802 O 0.41072 0.41142 0.16531 0.0
O803 O 0.37229 0.45941 0.15925 0.0
O804 O 0.40553 0.49448 0.1042 0.0
O805 O 0.35722 0.5329 0.14399 0.0
O806 O 0.39563 0.27119 0.14542 0.0
O807 O 0.36927 0.38338 0.12968 0.0
O808 O 0.36659 0.41148 0.09396 0.0
O809 O 0.40473 0.36205 0.09969 0.0
O810 O 0.37197 0.32872 0.15568 0.0
O811 O 0.41866 0.2872 0.1155 0.0
C812 C 0.42149 0.46457 0.1155 0.0
C813 C 0.35255 0.62049 0.12678 0.0
C814 C 0.34944 0.72055 0.12378 0.0
C815 C 0.36387 0.67279 0.12872 0.0
C816 C 0.32348 0.7148 0.11672 0.0
C817 C 0.32663 0.61594 0.11979 0.0
C818 C 0.31223 0.66289 0.11477 0.0
C819 C 0.39208 0.44476 0.17242 0.0
C820 C 0.36819 0.57137 0.13191 0.0
C821 C 0.28066 0.47947 0.06866 0.0
C822 C 0.26853 0.4663 0.08938 0.0
C823 C 0.35572 0.35701 0.14397 0.0
C824 C 0.42342 0.20031 0.13327 0.0
C825 C 0.41197 0.14814 0.13123 0.0
C826 C 0.42629 0.10019 0.13613 0.0
C827 C 0.45224 0.10562 0.14326 0.0
C828 C 0.44933 0.20451 0.14031 0.0
C829 C 0.4636 0.15738 0.1453 0.0
C830 C 0.38533 0.37914 0.08647 0.0
C831 C 0.40792 0.24966 0.12822 0.0
H832 H 0.38383 0.67617 0.13437 0.0
H833 H 0.31191 0.7504 0.11239 0.0
H834 H 0.3175 0.57628 0.11825 0.0
H835 H 0.29227 0.65904 0.10929 0.0
H836 H 0.39202 0.14501 0.12554 0.0
H837 H 0.46371 0.06987 0.14756 0.0
H838 H 0.45854 0.24406 0.14194 0.0
H839 H 0.48356 0.16098 0.15084 0.0
Tb840 Tb 0.66184 0.46992 0.38175 0.0
C841 C 0.57612 0.34078 0.33283 0.0
C842 C 0.53743 0.35697 0.35508 0.0
C843 C 0.53386 0.33816 0.31445 0.0
C844 C 0.56466 0.35334 0.35336 0.0
C845 C 0.56089 0.33154 0.31321 0.0
C846 C 0.52214 0.35093 0.33538 0.0
C847 C 0.59987 0.30437 0.29339 0.0
N848 N 0.60219 0.33405 0.3325 0.0
C849 C 0.61412 0.31405 0.31333 0.0
C850 C 0.57318 0.31397 0.29321 0.0
Tb851 Tb 0.6241 0.35129 0.36588 0.0
N852 N 0.58014 0.35766 0.372 0.0
C853 C 0.56926 0.36106 0.39327 0.0
C854 C 0.52638 0.36427 0.37666 0.0
C855 C 0.54236 0.36531 0.39588 0.0
H856 H 0.63474 0.30674 0.31313 0.0
H857 H 0.53399 0.36961 0.41274 0.0
H858 H 0.50121 0.35422 0.33629 0.0
H859 H 0.60951 0.28968 0.27816 0.0
H860 H 0.58114 0.36218 0.40839 0.0
H861 H 0.75159 0.44806 0.33473 0.0
H862 H 0.50555 0.36743 0.37873 0.0
H863 H 0.65126 0.50938 0.43523 0.0
H864 H 0.70446 0.45823 0.33909 0.0
H865 H 0.67656 0.52099 0.47065 0.0
H866 H 0.52181 0.33183 0.29951 0.0
H867 H 0.78001 0.44758 0.36877 0.0
H868 H 0.78446 0.45859 0.41134 0.0
H869 H 0.56217 0.30629 0.27777 0.0
H870 H 0.76404 0.47904 0.4484 0.0
N871 N 0.70563 0.46186 0.37549 0.0
C872 C 0.71643 0.45825 0.3542 0.0
C873 C 0.75923 0.45198 0.37084 0.0
C874 C 0.74826 0.45918 0.39247 0.0
C875 C 0.74326 0.45242 0.35159 0.0
C876 C 0.72111 0.46449 0.39419 0.0
H877 H 0.7238 0.50319 0.47066 0.0
N878 N 0.68373 0.4839 0.41537 0.0
C879 C 0.68614 0.50826 0.45509 0.0
C880 C 0.70976 0.47629 0.4149 0.0
C881 C 0.67187 0.50178 0.43493 0.0
C882 C 0.71279 0.49801 0.45504 0.0
C883 C 0.72502 0.48265 0.43469 0.0
O884 O 0.65039 0.55045 0.39011 0.0
O885 O 0.62365 0.43758 0.37404 0.0
O886 O 0.6213 0.40966 0.33727 0.0
O887 O 0.65827 0.46225 0.34433 0.0
O888 O 0.62606 0.49274 0.39994 0.0
O889 O 0.67363 0.5345 0.3603 0.0
O890 O 0.63669 0.27089 0.35852 0.0
O891 O 0.66238 0.38367 0.37337 0.0
O892 O 0.66538 0.40992 0.4091 0.0
O893 O 0.62701 0.36153 0.40361 0.0
O894 O 0.65957 0.32966 0.34718 0.0
O895 O 0.61337 0.28734 0.38813 0.0
C896 C 0.61004 0.46381 0.38829 0.0
C897 C 0.67896 0.62064 0.37848 0.0
C898 C 0.68293 0.72059 0.38139 0.0
C899 C 0.6681 0.6734 0.3764 0.0
C900 C 0.70875 0.71379 0.38867 0.0
C901 C 0.70476 0.6151 0.38565 0.0
C902 C 0.71952 0.66145 0.39075 0.0
C903 C 0.63907 0.44596 0.33081 0.0
C904 C 0.66305 0.57205 0.37312 0.0
C905 C 0.75196 0.47481 0.43336 0.0
C906 C 0.76358 0.4631 0.41226 0.0
C907 C 0.67582 0.35815 0.35875 0.0
C908 C 0.60886 0.20012 0.37075 0.0
C909 C 0.62013 0.14782 0.37322 0.0
C910 C 0.60566 0.09994 0.36855 0.0
C911 C 0.57982 0.10557 0.36113 0.0
C912 C 0.58304 0.20444 0.36347 0.0
C913 C 0.56867 0.15741 0.35864 0.0
C914 C 0.64664 0.3778 0.4167 0.0
C915 C 0.62432 0.24958 0.3757 0.0
H916 H 0.64824 0.6776 0.37058 0.0
H917 H 0.7206 0.74891 0.39303 0.0
H918 H 0.71356 0.57511 0.38725 0.0
H919 H 0.7394 0.65679 0.39638 0.0
H920 H 0.64 0.14453 0.37909 0.0
H921 H 0.56826 0.06987 0.35697 0.0
H922 H 0.57393 0.24403 0.36156 0.0
H923 H 0.54878 0.16116 0.35292 0.0
Tb924 Tb 0.37012 0.58087 0.38133 0.0
C925 C 0.4561 0.70668 0.33203 0.0
C926 C 0.49488 0.6925 0.35445 0.0
C927 C 0.49827 0.70704 0.31349 0.0
C928 C 0.46765 0.69619 0.35275 0.0
C929 C 0.47122 0.71331 0.31218 0.0
C930 C 0.51009 0.69667 0.33462 0.0
C931 C 0.43203 0.73643 0.29174 0.0
N932 N 0.43 0.71298 0.3316 0.0
C933 C 0.41792 0.72987 0.31196 0.0
C934 C 0.45878 0.72749 0.29178 0.0
Tb935 Tb 0.40828 0.69891 0.36533 0.0
N936 N 0.45224 0.69291 0.37146 0.0
C937 C 0.46317 0.69002 0.39274 0.0
C938 C 0.50601 0.68638 0.37608 0.0
C939 C 0.49009 0.68597 0.39533 0.0
H940 H 0.39724 0.7366 0.31164 0.0
H941 H 0.49851 0.68227 0.4122 0.0
H942 H 0.53102 0.69332 0.33553 0.0
H943 H 0.42227 0.74841 0.27615 0.0
H944 H 0.45133 0.68934 0.40787 0.0
H945 H 0.27875 0.60542 0.33701 0.0
H946 H 0.52684 0.68321 0.37813 0.0
H947 H 0.38268 0.54009 0.43441 0.0
H948 H 0.32601 0.59529 0.34006 0.0
H949 H 0.35869 0.52688 0.47035 0.0
H950 H 0.51024 0.71149 0.2984 0.0
H951 H 0.25152 0.6035 0.37177 0.0
H952 H 0.24857 0.58993 0.41431 0.0
H953 H 0.46969 0.73289 0.27612 0.0
H954 H 0.27032 0.56793 0.45065 0.0
N955 N 0.32612 0.58922 0.37639 0.0
C956 C 0.31457 0.59416 0.35545 0.0
C957 C 0.27236 0.59908 0.37325 0.0
C958 C 0.28409 0.59061 0.3945 0.0
C959 C 0.28765 0.60001 0.3536 0.0
C960 C 0.3113 0.58535 0.39545 0.0
H961 H 0.31139 0.54364 0.47168 0.0
N962 N 0.34944 0.56539 0.41545 0.0
C963 C 0.34851 0.53987 0.45511 0.0
C964 C 0.32339 0.5726 0.41572 0.0
C965 C 0.36204 0.54727 0.43463 0.0
C966 C 0.32183 0.54952 0.45581 0.0
C967 C 0.30885 0.56533 0.43588 0.0
O968 O 0.38182 0.49984 0.38842 0.0
O969 O 0.4083 0.61295 0.37361 0.0
O970 O 0.41097 0.6387 0.33747 0.0
O971 O 0.37251 0.59112 0.34393 0.0
O972 O 0.40618 0.55647 0.39892 0.0
O973 O 0.35768 0.51786 0.35933 0.0
O974 O 0.3963 0.77917 0.35712 0.0
O975 O 0.36993 0.66736 0.37312 0.0
O976 O 0.36711 0.64039 0.40885 0.0
O977 O 0.40548 0.68881 0.40309 0.0
O978 O 0.3727 0.72171 0.34699 0.0
O979 O 0.41913 0.76351 0.38719 0.0
C980 C 0.42211 0.5861 0.38748 0.0
C981 C 0.353 0.43039 0.37665 0.0
C982 C 0.34984 0.33031 0.3796 0.0
C983 C 0.36428 0.37803 0.37465 0.0
C984 C 0.32391 0.33617 0.38672 0.0
C985 C 0.32712 0.43503 0.38372 0.0
C986 C 0.31271 0.38812 0.38873 0.0
C987 C 0.39212 0.60562 0.33056 0.0
C988 C 0.36864 0.47945 0.37148 0.0
C989 C 0.28185 0.57291 0.43532 0.0
C990 C 0.26947 0.58552 0.41464 0.0
C991 C 0.35644 0.69358 0.35871 0.0
C992 C 0.42384 0.85033 0.36938 0.0
C993 C 0.41237 0.90247 0.37157 0.0
C994 C 0.42664 0.9505 0.36675 0.0
C995 C 0.45256 0.94517 0.35955 0.0
C996 C 0.44972 0.84622 0.36226 0.0
C997 C 0.46395 0.89343 0.35735 0.0
C998 C 0.38596 0.67243 0.41631 0.0
C999 C 0.4084 0.8009 0.37437 0.0
H1000 H 0.38421 0.37458 0.36894 0.0
H1001 H 0.31234 0.30061 0.39105 0.0
H1002 H 0.31803 0.47475 0.38532 0.0
H1003 H 0.29277 0.39205 0.39427 0.0
H1004 H 0.39244 0.90551 0.37731 0.0
H1005 H 0.46401 0.98097 0.35529 0.0
H1006 H 0.45893 0.80669 0.3605 0.0
H1007 H 0.48388 0.88992 0.35176 0.0
Tb1008 Tb 0.4066 0.34837 0.86596 0.0
C1009 C 0.31985 0.47647 0.912 0.0
C1010 C 0.28215 0.45932 0.88849 0.0
C1011 C 0.27691 0.4771 0.92908 0.0
C1012 C 0.30926 0.46398 0.89103 0.0
C1013 C 0.30383 0.48427 0.93122 0.0
C1014 C 0.26607 0.46467 0.90773 0.0
C1015 C 0.34198 0.51036 0.95259 0.0
N1016 N 0.34587 0.48367 0.91324 0.0
C1017 C 0.357 0.50255 0.93297 0.0
C1018 C 0.3153 0.50054 0.9518 0.0
Tb1019 Tb 0.36897 0.46834 0.8804 0.0
N1020 N 0.32545 0.46012 0.87285 0.0
C1021 C 0.31548 0.4556 0.85127 0.0
C1022 C 0.272 0.45129 0.8666 0.0
C1023 C 0.28873 0.45027 0.84787 0.0
H1024 H 0.37763 0.50989 0.93379 0.0
H1025 H 0.28105 0.44522 0.8308 0.0
H1026 H 0.24521 0.46076 0.90617 0.0
H1027 H 0.35098 0.52386 0.96832 0.0
H1028 H 0.32804 0.4545 0.83656 0.0
H1029 H 0.49565 0.37017 0.91433 0.0
H1030 H 0.2513 0.44729 0.8639 0.0
H1031 H 0.39783 0.29675 0.81421 0.0
H1032 H 0.4487 0.36147 0.90919 0.0
H1033 H 0.4239 0.27833 0.7798 0.0
H1034 H 0.26426 0.48248 0.94369 0.0
H1035 H 0.52485 0.36768 0.88086 0.0
H1036 H 0.53022 0.35291 0.8386 0.0
H1037 H 0.3037 0.50685 0.967 0.0
H1038 H 0.5106 0.32751 0.80173 0.0
N1039 N 0.45046 0.35577 0.87285 0.0
C1040 C 0.46088 0.36009 0.89429 0.0
C1041 C 0.5041 0.3639 0.87844 0.0
C1042 C 0.49357 0.35549 0.85672 0.0
C1043 C 0.48769 0.3651 0.89736 0.0
C1044 C 0.4664 0.35105 0.85455 0.0
H1045 H 0.47095 0.29824 0.77973 0.0
N1046 N 0.42956 0.32866 0.83338 0.0
C1047 C 0.43305 0.29517 0.79489 0.0
C1048 C 0.45552 0.33677 0.834 0.0
C1049 C 0.41833 0.30561 0.81449 0.0
C1050 C 0.45956 0.30665 0.79488 0.0
C1051 C 0.47125 0.32661 0.81477 0.0
O1052 O 0.39384 0.26772 0.85935 0.0
O1053 O 0.36828 0.38169 0.87272 0.0
O1054 O 0.365 0.40994 0.90834 0.0
O1055 O 0.40317 0.36049 0.90349 0.0
O1056 O 0.37135 0.32641 0.847 0.0
O1057 O 0.41702 0.28552 0.88887 0.0
O1058 O 0.38007 0.54892 0.889 0.0
O1059 O 0.40718 0.43528 0.8733 0.0
O1060 O 0.40921 0.40308 0.83623 0.0
O1061 O 0.37398 0.46162 0.84311 0.0
O1062 O 0.40449 0.49121 0.89894 0.0
O1063 O 0.35778 0.53274 0.8586 0.0
C1064 C 0.35498 0.35569 0.85812 0.0
C1065 C 0.4219 0.19783 0.87204 0.0
C1066 C 0.42529 0.09774 0.86969 0.0
C1067 C 0.41061 0.1455 0.87407 0.0
C1068 C 0.45137 0.10351 0.86301 0.0
C1069 C 0.44797 0.20232 0.8655 0.0
C1070 C 0.46255 0.1554 0.86096 0.0
C1071 C 0.38355 0.37779 0.91632 0.0
C1072 C 0.40622 0.24718 0.87668 0.0
C1073 C 0.49818 0.33445 0.81637 0.0
C1074 C 0.50934 0.34892 0.83735 0.0
C1075 C 0.42065 0.46196 0.88754 0.0
C1076 C 0.3517 0.61885 0.87663 0.0
C1077 C 0.36264 0.67161 0.87516 0.0
C1078 C 0.34757 0.71872 0.8797 0.0
C1079 C 0.32142 0.71187 0.88596 0.0
C1080 C 0.32554 0.61327 0.88272 0.0
C1081 C 0.31055 0.65954 0.88742 0.0
C1082 C 0.39242 0.44136 0.82973 0.0
C1083 C 0.36786 0.57038 0.87169 0.0
H1084 H 0.39055 0.14207 0.87939 0.0
H1085 H 0.4631 0.06788 0.8591 0.0
H1086 H 0.4571 0.24195 0.86396 0.0
H1087 H 0.48262 0.15928 0.85581 0.0
H1088 H 0.38276 0.67586 0.87012 0.0
H1089 H 0.30937 0.74696 0.88996 0.0
H1090 H 0.31664 0.57333 0.88375 0.0
H1091 H 0.2904 0.65483 0.89222 0.0
Tb1092 Tb 0.62282 0.69679 0.86575 0.0
C1093 C 0.70741 0.5691 0.91603 0.0
C1094 C 0.74679 0.58746 0.89502 0.0
C1095 C 0.74887 0.56889 0.93578 0.0
C1096 C 0.71957 0.58224 0.89585 0.0
C1097 C 0.72186 0.56139 0.93621 0.0
C1098 C 0.76132 0.58188 0.91519 0.0
C1099 C 0.68211 0.53585 0.95523 0.0
N1100 N 0.68134 0.56206 0.91565 0.0
C1101 C 0.66865 0.5437 0.93473 0.0
C1102 C 0.7088 0.5453 0.95606 0.0
Tb1103 Tb 0.6608 0.57831 0.88151 0.0
N1104 N 0.70482 0.58666 0.87676 0.0
C1105 C 0.71644 0.59219 0.85588 0.0
C1106 C 0.7586 0.59645 0.87385 0.0
C1107 C 0.74337 0.59799 0.85416 0.0
H1108 H 0.64801 0.53667 0.93442 0.0
H1109 H 0.75234 0.60386 0.83763 0.0
H1110 H 0.78223 0.58626 0.91496 0.0
H1111 H 0.67186 0.52266 0.9704 0.0
H1112 H 0.70507 0.59381 0.84046 0.0
H1113 H 0.5326 0.68011 0.91254 0.0
H1114 H 0.77944 0.60085 0.87247 0.0
H1115 H 0.63386 0.73521 0.81217 0.0
H1116 H 0.57979 0.68697 0.90826 0.0
H1117 H 0.60883 0.74756 0.77669 0.0
H1118 H 0.76033 0.56358 0.95114 0.0
H1119 H 0.50427 0.6815 0.87847 0.0
H1120 H 0.50009 0.69204 0.83588 0.0
H1121 H 0.71917 0.5391 0.97195 0.0
H1122 H 0.52086 0.71054 0.79879 0.0
N1123 N 0.57887 0.6909 0.87186 0.0
C1124 C 0.56794 0.68785 0.89312 0.0
C1125 C 0.5251 0.68458 0.87643 0.0
C1126 C 0.53623 0.69086 0.85482 0.0
C1127 C 0.54102 0.68392 0.89569 0.0
C1128 C 0.56346 0.69443 0.85314 0.0
H1129 H 0.56142 0.73211 0.77659 0.0
N1130 N 0.60111 0.71133 0.83203 0.0
C1131 C 0.59907 0.73537 0.79224 0.0
C1132 C 0.57501 0.7051 0.83245 0.0
C1133 C 0.61319 0.7285 0.81245 0.0
C1134 C 0.57233 0.72647 0.79224 0.0
C1135 C 0.55988 0.71205 0.8126 0.0
O1136 O 0.63486 0.77705 0.85767 0.0
O1137 O 0.66116 0.665 0.8736 0.0
O1138 O 0.66388 0.63727 0.90921 0.0
O1139 O 0.62564 0.68634 0.90353 0.0
O1140 O 0.65846 0.71961 0.84755 0.0
O1141 O 0.61193 0.76129 0.88765 0.0
O1142 O 0.64912 0.49715 0.88831 0.0
O1143 O 0.62268 0.61074 0.87379 0.0
O1144 O 0.62017 0.63705 0.8377 0.0
O1145 O 0.65858 0.5892 0.84414 0.0
O1146 O 0.62462 0.55375 0.89888 0.0
O1147 O 0.67334 0.51571 0.85935 0.0
C1148 C 0.6747 0.69138 0.85929 0.0
C1149 C 0.60724 0.84817 0.86987 0.0
C1150 C 0.60447 0.94831 0.86709 0.0
C1151 C 0.61874 0.90028 0.87196 0.0
C1152 C 0.57852 0.94302 0.85993 0.0
C1153 C 0.58134 0.8441 0.86279 0.0
C1154 C 0.56712 0.89131 0.85783 0.0
C1155 C 0.64513 0.66952 0.91672 0.0
C1156 C 0.62269 0.79872 0.87489 0.0
C1157 C 0.53284 0.70586 0.81388 0.0
C1158 C 0.52101 0.6953 0.83499 0.0
C1159 C 0.60875 0.58373 0.8875 0.0
C1160 C 0.6781 0.42803 0.87648 0.0
C1161 C 0.66682 0.37568 0.87457 0.0
C1162 C 0.68132 0.32797 0.87947 0.0
C1163 C 0.7073 0.33383 0.88644 0.0
C1164 C 0.70404 0.43268 0.88338 0.0
C1165 C 0.71851 0.38578 0.88835 0.0
C1166 C 0.63904 0.60404 0.83075 0.0
C1167 C 0.6624 0.47708 0.87137 0.0
H1168 H 0.63868 0.9033 0.87767 0.0
H1169 H 0.56709 0.97884 0.85564 0.0
H1170 H 0.5721 0.8046 0.8611 0.0
H1171 H 0.54717 0.88782 0.85226 0.0
H1172 H 0.64685 0.37221 0.86898 0.0
H1173 H 0.71892 0.29827 0.89073 0.0
H1174 H 0.71315 0.47238 0.8849 0.0
H1175 H 0.73849 0.38971 0.89377 0.0
Tb1176 Tb 0.40984 0.70091 0.63702 0.0
C1177 C 0.3237 0.57545 0.58902 0.0
C1178 C 0.28554 0.59288 0.61187 0.0
C1179 C 0.2812 0.57655 0.57108 0.0
C1180 C 0.31267 0.58758 0.60983 0.0
C1181 C 0.30813 0.56864 0.56944 0.0
C1182 C 0.26992 0.58867 0.59228 0.0
C1183 C 0.34664 0.54214 0.5487 0.0
N1184 N 0.34971 0.56767 0.58825 0.0
C1185 C 0.36123 0.54908 0.56865 0.0
C1186 C 0.32001 0.55262 0.54902 0.0
Tb1187 Tb 0.37207 0.58187 0.62158 0.0
N1188 N 0.32843 0.59039 0.62836 0.0
C1189 C 0.31796 0.59415 0.64977 0.0
C1190 C 0.2749 0.6003 0.63362 0.0
C1191 C 0.29116 0.60001 0.65268 0.0
H1192 H 0.38183 0.54127 0.56818 0.0
H1193 H 0.28309 0.6045 0.66964 0.0
H1194 H 0.24906 0.59318 0.59344 0.0
H1195 H 0.35596 0.52884 0.53309 0.0
H1196 H 0.33017 0.5943 0.66472 0.0
H1197 H 0.49949 0.67743 0.58971 0.0
H1198 H 0.25416 0.60471 0.63593 0.0
H1199 H 0.40049 0.75343 0.68851 0.0
H1200 H 0.45249 0.68684 0.5943 0.0
H1201 H 0.42618 0.77283 0.72304 0.0
H1202 H 0.26889 0.572 0.5562 0.0
H1203 H 0.52824 0.68005 0.6235 0.0
H1204 H 0.53307 0.69535 0.66578 0.0
H1205 H 0.30875 0.54704 0.53357 0.0
H1206 H 0.51301 0.72169 0.70235 0.0
N1207 N 0.45378 0.6929 0.63065 0.0
C1208 C 0.46447 0.68823 0.60934 0.0
C1209 C 0.50746 0.68408 0.62568 0.0
C1210 C 0.49666 0.69289 0.64726 0.0
C1211 C 0.49131 0.68281 0.60658 0.0
C1212 C 0.46947 0.69762 0.64912 0.0
H1213 H 0.47317 0.75223 0.72374 0.0
N1214 N 0.43238 0.72063 0.66982 0.0
C1215 C 0.43547 0.75536 0.70815 0.0
C1216 C 0.45833 0.71223 0.66952 0.0
C1217 C 0.42096 0.74432 0.68847 0.0
C1218 C 0.46195 0.74347 0.70852 0.0
C1219 C 0.47384 0.72271 0.68887 0.0
O1220 O 0.3967 0.78143 0.64342 0.0
O1221 O 0.37153 0.66827 0.62971 0.0
O1222 O 0.3686 0.64118 0.59393 0.0
O1223 O 0.40691 0.68968 0.59941 0.0
O1224 O 0.37454 0.72251 0.65588 0.0
O1225 O 0.42089 0.76408 0.6145 0.0
O1226 O 0.38339 0.50136 0.61302 0.0
O1227 O 0.41021 0.61419 0.62937 0.0
O1228 O 0.41182 0.64551 0.66667 0.0
O1229 O 0.37641 0.58808 0.65897 0.0
O1230 O 0.4078 0.55906 0.6034 0.0
O1231 O 0.36012 0.5171 0.64285 0.0
C1232 C 0.35823 0.69384 0.64443 0.0
C1233 C 0.42494 0.85173 0.63155 0.0
C1234 C 0.42803 0.95188 0.63401 0.0
C1235 C 0.41363 0.90401 0.62917 0.0
C1236 C 0.45383 0.94625 0.64153 0.0
C1237 C 0.45074 0.84741 0.63892 0.0
C1238 C 0.46503 0.89442 0.64393 0.0
C1239 C 0.38737 0.6732 0.58631 0.0
C1240 C 0.40957 0.80223 0.62644 0.0
C1241 C 0.50077 0.71455 0.6876 0.0
C1242 C 0.51218 0.69957 0.66679 0.0
C1243 C 0.42383 0.58771 0.61519 0.0
C1244 C 0.35475 0.43114 0.62453 0.0
C1245 C 0.3656 0.37835 0.62651 0.0
C1246 C 0.35074 0.33122 0.62151 0.0
C1247 C 0.3249 0.3381 0.6143 0.0
C1248 C 0.32892 0.43676 0.61744 0.0
C1249 C 0.31414 0.39046 0.6123 0.0
C1250 C 0.3948 0.6072 0.67273 0.0
C1251 C 0.37068 0.47964 0.62996 0.0
H1252 H 0.39378 0.90731 0.62322 0.0
H1253 H 0.46534 0.98194 0.64583 0.0
H1254 H 0.45988 0.80783 0.64074 0.0
H1255 H 0.48489 0.89068 0.64973 0.0
H1256 H 0.38546 0.37409 0.6323 0.0
H1257 H 0.31303 0.30301 0.60992 0.0
H1258 H 0.32012 0.47675 0.61594 0.0
H1259 H 0.29424 0.39518 0.60674 0.0
Tb1260 Tb 0.62483 0.34964 0.63786 0.0
C1261 C 0.71032 0.47552 0.58814 0.0
C1262 C 0.74923 0.45766 0.60993 0.0
C1263 C 0.75219 0.47491 0.56911 0.0
C1264 C 0.72204 0.46295 0.60859 0.0
C1265 C 0.72522 0.4827 0.56819 0.0
C1266 C 0.76419 0.46241 0.58997 0.0
C1267 C 0.68597 0.50892 0.54847 0.0
N1268 N 0.68429 0.4831 0.58807 0.0
C1269 C 0.67207 0.50162 0.56877 0.0
C1270 C 0.71262 0.49881 0.5481 0.0
Tb1271 Tb 0.66298 0.46789 0.6219 0.0
N1272 N 0.70689 0.45954 0.62746 0.0
C1273 C 0.71807 0.45516 0.64858 0.0
C1274 C 0.76058 0.44965 0.63137 0.0
C1275 C 0.74495 0.4493 0.65081 0.0
H1276 H 0.65146 0.50917 0.56877 0.0
H1277 H 0.75357 0.4443 0.66754 0.0
H1278 H 0.78509 0.45795 0.5906 0.0
H1279 H 0.67609 0.52222 0.53312 0.0
H1280 H 0.70637 0.45449 0.66382 0.0
H1281 H 0.53451 0.36476 0.59106 0.0
H1282 H 0.78139 0.44523 0.63314 0.0
H1283 H 0.63595 0.31299 0.6917 0.0
H1284 H 0.58168 0.3577 0.59535 0.0
H1285 H 0.61099 0.30201 0.72726 0.0
H1286 H 0.76399 0.47977 0.55394 0.0
H1287 H 0.50625 0.36498 0.62517 0.0
H1288 H 0.50215 0.35591 0.66782 0.0
H1289 H 0.72335 0.50465 0.53237 0.0
H1290 H 0.52299 0.33851 0.70499 0.0
N1291 N 0.58085 0.35524 0.63176 0.0
C1292 C 0.56987 0.3575 0.6105 0.0
C1293 C 0.52708 0.36181 0.62721 0.0
C1294 C 0.53824 0.35622 0.64884 0.0
C1295 C 0.54296 0.36154 0.60793 0.0
C1296 C 0.56548 0.35249 0.65051 0.0
H1297 H 0.56358 0.31754 0.72729 0.0
N1298 N 0.60316 0.33606 0.67167 0.0
C1299 C 0.6012 0.31359 0.71163 0.0
C1300 C 0.57706 0.34237 0.67125 0.0
C1301 C 0.61528 0.31968 0.69137 0.0
C1302 C 0.57446 0.32253 0.71159 0.0
C1303 C 0.56197 0.33624 0.69116 0.0
O1304 O 0.63679 0.26945 0.64628 0.0
O1305 O 0.66325 0.38135 0.63013 0.0
O1306 O 0.66576 0.40867 0.59417 0.0
O1307 O 0.62757 0.35956 0.60012 0.0
O1308 O 0.66033 0.32743 0.65642 0.0
O1309 O 0.61418 0.28473 0.61606 0.0
O1310 O 0.65135 0.5488 0.61442 0.0
O1311 O 0.62484 0.43541 0.62926 0.0
O1312 O 0.62146 0.41051 0.66535 0.0
O1313 O 0.65995 0.45824 0.65933 0.0
O1314 O 0.62708 0.49217 0.60406 0.0
O1315 O 0.67491 0.53136 0.6439 0.0
C1316 C 0.67664 0.35544 0.6447 0.0
C1317 C 0.60926 0.19815 0.63404 0.0
C1318 C 0.60597 0.09796 0.63642 0.0
C1319 C 0.62045 0.14576 0.63161 0.0
C1320 C 0.58017 0.10381 0.64389 0.0
C1321 C 0.58349 0.20269 0.64142 0.0
C1322 C 0.56909 0.15575 0.64634 0.0
C1323 C 0.64689 0.37645 0.58679 0.0
C1324 C 0.62481 0.24747 0.62901 0.0
C1325 C 0.53493 0.34258 0.68986 0.0
C1326 C 0.52307 0.35254 0.66871 0.0
C1327 C 0.61112 0.46225 0.61532 0.0
C1328 C 0.67993 0.61853 0.62641 0.0
C1329 C 0.66891 0.67113 0.62867 0.0
C1330 C 0.68358 0.71864 0.62384 0.0
C1331 C 0.70942 0.71232 0.61653 0.0
C1332 C 0.70573 0.61349 0.61918 0.0
C1333 C 0.72033 0.66017 0.61424 0.0
C1334 C 0.64006 0.44399 0.67243 0.0
C1335 C 0.66416 0.56956 0.6315 0.0
H1336 H 0.6403 0.14233 0.62569 0.0
H1337 H 0.56858 0.06821 0.64815 0.0
H1338 H 0.57449 0.24237 0.64337 0.0
H1339 H 0.54924 0.15964 0.65213 0.0
H1340 H 0.64904 0.67492 0.6345 0.0
H1341 H 0.72115 0.74768 0.61226 0.0
H1342 H 0.71462 0.57363 0.61738 0.0
H1343 H 0.74021 0.65591 0.60857 0.0
H1344 H 0.20586 0.22245 0.17916 0.0
H1345 H 0.32464 0.34314 0.10514 0.0
H1346 H 0.20585 0.2135 0.10572 0.0
H1347 H 0.32461 0.32409 0.17826 0.0
H1348 H 0.28089 0.30147 0.10381 0.0
H1349 H 0.24897 0.26321 0.17811 0.0
C1350 C 0.21514 0.22847 0.16275 0.0
C1351 C 0.20232 0.21341 0.14257 0.0
C1352 C 0.29043 0.30673 0.12013 0.0
C1353 C 0.25206 0.26218 0.14107 0.0
C1354 C 0.3153 0.33109 0.12092 0.0
C1355 C 0.32817 0.33817 0.14194 0.0
C1356 C 0.27841 0.2891 0.1405 0.0
C1357 C 0.31537 0.32016 0.16173 0.0
C1358 C 0.23983 0.25207 0.16212 0.0
C1359 C 0.21521 0.22331 0.12175 0.0
N1360 N 0.29142 0.29688 0.16052 0.0
N1361 N 0.23932 0.2472 0.12152 0.0
H1362 H 0.82466 0.84247 0.10627 0.0
H1363 H 0.70523 0.72457 0.18016 0.0
H1364 H 0.82506 0.82211 0.17933 0.0
H1365 H 0.70634 0.71144 0.10684 0.0
H1366 H 0.74845 0.76501 0.17921 0.0
H1367 H 0.78085 0.80119 0.10502 0.0
C1368 C 0.81541 0.83021 0.12206 0.0
C1369 C 0.8284 0.83691 0.14304 0.0
C1370 C 0.73952 0.753 0.16324 0.0
C1371 C 0.77854 0.78828 0.14168 0.0
C1372 C 0.71477 0.72962 0.16381 0.0
C1373 C 0.70225 0.71338 0.14364 0.0
C1374 C 0.75209 0.76178 0.14224 0.0
C1375 C 0.71546 0.72211 0.12288 0.0
C1376 C 0.7905 0.80607 0.12132 0.0
C1377 C 0.81571 0.81855 0.16283 0.0
N1378 N 0.73961 0.74583 0.1227 0.0
N1379 N 0.79168 0.79555 0.16167 0.0
H1380 H 0.32546 0.72229 0.32379 0.0
H1381 H 0.20683 0.84259 0.39811 0.0
H1382 H 0.32513 0.71085 0.39718 0.0
H1383 H 0.2071 0.82595 0.32489 0.0
H1384 H 0.25046 0.80021 0.39934 0.0
H1385 H 0.28249 0.76377 0.32493 0.0
C1386 C 0.31612 0.7279 0.3402 0.0
C1387 C 0.32881 0.71198 0.36033 0.0
C1388 C 0.24099 0.80618 0.38302 0.0
C1389 C 0.27925 0.76157 0.36195 0.0
C1390 C 0.2162 0.83094 0.3823 0.0
C1391 C 0.20344 0.83885 0.36128 0.0
C1392 C 0.25303 0.78899 0.3626 0.0
C1393 C 0.21626 0.82136 0.34143 0.0
C1394 C 0.29152 0.75192 0.34088 0.0
C1395 C 0.31586 0.72134 0.38117 0.0
N1396 N 0.24013 0.79767 0.34258 0.0
N1397 N 0.29184 0.74567 0.38146 0.0
H1398 H 0.82532 0.20836 0.39781 0.0
H1399 H 0.70679 0.33023 0.32373 0.0
H1400 H 0.82531 0.22692 0.32466 0.0
H1401 H 0.70713 0.34 0.39715 0.0
H1402 H 0.7498 0.28885 0.32475 0.0
H1403 H 0.78171 0.25071 0.39907 0.0
C1404 C 0.81601 0.22042 0.38201 0.0
C1405 C 0.82883 0.213 0.361 0.0
C1406 C 0.74076 0.30033 0.34073 0.0
C1407 C 0.77926 0.26289 0.36237 0.0
C1408 C 0.71614 0.32429 0.34012 0.0
C1409 C 0.70346 0.33977 0.3603 0.0
C1410 C 0.75303 0.29026 0.36178 0.0
C1411 C 0.7164 0.32992 0.38112 0.0
C1412 C 0.79123 0.24518 0.38276 0.0
C1413 C 0.81609 0.23109 0.34118 0.0
N1414 N 0.74043 0.30565 0.38133 0.0
N1415 N 0.79222 0.25477 0.34236 0.0
H1416 H 0.70577 0.70604 0.89806 0.0
H1417 H 0.82455 0.82555 0.82372 0.0
H1418 H 0.70583 0.72329 0.82486 0.0
H1419 H 0.82383 0.83833 0.89706 0.0
H1420 H 0.7816 0.78395 0.82485 0.0
H1421 H 0.74943 0.74812 0.89924 0.0
C1422 C 0.7151 0.71776 0.88224 0.0
C1423 C 0.70226 0.71011 0.86124 0.0
C1424 C 0.79055 0.79613 0.84079 0.0
C1425 C 0.75192 0.75962 0.8625 0.0
C1426 C 0.81514 0.82019 0.84012 0.0
C1427 C 0.8277 0.8366 0.86024 0.0
C1428 C 0.77817 0.78689 0.86185 0.0
C1429 C 0.81466 0.8275 0.88106 0.0
C1430 C 0.73992 0.74236 0.88293 0.0
C1431 C 0.71505 0.72768 0.84138 0.0
N1432 N 0.79067 0.80313 0.88134 0.0
N1433 N 0.73896 0.75119 0.8425 0.0
H1434 H 0.32311 0.34302 0.89645 0.0
H1435 H 0.20637 0.21408 0.82191 0.0
H1436 H 0.32434 0.32253 0.82341 0.0
H1437 H 0.20408 0.21753 0.8954 0.0
H1438 H 0.24908 0.25737 0.82288 0.0
H1439 H 0.27921 0.30235 0.89728 0.0
C1440 C 0.31402 0.33091 0.88057 0.0
C1441 C 0.3273 0.33732 0.85973 0.0
C1442 C 0.23948 0.24841 0.83889 0.0
C1443 C 0.2773 0.28922 0.86061 0.0
C1444 C 0.21504 0.22342 0.83832 0.0
C1445 C 0.20182 0.2107 0.85857 0.0
C1446 C 0.251 0.26208 0.85993 0.0
C1447 C 0.21384 0.22512 0.87935 0.0
C1448 C 0.28903 0.30715 0.88107 0.0
C1449 C 0.31478 0.31913 0.83981 0.0
N1450 N 0.23771 0.2499 0.8795 0.0
N1451 N 0.2907 0.29627 0.84075 0.0
H1452 H 0.70744 0.32702 0.67984 0.0
H1453 H 0.82691 0.20844 0.60616 0.0
H1454 H 0.70827 0.33829 0.60645 0.0
H1455 H 0.827 0.22838 0.67924 0.0
H1456 H 0.78308 0.24969 0.6048 0.0
H1457 H 0.75069 0.28666 0.67897 0.0
C1458 C 0.71693 0.32158 0.66349 0.0
C1459 C 0.70432 0.3372 0.64327 0.0
C1460 C 0.79267 0.24472 0.62112 0.0
C1461 C 0.75419 0.28894 0.64197 0.0
C1462 C 0.81758 0.2206 0.62193 0.0
C1463 C 0.83049 0.21381 0.64294 0.0
C1464 C 0.78062 0.26242 0.64146 0.0
C1465 C 0.81772 0.23204 0.66271 0.0
C1466 C 0.74169 0.29824 0.66296 0.0
C1467 C 0.71746 0.32804 0.62252 0.0
N1468 N 0.79369 0.25504 0.66148 0.0
N1469 N 0.74163 0.30438 0.62238 0.0
H1470 H 0.20815 0.84146 0.60569 0.0
H1471 H 0.32751 0.72254 0.67953 0.0
H1472 H 0.20837 0.8226 0.67883 0.0
H1473 H 0.3267 0.71137 0.60614 0.0
H1474 H 0.28438 0.76338 0.67859 0.0
H1475 H 0.25197 0.80009 0.60435 0.0
C1476 C 0.21755 0.82954 0.62147 0.0
C1477 C 0.20474 0.8366 0.6425 0.0
C1478 C 0.29335 0.75171 0.6626 0.0
C1479 C 0.25454 0.78789 0.64104 0.0
C1480 C 0.31804 0.72809 0.66316 0.0
C1481 C 0.33061 0.71232 0.64297 0.0
C1482 C 0.2809 0.76114 0.64158 0.0
C1483 C 0.31752 0.72167 0.62219 0.0
C1484 C 0.24245 0.80536 0.62067 0.0
C1485 C 0.21758 0.81872 0.66229 0.0
N1486 N 0.29342 0.74558 0.62201 0.0
N1487 N 0.24158 0.79562 0.66108 0.0
H1488 H 0.18074 0.98643 0.30609 0.0
H1489 H 0.09722 0.09884 0.20162 0.0
H1490 H 0.09857 0.95491 0.3013 0.0
H1491 H 0.17877 0.06089 0.19648 0.0
H1492 H 0.09679 0.05809 0.24005 0.0
H1493 H 0.17985 0.02545 0.26773 0.0
C1494 C 0.16247 0.98766 0.29698 0.0
C1495 C 0.13969 0.96725 0.30698 0.0
C1496 C 0.11471 0.0587 0.23042 0.0
C1497 C 0.13852 1.01274 0.26297 0.0
C1498 C 0.11504 0.08222 0.20857 0.0
C1499 C 0.13808 0.08331 0.19577 0.0
C1500 C 0.1377 0.03706 0.23968 0.0
C1501 C 0.16054 0.06086 0.20563 0.0
C1502 C 0.16201 1.00986 0.27502 0.0
C1503 C 0.11662 0.96991 0.29422 0.0
N1504 N 0.15981 0.03906 0.22699 0.0
N1505 N 0.11656 0.99269 0.27293 0.0
H1506 H 0.92693 0.13258 0.29534 0.0
H1507 H 0.8834 0.88879 0.21356 0.0
H1508 H 0.86392 1.02355 0.31249 0.0
H1509 H 0.90789 0.04424 0.18608 0.0
H1510 H 0.88471 0.92842 0.25221 0.0
H1511 H 0.92823 0.0922 0.25699 0.0
C1512 C 0.91323 0.10068 0.29109 0.0
C1513 C 0.89491 0.08254 0.30716 0.0
C1514 C 0.88996 0.95369 0.23771 0.0
C1515 C 0.89713 0.03447 0.26363 0.0
C1516 C 0.88938 0.93104 0.21577 0.0
C1517 C 0.89566 0.96343 0.19683 0.0
C1518 C 0.89733 1.00875 0.24066 0.0
C1519 C 0.90295 1.01815 0.20041 0.0
C1520 C 0.91412 0.07741 0.26923 0.0
C1521 C 0.87823 0.03954 0.30073 0.0
N1522 N 0.90375 0.03913 0.22195 0.0
N1523 N 0.87985 1.01682 0.27957 0.0
H1524 H 0.88318 0.16112 0.71349 0.0
H1525 H 0.92709 0.91838 0.79595 0.0
H1526 H 0.9109 1.00752 0.68663 0.0
H1527 H 0.86307 0.02565 0.81219 0.0
H1528 H 0.92899 0.95917 0.7577 0.0
H1529 H 0.88378 0.12138 0.75216 0.0
C1530 C 0.8897 0.11927 0.71586 0.0
C1531 C 0.89712 0.08742 0.69708 0.0
C1532 C 0.91452 0.97349 0.7697 0.0
C1533 C 0.89796 0.04195 0.74092 0.0
C1534 C 0.91329 0.94998 0.79151 0.0
C1535 C 0.89452 0.96751 0.8073 0.0
C1536 C 0.8974 1.01605 0.76387 0.0
C1537 C 0.87772 1.01015 0.80065 0.0
C1538 C 0.88989 0.09654 0.7378 0.0
C1539 C 0.90512 0.03319 0.70083 0.0
N1540 N 0.87966 0.0331 0.77954 0.0
N1541 N 0.90547 1.01213 0.72237 0.0
H1542 H 0.15062 0.15284 0.79235 0.0
H1543 H 0.10888 0.91176 0.70977 0.0
H1544 H 0.13212 0.99368 0.81984 0.0
H1545 H 0.17113 1.0224 0.69231 0.0
H1546 H 0.10918 0.94863 0.74876 0.0
H1547 H 0.14998 0.11367 0.75369 0.0
C1548 C 0.14621 0.10975 0.79018 0.0
C1549 C 0.14134 0.07636 0.80917 0.0
C1550 C 0.12281 0.96442 0.73632 0.0
C1551 C 0.14027 0.03156 0.76519 0.0
C1552 C 0.12277 0.9432 0.71408 0.0
C1553 C 0.14038 0.96287 0.6977 0.0
C1554 C 0.13997 1.00696 0.74201 0.0
C1555 C 0.15733 1.0053 0.70427 0.0
C1556 C 0.14601 0.0874 0.7682 0.0
C1557 C 0.13609 1.02057 0.80554 0.0
N1558 N 0.15655 0.02615 0.7258 0.0
N1559 N 0.13542 0.99991 0.78392 0.0
H1560 H 0.66905 0.52865 0.31328 0.0
H1561 H 0.62162 0.50626 0.18527 0.0
H1562 H 0.60558 0.42157 0.2953 0.0
H1563 H 0.64873 0.65883 0.21355 0.0
H1564 H 0.6203 0.46693 0.22402 0.0
H1565 H 0.66674 0.56974 0.27539 0.0
C1566 C 0.65469 0.51332 0.3014 0.0
C1567 C 0.6377 0.47068 0.30757 0.0
C1568 C 0.62629 0.50915 0.22174 0.0
C1569 C 0.63528 0.51768 0.26383 0.0
C1570 C 0.62709 0.53146 0.19973 0.0
C1571 C 0.63508 0.58581 0.19645 0.0
C1572 C 0.63422 0.54111 0.24043 0.0
C1573 C 0.64222 0.61691 0.21554 0.0
C1574 C 0.65336 0.53714 0.27975 0.0
C1575 C 0.61944 0.45331 0.29127 0.0
N1576 N 0.6419 0.59393 0.23674 0.0
N1577 N 0.61889 0.47642 0.27006 0.0
H1578 H 0.35146 0.56468 0.3062 0.0
H1579 H 0.43408 0.4516 0.20139 0.0
H1580 H 0.43365 0.59568 0.30118 0.0
H1581 H 0.35245 0.48947 0.19706 0.0
H1582 H 0.435 0.49225 0.23985 0.0
H1583 H 0.35215 0.5252 0.268 0.0
C1584 C 0.36969 0.56324 0.29707 0.0
C1585 C 0.39253 0.58363 0.30695 0.0
C1586 C 0.41695 0.49162 0.23039 0.0
C1587 C 0.39348 0.53763 0.26309 0.0
C1588 C 0.41635 0.46813 0.20854 0.0
C1589 C 0.39313 0.46711 0.19596 0.0
C1590 C 0.39408 0.51325 0.23983 0.0
C1591 C 0.3708 0.48945 0.20603 0.0
C1592 C 0.37004 0.54076 0.27519 0.0
C1593 C 0.41557 0.58069 0.29416 0.0
N1594 N 0.37181 0.51123 0.22736 0.0
N1595 N 0.41551 0.55768 0.27292 0.0
H1596 H 0.39057 0.54934 0.81852 0.0
H1597 H 0.38383 0.50169 0.68456 0.0
H1598 H 0.39893 0.38899 0.78857 0.0
H1599 H 0.40933 0.65493 0.71346 0.0
H1600 H 0.38501 0.46051 0.72264 0.0
H1601 H 0.39309 0.59009 0.78028 0.0
C1602 C 0.39306 0.52272 0.80387 0.0
C1603 C 0.39484 0.46568 0.8067 0.0
C1604 C 0.3905 0.50311 0.72062 0.0
C1605 C 0.39737 0.51189 0.76295 0.0
C1606 C 0.38968 0.52681 0.69891 0.0
C1607 C 0.39648 0.5821 0.69577 0.0
C1608 C 0.39767 0.53515 0.73949 0.0
C1609 C 0.40417 0.61231 0.71499 0.0
C1610 C 0.39463 0.546 0.78211 0.0
C1611 C 0.39807 0.43307 0.7872 0.0
N1612 N 0.40429 0.58867 0.73607 0.0
N1613 N 0.39897 0.45656 0.76611 0.0
H1614 H 0.67988 0.56396 0.80638 0.0
H1615 H 0.5979 0.451 0.70119 0.0
H1616 H 0.59764 0.59438 0.80116 0.0
H1617 H 0.67947 0.48944 0.69715 0.0
H1618 H 0.59674 0.49175 0.73962 0.0
H1619 H 0.67943 0.52509 0.76808 0.0
C1620 C 0.66168 0.56253 0.79718 0.0
C1621 C 0.63876 0.58255 0.80705 0.0
C1622 C 0.61483 0.49124 0.73022 0.0
C1623 C 0.63809 0.53724 0.76305 0.0
C1624 C 0.61556 0.46771 0.70839 0.0
C1625 C 0.63884 0.46676 0.6959 0.0
C1626 C 0.63761 0.51302 0.73976 0.0
C1627 C 0.66108 0.48934 0.70604 0.0
C1628 C 0.66147 0.5404 0.77524 0.0
C1629 C 0.61579 0.57966 0.79416 0.0
N1630 N 0.65994 0.51116 0.72736 0.0
N1631 N 0.61597 0.55697 0.77286 0.0
H1632 H 0.18404 0.20039 0.94433 0.0
H1633 H 0.10159 0.20406 0.06031 0.0
H1634 H 0.10051 0.19373 0.94543 0.0
H1635 H 0.18426 0.17823 0.05675 0.0
H1636 H 0.10071 0.2167 0.01872 0.0
H1637 H 0.18423 0.20925 0.98581 0.0
C1638 C 0.16567 0.2018 0.95329 0.0
C1639 C 0.14221 0.19611 0.94137 0.0
C1640 C 0.11905 0.20875 0.02711 0.0
C1641 C 0.14226 0.20592 0.98907 0.0
C1642 C 0.11959 0.20182 0.05087 0.0
C1643 C 0.143 0.18954 0.06203 0.0
C1644 C 0.14213 0.20394 0.01449 0.0
C1645 C 0.16571 0.18694 0.04887 0.0
C1646 C 0.16579 0.20668 0.97701 0.0
C1647 C 0.11901 0.19851 0.95386 0.0
N1648 N 0.16468 0.19378 0.02586 0.0
N1649 N 0.11961 0.20266 0.97709 0.0
H1650 H 0.92552 0.84597 0.94408 0.0
H1651 H 0.8425 0.8812 0.0586 0.0
H1652 H 0.84331 0.8786 0.94585 0.0
H1653 H 0.92462 0.84726 0.0589 0.0
H1654 H 0.84214 0.8714 0.01723 0.0
H1655 H 0.9253 0.83672 0.98581 0.0
C1656 C 0.90738 0.85048 0.95317 0.0
C1657 C 0.88448 0.8639 0.94146 0.0
C1658 C 0.86025 0.86559 0.02628 0.0
C1659 C 0.8841 0.85368 0.98918 0.0
C1660 C 0.86048 0.87133 0.04997 0.0
C1661 C 0.88371 0.86586 0.06225 0.0
C1662 C 0.88345 0.85433 0.01461 0.0
C1663 C 0.90629 0.85206 0.05013 0.0
C1664 C 0.90729 0.84543 0.97702 0.0
C1665 C 0.86154 0.86922 0.95417 0.0
N1666 N 0.90566 0.84734 0.02694 0.0
N1667 N 0.86198 0.86456 0.97728 0.0
H1668 H 0.10442 0.85015 0.44406 0.0
H1669 H 0.18871 0.87888 0.55833 0.0
H1670 H 0.18693 0.87912 0.44582 0.0
H1671 H 0.10616 0.85036 0.55926 0.0
H1672 H 0.18846 0.86979 0.51697 0.0
H1673 H 0.10468 0.84035 0.48583 0.0
C1674 C 0.12262 0.85366 0.45315 0.0
C1675 C 0.14563 0.86615 0.44142 0.0
C1676 C 0.17037 0.865 0.52613 0.0
C1677 C 0.14605 0.85534 0.48915 0.0
C1678 C 0.17049 0.87029 0.54983 0.0
C1679 C 0.14735 0.86609 0.5623 0.0
C1680 C 0.1469 0.8555 0.5146 0.0
C1681 C 0.12444 0.85405 0.55033 0.0
C1682 C 0.12274 0.84834 0.47701 0.0
C1683 C 0.16864 0.87036 0.45413 0.0
N1684 N 0.12473 0.84975 0.5271 0.0
N1685 N 0.16821 0.8654 0.47722 0.0
H1686 H 0.92794 0.2037 0.55962 0.0
H1687 H 0.84397 0.17132 0.44537 0.0
H1688 H 0.84592 0.16897 0.55804 0.0
H1689 H 0.9264 0.20137 0.44469 0.0
H1690 H 0.84401 0.18049 0.48675 0.0
H1691 H 0.92745 0.21343 0.51791 0.0
C1692 C 0.90978 0.19877 0.55057 0.0
C1693 C 0.88701 0.18469 0.56235 0.0
C1694 C 0.86212 0.18559 0.47762 0.0
C1695 C 0.88633 0.19557 0.51464 0.0
C1696 C 0.86211 0.18028 0.45393 0.0
C1697 C 0.88529 0.1848 0.44153 0.0
C1698 C 0.8855 0.19553 0.48921 0.0
C1699 C 0.9081 0.19737 0.45356 0.0
C1700 C 0.90954 0.20411 0.52674 0.0
C1701 C 0.86405 0.17887 0.54969 0.0
N1702 N 0.90769 0.20173 0.47678 0.0
N1703 N 0.86435 0.18393 0.52659 0.0
H1704 H 0.60431 0.70388 0.05971 0.0
H1705 H 0.68704 0.67083 0.94493 0.0
H1706 H 0.68643 0.67044 0.05753 0.0
H1707 H 0.60448 0.69947 0.94476 0.0
H1708 H 0.68743 0.68102 0.98624 0.0
H1709 H 0.60426 0.7131 0.01799 0.0
C1710 C 0.62238 0.69915 0.05053 0.0
C1711 C 0.64534 0.68555 0.06214 0.0
C1712 C 0.6692 0.68563 0.97725 0.0
C1713 C 0.6454 0.69585 0.01441 0.0
C1714 C 0.66896 0.67974 0.95359 0.0
C1715 C 0.64561 0.68358 0.94135 0.0
C1716 C 0.64591 0.69539 0.98897 0.0
C1717 C 0.62289 0.69605 0.9535 0.0
C1718 C 0.62231 0.70419 0.02669 0.0
C1719 C 0.66817 0.67997 0.04931 0.0
N1720 N 0.62355 0.70093 0.9767 0.0
N1721 N 0.66757 0.68472 0.0262 0.0
H1722 H 0.3419 0.37984 0.94495 0.0
H1723 H 0.42614 0.34746 0.05904 0.0
H1724 H 0.42409 0.34677 0.94418 0.0
H1725 H 0.3439 0.38001 0.0576 0.0
H1726 H 0.42553 0.33717 0.01733 0.0
H1727 H 0.34198 0.37063 0.98635 0.0
C1728 C 0.35999 0.37027 0.95349 0.0
C1729 C 0.38311 0.36492 0.94106 0.0
C1730 C 0.4076 0.34607 0.0262 0.0
C1731 C 0.38336 0.35409 0.98873 0.0
C1732 C 0.40792 0.35169 0.05003 0.0
C1733 C 0.38511 0.36538 0.06182 0.0
C1734 C 0.38428 0.35399 0.01415 0.0
C1735 C 0.36206 0.37039 0.04922 0.0
C1736 C 0.36002 0.36488 0.97719 0.0
C1737 C 0.40584 0.3515 0.95306 0.0
N1738 N 0.36229 0.36515 0.02614 0.0
N1739 N 0.40547 0.34713 0.97627 0.0
H1740 H 0.68858 0.3753 0.44489 0.0
H1741 H 0.60554 0.3462 0.55972 0.0
H1742 H 0.60585 0.3491 0.44474 0.0
H1743 H 0.68792 0.3765 0.55745 0.0
H1744 H 0.60545 0.33626 0.51801 0.0
H1745 H 0.68889 0.36524 0.48623 0.0
C1746 C 0.67045 0.36694 0.45356 0.0
C1747 C 0.64709 0.36377 0.44133 0.0
C1748 C 0.62356 0.34457 0.5267 0.0
C1749 C 0.64727 0.35212 0.48897 0.0
C1750 C 0.62365 0.34999 0.55053 0.0
C1751 C 0.64671 0.36291 0.5621 0.0
C1752 C 0.64673 0.35188 0.51441 0.0
C1753 C 0.66959 0.36742 0.54926 0.0
C1754 C 0.67064 0.36113 0.47723 0.0
C1755 C 0.62429 0.35199 0.45349 0.0
N1756 N 0.66897 0.36235 0.52617 0.0
N1757 N 0.62489 0.34719 0.47669 0.0
H1758 H 0.42839 0.7037 0.55896 0.0
H1759 H 0.34429 0.67431 0.44477 0.0
H1760 H 0.34601 0.67319 0.5573 0.0
H1761 H 0.42693 0.70169 0.44406 0.0
H1762 H 0.34434 0.68432 0.48609 0.0
H1763 H 0.42804 0.7139 0.51727 0.0
C1764 C 0.41019 0.69986 0.5499 0.0
C1765 C 0.38727 0.68675 0.56163 0.0
C1766 C 0.36249 0.68871 0.47697 0.0
C1767 C 0.38673 0.69814 0.51397 0.0
C1768 C 0.36248 0.68293 0.45331 0.0
C1769 C 0.38571 0.68644 0.44092 0.0
C1770 C 0.38594 0.69801 0.48854 0.0
C1771 C 0.40859 0.69852 0.45292 0.0
C1772 C 0.41002 0.70545 0.52608 0.0
C1773 C 0.36425 0.68232 0.54897 0.0
N1774 N 0.40819 0.70327 0.47613 0.0
N1775 N 0.36462 0.68755 0.52589 0.0
H1776 H 0.95204 0.99177 0.08038 0.0
H1777 H 0.07765 0.07642 0.1542 0.0
H1778 H 0.95392 0.97355 0.15352 0.0
H1779 H 0.07626 0.06326 0.08087 0.0
H1780 H 0.03214 0.04485 0.15533 0.0
H1781 H 0.99693 1.02363 0.08113 0.0
C1782 C 0.96205 0.99405 0.09664 0.0
C1783 C 0.94936 0.9785 0.11681 0.0
C1784 C 0.04177 0.04916 0.139 0.0
C1785 C 1.00108 1.0166 0.11797 0.0
C1786 C 0.06767 0.06773 0.13834 0.0
C1787 C 0.08059 0.07396 0.11733 0.0
C1788 C 0.02872 0.03648 0.11851 0.0
C1789 C 0.06696 0.06004 0.0974 0.0
C1790 C 0.98775 1.01236 0.09708 0.0
C1791 C 0.96316 0.98361 0.13747 0.0
N1792 N 0.04191 0.04249 0.09847 0.0
N1793 N 0.98826 1.00217 0.13752 0.0
H1794 H 0.95306 0.05871 0.4231 0.0
H1795 H 0.07867 0.97628 0.34892 0.0
H1796 H 0.95441 0.07655 0.34994 0.0
H1797 H 0.07782 0.99114 0.4222 0.0
H1798 H 0.03299 1.00687 0.34793 0.0
H1799 H 0.99815 0.02805 0.42222 0.0
C1800 C 0.96298 0.05658 0.40681 0.0
C1801 C 0.95008 0.07169 0.38667 0.0
C1802 C 0.04278 1.00317 0.36422 0.0
C1803 C 1.00204 0.03501 0.38536 0.0
C1804 C 0.06878 0.98517 0.3648 0.0
C1805 C 0.08189 0.97962 0.38576 0.0
C1806 C 0.02982 1.01595 0.38473 0.0
C1807 C 0.06837 0.99379 0.40571 0.0
C1808 C 0.9888 0.03898 0.40629 0.0
C1809 C 0.9638 0.06681 0.36596 0.0
N1810 N 0.04322 1.01074 0.40471 0.0
N1811 N 0.98901 0.04894 0.36583 0.0
H1812 H 0.07854 0.06944 0.85073 0.0
H1813 H 0.95141 0.98969 0.92364 0.0
H1814 H 0.07411 0.0709 0.92415 0.0
H1815 H 0.95379 0.97227 0.8505 0.0
H1816 H 0.99629 1.02137 0.92324 0.0
H1817 H 0.03327 0.03622 0.84922 0.0
C1818 C 0.06793 0.06351 0.8665 0.0
C1819 C 0.07989 0.07452 0.88761 0.0
C1820 C 0.98724 1.01033 0.90721 0.0
C1821 C 0.02832 0.03515 0.88607 0.0
C1822 C 0.96153 0.99207 0.90746 0.0
C1823 C 0.94894 0.9769 0.88718 0.0
C1824 C 1.00074 1.01476 0.88642 0.0
C1825 C 0.96293 0.98207 0.86662 0.0
C1826 C 0.04217 0.04408 0.86565 0.0
C1827 C 0.06553 0.06407 0.9075 0.0
N1828 N 0.98805 1.00049 0.86676 0.0
N1829 N 0.04066 0.04551 0.90624 0.0
H1830 H 0.95493 0.0606 0.58109 0.0
H1831 H 0.07962 0.97232 0.65535 0.0
H1832 H 0.95593 0.07707 0.6543 0.0
H1833 H 0.07956 0.99303 0.5823 0.0
H1834 H 0.03408 1.00416 0.65636 0.0
H1835 H 0.99994 0.02948 0.5821 0.0
C1836 C 0.96477 0.05811 0.59741 0.0
C1837 C 0.95181 0.07298 0.61754 0.0
C1838 C 0.04404 1.00153 0.64013 0.0
C1839 C 1.00366 0.03567 0.619 0.0
C1840 C 0.06995 0.98288 0.63952 0.0
C1841 C 0.08323 0.97865 0.6186 0.0
C1842 C 0.03135 1.01617 0.61967 0.0
C1843 C 0.06999 0.99472 0.59874 0.0
C1844 C 0.99054 0.04023 0.59801 0.0
C1845 C 0.96541 0.06757 0.63829 0.0
N1846 N 0.04493 1.01218 0.59975 0.0
N1847 N 0.99057 0.04938 0.6385 0.0
H1848 H 0.45279 0.47532 0.15404 0.0
H1849 H 0.57816 0.5611 0.08025 0.0
H1850 H 0.45359 0.49172 0.08082 0.0
H1851 H 0.57663 0.57742 0.15346 0.0
H1852 H 0.53315 0.52995 0.08097 0.0
H1853 H 0.49833 0.5066 0.15515 0.0
C1854 C 0.46264 0.4847 0.13819 0.0
C1855 C 0.44955 0.4794 0.11721 0.0
C1856 C 0.54244 0.54066 0.09694 0.0
C1857 C 0.50148 0.51653 0.11838 0.0
C1858 C 0.56821 0.55856 0.09651 0.0
C1859 C 0.58103 0.57337 0.11673 0.0
C1860 C 0.52918 0.53607 0.11784 0.0
C1861 C 0.56728 0.56795 0.13739 0.0
C1862 C 0.48857 0.50309 0.13885 0.0
C1863 C 0.46303 0.49418 0.09732 0.0
N1864 N 0.54212 0.54977 0.13743 0.0
N1865 N 0.48811 0.51152 0.09838 0.0
H1866 H 0.45354 0.57511 0.34906 0.0
H1867 H 0.57879 0.49071 0.42349 0.0
H1868 H 0.45417 0.5596 0.42231 0.0
H1869 H 0.57784 0.47527 0.35024 0.0
H1870 H 0.53371 0.52145 0.42254 0.0
H1871 H 0.49919 0.54433 0.34815 0.0
C1872 C 0.46337 0.56603 0.36495 0.0
C1873 C 0.4502 0.57146 0.38588 0.0
C1874 C 0.54314 0.51104 0.40661 0.0
C1875 C 0.50225 0.5349 0.38496 0.0
C1876 C 0.56896 0.49338 0.40717 0.0
C1877 C 0.58197 0.47892 0.38701 0.0
C1878 C 0.53002 0.51571 0.38563 0.0
C1879 C 0.56836 0.48449 0.36627 0.0
C1880 C 0.48936 0.54792 0.36442 0.0
C1881 C 0.46366 0.55704 0.40585 0.0
N1882 N 0.54315 0.50239 0.3661 0.0
N1883 N 0.4888 0.53999 0.40491 0.0
H1884 H 0.45154 0.49079 0.92275 0.0
H1885 H 0.57744 0.57326 0.84892 0.0
H1886 H 0.45316 0.47243 0.84963 0.0
H1887 H 0.57646 0.55718 0.92215 0.0
H1888 H 0.53174 0.54288 0.84779 0.0
H1889 H 0.4966 0.52159 0.92194 0.0
C1890 C 0.46151 0.49287 0.90648 0.0
C1891 C 0.4487 0.47748 0.88633 0.0
C1892 C 0.5415 0.54626 0.8641 0.0
C1893 C 0.50066 0.51434 0.88511 0.0
C1894 C 0.56753 0.56414 0.86476 0.0
C1895 C 0.58062 0.56931 0.88575 0.0
C1896 C 0.52848 0.53325 0.88456 0.0
C1897 C 0.56704 0.55484 0.90564 0.0
C1898 C 0.48732 0.51054 0.90601 0.0
C1899 C 0.46249 0.48235 0.86566 0.0
N1900 N 0.54186 0.53806 0.90457 0.0
N1901 N 0.4877 0.50027 0.86558 0.0
H1902 H 0.45514 0.57694 0.65378 0.0
H1903 H 0.57962 0.48596 0.5799 0.0
H1904 H 0.45541 0.55708 0.58071 0.0
H1905 H 0.57902 0.47465 0.65329 0.0
H1906 H 0.53451 0.5165 0.58067 0.0
H1907 H 0.50052 0.54429 0.65493 0.0
C1908 C 0.46482 0.56634 0.63799 0.0
C1909 C 0.45166 0.57114 0.61702 0.0
C1910 C 0.54401 0.50695 0.59667 0.0
C1911 C 0.50336 0.53264 0.61823 0.0
C1912 C 0.56983 0.48936 0.59621 0.0
C1913 C 0.58294 0.47615 0.61647 0.0
C1914 C 0.53102 0.5129 0.61765 0.0
C1915 C 0.56944 0.48277 0.63719 0.0
C1916 C 0.49065 0.54725 0.63866 0.0
C1917 C 0.4649 0.55498 0.59718 0.0
N1918 N 0.54424 0.50068 0.63726 0.0
N1919 N 0.48988 0.53704 0.59826 0.0
H1920 H 0.13124 0.79936 0.11173 0.0
H1921 H 0.15452 0.48516 0.14734 0.0
H1922 H 0.20383 0.73787 0.1381 0.0
H1923 H 0.08191 0.54716 0.12123 0.0
H1924 H 0.17313 0.57699 0.14358 0.0
H1925 H 0.11281 0.7074 0.11529 0.0
C1926 C 0.14328 0.76669 0.11842 0.0
C1927 C 0.16919 0.77665 0.1246 0.0
C1928 C 0.15312 0.57051 0.13867 0.0
C1929 C 0.14822 0.67066 0.12844 0.0
C1930 C 0.14251 0.5179 0.14066 0.0
C1931 C 0.11653 0.50817 0.13465 0.0
C1932 C 0.1377 0.61394 0.13056 0.0
C1933 C 0.10188 0.55267 0.12642 0.0
C1934 C 0.13278 0.714 0.1203 0.0
C1935 C 0.1839 0.7322 0.1328 0.0
N1936 N 0.11264 0.60343 0.12464 0.0
N1937 N 0.17323 0.68132 0.13448 0.0
H1938 H 0.89785 0.25218 0.11047 0.0
H1939 H 0.87716 0.56622 0.14717 0.0
H1940 H 0.82728 0.31378 0.14069 0.0
H1941 H 0.94775 0.5043 0.11711 0.0
H1942 H 0.8583 0.47445 0.14441 0.0
H1943 H 0.91648 0.34417 0.11286 0.0
C1944 C 0.8863 0.28491 0.11774 0.0
C1945 C 0.86091 0.275 0.12538 0.0
C1946 C 0.87792 0.48094 0.13841 0.0
C1947 C 0.88207 0.38092 0.12791 0.0
C1948 C 0.88866 0.53349 0.13984 0.0
C1949 C 0.91415 0.5432 0.13241 0.0
C1950 C 0.89273 0.43756 0.12945 0.0
C1951 C 0.92819 0.49876 0.12338 0.0
C1952 C 0.89691 0.33759 0.11896 0.0
C1953 C 0.84678 0.31945 0.1343 0.0
N1954 N 0.91732 0.44803 0.12217 0.0
N1955 N 0.85754 0.37032 0.13532 0.0
H1956 H 0.20605 0.31474 0.36314 0.0
H1957 H 0.08213 0.50721 0.38374 0.0
H1958 H 0.13347 0.25604 0.39047 0.0
H1959 H 0.15463 0.56614 0.3563 0.0
H1960 H 0.10064 0.41526 0.38638 0.0
H1961 H 0.18767 0.40688 0.36066 0.0
C1962 C 0.18626 0.32116 0.36872 0.0
C1963 C 0.17137 0.27728 0.37714 0.0
C1964 C 0.11254 0.44826 0.3798 0.0
C1965 C 0.15003 0.3832 0.3741 0.0
C1966 C 0.10193 0.50088 0.37817 0.0
C1967 C 0.11675 0.54475 0.36965 0.0
C1968 C 0.13824 0.43901 0.37287 0.0
C1969 C 0.1425 0.5339 0.36317 0.0
C1970 C 0.17573 0.37388 0.36718 0.0
C1971 C 0.14565 0.28825 0.38366 0.0
N1972 N 0.15236 0.48221 0.36485 0.0
N1973 N 0.13586 0.34001 0.38206 0.0
H1974 H 0.87701 0.4836 0.35677 0.0
H1975 H 0.89843 0.79768 0.39314 0.0
H1976 H 0.94798 0.54526 0.38622 0.0
H1977 H 0.82731 0.73639 0.36384 0.0
H1978 H 0.91694 0.70558 0.39057 0.0
H1979 H 0.85822 0.57547 0.35971 0.0
C1980 C 0.8886 0.51629 0.36401 0.0
C1981 C 0.91419 0.50648 0.37119 0.0
C1982 C 0.89727 0.71225 0.3847 0.0
C1983 C 0.89284 0.61223 0.37436 0.0
C1984 C 0.88673 0.76501 0.38603 0.0
C1985 C 0.86122 0.77505 0.37871 0.0
C1986 C 0.88225 0.66896 0.37597 0.0
C1987 C 0.84691 0.73063 0.36999 0.0
C1988 C 0.8779 0.5689 0.36554 0.0
C1989 C 0.92834 0.55087 0.38012 0.0
N1990 N 0.85761 0.67969 0.36886 0.0
N1991 N 0.91751 0.60164 0.38143 0.0
H1992 H 0.82487 0.31178 0.86352 0.0
H1993 H 0.94801 0.50459 0.88655 0.0
H1994 H 0.89681 0.25349 0.89239 0.0
H1995 H 0.87631 0.56318 0.85733 0.0
H1996 H 0.92944 0.41272 0.88905 0.0
H1997 H 0.84315 0.40404 0.86144 0.0
C1998 C 0.84448 0.31833 0.86953 0.0
C1999 C 0.85925 0.27454 0.87824 0.0
C2000 C 0.91773 0.44562 0.88211 0.0
C2001 C 0.88047 0.38052 0.87567 0.0
C2002 C 0.92837 0.49818 0.88057 0.0
C2003 C 0.9138 0.5419 0.87157 0.0
C2004 C 0.89224 0.43631 0.87461 0.0
C2005 C 0.88824 0.53103 0.86456 0.0
C2006 C 0.85496 0.3711 0.86822 0.0
C2007 C 0.88475 0.28564 0.88533 0.0
N2008 N 0.87833 0.47938 0.86615 0.0
N2009 N 0.8945 0.33743 0.88394 0.0
H2010 H 0.20521 0.49219 0.86832 0.0
H2011 H 0.14187 0.78429 0.89785 0.0
H2012 H 0.12263 0.5157 0.87363 0.0
H2013 H 0.22358 0.75542 0.88728 0.0
H2014 H 0.13381 0.686 0.89175 0.0
H2015 H 0.21191 0.58749 0.87949 0.0
C2016 C 0.18849 0.51746 0.87218 0.0
C2017 C 0.16336 0.49629 0.87 0.0
C2018 C 0.15349 0.70132 0.89089 0.0
C2019 C 0.17074 0.60612 0.88232 0.0
C2020 C 0.15809 0.75748 0.89419 0.0
C2021 C 0.18349 0.77833 0.89325 0.0
C2022 C 0.17443 0.66583 0.88659 0.0
C2023 C 0.20374 0.74138 0.88864 0.0
C2024 C 0.19227 0.57199 0.87843 0.0
C2025 C 0.14232 0.53058 0.87525 0.0
N2026 N 0.19877 0.68726 0.88552 0.0
N2027 N 0.14645 0.58413 0.88093 0.0
H2028 H 0.8281 0.73817 0.6415 0.0
H2029 H 0.95098 0.54557 0.61695 0.0
H2030 H 0.89939 0.7965 0.6115 0.0
H2031 H 0.87971 0.48689 0.64685 0.0
H2032 H 0.93233 0.63746 0.61469 0.0
H2033 H 0.84651 0.64597 0.64335 0.0
C2034 C 0.8476 0.73164 0.63519 0.0
C2035 C 0.86215 0.77542 0.62624 0.0
C2036 C 0.92074 0.60452 0.62173 0.0
C2037 C 0.8835 0.66952 0.62854 0.0
C2038 C 0.93143 0.55197 0.62313 0.0
C2039 C 0.91699 0.50822 0.63223 0.0
C2040 C 0.89534 0.61378 0.62948 0.0
C2041 C 0.89153 0.51907 0.63952 0.0
C2042 C 0.85815 0.6789 0.63636 0.0
C2043 C 0.88751 0.76435 0.61876 0.0
N2044 N 0.88158 0.57069 0.63805 0.0
N2045 N 0.89733 0.71259 0.62003 0.0
H2046 H 0.13487 0.25157 0.61101 0.0
H2047 H 0.15635 0.56608 0.64673 0.0
H2048 H 0.20605 0.31324 0.64008 0.0
H2049 H 0.08531 0.50408 0.61754 0.0
H2050 H 0.17515 0.4742 0.64391 0.0
H2051 H 0.11636 0.34371 0.61342 0.0
C2052 C 0.14658 0.28434 0.61804 0.0
C2053 C 0.17211 0.2744 0.62533 0.0
C2054 C 0.15544 0.4807 0.63811 0.0
C2055 C 0.15107 0.38052 0.62789 0.0
C2056 C 0.14474 0.53332 0.63958 0.0
C2057 C 0.11913 0.54304 0.63243 0.0
C2058 C 0.14049 0.43727 0.62941 0.0
C2059 C 0.10496 0.49855 0.6236 0.0
C2060 C 0.13604 0.33711 0.61927 0.0
C2061 C 0.18643 0.31892 0.63394 0.0
N2062 N 0.1158 0.44777 0.62237 0.0
N2063 N 0.17573 0.36988 0.63498 0.0
H2064 H 0.63928 0.99044 0.10317 0.0
H2065 H 0.64794 0.29329 0.15618 0.0
H2066 H 0.59861 0.04096 0.16406 0.0
H2067 H 0.68859 0.24329 0.09521 0.0
H2068 H 0.62963 0.20115 0.15926 0.0
H2069 H 0.65811 0.08223 0.10029 0.0
C2070 C 0.63444 1.02064 0.11604 0.0
C2071 C 0.61724 1.00779 0.13386 0.0
C2072 C 0.64255 0.21031 0.1452 0.0
C2073 C 0.63854 0.11346 0.13049 0.0
C2074 C 0.65289 0.26311 0.14334 0.0
C2075 C 0.66986 0.27629 0.1254 0.0
C2076 C 0.64916 0.17014 0.129 0.0
C2077 C 0.67588 0.23497 0.1095 0.0
C2078 C 0.64508 0.07323 0.11429 0.0
C2079 C 0.61144 0.04907 0.14983 0.0
N2080 N 0.66555 0.1839 0.11167 0.0
N2081 N 0.62203 0.09991 0.14775 0.0
H2082 H 0.39876 0.75326 0.11201 0.0
H2083 H 0.37687 0.06771 0.14775 0.0
H2084 H 0.32718 0.81518 0.1402 0.0
H2085 H 0.44843 1.00561 0.11957 0.0
H2086 H 0.35817 0.97584 0.14473 0.0
H2087 H 0.41738 0.8452 0.11494 0.0
C2088 C 0.38698 0.78602 0.11897 0.0
C2089 C 0.3613 0.77621 0.12584 0.0
C2090 C 0.37797 0.9823 0.1392 0.0
C2091 C 0.38247 0.88213 0.12898 0.0
C2092 C 0.38862 0.03493 0.14078 0.0
C2093 C 0.41433 0.04465 0.13395 0.0
C2094 C 0.39307 0.93884 0.13071 0.0
C2095 C 0.42868 1.00011 0.12538 0.0
C2096 C 0.39759 0.83869 0.12049 0.0
C2097 C 0.34691 0.82074 0.13438 0.0
N2098 N 0.41787 0.94932 0.12401 0.0
N2099 N 0.35767 0.87159 0.1357 0.0
H2100 H 0.58281 1.00709 0.38589 0.0
H2101 H 0.70629 0.8138 0.36481 0.0
H2102 H 0.65497 0.06523 0.3575 0.0
H2103 H 0.63387 0.75593 0.39277 0.0
H2104 H 0.68805 0.90607 0.36233 0.0
H2105 H 0.60131 0.91519 0.38875 0.0
C2106 C 0.60253 1.00058 0.38016 0.0
C2107 C 0.61726 0.04418 0.3713 0.0
C2108 C 0.67612 0.87322 0.36899 0.0
C2109 C 0.63875 0.93856 0.37476 0.0
C2110 C 0.68657 0.82045 0.37053 0.0
C2111 C 0.67166 0.77677 0.3791 0.0
C2112 C 0.6505 0.88277 0.37607 0.0
C2113 C 0.64604 0.78799 0.38583 0.0
C2114 C 0.61314 0.948 0.38191 0.0
C2115 C 0.64292 0.03317 0.36462 0.0
N2116 N 0.63633 0.83979 0.38422 0.0
N2117 N 0.65279 0.98152 0.36642 0.0
H2118 H 0.37715 0.9831 0.35532 0.0
H2119 H 0.39919 0.29737 0.39124 0.0
H2120 H 0.44879 0.04492 0.38342 0.0
H2121 H 0.32748 0.23577 0.3632 0.0
H2122 H 0.41777 0.20538 0.38823 0.0
H2123 H 0.35843 0.07498 0.35849 0.0
C2124 C 0.38891 1.01582 0.36231 0.0
C2125 C 0.41466 1.00602 0.36906 0.0
C2126 C 0.39796 0.21196 0.38273 0.0
C2127 C 0.39338 0.11185 0.37247 0.0
C2128 C 0.38738 0.26467 0.3843 0.0
C2129 C 0.36167 0.2746 0.37749 0.0
C2130 C 0.38279 0.16859 0.37426 0.0
C2131 C 0.34724 0.23012 0.36897 0.0
C2132 C 0.37825 0.06845 0.36397 0.0
C2133 C 0.42902 0.05049 0.37766 0.0
N2134 N 0.35797 0.17923 0.36761 0.0
N2135 N 0.41821 0.10129 0.37911 0.0
H2136 H 0.32497 0.81199 0.86237 0.0
H2137 H 0.44754 1.00478 0.88755 0.0
H2138 H 0.39604 0.75389 0.89295 0.0
H2139 H 0.37648 0.06321 0.85708 0.0
H2140 H 0.42893 0.9129 0.88978 0.0
H2141 H 0.34334 0.90418 0.86055 0.0
C2142 C 0.34441 0.81858 0.86882 0.0
C2143 C 0.35891 0.77488 0.87792 0.0
C2144 C 0.41737 0.94578 0.88263 0.0
C2145 C 0.38023 0.88074 0.87564 0.0
C2146 C 0.42804 0.99832 0.88124 0.0
C2147 C 0.41364 0.04199 0.87199 0.0
C2148 C 0.39204 0.93646 0.87472 0.0
C2149 C 0.38826 0.03108 0.86453 0.0
C2150 C 0.35494 0.8713 0.86766 0.0
C2151 C 0.3842 0.786 0.88557 0.0
N2152 N 0.37832 0.97947 0.86599 0.0
N2153 N 0.39401 0.83774 0.8843 0.0
H2154 H 0.63207 0.29511 0.89138 0.0
H2155 H 0.65393 0.98072 0.85554 0.0
H2156 H 0.70359 0.23337 0.863 0.0
H2157 H 0.58239 0.04285 0.88373 0.0
H2158 H 0.67266 0.07256 0.85861 0.0
H2159 H 0.61349 0.20315 0.88848 0.0
C2160 C 0.64384 0.26238 0.88439 0.0
C2161 C 0.6695 0.27226 0.87745 0.0
C2162 C 0.65286 0.06611 0.86413 0.0
C2163 C 0.64837 0.16629 0.87436 0.0
C2164 C 0.64219 1.0135 0.86252 0.0
C2165 C 0.61646 1.0038 0.86933 0.0
C2166 C 0.63777 0.10958 0.87263 0.0
C2167 C 0.60214 0.04834 0.87793 0.0
C2168 C 0.63325 0.2097 0.88289 0.0
C2169 C 0.68388 0.22776 0.86888 0.0
N2170 N 0.61296 0.09911 0.87932 0.0
N2171 N 0.67314 0.17688 0.86758 0.0
H2172 H 0.45092 0.04488 0.61689 0.0
H2173 H 0.32737 0.23793 0.63802 0.0
H2174 H 0.37867 0.98638 0.64496 0.0
H2175 H 0.39978 0.2959 0.61005 0.0
H2176 H 0.34562 0.14564 0.64042 0.0
H2177 H 0.43239 0.13677 0.61411 0.0
C2178 C 0.43117 0.05132 0.62256 0.0
C2179 C 0.41642 1.00762 0.63132 0.0
C2180 C 0.35754 0.17852 0.63377 0.0
C2181 C 0.39491 0.11322 0.62794 0.0
C2182 C 0.34708 0.2313 0.63228 0.0
C2183 C 0.36199 0.27501 0.62373 0.0
C2184 C 0.38316 0.16901 0.62667 0.0
C2185 C 0.3876 0.26381 0.61698 0.0
C2186 C 0.42055 0.10388 0.62086 0.0
C2187 C 0.39073 1.01852 0.63793 0.0
N2188 N 0.39732 0.21202 0.61855 0.0
N2189 N 0.38085 0.07017 0.63617 0.0
H2190 H 0.70674 0.81197 0.64054 0.0
H2191 H 0.58298 1.00473 0.61952 0.0
H2192 H 0.63435 0.75363 0.61265 0.0
H2193 H 0.65534 0.06333 0.64737 0.0
H2194 H 0.60149 0.91277 0.61686 0.0
H2195 H 0.68835 0.90408 0.64305 0.0
C2196 C 0.687 0.81846 0.63485 0.0
C2197 C 0.67216 0.77469 0.62626 0.0
C2198 C 0.61335 0.9457 0.62354 0.0
C2199 C 0.65081 0.88058 0.62933 0.0
C2200 C 0.60275 0.99832 0.62517 0.0
C2201 C 0.61754 0.0421 0.63381 0.0
C2202 C 0.63902 0.93638 0.63058 0.0
C2203 C 0.64324 0.03117 0.64041 0.0
C2204 C 0.67646 0.87117 0.6364 0.0
C2205 C 0.64649 0.78575 0.61959 0.0
N2206 N 0.65311 0.97948 0.63872 0.0
N2207 N 0.63669 0.83749 0.62121 0.0
loop_
_geom_bond_atom_site_label_1
_geom_bond_atom_site_label_2
_geom_bond_distance
_geom_bond_site_symmetry_2
_ccdc_geom_bond_type
Tb0 N31 2.660 . S
Tb0 N38 2.600 . S
Tb0 O44 2.546 1_545 S
Tb0 O45 2.610 . S
Tb0 O47 2.320 . S
Tb0 O48 2.552 . S
Tb0 O49 2.413 1_545 S
Tb0 O51 2.362 . S
Tb0 O52 2.421 . S
Tb0 C64 2.833 1_545 S
C1 C4 1.432 . S
C1 C5 1.414 . S
C1 N8 1.359 . S
C2 C4 1.417 . S
C2 C6 1.415 1_455 S
C2 C14 1.410 . S
C3 C5 1.444 . S
C3 C6 1.312 1_455 S
C3 H26 0.929 1_455 S
C4 C1 1.432 . S
C4 C2 1.417 . S
C4 N12 1.360 . S
C5 C1 1.414 . S
C5 C3 1.444 . S
C5 C10 1.385 . S
C6 C2 1.415 1_655 S
C6 C3 1.312 1_655 S
C6 H18 0.953 . S
C7 C9 1.392 . S
C7 C10 1.370 . S
C7 H19 0.931 . S
N8 C1 1.359 . S
N8 C9 1.327 . S
N8 Tb11 2.600 . S
C9 C7 1.392 . S
C9 N8 1.327 . S
C9 H16 0.930 . S
C10 C5 1.385 . S
C10 C7 1.370 . S
C10 H29 0.930 . S
Tb11 N8 2.600 . S
Tb11 N12 2.660 . S
Tb11 O45 2.362 . S
Tb11 O46 2.421 . S
Tb11 O50 2.546 . S
Tb11 O51 2.610 . S
Tb11 O53 2.320 . S
Tb11 O54 2.552 . S
Tb11 O55 2.413 . S
Tb11 C75 2.833 . S
N12 C4 1.360 . S
N12 Tb11 2.660 . S
N12 C13 1.305 . S
C13 N12 1.305 . S
C13 C15 1.407 . S
C13 H20 0.930 . S
C14 C2 1.410 . S
C14 C15 1.345 . S
C14 H22 0.930 1_455 S
C15 C13 1.407 . S
C15 C14 1.345 . S
C15 H17 0.930 . S
H16 C9 0.930 . S
H17 C15 0.930 . S
H18 C6 0.953 . S
H19 C7 0.931 . S
H20 C13 0.930 . S
H21 C35 0.930 . S
H22 C14 0.930 1_655 S
H23 C41 0.930 . S
H24 C32 0.930 . S
H25 C39 0.931 . S
H26 C3 0.929 1_655 S
H27 C33 0.930 . S
H28 C66 0.930 . S
H29 C10 0.930 . S
H30 C65 0.929 . S
N31 Tb0 2.660 . S
N31 C32 1.305 . S
N31 C36 1.360 . S
C32 H24 0.930 . S
C32 N31 1.305 . S
C32 C35 1.407 . S
C33 H27 0.930 . S
C33 C34 1.410 . S
C33 C35 1.345 . S
C34 C33 1.410 . S
C34 C36 1.417 . S
C34 C66 1.432 . S
C35 H21 0.930 . S
C35 C32 1.407 . S
C35 C33 1.345 . S
C36 N31 1.360 . S
C36 C34 1.417 . S
C36 C40 1.432 . S
H37 C42 0.930 . S
N38 Tb0 2.600 . S
N38 C40 1.359 . S
N38 C41 1.327 . S
C39 H25 0.931 . S
C39 C41 1.392 . S
C39 C42 1.370 . S
C40 C36 1.432 . S
C40 N38 1.359 . S
C40 C43 1.414 . S
C41 H23 0.930 . S
C41 N38 1.327 . S
C41 C39 1.392 . S
C42 H37 0.930 . S
C42 C39 1.370 . S
C42 C43 1.385 . S
C43 C40 1.414 . S
C43 C42 1.385 . S
C43 C65 1.444 . S
O44 Tb0 2.546 1_565 S
O44 C64 1.251 . S
O45 Tb0 2.610 . S
O45 Tb11 2.362 . S
O45 C56 1.283 . S
O46 Tb11 2.421 . S
O46 C63 1.262 . S
O47 Tb0 2.320 . S
O47 C63 1.260 . S
O48 Tb0 2.552 . S
O48 C56 1.243 . S
O49 Tb0 2.413 1_565 S
O49 C64 1.256 . S
O50 Tb11 2.546 . S
O50 C75 1.251 . S
O51 Tb0 2.362 . S
O51 Tb11 2.610 . S
O51 C67 1.283 . S
O52 Tb0 2.421 . S
O52 C74 1.262 . S
O53 Tb11 2.320 . S
O53 C74 1.260 . S
O54 Tb11 2.552 . S
O54 C67 1.243 . S
O55 Tb11 2.413 . S
O55 C75 1.256 . S
C56 O45 1.283 . S
C56 O48 1.243 . S
C57 C59 1.382 . S
C57 C61 1.393 . S
C57 C64 1.500 . S
C58 C59 1.400 . S
C58 C60 1.384 . S
C59 C57 1.382 . S
C59 C58 1.400 . S
C59 H76 0.930 . S
C60 C58 1.384 . S
C60 C62 1.392 . S
C60 H77 0.931 . S
C61 C57 1.393 . S
C61 C62 1.401 . S
C61 H78 0.930 . S
C62 C60 1.392 . S
C62 C61 1.401 . S
C62 H79 0.930 . S
C63 O46 1.262 . S
C63 O47 1.260 . S
C64 Tb0 2.833 1_565 S
C64 O44 1.251 . S
C64 O49 1.256 . S
C64 C57 1.500 . S
C65 H30 0.929 . S
C65 C43 1.444 . S
C65 C66 1.317 . S
C66 H28 0.930 . S
C66 C34 1.432 . S
C66 C65 1.317 . S
C67 O51 1.283 . S
C67 O54 1.243 . S
C68 C69 1.382 . S
C68 C72 1.393 . S
C68 C75 1.500 . S
C69 C68 1.382 . S
C69 C70 1.400 . S
C69 H80 0.930 . S
C70 C69 1.400 . S
C70 C71 1.384 . S
C71 C70 1.384 . S
C71 C73 1.392 . S
C71 H81 0.931 . S
C72 C68 1.393 . S
C72 C73 1.401 . S
C72 H82 0.930 . S
C73 C71 1.392 . S
C73 C72 1.401 . S
C73 H83 0.930 . S
C74 O52 1.262 . S
C74 O53 1.260 . S
C75 Tb11 2.833 . S
C75 O50 1.251 . S
C75 O55 1.256 . S
C75 C68 1.500 . S
H76 C59 0.930 . S
H77 C60 0.931 . S
H78 C61 0.930 . S
H79 C62 0.930 . S
H80 C69 0.930 . S
H81 C71 0.931 . S
H82 C72 0.930 . S
H83 C73 0.930 . S
Tb84 N115 2.660 . S
Tb84 N122 2.600 . S
Tb84 O128 2.546 1_565 S
Tb84 O129 2.610 . S
Tb84 O131 2.320 . S
Tb84 O132 2.552 . S
Tb84 O133 2.413 1_565 S
Tb84 O135 2.362 . S
Tb84 O136 2.421 . S
Tb84 C148 2.833 1_565 S
C85 C88 1.432 . S
C85 C89 1.414 . S
C85 N92 1.359 . S
C86 C88 1.417 . S
C86 C90 1.415 1_655 S
C86 C98 1.410 . S
C87 C89 1.444 . S
C87 C90 1.312 1_655 S
C87 H110 0.929 1_655 S
C88 C85 1.432 . S
C88 C86 1.417 . S
C88 N96 1.360 . S
C89 C85 1.414 . S
C89 C87 1.444 . S
C89 C94 1.385 . S
C90 C86 1.415 1_455 S
C90 C87 1.312 1_455 S
C90 H102 0.953 . S
C91 C93 1.392 . S
C91 C94 1.370 . S
C91 H103 0.931 . S
N92 C85 1.359 . S
N92 C93 1.327 . S
N92 Tb95 2.600 . S
C93 C91 1.392 . S
C93 N92 1.327 . S
C93 H100 0.930 . S
C94 C89 1.385 . S
C94 C91 1.370 . S
C94 H113 0.930 . S
Tb95 N92 2.600 . S
Tb95 N96 2.660 . S
Tb95 O129 2.362 . S
Tb95 O130 2.421 . S
Tb95 O134 2.546 . S
Tb95 O135 2.610 . S
Tb95 O137 2.320 . S
Tb95 O138 2.552 . S
Tb95 O139 2.413 . S
Tb95 C159 2.833 . S
N96 C88 1.360 . S
N96 Tb95 2.660 . S
N96 C97 1.305 . S
C97 N96 1.305 . S
C97 C99 1.407 . S
C97 H104 0.930 . S
C98 C86 1.410 . S
C98 C99 1.345 . S
C98 H106 0.930 1_655 S
C99 C97 1.407 . S
C99 C98 1.345 . S
C99 H101 0.930 . S
H100 C93 0.930 . S
H101 C99 0.930 . S
H102 C90 0.953 . S
H103 C91 0.931 . S
H104 C97 0.930 . S
H105 C119 0.930 . S
H106 C98 0.930 1_455 S
H107 C125 0.930 . S
H108 C116 0.930 . S
H109 C123 0.931 . S
H110 C87 0.929 1_455 S
H111 C117 0.930 . S
H112 C150 0.930 . S
H113 C94 0.930 . S
H114 C149 0.929 . S
N115 Tb84 2.660 . S
N115 C116 1.305 . S
N115 C120 1.360 . S
C116 H108 0.930 . S
C116 N115 1.305 . S
C116 C119 1.407 . S
C117 H111 0.930 . S
C117 C118 1.410 . S
C117 C119 1.345 . S
C118 C117 1.410 . S
C118 C120 1.417 . S
C118 C150 1.432 . S
C119 H105 0.930 . S
C119 C116 1.407 . S
C119 C117 1.345 . S
C120 N115 1.360 . S
C120 C118 1.417 . S
C120 C124 1.432 . S
H121 C126 0.930 . S
N122 Tb84 2.600 . S
N122 C124 1.359 . S
N122 C125 1.327 . S
C123 H109 0.931 . S
C123 C125 1.392 . S
C123 C126 1.370 . S
C124 C120 1.432 . S
C124 N122 1.359 . S
C124 C127 1.414 . S
C125 H107 0.930 . S
C125 N122 1.327 . S
C125 C123 1.392 . S
C126 H121 0.930 . S
C126 C123 1.370 . S
C126 C127 1.385 . S
C127 C124 1.414 . S
C127 C126 1.385 . S
C127 C149 1.444 . S
O128 Tb84 2.546 1_545 S
O128 C148 1.251 . S
O129 Tb84 2.610 . S
O129 Tb95 2.362 . S
O129 C140 1.283 . S
O130 Tb95 2.421 . S
O130 C147 1.262 . S
O131 Tb84 2.320 . S
O131 C147 1.260 . S
O132 Tb84 2.552 . S
O132 C140 1.243 . S
O133 Tb84 2.413 1_545 S
O133 C148 1.256 . S
O134 Tb95 2.546 . S
O134 C159 1.251 . S
O135 Tb84 2.362 . S
O135 Tb95 2.610 . S
O135 C151 1.283 . S
O136 Tb84 2.421 . S
O136 C158 1.262 . S
O137 Tb95 2.320 . S
O137 C158 1.260 . S
O138 Tb95 2.552 . S
O138 C151 1.243 . S
O139 Tb95 2.413 . S
O139 C159 1.256 . S
C140 O129 1.283 . S
C140 O132 1.243 . S
C141 C143 1.382 . S
C141 C145 1.393 . S
C141 C148 1.500 . S
C142 C143 1.400 . S
C142 C144 1.384 . S
C143 C141 1.382 . S
C143 C142 1.400 . S
C143 H160 0.930 . S
C144 C142 1.384 . S
C144 C146 1.392 . S
C144 H161 0.931 . S
C145 C141 1.393 . S
C145 C146 1.401 . S
C145 H162 0.930 . S
C146 C144 1.392 . S
C146 C145 1.401 . S
C146 H163 0.930 . S
C147 O130 1.262 . S
C147 O131 1.260 . S
C148 Tb84 2.833 1_545 S
C148 O128 1.251 . S
C148 O133 1.256 . S
C148 C141 1.500 . S
C149 H114 0.929 . S
C149 C127 1.444 . S
C149 C150 1.317 . S
C150 H112 0.930 . S
C150 C118 1.432 . S
C150 C149 1.317 . S
C151 O135 1.283 . S
C151 O138 1.243 . S
C152 C153 1.382 . S
C152 C156 1.393 . S
C152 C159 1.500 . S
C153 C152 1.382 . S
C153 C154 1.400 . S
C153 H164 0.930 . S
C154 C153 1.400 . S
C154 C155 1.384 . S
C155 C154 1.384 . S
C155 C157 1.392 . S
C155 H165 0.931 . S
C156 C152 1.393 . S
C156 C157 1.401 . S
C156 H166 0.930 . S
C157 C155 1.392 . S
C157 C156 1.401 . S
C157 H167 0.930 . S
C158 O136 1.262 . S
C158 O137 1.260 . S
C159 Tb95 2.833 . S
C159 O134 1.251 . S
C159 O139 1.256 . S
C159 C152 1.500 . S
H160 C143 0.930 . S
H161 C144 0.931 . S
H162 C145 0.930 . S
H163 C146 0.930 . S
H164 C153 0.930 . S
H165 C155 0.931 . S
H166 C156 0.930 . S
H167 C157 0.930 . S
Tb168 N199 2.660 . S
Tb168 N206 2.600 . S
Tb168 O212 2.546 1_565 S
Tb168 O213 2.610 . S
Tb168 O215 2.320 . S
Tb168 O216 2.552 . S
Tb168 O217 2.413 1_565 S
Tb168 O219 2.362 . S
Tb168 O220 2.421 . S
Tb168 C232 2.833 1_565 S
C169 C172 1.432 . S
C169 C173 1.414 . S
C169 N176 1.359 . S
C170 C172 1.417 . S
C170 C174 1.415 1_455 S
C170 C182 1.410 . S
C171 C173 1.444 . S
C171 C174 1.312 1_455 S
C171 H194 0.929 1_455 S
C172 C169 1.432 . S
C172 C170 1.417 . S
C172 N180 1.360 . S
C173 C169 1.414 . S
C173 C171 1.444 . S
C173 C178 1.385 . S
C174 C170 1.415 1_655 S
C174 C171 1.312 1_655 S
C174 H186 0.953 . S
C175 C177 1.392 . S
C175 C178 1.370 . S
C175 H187 0.931 . S
N176 C169 1.359 . S
N176 C177 1.327 . S
N176 Tb179 2.600 . S
C177 C175 1.392 . S
C177 N176 1.327 . S
C177 H184 0.930 . S
C178 C173 1.385 . S
C178 C175 1.370 . S
C178 H197 0.930 . S
Tb179 N176 2.600 . S
Tb179 N180 2.660 . S
Tb179 O213 2.362 . S
Tb179 O214 2.421 . S
Tb179 O218 2.546 . S
Tb179 O219 2.610 . S
Tb179 O221 2.320 . S
Tb179 O222 2.552 . S
Tb179 O223 2.413 . S
Tb179 C243 2.833 . S
N180 C172 1.360 . S
N180 Tb179 2.660 . S
N180 C181 1.305 . S
C181 N180 1.305 . S
C181 C183 1.407 . S
C181 H188 0.930 . S
C182 C170 1.410 . S
C182 C183 1.345 . S
C182 H190 0.930 1_455 S
C183 C181 1.407 . S
C183 C182 1.345 . S
C183 H185 0.930 . S
H184 C177 0.930 . S
H185 C183 0.930 . S
H186 C174 0.953 . S
H187 C175 0.931 . S
H188 C181 0.930 . S
H189 C203 0.930 . S
H190 C182 0.930 1_655 S
H191 C209 0.930 . S
H192 C200 0.930 . S
H193 C207 0.931 . S
H194 C171 0.929 1_655 S
H195 C201 0.930 . S
H196 C234 0.930 . S
H197 C178 0.930 . S
H198 C233 0.929 . S
N199 Tb168 2.660 . S
N199 C200 1.305 . S
N199 C204 1.360 . S
C200 H192 0.930 . S
C200 N199 1.305 . S
C200 C203 1.407 . S
C201 H195 0.930 . S
C201 C202 1.410 . S
C201 C203 1.345 . S
C202 C201 1.410 . S
C202 C204 1.417 . S
C202 C234 1.432 . S
C203 H189 0.930 . S
C203 C200 1.407 . S
C203 C201 1.345 . S
C204 N199 1.360 . S
C204 C202 1.417 . S
C204 C208 1.432 . S
H205 C210 0.930 . S
N206 Tb168 2.600 . S
N206 C208 1.359 . S
N206 C209 1.327 . S
C207 H193 0.931 . S
C207 C209 1.392 . S
C207 C210 1.370 . S
C208 C204 1.432 . S
C208 N206 1.359 . S
C208 C211 1.414 . S
C209 H191 0.930 . S
C209 N206 1.327 . S
C209 C207 1.392 . S
C210 H205 0.930 . S
C210 C207 1.370 . S
C210 C211 1.385 . S
C211 C208 1.414 . S
C211 C210 1.385 . S
C211 C233 1.444 . S
O212 Tb168 2.546 1_545 S
O212 C232 1.251 . S
O213 Tb168 2.610 . S
O213 Tb179 2.362 . S
O213 C224 1.283 . S
O214 Tb179 2.421 . S
O214 C231 1.262 . S
O215 Tb168 2.320 . S
O215 C231 1.260 . S
O216 Tb168 2.552 . S
O216 C224 1.243 . S
O217 Tb168 2.413 1_545 S
O217 C232 1.256 . S
O218 Tb179 2.546 . S
O218 C243 1.251 . S
O219 Tb168 2.362 . S
O219 Tb179 2.610 . S
O219 C235 1.283 . S
O220 Tb168 2.421 . S
O220 C242 1.262 . S
O221 Tb179 2.320 . S
O221 C242 1.260 . S
O222 Tb179 2.552 . S
O222 C235 1.243 . S
O223 Tb179 2.413 . S
O223 C243 1.256 . S
C224 O213 1.283 . S
C224 O216 1.243 . S
C225 C227 1.382 . S
C225 C229 1.393 . S
C225 C232 1.500 . S
C226 C227 1.400 . S
C226 C228 1.384 . S
C227 C225 1.382 . S
C227 C226 1.400 . S
C227 H244 0.930 . S
C228 C226 1.384 . S
C228 C230 1.392 . S
C228 H245 0.931 . S
C229 C225 1.393 . S
C229 C230 1.401 . S
C229 H246 0.930 . S
C230 C228 1.392 . S
C230 C229 1.401 . S
C230 H247 0.930 . S
C231 O214 1.262 . S
C231 O215 1.260 . S
C232 Tb168 2.833 1_545 S
C232 O212 1.251 . S
C232 O217 1.256 . S
C232 C225 1.500 . S
C233 H198 0.929 . S
C233 C211 1.444 . S
C233 C234 1.317 . S
C234 H196 0.930 . S
C234 C202 1.432 . S
C234 C233 1.317 . S
C235 O219 1.283 . S
C235 O222 1.243 . S
C236 C237 1.382 . S
C236 C240 1.393 . S
C236 C243 1.500 . S
C237 C236 1.382 . S
C237 C238 1.400 . S
C237 H248 0.930 . S
C238 C237 1.400 . S
C238 C239 1.384 . S
C239 C238 1.384 . S
C239 C241 1.392 . S
C239 H249 0.931 . S
C240 C236 1.393 . S
C240 C241 1.401 . S
C240 H250 0.930 . S
C241 C239 1.392 . S
C241 C240 1.401 . S
C241 H251 0.930 . S
C242 O220 1.262 . S
C242 O221 1.260 . S
C243 Tb179 2.833 . S
C243 O218 1.251 . S
C243 O223 1.256 . S
C243 C236 1.500 . S
H244 C227 0.930 . S
H245 C228 0.931 . S
H246 C229 0.930 . S
H247 C230 0.930 . S
H248 C237 0.930 . S
H249 C239 0.931 . S
H250 C240 0.930 . S
H251 C241 0.930 . S
Tb252 N283 2.660 . S
Tb252 N290 2.600 . S
Tb252 O296 2.546 1_545 S
Tb252 O297 2.610 . S
Tb252 O299 2.320 . S
Tb252 O300 2.552 . S
Tb252 O301 2.413 1_545 S
Tb252 O303 2.362 . S
Tb252 O304 2.421 . S
Tb252 C316 2.833 1_545 S
C253 C256 1.432 . S
C253 C257 1.414 . S
C253 N260 1.359 . S
C254 C256 1.417 . S
C254 C258 1.415 1_655 S
C254 C266 1.410 . S
C255 C257 1.444 . S
C255 C258 1.312 1_655 S
C255 H278 0.929 1_655 S
C256 C253 1.432 . S
C256 C254 1.417 . S
C256 N264 1.360 . S
C257 C253 1.414 . S
C257 C255 1.444 . S
C257 C262 1.385 . S
C258 C254 1.415 1_455 S
C258 C255 1.312 1_455 S
C258 H270 0.953 . S
C259 C261 1.392 . S
C259 C262 1.370 . S
C259 H271 0.931 . S
N260 C253 1.359 . S
N260 C261 1.327 . S
N260 Tb263 2.600 . S
C261 C259 1.392 . S
C261 N260 1.327 . S
C261 H268 0.930 . S
C262 C257 1.385 . S
C262 C259 1.370 . S
C262 H281 0.930 . S
Tb263 N260 2.600 . S
Tb263 N264 2.660 . S
Tb263 O297 2.362 . S
Tb263 O298 2.421 . S
Tb263 O302 2.546 . S
Tb263 O303 2.610 . S
Tb263 O305 2.320 . S
Tb263 O306 2.552 . S
Tb263 O307 2.413 . S
Tb263 C327 2.833 . S
N264 C256 1.360 . S
N264 Tb263 2.660 . S
N264 C265 1.305 . S
C265 N264 1.305 . S
C265 C267 1.407 . S
C265 H272 0.930 . S
C266 C254 1.410 . S
C266 C267 1.345 . S
C266 H274 0.930 1_655 S
C267 C265 1.407 . S
C267 C266 1.345 . S
C267 H269 0.930 . S
H268 C261 0.930 . S
H269 C267 0.930 . S
H270 C258 0.953 . S
H271 C259 0.931 . S
H272 C265 0.930 . S
H273 C287 0.930 . S
H274 C266 0.930 1_455 S
H275 C293 0.930 . S
H276 C284 0.930 . S
H277 C291 0.931 . S
H278 C255 0.929 1_455 S
H279 C285 0.930 . S
H280 C318 0.930 . S
H281 C262 0.930 . S
H282 C317 0.929 . S
N283 Tb252 2.660 . S
N283 C284 1.305 . S
N283 C288 1.360 . S
C284 H276 0.930 . S
C284 N283 1.305 . S
C284 C287 1.407 . S
C285 H279 0.930 . S
C285 C286 1.410 . S
C285 C287 1.345 . S
C286 C285 1.410 . S
C286 C288 1.417 . S
C286 C318 1.432 . S
C287 H273 0.930 . S
C287 C284 1.407 . S
C287 C285 1.345 . S
C288 N283 1.360 . S
C288 C286 1.417 . S
C288 C292 1.432 . S
H289 C294 0.930 . S
N290 Tb252 2.600 . S
N290 C292 1.359 . S
N290 C293 1.327 . S
C291 H277 0.931 . S
C291 C293 1.392 . S
C291 C294 1.370 . S
C292 C288 1.432 . S
C292 N290 1.359 . S
C292 C295 1.414 . S
C293 H275 0.930 . S
C293 N290 1.327 . S
C293 C291 1.392 . S
C294 H289 0.930 . S
C294 C291 1.370 . S
C294 C295 1.385 . S
C295 C292 1.414 . S
C295 C294 1.385 . S
C295 C317 1.444 . S
O296 Tb252 2.546 1_565 S
O296 C316 1.251 . S
O297 Tb252 2.610 . S
O297 Tb263 2.362 . S
O297 C308 1.283 . S
O298 Tb263 2.421 . S
O298 C315 1.262 . S
O299 Tb252 2.320 . S
O299 C315 1.260 . S
O300 Tb252 2.552 . S
O300 C308 1.243 . S
O301 Tb252 2.413 1_565 S
O301 C316 1.256 . S
O302 Tb263 2.546 . S
O302 C327 1.251 . S
O303 Tb252 2.362 . S
O303 Tb263 2.610 . S
O303 C319 1.283 . S
O304 Tb252 2.421 . S
O304 C326 1.262 . S
O305 Tb263 2.320 . S
O305 C326 1.260 . S
O306 Tb263 2.552 . S
O306 C319 1.243 . S
O307 Tb263 2.413 . S
O307 C327 1.256 . S
C308 O297 1.283 . S
C308 O300 1.243 . S
C309 C311 1.382 . S
C309 C313 1.393 . S
C309 C316 1.500 . S
C310 C311 1.400 . S
C310 C312 1.384 . S
C311 C309 1.382 . S
C311 C310 1.400 . S
C311 H328 0.930 . S
C312 C310 1.384 . S
C312 C314 1.392 . S
C312 H329 0.931 . S
C313 C309 1.393 . S
C313 C314 1.401 . S
C313 H330 0.930 . S
C314 C312 1.392 . S
C314 C313 1.401 . S
C314 H331 0.930 . S
C315 O298 1.262 . S
C315 O299 1.260 . S
C316 Tb252 2.833 1_565 S
C316 O296 1.251 . S
C316 O301 1.256 . S
C316 C309 1.500 . S
C317 H282 0.929 . S
C317 C295 1.444 . S
C317 C318 1.317 . S
C318 H280 0.930 . S
C318 C286 1.432 . S
C318 C317 1.317 . S
C319 O303 1.283 . S
C319 O306 1.243 . S
C320 C321 1.382 . S
C320 C324 1.393 . S
C320 C327 1.500 . S
C321 C320 1.382 . S
C321 C322 1.400 . S
C321 H332 0.930 . S
C322 C321 1.400 . S
C322 C323 1.384 . S
C323 C322 1.384 . S
C323 C325 1.392 . S
C323 H333 0.931 . S
C324 C320 1.393 . S
C324 C325 1.401 . S
C324 H334 0.930 . S
C325 C323 1.392 . S
C325 C324 1.401 . S
C325 H335 0.930 . S
C326 O304 1.262 . S
C326 O305 1.260 . S
C327 Tb263 2.833 . S
C327 O302 1.251 . S
C327 O307 1.256 . S
C327 C320 1.500 . S
H328 C311 0.930 . S
H329 C312 0.931 . S
H330 C313 0.930 . S
H331 C314 0.930 . S
H332 C321 0.930 . S
H333 C323 0.931 . S
H334 C324 0.930 . S
H335 C325 0.930 . S
Tb336 N367 2.660 . S
Tb336 N374 2.600 . S
Tb336 O380 2.546 . S
Tb336 O381 2.610 . S
Tb336 O383 2.320 . S
Tb336 O384 2.552 . S
Tb336 O385 2.413 . S
Tb336 O387 2.362 . S
Tb336 O388 2.421 . S
Tb336 C400 2.833 . S
C337 C340 1.432 . S
C337 C341 1.414 . S
C337 N344 1.359 . S
C338 C340 1.417 . S
C338 C342 1.432 . S
C338 C350 1.410 . S
C339 C341 1.444 . S
C339 C342 1.317 . S
C339 H362 0.929 . S
C340 C337 1.432 . S
C340 C338 1.417 . S
C340 N348 1.360 . S
C341 C337 1.414 . S
C341 C339 1.444 . S
C341 C346 1.385 . S
C342 C338 1.432 . S
C342 C339 1.317 . S
C342 H354 0.930 . S
C343 C345 1.392 . S
C343 C346 1.370 . S
C343 H355 0.931 . S
N344 C337 1.359 . S
N344 C345 1.327 . S
N344 Tb347 2.600 . S
C345 C343 1.392 . S
C345 N344 1.327 . S
C345 H352 0.930 . S
C346 C341 1.385 . S
C346 C343 1.370 . S
C346 H365 0.930 . S
Tb347 N344 2.600 . S
Tb347 N348 2.660 . S
Tb347 O381 2.362 . S
Tb347 O382 2.421 . S
Tb347 O386 2.546 1_565 S
Tb347 O387 2.610 . S
Tb347 O389 2.320 . S
Tb347 O390 2.552 . S
Tb347 O391 2.413 1_565 S
Tb347 C411 2.833 1_565 S
N348 C340 1.360 . S
N348 Tb347 2.660 . S
N348 C349 1.305 . S
C349 N348 1.305 . S
C349 C351 1.407 . S
C349 H356 0.930 . S
C350 C338 1.410 . S
C350 C351 1.345 . S
C350 H358 0.930 . S
C351 C349 1.407 . S
C351 C350 1.345 . S
C351 H353 0.930 . S
H352 C345 0.930 . S
H353 C351 0.930 . S
H354 C342 0.930 . S
H355 C343 0.931 . S
H356 C349 0.930 . S
H357 C371 0.930 . S
H358 C350 0.930 . S
H359 C377 0.930 . S
H360 C368 0.930 . S
H361 C375 0.931 . S
H362 C339 0.929 . S
H363 C369 0.930 1_455 S
H364 C402 0.953 . S
H365 C346 0.930 . S
H366 C401 0.929 1_455 S
N367 Tb336 2.660 . S
N367 C368 1.305 . S
N367 C372 1.360 . S
C368 H360 0.930 . S
C368 N367 1.305 . S
C368 C371 1.407 . S
C369 H363 0.930 1_655 S
C369 C370 1.410 . S
C369 C371 1.345 . S
C370 C369 1.410 . S
C370 C372 1.417 . S
C370 C402 1.415 1_655 S
C371 H357 0.930 . S
C371 C368 1.407 . S
C371 C369 1.345 . S
C372 N367 1.360 . S
C372 C370 1.417 . S
C372 C376 1.432 . S
H373 C378 0.930 . S
N374 Tb336 2.600 . S
N374 C376 1.359 . S
N374 C377 1.327 . S
C375 H361 0.931 . S
C375 C377 1.392 . S
C375 C378 1.370 . S
C376 C372 1.432 . S
C376 N374 1.359 . S
C376 C379 1.414 . S
C377 H359 0.930 . S
C377 N374 1.327 . S
C377 C375 1.392 . S
C378 H373 0.930 . S
C378 C375 1.370 . S
C378 C379 1.385 . S
C379 C376 1.414 . S
C379 C378 1.385 . S
C379 C401 1.444 . S
O380 Tb336 2.546 . S
O380 C400 1.251 . S
O381 Tb336 2.610 . S
O381 Tb347 2.362 . S
O381 C392 1.283 . S
O382 Tb347 2.421 . S
O382 C399 1.262 . S
O383 Tb336 2.320 . S
O383 C399 1.260 . S
O384 Tb336 2.552 . S
O384 C392 1.243 . S
O385 Tb336 2.413 . S
O385 C400 1.256 . S
O386 Tb347 2.546 1_545 S
O386 C411 1.251 . S
O387 Tb336 2.362 . S
O387 Tb347 2.610 . S
O387 C403 1.283 . S
O388 Tb336 2.421 . S
O388 C410 1.262 . S
O389 Tb347 2.320 . S
O389 C410 1.260 . S
O390 Tb347 2.552 . S
O390 C403 1.243 . S
O391 Tb347 2.413 1_545 S
O391 C411 1.256 . S
C392 O381 1.283 . S
C392 O384 1.243 . S
C393 C395 1.382 . S
C393 C397 1.393 . S
C393 C400 1.500 . S
C394 C395 1.400 . S
C394 C396 1.384 . S
C395 C393 1.382 . S
C395 C394 1.400 . S
C395 H412 0.930 . S
C396 C394 1.384 . S
C396 C398 1.392 . S
C396 H413 0.931 . S
C397 C393 1.393 . S
C397 C398 1.401 . S
C397 H414 0.930 . S
C398 C396 1.392 . S
C398 C397 1.401 . S
C398 H415 0.930 . S
C399 O382 1.262 . S
C399 O383 1.260 . S
C400 Tb336 2.833 . S
C400 O380 1.251 . S
C400 O385 1.256 . S
C400 C393 1.500 . S
C401 H366 0.929 1_655 S
C401 C379 1.444 . S
C401 C402 1.312 1_655 S
C402 H364 0.953 . S
C402 C370 1.415 1_455 S
C402 C401 1.312 1_455 S
C403 O387 1.283 . S
C403 O390 1.243 . S
C404 C405 1.382 . S
C404 C408 1.393 . S
C404 C411 1.500 . S
C405 C404 1.382 . S
C405 C406 1.400 . S
C405 H416 0.930 . S
C406 C405 1.400 . S
C406 C407 1.384 . S
C407 C406 1.384 . S
C407 C409 1.392 . S
C407 H417 0.931 . S
C408 C404 1.393 . S
C408 C409 1.401 . S
C408 H418 0.930 . S
C409 C407 1.392 . S
C409 C408 1.401 . S
C409 H419 0.930 . S
C410 O388 1.262 . S
C410 O389 1.260 . S
C411 Tb347 2.833 1_545 S
C411 O386 1.251 . S
C411 O391 1.256 . S
C411 C404 1.500 . S
H412 C395 0.930 . S
H413 C396 0.931 . S
H414 C397 0.930 . S
H415 C398 0.930 . S
H416 C405 0.930 . S
H417 C407 0.931 . S
H418 C408 0.930 . S
H419 C409 0.930 . S
Tb420 N451 2.660 . S
Tb420 N458 2.600 . S
Tb420 O464 2.546 . S
Tb420 O465 2.610 . S
Tb420 O467 2.320 . S
Tb420 O468 2.552 . S
Tb420 O469 2.413 . S
Tb420 O471 2.362 . S
Tb420 O472 2.421 . S
Tb420 C484 2.833 . S
C421 C424 1.432 . S
C421 C425 1.414 . S
C421 N428 1.359 . S
C422 C424 1.417 . S
C422 C426 1.432 . S
C422 C434 1.410 . S
C423 C425 1.444 . S
C423 C426 1.317 . S
C423 H446 0.929 . S
C424 C421 1.432 . S
C424 C422 1.417 . S
C424 N432 1.360 . S
C425 C421 1.414 . S
C425 C423 1.444 . S
C425 C430 1.385 . S
C426 C422 1.432 . S
C426 C423 1.317 . S
C426 H438 0.930 . S
C427 C429 1.392 . S
C427 C430 1.370 . S
C427 H439 0.931 . S
N428 C421 1.359 . S
N428 C429 1.327 . S
N428 Tb431 2.600 . S
C429 C427 1.392 . S
C429 N428 1.327 . S
C429 H436 0.930 . S
C430 C425 1.385 . S
C430 C427 1.370 . S
C430 H449 0.930 . S
Tb431 N428 2.600 . S
Tb431 N432 2.660 . S
Tb431 O465 2.362 . S
Tb431 O466 2.421 . S
Tb431 O470 2.546 1_545 S
Tb431 O471 2.610 . S
Tb431 O473 2.320 . S
Tb431 O474 2.552 . S
Tb431 O475 2.413 1_545 S
Tb431 C495 2.833 1_545 S
N432 C424 1.360 . S
N432 Tb431 2.660 . S
N432 C433 1.305 . S
C433 N432 1.305 . S
C433 C435 1.407 . S
C433 H440 0.930 . S
C434 C422 1.410 . S
C434 C435 1.345 . S
C434 H442 0.930 . S
C435 C433 1.407 . S
C435 C434 1.345 . S
C435 H437 0.930 . S
H436 C429 0.930 . S
H437 C435 0.930 . S
H438 C426 0.930 . S
H439 C427 0.931 . S
H440 C433 0.930 . S
H441 C455 0.930 . S
H442 C434 0.930 . S
H443 C461 0.930 . S
H444 C452 0.930 . S
H445 C459 0.931 . S
H446 C423 0.929 . S
H447 C453 0.930 1_655 S
H448 C486 0.953 . S
H449 C430 0.930 . S
H450 C485 0.929 1_655 S
N451 Tb420 2.660 . S
N451 C452 1.305 . S
N451 C456 1.360 . S
C452 H444 0.930 . S
C452 N451 1.305 . S
C452 C455 1.407 . S
C453 H447 0.930 1_455 S
C453 C454 1.410 . S
C453 C455 1.345 . S
C454 C453 1.410 . S
C454 C456 1.417 . S
C454 C486 1.415 1_455 S
C455 H441 0.930 . S
C455 C452 1.407 . S
C455 C453 1.345 . S
C456 N451 1.360 . S
C456 C454 1.417 . S
C456 C460 1.432 . S
H457 C462 0.930 . S
N458 Tb420 2.600 . S
N458 C460 1.359 . S
N458 C461 1.327 . S
C459 H445 0.931 . S
C459 C461 1.392 . S
C459 C462 1.370 . S
C460 C456 1.432 . S
C460 N458 1.359 . S
C460 C463 1.414 . S
C461 H443 0.930 . S
C461 N458 1.327 . S
C461 C459 1.392 . S
C462 H457 0.930 . S
C462 C459 1.370 . S
C462 C463 1.385 . S
C463 C460 1.414 . S
C463 C462 1.385 . S
C463 C485 1.444 . S
O464 Tb420 2.546 . S
O464 C484 1.251 . S
O465 Tb420 2.610 . S
O465 Tb431 2.362 . S
O465 C476 1.283 . S
O466 Tb431 2.421 . S
O466 C483 1.262 . S
O467 Tb420 2.320 . S
O467 C483 1.260 . S
O468 Tb420 2.552 . S
O468 C476 1.243 . S
O469 Tb420 2.413 . S
O469 C484 1.256 . S
O470 Tb431 2.546 1_565 S
O470 C495 1.251 . S
O471 Tb420 2.362 . S
O471 Tb431 2.610 . S
O471 C487 1.283 . S
O472 Tb420 2.421 . S
O472 C494 1.262 . S
O473 Tb431 2.320 . S
O473 C494 1.260 . S
O474 Tb431 2.552 . S
O474 C487 1.243 . S
O475 Tb431 2.413 1_565 S
O475 C495 1.256 . S
C476 O465 1.283 . S
C476 O468 1.243 . S
C477 C479 1.382 . S
C477 C481 1.393 . S
C477 C484 1.500 . S
C478 C479 1.400 . S
C478 C480 1.384 . S
C479 C477 1.382 . S
C479 C478 1.400 . S
C479 H496 0.930 . S
C480 C478 1.384 . S
C480 C482 1.392 . S
C480 H497 0.931 . S
C481 C477 1.393 . S
C481 C482 1.401 . S
C481 H498 0.930 . S
C482 C480 1.392 . S
C482 C481 1.401 . S
C482 H499 0.930 . S
C483 O466 1.262 . S
C483 O467 1.260 . S
C484 Tb420 2.833 . S
C484 O464 1.251 . S
C484 O469 1.256 . S
C484 C477 1.500 . S
C485 H450 0.929 1_455 S
C485 C463 1.444 . S
C485 C486 1.312 1_455 S
C486 H448 0.953 . S
C486 C454 1.415 1_655 S
C486 C485 1.312 1_655 S
C487 O471 1.283 . S
C487 O474 1.243 . S
C488 C489 1.382 . S
C488 C492 1.393 . S
C488 C495 1.500 . S
C489 C488 1.382 . S
C489 C490 1.400 . S
C489 H500 0.930 . S
C490 C489 1.400 . S
C490 C491 1.384 . S
C491 C490 1.384 . S
C491 C493 1.392 . S
C491 H501 0.931 . S
C492 C488 1.393 . S
C492 C493 1.401 . S
C492 H502 0.930 . S
C493 C491 1.392 . S
C493 C492 1.401 . S
C493 H503 0.930 . S
C494 O472 1.262 . S
C494 O473 1.260 . S
C495 Tb431 2.833 1_565 S
C495 O470 1.251 . S
C495 O475 1.256 . S
C495 C488 1.500 . S
H496 C479 0.930 . S
H497 C480 0.931 . S
H498 C481 0.930 . S
H499 C482 0.930 . S
H500 C489 0.930 . S
H501 C491 0.931 . S
H502 C492 0.930 . S
H503 C493 0.930 . S
Tb504 N535 2.660 . S
Tb504 N542 2.600 . S
Tb504 O548 2.546 . S
Tb504 O549 2.610 . S
Tb504 O551 2.320 . S
Tb504 O552 2.552 . S
Tb504 O553 2.413 . S
Tb504 O555 2.362 . S
Tb504 O556 2.421 . S
Tb504 C568 2.833 . S
C505 C508 1.432 . S
C505 C509 1.414 . S
C505 N512 1.359 . S
C506 C508 1.417 . S
C506 C510 1.432 . S
C506 C518 1.410 . S
C507 C509 1.444 . S
C507 C510 1.317 . S
C507 H530 0.929 . S
C508 C505 1.432 . S
C508 C506 1.417 . S
C508 N516 1.360 . S
C509 C505 1.414 . S
C509 C507 1.444 . S
C509 C514 1.385 . S
C510 C506 1.432 . S
C510 C507 1.317 . S
C510 H522 0.930 . S
C511 C513 1.392 . S
C511 C514 1.370 . S
C511 H523 0.931 . S
N512 C505 1.359 . S
N512 C513 1.327 . S
N512 Tb515 2.600 . S
C513 C511 1.392 . S
C513 N512 1.327 . S
C513 H520 0.930 . S
C514 C509 1.385 . S
C514 C511 1.370 . S
C514 H533 0.930 . S
Tb515 N512 2.600 . S
Tb515 N516 2.660 . S
Tb515 O549 2.362 . S
Tb515 O550 2.421 . S
Tb515 O554 2.546 1_545 S
Tb515 O555 2.610 . S
Tb515 O557 2.320 . S
Tb515 O558 2.552 . S
Tb515 O559 2.413 1_545 S
Tb515 C579 2.833 1_545 S
N516 C508 1.360 . S
N516 Tb515 2.660 . S
N516 C517 1.305 . S
C517 N516 1.305 . S
C517 C519 1.407 . S
C517 H524 0.930 . S
C518 C506 1.410 . S
C518 C519 1.345 . S
C518 H526 0.930 . S
C519 C517 1.407 . S
C519 C518 1.345 . S
C519 H521 0.930 . S
H520 C513 0.930 . S
H521 C519 0.930 . S
H522 C510 0.930 . S
H523 C511 0.931 . S
H524 C517 0.930 . S
H525 C539 0.930 . S
H526 C518 0.930 . S
H527 C545 0.930 . S
H528 C536 0.930 . S
H529 C543 0.931 . S
H530 C507 0.929 . S
H531 C537 0.930 1_455 S
H532 C570 0.953 . S
H533 C514 0.930 . S
H534 C569 0.929 1_455 S
N535 Tb504 2.660 . S
N535 C536 1.305 . S
N535 C540 1.360 . S
C536 H528 0.930 . S
C536 N535 1.305 . S
C536 C539 1.407 . S
C537 H531 0.930 1_655 S
C537 C538 1.410 . S
C537 C539 1.345 . S
C538 C537 1.410 . S
C538 C540 1.417 . S
C538 C570 1.415 1_655 S
C539 H525 0.930 . S
C539 C536 1.407 . S
C539 C537 1.345 . S
C540 N535 1.360 . S
C540 C538 1.417 . S
C540 C544 1.432 . S
H541 C546 0.930 . S
N542 Tb504 2.600 . S
N542 C544 1.359 . S
N542 C545 1.327 . S
C543 H529 0.931 . S
C543 C545 1.392 . S
C543 C546 1.370 . S
C544 C540 1.432 . S
C544 N542 1.359 . S
C544 C547 1.414 . S
C545 H527 0.930 . S
C545 N542 1.327 . S
C545 C543 1.392 . S
C546 H541 0.930 . S
C546 C543 1.370 . S
C546 C547 1.385 . S
C547 C544 1.414 . S
C547 C546 1.385 . S
C547 C569 1.444 . S
O548 Tb504 2.546 . S
O548 C568 1.251 . S
O549 Tb504 2.610 . S
O549 Tb515 2.362 . S
O549 C560 1.283 . S
O550 Tb515 2.421 . S
O550 C567 1.262 . S
O551 Tb504 2.320 . S
O551 C567 1.260 . S
O552 Tb504 2.552 . S
O552 C560 1.243 . S
O553 Tb504 2.413 . S
O553 C568 1.256 . S
O554 Tb515 2.546 1_565 S
O554 C579 1.251 . S
O555 Tb504 2.362 . S
O555 Tb515 2.610 . S
O555 C571 1.283 . S
O556 Tb504 2.421 . S
O556 C578 1.262 . S
O557 Tb515 2.320 . S
O557 C578 1.260 . S
O558 Tb515 2.552 . S
O558 C571 1.243 . S
O559 Tb515 2.413 1_565 S
O559 C579 1.256 . S
C560 O549 1.283 . S
C560 O552 1.243 . S
C561 C563 1.382 . S
C561 C565 1.393 . S
C561 C568 1.500 . S
C562 C563 1.400 . S
C562 C564 1.384 . S
C563 C561 1.382 . S
C563 C562 1.400 . S
C563 H580 0.930 . S
C564 C562 1.384 . S
C564 C566 1.392 . S
C564 H581 0.931 . S
C565 C561 1.393 . S
C565 C566 1.401 . S
C565 H582 0.930 . S
C566 C564 1.392 . S
C566 C565 1.401 . S
C566 H583 0.930 . S
C567 O550 1.262 . S
C567 O551 1.260 . S
C568 Tb504 2.833 . S
C568 O548 1.251 . S
C568 O553 1.256 . S
C568 C561 1.500 . S
C569 H534 0.929 1_655 S
C569 C547 1.444 . S
C569 C570 1.312 1_655 S
C570 H532 0.953 . S
C570 C538 1.415 1_455 S
C570 C569 1.312 1_455 S
C571 O555 1.283 . S
C571 O558 1.243 . S
C572 C573 1.382 . S
C572 C576 1.393 . S
C572 C579 1.500 . S
C573 C572 1.382 . S
C573 C574 1.400 . S
C573 H584 0.930 . S
C574 C573 1.400 . S
C574 C575 1.384 . S
C575 C574 1.384 . S
C575 C577 1.392 . S
C575 H585 0.931 . S
C576 C572 1.393 . S
C576 C577 1.401 . S
C576 H586 0.930 . S
C577 C575 1.392 . S
C577 C576 1.401 . S
C577 H587 0.930 . S
C578 O556 1.262 . S
C578 O557 1.260 . S
C579 Tb515 2.833 1_565 S
C579 O554 1.251 . S
C579 O559 1.256 . S
C579 C572 1.500 . S
H580 C563 0.930 . S
H581 C564 0.931 . S
H582 C565 0.930 . S
H583 C566 0.930 . S
H584 C573 0.930 . S
H585 C575 0.931 . S
H586 C576 0.930 . S
H587 C577 0.930 . S
Tb588 N619 2.660 . S
Tb588 N626 2.600 . S
Tb588 O632 2.546 . S
Tb588 O633 2.610 . S
Tb588 O635 2.320 . S
Tb588 O636 2.552 . S
Tb588 O637 2.413 . S
Tb588 O639 2.362 . S
Tb588 O640 2.421 . S
Tb588 C652 2.833 . S
C589 C592 1.432 . S
C589 C593 1.414 . S
C589 N596 1.359 . S
C590 C592 1.417 . S
C590 C594 1.432 . S
C590 C602 1.410 . S
C591 C593 1.444 . S
C591 C594 1.317 . S
C591 H614 0.929 . S
C592 C589 1.432 . S
C592 C590 1.417 . S
C592 N600 1.360 . S
C593 C589 1.414 . S
C593 C591 1.444 . S
C593 C598 1.385 . S
C594 C590 1.432 . S
C594 C591 1.317 . S
C594 H606 0.930 . S
C595 C597 1.392 . S
C595 C598 1.370 . S
C595 H607 0.931 . S
N596 C589 1.359 . S
N596 C597 1.327 . S
N596 Tb599 2.600 . S
C597 C595 1.392 . S
C597 N596 1.327 . S
C597 H604 0.930 . S
C598 C593 1.385 . S
C598 C595 1.370 . S
C598 H617 0.930 . S
Tb599 N596 2.600 . S
Tb599 N600 2.660 . S
Tb599 O633 2.362 . S
Tb599 O634 2.421 . S
Tb599 O638 2.546 1_565 S
Tb599 O639 2.610 . S
Tb599 O641 2.320 . S
Tb599 O642 2.552 . S
Tb599 O643 2.413 1_565 S
Tb599 C663 2.833 1_565 S
N600 C592 1.360 . S
N600 Tb599 2.660 . S
N600 C601 1.305 . S
C601 N600 1.305 . S
C601 C603 1.407 . S
C601 H608 0.930 . S
C602 C590 1.410 . S
C602 C603 1.345 . S
C602 H610 0.930 . S
C603 C601 1.407 . S
C603 C602 1.345 . S
C603 H605 0.930 . S
H604 C597 0.930 . S
H605 C603 0.930 . S
H606 C594 0.930 . S
H607 C595 0.931 . S
H608 C601 0.930 . S
H609 C623 0.930 . S
H610 C602 0.930 . S
H611 C629 0.930 . S
H612 C620 0.930 . S
H613 C627 0.931 . S
H614 C591 0.929 . S
H615 C621 0.930 1_655 S
H616 C654 0.953 . S
H617 C598 0.930 . S
H618 C653 0.929 1_655 S
N619 Tb588 2.660 . S
N619 C620 1.305 . S
N619 C624 1.360 . S
C620 H612 0.930 . S
C620 N619 1.305 . S
C620 C623 1.407 . S
C621 H615 0.930 1_455 S
C621 C622 1.410 . S
C621 C623 1.345 . S
C622 C621 1.410 . S
C622 C624 1.417 . S
C622 C654 1.415 1_455 S
C623 H609 0.930 . S
C623 C620 1.407 . S
C623 C621 1.345 . S
C624 N619 1.360 . S
C624 C622 1.417 . S
C624 C628 1.432 . S
H625 C630 0.930 . S
N626 Tb588 2.600 . S
N626 C628 1.359 . S
N626 C629 1.327 . S
C627 H613 0.931 . S
C627 C629 1.392 . S
C627 C630 1.370 . S
C628 C624 1.432 . S
C628 N626 1.359 . S
C628 C631 1.414 . S
C629 H611 0.930 . S
C629 N626 1.327 . S
C629 C627 1.392 . S
C630 H625 0.930 . S
C630 C627 1.370 . S
C630 C631 1.385 . S
C631 C628 1.414 . S
C631 C630 1.385 . S
C631 C653 1.444 . S
O632 Tb588 2.546 . S
O632 C652 1.251 . S
O633 Tb588 2.610 . S
O633 Tb599 2.362 . S
O633 C644 1.283 . S
O634 Tb599 2.421 . S
O634 C651 1.262 . S
O635 Tb588 2.320 . S
O635 C651 1.260 . S
O636 Tb588 2.552 . S
O636 C644 1.243 . S
O637 Tb588 2.413 . S
O637 C652 1.256 . S
O638 Tb599 2.546 1_545 S
O638 C663 1.251 . S
O639 Tb588 2.362 . S
O639 Tb599 2.610 . S
O639 C655 1.283 . S
O640 Tb588 2.421 . S
O640 C662 1.262 . S
O641 Tb599 2.320 . S
O641 C662 1.260 . S
O642 Tb599 2.552 . S
O642 C655 1.243 . S
O643 Tb599 2.413 1_545 S
O643 C663 1.256 . S
C644 O633 1.283 . S
C644 O636 1.243 . S
C645 C647 1.382 . S
C645 C649 1.393 . S
C645 C652 1.500 . S
C646 C647 1.400 . S
C646 C648 1.384 . S
C647 C645 1.382 . S
C647 C646 1.400 . S
C647 H664 0.930 . S
C648 C646 1.384 . S
C648 C650 1.392 . S
C648 H665 0.931 . S
C649 C645 1.393 . S
C649 C650 1.401 . S
C649 H666 0.930 . S
C650 C648 1.392 . S
C650 C649 1.401 . S
C650 H667 0.930 . S
C651 O634 1.262 . S
C651 O635 1.260 . S
C652 Tb588 2.833 . S
C652 O632 1.251 . S
C652 O637 1.256 . S
C652 C645 1.500 . S
C653 H618 0.929 1_455 S
C653 C631 1.444 . S
C653 C654 1.312 1_455 S
C654 H616 0.953 . S
C654 C622 1.415 1_655 S
C654 C653 1.312 1_655 S
C655 O639 1.283 . S
C655 O642 1.243 . S
C656 C657 1.382 . S
C656 C660 1.393 . S
C656 C663 1.500 . S
C657 C656 1.382 . S
C657 C658 1.400 . S
C657 H668 0.930 . S
C658 C657 1.400 . S
C658 C659 1.384 . S
C659 C658 1.384 . S
C659 C661 1.392 . S
C659 H669 0.931 . S
C660 C656 1.393 . S
C660 C661 1.401 . S
C660 H670 0.930 . S
C661 C659 1.392 . S
C661 C660 1.401 . S
C661 H671 0.930 . S
C662 O640 1.262 . S
C662 O641 1.260 . S
C663 Tb599 2.833 1_545 S
C663 O638 1.251 . S
C663 O643 1.256 . S
C663 C656 1.500 . S
H664 C647 0.930 . S
H665 C648 0.931 . S
H666 C649 0.930 . S
H667 C650 0.930 . S
H668 C657 0.930 . S
H669 C659 0.931 . S
H670 C660 0.930 . S
H671 C661 0.930 . S
Tb672 N703 2.660 . S
Tb672 N710 2.600 . S
Tb672 O716 2.546 . S
Tb672 O717 2.610 . S
Tb672 O719 2.320 . S
Tb672 O720 2.552 . S
Tb672 O721 2.413 . S
Tb672 O723 2.362 . S
Tb672 O724 2.421 . S
Tb672 C736 2.833 . S
C673 C676 1.432 . S
C673 C677 1.414 . S
C673 N680 1.359 . S
C674 C676 1.417 . S
C674 C678 1.432 . S
C674 C686 1.410 . S
C675 C677 1.444 . S
C675 C678 1.317 . S
C675 H698 0.929 . S
C676 C673 1.432 . S
C676 C674 1.417 . S
C676 N684 1.360 . S
C677 C673 1.414 . S
C677 C675 1.444 . S
C677 C682 1.385 . S
C678 C674 1.432 . S
C678 C675 1.317 . S
C678 H690 0.930 . S
C679 C681 1.392 . S
C679 C682 1.370 . S
C679 H691 0.931 . S
N680 C673 1.359 . S
N680 C681 1.327 . S
N680 Tb683 2.600 . S
C681 C679 1.392 . S
C681 N680 1.327 . S
C681 H688 0.930 . S
C682 C677 1.385 . S
C682 C679 1.370 . S
C682 H701 0.930 . S
Tb683 N680 2.600 . S
Tb683 N684 2.660 . S
Tb683 O717 2.362 . S
Tb683 O718 2.421 . S
Tb683 O722 2.546 . S
Tb683 O723 2.610 . S
Tb683 O725 2.320 . S
Tb683 O726 2.552 . S
Tb683 O727 2.413 . S
Tb683 C747 2.833 . S
N684 C676 1.360 . S
N684 Tb683 2.660 . S
N684 C685 1.305 . S
C685 N684 1.305 . S
C685 C687 1.407 . S
C685 H692 0.930 . S
C686 C674 1.410 . S
C686 C687 1.345 . S
C686 H694 0.930 . S
C687 C685 1.407 . S
C687 C686 1.345 . S
C687 H689 0.930 . S
H688 C681 0.930 . S
H689 C687 0.930 . S
H690 C678 0.930 . S
H691 C679 0.931 . S
H692 C685 0.930 . S
H693 C707 0.930 . S
H694 C686 0.930 . S
H695 C713 0.930 . S
H696 C704 0.930 . S
H697 C711 0.931 . S
H698 C675 0.929 . S
H699 C705 0.930 . S
H700 C738 0.930 . S
H701 C682 0.930 . S
H702 C737 0.929 . S
N703 Tb672 2.660 . S
N703 C704 1.305 . S
N703 C708 1.360 . S
C704 H696 0.930 . S
C704 N703 1.305 . S
C704 C707 1.407 . S
C705 H699 0.930 . S
C705 C706 1.410 . S
C705 C707 1.345 . S
C706 C705 1.410 . S
C706 C708 1.417 . S
C706 C738 1.432 . S
C707 H693 0.930 . S
C707 C704 1.407 . S
C707 C705 1.345 . S
C708 N703 1.360 . S
C708 C706 1.417 . S
C708 C712 1.432 . S
H709 C714 0.930 . S
N710 Tb672 2.600 . S
N710 C712 1.359 . S
N710 C713 1.327 . S
C711 H697 0.931 . S
C711 C713 1.392 . S
C711 C714 1.370 . S
C712 C708 1.432 . S
C712 N710 1.359 . S
C712 C715 1.414 . S
C713 H695 0.930 . S
C713 N710 1.327 . S
C713 C711 1.392 . S
C714 H709 0.930 . S
C714 C711 1.370 . S
C714 C715 1.385 . S
C715 C712 1.414 . S
C715 C714 1.385 . S
C715 C737 1.444 . S
O716 Tb672 2.546 . S
O716 C736 1.251 . S
O717 Tb672 2.610 . S
O717 Tb683 2.362 . S
O717 C728 1.283 . S
O718 Tb683 2.421 . S
O718 C735 1.262 . S
O719 Tb672 2.320 . S
O719 C735 1.260 . S
O720 Tb672 2.552 . S
O720 C728 1.243 . S
O721 Tb672 2.413 . S
O721 C736 1.256 . S
O722 Tb683 2.546 . S
O722 C747 1.251 . S
O723 Tb672 2.362 . S
O723 Tb683 2.610 . S
O723 C739 1.283 . S
O724 Tb672 2.421 . S
O724 C746 1.262 . S
O725 Tb683 2.320 . S
O725 C746 1.260 . S
O726 Tb683 2.552 . S
O726 C739 1.243 . S
O727 Tb683 2.413 . S
O727 C747 1.256 . S
C728 O717 1.283 . S
C728 O720 1.243 . S
C729 C731 1.382 . S
C729 C733 1.393 . S
C729 C736 1.500 . S
C730 C731 1.400 . S
C730 C732 1.384 . S
C731 C729 1.382 . S
C731 C730 1.400 . S
C731 H748 0.930 . S
C732 C730 1.384 . S
C732 C734 1.392 . S
C732 H749 0.931 . S
C733 C729 1.393 . S
C733 C734 1.401 . S
C733 H750 0.930 . S
C734 C732 1.392 . S
C734 C733 1.401 . S
C734 H751 0.930 . S
C735 O718 1.262 . S
C735 O719 1.260 . S
C736 Tb672 2.833 . S
C736 O716 1.251 . S
C736 O721 1.256 . S
C736 C729 1.500 . S
C737 H702 0.929 . S
C737 C715 1.444 . S
C737 C738 1.317 . S
C738 H700 0.930 . S
C738 C706 1.432 . S
C738 C737 1.317 . S
C739 O723 1.283 . S
C739 O726 1.243 . S
C740 C741 1.382 . S
C740 C744 1.393 . S
C740 C747 1.500 . S
C741 C740 1.382 . S
C741 C742 1.400 . S
C741 H752 0.930 . S
C742 C741 1.400 . S
C742 C743 1.384 . S
C743 C742 1.384 . S
C743 C745 1.392 . S
C743 H753 0.931 1_565 S
C744 C740 1.393 . S
C744 C745 1.401 . S
C744 H754 0.930 . S
C745 C743 1.392 . S
C745 C744 1.401 . S
C745 H755 0.930 . S
C746 O724 1.262 . S
C746 O725 1.260 . S
C747 Tb683 2.833 . S
C747 O722 1.251 . S
C747 O727 1.256 . S
C747 C740 1.500 . S
H748 C731 0.930 . S
H749 C732 0.931 . S
H750 C733 0.930 . S
H751 C734 0.930 . S
H752 C741 0.930 . S
H753 C743 0.931 1_545 S
H754 C744 0.930 . S
H755 C745 0.930 . S
Tb756 N787 2.660 . S
Tb756 N794 2.600 . S
Tb756 O800 2.546 . S
Tb756 O801 2.610 . S
Tb756 O803 2.320 . S
Tb756 O804 2.552 . S
Tb756 O805 2.413 . S
Tb756 O807 2.362 . S
Tb756 O808 2.421 . S
Tb756 C820 2.833 . S
C757 C760 1.432 . S
C757 C761 1.414 . S
C757 N764 1.359 . S
C758 C760 1.417 . S
C758 C762 1.432 . S
C758 C770 1.410 . S
C759 C761 1.444 . S
C759 C762 1.317 . S
C759 H782 0.929 . S
C760 C757 1.432 . S
C760 C758 1.417 . S
C760 N768 1.360 . S
C761 C757 1.414 . S
C761 C759 1.444 . S
C761 C766 1.385 . S
C762 C758 1.432 . S
C762 C759 1.317 . S
C762 H774 0.930 . S
C763 C765 1.392 . S
C763 C766 1.370 . S
C763 H775 0.931 . S
N764 C757 1.359 . S
N764 C765 1.327 . S
N764 Tb767 2.600 . S
C765 C763 1.392 . S
C765 N764 1.327 . S
C765 H772 0.930 . S
C766 C761 1.385 . S
C766 C763 1.370 . S
C766 H785 0.930 . S
Tb767 N764 2.600 . S
Tb767 N768 2.660 . S
Tb767 O801 2.362 . S
Tb767 O802 2.421 . S
Tb767 O806 2.546 . S
Tb767 O807 2.610 . S
Tb767 O809 2.320 . S
Tb767 O810 2.552 . S
Tb767 O811 2.413 . S
Tb767 C831 2.833 . S
N768 C760 1.360 . S
N768 Tb767 2.660 . S
N768 C769 1.305 . S
C769 N768 1.305 . S
C769 C771 1.407 . S
C769 H776 0.930 . S
C770 C758 1.410 . S
C770 C771 1.345 . S
C770 H778 0.930 . S
C771 C769 1.407 . S
C771 C770 1.345 . S
C771 H773 0.930 . S
H772 C765 0.930 . S
H773 C771 0.930 . S
H774 C762 0.930 . S
H775 C763 0.931 . S
H776 C769 0.930 . S
H777 C791 0.930 . S
H778 C770 0.930 . S
H779 C797 0.930 . S
H780 C788 0.930 . S
H781 C795 0.931 . S
H782 C759 0.929 . S
H783 C789 0.930 . S
H784 C822 0.930 . S
H785 C766 0.930 . S
H786 C821 0.929 . S
N787 Tb756 2.660 . S
N787 C788 1.305 . S
N787 C792 1.360 . S
C788 H780 0.930 . S
C788 N787 1.305 . S
C788 C791 1.407 . S
C789 H783 0.930 . S
C789 C790 1.410 . S
C789 C791 1.345 . S
C790 C789 1.410 . S
C790 C792 1.417 . S
C790 C822 1.432 . S
C791 H777 0.930 . S
C791 C788 1.407 . S
C791 C789 1.345 . S
C792 N787 1.360 . S
C792 C790 1.417 . S
C792 C796 1.432 . S
H793 C798 0.930 . S
N794 Tb756 2.600 . S
N794 C796 1.359 . S
N794 C797 1.327 . S
C795 H781 0.931 . S
C795 C797 1.392 . S
C795 C798 1.370 . S
C796 C792 1.432 . S
C796 N794 1.359 . S
C796 C799 1.414 . S
C797 H779 0.930 . S
C797 N794 1.327 . S
C797 C795 1.392 . S
C798 H793 0.930 . S
C798 C795 1.370 . S
C798 C799 1.385 . S
C799 C796 1.414 . S
C799 C798 1.385 . S
C799 C821 1.444 . S
O800 Tb756 2.546 . S
O800 C820 1.251 . S
O801 Tb756 2.610 . S
O801 Tb767 2.362 . S
O801 C812 1.283 . S
O802 Tb767 2.421 . S
O802 C819 1.262 . S
O803 Tb756 2.320 . S
O803 C819 1.260 . S
O804 Tb756 2.552 . S
O804 C812 1.243 . S
O805 Tb756 2.413 . S
O805 C820 1.256 . S
O806 Tb767 2.546 . S
O806 C831 1.251 . S
O807 Tb756 2.362 . S
O807 Tb767 2.610 . S
O807 C823 1.283 . S
O808 Tb756 2.421 . S
O808 C830 1.262 . S
O809 Tb767 2.320 . S
O809 C830 1.260 . S
O810 Tb767 2.552 . S
O810 C823 1.243 . S
O811 Tb767 2.413 . S
O811 C831 1.256 . S
C812 O801 1.283 . S
C812 O804 1.243 . S
C813 C815 1.382 . S
C813 C817 1.393 . S
C813 C820 1.500 . S
C814 C815 1.400 . S
C814 C816 1.384 . S
C815 C813 1.382 . S
C815 C814 1.400 . S
C815 H832 0.930 . S
C816 C814 1.384 . S
C816 C818 1.392 . S
C816 H833 0.931 . S
C817 C813 1.393 . S
C817 C818 1.401 . S
C817 H834 0.930 . S
C818 C816 1.392 . S
C818 C817 1.401 . S
C818 H835 0.930 . S
C819 O802 1.262 . S
C819 O803 1.260 . S
C820 Tb756 2.833 . S
C820 O800 1.251 . S
C820 O805 1.256 . S
C820 C813 1.500 . S
C821 H786 0.929 . S
C821 C799 1.444 . S
C821 C822 1.317 . S
C822 H784 0.930 . S
C822 C790 1.432 . S
C822 C821 1.317 . S
C823 O807 1.283 . S
C823 O810 1.243 . S
C824 C825 1.382 . S
C824 C828 1.393 . S
C824 C831 1.500 . S
C825 C824 1.382 . S
C825 C826 1.400 . S
C825 H836 0.930 . S
C826 C825 1.400 . S
C826 C827 1.384 . S
C827 C826 1.384 . S
C827 C829 1.392 . S
C827 H837 0.931 1_545 S
C828 C824 1.393 . S
C828 C829 1.401 . S
C828 H838 0.930 . S
C829 C827 1.392 . S
C829 C828 1.401 . S
C829 H839 0.930 . S
C830 O808 1.262 . S
C830 O809 1.260 . S
C831 Tb767 2.833 . S
C831 O806 1.251 . S
C831 O811 1.256 . S
C831 C824 1.500 . S
H832 C815 0.930 . S
H833 C816 0.931 . S
H834 C817 0.930 . S
H835 C818 0.930 . S
H836 C825 0.930 . S
H837 C827 0.931 1_565 S
H838 C828 0.930 . S
H839 C829 0.930 . S
Tb840 N871 2.660 . S
Tb840 N878 2.600 . S
Tb840 O884 2.546 . S
Tb840 O885 2.610 . S
Tb840 O887 2.320 . S
Tb840 O888 2.552 . S
Tb840 O889 2.413 . S
Tb840 O891 2.362 . S
Tb840 O892 2.421 . S
Tb840 C904 2.833 . S
C841 C844 1.432 . S
C841 C845 1.414 . S
C841 N848 1.359 . S
C842 C844 1.417 . S
C842 C846 1.432 . S
C842 C854 1.410 . S
C843 C845 1.444 . S
C843 C846 1.317 . S
C843 H866 0.929 . S
C844 C841 1.432 . S
C844 C842 1.417 . S
C844 N852 1.360 . S
C845 C841 1.414 . S
C845 C843 1.444 . S
C845 C850 1.385 . S
C846 C842 1.432 . S
C846 C843 1.317 . S
C846 H858 0.930 . S
C847 C849 1.392 . S
C847 C850 1.370 . S
C847 H859 0.931 . S
N848 C841 1.359 . S
N848 C849 1.327 . S
N848 Tb851 2.600 . S
C849 C847 1.392 . S
C849 N848 1.327 . S
C849 H856 0.930 . S
C850 C845 1.385 . S
C850 C847 1.370 . S
C850 H869 0.930 . S
Tb851 N848 2.600 . S
Tb851 N852 2.660 . S
Tb851 O885 2.362 . S
Tb851 O886 2.421 . S
Tb851 O890 2.546 . S
Tb851 O891 2.610 . S
Tb851 O893 2.320 . S
Tb851 O894 2.552 . S
Tb851 O895 2.413 . S
Tb851 C915 2.833 . S
N852 C844 1.360 . S
N852 Tb851 2.660 . S
N852 C853 1.305 . S
C853 N852 1.305 . S
C853 C855 1.407 . S
C853 H860 0.930 . S
C854 C842 1.410 . S
C854 C855 1.345 . S
C854 H862 0.930 . S
C855 C853 1.407 . S
C855 C854 1.345 . S
C855 H857 0.930 . S
H856 C849 0.930 . S
H857 C855 0.930 . S
H858 C846 0.930 . S
H859 C847 0.931 . S
H860 C853 0.930 . S
H861 C875 0.930 . S
H862 C854 0.930 . S
H863 C881 0.930 . S
H864 C872 0.930 . S
H865 C879 0.931 . S
H866 C843 0.929 . S
H867 C873 0.930 . S
H868 C906 0.930 . S
H869 C850 0.930 . S
H870 C905 0.929 . S
N871 Tb840 2.660 . S
N871 C872 1.305 . S
N871 C876 1.360 . S
C872 H864 0.930 . S
C872 N871 1.305 . S
C872 C875 1.407 . S
C873 H867 0.930 . S
C873 C874 1.410 . S
C873 C875 1.345 . S
C874 C873 1.410 . S
C874 C876 1.417 . S
C874 C906 1.432 . S
C875 H861 0.930 . S
C875 C872 1.407 . S
C875 C873 1.345 . S
C876 N871 1.360 . S
C876 C874 1.417 . S
C876 C880 1.432 . S
H877 C882 0.930 . S
N878 Tb840 2.600 . S
N878 C880 1.359 . S
N878 C881 1.327 . S
C879 H865 0.931 . S
C879 C881 1.392 . S
C879 C882 1.370 . S
C880 C876 1.432 . S
C880 N878 1.359 . S
C880 C883 1.414 . S
C881 H863 0.930 . S
C881 N878 1.327 . S
C881 C879 1.392 . S
C882 H877 0.930 . S
C882 C879 1.370 . S
C882 C883 1.385 . S
C883 C880 1.414 . S
C883 C882 1.385 . S
C883 C905 1.444 . S
O884 Tb840 2.546 . S
O884 C904 1.251 . S
O885 Tb840 2.610 . S
O885 Tb851 2.362 . S
O885 C896 1.283 . S
O886 Tb851 2.421 . S
O886 C903 1.262 . S
O887 Tb840 2.320 . S
O887 C903 1.260 . S
O888 Tb840 2.552 . S
O888 C896 1.243 . S
O889 Tb840 2.413 . S
O889 C904 1.256 . S
O890 Tb851 2.546 . S
O890 C915 1.251 . S
O891 Tb840 2.362 . S
O891 Tb851 2.610 . S
O891 C907 1.283 . S
O892 Tb840 2.421 . S
O892 C914 1.262 . S
O893 Tb851 2.320 . S
O893 C914 1.260 . S
O894 Tb851 2.552 . S
O894 C907 1.243 . S
O895 Tb851 2.413 . S
O895 C915 1.256 . S
C896 O885 1.283 . S
C896 O888 1.243 . S
C897 C899 1.382 . S
C897 C901 1.393 . S
C897 C904 1.500 . S
C898 C899 1.400 . S
C898 C900 1.384 . S
C899 C897 1.382 . S
C899 C898 1.400 . S
C899 H916 0.930 . S
C900 C898 1.384 . S
C900 C902 1.392 . S
C900 H917 0.931 . S
C901 C897 1.393 . S
C901 C902 1.401 . S
C901 H918 0.930 . S
C902 C900 1.392 . S
C902 C901 1.401 . S
C902 H919 0.930 . S
C903 O886 1.262 . S
C903 O887 1.260 . S
C904 Tb840 2.833 . S
C904 O884 1.251 . S
C904 O889 1.256 . S
C904 C897 1.500 . S
C905 H870 0.929 . S
C905 C883 1.444 . S
C905 C906 1.317 . S
C906 H868 0.930 . S
C906 C874 1.432 . S
C906 C905 1.317 . S
C907 O891 1.283 . S
C907 O894 1.243 . S
C908 C909 1.382 . S
C908 C912 1.393 . S
C908 C915 1.500 . S
C909 C908 1.382 . S
C909 C910 1.400 . S
C909 H920 0.930 . S
C910 C909 1.400 . S
C910 C911 1.384 . S
C911 C910 1.384 . S
C911 C913 1.392 . S
C911 H921 0.931 1_545 S
C912 C908 1.393 . S
C912 C913 1.401 . S
C912 H922 0.930 . S
C913 C911 1.392 . S
C913 C912 1.401 . S
C913 H923 0.930 . S
C914 O892 1.262 . S
C914 O893 1.260 . S
C915 Tb851 2.833 . S
C915 O890 1.251 . S
C915 O895 1.256 . S
C915 C908 1.500 . S
H916 C899 0.930 . S
H917 C900 0.931 . S
H918 C901 0.930 . S
H919 C902 0.930 . S
H920 C909 0.930 . S
H921 C911 0.931 1_565 S
H922 C912 0.930 . S
H923 C913 0.930 . S
Tb924 N955 2.660 . S
Tb924 N962 2.600 . S
Tb924 O968 2.546 . S
Tb924 O969 2.610 . S
Tb924 O971 2.320 . S
Tb924 O972 2.552 . S
Tb924 O973 2.413 . S
Tb924 O975 2.362 . S
Tb924 O976 2.421 . S
Tb924 C988 2.833 . S
C925 C928 1.432 . S
C925 C929 1.414 . S
C925 N932 1.359 . S
C926 C928 1.417 . S
C926 C930 1.432 . S
C926 C938 1.410 . S
C927 C929 1.444 . S
C927 C930 1.317 . S
C927 H950 0.929 . S
C928 C925 1.432 . S
C928 C926 1.417 . S
C928 N936 1.360 . S
C929 C925 1.414 . S
C929 C927 1.444 . S
C929 C934 1.385 . S
C930 C926 1.432 . S
C930 C927 1.317 . S
C930 H942 0.930 . S
C931 C933 1.392 . S
C931 C934 1.370 . S
C931 H943 0.931 . S
N932 C925 1.359 . S
N932 C933 1.327 . S
N932 Tb935 2.600 . S
C933 C931 1.392 . S
C933 N932 1.327 . S
C933 H940 0.930 . S
C934 C929 1.385 . S
C934 C931 1.370 . S
C934 H953 0.930 . S
Tb935 N932 2.600 . S
Tb935 N936 2.660 . S
Tb935 O969 2.362 . S
Tb935 O970 2.421 . S
Tb935 O974 2.546 . S
Tb935 O975 2.610 . S
Tb935 O977 2.320 . S
Tb935 O978 2.552 . S
Tb935 O979 2.413 . S
Tb935 C999 2.833 . S
N936 C928 1.360 . S
N936 Tb935 2.660 . S
N936 C937 1.305 . S
C937 N936 1.305 . S
C937 C939 1.407 . S
C937 H944 0.930 . S
C938 C926 1.410 . S
C938 C939 1.345 . S
C938 H946 0.930 . S
C939 C937 1.407 . S
C939 C938 1.345 . S
C939 H941 0.930 . S
H940 C933 0.930 . S
H941 C939 0.930 . S
H942 C930 0.930 . S
H943 C931 0.931 . S
H944 C937 0.930 . S
H945 C959 0.930 . S
H946 C938 0.930 . S
H947 C965 0.930 . S
H948 C956 0.930 . S
H949 C963 0.931 . S
H950 C927 0.929 . S
H951 C957 0.930 . S
H952 C990 0.930 . S
H953 C934 0.930 . S
H954 C989 0.929 . S
N955 Tb924 2.660 . S
N955 C956 1.305 . S
N955 C960 1.360 . S
C956 H948 0.930 . S
C956 N955 1.305 . S
C956 C959 1.407 . S
C957 H951 0.930 . S
C957 C958 1.410 . S
C957 C959 1.345 . S
C958 C957 1.410 . S
C958 C960 1.417 . S
C958 C990 1.432 . S
C959 H945 0.930 . S
C959 C956 1.407 . S
C959 C957 1.345 . S
C960 N955 1.360 . S
C960 C958 1.417 . S
C960 C964 1.432 . S
H961 C966 0.930 . S
N962 Tb924 2.600 . S
N962 C964 1.359 . S
N962 C965 1.327 . S
C963 H949 0.931 . S
C963 C965 1.392 . S
C963 C966 1.370 . S
C964 C960 1.432 . S
C964 N962 1.359 . S
C964 C967 1.414 . S
C965 H947 0.930 . S
C965 N962 1.327 . S
C965 C963 1.392 . S
C966 H961 0.930 . S
C966 C963 1.370 . S
C966 C967 1.385 . S
C967 C964 1.414 . S
C967 C966 1.385 . S
C967 C989 1.444 . S
O968 Tb924 2.546 . S
O968 C988 1.251 . S
O969 Tb924 2.610 . S
O969 Tb935 2.362 . S
O969 C980 1.283 . S
O970 Tb935 2.421 . S
O970 C987 1.262 . S
O971 Tb924 2.320 . S
O971 C987 1.260 . S
O972 Tb924 2.552 . S
O972 C980 1.243 . S
O973 Tb924 2.413 . S
O973 C988 1.256 . S
O974 Tb935 2.546 . S
O974 C999 1.251 . S
O975 Tb924 2.362 . S
O975 Tb935 2.610 . S
O975 C991 1.283 . S
O976 Tb924 2.421 . S
O976 C998 1.262 . S
O977 Tb935 2.320 . S
O977 C998 1.260 . S
O978 Tb935 2.552 . S
O978 C991 1.243 . S
O979 Tb935 2.413 . S
O979 C999 1.256 . S
C980 O969 1.283 . S
C980 O972 1.243 . S
C981 C983 1.382 . S
C981 C985 1.393 . S
C981 C988 1.500 . S
C982 C983 1.400 . S
C982 C984 1.384 . S
C983 C981 1.382 . S
C983 C982 1.400 . S
C983 H1000 0.930 . S
C984 C982 1.384 . S
C984 C986 1.392 . S
C984 H1001 0.931 . S
C985 C981 1.393 . S
C985 C986 1.401 . S
C985 H1002 0.930 . S
C986 C984 1.392 . S
C986 C985 1.401 . S
C986 H1003 0.930 . S
C987 O970 1.262 . S
C987 O971 1.260 . S
C988 Tb924 2.833 . S
C988 O968 1.251 . S
C988 O973 1.256 . S
C988 C981 1.500 . S
C989 H954 0.929 . S
C989 C967 1.444 . S
C989 C990 1.317 . S
C990 H952 0.930 . S
C990 C958 1.432 . S
C990 C989 1.317 . S
C991 O975 1.283 . S
C991 O978 1.243 . S
C992 C993 1.382 . S
C992 C996 1.393 . S
C992 C999 1.500 . S
C993 C992 1.382 . S
C993 C994 1.400 . S
C993 H1004 0.930 . S
C994 C993 1.400 . S
C994 C995 1.384 . S
C995 C994 1.384 . S
C995 C997 1.392 . S
C995 H1005 0.931 1_565 S
C996 C992 1.393 . S
C996 C997 1.401 . S
C996 H1006 0.930 . S
C997 C995 1.392 . S
C997 C996 1.401 . S
C997 H1007 0.930 . S
C998 O976 1.262 . S
C998 O977 1.260 . S
C999 Tb935 2.833 . S
C999 O974 1.251 . S
C999 O979 1.256 . S
C999 C992 1.500 . S
H1000 C983 0.930 . S
H1001 C984 0.931 . S
H1002 C985 0.930 . S
H1003 C986 0.930 . S
H1004 C993 0.930 . S
H1005 C995 0.931 1_545 S
H1006 C996 0.930 . S
H1007 C997 0.930 . S
Tb1008 N1039 2.660 . S
Tb1008 N1046 2.600 . S
Tb1008 O1052 2.546 . S
Tb1008 O1053 2.610 . S
Tb1008 O1055 2.320 . S
Tb1008 O1056 2.552 . S
Tb1008 O1057 2.413 . S
Tb1008 O1059 2.362 . S
Tb1008 O1060 2.421 . S
Tb1008 C1072 2.833 . S
C1009 C1012 1.432 . S
C1009 C1013 1.414 . S
C1009 N1016 1.359 . S
C1010 C1012 1.417 . S
C1010 C1014 1.432 . S
C1010 C1022 1.410 . S
C1011 C1013 1.444 . S
C1011 C1014 1.317 . S
C1011 H1034 0.929 . S
C1012 C1009 1.432 . S
C1012 C1010 1.417 . S
C1012 N1020 1.360 . S
C1013 C1009 1.414 . S
C1013 C1011 1.444 . S
C1013 C1018 1.385 . S
C1014 C1010 1.432 . S
C1014 C1011 1.317 . S
C1014 H1026 0.930 . S
C1015 C1017 1.392 . S
C1015 C1018 1.370 . S
C1015 H1027 0.931 . S
N1016 C1009 1.359 . S
N1016 C1017 1.327 . S
N1016 Tb1019 2.600 . S
C1017 C1015 1.392 . S
C1017 N1016 1.327 . S
C1017 H1024 0.930 . S
C1018 C1013 1.385 . S
C1018 C1015 1.370 . S
C1018 H1037 0.930 . S
Tb1019 N1016 2.600 . S
Tb1019 N1020 2.660 . S
Tb1019 O1053 2.362 . S
Tb1019 O1054 2.421 . S
Tb1019 O1058 2.546 . S
Tb1019 O1059 2.610 . S
Tb1019 O1061 2.320 . S
Tb1019 O1062 2.552 . S
Tb1019 O1063 2.413 . S
Tb1019 C1083 2.833 . S
N1020 C1012 1.360 . S
N1020 Tb1019 2.660 . S
N1020 C1021 1.305 . S
C1021 N1020 1.305 . S
C1021 C1023 1.407 . S
C1021 H1028 0.930 . S
C1022 C1010 1.410 . S
C1022 C1023 1.345 . S
C1022 H1030 0.930 . S
C1023 C1021 1.407 . S
C1023 C1022 1.345 . S
C1023 H1025 0.930 . S
H1024 C1017 0.930 . S
H1025 C1023 0.930 . S
H1026 C1014 0.930 . S
H1027 C1015 0.931 . S
H1028 C1021 0.930 . S
H1029 C1043 0.930 . S
H1030 C1022 0.930 . S
H1031 C1049 0.930 . S
H1032 C1040 0.930 . S
H1033 C1047 0.931 . S
H1034 C1011 0.929 . S
H1035 C1041 0.930 . S
H1036 C1074 0.930 . S
H1037 C1018 0.930 . S
H1038 C1073 0.929 . S
N1039 Tb1008 2.660 . S
N1039 C1040 1.305 . S
N1039 C1044 1.360 . S
C1040 H1032 0.930 . S
C1040 N1039 1.305 . S
C1040 C1043 1.407 . S
C1041 H1035 0.930 . S
C1041 C1042 1.410 . S
C1041 C1043 1.345 . S
C1042 C1041 1.410 . S
C1042 C1044 1.417 . S
C1042 C1074 1.432 . S
C1043 H1029 0.930 . S
C1043 C1040 1.407 . S
C1043 C1041 1.345 . S
C1044 N1039 1.360 . S
C1044 C1042 1.417 . S
C1044 C1048 1.432 . S
H1045 C1050 0.930 . S
N1046 Tb1008 2.600 . S
N1046 C1048 1.359 . S
N1046 C1049 1.327 . S
C1047 H1033 0.931 . S
C1047 C1049 1.392 . S
C1047 C1050 1.370 . S
C1048 C1044 1.432 . S
C1048 N1046 1.359 . S
C1048 C1051 1.414 . S
C1049 H1031 0.930 . S
C1049 N1046 1.327 . S
C1049 C1047 1.392 . S
C1050 H1045 0.930 . S
C1050 C1047 1.370 . S
C1050 C1051 1.385 . S
C1051 C1048 1.414 . S
C1051 C1050 1.385 . S
C1051 C1073 1.444 . S
O1052 Tb1008 2.546 . S
O1052 C1072 1.251 . S
O1053 Tb1008 2.610 . S
O1053 Tb1019 2.362 . S
O1053 C1064 1.283 . S
O1054 Tb1019 2.421 . S
O1054 C1071 1.262 . S
O1055 Tb1008 2.320 . S
O1055 C1071 1.260 . S
O1056 Tb1008 2.552 . S
O1056 C1064 1.243 . S
O1057 Tb1008 2.413 . S
O1057 C1072 1.256 . S
O1058 Tb1019 2.546 . S
O1058 C1083 1.251 . S
O1059 Tb1008 2.362 . S
O1059 Tb1019 2.610 . S
O1059 C1075 1.283 . S
O1060 Tb1008 2.421 . S
O1060 C1082 1.262 . S
O1061 Tb1019 2.320 . S
O1061 C1082 1.260 . S
O1062 Tb1019 2.552 . S
O1062 C1075 1.243 . S
O1063 Tb1019 2.413 . S
O1063 C1083 1.256 . S
C1064 O1053 1.283 . S
C1064 O1056 1.243 . S
C1065 C1067 1.382 . S
C1065 C1069 1.393 . S
C1065 C1072 1.500 . S
C1066 C1067 1.400 . S
C1066 C1068 1.384 . S
C1067 C1065 1.382 . S
C1067 C1066 1.400 . S
C1067 H1084 0.930 . S
C1068 C1066 1.384 . S
C1068 C1070 1.392 . S
C1068 H1085 0.931 1_545 S
C1069 C1065 1.393 . S
C1069 C1070 1.401 . S
C1069 H1086 0.930 . S
C1070 C1068 1.392 . S
C1070 C1069 1.401 . S
C1070 H1087 0.930 . S
C1071 O1054 1.262 . S
C1071 O1055 1.260 . S
C1072 Tb1008 2.833 . S
C1072 O1052 1.251 . S
C1072 O1057 1.256 . S
C1072 C1065 1.500 . S
C1073 H1038 0.929 . S
C1073 C1051 1.444 . S
C1073 C1074 1.317 . S
C1074 H1036 0.930 . S
C1074 C1042 1.432 . S
C1074 C1073 1.317 . S
C1075 O1059 1.283 . S
C1075 O1062 1.243 . S
C1076 C1077 1.382 . S
C1076 C1080 1.393 . S
C1076 C1083 1.500 . S
C1077 C1076 1.382 . S
C1077 C1078 1.400 . S
C1077 H1088 0.930 . S
C1078 C1077 1.400 . S
C1078 C1079 1.384 . S
C1079 C1078 1.384 . S
C1079 C1081 1.392 . S
C1079 H1089 0.931 . S
C1080 C1076 1.393 . S
C1080 C1081 1.401 . S
C1080 H1090 0.930 . S
C1081 C1079 1.392 . S
C1081 C1080 1.401 . S
C1081 H1091 0.930 . S
C1082 O1060 1.262 . S
C1082 O1061 1.260 . S
C1083 Tb1019 2.833 . S
C1083 O1058 1.251 . S
C1083 O1063 1.256 . S
C1083 C1076 1.500 . S
H1084 C1067 0.930 . S
H1085 C1068 0.931 1_565 S
H1086 C1069 0.930 . S
H1087 C1070 0.930 . S
H1088 C1077 0.930 . S
H1089 C1079 0.931 . S
H1090 C1080 0.930 . S
H1091 C1081 0.930 . S
Tb1092 N1123 2.660 . S
Tb1092 N1130 2.600 . S
Tb1092 O1136 2.546 . S
Tb1092 O1137 2.610 . S
Tb1092 O1139 2.320 . S
Tb1092 O1140 2.552 . S
Tb1092 O1141 2.413 . S
Tb1092 O1143 2.362 . S
Tb1092 O1144 2.421 . S
Tb1092 C1156 2.833 . S
C1093 C1096 1.432 . S
C1093 C1097 1.414 . S
C1093 N1100 1.359 . S
C1094 C1096 1.417 . S
C1094 C1098 1.432 . S
C1094 C1106 1.410 . S
C1095 C1097 1.444 . S
C1095 C1098 1.317 . S
C1095 H1118 0.929 . S
C1096 C1093 1.432 . S
C1096 C1094 1.417 . S
C1096 N1104 1.360 . S
C1097 C1093 1.414 . S
C1097 C1095 1.444 . S
C1097 C1102 1.385 . S
C1098 C1094 1.432 . S
C1098 C1095 1.317 . S
C1098 H1110 0.930 . S
C1099 C1101 1.392 . S
C1099 C1102 1.370 . S
C1099 H1111 0.931 . S
N1100 C1093 1.359 . S
N1100 C1101 1.327 . S
N1100 Tb1103 2.600 . S
C1101 C1099 1.392 . S
C1101 N1100 1.327 . S
C1101 H1108 0.930 . S
C1102 C1097 1.385 . S
C1102 C1099 1.370 . S
C1102 H1121 0.930 . S
Tb1103 N1100 2.600 . S
Tb1103 N1104 2.660 . S
Tb1103 O1137 2.362 . S
Tb1103 O1138 2.421 . S
Tb1103 O1142 2.546 . S
Tb1103 O1143 2.610 . S
Tb1103 O1145 2.320 . S
Tb1103 O1146 2.552 . S
Tb1103 O1147 2.413 . S
Tb1103 C1167 2.833 . S
N1104 C1096 1.360 . S
N1104 Tb1103 2.660 . S
N1104 C1105 1.305 . S
C1105 N1104 1.305 . S
C1105 C1107 1.407 . S
C1105 H1112 0.930 . S
C1106 C1094 1.410 . S
C1106 C1107 1.345 . S
C1106 H1114 0.930 . S
C1107 C1105 1.407 . S
C1107 C1106 1.345 . S
C1107 H1109 0.930 . S
H1108 C1101 0.930 . S
H1109 C1107 0.930 . S
H1110 C1098 0.930 . S
H1111 C1099 0.931 . S
H1112 C1105 0.930 . S
H1113 C1127 0.930 . S
H1114 C1106 0.930 . S
H1115 C1133 0.930 . S
H1116 C1124 0.930 . S
H1117 C1131 0.931 . S
H1118 C1095 0.929 . S
H1119 C1125 0.930 . S
H1120 C1158 0.930 . S
H1121 C1102 0.930 . S
H1122 C1157 0.929 . S
N1123 Tb1092 2.660 . S
N1123 C1124 1.305 . S
N1123 C1128 1.360 . S
C1124 H1116 0.930 . S
C1124 N1123 1.305 . S
C1124 C1127 1.407 . S
C1125 H1119 0.930 . S
C1125 C1126 1.410 . S
C1125 C1127 1.345 . S
C1126 C1125 1.410 . S
C1126 C1128 1.417 . S
C1126 C1158 1.432 . S
C1127 H1113 0.930 . S
C1127 C1124 1.407 . S
C1127 C1125 1.345 . S
C1128 N1123 1.360 . S
C1128 C1126 1.417 . S
C1128 C1132 1.432 . S
H1129 C1134 0.930 . S
N1130 Tb1092 2.600 . S
N1130 C1132 1.359 . S
N1130 C1133 1.327 . S
C1131 H1117 0.931 . S
C1131 C1133 1.392 . S
C1131 C1134 1.370 . S
C1132 C1128 1.432 . S
C1132 N1130 1.359 . S
C1132 C1135 1.414 . S
C1133 H1115 0.930 . S
C1133 N1130 1.327 . S
C1133 C1131 1.392 . S
C1134 H1129 0.930 . S
C1134 C1131 1.370 . S
C1134 C1135 1.385 . S
C1135 C1132 1.414 . S
C1135 C1134 1.385 . S
C1135 C1157 1.444 . S
O1136 Tb1092 2.546 . S
O1136 C1156 1.251 . S
O1137 Tb1092 2.610 . S
O1137 Tb1103 2.362 . S
O1137 C1148 1.283 . S
O1138 Tb1103 2.421 . S
O1138 C1155 1.262 . S
O1139 Tb1092 2.320 . S
O1139 C1155 1.260 . S
O1140 Tb1092 2.552 . S
O1140 C1148 1.243 . S
O1141 Tb1092 2.413 . S
O1141 C1156 1.256 . S
O1142 Tb1103 2.546 . S
O1142 C1167 1.251 . S
O1143 Tb1092 2.362 . S
O1143 Tb1103 2.610 . S
O1143 C1159 1.283 . S
O1144 Tb1092 2.421 . S
O1144 C1166 1.262 . S
O1145 Tb1103 2.320 . S
O1145 C1166 1.260 . S
O1146 Tb1103 2.552 . S
O1146 C1159 1.243 . S
O1147 Tb1103 2.413 . S
O1147 C1167 1.256 . S
C1148 O1137 1.283 . S
C1148 O1140 1.243 . S
C1149 C1151 1.382 . S
C1149 C1153 1.393 . S
C1149 C1156 1.500 . S
C1150 C1151 1.400 . S
C1150 C1152 1.384 . S
C1151 C1149 1.382 . S
C1151 C1150 1.400 . S
C1151 H1168 0.930 . S
C1152 C1150 1.384 . S
C1152 C1154 1.392 . S
C1152 H1169 0.931 1_565 S
C1153 C1149 1.393 . S
C1153 C1154 1.401 . S
C1153 H1170 0.930 . S
C1154 C1152 1.392 . S
C1154 C1153 1.401 . S
C1154 H1171 0.930 . S
C1155 O1138 1.262 . S
C1155 O1139 1.260 . S
C1156 Tb1092 2.833 . S
C1156 O1136 1.251 . S
C1156 O1141 1.256 . S
C1156 C1149 1.500 . S
C1157 H1122 0.929 . S
C1157 C1135 1.444 . S
C1157 C1158 1.317 . S
C1158 H1120 0.930 . S
C1158 C1126 1.432 . S
C1158 C1157 1.317 . S
C1159 O1143 1.283 . S
C1159 O1146 1.243 . S
C1160 C1161 1.382 . S
C1160 C1164 1.393 . S
C1160 C1167 1.500 . S
C1161 C1160 1.382 . S
C1161 C1162 1.400 . S
C1161 H1172 0.930 . S
C1162 C1161 1.400 . S
C1162 C1163 1.384 . S
C1163 C1162 1.384 . S
C1163 C1165 1.392 . S
C1163 H1173 0.931 . S
C1164 C1160 1.393 . S
C1164 C1165 1.401 . S
C1164 H1174 0.930 . S
C1165 C1163 1.392 . S
C1165 C1164 1.401 . S
C1165 H1175 0.930 . S
C1166 O1144 1.262 . S
C1166 O1145 1.260 . S
C1167 Tb1103 2.833 . S
C1167 O1142 1.251 . S
C1167 O1147 1.256 . S
C1167 C1160 1.500 . S
H1168 C1151 0.930 . S
H1169 C1152 0.931 1_545 S
H1170 C1153 0.930 . S
H1171 C1154 0.930 . S
H1172 C1161 0.930 . S
H1173 C1163 0.931 . S
H1174 C1164 0.930 . S
H1175 C1165 0.930 . S
Tb1176 N1207 2.660 . S
Tb1176 N1214 2.600 . S
Tb1176 O1220 2.546 . S
Tb1176 O1221 2.610 . S
Tb1176 O1223 2.320 . S
Tb1176 O1224 2.552 . S
Tb1176 O1225 2.413 . S
Tb1176 O1227 2.362 . S
Tb1176 O1228 2.421 . S
Tb1176 C1240 2.833 . S
C1177 C1180 1.432 . S
C1177 C1181 1.414 . S
C1177 N1184 1.359 . S
C1178 C1180 1.417 . S
C1178 C1182 1.432 . S
C1178 C1190 1.410 . S
C1179 C1181 1.444 . S
C1179 C1182 1.317 . S
C1179 H1202 0.929 . S
C1180 C1177 1.432 . S
C1180 C1178 1.417 . S
C1180 N1188 1.360 . S
C1181 C1177 1.414 . S
C1181 C1179 1.444 . S
C1181 C1186 1.385 . S
C1182 C1178 1.432 . S
C1182 C1179 1.317 . S
C1182 H1194 0.930 . S
C1183 C1185 1.392 . S
C1183 C1186 1.370 . S
C1183 H1195 0.931 . S
N1184 C1177 1.359 . S
N1184 C1185 1.327 . S
N1184 Tb1187 2.600 . S
C1185 C1183 1.392 . S
C1185 N1184 1.327 . S
C1185 H1192 0.930 . S
C1186 C1181 1.385 . S
C1186 C1183 1.370 . S
C1186 H1205 0.930 . S
Tb1187 N1184 2.600 . S
Tb1187 N1188 2.660 . S
Tb1187 O1221 2.362 . S
Tb1187 O1222 2.421 . S
Tb1187 O1226 2.546 . S
Tb1187 O1227 2.610 . S
Tb1187 O1229 2.320 . S
Tb1187 O1230 2.552 . S
Tb1187 O1231 2.413 . S
Tb1187 C1251 2.833 . S
N1188 C1180 1.360 . S
N1188 Tb1187 2.660 . S
N1188 C1189 1.305 . S
C1189 N1188 1.305 . S
C1189 C1191 1.407 . S
C1189 H1196 0.930 . S
C1190 C1178 1.410 . S
C1190 C1191 1.345 . S
C1190 H1198 0.930 . S
C1191 C1189 1.407 . S
C1191 C1190 1.345 . S
C1191 H1193 0.930 . S
H1192 C1185 0.930 . S
H1193 C1191 0.930 . S
H1194 C1182 0.930 . S
H1195 C1183 0.931 . S
H1196 C1189 0.930 . S
H1197 C1211 0.930 . S
H1198 C1190 0.930 . S
H1199 C1217 0.930 . S
H1200 C1208 0.930 . S
H1201 C1215 0.931 . S
H1202 C1179 0.929 . S
H1203 C1209 0.930 . S
H1204 C1242 0.930 . S
H1205 C1186 0.930 . S
H1206 C1241 0.929 . S
N1207 Tb1176 2.660 . S
N1207 C1208 1.305 . S
N1207 C1212 1.360 . S
C1208 H1200 0.930 . S
C1208 N1207 1.305 . S
C1208 C1211 1.407 . S
C1209 H1203 0.930 . S
C1209 C1210 1.410 . S
C1209 C1211 1.345 . S
C1210 C1209 1.410 . S
C1210 C1212 1.417 . S
C1210 C1242 1.432 . S
C1211 H1197 0.930 . S
C1211 C1208 1.407 . S
C1211 C1209 1.345 . S
C1212 N1207 1.360 . S
C1212 C1210 1.417 . S
C1212 C1216 1.432 . S
H1213 C1218 0.930 . S
N1214 Tb1176 2.600 . S
N1214 C1216 1.359 . S
N1214 C1217 1.327 . S
C1215 H1201 0.931 . S
C1215 C1217 1.392 . S
C1215 C1218 1.370 . S
C1216 C1212 1.432 . S
C1216 N1214 1.359 . S
C1216 C1219 1.414 . S
C1217 H1199 0.930 . S
C1217 N1214 1.327 . S
C1217 C1215 1.392 . S
C1218 H1213 0.930 . S
C1218 C1215 1.370 . S
C1218 C1219 1.385 . S
C1219 C1216 1.414 . S
C1219 C1218 1.385 . S
C1219 C1241 1.444 . S
O1220 Tb1176 2.546 . S
O1220 C1240 1.251 . S
O1221 Tb1176 2.610 . S
O1221 Tb1187 2.362 . S
O1221 C1232 1.283 . S
O1222 Tb1187 2.421 . S
O1222 C1239 1.262 . S
O1223 Tb1176 2.320 . S
O1223 C1239 1.260 . S
O1224 Tb1176 2.552 . S
O1224 C1232 1.243 . S
O1225 Tb1176 2.413 . S
O1225 C1240 1.256 . S
O1226 Tb1187 2.546 . S
O1226 C1251 1.251 . S
O1227 Tb1176 2.362 . S
O1227 Tb1187 2.610 . S
O1227 C1243 1.283 . S
O1228 Tb1176 2.421 . S
O1228 C1250 1.262 . S
O1229 Tb1187 2.320 . S
O1229 C1250 1.260 . S
O1230 Tb1187 2.552 . S
O1230 C1243 1.243 . S
O1231 Tb1187 2.413 . S
O1231 C1251 1.256 . S
C1232 O1221 1.283 . S
C1232 O1224 1.243 . S
C1233 C1235 1.382 . S
C1233 C1237 1.393 . S
C1233 C1240 1.500 . S
C1234 C1235 1.400 . S
C1234 C1236 1.384 . S
C1235 C1233 1.382 . S
C1235 C1234 1.400 . S
C1235 H1252 0.930 . S
C1236 C1234 1.384 . S
C1236 C1238 1.392 . S
C1236 H1253 0.931 1_565 S
C1237 C1233 1.393 . S
C1237 C1238 1.401 . S
C1237 H1254 0.930 . S
C1238 C1236 1.392 . S
C1238 C1237 1.401 . S
C1238 H1255 0.930 . S
C1239 O1222 1.262 . S
C1239 O1223 1.260 . S
C1240 Tb1176 2.833 . S
C1240 O1220 1.251 . S
C1240 O1225 1.256 . S
C1240 C1233 1.500 . S
C1241 H1206 0.929 . S
C1241 C1219 1.444 . S
C1241 C1242 1.317 . S
C1242 H1204 0.930 . S
C1242 C1210 1.432 . S
C1242 C1241 1.317 . S
C1243 O1227 1.283 . S
C1243 O1230 1.243 . S
C1244 C1245 1.382 . S
C1244 C1248 1.393 . S
C1244 C1251 1.500 . S
C1245 C1244 1.382 . S
C1245 C1246 1.400 . S
C1245 H1256 0.930 . S
C1246 C1245 1.400 . S
C1246 C1247 1.384 . S
C1247 C1246 1.384 . S
C1247 C1249 1.392 . S
C1247 H1257 0.931 . S
C1248 C1244 1.393 . S
C1248 C1249 1.401 . S
C1248 H1258 0.930 . S
C1249 C1247 1.392 . S
C1249 C1248 1.401 . S
C1249 H1259 0.930 . S
C1250 O1228 1.262 . S
C1250 O1229 1.260 . S
C1251 Tb1187 2.833 . S
C1251 O1226 1.251 . S
C1251 O1231 1.256 . S
C1251 C1244 1.500 . S
H1252 C1235 0.930 . S
H1253 C1236 0.931 1_545 S
H1254 C1237 0.930 . S
H1255 C1238 0.930 . S
H1256 C1245 0.930 . S
H1257 C1247 0.931 . S
H1258 C1248 0.930 . S
H1259 C1249 0.930 . S
Tb1260 N1291 2.660 . S
Tb1260 N1298 2.600 . S
Tb1260 O1304 2.546 . S
Tb1260 O1305 2.610 . S
Tb1260 O1307 2.320 . S
Tb1260 O1308 2.552 . S
Tb1260 O1309 2.413 . S
Tb1260 O1311 2.362 . S
Tb1260 O1312 2.421 . S
Tb1260 C1324 2.833 . S
C1261 C1264 1.432 . S
C1261 C1265 1.414 . S
C1261 N1268 1.359 . S
C1262 C1264 1.417 . S
C1262 C1266 1.432 . S
C1262 C1274 1.410 . S
C1263 C1265 1.444 . S
C1263 C1266 1.317 . S
C1263 H1286 0.929 . S
C1264 C1261 1.432 . S
C1264 C1262 1.417 . S
C1264 N1272 1.360 . S
C1265 C1261 1.414 . S
C1265 C1263 1.444 . S
C1265 C1270 1.385 . S
C1266 C1262 1.432 . S
C1266 C1263 1.317 . S
C1266 H1278 0.930 . S
C1267 C1269 1.392 . S
C1267 C1270 1.370 . S
C1267 H1279 0.931 . S
N1268 C1261 1.359 . S
N1268 C1269 1.327 . S
N1268 Tb1271 2.600 . S
C1269 C1267 1.392 . S
C1269 N1268 1.327 . S
C1269 H1276 0.930 . S
C1270 C1265 1.385 . S
C1270 C1267 1.370 . S
C1270 H1289 0.930 . S
Tb1271 N1268 2.600 . S
Tb1271 N1272 2.660 . S
Tb1271 O1305 2.362 . S
Tb1271 O1306 2.421 . S
Tb1271 O1310 2.546 . S
Tb1271 O1311 2.610 . S
Tb1271 O1313 2.320 . S
Tb1271 O1314 2.552 . S
Tb1271 O1315 2.413 . S
Tb1271 C1335 2.833 . S
N1272 C1264 1.360 . S
N1272 Tb1271 2.660 . S
N1272 C1273 1.305 . S
C1273 N1272 1.305 . S
C1273 C1275 1.407 . S
C1273 H1280 0.930 . S
C1274 C1262 1.410 . S
C1274 C1275 1.345 . S
C1274 H1282 0.930 . S
C1275 C1273 1.407 . S
C1275 C1274 1.345 . S
C1275 H1277 0.930 . S
H1276 C1269 0.930 . S
H1277 C1275 0.930 . S
H1278 C1266 0.930 . S
H1279 C1267 0.931 . S
H1280 C1273 0.930 . S
H1281 C1295 0.930 . S
H1282 C1274 0.930 . S
H1283 C1301 0.930 . S
H1284 C1292 0.930 . S
H1285 C1299 0.931 . S
H1286 C1263 0.929 . S
H1287 C1293 0.930 . S
H1288 C1326 0.930 . S
H1289 C1270 0.930 . S
H1290 C1325 0.929 . S
N1291 Tb1260 2.660 . S
N1291 C1292 1.305 . S
N1291 C1296 1.360 . S
C1292 H1284 0.930 . S
C1292 N1291 1.305 . S
C1292 C1295 1.407 . S
C1293 H1287 0.930 . S
C1293 C1294 1.410 . S
C1293 C1295 1.345 . S
C1294 C1293 1.410 . S
C1294 C1296 1.417 . S
C1294 C1326 1.432 . S
C1295 H1281 0.930 . S
C1295 C1292 1.407 . S
C1295 C1293 1.345 . S
C1296 N1291 1.360 . S
C1296 C1294 1.417 . S
C1296 C1300 1.432 . S
H1297 C1302 0.930 . S
N1298 Tb1260 2.600 . S
N1298 C1300 1.359 . S
N1298 C1301 1.327 . S
C1299 H1285 0.931 . S
C1299 C1301 1.392 . S
C1299 C1302 1.370 . S
C1300 C1296 1.432 . S
C1300 N1298 1.359 . S
C1300 C1303 1.414 . S
C1301 H1283 0.930 . S
C1301 N1298 1.327 . S
C1301 C1299 1.392 . S
C1302 H1297 0.930 . S
C1302 C1299 1.370 . S
C1302 C1303 1.385 . S
C1303 C1300 1.414 . S
C1303 C1302 1.385 . S
C1303 C1325 1.444 . S
O1304 Tb1260 2.546 . S
O1304 C1324 1.251 . S
O1305 Tb1260 2.610 . S
O1305 Tb1271 2.362 . S
O1305 C1316 1.283 . S
O1306 Tb1271 2.421 . S
O1306 C1323 1.262 . S
O1307 Tb1260 2.320 . S
O1307 C1323 1.260 . S
O1308 Tb1260 2.552 . S
O1308 C1316 1.243 . S
O1309 Tb1260 2.413 . S
O1309 C1324 1.256 . S
O1310 Tb1271 2.546 . S
O1310 C1335 1.251 . S
O1311 Tb1260 2.362 . S
O1311 Tb1271 2.610 . S
O1311 C1327 1.283 . S
O1312 Tb1260 2.421 . S
O1312 C1334 1.262 . S
O1313 Tb1271 2.320 . S
O1313 C1334 1.260 . S
O1314 Tb1271 2.552 . S
O1314 C1327 1.243 . S
O1315 Tb1271 2.413 . S
O1315 C1335 1.256 . S
C1316 O1305 1.283 . S
C1316 O1308 1.243 . S
C1317 C1319 1.382 . S
C1317 C1321 1.393 . S
C1317 C1324 1.500 . S
C1318 C1319 1.400 . S
C1318 C1320 1.384 . S
C1319 C1317 1.382 . S
C1319 C1318 1.400 . S
C1319 H1336 0.930 . S
C1320 C1318 1.384 . S
C1320 C1322 1.392 . S
C1320 H1337 0.931 1_545 S
C1321 C1317 1.393 . S
C1321 C1322 1.401 . S
C1321 H1338 0.930 . S
C1322 C1320 1.392 . S
C1322 C1321 1.401 . S
C1322 H1339 0.930 . S
C1323 O1306 1.262 . S
C1323 O1307 1.260 . S
C1324 Tb1260 2.833 . S
C1324 O1304 1.251 . S
C1324 O1309 1.256 . S
C1324 C1317 1.500 . S
C1325 H1290 0.929 . S
C1325 C1303 1.444 . S
C1325 C1326 1.317 . S
C1326 H1288 0.930 . S
C1326 C1294 1.432 . S
C1326 C1325 1.317 . S
C1327 O1311 1.283 . S
C1327 O1314 1.243 . S
C1328 C1329 1.382 . S
C1328 C1332 1.393 . S
C1328 C1335 1.500 . S
C1329 C1328 1.382 . S
C1329 C1330 1.400 . S
C1329 H1340 0.930 . S
C1330 C1329 1.400 . S
C1330 C1331 1.384 . S
C1331 C1330 1.384 . S
C1331 C1333 1.392 . S
C1331 H1341 0.931 . S
C1332 C1328 1.393 . S
C1332 C1333 1.401 . S
C1332 H1342 0.930 . S
C1333 C1331 1.392 . S
C1333 C1332 1.401 . S
C1333 H1343 0.930 . S
C1334 O1312 1.262 . S
C1334 O1313 1.260 . S
C1335 Tb1271 2.833 . S
C1335 O1310 1.251 . S
C1335 O1315 1.256 . S
C1335 C1328 1.500 . S
H1336 C1319 0.930 . S
H1337 C1320 0.931 1_565 S
H1338 C1321 0.930 . S
H1339 C1322 0.930 . S
H1340 C1329 0.930 . S
H1341 C1331 0.931 . S
H1342 C1332 0.930 . S
H1343 C1333 0.930 . S
H1344 C1350 0.930 . S
H1345 C1354 0.930 . S
H1346 C1359 0.929 . S
H1347 C1357 0.929 . S
H1348 C1352 0.929 . S
H1349 C1358 0.929 . S
C1350 H1344 0.930 . S
C1350 C1351 1.367 . S
C1350 C1358 1.378 . S
C1351 C1350 1.367 . S
C1351 C1359 1.433 . S
C1352 H1348 0.929 . S
C1352 C1354 1.378 . S
C1352 C1356 1.350 . S
C1353 C1356 1.463 . S
C1353 C1358 1.350 . S
C1353 N1361 1.427 . S
C1354 H1345 0.930 . S
C1354 C1352 1.378 . S
C1354 C1355 1.367 . S
C1355 C1354 1.367 . S
C1355 C1357 1.433 . S
C1356 C1352 1.350 . S
C1356 C1353 1.463 . S
C1356 N1360 1.427 . S
C1357 H1347 0.929 . S
C1357 C1355 1.433 . S
C1357 N1360 1.384 . S
C1358 H1349 0.929 . S
C1358 C1350 1.378 . S
C1358 C1353 1.350 . S
C1359 H1346 0.929 . S
C1359 C1351 1.433 . S
C1359 N1361 1.384 . S
N1360 C1356 1.427 . S
N1360 C1357 1.384 . S
N1361 C1353 1.427 . S
N1361 C1359 1.384 . S
H1362 C1368 0.930 . S
H1363 C1372 0.930 . S
H1364 C1377 0.929 . S
H1365 C1375 0.929 . S
H1366 C1370 0.929 . S
H1367 C1376 0.929 . S
C1368 H1362 0.930 . S
C1368 C1369 1.367 . S
C1368 C1376 1.378 . S
C1369 C1368 1.367 . S
C1369 C1377 1.433 . S
C1370 H1366 0.929 . S
C1370 C1372 1.378 . S
C1370 C1374 1.350 . S
C1371 C1374 1.463 . S
C1371 C1376 1.350 . S
C1371 N1379 1.427 . S
C1372 H1363 0.930 . S
C1372 C1370 1.378 . S
C1372 C1373 1.367 . S
C1373 C1372 1.367 . S
C1373 C1375 1.433 . S
C1374 C1370 1.350 . S
C1374 C1371 1.463 . S
C1374 N1378 1.427 . S
C1375 H1365 0.929 . S
C1375 C1373 1.433 . S
C1375 N1378 1.384 . S
C1376 H1367 0.929 . S
C1376 C1368 1.378 . S
C1376 C1371 1.350 . S
C1377 H1364 0.929 . S
C1377 C1369 1.433 . S
C1377 N1379 1.384 . S
N1378 C1374 1.427 . S
N1378 C1375 1.384 . S
N1379 C1371 1.427 . S
N1379 C1377 1.384 . S
H1380 C1386 0.930 . S
H1381 C1390 0.930 . S
H1382 C1395 0.929 . S
H1383 C1393 0.929 . S
H1384 C1388 0.929 . S
H1385 C1394 0.929 . S
C1386 H1380 0.930 . S
C1386 C1387 1.367 . S
C1386 C1394 1.378 . S
C1387 C1386 1.367 . S
C1387 C1395 1.433 . S
C1388 H1384 0.929 . S
C1388 C1390 1.378 . S
C1388 C1392 1.350 . S
C1389 C1392 1.463 . S
C1389 C1394 1.350 . S
C1389 N1397 1.427 . S
C1390 H1381 0.930 . S
C1390 C1388 1.378 . S
C1390 C1391 1.367 . S
C1391 C1390 1.367 . S
C1391 C1393 1.433 . S
C1392 C1388 1.350 . S
C1392 C1389 1.463 . S
C1392 N1396 1.427 . S
C1393 H1383 0.929 . S
C1393 C1391 1.433 . S
C1393 N1396 1.384 . S
C1394 H1385 0.929 . S
C1394 C1386 1.378 . S
C1394 C1389 1.350 . S
C1395 H1382 0.929 . S
C1395 C1387 1.433 . S
C1395 N1397 1.384 . S
N1396 C1392 1.427 . S
N1396 C1393 1.384 . S
N1397 C1389 1.427 . S
N1397 C1395 1.384 . S
H1398 C1404 0.930 . S
H1399 C1408 0.930 . S
H1400 C1413 0.929 . S
H1401 C1411 0.929 . S
H1402 C1406 0.929 . S
H1403 C1412 0.929 . S
C1404 H1398 0.930 . S
C1404 C1405 1.367 . S
C1404 C1412 1.378 . S
C1405 C1404 1.367 . S
C1405 C1413 1.433 . S
C1406 H1402 0.929 . S
C1406 C1408 1.378 . S
C1406 C1410 1.350 . S
C1407 C1410 1.463 . S
C1407 C1412 1.350 . S
C1407 N1415 1.427 . S
C1408 H1399 0.930 . S
C1408 C1406 1.378 . S
C1408 C1409 1.367 . S
C1409 C1408 1.367 . S
C1409 C1411 1.433 . S
C1410 C1406 1.350 . S
C1410 C1407 1.463 . S
C1410 N1414 1.427 . S
C1411 H1401 0.929 . S
C1411 C1409 1.433 . S
C1411 N1414 1.384 . S
C1412 H1403 0.929 . S
C1412 C1404 1.378 . S
C1412 C1407 1.350 . S
C1413 H1400 0.929 . S
C1413 C1405 1.433 . S
C1413 N1415 1.384 . S
N1414 C1410 1.427 . S
N1414 C1411 1.384 . S
N1415 C1407 1.427 . S
N1415 C1413 1.384 . S
H1416 C1422 0.930 . S
H1417 C1426 0.930 . S
H1418 C1431 0.929 . S
H1419 C1429 0.929 . S
H1420 C1424 0.929 . S
H1421 C1430 0.929 . S
C1422 H1416 0.930 . S
C1422 C1423 1.367 . S
C1422 C1430 1.378 . S
C1423 C1422 1.367 . S
C1423 C1431 1.433 . S
C1424 H1420 0.929 . S
C1424 C1426 1.378 . S
C1424 C1428 1.350 . S
C1425 C1428 1.463 . S
C1425 C1430 1.350 . S
C1425 N1433 1.427 . S
C1426 H1417 0.930 . S
C1426 C1424 1.378 . S
C1426 C1427 1.367 . S
C1427 C1426 1.367 . S
C1427 C1429 1.433 . S
C1428 C1424 1.350 . S
C1428 C1425 1.463 . S
C1428 N1432 1.427 . S
C1429 H1419 0.929 . S
C1429 C1427 1.433 . S
C1429 N1432 1.384 . S
C1430 H1421 0.929 . S
C1430 C1422 1.378 . S
C1430 C1425 1.350 . S
C1431 H1418 0.929 . S
C1431 C1423 1.433 . S
C1431 N1433 1.384 . S
N1432 C1428 1.427 . S
N1432 C1429 1.384 . S
N1433 C1425 1.427 . S
N1433 C1431 1.384 . S
H1434 C1440 0.930 . S
H1435 C1444 0.930 . S
H1436 C1449 0.929 . S
H1437 C1447 0.929 . S
H1438 C1442 0.929 . S
H1439 C1448 0.929 . S
C1440 H1434 0.930 . S
C1440 C1441 1.367 . S
C1440 C1448 1.378 . S
C1441 C1440 1.367 . S
C1441 C1449 1.433 . S
C1442 H1438 0.929 . S
C1442 C1444 1.378 . S
C1442 C1446 1.350 . S
C1443 C1446 1.463 . S
C1443 C1448 1.350 . S
C1443 N1451 1.427 . S
C1444 H1435 0.930 . S
C1444 C1442 1.378 . S
C1444 C1445 1.367 . S
C1445 C1444 1.367 . S
C1445 C1447 1.433 . S
C1446 C1442 1.350 . S
C1446 C1443 1.463 . S
C1446 N1450 1.427 . S
C1447 H1437 0.929 . S
C1447 C1445 1.433 . S
C1447 N1450 1.384 . S
C1448 H1439 0.929 . S
C1448 C1440 1.378 . S
C1448 C1443 1.350 . S
C1449 H1436 0.929 . S
C1449 C1441 1.433 . S
C1449 N1451 1.384 . S
N1450 C1446 1.427 . S
N1450 C1447 1.384 . S
N1451 C1443 1.427 . S
N1451 C1449 1.384 . S
H1452 C1458 0.930 . S
H1453 C1462 0.930 . S
H1454 C1467 0.929 . S
H1455 C1465 0.929 . S
H1456 C1460 0.929 . S
H1457 C1466 0.929 . S
C1458 H1452 0.930 . S
C1458 C1459 1.367 . S
C1458 C1466 1.378 . S
C1459 C1458 1.367 . S
C1459 C1467 1.433 . S
C1460 H1456 0.929 . S
C1460 C1462 1.378 . S
C1460 C1464 1.350 . S
C1461 C1464 1.463 . S
C1461 C1466 1.350 . S
C1461 N1469 1.427 . S
C1462 H1453 0.930 . S
C1462 C1460 1.378 . S
C1462 C1463 1.367 . S
C1463 C1462 1.367 . S
C1463 C1465 1.433 . S
C1464 C1460 1.350 . S
C1464 C1461 1.463 . S
C1464 N1468 1.427 . S
C1465 H1455 0.929 . S
C1465 C1463 1.433 . S
C1465 N1468 1.384 . S
C1466 H1457 0.929 . S
C1466 C1458 1.378 . S
C1466 C1461 1.350 . S
C1467 H1454 0.929 . S
C1467 C1459 1.433 . S
C1467 N1469 1.384 . S
N1468 C1464 1.427 . S
N1468 C1465 1.384 . S
N1469 C1461 1.427 . S
N1469 C1467 1.384 . S
H1470 C1476 0.930 . S
H1471 C1480 0.930 . S
H1472 C1485 0.929 . S
H1473 C1483 0.929 . S
H1474 C1478 0.929 . S
H1475 C1484 0.929 . S
C1476 H1470 0.930 . S
C1476 C1477 1.367 . S
C1476 C1484 1.378 . S
C1477 C1476 1.367 . S
C1477 C1485 1.433 . S
C1478 H1474 0.929 . S
C1478 C1480 1.378 . S
C1478 C1482 1.350 . S
C1479 C1482 1.463 . S
C1479 C1484 1.350 . S
C1479 N1487 1.427 . S
C1480 H1471 0.930 . S
C1480 C1478 1.378 . S
C1480 C1481 1.367 . S
C1481 C1480 1.367 . S
C1481 C1483 1.433 . S
C1482 C1478 1.350 . S
C1482 C1479 1.463 . S
C1482 N1486 1.427 . S
C1483 H1473 0.929 . S
C1483 C1481 1.433 . S
C1483 N1486 1.384 . S
C1484 H1475 0.929 . S
C1484 C1476 1.378 . S
C1484 C1479 1.350 . S
C1485 H1472 0.929 . S
C1485 C1477 1.433 . S
C1485 N1487 1.384 . S
N1486 C1482 1.427 . S
N1486 C1483 1.384 . S
N1487 C1479 1.427 . S
N1487 C1485 1.384 . S
H1488 C1494 0.930 . S
H1489 C1498 0.930 . S
H1490 C1503 0.929 . S
H1491 C1501 0.929 . S
H1492 C1496 0.929 . S
H1493 C1502 0.929 . S
C1494 H1488 0.930 . S
C1494 C1495 1.367 . S
C1494 C1502 1.378 . S
C1495 C1494 1.367 . S
C1495 C1503 1.433 . S
C1496 H1492 0.929 . S
C1496 C1498 1.378 . S
C1496 C1500 1.350 . S
C1497 C1500 1.463 1_565 S
C1497 C1502 1.350 . S
C1497 N1505 1.427 . S
C1498 H1489 0.930 . S
C1498 C1496 1.378 . S
C1498 C1499 1.367 . S
C1499 C1498 1.367 . S
C1499 C1501 1.433 . S
C1500 C1496 1.350 . S
C1500 C1497 1.463 1_545 S
C1500 N1504 1.427 . S
C1501 H1491 0.929 . S
C1501 C1499 1.433 . S
C1501 N1504 1.384 . S
C1502 H1493 0.929 . S
C1502 C1494 1.378 . S
C1502 C1497 1.350 . S
C1503 H1490 0.929 . S
C1503 C1495 1.433 . S
C1503 N1505 1.384 . S
N1504 C1500 1.427 . S
N1504 C1501 1.384 . S
N1505 C1497 1.427 . S
N1505 C1503 1.384 . S
H1506 C1512 0.930 . S
H1507 C1516 0.930 . S
H1508 C1521 0.929 . S
H1509 C1519 0.929 . S
H1510 C1514 0.929 . S
H1511 C1520 0.929 . S
C1512 H1506 0.930 . S
C1512 C1513 1.367 . S
C1512 C1520 1.378 . S
C1513 C1512 1.367 . S
C1513 C1521 1.433 . S
C1514 H1510 0.929 . S
C1514 C1516 1.378 . S
C1514 C1518 1.350 . S
C1515 C1518 1.463 1_545 S
C1515 C1520 1.350 . S
C1515 N1523 1.427 1_545 S
C1516 H1507 0.930 . S
C1516 C1514 1.378 . S
C1516 C1517 1.367 . S
C1517 C1516 1.367 . S
C1517 C1519 1.433 . S
C1518 C1514 1.350 . S
C1518 C1515 1.463 1_565 S
C1518 N1522 1.427 1_565 S
C1519 H1509 0.929 . S
C1519 C1517 1.433 . S
C1519 N1522 1.384 1_565 S
C1520 H1511 0.929 . S
C1520 C1512 1.378 . S
C1520 C1515 1.350 . S
C1521 H1508 0.929 . S
C1521 C1513 1.433 . S
C1521 N1523 1.384 1_545 S
N1522 C1518 1.427 1_545 S
N1522 C1519 1.384 1_545 S
N1523 C1515 1.427 1_565 S
N1523 C1521 1.384 1_565 S
H1524 C1530 0.930 . S
H1525 C1534 0.930 . S
H1526 C1539 0.929 1_565 S
H1527 C1537 0.929 1_545 S
H1528 C1532 0.929 . S
H1529 C1538 0.929 . S
C1530 H1524 0.930 . S
C1530 C1531 1.367 . S
C1530 C1538 1.378 . S
C1531 C1530 1.367 . S
C1531 C1539 1.433 . S
C1532 H1528 0.929 . S
C1532 C1534 1.378 . S
C1532 C1536 1.350 . S
C1533 C1536 1.463 1_545 S
C1533 C1538 1.350 . S
C1533 N1541 1.427 1_545 S
C1534 H1525 0.930 . S
C1534 C1532 1.378 . S
C1534 C1535 1.367 . S
C1535 C1534 1.367 . S
C1535 C1537 1.433 . S
C1536 C1532 1.350 . S
C1536 C1533 1.463 1_565 S
C1536 N1540 1.427 1_565 S
C1537 H1527 0.929 1_565 S
C1537 C1535 1.433 . S
C1537 N1540 1.384 1_565 S
C1538 H1529 0.929 . S
C1538 C1530 1.378 . S
C1538 C1533 1.350 . S
C1539 H1526 0.929 1_545 S
C1539 C1531 1.433 . S
C1539 N1541 1.384 1_545 S
N1540 C1536 1.427 1_545 S
N1540 C1537 1.384 1_545 S
N1541 C1533 1.427 1_565 S
N1541 C1539 1.384 1_565 S
H1542 C1548 0.930 . S
H1543 C1552 0.930 . S
H1544 C1557 0.929 1_565 S
H1545 C1555 0.929 1_545 S
H1546 C1550 0.929 . S
H1547 C1556 0.929 . S
C1548 H1542 0.930 . S
C1548 C1549 1.367 . S
C1548 C1556 1.378 . S
C1549 C1548 1.367 . S
C1549 C1557 1.433 . S
C1550 H1546 0.929 . S
C1550 C1552 1.378 . S
C1550 C1554 1.350 . S
C1551 C1554 1.463 1_545 S
C1551 C1556 1.350 . S
C1551 N1559 1.427 1_545 S
C1552 H1543 0.930 . S
C1552 C1550 1.378 . S
C1552 C1553 1.367 . S
C1553 C1552 1.367 . S
C1553 C1555 1.433 . S
C1554 C1550 1.350 . S
C1554 C1551 1.463 1_565 S
C1554 N1558 1.427 1_565 S
C1555 H1545 0.929 1_565 S
C1555 C1553 1.433 . S
C1555 N1558 1.384 1_565 S
C1556 H1547 0.929 . S
C1556 C1548 1.378 . S
C1556 C1551 1.350 . S
C1557 H1544 0.929 1_545 S
C1557 C1549 1.433 . S
C1557 N1559 1.384 1_545 S
N1558 C1554 1.427 1_545 S
N1558 C1555 1.384 1_545 S
N1559 C1551 1.427 1_565 S
N1559 C1557 1.384 1_565 S
H1560 C1566 0.930 . S
H1561 C1570 0.930 . S
H1562 C1575 0.929 . S
H1563 C1573 0.929 . S
H1564 C1568 0.929 . S
H1565 C1574 0.929 . S
C1566 H1560 0.930 . S
C1566 C1567 1.367 . S
C1566 C1574 1.378 . S
C1567 C1566 1.367 . S
C1567 C1575 1.433 . S
C1568 H1564 0.929 . S
C1568 C1570 1.378 . S
C1568 C1572 1.350 . S
C1569 C1572 1.463 . S
C1569 C1574 1.350 . S
C1569 N1577 1.427 . S
C1570 H1561 0.930 . S
C1570 C1568 1.378 . S
C1570 C1571 1.367 . S
C1571 C1570 1.367 . S
C1571 C1573 1.433 . S
C1572 C1568 1.350 . S
C1572 C1569 1.463 . S
C1572 N1576 1.427 . S
C1573 H1563 0.929 . S
C1573 C1571 1.433 . S
C1573 N1576 1.384 . S
C1574 H1565 0.929 . S
C1574 C1566 1.378 . S
C1574 C1569 1.350 . S
C1575 H1562 0.929 . S
C1575 C1567 1.433 . S
C1575 N1577 1.384 . S
N1576 C1572 1.427 . S
N1576 C1573 1.384 . S
N1577 C1569 1.427 . S
N1577 C1575 1.384 . S
H1578 C1584 0.930 . S
H1579 C1588 0.930 . S
H1580 C1593 0.929 . S
H1581 C1591 0.929 . S
H1582 C1586 0.929 . S
H1583 C1592 0.929 . S
C1584 H1578 0.930 . S
C1584 C1585 1.367 . S
C1584 C1592 1.378 . S
C1585 C1584 1.367 . S
C1585 C1593 1.433 . S
C1586 H1582 0.929 . S
C1586 C1588 1.378 . S
C1586 C1590 1.350 . S
C1587 C1590 1.463 . S
C1587 C1592 1.350 . S
C1587 N1595 1.427 . S
C1588 H1579 0.930 . S
C1588 C1586 1.378 . S
C1588 C1589 1.367 . S
C1589 C1588 1.367 . S
C1589 C1591 1.433 . S
C1590 C1586 1.350 . S
C1590 C1587 1.463 . S
C1590 N1594 1.427 . S
C1591 H1581 0.929 . S
C1591 C1589 1.433 . S
C1591 N1594 1.384 . S
C1592 H1583 0.929 . S
C1592 C1584 1.378 . S
C1592 C1587 1.350 . S
C1593 H1580 0.929 . S
C1593 C1585 1.433 . S
C1593 N1595 1.384 . S
N1594 C1590 1.427 . S
N1594 C1591 1.384 . S
N1595 C1587 1.427 . S
N1595 C1593 1.384 . S
H1596 C1602 0.930 . S
H1597 C1606 0.930 . S
H1598 C1611 0.929 . S
H1599 C1609 0.929 . S
H1600 C1604 0.929 . S
H1601 C1610 0.929 . S
C1602 H1596 0.930 . S
C1602 C1603 1.367 . S
C1602 C1610 1.378 . S
C1603 C1602 1.367 . S
C1603 C1611 1.433 . S
C1604 H1600 0.929 . S
C1604 C1606 1.378 . S
C1604 C1608 1.350 . S
C1605 C1608 1.463 . S
C1605 C1610 1.350 . S
C1605 N1613 1.427 . S
C1606 H1597 0.930 . S
C1606 C1604 1.378 . S
C1606 C1607 1.367 . S
C1607 C1606 1.367 . S
C1607 C1609 1.433 . S
C1608 C1604 1.350 . S
C1608 C1605 1.463 . S
C1608 N1612 1.427 . S
C1609 H1599 0.929 . S
C1609 C1607 1.433 . S
C1609 N1612 1.384 . S
C1610 H1601 0.929 . S
C1610 C1602 1.378 . S
C1610 C1605 1.350 . S
C1611 H1598 0.929 . S
C1611 C1603 1.433 . S
C1611 N1613 1.384 . S
N1612 C1608 1.427 . S
N1612 C1609 1.384 . S
N1613 C1605 1.427 . S
N1613 C1611 1.384 . S
H1614 C1620 0.930 . S
H1615 C1624 0.930 . S
H1616 C1629 0.929 . S
H1617 C1627 0.929 . S
H1618 C1622 0.929 . S
H1619 C1628 0.929 . S
C1620 H1614 0.930 . S
C1620 C1621 1.367 . S
C1620 C1628 1.378 . S
C1621 C1620 1.367 . S
C1621 C1629 1.433 . S
C1622 H1618 0.929 . S
C1622 C1624 1.378 . S
C1622 C1626 1.350 . S
C1623 C1626 1.463 . S
C1623 C1628 1.350 . S
C1623 N1631 1.427 . S
C1624 H1615 0.930 . S
C1624 C1622 1.378 . S
C1624 C1625 1.367 . S
C1625 C1624 1.367 . S
C1625 C1627 1.433 . S
C1626 C1622 1.350 . S
C1626 C1623 1.463 . S
C1626 N1630 1.427 . S
C1627 H1617 0.929 . S
C1627 C1625 1.433 . S
C1627 N1630 1.384 . S
C1628 H1619 0.929 . S
C1628 C1620 1.378 . S
C1628 C1623 1.350 . S
C1629 H1616 0.929 . S
C1629 C1621 1.433 . S
C1629 N1631 1.384 . S
N1630 C1626 1.427 . S
N1630 C1627 1.384 . S
N1631 C1623 1.427 . S
N1631 C1629 1.384 . S
H1632 C1638 0.930 . S
H1633 C1642 0.930 . S
H1634 C1647 0.929 . S
H1635 C1645 0.929 . S
H1636 C1640 0.929 . S
H1637 C1646 0.929 . S
C1638 H1632 0.930 . S
C1638 C1639 1.367 . S
C1638 C1646 1.378 . S
C1639 C1638 1.367 . S
C1639 C1647 1.433 . S
C1640 H1636 0.929 . S
C1640 C1642 1.378 . S
C1640 C1644 1.350 . S
C1641 C1644 1.463 1_556 S
C1641 C1646 1.350 . S
C1641 N1649 1.427 . S
C1642 H1633 0.930 . S
C1642 C1640 1.378 . S
C1642 C1643 1.367 . S
C1643 C1642 1.367 . S
C1643 C1645 1.433 . S
C1644 C1640 1.350 . S
C1644 C1641 1.463 1_554 S
C1644 N1648 1.427 . S
C1645 H1635 0.929 . S
C1645 C1643 1.433 . S
C1645 N1648 1.384 . S
C1646 H1637 0.929 . S
C1646 C1638 1.378 . S
C1646 C1641 1.350 . S
C1647 H1634 0.929 . S
C1647 C1639 1.433 . S
C1647 N1649 1.384 . S
N1648 C1644 1.427 . S
N1648 C1645 1.384 . S
N1649 C1641 1.427 . S
N1649 C1647 1.384 . S
H1650 C1656 0.930 . S
H1651 C1660 0.930 . S
H1652 C1665 0.929 . S
H1653 C1663 0.929 . S
H1654 C1658 0.929 . S
H1655 C1664 0.929 . S
C1656 H1650 0.930 . S
C1656 C1657 1.367 . S
C1656 C1664 1.378 . S
C1657 C1656 1.367 . S
C1657 C1665 1.433 . S
C1658 H1654 0.929 . S
C1658 C1660 1.378 . S
C1658 C1662 1.350 . S
C1659 C1662 1.463 1_556 S
C1659 C1664 1.350 . S
C1659 N1667 1.427 . S
C1660 H1651 0.930 . S
C1660 C1658 1.378 . S
C1660 C1661 1.367 . S
C1661 C1660 1.367 . S
C1661 C1663 1.433 . S
C1662 C1658 1.350 . S
C1662 C1659 1.463 1_554 S
C1662 N1666 1.427 . S
C1663 H1653 0.929 . S
C1663 C1661 1.433 . S
C1663 N1666 1.384 . S
C1664 H1655 0.929 . S
C1664 C1656 1.378 . S
C1664 C1659 1.350 . S
C1665 H1652 0.929 . S
C1665 C1657 1.433 . S
C1665 N1667 1.384 . S
N1666 C1662 1.427 . S
N1666 C1663 1.384 . S
N1667 C1659 1.427 . S
N1667 C1665 1.384 . S
H1668 C1674 0.930 . S
H1669 C1678 0.930 . S
H1670 C1683 0.929 . S
H1671 C1681 0.929 . S
H1672 C1676 0.929 . S
H1673 C1682 0.929 . S
C1674 H1668 0.930 . S
C1674 C1675 1.367 . S
C1674 C1682 1.378 . S
C1675 C1674 1.367 . S
C1675 C1683 1.433 . S
C1676 H1672 0.929 . S
C1676 C1678 1.378 . S
C1676 C1680 1.350 . S
C1677 C1680 1.463 . S
C1677 C1682 1.350 . S
C1677 N1685 1.427 . S
C1678 H1669 0.930 . S
C1678 C1676 1.378 . S
C1678 C1679 1.367 . S
C1679 C1678 1.367 . S
C1679 C1681 1.433 . S
C1680 C1676 1.350 . S
C1680 C1677 1.463 . S
C1680 N1684 1.427 . S
C1681 H1671 0.929 . S
C1681 C1679 1.433 . S
C1681 N1684 1.384 . S
C1682 H1673 0.929 . S
C1682 C1674 1.378 . S
C1682 C1677 1.350 . S
C1683 H1670 0.929 . S
C1683 C1675 1.433 . S
C1683 N1685 1.384 . S
N1684 C1680 1.427 . S
N1684 C1681 1.384 . S
N1685 C1677 1.427 . S
N1685 C1683 1.384 . S
H1686 C1692 0.930 . S
H1687 C1696 0.930 . S
H1688 C1701 0.929 . S
H1689 C1699 0.929 . S
H1690 C1694 0.929 . S
H1691 C1700 0.929 . S
C1692 H1686 0.930 . S
C1692 C1693 1.367 . S
C1692 C1700 1.378 . S
C1693 C1692 1.367 . S
C1693 C1701 1.433 . S
C1694 H1690 0.929 . S
C1694 C1696 1.378 . S
C1694 C1698 1.350 . S
C1695 C1698 1.463 . S
C1695 C1700 1.350 . S
C1695 N1703 1.427 . S
C1696 H1687 0.930 . S
C1696 C1694 1.378 . S
C1696 C1697 1.367 . S
C1697 C1696 1.367 . S
C1697 C1699 1.433 . S
C1698 C1694 1.350 . S
C1698 C1695 1.463 . S
C1698 N1702 1.427 . S
C1699 H1689 0.929 . S
C1699 C1697 1.433 . S
C1699 N1702 1.384 . S
C1700 H1691 0.929 . S
C1700 C1692 1.378 . S
C1700 C1695 1.350 . S
C1701 H1688 0.929 . S
C1701 C1693 1.433 . S
C1701 N1703 1.384 . S
N1702 C1698 1.427 . S
N1702 C1699 1.384 . S
N1703 C1695 1.427 . S
N1703 C1701 1.384 . S
H1704 C1710 0.930 . S
H1705 C1714 0.930 . S
H1706 C1719 0.929 . S
H1707 C1717 0.929 . S
H1708 C1712 0.929 . S
H1709 C1718 0.929 . S
C1710 H1704 0.930 . S
C1710 C1711 1.367 . S
C1710 C1718 1.378 . S
C1711 C1710 1.367 . S
C1711 C1719 1.433 . S
C1712 H1708 0.929 . S
C1712 C1714 1.378 . S
C1712 C1716 1.350 . S
C1713 C1716 1.463 1_554 S
C1713 C1718 1.350 . S
C1713 N1721 1.427 . S
C1714 H1705 0.930 . S
C1714 C1712 1.378 . S
C1714 C1715 1.367 . S
C1715 C1714 1.367 . S
C1715 C1717 1.433 . S
C1716 C1712 1.350 . S
C1716 C1713 1.463 1_556 S
C1716 N1720 1.427 . S
C1717 H1707 0.929 . S
C1717 C1715 1.433 . S
C1717 N1720 1.384 . S
C1718 H1709 0.929 . S
C1718 C1710 1.378 . S
C1718 C1713 1.350 . S
C1719 H1706 0.929 . S
C1719 C1711 1.433 . S
C1719 N1721 1.384 . S
N1720 C1716 1.427 . S
N1720 C1717 1.384 . S
N1721 C1713 1.427 . S
N1721 C1719 1.384 . S
H1722 C1728 0.930 . S
H1723 C1732 0.930 . S
H1724 C1737 0.929 . S
H1725 C1735 0.929 . S
H1726 C1730 0.929 . S
H1727 C1736 0.929 . S
C1728 H1722 0.930 . S
C1728 C1729 1.367 . S
C1728 C1736 1.378 . S
C1729 C1728 1.367 . S
C1729 C1737 1.433 . S
C1730 H1726 0.929 . S
C1730 C1732 1.378 . S
C1730 C1734 1.350 . S
C1731 C1734 1.463 1_556 S
C1731 C1736 1.350 . S
C1731 N1739 1.427 . S
C1732 H1723 0.930 . S
C1732 C1730 1.378 . S
C1732 C1733 1.367 . S
C1733 C1732 1.367 . S
C1733 C1735 1.433 . S
C1734 C1730 1.350 . S
C1734 C1731 1.463 1_554 S
C1734 N1738 1.427 . S
C1735 H1725 0.929 . S
C1735 C1733 1.433 . S
C1735 N1738 1.384 . S
C1736 H1727 0.929 . S
C1736 C1728 1.378 . S
C1736 C1731 1.350 . S
C1737 H1724 0.929 . S
C1737 C1729 1.433 . S
C1737 N1739 1.384 . S
N1738 C1734 1.427 . S
N1738 C1735 1.384 . S
N1739 C1731 1.427 . S
N1739 C1737 1.384 . S
H1740 C1746 0.930 . S
H1741 C1750 0.930 . S
H1742 C1755 0.929 . S
H1743 C1753 0.929 . S
H1744 C1748 0.929 . S
H1745 C1754 0.929 . S
C1746 H1740 0.930 . S
C1746 C1747 1.367 . S
C1746 C1754 1.378 . S
C1747 C1746 1.367 . S
C1747 C1755 1.433 . S
C1748 H1744 0.929 . S
C1748 C1750 1.378 . S
C1748 C1752 1.350 . S
C1749 C1752 1.463 . S
C1749 C1754 1.350 . S
C1749 N1757 1.427 . S
C1750 H1741 0.930 . S
C1750 C1748 1.378 . S
C1750 C1751 1.367 . S
C1751 C1750 1.367 . S
C1751 C1753 1.433 . S
C1752 C1748 1.350 . S
C1752 C1749 1.463 . S
C1752 N1756 1.427 . S
C1753 H1743 0.929 . S
C1753 C1751 1.433 . S
C1753 N1756 1.384 . S
C1754 H1745 0.929 . S
C1754 C1746 1.378 . S
C1754 C1749 1.350 . S
C1755 H1742 0.929 . S
C1755 C1747 1.433 . S
C1755 N1757 1.384 . S
N1756 C1752 1.427 . S
N1756 C1753 1.384 . S
N1757 C1749 1.427 . S
N1757 C1755 1.384 . S
H1758 C1764 0.930 . S
H1759 C1768 0.930 . S
H1760 C1773 0.929 . S
H1761 C1771 0.929 . S
H1762 C1766 0.929 . S
H1763 C1772 0.929 . S
C1764 H1758 0.930 . S
C1764 C1765 1.367 . S
C1764 C1772 1.378 . S
C1765 C1764 1.367 . S
C1765 C1773 1.433 . S
C1766 H1762 0.929 . S
C1766 C1768 1.378 . S
C1766 C1770 1.350 . S
C1767 C1770 1.463 . S
C1767 C1772 1.350 . S
C1767 N1775 1.427 . S
C1768 H1759 0.930 . S
C1768 C1766 1.378 . S
C1768 C1769 1.367 . S
C1769 C1768 1.367 . S
C1769 C1771 1.433 . S
C1770 C1766 1.350 . S
C1770 C1767 1.463 . S
C1770 N1774 1.427 . S
C1771 H1761 0.929 . S
C1771 C1769 1.433 . S
C1771 N1774 1.384 . S
C1772 H1763 0.929 . S
C1772 C1764 1.378 . S
C1772 C1767 1.350 . S
C1773 H1760 0.929 . S
C1773 C1765 1.433 . S
C1773 N1775 1.384 . S
N1774 C1770 1.427 . S
N1774 C1771 1.384 . S
N1775 C1767 1.427 . S
N1775 C1773 1.384 . S
H1776 C1782 0.930 1_545 S
H1777 C1786 0.930 1_565 S
H1778 C1791 0.929 . S
H1779 C1789 0.929 . S
H1780 C1784 0.929 . S
H1781 C1790 0.929 . S
C1782 H1776 0.930 1_565 S
C1782 C1783 1.367 . S
C1782 C1790 1.378 1_565 S
C1783 C1782 1.367 . S
C1783 C1791 1.433 . S
C1784 H1780 0.929 . S
C1784 C1786 1.378 1_565 S
C1784 C1788 1.350 1_565 S
C1785 C1788 1.463 1_665 S
C1785 C1790 1.350 1_565 S
C1785 N1793 1.427 . S
C1786 H1777 0.930 1_545 S
C1786 C1784 1.378 1_545 S
C1786 C1787 1.367 . S
C1787 C1786 1.367 . S
C1787 C1789 1.433 . S
C1788 C1784 1.350 1_545 S
C1788 C1785 1.463 1_445 S
C1788 N1792 1.427 . S
C1789 H1779 0.929 . S
C1789 C1787 1.433 . S
C1789 N1792 1.384 . S
C1790 H1781 0.929 . S
C1790 C1782 1.378 1_545 S
C1790 C1785 1.350 1_545 S
C1791 H1778 0.929 . S
C1791 C1783 1.433 . S
C1791 N1793 1.384 . S
N1792 C1788 1.427 . S
N1792 C1789 1.384 . S
N1793 C1785 1.427 . S
N1793 C1791 1.384 . S
H1794 C1800 0.930 . S
H1795 C1804 0.930 . S
H1796 C1809 0.929 . S
H1797 C1807 0.929 . S
H1798 C1802 0.929 . S
H1799 C1808 0.929 . S
C1800 H1794 0.930 . S
C1800 C1801 1.367 . S
C1800 C1808 1.378 . S
C1801 C1800 1.367 . S
C1801 C1809 1.433 . S
C1802 H1798 0.929 . S
C1802 C1804 1.378 . S
C1802 C1806 1.350 . S
C1803 C1806 1.463 1_645 S
C1803 C1808 1.350 . S
C1803 N1811 1.431 . S
C1804 H1795 0.930 . S
C1804 C1802 1.378 . S
C1804 C1805 1.367 . S
C1805 C1804 1.367 . S
C1805 C1807 1.433 . S
C1806 C1802 1.350 . S
C1806 C1803 1.463 1_465 S
C1806 N1810 1.431 . S
C1807 H1797 0.929 . S
C1807 C1805 1.433 . S
C1807 N1810 1.391 . S
C1808 H1799 0.929 . S
C1808 C1800 1.378 . S
C1808 C1803 1.350 . S
C1809 H1796 0.929 . S
C1809 C1801 1.433 . S
C1809 N1811 1.391 . S
N1810 C1806 1.431 . S
N1810 C1807 1.391 . S
N1811 C1803 1.431 . S
N1811 C1809 1.391 . S
H1812 C1818 0.930 . S
H1813 C1822 0.930 . S
H1814 C1827 0.929 . S
H1815 C1825 0.929 . S
H1816 C1820 0.937 . S
H1817 C1826 0.937 . S
C1818 H1812 0.930 . S
C1818 C1819 1.367 . S
C1818 C1826 1.378 . S
C1819 C1818 1.367 . S
C1819 C1827 1.433 . S
C1820 H1816 0.937 . S
C1820 C1822 1.378 . S
C1820 C1824 1.350 . S
C1821 C1824 1.463 1_445 S
C1821 C1826 1.350 . S
C1821 N1829 1.427 . S
C1822 H1813 0.930 . S
C1822 C1820 1.378 . S
C1822 C1823 1.367 . S
C1823 C1822 1.367 . S
C1823 C1825 1.433 . S
C1824 C1820 1.350 . S
C1824 C1821 1.463 1_665 S
C1824 N1828 1.427 . S
C1825 H1815 0.929 . S
C1825 C1823 1.433 . S
C1825 N1828 1.384 . S
C1826 H1817 0.937 . S
C1826 C1818 1.378 . S
C1826 C1821 1.350 . S
C1827 H1814 0.929 . S
C1827 C1819 1.433 . S
C1827 N1829 1.384 . S
N1828 C1824 1.427 . S
N1828 C1825 1.384 . S
N1829 C1821 1.427 . S
N1829 C1827 1.384 . S
H1830 C1836 0.930 . S
H1831 C1840 0.930 . S
H1832 C1845 0.929 . S
H1833 C1843 0.929 . S
H1834 C1838 0.929 . S
H1835 C1844 0.929 . S
C1836 H1830 0.930 . S
C1836 C1837 1.367 . S
C1836 C1844 1.378 . S
C1837 C1836 1.367 . S
C1837 C1845 1.433 . S
C1838 H1834 0.929 . S
C1838 C1840 1.378 . S
C1838 C1842 1.350 . S
C1839 C1842 1.463 1_645 S
C1839 C1844 1.350 . S
C1839 N1847 1.427 1_545 S
C1840 H1831 0.930 . S
C1840 C1838 1.378 . S
C1840 C1841 1.367 . S
C1841 C1840 1.367 . S
C1841 C1843 1.433 . S
C1842 C1838 1.350 . S
C1842 C1839 1.463 1_465 S
C1842 N1846 1.427 1_565 S
C1843 H1833 0.929 . S
C1843 C1841 1.433 . S
C1843 N1846 1.384 1_565 S
C1844 H1835 0.929 . S
C1844 C1836 1.378 . S
C1844 C1839 1.350 . S
C1845 H1832 0.929 . S
C1845 C1837 1.433 . S
C1845 N1847 1.384 1_545 S
N1846 C1842 1.427 1_545 S
N1846 C1843 1.384 1_545 S
N1847 C1839 1.427 1_565 S
N1847 C1845 1.384 1_565 S
H1848 C1854 0.930 . S
H1849 C1858 0.930 . S
H1850 C1863 0.929 . S
H1851 C1861 0.929 . S
H1852 C1856 0.929 . S
H1853 C1862 0.929 . S
C1854 H1848 0.930 . S
C1854 C1855 1.367 . S
C1854 C1862 1.378 . S
C1855 C1854 1.367 . S
C1855 C1863 1.433 . S
C1856 H1852 0.929 . S
C1856 C1858 1.378 . S
C1856 C1860 1.350 . S
C1857 C1860 1.463 . S
C1857 C1862 1.350 . S
C1857 N1865 1.427 . S
C1858 H1849 0.930 . S
C1858 C1856 1.378 . S
C1858 C1859 1.367 . S
C1859 C1858 1.367 . S
C1859 C1861 1.433 . S
C1860 C1856 1.350 . S
C1860 C1857 1.463 . S
C1860 N1864 1.427 . S
C1861 H1851 0.929 . S
C1861 C1859 1.433 . S
C1861 N1864 1.384 . S
C1862 H1853 0.929 . S
C1862 C1854 1.378 . S
C1862 C1857 1.350 . S
C1863 H1850 0.929 . S
C1863 C1855 1.433 . S
C1863 N1865 1.384 . S
N1864 C1860 1.427 . S
N1864 C1861 1.384 . S
N1865 C1857 1.427 . S
N1865 C1863 1.384 . S
H1866 C1872 0.930 . S
H1867 C1876 0.930 . S
H1868 C1881 0.929 . S
H1869 C1879 0.929 . S
H1870 C1874 0.929 . S
H1871 C1880 0.929 . S
C1872 H1866 0.930 . S
C1872 C1873 1.367 . S
C1872 C1880 1.378 . S
C1873 C1872 1.367 . S
C1873 C1881 1.433 . S
C1874 H1870 0.929 . S
C1874 C1876 1.378 . S
C1874 C1878 1.350 . S
C1875 C1878 1.463 . S
C1875 C1880 1.350 . S
C1875 N1883 1.427 . S
C1876 H1867 0.930 . S
C1876 C1874 1.378 . S
C1876 C1877 1.367 . S
C1877 C1876 1.367 . S
C1877 C1879 1.433 . S
C1878 C1874 1.350 . S
C1878 C1875 1.463 . S
C1878 N1882 1.427 . S
C1879 H1869 0.929 . S
C1879 C1877 1.433 . S
C1879 N1882 1.384 . S
C1880 H1871 0.929 . S
C1880 C1872 1.378 . S
C1880 C1875 1.350 . S
C1881 H1868 0.929 . S
C1881 C1873 1.433 . S
C1881 N1883 1.384 . S
N1882 C1878 1.427 . S
N1882 C1879 1.384 . S
N1883 C1875 1.427 . S
N1883 C1881 1.384 . S
H1884 C1890 0.930 . S
H1885 C1894 0.930 . S
H1886 C1899 0.929 . S
H1887 C1897 0.929 . S
H1888 C1892 0.929 . S
H1889 C1898 0.929 . S
C1890 H1884 0.930 . S
C1890 C1891 1.367 . S
C1890 C1898 1.378 . S
C1891 C1890 1.367 . S
C1891 C1899 1.433 . S
C1892 H1888 0.929 . S
C1892 C1894 1.378 . S
C1892 C1896 1.350 . S
C1893 C1896 1.463 . S
C1893 C1898 1.350 . S
C1893 N1901 1.427 . S
C1894 H1885 0.930 . S
C1894 C1892 1.378 . S
C1894 C1895 1.367 . S
C1895 C1894 1.367 . S
C1895 C1897 1.433 . S
C1896 C1892 1.350 . S
C1896 C1893 1.463 . S
C1896 N1900 1.427 . S
C1897 H1887 0.929 . S
C1897 C1895 1.433 . S
C1897 N1900 1.384 . S
C1898 H1889 0.929 . S
C1898 C1890 1.378 . S
C1898 C1893 1.350 . S
C1899 H1886 0.929 . S
C1899 C1891 1.433 . S
C1899 N1901 1.384 . S
N1900 C1896 1.427 . S
N1900 C1897 1.384 . S
N1901 C1893 1.427 . S
N1901 C1899 1.384 . S
H1902 C1908 0.930 . S
H1903 C1912 0.930 . S
H1904 C1917 0.929 . S
H1905 C1915 0.929 . S
H1906 C1910 0.929 . S
H1907 C1916 0.929 . S
C1908 H1902 0.930 . S
C1908 C1909 1.367 . S
C1908 C1916 1.378 . S
C1909 C1908 1.367 . S
C1909 C1917 1.433 . S
C1910 H1906 0.929 . S
C1910 C1912 1.378 . S
C1910 C1914 1.350 . S
C1911 C1914 1.463 . S
C1911 C1916 1.350 . S
C1911 N1919 1.427 . S
C1912 H1903 0.930 . S
C1912 C1910 1.378 . S
C1912 C1913 1.367 . S
C1913 C1912 1.367 . S
C1913 C1915 1.433 . S
C1914 C1910 1.350 . S
C1914 C1911 1.463 . S
C1914 N1918 1.427 . S
C1915 H1905 0.929 . S
C1915 C1913 1.433 . S
C1915 N1918 1.384 . S
C1916 H1907 0.929 . S
C1916 C1908 1.378 . S
C1916 C1911 1.350 . S
C1917 H1904 0.929 . S
C1917 C1909 1.433 . S
C1917 N1919 1.384 . S
N1918 C1914 1.427 . S
N1918 C1915 1.384 . S
N1919 C1911 1.427 . S
N1919 C1917 1.384 . S
H1920 C1926 0.930 . S
H1921 C1930 0.930 . S
H1922 C1935 0.929 . S
H1923 C1933 0.929 . S
H1924 C1928 0.929 . S
H1925 C1934 0.929 . S
C1926 H1920 0.930 . S
C1926 C1927 1.367 . S
C1926 C1934 1.378 . S
C1927 C1926 1.367 . S
C1927 C1935 1.433 . S
C1928 H1924 0.929 . S
C1928 C1930 1.378 . S
C1928 C1932 1.350 . S
C1929 C1932 1.463 . S
C1929 C1934 1.350 . S
C1929 N1937 1.427 . S
C1930 H1921 0.930 . S
C1930 C1928 1.378 . S
C1930 C1931 1.367 . S
C1931 C1930 1.367 . S
C1931 C1933 1.433 . S
C1932 C1928 1.350 . S
C1932 C1929 1.463 . S
C1932 N1936 1.427 . S
C1933 H1923 0.929 . S
C1933 C1931 1.433 . S
C1933 N1936 1.384 . S
C1934 H1925 0.929 . S
C1934 C1926 1.378 . S
C1934 C1929 1.350 . S
C1935 H1922 0.929 . S
C1935 C1927 1.433 . S
C1935 N1937 1.384 . S
N1936 C1932 1.427 . S
N1936 C1933 1.384 . S
N1937 C1929 1.427 . S
N1937 C1935 1.384 . S
H1938 C1944 0.930 . S
H1939 C1948 0.930 . S
H1940 C1953 0.929 . S
H1941 C1951 0.929 . S
H1942 C1946 0.929 . S
H1943 C1952 0.929 . S
C1944 H1938 0.930 . S
C1944 C1945 1.367 . S
C1944 C1952 1.378 . S
C1945 C1944 1.367 . S
C1945 C1953 1.433 . S
C1946 H1942 0.929 . S
C1946 C1948 1.378 . S
C1946 C1950 1.350 . S
C1947 C1950 1.463 . S
C1947 C1952 1.350 . S
C1947 N1955 1.427 . S
C1948 H1939 0.930 . S
C1948 C1946 1.378 . S
C1948 C1949 1.367 . S
C1949 C1948 1.367 . S
C1949 C1951 1.433 . S
C1950 C1946 1.350 . S
C1950 C1947 1.463 . S
C1950 N1954 1.427 . S
C1951 H1941 0.929 . S
C1951 C1949 1.433 . S
C1951 N1954 1.384 . S
C1952 H1943 0.929 . S
C1952 C1944 1.378 . S
C1952 C1947 1.350 . S
C1953 H1940 0.929 . S
C1953 C1945 1.433 . S
C1953 N1955 1.384 . S
N1954 C1950 1.427 . S
N1954 C1951 1.384 . S
N1955 C1947 1.427 . S
N1955 C1953 1.384 . S
H1956 C1962 0.930 . S
H1957 C1966 0.930 . S
H1958 C1971 0.929 . S
H1959 C1969 0.929 . S
H1960 C1964 0.929 . S
H1961 C1970 0.929 . S
C1962 H1956 0.930 . S
C1962 C1963 1.367 . S
C1962 C1970 1.378 . S
C1963 C1962 1.367 . S
C1963 C1971 1.433 . S
C1964 H1960 0.929 . S
C1964 C1966 1.378 . S
C1964 C1968 1.350 . S
C1965 C1968 1.463 . S
C1965 C1970 1.350 . S
C1965 N1973 1.427 . S
C1966 H1957 0.930 . S
C1966 C1964 1.378 . S
C1966 C1967 1.367 . S
C1967 C1966 1.367 . S
C1967 C1969 1.433 . S
C1968 C1964 1.350 . S
C1968 C1965 1.463 . S
C1968 N1972 1.427 . S
C1969 H1959 0.929 . S
C1969 C1967 1.433 . S
C1969 N1972 1.384 . S
C1970 H1961 0.929 . S
C1970 C1962 1.378 . S
C1970 C1965 1.350 . S
C1971 H1958 0.929 . S
C1971 C1963 1.433 . S
C1971 N1973 1.384 . S
N1972 C1968 1.427 . S
N1972 C1969 1.384 . S
N1973 C1965 1.427 . S
N1973 C1971 1.384 . S
H1974 C1980 0.930 . S
H1975 C1984 0.930 . S
H1976 C1989 0.929 . S
H1977 C1987 0.929 . S
H1978 C1982 0.929 . S
H1979 C1988 0.929 . S
C1980 H1974 0.930 . S
C1980 C1981 1.367 . S
C1980 C1988 1.378 . S
C1981 C1980 1.367 . S
C1981 C1989 1.433 . S
C1982 H1978 0.929 . S
C1982 C1984 1.378 . S
C1982 C1986 1.350 . S
C1983 C1986 1.463 . S
C1983 C1988 1.350 . S
C1983 N1991 1.427 . S
C1984 H1975 0.930 . S
C1984 C1982 1.378 . S
C1984 C1985 1.367 . S
C1985 C1984 1.367 . S
C1985 C1987 1.433 . S
C1986 C1982 1.350 . S
C1986 C1983 1.463 . S
C1986 N1990 1.427 . S
C1987 H1977 0.929 . S
C1987 C1985 1.433 . S
C1987 N1990 1.384 . S
C1988 H1979 0.929 . S
C1988 C1980 1.378 . S
C1988 C1983 1.350 . S
C1989 H1976 0.929 . S
C1989 C1981 1.433 . S
C1989 N1991 1.384 . S
N1990 C1986 1.427 . S
N1990 C1987 1.384 . S
N1991 C1983 1.427 . S
N1991 C1989 1.384 . S
H1992 C1998 0.930 . S
H1993 C2002 0.930 . S
H1994 C2007 0.929 . S
H1995 C2005 0.929 . S
H1996 C2000 0.929 . S
H1997 C2006 0.929 . S
C1998 H1992 0.930 . S
C1998 C1999 1.367 . S
C1998 C2006 1.378 . S
C1999 C1998 1.367 . S
C1999 C2007 1.433 . S
C2000 H1996 0.929 . S
C2000 C2002 1.378 . S
C2000 C2004 1.350 . S
C2001 C2004 1.463 . S
C2001 C2006 1.350 . S
C2001 N2009 1.427 . S
C2002 H1993 0.930 . S
C2002 C2000 1.378 . S
C2002 C2003 1.367 . S
C2003 C2002 1.367 . S
C2003 C2005 1.433 . S
C2004 C2000 1.350 . S
C2004 C2001 1.463 . S
C2004 N2008 1.427 . S
C2005 H1995 0.929 . S
C2005 C2003 1.433 . S
C2005 N2008 1.384 . S
C2006 H1997 0.929 . S
C2006 C1998 1.378 . S
C2006 C2001 1.350 . S
C2007 H1994 0.929 . S
C2007 C1999 1.433 . S
C2007 N2009 1.384 . S
N2008 C2004 1.427 . S
N2008 C2005 1.384 . S
N2009 C2001 1.427 . S
N2009 C2007 1.384 . S
H2010 C2016 0.930 . S
H2011 C2020 0.930 . S
H2012 C2025 0.929 . S
H2013 C2023 0.929 . S
H2014 C2018 0.929 . S
H2015 C2024 0.929 . S
C2016 H2010 0.930 . S
C2016 C2017 1.367 . S
C2016 C2024 1.378 . S
C2017 C2016 1.367 . S
C2017 C2025 1.433 . S
C2018 H2014 0.929 . S
C2018 C2020 1.378 . S
C2018 C2022 1.350 . S
C2019 C2022 1.463 . S
C2019 C2024 1.350 . S
C2019 N2027 1.427 . S
C2020 H2011 0.930 . S
C2020 C2018 1.378 . S
C2020 C2021 1.367 . S
C2021 C2020 1.367 . S
C2021 C2023 1.433 . S
C2022 C2018 1.350 . S
C2022 C2019 1.463 . S
C2022 N2026 1.427 . S
C2023 H2013 0.929 . S
C2023 C2021 1.433 . S
C2023 N2026 1.384 . S
C2024 H2015 0.929 . S
C2024 C2016 1.378 . S
C2024 C2019 1.350 . S
C2025 H2012 0.929 . S
C2025 C2017 1.433 . S
C2025 N2027 1.384 . S
N2026 C2022 1.427 . S
N2026 C2023 1.384 . S
N2027 C2019 1.427 . S
N2027 C2025 1.384 . S
H2028 C2034 0.930 . S
H2029 C2038 0.930 . S
H2030 C2043 0.929 . S
H2031 C2041 0.929 . S
H2032 C2036 0.929 . S
H2033 C2042 0.929 . S
C2034 H2028 0.930 . S
C2034 C2035 1.367 . S
C2034 C2042 1.378 . S
C2035 C2034 1.367 . S
C2035 C2043 1.433 . S
C2036 H2032 0.929 . S
C2036 C2038 1.378 . S
C2036 C2040 1.350 . S
C2037 C2040 1.463 . S
C2037 C2042 1.350 . S
C2037 N2045 1.427 . S
C2038 H2029 0.930 . S
C2038 C2036 1.378 . S
C2038 C2039 1.367 . S
C2039 C2038 1.367 . S
C2039 C2041 1.433 . S
C2040 C2036 1.350 . S
C2040 C2037 1.463 . S
C2040 N2044 1.427 . S
C2041 H2031 0.929 . S
C2041 C2039 1.433 . S
C2041 N2044 1.384 . S
C2042 H2033 0.929 . S
C2042 C2034 1.378 . S
C2042 C2037 1.350 . S
C2043 H2030 0.929 . S
C2043 C2035 1.433 . S
C2043 N2045 1.384 . S
N2044 C2040 1.427 . S
N2044 C2041 1.384 . S
N2045 C2037 1.427 . S
N2045 C2043 1.384 . S
H2046 C2052 0.930 . S
H2047 C2056 0.930 . S
H2048 C2061 0.929 . S
H2049 C2059 0.929 . S
H2050 C2054 0.929 . S
H2051 C2060 0.929 . S
C2052 H2046 0.930 . S
C2052 C2053 1.367 . S
C2052 C2060 1.378 . S
C2053 C2052 1.367 . S
C2053 C2061 1.433 . S
C2054 H2050 0.929 . S
C2054 C2056 1.378 . S
C2054 C2058 1.350 . S
C2055 C2058 1.463 . S
C2055 C2060 1.350 . S
C2055 N2063 1.427 . S
C2056 H2047 0.930 . S
C2056 C2054 1.378 . S
C2056 C2057 1.367 . S
C2057 C2056 1.367 . S
C2057 C2059 1.433 . S
C2058 C2054 1.350 . S
C2058 C2055 1.463 . S
C2058 N2062 1.427 . S
C2059 H2049 0.929 . S
C2059 C2057 1.433 . S
C2059 N2062 1.384 . S
C2060 H2051 0.929 . S
C2060 C2052 1.378 . S
C2060 C2055 1.350 . S
C2061 H2048 0.929 . S
C2061 C2053 1.433 . S
C2061 N2063 1.384 . S
N2062 C2058 1.427 . S
N2062 C2059 1.384 . S
N2063 C2055 1.427 . S
N2063 C2061 1.384 . S
H2064 C2070 0.930 . S
H2065 C2074 0.930 . S
H2066 C2079 0.929 1_565 S
H2067 C2077 0.929 . S
H2068 C2072 0.929 . S
H2069 C2078 0.929 . S
C2070 H2064 0.930 . S
C2070 C2071 1.367 1_545 S
C2070 C2078 1.378 . S
C2071 C2070 1.367 1_565 S
C2071 C2079 1.433 1_565 S
C2072 H2068 0.929 . S
C2072 C2074 1.378 . S
C2072 C2076 1.350 . S
C2073 C2076 1.463 . S
C2073 C2078 1.350 . S
C2073 N2081 1.427 . S
C2074 H2065 0.930 . S
C2074 C2072 1.378 . S
C2074 C2075 1.367 . S
C2075 C2074 1.367 . S
C2075 C2077 1.433 . S
C2076 C2072 1.350 . S
C2076 C2073 1.463 . S
C2076 N2080 1.427 . S
C2077 H2067 0.929 . S
C2077 C2075 1.433 . S
C2077 N2080 1.384 . S
C2078 H2069 0.929 . S
C2078 C2070 1.378 . S
C2078 C2073 1.350 . S
C2079 H2066 0.929 1_545 S
C2079 C2071 1.433 1_545 S
C2079 N2081 1.384 . S
N2080 C2076 1.427 . S
N2080 C2077 1.384 . S
N2081 C2073 1.427 . S
N2081 C2079 1.384 . S
H2082 C2088 0.930 . S
H2083 C2092 0.930 . S
H2084 C2097 0.929 . S
H2085 C2095 0.929 1_545 S
H2086 C2090 0.929 . S
H2087 C2096 0.929 . S
C2088 H2082 0.930 . S
C2088 C2089 1.367 . S
C2088 C2096 1.378 . S
C2089 C2088 1.367 . S
C2089 C2097 1.433 . S
C2090 H2086 0.929 . S
C2090 C2092 1.378 . S
C2090 C2094 1.350 . S
C2091 C2094 1.463 . S
C2091 C2096 1.350 . S
C2091 N2099 1.427 . S
C2092 H2083 0.930 . S
C2092 C2090 1.378 . S
C2092 C2093 1.367 1_565 S
C2093 C2092 1.367 1_545 S
C2093 C2095 1.433 1_545 S
C2094 C2090 1.350 . S
C2094 C2091 1.463 . S
C2094 N2098 1.427 . S
C2095 H2085 0.929 1_565 S
C2095 C2093 1.433 1_565 S
C2095 N2098 1.384 . S
C2096 H2087 0.929 . S
C2096 C2088 1.378 . S
C2096 C2091 1.350 . S
C2097 H2084 0.929 . S
C2097 C2089 1.433 . S
C2097 N2099 1.384 . S
N2098 C2094 1.427 . S
N2098 C2095 1.384 . S
N2099 C2091 1.427 . S
N2099 C2097 1.384 . S
H2100 C2106 0.930 . S
H2101 C2110 0.930 . S
H2102 C2115 0.929 1_545 S
H2103 C2113 0.929 . S
H2104 C2108 0.929 . S
H2105 C2114 0.929 . S
C2106 H2100 0.930 . S
C2106 C2107 1.367 1_565 S
C2106 C2114 1.378 . S
C2107 C2106 1.367 1_545 S
C2107 C2115 1.433 1_545 S
C2108 H2104 0.929 . S
C2108 C2110 1.378 . S
C2108 C2112 1.350 . S
C2109 C2112 1.463 . S
C2109 C2114 1.350 . S
C2109 N2117 1.427 . S
C2110 H2101 0.930 . S
C2110 C2108 1.378 . S
C2110 C2111 1.367 . S
C2111 C2110 1.367 . S
C2111 C2113 1.433 . S
C2112 C2108 1.350 . S
C2112 C2109 1.463 . S
C2112 N2116 1.427 . S
C2113 H2103 0.929 . S
C2113 C2111 1.433 . S
C2113 N2116 1.384 . S
C2114 H2105 0.929 . S
C2114 C2106 1.378 . S
C2114 C2109 1.350 . S
C2115 H2102 0.929 1_565 S
C2115 C2107 1.433 1_565 S
C2115 N2117 1.384 . S
N2116 C2112 1.427 . S
N2116 C2113 1.384 . S
N2117 C2109 1.427 . S
N2117 C2115 1.384 . S
H2118 C2124 0.930 1_565 S
H2119 C2128 0.930 . S
H2120 C2133 0.929 . S
H2121 C2131 0.929 . S
H2122 C2126 0.929 . S
H2123 C2132 0.929 . S
C2124 H2118 0.930 1_545 S
C2124 C2125 1.367 1_545 S
C2124 C2132 1.378 . S
C2125 C2124 1.367 1_565 S
C2125 C2133 1.433 1_565 S
C2126 H2122 0.929 . S
C2126 C2128 1.378 . S
C2126 C2130 1.350 . S
C2127 C2130 1.463 . S
C2127 C2132 1.350 . S
C2127 N2135 1.427 . S
C2128 H2119 0.930 . S
C2128 C2126 1.378 . S
C2128 C2129 1.367 . S
C2129 C2128 1.367 . S
C2129 C2131 1.433 . S
C2130 C2126 1.350 . S
C2130 C2127 1.463 . S
C2130 N2134 1.427 . S
C2131 H2121 0.929 . S
C2131 C2129 1.433 . S
C2131 N2134 1.384 . S
C2132 H2123 0.929 . S
C2132 C2124 1.378 . S
C2132 C2127 1.350 . S
C2133 H2120 0.929 . S
C2133 C2125 1.433 1_545 S
C2133 N2135 1.384 . S
N2134 C2130 1.427 . S
N2134 C2131 1.384 . S
N2135 C2127 1.427 . S
N2135 C2133 1.384 . S
H2136 C2142 0.930 . S
H2137 C2146 0.930 . S
H2138 C2151 0.929 . S
H2139 C2149 0.929 1_545 S
H2140 C2144 0.929 . S
H2141 C2150 0.929 . S
C2142 H2136 0.930 . S
C2142 C2143 1.367 . S
C2142 C2150 1.378 . S
C2143 C2142 1.367 . S
C2143 C2151 1.433 . S
C2144 H2140 0.929 . S
C2144 C2146 1.378 . S
C2144 C2148 1.350 . S
C2145 C2148 1.463 . S
C2145 C2150 1.350 . S
C2145 N2153 1.427 . S
C2146 H2137 0.930 . S
C2146 C2144 1.378 . S
C2146 C2147 1.367 1_565 S
C2147 C2146 1.367 1_545 S
C2147 C2149 1.433 1_545 S
C2148 C2144 1.350 . S
C2148 C2145 1.463 . S
C2148 N2152 1.427 . S
C2149 H2139 0.929 1_565 S
C2149 C2147 1.433 1_565 S
C2149 N2152 1.384 . S
C2150 H2141 0.929 . S
C2150 C2142 1.378 . S
C2150 C2145 1.350 . S
C2151 H2138 0.929 . S
C2151 C2143 1.433 . S
C2151 N2153 1.384 . S
N2152 C2148 1.427 . S
N2152 C2149 1.384 . S
N2153 C2145 1.427 . S
N2153 C2151 1.384 . S
H2154 C2160 0.930 . S
H2155 C2164 0.930 1_565 S
H2156 C2169 0.929 . S
H2157 C2167 0.929 . S
H2158 C2162 0.929 . S
H2159 C2168 0.929 . S
C2160 H2154 0.930 . S
C2160 C2161 1.367 . S
C2160 C2168 1.378 . S
C2161 C2160 1.367 . S
C2161 C2169 1.433 . S
C2162 H2158 0.929 . S
C2162 C2164 1.378 . S
C2162 C2166 1.350 . S
C2163 C2166 1.463 . S
C2163 C2168 1.350 . S
C2163 N2171 1.427 . S
C2164 H2155 0.930 1_545 S
C2164 C2162 1.378 . S
C2164 C2165 1.367 1_545 S
C2165 C2164 1.367 1_565 S
C2165 C2167 1.433 1_565 S
C2166 C2162 1.350 . S
C2166 C2163 1.463 . S
C2166 N2170 1.427 . S
C2167 H2157 0.929 . S
C2167 C2165 1.433 1_545 S
C2167 N2170 1.384 . S
C2168 H2159 0.929 . S
C2168 C2160 1.378 . S
C2168 C2163 1.350 . S
C2169 H2156 0.929 . S
C2169 C2161 1.433 . S
C2169 N2171 1.384 . S
N2170 C2166 1.427 . S
N2170 C2167 1.384 . S
N2171 C2163 1.427 . S
N2171 C2169 1.384 . S
H2172 C2178 0.930 1_565 S
H2173 C2182 0.930 . S
H2174 C2187 0.929 . S
H2175 C2185 0.929 . S
H2176 C2180 0.929 . S
H2177 C2186 0.929 . S
C2178 H2172 0.930 1_545 S
C2178 C2179 1.367 1_545 S
C2178 C2186 1.378 . S
C2179 C2178 1.367 1_565 S
C2179 C2187 1.433 1_565 S
C2180 H2176 0.929 . S
C2180 C2182 1.378 . S
C2180 C2184 1.350 . S
C2181 C2184 1.463 . S
C2181 C2186 1.350 . S
C2181 N2189 1.427 . S
C2182 H2173 0.930 . S
C2182 C2180 1.378 . S
C2182 C2183 1.367 . S
C2183 C2182 1.367 . S
C2183 C2185 1.433 . S
C2184 C2180 1.350 . S
C2184 C2181 1.463 . S
C2184 N2188 1.427 . S
C2185 H2175 0.929 . S
C2185 C2183 1.433 . S
C2185 N2188 1.384 . S
C2186 H2177 0.929 . S
C2186 C2178 1.378 . S
C2186 C2181 1.350 . S
C2187 H2174 0.929 . S
C2187 C2179 1.433 1_545 S
C2187 N2189 1.384 . S
N2188 C2184 1.427 . S
N2188 C2185 1.384 . S
N2189 C2181 1.427 . S
N2189 C2187 1.384 . S
H2190 C2196 0.930 . S
H2191 C2200 0.930 . S
H2192 C2205 0.929 . S
H2193 C2203 0.929 . S
H2194 C2198 0.929 . S
H2195 C2204 0.929 . S
C2196 H2190 0.930 . S
C2196 C2197 1.367 . S
C2196 C2204 1.378 . S
C2197 C2196 1.367 . S
C2197 C2205 1.433 . S
C2198 H2194 0.929 . S
C2198 C2200 1.378 . S
C2198 C2202 1.350 . S
C2199 C2202 1.463 . S
C2199 C2204 1.350 . S
C2199 N2207 1.427 . S
C2200 H2191 0.930 . S
C2200 C2198 1.378 . S
C2200 C2201 1.367 1_565 S
C2201 C2200 1.367 1_545 S
C2201 C2203 1.433 1_545 S
C2202 C2198 1.350 . S
C2202 C2199 1.463 . S
C2202 N2206 1.427 . S
C2203 H2193 0.929 . S
C2203 C2201 1.433 1_565 S
C2203 N2206 1.384 . S
C2204 H2195 0.929 . S
C2204 C2196 1.378 . S
C2204 C2199 1.350 . S
C2205 H2192 0.929 . S
C2205 C2197 1.433 . S
C2205 N2207 1.384 . S
N2206 C2202 1.427 . S
N2206 C2203 1.384 . S
N2207 C2199 1.427 . S
N2207 C2205 1.384 . S
C1351 C67 1.457 . S
C1355 C823 1.464 . S
C1369 C151 1.452 . S
C1373 C739 1.449 . S
C1387 C991 1.456 . S
C1391 C235 1.463 . S
C1405 C319 1.455 . S
C1409 C907 1.449 . S
C1423 C1148 1.455 . S
C1427 C392 1.449 . S
C1441 C1064 1.463 . S
C1445 C476 1.455 . S
C1459 C1316 1.451 . S
C1463 C560 1.459 . S
C1477 C644 1.460 . S
C1481 C1232 1.451 . S
C1495 C231 1.626 . S
C1499 C63 1.635 . S
C1513 C315 1.632 . S
C1517 C147 1.627 . S
C1531 C578 1.628 . S
C1535 C410 1.631 . S
C1549 C494 1.628 . S
C1553 C662 1.630 . S
C1567 C903 1.628 . S
C1571 C735 1.634 . S
C1585 C987 1.627 . S
C1589 C819 1.635 . S
C1603 C1082 1.631 . S
C1607 C1250 1.631 . S
C1621 C1166 1.625 . S
C1625 C1334 1.635 . S
C1639 C483 1.724 . S
C1643 C74 1.711 . S
C1657 C399 1.712 . S
C1661 C158 1.723 . S
C1675 C242 1.711 . S
C1679 C651 1.724 . S
C1693 C567 1.719 . S
C1697 C326 1.716 . S
C1711 C746 1.710 . S
C1715 C1155 1.725 . S
C1729 C1071 1.715 . S
C1733 C830 1.720 . S
C1747 C914 1.725 . S
C1751 C1323 1.710 . S
C1765 C1239 1.721 . S
C1769 C998 1.714 . S
C1783 C140 1.442 . S
C1787 C56 1.445 . S
C1801 C308 1.449 . S
C1805 C224 1.457 . S
C1819 C487 1.453 . S
C1823 C403 1.444 . S
C1837 C571 1.450 . S
C1841 C655 1.457 . S
C1855 C812 1.445 . S
C1859 C728 1.442 . S
C1873 C980 1.448 . S
C1877 C896 1.442 . S
C1891 C1075 1.442 . S
C1895 C1159 1.447 . S
C1909 C1243 1.457 . S
C1913 C1327 1.455 . S
C1927 C58 1.395 . S
C1931 C70 1.395 . S
C1945 C142 1.395 . S
C1949 C154 1.395 . S
C1963 C226 1.373 . S
C1967 C238 1.373 . S
C1981 C322 1.368 . S
C1985 C310 1.368 . S
C1999 C406 1.387 . S
C2003 C394 1.387 . S
C2017 C478 1.395 . S
C2021 C490 1.395 . S
C2035 C574 1.381 . S
C2039 C562 1.381 . S
C2053 C658 1.372 . S
C2057 C646 1.372 . S
C2071 C742 1.395 . S
C2075 C730 1.395 . S
C2089 C814 1.395 . S
C2093 C826 1.395 . S
C2107 C910 1.388 . S
C2111 C898 1.388 . S
C2125 C994 1.375 . S
C2129 C982 1.375 . S
C2143 C1078 1.389 . S
C2147 C1066 1.389 . S
C2161 C1162 1.376 . S
C2165 C1150 1.376 . S
C2179 C1234 1.368 . S
C2183 C1246 1.368 . S
C2197 C1330 1.379 . S
C2201 C1318 1.379 . S
