# Generated by pormake.
# Topology uoq, (4)-cn, num edge types: 1
# Building blocks:
#     Node 0, Type 0, BuildingBlock: QUQFOY_clean_sbu_3, # of connection points: 4
#     Node 1, Type 0, BuildingBlock: QUQFOY_clean_sbu_3, # of connection points: 4
#     Node 2, Type 0, BuildingBlock: QUQFOY_clean_sbu_3, # of connection points: 4
#     Node 3, Type 0, BuildingBlock: QUQFOY_clean_sbu_3, # of connection points: 4
#     Node 4, Type 0, BuildingBlock: QUQFOY_clean_sbu_3, # of connection points: 4
#     Node 5, Type 0, BuildingBlock: QUQFOY_clean_sbu_3, # of connection points: 4
#     Node 6, Type 0, BuildingBlock: QUQFOY_clean_sbu_3, # of connection points: 4
#     Node 7, Type 0, BuildingBlock: QUQFOY_clean_sbu_3, # of connection points: 4
#     Node 8, Type 0, BuildingBlock: QUQFOY_clean_sbu_3, # of connection points: 4
#     Node 9, Type 0, BuildingBlock: QUQFOY_clean_sbu_3, # of connection points: 4
#     Node 10, Type 0, BuildingBlock: QUQFOY_clean_sbu_3, # of connection points: 4
#     Node 11, Type 0, BuildingBlock: QUQFOY_clean_sbu_3, # of connection points: 4
#     Edge 12, Type (0, 0), BuildingBlock: CIFDUS_clean_linker_0, # of connection points: 2
#     Edge 13, Type (0, 0), BuildingBlock: CIFDUS_clean_linker_0, # of connection points: 2
#     Edge 14, Type (0, 0), BuildingBlock: CIFDUS_clean_linker_0, # of connection points: 2
#     Edge 15, Type (0, 0), BuildingBlock: CIFDUS_clean_linker_0, # of connection points: 2
#     Edge 16, Type (0, 0), BuildingBlock: CIFDUS_clean_linker_0, # of connection points: 2
#     Edge 17, Type (0, 0), BuildingBlock: CIFDUS_clean_linker_0, # of connection points: 2
#     Edge 18, Type (0, 0), BuildingBlock: CIFDUS_clean_linker_0, # of connection points: 2
#     Edge 19, Type (0, 0), BuildingBlock: CIFDUS_clean_linker_0, # of connection points: 2
#     Edge 20, Type (0, 0), BuildingBlock: CIFDUS_clean_linker_0, # of connection points: 2
#     Edge 21, Type (0, 0), BuildingBlock: CIFDUS_clean_linker_0, # of connection points: 2
#     Edge 22, Type (0, 0), BuildingBlock: CIFDUS_clean_linker_0, # of connection points: 2
#     Edge 23, Type (0, 0), BuildingBlock: CIFDUS_clean_linker_0, # of connection points: 2
#     Edge 24, Type (0, 0), BuildingBlock: CIFDUS_clean_linker_0, # of connection points: 2
#     Edge 25, Type (0, 0), BuildingBlock: CIFDUS_clean_linker_0, # of connection points: 2
#     Edge 26, Type (0, 0), BuildingBlock: CIFDUS_clean_linker_0, # of connection points: 2
#     Edge 27, Type (0, 0), BuildingBlock: CIFDUS_clean_linker_0, # of connection points: 2
#     Edge 28, Type (0, 0), BuildingBlock: CIFDUS_clean_linker_0, # of connection points: 2
#     Edge 29, Type (0, 0), BuildingBlock: CIFDUS_clean_linker_0, # of connection points: 2
#     Edge 30, Type (0, 0), BuildingBlock: CIFDUS_clean_linker_0, # of connection points: 2
#     Edge 31, Type (0, 0), BuildingBlock: CIFDUS_clean_linker_0, # of connection points: 2
#     Edge 32, Type (0, 0), BuildingBlock: CIFDUS_clean_linker_0, # of connection points: 2
#     Edge 33, Type (0, 0), BuildingBlock: CIFDUS_clean_linker_0, # of connection points: 2
#     Edge 34, Type (0, 0), BuildingBlock: CIFDUS_clean_linker_0, # of connection points: 2
#     Edge 35, Type (0, 0), BuildingBlock: CIFDUS_clean_linker_0, # of connection points: 2
# Relax obj value: 0.157
# Max RMSD: 0.152
# Mean RMSD: 0.152
data_MOF--net-uoq--node1-QUQFOY_clean_sbu_3--edge1-CIFDUS_clean_linker_0
_symmetry_space_group_name_H-M    P1
_symmetry_Int_Tables_number       1
_symmetry_cell_setting            triclinic
loop_
_symmetry_equiv_pos_as_xyz
'x, y, z'
_cell_length_a     53.475475
_cell_length_b     53.435778
_cell_length_c     20.648471
_cell_angle_alpha  89.713239
_cell_angle_beta   90.169421
_cell_angle_gamma 119.86172
loop_
_atom_site_label
_atom_site_type_symbol
_atom_site_fract_x
_atom_site_fract_y
_atom_site_fract_z
_atom_type_partial_charge
C0 C 0.28198 0.38444 0.37715 0.0
O1 O 0.28904 0.39576 0.43294 0.0
Cd2 Cd 0.29422 0.4405 0.46457 0.0
O3 O 0.27559 0.39657 0.33158 0.0
Cd4 Cd 0.26953 0.43964 0.31458 0.0
C5 C 0.34037 0.48368 0.34129 0.0
O6 O 0.25253 0.43791 0.42106 0.0
O7 O 0.26127 0.4763 0.36868 0.0
O8 O 0.22675 0.40772 0.25061 0.0
C9 C 0.25307 0.46179 0.42061 0.0
O10 O 0.33474 0.47578 0.40034 0.0
C11 C 0.23034 0.42726 0.21034 0.0
O12 O 0.32087 0.47289 0.29782 0.0
O13 O 0.25279 0.45181 0.21666 0.0
C14 C 0.91329 0.31731 0.63565 0.0
O15 O 0.90771 0.32168 0.69282 0.0
Cd16 Cd 0.86692 0.32094 0.73553 0.0
O17 O 0.89516 0.31122 0.58952 0.0
Cd18 Cd 0.84396 0.30157 0.58569 0.0
C19 C 0.86286 0.36939 0.63024 0.0
O20 O 0.83264 0.27817 0.68655 0.0
O21 O 0.79975 0.28689 0.65337 0.0
O22 O 0.8285 0.2603 0.51403 0.0
C23 C 0.80822 0.27553 0.69568 0.0
O24 O 0.86614 0.36229 0.68731 0.0
C25 C 0.81413 0.26744 0.47678 0.0
O26 O 0.8565 0.35193 0.58319 0.0
O27 O 0.81558 0.29149 0.48762 0.0
C28 C 0.60936 0.90779 0.98544 0.0
O29 O 0.60184 0.89976 0.04356 0.0
Cd30 Cd 0.5608 0.85771 0.08095 0.0
O31 O 0.59514 0.89166 0.93802 0.0
Cd32 Cd 0.55351 0.84195 0.9221 0.0
C33 C 0.50903 0.86266 0.98789 0.0
O34 O 0.56047 0.82147 0.0176 0.0
O35 O 0.51989 0.79452 0.97035 0.0
O36 O 0.58294 0.83418 0.84417 0.0
C37 C 0.53652 0.79825 0.01751 0.0
O38 O 0.52072 0.86279 0.04187 0.0
C39 C 0.56233 0.82032 0.80484 0.0
O40 O 0.5177 0.85735 0.93486 0.0
O41 O 0.53827 0.81856 0.81771 0.0
C42 C 0.65669 0.57648 0.28248 0.0
O43 O 0.65376 0.56716 0.34026 0.0
Cd44 Cd 0.65281 0.52549 0.37979 0.0
O45 O 0.66026 0.56311 0.2354 0.0
Cd46 Cd 0.667 0.52005 0.2234 0.0
C47 C 0.59958 0.4749 0.27912 0.0
O48 O 0.69195 0.52974 0.32142 0.0
O49 O 0.68339 0.48922 0.28174 0.0
O50 O 0.70586 0.54835 0.14769 0.0
C51 C 0.69435 0.50757 0.32673 0.0
O52 O 0.60905 0.48568 0.33483 0.0
C53 C 0.69891 0.5278 0.10814 0.0
O54 O 0.61558 0.48436 0.229 0.0
O55 O 0.67594 0.50422 0.12021 0.0
C56 C 0.05896 0.6813 0.59803 0.0
O57 O 0.06561 0.68161 0.65715 0.0
Cd58 Cd 0.10881 0.68736 0.699 0.0
O59 O 0.0767 0.68459 0.55298 0.0
Cd60 Cd 0.12822 0.69578 0.5519 0.0
C61 C 0.11243 0.63246 0.61902 0.0
O62 O 0.14228 0.72837 0.64046 0.0
O63 O 0.17119 0.71234 0.62235 0.0
O64 O 0.13835 0.7306 0.46483 0.0
C65 C 0.16608 0.7299 0.65242 0.0
O66 O 0.1103 0.64374 0.67144 0.0
C67 C 0.15658 0.72579 0.43663 0.0
O68 O 0.11693 0.64587 0.56531 0.0
O69 O 0.15968 0.70531 0.45882 0.0
C70 C 0.41021 0.07805 0.95721 0.0
O71 O 0.41467 0.08876 0.01362 0.0
Cd72 Cd 0.44804 0.13662 0.0406 0.0
O73 O 0.42374 0.09356 0.90815 0.0
Cd74 Cd 0.45991 0.1454 0.88588 0.0
C75 C 0.50847 0.13801 0.97556 0.0
O76 O 0.43822 0.16177 0.95964 0.0
O77 O 0.48144 0.19433 0.93655 0.0
O78 O 0.43096 0.14392 0.79407 0.0
C79 C 0.45774 0.18776 0.96386 0.0
O80 O 0.49412 0.13859 0.0241 0.0
C81 C 0.45205 0.16 0.75767 0.0
O82 O 0.50027 0.13878 0.91788 0.0
O83 O 0.47708 0.16706 0.7786 0.0
C84 C 0.59265 0.67758 0.31847 0.0
O85 O 0.58144 0.6795 0.26576 0.0
Cd86 Cd 0.54105 0.68632 0.25817 0.0
O87 O 0.5826 0.67968 0.37294 0.0
Cd88 Cd 0.54286 0.68749 0.40953 0.0
C89 C 0.49329 0.62568 0.34157 0.0
O90 O 0.55101 0.72384 0.33351 0.0
O91 O 0.50788 0.702 0.372 0.0
O92 O 0.57026 0.72036 0.49666 0.0
C93 C 0.52749 0.7235 0.3419 0.0
O94 O 0.49953 0.63942 0.288 0.0
C95 C 0.54998 0.70865 0.53776 0.0
O96 O 0.50745 0.6376 0.39275 0.0
O97 O 0.5277 0.6854 0.52087 0.0
C98 C 0.89246 0.61061 0.62022 0.0
O99 O 0.87991 0.5992 0.56737 0.0
Cd100 Cd 0.83483 0.55613 0.5608 0.0
O101 O 0.88052 0.59973 0.67448 0.0
Cd102 Cd 0.8344 0.55792 0.71094 0.0
C103 C 0.85352 0.51284 0.64775 0.0
O104 O 0.80277 0.56071 0.63344 0.0
O105 O 0.78823 0.51813 0.67204 0.0
O106 O 0.82653 0.58425 0.79788 0.0
C107 C 0.78238 0.53516 0.64149 0.0
O108 O 0.84534 0.51814 0.5939 0.0
C109 C 0.81747 0.56332 0.83764 0.0
O110 O 0.85414 0.52638 0.69877 0.0
O111 O 0.81921 0.54148 0.82042 0.0
C112 C 0.31596 0.90775 0.98143 0.0
O113 O 0.30993 0.89702 0.92497 0.0
Cd114 Cd 0.2955 0.8492 0.89502 0.0
O115 O 0.31346 0.89217 0.03084 0.0
Cd116 Cd 0.29811 0.84048 0.05163 0.0
C117 C 0.35469 0.84941 0.96183 0.0
O118 O 0.26108 0.82178 0.97452 0.0
O119 O 0.27492 0.79179 0.00172 0.0
O120 O 0.26801 0.83655 0.14273 0.0
C121 C 0.25729 0.79659 0.97051 0.0
O122 O 0.33989 0.84747 0.91167 0.0
C123 C 0.27653 0.82302 0.17901 0.0
O124 O 0.34529 0.84922 0.01863 0.0
O125 O 0.29742 0.82027 0.15839 0.0
C126 C 0.34765 0.28373 0.34493 0.0
O127 O 0.35287 0.28431 0.28486 0.0
Cd128 Cd 0.38964 0.27889 0.23537 0.0
O129 O 0.36223 0.2786 0.38665 0.0
Cd130 Cd 0.40188 0.26693 0.3807 0.0
C131 C 0.44711 0.33238 0.31843 0.0
O132 O 0.38672 0.23768 0.285 0.0
O133 O 0.43165 0.2564 0.30852 0.0
O134 O 0.38182 0.22911 0.464 0.0
C135 C 0.41071 0.23949 0.27302 0.0
O136 O 0.43482 0.32233 0.2642 0.0
C137 C 0.40574 0.23788 0.49297 0.0
O138 O 0.43776 0.31757 0.37026 0.0
O139 O 0.42703 0.26119 0.47259 0.0
C140 C 0.0772 0.39045 0.68968 0.0
O141 O 0.09275 0.40118 0.63973 0.0
Cd142 Cd 0.13889 0.4433 0.64237 0.0
O143 O 0.086 0.40186 0.74531 0.0
Cd144 Cd 0.12959 0.44344 0.79276 0.0
C145 C 0.11892 0.49037 0.70529 0.0
O146 O 0.16403 0.43783 0.73217 0.0
O147 O 0.18005 0.48065 0.76892 0.0
O148 O 0.13041 0.41583 0.88589 0.0
C149 C 0.18544 0.46247 0.74276 0.0
O150 O 0.12893 0.48296 0.65775 0.0
C151 C 0.13541 0.43542 0.92684 0.0
O152 O 0.11484 0.47787 0.76008 0.0
O153 O 0.13478 0.45751 0.90605 0.0
C154 C 0.70088 0.07596 0.00315 0.0
O155 O 0.70744 0.08834 0.94823 0.0
Cd156 Cd 0.71718 0.13625 0.92872 0.0
O157 O 0.6995 0.08913 0.05314 0.0
Cd158 Cd 0.70727 0.13734 0.08089 0.0
C159 C 0.65326 0.12949 0.98416 0.0
O160 O 0.74829 0.16532 0.01344 0.0
O161 O 0.72517 0.18673 0.0432 0.0
O162 O 0.73365 0.1387 0.17811 0.0
C163 C 0.74712 0.18835 0.01607 0.0
O164 O 0.67055 0.13417 0.93733 0.0
C165 C 0.72228 0.14977 0.2132 0.0
O166 O 0.66017 0.12715 0.04212 0.0
O167 O 0.70184 0.15223 0.1884 0.0
H168 H 0.29496 0.354 0.46302 0.0
H169 H 0.27431 0.35661 0.26151 0.0
H170 H 0.28777 0.3203 0.23636 0.0
H171 H 0.31299 0.29467 0.26831 0.0
H172 H 0.3374 0.29528 0.46817 0.0
H173 H 0.3141 0.32299 0.49752 0.0
C174 C 0.29294 0.34634 0.41369 0.0
C175 C 0.28434 0.35855 0.3639 0.0
C176 C 0.30155 0.32619 0.39926 0.0
C177 C 0.28129 0.34791 0.30058 0.0
C178 C 0.28906 0.3272 0.28613 0.0
C179 C 0.31279 0.30037 0.31858 0.0
C180 C 0.32757 0.29357 0.36574 0.0
C181 C 0.30042 0.31723 0.33459 0.0
C182 C 0.32652 0.30056 0.43078 0.0
C183 C 0.31336 0.31657 0.44752 0.0
H184 H 0.94562 0.30819 0.72111 0.0
H185 H 0.94624 0.33701 0.52539 0.0
H186 H -0.00127 0.35784 0.52088 0.0
H187 H 0.04435 0.37648 0.58116 0.0
H188 H 0.04281 0.35205 0.78139 0.0
H189 H -0.00936 0.32062 0.77568 0.0
C190 C 0.9572 0.31849 0.6769 0.0
C191 C 0.94239 0.32179 0.62421 0.0
C192 C -0.01279 0.3316 0.6761 0.0
C193 C 0.95733 0.33445 0.56667 0.0
C194 C -0.01267 0.34661 0.56444 0.0
C195 C 0.03267 0.36369 0.62302 0.0
C196 C 0.04723 0.36692 0.68204 0.0
C197 C 0.00255 0.34668 0.62016 0.0
C198 C 0.03193 0.35023 0.73584 0.0
C199 C 0.00215 0.3323 0.73258 0.0
H200 H 0.64438 0.94563 0.07542 0.0
H201 H 0.62686 0.93717 0.86993 0.0
H202 H 0.65825 0.9892 0.85607 0.0
H203 H 0.68386 0.03732 0.90512 0.0
H204 H 0.69728 0.04538 0.11207 0.0
H205 H 0.67432 -0.00695 0.1225 0.0
C206 C 0.64769 0.95502 0.02732 0.0
C207 C 0.63277 0.93765 0.974 0.0
C208 C 0.66474 0.9849 0.02017 0.0
C209 C 0.63783 0.95012 0.91192 0.0
C210 C 0.65564 0.97988 0.90403 0.0
C211 C 0.68229 0.02766 0.95234 0.0
C212 C 0.69182 0.0451 0.00792 0.0
C213 C 0.66817 -0.00245 0.95824 0.0
C214 C 0.68971 0.03233 0.06874 0.0
C215 C 0.67659 0.00245 0.07472 0.0
H216 H 0.66378 0.61659 0.37005 0.0
H217 H 0.64204 0.59331 0.16953 0.0
H218 H 0.62521 0.62821 0.1599 0.0
H219 H 0.60826 0.65767 0.21445 0.0
H220 H 0.62606 0.67693 0.41798 0.0
H221 H 0.6533 0.65147 0.42026 0.0
C222 C 0.65579 0.61947 0.32386 0.0
C223 C 0.65335 0.60189 0.27104 0.0
C224 C 0.64517 0.63858 0.31956 0.0
C225 C 0.64378 0.60639 0.21106 0.0
C226 C 0.63399 0.62618 0.20573 0.0
C227 C 0.61866 0.6569 0.25901 0.0
C228 C 0.61459 0.66857 0.3164 0.0
C229 C 0.63326 0.64126 0.26058 0.0
C230 C 0.62846 0.66767 0.37348 0.0
C231 C 0.64396 0.65306 0.37485 0.0
H232 H 0.92954 0.62518 0.51941 0.0
H233 H 0.92395 0.64686 0.71808 0.0
H234 H 0.97641 0.67577 0.72371 0.0
H235 H 0.02297 0.68725 0.67899 0.0
H236 H 0.02885 0.66177 0.48411 0.0
H237 H 0.97696 0.64239 0.46958 0.0
C238 C 0.93974 0.63683 0.56345 0.0
C239 C 0.92297 0.6335 0.61871 0.0
C240 C 0.96989 0.65232 0.5672 0.0
C241 C 0.93646 0.64879 0.67526 0.0
C242 C 0.96643 0.66521 0.67856 0.0
C243 C 0.013 0.67779 0.63293 0.0
C244 C 0.02949 0.6752 0.58323 0.0
C245 C 0.98325 0.66588 0.62592 0.0
C246 C 0.0165 0.66368 0.52331 0.0
C247 C -0.01316 0.65248 0.51517 0.0
H248 H 0.33391 0.94721 0.88459 0.0
H249 H 0.32757 0.93913 0.09304 0.0
H250 H 0.35448 -0.00835 0.10308 0.0
H251 H 0.38296 0.03912 0.0531 0.0
H252 H 0.3916 0.04699 0.84488 0.0
H253 H 0.36035 -0.00516 0.83439 0.0
C254 C 0.33805 0.95685 0.93233 0.0
C255 C 0.3289 0.93927 0.98808 0.0
C256 C 0.35413 0.98689 0.93774 0.0
C257 C 0.3345 0.95218 0.04942 0.0
C258 C 0.34994 0.98217 0.05517 0.0
C259 C 0.37788 0.02954 0.00526 0.0
C260 C 0.38981 0.0469 0.94981 0.0
C261 C 0.3604 -0.00036 -0.00031 0.0
C262 C 0.38289 0.03409 0.88832 0.0
C263 C 0.36502 0.00431 0.88231 0.0
H264 H 0.14092 0.39211 0.98234 0.0
H265 H 0.15729 0.47872 0.01556 0.0
H266 H 0.18785 0.48344 0.10777 0.0
H267 H 0.21436 0.46516 0.17067 0.0
H268 H 0.19707 0.37817 0.14138 0.0
H269 H 0.16257 0.37142 0.05521 0.0
C270 C 0.15064 0.41177 0.01067 0.0
C271 C 0.14717 0.43518 0.99151 0.0
C272 C 0.16854 0.41451 0.06322 0.0
C273 C 0.15969 0.46042 0.02904 0.0
C274 C 0.17742 0.46326 0.08144 0.0
C275 C 0.20296 0.44473 0.14538 0.0
C276 C 0.2086 0.42241 0.16081 0.0
C277 C 0.18282 0.44086 0.09734 0.0
C278 C 0.19321 0.39573 0.1294 0.0
C279 C 0.1735 0.39188 0.0804 0.0
H280 H 0.80758 0.21556 0.44095 0.0
H281 H 0.77624 0.27461 0.40185 0.0
H282 H 0.74175 0.24091 0.32394 0.0
H283 H 0.72211 0.19597 0.26333 0.0
H284 H 0.75565 0.13835 0.29503 0.0
H285 H 0.78708 0.16977 0.38109 0.0
C286 C 0.79327 0.22107 0.41519 0.0
C287 C 0.79464 0.24765 0.42678 0.0
C288 C 0.77357 0.20165 0.37005 0.0
C289 C 0.77585 0.25444 0.39332 0.0
C290 C 0.75596 0.23509 0.34911 0.0
C291 C 0.73578 0.18991 0.29017 0.0
C292 C 0.7364 0.16479 0.27353 0.0
C293 C 0.75472 0.20873 0.33696 0.0
C294 C 0.75468 0.15752 0.30757 0.0
C295 C 0.77283 0.1756 0.35621 0.0
H296 H 0.522 0.76769 0.76593 0.0
H297 H 0.60936 0.83477 0.72906 0.0
H298 H 0.61434 0.80483 0.64605 0.0
H299 H 0.59305 0.76001 0.58238 0.0
H300 H 0.5064 0.6921 0.62489 0.0
H301 H 0.50225 0.72163 0.70901 0.0
C302 C 0.542 0.77583 0.73909 0.0
C303 C 0.56506 0.80354 0.75201 0.0
C304 C 0.54499 0.75816 0.69361 0.0
C305 C 0.59122 0.8136 0.71883 0.0
C306 C 0.5941 0.79645 0.67187 0.0
C307 C 0.57345 0.75148 0.61083 0.0
C308 C 0.55001 0.72397 0.59707 0.0
C309 C 0.57109 0.76868 0.65887 0.0
C310 C 0.52479 0.71318 0.63449 0.0
C311 C 0.52227 0.73016 0.6822 0.0
H312 H 0.74591 0.57647 0.06341 0.0
H313 H 0.69543 0.48445 0.03347 0.0
H314 H 0.72967 0.48729 0.95209 0.0
H315 H 0.77352 0.51565 0.88921 0.0
H316 H 0.82234 0.60808 0.91117 0.0
H317 H 0.7895 0.60534 -0.00273 0.0
C318 C 0.74233 0.55709 0.03872 0.0
C319 C 0.71816 0.53029 0.05441 0.0
C320 C 0.76203 0.5589 0.99153 0.0
C321 C 0.71375 0.50536 0.02198 0.0
C322 C 0.73343 0.50692 0.9758 0.0
C323 C 0.77729 0.53516 0.91367 0.0
C324 C 0.80056 0.56197 0.895 0.0
C325 C 0.75769 0.53351 0.96056 0.0
C326 C 0.80474 0.58717 0.92557 0.0
C327 C 0.78586 0.58561 0.97428 0.0
H328 H 0.20866 0.73374 0.40063 0.0
H329 H 0.1477 0.76244 0.36033 0.0
H330 H 0.18096 0.79734 0.2814 0.0
H331 H 0.22672 0.81873 0.22228 0.0
H332 H 0.28794 0.79037 0.26333 0.0
H333 H 0.25549 0.75685 0.34519 0.0
C334 C 0.20254 0.74743 0.37403 0.0
C335 C 0.17559 0.74523 0.38539 0.0
C336 C 0.222 0.76785 0.32992 0.0
C337 C 0.16821 0.76355 0.35182 0.0
C338 C 0.18728 0.78362 0.30705 0.0
C339 C 0.23322 0.80558 0.24985 0.0
C340 C 0.25971 0.80703 0.23661 0.0
C341 C 0.21423 0.78595 0.29579 0.0
C342 C 0.26771 0.78975 0.27267 0.0
C343 C 0.24905 0.77038 0.31906 0.0
H344 H 0.4014 0.15248 0.71015 0.0
H345 H 0.4932 0.19877 0.67537 0.0
H346 H 0.48686 0.22747 0.5913 0.0
H347 H 0.45564 0.24129 0.53232 0.0
H348 H 0.36383 0.19471 0.56606 0.0
H349 H 0.36986 0.1645 0.64696 0.0
C350 C 0.42 0.16852 0.68351 0.0
C351 C 0.44776 0.17351 0.69916 0.0
C352 C 0.41627 0.18529 0.6361 0.0
C353 C 0.4716 0.19442 0.66419 0.0
C354 C 0.46802 0.21102 0.6165 0.0
C355 C 0.43696 0.22466 0.55775 0.0
C356 C 0.40936 0.2205 0.54405 0.0
C357 C 0.44054 0.20706 0.60312 0.0
C358 C 0.38531 0.19848 0.57627 0.0
C359 C 0.38874 0.18114 0.62224 0.0
H360 H 0.2029 0.50053 0.64509 0.0
H361 H 0.22246 0.44229 0.7491 0.0
H362 H 0.2508 0.44127 0.65763 0.0
H363 H 0.25952 0.44768 0.54172 0.0
H364 H 0.23612 0.50207 0.43293 0.0
H365 H 0.2197 0.51412 0.53267 0.0
C366 C 0.21464 0.48884 0.64854 0.0
C367 C 0.21097 0.47159 0.70305 0.0
C368 C 0.22918 0.48689 0.59424 0.0
C369 C 0.22545 0.45588 0.70734 0.0
C370 C 0.24121 0.45497 0.65482 0.0
C371 C 0.25128 0.46257 0.54001 0.0
C372 C 0.24813 0.47335 0.48037 0.0
C373 C 0.24152 0.46884 0.59682 0.0
C374 C 0.23822 0.4932 0.47859 0.0
C375 C 0.22886 0.50005 0.53545 0.0
H376 H 0.83064 0.26435 0.80033 0.0
H377 H 0.75345 0.26236 0.73091 0.0
H378 H 0.72874 0.23929 0.83243 0.0
H379 H 0.72784 0.21426 0.9339 0.0
H380 H 0.80421 0.21285 -0.00423 0.0
H381 H 0.83108 0.24356 0.90415 0.0
C382 C 0.80844 0.25908 0.80735 0.0
C383 C 0.79361 0.26445 0.75797 0.0
C384 C 0.79447 0.24546 0.86447 0.0
C385 C 0.76511 0.25807 0.76823 0.0
C386 C 0.75106 0.24493 0.82608 0.0
C387 C 0.75055 0.22146 0.92809 0.0
C388 C 0.7643 0.21165 0.97089 0.0
C389 C 0.76533 0.23781 0.87367 0.0
C390 C 0.79351 0.22043 0.96293 0.0
C391 C 0.80871 0.23771 0.91059 0.0
H392 H 0.55381 0.8158 0.13915 0.0
H393 H 0.49503 0.74145 0.02747 0.0
H394 H 0.48091 0.71161 0.12597 0.0
H395 H 0.49175 0.70602 0.23985 0.0
H396 H 0.55183 0.78094 0.34776 0.0
H397 H 0.55786 0.81196 0.25505 0.0
C398 C 0.53755 0.79321 0.1363 0.0
C399 C 0.52592 0.78058 0.07631 0.0
C400 C 0.52944 0.77658 0.1926 0.0
C401 C 0.50456 0.75139 0.07341 0.0
C402 C 0.49643 0.73444 0.12956 0.0
C403 C 0.50499 0.72929 0.24363 0.0
C404 C 0.52124 0.74152 0.29981 0.0
C405 C 0.50945 0.74668 0.18906 0.0
C406 C 0.53896 0.77145 0.3047 0.0
C407 C 0.54275 0.78902 0.25153 0.0
H408 H 0.69513 0.53063 0.44152 0.0
H409 H 0.71724 0.47221 0.34825 0.0
H410 H 0.7424 0.47083 0.44689 0.0
H411 H 0.76474 0.49329 0.55183 0.0
H412 H 0.74524 0.555 0.63742 0.0
H413 H 0.71144 0.54749 0.5499 0.0
C414 C 0.70501 0.51717 0.4429 0.0
C415 C 0.70499 0.50203 0.38761 0.0
C416 C 0.71973 0.5171 0.49845 0.0
C417 C 0.71735 0.48426 0.39038 0.0
C418 C 0.73175 0.48357 0.44653 0.0
C419 C 0.75221 0.50419 0.55208 0.0
C420 C 0.75705 0.52454 0.60029 0.0
C421 C 0.73402 0.50085 0.49986 0.0
C422 C 0.74146 0.53917 0.60042 0.0
C423 C 0.72242 0.53505 0.55034 0.0
H424 H 0.20245 0.71926 0.72468 0.0
H425 H 0.16493 0.77435 0.71 0.0
H426 H 0.18774 0.79771 0.81133 0.0
H427 H 0.21829 0.80284 0.90245 0.0
H428 H 0.25742 0.7493 0.91886 0.0
H429 H 0.23309 0.72409 0.81908 0.0
C430 C 0.1996 0.73659 0.74349 0.0
C431 C 0.18228 0.7453 0.71008 0.0
C432 C 0.2125 0.74971 0.80229 0.0
C433 C 0.17829 0.76743 0.73507 0.0
C434 C 0.19115 0.78066 0.79302 0.0
C435 C 0.2214 0.78551 0.88451 0.0
C436 C 0.23971 0.77803 0.91734 0.0
C437 C 0.20816 0.77189 0.82695 0.0
C438 C 0.2433 0.75535 0.89418 0.0
C439 C 0.22966 0.74118 0.83696 0.0
H440 H 0.40853 0.18186 0.00866 0.0
H441 H 0.50078 0.2329 0.03161 0.0
H442 H 0.49424 0.25422 0.13063 0.0
H443 H 0.46192 0.25432 0.21553 0.0
H444 H 0.36969 0.20123 0.1923 0.0
H445 H 0.37663 0.18406 0.08862 0.0
C446 C 0.42723 0.19797 0.03489 0.0
C447 C 0.45503 0.20565 0.01376 0.0
C448 C 0.42328 0.20914 0.09223 0.0
C449 C 0.47915 0.22678 0.04723 0.0
C450 C 0.4754 0.23864 0.10409 0.0
C451 C 0.44339 0.23892 0.18778 0.0
C452 C 0.41534 0.22873 0.21164 0.0
C453 C 0.44753 0.22923 0.12805 0.0
C454 C 0.39147 0.20917 0.17498 0.0
C455 C 0.3954 0.19946 0.11566 0.0
H456 H 0.38759 0.50603 0.41789 0.0
H457 H 0.35866 0.51485 0.22812 0.0
H458 H 0.40499 0.55854 0.20874 0.0
H459 H 0.45161 0.59683 0.25069 0.0
H460 H 0.47895 0.58808 0.44251 0.0
H461 H 0.43525 0.54166 0.45584 0.0
C462 C 0.39143 0.5173 0.37195 0.0
C463 C 0.36954 0.50742 0.32494 0.0
C464 C 0.41775 0.54257 0.36171 0.0
C465 C 0.37511 0.52207 0.26532 0.0
C466 C 0.40154 0.54713 0.25433 0.0
C467 C 0.44817 0.58459 0.29506 0.0
C468 C 0.46835 0.59613 0.34585 0.0
C469 C 0.42271 0.558 0.30294 0.0
C470 C 0.46363 0.57992 0.40294 0.0
C471 C 0.43864 0.55333 0.41066 0.0
H472 H 0.85034 0.47656 0.55197 0.0
H473 H 0.87294 0.49674 0.75357 0.0
H474 H 0.88024 0.45541 0.76407 0.0
H475 H 0.87646 0.41158 0.71875 0.0
H476 H 0.85265 0.39039 0.51804 0.0
H477 H 0.84992 0.43437 0.50446 0.0
C478 C 0.85714 0.47211 0.59806 0.0
C479 C 0.86076 0.48956 0.65204 0.0
C480 C 0.86097 0.44808 0.60408 0.0
C481 C 0.86974 0.48355 0.71131 0.0
C482 C 0.87392 0.45989 0.71744 0.0
C483 C 0.87092 0.41665 0.6718 0.0
C484 C 0.86445 0.39752 0.61973 0.0
C485 C 0.86899 0.44169 0.66453 0.0
C486 C 0.85758 0.40463 0.55911 0.0
C487 C 0.85593 0.42975 0.5513 0.0
H488 H 0.46995 0.85076 0.89105 0.0
H489 H 0.49021 0.88212 0.08747 0.0
H490 H 0.4445 0.88142 0.09589 0.0
H491 H 0.39749 0.86877 0.0507 0.0
H492 H 0.37666 0.83743 0.85455 0.0
H493 H 0.42392 0.84127 0.84295 0.0
C494 C 0.46456 0.85786 0.93532 0.0
C495 C 0.48335 0.86619 0.9887 0.0
C496 C 0.438 0.85706 0.94028 0.0
C497 C 0.47603 0.87533 0.04577 0.0
C498 C 0.44985 0.87488 0.05079 0.0
C499 C 0.40326 0.86275 0.00538 0.0
C500 C 0.38349 0.85247 0.95392 0.0
C501 C 0.43041 0.86514 -0.00107 0.0
C502 C 0.39148 0.84527 0.89509 0.0
C503 C 0.41849 0.84747 0.88838 0.0
H504 H 0.56221 0.44732 0.37728 0.0
H505 H 0.57035 0.44654 0.16933 0.0
H506 H 0.52272 0.40337 0.16286 0.0
H507 H 0.48024 0.36428 0.21707 0.0
H508 H 0.47355 0.36451 0.42548 0.0
H509 H 0.51925 0.40971 0.43072 0.0
C510 C 0.55357 0.43791 0.33034 0.0
C511 C 0.56995 0.45009 0.27391 0.0
C512 C 0.52649 0.41294 0.32708 0.0
C513 C 0.55828 0.43755 0.2136 0.0
C514 C 0.53106 0.41285 0.20985 0.0
C515 C 0.48862 0.37437 0.26359 0.0
C516 C 0.47355 0.36095 0.32083 0.0
C517 C 0.51518 0.40012 0.26641 0.0
C518 C 0.48478 0.37426 0.38072 0.0
C519 C 0.51092 0.40011 0.38379 0.0
H520 H 0.09906 0.59678 0.72294 0.0
H521 H 0.12343 0.60469 0.52146 0.0
H522 H 0.12601 0.56041 0.52959 0.0
H523 H 0.12439 0.52131 0.59571 0.0
H524 H 0.10055 0.51403 0.79755 0.0
H525 H 0.09463 0.55624 0.78713 0.0
C526 C 0.10476 0.58877 0.68058 0.0
C527 C 0.11129 0.60422 0.62183 0.0
C528 C 0.10645 0.56349 0.6857 0.0
C529 C 0.11836 0.59331 0.56735 0.0
C530 C 0.11994 0.56802 0.572 0.0
C531 C 0.11772 0.52881 0.63738 0.0
C532 C 0.11319 0.51462 0.69748 0.0
C533 C 0.11451 0.55323 0.63123 0.0
C534 C 0.10434 0.52457 0.75077 0.0
C535 C 0.10097 0.54875 0.74493 0.0
H536 H 0.6155 0.12886 0.07265 0.0
H537 H 0.62913 0.12876 0.86666 0.0
H538 H 0.58542 0.13111 0.84563 0.0
H539 H 0.54413 0.13477 0.88577 0.0
H540 H 0.53137 0.13569 0.0921 0.0
H541 H 0.57398 0.13155 0.11261 0.0
C542 C 0.60882 0.1291 0.02311 0.0
C543 C 0.62562 0.12867 0.9714 0.0
C544 C 0.5839 0.13084 0.01129 0.0
C545 C 0.61666 0.12913 0.90748 0.0
C546 C 0.59167 0.13054 0.89535 0.0
C547 C 0.55066 0.13408 0.93522 0.0
C548 C 0.53456 0.13566 0.98719 0.0
C549 C 0.5753 0.13173 0.9469 0.0
C550 C 0.54334 0.13462 0.051 0.0
C551 C 0.56771 0.13219 0.06292 0.0
loop_
_geom_bond_atom_site_label_1
_geom_bond_atom_site_label_2
_geom_bond_distance
_geom_bond_site_symmetry_2
_ccdc_geom_bond_type
C0 O1 1.306 . S
C0 O3 1.160 . S
O1 C0 1.306 . S
O1 Cd2 2.228 . S
Cd2 O1 2.228 . S
Cd2 O6 2.273 . S
Cd2 O10 2.277 . S
O3 C0 1.160 . S
O3 Cd4 2.203 . S
Cd4 O3 2.203 . S
Cd4 O6 2.411 . S
Cd4 O7 2.333 . S
Cd4 O8 2.352 . S
Cd4 O12 2.277 . S
Cd4 O13 2.356 . S
C5 O10 1.209 . S
C5 O12 1.226 . S
O6 Cd2 2.273 . S
O6 Cd4 2.411 . S
O6 C9 1.320 . S
O7 Cd4 2.333 . S
O7 C9 1.214 . S
O8 Cd4 2.352 . S
O8 C11 1.258 . S
C9 O6 1.320 . S
C9 O7 1.214 . S
O10 Cd2 2.277 . S
O10 C5 1.209 . S
C11 O8 1.258 . S
C11 O13 1.282 . S
O12 Cd4 2.277 . S
O12 C5 1.226 . S
O13 Cd4 2.356 . S
O13 C11 1.282 . S
C14 O15 1.306 . S
C14 O17 1.160 . S
O15 C14 1.306 . S
O15 Cd16 2.228 . S
Cd16 O15 2.228 . S
Cd16 O20 2.273 . S
Cd16 O24 2.277 . S
O17 C14 1.160 . S
O17 Cd18 2.203 . S
Cd18 O17 2.203 . S
Cd18 O20 2.411 . S
Cd18 O21 2.333 . S
Cd18 O22 2.352 . S
Cd18 O26 2.277 . S
Cd18 O27 2.356 . S
C19 O24 1.209 . S
C19 O26 1.226 . S
O20 Cd16 2.273 . S
O20 Cd18 2.411 . S
O20 C23 1.320 . S
O21 Cd18 2.333 . S
O21 C23 1.214 . S
O22 Cd18 2.352 . S
O22 C25 1.258 . S
C23 O20 1.320 . S
C23 O21 1.214 . S
O24 Cd16 2.277 . S
O24 C19 1.209 . S
C25 O22 1.258 . S
C25 O27 1.282 . S
O26 Cd18 2.277 . S
O26 C19 1.226 . S
O27 Cd18 2.356 . S
O27 C25 1.282 . S
C28 O29 1.306 1_556 S
C28 O31 1.160 . S
O29 C28 1.306 1_554 S
O29 Cd30 2.228 . S
Cd30 O29 2.228 . S
Cd30 O34 2.273 . S
Cd30 O38 2.277 . S
O31 C28 1.160 . S
O31 Cd32 2.203 . S
Cd32 O31 2.203 . S
Cd32 O34 2.411 1_556 S
Cd32 O35 2.333 . S
Cd32 O36 2.352 . S
Cd32 O40 2.277 . S
Cd32 O41 2.356 . S
C33 O38 1.209 1_556 S
C33 O40 1.226 . S
O34 Cd30 2.273 . S
O34 Cd32 2.411 1_554 S
O34 C37 1.320 . S
O35 Cd32 2.333 . S
O35 C37 1.214 1_556 S
O36 Cd32 2.352 . S
O36 C39 1.258 . S
C37 O34 1.320 . S
C37 O35 1.214 1_554 S
O38 Cd30 2.277 . S
O38 C33 1.209 1_554 S
C39 O36 1.258 . S
C39 O41 1.282 . S
O40 Cd32 2.277 . S
O40 C33 1.226 . S
O41 Cd32 2.356 . S
O41 C39 1.282 . S
C42 O43 1.306 . S
C42 O45 1.160 . S
O43 C42 1.306 . S
O43 Cd44 2.228 . S
Cd44 O43 2.228 . S
Cd44 O48 2.273 . S
Cd44 O52 2.277 . S
O45 C42 1.160 . S
O45 Cd46 2.203 . S
Cd46 O45 2.203 . S
Cd46 O48 2.411 . S
Cd46 O49 2.333 . S
Cd46 O50 2.352 . S
Cd46 O54 2.277 . S
Cd46 O55 2.356 . S
C47 O52 1.209 . S
C47 O54 1.226 . S
O48 Cd44 2.273 . S
O48 Cd46 2.411 . S
O48 C51 1.320 . S
O49 Cd46 2.333 . S
O49 C51 1.214 . S
O50 Cd46 2.352 . S
O50 C53 1.258 . S
C51 O48 1.320 . S
C51 O49 1.214 . S
O52 Cd44 2.277 . S
O52 C47 1.209 . S
C53 O50 1.258 . S
C53 O55 1.282 . S
O54 Cd46 2.277 . S
O54 C47 1.226 . S
O55 Cd46 2.356 . S
O55 C53 1.282 . S
C56 O57 1.306 . S
C56 O59 1.160 . S
O57 C56 1.306 . S
O57 Cd58 2.228 . S
Cd58 O57 2.228 . S
Cd58 O62 2.273 . S
Cd58 O66 2.277 . S
O59 C56 1.160 . S
O59 Cd60 2.203 . S
Cd60 O59 2.203 . S
Cd60 O62 2.411 . S
Cd60 O63 2.333 . S
Cd60 O64 2.352 . S
Cd60 O68 2.277 . S
Cd60 O69 2.356 . S
C61 O66 1.209 . S
C61 O68 1.226 . S
O62 Cd58 2.273 . S
O62 Cd60 2.411 . S
O62 C65 1.320 . S
O63 Cd60 2.333 . S
O63 C65 1.214 . S
O64 Cd60 2.352 . S
O64 C67 1.258 . S
C65 O62 1.320 . S
C65 O63 1.214 . S
O66 Cd58 2.277 . S
O66 C61 1.209 . S
C67 O64 1.258 . S
C67 O69 1.282 . S
O68 Cd60 2.277 . S
O68 C61 1.226 . S
O69 Cd60 2.356 . S
O69 C67 1.282 . S
C70 O71 1.306 1_556 S
C70 O73 1.160 . S
O71 C70 1.306 1_554 S
O71 Cd72 2.228 . S
Cd72 O71 2.228 . S
Cd72 O76 2.273 . S
Cd72 O80 2.277 . S
O73 C70 1.160 . S
O73 Cd74 2.203 . S
Cd74 O73 2.203 . S
Cd74 O76 2.411 1_556 S
Cd74 O77 2.333 . S
Cd74 O78 2.352 . S
Cd74 O82 2.277 . S
Cd74 O83 2.356 . S
C75 O80 1.209 1_556 S
C75 O82 1.226 . S
O76 Cd72 2.273 . S
O76 Cd74 2.411 1_554 S
O76 C79 1.320 . S
O77 Cd74 2.333 . S
O77 C79 1.214 1_556 S
O78 Cd74 2.352 . S
O78 C81 1.258 . S
C79 O76 1.320 . S
C79 O77 1.214 1_554 S
O80 Cd72 2.277 . S
O80 C75 1.209 1_554 S
C81 O78 1.258 . S
C81 O83 1.282 . S
O82 Cd74 2.277 . S
O82 C75 1.226 . S
O83 Cd74 2.356 . S
O83 C81 1.282 . S
C84 O85 1.306 . S
C84 O87 1.160 . S
O85 C84 1.306 . S
O85 Cd86 2.228 . S
Cd86 O85 2.228 . S
Cd86 O90 2.273 . S
Cd86 O94 2.277 . S
O87 C84 1.160 . S
O87 Cd88 2.203 . S
Cd88 O87 2.203 . S
Cd88 O90 2.411 . S
Cd88 O91 2.333 . S
Cd88 O92 2.352 . S
Cd88 O96 2.277 . S
Cd88 O97 2.356 . S
C89 O94 1.209 . S
C89 O96 1.226 . S
O90 Cd86 2.273 . S
O90 Cd88 2.411 . S
O90 C93 1.320 . S
O91 Cd88 2.333 . S
O91 C93 1.214 . S
O92 Cd88 2.352 . S
O92 C95 1.258 . S
C93 O90 1.320 . S
C93 O91 1.214 . S
O94 Cd86 2.277 . S
O94 C89 1.209 . S
C95 O92 1.258 . S
C95 O97 1.282 . S
O96 Cd88 2.277 . S
O96 C89 1.226 . S
O97 Cd88 2.356 . S
O97 C95 1.282 . S
C98 O99 1.306 . S
C98 O101 1.160 . S
O99 C98 1.306 . S
O99 Cd100 2.228 . S
Cd100 O99 2.228 . S
Cd100 O104 2.273 . S
Cd100 O108 2.277 . S
O101 C98 1.160 . S
O101 Cd102 2.203 . S
Cd102 O101 2.203 . S
Cd102 O104 2.411 . S
Cd102 O105 2.333 . S
Cd102 O106 2.352 . S
Cd102 O110 2.277 . S
Cd102 O111 2.356 . S
C103 O108 1.209 . S
C103 O110 1.226 . S
O104 Cd100 2.273 . S
O104 Cd102 2.411 . S
O104 C107 1.320 . S
O105 Cd102 2.333 . S
O105 C107 1.214 . S
O106 Cd102 2.352 . S
O106 C109 1.258 . S
C107 O104 1.320 . S
C107 O105 1.214 . S
O108 Cd100 2.277 . S
O108 C103 1.209 . S
C109 O106 1.258 . S
C109 O111 1.282 . S
O110 Cd102 2.277 . S
O110 C103 1.226 . S
O111 Cd102 2.356 . S
O111 C109 1.282 . S
C112 O113 1.306 1_554 S
C112 O115 1.160 . S
O113 C112 1.306 1_556 S
O113 Cd114 2.228 . S
Cd114 O113 2.228 . S
Cd114 O118 2.273 . S
Cd114 O122 2.277 . S
O115 C112 1.160 . S
O115 Cd116 2.203 . S
Cd116 O115 2.203 . S
Cd116 O118 2.411 1_554 S
Cd116 O119 2.333 . S
Cd116 O120 2.352 . S
Cd116 O124 2.277 . S
Cd116 O125 2.356 . S
C117 O122 1.209 1_554 S
C117 O124 1.226 . S
O118 Cd114 2.273 . S
O118 Cd116 2.411 1_556 S
O118 C121 1.320 . S
O119 Cd116 2.333 . S
O119 C121 1.214 1_554 S
O120 Cd116 2.352 . S
O120 C123 1.258 . S
C121 O118 1.320 . S
C121 O119 1.214 1_556 S
O122 Cd114 2.277 . S
O122 C117 1.209 1_556 S
C123 O120 1.258 . S
C123 O125 1.282 . S
O124 Cd116 2.277 . S
O124 C117 1.226 . S
O125 Cd116 2.356 . S
O125 C123 1.282 . S
C126 O127 1.306 . S
C126 O129 1.160 . S
O127 C126 1.306 . S
O127 Cd128 2.228 . S
Cd128 O127 2.228 . S
Cd128 O132 2.273 . S
Cd128 O136 2.277 . S
O129 C126 1.160 . S
O129 Cd130 2.203 . S
Cd130 O129 2.203 . S
Cd130 O132 2.411 . S
Cd130 O133 2.333 . S
Cd130 O134 2.352 . S
Cd130 O138 2.277 . S
Cd130 O139 2.356 . S
C131 O136 1.209 . S
C131 O138 1.226 . S
O132 Cd128 2.273 . S
O132 Cd130 2.411 . S
O132 C135 1.320 . S
O133 Cd130 2.333 . S
O133 C135 1.214 . S
O134 Cd130 2.352 . S
O134 C137 1.258 . S
C135 O132 1.320 . S
C135 O133 1.214 . S
O136 Cd128 2.277 . S
O136 C131 1.209 . S
C137 O134 1.258 . S
C137 O139 1.282 . S
O138 Cd130 2.277 . S
O138 C131 1.226 . S
O139 Cd130 2.356 . S
O139 C137 1.282 . S
C140 O141 1.306 . S
C140 O143 1.160 . S
O141 C140 1.306 . S
O141 Cd142 2.228 . S
Cd142 O141 2.228 . S
Cd142 O146 2.273 . S
Cd142 O150 2.277 . S
O143 C140 1.160 . S
O143 Cd144 2.203 . S
Cd144 O143 2.203 . S
Cd144 O146 2.411 . S
Cd144 O147 2.333 . S
Cd144 O148 2.352 . S
Cd144 O152 2.277 . S
Cd144 O153 2.356 . S
C145 O150 1.209 . S
C145 O152 1.226 . S
O146 Cd142 2.273 . S
O146 Cd144 2.411 . S
O146 C149 1.320 . S
O147 Cd144 2.333 . S
O147 C149 1.214 . S
O148 Cd144 2.352 . S
O148 C151 1.258 . S
C149 O146 1.320 . S
C149 O147 1.214 . S
O150 Cd142 2.277 . S
O150 C145 1.209 . S
C151 O148 1.258 . S
C151 O153 1.282 . S
O152 Cd144 2.277 . S
O152 C145 1.226 . S
O153 Cd144 2.356 . S
O153 C151 1.282 . S
C154 O155 1.306 1_554 S
C154 O157 1.160 . S
O155 C154 1.306 1_556 S
O155 Cd156 2.228 . S
Cd156 O155 2.228 . S
Cd156 O160 2.273 . S
Cd156 O164 2.277 . S
O157 C154 1.160 . S
O157 Cd158 2.203 . S
Cd158 O157 2.203 . S
Cd158 O160 2.411 1_554 S
Cd158 O161 2.333 . S
Cd158 O162 2.352 . S
Cd158 O166 2.277 . S
Cd158 O167 2.356 . S
C159 O164 1.209 1_554 S
C159 O166 1.226 . S
O160 Cd156 2.273 . S
O160 Cd158 2.411 1_556 S
O160 C163 1.320 . S
O161 Cd158 2.333 . S
O161 C163 1.214 1_554 S
O162 Cd158 2.352 . S
O162 C165 1.258 . S
C163 O160 1.320 . S
C163 O161 1.214 1_556 S
O164 Cd156 2.277 . S
O164 C159 1.209 1_556 S
C165 O162 1.258 . S
C165 O167 1.282 . S
O166 Cd158 2.277 . S
O166 C159 1.226 . S
O167 Cd158 2.356 . S
O167 C165 1.282 . S
H168 C174 0.930 . S
H169 C177 0.930 . S
H170 C178 0.930 . S
H171 C179 0.930 . S
H172 C182 0.930 . S
H173 C183 0.930 . S
C174 H168 0.930 . S
C174 C175 1.355 . S
C174 C176 1.415 . S
C175 C174 1.355 . S
C175 C177 1.419 . S
C176 C174 1.415 . S
C176 C181 1.425 . S
C176 C183 1.409 . S
C177 H169 0.930 . S
C177 C175 1.419 . S
C177 C178 1.362 . S
C178 H170 0.930 . S
C178 C177 1.362 . S
C178 C181 1.409 . S
C179 H171 0.930 . S
C179 C180 1.355 . S
C179 C181 1.415 . S
C180 C179 1.355 . S
C180 C182 1.419 . S
C181 C176 1.425 . S
C181 C178 1.409 . S
C181 C179 1.415 . S
C182 H172 0.930 . S
C182 C180 1.419 . S
C182 C183 1.362 . S
C183 H173 0.930 . S
C183 C176 1.409 . S
C183 C182 1.362 . S
H184 C190 0.930 . S
H185 C193 0.930 . S
H186 C194 0.930 1_455 S
H187 C195 0.930 . S
H188 C198 0.930 . S
H189 C199 0.930 1_655 S
C190 H184 0.930 . S
C190 C191 1.355 . S
C190 C192 1.415 . S
C191 C190 1.355 . S
C191 C193 1.419 . S
C192 C190 1.415 . S
C192 C197 1.425 1_655 S
C192 C199 1.409 1_655 S
C193 H185 0.930 . S
C193 C191 1.419 . S
C193 C194 1.362 . S
C194 H186 0.930 1_655 S
C194 C193 1.362 . S
C194 C197 1.409 1_655 S
C195 H187 0.930 . S
C195 C196 1.355 . S
C195 C197 1.415 . S
C196 C195 1.355 . S
C196 C198 1.419 . S
C197 C192 1.425 1_455 S
C197 C194 1.409 1_455 S
C197 C195 1.415 . S
C198 H188 0.930 . S
C198 C196 1.419 . S
C198 C199 1.362 . S
C199 H189 0.930 1_455 S
C199 C192 1.409 1_455 S
C199 C198 1.362 . S
H200 C206 0.930 . S
H201 C209 0.930 . S
H202 C210 0.930 1_545 S
H203 C211 0.930 . S
H204 C214 0.930 . S
H205 C215 0.930 1_565 S
C206 H200 0.930 . S
C206 C207 1.355 1_554 S
C206 C208 1.415 . S
C207 C206 1.355 1_556 S
C207 C209 1.419 . S
C208 C206 1.415 . S
C208 C213 1.425 1_564 S
C208 C215 1.409 1_565 S
C209 H201 0.930 . S
C209 C207 1.419 . S
C209 C210 1.362 . S
C210 H202 0.930 1_565 S
C210 C209 1.362 . S
C210 C213 1.409 1_565 S
C211 H203 0.930 . S
C211 C212 1.355 1_556 S
C211 C213 1.415 . S
C212 C211 1.355 1_554 S
C212 C214 1.419 . S
C213 C208 1.425 1_546 S
C213 C210 1.409 1_545 S
C213 C211 1.415 . S
C214 H204 0.930 . S
C214 C212 1.419 . S
C214 C215 1.362 . S
C215 H205 0.930 1_545 S
C215 C208 1.409 1_545 S
C215 C214 1.362 . S
H216 C222 0.930 . S
H217 C225 0.930 . S
H218 C226 0.930 . S
H219 C227 0.930 . S
H220 C230 0.930 . S
H221 C231 0.930 . S
C222 H216 0.930 . S
C222 C223 1.355 . S
C222 C224 1.415 . S
C223 C222 1.355 . S
C223 C225 1.419 . S
C224 C222 1.415 . S
C224 C229 1.425 . S
C224 C231 1.409 . S
C225 H217 0.930 . S
C225 C223 1.419 . S
C225 C226 1.362 . S
C226 H218 0.930 . S
C226 C225 1.362 . S
C226 C229 1.409 . S
C227 H219 0.930 . S
C227 C228 1.355 . S
C227 C229 1.415 . S
C228 C227 1.355 . S
C228 C230 1.419 . S
C229 C224 1.425 . S
C229 C226 1.409 . S
C229 C227 1.415 . S
C230 H220 0.930 . S
C230 C228 1.419 . S
C230 C231 1.362 . S
C231 H221 0.930 . S
C231 C224 1.409 . S
C231 C230 1.362 . S
H232 C238 0.930 . S
H233 C241 0.930 . S
H234 C242 0.930 . S
H235 C243 0.930 . S
H236 C246 0.930 . S
H237 C247 0.930 . S
C238 H232 0.930 . S
C238 C239 1.355 . S
C238 C240 1.415 . S
C239 C238 1.355 . S
C239 C241 1.419 . S
C240 C238 1.415 . S
C240 C245 1.425 1_655 S
C240 C247 1.409 1_655 S
C241 H233 0.930 . S
C241 C239 1.419 . S
C241 C242 1.362 . S
C242 H234 0.930 . S
C242 C241 1.362 . S
C242 C245 1.409 1_655 S
C243 H235 0.930 . S
C243 C244 1.355 . S
C243 C245 1.415 . S
C244 C243 1.355 . S
C244 C246 1.419 . S
C245 C240 1.425 1_455 S
C245 C242 1.409 1_455 S
C245 C243 1.415 . S
C246 H236 0.930 . S
C246 C244 1.419 . S
C246 C247 1.362 . S
C247 H237 0.930 . S
C247 C240 1.409 1_455 S
C247 C246 1.362 . S
H248 C254 0.929 1_556 S
H249 C257 0.930 . S
H250 C258 0.930 1_545 S
H251 C259 0.929 1_554 S
H252 C262 0.930 . S
H253 C263 0.930 1_565 S
C254 H248 0.929 1_554 S
C254 C255 1.355 . S
C254 C256 1.415 1_554 S
C255 C254 1.355 . S
C255 C257 1.419 . S
C256 C254 1.415 1_556 S
C256 C261 1.425 1_566 S
C256 C263 1.409 1_565 S
C257 H249 0.930 . S
C257 C255 1.419 . S
C257 C258 1.362 . S
C258 H250 0.930 1_565 S
C258 C257 1.362 . S
C258 C261 1.409 1_565 S
C259 H251 0.929 1_556 S
C259 C260 1.355 . S
C259 C261 1.415 1_556 S
C260 C259 1.355 . S
C260 C262 1.419 . S
C261 C256 1.425 1_544 S
C261 C258 1.409 1_545 S
C261 C259 1.415 1_554 S
C262 H252 0.930 . S
C262 C260 1.419 . S
C262 C263 1.362 . S
C263 H253 0.930 1_545 S
C263 C256 1.409 1_545 S
C263 C262 1.362 . S
H264 C270 0.930 . S
H265 C273 0.930 . S
H266 C274 0.930 . S
H267 C275 0.930 . S
H268 C278 0.930 . S
H269 C279 0.930 . S
C270 H264 0.930 . S
C270 C271 1.355 . S
C270 C272 1.415 . S
C271 C270 1.355 . S
C271 C273 1.419 . S
C272 C270 1.415 . S
C272 C277 1.425 1_556 S
C272 C279 1.409 1_556 S
C273 H265 0.930 . S
C273 C271 1.419 . S
C273 C274 1.362 . S
C274 H266 0.930 . S
C274 C273 1.362 . S
C274 C277 1.409 1_556 S
C275 H267 0.930 . S
C275 C276 1.355 . S
C275 C277 1.415 . S
C276 C275 1.355 . S
C276 C278 1.419 . S
C277 C272 1.425 1_554 S
C277 C274 1.409 1_554 S
C277 C275 1.415 . S
C278 H268 0.930 . S
C278 C276 1.419 . S
C278 C279 1.362 . S
C279 H269 0.930 . S
C279 C272 1.409 1_554 S
C279 C278 1.362 . S
H280 C286 0.930 . S
H281 C289 0.930 . S
H282 C290 0.930 . S
H283 C291 0.930 . S
H284 C294 0.930 . S
H285 C295 0.930 . S
C286 H280 0.930 . S
C286 C287 1.355 . S
C286 C288 1.415 . S
C287 C286 1.355 . S
C287 C289 1.419 . S
C288 C286 1.415 . S
C288 C293 1.425 . S
C288 C295 1.409 . S
C289 H281 0.930 . S
C289 C287 1.419 . S
C289 C290 1.362 . S
C290 H282 0.930 . S
C290 C289 1.362 . S
C290 C293 1.409 . S
C291 H283 0.930 . S
C291 C292 1.355 . S
C291 C293 1.415 . S
C292 C291 1.355 . S
C292 C294 1.419 . S
C293 C288 1.425 . S
C293 C290 1.409 . S
C293 C291 1.415 . S
C294 H284 0.930 . S
C294 C292 1.419 . S
C294 C295 1.362 . S
C295 H285 0.930 . S
C295 C288 1.409 . S
C295 C294 1.362 . S
H296 C302 0.930 . S
H297 C305 0.930 . S
H298 C306 0.930 . S
H299 C307 0.930 . S
H300 C310 0.930 . S
H301 C311 0.930 . S
C302 H296 0.930 . S
C302 C303 1.355 . S
C302 C304 1.415 . S
C303 C302 1.355 . S
C303 C305 1.419 . S
C304 C302 1.415 . S
C304 C309 1.425 . S
C304 C311 1.409 . S
C305 H297 0.930 . S
C305 C303 1.419 . S
C305 C306 1.362 . S
C306 H298 0.930 . S
C306 C305 1.362 . S
C306 C309 1.409 . S
C307 H299 0.930 . S
C307 C308 1.355 . S
C307 C309 1.415 . S
C308 C307 1.355 . S
C308 C310 1.419 . S
C309 C304 1.425 . S
C309 C306 1.409 . S
C309 C307 1.415 . S
C310 H300 0.930 . S
C310 C308 1.419 . S
C310 C311 1.362 . S
C311 H301 0.930 . S
C311 C304 1.409 . S
C311 C310 1.362 . S
H312 C318 0.930 . S
H313 C321 0.930 . S
H314 C322 0.930 . S
H315 C323 0.930 . S
H316 C326 0.930 . S
H317 C327 0.930 . S
C318 H312 0.930 . S
C318 C319 1.355 . S
C318 C320 1.415 . S
C319 C318 1.355 . S
C319 C321 1.419 . S
C320 C318 1.415 . S
C320 C325 1.425 1_554 S
C320 C327 1.409 . S
C321 H313 0.930 . S
C321 C319 1.419 . S
C321 C322 1.362 1_554 S
C322 H314 0.930 . S
C322 C321 1.362 1_556 S
C322 C325 1.409 . S
C323 H315 0.930 . S
C323 C324 1.355 . S
C323 C325 1.415 . S
C324 C323 1.355 . S
C324 C326 1.419 . S
C325 C320 1.425 1_556 S
C325 C322 1.409 . S
C325 C323 1.415 . S
C326 H316 0.930 . S
C326 C324 1.419 . S
C326 C327 1.362 1_556 S
C327 H317 0.930 . S
C327 C320 1.409 . S
C327 C326 1.362 1_554 S
H328 C334 0.930 . S
H329 C337 0.930 . S
H330 C338 0.930 . S
H331 C339 0.930 . S
H332 C342 0.930 . S
H333 C343 0.930 . S
C334 H328 0.930 . S
C334 C335 1.355 . S
C334 C336 1.415 . S
C335 C334 1.355 . S
C335 C337 1.419 . S
C336 C334 1.415 . S
C336 C341 1.425 . S
C336 C343 1.409 . S
C337 H329 0.930 . S
C337 C335 1.419 . S
C337 C338 1.362 . S
C338 H330 0.930 . S
C338 C337 1.362 . S
C338 C341 1.409 . S
C339 H331 0.930 . S
C339 C340 1.355 . S
C339 C341 1.415 . S
C340 C339 1.355 . S
C340 C342 1.419 . S
C341 C336 1.425 . S
C341 C338 1.409 . S
C341 C339 1.415 . S
C342 H332 0.930 . S
C342 C340 1.419 . S
C342 C343 1.362 . S
C343 H333 0.930 . S
C343 C336 1.409 . S
C343 C342 1.362 . S
H344 C350 0.930 . S
H345 C353 0.930 . S
H346 C354 0.930 . S
H347 C355 0.930 . S
H348 C358 0.930 . S
H349 C359 0.930 . S
C350 H344 0.930 . S
C350 C351 1.355 . S
C350 C352 1.415 . S
C351 C350 1.355 . S
C351 C353 1.419 . S
C352 C350 1.415 . S
C352 C357 1.425 . S
C352 C359 1.409 . S
C353 H345 0.930 . S
C353 C351 1.419 . S
C353 C354 1.362 . S
C354 H346 0.930 . S
C354 C353 1.362 . S
C354 C357 1.409 . S
C355 H347 0.930 . S
C355 C356 1.355 . S
C355 C357 1.415 . S
C356 C355 1.355 . S
C356 C358 1.419 . S
C357 C352 1.425 . S
C357 C354 1.409 . S
C357 C355 1.415 . S
C358 H348 0.930 . S
C358 C356 1.419 . S
C358 C359 1.362 . S
C359 H349 0.930 . S
C359 C352 1.409 . S
C359 C358 1.362 . S
H360 C366 0.930 . S
H361 C369 0.930 . S
H362 C370 0.930 . S
H363 C371 0.930 . S
H364 C374 0.930 . S
H365 C375 0.930 . S
C366 H360 0.930 . S
C366 C367 1.355 . S
C366 C368 1.415 . S
C367 C366 1.355 . S
C367 C369 1.419 . S
C368 C366 1.415 . S
C368 C373 1.425 . S
C368 C375 1.409 . S
C369 H361 0.930 . S
C369 C367 1.419 . S
C369 C370 1.362 . S
C370 H362 0.930 . S
C370 C369 1.362 . S
C370 C373 1.409 . S
C371 H363 0.930 . S
C371 C372 1.355 . S
C371 C373 1.415 . S
C372 C371 1.355 . S
C372 C374 1.419 . S
C373 C368 1.425 . S
C373 C370 1.409 . S
C373 C371 1.415 . S
C374 H364 0.930 . S
C374 C372 1.419 . S
C374 C375 1.362 . S
C375 H365 0.930 . S
C375 C368 1.409 . S
C375 C374 1.362 . S
H376 C382 0.930 . S
H377 C385 0.930 . S
H378 C386 0.930 . S
H379 C387 0.930 . S
H380 C390 0.930 1_554 S
H381 C391 0.930 . S
C382 H376 0.930 . S
C382 C383 1.355 . S
C382 C384 1.415 . S
C383 C382 1.355 . S
C383 C385 1.419 . S
C384 C382 1.415 . S
C384 C389 1.425 . S
C384 C391 1.409 . S
C385 H377 0.930 . S
C385 C383 1.419 . S
C385 C386 1.362 . S
C386 H378 0.930 . S
C386 C385 1.362 . S
C386 C389 1.409 . S
C387 H379 0.930 . S
C387 C388 1.355 . S
C387 C389 1.415 . S
C388 C387 1.355 . S
C388 C390 1.419 . S
C389 C384 1.425 . S
C389 C386 1.409 . S
C389 C387 1.415 . S
C390 H380 0.930 1_556 S
C390 C388 1.419 . S
C390 C391 1.362 . S
C391 H381 0.930 . S
C391 C384 1.409 . S
C391 C390 1.362 . S
H392 C398 0.930 . S
H393 C401 0.930 . S
H394 C402 0.930 . S
H395 C403 0.930 . S
H396 C406 0.930 . S
H397 C407 0.930 . S
C398 H392 0.930 . S
C398 C399 1.355 . S
C398 C400 1.415 . S
C399 C398 1.355 . S
C399 C401 1.419 . S
C400 C398 1.415 . S
C400 C405 1.425 . S
C400 C407 1.409 . S
C401 H393 0.930 . S
C401 C399 1.419 . S
C401 C402 1.362 . S
C402 H394 0.930 . S
C402 C401 1.362 . S
C402 C405 1.409 . S
C403 H395 0.930 . S
C403 C404 1.355 . S
C403 C405 1.415 . S
C404 C403 1.355 . S
C404 C406 1.419 . S
C405 C400 1.425 . S
C405 C402 1.409 . S
C405 C403 1.415 . S
C406 H396 0.930 . S
C406 C404 1.419 . S
C406 C407 1.362 . S
C407 H397 0.930 . S
C407 C400 1.409 . S
C407 C406 1.362 . S
H408 C414 0.930 . S
H409 C417 0.930 . S
H410 C418 0.930 . S
H411 C419 0.930 . S
H412 C422 0.930 . S
H413 C423 0.930 . S
C414 H408 0.930 . S
C414 C415 1.355 . S
C414 C416 1.415 . S
C415 C414 1.355 . S
C415 C417 1.419 . S
C416 C414 1.415 . S
C416 C421 1.425 . S
C416 C423 1.409 . S
C417 H409 0.930 . S
C417 C415 1.419 . S
C417 C418 1.362 . S
C418 H410 0.930 . S
C418 C417 1.362 . S
C418 C421 1.409 . S
C419 H411 0.930 . S
C419 C420 1.355 . S
C419 C421 1.415 . S
C420 C419 1.355 . S
C420 C422 1.419 . S
C421 C416 1.425 . S
C421 C418 1.409 . S
C421 C419 1.415 . S
C422 H412 0.930 . S
C422 C420 1.419 . S
C422 C423 1.362 . S
C423 H413 0.930 . S
C423 C416 1.409 . S
C423 C422 1.362 . S
H424 C430 0.930 . S
H425 C433 0.930 . S
H426 C434 0.930 . S
H427 C435 0.930 . S
H428 C438 0.930 . S
H429 C439 0.930 . S
C430 H424 0.930 . S
C430 C431 1.355 . S
C430 C432 1.415 . S
C431 C430 1.355 . S
C431 C433 1.419 . S
C432 C430 1.415 . S
C432 C437 1.425 . S
C432 C439 1.409 . S
C433 H425 0.930 . S
C433 C431 1.419 . S
C433 C434 1.362 . S
C434 H426 0.930 . S
C434 C433 1.362 . S
C434 C437 1.409 . S
C435 H427 0.930 . S
C435 C436 1.355 . S
C435 C437 1.415 . S
C436 C435 1.355 . S
C436 C438 1.419 . S
C437 C432 1.425 . S
C437 C434 1.409 . S
C437 C435 1.415 . S
C438 H428 0.930 . S
C438 C436 1.419 . S
C438 C439 1.362 . S
C439 H429 0.930 . S
C439 C432 1.409 . S
C439 C438 1.362 . S
H440 C446 0.930 . S
H441 C449 0.930 . S
H442 C450 0.930 . S
H443 C451 0.930 . S
H444 C454 0.930 . S
H445 C455 0.930 . S
C446 H440 0.930 . S
C446 C447 1.355 . S
C446 C448 1.415 . S
C447 C446 1.355 . S
C447 C449 1.419 . S
C448 C446 1.415 . S
C448 C453 1.425 . S
C448 C455 1.409 . S
C449 H441 0.930 . S
C449 C447 1.419 . S
C449 C450 1.362 . S
C450 H442 0.930 . S
C450 C449 1.362 . S
C450 C453 1.409 . S
C451 H443 0.930 . S
C451 C452 1.355 . S
C451 C453 1.415 . S
C452 C451 1.355 . S
C452 C454 1.419 . S
C453 C448 1.425 . S
C453 C450 1.409 . S
C453 C451 1.415 . S
C454 H444 0.930 . S
C454 C452 1.419 . S
C454 C455 1.362 . S
C455 H445 0.930 . S
C455 C448 1.409 . S
C455 C454 1.362 . S
H456 C462 0.930 . S
H457 C465 0.930 . S
H458 C466 0.930 . S
H459 C467 0.930 . S
H460 C470 0.930 . S
H461 C471 0.930 . S
C462 H456 0.930 . S
C462 C463 1.355 . S
C462 C464 1.415 . S
C463 C462 1.355 . S
C463 C465 1.419 . S
C464 C462 1.415 . S
C464 C469 1.425 . S
C464 C471 1.409 . S
C465 H457 0.930 . S
C465 C463 1.419 . S
C465 C466 1.362 . S
C466 H458 0.930 . S
C466 C465 1.362 . S
C466 C469 1.409 . S
C467 H459 0.930 . S
C467 C468 1.355 . S
C467 C469 1.415 . S
C468 C467 1.355 . S
C468 C470 1.419 . S
C469 C464 1.425 . S
C469 C466 1.409 . S
C469 C467 1.415 . S
C470 H460 0.930 . S
C470 C468 1.419 . S
C470 C471 1.362 . S
C471 H461 0.930 . S
C471 C464 1.409 . S
C471 C470 1.362 . S
H472 C478 0.930 . S
H473 C481 0.930 . S
H474 C482 0.930 . S
H475 C483 0.930 . S
H476 C486 0.930 . S
H477 C487 0.930 . S
C478 H472 0.930 . S
C478 C479 1.355 . S
C478 C480 1.415 . S
C479 C478 1.355 . S
C479 C481 1.419 . S
C480 C478 1.415 . S
C480 C485 1.425 . S
C480 C487 1.409 . S
C481 H473 0.930 . S
C481 C479 1.419 . S
C481 C482 1.362 . S
C482 H474 0.930 . S
C482 C481 1.362 . S
C482 C485 1.409 . S
C483 H475 0.930 . S
C483 C484 1.355 . S
C483 C485 1.415 . S
C484 C483 1.355 . S
C484 C486 1.419 . S
C485 C480 1.425 . S
C485 C482 1.409 . S
C485 C483 1.415 . S
C486 H476 0.930 . S
C486 C484 1.419 . S
C486 C487 1.362 . S
C487 H477 0.930 . S
C487 C480 1.409 . S
C487 C486 1.362 . S
H488 C494 0.930 . S
H489 C497 0.930 . S
H490 C498 0.930 . S
H491 C499 0.930 . S
H492 C502 0.930 . S
H493 C503 0.930 . S
C494 H488 0.930 . S
C494 C495 1.355 1_556 S
C494 C496 1.415 . S
C495 C494 1.355 1_554 S
C495 C497 1.419 . S
C496 C494 1.415 . S
C496 C501 1.425 1_556 S
C496 C503 1.409 . S
C497 H489 0.930 . S
C497 C495 1.419 . S
C497 C498 1.362 . S
C498 H490 0.930 . S
C498 C497 1.362 . S
C498 C501 1.409 . S
C499 H491 0.930 . S
C499 C500 1.355 1_554 S
C499 C501 1.415 . S
C500 C499 1.355 1_556 S
C500 C502 1.419 . S
C501 C496 1.425 1_554 S
C501 C498 1.409 . S
C501 C499 1.415 . S
C502 H492 0.930 . S
C502 C500 1.419 . S
C502 C503 1.362 . S
C503 H493 0.930 . S
C503 C496 1.409 . S
C503 C502 1.362 . S
H504 C510 0.930 . S
H505 C513 0.930 . S
H506 C514 0.930 . S
H507 C515 0.930 . S
H508 C518 0.930 . S
H509 C519 0.930 . S
C510 H504 0.930 . S
C510 C511 1.355 . S
C510 C512 1.415 . S
C511 C510 1.355 . S
C511 C513 1.419 . S
C512 C510 1.415 . S
C512 C517 1.425 . S
C512 C519 1.409 . S
C513 H505 0.930 . S
C513 C511 1.419 . S
C513 C514 1.362 . S
C514 H506 0.930 . S
C514 C513 1.362 . S
C514 C517 1.409 . S
C515 H507 0.930 . S
C515 C516 1.355 . S
C515 C517 1.415 . S
C516 C515 1.355 . S
C516 C518 1.419 . S
C517 C512 1.425 . S
C517 C514 1.409 . S
C517 C515 1.415 . S
C518 H508 0.930 . S
C518 C516 1.419 . S
C518 C519 1.362 . S
C519 H509 0.930 . S
C519 C512 1.409 . S
C519 C518 1.362 . S
H520 C526 0.930 . S
H521 C529 0.930 . S
H522 C530 0.930 . S
H523 C531 0.930 . S
H524 C534 0.930 . S
H525 C535 0.930 . S
C526 H520 0.930 . S
C526 C527 1.355 . S
C526 C528 1.415 . S
C527 C526 1.355 . S
C527 C529 1.419 . S
C528 C526 1.415 . S
C528 C533 1.425 . S
C528 C535 1.409 . S
C529 H521 0.930 . S
C529 C527 1.419 . S
C529 C530 1.362 . S
C530 H522 0.930 . S
C530 C529 1.362 . S
C530 C533 1.409 . S
C531 H523 0.930 . S
C531 C532 1.355 . S
C531 C533 1.415 . S
C532 C531 1.355 . S
C532 C534 1.419 . S
C533 C528 1.425 . S
C533 C530 1.409 . S
C533 C531 1.415 . S
C534 H524 0.930 . S
C534 C532 1.419 . S
C534 C535 1.362 . S
C535 H525 0.930 . S
C535 C528 1.409 . S
C535 C534 1.362 . S
H536 C542 0.930 . S
H537 C545 0.930 . S
H538 C546 0.930 . S
H539 C547 0.930 . S
H540 C550 0.930 . S
H541 C551 0.930 . S
C542 H536 0.930 . S
C542 C543 1.357 . S
C542 C544 1.415 . S
C543 C542 1.357 . S
C543 C545 1.415 1_554 S
C544 C542 1.415 . S
C544 C549 1.425 1_554 S
C544 C551 1.409 . S
C545 H537 0.930 . S
C545 C543 1.415 1_556 S
C545 C546 1.362 . S
C546 H538 0.930 . S
C546 C545 1.362 . S
C546 C549 1.409 . S
C547 H539 0.930 . S
C547 C548 1.358 . S
C547 C549 1.415 . S
C548 C547 1.358 . S
C548 C550 1.415 1_556 S
C549 C544 1.425 1_556 S
C549 C546 1.409 . S
C549 C547 1.415 . S
C550 H540 0.930 . S
C550 C548 1.415 1_554 S
C550 C551 1.362 . S
C551 H541 0.930 . S
C551 C544 1.409 . S
C551 C550 1.362 . S
C175 C0 1.430 . S
C180 C126 1.426 . S
C191 C14 1.389 . S
C196 C140 1.416 . S
C207 C28 1.411 . S
C212 C154 1.428 . S
C223 C42 1.425 . S
C228 C84 1.403 . S
C239 C98 1.372 . S
C244 C56 1.401 . S
C255 C112 1.428 . S
C260 C70 1.408 . S
C271 C151 1.710 . S
C276 C11 1.746 . S
C287 C25 1.717 . S
C292 C165 1.744 . S
C303 C39 1.733 . S
C308 C95 1.704 . S
C319 C53 1.738 . S
C324 C109 1.727 . S
C335 C67 1.742 . S
C340 C123 1.703 . S
C351 C81 1.708 . S
C356 C137 1.726 . S
C367 C149 1.036 . S
C372 C9 1.034 . S
C383 C23 1.036 . S
C388 C163 1.033 . S
C399 C37 1.034 . S
C404 C93 1.035 . S
C415 C51 1.037 . S
C420 C107 1.043 . S
C431 C65 1.042 . S
C436 C121 1.042 . S
C447 C79 1.040 . S
C452 C135 1.044 . S
C463 C5 1.623 . S
C468 C89 1.621 . S
C479 C103 1.622 . S
C484 C19 1.623 . S
C495 C33 1.640 1_554 S
C500 C117 1.639 1_556 S
C511 C47 1.624 . S
C516 C131 1.626 . S
C527 C61 1.629 . S
C532 C145 1.627 . S
C543 C159 1.638 . S
C548 C75 1.637 . S
