# Generated by pormake.
# Topology vch, (7)-cn, num edge types: 1
# Building blocks:
#     Node 0, Type 0, BuildingBlock: NUHQUE_clean_sbu_2, # of connection points: 7
#     Node 1, Type 0, BuildingBlock: NUHQUE_clean_sbu_2, # of connection points: 7
#     Node 2, Type 0, BuildingBlock: NUHQUE_clean_sbu_2, # of connection points: 7
#     Node 3, Type 0, BuildingBlock: NUHQUE_clean_sbu_2, # of connection points: 7
#     Node 4, Type 0, BuildingBlock: NUHQUE_clean_sbu_2, # of connection points: 7
#     Node 5, Type 0, BuildingBlock: NUHQUE_clean_sbu_2, # of connection points: 7
#     Node 6, Type 0, BuildingBlock: NUHQUE_clean_sbu_2, # of connection points: 7
#     Node 7, Type 0, BuildingBlock: NUHQUE_clean_sbu_2, # of connection points: 7
#     Node 8, Type 0, BuildingBlock: NUHQUE_clean_sbu_2, # of connection points: 7
#     Node 9, Type 0, BuildingBlock: NUHQUE_clean_sbu_2, # of connection points: 7
#     Node 10, Type 0, BuildingBlock: NUHQUE_clean_sbu_2, # of connection points: 7
#     Node 11, Type 0, BuildingBlock: NUHQUE_clean_sbu_2, # of connection points: 7
#     Node 12, Type 0, BuildingBlock: NUHQUE_clean_sbu_2, # of connection points: 7
#     Node 13, Type 0, BuildingBlock: NUHQUE_clean_sbu_2, # of connection points: 7
#     Node 14, Type 0, BuildingBlock: NUHQUE_clean_sbu_2, # of connection points: 7
#     Node 15, Type 0, BuildingBlock: NUHQUE_clean_sbu_2, # of connection points: 7
#     Edge 16, Type (0, 0), BuildingBlock: KIFKEQ_clean_linker_1, # of connection points: 2
#     Edge 17, Type (0, 0), BuildingBlock: KIFKEQ_clean_linker_1, # of connection points: 2
#     Edge 18, Type (0, 0), BuildingBlock: KIFKEQ_clean_linker_1, # of connection points: 2
#     Edge 19, Type (0, 0), BuildingBlock: KIFKEQ_clean_linker_1, # of connection points: 2
#     Edge 20, Type (0, 0), BuildingBlock: KIFKEQ_clean_linker_1, # of connection points: 2
#     Edge 21, Type (0, 0), BuildingBlock: KIFKEQ_clean_linker_1, # of connection points: 2
#     Edge 22, Type (0, 0), BuildingBlock: KIFKEQ_clean_linker_1, # of connection points: 2
#     Edge 23, Type (0, 0), BuildingBlock: KIFKEQ_clean_linker_1, # of connection points: 2
#     Edge 24, Type (0, 0), BuildingBlock: KIFKEQ_clean_linker_1, # of connection points: 2
#     Edge 25, Type (0, 0), BuildingBlock: KIFKEQ_clean_linker_1, # of connection points: 2
#     Edge 26, Type (0, 0), BuildingBlock: KIFKEQ_clean_linker_1, # of connection points: 2
#     Edge 27, Type (0, 0), BuildingBlock: KIFKEQ_clean_linker_1, # of connection points: 2
#     Edge 28, Type (0, 0), BuildingBlock: KIFKEQ_clean_linker_1, # of connection points: 2
#     Edge 29, Type (0, 0), BuildingBlock: KIFKEQ_clean_linker_1, # of connection points: 2
#     Edge 30, Type (0, 0), BuildingBlock: KIFKEQ_clean_linker_1, # of connection points: 2
#     Edge 31, Type (0, 0), BuildingBlock: KIFKEQ_clean_linker_1, # of connection points: 2
#     Edge 32, Type (0, 0), BuildingBlock: KIFKEQ_clean_linker_1, # of connection points: 2
#     Edge 33, Type (0, 0), BuildingBlock: KIFKEQ_clean_linker_1, # of connection points: 2
#     Edge 34, Type (0, 0), BuildingBlock: KIFKEQ_clean_linker_1, # of connection points: 2
#     Edge 35, Type (0, 0), BuildingBlock: KIFKEQ_clean_linker_1, # of connection points: 2
#     Edge 36, Type (0, 0), BuildingBlock: KIFKEQ_clean_linker_1, # of connection points: 2
#     Edge 37, Type (0, 0), BuildingBlock: KIFKEQ_clean_linker_1, # of connection points: 2
#     Edge 38, Type (0, 0), BuildingBlock: KIFKEQ_clean_linker_1, # of connection points: 2
#     Edge 39, Type (0, 0), BuildingBlock: KIFKEQ_clean_linker_1, # of connection points: 2
#     Edge 40, Type (0, 0), BuildingBlock: KIFKEQ_clean_linker_1, # of connection points: 2
#     Edge 41, Type (0, 0), BuildingBlock: KIFKEQ_clean_linker_1, # of connection points: 2
#     Edge 42, Type (0, 0), BuildingBlock: KIFKEQ_clean_linker_1, # of connection points: 2
#     Edge 43, Type (0, 0), BuildingBlock: KIFKEQ_clean_linker_1, # of connection points: 2
#     Edge 44, Type (0, 0), BuildingBlock: KIFKEQ_clean_linker_1, # of connection points: 2
#     Edge 45, Type (0, 0), BuildingBlock: KIFKEQ_clean_linker_1, # of connection points: 2
#     Edge 46, Type (0, 0), BuildingBlock: KIFKEQ_clean_linker_1, # of connection points: 2
#     Edge 47, Type (0, 0), BuildingBlock: KIFKEQ_clean_linker_1, # of connection points: 2
#     Edge 48, Type (0, 0), BuildingBlock: KIFKEQ_clean_linker_1, # of connection points: 2
#     Edge 49, Type (0, 0), BuildingBlock: KIFKEQ_clean_linker_1, # of connection points: 2
#     Edge 50, Type (0, 0), BuildingBlock: KIFKEQ_clean_linker_1, # of connection points: 2
#     Edge 51, Type (0, 0), BuildingBlock: KIFKEQ_clean_linker_1, # of connection points: 2
#     Edge 52, Type (0, 0), BuildingBlock: KIFKEQ_clean_linker_1, # of connection points: 2
#     Edge 53, Type (0, 0), BuildingBlock: KIFKEQ_clean_linker_1, # of connection points: 2
#     Edge 54, Type (0, 0), BuildingBlock: KIFKEQ_clean_linker_1, # of connection points: 2
#     Edge 55, Type (0, 0), BuildingBlock: KIFKEQ_clean_linker_1, # of connection points: 2
#     Edge 56, Type (0, 0), BuildingBlock: KIFKEQ_clean_linker_1, # of connection points: 2
#     Edge 57, Type (0, 0), BuildingBlock: KIFKEQ_clean_linker_1, # of connection points: 2
#     Edge 58, Type (0, 0), BuildingBlock: KIFKEQ_clean_linker_1, # of connection points: 2
#     Edge 59, Type (0, 0), BuildingBlock: KIFKEQ_clean_linker_1, # of connection points: 2
#     Edge 60, Type (0, 0), BuildingBlock: KIFKEQ_clean_linker_1, # of connection points: 2
#     Edge 61, Type (0, 0), BuildingBlock: KIFKEQ_clean_linker_1, # of connection points: 2
#     Edge 62, Type (0, 0), BuildingBlock: KIFKEQ_clean_linker_1, # of connection points: 2
#     Edge 63, Type (0, 0), BuildingBlock: KIFKEQ_clean_linker_1, # of connection points: 2
#     Edge 64, Type (0, 0), BuildingBlock: KIFKEQ_clean_linker_1, # of connection points: 2
#     Edge 65, Type (0, 0), BuildingBlock: KIFKEQ_clean_linker_1, # of connection points: 2
#     Edge 66, Type (0, 0), BuildingBlock: KIFKEQ_clean_linker_1, # of connection points: 2
#     Edge 67, Type (0, 0), BuildingBlock: KIFKEQ_clean_linker_1, # of connection points: 2
#     Edge 68, Type (0, 0), BuildingBlock: KIFKEQ_clean_linker_1, # of connection points: 2
#     Edge 69, Type (0, 0), BuildingBlock: KIFKEQ_clean_linker_1, # of connection points: 2
#     Edge 70, Type (0, 0), BuildingBlock: KIFKEQ_clean_linker_1, # of connection points: 2
#     Edge 71, Type (0, 0), BuildingBlock: KIFKEQ_clean_linker_1, # of connection points: 2
# Relax obj value: 0.145
# Max RMSD: 0.214
# Mean RMSD: 0.214
data_MOF--net-vch--node1-NUHQUE_clean_sbu_2--edge1-KIFKEQ_clean_linker_1
_symmetry_space_group_name_H-M    P1
_symmetry_Int_Tables_number       1
_symmetry_cell_setting            triclinic
loop_
_symmetry_equiv_pos_as_xyz
'x, y, z'
_cell_length_a     21.676746
_cell_length_b     52.505057
_cell_length_c     67.421761
_cell_angle_alpha  89.919792
_cell_angle_beta   89.888394
_cell_angle_gamma 90.302802
loop_
_atom_site_label
_atom_site_type_symbol
_atom_site_fract_x
_atom_site_fract_y
_atom_site_fract_z
_atom_type_partial_charge
O0 O 0.16025 0.0941 0.08263 0.0
Tb1 Tb 0.1505 0.097 0.11474 0.0
Eu2 Eu 0.97848 0.08258 0.15088 0.0
C3 C 0.21419 0.08838 0.07478 0.0
O4 O 0.26071 0.08356 0.08663 0.0
C5 C 0.08771 0.0535 0.1385 0.0
O6 O 0.97358 0.08567 0.18437 0.0
C7 C 0.8744 0.06969 0.13429 0.0
C8 C 0.95529 0.10673 0.19313 0.0
O9 O 0.93751 0.12596 0.18208 0.0
C10 C 0.04742 0.13791 0.13088 0.0
C11 C 0.82153 0.07945 0.12243 0.0
C12 C 0.82486 0.0811 0.10149 0.0
C13 C 0.77327 0.0888 0.09034 0.0
C14 C 0.71834 0.09467 0.10027 0.0
C15 C 0.71334 0.09258 0.12093 0.0
C16 C 0.765 0.08487 0.13194 0.0
O17 O 0.07988 0.07362 0.12739 0.0
O18 O 0.04484 0.04994 0.15166 0.0
O19 O 0.23022 0.07707 0.12702 0.0
O20 O 0.22903 0.11738 0.1279 0.0
C21 C 0.26105 0.09723 0.13226 0.0
O22 O 0.00893 0.12241 0.14071 0.0
O23 O 0.09823 0.13161 0.12084 0.0
O24 O 0.87891 0.07714 0.15287 0.0
O25 O 0.92833 0.06746 0.12546 0.0
H26 H 0.86713 0.07618 0.09383 0.0
H27 H 0.6778 0.09955 0.0917 0.0
H28 H 0.76083 0.08277 0.14789 0.0
O29 O 0.37718 0.90511 0.07012 0.0
Tb30 Tb 0.3848 0.90384 0.10213 0.0
Eu31 Eu 0.55458 0.89777 0.1445 0.0
C32 C 0.34707 0.88701 0.06071 0.0
O33 O 0.32711 0.86709 0.07069 0.0
C34 C 0.45662 0.93777 0.13177 0.0
O35 O 0.53594 0.87963 0.17424 0.0
C36 C 0.67071 0.90832 0.13977 0.0
C37 C 0.57385 0.86283 0.18195 0.0
O38 O 0.62046 0.85459 0.17132 0.0
C39 C 0.47063 0.86204 0.11742 0.0
C40 C 0.7183 0.91442 0.12502 0.0
C41 C 0.70771 0.91126 0.10458 0.0
C42 C 0.75647 0.91468 0.09109 0.0
C43 C 0.81476 0.92195 0.09811 0.0
C44 C 0.82573 0.92538 0.11841 0.0
C45 C 0.77707 0.92153 0.13183 0.0
O46 O 0.46174 0.92405 0.11562 0.0
O47 O 0.49419 0.93283 0.14657 0.0
O48 O 0.31101 0.93061 0.10885 0.0
O49 O 0.30208 0.89221 0.11848 0.0
C50 C 0.27577 0.91441 0.11815 0.0
O51 O 0.50974 0.88122 0.11722 0.0
O52 O 0.41603 0.86543 0.10926 0.0
O53 O 0.64823 0.88505 0.13931 0.0
O54 O 0.62903 0.92579 0.14345 0.0
H55 H 0.6627 0.90524 0.09934 0.0
H56 H 0.85244 0.92415 0.08763 0.0
H57 H 0.78513 0.9236 0.14762 0.0
O58 O 0.68566 0.87506 0.4371 0.0
Tb59 Tb 0.67151 0.87745 0.4053 0.0
Eu60 Eu 0.50032 0.87796 0.36953 0.0
C61 C 0.74176 0.87249 0.44423 0.0
O62 O 0.78855 0.87126 0.43186 0.0
C63 C 0.60002 0.91631 0.38027 0.0
O64 O 0.51638 0.86103 0.33939 0.0
C65 C 0.38508 0.88944 0.37381 0.0
C66 C 0.56917 0.86318 0.32993 0.0
O67 O 0.61635 0.874 0.33883 0.0
C68 C 0.57574 0.83627 0.39334 0.0
C69 C 0.33281 0.88545 0.38728 0.0
C70 C 0.34098 0.88137 0.40774 0.0
C71 C 0.28947 0.87712 0.42007 0.0
C72 C 0.23032 0.87681 0.41159 0.0
C73 C 0.22209 0.88088 0.39125 0.0
C74 C 0.27342 0.88539 0.37917 0.0
O75 O 0.59575 0.90073 0.39544 0.0
O76 O 0.56014 0.91285 0.36596 0.0
O77 O 0.75045 0.90158 0.39762 0.0
O78 O 0.74246 0.8649 0.3846 0.0
C79 C 0.77579 0.88551 0.38547 0.0
O80 O 0.53634 0.85506 0.39544 0.0
O81 O 0.63387 0.83995 0.3984 0.0
O82 O 0.40385 0.86926 0.36409 0.0
O83 O 0.43028 0.90416 0.38004 0.0
H84 H 0.38705 0.88141 0.41396 0.0
H85 H 0.18998 0.87433 0.42095 0.0
H86 H 0.26716 0.88854 0.3634 0.0
O87 O 0.81945 0.12911 0.41856 0.0
Tb88 Tb 0.8047 0.13032 0.38672 0.0
Eu89 Eu 0.96511 0.11463 0.3882 0.0
C90 C 0.79 0.14592 0.42946 0.0
O91 O 0.75968 0.16415 0.4204 0.0
C92 C 0.85459 0.07772 0.3804 0.0
O93 O 0.96155 0.11001 0.35481 0.0
C94 C 0.07199 0.10283 0.40322 0.0
C95 C 0.9796 0.12818 0.34261 0.0
O96 O 1.00096 0.14961 0.35001 0.0
C97 C 0.90892 0.17194 0.38552 0.0
C98 C 0.12779 0.11335 0.41329 0.0
C99 C 0.13152 0.11366 0.43422 0.0
C100 C 0.1858 0.12175 0.44384 0.0
C101 C 0.23645 0.12955 0.43236 0.0
C102 C 0.23474 0.1286 0.41159 0.0
C103 C 0.18031 0.12047 0.40211 0.0
O104 O 0.83291 0.09699 0.37022 0.0
O105 O 0.89866 0.08198 0.39332 0.0
O106 O 0.71249 0.11474 0.39166 0.0
O107 O 0.72095 0.14945 0.37584 0.0
C108 C 0.68216 0.13253 0.38266 0.0
O109 O 0.9472 0.15627 0.39457 0.0
O110 O 0.8556 0.16444 0.37804 0.0
O111 O 0.06376 0.10824 0.38434 0.0
O112 O 0.02004 0.10204 0.41335 0.0
H113 H 0.09267 0.10722 0.44308 0.0
H114 H 0.27917 0.13475 0.43969 0.0
H115 H 0.17948 0.11919 0.38607 0.0
O116 O 0.84881 0.89907 0.93573 0.0
Tb117 Tb 0.87059 0.90227 0.90443 0.0
Eu118 Eu 0.04392 0.90327 0.86831 0.0
C119 C 0.82389 0.91835 0.9452 0.0
O120 O 0.81629 0.94004 0.93581 0.0
C121 C 0.94776 0.94164 0.88153 0.0
O122 O 0.01524 0.89089 0.83777 0.0
C123 C 0.16149 0.91177 0.87016 0.0
C124 C 0.02881 0.86836 0.83052 0.0
O125 O 0.05646 0.85158 0.84187 0.0
C126 C 0.96647 0.8619 0.89207 0.0
C127 C 0.21661 0.90815 0.8824 0.0
C128 C 0.21357 0.90628 0.90325 0.0
C129 C 0.2682 0.90377 0.91432 0.0
C130 C 0.3248 0.90205 0.90431 0.0
C131 C 0.32799 0.904 0.88366 0.0
C132 C 0.27393 0.90728 0.87274 0.0
O133 O 0.94994 0.92473 0.89579 0.0
O134 O 0.98778 0.93921 0.8671 0.0
O135 O 0.79292 0.92621 0.89575 0.0
O136 O 0.80359 0.89 0.88225 0.0
C137 C 0.76987 0.91037 0.88291 0.0
O138 O 0.00593 0.8808 0.89427 0.0
O139 O 0.90859 0.86501 0.89763 0.0
O140 O 0.13768 0.89122 0.86202 0.0
O141 O 0.12009 0.92813 0.87646 0.0
H142 H 0.16945 0.90753 0.91077 0.0
H143 H 0.36711 0.89981 0.91269 0.0
H144 H 0.27649 0.90911 0.85673 0.0
O145 O 0.64512 0.0899 0.93496 0.0
Tb146 Tb 0.63485 0.0938 0.90283 0.0
Eu147 Eu 0.4662 0.08466 0.86446 0.0
C148 C 0.69744 0.08144 0.94242 0.0
O149 O 0.74115 0.07415 0.93021 0.0
C150 C 0.57174 0.05325 0.87656 0.0
O151 O 0.45741 0.09103 0.83133 0.0
C152 C 0.36213 0.07163 0.88115 0.0
C153 C 0.50459 0.09996 0.82108 0.0
O154 O 0.55613 0.10519 0.8305 0.0
C155 C 0.53839 0.13743 0.88687 0.0
C156 C 0.30987 0.08114 0.89341 0.0
C157 C 0.31573 0.08413 0.91415 0.0
C158 C 0.26479 0.09141 0.92579 0.0
C159 C 0.20797 0.09568 0.91651 0.0
C160 C 0.20063 0.09245 0.89601 0.0
C161 C 0.2517 0.08503 0.88454 0.0
O162 O 0.56331 0.07192 0.88907 0.0
O163 O 0.53135 0.05182 0.86243 0.0
O164 O 0.71471 0.07365 0.89071 0.0
O165 O 0.7139 0.11395 0.88967 0.0
C166 C 0.74592 0.09375 0.88546 0.0
O167 O 0.50008 0.12326 0.87593 0.0
O168 O 0.58615 0.12961 0.89772 0.0
O169 O 0.36636 0.07982 0.86275 0.0
O170 O 0.41619 0.06883 0.88972 0.0
H171 H 0.35953 0.08054 0.92132 0.0
H172 H 0.16802 0.10026 0.9255 0.0
H173 H 0.24593 0.08203 0.86874 0.0
O174 O 0.32961 0.12232 0.59792 0.0
Tb175 Tb 0.32494 0.13076 0.6295 0.0
Eu176 Eu 0.48299 0.11242 0.62645 0.0
C177 C 0.28503 0.1083 0.59026 0.0
O178 O 0.24511 0.09757 0.60241 0.0
C179 C 0.36882 0.07561 0.63091 0.0
O180 O 0.47138 0.10924 0.65981 0.0
C181 C 0.59467 0.10091 0.61519 0.0
C182 C 0.49486 0.12647 0.67184 0.0
O183 O 0.52394 0.14619 0.66418 0.0
C184 C 0.4331 0.16912 0.6284 0.0
C185 C 0.6517 0.11192 0.60609 0.0
C186 C 0.65708 0.11454 0.58527 0.0
C187 C 0.71265 0.123 0.57656 0.0
C188 C 0.76212 0.12969 0.58888 0.0
C189 C 0.75842 0.12683 0.60948 0.0
C190 C 0.70344 0.11766 0.61807 0.0
O191 O 0.34563 0.09376 0.64195 0.0
O192 O 0.41651 0.08035 0.61936 0.0
O193 O 0.24021 0.12677 0.64729 0.0
O194 O 0.2391 0.15018 0.62176 0.0
C195 C 0.20577 0.14114 0.6362 0.0
O196 O 0.46434 0.15304 0.61734 0.0
O197 O 0.38555 0.16145 0.63907 0.0
O198 O 0.5807 0.10778 0.63339 0.0
O199 O 0.54578 0.09819 0.60384 0.0
H200 H 0.61894 0.10914 0.57578 0.0
H201 H 0.80484 0.13659 0.58235 0.0
H202 H 0.70123 0.11485 0.63398 0.0
O203 O 0.20215 0.87115 0.57694 0.0
Tb204 Tb 0.17924 0.87685 0.60795 0.0
Eu205 Eu 1.00149 0.88305 0.6407 0.0
C206 C 0.22841 0.88964 0.56675 0.0
O207 O 0.23845 0.91165 0.57541 0.0
C208 C 0.10197 0.9193 0.62709 0.0
O209 O 0.02742 0.87478 0.67232 0.0
C210 C 0.88508 0.89223 0.63697 0.0
C211 C 0.00869 0.85436 0.68194 0.0
O212 O 0.9774 0.83667 0.67248 0.0
C213 C 0.0776 0.83827 0.62121 0.0
C214 C 0.8319 0.88634 0.6244 0.0
C215 C 0.83823 0.88096 0.60406 0.0
C216 C 0.78575 0.87542 0.59254 0.0
C217 C 0.7275 0.87513 0.60172 0.0
C218 C 0.72111 0.88058 0.62196 0.0
C219 C 0.77342 0.88628 0.6332 0.0
O220 O 0.10118 0.90082 0.61406 0.0
O221 O 0.05835 0.91889 0.64048 0.0
O222 O 0.2544 0.90209 0.61707 0.0
O223 O 0.24689 0.86533 0.63003 0.0
C224 C 0.2787 0.88637 0.62971 0.0
O225 O 0.03898 0.85676 0.61701 0.0
O226 O 0.13694 0.84104 0.61724 0.0
O227 O 0.90644 0.87332 0.64772 0.0
O228 O 0.92831 0.90696 0.62933 0.0
H229 H 0.88361 0.88108 0.59728 0.0
H230 H 0.68645 0.87169 0.59294 0.0
H231 H 0.76862 0.89055 0.64887 0.0
O232 O 0.6908 0.63495 0.10188 0.0
Tb233 Tb 0.70256 0.64055 0.13362 0.0
Eu234 Eu 0.54566 0.62287 0.12888 0.0
C235 C 0.72428 0.61793 0.09245 0.0
O236 O 0.75816 0.60204 0.10276 0.0
C237 C 0.65704 0.58512 0.13388 0.0
O238 O 0.55215 0.61943 0.16232 0.0
C239 C 0.43516 0.61178 0.11596 0.0
C240 C 0.52644 0.63654 0.17392 0.0
O241 O 0.49838 0.65601 0.16573 0.0
C242 C 0.59699 0.67955 0.13307 0.0
C243 C 0.37801 0.6226 0.10699 0.0
C244 C 0.37209 0.62451 0.08614 0.0
C245 C 0.31628 0.6324 0.07746 0.0
C246 C 0.2671 0.63926 0.08983 0.0
C247 C 0.2712 0.6371 0.11047 0.0
C248 C 0.32645 0.62848 0.11904 0.0
O249 O 0.68262 0.6027 0.14502 0.0
O250 O 0.61152 0.59086 0.12183 0.0
O251 O 0.78988 0.65693 0.1232 0.0
O252 O 0.7883 0.63842 0.15105 0.0
C253 C 0.82336 0.65011 0.13821 0.0
O254 O 0.56687 0.66382 0.1213 0.0
O255 O 0.64459 0.67176 0.14356 0.0
O256 O 0.44729 0.61706 0.13461 0.0
O257 O 0.4851 0.61072 0.10488 0.0
H258 H 0.40997 0.61892 0.07662 0.0
H259 H 0.22422 0.64571 0.0833 0.0
H260 H 0.32894 0.62617 0.135 0.0
O261 O 0.82561 0.37151 0.09777 0.0
Tb262 Tb 0.82146 0.3637 0.12942 0.0
Eu263 Eu 0.99221 0.38135 0.13172 0.0
C264 C 0.78227 0.38574 0.08985 0.0
O265 O 0.74234 0.3968 0.10168 0.0
C266 C 0.87518 0.41618 0.13602 0.0
O267 O 0.99727 0.38191 0.16556 0.0
C268 C 0.09886 0.39317 0.11601 0.0
C269 C 0.95466 0.37128 0.17691 0.0
O270 O 0.9073 0.36016 0.16849 0.0
C271 C 0.93116 0.32446 0.13078 0.0
C272 C 0.15548 0.38254 0.10663 0.0
C273 C 0.1636 0.38415 0.08582 0.0
C274 C 0.21934 0.37655 0.07689 0.0
C275 C 0.26601 0.36655 0.08892 0.0
C276 C 0.25987 0.36524 0.10958 0.0
C277 C 0.20454 0.3734 0.11841 0.0
O278 O 0.85296 0.39669 0.14587 0.0
O279 O 0.92628 0.41359 0.12581 0.0
O280 O 0.73423 0.37755 0.14168 0.0
O281 O 0.73784 0.33984 0.13094 0.0
C282 C 0.70236 0.35691 0.13889 0.0
O283 O 0.97056 0.34078 0.12279 0.0
O284 O 0.87722 0.33119 0.13821 0.0
O285 O 0.09036 0.38946 0.1351 0.0
O286 O 0.04721 0.39223 0.10587 0.0
H287 H 0.12757 0.39224 0.07669 0.0
H288 H 0.30886 0.36053 0.08212 0.0
H289 H 0.20023 0.37294 0.13442 0.0
O290 O 0.14993 0.39385 0.44043 0.0
Tb291 Tb 0.13637 0.39786 0.40866 0.0
Eu292 Eu 0.96312 0.39838 0.36999 0.0
C293 C 0.20657 0.39173 0.44724 0.0
O294 O 0.25264 0.39153 0.43456 0.0
C295 C 0.06108 0.43644 0.38443 0.0
O296 O 0.9821 0.39076 0.33745 0.0
C297 C 0.84851 0.40904 0.37702 0.0
C298 C 0.95639 0.37203 0.32742 0.0
O299 O 0.92079 0.35563 0.33679 0.0
C300 C 0.04632 0.35656 0.39233 0.0
C301 C 0.79787 0.40876 0.39161 0.0
C302 C 0.8067 0.40325 0.41193 0.0
C303 C 0.75578 0.4034 0.42504 0.0
C304 C 0.69736 0.40977 0.41766 0.0
C305 C 0.68848 0.41573 0.39762 0.0
C306 C 0.73889 0.41491 0.38465 0.0
O307 O 0.05781 0.41948 0.39869 0.0
O308 O 0.02186 0.43398 0.36982 0.0
O309 O 0.21448 0.38903 0.3894 0.0
O310 O 0.20904 0.42574 0.40246 0.0
C311 C 0.24128 0.41117 0.39088 0.0
O312 O 0.00483 0.37457 0.39469 0.0
O313 O 0.10281 0.36058 0.39908 0.0
O314 O 0.86621 0.3871 0.36956 0.0
O315 O 0.89391 0.42526 0.37996 0.0
H316 H 0.85226 0.39859 0.41738 0.0
H317 H 0.65819 0.41001 0.42769 0.0
H318 H 0.73246 0.4195 0.3691 0.0
O319 O 0.33626 0.60733 0.43393 0.0
Tb320 Tb 0.34543 0.60903 0.40175 0.0
Eu321 Eu 0.51696 0.59625 0.36675 0.0
C322 C 0.28099 0.60491 0.44193 0.0
O323 O 0.23288 0.60307 0.43021 0.0
C324 C 0.40831 0.5658 0.37818 0.0
O325 O 0.53409 0.60274 0.33398 0.0
C326 C 0.61572 0.58318 0.38619 0.0
C327 C 0.48868 0.61075 0.32266 0.0
O328 O 0.43473 0.61502 0.3309 0.0
C329 C 0.44477 0.65149 0.38438 0.0
C330 C 0.67161 0.59184 0.39718 0.0
C331 C 0.66936 0.59646 0.41785 0.0
C332 C 0.72381 0.60159 0.4286 0.0
C333 C 0.78042 0.60155 0.41853 0.0
C334 C 0.78382 0.59656 0.3982 0.0
C335 C 0.72945 0.59208 0.38748 0.0
O336 O 0.41627 0.58531 0.38997 0.0
O337 O 0.45045 0.5635 0.36464 0.0
O338 O 0.26831 0.58642 0.39033 0.0
O339 O 0.26374 0.62662 0.38841 0.0
C340 C 0.23463 0.60544 0.38462 0.0
O341 O 0.48529 0.63632 0.37532 0.0
O342 O 0.39395 0.64453 0.39429 0.0
O343 O 0.61447 0.58647 0.36685 0.0
O344 O 0.5613 0.58583 0.39461 0.0
H345 H 0.62566 0.59565 0.42566 0.0
H346 H 0.82289 0.60448 0.42673 0.0
H347 H 0.73265 0.58752 0.37184 0.0
O348 O 0.32792 0.37526 0.9191 0.0
Tb349 Tb 0.3189 0.36275 0.8885 0.0
Eu350 Eu 0.47956 0.38136 0.88895 0.0
C351 C 0.33542 0.35849 0.9334 0.0
O352 O 0.34646 0.33466 0.92875 0.0
C353 C 0.36426 0.41721 0.88348 0.0
O354 O 0.47096 0.38394 0.85556 0.0
C355 C 0.58943 0.39436 0.90111 0.0
C356 C 0.49752 0.36719 0.84385 0.0
O357 O 0.52768 0.34814 0.85186 0.0
C358 C 0.42709 0.32423 0.88905 0.0
C359 C 0.64468 0.38418 0.91154 0.0
C360 C 0.64724 0.38388 0.93248 0.0
C361 C 0.70036 0.37542 0.94241 0.0
C362 C 0.75099 0.36713 0.93127 0.0
C363 C 0.75038 0.36799 0.9105 0.0
C364 C 0.69733 0.37669 0.90066 0.0
O365 O 0.33932 0.39828 0.87366 0.0
O366 O 0.41284 0.41341 0.89475 0.0
O367 O 0.2329 0.34543 0.89907 0.0
O368 O 0.23281 0.36442 0.87136 0.0
C369 C 0.19877 0.3522 0.88417 0.0
O370 O 0.46173 0.34079 0.89866 0.0
O371 O 0.37665 0.33112 0.87965 0.0
O372 O 0.57813 0.38606 0.88309 0.0
O373 O 0.53894 0.39767 0.91164 0.0
H374 H 0.60824 0.39043 0.94112 0.0
H375 H 0.79275 0.36128 0.93882 0.0
H376 H 0.69738 0.3778 0.88461 0.0
O377 O 0.19557 0.63667 0.92046 0.0
Tb378 Tb 0.20308 0.63857 0.88832 0.0
Eu379 Eu 0.03881 0.62343 0.8904 0.0
C380 C 0.22756 0.65325 0.93093 0.0
O381 O 0.25657 0.67168 0.9215 0.0
C382 C 0.1479 0.58644 0.88288 0.0
O383 O 0.04248 0.62069 0.85687 0.0
C384 C 0.92999 0.61265 0.90468 0.0
C385 C 0.01955 0.63856 0.84536 0.0
O386 O 0.99467 0.65873 0.85359 0.0
C387 C 0.09921 0.67889 0.88772 0.0
C388 C 0.87427 0.6232 0.9146 0.0
C389 C 0.8702 0.62432 0.93552 0.0
C390 C 0.8148 0.63148 0.94498 0.0
C391 C 0.76375 0.63764 0.93315 0.0
C392 C 0.76681 0.63691 0.91239 0.0
C393 C 0.82203 0.62948 0.9032 0.0
O394 O 0.16958 0.60557 0.87245 0.0
O395 O 0.10221 0.59032 0.89527 0.0
O396 O 0.29381 0.62106 0.88632 0.0
O397 O 0.2857 0.66009 0.87896 0.0
C398 C 0.32387 0.64113 0.88053 0.0
O399 O 0.06535 0.66354 0.89881 0.0
O400 O 0.1486 0.67076 0.87827 0.0
O401 O 0.93988 0.61877 0.88601 0.0
O402 O 0.98112 0.61077 0.91505 0.0
H403 H 0.90977 0.61921 0.94443 0.0
H404 H 0.71985 0.64177 0.94011 0.0
H405 H 0.82381 0.62812 0.88717 0.0
O406 O 0.85262 0.60687 0.5838 0.0
Tb407 Tb 0.86576 0.60791 0.61593 0.0
Eu408 Eu 0.03592 0.59991 0.65246 0.0
C409 C 0.79595 0.60638 0.57667 0.0
O410 O 0.74947 0.60656 0.58918 0.0
C411 C 0.9317 0.56697 0.64042 0.0
O412 O 0.04539 0.60618 0.68555 0.0
C413 C 0.13889 0.58582 0.63598 0.0
C414 C 0.99908 0.61534 0.69596 0.0
O415 O 0.9476 0.621 0.68673 0.0
C416 C 0.962 0.65244 0.63112 0.0
C417 C 0.19244 0.59349 0.62352 0.0
C418 C 0.18616 0.59812 0.60297 0.0
C419 C 0.23859 0.60254 0.59104 0.0
C420 C 0.29716 0.6019 0.59979 0.0
C421 C 0.30441 0.59688 0.62005 0.0
C422 C 0.25194 0.59311 0.63193 0.0
O423 O 0.93931 0.58528 0.62744 0.0
O424 O 0.9711 0.5668 0.65487 0.0
O425 O 0.78889 0.58412 0.62613 0.0
O426 O 0.78618 0.62376 0.63176 0.0
C427 C 0.75655 0.6023 0.63393 0.0
O428 O 1.00397 0.63847 0.6406 0.0
O429 O 0.91012 0.64452 0.62241 0.0
O430 O 0.13562 0.59499 0.6541 0.0
O431 O 0.08467 0.58322 0.62745 0.0
H432 H 0.1409 0.59795 0.59618 0.0
H433 H 0.33791 0.60447 0.59062 0.0
H434 H 0.25765 0.58861 0.64752 0.0
O435 O 0.64816 0.4004 0.58099 0.0
Tb436 Tb 0.63636 0.40166 0.61319 0.0
Eu437 Eu 0.47217 0.40936 0.65171 0.0
C438 C 0.7033 0.39583 0.57348 0.0
O439 O 0.74929 0.39156 0.58567 0.0
C440 C 0.57573 0.44273 0.63833 0.0
O441 O 0.46606 0.40209 0.68474 0.0
C442 C 0.36589 0.42294 0.63732 0.0
C443 C 0.51462 0.3948 0.69493 0.0
O444 O 0.56721 0.39157 0.68555 0.0
C445 C 0.54148 0.35691 0.62874 0.0
C446 C 0.31199 0.41321 0.62598 0.0
C447 C 0.31745 0.4064 0.60581 0.0
C448 C 0.26535 0.39863 0.59492 0.0
C449 C 0.20788 0.39742 0.60446 0.0
C450 C 0.20117 0.40427 0.62441 0.0
C451 C 0.2533 0.41242 0.63509 0.0
O452 O 0.56529 0.42579 0.62452 0.0
O453 O 0.53867 0.44199 0.65349 0.0
O454 O 0.71943 0.42437 0.61897 0.0
O455 O 0.71146 0.38775 0.63202 0.0
C456 C 0.74677 0.40777 0.6302 0.0
O457 O 0.50179 0.37094 0.63914 0.0
O458 O 0.59214 0.36487 0.61924 0.0
O459 O 0.373 0.41434 0.65548 0.0
O460 O 0.41849 0.42604 0.62779 0.0
H461 H 0.36192 0.4074 0.59848 0.0
H462 H 0.1671 0.39235 0.59602 0.0
H463 H 0.2481 0.41824 0.65042 0.0
H464 H 0.65164 0.06148 0.14706 0.0
H465 H 0.63565 0.13243 0.11518 0.0
H466 H 0.54241 0.06375 0.15614 0.0
H467 H 0.52677 0.13435 0.12349 0.0
H468 H 0.33284 0.138 0.14245 0.0
H469 H 0.44485 0.13874 0.1464 0.0
H470 H 0.44939 0.05716 0.13786 0.0
H471 H 0.33757 0.05646 0.13472 0.0
C472 C 0.62516 0.07789 0.14244 0.0
C473 C 0.65196 0.09665 0.13025 0.0
C474 C 0.56238 0.07905 0.14742 0.0
C475 C 0.52525 0.09904 0.14032 0.0
C476 C 0.55358 0.11875 0.1294 0.0
C477 C 0.61608 0.11759 0.12448 0.0
C478 C 0.35781 0.1202 0.14191 0.0
C479 C 0.3267 0.09723 0.13809 0.0
C480 C 0.42205 0.12061 0.14403 0.0
C481 C 0.45658 0.09808 0.14215 0.0
C482 C 0.42465 0.07488 0.1396 0.0
C483 C 0.3604 0.07447 0.13767 0.0
H484 H 0.21689 0.95975 0.11769 0.0
H485 H 0.19186 0.88073 0.13313 0.0
H486 H 0.10888 0.96801 0.12508 0.0
H487 H 0.08263 0.88813 0.13886 0.0
H488 H 0.8875 0.90337 0.14941 0.0
H489 H 0.99815 0.90527 0.15571 0.0
H490 H 0.01907 0.95963 0.10784 0.0
H491 H 0.90869 0.95897 0.10261 0.0
C492 C 0.18835 0.94429 0.12306 0.0
C493 C 0.21255 0.91971 0.12491 0.0
C494 C 0.12616 0.94886 0.12701 0.0
C495 C 0.08632 0.92868 0.13226 0.0
C496 C 0.11165 0.90428 0.13512 0.0
C497 C 0.17426 0.8999 0.13162 0.0
C498 C 0.91557 0.91642 0.14076 0.0
C499 C 0.88961 0.93063 0.12523 0.0
C500 C 0.9792 0.91725 0.14417 0.0
C501 C 0.01812 0.93211 0.13199 0.0
C502 C 0.99107 0.94799 0.11763 0.0
C503 C 0.9276 0.94739 0.11442 0.0
H504 H 0.83878 0.85038 0.3641 0.0
H505 H 0.85457 0.92568 0.38935 0.0
H506 H 0.94997 0.84981 0.35827 0.0
H507 H 0.96581 0.92503 0.3837 0.0
H508 H 0.16737 0.91848 0.3697 0.0
H509 H 0.05788 0.92123 0.36074 0.0
H510 H 0.02689 0.84643 0.38577 0.0
H511 H 0.13553 0.84382 0.39465 0.0
C512 C 0.86584 0.86708 0.36788 0.0
C513 C 0.83868 0.88785 0.37754 0.0
C514 C 0.92937 0.86673 0.36458 0.0
C515 C 0.9665 0.88718 0.37083 0.0
C516 C 0.93828 0.90903 0.37866 0.0
C517 C 0.87471 0.90935 0.38202 0.0
C518 C 0.13715 0.90245 0.37278 0.0
C519 C 0.15923 0.88102 0.38297 0.0
C520 C 0.07475 0.90405 0.36774 0.0
C521 C 0.03402 0.88405 0.37255 0.0
C522 C 0.05729 0.86199 0.38162 0.0
C523 C 0.11925 0.86055 0.38687 0.0
H524 H 0.60268 0.09381 0.38997 0.0
H525 H 0.60838 0.1731 0.37309 0.0
H526 H 0.4906 0.09523 0.3915 0.0
H527 H 0.49513 0.17465 0.37473 0.0
H528 H 0.31347 0.16913 0.41497 0.0
H529 H 0.41989 0.17165 0.40314 0.0
H530 H 0.39487 0.10076 0.3717 0.0
H531 H 0.28848 0.09815 0.38375 0.0
C532 C 0.57976 0.11149 0.38632 0.0
C533 C 0.61414 0.13338 0.38151 0.0
C534 C 0.51544 0.11226 0.38703 0.0
C535 C 0.48384 0.13503 0.38317 0.0
C536 C 0.5182 0.15684 0.37782 0.0
C537 C 0.58286 0.15595 0.37683 0.0
C538 C 0.33028 0.15446 0.40508 0.0
C539 C 0.29288 0.13334 0.40041 0.0
C540 C 0.39116 0.15595 0.39823 0.0
C541 C 0.41608 0.13624 0.38669 0.0
C542 C 0.37716 0.1161 0.38077 0.0
C543 C 0.31607 0.11472 0.3875 0.0
H544 H 0.41133 0.86593 0.88398 0.0
H545 H 0.38225 0.94245 0.8628 0.0
H546 H 0.5204 0.86927 0.87563 0.0
H547 H 0.49218 0.94603 0.85437 0.0
H548 H 0.71239 0.87618 0.85894 0.0
H549 H 0.60284 0.8753 0.85058 0.0
H550 H 0.57993 0.94877 0.87835 0.0
H551 H 0.68942 0.94969 0.88652 0.0
C552 C 0.42822 0.88314 0.87688 0.0
C553 C 0.38901 0.90394 0.87404 0.0
C554 C 0.49053 0.88507 0.87199 0.0
C555 C 0.5149 0.90799 0.86441 0.0
C556 C 0.47461 0.9282 0.86026 0.0
C557 C 0.41188 0.92613 0.86495 0.0
C558 C 0.68422 0.89246 0.86271 0.0
C559 C 0.70877 0.91277 0.87371 0.0
C560 C 0.6216 0.89194 0.85794 0.0
C561 C 0.58268 0.91174 0.8641 0.0
C562 C 0.60874 0.93326 0.87333 0.0
C563 C 0.67138 0.93374 0.87813 0.0
H564 H 0.12018 0.13133 0.90188 0.0
H565 H 0.13875 0.05967 0.87127 0.0
H566 H 0.01088 0.132 0.89417 0.0
H567 H 0.02896 0.06067 0.86279 0.0
H568 H 0.81738 0.13441 0.87473 0.0
H569 H 0.92946 0.13545 0.87109 0.0
H570 H 0.93543 0.05414 0.88111 0.0
H571 H 0.82339 0.05313 0.88397 0.0
C572 C 0.10102 0.116 0.89304 0.0
C573 C 0.13791 0.09532 0.88738 0.0
C574 C 0.03826 0.11646 0.88844 0.0
C575 C 0.01057 0.09626 0.87797 0.0
C576 C 0.04844 0.07636 0.87114 0.0
C577 C 0.11152 0.07591 0.87577 0.0
C578 C 0.84267 0.11671 0.87568 0.0
C579 C 0.81184 0.09375 0.87982 0.0
C580 C 0.90697 0.1173 0.87375 0.0
C581 C 0.94192 0.09496 0.87613 0.0
C582 C 0.91035 0.07172 0.87901 0.0
C583 C 0.846 0.07113 0.88077 0.0
H584 H 0.82836 0.09274 0.62987 0.0
H585 H 0.81756 0.17212 0.61408 0.0
H586 H 0.93531 0.09884 0.64043 0.0
H587 H 0.92349 0.17869 0.62528 0.0
H588 H 0.13074 0.16847 0.61217 0.0
H589 H 0.01882 0.16726 0.61066 0.0
H590 H 0.01419 0.11681 0.66137 0.0
H591 H 0.12721 0.11762 0.66247 0.0
C592 C 0.84817 0.11172 0.62948 0.0
C593 C 0.81488 0.13197 0.62122 0.0
C594 C 0.90956 0.11527 0.63548 0.0
C595 C 0.93871 0.1392 0.63338 0.0
C596 C 0.90324 0.15987 0.62667 0.0
C597 C 0.84226 0.15624 0.6205 0.0
C598 C 0.10583 0.15747 0.62321 0.0
C599 C 0.13774 0.14313 0.63741 0.0
C600 C 0.0414 0.15687 0.62245 0.0
C601 C 0.00699 0.14194 0.63592 0.0
C602 C 0.03904 0.12831 0.65064 0.0
C603 C 0.10376 0.12892 0.65138 0.0
H604 H 0.33997 0.85219 0.6525 0.0
H605 H 0.35669 0.92683 0.62597 0.0
H606 H 0.45097 0.85169 0.65848 0.0
H607 H 0.46772 0.92622 0.6317 0.0
H608 H 0.66942 0.91909 0.64329 0.0
H609 H 0.56119 0.92255 0.65359 0.0
H610 H 0.52595 0.84704 0.63066 0.0
H611 H 0.63343 0.84369 0.62051 0.0
C612 C 0.36716 0.86881 0.64852 0.0
C613 C 0.34042 0.88928 0.63835 0.0
C614 C 0.43059 0.8685 0.65191 0.0
C615 C 0.468 0.88866 0.64517 0.0
C616 C 0.44003 0.91041 0.63707 0.0
C617 C 0.37654 0.91071 0.63367 0.0
C618 C 0.63862 0.90306 0.64097 0.0
C619 C 0.65912 0.88122 0.63097 0.0
C620 C 0.57691 0.90506 0.64679 0.0
C621 C 0.53526 0.88508 0.64294 0.0
C622 C 0.55709 0.86262 0.6341 0.0
C623 C 0.61837 0.86076 0.62809 0.0
H624 H 0.89785 0.67471 0.11206 0.0
H625 H 0.90289 0.62923 0.16536 0.0
H626 H 0.00977 0.67395 0.1102 0.0
H627 H 0.01602 0.62872 0.16376 0.0
H628 H 0.20269 0.60361 0.13245 0.0
H629 H 0.09552 0.60934 0.14305 0.0
H630 H 0.10443 0.68815 0.12467 0.0
H631 H 0.2106 0.68201 0.11361 0.0
C632 C 0.92309 0.66494 0.12362 0.0
C633 C 0.89158 0.65205 0.13885 0.0
C634 C 0.98749 0.66462 0.12265 0.0
C635 C 0.02235 0.65134 0.13688 0.0
C636 C 0.99076 0.63899 0.15247 0.0
C637 C 0.92601 0.63942 0.15348 0.0
C638 C 0.18224 0.62235 0.13138 0.0
C639 C 0.2148 0.64238 0.12226 0.0
C640 C 0.12073 0.62566 0.13738 0.0
C641 C 0.09072 0.6491 0.13437 0.0
C642 C 0.12543 0.66967 0.1268 0.0
C643 C 0.18653 0.6663 0.12069 0.0
H644 H 0.3363 0.32493 0.10329 0.0
H645 H 0.30885 0.38903 0.14222 0.0
H646 H 0.44076 0.32036 0.11529 0.0
H647 H 0.41256 0.3834 0.15551 0.0
H648 H 0.62171 0.3954 0.14517 0.0
H649 H 0.50995 0.39353 0.14373 0.0
H650 H 0.51811 0.31159 0.13744 0.0
H651 H 0.63067 0.31395 0.13764 0.0
C652 C 0.35207 0.33755 0.11495 0.0
C653 C 0.31481 0.35774 0.12143 0.0
C654 C 0.41215 0.3348 0.12203 0.0
C655 C 0.43634 0.3519 0.13611 0.0
C656 C 0.39647 0.37036 0.1442 0.0
C657 C 0.33646 0.37334 0.13685 0.0
C658 C 0.5995 0.37695 0.14376 0.0
C659 C 0.63476 0.35486 0.14125 0.0
C660 C 0.53509 0.37579 0.14311 0.0
C661 C 0.50419 0.3524 0.14027 0.0
C662 C 0.53989 0.33005 0.13914 0.0
C663 C 0.60446 0.33132 0.1394 0.0
H664 H 0.63081 0.39883 0.36393 0.0
H665 H 0.60445 0.44691 0.41512 0.0
H666 H 0.5221 0.40363 0.35537 0.0
H667 H 0.4958 0.45053 0.40737 0.0
H668 H 0.30208 0.45657 0.39297 0.0
H669 H 0.41218 0.46385 0.38783 0.0
H670 H 0.43248 0.38535 0.36958 0.0
H671 H 0.32226 0.37872 0.37369 0.0
C672 C 0.60206 0.4108 0.37314 0.0
C673 C 0.62575 0.42204 0.39044 0.0
C674 C 0.53964 0.41337 0.36835 0.0
C675 C 0.49975 0.42709 0.38085 0.0
C676 C 0.52485 0.43994 0.39727 0.0
C677 C 0.58712 0.43754 0.40194 0.0
C678 C 0.32994 0.44119 0.38723 0.0
C679 C 0.30412 0.41701 0.38397 0.0
C680 C 0.39309 0.44525 0.38444 0.0
C681 C 0.43163 0.42504 0.37871 0.0
C682 C 0.40448 0.40145 0.37387 0.0
C683 C 0.34123 0.39753 0.37637 0.0
H684 H 0.16996 0.56207 0.37687 0.0
H685 H 0.15129 0.64375 0.3801 0.0
H686 H 0.05829 0.55762 0.37374 0.0
H687 H 0.03944 0.63938 0.37757 0.0
H688 H 0.83657 0.6264 0.36936 0.0
H689 H 0.94607 0.62723 0.3598 0.0
H690 H 0.97919 0.56278 0.39825 0.0
H691 H 0.87065 0.56192 0.40735 0.0
C692 C 0.14198 0.57911 0.37653 0.0
C693 C 0.16908 0.60324 0.37894 0.0
C694 C 0.07796 0.57657 0.37485 0.0
C695 C 0.03964 0.59811 0.37571 0.0
C696 C 0.06738 0.62238 0.37669 0.0
C697 C 0.13152 0.62492 0.37825 0.0
C698 C 0.86726 0.61202 0.3752 0.0
C699 C 0.8456 0.59411 0.38906 0.0
C700 C 0.92992 0.6126 0.36992 0.0
C701 C 0.97166 0.59517 0.37834 0.0
C702 C 0.94858 0.57629 0.39123 0.0
C703 C 0.88639 0.57583 0.39655 0.0
H704 H 0.11906 0.37062 0.85613 0.0
H705 H 0.12495 0.32931 0.91145 0.0
H706 H 0.0061 0.37101 0.85775 0.0
H707 H 0.01313 0.33021 0.91343 0.0
H708 H 0.82014 0.39887 0.88675 0.0
H709 H 0.92727 0.39192 0.87678 0.0
H710 H 0.91793 0.31553 0.90066 0.0
H711 H 0.81185 0.32306 0.91123 0.0
C712 C 0.09613 0.36133 0.86849 0.0
C713 C 0.13072 0.34993 0.88367 0.0
C714 C 0.03146 0.36171 0.8695 0.0
C715 C 1.00012 0.35066 0.88572 0.0
C716 C 0.03516 0.33851 0.90051 0.0
C717 C 0.09952 0.33812 0.89947 0.0
C718 C 0.8406 0.38037 0.88927 0.0
C719 C 0.80799 0.36152 0.89978 0.0
C720 C 0.90207 0.37633 0.88359 0.0
C721 C 0.9319 0.35329 0.88824 0.0
C722 C 0.89715 0.33374 0.89729 0.0
C723 C 0.83613 0.33789 0.90314 0.0
H724 H 0.39722 0.68331 0.8752 0.0
H725 H 0.40328 0.60162 0.88198 0.0
H726 H 0.51014 0.68513 0.8769 0.0
H727 H 0.51508 0.60334 0.88407 0.0
H728 H 0.71741 0.60842 0.88227 0.0
H729 H 0.6134 0.61176 0.86858 0.0
H730 H 0.58224 0.67919 0.90382 0.0
H731 H 0.68653 0.67628 0.91687 0.0
C732 C 0.42278 0.66574 0.87671 0.0
C733 C 0.39166 0.64236 0.87864 0.0
C734 C 0.48734 0.66676 0.87779 0.0
C735 C 0.52182 0.6444 0.88073 0.0
C736 C 0.49038 0.62092 0.88153 0.0
C737 C 0.42612 0.61993 0.88051 0.0
C738 C 0.689 0.62442 0.88655 0.0
C739 C 0.70977 0.64189 0.90084 0.0
C740 C 0.62917 0.6262 0.87888 0.0
C741 C 0.58899 0.6455 0.88534 0.0
C742 C 0.61178 0.66414 0.8984 0.0
C743 C 0.67145 0.66236 0.90604 0.0
H744 H 0.67497 0.64023 0.64225 0.0
H745 H 0.69016 0.55851 0.63781 0.0
H746 H 0.56281 0.6363 0.64413 0.0
H747 H 0.57821 0.55444 0.64019 0.0
H748 H 0.39312 0.56528 0.60653 0.0
H749 H 0.50156 0.56469 0.61555 0.0
H750 H 0.46777 0.62146 0.66059 0.0
H751 H 0.35826 0.62219 0.65118 0.0
C752 C 0.65437 0.62139 0.64231 0.0
C753 C 0.69105 0.5997 0.63962 0.0
C754 C 0.59008 0.6191 0.64347 0.0
C755 C 0.56139 0.59507 0.64201 0.0
C756 C 0.59874 0.57326 0.64097 0.0
C757 C 0.66289 0.57556 0.63973 0.0
C758 C 0.40872 0.57733 0.61858 0.0
C759 C 0.36763 0.59395 0.62805 0.0
C760 C 0.47081 0.57685 0.6239 0.0
C761 C 0.49356 0.59307 0.63879 0.0
C762 C 0.45177 0.60888 0.64895 0.0
C763 C 0.38915 0.60919 0.64369 0.0
H764 H 0.14044 0.44347 0.64266 0.0
H765 H 0.11904 0.3651 0.6248 0.0
H766 H 0.02964 0.44562 0.64994 0.0
H767 H 0.009 0.36719 0.6316 0.0
H768 H 0.81387 0.37184 0.64975 0.0
H769 H 0.92547 0.37149 0.65475 0.0
H770 H 0.9388 0.44666 0.62885 0.0
H771 H 0.82715 0.44717 0.62437 0.0
C772 C 0.11232 0.42652 0.64085 0.0
C773 C 0.13816 0.40414 0.63312 0.0
C774 C 0.04879 0.4278 0.64478 0.0
C775 C 0.01009 0.40666 0.64119 0.0
C776 C 0.03713 0.38379 0.63477 0.0
C777 C 0.10027 0.38258 0.63076 0.0
C778 C 0.84059 0.3885 0.64555 0.0
C779 C 0.81204 0.40938 0.63644 0.0
C780 C 0.90459 0.38826 0.6483 0.0
C781 C 0.94145 0.40888 0.64193 0.0
C782 C 0.91207 0.4305 0.63406 0.0
C783 C 0.84804 0.43074 0.63136 0.0
H784 H 0.13169 0.10129 0.04571 0.0
H785 H 0.31902 0.07597 0.05444 0.0
H786 H 0.14949 0.10286 0.00996 0.0
H787 H 0.337 0.0779 0.01877 0.0
H788 H 0.31729 0.05751 0.95167 0.0
H789 H 0.30724 0.0568 0.98781 0.0
H790 H 0.20806 0.12788 0.98575 0.0
H791 H 0.21812 0.12855 0.94973 0.0
C792 C 0.17662 0.09604 0.04003 0.0
C793 C 0.22387 0.08853 0.05297 0.0
C794 C 0.18703 0.09713 0.01953 0.0
C795 C 0.24487 0.09067 0.01148 0.0
C796 C 0.29182 0.08283 0.02443 0.0
C797 C 0.2815 0.08183 0.04492 0.0
C798 C 0.2946 0.07325 0.95899 0.0
C799 C 0.2681 0.09298 0.94782 0.0
C800 C 0.28856 0.0728 0.9797 0.0
C801 C 0.25588 0.09207 0.98967 0.0
C802 C 0.23214 0.11242 0.97853 0.0
C803 C 0.23826 0.11288 0.9579 0.0
H804 H 0.3453 0.93105 0.0394 0.0
H805 H 0.31033 0.85027 0.03445 0.0
H806 H 0.31526 0.93686 1.00499 0.0
H807 H 0.283 0.85583 0.99959 0.0
H808 H 0.19737 0.87537 0.94014 0.0
H809 H 0.20987 0.8723 0.97624 0.0
H810 H 0.35551 0.92883 0.97349 0.0
H811 H 0.34087 0.9326 0.93802 0.0
C812 C 0.33193 0.91446 0.03086 0.0
C813 C 0.33083 0.89017 0.03956 0.0
C814 C 0.3147 0.91778 0.01109 0.0
C815 C 0.297 0.8968 0.99938 0.0
C816 C 0.2954 0.87248 1.00819 0.0
C817 C 0.31174 0.86924 0.02811 0.0
C818 C 0.23091 0.8875 0.94744 0.0
C819 C 0.26854 0.90404 0.93631 0.0
C820 C 0.23872 0.88554 0.96804 0.0
C821 C 0.28412 0.90016 0.97783 0.0
C822 C 0.31963 0.91746 0.96664 0.0
C823 C 0.31167 0.91946 0.94622 0.0
H824 H 0.65536 0.86831 0.4736 0.0
H825 H 0.8521 0.87375 0.46384 0.0
H826 H 0.67266 0.86665 0.5093 0.0
H827 H 0.8693 0.872 0.49963 0.0
H828 H 0.85475 0.9022 0.56544 0.0
H829 H 0.84844 0.8997 0.52929 0.0
H830 H 0.71857 0.83738 0.53436 0.0
H831 H 0.72539 0.83963 0.5704 0.0
C832 C 0.70229 0.86908 0.47906 0.0
C833 C 0.75232 0.87117 0.46588 0.0
C834 C 0.71224 0.86795 0.49951 0.0
C835 C 0.77239 0.86907 0.50725 0.0
C836 C 0.82245 0.87122 0.49409 0.0
C837 C 0.81254 0.87212 0.4736 0.0
C838 C 0.82607 0.88756 0.55883 0.0
C839 C 0.78997 0.87133 0.57078 0.0
C840 C 0.82229 0.88619 0.53813 0.0
C841 C 0.78222 0.86861 0.52902 0.0
C842 C 0.74881 0.85148 0.54097 0.0
C843 C 0.75281 0.85276 0.5616 0.0
H844 H 0.82646 0.10546 0.45235 0.0
H845 H 0.7356 0.17836 0.45569 0.0
H846 H 0.80459 0.09822 0.48745 0.0
H847 H 0.7151 0.17144 0.49078 0.0
H848 H 0.633 0.14147 0.54833 0.0
H849 H 0.65189 0.14603 0.5127 0.0
H850 H 0.83197 0.11238 0.51994 0.0
H851 H 0.81199 0.10688 0.55516 0.0
C852 C 0.80261 0.1201 0.46063 0.0
C853 C 0.78281 0.14248 0.45119 0.0
C854 C 0.79002 0.11596 0.48077 0.0
C855 C 0.75751 0.13414 0.49197 0.0
C856 C 0.73899 0.15676 0.48257 0.0
C857 C 0.7514 0.16085 0.46246 0.0
C858 C 0.67614 0.13471 0.54222 0.0
C859 C 0.7212 0.12409 0.55463 0.0
C860 C 0.68737 0.13759 0.52184 0.0
C861 C 0.74382 0.12982 0.51342 0.0
C862 C 0.78789 0.11845 0.5258 0.0
C863 C 0.77666 0.11556 0.54608 0.0
H864 H 0.78269 0.95552 0.97019 0.0
H865 H 0.81732 0.87465 0.96718 0.0
H866 H 0.753 0.95115 1.00489 0.0
H867 H 0.78568 0.87011 1.0017 0.0
H868 H 0.82391 0.88254 0.06865 0.0
H869 H 0.83023 0.88129 0.03271 0.0
H870 H 0.67967 0.93477 0.02889 0.0
H871 H 0.67491 0.93647 0.06525 0.0
C872 C 0.78331 0.93675 0.97688 0.0
C873 C 0.80328 0.9155 0.96602 0.0
C874 C 0.76557 0.93419 0.99673 0.0
C875 C 0.76702 0.91027 1.00614 0.0
C876 C 0.78489 0.88888 0.99502 0.0
C877 C 0.80307 0.89148 0.97522 0.0
C878 C 0.79132 0.8936 0.06009 0.0
C879 C 0.74937 0.90979 0.06962 0.0
C880 C 0.79464 0.8928 0.03947 0.0
C881 C 0.7559 0.90815 0.02786 0.0
C882 C 0.71087 0.92304 0.03743 0.0
C883 C 0.70755 0.92381 0.05818 0.0
H884 H 0.80027 0.06454 0.96163 0.0
H885 H 0.62282 0.099 0.9724 0.0
H886 H 0.82408 0.0671 0.99683 0.0
H887 H 0.64625 0.10111 1.00779 0.0
H888 H 0.73033 0.12625 0.06601 0.0
H889 H 0.71327 0.12412 0.03033 0.0
H890 H 0.79668 0.04959 0.02897 0.0
H891 H 0.81415 0.05191 0.06477 0.0
C892 C 0.76601 0.0725 0.97153 0.0
C893 C 0.70959 0.08164 0.96412 0.0
C894 C 0.77968 0.07386 0.99178 0.0
C895 C 0.73737 0.08445 1.00521 0.0
C896 C 0.68046 0.09323 0.99785 0.0
C897 C 0.66672 0.09183 0.97756 0.0
C898 C 0.7457 0.10953 0.05803 0.0
C899 C 0.77337 0.08919 0.06824 0.0
C900 C 0.73539 0.1082 0.0376 0.0
C901 C 0.75251 0.08649 0.02676 0.0
C902 C 0.78304 0.06665 0.0368 0.0
C903 C 0.7934 0.068 0.05731 0.0
H904 H 0.158 0.08164 0.46833 0.0
H905 H 0.23216 0.15804 0.46876 0.0
H906 H 0.18412 0.07693 0.50336 0.0
H907 H 0.25691 0.15373 0.50385 0.0
H908 H 0.35377 0.13021 0.56041 0.0
H909 H 0.32765 0.13299 0.52526 0.0
H910 H 0.16093 0.08964 0.53615 0.0
H911 H 0.18815 0.08611 0.57097 0.0
C912 C 0.17856 0.09764 0.47605 0.0
C913 C 0.19299 0.12021 0.46578 0.0
C914 C 0.19381 0.09495 0.49615 0.0
C915 C 0.22345 0.11484 0.50651 0.0
C916 C 0.23566 0.13774 0.49633 0.0
C917 C 0.22085 0.14034 0.47624 0.0
C918 C 0.31198 0.121 0.55523 0.0
C919 C 0.27312 0.10797 0.56855 0.0
C920 C 0.29655 0.12282 0.53509 0.0
C921 C 0.24166 0.11179 0.52778 0.0
C922 C 0.2038 0.09818 0.54108 0.0
C923 C 0.2194 0.09623 0.56115 0.0
H924 H 0.22828 0.84391 0.44443 0.0
H925 H 0.36363 0.90455 0.44518 0.0
H926 H 0.2213 0.84547 0.48031 0.0
H927 H 0.35964 0.90509 0.48135 0.0
H928 H 0.26228 0.92593 0.53984 0.0
H929 H 0.28795 0.92011 0.50505 0.0
H930 H 0.26464 0.83869 0.51175 0.0
H931 H 0.2363 0.84474 0.54643 0.0
C932 C 0.25751 0.85726 0.45233 0.0
C933 C 0.29555 0.87447 0.44193 0.0
C934 C 0.25407 0.85796 0.47298 0.0
C935 C 0.28922 0.87568 0.48381 0.0
C936 C 0.3308 0.8916 0.47347 0.0
C937 C 0.33382 0.89105 0.45274 0.0
C938 C 0.26285 0.90678 0.53391 0.0
C939 C 0.24661 0.88582 0.54582 0.0
C940 C 0.27825 0.90338 0.51396 0.0
C941 C 0.27849 0.8789 0.5055 0.0
C942 C 0.26398 0.85786 0.51764 0.0
C943 C 0.24784 0.8613 0.53754 0.0
H944 H 0.71822 0.66043 0.06947 0.0
H945 H 0.75316 0.57975 0.06663 0.0
H946 H 0.7462 0.66482 0.03478 0.0
H947 H 0.77653 0.58349 0.03136 0.0
H948 H 0.8662 0.59845 0.97225 0.0
H949 H 0.84597 0.59592 1.00767 0.0
H950 H 0.72069 0.6595 1.00279 0.0
H951 H 0.74642 0.66376 0.96815 0.0
C952 C 0.73026 0.64348 0.06121 0.0
C953 C 0.73312 0.61973 0.07072 0.0
C954 C 0.74627 0.64592 0.04119 0.0
C955 C 0.76392 0.62454 0.02991 0.0
C956 C 0.76486 0.6006 0.03944 0.0
C957 C 0.75052 0.59831 0.05965 0.0
C958 C 0.83571 0.61235 0.97884 0.0
C959 C 0.80755 0.63115 0.96709 0.0
C960 C 0.8229 0.61056 0.99921 0.0
C961 C 0.78067 0.62721 0.00837 0.0
C962 C 0.75395 0.6464 0.99664 0.0
C963 C 0.76796 0.64858 0.97648 0.0
H964 H 0.67249 0.41537 0.96679 0.0
H965 H 0.74247 0.33859 0.96749 0.0
H966 H 0.69428 0.41932 1.00218 0.0
H967 H 0.76298 0.34218 1.00291 0.0
H968 H 0.85403 0.36458 0.0607 0.0
H969 H 0.83239 0.36268 0.02523 0.0
H970 H 0.66514 0.40555 0.03448 0.0
H971 H 0.68787 0.40818 0.0697 0.0
C972 C 0.6913 0.39915 0.97462 0.0
C973 C 0.70582 0.37669 0.96437 0.0
C974 C 0.70401 0.40141 0.99491 0.0
C975 C 0.73115 0.38117 1.00545 0.0
C976 C 0.74359 0.3584 0.99525 0.0
C977 C 0.73129 0.35623 0.97498 0.0
C978 C 0.81303 0.37384 0.05511 0.0
C979 C 0.77268 0.38647 0.06807 0.0
C980 C 0.80022 0.37254 0.03478 0.0
C981 C 0.74654 0.3837 0.02694 0.0
C982 C 0.70715 0.39692 0.03988 0.0
C983 C 0.72015 0.39834 0.06015 0.0
H984 H 0.31827 0.39509 0.46572 0.0
H985 H 0.12346 0.38565 0.47754 0.0
H986 H 0.33929 0.39413 0.50126 0.0
H987 H 0.14468 0.3847 0.51311 0.0
H988 H 0.20883 0.36043 0.57411 0.0
H989 H 0.19789 0.35704 0.53821 0.0
H990 H 0.31748 0.42234 0.53059 0.0
H991 H 0.32759 0.42607 0.56656 0.0
C992 C 0.27992 0.39269 0.47589 0.0
C993 C 0.2191 0.39047 0.4688 0.0
C994 C 0.29204 0.39225 0.49625 0.0
C995 C 0.24372 0.38928 0.50996 0.0
C996 C 0.18298 0.38671 0.50287 0.0
C997 C 0.17077 0.38742 0.48251 0.0
C998 C 0.23321 0.37395 0.56477 0.0
C999 C 0.26848 0.39372 0.57321 0.0
C1000 C 0.22678 0.37203 0.54423 0.0
C1001 C 0.25604 0.38965 0.53161 0.0
C1002 C 0.2945 0.40844 0.53995 0.0
C1003 C 0.30056 0.41049 0.56056 0.0
H1004 H 0.29788 0.63791 0.56816 0.0
H1005 H 0.17142 0.57433 0.56446 0.0
H1006 H 0.3057 0.63906 0.5321 0.0
H1007 H 0.1793 0.57539 0.52826 0.0
H1008 H 0.17313 0.59867 0.46246 0.0
H1009 H 0.15728 0.59992 0.49824 0.0
H1010 H 0.35261 0.61226 0.50673 0.0
H1011 H 0.36841 0.6114 0.47088 0.0
C1012 C 0.27124 0.62433 0.5596 0.0
C1013 C 0.23435 0.60592 0.56916 0.0
C1014 C 0.27606 0.62487 0.53894 0.0
C1015 C 0.244 0.60704 0.52728 0.0
C1016 C 0.20448 0.58946 0.53678 0.0
C1017 C 0.19969 0.58891 0.55752 0.0
C1018 C 0.21279 0.60165 0.47194 0.0
C1019 C 0.27211 0.60499 0.46377 0.0
C1020 C 0.20365 0.60224 0.49248 0.0
C1021 C 0.25354 0.60631 0.50538 0.0
C1022 C 0.31295 0.6095 0.49721 0.0
C1023 C 0.32214 0.60882 0.47665 0.0
H1024 H 0.32525 0.39356 0.05912 0.0
H1025 H 0.1416 0.3665 0.0454 0.0
H1026 H 0.35299 0.39137 0.02413 0.0
H1027 H 0.16918 0.36564 0.00998 0.0
H1028 H 0.25748 0.3955 0.94679 0.0
H1029 H 0.22452 0.40305 0.98117 0.0
H1030 H 0.34755 0.34419 1.00127 0.0
H1031 H 0.37907 0.33598 0.96695 0.0
C1032 C 0.29051 0.38735 0.04864 0.0
C1033 C 0.23155 0.37954 0.05519 0.0
C1034 C 0.30646 0.3863 0.0286 0.0
C1035 C 0.26341 0.37813 0.0145 0.0
C1036 C 0.20311 0.37202 0.02068 0.0
C1037 C 0.18732 0.37262 0.0409 0.0
C1038 C 0.278 0.38438 0.95858 0.0
C1039 C 0.32112 0.36522 0.95422 0.0
C1040 C 0.25867 0.38856 0.97817 0.0
C1041 C 0.28335 0.37409 0.99373 0.0
C1042 C 0.32785 0.35554 0.98946 0.0
C1043 C 0.34598 0.35091 0.96987 0.0
H1044 H 0.19387 0.61257 0.95426 0.0
H1045 H 0.28597 0.68565 0.9564 0.0
H1046 H 0.21931 0.60545 0.98909 0.0
H1047 H 0.30996 0.67889 0.99123 0.0
H1048 H 0.21654 0.61492 0.05685 0.0
H1049 H 0.19476 0.61957 0.02171 0.0
H1050 H 0.37408 0.65417 0.0129 0.0
H1051 H 0.39474 0.65048 0.04847 0.0
C1052 C 0.21883 0.62725 0.96222 0.0
C1053 C 0.23779 0.64968 0.95252 0.0
C1054 C 0.23348 0.62319 0.98221 0.0
C1055 C 0.26721 0.64151 0.99302 0.0
C1056 C 0.28515 0.66411 0.98334 0.0
C1057 C 0.27074 0.66811 0.96337 0.0
C1058 C 0.25135 0.6236 0.04744 0.0
C1059 C 0.30705 0.63271 0.05555 0.0
C1060 C 0.2391 0.626 0.02719 0.0
C1061 C 0.28235 0.63745 0.0144 0.0
C1062 C 0.33917 0.64568 0.02237 0.0
C1063 C 0.35142 0.64329 0.04271 0.0
H1064 H 0.68467 0.60019 0.5584 0.0
H1065 H 0.87839 0.61156 0.54585 0.0
H1066 H 0.66227 0.60046 0.52302 0.0
H1067 H 0.85586 0.61161 0.51031 0.0
H1068 H 0.78723 0.63729 0.44989 0.0
H1069 H 0.80331 0.63858 0.48564 0.0
H1070 H 0.67881 0.57476 0.4929 0.0
H1071 H 0.66303 0.57337 0.45697 0.0
C1072 C 0.72262 0.60269 0.54809 0.0
C1073 C 0.78343 0.60593 0.55501 0.0
C1074 C 0.70968 0.60271 0.52777 0.0
C1075 C 0.75712 0.60615 0.5138 0.0
C1076 C 0.81805 0.60927 0.52069 0.0
C1077 C 0.83109 0.60907 0.54106 0.0
C1078 C 0.76283 0.62365 0.45913 0.0
C1079 C 0.72418 0.60509 0.45054 0.0
C1080 C 0.77241 0.62429 0.47962 0.0
C1081 C 0.74325 0.6065 0.49213 0.0
C1082 C 0.70193 0.58879 0.48369 0.0
C1083 C 0.69254 0.58807 0.46311 0.0
H1084 H 0.61821 0.3975 0.54338 0.0
H1085 H 0.81431 0.39396 0.55422 0.0
H1086 H 0.63783 0.39698 0.50767 0.0
H1087 H 0.83379 0.39339 0.51856 0.0
H1088 H 0.83426 0.42455 0.45252 0.0
H1089 H 0.82476 0.42172 0.48876 0.0
H1090 H 0.67686 0.36697 0.48226 0.0
H1091 H 0.68662 0.36976 0.4463 0.0
C1092 C 0.66544 0.39659 0.53817 0.0
C1093 C 0.71456 0.3957 0.5517 0.0
C1094 C 0.67675 0.39613 0.51769 0.0
C1095 C 0.73746 0.395 0.51023 0.0
C1096 C 0.78657 0.3944 0.52378 0.0
C1097 C 0.77526 0.3946 0.54424 0.0
C1098 C 0.80106 0.41139 0.4589 0.0
C1099 C 0.76092 0.39753 0.44659 0.0
C1100 C 0.79525 0.40987 0.47964 0.0
C1101 C 0.74905 0.39453 0.4884 0.0
C1102 C 0.71182 0.37945 0.47602 0.0
C1103 C 0.71782 0.38087 0.45542 0.0
H1104 H 0.14518 0.03434 0.10611 0.0
H1105 H 0.15508 0.03705 0.16991 0.0
H1106 H 0.23669 0.00761 0.10518 0.0
H1107 H 0.24875 0.01147 0.16919 0.0
H1108 H 0.3745 0.94212 0.16225 0.0
H1109 H 0.28666 0.97094 0.16428 0.0
H1110 H 0.3421 0.00549 0.10866 0.0
H1111 H 0.4267 0.97525 0.10613 0.0
C1112 C 0.16764 0.02937 0.11991 0.0
C1113 C 0.14369 0.03779 0.13805 0.0
C1114 C 0.22057 0.01429 0.11944 0.0
C1115 C 0.25097 0.00738 0.13713 0.0
C1116 C 0.22645 0.01595 0.15528 0.0
C1117 C 0.17295 0.03073 0.15574 0.0
C1118 C 0.36767 0.956 0.15057 0.0
C1119 C 0.40652 0.95638 0.13394 0.0
C1120 C 0.31766 0.97272 0.15176 0.0
C1121 C 0.30661 0.99065 0.13658 0.0
C1122 C 0.34775 0.99161 0.12039 0.0
C1123 C 0.39662 0.97445 0.11897 0.0
H1124 H 0.88179 0.03409 0.40103 0.0
H1125 H 0.75731 0.06404 0.35691 0.0
H1126 H 0.82705 0.99329 0.4001 0.0
H1127 H 0.70213 0.02359 0.35627 0.0
H1128 H 0.66059 0.93853 0.41123 0.0
H1129 H 0.72765 0.97602 0.41039 0.0
H1130 H 0.70912 0.9794 0.34665 0.0
H1131 H 0.64145 0.94206 0.34759 0.0
C1132 C 0.84296 0.03196 0.39107 0.0
C1133 C 0.82391 0.0524 0.37909 0.0
C1134 C 0.81135 0.0086 0.39062 0.0
C1135 C 0.76003 0.0051 0.37813 0.0
C1136 C 0.74192 0.02542 0.36586 0.0
C1137 C 0.77342 0.04873 0.36632 0.0
C1138 C 0.67171 0.94705 0.39702 0.0
C1139 C 0.64605 0.93726 0.37947 0.0
C1140 C 0.7103 0.96852 0.39651 0.0
C1141 C 0.72368 0.98086 0.37845 0.0
C1142 C 0.69913 0.97063 0.36085 0.0
C1143 C 0.66061 0.94914 0.36136 0.0
H1144 H 0.90348 0.97238 0.91012 0.0
H1145 H 0.87468 0.95003 0.84934 0.0
H1146 H 0.81471 1.00051 0.90839 0.0
H1147 H 0.78252 0.97649 0.84785 0.0
H1148 H 0.61848 0.0277 0.90787 0.0
H1149 H 0.70909 1.00044 0.90847 0.0
H1150 H 0.74119 0.01673 0.8463 0.0
H1151 H 0.6475 0.0423 0.84561 0.0
C1152 C 0.87759 0.97347 0.89641 0.0
C1153 C 0.89545 0.95916 0.87987 0.0
C1154 C 0.82622 0.98934 0.89544 0.0
C1155 C 0.79043 0.99067 0.87805 0.0
C1156 C 0.8092 0.97642 0.8614 0.0
C1157 C 0.86179 0.96112 0.86222 0.0
C1158 C 0.64499 0.02521 0.89437 0.0
C1159 C 0.62672 0.03708 0.87674 0.0
C1160 C 0.69736 0.00984 0.8947 0.0
C1161 C 0.73343 0.00649 0.87748 0.0
C1162 C 0.7144 0.01842 0.85979 0.0
C1163 C 0.661 0.03323 0.85937 0.0
H1164 H 0.16189 0.94173 0.59618 0.0
H1165 H 0.15243 0.9405 0.66005 0.0
H1166 H 0.23551 0.97721 0.59755 0.0
H1167 H 0.22664 0.97555 0.66159 0.0
H1168 H 0.27439 0.06007 0.65468 0.0
H1169 H 0.21862 0.02006 0.65396 0.0
H1170 H 0.33811 0.99303 0.60723 0.0
H1171 H 0.39384 0.03378 0.60765 0.0
C1172 C 0.17698 0.94866 0.6105 0.0
C1173 C 0.15188 0.93842 0.62799 0.0
C1174 C 0.21912 0.96893 0.61132 0.0
C1175 C 0.2366 0.97939 0.62969 0.0
C1176 C 0.21333 0.96827 0.64719 0.0
C1177 C 0.17101 0.94816 0.64634 0.0
C1178 C 0.28937 0.04561 0.64432 0.0
C1179 C 0.33863 0.05021 0.63118 0.0
C1180 C 0.25755 0.02248 0.64403 0.0
C1181 C 0.27403 0.00321 0.63062 0.0
C1182 C 0.32401 0.00756 0.61766 0.0
C1183 C 0.35613 0.03083 0.61797 0.0
H1184 H 0.88435 0.45457 0.10871 0.0
H1185 H 0.78713 0.43231 0.16203 0.0
H1186 H 0.82618 0.49442 0.10783 0.0
H1187 H 0.73 0.47236 0.1613 0.0
H1188 H 0.7159 0.56204 0.16453 0.0
H1189 H 0.76529 0.52031 0.16476 0.0
H1190 H 0.70841 0.5081 0.1042 0.0
H1191 H 0.65765 0.5498 0.10406 0.0
C1192 C 0.85078 0.45823 0.12027 0.0
C1193 C 0.84058 0.4404 0.13551 0.0
C1194 C 0.8172 0.48091 0.11966 0.0
C1195 C 0.77366 0.4864 0.13449 0.0
C1196 C 0.76348 0.4686 0.14973 0.0
C1197 C 0.79614 0.4457 0.15013 0.0
C1198 C 0.71338 0.55035 0.15133 0.0
C1199 C 0.68279 0.55911 0.13429 0.0
C1200 C 0.74146 0.52646 0.15149 0.0
C1201 C 0.74069 0.51106 0.13449 0.0
C1202 C 0.70978 0.5197 0.11747 0.0
C1203 C 0.68044 0.54341 0.11744 0.0
H1204 H 0.09612 0.4693 0.41325 0.0
H1205 H 0.13751 0.44678 0.3533 0.0
H1206 H 0.17569 0.50219 0.41155 0.0
H1207 H 0.22097 0.47802 0.3519 0.0
H1208 H 0.33704 0.54919 0.34758 0.0
H1209 H 0.25065 0.51934 0.34899 0.0
H1210 H 0.27796 0.5112 0.4123 0.0
H1211 H 0.36062 0.54275 0.41081 0.0
C1212 C 0.12316 0.47124 0.39979 0.0
C1213 C 0.1111 0.45555 0.38344 0.0
C1214 C 0.16929 0.48997 0.39881 0.0
C1215 C 0.20571 0.49301 0.38159 0.0
C1216 C 0.19342 0.47695 0.36527 0.0
C1217 C 0.14596 0.45877 0.36608 0.0
C1218 C 0.32373 0.54116 0.36178 0.0
C1219 C 0.35471 0.54842 0.37912 0.0
C1220 C 0.2746 0.52376 0.36263 0.0
C1221 C 0.25668 0.51247 0.38077 0.0
C1222 C 0.2887 0.51975 0.39809 0.0
C1223 C 0.33659 0.53772 0.39729 0.0
H1224 H 0.2477 0.42766 0.87116 0.0
H1225 H 0.41215 0.46346 0.89456 0.0
H1226 H 0.19584 0.4687 0.87087 0.0
H1227 H 0.35991 0.50476 0.89404 0.0
H1228 H 0.2604 0.57562 0.86669 0.0
H1229 H 0.31425 0.53488 0.86697 0.0
H1230 H 0.16064 0.5003 0.8979 0.0
H1231 H 0.1069 0.54111 0.89793 0.0
C1232 C 0.27296 0.44432 0.87613 0.0
C1233 C 0.3341 0.44235 0.88287 0.0
C1234 C 0.24304 0.46776 0.87607 0.0
C1235 C 0.27388 0.4898 0.88247 0.0
C1236 C 0.3353 0.488 0.88894 0.0
C1237 C 0.36503 0.46441 0.88931 0.0
C1238 C 0.23803 0.55934 0.87354 0.0
C1239 C 0.17938 0.56157 0.88232 0.0
C1240 C 0.26907 0.5361 0.87379 0.0
C1241 C 0.24158 0.51455 0.88249 0.0
C1242 C 0.18265 0.51665 0.89102 0.0
C1243 C 0.15202 0.53999 0.89106 0.0
H1244 H 0.85834 0.5524 0.67118 0.0
H1245 H 0.88927 0.54079 0.60868 0.0
H1246 H 0.77267 0.52217 0.67043 0.0
H1247 H 0.807 0.50897 0.60799 0.0
H1248 H 0.61758 0.47176 0.608 0.0
H1249 H 0.70262 0.50228 0.60845 0.0
H1250 H 0.74426 0.48015 0.66884 0.0
H1251 H 0.65577 0.45127 0.66864 0.0
C1252 C 0.84691 0.54309 0.65732 0.0
C1253 C 0.87949 0.54903 0.63994 0.0
C1254 C 0.79827 0.52552 0.65687 0.0
C1255 C 0.78255 0.51283 0.63915 0.0
C1256 C 0.8164 0.51863 0.62183 0.0
C1257 C 0.86389 0.53674 0.62219 0.0
C1258 C 0.64528 0.47351 0.62129 0.0
C1259 C 0.63056 0.45929 0.63826 0.0
C1260 C 0.69439 0.49086 0.62157 0.0
C1261 C 0.73083 0.4939 0.6387 0.0
C1262 C 0.71663 0.47897 0.65552 0.0
C1263 C 0.66634 0.46218 0.6554 0.0
H1264 H 0.09094 0.17585 0.10641 0.0
H1265 H 0.96644 0.16241 0.15554 0.0
H1266 H 0.0621 0.22056 0.10619 0.0
H1267 H 0.93928 0.20718 0.15574 0.0
H1268 H 0.85614 0.28326 0.13796 0.0
H1269 H 0.8841 0.23839 0.13763 0.0
H1270 H 0.07301 0.25903 0.1243 0.0
H1271 H 0.04463 0.30376 0.12395 0.0
C1272 C 0.05787 0.18241 0.1173 0.0
C1273 C 0.03104 0.16538 0.13098 0.0
C1274 C 0.04149 0.20814 0.11723 0.0
C1275 C 0.99827 0.21757 0.13095 0.0
C1276 C 0.97184 0.20057 0.14471 0.0
C1277 C 0.98779 0.17483 0.14467 0.0
C1278 C 0.90364 0.27822 0.13496 0.0
C1279 C 0.94805 0.29714 0.13092 0.0
C1280 C 0.9198 0.25247 0.13487 0.0
C1281 C 0.9809 0.245 0.13093 0.0
C1282 C 0.02532 0.26398 0.12703 0.0
C1283 C 0.00906 0.2897 0.12694 0.0
H1284 H 0.58686 0.84445 0.12512 0.0
H1285 H 0.39507 0.8219 0.12598 0.0
H1286 H 0.61695 0.80056 0.13184 0.0
H1287 H 0.42485 0.7782 0.13312 0.0
H1288 H 0.64941 0.71915 0.15399 0.0
H1289 H 0.61778 0.76385 0.15405 0.0
H1290 H 0.4707 0.74571 0.11319 0.0
H1291 H 0.50103 0.7014 0.11347 0.0
C1292 C 0.55108 0.83026 0.12728 0.0
C1293 C 0.48864 0.8366 0.12484 0.0
C1294 C 0.56831 0.80507 0.13114 0.0
C1295 C 0.52337 0.78572 0.13268 0.0
C1296 C 0.46076 0.79248 0.13153 0.0
C1297 C 0.44363 0.81758 0.12755 0.0
C1298 C 0.6101 0.72473 0.14513 0.0
C1299 C 0.57794 0.70665 0.13368 0.0
C1300 C 0.59212 0.75036 0.14511 0.0
C1301 C 0.54146 0.7584 0.13372 0.0
C1302 C 0.50914 0.7402 0.12247 0.0
C1303 C 0.52701 0.71472 0.12248 0.0
H1304 H 0.38761 0.69065 0.40438 0.0
H1305 H 0.53468 0.67576 0.36258 0.0
H1306 H 0.41627 0.73561 0.40465 0.0
H1307 H 0.56224 0.72062 0.36266 0.0
H1308 H 0.64527 0.79354 0.38899 0.0
H1309 H 0.61021 0.74979 0.38547 0.0
H1310 H 0.42092 0.77512 0.38526 0.0
H1311 H 0.45619 0.81919 0.38917 0.0
C1312 C 0.42559 0.6969 0.39509 0.0
C1313 C 0.45914 0.6793 0.38364 0.0
C1314 C 0.4418 0.72278 0.39517 0.0
C1315 C 0.49191 0.73176 0.3838 0.0
C1316 C 0.52414 0.71433 0.37189 0.0
C1317 C 0.50808 0.68851 0.37182 0.0
C1318 C 0.59613 0.78989 0.38807 0.0
C1319 C 0.55358 0.80992 0.3895 0.0
C1320 C 0.57599 0.76473 0.38592 0.0
C1321 C 0.51268 0.75885 0.3851 0.0
C1322 C 0.47 0.77894 0.38609 0.0
C1323 C 0.49023 0.80421 0.38819 0.0
H1324 H 0.10916 0.31312 0.40096 0.0
H1325 H 0.93741 0.33927 0.37609 0.0
H1326 H 0.07436 0.26958 0.39831 0.0
H1327 H 0.90361 0.29511 0.37195 0.0
H1328 H 0.83481 0.21412 0.38736 0.0
H1329 H 0.86711 0.25879 0.38752 0.0
H1330 H 0.05643 0.23539 0.37886 0.0
H1331 H 0.0242 0.19112 0.38029 0.0
C1332 C 0.06428 0.30955 0.39446 0.0
C1333 C 0.02617 0.32982 0.3887 0.0
C1334 C 0.04428 0.28433 0.39276 0.0
C1335 C 0.98601 0.27835 0.38473 0.0
C1336 C 0.94834 0.2987 0.3785 0.0
C1337 C 0.96795 0.32411 0.38065 0.0
C1338 C 0.88327 0.21869 0.38549 0.0
C1339 C 0.92708 0.19915 0.38408 0.0
C1340 C 0.90195 0.24435 0.38542 0.0
C1341 C 0.96482 0.25109 0.38347 0.0
C1342 C 0.00795 0.2313 0.38112 0.0
C1343 C 0.98947 0.20576 0.38175 0.0
H1344 H 0.89658 0.82049 0.8828 0.0
H1345 H 0.08578 0.84461 0.89084 0.0
H1346 H 0.93021 0.77661 0.87927 0.0
H1347 H 0.11942 0.80041 0.88773 0.0
H1348 H 0.15913 0.71783 0.8681 0.0
H1349 H 0.12839 0.76256 0.86618 0.0
H1350 H 0.96947 0.74596 0.90284 0.0
H1351 H 0.99912 0.70158 0.90446 0.0
C1352 C 0.94545 0.81643 0.88371 0.0
C1353 C 0.98841 0.83595 0.88743 0.0
C1354 C 0.9647 0.79126 0.88177 0.0
C1355 C 0.02736 0.78495 0.88361 0.0
C1356 C 0.07081 0.80465 0.88621 0.0
C1357 C 0.05151 0.82995 0.88808 0.0
C1358 C 0.11755 0.72375 0.87569 0.0
C1359 C 0.08164 0.70608 0.88644 0.0
C1360 C 0.1001 0.74938 0.87464 0.0
C1361 C 0.04625 0.75778 0.88423 0.0
C1362 C 0.01056 0.74007 0.89495 0.0
C1363 C 0.02795 0.71459 0.89602 0.0
H1364 H 0.47209 0.16468 0.85981 0.0
H1365 H 0.57482 0.17307 0.91433 0.0
H1366 H 0.44762 0.2097 0.86039 0.0
H1367 H 0.54858 0.21817 0.91522 0.0
H1368 H 0.53711 0.30332 0.90032 0.0
H1369 H 0.56626 0.25853 0.89961 0.0
H1370 H 0.38473 0.23878 0.8779 0.0
H1371 H 0.35646 0.28349 0.87798 0.0
C1372 C 0.48913 0.17607 0.87203 0.0
C1373 C 0.52516 0.16514 0.8871 0.0
C1374 C 0.4748 0.20195 0.8724 0.0
C1375 C 0.49553 0.2176 0.88796 0.0
C1376 C 0.53233 0.20677 0.9029 0.0
C1377 C 0.5472 0.18086 0.90243 0.0
C1378 C 0.50344 0.28939 0.89542 0.0
C1379 C 0.44454 0.297 0.88912 0.0
C1380 C 0.52006 0.26368 0.8951 0.0
C1381 C 0.47799 0.24498 0.88861 0.0
C1382 C 0.41881 0.25265 0.88259 0.0
C1383 C 0.40242 0.27833 0.88274 0.0
H1384 H 0.39241 0.20641 0.65338 0.0
H1385 H 0.51473 0.1936 0.60376 0.0
H1386 H 0.42096 0.25126 0.65344 0.0
H1387 H 0.5417 0.23871 0.60334 0.0
H1388 H 0.61968 0.31721 0.62038 0.0
H1389 H 0.59545 0.27174 0.62058 0.0
H1390 H 0.40556 0.28878 0.63474 0.0
H1391 H 0.43001 0.33387 0.63515 0.0
C1392 C 0.4251 0.21319 0.64239 0.0
C1393 C 0.45101 0.19641 0.62851 0.0
C1394 C 0.44127 0.23899 0.64234 0.0
C1395 C 0.48333 0.24876 0.62828 0.0
C1396 C 0.50973 0.23188 0.61452 0.0
C1397 C 0.49394 0.206 0.61469 0.0
C1398 C 0.57275 0.31123 0.62348 0.0
C1399 C 0.527 0.32925 0.62791 0.0
C1400 C 0.55876 0.28514 0.62353 0.0
C1401 C 0.49859 0.27649 0.62785 0.0
C1402 C 0.45272 0.29461 0.63184 0.0
C1403 C 0.46676 0.32057 0.63197 0.0
H1404 H 0.87981 0.692 0.63119 0.0
H1405 H 0.0745 0.67535 0.62918 0.0
H1406 H 0.90323 0.73756 0.63127 0.0
H1407 H 0.09808 0.72049 0.62808 0.0
H1408 H 0.13472 0.80134 0.6423 0.0
H1409 H 0.10271 0.75721 0.64651 0.0
H1410 H 0.9374 0.77223 0.61266 0.0
H1411 H 0.96799 0.81684 0.60971 0.0
C1412 C 0.92758 0.69811 0.63053 0.0
C1413 C 0.97532 0.68011 0.63031 0.0
C1414 C 0.94111 0.72425 0.63051 0.0
C1415 C 1.00271 0.73296 0.62988 0.0
C1416 C 0.05017 0.71476 0.62922 0.0
C1417 C 0.03668 0.68875 0.62966 0.0
C1418 C 0.09112 0.79521 0.63602 0.0
C1419 C 0.05412 0.8124 0.62555 0.0
C1420 C 0.07294 0.76982 0.63823 0.0
C1421 C 0.01803 0.76076 0.62952 0.0
C1422 C 0.97976 0.77835 0.61971 0.0
C1423 C 0.99734 0.80397 0.61793 0.0
H1424 H 0.93889 0.08615 0.32219 0.0
H1425 H 0.01138 0.16212 0.31341 0.0
H1426 H 0.93161 0.0806 0.28631 0.0
H1427 H 0.00502 0.15643 0.27761 0.0
H1428 H 0.92473 0.14829 0.21547 0.0
H1429 H 0.92951 0.15299 0.25137 0.0
H1430 H 0.99518 0.07577 0.25668 0.0
H1431 H 0.98946 0.07091 0.22069 0.0
C1432 C 0.9535 0.10164 0.31263 0.0
C1433 C 0.97567 0.1246 0.32074 0.0
C1434 C 0.94962 0.0984 0.29202 0.0
C1435 C 0.9676 0.11807 0.27899 0.0
C1436 C 0.98989 0.14099 0.28715 0.0
C1437 C 0.99391 0.14421 0.30772 0.0
C1438 C 0.94001 0.13225 0.22426 0.0
C1439 C 0.95676 0.10922 0.21512 0.0
C1440 C 0.94316 0.13501 0.24489 0.0
C1441 C 0.96304 0.11481 0.257 0.0
C1442 C 0.97908 0.09166 0.24788 0.0
C1443 C 0.97609 0.08891 0.2272 0.0
H1444 H 0.65795 0.83728 0.20462 0.0
H1445 H 0.48071 0.8744 0.20767 0.0
H1446 H 0.65747 0.83225 0.24064 0.0
H1447 H 0.48051 0.86947 0.24359 0.0
H1448 H 0.47719 0.84345 0.3069 0.0
H1449 H 0.47714 0.83812 0.27102 0.0
H1450 H 0.66713 0.8631 0.2686 0.0
H1451 H 0.66751 0.8683 0.30457 0.0
C1452 C 0.61844 0.84401 0.21292 0.0
C1453 C 0.56956 0.85644 0.2033 0.0
C1454 C 0.61842 0.84125 0.23356 0.0
C1455 C 0.5692 0.85061 0.24496 0.0
C1456 C 0.5189 0.86186 0.23522 0.0
C1457 C 0.51915 0.8648 0.21463 0.0
C1458 C 0.5193 0.84747 0.29879 0.0
C1459 C 0.5722 0.85659 0.30859 0.0
C1460 C 0.51911 0.8445 0.27821 0.0
C1461 C 0.57188 0.85043 0.26697 0.0
C1462 C 0.62584 0.85821 0.27687 0.0
C1463 C 0.62597 0.86131 0.29748 0.0
H1464 H 0.971 0.81659 0.70766 0.0
H1465 H 0.0628 0.88987 0.70569 0.0
H1466 H 0.97352 0.81778 0.74402 0.0
H1467 H 0.065 0.89095 0.7417 0.0
H1468 H 0.98334 0.901 0.80281 0.0
H1469 H 0.97959 0.89521 0.76708 0.0
H1470 H 0.0506 0.81901 0.77356 0.0
H1471 H 0.05459 0.82474 0.80963 0.0
C1472 C 0.99229 0.83277 0.71493 0.0
C1473 C 0.01615 0.85325 0.70376 0.0
C1474 C 0.99376 0.83342 0.73572 0.0
C1475 C 0.01855 0.85464 0.74563 0.0
C1476 C 0.04452 0.87457 0.73444 0.0
C1477 C 0.04355 0.87385 0.71378 0.0
C1478 C 0.99768 0.88289 0.79673 0.0
C1479 C 0.01992 0.86343 0.80909 0.0
C1480 C 0.99582 0.87964 0.77622 0.0
C1481 C 0.01572 0.85681 0.76754 0.0
C1482 C 0.03509 0.83682 0.77989 0.0
C1483 C 0.03746 0.84014 0.8005 0.0
H1484 H 0.40665 0.09 0.79628 0.0
H1485 H 0.59347 0.119 0.79629 0.0
H1486 H 0.40105 0.09682 0.76041 0.0
H1487 H 0.58825 0.12538 0.7606 0.0
H1488 H 0.54067 0.15822 0.70043 0.0
H1489 H 0.53985 0.15221 0.73623 0.0
H1490 H 0.44207 0.08096 0.72898 0.0
H1491 H 0.44194 0.08722 0.69304 0.0
C1492 C 0.44654 0.09778 0.78866 0.0
C1493 C 0.50045 0.10399 0.79924 0.0
C1494 C 0.44346 0.10157 0.76806 0.0
C1495 C 0.49411 0.11176 0.75754 0.0
C1496 C 0.54794 0.1179 0.76818 0.0
C1497 C 0.55107 0.11407 0.7887 0.0
C1498 C 0.51871 0.1413 0.70642 0.0
C1499 C 0.49164 0.12315 0.69377 0.0
C1500 C 0.51858 0.13777 0.72701 0.0
C1501 C 0.49137 0.11597 0.73559 0.0
C1502 C 0.46305 0.09806 0.72296 0.0
C1503 C 0.46326 0.10159 0.70231 0.0
H1504 H 0.57641 0.59782 0.19612 0.0
H1505 H 0.47512 0.6681 0.20152 0.0
H1506 H 0.56992 0.59177 0.23205 0.0
H1507 H 0.46953 0.66228 0.23728 0.0
H1508 H 0.40437 0.62855 0.29608 0.0
H1509 H 0.41664 0.63477 0.26055 0.0
H1510 H 0.60472 0.60849 0.26423 0.0
H1511 H 0.5921 0.60186 0.29997 0.0
C1512 C 0.55319 0.61208 0.20496 0.0
C1513 C 0.52593 0.63336 0.19586 0.0
C1514 C 0.54974 0.60867 0.22559 0.0
C1515 C 0.51877 0.62642 0.23761 0.0
C1516 C 0.49277 0.64796 0.2285 0.0
C1517 C 0.49631 0.65138 0.20794 0.0
C1518 C 0.44847 0.6241 0.28938 0.0
C1519 C 0.49728 0.61473 0.30096 0.0
C1520 C 0.45563 0.62783 0.26896 0.0
C1521 C 0.5118 0.62228 0.25946 0.0
C1522 C 0.56066 0.61278 0.271 0.0
C1523 C 0.55353 0.60911 0.29152 0.0
H1524 H 0.86846 0.35455 0.20339 0.0
H1525 H 0.05018 0.38848 0.20048 0.0
H1526 H 0.8735 0.35427 0.23929 0.0
H1527 H 0.05605 0.38757 0.23677 0.0
H1528 H 0.01162 0.40685 0.3026 0.0
H1529 H 0.01469 0.4065 0.26642 0.0
H1530 H 0.92147 0.33356 0.26632 0.0
H1531 H 0.91675 0.33433 0.3024 0.0
C1532 C 0.90986 0.36182 0.21041 0.0
C1533 C 0.959 0.3715 0.19895 0.0
C1534 C 0.91294 0.36147 0.2311 0.0
C1535 C 0.96544 0.37064 0.24109 0.0
C1536 C 0.01464 0.38051 0.22965 0.0
C1537 C 0.01143 0.38095 0.20883 0.0
C1538 C 0.99215 0.39064 0.29486 0.0
C1539 C 0.96342 0.37072 0.30546 0.0
C1540 C 0.99419 0.39038 0.27406 0.0
C1541 C 0.96776 0.37014 0.2633 0.0
C1542 C 0.94107 0.34978 0.274 0.0
C1543 C 0.93872 0.35012 0.29476 0.0
H1544 H 0.41409 0.40091 0.71925 0.0
H1545 H 0.60571 0.37879 0.72001 0.0
H1546 H 0.40766 0.39367 0.755 0.0
H1547 H 0.59955 0.37196 0.7557 0.0
H1548 H 0.55203 0.33718 0.81574 0.0
H1549 H 0.55409 0.34338 0.77992 0.0
H1550 H 0.44402 0.4112 0.78636 0.0
H1551 H 0.44109 0.40476 0.82224 0.0
C1552 C 0.45489 0.39455 0.72702 0.0
C1553 C 0.5104 0.39041 0.7167 0.0
C1554 C 0.45129 0.39053 0.74756 0.0
C1555 C 0.50304 0.38218 0.75829 0.0
C1556 C 0.55849 0.37803 0.74792 0.0
C1557 C 0.56213 0.3821 0.72743 0.0
C1558 C 0.52798 0.35336 0.80954 0.0
C1559 C 0.49651 0.3705 0.82193 0.0
C1560 C 0.52952 0.35702 0.78897 0.0
C1561 C 0.49954 0.37789 0.78019 0.0
C1562 C 0.46715 0.39479 0.79256 0.0
C1563 C 0.46572 0.39117 0.81316 0.0
H1564 H 0.91264 0.63497 0.72119 0.0
H1565 H 0.09684 0.60403 0.7203 0.0
H1566 H 0.91957 0.6406 0.75694 0.0
H1567 H 0.10418 0.61007 0.75618 0.0
H1568 H 0.06608 0.59911 0.82331 0.0
H1569 H 0.06273 0.59371 0.78735 0.0
H1570 H 0.97106 0.66618 0.78166 0.0
H1571 H 0.97345 0.67136 0.81755 0.0
C1572 C 0.95481 0.62946 0.7286 0.0
C1573 C 1.00418 0.61904 0.7178 0.0
C1574 C 0.95894 0.63285 0.74915 0.0
C1575 C 0.01252 0.62588 0.75954 0.0
C1576 C 0.06195 0.61542 0.74874 0.0
C1577 C 0.05788 0.61209 0.72813 0.0
C1578 C 0.04533 0.61393 0.81439 0.0
C1579 C 0.01978 0.63562 0.82339 0.0
C1580 C 0.04373 0.61089 0.79372 0.0
C1581 C 0.01638 0.62945 0.78152 0.0
C1582 C 0.99161 0.65129 0.79055 0.0
C1583 C 0.99331 0.65434 0.81118 0.0
loop_
_geom_bond_atom_site_label_1
_geom_bond_atom_site_label_2
_geom_bond_distance
_geom_bond_site_symmetry_2
_ccdc_geom_bond_type
O0 Tb1 2.292 . S
O0 C3 1.255 . S
Tb1 O0 2.292 . S
Tb1 O17 2.326 . S
Tb1 O19 2.500 . S
Tb1 O20 2.473 . S
Tb1 O23 2.324 . S
Eu2 O6 2.292 1_455 S
Eu2 C7 2.852 1_455 S
Eu2 O18 2.324 . S
Eu2 O22 2.326 . S
Eu2 O24 2.500 1_455 S
Eu2 O25 2.473 1_455 S
C3 O0 1.255 . S
C3 O4 1.247 . S
O4 C3 1.247 . S
C5 O17 1.242 . S
C5 O18 1.258 . S
O6 Eu2 2.292 1_655 S
O6 C8 1.255 . S
C7 Eu2 2.852 1_655 S
C7 C11 1.503 . S
C7 O24 1.273 . S
C7 O25 1.257 . S
C8 O6 1.255 . S
C8 O9 1.247 1_655 S
O9 C8 1.247 1_455 S
C10 O22 1.242 . S
C10 O23 1.258 . S
C11 C7 1.503 . S
C11 C12 1.379 . S
C11 C16 1.392 . S
C12 C11 1.379 . S
C12 C13 1.404 . S
C12 H26 0.929 . S
C13 C12 1.404 . S
C13 C14 1.389 . S
C14 C13 1.389 . S
C14 C15 1.399 . S
C14 H27 0.931 . S
C15 C14 1.399 . S
C15 C16 1.390 . S
C16 C11 1.392 . S
C16 C15 1.390 . S
C16 H28 0.929 . S
O17 Tb1 2.326 . S
O17 C5 1.242 . S
O18 Eu2 2.324 . S
O18 C5 1.258 . S
O19 Tb1 2.500 . S
O19 C21 1.273 . S
O20 Tb1 2.473 . S
O20 C21 1.257 . S
C21 O19 1.273 . S
C21 O20 1.257 . S
O22 Eu2 2.326 . S
O22 C10 1.242 . S
O23 Tb1 2.324 . S
O23 C10 1.258 . S
O24 Eu2 2.500 1_655 S
O24 C7 1.273 . S
O25 Eu2 2.473 1_655 S
O25 C7 1.257 . S
H26 C12 0.929 . S
H27 C14 0.931 . S
H28 C16 0.929 . S
O29 Tb30 2.292 . S
O29 C32 1.255 . S
Tb30 O29 2.292 . S
Tb30 O46 2.326 . S
Tb30 O48 2.500 . S
Tb30 O49 2.473 . S
Tb30 O52 2.324 . S
Eu31 O35 2.292 . S
Eu31 C36 2.852 . S
Eu31 O47 2.324 . S
Eu31 O51 2.326 . S
Eu31 O53 2.500 . S
Eu31 O54 2.473 . S
C32 O29 1.255 . S
C32 O33 1.247 . S
O33 C32 1.247 . S
C34 O46 1.242 . S
C34 O47 1.258 . S
O35 Eu31 2.292 . S
O35 C37 1.255 . S
C36 Eu31 2.852 . S
C36 C40 1.503 . S
C36 O53 1.273 . S
C36 O54 1.257 . S
C37 O35 1.255 . S
C37 O38 1.247 . S
O38 C37 1.247 . S
C39 O51 1.242 . S
C39 O52 1.258 . S
C40 C36 1.503 . S
C40 C41 1.379 . S
C40 C45 1.392 . S
C41 C40 1.379 . S
C41 C42 1.404 . S
C41 H55 0.929 . S
C42 C41 1.404 . S
C42 C43 1.389 . S
C43 C42 1.389 . S
C43 C44 1.399 . S
C43 H56 0.931 . S
C44 C43 1.399 . S
C44 C45 1.390 . S
C45 C40 1.392 . S
C45 C44 1.390 . S
C45 H57 0.929 . S
O46 Tb30 2.326 . S
O46 C34 1.242 . S
O47 Eu31 2.324 . S
O47 C34 1.258 . S
O48 Tb30 2.500 . S
O48 C50 1.273 . S
O49 Tb30 2.473 . S
O49 C50 1.257 . S
C50 O48 1.273 . S
C50 O49 1.257 . S
O51 Eu31 2.326 . S
O51 C39 1.242 . S
O52 Tb30 2.324 . S
O52 C39 1.258 . S
O53 Eu31 2.500 . S
O53 C36 1.273 . S
O54 Eu31 2.473 . S
O54 C36 1.257 . S
H55 C41 0.929 . S
H56 C43 0.931 . S
H57 C45 0.929 . S
O58 Tb59 2.292 . S
O58 C61 1.255 . S
Tb59 O58 2.292 . S
Tb59 O75 2.326 . S
Tb59 O77 2.500 . S
Tb59 O78 2.473 . S
Tb59 O81 2.324 . S
Eu60 O64 2.292 . S
Eu60 C65 2.852 . S
Eu60 O76 2.324 . S
Eu60 O80 2.326 . S
Eu60 O82 2.500 . S
Eu60 O83 2.473 . S
C61 O58 1.255 . S
C61 O62 1.247 . S
O62 C61 1.247 . S
C63 O75 1.242 . S
C63 O76 1.258 . S
O64 Eu60 2.292 . S
O64 C66 1.255 . S
C65 Eu60 2.852 . S
C65 C69 1.503 . S
C65 O82 1.273 . S
C65 O83 1.257 . S
C66 O64 1.255 . S
C66 O67 1.247 . S
O67 C66 1.247 . S
C68 O80 1.242 . S
C68 O81 1.258 . S
C69 C65 1.503 . S
C69 C70 1.379 . S
C69 C74 1.392 . S
C70 C69 1.379 . S
C70 C71 1.404 . S
C70 H84 0.929 . S
C71 C70 1.404 . S
C71 C72 1.389 . S
C72 C71 1.389 . S
C72 C73 1.399 . S
C72 H85 0.931 . S
C73 C72 1.399 . S
C73 C74 1.390 . S
C74 C69 1.392 . S
C74 C73 1.390 . S
C74 H86 0.929 . S
O75 Tb59 2.326 . S
O75 C63 1.242 . S
O76 Eu60 2.324 . S
O76 C63 1.258 . S
O77 Tb59 2.500 . S
O77 C79 1.273 . S
O78 Tb59 2.473 . S
O78 C79 1.257 . S
C79 O77 1.273 . S
C79 O78 1.257 . S
O80 Eu60 2.326 . S
O80 C68 1.242 . S
O81 Tb59 2.324 . S
O81 C68 1.258 . S
O82 Eu60 2.500 . S
O82 C65 1.273 . S
O83 Eu60 2.473 . S
O83 C65 1.257 . S
H84 C70 0.929 . S
H85 C72 0.931 . S
H86 C74 0.929 . S
O87 Tb88 2.292 . S
O87 C90 1.255 . S
Tb88 O87 2.292 . S
Tb88 O104 2.326 . S
Tb88 O106 2.500 . S
Tb88 O107 2.473 . S
Tb88 O110 2.324 . S
Eu89 O93 2.292 1_655 S
Eu89 C94 2.852 1_655 S
Eu89 O105 2.324 . S
Eu89 O109 2.326 . S
Eu89 O111 2.500 1_655 S
Eu89 O112 2.473 1_655 S
C90 O87 1.255 . S
C90 O91 1.247 . S
O91 C90 1.247 . S
C92 O104 1.242 . S
C92 O105 1.258 . S
O93 Eu89 2.292 1_455 S
O93 C95 1.255 . S
C94 Eu89 2.852 1_455 S
C94 C98 1.503 . S
C94 O111 1.273 . S
C94 O112 1.257 . S
C95 O93 1.255 . S
C95 O96 1.247 1_455 S
O96 C95 1.247 1_655 S
C97 O109 1.242 . S
C97 O110 1.258 . S
C98 C94 1.503 . S
C98 C99 1.379 . S
C98 C103 1.392 . S
C99 C98 1.379 . S
C99 C100 1.404 . S
C99 H113 0.929 . S
C100 C99 1.404 . S
C100 C101 1.389 . S
C101 C100 1.389 . S
C101 C102 1.399 . S
C101 H114 0.931 . S
C102 C101 1.399 . S
C102 C103 1.390 . S
C103 C98 1.392 . S
C103 C102 1.390 . S
C103 H115 0.929 . S
O104 Tb88 2.326 . S
O104 C92 1.242 . S
O105 Eu89 2.324 . S
O105 C92 1.258 . S
O106 Tb88 2.500 . S
O106 C108 1.273 . S
O107 Tb88 2.473 . S
O107 C108 1.257 . S
C108 O106 1.273 . S
C108 O107 1.257 . S
O109 Eu89 2.326 . S
O109 C97 1.242 . S
O110 Tb88 2.324 . S
O110 C97 1.258 . S
O111 Eu89 2.500 1_455 S
O111 C94 1.273 . S
O112 Eu89 2.473 1_455 S
O112 C94 1.257 . S
H113 C99 0.929 . S
H114 C101 0.931 . S
H115 C103 0.929 . S
O116 Tb117 2.292 . S
O116 C119 1.255 . S
Tb117 O116 2.292 . S
Tb117 O133 2.326 . S
Tb117 O135 2.500 . S
Tb117 O136 2.473 . S
Tb117 O139 2.324 . S
Eu118 O122 2.292 1_655 S
Eu118 C123 2.852 1_655 S
Eu118 O134 2.324 . S
Eu118 O138 2.326 . S
Eu118 O140 2.500 1_655 S
Eu118 O141 2.473 1_655 S
C119 O116 1.255 . S
C119 O120 1.247 . S
O120 C119 1.247 . S
C121 O133 1.242 . S
C121 O134 1.258 . S
O122 Eu118 2.292 1_455 S
O122 C124 1.255 . S
C123 Eu118 2.852 1_455 S
C123 C127 1.503 . S
C123 O140 1.273 . S
C123 O141 1.257 . S
C124 O122 1.255 . S
C124 O125 1.247 1_455 S
O125 C124 1.247 1_655 S
C126 O138 1.242 . S
C126 O139 1.258 . S
C127 C123 1.503 . S
C127 C128 1.379 . S
C127 C132 1.392 . S
C128 C127 1.379 . S
C128 C129 1.404 . S
C128 H142 0.929 . S
C129 C128 1.404 . S
C129 C130 1.389 . S
C130 C129 1.389 . S
C130 C131 1.399 . S
C130 H143 0.931 . S
C131 C130 1.399 . S
C131 C132 1.390 . S
C132 C127 1.392 . S
C132 C131 1.390 . S
C132 H144 0.929 . S
O133 Tb117 2.326 . S
O133 C121 1.242 . S
O134 Eu118 2.324 . S
O134 C121 1.258 . S
O135 Tb117 2.500 . S
O135 C137 1.273 . S
O136 Tb117 2.473 . S
O136 C137 1.257 . S
C137 O135 1.273 . S
C137 O136 1.257 . S
O138 Eu118 2.326 . S
O138 C126 1.242 . S
O139 Tb117 2.324 . S
O139 C126 1.258 . S
O140 Eu118 2.500 1_455 S
O140 C123 1.273 . S
O141 Eu118 2.473 1_455 S
O141 C123 1.257 . S
H142 C128 0.929 . S
H143 C130 0.931 . S
H144 C132 0.929 . S
O145 Tb146 2.292 . S
O145 C148 1.255 . S
Tb146 O145 2.292 . S
Tb146 O162 2.326 . S
Tb146 O164 2.500 . S
Tb146 O165 2.473 . S
Tb146 O168 2.324 . S
Eu147 O151 2.292 . S
Eu147 C152 2.852 . S
Eu147 O163 2.324 . S
Eu147 O167 2.326 . S
Eu147 O169 2.500 . S
Eu147 O170 2.473 . S
C148 O145 1.255 . S
C148 O149 1.247 . S
O149 C148 1.247 . S
C150 O162 1.242 . S
C150 O163 1.258 . S
O151 Eu147 2.292 . S
O151 C153 1.255 . S
C152 Eu147 2.852 . S
C152 C156 1.503 . S
C152 O169 1.273 . S
C152 O170 1.257 . S
C153 O151 1.255 . S
C153 O154 1.247 . S
O154 C153 1.247 . S
C155 O167 1.242 . S
C155 O168 1.258 . S
C156 C152 1.503 . S
C156 C157 1.379 . S
C156 C161 1.392 . S
C157 C156 1.379 . S
C157 C158 1.404 . S
C157 H171 0.929 . S
C158 C157 1.404 . S
C158 C159 1.389 . S
C159 C158 1.389 . S
C159 C160 1.399 . S
C159 H172 0.931 . S
C160 C159 1.399 . S
C160 C161 1.390 . S
C161 C156 1.392 . S
C161 C160 1.390 . S
C161 H173 0.929 . S
O162 Tb146 2.326 . S
O162 C150 1.242 . S
O163 Eu147 2.324 . S
O163 C150 1.258 . S
O164 Tb146 2.500 . S
O164 C166 1.273 . S
O165 Tb146 2.473 . S
O165 C166 1.257 . S
C166 O164 1.273 . S
C166 O165 1.257 . S
O167 Eu147 2.326 . S
O167 C155 1.242 . S
O168 Tb146 2.324 . S
O168 C155 1.258 . S
O169 Eu147 2.500 . S
O169 C152 1.273 . S
O170 Eu147 2.473 . S
O170 C152 1.257 . S
H171 C157 0.929 . S
H172 C159 0.931 . S
H173 C161 0.929 . S
O174 Tb175 2.292 . S
O174 C177 1.255 . S
Tb175 O174 2.292 . S
Tb175 O191 2.326 . S
Tb175 O193 2.500 . S
Tb175 O194 2.473 . S
Tb175 O197 2.324 . S
Eu176 O180 2.292 . S
Eu176 C181 2.852 . S
Eu176 O192 2.324 . S
Eu176 O196 2.326 . S
Eu176 O198 2.500 . S
Eu176 O199 2.473 . S
C177 O174 1.255 . S
C177 O178 1.247 . S
O178 C177 1.247 . S
C179 O191 1.242 . S
C179 O192 1.258 . S
O180 Eu176 2.292 . S
O180 C182 1.255 . S
C181 Eu176 2.852 . S
C181 C185 1.503 . S
C181 O198 1.273 . S
C181 O199 1.257 . S
C182 O180 1.255 . S
C182 O183 1.247 . S
O183 C182 1.247 . S
C184 O196 1.242 . S
C184 O197 1.258 . S
C185 C181 1.503 . S
C185 C186 1.379 . S
C185 C190 1.392 . S
C186 C185 1.379 . S
C186 C187 1.404 . S
C186 H200 0.929 . S
C187 C186 1.404 . S
C187 C188 1.389 . S
C188 C187 1.389 . S
C188 C189 1.399 . S
C188 H201 0.931 . S
C189 C188 1.399 . S
C189 C190 1.390 . S
C190 C185 1.392 . S
C190 C189 1.390 . S
C190 H202 0.929 . S
O191 Tb175 2.326 . S
O191 C179 1.242 . S
O192 Eu176 2.324 . S
O192 C179 1.258 . S
O193 Tb175 2.500 . S
O193 C195 1.273 . S
O194 Tb175 2.473 . S
O194 C195 1.257 . S
C195 O193 1.273 . S
C195 O194 1.257 . S
O196 Eu176 2.326 . S
O196 C184 1.242 . S
O197 Tb175 2.324 . S
O197 C184 1.258 . S
O198 Eu176 2.500 . S
O198 C181 1.273 . S
O199 Eu176 2.473 . S
O199 C181 1.257 . S
H200 C186 0.929 . S
H201 C188 0.931 . S
H202 C190 0.929 . S
O203 Tb204 2.292 . S
O203 C206 1.255 . S
Tb204 O203 2.292 . S
Tb204 O220 2.326 . S
Tb204 O222 2.500 . S
Tb204 O223 2.473 . S
Tb204 O226 2.324 . S
Eu205 O209 2.292 1_455 S
Eu205 C210 2.852 1_455 S
Eu205 O221 2.324 . S
Eu205 O225 2.326 . S
Eu205 O227 2.500 1_455 S
Eu205 O228 2.473 1_455 S
C206 O203 1.255 . S
C206 O207 1.247 . S
O207 C206 1.247 . S
C208 O220 1.242 . S
C208 O221 1.258 . S
O209 Eu205 2.292 1_655 S
O209 C211 1.255 . S
C210 Eu205 2.852 1_655 S
C210 C214 1.503 . S
C210 O227 1.273 . S
C210 O228 1.257 . S
C211 O209 1.255 . S
C211 O212 1.247 1_655 S
O212 C211 1.247 1_455 S
C213 O225 1.242 . S
C213 O226 1.258 . S
C214 C210 1.503 . S
C214 C215 1.379 . S
C214 C219 1.392 . S
C215 C214 1.379 . S
C215 C216 1.404 . S
C215 H229 0.929 . S
C216 C215 1.404 . S
C216 C217 1.389 . S
C217 C216 1.389 . S
C217 C218 1.399 . S
C217 H230 0.931 . S
C218 C217 1.399 . S
C218 C219 1.390 . S
C219 C214 1.392 . S
C219 C218 1.390 . S
C219 H231 0.929 . S
O220 Tb204 2.326 . S
O220 C208 1.242 . S
O221 Eu205 2.324 . S
O221 C208 1.258 . S
O222 Tb204 2.500 . S
O222 C224 1.273 . S
O223 Tb204 2.473 . S
O223 C224 1.257 . S
C224 O222 1.273 . S
C224 O223 1.257 . S
O225 Eu205 2.326 . S
O225 C213 1.242 . S
O226 Tb204 2.324 . S
O226 C213 1.258 . S
O227 Eu205 2.500 1_655 S
O227 C210 1.273 . S
O228 Eu205 2.473 1_655 S
O228 C210 1.257 . S
H229 C215 0.929 . S
H230 C217 0.931 . S
H231 C219 0.929 . S
O232 Tb233 2.292 . S
O232 C235 1.255 . S
Tb233 O232 2.292 . S
Tb233 O249 2.326 . S
Tb233 O251 2.500 . S
Tb233 O252 2.473 . S
Tb233 O255 2.324 . S
Eu234 O238 2.292 . S
Eu234 C239 2.852 . S
Eu234 O250 2.324 . S
Eu234 O254 2.326 . S
Eu234 O256 2.500 . S
Eu234 O257 2.473 . S
C235 O232 1.255 . S
C235 O236 1.247 . S
O236 C235 1.247 . S
C237 O249 1.242 . S
C237 O250 1.258 . S
O238 Eu234 2.292 . S
O238 C240 1.255 . S
C239 Eu234 2.852 . S
C239 C243 1.503 . S
C239 O256 1.273 . S
C239 O257 1.257 . S
C240 O238 1.255 . S
C240 O241 1.247 . S
O241 C240 1.247 . S
C242 O254 1.242 . S
C242 O255 1.258 . S
C243 C239 1.503 . S
C243 C244 1.379 . S
C243 C248 1.392 . S
C244 C243 1.379 . S
C244 C245 1.404 . S
C244 H258 0.929 . S
C245 C244 1.404 . S
C245 C246 1.389 . S
C246 C245 1.389 . S
C246 C247 1.399 . S
C246 H259 0.931 . S
C247 C246 1.399 . S
C247 C248 1.390 . S
C248 C243 1.392 . S
C248 C247 1.390 . S
C248 H260 0.929 . S
O249 Tb233 2.326 . S
O249 C237 1.242 . S
O250 Eu234 2.324 . S
O250 C237 1.258 . S
O251 Tb233 2.500 . S
O251 C253 1.273 . S
O252 Tb233 2.473 . S
O252 C253 1.257 . S
C253 O251 1.273 . S
C253 O252 1.257 . S
O254 Eu234 2.326 . S
O254 C242 1.242 . S
O255 Tb233 2.324 . S
O255 C242 1.258 . S
O256 Eu234 2.500 . S
O256 C239 1.273 . S
O257 Eu234 2.473 . S
O257 C239 1.257 . S
H258 C244 0.929 . S
H259 C246 0.931 . S
H260 C248 0.929 . S
O261 Tb262 2.292 . S
O261 C264 1.255 . S
Tb262 O261 2.292 . S
Tb262 O278 2.326 . S
Tb262 O280 2.500 . S
Tb262 O281 2.473 . S
Tb262 O284 2.324 . S
Eu263 O267 2.292 1_655 S
Eu263 C268 2.852 1_655 S
Eu263 O279 2.324 . S
Eu263 O283 2.326 . S
Eu263 O285 2.500 1_655 S
Eu263 O286 2.473 1_655 S
C264 O261 1.255 . S
C264 O265 1.247 . S
O265 C264 1.247 . S
C266 O278 1.242 . S
C266 O279 1.258 . S
O267 Eu263 2.292 1_455 S
O267 C269 1.255 . S
C268 Eu263 2.852 1_455 S
C268 C272 1.503 . S
C268 O285 1.273 . S
C268 O286 1.257 . S
C269 O267 1.255 . S
C269 O270 1.247 1_455 S
O270 C269 1.247 1_655 S
C271 O283 1.242 . S
C271 O284 1.258 . S
C272 C268 1.503 . S
C272 C273 1.379 . S
C272 C277 1.392 . S
C273 C272 1.379 . S
C273 C274 1.404 . S
C273 H287 0.929 . S
C274 C273 1.404 . S
C274 C275 1.389 . S
C275 C274 1.389 . S
C275 C276 1.399 . S
C275 H288 0.931 . S
C276 C275 1.399 . S
C276 C277 1.390 . S
C277 C272 1.392 . S
C277 C276 1.390 . S
C277 H289 0.929 . S
O278 Tb262 2.326 . S
O278 C266 1.242 . S
O279 Eu263 2.324 . S
O279 C266 1.258 . S
O280 Tb262 2.500 . S
O280 C282 1.273 . S
O281 Tb262 2.473 . S
O281 C282 1.257 . S
C282 O280 1.273 . S
C282 O281 1.257 . S
O283 Eu263 2.326 . S
O283 C271 1.242 . S
O284 Tb262 2.324 . S
O284 C271 1.258 . S
O285 Eu263 2.500 1_455 S
O285 C268 1.273 . S
O286 Eu263 2.473 1_455 S
O286 C268 1.257 . S
H287 C273 0.929 . S
H288 C275 0.931 . S
H289 C277 0.929 . S
O290 Tb291 2.292 . S
O290 C293 1.255 . S
Tb291 O290 2.292 . S
Tb291 O307 2.326 . S
Tb291 O309 2.500 . S
Tb291 O310 2.473 . S
Tb291 O313 2.324 . S
Eu292 O296 2.292 1_455 S
Eu292 C297 2.852 1_455 S
Eu292 O308 2.324 . S
Eu292 O312 2.326 . S
Eu292 O314 2.500 1_455 S
Eu292 O315 2.473 1_455 S
C293 O290 1.255 . S
C293 O294 1.247 . S
O294 C293 1.247 . S
C295 O307 1.242 . S
C295 O308 1.258 . S
O296 Eu292 2.292 1_655 S
O296 C298 1.255 . S
C297 Eu292 2.852 1_655 S
C297 C301 1.503 . S
C297 O314 1.273 . S
C297 O315 1.257 . S
C298 O296 1.255 . S
C298 O299 1.247 1_655 S
O299 C298 1.247 1_455 S
C300 O312 1.242 . S
C300 O313 1.258 . S
C301 C297 1.503 . S
C301 C302 1.379 . S
C301 C306 1.392 . S
C302 C301 1.379 . S
C302 C303 1.404 . S
C302 H316 0.929 . S
C303 C302 1.404 . S
C303 C304 1.389 . S
C304 C303 1.389 . S
C304 C305 1.399 . S
C304 H317 0.931 . S
C305 C304 1.399 . S
C305 C306 1.390 . S
C306 C301 1.392 . S
C306 C305 1.390 . S
C306 H318 0.929 . S
O307 Tb291 2.326 . S
O307 C295 1.242 . S
O308 Eu292 2.324 . S
O308 C295 1.258 . S
O309 Tb291 2.500 . S
O309 C311 1.273 . S
O310 Tb291 2.473 . S
O310 C311 1.257 . S
C311 O309 1.273 . S
C311 O310 1.257 . S
O312 Eu292 2.326 . S
O312 C300 1.242 . S
O313 Tb291 2.324 . S
O313 C300 1.258 . S
O314 Eu292 2.500 1_655 S
O314 C297 1.273 . S
O315 Eu292 2.473 1_655 S
O315 C297 1.257 . S
H316 C302 0.929 . S
H317 C304 0.931 . S
H318 C306 0.929 . S
O319 Tb320 2.292 . S
O319 C322 1.255 . S
Tb320 O319 2.292 . S
Tb320 O336 2.326 . S
Tb320 O338 2.500 . S
Tb320 O339 2.473 . S
Tb320 O342 2.324 . S
Eu321 O325 2.292 . S
Eu321 C326 2.852 . S
Eu321 O337 2.324 . S
Eu321 O341 2.326 . S
Eu321 O343 2.500 . S
Eu321 O344 2.473 . S
C322 O319 1.255 . S
C322 O323 1.247 . S
O323 C322 1.247 . S
C324 O336 1.242 . S
C324 O337 1.258 . S
O325 Eu321 2.292 . S
O325 C327 1.255 . S
C326 Eu321 2.852 . S
C326 C330 1.503 . S
C326 O343 1.273 . S
C326 O344 1.257 . S
C327 O325 1.255 . S
C327 O328 1.247 . S
O328 C327 1.247 . S
C329 O341 1.242 . S
C329 O342 1.258 . S
C330 C326 1.503 . S
C330 C331 1.379 . S
C330 C335 1.392 . S
C331 C330 1.379 . S
C331 C332 1.404 . S
C331 H345 0.929 . S
C332 C331 1.404 . S
C332 C333 1.389 . S
C333 C332 1.389 . S
C333 C334 1.399 . S
C333 H346 0.931 . S
C334 C333 1.399 . S
C334 C335 1.390 . S
C335 C330 1.392 . S
C335 C334 1.390 . S
C335 H347 0.929 . S
O336 Tb320 2.326 . S
O336 C324 1.242 . S
O337 Eu321 2.324 . S
O337 C324 1.258 . S
O338 Tb320 2.500 . S
O338 C340 1.273 . S
O339 Tb320 2.473 . S
O339 C340 1.257 . S
C340 O338 1.273 . S
C340 O339 1.257 . S
O341 Eu321 2.326 . S
O341 C329 1.242 . S
O342 Tb320 2.324 . S
O342 C329 1.258 . S
O343 Eu321 2.500 . S
O343 C326 1.273 . S
O344 Eu321 2.473 . S
O344 C326 1.257 . S
H345 C331 0.929 . S
H346 C333 0.931 . S
H347 C335 0.929 . S
O348 Tb349 2.292 . S
O348 C351 1.255 . S
Tb349 O348 2.292 . S
Tb349 O365 2.326 . S
Tb349 O367 2.500 . S
Tb349 O368 2.473 . S
Tb349 O371 2.324 . S
Eu350 O354 2.292 . S
Eu350 C355 2.852 . S
Eu350 O366 2.324 . S
Eu350 O370 2.326 . S
Eu350 O372 2.500 . S
Eu350 O373 2.473 . S
C351 O348 1.255 . S
C351 O352 1.247 . S
O352 C351 1.247 . S
C353 O365 1.242 . S
C353 O366 1.258 . S
O354 Eu350 2.292 . S
O354 C356 1.255 . S
C355 Eu350 2.852 . S
C355 C359 1.503 . S
C355 O372 1.273 . S
C355 O373 1.257 . S
C356 O354 1.255 . S
C356 O357 1.247 . S
O357 C356 1.247 . S
C358 O370 1.242 . S
C358 O371 1.258 . S
C359 C355 1.503 . S
C359 C360 1.379 . S
C359 C364 1.392 . S
C360 C359 1.379 . S
C360 C361 1.404 . S
C360 H374 0.929 . S
C361 C360 1.404 . S
C361 C362 1.389 . S
C362 C361 1.389 . S
C362 C363 1.399 . S
C362 H375 0.931 . S
C363 C362 1.399 . S
C363 C364 1.390 . S
C364 C359 1.392 . S
C364 C363 1.390 . S
C364 H376 0.929 . S
O365 Tb349 2.326 . S
O365 C353 1.242 . S
O366 Eu350 2.324 . S
O366 C353 1.258 . S
O367 Tb349 2.500 . S
O367 C369 1.273 . S
O368 Tb349 2.473 . S
O368 C369 1.257 . S
C369 O367 1.273 . S
C369 O368 1.257 . S
O370 Eu350 2.326 . S
O370 C358 1.242 . S
O371 Tb349 2.324 . S
O371 C358 1.258 . S
O372 Eu350 2.500 . S
O372 C355 1.273 . S
O373 Eu350 2.473 . S
O373 C355 1.257 . S
H374 C360 0.929 . S
H375 C362 0.931 . S
H376 C364 0.929 . S
O377 Tb378 2.292 . S
O377 C380 1.255 . S
Tb378 O377 2.292 . S
Tb378 O394 2.326 . S
Tb378 O396 2.500 . S
Tb378 O397 2.473 . S
Tb378 O400 2.324 . S
Eu379 O383 2.292 1_455 S
Eu379 C384 2.852 1_455 S
Eu379 O395 2.324 . S
Eu379 O399 2.326 . S
Eu379 O401 2.500 1_455 S
Eu379 O402 2.473 1_455 S
C380 O377 1.255 . S
C380 O381 1.247 . S
O381 C380 1.247 . S
C382 O394 1.242 . S
C382 O395 1.258 . S
O383 Eu379 2.292 1_655 S
O383 C385 1.255 . S
C384 Eu379 2.852 1_655 S
C384 C388 1.503 . S
C384 O401 1.273 . S
C384 O402 1.257 . S
C385 O383 1.255 . S
C385 O386 1.247 1_655 S
O386 C385 1.247 1_455 S
C387 O399 1.242 . S
C387 O400 1.258 . S
C388 C384 1.503 . S
C388 C389 1.379 . S
C388 C393 1.392 . S
C389 C388 1.379 . S
C389 C390 1.404 . S
C389 H403 0.929 . S
C390 C389 1.404 . S
C390 C391 1.389 . S
C391 C390 1.389 . S
C391 C392 1.399 . S
C391 H404 0.931 . S
C392 C391 1.399 . S
C392 C393 1.390 . S
C393 C388 1.392 . S
C393 C392 1.390 . S
C393 H405 0.929 . S
O394 Tb378 2.326 . S
O394 C382 1.242 . S
O395 Eu379 2.324 . S
O395 C382 1.258 . S
O396 Tb378 2.500 . S
O396 C398 1.273 . S
O397 Tb378 2.473 . S
O397 C398 1.257 . S
C398 O396 1.273 . S
C398 O397 1.257 . S
O399 Eu379 2.326 . S
O399 C387 1.242 . S
O400 Tb378 2.324 . S
O400 C387 1.258 . S
O401 Eu379 2.500 1_655 S
O401 C384 1.273 . S
O402 Eu379 2.473 1_655 S
O402 C384 1.257 . S
H403 C389 0.929 . S
H404 C391 0.931 . S
H405 C393 0.929 . S
O406 Tb407 2.292 . S
O406 C409 1.255 . S
Tb407 O406 2.292 . S
Tb407 O423 2.326 . S
Tb407 O425 2.500 . S
Tb407 O426 2.473 . S
Tb407 O429 2.324 . S
Eu408 O412 2.292 1_655 S
Eu408 C413 2.852 1_655 S
Eu408 O424 2.324 . S
Eu408 O428 2.326 . S
Eu408 O430 2.500 1_655 S
Eu408 O431 2.473 1_655 S
C409 O406 1.255 . S
C409 O410 1.247 . S
O410 C409 1.247 . S
C411 O423 1.242 . S
C411 O424 1.258 . S
O412 Eu408 2.292 1_455 S
O412 C414 1.255 . S
C413 Eu408 2.852 1_455 S
C413 C417 1.503 . S
C413 O430 1.273 . S
C413 O431 1.257 . S
C414 O412 1.255 . S
C414 O415 1.247 1_455 S
O415 C414 1.247 1_655 S
C416 O428 1.242 . S
C416 O429 1.258 . S
C417 C413 1.503 . S
C417 C418 1.379 . S
C417 C422 1.392 . S
C418 C417 1.379 . S
C418 C419 1.404 . S
C418 H432 0.929 . S
C419 C418 1.404 . S
C419 C420 1.389 . S
C420 C419 1.389 . S
C420 C421 1.399 . S
C420 H433 0.931 . S
C421 C420 1.399 . S
C421 C422 1.390 . S
C422 C417 1.392 . S
C422 C421 1.390 . S
C422 H434 0.929 . S
O423 Tb407 2.326 . S
O423 C411 1.242 . S
O424 Eu408 2.324 . S
O424 C411 1.258 . S
O425 Tb407 2.500 . S
O425 C427 1.273 . S
O426 Tb407 2.473 . S
O426 C427 1.257 . S
C427 O425 1.273 . S
C427 O426 1.257 . S
O428 Eu408 2.326 . S
O428 C416 1.242 . S
O429 Tb407 2.324 . S
O429 C416 1.258 . S
O430 Eu408 2.500 1_455 S
O430 C413 1.273 . S
O431 Eu408 2.473 1_455 S
O431 C413 1.257 . S
H432 C418 0.929 . S
H433 C420 0.931 . S
H434 C422 0.929 . S
O435 Tb436 2.292 . S
O435 C438 1.255 . S
Tb436 O435 2.292 . S
Tb436 O452 2.326 . S
Tb436 O454 2.500 . S
Tb436 O455 2.473 . S
Tb436 O458 2.324 . S
Eu437 O441 2.292 . S
Eu437 C442 2.852 . S
Eu437 O453 2.324 . S
Eu437 O457 2.326 . S
Eu437 O459 2.500 . S
Eu437 O460 2.473 . S
C438 O435 1.255 . S
C438 O439 1.247 . S
O439 C438 1.247 . S
C440 O452 1.242 . S
C440 O453 1.258 . S
O441 Eu437 2.292 . S
O441 C443 1.255 . S
C442 Eu437 2.852 . S
C442 C446 1.503 . S
C442 O459 1.273 . S
C442 O460 1.257 . S
C443 O441 1.255 . S
C443 O444 1.247 . S
O444 C443 1.247 . S
C445 O457 1.242 . S
C445 O458 1.258 . S
C446 C442 1.503 . S
C446 C447 1.379 . S
C446 C451 1.392 . S
C447 C446 1.379 . S
C447 C448 1.404 . S
C447 H461 0.929 . S
C448 C447 1.404 . S
C448 C449 1.389 . S
C449 C448 1.389 . S
C449 C450 1.399 . S
C449 H462 0.931 . S
C450 C449 1.399 . S
C450 C451 1.390 . S
C451 C446 1.392 . S
C451 C450 1.390 . S
C451 H463 0.929 . S
O452 Tb436 2.326 . S
O452 C440 1.242 . S
O453 Eu437 2.324 . S
O453 C440 1.258 . S
O454 Tb436 2.500 . S
O454 C456 1.273 . S
O455 Tb436 2.473 . S
O455 C456 1.257 . S
C456 O454 1.273 . S
C456 O455 1.257 . S
O457 Eu437 2.326 . S
O457 C445 1.242 . S
O458 Tb436 2.324 . S
O458 C445 1.258 . S
O459 Eu437 2.500 . S
O459 C442 1.273 . S
O460 Eu437 2.473 . S
O460 C442 1.257 . S
H461 C447 0.929 . S
H462 C449 0.931 . S
H463 C451 0.929 . S
H464 C472 0.950 . S
H465 C477 0.950 . S
H466 C474 0.950 . S
H467 C476 0.950 . S
H468 C478 0.950 . S
H469 C480 0.950 . S
H470 C482 0.950 . S
H471 C483 0.950 . S
C472 H464 0.950 . S
C472 C473 1.386 . S
C472 C474 1.391 . S
C473 C472 1.386 . S
C473 C477 1.393 . S
C474 H466 0.950 . S
C474 C472 1.391 . S
C474 C475 1.400 . S
C475 C474 1.400 . S
C475 C476 1.398 . S
C475 C481 1.491 . S
C476 H467 0.950 . S
C476 C475 1.398 . S
C476 C477 1.391 . S
C477 H465 0.950 . S
C477 C473 1.393 . S
C477 C476 1.391 . S
C478 H468 0.950 . S
C478 C479 1.386 . S
C478 C480 1.391 . S
C479 C478 1.386 . S
C479 C483 1.393 . S
C480 H469 0.950 . S
C480 C478 1.391 . S
C480 C481 1.400 . S
C481 C475 1.491 . S
C481 C480 1.400 . S
C481 C482 1.398 . S
C482 H470 0.950 . S
C482 C481 1.398 . S
C482 C483 1.391 . S
C483 H471 0.950 . S
C483 C479 1.393 . S
C483 C482 1.391 . S
H484 C492 0.950 . S
H485 C497 0.950 . S
H486 C494 0.950 . S
H487 C496 0.950 . S
H488 C498 0.950 . S
H489 C500 0.950 . S
H490 C502 0.950 . S
H491 C503 0.950 . S
C492 H484 0.950 . S
C492 C493 1.386 . S
C492 C494 1.391 . S
C493 C492 1.386 . S
C493 C497 1.393 . S
C494 H486 0.950 . S
C494 C492 1.391 . S
C494 C495 1.400 . S
C495 C494 1.400 . S
C495 C496 1.398 . S
C495 C501 1.491 1_455 S
C496 H487 0.950 . S
C496 C495 1.398 . S
C496 C497 1.391 . S
C497 H485 0.950 . S
C497 C493 1.393 . S
C497 C496 1.391 . S
C498 H488 0.950 . S
C498 C499 1.386 . S
C498 C500 1.391 . S
C499 C498 1.386 . S
C499 C503 1.393 . S
C500 H489 0.950 . S
C500 C498 1.391 . S
C500 C501 1.400 . S
C501 C495 1.491 1_655 S
C501 C500 1.400 . S
C501 C502 1.398 . S
C502 H490 0.950 . S
C502 C501 1.398 . S
C502 C503 1.391 . S
C503 H491 0.950 . S
C503 C499 1.393 . S
C503 C502 1.391 . S
H504 C512 0.950 . S
H505 C517 0.950 . S
H506 C514 0.950 . S
H507 C516 0.950 . S
H508 C518 0.950 . S
H509 C520 0.950 . S
H510 C522 0.950 . S
H511 C523 0.950 . S
C512 H504 0.950 . S
C512 C513 1.386 . S
C512 C514 1.391 . S
C513 C512 1.386 . S
C513 C517 1.393 . S
C514 H506 0.950 . S
C514 C512 1.391 . S
C514 C515 1.400 . S
C515 C514 1.400 . S
C515 C516 1.398 . S
C515 C521 1.491 1_655 S
C516 H507 0.950 . S
C516 C515 1.398 . S
C516 C517 1.391 . S
C517 H505 0.950 . S
C517 C513 1.393 . S
C517 C516 1.391 . S
C518 H508 0.950 . S
C518 C519 1.386 . S
C518 C520 1.391 . S
C519 C518 1.386 . S
C519 C523 1.393 . S
C520 H509 0.950 . S
C520 C518 1.391 . S
C520 C521 1.400 . S
C521 C515 1.491 1_455 S
C521 C520 1.400 . S
C521 C522 1.398 . S
C522 H510 0.950 . S
C522 C521 1.398 . S
C522 C523 1.391 . S
C523 H511 0.950 . S
C523 C519 1.393 . S
C523 C522 1.391 . S
H524 C532 0.950 . S
H525 C537 0.950 . S
H526 C534 0.950 . S
H527 C536 0.950 . S
H528 C538 0.950 . S
H529 C540 0.950 . S
H530 C542 0.950 . S
H531 C543 0.950 . S
C532 H524 0.950 . S
C532 C533 1.386 . S
C532 C534 1.391 . S
C533 C532 1.386 . S
C533 C537 1.393 . S
C534 H526 0.950 . S
C534 C532 1.391 . S
C534 C535 1.400 . S
C535 C534 1.400 . S
C535 C536 1.398 . S
C535 C541 1.491 . S
C536 H527 0.950 . S
C536 C535 1.398 . S
C536 C537 1.391 . S
C537 H525 0.950 . S
C537 C533 1.393 . S
C537 C536 1.391 . S
C538 H528 0.950 . S
C538 C539 1.386 . S
C538 C540 1.391 . S
C539 C538 1.386 . S
C539 C543 1.393 . S
C540 H529 0.950 . S
C540 C538 1.391 . S
C540 C541 1.400 . S
C541 C535 1.491 . S
C541 C540 1.400 . S
C541 C542 1.398 . S
C542 H530 0.950 . S
C542 C541 1.398 . S
C542 C543 1.391 . S
C543 H531 0.950 . S
C543 C539 1.393 . S
C543 C542 1.391 . S
H544 C552 0.950 . S
H545 C557 0.950 . S
H546 C554 0.950 . S
H547 C556 0.950 . S
H548 C558 0.950 . S
H549 C560 0.950 . S
H550 C562 0.950 . S
H551 C563 0.950 . S
C552 H544 0.950 . S
C552 C553 1.386 . S
C552 C554 1.391 . S
C553 C552 1.386 . S
C553 C557 1.393 . S
C554 H546 0.950 . S
C554 C552 1.391 . S
C554 C555 1.400 . S
C555 C554 1.400 . S
C555 C556 1.398 . S
C555 C561 1.491 . S
C556 H547 0.950 . S
C556 C555 1.398 . S
C556 C557 1.391 . S
C557 H545 0.950 . S
C557 C553 1.393 . S
C557 C556 1.391 . S
C558 H548 0.950 . S
C558 C559 1.386 . S
C558 C560 1.391 . S
C559 C558 1.386 . S
C559 C563 1.393 . S
C560 H549 0.950 . S
C560 C558 1.391 . S
C560 C561 1.400 . S
C561 C555 1.491 . S
C561 C560 1.400 . S
C561 C562 1.398 . S
C562 H550 0.950 . S
C562 C561 1.398 . S
C562 C563 1.391 . S
C563 H551 0.950 . S
C563 C559 1.393 . S
C563 C562 1.391 . S
H564 C572 0.950 . S
H565 C577 0.950 . S
H566 C574 0.950 . S
H567 C576 0.950 . S
H568 C578 0.950 . S
H569 C580 0.950 . S
H570 C582 0.950 . S
H571 C583 0.950 . S
C572 H564 0.950 . S
C572 C573 1.386 . S
C572 C574 1.391 . S
C573 C572 1.386 . S
C573 C577 1.393 . S
C574 H566 0.950 . S
C574 C572 1.391 . S
C574 C575 1.400 . S
C575 C574 1.400 . S
C575 C576 1.398 . S
C575 C581 1.491 1_455 S
C576 H567 0.950 . S
C576 C575 1.398 . S
C576 C577 1.391 . S
C577 H565 0.950 . S
C577 C573 1.393 . S
C577 C576 1.391 . S
C578 H568 0.950 . S
C578 C579 1.386 . S
C578 C580 1.391 . S
C579 C578 1.386 . S
C579 C583 1.393 . S
C580 H569 0.950 . S
C580 C578 1.391 . S
C580 C581 1.400 . S
C581 C575 1.491 1_655 S
C581 C580 1.400 . S
C581 C582 1.398 . S
C582 H570 0.950 . S
C582 C581 1.398 . S
C582 C583 1.391 . S
C583 H571 0.950 . S
C583 C579 1.393 . S
C583 C582 1.391 . S
H584 C592 0.950 . S
H585 C597 0.950 . S
H586 C594 0.950 . S
H587 C596 0.950 . S
H588 C598 0.950 . S
H589 C600 0.950 . S
H590 C602 0.950 . S
H591 C603 0.950 . S
C592 H584 0.950 . S
C592 C593 1.386 . S
C592 C594 1.391 . S
C593 C592 1.386 . S
C593 C597 1.393 . S
C594 H586 0.950 . S
C594 C592 1.391 . S
C594 C595 1.400 . S
C595 C594 1.400 . S
C595 C596 1.398 . S
C595 C601 1.491 1_655 S
C596 H587 0.950 . S
C596 C595 1.398 . S
C596 C597 1.391 . S
C597 H585 0.950 . S
C597 C593 1.393 . S
C597 C596 1.391 . S
C598 H588 0.950 . S
C598 C599 1.386 . S
C598 C600 1.391 . S
C599 C598 1.386 . S
C599 C603 1.393 . S
C600 H589 0.950 . S
C600 C598 1.391 . S
C600 C601 1.400 . S
C601 C595 1.491 1_455 S
C601 C600 1.400 . S
C601 C602 1.398 . S
C602 H590 0.950 . S
C602 C601 1.398 . S
C602 C603 1.391 . S
C603 H591 0.950 . S
C603 C599 1.393 . S
C603 C602 1.391 . S
H604 C612 0.950 . S
H605 C617 0.950 . S
H606 C614 0.950 . S
H607 C616 0.950 . S
H608 C618 0.950 . S
H609 C620 0.950 . S
H610 C622 0.950 . S
H611 C623 0.950 . S
C612 H604 0.950 . S
C612 C613 1.386 . S
C612 C614 1.391 . S
C613 C612 1.386 . S
C613 C617 1.393 . S
C614 H606 0.950 . S
C614 C612 1.391 . S
C614 C615 1.400 . S
C615 C614 1.400 . S
C615 C616 1.398 . S
C615 C621 1.491 . S
C616 H607 0.950 . S
C616 C615 1.398 . S
C616 C617 1.391 . S
C617 H605 0.950 . S
C617 C613 1.393 . S
C617 C616 1.391 . S
C618 H608 0.950 . S
C618 C619 1.386 . S
C618 C620 1.391 . S
C619 C618 1.386 . S
C619 C623 1.393 . S
C620 H609 0.950 . S
C620 C618 1.391 . S
C620 C621 1.400 . S
C621 C615 1.491 . S
C621 C620 1.400 . S
C621 C622 1.398 . S
C622 H610 0.950 . S
C622 C621 1.398 . S
C622 C623 1.391 . S
C623 H611 0.950 . S
C623 C619 1.393 . S
C623 C622 1.391 . S
H624 C632 0.950 . S
H625 C637 0.950 . S
H626 C634 0.950 . S
H627 C636 0.950 . S
H628 C638 0.950 . S
H629 C640 0.950 . S
H630 C642 0.950 . S
H631 C643 0.950 . S
C632 H624 0.950 . S
C632 C633 1.386 . S
C632 C634 1.391 . S
C633 C632 1.386 . S
C633 C637 1.393 . S
C634 H626 0.950 . S
C634 C632 1.391 . S
C634 C635 1.400 . S
C635 C634 1.400 . S
C635 C636 1.398 . S
C635 C641 1.491 1_655 S
C636 H627 0.950 . S
C636 C635 1.398 . S
C636 C637 1.391 . S
C637 H625 0.950 . S
C637 C633 1.393 . S
C637 C636 1.391 . S
C638 H628 0.950 . S
C638 C639 1.386 . S
C638 C640 1.391 . S
C639 C638 1.386 . S
C639 C643 1.393 . S
C640 H629 0.950 . S
C640 C638 1.391 . S
C640 C641 1.400 . S
C641 C635 1.491 1_455 S
C641 C640 1.400 . S
C641 C642 1.398 . S
C642 H630 0.950 . S
C642 C641 1.398 . S
C642 C643 1.391 . S
C643 H631 0.950 . S
C643 C639 1.393 . S
C643 C642 1.391 . S
H644 C652 0.950 . S
H645 C657 0.950 . S
H646 C654 0.950 . S
H647 C656 0.950 . S
H648 C658 0.950 . S
H649 C660 0.950 . S
H650 C662 0.950 . S
H651 C663 0.950 . S
C652 H644 0.950 . S
C652 C653 1.386 . S
C652 C654 1.391 . S
C653 C652 1.386 . S
C653 C657 1.393 . S
C654 H646 0.950 . S
C654 C652 1.391 . S
C654 C655 1.400 . S
C655 C654 1.400 . S
C655 C656 1.398 . S
C655 C661 1.491 . S
C656 H647 0.950 . S
C656 C655 1.398 . S
C656 C657 1.391 . S
C657 H645 0.950 . S
C657 C653 1.393 . S
C657 C656 1.391 . S
C658 H648 0.950 . S
C658 C659 1.386 . S
C658 C660 1.391 . S
C659 C658 1.386 . S
C659 C663 1.393 . S
C660 H649 0.950 . S
C660 C658 1.391 . S
C660 C661 1.400 . S
C661 C655 1.491 . S
C661 C660 1.400 . S
C661 C662 1.398 . S
C662 H650 0.950 . S
C662 C661 1.398 . S
C662 C663 1.391 . S
C663 H651 0.950 . S
C663 C659 1.393 . S
C663 C662 1.391 . S
H664 C672 0.950 . S
H665 C677 0.950 . S
H666 C674 0.950 . S
H667 C676 0.950 . S
H668 C678 0.950 . S
H669 C680 0.950 . S
H670 C682 0.950 . S
H671 C683 0.950 . S
C672 H664 0.950 . S
C672 C673 1.386 . S
C672 C674 1.391 . S
C673 C672 1.386 . S
C673 C677 1.393 . S
C674 H666 0.950 . S
C674 C672 1.391 . S
C674 C675 1.400 . S
C675 C674 1.400 . S
C675 C676 1.398 . S
C675 C681 1.491 . S
C676 H667 0.950 . S
C676 C675 1.398 . S
C676 C677 1.391 . S
C677 H665 0.950 . S
C677 C673 1.393 . S
C677 C676 1.391 . S
C678 H668 0.950 . S
C678 C679 1.386 . S
C678 C680 1.391 . S
C679 C678 1.386 . S
C679 C683 1.393 . S
C680 H669 0.950 . S
C680 C678 1.391 . S
C680 C681 1.400 . S
C681 C675 1.491 . S
C681 C680 1.400 . S
C681 C682 1.398 . S
C682 H670 0.950 . S
C682 C681 1.398 . S
C682 C683 1.391 . S
C683 H671 0.950 . S
C683 C679 1.393 . S
C683 C682 1.391 . S
H684 C692 0.950 . S
H685 C697 0.950 . S
H686 C694 0.950 . S
H687 C696 0.950 . S
H688 C698 0.950 . S
H689 C700 0.950 . S
H690 C702 0.950 . S
H691 C703 0.950 . S
C692 H684 0.950 . S
C692 C693 1.386 . S
C692 C694 1.391 . S
C693 C692 1.386 . S
C693 C697 1.393 . S
C694 H686 0.950 . S
C694 C692 1.391 . S
C694 C695 1.400 . S
C695 C694 1.400 . S
C695 C696 1.398 . S
C695 C701 1.491 1_455 S
C696 H687 0.950 . S
C696 C695 1.398 . S
C696 C697 1.391 . S
C697 H685 0.950 . S
C697 C693 1.393 . S
C697 C696 1.391 . S
C698 H688 0.950 . S
C698 C699 1.386 . S
C698 C700 1.391 . S
C699 C698 1.386 . S
C699 C703 1.393 . S
C700 H689 0.950 . S
C700 C698 1.391 . S
C700 C701 1.400 . S
C701 C695 1.491 1_655 S
C701 C700 1.400 . S
C701 C702 1.398 . S
C702 H690 0.950 . S
C702 C701 1.398 . S
C702 C703 1.391 . S
C703 H691 0.950 . S
C703 C699 1.393 . S
C703 C702 1.391 . S
H704 C712 0.950 . S
H705 C717 0.950 . S
H706 C714 0.950 . S
H707 C716 0.950 . S
H708 C718 0.950 . S
H709 C720 0.950 . S
H710 C722 0.950 . S
H711 C723 0.950 . S
C712 H704 0.950 . S
C712 C713 1.386 . S
C712 C714 1.391 . S
C713 C712 1.386 . S
C713 C717 1.393 . S
C714 H706 0.950 . S
C714 C712 1.391 . S
C714 C715 1.400 . S
C715 C714 1.400 . S
C715 C716 1.398 . S
C715 C721 1.491 1_455 S
C716 H707 0.950 . S
C716 C715 1.398 . S
C716 C717 1.391 . S
C717 H705 0.950 . S
C717 C713 1.393 . S
C717 C716 1.391 . S
C718 H708 0.950 . S
C718 C719 1.386 . S
C718 C720 1.391 . S
C719 C718 1.386 . S
C719 C723 1.393 . S
C720 H709 0.950 . S
C720 C718 1.391 . S
C720 C721 1.400 . S
C721 C715 1.491 1_655 S
C721 C720 1.400 . S
C721 C722 1.398 . S
C722 H710 0.950 . S
C722 C721 1.398 . S
C722 C723 1.391 . S
C723 H711 0.950 . S
C723 C719 1.393 . S
C723 C722 1.391 . S
H724 C732 0.950 . S
H725 C737 0.950 . S
H726 C734 0.950 . S
H727 C736 0.950 . S
H728 C738 0.950 . S
H729 C740 0.950 . S
H730 C742 0.950 . S
H731 C743 0.950 . S
C732 H724 0.950 . S
C732 C733 1.386 . S
C732 C734 1.391 . S
C733 C732 1.386 . S
C733 C737 1.393 . S
C734 H726 0.950 . S
C734 C732 1.391 . S
C734 C735 1.400 . S
C735 C734 1.400 . S
C735 C736 1.398 . S
C735 C741 1.491 . S
C736 H727 0.950 . S
C736 C735 1.398 . S
C736 C737 1.391 . S
C737 H725 0.950 . S
C737 C733 1.393 . S
C737 C736 1.391 . S
C738 H728 0.950 . S
C738 C739 1.386 . S
C738 C740 1.391 . S
C739 C738 1.386 . S
C739 C743 1.393 . S
C740 H729 0.950 . S
C740 C738 1.391 . S
C740 C741 1.400 . S
C741 C735 1.491 . S
C741 C740 1.400 . S
C741 C742 1.398 . S
C742 H730 0.950 . S
C742 C741 1.398 . S
C742 C743 1.391 . S
C743 H731 0.950 . S
C743 C739 1.393 . S
C743 C742 1.391 . S
H744 C752 0.950 . S
H745 C757 0.950 . S
H746 C754 0.950 . S
H747 C756 0.950 . S
H748 C758 0.950 . S
H749 C760 0.950 . S
H750 C762 0.950 . S
H751 C763 0.950 . S
C752 H744 0.950 . S
C752 C753 1.386 . S
C752 C754 1.391 . S
C753 C752 1.386 . S
C753 C757 1.393 . S
C754 H746 0.950 . S
C754 C752 1.391 . S
C754 C755 1.400 . S
C755 C754 1.400 . S
C755 C756 1.398 . S
C755 C761 1.491 . S
C756 H747 0.950 . S
C756 C755 1.398 . S
C756 C757 1.391 . S
C757 H745 0.950 . S
C757 C753 1.393 . S
C757 C756 1.391 . S
C758 H748 0.950 . S
C758 C759 1.386 . S
C758 C760 1.391 . S
C759 C758 1.386 . S
C759 C763 1.393 . S
C760 H749 0.950 . S
C760 C758 1.391 . S
C760 C761 1.400 . S
C761 C755 1.491 . S
C761 C760 1.400 . S
C761 C762 1.398 . S
C762 H750 0.950 . S
C762 C761 1.398 . S
C762 C763 1.391 . S
C763 H751 0.950 . S
C763 C759 1.393 . S
C763 C762 1.391 . S
H764 C772 0.950 . S
H765 C777 0.950 . S
H766 C774 0.950 . S
H767 C776 0.950 . S
H768 C778 0.950 . S
H769 C780 0.950 . S
H770 C782 0.950 . S
H771 C783 0.950 . S
C772 H764 0.950 . S
C772 C773 1.386 . S
C772 C774 1.391 . S
C773 C772 1.386 . S
C773 C777 1.393 . S
C774 H766 0.950 . S
C774 C772 1.391 . S
C774 C775 1.400 . S
C775 C774 1.400 . S
C775 C776 1.398 . S
C775 C781 1.491 1_455 S
C776 H767 0.950 . S
C776 C775 1.398 . S
C776 C777 1.391 . S
C777 H765 0.950 . S
C777 C773 1.393 . S
C777 C776 1.391 . S
C778 H768 0.950 . S
C778 C779 1.386 . S
C778 C780 1.391 . S
C779 C778 1.386 . S
C779 C783 1.393 . S
C780 H769 0.950 . S
C780 C778 1.391 . S
C780 C781 1.400 . S
C781 C775 1.491 1_655 S
C781 C780 1.400 . S
C781 C782 1.398 . S
C782 H770 0.950 . S
C782 C781 1.398 . S
C782 C783 1.391 . S
C783 H771 0.950 . S
C783 C779 1.393 . S
C783 C782 1.391 . S
H784 C792 0.950 . S
H785 C797 0.950 . S
H786 C794 0.914 1_556 S
H787 C796 0.950 . S
H788 C798 0.950 . S
H789 C800 0.950 . S
H790 C802 0.950 . S
H791 C803 0.950 . S
C792 H784 0.950 . S
C792 C793 1.386 . S
C792 C794 1.391 . S
C793 C792 1.386 . S
C793 C797 1.393 . S
C794 H786 0.914 1_554 S
C794 C792 1.391 . S
C794 C795 1.400 . S
C795 C794 1.400 . S
C795 C796 1.398 . S
C795 C801 1.491 1_554 S
C796 H787 0.950 . S
C796 C795 1.398 . S
C796 C797 1.391 . S
C797 H785 0.950 . S
C797 C793 1.393 . S
C797 C796 1.391 . S
C798 H788 0.950 . S
C798 C799 1.386 . S
C798 C800 1.391 . S
C799 C798 1.386 . S
C799 C803 1.393 . S
C800 H789 0.950 . S
C800 C798 1.391 . S
C800 C801 1.400 . S
C801 C795 1.491 1_556 S
C801 C800 1.400 . S
C801 C802 1.398 . S
C802 H790 0.950 . S
C802 C801 1.398 . S
C802 C803 1.391 . S
C803 H791 0.950 . S
C803 C799 1.393 . S
C803 C802 1.391 . S
H804 C812 0.950 . S
H805 C817 0.950 . S
H806 C814 0.950 . S
H807 C816 0.950 1_556 S
H808 C818 0.950 . S
H809 C820 0.950 . S
H810 C822 0.950 . S
H811 C823 0.950 . S
C812 H804 0.950 . S
C812 C813 1.386 . S
C812 C814 1.391 . S
C813 C812 1.386 . S
C813 C817 1.393 . S
C814 H806 0.950 . S
C814 C812 1.391 . S
C814 C815 1.400 . S
C815 C814 1.400 . S
C815 C816 1.398 . S
C815 C821 1.491 1_554 S
C816 H807 0.950 1_554 S
C816 C815 1.398 . S
C816 C817 1.391 . S
C817 H805 0.950 . S
C817 C813 1.393 . S
C817 C816 1.391 . S
C818 H808 0.950 . S
C818 C819 1.386 . S
C818 C820 1.391 . S
C819 C818 1.386 . S
C819 C823 1.393 . S
C820 H809 0.950 . S
C820 C818 1.391 . S
C820 C821 1.400 . S
C821 C815 1.491 1_556 S
C821 C820 1.400 . S
C821 C822 1.398 . S
C822 H810 0.950 . S
C822 C821 1.398 . S
C822 C823 1.391 . S
C823 H811 0.950 . S
C823 C819 1.393 . S
C823 C822 1.391 . S
H824 C832 0.950 . S
H825 C837 0.950 . S
H826 C834 0.950 . S
H827 C836 0.950 . S
H828 C838 0.950 . S
H829 C840 0.950 . S
H830 C842 0.950 . S
H831 C843 0.950 . S
C832 H824 0.950 . S
C832 C833 1.386 . S
C832 C834 1.391 . S
C833 C832 1.386 . S
C833 C837 1.393 . S
C834 H826 0.950 . S
C834 C832 1.391 . S
C834 C835 1.400 . S
C835 C834 1.400 . S
C835 C836 1.398 . S
C835 C841 1.491 . S
C836 H827 0.950 . S
C836 C835 1.398 . S
C836 C837 1.391 . S
C837 H825 0.950 . S
C837 C833 1.393 . S
C837 C836 1.391 . S
C838 H828 0.950 . S
C838 C839 1.386 . S
C838 C840 1.391 . S
C839 C838 1.386 . S
C839 C843 1.393 . S
C840 H829 0.950 . S
C840 C838 1.391 . S
C840 C841 1.400 . S
C841 C835 1.491 . S
C841 C840 1.400 . S
C841 C842 1.398 . S
C842 H830 0.950 . S
C842 C841 1.398 . S
C842 C843 1.391 . S
C843 H831 0.950 . S
C843 C839 1.393 . S
C843 C842 1.391 . S
H844 C852 0.950 . S
H845 C857 0.950 . S
H846 C854 0.950 . S
H847 C856 0.950 . S
H848 C858 0.950 . S
H849 C860 0.950 . S
H850 C862 0.950 . S
H851 C863 0.950 . S
C852 H844 0.950 . S
C852 C853 1.386 . S
C852 C854 1.391 . S
C853 C852 1.386 . S
C853 C857 1.393 . S
C854 H846 0.950 . S
C854 C852 1.391 . S
C854 C855 1.400 . S
C855 C854 1.400 . S
C855 C856 1.398 . S
C855 C861 1.491 . S
C856 H847 0.950 . S
C856 C855 1.398 . S
C856 C857 1.391 . S
C857 H845 0.950 . S
C857 C853 1.393 . S
C857 C856 1.391 . S
C858 H848 0.950 . S
C858 C859 1.386 . S
C858 C860 1.391 . S
C859 C858 1.386 . S
C859 C863 1.393 . S
C860 H849 0.950 . S
C860 C858 1.391 . S
C860 C861 1.400 . S
C861 C855 1.491 . S
C861 C860 1.400 . S
C861 C862 1.398 . S
C862 H850 0.950 . S
C862 C861 1.398 . S
C862 C863 1.391 . S
C863 H851 0.950 . S
C863 C859 1.393 . S
C863 C862 1.391 . S
H864 C872 0.950 . S
H865 C877 0.950 . S
H866 C874 0.950 1_554 S
H867 C876 0.950 . S
H868 C878 0.950 . S
H869 C880 0.950 . S
H870 C882 0.950 . S
H871 C883 0.950 . S
C872 H864 0.950 . S
C872 C873 1.386 . S
C872 C874 1.391 . S
C873 C872 1.386 . S
C873 C877 1.393 . S
C874 H866 0.950 1_556 S
C874 C872 1.391 . S
C874 C875 1.400 . S
C875 C874 1.400 . S
C875 C876 1.398 . S
C875 C881 1.491 1_556 S
C876 H867 0.950 . S
C876 C875 1.398 . S
C876 C877 1.391 . S
C877 H865 0.950 . S
C877 C873 1.393 . S
C877 C876 1.391 . S
C878 H868 0.950 . S
C878 C879 1.386 . S
C878 C880 1.391 . S
C879 C878 1.386 . S
C879 C883 1.393 . S
C880 H869 0.950 . S
C880 C878 1.391 . S
C880 C881 1.400 . S
C881 C875 1.491 1_554 S
C881 C880 1.400 . S
C881 C882 1.398 . S
C882 H870 0.950 . S
C882 C881 1.398 . S
C882 C883 1.391 . S
C883 H871 0.950 . S
C883 C879 1.393 . S
C883 C882 1.391 . S
H884 C892 0.950 . S
H885 C897 0.950 . S
H886 C894 0.950 . S
H887 C896 0.950 1_554 S
H888 C898 0.950 . S
H889 C900 0.950 . S
H890 C902 0.950 . S
H891 C903 0.950 . S
C892 H884 0.950 . S
C892 C893 1.386 . S
C892 C894 1.391 . S
C893 C892 1.386 . S
C893 C897 1.393 . S
C894 H886 0.950 . S
C894 C892 1.391 . S
C894 C895 1.400 . S
C895 C894 1.400 . S
C895 C896 1.398 . S
C895 C901 1.491 1_556 S
C896 H887 0.950 1_556 S
C896 C895 1.398 . S
C896 C897 1.391 . S
C897 H885 0.950 . S
C897 C893 1.393 . S
C897 C896 1.391 . S
C898 H888 0.950 . S
C898 C899 1.386 . S
C898 C900 1.391 . S
C899 C898 1.386 . S
C899 C903 1.393 . S
C900 H889 0.950 . S
C900 C898 1.391 . S
C900 C901 1.400 . S
C901 C895 1.491 1_554 S
C901 C900 1.400 . S
C901 C902 1.398 . S
C902 H890 0.950 . S
C902 C901 1.398 . S
C902 C903 1.391 . S
C903 H891 0.950 . S
C903 C899 1.393 . S
C903 C902 1.391 . S
H904 C912 0.950 . S
H905 C917 0.950 . S
H906 C914 0.950 . S
H907 C916 0.950 . S
H908 C918 0.950 . S
H909 C920 0.950 . S
H910 C922 0.950 . S
H911 C923 0.950 . S
C912 H904 0.950 . S
C912 C913 1.386 . S
C912 C914 1.391 . S
C913 C912 1.386 . S
C913 C917 1.393 . S
C914 H906 0.950 . S
C914 C912 1.391 . S
C914 C915 1.400 . S
C915 C914 1.400 . S
C915 C916 1.398 . S
C915 C921 1.491 . S
C916 H907 0.950 . S
C916 C915 1.398 . S
C916 C917 1.391 . S
C917 H905 0.950 . S
C917 C913 1.393 . S
C917 C916 1.391 . S
C918 H908 0.950 . S
C918 C919 1.386 . S
C918 C920 1.391 . S
C919 C918 1.386 . S
C919 C923 1.393 . S
C920 H909 0.950 . S
C920 C918 1.391 . S
C920 C921 1.400 . S
C921 C915 1.491 . S
C921 C920 1.400 . S
C921 C922 1.398 . S
C922 H910 0.950 . S
C922 C921 1.398 . S
C922 C923 1.391 . S
C923 H911 0.950 . S
C923 C919 1.393 . S
C923 C922 1.391 . S
H924 C932 0.950 . S
H925 C937 0.950 . S
H926 C934 0.950 . S
H927 C936 0.950 . S
H928 C938 0.950 . S
H929 C940 0.950 . S
H930 C942 0.950 . S
H931 C943 0.950 . S
C932 H924 0.950 . S
C932 C933 1.386 . S
C932 C934 1.391 . S
C933 C932 1.386 . S
C933 C937 1.393 . S
C934 H926 0.950 . S
C934 C932 1.391 . S
C934 C935 1.400 . S
C935 C934 1.400 . S
C935 C936 1.398 . S
C935 C941 1.491 . S
C936 H927 0.950 . S
C936 C935 1.398 . S
C936 C937 1.391 . S
C937 H925 0.950 . S
C937 C933 1.393 . S
C937 C936 1.391 . S
C938 H928 0.950 . S
C938 C939 1.386 . S
C938 C940 1.391 . S
C939 C938 1.386 . S
C939 C943 1.393 . S
C940 H929 0.950 . S
C940 C938 1.391 . S
C940 C941 1.400 . S
C941 C935 1.491 . S
C941 C940 1.400 . S
C941 C942 1.398 . S
C942 H930 0.950 . S
C942 C941 1.398 . S
C942 C943 1.391 . S
C943 H931 0.950 . S
C943 C939 1.393 . S
C943 C942 1.391 . S
H944 C952 0.950 . S
H945 C957 0.950 . S
H946 C954 0.950 . S
H947 C956 0.950 1_556 S
H948 C958 0.950 . S
H949 C960 0.950 . S
H950 C962 0.950 . S
H951 C963 0.950 . S
C952 H944 0.950 . S
C952 C953 1.386 . S
C952 C954 1.391 . S
C953 C952 1.386 . S
C953 C957 1.393 . S
C954 H946 0.950 . S
C954 C952 1.391 . S
C954 C955 1.400 . S
C955 C954 1.400 . S
C955 C956 1.398 . S
C955 C961 1.491 1_554 S
C956 H947 0.950 1_554 S
C956 C955 1.398 . S
C956 C957 1.391 . S
C957 H945 0.950 . S
C957 C953 1.393 . S
C957 C956 1.391 . S
C958 H948 0.950 . S
C958 C959 1.386 . S
C958 C960 1.391 . S
C959 C958 1.386 . S
C959 C963 1.393 . S
C960 H949 0.950 . S
C960 C958 1.391 . S
C960 C961 1.400 . S
C961 C955 1.491 1_556 S
C961 C960 1.400 . S
C961 C962 1.398 . S
C962 H950 0.950 . S
C962 C961 1.398 . S
C962 C963 1.391 . S
C963 H951 0.950 . S
C963 C959 1.393 . S
C963 C962 1.391 . S
H964 C972 0.950 . S
H965 C977 0.950 . S
H966 C974 0.950 . S
H967 C976 0.950 . S
H968 C978 0.950 . S
H969 C980 0.950 . S
H970 C982 0.950 1_556 S
H971 C983 0.950 . S
C972 H964 0.950 . S
C972 C973 1.386 . S
C972 C974 1.391 . S
C973 C972 1.386 . S
C973 C977 1.393 . S
C974 H966 0.950 . S
C974 C972 1.391 . S
C974 C975 1.400 . S
C975 C974 1.400 . S
C975 C976 1.398 . S
C975 C981 1.491 1_556 S
C976 H967 0.950 . S
C976 C975 1.398 . S
C976 C977 1.391 . S
C977 H965 0.950 . S
C977 C973 1.393 . S
C977 C976 1.391 . S
C978 H968 0.950 . S
C978 C979 1.386 . S
C978 C980 1.391 . S
C979 C978 1.386 . S
C979 C983 1.393 . S
C980 H969 0.950 . S
C980 C978 1.391 . S
C980 C981 1.400 . S
C981 C975 1.491 1_554 S
C981 C980 1.400 . S
C981 C982 1.398 . S
C982 H970 0.950 1_554 S
C982 C981 1.398 . S
C982 C983 1.391 . S
C983 H971 0.950 . S
C983 C979 1.393 . S
C983 C982 1.391 . S
H984 C992 0.950 . S
H985 C997 0.950 . S
H986 C994 0.950 . S
H987 C996 0.950 . S
H988 C998 0.950 . S
H989 C1000 0.950 . S
H990 C1002 0.950 . S
H991 C1003 0.950 . S
C992 H984 0.950 . S
C992 C993 1.386 . S
C992 C994 1.391 . S
C993 C992 1.386 . S
C993 C997 1.393 . S
C994 H986 0.950 . S
C994 C992 1.391 . S
C994 C995 1.400 . S
C995 C994 1.400 . S
C995 C996 1.398 . S
C995 C1001 1.491 . S
C996 H987 0.950 . S
C996 C995 1.398 . S
C996 C997 1.391 . S
C997 H985 0.950 . S
C997 C993 1.393 . S
C997 C996 1.391 . S
C998 H988 0.950 . S
C998 C999 1.386 . S
C998 C1000 1.391 . S
C999 C998 1.386 . S
C999 C1003 1.393 . S
C1000 H989 0.950 . S
C1000 C998 1.391 . S
C1000 C1001 1.400 . S
C1001 C995 1.491 . S
C1001 C1000 1.400 . S
C1001 C1002 1.398 . S
C1002 H990 0.950 . S
C1002 C1001 1.398 . S
C1002 C1003 1.391 . S
C1003 H991 0.950 . S
C1003 C999 1.393 . S
C1003 C1002 1.391 . S
H1004 C1012 0.950 . S
H1005 C1017 0.950 . S
H1006 C1014 0.950 . S
H1007 C1016 0.950 . S
H1008 C1018 0.950 . S
H1009 C1020 0.950 . S
H1010 C1022 0.950 . S
H1011 C1023 0.950 . S
C1012 H1004 0.950 . S
C1012 C1013 1.386 . S
C1012 C1014 1.391 . S
C1013 C1012 1.386 . S
C1013 C1017 1.393 . S
C1014 H1006 0.950 . S
C1014 C1012 1.391 . S
C1014 C1015 1.400 . S
C1015 C1014 1.400 . S
C1015 C1016 1.398 . S
C1015 C1021 1.491 . S
C1016 H1007 0.950 . S
C1016 C1015 1.398 . S
C1016 C1017 1.391 . S
C1017 H1005 0.950 . S
C1017 C1013 1.393 . S
C1017 C1016 1.391 . S
C1018 H1008 0.950 . S
C1018 C1019 1.386 . S
C1018 C1020 1.391 . S
C1019 C1018 1.386 . S
C1019 C1023 1.393 . S
C1020 H1009 0.950 . S
C1020 C1018 1.391 . S
C1020 C1021 1.400 . S
C1021 C1015 1.491 . S
C1021 C1020 1.400 . S
C1021 C1022 1.398 . S
C1022 H1010 0.950 . S
C1022 C1021 1.398 . S
C1022 C1023 1.391 . S
C1023 H1011 0.950 . S
C1023 C1019 1.393 . S
C1023 C1022 1.391 . S
H1024 C1032 0.950 . S
H1025 C1037 0.950 . S
H1026 C1034 0.950 . S
H1027 C1036 0.950 . S
H1028 C1038 0.950 . S
H1029 C1040 0.950 . S
H1030 C1042 0.950 1_554 S
H1031 C1043 0.950 . S
C1032 H1024 0.950 . S
C1032 C1033 1.386 . S
C1032 C1034 1.391 . S
C1033 C1032 1.386 . S
C1033 C1037 1.393 . S
C1034 H1026 0.950 . S
C1034 C1032 1.391 . S
C1034 C1035 1.400 . S
C1035 C1034 1.400 . S
C1035 C1036 1.398 . S
C1035 C1041 1.491 1_554 S
C1036 H1027 0.950 . S
C1036 C1035 1.398 . S
C1036 C1037 1.391 . S
C1037 H1025 0.950 . S
C1037 C1033 1.393 . S
C1037 C1036 1.391 . S
C1038 H1028 0.950 . S
C1038 C1039 1.386 . S
C1038 C1040 1.391 . S
C1039 C1038 1.386 . S
C1039 C1043 1.393 . S
C1040 H1029 0.950 . S
C1040 C1038 1.391 . S
C1040 C1041 1.400 . S
C1041 C1035 1.491 1_556 S
C1041 C1040 1.400 . S
C1041 C1042 1.398 . S
C1042 H1030 0.950 1_556 S
C1042 C1041 1.398 . S
C1042 C1043 1.391 . S
C1043 H1031 0.950 . S
C1043 C1039 1.393 . S
C1043 C1042 1.391 . S
H1044 C1052 0.950 . S
H1045 C1057 0.950 . S
H1046 C1054 0.950 . S
H1047 C1056 0.950 1_554 S
H1048 C1058 0.950 . S
H1049 C1060 0.950 . S
H1050 C1062 0.950 . S
H1051 C1063 0.950 . S
C1052 H1044 0.950 . S
C1052 C1053 1.386 . S
C1052 C1054 1.391 . S
C1053 C1052 1.386 . S
C1053 C1057 1.393 . S
C1054 H1046 0.950 . S
C1054 C1052 1.391 . S
C1054 C1055 1.400 . S
C1055 C1054 1.400 . S
C1055 C1056 1.398 . S
C1055 C1061 1.491 1_556 S
C1056 H1047 0.950 1_556 S
C1056 C1055 1.398 . S
C1056 C1057 1.391 . S
C1057 H1045 0.950 . S
C1057 C1053 1.393 . S
C1057 C1056 1.391 . S
C1058 H1048 0.950 . S
C1058 C1059 1.386 . S
C1058 C1060 1.391 . S
C1059 C1058 1.386 . S
C1059 C1063 1.393 . S
C1060 H1049 0.950 . S
C1060 C1058 1.391 . S
C1060 C1061 1.400 . S
C1061 C1055 1.491 1_554 S
C1061 C1060 1.400 . S
C1061 C1062 1.398 . S
C1062 H1050 0.950 . S
C1062 C1061 1.398 . S
C1062 C1063 1.391 . S
C1063 H1051 0.950 . S
C1063 C1059 1.393 . S
C1063 C1062 1.391 . S
H1064 C1072 0.950 . S
H1065 C1077 0.950 . S
H1066 C1074 0.950 . S
H1067 C1076 0.950 . S
H1068 C1078 0.950 . S
H1069 C1080 0.950 . S
H1070 C1082 0.950 . S
H1071 C1083 0.950 . S
C1072 H1064 0.950 . S
C1072 C1073 1.386 . S
C1072 C1074 1.391 . S
C1073 C1072 1.386 . S
C1073 C1077 1.393 . S
C1074 H1066 0.950 . S
C1074 C1072 1.391 . S
C1074 C1075 1.400 . S
C1075 C1074 1.400 . S
C1075 C1076 1.398 . S
C1075 C1081 1.491 . S
C1076 H1067 0.950 . S
C1076 C1075 1.398 . S
C1076 C1077 1.391 . S
C1077 H1065 0.950 . S
C1077 C1073 1.393 . S
C1077 C1076 1.391 . S
C1078 H1068 0.950 . S
C1078 C1079 1.386 . S
C1078 C1080 1.391 . S
C1079 C1078 1.386 . S
C1079 C1083 1.393 . S
C1080 H1069 0.950 . S
C1080 C1078 1.391 . S
C1080 C1081 1.400 . S
C1081 C1075 1.491 . S
C1081 C1080 1.400 . S
C1081 C1082 1.398 . S
C1082 H1070 0.950 . S
C1082 C1081 1.398 . S
C1082 C1083 1.391 . S
C1083 H1071 0.950 . S
C1083 C1079 1.393 . S
C1083 C1082 1.391 . S
H1084 C1092 0.950 . S
H1085 C1097 0.950 . S
H1086 C1094 0.950 . S
H1087 C1096 0.950 . S
H1088 C1098 0.950 . S
H1089 C1100 0.950 . S
H1090 C1102 0.950 . S
H1091 C1103 0.950 . S
C1092 H1084 0.950 . S
C1092 C1093 1.386 . S
C1092 C1094 1.391 . S
C1093 C1092 1.386 . S
C1093 C1097 1.393 . S
C1094 H1086 0.950 . S
C1094 C1092 1.391 . S
C1094 C1095 1.400 . S
C1095 C1094 1.400 . S
C1095 C1096 1.398 . S
C1095 C1101 1.491 . S
C1096 H1087 0.950 . S
C1096 C1095 1.398 . S
C1096 C1097 1.391 . S
C1097 H1085 0.950 . S
C1097 C1093 1.393 . S
C1097 C1096 1.391 . S
C1098 H1088 0.950 . S
C1098 C1099 1.386 . S
C1098 C1100 1.391 . S
C1099 C1098 1.386 . S
C1099 C1103 1.393 . S
C1100 H1089 0.950 . S
C1100 C1098 1.391 . S
C1100 C1101 1.400 . S
C1101 C1095 1.491 . S
C1101 C1100 1.400 . S
C1101 C1102 1.398 . S
C1102 H1090 0.950 . S
C1102 C1101 1.398 . S
C1102 C1103 1.391 . S
C1103 H1091 0.950 . S
C1103 C1099 1.393 . S
C1103 C1102 1.391 . S
H1104 C1112 0.950 . S
H1105 C1117 0.950 . S
H1106 C1114 0.950 . S
H1107 C1116 0.950 . S
H1108 C1118 0.950 . S
H1109 C1120 0.950 . S
H1110 C1122 0.950 . S
H1111 C1123 0.950 . S
C1112 H1104 0.950 . S
C1112 C1113 1.386 . S
C1112 C1114 1.391 . S
C1113 C1112 1.386 . S
C1113 C1117 1.393 . S
C1114 H1106 0.950 . S
C1114 C1112 1.391 . S
C1114 C1115 1.400 . S
C1115 C1114 1.400 . S
C1115 C1116 1.398 . S
C1115 C1121 1.491 1_545 S
C1116 H1107 0.950 . S
C1116 C1115 1.398 . S
C1116 C1117 1.391 . S
C1117 H1105 0.950 . S
C1117 C1113 1.393 . S
C1117 C1116 1.391 . S
C1118 H1108 0.950 . S
C1118 C1119 1.386 . S
C1118 C1120 1.391 . S
C1119 C1118 1.386 . S
C1119 C1123 1.393 . S
C1120 H1109 0.950 . S
C1120 C1118 1.391 . S
C1120 C1121 1.400 . S
C1121 C1115 1.491 1_565 S
C1121 C1120 1.400 . S
C1121 C1122 1.398 . S
C1122 H1110 0.950 . S
C1122 C1121 1.398 . S
C1122 C1123 1.391 . S
C1123 H1111 0.950 . S
C1123 C1119 1.393 . S
C1123 C1122 1.391 . S
H1124 C1132 0.950 . S
H1125 C1137 0.950 . S
H1126 C1134 0.923 1_565 S
H1127 C1136 0.950 . S
H1128 C1138 0.950 . S
H1129 C1140 0.923 1_545 S
H1130 C1142 0.950 . S
H1131 C1143 0.950 . S
C1132 H1124 0.950 . S
C1132 C1133 1.386 . S
C1132 C1134 1.391 . S
C1133 C1132 1.386 . S
C1133 C1137 1.393 . S
C1134 H1126 0.923 1_545 S
C1134 C1132 1.391 . S
C1134 C1135 1.400 . S
C1135 C1134 1.400 . S
C1135 C1136 1.398 . S
C1135 C1141 1.491 1_545 S
C1136 H1127 0.950 . S
C1136 C1135 1.398 . S
C1136 C1137 1.391 . S
C1137 H1125 0.950 . S
C1137 C1133 1.393 . S
C1137 C1136 1.391 . S
C1138 H1128 0.950 . S
C1138 C1139 1.386 . S
C1138 C1140 1.391 . S
C1139 C1138 1.386 . S
C1139 C1143 1.393 . S
C1140 H1129 0.923 1_565 S
C1140 C1138 1.391 . S
C1140 C1141 1.400 . S
C1141 C1135 1.491 1_565 S
C1141 C1140 1.400 . S
C1141 C1142 1.398 . S
C1142 H1130 0.950 . S
C1142 C1141 1.398 . S
C1142 C1143 1.391 . S
C1143 H1131 0.950 . S
C1143 C1139 1.393 . S
C1143 C1142 1.391 . S
H1144 C1152 0.950 . S
H1145 C1157 0.950 . S
H1146 C1154 0.950 1_545 S
H1147 C1156 0.950 . S
H1148 C1158 0.950 . S
H1149 C1160 0.950 1_565 S
H1150 C1162 0.950 . S
H1151 C1163 0.950 . S
C1152 H1144 0.950 . S
C1152 C1153 1.386 . S
C1152 C1154 1.391 . S
C1153 C1152 1.386 . S
C1153 C1157 1.393 . S
C1154 H1146 0.950 1_565 S
C1154 C1152 1.391 . S
C1154 C1155 1.400 . S
C1155 C1154 1.400 . S
C1155 C1156 1.398 . S
C1155 C1161 1.491 1_565 S
C1156 H1147 0.950 . S
C1156 C1155 1.398 . S
C1156 C1157 1.391 . S
C1157 H1145 0.950 . S
C1157 C1153 1.393 . S
C1157 C1156 1.391 . S
C1158 H1148 0.950 . S
C1158 C1159 1.386 . S
C1158 C1160 1.391 . S
C1159 C1158 1.386 . S
C1159 C1163 1.393 . S
C1160 H1149 0.950 1_545 S
C1160 C1158 1.391 . S
C1160 C1161 1.400 . S
C1161 C1155 1.491 1_545 S
C1161 C1160 1.400 . S
C1161 C1162 1.398 . S
C1162 H1150 0.950 . S
C1162 C1161 1.398 . S
C1162 C1163 1.391 . S
C1163 H1151 0.950 . S
C1163 C1159 1.393 . S
C1163 C1162 1.391 . S
H1164 C1172 0.950 . S
H1165 C1177 0.950 . S
H1166 C1174 0.950 . S
H1167 C1176 0.950 . S
H1168 C1178 0.950 . S
H1169 C1180 0.950 . S
H1170 C1182 0.950 . S
H1171 C1183 0.950 . S
C1172 H1164 0.950 . S
C1172 C1173 1.386 . S
C1172 C1174 1.391 . S
C1173 C1172 1.386 . S
C1173 C1177 1.393 . S
C1174 H1166 0.950 . S
C1174 C1172 1.391 . S
C1174 C1175 1.400 . S
C1175 C1174 1.400 . S
C1175 C1176 1.398 . S
C1175 C1181 1.491 1_565 S
C1176 H1167 0.950 . S
C1176 C1175 1.398 . S
C1176 C1177 1.391 . S
C1177 H1165 0.950 . S
C1177 C1173 1.393 . S
C1177 C1176 1.391 . S
C1178 H1168 0.950 . S
C1178 C1179 1.386 . S
C1178 C1180 1.391 . S
C1179 C1178 1.386 . S
C1179 C1183 1.393 . S
C1180 H1169 0.950 . S
C1180 C1178 1.391 . S
C1180 C1181 1.400 . S
C1181 C1175 1.491 1_545 S
C1181 C1180 1.400 . S
C1181 C1182 1.398 . S
C1182 H1170 0.950 . S
C1182 C1181 1.398 . S
C1182 C1183 1.391 . S
C1183 H1171 0.950 . S
C1183 C1179 1.393 . S
C1183 C1182 1.391 . S
H1184 C1192 0.950 . S
H1185 C1197 0.950 . S
H1186 C1194 0.950 . S
H1187 C1196 0.950 . S
H1188 C1198 0.950 . S
H1189 C1200 0.950 . S
H1190 C1202 0.950 . S
H1191 C1203 0.950 . S
C1192 H1184 0.950 . S
C1192 C1193 1.386 . S
C1192 C1194 1.391 . S
C1193 C1192 1.386 . S
C1193 C1197 1.393 . S
C1194 H1186 0.950 . S
C1194 C1192 1.391 . S
C1194 C1195 1.400 . S
C1195 C1194 1.400 . S
C1195 C1196 1.398 . S
C1195 C1201 1.491 . S
C1196 H1187 0.950 . S
C1196 C1195 1.398 . S
C1196 C1197 1.391 . S
C1197 H1185 0.950 . S
C1197 C1193 1.393 . S
C1197 C1196 1.391 . S
C1198 H1188 0.950 . S
C1198 C1199 1.386 . S
C1198 C1200 1.391 . S
C1199 C1198 1.386 . S
C1199 C1203 1.393 . S
C1200 H1189 0.950 . S
C1200 C1198 1.391 . S
C1200 C1201 1.400 . S
C1201 C1195 1.491 . S
C1201 C1200 1.400 . S
C1201 C1202 1.398 . S
C1202 H1190 0.950 . S
C1202 C1201 1.398 . S
C1202 C1203 1.391 . S
C1203 H1191 0.950 . S
C1203 C1199 1.393 . S
C1203 C1202 1.391 . S
H1204 C1212 0.950 . S
H1205 C1217 0.950 . S
H1206 C1214 0.950 . S
H1207 C1216 0.950 . S
H1208 C1218 0.950 . S
H1209 C1220 0.950 . S
H1210 C1222 0.950 . S
H1211 C1223 0.950 . S
C1212 H1204 0.950 . S
C1212 C1213 1.386 . S
C1212 C1214 1.391 . S
C1213 C1212 1.386 . S
C1213 C1217 1.393 . S
C1214 H1206 0.950 . S
C1214 C1212 1.391 . S
C1214 C1215 1.400 . S
C1215 C1214 1.400 . S
C1215 C1216 1.398 . S
C1215 C1221 1.491 . S
C1216 H1207 0.950 . S
C1216 C1215 1.398 . S
C1216 C1217 1.391 . S
C1217 H1205 0.950 . S
C1217 C1213 1.393 . S
C1217 C1216 1.391 . S
C1218 H1208 0.950 . S
C1218 C1219 1.386 . S
C1218 C1220 1.391 . S
C1219 C1218 1.386 . S
C1219 C1223 1.393 . S
C1220 H1209 0.950 . S
C1220 C1218 1.391 . S
C1220 C1221 1.400 . S
C1221 C1215 1.491 . S
C1221 C1220 1.400 . S
C1221 C1222 1.398 . S
C1222 H1210 0.950 . S
C1222 C1221 1.398 . S
C1222 C1223 1.391 . S
C1223 H1211 0.950 . S
C1223 C1219 1.393 . S
C1223 C1222 1.391 . S
H1224 C1232 0.950 . S
H1225 C1237 0.950 . S
H1226 C1234 0.950 . S
H1227 C1236 0.950 . S
H1228 C1238 0.950 . S
H1229 C1240 0.950 . S
H1230 C1242 0.950 . S
H1231 C1243 0.950 . S
C1232 H1224 0.950 . S
C1232 C1233 1.386 . S
C1232 C1234 1.391 . S
C1233 C1232 1.386 . S
C1233 C1237 1.393 . S
C1234 H1226 0.950 . S
C1234 C1232 1.391 . S
C1234 C1235 1.400 . S
C1235 C1234 1.400 . S
C1235 C1236 1.398 . S
C1235 C1241 1.491 . S
C1236 H1227 0.950 . S
C1236 C1235 1.398 . S
C1236 C1237 1.391 . S
C1237 H1225 0.950 . S
C1237 C1233 1.393 . S
C1237 C1236 1.391 . S
C1238 H1228 0.950 . S
C1238 C1239 1.386 . S
C1238 C1240 1.391 . S
C1239 C1238 1.386 . S
C1239 C1243 1.393 . S
C1240 H1229 0.950 . S
C1240 C1238 1.391 . S
C1240 C1241 1.400 . S
C1241 C1235 1.491 . S
C1241 C1240 1.400 . S
C1241 C1242 1.398 . S
C1242 H1230 0.950 . S
C1242 C1241 1.398 . S
C1242 C1243 1.391 . S
C1243 H1231 0.950 . S
C1243 C1239 1.393 . S
C1243 C1242 1.391 . S
H1244 C1252 0.950 . S
H1245 C1257 0.950 . S
H1246 C1254 0.950 . S
H1247 C1256 0.950 . S
H1248 C1258 0.950 . S
H1249 C1260 0.950 . S
H1250 C1262 0.950 . S
H1251 C1263 0.950 . S
C1252 H1244 0.950 . S
C1252 C1253 1.386 . S
C1252 C1254 1.391 . S
C1253 C1252 1.386 . S
C1253 C1257 1.393 . S
C1254 H1246 0.950 . S
C1254 C1252 1.391 . S
C1254 C1255 1.400 . S
C1255 C1254 1.400 . S
C1255 C1256 1.398 . S
C1255 C1261 1.491 . S
C1256 H1247 0.950 . S
C1256 C1255 1.398 . S
C1256 C1257 1.391 . S
C1257 H1245 0.950 . S
C1257 C1253 1.393 . S
C1257 C1256 1.391 . S
C1258 H1248 0.950 . S
C1258 C1259 1.386 . S
C1258 C1260 1.391 . S
C1259 C1258 1.386 . S
C1259 C1263 1.393 . S
C1260 H1249 0.950 . S
C1260 C1258 1.391 . S
C1260 C1261 1.400 . S
C1261 C1255 1.491 . S
C1261 C1260 1.400 . S
C1261 C1262 1.398 . S
C1262 H1250 0.950 . S
C1262 C1261 1.398 . S
C1262 C1263 1.391 . S
C1263 H1251 0.950 . S
C1263 C1259 1.393 . S
C1263 C1262 1.391 . S
H1264 C1272 0.950 . S
H1265 C1277 0.950 . S
H1266 C1274 0.950 . S
H1267 C1276 0.950 . S
H1268 C1278 0.950 . S
H1269 C1280 0.950 . S
H1270 C1282 0.950 . S
H1271 C1283 0.950 . S
C1272 H1264 0.950 . S
C1272 C1273 1.386 . S
C1272 C1274 1.391 . S
C1273 C1272 1.386 . S
C1273 C1277 1.393 1_455 S
C1274 H1266 0.950 . S
C1274 C1272 1.391 . S
C1274 C1275 1.400 . S
C1275 C1274 1.400 . S
C1275 C1276 1.398 1_455 S
C1275 C1281 1.491 1_455 S
C1276 H1267 0.950 . S
C1276 C1275 1.398 1_655 S
C1276 C1277 1.391 . S
C1277 H1265 0.950 . S
C1277 C1273 1.393 1_655 S
C1277 C1276 1.391 . S
C1278 H1268 0.950 . S
C1278 C1279 1.386 . S
C1278 C1280 1.391 . S
C1279 C1278 1.386 . S
C1279 C1283 1.393 1_655 S
C1280 H1269 0.950 . S
C1280 C1278 1.391 . S
C1280 C1281 1.400 . S
C1281 C1275 1.491 1_655 S
C1281 C1280 1.400 . S
C1281 C1282 1.398 1_655 S
C1282 H1270 0.950 . S
C1282 C1281 1.398 1_455 S
C1282 C1283 1.391 . S
C1283 H1271 0.950 . S
C1283 C1279 1.393 1_455 S
C1283 C1282 1.391 . S
H1284 C1292 0.950 . S
H1285 C1297 0.950 . S
H1286 C1294 0.950 . S
H1287 C1296 0.950 . S
H1288 C1298 0.950 . S
H1289 C1300 0.950 . S
H1290 C1302 0.950 . S
H1291 C1303 0.950 . S
C1292 H1284 0.950 . S
C1292 C1293 1.386 . S
C1292 C1294 1.391 . S
C1293 C1292 1.386 . S
C1293 C1297 1.393 . S
C1294 H1286 0.950 . S
C1294 C1292 1.391 . S
C1294 C1295 1.400 . S
C1295 C1294 1.400 . S
C1295 C1296 1.398 . S
C1295 C1301 1.491 . S
C1296 H1287 0.950 . S
C1296 C1295 1.398 . S
C1296 C1297 1.391 . S
C1297 H1285 0.950 . S
C1297 C1293 1.393 . S
C1297 C1296 1.391 . S
C1298 H1288 0.950 . S
C1298 C1299 1.386 . S
C1298 C1300 1.391 . S
C1299 C1298 1.386 . S
C1299 C1303 1.393 . S
C1300 H1289 0.950 . S
C1300 C1298 1.391 . S
C1300 C1301 1.400 . S
C1301 C1295 1.491 . S
C1301 C1300 1.400 . S
C1301 C1302 1.398 . S
C1302 H1290 0.950 . S
C1302 C1301 1.398 . S
C1302 C1303 1.391 . S
C1303 H1291 0.950 . S
C1303 C1299 1.393 . S
C1303 C1302 1.391 . S
H1304 C1312 0.950 . S
H1305 C1317 0.950 . S
H1306 C1314 0.950 . S
H1307 C1316 0.950 . S
H1308 C1318 0.950 . S
H1309 C1320 0.950 . S
H1310 C1322 0.950 . S
H1311 C1323 0.950 . S
C1312 H1304 0.950 . S
C1312 C1313 1.386 . S
C1312 C1314 1.391 . S
C1313 C1312 1.386 . S
C1313 C1317 1.393 . S
C1314 H1306 0.950 . S
C1314 C1312 1.391 . S
C1314 C1315 1.400 . S
C1315 C1314 1.400 . S
C1315 C1316 1.398 . S
C1315 C1321 1.491 . S
C1316 H1307 0.950 . S
C1316 C1315 1.398 . S
C1316 C1317 1.391 . S
C1317 H1305 0.950 . S
C1317 C1313 1.393 . S
C1317 C1316 1.391 . S
C1318 H1308 0.950 . S
C1318 C1319 1.386 . S
C1318 C1320 1.391 . S
C1319 C1318 1.386 . S
C1319 C1323 1.393 . S
C1320 H1309 0.950 . S
C1320 C1318 1.391 . S
C1320 C1321 1.400 . S
C1321 C1315 1.491 . S
C1321 C1320 1.400 . S
C1321 C1322 1.398 . S
C1322 H1310 0.950 . S
C1322 C1321 1.398 . S
C1322 C1323 1.391 . S
C1323 H1311 0.950 . S
C1323 C1319 1.393 . S
C1323 C1322 1.391 . S
H1324 C1332 0.950 . S
H1325 C1337 0.950 . S
H1326 C1334 0.950 . S
H1327 C1336 0.950 . S
H1328 C1338 0.950 . S
H1329 C1340 0.950 . S
H1330 C1342 0.950 . S
H1331 C1343 0.950 . S
C1332 H1324 0.950 . S
C1332 C1333 1.386 . S
C1332 C1334 1.391 . S
C1333 C1332 1.386 . S
C1333 C1337 1.393 1_455 S
C1334 H1326 0.950 . S
C1334 C1332 1.391 . S
C1334 C1335 1.400 . S
C1335 C1334 1.400 . S
C1335 C1336 1.398 1_455 S
C1335 C1341 1.491 1_455 S
C1336 H1327 0.950 . S
C1336 C1335 1.398 1_655 S
C1336 C1337 1.391 . S
C1337 H1325 0.950 . S
C1337 C1333 1.393 1_655 S
C1337 C1336 1.391 . S
C1338 H1328 0.950 . S
C1338 C1339 1.386 . S
C1338 C1340 1.391 . S
C1339 C1338 1.386 . S
C1339 C1343 1.393 1_655 S
C1340 H1329 0.950 . S
C1340 C1338 1.391 . S
C1340 C1341 1.400 . S
C1341 C1335 1.491 1_655 S
C1341 C1340 1.400 . S
C1341 C1342 1.398 1_655 S
C1342 H1330 0.950 . S
C1342 C1341 1.398 1_455 S
C1342 C1343 1.391 . S
C1343 H1331 0.950 . S
C1343 C1339 1.393 1_455 S
C1343 C1342 1.391 . S
H1344 C1352 0.950 . S
H1345 C1357 0.950 . S
H1346 C1354 0.950 . S
H1347 C1356 0.950 . S
H1348 C1358 0.950 . S
H1349 C1360 0.950 . S
H1350 C1362 0.950 . S
H1351 C1363 0.950 . S
C1352 H1344 0.950 . S
C1352 C1353 1.386 . S
C1352 C1354 1.391 . S
C1353 C1352 1.386 . S
C1353 C1357 1.393 1_655 S
C1354 H1346 0.950 . S
C1354 C1352 1.391 . S
C1354 C1355 1.409 . S
C1355 C1354 1.409 . S
C1355 C1356 1.390 1_655 S
C1355 C1361 1.490 1_655 S
C1356 H1347 0.950 . S
C1356 C1355 1.390 1_455 S
C1356 C1357 1.391 . S
C1357 H1345 0.950 . S
C1357 C1353 1.393 1_455 S
C1357 C1356 1.391 . S
C1358 H1348 0.950 . S
C1358 C1359 1.386 . S
C1358 C1360 1.391 . S
C1359 C1358 1.386 . S
C1359 C1363 1.393 1_455 S
C1360 H1349 0.950 . S
C1360 C1358 1.391 . S
C1360 C1361 1.409 . S
C1361 C1355 1.490 1_455 S
C1361 C1360 1.409 . S
C1361 C1362 1.390 1_455 S
C1362 H1350 0.950 . S
C1362 C1361 1.390 1_655 S
C1362 C1363 1.391 . S
C1363 H1351 0.950 . S
C1363 C1359 1.393 1_655 S
C1363 C1362 1.391 . S
H1364 C1372 0.950 . S
H1365 C1377 0.950 . S
H1366 C1374 0.950 . S
H1367 C1376 0.950 . S
H1368 C1378 0.950 . S
H1369 C1380 0.950 . S
H1370 C1382 0.950 . S
H1371 C1383 0.950 . S
C1372 H1364 0.950 . S
C1372 C1373 1.386 . S
C1372 C1374 1.391 . S
C1373 C1372 1.386 . S
C1373 C1377 1.393 . S
C1374 H1366 0.950 . S
C1374 C1372 1.391 . S
C1374 C1375 1.400 . S
C1375 C1374 1.400 . S
C1375 C1376 1.398 . S
C1375 C1381 1.491 . S
C1376 H1367 0.950 . S
C1376 C1375 1.398 . S
C1376 C1377 1.391 . S
C1377 H1365 0.950 . S
C1377 C1373 1.393 . S
C1377 C1376 1.391 . S
C1378 H1368 0.950 . S
C1378 C1379 1.386 . S
C1378 C1380 1.391 . S
C1379 C1378 1.386 . S
C1379 C1383 1.393 . S
C1380 H1369 0.950 . S
C1380 C1378 1.391 . S
C1380 C1381 1.400 . S
C1381 C1375 1.491 . S
C1381 C1380 1.400 . S
C1381 C1382 1.398 . S
C1382 H1370 0.950 . S
C1382 C1381 1.398 . S
C1382 C1383 1.391 . S
C1383 H1371 0.950 . S
C1383 C1379 1.393 . S
C1383 C1382 1.391 . S
H1384 C1392 0.950 . S
H1385 C1397 0.950 . S
H1386 C1394 0.950 . S
H1387 C1396 0.950 . S
H1388 C1398 0.950 . S
H1389 C1400 0.950 . S
H1390 C1402 0.950 . S
H1391 C1403 0.950 . S
C1392 H1384 0.950 . S
C1392 C1393 1.386 . S
C1392 C1394 1.391 . S
C1393 C1392 1.386 . S
C1393 C1397 1.393 . S
C1394 H1386 0.950 . S
C1394 C1392 1.391 . S
C1394 C1395 1.400 . S
C1395 C1394 1.400 . S
C1395 C1396 1.398 . S
C1395 C1401 1.491 . S
C1396 H1387 0.950 . S
C1396 C1395 1.398 . S
C1396 C1397 1.391 . S
C1397 H1385 0.950 . S
C1397 C1393 1.393 . S
C1397 C1396 1.391 . S
C1398 H1388 0.950 . S
C1398 C1399 1.386 . S
C1398 C1400 1.391 . S
C1399 C1398 1.386 . S
C1399 C1403 1.393 . S
C1400 H1389 0.950 . S
C1400 C1398 1.391 . S
C1400 C1401 1.400 . S
C1401 C1395 1.491 . S
C1401 C1400 1.400 . S
C1401 C1402 1.398 . S
C1402 H1390 0.950 . S
C1402 C1401 1.398 . S
C1402 C1403 1.391 . S
C1403 H1391 0.950 . S
C1403 C1399 1.393 . S
C1403 C1402 1.391 . S
H1404 C1412 0.950 . S
H1405 C1417 0.950 . S
H1406 C1414 0.950 . S
H1407 C1416 0.950 . S
H1408 C1418 0.950 . S
H1409 C1420 0.950 . S
H1410 C1422 0.950 . S
H1411 C1423 0.950 . S
C1412 H1404 0.950 . S
C1412 C1413 1.386 . S
C1412 C1414 1.391 . S
C1413 C1412 1.386 . S
C1413 C1417 1.393 1_655 S
C1414 H1406 0.950 . S
C1414 C1412 1.391 . S
C1414 C1415 1.417 . S
C1415 C1414 1.417 . S
C1415 C1416 1.382 1_655 S
C1415 C1421 1.490 1_655 S
C1416 H1407 0.950 . S
C1416 C1415 1.382 1_455 S
C1416 C1417 1.391 . S
C1417 H1405 0.950 . S
C1417 C1413 1.393 1_455 S
C1417 C1416 1.391 . S
C1418 H1408 0.950 . S
C1418 C1419 1.386 . S
C1418 C1420 1.391 . S
C1419 C1418 1.386 . S
C1419 C1423 1.393 1_455 S
C1420 H1409 0.950 . S
C1420 C1418 1.391 . S
C1420 C1421 1.417 . S
C1421 C1415 1.490 1_455 S
C1421 C1420 1.417 . S
C1421 C1422 1.382 1_455 S
C1422 H1410 0.950 . S
C1422 C1421 1.382 1_655 S
C1422 C1423 1.391 . S
C1423 H1411 0.950 . S
C1423 C1419 1.393 1_655 S
C1423 C1422 1.391 . S
H1424 C1432 0.950 . S
H1425 C1437 0.950 . S
H1426 C1434 0.950 . S
H1427 C1436 0.950 . S
H1428 C1438 0.950 . S
H1429 C1440 0.950 . S
H1430 C1442 0.950 . S
H1431 C1443 0.950 . S
C1432 H1424 0.950 . S
C1432 C1433 1.386 . S
C1432 C1434 1.391 . S
C1433 C1432 1.386 . S
C1433 C1437 1.393 1_455 S
C1434 H1426 0.950 . S
C1434 C1432 1.391 . S
C1434 C1435 1.400 . S
C1435 C1434 1.400 . S
C1435 C1436 1.398 1_455 S
C1435 C1441 1.491 1_455 S
C1436 H1427 0.950 . S
C1436 C1435 1.398 1_655 S
C1436 C1437 1.391 . S
C1437 H1425 0.950 . S
C1437 C1433 1.393 1_655 S
C1437 C1436 1.391 . S
C1438 H1428 0.950 . S
C1438 C1439 1.386 . S
C1438 C1440 1.391 . S
C1439 C1438 1.386 . S
C1439 C1443 1.393 1_655 S
C1440 H1429 0.950 . S
C1440 C1438 1.391 . S
C1440 C1441 1.400 . S
C1441 C1435 1.491 1_655 S
C1441 C1440 1.400 . S
C1441 C1442 1.398 1_655 S
C1442 H1430 0.950 . S
C1442 C1441 1.398 1_455 S
C1442 C1443 1.391 . S
C1443 H1431 0.950 . S
C1443 C1439 1.393 1_455 S
C1443 C1442 1.391 . S
H1444 C1452 0.950 . S
H1445 C1457 0.950 . S
H1446 C1454 0.950 . S
H1447 C1456 0.950 . S
H1448 C1458 0.950 . S
H1449 C1460 0.950 . S
H1450 C1462 0.950 . S
H1451 C1463 0.950 . S
C1452 H1444 0.950 . S
C1452 C1453 1.386 . S
C1452 C1454 1.391 . S
C1453 C1452 1.386 . S
C1453 C1457 1.393 . S
C1454 H1446 0.950 . S
C1454 C1452 1.391 . S
C1454 C1455 1.400 . S
C1455 C1454 1.400 . S
C1455 C1456 1.398 . S
C1455 C1461 1.491 . S
C1456 H1447 0.950 . S
C1456 C1455 1.398 . S
C1456 C1457 1.391 . S
C1457 H1445 0.950 . S
C1457 C1453 1.393 . S
C1457 C1456 1.391 . S
C1458 H1448 0.950 . S
C1458 C1459 1.386 . S
C1458 C1460 1.391 . S
C1459 C1458 1.386 . S
C1459 C1463 1.393 . S
C1460 H1449 0.950 . S
C1460 C1458 1.391 . S
C1460 C1461 1.400 . S
C1461 C1455 1.491 . S
C1461 C1460 1.400 . S
C1461 C1462 1.398 . S
C1462 H1450 0.950 . S
C1462 C1461 1.398 . S
C1462 C1463 1.391 . S
C1463 H1451 0.950 . S
C1463 C1459 1.393 . S
C1463 C1462 1.391 . S
H1464 C1472 0.950 . S
H1465 C1477 0.950 . S
H1466 C1474 0.950 . S
H1467 C1476 0.950 . S
H1468 C1478 0.950 . S
H1469 C1480 0.950 . S
H1470 C1482 0.950 . S
H1471 C1483 0.950 . S
C1472 H1464 0.950 . S
C1472 C1473 1.386 1_455 S
C1472 C1474 1.391 . S
C1473 C1472 1.386 1_655 S
C1473 C1477 1.393 . S
C1474 H1466 0.950 . S
C1474 C1472 1.391 . S
C1474 C1475 1.400 1_455 S
C1475 C1474 1.400 1_655 S
C1475 C1476 1.398 . S
C1475 C1481 1.491 1_655 S
C1476 H1467 0.950 . S
C1476 C1475 1.398 . S
C1476 C1477 1.391 . S
C1477 H1465 0.950 . S
C1477 C1473 1.393 . S
C1477 C1476 1.391 . S
C1478 H1468 0.950 . S
C1478 C1479 1.386 1_655 S
C1478 C1480 1.391 . S
C1479 C1478 1.386 1_455 S
C1479 C1483 1.393 . S
C1480 H1469 0.950 . S
C1480 C1478 1.391 . S
C1480 C1481 1.400 1_655 S
C1481 C1475 1.491 1_455 S
C1481 C1480 1.400 1_455 S
C1481 C1482 1.398 . S
C1482 H1470 0.950 . S
C1482 C1481 1.398 . S
C1482 C1483 1.391 . S
C1483 H1471 0.950 . S
C1483 C1479 1.393 . S
C1483 C1482 1.391 . S
H1484 C1492 0.950 . S
H1485 C1497 0.950 . S
H1486 C1494 0.950 . S
H1487 C1496 0.950 . S
H1488 C1498 0.950 . S
H1489 C1500 0.950 . S
H1490 C1502 0.950 . S
H1491 C1503 0.950 . S
C1492 H1484 0.950 . S
C1492 C1493 1.386 . S
C1492 C1494 1.391 . S
C1493 C1492 1.386 . S
C1493 C1497 1.393 . S
C1494 H1486 0.950 . S
C1494 C1492 1.391 . S
C1494 C1495 1.400 . S
C1495 C1494 1.400 . S
C1495 C1496 1.398 . S
C1495 C1501 1.491 . S
C1496 H1487 0.950 . S
C1496 C1495 1.398 . S
C1496 C1497 1.391 . S
C1497 H1485 0.950 . S
C1497 C1493 1.393 . S
C1497 C1496 1.391 . S
C1498 H1488 0.950 . S
C1498 C1499 1.386 . S
C1498 C1500 1.391 . S
C1499 C1498 1.386 . S
C1499 C1503 1.393 . S
C1500 H1489 0.950 . S
C1500 C1498 1.391 . S
C1500 C1501 1.400 . S
C1501 C1495 1.491 . S
C1501 C1500 1.400 . S
C1501 C1502 1.398 . S
C1502 H1490 0.950 . S
C1502 C1501 1.398 . S
C1502 C1503 1.391 . S
C1503 H1491 0.950 . S
C1503 C1499 1.393 . S
C1503 C1502 1.391 . S
H1504 C1512 0.950 . S
H1505 C1517 0.950 . S
H1506 C1514 0.950 . S
H1507 C1516 0.950 . S
H1508 C1518 0.950 . S
H1509 C1520 0.950 . S
H1510 C1522 0.950 . S
H1511 C1523 0.950 . S
C1512 H1504 0.950 . S
C1512 C1513 1.386 . S
C1512 C1514 1.391 . S
C1513 C1512 1.386 . S
C1513 C1517 1.393 . S
C1514 H1506 0.950 . S
C1514 C1512 1.391 . S
C1514 C1515 1.400 . S
C1515 C1514 1.400 . S
C1515 C1516 1.398 . S
C1515 C1521 1.491 . S
C1516 H1507 0.950 . S
C1516 C1515 1.398 . S
C1516 C1517 1.391 . S
C1517 H1505 0.950 . S
C1517 C1513 1.393 . S
C1517 C1516 1.391 . S
C1518 H1508 0.950 . S
C1518 C1519 1.386 . S
C1518 C1520 1.391 . S
C1519 C1518 1.386 . S
C1519 C1523 1.393 . S
C1520 H1509 0.950 . S
C1520 C1518 1.391 . S
C1520 C1521 1.400 . S
C1521 C1515 1.491 . S
C1521 C1520 1.400 . S
C1521 C1522 1.398 . S
C1522 H1510 0.950 . S
C1522 C1521 1.398 . S
C1522 C1523 1.391 . S
C1523 H1511 0.950 . S
C1523 C1519 1.393 . S
C1523 C1522 1.391 . S
H1524 C1532 0.950 1_655 S
H1525 C1537 0.950 . S
H1526 C1534 0.950 . S
H1527 C1536 0.950 . S
H1528 C1538 0.950 1_455 S
H1529 C1540 0.950 . S
H1530 C1542 0.950 . S
H1531 C1543 0.950 . S
C1532 H1524 0.950 1_455 S
C1532 C1533 1.386 . S
C1532 C1534 1.391 1_455 S
C1533 C1532 1.386 . S
C1533 C1537 1.393 . S
C1534 H1526 0.950 . S
C1534 C1532 1.391 1_655 S
C1534 C1535 1.400 1_655 S
C1535 C1534 1.400 1_455 S
C1535 C1536 1.398 . S
C1535 C1541 1.491 1_455 S
C1536 H1527 0.950 . S
C1536 C1535 1.398 . S
C1536 C1537 1.391 . S
C1537 H1525 0.950 . S
C1537 C1533 1.393 . S
C1537 C1536 1.391 . S
C1538 H1528 0.950 1_655 S
C1538 C1539 1.386 . S
C1538 C1540 1.391 1_655 S
C1539 C1538 1.386 . S
C1539 C1543 1.393 . S
C1540 H1529 0.950 . S
C1540 C1538 1.391 1_455 S
C1540 C1541 1.400 1_455 S
C1541 C1535 1.491 1_655 S
C1541 C1540 1.400 1_655 S
C1541 C1542 1.398 . S
C1542 H1530 0.950 . S
C1542 C1541 1.398 . S
C1542 C1543 1.391 . S
C1543 H1531 0.950 . S
C1543 C1539 1.393 . S
C1543 C1542 1.391 . S
H1544 C1552 0.950 . S
H1545 C1557 0.950 . S
H1546 C1554 0.950 . S
H1547 C1556 0.950 . S
H1548 C1558 0.950 . S
H1549 C1560 0.950 . S
H1550 C1562 0.950 . S
H1551 C1563 0.950 . S
C1552 H1544 0.950 . S
C1552 C1553 1.386 . S
C1552 C1554 1.391 . S
C1553 C1552 1.386 . S
C1553 C1557 1.393 . S
C1554 H1546 0.950 . S
C1554 C1552 1.391 . S
C1554 C1555 1.400 . S
C1555 C1554 1.400 . S
C1555 C1556 1.398 . S
C1555 C1561 1.491 . S
C1556 H1547 0.950 . S
C1556 C1555 1.398 . S
C1556 C1557 1.391 . S
C1557 H1545 0.950 . S
C1557 C1553 1.393 . S
C1557 C1556 1.391 . S
C1558 H1548 0.950 . S
C1558 C1559 1.386 . S
C1558 C1560 1.391 . S
C1559 C1558 1.386 . S
C1559 C1563 1.393 . S
C1560 H1549 0.950 . S
C1560 C1558 1.391 . S
C1560 C1561 1.400 . S
C1561 C1555 1.491 . S
C1561 C1560 1.400 . S
C1561 C1562 1.398 . S
C1562 H1550 0.950 . S
C1562 C1561 1.398 . S
C1562 C1563 1.391 . S
C1563 H1551 0.950 . S
C1563 C1559 1.393 . S
C1563 C1562 1.391 . S
H1564 C1572 0.950 . S
H1565 C1577 0.950 . S
H1566 C1574 0.950 . S
H1567 C1576 0.950 . S
H1568 C1578 0.950 . S
H1569 C1580 0.950 . S
H1570 C1582 0.950 . S
H1571 C1583 0.950 . S
C1572 H1564 0.950 . S
C1572 C1573 1.386 . S
C1572 C1574 1.391 . S
C1573 C1572 1.386 . S
C1573 C1577 1.393 1_455 S
C1574 H1566 0.950 . S
C1574 C1572 1.391 . S
C1574 C1575 1.400 . S
C1575 C1574 1.400 . S
C1575 C1576 1.398 1_455 S
C1575 C1581 1.491 1_455 S
C1576 H1567 0.950 . S
C1576 C1575 1.398 1_655 S
C1576 C1577 1.391 . S
C1577 H1565 0.950 . S
C1577 C1573 1.393 1_655 S
C1577 C1576 1.391 . S
C1578 H1568 0.950 . S
C1578 C1579 1.386 . S
C1578 C1580 1.391 . S
C1579 C1578 1.386 . S
C1579 C1583 1.393 1_655 S
C1580 H1569 0.950 . S
C1580 C1578 1.391 . S
C1580 C1581 1.400 . S
C1581 C1575 1.491 1_655 S
C1581 C1580 1.400 . S
C1581 C1582 1.398 1_655 S
C1582 H1570 0.950 . S
C1582 C1581 1.398 1_455 S
C1582 C1583 1.391 . S
C1583 H1571 0.950 . S
C1583 C1579 1.393 1_455 S
C1583 C1582 1.391 . S
C473 C15 2.121 . S
C479 C21 1.989 . S
C493 C50 1.991 . S
C499 C44 2.121 . S
C513 C79 2.005 . S
C519 C73 2.106 . S
C533 C108 1.987 . S
C539 C102 2.112 . S
C553 C131 2.121 . S
C559 C137 1.992 . S
C573 C160 2.121 . S
C579 C166 1.996 . S
C593 C189 2.115 . S
C599 C195 2.010 . S
C613 C224 1.986 . S
C619 C218 2.119 . S
C633 C253 2.005 . S
C639 C247 2.106 . S
C653 C276 2.115 . S
C659 C282 2.010 . S
C673 C305 2.117 . S
C679 C311 2.007 . S
C693 C340 1.993 . S
C699 C334 2.121 . S
C713 C369 1.988 . S
C719 C363 2.111 . S
C733 C398 1.993 . S
C739 C392 2.121 . S
C753 C427 1.993 . S
C759 C421 2.121 . S
C773 C450 2.107 . S
C779 C456 2.009 . S
C793 C3 1.017 . S
C799 C158 0.993 . S
C813 C32 1.020 . S
C819 C129 1.022 . S
C833 C61 1.010 . S
C839 C216 0.997 . S
C853 C90 1.022 . S
C859 C187 1.020 . S
C873 C119 1.029 . S
C879 C42 0.991 . S
C893 C148 1.008 . S
C899 C13 0.999 . S
C913 C100 0.998 . S
C919 C177 1.010 . S
C933 C71 1.023 . S
C939 C206 0.999 . S
C953 C235 1.033 . S
C959 C390 0.998 . S
C973 C361 1.027 . S
C979 C264 1.003 . S
C993 C293 1.007 . S
C999 C448 1.028 . S
C1013 C419 0.995 . S
C1019 C322 1.012 . S
C1033 C274 1.015 . S
C1039 C351 1.026 . S
C1053 C380 1.002 . S
C1059 C245 1.008 . S
C1073 C409 1.013 . S
C1079 C332 0.995 . S
C1093 C438 1.010 . S
C1099 C303 1.027 . S
C1113 C5 1.310 . S
C1119 C34 1.312 . S
C1133 C92 1.322 . S
C1139 C63 1.306 . S
C1153 C121 1.302 . S
C1159 C150 1.321 . S
C1173 C208 1.316 . S
C1179 C179 1.312 . S
C1193 C266 1.319 . S
C1199 C237 1.304 . S
C1213 C295 1.313 . S
C1219 C324 1.309 . S
C1233 C353 1.320 . S
C1239 C382 1.308 . S
C1253 C411 1.305 . S
C1259 C440 1.317 . S
C1273 C10 1.548 . S
C1279 C271 1.564 . S
C1293 C39 1.576 . S
C1299 C242 1.569 . S
C1313 C329 1.567 . S
C1319 C68 1.576 . S
C1333 C300 1.547 . S
C1339 C97 1.561 . S
C1353 C126 1.576 . S
C1359 C387 1.561 . S
C1373 C155 1.563 . S
C1379 C358 1.576 . S
C1393 C184 1.576 . S
C1399 C445 1.561 . S
C1413 C416 1.574 . S
C1419 C213 1.556 . S
C1433 C95 1.335 . S
C1439 C8 1.348 . S
C1453 C37 1.360 . S
C1459 C66 1.372 . S
C1473 C211 1.344 . S
C1479 C124 1.361 . S
C1493 C153 1.373 . S
C1499 C182 1.369 . S
C1513 C240 1.346 . S
C1519 C327 1.333 . S
C1533 C269 1.373 . S
C1539 C298 1.370 . S
C1553 C443 1.374 . S
C1559 C356 1.367 . S
C1573 C414 1.344 . S
C1579 C385 1.333 . S
