# Generated by pormake.
# Topology umh, (4)-cn, num edge types: 1
# Building blocks:
#     Node 0, Type 0, BuildingBlock: NAWXER_clean_sbu_0, # of connection points: 4
#     Node 1, Type 0, BuildingBlock: NAWXER_clean_sbu_0, # of connection points: 4
#     Node 2, Type 0, BuildingBlock: NAWXER_clean_sbu_0, # of connection points: 4
#     Node 3, Type 0, BuildingBlock: NAWXER_clean_sbu_0, # of connection points: 4
#     Node 4, Type 0, BuildingBlock: NAWXER_clean_sbu_0, # of connection points: 4
#     Node 5, Type 0, BuildingBlock: NAWXER_clean_sbu_0, # of connection points: 4
#     Node 6, Type 0, BuildingBlock: NAWXER_clean_sbu_0, # of connection points: 4
#     Node 7, Type 0, BuildingBlock: NAWXER_clean_sbu_0, # of connection points: 4
#     Node 8, Type 0, BuildingBlock: NAWXER_clean_sbu_0, # of connection points: 4
#     Node 9, Type 0, BuildingBlock: NAWXER_clean_sbu_0, # of connection points: 4
#     Node 10, Type 0, BuildingBlock: NAWXER_clean_sbu_0, # of connection points: 4
#     Node 11, Type 0, BuildingBlock: NAWXER_clean_sbu_0, # of connection points: 4
#     Node 12, Type 0, BuildingBlock: NAWXER_clean_sbu_0, # of connection points: 4
#     Node 13, Type 0, BuildingBlock: NAWXER_clean_sbu_0, # of connection points: 4
#     Node 14, Type 0, BuildingBlock: NAWXER_clean_sbu_0, # of connection points: 4
#     Node 15, Type 0, BuildingBlock: NAWXER_clean_sbu_0, # of connection points: 4
#     Edge 16, Type (0, 0), BuildingBlock: UVAHIK_clean_linker_0, # of connection points: 2
#     Edge 17, Type (0, 0), BuildingBlock: UVAHIK_clean_linker_0, # of connection points: 2
#     Edge 18, Type (0, 0), BuildingBlock: UVAHIK_clean_linker_0, # of connection points: 2
#     Edge 19, Type (0, 0), BuildingBlock: UVAHIK_clean_linker_0, # of connection points: 2
#     Edge 20, Type (0, 0), BuildingBlock: UVAHIK_clean_linker_0, # of connection points: 2
#     Edge 21, Type (0, 0), BuildingBlock: UVAHIK_clean_linker_0, # of connection points: 2
#     Edge 22, Type (0, 0), BuildingBlock: UVAHIK_clean_linker_0, # of connection points: 2
#     Edge 23, Type (0, 0), BuildingBlock: UVAHIK_clean_linker_0, # of connection points: 2
#     Edge 24, Type (0, 0), BuildingBlock: UVAHIK_clean_linker_0, # of connection points: 2
#     Edge 25, Type (0, 0), BuildingBlock: UVAHIK_clean_linker_0, # of connection points: 2
#     Edge 26, Type (0, 0), BuildingBlock: UVAHIK_clean_linker_0, # of connection points: 2
#     Edge 27, Type (0, 0), BuildingBlock: UVAHIK_clean_linker_0, # of connection points: 2
#     Edge 28, Type (0, 0), BuildingBlock: UVAHIK_clean_linker_0, # of connection points: 2
#     Edge 29, Type (0, 0), BuildingBlock: UVAHIK_clean_linker_0, # of connection points: 2
#     Edge 30, Type (0, 0), BuildingBlock: UVAHIK_clean_linker_0, # of connection points: 2
#     Edge 31, Type (0, 0), BuildingBlock: UVAHIK_clean_linker_0, # of connection points: 2
#     Edge 32, Type (0, 0), BuildingBlock: UVAHIK_clean_linker_0, # of connection points: 2
#     Edge 33, Type (0, 0), BuildingBlock: UVAHIK_clean_linker_0, # of connection points: 2
#     Edge 34, Type (0, 0), BuildingBlock: UVAHIK_clean_linker_0, # of connection points: 2
#     Edge 35, Type (0, 0), BuildingBlock: UVAHIK_clean_linker_0, # of connection points: 2
#     Edge 36, Type (0, 0), BuildingBlock: UVAHIK_clean_linker_0, # of connection points: 2
#     Edge 37, Type (0, 0), BuildingBlock: UVAHIK_clean_linker_0, # of connection points: 2
#     Edge 38, Type (0, 0), BuildingBlock: UVAHIK_clean_linker_0, # of connection points: 2
#     Edge 39, Type (0, 0), BuildingBlock: UVAHIK_clean_linker_0, # of connection points: 2
#     Edge 40, Type (0, 0), BuildingBlock: UVAHIK_clean_linker_0, # of connection points: 2
#     Edge 41, Type (0, 0), BuildingBlock: UVAHIK_clean_linker_0, # of connection points: 2
#     Edge 42, Type (0, 0), BuildingBlock: UVAHIK_clean_linker_0, # of connection points: 2
#     Edge 43, Type (0, 0), BuildingBlock: UVAHIK_clean_linker_0, # of connection points: 2
#     Edge 44, Type (0, 0), BuildingBlock: UVAHIK_clean_linker_0, # of connection points: 2
#     Edge 45, Type (0, 0), BuildingBlock: UVAHIK_clean_linker_0, # of connection points: 2
#     Edge 46, Type (0, 0), BuildingBlock: UVAHIK_clean_linker_0, # of connection points: 2
#     Edge 47, Type (0, 0), BuildingBlock: UVAHIK_clean_linker_0, # of connection points: 2
# Relax obj value: 0.044
# Max RMSD: 0.109
# Mean RMSD: 0.109
data_MOF--net-umh--node1-NAWXER_clean_sbu_0--edge1-UVAHIK_clean_linker_0
_symmetry_space_group_name_H-M    P1
_symmetry_Int_Tables_number       1
_symmetry_cell_setting            triclinic
loop_
_symmetry_equiv_pos_as_xyz
'x, y, z'
_cell_length_a     50.488327
_cell_length_b     50.533595
_cell_length_c     70.111577
_cell_angle_alpha  90.056579
_cell_angle_beta   89.975611
_cell_angle_gamma 90.042151
loop_
_atom_site_label
_atom_site_type_symbol
_atom_site_fract_x
_atom_site_fract_y
_atom_site_fract_z
_atom_type_partial_charge
C0 C 0.38747 0.10366 0.11075 0.0
C1 C 0.34083 0.10664 0.1728 0.0
O2 O 0.39801 0.11189 0.1262 0.0
Zn3 Zn 0.36672 0.10576 0.14263 0.0
O4 O 0.36342 0.09575 0.11085 0.0
Zn5 Zn 0.33078 0.09 0.12913 0.0
O6 O 0.30525 0.11599 0.11866 0.0
O7 O 0.3406 0.13464 0.1314 0.0
O8 O 0.3273 0.09781 0.15872 0.0
O9 O 0.36495 0.11325 0.1702 0.0
O10 O 0.36426 0.06387 0.14185 0.0
O11 O 0.32774 0.05099 0.12719 0.0
C12 C 0.31839 0.13682 0.12276 0.0
C13 C 0.34938 0.04526 0.13562 0.0
C14 C 0.43926 0.34027 0.67543 0.0
C15 C 0.44116 0.38904 0.61434 0.0
O16 O 0.43258 0.36441 0.67331 0.0
Zn17 Zn 0.43935 0.36708 0.64569 0.0
O18 O 0.4477 0.32718 0.66101 0.0
Zn19 Zn 0.45474 0.33166 0.6314 0.0
O20 O 0.49368 0.32851 0.62902 0.0
O21 O 0.48135 0.36474 0.64423 0.0
O22 O 0.44911 0.36505 0.61386 0.0
O23 O 0.43279 0.39892 0.62998 0.0
O24 O 0.41009 0.34146 0.6343 0.0
O25 O 0.42839 0.30666 0.62062 0.0
C26 C 0.49977 0.34999 0.63754 0.0
C27 C 0.40765 0.31962 0.62521 0.0
C28 C 0.20775 0.43674 0.17587 0.0
C29 C 0.16191 0.4382 0.11361 0.0
O30 O 0.18393 0.42935 0.173 0.0
Zn31 Zn 0.18236 0.43697 0.14553 0.0
O32 O 0.22127 0.44611 0.16196 0.0
Zn33 Zn 0.21785 0.45395 0.13233 0.0
O34 O 0.21968 0.49305 0.13054 0.0
O35 O 0.18336 0.47895 0.14484 0.0
O36 O 0.18562 0.44708 0.11381 0.0
O37 O 0.15153 0.4296 0.129 0.0
O38 O 0.20954 0.409 0.13438 0.0
O39 O 0.24429 0.42887 0.12179 0.0
C40 C 0.19772 0.49807 0.13879 0.0
C41 C 0.23184 0.40759 0.12577 0.0
C42 C 0.04694 0.19513 0.63757 0.0
C43 C 0.13709 0.23044 0.62458 0.0
O44 O 0.05178 0.21749 0.62988 0.0
Zn45 Zn 0.09083 0.2157 0.63116 0.0
O46 O 0.06624 0.18053 0.64302 0.0
Zn47 Zn 0.10848 0.17975 0.64313 0.0
O48 O 0.11707 0.18021 0.67056 0.0
O49 O 0.09865 0.21735 0.66079 0.0
O50 O 0.13601 0.20763 0.63242 0.0
O51 O 0.11562 0.24294 0.6213 0.0
O52 O 0.0971 0.18446 0.61172 0.0
O53 O 0.11543 0.14982 0.62562 0.0
C54 C 0.10866 0.20345 0.67423 0.0
C55 C 0.10605 0.16084 0.61071 0.0
C56 C 0.3427 0.43744 0.35754 0.0
C57 C 0.38591 0.44105 0.42083 0.0
O58 O 0.36674 0.43112 0.36073 0.0
Zn59 Zn 0.36702 0.43887 0.38833 0.0
O60 O 0.32846 0.44635 0.37122 0.0
Zn61 Zn 0.33037 0.45467 0.40076 0.0
O62 O 0.32723 0.49371 0.40222 0.0
O63 O 0.3646 0.48077 0.38882 0.0
O64 O 0.36189 0.44896 0.42 0.0
O65 O 0.39734 0.43288 0.40569 0.0
O66 O 0.34017 0.41003 0.39889 0.0
O67 O 0.30419 0.4288 0.41058 0.0
C68 C 0.34935 0.49944 0.39445 0.0
C69 C 0.31747 0.40792 0.40689 0.0
C70 C 0.04977 0.34792 0.89234 0.0
C71 C 0.13898 0.31053 0.90537 0.0
O72 O 0.05388 0.3255 0.90015 0.0
Zn73 Zn 0.09303 0.32621 0.89879 0.0
O74 O 0.0695 0.36196 0.88689 0.0
Zn75 Zn 0.11166 0.36185 0.88688 0.0
O76 O 0.1203 0.36123 0.85945 0.0
O77 O 0.10074 0.32458 0.86914 0.0
O78 O 0.1384 0.33339 0.89759 0.0
O79 O 0.11726 0.29838 0.90855 0.0
O80 O 0.10014 0.35717 0.91828 0.0
O81 O 0.1192 0.39154 0.90451 0.0
C82 C 0.11114 0.33827 0.85572 0.0
C83 C 0.10962 0.38058 0.91939 0.0
C84 C 0.19418 0.04662 0.391 0.0
C85 C 0.22799 0.13749 0.40334 0.0
O86 O 0.21628 0.05197 0.39893 0.0
Zn87 Zn 0.21412 0.091 0.3971 0.0
O88 O 0.17954 0.06554 0.38501 0.0
Zn89 Zn 0.17831 0.10755 0.38416 0.0
O90 O 0.17942 0.11493 0.3566 0.0
O91 O 0.21707 0.09877 0.36747 0.0
O92 O 0.20554 0.13587 0.39494 0.0
O93 O 0.24056 0.1163 0.40733 0.0
O94 O 0.18215 0.09765 0.41587 0.0
O95 O 0.14767 0.11472 0.40096 0.0
C96 C 0.20331 0.10788 0.35362 0.0
C97 C 0.15837 0.10627 0.41628 0.0
C98 C 0.40973 0.22244 0.90467 0.0
C99 C 0.50251 0.19377 0.89288 0.0
O100 O 0.43018 0.23605 0.909 0.0
Zn101 Zn 0.45709 0.2112 0.89879 0.0
O102 O 0.41269 0.20025 0.89613 0.0
Zn103 Zn 0.44252 0.17472 0.88544 0.0
O104 O 0.43674 0.14356 0.90202 0.0
O105 O 0.45222 0.17862 0.91721 0.0
O106 O 0.48443 0.17824 0.88665 0.0
O107 O 0.49595 0.21546 0.90094 0.0
O108 O 0.44975 0.21405 0.86911 0.0
O109 O 0.43557 0.17583 0.8578 0.0
C110 C 0.44484 0.15443 0.91739 0.0
C111 C 0.44158 0.20004 0.85506 0.0
C112 C 0.66491 0.94257 0.92054 0.0
C113 C 0.70927 0.94001 0.85758 0.0
O114 O 0.68881 0.95089 0.91994 0.0
Zn115 Zn 0.72058 0.95715 0.90098 0.0
O116 O 0.65389 0.93425 0.90529 0.0
Zn117 Zn 0.68444 0.94084 0.88822 0.0
O118 O 0.71153 0.91236 0.89891 0.0
O119 O 0.74691 0.93171 0.91103 0.0
O120 O 0.6853 0.9332 0.86062 0.0
O121 O 0.72316 0.94911 0.87138 0.0
O122 O 0.72319 0.99618 0.90266 0.0
O123 O 0.68623 0.98281 0.88887 0.0
C124 C 0.73408 0.91061 0.90714 0.0
C125 C 0.70112 1.00165 0.89473 0.0
C126 C 0.60242 0.66096 0.41888 0.0
C127 C 0.60564 0.70511 0.356 0.0
O128 O 0.59399 0.68479 0.41827 0.0
Zn129 Zn 0.58815 0.7166 0.39929 0.0
O130 O 0.61135 0.65009 0.40375 0.0
Zn131 Zn 0.60472 0.68055 0.3867 0.0
O132 O 0.63308 0.70772 0.3975 0.0
O133 O 0.61349 0.74299 0.40952 0.0
O134 O 0.61255 0.68125 0.35917 0.0
O135 O 0.59638 0.71908 0.36971 0.0
O136 O 0.5491 0.71915 0.40079 0.0
O137 O 0.56264 0.68212 0.38722 0.0
C138 C 0.63469 0.73028 0.40573 0.0
C139 C 0.54371 0.69699 0.39297 0.0
C140 C 0.82145 0.63996 0.90477 0.0
C141 C 0.85396 0.54894 0.89155 0.0
O142 O 0.84336 0.63816 0.89569 0.0
Zn143 Zn 0.86965 0.60979 0.88401 0.0
O144 O 0.80881 0.61891 0.90906 0.0
Zn145 Zn 0.8345 0.59335 0.89813 0.0
O146 O 0.86762 0.59997 0.91583 0.0
O147 O 0.90127 0.61695 0.89983 0.0
O148 O 0.83238 0.55427 0.9002 0.0
O149 O 0.86823 0.56785 0.88506 0.0
O150 O 0.86687 0.61703 0.85648 0.0
O151 O 0.82991 0.60086 0.86858 0.0
C152 C 0.89144 0.60854 0.91547 0.0
C153 C 0.84284 0.60988 0.85427 0.0
C154 C 0.90524 0.81974 0.40478 0.0
C155 C 0.99667 0.85159 0.39171 0.0
O156 O 0.9072 0.84193 0.39611 0.0
Zn157 Zn 0.93588 0.8683 0.38482 0.0
O158 O 0.92622 0.80684 0.40881 0.0
Zn159 Zn 0.95199 0.83256 0.39819 0.0
O160 O 0.9463 0.86521 0.41651 0.0
O161 O 0.9293 0.89946 0.40126 0.0
O162 O 0.99103 0.82976 0.3999 0.0
O163 O 0.97792 0.86638 0.38561 0.0
O164 O 0.92835 0.86651 0.35726 0.0
O165 O 0.94406 0.829 0.36864 0.0
C166 C 0.93803 0.88911 0.41661 0.0
C167 C 0.93509 0.84247 0.35461 0.0
C168 C 0.70195 0.60813 0.67489 0.0
C169 C 0.65628 0.60581 0.61254 0.0
O170 O 0.71579 0.59957 0.66088 0.0
Zn171 Zn 0.71273 0.59205 0.63122 0.0
O172 O 0.67783 0.61452 0.67213 0.0
Zn173 Zn 0.67658 0.60737 0.64453 0.0
O174 O 0.67909 0.56544 0.64339 0.0
O175 O 0.71604 0.55313 0.6291 0.0
O176 O 0.64554 0.61376 0.62799 0.0
O177 O 0.68034 0.59792 0.61271 0.0
O178 O 0.73833 0.61826 0.62105 0.0
O179 O 0.7028 0.63659 0.63374 0.0
C180 C 0.69422 0.54704 0.63716 0.0
C181 C 0.72511 0.63899 0.62524 0.0
C182 C 0.93878 0.70763 0.17294 0.0
C183 C 0.94367 0.66534 0.10935 0.0
O184 O 0.94901 0.72172 0.15968 0.0
Zn185 Zn 0.95858 0.71995 0.13029 0.0
O186 O 0.9315 0.684 0.16927 0.0
Zn187 Zn 0.9406 0.68382 0.14192 0.0
O188 O 0.9826 0.68458 0.14249 0.0
O189 O 0.9978 0.72151 0.12971 0.0
O190 O 0.9341 0.65408 0.12412 0.0
O191 O 0.95259 0.68896 0.11063 0.0
O192 O 0.93423 0.74723 0.12006 0.0
O193 O 0.91345 0.7119 0.13093 0.0
C194 C 1.00217 0.69909 0.13744 0.0
C195 C 0.91265 0.73474 0.1231 0.0
C196 C 0.8835 0.94052 0.61103 0.0
C197 C 0.84135 0.93782 0.67474 0.0
O198 O 0.85977 0.9492 0.61212 0.0
Zn199 Zn 0.82877 0.95573 0.63172 0.0
O200 O 0.89491 0.9319 0.62603 0.0
Zn201 Zn 0.86509 0.93873 0.64367 0.0
O202 O 0.8372 0.91079 0.63323 0.0
O203 O 0.80169 0.93078 0.62194 0.0
O204 O 0.86509 0.93074 0.67119 0.0
O205 O 0.82709 0.94729 0.66129 0.0
O206 O 0.82676 0.99485 0.63047 0.0
O207 O 0.86396 0.98069 0.64341 0.0
C208 C 0.81435 0.90946 0.6254 0.0
C209 C 0.84919 0.99986 0.63803 0.0
C210 C 0.5491 0.85031 0.13718 0.0
C211 C 0.64165 0.82142 0.12507 0.0
O212 O 0.56727 0.86538 0.14385 0.0
Zn213 Zn 0.60918 0.86854 0.14525 0.0
O214 O 0.55547 0.82897 0.1286 0.0
Zn215 Zn 0.59436 0.83276 0.13109 0.0
O216 O 0.60134 0.8287 0.16078 0.0
O217 O 0.61587 0.86633 0.17287 0.0
O218 O 0.62114 0.80812 0.12045 0.0
O219 O 0.63884 0.84327 0.13408 0.0
O220 O 0.61532 0.90033 0.12938 0.0
O221 O 0.59961 0.86605 0.11339 0.0
C222 C 0.60952 0.8421 0.17513 0.0
C223 C 0.60721 0.89017 0.11377 0.0
C224 C 0.42679 0.12191 0.94148 0.0
C225 C 0.446 0.14048 0.93592 0.0
C226 C 0.42543 0.1135 0.96058 0.0
C227 C 0.44094 0.1395 1.00808 0.0
H228 H 0.42611 0.06865 0.02617 0.0
C229 C 0.42344 0.11953 0.08831 0.0
C230 C 0.40167 0.10312 0.09223 0.0
C231 C 0.4337 0.12105 0.06969 0.0
C232 C 0.4301 0.08862 0.02136 0.0
H233 H 0.48022 0.1629 0.94542 0.0
H234 H 0.47795 0.14814 0.97833 0.0
H235 H 0.43356 0.0762 0.99215 0.0
H236 H 0.37479 0.07412 0.07999 0.0
H237 H 0.39203 0.07715 0.048 0.0
H238 H 0.43641 0.15228 0.03696 0.0
C239 C 0.46357 0.14053 0.96825 0.0
C240 C 0.43436 0.09287 1.00186 0.0
C241 C 0.46491 0.14888 0.94935 0.0
C242 C 0.39142 0.08723 0.07747 0.0
C243 C 0.40155 0.08874 0.05904 0.0
C244 C 0.4364 0.13532 0.02751 0.0
C245 C 0.44326 0.12356 0.97427 0.0
C246 C 0.43963 0.11841 0.99499 0.0
C247 C 0.42243 0.10608 0.05472 0.0
C248 C 0.43055 0.10989 0.03442 0.0
H249 H 0.41192 0.11522 0.93144 0.0
H250 H 0.40955 0.10035 0.96484 0.0
H251 H 0.44462 0.15951 1.0032 0.0
H252 H 0.43179 0.13196 0.09938 0.0
H253 H 0.45008 0.13436 0.06695 0.0
C254 C 0.42188 0.42671 0.44382 0.0
C255 C 0.399 0.44148 0.43979 0.0
C256 C 0.43164 0.42538 0.46258 0.0
C257 C 0.42425 0.45628 0.51118 0.0
H258 H 0.44457 0.38661 0.52883 0.0
C259 C 0.42171 0.4211 0.59059 0.0
C260 C 0.44214 0.40398 0.59623 0.0
C261 C 0.42032 0.42992 0.5716 0.0
C262 C 0.43927 0.40631 0.5241 0.0
H263 H 0.3694 0.46761 0.45213 0.0
H264 H 0.38579 0.46479 0.48431 0.0
H265 H 0.43642 0.39374 0.49506 0.0
H266 H 0.47833 0.38465 0.58707 0.0
H267 H 0.47604 0.40019 0.55433 0.0
H268 H 0.42604 0.4684 0.54053 0.0
C269 C 0.39657 0.45445 0.47324 0.0
C270 C 0.43474 0.41044 0.50467 0.0
C271 C 0.38694 0.45579 0.45467 0.0
C272 C 0.46214 0.39757 0.58305 0.0
C273 C 0.46078 0.40633 0.56426 0.0
C274 C 0.42851 0.45205 0.53068 0.0
C275 C 0.41875 0.43887 0.4776 0.0
C276 C 0.42679 0.43538 0.49794 0.0
C277 C 0.43934 0.42171 0.55809 0.0
C278 C 0.43584 0.42695 0.53737 0.0
H279 H 0.43166 0.41554 0.43267 0.0
H280 H 0.44901 0.41345 0.46536 0.0
H281 H 0.41862 0.47591 0.50652 0.0
H282 H 0.40597 0.42618 0.60044 0.0
H283 H 0.40354 0.4418 0.56723 0.0
C284 C 0.09134 0.38387 0.95216 0.0
C285 C 0.10917 0.39351 0.93837 0.0
C286 C 0.09277 0.39225 0.97104 0.0
C287 C 0.11813 0.4427 1.00389 0.0
H288 H 0.12042 0.38438 0.03983 0.0
C289 C 0.15738 0.4542 0.0803 0.0
C290 C 0.14805 0.43768 0.09498 0.0
C291 C 0.14816 0.45146 0.0617 0.0
C292 C 0.11921 0.40098 0.03013 0.0
H293 H 0.14144 0.4209 0.93341 0.0
H294 H 0.14391 0.43589 0.96682 0.0
H295 H 0.11385 0.37546 1.00608 0.0
H296 H 0.12035 0.4064 0.10185 0.0
H297 H 0.10361 0.40182 0.06913 0.0
H298 H 0.1234 0.46827 0.02795 0.0
C299 C 0.12887 0.42165 0.96279 0.0
C300 C 0.11565 0.39584 1.01072 0.0
C301 C 0.12746 0.41313 0.94371 0.0
C302 C 0.12794 0.41937 0.09084 0.0
C303 C 0.1186 0.4166 0.07205 0.0
C304 C 0.12141 0.44789 0.02338 0.0
C305 C 0.11202 0.41061 0.97673 0.0
C306 C 0.11533 0.4166 0.99735 0.0
C307 C 0.12916 0.43217 0.05715 0.0
C308 C 0.1224 0.42705 0.03675 0.0
H309 H 0.07663 0.36908 0.9485 0.0
H310 H 0.07915 0.38384 0.98133 0.0
H311 H 0.11762 0.45908 0.99395 0.0
H312 H 0.17273 0.46873 0.08302 0.0
H313 H 0.15705 0.46363 0.05072 0.0
C314 C 0.12384 0.12858 0.58624 0.0
C315 C 0.10522 0.14772 0.59182 0.0
C316 C 0.12505 0.12019 0.56712 0.0
C317 C 0.11024 0.14611 0.51947 0.0
H318 H 0.12109 0.0743 0.5018 0.0
C319 C 0.12385 0.12387 0.43919 0.0
C320 C 0.14472 0.10646 0.43501 0.0
C321 C 0.11436 0.12614 0.45797 0.0
C322 C 0.11822 0.09452 0.50649 0.0
H323 H 0.07187 0.17132 0.58219 0.0
H324 H 0.07396 0.1567 0.54928 0.0
H325 H 0.11495 0.08282 0.53585 0.0
H326 H 0.17069 0.0765 0.44695 0.0
H327 H 0.15475 0.0808 0.47924 0.0
H328 H 0.11452 0.15811 0.49041 0.0
C329 C 0.08802 0.14861 0.55938 0.0
C330 C 0.11472 0.09934 0.52601 0.0
C331 C 0.08681 0.1569 0.57829 0.0
C332 C 0.15475 0.09035 0.44968 0.0
C333 C 0.14537 0.09261 0.46828 0.0
C334 C 0.114 0.14136 0.50002 0.0
C335 C 0.10765 0.13085 0.5534 0.0
C336 C 0.11085 0.12522 0.53271 0.0
C337 C 0.12551 0.11096 0.47285 0.0
C338 C 0.11836 0.11554 0.49325 0.0
H339 H 0.13828 0.12121 0.59634 0.0
H340 H 0.1404 0.10642 0.56289 0.0
H341 H 0.10762 0.16634 0.52422 0.0
H342 H 0.11569 0.13649 0.42819 0.0
H343 H 0.09872 0.14022 0.46092 0.0
C344 C 0.62638 0.92251 0.09006 0.0
C345 C 0.60628 0.90487 0.09556 0.0
C346 C 0.62796 0.93123 0.07105 0.0
C347 C 0.61055 0.90687 0.02342 0.0
H348 H 0.62984 0.97691 1.00587 0.0
C349 C 0.62885 0.92746 0.94324 0.0
C350 C 0.65145 0.94276 0.93937 0.0
C351 C 0.6188 0.92594 0.96192 0.0
C352 C 0.6246 0.95717 1.01052 0.0
H353 H 0.5708 0.8845 0.08609 0.0
H354 H 0.5734 0.89985 0.05332 0.0
H355 H 0.62197 0.96934 0.03982 0.0
H356 H 0.68023 0.96965 0.95192 0.0
H357 H 0.66334 0.96654 0.98397 0.0
H358 H 0.61423 0.89428 0.99442 0.0
C359 C 0.58829 0.90648 0.06337 0.0
C360 C 0.62008 0.9529 0.02999 0.0
C361 C 0.58675 0.89782 0.08219 0.0
C362 C 0.66292 0.95742 0.95433 0.0
C363 C 0.65299 0.95589 0.97282 0.0
C364 C 0.61533 0.91105 1.00401 0.0
C365 C 0.60945 0.92241 0.05737 0.0
C366 C 0.61322 0.92765 0.03667 0.0
C367 C 0.63111 0.93979 0.97702 0.0
C368 C 0.6228 0.93616 0.9973 0.0
H369 H 0.64176 0.9281 0.10005 0.0
H370 H 0.64451 0.94354 0.06681 0.0
H371 H 0.60563 0.88707 0.02814 0.0
H372 H 0.61954 0.916 0.93203 0.0
H373 H 0.60166 0.91359 0.96458 0.0
C374 C 0.65258 0.58991 0.57912 0.0
C375 C 0.64237 0.60572 0.59392 0.0
C376 C 0.6429 0.59203 0.5606 0.0
C377 C 0.61017 0.64027 0.52928 0.0
H378 H 0.61205 0.58201 0.49316 0.0
C379 C 0.58286 0.65618 0.45113 0.0
C380 C 0.60145 0.64739 0.43758 0.0
C381 C 0.58404 0.64763 0.46997 0.0
C382 C 0.61155 0.59845 0.50308 0.0
H383 H 0.61276 0.63505 0.60107 0.0
H384 H 0.59528 0.63854 0.56848 0.0
H385 H 0.61859 0.57339 0.52714 0.0
H386 H 0.63482 0.62131 0.43291 0.0
H387 H 0.63693 0.6061 0.46623 0.0
H388 H 0.60317 0.66529 0.50524 0.0
C389 C 0.61127 0.6248 0.57126 0.0
C390 C 0.61527 0.59357 0.52256 0.0
C391 C 0.62105 0.62266 0.58996 0.0
C392 C 0.62023 0.62836 0.44303 0.0
C393 C 0.62143 0.61973 0.46208 0.0
C394 C 0.60618 0.64508 0.50988 0.0
C395 C 0.62257 0.60995 0.55624 0.0
C396 C 0.6151 0.6145 0.5359 0.0
C397 C 0.60386 0.63003 0.47585 0.0
C398 C 0.60714 0.62429 0.49652 0.0
H399 H 0.66886 0.57642 0.58168 0.0
H400 H 0.65241 0.58048 0.54952 0.0
H401 H 0.61043 0.65696 0.53897 0.0
H402 H 0.56782 0.67052 0.44731 0.0
H403 H 0.56985 0.65545 0.48011 0.0
C404 C 0.92573 0.62768 0.93784 0.0
C405 C 0.90608 0.60885 0.93378 0.0
C406 C 0.93545 0.6304 0.95653 0.0
C407 C 0.93434 0.59847 1.00507 0.0
H408 H 0.93963 0.67095 0.0227 0.0
C409 C 0.927 0.63242 0.08486 0.0
C410 C 0.94465 0.65257 0.09032 0.0
C411 C 0.92597 0.62399 0.06574 0.0
C412 C 0.93848 0.65056 0.01797 0.0
H413 H 0.88275 0.57678 0.9457 0.0
H414 H 0.89906 0.58175 0.97785 0.0
H415 H 0.93319 0.66214 0.98892 0.0
H416 H 0.97646 0.67806 0.08037 0.0
H417 H 0.97458 0.66345 0.04748 0.0
H418 H 0.93857 0.58715 0.03444 0.0
C419 C 0.90731 0.59439 0.96689 0.0
C420 C 0.935 0.64548 0.99854 0.0
C421 C 0.89772 0.59171 0.94838 0.0
C422 C 0.96224 0.66284 0.07662 0.0
C423 C 0.96118 0.65454 0.0577 0.0
C424 C 0.93752 0.6036 0.02458 0.0
C425 C 0.92572 0.61425 0.97141 0.0
C426 C 0.9326 0.61938 0.9918 0.0
C427 C 0.94254 0.63564 0.05189 0.0
C428 C 0.93948 0.62972 0.03124 0.0
H429 H 0.93255 0.64115 0.92687 0.0
H430 H 0.94999 0.64563 0.95941 0.0
H431 H 0.93298 0.57808 1.00042 0.0
H432 H 0.91322 0.62415 0.09509 0.0
H433 H 0.9114 0.60932 0.06163 0.0
C434 C 0.95838 0.89604 0.44835 0.0
C435 C 0.93885 0.90332 0.43506 0.0
C436 C 0.9569 0.90444 0.46724 0.0
C437 C 0.92547 0.95069 0.50096 0.0
H438 H 0.93192 0.89198 0.53631 0.0
C439 C 0.88435 0.95509 0.57716 0.0
C440 C 0.89629 0.94056 0.59196 0.0
C441 C 0.89373 0.95351 0.55852 0.0
C442 C 0.93064 0.90876 0.52677 0.0
H443 H 0.90342 0.92665 0.43082 0.0
H444 H 0.90077 0.9416 0.46419 0.0
H445 H 0.93993 0.88486 0.50249 0.0
H446 H 0.92844 0.91389 0.59882 0.0
H447 H 0.94534 0.91136 0.56601 0.0
H448 H 0.91613 0.97461 0.52524 0.0
C449 C 0.91727 0.92932 0.45984 0.0
C450 C 0.93509 0.90465 0.50731 0.0
C451 C 0.91878 0.92086 0.44075 0.0
C452 C 0.91876 0.92526 0.58775 0.0
C453 C 0.92827 0.92368 0.56892 0.0
C454 C 0.92128 0.95489 0.52048 0.0
C455 C 0.93581 0.92033 0.4734 0.0
C456 C 0.93223 0.92546 0.49415 0.0
C457 C 0.91552 0.93746 0.55401 0.0
C458 C 0.92332 0.93386 0.53362 0.0
H459 H 0.97433 0.88282 0.44432 0.0
H460 H 0.97182 0.8977 0.47722 0.0
H461 H 0.92345 0.96716 0.4912 0.0
H462 H 0.86711 0.9673 0.57983 0.0
H463 H 0.88307 0.9641 0.54752 0.0
C464 C 0.22427 0.35935 0.12041 0.0
C465 C 0.24206 0.38083 0.12081 0.0
C466 C 0.2332 0.33353 0.1175 0.0
C467 C 0.29204 0.29181 0.12372 0.0
H468 H 0.2512 0.24056 0.09479 0.0
C469 C 0.32782 0.18439 0.11639 0.0
C470 C 0.30904 0.16392 0.11802 0.0
C471 C 0.31993 0.21068 0.11426 0.0
C472 C 0.26271 0.25452 0.10308 0.0
H473 H 0.28329 0.39189 0.11788 0.0
H474 H 0.29911 0.3464 0.11283 0.0
H475 H 0.23789 0.28703 0.09496 0.0
H476 H 0.26711 0.15505 0.11795 0.0
H477 H 0.25309 0.20135 0.11455 0.0
H478 H 0.31647 0.25941 0.13226 0.0
C479 C 0.27812 0.34975 0.11489 0.0
C480 C 0.25514 0.28124 0.10312 0.0
C481 C 0.26909 0.37583 0.11764 0.0
C482 C 0.28204 0.17034 0.11667 0.0
C483 C 0.27406 0.1969 0.1147 0.0
C484 C 0.29954 0.26514 0.12375 0.0
C485 C 0.26026 0.32824 0.11499 0.0
C486 C 0.2696 0.30022 0.11356 0.0
C487 C 0.29296 0.2175 0.11391 0.0
C488 C 0.28494 0.24604 0.11349 0.0
H489 H 0.20327 0.3624 0.12268 0.0
H490 H 0.21888 0.31757 0.1179 0.0
H491 H 0.30335 0.30571 0.13222 0.0
H492 H 0.34883 0.18014 0.11708 0.0
H493 H 0.33511 0.22575 0.11312 0.0
C494 C 0.37418 0.28363 0.61762 0.0
C495 C 0.38039 0.31045 0.62053 0.0
C496 C 0.34764 0.27559 0.61541 0.0
C497 C 0.27911 0.29908 0.6262 0.0
H498 H 0.25762 0.24092 0.59368 0.0
C499 C 0.16854 0.26862 0.61829 0.0
C500 C 0.16371 0.24131 0.61985 0.0
C501 C 0.19457 0.27812 0.61601 0.0
C502 C 0.2633 0.25718 0.60288 0.0
H503 H 0.3637 0.34996 0.62218 0.0
H504 H 0.31814 0.33618 0.61784 0.0
H505 H 0.30403 0.25462 0.59434 0.0
H506 H 0.18233 0.2026 0.6193 0.0
H507 H 0.22711 0.21901 0.61531 0.0
H508 H 0.23848 0.3015 0.63487 0.0
C509 C 0.33338 0.32112 0.61792 0.0
C510 C 0.28998 0.26496 0.60332 0.0
C511 C 0.35966 0.32906 0.62029 0.0
C512 C 0.18528 0.22379 0.61827 0.0
C513 C 0.21106 0.2332 0.61581 0.0
C514 C 0.25246 0.29137 0.6257 0.0
C515 C 0.32682 0.29423 0.61592 0.0
C516 C 0.29832 0.28595 0.61507 0.0
C517 C 0.21621 0.26048 0.61499 0.0
C518 C 0.2442 0.27016 0.61418 0.0
H519 H 0.38966 0.26881 0.61779 0.0
H520 H 0.34341 0.25468 0.61397 0.0
H521 H 0.28472 0.31499 0.63574 0.0
H522 H 0.1524 0.28262 0.61949 0.0
H523 H 0.1978 0.29928 0.61525 0.0
C524 C 0.28053 0.37469 0.41219 0.0
C525 C 0.30765 0.38083 0.41128 0.0
C526 C 0.27216 0.34821 0.41393 0.0
C527 C 0.29702 0.27966 0.4052 0.0
H528 H 0.23426 0.25848 0.43307 0.0
C529 C 0.26531 0.16924 0.41143 0.0
C530 C 0.23832 0.16435 0.408 0.0
C531 C 0.2745 0.1953 0.41405 0.0
C532 C 0.25181 0.26407 0.42516 0.0
H533 H 0.34718 0.36415 0.41275 0.0
H534 H 0.33277 0.31867 0.41631 0.0
H535 H 0.2481 0.3048 0.43338 0.0
H536 H 0.19974 0.18301 0.40545 0.0
H537 H 0.21562 0.22783 0.41 0.0
H538 H 0.30063 0.23902 0.39686 0.0
C539 C 0.31782 0.33391 0.415 0.0
C540 C 0.25969 0.29071 0.42528 0.0
C541 C 0.3261 0.36014 0.4131 0.0
C542 C 0.22071 0.18596 0.40795 0.0
C543 C 0.22979 0.21178 0.41073 0.0
C544 C 0.28921 0.25306 0.40515 0.0
C545 C 0.29076 0.32739 0.41494 0.0
C546 C 0.28235 0.29894 0.41521 0.0
C547 C 0.25683 0.21693 0.41355 0.0
C548 C 0.26637 0.2449 0.41498 0.0
H549 H 0.26583 0.39016 0.41075 0.0
H550 H 0.25113 0.34401 0.41376 0.0
H551 H 0.31429 0.28519 0.39695 0.0
H552 H 0.27938 0.15308 0.41155 0.0
H553 H 0.29546 0.19854 0.41636 0.0
C554 C 0.36157 0.21259 0.90844 0.0
C555 C 0.38224 0.23129 0.90898 0.0
C556 C 0.3352 0.22026 0.9107 0.0
C557 C 0.29136 0.275 0.92691 0.0
H558 H 0.24047 0.24056 0.89366 0.0
C559 C 0.18684 0.31674 0.91282 0.0
C560 C 0.16535 0.29932 0.91025 0.0
C561 C 0.21257 0.30722 0.9152 0.0
C562 C 0.25427 0.25007 0.9033 0.0
H563 H 0.39124 0.27282 0.91298 0.0
H564 H 0.34484 0.28647 0.91669 0.0
H565 H 0.2868 0.22745 0.89257 0.0
H566 H 0.15408 0.25804 0.90881 0.0
H567 H 0.19942 0.24117 0.91293 0.0
H568 H 0.25876 0.29803 0.93732 0.0
C569 C 0.34921 0.26569 0.91467 0.0
C570 C 0.28097 0.24259 0.90266 0.0
C571 C 0.37583 0.25792 0.91252 0.0
C572 C 0.17017 0.27195 0.91081 0.0
C573 C 0.19616 0.26235 0.91301 0.0
C574 C 0.26464 0.28254 0.92751 0.0
C575 C 0.3285 0.24697 0.91344 0.0
C576 C 0.29996 0.255 0.9144 0.0
C577 C 0.21774 0.27993 0.91496 0.0
C578 C 0.24575 0.27031 0.9156 0.0
H579 H 0.3657 0.19181 0.90604 0.0
H580 H 0.32001 0.20514 0.91018 0.0
H581 H 0.30525 0.28474 0.93637 0.0
H582 H 0.18387 0.33797 0.91257 0.0
H583 H 0.22857 0.3214 0.91645 0.0
C584 C 0.72647 0.86226 0.91199 0.0
C585 C 0.74431 0.8837 0.9116 0.0
C586 C 0.73543 0.83633 0.91432 0.0
C587 C 0.79402 0.79479 0.90623 0.0
H588 H 0.75434 0.74262 0.93509 0.0
C589 C 0.83064 0.68749 0.91145 0.0
C590 C 0.81199 0.6669 0.90991 0.0
C591 C 0.82263 0.71367 0.91404 0.0
C592 C 0.76551 0.75685 0.92681 0.0
H593 H 0.78566 0.89457 0.91392 0.0
H594 H 0.80153 0.84894 0.91794 0.0
H595 H 0.74089 0.78905 0.93589 0.0
H596 H 0.77014 0.65768 0.91061 0.0
H597 H 0.75587 0.7038 0.91481 0.0
H598 H 0.81825 0.76272 0.89674 0.0
C599 C 0.78048 0.85238 0.91634 0.0
C600 C 0.75787 0.78353 0.92733 0.0
C601 C 0.77142 0.87855 0.91419 0.0
C602 C 0.78498 0.67307 0.91181 0.0
C603 C 0.77687 0.69953 0.91423 0.0
C604 C 0.80159 0.76815 0.90565 0.0
C605 C 0.76257 0.83091 0.91621 0.0
C606 C 0.77193 0.80285 0.91694 0.0
C607 C 0.79563 0.72026 0.91495 0.0
C608 C 0.78743 0.74873 0.91588 0.0
H609 H 0.70541 0.86543 0.91015 0.0
H610 H 0.72107 0.82041 0.91391 0.0
H611 H 0.80501 0.80896 0.89776 0.0
H612 H 0.85166 0.68343 0.91037 0.0
H613 H 0.83773 0.72882 0.9151 0.0
C614 C 0.68313 0.72306 0.41068 0.0
C615 C 0.66156 0.74071 0.41026 0.0
C616 C 0.70902 0.73223 0.41308 0.0
C617 C 0.75026 0.79115 0.40528 0.0
H618 H 0.80257 0.75188 0.43425 0.0
C619 C 0.85746 0.8286 0.41103 0.0
C620 C 0.8782 0.81012 0.40964 0.0
C621 C 0.83127 0.8204 0.41343 0.0
C622 C 0.78831 0.76294 0.42593 0.0
H623 H 0.65039 0.78193 0.41264 0.0
H624 H 0.69595 0.79815 0.41681 0.0
H625 H 0.7562 0.73803 0.43483 0.0
H626 H 0.88765 0.76837 0.41037 0.0
H627 H 0.84154 0.75378 0.41423 0.0
H628 H 0.78225 0.81566 0.39597 0.0
C629 C 0.69264 0.7771 0.41515 0.0
C630 C 0.76165 0.75506 0.42632 0.0
C631 C 0.66653 0.76783 0.41291 0.0
C632 C 0.87215 0.78309 0.41146 0.0
C633 C 0.84569 0.77479 0.41369 0.0
C634 C 0.77688 0.79895 0.40482 0.0
C635 C 0.71426 0.75938 0.41504 0.0
C636 C 0.74228 0.76897 0.4159 0.0
C637 C 0.82481 0.79337 0.41429 0.0
C638 C 0.79636 0.78494 0.41509 0.0
H639 H 0.6801 0.702 0.40878 0.0
H640 H 0.72505 0.71801 0.4127 0.0
H641 H 0.73607 0.80203 0.39678 0.0
H642 H 0.86141 0.84963 0.41 0.0
H643 H 0.81599 0.83537 0.4144 0.0
C644 C 0.82126 0.86119 0.61971 0.0
C645 C 0.80365 0.88274 0.62083 0.0
C646 C 0.81196 0.83539 0.61727 0.0
C647 C 0.75343 0.79401 0.62618 0.0
H648 H 0.7914 0.74236 0.59565 0.0
C649 C 0.71591 0.68692 0.62005 0.0
C650 C 0.73451 0.6662 0.62075 0.0
C651 C 0.72397 0.71316 0.61785 0.0
C652 C 0.78072 0.75643 0.6044 0.0
H653 H 0.76231 0.89396 0.61966 0.0
H654 H 0.74585 0.84853 0.61543 0.0
H655 H 0.80511 0.78873 0.59517 0.0
H656 H 0.77628 0.65691 0.619 0.0
H657 H 0.7906 0.70311 0.61545 0.0
H658 H 0.72943 0.76181 0.63579 0.0
C659 C 0.76699 0.85179 0.61656 0.0
C660 C 0.78851 0.78309 0.60407 0.0
C661 C 0.77638 0.87784 0.61884 0.0
C662 C 0.76146 0.67238 0.61847 0.0
C663 C 0.76962 0.69889 0.61641 0.0
C664 C 0.74572 0.76739 0.62657 0.0
C665 C 0.7847 0.8302 0.61596 0.0
C666 C 0.77508 0.80222 0.61505 0.0
C667 C 0.75095 0.71969 0.61646 0.0
C668 C 0.75928 0.74815 0.61575 0.0
H669 H 0.84242 0.86417 0.62108 0.0
H670 H 0.82619 0.81936 0.6171 0.0
H671 H 0.74294 0.80802 0.63511 0.0
H672 H 0.69492 0.6829 0.62146 0.0
H673 H 0.70891 0.7284 0.6174 0.0
C674 C 0.88119 0.77301 0.11751 0.0
C675 C 0.88619 0.74567 0.11817 0.0
C676 C 0.85513 0.78242 0.11535 0.0
C677 C 0.78664 0.76178 0.10124 0.0
H678 H 0.7646 0.81689 0.13621 0.0
C679 C 0.6755 0.78608 0.11682 0.0
C680 C 0.66908 0.81267 0.12046 0.0
C681 C 0.70212 0.7784 0.11446 0.0
C682 C 0.77039 0.80175 0.12611 0.0
H683 H 0.86794 0.70688 0.11602 0.0
H684 H 0.82309 0.72314 0.11221 0.0
H685 H 0.81097 0.80397 0.13489 0.0
H686 H 0.68552 0.8522 0.12333 0.0
H687 H 0.73118 0.83904 0.11881 0.0
H688 H 0.74595 0.7594 0.09259 0.0
C689 C 0.83901 0.73742 0.11335 0.0
C690 C 0.79711 0.79438 0.12534 0.0
C691 C 0.86482 0.72809 0.1157 0.0
C692 C 0.68969 0.83144 0.12087 0.0
C693 C 0.71604 0.82386 0.11839 0.0
C694 C 0.75989 0.76922 0.10196 0.0
C695 C 0.83365 0.76468 0.11353 0.0
C696 C 0.80559 0.77414 0.11302 0.0
C697 C 0.72279 0.79718 0.11558 0.0
C698 C 0.75134 0.78923 0.11448 0.0
H699 H 0.89719 0.78704 0.11943 0.0
H700 H 0.85173 0.80358 0.11537 0.0
H701 H 0.79249 0.74627 0.09144 0.0
H702 H 0.66013 0.77114 0.11646 0.0
H703 H 0.70652 0.75763 0.11239 0.0
C704 C 0.2016 0.11407 0.31779 0.0
C705 C 0.21623 0.11066 0.33466 0.0
C706 C 0.21457 0.11565 0.30008 0.0
C707 C 0.27986 0.12987 0.27796 0.0
H708 H 0.25447 0.08611 0.23643 0.0
C709 C 0.34145 0.11233 0.20872 0.0
C710 C 0.32736 0.1096 0.19155 0.0
C711 C 0.32787 0.11388 0.22621 0.0
C712 C 0.26168 0.09882 0.24773 0.0
H713 H 0.25604 0.10703 0.34612 0.0
H714 H 0.27834 0.10997 0.31553 0.0
H715 H 0.2299 0.08749 0.26629 0.0
H716 H 0.28792 0.10759 0.17929 0.0
H717 H 0.26459 0.11106 0.20931 0.0
H718 H 0.31155 0.14139 0.25939 0.0
C719 C 0.25694 0.1114 0.31588 0.0
C720 C 0.24752 0.09957 0.26488 0.0
C721 C 0.24405 0.10949 0.33344 0.0
C722 C 0.29951 0.10922 0.19223 0.0
C723 C 0.28603 0.11105 0.20956 0.0
C724 C 0.29392 0.12933 0.26072 0.0
C725 C 0.24242 0.11429 0.29895 0.0
C726 C 0.25651 0.11496 0.28026 0.0
C727 C 0.29993 0.11299 0.22686 0.0
C728 C 0.2851 0.11371 0.24535 0.0
H729 H 0.18018 0.11508 0.31824 0.0
H730 H 0.20283 0.11802 0.28727 0.0
H731 H 0.2872 0.14211 0.28949 0.0
H732 H 0.3629 0.11267 0.20868 0.0
H733 H 0.33932 0.11517 0.23923 0.0
C734 C 0.43812 0.2985 0.69441 0.0
C735 C 0.43692 0.32632 0.69403 0.0
C736 C 0.43676 0.28465 0.71158 0.0
C737 C 0.41813 0.29102 0.76277 0.0
H738 H 0.46182 0.22827 0.76786 0.0
C739 C 0.43893 0.24088 0.83512 0.0
C740 C 0.43863 0.21305 0.83616 0.0
C741 C 0.43681 0.25388 0.81764 0.0
C742 C 0.44922 0.24552 0.76658 0.0
H743 H 0.43294 0.36137 0.71159 0.0
H744 H 0.43122 0.33714 0.74186 0.0
H745 H 0.46257 0.25332 0.73821 0.0
H746 H 0.43559 0.17709 0.81946 0.0
H747 H 0.43224 0.19998 0.78862 0.0
H748 H 0.40541 0.28346 0.79144 0.0
C749 C 0.4328 0.32601 0.72871 0.0
C750 C 0.44961 0.25996 0.74955 0.0
C751 C 0.43391 0.33996 0.71137 0.0
C752 C 0.43591 0.19852 0.81916 0.0
C753 C 0.43411 0.21162 0.80152 0.0
C754 C 0.41792 0.27668 0.77987 0.0
C755 C 0.43444 0.29812 0.72904 0.0
C756 C 0.43408 0.28294 0.74737 0.0
C757 C 0.43455 0.2395 0.80059 0.0
C758 C 0.43353 0.25379 0.78201 0.0
H759 H 0.44003 0.28723 0.68133 0.0
H760 H 0.43737 0.26324 0.7111 0.0
H761 H 0.40555 0.30828 0.76158 0.0
H762 H 0.44086 0.2528 0.84789 0.0
H763 H 0.43756 0.27531 0.81746 0.0
C764 C 0.20637 0.42924 0.21155 0.0
C765 C 0.22082 0.43409 0.19478 0.0
C766 C 0.21938 0.42758 0.22923 0.0
C767 C 0.28529 0.41587 0.25113 0.0
H768 H 0.25701 0.4556 0.29377 0.0
C769 C 0.34461 0.43295 0.32155 0.0
C770 C 0.32999 0.43398 0.33859 0.0
C771 C 0.33154 0.43143 0.30386 0.0
C772 C 0.26506 0.444 0.28215 0.0
H773 H 0.26041 0.44034 0.18345 0.0
H774 H 0.28278 0.43732 0.214 0.0
H775 H 0.23293 0.45465 0.26373 0.0
H776 H 0.29027 0.4327 0.35042 0.0
H777 H 0.26785 0.42923 0.32005 0.0
H778 H 0.31735 0.40505 0.26957 0.0
C779 C 0.26148 0.43477 0.21359 0.0
C780 C 0.25117 0.4435 0.26488 0.0
C781 C 0.24854 0.43672 0.19606 0.0
C782 C 0.3022 0.43247 0.33758 0.0
C783 C 0.28926 0.43064 0.32007 0.0
C784 C 0.29909 0.41617 0.26848 0.0
C785 C 0.24712 0.43036 0.23043 0.0
C786 C 0.26116 0.42955 0.24913 0.0
C787 C 0.30361 0.43062 0.3029 0.0
C788 C 0.28919 0.43028 0.28425 0.0
H789 H 0.18504 0.42708 0.21107 0.0
H790 H 0.20775 0.42401 0.24196 0.0
H791 H 0.29342 0.40474 0.23929 0.0
H792 H 0.36603 0.43408 0.32186 0.0
H793 H 0.34331 0.4316 0.29095 0.0
C794 C 0.12668 0.20458 0.70797 0.0
C795 C 0.11091 0.21561 0.6935 0.0
C796 C 0.1298 0.21776 0.72551 0.0
C797 C 0.12169 0.28458 0.74775 0.0
H798 H 0.12017 0.24569 0.7953 0.0
C799 C 0.12946 0.3364 0.82207 0.0
C800 C 0.11286 0.32618 0.8364 0.0
C801 C 0.13206 0.32313 0.80452 0.0
C802 C 0.12053 0.25691 0.78215 0.0
H803 H 0.08537 0.24877 0.68647 0.0
H804 H 0.09033 0.27113 0.71678 0.0
H805 H 0.11913 0.22167 0.76516 0.0
H806 H 0.08528 0.29452 0.84317 0.0
H807 H 0.08939 0.27209 0.81282 0.0
H808 H 0.12197 0.31985 0.76474 0.0
C809 C 0.10096 0.25277 0.71455 0.0
C810 C 0.12028 0.24306 0.76483 0.0
C811 C 0.09791 0.23973 0.69715 0.0
C812 C 0.09852 0.30289 0.83258 0.0
C813 C 0.10104 0.28979 0.81517 0.0
C814 C 0.12188 0.29843 0.76507 0.0
C815 C 0.11718 0.24222 0.72892 0.0
C816 C 0.12025 0.25672 0.74739 0.0
C817 C 0.11811 0.29944 0.80096 0.0
C818 C 0.1207 0.2848 0.78251 0.0
H819 H 0.13706 0.18609 0.70561 0.0
H820 H 0.1425 0.20906 0.73624 0.0
H821 H 0.12224 0.29579 0.7346 0.0
H822 H 0.14085 0.35421 0.82457 0.0
H823 H 0.14544 0.33114 0.79391 0.0
C824 C 0.70768 0.93368 0.82172 0.0
C825 C 0.72221 0.93688 0.83865 0.0
C826 C 0.72078 0.9319 0.80405 0.0
C827 C 0.78624 0.94712 0.78143 0.0
H828 H 0.75999 0.90278 0.74048 0.0
C829 C 0.84436 0.9316 0.71053 0.0
C830 C 0.82912 0.9347 0.69391 0.0
C831 C 0.83198 0.92998 0.72847 0.0
C832 C 0.76754 0.9153 0.75179 0.0
H833 H 0.76198 0.9395 0.85031 0.0
H834 H 0.78449 0.93565 0.82 0.0
H835 H 0.73647 0.90386 0.77092 0.0
H836 H 0.7889 0.93759 0.68311 0.0
H837 H 0.76765 0.93455 0.71406 0.0
H838 H 0.81738 0.9584 0.76229 0.0
C839 C 0.76305 0.93545 0.82006 0.0
C840 C 0.75395 0.91606 0.76922 0.0
C841 C 0.75004 0.93751 0.83755 0.0
C842 C 0.80134 0.9354 0.6956 0.0
C843 C 0.78905 0.93343 0.71337 0.0
C844 C 0.79993 0.94616 0.76408 0.0
C845 C 0.7487 0.93303 0.80298 0.0
C846 C 0.76303 0.93207 0.78429 0.0
C847 C 0.80415 0.93095 0.73006 0.0
C848 C 0.79067 0.9304 0.74899 0.0
H849 H 0.68624 0.93312 0.82207 0.0
H850 H 0.709 0.93024 0.79121 0.0
H851 H 0.79364 0.96013 0.79249 0.0
H852 H 0.86577 0.93097 0.70972 0.0
H853 H 0.84416 0.92792 0.74109 0.0
C854 C 0.60763 0.74559 0.33564 0.0
C855 C 0.60883 0.71781 0.337 0.0
C856 C 0.61001 0.75829 0.31806 0.0
C857 C 0.59983 0.74851 0.26691 0.0
H858 H 0.6418 0.81249 0.26202 0.0
C859 C 0.61146 0.80065 0.19443 0.0
C860 C 0.6119 0.82848 0.19385 0.0
C861 C 0.61279 0.7871 0.21174 0.0
C862 C 0.6297 0.79487 0.26316 0.0
H863 H 0.61374 0.68163 0.32079 0.0
H864 H 0.61752 0.70398 0.28977 0.0
H865 H 0.64162 0.78827 0.29212 0.0
H866 H 0.61448 0.86389 0.21117 0.0
H867 H 0.61608 0.84019 0.24165 0.0
H868 H 0.58723 0.75536 0.23825 0.0
C869 C 0.61476 0.71582 0.30249 0.0
C870 C 0.62973 0.78088 0.28041 0.0
C871 C 0.61271 0.70303 0.32024 0.0
C872 C 0.61412 0.84246 0.21112 0.0
C873 C 0.61517 0.82881 0.22857 0.0
C874 C 0.5996 0.76261 0.24973 0.0
C875 C 0.61343 0.74363 0.30124 0.0
C876 C 0.61472 0.75757 0.28252 0.0
C877 C 0.61427 0.80089 0.22911 0.0
C878 C 0.61452 0.78602 0.24758 0.0
H879 H 0.60481 0.7577 0.34823 0.0
H880 H 0.60857 0.77967 0.31761 0.0
H881 H 0.58771 0.7309 0.26816 0.0
H882 H 0.61017 0.78915 0.18142 0.0
H883 H 0.61278 0.76567 0.21142 0.0
C884 C 0.80099 0.61104 0.83535 0.0
C885 C 0.82883 0.61238 0.83571 0.0
C886 C 0.78708 0.61255 0.8182 0.0
C887 C 0.79329 0.63164 0.7671 0.0
H888 H 0.73056 0.5878 0.76188 0.0
C889 C 0.74291 0.61081 0.69475 0.0
C890 C 0.71505 0.61114 0.69376 0.0
C891 C 0.75599 0.61297 0.71221 0.0
C892 C 0.7478 0.60044 0.7632 0.0
H893 H 0.86385 0.61678 0.81816 0.0
H894 H 0.83954 0.61871 0.78792 0.0
H895 H 0.75573 0.58692 0.79149 0.0
H896 H 0.67913 0.61428 0.71051 0.0
H897 H 0.70215 0.61766 0.74131 0.0
H898 H 0.78563 0.64449 0.73849 0.0
C899 C 0.82843 0.61693 0.80107 0.0
C900 C 0.76231 0.59998 0.78021 0.0
C901 C 0.84243 0.61569 0.81838 0.0
C902 C 0.70057 0.61394 0.71077 0.0
C903 C 0.71376 0.61576 0.72839 0.0
C904 C 0.7789 0.6319 0.75001 0.0
C905 C 0.80052 0.61513 0.80075 0.0
C906 C 0.78528 0.61558 0.78243 0.0
C907 C 0.74166 0.61527 0.72927 0.0
C908 C 0.75602 0.61625 0.74784 0.0
H909 H 0.78976 0.60891 0.84843 0.0
H910 H 0.76566 0.61182 0.8187 0.0
H911 H 0.81055 0.64426 0.76832 0.0
H912 H 0.75478 0.60884 0.68195 0.0
H913 H 0.77744 0.61221 0.71237 0.0
C914 C 0.92961 0.84317 0.31868 0.0
C915 C 0.9322 0.82905 0.33584 0.0
C916 C 0.92823 0.82967 0.30116 0.0
C917 C 0.94366 0.76368 0.27955 0.0
H918 H 0.90125 0.78955 0.23749 0.0
C919 C 0.93091 0.70492 0.20859 0.0
C920 C 0.93494 0.71999 0.192 0.0
C921 C 0.92854 0.71743 0.22644 0.0
C922 C 0.91323 0.7821 0.24911 0.0
H923 H 0.93409 0.78962 0.34803 0.0
H924 H 0.93089 0.76639 0.31793 0.0
H925 H 0.90121 0.81349 0.26776 0.0
H926 H 0.93873 0.76007 0.18114 0.0
H927 H 0.9344 0.78156 0.21193 0.0
H928 H 0.95553 0.73222 0.26088 0.0
C929 C 0.93089 0.78781 0.31774 0.0
C930 C 0.91335 0.79593 0.26645 0.0
C931 C 0.93256 0.80123 0.3351 0.0
C932 C 0.93583 0.74775 0.19361 0.0
C933 C 0.93312 0.76018 0.21128 0.0
C934 C 0.94334 0.74974 0.26229 0.0
C935 C 0.92913 0.80175 0.30045 0.0
C936 C 0.92869 0.78702 0.28191 0.0
C937 C 0.92968 0.74524 0.22795 0.0
C938 C 0.92832 0.75889 0.2468 0.0
H939 H 0.92928 0.8646 0.31876 0.0
H940 H 0.92709 0.84115 0.28816 0.0
H941 H 0.95617 0.75639 0.29093 0.0
H942 H 0.93011 0.68353 0.20783 0.0
H943 H 0.92577 0.70538 0.23905 0.0
C944 C 0.37331 1.01067 0.15386 0.0
C945 C 0.35947 1.0178 0.13728 0.0
C946 C 0.38903 0.98795 0.15428 0.0
C947 C 0.40861 0.92609 0.12873 0.0
H948 H 0.47607 0.94134 0.15274 0.0
C949 C 0.50458 0.86014 0.1225 0.0
C950 C 0.52139 0.85991 0.13849 0.0
C951 C 0.48143 0.87571 0.12252 0.0
C952 C 0.45724 0.93644 0.14623 0.0
H953 H 0.35015 1.00592 0.10839 0.0
H954 H 0.37807 0.96607 0.10898 0.0
H955 H 0.4418 0.97474 0.1525 0.0
H956 H 0.5261 0.8739 0.16747 0.0
H957 H 0.48559 0.8999 0.16783 0.0
H958 H 0.42471 0.88766 0.12222 0.0
C959 C 0.37642 0.97793 0.12179 0.0
C960 C 0.43746 0.95571 0.1461 0.0
C961 C 0.36029 1.00068 0.12146 0.0
C962 C 0.51358 0.87376 0.15492 0.0
C963 C 0.49048 0.88894 0.15502 0.0
C964 C 0.42859 0.90662 0.12886 0.0
C965 C 0.39186 0.97192 0.13798 0.0
C966 C 0.4127 0.95081 0.13759 0.0
C967 C 0.4747 0.89118 0.13856 0.0
C968 C 0.45308 0.91147 0.13787 0.0
H969 H 0.37302 0.02345 0.16628 0.0
H970 H 0.39996 0.9836 0.16719 0.0
H971 H 0.38984 0.92163 0.12199 0.0
H972 H 0.51032 0.84996 0.10954 0.0
H973 H 0.46978 0.87693 0.10958 0.0
C974 C 0.68841 0.501 0.62364 0.0
C975 C 0.68443 0.51935 0.63846 0.0
C976 C 0.67443 0.47687 0.62343 0.0
C977 C 0.63371 0.43188 0.65402 0.0
H978 H 0.59564 0.41571 0.60743 0.0
C979 C 0.5344 0.37679 0.65393 0.0
C980 C 0.52742 0.35999 0.63875 0.0
C981 C 0.55832 0.3907 0.65379 0.0
C982 C 0.6065 0.41952 0.62047 0.0
H983 H 0.6638 0.52618 0.66511 0.0
H984 H 0.64009 0.48434 0.66498 0.0
H985 H 0.62962 0.45021 0.60738 0.0
H986 H 0.54062 0.34399 0.61171 0.0
H987 H 0.58275 0.3685 0.6114 0.0
H988 H 0.61006 0.4019 0.66729 0.0
C989 C 0.65383 0.48833 0.65347 0.0
C990 C 0.62602 0.43936 0.62043 0.0
C991 C 0.6674 0.51243 0.65352 0.0
C992 C 0.54558 0.35653 0.62373 0.0
C993 C 0.56954 0.37082 0.62346 0.0
C994 C 0.61428 0.41209 0.65405 0.0
C995 C 0.65658 0.47045 0.63821 0.0
C996 C 0.63929 0.44638 0.63737 0.0
C997 C 0.57598 0.3885 0.63835 0.0
C998 C 0.59977 0.4062 0.63743 0.0
H999 H 0.70114 0.50591 0.61172 0.0
H1000 H 0.67714 0.46349 0.61151 0.0
H1001 H 0.64387 0.43636 0.66723 0.0
H1002 H 0.52081 0.37999 0.66567 0.0
H1003 H 0.56229 0.40429 0.6654 0.0
C1004 C 0.17044 0.5312 0.15614 0.0
C1005 C 0.18681 0.52527 0.14051 0.0
C1006 C 0.15489 0.55403 0.15631 0.0
C1007 C 0.14066 0.61868 0.13301 0.0
H1008 H 0.06954 0.60284 0.15046 0.0
C1009 C 0.04793 0.68895 0.12482 0.0
C1010 C 0.02914 0.68782 0.13962 0.0
C1011 C 0.07041 0.67242 0.12516 0.0
C1012 C 0.08937 0.60786 0.1458 0.0
H1013 H 0.20082 0.53951 0.1132 0.0
H1014 H 0.17323 0.57965 0.11337 0.0
H1015 H 0.10283 0.56843 0.1506 0.0
H1016 H 1.02026 0.67025 0.16703 0.0
H1017 H 0.05951 0.64247 0.16801 0.0
H1018 H 0.12664 0.65834 0.12803 0.0
C1019 C 0.17269 0.56662 0.12561 0.0
C1020 C 0.10857 0.58801 0.14587 0.0
C1021 C 0.18859 0.54369 0.12553 0.0
C1022 C 0.0343 0.67147 0.15537 0.0
C1023 C 0.0567 0.6553 0.15581 0.0
C1024 C 0.12127 0.63874 0.13293 0.0
C1025 C 0.15487 0.57151 0.14071 0.0
C1026 C 0.13462 0.59313 0.13979 0.0
C1027 C 0.07447 0.6546 0.14036 0.0
C1028 C 0.09544 0.63365 0.13964 0.0
H1029 H 0.16877 0.5175 0.16797 0.0
H1030 H 0.14205 0.55746 0.16844 0.0
H1031 H 0.16049 0.62333 0.12816 0.0
H1032 H 0.0443 0.70112 0.11239 0.0
H1033 H 0.08367 0.67245 0.11302 0.0
C1034 C 0.85517 0.04664 0.6259 0.0
C1035 C 0.85996 0.02715 0.63978 0.0
C1036 C 0.8697 0.07046 0.62599 0.0
C1037 C 0.91419 0.11207 0.65646 0.0
H1038 H 0.94783 0.13185 0.60885 0.0
C1039 C 1.01429 0.16562 0.65369 0.0
C1040 C 1.01965 0.18429 0.63934 0.0
C1041 C 0.99035 0.15175 0.65403 0.0
C1042 C 0.93823 0.127 0.62222 0.0
H1043 H 0.88268 1.01797 0.66514 0.0
H1044 H 0.90741 0.05915 0.66549 0.0
H1045 H 0.91323 0.09794 0.60895 0.0
H1046 H 1.00361 0.20351 0.6143 0.0
H1047 H 0.96149 0.17897 0.61477 0.0
H1048 H 0.93981 0.14033 0.66984 0.0
C1049 C 0.8926 0.05634 0.6545 0.0
C1050 C 0.91835 0.10752 0.62228 0.0
C1051 C 0.87844 0.03258 0.65426 0.0
C1052 C 0.99996 0.18946 0.62566 0.0
C1053 C 0.97598 0.1752 0.62582 0.0
C1054 C 0.93402 0.13145 0.65641 0.0
C1055 C 0.88894 0.0754 0.64014 0.0
C1056 C 0.90665 0.09919 0.6395 0.0
C1057 C 0.97105 0.15586 0.63988 0.0
C1058 C 0.94693 0.1386 0.63938 0.0
H1059 H 0.84128 0.04292 0.61444 0.0
H1060 H 0.86625 0.08477 0.61478 0.0
H1061 H 0.90527 0.1066 0.66995 0.0
H1062 H 0.02904 0.16109 0.66442 0.0
H1063 H 0.98751 0.13685 0.66493 0.0
C1064 C 0.51018 0.66854 0.37683 0.0
C1065 C 0.51625 0.68652 0.3915 0.0
C1066 C 0.48631 0.65453 0.37684 0.0
C1067 C 0.43643 0.62787 0.40972 0.0
H1068 H 0.40124 0.60836 0.36261 0.0
C1069 C 0.35473 0.5461 0.40699 0.0
C1070 C 0.35927 0.52704 0.39272 0.0
C1071 C 0.36872 0.57023 0.40687 0.0
C1072 C 0.41078 0.61359 0.37593 0.0
H1073 H 0.50154 0.70445 0.41747 0.0
H1074 H 0.45953 0.67971 0.41759 0.0
H1075 H 0.43514 0.64273 0.36234 0.0
H1076 H 0.38091 0.51896 0.36667 0.0
H1077 H 0.40466 0.56073 0.36624 0.0
H1078 H 0.41267 0.59796 0.42315 0.0
C1079 C 0.47339 0.67657 0.40602 0.0
C1080 C 0.43026 0.63333 0.37577 0.0
C1081 C 0.4973 0.69097 0.40585 0.0
C1082 C 0.37688 0.53323 0.37784 0.0
C1083 C 0.39047 0.55732 0.37757 0.0
C1084 C 0.41689 0.60805 0.40987 0.0
C1085 C 0.46781 0.65781 0.39165 0.0
C1086 C 0.44398 0.64018 0.39253 0.0
C1087 C 0.38714 0.57594 0.39229 0.0
C1088 C 0.40441 0.60005 0.39285 0.0
H1089 H 0.52439 0.66455 0.3656 0.0
H1090 H 0.48298 0.64009 0.36566 0.0
H1091 H 0.44667 0.63246 0.42288 0.0
H1092 H 0.34153 0.54177 0.41876 0.0
H1093 H 0.36555 0.58418 0.41837 0.0
C1094 C 1.0042 0.35837 0.90525 0.0
C1095 C 1.02294 0.35963 0.89042 0.0
C1096 C 0.98176 0.37495 0.90505 0.0
C1097 C 0.96242 0.43959 0.88454 0.0
H1098 H 0.89155 0.42374 0.90254 0.0
C1099 C 0.88063 0.51541 0.87412 0.0
C1100 C 0.86469 0.52166 0.88992 0.0
C1101 C 0.89624 0.49262 0.87399 0.0
C1102 C 0.9113 0.42848 0.89759 0.0
H1103 H 0.03175 0.37751 0.86309 0.0
H1104 H 0.99256 0.40535 0.86235 0.0
H1105 H 0.92562 0.38894 0.90256 0.0
H1106 H 0.85145 0.50798 0.91757 0.0
H1107 H 0.87909 0.46786 0.91745 0.0
H1108 H 0.9486 0.4789 0.87967 0.0
C1109 C 0.9954 0.39242 0.87448 0.0
C1110 C 0.93083 0.40855 0.8976 0.0
C1111 C 1.01778 0.37622 0.8748 0.0
C1112 C 0.86333 0.50354 0.90511 0.0
C1113 C 0.87926 0.48063 0.90506 0.0
C1114 C 0.94307 0.45931 0.88449 0.0
C1115 C 0.97766 0.39294 0.88996 0.0
C1116 C 0.95657 0.41378 0.89076 0.0
C1117 C 0.89671 0.47549 0.88979 0.0
C1118 C 0.91711 0.45402 0.89071 0.0
H1119 H 1.00781 0.34599 0.91758 0.0
H1120 H 0.96852 0.37477 0.9172 0.0
H1121 H 0.98217 0.44474 0.87978 0.0
H1122 H 0.88199 0.52886 0.86213 0.0
H1123 H 0.90882 0.48897 0.86175 0.0
C1124 C 0.04311 0.85755 0.40457 0.0
C1125 C 0.02423 0.86179 0.39015 0.0
C1126 C 0.06716 0.87172 0.40457 0.0
C1127 C 0.11071 0.9138 0.37377 0.0
H1128 H 0.12895 0.94987 0.42079 0.0
C1129 C 0.16569 1.01313 0.37484 0.0
C1130 C 0.18356 1.01923 0.38958 0.0
C1131 C 0.15161 0.98932 0.37483 0.0
C1132 C 0.12454 0.93958 0.40761 0.0
H1133 H 1.01637 0.88313 0.36397 0.0
H1134 H 0.05798 0.90722 0.36377 0.0
H1135 H 0.0945 0.91582 0.42092 0.0
H1136 H 0.20121 1.00461 0.41565 0.0
H1137 H 0.17634 0.9627 0.41573 0.0
H1138 H 0.13998 0.93814 0.36032 0.0
C1139 C 0.0545 0.89311 0.37512 0.0
C1140 C 0.10474 0.92001 0.40768 0.0
C1141 C 0.03051 0.87932 0.37526 0.0
C1142 C 0.18781 1.00035 0.40398 0.0
C1143 C 0.17334 0.9765 0.40413 0.0
C1144 C 0.13042 0.9333 0.3737 0.0
C1145 C 0.07294 0.89005 0.38998 0.0
C1146 C 0.09697 0.90745 0.39064 0.0
C1147 C 0.15471 0.97089 0.38968 0.0
C1148 C 0.13705 0.94708 0.39049 0.0
H1149 H 0.03872 0.84442 0.41636 0.0
H1150 H 0.08097 0.86874 0.41618 0.0
H1151 H 0.10567 0.90418 0.36044 0.0
H1152 H 0.16186 0.02727 0.36357 0.0
H1153 H 0.13727 0.98597 0.3636 0.0
C1154 C 0.69458 0.04786 0.90775 0.0
C1155 C 0.69083 0.02911 0.89316 0.0
C1156 C 0.68016 0.07171 0.90774 0.0
C1157 C 0.63836 0.11517 0.87684 0.0
H1158 H 0.60017 0.1314 0.92337 0.0
C1159 C 0.5377 0.16754 0.87669 0.0
C1160 C 0.53041 0.18453 0.89168 0.0
C1161 C 0.56198 0.1543 0.87689 0.0
C1162 C 0.61105 0.12758 0.91034 0.0
H1163 H 0.67016 1.02128 0.86668 0.0
H1164 H 0.64568 0.06263 0.86644 0.0
H1165 H 0.63491 0.09773 0.92369 0.0
H1166 H 0.54339 0.2016 0.91842 0.0
H1167 H 0.58614 0.17826 0.91886 0.0
H1168 H 0.61395 0.14427 0.86332 0.0
C1169 C 0.65957 0.05918 0.87793 0.0
C1170 C 0.63101 0.10822 0.91053 0.0
C1171 C 0.67359 0.03535 0.87809 0.0
C1172 C 0.54858 0.18888 0.90655 0.0
C1173 C 0.57291 0.17527 0.9069 0.0
C1174 C 0.61848 0.13448 0.87666 0.0
C1175 C 0.6621 0.07744 0.89297 0.0
C1176 C 0.64433 0.10114 0.89363 0.0
C1177 C 0.57969 0.15739 0.89221 0.0
C1178 C 0.60392 0.14036 0.89326 0.0
H1179 H 0.70748 0.04347 0.91967 0.0
H1180 H 0.68269 0.08539 0.9195 0.0
H1181 H 0.64854 0.11063 0.86363 0.0
H1182 H 0.5241 0.16365 0.86506 0.0
H1183 H 0.56622 0.14052 0.86545 0.0
loop_
_geom_bond_atom_site_label_1
_geom_bond_atom_site_label_2
_geom_bond_distance
_geom_bond_site_symmetry_2
_ccdc_geom_bond_type
C0 O2 1.247 . S
C0 O4 1.258 . S
C1 O8 1.247 . S
C1 O9 1.258 . S
O2 C0 1.247 . S
O2 Zn3 2.028 . S
Zn3 O2 2.028 . S
Zn3 O7 2.035 . S
Zn3 O9 2.035 . S
Zn3 O10 2.028 . S
O4 C0 1.258 . S
O4 Zn5 2.035 . S
Zn5 O4 2.035 . S
Zn5 O6 2.028 . S
Zn5 O8 2.028 . S
Zn5 O11 2.035 . S
O6 Zn5 2.028 . S
O6 C12 1.247 . S
O7 Zn3 2.035 . S
O7 C12 1.258 . S
O8 C1 1.247 . S
O8 Zn5 2.028 . S
O9 C1 1.258 . S
O9 Zn3 2.035 . S
O10 Zn3 2.028 . S
O10 C13 1.247 . S
O11 Zn5 2.035 . S
O11 C13 1.258 . S
C12 O6 1.247 . S
C12 O7 1.258 . S
C13 O10 1.247 . S
C13 O11 1.258 . S
C14 O16 1.247 . S
C14 O18 1.258 . S
C15 O22 1.247 . S
C15 O23 1.258 . S
O16 C14 1.247 . S
O16 Zn17 2.028 . S
Zn17 O16 2.028 . S
Zn17 O21 2.035 . S
Zn17 O23 2.035 . S
Zn17 O24 2.028 . S
O18 C14 1.258 . S
O18 Zn19 2.035 . S
Zn19 O18 2.035 . S
Zn19 O20 2.028 . S
Zn19 O22 2.028 . S
Zn19 O25 2.035 . S
O20 Zn19 2.028 . S
O20 C26 1.247 . S
O21 Zn17 2.035 . S
O21 C26 1.258 . S
O22 C15 1.247 . S
O22 Zn19 2.028 . S
O23 C15 1.258 . S
O23 Zn17 2.035 . S
O24 Zn17 2.028 . S
O24 C27 1.247 . S
O25 Zn19 2.035 . S
O25 C27 1.258 . S
C26 O20 1.247 . S
C26 O21 1.258 . S
C27 O24 1.247 . S
C27 O25 1.258 . S
C28 O30 1.247 . S
C28 O32 1.258 . S
C29 O36 1.247 . S
C29 O37 1.258 . S
O30 C28 1.247 . S
O30 Zn31 2.028 . S
Zn31 O30 2.028 . S
Zn31 O35 2.035 . S
Zn31 O37 2.035 . S
Zn31 O38 2.028 . S
O32 C28 1.258 . S
O32 Zn33 2.035 . S
Zn33 O32 2.035 . S
Zn33 O34 2.028 . S
Zn33 O36 2.028 . S
Zn33 O39 2.035 . S
O34 Zn33 2.028 . S
O34 C40 1.247 . S
O35 Zn31 2.035 . S
O35 C40 1.258 . S
O36 C29 1.247 . S
O36 Zn33 2.028 . S
O37 C29 1.258 . S
O37 Zn31 2.035 . S
O38 Zn31 2.028 . S
O38 C41 1.247 . S
O39 Zn33 2.035 . S
O39 C41 1.258 . S
C40 O34 1.247 . S
C40 O35 1.258 . S
C41 O38 1.247 . S
C41 O39 1.258 . S
C42 O44 1.247 . S
C42 O46 1.258 . S
C43 O50 1.247 . S
C43 O51 1.258 . S
O44 C42 1.247 . S
O44 Zn45 2.028 . S
Zn45 O44 2.028 . S
Zn45 O49 2.035 . S
Zn45 O51 2.035 . S
Zn45 O52 2.028 . S
O46 C42 1.258 . S
O46 Zn47 2.035 . S
Zn47 O46 2.035 . S
Zn47 O48 2.028 . S
Zn47 O50 2.028 . S
Zn47 O53 2.035 . S
O48 Zn47 2.028 . S
O48 C54 1.247 . S
O49 Zn45 2.035 . S
O49 C54 1.258 . S
O50 C43 1.247 . S
O50 Zn47 2.028 . S
O51 C43 1.258 . S
O51 Zn45 2.035 . S
O52 Zn45 2.028 . S
O52 C55 1.247 . S
O53 Zn47 2.035 . S
O53 C55 1.258 . S
C54 O48 1.247 . S
C54 O49 1.258 . S
C55 O52 1.247 . S
C55 O53 1.258 . S
C56 O58 1.247 . S
C56 O60 1.258 . S
C57 O64 1.247 . S
C57 O65 1.258 . S
O58 C56 1.247 . S
O58 Zn59 2.028 . S
Zn59 O58 2.028 . S
Zn59 O63 2.035 . S
Zn59 O65 2.035 . S
Zn59 O66 2.028 . S
O60 C56 1.258 . S
O60 Zn61 2.035 . S
Zn61 O60 2.035 . S
Zn61 O62 2.028 . S
Zn61 O64 2.028 . S
Zn61 O67 2.035 . S
O62 Zn61 2.028 . S
O62 C68 1.247 . S
O63 Zn59 2.035 . S
O63 C68 1.258 . S
O64 C57 1.247 . S
O64 Zn61 2.028 . S
O65 C57 1.258 . S
O65 Zn59 2.035 . S
O66 Zn59 2.028 . S
O66 C69 1.247 . S
O67 Zn61 2.035 . S
O67 C69 1.258 . S
C68 O62 1.247 . S
C68 O63 1.258 . S
C69 O66 1.247 . S
C69 O67 1.258 . S
C70 O72 1.247 . S
C70 O74 1.258 . S
C71 O78 1.247 . S
C71 O79 1.258 . S
O72 C70 1.247 . S
O72 Zn73 2.028 . S
Zn73 O72 2.028 . S
Zn73 O77 2.035 . S
Zn73 O79 2.035 . S
Zn73 O80 2.028 . S
O74 C70 1.258 . S
O74 Zn75 2.035 . S
Zn75 O74 2.035 . S
Zn75 O76 2.028 . S
Zn75 O78 2.028 . S
Zn75 O81 2.035 . S
O76 Zn75 2.028 . S
O76 C82 1.247 . S
O77 Zn73 2.035 . S
O77 C82 1.258 . S
O78 C71 1.247 . S
O78 Zn75 2.028 . S
O79 C71 1.258 . S
O79 Zn73 2.035 . S
O80 Zn73 2.028 . S
O80 C83 1.247 . S
O81 Zn75 2.035 . S
O81 C83 1.258 . S
C82 O76 1.247 . S
C82 O77 1.258 . S
C83 O80 1.247 . S
C83 O81 1.258 . S
C84 O86 1.247 . S
C84 O88 1.258 . S
C85 O92 1.247 . S
C85 O93 1.258 . S
O86 C84 1.247 . S
O86 Zn87 2.028 . S
Zn87 O86 2.028 . S
Zn87 O91 2.035 . S
Zn87 O93 2.035 . S
Zn87 O94 2.028 . S
O88 C84 1.258 . S
O88 Zn89 2.035 . S
Zn89 O88 2.035 . S
Zn89 O90 2.028 . S
Zn89 O92 2.028 . S
Zn89 O95 2.035 . S
O90 Zn89 2.028 . S
O90 C96 1.247 . S
O91 Zn87 2.035 . S
O91 C96 1.258 . S
O92 C85 1.247 . S
O92 Zn89 2.028 . S
O93 C85 1.258 . S
O93 Zn87 2.035 . S
O94 Zn87 2.028 . S
O94 C97 1.247 . S
O95 Zn89 2.035 . S
O95 C97 1.258 . S
C96 O90 1.247 . S
C96 O91 1.258 . S
C97 O94 1.247 . S
C97 O95 1.258 . S
C98 O100 1.247 . S
C98 O102 1.258 . S
C99 O106 1.247 . S
C99 O107 1.258 . S
O100 C98 1.247 . S
O100 Zn101 2.028 . S
Zn101 O100 2.028 . S
Zn101 O105 2.035 . S
Zn101 O107 2.035 . S
Zn101 O108 2.028 . S
O102 C98 1.258 . S
O102 Zn103 2.035 . S
Zn103 O102 2.035 . S
Zn103 O104 2.028 . S
Zn103 O106 2.028 . S
Zn103 O109 2.035 . S
O104 Zn103 2.028 . S
O104 C110 1.247 . S
O105 Zn101 2.035 . S
O105 C110 1.258 . S
O106 C99 1.247 . S
O106 Zn103 2.028 . S
O107 C99 1.258 . S
O107 Zn101 2.035 . S
O108 Zn101 2.028 . S
O108 C111 1.247 . S
O109 Zn103 2.035 . S
O109 C111 1.258 . S
C110 O104 1.247 . S
C110 O105 1.258 . S
C111 O108 1.247 . S
C111 O109 1.258 . S
C112 O114 1.247 . S
C112 O116 1.258 . S
C113 O120 1.247 . S
C113 O121 1.258 . S
O114 C112 1.247 . S
O114 Zn115 2.028 . S
Zn115 O114 2.028 . S
Zn115 O119 2.035 . S
Zn115 O121 2.035 . S
Zn115 O122 2.028 . S
O116 C112 1.258 . S
O116 Zn117 2.035 . S
Zn117 O116 2.035 . S
Zn117 O118 2.028 . S
Zn117 O120 2.028 . S
Zn117 O123 2.035 . S
O118 Zn117 2.028 . S
O118 C124 1.247 . S
O119 Zn115 2.035 . S
O119 C124 1.258 . S
O120 C113 1.247 . S
O120 Zn117 2.028 . S
O121 C113 1.258 . S
O121 Zn115 2.035 . S
O122 Zn115 2.028 . S
O122 C125 1.247 . S
O123 Zn117 2.035 . S
O123 C125 1.258 . S
C124 O118 1.247 . S
C124 O119 1.258 . S
C125 O122 1.247 . S
C125 O123 1.258 . S
C126 O128 1.247 . S
C126 O130 1.258 . S
C127 O134 1.247 . S
C127 O135 1.258 . S
O128 C126 1.247 . S
O128 Zn129 2.028 . S
Zn129 O128 2.028 . S
Zn129 O133 2.035 . S
Zn129 O135 2.035 . S
Zn129 O136 2.028 . S
O130 C126 1.258 . S
O130 Zn131 2.035 . S
Zn131 O130 2.035 . S
Zn131 O132 2.028 . S
Zn131 O134 2.028 . S
Zn131 O137 2.035 . S
O132 Zn131 2.028 . S
O132 C138 1.247 . S
O133 Zn129 2.035 . S
O133 C138 1.258 . S
O134 C127 1.247 . S
O134 Zn131 2.028 . S
O135 C127 1.258 . S
O135 Zn129 2.035 . S
O136 Zn129 2.028 . S
O136 C139 1.247 . S
O137 Zn131 2.035 . S
O137 C139 1.258 . S
C138 O132 1.247 . S
C138 O133 1.258 . S
C139 O136 1.247 . S
C139 O137 1.258 . S
C140 O142 1.247 . S
C140 O144 1.258 . S
C141 O148 1.247 . S
C141 O149 1.258 . S
O142 C140 1.247 . S
O142 Zn143 2.028 . S
Zn143 O142 2.028 . S
Zn143 O147 2.035 . S
Zn143 O149 2.035 . S
Zn143 O150 2.028 . S
O144 C140 1.258 . S
O144 Zn145 2.035 . S
Zn145 O144 2.035 . S
Zn145 O146 2.028 . S
Zn145 O148 2.028 . S
Zn145 O151 2.035 . S
O146 Zn145 2.028 . S
O146 C152 1.247 . S
O147 Zn143 2.035 . S
O147 C152 1.258 . S
O148 C141 1.247 . S
O148 Zn145 2.028 . S
O149 C141 1.258 . S
O149 Zn143 2.035 . S
O150 Zn143 2.028 . S
O150 C153 1.247 . S
O151 Zn145 2.035 . S
O151 C153 1.258 . S
C152 O146 1.247 . S
C152 O147 1.258 . S
C153 O150 1.247 . S
C153 O151 1.258 . S
C154 O156 1.247 . S
C154 O158 1.258 . S
C155 O162 1.247 . S
C155 O163 1.258 . S
O156 C154 1.247 . S
O156 Zn157 2.028 . S
Zn157 O156 2.028 . S
Zn157 O161 2.035 . S
Zn157 O163 2.035 . S
Zn157 O164 2.028 . S
O158 C154 1.258 . S
O158 Zn159 2.035 . S
Zn159 O158 2.035 . S
Zn159 O160 2.028 . S
Zn159 O162 2.028 . S
Zn159 O165 2.035 . S
O160 Zn159 2.028 . S
O160 C166 1.247 . S
O161 Zn157 2.035 . S
O161 C166 1.258 . S
O162 C155 1.247 . S
O162 Zn159 2.028 . S
O163 C155 1.258 . S
O163 Zn157 2.035 . S
O164 Zn157 2.028 . S
O164 C167 1.247 . S
O165 Zn159 2.035 . S
O165 C167 1.258 . S
C166 O160 1.247 . S
C166 O161 1.258 . S
C167 O164 1.247 . S
C167 O165 1.258 . S
C168 O170 1.247 . S
C168 O172 1.258 . S
C169 O176 1.247 . S
C169 O177 1.258 . S
O170 C168 1.247 . S
O170 Zn171 2.028 . S
Zn171 O170 2.028 . S
Zn171 O175 2.035 . S
Zn171 O177 2.035 . S
Zn171 O178 2.028 . S
O172 C168 1.258 . S
O172 Zn173 2.035 . S
Zn173 O172 2.035 . S
Zn173 O174 2.028 . S
Zn173 O176 2.028 . S
Zn173 O179 2.035 . S
O174 Zn173 2.028 . S
O174 C180 1.247 . S
O175 Zn171 2.035 . S
O175 C180 1.258 . S
O176 C169 1.247 . S
O176 Zn173 2.028 . S
O177 C169 1.258 . S
O177 Zn171 2.035 . S
O178 Zn171 2.028 . S
O178 C181 1.247 . S
O179 Zn173 2.035 . S
O179 C181 1.258 . S
C180 O174 1.247 . S
C180 O175 1.258 . S
C181 O178 1.247 . S
C181 O179 1.258 . S
C182 O184 1.247 . S
C182 O186 1.258 . S
C183 O190 1.247 . S
C183 O191 1.258 . S
O184 C182 1.247 . S
O184 Zn185 2.028 . S
Zn185 O184 2.028 . S
Zn185 O189 2.035 . S
Zn185 O191 2.035 . S
Zn185 O192 2.028 . S
O186 C182 1.258 . S
O186 Zn187 2.035 . S
Zn187 O186 2.035 . S
Zn187 O188 2.028 . S
Zn187 O190 2.028 . S
Zn187 O193 2.035 . S
O188 Zn187 2.028 . S
O188 C194 1.247 . S
O189 Zn185 2.035 . S
O189 C194 1.258 . S
O190 C183 1.247 . S
O190 Zn187 2.028 . S
O191 C183 1.258 . S
O191 Zn185 2.035 . S
O192 Zn185 2.028 . S
O192 C195 1.247 . S
O193 Zn187 2.035 . S
O193 C195 1.258 . S
C194 O188 1.247 . S
C194 O189 1.258 . S
C195 O192 1.247 . S
C195 O193 1.258 . S
C196 O198 1.247 . S
C196 O200 1.258 . S
C197 O204 1.247 . S
C197 O205 1.258 . S
O198 C196 1.247 . S
O198 Zn199 2.028 . S
Zn199 O198 2.028 . S
Zn199 O203 2.035 . S
Zn199 O205 2.035 . S
Zn199 O206 2.028 . S
O200 C196 1.258 . S
O200 Zn201 2.035 . S
Zn201 O200 2.035 . S
Zn201 O202 2.028 . S
Zn201 O204 2.028 . S
Zn201 O207 2.035 . S
O202 Zn201 2.028 . S
O202 C208 1.247 . S
O203 Zn199 2.035 . S
O203 C208 1.258 . S
O204 C197 1.247 . S
O204 Zn201 2.028 . S
O205 C197 1.258 . S
O205 Zn199 2.035 . S
O206 Zn199 2.028 . S
O206 C209 1.247 . S
O207 Zn201 2.035 . S
O207 C209 1.258 . S
C208 O202 1.247 . S
C208 O203 1.258 . S
C209 O206 1.247 . S
C209 O207 1.258 . S
C210 O212 1.247 . S
C210 O214 1.258 . S
C211 O218 1.247 . S
C211 O219 1.258 . S
O212 C210 1.247 . S
O212 Zn213 2.028 . S
Zn213 O212 2.028 . S
Zn213 O217 2.035 . S
Zn213 O219 2.035 . S
Zn213 O220 2.028 . S
O214 C210 1.258 . S
O214 Zn215 2.035 . S
Zn215 O214 2.035 . S
Zn215 O216 2.028 . S
Zn215 O218 2.028 . S
Zn215 O221 2.035 . S
O216 Zn215 2.028 . S
O216 C222 1.247 . S
O217 Zn213 2.035 . S
O217 C222 1.258 . S
O218 C211 1.247 . S
O218 Zn215 2.028 . S
O219 C211 1.258 . S
O219 Zn213 2.035 . S
O220 Zn213 2.028 . S
O220 C223 1.247 . S
O221 Zn215 2.035 . S
O221 C223 1.258 . S
C222 O216 1.247 . S
C222 O217 1.258 . S
C223 O220 1.247 . S
C223 O221 1.258 . S
C224 C225 1.349 . S
C224 C226 1.327 . S
C224 H249 0.950 . S
C225 C224 1.349 . S
C225 C241 1.349 . S
C226 C224 1.327 . S
C226 C245 1.429 . S
C226 H250 0.950 . S
C227 C244 1.574 1_556 S
C227 C246 1.368 . S
C227 H251 0.949 . S
H228 C232 0.949 . S
C229 C230 1.349 . S
C229 C231 1.327 . S
C229 H252 0.950 . S
C230 C229 1.349 . S
C230 C242 1.349 . S
C231 C229 1.327 . S
C231 C247 1.429 . S
C231 H253 0.950 . S
C232 H228 0.949 . S
C232 C240 1.574 1_554 S
C232 C248 1.368 . S
H233 C241 0.950 . S
H234 C239 0.950 . S
H235 C240 0.949 . S
H236 C242 0.950 . S
H237 C243 0.950 . S
H238 C244 0.949 . S
C239 H234 0.950 . S
C239 C241 1.327 . S
C239 C245 1.429 . S
C240 C232 1.574 1_556 S
C240 H235 0.949 . S
C240 C246 1.368 . S
C241 C225 1.349 . S
C241 H233 0.950 . S
C241 C239 1.327 . S
C242 C230 1.349 . S
C242 H236 0.950 . S
C242 C243 1.327 . S
C243 H237 0.950 . S
C243 C242 1.327 . S
C243 C247 1.429 . S
C244 C227 1.574 1_554 S
C244 H238 0.949 . S
C244 C248 1.368 . S
C245 C226 1.429 . S
C245 C239 1.429 . S
C245 C246 1.523 . S
C246 C227 1.368 . S
C246 C240 1.368 . S
C246 C245 1.523 . S
C247 C231 1.429 . S
C247 C243 1.429 . S
C247 C248 1.523 . S
C248 C232 1.368 . S
C248 C244 1.368 . S
C248 C247 1.523 . S
H249 C224 0.950 . S
H250 C226 0.950 . S
H251 C227 0.949 . S
H252 C229 0.950 . S
H253 C231 0.950 . S
C254 C255 1.349 . S
C254 C256 1.327 . S
C254 H279 0.950 . S
C255 C254 1.349 . S
C255 C271 1.349 . S
C256 C254 1.327 . S
C256 C275 1.429 . S
C256 H280 0.950 . S
C257 C274 1.574 . S
C257 C276 1.368 . S
C257 H281 0.949 . S
H258 C262 0.949 . S
C259 C260 1.349 . S
C259 C261 1.327 . S
C259 H282 0.950 . S
C260 C259 1.349 . S
C260 C272 1.349 . S
C261 C259 1.327 . S
C261 C277 1.429 . S
C261 H283 0.950 . S
C262 H258 0.949 . S
C262 C270 1.574 . S
C262 C278 1.368 . S
H263 C271 0.950 . S
H264 C269 0.950 . S
H265 C270 0.949 . S
H266 C272 0.950 . S
H267 C273 0.950 . S
H268 C274 0.949 . S
C269 H264 0.950 . S
C269 C271 1.327 . S
C269 C275 1.429 . S
C270 C262 1.574 . S
C270 H265 0.949 . S
C270 C276 1.368 . S
C271 C255 1.349 . S
C271 H263 0.950 . S
C271 C269 1.327 . S
C272 C260 1.349 . S
C272 H266 0.950 . S
C272 C273 1.327 . S
C273 H267 0.950 . S
C273 C272 1.327 . S
C273 C277 1.429 . S
C274 C257 1.574 . S
C274 H268 0.949 . S
C274 C278 1.368 . S
C275 C256 1.429 . S
C275 C269 1.429 . S
C275 C276 1.523 . S
C276 C257 1.368 . S
C276 C270 1.368 . S
C276 C275 1.523 . S
C277 C261 1.429 . S
C277 C273 1.429 . S
C277 C278 1.523 . S
C278 C262 1.368 . S
C278 C274 1.368 . S
C278 C277 1.523 . S
H279 C254 0.950 . S
H280 C256 0.950 . S
H281 C257 0.949 . S
H282 C259 0.950 . S
H283 C261 0.950 . S
C284 C285 1.349 . S
C284 C286 1.327 . S
C284 H309 0.950 . S
C285 C284 1.349 . S
C285 C301 1.349 . S
C286 C284 1.327 . S
C286 C305 1.429 . S
C286 H310 0.950 . S
C287 C304 1.574 1_556 S
C287 C306 1.368 . S
C287 H311 0.949 . S
H288 C292 0.949 . S
C289 C290 1.349 . S
C289 C291 1.327 . S
C289 H312 0.950 . S
C290 C289 1.349 . S
C290 C302 1.349 . S
C291 C289 1.327 . S
C291 C307 1.429 . S
C291 H313 0.950 . S
C292 H288 0.949 . S
C292 C300 1.574 1_554 S
C292 C308 1.368 . S
H293 C301 0.950 . S
H294 C299 0.950 . S
H295 C300 0.949 . S
H296 C302 0.950 . S
H297 C303 0.950 . S
H298 C304 0.949 . S
C299 H294 0.950 . S
C299 C301 1.327 . S
C299 C305 1.429 . S
C300 C292 1.574 1_556 S
C300 H295 0.949 . S
C300 C306 1.368 . S
C301 C285 1.349 . S
C301 H293 0.950 . S
C301 C299 1.327 . S
C302 C290 1.349 . S
C302 H296 0.950 . S
C302 C303 1.327 . S
C303 H297 0.950 . S
C303 C302 1.327 . S
C303 C307 1.429 . S
C304 C287 1.574 1_554 S
C304 H298 0.949 . S
C304 C308 1.368 . S
C305 C286 1.429 . S
C305 C299 1.429 . S
C305 C306 1.523 . S
C306 C287 1.368 . S
C306 C300 1.368 . S
C306 C305 1.523 . S
C307 C291 1.429 . S
C307 C303 1.429 . S
C307 C308 1.523 . S
C308 C292 1.368 . S
C308 C304 1.368 . S
C308 C307 1.523 . S
H309 C284 0.950 . S
H310 C286 0.950 . S
H311 C287 0.949 . S
H312 C289 0.950 . S
H313 C291 0.950 . S
C314 C315 1.349 . S
C314 C316 1.327 . S
C314 H339 0.950 . S
C315 C314 1.349 . S
C315 C331 1.349 . S
C316 C314 1.327 . S
C316 C335 1.429 . S
C316 H340 0.950 . S
C317 C334 1.574 . S
C317 C336 1.368 . S
C317 H341 0.949 . S
H318 C322 0.949 . S
C319 C320 1.349 . S
C319 C321 1.327 . S
C319 H342 0.950 . S
C320 C319 1.349 . S
C320 C332 1.349 . S
C321 C319 1.327 . S
C321 C337 1.429 . S
C321 H343 0.950 . S
C322 H318 0.949 . S
C322 C330 1.574 . S
C322 C338 1.368 . S
H323 C331 0.950 . S
H324 C329 0.950 . S
H325 C330 0.949 . S
H326 C332 0.950 . S
H327 C333 0.950 . S
H328 C334 0.949 . S
C329 H324 0.950 . S
C329 C331 1.327 . S
C329 C335 1.429 . S
C330 C322 1.574 . S
C330 H325 0.949 . S
C330 C336 1.368 . S
C331 C315 1.349 . S
C331 H323 0.950 . S
C331 C329 1.327 . S
C332 C320 1.349 . S
C332 H326 0.950 . S
C332 C333 1.327 . S
C333 H327 0.950 . S
C333 C332 1.327 . S
C333 C337 1.429 . S
C334 C317 1.574 . S
C334 H328 0.949 . S
C334 C338 1.368 . S
C335 C316 1.429 . S
C335 C329 1.429 . S
C335 C336 1.523 . S
C336 C317 1.368 . S
C336 C330 1.368 . S
C336 C335 1.523 . S
C337 C321 1.429 . S
C337 C333 1.429 . S
C337 C338 1.523 . S
C338 C322 1.368 . S
C338 C334 1.368 . S
C338 C337 1.523 . S
H339 C314 0.950 . S
H340 C316 0.950 . S
H341 C317 0.949 . S
H342 C319 0.950 . S
H343 C321 0.950 . S
C344 C345 1.349 . S
C344 C346 1.327 . S
C344 H369 0.950 . S
C345 C344 1.349 . S
C345 C361 1.349 . S
C346 C344 1.327 . S
C346 C365 1.429 . S
C346 H370 0.950 . S
C347 C364 1.574 1_554 S
C347 C366 1.368 . S
C347 H371 0.949 . S
H348 C352 0.949 . S
C349 C350 1.349 . S
C349 C351 1.327 . S
C349 H372 0.950 . S
C350 C349 1.349 . S
C350 C362 1.349 . S
C351 C349 1.327 . S
C351 C367 1.429 . S
C351 H373 0.950 . S
C352 H348 0.949 . S
C352 C360 1.574 1_556 S
C352 C368 1.368 . S
H353 C361 0.950 . S
H354 C359 0.950 . S
H355 C360 0.949 . S
H356 C362 0.950 . S
H357 C363 0.950 . S
H358 C364 0.949 . S
C359 H354 0.950 . S
C359 C361 1.327 . S
C359 C365 1.429 . S
C360 C352 1.574 1_554 S
C360 H355 0.949 . S
C360 C366 1.368 . S
C361 C345 1.349 . S
C361 H353 0.950 . S
C361 C359 1.327 . S
C362 C350 1.349 . S
C362 H356 0.950 . S
C362 C363 1.327 . S
C363 H357 0.950 . S
C363 C362 1.327 . S
C363 C367 1.429 . S
C364 C347 1.574 1_556 S
C364 H358 0.949 . S
C364 C368 1.368 . S
C365 C346 1.429 . S
C365 C359 1.429 . S
C365 C366 1.523 . S
C366 C347 1.368 . S
C366 C360 1.368 . S
C366 C365 1.523 . S
C367 C351 1.429 . S
C367 C363 1.429 . S
C367 C368 1.523 . S
C368 C352 1.368 . S
C368 C364 1.368 . S
C368 C367 1.523 . S
H369 C344 0.950 . S
H370 C346 0.950 . S
H371 C347 0.949 . S
H372 C349 0.950 . S
H373 C351 0.950 . S
C374 C375 1.349 . S
C374 C376 1.327 . S
C374 H399 0.950 . S
C375 C374 1.349 . S
C375 C391 1.349 . S
C376 C374 1.327 . S
C376 C395 1.429 . S
C376 H400 0.950 . S
C377 C394 1.574 . S
C377 C396 1.368 . S
C377 H401 0.949 . S
H378 C382 0.949 . S
C379 C380 1.349 . S
C379 C381 1.327 . S
C379 H402 0.950 . S
C380 C379 1.349 . S
C380 C392 1.349 . S
C381 C379 1.327 . S
C381 C397 1.429 . S
C381 H403 0.950 . S
C382 H378 0.949 . S
C382 C390 1.574 . S
C382 C398 1.368 . S
H383 C391 0.950 . S
H384 C389 0.950 . S
H385 C390 0.949 . S
H386 C392 0.950 . S
H387 C393 0.950 . S
H388 C394 0.949 . S
C389 H384 0.950 . S
C389 C391 1.327 . S
C389 C395 1.429 . S
C390 C382 1.574 . S
C390 H385 0.949 . S
C390 C396 1.368 . S
C391 C375 1.349 . S
C391 H383 0.950 . S
C391 C389 1.327 . S
C392 C380 1.349 . S
C392 H386 0.950 . S
C392 C393 1.327 . S
C393 H387 0.950 . S
C393 C392 1.327 . S
C393 C397 1.429 . S
C394 C377 1.574 . S
C394 H388 0.949 . S
C394 C398 1.368 . S
C395 C376 1.429 . S
C395 C389 1.429 . S
C395 C396 1.523 . S
C396 C377 1.368 . S
C396 C390 1.368 . S
C396 C395 1.523 . S
C397 C381 1.429 . S
C397 C393 1.429 . S
C397 C398 1.523 . S
C398 C382 1.368 . S
C398 C394 1.368 . S
C398 C397 1.523 . S
H399 C374 0.950 . S
H400 C376 0.950 . S
H401 C377 0.949 . S
H402 C379 0.950 . S
H403 C381 0.950 . S
C404 C405 1.349 . S
C404 C406 1.327 . S
C404 H429 0.950 . S
C405 C404 1.349 . S
C405 C421 1.349 . S
C406 C404 1.327 . S
C406 C425 1.429 . S
C406 H430 0.950 . S
C407 C424 1.574 1_556 S
C407 C426 1.368 . S
C407 H431 0.949 . S
H408 C412 0.949 . S
C409 C410 1.349 . S
C409 C411 1.327 . S
C409 H432 0.950 . S
C410 C409 1.349 . S
C410 C422 1.349 . S
C411 C409 1.327 . S
C411 C427 1.429 . S
C411 H433 0.950 . S
C412 H408 0.949 . S
C412 C420 1.574 1_554 S
C412 C428 1.368 . S
H413 C421 0.950 . S
H414 C419 0.950 . S
H415 C420 0.949 . S
H416 C422 0.950 . S
H417 C423 0.950 . S
H418 C424 0.949 . S
C419 H414 0.950 . S
C419 C421 1.327 . S
C419 C425 1.429 . S
C420 C412 1.574 1_556 S
C420 H415 0.949 . S
C420 C426 1.368 . S
C421 C405 1.349 . S
C421 H413 0.950 . S
C421 C419 1.327 . S
C422 C410 1.349 . S
C422 H416 0.950 . S
C422 C423 1.327 . S
C423 H417 0.950 . S
C423 C422 1.327 . S
C423 C427 1.429 . S
C424 C407 1.574 1_554 S
C424 H418 0.949 . S
C424 C428 1.368 . S
C425 C406 1.429 . S
C425 C419 1.429 . S
C425 C426 1.523 . S
C426 C407 1.368 . S
C426 C420 1.368 . S
C426 C425 1.523 . S
C427 C411 1.429 . S
C427 C423 1.429 . S
C427 C428 1.523 . S
C428 C412 1.368 . S
C428 C424 1.368 . S
C428 C427 1.523 . S
H429 C404 0.950 . S
H430 C406 0.950 . S
H431 C407 0.949 . S
H432 C409 0.950 . S
H433 C411 0.950 . S
C434 C435 1.349 . S
C434 C436 1.327 . S
C434 H459 0.950 . S
C435 C434 1.349 . S
C435 C451 1.349 . S
C436 C434 1.327 . S
C436 C455 1.429 . S
C436 H460 0.950 . S
C437 C454 1.574 . S
C437 C456 1.368 . S
C437 H461 0.949 . S
H438 C442 0.949 . S
C439 C440 1.349 . S
C439 C441 1.327 . S
C439 H462 0.950 . S
C440 C439 1.349 . S
C440 C452 1.349 . S
C441 C439 1.327 . S
C441 C457 1.429 . S
C441 H463 0.950 . S
C442 H438 0.949 . S
C442 C450 1.574 . S
C442 C458 1.368 . S
H443 C451 0.950 . S
H444 C449 0.950 . S
H445 C450 0.949 . S
H446 C452 0.950 . S
H447 C453 0.950 . S
H448 C454 0.949 . S
C449 H444 0.950 . S
C449 C451 1.327 . S
C449 C455 1.429 . S
C450 C442 1.574 . S
C450 H445 0.949 . S
C450 C456 1.368 . S
C451 C435 1.349 . S
C451 H443 0.950 . S
C451 C449 1.327 . S
C452 C440 1.349 . S
C452 H446 0.950 . S
C452 C453 1.327 . S
C453 H447 0.950 . S
C453 C452 1.327 . S
C453 C457 1.429 . S
C454 C437 1.574 . S
C454 H448 0.949 . S
C454 C458 1.368 . S
C455 C436 1.429 . S
C455 C449 1.429 . S
C455 C456 1.523 . S
C456 C437 1.368 . S
C456 C450 1.368 . S
C456 C455 1.523 . S
C457 C441 1.429 . S
C457 C453 1.429 . S
C457 C458 1.523 . S
C458 C442 1.368 . S
C458 C454 1.368 . S
C458 C457 1.523 . S
H459 C434 0.950 . S
H460 C436 0.950 . S
H461 C437 0.949 . S
H462 C439 0.950 . S
H463 C441 0.950 . S
C464 C465 1.349 . S
C464 C466 1.327 . S
C464 H489 0.950 . S
C465 C464 1.349 . S
C465 C481 1.349 . S
C466 C464 1.327 . S
C466 C485 1.429 . S
C466 H490 0.950 . S
C467 C484 1.574 . S
C467 C486 1.368 . S
C467 H491 0.949 . S
H468 C472 0.949 . S
C469 C470 1.349 . S
C469 C471 1.327 . S
C469 H492 0.950 . S
C470 C469 1.349 . S
C470 C482 1.349 . S
C471 C469 1.327 . S
C471 C487 1.429 . S
C471 H493 0.950 . S
C472 H468 0.949 . S
C472 C480 1.574 . S
C472 C488 1.368 . S
H473 C481 0.950 . S
H474 C479 0.950 . S
H475 C480 0.949 . S
H476 C482 0.950 . S
H477 C483 0.950 . S
H478 C484 0.949 . S
C479 H474 0.950 . S
C479 C481 1.327 . S
C479 C485 1.429 . S
C480 C472 1.574 . S
C480 H475 0.949 . S
C480 C486 1.368 . S
C481 C465 1.349 . S
C481 H473 0.950 . S
C481 C479 1.327 . S
C482 C470 1.349 . S
C482 H476 0.950 . S
C482 C483 1.327 . S
C483 H477 0.950 . S
C483 C482 1.327 . S
C483 C487 1.429 . S
C484 C467 1.574 . S
C484 H478 0.949 . S
C484 C488 1.368 . S
C485 C466 1.429 . S
C485 C479 1.429 . S
C485 C486 1.523 . S
C486 C467 1.368 . S
C486 C480 1.368 . S
C486 C485 1.523 . S
C487 C471 1.429 . S
C487 C483 1.429 . S
C487 C488 1.523 . S
C488 C472 1.368 . S
C488 C484 1.368 . S
C488 C487 1.523 . S
H489 C464 0.950 . S
H490 C466 0.950 . S
H491 C467 0.949 . S
H492 C469 0.950 . S
H493 C471 0.950 . S
C494 C495 1.349 . S
C494 C496 1.327 . S
C494 H519 0.950 . S
C495 C494 1.349 . S
C495 C511 1.349 . S
C496 C494 1.327 . S
C496 C515 1.429 . S
C496 H520 0.950 . S
C497 C514 1.574 . S
C497 C516 1.368 . S
C497 H521 0.949 . S
H498 C502 0.949 . S
C499 C500 1.349 . S
C499 C501 1.327 . S
C499 H522 0.950 . S
C500 C499 1.349 . S
C500 C512 1.349 . S
C501 C499 1.327 . S
C501 C517 1.429 . S
C501 H523 0.950 . S
C502 H498 0.949 . S
C502 C510 1.574 . S
C502 C518 1.368 . S
H503 C511 0.950 . S
H504 C509 0.950 . S
H505 C510 0.949 . S
H506 C512 0.950 . S
H507 C513 0.950 . S
H508 C514 0.949 . S
C509 H504 0.950 . S
C509 C511 1.327 . S
C509 C515 1.429 . S
C510 C502 1.574 . S
C510 H505 0.949 . S
C510 C516 1.368 . S
C511 C495 1.349 . S
C511 H503 0.950 . S
C511 C509 1.327 . S
C512 C500 1.349 . S
C512 H506 0.950 . S
C512 C513 1.327 . S
C513 H507 0.950 . S
C513 C512 1.327 . S
C513 C517 1.429 . S
C514 C497 1.574 . S
C514 H508 0.949 . S
C514 C518 1.368 . S
C515 C496 1.429 . S
C515 C509 1.429 . S
C515 C516 1.523 . S
C516 C497 1.368 . S
C516 C510 1.368 . S
C516 C515 1.523 . S
C517 C501 1.429 . S
C517 C513 1.429 . S
C517 C518 1.523 . S
C518 C502 1.368 . S
C518 C514 1.368 . S
C518 C517 1.523 . S
H519 C494 0.950 . S
H520 C496 0.950 . S
H521 C497 0.949 . S
H522 C499 0.950 . S
H523 C501 0.950 . S
C524 C525 1.349 . S
C524 C526 1.327 . S
C524 H549 0.950 . S
C525 C524 1.349 . S
C525 C541 1.349 . S
C526 C524 1.327 . S
C526 C545 1.429 . S
C526 H550 0.950 . S
C527 C544 1.574 . S
C527 C546 1.368 . S
C527 H551 0.949 . S
H528 C532 0.949 . S
C529 C530 1.349 . S
C529 C531 1.327 . S
C529 H552 0.950 . S
C530 C529 1.349 . S
C530 C542 1.349 . S
C531 C529 1.327 . S
C531 C547 1.429 . S
C531 H553 0.950 . S
C532 H528 0.949 . S
C532 C540 1.574 . S
C532 C548 1.368 . S
H533 C541 0.950 . S
H534 C539 0.950 . S
H535 C540 0.949 . S
H536 C542 0.950 . S
H537 C543 0.950 . S
H538 C544 0.949 . S
C539 H534 0.950 . S
C539 C541 1.327 . S
C539 C545 1.429 . S
C540 C532 1.574 . S
C540 H535 0.949 . S
C540 C546 1.368 . S
C541 C525 1.349 . S
C541 H533 0.950 . S
C541 C539 1.327 . S
C542 C530 1.349 . S
C542 H536 0.950 . S
C542 C543 1.327 . S
C543 H537 0.950 . S
C543 C542 1.327 . S
C543 C547 1.429 . S
C544 C527 1.574 . S
C544 H538 0.949 . S
C544 C548 1.368 . S
C545 C526 1.429 . S
C545 C539 1.429 . S
C545 C546 1.523 . S
C546 C527 1.368 . S
C546 C540 1.368 . S
C546 C545 1.523 . S
C547 C531 1.429 . S
C547 C543 1.429 . S
C547 C548 1.523 . S
C548 C532 1.368 . S
C548 C544 1.368 . S
C548 C547 1.523 . S
H549 C524 0.950 . S
H550 C526 0.950 . S
H551 C527 0.949 . S
H552 C529 0.950 . S
H553 C531 0.950 . S
C554 C555 1.349 . S
C554 C556 1.327 . S
C554 H579 0.950 . S
C555 C554 1.349 . S
C555 C571 1.349 . S
C556 C554 1.327 . S
C556 C575 1.429 . S
C556 H580 0.950 . S
C557 C574 1.574 . S
C557 C576 1.368 . S
C557 H581 0.949 . S
H558 C562 0.949 . S
C559 C560 1.349 . S
C559 C561 1.327 . S
C559 H582 0.950 . S
C560 C559 1.349 . S
C560 C572 1.349 . S
C561 C559 1.327 . S
C561 C577 1.429 . S
C561 H583 0.950 . S
C562 H558 0.949 . S
C562 C570 1.574 . S
C562 C578 1.368 . S
H563 C571 0.950 . S
H564 C569 0.950 . S
H565 C570 0.949 . S
H566 C572 0.950 . S
H567 C573 0.950 . S
H568 C574 0.949 . S
C569 H564 0.950 . S
C569 C571 1.327 . S
C569 C575 1.429 . S
C570 C562 1.574 . S
C570 H565 0.949 . S
C570 C576 1.368 . S
C571 C555 1.349 . S
C571 H563 0.950 . S
C571 C569 1.327 . S
C572 C560 1.349 . S
C572 H566 0.950 . S
C572 C573 1.327 . S
C573 H567 0.950 . S
C573 C572 1.327 . S
C573 C577 1.429 . S
C574 C557 1.574 . S
C574 H568 0.949 . S
C574 C578 1.368 . S
C575 C556 1.429 . S
C575 C569 1.429 . S
C575 C576 1.523 . S
C576 C557 1.368 . S
C576 C570 1.368 . S
C576 C575 1.523 . S
C577 C561 1.429 . S
C577 C573 1.429 . S
C577 C578 1.523 . S
C578 C562 1.368 . S
C578 C574 1.368 . S
C578 C577 1.523 . S
H579 C554 0.950 . S
H580 C556 0.950 . S
H581 C557 0.949 . S
H582 C559 0.950 . S
H583 C561 0.950 . S
C584 C585 1.349 . S
C584 C586 1.327 . S
C584 H609 0.950 . S
C585 C584 1.349 . S
C585 C601 1.349 . S
C586 C584 1.327 . S
C586 C605 1.429 . S
C586 H610 0.950 . S
C587 C604 1.574 . S
C587 C606 1.368 . S
C587 H611 0.949 . S
H588 C592 0.949 . S
C589 C590 1.349 . S
C589 C591 1.327 . S
C589 H612 0.950 . S
C590 C589 1.349 . S
C590 C602 1.349 . S
C591 C589 1.327 . S
C591 C607 1.429 . S
C591 H613 0.950 . S
C592 H588 0.949 . S
C592 C600 1.574 . S
C592 C608 1.368 . S
H593 C601 0.950 . S
H594 C599 0.950 . S
H595 C600 0.949 . S
H596 C602 0.950 . S
H597 C603 0.950 . S
H598 C604 0.949 . S
C599 H594 0.950 . S
C599 C601 1.327 . S
C599 C605 1.429 . S
C600 C592 1.574 . S
C600 H595 0.949 . S
C600 C606 1.368 . S
C601 C585 1.349 . S
C601 H593 0.950 . S
C601 C599 1.327 . S
C602 C590 1.349 . S
C602 H596 0.950 . S
C602 C603 1.327 . S
C603 H597 0.950 . S
C603 C602 1.327 . S
C603 C607 1.429 . S
C604 C587 1.574 . S
C604 H598 0.949 . S
C604 C608 1.368 . S
C605 C586 1.429 . S
C605 C599 1.429 . S
C605 C606 1.523 . S
C606 C587 1.368 . S
C606 C600 1.368 . S
C606 C605 1.523 . S
C607 C591 1.429 . S
C607 C603 1.429 . S
C607 C608 1.523 . S
C608 C592 1.368 . S
C608 C604 1.368 . S
C608 C607 1.523 . S
H609 C584 0.950 . S
H610 C586 0.950 . S
H611 C587 0.949 . S
H612 C589 0.950 . S
H613 C591 0.950 . S
C614 C615 1.349 . S
C614 C616 1.327 . S
C614 H639 0.950 . S
C615 C614 1.349 . S
C615 C631 1.349 . S
C616 C614 1.327 . S
C616 C635 1.429 . S
C616 H640 0.950 . S
C617 C634 1.574 . S
C617 C636 1.368 . S
C617 H641 0.949 . S
H618 C622 0.949 . S
C619 C620 1.349 . S
C619 C621 1.327 . S
C619 H642 0.950 . S
C620 C619 1.349 . S
C620 C632 1.349 . S
C621 C619 1.327 . S
C621 C637 1.429 . S
C621 H643 0.950 . S
C622 H618 0.949 . S
C622 C630 1.574 . S
C622 C638 1.368 . S
H623 C631 0.950 . S
H624 C629 0.950 . S
H625 C630 0.949 . S
H626 C632 0.950 . S
H627 C633 0.950 . S
H628 C634 0.949 . S
C629 H624 0.950 . S
C629 C631 1.327 . S
C629 C635 1.429 . S
C630 C622 1.574 . S
C630 H625 0.949 . S
C630 C636 1.368 . S
C631 C615 1.349 . S
C631 H623 0.950 . S
C631 C629 1.327 . S
C632 C620 1.349 . S
C632 H626 0.950 . S
C632 C633 1.327 . S
C633 H627 0.950 . S
C633 C632 1.327 . S
C633 C637 1.429 . S
C634 C617 1.574 . S
C634 H628 0.949 . S
C634 C638 1.368 . S
C635 C616 1.429 . S
C635 C629 1.429 . S
C635 C636 1.523 . S
C636 C617 1.368 . S
C636 C630 1.368 . S
C636 C635 1.523 . S
C637 C621 1.429 . S
C637 C633 1.429 . S
C637 C638 1.523 . S
C638 C622 1.368 . S
C638 C634 1.368 . S
C638 C637 1.523 . S
H639 C614 0.950 . S
H640 C616 0.950 . S
H641 C617 0.949 . S
H642 C619 0.950 . S
H643 C621 0.950 . S
C644 C645 1.349 . S
C644 C646 1.327 . S
C644 H669 0.950 . S
C645 C644 1.349 . S
C645 C661 1.349 . S
C646 C644 1.327 . S
C646 C665 1.429 . S
C646 H670 0.950 . S
C647 C664 1.574 . S
C647 C666 1.368 . S
C647 H671 0.949 . S
H648 C652 0.949 . S
C649 C650 1.349 . S
C649 C651 1.327 . S
C649 H672 0.950 . S
C650 C649 1.349 . S
C650 C662 1.349 . S
C651 C649 1.327 . S
C651 C667 1.429 . S
C651 H673 0.950 . S
C652 H648 0.949 . S
C652 C660 1.574 . S
C652 C668 1.368 . S
H653 C661 0.950 . S
H654 C659 0.950 . S
H655 C660 0.949 . S
H656 C662 0.950 . S
H657 C663 0.950 . S
H658 C664 0.949 . S
C659 H654 0.950 . S
C659 C661 1.327 . S
C659 C665 1.429 . S
C660 C652 1.574 . S
C660 H655 0.949 . S
C660 C666 1.368 . S
C661 C645 1.349 . S
C661 H653 0.950 . S
C661 C659 1.327 . S
C662 C650 1.349 . S
C662 H656 0.950 . S
C662 C663 1.327 . S
C663 H657 0.950 . S
C663 C662 1.327 . S
C663 C667 1.429 . S
C664 C647 1.574 . S
C664 H658 0.949 . S
C664 C668 1.368 . S
C665 C646 1.429 . S
C665 C659 1.429 . S
C665 C666 1.523 . S
C666 C647 1.368 . S
C666 C660 1.368 . S
C666 C665 1.523 . S
C667 C651 1.429 . S
C667 C663 1.429 . S
C667 C668 1.523 . S
C668 C652 1.368 . S
C668 C664 1.368 . S
C668 C667 1.523 . S
H669 C644 0.950 . S
H670 C646 0.950 . S
H671 C647 0.949 . S
H672 C649 0.950 . S
H673 C651 0.950 . S
C674 C675 1.349 . S
C674 C676 1.327 . S
C674 H699 0.950 . S
C675 C674 1.349 . S
C675 C691 1.349 . S
C676 C674 1.327 . S
C676 C695 1.429 . S
C676 H700 0.950 . S
C677 C694 1.574 . S
C677 C696 1.368 . S
C677 H701 0.949 . S
H678 C682 0.949 . S
C679 C680 1.349 . S
C679 C681 1.327 . S
C679 H702 0.950 . S
C680 C679 1.349 . S
C680 C692 1.349 . S
C681 C679 1.327 . S
C681 C697 1.429 . S
C681 H703 0.950 . S
C682 H678 0.949 . S
C682 C690 1.574 . S
C682 C698 1.368 . S
H683 C691 0.950 . S
H684 C689 0.950 . S
H685 C690 0.949 . S
H686 C692 0.950 . S
H687 C693 0.950 . S
H688 C694 0.949 . S
C689 H684 0.950 . S
C689 C691 1.327 . S
C689 C695 1.429 . S
C690 C682 1.574 . S
C690 H685 0.949 . S
C690 C696 1.368 . S
C691 C675 1.349 . S
C691 H683 0.950 . S
C691 C689 1.327 . S
C692 C680 1.349 . S
C692 H686 0.950 . S
C692 C693 1.327 . S
C693 H687 0.950 . S
C693 C692 1.327 . S
C693 C697 1.429 . S
C694 C677 1.574 . S
C694 H688 0.949 . S
C694 C698 1.368 . S
C695 C676 1.429 . S
C695 C689 1.429 . S
C695 C696 1.523 . S
C696 C677 1.368 . S
C696 C690 1.368 . S
C696 C695 1.523 . S
C697 C681 1.429 . S
C697 C693 1.429 . S
C697 C698 1.523 . S
C698 C682 1.368 . S
C698 C694 1.368 . S
C698 C697 1.523 . S
H699 C674 0.950 . S
H700 C676 0.950 . S
H701 C677 0.949 . S
H702 C679 0.950 . S
H703 C681 0.950 . S
C704 C705 1.349 . S
C704 C706 1.327 . S
C704 H729 0.950 . S
C705 C704 1.349 . S
C705 C721 1.349 . S
C706 C704 1.327 . S
C706 C725 1.429 . S
C706 H730 0.950 . S
C707 C724 1.574 . S
C707 C726 1.368 . S
C707 H731 0.949 . S
H708 C712 0.949 . S
C709 C710 1.349 . S
C709 C711 1.327 . S
C709 H732 0.950 . S
C710 C709 1.349 . S
C710 C722 1.349 . S
C711 C709 1.327 . S
C711 C727 1.429 . S
C711 H733 0.950 . S
C712 H708 0.949 . S
C712 C720 1.574 . S
C712 C728 1.368 . S
H713 C721 0.950 . S
H714 C719 0.950 . S
H715 C720 0.949 . S
H716 C722 0.950 . S
H717 C723 0.950 . S
H718 C724 0.949 . S
C719 H714 0.950 . S
C719 C721 1.327 . S
C719 C725 1.429 . S
C720 C712 1.574 . S
C720 H715 0.949 . S
C720 C726 1.368 . S
C721 C705 1.349 . S
C721 H713 0.950 . S
C721 C719 1.327 . S
C722 C710 1.349 . S
C722 H716 0.950 . S
C722 C723 1.327 . S
C723 H717 0.950 . S
C723 C722 1.327 . S
C723 C727 1.429 . S
C724 C707 1.574 . S
C724 H718 0.949 . S
C724 C728 1.368 . S
C725 C706 1.429 . S
C725 C719 1.429 . S
C725 C726 1.523 . S
C726 C707 1.368 . S
C726 C720 1.368 . S
C726 C725 1.523 . S
C727 C711 1.429 . S
C727 C723 1.429 . S
C727 C728 1.523 . S
C728 C712 1.368 . S
C728 C724 1.368 . S
C728 C727 1.523 . S
H729 C704 0.950 . S
H730 C706 0.950 . S
H731 C707 0.949 . S
H732 C709 0.950 . S
H733 C711 0.950 . S
C734 C735 1.349 . S
C734 C736 1.327 . S
C734 H759 0.950 . S
C735 C734 1.349 . S
C735 C751 1.349 . S
C736 C734 1.327 . S
C736 C755 1.429 . S
C736 H760 0.950 . S
C737 C754 1.574 . S
C737 C756 1.368 . S
C737 H761 0.949 . S
H738 C742 0.949 . S
C739 C740 1.349 . S
C739 C741 1.327 . S
C739 H762 0.950 . S
C740 C739 1.349 . S
C740 C752 1.349 . S
C741 C739 1.327 . S
C741 C757 1.429 . S
C741 H763 0.950 . S
C742 H738 0.949 . S
C742 C750 1.574 . S
C742 C758 1.368 . S
H743 C751 0.950 . S
H744 C749 0.950 . S
H745 C750 0.949 . S
H746 C752 0.950 . S
H747 C753 0.950 . S
H748 C754 0.949 . S
C749 H744 0.950 . S
C749 C751 1.327 . S
C749 C755 1.429 . S
C750 C742 1.574 . S
C750 H745 0.949 . S
C750 C756 1.368 . S
C751 C735 1.349 . S
C751 H743 0.950 . S
C751 C749 1.327 . S
C752 C740 1.349 . S
C752 H746 0.950 . S
C752 C753 1.327 . S
C753 H747 0.950 . S
C753 C752 1.327 . S
C753 C757 1.429 . S
C754 C737 1.574 . S
C754 H748 0.949 . S
C754 C758 1.368 . S
C755 C736 1.429 . S
C755 C749 1.429 . S
C755 C756 1.523 . S
C756 C737 1.368 . S
C756 C750 1.368 . S
C756 C755 1.523 . S
C757 C741 1.429 . S
C757 C753 1.429 . S
C757 C758 1.523 . S
C758 C742 1.368 . S
C758 C754 1.368 . S
C758 C757 1.523 . S
H759 C734 0.950 . S
H760 C736 0.950 . S
H761 C737 0.949 . S
H762 C739 0.950 . S
H763 C741 0.950 . S
C764 C765 1.349 . S
C764 C766 1.327 . S
C764 H789 0.950 . S
C765 C764 1.349 . S
C765 C781 1.349 . S
C766 C764 1.327 . S
C766 C785 1.429 . S
C766 H790 0.950 . S
C767 C784 1.574 . S
C767 C786 1.368 . S
C767 H791 0.949 . S
H768 C772 0.949 . S
C769 C770 1.349 . S
C769 C771 1.327 . S
C769 H792 0.950 . S
C770 C769 1.349 . S
C770 C782 1.349 . S
C771 C769 1.327 . S
C771 C787 1.429 . S
C771 H793 0.950 . S
C772 H768 0.949 . S
C772 C780 1.574 . S
C772 C788 1.368 . S
H773 C781 0.950 . S
H774 C779 0.950 . S
H775 C780 0.949 . S
H776 C782 0.950 . S
H777 C783 0.950 . S
H778 C784 0.949 . S
C779 H774 0.950 . S
C779 C781 1.327 . S
C779 C785 1.429 . S
C780 C772 1.574 . S
C780 H775 0.949 . S
C780 C786 1.368 . S
C781 C765 1.349 . S
C781 H773 0.950 . S
C781 C779 1.327 . S
C782 C770 1.349 . S
C782 H776 0.950 . S
C782 C783 1.327 . S
C783 H777 0.950 . S
C783 C782 1.327 . S
C783 C787 1.429 . S
C784 C767 1.574 . S
C784 H778 0.949 . S
C784 C788 1.368 . S
C785 C766 1.429 . S
C785 C779 1.429 . S
C785 C786 1.523 . S
C786 C767 1.368 . S
C786 C780 1.368 . S
C786 C785 1.523 . S
C787 C771 1.429 . S
C787 C783 1.429 . S
C787 C788 1.523 . S
C788 C772 1.368 . S
C788 C784 1.368 . S
C788 C787 1.523 . S
H789 C764 0.950 . S
H790 C766 0.950 . S
H791 C767 0.949 . S
H792 C769 0.950 . S
H793 C771 0.950 . S
C794 C795 1.349 . S
C794 C796 1.327 . S
C794 H819 0.950 . S
C795 C794 1.349 . S
C795 C811 1.349 . S
C796 C794 1.327 . S
C796 C815 1.429 . S
C796 H820 0.950 . S
C797 C814 1.574 . S
C797 C816 1.368 . S
C797 H821 0.949 . S
H798 C802 0.949 . S
C799 C800 1.349 . S
C799 C801 1.327 . S
C799 H822 0.950 . S
C800 C799 1.349 . S
C800 C812 1.349 . S
C801 C799 1.327 . S
C801 C817 1.429 . S
C801 H823 0.950 . S
C802 H798 0.949 . S
C802 C810 1.574 . S
C802 C818 1.368 . S
H803 C811 0.950 . S
H804 C809 0.950 . S
H805 C810 0.949 . S
H806 C812 0.950 . S
H807 C813 0.950 . S
H808 C814 0.949 . S
C809 H804 0.950 . S
C809 C811 1.327 . S
C809 C815 1.429 . S
C810 C802 1.574 . S
C810 H805 0.949 . S
C810 C816 1.368 . S
C811 C795 1.349 . S
C811 H803 0.950 . S
C811 C809 1.327 . S
C812 C800 1.349 . S
C812 H806 0.950 . S
C812 C813 1.327 . S
C813 H807 0.950 . S
C813 C812 1.327 . S
C813 C817 1.429 . S
C814 C797 1.574 . S
C814 H808 0.949 . S
C814 C818 1.368 . S
C815 C796 1.429 . S
C815 C809 1.429 . S
C815 C816 1.523 . S
C816 C797 1.368 . S
C816 C810 1.368 . S
C816 C815 1.523 . S
C817 C801 1.429 . S
C817 C813 1.429 . S
C817 C818 1.523 . S
C818 C802 1.368 . S
C818 C814 1.368 . S
C818 C817 1.523 . S
H819 C794 0.950 . S
H820 C796 0.950 . S
H821 C797 0.949 . S
H822 C799 0.950 . S
H823 C801 0.950 . S
C824 C825 1.349 . S
C824 C826 1.327 . S
C824 H849 0.950 . S
C825 C824 1.349 . S
C825 C841 1.349 . S
C826 C824 1.327 . S
C826 C845 1.429 . S
C826 H850 0.950 . S
C827 C844 1.574 . S
C827 C846 1.368 . S
C827 H851 0.949 . S
H828 C832 0.949 . S
C829 C830 1.349 . S
C829 C831 1.327 . S
C829 H852 0.950 . S
C830 C829 1.349 . S
C830 C842 1.349 . S
C831 C829 1.327 . S
C831 C847 1.429 . S
C831 H853 0.950 . S
C832 H828 0.949 . S
C832 C840 1.574 . S
C832 C848 1.368 . S
H833 C841 0.950 . S
H834 C839 0.950 . S
H835 C840 0.949 . S
H836 C842 0.950 . S
H837 C843 0.950 . S
H838 C844 0.949 . S
C839 H834 0.950 . S
C839 C841 1.327 . S
C839 C845 1.429 . S
C840 C832 1.574 . S
C840 H835 0.949 . S
C840 C846 1.368 . S
C841 C825 1.349 . S
C841 H833 0.950 . S
C841 C839 1.327 . S
C842 C830 1.349 . S
C842 H836 0.950 . S
C842 C843 1.327 . S
C843 H837 0.950 . S
C843 C842 1.327 . S
C843 C847 1.429 . S
C844 C827 1.574 . S
C844 H838 0.949 . S
C844 C848 1.368 . S
C845 C826 1.429 . S
C845 C839 1.429 . S
C845 C846 1.523 . S
C846 C827 1.368 . S
C846 C840 1.368 . S
C846 C845 1.523 . S
C847 C831 1.429 . S
C847 C843 1.429 . S
C847 C848 1.523 . S
C848 C832 1.368 . S
C848 C844 1.368 . S
C848 C847 1.523 . S
H849 C824 0.950 . S
H850 C826 0.950 . S
H851 C827 0.949 . S
H852 C829 0.950 . S
H853 C831 0.950 . S
C854 C855 1.349 . S
C854 C856 1.327 . S
C854 H879 0.950 . S
C855 C854 1.349 . S
C855 C871 1.349 . S
C856 C854 1.327 . S
C856 C875 1.429 . S
C856 H880 0.950 . S
C857 C874 1.574 . S
C857 C876 1.368 . S
C857 H881 0.949 . S
H858 C862 0.949 . S
C859 C860 1.349 . S
C859 C861 1.327 . S
C859 H882 0.950 . S
C860 C859 1.349 . S
C860 C872 1.349 . S
C861 C859 1.327 . S
C861 C877 1.429 . S
C861 H883 0.950 . S
C862 H858 0.949 . S
C862 C870 1.574 . S
C862 C878 1.368 . S
H863 C871 0.950 . S
H864 C869 0.950 . S
H865 C870 0.949 . S
H866 C872 0.950 . S
H867 C873 0.950 . S
H868 C874 0.949 . S
C869 H864 0.950 . S
C869 C871 1.327 . S
C869 C875 1.429 . S
C870 C862 1.574 . S
C870 H865 0.949 . S
C870 C876 1.368 . S
C871 C855 1.349 . S
C871 H863 0.950 . S
C871 C869 1.327 . S
C872 C860 1.349 . S
C872 H866 0.950 . S
C872 C873 1.327 . S
C873 H867 0.950 . S
C873 C872 1.327 . S
C873 C877 1.429 . S
C874 C857 1.574 . S
C874 H868 0.949 . S
C874 C878 1.368 . S
C875 C856 1.429 . S
C875 C869 1.429 . S
C875 C876 1.523 . S
C876 C857 1.368 . S
C876 C870 1.368 . S
C876 C875 1.523 . S
C877 C861 1.429 . S
C877 C873 1.429 . S
C877 C878 1.523 . S
C878 C862 1.368 . S
C878 C874 1.368 . S
C878 C877 1.523 . S
H879 C854 0.950 . S
H880 C856 0.950 . S
H881 C857 0.949 . S
H882 C859 0.950 . S
H883 C861 0.950 . S
C884 C885 1.349 . S
C884 C886 1.327 . S
C884 H909 0.950 . S
C885 C884 1.349 . S
C885 C901 1.349 . S
C886 C884 1.327 . S
C886 C905 1.429 . S
C886 H910 0.950 . S
C887 C904 1.574 . S
C887 C906 1.368 . S
C887 H911 0.949 . S
H888 C892 0.949 . S
C889 C890 1.349 . S
C889 C891 1.327 . S
C889 H912 0.950 . S
C890 C889 1.349 . S
C890 C902 1.349 . S
C891 C889 1.327 . S
C891 C907 1.429 . S
C891 H913 0.950 . S
C892 H888 0.949 . S
C892 C900 1.574 . S
C892 C908 1.368 . S
H893 C901 0.950 . S
H894 C899 0.950 . S
H895 C900 0.949 . S
H896 C902 0.950 . S
H897 C903 0.950 . S
H898 C904 0.949 . S
C899 H894 0.950 . S
C899 C901 1.327 . S
C899 C905 1.429 . S
C900 C892 1.574 . S
C900 H895 0.949 . S
C900 C906 1.368 . S
C901 C885 1.349 . S
C901 H893 0.950 . S
C901 C899 1.327 . S
C902 C890 1.349 . S
C902 H896 0.950 . S
C902 C903 1.327 . S
C903 H897 0.950 . S
C903 C902 1.327 . S
C903 C907 1.429 . S
C904 C887 1.574 . S
C904 H898 0.949 . S
C904 C908 1.368 . S
C905 C886 1.429 . S
C905 C899 1.429 . S
C905 C906 1.523 . S
C906 C887 1.368 . S
C906 C900 1.368 . S
C906 C905 1.523 . S
C907 C891 1.429 . S
C907 C903 1.429 . S
C907 C908 1.523 . S
C908 C892 1.368 . S
C908 C904 1.368 . S
C908 C907 1.523 . S
H909 C884 0.950 . S
H910 C886 0.950 . S
H911 C887 0.949 . S
H912 C889 0.950 . S
H913 C891 0.950 . S
C914 C915 1.349 . S
C914 C916 1.327 . S
C914 H939 0.950 . S
C915 C914 1.349 . S
C915 C931 1.349 . S
C916 C914 1.327 . S
C916 C935 1.429 . S
C916 H940 0.950 . S
C917 C934 1.574 . S
C917 C936 1.368 . S
C917 H941 0.949 . S
H918 C922 0.949 . S
C919 C920 1.349 . S
C919 C921 1.327 . S
C919 H942 0.950 . S
C920 C919 1.349 . S
C920 C932 1.349 . S
C921 C919 1.327 . S
C921 C937 1.429 . S
C921 H943 0.950 . S
C922 H918 0.949 . S
C922 C930 1.574 . S
C922 C938 1.368 . S
H923 C931 0.950 . S
H924 C929 0.950 . S
H925 C930 0.949 . S
H926 C932 0.950 . S
H927 C933 0.950 . S
H928 C934 0.949 . S
C929 H924 0.950 . S
C929 C931 1.327 . S
C929 C935 1.429 . S
C930 C922 1.574 . S
C930 H925 0.949 . S
C930 C936 1.368 . S
C931 C915 1.349 . S
C931 H923 0.950 . S
C931 C929 1.327 . S
C932 C920 1.349 . S
C932 H926 0.950 . S
C932 C933 1.327 . S
C933 H927 0.950 . S
C933 C932 1.327 . S
C933 C937 1.429 . S
C934 C917 1.574 . S
C934 H928 0.949 . S
C934 C938 1.368 . S
C935 C916 1.429 . S
C935 C929 1.429 . S
C935 C936 1.523 . S
C936 C917 1.368 . S
C936 C930 1.368 . S
C936 C935 1.523 . S
C937 C921 1.429 . S
C937 C933 1.429 . S
C937 C938 1.523 . S
C938 C922 1.368 . S
C938 C934 1.368 . S
C938 C937 1.523 . S
H939 C914 0.950 . S
H940 C916 0.950 . S
H941 C917 0.949 . S
H942 C919 0.950 . S
H943 C921 0.950 . S
C944 C945 1.349 . S
C944 C946 1.327 . S
C944 H969 0.950 . S
C945 C944 1.349 . S
C945 C961 1.349 . S
C946 C944 1.327 . S
C946 C965 1.429 1_545 S
C946 H970 0.950 . S
C947 C964 1.574 . S
C947 C966 1.368 . S
C947 H971 0.949 . S
H948 C952 0.949 . S
C949 C950 1.349 . S
C949 C951 1.327 . S
C949 H972 0.950 . S
C950 C949 1.349 . S
C950 C962 1.349 . S
C951 C949 1.327 . S
C951 C967 1.429 . S
C951 H973 0.950 . S
C952 H948 0.949 . S
C952 C960 1.574 . S
C952 C968 1.368 . S
H953 C961 0.950 . S
H954 C959 0.950 . S
H955 C960 0.949 . S
H956 C962 0.950 . S
H957 C963 0.950 . S
H958 C964 0.949 . S
C959 H954 0.950 . S
C959 C961 1.327 1_565 S
C959 C965 1.429 . S
C960 C952 1.574 . S
C960 H955 0.949 . S
C960 C966 1.368 . S
C961 C945 1.349 . S
C961 H953 0.950 . S
C961 C959 1.327 1_545 S
C962 C950 1.349 . S
C962 H956 0.950 . S
C962 C963 1.327 . S
C963 H957 0.950 . S
C963 C962 1.327 . S
C963 C967 1.429 . S
C964 C947 1.574 . S
C964 H958 0.949 . S
C964 C968 1.368 . S
C965 C946 1.429 1_565 S
C965 C959 1.429 . S
C965 C966 1.523 . S
C966 C947 1.368 . S
C966 C960 1.368 . S
C966 C965 1.523 . S
C967 C951 1.429 . S
C967 C963 1.429 . S
C967 C968 1.523 . S
C968 C952 1.368 . S
C968 C964 1.368 . S
C968 C967 1.523 . S
H969 C944 0.950 . S
H970 C946 0.950 . S
H971 C947 0.949 . S
H972 C949 0.950 . S
H973 C951 0.950 . S
C974 C975 1.349 . S
C974 C976 1.327 . S
C974 H999 0.950 . S
C975 C974 1.349 . S
C975 C991 1.349 . S
C976 C974 1.327 . S
C976 C995 1.429 . S
C976 H1000 0.950 . S
C977 C994 1.574 . S
C977 C996 1.368 . S
C977 H1001 0.949 . S
H978 C982 0.949 . S
C979 C980 1.349 . S
C979 C981 1.327 . S
C979 H1002 0.950 . S
C980 C979 1.349 . S
C980 C992 1.349 . S
C981 C979 1.327 . S
C981 C997 1.429 . S
C981 H1003 0.950 . S
C982 H978 0.949 . S
C982 C990 1.574 . S
C982 C998 1.368 . S
H983 C991 0.950 . S
H984 C989 0.950 . S
H985 C990 0.949 . S
H986 C992 0.950 . S
H987 C993 0.950 . S
H988 C994 0.949 . S
C989 H984 0.950 . S
C989 C991 1.327 . S
C989 C995 1.429 . S
C990 C982 1.574 . S
C990 H985 0.949 . S
C990 C996 1.368 . S
C991 C975 1.349 . S
C991 H983 0.950 . S
C991 C989 1.327 . S
C992 C980 1.349 . S
C992 H986 0.950 . S
C992 C993 1.327 . S
C993 H987 0.950 . S
C993 C992 1.327 . S
C993 C997 1.429 . S
C994 C977 1.574 . S
C994 H988 0.949 . S
C994 C998 1.368 . S
C995 C976 1.429 . S
C995 C989 1.429 . S
C995 C996 1.523 . S
C996 C977 1.368 . S
C996 C990 1.368 . S
C996 C995 1.523 . S
C997 C981 1.429 . S
C997 C993 1.429 . S
C997 C998 1.523 . S
C998 C982 1.368 . S
C998 C994 1.368 . S
C998 C997 1.523 . S
H999 C974 0.950 . S
H1000 C976 0.950 . S
H1001 C977 0.949 . S
H1002 C979 0.950 . S
H1003 C981 0.950 . S
C1004 C1005 1.349 . S
C1004 C1006 1.327 . S
C1004 H1029 0.950 . S
C1005 C1004 1.349 . S
C1005 C1021 1.349 . S
C1006 C1004 1.327 . S
C1006 C1025 1.429 . S
C1006 H1030 0.950 . S
C1007 C1024 1.574 . S
C1007 C1026 1.368 . S
C1007 H1031 0.949 . S
H1008 C1012 0.949 . S
C1009 C1010 1.349 . S
C1009 C1011 1.327 1_655 S
C1009 H1032 0.950 . S
C1010 C1009 1.349 . S
C1010 C1022 1.349 . S
C1011 C1009 1.327 1_455 S
C1011 C1027 1.429 . S
C1011 H1033 0.950 . S
C1012 H1008 0.949 . S
C1012 C1020 1.574 . S
C1012 C1028 1.368 . S
H1013 C1021 0.950 . S
H1014 C1019 0.950 . S
H1015 C1020 0.949 . S
H1016 C1022 0.950 . S
H1017 C1023 0.950 . S
H1018 C1024 0.949 . S
C1019 H1014 0.950 . S
C1019 C1021 1.327 . S
C1019 C1025 1.429 . S
C1020 C1012 1.574 . S
C1020 H1015 0.949 . S
C1020 C1026 1.368 . S
C1021 C1005 1.349 . S
C1021 H1013 0.950 . S
C1021 C1019 1.327 . S
C1022 C1010 1.349 . S
C1022 H1016 0.950 . S
C1022 C1023 1.327 . S
C1023 H1017 0.950 . S
C1023 C1022 1.327 . S
C1023 C1027 1.429 1_655 S
C1024 C1007 1.574 . S
C1024 H1018 0.949 . S
C1024 C1028 1.368 . S
C1025 C1006 1.429 . S
C1025 C1019 1.429 . S
C1025 C1026 1.523 . S
C1026 C1007 1.368 . S
C1026 C1020 1.368 . S
C1026 C1025 1.523 . S
C1027 C1011 1.429 . S
C1027 C1023 1.429 1_455 S
C1027 C1028 1.523 . S
C1028 C1012 1.368 . S
C1028 C1024 1.368 . S
C1028 C1027 1.523 . S
H1029 C1004 0.950 . S
H1030 C1006 0.950 . S
H1031 C1007 0.949 . S
H1032 C1009 0.950 . S
H1033 C1011 0.950 . S
C1034 C1035 1.349 . S
C1034 C1036 1.327 1_565 S
C1034 H1059 0.950 . S
C1035 C1034 1.349 . S
C1035 C1051 1.349 . S
C1036 C1034 1.327 1_545 S
C1036 C1055 1.429 . S
C1036 H1060 0.950 . S
C1037 C1054 1.574 . S
C1037 C1056 1.368 . S
C1037 H1061 0.949 . S
H1038 C1042 0.949 . S
C1039 C1040 1.349 . S
C1039 C1041 1.327 . S
C1039 H1062 0.950 . S
C1040 C1039 1.349 . S
C1040 C1052 1.349 . S
C1041 C1039 1.327 . S
C1041 C1057 1.429 1_455 S
C1041 H1063 0.950 . S
C1042 H1038 0.949 . S
C1042 C1050 1.574 . S
C1042 C1058 1.368 . S
H1043 C1051 0.950 . S
H1044 C1049 0.950 . S
H1045 C1050 0.949 . S
H1046 C1052 0.950 . S
H1047 C1053 0.950 . S
H1048 C1054 0.949 . S
C1049 H1044 0.950 . S
C1049 C1051 1.327 . S
C1049 C1055 1.429 1_565 S
C1050 C1042 1.574 . S
C1050 H1045 0.949 . S
C1050 C1056 1.368 . S
C1051 C1035 1.349 . S
C1051 H1043 0.950 . S
C1051 C1049 1.327 . S
C1052 C1040 1.349 . S
C1052 H1046 0.950 . S
C1052 C1053 1.327 1_455 S
C1053 H1047 0.950 . S
C1053 C1052 1.327 1_655 S
C1053 C1057 1.429 . S
C1054 C1037 1.574 . S
C1054 H1048 0.949 . S
C1054 C1058 1.368 . S
C1055 C1036 1.429 . S
C1055 C1049 1.429 1_545 S
C1055 C1056 1.523 . S
C1056 C1037 1.368 . S
C1056 C1050 1.368 . S
C1056 C1055 1.523 . S
C1057 C1041 1.429 1_655 S
C1057 C1053 1.429 . S
C1057 C1058 1.523 . S
C1058 C1042 1.368 . S
C1058 C1054 1.368 . S
C1058 C1057 1.523 . S
H1059 C1034 0.950 . S
H1060 C1036 0.950 . S
H1061 C1037 0.949 . S
H1062 C1039 0.950 . S
H1063 C1041 0.950 . S
C1064 C1065 1.349 . S
C1064 C1066 1.327 . S
C1064 H1089 0.950 . S
C1065 C1064 1.349 . S
C1065 C1081 1.349 . S
C1066 C1064 1.327 . S
C1066 C1085 1.429 . S
C1066 H1090 0.950 . S
C1067 C1084 1.574 . S
C1067 C1086 1.368 . S
C1067 H1091 0.949 . S
H1068 C1072 0.949 . S
C1069 C1070 1.349 . S
C1069 C1071 1.327 . S
C1069 H1092 0.950 . S
C1070 C1069 1.349 . S
C1070 C1082 1.349 . S
C1071 C1069 1.327 . S
C1071 C1087 1.429 . S
C1071 H1093 0.950 . S
C1072 H1068 0.949 . S
C1072 C1080 1.574 . S
C1072 C1088 1.368 . S
H1073 C1081 0.950 . S
H1074 C1079 0.950 . S
H1075 C1080 0.949 . S
H1076 C1082 0.950 . S
H1077 C1083 0.950 . S
H1078 C1084 0.949 . S
C1079 H1074 0.950 . S
C1079 C1081 1.327 . S
C1079 C1085 1.429 . S
C1080 C1072 1.574 . S
C1080 H1075 0.949 . S
C1080 C1086 1.368 . S
C1081 C1065 1.349 . S
C1081 H1073 0.950 . S
C1081 C1079 1.327 . S
C1082 C1070 1.349 . S
C1082 H1076 0.950 . S
C1082 C1083 1.327 . S
C1083 H1077 0.950 . S
C1083 C1082 1.327 . S
C1083 C1087 1.429 . S
C1084 C1067 1.574 . S
C1084 H1078 0.949 . S
C1084 C1088 1.368 . S
C1085 C1066 1.429 . S
C1085 C1079 1.429 . S
C1085 C1086 1.523 . S
C1086 C1067 1.368 . S
C1086 C1080 1.368 . S
C1086 C1085 1.523 . S
C1087 C1071 1.429 . S
C1087 C1083 1.429 . S
C1087 C1088 1.523 . S
C1088 C1072 1.368 . S
C1088 C1084 1.368 . S
C1088 C1087 1.523 . S
H1089 C1064 0.950 . S
H1090 C1066 0.950 . S
H1091 C1067 0.949 . S
H1092 C1069 0.950 . S
H1093 C1071 0.950 . S
C1094 C1095 1.349 . S
C1094 C1096 1.327 1_455 S
C1094 H1119 0.950 . S
C1095 C1094 1.349 . S
C1095 C1111 1.349 . S
C1096 C1094 1.327 1_655 S
C1096 C1115 1.429 . S
C1096 H1120 0.950 . S
C1097 C1114 1.574 . S
C1097 C1116 1.368 . S
C1097 H1121 0.949 . S
H1098 C1102 0.949 . S
C1099 C1100 1.349 . S
C1099 C1101 1.327 . S
C1099 H1122 0.950 . S
C1100 C1099 1.349 . S
C1100 C1112 1.349 . S
C1101 C1099 1.327 . S
C1101 C1117 1.429 . S
C1101 H1123 0.950 . S
C1102 H1098 0.949 . S
C1102 C1110 1.574 . S
C1102 C1118 1.368 . S
H1103 C1111 0.950 . S
H1104 C1109 0.950 . S
H1105 C1110 0.949 . S
H1106 C1112 0.950 . S
H1107 C1113 0.950 . S
H1108 C1114 0.949 . S
C1109 H1104 0.950 . S
C1109 C1111 1.327 . S
C1109 C1115 1.429 1_455 S
C1110 C1102 1.574 . S
C1110 H1105 0.949 . S
C1110 C1116 1.368 . S
C1111 C1095 1.349 . S
C1111 H1103 0.950 . S
C1111 C1109 1.327 . S
C1112 C1100 1.349 . S
C1112 H1106 0.950 . S
C1112 C1113 1.327 . S
C1113 H1107 0.950 . S
C1113 C1112 1.327 . S
C1113 C1117 1.429 . S
C1114 C1097 1.574 . S
C1114 H1108 0.949 . S
C1114 C1118 1.368 . S
C1115 C1096 1.429 . S
C1115 C1109 1.429 1_655 S
C1115 C1116 1.523 . S
C1116 C1097 1.368 . S
C1116 C1110 1.368 . S
C1116 C1115 1.523 . S
C1117 C1101 1.429 . S
C1117 C1113 1.429 . S
C1117 C1118 1.523 . S
C1118 C1102 1.368 . S
C1118 C1114 1.368 . S
C1118 C1117 1.523 . S
H1119 C1094 0.950 . S
H1120 C1096 0.950 . S
H1121 C1097 0.949 . S
H1122 C1099 0.950 . S
H1123 C1101 0.950 . S
C1124 C1125 1.349 . S
C1124 C1126 1.327 1_655 S
C1124 H1149 0.950 . S
C1125 C1124 1.349 . S
C1125 C1141 1.349 . S
C1126 C1124 1.327 1_455 S
C1126 C1145 1.429 . S
C1126 H1150 0.950 . S
C1127 C1144 1.574 . S
C1127 C1146 1.368 . S
C1127 H1151 0.949 . S
H1128 C1132 0.949 . S
C1129 C1130 1.349 . S
C1129 C1131 1.327 . S
C1129 H1152 0.950 . S
C1130 C1129 1.349 . S
C1130 C1142 1.349 . S
C1131 C1129 1.327 . S
C1131 C1147 1.429 1_545 S
C1131 H1153 0.950 . S
C1132 H1128 0.949 . S
C1132 C1140 1.574 . S
C1132 C1148 1.368 . S
H1133 C1141 0.950 . S
H1134 C1139 0.950 . S
H1135 C1140 0.949 . S
H1136 C1142 0.950 . S
H1137 C1143 0.950 . S
H1138 C1144 0.949 . S
C1139 H1134 0.950 . S
C1139 C1141 1.327 . S
C1139 C1145 1.429 1_655 S
C1140 C1132 1.574 . S
C1140 H1135 0.949 . S
C1140 C1146 1.368 . S
C1141 C1125 1.349 . S
C1141 H1133 0.950 . S
C1141 C1139 1.327 . S
C1142 C1130 1.349 . S
C1142 H1136 0.950 . S
C1142 C1143 1.327 1_545 S
C1143 H1137 0.950 . S
C1143 C1142 1.327 1_565 S
C1143 C1147 1.429 . S
C1144 C1127 1.574 . S
C1144 H1138 0.949 . S
C1144 C1148 1.368 . S
C1145 C1126 1.429 . S
C1145 C1139 1.429 1_455 S
C1145 C1146 1.523 . S
C1146 C1127 1.368 . S
C1146 C1140 1.368 . S
C1146 C1145 1.523 . S
C1147 C1131 1.429 1_565 S
C1147 C1143 1.429 . S
C1147 C1148 1.523 . S
C1148 C1132 1.368 . S
C1148 C1144 1.368 . S
C1148 C1147 1.523 . S
H1149 C1124 0.950 . S
H1150 C1126 0.950 . S
H1151 C1127 0.949 . S
H1152 C1129 0.950 . S
H1153 C1131 0.950 . S
C1154 C1155 1.349 . S
C1154 C1156 1.327 1_565 S
C1154 H1179 0.950 . S
C1155 C1154 1.349 . S
C1155 C1171 1.349 . S
C1156 C1154 1.327 1_545 S
C1156 C1175 1.429 . S
C1156 H1180 0.950 . S
C1157 C1174 1.574 . S
C1157 C1176 1.368 . S
C1157 H1181 0.949 . S
H1158 C1162 0.949 . S
C1159 C1160 1.349 . S
C1159 C1161 1.327 . S
C1159 H1182 0.950 . S
C1160 C1159 1.349 . S
C1160 C1172 1.349 . S
C1161 C1159 1.327 . S
C1161 C1177 1.429 . S
C1161 H1183 0.950 . S
C1162 H1158 0.949 . S
C1162 C1170 1.574 . S
C1162 C1178 1.368 . S
H1163 C1171 0.950 . S
H1164 C1169 0.950 . S
H1165 C1170 0.949 . S
H1166 C1172 0.950 . S
H1167 C1173 0.950 . S
H1168 C1174 0.949 . S
C1169 H1164 0.950 . S
C1169 C1171 1.327 . S
C1169 C1175 1.429 1_565 S
C1170 C1162 1.574 . S
C1170 H1165 0.949 . S
C1170 C1176 1.368 . S
C1171 C1155 1.349 . S
C1171 H1163 0.950 . S
C1171 C1169 1.327 . S
C1172 C1160 1.349 . S
C1172 H1166 0.950 . S
C1172 C1173 1.327 . S
C1173 H1167 0.950 . S
C1173 C1172 1.327 . S
C1173 C1177 1.429 . S
C1174 C1157 1.574 . S
C1174 H1168 0.949 . S
C1174 C1178 1.368 . S
C1175 C1156 1.429 . S
C1175 C1169 1.429 1_545 S
C1175 C1176 1.523 . S
C1176 C1157 1.368 . S
C1176 C1170 1.368 . S
C1176 C1175 1.523 . S
C1177 C1161 1.429 . S
C1177 C1173 1.429 . S
C1177 C1178 1.523 . S
C1178 C1162 1.368 . S
C1178 C1174 1.368 . S
C1178 C1177 1.523 . S
H1179 C1154 0.950 . S
H1180 C1156 0.950 . S
H1181 C1157 0.949 . S
H1182 C1159 0.950 . S
H1183 C1161 0.950 . S
C225 C110 1.608 . S
C230 C0 1.608 . S
C255 C57 1.608 . S
C260 C15 1.608 . S
C285 C83 1.608 . S
C290 C29 1.608 . S
C315 C55 1.608 . S
C320 C97 1.608 . S
C345 C223 1.608 . S
C350 C112 1.608 . S
C375 C169 1.608 . S
C380 C126 1.608 . S
C405 C152 1.608 . S
C410 C183 1.608 . S
C435 C166 1.608 . S
C440 C196 1.608 . S
C465 C41 1.394 . S
C470 C12 1.395 . S
C495 C27 1.394 . S
C500 C43 1.394 . S
C525 C69 1.394 . S
C530 C85 1.394 . S
C555 C98 1.395 . S
C560 C71 1.394 . S
C585 C124 1.394 . S
C590 C140 1.394 . S
C615 C138 1.394 . S
C620 C154 1.394 . S
C645 C208 1.394 . S
C650 C181 1.395 . S
C675 C195 1.395 . S
C680 C211 1.395 . S
C705 C96 1.620 . S
C710 C1 1.620 . S
C735 C14 1.620 . S
C740 C111 1.620 . S
C765 C28 1.620 . S
C770 C56 1.620 . S
C795 C54 1.620 . S
C800 C82 1.620 . S
C825 C113 1.620 . S
C830 C197 1.620 . S
C855 C127 1.620 . S
C860 C222 1.620 . S
C885 C153 1.620 . S
C890 C168 1.620 . S
C915 C167 1.620 . S
C920 C182 1.620 . S
C945 C13 1.559 . S
C950 C210 1.559 . S
C975 C180 1.559 . S
C980 C26 1.560 . S
C1005 C40 1.560 . S
C1010 C194 1.559 . S
C1035 C209 1.560 . S
C1040 C42 1.560 . S
C1065 C139 1.560 . S
C1070 C68 1.560 . S
C1095 C70 1.560 . S
C1100 C141 1.560 . S
C1125 C155 1.560 . S
C1130 C84 1.560 . S
C1155 C125 1.560 . S
C1160 C99 1.559 . S
