# Generated by pormake.
# Topology pbp, (3)-cn, num edge types: 1
# Building blocks:
#     Node 0, Type 0, BuildingBlock: WUSLED_clean_sbu_0, # of connection points: 3
#     Node 1, Type 0, BuildingBlock: WUSLED_clean_sbu_0, # of connection points: 3
#     Node 2, Type 0, BuildingBlock: WUSLED_clean_sbu_0, # of connection points: 3
#     Node 3, Type 0, BuildingBlock: WUSLED_clean_sbu_0, # of connection points: 3
#     Node 4, Type 0, BuildingBlock: WUSLED_clean_sbu_0, # of connection points: 3
#     Node 5, Type 0, BuildingBlock: WUSLED_clean_sbu_0, # of connection points: 3
#     Node 6, Type 0, BuildingBlock: WUSLED_clean_sbu_0, # of connection points: 3
#     Node 7, Type 0, BuildingBlock: WUSLED_clean_sbu_0, # of connection points: 3
#     Node 8, Type 0, BuildingBlock: WUSLED_clean_sbu_0, # of connection points: 3
#     Node 9, Type 0, BuildingBlock: WUSLED_clean_sbu_0, # of connection points: 3
#     Node 10, Type 0, BuildingBlock: WUSLED_clean_sbu_0, # of connection points: 3
#     Node 11, Type 0, BuildingBlock: WUSLED_clean_sbu_0, # of connection points: 3
#     Node 12, Type 0, BuildingBlock: WUSLED_clean_sbu_0, # of connection points: 3
#     Node 13, Type 0, BuildingBlock: WUSLED_clean_sbu_0, # of connection points: 3
#     Node 14, Type 0, BuildingBlock: WUSLED_clean_sbu_0, # of connection points: 3
#     Node 15, Type 0, BuildingBlock: WUSLED_clean_sbu_0, # of connection points: 3
#     Node 16, Type 0, BuildingBlock: WUSLED_clean_sbu_0, # of connection points: 3
#     Node 17, Type 0, BuildingBlock: WUSLED_clean_sbu_0, # of connection points: 3
#     Node 18, Type 0, BuildingBlock: WUSLED_clean_sbu_0, # of connection points: 3
#     Node 19, Type 0, BuildingBlock: WUSLED_clean_sbu_0, # of connection points: 3
#     Node 20, Type 0, BuildingBlock: WUSLED_clean_sbu_0, # of connection points: 3
#     Node 21, Type 0, BuildingBlock: WUSLED_clean_sbu_0, # of connection points: 3
#     Node 22, Type 0, BuildingBlock: WUSLED_clean_sbu_0, # of connection points: 3
#     Node 23, Type 0, BuildingBlock: WUSLED_clean_sbu_0, # of connection points: 3
#     Node 24, Type 0, BuildingBlock: WUSLED_clean_sbu_0, # of connection points: 3
#     Node 25, Type 0, BuildingBlock: WUSLED_clean_sbu_0, # of connection points: 3
#     Node 26, Type 0, BuildingBlock: WUSLED_clean_sbu_0, # of connection points: 3
#     Node 27, Type 0, BuildingBlock: WUSLED_clean_sbu_0, # of connection points: 3
#     Node 28, Type 0, BuildingBlock: WUSLED_clean_sbu_0, # of connection points: 3
#     Node 29, Type 0, BuildingBlock: WUSLED_clean_sbu_0, # of connection points: 3
#     Node 30, Type 0, BuildingBlock: WUSLED_clean_sbu_0, # of connection points: 3
#     Node 31, Type 0, BuildingBlock: WUSLED_clean_sbu_0, # of connection points: 3
#     Node 32, Type 0, BuildingBlock: WUSLED_clean_sbu_0, # of connection points: 3
#     Node 33, Type 0, BuildingBlock: WUSLED_clean_sbu_0, # of connection points: 3
#     Node 34, Type 0, BuildingBlock: WUSLED_clean_sbu_0, # of connection points: 3
#     Node 35, Type 0, BuildingBlock: WUSLED_clean_sbu_0, # of connection points: 3
#     Node 36, Type 0, BuildingBlock: WUSLED_clean_sbu_0, # of connection points: 3
#     Node 37, Type 0, BuildingBlock: WUSLED_clean_sbu_0, # of connection points: 3
#     Node 38, Type 0, BuildingBlock: WUSLED_clean_sbu_0, # of connection points: 3
#     Node 39, Type 0, BuildingBlock: WUSLED_clean_sbu_0, # of connection points: 3
#     Node 40, Type 0, BuildingBlock: WUSLED_clean_sbu_0, # of connection points: 3
#     Node 41, Type 0, BuildingBlock: WUSLED_clean_sbu_0, # of connection points: 3
#     Node 42, Type 0, BuildingBlock: WUSLED_clean_sbu_0, # of connection points: 3
#     Node 43, Type 0, BuildingBlock: WUSLED_clean_sbu_0, # of connection points: 3
#     Node 44, Type 0, BuildingBlock: WUSLED_clean_sbu_0, # of connection points: 3
#     Node 45, Type 0, BuildingBlock: WUSLED_clean_sbu_0, # of connection points: 3
#     Node 46, Type 0, BuildingBlock: WUSLED_clean_sbu_0, # of connection points: 3
#     Node 47, Type 0, BuildingBlock: WUSLED_clean_sbu_0, # of connection points: 3
#     Edge 48, Type (0, 0), BuildingBlock: OJICUG_clean_linker_0, # of connection points: 2
#     Edge 49, Type (0, 0), BuildingBlock: OJICUG_clean_linker_0, # of connection points: 2
#     Edge 50, Type (0, 0), BuildingBlock: OJICUG_clean_linker_0, # of connection points: 2
#     Edge 51, Type (0, 0), BuildingBlock: OJICUG_clean_linker_0, # of connection points: 2
#     Edge 52, Type (0, 0), BuildingBlock: OJICUG_clean_linker_0, # of connection points: 2
#     Edge 53, Type (0, 0), BuildingBlock: OJICUG_clean_linker_0, # of connection points: 2
#     Edge 54, Type (0, 0), BuildingBlock: OJICUG_clean_linker_0, # of connection points: 2
#     Edge 55, Type (0, 0), BuildingBlock: OJICUG_clean_linker_0, # of connection points: 2
#     Edge 56, Type (0, 0), BuildingBlock: OJICUG_clean_linker_0, # of connection points: 2
#     Edge 57, Type (0, 0), BuildingBlock: OJICUG_clean_linker_0, # of connection points: 2
#     Edge 58, Type (0, 0), BuildingBlock: OJICUG_clean_linker_0, # of connection points: 2
#     Edge 59, Type (0, 0), BuildingBlock: OJICUG_clean_linker_0, # of connection points: 2
#     Edge 60, Type (0, 0), BuildingBlock: OJICUG_clean_linker_0, # of connection points: 2
#     Edge 61, Type (0, 0), BuildingBlock: OJICUG_clean_linker_0, # of connection points: 2
#     Edge 62, Type (0, 0), BuildingBlock: OJICUG_clean_linker_0, # of connection points: 2
#     Edge 63, Type (0, 0), BuildingBlock: OJICUG_clean_linker_0, # of connection points: 2
#     Edge 64, Type (0, 0), BuildingBlock: OJICUG_clean_linker_0, # of connection points: 2
#     Edge 65, Type (0, 0), BuildingBlock: OJICUG_clean_linker_0, # of connection points: 2
#     Edge 66, Type (0, 0), BuildingBlock: OJICUG_clean_linker_0, # of connection points: 2
#     Edge 67, Type (0, 0), BuildingBlock: OJICUG_clean_linker_0, # of connection points: 2
#     Edge 68, Type (0, 0), BuildingBlock: OJICUG_clean_linker_0, # of connection points: 2
#     Edge 69, Type (0, 0), BuildingBlock: OJICUG_clean_linker_0, # of connection points: 2
#     Edge 70, Type (0, 0), BuildingBlock: OJICUG_clean_linker_0, # of connection points: 2
#     Edge 71, Type (0, 0), BuildingBlock: OJICUG_clean_linker_0, # of connection points: 2
#     Edge 72, Type (0, 0), BuildingBlock: OJICUG_clean_linker_0, # of connection points: 2
#     Edge 73, Type (0, 0), BuildingBlock: OJICUG_clean_linker_0, # of connection points: 2
#     Edge 74, Type (0, 0), BuildingBlock: OJICUG_clean_linker_0, # of connection points: 2
#     Edge 75, Type (0, 0), BuildingBlock: OJICUG_clean_linker_0, # of connection points: 2
#     Edge 76, Type (0, 0), BuildingBlock: OJICUG_clean_linker_0, # of connection points: 2
#     Edge 77, Type (0, 0), BuildingBlock: OJICUG_clean_linker_0, # of connection points: 2
#     Edge 78, Type (0, 0), BuildingBlock: OJICUG_clean_linker_0, # of connection points: 2
#     Edge 79, Type (0, 0), BuildingBlock: OJICUG_clean_linker_0, # of connection points: 2
#     Edge 80, Type (0, 0), BuildingBlock: OJICUG_clean_linker_0, # of connection points: 2
#     Edge 81, Type (0, 0), BuildingBlock: OJICUG_clean_linker_0, # of connection points: 2
#     Edge 82, Type (0, 0), BuildingBlock: OJICUG_clean_linker_0, # of connection points: 2
#     Edge 83, Type (0, 0), BuildingBlock: OJICUG_clean_linker_0, # of connection points: 2
#     Edge 84, Type (0, 0), BuildingBlock: OJICUG_clean_linker_0, # of connection points: 2
#     Edge 85, Type (0, 0), BuildingBlock: OJICUG_clean_linker_0, # of connection points: 2
#     Edge 86, Type (0, 0), BuildingBlock: OJICUG_clean_linker_0, # of connection points: 2
#     Edge 87, Type (0, 0), BuildingBlock: OJICUG_clean_linker_0, # of connection points: 2
#     Edge 88, Type (0, 0), BuildingBlock: OJICUG_clean_linker_0, # of connection points: 2
#     Edge 89, Type (0, 0), BuildingBlock: OJICUG_clean_linker_0, # of connection points: 2
#     Edge 90, Type (0, 0), BuildingBlock: OJICUG_clean_linker_0, # of connection points: 2
#     Edge 91, Type (0, 0), BuildingBlock: OJICUG_clean_linker_0, # of connection points: 2
#     Edge 92, Type (0, 0), BuildingBlock: OJICUG_clean_linker_0, # of connection points: 2
#     Edge 93, Type (0, 0), BuildingBlock: OJICUG_clean_linker_0, # of connection points: 2
#     Edge 94, Type (0, 0), BuildingBlock: OJICUG_clean_linker_0, # of connection points: 2
#     Edge 95, Type (0, 0), BuildingBlock: OJICUG_clean_linker_0, # of connection points: 2
#     Edge 96, Type (0, 0), BuildingBlock: OJICUG_clean_linker_0, # of connection points: 2
#     Edge 97, Type (0, 0), BuildingBlock: OJICUG_clean_linker_0, # of connection points: 2
#     Edge 98, Type (0, 0), BuildingBlock: OJICUG_clean_linker_0, # of connection points: 2
#     Edge 99, Type (0, 0), BuildingBlock: OJICUG_clean_linker_0, # of connection points: 2
#     Edge 100, Type (0, 0), BuildingBlock: OJICUG_clean_linker_0, # of connection points: 2
#     Edge 101, Type (0, 0), BuildingBlock: OJICUG_clean_linker_0, # of connection points: 2
#     Edge 102, Type (0, 0), BuildingBlock: OJICUG_clean_linker_0, # of connection points: 2
#     Edge 103, Type (0, 0), BuildingBlock: OJICUG_clean_linker_0, # of connection points: 2
#     Edge 104, Type (0, 0), BuildingBlock: OJICUG_clean_linker_0, # of connection points: 2
#     Edge 105, Type (0, 0), BuildingBlock: OJICUG_clean_linker_0, # of connection points: 2
#     Edge 106, Type (0, 0), BuildingBlock: OJICUG_clean_linker_0, # of connection points: 2
#     Edge 107, Type (0, 0), BuildingBlock: OJICUG_clean_linker_0, # of connection points: 2
#     Edge 108, Type (0, 0), BuildingBlock: OJICUG_clean_linker_0, # of connection points: 2
#     Edge 109, Type (0, 0), BuildingBlock: OJICUG_clean_linker_0, # of connection points: 2
#     Edge 110, Type (0, 0), BuildingBlock: OJICUG_clean_linker_0, # of connection points: 2
#     Edge 111, Type (0, 0), BuildingBlock: OJICUG_clean_linker_0, # of connection points: 2
#     Edge 112, Type (0, 0), BuildingBlock: OJICUG_clean_linker_0, # of connection points: 2
#     Edge 113, Type (0, 0), BuildingBlock: OJICUG_clean_linker_0, # of connection points: 2
#     Edge 114, Type (0, 0), BuildingBlock: OJICUG_clean_linker_0, # of connection points: 2
#     Edge 115, Type (0, 0), BuildingBlock: OJICUG_clean_linker_0, # of connection points: 2
#     Edge 116, Type (0, 0), BuildingBlock: OJICUG_clean_linker_0, # of connection points: 2
#     Edge 117, Type (0, 0), BuildingBlock: OJICUG_clean_linker_0, # of connection points: 2
#     Edge 118, Type (0, 0), BuildingBlock: OJICUG_clean_linker_0, # of connection points: 2
#     Edge 119, Type (0, 0), BuildingBlock: OJICUG_clean_linker_0, # of connection points: 2
# Relax obj value: 0.000
# Max RMSD: 0.008
# Mean RMSD: 0.006
data_MOF--net-pbp--node1-WUSLED_clean_sbu_0--edge1-OJICUG_clean_linker_0
_symmetry_space_group_name_H-M    P1
_symmetry_Int_Tables_number       1
_symmetry_cell_setting            triclinic
loop_
_symmetry_equiv_pos_as_xyz
'x, y, z'
_cell_length_a     102.59881
_cell_length_b     102.69077
_cell_length_c     102.73921
_cell_angle_alpha  90.027577
_cell_angle_beta   90.073038
_cell_angle_gamma 90.565428
loop_
_atom_site_label
_atom_site_type_symbol
_atom_site_fract_x
_atom_site_fract_y
_atom_site_fract_z
_atom_type_partial_charge
C0 C 0.12666 0.30269 0.35421 0.0
C1 C 0.13982 0.30645 0.35527 0.0
C2 C 0.14392 0.28832 0.37008 0.0
C3 C 0.14837 0.29933 0.36313 0.0
C4 C 0.13077 0.28449 0.36872 0.0
C5 C 0.12225 0.29161 0.36089 0.0
U6 U 0.11804 0.32919 0.32924 0.0
O7 O 0.10273 0.3292 0.3142 0.0
O8 O 0.10234 0.34366 0.32991 0.0
C9 C 0.09625 0.33866 0.31979 0.0
C10 C 0.11729 0.31032 0.34653 0.0
C11 C 0.0821 0.3365 0.32136 0.0
C12 C 0.06361 0.32389 0.32947 0.0
C13 C 0.07712 0.32569 0.32815 0.0
C14 C 0.05994 0.34371 0.31731 0.0
C15 C 0.05484 0.3329 0.32407 0.0
C16 C 0.07342 0.34548 0.31597 0.0
C17 C 0.14592 0.34889 0.31287 0.0
C18 C 0.14554 0.36119 0.29261 0.0
C19 C 0.16299 0.36478 0.30812 0.0
C20 C 0.15744 0.35546 0.31639 0.0
C21 C 0.15716 0.36775 0.29609 0.0
C22 C 0.13994 0.35188 0.30095 0.0
C23 C 0.14067 0.33875 0.32168 0.0
O24 O 0.11648 0.32272 0.34958 0.0
O25 O 0.11728 0.30825 0.33391 0.0
O26 O 0.13499 0.32861 0.31617 0.0
O27 O 0.13447 0.34292 0.33203 0.0
H28 H 0.14341 0.31499 0.35017 0.0
H29 H 0.15839 0.30263 0.36401 0.0
H30 H 0.12704 0.27596 0.37372 0.0
H31 H 0.11215 0.28851 0.36015 0.0
H32 H 0.06005 0.31554 0.33487 0.0
H33 H 0.08367 0.31868 0.33243 0.0
H34 H 0.05352 0.35075 0.31287 0.0
H35 H 0.07708 0.35388 0.31068 0.0
H36 H 0.14071 0.36334 0.28349 0.0
H37 H 0.17203 0.36949 0.31105 0.0
H38 H 0.16225 0.35326 0.32552 0.0
H39 H 0.131 0.34698 0.29804 0.0
C40 C 0.69157 0.12336 0.30189 0.0
C41 C 0.696 0.13612 0.29951 0.0
C42 C 0.67638 0.14064 0.28683 0.0
C43 C 0.68849 0.14468 0.29203 0.0
C44 C 0.67197 0.12787 0.28942 0.0
C45 C 0.67949 0.11934 0.29684 0.0
U46 U 0.71784 0.11486 0.32724 0.0
O47 O 0.71736 0.09984 0.34258 0.0
O48 O 0.73213 0.09902 0.32717 0.0
C49 C 0.72687 0.09319 0.3373 0.0
C50 C 0.69929 0.11404 0.30956 0.0
C51 C 0.72482 0.07893 0.33636 0.0
C52 C 0.72141 0.05899 0.32387 0.0
C53 C 0.72256 0.07262 0.32441 0.0
C54 C 0.72449 0.05787 0.3472 0.0
C55 C 0.72242 0.05143 0.33526 0.0
C56 C 0.72569 0.07144 0.34772 0.0
C57 C 0.73688 0.14249 0.34456 0.0
C58 C 0.74785 0.1417 0.36557 0.0
C59 C 0.75227 0.15957 0.35081 0.0
C60 C 0.74357 0.15413 0.34177 0.0
C61 C 0.75442 0.1535 0.36289 0.0
C62 C 0.73919 0.13622 0.35648 0.0
C63 C 0.72717 0.13746 0.33514 0.0
O64 O 0.71176 0.11337 0.30673 0.0
O65 O 0.69699 0.11389 0.32214 0.0
O66 O 0.71669 0.13192 0.34009 0.0
O67 O 0.7318 0.1312 0.32501 0.0
H68 H 0.70529 0.13943 0.30336 0.0
H69 H 0.69226 0.15438 0.29016 0.0
H70 H 0.66261 0.12447 0.28584 0.0
H71 H 0.67585 0.10957 0.29865 0.0
H72 H 0.71969 0.05438 0.31453 0.0
H73 H 0.72181 0.07819 0.31549 0.0
H74 H 0.72553 0.0524 0.35614 0.0
H75 H 0.7275 0.07608 0.35703 0.0
H76 H 0.7494 0.13668 0.37471 0.0
H77 H 0.75704 0.16872 0.34847 0.0
H78 H 0.7419 0.15915 0.33265 0.0
H79 H 0.7342 0.12718 0.35882 0.0
C80 C 0.92382 0.747 0.35395 0.0
C81 C 0.91086 0.7469 0.34958 0.0
C82 C 0.90476 0.76181 0.36702 0.0
C83 C 0.90142 0.75425 0.35604 0.0
C84 C 0.91775 0.76172 0.37143 0.0
C85 C 0.92719 0.7544 0.36494 0.0
U86 U 0.93416 0.72212 0.32835 0.0
O87 O 0.95043 0.72273 0.31443 0.0
O88 O 0.94943 0.70718 0.32902 0.0
C89 C 0.95627 0.71268 0.31967 0.0
C90 C 0.93395 0.73961 0.34705 0.0
C91 C 0.97037 0.71424 0.32211 0.0
C92 C 0.98884 0.72587 0.33164 0.0
C93 C 0.97534 0.72441 0.32984 0.0
C94 C 0.99249 0.70694 0.31812 0.0
C95 C 0.99761 0.71716 0.32576 0.0
C96 C 0.97903 0.70551 0.31632 0.0
C97 C 0.90674 0.70547 0.3079 0.0
C98 C 0.90334 0.68382 0.29864 0.0
C99 C 0.89231 0.70233 0.2893 0.0
C100 C 0.89824 0.71051 0.29849 0.0
C101 C 0.89467 0.68886 0.28932 0.0
C102 C 0.90933 0.69204 0.30783 0.0
C103 C 0.9119 0.71431 0.31813 0.0
O104 O 0.93401 0.72701 0.34924 0.0
O105 O 0.93549 0.74255 0.33469 0.0
O106 O 0.91832 0.72468 0.31409 0.0
O107 O 0.91712 0.70893 0.32849 0.0
H108 H 0.90806 0.74118 0.34114 0.0
H109 H 0.89148 0.75394 0.35247 0.0
H110 H 0.92071 0.76754 0.37974 0.0
H111 H 0.93715 0.75462 0.36844 0.0
H112 H 0.9924 0.73376 0.33771 0.0
H113 H 0.9688 0.73124 0.33442 0.0
H114 H 0.9989 0.70016 0.31329 0.0
H115 H 0.97538 0.69763 0.31027 0.0
H116 H 0.90549 0.67352 0.29886 0.0
H117 H 0.88555 0.70654 0.28242 0.0
H118 H 0.89596 0.72079 0.29842 0.0
H119 H 0.91583 0.68785 0.31497 0.0
C120 C 0.3057 0.92158 0.35391 0.0
C121 C 0.30616 0.90849 0.35001 0.0
C122 C 0.29083 0.90243 0.36718 0.0
C123 C 0.29877 0.89901 0.35656 0.0
C124 C 0.29057 0.91556 0.37114 0.0
C125 C 0.29792 0.92502 0.36454 0.0
U126 U 0.33181 0.9322 0.32942 0.0
O127 O 0.33142 0.94778 0.31467 0.0
O128 O 0.34603 0.94838 0.33028 0.0
C129 C 0.3407 0.95457 0.32044 0.0
C130 C 0.31311 0.93175 0.3469 0.0
C131 C 0.3383 0.96872 0.32208 0.0
C132 C 0.33292 0.98958 0.31221 0.0
C133 C 0.3344 0.97608 0.31126 0.0
C134 C 0.33917 0.98873 0.3349 0.0
C135 C 0.3354 0.99612 0.32401 0.0
C136 C 0.3406 0.97519 0.33396 0.0
C137 C 0.35106 0.90477 0.31209 0.0
C138 C 0.36436 0.90627 0.29252 0.0
C139 C 0.36464 0.88663 0.30556 0.0
C140 C 0.35579 0.89219 0.31422 0.0
C141 C 0.36896 0.89352 0.29451 0.0
C142 C 0.35548 0.91184 0.30123 0.0
C143 C 0.34125 0.90995 0.32115 0.0
O144 O 0.32552 0.93279 0.34992 0.0
O145 O 0.31095 0.93241 0.3343 0.0
O146 O 0.33107 0.91559 0.3159 0.0
O147 O 0.34574 0.91611 0.33146 0.0
H148 H 0.31218 0.90563 0.34185 0.0
H149 H 0.29934 0.88898 0.35336 0.0
H150 H 0.28446 0.91857 0.37916 0.0
H151 H 0.29743 0.93508 0.36769 0.0
H152 H 0.33019 0.99494 0.30357 0.0
H153 H 0.33271 0.97139 0.30194 0.0
H154 H 0.34104 0.99341 0.34417 0.0
H155 H 0.34365 0.96984 0.3425 0.0
H156 H 0.36742 0.91183 0.28409 0.0
H157 H 0.36814 0.87692 0.30756 0.0
H158 H 0.35254 0.88659 0.32257 0.0
H159 H 0.35194 0.92157 0.29942 0.0
C160 C 0.12634 0.69282 0.74434 0.0
C161 C 0.13926 0.69158 0.74008 0.0
C162 C 0.14422 0.67768 0.7587 0.0
C163 C 0.14811 0.68405 0.74717 0.0
C164 C 0.13128 0.67912 0.76297 0.0
C165 C 0.12244 0.6866 0.75585 0.0
U166 U 0.11734 0.71791 0.71822 0.0
O167 O 0.10154 0.71737 0.70369 0.0
O168 O 0.10214 0.73289 0.71835 0.0
C169 C 0.09555 0.72741 0.70879 0.0
C170 C 0.11672 0.70035 0.73684 0.0
C171 C 0.0814 0.72578 0.71087 0.0
C172 C 0.06293 0.71745 0.72328 0.0
C173 C 0.07644 0.71878 0.72152 0.0
C174 C 0.05923 0.73006 0.70374 0.0
C175 C 0.05413 0.7231 0.71442 0.0
C176 C 0.07271 0.73137 0.702 0.0
C177 C 0.14548 0.73476 0.69928 0.0
C178 C 0.14405 0.75396 0.68546 0.0
C179 C 0.16396 0.7415 0.68602 0.0
C180 C 0.15827 0.7329 0.69494 0.0
C181 C 0.15698 0.75222 0.68123 0.0
C182 C 0.13835 0.7453 0.69442 0.0
C183 C 0.14005 0.72574 0.70908 0.0
O184 O 0.11662 0.71295 0.73909 0.0
O185 O 0.11579 0.69746 0.72441 0.0
O186 O 0.13371 0.71551 0.70457 0.0
O187 O 0.13435 0.73109 0.71919 0.0
H188 H 0.14248 0.69637 0.73124 0.0
H189 H 0.15803 0.68328 0.74368 0.0
H190 H 0.12788 0.67424 0.77169 0.0
H191 H 0.1125 0.68742 0.75929 0.0
H192 H 0.05938 0.71216 0.7317 0.0
H193 H 0.083 0.71438 0.72849 0.0
H194 H 0.05281 0.73436 0.6966 0.0
H195 H 0.07635 0.73676 0.69368 0.0
H196 H 0.13842 0.76215 0.68206 0.0
H197 H 0.17382 0.73969 0.68281 0.0
H198 H 0.16391 0.72479 0.69853 0.0
H199 H 0.12844 0.74691 0.69765 0.0
C200 C 0.30388 0.12668 0.69191 0.0
C201 C 0.30593 0.13998 0.6944 0.0
C202 C 0.28878 0.14561 0.67893 0.0
C203 C 0.29846 0.14935 0.68798 0.0
C204 C 0.2869 0.13224 0.67639 0.0
C205 C 0.29438 0.12289 0.68282 0.0
U206 U 0.32981 0.11682 0.71669 0.0
O207 O 0.32942 0.10126 0.73149 0.0
O208 O 0.34426 0.10112 0.71611 0.0
C209 C 0.33895 0.09484 0.72596 0.0
C210 C 0.31135 0.11667 0.69891 0.0
C211 C 0.33699 0.08057 0.72453 0.0
C212 C 0.33402 0.05944 0.73494 0.0
C213 C 0.33498 0.07302 0.73574 0.0
C214 C 0.33694 0.06063 0.71161 0.0
C215 C 0.3351 0.05303 0.72288 0.0
C216 C 0.33786 0.07426 0.71241 0.0
C217 C 0.34821 0.14474 0.73467 0.0
C218 C 0.36092 0.1433 0.75463 0.0
C219 C 0.36084 0.16339 0.74231 0.0
C220 C 0.35251 0.15763 0.73314 0.0
C221 C 0.36507 0.15636 0.75326 0.0
C222 C 0.35257 0.13753 0.74541 0.0
C223 C 0.33872 0.13936 0.72524 0.0
O224 O 0.32382 0.11611 0.6961 0.0
O225 O 0.30902 0.11584 0.71145 0.0
O226 O 0.32847 0.13338 0.73017 0.0
O227 O 0.34356 0.13338 0.71505 0.0
H228 H 0.31326 0.1431 0.70138 0.0
H229 H 0.3003 0.15954 0.69007 0.0
H230 H 0.27944 0.12896 0.66965 0.0
H231 H 0.29263 0.11266 0.6808 0.0
H232 H 0.3328 0.05394 0.74385 0.0
H233 H 0.33441 0.07762 0.74521 0.0
H234 H 0.33768 0.05605 0.70214 0.0
H235 H 0.3394 0.0798 0.70358 0.0
H236 H 0.36409 0.13754 0.76286 0.0
H237 H 0.36363 0.1735 0.741 0.0
H238 H 0.3492 0.16338 0.72495 0.0
H239 H 0.34939 0.12753 0.74675 0.0
C240 C 0.92535 0.35543 0.74582 0.0
C241 C 0.91206 0.35207 0.74539 0.0
C242 C 0.90718 0.3691 0.76123 0.0
C243 C 0.90305 0.35886 0.75302 0.0
C244 C 0.92051 0.3725 0.76143 0.0
C245 C 0.92948 0.36573 0.75381 0.0
U246 U 0.93475 0.32942 0.72077 0.0
O247 O 0.95016 0.32972 0.70587 0.0
O248 O 0.95062 0.31514 0.72145 0.0
C249 C 0.9567 0.32026 0.7114 0.0
C250 C 0.93507 0.34814 0.73826 0.0
C251 C 0.97083 0.32248 0.71303 0.0
C252 C 0.98927 0.33474 0.72181 0.0
C253 C 0.97577 0.33291 0.72044 0.0
C254 C 0.99302 0.31574 0.70842 0.0
C255 C 0.99809 0.32618 0.7158 0.0
C256 C 0.97955 0.31393 0.70706 0.0
C257 C 0.90703 0.30942 0.70408 0.0
C258 C 0.90368 0.30021 0.68243 0.0
C259 C 0.89241 0.29086 0.70092 0.0
C260 C 0.89838 0.30003 0.70911 0.0
C261 C 0.89488 0.29089 0.68745 0.0
C262 C 0.90971 0.30937 0.69065 0.0
C263 C 0.9123 0.3196 0.71293 0.0
O264 O 0.9361 0.33574 0.74119 0.0
O265 O 0.93518 0.35032 0.72565 0.0
O266 O 0.91785 0.32988 0.70758 0.0
O267 O 0.91848 0.31547 0.72334 0.0
H268 H 0.90868 0.34412 0.73929 0.0
H269 H 0.89291 0.35587 0.75272 0.0
H270 H 0.92403 0.38045 0.76746 0.0
H271 H 0.9397 0.36849 0.75422 0.0
H272 H 0.9928 0.34297 0.72745 0.0
H273 H 0.96918 0.33963 0.72512 0.0
H274 H 0.99946 0.30882 0.70383 0.0
H275 H 0.97593 0.30578 0.70136 0.0
H276 H 0.90591 0.30043 0.67213 0.0
H277 H 0.88555 0.28397 0.70512 0.0
H278 H 0.89603 0.29993 0.71938 0.0
H279 H 0.91633 0.3165 0.68646 0.0
C280 C 0.69532 0.9219 0.74479 0.0
C281 C 0.69463 0.90887 0.7407 0.0
C282 C 0.682 0.90307 0.76004 0.0
C283 C 0.68801 0.89955 0.74823 0.0
C284 C 0.68279 0.91617 0.76407 0.0
C285 C 0.68937 0.92547 0.75651 0.0
U286 U 0.71945 0.93181 0.71807 0.0
O287 O 0.71802 0.9471 0.70309 0.0
O288 O 0.73383 0.94783 0.7175 0.0
C289 C 0.72791 0.9538 0.70786 0.0
C290 C 0.70221 0.93187 0.73699 0.0
C291 C 0.72599 0.968 0.70924 0.0
C292 C 0.72318 0.98757 0.72235 0.0
C293 C 0.72433 0.97399 0.72143 0.0
C294 C 0.72511 0.9893 0.69893 0.0
C295 C 0.7236 0.99542 0.7111 0.0
C296 C 0.72629 0.97578 0.69804 0.0
C297 C 0.73686 0.90404 0.69948 0.0
C298 C 0.75626 0.90552 0.68591 0.0
C299 C 0.7432 0.88576 0.68591 0.0
C300 C 0.73466 0.89137 0.69485 0.0
C301 C 0.75419 0.8927 0.68139 0.0
C302 C 0.74767 0.91114 0.69488 0.0
C303 C 0.72791 0.90933 0.70935 0.0
O304 O 0.71483 0.93285 0.73899 0.0
O305 O 0.69905 0.93234 0.7246 0.0
O306 O 0.71734 0.91495 0.70491 0.0
O307 O 0.73328 0.91561 0.71917 0.0
H308 H 0.69917 0.90591 0.73167 0.0
H309 H 0.6875 0.88961 0.74473 0.0
H310 H 0.67851 0.91922 0.77318 0.0
H311 H 0.68986 0.93547 0.75986 0.0
H312 H 0.72191 0.99193 0.73186 0.0
H313 H 0.72401 0.9682 0.73023 0.0
H314 H 0.72568 0.995 0.69008 0.0
H315 H 0.72763 0.97138 0.68854 0.0
H316 H 0.76467 0.91113 0.68272 0.0
H317 H 0.74112 0.87598 0.68248 0.0
H318 H 0.72634 0.88574 0.69824 0.0
H319 H 0.74955 0.92096 0.69833 0.0
C320 C 0.30315 0.12717 0.35477 0.0
C321 C 0.30195 0.13981 0.34974 0.0
C322 C 0.28837 0.14605 0.3682 0.0
C323 C 0.29461 0.14914 0.35636 0.0
C324 C 0.28982 0.1334 0.37328 0.0
C325 C 0.29712 0.12407 0.36662 0.0
U326 U 0.32781 0.11677 0.32892 0.0
O327 O 0.34244 0.10122 0.3292 0.0
O328 O 0.32674 0.10075 0.31466 0.0
C329 C 0.33665 0.09459 0.31984 0.0
C330 C 0.31041 0.11706 0.34769 0.0
C331 C 0.33496 0.08033 0.32172 0.0
C332 C 0.33064 0.05903 0.31209 0.0
C333 C 0.33134 0.0726 0.31101 0.0
C334 C 0.33706 0.06057 0.33471 0.0
C335 C 0.33361 0.0528 0.32391 0.0
C336 C 0.33771 0.07419 0.33363 0.0
C337 C 0.34474 0.14414 0.30873 0.0
C338 C 0.3663 0.14703 0.29912 0.0
C339 C 0.34798 0.15892 0.29047 0.0
C340 C 0.3398 0.15304 0.29967 0.0
C341 C 0.36137 0.15609 0.29014 0.0
C342 C 0.35807 0.14109 0.30832 0.0
C343 C 0.33593 0.139 0.31897 0.0
O344 O 0.30739 0.11568 0.33532 0.0
O345 O 0.32304 0.11678 0.34985 0.0
O346 O 0.34133 0.13354 0.32919 0.0
O347 O 0.32539 0.13283 0.31493 0.0
H348 H 0.30655 0.1424 0.3406 0.0
H349 H 0.29361 0.1587 0.35206 0.0
H350 H 0.28537 0.1307 0.38245 0.0
H351 H 0.29799 0.11439 0.3707 0.0
H352 H 0.32815 0.0534 0.30351 0.0
H353 H 0.32931 0.07705 0.30168 0.0
H354 H 0.33928 0.05613 0.34399 0.0
H355 H 0.34055 0.07986 0.34208 0.0
H356 H 0.37653 0.14452 0.29906 0.0
H357 H 0.34386 0.16599 0.28386 0.0
H358 H 0.32959 0.15567 0.29987 0.0
H359 H 0.36219 0.13427 0.31519 0.0
C360 C 0.92437 0.35451 0.30136 0.0
C361 C 0.9113 0.35039 0.3018 0.0
C362 C 0.90519 0.36775 0.28681 0.0
C363 C 0.9018 0.35694 0.29458 0.0
C364 C 0.9183 0.37193 0.28658 0.0
C365 C 0.92778 0.36535 0.29377 0.0
U366 U 0.93508 0.32912 0.32636 0.0
O367 O 0.95087 0.31477 0.32533 0.0
O368 O 0.95111 0.32969 0.34061 0.0
C369 C 0.95737 0.32007 0.33504 0.0
C370 C 0.93458 0.34746 0.30852 0.0
C371 C 0.97146 0.32214 0.33291 0.0
C372 C 0.98976 0.33472 0.32433 0.0
C373 C 0.97628 0.33294 0.326 0.0
C374 C 0.99369 0.31487 0.33638 0.0
C375 C 0.99865 0.3257 0.32952 0.0
C376 C 0.98026 0.31313 0.33804 0.0
C377 C 0.90803 0.30978 0.34489 0.0
C378 C 0.89675 0.30484 0.36521 0.0
C379 C 0.90111 0.28754 0.34989 0.0
C380 C 0.90719 0.29651 0.34155 0.0
C381 C 0.89563 0.29161 0.36175 0.0
C382 C 0.90282 0.3138 0.35687 0.0
C383 C 0.91297 0.31964 0.33546 0.0
O384 O 0.93536 0.34991 0.32105 0.0
O385 O 0.93551 0.335 0.30579 0.0
O386 O 0.91862 0.3153 0.32484 0.0
O387 O 0.91882 0.33001 0.34033 0.0
H388 H 0.90846 0.34207 0.30766 0.0
H389 H 0.89178 0.35356 0.29513 0.0
H390 H 0.9213 0.38011 0.2806 0.0
H391 H 0.93783 0.36866 0.29329 0.0
H392 H 0.9932 0.34308 0.31887 0.0
H393 H 0.96963 0.33998 0.32191 0.0
H394 H 1.0002 0.30784 0.34067 0.0
H395 H 0.97672 0.30475 0.34344 0.0
H396 H 0.8928 0.30831 0.37433 0.0
H397 H 0.90027 0.27749 0.34678 0.0
H398 H 0.91091 0.29306 0.33232 0.0
H399 H 0.90315 0.32397 0.35968 0.0
C400 C 0.69498 0.92168 0.30184 0.0
C401 C 0.69754 0.90837 0.30335 0.0
C402 C 0.68181 0.90302 0.28624 0.0
C403 C 0.69102 0.89912 0.29562 0.0
C404 C 0.67925 0.91639 0.28487 0.0
C405 C 0.68577 0.92562 0.29259 0.0
U406 U 0.71922 0.93129 0.3286 0.0
O407 O 0.73355 0.94735 0.32935 0.0
O408 O 0.71781 0.94641 0.34378 0.0
C409 C 0.72765 0.9532 0.33906 0.0
C410 C 0.70184 0.93156 0.30977 0.0
C411 C 0.72561 0.96738 0.33776 0.0
C412 C 0.72196 0.98687 0.32477 0.0
C413 C 0.72326 0.9733 0.32566 0.0
C414 C 0.72509 0.9887 0.34806 0.0
C415 C 0.7229 0.99475 0.33597 0.0
C416 C 0.72644 0.97519 0.34892 0.0
C417 C 0.7369 0.90348 0.34681 0.0
C418 C 0.75616 0.90519 0.3606 0.0
C419 C 0.74355 0.88515 0.36015 0.0
C420 C 0.73496 0.89069 0.35121 0.0
C421 C 0.75434 0.89227 0.36491 0.0
C422 C 0.74752 0.91075 0.35163 0.0
C423 C 0.72785 0.90876 0.33701 0.0
O424 O 0.69875 0.93176 0.32218 0.0
O425 O 0.71445 0.93263 0.30775 0.0
O426 O 0.73312 0.91517 0.32724 0.0
O427 O 0.71728 0.91427 0.34155 0.0
H428 H 0.70459 0.90515 0.31049 0.0
H429 H 0.69314 0.88892 0.29707 0.0
H430 H 0.67238 0.91978 0.27764 0.0
H431 H 0.68369 0.93586 0.29128 0.0
H432 H 0.72016 0.99118 0.31533 0.0
H433 H 0.72252 0.96747 0.3169 0.0
H434 H 0.72608 0.99444 0.35686 0.0
H435 H 0.7283 0.97084 0.35834 0.0
H436 H 0.76441 0.91094 0.36397 0.0
H437 H 0.74166 0.87528 0.36342 0.0
H438 H 0.72678 0.88494 0.34765 0.0
H439 H 0.74919 0.92066 0.34837 0.0
C440 C 0.12609 0.6916 0.30322 0.0
C441 C 0.1384 0.69645 0.29952 0.0
C442 C 0.14361 0.67567 0.28928 0.0
C443 C 0.14705 0.68857 0.29257 0.0
C444 C 0.13129 0.67088 0.2931 0.0
C445 C 0.12264 0.67876 0.29996 0.0
U446 U 0.11715 0.71847 0.32772 0.0
O447 O 0.10177 0.73327 0.32662 0.0
O448 O 0.10142 0.71875 0.34227 0.0
C449 C 0.09531 0.72839 0.33656 0.0
C450 C 0.11661 0.69969 0.31032 0.0
C451 C 0.08116 0.72656 0.33465 0.0
C452 C 0.06258 0.71477 0.32555 0.0
C453 C 0.0761 0.71632 0.32707 0.0
C454 C 0.05907 0.73369 0.33912 0.0
C455 C 0.05388 0.72344 0.33156 0.0
C456 C 0.07256 0.73522 0.34064 0.0
C457 C 0.14492 0.73698 0.34571 0.0
C458 C 0.14517 0.74738 0.36703 0.0
C459 C 0.16194 0.75269 0.35131 0.0
C460 C 0.15616 0.7441 0.34238 0.0
C461 C 0.15665 0.75432 0.36383 0.0
C462 C 0.13936 0.73881 0.35806 0.0
C463 C 0.13971 0.72725 0.33639 0.0
O464 O 0.11579 0.69758 0.32291 0.0
O465 O 0.11635 0.71212 0.30727 0.0
O466 O 0.13402 0.73185 0.32591 0.0
O467 O 0.13359 0.7171 0.34137 0.0
H468 H 0.14131 0.70631 0.302 0.0
H469 H 0.1565 0.69253 0.2899 0.0
H470 H 0.12824 0.66106 0.29059 0.0
H471 H 0.11319 0.67484 0.30269 0.0
H472 H 0.05895 0.70686 0.31954 0.0
H473 H 0.0826 0.70956 0.32233 0.0
H474 H 0.05271 0.74045 0.34404 0.0
H475 H 0.07628 0.74316 0.34656 0.0
H476 H 0.14086 0.74828 0.3766 0.0
H477 H 0.1706 0.75803 0.34838 0.0
H478 H 0.1606 0.74287 0.3329 0.0
H479 H 0.13067 0.73344 0.36088 0.0
C480 C 0.30552 0.92215 0.6931 0.0
C481 C 0.3071 0.90887 0.69581 0.0
C482 C 0.29023 0.90321 0.67992 0.0
C483 C 0.29953 0.89948 0.68929 0.0
C484 C 0.28883 0.91655 0.67717 0.0
C485 C 0.2964 0.92591 0.6837 0.0
U486 U 0.33198 0.93246 0.71749 0.0
O487 O 0.34625 0.94858 0.71661 0.0
O488 O 0.33178 0.94799 0.73232 0.0
C489 C 0.34107 0.95474 0.72654 0.0
C490 C 0.3131 0.9322 0.70013 0.0
C491 C 0.33878 0.96891 0.72504 0.0
C492 C 0.33526 0.98998 0.73529 0.0
C493 C 0.33663 0.97647 0.7362 0.0
C494 C 0.33807 0.98871 0.71195 0.0
C495 C 0.33607 0.99632 0.72317 0.0
C496 C 0.33939 0.97515 0.71286 0.0
C497 C 0.35126 0.90497 0.73468 0.0
C498 C 0.36444 0.90632 0.75438 0.0
C499 C 0.36503 0.8869 0.74103 0.0
C500 C 0.35616 0.89249 0.73239 0.0
C501 C 0.36921 0.89367 0.75222 0.0
C502 C 0.35553 0.91192 0.74569 0.0
C503 C 0.34138 0.91016 0.72565 0.0
O504 O 0.31106 0.93279 0.71275 0.0
O505 O 0.3255 0.93313 0.69704 0.0
O506 O 0.34582 0.91631 0.71533 0.0
O507 O 0.33125 0.91582 0.73095 0.0
H508 H 0.31414 0.90577 0.70302 0.0
H509 H 0.301 0.8893 0.69155 0.0
H510 H 0.28167 0.91981 0.67017 0.0
H511 H 0.29501 0.93613 0.68151 0.0
H512 H 0.33392 0.9955 0.74416 0.0
H513 H 0.33624 0.97193 0.74572 0.0
H514 H 0.33861 0.99323 0.70244 0.0
H515 H 0.34102 0.9696 0.70406 0.0
H516 H 0.36738 0.91179 0.76292 0.0
H517 H 0.36866 0.87727 0.73889 0.0
H518 H 0.35302 0.88698 0.72393 0.0
H519 H 0.35186 0.92158 0.74764 0.0
C520 C 0.12642 0.30352 0.69085 0.0
C521 C 0.13992 0.3052 0.69249 0.0
C522 C 0.14404 0.28951 0.67511 0.0
C523 C 0.14866 0.29823 0.6847 0.0
C524 C 0.13048 0.2878 0.67367 0.0
C525 C 0.12179 0.29474 0.68145 0.0
U526 U 0.11762 0.32885 0.71695 0.0
O527 O 0.10211 0.34355 0.71669 0.0
O528 O 0.102 0.32829 0.73161 0.0
C529 C 0.09576 0.33812 0.72641 0.0
C530 C 0.11699 0.31093 0.69865 0.0
C531 C 0.08161 0.33624 0.72448 0.0
C532 C 0.06308 0.32428 0.71548 0.0
C533 C 0.0766 0.32592 0.71698 0.0
C534 C 0.05949 0.34331 0.72888 0.0
C535 C 0.05433 0.33294 0.72146 0.0
C536 C 0.07297 0.34493 0.73037 0.0
C537 C 0.14525 0.34706 0.73533 0.0
C538 C 0.14475 0.36823 0.746 0.0
C539 C 0.16224 0.3533 0.75073 0.0
C540 C 0.15673 0.34422 0.74213 0.0
C541 C 0.1564 0.36548 0.75269 0.0
C542 C 0.1392 0.3591 0.73743 0.0
C543 C 0.14017 0.33754 0.72574 0.0
O544 O 0.11661 0.30821 0.71115 0.0
O545 O 0.11652 0.32348 0.69624 0.0
O546 O 0.13433 0.34233 0.71542 0.0
O547 O 0.13421 0.32722 0.73052 0.0
H548 H 0.14368 0.31196 0.6997 0.0
H549 H 0.15902 0.29988 0.68601 0.0
H550 H 0.12656 0.28103 0.66656 0.0
H551 H 0.1114 0.29328 0.68008 0.0
H552 H 0.05949 0.31611 0.70981 0.0
H553 H 0.08312 0.3191 0.71236 0.0
H554 H 0.0531 0.35029 0.73345 0.0
H555 H 0.07665 0.35299 0.73615 0.0
H556 H 0.13991 0.37745 0.74741 0.0
H557 H 0.17128 0.35089 0.75559 0.0
H558 H 0.16158 0.33501 0.74061 0.0
H559 H 0.13029 0.3615 0.73236 0.0
C560 C 0.69174 0.12421 0.74357 0.0
C561 C 0.69663 0.13651 0.74724 0.0
C562 C 0.6759 0.14176 0.75756 0.0
C563 C 0.6888 0.14518 0.75422 0.0
C564 C 0.67108 0.12944 0.75379 0.0
C565 C 0.67892 0.12077 0.7469 0.0
U566 U 0.71859 0.11557 0.71899 0.0
O567 O 0.7331 0.09994 0.71953 0.0
O568 O 0.7186 0.10039 0.70381 0.0
C569 C 0.72806 0.09389 0.70938 0.0
C570 C 0.69974 0.11479 0.7363 0.0
C571 C 0.72609 0.07963 0.71045 0.0
C572 C 0.7232 0.05973 0.72312 0.0
C573 C 0.72437 0.07335 0.7225 0.0
C574 C 0.72522 0.05852 0.69968 0.0
C575 C 0.72366 0.05213 0.7117 0.0
C576 C 0.72644 0.07208 0.69908 0.0
C577 C 0.7371 0.14372 0.70183 0.0
C578 C 0.75356 0.14113 0.68501 0.0
C579 C 0.74724 0.16273 0.69187 0.0
C580 C 0.73845 0.15726 0.70075 0.0
C581 C 0.75491 0.15476 0.68384 0.0
C582 C 0.74473 0.13566 0.69393 0.0
C583 C 0.72746 0.13835 0.71105 0.0
O584 O 0.69766 0.1143 0.72368 0.0
O585 O 0.71217 0.1143 0.73939 0.0
O586 O 0.73215 0.1322 0.72122 0.0
O587 O 0.71732 0.13241 0.70583 0.0
H588 H 0.70648 0.13942 0.74469 0.0
H589 H 0.69277 0.15463 0.75685 0.0
H590 H 0.66127 0.12641 0.75634 0.0
H591 H 0.67497 0.11133 0.74419 0.0
H592 H 0.72189 0.05515 0.73252 0.0
H593 H 0.72402 0.07894 0.73143 0.0
H594 H 0.72582 0.05301 0.69071 0.0
H595 H 0.72783 0.07669 0.68969 0.0
H596 H 0.75939 0.13469 0.6791 0.0
H597 H 0.74782 0.17324 0.69111 0.0
H598 H 0.73259 0.16364 0.70671 0.0
H599 H 0.74381 0.12516 0.69464 0.0
C600 C 0.92376 0.74724 0.69321 0.0
C601 C 0.91076 0.74692 0.69743 0.0
C602 C 0.90459 0.76184 0.68001 0.0
C603 C 0.90126 0.75417 0.69091 0.0
C604 C 0.91762 0.76195 0.67574 0.0
C605 C 0.9271 0.75474 0.68229 0.0
U606 U 0.93437 0.72238 0.71876 0.0
O607 O 0.9499 0.70775 0.71815 0.0
O608 O 0.95056 0.72325 0.73284 0.0
C609 C 0.95659 0.71331 0.7276 0.0
C610 C 0.93395 0.73999 0.70018 0.0
C611 C 0.9707 0.71506 0.72535 0.0
C612 C 0.98902 0.72341 0.71273 0.0
C613 C 0.97553 0.72204 0.71462 0.0
C614 C 0.99295 0.71091 0.7323 0.0
C615 C 0.99792 0.71782 0.72153 0.0
C616 C 0.9795 0.70955 0.73417 0.0
C617 C 0.90718 0.7049 0.73883 0.0
C618 C 0.90101 0.68304 0.74598 0.0
C619 C 0.89512 0.70168 0.75903 0.0
C620 C 0.90117 0.70995 0.75001 0.0
C621 C 0.8948 0.68812 0.75706 0.0
C622 C 0.90712 0.69132 0.73697 0.0
C623 C 0.91221 0.71399 0.72873 0.0
O624 O 0.93532 0.74287 0.71258 0.0
O625 O 0.93428 0.7274 0.6979 0.0
O626 O 0.91758 0.70887 0.71832 0.0
O627 O 0.91838 0.72448 0.73289 0.0
H628 H 0.90797 0.74113 0.70581 0.0
H629 H 0.8913 0.75371 0.69437 0.0
H630 H 0.92057 0.76785 0.6675 0.0
H631 H 0.9371 0.75512 0.6789 0.0
H632 H 0.99247 0.72869 0.70427 0.0
H633 H 0.96888 0.72637 0.7077 0.0
H634 H 0.99945 0.70667 0.7394 0.0
H635 H 0.97596 0.70418 0.74255 0.0
H636 H 0.90107 0.67264 0.74422 0.0
H637 H 0.89027 0.70598 0.76732 0.0
H638 H 0.90085 0.72037 0.75161 0.0
H639 H 0.91155 0.68707 0.72842 0.0
C640 C 0.30341 0.35492 0.12625 0.0
C641 C 0.30487 0.35201 0.13951 0.0
C642 C 0.28823 0.36793 0.14512 0.0
C643 C 0.29734 0.35844 0.14886 0.0
C644 C 0.28691 0.37083 0.13179 0.0
C645 C 0.29443 0.36439 0.12247 0.0
U646 U 0.32939 0.3304 0.11592 0.0
O647 O 0.32943 0.31654 0.09957 0.0
O648 O 0.34438 0.33194 0.10063 0.0
C649 C 0.33918 0.32248 0.09365 0.0
C650 C 0.3111 0.34817 0.11624 0.0
C651 C 0.33784 0.32486 0.07944 0.0
C652 C 0.32651 0.32155 0.05876 0.0
C653 C 0.3269 0.32044 0.07237 0.0
C654 C 0.34784 0.33178 0.05903 0.0
C655 C 0.33707 0.32705 0.05189 0.0
C656 C 0.34824 0.33065 0.0726 0.0
C657 C 0.34733 0.31111 0.14292 0.0
C658 C 0.36916 0.302 0.1436 0.0
C659 C 0.3528 0.29453 0.15889 0.0
C660 C 0.34376 0.30298 0.15331 0.0
C661 C 0.36569 0.29406 0.15425 0.0
C662 C 0.36007 0.31044 0.13798 0.0
C663 C 0.33779 0.32066 0.13804 0.0
O664 O 0.32362 0.35099 0.11605 0.0
O665 O 0.30866 0.33565 0.11493 0.0
O666 O 0.32768 0.3159 0.13169 0.0
O667 O 0.34253 0.33139 0.13282 0.0
H668 H 0.3118 0.34474 0.14262 0.0
H669 H 0.29874 0.35606 0.15903 0.0
H670 H 0.27989 0.37792 0.12851 0.0
H671 H 0.29315 0.36675 0.11227 0.0
H672 H 0.31811 0.31767 0.05361 0.0
H673 H 0.31875 0.31582 0.07728 0.0
H674 H 0.35607 0.33626 0.05411 0.0
H675 H 0.35685 0.33406 0.07773 0.0
H676 H 0.37901 0.302 0.13982 0.0
H677 H 0.34968 0.2884 0.1669 0.0
H678 H 0.33398 0.30331 0.15727 0.0
H679 H 0.36309 0.3166 0.12996 0.0
C680 C 0.30392 0.69344 0.92133 0.0
C681 C 0.30611 0.69565 0.90803 0.0
C682 C 0.2887 0.68023 0.90239 0.0
C683 C 0.29857 0.68911 0.89865 0.0
C684 C 0.2867 0.67797 0.91576 0.0
C685 C 0.29423 0.68452 0.92512 0.0
U686 U 0.33011 0.7183 0.9313 0.0
O687 O 0.32978 0.73331 0.94666 0.0
O688 O 0.34441 0.71787 0.94727 0.0
C689 C 0.33919 0.72783 0.95333 0.0
C690 C 0.31144 0.70057 0.93134 0.0
C691 C 0.33703 0.72651 0.96752 0.0
C692 C 0.33537 0.73701 0.98871 0.0
C693 C 0.33668 0.73781 0.97518 0.0
C694 C 0.33461 0.71349 0.98724 0.0
C695 C 0.3344 0.72484 0.99495 0.0
C696 C 0.33588 0.71431 0.97366 0.0
C697 C 0.34888 0.73588 0.90347 0.0
C698 C 0.36232 0.75549 0.90512 0.0
C699 C 0.36121 0.74361 0.88477 0.0
C700 C 0.35274 0.73453 0.89047 0.0
C701 C 0.36605 0.75429 0.89196 0.0
C702 C 0.35382 0.74635 0.91083 0.0
C703 C 0.33927 0.72655 0.90881 0.0
O704 O 0.32387 0.69773 0.93214 0.0
O705 O 0.30926 0.71315 0.93196 0.0
O706 O 0.32905 0.73159 0.91456 0.0
O707 O 0.34396 0.71643 0.91501 0.0
H708 H 0.31358 0.7025 0.90491 0.0
H709 H 0.30052 0.69098 0.88846 0.0
H710 H 0.27909 0.67137 0.91903 0.0
H711 H 0.29237 0.68273 0.93535 0.0
H712 H 0.33545 0.74595 0.9943 0.0
H713 H 0.33764 0.74732 0.97069 0.0
H714 H 0.33376 0.70397 0.9917 0.0
H715 H 0.33607 0.70542 0.968 0.0
H716 H 0.36595 0.76349 0.91099 0.0
H717 H 0.36366 0.74246 0.87459 0.0
H718 H 0.34898 0.72656 0.88461 0.0
H719 H 0.35097 0.74754 0.92091 0.0
C720 C 0.30444 0.35506 0.92058 0.0
C721 C 0.30618 0.3524 0.9073 0.0
C722 C 0.28931 0.36807 0.90165 0.0
C723 C 0.29868 0.35884 0.89792 0.0
C724 C 0.28771 0.37072 0.91499 0.0
C725 C 0.2952 0.36428 0.92434 0.0
U726 U 0.33103 0.33122 0.93102 0.0
O727 O 0.34568 0.33304 0.94664 0.0
O728 O 0.33129 0.3171 0.94713 0.0
C729 C 0.34071 0.32329 0.95335 0.0
C730 C 0.31212 0.34833 0.93062 0.0
C731 C 0.33906 0.32541 0.96756 0.0
C732 C 0.32728 0.32184 0.98791 0.0
C733 C 0.32797 0.32089 0.9743 0.0
C734 C 0.34861 0.33209 0.98829 0.0
C735 C 0.33769 0.32727 0.99511 0.0
C736 C 0.34929 0.33112 0.97472 0.0
C737 C 0.35055 0.31349 0.90406 0.0
C738 C 0.36144 0.29249 0.90378 0.0
C739 C 0.36761 0.30915 0.88824 0.0
C740 C 0.35837 0.31752 0.8936 0.0
C741 C 0.36922 0.2965 0.89319 0.0
C742 C 0.35221 0.30092 0.90918 0.0
C743 C 0.3404 0.32241 0.90892 0.0
O744 O 0.3101 0.3357 0.93156 0.0
O745 O 0.32452 0.35159 0.93123 0.0
O746 O 0.3446 0.33319 0.91449 0.0
O747 O 0.33033 0.31712 0.91489 0.0
H748 H 0.31332 0.34535 0.9042 0.0
H749 H 0.3003 0.35665 0.88774 0.0
H750 H 0.28048 0.3776 0.91826 0.0
H751 H 0.2937 0.36645 0.93456 0.0
H752 H 0.31878 0.31791 0.99281 0.0
H753 H 0.31993 0.31633 0.96913 0.0
H754 H 0.35672 0.33653 0.99345 0.0
H755 H 0.358 0.33461 0.96983 0.0
H756 H 0.36252 0.28287 0.90792 0.0
H757 H 0.37329 0.31251 0.88 0.0
H758 H 0.35721 0.32712 0.88942 0.0
H759 H 0.34633 0.29756 0.91728 0.0
C760 C 0.6945 0.30159 0.92097 0.0
C761 C 0.69926 0.30058 0.90821 0.0
C762 C 0.68106 0.28621 0.90231 0.0
C763 C 0.69262 0.29295 0.89898 0.0
C764 C 0.6763 0.28741 0.91511 0.0
C765 C 0.68296 0.295 0.92432 0.0
U766 U 0.7191 0.32817 0.93066 0.0
O767 O 0.71779 0.34335 0.94577 0.0
O768 O 0.73332 0.32883 0.94669 0.0
C769 C 0.72751 0.33858 0.95254 0.0
C770 C 0.70142 0.30945 0.93087 0.0
C771 C 0.72541 0.33735 0.96673 0.0
C772 C 0.72208 0.32443 0.98637 0.0
C773 C 0.72334 0.32524 0.97279 0.0
C774 C 0.72467 0.34783 0.98796 0.0
C775 C 0.72279 0.33573 0.99415 0.0
C776 C 0.72598 0.34862 0.97444 0.0
C777 C 0.73718 0.34631 0.9028 0.0
C778 C 0.7566 0.36004 0.90441 0.0
C779 C 0.74401 0.35968 0.88447 0.0
C780 C 0.7353 0.35074 0.89005 0.0
C781 C 0.75484 0.36439 0.89152 0.0
C782 C 0.74784 0.35107 0.91001 0.0
C783 C 0.72798 0.33654 0.90812 0.0
O784 O 0.71399 0.30735 0.93199 0.0
O785 O 0.6985 0.32188 0.93113 0.0
O786 O 0.71744 0.34113 0.91366 0.0
O787 O 0.73309 0.32674 0.91452 0.0
H788 H 0.70814 0.30563 0.9054 0.0
H789 H 0.69668 0.29215 0.88929 0.0
H790 H 0.66733 0.28257 0.918 0.0
H791 H 0.6791 0.29574 0.9341 0.0
H792 H 0.7205 0.31497 0.99079 0.0
H793 H 0.72281 0.31639 0.96705 0.0
H794 H 0.72547 0.35672 0.99361 0.0
H795 H 0.72763 0.35805 0.96999 0.0
H796 H 0.76487 0.36338 0.91011 0.0
H797 H 0.74217 0.36298 0.87463 0.0
H798 H 0.7271 0.34723 0.88435 0.0
H799 H 0.74946 0.34778 0.91989 0.0
C800 C 0.69285 0.74559 0.92393 0.0
C801 C 0.69633 0.74663 0.91076 0.0
C802 C 0.67767 0.76067 0.90665 0.0
C803 C 0.68882 0.75411 0.90219 0.0
C804 C 0.67421 0.75945 0.91986 0.0
C805 C 0.68173 0.75202 0.92839 0.0
U806 U 0.71861 0.71988 0.93216 0.0
O807 O 0.73332 0.71979 0.94777 0.0
O808 O 0.71812 0.70461 0.94724 0.0
C809 C 0.7279 0.7098 0.95376 0.0
C810 C 0.70057 0.73787 0.9332 0.0
C811 C 0.7261 0.71095 0.968 0.0
C812 C 0.72291 0.72372 0.98774 0.0
C813 C 0.72403 0.723 0.97414 0.0
C814 C 0.72565 0.70039 0.98919 0.0
C815 C 0.72373 0.71241 0.99545 0.0
C816 C 0.72683 0.69968 0.97565 0.0
C817 C 0.73613 0.70225 0.90394 0.0
C818 C 0.75512 0.68834 0.90576 0.0
C819 C 0.74325 0.68943 0.88541 0.0
C820 C 0.7346 0.69827 0.89099 0.0
C821 C 0.75368 0.68439 0.89268 0.0
C822 C 0.74642 0.69719 0.91134 0.0
C823 C 0.72691 0.71176 0.90937 0.0
O824 O 0.69794 0.72532 0.93345 0.0
O825 O 0.71313 0.74049 0.93364 0.0
O826 O 0.73204 0.72178 0.91557 0.0
O827 O 0.71661 0.70684 0.91522 0.0
H828 H 0.70488 0.7417 0.90712 0.0
H829 H 0.69185 0.75489 0.89213 0.0
H830 H 0.66558 0.76412 0.92362 0.0
H831 H 0.67883 0.75127 0.9385 0.0
H832 H 0.72131 0.73312 0.99221 0.0
H833 H 0.72337 0.73184 0.96844 0.0
H834 H 0.72654 0.6915 0.99479 0.0
H835 H 0.72848 0.6903 0.97114 0.0
H836 H 0.76309 0.68474 0.91163 0.0
H837 H 0.74165 0.68645 0.87542 0.0
H838 H 0.72667 0.702 0.88514 0.0
H839 H 0.74776 0.70014 0.92139 0.0
C840 C 0.69348 0.7456 0.12447 0.0
C841 C 0.69228 0.74147 0.13745 0.0
C842 C 0.67836 0.76 0.14233 0.0
C843 C 0.68476 0.74859 0.14629 0.0
C844 C 0.67979 0.76417 0.12935 0.0
C845 C 0.68725 0.75703 0.12053 0.0
U846 U 0.71863 0.7197 0.11552 0.0
O847 O 0.71784 0.70457 0.10029 0.0
O848 O 0.73325 0.71955 0.09985 0.0
C849 C 0.72768 0.70966 0.09381 0.0
C850 C 0.70091 0.73801 0.11486 0.0
C851 C 0.72589 0.71086 0.07957 0.0
C852 C 0.7228 0.72368 0.05986 0.0
C853 C 0.72389 0.72292 0.07346 0.0
C854 C 0.72546 0.70033 0.05835 0.0
C855 C 0.7236 0.71238 0.05212 0.0
C856 C 0.72659 0.6996 0.07189 0.0
C857 C 0.73608 0.70162 0.14354 0.0
C858 C 0.75498 0.6876 0.14162 0.0
C859 C 0.74319 0.68869 0.16199 0.0
C860 C 0.73457 0.69758 0.15647 0.0
C861 C 0.75358 0.68362 0.15469 0.0
C862 C 0.7463 0.69652 0.1361 0.0
C863 C 0.72695 0.71126 0.1382 0.0
O864 O 0.71349 0.74047 0.11436 0.0
O865 O 0.6981 0.7255 0.11432 0.0
O866 O 0.71656 0.70653 0.13233 0.0
O867 O 0.73218 0.72126 0.13208 0.0
H868 H 0.69708 0.7327 0.14071 0.0
H869 H 0.68401 0.74518 0.15623 0.0
H870 H 0.67488 0.7728 0.12592 0.0
H871 H 0.68804 0.76036 0.11055 0.0
H872 H 0.72125 0.73309 0.0554 0.0
H873 H 0.72326 0.73176 0.07918 0.0
H874 H 0.72633 0.69145 0.05274 0.0
H875 H 0.72819 0.6902 0.07638 0.0
H876 H 0.76291 0.68399 0.13573 0.0
H877 H 0.74163 0.68568 0.17198 0.0
H878 H 0.7267 0.70136 0.16236 0.0
H879 H 0.74763 0.69951 0.12607 0.0
C880 C 0.30338 0.69324 0.1254 0.0
C881 C 0.30754 0.693 0.13842 0.0
C882 C 0.28842 0.67999 0.14449 0.0
C883 C 0.30015 0.68641 0.14786 0.0
C884 C 0.28436 0.68025 0.13139 0.0
C885 C 0.29177 0.68681 0.12196 0.0
U886 U 0.32959 0.718 0.11535 0.0
O887 O 0.34383 0.71752 0.09936 0.0
O888 O 0.32924 0.733 0.09999 0.0
C889 C 0.33864 0.72751 0.09333 0.0
C890 C 0.31085 0.70036 0.11536 0.0
C891 C 0.3365 0.72625 0.07911 0.0
C892 C 0.33496 0.73684 0.05797 0.0
C893 C 0.33616 0.73759 0.07152 0.0
C894 C 0.33427 0.71332 0.0593 0.0
C895 C 0.33409 0.7247 0.05165 0.0
C896 C 0.33543 0.71408 0.0729 0.0
C897 C 0.34854 0.73559 0.14308 0.0
C898 C 0.36148 0.75553 0.14157 0.0
C899 C 0.36131 0.74313 0.16161 0.0
C900 C 0.35286 0.734 0.15592 0.0
C901 C 0.36564 0.75411 0.15457 0.0
C902 C 0.35302 0.74634 0.13586 0.0
C903 C 0.33888 0.72625 0.13781 0.0
O904 O 0.30869 0.71293 0.11476 0.0
O905 O 0.32327 0.69747 0.11447 0.0
O906 O 0.34352 0.7161 0.13161 0.0
O907 O 0.32862 0.73128 0.1321 0.0
H908 H 0.31648 0.69793 0.14128 0.0
H909 H 0.30369 0.6863 0.1578 0.0
H910 H 0.2753 0.67563 0.12843 0.0
H911 H 0.28835 0.68695 0.11198 0.0
H912 H 0.33506 0.74581 0.05243 0.0
H913 H 0.33707 0.74708 0.07607 0.0
H914 H 0.33348 0.70381 0.05478 0.0
H915 H 0.33562 0.70516 0.07851 0.0
H916 H 0.36473 0.76377 0.13581 0.0
H917 H 0.3641 0.74179 0.17169 0.0
H918 H 0.34946 0.7258 0.16167 0.0
H919 H 0.34981 0.74773 0.12591 0.0
C920 C 0.69519 0.30151 0.1245 0.0
C921 C 0.69802 0.30315 0.13777 0.0
C922 C 0.68215 0.28618 0.14342 0.0
C923 C 0.69156 0.29557 0.14714 0.0
C924 C 0.67933 0.28467 0.13008 0.0
C925 C 0.68579 0.29225 0.12074 0.0
U926 U 0.72002 0.32766 0.11442 0.0
O927 O 0.73383 0.32807 0.09807 0.0
O928 O 0.71865 0.34293 0.09939 0.0
C929 C 0.72812 0.33797 0.0924 0.0
C930 C 0.70197 0.3093 0.1145 0.0
C931 C 0.72572 0.33688 0.07823 0.0
C932 C 0.72224 0.32413 0.05848 0.0
C933 C 0.72361 0.32482 0.07207 0.0
C934 C 0.72475 0.34755 0.05711 0.0
C935 C 0.72286 0.3355 0.05082 0.0
C936 C 0.72617 0.34822 0.07064 0.0
C937 C 0.73955 0.34527 0.14163 0.0
C938 C 0.7501 0.36661 0.14111 0.0
C939 C 0.75517 0.35148 0.15842 0.0
C940 C 0.74654 0.34235 0.15297 0.0
C941 C 0.75697 0.36379 0.15265 0.0
C942 C 0.7415 0.35743 0.13563 0.0
C943 C 0.72988 0.33572 0.13669 0.0
O944 O 0.69932 0.32179 0.11443 0.0
O945 O 0.71446 0.30694 0.1131 0.0
O946 O 0.73452 0.32578 0.13017 0.0
O947 O 0.7192 0.34048 0.13154 0.0
H948 H 0.70522 0.31029 0.14087 0.0
H949 H 0.69388 0.29712 0.15731 0.0
H950 H 0.6723 0.27743 0.12682 0.0
H951 H 0.6835 0.29083 0.11053 0.0
H952 H 0.72066 0.31471 0.05399 0.0
H953 H 0.72318 0.31592 0.07771 0.0
H954 H 0.72549 0.35649 0.05155 0.0
H955 H 0.72786 0.35762 0.07517 0.0
H956 H 0.75138 0.37593 0.13632 0.0
H957 H 0.76015 0.34901 0.16737 0.0
H958 H 0.74514 0.33305 0.15778 0.0
H959 H 0.73626 0.35989 0.12683 0.0
C960 C 0.62649 0.80483 0.85669 0.0
C961 C 0.63812 0.79995 0.85145 0.0
C962 C 0.64411 0.79091 0.87259 0.0
C963 C 0.64681 0.793 0.85931 0.0
C964 C 0.63251 0.79592 0.87778 0.0
C965 C 0.6238 0.80277 0.86991 0.0
U966 U 0.61742 0.82933 0.82988 0.0
O967 O 0.60186 0.82835 0.81513 0.0
O968 O 0.60187 0.84397 0.82968 0.0
C969 C 0.59555 0.83826 0.82008 0.0
C970 C 0.61695 0.81193 0.84864 0.0
C971 C 0.58142 0.83632 0.82205 0.0
C972 C 0.56302 0.82441 0.83132 0.0
C973 C 0.57651 0.82608 0.82971 0.0
C974 C 0.55922 0.84324 0.81771 0.0
C975 C 0.55418 0.83296 0.82532 0.0
C976 C 0.57268 0.84488 0.81611 0.0
C977 C 0.64553 0.8471 0.81174 0.0
C978 C 0.64305 0.86376 0.7951 0.0
C979 C 0.66463 0.85706 0.80174 0.0
C980 C 0.65909 0.84823 0.81054 0.0
C981 C 0.65671 0.86496 0.79389 0.0
C982 C 0.63751 0.85489 0.80395 0.0
C983 C 0.64012 0.83784 0.82132 0.0
O984 O 0.61625 0.82453 0.85076 0.0
O985 O 0.61643 0.80888 0.83621 0.0
O986 O 0.63414 0.8275 0.81659 0.0
O987 O 0.63403 0.84299 0.83129 0.0
H988 H 0.64048 0.80148 0.84129 0.0
H989 H 0.65572 0.78939 0.85504 0.0
H990 H 0.63003 0.79436 0.88791 0.0
H991 H 0.61489 0.80642 0.87416 0.0
H992 H 0.55951 0.8163 0.83713 0.0
H993 H 0.5831 0.81935 0.83438 0.0
H994 H 0.55277 0.85014 0.81312 0.0
H995 H 0.57628 0.85288 0.81021 0.0
H996 H 0.63665 0.86958 0.78914 0.0
H997 H 0.67515 0.85785 0.80127 0.0
H998 H 0.66544 0.84234 0.81652 0.0
H999 H 0.627 0.85413 0.80474 0.0
C1000 C 0.19347 0.62535 0.80212 0.0
C1001 C 0.19244 0.63833 0.80627 0.0
C1002 C 0.1785 0.64329 0.78766 0.0
C1003 C 0.185 0.64721 0.79912 0.0
C1004 C 0.17975 0.6303 0.78348 0.0
C1005 C 0.18714 0.62144 0.79065 0.0
U1006 U 0.21859 0.61624 0.82821 0.0
O1007 O 0.21769 0.60091 0.84321 0.0
O1008 O 0.23307 0.60056 0.82838 0.0
C1009 C 0.22746 0.59445 0.83817 0.0
C1010 C 0.20083 0.6157 0.80973 0.0
C1011 C 0.22557 0.58019 0.83688 0.0
C1012 C 0.2232 0.56041 0.82392 0.0
C1013 C 0.22428 0.57403 0.82472 0.0
C1014 C 0.22444 0.55898 0.8474 0.0
C1015 C 0.22331 0.5527 0.83527 0.0
C1016 C 0.22556 0.57254 0.84818 0.0
C1017 C 0.23632 0.64423 0.84658 0.0
C1018 C 0.25526 0.64236 0.86073 0.0
C1019 C 0.24364 0.66273 0.85952 0.0
C1020 C 0.23493 0.65719 0.85058 0.0
C1021 C 0.25399 0.65544 0.86466 0.0
C1022 C 0.2465 0.6368 0.85176 0.0
C1023 C 0.22713 0.63889 0.83684 0.0
O1024 O 0.2134 0.6152 0.80739 0.0
O1025 O 0.19803 0.6151 0.8222 0.0
O1026 O 0.2167 0.63299 0.84146 0.0
O1027 O 0.23229 0.63281 0.82687 0.0
H1028 H 0.19732 0.64157 0.81507 0.0
H1029 H 0.18438 0.65716 0.80254 0.0
H1030 H 0.17476 0.62689 0.77481 0.0
H1031 H 0.18779 0.61146 0.7873 0.0
H1032 H 0.22222 0.55592 0.81443 0.0
H1033 H 0.22421 0.57971 0.81584 0.0
H1034 H 0.22477 0.5534 0.85633 0.0
H1035 H 0.22663 0.57707 0.85766 0.0
H1036 H 0.26316 0.63648 0.86441 0.0
H1037 H 0.24218 0.67273 0.86249 0.0
H1038 H 0.2271 0.66306 0.84674 0.0
H1039 H 0.24773 0.62676 0.84879 0.0
C1040 C 0.42435 0.24649 0.85439 0.0
C1041 C 0.41096 0.24537 0.85175 0.0
C1042 C 0.40629 0.26215 0.86791 0.0
C1043 C 0.40201 0.25312 0.85845 0.0
C1044 C 0.41973 0.26306 0.87061 0.0
C1045 C 0.42865 0.25531 0.86391 0.0
U1046 U 0.4333 0.22042 0.8293 0.0
O1047 O 0.44891 0.22053 0.8146 0.0
O1048 O 0.44867 0.20563 0.82987 0.0
C1049 C 0.45508 0.21078 0.82004 0.0
C1050 C 0.43397 0.23875 0.84718 0.0
C1051 C 0.46923 0.21266 0.82195 0.0
C1052 C 0.48771 0.22185 0.8338 0.0
C1053 C 0.4742 0.22033 0.83216 0.0
C1054 C 0.49139 0.20811 0.81503 0.0
C1055 C 0.4965 0.21572 0.82527 0.0
C1056 C 0.47791 0.20661 0.8134 0.0
C1057 C 0.40513 0.20252 0.81131 0.0
C1058 C 0.40687 0.18909 0.79187 0.0
C1059 C 0.38629 0.19041 0.80329 0.0
C1060 C 0.39201 0.19881 0.81241 0.0
C1061 C 0.39361 0.1855 0.79282 0.0
C1062 C 0.4126 0.19751 0.80105 0.0
C1063 C 0.41057 0.21195 0.82074 0.0
O1064 O 0.43421 0.22626 0.84992 0.0
O1065 O 0.43472 0.24113 0.83463 0.0
O1066 O 0.41674 0.22208 0.81581 0.0
O1067 O 0.41645 0.20703 0.83096 0.0
H1068 H 0.40745 0.23862 0.8444 0.0
H1069 H 0.39176 0.25225 0.85601 0.0
H1070 H 0.42337 0.26974 0.87795 0.0
H1071 H 0.43894 0.25627 0.86613 0.0
H1072 H 0.49127 0.22766 0.84188 0.0
H1073 H 0.46765 0.22509 0.83887 0.0
H1074 H 0.4978 0.20342 0.80814 0.0
H1075 H 0.47426 0.2007 0.80543 0.0
H1076 H 0.41283 0.18539 0.78403 0.0
H1077 H 0.37603 0.18806 0.80425 0.0
H1078 H 0.38608 0.20262 0.82023 0.0
H1079 H 0.42278 0.20023 0.80005 0.0
C1080 C 0.80441 0.42139 0.85356 0.0
C1081 C 0.8062 0.40814 0.85086 0.0
C1082 C 0.78935 0.40225 0.86666 0.0
C1083 C 0.79873 0.39865 0.85734 0.0
C1084 C 0.78775 0.41558 0.86939 0.0
C1085 C 0.7952 0.42503 0.86291 0.0
U1086 U 0.83092 0.43232 0.82949 0.0
O1087 O 0.83055 0.44799 0.81483 0.0
O1088 O 0.84485 0.44871 0.83072 0.0
C1089 C 0.83965 0.45486 0.82079 0.0
C1090 C 0.81189 0.43156 0.84661 0.0
C1091 C 0.83709 0.46898 0.8224 0.0
C1092 C 0.83258 0.48995 0.81234 0.0
C1093 C 0.8341 0.47645 0.81137 0.0
C1094 C 0.83691 0.48884 0.83546 0.0
C1095 C 0.83409 0.49636 0.82436 0.0
C1096 C 0.83838 0.4753 0.8345 0.0
C1097 C 0.85132 0.40567 0.81229 0.0
C1098 C 0.86165 0.40459 0.79095 0.0
C1099 C 0.86907 0.3906 0.80835 0.0
C1100 C 0.8598 0.39598 0.81669 0.0
C1101 C 0.87006 0.39476 0.79534 0.0
C1102 C 0.85239 0.41002 0.79935 0.0
C1103 C 0.84107 0.41041 0.8212 0.0
O1104 O 0.82424 0.43272 0.84986 0.0
O1105 O 0.80996 0.43212 0.83398 0.0
O1106 O 0.83077 0.41578 0.81588 0.0
O1107 O 0.8451 0.41647 0.83175 0.0
H1108 H 0.81331 0.40514 0.84369 0.0
H1109 H 0.80035 0.38849 0.85509 0.0
H1110 H 0.78052 0.41874 0.87635 0.0
H1111 H 0.79367 0.43523 0.8651 0.0
H1112 H 0.8306 0.49541 0.80355 0.0
H1113 H 0.83319 0.47187 0.80191 0.0
H1114 H 0.83801 0.49341 0.8449 0.0
H1115 H 0.84069 0.46984 0.8432 0.0
H1116 H 0.86224 0.40813 0.78104 0.0
H1117 H 0.87524 0.38294 0.81203 0.0
H1118 H 0.8591 0.39238 0.82659 0.0
H1119 H 0.84599 0.4175 0.79567 0.0
C1120 C 0.6256 0.19085 0.24257 0.0
C1121 C 0.63805 0.19552 0.24607 0.0
C1122 C 0.64301 0.1748 0.25654 0.0
C1123 C 0.64665 0.18759 0.25304 0.0
C1124 C 0.63056 0.17018 0.25293 0.0
C1125 C 0.62197 0.17812 0.24605 0.0
U1126 U 0.61705 0.2173 0.21753 0.0
O1127 O 0.60122 0.21754 0.20303 0.0
O1128 O 0.60206 0.23247 0.21828 0.0
C1129 C 0.59537 0.22744 0.20855 0.0
C1130 C 0.61622 0.19898 0.23539 0.0
C1131 C 0.58122 0.22585 0.21067 0.0
C1132 C 0.56277 0.21729 0.22295 0.0
C1133 C 0.57627 0.2186 0.22116 0.0
C1134 C 0.55904 0.23039 0.20374 0.0
C1135 C 0.55396 0.22318 0.21426 0.0
C1136 C 0.57252 0.2317 0.20198 0.0
C1137 C 0.64535 0.23424 0.19894 0.0
C1138 C 0.64401 0.25362 0.18538 0.0
C1139 C 0.66382 0.241 0.18567 0.0
C1140 C 0.65811 0.23234 0.19452 0.0
C1141 C 0.6569 0.25182 0.18103 0.0
C1142 C 0.63829 0.24491 0.19426 0.0
C1143 C 0.63984 0.22503 0.20852 0.0
O1144 O 0.6163 0.21149 0.23813 0.0
O1145 O 0.61517 0.19658 0.22287 0.0
O1146 O 0.6333 0.21506 0.20372 0.0
O1147 O 0.63429 0.23016 0.21882 0.0
H1148 H 0.64111 0.20529 0.24342 0.0
H1149 H 0.6562 0.19141 0.25555 0.0
H1150 H 0.62737 0.16046 0.2556 0.0
H1151 H 0.61241 0.17433 0.24347 0.0
H1152 H 0.55923 0.21179 0.23124 0.0
H1153 H 0.58284 0.21401 0.22798 0.0
H1154 H 0.5526 0.23488 0.19673 0.0
H1155 H 0.57615 0.23728 0.19378 0.0
H1156 H 0.63842 0.26189 0.1821 0.0
H1157 H 0.67364 0.23913 0.18237 0.0
H1158 H 0.6637 0.22412 0.19797 0.0
H1159 H 0.62841 0.24654 0.19755 0.0
C1160 C 0.8027 0.62683 0.19226 0.0
C1161 C 0.80495 0.64012 0.19463 0.0
C1162 C 0.78775 0.64584 0.17924 0.0
C1163 C 0.79755 0.64954 0.18818 0.0
C1164 C 0.78567 0.63248 0.17684 0.0
C1165 C 0.79307 0.62309 0.18329 0.0
U1166 U 0.82846 0.61648 0.21711 0.0
O1167 O 0.82779 0.60072 0.23167 0.0
O1168 O 0.84271 0.60062 0.21637 0.0
C1169 C 0.83727 0.59426 0.2261 0.0
C1170 C 0.81008 0.61675 0.19924 0.0
C1171 C 0.83516 0.58003 0.22448 0.0
C1172 C 0.8311 0.5589 0.23457 0.0
C1173 C 0.83215 0.57247 0.23547 0.0
C1174 C 0.83596 0.56011 0.21156 0.0
C1175 C 0.83313 0.55251 0.22263 0.0
C1176 C 0.83696 0.57371 0.21246 0.0
C1177 C 0.84744 0.64376 0.23575 0.0
C1178 C 0.85303 0.6507 0.2578 0.0
C1179 C 0.86768 0.65568 0.24002 0.0
C1180 C 0.85918 0.64937 0.23135 0.0
C1181 C 0.86462 0.65664 0.25333 0.0
C1182 C 0.84454 0.64438 0.24912 0.0
C1183 C 0.83777 0.63867 0.22618 0.0
O1184 O 0.82256 0.61612 0.19649 0.0
O1185 O 0.80768 0.61585 0.21177 0.0
O1186 O 0.82727 0.63289 0.23082 0.0
O1187 O 0.8424 0.63289 0.21576 0.0
H1188 H 0.81237 0.64319 0.20152 0.0
H1189 H 0.79955 0.65972 0.19017 0.0
H1190 H 0.7781 0.62924 0.17019 0.0
H1191 H 0.79116 0.61287 0.18137 0.0
H1192 H 0.8291 0.5534 0.24334 0.0
H1193 H 0.83086 0.57706 0.24488 0.0
H1194 H 0.83745 0.55553 0.20218 0.0
H1195 H 0.83931 0.57925 0.20379 0.0
H1196 H 0.85025 0.65139 0.26794 0.0
H1197 H 0.87659 0.65997 0.23625 0.0
H1198 H 0.86165 0.6492 0.2211 0.0
H1199 H 0.8355 0.64034 0.25287 0.0
C1200 C 0.42453 0.85524 0.24453 0.0
C1201 C 0.4112 0.85242 0.24307 0.0
C1202 C 0.40589 0.86847 0.25976 0.0
C1203 C 0.40197 0.85897 0.25061 0.0
C1204 C 0.41929 0.87134 0.26103 0.0
C1205 C 0.4285 0.86478 0.25349 0.0
U1206 U 0.43405 0.83028 0.21863 0.0
O1207 O 0.44965 0.83101 0.20393 0.0
O1208 O 0.44963 0.8157 0.2188 0.0
C1209 C 0.45596 0.8212 0.2091 0.0
C1210 C 0.43441 0.84817 0.23696 0.0
C1211 C 0.47008 0.82321 0.21106 0.0
C1212 C 0.48844 0.83284 0.22276 0.0
C1213 C 0.47495 0.83122 0.22105 0.0
C1214 C 0.49231 0.81849 0.20449 0.0
C1215 C 0.49731 0.82648 0.2145 0.0
C1216 C 0.47885 0.81688 0.20281 0.0
C1217 C 0.40598 0.81214 0.20062 0.0
C1218 C 0.40765 0.7927 0.18718 0.0
C1219 C 0.38716 0.80411 0.18855 0.0
C1220 C 0.39289 0.81324 0.19694 0.0
C1221 C 0.39442 0.79365 0.18361 0.0
C1222 C 0.41339 0.80188 0.1956 0.0
C1223 C 0.41141 0.82157 0.21006 0.0
O1224 O 0.43516 0.83563 0.23935 0.0
O1225 O 0.43489 0.85092 0.22447 0.0
O1226 O 0.41738 0.83183 0.20516 0.0
O1227 O 0.41745 0.81665 0.22019 0.0
H1228 H 0.40795 0.84511 0.23615 0.0
H1229 H 0.39174 0.85662 0.24924 0.0
H1230 H 0.4227 0.87844 0.26807 0.0
H1231 H 0.43875 0.86706 0.25477 0.0
H1232 H 0.49191 0.83918 0.23047 0.0
H1233 H 0.46832 0.83623 0.2275 0.0
H1234 H 0.4988 0.81329 0.19806 0.0
H1235 H 0.47528 0.81061 0.19507 0.0
H1236 H 0.41357 0.78486 0.18346 0.0
H1237 H 0.37691 0.80507 0.18623 0.0
H1238 H 0.38699 0.82105 0.20076 0.0
H1239 H 0.42355 0.80089 0.19829 0.0
C1240 C 0.1957 0.42373 0.24593 0.0
C1241 C 0.19728 0.41033 0.24387 0.0
C1242 C 0.18254 0.40544 0.26192 0.0
C1243 C 0.19074 0.40126 0.25178 0.0
C1244 C 0.18097 0.41892 0.26385 0.0
C1245 C 0.18748 0.42795 0.25593 0.0
U1246 U 0.21969 0.43285 0.2188 0.0
O1247 O 0.21818 0.44782 0.2035 0.0
O1248 O 0.23409 0.44884 0.21778 0.0
C1249 C 0.22812 0.4546 0.20806 0.0
C1250 C 0.20255 0.43343 0.2378 0.0
C1251 C 0.2262 0.46881 0.20921 0.0
C1252 C 0.22264 0.48847 0.22198 0.0
C1253 C 0.22382 0.47488 0.22123 0.0
C1254 C 0.22597 0.49004 0.19871 0.0
C1255 C 0.22373 0.49624 0.21072 0.0
C1256 C 0.22719 0.47651 0.19799 0.0
C1257 C 0.23701 0.40476 0.20069 0.0
C1258 C 0.25639 0.40604 0.18707 0.0
C1259 C 0.24319 0.38637 0.18719 0.0
C1260 C 0.23471 0.39208 0.19613 0.0
C1261 C 0.25421 0.39322 0.18261 0.0
C1262 C 0.24787 0.41177 0.19603 0.0
C1263 C 0.2281 0.41019 0.21052 0.0
O1264 O 0.21519 0.43443 0.23969 0.0
O1265 O 0.19931 0.43351 0.22542 0.0
O1266 O 0.2175 0.4157 0.20603 0.0
O1267 O 0.23351 0.41667 0.2202 0.0
H1268 H 0.20361 0.40689 0.2362 0.0
H1269 H 0.1923 0.39098 0.25011 0.0
H1270 H 0.17461 0.4225 0.27143 0.0
H1271 H 0.1861 0.43826 0.25763 0.0
H1272 H 0.22079 0.49289 0.23136 0.0
H1273 H 0.22296 0.46914 0.23004 0.0
H1274 H 0.22707 0.49568 0.18987 0.0
H1275 H 0.22909 0.47204 0.18863 0.0
H1276 H 0.26482 0.41158 0.18383 0.0
H1277 H 0.24103 0.3766 0.18381 0.0
H1278 H 0.22636 0.38653 0.19956 0.0
H1279 H 0.24982 0.42159 0.19942 0.0
C1280 C 0.80255 0.62756 0.85487 0.0
C1281 C 0.80476 0.64084 0.85245 0.0
C1282 C 0.78772 0.64661 0.86796 0.0
C1283 C 0.79742 0.65028 0.85894 0.0
C1284 C 0.78567 0.63326 0.87041 0.0
C1285 C 0.79301 0.62384 0.86392 0.0
U1286 U 0.82794 0.61707 0.82973 0.0
O1287 O 0.84222 0.60123 0.83038 0.0
O1288 O 0.82705 0.60119 0.81529 0.0
C1289 C 0.83665 0.59479 0.82076 0.0
C1290 C 0.80986 0.61746 0.84785 0.0
C1291 C 0.83464 0.58057 0.82245 0.0
C1292 C 0.83091 0.55934 0.81243 0.0
C1293 C 0.83185 0.57291 0.81146 0.0
C1294 C 0.83539 0.56075 0.83552 0.0
C1295 C 0.83279 0.55305 0.82444 0.0
C1296 C 0.83629 0.57436 0.83454 0.0
C1297 C 0.84647 0.64415 0.81046 0.0
C1298 C 0.85066 0.65368 0.78909 0.0
C1299 C 0.86797 0.65296 0.80507 0.0
C1300 C 0.8595 0.64684 0.81388 0.0
C1301 C 0.86362 0.65663 0.79261 0.0
C1302 C 0.84219 0.64758 0.79791 0.0
C1303 C 0.83702 0.63918 0.82029 0.0
O1304 O 0.80726 0.61643 0.83537 0.0
O1305 O 0.82239 0.6169 0.85044 0.0
O1306 O 0.84182 0.63354 0.83072 0.0
O1307 O 0.82645 0.63333 0.81587 0.0
H1308 H 0.81211 0.6439 0.8455 0.0
H1309 H 0.79939 0.66046 0.85692 0.0
H1310 H 0.77817 0.63003 0.87712 0.0
H1311 H 0.79112 0.61363 0.86588 0.0
H1312 H 0.8291 0.55376 0.80365 0.0
H1313 H 0.83067 0.57742 0.802 0.0
H1314 H 0.83675 0.55626 0.84495 0.0
H1315 H 0.83845 0.57998 0.84321 0.0
H1316 H 0.84689 0.65653 0.77968 0.0
H1317 H 0.87792 0.65496 0.80807 0.0
H1318 H 0.86311 0.64451 0.82351 0.0
H1319 H 0.83216 0.6459 0.795 0.0
C1320 C 0.42489 0.85528 0.80213 0.0
C1321 C 0.41158 0.85228 0.80341 0.0
C1322 C 0.40619 0.86855 0.78695 0.0
C1323 C 0.40232 0.85884 0.79589 0.0
C1324 C 0.41956 0.8716 0.78587 0.0
C1325 C 0.4288 0.86502 0.79338 0.0
U1326 U 0.43464 0.83027 0.82792 0.0
O1327 O 0.4502 0.81564 0.82753 0.0
O1328 O 0.45043 0.83092 0.84245 0.0
C1329 C 0.45665 0.82111 0.83719 0.0
C1330 C 0.43482 0.84818 0.80962 0.0
C1331 C 0.47077 0.82304 0.83512 0.0
C1332 C 0.48914 0.83497 0.82581 0.0
C1333 C 0.47565 0.8333 0.82748 0.0
C1334 C 0.49298 0.81609 0.83934 0.0
C1335 C 0.498 0.82639 0.83176 0.0
C1336 C 0.47953 0.81445 0.84099 0.0
C1337 C 0.40672 0.8122 0.84619 0.0
C1338 C 0.40821 0.79242 0.85914 0.0
C1339 C 0.38808 0.80452 0.85871 0.0
C1340 C 0.39381 0.81364 0.85033 0.0
C1341 C 0.39514 0.79371 0.86315 0.0
C1342 C 0.41396 0.80159 0.85074 0.0
C1343 C 0.41209 0.82162 0.83672 0.0
O1344 O 0.43545 0.85092 0.8221 0.0
O1345 O 0.4355 0.83563 0.80721 0.0
O1346 O 0.41799 0.81669 0.82651 0.0
O1347 O 0.41816 0.83185 0.84158 0.0
H1348 H 0.40837 0.84481 0.81016 0.0
H1349 H 0.39212 0.85634 0.79711 0.0
H1350 H 0.42293 0.87887 0.77899 0.0
H1351 H 0.43904 0.86745 0.79223 0.0
H1352 H 0.49263 0.84309 0.82002 0.0
H1353 H 0.46904 0.84005 0.82286 0.0
H1354 H 0.49945 0.80917 0.84389 0.0
H1355 H 0.47594 0.80642 0.84688 0.0
H1356 H 0.41399 0.7843 0.86247 0.0
H1357 H 0.37796 0.80575 0.86138 0.0
H1358 H 0.38805 0.82173 0.84688 0.0
H1359 H 0.42397 0.80033 0.84768 0.0
C1360 C 0.19576 0.42256 0.80121 0.0
C1361 C 0.20052 0.40983 0.80016 0.0
C1362 C 0.1824 0.40382 0.78582 0.0
C1363 C 0.19393 0.40057 0.79251 0.0
C1364 C 0.17763 0.41658 0.78707 0.0
C1365 C 0.18426 0.42583 0.79467 0.0
U1366 U 0.22009 0.43242 0.82783 0.0
O1367 O 0.23434 0.44856 0.8285 0.0
O1368 O 0.21865 0.44755 0.84298 0.0
C1369 C 0.22843 0.4544 0.83821 0.0
C1370 C 0.20263 0.43251 0.80908 0.0
C1371 C 0.22633 0.46858 0.83694 0.0
C1372 C 0.22366 0.48826 0.82397 0.0
C1373 C 0.22493 0.47468 0.82477 0.0
C1374 C 0.22492 0.48977 0.84745 0.0
C1375 C 0.2237 0.49599 0.83531 0.0
C1376 C 0.22624 0.47625 0.84824 0.0
C1377 C 0.23783 0.40456 0.84601 0.0
C1378 C 0.25712 0.40609 0.85978 0.0
C1379 C 0.24436 0.38614 0.85929 0.0
C1380 C 0.2358 0.39177 0.85037 0.0
C1381 C 0.2552 0.39316 0.86405 0.0
C1382 C 0.2485 0.41174 0.85084 0.0
C1383 C 0.22879 0.40992 0.83624 0.0
O1384 O 0.19957 0.43277 0.82149 0.0
O1385 O 0.21523 0.43369 0.80701 0.0
O1386 O 0.23406 0.41634 0.82648 0.0
O1387 O 0.21823 0.41542 0.8408 0.0
H1388 H 0.20937 0.40709 0.80517 0.0
H1389 H 0.19799 0.39091 0.79168 0.0
H1390 H 0.1687 0.41941 0.78226 0.0
H1391 H 0.18038 0.43558 0.79544 0.0
H1392 H 0.2226 0.4927 0.81447 0.0
H1393 H 0.22492 0.46899 0.8159 0.0
H1394 H 0.22519 0.49538 0.85637 0.0
H1395 H 0.22738 0.47177 0.85771 0.0
H1396 H 0.2654 0.41177 0.86317 0.0
H1397 H 0.2424 0.37628 0.86252 0.0
H1398 H 0.22758 0.38609 0.84681 0.0
H1399 H 0.25024 0.42165 0.8476 0.0
C1400 C 0.62469 0.19084 0.80254 0.0
C1401 C 0.63756 0.19509 0.80034 0.0
C1402 C 0.64195 0.17545 0.78768 0.0
C1403 C 0.64611 0.18746 0.79297 0.0
C1404 C 0.62908 0.17122 0.79011 0.0
C1405 C 0.62057 0.17884 0.79743 0.0
U1406 U 0.61599 0.21719 0.82774 0.0
O1407 O 0.60049 0.23184 0.82712 0.0
O1408 O 0.60039 0.21701 0.84247 0.0
C1409 C 0.59414 0.22668 0.83699 0.0
C1410 C 0.61534 0.19873 0.81 0.0
C1411 C 0.57999 0.22472 0.83512 0.0
C1412 C 0.56152 0.21551 0.82327 0.0
C1413 C 0.57503 0.21704 0.82491 0.0
C1414 C 0.55783 0.22922 0.84206 0.0
C1415 C 0.55273 0.22162 0.83181 0.0
C1416 C 0.57131 0.23075 0.84368 0.0
C1417 C 0.64364 0.2357 0.84578 0.0
C1418 C 0.64318 0.24637 0.86696 0.0
C1419 C 0.66069 0.25119 0.85188 0.0
C1420 C 0.65515 0.24256 0.84285 0.0
C1421 C 0.65486 0.25311 0.86412 0.0
C1422 C 0.6376 0.23778 0.85786 0.0
C1423 C 0.63855 0.22605 0.83633 0.0
O1424 O 0.6148 0.19638 0.82256 0.0
O1425 O 0.615 0.21121 0.80719 0.0
O1426 O 0.6327 0.23077 0.82598 0.0
O1427 O 0.6326 0.21575 0.84118 0.0
H1428 H 0.64096 0.20432 0.80424 0.0
H1429 H 0.65589 0.19109 0.79123 0.0
H1430 H 0.62558 0.16193 0.78646 0.0
H1431 H 0.6107 0.17536 0.79909 0.0
H1432 H 0.55797 0.20969 0.81519 0.0
H1433 H 0.58159 0.21231 0.81819 0.0
H1434 H 0.55141 0.2339 0.84895 0.0
H1435 H 0.57495 0.23666 0.85165 0.0
H1436 H 0.63835 0.24774 0.87621 0.0
H1437 H 0.66976 0.25608 0.84941 0.0
H1438 H 0.66 0.24107 0.83361 0.0
H1439 H 0.62866 0.23266 0.86034 0.0
C1440 C 0.80468 0.42116 0.19264 0.0
C1441 C 0.80378 0.40831 0.19724 0.0
C1442 C 0.7898 0.40229 0.17887 0.0
C1443 C 0.7964 0.39897 0.19044 0.0
C1444 C 0.79095 0.41516 0.17424 0.0
C1445 C 0.79829 0.42448 0.18106 0.0
U1446 U 0.83004 0.43185 0.21808 0.0
O1447 O 0.84433 0.44797 0.21757 0.0
O1448 O 0.82915 0.44763 0.2326 0.0
C1449 C 0.8387 0.45428 0.22716 0.0
C1450 C 0.81201 0.43127 0.19987 0.0
C1451 C 0.8365 0.46843 0.22537 0.0
C1452 C 0.83209 0.48954 0.23516 0.0
C1453 C 0.83341 0.47604 0.23626 0.0
C1454 C 0.83686 0.48816 0.21214 0.0
C1455 C 0.8339 0.49582 0.22311 0.0
C1456 C 0.83812 0.47461 0.21325 0.0
C1457 C 0.84849 0.40496 0.23703 0.0
C1458 C 0.87027 0.40433 0.24648 0.0
C1459 C 0.85378 0.38892 0.25361 0.0
C1460 C 0.84482 0.3945 0.24505 0.0
C1461 C 0.8667 0.39361 0.25431 0.0
C1462 C 0.86126 0.40996 0.23794 0.0
C1463 C 0.83904 0.40981 0.22732 0.0
O1464 O 0.80938 0.43214 0.21236 0.0
O1465 O 0.82454 0.4321 0.19733 0.0
O1466 O 0.84384 0.41565 0.21696 0.0
O1467 O 0.82859 0.41549 0.23193 0.0
H1468 H 0.80866 0.40555 0.20616 0.0
H1469 H 0.79564 0.38923 0.1944 0.0
H1470 H 0.78621 0.41804 0.16528 0.0
H1471 H 0.79892 0.43433 0.17732 0.0
H1472 H 0.83001 0.49511 0.24385 0.0
H1473 H 0.83223 0.47156 0.24574 0.0
H1474 H 0.83819 0.49264 0.20269 0.0
H1475 H 0.84051 0.46903 0.20465 0.0
H1476 H 0.88015 0.40815 0.24666 0.0
H1477 H 0.85058 0.38086 0.25964 0.0
H1478 H 0.83502 0.39049 0.24454 0.0
H1479 H 0.86438 0.41802 0.23186 0.0
C1480 C 0.62577 0.80299 0.19164 0.0
C1481 C 0.63874 0.80732 0.19049 0.0
C1482 C 0.64377 0.78876 0.17655 0.0
C1483 C 0.64765 0.80029 0.18298 0.0
C1484 C 0.63078 0.78442 0.1779 0.0
C1485 C 0.62189 0.79147 0.18536 0.0
U1486 U 0.61668 0.8289 0.21688 0.0
O1487 O 0.60101 0.84337 0.21646 0.0
O1488 O 0.60129 0.82856 0.23183 0.0
C1489 C 0.59484 0.83814 0.22641 0.0
C1490 C 0.61612 0.81039 0.19919 0.0
C1491 C 0.58071 0.83595 0.22465 0.0
C1492 C 0.56234 0.82616 0.21311 0.0
C1493 C 0.57583 0.82786 0.21472 0.0
C1494 C 0.5585 0.84052 0.23137 0.0
C1495 C 0.55348 0.83249 0.2214 0.0
C1496 C 0.57196 0.84223 0.23296 0.0
C1497 C 0.64482 0.84785 0.23389 0.0
C1498 C 0.64345 0.86141 0.25327 0.0
C1499 C 0.66332 0.86124 0.24058 0.0
C1500 C 0.6576 0.85236 0.23193 0.0
C1501 C 0.65638 0.86582 0.25144 0.0
C1502 C 0.63772 0.8525 0.24457 0.0
C1503 C 0.63937 0.83808 0.22481 0.0
O1504 O 0.61586 0.80806 0.21176 0.0
O1505 O 0.6153 0.82285 0.19639 0.0
O1506 O 0.63317 0.84264 0.21461 0.0
O1507 O 0.63355 0.82792 0.23008 0.0
H1508 H 0.64195 0.81615 0.19534 0.0
H1509 H 0.6576 0.80383 0.18227 0.0
H1510 H 0.62739 0.7757 0.17296 0.0
H1511 H 0.61191 0.78799 0.18612 0.0
H1512 H 0.55886 0.81978 0.20543 0.0
H1513 H 0.58245 0.8229 0.20822 0.0
H1514 H 0.55201 0.8457 0.23783 0.0
H1515 H 0.57554 0.84854 0.24065 0.0
H1516 H 0.63784 0.86465 0.26157 0.0
H1517 H 0.67318 0.86459 0.23869 0.0
H1518 H 0.66322 0.84893 0.22371 0.0
H1519 H 0.62782 0.84913 0.24626 0.0
C1520 C 0.1924 0.62454 0.24388 0.0
C1521 C 0.19665 0.63739 0.2461 0.0
C1522 C 0.17711 0.64172 0.25894 0.0
C1523 C 0.18908 0.6459 0.25357 0.0
C1524 C 0.17288 0.62886 0.25651 0.0
C1525 C 0.18045 0.62038 0.24909 0.0
U1526 U 0.21864 0.61628 0.21851 0.0
O1527 O 0.23319 0.60068 0.2186 0.0
O1528 O 0.21834 0.6012 0.20322 0.0
C1529 C 0.22795 0.5947 0.20852 0.0
C1530 C 0.20019 0.61527 0.23624 0.0
C1531 C 0.22604 0.58044 0.20958 0.0
C1532 C 0.22249 0.56062 0.22221 0.0
C1533 C 0.22363 0.57424 0.22156 0.0
C1534 C 0.2259 0.55926 0.19894 0.0
C1535 C 0.22364 0.55295 0.2109 0.0
C1536 C 0.22709 0.57282 0.19831 0.0
C1537 C 0.23692 0.64444 0.2012 0.0
C1538 C 0.25361 0.64175 0.18463 0.0
C1539 C 0.24674 0.66338 0.1908 0.0
C1540 C 0.23798 0.65797 0.19974 0.0
C1541 C 0.25469 0.65537 0.1831 0.0
C1542 C 0.2448 0.63633 0.1936 0.0
C1543 C 0.22741 0.6391 0.21057 0.0
O1544 O 0.19783 0.61501 0.22367 0.0
O1545 O 0.21269 0.61479 0.23903 0.0
O1546 O 0.23225 0.63288 0.22063 0.0
O1547 O 0.21715 0.63324 0.20551 0.0
H1548 H 0.20584 0.64081 0.24212 0.0
H1549 H 0.19272 0.65568 0.25531 0.0
H1550 H 0.16363 0.62534 0.26022 0.0
H1551 H 0.17695 0.61053 0.24741 0.0
H1552 H 0.22063 0.55611 0.23156 0.0
H1553 H 0.22273 0.57991 0.2304 0.0
H1554 H 0.22705 0.5537 0.19007 0.0
H1555 H 0.22901 0.57738 0.18899 0.0
H1556 H 0.25965 0.63528 0.17897 0.0
H1557 H 0.2471 0.67387 0.18976 0.0
H1558 H 0.23192 0.66438 0.20547 0.0
H1559 H 0.24412 0.62584 0.1946 0.0
C1560 C 0.42362 0.24717 0.19308 0.0
C1561 C 0.41057 0.24658 0.19714 0.0
C1562 C 0.4044 0.26179 0.17998 0.0
C1563 C 0.40105 0.25383 0.19066 0.0
C1564 C 0.41748 0.26218 0.17588 0.0
C1565 C 0.42699 0.25496 0.18238 0.0
U1566 U 0.4342 0.22167 0.21798 0.0
O1567 O 0.44995 0.2073 0.21712 0.0
O1568 O 0.45017 0.22228 0.23234 0.0
C1569 C 0.45642 0.21262 0.22685 0.0
C1570 C 0.43382 0.2399 0.20001 0.0
C1571 C 0.47053 0.21464 0.22483 0.0
C1572 C 0.48887 0.22343 0.21254 0.0
C1573 C 0.47538 0.22191 0.2143 0.0
C1574 C 0.49276 0.21053 0.23185 0.0
C1575 C 0.49775 0.2177 0.22126 0.0
C1576 C 0.47931 0.20903 0.2336 0.0
C1577 C 0.40685 0.20284 0.23665 0.0
C1578 C 0.40027 0.19704 0.25873 0.0
C1579 C 0.39435 0.18294 0.24077 0.0
C1580 C 0.40073 0.19139 0.23213 0.0
C1581 C 0.39382 0.18578 0.25416 0.0
C1582 C 0.40668 0.20549 0.25009 0.0
C1583 C 0.412 0.21249 0.22713 0.0
O1584 O 0.43489 0.24238 0.21253 0.0
O1585 O 0.43445 0.22741 0.19731 0.0
O1586 O 0.41769 0.20784 0.21667 0.0
O1587 O 0.4179 0.22293 0.2318 0.0
H1588 H 0.40776 0.24056 0.20535 0.0
H1589 H 0.39105 0.25315 0.19398 0.0
H1590 H 0.42045 0.2683 0.1678 0.0
H1591 H 0.43702 0.25555 0.17913 0.0
H1592 H 0.49235 0.22891 0.20421 0.0
H1593 H 0.46875 0.22632 0.20742 0.0
H1594 H 0.49925 0.20617 0.23889 0.0
H1595 H 0.47575 0.20343 0.24182 0.0
H1596 H 0.39994 0.19964 0.26894 0.0
H1597 H 0.38965 0.17428 0.2369 0.0
H1598 H 0.40056 0.18912 0.22183 0.0
H1599 H 0.41114 0.21429 0.25392 0.0
C1600 C 0.80405 0.85484 0.62531 0.0
C1601 C 0.80545 0.85196 0.63859 0.0
C1602 C 0.78862 0.86772 0.64406 0.0
C1603 C 0.7978 0.85833 0.64787 0.0
C1604 C 0.78736 0.8706 0.63072 0.0
C1605 C 0.795 0.86422 0.62146 0.0
U1606 U 0.83022 0.83042 0.61533 0.0
O1607 O 0.83058 0.81663 0.59895 0.0
O1608 O 0.84551 0.83203 0.60032 0.0
C1609 C 0.84052 0.8225 0.5933 0.0
C1610 C 0.81189 0.84816 0.61537 0.0
C1611 C 0.83943 0.82489 0.57914 0.0
C1612 C 0.82667 0.82837 0.55943 0.0
C1613 C 0.82738 0.82699 0.57301 0.0
C1614 C 0.85006 0.82587 0.558 0.0
C1615 C 0.83801 0.82775 0.55174 0.0
C1616 C 0.85074 0.82445 0.57152 0.0
C1617 C 0.84772 0.81113 0.64259 0.0
C1618 C 0.86945 0.80179 0.64321 0.0
C1619 C 0.85319 0.79483 0.65884 0.0
C1620 C 0.84418 0.80326 0.65318 0.0
C1621 C 0.86602 0.7941 0.65407 0.0
C1622 C 0.8604 0.81021 0.63752 0.0
C1623 C 0.83823 0.82066 0.63758 0.0
O1624 O 0.82441 0.851 0.61538 0.0
O1625 O 0.8095 0.83564 0.61397 0.0
O1626 O 0.82826 0.81588 0.63104 0.0
O1627 O 0.84304 0.83141 0.63247 0.0
H1628 H 0.81243 0.84477 0.64175 0.0
H1629 H 0.79916 0.85597 0.65805 0.0
H1630 H 0.78028 0.87761 0.62739 0.0
H1631 H 0.79377 0.86656 0.61125 0.0
H1632 H 0.81725 0.82994 0.55496 0.0
H1633 H 0.8185 0.82741 0.57868 0.0
H1634 H 0.85897 0.82514 0.55242 0.0
H1635 H 0.86013 0.82276 0.57603 0.0
H1636 H 0.87926 0.80159 0.63933 0.0
H1637 H 0.85009 0.7889 0.667 0.0
H1638 H 0.83445 0.80378 0.65723 0.0
H1639 H 0.86339 0.81617 0.62934 0.0
C1640 C 0.80269 0.19283 0.42012 0.0
C1641 C 0.80162 0.1977 0.4074 0.0
C1642 C 0.78763 0.17931 0.40126 0.0
C1643 C 0.79414 0.19103 0.39808 0.0
C1644 C 0.78895 0.17439 0.41399 0.0
C1645 C 0.79638 0.1811 0.42331 0.0
U1646 U 0.82864 0.21783 0.43056 0.0
O1647 O 0.82816 0.23251 0.44622 0.0
O1648 O 0.84293 0.2172 0.44654 0.0
C1649 C 0.83757 0.22694 0.45283 0.0
C1650 C 0.81013 0.19994 0.43022 0.0
C1651 C 0.83538 0.22529 0.46702 0.0
C1652 C 0.83068 0.2352 0.48804 0.0
C1653 C 0.83185 0.23614 0.4745 0.0
C1654 C 0.83644 0.21244 0.48697 0.0
C1655 C 0.83308 0.22338 0.49449 0.0
C1656 C 0.83756 0.21337 0.4734 0.0
C1657 C 0.84765 0.2359 0.40318 0.0
C1658 C 0.85815 0.25728 0.40297 0.0
C1659 C 0.86305 0.24164 0.38608 0.0
C1660 C 0.85454 0.23265 0.39187 0.0
C1661 C 0.86486 0.25413 0.39145 0.0
C1662 C 0.84964 0.24823 0.4088 0.0
C1663 C 0.83794 0.2265 0.40832 0.0
O1664 O 0.82258 0.19717 0.43105 0.0
O1665 O 0.80784 0.21249 0.43107 0.0
O1666 O 0.82762 0.23138 0.41404 0.0
O1667 O 0.84256 0.21622 0.41431 0.0
H1668 H 0.80644 0.20675 0.40473 0.0
H1669 H 0.79325 0.19521 0.38845 0.0
H1670 H 0.78429 0.1653 0.41676 0.0
H1671 H 0.79715 0.17714 0.43305 0.0
H1672 H 0.82827 0.24388 0.49349 0.0
H1673 H 0.83026 0.24547 0.46988 0.0
H1674 H 0.83822 0.20315 0.49159 0.0
H1675 H 0.84032 0.20481 0.46794 0.0
H1676 H 0.85942 0.26675 0.40746 0.0
H1677 H 0.8679 0.23892 0.37714 0.0
H1678 H 0.8531 0.22322 0.38733 0.0
H1679 H 0.84447 0.25096 0.41756 0.0
C1680 C 0.80421 0.85485 0.42136 0.0
C1681 C 0.80583 0.8521 0.40808 0.0
C1682 C 0.78879 0.8676 0.40249 0.0
C1683 C 0.79819 0.85842 0.39873 0.0
C1684 C 0.78731 0.87034 0.41584 0.0
C1685 C 0.79494 0.86402 0.42516 0.0
U1686 U 0.83041 0.83051 0.43145 0.0
O1687 O 0.84567 0.83215 0.44653 0.0
O1688 O 0.83078 0.81671 0.44781 0.0
C1689 C 0.84069 0.8226 0.45351 0.0
C1690 C 0.81204 0.8482 0.43135 0.0
C1691 C 0.83957 0.82496 0.46767 0.0
C1692 C 0.82676 0.82842 0.48732 0.0
C1693 C 0.8275 0.82706 0.47374 0.0
C1694 C 0.85015 0.82592 0.48886 0.0
C1695 C 0.83809 0.82779 0.49507 0.0
C1696 C 0.85086 0.82452 0.47534 0.0
C1697 C 0.84796 0.81128 0.40421 0.0
C1698 C 0.86965 0.80184 0.40375 0.0
C1699 C 0.8535 0.7951 0.38786 0.0
C1700 C 0.84448 0.80353 0.39349 0.0
C1701 C 0.86627 0.79427 0.39278 0.0
C1702 C 0.86058 0.81025 0.40942 0.0
C1703 C 0.83846 0.82079 0.40921 0.0
O1704 O 0.80967 0.83568 0.43274 0.0
O1705 O 0.82455 0.85108 0.4314 0.0
O1706 O 0.84326 0.83154 0.41437 0.0
O1707 O 0.82849 0.81599 0.41571 0.0
H1708 H 0.81298 0.84507 0.40495 0.0
H1709 H 0.79973 0.85617 0.38855 0.0
H1710 H 0.78006 0.87719 0.41913 0.0
H1711 H 0.79354 0.86624 0.43537 0.0
H1712 H 0.81733 0.82999 0.49174 0.0
H1713 H 0.81864 0.82749 0.46803 0.0
H1714 H 0.85904 0.82518 0.49449 0.0
H1715 H 0.86026 0.82284 0.47088 0.0
H1716 H 0.87941 0.80154 0.40775 0.0
H1717 H 0.85044 0.78926 0.3796 0.0
H1718 H 0.83479 0.80414 0.38933 0.0
H1719 H 0.86352 0.81612 0.4177 0.0
C1720 C 0.19576 0.80235 0.42141 0.0
C1721 C 0.20055 0.80185 0.40863 0.0
C1722 C 0.18273 0.78722 0.40228 0.0
C1723 C 0.19413 0.79433 0.39917 0.0
C1724 C 0.17792 0.78789 0.41509 0.0
C1725 C 0.18438 0.79537 0.42455 0.0
U1726 U 0.22068 0.82827 0.43187 0.0
O1727 O 0.21932 0.84355 0.44691 0.0
O1728 O 0.23438 0.82857 0.44836 0.0
C1729 C 0.2287 0.83853 0.45398 0.0
C1730 C 0.20248 0.81006 0.43154 0.0
C1731 C 0.22623 0.83748 0.46813 0.0
C1732 C 0.22278 0.82479 0.4879 0.0
C1733 C 0.22418 0.82543 0.47433 0.0
C1734 C 0.22515 0.84823 0.48921 0.0
C1735 C 0.22333 0.83619 0.49554 0.0
C1736 C 0.2266 0.84885 0.47569 0.0
C1737 C 0.24052 0.84573 0.40476 0.0
C1738 C 0.25003 0.86754 0.40387 0.0
C1739 C 0.25723 0.85101 0.38877 0.0
C1740 C 0.2486 0.84204 0.39443 0.0
C1741 C 0.25793 0.86395 0.39327 0.0
C1742 C 0.24142 0.85852 0.40957 0.0
C1743 C 0.23075 0.83627 0.40971 0.0
O1744 O 0.21494 0.80761 0.43313 0.0
O1745 O 0.19992 0.82257 0.43162 0.0
O1746 O 0.22007 0.84109 0.41476 0.0
O1747 O 0.23528 0.82629 0.41626 0.0
H1748 H 0.20928 0.80725 0.40599 0.0
H1749 H 0.19802 0.79417 0.38937 0.0
H1750 H 0.16927 0.78244 0.41788 0.0
H1751 H 0.18053 0.79563 0.43436 0.0
H1752 H 0.22125 0.81538 0.49242 0.0
H1753 H 0.22382 0.8165 0.46871 0.0
H1754 H 0.22584 0.85719 0.49475 0.0
H1755 H 0.22825 0.85824 0.47114 0.0
H1756 H 0.25021 0.87743 0.40754 0.0
H1757 H 0.26332 0.8478 0.38081 0.0
H1758 H 0.24809 0.83222 0.39058 0.0
H1759 H 0.23529 0.86163 0.41754 0.0
C1760 C 0.19381 0.24592 0.42287 0.0
C1761 C 0.19471 0.24364 0.40942 0.0
C1762 C 0.17814 0.26007 0.40525 0.0
C1763 C 0.18695 0.25067 0.40068 0.0
C1764 C 0.17749 0.26242 0.41874 0.0
C1765 C 0.18523 0.25541 0.42743 0.0
U1766 U 0.21966 0.22051 0.43182 0.0
O1767 O 0.234 0.22069 0.44777 0.0
O1768 O 0.21899 0.20532 0.44698 0.0
C1769 C 0.22858 0.21065 0.45367 0.0
C1770 C 0.20143 0.23834 0.43233 0.0
C1771 C 0.22656 0.21174 0.46789 0.0
C1772 C 0.22357 0.22446 0.4877 0.0
C1773 C 0.22472 0.22379 0.4741 0.0
C1774 C 0.2258 0.20106 0.48902 0.0
C1775 C 0.22414 0.21309 0.49534 0.0
C1776 C 0.22701 0.20041 0.47548 0.0
C1777 C 0.23834 0.20287 0.40444 0.0
C1778 C 0.24921 0.18193 0.40551 0.0
C1779 C 0.25346 0.19646 0.38742 0.0
C1780 C 0.24488 0.20553 0.39275 0.0
C1781 C 0.25564 0.18448 0.39365 0.0
C1782 C 0.24068 0.19105 0.41087 0.0
C1783 C 0.22879 0.21235 0.40937 0.0
O1784 O 0.19895 0.22577 0.4326 0.0
O1785 O 0.21395 0.24112 0.43298 0.0
O1786 O 0.23359 0.22251 0.41557 0.0
O1787 O 0.21827 0.20746 0.41489 0.0
H1788 H 0.20128 0.23633 0.40571 0.0
H1789 H 0.18764 0.24853 0.39039 0.0
H1790 H 0.17101 0.26972 0.42261 0.0
H1791 H 0.18444 0.25734 0.43777 0.0
H1792 H 0.22217 0.23387 0.49222 0.0
H1793 H 0.2243 0.23269 0.46846 0.0
H1794 H 0.2265 0.19212 0.49456 0.0
H1795 H 0.22849 0.19102 0.47092 0.0
H1796 H 0.2508 0.17287 0.41065 0.0
H1797 H 0.2581 0.1987 0.37822 0.0
H1798 H 0.24319 0.21457 0.38761 0.0
H1799 H 0.23579 0.18881 0.41995 0.0
C1800 C 0.19481 0.24618 0.62406 0.0
C1801 C 0.19297 0.2421 0.63698 0.0
C1802 C 0.17918 0.2609 0.64122 0.0
C1803 C 0.18523 0.24939 0.64548 0.0
C1804 C 0.18136 0.26506 0.62834 0.0
C1805 C 0.18907 0.25776 0.61987 0.0
U1806 U 0.2198 0.21982 0.61541 0.0
O1807 O 0.21881 0.20472 0.60017 0.0
O1808 O 0.23439 0.21951 0.59973 0.0
C1809 C 0.22868 0.20971 0.59367 0.0
C1810 C 0.2023 0.23835 0.61468 0.0
C1811 C 0.22684 0.21101 0.57945 0.0
C1812 C 0.22379 0.22399 0.55983 0.0
C1813 C 0.22496 0.22314 0.57342 0.0
C1814 C 0.22612 0.20061 0.55817 0.0
C1815 C 0.22438 0.21272 0.55202 0.0
C1816 C 0.22734 0.19979 0.5717 0.0
C1817 C 0.23709 0.20148 0.64335 0.0
C1818 C 0.25603 0.18751 0.64148 0.0
C1819 C 0.24397 0.18826 0.6617 0.0
C1820 C 0.2354 0.19723 0.6562 0.0
C1821 C 0.25447 0.18333 0.65446 0.0
C1822 C 0.24742 0.19651 0.63597 0.0
C1823 C 0.22805 0.21125 0.63807 0.0
O1824 O 0.21492 0.24066 0.61426 0.0
O1825 O 0.19934 0.22588 0.61422 0.0
O1826 O 0.21758 0.20665 0.63222 0.0
O1827 O 0.23338 0.22121 0.63196 0.0
H1828 H 0.19735 0.23318 0.64042 0.0
H1829 H 0.18369 0.24583 0.65529 0.0
H1830 H 0.17708 0.27397 0.62477 0.0
H1831 H 0.19043 0.26111 0.60995 0.0
H1832 H 0.22234 0.23345 0.55544 0.0
H1833 H 0.22448 0.23195 0.57919 0.0
H1834 H 0.22683 0.19176 0.55249 0.0
H1835 H 0.22884 0.19034 0.57612 0.0
H1836 H 0.26405 0.18401 0.63564 0.0
H1837 H 0.24228 0.1851 0.67161 0.0
H1838 H 0.22745 0.2009 0.66204 0.0
H1839 H 0.24888 0.19966 0.62601 0.0
C1840 C 0.80286 0.19328 0.62596 0.0
C1841 C 0.80732 0.19273 0.63887 0.0
C1842 C 0.78817 0.17985 0.64513 0.0
C1843 C 0.80006 0.18605 0.64835 0.0
C1844 C 0.78379 0.18046 0.63215 0.0
C1845 C 0.79107 0.1871 0.62268 0.0
U1846 U 0.82863 0.21837 0.61524 0.0
O1847 O 0.8428 0.21769 0.5992 0.0
O1848 O 0.82789 0.23286 0.59943 0.0
C1849 C 0.83732 0.22732 0.59285 0.0
C1850 C 0.81022 0.20038 0.61583 0.0
C1851 C 0.8351 0.22555 0.57866 0.0
C1852 C 0.83043 0.23534 0.55758 0.0
C1853 C 0.83156 0.23635 0.57112 0.0
C1854 C 0.83626 0.2126 0.55878 0.0
C1855 C 0.8329 0.22349 0.55119 0.0
C1856 C 0.83734 0.21361 0.57236 0.0
C1857 C 0.84777 0.23717 0.6423 0.0
C1858 C 0.85342 0.25926 0.64922 0.0
C1859 C 0.86794 0.24152 0.6542 0.0
C1860 C 0.85945 0.23281 0.6479 0.0
C1861 C 0.86493 0.25483 0.65517 0.0
C1862 C 0.84494 0.25054 0.6429 0.0
C1863 C 0.83808 0.22755 0.63728 0.0
O1864 O 0.80782 0.21289 0.61497 0.0
O1865 O 0.8227 0.19771 0.61497 0.0
O1866 O 0.84266 0.21714 0.63146 0.0
O1867 O 0.82757 0.23213 0.63161 0.0
H1868 H 0.8164 0.19747 0.64161 0.0
H1869 H 0.80383 0.18568 0.6582 0.0
H1870 H 0.7746 0.17603 0.62932 0.0
H1871 H 0.78742 0.18749 0.61279 0.0
H1872 H 0.82802 0.24398 0.55208 0.0
H1873 H 0.82993 0.24571 0.57569 0.0
H1874 H 0.83809 0.20329 0.55422 0.0
H1875 H 0.84011 0.20509 0.57787 0.0
H1876 H 0.85068 0.26939 0.64991 0.0
H1877 H 0.87679 0.23778 0.6585 0.0
H1878 H 0.86187 0.22257 0.64774 0.0
H1879 H 0.83595 0.25425 0.63887 0.0
C1880 C 0.19538 0.80247 0.62526 0.0
C1881 C 0.19796 0.80415 0.63858 0.0
C1882 C 0.1823 0.78689 0.64394 0.0
C1883 C 0.19148 0.79643 0.64783 0.0
C1884 C 0.17972 0.78536 0.63055 0.0
C1885 C 0.18621 0.79307 0.62133 0.0
U1886 U 0.21971 0.82928 0.61568 0.0
O1887 O 0.23393 0.83003 0.59969 0.0
O1888 O 0.21828 0.84442 0.60055 0.0
C1889 C 0.22804 0.83971 0.59381 0.0
C1890 C 0.20221 0.81039 0.61538 0.0
C1891 C 0.22594 0.83842 0.57962 0.0
C1892 C 0.22264 0.8254 0.56001 0.0
C1893 C 0.22391 0.82627 0.5736 0.0
C1894 C 0.22514 0.8488 0.55835 0.0
C1895 C 0.2233 0.83667 0.55221 0.0
C1896 C 0.22646 0.84965 0.57188 0.0
C1897 C 0.23772 0.84757 0.64355 0.0
C1898 C 0.2572 0.86122 0.64204 0.0
C1899 C 0.24448 0.86104 0.66187 0.0
C1900 C 0.23578 0.8521 0.65626 0.0
C1901 C 0.25539 0.86565 0.6549 0.0
C1902 C 0.24844 0.85226 0.63641 0.0
C1903 C 0.22856 0.83775 0.63823 0.0
O1904 O 0.19919 0.8228 0.61515 0.0
O1905 O 0.2148 0.8084 0.61435 0.0
O1906 O 0.23372 0.82797 0.63185 0.0
O1907 O 0.21798 0.84226 0.63268 0.0
H1908 H 0.20499 0.8114 0.64181 0.0
H1909 H 0.1936 0.79801 0.65804 0.0
H1910 H 0.17287 0.77801 0.62717 0.0
H1911 H 0.18411 0.79162 0.61108 0.0
H1912 H 0.2211 0.81592 0.55563 0.0
H1913 H 0.22342 0.81745 0.57936 0.0
H1914 H 0.2259 0.85766 0.55268 0.0
H1915 H 0.22808 0.85911 0.5763 0.0
H1916 H 0.26553 0.86449 0.6364 0.0
H1917 H 0.2426 0.86441 0.67168 0.0
H1918 H 0.22753 0.84866 0.66191 0.0
H1919 H 0.25012 0.84889 0.62657 0.0
C1920 C 0.17404 0.27177 0.384 0.0
C1921 C 0.16945 0.26724 0.3961 0.0
H1922 H 0.16964 0.2819 0.36629 0.0
C1923 C 0.15641 0.26966 0.39948 0.0
H1924 H 0.18404 0.27017 0.38111 0.0
C1925 C 0.14821 0.27647 0.39106 0.0
C1926 C 0.15278 0.28105 0.37898 0.0
H1927 H 0.15247 0.2662 0.40863 0.0
H1928 H 0.13829 0.27828 0.39412 0.0
C1929 C 0.16582 0.27862 0.37556 0.0
C1930 C 0.7675 0.16635 0.39517 0.0
C1931 C 0.77931 0.17237 0.39145 0.0
H1932 H 0.75042 0.1558 0.38914 0.0
C1933 C 0.78299 0.17185 0.37827 0.0
H1934 H 0.76421 0.16673 0.40517 0.0
C1935 C 0.77502 0.16562 0.36905 0.0
C1936 C 0.76318 0.1597 0.37277 0.0
H1937 H 0.79211 0.17616 0.37506 0.0
H1938 H 0.77819 0.16536 0.359 0.0
C1939 C 0.75957 0.16007 0.38596 0.0
C1940 C 0.87643 0.78481 0.37259 0.0
C1941 C 0.87608 0.7858 0.38625 0.0
H1942 H 0.88573 0.77665 0.35586 0.0
C1943 C 0.88523 0.77875 0.39355 0.0
H1944 H 0.86973 0.79028 0.36661 0.0
C1945 C 0.89447 0.77094 0.38735 0.0
C1946 C 0.8948 0.76995 0.37368 0.0
H1947 H 0.88516 0.77912 0.40408 0.0
H1948 H 0.90127 0.76553 0.39328 0.0
C1949 C 0.88563 0.77698 0.3664 0.0
C1950 C 0.27591 0.88282 0.36677 0.0
C1951 C 0.28264 0.89243 0.37394 0.0
H1952 H 0.26271 0.86658 0.36713 0.0
C1953 C 0.28129 0.89252 0.38757 0.0
H1954 H 0.27653 0.88259 0.35625 0.0
C1955 C 0.27337 0.88327 0.39385 0.0
C1956 C 0.26658 0.8737 0.38667 0.0
H1957 H 0.28646 0.89966 0.39342 0.0
H1958 H 0.2727 0.88354 0.40437 0.0
C1959 C 0.26797 0.87362 0.37304 0.0
C1960 C 0.1563 0.76657 0.66129 0.0
C1961 C 0.16327 0.7615 0.6719 0.0
H1962 H 0.15673 0.77861 0.64426 0.0
C1963 C 0.17645 0.76517 0.67342 0.0
H1964 H 0.14618 0.7639 0.65975 0.0
C1965 C 0.18253 0.77349 0.66447 0.0
C1966 C 0.17563 0.7784 0.65373 0.0
H1967 H 0.18209 0.76162 0.68158 0.0
H1968 H 0.19275 0.77586 0.66584 0.0
C1969 C 0.1624 0.77489 0.65231 0.0
C1970 C 0.27583 0.16633 0.67946 0.0
C1971 C 0.28042 0.15554 0.67245 0.0
H1972 H 0.26429 0.18357 0.6793 0.0
C1973 C 0.2767 0.15417 0.65932 0.0
H1974 H 0.27836 0.16766 0.68961 0.0
C1975 C 0.26845 0.16325 0.65343 0.0
C1976 C 0.26369 0.17391 0.66051 0.0
H1977 H 0.28016 0.14608 0.65357 0.0
H1978 H 0.2656 0.16174 0.64339 0.0
C1979 C 0.26759 0.17538 0.67358 0.0
C1980 C 0.87563 0.27679 0.6589 0.0
C1981 C 0.87332 0.26389 0.66298 0.0
H1982 H 0.88418 0.29539 0.66337 0.0
C1983 C 0.87869 0.25982 0.6749 0.0
H1984 H 0.87177 0.28023 0.64972 0.0
C1985 C 0.8859 0.26848 0.68266 0.0
C1986 C 0.88797 0.28145 0.67873 0.0
H1987 H 0.87702 0.25002 0.67845 0.0
H1988 H 0.8898 0.26501 0.69181 0.0
C1989 C 0.88288 0.28545 0.66666 0.0
C1990 C 0.76886 0.89359 0.66168 0.0
C1991 C 0.76341 0.88648 0.67207 0.0
H1992 H 0.78114 0.89335 0.64483 0.0
C1993 C 0.76665 0.87325 0.67336 0.0
H1994 H 0.76653 0.90376 0.66032 0.0
C1995 C 0.77491 0.86724 0.6644 0.0
C1996 C 0.7802 0.87429 0.65389 0.0
H1997 H 0.7628 0.8675 0.68134 0.0
H1998 H 0.77694 0.85698 0.66558 0.0
C1999 C 0.77713 0.88757 0.6527 0.0
C2000 C 0.36594 0.16529 0.26788 0.0
C2001 C 0.37011 0.16292 0.28069 0.0
H2002 H 0.36999 0.17437 0.24958 0.0
C2003 C 0.38246 0.16763 0.28455 0.0
H2004 H 0.35656 0.16169 0.26452 0.0
C2005 C 0.39026 0.17482 0.27591 0.0
C2006 C 0.38594 0.17744 0.26317 0.0
H2007 H 0.38595 0.16608 0.29437 0.0
H2008 H 0.39965 0.1784 0.27924 0.0
C2009 C 0.37373 0.17245 0.25925 0.0
C2010 C 0.87644 0.37342 0.26412 0.0
C2011 C 0.87645 0.38707 0.26286 0.0
H2012 H 0.88547 0.35667 0.27247 0.0
C2013 C 0.88595 0.39434 0.26969 0.0
H2014 H 0.86947 0.36746 0.25882 0.0
C2015 C 0.89519 0.38811 0.27751 0.0
C2016 C 0.89517 0.37446 0.27873 0.0
H2017 H 0.88616 0.40486 0.26911 0.0
H2018 H 0.90227 0.39402 0.28272 0.0
C2019 C 0.88565 0.36721 0.27196 0.0
C2020 C 0.66187 0.89455 0.2744 0.0
C2021 C 0.67511 0.89323 0.27772 0.0
H2022 H 0.64561 0.88706 0.26351 0.0
C2023 C 0.682 0.88262 0.27261 0.0
H2024 H 0.65621 0.9025 0.27827 0.0
C2025 C 0.67588 0.87369 0.26426 0.0
C2026 C 0.6627 0.87511 0.26076 0.0
H2027 H 0.69222 0.88134 0.27484 0.0
H2028 H 0.68151 0.86563 0.26054 0.0
C2029 C 0.65574 0.88559 0.26604 0.0
C2030 C 0.1678 0.66391 0.26381 0.0
C2031 C 0.16902 0.65065 0.26703 0.0
H2032 H 0.1588 0.68216 0.2682 0.0
C2033 C 0.16219 0.64588 0.27793 0.0
H2034 H 0.17278 0.66792 0.25541 0.0
C2035 C 0.15413 0.65402 0.28521 0.0
C2036 C 0.1527 0.6672 0.28185 0.0
H2037 H 0.1631 0.63581 0.28091 0.0
H2038 H 0.14904 0.64999 0.29353 0.0
C2039 C 0.15976 0.67209 0.27115 0.0
C2040 C 0.39755 0.88855 0.77566 0.0
C2041 C 0.39641 0.87517 0.77851 0.0
H2042 H 0.38997 0.90486 0.76516 0.0
C2043 C 0.38603 0.86807 0.77294 0.0
H2044 H 0.40533 0.89437 0.77989 0.0
C2045 C 0.37716 0.87411 0.76459 0.0
C2046 C 0.37841 0.88743 0.76156 0.0
H2047 H 0.38489 0.85774 0.77479 0.0
H2048 H 0.36929 0.86831 0.7605 0.0
C2049 C 0.38865 0.89461 0.76732 0.0
C2050 C 0.16337 0.38853 0.75771 0.0
C2051 C 0.16266 0.37536 0.7614 0.0
H2052 H 0.17034 0.40771 0.76227 0.0
C2053 C 0.16832 0.37166 0.7733 0.0
H2054 H 0.15931 0.3917 0.74851 0.0
C2055 C 0.17461 0.38086 0.78125 0.0
C2056 C 0.17546 0.39402 0.77749 0.0
H2057 H 0.1678 0.36163 0.77654 0.0
H2058 H 0.1787 0.37766 0.79041 0.0
C2059 C 0.16971 0.39773 0.76562 0.0
C2060 C 0.66416 0.16611 0.78289 0.0
C2061 C 0.65088 0.16731 0.77965 0.0
H2062 H 0.68242 0.15708 0.77856 0.0
C2063 C 0.6461 0.16042 0.76877 0.0
H2064 H 0.66817 0.17115 0.79127 0.0
C2065 C 0.65425 0.15232 0.76155 0.0
C2066 C 0.66744 0.15091 0.76494 0.0
H2067 H 0.63603 0.16132 0.76577 0.0
H2068 H 0.6502 0.14719 0.75324 0.0
C2069 C 0.67234 0.15803 0.77561 0.0
C2070 C 0.88795 0.68171 0.77975 0.0
C2071 C 0.88753 0.67945 0.76625 0.0
H2072 H 0.88078 0.67639 0.79858 0.0
C2073 C 0.87962 0.6692 0.76155 0.0
H2074 H 0.89403 0.68943 0.78373 0.0
C2075 C 0.87209 0.66163 0.77009 0.0
C2076 C 0.87229 0.66409 0.78357 0.0
H2077 H 0.87895 0.66725 0.75121 0.0
H2078 H 0.86603 0.6539 0.76612 0.0
C2079 C 0.88045 0.67412 0.78829 0.0
C2080 C 0.2688 0.39397 0.16284 0.0
C2081 C 0.26334 0.38691 0.17325 0.0
H2082 H 0.281 0.39363 0.14594 0.0
C2083 C 0.26647 0.37366 0.17453 0.0
H2084 H 0.26656 0.40416 0.16148 0.0
C2085 C 0.27464 0.36757 0.16554 0.0
C2086 C 0.27993 0.37457 0.155 0.0
H2087 H 0.26261 0.36794 0.18253 0.0
H2088 H 0.27658 0.3573 0.16671 0.0
C2089 C 0.27698 0.38788 0.15383 0.0
C2090 C 0.27587 0.6805 0.88146 0.0
C2091 C 0.28028 0.67365 0.89245 0.0
H2092 H 0.26438 0.68014 0.86407 0.0
C2093 C 0.27628 0.66058 0.894 0.0
H2094 H 0.27862 0.6906 0.87998 0.0
C2095 C 0.26794 0.65461 0.88492 0.0
C2096 C 0.26335 0.66155 0.87406 0.0
H2097 H 0.27959 0.65494 0.90224 0.0
H2098 H 0.26486 0.64463 0.88657 0.0
C2099 C 0.26754 0.67454 0.8724 0.0
C2100 C 0.39115 0.29221 0.88317 0.0
C2101 C 0.37886 0.28753 0.88716 0.0
H2102 H 0.4093 0.288 0.87392 0.0
C2103 C 0.37575 0.27433 0.88499 0.0
H2104 H 0.39394 0.30228 0.88481 0.0
C2105 C 0.38462 0.26608 0.87881 0.0
C2106 C 0.39687 0.27081 0.87471 0.0
H2107 H 0.36633 0.27041 0.88782 0.0
H2108 H 0.3819 0.25598 0.87729 0.0
C2109 C 0.40003 0.28397 0.87705 0.0
C2110 C 0.776 0.38153 0.86622 0.0
C2111 C 0.78102 0.39223 0.87324 0.0
H2112 H 0.76404 0.36434 0.86647 0.0
C2113 C 0.77769 0.39345 0.88647 0.0
H2114 H 0.77823 0.38032 0.856 0.0
C2115 C 0.76939 0.38434 0.89246 0.0
C2116 C 0.76417 0.37379 0.88537 0.0
H2117 H 0.78149 0.40147 0.89223 0.0
H2118 H 0.76684 0.38575 0.90258 0.0
C2119 C 0.7677 0.37244 0.8722 0.0
C2120 C 0.6671 0.76463 0.88477 0.0
C2121 C 0.66959 0.7687 0.89764 0.0
H2122 H 0.65707 0.76835 0.86684 0.0
C2123 C 0.66402 0.78041 0.90196 0.0
H2124 H 0.67108 0.75561 0.88113 0.0
C2125 C 0.65594 0.78766 0.89379 0.0
C2126 C 0.65324 0.78346 0.88103 0.0
H2127 H 0.66593 0.78402 0.91169 0.0
H2128 H 0.65184 0.79661 0.89747 0.0
C2129 C 0.65905 0.77194 0.87657 0.0
C2130 C 0.7674 0.66343 0.15373 0.0
C2131 C 0.76281 0.67422 0.16074 0.0
H2132 H 0.77893 0.64615 0.15395 0.0
C2133 C 0.76688 0.67582 0.17374 0.0
H2134 H 0.76442 0.66182 0.14374 0.0
C2135 C 0.77509 0.66675 0.17965 0.0
C2136 C 0.77948 0.65582 0.17272 0.0
H2137 H 0.76372 0.6841 0.1794 0.0
H2138 H 0.77774 0.66816 0.18976 0.0
C2139 C 0.77562 0.65435 0.15965 0.0
C2140 C 0.39061 0.77027 0.177 0.0
C2141 C 0.38796 0.78357 0.17525 0.0
H2142 H 0.38587 0.7506 0.17174 0.0
C2143 C 0.37854 0.78709 0.16595 0.0
H2144 H 0.39773 0.76716 0.18411 0.0
C2145 C 0.37162 0.77757 0.15896 0.0
C2146 C 0.37392 0.76426 0.16106 0.0
H2147 H 0.37637 0.79724 0.1642 0.0
H2148 H 0.36412 0.78067 0.15224 0.0
C2149 C 0.38369 0.76075 0.17 0.0
C2150 C 0.6622 0.2745 0.1521 0.0
C2151 C 0.6755 0.27782 0.15334 0.0
H2152 H 0.64594 0.26372 0.15974 0.0
C2153 C 0.68248 0.27282 0.16398 0.0
H2154 H 0.65647 0.27829 0.14413 0.0
C2155 C 0.6764 0.26458 0.17302 0.0
C2156 C 0.66317 0.26108 0.17167 0.0
H2157 H 0.69274 0.27505 0.16521 0.0
H2158 H 0.68211 0.26095 0.18109 0.0
C2159 C 0.65611 0.26626 0.16116 0.0
C2160 C 0.88526 0.77676 0.68053 0.0
C2161 C 0.89457 0.76989 0.6733 0.0
H2162 H 0.86922 0.7899 0.68024 0.0
C2163 C 0.89436 0.77097 0.65964 0.0
H2164 H 0.88526 0.77635 0.69106 0.0
C2165 C 0.8851 0.77874 0.65339 0.0
C2166 C 0.87581 0.78565 0.66064 0.0
H2167 H 0.90128 0.76569 0.65375 0.0
H2168 H 0.88513 0.77919 0.64286 0.0
C2169 C 0.87603 0.78454 0.6743 0.0
C2170 C 0.27012 0.88548 0.65402 0.0
C2171 C 0.26476 0.875 0.6611 0.0
H2172 H 0.28242 0.90247 0.65431 0.0
C2173 C 0.26822 0.87366 0.67429 0.0
H2174 H 0.26763 0.88688 0.64388 0.0
C2175 C 0.27659 0.88267 0.68031 0.0
C2176 C 0.28177 0.89329 0.67331 0.0
H2177 H 0.26445 0.86562 0.68002 0.0
H2178 H 0.27877 0.88146 0.69055 0.0
C2179 C 0.2785 0.89451 0.66005 0.0
C2180 C 0.17325 0.27007 0.66327 0.0
C2181 C 0.17034 0.26835 0.64998 0.0
H2182 H 0.1673 0.27802 0.68161 0.0
C2183 C 0.15878 0.27376 0.64507 0.0
H2184 H 0.18211 0.26615 0.66737 0.0
C2185 C 0.15037 0.28065 0.65319 0.0
C2186 C 0.15323 0.28233 0.66648 0.0
H2187 H 0.1561 0.27251 0.63494 0.0
H2188 H 0.14163 0.28475 0.649 0.0
C2189 C 0.16482 0.27701 0.67141 0.0
C2190 C 0.77908 0.1782 0.66788 0.0
C2191 C 0.7802 0.17301 0.65526 0.0
H2192 H 0.77051 0.17646 0.68679 0.0
C2193 C 0.77334 0.16144 0.65231 0.0
H2194 H 0.78411 0.18714 0.67051 0.0
C2195 C 0.76536 0.15539 0.66162 0.0
C2196 C 0.76403 0.16074 0.67415 0.0
H2197 H 0.77409 0.15703 0.64276 0.0
H2198 H 0.75998 0.14669 0.65887 0.0
C2199 C 0.77113 0.17214 0.67719 0.0
C2200 C 0.88505 0.26029 0.37879 0.0
C2201 C 0.87326 0.26396 0.38468 0.0
H2202 H 0.90144 0.26611 0.36721 0.0
C2203 C 0.86925 0.27696 0.38349 0.0
H2204 H 0.88855 0.25041 0.37967 0.0
C2205 C 0.87663 0.28596 0.37631 0.0
C2206 C 0.88825 0.28222 0.37014 0.0
H2207 H 0.86014 0.28009 0.38773 0.0
H2208 H 0.87296 0.29575 0.37523 0.0
C2209 C 0.89244 0.2693 0.37162 0.0
C2210 C 0.77537 0.86707 0.38193 0.0
C2211 C 0.78038 0.87411 0.3926 0.0
H2212 H 0.76348 0.86726 0.36481 0.0
C2213 C 0.77703 0.88731 0.39388 0.0
H2214 H 0.77762 0.85687 0.38067 0.0
C2215 C 0.76875 0.89325 0.38484 0.0
C2216 C 0.76358 0.88615 0.37429 0.0
H2217 H 0.78082 0.89309 0.40188 0.0
H2218 H 0.7662 0.90336 0.38628 0.0
C2219 C 0.76711 0.873 0.3729 0.0
C2220 C 0.15604 0.77063 0.38224 0.0
C2221 C 0.16328 0.76294 0.37358 0.0
H2222 H 0.15644 0.78442 0.39791 0.0
C2223 C 0.17698 0.76343 0.3744 0.0
H2224 H 0.14549 0.77067 0.38179 0.0
C2225 C 0.18325 0.77136 0.3836 0.0
C2226 C 0.17601 0.77899 0.3923 0.0
H2227 H 0.1829 0.75746 0.36808 0.0
H2228 H 0.19379 0.77129 0.38408 0.0
C2229 C 0.16232 0.77854 0.39149 0.0
C2230 C 0.2839 0.1691 0.37539 0.0
C2231 C 0.2802 0.15586 0.37508 0.0
H2232 H 0.27922 0.18842 0.38161 0.0
C2233 C 0.26852 0.15211 0.38126 0.0
H2234 H 0.29293 0.17235 0.37095 0.0
C2235 C 0.26069 0.16133 0.38745 0.0
C2236 C 0.2643 0.17458 0.38759 0.0
H2237 H 0.26522 0.14206 0.38106 0.0
H2238 H 0.25162 0.15812 0.39183 0.0
C2239 C 0.27604 0.17833 0.38153 0.0
C2240 C 0.65754 0.88704 0.7831 0.0
C2241 C 0.66276 0.87452 0.78468 0.0
H2242 H 0.65934 0.90574 0.77403 0.0
C2243 C 0.67411 0.87135 0.77772 0.0
H2244 H 0.64888 0.88988 0.78836 0.0
C2245 C 0.68023 0.88052 0.76964 0.0
C2246 C 0.67516 0.89312 0.76825 0.0
H2247 H 0.67832 0.86176 0.77854 0.0
H2248 H 0.68911 0.87779 0.76472 0.0
C2249 C 0.66365 0.89621 0.77499 0.0
C2250 C 0.15363 0.66946 0.77981 0.0
C2251 C 0.15348 0.66934 0.76611 0.0
H2252 H 0.16155 0.66138 0.79731 0.0
C2253 C 0.16197 0.66089 0.75957 0.0
H2254 H 0.14733 0.67593 0.78518 0.0
C2255 C 0.1702 0.6526 0.76653 0.0
C2256 C 0.1702 0.65257 0.78023 0.0
H2257 H 0.16205 0.66045 0.74903 0.0
H2258 H 0.17656 0.64619 0.76116 0.0
C2259 C 0.1619 0.66121 0.78677 0.0
C2260 C 0.38995 0.17892 0.76944 0.0
C2261 C 0.38719 0.17713 0.78273 0.0
H2262 H 0.38536 0.17367 0.74978 0.0
C2263 C 0.3777 0.16778 0.78624 0.0
H2264 H 0.39712 0.18608 0.76635 0.0
C2265 C 0.37084 0.16076 0.77672 0.0
C2266 C 0.37326 0.16289 0.76342 0.0
H2267 H 0.37544 0.166 0.79638 0.0
H2268 H 0.3633 0.15398 0.7798 0.0
C2269 C 0.38309 0.1719 0.75992 0.0
C2270 C 0.87629 0.38541 0.7735 0.0
C2271 C 0.8797 0.38864 0.78639 0.0
H2272 H 0.88223 0.37681 0.75547 0.0
C2273 C 0.89229 0.38561 0.79081 0.0
H2274 H 0.86664 0.38749 0.76981 0.0
C2275 C 0.90118 0.37938 0.78264 0.0
C2276 C 0.89773 0.376 0.7698 0.0
H2277 H 0.89531 0.38806 0.80062 0.0
H2278 H 0.91069 0.37701 0.78648 0.0
C2279 C 0.88518 0.37914 0.76533 0.0
C2280 C 0.66736 0.16292 0.28185 0.0
C2281 C 0.66832 0.14961 0.27874 0.0
H2282 H 0.65859 0.18127 0.27738 0.0
C2283 C 0.66127 0.14483 0.26796 0.0
H2284 H 0.67252 0.16694 0.29015 0.0
C2285 C 0.65324 0.15303 0.2607 0.0
C2286 C 0.65207 0.16627 0.26396 0.0
H2287 H 0.66197 0.13472 0.26507 0.0
H2288 H 0.64797 0.14899 0.25247 0.0
C2289 C 0.65935 0.17115 0.27453 0.0
C2290 C 0.87525 0.66032 0.27525 0.0
C2291 C 0.87305 0.66442 0.26236 0.0
H2292 H 0.88373 0.66476 0.29382 0.0
C2293 C 0.87856 0.67634 0.25829 0.0
H2294 H 0.87127 0.65114 0.27869 0.0
C2295 C 0.88581 0.68408 0.26693 0.0
C2296 C 0.88775 0.68014 0.27989 0.0
H2297 H 0.87698 0.67991 0.24851 0.0
H2298 H 0.88981 0.69324 0.26346 0.0
C2299 C 0.88252 0.66807 0.28389 0.0
C2300 C 0.38853 0.89445 0.27963 0.0
C2301 C 0.37814 0.88732 0.28516 0.0
H2302 H 0.40531 0.89419 0.26724 0.0
C2303 C 0.37675 0.87407 0.28189 0.0
H2304 H 0.38996 0.90465 0.28198 0.0
C2305 C 0.38561 0.86804 0.27354 0.0
C2306 C 0.39614 0.87509 0.2682 0.0
H2307 H 0.36877 0.8683 0.28579 0.0
H2308 H 0.38436 0.85776 0.27151 0.0
C2309 C 0.39742 0.88841 0.27129 0.0
C2310 C 0.16403 0.37532 0.27374 0.0
C2311 C 0.16331 0.37755 0.28723 0.0
H2312 H 0.17059 0.38232 0.25519 0.0
C2313 C 0.16881 0.3891 0.29227 0.0
H2314 H 0.16001 0.36648 0.26954 0.0
C2315 C 0.17496 0.39813 0.28407 0.0
C2316 C 0.17581 0.39585 0.27059 0.0
H2317 H 0.16832 0.39121 0.30258 0.0
H2318 H 0.17924 0.40681 0.28834 0.0
C2319 C 0.17024 0.38433 0.26553 0.0
C2320 C 0.76757 0.66423 0.89358 0.0
C2321 C 0.76291 0.67501 0.88659 0.0
H2322 H 0.77911 0.64696 0.89331 0.0
C2323 C 0.76688 0.67659 0.87357 0.0
H2324 H 0.76466 0.66263 0.90358 0.0
C2325 C 0.77505 0.66752 0.86762 0.0
C2326 C 0.77951 0.6566 0.87452 0.0
H2327 H 0.76367 0.68486 0.86792 0.0
H2328 H 0.77762 0.66893 0.8575 0.0
C2329 C 0.77575 0.65515 0.88762 0.0
C2330 C 0.78549 0.3794 0.17085 0.0
C2331 C 0.78159 0.39247 0.17181 0.0
H2332 H 0.78095 0.3602 0.16391 0.0
C2333 C 0.76968 0.39605 0.16609 0.0
H2334 H 0.79469 0.3763 0.17493 0.0
C2335 C 0.76183 0.38682 0.1597 0.0
C2336 C 0.76565 0.37373 0.1589 0.0
H2337 H 0.76623 0.40596 0.1668 0.0
H2338 H 0.75259 0.38989 0.15569 0.0
C2339 C 0.77761 0.37016 0.1645 0.0
C2340 C 0.65317 0.7677 0.16835 0.0
C2341 C 0.65309 0.7814 0.16824 0.0
H2342 H 0.66111 0.75024 0.16031 0.0
C2343 C 0.66174 0.78801 0.15986 0.0
H2344 H 0.64676 0.76229 0.17478 0.0
C2345 C 0.67004 0.78109 0.15161 0.0
C2346 C 0.66997 0.76738 0.15156 0.0
H2347 H 0.66188 0.79854 0.15943 0.0
H2348 H 0.67652 0.7865 0.14524 0.0
C2349 C 0.66152 0.76078 0.16014 0.0
C2350 C 0.27073 0.67286 0.17632 0.0
C2351 C 0.26387 0.66127 0.17342 0.0
H2352 H 0.28363 0.68788 0.16955 0.0
C2353 C 0.26555 0.65563 0.16106 0.0
H2354 H 0.26984 0.6774 0.18579 0.0
C2355 C 0.27364 0.66157 0.15178 0.0
C2356 C 0.28028 0.67331 0.15459 0.0
H2357 H 0.26037 0.64678 0.15843 0.0
H2358 H 0.27468 0.65694 0.14237 0.0
C2359 C 0.2788 0.6788 0.16704 0.0
C2360 C 0.3756 0.28421 0.17439 0.0
C2361 C 0.37552 0.28559 0.16076 0.0
H2362 H 0.38475 0.2758 0.1911 0.0
C2363 C 0.38499 0.27895 0.15348 0.0
H2364 H 0.36865 0.28936 0.18036 0.0
C2365 C 0.39428 0.27119 0.15968 0.0
C2366 C 0.39435 0.26984 0.17331 0.0
H2367 H 0.38513 0.27963 0.14297 0.0
H2368 H 0.40134 0.26612 0.15376 0.0
C2369 C 0.38486 0.27642 0.18057 0.0
C2370 C 0.27603 0.36775 0.88099 0.0
C2371 C 0.28103 0.37469 0.89172 0.0
H2372 H 0.26421 0.36811 0.86383 0.0
C2373 C 0.27778 0.38792 0.89305 0.0
H2374 H 0.27821 0.35753 0.87969 0.0
C2375 C 0.26959 0.39397 0.88401 0.0
C2376 C 0.2644 0.38694 0.87341 0.0
H2377 H 0.28157 0.39362 0.9011 0.0
H2378 H 0.2671 0.40408 0.88549 0.0
C2379 C 0.26785 0.37378 0.87196 0.0
C2380 C 0.66825 0.26598 0.89627 0.0
C2381 C 0.67407 0.27788 0.89255 0.0
H2382 H 0.65775 0.24886 0.89028 0.0
C2383 C 0.67324 0.28169 0.87942 0.0
H2384 H 0.66886 0.2626 0.90623 0.0
C2385 C 0.6669 0.27375 0.87025 0.0
C2386 C 0.66118 0.26181 0.87396 0.0
H2387 H 0.67738 0.29087 0.87621 0.0
H2388 H 0.6664 0.27702 0.86024 0.0
C2389 C 0.66187 0.25808 0.88711 0.0
C2390 C 0.37261 0.77769 0.88802 0.0
C2391 C 0.37443 0.76437 0.88551 0.0
H2392 H 0.37781 0.79734 0.88317 0.0
C2393 C 0.38381 0.7608 0.87621 0.0
H2394 H 0.36542 0.78084 0.89504 0.0
C2395 C 0.39082 0.77028 0.86927 0.0
C2396 C 0.38864 0.78361 0.87144 0.0
H2397 H 0.38563 0.75063 0.87415 0.0
H2398 H 0.39761 0.76714 0.86188 0.0
C2399 C 0.37961 0.78718 0.88109 0.0
C2400 C 1.01877 0.34004 0.32902 0.0
C2401 C 1.01303 0.32758 0.32793 0.0
H2402 H 0.03636 0.35145 0.32892 0.0
C2403 C 1.02118 0.3169 0.32553 0.0
H2404 H 1.01285 0.34846 0.33107 0.0
C2405 C 0.03469 0.3186 0.32432 0.0
C2406 C 0.04043 0.33105 0.32545 0.0
H2407 H 1.01711 0.30719 0.32443 0.0
H2408 H 0.04061 0.31017 0.32229 0.0
C2409 C 0.03228 0.34174 0.3278 0.0
C2410 C 0.71519 0.02989 0.34465 0.0
C2411 C 0.72167 0.0369 0.3348 0.0
H2412 H 0.71025 1.01122 0.35261 0.0
C2413 C 0.72792 0.02988 0.32487 0.0
H2414 H 0.71004 0.03494 0.35231 0.0
C2415 C 0.72804 1.01622 0.32504 0.0
C2416 C 0.72192 1.00924 0.33515 0.0
H2417 H 0.73313 0.03494 0.31719 0.0
H2418 H 0.73334 1.01116 0.31749 0.0
C2419 C 0.71531 1.01626 0.34483 0.0
C2420 C 1.01786 0.73123 0.32725 0.0
C2421 C 1.01201 0.71878 0.32742 0.0
H2422 H 0.03554 0.74245 0.32814 0.0
C2423 C 1.02008 0.70788 0.32895 0.0
H2424 H 1.01201 0.73984 0.32587 0.0
C2425 C 0.03361 0.70937 0.33023 0.0
C2426 C 0.03946 0.72182 0.33005 0.0
H2427 H 1.01592 0.69815 0.32932 0.0
H2428 H 0.03946 0.70076 0.3316 0.0
C2429 C 0.03139 0.73273 0.32854 0.0
C2430 C 0.32395 0.03083 0.31825 0.0
C2431 C 0.33354 0.03827 0.32474 0.0
H2432 H 0.31685 1.01182 0.31312 0.0
C2433 C 0.34339 0.03167 0.33155 0.0
H2434 H 0.31608 0.03555 0.3131 0.0
C2435 C 0.34383 1.01803 0.33156 0.0
C2436 C 0.33443 1.01061 0.32476 0.0
H2437 H 0.35105 0.03705 0.33652 0.0
H2438 H 0.3518 1.01332 0.33655 0.0
C2439 C 0.32439 1.0172 0.31825 0.0
C2440 C 0.03416 0.70998 0.72063 0.0
C2441 C 0.03972 0.72176 0.71625 0.0
H2442 H 1.01675 0.69941 0.72548 0.0
C2443 C 0.03137 0.73221 0.71352 0.0
H2444 H 0.04023 0.70164 0.72262 0.0
C2445 C 1.01786 0.73093 0.71515 0.0
C2446 C 1.01231 0.71916 0.71957 0.0
H2447 H 0.03529 0.7415 0.71031 0.0
H2448 H 1.01178 0.73926 0.71317 0.0
C2449 C 1.02066 0.70869 0.72226 0.0
C2450 C 0.32633 1.01765 0.73021 0.0
C2451 C 0.3352 1.01082 0.72238 0.0
H2452 H 0.31914 0.03617 0.73632 0.0
C2453 C 0.34358 1.01801 0.71419 0.0
H2454 H 0.31956 1.01244 0.73645 0.0
C2455 C 0.34334 0.03166 0.71412 0.0
C2456 C 0.33472 0.03849 0.72223 0.0
H2457 H 0.35064 1.01311 0.70815 0.0
H2458 H 0.35024 0.03687 0.70802 0.0
C2459 C 0.32609 0.03128 0.73013 0.0
C2460 C 1.01798 0.33193 0.72918 0.0
C2461 C 1.01249 0.32804 0.71722 0.0
H2462 H 0.03536 0.33626 0.73997 0.0
C2463 C 1.02091 0.32578 0.70666 0.0
H2464 H 1.01185 0.33355 0.73759 0.0
C2465 C 0.03443 0.32733 0.70803 0.0
C2466 C 0.03992 0.3312 0.72 0.0
H2467 H 1.01705 0.32298 0.69725 0.0
H2468 H 0.04056 0.32569 0.69963 0.0
C2469 C 0.0315 0.33348 0.73055 0.0
C2470 C 0.7158 1.01698 0.70255 0.0
C2471 C 0.72279 1.00992 0.71193 0.0
H2472 H 0.71035 0.03568 0.69526 0.0
C2473 C 0.72946 1.01689 0.72174 0.0
H2474 H 0.71032 1.01196 0.69501 0.0
C2475 C 0.72947 0.03055 0.72188 0.0
C2476 C 0.72282 0.0376 0.71223 0.0
H2477 H 0.73506 1.0118 0.72905 0.0
H2478 H 0.73508 0.03559 0.7293 0.0
C2479 C 0.71581 0.03061 0.70269 0.0
C2480 C 0.32592 0.33014 1.01654 0.0
C2481 C 0.33744 0.32745 1.00966 0.0
H2482 H 0.31678 0.33236 0.03517 0.0
C2483 C 0.34879 0.32469 1.01682 0.0
H2484 H 0.31703 0.33244 1.01138 0.0
C2485 C 0.34865 0.32465 0.03043 0.0
C2486 C 0.33715 0.32736 0.03733 0.0
H2487 H 0.35778 0.32229 1.0119 0.0
H2488 H 0.35753 0.32221 0.03554 0.0
C2489 C 0.32578 0.3301 0.0302 0.0
C2490 C 0.34066 0.71479 1.01649 0.0
C2491 C 0.33355 0.7241 1.00946 0.0
H2492 H 0.34653 0.70774 0.03522 0.0
C2493 C 0.32604 0.73311 1.01646 0.0
H2494 H 0.34666 0.70779 1.01145 0.0
C2495 C 0.32596 0.73307 0.03008 0.0
C2496 C 0.33339 0.72403 0.03712 0.0
H2497 H 0.32023 0.74026 1.01139 0.0
H2498 H 0.32009 0.7402 0.03511 0.0
C2499 C 0.34058 0.71475 0.03014 0.0
C2500 C 0.72835 0.32507 0.02926 0.0
C2501 C 0.72196 0.33488 0.03631 0.0
H2502 H 0.73375 0.3177 1.01051 0.0
C2503 C 0.7152 0.34448 0.02933 0.0
H2504 H 0.73378 0.3176 0.03428 0.0
C2505 C 0.71518 0.34454 1.01571 0.0
C2506 C 0.72193 0.335 1.00865 0.0
H2507 H 0.70994 0.35203 0.03441 0.0
H2508 H 0.70992 0.35213 1.0107 0.0
C2509 C 0.72834 0.32513 1.01561 0.0
C2510 C 0.72919 0.72302 0.03064 0.0
C2511 C 0.7228 0.71304 0.03761 0.0
H2512 H 0.73462 0.73061 1.01195 0.0
C2513 C 0.71608 0.70333 0.03055 0.0
H2514 H 0.73457 0.73059 0.03573 0.0
C2515 C 0.71612 0.70333 1.01693 0.0
C2516 C 0.72287 0.71305 1.00995 0.0
H2517 H 0.71082 0.69564 0.03557 0.0
H2518 H 0.71089 0.69565 1.01186 0.0
C2519 C 0.72923 0.72303 1.01698 0.0
C2520 C 0.52097 0.82598 0.84058 0.0
C2521 C 0.51239 0.82815 0.83011 0.0
H2522 H 0.54072 0.82594 0.84737 0.0
C2523 C 0.5177 0.83188 0.81804 0.0
H2524 H 0.51725 0.8233 0.85008 0.0
C2525 C 0.5312 0.83339 0.81649 0.0
C2526 C 0.53978 0.83122 0.82696 0.0
H2527 H 0.51144 0.83343 0.8097 0.0
H2528 H 0.53492 0.83607 0.80699 0.0
C2529 C 0.53447 0.82749 0.83903 0.0
C2530 C 0.21546 0.51741 0.84382 0.0
C2531 C 0.22279 0.5105 0.83459 0.0
H2532 H 0.20964 0.53599 0.8511 0.0
C2533 C 0.22969 0.5176 0.82508 0.0
H2534 H 0.2098 0.51227 0.85113 0.0
C2535 C 0.22959 0.53126 0.82507 0.0
C2536 C 0.2226 0.53817 0.83457 0.0
H2537 H 0.23555 0.51263 0.8179 0.0
H2538 H 0.23539 0.53641 0.81788 0.0
C2539 C 0.21536 0.53103 0.84381 0.0
C2540 C 0.53278 0.20807 0.82641 0.0
C2541 C 0.53832 0.22011 0.83007 0.0
H2542 H 0.51537 0.19716 0.82229 0.0
C2543 C 0.52996 0.2307 0.83216 0.0
H2544 H 0.53887 0.19964 0.82492 0.0
C2545 C 0.51645 0.22927 0.83066 0.0
C2546 C 0.51091 0.21723 0.827 0.0
H2547 H 0.53386 0.24018 0.83478 0.0
H2548 H 0.51036 0.2377 0.83214 0.0
C2549 C 0.51927 0.20664 0.82491 0.0
C2550 C 0.84168 0.53179 0.8328 0.0
C2551 C 0.8325 0.53851 0.82522 0.0
H2552 H 0.84949 0.51333 0.83838 0.0
C2553 C 0.82342 0.5312 0.81791 0.0
H2554 H 0.84894 0.53707 0.83842 0.0
C2555 C 0.82374 0.51757 0.81788 0.0
C2556 C 0.83315 0.51085 0.82516 0.0
H2557 H 0.81605 0.53601 0.81215 0.0
H2558 H 0.81662 0.51228 0.81209 0.0
C2559 C 0.842 0.51814 0.83277 0.0
C2560 C 0.5205 0.20859 0.22182 0.0
C2561 C 0.51215 0.21911 0.21937 0.0
H2562 H 0.54007 0.20153 0.22198 0.0
C2563 C 0.51768 0.23098 0.21523 0.0
H2564 H 0.51659 0.19923 0.22481 0.0
C2565 C 0.53119 0.23231 0.21362 0.0
C2566 C 0.53955 0.22179 0.21609 0.0
H2567 H 0.5116 0.23936 0.21344 0.0
H2568 H 0.53511 0.24167 0.21063 0.0
C2569 C 0.534 0.20991 0.22021 0.0
C2570 C 0.82362 0.51717 0.2292 0.0
C2571 C 0.83311 0.51031 0.22218 0.0
H2572 H 0.816 0.53572 0.23465 0.0
C2573 C 0.84217 0.51746 0.21471 0.0
H2574 H 0.81633 0.51199 0.23486 0.0
C2575 C 0.84198 0.53111 0.21459 0.0
C2576 C 0.83272 0.53797 0.22193 0.0
H2577 H 0.84972 0.51254 0.2093 0.0
H2578 H 0.84939 0.53629 0.2091 0.0
C2579 C 0.82343 0.5308 0.22908 0.0
C2580 C 0.53075 0.82982 0.23046 0.0
C2581 C 0.53909 0.83086 0.21963 0.0
H2582 H 0.51117 0.82747 0.23737 0.0
C2583 C 0.53354 0.8305 0.20711 0.0
H2584 H 0.53467 0.82985 0.24025 0.0
C2585 C 0.52004 0.82915 0.20546 0.0
C2586 C 0.5117 0.8281 0.21628 0.0
H2587 H 0.53961 0.8315 0.19855 0.0
H2588 H 0.51613 0.82912 0.19566 0.0
C2589 C 0.51725 0.82846 0.22881 0.0
C2590 C 0.2164 0.53135 0.2016 0.0
C2591 C 0.22281 0.53842 0.21148 0.0
H2592 H 0.21141 0.51264 0.19375 0.0
C2593 C 0.22889 0.53145 0.22157 0.0
H2594 H 0.21138 0.53636 0.19382 0.0
C2595 C 0.22892 0.51779 0.22152 0.0
C2596 C 0.22286 0.51075 0.21139 0.0
H2597 H 0.23404 0.53656 0.22927 0.0
H2598 H 0.23408 0.51277 0.22919 0.0
C2599 C 0.21642 0.51772 0.20156 0.0
C2600 C 0.84709 0.83544 0.51662 0.0
C2601 C 0.8374 0.82868 0.50957 0.0
H2602 H 0.85475 0.84069 0.53532 0.0
C2603 C 0.82743 0.82227 0.51654 0.0
H2604 H 0.85478 0.84071 0.5116 0.0
C2605 C 0.82741 0.82226 0.5302 0.0
C2606 C 0.83737 0.82866 0.53723 0.0
H2607 H 0.81988 0.81685 0.51146 0.0
H2608 H 0.81985 0.81683 0.53523 0.0
C2609 C 0.84708 0.83543 0.53025 0.0
C2610 C 0.8419 0.21576 0.52971 0.0
C2611 C 0.83241 0.2227 0.53667 0.0
H2612 H 0.84966 0.21064 0.51107 0.0
C2613 C 0.82278 0.22933 0.5296 0.0
H2614 H 0.84958 0.21069 0.5348 0.0
C2615 C 0.82283 0.22931 0.51597 0.0
C2616 C 0.83251 0.22265 0.50901 0.0
H2617 H 0.81518 0.23459 0.53461 0.0
H2618 H 0.81526 0.23455 0.51087 0.0
C2619 C 0.84195 0.21574 0.51607 0.0
C2620 C 0.21563 0.84522 0.51698 0.0
C2621 C 0.22243 0.83563 0.51005 0.0
H2622 H 0.21033 0.85293 0.53558 0.0
C2623 C 0.22888 0.82588 0.51714 0.0
H2624 H 0.21033 0.85273 0.51186 0.0
C2625 C 0.22887 0.826 0.53079 0.0
C2626 C 0.22243 0.83586 0.5377 0.0
H2627 H 0.23434 0.81842 0.51215 0.0
H2628 H 0.23433 0.81862 0.53592 0.0
C2629 C 0.21563 0.84534 0.5306 0.0
C2630 C 0.22999 0.22341 0.53057 0.0
C2631 C 0.22349 0.21349 0.53752 0.0
H2632 H 0.23542 0.23101 0.51189 0.0
C2633 C 0.21656 0.20392 0.53045 0.0
H2634 H 0.23552 0.23086 0.53566 0.0
C2635 C 0.2165 0.20401 0.51683 0.0
C2636 C 0.22336 0.21367 0.50986 0.0
H2637 H 0.21122 0.19629 0.53546 0.0
H2638 H 0.21111 0.19645 0.51175 0.0
C2639 C 0.22993 0.2235 0.51691 0.0
loop_
_geom_bond_atom_site_label_1
_geom_bond_atom_site_label_2
_geom_bond_distance
_geom_bond_site_symmetry_2
_ccdc_geom_bond_type
C0 C1 1.264 . S
C0 C5 1.479 . S
C0 C10 1.465 . S
C1 C0 1.264 . S
C1 C3 1.339 . S
C1 H28 0.931 . S
C2 C3 1.395 . S
C2 C4 1.320 . S
C3 C1 1.339 . S
C3 C2 1.395 . S
C3 H29 0.929 . S
C4 C2 1.320 . S
C4 C5 1.405 . S
C4 H30 0.930 . S
C5 C0 1.479 . S
C5 C4 1.405 . S
C5 H31 0.931 . S
U6 O7 2.454 . S
U6 O8 2.458 . S
U6 C9 2.984 . S
U6 C10 2.847 . S
U6 C23 2.882 . S
U6 O24 2.441 . S
U6 O25 2.420 . S
U6 O26 2.455 . S
U6 O27 2.449 . S
O7 U6 2.454 . S
O7 C9 1.353 . S
O8 U6 2.458 . S
O8 C9 1.286 . S
C9 U6 2.984 . S
C9 O7 1.353 . S
C9 O8 1.286 . S
C9 C11 1.363 . S
C10 C0 1.465 . S
C10 U6 2.847 . S
C10 O24 1.249 . S
C10 O25 1.202 . S
C11 C9 1.363 . S
C11 C13 1.408 . S
C11 C16 1.342 . S
C12 C13 1.310 . S
C12 C15 1.461 . S
C12 H32 0.932 . S
C13 C11 1.408 . S
C13 C12 1.310 . S
C13 H33 0.930 . S
C14 C15 1.474 . S
C14 C16 1.285 . S
C14 H34 0.929 . S
C15 C12 1.461 . S
C15 C14 1.474 . S
C16 C11 1.342 . S
C16 C14 1.285 . S
C16 H35 0.930 . S
C17 C20 1.424 . S
C17 C22 1.245 . S
C17 C23 1.428 . S
C18 C21 1.260 . S
C18 C22 1.477 . S
C18 H36 0.932 . S
C19 C20 1.384 . S
C19 C21 1.479 . S
C19 H37 0.929 . S
C20 C17 1.424 . S
C20 C19 1.384 . S
C20 H38 0.928 . S
C21 C18 1.260 . S
C21 C19 1.479 . S
C22 C17 1.245 . S
C22 C18 1.477 . S
C22 H39 0.932 . S
C23 U6 2.882 . S
C23 C17 1.428 . S
C23 O26 1.301 . S
C23 O27 1.282 . S
O24 U6 2.441 . S
O24 C10 1.249 . S
O25 U6 2.420 . S
O25 C10 1.202 . S
O26 U6 2.455 . S
O26 C23 1.301 . S
O27 U6 2.449 . S
O27 C23 1.282 . S
H28 C1 0.931 . S
H29 C3 0.929 . S
H30 C4 0.930 . S
H31 C5 0.931 . S
H32 C12 0.932 . S
H33 C13 0.930 . S
H34 C14 0.929 . S
H35 C16 0.930 . S
H36 C18 0.932 . S
H37 C19 0.929 . S
H38 C20 0.928 . S
H39 C22 0.932 . S
C40 C41 1.264 . S
C40 C45 1.479 . S
C40 C50 1.465 . S
C41 C40 1.264 . S
C41 C43 1.339 . S
C41 H68 0.931 . S
C42 C43 1.395 . S
C42 C44 1.320 . S
C43 C41 1.339 . S
C43 C42 1.395 . S
C43 H69 0.929 . S
C44 C42 1.320 . S
C44 C45 1.405 . S
C44 H70 0.930 . S
C45 C40 1.479 . S
C45 C44 1.405 . S
C45 H71 0.931 . S
U46 O47 2.454 . S
U46 O48 2.458 . S
U46 C49 2.984 . S
U46 C50 2.847 . S
U46 C63 2.882 . S
U46 O64 2.441 . S
U46 O65 2.420 . S
U46 O66 2.455 . S
U46 O67 2.449 . S
O47 U46 2.454 . S
O47 C49 1.353 . S
O48 U46 2.458 . S
O48 C49 1.286 . S
C49 U46 2.984 . S
C49 O47 1.353 . S
C49 O48 1.286 . S
C49 C51 1.363 . S
C50 C40 1.465 . S
C50 U46 2.847 . S
C50 O64 1.249 . S
C50 O65 1.202 . S
C51 C49 1.363 . S
C51 C53 1.408 . S
C51 C56 1.342 . S
C52 C53 1.310 . S
C52 C55 1.461 . S
C52 H72 0.932 . S
C53 C51 1.408 . S
C53 C52 1.310 . S
C53 H73 0.930 . S
C54 C55 1.474 . S
C54 C56 1.285 . S
C54 H74 0.929 . S
C55 C52 1.461 . S
C55 C54 1.474 . S
C56 C51 1.342 . S
C56 C54 1.285 . S
C56 H75 0.930 . S
C57 C60 1.424 . S
C57 C62 1.245 . S
C57 C63 1.428 . S
C58 C61 1.260 . S
C58 C62 1.477 . S
C58 H76 0.932 . S
C59 C60 1.384 . S
C59 C61 1.479 . S
C59 H77 0.929 . S
C60 C57 1.424 . S
C60 C59 1.384 . S
C60 H78 0.928 . S
C61 C58 1.260 . S
C61 C59 1.479 . S
C62 C57 1.245 . S
C62 C58 1.477 . S
C62 H79 0.932 . S
C63 U46 2.882 . S
C63 C57 1.428 . S
C63 O66 1.301 . S
C63 O67 1.282 . S
O64 U46 2.441 . S
O64 C50 1.249 . S
O65 U46 2.420 . S
O65 C50 1.202 . S
O66 U46 2.455 . S
O66 C63 1.301 . S
O67 U46 2.449 . S
O67 C63 1.282 . S
H68 C41 0.931 . S
H69 C43 0.929 . S
H70 C44 0.930 . S
H71 C45 0.931 . S
H72 C52 0.932 . S
H73 C53 0.930 . S
H74 C54 0.929 . S
H75 C56 0.930 . S
H76 C58 0.932 . S
H77 C59 0.929 . S
H78 C60 0.928 . S
H79 C62 0.932 . S
C80 C81 1.264 . S
C80 C85 1.479 . S
C80 C90 1.465 . S
C81 C80 1.264 . S
C81 C83 1.339 . S
C81 H108 0.931 . S
C82 C83 1.395 . S
C82 C84 1.320 . S
C83 C81 1.339 . S
C83 C82 1.395 . S
C83 H109 0.929 . S
C84 C82 1.320 . S
C84 C85 1.405 . S
C84 H110 0.930 . S
C85 C80 1.479 . S
C85 C84 1.405 . S
C85 H111 0.931 . S
U86 O87 2.454 . S
U86 O88 2.458 . S
U86 C89 2.984 . S
U86 C90 2.847 . S
U86 C103 2.882 . S
U86 O104 2.441 . S
U86 O105 2.420 . S
U86 O106 2.455 . S
U86 O107 2.449 . S
O87 U86 2.454 . S
O87 C89 1.353 . S
O88 U86 2.458 . S
O88 C89 1.286 . S
C89 U86 2.984 . S
C89 O87 1.353 . S
C89 O88 1.286 . S
C89 C91 1.363 . S
C90 C80 1.465 . S
C90 U86 2.847 . S
C90 O104 1.249 . S
C90 O105 1.202 . S
C91 C89 1.363 . S
C91 C93 1.408 . S
C91 C96 1.342 . S
C92 C93 1.310 . S
C92 C95 1.461 . S
C92 H112 0.932 . S
C93 C91 1.408 . S
C93 C92 1.310 . S
C93 H113 0.930 . S
C94 C95 1.474 . S
C94 C96 1.285 . S
C94 H114 0.929 . S
C95 C92 1.461 . S
C95 C94 1.474 . S
C96 C91 1.342 . S
C96 C94 1.285 . S
C96 H115 0.930 . S
C97 C100 1.424 . S
C97 C102 1.245 . S
C97 C103 1.428 . S
C98 C101 1.260 . S
C98 C102 1.477 . S
C98 H116 0.932 . S
C99 C100 1.384 . S
C99 C101 1.479 . S
C99 H117 0.929 . S
C100 C97 1.424 . S
C100 C99 1.384 . S
C100 H118 0.928 . S
C101 C98 1.260 . S
C101 C99 1.479 . S
C102 C97 1.245 . S
C102 C98 1.477 . S
C102 H119 0.932 . S
C103 U86 2.882 . S
C103 C97 1.428 . S
C103 O106 1.301 . S
C103 O107 1.282 . S
O104 U86 2.441 . S
O104 C90 1.249 . S
O105 U86 2.420 . S
O105 C90 1.202 . S
O106 U86 2.455 . S
O106 C103 1.301 . S
O107 U86 2.449 . S
O107 C103 1.282 . S
H108 C81 0.931 . S
H109 C83 0.929 . S
H110 C84 0.930 . S
H111 C85 0.931 . S
H112 C92 0.932 . S
H113 C93 0.930 . S
H114 C94 0.929 . S
H115 C96 0.930 . S
H116 C98 0.932 . S
H117 C99 0.929 . S
H118 C100 0.928 . S
H119 C102 0.932 . S
C120 C121 1.264 . S
C120 C125 1.479 . S
C120 C130 1.465 . S
C121 C120 1.264 . S
C121 C123 1.339 . S
C121 H148 0.931 . S
C122 C123 1.395 . S
C122 C124 1.320 . S
C123 C121 1.339 . S
C123 C122 1.395 . S
C123 H149 0.929 . S
C124 C122 1.320 . S
C124 C125 1.405 . S
C124 H150 0.930 . S
C125 C120 1.479 . S
C125 C124 1.405 . S
C125 H151 0.931 . S
U126 O127 2.454 . S
U126 O128 2.458 . S
U126 C129 2.984 . S
U126 C130 2.847 . S
U126 C143 2.882 . S
U126 O144 2.441 . S
U126 O145 2.420 . S
U126 O146 2.455 . S
U126 O147 2.449 . S
O127 U126 2.454 . S
O127 C129 1.353 . S
O128 U126 2.458 . S
O128 C129 1.286 . S
C129 U126 2.984 . S
C129 O127 1.353 . S
C129 O128 1.286 . S
C129 C131 1.363 . S
C130 C120 1.465 . S
C130 U126 2.847 . S
C130 O144 1.249 . S
C130 O145 1.202 . S
C131 C129 1.363 . S
C131 C133 1.408 . S
C131 C136 1.342 . S
C132 C133 1.310 . S
C132 C135 1.461 . S
C132 H152 0.932 . S
C133 C131 1.408 . S
C133 C132 1.310 . S
C133 H153 0.930 . S
C134 C135 1.474 . S
C134 C136 1.285 . S
C134 H154 0.929 . S
C135 C132 1.461 . S
C135 C134 1.474 . S
C136 C131 1.342 . S
C136 C134 1.285 . S
C136 H155 0.930 . S
C137 C140 1.424 . S
C137 C142 1.245 . S
C137 C143 1.428 . S
C138 C141 1.260 . S
C138 C142 1.477 . S
C138 H156 0.932 . S
C139 C140 1.384 . S
C139 C141 1.479 . S
C139 H157 0.929 . S
C140 C137 1.424 . S
C140 C139 1.384 . S
C140 H158 0.928 . S
C141 C138 1.260 . S
C141 C139 1.479 . S
C142 C137 1.245 . S
C142 C138 1.477 . S
C142 H159 0.932 . S
C143 U126 2.882 . S
C143 C137 1.428 . S
C143 O146 1.301 . S
C143 O147 1.282 . S
O144 U126 2.441 . S
O144 C130 1.249 . S
O145 U126 2.420 . S
O145 C130 1.202 . S
O146 U126 2.455 . S
O146 C143 1.301 . S
O147 U126 2.449 . S
O147 C143 1.282 . S
H148 C121 0.931 . S
H149 C123 0.929 . S
H150 C124 0.930 . S
H151 C125 0.931 . S
H152 C132 0.932 . S
H153 C133 0.930 . S
H154 C134 0.929 . S
H155 C136 0.930 . S
H156 C138 0.932 . S
H157 C139 0.929 . S
H158 C140 0.928 . S
H159 C142 0.932 . S
C160 C161 1.264 . S
C160 C165 1.479 . S
C160 C170 1.465 . S
C161 C160 1.264 . S
C161 C163 1.339 . S
C161 H188 0.931 . S
C162 C163 1.395 . S
C162 C164 1.320 . S
C163 C161 1.339 . S
C163 C162 1.395 . S
C163 H189 0.929 . S
C164 C162 1.320 . S
C164 C165 1.405 . S
C164 H190 0.930 . S
C165 C160 1.479 . S
C165 C164 1.405 . S
C165 H191 0.931 . S
U166 O167 2.454 . S
U166 O168 2.458 . S
U166 C169 2.984 . S
U166 C170 2.847 . S
U166 C183 2.882 . S
U166 O184 2.441 . S
U166 O185 2.420 . S
U166 O186 2.455 . S
U166 O187 2.449 . S
O167 U166 2.454 . S
O167 C169 1.353 . S
O168 U166 2.458 . S
O168 C169 1.286 . S
C169 U166 2.984 . S
C169 O167 1.353 . S
C169 O168 1.286 . S
C169 C171 1.363 . S
C170 C160 1.465 . S
C170 U166 2.847 . S
C170 O184 1.249 . S
C170 O185 1.202 . S
C171 C169 1.363 . S
C171 C173 1.408 . S
C171 C176 1.342 . S
C172 C173 1.310 . S
C172 C175 1.461 . S
C172 H192 0.932 . S
C173 C171 1.408 . S
C173 C172 1.310 . S
C173 H193 0.930 . S
C174 C175 1.474 . S
C174 C176 1.285 . S
C174 H194 0.929 . S
C175 C172 1.461 . S
C175 C174 1.474 . S
C176 C171 1.342 . S
C176 C174 1.285 . S
C176 H195 0.930 . S
C177 C180 1.424 . S
C177 C182 1.245 . S
C177 C183 1.428 . S
C178 C181 1.260 . S
C178 C182 1.477 . S
C178 H196 0.932 . S
C179 C180 1.384 . S
C179 C181 1.479 . S
C179 H197 0.929 . S
C180 C177 1.424 . S
C180 C179 1.384 . S
C180 H198 0.928 . S
C181 C178 1.260 . S
C181 C179 1.479 . S
C182 C177 1.245 . S
C182 C178 1.477 . S
C182 H199 0.932 . S
C183 U166 2.882 . S
C183 C177 1.428 . S
C183 O186 1.301 . S
C183 O187 1.282 . S
O184 U166 2.441 . S
O184 C170 1.249 . S
O185 U166 2.420 . S
O185 C170 1.202 . S
O186 U166 2.455 . S
O186 C183 1.301 . S
O187 U166 2.449 . S
O187 C183 1.282 . S
H188 C161 0.931 . S
H189 C163 0.929 . S
H190 C164 0.930 . S
H191 C165 0.931 . S
H192 C172 0.932 . S
H193 C173 0.930 . S
H194 C174 0.929 . S
H195 C176 0.930 . S
H196 C178 0.932 . S
H197 C179 0.929 . S
H198 C180 0.928 . S
H199 C182 0.932 . S
C200 C201 1.264 . S
C200 C205 1.479 . S
C200 C210 1.465 . S
C201 C200 1.264 . S
C201 C203 1.339 . S
C201 H228 0.931 . S
C202 C203 1.395 . S
C202 C204 1.320 . S
C203 C201 1.339 . S
C203 C202 1.395 . S
C203 H229 0.929 . S
C204 C202 1.320 . S
C204 C205 1.405 . S
C204 H230 0.930 . S
C205 C200 1.479 . S
C205 C204 1.405 . S
C205 H231 0.931 . S
U206 O207 2.454 . S
U206 O208 2.458 . S
U206 C209 2.984 . S
U206 C210 2.847 . S
U206 C223 2.882 . S
U206 O224 2.441 . S
U206 O225 2.420 . S
U206 O226 2.455 . S
U206 O227 2.449 . S
O207 U206 2.454 . S
O207 C209 1.353 . S
O208 U206 2.458 . S
O208 C209 1.286 . S
C209 U206 2.984 . S
C209 O207 1.353 . S
C209 O208 1.286 . S
C209 C211 1.363 . S
C210 C200 1.465 . S
C210 U206 2.847 . S
C210 O224 1.249 . S
C210 O225 1.202 . S
C211 C209 1.363 . S
C211 C213 1.408 . S
C211 C216 1.342 . S
C212 C213 1.310 . S
C212 C215 1.461 . S
C212 H232 0.932 . S
C213 C211 1.408 . S
C213 C212 1.310 . S
C213 H233 0.930 . S
C214 C215 1.474 . S
C214 C216 1.285 . S
C214 H234 0.929 . S
C215 C212 1.461 . S
C215 C214 1.474 . S
C216 C211 1.342 . S
C216 C214 1.285 . S
C216 H235 0.930 . S
C217 C220 1.424 . S
C217 C222 1.245 . S
C217 C223 1.428 . S
C218 C221 1.260 . S
C218 C222 1.477 . S
C218 H236 0.932 . S
C219 C220 1.384 . S
C219 C221 1.479 . S
C219 H237 0.929 . S
C220 C217 1.424 . S
C220 C219 1.384 . S
C220 H238 0.928 . S
C221 C218 1.260 . S
C221 C219 1.479 . S
C222 C217 1.245 . S
C222 C218 1.477 . S
C222 H239 0.932 . S
C223 U206 2.882 . S
C223 C217 1.428 . S
C223 O226 1.301 . S
C223 O227 1.282 . S
O224 U206 2.441 . S
O224 C210 1.249 . S
O225 U206 2.420 . S
O225 C210 1.202 . S
O226 U206 2.455 . S
O226 C223 1.301 . S
O227 U206 2.449 . S
O227 C223 1.282 . S
H228 C201 0.931 . S
H229 C203 0.929 . S
H230 C204 0.930 . S
H231 C205 0.931 . S
H232 C212 0.932 . S
H233 C213 0.930 . S
H234 C214 0.929 . S
H235 C216 0.930 . S
H236 C218 0.932 . S
H237 C219 0.929 . S
H238 C220 0.928 . S
H239 C222 0.932 . S
C240 C241 1.264 . S
C240 C245 1.479 . S
C240 C250 1.465 . S
C241 C240 1.264 . S
C241 C243 1.339 . S
C241 H268 0.931 . S
C242 C243 1.395 . S
C242 C244 1.320 . S
C243 C241 1.339 . S
C243 C242 1.395 . S
C243 H269 0.929 . S
C244 C242 1.320 . S
C244 C245 1.405 . S
C244 H270 0.930 . S
C245 C240 1.479 . S
C245 C244 1.405 . S
C245 H271 0.931 . S
U246 O247 2.454 . S
U246 O248 2.458 . S
U246 C249 2.984 . S
U246 C250 2.847 . S
U246 C263 2.882 . S
U246 O264 2.441 . S
U246 O265 2.420 . S
U246 O266 2.455 . S
U246 O267 2.449 . S
O247 U246 2.454 . S
O247 C249 1.353 . S
O248 U246 2.458 . S
O248 C249 1.286 . S
C249 U246 2.984 . S
C249 O247 1.353 . S
C249 O248 1.286 . S
C249 C251 1.363 . S
C250 C240 1.465 . S
C250 U246 2.847 . S
C250 O264 1.249 . S
C250 O265 1.202 . S
C251 C249 1.363 . S
C251 C253 1.408 . S
C251 C256 1.342 . S
C252 C253 1.310 . S
C252 C255 1.461 . S
C252 H272 0.932 . S
C253 C251 1.408 . S
C253 C252 1.310 . S
C253 H273 0.930 . S
C254 C255 1.474 . S
C254 C256 1.285 . S
C254 H274 0.929 . S
C255 C252 1.461 . S
C255 C254 1.474 . S
C256 C251 1.342 . S
C256 C254 1.285 . S
C256 H275 0.930 . S
C257 C260 1.424 . S
C257 C262 1.245 . S
C257 C263 1.428 . S
C258 C261 1.260 . S
C258 C262 1.477 . S
C258 H276 0.932 . S
C259 C260 1.384 . S
C259 C261 1.479 . S
C259 H277 0.929 . S
C260 C257 1.424 . S
C260 C259 1.384 . S
C260 H278 0.928 . S
C261 C258 1.260 . S
C261 C259 1.479 . S
C262 C257 1.245 . S
C262 C258 1.477 . S
C262 H279 0.932 . S
C263 U246 2.882 . S
C263 C257 1.428 . S
C263 O266 1.301 . S
C263 O267 1.282 . S
O264 U246 2.441 . S
O264 C250 1.249 . S
O265 U246 2.420 . S
O265 C250 1.202 . S
O266 U246 2.455 . S
O266 C263 1.301 . S
O267 U246 2.449 . S
O267 C263 1.282 . S
H268 C241 0.931 . S
H269 C243 0.929 . S
H270 C244 0.930 . S
H271 C245 0.931 . S
H272 C252 0.932 . S
H273 C253 0.930 . S
H274 C254 0.929 . S
H275 C256 0.930 . S
H276 C258 0.932 . S
H277 C259 0.929 . S
H278 C260 0.928 . S
H279 C262 0.932 . S
C280 C281 1.264 . S
C280 C285 1.479 . S
C280 C290 1.465 . S
C281 C280 1.264 . S
C281 C283 1.339 . S
C281 H308 0.931 . S
C282 C283 1.395 . S
C282 C284 1.320 . S
C283 C281 1.339 . S
C283 C282 1.395 . S
C283 H309 0.929 . S
C284 C282 1.320 . S
C284 C285 1.405 . S
C284 H310 0.930 . S
C285 C280 1.479 . S
C285 C284 1.405 . S
C285 H311 0.931 . S
U286 O287 2.454 . S
U286 O288 2.458 . S
U286 C289 2.984 . S
U286 C290 2.847 . S
U286 C303 2.882 . S
U286 O304 2.441 . S
U286 O305 2.420 . S
U286 O306 2.455 . S
U286 O307 2.449 . S
O287 U286 2.454 . S
O287 C289 1.353 . S
O288 U286 2.458 . S
O288 C289 1.286 . S
C289 U286 2.984 . S
C289 O287 1.353 . S
C289 O288 1.286 . S
C289 C291 1.363 . S
C290 C280 1.465 . S
C290 U286 2.847 . S
C290 O304 1.249 . S
C290 O305 1.202 . S
C291 C289 1.363 . S
C291 C293 1.408 . S
C291 C296 1.342 . S
C292 C293 1.310 . S
C292 C295 1.461 . S
C292 H312 0.932 . S
C293 C291 1.408 . S
C293 C292 1.310 . S
C293 H313 0.930 . S
C294 C295 1.474 . S
C294 C296 1.285 . S
C294 H314 0.929 . S
C295 C292 1.461 . S
C295 C294 1.474 . S
C296 C291 1.342 . S
C296 C294 1.285 . S
C296 H315 0.930 . S
C297 C300 1.424 . S
C297 C302 1.245 . S
C297 C303 1.428 . S
C298 C301 1.260 . S
C298 C302 1.477 . S
C298 H316 0.932 . S
C299 C300 1.384 . S
C299 C301 1.479 . S
C299 H317 0.929 . S
C300 C297 1.424 . S
C300 C299 1.384 . S
C300 H318 0.928 . S
C301 C298 1.260 . S
C301 C299 1.479 . S
C302 C297 1.245 . S
C302 C298 1.477 . S
C302 H319 0.932 . S
C303 U286 2.882 . S
C303 C297 1.428 . S
C303 O306 1.301 . S
C303 O307 1.282 . S
O304 U286 2.441 . S
O304 C290 1.249 . S
O305 U286 2.420 . S
O305 C290 1.202 . S
O306 U286 2.455 . S
O306 C303 1.301 . S
O307 U286 2.449 . S
O307 C303 1.282 . S
H308 C281 0.931 . S
H309 C283 0.929 . S
H310 C284 0.930 . S
H311 C285 0.931 . S
H312 C292 0.932 . S
H313 C293 0.930 . S
H314 C294 0.929 . S
H315 C296 0.930 . S
H316 C298 0.932 . S
H317 C299 0.929 . S
H318 C300 0.928 . S
H319 C302 0.932 . S
C320 C321 1.264 . S
C320 C325 1.479 . S
C320 C330 1.465 . S
C321 C320 1.264 . S
C321 C323 1.339 . S
C321 H348 0.931 . S
C322 C323 1.395 . S
C322 C324 1.320 . S
C323 C321 1.339 . S
C323 C322 1.395 . S
C323 H349 0.929 . S
C324 C322 1.320 . S
C324 C325 1.405 . S
C324 H350 0.930 . S
C325 C320 1.479 . S
C325 C324 1.405 . S
C325 H351 0.931 . S
U326 O327 2.454 . S
U326 O328 2.458 . S
U326 C329 2.984 . S
U326 C330 2.847 . S
U326 C343 2.882 . S
U326 O344 2.441 . S
U326 O345 2.420 . S
U326 O346 2.455 . S
U326 O347 2.449 . S
O327 U326 2.454 . S
O327 C329 1.353 . S
O328 U326 2.458 . S
O328 C329 1.286 . S
C329 U326 2.984 . S
C329 O327 1.353 . S
C329 O328 1.286 . S
C329 C331 1.363 . S
C330 C320 1.465 . S
C330 U326 2.847 . S
C330 O344 1.249 . S
C330 O345 1.202 . S
C331 C329 1.363 . S
C331 C333 1.408 . S
C331 C336 1.342 . S
C332 C333 1.310 . S
C332 C335 1.461 . S
C332 H352 0.932 . S
C333 C331 1.408 . S
C333 C332 1.310 . S
C333 H353 0.930 . S
C334 C335 1.474 . S
C334 C336 1.285 . S
C334 H354 0.929 . S
C335 C332 1.461 . S
C335 C334 1.474 . S
C336 C331 1.342 . S
C336 C334 1.285 . S
C336 H355 0.930 . S
C337 C340 1.424 . S
C337 C342 1.245 . S
C337 C343 1.428 . S
C338 C341 1.260 . S
C338 C342 1.477 . S
C338 H356 0.932 . S
C339 C340 1.384 . S
C339 C341 1.479 . S
C339 H357 0.929 . S
C340 C337 1.424 . S
C340 C339 1.384 . S
C340 H358 0.928 . S
C341 C338 1.260 . S
C341 C339 1.479 . S
C342 C337 1.245 . S
C342 C338 1.477 . S
C342 H359 0.932 . S
C343 U326 2.882 . S
C343 C337 1.428 . S
C343 O346 1.301 . S
C343 O347 1.282 . S
O344 U326 2.441 . S
O344 C330 1.249 . S
O345 U326 2.420 . S
O345 C330 1.202 . S
O346 U326 2.455 . S
O346 C343 1.301 . S
O347 U326 2.449 . S
O347 C343 1.282 . S
H348 C321 0.931 . S
H349 C323 0.929 . S
H350 C324 0.930 . S
H351 C325 0.931 . S
H352 C332 0.932 . S
H353 C333 0.930 . S
H354 C334 0.929 . S
H355 C336 0.930 . S
H356 C338 0.932 . S
H357 C339 0.929 . S
H358 C340 0.928 . S
H359 C342 0.932 . S
C360 C361 1.264 . S
C360 C365 1.479 . S
C360 C370 1.465 . S
C361 C360 1.264 . S
C361 C363 1.339 . S
C361 H388 0.931 . S
C362 C363 1.395 . S
C362 C364 1.320 . S
C363 C361 1.339 . S
C363 C362 1.395 . S
C363 H389 0.929 . S
C364 C362 1.320 . S
C364 C365 1.405 . S
C364 H390 0.930 . S
C365 C360 1.479 . S
C365 C364 1.405 . S
C365 H391 0.931 . S
U366 O367 2.454 . S
U366 O368 2.458 . S
U366 C369 2.984 . S
U366 C370 2.847 . S
U366 C383 2.882 . S
U366 O384 2.441 . S
U366 O385 2.420 . S
U366 O386 2.455 . S
U366 O387 2.449 . S
O367 U366 2.454 . S
O367 C369 1.353 . S
O368 U366 2.458 . S
O368 C369 1.286 . S
C369 U366 2.984 . S
C369 O367 1.353 . S
C369 O368 1.286 . S
C369 C371 1.363 . S
C370 C360 1.465 . S
C370 U366 2.847 . S
C370 O384 1.249 . S
C370 O385 1.202 . S
C371 C369 1.363 . S
C371 C373 1.408 . S
C371 C376 1.342 . S
C372 C373 1.310 . S
C372 C375 1.461 . S
C372 H392 0.932 . S
C373 C371 1.408 . S
C373 C372 1.310 . S
C373 H393 0.930 . S
C374 C375 1.474 . S
C374 C376 1.285 . S
C374 H394 0.929 . S
C375 C372 1.461 . S
C375 C374 1.474 . S
C376 C371 1.342 . S
C376 C374 1.285 . S
C376 H395 0.930 . S
C377 C380 1.424 . S
C377 C382 1.245 . S
C377 C383 1.428 . S
C378 C381 1.260 . S
C378 C382 1.477 . S
C378 H396 0.932 . S
C379 C380 1.384 . S
C379 C381 1.479 . S
C379 H397 0.929 . S
C380 C377 1.424 . S
C380 C379 1.384 . S
C380 H398 0.928 . S
C381 C378 1.260 . S
C381 C379 1.479 . S
C382 C377 1.245 . S
C382 C378 1.477 . S
C382 H399 0.932 . S
C383 U366 2.882 . S
C383 C377 1.428 . S
C383 O386 1.301 . S
C383 O387 1.282 . S
O384 U366 2.441 . S
O384 C370 1.249 . S
O385 U366 2.420 . S
O385 C370 1.202 . S
O386 U366 2.455 . S
O386 C383 1.301 . S
O387 U366 2.449 . S
O387 C383 1.282 . S
H388 C361 0.931 . S
H389 C363 0.929 . S
H390 C364 0.930 . S
H391 C365 0.931 . S
H392 C372 0.932 . S
H393 C373 0.930 . S
H394 C374 0.929 . S
H395 C376 0.930 . S
H396 C378 0.932 . S
H397 C379 0.929 . S
H398 C380 0.928 . S
H399 C382 0.932 . S
C400 C401 1.264 . S
C400 C405 1.479 . S
C400 C410 1.465 . S
C401 C400 1.264 . S
C401 C403 1.339 . S
C401 H428 0.931 . S
C402 C403 1.395 . S
C402 C404 1.320 . S
C403 C401 1.339 . S
C403 C402 1.395 . S
C403 H429 0.929 . S
C404 C402 1.320 . S
C404 C405 1.405 . S
C404 H430 0.930 . S
C405 C400 1.479 . S
C405 C404 1.405 . S
C405 H431 0.931 . S
U406 O407 2.454 . S
U406 O408 2.458 . S
U406 C409 2.984 . S
U406 C410 2.847 . S
U406 C423 2.882 . S
U406 O424 2.441 . S
U406 O425 2.420 . S
U406 O426 2.455 . S
U406 O427 2.449 . S
O407 U406 2.454 . S
O407 C409 1.353 . S
O408 U406 2.458 . S
O408 C409 1.286 . S
C409 U406 2.984 . S
C409 O407 1.353 . S
C409 O408 1.286 . S
C409 C411 1.363 . S
C410 C400 1.465 . S
C410 U406 2.847 . S
C410 O424 1.249 . S
C410 O425 1.202 . S
C411 C409 1.363 . S
C411 C413 1.408 . S
C411 C416 1.342 . S
C412 C413 1.310 . S
C412 C415 1.461 . S
C412 H432 0.932 . S
C413 C411 1.408 . S
C413 C412 1.310 . S
C413 H433 0.930 . S
C414 C415 1.474 . S
C414 C416 1.285 . S
C414 H434 0.929 . S
C415 C412 1.461 . S
C415 C414 1.474 . S
C416 C411 1.342 . S
C416 C414 1.285 . S
C416 H435 0.930 . S
C417 C420 1.424 . S
C417 C422 1.245 . S
C417 C423 1.428 . S
C418 C421 1.260 . S
C418 C422 1.477 . S
C418 H436 0.932 . S
C419 C420 1.384 . S
C419 C421 1.479 . S
C419 H437 0.929 . S
C420 C417 1.424 . S
C420 C419 1.384 . S
C420 H438 0.928 . S
C421 C418 1.260 . S
C421 C419 1.479 . S
C422 C417 1.245 . S
C422 C418 1.477 . S
C422 H439 0.932 . S
C423 U406 2.882 . S
C423 C417 1.428 . S
C423 O426 1.301 . S
C423 O427 1.282 . S
O424 U406 2.441 . S
O424 C410 1.249 . S
O425 U406 2.420 . S
O425 C410 1.202 . S
O426 U406 2.455 . S
O426 C423 1.301 . S
O427 U406 2.449 . S
O427 C423 1.282 . S
H428 C401 0.931 . S
H429 C403 0.929 . S
H430 C404 0.930 . S
H431 C405 0.931 . S
H432 C412 0.932 . S
H433 C413 0.930 . S
H434 C414 0.929 . S
H435 C416 0.930 . S
H436 C418 0.932 . S
H437 C419 0.929 . S
H438 C420 0.928 . S
H439 C422 0.932 . S
C440 C441 1.264 . S
C440 C445 1.479 . S
C440 C450 1.465 . S
C441 C440 1.264 . S
C441 C443 1.339 . S
C441 H468 0.931 . S
C442 C443 1.395 . S
C442 C444 1.320 . S
C443 C441 1.339 . S
C443 C442 1.395 . S
C443 H469 0.929 . S
C444 C442 1.320 . S
C444 C445 1.405 . S
C444 H470 0.930 . S
C445 C440 1.479 . S
C445 C444 1.405 . S
C445 H471 0.931 . S
U446 O447 2.454 . S
U446 O448 2.458 . S
U446 C449 2.984 . S
U446 C450 2.847 . S
U446 C463 2.882 . S
U446 O464 2.441 . S
U446 O465 2.420 . S
U446 O466 2.455 . S
U446 O467 2.449 . S
O447 U446 2.454 . S
O447 C449 1.353 . S
O448 U446 2.458 . S
O448 C449 1.286 . S
C449 U446 2.984 . S
C449 O447 1.353 . S
C449 O448 1.286 . S
C449 C451 1.363 . S
C450 C440 1.465 . S
C450 U446 2.847 . S
C450 O464 1.249 . S
C450 O465 1.202 . S
C451 C449 1.363 . S
C451 C453 1.408 . S
C451 C456 1.342 . S
C452 C453 1.310 . S
C452 C455 1.461 . S
C452 H472 0.932 . S
C453 C451 1.408 . S
C453 C452 1.310 . S
C453 H473 0.930 . S
C454 C455 1.474 . S
C454 C456 1.285 . S
C454 H474 0.929 . S
C455 C452 1.461 . S
C455 C454 1.474 . S
C456 C451 1.342 . S
C456 C454 1.285 . S
C456 H475 0.930 . S
C457 C460 1.424 . S
C457 C462 1.245 . S
C457 C463 1.428 . S
C458 C461 1.260 . S
C458 C462 1.477 . S
C458 H476 0.932 . S
C459 C460 1.384 . S
C459 C461 1.479 . S
C459 H477 0.929 . S
C460 C457 1.424 . S
C460 C459 1.384 . S
C460 H478 0.928 . S
C461 C458 1.260 . S
C461 C459 1.479 . S
C462 C457 1.245 . S
C462 C458 1.477 . S
C462 H479 0.932 . S
C463 U446 2.882 . S
C463 C457 1.428 . S
C463 O466 1.301 . S
C463 O467 1.282 . S
O464 U446 2.441 . S
O464 C450 1.249 . S
O465 U446 2.420 . S
O465 C450 1.202 . S
O466 U446 2.455 . S
O466 C463 1.301 . S
O467 U446 2.449 . S
O467 C463 1.282 . S
H468 C441 0.931 . S
H469 C443 0.929 . S
H470 C444 0.930 . S
H471 C445 0.931 . S
H472 C452 0.932 . S
H473 C453 0.930 . S
H474 C454 0.929 . S
H475 C456 0.930 . S
H476 C458 0.932 . S
H477 C459 0.929 . S
H478 C460 0.928 . S
H479 C462 0.932 . S
C480 C481 1.264 . S
C480 C485 1.479 . S
C480 C490 1.465 . S
C481 C480 1.264 . S
C481 C483 1.339 . S
C481 H508 0.931 . S
C482 C483 1.395 . S
C482 C484 1.320 . S
C483 C481 1.339 . S
C483 C482 1.395 . S
C483 H509 0.929 . S
C484 C482 1.320 . S
C484 C485 1.405 . S
C484 H510 0.930 . S
C485 C480 1.479 . S
C485 C484 1.405 . S
C485 H511 0.931 . S
U486 O487 2.454 . S
U486 O488 2.458 . S
U486 C489 2.984 . S
U486 C490 2.847 . S
U486 C503 2.882 . S
U486 O504 2.441 . S
U486 O505 2.420 . S
U486 O506 2.455 . S
U486 O507 2.449 . S
O487 U486 2.454 . S
O487 C489 1.353 . S
O488 U486 2.458 . S
O488 C489 1.286 . S
C489 U486 2.984 . S
C489 O487 1.353 . S
C489 O488 1.286 . S
C489 C491 1.363 . S
C490 C480 1.465 . S
C490 U486 2.847 . S
C490 O504 1.249 . S
C490 O505 1.202 . S
C491 C489 1.363 . S
C491 C493 1.408 . S
C491 C496 1.342 . S
C492 C493 1.310 . S
C492 C495 1.461 . S
C492 H512 0.932 . S
C493 C491 1.408 . S
C493 C492 1.310 . S
C493 H513 0.930 . S
C494 C495 1.474 . S
C494 C496 1.285 . S
C494 H514 0.929 . S
C495 C492 1.461 . S
C495 C494 1.474 . S
C496 C491 1.342 . S
C496 C494 1.285 . S
C496 H515 0.930 . S
C497 C500 1.424 . S
C497 C502 1.245 . S
C497 C503 1.428 . S
C498 C501 1.260 . S
C498 C502 1.477 . S
C498 H516 0.932 . S
C499 C500 1.384 . S
C499 C501 1.479 . S
C499 H517 0.929 . S
C500 C497 1.424 . S
C500 C499 1.384 . S
C500 H518 0.928 . S
C501 C498 1.260 . S
C501 C499 1.479 . S
C502 C497 1.245 . S
C502 C498 1.477 . S
C502 H519 0.932 . S
C503 U486 2.882 . S
C503 C497 1.428 . S
C503 O506 1.301 . S
C503 O507 1.282 . S
O504 U486 2.441 . S
O504 C490 1.249 . S
O505 U486 2.420 . S
O505 C490 1.202 . S
O506 U486 2.455 . S
O506 C503 1.301 . S
O507 U486 2.449 . S
O507 C503 1.282 . S
H508 C481 0.931 . S
H509 C483 0.929 . S
H510 C484 0.930 . S
H511 C485 0.931 . S
H512 C492 0.932 . S
H513 C493 0.930 . S
H514 C494 0.929 . S
H515 C496 0.930 . S
H516 C498 0.932 . S
H517 C499 0.929 . S
H518 C500 0.928 . S
H519 C502 0.932 . S
C520 C521 1.264 . S
C520 C525 1.479 . S
C520 C530 1.465 . S
C521 C520 1.264 . S
C521 C523 1.339 . S
C521 H548 0.931 . S
C522 C523 1.395 . S
C522 C524 1.320 . S
C523 C521 1.339 . S
C523 C522 1.395 . S
C523 H549 0.929 . S
C524 C522 1.320 . S
C524 C525 1.405 . S
C524 H550 0.930 . S
C525 C520 1.479 . S
C525 C524 1.405 . S
C525 H551 0.931 . S
U526 O527 2.454 . S
U526 O528 2.458 . S
U526 C529 2.984 . S
U526 C530 2.847 . S
U526 C543 2.882 . S
U526 O544 2.441 . S
U526 O545 2.420 . S
U526 O546 2.455 . S
U526 O547 2.449 . S
O527 U526 2.454 . S
O527 C529 1.353 . S
O528 U526 2.458 . S
O528 C529 1.286 . S
C529 U526 2.984 . S
C529 O527 1.353 . S
C529 O528 1.286 . S
C529 C531 1.363 . S
C530 C520 1.465 . S
C530 U526 2.847 . S
C530 O544 1.249 . S
C530 O545 1.202 . S
C531 C529 1.363 . S
C531 C533 1.408 . S
C531 C536 1.342 . S
C532 C533 1.310 . S
C532 C535 1.461 . S
C532 H552 0.932 . S
C533 C531 1.408 . S
C533 C532 1.310 . S
C533 H553 0.930 . S
C534 C535 1.474 . S
C534 C536 1.285 . S
C534 H554 0.929 . S
C535 C532 1.461 . S
C535 C534 1.474 . S
C536 C531 1.342 . S
C536 C534 1.285 . S
C536 H555 0.930 . S
C537 C540 1.424 . S
C537 C542 1.245 . S
C537 C543 1.428 . S
C538 C541 1.260 . S
C538 C542 1.477 . S
C538 H556 0.932 . S
C539 C540 1.384 . S
C539 C541 1.479 . S
C539 H557 0.929 . S
C540 C537 1.424 . S
C540 C539 1.384 . S
C540 H558 0.928 . S
C541 C538 1.260 . S
C541 C539 1.479 . S
C542 C537 1.245 . S
C542 C538 1.477 . S
C542 H559 0.932 . S
C543 U526 2.882 . S
C543 C537 1.428 . S
C543 O546 1.301 . S
C543 O547 1.282 . S
O544 U526 2.441 . S
O544 C530 1.249 . S
O545 U526 2.420 . S
O545 C530 1.202 . S
O546 U526 2.455 . S
O546 C543 1.301 . S
O547 U526 2.449 . S
O547 C543 1.282 . S
H548 C521 0.931 . S
H549 C523 0.929 . S
H550 C524 0.930 . S
H551 C525 0.931 . S
H552 C532 0.932 . S
H553 C533 0.930 . S
H554 C534 0.929 . S
H555 C536 0.930 . S
H556 C538 0.932 . S
H557 C539 0.929 . S
H558 C540 0.928 . S
H559 C542 0.932 . S
C560 C561 1.264 . S
C560 C565 1.479 . S
C560 C570 1.465 . S
C561 C560 1.264 . S
C561 C563 1.339 . S
C561 H588 0.931 . S
C562 C563 1.395 . S
C562 C564 1.320 . S
C563 C561 1.339 . S
C563 C562 1.395 . S
C563 H589 0.929 . S
C564 C562 1.320 . S
C564 C565 1.405 . S
C564 H590 0.930 . S
C565 C560 1.479 . S
C565 C564 1.405 . S
C565 H591 0.931 . S
U566 O567 2.454 . S
U566 O568 2.458 . S
U566 C569 2.984 . S
U566 C570 2.847 . S
U566 C583 2.882 . S
U566 O584 2.441 . S
U566 O585 2.420 . S
U566 O586 2.455 . S
U566 O587 2.449 . S
O567 U566 2.454 . S
O567 C569 1.353 . S
O568 U566 2.458 . S
O568 C569 1.286 . S
C569 U566 2.984 . S
C569 O567 1.353 . S
C569 O568 1.286 . S
C569 C571 1.363 . S
C570 C560 1.465 . S
C570 U566 2.847 . S
C570 O584 1.249 . S
C570 O585 1.202 . S
C571 C569 1.363 . S
C571 C573 1.408 . S
C571 C576 1.342 . S
C572 C573 1.310 . S
C572 C575 1.461 . S
C572 H592 0.932 . S
C573 C571 1.408 . S
C573 C572 1.310 . S
C573 H593 0.930 . S
C574 C575 1.474 . S
C574 C576 1.285 . S
C574 H594 0.929 . S
C575 C572 1.461 . S
C575 C574 1.474 . S
C576 C571 1.342 . S
C576 C574 1.285 . S
C576 H595 0.930 . S
C577 C580 1.424 . S
C577 C582 1.245 . S
C577 C583 1.428 . S
C578 C581 1.260 . S
C578 C582 1.477 . S
C578 H596 0.932 . S
C579 C580 1.384 . S
C579 C581 1.479 . S
C579 H597 0.929 . S
C580 C577 1.424 . S
C580 C579 1.384 . S
C580 H598 0.928 . S
C581 C578 1.260 . S
C581 C579 1.479 . S
C582 C577 1.245 . S
C582 C578 1.477 . S
C582 H599 0.932 . S
C583 U566 2.882 . S
C583 C577 1.428 . S
C583 O586 1.301 . S
C583 O587 1.282 . S
O584 U566 2.441 . S
O584 C570 1.249 . S
O585 U566 2.420 . S
O585 C570 1.202 . S
O586 U566 2.455 . S
O586 C583 1.301 . S
O587 U566 2.449 . S
O587 C583 1.282 . S
H588 C561 0.931 . S
H589 C563 0.929 . S
H590 C564 0.930 . S
H591 C565 0.931 . S
H592 C572 0.932 . S
H593 C573 0.930 . S
H594 C574 0.929 . S
H595 C576 0.930 . S
H596 C578 0.932 . S
H597 C579 0.929 . S
H598 C580 0.928 . S
H599 C582 0.932 . S
C600 C601 1.264 . S
C600 C605 1.479 . S
C600 C610 1.465 . S
C601 C600 1.264 . S
C601 C603 1.339 . S
C601 H628 0.931 . S
C602 C603 1.395 . S
C602 C604 1.320 . S
C603 C601 1.339 . S
C603 C602 1.395 . S
C603 H629 0.929 . S
C604 C602 1.320 . S
C604 C605 1.405 . S
C604 H630 0.930 . S
C605 C600 1.479 . S
C605 C604 1.405 . S
C605 H631 0.931 . S
U606 O607 2.454 . S
U606 O608 2.458 . S
U606 C609 2.984 . S
U606 C610 2.847 . S
U606 C623 2.882 . S
U606 O624 2.441 . S
U606 O625 2.420 . S
U606 O626 2.455 . S
U606 O627 2.449 . S
O607 U606 2.454 . S
O607 C609 1.353 . S
O608 U606 2.458 . S
O608 C609 1.286 . S
C609 U606 2.984 . S
C609 O607 1.353 . S
C609 O608 1.286 . S
C609 C611 1.363 . S
C610 C600 1.465 . S
C610 U606 2.847 . S
C610 O624 1.249 . S
C610 O625 1.202 . S
C611 C609 1.363 . S
C611 C613 1.408 . S
C611 C616 1.342 . S
C612 C613 1.310 . S
C612 C615 1.461 . S
C612 H632 0.932 . S
C613 C611 1.408 . S
C613 C612 1.310 . S
C613 H633 0.930 . S
C614 C615 1.474 . S
C614 C616 1.285 . S
C614 H634 0.929 . S
C615 C612 1.461 . S
C615 C614 1.474 . S
C616 C611 1.342 . S
C616 C614 1.285 . S
C616 H635 0.930 . S
C617 C620 1.424 . S
C617 C622 1.245 . S
C617 C623 1.428 . S
C618 C621 1.260 . S
C618 C622 1.477 . S
C618 H636 0.932 . S
C619 C620 1.384 . S
C619 C621 1.479 . S
C619 H637 0.929 . S
C620 C617 1.424 . S
C620 C619 1.384 . S
C620 H638 0.928 . S
C621 C618 1.260 . S
C621 C619 1.479 . S
C622 C617 1.245 . S
C622 C618 1.477 . S
C622 H639 0.932 . S
C623 U606 2.882 . S
C623 C617 1.428 . S
C623 O626 1.301 . S
C623 O627 1.282 . S
O624 U606 2.441 . S
O624 C610 1.249 . S
O625 U606 2.420 . S
O625 C610 1.202 . S
O626 U606 2.455 . S
O626 C623 1.301 . S
O627 U606 2.449 . S
O627 C623 1.282 . S
H628 C601 0.931 . S
H629 C603 0.929 . S
H630 C604 0.930 . S
H631 C605 0.931 . S
H632 C612 0.932 . S
H633 C613 0.930 . S
H634 C614 0.929 . S
H635 C616 0.930 . S
H636 C618 0.932 . S
H637 C619 0.929 . S
H638 C620 0.928 . S
H639 C622 0.932 . S
C640 C641 1.264 . S
C640 C645 1.479 . S
C640 C650 1.465 . S
C641 C640 1.264 . S
C641 C643 1.339 . S
C641 H668 0.931 . S
C642 C643 1.395 . S
C642 C644 1.320 . S
C643 C641 1.339 . S
C643 C642 1.395 . S
C643 H669 0.929 . S
C644 C642 1.320 . S
C644 C645 1.405 . S
C644 H670 0.930 . S
C645 C640 1.479 . S
C645 C644 1.405 . S
C645 H671 0.931 . S
U646 O647 2.454 . S
U646 O648 2.458 . S
U646 C649 2.984 . S
U646 C650 2.847 . S
U646 C663 2.882 . S
U646 O664 2.441 . S
U646 O665 2.420 . S
U646 O666 2.455 . S
U646 O667 2.449 . S
O647 U646 2.454 . S
O647 C649 1.353 . S
O648 U646 2.458 . S
O648 C649 1.286 . S
C649 U646 2.984 . S
C649 O647 1.353 . S
C649 O648 1.286 . S
C649 C651 1.363 . S
C650 C640 1.465 . S
C650 U646 2.847 . S
C650 O664 1.249 . S
C650 O665 1.202 . S
C651 C649 1.363 . S
C651 C653 1.408 . S
C651 C656 1.342 . S
C652 C653 1.310 . S
C652 C655 1.461 . S
C652 H672 0.932 . S
C653 C651 1.408 . S
C653 C652 1.310 . S
C653 H673 0.930 . S
C654 C655 1.474 . S
C654 C656 1.285 . S
C654 H674 0.929 . S
C655 C652 1.461 . S
C655 C654 1.474 . S
C656 C651 1.342 . S
C656 C654 1.285 . S
C656 H675 0.930 . S
C657 C660 1.424 . S
C657 C662 1.245 . S
C657 C663 1.428 . S
C658 C661 1.260 . S
C658 C662 1.477 . S
C658 H676 0.932 . S
C659 C660 1.384 . S
C659 C661 1.479 . S
C659 H677 0.929 . S
C660 C657 1.424 . S
C660 C659 1.384 . S
C660 H678 0.928 . S
C661 C658 1.260 . S
C661 C659 1.479 . S
C662 C657 1.245 . S
C662 C658 1.477 . S
C662 H679 0.932 . S
C663 U646 2.882 . S
C663 C657 1.428 . S
C663 O666 1.301 . S
C663 O667 1.282 . S
O664 U646 2.441 . S
O664 C650 1.249 . S
O665 U646 2.420 . S
O665 C650 1.202 . S
O666 U646 2.455 . S
O666 C663 1.301 . S
O667 U646 2.449 . S
O667 C663 1.282 . S
H668 C641 0.931 . S
H669 C643 0.929 . S
H670 C644 0.930 . S
H671 C645 0.931 . S
H672 C652 0.932 . S
H673 C653 0.930 . S
H674 C654 0.929 . S
H675 C656 0.930 . S
H676 C658 0.932 . S
H677 C659 0.929 . S
H678 C660 0.928 . S
H679 C662 0.932 . S
C680 C681 1.264 . S
C680 C685 1.479 . S
C680 C690 1.465 . S
C681 C680 1.264 . S
C681 C683 1.339 . S
C681 H708 0.931 . S
C682 C683 1.395 . S
C682 C684 1.320 . S
C683 C681 1.339 . S
C683 C682 1.395 . S
C683 H709 0.929 . S
C684 C682 1.320 . S
C684 C685 1.405 . S
C684 H710 0.930 . S
C685 C680 1.479 . S
C685 C684 1.405 . S
C685 H711 0.931 . S
U686 O687 2.454 . S
U686 O688 2.458 . S
U686 C689 2.984 . S
U686 C690 2.847 . S
U686 C703 2.882 . S
U686 O704 2.441 . S
U686 O705 2.420 . S
U686 O706 2.455 . S
U686 O707 2.449 . S
O687 U686 2.454 . S
O687 C689 1.353 . S
O688 U686 2.458 . S
O688 C689 1.286 . S
C689 U686 2.984 . S
C689 O687 1.353 . S
C689 O688 1.286 . S
C689 C691 1.363 . S
C690 C680 1.465 . S
C690 U686 2.847 . S
C690 O704 1.249 . S
C690 O705 1.202 . S
C691 C689 1.363 . S
C691 C693 1.408 . S
C691 C696 1.342 . S
C692 C693 1.310 . S
C692 C695 1.461 . S
C692 H712 0.932 . S
C693 C691 1.408 . S
C693 C692 1.310 . S
C693 H713 0.930 . S
C694 C695 1.474 . S
C694 C696 1.285 . S
C694 H714 0.929 . S
C695 C692 1.461 . S
C695 C694 1.474 . S
C696 C691 1.342 . S
C696 C694 1.285 . S
C696 H715 0.930 . S
C697 C700 1.424 . S
C697 C702 1.245 . S
C697 C703 1.428 . S
C698 C701 1.260 . S
C698 C702 1.477 . S
C698 H716 0.932 . S
C699 C700 1.384 . S
C699 C701 1.479 . S
C699 H717 0.929 . S
C700 C697 1.424 . S
C700 C699 1.384 . S
C700 H718 0.928 . S
C701 C698 1.260 . S
C701 C699 1.479 . S
C702 C697 1.245 . S
C702 C698 1.477 . S
C702 H719 0.932 . S
C703 U686 2.882 . S
C703 C697 1.428 . S
C703 O706 1.301 . S
C703 O707 1.282 . S
O704 U686 2.441 . S
O704 C690 1.249 . S
O705 U686 2.420 . S
O705 C690 1.202 . S
O706 U686 2.455 . S
O706 C703 1.301 . S
O707 U686 2.449 . S
O707 C703 1.282 . S
H708 C681 0.931 . S
H709 C683 0.929 . S
H710 C684 0.930 . S
H711 C685 0.931 . S
H712 C692 0.932 . S
H713 C693 0.930 . S
H714 C694 0.929 . S
H715 C696 0.930 . S
H716 C698 0.932 . S
H717 C699 0.929 . S
H718 C700 0.928 . S
H719 C702 0.932 . S
C720 C721 1.264 . S
C720 C725 1.479 . S
C720 C730 1.465 . S
C721 C720 1.264 . S
C721 C723 1.339 . S
C721 H748 0.931 . S
C722 C723 1.395 . S
C722 C724 1.320 . S
C723 C721 1.339 . S
C723 C722 1.395 . S
C723 H749 0.929 . S
C724 C722 1.320 . S
C724 C725 1.405 . S
C724 H750 0.930 . S
C725 C720 1.479 . S
C725 C724 1.405 . S
C725 H751 0.931 . S
U726 O727 2.454 . S
U726 O728 2.458 . S
U726 C729 2.984 . S
U726 C730 2.847 . S
U726 C743 2.882 . S
U726 O744 2.441 . S
U726 O745 2.420 . S
U726 O746 2.455 . S
U726 O747 2.449 . S
O727 U726 2.454 . S
O727 C729 1.353 . S
O728 U726 2.458 . S
O728 C729 1.286 . S
C729 U726 2.984 . S
C729 O727 1.353 . S
C729 O728 1.286 . S
C729 C731 1.363 . S
C730 C720 1.465 . S
C730 U726 2.847 . S
C730 O744 1.249 . S
C730 O745 1.202 . S
C731 C729 1.363 . S
C731 C733 1.408 . S
C731 C736 1.342 . S
C732 C733 1.310 . S
C732 C735 1.461 . S
C732 H752 0.932 . S
C733 C731 1.408 . S
C733 C732 1.310 . S
C733 H753 0.930 . S
C734 C735 1.474 . S
C734 C736 1.285 . S
C734 H754 0.929 . S
C735 C732 1.461 . S
C735 C734 1.474 . S
C736 C731 1.342 . S
C736 C734 1.285 . S
C736 H755 0.930 . S
C737 C740 1.424 . S
C737 C742 1.245 . S
C737 C743 1.428 . S
C738 C741 1.260 . S
C738 C742 1.477 . S
C738 H756 0.932 . S
C739 C740 1.384 . S
C739 C741 1.479 . S
C739 H757 0.929 . S
C740 C737 1.424 . S
C740 C739 1.384 . S
C740 H758 0.928 . S
C741 C738 1.260 . S
C741 C739 1.479 . S
C742 C737 1.245 . S
C742 C738 1.477 . S
C742 H759 0.932 . S
C743 U726 2.882 . S
C743 C737 1.428 . S
C743 O746 1.301 . S
C743 O747 1.282 . S
O744 U726 2.441 . S
O744 C730 1.249 . S
O745 U726 2.420 . S
O745 C730 1.202 . S
O746 U726 2.455 . S
O746 C743 1.301 . S
O747 U726 2.449 . S
O747 C743 1.282 . S
H748 C721 0.931 . S
H749 C723 0.929 . S
H750 C724 0.930 . S
H751 C725 0.931 . S
H752 C732 0.932 . S
H753 C733 0.930 . S
H754 C734 0.929 . S
H755 C736 0.930 . S
H756 C738 0.932 . S
H757 C739 0.929 . S
H758 C740 0.928 . S
H759 C742 0.932 . S
C760 C761 1.264 . S
C760 C765 1.479 . S
C760 C770 1.465 . S
C761 C760 1.264 . S
C761 C763 1.339 . S
C761 H788 0.931 . S
C762 C763 1.395 . S
C762 C764 1.320 . S
C763 C761 1.339 . S
C763 C762 1.395 . S
C763 H789 0.929 . S
C764 C762 1.320 . S
C764 C765 1.405 . S
C764 H790 0.930 . S
C765 C760 1.479 . S
C765 C764 1.405 . S
C765 H791 0.931 . S
U766 O767 2.454 . S
U766 O768 2.458 . S
U766 C769 2.984 . S
U766 C770 2.847 . S
U766 C783 2.882 . S
U766 O784 2.441 . S
U766 O785 2.420 . S
U766 O786 2.455 . S
U766 O787 2.449 . S
O767 U766 2.454 . S
O767 C769 1.353 . S
O768 U766 2.458 . S
O768 C769 1.286 . S
C769 U766 2.984 . S
C769 O767 1.353 . S
C769 O768 1.286 . S
C769 C771 1.363 . S
C770 C760 1.465 . S
C770 U766 2.847 . S
C770 O784 1.249 . S
C770 O785 1.202 . S
C771 C769 1.363 . S
C771 C773 1.408 . S
C771 C776 1.342 . S
C772 C773 1.310 . S
C772 C775 1.461 . S
C772 H792 0.932 . S
C773 C771 1.408 . S
C773 C772 1.310 . S
C773 H793 0.930 . S
C774 C775 1.474 . S
C774 C776 1.285 . S
C774 H794 0.929 . S
C775 C772 1.461 . S
C775 C774 1.474 . S
C776 C771 1.342 . S
C776 C774 1.285 . S
C776 H795 0.930 . S
C777 C780 1.424 . S
C777 C782 1.245 . S
C777 C783 1.428 . S
C778 C781 1.260 . S
C778 C782 1.477 . S
C778 H796 0.932 . S
C779 C780 1.384 . S
C779 C781 1.479 . S
C779 H797 0.929 . S
C780 C777 1.424 . S
C780 C779 1.384 . S
C780 H798 0.928 . S
C781 C778 1.260 . S
C781 C779 1.479 . S
C782 C777 1.245 . S
C782 C778 1.477 . S
C782 H799 0.932 . S
C783 U766 2.882 . S
C783 C777 1.428 . S
C783 O786 1.301 . S
C783 O787 1.282 . S
O784 U766 2.441 . S
O784 C770 1.249 . S
O785 U766 2.420 . S
O785 C770 1.202 . S
O786 U766 2.455 . S
O786 C783 1.301 . S
O787 U766 2.449 . S
O787 C783 1.282 . S
H788 C761 0.931 . S
H789 C763 0.929 . S
H790 C764 0.930 . S
H791 C765 0.931 . S
H792 C772 0.932 . S
H793 C773 0.930 . S
H794 C774 0.929 . S
H795 C776 0.930 . S
H796 C778 0.932 . S
H797 C779 0.929 . S
H798 C780 0.928 . S
H799 C782 0.932 . S
C800 C801 1.264 . S
C800 C805 1.479 . S
C800 C810 1.465 . S
C801 C800 1.264 . S
C801 C803 1.339 . S
C801 H828 0.931 . S
C802 C803 1.395 . S
C802 C804 1.320 . S
C803 C801 1.339 . S
C803 C802 1.395 . S
C803 H829 0.929 . S
C804 C802 1.320 . S
C804 C805 1.405 . S
C804 H830 0.930 . S
C805 C800 1.479 . S
C805 C804 1.405 . S
C805 H831 0.931 . S
U806 O807 2.454 . S
U806 O808 2.458 . S
U806 C809 2.984 . S
U806 C810 2.847 . S
U806 C823 2.882 . S
U806 O824 2.441 . S
U806 O825 2.420 . S
U806 O826 2.455 . S
U806 O827 2.449 . S
O807 U806 2.454 . S
O807 C809 1.353 . S
O808 U806 2.458 . S
O808 C809 1.286 . S
C809 U806 2.984 . S
C809 O807 1.353 . S
C809 O808 1.286 . S
C809 C811 1.363 . S
C810 C800 1.465 . S
C810 U806 2.847 . S
C810 O824 1.249 . S
C810 O825 1.202 . S
C811 C809 1.363 . S
C811 C813 1.408 . S
C811 C816 1.342 . S
C812 C813 1.310 . S
C812 C815 1.461 . S
C812 H832 0.932 . S
C813 C811 1.408 . S
C813 C812 1.310 . S
C813 H833 0.930 . S
C814 C815 1.474 . S
C814 C816 1.285 . S
C814 H834 0.929 . S
C815 C812 1.461 . S
C815 C814 1.474 . S
C816 C811 1.342 . S
C816 C814 1.285 . S
C816 H835 0.930 . S
C817 C820 1.424 . S
C817 C822 1.245 . S
C817 C823 1.428 . S
C818 C821 1.260 . S
C818 C822 1.477 . S
C818 H836 0.932 . S
C819 C820 1.384 . S
C819 C821 1.479 . S
C819 H837 0.929 . S
C820 C817 1.424 . S
C820 C819 1.384 . S
C820 H838 0.928 . S
C821 C818 1.260 . S
C821 C819 1.479 . S
C822 C817 1.245 . S
C822 C818 1.477 . S
C822 H839 0.932 . S
C823 U806 2.882 . S
C823 C817 1.428 . S
C823 O826 1.301 . S
C823 O827 1.282 . S
O824 U806 2.441 . S
O824 C810 1.249 . S
O825 U806 2.420 . S
O825 C810 1.202 . S
O826 U806 2.455 . S
O826 C823 1.301 . S
O827 U806 2.449 . S
O827 C823 1.282 . S
H828 C801 0.931 . S
H829 C803 0.929 . S
H830 C804 0.930 . S
H831 C805 0.931 . S
H832 C812 0.932 . S
H833 C813 0.930 . S
H834 C814 0.929 . S
H835 C816 0.930 . S
H836 C818 0.932 . S
H837 C819 0.929 . S
H838 C820 0.928 . S
H839 C822 0.932 . S
C840 C841 1.264 . S
C840 C845 1.479 . S
C840 C850 1.465 . S
C841 C840 1.264 . S
C841 C843 1.339 . S
C841 H868 0.931 . S
C842 C843 1.395 . S
C842 C844 1.320 . S
C843 C841 1.339 . S
C843 C842 1.395 . S
C843 H869 0.929 . S
C844 C842 1.320 . S
C844 C845 1.405 . S
C844 H870 0.930 . S
C845 C840 1.479 . S
C845 C844 1.405 . S
C845 H871 0.931 . S
U846 O847 2.454 . S
U846 O848 2.458 . S
U846 C849 2.984 . S
U846 C850 2.847 . S
U846 C863 2.882 . S
U846 O864 2.441 . S
U846 O865 2.420 . S
U846 O866 2.455 . S
U846 O867 2.449 . S
O847 U846 2.454 . S
O847 C849 1.353 . S
O848 U846 2.458 . S
O848 C849 1.286 . S
C849 U846 2.984 . S
C849 O847 1.353 . S
C849 O848 1.286 . S
C849 C851 1.363 . S
C850 C840 1.465 . S
C850 U846 2.847 . S
C850 O864 1.249 . S
C850 O865 1.202 . S
C851 C849 1.363 . S
C851 C853 1.408 . S
C851 C856 1.342 . S
C852 C853 1.310 . S
C852 C855 1.461 . S
C852 H872 0.932 . S
C853 C851 1.408 . S
C853 C852 1.310 . S
C853 H873 0.930 . S
C854 C855 1.474 . S
C854 C856 1.285 . S
C854 H874 0.929 . S
C855 C852 1.461 . S
C855 C854 1.474 . S
C856 C851 1.342 . S
C856 C854 1.285 . S
C856 H875 0.930 . S
C857 C860 1.424 . S
C857 C862 1.245 . S
C857 C863 1.428 . S
C858 C861 1.260 . S
C858 C862 1.477 . S
C858 H876 0.932 . S
C859 C860 1.384 . S
C859 C861 1.479 . S
C859 H877 0.929 . S
C860 C857 1.424 . S
C860 C859 1.384 . S
C860 H878 0.928 . S
C861 C858 1.260 . S
C861 C859 1.479 . S
C862 C857 1.245 . S
C862 C858 1.477 . S
C862 H879 0.932 . S
C863 U846 2.882 . S
C863 C857 1.428 . S
C863 O866 1.301 . S
C863 O867 1.282 . S
O864 U846 2.441 . S
O864 C850 1.249 . S
O865 U846 2.420 . S
O865 C850 1.202 . S
O866 U846 2.455 . S
O866 C863 1.301 . S
O867 U846 2.449 . S
O867 C863 1.282 . S
H868 C841 0.931 . S
H869 C843 0.929 . S
H870 C844 0.930 . S
H871 C845 0.931 . S
H872 C852 0.932 . S
H873 C853 0.930 . S
H874 C854 0.929 . S
H875 C856 0.930 . S
H876 C858 0.932 . S
H877 C859 0.929 . S
H878 C860 0.928 . S
H879 C862 0.932 . S
C880 C881 1.264 . S
C880 C885 1.479 . S
C880 C890 1.465 . S
C881 C880 1.264 . S
C881 C883 1.339 . S
C881 H908 0.931 . S
C882 C883 1.395 . S
C882 C884 1.320 . S
C883 C881 1.339 . S
C883 C882 1.395 . S
C883 H909 0.929 . S
C884 C882 1.320 . S
C884 C885 1.405 . S
C884 H910 0.930 . S
C885 C880 1.479 . S
C885 C884 1.405 . S
C885 H911 0.931 . S
U886 O887 2.454 . S
U886 O888 2.458 . S
U886 C889 2.984 . S
U886 C890 2.847 . S
U886 C903 2.882 . S
U886 O904 2.441 . S
U886 O905 2.420 . S
U886 O906 2.455 . S
U886 O907 2.449 . S
O887 U886 2.454 . S
O887 C889 1.353 . S
O888 U886 2.458 . S
O888 C889 1.286 . S
C889 U886 2.984 . S
C889 O887 1.353 . S
C889 O888 1.286 . S
C889 C891 1.363 . S
C890 C880 1.465 . S
C890 U886 2.847 . S
C890 O904 1.249 . S
C890 O905 1.202 . S
C891 C889 1.363 . S
C891 C893 1.408 . S
C891 C896 1.342 . S
C892 C893 1.310 . S
C892 C895 1.461 . S
C892 H912 0.932 . S
C893 C891 1.408 . S
C893 C892 1.310 . S
C893 H913 0.930 . S
C894 C895 1.474 . S
C894 C896 1.285 . S
C894 H914 0.929 . S
C895 C892 1.461 . S
C895 C894 1.474 . S
C896 C891 1.342 . S
C896 C894 1.285 . S
C896 H915 0.930 . S
C897 C900 1.424 . S
C897 C902 1.245 . S
C897 C903 1.428 . S
C898 C901 1.260 . S
C898 C902 1.477 . S
C898 H916 0.932 . S
C899 C900 1.384 . S
C899 C901 1.479 . S
C899 H917 0.929 . S
C900 C897 1.424 . S
C900 C899 1.384 . S
C900 H918 0.928 . S
C901 C898 1.260 . S
C901 C899 1.479 . S
C902 C897 1.245 . S
C902 C898 1.477 . S
C902 H919 0.932 . S
C903 U886 2.882 . S
C903 C897 1.428 . S
C903 O906 1.301 . S
C903 O907 1.282 . S
O904 U886 2.441 . S
O904 C890 1.249 . S
O905 U886 2.420 . S
O905 C890 1.202 . S
O906 U886 2.455 . S
O906 C903 1.301 . S
O907 U886 2.449 . S
O907 C903 1.282 . S
H908 C881 0.931 . S
H909 C883 0.929 . S
H910 C884 0.930 . S
H911 C885 0.931 . S
H912 C892 0.932 . S
H913 C893 0.930 . S
H914 C894 0.929 . S
H915 C896 0.930 . S
H916 C898 0.932 . S
H917 C899 0.929 . S
H918 C900 0.928 . S
H919 C902 0.932 . S
C920 C921 1.264 . S
C920 C925 1.479 . S
C920 C930 1.465 . S
C921 C920 1.264 . S
C921 C923 1.339 . S
C921 H948 0.931 . S
C922 C923 1.395 . S
C922 C924 1.320 . S
C923 C921 1.339 . S
C923 C922 1.395 . S
C923 H949 0.929 . S
C924 C922 1.320 . S
C924 C925 1.405 . S
C924 H950 0.930 . S
C925 C920 1.479 . S
C925 C924 1.405 . S
C925 H951 0.931 . S
U926 O927 2.454 . S
U926 O928 2.458 . S
U926 C929 2.984 . S
U926 C930 2.847 . S
U926 C943 2.882 . S
U926 O944 2.441 . S
U926 O945 2.420 . S
U926 O946 2.455 . S
U926 O947 2.449 . S
O927 U926 2.454 . S
O927 C929 1.353 . S
O928 U926 2.458 . S
O928 C929 1.286 . S
C929 U926 2.984 . S
C929 O927 1.353 . S
C929 O928 1.286 . S
C929 C931 1.363 . S
C930 C920 1.465 . S
C930 U926 2.847 . S
C930 O944 1.249 . S
C930 O945 1.202 . S
C931 C929 1.363 . S
C931 C933 1.408 . S
C931 C936 1.342 . S
C932 C933 1.310 . S
C932 C935 1.461 . S
C932 H952 0.932 . S
C933 C931 1.408 . S
C933 C932 1.310 . S
C933 H953 0.930 . S
C934 C935 1.474 . S
C934 C936 1.285 . S
C934 H954 0.929 . S
C935 C932 1.461 . S
C935 C934 1.474 . S
C936 C931 1.342 . S
C936 C934 1.285 . S
C936 H955 0.930 . S
C937 C940 1.424 . S
C937 C942 1.245 . S
C937 C943 1.428 . S
C938 C941 1.260 . S
C938 C942 1.477 . S
C938 H956 0.932 . S
C939 C940 1.384 . S
C939 C941 1.479 . S
C939 H957 0.929 . S
C940 C937 1.424 . S
C940 C939 1.384 . S
C940 H958 0.928 . S
C941 C938 1.260 . S
C941 C939 1.479 . S
C942 C937 1.245 . S
C942 C938 1.477 . S
C942 H959 0.932 . S
C943 U926 2.882 . S
C943 C937 1.428 . S
C943 O946 1.301 . S
C943 O947 1.282 . S
O944 U926 2.441 . S
O944 C930 1.249 . S
O945 U926 2.420 . S
O945 C930 1.202 . S
O946 U926 2.455 . S
O946 C943 1.301 . S
O947 U926 2.449 . S
O947 C943 1.282 . S
H948 C921 0.931 . S
H949 C923 0.929 . S
H950 C924 0.930 . S
H951 C925 0.931 . S
H952 C932 0.932 . S
H953 C933 0.930 . S
H954 C934 0.929 . S
H955 C936 0.930 . S
H956 C938 0.932 . S
H957 C939 0.929 . S
H958 C940 0.928 . S
H959 C942 0.932 . S
C960 C961 1.264 . S
C960 C965 1.479 . S
C960 C970 1.465 . S
C961 C960 1.264 . S
C961 C963 1.339 . S
C961 H988 0.931 . S
C962 C963 1.395 . S
C962 C964 1.320 . S
C963 C961 1.339 . S
C963 C962 1.395 . S
C963 H989 0.929 . S
C964 C962 1.320 . S
C964 C965 1.405 . S
C964 H990 0.930 . S
C965 C960 1.479 . S
C965 C964 1.405 . S
C965 H991 0.931 . S
U966 O967 2.454 . S
U966 O968 2.458 . S
U966 C969 2.984 . S
U966 C970 2.847 . S
U966 C983 2.882 . S
U966 O984 2.441 . S
U966 O985 2.420 . S
U966 O986 2.455 . S
U966 O987 2.449 . S
O967 U966 2.454 . S
O967 C969 1.353 . S
O968 U966 2.458 . S
O968 C969 1.286 . S
C969 U966 2.984 . S
C969 O967 1.353 . S
C969 O968 1.286 . S
C969 C971 1.363 . S
C970 C960 1.465 . S
C970 U966 2.847 . S
C970 O984 1.249 . S
C970 O985 1.202 . S
C971 C969 1.363 . S
C971 C973 1.408 . S
C971 C976 1.342 . S
C972 C973 1.310 . S
C972 C975 1.461 . S
C972 H992 0.932 . S
C973 C971 1.408 . S
C973 C972 1.310 . S
C973 H993 0.930 . S
C974 C975 1.474 . S
C974 C976 1.285 . S
C974 H994 0.929 . S
C975 C972 1.461 . S
C975 C974 1.474 . S
C976 C971 1.342 . S
C976 C974 1.285 . S
C976 H995 0.930 . S
C977 C980 1.424 . S
C977 C982 1.245 . S
C977 C983 1.428 . S
C978 C981 1.260 . S
C978 C982 1.477 . S
C978 H996 0.932 . S
C979 C980 1.384 . S
C979 C981 1.479 . S
C979 H997 0.929 . S
C980 C977 1.424 . S
C980 C979 1.384 . S
C980 H998 0.928 . S
C981 C978 1.260 . S
C981 C979 1.479 . S
C982 C977 1.245 . S
C982 C978 1.477 . S
C982 H999 0.932 . S
C983 U966 2.882 . S
C983 C977 1.428 . S
C983 O986 1.301 . S
C983 O987 1.282 . S
O984 U966 2.441 . S
O984 C970 1.249 . S
O985 U966 2.420 . S
O985 C970 1.202 . S
O986 U966 2.455 . S
O986 C983 1.301 . S
O987 U966 2.449 . S
O987 C983 1.282 . S
H988 C961 0.931 . S
H989 C963 0.929 . S
H990 C964 0.930 . S
H991 C965 0.931 . S
H992 C972 0.932 . S
H993 C973 0.930 . S
H994 C974 0.929 . S
H995 C976 0.930 . S
H996 C978 0.932 . S
H997 C979 0.929 . S
H998 C980 0.928 . S
H999 C982 0.932 . S
C1000 C1001 1.264 . S
C1000 C1005 1.479 . S
C1000 C1010 1.465 . S
C1001 C1000 1.264 . S
C1001 C1003 1.339 . S
C1001 H1028 0.931 . S
C1002 C1003 1.395 . S
C1002 C1004 1.320 . S
C1003 C1001 1.339 . S
C1003 C1002 1.395 . S
C1003 H1029 0.929 . S
C1004 C1002 1.320 . S
C1004 C1005 1.405 . S
C1004 H1030 0.930 . S
C1005 C1000 1.479 . S
C1005 C1004 1.405 . S
C1005 H1031 0.931 . S
U1006 O1007 2.454 . S
U1006 O1008 2.458 . S
U1006 C1009 2.984 . S
U1006 C1010 2.847 . S
U1006 C1023 2.882 . S
U1006 O1024 2.441 . S
U1006 O1025 2.420 . S
U1006 O1026 2.455 . S
U1006 O1027 2.449 . S
O1007 U1006 2.454 . S
O1007 C1009 1.353 . S
O1008 U1006 2.458 . S
O1008 C1009 1.286 . S
C1009 U1006 2.984 . S
C1009 O1007 1.353 . S
C1009 O1008 1.286 . S
C1009 C1011 1.363 . S
C1010 C1000 1.465 . S
C1010 U1006 2.847 . S
C1010 O1024 1.249 . S
C1010 O1025 1.202 . S
C1011 C1009 1.363 . S
C1011 C1013 1.408 . S
C1011 C1016 1.342 . S
C1012 C1013 1.310 . S
C1012 C1015 1.461 . S
C1012 H1032 0.932 . S
C1013 C1011 1.408 . S
C1013 C1012 1.310 . S
C1013 H1033 0.930 . S
C1014 C1015 1.474 . S
C1014 C1016 1.285 . S
C1014 H1034 0.929 . S
C1015 C1012 1.461 . S
C1015 C1014 1.474 . S
C1016 C1011 1.342 . S
C1016 C1014 1.285 . S
C1016 H1035 0.930 . S
C1017 C1020 1.424 . S
C1017 C1022 1.245 . S
C1017 C1023 1.428 . S
C1018 C1021 1.260 . S
C1018 C1022 1.477 . S
C1018 H1036 0.932 . S
C1019 C1020 1.384 . S
C1019 C1021 1.479 . S
C1019 H1037 0.929 . S
C1020 C1017 1.424 . S
C1020 C1019 1.384 . S
C1020 H1038 0.928 . S
C1021 C1018 1.260 . S
C1021 C1019 1.479 . S
C1022 C1017 1.245 . S
C1022 C1018 1.477 . S
C1022 H1039 0.932 . S
C1023 U1006 2.882 . S
C1023 C1017 1.428 . S
C1023 O1026 1.301 . S
C1023 O1027 1.282 . S
O1024 U1006 2.441 . S
O1024 C1010 1.249 . S
O1025 U1006 2.420 . S
O1025 C1010 1.202 . S
O1026 U1006 2.455 . S
O1026 C1023 1.301 . S
O1027 U1006 2.449 . S
O1027 C1023 1.282 . S
H1028 C1001 0.931 . S
H1029 C1003 0.929 . S
H1030 C1004 0.930 . S
H1031 C1005 0.931 . S
H1032 C1012 0.932 . S
H1033 C1013 0.930 . S
H1034 C1014 0.929 . S
H1035 C1016 0.930 . S
H1036 C1018 0.932 . S
H1037 C1019 0.929 . S
H1038 C1020 0.928 . S
H1039 C1022 0.932 . S
C1040 C1041 1.264 . S
C1040 C1045 1.479 . S
C1040 C1050 1.465 . S
C1041 C1040 1.264 . S
C1041 C1043 1.339 . S
C1041 H1068 0.931 . S
C1042 C1043 1.395 . S
C1042 C1044 1.320 . S
C1043 C1041 1.339 . S
C1043 C1042 1.395 . S
C1043 H1069 0.929 . S
C1044 C1042 1.320 . S
C1044 C1045 1.405 . S
C1044 H1070 0.930 . S
C1045 C1040 1.479 . S
C1045 C1044 1.405 . S
C1045 H1071 0.931 . S
U1046 O1047 2.454 . S
U1046 O1048 2.458 . S
U1046 C1049 2.984 . S
U1046 C1050 2.847 . S
U1046 C1063 2.882 . S
U1046 O1064 2.441 . S
U1046 O1065 2.420 . S
U1046 O1066 2.455 . S
U1046 O1067 2.449 . S
O1047 U1046 2.454 . S
O1047 C1049 1.353 . S
O1048 U1046 2.458 . S
O1048 C1049 1.286 . S
C1049 U1046 2.984 . S
C1049 O1047 1.353 . S
C1049 O1048 1.286 . S
C1049 C1051 1.363 . S
C1050 C1040 1.465 . S
C1050 U1046 2.847 . S
C1050 O1064 1.249 . S
C1050 O1065 1.202 . S
C1051 C1049 1.363 . S
C1051 C1053 1.408 . S
C1051 C1056 1.342 . S
C1052 C1053 1.310 . S
C1052 C1055 1.461 . S
C1052 H1072 0.932 . S
C1053 C1051 1.408 . S
C1053 C1052 1.310 . S
C1053 H1073 0.930 . S
C1054 C1055 1.474 . S
C1054 C1056 1.285 . S
C1054 H1074 0.929 . S
C1055 C1052 1.461 . S
C1055 C1054 1.474 . S
C1056 C1051 1.342 . S
C1056 C1054 1.285 . S
C1056 H1075 0.930 . S
C1057 C1060 1.424 . S
C1057 C1062 1.245 . S
C1057 C1063 1.428 . S
C1058 C1061 1.260 . S
C1058 C1062 1.477 . S
C1058 H1076 0.932 . S
C1059 C1060 1.384 . S
C1059 C1061 1.479 . S
C1059 H1077 0.929 . S
C1060 C1057 1.424 . S
C1060 C1059 1.384 . S
C1060 H1078 0.928 . S
C1061 C1058 1.260 . S
C1061 C1059 1.479 . S
C1062 C1057 1.245 . S
C1062 C1058 1.477 . S
C1062 H1079 0.932 . S
C1063 U1046 2.882 . S
C1063 C1057 1.428 . S
C1063 O1066 1.301 . S
C1063 O1067 1.282 . S
O1064 U1046 2.441 . S
O1064 C1050 1.249 . S
O1065 U1046 2.420 . S
O1065 C1050 1.202 . S
O1066 U1046 2.455 . S
O1066 C1063 1.301 . S
O1067 U1046 2.449 . S
O1067 C1063 1.282 . S
H1068 C1041 0.931 . S
H1069 C1043 0.929 . S
H1070 C1044 0.930 . S
H1071 C1045 0.931 . S
H1072 C1052 0.932 . S
H1073 C1053 0.930 . S
H1074 C1054 0.929 . S
H1075 C1056 0.930 . S
H1076 C1058 0.932 . S
H1077 C1059 0.929 . S
H1078 C1060 0.928 . S
H1079 C1062 0.932 . S
C1080 C1081 1.264 . S
C1080 C1085 1.479 . S
C1080 C1090 1.465 . S
C1081 C1080 1.264 . S
C1081 C1083 1.339 . S
C1081 H1108 0.931 . S
C1082 C1083 1.395 . S
C1082 C1084 1.320 . S
C1083 C1081 1.339 . S
C1083 C1082 1.395 . S
C1083 H1109 0.929 . S
C1084 C1082 1.320 . S
C1084 C1085 1.405 . S
C1084 H1110 0.930 . S
C1085 C1080 1.479 . S
C1085 C1084 1.405 . S
C1085 H1111 0.931 . S
U1086 O1087 2.454 . S
U1086 O1088 2.458 . S
U1086 C1089 2.984 . S
U1086 C1090 2.847 . S
U1086 C1103 2.882 . S
U1086 O1104 2.441 . S
U1086 O1105 2.420 . S
U1086 O1106 2.455 . S
U1086 O1107 2.449 . S
O1087 U1086 2.454 . S
O1087 C1089 1.353 . S
O1088 U1086 2.458 . S
O1088 C1089 1.286 . S
C1089 U1086 2.984 . S
C1089 O1087 1.353 . S
C1089 O1088 1.286 . S
C1089 C1091 1.363 . S
C1090 C1080 1.465 . S
C1090 U1086 2.847 . S
C1090 O1104 1.249 . S
C1090 O1105 1.202 . S
C1091 C1089 1.363 . S
C1091 C1093 1.408 . S
C1091 C1096 1.342 . S
C1092 C1093 1.310 . S
C1092 C1095 1.461 . S
C1092 H1112 0.932 . S
C1093 C1091 1.408 . S
C1093 C1092 1.310 . S
C1093 H1113 0.930 . S
C1094 C1095 1.474 . S
C1094 C1096 1.285 . S
C1094 H1114 0.929 . S
C1095 C1092 1.461 . S
C1095 C1094 1.474 . S
C1096 C1091 1.342 . S
C1096 C1094 1.285 . S
C1096 H1115 0.930 . S
C1097 C1100 1.424 . S
C1097 C1102 1.245 . S
C1097 C1103 1.428 . S
C1098 C1101 1.260 . S
C1098 C1102 1.477 . S
C1098 H1116 0.932 . S
C1099 C1100 1.384 . S
C1099 C1101 1.479 . S
C1099 H1117 0.929 . S
C1100 C1097 1.424 . S
C1100 C1099 1.384 . S
C1100 H1118 0.928 . S
C1101 C1098 1.260 . S
C1101 C1099 1.479 . S
C1102 C1097 1.245 . S
C1102 C1098 1.477 . S
C1102 H1119 0.932 . S
C1103 U1086 2.882 . S
C1103 C1097 1.428 . S
C1103 O1106 1.301 . S
C1103 O1107 1.282 . S
O1104 U1086 2.441 . S
O1104 C1090 1.249 . S
O1105 U1086 2.420 . S
O1105 C1090 1.202 . S
O1106 U1086 2.455 . S
O1106 C1103 1.301 . S
O1107 U1086 2.449 . S
O1107 C1103 1.282 . S
H1108 C1081 0.931 . S
H1109 C1083 0.929 . S
H1110 C1084 0.930 . S
H1111 C1085 0.931 . S
H1112 C1092 0.932 . S
H1113 C1093 0.930 . S
H1114 C1094 0.929 . S
H1115 C1096 0.930 . S
H1116 C1098 0.932 . S
H1117 C1099 0.929 . S
H1118 C1100 0.928 . S
H1119 C1102 0.932 . S
C1120 C1121 1.264 . S
C1120 C1125 1.479 . S
C1120 C1130 1.465 . S
C1121 C1120 1.264 . S
C1121 C1123 1.339 . S
C1121 H1148 0.931 . S
C1122 C1123 1.395 . S
C1122 C1124 1.320 . S
C1123 C1121 1.339 . S
C1123 C1122 1.395 . S
C1123 H1149 0.929 . S
C1124 C1122 1.320 . S
C1124 C1125 1.405 . S
C1124 H1150 0.930 . S
C1125 C1120 1.479 . S
C1125 C1124 1.405 . S
C1125 H1151 0.931 . S
U1126 O1127 2.454 . S
U1126 O1128 2.458 . S
U1126 C1129 2.984 . S
U1126 C1130 2.847 . S
U1126 C1143 2.882 . S
U1126 O1144 2.441 . S
U1126 O1145 2.420 . S
U1126 O1146 2.455 . S
U1126 O1147 2.449 . S
O1127 U1126 2.454 . S
O1127 C1129 1.353 . S
O1128 U1126 2.458 . S
O1128 C1129 1.286 . S
C1129 U1126 2.984 . S
C1129 O1127 1.353 . S
C1129 O1128 1.286 . S
C1129 C1131 1.363 . S
C1130 C1120 1.465 . S
C1130 U1126 2.847 . S
C1130 O1144 1.249 . S
C1130 O1145 1.202 . S
C1131 C1129 1.363 . S
C1131 C1133 1.408 . S
C1131 C1136 1.342 . S
C1132 C1133 1.310 . S
C1132 C1135 1.461 . S
C1132 H1152 0.932 . S
C1133 C1131 1.408 . S
C1133 C1132 1.310 . S
C1133 H1153 0.930 . S
C1134 C1135 1.474 . S
C1134 C1136 1.285 . S
C1134 H1154 0.929 . S
C1135 C1132 1.461 . S
C1135 C1134 1.474 . S
C1136 C1131 1.342 . S
C1136 C1134 1.285 . S
C1136 H1155 0.930 . S
C1137 C1140 1.424 . S
C1137 C1142 1.245 . S
C1137 C1143 1.428 . S
C1138 C1141 1.260 . S
C1138 C1142 1.477 . S
C1138 H1156 0.932 . S
C1139 C1140 1.384 . S
C1139 C1141 1.479 . S
C1139 H1157 0.929 . S
C1140 C1137 1.424 . S
C1140 C1139 1.384 . S
C1140 H1158 0.928 . S
C1141 C1138 1.260 . S
C1141 C1139 1.479 . S
C1142 C1137 1.245 . S
C1142 C1138 1.477 . S
C1142 H1159 0.932 . S
C1143 U1126 2.882 . S
C1143 C1137 1.428 . S
C1143 O1146 1.301 . S
C1143 O1147 1.282 . S
O1144 U1126 2.441 . S
O1144 C1130 1.249 . S
O1145 U1126 2.420 . S
O1145 C1130 1.202 . S
O1146 U1126 2.455 . S
O1146 C1143 1.301 . S
O1147 U1126 2.449 . S
O1147 C1143 1.282 . S
H1148 C1121 0.931 . S
H1149 C1123 0.929 . S
H1150 C1124 0.930 . S
H1151 C1125 0.931 . S
H1152 C1132 0.932 . S
H1153 C1133 0.930 . S
H1154 C1134 0.929 . S
H1155 C1136 0.930 . S
H1156 C1138 0.932 . S
H1157 C1139 0.929 . S
H1158 C1140 0.928 . S
H1159 C1142 0.932 . S
C1160 C1161 1.264 . S
C1160 C1165 1.479 . S
C1160 C1170 1.465 . S
C1161 C1160 1.264 . S
C1161 C1163 1.339 . S
C1161 H1188 0.931 . S
C1162 C1163 1.395 . S
C1162 C1164 1.320 . S
C1163 C1161 1.339 . S
C1163 C1162 1.395 . S
C1163 H1189 0.929 . S
C1164 C1162 1.320 . S
C1164 C1165 1.405 . S
C1164 H1190 0.930 . S
C1165 C1160 1.479 . S
C1165 C1164 1.405 . S
C1165 H1191 0.931 . S
U1166 O1167 2.454 . S
U1166 O1168 2.458 . S
U1166 C1169 2.984 . S
U1166 C1170 2.847 . S
U1166 C1183 2.882 . S
U1166 O1184 2.441 . S
U1166 O1185 2.420 . S
U1166 O1186 2.455 . S
U1166 O1187 2.449 . S
O1167 U1166 2.454 . S
O1167 C1169 1.353 . S
O1168 U1166 2.458 . S
O1168 C1169 1.286 . S
C1169 U1166 2.984 . S
C1169 O1167 1.353 . S
C1169 O1168 1.286 . S
C1169 C1171 1.363 . S
C1170 C1160 1.465 . S
C1170 U1166 2.847 . S
C1170 O1184 1.249 . S
C1170 O1185 1.202 . S
C1171 C1169 1.363 . S
C1171 C1173 1.408 . S
C1171 C1176 1.342 . S
C1172 C1173 1.310 . S
C1172 C1175 1.461 . S
C1172 H1192 0.932 . S
C1173 C1171 1.408 . S
C1173 C1172 1.310 . S
C1173 H1193 0.930 . S
C1174 C1175 1.474 . S
C1174 C1176 1.285 . S
C1174 H1194 0.929 . S
C1175 C1172 1.461 . S
C1175 C1174 1.474 . S
C1176 C1171 1.342 . S
C1176 C1174 1.285 . S
C1176 H1195 0.930 . S
C1177 C1180 1.424 . S
C1177 C1182 1.245 . S
C1177 C1183 1.428 . S
C1178 C1181 1.260 . S
C1178 C1182 1.477 . S
C1178 H1196 0.932 . S
C1179 C1180 1.384 . S
C1179 C1181 1.479 . S
C1179 H1197 0.929 . S
C1180 C1177 1.424 . S
C1180 C1179 1.384 . S
C1180 H1198 0.928 . S
C1181 C1178 1.260 . S
C1181 C1179 1.479 . S
C1182 C1177 1.245 . S
C1182 C1178 1.477 . S
C1182 H1199 0.932 . S
C1183 U1166 2.882 . S
C1183 C1177 1.428 . S
C1183 O1186 1.301 . S
C1183 O1187 1.282 . S
O1184 U1166 2.441 . S
O1184 C1170 1.249 . S
O1185 U1166 2.420 . S
O1185 C1170 1.202 . S
O1186 U1166 2.455 . S
O1186 C1183 1.301 . S
O1187 U1166 2.449 . S
O1187 C1183 1.282 . S
H1188 C1161 0.931 . S
H1189 C1163 0.929 . S
H1190 C1164 0.930 . S
H1191 C1165 0.931 . S
H1192 C1172 0.932 . S
H1193 C1173 0.930 . S
H1194 C1174 0.929 . S
H1195 C1176 0.930 . S
H1196 C1178 0.932 . S
H1197 C1179 0.929 . S
H1198 C1180 0.928 . S
H1199 C1182 0.932 . S
C1200 C1201 1.264 . S
C1200 C1205 1.479 . S
C1200 C1210 1.465 . S
C1201 C1200 1.264 . S
C1201 C1203 1.339 . S
C1201 H1228 0.931 . S
C1202 C1203 1.395 . S
C1202 C1204 1.320 . S
C1203 C1201 1.339 . S
C1203 C1202 1.395 . S
C1203 H1229 0.929 . S
C1204 C1202 1.320 . S
C1204 C1205 1.405 . S
C1204 H1230 0.930 . S
C1205 C1200 1.479 . S
C1205 C1204 1.405 . S
C1205 H1231 0.931 . S
U1206 O1207 2.454 . S
U1206 O1208 2.458 . S
U1206 C1209 2.984 . S
U1206 C1210 2.847 . S
U1206 C1223 2.882 . S
U1206 O1224 2.441 . S
U1206 O1225 2.420 . S
U1206 O1226 2.455 . S
U1206 O1227 2.449 . S
O1207 U1206 2.454 . S
O1207 C1209 1.353 . S
O1208 U1206 2.458 . S
O1208 C1209 1.286 . S
C1209 U1206 2.984 . S
C1209 O1207 1.353 . S
C1209 O1208 1.286 . S
C1209 C1211 1.363 . S
C1210 C1200 1.465 . S
C1210 U1206 2.847 . S
C1210 O1224 1.249 . S
C1210 O1225 1.202 . S
C1211 C1209 1.363 . S
C1211 C1213 1.408 . S
C1211 C1216 1.342 . S
C1212 C1213 1.310 . S
C1212 C1215 1.461 . S
C1212 H1232 0.932 . S
C1213 C1211 1.408 . S
C1213 C1212 1.310 . S
C1213 H1233 0.930 . S
C1214 C1215 1.474 . S
C1214 C1216 1.285 . S
C1214 H1234 0.929 . S
C1215 C1212 1.461 . S
C1215 C1214 1.474 . S
C1216 C1211 1.342 . S
C1216 C1214 1.285 . S
C1216 H1235 0.930 . S
C1217 C1220 1.424 . S
C1217 C1222 1.245 . S
C1217 C1223 1.428 . S
C1218 C1221 1.260 . S
C1218 C1222 1.477 . S
C1218 H1236 0.932 . S
C1219 C1220 1.384 . S
C1219 C1221 1.479 . S
C1219 H1237 0.929 . S
C1220 C1217 1.424 . S
C1220 C1219 1.384 . S
C1220 H1238 0.928 . S
C1221 C1218 1.260 . S
C1221 C1219 1.479 . S
C1222 C1217 1.245 . S
C1222 C1218 1.477 . S
C1222 H1239 0.932 . S
C1223 U1206 2.882 . S
C1223 C1217 1.428 . S
C1223 O1226 1.301 . S
C1223 O1227 1.282 . S
O1224 U1206 2.441 . S
O1224 C1210 1.249 . S
O1225 U1206 2.420 . S
O1225 C1210 1.202 . S
O1226 U1206 2.455 . S
O1226 C1223 1.301 . S
O1227 U1206 2.449 . S
O1227 C1223 1.282 . S
H1228 C1201 0.931 . S
H1229 C1203 0.929 . S
H1230 C1204 0.930 . S
H1231 C1205 0.931 . S
H1232 C1212 0.932 . S
H1233 C1213 0.930 . S
H1234 C1214 0.929 . S
H1235 C1216 0.930 . S
H1236 C1218 0.932 . S
H1237 C1219 0.929 . S
H1238 C1220 0.928 . S
H1239 C1222 0.932 . S
C1240 C1241 1.264 . S
C1240 C1245 1.479 . S
C1240 C1250 1.465 . S
C1241 C1240 1.264 . S
C1241 C1243 1.339 . S
C1241 H1268 0.931 . S
C1242 C1243 1.395 . S
C1242 C1244 1.320 . S
C1243 C1241 1.339 . S
C1243 C1242 1.395 . S
C1243 H1269 0.929 . S
C1244 C1242 1.320 . S
C1244 C1245 1.405 . S
C1244 H1270 0.930 . S
C1245 C1240 1.479 . S
C1245 C1244 1.405 . S
C1245 H1271 0.931 . S
U1246 O1247 2.454 . S
U1246 O1248 2.458 . S
U1246 C1249 2.984 . S
U1246 C1250 2.847 . S
U1246 C1263 2.882 . S
U1246 O1264 2.441 . S
U1246 O1265 2.420 . S
U1246 O1266 2.455 . S
U1246 O1267 2.449 . S
O1247 U1246 2.454 . S
O1247 C1249 1.353 . S
O1248 U1246 2.458 . S
O1248 C1249 1.286 . S
C1249 U1246 2.984 . S
C1249 O1247 1.353 . S
C1249 O1248 1.286 . S
C1249 C1251 1.363 . S
C1250 C1240 1.465 . S
C1250 U1246 2.847 . S
C1250 O1264 1.249 . S
C1250 O1265 1.202 . S
C1251 C1249 1.363 . S
C1251 C1253 1.408 . S
C1251 C1256 1.342 . S
C1252 C1253 1.310 . S
C1252 C1255 1.461 . S
C1252 H1272 0.932 . S
C1253 C1251 1.408 . S
C1253 C1252 1.310 . S
C1253 H1273 0.930 . S
C1254 C1255 1.474 . S
C1254 C1256 1.285 . S
C1254 H1274 0.929 . S
C1255 C1252 1.461 . S
C1255 C1254 1.474 . S
C1256 C1251 1.342 . S
C1256 C1254 1.285 . S
C1256 H1275 0.930 . S
C1257 C1260 1.424 . S
C1257 C1262 1.245 . S
C1257 C1263 1.428 . S
C1258 C1261 1.260 . S
C1258 C1262 1.477 . S
C1258 H1276 0.932 . S
C1259 C1260 1.384 . S
C1259 C1261 1.479 . S
C1259 H1277 0.929 . S
C1260 C1257 1.424 . S
C1260 C1259 1.384 . S
C1260 H1278 0.928 . S
C1261 C1258 1.260 . S
C1261 C1259 1.479 . S
C1262 C1257 1.245 . S
C1262 C1258 1.477 . S
C1262 H1279 0.932 . S
C1263 U1246 2.882 . S
C1263 C1257 1.428 . S
C1263 O1266 1.301 . S
C1263 O1267 1.282 . S
O1264 U1246 2.441 . S
O1264 C1250 1.249 . S
O1265 U1246 2.420 . S
O1265 C1250 1.202 . S
O1266 U1246 2.455 . S
O1266 C1263 1.301 . S
O1267 U1246 2.449 . S
O1267 C1263 1.282 . S
H1268 C1241 0.931 . S
H1269 C1243 0.929 . S
H1270 C1244 0.930 . S
H1271 C1245 0.931 . S
H1272 C1252 0.932 . S
H1273 C1253 0.930 . S
H1274 C1254 0.929 . S
H1275 C1256 0.930 . S
H1276 C1258 0.932 . S
H1277 C1259 0.929 . S
H1278 C1260 0.928 . S
H1279 C1262 0.932 . S
C1280 C1281 1.264 . S
C1280 C1285 1.479 . S
C1280 C1290 1.465 . S
C1281 C1280 1.264 . S
C1281 C1283 1.339 . S
C1281 H1308 0.931 . S
C1282 C1283 1.395 . S
C1282 C1284 1.320 . S
C1283 C1281 1.339 . S
C1283 C1282 1.395 . S
C1283 H1309 0.929 . S
C1284 C1282 1.320 . S
C1284 C1285 1.405 . S
C1284 H1310 0.930 . S
C1285 C1280 1.479 . S
C1285 C1284 1.405 . S
C1285 H1311 0.931 . S
U1286 O1287 2.454 . S
U1286 O1288 2.458 . S
U1286 C1289 2.984 . S
U1286 C1290 2.847 . S
U1286 C1303 2.882 . S
U1286 O1304 2.441 . S
U1286 O1305 2.420 . S
U1286 O1306 2.455 . S
U1286 O1307 2.449 . S
O1287 U1286 2.454 . S
O1287 C1289 1.353 . S
O1288 U1286 2.458 . S
O1288 C1289 1.286 . S
C1289 U1286 2.984 . S
C1289 O1287 1.353 . S
C1289 O1288 1.286 . S
C1289 C1291 1.363 . S
C1290 C1280 1.465 . S
C1290 U1286 2.847 . S
C1290 O1304 1.249 . S
C1290 O1305 1.202 . S
C1291 C1289 1.363 . S
C1291 C1293 1.408 . S
C1291 C1296 1.342 . S
C1292 C1293 1.310 . S
C1292 C1295 1.461 . S
C1292 H1312 0.932 . S
C1293 C1291 1.408 . S
C1293 C1292 1.310 . S
C1293 H1313 0.930 . S
C1294 C1295 1.474 . S
C1294 C1296 1.285 . S
C1294 H1314 0.929 . S
C1295 C1292 1.461 . S
C1295 C1294 1.474 . S
C1296 C1291 1.342 . S
C1296 C1294 1.285 . S
C1296 H1315 0.930 . S
C1297 C1300 1.424 . S
C1297 C1302 1.245 . S
C1297 C1303 1.428 . S
C1298 C1301 1.260 . S
C1298 C1302 1.477 . S
C1298 H1316 0.932 . S
C1299 C1300 1.384 . S
C1299 C1301 1.479 . S
C1299 H1317 0.929 . S
C1300 C1297 1.424 . S
C1300 C1299 1.384 . S
C1300 H1318 0.928 . S
C1301 C1298 1.260 . S
C1301 C1299 1.479 . S
C1302 C1297 1.245 . S
C1302 C1298 1.477 . S
C1302 H1319 0.932 . S
C1303 U1286 2.882 . S
C1303 C1297 1.428 . S
C1303 O1306 1.301 . S
C1303 O1307 1.282 . S
O1304 U1286 2.441 . S
O1304 C1290 1.249 . S
O1305 U1286 2.420 . S
O1305 C1290 1.202 . S
O1306 U1286 2.455 . S
O1306 C1303 1.301 . S
O1307 U1286 2.449 . S
O1307 C1303 1.282 . S
H1308 C1281 0.931 . S
H1309 C1283 0.929 . S
H1310 C1284 0.930 . S
H1311 C1285 0.931 . S
H1312 C1292 0.932 . S
H1313 C1293 0.930 . S
H1314 C1294 0.929 . S
H1315 C1296 0.930 . S
H1316 C1298 0.932 . S
H1317 C1299 0.929 . S
H1318 C1300 0.928 . S
H1319 C1302 0.932 . S
C1320 C1321 1.264 . S
C1320 C1325 1.479 . S
C1320 C1330 1.465 . S
C1321 C1320 1.264 . S
C1321 C1323 1.339 . S
C1321 H1348 0.931 . S
C1322 C1323 1.395 . S
C1322 C1324 1.320 . S
C1323 C1321 1.339 . S
C1323 C1322 1.395 . S
C1323 H1349 0.929 . S
C1324 C1322 1.320 . S
C1324 C1325 1.405 . S
C1324 H1350 0.930 . S
C1325 C1320 1.479 . S
C1325 C1324 1.405 . S
C1325 H1351 0.931 . S
U1326 O1327 2.454 . S
U1326 O1328 2.458 . S
U1326 C1329 2.984 . S
U1326 C1330 2.847 . S
U1326 C1343 2.882 . S
U1326 O1344 2.441 . S
U1326 O1345 2.420 . S
U1326 O1346 2.455 . S
U1326 O1347 2.449 . S
O1327 U1326 2.454 . S
O1327 C1329 1.353 . S
O1328 U1326 2.458 . S
O1328 C1329 1.286 . S
C1329 U1326 2.984 . S
C1329 O1327 1.353 . S
C1329 O1328 1.286 . S
C1329 C1331 1.363 . S
C1330 C1320 1.465 . S
C1330 U1326 2.847 . S
C1330 O1344 1.249 . S
C1330 O1345 1.202 . S
C1331 C1329 1.363 . S
C1331 C1333 1.408 . S
C1331 C1336 1.342 . S
C1332 C1333 1.310 . S
C1332 C1335 1.461 . S
C1332 H1352 0.932 . S
C1333 C1331 1.408 . S
C1333 C1332 1.310 . S
C1333 H1353 0.930 . S
C1334 C1335 1.474 . S
C1334 C1336 1.285 . S
C1334 H1354 0.929 . S
C1335 C1332 1.461 . S
C1335 C1334 1.474 . S
C1336 C1331 1.342 . S
C1336 C1334 1.285 . S
C1336 H1355 0.930 . S
C1337 C1340 1.424 . S
C1337 C1342 1.245 . S
C1337 C1343 1.428 . S
C1338 C1341 1.260 . S
C1338 C1342 1.477 . S
C1338 H1356 0.932 . S
C1339 C1340 1.384 . S
C1339 C1341 1.479 . S
C1339 H1357 0.929 . S
C1340 C1337 1.424 . S
C1340 C1339 1.384 . S
C1340 H1358 0.928 . S
C1341 C1338 1.260 . S
C1341 C1339 1.479 . S
C1342 C1337 1.245 . S
C1342 C1338 1.477 . S
C1342 H1359 0.932 . S
C1343 U1326 2.882 . S
C1343 C1337 1.428 . S
C1343 O1346 1.301 . S
C1343 O1347 1.282 . S
O1344 U1326 2.441 . S
O1344 C1330 1.249 . S
O1345 U1326 2.420 . S
O1345 C1330 1.202 . S
O1346 U1326 2.455 . S
O1346 C1343 1.301 . S
O1347 U1326 2.449 . S
O1347 C1343 1.282 . S
H1348 C1321 0.931 . S
H1349 C1323 0.929 . S
H1350 C1324 0.930 . S
H1351 C1325 0.931 . S
H1352 C1332 0.932 . S
H1353 C1333 0.930 . S
H1354 C1334 0.929 . S
H1355 C1336 0.930 . S
H1356 C1338 0.932 . S
H1357 C1339 0.929 . S
H1358 C1340 0.928 . S
H1359 C1342 0.932 . S
C1360 C1361 1.264 . S
C1360 C1365 1.479 . S
C1360 C1370 1.465 . S
C1361 C1360 1.264 . S
C1361 C1363 1.339 . S
C1361 H1388 0.931 . S
C1362 C1363 1.395 . S
C1362 C1364 1.320 . S
C1363 C1361 1.339 . S
C1363 C1362 1.395 . S
C1363 H1389 0.929 . S
C1364 C1362 1.320 . S
C1364 C1365 1.405 . S
C1364 H1390 0.930 . S
C1365 C1360 1.479 . S
C1365 C1364 1.405 . S
C1365 H1391 0.931 . S
U1366 O1367 2.454 . S
U1366 O1368 2.458 . S
U1366 C1369 2.984 . S
U1366 C1370 2.847 . S
U1366 C1383 2.882 . S
U1366 O1384 2.441 . S
U1366 O1385 2.420 . S
U1366 O1386 2.455 . S
U1366 O1387 2.449 . S
O1367 U1366 2.454 . S
O1367 C1369 1.353 . S
O1368 U1366 2.458 . S
O1368 C1369 1.286 . S
C1369 U1366 2.984 . S
C1369 O1367 1.353 . S
C1369 O1368 1.286 . S
C1369 C1371 1.363 . S
C1370 C1360 1.465 . S
C1370 U1366 2.847 . S
C1370 O1384 1.249 . S
C1370 O1385 1.202 . S
C1371 C1369 1.363 . S
C1371 C1373 1.408 . S
C1371 C1376 1.342 . S
C1372 C1373 1.310 . S
C1372 C1375 1.461 . S
C1372 H1392 0.932 . S
C1373 C1371 1.408 . S
C1373 C1372 1.310 . S
C1373 H1393 0.930 . S
C1374 C1375 1.474 . S
C1374 C1376 1.285 . S
C1374 H1394 0.929 . S
C1375 C1372 1.461 . S
C1375 C1374 1.474 . S
C1376 C1371 1.342 . S
C1376 C1374 1.285 . S
C1376 H1395 0.930 . S
C1377 C1380 1.424 . S
C1377 C1382 1.245 . S
C1377 C1383 1.428 . S
C1378 C1381 1.260 . S
C1378 C1382 1.477 . S
C1378 H1396 0.932 . S
C1379 C1380 1.384 . S
C1379 C1381 1.479 . S
C1379 H1397 0.929 . S
C1380 C1377 1.424 . S
C1380 C1379 1.384 . S
C1380 H1398 0.928 . S
C1381 C1378 1.260 . S
C1381 C1379 1.479 . S
C1382 C1377 1.245 . S
C1382 C1378 1.477 . S
C1382 H1399 0.932 . S
C1383 U1366 2.882 . S
C1383 C1377 1.428 . S
C1383 O1386 1.301 . S
C1383 O1387 1.282 . S
O1384 U1366 2.441 . S
O1384 C1370 1.249 . S
O1385 U1366 2.420 . S
O1385 C1370 1.202 . S
O1386 U1366 2.455 . S
O1386 C1383 1.301 . S
O1387 U1366 2.449 . S
O1387 C1383 1.282 . S
H1388 C1361 0.931 . S
H1389 C1363 0.929 . S
H1390 C1364 0.930 . S
H1391 C1365 0.931 . S
H1392 C1372 0.932 . S
H1393 C1373 0.930 . S
H1394 C1374 0.929 . S
H1395 C1376 0.930 . S
H1396 C1378 0.932 . S
H1397 C1379 0.929 . S
H1398 C1380 0.928 . S
H1399 C1382 0.932 . S
C1400 C1401 1.264 . S
C1400 C1405 1.479 . S
C1400 C1410 1.465 . S
C1401 C1400 1.264 . S
C1401 C1403 1.339 . S
C1401 H1428 0.931 . S
C1402 C1403 1.395 . S
C1402 C1404 1.320 . S
C1403 C1401 1.339 . S
C1403 C1402 1.395 . S
C1403 H1429 0.929 . S
C1404 C1402 1.320 . S
C1404 C1405 1.405 . S
C1404 H1430 0.930 . S
C1405 C1400 1.479 . S
C1405 C1404 1.405 . S
C1405 H1431 0.931 . S
U1406 O1407 2.454 . S
U1406 O1408 2.458 . S
U1406 C1409 2.984 . S
U1406 C1410 2.847 . S
U1406 C1423 2.882 . S
U1406 O1424 2.441 . S
U1406 O1425 2.420 . S
U1406 O1426 2.455 . S
U1406 O1427 2.449 . S
O1407 U1406 2.454 . S
O1407 C1409 1.353 . S
O1408 U1406 2.458 . S
O1408 C1409 1.286 . S
C1409 U1406 2.984 . S
C1409 O1407 1.353 . S
C1409 O1408 1.286 . S
C1409 C1411 1.363 . S
C1410 C1400 1.465 . S
C1410 U1406 2.847 . S
C1410 O1424 1.249 . S
C1410 O1425 1.202 . S
C1411 C1409 1.363 . S
C1411 C1413 1.408 . S
C1411 C1416 1.342 . S
C1412 C1413 1.310 . S
C1412 C1415 1.461 . S
C1412 H1432 0.932 . S
C1413 C1411 1.408 . S
C1413 C1412 1.310 . S
C1413 H1433 0.930 . S
C1414 C1415 1.474 . S
C1414 C1416 1.285 . S
C1414 H1434 0.929 . S
C1415 C1412 1.461 . S
C1415 C1414 1.474 . S
C1416 C1411 1.342 . S
C1416 C1414 1.285 . S
C1416 H1435 0.930 . S
C1417 C1420 1.424 . S
C1417 C1422 1.245 . S
C1417 C1423 1.428 . S
C1418 C1421 1.260 . S
C1418 C1422 1.477 . S
C1418 H1436 0.932 . S
C1419 C1420 1.384 . S
C1419 C1421 1.479 . S
C1419 H1437 0.929 . S
C1420 C1417 1.424 . S
C1420 C1419 1.384 . S
C1420 H1438 0.928 . S
C1421 C1418 1.260 . S
C1421 C1419 1.479 . S
C1422 C1417 1.245 . S
C1422 C1418 1.477 . S
C1422 H1439 0.932 . S
C1423 U1406 2.882 . S
C1423 C1417 1.428 . S
C1423 O1426 1.301 . S
C1423 O1427 1.282 . S
O1424 U1406 2.441 . S
O1424 C1410 1.249 . S
O1425 U1406 2.420 . S
O1425 C1410 1.202 . S
O1426 U1406 2.455 . S
O1426 C1423 1.301 . S
O1427 U1406 2.449 . S
O1427 C1423 1.282 . S
H1428 C1401 0.931 . S
H1429 C1403 0.929 . S
H1430 C1404 0.930 . S
H1431 C1405 0.931 . S
H1432 C1412 0.932 . S
H1433 C1413 0.930 . S
H1434 C1414 0.929 . S
H1435 C1416 0.930 . S
H1436 C1418 0.932 . S
H1437 C1419 0.929 . S
H1438 C1420 0.928 . S
H1439 C1422 0.932 . S
C1440 C1441 1.264 . S
C1440 C1445 1.479 . S
C1440 C1450 1.465 . S
C1441 C1440 1.264 . S
C1441 C1443 1.339 . S
C1441 H1468 0.931 . S
C1442 C1443 1.395 . S
C1442 C1444 1.320 . S
C1443 C1441 1.339 . S
C1443 C1442 1.395 . S
C1443 H1469 0.929 . S
C1444 C1442 1.320 . S
C1444 C1445 1.405 . S
C1444 H1470 0.930 . S
C1445 C1440 1.479 . S
C1445 C1444 1.405 . S
C1445 H1471 0.931 . S
U1446 O1447 2.454 . S
U1446 O1448 2.458 . S
U1446 C1449 2.984 . S
U1446 C1450 2.847 . S
U1446 C1463 2.882 . S
U1446 O1464 2.441 . S
U1446 O1465 2.420 . S
U1446 O1466 2.455 . S
U1446 O1467 2.449 . S
O1447 U1446 2.454 . S
O1447 C1449 1.353 . S
O1448 U1446 2.458 . S
O1448 C1449 1.286 . S
C1449 U1446 2.984 . S
C1449 O1447 1.353 . S
C1449 O1448 1.286 . S
C1449 C1451 1.363 . S
C1450 C1440 1.465 . S
C1450 U1446 2.847 . S
C1450 O1464 1.249 . S
C1450 O1465 1.202 . S
C1451 C1449 1.363 . S
C1451 C1453 1.408 . S
C1451 C1456 1.342 . S
C1452 C1453 1.310 . S
C1452 C1455 1.461 . S
C1452 H1472 0.932 . S
C1453 C1451 1.408 . S
C1453 C1452 1.310 . S
C1453 H1473 0.930 . S
C1454 C1455 1.474 . S
C1454 C1456 1.285 . S
C1454 H1474 0.929 . S
C1455 C1452 1.461 . S
C1455 C1454 1.474 . S
C1456 C1451 1.342 . S
C1456 C1454 1.285 . S
C1456 H1475 0.930 . S
C1457 C1460 1.424 . S
C1457 C1462 1.245 . S
C1457 C1463 1.428 . S
C1458 C1461 1.260 . S
C1458 C1462 1.477 . S
C1458 H1476 0.932 . S
C1459 C1460 1.384 . S
C1459 C1461 1.479 . S
C1459 H1477 0.929 . S
C1460 C1457 1.424 . S
C1460 C1459 1.384 . S
C1460 H1478 0.928 . S
C1461 C1458 1.260 . S
C1461 C1459 1.479 . S
C1462 C1457 1.245 . S
C1462 C1458 1.477 . S
C1462 H1479 0.932 . S
C1463 U1446 2.882 . S
C1463 C1457 1.428 . S
C1463 O1466 1.301 . S
C1463 O1467 1.282 . S
O1464 U1446 2.441 . S
O1464 C1450 1.249 . S
O1465 U1446 2.420 . S
O1465 C1450 1.202 . S
O1466 U1446 2.455 . S
O1466 C1463 1.301 . S
O1467 U1446 2.449 . S
O1467 C1463 1.282 . S
H1468 C1441 0.931 . S
H1469 C1443 0.929 . S
H1470 C1444 0.930 . S
H1471 C1445 0.931 . S
H1472 C1452 0.932 . S
H1473 C1453 0.930 . S
H1474 C1454 0.929 . S
H1475 C1456 0.930 . S
H1476 C1458 0.932 . S
H1477 C1459 0.929 . S
H1478 C1460 0.928 . S
H1479 C1462 0.932 . S
C1480 C1481 1.264 . S
C1480 C1485 1.479 . S
C1480 C1490 1.465 . S
C1481 C1480 1.264 . S
C1481 C1483 1.339 . S
C1481 H1508 0.931 . S
C1482 C1483 1.395 . S
C1482 C1484 1.320 . S
C1483 C1481 1.339 . S
C1483 C1482 1.395 . S
C1483 H1509 0.929 . S
C1484 C1482 1.320 . S
C1484 C1485 1.405 . S
C1484 H1510 0.930 . S
C1485 C1480 1.479 . S
C1485 C1484 1.405 . S
C1485 H1511 0.931 . S
U1486 O1487 2.454 . S
U1486 O1488 2.458 . S
U1486 C1489 2.984 . S
U1486 C1490 2.847 . S
U1486 C1503 2.882 . S
U1486 O1504 2.441 . S
U1486 O1505 2.420 . S
U1486 O1506 2.455 . S
U1486 O1507 2.449 . S
O1487 U1486 2.454 . S
O1487 C1489 1.353 . S
O1488 U1486 2.458 . S
O1488 C1489 1.286 . S
C1489 U1486 2.984 . S
C1489 O1487 1.353 . S
C1489 O1488 1.286 . S
C1489 C1491 1.363 . S
C1490 C1480 1.465 . S
C1490 U1486 2.847 . S
C1490 O1504 1.249 . S
C1490 O1505 1.202 . S
C1491 C1489 1.363 . S
C1491 C1493 1.408 . S
C1491 C1496 1.342 . S
C1492 C1493 1.310 . S
C1492 C1495 1.461 . S
C1492 H1512 0.932 . S
C1493 C1491 1.408 . S
C1493 C1492 1.310 . S
C1493 H1513 0.930 . S
C1494 C1495 1.474 . S
C1494 C1496 1.285 . S
C1494 H1514 0.929 . S
C1495 C1492 1.461 . S
C1495 C1494 1.474 . S
C1496 C1491 1.342 . S
C1496 C1494 1.285 . S
C1496 H1515 0.930 . S
C1497 C1500 1.424 . S
C1497 C1502 1.245 . S
C1497 C1503 1.428 . S
C1498 C1501 1.260 . S
C1498 C1502 1.477 . S
C1498 H1516 0.932 . S
C1499 C1500 1.384 . S
C1499 C1501 1.479 . S
C1499 H1517 0.929 . S
C1500 C1497 1.424 . S
C1500 C1499 1.384 . S
C1500 H1518 0.928 . S
C1501 C1498 1.260 . S
C1501 C1499 1.479 . S
C1502 C1497 1.245 . S
C1502 C1498 1.477 . S
C1502 H1519 0.932 . S
C1503 U1486 2.882 . S
C1503 C1497 1.428 . S
C1503 O1506 1.301 . S
C1503 O1507 1.282 . S
O1504 U1486 2.441 . S
O1504 C1490 1.249 . S
O1505 U1486 2.420 . S
O1505 C1490 1.202 . S
O1506 U1486 2.455 . S
O1506 C1503 1.301 . S
O1507 U1486 2.449 . S
O1507 C1503 1.282 . S
H1508 C1481 0.931 . S
H1509 C1483 0.929 . S
H1510 C1484 0.930 . S
H1511 C1485 0.931 . S
H1512 C1492 0.932 . S
H1513 C1493 0.930 . S
H1514 C1494 0.929 . S
H1515 C1496 0.930 . S
H1516 C1498 0.932 . S
H1517 C1499 0.929 . S
H1518 C1500 0.928 . S
H1519 C1502 0.932 . S
C1520 C1521 1.264 . S
C1520 C1525 1.479 . S
C1520 C1530 1.465 . S
C1521 C1520 1.264 . S
C1521 C1523 1.339 . S
C1521 H1548 0.931 . S
C1522 C1523 1.395 . S
C1522 C1524 1.320 . S
C1523 C1521 1.339 . S
C1523 C1522 1.395 . S
C1523 H1549 0.929 . S
C1524 C1522 1.320 . S
C1524 C1525 1.405 . S
C1524 H1550 0.930 . S
C1525 C1520 1.479 . S
C1525 C1524 1.405 . S
C1525 H1551 0.931 . S
U1526 O1527 2.454 . S
U1526 O1528 2.458 . S
U1526 C1529 2.984 . S
U1526 C1530 2.847 . S
U1526 C1543 2.882 . S
U1526 O1544 2.441 . S
U1526 O1545 2.420 . S
U1526 O1546 2.455 . S
U1526 O1547 2.449 . S
O1527 U1526 2.454 . S
O1527 C1529 1.353 . S
O1528 U1526 2.458 . S
O1528 C1529 1.286 . S
C1529 U1526 2.984 . S
C1529 O1527 1.353 . S
C1529 O1528 1.286 . S
C1529 C1531 1.363 . S
C1530 C1520 1.465 . S
C1530 U1526 2.847 . S
C1530 O1544 1.249 . S
C1530 O1545 1.202 . S
C1531 C1529 1.363 . S
C1531 C1533 1.408 . S
C1531 C1536 1.342 . S
C1532 C1533 1.310 . S
C1532 C1535 1.461 . S
C1532 H1552 0.932 . S
C1533 C1531 1.408 . S
C1533 C1532 1.310 . S
C1533 H1553 0.930 . S
C1534 C1535 1.474 . S
C1534 C1536 1.285 . S
C1534 H1554 0.929 . S
C1535 C1532 1.461 . S
C1535 C1534 1.474 . S
C1536 C1531 1.342 . S
C1536 C1534 1.285 . S
C1536 H1555 0.930 . S
C1537 C1540 1.424 . S
C1537 C1542 1.245 . S
C1537 C1543 1.428 . S
C1538 C1541 1.260 . S
C1538 C1542 1.477 . S
C1538 H1556 0.932 . S
C1539 C1540 1.384 . S
C1539 C1541 1.479 . S
C1539 H1557 0.929 . S
C1540 C1537 1.424 . S
C1540 C1539 1.384 . S
C1540 H1558 0.928 . S
C1541 C1538 1.260 . S
C1541 C1539 1.479 . S
C1542 C1537 1.245 . S
C1542 C1538 1.477 . S
C1542 H1559 0.932 . S
C1543 U1526 2.882 . S
C1543 C1537 1.428 . S
C1543 O1546 1.301 . S
C1543 O1547 1.282 . S
O1544 U1526 2.441 . S
O1544 C1530 1.249 . S
O1545 U1526 2.420 . S
O1545 C1530 1.202 . S
O1546 U1526 2.455 . S
O1546 C1543 1.301 . S
O1547 U1526 2.449 . S
O1547 C1543 1.282 . S
H1548 C1521 0.931 . S
H1549 C1523 0.929 . S
H1550 C1524 0.930 . S
H1551 C1525 0.931 . S
H1552 C1532 0.932 . S
H1553 C1533 0.930 . S
H1554 C1534 0.929 . S
H1555 C1536 0.930 . S
H1556 C1538 0.932 . S
H1557 C1539 0.929 . S
H1558 C1540 0.928 . S
H1559 C1542 0.932 . S
C1560 C1561 1.264 . S
C1560 C1565 1.479 . S
C1560 C1570 1.465 . S
C1561 C1560 1.264 . S
C1561 C1563 1.339 . S
C1561 H1588 0.931 . S
C1562 C1563 1.395 . S
C1562 C1564 1.320 . S
C1563 C1561 1.339 . S
C1563 C1562 1.395 . S
C1563 H1589 0.929 . S
C1564 C1562 1.320 . S
C1564 C1565 1.405 . S
C1564 H1590 0.930 . S
C1565 C1560 1.479 . S
C1565 C1564 1.405 . S
C1565 H1591 0.931 . S
U1566 O1567 2.454 . S
U1566 O1568 2.458 . S
U1566 C1569 2.984 . S
U1566 C1570 2.847 . S
U1566 C1583 2.882 . S
U1566 O1584 2.441 . S
U1566 O1585 2.420 . S
U1566 O1586 2.455 . S
U1566 O1587 2.449 . S
O1567 U1566 2.454 . S
O1567 C1569 1.353 . S
O1568 U1566 2.458 . S
O1568 C1569 1.286 . S
C1569 U1566 2.984 . S
C1569 O1567 1.353 . S
C1569 O1568 1.286 . S
C1569 C1571 1.363 . S
C1570 C1560 1.465 . S
C1570 U1566 2.847 . S
C1570 O1584 1.249 . S
C1570 O1585 1.202 . S
C1571 C1569 1.363 . S
C1571 C1573 1.408 . S
C1571 C1576 1.342 . S
C1572 C1573 1.310 . S
C1572 C1575 1.461 . S
C1572 H1592 0.932 . S
C1573 C1571 1.408 . S
C1573 C1572 1.310 . S
C1573 H1593 0.930 . S
C1574 C1575 1.474 . S
C1574 C1576 1.285 . S
C1574 H1594 0.929 . S
C1575 C1572 1.461 . S
C1575 C1574 1.474 . S
C1576 C1571 1.342 . S
C1576 C1574 1.285 . S
C1576 H1595 0.930 . S
C1577 C1580 1.424 . S
C1577 C1582 1.245 . S
C1577 C1583 1.428 . S
C1578 C1581 1.260 . S
C1578 C1582 1.477 . S
C1578 H1596 0.932 . S
C1579 C1580 1.384 . S
C1579 C1581 1.479 . S
C1579 H1597 0.929 . S
C1580 C1577 1.424 . S
C1580 C1579 1.384 . S
C1580 H1598 0.928 . S
C1581 C1578 1.260 . S
C1581 C1579 1.479 . S
C1582 C1577 1.245 . S
C1582 C1578 1.477 . S
C1582 H1599 0.932 . S
C1583 U1566 2.882 . S
C1583 C1577 1.428 . S
C1583 O1586 1.301 . S
C1583 O1587 1.282 . S
O1584 U1566 2.441 . S
O1584 C1570 1.249 . S
O1585 U1566 2.420 . S
O1585 C1570 1.202 . S
O1586 U1566 2.455 . S
O1586 C1583 1.301 . S
O1587 U1566 2.449 . S
O1587 C1583 1.282 . S
H1588 C1561 0.931 . S
H1589 C1563 0.929 . S
H1590 C1564 0.930 . S
H1591 C1565 0.931 . S
H1592 C1572 0.932 . S
H1593 C1573 0.930 . S
H1594 C1574 0.929 . S
H1595 C1576 0.930 . S
H1596 C1578 0.932 . S
H1597 C1579 0.929 . S
H1598 C1580 0.928 . S
H1599 C1582 0.932 . S
C1600 C1601 1.264 . S
C1600 C1605 1.479 . S
C1600 C1610 1.465 . S
C1601 C1600 1.264 . S
C1601 C1603 1.339 . S
C1601 H1628 0.931 . S
C1602 C1603 1.395 . S
C1602 C1604 1.320 . S
C1603 C1601 1.339 . S
C1603 C1602 1.395 . S
C1603 H1629 0.929 . S
C1604 C1602 1.320 . S
C1604 C1605 1.405 . S
C1604 H1630 0.930 . S
C1605 C1600 1.479 . S
C1605 C1604 1.405 . S
C1605 H1631 0.931 . S
U1606 O1607 2.454 . S
U1606 O1608 2.458 . S
U1606 C1609 2.984 . S
U1606 C1610 2.847 . S
U1606 C1623 2.882 . S
U1606 O1624 2.441 . S
U1606 O1625 2.420 . S
U1606 O1626 2.455 . S
U1606 O1627 2.449 . S
O1607 U1606 2.454 . S
O1607 C1609 1.353 . S
O1608 U1606 2.458 . S
O1608 C1609 1.286 . S
C1609 U1606 2.984 . S
C1609 O1607 1.353 . S
C1609 O1608 1.286 . S
C1609 C1611 1.363 . S
C1610 C1600 1.465 . S
C1610 U1606 2.847 . S
C1610 O1624 1.249 . S
C1610 O1625 1.202 . S
C1611 C1609 1.363 . S
C1611 C1613 1.408 . S
C1611 C1616 1.342 . S
C1612 C1613 1.310 . S
C1612 C1615 1.461 . S
C1612 H1632 0.932 . S
C1613 C1611 1.408 . S
C1613 C1612 1.310 . S
C1613 H1633 0.930 . S
C1614 C1615 1.474 . S
C1614 C1616 1.285 . S
C1614 H1634 0.929 . S
C1615 C1612 1.461 . S
C1615 C1614 1.474 . S
C1616 C1611 1.342 . S
C1616 C1614 1.285 . S
C1616 H1635 0.930 . S
C1617 C1620 1.424 . S
C1617 C1622 1.245 . S
C1617 C1623 1.428 . S
C1618 C1621 1.260 . S
C1618 C1622 1.477 . S
C1618 H1636 0.932 . S
C1619 C1620 1.384 . S
C1619 C1621 1.479 . S
C1619 H1637 0.929 . S
C1620 C1617 1.424 . S
C1620 C1619 1.384 . S
C1620 H1638 0.928 . S
C1621 C1618 1.260 . S
C1621 C1619 1.479 . S
C1622 C1617 1.245 . S
C1622 C1618 1.477 . S
C1622 H1639 0.932 . S
C1623 U1606 2.882 . S
C1623 C1617 1.428 . S
C1623 O1626 1.301 . S
C1623 O1627 1.282 . S
O1624 U1606 2.441 . S
O1624 C1610 1.249 . S
O1625 U1606 2.420 . S
O1625 C1610 1.202 . S
O1626 U1606 2.455 . S
O1626 C1623 1.301 . S
O1627 U1606 2.449 . S
O1627 C1623 1.282 . S
H1628 C1601 0.931 . S
H1629 C1603 0.929 . S
H1630 C1604 0.930 . S
H1631 C1605 0.931 . S
H1632 C1612 0.932 . S
H1633 C1613 0.930 . S
H1634 C1614 0.929 . S
H1635 C1616 0.930 . S
H1636 C1618 0.932 . S
H1637 C1619 0.929 . S
H1638 C1620 0.928 . S
H1639 C1622 0.932 . S
C1640 C1641 1.264 . S
C1640 C1645 1.479 . S
C1640 C1650 1.465 . S
C1641 C1640 1.264 . S
C1641 C1643 1.339 . S
C1641 H1668 0.931 . S
C1642 C1643 1.395 . S
C1642 C1644 1.320 . S
C1643 C1641 1.339 . S
C1643 C1642 1.395 . S
C1643 H1669 0.929 . S
C1644 C1642 1.320 . S
C1644 C1645 1.405 . S
C1644 H1670 0.930 . S
C1645 C1640 1.479 . S
C1645 C1644 1.405 . S
C1645 H1671 0.931 . S
U1646 O1647 2.454 . S
U1646 O1648 2.458 . S
U1646 C1649 2.984 . S
U1646 C1650 2.847 . S
U1646 C1663 2.882 . S
U1646 O1664 2.441 . S
U1646 O1665 2.420 . S
U1646 O1666 2.455 . S
U1646 O1667 2.449 . S
O1647 U1646 2.454 . S
O1647 C1649 1.353 . S
O1648 U1646 2.458 . S
O1648 C1649 1.286 . S
C1649 U1646 2.984 . S
C1649 O1647 1.353 . S
C1649 O1648 1.286 . S
C1649 C1651 1.363 . S
C1650 C1640 1.465 . S
C1650 U1646 2.847 . S
C1650 O1664 1.249 . S
C1650 O1665 1.202 . S
C1651 C1649 1.363 . S
C1651 C1653 1.408 . S
C1651 C1656 1.342 . S
C1652 C1653 1.310 . S
C1652 C1655 1.461 . S
C1652 H1672 0.932 . S
C1653 C1651 1.408 . S
C1653 C1652 1.310 . S
C1653 H1673 0.930 . S
C1654 C1655 1.474 . S
C1654 C1656 1.285 . S
C1654 H1674 0.929 . S
C1655 C1652 1.461 . S
C1655 C1654 1.474 . S
C1656 C1651 1.342 . S
C1656 C1654 1.285 . S
C1656 H1675 0.930 . S
C1657 C1660 1.424 . S
C1657 C1662 1.245 . S
C1657 C1663 1.428 . S
C1658 C1661 1.260 . S
C1658 C1662 1.477 . S
C1658 H1676 0.932 . S
C1659 C1660 1.384 . S
C1659 C1661 1.479 . S
C1659 H1677 0.929 . S
C1660 C1657 1.424 . S
C1660 C1659 1.384 . S
C1660 H1678 0.928 . S
C1661 C1658 1.260 . S
C1661 C1659 1.479 . S
C1662 C1657 1.245 . S
C1662 C1658 1.477 . S
C1662 H1679 0.932 . S
C1663 U1646 2.882 . S
C1663 C1657 1.428 . S
C1663 O1666 1.301 . S
C1663 O1667 1.282 . S
O1664 U1646 2.441 . S
O1664 C1650 1.249 . S
O1665 U1646 2.420 . S
O1665 C1650 1.202 . S
O1666 U1646 2.455 . S
O1666 C1663 1.301 . S
O1667 U1646 2.449 . S
O1667 C1663 1.282 . S
H1668 C1641 0.931 . S
H1669 C1643 0.929 . S
H1670 C1644 0.930 . S
H1671 C1645 0.931 . S
H1672 C1652 0.932 . S
H1673 C1653 0.930 . S
H1674 C1654 0.929 . S
H1675 C1656 0.930 . S
H1676 C1658 0.932 . S
H1677 C1659 0.929 . S
H1678 C1660 0.928 . S
H1679 C1662 0.932 . S
C1680 C1681 1.264 . S
C1680 C1685 1.479 . S
C1680 C1690 1.465 . S
C1681 C1680 1.264 . S
C1681 C1683 1.339 . S
C1681 H1708 0.931 . S
C1682 C1683 1.395 . S
C1682 C1684 1.320 . S
C1683 C1681 1.339 . S
C1683 C1682 1.395 . S
C1683 H1709 0.929 . S
C1684 C1682 1.320 . S
C1684 C1685 1.405 . S
C1684 H1710 0.930 . S
C1685 C1680 1.479 . S
C1685 C1684 1.405 . S
C1685 H1711 0.931 . S
U1686 O1687 2.454 . S
U1686 O1688 2.458 . S
U1686 C1689 2.984 . S
U1686 C1690 2.847 . S
U1686 C1703 2.882 . S
U1686 O1704 2.441 . S
U1686 O1705 2.420 . S
U1686 O1706 2.455 . S
U1686 O1707 2.449 . S
O1687 U1686 2.454 . S
O1687 C1689 1.353 . S
O1688 U1686 2.458 . S
O1688 C1689 1.286 . S
C1689 U1686 2.984 . S
C1689 O1687 1.353 . S
C1689 O1688 1.286 . S
C1689 C1691 1.363 . S
C1690 C1680 1.465 . S
C1690 U1686 2.847 . S
C1690 O1704 1.249 . S
C1690 O1705 1.202 . S
C1691 C1689 1.363 . S
C1691 C1693 1.408 . S
C1691 C1696 1.342 . S
C1692 C1693 1.310 . S
C1692 C1695 1.461 . S
C1692 H1712 0.932 . S
C1693 C1691 1.408 . S
C1693 C1692 1.310 . S
C1693 H1713 0.930 . S
C1694 C1695 1.474 . S
C1694 C1696 1.285 . S
C1694 H1714 0.929 . S
C1695 C1692 1.461 . S
C1695 C1694 1.474 . S
C1696 C1691 1.342 . S
C1696 C1694 1.285 . S
C1696 H1715 0.930 . S
C1697 C1700 1.424 . S
C1697 C1702 1.245 . S
C1697 C1703 1.428 . S
C1698 C1701 1.260 . S
C1698 C1702 1.477 . S
C1698 H1716 0.932 . S
C1699 C1700 1.384 . S
C1699 C1701 1.479 . S
C1699 H1717 0.929 . S
C1700 C1697 1.424 . S
C1700 C1699 1.384 . S
C1700 H1718 0.928 . S
C1701 C1698 1.260 . S
C1701 C1699 1.479 . S
C1702 C1697 1.245 . S
C1702 C1698 1.477 . S
C1702 H1719 0.932 . S
C1703 U1686 2.882 . S
C1703 C1697 1.428 . S
C1703 O1706 1.301 . S
C1703 O1707 1.282 . S
O1704 U1686 2.441 . S
O1704 C1690 1.249 . S
O1705 U1686 2.420 . S
O1705 C1690 1.202 . S
O1706 U1686 2.455 . S
O1706 C1703 1.301 . S
O1707 U1686 2.449 . S
O1707 C1703 1.282 . S
H1708 C1681 0.931 . S
H1709 C1683 0.929 . S
H1710 C1684 0.930 . S
H1711 C1685 0.931 . S
H1712 C1692 0.932 . S
H1713 C1693 0.930 . S
H1714 C1694 0.929 . S
H1715 C1696 0.930 . S
H1716 C1698 0.932 . S
H1717 C1699 0.929 . S
H1718 C1700 0.928 . S
H1719 C1702 0.932 . S
C1720 C1721 1.264 . S
C1720 C1725 1.479 . S
C1720 C1730 1.465 . S
C1721 C1720 1.264 . S
C1721 C1723 1.339 . S
C1721 H1748 0.931 . S
C1722 C1723 1.395 . S
C1722 C1724 1.320 . S
C1723 C1721 1.339 . S
C1723 C1722 1.395 . S
C1723 H1749 0.929 . S
C1724 C1722 1.320 . S
C1724 C1725 1.405 . S
C1724 H1750 0.930 . S
C1725 C1720 1.479 . S
C1725 C1724 1.405 . S
C1725 H1751 0.931 . S
U1726 O1727 2.454 . S
U1726 O1728 2.458 . S
U1726 C1729 2.984 . S
U1726 C1730 2.847 . S
U1726 C1743 2.882 . S
U1726 O1744 2.441 . S
U1726 O1745 2.420 . S
U1726 O1746 2.455 . S
U1726 O1747 2.449 . S
O1727 U1726 2.454 . S
O1727 C1729 1.353 . S
O1728 U1726 2.458 . S
O1728 C1729 1.286 . S
C1729 U1726 2.984 . S
C1729 O1727 1.353 . S
C1729 O1728 1.286 . S
C1729 C1731 1.363 . S
C1730 C1720 1.465 . S
C1730 U1726 2.847 . S
C1730 O1744 1.249 . S
C1730 O1745 1.202 . S
C1731 C1729 1.363 . S
C1731 C1733 1.408 . S
C1731 C1736 1.342 . S
C1732 C1733 1.310 . S
C1732 C1735 1.461 . S
C1732 H1752 0.932 . S
C1733 C1731 1.408 . S
C1733 C1732 1.310 . S
C1733 H1753 0.930 . S
C1734 C1735 1.474 . S
C1734 C1736 1.285 . S
C1734 H1754 0.929 . S
C1735 C1732 1.461 . S
C1735 C1734 1.474 . S
C1736 C1731 1.342 . S
C1736 C1734 1.285 . S
C1736 H1755 0.930 . S
C1737 C1740 1.424 . S
C1737 C1742 1.245 . S
C1737 C1743 1.428 . S
C1738 C1741 1.260 . S
C1738 C1742 1.477 . S
C1738 H1756 0.932 . S
C1739 C1740 1.384 . S
C1739 C1741 1.479 . S
C1739 H1757 0.929 . S
C1740 C1737 1.424 . S
C1740 C1739 1.384 . S
C1740 H1758 0.928 . S
C1741 C1738 1.260 . S
C1741 C1739 1.479 . S
C1742 C1737 1.245 . S
C1742 C1738 1.477 . S
C1742 H1759 0.932 . S
C1743 U1726 2.882 . S
C1743 C1737 1.428 . S
C1743 O1746 1.301 . S
C1743 O1747 1.282 . S
O1744 U1726 2.441 . S
O1744 C1730 1.249 . S
O1745 U1726 2.420 . S
O1745 C1730 1.202 . S
O1746 U1726 2.455 . S
O1746 C1743 1.301 . S
O1747 U1726 2.449 . S
O1747 C1743 1.282 . S
H1748 C1721 0.931 . S
H1749 C1723 0.929 . S
H1750 C1724 0.930 . S
H1751 C1725 0.931 . S
H1752 C1732 0.932 . S
H1753 C1733 0.930 . S
H1754 C1734 0.929 . S
H1755 C1736 0.930 . S
H1756 C1738 0.932 . S
H1757 C1739 0.929 . S
H1758 C1740 0.928 . S
H1759 C1742 0.932 . S
C1760 C1761 1.264 . S
C1760 C1765 1.479 . S
C1760 C1770 1.465 . S
C1761 C1760 1.264 . S
C1761 C1763 1.339 . S
C1761 H1788 0.931 . S
C1762 C1763 1.395 . S
C1762 C1764 1.320 . S
C1763 C1761 1.339 . S
C1763 C1762 1.395 . S
C1763 H1789 0.929 . S
C1764 C1762 1.320 . S
C1764 C1765 1.405 . S
C1764 H1790 0.930 . S
C1765 C1760 1.479 . S
C1765 C1764 1.405 . S
C1765 H1791 0.931 . S
U1766 O1767 2.454 . S
U1766 O1768 2.458 . S
U1766 C1769 2.984 . S
U1766 C1770 2.847 . S
U1766 C1783 2.882 . S
U1766 O1784 2.441 . S
U1766 O1785 2.420 . S
U1766 O1786 2.455 . S
U1766 O1787 2.449 . S
O1767 U1766 2.454 . S
O1767 C1769 1.353 . S
O1768 U1766 2.458 . S
O1768 C1769 1.286 . S
C1769 U1766 2.984 . S
C1769 O1767 1.353 . S
C1769 O1768 1.286 . S
C1769 C1771 1.363 . S
C1770 C1760 1.465 . S
C1770 U1766 2.847 . S
C1770 O1784 1.249 . S
C1770 O1785 1.202 . S
C1771 C1769 1.363 . S
C1771 C1773 1.408 . S
C1771 C1776 1.342 . S
C1772 C1773 1.310 . S
C1772 C1775 1.461 . S
C1772 H1792 0.932 . S
C1773 C1771 1.408 . S
C1773 C1772 1.310 . S
C1773 H1793 0.930 . S
C1774 C1775 1.474 . S
C1774 C1776 1.285 . S
C1774 H1794 0.929 . S
C1775 C1772 1.461 . S
C1775 C1774 1.474 . S
C1776 C1771 1.342 . S
C1776 C1774 1.285 . S
C1776 H1795 0.930 . S
C1777 C1780 1.424 . S
C1777 C1782 1.245 . S
C1777 C1783 1.428 . S
C1778 C1781 1.260 . S
C1778 C1782 1.477 . S
C1778 H1796 0.932 . S
C1779 C1780 1.384 . S
C1779 C1781 1.479 . S
C1779 H1797 0.929 . S
C1780 C1777 1.424 . S
C1780 C1779 1.384 . S
C1780 H1798 0.928 . S
C1781 C1778 1.260 . S
C1781 C1779 1.479 . S
C1782 C1777 1.245 . S
C1782 C1778 1.477 . S
C1782 H1799 0.932 . S
C1783 U1766 2.882 . S
C1783 C1777 1.428 . S
C1783 O1786 1.301 . S
C1783 O1787 1.282 . S
O1784 U1766 2.441 . S
O1784 C1770 1.249 . S
O1785 U1766 2.420 . S
O1785 C1770 1.202 . S
O1786 U1766 2.455 . S
O1786 C1783 1.301 . S
O1787 U1766 2.449 . S
O1787 C1783 1.282 . S
H1788 C1761 0.931 . S
H1789 C1763 0.929 . S
H1790 C1764 0.930 . S
H1791 C1765 0.931 . S
H1792 C1772 0.932 . S
H1793 C1773 0.930 . S
H1794 C1774 0.929 . S
H1795 C1776 0.930 . S
H1796 C1778 0.932 . S
H1797 C1779 0.929 . S
H1798 C1780 0.928 . S
H1799 C1782 0.932 . S
C1800 C1801 1.264 . S
C1800 C1805 1.479 . S
C1800 C1810 1.465 . S
C1801 C1800 1.264 . S
C1801 C1803 1.339 . S
C1801 H1828 0.931 . S
C1802 C1803 1.395 . S
C1802 C1804 1.320 . S
C1803 C1801 1.339 . S
C1803 C1802 1.395 . S
C1803 H1829 0.929 . S
C1804 C1802 1.320 . S
C1804 C1805 1.405 . S
C1804 H1830 0.930 . S
C1805 C1800 1.479 . S
C1805 C1804 1.405 . S
C1805 H1831 0.931 . S
U1806 O1807 2.454 . S
U1806 O1808 2.458 . S
U1806 C1809 2.984 . S
U1806 C1810 2.847 . S
U1806 C1823 2.882 . S
U1806 O1824 2.441 . S
U1806 O1825 2.420 . S
U1806 O1826 2.455 . S
U1806 O1827 2.449 . S
O1807 U1806 2.454 . S
O1807 C1809 1.353 . S
O1808 U1806 2.458 . S
O1808 C1809 1.286 . S
C1809 U1806 2.984 . S
C1809 O1807 1.353 . S
C1809 O1808 1.286 . S
C1809 C1811 1.363 . S
C1810 C1800 1.465 . S
C1810 U1806 2.847 . S
C1810 O1824 1.249 . S
C1810 O1825 1.202 . S
C1811 C1809 1.363 . S
C1811 C1813 1.408 . S
C1811 C1816 1.342 . S
C1812 C1813 1.310 . S
C1812 C1815 1.461 . S
C1812 H1832 0.932 . S
C1813 C1811 1.408 . S
C1813 C1812 1.310 . S
C1813 H1833 0.930 . S
C1814 C1815 1.474 . S
C1814 C1816 1.285 . S
C1814 H1834 0.929 . S
C1815 C1812 1.461 . S
C1815 C1814 1.474 . S
C1816 C1811 1.342 . S
C1816 C1814 1.285 . S
C1816 H1835 0.930 . S
C1817 C1820 1.424 . S
C1817 C1822 1.245 . S
C1817 C1823 1.428 . S
C1818 C1821 1.260 . S
C1818 C1822 1.477 . S
C1818 H1836 0.932 . S
C1819 C1820 1.384 . S
C1819 C1821 1.479 . S
C1819 H1837 0.929 . S
C1820 C1817 1.424 . S
C1820 C1819 1.384 . S
C1820 H1838 0.928 . S
C1821 C1818 1.260 . S
C1821 C1819 1.479 . S
C1822 C1817 1.245 . S
C1822 C1818 1.477 . S
C1822 H1839 0.932 . S
C1823 U1806 2.882 . S
C1823 C1817 1.428 . S
C1823 O1826 1.301 . S
C1823 O1827 1.282 . S
O1824 U1806 2.441 . S
O1824 C1810 1.249 . S
O1825 U1806 2.420 . S
O1825 C1810 1.202 . S
O1826 U1806 2.455 . S
O1826 C1823 1.301 . S
O1827 U1806 2.449 . S
O1827 C1823 1.282 . S
H1828 C1801 0.931 . S
H1829 C1803 0.929 . S
H1830 C1804 0.930 . S
H1831 C1805 0.931 . S
H1832 C1812 0.932 . S
H1833 C1813 0.930 . S
H1834 C1814 0.929 . S
H1835 C1816 0.930 . S
H1836 C1818 0.932 . S
H1837 C1819 0.929 . S
H1838 C1820 0.928 . S
H1839 C1822 0.932 . S
C1840 C1841 1.264 . S
C1840 C1845 1.479 . S
C1840 C1850 1.465 . S
C1841 C1840 1.264 . S
C1841 C1843 1.339 . S
C1841 H1868 0.931 . S
C1842 C1843 1.395 . S
C1842 C1844 1.320 . S
C1843 C1841 1.339 . S
C1843 C1842 1.395 . S
C1843 H1869 0.929 . S
C1844 C1842 1.320 . S
C1844 C1845 1.405 . S
C1844 H1870 0.930 . S
C1845 C1840 1.479 . S
C1845 C1844 1.405 . S
C1845 H1871 0.931 . S
U1846 O1847 2.454 . S
U1846 O1848 2.458 . S
U1846 C1849 2.984 . S
U1846 C1850 2.847 . S
U1846 C1863 2.882 . S
U1846 O1864 2.441 . S
U1846 O1865 2.420 . S
U1846 O1866 2.455 . S
U1846 O1867 2.449 . S
O1847 U1846 2.454 . S
O1847 C1849 1.353 . S
O1848 U1846 2.458 . S
O1848 C1849 1.286 . S
C1849 U1846 2.984 . S
C1849 O1847 1.353 . S
C1849 O1848 1.286 . S
C1849 C1851 1.363 . S
C1850 C1840 1.465 . S
C1850 U1846 2.847 . S
C1850 O1864 1.249 . S
C1850 O1865 1.202 . S
C1851 C1849 1.363 . S
C1851 C1853 1.408 . S
C1851 C1856 1.342 . S
C1852 C1853 1.310 . S
C1852 C1855 1.461 . S
C1852 H1872 0.932 . S
C1853 C1851 1.408 . S
C1853 C1852 1.310 . S
C1853 H1873 0.930 . S
C1854 C1855 1.474 . S
C1854 C1856 1.285 . S
C1854 H1874 0.929 . S
C1855 C1852 1.461 . S
C1855 C1854 1.474 . S
C1856 C1851 1.342 . S
C1856 C1854 1.285 . S
C1856 H1875 0.930 . S
C1857 C1860 1.424 . S
C1857 C1862 1.245 . S
C1857 C1863 1.428 . S
C1858 C1861 1.260 . S
C1858 C1862 1.477 . S
C1858 H1876 0.932 . S
C1859 C1860 1.384 . S
C1859 C1861 1.479 . S
C1859 H1877 0.929 . S
C1860 C1857 1.424 . S
C1860 C1859 1.384 . S
C1860 H1878 0.928 . S
C1861 C1858 1.260 . S
C1861 C1859 1.479 . S
C1862 C1857 1.245 . S
C1862 C1858 1.477 . S
C1862 H1879 0.932 . S
C1863 U1846 2.882 . S
C1863 C1857 1.428 . S
C1863 O1866 1.301 . S
C1863 O1867 1.282 . S
O1864 U1846 2.441 . S
O1864 C1850 1.249 . S
O1865 U1846 2.420 . S
O1865 C1850 1.202 . S
O1866 U1846 2.455 . S
O1866 C1863 1.301 . S
O1867 U1846 2.449 . S
O1867 C1863 1.282 . S
H1868 C1841 0.931 . S
H1869 C1843 0.929 . S
H1870 C1844 0.930 . S
H1871 C1845 0.931 . S
H1872 C1852 0.932 . S
H1873 C1853 0.930 . S
H1874 C1854 0.929 . S
H1875 C1856 0.930 . S
H1876 C1858 0.932 . S
H1877 C1859 0.929 . S
H1878 C1860 0.928 . S
H1879 C1862 0.932 . S
C1880 C1881 1.264 . S
C1880 C1885 1.479 . S
C1880 C1890 1.465 . S
C1881 C1880 1.264 . S
C1881 C1883 1.339 . S
C1881 H1908 0.931 . S
C1882 C1883 1.395 . S
C1882 C1884 1.320 . S
C1883 C1881 1.339 . S
C1883 C1882 1.395 . S
C1883 H1909 0.929 . S
C1884 C1882 1.320 . S
C1884 C1885 1.405 . S
C1884 H1910 0.930 . S
C1885 C1880 1.479 . S
C1885 C1884 1.405 . S
C1885 H1911 0.931 . S
U1886 O1887 2.454 . S
U1886 O1888 2.458 . S
U1886 C1889 2.984 . S
U1886 C1890 2.847 . S
U1886 C1903 2.882 . S
U1886 O1904 2.441 . S
U1886 O1905 2.420 . S
U1886 O1906 2.455 . S
U1886 O1907 2.449 . S
O1887 U1886 2.454 . S
O1887 C1889 1.353 . S
O1888 U1886 2.458 . S
O1888 C1889 1.286 . S
C1889 U1886 2.984 . S
C1889 O1887 1.353 . S
C1889 O1888 1.286 . S
C1889 C1891 1.363 . S
C1890 C1880 1.465 . S
C1890 U1886 2.847 . S
C1890 O1904 1.249 . S
C1890 O1905 1.202 . S
C1891 C1889 1.363 . S
C1891 C1893 1.408 . S
C1891 C1896 1.342 . S
C1892 C1893 1.310 . S
C1892 C1895 1.461 . S
C1892 H1912 0.932 . S
C1893 C1891 1.408 . S
C1893 C1892 1.310 . S
C1893 H1913 0.930 . S
C1894 C1895 1.474 . S
C1894 C1896 1.285 . S
C1894 H1914 0.929 . S
C1895 C1892 1.461 . S
C1895 C1894 1.474 . S
C1896 C1891 1.342 . S
C1896 C1894 1.285 . S
C1896 H1915 0.930 . S
C1897 C1900 1.424 . S
C1897 C1902 1.245 . S
C1897 C1903 1.428 . S
C1898 C1901 1.260 . S
C1898 C1902 1.477 . S
C1898 H1916 0.932 . S
C1899 C1900 1.384 . S
C1899 C1901 1.479 . S
C1899 H1917 0.929 . S
C1900 C1897 1.424 . S
C1900 C1899 1.384 . S
C1900 H1918 0.928 . S
C1901 C1898 1.260 . S
C1901 C1899 1.479 . S
C1902 C1897 1.245 . S
C1902 C1898 1.477 . S
C1902 H1919 0.932 . S
C1903 U1886 2.882 . S
C1903 C1897 1.428 . S
C1903 O1906 1.301 . S
C1903 O1907 1.282 . S
O1904 U1886 2.441 . S
O1904 C1890 1.249 . S
O1905 U1886 2.420 . S
O1905 C1890 1.202 . S
O1906 U1886 2.455 . S
O1906 C1903 1.301 . S
O1907 U1886 2.449 . S
O1907 C1903 1.282 . S
H1908 C1881 0.931 . S
H1909 C1883 0.929 . S
H1910 C1884 0.930 . S
H1911 C1885 0.931 . S
H1912 C1892 0.932 . S
H1913 C1893 0.930 . S
H1914 C1894 0.929 . S
H1915 C1896 0.930 . S
H1916 C1898 0.932 . S
H1917 C1899 0.929 . S
H1918 C1900 0.928 . S
H1919 C1902 0.932 . S
C1920 C1921 1.387 . S
C1920 H1924 0.950 . S
C1920 C1929 1.390 . S
C1921 C1920 1.387 . S
C1921 C1923 1.387 . S
H1922 C1929 0.950 . S
C1923 C1921 1.387 . S
C1923 C1925 1.390 . S
C1923 H1927 0.950 . S
H1924 C1920 0.950 . S
C1925 C1923 1.390 . S
C1925 C1926 1.387 . S
C1925 H1928 0.950 . S
C1926 C1925 1.387 . S
C1926 C1929 1.387 . S
H1927 C1923 0.950 . S
H1928 C1925 0.950 . S
C1929 C1920 1.390 . S
C1929 H1922 0.950 . S
C1929 C1926 1.387 . S
C1930 C1931 1.387 . S
C1930 H1934 0.950 . S
C1930 C1939 1.390 . S
C1931 C1930 1.387 . S
C1931 C1933 1.387 . S
H1932 C1939 0.950 . S
C1933 C1931 1.387 . S
C1933 C1935 1.390 . S
C1933 H1937 0.950 . S
H1934 C1930 0.950 . S
C1935 C1933 1.390 . S
C1935 C1936 1.387 . S
C1935 H1938 0.950 . S
C1936 C1935 1.387 . S
C1936 C1939 1.387 . S
H1937 C1933 0.950 . S
H1938 C1935 0.950 . S
C1939 C1930 1.390 . S
C1939 H1932 0.950 . S
C1939 C1936 1.387 . S
C1940 C1941 1.387 . S
C1940 H1944 0.950 . S
C1940 C1949 1.390 . S
C1941 C1940 1.387 . S
C1941 C1943 1.387 . S
H1942 C1949 0.950 . S
C1943 C1941 1.387 . S
C1943 C1945 1.390 . S
C1943 H1947 0.950 . S
H1944 C1940 0.950 . S
C1945 C1943 1.390 . S
C1945 C1946 1.387 . S
C1945 H1948 0.950 . S
C1946 C1945 1.387 . S
C1946 C1949 1.387 . S
H1947 C1943 0.950 . S
H1948 C1945 0.950 . S
C1949 C1940 1.390 . S
C1949 H1942 0.950 . S
C1949 C1946 1.387 . S
C1950 C1951 1.387 . S
C1950 H1954 0.950 . S
C1950 C1959 1.390 . S
C1951 C1950 1.387 . S
C1951 C1953 1.387 . S
H1952 C1959 0.950 . S
C1953 C1951 1.387 . S
C1953 C1955 1.390 . S
C1953 H1957 0.950 . S
H1954 C1950 0.950 . S
C1955 C1953 1.390 . S
C1955 C1956 1.387 . S
C1955 H1958 0.950 . S
C1956 C1955 1.387 . S
C1956 C1959 1.387 . S
H1957 C1953 0.950 . S
H1958 C1955 0.950 . S
C1959 C1950 1.390 . S
C1959 H1952 0.950 . S
C1959 C1956 1.387 . S
C1960 C1961 1.387 . S
C1960 H1964 0.950 . S
C1960 C1969 1.390 . S
C1961 C1960 1.387 . S
C1961 C1963 1.387 . S
H1962 C1969 0.950 . S
C1963 C1961 1.387 . S
C1963 C1965 1.390 . S
C1963 H1967 0.950 . S
H1964 C1960 0.950 . S
C1965 C1963 1.390 . S
C1965 C1966 1.387 . S
C1965 H1968 0.950 . S
C1966 C1965 1.387 . S
C1966 C1969 1.387 . S
H1967 C1963 0.950 . S
H1968 C1965 0.950 . S
C1969 C1960 1.390 . S
C1969 H1962 0.950 . S
C1969 C1966 1.387 . S
C1970 C1971 1.387 . S
C1970 H1974 0.950 . S
C1970 C1979 1.390 . S
C1971 C1970 1.387 . S
C1971 C1973 1.387 . S
H1972 C1979 0.950 . S
C1973 C1971 1.387 . S
C1973 C1975 1.390 . S
C1973 H1977 0.950 . S
H1974 C1970 0.950 . S
C1975 C1973 1.390 . S
C1975 C1976 1.387 . S
C1975 H1978 0.950 . S
C1976 C1975 1.387 . S
C1976 C1979 1.387 . S
H1977 C1973 0.950 . S
H1978 C1975 0.950 . S
C1979 C1970 1.390 . S
C1979 H1972 0.950 . S
C1979 C1976 1.387 . S
C1980 C1981 1.387 . S
C1980 H1984 0.950 . S
C1980 C1989 1.390 . S
C1981 C1980 1.387 . S
C1981 C1983 1.387 . S
H1982 C1989 0.950 . S
C1983 C1981 1.387 . S
C1983 C1985 1.390 . S
C1983 H1987 0.950 . S
H1984 C1980 0.950 . S
C1985 C1983 1.390 . S
C1985 C1986 1.387 . S
C1985 H1988 0.950 . S
C1986 C1985 1.387 . S
C1986 C1989 1.387 . S
H1987 C1983 0.950 . S
H1988 C1985 0.950 . S
C1989 C1980 1.390 . S
C1989 H1982 0.950 . S
C1989 C1986 1.387 . S
C1990 C1991 1.387 . S
C1990 H1994 0.950 . S
C1990 C1999 1.390 . S
C1991 C1990 1.387 . S
C1991 C1993 1.387 . S
H1992 C1999 0.950 . S
C1993 C1991 1.387 . S
C1993 C1995 1.390 . S
C1993 H1997 0.950 . S
H1994 C1990 0.950 . S
C1995 C1993 1.390 . S
C1995 C1996 1.387 . S
C1995 H1998 0.950 . S
C1996 C1995 1.387 . S
C1996 C1999 1.387 . S
H1997 C1993 0.950 . S
H1998 C1995 0.950 . S
C1999 C1990 1.390 . S
C1999 H1992 0.950 . S
C1999 C1996 1.387 . S
C2000 C2001 1.387 . S
C2000 H2004 0.950 . S
C2000 C2009 1.390 . S
C2001 C2000 1.387 . S
C2001 C2003 1.387 . S
H2002 C2009 0.950 . S
C2003 C2001 1.387 . S
C2003 C2005 1.390 . S
C2003 H2007 0.950 . S
H2004 C2000 0.950 . S
C2005 C2003 1.390 . S
C2005 C2006 1.387 . S
C2005 H2008 0.950 . S
C2006 C2005 1.387 . S
C2006 C2009 1.387 . S
H2007 C2003 0.950 . S
H2008 C2005 0.950 . S
C2009 C2000 1.390 . S
C2009 H2002 0.950 . S
C2009 C2006 1.387 . S
C2010 C2011 1.387 . S
C2010 H2014 0.950 . S
C2010 C2019 1.390 . S
C2011 C2010 1.387 . S
C2011 C2013 1.387 . S
H2012 C2019 0.950 . S
C2013 C2011 1.387 . S
C2013 C2015 1.390 . S
C2013 H2017 0.950 . S
H2014 C2010 0.950 . S
C2015 C2013 1.390 . S
C2015 C2016 1.387 . S
C2015 H2018 0.950 . S
C2016 C2015 1.387 . S
C2016 C2019 1.387 . S
H2017 C2013 0.950 . S
H2018 C2015 0.950 . S
C2019 C2010 1.390 . S
C2019 H2012 0.950 . S
C2019 C2016 1.387 . S
C2020 C2021 1.387 . S
C2020 H2024 0.950 . S
C2020 C2029 1.390 . S
C2021 C2020 1.387 . S
C2021 C2023 1.387 . S
H2022 C2029 0.950 . S
C2023 C2021 1.387 . S
C2023 C2025 1.390 . S
C2023 H2027 0.950 . S
H2024 C2020 0.950 . S
C2025 C2023 1.390 . S
C2025 C2026 1.387 . S
C2025 H2028 0.950 . S
C2026 C2025 1.387 . S
C2026 C2029 1.387 . S
H2027 C2023 0.950 . S
H2028 C2025 0.950 . S
C2029 C2020 1.390 . S
C2029 H2022 0.950 . S
C2029 C2026 1.387 . S
C2030 C2031 1.387 . S
C2030 H2034 0.950 . S
C2030 C2039 1.390 . S
C2031 C2030 1.387 . S
C2031 C2033 1.387 . S
H2032 C2039 0.950 . S
C2033 C2031 1.387 . S
C2033 C2035 1.390 . S
C2033 H2037 0.950 . S
H2034 C2030 0.950 . S
C2035 C2033 1.390 . S
C2035 C2036 1.387 . S
C2035 H2038 0.950 . S
C2036 C2035 1.387 . S
C2036 C2039 1.387 . S
H2037 C2033 0.950 . S
H2038 C2035 0.950 . S
C2039 C2030 1.390 . S
C2039 H2032 0.950 . S
C2039 C2036 1.387 . S
C2040 C2041 1.387 . S
C2040 H2044 0.950 . S
C2040 C2049 1.390 . S
C2041 C2040 1.387 . S
C2041 C2043 1.387 . S
H2042 C2049 0.950 . S
C2043 C2041 1.387 . S
C2043 C2045 1.390 . S
C2043 H2047 0.950 . S
H2044 C2040 0.950 . S
C2045 C2043 1.390 . S
C2045 C2046 1.387 . S
C2045 H2048 0.950 . S
C2046 C2045 1.387 . S
C2046 C2049 1.387 . S
H2047 C2043 0.950 . S
H2048 C2045 0.950 . S
C2049 C2040 1.390 . S
C2049 H2042 0.950 . S
C2049 C2046 1.387 . S
C2050 C2051 1.387 . S
C2050 H2054 0.950 . S
C2050 C2059 1.390 . S
C2051 C2050 1.387 . S
C2051 C2053 1.387 . S
H2052 C2059 0.950 . S
C2053 C2051 1.387 . S
C2053 C2055 1.390 . S
C2053 H2057 0.950 . S
H2054 C2050 0.950 . S
C2055 C2053 1.390 . S
C2055 C2056 1.387 . S
C2055 H2058 0.950 . S
C2056 C2055 1.387 . S
C2056 C2059 1.387 . S
H2057 C2053 0.950 . S
H2058 C2055 0.950 . S
C2059 C2050 1.390 . S
C2059 H2052 0.950 . S
C2059 C2056 1.387 . S
C2060 C2061 1.387 . S
C2060 H2064 0.950 . S
C2060 C2069 1.390 . S
C2061 C2060 1.387 . S
C2061 C2063 1.387 . S
H2062 C2069 0.950 . S
C2063 C2061 1.387 . S
C2063 C2065 1.390 . S
C2063 H2067 0.950 . S
H2064 C2060 0.950 . S
C2065 C2063 1.390 . S
C2065 C2066 1.387 . S
C2065 H2068 0.950 . S
C2066 C2065 1.387 . S
C2066 C2069 1.387 . S
H2067 C2063 0.950 . S
H2068 C2065 0.950 . S
C2069 C2060 1.390 . S
C2069 H2062 0.950 . S
C2069 C2066 1.387 . S
C2070 C2071 1.387 . S
C2070 H2074 0.950 . S
C2070 C2079 1.390 . S
C2071 C2070 1.387 . S
C2071 C2073 1.387 . S
H2072 C2079 0.950 . S
C2073 C2071 1.387 . S
C2073 C2075 1.390 . S
C2073 H2077 0.950 . S
H2074 C2070 0.950 . S
C2075 C2073 1.390 . S
C2075 C2076 1.387 . S
C2075 H2078 0.950 . S
C2076 C2075 1.387 . S
C2076 C2079 1.387 . S
H2077 C2073 0.950 . S
H2078 C2075 0.950 . S
C2079 C2070 1.390 . S
C2079 H2072 0.950 . S
C2079 C2076 1.387 . S
C2080 C2081 1.387 . S
C2080 H2084 0.950 . S
C2080 C2089 1.390 . S
C2081 C2080 1.387 . S
C2081 C2083 1.387 . S
H2082 C2089 0.950 . S
C2083 C2081 1.387 . S
C2083 C2085 1.390 . S
C2083 H2087 0.950 . S
H2084 C2080 0.950 . S
C2085 C2083 1.390 . S
C2085 C2086 1.387 . S
C2085 H2088 0.950 . S
C2086 C2085 1.387 . S
C2086 C2089 1.387 . S
H2087 C2083 0.950 . S
H2088 C2085 0.950 . S
C2089 C2080 1.390 . S
C2089 H2082 0.950 . S
C2089 C2086 1.387 . S
C2090 C2091 1.387 . S
C2090 H2094 0.950 . S
C2090 C2099 1.390 . S
C2091 C2090 1.387 . S
C2091 C2093 1.387 . S
H2092 C2099 0.950 . S
C2093 C2091 1.387 . S
C2093 C2095 1.390 . S
C2093 H2097 0.950 . S
H2094 C2090 0.950 . S
C2095 C2093 1.390 . S
C2095 C2096 1.387 . S
C2095 H2098 0.950 . S
C2096 C2095 1.387 . S
C2096 C2099 1.387 . S
H2097 C2093 0.950 . S
H2098 C2095 0.950 . S
C2099 C2090 1.390 . S
C2099 H2092 0.950 . S
C2099 C2096 1.387 . S
C2100 C2101 1.387 . S
C2100 H2104 0.950 . S
C2100 C2109 1.390 . S
C2101 C2100 1.387 . S
C2101 C2103 1.387 . S
H2102 C2109 0.950 . S
C2103 C2101 1.387 . S
C2103 C2105 1.390 . S
C2103 H2107 0.950 . S
H2104 C2100 0.950 . S
C2105 C2103 1.390 . S
C2105 C2106 1.387 . S
C2105 H2108 0.950 . S
C2106 C2105 1.387 . S
C2106 C2109 1.387 . S
H2107 C2103 0.950 . S
H2108 C2105 0.950 . S
C2109 C2100 1.390 . S
C2109 H2102 0.950 . S
C2109 C2106 1.387 . S
C2110 C2111 1.387 . S
C2110 H2114 0.950 . S
C2110 C2119 1.390 . S
C2111 C2110 1.387 . S
C2111 C2113 1.387 . S
H2112 C2119 0.950 . S
C2113 C2111 1.387 . S
C2113 C2115 1.390 . S
C2113 H2117 0.950 . S
H2114 C2110 0.950 . S
C2115 C2113 1.390 . S
C2115 C2116 1.387 . S
C2115 H2118 0.950 . S
C2116 C2115 1.387 . S
C2116 C2119 1.387 . S
H2117 C2113 0.950 . S
H2118 C2115 0.950 . S
C2119 C2110 1.390 . S
C2119 H2112 0.950 . S
C2119 C2116 1.387 . S
C2120 C2121 1.387 . S
C2120 H2124 0.950 . S
C2120 C2129 1.390 . S
C2121 C2120 1.387 . S
C2121 C2123 1.387 . S
H2122 C2129 0.950 . S
C2123 C2121 1.387 . S
C2123 C2125 1.390 . S
C2123 H2127 0.950 . S
H2124 C2120 0.950 . S
C2125 C2123 1.390 . S
C2125 C2126 1.387 . S
C2125 H2128 0.950 . S
C2126 C2125 1.387 . S
C2126 C2129 1.387 . S
H2127 C2123 0.950 . S
H2128 C2125 0.950 . S
C2129 C2120 1.390 . S
C2129 H2122 0.950 . S
C2129 C2126 1.387 . S
C2130 C2131 1.387 . S
C2130 H2134 0.950 . S
C2130 C2139 1.390 . S
C2131 C2130 1.387 . S
C2131 C2133 1.387 . S
H2132 C2139 0.950 . S
C2133 C2131 1.387 . S
C2133 C2135 1.390 . S
C2133 H2137 0.950 . S
H2134 C2130 0.950 . S
C2135 C2133 1.390 . S
C2135 C2136 1.387 . S
C2135 H2138 0.950 . S
C2136 C2135 1.387 . S
C2136 C2139 1.387 . S
H2137 C2133 0.950 . S
H2138 C2135 0.950 . S
C2139 C2130 1.390 . S
C2139 H2132 0.950 . S
C2139 C2136 1.387 . S
C2140 C2141 1.387 . S
C2140 H2144 0.950 . S
C2140 C2149 1.390 . S
C2141 C2140 1.387 . S
C2141 C2143 1.387 . S
H2142 C2149 0.950 . S
C2143 C2141 1.387 . S
C2143 C2145 1.390 . S
C2143 H2147 0.950 . S
H2144 C2140 0.950 . S
C2145 C2143 1.390 . S
C2145 C2146 1.387 . S
C2145 H2148 0.950 . S
C2146 C2145 1.387 . S
C2146 C2149 1.387 . S
H2147 C2143 0.950 . S
H2148 C2145 0.950 . S
C2149 C2140 1.390 . S
C2149 H2142 0.950 . S
C2149 C2146 1.387 . S
C2150 C2151 1.387 . S
C2150 H2154 0.950 . S
C2150 C2159 1.390 . S
C2151 C2150 1.387 . S
C2151 C2153 1.387 . S
H2152 C2159 0.950 . S
C2153 C2151 1.387 . S
C2153 C2155 1.390 . S
C2153 H2157 0.950 . S
H2154 C2150 0.950 . S
C2155 C2153 1.390 . S
C2155 C2156 1.387 . S
C2155 H2158 0.950 . S
C2156 C2155 1.387 . S
C2156 C2159 1.387 . S
H2157 C2153 0.950 . S
H2158 C2155 0.950 . S
C2159 C2150 1.390 . S
C2159 H2152 0.950 . S
C2159 C2156 1.387 . S
C2160 C2161 1.387 . S
C2160 H2164 0.950 . S
C2160 C2169 1.390 . S
C2161 C2160 1.387 . S
C2161 C2163 1.387 . S
H2162 C2169 0.950 . S
C2163 C2161 1.387 . S
C2163 C2165 1.390 . S
C2163 H2167 0.950 . S
H2164 C2160 0.950 . S
C2165 C2163 1.390 . S
C2165 C2166 1.387 . S
C2165 H2168 0.950 . S
C2166 C2165 1.387 . S
C2166 C2169 1.387 . S
H2167 C2163 0.950 . S
H2168 C2165 0.950 . S
C2169 C2160 1.390 . S
C2169 H2162 0.950 . S
C2169 C2166 1.387 . S
C2170 C2171 1.387 . S
C2170 H2174 0.950 . S
C2170 C2179 1.390 . S
C2171 C2170 1.387 . S
C2171 C2173 1.387 . S
H2172 C2179 0.950 . S
C2173 C2171 1.387 . S
C2173 C2175 1.390 . S
C2173 H2177 0.950 . S
H2174 C2170 0.950 . S
C2175 C2173 1.390 . S
C2175 C2176 1.387 . S
C2175 H2178 0.950 . S
C2176 C2175 1.387 . S
C2176 C2179 1.387 . S
H2177 C2173 0.950 . S
H2178 C2175 0.950 . S
C2179 C2170 1.390 . S
C2179 H2172 0.950 . S
C2179 C2176 1.387 . S
C2180 C2181 1.387 . S
C2180 H2184 0.950 . S
C2180 C2189 1.390 . S
C2181 C2180 1.387 . S
C2181 C2183 1.387 . S
H2182 C2189 0.950 . S
C2183 C2181 1.387 . S
C2183 C2185 1.390 . S
C2183 H2187 0.950 . S
H2184 C2180 0.950 . S
C2185 C2183 1.390 . S
C2185 C2186 1.387 . S
C2185 H2188 0.950 . S
C2186 C2185 1.387 . S
C2186 C2189 1.387 . S
H2187 C2183 0.950 . S
H2188 C2185 0.950 . S
C2189 C2180 1.390 . S
C2189 H2182 0.950 . S
C2189 C2186 1.387 . S
C2190 C2191 1.387 . S
C2190 H2194 0.950 . S
C2190 C2199 1.390 . S
C2191 C2190 1.387 . S
C2191 C2193 1.387 . S
H2192 C2199 0.950 . S
C2193 C2191 1.387 . S
C2193 C2195 1.390 . S
C2193 H2197 0.950 . S
H2194 C2190 0.950 . S
C2195 C2193 1.390 . S
C2195 C2196 1.387 . S
C2195 H2198 0.950 . S
C2196 C2195 1.387 . S
C2196 C2199 1.387 . S
H2197 C2193 0.950 . S
H2198 C2195 0.950 . S
C2199 C2190 1.390 . S
C2199 H2192 0.950 . S
C2199 C2196 1.387 . S
C2200 C2201 1.387 . S
C2200 H2204 0.950 . S
C2200 C2209 1.390 . S
C2201 C2200 1.387 . S
C2201 C2203 1.387 . S
H2202 C2209 0.950 . S
C2203 C2201 1.387 . S
C2203 C2205 1.390 . S
C2203 H2207 0.950 . S
H2204 C2200 0.950 . S
C2205 C2203 1.390 . S
C2205 C2206 1.387 . S
C2205 H2208 0.950 . S
C2206 C2205 1.387 . S
C2206 C2209 1.387 . S
H2207 C2203 0.950 . S
H2208 C2205 0.950 . S
C2209 C2200 1.390 . S
C2209 H2202 0.950 . S
C2209 C2206 1.387 . S
C2210 C2211 1.387 . S
C2210 H2214 0.950 . S
C2210 C2219 1.390 . S
C2211 C2210 1.387 . S
C2211 C2213 1.387 . S
H2212 C2219 0.950 . S
C2213 C2211 1.387 . S
C2213 C2215 1.390 . S
C2213 H2217 0.950 . S
H2214 C2210 0.950 . S
C2215 C2213 1.390 . S
C2215 C2216 1.387 . S
C2215 H2218 0.950 . S
C2216 C2215 1.387 . S
C2216 C2219 1.387 . S
H2217 C2213 0.950 . S
H2218 C2215 0.950 . S
C2219 C2210 1.390 . S
C2219 H2212 0.950 . S
C2219 C2216 1.387 . S
C2220 C2221 1.387 . S
C2220 H2224 0.950 . S
C2220 C2229 1.390 . S
C2221 C2220 1.387 . S
C2221 C2223 1.387 . S
H2222 C2229 0.950 . S
C2223 C2221 1.387 . S
C2223 C2225 1.390 . S
C2223 H2227 0.950 . S
H2224 C2220 0.950 . S
C2225 C2223 1.390 . S
C2225 C2226 1.387 . S
C2225 H2228 0.950 . S
C2226 C2225 1.387 . S
C2226 C2229 1.387 . S
H2227 C2223 0.950 . S
H2228 C2225 0.950 . S
C2229 C2220 1.390 . S
C2229 H2222 0.950 . S
C2229 C2226 1.387 . S
C2230 C2231 1.387 . S
C2230 H2234 0.950 . S
C2230 C2239 1.390 . S
C2231 C2230 1.387 . S
C2231 C2233 1.387 . S
H2232 C2239 0.950 . S
C2233 C2231 1.387 . S
C2233 C2235 1.390 . S
C2233 H2237 0.950 . S
H2234 C2230 0.950 . S
C2235 C2233 1.390 . S
C2235 C2236 1.387 . S
C2235 H2238 0.950 . S
C2236 C2235 1.387 . S
C2236 C2239 1.387 . S
H2237 C2233 0.950 . S
H2238 C2235 0.950 . S
C2239 C2230 1.390 . S
C2239 H2232 0.950 . S
C2239 C2236 1.387 . S
C2240 C2241 1.387 . S
C2240 H2244 0.950 . S
C2240 C2249 1.390 . S
C2241 C2240 1.387 . S
C2241 C2243 1.387 . S
H2242 C2249 0.950 . S
C2243 C2241 1.387 . S
C2243 C2245 1.390 . S
C2243 H2247 0.950 . S
H2244 C2240 0.950 . S
C2245 C2243 1.390 . S
C2245 C2246 1.387 . S
C2245 H2248 0.950 . S
C2246 C2245 1.387 . S
C2246 C2249 1.387 . S
H2247 C2243 0.950 . S
H2248 C2245 0.950 . S
C2249 C2240 1.390 . S
C2249 H2242 0.950 . S
C2249 C2246 1.387 . S
C2250 C2251 1.387 . S
C2250 H2254 0.950 . S
C2250 C2259 1.390 . S
C2251 C2250 1.387 . S
C2251 C2253 1.387 . S
H2252 C2259 0.950 . S
C2253 C2251 1.387 . S
C2253 C2255 1.390 . S
C2253 H2257 0.950 . S
H2254 C2250 0.950 . S
C2255 C2253 1.390 . S
C2255 C2256 1.387 . S
C2255 H2258 0.950 . S
C2256 C2255 1.387 . S
C2256 C2259 1.387 . S
H2257 C2253 0.950 . S
H2258 C2255 0.950 . S
C2259 C2250 1.390 . S
C2259 H2252 0.950 . S
C2259 C2256 1.387 . S
C2260 C2261 1.387 . S
C2260 H2264 0.950 . S
C2260 C2269 1.390 . S
C2261 C2260 1.387 . S
C2261 C2263 1.387 . S
H2262 C2269 0.950 . S
C2263 C2261 1.387 . S
C2263 C2265 1.390 . S
C2263 H2267 0.950 . S
H2264 C2260 0.950 . S
C2265 C2263 1.390 . S
C2265 C2266 1.387 . S
C2265 H2268 0.950 . S
C2266 C2265 1.387 . S
C2266 C2269 1.387 . S
H2267 C2263 0.950 . S
H2268 C2265 0.950 . S
C2269 C2260 1.390 . S
C2269 H2262 0.950 . S
C2269 C2266 1.387 . S
C2270 C2271 1.387 . S
C2270 H2274 0.950 . S
C2270 C2279 1.390 . S
C2271 C2270 1.387 . S
C2271 C2273 1.387 . S
H2272 C2279 0.950 . S
C2273 C2271 1.387 . S
C2273 C2275 1.390 . S
C2273 H2277 0.950 . S
H2274 C2270 0.950 . S
C2275 C2273 1.390 . S
C2275 C2276 1.387 . S
C2275 H2278 0.950 . S
C2276 C2275 1.387 . S
C2276 C2279 1.387 . S
H2277 C2273 0.950 . S
H2278 C2275 0.950 . S
C2279 C2270 1.390 . S
C2279 H2272 0.950 . S
C2279 C2276 1.387 . S
C2280 C2281 1.387 . S
C2280 H2284 0.950 . S
C2280 C2289 1.390 . S
C2281 C2280 1.387 . S
C2281 C2283 1.387 . S
H2282 C2289 0.950 . S
C2283 C2281 1.387 . S
C2283 C2285 1.390 . S
C2283 H2287 0.950 . S
H2284 C2280 0.950 . S
C2285 C2283 1.390 . S
C2285 C2286 1.387 . S
C2285 H2288 0.950 . S
C2286 C2285 1.387 . S
C2286 C2289 1.387 . S
H2287 C2283 0.950 . S
H2288 C2285 0.950 . S
C2289 C2280 1.390 . S
C2289 H2282 0.950 . S
C2289 C2286 1.387 . S
C2290 C2291 1.387 . S
C2290 H2294 0.950 . S
C2290 C2299 1.390 . S
C2291 C2290 1.387 . S
C2291 C2293 1.387 . S
H2292 C2299 0.950 . S
C2293 C2291 1.387 . S
C2293 C2295 1.390 . S
C2293 H2297 0.950 . S
H2294 C2290 0.950 . S
C2295 C2293 1.390 . S
C2295 C2296 1.387 . S
C2295 H2298 0.950 . S
C2296 C2295 1.387 . S
C2296 C2299 1.387 . S
H2297 C2293 0.950 . S
H2298 C2295 0.950 . S
C2299 C2290 1.390 . S
C2299 H2292 0.950 . S
C2299 C2296 1.387 . S
C2300 C2301 1.387 . S
C2300 H2304 0.950 . S
C2300 C2309 1.390 . S
C2301 C2300 1.387 . S
C2301 C2303 1.387 . S
H2302 C2309 0.950 . S
C2303 C2301 1.387 . S
C2303 C2305 1.390 . S
C2303 H2307 0.950 . S
H2304 C2300 0.950 . S
C2305 C2303 1.390 . S
C2305 C2306 1.387 . S
C2305 H2308 0.950 . S
C2306 C2305 1.387 . S
C2306 C2309 1.387 . S
H2307 C2303 0.950 . S
H2308 C2305 0.950 . S
C2309 C2300 1.390 . S
C2309 H2302 0.950 . S
C2309 C2306 1.387 . S
C2310 C2311 1.387 . S
C2310 H2314 0.950 . S
C2310 C2319 1.390 . S
C2311 C2310 1.387 . S
C2311 C2313 1.387 . S
H2312 C2319 0.950 . S
C2313 C2311 1.387 . S
C2313 C2315 1.390 . S
C2313 H2317 0.950 . S
H2314 C2310 0.950 . S
C2315 C2313 1.390 . S
C2315 C2316 1.387 . S
C2315 H2318 0.950 . S
C2316 C2315 1.387 . S
C2316 C2319 1.387 . S
H2317 C2313 0.950 . S
H2318 C2315 0.950 . S
C2319 C2310 1.390 . S
C2319 H2312 0.950 . S
C2319 C2316 1.387 . S
C2320 C2321 1.387 . S
C2320 H2324 0.950 . S
C2320 C2329 1.390 . S
C2321 C2320 1.387 . S
C2321 C2323 1.387 . S
H2322 C2329 0.950 . S
C2323 C2321 1.387 . S
C2323 C2325 1.390 . S
C2323 H2327 0.950 . S
H2324 C2320 0.950 . S
C2325 C2323 1.390 . S
C2325 C2326 1.387 . S
C2325 H2328 0.950 . S
C2326 C2325 1.387 . S
C2326 C2329 1.387 . S
H2327 C2323 0.950 . S
H2328 C2325 0.950 . S
C2329 C2320 1.390 . S
C2329 H2322 0.950 . S
C2329 C2326 1.387 . S
C2330 C2331 1.387 . S
C2330 H2334 0.950 . S
C2330 C2339 1.390 . S
C2331 C2330 1.387 . S
C2331 C2333 1.387 . S
H2332 C2339 0.950 . S
C2333 C2331 1.387 . S
C2333 C2335 1.390 . S
C2333 H2337 0.950 . S
H2334 C2330 0.950 . S
C2335 C2333 1.390 . S
C2335 C2336 1.387 . S
C2335 H2338 0.950 . S
C2336 C2335 1.387 . S
C2336 C2339 1.387 . S
H2337 C2333 0.950 . S
H2338 C2335 0.950 . S
C2339 C2330 1.390 . S
C2339 H2332 0.950 . S
C2339 C2336 1.387 . S
C2340 C2341 1.387 . S
C2340 H2344 0.950 . S
C2340 C2349 1.390 . S
C2341 C2340 1.387 . S
C2341 C2343 1.387 . S
H2342 C2349 0.950 . S
C2343 C2341 1.387 . S
C2343 C2345 1.390 . S
C2343 H2347 0.950 . S
H2344 C2340 0.950 . S
C2345 C2343 1.390 . S
C2345 C2346 1.387 . S
C2345 H2348 0.950 . S
C2346 C2345 1.387 . S
C2346 C2349 1.387 . S
H2347 C2343 0.950 . S
H2348 C2345 0.950 . S
C2349 C2340 1.390 . S
C2349 H2342 0.950 . S
C2349 C2346 1.387 . S
C2350 C2351 1.387 . S
C2350 H2354 0.950 . S
C2350 C2359 1.390 . S
C2351 C2350 1.387 . S
C2351 C2353 1.387 . S
H2352 C2359 0.950 . S
C2353 C2351 1.387 . S
C2353 C2355 1.390 . S
C2353 H2357 0.950 . S
H2354 C2350 0.950 . S
C2355 C2353 1.390 . S
C2355 C2356 1.387 . S
C2355 H2358 0.950 . S
C2356 C2355 1.387 . S
C2356 C2359 1.387 . S
H2357 C2353 0.950 . S
H2358 C2355 0.950 . S
C2359 C2350 1.390 . S
C2359 H2352 0.950 . S
C2359 C2356 1.387 . S
C2360 C2361 1.387 . S
C2360 H2364 0.950 . S
C2360 C2369 1.390 . S
C2361 C2360 1.387 . S
C2361 C2363 1.387 . S
H2362 C2369 0.950 . S
C2363 C2361 1.387 . S
C2363 C2365 1.390 . S
C2363 H2367 0.950 . S
H2364 C2360 0.950 . S
C2365 C2363 1.390 . S
C2365 C2366 1.387 . S
C2365 H2368 0.950 . S
C2366 C2365 1.387 . S
C2366 C2369 1.387 . S
H2367 C2363 0.950 . S
H2368 C2365 0.950 . S
C2369 C2360 1.390 . S
C2369 H2362 0.950 . S
C2369 C2366 1.387 . S
C2370 C2371 1.387 . S
C2370 H2374 0.950 . S
C2370 C2379 1.390 . S
C2371 C2370 1.387 . S
C2371 C2373 1.387 . S
H2372 C2379 0.950 . S
C2373 C2371 1.387 . S
C2373 C2375 1.390 . S
C2373 H2377 0.950 . S
H2374 C2370 0.950 . S
C2375 C2373 1.390 . S
C2375 C2376 1.387 . S
C2375 H2378 0.950 . S
C2376 C2375 1.387 . S
C2376 C2379 1.387 . S
H2377 C2373 0.950 . S
H2378 C2375 0.950 . S
C2379 C2370 1.390 . S
C2379 H2372 0.950 . S
C2379 C2376 1.387 . S
C2380 C2381 1.387 . S
C2380 H2384 0.950 . S
C2380 C2389 1.390 . S
C2381 C2380 1.387 . S
C2381 C2383 1.387 . S
H2382 C2389 0.950 . S
C2383 C2381 1.387 . S
C2383 C2385 1.390 . S
C2383 H2387 0.950 . S
H2384 C2380 0.950 . S
C2385 C2383 1.390 . S
C2385 C2386 1.387 . S
C2385 H2388 0.950 . S
C2386 C2385 1.387 . S
C2386 C2389 1.387 . S
H2387 C2383 0.950 . S
H2388 C2385 0.950 . S
C2389 C2380 1.390 . S
C2389 H2382 0.950 . S
C2389 C2386 1.387 . S
C2390 C2391 1.387 . S
C2390 H2394 0.950 . S
C2390 C2399 1.390 . S
C2391 C2390 1.387 . S
C2391 C2393 1.387 . S
H2392 C2399 0.950 . S
C2393 C2391 1.387 . S
C2393 C2395 1.390 . S
C2393 H2397 0.950 . S
H2394 C2390 0.950 . S
C2395 C2393 1.390 . S
C2395 C2396 1.387 . S
C2395 H2398 0.950 . S
C2396 C2395 1.387 . S
C2396 C2399 1.387 . S
H2397 C2393 0.950 . S
H2398 C2395 0.950 . S
C2399 C2390 1.390 . S
C2399 H2392 0.950 . S
C2399 C2396 1.387 . S
C2400 C2401 1.387 . S
C2400 H2404 0.950 . S
C2400 C2409 1.390 1_655 S
C2401 C2400 1.387 . S
C2401 C2403 1.387 . S
H2402 C2409 0.950 . S
C2403 C2401 1.387 . S
C2403 C2405 1.390 1_655 S
C2403 H2407 0.950 . S
H2404 C2400 0.950 . S
C2405 C2403 1.390 1_455 S
C2405 C2406 1.387 . S
C2405 H2408 0.950 . S
C2406 C2405 1.387 . S
C2406 C2409 1.387 . S
H2407 C2403 0.950 . S
H2408 C2405 0.950 . S
C2409 C2400 1.390 1_455 S
C2409 H2402 0.950 . S
C2409 C2406 1.387 . S
C2410 C2411 1.387 . S
C2410 H2414 0.950 . S
C2410 C2419 1.390 1_545 S
C2411 C2410 1.387 . S
C2411 C2413 1.387 . S
H2412 C2419 0.950 . S
C2413 C2411 1.387 . S
C2413 C2415 1.390 1_545 S
C2413 H2417 0.950 . S
H2414 C2410 0.950 . S
C2415 C2413 1.390 1_565 S
C2415 C2416 1.387 . S
C2415 H2418 0.950 . S
C2416 C2415 1.387 . S
C2416 C2419 1.387 . S
H2417 C2413 0.950 . S
H2418 C2415 0.950 . S
C2419 C2410 1.390 1_565 S
C2419 H2412 0.950 . S
C2419 C2416 1.387 . S
C2420 C2421 1.387 . S
C2420 H2424 0.950 . S
C2420 C2429 1.390 1_655 S
C2421 C2420 1.387 . S
C2421 C2423 1.387 . S
H2422 C2429 0.950 . S
C2423 C2421 1.387 . S
C2423 C2425 1.390 1_655 S
C2423 H2427 0.950 . S
H2424 C2420 0.950 . S
C2425 C2423 1.390 1_455 S
C2425 C2426 1.387 . S
C2425 H2428 0.950 . S
C2426 C2425 1.387 . S
C2426 C2429 1.387 . S
H2427 C2423 0.950 . S
H2428 C2425 0.950 . S
C2429 C2420 1.390 1_455 S
C2429 H2422 0.950 . S
C2429 C2426 1.387 . S
C2430 C2431 1.387 . S
C2430 H2434 0.950 . S
C2430 C2439 1.390 1_545 S
C2431 C2430 1.387 . S
C2431 C2433 1.387 . S
H2432 C2439 0.950 . S
C2433 C2431 1.387 . S
C2433 C2435 1.390 1_545 S
C2433 H2437 0.950 . S
H2434 C2430 0.950 . S
C2435 C2433 1.390 1_565 S
C2435 C2436 1.387 . S
C2435 H2438 0.950 . S
C2436 C2435 1.387 . S
C2436 C2439 1.387 . S
H2437 C2433 0.950 . S
H2438 C2435 0.950 . S
C2439 C2430 1.390 1_565 S
C2439 H2432 0.950 . S
C2439 C2436 1.387 . S
C2440 C2441 1.387 . S
C2440 H2444 0.950 . S
C2440 C2449 1.390 1_455 S
C2441 C2440 1.387 . S
C2441 C2443 1.387 . S
H2442 C2449 0.950 . S
C2443 C2441 1.387 . S
C2443 C2445 1.390 1_455 S
C2443 H2447 0.950 . S
H2444 C2440 0.950 . S
C2445 C2443 1.390 1_655 S
C2445 C2446 1.387 . S
C2445 H2448 0.950 . S
C2446 C2445 1.387 . S
C2446 C2449 1.387 . S
H2447 C2443 0.950 . S
H2448 C2445 0.950 . S
C2449 C2440 1.390 1_655 S
C2449 H2442 0.950 . S
C2449 C2446 1.387 . S
C2450 C2451 1.387 . S
C2450 H2454 0.950 . S
C2450 C2459 1.390 1_565 S
C2451 C2450 1.387 . S
C2451 C2453 1.387 . S
H2452 C2459 0.950 . S
C2453 C2451 1.387 . S
C2453 C2455 1.390 1_565 S
C2453 H2457 0.950 . S
H2454 C2450 0.950 . S
C2455 C2453 1.390 1_545 S
C2455 C2456 1.387 . S
C2455 H2458 0.950 . S
C2456 C2455 1.387 . S
C2456 C2459 1.387 . S
H2457 C2453 0.950 . S
H2458 C2455 0.950 . S
C2459 C2450 1.390 1_545 S
C2459 H2452 0.950 . S
C2459 C2456 1.387 . S
C2460 C2461 1.387 . S
C2460 H2464 0.950 . S
C2460 C2469 1.390 1_655 S
C2461 C2460 1.387 . S
C2461 C2463 1.387 . S
H2462 C2469 0.950 . S
C2463 C2461 1.387 . S
C2463 C2465 1.390 1_655 S
C2463 H2467 0.950 . S
H2464 C2460 0.950 . S
C2465 C2463 1.390 1_455 S
C2465 C2466 1.387 . S
C2465 H2468 0.950 . S
C2466 C2465 1.387 . S
C2466 C2469 1.387 . S
H2467 C2463 0.950 . S
H2468 C2465 0.950 . S
C2469 C2460 1.390 1_455 S
C2469 H2462 0.950 . S
C2469 C2466 1.387 . S
C2470 C2471 1.387 . S
C2470 H2474 0.950 . S
C2470 C2479 1.390 1_565 S
C2471 C2470 1.387 . S
C2471 C2473 1.387 . S
H2472 C2479 0.950 . S
C2473 C2471 1.387 . S
C2473 C2475 1.390 1_565 S
C2473 H2477 0.950 . S
H2474 C2470 0.950 . S
C2475 C2473 1.390 1_545 S
C2475 C2476 1.387 . S
C2475 H2478 0.950 . S
C2476 C2475 1.387 . S
C2476 C2479 1.387 . S
H2477 C2473 0.950 . S
H2478 C2475 0.950 . S
C2479 C2470 1.390 1_545 S
C2479 H2472 0.950 . S
C2479 C2476 1.387 . S
C2480 C2481 1.387 . S
C2480 H2484 0.950 . S
C2480 C2489 1.390 1_556 S
C2481 C2480 1.387 . S
C2481 C2483 1.387 . S
H2482 C2489 0.950 . S
C2483 C2481 1.387 . S
C2483 C2485 1.390 1_556 S
C2483 H2487 0.950 . S
H2484 C2480 0.950 . S
C2485 C2483 1.390 1_554 S
C2485 C2486 1.387 . S
C2485 H2488 0.950 . S
C2486 C2485 1.387 . S
C2486 C2489 1.387 . S
H2487 C2483 0.950 . S
H2488 C2485 0.950 . S
C2489 C2480 1.390 1_554 S
C2489 H2482 0.950 . S
C2489 C2486 1.387 . S
C2490 C2491 1.387 . S
C2490 H2494 0.950 . S
C2490 C2499 1.390 1_556 S
C2491 C2490 1.387 . S
C2491 C2493 1.387 . S
H2492 C2499 0.950 . S
C2493 C2491 1.387 . S
C2493 C2495 1.390 1_556 S
C2493 H2497 0.950 . S
H2494 C2490 0.950 . S
C2495 C2493 1.390 1_554 S
C2495 C2496 1.387 . S
C2495 H2498 0.950 . S
C2496 C2495 1.387 . S
C2496 C2499 1.387 . S
H2497 C2493 0.950 . S
H2498 C2495 0.950 . S
C2499 C2490 1.390 1_554 S
C2499 H2492 0.950 . S
C2499 C2496 1.387 . S
C2500 C2501 1.387 . S
C2500 H2504 0.950 . S
C2500 C2509 1.390 1_554 S
C2501 C2500 1.387 . S
C2501 C2503 1.387 . S
H2502 C2509 0.950 . S
C2503 C2501 1.387 . S
C2503 C2505 1.390 1_554 S
C2503 H2507 0.950 . S
H2504 C2500 0.950 . S
C2505 C2503 1.390 1_556 S
C2505 C2506 1.387 . S
C2505 H2508 0.950 . S
C2506 C2505 1.387 . S
C2506 C2509 1.387 . S
H2507 C2503 0.950 . S
H2508 C2505 0.950 . S
C2509 C2500 1.390 1_556 S
C2509 H2502 0.950 . S
C2509 C2506 1.387 . S
C2510 C2511 1.387 . S
C2510 H2514 0.950 . S
C2510 C2519 1.390 1_554 S
C2511 C2510 1.387 . S
C2511 C2513 1.387 . S
H2512 C2519 0.950 . S
C2513 C2511 1.387 . S
C2513 C2515 1.390 1_554 S
C2513 H2517 0.950 . S
H2514 C2510 0.950 . S
C2515 C2513 1.390 1_556 S
C2515 C2516 1.387 . S
C2515 H2518 0.950 . S
C2516 C2515 1.387 . S
C2516 C2519 1.387 . S
H2517 C2513 0.950 . S
H2518 C2515 0.950 . S
C2519 C2510 1.390 1_556 S
C2519 H2512 0.950 . S
C2519 C2516 1.387 . S
C2520 C2521 1.387 . S
C2520 H2524 0.950 . S
C2520 C2529 1.390 . S
C2521 C2520 1.387 . S
C2521 C2523 1.387 . S
H2522 C2529 0.950 . S
C2523 C2521 1.387 . S
C2523 C2525 1.390 . S
C2523 H2527 0.950 . S
H2524 C2520 0.950 . S
C2525 C2523 1.390 . S
C2525 C2526 1.387 . S
C2525 H2528 0.950 . S
C2526 C2525 1.387 . S
C2526 C2529 1.387 . S
H2527 C2523 0.950 . S
H2528 C2525 0.950 . S
C2529 C2520 1.390 . S
C2529 H2522 0.950 . S
C2529 C2526 1.387 . S
C2530 C2531 1.387 . S
C2530 H2534 0.950 . S
C2530 C2539 1.390 . S
C2531 C2530 1.387 . S
C2531 C2533 1.387 . S
H2532 C2539 0.950 . S
C2533 C2531 1.387 . S
C2533 C2535 1.390 . S
C2533 H2537 0.950 . S
H2534 C2530 0.950 . S
C2535 C2533 1.390 . S
C2535 C2536 1.387 . S
C2535 H2538 0.950 . S
C2536 C2535 1.387 . S
C2536 C2539 1.387 . S
H2537 C2533 0.950 . S
H2538 C2535 0.950 . S
C2539 C2530 1.390 . S
C2539 H2532 0.950 . S
C2539 C2536 1.387 . S
C2540 C2541 1.387 . S
C2540 H2544 0.950 . S
C2540 C2549 1.390 . S
C2541 C2540 1.387 . S
C2541 C2543 1.387 . S
H2542 C2549 0.950 . S
C2543 C2541 1.387 . S
C2543 C2545 1.390 . S
C2543 H2547 0.950 . S
H2544 C2540 0.950 . S
C2545 C2543 1.390 . S
C2545 C2546 1.387 . S
C2545 H2548 0.950 . S
C2546 C2545 1.387 . S
C2546 C2549 1.387 . S
H2547 C2543 0.950 . S
H2548 C2545 0.950 . S
C2549 C2540 1.390 . S
C2549 H2542 0.950 . S
C2549 C2546 1.387 . S
C2550 C2551 1.387 . S
C2550 H2554 0.950 . S
C2550 C2559 1.390 . S
C2551 C2550 1.387 . S
C2551 C2553 1.387 . S
H2552 C2559 0.950 . S
C2553 C2551 1.387 . S
C2553 C2555 1.390 . S
C2553 H2557 0.950 . S
H2554 C2550 0.950 . S
C2555 C2553 1.390 . S
C2555 C2556 1.387 . S
C2555 H2558 0.950 . S
C2556 C2555 1.387 . S
C2556 C2559 1.387 . S
H2557 C2553 0.950 . S
H2558 C2555 0.950 . S
C2559 C2550 1.390 . S
C2559 H2552 0.950 . S
C2559 C2556 1.387 . S
C2560 C2561 1.387 . S
C2560 H2564 0.950 . S
C2560 C2569 1.390 . S
C2561 C2560 1.387 . S
C2561 C2563 1.387 . S
H2562 C2569 0.950 . S
C2563 C2561 1.387 . S
C2563 C2565 1.390 . S
C2563 H2567 0.950 . S
H2564 C2560 0.950 . S
C2565 C2563 1.390 . S
C2565 C2566 1.387 . S
C2565 H2568 0.950 . S
C2566 C2565 1.387 . S
C2566 C2569 1.387 . S
H2567 C2563 0.950 . S
H2568 C2565 0.950 . S
C2569 C2560 1.390 . S
C2569 H2562 0.950 . S
C2569 C2566 1.387 . S
C2570 C2571 1.387 . S
C2570 H2574 0.950 . S
C2570 C2579 1.390 . S
C2571 C2570 1.387 . S
C2571 C2573 1.387 . S
H2572 C2579 0.950 . S
C2573 C2571 1.387 . S
C2573 C2575 1.390 . S
C2573 H2577 0.950 . S
H2574 C2570 0.950 . S
C2575 C2573 1.390 . S
C2575 C2576 1.387 . S
C2575 H2578 0.950 . S
C2576 C2575 1.387 . S
C2576 C2579 1.387 . S
H2577 C2573 0.950 . S
H2578 C2575 0.950 . S
C2579 C2570 1.390 . S
C2579 H2572 0.950 . S
C2579 C2576 1.387 . S
C2580 C2581 1.387 . S
C2580 H2584 0.950 . S
C2580 C2589 1.390 . S
C2581 C2580 1.387 . S
C2581 C2583 1.387 . S
H2582 C2589 0.950 . S
C2583 C2581 1.387 . S
C2583 C2585 1.390 . S
C2583 H2587 0.950 . S
H2584 C2580 0.950 . S
C2585 C2583 1.390 . S
C2585 C2586 1.387 . S
C2585 H2588 0.950 . S
C2586 C2585 1.387 . S
C2586 C2589 1.387 . S
H2587 C2583 0.950 . S
H2588 C2585 0.950 . S
C2589 C2580 1.390 . S
C2589 H2582 0.950 . S
C2589 C2586 1.387 . S
C2590 C2591 1.387 . S
C2590 H2594 0.950 . S
C2590 C2599 1.390 . S
C2591 C2590 1.387 . S
C2591 C2593 1.387 . S
H2592 C2599 0.950 . S
C2593 C2591 1.387 . S
C2593 C2595 1.390 . S
C2593 H2597 0.950 . S
H2594 C2590 0.950 . S
C2595 C2593 1.390 . S
C2595 C2596 1.387 . S
C2595 H2598 0.950 . S
C2596 C2595 1.387 . S
C2596 C2599 1.387 . S
H2597 C2593 0.950 . S
H2598 C2595 0.950 . S
C2599 C2590 1.390 . S
C2599 H2592 0.950 . S
C2599 C2596 1.387 . S
C2600 C2601 1.387 . S
C2600 H2604 0.950 . S
C2600 C2609 1.390 . S
C2601 C2600 1.387 . S
C2601 C2603 1.387 . S
H2602 C2609 0.950 . S
C2603 C2601 1.387 . S
C2603 C2605 1.390 . S
C2603 H2607 0.950 . S
H2604 C2600 0.950 . S
C2605 C2603 1.390 . S
C2605 C2606 1.387 . S
C2605 H2608 0.950 . S
C2606 C2605 1.387 . S
C2606 C2609 1.387 . S
H2607 C2603 0.950 . S
H2608 C2605 0.950 . S
C2609 C2600 1.390 . S
C2609 H2602 0.950 . S
C2609 C2606 1.387 . S
C2610 C2611 1.387 . S
C2610 H2614 0.950 . S
C2610 C2619 1.390 . S
C2611 C2610 1.387 . S
C2611 C2613 1.387 . S
H2612 C2619 0.950 . S
C2613 C2611 1.387 . S
C2613 C2615 1.390 . S
C2613 H2617 0.950 . S
H2614 C2610 0.950 . S
C2615 C2613 1.390 . S
C2615 C2616 1.387 . S
C2615 H2618 0.950 . S
C2616 C2615 1.387 . S
C2616 C2619 1.387 . S
H2617 C2613 0.950 . S
H2618 C2615 0.950 . S
C2619 C2610 1.390 . S
C2619 H2612 0.950 . S
C2619 C2616 1.387 . S
C2620 C2621 1.387 . S
C2620 H2624 0.950 . S
C2620 C2629 1.390 . S
C2621 C2620 1.387 . S
C2621 C2623 1.387 . S
H2622 C2629 0.950 . S
C2623 C2621 1.387 . S
C2623 C2625 1.390 . S
C2623 H2627 0.950 . S
H2624 C2620 0.950 . S
C2625 C2623 1.390 . S
C2625 C2626 1.387 . S
C2625 H2628 0.950 . S
C2626 C2625 1.387 . S
C2626 C2629 1.387 . S
H2627 C2623 0.950 . S
H2628 C2625 0.950 . S
C2629 C2620 1.390 . S
C2629 H2622 0.950 . S
C2629 C2626 1.387 . S
C2630 C2631 1.387 . S
C2630 H2634 0.950 . S
C2630 C2639 1.390 . S
C2631 C2630 1.387 . S
C2631 C2633 1.387 . S
H2632 C2639 0.950 . S
C2633 C2631 1.387 . S
C2633 C2635 1.390 . S
C2633 H2637 0.950 . S
H2634 C2630 0.950 . S
C2635 C2633 1.390 . S
C2635 C2636 1.387 . S
C2635 H2638 0.950 . S
C2636 C2635 1.387 . S
C2636 C2639 1.387 . S
H2637 C2633 0.950 . S
H2638 C2635 0.950 . S
C2639 C2630 1.390 . S
C2639 H2632 0.950 . S
C2639 C2636 1.387 . S
C1921 C1762 1.527 . S
C1926 C2 1.531 . S
C1931 C1642 1.573 . S
C1936 C61 1.650 . S
C1941 C1701 1.691 . S
C1946 C82 1.605 . S
C1951 C122 1.570 . S
C1956 C1741 1.650 . S
C1961 C181 1.610 . S
C1966 C1882 1.540 . S
C1971 C202 1.570 . S
C1976 C1821 1.651 . S
C1981 C1861 1.703 . S
C1986 C261 1.702 . S
C1991 C301 1.652 . S
C1996 C1602 1.573 . S
C2001 C341 1.690 . S
C2006 C1581 1.689 . S
C2011 C1461 1.704 . S
C2016 C362 1.614 . S
C2021 C402 1.530 . S
C2026 C1501 1.597 . S
C2031 C1522 1.537 . S
C2036 C442 1.539 . S
C2041 C1322 1.616 . S
C2046 C501 1.704 . S
C2051 C541 1.597 . S
C2056 C1362 1.529 . S
C2061 C1402 1.539 . S
C2066 C562 1.537 . S
C2071 C621 1.689 . S
C2076 C1301 1.690 . S
C2081 C1261 1.652 . S
C2086 C642 1.573 . S
C2091 C682 1.570 . S
C2096 C1021 1.649 . S
C2101 C741 1.691 . S
C2106 C1042 1.606 . S
C2111 C1082 1.570 . S
C2116 C781 1.650 . S
C2121 C802 1.527 . S
C2126 C962 1.532 . S
C2131 C861 1.651 . S
C2136 C1162 1.573 . S
C2141 C1221 1.701 . S
C2146 C901 1.703 . S
C2151 C922 1.540 . S
C2156 C1141 1.610 . S
C2161 C602 1.678 . S
C2166 C1621 1.617 . S
C2171 C1901 1.579 . S
C2176 C482 1.635 . S
C2181 C1802 1.586 . S
C2186 C522 1.587 . S
C2191 C1842 1.636 . S
C2196 C581 1.581 . S
C2201 C1661 1.627 . S
C2206 C381 1.623 . S
C2211 C1682 1.637 . S
C2216 C421 1.582 . S
C2221 C461 1.546 . S
C2226 C1722 1.597 . S
C2231 C322 1.637 . S
C2236 C1781 1.582 . S
C2241 C981 1.537 . S
C2246 C282 1.585 . S
C2251 C162 1.600 . S
C2256 C1002 1.597 . S
C2261 C1061 1.614 . S
C2266 C221 1.615 . S
C2271 C1101 1.627 . S
C2276 C242 1.688 . S
C2281 C42 1.597 . S
C2286 C1122 1.600 . S
C2291 C1181 1.613 . S
C2296 C101 1.612 . S
C2301 C141 1.625 . S
C2306 C1202 1.688 . S
C2311 C21 1.538 . S
C2316 C1242 1.585 . S
C2321 C821 1.579 . S
C2326 C1282 1.636 . S
C2331 C1442 1.635 . S
C2336 C941 1.581 . S
C2341 C1482 1.587 . S
C2346 C842 1.585 . S
C2351 C1541 1.582 . S
C2356 C882 1.636 . S
C2361 C661 1.617 . S
C2366 C1562 1.678 . S
C2371 C722 1.637 . S
C2376 C1381 1.582 . S
C2381 C762 1.598 . S
C2386 C1421 1.546 . S
C2391 C701 1.625 . S
C2396 C1341 1.621 . S
C2401 C375 1.551 . S
C2406 C15 1.559 . S
C2411 C55 1.540 . S
C2416 C415 1.539 . S
C2421 C95 1.549 . S
C2426 C455 1.553 . S
C2431 C335 1.564 . S
C2436 C135 1.562 . S
C2441 C175 1.554 . S
C2446 C615 1.551 . S
C2451 C495 1.564 . S
C2456 C215 1.562 . S
C2461 C255 1.555 . S
C2466 C535 1.559 . S
C2471 C295 1.540 . S
C2476 C575 1.539 . S
C2481 C735 1.564 . S
C2486 C655 1.562 . S
C2491 C695 1.563 . S
C2496 C895 1.564 . S
C2501 C935 1.539 . S
C2506 C775 1.541 . S
C2511 C855 1.539 . S
C2516 C815 1.537 . S
C2521 C1335 1.552 . S
C2526 C975 1.559 . S
C2531 C1375 1.539 . S
C2536 C1015 1.540 . S
C2541 C1415 1.553 . S
C2546 C1055 1.550 . S
C2551 C1295 1.564 . S
C2556 C1095 1.563 . S
C2561 C1575 1.551 . S
C2566 C1135 1.554 . S
C2571 C1455 1.564 . S
C2576 C1175 1.562 . S
C2581 C1495 1.559 . S
C2586 C1215 1.555 . S
C2591 C1535 1.539 . S
C2596 C1255 1.540 . S
C2601 C1695 1.563 . S
C2606 C1615 1.562 . S
C2611 C1855 1.564 . S
C2616 C1655 1.563 . S
C2621 C1735 1.540 . S
C2626 C1895 1.539 . S
C2631 C1815 1.539 . S
C2636 C1775 1.537 . S
