# Generated by pormake.
# Topology fcu, (12)-cn, num edge types: 1
# Building blocks:
#     Node 0, Type 0, BuildingBlock: FANWIC_clean_sbu_0, # of connection points: 12
#     Node 1, Type 0, BuildingBlock: FANWIC_clean_sbu_0, # of connection points: 12
#     Node 2, Type 0, BuildingBlock: FANWIC_clean_sbu_0, # of connection points: 12
#     Node 3, Type 0, BuildingBlock: FANWIC_clean_sbu_0, # of connection points: 12
#     Edge 4, Type (0, 0), BuildingBlock: TEMPAE_clean_linker_10, # of connection points: 2
#     Edge 5, Type (0, 0), BuildingBlock: TEMPAE_clean_linker_10, # of connection points: 2
#     Edge 6, Type (0, 0), BuildingBlock: TEMPAE_clean_linker_10, # of connection points: 2
#     Edge 7, Type (0, 0), BuildingBlock: TEMPAE_clean_linker_10, # of connection points: 2
#     Edge 8, Type (0, 0), BuildingBlock: TEMPAE_clean_linker_10, # of connection points: 2
#     Edge 9, Type (0, 0), BuildingBlock: TEMPAE_clean_linker_10, # of connection points: 2
#     Edge 10, Type (0, 0), BuildingBlock: TEMPAE_clean_linker_10, # of connection points: 2
#     Edge 11, Type (0, 0), BuildingBlock: TEMPAE_clean_linker_10, # of connection points: 2
#     Edge 12, Type (0, 0), BuildingBlock: TEMPAE_clean_linker_10, # of connection points: 2
#     Edge 13, Type (0, 0), BuildingBlock: TEMPAE_clean_linker_10, # of connection points: 2
#     Edge 14, Type (0, 0), BuildingBlock: TEMPAE_clean_linker_10, # of connection points: 2
#     Edge 15, Type (0, 0), BuildingBlock: TEMPAE_clean_linker_10, # of connection points: 2
#     Edge 16, Type (0, 0), BuildingBlock: TEMPAE_clean_linker_10, # of connection points: 2
#     Edge 17, Type (0, 0), BuildingBlock: TEMPAE_clean_linker_10, # of connection points: 2
#     Edge 18, Type (0, 0), BuildingBlock: TEMPAE_clean_linker_10, # of connection points: 2
#     Edge 19, Type (0, 0), BuildingBlock: TEMPAE_clean_linker_10, # of connection points: 2
#     Edge 20, Type (0, 0), BuildingBlock: TEMPAE_clean_linker_10, # of connection points: 2
#     Edge 21, Type (0, 0), BuildingBlock: TEMPAE_clean_linker_10, # of connection points: 2
#     Edge 22, Type (0, 0), BuildingBlock: TEMPAE_clean_linker_10, # of connection points: 2
#     Edge 23, Type (0, 0), BuildingBlock: TEMPAE_clean_linker_10, # of connection points: 2
#     Edge 24, Type (0, 0), BuildingBlock: TEMPAE_clean_linker_10, # of connection points: 2
#     Edge 25, Type (0, 0), BuildingBlock: TEMPAE_clean_linker_10, # of connection points: 2
#     Edge 26, Type (0, 0), BuildingBlock: TEMPAE_clean_linker_10, # of connection points: 2
#     Edge 27, Type (0, 0), BuildingBlock: TEMPAE_clean_linker_10, # of connection points: 2
# Relax obj value: 0.218
# Max RMSD: 0.293
# Mean RMSD: 0.293
data_MOF--net-fcu--node1-FANWIC_clean_sbu_0--edge1-TEMPAE_clean_linker_10
_symmetry_space_group_name_H-M    P1
_symmetry_Int_Tables_number       1
_symmetry_cell_setting            triclinic
loop_
_symmetry_equiv_pos_as_xyz
'x, y, z'
_cell_length_a     24.268234
_cell_length_b     25.267749
_cell_length_c     24.894847
_cell_angle_alpha  92.281182
_cell_angle_beta   89.504167
_cell_angle_gamma 90.283796
loop_
_atom_site_label
_atom_site_type_symbol
_atom_site_fract_x
_atom_site_fract_y
_atom_site_fract_z
_atom_type_partial_charge
Zn0 Zn 0.93364 0.97432 0.92797 0.0
Zn1 Zn 0.90953 0.95037 0.048 0.0
Zn2 Zn 0.95695 0.0779 0.01424 0.0
Zn3 Zn 0.83956 0.03068 0.99164 0.0
O4 O 0.91723 0.00899 -0.00064 0.0
C5 C 0.01276 0.09082 0.11868 0.0
O6 O 0.0559 0.06968 0.09411 0.0
N7 N 0.99575 0.92598 0.92679 0.0
N8 N 0.03704 0.92684 0.9615 0.0
N9 N 0.05605 0.86588 0.89689 0.0
C10 C 0.00759 0.8892 0.88771 0.0
C11 C 0.07323 0.88983 0.94311 0.0
N12 N 0.96785 0.94228 0.09718 0.0
C13 C 0.03892 0.94495 0.14692 0.0
N14 N 0.00323 0.91215 0.17118 0.0
C15 C 0.95959 0.91084 0.13858 0.0
N16 N 0.01752 0.96394 0.10159 0.0
H17 H 0.92428 0.83421 0.1531 0.0
C18 C 0.91061 0.8747 0.14392 0.0
H19 H 0.88587 0.87242 0.10681 0.0
H20 H 0.88401 0.88959 0.17761 0.0
N21 N 0.02714 0.07572 0.97805 0.0
C22 C 0.06405 0.11524 0.98052 0.0
C23 C 0.09575 0.05545 0.92635 0.0
N24 N 0.04627 0.03838 0.94398 0.0
N25 N 0.10771 0.10377 0.94864 0.0
C26 C 0.05481 0.16695 0.01082 0.0
H27 H 0.0649 0.20035 0.98473 0.0
H28 H 0.01163 0.17037 0.02533 0.0
H29 H 0.08254 0.16974 0.04601 0.0
O30 O 0.80115 -0.01019 0.93319 0.0
O31 O 0.8666 0.93974 0.89576 0.0
C32 C 0.81673 0.95408 0.89924 0.0
O33 O 0.9 0.88238 0.00465 0.0
O34 O 0.83346 0.10504 0.97032 0.0
O35 O 0.91464 0.14164 0.98789 0.0
O36 O 0.95383 0.03194 0.88118 0.0
O37 O 0.79641 0.02627 0.06067 0.0
O38 O 0.84546 0.96412 0.09741 0.0
O39 O 0.96764 0.09428 0.09345 0.0
C40 C 0.93401 0.84417 0.00364 0.0
O41 O 0.97935 0.84779 0.03188 0.0
C42 C 0.86534 0.14495 0.97137 0.0
C43 C 0.94943 0.02899 0.83055 0.0
O44 O 0.9268 0.98699 0.80695 0.0
C45 C 0.80527 -0.004 0.09913 0.0
H46 H 0.93026 0.89011 0.8448 0.0
H47 H 0.97263 0.83357 0.82941 0.0
H48 H 0.99122 0.89666 0.80425 0.0
C49 C 0.97296 0.8768 0.83917 0.0
Zn50 Zn 0.96143 0.4984 0.42767 0.0
Zn51 Zn 0.9078 0.44668 0.5359 0.0
Zn52 Zn 0.96739 0.57661 0.53826 0.0
Zn53 Zn 0.85721 0.53743 0.48536 0.0
O54 O 0.93178 0.51234 0.50266 0.0
C55 C 0.02668 0.57148 0.63923 0.0
O56 O 0.06785 0.55494 0.60849 0.0
N57 N 0.01922 0.44422 0.42259 0.0
N58 N 0.06206 0.43889 0.45483 0.0
N59 N 0.06336 0.37145 0.39455 0.0
C60 C 0.02076 0.40373 0.38574 0.0
C61 C 0.08862 0.39441 0.43755 0.0
N62 N 0.95539 0.42191 0.58952 0.0
C63 C 0.01735 0.40589 0.64699 0.0
N64 N 0.98069 0.36557 0.64975 0.0
C65 C 0.94204 0.37743 0.61423 0.0
N66 N 0.00219 0.44065 0.6099 0.0
H67 H 0.86106 0.3545 0.63875 0.0
C68 C 0.8898 0.34647 0.60454 0.0
H69 H 0.89824 0.30336 0.60244 0.0
H70 H 0.8689 0.35792 0.56758 0.0
N71 N 0.03839 0.58472 0.5044 0.0
C72 C 0.06917 0.6289 0.5044 0.0
C73 C 0.10985 0.57061 0.4546 0.0
N74 N 0.06361 0.54812 0.4737 0.0
N75 N 0.1143 0.62144 0.47307 0.0
C76 C 0.05099 0.68047 0.53039 0.0
H77 H 0.02843 0.70328 0.50049 0.0
H78 H 0.02271 0.67324 0.56463 0.0
H79 H 0.08654 0.70459 0.54472 0.0
O80 O 0.82387 0.49922 0.42169 0.0
O81 O 0.90028 0.47615 0.37826 0.0
C82 C 0.84817 0.4785 0.38077 0.0
O83 O 0.89988 0.38832 0.47896 0.0
O84 O 0.85753 0.61362 0.46968 0.0
O85 O 0.92076 0.643 0.52747 0.0
O86 O 0.98605 0.56748 0.39953 0.0
O87 O 0.80434 0.53099 0.54726 0.0
O88 O 0.83775 0.45718 0.57784 0.0
O89 O 0.97908 0.57556 0.61864 0.0
C90 C 0.93736 0.35344 0.47354 0.0
O91 O 0.98392 0.3606 0.49929 0.0
C92 C 0.88113 0.65139 0.49565 0.0
C93 C 0.98444 0.57482 0.34951 0.0
O94 O 0.97042 0.53548 0.31634 0.0
C95 C 0.80218 0.49376 0.57994 0.0
H96 H 0.976 0.43224 0.31907 0.0
H97 H 0.93914 0.38569 0.35879 0.0
H98 H 0.99181 0.36279 0.31261 0.0
C99 C 0.97984 0.39541 0.34136 0.0
Zn100 Zn 0.46814 0.01484 0.42772 0.0
Zn101 Zn 0.417 0.96216 0.53216 0.0
Zn102 Zn 0.48121 0.09025 0.54075 0.0
Zn103 Zn 0.36484 0.055 0.49423 0.0
O104 O 0.44091 0.03008 0.50324 0.0
C105 C 0.51083 0.0667 0.65289 0.0
O106 O 0.55244 0.03916 0.63274 0.0
N107 N 0.5192 0.95572 0.4241 0.0
N108 N 0.55204 0.9394 0.46228 0.0
N109 N 0.55449 0.87882 0.39421 0.0
C110 C 0.52205 0.92017 0.38263 0.0
C111 C 0.57352 0.89274 0.44398 0.0
N112 N 0.47385 0.92057 0.56129 0.0
C113 C 0.54494 0.89859 0.6051 0.0
N114 N 0.50974 0.8573 0.60859 0.0
C115 C 0.46539 0.87246 0.58103 0.0
N116 N 0.52288 0.93774 0.57717 0.0
H117 H 0.41644 0.80073 0.57881 0.0
C118 C 0.41069 0.8443 0.57988 0.0
H119 H 0.38558 0.85543 0.54555 0.0
H120 H 0.38662 0.85627 0.61636 0.0
N121 N 0.55703 0.08843 0.51477 0.0
C122 C 0.60132 0.11754 0.52987 0.0
C123 C 0.62266 0.07455 0.45748 0.0
N124 N 0.57067 0.06118 0.47024 0.0
N125 N 0.64377 0.10931 0.49473 0.0
C126 C 0.60138 0.15558 0.57762 0.0
H127 H 0.59048 0.1956 0.56446 0.0
H128 H 0.57 0.14438 0.60755 0.0
H129 H 0.64265 0.15737 0.59649 0.0
O130 O 0.33242 0.02795 0.42318 0.0
O131 O 0.40548 -0.00467 0.37909 0.0
C132 C 0.3543 0.0049 0.38182 0.0
O133 O 0.37933 0.92321 0.47276 0.0
O134 O 0.36502 0.13302 0.49188 0.0
O135 O 0.44577 0.16165 0.52348 0.0
O136 O 0.49973 0.08056 0.39611 0.0
O137 O 0.31503 0.03803 0.55809 0.0
O138 O 0.36135 0.97188 0.59082 0.0
O139 O 0.47664 0.08663 0.62111 0.0
C140 C 0.39755 0.8831 0.44621 0.0
O141 O 0.44708 0.86569 0.45629 0.0
C142 C 0.39824 0.17043 0.50414 0.0
C143 C 0.46621 0.11638 0.3838 0.0
O144 O 0.41327 0.10863 0.39109 0.0
C145 C 0.3212 0.00382 0.59379 0.0
H146 H 0.49635 0.97162 0.32107 0.0
H147 H 0.4529 0.91476 0.32965 0.0
H148 H 0.51893 0.90679 0.29646 0.0
C149 C 0.49629 0.92874 0.32917 0.0
Zn150 Zn 0.44195 0.49533 0.92901 0.0
Zn151 Zn 0.42399 0.45689 0.04995 0.0
Zn152 Zn 0.4726 0.58921 0.02717 0.0
Zn153 Zn 0.35484 0.53944 0.01262 0.0
O154 O 0.433 0.52076 0.00682 0.0
C155 C 0.5032 0.57239 0.14877 0.0
O156 O 0.48035 0.52604 0.15631 0.0
N157 N 0.49703 0.43909 0.9223 0.0
N158 N 0.54359 0.43902 0.95004 0.0
N159 N 0.5406 0.36449 0.89943 0.0
C160 C 0.49581 0.39408 0.89111 0.0
C161 C 0.56955 0.39337 0.93597 0.0
N162 N 0.49195 0.42709 0.07084 0.0
C163 C 0.57362 0.41573 0.09922 0.0
N164 N 0.5444 0.37373 0.11603 0.0
C165 C 0.49348 0.38242 0.09796 0.0
N166 N 0.54165 0.44902 0.07214 0.0
H167 H 0.44771 0.31019 0.10488 0.0
C168 C 0.44299 0.35299 0.11561 0.0
H169 H 0.40525 0.3682 0.09709 0.0
H170 H 0.43853 0.35712 0.15999 0.0
N171 N 0.53823 0.5948 0.98332 0.0
C172 C 0.57783 0.63172 0.98976 0.0
C173 C 0.60016 0.58238 0.92214 0.0
N174 N 0.55218 0.56365 0.94151 0.0
N175 N 0.61832 0.62428 0.95273 0.0
C176 C 0.5747 0.67648 0.03086 0.0
H177 H 0.56943 0.71423 0.01036 0.0
H178 H 0.53848 0.67206 0.05759 0.0
H179 H 0.61336 0.67903 0.05433 0.0
O180 O 0.30809 0.50186 0.95729 0.0
O181 O 0.3698 0.47119 0.8979 0.0
C182 C 0.32012 0.47751 0.91311 0.0
O183 O 0.38232 0.40502 0.00343 0.0
O184 O 0.3449 0.61441 -0.00105 0.0
O185 O 0.42454 0.6549 0.01487 0.0
O186 O 0.46441 0.55501 0.88312 0.0
O187 O 0.32291 0.52971 0.08664 0.0
O188 O 0.3786 0.46965 0.11764 0.0
O189 O 0.49916 0.59406 0.10374 0.0
C190 C 0.40012 0.36198 0.98186 0.0
O191 O 0.45109 0.34741 0.99001 0.0
C192 C 0.37376 0.6563 0.00216 0.0
C193 C 0.47274 0.54652 0.83314 0.0
O194 O 0.46334 0.49913 0.81162 0.0
C195 C 0.33776 0.50051 0.1243 0.0
H196 H 0.40992 0.38839 0.87125 0.0
H197 H 0.45057 0.33473 0.84386 0.0
H198 H 0.45536 0.39869 0.81536 0.0
C199 C 0.45024 0.37798 0.85346 0.0
C200 C 0.06547 0.11162 0.20297 0.0
C201 C 0.01959 0.12033 0.17067 0.0
C202 C 0.0765 0.145 0.2481 0.0
C203 C 0.04239 0.18924 0.25952 0.0
C204 C 0.99433 0.19646 0.22892 0.0
C205 C 0.98314 0.16148 0.18525 0.0
C206 C 0.12604 0.13451 0.28205 0.0
C207 C 0.95648 0.24298 0.24026 0.0
C208 C 0.04516 0.2766 0.38622 0.0
C209 C 0.07298 0.32106 0.36796 0.0
C210 C 0.0381 0.23129 0.35274 0.0
C211 C 0.05942 0.23102 0.29966 0.0
C212 C 0.09202 0.27421 0.28287 0.0
C213 C 0.09837 0.31892 0.31746 0.0
C214 C 0.00381 0.18603 0.37285 0.0
C215 C 0.11595 0.27529 0.22674 0.0
H216 H 0.09364 0.07973 0.19216 0.0
H217 H 0.9475 0.16845 0.16058 0.0
H218 H 0.15977 0.16203 0.27139 0.0
H219 H 0.11651 0.14153 0.32541 0.0
H220 H 0.14057 0.09326 0.27568 0.0
H221 H 0.91926 0.24131 0.21457 0.0
H222 H 0.9431 0.24439 0.283 0.0
H223 H 0.97897 0.28044 0.23305 0.0
H224 H 0.02578 0.27881 0.42546 0.0
H225 H 0.11933 0.35387 0.30366 0.0
H226 H 0.01923 0.14726 0.3567 0.0
H227 H 0.96066 0.19037 0.35937 0.0
H228 H 0.00337 0.18585 0.41748 0.0
H229 H 0.13905 0.23834 0.21696 0.0
H230 H 0.14402 0.30964 0.22168 0.0
H231 H 0.08203 0.27761 0.19731 0.0
C232 C 0.71914 0.02039 0.15047 0.0
C233 C 0.77372 0.00259 0.14981 0.0
C234 C 0.6909 0.02985 0.19942 0.0
C235 C 0.71868 0.02286 0.24843 0.0
C236 C 0.77365 0.00453 0.24783 0.0
C237 C 0.80023 -0.006 0.19853 0.0
C238 C 0.63158 0.04747 0.19885 0.0
C239 C 0.80491 -0.00259 0.29929 0.0
C240 C 0.67218 0.10107 0.37353 0.0
C241 C 0.64701 0.06173 0.40356 0.0
C242 C 0.69518 0.08902 0.32268 0.0
C243 C 0.69146 0.03667 0.30065 0.0
C244 C 0.66474 -0.00286 0.33002 0.0
C245 C 0.64288 0.01041 0.38102 0.0
C246 C 0.72454 0.13196 0.293 0.0
C247 C 0.65891 0.94089 0.30784 0.0
H248 H 0.69861 0.02683 0.1128 0.0
H249 H 0.84276 0.98103 0.19821 0.0
H250 H 0.6054 0.01843 0.21972 0.0
H251 H 0.62702 0.0861 0.22113 0.0
H252 H 0.61597 0.05138 0.15739 0.0
H253 H 0.8077 0.03586 0.32229 0.0
H254 H 0.78259 0.96935 0.32497 0.0
H255 H 0.8473 0.98226 0.29177 0.0
H256 H 0.67416 0.14131 0.38981 0.0
H257 H 0.62359 0.98028 0.40371 0.0
H258 H 0.70505 0.13706 0.25342 0.0
H259 H 0.76809 0.12055 0.28533 0.0
H260 H 0.7239 0.17053 0.31581 0.0
H261 H 0.64831 0.91312 0.33981 0.0
H262 H 0.69732 0.9269 0.28758 0.0
H263 H 0.62561 0.93921 0.27755 0.0
C264 C 0.97443 0.86848 0.25264 0.0
C265 C 0.01367 0.87541 0.21211 0.0
C266 C 0.97407 0.82251 0.28204 0.0
C267 C 0.0154 0.78401 0.27154 0.0
C268 C 0.05886 0.79412 0.23486 0.0
C269 C 0.05735 0.84 0.2055 0.0
C270 C 0.92563 0.81247 0.31891 0.0
C271 C 0.10433 0.75503 0.2218 0.0
C272 C 0.01838 0.66768 0.36228 0.0
C273 C 0.9939 0.628 0.32941 0.0
C274 C 0.02676 0.71869 0.3437 0.0
C275 C 0.00805 0.73046 0.29201 0.0
C276 C 0.98228 0.69085 0.25903 0.0
C277 C 0.97632 0.63977 0.27787 0.0
C278 C 0.05634 0.7597 0.37868 0.0
C279 C 0.96098 0.70243 0.20384 0.0
H280 H 0.94126 0.89685 0.25779 0.0
H281 H 0.08768 0.84581 0.17404 0.0
H282 H 0.89711 0.78382 0.29853 0.0
H283 H 0.93893 0.79481 0.35668 0.0
H284 H 0.9024 0.84935 0.32918 0.0
H285 H 0.1448 0.77434 0.22981 0.0
H286 H 0.10143 0.71847 0.2447 0.0
H287 H 0.10357 0.74375 0.17824 0.0
H288 H 0.0316 0.65871 0.40225 0.0
H289 H 0.95671 0.60937 0.2526 0.0
H290 H 0.02978 0.79475 0.38661 0.0
H291 H 0.09357 0.77357 0.35715 0.0
H292 H 0.06881 0.74419 0.41782 0.0
H293 H 0.93383 0.7377 0.20614 0.0
H294 H 0.9375 0.66857 0.18547 0.0
H295 H 0.9961 0.7115 0.17684 0.0
C296 C 0.30251 0.04022 0.30626 0.0
C297 C 0.32162 -0.00358 0.33302 0.0
C298 C 0.26788 0.03346 0.26177 0.0
C299 C 0.24915 0.98189 0.2466 0.0
C300 C 0.27327 0.9374 0.26994 0.0
C301 C 0.31107 0.94542 0.3118 0.0
C302 C 0.25125 0.08174 0.23212 0.0
C303 C 0.25579 0.88157 0.254 0.0
C304 C 0.09615 0.96938 0.22537 0.0
C305 C 0.09266 0.96033 0.16976 0.0
C306 C 0.14695 0.97624 0.25039 0.0
C307 C 0.19569 0.97546 0.21872 0.0
C308 C 0.19239 0.96887 0.16201 0.0
C309 C 0.14047 0.96142 0.13796 0.0
C310 C 0.14828 0.98239 0.31109 0.0
C311 C 0.24347 0.96902 0.12712 0.0
H312 H 0.31443 0.0798 0.32033 0.0
H313 H 0.33014 0.91185 0.32951 0.0
H314 H 0.28392 0.09022 0.20216 0.0
H315 H 0.21206 0.07637 0.21001 0.0
H316 H 0.24821 0.11703 0.26001 0.0
H317 H 0.28556 0.85182 0.26779 0.0
H318 H 0.21504 0.87317 0.2725 0.0
H319 H 0.25131 0.87671 0.20976 0.0
H320 H 0.05884 0.96992 0.24968 0.0
H321 H 0.13742 0.95458 0.09482 0.0
H322 H 0.17322 0.01744 0.324 0.0
H323 H 0.16785 0.94706 0.32771 0.0
H324 H 0.10641 0.98669 0.32909 0.0
H325 H 0.26322 0.00872 0.13036 0.0
H326 H 0.23424 0.95939 0.08417 0.0
H327 H 0.27373 0.93999 0.14124 0.0
C328 C 0.0717 0.77029 0.89503 0.0
C329 C 0.07636 0.81862 0.86985 0.0
C330 C 0.07382 0.72218 0.86486 0.0
C331 C 0.07947 0.72299 0.80821 0.0
C332 C 0.08982 0.77179 0.78358 0.0
C333 C 0.08858 0.81907 0.81497 0.0
C334 C 0.06469 0.67126 0.8933 0.0
C335 C 0.09608 0.77483 0.72338 0.0
C336 C 0.09275 0.60486 0.70994 0.0
C337 C 0.03842 0.59996 0.69122 0.0
C338 C 0.10641 0.64204 0.75133 0.0
C339 C 0.06492 0.67546 0.77383 0.0
C340 C 0.00935 0.66742 0.75836 0.0
C341 C 0.99675 0.62948 0.71762 0.0
C342 C 0.16565 0.64772 0.76867 0.0
C343 C 0.96358 0.7018 0.78172 0.0
H344 H 0.062 0.77032 0.93763 0.0
H345 H 0.09211 0.85683 0.796 0.0
H346 H 0.01991 0.66231 0.89472 0.0
H347 H 0.08574 0.63751 0.87215 0.0
H348 H 0.07967 0.67477 0.93535 0.0
H349 H 0.11013 0.81464 0.71143 0.0
H350 H 0.12588 0.74491 0.70747 0.0
H351 H 0.05578 0.76609 0.70413 0.0
H352 H 0.12519 0.58168 0.69043 0.0
H353 H 0.95456 0.62559 0.70402 0.0
H354 H 0.16819 0.65161 0.81314 0.0
H355 H 0.18368 0.6842 0.75231 0.0
H356 H 0.19101 0.61345 0.75426 0.0
H357 H 0.96412 0.70199 0.82626 0.0
H358 H 0.92225 0.68828 0.76791 0.0
H359 H 0.96985 0.74325 0.76971 0.0
C360 C 0.18578 0.03231 0.88159 0.0
C361 C 0.12818 0.02848 0.88257 0.0
C362 C 0.21569 0.02076 0.83417 0.0
C363 C 0.18741 0.00252 0.78741 0.0
C364 C 0.13016 -0.00826 0.79049 0.0
C365 C 0.10121 0.00476 0.83828 0.0
C366 C 0.27673 0.03257 0.83303 0.0
C367 C 0.09881 0.97002 0.74235 0.0
C368 C 0.25076 0.04584 0.65602 0.0
C369 C 0.28272 0.00175 0.64035 0.0
C370 C 0.21828 0.04589 0.70303 0.0
C371 C 0.21681 0.00035 0.73456 0.0
C372 C 0.24665 0.95471 0.71738 0.0
C373 C 0.27981 0.95619 0.6709 0.0
C374 C 0.18701 0.0954 0.72004 0.0
C375 C 0.24526 0.90492 0.74901 0.0
H376 H 0.20727 0.04746 0.91696 0.0
H377 H 0.05705 -0.00059 0.83975 0.0
H378 H 0.29976 -0.00162 0.81503 0.0
H379 H 0.28464 0.06695 0.80758 0.0
H380 H 0.29323 0.0421 0.87379 0.0
H381 H 0.09557 0.00103 0.71223 0.0
H382 H 0.121 0.93594 0.72297 0.0
H383 H 0.0565 0.95714 0.75333 0.0
H384 H 0.25272 0.08111 0.63264 0.0
H385 H 0.30391 0.92167 0.65875 0.0
H386 H 0.19948 0.10891 0.76109 0.0
H387 H 0.14217 0.08675 0.72153 0.0
H388 H 0.19423 0.12821 0.69237 0.0
H389 H 0.27197 0.91037 0.78475 0.0
H390 H 0.26045 0.87003 0.72476 0.0
H391 H 0.20293 0.89634 0.7636 0.0
C392 C 0.94332 0.299 0.70849 0.0
C393 C 0.98586 0.31627 0.67541 0.0
C394 C 0.94563 0.24942 0.73089 0.0
C395 C 0.99245 0.21719 0.72072 0.0
C396 C 0.03653 0.23524 0.68866 0.0
C397 C 0.0325 0.28483 0.66593 0.0
C398 C 0.89778 0.23145 0.7651 0.0
C399 C 0.08744 0.20218 0.67825 0.0
C400 C 0.99847 0.115 0.82499 0.0
C401 C 0.96941 0.07322 0.79926 0.0
C402 C 0.01124 0.16085 0.79798 0.0
C403 C 0.99423 0.16472 0.7442 0.0
C404 C 0.96944 0.12084 0.71661 0.0
C405 C 0.95732 0.07531 0.74461 0.0
C406 C 0.03875 0.20667 0.82825 0.0
C407 C 0.95057 0.12365 0.65926 0.0
H408 H 0.90814 0.32442 0.71646 0.0
H409 H 0.06523 0.29896 0.64022 0.0
H410 H 0.88066 0.19367 0.74801 0.0
H411 H 0.91204 0.22402 0.80634 0.0
H412 H 0.86413 0.26111 0.76798 0.0
H413 H 0.10868 0.19598 0.71675 0.0
H414 H 0.07594 0.16251 0.66105 0.0
H415 H 0.11685 0.22109 0.65035 0.0
H416 H 0.00905 0.11303 0.86702 0.0
H417 H 0.93567 0.04269 0.72442 0.0
H418 H 0.01024 0.24085 0.83182 0.0
H419 H 0.07577 0.21978 0.80589 0.0
H420 H 0.05115 0.19633 0.86937 0.0
H421 H 0.91078 0.14508 0.65893 0.0
H422 H 0.94411 0.08361 0.64022 0.0
H423 H 0.98069 0.14555 0.63469 0.0
C424 C 0.64462 0.90542 0.62771 0.0
C425 C 0.5894 0.90832 0.6436 0.0
C426 C 0.68655 0.91059 0.66606 0.0
C427 C 0.67217 0.91874 0.72099 0.0
C428 C 0.61613 0.92297 0.73668 0.0
C429 C 0.57536 0.91749 0.69766 0.0
C430 C 0.74593 0.90824 0.64785 0.0
C431 C 0.59924 0.93415 0.79456 0.0
C432 C 0.76579 0.89106 0.8374 0.0
C433 C 0.78144 0.94264 0.85305 0.0
C434 C 0.73178 0.88214 0.7925 0.0
C435 C 0.71506 0.92578 0.76248 0.0
C436 C 0.73461 0.97729 0.77619 0.0
C437 C 0.76694 0.98511 0.82184 0.0
C438 C 0.71279 0.82652 0.77765 0.0
C439 C 0.72234 0.02427 0.74267 0.0
H440 H 0.65483 0.89828 0.58572 0.0
H441 H 0.53225 0.92 0.70934 0.0
H442 H 0.7643 0.94845 0.65107 0.0
H443 H 0.77012 0.8825 0.67387 0.0
H444 H 0.75008 0.89354 0.60546 0.0
H445 H 0.61576 0.90315 0.82026 0.0
H446 H 0.6169 0.97271 0.80899 0.0
H447 H 0.55377 0.93564 0.79992 0.0
H448 H 0.77902 0.85823 0.86079 0.0
H449 H 0.78169 0.02466 0.83289 0.0
H450 H 0.72249 0.81677 0.73473 0.0
H451 H 0.66739 0.82362 0.7826 0.0
H452 H 0.73222 0.79659 0.80278 0.0
H453 H 0.75112 0.02413 0.70784 0.0
H454 H 0.72833 0.06236 0.76573 0.0
H455 H 0.67992 0.02266 0.72677 0.0
C456 C 0.37761 0.27524 0.93525 0.0
C457 C 0.36133 0.32609 0.95335 0.0
C458 C 0.3381 0.23752 0.91867 0.0
C459 C 0.28181 0.25154 0.92023 0.0
C460 C 0.26619 0.30463 0.93144 0.0
C461 C 0.30618 0.3412 0.9485 0.0
C462 C 0.35563 0.18136 0.90485 0.0
C463 C 0.20656 0.32148 0.93246 0.0
C464 C 0.16541 0.1555 0.88801 0.0
C465 C 0.15375 0.13767 0.93942 0.0
C466 C 0.2085 0.19158 0.88016 0.0
C467 C 0.23973 0.20974 0.925 0.0
C468 C 0.22855 0.19052 0.97671 0.0
C469 C 0.18585 0.15429 0.98303 0.0
C470 C 0.22015 0.21038 0.82439 0.0
C471 C 0.26049 0.20935 0.02583 0.0
H472 H 0.42044 0.26379 0.93748 0.0
H473 H 0.2933 0.38064 0.96158 0.0
H474 H 0.33951 0.15444 0.93549 0.0
H475 H 0.33802 0.16801 0.86557 0.0
H476 H 0.40104 0.17731 0.90303 0.0
H477 H 0.20255 0.36479 0.92733 0.0
H478 H 0.18266 0.30014 0.90058 0.0
H479 H 0.18796 0.312 0.97184 0.0
H480 H 0.14034 0.14171 0.85442 0.0
H481 H 0.17667 0.13929 0.02232 0.0
H482 H 0.25676 0.1892 0.80756 0.0
H483 H 0.22964 0.25338 0.82511 0.0
H484 H 0.1849 0.20248 0.79701 0.0
H485 H 0.2563 0.25288 0.03201 0.0
H486 H 0.30493 0.20059 0.02006 0.0
H487 H 0.24607 0.19033 0.06294 0.0
C488 C 0.35647 0.75363 0.02196 0.0
C489 C 0.34477 0.70639 0.99267 0.0
C490 C 0.32049 0.79728 0.0203 0.0
C491 C 0.2718 0.79284 0.98923 0.0
C492 C 0.26195 0.74616 0.95728 0.0
C493 C 0.29875 0.70404 0.95903 0.0
C494 C 0.33338 0.84676 0.05382 0.0
C495 C 0.21066 0.73911 0.92353 0.0
C496 C 0.13286 0.85394 0.01355 0.0
C497 C 0.12781 0.88097 0.96602 0.0
C498 C 0.18319 0.83044 0.02634 0.0
C499 C 0.22886 0.83478 0.99073 0.0
C500 C 0.22559 0.86905 0.94728 0.0
C501 C 0.17459 0.89086 0.93471 0.0
C502 C 0.18532 0.79558 0.07405 0.0
C503 C 0.27388 0.87735 0.90999 0.0
H504 H 0.39191 0.75556 0.04819 0.0
H505 H 0.28994 0.66783 0.93573 0.0
H506 H 0.31821 0.88281 0.03474 0.0
H507 H 0.31291 0.84433 0.09367 0.0
H508 H 0.3784 0.85095 0.0606 0.0
H509 H 0.17359 0.74194 0.94986 0.0
H510 H 0.20803 0.77084 0.89416 0.0
H511 H 0.20945 0.70029 0.90098 0.0
H512 H 0.09648 0.84692 0.03788 0.0
H513 H 0.17043 0.91239 0.89813 0.0
H514 H 0.22403 0.80254 0.09662 0.0
H515 H 0.18459 0.75339 0.05978 0.0
H516 H 0.14982 0.80261 0.10184 0.0
H517 H 0.2705 0.91564 0.88981 0.0
H518 H 0.27459 0.84509 0.87841 0.0
H519 H 0.31345 0.87664 0.93197 0.0
C520 C 0.67122 0.39479 0.92687 0.0
C521 C 0.62426 0.37789 0.95446 0.0
C522 C 0.72141 0.36782 0.93096 0.0
C523 C 0.72386 0.32256 0.96264 0.0
C524 C 0.67756 0.3086 0.9943 0.0
C525 C 0.62822 0.3366 0.98983 0.0
C526 C 0.76964 0.38481 0.89706 0.0
C527 C 0.67841 0.26078 0.02879 0.0
C528 C 0.79998 0.198 0.92009 0.0
C529 C 0.84093 0.19648 0.95931 0.0
C530 C 0.76466 0.24149 0.9176 0.0
C531 C 0.76999 0.28418 0.95587 0.0
C532 C 0.81451 0.28508 0.99234 0.0
C533 C 0.8499 0.24113 0.99343 0.0
C534 C 0.71846 0.23935 0.87719 0.0
C535 C 0.82202 0.33052 0.03283 0.0
H536 H 0.66772 0.42639 0.89891 0.0
H537 H 0.59154 0.32361 0.01084 0.0
H538 H 0.80962 0.37411 0.91484 0.0
H539 H 0.76681 0.36486 0.85664 0.0
H540 H 0.76898 0.42826 0.89181 0.0
H541 H 0.64111 0.25823 0.05462 0.0
H542 H 0.68067 0.2242 0.00268 0.0
H543 H 0.7153 0.26186 0.05481 0.0
H544 H 0.79335 0.1636 0.89341 0.0
H545 H 0.88148 0.23992 0.02389 0.0
H546 H 0.71558 0.27739 0.85665 0.0
H547 H 0.6786 0.23295 0.89824 0.0
H548 H 0.7241 0.20686 0.84626 0.0
H549 H 0.82151 0.36876 0.01242 0.0
H550 H 0.86115 0.32755 0.05531 0.0
H551 H 0.78722 0.33115 0.06202 0.0
C552 C 0.89858 0.75687 0.02575 0.0
C553 C 0.91313 0.79223 0.98624 0.0
C554 C 0.85889 0.71761 0.01511 0.0
C555 C 0.83539 0.71314 0.96326 0.0
C556 C 0.85749 0.74278 0.92108 0.0
C557 C 0.89499 0.78358 0.93353 0.0
C558 C 0.83689 0.68624 0.06104 0.0
C559 C 0.83693 0.73515 0.86427 0.0
C560 C 0.71898 0.61333 0.94876 0.0
C561 C 0.67292 0.64656 0.954 0.0
C562 C 0.77248 0.63431 0.94836 0.0
C563 C 0.77988 0.68948 0.95715 0.0
C564 C 0.73334 0.72313 0.96274 0.0
C565 C 0.68049 0.70129 0.95904 0.0
C566 C 0.82023 0.59691 0.93917 0.0
C567 C 0.73907 0.78225 0.97346 0.0
H568 H 0.91303 0.76397 0.06655 0.0
H569 H 0.90674 0.81102 0.90316 0.0
H570 H 0.79424 0.69917 0.07112 0.0
H571 H 0.83523 0.64351 0.04927 0.0
H572 H 0.8625 0.6915 0.09768 0.0
H573 H 0.86247 0.75716 0.83529 0.0
H574 H 0.83696 0.69237 0.85218 0.0
H575 H 0.79385 0.74915 0.8619 0.0
H576 H 0.71304 0.57084 0.94432 0.0
H577 H 0.64512 0.72711 0.96009 0.0
H578 H 0.80929 0.56521 0.90885 0.0
H579 H 0.8293 0.57731 0.97718 0.0
H580 H 0.85809 0.61729 0.92538 0.0
H581 H 0.7668 0.79064 0.00802 0.0
H582 H 0.69879 0.80155 0.98234 0.0
H583 H 0.75755 0.8008 0.93792 0.0
C584 C 0.65401 0.60086 0.8382 0.0
C585 C 0.62303 0.56552 0.86855 0.0
C586 C 0.67801 0.58473 0.78905 0.0
C587 C 0.66709 0.53322 0.76729 0.0
C588 C 0.63124 0.49915 0.79497 0.0
C589 C 0.61058 0.51536 0.84579 0.0
C590 C 0.71706 0.62219 0.76174 0.0
C591 C 0.61555 0.44506 0.77224 0.0
C592 C 0.71154 0.5207 0.62112 0.0
C593 C 0.76309 0.49663 0.62561 0.0
C594 C 0.67738 0.52885 0.66653 0.0
C595 C 0.69651 0.51469 0.71757 0.0
C596 C 0.74739 0.48817 0.72173 0.0
C597 C 0.77967 0.47869 0.67551 0.0
C598 C 0.62139 0.55347 0.66034 0.0
C599 C 0.76913 0.47241 0.77543 0.0
H600 H 0.65988 0.6414 0.85247 0.0
H601 H 0.58456 0.48866 0.86752 0.0
H602 H 0.75943 0.60589 0.76247 0.0
H603 H 0.70592 0.62605 0.719 0.0
H604 H 0.71756 0.66231 0.78172 0.0
H605 H 0.64401 0.4153 0.78806 0.0
H606 H 0.57304 0.4345 0.78501 0.0
H607 H 0.6178 0.44258 0.72769 0.0
H608 H 0.69829 0.53365 0.58231 0.0
H609 H 0.81952 0.45996 0.67907 0.0
H610 H 0.61751 0.58955 0.68685 0.0
H611 H 0.58909 0.5253 0.67324 0.0
H612 H 0.61326 0.56404 0.61826 0.0
H613 H 0.80912 0.45131 0.77169 0.0
H614 H 0.73889 0.44629 0.7951 0.0
H615 H 0.77469 0.5082 0.80223 0.0
C616 C 0.11105 0.44229 0.6689 0.0
C617 C 0.06386 0.41456 0.68445 0.0
C618 C 0.15469 0.45115 0.70496 0.0
C619 C 0.15145 0.43014 0.75688 0.0
C620 C 0.10422 0.40151 0.7723 0.0
C621 C 0.06024 0.39605 0.73678 0.0
C622 C 0.20366 0.48367 0.68796 0.0
C623 C 0.09993 0.37674 0.82646 0.0
C624 C 0.28187 0.41956 0.83861 0.0
C625 C 0.2757 0.46245 0.87558 0.0
C626 C 0.2414 0.40799 0.79995 0.0
C627 C 0.19509 0.44156 0.79698 0.0
C628 C 0.18887 0.48501 0.83416 0.0
C629 C 0.2288 0.49433 0.87364 0.0
C630 C 0.24812 0.3599 0.76252 0.0
C631 C 0.14008 0.52179 0.83244 0.0
H632 H 0.11371 0.45723 0.62874 0.0
H633 H 0.0227 0.37782 0.7508 0.0
H634 H 0.21053 0.51705 0.71752 0.0
H635 H 0.2413 0.45894 0.68721 0.0
H636 H 0.19821 0.49995 0.64755 0.0
H637 H 0.06221 0.35202 0.83037 0.0
H638 H 0.13636 0.35145 0.83264 0.0
H639 H 0.09959 0.40797 0.85902 0.0
H640 H 0.31805 0.39481 0.84018 0.0
H641 H 0.22429 0.52793 0.9018 0.0
H642 H 0.25446 0.37253 0.72075 0.0
H643 H 0.21021 0.33515 0.7629 0.0
H644 H 0.28366 0.33512 0.7736 0.0
H645 H 0.14692 0.55893 0.85687 0.0
H646 H 0.10299 0.50178 0.84842 0.0
H647 H 0.1312 0.53205 0.79053 0.0
C648 C 0.20369 0.55316 0.41495 0.0
C649 C 0.14653 0.54509 0.41322 0.0
C650 C 0.23754 0.53786 0.37104 0.0
C651 C 0.21379 0.51246 0.32495 0.0
C652 C 0.15688 0.49969 0.32536 0.0
C653 C 0.12387 0.51681 0.3692 0.0
C654 C 0.29789 0.55253 0.37234 0.0
C655 C 0.12981 0.47167 0.27781 0.0
C656 C 0.27375 0.54672 0.1893 0.0
C657 C 0.30692 0.50281 0.17609 0.0
C658 C 0.24378 0.55006 0.23764 0.0
C659 C 0.24592 0.50806 0.27358 0.0
C660 C 0.27876 0.46315 0.26034 0.0
C661 C 0.30947 0.46131 0.21196 0.0
C662 C 0.20996 0.59892 0.25045 0.0
C663 C 0.28064 0.41684 0.29676 0.0
H664 H 0.22164 0.57366 0.44968 0.0
H665 H 0.07982 0.51068 0.36744 0.0
H666 H 0.32349 0.51686 0.3641 0.0
H667 H 0.30719 0.58068 0.34035 0.0
H668 H 0.3102 0.57111 0.41166 0.0
H669 H 0.08946 0.45407 0.28901 0.0
H670 H 0.12254 0.50048 0.24617 0.0
H671 H 0.15668 0.43992 0.26032 0.0
H672 H 0.27166 0.57903 0.16202 0.0
H673 H 0.33463 0.42697 0.20176 0.0
H674 H 0.21927 0.61426 0.29167 0.0
H675 H 0.16546 0.58872 0.24932 0.0
H676 H 0.21793 0.63081 0.22187 0.0
H677 H 0.29558 0.43009 0.33706 0.0
H678 H 0.30783 0.38464 0.28058 0.0
H679 H 0.2385 0.40056 0.30235 0.0
C680 C 0.63906 0.48006 0.14194 0.0
C681 C 0.62875 0.4293 0.11987 0.0
C682 C 0.68262 0.48874 0.1779 0.0
C683 C 0.71574 0.44538 0.19186 0.0
C684 C 0.70911 0.39555 0.16475 0.0
C685 C 0.66615 0.38847 0.12812 0.0
C686 C 0.68932 0.54289 0.20496 0.0
C687 C 0.74319 0.34824 0.17873 0.0
C688 C 0.83953 0.46933 0.28136 0.0
C689 C 0.816 0.46376 0.33254 0.0
C690 C 0.80754 0.46334 0.23492 0.0
C691 C 0.75119 0.44999 0.23993 0.0
C692 C 0.72792 0.44156 0.29134 0.0
C693 C 0.7605 0.44934 0.33718 0.0
C694 C 0.83336 0.47366 0.1809 0.0
C695 C 0.66839 0.42509 0.29796 0.0
H696 H 0.61032 0.51175 0.13507 0.0
H697 H 0.65857 0.34951 0.10991 0.0
H698 H 0.67031 0.54285 0.24567 0.0
H699 H 0.73353 0.55328 0.20972 0.0
H700 H 0.66893 0.57403 0.18201 0.0
H701 H 0.73584 0.31357 0.1508 0.0
H702 H 0.78771 0.35822 0.17801 0.0
H703 H 0.73264 0.3366 0.22011 0.0
H704 H 0.88238 0.48091 0.27765 0.0
H705 H 0.74244 0.44469 0.37672 0.0
H706 H 0.81441 0.50931 0.16426 0.0
H707 H 0.82537 0.44004 0.15197 0.0
H708 H 0.87858 0.48017 0.18357 0.0
H709 H 0.6409 0.45599 0.28275 0.0
H710 H 0.65722 0.41844 0.34054 0.0
H711 H 0.66033 0.388 0.27388 0.0
C712 C 0.3019 0.86421 0.41786 0.0
C713 C 0.35685 0.8476 0.42032 0.0
C714 C 0.25932 0.82749 0.41117 0.0
C715 C 0.27246 0.77313 0.40752 0.0
C716 C 0.3279 0.7567 0.40206 0.0
C717 C 0.36982 0.7944 0.40886 0.0
C718 C 0.2005 0.84653 0.41579 0.0
C719 C 0.34288 0.69882 0.39633 0.0
C720 C 0.18574 0.68663 0.49437 0.0
C721 C 0.15263 0.6606 0.45623 0.0
C722 C 0.22474 0.72382 0.4788 0.0
C723 C 0.23062 0.73452 0.42357 0.0
C724 C 0.19724 0.7083 0.3848 0.0
C725 C 0.15869 0.67098 0.40163 0.0
C726 C 0.25984 0.75133 0.52146 0.0
C727 C 0.20241 0.7197 0.32598 0.0
H728 H 0.29169 0.90555 0.42567 0.0
H729 H 0.41212 0.78121 0.41075 0.0
H730 H 0.17438 0.82613 0.38511 0.0
H731 H 0.18353 0.83718 0.45588 0.0
H732 H 0.1974 0.88994 0.41101 0.0
H733 H 0.38731 0.69303 0.38694 0.0
H734 H 0.3333 0.67914 0.4344 0.0
H735 H 0.31815 0.67885 0.36417 0.0
H736 H 0.18149 0.67705 0.53626 0.0
H737 H 0.1333 0.64981 0.37231 0.0
H738 H 0.25486 0.79488 0.52012 0.0
H739 H 0.30399 0.74237 0.51375 0.0
H740 H 0.24901 0.73901 0.56259 0.0
H741 H 0.19695 0.76254 0.31979 0.0
H742 H 0.17156 0.69731 0.30157 0.0
H743 H 0.24425 0.70917 0.311 0.0
C744 C 0.18816 0.40599 0.45953 0.0
C745 C 0.14021 0.37502 0.46064 0.0
C746 C 0.23962 0.38443 0.47203 0.0
C747 C 0.24272 0.3307 0.48591 0.0
C748 C 0.19352 0.30063 0.49077 0.0
C749 C 0.14289 0.32332 0.47827 0.0
C750 C 0.29079 0.41818 0.46763 0.0
C751 C 0.19454 0.24331 0.50586 0.0
C752 C 0.35753 0.23692 0.44715 0.0
C753 C 0.37753 0.22438 0.4976 0.0
C754 C 0.31767 0.27628 0.44203 0.0
C755 C 0.2968 0.30325 0.48883 0.0
C756 C 0.32157 0.29501 0.53919 0.0
C757 C 0.36181 0.25537 0.54302 0.0
C758 C 0.29315 0.28398 0.38732 0.0
C759 C 0.30138 0.32359 0.58992 0.0
H760 H 0.18586 0.44608 0.44615 0.0
H761 H 0.10548 0.29999 0.48071 0.0
H762 H 0.31562 0.41604 0.50468 0.0
H763 H 0.31684 0.40291 0.43367 0.0
H764 H 0.28094 0.4603 0.46099 0.0
H765 H 0.15247 0.2267 0.51131 0.0
H766 H 0.21602 0.21927 0.47388 0.0
H767 H 0.21766 0.23913 0.54367 0.0
H768 H 0.36912 0.2124 0.41223 0.0
H769 H 0.37661 0.24508 0.58222 0.0
H770 H 0.28682 0.3266 0.38049 0.0
H771 H 0.25227 0.26415 0.38507 0.0
H772 H 0.31967 0.26695 0.35444 0.0
H773 H 0.29055 0.36523 0.58237 0.0
H774 H 0.33276 0.32324 0.62215 0.0
H775 H 0.2637 0.30361 0.60472 0.0
C776 C 0.83655 0.72453 0.44919 0.0
C777 C 0.85255 0.70264 0.49726 0.0
C778 C 0.79475 0.76268 0.44852 0.0
C779 C 0.76729 0.77836 0.49727 0.0
C780 C 0.78637 0.75893 0.5465 0.0
C781 C 0.82934 0.72181 0.54583 0.0
C782 C 0.77964 0.78423 0.39488 0.0
C783 C 0.76069 0.77447 0.60023 0.0
C784 C 0.67047 0.89295 0.47507 0.0
C785 C 0.61977 0.86652 0.47035 0.0
C786 C 0.71857 0.86565 0.48783 0.0
C787 C 0.71584 0.81045 0.49543 0.0
C788 C 0.66364 0.78468 0.4953 0.0
C789 C 0.61604 0.81333 0.48344 0.0
C790 C 0.77243 0.89569 0.48967 0.0
C791 C 0.65834 0.72617 0.50447 0.0
H792 H 0.85486 0.70972 0.41165 0.0
H793 H 0.8414 0.70443 0.58309 0.0
H794 H 0.73644 0.79775 0.39351 0.0
H795 H 0.80681 0.81853 0.38691 0.0
H796 H 0.78642 0.7542 0.36169 0.0
H797 H 0.74985 0.73832 0.62204 0.0
H798 H 0.79167 0.79648 0.62501 0.0
H799 H 0.7233 0.79915 0.59743 0.0
H800 H 0.67325 0.93449 0.46622 0.0
H801 H 0.57646 0.79332 0.48069 0.0
H802 H 0.79043 0.896 0.44857 0.0
H803 H 0.80257 0.8774 0.51652 0.0
H804 H 0.76593 0.93755 0.50358 0.0
H805 H 0.68635 0.70333 0.47684 0.0
H806 H 0.61558 0.71136 0.49834 0.0
H807 H 0.67057 0.71824 0.54621 0.0
C808 C 0.74359 0.10304 0.47733 0.0
C809 C 0.69766 0.13333 0.49391 0.0
C810 C 0.79386 0.12741 0.46476 0.0
C811 C 0.79935 0.18275 0.4734 0.0
C812 C 0.75449 0.21274 0.49499 0.0
C813 C 0.70366 0.18797 0.50276 0.0
C814 C 0.84021 0.09425 0.44101 0.0
C815 C 0.7593 0.27152 0.50829 0.0
C816 C 0.92897 0.26001 0.49583 0.0
C817 C 0.91978 0.29938 0.45899 0.0
C818 C 0.89323 0.21659 0.49815 0.0
C819 C 0.8509 0.21084 0.45961 0.0
C820 C 0.85055 0.24403 0.41513 0.0
C821 C 0.88335 0.28973 0.41658 0.0
C822 C 0.89799 0.18092 0.54508 0.0
C823 C 0.81106 0.23447 0.36939 0.0
H824 H 0.73904 0.06056 0.47106 0.0
H825 H 0.66824 0.21192 0.51366 0.0
H826 H 0.85892 0.11361 0.40593 0.0
H827 H 0.87282 0.0903 0.47148 0.0
H828 H 0.82605 0.05389 0.42802 0.0
H829 H 0.72471 0.28618 0.53426 0.0
H830 H 0.79858 0.28087 0.5292 0.0
H831 H 0.75883 0.2936 0.47067 0.0
H832 H 0.95898 0.2667 0.52746 0.0
H833 H 0.87748 0.31943 0.38699 0.0
H834 H 0.92732 0.14864 0.53412 0.0
H835 H 0.85819 0.1627 0.55662 0.0
H836 H 0.91471 0.20306 0.58083 0.0
H837 H 0.81002 0.19161 0.35788 0.0
H838 H 0.82303 0.25711 0.33371 0.0
H839 H 0.76888 0.24652 0.38214 0.0
C840 C 0.53949 0.26802 0.90667 0.0
C841 C 0.55206 0.31252 0.87715 0.0
C842 C 0.53786 0.21734 0.88147 0.0
C843 C 0.54948 0.21174 0.8257 0.0
C844 C 0.56785 0.25617 0.79738 0.0
C845 C 0.56818 0.30624 0.82344 0.0
C846 C 0.52168 0.17053 0.91402 0.0
C847 C 0.58311 0.25155 0.73845 0.0
C848 C 0.56198 0.08684 0.73827 0.0
C849 C 0.5135 0.09003 0.70833 0.0
C850 C 0.57238 0.12296 0.78143 0.0
C851 C 0.53335 0.16297 0.79435 0.0
C852 C 0.48121 0.16141 0.76916 0.0
C853 C 0.47179 0.12463 0.72671 0.0
C854 C 0.62739 0.1212 0.80891 0.0
C855 C 0.43761 0.20263 0.78191 0.0
H856 H 0.52758 0.2734 0.94855 0.0
H857 H 0.57802 0.34094 0.80116 0.0
H858 H 0.55937 0.14824 0.92366 0.0
H859 H 0.5011 0.18306 0.95246 0.0
H860 H 0.49397 0.14296 0.8912 0.0
H861 H 0.60345 0.28807 0.72445 0.0
H862 H 0.61123 0.21756 0.73056 0.0
H863 H 0.5454 0.24421 0.71431 0.0
H864 H 0.59374 0.05922 0.72529 0.0
H865 H 0.43344 0.12644 0.70481 0.0
H866 H 0.62728 0.14269 0.84861 0.0
H867 H 0.65909 0.13941 0.78297 0.0
H868 H 0.63948 0.07949 0.81466 0.0
H869 H 0.43888 0.21704 0.82449 0.0
H870 H 0.39569 0.18688 0.77307 0.0
H871 H 0.44487 0.23711 0.75646 0.0
C872 C 0.56219 0.78202 0.64069 0.0
C873 C 0.51468 0.81323 0.64289 0.0
C874 C 0.56712 0.73843 0.67343 0.0
C875 C 0.52224 0.72464 0.70691 0.0
C876 C 0.47498 0.75727 0.71037 0.0
C877 C 0.47282 0.80224 0.67974 0.0
C878 C 0.61988 0.70721 0.67107 0.0
C879 C 0.42591 0.74413 0.74536 0.0
C880 C 0.4878 0.58521 0.74369 0.0
C881 C 0.49277 0.58951 0.79969 0.0
C882 C 0.50131 0.62801 0.71194 0.0
C883 C 0.52223 0.6752 0.73679 0.0
C884 C 0.53291 0.67754 0.79253 0.0
C885 C 0.51607 0.63541 0.82367 0.0
C886 C 0.48954 0.62406 0.65248 0.0
C887 C 0.55963 0.72551 0.81962 0.0
H888 H 0.59526 0.79163 0.61313 0.0
H889 H 0.43809 0.82866 0.68444 0.0
H890 H 0.62735 0.6871 0.70908 0.0
H891 H 0.61763 0.67689 0.63768 0.0
H892 H 0.65559 0.73341 0.66289 0.0
H893 H 0.39109 0.77188 0.74051 0.0
H894 H 0.41116 0.70331 0.73529 0.0
H895 H 0.43796 0.74569 0.78825 0.0
H896 H 0.47048 0.54951 0.7249 0.0
H897 H 0.52058 0.63888 0.86688 0.0
H898 H 0.52621 0.63647 0.62918 0.0
H899 H 0.45539 0.65126 0.64331 0.0
H900 H 0.47776 0.58324 0.63866 0.0
H901 H 0.59455 0.73973 0.79486 0.0
H902 H 0.57508 0.71684 0.86022 0.0
H903 H 0.52928 0.75811 0.82394 0.0
C904 C 0.51788 0.59468 0.24732 0.0
C905 C 0.52965 0.60353 0.1932 0.0
C906 C 0.53342 0.63233 0.28772 0.0
C907 C 0.55873 0.68044 0.27294 0.0
C908 C 0.57611 0.68629 0.21918 0.0
C909 C 0.56273 0.64695 0.18049 0.0
C910 C 0.51969 0.62196 0.34556 0.0
C911 C 0.60482 0.73593 0.20135 0.0
C912 C 0.50813 0.8058 0.34426 0.0
C913 C 0.55661 0.82783 0.36573 0.0
C914 C 0.50825 0.75754 0.31489 0.0
C915 C 0.55766 0.72807 0.30999 0.0
C916 C 0.60643 0.74857 0.33412 0.0
C917 C 0.60574 0.79921 0.35973 0.0
C918 C 0.456 0.73993 0.28653 0.0
C919 C 0.65986 0.71827 0.33271 0.0
H920 H 0.49414 0.5601 0.25791 0.0
H921 H 0.57534 0.65198 0.13937 0.0
H922 H 0.54914 0.64244 0.37335 0.0
H923 H 0.47765 0.63655 0.35538 0.0
H924 H 0.52028 0.57882 0.3526 0.0
H925 H 0.61152 0.73569 0.15713 0.0
H926 H 0.58027 0.77147 0.21344 0.0
H927 H 0.64551 0.73981 0.22102 0.0
H928 H 0.46985 0.82705 0.34944 0.0
H929 H 0.64374 0.81636 0.37477 0.0
H930 H 0.44164 0.70152 0.30145 0.0
H931 H 0.46415 0.73418 0.24273 0.0
H932 H 0.42207 0.76903 0.29239 0.0
H933 H 0.65576 0.67731 0.31546 0.0
H934 H 0.67595 0.7162 0.37418 0.0
H935 H 0.69101 0.73997 0.30909 0.0
C936 C 0.44901 0.19061 0.32425 0.0
C937 C 0.48563 0.16346 0.35629 0.0
C938 C 0.4676 0.23133 0.2923 0.0
C939 C 0.52418 0.24521 0.29269 0.0
C940 C 0.56046 0.22111 0.32833 0.0
C941 C 0.54084 0.17985 0.35949 0.0
C942 C 0.42728 0.25707 0.25555 0.0
C943 C 0.62042 0.23684 0.33111 0.0
C944 C 0.5613 0.28849 0.15489 0.0
C945 C 0.55524 0.3431 0.16174 0.0
C946 C 0.55781 0.25618 0.19905 0.0
C947 C 0.54565 0.27945 0.2505 0.0
C948 C 0.54416 0.33519 0.25812 0.0
C949 C 0.54952 0.36657 0.21331 0.0
C950 C 0.5615 0.1969 0.1897 0.0
C951 C 0.53127 0.36144 0.31225 0.0
H952 H 0.4062 0.1783 0.32197 0.0
H953 H 0.56882 0.15977 0.38545 0.0
H954 H 0.43049 0.30083 0.25984 0.0
H955 H 0.43726 0.24555 0.21309 0.0
H956 H 0.38398 0.24528 0.26391 0.0
H957 H 0.64248 0.21856 0.29596 0.0
H958 H 0.62562 0.28035 0.32909 0.0
H959 H 0.63989 0.22392 0.36852 0.0
H960 H 0.56498 0.27107 0.11458 0.0
H961 H 0.5445 0.40914 0.21774 0.0
H962 H 0.5872 0.17934 0.22097 0.0
H963 H 0.57927 0.18589 0.14954 0.0
H964 H 0.51967 0.17921 0.19244 0.0
H965 H 0.48652 0.35753 0.32086 0.0
H966 H 0.54195 0.40427 0.31343 0.0
H967 H 0.55366 0.34207 0.34471 0.0
loop_
_geom_bond_atom_site_label_1
_geom_bond_atom_site_label_2
_geom_bond_distance
_geom_bond_site_symmetry_2
_ccdc_geom_bond_type
Zn0 O4 1.993 . S
Zn0 N7 2.004 1_545 S
Zn0 O31 2.064 1_545 S
Zn0 O36 1.963 . S
Zn1 O4 1.970 1_564 S
Zn1 N12 2.004 . S
Zn1 O33 1.963 1_554 S
Zn1 O38 2.064 . S
Zn2 O4 1.971 1_554 S
Zn2 N21 2.004 1_655 S
Zn2 O35 2.064 . S
Zn2 O39 1.963 . S
Zn3 O4 1.913 . S
Zn3 O30 1.941 . S
Zn3 O34 1.941 1_556 S
Zn3 O37 1.941 1_556 S
O4 Zn0 1.993 . S
O4 Zn1 1.970 1_546 S
O4 Zn2 1.971 1_556 S
O4 Zn3 1.913 . S
C5 O6 1.237 1_655 S
C5 O39 1.268 . S
O6 C5 1.237 1_455 S
N7 Zn0 2.004 1_565 S
N7 N8 1.383 1_655 S
N7 C10 1.306 1_655 S
N8 N7 1.383 1_455 S
N8 C11 1.302 . S
N9 C10 1.368 . S
N9 C11 1.379 . S
C10 N7 1.306 1_455 S
C10 N9 1.368 . S
C10 C49 1.481 1_455 S
C11 N8 1.302 . S
C11 N9 1.379 . S
N12 Zn1 2.004 . S
N12 C15 1.306 1_655 S
N12 N16 1.383 1_655 S
C13 N14 1.379 . S
C13 N16 1.302 . S
N14 C13 1.379 . S
N14 C15 1.368 . S
C15 N12 1.306 1_455 S
C15 N14 1.368 . S
C15 C18 1.481 1_455 S
N16 N12 1.383 1_455 S
N16 C13 1.302 . S
H17 C18 0.969 . S
C18 C15 1.481 1_655 S
C18 H17 0.969 . S
C18 H19 0.970 . S
C18 H20 0.971 . S
H19 C18 0.970 . S
H20 C18 0.971 . S
N21 Zn2 2.004 1_455 S
N21 C22 1.306 . S
N21 N24 1.384 1_554 S
C22 N21 1.306 . S
C22 N25 1.368 1_554 S
C22 C26 1.481 . S
C23 N24 1.302 . S
C23 N25 1.379 . S
N24 N21 1.384 1_556 S
N24 C23 1.302 . S
N25 C22 1.368 1_556 S
N25 C23 1.379 . S
C26 C22 1.481 . S
C26 H27 0.971 . S
C26 H28 0.970 . S
C26 H29 0.969 . S
H27 C26 0.971 . S
H28 C26 0.970 . S
H29 C26 0.969 . S
O30 Zn3 1.941 . S
O30 C32 1.277 1_545 S
O31 Zn0 2.064 1_565 S
O31 C32 1.233 . S
C32 O30 1.277 1_565 S
C32 O31 1.233 . S
O33 Zn1 1.963 1_556 S
O33 C40 1.268 . S
O34 Zn3 1.941 1_554 S
O34 C42 1.277 1_554 S
O35 Zn2 2.064 . S
O35 C42 1.231 1_554 S
O36 Zn0 1.963 . S
O36 C43 1.268 . S
O37 Zn3 1.941 1_554 S
O37 C45 1.277 1_545 S
O38 Zn1 2.064 . S
O38 C45 1.233 . S
O39 Zn2 1.963 . S
O39 C5 1.268 . S
C40 O33 1.268 . S
C40 O41 1.237 1_556 S
O41 C40 1.237 1_554 S
C42 O34 1.277 1_556 S
C42 O35 1.231 1_556 S
C43 O36 1.268 . S
C43 O44 1.237 . S
O44 C43 1.237 . S
C45 O37 1.277 1_565 S
C45 O38 1.233 . S
H46 C49 0.970 . S
H47 C49 0.971 . S
H48 C49 0.969 1_455 S
C49 C10 1.481 1_655 S
C49 H46 0.970 . S
C49 H47 0.971 . S
C49 H48 0.969 1_655 S
Zn50 O54 1.978 . S
Zn50 N57 2.004 . S
Zn50 O81 2.064 . S
Zn50 O86 1.963 . S
Zn51 O54 1.978 . S
Zn51 N62 2.004 . S
Zn51 O83 1.963 . S
Zn51 O88 2.064 . S
Zn52 O54 1.978 . S
Zn52 N71 2.004 1_655 S
Zn52 O85 2.064 . S
Zn52 O89 1.963 . S
Zn53 O54 1.913 . S
Zn53 O80 1.941 . S
Zn53 O84 1.941 . S
Zn53 O87 1.941 . S
O54 Zn50 1.978 . S
O54 Zn51 1.978 . S
O54 Zn52 1.978 . S
O54 Zn53 1.913 . S
C55 O56 1.237 1_655 S
C55 O89 1.268 . S
O56 C55 1.237 1_455 S
N57 Zn50 2.004 . S
N57 N58 1.383 1_655 S
N57 C60 1.306 1_655 S
N58 N57 1.383 1_455 S
N58 C61 1.302 . S
N59 C60 1.368 . S
N59 C61 1.379 . S
C60 N57 1.306 1_455 S
C60 N59 1.368 . S
C60 C99 1.481 1_455 S
C61 N58 1.302 . S
C61 N59 1.379 . S
N62 Zn51 2.004 . S
N62 C65 1.306 1_655 S
N62 N66 1.383 1_655 S
C63 N64 1.379 . S
C63 N66 1.302 . S
N64 C63 1.379 . S
N64 C65 1.368 . S
C65 N62 1.306 1_455 S
C65 N64 1.368 . S
C65 C68 1.481 1_455 S
N66 N62 1.383 1_455 S
N66 C63 1.302 . S
H67 C68 0.969 . S
C68 C65 1.481 1_655 S
C68 H67 0.969 . S
C68 H69 0.970 . S
C68 H70 0.971 . S
H69 C68 0.970 . S
H70 C68 0.971 . S
N71 Zn52 2.004 1_455 S
N71 C72 1.306 . S
N71 N74 1.383 . S
C72 N71 1.306 . S
C72 N75 1.368 . S
C72 C76 1.481 . S
C73 N74 1.302 . S
C73 N75 1.379 . S
N74 N71 1.383 . S
N74 C73 1.302 . S
N75 C72 1.368 . S
N75 C73 1.379 . S
C76 C72 1.481 . S
C76 H77 0.971 . S
C76 H78 0.970 . S
C76 H79 0.969 . S
H77 C76 0.971 . S
H78 C76 0.970 . S
H79 C76 0.969 . S
O80 Zn53 1.941 . S
O80 C82 1.277 . S
O81 Zn50 2.064 . S
O81 C82 1.233 . S
C82 O80 1.277 . S
C82 O81 1.233 . S
O83 Zn51 1.963 . S
O83 C90 1.268 . S
O84 Zn53 1.941 . S
O84 C92 1.277 . S
O85 Zn52 2.064 . S
O85 C92 1.233 . S
O86 Zn50 1.963 . S
O86 C93 1.268 . S
O87 Zn53 1.941 . S
O87 C95 1.277 . S
O88 Zn51 2.064 . S
O88 C95 1.233 . S
O89 Zn52 1.963 . S
O89 C55 1.268 . S
C90 O83 1.268 . S
C90 O91 1.237 . S
O91 C90 1.237 . S
C92 O84 1.277 . S
C92 O85 1.233 . S
C93 O86 1.268 . S
C93 O94 1.237 . S
O94 C93 1.237 . S
C95 O87 1.277 . S
C95 O88 1.233 . S
H96 C99 0.970 . S
H97 C99 0.971 . S
H98 C99 0.969 1_455 S
C99 C60 1.481 1_655 S
C99 H96 0.970 . S
C99 H97 0.971 . S
C99 H98 0.969 1_655 S
Zn100 O104 1.978 . S
Zn100 N107 2.004 1_545 S
Zn100 O131 2.064 1_545 S
Zn100 O136 1.963 . S
Zn101 O104 1.978 1_565 S
Zn101 N112 2.004 . S
Zn101 O133 1.963 . S
Zn101 O138 2.064 . S
Zn102 O104 1.978 . S
Zn102 N121 2.004 . S
Zn102 O135 2.064 . S
Zn102 O139 1.963 . S
Zn103 O104 1.913 . S
Zn103 O130 1.941 . S
Zn103 O134 1.941 . S
Zn103 O137 1.941 . S
O104 Zn100 1.978 . S
O104 Zn101 1.978 1_545 S
O104 Zn102 1.978 . S
O104 Zn103 1.913 . S
C105 O106 1.237 . S
C105 O139 1.268 . S
O106 C105 1.237 . S
N107 Zn100 2.004 1_565 S
N107 N108 1.383 . S
N107 C110 1.306 . S
N108 N107 1.383 . S
N108 C111 1.302 . S
N109 C110 1.368 . S
N109 C111 1.379 . S
C110 N107 1.306 . S
C110 N109 1.368 . S
C110 C149 1.481 . S
C111 N108 1.302 . S
C111 N109 1.379 . S
N112 Zn101 2.004 . S
N112 C115 1.306 . S
N112 N116 1.383 . S
C113 N114 1.379 . S
C113 N116 1.302 . S
N114 C113 1.379 . S
N114 C115 1.368 . S
C115 N112 1.306 . S
C115 N114 1.368 . S
C115 C118 1.481 . S
N116 N112 1.383 . S
N116 C113 1.302 . S
H117 C118 0.969 . S
C118 C115 1.481 . S
C118 H117 0.969 . S
C118 H119 0.970 . S
C118 H120 0.971 . S
H119 C118 0.970 . S
H120 C118 0.971 . S
N121 Zn102 2.004 . S
N121 C122 1.306 . S
N121 N124 1.383 . S
C122 N121 1.306 . S
C122 N125 1.368 . S
C122 C126 1.481 . S
C123 N124 1.302 . S
C123 N125 1.379 . S
N124 N121 1.383 . S
N124 C123 1.302 . S
N125 C122 1.368 . S
N125 C123 1.379 . S
C126 C122 1.481 . S
C126 H127 0.971 . S
C126 H128 0.970 . S
C126 H129 0.969 . S
H127 C126 0.971 . S
H128 C126 0.970 . S
H129 C126 0.969 . S
O130 Zn103 1.941 . S
O130 C132 1.277 1_545 S
O131 Zn100 2.064 1_565 S
O131 C132 1.233 . S
C132 O130 1.277 1_565 S
C132 O131 1.233 . S
O133 Zn101 1.963 . S
O133 C140 1.268 . S
O134 Zn103 1.941 . S
O134 C142 1.277 . S
O135 Zn102 2.064 . S
O135 C142 1.233 . S
O136 Zn100 1.963 . S
O136 C143 1.268 . S
O137 Zn103 1.941 . S
O137 C145 1.277 1_545 S
O138 Zn101 2.064 . S
O138 C145 1.233 . S
O139 Zn102 1.963 . S
O139 C105 1.268 . S
C140 O133 1.268 . S
C140 O141 1.237 . S
O141 C140 1.237 . S
C142 O134 1.277 . S
C142 O135 1.233 . S
C143 O136 1.268 . S
C143 O144 1.237 . S
O144 C143 1.237 . S
C145 O137 1.277 1_565 S
C145 O138 1.233 . S
H146 C149 0.970 . S
H147 C149 0.971 . S
H148 C149 0.969 . S
C149 C110 1.481 . S
C149 H146 0.970 . S
C149 H147 0.971 . S
C149 H148 0.969 . S
Zn150 O154 1.993 . S
Zn150 N157 2.004 . S
Zn150 O181 2.064 . S
Zn150 O186 1.963 . S
Zn151 O154 1.970 1_554 S
Zn151 N162 2.004 . S
Zn151 O183 1.963 1_554 S
Zn151 O188 2.064 . S
Zn152 O154 1.971 1_554 S
Zn152 N171 2.004 . S
Zn152 O185 2.064 . S
Zn152 O189 1.963 . S
Zn153 O154 1.913 . S
Zn153 O180 1.941 . S
Zn153 O184 1.941 1_556 S
Zn153 O187 1.941 1_556 S
O154 Zn150 1.993 . S
O154 Zn151 1.970 1_556 S
O154 Zn152 1.971 1_556 S
O154 Zn153 1.913 . S
C155 O156 1.237 . S
C155 O189 1.268 . S
O156 C155 1.237 . S
N157 Zn150 2.004 . S
N157 N158 1.383 . S
N157 C160 1.306 . S
N158 N157 1.383 . S
N158 C161 1.302 . S
N159 C160 1.368 . S
N159 C161 1.379 . S
C160 N157 1.306 . S
C160 N159 1.368 . S
C160 C199 1.481 . S
C161 N158 1.302 . S
C161 N159 1.379 . S
N162 Zn151 2.004 . S
N162 C165 1.306 . S
N162 N166 1.383 . S
C163 N164 1.379 . S
C163 N166 1.302 . S
N164 C163 1.379 . S
N164 C165 1.368 . S
C165 N162 1.306 . S
C165 N164 1.368 . S
C165 C168 1.481 . S
N166 N162 1.383 . S
N166 C163 1.302 . S
H167 C168 0.969 . S
C168 C165 1.481 . S
C168 H167 0.969 . S
C168 H169 0.970 . S
C168 H170 0.971 . S
H169 C168 0.970 . S
H170 C168 0.971 . S
N171 Zn152 2.004 . S
N171 C172 1.306 . S
N171 N174 1.384 1_554 S
C172 N171 1.306 . S
C172 N175 1.368 1_554 S
C172 C176 1.481 . S
C173 N174 1.302 . S
C173 N175 1.379 . S
N174 N171 1.384 1_556 S
N174 C173 1.302 . S
N175 C172 1.368 1_556 S
N175 C173 1.379 . S
C176 C172 1.481 . S
C176 H177 0.971 . S
C176 H178 0.970 . S
C176 H179 0.969 . S
H177 C176 0.971 . S
H178 C176 0.970 . S
H179 C176 0.969 . S
O180 Zn153 1.941 . S
O180 C182 1.277 . S
O181 Zn150 2.064 . S
O181 C182 1.233 . S
C182 O180 1.277 . S
C182 O181 1.233 . S
O183 Zn151 1.963 1_556 S
O183 C190 1.268 . S
O184 Zn153 1.941 1_554 S
O184 C192 1.277 1_554 S
O185 Zn152 2.064 . S
O185 C192 1.231 1_554 S
O186 Zn150 1.963 . S
O186 C193 1.268 . S
O187 Zn153 1.941 1_554 S
O187 C195 1.277 . S
O188 Zn151 2.064 . S
O188 C195 1.233 . S
O189 Zn152 1.963 . S
O189 C155 1.268 . S
C190 O183 1.268 . S
C190 O191 1.237 1_556 S
O191 C190 1.237 1_554 S
C192 O184 1.277 1_556 S
C192 O185 1.231 1_556 S
C193 O186 1.268 . S
C193 O194 1.237 . S
O194 C193 1.237 . S
C195 O187 1.277 . S
C195 O188 1.233 . S
H196 C199 0.970 . S
H197 C199 0.971 . S
H198 C199 0.969 . S
C199 C160 1.481 . S
C199 H196 0.970 . S
C199 H197 0.971 . S
C199 H198 0.969 . S
C200 C201 1.391 . S
C200 C202 1.394 . S
C200 H216 0.931 . S
C201 C200 1.391 . S
C201 C205 1.376 . S
C202 C200 1.394 . S
C202 C203 1.369 . S
C202 C206 1.531 . S
C203 C202 1.369 . S
C203 C204 1.410 . S
C203 C211 1.503 . S
C204 C203 1.410 . S
C204 C205 1.392 . S
C204 C207 1.511 . S
C205 C201 1.376 . S
C205 C204 1.392 . S
C205 H217 0.929 . S
C206 C202 1.531 . S
C206 H218 0.960 . S
C206 H219 0.962 1_455 S
C206 H220 0.960 . S
C207 C204 1.511 . S
C207 H221 0.961 . S
C207 H222 0.961 . S
C207 H223 0.961 . S
C208 C209 1.370 1_655 S
C208 C210 1.363 . S
C208 H224 0.931 . S
C209 C208 1.370 1_455 S
C209 C213 1.408 . S
C210 C208 1.363 . S
C210 C211 1.370 1_655 S
C210 C214 1.524 . S
C211 C203 1.503 . S
C211 C210 1.370 1_455 S
C211 C212 1.403 . S
C212 C211 1.403 . S
C212 C213 1.404 . S
C212 C215 1.539 . S
C213 C209 1.408 . S
C213 C212 1.404 . S
C213 H225 0.930 . S
C214 C210 1.524 . S
C214 H226 0.956 . S
C214 H227 0.961 . S
C214 H228 0.961 . S
C215 C212 1.539 . S
C215 H229 0.958 . S
C215 H230 0.961 . S
C215 H231 0.960 . S
H216 C200 0.931 . S
H217 C205 0.929 . S
H218 C206 0.960 . S
H219 C206 0.962 1_655 S
H220 C206 0.960 . S
H221 C207 0.961 . S
H222 C207 0.961 . S
H223 C207 0.961 . S
H224 C208 0.931 . S
H225 C213 0.930 . S
H226 C214 0.956 . S
H227 C214 0.961 . S
H228 C214 0.961 . S
H229 C215 0.958 . S
H230 C215 0.961 . S
H231 C215 0.960 . S
C232 C233 1.391 1_565 S
C232 C234 1.394 . S
C232 H248 0.931 . S
C233 C232 1.391 1_545 S
C233 C237 1.376 . S
C234 C232 1.394 . S
C234 C235 1.369 1_565 S
C234 C238 1.531 . S
C235 C234 1.369 1_545 S
C235 C236 1.410 . S
C235 C243 1.503 . S
C236 C235 1.410 . S
C236 C237 1.392 . S
C236 C239 1.511 . S
C237 C233 1.376 . S
C237 C236 1.392 . S
C237 H249 0.929 . S
C238 C234 1.531 . S
C238 H250 0.960 . S
C238 H251 0.962 . S
C238 H252 0.960 . S
C239 C236 1.511 . S
C239 H253 0.961 . S
C239 H254 0.961 . S
C239 H255 0.961 . S
C240 C241 1.370 . S
C240 C242 1.363 . S
C240 H256 0.931 . S
C241 C240 1.370 . S
C241 C245 1.408 1_545 S
C242 C240 1.363 . S
C242 C243 1.370 . S
C242 C246 1.524 . S
C243 C235 1.503 . S
C243 C242 1.370 . S
C243 C244 1.403 1_545 S
C244 C243 1.403 1_565 S
C244 C245 1.404 . S
C244 C247 1.539 . S
C245 C241 1.408 1_565 S
C245 C244 1.404 . S
C245 H257 0.930 . S
C246 C242 1.524 . S
C246 H258 0.956 . S
C246 H259 0.961 . S
C246 H260 0.961 . S
C247 C244 1.539 . S
C247 H261 0.958 . S
C247 H262 0.961 . S
C247 H263 0.960 . S
H248 C232 0.931 . S
H249 C237 0.929 . S
H250 C238 0.960 . S
H251 C238 0.962 . S
H252 C238 0.960 . S
H253 C239 0.961 . S
H254 C239 0.961 . S
H255 C239 0.961 . S
H256 C240 0.931 . S
H257 C245 0.930 . S
H258 C246 0.956 . S
H259 C246 0.961 . S
H260 C246 0.961 . S
H261 C247 0.958 . S
H262 C247 0.961 . S
H263 C247 0.960 . S
C264 C265 1.391 . S
C264 C266 1.394 . S
C264 H280 0.931 . S
C265 C264 1.391 . S
C265 C269 1.376 . S
C266 C264 1.394 . S
C266 C267 1.369 . S
C266 C270 1.531 . S
C267 C266 1.369 . S
C267 C268 1.410 . S
C267 C275 1.503 . S
C268 C267 1.410 . S
C268 C269 1.392 . S
C268 C271 1.511 . S
C269 C265 1.376 . S
C269 C268 1.392 . S
C269 H281 0.929 . S
C270 C266 1.531 . S
C270 H282 0.960 1_455 S
C270 H283 0.962 . S
C270 H284 0.960 1_455 S
C271 C268 1.511 . S
C271 H285 0.961 . S
C271 H286 0.961 . S
C271 H287 0.961 . S
C272 C273 1.370 . S
C272 C274 1.363 . S
C272 H288 0.931 . S
C273 C272 1.370 . S
C273 C277 1.408 1_455 S
C274 C272 1.363 . S
C274 C275 1.370 . S
C274 C278 1.524 . S
C275 C267 1.503 . S
C275 C274 1.370 . S
C275 C276 1.403 1_455 S
C276 C275 1.403 1_655 S
C276 C277 1.404 . S
C276 C279 1.539 . S
C277 C273 1.408 1_655 S
C277 C276 1.404 . S
C277 H289 0.930 . S
C278 C274 1.524 . S
C278 H290 0.956 . S
C278 H291 0.961 . S
C278 H292 0.961 . S
C279 C276 1.539 . S
C279 H293 0.958 . S
C279 H294 0.961 . S
C279 H295 0.960 . S
H280 C264 0.931 . S
H281 C269 0.929 . S
H282 C270 0.960 1_655 S
H283 C270 0.962 . S
H284 C270 0.960 1_655 S
H285 C271 0.961 . S
H286 C271 0.961 . S
H287 C271 0.961 . S
H288 C272 0.931 . S
H289 C277 0.930 . S
H290 C278 0.956 . S
H291 C278 0.961 . S
H292 C278 0.961 . S
H293 C279 0.958 . S
H294 C279 0.961 . S
H295 C279 0.960 . S
C296 C297 1.391 1_545 S
C296 C298 1.394 . S
C296 H312 0.931 . S
C297 C296 1.391 1_565 S
C297 C301 1.376 . S
C298 C296 1.394 . S
C298 C299 1.369 1_545 S
C298 C302 1.531 . S
C299 C298 1.369 1_565 S
C299 C300 1.410 . S
C299 C307 1.503 . S
C300 C299 1.410 . S
C300 C301 1.392 . S
C300 C303 1.511 . S
C301 C297 1.376 . S
C301 C300 1.392 . S
C301 H313 0.929 . S
C302 C298 1.531 . S
C302 H314 0.960 . S
C302 H315 0.962 . S
C302 H316 0.960 . S
C303 C300 1.511 . S
C303 H317 0.961 . S
C303 H318 0.961 . S
C303 H319 0.961 . S
C304 C305 1.370 . S
C304 C306 1.363 . S
C304 H320 0.931 . S
C305 C304 1.370 . S
C305 C309 1.408 1_565 S
C306 C304 1.363 . S
C306 C307 1.370 . S
C306 C310 1.524 . S
C307 C299 1.503 . S
C307 C306 1.370 . S
C307 C308 1.398 1_565 S
C308 C307 1.398 1_545 S
C308 C309 1.405 . S
C308 C311 1.541 . S
C309 C305 1.408 1_545 S
C309 C308 1.405 . S
C309 H321 0.930 . S
C310 C306 1.524 . S
C310 H322 0.956 . S
C310 H323 0.961 . S
C310 H324 0.961 . S
C311 C308 1.541 . S
C311 H325 0.958 . S
C311 H326 0.961 1_545 S
C311 H327 0.960 1_545 S
H312 C296 0.931 . S
H313 C301 0.929 . S
H314 C302 0.960 . S
H315 C302 0.962 . S
H316 C302 0.960 . S
H317 C303 0.961 . S
H318 C303 0.961 . S
H319 C303 0.961 . S
H320 C304 0.931 . S
H321 C309 0.930 . S
H322 C310 0.956 . S
H323 C310 0.961 . S
H324 C310 0.961 . S
H325 C311 0.958 . S
H326 C311 0.961 1_565 S
H327 C311 0.960 1_565 S
C328 C329 1.391 . S
C328 C330 1.394 . S
C328 H344 0.931 . S
C329 C328 1.391 . S
C329 C333 1.376 1_455 S
C330 C328 1.394 . S
C330 C331 1.369 . S
C330 C334 1.531 . S
C331 C330 1.369 . S
C331 C332 1.410 1_455 S
C331 C339 1.503 . S
C332 C331 1.410 1_655 S
C332 C333 1.392 . S
C332 C335 1.511 . S
C333 C329 1.376 1_655 S
C333 C332 1.392 . S
C333 H345 0.929 . S
C334 C330 1.531 . S
C334 H346 0.960 . S
C334 H347 0.962 . S
C334 H348 0.960 . S
C335 C332 1.511 . S
C335 H349 0.961 . S
C335 H350 0.961 . S
C335 H351 0.961 . S
C336 C337 1.370 1_455 S
C336 C338 1.363 . S
C336 H352 0.931 . S
C337 C336 1.370 1_655 S
C337 C341 1.408 . S
C338 C336 1.363 . S
C338 C339 1.370 . S
C338 C342 1.524 . S
C339 C331 1.503 . S
C339 C338 1.370 . S
C339 C340 1.403 1_455 S
C340 C339 1.403 1_655 S
C340 C341 1.404 . S
C340 C343 1.539 . S
C341 C337 1.408 . S
C341 C340 1.404 . S
C341 H353 0.930 . S
C342 C338 1.524 . S
C342 H354 0.956 . S
C342 H355 0.961 . S
C342 H356 0.961 . S
C343 C340 1.539 . S
C343 H357 0.958 . S
C343 H358 0.961 . S
C343 H359 0.960 . S
H344 C328 0.931 . S
H345 C333 0.929 . S
H346 C334 0.960 . S
H347 C334 0.962 . S
H348 C334 0.960 . S
H349 C335 0.961 . S
H350 C335 0.961 . S
H351 C335 0.961 . S
H352 C336 0.931 . S
H353 C341 0.930 . S
H354 C342 0.956 . S
H355 C342 0.961 . S
H356 C342 0.961 . S
H357 C343 0.958 . S
H358 C343 0.961 . S
H359 C343 0.960 . S
C360 C361 1.401 . S
C360 C362 1.391 1_545 S
C360 H376 0.923 1_545 S
C361 C360 1.401 . S
C361 C365 1.376 . S
C362 C360 1.391 1_565 S
C362 C363 1.369 1_565 S
C362 C366 1.531 . S
C363 C362 1.369 1_545 S
C363 C364 1.410 . S
C363 C371 1.503 . S
C364 C363 1.410 . S
C364 C365 1.392 . S
C364 C367 1.511 . S
C365 C361 1.376 . S
C365 C364 1.392 . S
C365 H377 0.929 . S
C366 C362 1.531 . S
C366 H378 0.960 . S
C366 H379 0.962 . S
C366 H380 0.960 . S
C367 C364 1.511 . S
C367 H381 0.961 . S
C367 H382 0.961 . S
C367 H383 0.961 . S
C368 C369 1.370 . S
C368 C370 1.363 . S
C368 H384 0.931 . S
C369 C368 1.370 . S
C369 C373 1.408 1_545 S
C370 C368 1.363 . S
C370 C371 1.370 . S
C370 C374 1.524 . S
C371 C363 1.503 . S
C371 C370 1.370 . S
C371 C372 1.403 1_545 S
C372 C371 1.403 1_565 S
C372 C373 1.404 . S
C372 C375 1.539 . S
C373 C369 1.408 1_565 S
C373 C372 1.404 . S
C373 H385 0.930 . S
C374 C370 1.524 . S
C374 H386 0.956 . S
C374 H387 0.961 . S
C374 H388 0.961 . S
C375 C372 1.539 . S
C375 H389 0.958 . S
C375 H390 0.961 . S
C375 H391 0.960 . S
H376 C360 0.923 1_565 S
H377 C365 0.929 . S
H378 C366 0.960 . S
H379 C366 0.962 . S
H380 C366 0.960 . S
H381 C367 0.961 . S
H382 C367 0.961 . S
H383 C367 0.961 . S
H384 C368 0.931 . S
H385 C373 0.930 . S
H386 C374 0.956 . S
H387 C374 0.961 . S
H388 C374 0.961 . S
H389 C375 0.958 . S
H390 C375 0.961 . S
H391 C375 0.960 . S
C392 C393 1.391 . S
C392 C394 1.394 . S
C392 H408 0.931 . S
C393 C392 1.391 . S
C393 C397 1.376 . S
C394 C392 1.394 . S
C394 C395 1.369 . S
C394 C398 1.531 1_455 S
C395 C394 1.369 . S
C395 C396 1.410 . S
C395 C403 1.503 . S
C396 C395 1.410 . S
C396 C397 1.392 . S
C396 C399 1.511 . S
C397 C393 1.376 . S
C397 C396 1.392 . S
C397 H409 0.929 . S
C398 C394 1.531 1_655 S
C398 H410 0.960 . S
C398 H411 0.962 . S
C398 H412 0.960 . S
C399 C396 1.511 . S
C399 H413 0.961 . S
C399 H414 0.961 . S
C399 H415 0.961 . S
C400 C401 1.370 1_655 S
C400 C402 1.363 1_655 S
C400 H416 0.931 . S
C401 C400 1.370 1_455 S
C401 C405 1.408 . S
C402 C400 1.363 1_455 S
C402 C403 1.370 . S
C402 C406 1.524 1_455 S
C403 C395 1.503 . S
C403 C402 1.370 . S
C403 C404 1.403 . S
C404 C403 1.403 . S
C404 C405 1.404 . S
C404 C407 1.539 . S
C405 C401 1.408 . S
C405 C404 1.404 . S
C405 H417 0.930 . S
C406 C402 1.524 1_655 S
C406 H418 0.956 . S
C406 H419 0.961 1_655 S
C406 H420 0.961 . S
C407 C404 1.539 . S
C407 H421 0.958 . S
C407 H422 0.961 . S
C407 H423 0.960 . S
H408 C392 0.931 . S
H409 C397 0.929 . S
H410 C398 0.960 . S
H411 C398 0.962 . S
H412 C398 0.960 . S
H413 C399 0.961 . S
H414 C399 0.961 . S
H415 C399 0.961 . S
H416 C400 0.931 . S
H417 C405 0.930 . S
H418 C406 0.956 . S
H419 C406 0.961 1_455 S
H420 C406 0.961 . S
H421 C407 0.958 . S
H422 C407 0.961 . S
H423 C407 0.960 . S
C424 C425 1.391 1_545 S
C424 C426 1.394 . S
C424 H440 0.931 . S
C425 C424 1.391 1_565 S
C425 C429 1.376 . S
C426 C424 1.394 . S
C426 C427 1.369 1_545 S
C426 C430 1.531 . S
C427 C426 1.369 1_565 S
C427 C428 1.410 . S
C427 C435 1.503 . S
C428 C427 1.410 . S
C428 C429 1.392 . S
C428 C431 1.511 . S
C429 C425 1.376 . S
C429 C428 1.392 . S
C429 H441 0.929 . S
C430 C426 1.531 . S
C430 H442 0.960 . S
C430 H443 0.962 . S
C430 H444 0.960 . S
C431 C428 1.511 . S
C431 H445 0.961 . S
C431 H446 0.961 . S
C431 H447 0.961 . S
C432 C433 1.370 . S
C432 C434 1.363 . S
C432 H448 0.931 . S
C433 C432 1.370 . S
C433 C437 1.408 1_565 S
C434 C432 1.363 . S
C434 C435 1.370 . S
C434 C438 1.524 . S
C435 C427 1.503 . S
C435 C434 1.370 . S
C435 C436 1.403 1_565 S
C436 C435 1.403 1_545 S
C436 C437 1.404 . S
C436 C439 1.539 . S
C437 C433 1.408 1_545 S
C437 C436 1.404 . S
C437 H449 0.930 . S
C438 C434 1.524 . S
C438 H450 0.956 . S
C438 H451 0.961 . S
C438 H452 0.961 . S
C439 C436 1.539 . S
C439 H453 0.958 . S
C439 H454 0.961 . S
C439 H455 0.960 . S
H440 C424 0.931 . S
H441 C429 0.929 . S
H442 C430 0.960 . S
H443 C430 0.962 . S
H444 C430 0.960 . S
H445 C431 0.961 . S
H446 C431 0.961 . S
H447 C431 0.961 . S
H448 C432 0.931 . S
H449 C437 0.930 . S
H450 C438 0.956 . S
H451 C438 0.961 . S
H452 C438 0.961 . S
H453 C439 0.958 . S
H454 C439 0.961 . S
H455 C439 0.960 . S
C456 C457 1.391 . S
C456 C458 1.394 . S
C456 H472 0.931 . S
C457 C456 1.391 . S
C457 C461 1.376 1_556 S
C458 C456 1.394 . S
C458 C459 1.369 . S
C458 C462 1.531 . S
C459 C458 1.369 . S
C459 C460 1.410 . S
C459 C467 1.503 . S
C460 C459 1.410 . S
C460 C461 1.392 1_556 S
C460 C463 1.511 1_556 S
C461 C457 1.376 1_554 S
C461 C460 1.392 1_554 S
C461 H473 0.929 . S
C462 C458 1.531 . S
C462 H474 0.960 . S
C462 H475 0.962 . S
C462 H476 0.960 . S
C463 C460 1.511 1_554 S
C463 H477 0.961 . S
C463 H478 0.961 . S
C463 H479 0.961 . S
C464 C465 1.370 . S
C464 C466 1.363 . S
C464 H480 0.931 1_556 S
C465 C464 1.370 . S
C465 C469 1.408 . S
C466 C464 1.363 . S
C466 C467 1.370 . S
C466 C470 1.524 1_556 S
C467 C459 1.503 . S
C467 C466 1.370 . S
C467 C468 1.403 . S
C468 C467 1.403 . S
C468 C469 1.404 . S
C468 C471 1.539 . S
C469 C465 1.408 . S
C469 C468 1.404 . S
C469 H481 0.930 . S
C470 C466 1.524 1_554 S
C470 H482 0.956 . S
C470 H483 0.961 . S
C470 H484 0.961 . S
C471 C468 1.539 . S
C471 H485 0.958 . S
C471 H486 0.961 . S
C471 H487 0.960 . S
H472 C456 0.931 . S
H473 C461 0.929 . S
H474 C462 0.960 . S
H475 C462 0.962 . S
H476 C462 0.960 . S
H477 C463 0.961 . S
H478 C463 0.961 . S
H479 C463 0.961 . S
H480 C464 0.931 1_554 S
H481 C469 0.930 . S
H482 C470 0.956 . S
H483 C470 0.961 . S
H484 C470 0.961 . S
H485 C471 0.958 . S
H486 C471 0.961 . S
H487 C471 0.960 . S
C488 C489 1.391 . S
C488 C490 1.394 . S
C488 H504 0.931 . S
C489 C488 1.391 . S
C489 C493 1.376 . S
C490 C488 1.394 . S
C490 C491 1.369 . S
C490 C494 1.531 . S
C491 C490 1.369 . S
C491 C492 1.410 . S
C491 C499 1.503 . S
C492 C491 1.410 . S
C492 C493 1.392 . S
C492 C495 1.507 1_556 S
C493 C489 1.376 . S
C493 C492 1.392 . S
C493 H505 0.929 1_556 S
C494 C490 1.531 . S
C494 H506 0.960 . S
C494 H507 0.962 . S
C494 H508 0.960 . S
C495 C492 1.507 1_554 S
C495 H509 0.973 . S
C495 H510 0.967 . S
C495 H511 0.947 1_554 S
C496 C497 1.370 1_554 S
C496 C498 1.363 . S
C496 H512 0.931 . S
C497 C496 1.370 1_556 S
C497 C501 1.408 . S
C498 C496 1.363 . S
C498 C499 1.370 1_554 S
C498 C502 1.524 . S
C499 C491 1.503 . S
C499 C498 1.370 1_556 S
C499 C500 1.403 . S
C500 C499 1.403 . S
C500 C501 1.404 . S
C500 C503 1.539 . S
C501 C497 1.408 . S
C501 C500 1.404 . S
C501 H513 0.930 . S
C502 C498 1.524 . S
C502 H514 0.956 . S
C502 H515 0.961 . S
C502 H516 0.961 . S
C503 C500 1.539 . S
C503 H517 0.958 . S
C503 H518 0.961 . S
C503 H519 0.960 . S
H504 C488 0.931 . S
H505 C493 0.929 1_554 S
H506 C494 0.960 . S
H507 C494 0.962 . S
H508 C494 0.960 . S
H509 C495 0.973 . S
H510 C495 0.967 . S
H511 C495 0.947 1_556 S
H512 C496 0.931 . S
H513 C501 0.930 . S
H514 C502 0.956 . S
H515 C502 0.961 . S
H516 C502 0.961 . S
H517 C503 0.958 . S
H518 C503 0.961 . S
H519 C503 0.960 . S
C520 C521 1.391 . S
C520 C522 1.394 . S
C520 H536 0.931 . S
C521 C520 1.391 . S
C521 C525 1.376 . S
C522 C520 1.394 . S
C522 C523 1.369 . S
C522 C526 1.531 . S
C523 C522 1.369 . S
C523 C524 1.410 . S
C523 C531 1.503 . S
C524 C523 1.410 . S
C524 C525 1.392 . S
C524 C527 1.511 1_556 S
C525 C521 1.376 . S
C525 C524 1.392 . S
C525 H537 0.929 . S
C526 C522 1.531 . S
C526 H538 0.960 . S
C526 H539 0.962 . S
C526 H540 0.960 . S
C527 C524 1.511 1_554 S
C527 H541 0.961 . S
C527 H542 0.961 1_554 S
C527 H543 0.961 . S
C528 C529 1.370 . S
C528 C530 1.363 . S
C528 H544 0.931 . S
C529 C528 1.370 . S
C529 C533 1.408 1_556 S
C530 C528 1.363 . S
C530 C531 1.370 . S
C530 C534 1.524 . S
C531 C523 1.503 . S
C531 C530 1.370 . S
C531 C532 1.403 1_556 S
C532 C531 1.403 1_554 S
C532 C533 1.404 . S
C532 C535 1.539 . S
C533 C529 1.408 1_554 S
C533 C532 1.404 . S
C533 H545 0.930 . S
C534 C530 1.524 . S
C534 H546 0.956 . S
C534 H547 0.961 . S
C534 H548 0.961 . S
C535 C532 1.539 . S
C535 H549 0.958 . S
C535 H550 0.961 . S
C535 H551 0.960 . S
H536 C520 0.931 . S
H537 C525 0.929 . S
H538 C526 0.960 . S
H539 C526 0.962 . S
H540 C526 0.960 . S
H541 C527 0.961 . S
H542 C527 0.961 1_556 S
H543 C527 0.961 . S
H544 C528 0.931 . S
H545 C533 0.930 . S
H546 C534 0.956 . S
H547 C534 0.961 . S
H548 C534 0.961 . S
H549 C535 0.958 . S
H550 C535 0.961 . S
H551 C535 0.960 . S
C552 C553 1.391 1_554 S
C552 C554 1.394 . S
C552 H568 0.931 . S
C553 C552 1.391 1_556 S
C553 C557 1.376 . S
C554 C552 1.394 . S
C554 C555 1.369 1_554 S
C554 C558 1.531 . S
C555 C554 1.369 1_556 S
C555 C556 1.410 . S
C555 C563 1.503 . S
C556 C555 1.410 . S
C556 C557 1.392 . S
C556 C559 1.511 . S
C557 C553 1.376 . S
C557 C556 1.392 . S
C557 H569 0.929 . S
C558 C554 1.531 . S
C558 H570 0.960 . S
C558 H571 0.962 . S
C558 H572 0.960 . S
C559 C556 1.511 . S
C559 H573 0.961 . S
C559 H574 0.961 . S
C559 H575 0.961 . S
C560 C561 1.370 . S
C560 C562 1.363 . S
C560 H576 0.931 . S
C561 C560 1.370 . S
C561 C565 1.408 1_556 S
C562 C560 1.363 . S
C562 C563 1.370 . S
C562 C566 1.524 . S
C563 C555 1.503 . S
C563 C562 1.370 . S
C563 C564 1.403 1_556 S
C564 C563 1.403 1_554 S
C564 C565 1.404 . S
C564 C567 1.539 . S
C565 C561 1.408 1_554 S
C565 C564 1.404 . S
C565 H577 0.930 . S
C566 C562 1.524 . S
C566 H578 0.956 . S
C566 H579 0.961 . S
C566 H580 0.961 . S
C567 C564 1.539 . S
C567 H581 0.958 . S
C567 H582 0.961 . S
C567 H583 0.960 . S
H568 C552 0.931 . S
H569 C557 0.929 . S
H570 C558 0.960 . S
H571 C558 0.962 . S
H572 C558 0.960 . S
H573 C559 0.961 . S
H574 C559 0.961 . S
H575 C559 0.961 . S
H576 C560 0.931 . S
H577 C565 0.930 . S
H578 C566 0.956 . S
H579 C566 0.961 . S
H580 C566 0.961 . S
H581 C567 0.958 . S
H582 C567 0.961 . S
H583 C567 0.960 . S
C584 C585 1.391 . S
C584 C586 1.394 . S
C584 H600 0.931 . S
C585 C584 1.391 . S
C585 C589 1.376 . S
C586 C584 1.394 . S
C586 C587 1.369 . S
C586 C590 1.531 . S
C587 C586 1.369 . S
C587 C588 1.410 . S
C587 C595 1.503 . S
C588 C587 1.410 . S
C588 C589 1.392 . S
C588 C591 1.511 . S
C589 C585 1.376 . S
C589 C588 1.392 . S
C589 H601 0.929 . S
C590 C586 1.531 . S
C590 H602 0.960 . S
C590 H603 0.962 . S
C590 H604 0.960 . S
C591 C588 1.511 . S
C591 H605 0.961 . S
C591 H606 0.961 . S
C591 H607 0.961 . S
C592 C593 1.370 . S
C592 C594 1.363 . S
C592 H608 0.931 . S
C593 C592 1.370 . S
C593 C597 1.408 . S
C594 C592 1.363 . S
C594 C595 1.370 . S
C594 C598 1.524 . S
C595 C587 1.503 . S
C595 C594 1.370 . S
C595 C596 1.403 . S
C596 C595 1.403 . S
C596 C597 1.404 . S
C596 C599 1.539 . S
C597 C593 1.408 . S
C597 C596 1.404 . S
C597 H609 0.930 . S
C598 C594 1.524 . S
C598 H610 0.956 . S
C598 H611 0.961 . S
C598 H612 0.961 . S
C599 C596 1.539 . S
C599 H613 0.958 . S
C599 H614 0.961 . S
C599 H615 0.960 . S
H600 C584 0.931 . S
H601 C589 0.929 . S
H602 C590 0.960 . S
H603 C590 0.962 . S
H604 C590 0.960 . S
H605 C591 0.961 . S
H606 C591 0.961 . S
H607 C591 0.961 . S
H608 C592 0.931 . S
H609 C597 0.930 . S
H610 C598 0.956 . S
H611 C598 0.961 . S
H612 C598 0.961 . S
H613 C599 0.958 . S
H614 C599 0.961 . S
H615 C599 0.960 . S
C616 C617 1.391 . S
C616 C618 1.394 . S
C616 H632 0.931 . S
C617 C616 1.391 . S
C617 C621 1.376 . S
C618 C616 1.394 . S
C618 C619 1.369 . S
C618 C622 1.531 . S
C619 C618 1.369 . S
C619 C620 1.410 . S
C619 C627 1.503 . S
C620 C619 1.410 . S
C620 C621 1.392 . S
C620 C623 1.511 . S
C621 C617 1.376 . S
C621 C620 1.392 . S
C621 H633 0.929 . S
C622 C618 1.531 . S
C622 H634 0.960 . S
C622 H635 0.962 . S
C622 H636 0.960 . S
C623 C620 1.511 . S
C623 H637 0.961 . S
C623 H638 0.961 . S
C623 H639 0.961 . S
C624 C625 1.370 . S
C624 C626 1.363 . S
C624 H640 0.931 . S
C625 C624 1.370 . S
C625 C629 1.408 . S
C626 C624 1.363 . S
C626 C627 1.370 . S
C626 C630 1.524 . S
C627 C619 1.503 . S
C627 C626 1.370 . S
C627 C628 1.403 . S
C628 C627 1.403 . S
C628 C629 1.404 . S
C628 C631 1.539 . S
C629 C625 1.408 . S
C629 C628 1.404 . S
C629 H641 0.930 . S
C630 C626 1.524 . S
C630 H642 0.956 . S
C630 H643 0.961 . S
C630 H644 0.961 . S
C631 C628 1.539 . S
C631 H645 0.958 . S
C631 H646 0.961 . S
C631 H647 0.960 . S
H632 C616 0.931 . S
H633 C621 0.929 . S
H634 C622 0.960 . S
H635 C622 0.962 . S
H636 C622 0.960 . S
H637 C623 0.961 . S
H638 C623 0.961 . S
H639 C623 0.961 . S
H640 C624 0.931 . S
H641 C629 0.930 . S
H642 C630 0.956 . S
H643 C630 0.961 . S
H644 C630 0.961 . S
H645 C631 0.958 . S
H646 C631 0.961 . S
H647 C631 0.960 . S
C648 C649 1.391 . S
C648 C650 1.394 . S
C648 H664 0.931 . S
C649 C648 1.391 . S
C649 C653 1.376 . S
C650 C648 1.394 . S
C650 C651 1.369 . S
C650 C654 1.531 . S
C651 C650 1.369 . S
C651 C652 1.410 . S
C651 C659 1.503 . S
C652 C651 1.410 . S
C652 C653 1.392 . S
C652 C655 1.511 . S
C653 C649 1.376 . S
C653 C652 1.392 . S
C653 H665 0.929 . S
C654 C650 1.531 . S
C654 H666 0.960 . S
C654 H667 0.962 . S
C654 H668 0.960 . S
C655 C652 1.511 . S
C655 H669 0.961 . S
C655 H670 0.961 . S
C655 H671 0.961 . S
C656 C657 1.370 . S
C656 C658 1.363 . S
C656 H672 0.931 . S
C657 C656 1.370 . S
C657 C661 1.408 . S
C658 C656 1.363 . S
C658 C659 1.370 . S
C658 C662 1.524 . S
C659 C651 1.503 . S
C659 C658 1.370 . S
C659 C660 1.403 . S
C660 C659 1.403 . S
C660 C661 1.404 . S
C660 C663 1.539 . S
C661 C657 1.408 . S
C661 C660 1.404 . S
C661 H673 0.930 . S
C662 C658 1.524 . S
C662 H674 0.956 . S
C662 H675 0.961 . S
C662 H676 0.961 . S
C663 C660 1.539 . S
C663 H677 0.958 . S
C663 H678 0.961 . S
C663 H679 0.960 . S
H664 C648 0.931 . S
H665 C653 0.929 . S
H666 C654 0.960 . S
H667 C654 0.962 . S
H668 C654 0.960 . S
H669 C655 0.961 . S
H670 C655 0.961 . S
H671 C655 0.961 . S
H672 C656 0.931 . S
H673 C661 0.930 . S
H674 C662 0.956 . S
H675 C662 0.961 . S
H676 C662 0.961 . S
H677 C663 0.958 . S
H678 C663 0.961 . S
H679 C663 0.960 . S
C680 C681 1.391 . S
C680 C682 1.394 . S
C680 H696 0.931 . S
C681 C680 1.391 . S
C681 C685 1.376 . S
C682 C680 1.394 . S
C682 C683 1.369 . S
C682 C686 1.531 . S
C683 C682 1.369 . S
C683 C684 1.410 . S
C683 C691 1.503 . S
C684 C683 1.410 . S
C684 C685 1.392 . S
C684 C687 1.511 . S
C685 C681 1.376 . S
C685 C684 1.392 . S
C685 H697 0.929 . S
C686 C682 1.531 . S
C686 H698 0.960 . S
C686 H699 0.962 . S
C686 H700 0.960 . S
C687 C684 1.511 . S
C687 H701 0.961 . S
C687 H702 0.961 . S
C687 H703 0.961 . S
C688 C689 1.370 . S
C688 C690 1.363 . S
C688 H704 0.931 . S
C689 C688 1.370 . S
C689 C693 1.408 . S
C690 C688 1.363 . S
C690 C691 1.370 . S
C690 C694 1.524 . S
C691 C683 1.503 . S
C691 C690 1.370 . S
C691 C692 1.403 . S
C692 C691 1.403 . S
C692 C693 1.404 . S
C692 C695 1.539 . S
C693 C689 1.408 . S
C693 C692 1.404 . S
C693 H705 0.930 . S
C694 C690 1.524 . S
C694 H706 0.956 . S
C694 H707 0.961 . S
C694 H708 0.961 . S
C695 C692 1.539 . S
C695 H709 0.958 . S
C695 H710 0.961 . S
C695 H711 0.960 . S
H696 C680 0.931 . S
H697 C685 0.929 . S
H698 C686 0.960 . S
H699 C686 0.962 . S
H700 C686 0.960 . S
H701 C687 0.961 . S
H702 C687 0.961 . S
H703 C687 0.961 . S
H704 C688 0.931 . S
H705 C693 0.930 . S
H706 C694 0.956 . S
H707 C694 0.961 . S
H708 C694 0.961 . S
H709 C695 0.958 . S
H710 C695 0.961 . S
H711 C695 0.960 . S
C712 C713 1.391 . S
C712 C714 1.394 . S
C712 H728 0.931 . S
C713 C712 1.391 . S
C713 C717 1.376 . S
C714 C712 1.394 . S
C714 C715 1.369 . S
C714 C718 1.531 . S
C715 C714 1.369 . S
C715 C716 1.410 . S
C715 C723 1.503 . S
C716 C715 1.410 . S
C716 C717 1.392 . S
C716 C719 1.511 . S
C717 C713 1.376 . S
C717 C716 1.392 . S
C717 H729 0.929 . S
C718 C714 1.531 . S
C718 H730 0.960 . S
C718 H731 0.962 . S
C718 H732 0.960 . S
C719 C716 1.511 . S
C719 H733 0.961 . S
C719 H734 0.961 . S
C719 H735 0.961 . S
C720 C721 1.370 . S
C720 C722 1.363 . S
C720 H736 0.931 . S
C721 C720 1.370 . S
C721 C725 1.408 . S
C722 C720 1.363 . S
C722 C723 1.370 . S
C722 C726 1.524 . S
C723 C715 1.503 . S
C723 C722 1.370 . S
C723 C724 1.403 . S
C724 C723 1.403 . S
C724 C725 1.404 . S
C724 C727 1.539 . S
C725 C721 1.408 . S
C725 C724 1.404 . S
C725 H737 0.930 . S
C726 C722 1.524 . S
C726 H738 0.956 . S
C726 H739 0.961 . S
C726 H740 0.961 . S
C727 C724 1.539 . S
C727 H741 0.958 . S
C727 H742 0.961 . S
C727 H743 0.960 . S
H728 C712 0.931 . S
H729 C717 0.929 . S
H730 C718 0.960 . S
H731 C718 0.962 . S
H732 C718 0.960 . S
H733 C719 0.961 . S
H734 C719 0.961 . S
H735 C719 0.961 . S
H736 C720 0.931 . S
H737 C725 0.930 . S
H738 C726 0.956 . S
H739 C726 0.961 . S
H740 C726 0.961 . S
H741 C727 0.958 . S
H742 C727 0.961 . S
H743 C727 0.960 . S
C744 C745 1.391 . S
C744 C746 1.394 . S
C744 H760 0.931 . S
C745 C744 1.391 . S
C745 C749 1.376 . S
C746 C744 1.394 . S
C746 C747 1.369 . S
C746 C750 1.531 . S
C747 C746 1.369 . S
C747 C748 1.410 . S
C747 C755 1.503 . S
C748 C747 1.410 . S
C748 C749 1.392 . S
C748 C751 1.511 . S
C749 C745 1.376 . S
C749 C748 1.392 . S
C749 H761 0.929 . S
C750 C746 1.531 . S
C750 H762 0.960 . S
C750 H763 0.962 . S
C750 H764 0.960 . S
C751 C748 1.511 . S
C751 H765 0.961 . S
C751 H766 0.961 . S
C751 H767 0.961 . S
C752 C753 1.370 . S
C752 C754 1.363 . S
C752 H768 0.931 . S
C753 C752 1.370 . S
C753 C757 1.408 . S
C754 C752 1.363 . S
C754 C755 1.370 . S
C754 C758 1.524 . S
C755 C747 1.503 . S
C755 C754 1.370 . S
C755 C756 1.403 . S
C756 C755 1.403 . S
C756 C757 1.404 . S
C756 C759 1.539 . S
C757 C753 1.408 . S
C757 C756 1.404 . S
C757 H769 0.930 . S
C758 C754 1.524 . S
C758 H770 0.956 . S
C758 H771 0.961 . S
C758 H772 0.961 . S
C759 C756 1.539 . S
C759 H773 0.958 . S
C759 H774 0.961 . S
C759 H775 0.960 . S
H760 C744 0.931 . S
H761 C749 0.929 . S
H762 C750 0.960 . S
H763 C750 0.962 . S
H764 C750 0.960 . S
H765 C751 0.961 . S
H766 C751 0.961 . S
H767 C751 0.961 . S
H768 C752 0.931 . S
H769 C757 0.930 . S
H770 C758 0.956 . S
H771 C758 0.961 . S
H772 C758 0.961 . S
H773 C759 0.958 . S
H774 C759 0.961 . S
H775 C759 0.960 . S
C776 C777 1.391 . S
C776 C778 1.394 . S
C776 H792 0.931 . S
C777 C776 1.391 . S
C777 C781 1.376 . S
C778 C776 1.394 . S
C778 C779 1.369 . S
C778 C782 1.531 . S
C779 C778 1.369 . S
C779 C780 1.410 . S
C779 C787 1.503 . S
C780 C779 1.410 . S
C780 C781 1.392 . S
C780 C783 1.511 . S
C781 C777 1.376 . S
C781 C780 1.392 . S
C781 H793 0.929 . S
C782 C778 1.531 . S
C782 H794 0.960 . S
C782 H795 0.962 . S
C782 H796 0.960 . S
C783 C780 1.511 . S
C783 H797 0.961 . S
C783 H798 0.961 . S
C783 H799 0.961 . S
C784 C785 1.370 . S
C784 C786 1.363 . S
C784 H800 0.931 . S
C785 C784 1.370 . S
C785 C789 1.408 . S
C786 C784 1.363 . S
C786 C787 1.370 . S
C786 C790 1.524 . S
C787 C779 1.503 . S
C787 C786 1.370 . S
C787 C788 1.403 . S
C788 C787 1.403 . S
C788 C789 1.404 . S
C788 C791 1.539 . S
C789 C785 1.408 . S
C789 C788 1.404 . S
C789 H801 0.930 . S
C790 C786 1.524 . S
C790 H802 0.956 . S
C790 H803 0.961 . S
C790 H804 0.961 . S
C791 C788 1.539 . S
C791 H805 0.958 . S
C791 H806 0.961 . S
C791 H807 0.960 . S
H792 C776 0.931 . S
H793 C781 0.929 . S
H794 C782 0.960 . S
H795 C782 0.962 . S
H796 C782 0.960 . S
H797 C783 0.961 . S
H798 C783 0.961 . S
H799 C783 0.961 . S
H800 C784 0.931 . S
H801 C789 0.930 . S
H802 C790 0.956 . S
H803 C790 0.961 . S
H804 C790 0.961 . S
H805 C791 0.958 . S
H806 C791 0.961 . S
H807 C791 0.960 . S
C808 C809 1.391 . S
C808 C810 1.394 . S
C808 H824 0.931 . S
C809 C808 1.391 . S
C809 C813 1.376 . S
C810 C808 1.394 . S
C810 C811 1.369 . S
C810 C814 1.531 . S
C811 C810 1.369 . S
C811 C812 1.410 . S
C811 C819 1.503 . S
C812 C811 1.410 . S
C812 C813 1.392 . S
C812 C815 1.511 . S
C813 C809 1.376 . S
C813 C812 1.392 . S
C813 H825 0.929 . S
C814 C810 1.531 . S
C814 H826 0.960 . S
C814 H827 0.962 . S
C814 H828 0.960 . S
C815 C812 1.511 . S
C815 H829 0.961 . S
C815 H830 0.961 . S
C815 H831 0.961 . S
C816 C817 1.370 . S
C816 C818 1.363 . S
C816 H832 0.931 . S
C817 C816 1.370 . S
C817 C821 1.408 . S
C818 C816 1.363 . S
C818 C819 1.370 . S
C818 C822 1.524 . S
C819 C811 1.503 . S
C819 C818 1.370 . S
C819 C820 1.403 . S
C820 C819 1.403 . S
C820 C821 1.404 . S
C820 C823 1.539 . S
C821 C817 1.408 . S
C821 C820 1.404 . S
C821 H833 0.930 . S
C822 C818 1.524 . S
C822 H834 0.956 . S
C822 H835 0.961 . S
C822 H836 0.961 . S
C823 C820 1.539 . S
C823 H837 0.958 . S
C823 H838 0.961 . S
C823 H839 0.960 . S
H824 C808 0.931 . S
H825 C813 0.929 . S
H826 C814 0.960 . S
H827 C814 0.962 . S
H828 C814 0.960 . S
H829 C815 0.961 . S
H830 C815 0.961 . S
H831 C815 0.961 . S
H832 C816 0.931 . S
H833 C821 0.930 . S
H834 C822 0.956 . S
H835 C822 0.961 . S
H836 C822 0.961 . S
H837 C823 0.958 . S
H838 C823 0.961 . S
H839 C823 0.960 . S
C840 C841 1.391 . S
C840 C842 1.394 . S
C840 H856 0.931 . S
C841 C840 1.391 . S
C841 C845 1.376 . S
C842 C840 1.394 . S
C842 C843 1.369 . S
C842 C846 1.531 . S
C843 C842 1.369 . S
C843 C844 1.410 . S
C843 C851 1.503 . S
C844 C843 1.410 . S
C844 C845 1.392 . S
C844 C847 1.511 . S
C845 C841 1.376 . S
C845 C844 1.392 . S
C845 H857 0.929 . S
C846 C842 1.531 . S
C846 H858 0.960 . S
C846 H859 0.962 . S
C846 H860 0.960 . S
C847 C844 1.511 . S
C847 H861 0.961 . S
C847 H862 0.961 . S
C847 H863 0.961 . S
C848 C849 1.370 . S
C848 C850 1.363 . S
C848 H864 0.931 . S
C849 C848 1.370 . S
C849 C853 1.408 . S
C850 C848 1.363 . S
C850 C851 1.370 . S
C850 C854 1.524 . S
C851 C843 1.503 . S
C851 C850 1.370 . S
C851 C852 1.403 . S
C852 C851 1.403 . S
C852 C853 1.404 . S
C852 C855 1.539 . S
C853 C849 1.408 . S
C853 C852 1.404 . S
C853 H865 0.930 . S
C854 C850 1.524 . S
C854 H866 0.956 . S
C854 H867 0.961 . S
C854 H868 0.961 . S
C855 C852 1.539 . S
C855 H869 0.958 . S
C855 H870 0.961 . S
C855 H871 0.960 . S
H856 C840 0.931 . S
H857 C845 0.929 . S
H858 C846 0.960 . S
H859 C846 0.962 . S
H860 C846 0.960 . S
H861 C847 0.961 . S
H862 C847 0.961 . S
H863 C847 0.961 . S
H864 C848 0.931 . S
H865 C853 0.930 . S
H866 C854 0.956 . S
H867 C854 0.961 . S
H868 C854 0.961 . S
H869 C855 0.958 . S
H870 C855 0.961 . S
H871 C855 0.960 . S
C872 C873 1.391 . S
C872 C874 1.394 . S
C872 H888 0.931 . S
C873 C872 1.391 . S
C873 C877 1.376 . S
C874 C872 1.394 . S
C874 C875 1.369 . S
C874 C878 1.531 . S
C875 C874 1.369 . S
C875 C876 1.410 . S
C875 C883 1.503 . S
C876 C875 1.410 . S
C876 C877 1.392 . S
C876 C879 1.511 . S
C877 C873 1.376 . S
C877 C876 1.392 . S
C877 H889 0.929 . S
C878 C874 1.531 . S
C878 H890 0.960 . S
C878 H891 0.962 . S
C878 H892 0.960 . S
C879 C876 1.511 . S
C879 H893 0.961 . S
C879 H894 0.961 . S
C879 H895 0.961 . S
C880 C881 1.370 . S
C880 C882 1.363 . S
C880 H896 0.931 . S
C881 C880 1.370 . S
C881 C885 1.408 . S
C882 C880 1.363 . S
C882 C883 1.370 . S
C882 C886 1.524 . S
C883 C875 1.503 . S
C883 C882 1.370 . S
C883 C884 1.403 . S
C884 C883 1.403 . S
C884 C885 1.404 . S
C884 C887 1.539 . S
C885 C881 1.408 . S
C885 C884 1.404 . S
C885 H897 0.930 . S
C886 C882 1.524 . S
C886 H898 0.956 . S
C886 H899 0.961 . S
C886 H900 0.961 . S
C887 C884 1.539 . S
C887 H901 0.958 . S
C887 H902 0.961 . S
C887 H903 0.960 . S
H888 C872 0.931 . S
H889 C877 0.929 . S
H890 C878 0.960 . S
H891 C878 0.962 . S
H892 C878 0.960 . S
H893 C879 0.961 . S
H894 C879 0.961 . S
H895 C879 0.961 . S
H896 C880 0.931 . S
H897 C885 0.930 . S
H898 C886 0.956 . S
H899 C886 0.961 . S
H900 C886 0.961 . S
H901 C887 0.958 . S
H902 C887 0.961 . S
H903 C887 0.960 . S
C904 C905 1.391 . S
C904 C906 1.394 . S
C904 H920 0.931 . S
C905 C904 1.391 . S
C905 C909 1.376 . S
C906 C904 1.394 . S
C906 C907 1.369 . S
C906 C910 1.531 . S
C907 C906 1.369 . S
C907 C908 1.410 . S
C907 C915 1.503 . S
C908 C907 1.410 . S
C908 C909 1.392 . S
C908 C911 1.511 . S
C909 C905 1.376 . S
C909 C908 1.392 . S
C909 H921 0.929 . S
C910 C906 1.531 . S
C910 H922 0.960 . S
C910 H923 0.962 . S
C910 H924 0.960 . S
C911 C908 1.511 . S
C911 H925 0.961 . S
C911 H926 0.961 . S
C911 H927 0.961 . S
C912 C913 1.370 . S
C912 C914 1.363 . S
C912 H928 0.931 . S
C913 C912 1.370 . S
C913 C917 1.408 . S
C914 C912 1.363 . S
C914 C915 1.370 . S
C914 C918 1.524 . S
C915 C907 1.503 . S
C915 C914 1.370 . S
C915 C916 1.403 . S
C916 C915 1.403 . S
C916 C917 1.404 . S
C916 C919 1.539 . S
C917 C913 1.408 . S
C917 C916 1.404 . S
C917 H929 0.930 . S
C918 C914 1.524 . S
C918 H930 0.956 . S
C918 H931 0.961 . S
C918 H932 0.961 . S
C919 C916 1.539 . S
C919 H933 0.958 . S
C919 H934 0.961 . S
C919 H935 0.960 . S
H920 C904 0.931 . S
H921 C909 0.929 . S
H922 C910 0.960 . S
H923 C910 0.962 . S
H924 C910 0.960 . S
H925 C911 0.961 . S
H926 C911 0.961 . S
H927 C911 0.961 . S
H928 C912 0.931 . S
H929 C917 0.930 . S
H930 C918 0.956 . S
H931 C918 0.961 . S
H932 C918 0.961 . S
H933 C919 0.958 . S
H934 C919 0.961 . S
H935 C919 0.960 . S
C936 C937 1.391 . S
C936 C938 1.394 . S
C936 H952 0.931 . S
C937 C936 1.391 . S
C937 C941 1.376 . S
C938 C936 1.394 . S
C938 C939 1.369 . S
C938 C942 1.531 . S
C939 C938 1.369 . S
C939 C940 1.410 . S
C939 C947 1.503 . S
C940 C939 1.410 . S
C940 C941 1.392 . S
C940 C943 1.511 . S
C941 C937 1.376 . S
C941 C940 1.392 . S
C941 H953 0.929 . S
C942 C938 1.531 . S
C942 H954 0.960 . S
C942 H955 0.962 . S
C942 H956 0.960 . S
C943 C940 1.511 . S
C943 H957 0.961 . S
C943 H958 0.961 . S
C943 H959 0.961 . S
C944 C945 1.370 . S
C944 C946 1.363 . S
C944 H960 0.931 . S
C945 C944 1.370 . S
C945 C949 1.408 . S
C946 C944 1.363 . S
C946 C947 1.370 . S
C946 C950 1.524 . S
C947 C939 1.503 . S
C947 C946 1.370 . S
C947 C948 1.403 . S
C948 C947 1.403 . S
C948 C949 1.404 . S
C948 C951 1.539 . S
C949 C945 1.408 . S
C949 C948 1.404 . S
C949 H961 0.930 . S
C950 C946 1.524 . S
C950 H962 0.956 . S
C950 H963 0.961 . S
C950 H964 0.961 . S
C951 C948 1.539 . S
C951 H965 0.958 . S
C951 H966 0.961 . S
C951 H967 0.960 . S
H952 C936 0.931 . S
H953 C941 0.929 . S
H954 C942 0.960 . S
H955 C942 0.962 . S
H956 C942 0.960 . S
H957 C943 0.961 . S
H958 C943 0.961 . S
H959 C943 0.961 . S
H960 C944 0.931 . S
H961 C949 0.930 . S
H962 C950 0.956 . S
H963 C950 0.961 . S
H964 C950 0.961 . S
H965 C951 0.958 . S
H966 C951 0.961 . S
H967 C951 0.960 . S
C201 C5 1.088 1_455 S
C209 N59 1.281 . S
C233 C45 1.670 1_545 S
C241 C123 1.638 . S
C265 N14 1.502 . S
C273 C93 1.681 1_455 S
C297 C132 1.255 . S
C305 C13 1.216 . S
C329 N9 1.253 . S
C337 C55 1.134 . S
C361 C23 1.646 . S
C369 C145 1.676 1_545 S
C393 N64 1.545 . S
C401 C43 1.684 1_455 S
C425 C113 1.199 . S
C433 C32 1.288 . S
C457 C190 0.933 . S
C465 N25 0.910 . S
C489 C192 1.868 . S
C497 C11 1.901 . S
C521 C161 1.928 . S
C529 C42 1.860 . S
C553 C40 0.789 . S
C561 N175 0.887 . S
C585 C173 1.621 . S
C593 C95 1.681 . S
C617 C63 1.203 . S
C625 C182 1.283 . S
C649 C73 1.638 . S
C657 C195 1.672 . S
C681 C163 1.161 . S
C689 C82 1.296 . S
C713 C140 0.926 . S
C721 N75 0.906 . S
C745 C61 1.937 . S
C753 C142 1.848 . S
C777 C92 1.839 . S
C785 C111 1.916 . S
C809 N125 0.914 . S
C817 C90 0.887 . S
C841 N159 1.277 . S
C849 C105 1.076 . S
C873 N114 1.586 . S
C881 C193 1.695 . S
C905 C155 1.156 . S
C913 N109 1.282 . S
C937 C143 1.684 . S
C945 N164 1.545 . S
