# Generated by pormake.
# Topology vbb, (4)-cn, num edge types: 1
# Building blocks:
#     Node 0, Type 0, BuildingBlock: CEKHIL_clean_sbu_0, # of connection points: 4
#     Node 1, Type 0, BuildingBlock: CEKHIL_clean_sbu_0, # of connection points: 4
#     Node 2, Type 0, BuildingBlock: CEKHIL_clean_sbu_0, # of connection points: 4
#     Node 3, Type 0, BuildingBlock: CEKHIL_clean_sbu_0, # of connection points: 4
#     Node 4, Type 0, BuildingBlock: CEKHIL_clean_sbu_0, # of connection points: 4
#     Node 5, Type 0, BuildingBlock: CEKHIL_clean_sbu_0, # of connection points: 4
#     Node 6, Type 0, BuildingBlock: CEKHIL_clean_sbu_0, # of connection points: 4
#     Node 7, Type 0, BuildingBlock: CEKHIL_clean_sbu_0, # of connection points: 4
#     Node 8, Type 0, BuildingBlock: CEKHIL_clean_sbu_0, # of connection points: 4
#     Node 9, Type 0, BuildingBlock: CEKHIL_clean_sbu_0, # of connection points: 4
#     Node 10, Type 0, BuildingBlock: CEKHIL_clean_sbu_0, # of connection points: 4
#     Node 11, Type 0, BuildingBlock: CEKHIL_clean_sbu_0, # of connection points: 4
#     Node 12, Type 0, BuildingBlock: CEKHIL_clean_sbu_0, # of connection points: 4
#     Node 13, Type 0, BuildingBlock: CEKHIL_clean_sbu_0, # of connection points: 4
#     Node 14, Type 0, BuildingBlock: CEKHIL_clean_sbu_0, # of connection points: 4
#     Node 15, Type 0, BuildingBlock: CEKHIL_clean_sbu_0, # of connection points: 4
#     Node 16, Type 0, BuildingBlock: CEKHIL_clean_sbu_0, # of connection points: 4
#     Node 17, Type 0, BuildingBlock: CEKHIL_clean_sbu_0, # of connection points: 4
#     Node 18, Type 0, BuildingBlock: CEKHIL_clean_sbu_0, # of connection points: 4
#     Node 19, Type 0, BuildingBlock: CEKHIL_clean_sbu_0, # of connection points: 4
#     Node 20, Type 0, BuildingBlock: CEKHIL_clean_sbu_0, # of connection points: 4
#     Node 21, Type 0, BuildingBlock: CEKHIL_clean_sbu_0, # of connection points: 4
#     Node 22, Type 0, BuildingBlock: CEKHIL_clean_sbu_0, # of connection points: 4
#     Node 23, Type 0, BuildingBlock: CEKHIL_clean_sbu_0, # of connection points: 4
#     Node 24, Type 0, BuildingBlock: CEKHIL_clean_sbu_0, # of connection points: 4
#     Node 25, Type 0, BuildingBlock: CEKHIL_clean_sbu_0, # of connection points: 4
#     Node 26, Type 0, BuildingBlock: CEKHIL_clean_sbu_0, # of connection points: 4
#     Node 27, Type 0, BuildingBlock: CEKHIL_clean_sbu_0, # of connection points: 4
#     Node 28, Type 0, BuildingBlock: CEKHIL_clean_sbu_0, # of connection points: 4
#     Node 29, Type 0, BuildingBlock: CEKHIL_clean_sbu_0, # of connection points: 4
#     Node 30, Type 0, BuildingBlock: CEKHIL_clean_sbu_0, # of connection points: 4
#     Node 31, Type 0, BuildingBlock: CEKHIL_clean_sbu_0, # of connection points: 4
#     Edge 32, Type (0, 0), None
#     Edge 33, Type (0, 0), None
#     Edge 34, Type (0, 0), None
#     Edge 35, Type (0, 0), None
#     Edge 36, Type (0, 0), None
#     Edge 37, Type (0, 0), None
#     Edge 38, Type (0, 0), None
#     Edge 39, Type (0, 0), None
#     Edge 40, Type (0, 0), None
#     Edge 41, Type (0, 0), None
#     Edge 42, Type (0, 0), None
#     Edge 43, Type (0, 0), None
#     Edge 44, Type (0, 0), None
#     Edge 45, Type (0, 0), None
#     Edge 46, Type (0, 0), None
#     Edge 47, Type (0, 0), None
#     Edge 48, Type (0, 0), None
#     Edge 49, Type (0, 0), None
#     Edge 50, Type (0, 0), None
#     Edge 51, Type (0, 0), None
#     Edge 52, Type (0, 0), None
#     Edge 53, Type (0, 0), None
#     Edge 54, Type (0, 0), None
#     Edge 55, Type (0, 0), None
#     Edge 56, Type (0, 0), None
#     Edge 57, Type (0, 0), None
#     Edge 58, Type (0, 0), None
#     Edge 59, Type (0, 0), None
#     Edge 60, Type (0, 0), None
#     Edge 61, Type (0, 0), None
#     Edge 62, Type (0, 0), None
#     Edge 63, Type (0, 0), None
#     Edge 64, Type (0, 0), None
#     Edge 65, Type (0, 0), None
#     Edge 66, Type (0, 0), None
#     Edge 67, Type (0, 0), None
#     Edge 68, Type (0, 0), None
#     Edge 69, Type (0, 0), None
#     Edge 70, Type (0, 0), None
#     Edge 71, Type (0, 0), None
#     Edge 72, Type (0, 0), None
#     Edge 73, Type (0, 0), None
#     Edge 74, Type (0, 0), None
#     Edge 75, Type (0, 0), None
#     Edge 76, Type (0, 0), None
#     Edge 77, Type (0, 0), None
#     Edge 78, Type (0, 0), None
#     Edge 79, Type (0, 0), None
#     Edge 80, Type (0, 0), None
#     Edge 81, Type (0, 0), None
#     Edge 82, Type (0, 0), None
#     Edge 83, Type (0, 0), None
#     Edge 84, Type (0, 0), None
#     Edge 85, Type (0, 0), None
#     Edge 86, Type (0, 0), None
#     Edge 87, Type (0, 0), None
#     Edge 88, Type (0, 0), None
#     Edge 89, Type (0, 0), None
#     Edge 90, Type (0, 0), None
#     Edge 91, Type (0, 0), None
#     Edge 92, Type (0, 0), None
#     Edge 93, Type (0, 0), None
#     Edge 94, Type (0, 0), None
#     Edge 95, Type (0, 0), None
# Relax obj value: 0.108
# Max RMSD: 0.621
# Mean RMSD: 0.396
data_MOF--net-vbb--node1-CEKHIL_clean_sbu_0--edge1-none
_symmetry_space_group_name_H-M    P1
_symmetry_Int_Tables_number       1
_symmetry_cell_setting            triclinic
loop_
_symmetry_equiv_pos_as_xyz
'x, y, z'
_cell_length_a     25.281017
_cell_length_b     3.8118255
_cell_length_c     48.333438
_cell_angle_alpha  96.553466
_cell_angle_beta   90.371134
_cell_angle_gamma 85.137258
loop_
_atom_site_label
_atom_site_type_symbol
_atom_site_fract_x
_atom_site_fract_y
_atom_site_fract_z
_atom_type_partial_charge
Co0 Co 0.50619 0.77566 0.05505 0.0
O1 O 0.43885 0.63336 0.06307 0.0
O2 O 0.45312 0.14205 0.03495 0.0
C3 C 0.52415 0.27312 0.09777 0.0
O4 O 0.57861 -0.04079 0.05007 0.0
Co5 Co 0.5302 0.46582 0.04291 0.0
O6 O 0.59661 0.48302 0.02249 0.0
C7 C 0.51918 -0.04577 -0.0017 0.0
C8 C 0.42031 0.39577 0.04762 0.0
C9 C 0.6125 0.75537 0.03523 0.0
O10 O 0.48301 -0.08814 0.01637 0.0
O11 O 0.54779 0.2042 0.00468 0.0
O12 O 0.48709 0.11651 0.08662 0.0
O13 O 0.54367 0.49994 0.08459 0.0
Co14 Co 0.77353 -0.11239 0.04031 0.0
O15 O 0.84546 0.05155 0.03056 0.0
O16 O 0.83265 0.55017 0.05601 0.0
C17 C 0.76491 0.53041 0.08833 0.0
O18 O 0.70391 0.67277 0.04624 0.0
Co19 Co 0.75039 0.11681 0.03847 0.0
O20 O 0.68047 0.063 0.01981 0.0
C21 C 0.76543 0.30407 -0.01093 0.0
C22 C 0.86412 0.32827 0.04066 0.0
C23 C 0.66697 0.82636 0.03325 0.0
O24 O 0.7892 0.55028 0.0035 0.0
O25 O 0.73155 0.14644 -0.00018 0.0
O26 O 0.79984 0.64683 0.07345 0.0
O27 O 0.75231 0.22692 0.07883 0.0
Co28 Co 0.50846 0.81428 0.16911 0.0
O29 O 0.44228 0.10423 0.16518 0.0
O30 O 0.4652 0.55176 0.19479 0.0
C31 C 0.52729 0.29921 0.12768 0.0
O32 O 0.57895 0.5236 0.17511 0.0
Co33 Co 0.60818 0.01947 0.16658 0.0
O34 O 0.65062 0.29249 0.1946 0.0
C35 C 0.56231 0.12644 0.21814 0.0
C36 C 0.42905 0.3624 0.18352 0.0
C37 C 0.62797 0.37925 0.17211 0.0
O38 O 0.52412 0.16797 0.20163 0.0
O39 O 0.60665 -0.00876 0.20894 0.0
O40 O 0.48888 0.48432 0.13894 0.0
O41 O 0.54707 0.03634 0.13986 0.0
Co42 Co 0.76895 0.24225 0.1608 0.0
O43 O 0.83802 0.31361 0.18184 0.0
O44 O 0.83231 -0.11485 0.15133 0.0
C45 C 0.76183 0.65849 0.11808 0.0
O46 O 0.69483 0.20436 0.13917 0.0
Co47 Co 0.75143 0.19734 0.16808 0.0
O48 O 0.70082 0.65008 0.16651 0.0
C49 C 0.78248 0.76197 0.21312 0.0
C50 C 0.86235 0.04906 0.16784 0.0
C51 C 0.66811 0.46975 0.15282 0.0
O52 O 0.80523 0.52388 0.19488 0.0
O53 O 0.75119 0.01294 0.20597 0.0
O54 O 0.79634 0.5239 0.13337 0.0
O55 O 0.73649 -0.04473 0.12805 0.0
Co56 Co 0.53782 -0.06959 0.91382 0.0
O57 O 0.60545 0.0737 0.90625 0.0
O58 O 0.59041 0.56555 0.93421 0.0
C59 C 0.52131 0.43159 0.87091 0.0
O60 O 0.46525 0.74453 0.9184 0.0
Co61 Co 0.51349 0.23889 0.92575 0.0
O62 O 0.44725 0.21786 0.94622 0.0
C63 C 0.5239 0.74937 0.97053 0.0
C64 C 0.62358 0.31322 0.92169 0.0
C65 C 0.43132 -0.05376 0.93339 0.0
O66 O 0.56027 0.79209 0.95256 0.0
O67 O 0.4954 0.49904 0.96404 0.0
O68 O 0.55792 0.58911 0.88242 0.0
O69 O 0.50123 0.20498 0.88392 0.0
Co70 Co 0.27026 0.806 0.92969 0.0
O71 O 0.19877 0.6382 0.94005 0.0
O72 O 0.21063 0.14072 0.91436 0.0
C73 C 0.2776 0.16317 0.88146 0.0
O74 O 0.33942 0.02354 0.92316 0.0
Co75 Co 0.29377 0.5763 0.9315 0.0
O76 O 0.36414 0.6355 0.94952 0.0
C77 C 0.27877 0.3939 0.98103 0.0
C78 C 0.17977 0.36112 0.93017 0.0
C79 C 0.37697 -0.12848 0.93582 0.0
O80 O 0.25523 0.14531 0.96667 0.0
O81 O 0.31273 0.55036 0.97019 0.0
O82 O 0.24297 0.04453 0.89644 0.0
O83 O 0.29087 0.46502 0.89112 0.0
Co84 Co 0.53742 -0.10497 0.79939 0.0
O85 O 0.60348 0.604 0.80304 0.0
O86 O 0.58085 0.1562 0.77351 0.0
C87 C 0.51905 0.40798 0.84094 0.0
O88 O 0.46682 0.18713 0.79385 0.0
Co89 Co 0.43722 0.6895 0.80277 0.0
O90 O 0.39443 0.41563 0.77508 0.0
C91 C 0.48157 0.59581 0.75053 0.0
C92 C 0.61691 0.34792 0.78461 0.0
C93 C 0.41761 0.32736 0.79736 0.0
O94 O 0.52056 0.54781 0.76657 0.0
O95 O 0.43727 0.72112 0.76045 0.0
O96 O 0.55752 0.22262 0.8297 0.0
O97 O 0.49929 0.67103 0.82874 0.0
Co98 Co 0.27631 0.44915 0.80875 0.0
O99 O 0.20749 0.36335 0.78713 0.0
O100 O 0.21162 0.7922 0.81774 0.0
C101 C 0.28177 0.03264 0.8516 0.0
O102 O 0.35038 0.49057 0.83048 0.0
Co103 Co 0.29421 0.496 0.80135 0.0
O104 O 0.34551 0.04638 0.80307 0.0
C105 C 0.26963 -0.05564 0.75618 0.0
C106 C 0.18194 0.621 0.80141 0.0
C107 C 0.37785 0.22967 0.81674 0.0
O108 O 0.24309 0.16173 0.77444 0.0
O109 O 0.2975 0.67811 0.7633 0.0
O110 O 0.24818 0.16701 0.83592 0.0
O111 O 0.3075 0.737 0.84177 0.0
Co112 Co 0.50055 0.00722 0.55499 0.0
O113 O 0.42977 0.84316 0.55375 0.0
O114 O 0.45533 0.33754 0.53067 0.0
C115 C 0.49153 0.51393 0.59898 0.0
O116 O 0.57524 0.19368 0.56342 0.0
Co117 Co 0.52324 0.79502 0.54896 0.0
O118 O 0.59656 0.59596 0.53796 0.0
C119 C 0.52653 0.3912 0.4994 0.0
C120 C 0.41701 0.56269 0.54134 0.0
C121 C 0.61035 0.35002 0.55216 0.0
O122 O 0.4943 0.23174 0.51482 0.0
O123 O 0.5503 0.64278 0.51087 0.0
O124 O 0.46386 0.33392 0.58314 0.0
O125 O 0.52065 0.72567 0.58895 0.0
Co126 Co 0.77237 0.0877 0.54848 0.0
O127 O 0.8415 0.28647 0.55644 0.0
O128 O 0.83319 0.71521 0.52905 0.0
C129 C 0.76502 0.76478 0.5921 0.0
O130 O 0.70139 0.35374 0.56892 0.0
Co131 Co 0.75903 0.16912 0.54331 0.0
O132 O 0.68599 0.01572 0.53235 0.0
C133 C 0.76766 0.48378 0.49706 0.0
C134 C 0.86313 0.48581 0.54202 0.0
C135 C 0.66615 0.21609 0.55274 0.0
O136 O 0.79428 0.71809 0.51245 0.0
O137 O 0.73262 0.33476 0.508 0.0
O138 O 0.80048 -0.13388 0.57903 0.0
O139 O 0.74144 0.48649 0.58087 0.0
Co140 Co 0.49921 -0.04633 0.66903 0.0
O141 O 0.4295 0.74758 0.65629 0.0
O142 O 0.42529 0.24006 0.67858 0.0
C143 C 0.49662 0.41329 0.62728 0.0
O144 O 0.56157 0.25703 0.68455 0.0
Co145 Co 0.50552 -0.04189 0.66996 0.0
O146 O 0.58101 0.78544 0.65777 0.0
C147 C 0.48708 0.49631 0.7215 0.0
C148 C 0.39948 -0.0158 0.66958 0.0
C149 C 0.59723 0.04342 0.67283 0.0
O150 O 0.49059 0.76149 0.70704 0.0
O151 O 0.48978 0.16168 0.71225 0.0
O152 O 0.46499 0.56532 0.64591 0.0
O153 O 0.5131 0.11197 0.63177 0.0
Co154 Co 0.75341 0.61869 0.66418 0.0
O155 O 0.80961 0.81386 0.69156 0.0
O156 O 0.82003 0.32793 0.66565 0.0
C157 C 0.75779 -0.04015 0.62088 0.0
O158 O 0.68337 -0.08275 0.65779 0.0
Co159 Co 0.73114 0.47294 0.66638 0.0
O160 O 0.66424 0.39285 0.68529 0.0
C161 C 0.74603 0.29314 0.71692 0.0
C162 C 0.84258 0.55376 0.68131 0.0
C163 C 0.65176 0.097 0.67492 0.0
O164 O 0.77057 0.00818 0.70178 0.0
O165 O 0.71284 0.48993 0.70567 0.0
O166 O 0.78965 -0.13619 0.63853 0.0
O167 O 0.73314 0.2682 0.62745 0.0
Co168 Co 0.5477 0.75653 0.41353 0.0
O169 O 0.61737 -0.06802 0.41511 0.0
O170 O 0.59399 0.44109 0.43848 0.0
C171 C 0.55765 0.23522 0.36942 0.0
O172 O 0.47411 0.56138 0.40491 0.0
Co173 Co 0.52644 -0.04006 0.41968 0.0
O174 O 0.45297 0.15453 0.42999 0.0
C175 C 0.52178 0.37316 0.46901 0.0
C176 C 0.63114 0.21184 0.42734 0.0
C177 C 0.4393 0.39275 0.41507 0.0
O178 O 0.5539 0.53457 0.45373 0.0
O179 O 0.49836 0.12014 0.45752 0.0
O180 O 0.58444 0.42606 0.38515 0.0
O181 O 0.52775 0.0315 0.37969 0.0
Co182 Co 0.27968 0.633 0.42183 0.0
O183 O 0.21032 0.43598 0.41558 0.0
O184 O 0.22104 0.00882 0.44269 0.0
C185 C 0.28244 -0.04661 0.37807 0.0
O186 O 0.34825 0.36074 0.39992 0.0
Co187 Co 0.29244 0.56296 0.42596 0.0
O188 O 0.36497 0.7419 0.43366 0.0
C189 C 0.29001 0.24744 0.47223 0.0
C190 C 0.18968 0.23498 0.43014 0.0
C191 C 0.38388 0.52302 0.41414 0.0
O192 O 0.26216 0.01155 0.4578 0.0
O193 O 0.32379 0.3954 0.4603 0.0
O194 O 0.2482 0.8517 0.39187 0.0
O195 O 0.30758 0.22741 0.38897 0.0
Co196 Co 0.54562 0.78163 0.29958 0.0
O197 O 0.61521 -0.01139 0.31101 0.0
O198 O 0.61898 0.49453 0.28888 0.0
C199 C 0.55099 0.33214 0.34127 0.0
O200 O 0.48396 0.46619 0.28534 0.0
Co201 Co 0.53918 0.7781 0.29853 0.0
O202 O 0.46442 -0.06561 0.31259 0.0
C203 C 0.55541 0.23232 0.24691 0.0
C204 C 0.64461 0.75281 0.29721 0.0
C205 C 0.44846 0.67248 0.29787 0.0
O206 O 0.55224 -0.03208 0.26137 0.0
O207 O 0.55299 0.56771 0.25607 0.0
O208 O 0.58078 0.17558 0.3219 0.0
O209 O 0.53433 0.63294 0.3371 0.0
Co210 Co 0.29292 0.08677 0.30609 0.0
O211 O 0.23917 -0.134 0.27882 0.0
O212 O 0.22501 0.36018 0.30337 0.0
C213 C 0.28808 0.75136 0.34939 0.0
O214 O 0.36271 0.79237 0.31333 0.0
Co215 Co 0.31442 0.23105 0.30394 0.0
O216 O 0.38231 0.3136 0.2862 0.0
C217 C 0.30332 0.4112 0.25336 0.0
C218 C 0.20418 0.11681 0.28838 0.0
C219 C 0.39441 0.61061 0.29645 0.0
O220 O 0.27826 0.69291 0.26849 0.0
O221 O 0.33529 0.20882 0.26486 0.0
O222 O 0.25611 0.8473 0.3319 0.0
O223 O 0.31273 0.44358 0.34268 0.0
Co224 Co 1.00291 -0.09388 0.55792 0.0
O225 O 0.93334 0.75386 0.56188 0.0
O226 O 0.95551 0.26042 0.53531 0.0
C227 C 1.01086 0.4149 0.60164 0.0
O228 O 0.07554 0.10031 0.55634 0.0
Co229 Co 0.02855 0.60722 0.54737 0.0
O230 O 0.09549 0.63603 0.52786 0.0
C231 C 0.02311 0.12065 0.50104 0.0
C232 C 0.91965 0.50354 0.54571 0.0
C233 C 0.11043 -0.09456 0.54151 0.0
O234 O 0.9866 0.05791 0.51844 0.0
O235 O 0.05057 0.37311 0.50869 0.0
O236 O 0.97696 0.24974 0.58828 0.0
O237 O 0.03372 0.63877 0.5896 0.0
Co238 Co 0.2712 0.05093 0.54701 0.0
O239 O 0.34221 0.21776 0.5369 0.0
O240 O 0.33109 0.71619 0.56271 0.0
C241 C 0.26213 0.70041 0.59489 0.0
O242 O 0.20176 0.83355 0.5531 0.0
Co243 Co 0.24758 0.28078 0.54487 0.0
O244 O 0.17812 0.21647 0.52611 0.0
C245 C 0.26499 0.45799 0.49652 0.0
C246 C 0.36156 0.49253 0.54676 0.0
C247 C 0.16469 -0.01559 0.54005 0.0
O248 O 0.28833 0.70532 0.5109 0.0
O249 O 0.22734 0.32868 0.50666 0.0
O250 O 0.29784 0.81831 0.58054 0.0
O251 O 0.24939 0.39748 0.58508 0.0
Co252 Co 0.98277 -0.04876 0.673 0.0
O253 O 0.91902 0.24051 0.66549 0.0
O254 O 0.93333 0.69596 0.69617 0.0
C255 C 1.00833 0.43693 0.63171 0.0
O256 O 0.05155 0.64861 0.68242 0.0
Co257 Co 0.06975 0.13374 0.67687 0.0
O258 O 0.11294 0.36756 0.70468 0.0
C259 C 0.02344 0.21485 0.72659 0.0
C260 C 0.90069 0.49832 0.68262 0.0
C261 C 0.10291 0.56444 0.68547 0.0
O262 O 0.99085 0.29462 0.70785 0.0
O263 O 0.06958 0.11468 0.71884 0.0
O264 O 0.96849 0.6213 0.64155 0.0
O265 O 0.02514 0.1685 0.64395 0.0
Co266 Co 0.25192 0.4466 0.6717 0.0
O267 O 0.31787 0.21269 0.68435 0.0
O268 O 0.31874 0.70899 0.65815 0.0
C269 C 0.25585 0.82157 0.62481 0.0
O270 O 0.17877 0.71024 0.65995 0.0
Co271 Co 0.22763 0.30779 0.67861 0.0
O272 O 0.1809 0.72648 0.70051 0.0
C273 C 0.25881 -0.03539 0.72656 0.0
C274 C 0.34363 -0.04652 0.67249 0.0
C275 C 0.14998 0.76726 0.68128 0.0
O276 O 0.27609 0.71219 0.70877 0.0
O277 O 0.22604 0.20031 0.71907 0.0
O278 O 0.28585 0.64902 0.64078 0.0
O279 O 0.23413 0.12381 0.63547 0.0
Co280 Co 0.0571 0.79795 0.41257 0.0
O281 O 0.12836 -0.10371 0.41 0.0
O282 O 0.09387 0.38111 0.43232 0.0
C283 C 0.04902 0.30867 0.37158 0.0
O284 O 0.97433 0.74464 0.40975 0.0
Co285 Co 1.01183 0.40191 0.43092 0.0
O286 O 0.9471 0.19691 0.43965 0.0
C287 C 0.02543 -0.05925 0.47277 0.0
C288 C 0.13527 0.17772 0.42376 0.0
C289 C 0.93692 -0.06756 0.42363 0.0
O290 O 0.05128 0.04417 0.45307 0.0
O291 O 0.99999 0.67476 0.46783 0.0
O292 O 0.07148 0.57697 0.37649 0.0
O293 O 0.02688 0.18652 0.39178 0.0
Co294 Co 0.78109 0.68034 0.42191 0.0
O295 O 0.71589 0.46278 0.43734 0.0
O296 O 0.71419 -0.02838 0.40968 0.0
C297 C 0.77551 0.04059 0.37392 0.0
O298 O 0.84572 -0.07717 0.41052 0.0
Co299 Co 0.80554 0.46969 0.42417 0.0
O300 O 0.87167 0.62745 0.44274 0.0
C301 C 0.79331 0.27812 0.4726 0.0
C302 C 0.68882 0.23528 0.42459 0.0
C303 C 0.88404 0.81843 0.425 0.0
O304 O 0.76829 0.04187 0.45778 0.0
O305 O 0.82972 0.41644 0.46197 0.0
O306 O 0.74526 -0.10347 0.38964 0.0
O307 O 0.79635 0.31977 0.3842 0.0
Co308 Co 0.06457 0.64521 0.3 0.0
O309 O 0.12796 0.37194 0.30743 0.0
O310 O 0.11329 -0.08077 0.27699 0.0
C311 C 0.04374 0.1833 0.34242 0.0
O312 O 0.99303 -0.09835 0.291 0.0
Co313 Co 0.9562 0.35415 0.30498 0.0
O314 O 0.94797 -0.04412 0.331 0.0
C315 C 1.01101 0.34432 0.25072 0.0
C316 C 0.14594 0.12512 0.2898 0.0
C317 C 0.94857 -0.01593 0.30524 0.0
O318 O 0.05302 0.31995 0.26519 0.0
O319 O 0.96578 0.40218 0.26224 0.0
O320 O 0.07873 -0.04834 0.33344 0.0
O321 O 0.02388 0.3941 0.3254 0.0
Co322 Co 0.78999 0.28553 0.2963 0.0
O323 O 0.72664 0.53506 0.28186 0.0
O324 O 0.72312 0.03437 0.30825 0.0
C325 C 0.7804 -0.08738 0.34417 0.0
O326 O 0.85425 -0.03423 0.30674 0.0
Co327 Co 0.81662 0.47648 0.29175 0.0
O328 O 0.88309 0.21491 0.27475 0.0
C329 C 0.79816 0.7747 0.24243 0.0
C330 C 0.69969 0.79153 0.29331 0.0
C331 C 0.8941 0.00147 0.29205 0.0
O332 O 0.77482 0.01213 0.25944 0.0
O333 O 0.82778 0.53082 0.25124 0.0
O334 O 0.75287 0.0933 0.32754 0.0
O335 O 0.80417 0.61531 0.33382 0.0
Co336 Co 1.00362 0.84323 0.05444 0.0
O337 O 0.93221 0.67694 0.05139 0.0
O338 O 0.95962 0.16573 0.02899 0.0
C339 C 0.99192 0.35582 0.09859 0.0
O340 O 0.08001 -0.00462 0.06383 0.0
Co341 Co 0.02756 0.61597 0.05027 0.0
O342 O 0.09815 0.37973 0.03719 0.0
C343 C 0.02848 0.30359 -7e-05 0.0
C344 C 0.92048 0.39395 0.03848 0.0
C345 C 0.11287 0.10614 0.04814 0.0
O346 O 1.0003 0.10032 0.01441 0.0
O347 O 0.05678 0.51868 0.01273 0.0
O348 O 0.96572 0.17811 0.08177 0.0
O349 O 1.02044 0.57561 0.0897 0.0
Co350 Co 0.27685 0.05823 0.06535 0.0
O351 O 0.34786 0.2069 0.06784 0.0
O352 O 0.32725 0.63596 0.0423 0.0
C353 C 0.26965 0.73517 0.10849 0.0
O354 O 0.19997 -0.12717 0.06582 0.0
Co355 Co 0.25492 0.29013 0.05935 0.0
O356 O 0.19525 0.19641 0.03361 0.0
C357 C 0.2612 0.54299 0.00888 0.0
C358 C 0.36249 0.39729 0.05087 0.0
C359 C 0.1706 0.01423 0.04785 0.0
O360 O 0.29194 0.7392 0.02551 0.0
O361 O 0.23174 0.35867 0.02033 0.0
O362 O 0.30544 0.79907 0.09339 0.0
O363 O 0.24986 0.44122 0.10029 0.0
Co364 Co 1.01619 0.76301 0.16798 0.0
O365 O 0.939 0.66769 0.15754 0.0
O366 O 0.9526 0.14409 0.17958 0.0
C367 C 0.99613 0.2469 0.12649 0.0
O368 O 0.09025 -0.07334 0.18126 0.0
Co369 Co 1.02225 0.76057 0.16786 0.0
O370 O 0.09008 0.45215 0.154 0.0
C371 C 1.01448 0.27183 0.22084 0.0
C372 C 0.91782 -0.05117 0.17017 0.0
C373 C 0.11696 0.65874 0.16899 0.0
O374 O 1.0117 0.54547 0.20622 0.0
O375 O 1.01388 -0.05804 0.21086 0.0
O376 O 0.96937 0.42866 0.14604 0.0
O377 O 0.02514 -0.02247 0.13194 0.0
Co378 Co 0.2779 0.56092 0.18228 0.0
O379 O 0.34653 0.69631 0.20211 0.0
O380 O 0.34128 0.22711 0.17497 0.0
C381 C 0.27255 -0.09147 0.13796 0.0
O382 O 0.20848 0.45728 0.16197 0.0
Co383 Co 0.22177 0.03366 0.18716 0.0
O384 O 0.17977 0.69546 0.20232 0.0
C385 C 0.2818 0.22827 0.22769 0.0
C386 C 0.37183 0.43157 0.18801 0.0
C387 C 0.16894 0.55423 0.17861 0.0
O388 O 0.30707 -0.05565 0.21368 0.0
O389 O 0.23566 0.3261 0.22116 0.0
O390 O 0.30702 0.7665 0.15183 0.0
O391 O 0.24469 0.18265 0.15086 0.0
Co392 Co 0.04026 0.83837 0.91757 0.0
O393 O 0.11171 0.00693 0.92082 0.0
O394 O 0.08456 0.519 0.9432 0.0
C395 C 0.05068 0.32952 0.87396 0.0
O396 O 0.96415 0.68868 0.90758 0.0
Co397 Co 1.01455 0.07256 0.92144 0.0
O398 O 0.94414 0.31523 0.93453 0.0
C399 C 1.01478 0.37917 0.97181 0.0
C400 C 0.12367 0.29074 0.93361 0.0
C401 C 0.93056 0.58902 0.92333 0.0
O402 O 0.04306 0.58289 0.95747 0.0
O403 O 0.986 0.16705 0.95903 0.0
O404 O 0.07756 0.4977 0.89093 0.0
O405 O 0.02428 0.09381 0.88184 0.0
Co406 Co 0.76716 0.65662 0.90462 0.0
O407 O 0.69606 0.5079 0.90184 0.0
O408 O 0.7166 0.07898 0.92745 0.0
C409 C 0.77463 -0.01098 0.86135 0.0
O410 O 0.84465 0.83551 0.90479 0.0
Co411 Co 0.78865 0.42419 0.91084 0.0
O412 O 0.84733 0.51548 0.93724 0.0
C413 C 0.78243 0.16039 0.96115 0.0
C414 C 0.68134 0.31562 0.9187 0.0
C415 C 0.87309 0.69207 0.9231 0.0
O416 O 0.75135 -0.03052 0.94442 0.0
O417 O 0.81162 0.34747 0.94982 0.0
O418 O 0.73926 -0.08074 0.8765 0.0
O419 O 0.79428 0.28155 0.86975 0.0
Co420 Co 0.0285 -0.09082 0.80458 0.0
O421 O 0.10497 -0.0272 0.81593 0.0
O422 O 0.08985 0.52669 0.78952 0.0
C423 C 0.05051 0.42524 0.84616 0.0
O424 O 0.94713 0.8192 0.79309 0.0
Co425 Co 1.01963 -0.1055 0.80294 0.0
O426 O 0.95885 0.28111 0.81775 0.0
C427 C 1.01586 0.33824 0.75541 0.0
C428 C 0.12534 0.70653 0.80087 0.0
C429 C 0.92555 0.09903 0.80513 0.0
O430 O 0.04601 0.19205 0.77242 0.0
O431 O 1.00899 0.66323 0.76045 0.0
O432 O 0.07633 0.21047 0.82836 0.0
O433 O 1.01638 0.65763 0.83837 0.0
Co434 Co 0.76859 0.17428 0.78716 0.0
O435 O 0.70123 0.02026 0.76672 0.0
O436 O 0.70409 0.50008 0.79297 0.0
C437 C 0.77066 0.83079 0.83174 0.0
O438 O 0.83525 0.32795 0.80911 0.0
Co439 Co 0.82874 0.71339 0.78229 0.0
O440 O 0.86673 0.10088 0.76977 0.0
C441 C 0.76741 0.4886 0.74247 0.0
C442 C 0.67454 0.28672 0.78004 0.0
C443 C 0.87694 0.24242 0.79363 0.0
O444 O 0.74093 0.77188 0.75629 0.0
O445 O 0.81439 0.407 0.74873 0.0
O446 O 0.73777 -0.00985 0.81821 0.0
O447 O 0.79965 0.56685 0.81811 0.0
loop_
_geom_bond_atom_site_label_1
_geom_bond_atom_site_label_2
_geom_bond_distance
_geom_bond_site_symmetry_2
_ccdc_geom_bond_type
Co0 O1 2.216 . S
Co0 O2 1.483 1_565 S
Co0 O4 2.004 . S
Co0 O10 2.021 . S
Co0 O12 2.137 1_565 S
Co0 O13 1.152 . S
O1 Co0 2.216 . S
O1 C8 1.247 . S
O2 Co0 1.483 1_545 S
O2 C8 1.261 . S
C3 O12 1.247 . S
C3 O13 1.272 . S
O4 Co0 2.004 . S
O4 C9 1.259 . S
Co5 O6 1.618 1_565 S
Co5 O11 2.052 . S
Co5 O13 2.135 . S
O6 Co5 1.618 1_545 S
O6 C9 1.235 1_545 S
C7 O10 1.238 1_545 S
C7 O11 1.241 . S
C8 O1 1.247 . S
C8 O2 1.261 . S
C9 O4 1.259 . S
C9 O6 1.235 1_565 S
O10 Co0 2.021 . S
O10 C7 1.238 1_565 S
O11 Co5 2.052 . S
O11 C7 1.241 . S
O12 Co0 2.137 1_545 S
O12 C3 1.247 . S
O13 Co0 1.152 . S
O13 C3 1.272 . S
O13 Co5 2.135 . S
Co14 O15 2.216 1_545 S
Co14 O16 1.776 1_545 S
Co14 O18 2.004 . S
Co14 O24 2.021 1_545 S
Co14 O26 2.137 . S
Co14 O27 1.183 . S
O15 Co14 2.216 1_565 S
O15 C22 1.247 1_565 S
O16 Co14 1.776 1_565 S
O16 C22 1.261 . S
C17 O26 1.247 1_565 S
C17 O27 1.272 . S
O18 Co14 2.004 . S
O18 C23 1.259 . S
Co19 O20 1.360 1_545 S
Co19 O25 2.052 . S
Co19 O27 2.135 . S
O20 Co19 1.360 1_565 S
O20 C23 1.235 1_565 S
C21 O24 1.238 . S
C21 O25 1.241 . S
C22 O15 1.247 1_545 S
C22 O16 1.261 . S
C23 O18 1.259 . S
C23 O20 1.235 1_545 S
O24 Co14 2.021 1_565 S
O24 C21 1.238 . S
O25 Co19 2.052 . S
O25 C21 1.241 . S
O26 Co14 2.137 . S
O26 C17 1.247 1_545 S
O27 Co14 1.183 . S
O27 C17 1.272 . S
O27 Co19 2.135 . S
Co28 O29 2.216 . S
Co28 O30 1.814 1_545 S
Co28 O32 2.004 . S
Co28 O38 2.021 1_545 S
Co28 O40 2.137 . S
Co28 O41 1.679 . S
O29 Co28 2.216 . S
O29 C36 1.247 . S
O30 Co28 1.814 1_565 S
O30 C36 1.261 . S
C31 O40 1.247 1_565 S
C31 O41 1.272 . S
O32 Co28 2.004 . S
O32 C37 1.259 . S
Co33 O34 1.431 1_545 S
Co33 O39 2.052 . S
Co33 O41 2.135 . S
O34 Co33 1.431 1_565 S
O34 C37 1.235 1_565 S
C35 O38 1.238 . S
C35 O39 1.241 . S
C36 O29 1.247 . S
C36 O30 1.261 . S
C37 O32 1.259 . S
C37 O34 1.235 1_545 S
O38 Co28 2.021 1_565 S
O38 C35 1.238 . S
O39 Co33 2.052 . S
O39 C35 1.241 . S
O40 Co28 2.137 . S
O40 C31 1.247 1_545 S
O41 Co28 1.679 . S
O41 C31 1.272 . S
O41 Co33 2.135 . S
Co42 O43 2.216 . S
Co42 O44 1.501 . S
Co42 O46 2.004 . S
Co42 O52 2.021 . S
Co42 O54 2.137 . S
Co42 O55 0.859 . S
O43 Co42 2.216 . S
O43 C50 1.247 . S
O44 Co42 1.501 . S
O44 C50 1.261 1_565 S
C45 O54 1.247 1_545 S
C45 O55 1.272 . S
O46 Co42 2.004 . S
O46 C51 1.259 . S
Co47 O48 1.691 . S
Co47 O53 2.052 . S
Co47 O55 2.135 . S
O48 Co47 1.691 . S
O48 C51 1.235 . S
C49 O52 1.238 . S
C49 O53 1.241 1_565 S
C50 O43 1.247 . S
C50 O44 1.261 1_545 S
C51 O46 1.259 . S
C51 O48 1.235 . S
O52 Co42 2.021 . S
O52 C49 1.238 . S
O53 Co47 2.052 . S
O53 C49 1.241 1_545 S
O54 Co42 2.137 . S
O54 C45 1.247 1_565 S
O55 Co42 0.859 . S
O55 C45 1.272 . S
O55 Co47 2.135 . S
Co56 O57 2.216 . S
Co56 O58 1.483 1_545 S
Co56 O60 2.004 . S
Co56 O66 2.021 . S
Co56 O68 2.137 1_545 S
Co56 O69 1.152 . S
O57 Co56 2.216 . S
O57 C64 1.247 . S
O58 Co56 1.483 1_565 S
O58 C64 1.261 . S
C59 O68 1.247 . S
C59 O69 1.272 . S
O60 Co56 2.004 . S
O60 C65 1.259 . S
Co61 O62 1.618 1_545 S
Co61 O67 2.052 . S
Co61 O69 2.135 . S
O62 Co61 1.618 1_565 S
O62 C65 1.235 1_565 S
C63 O66 1.238 1_565 S
C63 O67 1.241 . S
C64 O57 1.247 . S
C64 O58 1.261 . S
C65 O60 1.259 . S
C65 O62 1.235 1_545 S
O66 Co56 2.021 . S
O66 C63 1.238 1_545 S
O67 Co61 2.052 . S
O67 C63 1.241 . S
O68 Co56 2.137 1_565 S
O68 C59 1.247 . S
O69 Co56 1.152 . S
O69 C59 1.272 . S
O69 Co61 2.135 . S
Co70 O71 2.216 1_565 S
Co70 O72 1.776 1_565 S
Co70 O74 2.004 . S
Co70 O80 2.021 1_565 S
Co70 O82 2.137 . S
Co70 O83 1.184 . S
O71 Co70 2.216 1_545 S
O71 C78 1.247 1_545 S
O72 Co70 1.776 1_545 S
O72 C78 1.261 . S
C73 O82 1.247 1_545 S
C73 O83 1.272 . S
O74 Co70 2.004 . S
O74 C79 1.259 . S
Co75 O76 1.360 1_565 S
Co75 O81 2.052 . S
Co75 O83 2.135 . S
O76 Co75 1.360 1_545 S
O76 C79 1.235 1_545 S
C77 O80 1.238 . S
C77 O81 1.241 . S
C78 O71 1.247 1_565 S
C78 O72 1.261 . S
C79 O74 1.259 . S
C79 O76 1.235 1_565 S
O80 Co70 2.021 1_545 S
O80 C77 1.238 . S
O81 Co75 2.052 . S
O81 C77 1.241 . S
O82 Co70 2.137 . S
O82 C73 1.247 1_565 S
O83 Co70 1.184 . S
O83 C73 1.272 . S
O83 Co75 2.135 . S
Co84 O85 2.216 . S
Co84 O86 1.814 1_565 S
Co84 O88 2.004 . S
Co84 O94 2.021 1_565 S
Co84 O96 2.137 . S
Co84 O97 1.679 . S
O85 Co84 2.216 . S
O85 C92 1.247 . S
O86 Co84 1.814 1_545 S
O86 C92 1.261 . S
C87 O96 1.247 1_545 S
C87 O97 1.272 . S
O88 Co84 2.004 . S
O88 C93 1.259 . S
Co89 O90 1.431 1_565 S
Co89 O95 2.052 . S
Co89 O97 2.135 . S
O90 Co89 1.431 1_545 S
O90 C93 1.235 1_545 S
C91 O94 1.238 . S
C91 O95 1.241 . S
C92 O85 1.247 . S
C92 O86 1.261 . S
C93 O88 1.259 . S
C93 O90 1.235 1_565 S
O94 Co84 2.021 1_545 S
O94 C91 1.238 . S
O95 Co89 2.052 . S
O95 C91 1.241 . S
O96 Co84 2.137 . S
O96 C87 1.247 1_565 S
O97 Co84 1.679 . S
O97 C87 1.272 . S
O97 Co89 2.135 . S
Co98 O99 2.216 . S
Co98 O100 1.501 . S
Co98 O102 2.004 . S
Co98 O108 2.021 . S
Co98 O110 2.137 . S
Co98 O111 0.859 . S
O99 Co98 2.216 . S
O99 C106 1.247 . S
O100 Co98 1.501 . S
O100 C106 1.261 1_545 S
C101 O110 1.247 1_565 S
C101 O111 1.272 . S
O102 Co98 2.004 . S
O102 C107 1.259 . S
Co103 O104 1.691 . S
Co103 O109 2.052 . S
Co103 O111 2.135 . S
O104 Co103 1.691 . S
O104 C107 1.235 . S
C105 O108 1.238 . S
C105 O109 1.241 1_545 S
C106 O99 1.247 . S
C106 O100 1.261 1_565 S
C107 O102 1.259 . S
C107 O104 1.235 . S
O108 Co98 2.021 . S
O108 C105 1.238 . S
O109 Co103 2.052 . S
O109 C105 1.241 1_565 S
O110 Co98 2.137 . S
O110 C101 1.247 1_545 S
O111 Co98 0.859 . S
O111 C101 1.272 . S
O111 Co103 2.135 . S
Co112 O113 2.216 1_565 S
Co112 O114 1.795 1_565 S
Co112 O116 2.004 . S
Co112 O122 2.021 1_565 S
Co112 O124 2.137 1_565 S
Co112 O125 1.640 . S
O113 Co112 2.216 1_545 S
O113 C120 1.247 1_545 S
O114 Co112 1.795 1_545 S
O114 C120 1.261 . S
C115 O124 1.247 . S
C115 O125 1.272 . S
O116 Co112 2.004 . S
O116 C121 1.259 . S
Co117 O118 1.429 1_565 S
Co117 O123 2.052 . S
Co117 O125 2.135 . S
O118 Co117 1.429 1_545 S
O118 C121 1.235 1_545 S
C119 O122 1.238 . S
C119 O123 1.241 . S
C120 O113 1.247 1_565 S
C120 O114 1.261 . S
C121 O116 1.259 . S
C121 O118 1.235 1_565 S
O122 Co112 2.021 1_545 S
O122 C119 1.238 . S
O123 Co117 2.052 . S
O123 C119 1.241 . S
O124 Co112 2.137 1_545 S
O124 C115 1.247 . S
O125 Co112 1.640 . S
O125 C115 1.272 . S
O125 Co117 2.135 . S
Co126 O127 2.216 . S
Co126 O128 1.387 1_545 S
Co126 O130 2.004 . S
Co126 O136 2.021 . S
Co126 O138 2.137 . S
Co126 O139 1.098 . S
O127 Co126 2.216 . S
O127 C134 1.247 . S
O128 Co126 1.387 1_565 S
O128 C134 1.261 . S
C129 O138 1.247 1_565 S
C129 O139 1.272 . S
O130 Co126 2.004 . S
O130 C135 1.259 . S
Co131 O132 1.717 1_545 S
Co131 O137 2.052 . S
Co131 O139 2.135 . S
O132 Co131 1.717 1_565 S
O132 C135 1.235 1_565 S
C133 O136 1.238 1_565 S
C133 O137 1.241 . S
C134 O127 1.247 . S
C134 O128 1.261 . S
C135 O130 1.259 . S
C135 O132 1.235 1_545 S
O136 Co126 2.021 . S
O136 C133 1.238 1_545 S
O137 Co131 2.052 . S
O137 C133 1.241 . S
O138 Co126 2.137 . S
O138 C129 1.247 1_545 S
O139 Co126 1.098 . S
O139 C129 1.272 . S
O139 Co131 2.135 . S
Co140 O141 2.216 . S
Co140 O142 1.755 1_545 S
Co140 O144 2.004 . S
Co140 O150 2.021 1_545 S
Co140 O152 2.137 . S
Co140 O153 1.668 . S
O141 Co140 2.216 . S
O141 C148 1.247 . S
O142 Co140 1.755 1_565 S
O142 C148 1.261 . S
C143 O152 1.247 1_565 S
C143 O153 1.272 . S
O144 Co140 2.004 . S
O144 C149 1.259 . S
Co145 O146 1.498 1_545 S
Co145 O151 2.052 . S
Co145 O153 2.135 . S
O146 Co145 1.498 1_565 S
O146 C149 1.235 1_565 S
C147 O150 1.238 . S
C147 O151 1.241 . S
C148 O141 1.247 . S
C148 O142 1.261 . S
C149 O144 1.259 . S
C149 O146 1.235 1_545 S
O150 Co140 2.021 1_565 S
O150 C147 1.238 . S
O151 Co145 2.052 . S
O151 C147 1.241 . S
O152 Co140 2.137 . S
O152 C143 1.247 1_545 S
O153 Co140 1.668 . S
O153 C143 1.272 . S
O153 Co145 2.135 . S
Co154 O155 2.216 1_565 S
Co154 O156 1.902 1_565 S
Co154 O158 2.004 . S
Co154 O164 2.021 1_565 S
Co154 O166 2.137 . S
Co154 O167 1.291 . S
O155 Co154 2.216 1_545 S
O155 C162 1.247 1_545 S
O156 Co154 1.902 1_545 S
O156 C162 1.261 . S
C157 O166 1.247 1_545 S
C157 O167 1.272 . S
O158 Co154 2.004 . S
O158 C163 1.259 . S
Co159 O160 1.246 1_565 S
Co159 O165 2.052 . S
Co159 O167 2.135 . S
O160 Co159 1.246 1_545 S
O160 C163 1.235 1_545 S
C161 O164 1.238 . S
C161 O165 1.241 . S
C162 O155 1.247 1_565 S
C162 O156 1.261 . S
C163 O158 1.259 . S
C163 O160 1.235 1_565 S
O164 Co154 2.021 1_545 S
O164 C161 1.238 . S
O165 Co159 2.052 . S
O165 C161 1.241 . S
O166 Co154 2.137 . S
O166 C157 1.247 1_565 S
O167 Co154 1.291 . S
O167 C157 1.272 . S
O167 Co159 2.135 . S
Co168 O169 2.216 1_545 S
Co168 O170 1.795 1_545 S
Co168 O172 2.004 . S
Co168 O178 2.021 1_545 S
Co168 O180 2.137 1_545 S
Co168 O181 1.640 . S
O169 Co168 2.216 1_565 S
O169 C176 1.247 1_565 S
O170 Co168 1.795 1_565 S
O170 C176 1.261 . S
C171 O180 1.247 . S
C171 O181 1.272 . S
O172 Co168 2.004 . S
O172 C177 1.259 . S
Co173 O174 1.429 1_545 S
Co173 O179 2.052 . S
Co173 O181 2.135 . S
O174 Co173 1.429 1_565 S
O174 C177 1.235 1_565 S
C175 O178 1.238 . S
C175 O179 1.241 . S
C176 O169 1.247 1_545 S
C176 O170 1.261 . S
C177 O172 1.259 . S
C177 O174 1.235 1_545 S
O178 Co168 2.021 1_565 S
O178 C175 1.238 . S
O179 Co173 2.052 . S
O179 C175 1.241 . S
O180 Co168 2.137 1_565 S
O180 C171 1.247 . S
O181 Co168 1.640 . S
O181 C171 1.272 . S
O181 Co173 2.135 . S
Co182 O183 2.216 . S
Co182 O184 1.387 1_565 S
Co182 O186 2.004 . S
Co182 O192 2.021 . S
Co182 O194 2.137 . S
Co182 O195 1.098 . S
O183 Co182 2.216 . S
O183 C190 1.247 . S
O184 Co182 1.387 1_545 S
O184 C190 1.261 . S
C185 O194 1.247 1_545 S
C185 O195 1.272 . S
O186 Co182 2.004 . S
O186 C191 1.259 . S
Co187 O188 1.717 1_565 S
Co187 O193 2.052 . S
Co187 O195 2.135 . S
O188 Co187 1.717 1_545 S
O188 C191 1.235 1_545 S
C189 O192 1.238 1_545 S
C189 O193 1.241 . S
C190 O183 1.247 . S
C190 O184 1.261 . S
C191 O186 1.259 . S
C191 O188 1.235 1_565 S
O192 Co182 2.021 . S
O192 C189 1.238 1_565 S
O193 Co187 2.052 . S
O193 C189 1.241 . S
O194 Co182 2.137 . S
O194 C185 1.247 1_565 S
O195 Co182 1.098 . S
O195 C185 1.272 . S
O195 Co187 2.135 . S
Co196 O197 2.216 . S
Co196 O198 1.755 1_565 S
Co196 O200 2.004 . S
Co196 O206 2.021 1_565 S
Co196 O208 2.137 . S
Co196 O209 1.668 . S
O197 Co196 2.216 . S
O197 C204 1.247 . S
O198 Co196 1.755 1_545 S
O198 C204 1.261 . S
C199 O208 1.247 1_545 S
C199 O209 1.272 . S
O200 Co196 2.004 . S
O200 C205 1.259 . S
Co201 O202 1.498 1_565 S
Co201 O207 2.052 . S
Co201 O209 2.135 . S
O202 Co201 1.498 1_545 S
O202 C205 1.235 1_545 S
C203 O206 1.238 . S
C203 O207 1.241 . S
C204 O197 1.247 . S
C204 O198 1.261 . S
C205 O200 1.259 . S
C205 O202 1.235 1_565 S
O206 Co196 2.021 1_545 S
O206 C203 1.238 . S
O207 Co201 2.052 . S
O207 C203 1.241 . S
O208 Co196 2.137 . S
O208 C199 1.247 1_565 S
O209 Co196 1.668 . S
O209 C199 1.272 . S
O209 Co201 2.135 . S
Co210 O211 2.216 1_545 S
Co210 O212 1.902 1_545 S
Co210 O214 2.004 . S
Co210 O220 2.021 1_545 S
Co210 O222 2.137 . S
Co210 O223 1.291 . S
O211 Co210 2.216 1_565 S
O211 C218 1.247 1_565 S
O212 Co210 1.902 1_565 S
O212 C218 1.261 . S
C213 O222 1.247 1_565 S
C213 O223 1.272 . S
O214 Co210 2.004 . S
O214 C219 1.259 . S
Co215 O216 1.246 1_545 S
Co215 O221 2.052 . S
Co215 O223 2.135 . S
O216 Co215 1.246 1_565 S
O216 C219 1.235 1_565 S
C217 O220 1.238 . S
C217 O221 1.241 . S
C218 O211 1.247 1_545 S
C218 O212 1.261 . S
C219 O214 1.259 . S
C219 O216 1.235 1_545 S
O220 Co210 2.021 1_565 S
O220 C217 1.238 . S
O221 Co215 2.052 . S
O221 C217 1.241 . S
O222 Co210 2.137 . S
O222 C213 1.247 1_545 S
O223 Co210 1.291 . S
O223 C213 1.272 . S
O223 Co215 2.135 . S
Co224 O225 2.216 . S
Co224 O226 1.475 1_565 S
Co224 O228 2.004 1_655 S
Co224 O234 2.021 . S
Co224 O236 2.137 1_565 S
Co224 O237 1.150 1_655 S
O225 Co224 2.216 . S
O225 C232 1.247 . S
O226 Co224 1.475 1_545 S
O226 C232 1.261 . S
C227 O236 1.247 . S
C227 O237 1.272 1_655 S
O228 Co224 2.004 1_455 S
O228 C233 1.259 . S
Co229 O230 1.626 1_565 S
Co229 O235 2.052 . S
Co229 O237 2.135 . S
O230 Co229 1.626 1_545 S
O230 C233 1.235 1_545 S
C231 O234 1.238 1_445 S
C231 O235 1.241 . S
C232 O225 1.247 . S
C232 O226 1.261 . S
C233 O228 1.259 . S
C233 O230 1.235 1_565 S
O234 Co224 2.021 . S
O234 C231 1.238 1_665 S
O235 Co229 2.052 . S
O235 C231 1.241 . S
O236 Co224 2.137 1_545 S
O236 C227 1.247 . S
O237 Co224 1.150 1_455 S
O237 C227 1.272 1_455 S
O237 Co229 2.135 . S
Co238 O239 2.216 1_545 S
Co238 O240 1.789 1_545 S
Co238 O242 2.004 . S
Co238 O248 2.021 1_545 S
Co238 O250 2.137 . S
Co238 O251 1.205 . S
O239 Co238 2.216 1_565 S
O239 C246 1.247 1_565 S
O240 Co238 1.789 1_565 S
O240 C246 1.261 . S
C241 O250 1.247 1_565 S
C241 O251 1.272 . S
O242 Co238 2.004 . S
O242 C247 1.259 . S
Co243 O244 1.344 1_545 S
Co243 O249 2.052 . S
Co243 O251 2.135 . S
O244 Co243 1.344 1_565 S
O244 C247 1.235 1_565 S
C245 O248 1.238 . S
C245 O249 1.241 . S
C246 O239 1.247 1_545 S
C246 O240 1.261 . S
C247 O242 1.259 . S
C247 O244 1.235 1_545 S
O248 Co238 2.021 1_565 S
O248 C245 1.238 . S
O249 Co243 2.052 . S
O249 C245 1.241 . S
O250 Co238 2.137 . S
O250 C241 1.247 1_545 S
O251 Co238 1.205 . S
O251 C241 1.272 . S
O251 Co243 2.135 . S
Co252 O253 2.216 . S
Co252 O254 1.831 1_545 S
Co252 O256 2.004 1_655 S
Co252 O262 2.021 1_545 S
Co252 O264 2.137 . S
Co252 O265 1.686 1_655 S
O253 Co252 2.216 . S
O253 C260 1.247 . S
O254 Co252 1.831 1_565 S
O254 C260 1.261 . S
C255 O264 1.246 1_565 S
C255 O265 1.272 1_655 S
O256 Co252 2.004 1_455 S
O256 C261 1.259 . S
Co257 O258 1.415 1_545 S
Co257 O263 2.052 . S
Co257 O265 2.135 . S
O258 Co257 1.415 1_565 S
O258 C261 1.235 1_565 S
C259 O262 1.238 1_455 S
C259 O263 1.241 . S
C260 O253 1.247 . S
C260 O254 1.261 . S
C261 O256 1.259 . S
C261 O258 1.235 1_545 S
O262 Co252 2.021 1_565 S
O262 C259 1.238 1_655 S
O263 Co257 2.052 . S
O263 C259 1.241 . S
O264 Co252 2.137 . S
O264 C255 1.246 1_545 S
O265 Co252 1.686 1_455 S
O265 C255 1.272 1_455 S
O265 Co257 2.135 . S
Co266 O267 2.216 . S
Co266 O268 1.504 . S
Co266 O270 2.004 . S
Co266 O276 2.021 . S
Co266 O278 2.137 . S
Co266 O279 0.873 . S
O267 Co266 2.216 . S
O267 C274 1.247 . S
O268 Co266 1.504 . S
O268 C274 1.261 1_565 S
C269 O278 1.247 1_545 S
C269 O279 1.272 . S
O270 Co266 2.004 . S
O270 C275 1.259 . S
Co271 O272 1.680 . S
Co271 O277 2.052 . S
Co271 O279 2.135 . S
O272 Co271 1.680 . S
O272 C275 1.235 . S
C273 O276 1.238 . S
C273 O277 1.241 1_565 S
C274 O267 1.247 . S
C274 O268 1.261 1_545 S
C275 O270 1.259 . S
C275 O272 1.235 . S
O276 Co266 2.021 . S
O276 C273 1.238 . S
O277 Co271 2.052 . S
O277 C273 1.241 1_545 S
O278 Co266 2.137 . S
O278 C269 1.247 1_565 S
O279 Co266 0.873 . S
O279 C269 1.272 . S
O279 Co271 2.135 . S
Co280 O281 2.216 . S
Co280 O282 1.475 1_545 S
Co280 O284 2.004 1_455 S
Co280 O290 2.021 . S
Co280 O292 2.137 1_545 S
Co280 O293 1.150 1_455 S
O281 Co280 2.216 . S
O281 C288 1.247 . S
O282 Co280 1.475 1_565 S
O282 C288 1.261 . S
C283 O292 1.247 . S
C283 O293 1.272 1_455 S
O284 Co280 2.004 1_655 S
O284 C289 1.259 . S
Co285 O286 1.626 1_545 S
Co285 O291 2.052 . S
Co285 O293 2.135 . S
O286 Co285 1.626 1_565 S
O286 C289 1.235 1_565 S
C287 O290 1.238 1_665 S
C287 O291 1.241 . S
C288 O281 1.247 . S
C288 O282 1.261 . S
C289 O284 1.259 . S
C289 O286 1.235 1_545 S
O290 Co280 2.021 . S
O290 C287 1.238 1_445 S
O291 Co285 2.052 . S
O291 C287 1.241 . S
O292 Co280 2.137 1_565 S
O292 C283 1.247 . S
O293 Co280 1.150 1_655 S
O293 C283 1.272 1_655 S
O293 Co285 2.135 . S
Co294 O295 2.216 1_565 S
Co294 O296 1.789 1_565 S
Co294 O298 2.004 . S
Co294 O304 2.021 1_565 S
Co294 O306 2.137 . S
Co294 O307 1.205 . S
O295 Co294 2.216 1_545 S
O295 C302 1.247 1_545 S
O296 Co294 1.789 1_545 S
O296 C302 1.261 . S
C297 O306 1.247 1_545 S
C297 O307 1.272 . S
O298 Co294 2.004 . S
O298 C303 1.259 . S
Co299 O300 1.344 1_565 S
Co299 O305 2.052 . S
Co299 O307 2.135 . S
O300 Co299 1.344 1_545 S
O300 C303 1.235 1_545 S
C301 O304 1.238 . S
C301 O305 1.241 . S
C302 O295 1.247 1_565 S
C302 O296 1.261 . S
C303 O298 1.259 . S
C303 O300 1.235 1_565 S
O304 Co294 2.021 1_545 S
O304 C301 1.238 . S
O305 Co299 2.052 . S
O305 C301 1.241 . S
O306 Co294 2.137 . S
O306 C297 1.247 1_565 S
O307 Co294 1.205 . S
O307 C297 1.272 . S
O307 Co299 2.135 . S
Co308 O309 2.216 . S
Co308 O310 1.831 1_565 S
Co308 O312 2.004 1_455 S
Co308 O318 2.021 1_565 S
Co308 O320 2.137 . S
Co308 O321 1.686 1_455 S
O309 Co308 2.216 . S
O309 C316 1.247 . S
O310 Co308 1.831 1_545 S
O310 C316 1.261 . S
C311 O320 1.246 1_545 S
C311 O321 1.272 1_455 S
O312 Co308 2.004 1_655 S
O312 C317 1.259 . S
Co313 O314 1.415 1_565 S
Co313 O319 2.052 . S
Co313 O321 2.135 . S
O314 Co313 1.415 1_545 S
O314 C317 1.235 1_545 S
C315 O318 1.238 1_655 S
C315 O319 1.241 . S
C316 O309 1.247 . S
C316 O310 1.261 . S
C317 O312 1.259 . S
C317 O314 1.235 1_565 S
O318 Co308 2.021 1_545 S
O318 C315 1.238 1_455 S
O319 Co313 2.052 . S
O319 C315 1.241 . S
O320 Co308 2.137 . S
O320 C311 1.246 1_565 S
O321 Co308 1.686 1_655 S
O321 C311 1.272 1_655 S
O321 Co313 2.135 . S
Co322 O323 2.216 . S
Co322 O324 1.504 . S
Co322 O326 2.004 . S
Co322 O332 2.021 . S
Co322 O334 2.137 . S
Co322 O335 0.873 . S
O323 Co322 2.216 . S
O323 C330 1.247 . S
O324 Co322 1.504 . S
O324 C330 1.261 1_545 S
C325 O334 1.247 1_565 S
C325 O335 1.272 . S
O326 Co322 2.004 . S
O326 C331 1.259 . S
Co327 O328 1.680 . S
Co327 O333 2.052 . S
Co327 O335 2.135 . S
O328 Co327 1.680 . S
O328 C331 1.235 . S
C329 O332 1.238 . S
C329 O333 1.241 1_545 S
C330 O323 1.247 . S
C330 O324 1.261 1_565 S
C331 O326 1.259 . S
C331 O328 1.235 . S
O332 Co322 2.021 . S
O332 C329 1.238 . S
O333 Co327 2.052 . S
O333 C329 1.241 1_565 S
O334 Co322 2.137 . S
O334 C325 1.247 1_545 S
O335 Co322 0.873 . S
O335 C325 1.272 . S
O335 Co327 2.135 . S
Co336 O337 2.216 1_565 S
Co336 O338 1.801 1_565 S
Co336 O340 2.004 1_655 S
Co336 O346 2.021 1_565 S
Co336 O348 2.137 1_565 S
Co336 O349 1.637 1_655 S
O337 Co336 2.216 1_545 S
O337 C344 1.247 1_545 S
O338 Co336 1.801 1_545 S
O338 C344 1.261 . S
C339 O348 1.249 . S
C339 O349 1.270 1_655 S
O340 Co336 2.004 1_455 S
O340 C345 1.259 . S
Co341 O342 1.419 1_565 S
Co341 O347 2.052 . S
Co341 O349 2.135 . S
O342 Co341 1.419 1_545 S
O342 C345 1.235 1_545 S
C343 O346 1.238 1_455 S
C343 O347 1.241 . S
C344 O337 1.247 1_565 S
C344 O338 1.261 . S
C345 O340 1.259 . S
C345 O342 1.235 1_565 S
O346 Co336 2.021 1_545 S
O346 C343 1.238 1_655 S
O347 Co341 2.052 . S
O347 C343 1.241 . S
O348 Co336 2.137 1_545 S
O348 C339 1.249 . S
O349 Co336 1.637 1_455 S
O349 C339 1.270 1_455 S
O349 Co341 2.135 . S
Co350 O351 2.216 . S
Co350 O352 1.394 1_545 S
Co350 O354 2.004 . S
Co350 O360 2.021 . S
Co350 O362 2.137 . S
Co350 O363 1.100 . S
O351 Co350 2.216 . S
O351 C358 1.247 . S
O352 Co350 1.394 1_565 S
O352 C358 1.261 . S
C353 O362 1.247 1_565 S
C353 O363 1.272 . S
O354 Co350 2.004 . S
O354 C359 1.259 . S
Co355 O356 1.709 1_545 S
Co355 O361 2.052 . S
Co355 O363 2.135 . S
O356 Co355 1.709 1_565 S
O356 C359 1.235 1_565 S
C357 O360 1.238 1_565 S
C357 O361 1.241 . S
C358 O351 1.247 . S
C358 O352 1.261 . S
C359 O354 1.259 . S
C359 O356 1.235 1_545 S
O360 Co350 2.021 . S
O360 C357 1.238 1_545 S
O361 Co355 2.052 . S
O361 C357 1.241 . S
O362 Co350 2.137 . S
O362 C353 1.247 1_545 S
O363 Co350 1.100 . S
O363 C353 1.272 . S
O363 Co355 2.135 . S
Co364 O365 2.216 . S
Co364 O366 1.769 1_545 S
Co364 O368 2.004 1_655 S
Co364 O374 2.021 1_545 S
Co364 O376 2.137 . S
Co364 O377 1.676 1_655 S
O365 Co364 2.216 . S
O365 C372 1.247 . S
O366 Co364 1.769 1_565 S
O366 C372 1.261 . S
C367 O376 1.247 1_565 S
C367 O377 1.272 1_655 S
O368 Co364 2.004 1_455 S
O368 C373 1.259 . S
Co369 O370 1.487 1_545 S
Co369 O375 2.052 . S
Co369 O377 2.135 . S
O370 Co369 1.487 1_565 S
O370 C373 1.235 1_565 S
C371 O374 1.238 1_455 S
C371 O375 1.241 . S
C372 O365 1.247 . S
C372 O366 1.261 . S
C373 O368 1.259 . S
C373 O370 1.235 1_545 S
O374 Co364 2.021 1_565 S
O374 C371 1.238 1_655 S
O375 Co369 2.052 . S
O375 C371 1.241 . S
O376 Co364 2.137 . S
O376 C367 1.247 1_545 S
O377 Co364 1.676 1_455 S
O377 C367 1.272 1_455 S
O377 Co369 2.135 . S
Co378 O379 2.216 1_565 S
Co378 O380 1.907 1_565 S
Co378 O382 2.004 . S
Co378 O388 2.021 1_565 S
Co378 O390 2.137 . S
Co378 O391 1.295 . S
O379 Co378 2.216 1_545 S
O379 C386 1.247 1_545 S
O380 Co378 1.907 1_545 S
O380 C386 1.261 . S
C381 O390 1.247 1_545 S
C381 O391 1.272 . S
O382 Co378 2.004 . S
O382 C387 1.259 . S
Co383 O384 1.241 1_565 S
Co383 O389 2.052 . S
Co383 O391 2.135 . S
O384 Co383 1.241 1_545 S
O384 C387 1.235 1_545 S
C385 O388 1.238 . S
C385 O389 1.241 . S
C386 O379 1.247 1_565 S
C386 O380 1.261 . S
C387 O382 1.259 . S
C387 O384 1.235 1_565 S
O388 Co378 2.021 1_545 S
O388 C385 1.238 . S
O389 Co383 2.052 . S
O389 C385 1.241 . S
O390 Co378 2.137 . S
O390 C381 1.247 1_565 S
O391 Co378 1.295 . S
O391 C381 1.272 . S
O391 Co383 2.135 . S
Co392 O393 2.216 1_545 S
Co392 O394 1.801 1_545 S
Co392 O396 2.004 1_455 S
Co392 O402 2.021 1_545 S
Co392 O404 2.137 1_545 S
Co392 O405 1.637 1_455 S
O393 Co392 2.216 1_565 S
O393 C400 1.247 1_565 S
O394 Co392 1.801 1_565 S
O394 C400 1.261 . S
C395 O404 1.249 . S
C395 O405 1.270 1_455 S
O396 Co392 2.004 1_655 S
O396 C401 1.259 . S
Co397 O398 1.419 1_545 S
Co397 O403 2.052 . S
Co397 O405 2.135 . S
O398 Co397 1.419 1_565 S
O398 C401 1.235 1_565 S
C399 O402 1.238 1_655 S
C399 O403 1.241 . S
C400 O393 1.247 1_545 S
C400 O394 1.261 . S
C401 O396 1.259 . S
C401 O398 1.235 1_545 S
O402 Co392 2.021 1_565 S
O402 C399 1.238 1_455 S
O403 Co397 2.052 . S
O403 C399 1.241 . S
O404 Co392 2.137 1_565 S
O404 C395 1.249 . S
O405 Co392 1.637 1_655 S
O405 C395 1.270 1_655 S
O405 Co397 2.135 . S
Co406 O407 2.216 . S
Co406 O408 1.394 1_565 S
Co406 O410 2.004 . S
Co406 O416 2.021 . S
Co406 O418 2.137 . S
Co406 O419 1.100 . S
O407 Co406 2.216 . S
O407 C414 1.247 . S
O408 Co406 1.394 1_545 S
O408 C414 1.261 . S
C409 O418 1.247 1_545 S
C409 O419 1.272 . S
O410 Co406 2.004 . S
O410 C415 1.259 . S
Co411 O412 1.709 1_565 S
Co411 O417 2.052 . S
Co411 O419 2.135 . S
O412 Co411 1.709 1_545 S
O412 C415 1.235 1_545 S
C413 O416 1.238 1_545 S
C413 O417 1.241 . S
C414 O407 1.247 . S
C414 O408 1.261 . S
C415 O410 1.259 . S
C415 O412 1.235 1_565 S
O416 Co406 2.021 . S
O416 C413 1.238 1_565 S
O417 Co411 2.052 . S
O417 C413 1.241 . S
O418 Co406 2.137 . S
O418 C409 1.247 1_565 S
O419 Co406 1.100 . S
O419 C409 1.272 . S
O419 Co411 2.135 . S
Co420 O421 2.216 . S
Co420 O422 1.769 1_565 S
Co420 O424 2.004 1_455 S
Co420 O430 2.021 1_565 S
Co420 O432 2.137 . S
Co420 O433 1.676 1_455 S
O421 Co420 2.216 . S
O421 C428 1.247 . S
O422 Co420 1.769 1_545 S
O422 C428 1.261 . S
C423 O432 1.247 1_545 S
C423 O433 1.272 1_455 S
O424 Co420 2.004 1_655 S
O424 C429 1.259 . S
Co425 O426 1.487 1_565 S
Co425 O431 2.052 . S
Co425 O433 2.135 . S
O426 Co425 1.487 1_545 S
O426 C429 1.235 1_545 S
C427 O430 1.238 1_655 S
C427 O431 1.241 . S
C428 O421 1.247 . S
C428 O422 1.261 . S
C429 O424 1.259 . S
C429 O426 1.235 1_565 S
O430 Co420 2.021 1_545 S
O430 C427 1.238 1_455 S
O431 Co425 2.052 . S
O431 C427 1.241 . S
O432 Co420 2.137 . S
O432 C423 1.247 1_565 S
O433 Co420 1.676 1_655 S
O433 C423 1.272 1_655 S
O433 Co425 2.135 . S
Co434 O435 2.216 1_545 S
Co434 O436 1.907 1_545 S
Co434 O438 2.004 . S
Co434 O444 2.021 1_545 S
Co434 O446 2.137 . S
Co434 O447 1.295 . S
O435 Co434 2.216 1_565 S
O435 C442 1.247 1_565 S
O436 Co434 1.907 1_565 S
O436 C442 1.261 . S
C437 O446 1.247 1_565 S
C437 O447 1.272 . S
O438 Co434 2.004 . S
O438 C443 1.259 . S
Co439 O440 1.241 1_545 S
Co439 O445 2.052 . S
Co439 O447 2.135 . S
O440 Co439 1.241 1_565 S
O440 C443 1.235 1_565 S
C441 O444 1.238 . S
C441 O445 1.241 . S
C442 O435 1.247 1_545 S
C442 O436 1.261 . S
C443 O438 1.259 . S
C443 O440 1.235 1_545 S
O444 Co434 2.021 1_565 S
O444 C441 1.238 . S
O445 Co439 2.052 . S
O445 C441 1.241 . S
O446 Co434 2.137 . S
O446 C437 1.247 1_545 S
O447 Co434 1.295 . S
O447 C437 1.272 . S
O447 Co439 2.135 . S
C3 C31 1.482 . S
C45 C17 2.498 1_545 S
C87 C59 1.483 . S
C101 C73 2.497 1_565 S
C115 C143 1.432 . S
C157 C129 2.392 1_545 S
C171 C199 1.433 . S
C213 C185 2.392 1_565 S
C227 C255 1.466 . S
C241 C269 2.475 1_565 S
C311 C283 1.466 . S
C297 C325 2.474 1_545 S
C367 C339 1.409 . S
C381 C353 2.360 1_545 S
C423 C395 1.409 . S
C409 C437 2.360 1_545 S
C358 C8 2.052 . S
C22 C344 1.761 . S
C36 C386 1.718 . S
C50 C372 2.236 1_545 S
C414 C64 2.052 . S
C78 C400 1.761 . S
C92 C442 1.718 . S
C428 C106 2.236 1_545 S
C120 C246 1.860 . S
C134 C232 2.000 . S
C148 C274 2.280 . S
C162 C260 1.598 . S
C176 C302 1.860 . S
C288 C190 2.000 . S
C330 C204 2.280 . S
C218 C316 1.598 . S
C7 C63 1.960 1_544 S
C21 C413 1.259 1_554 S
C35 C203 1.452 . S
C49 C329 0.455 1_565 S
C77 C357 1.258 1_556 S
C147 C91 1.452 . S
C273 C105 0.455 1_565 S
C175 C119 1.472 . S
C133 C301 1.253 . S
C441 C161 1.026 . S
C189 C245 1.253 . S
C217 C385 1.026 . S
C287 C231 1.956 1_665 S
C259 C427 1.410 1_455 S
C371 C315 1.410 1_455 S
C399 C343 1.395 1_656 S
C9 C23 1.787 1_565 S
C37 C51 1.472 . S
C65 C79 1.787 1_545 S
C93 C107 1.472 . S
C135 C121 1.853 . S
C149 C163 1.862 1_545 S
C177 C191 1.853 . S
C205 C219 1.862 1_565 S
C233 C247 1.847 1_565 S
C275 C261 1.635 . S
C289 C303 1.847 1_545 S
C317 C331 1.635 . S
C359 C345 1.959 . S
C373 C387 1.949 1_545 S
C415 C401 1.959 . S
C429 C443 1.949 1_565 S
