# Generated by pormake.
# Topology sms, (6)-cn, num edge types: 1
# Building blocks:
#     Node 0, Type 0, BuildingBlock: OJICUG_clean_sbu_0, # of connection points: 6
#     Node 1, Type 0, BuildingBlock: OJICUG_clean_sbu_0, # of connection points: 6
#     Node 2, Type 0, BuildingBlock: OJICUG_clean_sbu_0, # of connection points: 6
#     Node 3, Type 0, BuildingBlock: OJICUG_clean_sbu_0, # of connection points: 6
#     Node 4, Type 0, BuildingBlock: OJICUG_clean_sbu_0, # of connection points: 6
#     Node 5, Type 0, BuildingBlock: OJICUG_clean_sbu_0, # of connection points: 6
#     Node 6, Type 0, BuildingBlock: OJICUG_clean_sbu_0, # of connection points: 6
#     Node 7, Type 0, BuildingBlock: OJICUG_clean_sbu_0, # of connection points: 6
#     Node 8, Type 0, BuildingBlock: OJICUG_clean_sbu_0, # of connection points: 6
#     Node 9, Type 0, BuildingBlock: OJICUG_clean_sbu_0, # of connection points: 6
#     Node 10, Type 0, BuildingBlock: OJICUG_clean_sbu_0, # of connection points: 6
#     Node 11, Type 0, BuildingBlock: OJICUG_clean_sbu_0, # of connection points: 6
#     Node 12, Type 0, BuildingBlock: OJICUG_clean_sbu_0, # of connection points: 6
#     Node 13, Type 0, BuildingBlock: OJICUG_clean_sbu_0, # of connection points: 6
#     Node 14, Type 0, BuildingBlock: OJICUG_clean_sbu_0, # of connection points: 6
#     Node 15, Type 0, BuildingBlock: OJICUG_clean_sbu_0, # of connection points: 6
#     Node 16, Type 0, BuildingBlock: OJICUG_clean_sbu_0, # of connection points: 6
#     Node 17, Type 0, BuildingBlock: OJICUG_clean_sbu_0, # of connection points: 6
#     Edge 18, Type (0, 0), BuildingBlock: XUDNAN_clean_linker_2, # of connection points: 2
#     Edge 19, Type (0, 0), BuildingBlock: XUDNAN_clean_linker_2, # of connection points: 2
#     Edge 20, Type (0, 0), BuildingBlock: XUDNAN_clean_linker_2, # of connection points: 2
#     Edge 21, Type (0, 0), BuildingBlock: XUDNAN_clean_linker_2, # of connection points: 2
#     Edge 22, Type (0, 0), BuildingBlock: XUDNAN_clean_linker_2, # of connection points: 2
#     Edge 23, Type (0, 0), BuildingBlock: XUDNAN_clean_linker_2, # of connection points: 2
#     Edge 24, Type (0, 0), BuildingBlock: XUDNAN_clean_linker_2, # of connection points: 2
#     Edge 25, Type (0, 0), BuildingBlock: XUDNAN_clean_linker_2, # of connection points: 2
#     Edge 26, Type (0, 0), BuildingBlock: XUDNAN_clean_linker_2, # of connection points: 2
#     Edge 27, Type (0, 0), BuildingBlock: XUDNAN_clean_linker_2, # of connection points: 2
#     Edge 28, Type (0, 0), BuildingBlock: XUDNAN_clean_linker_2, # of connection points: 2
#     Edge 29, Type (0, 0), BuildingBlock: XUDNAN_clean_linker_2, # of connection points: 2
#     Edge 30, Type (0, 0), BuildingBlock: XUDNAN_clean_linker_2, # of connection points: 2
#     Edge 31, Type (0, 0), BuildingBlock: XUDNAN_clean_linker_2, # of connection points: 2
#     Edge 32, Type (0, 0), BuildingBlock: XUDNAN_clean_linker_2, # of connection points: 2
#     Edge 33, Type (0, 0), BuildingBlock: XUDNAN_clean_linker_2, # of connection points: 2
#     Edge 34, Type (0, 0), BuildingBlock: XUDNAN_clean_linker_2, # of connection points: 2
#     Edge 35, Type (0, 0), BuildingBlock: XUDNAN_clean_linker_2, # of connection points: 2
#     Edge 36, Type (0, 0), BuildingBlock: XUDNAN_clean_linker_2, # of connection points: 2
#     Edge 37, Type (0, 0), BuildingBlock: XUDNAN_clean_linker_2, # of connection points: 2
#     Edge 38, Type (0, 0), BuildingBlock: XUDNAN_clean_linker_2, # of connection points: 2
#     Edge 39, Type (0, 0), BuildingBlock: XUDNAN_clean_linker_2, # of connection points: 2
#     Edge 40, Type (0, 0), BuildingBlock: XUDNAN_clean_linker_2, # of connection points: 2
#     Edge 41, Type (0, 0), BuildingBlock: XUDNAN_clean_linker_2, # of connection points: 2
#     Edge 42, Type (0, 0), BuildingBlock: XUDNAN_clean_linker_2, # of connection points: 2
#     Edge 43, Type (0, 0), BuildingBlock: XUDNAN_clean_linker_2, # of connection points: 2
#     Edge 44, Type (0, 0), BuildingBlock: XUDNAN_clean_linker_2, # of connection points: 2
#     Edge 45, Type (0, 0), BuildingBlock: XUDNAN_clean_linker_2, # of connection points: 2
#     Edge 46, Type (0, 0), BuildingBlock: XUDNAN_clean_linker_2, # of connection points: 2
#     Edge 47, Type (0, 0), BuildingBlock: XUDNAN_clean_linker_2, # of connection points: 2
#     Edge 48, Type (0, 0), BuildingBlock: XUDNAN_clean_linker_2, # of connection points: 2
#     Edge 49, Type (0, 0), BuildingBlock: XUDNAN_clean_linker_2, # of connection points: 2
#     Edge 50, Type (0, 0), BuildingBlock: XUDNAN_clean_linker_2, # of connection points: 2
#     Edge 51, Type (0, 0), BuildingBlock: XUDNAN_clean_linker_2, # of connection points: 2
#     Edge 52, Type (0, 0), BuildingBlock: XUDNAN_clean_linker_2, # of connection points: 2
#     Edge 53, Type (0, 0), BuildingBlock: XUDNAN_clean_linker_2, # of connection points: 2
#     Edge 54, Type (0, 0), BuildingBlock: XUDNAN_clean_linker_2, # of connection points: 2
#     Edge 55, Type (0, 0), BuildingBlock: XUDNAN_clean_linker_2, # of connection points: 2
#     Edge 56, Type (0, 0), BuildingBlock: XUDNAN_clean_linker_2, # of connection points: 2
#     Edge 57, Type (0, 0), BuildingBlock: XUDNAN_clean_linker_2, # of connection points: 2
#     Edge 58, Type (0, 0), BuildingBlock: XUDNAN_clean_linker_2, # of connection points: 2
#     Edge 59, Type (0, 0), BuildingBlock: XUDNAN_clean_linker_2, # of connection points: 2
#     Edge 60, Type (0, 0), BuildingBlock: XUDNAN_clean_linker_2, # of connection points: 2
#     Edge 61, Type (0, 0), BuildingBlock: XUDNAN_clean_linker_2, # of connection points: 2
#     Edge 62, Type (0, 0), BuildingBlock: XUDNAN_clean_linker_2, # of connection points: 2
#     Edge 63, Type (0, 0), BuildingBlock: XUDNAN_clean_linker_2, # of connection points: 2
#     Edge 64, Type (0, 0), BuildingBlock: XUDNAN_clean_linker_2, # of connection points: 2
#     Edge 65, Type (0, 0), BuildingBlock: XUDNAN_clean_linker_2, # of connection points: 2
#     Edge 66, Type (0, 0), BuildingBlock: XUDNAN_clean_linker_2, # of connection points: 2
#     Edge 67, Type (0, 0), BuildingBlock: XUDNAN_clean_linker_2, # of connection points: 2
#     Edge 68, Type (0, 0), BuildingBlock: XUDNAN_clean_linker_2, # of connection points: 2
#     Edge 69, Type (0, 0), BuildingBlock: XUDNAN_clean_linker_2, # of connection points: 2
#     Edge 70, Type (0, 0), BuildingBlock: XUDNAN_clean_linker_2, # of connection points: 2
#     Edge 71, Type (0, 0), BuildingBlock: XUDNAN_clean_linker_2, # of connection points: 2
# Relax obj value: 0.417
# Max RMSD: 0.152
# Mean RMSD: 0.152
data_MOF--net-sms--node1-OJICUG_clean_sbu_0--edge1-XUDNAN_clean_linker_2
_symmetry_space_group_name_H-M    P1
_symmetry_Int_Tables_number       1
_symmetry_cell_setting            triclinic
loop_
_symmetry_equiv_pos_as_xyz
'x, y, z'
_cell_length_a     40.632732
_cell_length_b     40.694447
_cell_length_c     55.926355
_cell_angle_alpha  90.179691
_cell_angle_beta   89.993986
_cell_angle_gamma 119.89782
loop_
_atom_site_label
_atom_site_type_symbol
_atom_site_fract_x
_atom_site_fract_y
_atom_site_fract_z
_atom_type_partial_charge
Sc0 Sc 0.17412 0.41321 0.03662 0.0
Sc1 Sc 0.16141 0.35413 0.08511 0.0
Sc2 Sc 0.22416 0.45072 0.08958 0.0
O3 O 0.18677 0.4062 0.07038 0.0
C4 C 0.26164 0.46789 0.03723 0.0
C5 C 0.18162 0.33834 0.03426 0.0
C6 C 0.24345 0.39145 0.10916 0.0
C7 C 0.09516 0.35249 0.05489 0.0
C8 C 0.18069 0.48625 0.06287 0.0
C9 C 0.1579 0.40208 0.12734 0.0
O10 O 0.23238 0.44347 0.02606 0.0
O11 O 0.18352 0.33491 0.05679 0.0
O12 O 0.25587 0.42339 0.09914 0.0
O13 O 0.11527 0.3846 0.04533 0.0
O14 O 0.19517 0.48172 0.08185 0.0
O15 O 0.13956 0.37295 0.11404 0.0
O16 O 0.17481 0.4661 0.04417 0.0
O17 O 0.10891 0.33484 0.06587 0.0
O18 O 0.19021 0.42993 0.12164 0.0
O19 O 0.17245 0.36125 0.02487 0.0
O20 O 0.26154 0.4751 0.05942 0.0
O21 O 0.20908 0.36538 0.10753 0.0
Sc22 Sc 0.53399 0.78592 0.9957 0.0
Sc23 Sc 0.59053 0.79129 0.04391 0.0
Sc24 Sc 0.49557 0.76193 0.05283 0.0
O25 O 0.53984 0.77953 0.03092 0.0
C26 C 0.47865 0.81174 0.01801 0.0
C27 C 0.61004 0.85701 0.00731 0.0
C28 C 0.56367 0.82821 0.08275 0.0
C29 C 0.59004 0.75301 -0.00351 0.0
C30 C 0.46388 0.70764 0.00697 0.0
C31 C 0.53501 0.72043 0.0759 0.0
O32 O 0.49174 0.80286 6e-05 0.0
O33 O 0.62026 0.83724 0.01938 0.0
O34 O 0.52899 0.80274 0.08008 0.0
O35 O 0.57552 0.77015 0.98566 0.0
O36 O 0.45955 0.71909 0.02738 0.0
O37 O 0.56791 0.74651 0.06997 0.0
O38 O 0.4911 0.72756 0.99283 0.0
O39 O 0.59229 0.75247 0.0191 0.0
O40 O 0.50497 0.71973 0.06895 0.0
O41 O 0.57677 0.84396 -0.00111 0.0
O42 O 0.48197 0.80274 0.03918 0.0
O43 O 0.59034 0.83096 0.06946 0.0
Sc44 Sc 0.16883 0.79155 0.03594 0.0
Sc45 Sc 0.14355 0.82253 0.08889 0.0
Sc46 Sc 0.20925 0.79076 0.09121 0.0
O47 O 0.17363 0.80144 0.07196 0.0
C48 C 0.16851 0.71834 0.05673 0.0
C49 C 0.08391 0.76992 0.0493 0.0
C50 C 0.13695 0.76077 0.12562 0.0
C51 C 0.17541 0.87289 0.04169 0.0
C52 C 0.25719 0.82219 0.04362 0.0
C53 C 0.22356 0.86712 0.11553 0.0
O54 O 0.1584 0.73362 0.04053 0.0
O55 O 0.09227 0.78685 0.06936 0.0
O56 O 0.16792 0.76343 0.11864 0.0
O57 O 0.17954 0.8487 0.02935 0.0
O58 O 0.25445 0.81674 0.066 0.0
O59 O 0.19094 0.86235 0.11068 0.0
O60 O 0.22858 0.81297 0.03033 0.0
O61 O 0.16176 0.86642 0.06274 0.0
O62 O 0.23448 0.84418 0.10924 0.0
O63 O 0.10852 0.76943 0.03556 0.0
O64 O 0.18742 0.73603 0.07514 0.0
O65 O 0.12321 0.77999 0.11659 0.0
Sc66 Sc 0.40404 0.20734 0.89815 0.0
Sc67 Sc 0.30627 0.15675 0.91099 0.0
Sc68 Sc 0.37351 0.20431 0.95724 0.0
O69 O 0.36119 0.18953 0.92213 0.0
C70 C 0.43678 0.18341 0.94249 0.0
C71 C 0.34763 0.12389 0.8786 0.0
C72 C 0.30474 0.1189 0.96082 0.0
C73 C 0.34226 0.2171 0.8691 0.0
C74 C 0.43756 0.28001 0.93215 0.0
C75 C 0.30086 0.21335 0.94904 0.0
O76 O 0.43536 0.18978 0.92038 0.0
O77 O 0.31794 0.11958 0.88904 0.0
O78 O 0.33252 0.14863 0.96959 0.0
O79 O 0.37626 0.22574 0.87368 0.0
O80 O 0.41673 0.2624 0.94993 0.0
O81 O 0.2881 0.18998 0.93162 0.0
O82 O 0.43511 0.26387 0.91226 0.0
O83 O 0.31364 0.19268 0.88072 0.0
O84 O 0.33191 0.22228 0.95971 0.0
O85 O 0.37968 0.15376 0.88038 0.0
O86 O 0.41605 0.18714 0.95813 0.0
O87 O 0.29273 0.11693 0.93962 0.0
Sc88 Sc 0.75075 0.22732 0.93108 0.0
Sc89 Sc 0.79803 0.17961 0.94901 0.0
Sc90 Sc 0.75132 0.20612 0.99172 0.0
O91 O 0.76651 0.20418 0.95732 0.0
C92 C 0.774 0.28794 0.9733 0.0
C93 C 0.83321 0.24976 0.91358 0.0
C94 C 0.83748 0.22501 0.9959 0.0
C95 C 0.73681 0.14921 0.90775 0.0
C96 C 0.67649 0.18986 0.96345 0.0
C97 C 0.74569 0.12707 0.99108 0.0
O98 O 0.76643 0.27768 0.95157 0.0
O99 O 0.83223 0.22052 0.92223 0.0
O100 O 0.807 0.22163 0.00454 0.0
O101 O 0.7345 0.1793 0.90778 0.0
O102 O 0.69405 0.19123 0.98256 0.0
O103 O 0.77056 0.13623 0.97494 0.0
O104 O 0.693 0.20064 0.94334 0.0
O105 O 0.75675 0.14305 0.9227 0.0
O106 O 0.73157 0.14735 -0.00267 0.0
O107 O 0.80667 0.25717 0.91651 0.0
O108 O 0.7701 0.26541 0.99007 0.0
O109 O 0.83996 0.21368 0.97509 0.0
Sc110 Sc 0.7642 0.54127 0.90674 0.0
Sc111 Sc 0.80499 0.64001 0.91184 0.0
Sc112 Sc 0.75881 0.58051 0.9613 0.0
O113 O 0.77602 0.58733 0.92662 0.0
C114 C 0.68761 0.50953 0.93658 0.0
C115 C 0.7489 0.59213 0.86997 0.0
C116 C 0.74202 0.6441 0.94344 0.0
C117 C 0.84731 0.59978 0.88863 0.0
C118 C 0.78837 0.52231 0.95688 0.0
C119 C 0.84131 0.65425 0.96367 0.0
O120 O 0.70539 0.51031 0.91769 0.0
O121 O 0.76732 0.62332 0.88127 0.0
O122 O 0.73386 0.61524 0.95613 0.0
O123 O 0.82118 0.5665 0.89371 0.0
O124 O 0.78245 0.54483 0.96951 0.0
O125 O 0.84478 0.66099 0.94132 0.0
O126 O 0.78118 0.51729 0.93465 0.0
O127 O 0.84477 0.62909 0.89285 0.0
O128 O 0.81126 0.628 0.97309 0.0
O129 O 0.74696 0.56143 0.8767 0.0
O130 O 0.70371 0.53213 0.95398 0.0
O131 O 0.76871 0.65766 0.92825 0.0
Sc132 Sc 0.91067 0.7971 0.32567 0.0
Sc133 Sc 0.86573 0.71219 0.35964 0.0
Sc134 Sc 0.91723 0.7995 0.38848 0.0
O135 O 0.89794 0.76956 0.35783 0.0
C136 C 0.98737 0.84794 0.3536 0.0
C137 C 0.91874 0.72541 0.31427 0.0
C138 C 0.93208 0.73118 0.39722 0.0
C139 C 0.82493 0.73283 0.31885 0.0
C140 C 0.88795 0.84639 0.35899 0.0
C141 C 0.83544 0.73387 0.40548 0.0
O142 O 0.96926 0.83435 0.3343 0.0
O143 O 0.89694 0.70552 0.33108 0.0
O144 O 0.94133 0.76582 0.39951 0.0
O145 O 0.85369 0.76364 0.31251 0.0
O146 O 0.89357 0.83429 0.37864 0.0
O147 O 0.82958 0.71205 0.38784 0.0
O148 O 0.89494 0.83748 0.33853 0.0
O149 O 0.82514 0.71195 0.33553 0.0
O150 O 0.86618 0.7649 0.40838 0.0
O151 O 0.92775 0.75955 0.31026 0.0
O152 O 0.97168 0.83883 0.37396 0.0
O153 O 0.9039 0.70739 0.38477 0.0
Sc154 Sc 0.27883 0.16765 0.37956 0.0
Sc155 Sc 0.34329 0.1792 0.42643 0.0
Sc156 Sc 0.24489 0.12969 0.43629 0.0
O157 O 0.28912 0.15906 0.41403 0.0
C158 C 0.21427 0.17599 0.40706 0.0
C159 C 0.35066 0.24657 0.39347 0.0
C160 C 0.30417 0.19722 0.46967 0.0
C161 C 0.34814 0.15165 0.37401 0.0
C162 C 0.21565 0.08168 0.38795 0.0
C163 C 0.30006 0.09829 0.45066 0.0
O164 O 0.23467 0.18126 0.38862 0.0
O165 O 0.3625 0.23333 0.40978 0.0
O166 O 0.27079 0.17194 0.46377 0.0
O167 O 0.32089 0.15504 0.36564 0.0
O168 O 0.2149 0.08521 0.41052 0.0
O169 O 0.3308 0.12694 0.44399 0.0
O170 O 0.23716 0.10895 0.37431 0.0
O171 O 0.35864 0.15816 0.39573 0.0
O172 O 0.26808 0.09647 0.44927 0.0
O173 O 0.32035 0.22666 0.38157 0.0
O174 O 0.216 0.15883 0.42546 0.0
O175 O 0.33374 0.20295 0.45847 0.0
Sc176 Sc 0.89796 0.15314 0.37945 0.0
Sc177 Sc 0.8435 0.16626 0.42464 0.0
Sc178 Sc 0.89112 0.1164 0.43701 0.0
O179 O 0.87743 0.14523 0.41359 0.0
C180 C 0.87168 0.06678 0.3894 0.0
C181 C 0.81352 0.1388 0.37162 0.0
C182 C 0.80421 0.08686 0.4503 0.0
C183 C 0.90813 0.23324 0.39399 0.0
C184 C 0.96907 0.16017 0.40824 0.0
C185 C 0.89999 0.18546 0.46868 0.0
O186 O 0.87941 0.09362 0.3748 0.0
O187 O 0.80848 0.14541 0.39315 0.0
O188 O 0.83432 0.08478 0.45012 0.0
O189 O 0.91809 0.21297 0.38202 0.0
O190 O 0.94956 0.14374 0.42661 0.0
O191 O 0.87564 0.19019 0.45725 0.0
O192 O 0.95462 0.16528 0.38946 0.0
O193 O 0.88071 0.21975 0.40868 0.0
O194 O 0.90837 0.16014 0.46342 0.0
O195 O 0.84456 0.14203 0.36417 0.0
O196 O 0.87525 0.07116 0.41195 0.0
O197 O 0.80238 0.11485 0.44203 0.0
Sc198 Sc 0.15222 0.58865 0.28965 0.0
Sc199 Sc 0.05614 0.53356 0.29906 0.0
Sc200 Sc 0.11459 0.58469 0.34634 0.0
O201 O 0.10834 0.56887 0.31165 0.0
C202 C 0.18023 0.56686 0.33785 0.0
C203 C 0.10397 0.50871 0.26655 0.0
C204 C 0.05589 0.49612 0.34606 0.0
C205 C 0.08791 0.59595 0.26042 0.0
C206 C 0.17685 0.66113 0.32199 0.0
C207 C 0.04365 0.58657 0.33072 0.0
O208 O 0.18422 0.5776 0.31606 0.0
O209 O 0.07324 0.50831 0.27128 0.0
O210 O 0.06974 0.52816 0.35672 0.0
O211 O 0.12088 0.59935 0.26227 0.0
O212 O 0.16015 0.64199 0.34048 0.0
O213 O 0.0311 0.55209 0.32568 0.0
O214 O 0.17383 0.64594 0.30165 0.0
O215 O 0.06051 0.57602 0.27453 0.0
O216 O 0.0764 0.60607 0.33984 0.0
O217 O 0.13559 0.53367 0.27509 0.0
O218 O 0.15494 0.56577 0.35185 0.0
O219 O 0.05343 0.49264 0.32344 0.0
Sc220 Sc 0.42356 0.56244 0.26482 0.0
Sc221 Sc 0.48524 0.52556 0.2639 0.0
Sc222 Sc 0.47934 0.57298 0.31557 0.0
O223 O 0.46261 0.55355 0.28146 0.0
C224 C 0.47186 0.64075 0.29314 0.0
C225 C 0.48145 0.57668 0.22238 0.0
C226 C 0.55669 0.59253 0.29007 0.0
C227 C 0.39976 0.47924 0.246 0.0
C228 C 0.3905 0.5411 0.31796 0.0
C229 C 0.47532 0.49291 0.31663 0.0
O230 O 0.45033 0.62108 0.27603 0.0
O231 O 0.49552 0.55806 0.23179 0.0
O232 O 0.5381 0.59823 0.3062 0.0
O233 O 0.39243 0.5054 0.25111 0.0
O234 O 0.42189 0.55042 0.32824 0.0
O235 O 0.47694 0.48988 0.29411 0.0
O236 O 0.38746 0.5442 0.29557 0.0
O237 O 0.43184 0.48213 0.25002 0.0
O238 O 0.47694 0.52157 0.32682 0.0
O239 O 0.45559 0.58089 0.23224 0.0
O240 O 0.48405 0.627 0.30883 0.0
O241 O 0.54149 0.56647 0.27451 0.0
Sc242 Sc 0.44553 0.91465 0.24705 0.0
Sc243 Sc 0.50936 0.0124 0.24634 0.0
Sc244 Sc 0.48391 0.9612 0.30126 0.0
O245 O 0.47983 0.96288 0.26495 0.0
C246 C 0.39593 0.901 0.29365 0.0
C247 C 0.42915 0.97312 0.21967 0.0
C248 C 0.47724 0.03513 0.29194 0.0
C249 C 0.5179 0.95443 0.21263 0.0
C250 C 0.48524 0.88681 0.28485 0.0
C251 C 0.56911 0.02261 0.28693 0.0
O252 O 0.39969 0.89665 0.27159 0.0
O253 O 0.4614 0.00206 0.22383 0.0
O254 O 0.47318 0.00788 0.30517 0.0
O255 O 0.48751 0.9265 0.2204 0.0
O256 O 0.4945 0.91372 0.29987 0.0
O257 O 0.5609 0.02967 0.26635 0.0
O258 O 0.46733 0.88401 0.26566 0.0
O259 O 0.53043 0.98818 0.22006 0.0
O260 O 0.54429 -0.00084 0.30123 0.0
O261 O 0.41983 0.94032 0.2272 0.0
O262 O 0.42383 0.92272 0.30694 0.0
O263 O 0.49074 0.04059 0.27084 0.0
Sc264 Sc 0.53873 0.04187 0.69195 0.0
Sc265 Sc 0.4934 0.98391 0.74227 0.0
Sc266 Sc 0.53687 0.08252 0.7467 0.0
O267 O 0.52309 0.03607 0.7269 0.0
C268 C 0.61214 0.11055 0.71615 0.0
C269 C 0.54764 0.97188 0.70553 0.0
C270 C 0.55582 0.03114 0.78109 0.0
C271 C 0.45235 0.97218 0.6926 0.0
C272 C 0.5133 0.1036 0.69722 0.0
C273 C 0.45639 0.02774 0.76852 0.0
O274 O 0.59615 0.08859 0.6984 0.0
O275 O 0.52174 0.9602 0.72136 0.0
O276 O 0.55538 0.06127 0.77564 0.0
O277 O 0.48301 -0.00423 0.68204 0.0
O278 O 0.51971 0.10791 0.71954 0.0
O279 O 0.45892 -0.00189 0.76535 0.0
O280 O 0.51837 0.08064 0.68448 0.0
O281 O 0.45002 0.96648 0.7151 0.0
O282 O 0.48111 0.05989 0.7608 0.0
O283 O 0.56055 0.00373 0.69529 0.0
O284 O 0.59439 0.11055 0.73477 0.0
O285 O 0.53613 -0.00033 0.77013 0.0
Sc286 Sc 0.91127 0.42019 0.69763 0.0
Sc287 Sc 0.98141 0.46989 0.74215 0.0
Sc288 Sc 0.88456 0.42477 0.75664 0.0
O289 O 0.92578 0.43845 0.73214 0.0
C290 C 0.85323 0.44777 0.71097 0.0
C291 C 0.98265 0.50357 0.69082 0.0
C292 C 0.94509 0.50885 0.77306 0.0
C293 C 0.97886 0.40472 0.70897 0.0
C294 C 0.84721 0.3488 0.72558 0.0
C295 C 0.94532 0.41444 0.78642 0.0
O296 O 0.87209 0.44132 0.69533 0.0
O297 O -0.00484 0.50738 0.71205 0.0
O298 O 0.91192 0.48027 0.77205 0.0
O299 O 0.94837 0.39672 0.69793 0.0
O300 O 0.85215 0.36659 0.74512 0.0
O301 O 0.97379 0.43614 0.77364 0.0
O302 O 0.8655 0.36452 0.70669 0.0
O303 O -0.00493 0.432 0.72373 0.0
O304 O 0.91173 0.40744 0.78223 0.0
O305 O 0.95433 0.47321 0.68317 0.0
O306 O 0.85448 0.4423 0.73324 0.0
O307 O 0.97364 0.51036 0.76278 0.0
Sc308 Sc 0.53828 0.4139 0.66191 0.0
Sc309 Sc 0.49884 0.4453 0.70735 0.0
Sc310 Sc 0.53712 0.38777 0.72189 0.0
O311 O 0.52466 0.41559 0.69698 0.0
C312 C 0.51058 0.32938 0.67873 0.0
C313 C 0.45567 0.40331 0.65925 0.0
C314 C 0.45557 0.37189 0.7393 0.0
C315 C 0.55818 0.49936 0.66901 0.0
C316 C 0.61118 0.4245 0.68887 0.0
C317 C 0.55937 0.46544 0.7487 0.0
O318 O 0.51996 0.35407 0.66241 0.0
O319 O 0.45897 0.42157 0.67845 0.0
O320 O 0.4822 0.36413 0.73828 0.0
O321 O 0.55942 0.47365 0.65681 0.0
O322 O 0.5935 0.40919 0.70806 0.0
O323 O 0.53666 0.47243 0.73716 0.0
O324 O 0.59561 0.42882 0.6704 0.0
O325 O 0.53776 0.49297 0.68736 0.0
O326 O 0.56174 0.43586 0.74523 0.0
O327 O 0.48182 0.39812 0.65093 0.0
O328 O 0.51411 0.3372 0.70085 0.0
O329 O 0.45738 0.4007 0.72935 0.0
Sc330 Sc 0.76716 0.862 0.55693 0.0
Sc331 Sc 0.67282 0.8034 0.57308 0.0
Sc332 Sc 0.74346 0.84885 0.61714 0.0
O333 O 0.72773 0.83815 0.5825 0.0
C334 C 0.81251 0.84295 0.59637 0.0
C335 C 0.71805 0.7812 0.53546 0.0
C336 C 0.68398 0.76002 0.61561 0.0
C337 C 0.69649 0.86664 0.53524 0.0
C338 C 0.79245 0.92986 0.59259 0.0
C339 C 0.6655 0.84755 0.61867 0.0
O340 O 0.81007 0.8559 0.57618 0.0
O341 O 0.68696 0.77846 0.54264 0.0
O342 O 0.70691 0.79033 0.62668 0.0
O343 O 0.72959 0.8707 0.53384 0.0
O344 O 0.78186 0.90844 0.61087 0.0
O345 O 0.65086 0.82277 0.60211 0.0
O346 O 0.78643 0.91727 0.57129 0.0
O347 O 0.67246 0.84624 0.55094 0.0
O348 O 0.70021 0.86292 0.62461 0.0
O349 O 0.75024 0.8083 0.54156 0.0
O350 O 0.78848 0.83581 0.61293 0.0
O351 O 0.6709 0.75964 0.5949 0.0
Sc352 Sc 0.10957 0.85087 0.55227 0.0
Sc353 Sc 0.15471 0.79958 0.56494 0.0
Sc354 Sc 0.12225 0.83406 0.61231 0.0
O355 O 0.12872 0.82811 0.57668 0.0
C356 C 0.14557 0.91614 0.59103 0.0
C357 C 0.18848 0.86712 0.52925 0.0
C358 C 0.20454 0.84283 0.61099 0.0
C359 C 0.08763 0.77409 0.52688 0.0
C360 C 0.04464 0.82424 0.59231 0.0
C361 C 0.1023 0.74733 0.60658 0.0
O362 O 0.13921 0.90504 0.5694 0.0
O363 O 0.19428 0.84606 0.54324 0.0
O364 O 0.18125 0.8517 0.62006 0.0
O365 O 0.07858 0.79846 0.53329 0.0
O366 O 0.06289 0.81838 0.60869 0.0
O367 O 0.11748 0.75191 0.58609 0.0
O368 O 0.05886 0.83695 0.57188 0.0
O369 O 0.11647 0.77334 0.53496 0.0
O370 O 0.10412 0.77454 0.6191 0.0
O371 O 0.15789 0.86846 0.52924 0.0
O372 O 0.13875 0.89377 0.60867 0.0
O373 O 0.19676 0.822 0.59255 0.0
Sc374 Sc 0.10932 0.20167 0.58277 0.0
Sc375 Sc 0.14361 0.27837 0.62148 0.0
Sc376 Sc 0.1027 0.187 0.64431 0.0
O377 O 0.11819 0.22215 0.61595 0.0
C378 C 0.03194 0.14823 0.61089 0.0
C379 C 0.09247 0.26851 0.57625 0.0
C380 C 0.08149 0.249 0.65974 0.0
C381 C 0.19367 0.27333 0.58099 0.0
C382 C 0.12903 0.1445 0.60763 0.0
C383 C 0.18266 0.25083 0.65731 0.0
O384 O 0.05254 0.158 0.5921 0.0
O385 O 0.11722 0.28993 0.59141 0.0
O386 O 0.0891 0.22343 0.666 0.0
O387 O 0.16507 0.24498 0.5714 0.0
O388 O 0.11349 0.14544 0.62716 0.0
O389 O 0.17092 0.27399 0.65346 0.0
O390 O 0.13356 0.16645 0.59032 0.0
O391 O 0.19236 0.28776 0.60093 0.0
O392 O 0.16101 0.21538 0.65487 0.0
O393 O 0.08435 0.23464 0.57233 0.0
O394 O 0.04513 0.15798 0.632 0.0
O395 O 0.09571 0.26948 0.64142 0.0
H396 H 0.18661 0.67831 0.02439 0.0
H397 H 0.12466 0.66766 0.08966 0.0
H398 H 0.11548 0.60373 0.09601 0.0
H399 H 0.13067 0.57408 0.00662 0.0
H400 H 0.1727 0.5747 0.99566 0.0
H401 H 0.1687 0.61681 0.99385 0.0
H402 H 0.23213 0.65428 0.01691 0.0
H403 H 0.23605 0.61227 0.01914 0.0
H404 H 0.23713 0.63776 0.04582 0.0
H405 H 0.12303 0.5474 0.0995 0.0
H406 H 0.14086 0.49762 0.09752 0.0
H407 H 0.19538 0.54113 0.02915 0.0
C408 C 0.16957 0.66162 0.03932 0.0
C409 C 0.15545 0.67738 0.05625 0.0
C410 C 0.1349 0.65563 0.07626 0.0
C411 C 0.1297 0.61938 0.08007 0.0
C412 C 0.14513 0.60507 0.06364 0.0
C413 C 0.16407 0.62506 0.0434 0.0
C414 C 0.18058 0.60419 0.02979 0.0
C415 C 0.16205 0.5917 0.00501 0.0
C416 C 0.22404 0.62859 0.02781 0.0
C417 C 0.16913 0.57025 0.046 0.0
C418 C 0.14867 0.57144 0.0654 0.0
C419 C 0.13812 0.54553 0.08408 0.0
C420 C 0.14856 0.51753 0.0829 0.0
C421 C 0.16891 0.51527 0.06305 0.0
C422 C 0.17896 0.54173 0.04423 0.0
H423 H 0.45213 0.65209 0.03673 0.0
H424 H 0.42211 0.67316 0.96649 0.0
H425 H 0.37488 0.60464 0.96227 0.0
H426 H 0.43212 0.55061 0.02411 0.0
H427 H 0.41413 0.53691 0.05406 0.0
H428 H 0.45242 0.58427 0.04832 0.0
H429 H 0.41368 0.61194 0.06786 0.0
H430 H 0.37557 0.5651 0.07365 0.0
H431 H 0.36672 0.59757 0.05674 0.0
H432 H 0.32191 0.53925 0.97018 0.0
H433 H 0.26737 0.48521 0.98957 0.0
H434 H 0.33327 0.50688 0.05455 0.0
C435 C 0.43631 0.64188 0.02017 0.0
C436 C 0.44 0.66725 0.002 0.0
C437 C 0.41934 0.65366 0.98051 0.0
C438 C 0.39283 0.61489 0.97797 0.0
C439 C 0.38853 0.59054 -0.00318 0.0
C440 C 0.4103 0.60359 0.01738 0.0
C441 C 0.39659 0.57378 0.03664 0.0
C442 C 0.42554 0.56061 0.04102 0.0
C443 C 0.38757 0.58795 0.06005 0.0
C444 C 0.36127 0.54311 0.02468 0.0
C445 C 0.35783 0.55251 0.00138 0.0
C446 C 0.3248 0.53101 0.98809 0.0
C447 C 0.29393 0.50036 -0.00074 0.0
C448 C 0.29629 0.49222 0.02358 0.0
C449 C 0.33096 0.51253 0.03589 0.0
H450 H 0.45747 0.84621 0.0514 0.0
H451 H 0.44524 0.81565 0.97627 0.0
H452 H 0.39441 0.83167 0.97253 0.0
H453 H 0.36773 0.80189 0.06443 0.0
H454 H 0.36737 0.83546 0.08539 0.0
H455 H 0.41023 0.83412 0.08058 0.0
H456 H 0.44568 0.90534 0.06945 0.0
H457 H 0.40272 0.90707 0.07448 0.0
H458 H 0.42705 0.92217 0.04624 0.0
H459 H 0.33519 0.83385 0.97936 0.0
H460 H 0.2743 0.82283 0.99598 0.0
H461 H 0.32517 0.85255 0.06662 0.0
C462 C 0.44511 0.84433 0.03394 0.0
C463 C 0.45507 0.8295 0.01418 0.0
C464 C 0.43817 0.82715 0.99164 0.0
C465 C 0.40934 0.83635 0.98934 0.0
C466 C 0.3984 0.84857 0.0096 0.0
C467 C 0.41638 0.85332 0.03141 0.0
C468 C 0.39556 0.86053 0.05131 0.0
C469 C 0.38456 0.83124 0.07158 0.0
C470 C 0.41916 0.90121 0.06093 0.0
C471 C 0.36118 0.85545 0.03774 0.0
C472 C 0.36386 0.8499 0.01357 0.0
C473 C 0.33322 0.83933 -0.0019 0.0
C474 C 0.29865 0.83298 0.00772 0.0
C475 C 0.29496 0.83663 0.03262 0.0
C476 C 0.32716 0.8497 0.04749 0.0
H477 H 0.48911 0.17827 0.9145 0.0
H478 H 0.45092 0.16781 0.98806 0.0
H479 H 0.50431 0.15921 0.00098 0.0
H480 H 0.52637 0.1114 0.91819 0.0
H481 H 0.56586 0.14083 0.89902 0.0
H482 H 0.52117 0.13956 0.89528 0.0
H483 H 0.55538 0.21266 0.89999 0.0
H484 H 0.59999 0.21414 0.90385 0.0
H485 H 0.5836 0.23442 0.92635 0.0
H486 H 0.5663 0.16001 0.00626 0.0
H487 H 0.63182 0.17149 0.00366 0.0
H488 H 0.62891 0.18223 0.92654 0.0
C489 C 0.49125 0.17323 0.9333 0.0
C490 C 0.46568 0.17363 0.95026 0.0
C491 C 0.47003 0.16749 0.9747 0.0
C492 C 0.5002 0.16243 0.98219 0.0
C493 C 0.5255 0.16332 0.96501 0.0
C494 C 0.52114 0.16835 0.94104 0.0
C495 C 0.55413 0.1722 0.92638 0.0
C496 C 0.54109 0.13901 0.90867 0.0
C497 C 0.57446 0.21063 0.9134 0.0
C498 C 0.57856 0.17004 0.94596 0.0
C499 C 0.56134 0.16422 0.96807 0.0
C500 C 0.57979 0.16397 0.989 0.0
C501 C 0.61707 0.17059 0.98733 0.0
C502 C 0.63563 0.17782 0.96488 0.0
C503 C 0.61558 0.17658 0.94396 0.0
H504 H 0.82466 0.49018 0.93514 0.0
H505 H 0.78049 0.4997 0.00376 0.0
H506 H 0.78777 0.44683 0.01909 0.0
H507 H 0.77255 0.39976 0.92987 0.0
H508 H 0.80609 0.38926 0.91563 0.0
H509 H 0.81156 0.4355 0.91274 0.0
H510 H 0.87966 0.46605 0.92987 0.0
H511 H 0.87471 0.41964 0.93251 0.0
H512 H 0.88788 0.45043 0.95825 0.0
H513 H 0.78287 0.38392 0.02314 0.0
H514 H 0.76715 0.31777 0.01575 0.0
H515 H 0.81167 0.34795 0.94377 0.0
C516 C 0.81802 0.48213 0.95372 0.0
C517 C 0.80179 0.49862 0.96826 0.0
C518 C 0.79323 0.48748 0.99241 0.0
C519 C 0.79739 0.45754 0.00125 0.0
C520 C 0.81069 0.43975 0.9858 0.0
C521 C 0.8216 0.45218 0.96259 0.0
C522 C 0.82785 0.42439 0.94805 0.0
C523 C 0.80299 0.41147 0.92528 0.0
C524 C 0.87004 0.44114 0.94182 0.0
C525 C 0.81518 0.39274 0.96595 0.0
C526 C 0.80688 0.4026 0.98792 0.0
C527 C 0.79031 0.37623 0.00628 0.0
C528 C 0.78124 0.33871 0.00188 0.0
C529 C 0.78794 0.32796 0.97913 0.0
C530 C 0.8062 0.35556 0.96131 0.0
H531 H 0.64254 0.45384 0.90421 0.0
H532 H 0.63991 0.49901 0.97422 0.0
H533 H 0.57324 0.44873 0.97906 0.0
H534 H 0.54393 0.4244 0.88734 0.0
H535 H 0.53717 0.38215 0.87241 0.0
H536 H 0.58367 0.42373 0.87351 0.0
H537 H 0.61084 0.38429 0.89265 0.0
H538 H 0.56455 0.34266 0.89154 0.0
H539 H 0.58962 0.35797 0.91959 0.0
H540 H 0.50843 0.39002 0.97786 0.0
H541 H 0.45135 0.32763 0.97066 0.0
H542 H 0.49606 0.32184 0.90121 0.0
C543 C 0.62788 0.45357 0.92044 0.0
C544 C 0.6467 0.48055 0.93881 0.0
C545 C 0.62631 0.47879 0.95982 0.0
C546 C 0.58829 0.45036 0.96274 0.0
C547 C 0.57081 0.42396 0.94443 0.0
C548 C 0.58989 0.42544 0.92363 0.0
C549 C 0.56531 0.39249 0.90723 0.0
C550 C 0.55703 0.40654 0.88373 0.0
C551 C 0.58367 0.3679 0.90249 0.0
C552 C 0.52982 0.37169 0.92233 0.0
C553 C 0.53336 0.39043 0.94364 0.0
C554 C 0.50512 0.37535 0.96108 0.0
C555 C 0.47276 0.33986 0.95683 0.0
C556 C 0.4689 0.31976 0.9353 0.0
C557 C 0.49764 0.33653 0.91771 0.0
H558 H 0.90139 0.04521 0.35287 0.0
H559 H 0.81354 0.00232 0.40693 0.0
H560 H 0.79934 0.93719 0.39849 0.0
H561 H 0.85482 0.95705 0.3116 0.0
H562 H 0.90053 0.96184 0.30532 0.0
H563 H 0.89648 0.00346 0.31048 0.0
H564 H 0.94705 0.0245 0.34401 0.0
H565 H 0.95087 0.98289 0.33926 0.0
H566 H 0.93936 0.99281 0.36855 0.0
H567 H 0.80543 0.88134 0.39216 0.0
H568 H 0.82881 0.8364 0.38626 0.0
H569 H 0.91195 0.91306 0.33541 0.0
C570 C 0.87794 0.02176 0.36196 0.0
C571 C 0.85816 0.02834 0.38031 0.0
C572 C 0.8287 -0.00251 0.3927 0.0
C573 C 0.82033 0.96045 0.38792 0.0
C574 C 0.84168 0.95481 0.37062 0.0
C575 C 0.86956 0.98448 0.35753 0.0
C576 C 0.89228 0.97144 0.3428 0.0
C577 C 0.88561 0.97356 0.31595 0.0
C578 C 0.93488 0.99425 0.34906 0.0
C579 C 0.8746 0.93068 0.35101 0.0
C580 C 0.84495 0.92155 0.36668 0.0
C581 C 0.82767 0.88757 0.37929 0.0
C582 C 0.84131 0.86243 0.37603 0.0
C583 C 0.8717 0.87136 0.3602 0.0
C584 C 0.88792 0.90537 0.34708 0.0
H585 H 0.03757 0.87685 0.39074 0.0
H586 H 0.02806 0.887 0.31412 0.0
H587 H 0.09203 0.94344 0.31373 0.0
H588 H 0.07568 0.96875 0.40447 0.0
H589 H 0.10788 0.97079 0.42738 0.0
H590 H 0.06562 0.92672 0.42094 0.0
H591 H 0.10589 0.89459 0.41303 0.0
H592 H 0.14844 0.93866 0.41957 0.0
H593 H 0.14396 0.91493 0.39154 0.0
H594 H 0.1507 0.00454 0.32276 0.0
H595 H 0.19999 0.06477 0.3403 0.0
H596 H 0.17118 0.01458 0.41107 0.0
C597 C 0.04932 0.89028 0.37374 0.0
C598 C 0.02776 0.87763 0.35248 0.0
C599 C 0.0441 0.89609 0.33063 0.0
C600 C 0.08049 0.92812 0.33022 0.0
C601 C 0.10032 0.94083 0.35171 0.0
C602 C 0.08552 0.92213 0.37302 0.0
C603 C 0.11054 0.94371 0.39401 0.0
C604 C 0.08861 0.95305 0.41278 0.0
C605 C 0.12825 0.92164 0.40519 0.0
C606 C 0.14015 0.97891 0.3814 0.0
C607 C 0.13439 0.97628 0.35694 0.0
C608 C 0.15605 0.00665 0.34181 0.0
C609 C 0.18386 0.04083 0.35198 0.0
C610 C 0.18934 0.04448 0.37708 0.0
C611 C 0.16777 0.01272 0.39181 0.0
H612 H 0.16369 0.1703 0.37194 0.0
H613 H 0.19944 0.20742 0.44473 0.0
H614 H 0.14458 0.21668 0.4506 0.0
H615 H 0.11896 0.23229 0.36051 0.0
H616 H 0.08047 0.19511 0.34371 0.0
H617 H 0.12679 0.19929 0.34328 0.0
H618 H 0.09704 0.12965 0.35726 0.0
H619 H 0.05082 0.12537 0.35804 0.0
H620 H 0.06957 0.1152 0.38443 0.0
H621 H 0.08102 0.20894 0.45176 0.0
H622 H 0.0135 0.18967 0.44704 0.0
H623 H 0.01687 0.15988 0.37302 0.0
C624 C 0.16077 0.18208 0.38866 0.0
C625 C 0.18623 0.18906 0.4078 0.0
C626 C 0.18065 0.20276 0.42981 0.0
C627 C 0.1495 0.20797 0.43329 0.0
C628 C 0.12396 0.19934 0.41453 0.0
C629 C 0.12932 0.18717 0.39249 0.0
C630 C 0.09506 0.17579 0.3764 0.0
C631 C 0.10598 0.20221 0.35469 0.0
C632 C 0.07707 0.13403 0.36859 0.0
C633 C 0.06911 0.18177 0.39325 0.0
C634 C 0.0867 0.19569 0.41507 0.0
C635 C 0.06737 0.19932 0.43453 0.0
C636 C 0.02905 0.18833 0.43171 0.0
C637 C 0.0104 0.17449 0.40955 0.0
C638 C 0.03086 0.17166 0.38993 0.0
H639 H 0.31767 0.497 0.30406 0.0
H640 H 0.38698 0.56359 0.36371 0.0
H641 H 0.33109 0.5626 0.38182 0.0
H642 H 0.27767 0.54586 0.29389 0.0
H643 H 0.23074 0.50862 0.28582 0.0
H644 H 0.2703 0.5012 0.28238 0.0
H645 H 0.23778 0.44161 0.30917 0.0
H646 H 0.19741 0.44843 0.3124 0.0
H647 H 0.22129 0.44475 0.33855 0.0
H648 H 0.27469 0.57094 0.38689 0.0
H649 H 0.22383 0.58623 0.37854 0.0
H650 H 0.19252 0.51624 0.31493 0.0
C651 C 0.32053 0.50971 0.32153 0.0
C652 C 0.35641 0.53039 0.33249 0.0
C653 C 0.35953 0.54717 0.35517 0.0
C654 C 0.32788 0.54674 0.36558 0.0
C655 C 0.29337 0.52879 0.35326 0.0
C656 C 0.28936 0.50974 0.33191 0.0
C657 C 0.25214 0.49906 0.31973 0.0
C658 C 0.25813 0.51467 0.29398 0.0
C659 C 0.22558 0.45589 0.32 0.0
C660 C 0.23772 0.51859 0.33615 0.0
C661 C 0.26087 0.53421 0.35596 0.0
C662 C 0.2557 0.55781 0.37189 0.0
C663 C 0.22694 0.56649 0.36703 0.0
C664 C 0.20471 0.55229 0.34613 0.0
C665 C 0.20924 0.52706 0.33112 0.0
H666 H 0.46093 0.68428 0.26026 0.0
H667 H 0.50627 0.68857 0.33124 0.0
H668 H 0.52016 0.75461 0.3359 0.0
H669 H 0.52843 0.78325 0.24388 0.0
H670 H 0.49236 0.78786 0.22798 0.0
H671 H 0.48967 0.7424 0.22974 0.0
H672 H 0.4218 0.71371 0.24749 0.0
H673 H 0.42485 0.75928 0.24596 0.0
H674 H 0.41455 0.73451 0.27406 0.0
H675 H 0.52363 0.81874 0.3341 0.0
H676 H 0.51679 0.87479 0.32548 0.0
H677 H 0.47122 0.82778 0.25539 0.0
C678 C 0.4742 0.69917 0.27669 0.0
C679 C 0.48242 0.68113 0.29537 0.0
C680 C 0.49977 0.70176 0.3166 0.0
C681 C 0.50785 0.73935 0.31943 0.0
C682 C 0.49888 0.75609 0.30076 0.0
C683 C 0.48274 0.7367 0.27973 0.0
C684 C 0.47408 0.76026 0.26281 0.0
C685 C 0.49756 0.76896 0.23975 0.0
C686 C 0.43129 0.74078 0.25728 0.0
C687 C 0.48697 0.79553 0.27784 0.0
C688 C 0.50141 0.79289 0.29962 0.0
C689 C 0.51285 0.82136 0.31694 0.0
C690 C 0.50888 0.85308 0.31191 0.0
C691 C 0.49349 0.85585 0.28979 0.0
C692 C 0.48322 0.82687 0.27249 0.0
H693 H 0.20243 0.71334 0.28619 0.0
H694 H 0.21048 0.70214 0.36276 0.0
H695 H 0.26094 0.76934 0.36513 0.0
H696 H 0.29572 0.76342 0.27511 0.0
H697 H 0.2938 0.79374 0.25238 0.0
H698 H 0.25318 0.74801 0.25764 0.0
H699 H 0.21187 0.77927 0.26486 0.0
H700 H 0.25265 0.82532 0.2596 0.0
H701 H 0.22623 0.81618 0.28703 0.0
H702 H 0.31866 0.83308 0.35778 0.0
H703 H 0.37748 0.88647 0.3414 0.0
H704 H 0.32962 0.85657 0.26996 0.0
C705 C 0.21404 0.72529 0.30357 0.0
C706 C 0.20263 0.70251 0.32426 0.0
C707 C 0.21863 0.71913 0.34667 0.0
C708 C 0.24723 0.75733 0.3482 0.0
C709 C 0.25886 0.77868 0.32726 0.0
C710 C 0.24226 0.76331 0.30541 0.0
C711 C 0.26252 0.7905 0.28515 0.0
C712 C 0.27718 0.77286 0.26651 0.0
C713 C 0.23678 0.8036 0.27348 0.0
C714 C 0.29471 0.82252 0.29878 0.0
C715 C 0.29177 0.81572 0.32311 0.0
C716 C 0.32076 0.83922 0.33885 0.0
C717 C 0.35411 0.86955 0.32938 0.0
C718 C 0.35825 0.87573 0.30438 0.0
C719 C 0.32734 0.85285 0.28917 0.0
H720 H 0.55156 0.16365 0.66777 0.0
H721 H 0.44446 0.09658 0.70409 0.0
H722 H 0.42513 0.14332 0.6933 0.0
H723 H 0.56922 0.24599 0.69013 0.0
H724 H 0.59128 0.27532 0.66436 0.0
H725 H 0.59191 0.23186 0.66788 0.0
H726 H 0.55998 0.20875 0.62643 0.0
H727 H 0.55944 0.25249 0.62269 0.0
H728 H 0.51598 0.20772 0.62009 0.0
H729 H 0.42424 0.20235 0.68831 0.0
H730 H 0.44201 0.26984 0.68958 0.0
H731 H 0.54942 0.30052 0.656 0.0
C732 C 0.52329 0.15808 0.6722 0.0
C733 C 0.49889 0.12637 0.68607 0.0
C734 C 0.46293 0.12046 0.69292 0.0
C735 C 0.45175 0.14677 0.68679 0.0
C736 C 0.47702 0.17881 0.67391 0.0
C737 C 0.512 0.18449 0.66648 0.0
C738 C 0.53657 0.22423 0.65685 0.0
C739 C 0.57443 0.24557 0.67064 0.0
C740 C 0.54338 0.22322 0.62991 0.0
C741 C 0.51113 0.24084 0.66173 0.0
C742 C 0.47646 0.2138 0.67093 0.0
C743 C 0.45058 0.22346 0.68028 0.0
C744 C 0.46084 0.26176 0.68097 0.0
C745 C 0.49647 0.28974 0.67222 0.0
C746 C 0.52135 0.27916 0.66176 0.0
H747 H 0.65368 0.16843 0.6847 0.0
H748 H 0.66204 0.11409 0.74906 0.0
H749 H 0.7275 0.16654 0.7555 0.0
H750 H 0.75772 0.21337 0.66672 0.0
H751 H 0.7587 0.25586 0.6566 0.0
H752 H 0.71555 0.21074 0.65426 0.0
H753 H 0.67988 0.23796 0.67819 0.0
H754 H 0.72289 0.28289 0.6809 0.0
H755 H 0.69713 0.25833 0.70735 0.0
H756 H 0.78525 0.22871 0.75965 0.0
H757 H 0.8359 0.29592 0.75894 0.0
H758 H 0.79302 0.31081 0.69127 0.0
C759 C 0.67008 0.1669 0.69947 0.0
C760 C 0.65335 0.13704 0.71618 0.0
C761 C 0.67477 0.13657 0.73596 0.0
C762 C 0.71185 0.16617 0.73977 0.0
C763 C 0.72715 0.19608 0.72363 0.0
C764 C 0.70731 0.19654 0.70363 0.0
C765 C 0.72908 0.23405 0.69056 0.0
C766 C 0.74098 0.22814 0.66555 0.0
C767 C 0.70586 0.25449 0.68918 0.0
C768 C 0.7633 0.25494 0.70689 0.0
C769 C 0.76161 0.23234 0.72578 0.0
C770 C 0.78757 0.2464 0.74461 0.0
C771 C 0.81605 0.28458 0.74415 0.0
C772 C 0.8186 0.30813 0.72488 0.0
C773 C 0.79222 0.29298 0.70586 0.0
H774 H 0.79983 0.4171 0.67593 0.0
H775 H 0.84568 0.5044 0.73055 0.0
H776 H 0.79236 0.51621 0.72455 0.0
H777 H 0.75222 0.46017 0.63761 0.0
H778 H 0.712 0.41381 0.63206 0.0
H779 H 0.75872 0.41954 0.63554 0.0
H780 H 0.73323 0.36935 0.66924 0.0
H781 H 0.68677 0.36387 0.66619 0.0
H782 H 0.71034 0.37632 0.69481 0.0
H783 H 0.72932 0.50866 0.71992 0.0
H784 H 0.66034 0.48375 0.71564 0.0
H785 H 0.65348 0.40125 0.66381 0.0
C786 C 0.79947 0.44 0.68563 0.0
C787 C 0.82691 0.46043 0.70333 0.0
C788 C 0.82498 0.48895 0.71668 0.0
C789 C 0.79492 0.49589 0.71333 0.0
C790 C 0.76709 0.47398 0.69659 0.0
C791 C 0.76919 0.44683 0.68273 0.0
C792 C 0.73262 0.42305 0.66897 0.0
C793 C 0.7393 0.42955 0.64194 0.0
C794 C 0.71471 0.38067 0.67519 0.0
C795 C 0.70899 0.43957 0.67838 0.0
C796 C 0.72975 0.46943 0.69393 0.0
C797 C 0.71301 0.48616 0.70726 0.0
C798 C 0.67396 0.47178 0.70484 0.0
C799 C 0.65236 0.44125 0.68912 0.0
C800 C 0.67001 0.42539 0.67538 0.0
H801 H -0.00123 0.83544 0.56149 0.0
H802 H 0.00412 0.80274 0.63461 0.0
H803 H 0.94369 0.80131 0.64342 0.0
H804 H 0.96608 0.89813 0.57516 0.0
H805 H 0.93576 0.88643 0.54929 0.0
H806 H 0.97722 0.88128 0.5482 0.0
H807 H 0.93571 0.81055 0.53602 0.0
H808 H 0.89438 0.816 0.53662 0.0
H809 H 0.89549 0.77954 0.55422 0.0
H810 H 0.8842 0.80758 0.64459 0.0
H811 H 0.831 0.81964 0.63795 0.0
H812 H 0.86643 0.84924 0.56414 0.0
C813 C 0.9871 0.82733 0.57932 0.0
C814 C 0.00635 0.81906 0.59735 0.0
C815 C 0.98995 0.80898 0.62044 0.0
C816 C 0.95563 0.80817 0.62561 0.0
C817 C 0.93799 0.81738 0.6075 0.0
C818 C 0.95314 0.82651 0.58477 0.0
C819 C 0.92989 0.83708 0.56869 0.0
C820 C 0.95366 0.87817 0.55983 0.0
C821 C 0.91285 0.8091 0.54765 0.0
C822 C 0.89943 0.83297 0.58597 0.0
C823 C 0.90437 0.82138 0.60823 0.0
C824 C 0.88001 0.81644 0.62717 0.0
C825 C 0.84988 0.82346 0.62322 0.0
C826 C 0.8444 0.83551 0.60052 0.0
C827 C 0.86966 0.84016 0.58173 0.0
H828 H 0.10715 0.07935 0.63344 0.0
H829 H 0.18002 0.14622 0.57505 0.0
H830 H 0.19971 0.09851 0.5688 0.0
H831 H 0.1683 0.04203 0.65577 0.0
H832 H 0.1282 -0.00401 0.66208 0.0
H833 H 0.12345 0.03766 0.66418 0.0
H834 H 0.06705 0.00784 0.63436 0.0
H835 H 0.07146 0.96609 0.63235 0.0
H836 H 0.07335 0.99159 0.60561 0.0
H837 H 0.20611 0.04113 0.56578 0.0
H838 H 0.19621 0.97618 0.56487 0.0
H839 H 0.12 0.94599 0.6254 0.0
C840 C 0.12784 0.08433 0.61966 0.0
C841 C 0.14215 0.11663 0.6048 0.0
C842 C 0.16858 0.12169 0.58664 0.0
C843 C 0.18019 0.09489 0.58306 0.0
C844 C 0.16522 0.06317 0.59782 0.0
C845 C 0.13956 0.05767 0.61573 0.0
C846 C 0.12503 0.01939 0.62754 0.0
C847 C 0.13697 0.02406 0.65396 0.0
C848 C 0.08167 -0.00521 0.62478 0.0
C849 C 0.14565 0.00374 0.61296 0.0
C850 C 0.16912 0.02977 0.59616 0.0
C851 C 0.18846 0.02078 0.57915 0.0
C852 C 0.18271 0.98388 0.57879 0.0
C853 C 0.15795 0.95643 0.59535 0.0
C854 C 0.14008 0.96684 0.61309 0.0
H855 H 0.98097 0.09517 0.64141 0.0
H856 H 0.99054 0.1488 0.57289 0.0
H857 H 0.92226 0.10619 0.56568 0.0
H858 H 0.92795 0.00632 0.62181 0.0
H859 H 0.89847 0.98718 0.64793 0.0
H860 H 0.94478 0.0281 0.65071 0.0
H861 H 0.91519 0.06534 0.67016 0.0
H862 H 0.86851 0.0243 0.66723 0.0
H863 H 0.87826 0.069 0.65467 0.0
H864 H 0.85849 0.05148 0.56203 0.0
H865 H 0.8056 0.98571 0.56069 0.0
H866 H 0.83629 0.96611 0.63136 0.0
C867 C 0.96826 0.09867 0.62529 0.0
C868 C 0.99071 0.12509 0.60772 0.0
C869 C 0.97366 0.12843 0.58651 0.0
C870 C 0.93484 0.10476 0.58242 0.0
C871 C 0.91354 0.07804 0.59975 0.0
C872 C 0.92961 0.07483 0.6208 0.0
C873 C 0.90233 0.03966 0.63448 0.0
C874 C 0.9194 0.01381 0.63896 0.0
C875 C 0.89036 0.05022 0.65803 0.0
C876 C 0.86962 0.02213 0.61695 0.0
C877 C 0.87608 0.04544 0.59746 0.0
C878 C 0.85255 0.03334 0.57743 0.0
C879 C 0.8227 -0.00413 0.57677 0.0
C880 C 0.81701 0.97096 0.59594 0.0
C881 C 0.83956 0.98483 0.61671 0.0
H882 H 0.19613 0.44394 0.16627 0.0
H883 H 0.08254 0.36762 0.13982 0.0
H884 H 0.05561 0.38017 0.17613 0.0
H885 H 0.17393 0.42187 0.23137 0.0
H886 H 0.20531 0.47047 0.24003 0.0
H887 H 0.216 0.45111 0.21418 0.0
H888 H 0.21953 0.50457 0.18774 0.0
H889 H 0.20935 0.52478 0.21332 0.0
H890 H 0.17981 0.51276 0.18704 0.0
H891 H 0.04168 0.40877 0.21214 0.0
H892 H 0.04175 0.44947 0.24499 0.0
H893 H 0.16485 0.50622 0.24771 0.0
C894 C 0.16555 0.42915 0.16835 0.0
C895 C 0.14135 0.40489 0.15024 0.0
C896 C 0.10155 0.38611 0.15358 0.0
C897 C 0.08606 0.39307 0.17414 0.0
C898 C 0.11081 0.41821 0.19131 0.0
C899 C 0.14977 0.43547 0.18878 0.0
C900 C 0.17029 0.46381 0.20862 0.0
C901 C 0.19267 0.45101 0.2245 0.0
C902 C 0.19624 0.50383 0.19857 0.0
C903 C 0.13689 0.46142 0.22197 0.0
C904 C 0.10278 0.43451 0.21205 0.0
C905 C 0.06819 0.42939 0.22033 0.0
C906 C 0.06856 0.45276 0.23896 0.0
C907 C 0.10333 0.48108 0.24899 0.0
C908 C 0.13776 0.48467 0.24065 0.0
H909 H 0.47266 0.67347 0.10222 0.0
H910 H 0.59023 0.70459 0.09018 0.0
H911 H 0.58694 0.66451 0.12419 0.0
H912 H 0.47912 0.68185 0.16269 0.0
H913 H 0.4325 0.64276 0.16915 0.0
H914 H 0.44131 0.66725 0.14114 0.0
H915 H 0.41777 0.60412 0.11801 0.0
H916 H 0.4083 0.57913 0.14599 0.0
H917 H 0.43869 0.57502 0.12414 0.0
H918 H 0.57322 0.62765 0.16236 0.0
H919 H 0.55023 0.59735 0.20178 0.0
H920 H 0.44296 0.59359 0.18936 0.0
C921 C 0.4974 0.67097 0.10621 0.0
C922 C 0.53166 0.69203 0.09352 0.0
C923 C 0.56364 0.68861 0.09967 0.0
C924 C 0.56201 0.66582 0.11889 0.0
C925 C 0.5282 0.64667 0.13166 0.0
C926 C 0.4964 0.64884 0.12546 0.0
C927 C 0.46495 0.6292 0.14356 0.0
C928 C 0.45386 0.65693 0.15479 0.0
C929 C 0.43039 0.59482 0.13225 0.0
C930 C 0.48458 0.61701 0.16144 0.0
C931 C 0.52071 0.62654 0.15404 0.0
C932 C 0.5448 0.61959 0.1682 0.0
C933 C 0.53158 0.60252 0.19055 0.0
C934 C 0.49495 0.59339 0.1986 0.0
C935 C 0.47119 0.60049 0.18371 0.0
H936 H 0.35342 0.93347 0.22579 0.0
H937 H 0.44053 0.01789 0.18026 0.0
H938 H 0.39111 0.00996 0.15111 0.0
H939 H 0.30586 0.87141 0.18395 0.0
H940 H 0.25863 0.85448 0.19538 0.0
H941 H 0.29831 0.87491 0.21543 0.0
H942 H 0.27962 0.92389 0.22984 0.0
H943 H 0.23938 0.90334 0.20986 0.0
H944 H 0.27338 0.9533 0.20837 0.0
H945 H 0.3357 0.98084 0.12309 0.0
H946 H 0.28007 0.93464 0.0995 0.0
H947 H 0.22894 0.86971 0.16345 0.0
C948 C 0.36188 0.95139 0.21011 0.0
C949 C 0.40058 0.97628 0.20516 0.0
C950 C 0.4109 -0.00096 0.18444 0.0
C951 C 0.38298 0.99466 0.16784 0.0
C952 C 0.34504 0.96808 0.1726 0.0
C953 C 0.33447 0.94735 0.19355 0.0
C954 C 0.29319 0.91653 0.19305 0.0
C955 C 0.2888 0.87705 0.19717 0.0
C956 C 0.27003 0.92479 0.21137 0.0
C957 C 0.28284 0.92097 0.16779 0.0
C958 C 0.31271 0.95155 0.15646 0.0
C959 C 0.31167 0.95781 0.13201 0.0
C960 C 0.28002 0.93156 0.11874 0.0
C961 C 0.25007 0.89964 0.13001 0.0
C962 C 0.25094 0.89495 0.15483 0.0
H963 H 0.36613 0.13433 0.83228 0.0
H964 H 0.32774 0.05005 0.88818 0.0
H965 H 0.34092 0.00851 0.86197 0.0
H966 H 0.33406 0.06601 0.77933 0.0
H967 H 0.37574 0.09848 0.76276 0.0
H968 H 0.35452 0.11641 0.78357 0.0
H969 H 0.41907 0.15448 0.80531 0.0
H970 H 0.44042 0.13652 0.78492 0.0
H971 H 0.44247 0.12993 0.81663 0.0
H972 H 0.37105 0.98306 0.83257 0.0
H973 H 0.4134 0.97629 0.80349 0.0
H974 H 0.43054 0.07756 0.76713 0.0
C975 C 0.35892 0.10634 0.83852 0.0
C976 C 0.34545 0.09488 0.86193 0.0
C977 C 0.33727 0.05873 0.87001 0.0
C978 C 0.3448 0.03513 0.85525 0.0
C979 C 0.3598 0.04803 0.83245 0.0
C980 C 0.36603 0.08262 0.82403 0.0
C981 C 0.38669 0.09264 0.80038 0.0
C982 C 0.36122 0.09341 0.78032 0.0
C983 C 0.42437 0.13059 0.80194 0.0
C984 C 0.39333 0.0595 0.79742 0.0
C985 C 0.37703 0.03353 0.81573 0.0
C986 C 0.38309 0.00273 0.81786 0.0
C987 C 0.40716 -0.00095 0.80126 0.0
C988 C 0.42526 0.0264 0.78307 0.0
C989 C 0.41701 0.05608 0.78078 0.0
H990 H 0.92796 0.42444 0.83081 0.0
H991 H 0.97085 0.36395 0.78948 0.0
H992 H 0.95975 0.32132 0.82383 0.0
H993 H 0.95855 0.40682 0.89339 0.0
H994 H 0.91551 0.40161 0.90617 0.0
H995 H 0.93865 0.43465 0.88211 0.0
H996 H 0.87636 0.4024 0.85772 0.0
H997 H 0.85296 0.36921 0.88132 0.0
H998 H 0.85372 0.35222 0.85162 0.0
H999 H 0.92805 0.27615 0.85745 0.0
H1000 H 0.88086 0.23412 0.88721 0.0
H1001 H 0.85816 0.32425 0.90627 0.0
C1002 C 0.93692 0.40347 0.82964 0.0
C1003 C 0.95065 0.39744 0.80797 0.0
C1004 C 0.9611 0.36925 0.80631 0.0
C1005 C 0.95482 0.345 0.82571 0.0
C1006 C 0.9388 0.35004 0.84654 0.0
C1007 C 0.93084 0.3793 0.84878 0.0
C1008 C 0.90787 0.37511 0.87098 0.0
C1009 C 0.93158 0.40641 0.88924 0.0
C1010 C 0.87054 0.37465 0.86502 0.0
C1011 C 0.90074 0.33699 0.87956 0.0
C1012 C 0.91991 0.32354 0.86586 0.0
C1013 C 0.91383 0.28685 0.86874 0.0
C1014 C 0.88687 0.26312 0.88559 0.0
C1015 C 0.86583 0.27601 0.89885 0.0
C1016 C 0.87392 0.31375 0.89633 0.0
H1017 H 0.62677 0.47324 0.76219 0.0
H1018 H 0.5549 0.52294 0.77232 0.0
H1019 H 0.60232 0.56975 0.80064 0.0
H1020 H 0.65406 0.4772 0.8207 0.0
H1021 H 0.7017 0.48788 0.81373 0.0
H1022 H 0.66416 0.46231 0.79257 0.0
H1023 H 0.70253 0.51273 0.76039 0.0
H1024 H 0.74014 0.53894 0.7816 0.0
H1025 H 0.71819 0.56195 0.76622 0.0
H1026 H 0.65505 0.60605 0.83151 0.0
H1027 H 0.70477 0.62493 0.86274 0.0
H1028 H 0.74101 0.55146 0.8303 0.0
C1029 C 0.6209 0.49402 0.77024 0.0
C1030 C 0.58697 0.4942 0.76534 0.0
C1031 C 0.58074 0.52227 0.77596 0.0
C1032 C 0.60759 0.54906 0.7919 0.0
C1033 C 0.64071 0.54773 0.7965 0.0
C1034 C 0.64734 0.52092 0.78579 0.0
C1035 C 0.68339 0.52316 0.7947 0.0
C1036 C 0.67532 0.48542 0.80611 0.0
C1037 C 0.71282 0.53492 0.77452 0.0
C1038 C 0.6953 0.55422 0.81308 0.0
C1039 C 0.67094 0.56877 0.81366 0.0
C1040 C 0.6747 0.5954 0.83087 0.0
C1041 C 0.70309 0.60615 0.84843 0.0
C1042 C 0.72664 0.58971 0.84867 0.0
C1043 C 0.72355 0.56469 0.83026 0.0
H1044 H 0.93455 0.49802 0.81984 0.0
H1045 H 0.96546 0.5832 0.76511 0.0
H1046 H 0.95891 0.62547 0.79449 0.0
H1047 H 0.86246 0.50234 0.84094 0.0
H1048 H 0.86792 0.49512 0.87216 0.0
H1049 H 0.88719 0.47785 0.8499 0.0
H1050 H 0.95378 0.5159 0.86916 0.0
H1051 H 0.93457 0.53323 0.89179 0.0
H1052 H 0.97446 0.56619 0.87406 0.0
H1053 H 0.93371 0.65035 0.82625 0.0
H1054 H 0.89091 0.65442 0.85599 0.0
H1055 H 0.87569 0.55209 0.88976 0.0
C1056 C 0.94169 0.52639 0.81449 0.0
C1057 C 0.95092 0.53795 0.7906 0.0
C1058 C 0.95907 0.5745 0.78361 0.0
C1059 C 0.95548 0.59855 0.80019 0.0
C1060 C 0.94431 0.58554 0.82356 0.0
C1061 C 0.93811 0.55037 0.83076 0.0
C1062 C 0.91983 0.53968 0.85515 0.0
C1063 C 0.88214 0.50156 0.85445 0.0
C1064 C 0.94732 0.53873 0.87363 0.0
C1065 C 0.91347 0.57268 0.8597 0.0
C1066 C 0.92903 0.59961 0.8418 0.0
C1067 C 0.92239 0.63007 0.84069 0.0
C1068 C 0.89803 0.63217 0.85766 0.0
C1069 C 0.88007 0.60347 0.87507 0.0
C1070 C 0.88934 0.5745 0.8767 0.0
H1071 H 0.35572 0.20242 0.82503 0.0
H1072 H 0.32011 0.27023 0.86508 0.0
H1073 H 0.33083 0.31039 0.82943 0.0
H1074 H 0.4307 0.27117 0.80272 0.0
H1075 H 0.43004 0.25205 0.77348 0.0
H1076 H 0.40613 0.2206 0.79778 0.0
H1077 H 0.34306 0.18914 0.77407 0.0
H1078 H 0.36692 0.22014 0.74922 0.0
H1079 H 0.32502 0.21798 0.76177 0.0
H1080 H 0.36155 0.35203 0.79433 0.0
H1081 H 0.40935 0.39112 0.76403 0.0
H1082 H 0.42719 0.29705 0.74759 0.0
C1083 C 0.34812 0.22444 0.82567 0.0
C1084 C 0.33649 0.23315 0.84727 0.0
C1085 C 0.32813 0.26284 0.84829 0.0
C1086 C 0.33416 0.28567 0.82814 0.0
C1087 C 0.34814 0.27792 0.8073 0.0
C1088 C 0.35434 0.24743 0.80585 0.0
C1089 C 0.37639 0.24921 0.78365 0.0
C1090 C 0.41295 0.24826 0.78981 0.0
C1091 C 0.35133 0.21722 0.76614 0.0
C1092 C 0.38498 0.2873 0.77407 0.0
C1093 C 0.36716 0.30276 0.78728 0.0
C1094 C 0.37474 0.33977 0.78346 0.0
C1095 C 0.40201 0.36182 0.76629 0.0
C1096 C 0.42195 0.34698 0.75369 0.0
C1097 C 0.4122 0.30891 0.75702 0.0
H1098 H 0.62494 0.0917 0.78721 0.0
H1099 H 0.54897 0.98114 0.81704 0.0
H1100 H 0.59365 -0.00439 0.85114 0.0
H1101 H 0.71641 0.09857 0.80824 0.0
H1102 H 0.73643 0.14888 0.81269 0.0
H1103 H 0.70189 0.12482 0.78937 0.0
H1104 H 0.66146 0.15228 0.80731 0.0
H1105 H 0.6951 0.1746 0.83109 0.0
H1106 H 0.64605 0.14194 0.83799 0.0
H1107 H 0.64356 0.02741 0.88481 0.0
H1108 H 0.6906 0.07254 0.91404 0.0
H1109 H 0.73091 0.16155 0.86106 0.0
C1110 C 0.61806 0.07008 0.80061 0.0
C1111 C 0.58357 0.0354 0.79963 0.0
C1112 C 0.57548 0.00781 0.81745 0.0
C1113 C 0.6007 0.01585 0.83681 0.0
C1114 C 0.63402 0.05119 0.83764 0.0
C1115 C 0.64276 0.07755 0.8197 0.0
C1116 C 0.67794 0.11476 0.82537 0.0
C1117 C 0.71011 0.12221 0.80789 0.0
C1118 C 0.6696 0.14779 0.82546 0.0
C1119 C 0.68654 0.10641 0.85008 0.0
C1120 C 0.6618 0.06932 0.85674 0.0
C1121 C 0.66338 0.05622 0.87954 0.0
C1122 C 0.6902 0.08193 0.896 0.0
C1123 C 0.71428 0.12031 0.88962 0.0
C1124 C 0.71292 0.13224 0.86625 0.0
H1125 H 0.53787 0.81198 0.12791 0.0
H1126 H 0.60769 0.90557 0.08094 0.0
H1127 H 0.61189 0.95101 0.1122 0.0
H1128 H 0.48286 0.84486 0.14958 0.0
H1129 H 0.4798 0.8284 0.17983 0.0
H1130 H 0.48862 0.80455 0.15579 0.0
H1131 H 0.54956 0.81481 0.17708 0.0
H1132 H 0.54148 0.83932 0.20127 0.0
H1133 H 0.58584 0.86205 0.18532 0.0
H1134 H 0.59818 0.98473 0.14616 0.0
H1135 H 0.57037 0.00297 0.17968 0.0
H1136 H 0.51213 0.88634 0.20403 0.0
C1137 C 0.55501 0.84212 0.12456 0.0
C1138 C 0.57253 0.85555 0.10227 0.0
C1139 C 0.5945 0.895 0.09818 0.0
C1140 C 0.59697 0.92089 0.11579 0.0
C1141 C 0.57812 0.90664 0.13744 0.0
C1142 C 0.55827 0.86808 0.142 0.0
C1143 C 0.53783 0.8594 0.16565 0.0
C1144 C 0.49475 0.83277 0.1625 0.0
C1145 C 0.5547 0.84292 0.18337 0.0
C1146 C 0.54703 0.89876 0.173 0.0
C1147 C 0.57085 0.9259 0.15688 0.0
C1148 C 0.58021 0.96381 0.15917 0.0
C1149 C 0.56428 0.97393 0.17819 0.0
C1150 C 0.53892 0.94604 0.19433 0.0
C1151 C 0.53128 0.90836 0.19194 0.0
H1152 H 0.14425 0.70043 0.13732 0.0
H1153 H 0.08427 0.75951 0.15752 0.0
H1154 H 0.05705 0.71684 0.19249 0.0
H1155 H 0.07216 0.60478 0.15779 0.0
H1156 H 0.10844 0.59484 0.16783 0.0
H1157 H 0.11725 0.62562 0.14263 0.0
H1158 H 0.17742 0.67834 0.1637 0.0
H1159 H 0.16878 0.64797 0.18894 0.0
H1160 H 0.17333 0.69399 0.19319 0.0
H1161 H 0.04326 0.67214 0.22807 0.0
H1162 H 0.04579 0.63183 0.26048 0.0
H1163 H 0.11702 0.60541 0.21608 0.0
C1164 C 0.12489 0.70415 0.14883 0.0
C1165 C 0.11653 0.73339 0.14486 0.0
C1166 C 0.0909 0.73711 0.16025 0.0
C1167 C 0.07531 0.71299 0.18009 0.0
C1168 C 0.08532 0.68518 0.1839 0.0
C1169 C 0.10934 0.68061 0.16848 0.0
C1170 C 0.11904 0.65153 0.17735 0.0
C1171 C 0.10326 0.61715 0.16039 0.0
C1172 C 0.16217 0.66903 0.18102 0.0
C1173 C 0.0981 0.64144 0.2008 0.0
C1174 C 0.07804 0.66034 0.20419 0.0
C1175 C 0.05839 0.65682 0.2254 0.0
C1176 C 0.05994 0.63393 0.24366 0.0
C1177 C 0.0817 0.6158 0.2406 0.0
C1178 C 0.10024 0.61908 0.21878 0.0
H1179 H 0.32599 0.45869 0.23668 0.0
H1180 H 0.41317 0.43076 0.21901 0.0
H1181 H 0.37583 0.39421 0.18413 0.0
H1182 H 0.24159 0.36735 0.21228 0.0
H1183 H 0.2198 0.39348 0.20113 0.0
H1184 H 0.24758 0.40853 0.22826 0.0
H1185 H 0.28928 0.47514 0.21043 0.0
H1186 H 0.26315 0.46123 0.18286 0.0
H1187 H 0.31374 0.48021 0.1826 0.0
H1188 H 0.33869 0.37671 0.14571 0.0
H1189 H 0.29967 0.37232 0.11022 0.0
H1190 H 0.23616 0.40943 0.1537 0.0
C1191 C 0.33638 0.44337 0.22616 0.0
C1192 C 0.37256 0.4478 0.23054 0.0
C1193 C 0.38541 0.42769 0.21615 0.0
C1194 C 0.36441 0.40686 0.19619 0.0
C1195 C 0.33021 0.40562 0.19124 0.0
C1196 C 0.3157 0.4224 0.20627 0.0
C1197 C 0.2812 0.42156 0.19548 0.0
C1198 C 0.24542 0.39622 0.21017 0.0
C1199 C 0.28723 0.4619 0.19269 0.0
C1200 C 0.27998 0.40388 0.1715 0.0
C1201 C 0.30814 0.39443 0.16933 0.0
C1202 C 0.31562 0.38262 0.14748 0.0
C1203 C 0.29367 0.38043 0.12743 0.0
C1204 C 0.26488 0.38998 0.12967 0.0
C1205 C 0.2576 0.40114 0.15194 0.0
H1206 H 0.77132 0.7608 0.5315 0.0
H1207 H 0.66775 0.74429 0.49849 0.0
H1208 H 0.68095 0.71616 0.46291 0.0
H1209 H 0.82518 0.79793 0.48416 0.0
H1210 H 0.85591 0.77833 0.48862 0.0
H1211 H 0.83228 0.78488 0.51368 0.0
H1212 H 0.80238 0.71373 0.52437 0.0
H1213 H 0.82615 0.707 0.4992 0.0
H1214 H 0.77536 0.67813 0.50216 0.0
H1215 H 0.71287 0.70308 0.42791 0.0
H1216 H 0.75986 0.70811 0.39766 0.0
H1217 H 0.84421 0.73876 0.4534 0.0
C1218 C 0.75055 0.74973 0.5172 0.0
C1219 C 0.71848 0.7545 0.5177 0.0
C1220 C 0.69217 0.74027 0.49859 0.0
C1221 C 0.69958 0.72439 0.4783 0.0
C1222 C 0.73313 0.72268 0.47767 0.0
C1223 C 0.75793 0.73463 0.49688 0.0
C1224 C 0.79503 0.73653 0.49067 0.0
C1225 C 0.82906 0.77679 0.49449 0.0
C1226 C 0.8 0.70707 0.50494 0.0
C1227 C 0.78841 0.72614 0.46451 0.0
C1228 C 0.75215 0.71691 0.4574 0.0
C1229 C 0.74097 0.70944 0.43345 0.0
C1230 C 0.76775 0.71236 0.41639 0.0
C1231 C 0.8054 0.72371 0.4234 0.0
C1232 C 0.81542 0.72973 0.44775 0.0
H1233 H 0.24748 0.02756 0.43904 0.0
H1234 H 0.35068 0.09119 0.48024 0.0
H1235 H 0.34047 0.03127 0.49858 0.0
H1236 H 0.19475 0.97398 0.48396 0.0
H1237 H 0.16612 0.93221 0.46616 0.0
H1238 H 0.18819 0.97803 0.45248 0.0
H1239 H 0.22062 0.95442 0.42185 0.0
H1240 H 0.19879 0.90888 0.43638 0.0
H1241 H 0.24961 0.93554 0.4327 0.0
H1242 H 0.31068 0.96748 0.51888 0.0
H1243 H 0.26429 0.90895 0.53975 0.0
H1244 H 0.18075 0.88821 0.48504 0.0
C1245 C 0.26861 0.02869 0.45137 0.0
C1246 C 0.29968 0.06364 0.45843 0.0
C1247 C 0.32681 0.06443 0.47456 0.0
C1248 C 0.32123 0.03054 0.48494 0.0
C1249 C 0.2889 -0.00354 0.47851 0.0
C1250 C 0.26331 -0.00454 0.46179 0.0
C1251 C 0.22763 0.95725 0.46074 0.0
C1252 C 0.19214 0.96059 0.46617 0.0
C1253 C 0.22398 0.93788 0.43647 0.0
C1254 C 0.23583 0.9373 0.48055 0.0
C1255 C 0.27169 0.95979 0.49022 0.0
C1256 C 0.28309 0.94922 0.511 0.0
C1257 C 0.25664 0.9159 0.52271 0.0
C1258 C 0.21921 0.89426 0.51378 0.0
C1259 C 0.20947 0.90412 0.49191 0.0
H1260 H 0.0941 0.28669 0.52991 0.0
H1261 H 0.03391 0.27207 0.59617 0.0
H1262 H 0.97827 0.26483 0.57385 0.0
H1263 H 0.04024 0.33148 0.49459 0.0
H1264 H 0.04205 0.30748 0.46792 0.0
H1265 H 0.08109 0.32632 0.48883 0.0
H1266 H 0.07528 0.25989 0.49222 0.0
H1267 H 0.03746 0.24261 0.47108 0.0
H1268 H 0.02981 0.21959 0.49973 0.0
H1269 H 0.92443 0.2384 0.54502 0.0
H1270 H 0.87985 0.20021 0.51259 0.0
H1271 H 0.97478 0.23214 0.46493 0.0
C1272 C 0.07009 0.28472 0.53957 0.0
C1273 C 0.06825 0.28082 0.56456 0.0
C1274 C 0.03603 0.27636 0.57699 0.0
C1275 C 0.00425 0.27204 0.5644 0.0
C1276 C 0.00564 0.2731 0.53946 0.0
C1277 C 0.03837 0.28073 0.52718 0.0
C1278 C 0.03092 0.27416 0.50061 0.0
C1279 C 0.04968 0.31212 0.4872 0.0
C1280 C 0.04408 0.24738 0.49042 0.0
C1281 C 0.98817 0.2563 0.50032 0.0
C1282 C 0.97415 0.25763 0.52263 0.0
C1283 C 0.93511 0.23844 0.52729 0.0
C1284 C 0.90997 0.2167 0.50889 0.0
C1285 C 0.92423 0.21383 0.48646 0.0
C1286 C 0.96351 0.23473 0.48195 0.0
H1287 H 0.21021 0.29391 0.53515 0.0
H1288 H 0.25677 0.2771 0.60026 0.0
H1289 H 0.30558 0.27175 0.57699 0.0
H1290 H 0.20713 0.22771 0.5045 0.0
H1291 H 0.22112 0.25044 0.47573 0.0
H1292 H 0.20108 0.26762 0.49731 0.0
H1293 H 0.26069 0.33451 0.49399 0.0
H1294 H 0.28055 0.31652 0.4722 0.0
H1295 H 0.30722 0.34037 0.49866 0.0
H1296 H 0.33321 0.24697 0.54684 0.0
H1297 H 0.33962 0.21043 0.51329 0.0
H1298 H 0.27432 0.24259 0.46786 0.0
C1299 C 0.2324 0.29165 0.54442 0.0
C1300 C 0.23031 0.2862 0.56927 0.0
C1301 C 0.25867 0.2821 0.58119 0.0
C1302 C 0.28639 0.27892 0.56804 0.0
C1303 C 0.2857 0.28093 0.54312 0.0
C1304 C 0.26014 0.28861 0.53147 0.0
C1305 C 0.26018 0.28263 0.5048 0.0
C1306 C 0.21999 0.25541 0.49511 0.0
C1307 C 0.27825 0.32078 0.49164 0.0
C1308 C 0.28557 0.2654 0.5036 0.0
C1309 C 0.30157 0.26626 0.52561 0.0
C1310 C 0.32199 0.24739 0.52936 0.0
C1311 C 0.32536 0.22656 0.51034 0.0
C1312 C 0.30755 0.2242 0.48824 0.0
C1313 C 0.28855 0.2447 0.48466 0.0
H1314 H 0.78167 0.01528 0.43836 0.0
H1315 H 0.75084 0.08349 0.48206 0.0
H1316 H 0.70203 0.02536 0.50239 0.0
H1317 H 0.68265 0.92408 0.43762 0.0
H1318 H 0.70535 0.89573 0.4391 0.0
H1319 H 0.72756 0.93988 0.42294 0.0
H1320 H 0.78863 0.96293 0.44811 0.0
H1321 H 0.76692 0.91932 0.46425 0.0
H1322 H 0.78571 0.9636 0.48029 0.0
H1323 H 0.67085 0.96411 0.52464 0.0
H1324 H 0.66336 0.90859 0.54712 0.0
H1325 H 0.71472 0.8804 0.48872 0.0
C1326 C 0.76341 0.0176 0.45152 0.0
C1327 C 0.76966 0.05335 0.45878 0.0
C1328 C 0.74594 0.05602 0.47618 0.0
C1329 C 0.71813 0.02315 0.48768 0.0
C1330 C 0.71407 0.98813 0.48104 0.0
C1331 C 0.73578 0.98524 0.46295 0.0
C1332 C 0.73163 0.94626 0.46186 0.0
C1333 C 0.71052 0.92524 0.43902 0.0
C1334 C 0.7705 0.9482 0.46379 0.0
C1335 C 0.70744 0.92876 0.48375 0.0
C1336 C 0.69609 0.95256 0.49402 0.0
C1337 C 0.67842 0.94473 0.51636 0.0
C1338 C 0.67416 0.91308 0.529 0.0
C1339 C 0.68834 0.89042 0.51941 0.0
C1340 C 0.70315 0.89716 0.49608 0.0
H1341 H 0.10213 0.79359 0.48097 0.0
H1342 H 0.02524 0.70334 0.52758 0.0
H1343 H 0.98209 0.67141 0.49334 0.0
H1344 H 0.03837 0.80613 0.45439 0.0
H1345 H 0.05831 0.81668 0.42472 0.0
H1346 H 0.08857 0.82488 0.44994 0.0
H1347 H 0.11194 0.78187 0.43118 0.0
H1348 H 0.08156 0.77352 0.40566 0.0
H1349 H 0.07799 0.73406 0.42236 0.0
H1350 H 0.9412 0.65835 0.45742 0.0
H1351 H 0.90536 0.66788 0.42501 0.0
H1352 H 0.00808 0.76784 0.40209 0.0
C1353 C 0.07717 0.76602 0.48349 0.0
C1354 C 0.06714 0.75012 0.50644 0.0
C1355 C 0.03358 0.71513 0.50981 0.0
C1356 C 0.00909 0.69688 0.49045 0.0
C1357 C 0.01883 0.71412 0.468 0.0
C1358 C 0.05243 0.74787 0.46442 0.0
C1359 C 0.05313 0.76468 0.44021 0.0
C1360 C 0.05993 0.80544 0.44249 0.0
C1361 C 0.08292 0.76344 0.42389 0.0
C1362 C 0.01341 0.73715 0.43166 0.0
C1363 C -0.00543 0.70722 0.44736 0.0
C1364 C 0.95597 0.68097 0.44466 0.0
C1365 C 0.9358 0.68648 0.42619 0.0
C1366 C 0.95425 0.71846 0.41118 0.0
C1367 C -0.0063 0.74291 0.41325 0.0
H1368 H 0.23055 0.31217 0.04375 0.0
H1369 H 0.15795 0.31592 0.98821 0.0
H1370 H 0.17917 0.28265 0.96055 0.0
H1371 H 0.30791 0.33206 0.00555 0.0
H1372 H 0.32116 0.30157 0.02101 0.0
H1373 H 0.29799 0.32282 0.037 0.0
H1374 H 0.24526 0.25642 0.05067 0.0
H1375 H 0.26841 0.23495 0.03484 0.0
H1376 H 0.21943 0.22013 0.02859 0.0
H1377 H 0.20902 0.24951 0.93885 0.0
H1378 H 0.24716 0.22154 0.92427 0.0
H1379 H 0.30282 0.24305 0.99342 0.0
C1380 C 0.21861 0.3054 0.0259 0.0
C1381 C 0.19227 0.31621 0.01819 0.0
C1382 C 0.17805 0.30773 0.9945 0.0
C1383 C 0.18988 0.28882 0.97869 0.0
C1384 C 0.21628 0.279 0.98677 0.0
C1385 C 0.23061 0.28716 0.00978 0.0
C1386 C 0.26025 0.2755 0.01364 0.0
C1387 C 0.29912 0.31005 0.01965 0.0
C1388 C 0.24756 0.24493 0.03308 0.0
C1389 C 0.26043 0.25954 0.98918 0.0
C1390 C 0.2346 0.26143 0.974 0.0
C1391 C 0.22939 0.24795 0.95057 0.0
C1392 C 0.25114 0.23208 0.94246 0.0
C1393 C 0.27813 0.23031 0.95764 0.0
C1394 C 0.28274 0.24435 0.98128 0.0
H1395 H 0.67231 0.07382 -0.00208 0.0
H1396 H 0.78811 0.09732 0.00632 0.0
H1397 H 0.76486 0.02991 0.01496 0.0
H1398 H 0.62677 0.99225 0.04253 0.0
H1399 H 0.58594 0.96712 0.02337 0.0
H1400 H 0.61109 0.0182 0.02418 0.0
H1401 H 0.61918 0.01888 0.97817 0.0
H1402 H 0.59546 0.96799 0.97725 0.0
H1403 H 0.64265 -0.00458 0.96518 0.0
H1404 H 0.73103 0.96066 0.01524 0.0
H1405 H 0.68693 0.89197 0.01153 0.0
H1406 H 0.59319 0.91316 0.00089 0.0
C1407 C 0.69244 0.06485 0.00277 0.0
C1408 C 0.7317 0.09011 0.00181 0.0
C1409 C 0.7578 0.07784 0.00724 0.0
C1410 C 0.74491 0.03982 0.01217 0.0
C1411 C 0.70599 0.01491 0.0115 0.0
C1412 C 0.68 0.02685 0.00734 0.0
C1413 C 0.64027 0.99372 0.00441 0.0
C1414 C 0.6145 0.99277 0.02485 0.0
C1415 C 0.62345 0.99405 0.97979 0.0
C1416 C 0.64843 0.96152 0.00635 0.0
C1417 C 0.68636 0.97435 0.01083 0.0
C1418 C 0.70109 0.95007 0.01223 0.0
C1419 C 0.67597 0.91128 0.00984 0.0
C1420 C 0.63684 0.89755 0.00585 0.0
C1421 C 0.62306 0.92301 0.0037 0.0
H1422 H 0.91684 0.68592 0.95274 0.0
H1423 H 0.83944 0.6697 0.01087 0.0
H1424 H 0.89335 0.69866 0.03905 0.0
H1425 H 0.97493 0.66101 0.98558 0.0
H1426 H 0.01885 0.69526 0.97178 0.0
H1427 H 0.97489 0.67692 0.95553 0.0
H1428 H 0.98734 0.74514 0.94867 0.0
H1429 H 0.03165 0.76375 0.96461 0.0
H1430 H -0.00322 0.77618 0.97398 0.0
H1431 H 0.95485 0.72632 0.06121 0.0
H1432 H 0.02053 0.75232 0.07584 0.0
H1433 H 0.05752 0.74815 0.00355 0.0
C1434 C 0.91141 0.68935 0.97128 0.0
C1435 C 0.87409 0.67592 0.97963 0.0
C1436 C 0.8679 0.67994 0.00414 0.0
C1437 C 0.89829 0.69632 0.02026 0.0
C1438 C 0.93463 0.70831 0.01162 0.0
C1439 C 0.9414 0.70518 0.98771 0.0
C1440 C 0.98291 0.71837 0.98335 0.0
C1441 C 0.98818 0.68595 0.97348 0.0
C1442 C 0.00072 0.75292 0.96667 0.0
C1443 C -0.00172 0.72907 0.00856 0.0
C1444 C 0.97002 0.72329 0.02455 0.0
C1445 C 0.9773 0.73112 0.04886 0.0
C1446 C 0.01467 0.74578 0.057 0.0
C1447 C 0.04417 0.75214 0.04088 0.0
C1448 C 0.03561 0.74331 0.01639 0.0
H1449 H 0.60527 0.69844 0.01104 0.0
H1450 H 0.61523 0.76913 0.95036 0.0
H1451 H 0.65208 0.74529 0.92864 0.0
H1452 H 0.69622 0.71356 0.00958 0.0
H1453 H 0.68417 0.666 0.01762 0.0
H1454 H 0.6544 0.68461 0.02713 0.0
H1455 H 0.59605 0.62814 0.00697 0.0
H1456 H 0.62556 0.60897 -0.00236 0.0
H1457 H 0.59831 0.61788 0.97582 0.0
H1458 H 0.69452 0.72039 0.91602 0.0
H1459 H 0.73522 0.69157 0.91181 0.0
H1460 H 0.69582 0.6367 0.98069 0.0
C1461 C 0.61464 0.70841 0.99302 0.0
C1462 C 0.6077 0.73566 0.98236 0.0
C1463 C 0.62021 0.74804 0.95875 0.0
C1464 C 0.64114 0.73474 0.94631 0.0
C1465 C 0.64855 0.70874 0.95768 0.0
C1466 C 0.63514 0.69523 0.98034 0.0
C1467 C 0.64868 0.669 0.98914 0.0
C1468 C 0.67227 0.68423 0.01222 0.0
C1469 C 0.61515 0.6286 0.99258 0.0
C1470 C 0.673 0.671 0.96824 0.0
C1471 C 0.67245 0.69386 0.95022 0.0
C1472 C 0.69473 0.70188 0.92981 0.0
C1473 C 0.71795 0.68571 0.9277 0.0
C1474 C 0.7185 0.66189 0.94593 0.0
C1475 C 0.69563 0.65445 0.96635 0.0
H1476 H 0.19663 0.89919 0.99542 0.0
H1477 H 0.18964 0.93537 0.06758 0.0
H1478 H 0.2206 0.00142 0.05428 0.0
H1479 H 0.28702 0.97651 0.98125 0.0
H1480 H 0.2757 0.98107 0.95071 0.0
H1481 H 0.25119 0.93571 0.96531 0.0
H1482 H 0.18652 0.93102 0.95595 0.0
H1483 H 0.21084 0.97625 0.94113 0.0
H1484 H 0.17832 0.96883 0.96517 0.0
H1485 H 0.25747 0.06363 0.0348 0.0
H1486 H 0.29224 0.11903 0.00847 0.0
H1487 H 0.27228 0.04392 0.94816 0.0
C1488 C 0.20117 0.92097 0.00832 0.0
C1489 C 0.19058 0.9119 0.03254 0.0
C1490 C 0.19713 0.94133 0.04888 0.0
C1491 C 0.2149 0.97909 0.04156 0.0
C1492 C 0.22554 0.98712 0.01776 0.0
C1493 C 0.21844 0.95901 0.00124 0.0
C1494 C 0.23304 0.9758 0.97672 0.0
C1495 C 0.26355 0.96673 0.968 0.0
C1496 C 0.20022 0.96216 0.95868 0.0
C1497 C 0.24998 0.01766 0.98229 0.0
C1498 C 0.24557 0.02344 0.00614 0.0
C1499 C 0.26065 0.05958 0.01599 0.0
C1500 C 0.28052 0.0908 0.00097 0.0
C1501 C 0.28458 0.0856 0.97635 0.0
C1502 C 0.26902 0.04856 0.96689 0.0
H1503 H 0.89802 0.21351 0.99543 0.0
H1504 H 0.85438 0.28039 0.02895 0.0
H1505 H 0.91447 0.31672 0.05123 0.0
H1506 H 0.95191 0.21118 0.04853 0.0
H1507 H 0.98993 0.2142 0.03033 0.0
H1508 H 0.94207 0.19099 0.01887 0.0
H1509 H 0.96481 0.23542 0.98204 0.0
H1510 H 0.01259 0.25881 0.99338 0.0
H1511 H 0.98987 0.28605 0.98656 0.0
H1512 H 0.98157 0.35161 0.06463 0.0
H1513 H 0.05069 0.37946 0.07136 0.0
H1514 H 0.04895 0.28681 0.03195 0.0
C1515 C 0.901 0.23545 0.00774 0.0
C1516 C 0.87189 0.24437 0.01052 0.0
C1517 C 0.87647 0.27309 0.02676 0.0
C1518 C 0.91038 0.29381 0.03947 0.0
C1519 C 0.93884 0.28475 0.03605 0.0
C1520 C 0.93431 0.25585 0.02091 0.0
C1521 C 0.96991 0.25294 0.01963 0.0
C1522 C 0.96303 0.21507 0.02997 0.0
C1523 C 0.98518 0.25867 0.99388 0.0
C1524 C -0.00433 0.28579 0.03561 0.0
C1525 C 0.97718 0.30374 0.04493 0.0
C1526 C -0.00384 0.33727 0.05806 0.0
C1527 C 0.0352 0.35293 0.06168 0.0
C1528 C 0.05423 0.3346 0.05246 0.0
C1529 C 0.03434 0.30047 0.03963 0.0
H1530 H 0.99247 0.74834 0.31877 0.0
H1531 H 0.88827 0.66384 0.28541 0.0
H1532 H 0.91613 0.62286 0.27882 0.0
H1533 H 0.06169 0.72223 0.28531 0.0
H1534 H 0.0881 0.7303 0.31268 0.0
H1535 H 0.06686 0.75889 0.30573 0.0
H1536 H 0.03255 0.74056 0.34663 0.0
H1537 H 0.05198 0.7106 0.35333 0.0
H1538 H 0.00126 0.69122 0.35344 0.0
H1539 H 0.9455 0.58477 0.28697 0.0
H1540 H 0.97803 0.55371 0.30481 0.0
H1541 H 0.06303 0.66129 0.33528 0.0
C1542 C 0.97686 0.72242 0.30849 0.0
C1543 C 0.93893 0.70937 0.30186 0.0
C1544 C 0.91783 0.67442 0.28986 0.0
C1545 C 0.93344 0.65103 0.28617 0.0
C1546 C 0.9699 0.66311 0.29482 0.0
C1547 C 0.99182 0.69841 0.30532 0.0
C1548 C 0.0265 0.70138 0.31755 0.0
C1549 C 0.06295 0.72989 0.30453 0.0
C1550 C 0.0281 0.7115 0.3443 0.0
C1551 C 0.01882 0.66133 0.31412 0.0
C1552 C 0.98667 0.64013 0.30041 0.0
C1553 C 0.97139 0.60134 0.29706 0.0
C1554 C 0.9898 0.58386 0.30762 0.0
C1555 C 0.02307 0.60511 0.32152 0.0
C1556 C 0.03777 0.64438 0.32468 0.0
H1557 H 0.43489 0.41901 0.30362 0.0
H1558 H 0.49478 0.4929 0.36349 0.0
H1559 H 0.47255 0.4369 0.38971 0.0
H1560 H 0.35401 0.35957 0.33542 0.0
H1561 H 0.34422 0.31675 0.31989 0.0
H1562 H 0.36974 0.36172 0.30502 0.0
H1563 H 0.42551 0.34966 0.29625 0.0
H1564 H 0.39989 0.30427 0.31076 0.0
H1565 H 0.44718 0.3382 0.32053 0.0
H1566 H 0.44023 0.37284 0.40972 0.0
H1567 H 0.39894 0.30606 0.4221 0.0
H1568 H 0.35715 0.27638 0.34933 0.0
C1569 C 0.44433 0.42334 0.32206 0.0
C1570 C 0.46695 0.46004 0.33153 0.0
C1571 C 0.47766 0.4648 0.35594 0.0
C1572 C 0.46524 0.43326 0.37091 0.0
C1573 C 0.44193 0.39742 0.36114 0.0
C1574 C 0.4316 0.39237 0.33727 0.0
C1575 C 0.40332 0.35152 0.33162 0.0
C1576 C 0.3656 0.34717 0.32246 0.0
C1577 C 0.41999 0.33494 0.31374 0.0
C1578 C 0.39886 0.33442 0.35611 0.0
C1579 C 0.42178 0.36109 0.37286 0.0
C1580 C 0.42224 0.35167 0.39675 0.0
C1581 C 0.39872 0.31385 0.40362 0.0
C1582 C 0.3747 0.28642 0.38668 0.0
C1583 C 0.37484 0.29696 0.36271 0.0
H1584 H 0.59586 0.03322 0.33285 0.0
H1585 H 0.63307 0.05816 0.25904 0.0
H1586 H 0.69995 0.09149 0.27261 0.0
H1587 H 0.66729 0.12269 0.35714 0.0
H1588 H 0.67249 0.10215 0.38439 0.0
H1589 H 0.62773 0.07998 0.36877 0.0
H1590 H 0.62896 0.01694 0.36675 0.0
H1591 H 0.67368 0.0389 0.38239 0.0
H1592 H 0.66941 0.01661 0.35377 0.0
H1593 H 0.76288 0.11986 0.2944 0.0
H1594 H 0.81677 0.14388 0.32272 0.0
H1595 H 0.73769 0.10285 0.38215 0.0
C1596 C 0.61803 0.04556 0.31949 0.0
C1597 C 0.60924 0.0429 0.29486 0.0
C1598 C 0.63913 0.05989 0.27801 0.0
C1599 C 0.67718 0.07881 0.28554 0.0
C1600 C 0.6848 0.08085 0.30998 0.0
C1601 C 0.65603 0.06493 0.32669 0.0
C1602 C 0.67166 0.07155 0.3519 0.0
C1603 C 0.65904 0.09553 0.3664 0.0
C1604 C 0.66025 0.03375 0.36443 0.0
C1605 C 0.71379 0.09343 0.34678 0.0
C1606 C 0.72084 0.09832 0.3225 0.0
C1607 C 0.75769 0.11648 0.31345 0.0
C1608 C 0.78809 0.12995 0.32967 0.0
C1609 C 0.78144 0.12555 0.35464 0.0
C1610 C 0.74373 0.1072 0.36319 0.0
H1611 H 0.38312 0.11143 0.38564 0.0
H1612 H 0.35879 0.16384 0.32589 0.0
H1613 H 0.39361 0.14359 0.29888 0.0
H1614 H 0.47716 0.13226 0.36718 0.0
H1615 H 0.47037 0.08711 0.3769 0.0
H1616 H 0.44584 0.10794 0.39182 0.0
H1617 H 0.38137 0.04717 0.38366 0.0
H1618 H 0.40569 0.02609 0.36884 0.0
H1619 H 0.36875 0.02984 0.35343 0.0
H1620 H 0.43058 0.11749 0.27855 0.0
H1621 H 0.46148 0.08175 0.2652 0.0
H1622 H 0.45883 0.04352 0.33801 0.0
C1623 C 0.3855 0.119 0.36691 0.0
C1624 C 0.36865 0.13947 0.35782 0.0
C1625 C 0.37156 0.14815 0.33315 0.0
C1626 C 0.39144 0.13699 0.31774 0.0
C1627 C 0.40779 0.11687 0.3273 0.0
C1628 C 0.40463 0.10754 0.35124 0.0
C1629 C 0.42254 0.08349 0.35667 0.0
C1630 C 0.45597 0.10394 0.37418 0.0
C1631 C 0.39281 0.04433 0.36621 0.0
C1632 C 0.43611 0.08058 0.33199 0.0
C1633 C 0.42783 0.10053 0.31539 0.0
C1634 C 0.43726 0.10179 0.29137 0.0
C1635 C 0.45497 0.0815 0.284 0.0
C1636 C 0.4626 0.05979 0.30056 0.0
C1637 C 0.4534 0.05981 0.32492 0.0
H1638 H 0.04706 0.42855 0.33205 0.0
H1639 H 0.02608 0.48483 0.39126 0.0
H1640 H 0.98958 0.42314 0.4118 0.0
H1641 H 0.95851 0.35068 0.32937 0.0
H1642 H 0.97355 0.31692 0.32232 0.0
H1643 H 0.0028 0.36578 0.31403 0.0
H1644 H 0.0597 0.36939 0.3373 0.0
H1645 H 0.03081 0.32023 0.34537 0.0
H1646 H 0.05403 0.35567 0.36831 0.0
H1647 H 0.94826 0.35506 0.42266 0.0
H1648 H 0.90929 0.28558 0.42519 0.0
H1649 H 0.95847 0.27454 0.35876 0.0
C1650 C 0.03542 0.42801 0.34956 0.0
C1651 C 0.03903 0.46116 0.3601 0.0
C1652 C 0.02365 0.45959 0.38302 0.0
C1653 C 0.00291 0.42477 0.39475 0.0
C1654 C -0.00137 0.39232 0.38339 0.0
C1655 C 0.01503 0.39377 0.3615 0.0
C1656 C 0.00427 0.35475 0.3523 0.0
C1657 C 0.98355 0.34658 0.32808 0.0
C1658 C 0.03929 0.34972 0.35074 0.0
C1659 C 0.97787 0.33091 0.37197 0.0
C1660 C 0.97521 0.35308 0.38982 0.0
C1661 C 0.95058 0.33739 0.40904 0.0
C1662 C 0.92831 0.29792 0.41015 0.0
C1663 C 0.93087 0.27471 0.39211 0.0
C1664 C 0.95615 0.29153 0.37289 0.0
H1665 H 0.76206 0.71819 0.34252 0.0
H1666 H 0.8061 0.72189 0.27146 0.0
H1667 H 0.74066 0.69221 0.25499 0.0
H1668 H 0.68579 0.63138 0.33926 0.0
H1669 H 0.65342 0.64115 0.35567 0.0
H1670 H 0.70356 0.66919 0.36104 0.0
H1671 H 0.70207 0.73065 0.35145 0.0
H1672 H 0.65157 0.70293 0.34648 0.0
H1673 H 0.68201 0.73449 0.32356 0.0
H1674 H 0.67085 0.65155 0.24827 0.0
H1675 H 0.60157 0.60864 0.25058 0.0
H1676 H 0.60414 0.63435 0.32618 0.0
C1677 C 0.75784 0.71375 0.32339 0.0
C1678 C 0.78836 0.72196 0.30807 0.0
C1679 C 0.78257 0.71584 0.28322 0.0
C1680 C 0.7457 0.6991 0.27382 0.0
C1681 C 0.71573 0.68984 0.28961 0.0
C1682 C 0.72157 0.69779 0.3138 0.0
C1683 C 0.68472 0.68223 0.32736 0.0
C1684 C 0.68173 0.65433 0.34696 0.0
C1685 C 0.67981 0.71451 0.33782 0.0
C1686 C 0.6571 0.66223 0.30726 0.0
C1687 C 0.67543 0.66723 0.28559 0.0
C1688 C 0.65607 0.64822 0.26497 0.0
C1689 C 0.61689 0.62361 0.26654 0.0
C1690 C 0.59773 0.61841 0.28858 0.0
C1691 C 0.61807 0.63833 0.30906 0.0
H1692 H 0.68495 0.91808 0.63512 0.0
H1693 H 0.5916 0.80226 0.63235 0.0
H1694 H 0.55261 0.82064 0.65704 0.0
H1695 H 0.67083 0.94089 0.69495 0.0
H1696 H 0.68196 0.98846 0.68767 0.0
H1697 H 0.70297 0.96585 0.67078 0.0
H1698 H 0.67663 0.97747 0.63145 0.0
H1699 H 0.65595 0.00052 0.64818 0.0
H1700 H 0.62655 0.96101 0.6289 0.0
H1701 H 0.52493 0.85172 0.68332 0.0
H1702 H 0.50692 0.89449 0.70368 0.0
H1703 H 0.61692 0.99074 0.68641 0.0
C1704 C 0.65631 0.89659 0.63978 0.0
C1705 C 0.64127 0.85869 0.63207 0.0
C1706 C 0.60352 0.83146 0.6381 0.0
C1707 C 0.58134 0.84159 0.65223 0.0
C1708 C 0.5972 0.87918 0.6598 0.0
C1709 C 0.63356 0.90639 0.65336 0.0
C1710 C 0.64311 0.94527 0.66242 0.0
C1711 C 0.67671 0.96103 0.68 0.0
C1712 C 0.65101 0.97267 0.64149 0.0
C1713 C 0.60649 0.93572 0.67507 0.0
C1714 C 0.5806 0.89736 0.67375 0.0
C1715 C 0.54491 0.88182 0.68436 0.0
C1716 C 0.53505 0.90628 0.69605 0.0
C1717 C 0.56053 0.94589 0.69662 0.0
C1718 C 0.59686 0.96058 0.68624 0.0
H1719 H 0.09037 0.72258 0.65344 0.0
H1720 H 0.0668 0.68333 0.5798 0.0
H1721 H 0.03461 0.61722 0.59352 0.0
H1722 H 0.1107 0.65115 0.67387 0.0
H1723 H 0.0887 0.6455 0.7027 0.0
H1724 H 0.10862 0.69031 0.68746 0.0
H1725 H 0.04405 0.68846 0.69012 0.0
H1726 H 0.02404 0.64381 0.70557 0.0
H1727 H 0.0019 0.6478 0.67865 0.0
H1728 H 0.00554 0.55586 0.6145 0.0
H1729 H 0.98028 0.50165 0.64211 0.0
H1730 H 0.02407 0.57932 0.70246 0.0
C1731 C 0.07803 0.70001 0.64029 0.0
C1732 C 0.08111 0.70807 0.61557 0.0
C1733 C 0.06501 0.67782 0.59883 0.0
C1734 C 0.0466 0.64015 0.60642 0.0
C1735 C 0.04467 0.63309 0.63082 0.0
C1736 C 0.05984 0.662 0.64757 0.0
C1737 C 0.05445 0.6462 0.67269 0.0
C1738 C 0.09291 0.65906 0.68489 0.0
C1739 C 0.02963 0.65722 0.68764 0.0
C1740 C 0.03392 0.60402 0.66732 0.0
C1741 C 0.0285 0.59723 0.64304 0.0
C1742 C 0.00963 0.5607 0.63358 0.0
C1743 C -0.00459 0.53012 0.64941 0.0
C1744 C 0.00039 0.53625 0.67441 0.0
C1745 C 0.02028 0.57375 0.68342 0.0
H1746 H 0.23618 0.32232 0.67048 0.0
H1747 H 0.22199 0.21452 0.64618 0.0
H1748 H 0.2909 0.24495 0.63886 0.0
H1749 H 0.3057 0.38034 0.62854 0.0
H1750 H 0.33283 0.41855 0.64921 0.0
H1751 H 0.28251 0.38836 0.65352 0.0
H1752 H 0.29356 0.37137 0.69638 0.0
H1753 H 0.34369 0.40282 0.69256 0.0
H1754 H 0.32625 0.35409 0.70074 0.0
H1755 H 0.36024 0.28806 0.63144 0.0
H1756 H 0.42777 0.33676 0.63454 0.0
H1757 H 0.39613 0.41594 0.66406 0.0
C1758 C 0.24765 0.30493 0.66408 0.0
C1759 C 0.22384 0.26617 0.65885 0.0
C1760 C 0.23984 0.24426 0.65055 0.0
C1761 C 0.27882 0.26138 0.64597 0.0
C1762 C 0.30112 0.30021 0.64993 0.0
C1763 C 0.28634 0.32144 0.65951 0.0
C1764 C 0.31661 0.36229 0.66315 0.0
C1765 C 0.30893 0.38894 0.64768 0.0
C1766 C 0.32026 0.37327 0.68978 0.0
C1767 C 0.35087 0.36068 0.65431 0.0
C1768 C 0.3412 0.32486 0.6462 0.0
C1769 C 0.36825 0.31621 0.63781 0.0
C1770 C 0.40652 0.34425 0.63936 0.0
C1771 C 0.41709 0.38006 0.64965 0.0
C1772 C 0.38881 0.38887 0.65603 0.0
H1773 H 0.96902 0.35655 0.67188 0.0
H1774 H 0.02163 0.39313 0.74176 0.0
H1775 H 0.04321 0.34636 0.73982 0.0
H1776 H 0.94024 0.25528 0.67777 0.0
H1777 H 0.95193 0.25182 0.64712 0.0
H1778 H 0.93605 0.28457 0.65523 0.0
H1779 H -0.00297 0.34028 0.63686 0.0
H1780 H 0.01225 0.30743 0.62822 0.0
H1781 H 0.04279 0.34808 0.64637 0.0
H1782 H 0.06328 0.29944 0.72921 0.0
H1783 H 0.08897 0.26381 0.70766 0.0
H1784 H 0.02436 0.25883 0.64482 0.0
C1785 C 0.98479 0.35444 0.68684 0.0
C1786 C -0.0063 0.37843 0.70691 0.0
C1787 C 0.01482 0.37525 0.72605 0.0
C1788 C 0.02669 0.34837 0.72531 0.0
C1789 C 0.01721 0.32491 0.70534 0.0
C1790 C -0.00278 0.32806 0.68629 0.0
C1791 C -0.00541 0.30271 0.66575 0.0
C1792 C 0.95324 0.27176 0.66121 0.0
C1793 C 0.01277 0.32602 0.64298 0.0
C1794 C 0.01759 0.28607 0.67585 0.0
C1795 C 0.02939 0.29823 0.699 0.0
C1796 C 0.05372 0.28913 0.71124 0.0
C1797 C 0.06793 0.2687 0.69902 0.0
C1798 C 0.05813 0.25853 0.67484 0.0
C1799 C 0.03153 0.26587 0.66351 0.0
H1800 H 0.57329 0.5356 0.62584 0.0
H1801 H 0.60245 0.55189 0.70121 0.0
H1802 H 0.64391 0.62037 0.69467 0.0
H1803 H 0.66694 0.61222 0.60279 0.0
H1804 H 0.6446 0.62596 0.58017 0.0
H1805 H 0.6224 0.57732 0.58982 0.0
H1806 H 0.56101 0.57904 0.59997 0.0
H1807 H 0.58307 0.62766 0.59056 0.0
H1808 H 0.56354 0.61479 0.62024 0.0
H1809 H 0.67597 0.68655 0.68141 0.0
H1810 H 0.69678 0.748 0.66195 0.0
H1811 H 0.64517 0.68952 0.59533 0.0
C1812 C 0.5893 0.55364 0.6407 0.0
C1813 C 0.58509 0.53899 0.66393 0.0
C1814 C 0.60549 0.56307 0.68328 0.0
C1815 C 0.62924 0.60181 0.67973 0.0
C1816 C 0.63204 0.61582 0.65676 0.0
C1817 C 0.61275 0.59263 0.63753 0.0
C1818 C 0.61756 0.61563 0.61531 0.0
C1819 C 0.63917 0.60728 0.59588 0.0
C1820 C 0.579 0.60888 0.60599 0.0
C1821 C 0.64132 0.6552 0.62536 0.0
C1822 C 0.64994 0.65461 0.64916 0.0
C1823 C 0.66994 0.68756 0.66266 0.0
C1824 C 0.68145 0.72227 0.65149 0.0
C1825 C 0.67247 0.72351 0.62717 0.0
C1826 C 0.65242 0.6895 0.61397 0.0
H1827 H 0.23229 0.87474 0.6558 0.0
H1828 H 0.26591 0.84904 0.5876 0.0
H1829 H 0.33162 0.87777 0.60167 0.0
H1830 H 0.31657 0.96464 0.6653 0.0
H1831 H 0.31912 0.95842 0.69701 0.0
H1832 H 0.27385 0.93529 0.682 0.0
H1833 H 0.26129 0.87034 0.69791 0.0
H1834 H 0.30654 0.89329 0.71299 0.0
H1835 H 0.29543 0.85528 0.69214 0.0
H1836 H 0.39397 0.91199 0.62138 0.0
H1837 H 0.45004 0.9471 0.64731 0.0
H1838 H 0.3778 0.9484 0.70406 0.0
C1839 C 0.25349 0.87505 0.64392 0.0
C1840 C 0.24369 0.85941 0.62061 0.0
C1841 C 0.27237 0.8604 0.60562 0.0
C1842 C 0.30996 0.87681 0.61338 0.0
C1843 C 0.31868 0.89192 0.63633 0.0
C1844 C 0.29141 0.89097 0.65154 0.0
C1845 C 0.30897 0.90924 0.67541 0.0
C1846 C 0.30435 0.94396 0.6802 0.0
C1847 C 0.29205 0.8803 0.69582 0.0
C1848 C 0.35026 0.92085 0.67098 0.0
C1849 C 0.35507 0.91072 0.64821 0.0
C1850 C 0.39062 0.91976 0.63936 0.0
C1851 C 0.42228 0.9398 0.65417 0.0
C1852 C 0.41818 0.95015 0.67769 0.0
C1853 C 0.38162 0.94027 0.68626 0.0
loop_
_geom_bond_atom_site_label_1
_geom_bond_atom_site_label_2
_geom_bond_distance
_geom_bond_site_symmetry_2
_ccdc_geom_bond_type
Sc0 O3 2.025 . S
Sc0 O10 2.105 . S
Sc0 O13 2.105 . S
Sc0 O16 2.105 . S
Sc0 O19 2.105 . S
Sc1 O3 2.025 . S
Sc1 O11 2.105 . S
Sc1 O15 2.105 . S
Sc1 O17 2.105 . S
Sc1 O21 2.105 . S
Sc2 O3 2.025 . S
Sc2 O12 2.105 . S
Sc2 O14 2.105 . S
Sc2 O18 2.105 . S
Sc2 O20 2.105 . S
O3 Sc0 2.025 . S
O3 Sc1 2.025 . S
O3 Sc2 2.025 . S
C4 O10 1.268 . S
C4 O20 1.268 . S
C5 O11 1.268 . S
C5 O19 1.268 . S
C6 O12 1.268 . S
C6 O21 1.268 . S
C7 O13 1.268 . S
C7 O17 1.268 . S
C8 O14 1.268 . S
C8 O16 1.268 . S
C9 O15 1.268 . S
C9 O18 1.268 . S
O10 Sc0 2.105 . S
O10 C4 1.268 . S
O11 Sc1 2.105 . S
O11 C5 1.268 . S
O12 Sc2 2.105 . S
O12 C6 1.268 . S
O13 Sc0 2.105 . S
O13 C7 1.268 . S
O14 Sc2 2.105 . S
O14 C8 1.268 . S
O15 Sc1 2.105 . S
O15 C9 1.268 . S
O16 Sc0 2.105 . S
O16 C8 1.268 . S
O17 Sc1 2.105 . S
O17 C7 1.268 . S
O18 Sc2 2.105 . S
O18 C9 1.268 . S
O19 Sc0 2.105 . S
O19 C5 1.268 . S
O20 Sc2 2.105 . S
O20 C4 1.268 . S
O21 Sc1 2.105 . S
O21 C6 1.268 . S
Sc22 O25 2.025 . S
Sc22 O32 2.105 . S
Sc22 O35 2.105 . S
Sc22 O38 2.105 . S
Sc22 O41 2.105 . S
Sc23 O25 2.025 . S
Sc23 O33 2.105 . S
Sc23 O37 2.105 . S
Sc23 O39 2.105 . S
Sc23 O43 2.105 . S
Sc24 O25 2.025 . S
Sc24 O34 2.105 . S
Sc24 O36 2.105 . S
Sc24 O40 2.105 . S
Sc24 O42 2.105 . S
O25 Sc22 2.025 . S
O25 Sc23 2.025 . S
O25 Sc24 2.025 . S
C26 O32 1.268 . S
C26 O42 1.268 . S
C27 O33 1.268 . S
C27 O41 1.268 . S
C28 O34 1.268 . S
C28 O43 1.268 . S
C29 O35 1.268 . S
C29 O39 1.268 . S
C30 O36 1.268 . S
C30 O38 1.268 . S
C31 O37 1.268 . S
C31 O40 1.268 . S
O32 Sc22 2.105 . S
O32 C26 1.268 . S
O33 Sc23 2.105 . S
O33 C27 1.268 . S
O34 Sc24 2.105 . S
O34 C28 1.268 . S
O35 Sc22 2.105 . S
O35 C29 1.268 . S
O36 Sc24 2.105 . S
O36 C30 1.268 . S
O37 Sc23 2.105 . S
O37 C31 1.268 . S
O38 Sc22 2.105 . S
O38 C30 1.268 . S
O39 Sc23 2.105 . S
O39 C29 1.268 . S
O40 Sc24 2.105 . S
O40 C31 1.268 . S
O41 Sc22 2.105 . S
O41 C27 1.268 . S
O42 Sc24 2.105 . S
O42 C26 1.268 . S
O43 Sc23 2.105 . S
O43 C28 1.268 . S
Sc44 O47 2.025 . S
Sc44 O54 2.105 . S
Sc44 O57 2.105 . S
Sc44 O60 2.105 . S
Sc44 O63 2.105 . S
Sc45 O47 2.025 . S
Sc45 O55 2.105 . S
Sc45 O59 2.105 . S
Sc45 O61 2.105 . S
Sc45 O65 2.105 . S
Sc46 O47 2.025 . S
Sc46 O56 2.105 . S
Sc46 O58 2.105 . S
Sc46 O62 2.105 . S
Sc46 O64 2.105 . S
O47 Sc44 2.025 . S
O47 Sc45 2.025 . S
O47 Sc46 2.025 . S
C48 O54 1.268 . S
C48 O64 1.268 . S
C49 O55 1.268 . S
C49 O63 1.268 . S
C50 O56 1.268 . S
C50 O65 1.268 . S
C51 O57 1.268 . S
C51 O61 1.268 . S
C52 O58 1.268 . S
C52 O60 1.268 . S
C53 O59 1.268 . S
C53 O62 1.268 . S
O54 Sc44 2.105 . S
O54 C48 1.268 . S
O55 Sc45 2.105 . S
O55 C49 1.268 . S
O56 Sc46 2.105 . S
O56 C50 1.268 . S
O57 Sc44 2.105 . S
O57 C51 1.268 . S
O58 Sc46 2.105 . S
O58 C52 1.268 . S
O59 Sc45 2.105 . S
O59 C53 1.268 . S
O60 Sc44 2.105 . S
O60 C52 1.268 . S
O61 Sc45 2.105 . S
O61 C51 1.268 . S
O62 Sc46 2.105 . S
O62 C53 1.268 . S
O63 Sc44 2.105 . S
O63 C49 1.268 . S
O64 Sc46 2.105 . S
O64 C48 1.268 . S
O65 Sc45 2.105 . S
O65 C50 1.268 . S
Sc66 O69 2.025 . S
Sc66 O76 2.105 . S
Sc66 O79 2.105 . S
Sc66 O82 2.105 . S
Sc66 O85 2.105 . S
Sc67 O69 2.025 . S
Sc67 O77 2.105 . S
Sc67 O81 2.105 . S
Sc67 O83 2.105 . S
Sc67 O87 2.105 . S
Sc68 O69 2.025 . S
Sc68 O78 2.105 . S
Sc68 O80 2.105 . S
Sc68 O84 2.105 . S
Sc68 O86 2.105 . S
O69 Sc66 2.025 . S
O69 Sc67 2.025 . S
O69 Sc68 2.025 . S
C70 O76 1.268 . S
C70 O86 1.268 . S
C71 O77 1.268 . S
C71 O85 1.268 . S
C72 O78 1.268 . S
C72 O87 1.268 . S
C73 O79 1.268 . S
C73 O83 1.268 . S
C74 O80 1.268 . S
C74 O82 1.268 . S
C75 O81 1.268 . S
C75 O84 1.268 . S
O76 Sc66 2.105 . S
O76 C70 1.268 . S
O77 Sc67 2.105 . S
O77 C71 1.268 . S
O78 Sc68 2.105 . S
O78 C72 1.268 . S
O79 Sc66 2.105 . S
O79 C73 1.268 . S
O80 Sc68 2.105 . S
O80 C74 1.268 . S
O81 Sc67 2.105 . S
O81 C75 1.268 . S
O82 Sc66 2.105 . S
O82 C74 1.268 . S
O83 Sc67 2.105 . S
O83 C73 1.268 . S
O84 Sc68 2.105 . S
O84 C75 1.268 . S
O85 Sc66 2.105 . S
O85 C71 1.268 . S
O86 Sc68 2.105 . S
O86 C70 1.268 . S
O87 Sc67 2.105 . S
O87 C72 1.268 . S
Sc88 O91 2.025 . S
Sc88 O98 2.105 . S
Sc88 O101 2.105 . S
Sc88 O104 2.105 . S
Sc88 O107 2.105 . S
Sc89 O91 2.025 . S
Sc89 O99 2.105 . S
Sc89 O103 2.105 . S
Sc89 O105 2.105 . S
Sc89 O109 2.105 . S
Sc90 O91 2.025 . S
Sc90 O100 2.105 . S
Sc90 O102 2.105 . S
Sc90 O106 2.105 . S
Sc90 O108 2.105 . S
O91 Sc88 2.025 . S
O91 Sc89 2.025 . S
O91 Sc90 2.025 . S
C92 O98 1.268 . S
C92 O108 1.268 . S
C93 O99 1.268 . S
C93 O107 1.268 . S
C94 O100 1.268 . S
C94 O109 1.268 . S
C95 O101 1.268 . S
C95 O105 1.268 . S
C96 O102 1.268 . S
C96 O104 1.268 . S
C97 O103 1.268 . S
C97 O106 1.268 . S
O98 Sc88 2.105 . S
O98 C92 1.268 . S
O99 Sc89 2.105 . S
O99 C93 1.268 . S
O100 Sc90 2.105 . S
O100 C94 1.268 . S
O101 Sc88 2.105 . S
O101 C95 1.268 . S
O102 Sc90 2.105 . S
O102 C96 1.268 . S
O103 Sc89 2.105 . S
O103 C97 1.268 . S
O104 Sc88 2.105 . S
O104 C96 1.268 . S
O105 Sc89 2.105 . S
O105 C95 1.268 . S
O106 Sc90 2.105 . S
O106 C97 1.268 . S
O107 Sc88 2.105 . S
O107 C93 1.268 . S
O108 Sc90 2.105 . S
O108 C92 1.268 . S
O109 Sc89 2.105 . S
O109 C94 1.268 . S
Sc110 O113 2.025 . S
Sc110 O120 2.105 . S
Sc110 O123 2.105 . S
Sc110 O126 2.105 . S
Sc110 O129 2.105 . S
Sc111 O113 2.025 . S
Sc111 O121 2.105 . S
Sc111 O125 2.105 . S
Sc111 O127 2.105 . S
Sc111 O131 2.105 . S
Sc112 O113 2.025 . S
Sc112 O122 2.105 . S
Sc112 O124 2.105 . S
Sc112 O128 2.105 . S
Sc112 O130 2.105 . S
O113 Sc110 2.025 . S
O113 Sc111 2.025 . S
O113 Sc112 2.025 . S
C114 O120 1.268 . S
C114 O130 1.268 . S
C115 O121 1.268 . S
C115 O129 1.268 . S
C116 O122 1.268 . S
C116 O131 1.268 . S
C117 O123 1.268 . S
C117 O127 1.268 . S
C118 O124 1.268 . S
C118 O126 1.268 . S
C119 O125 1.268 . S
C119 O128 1.268 . S
O120 Sc110 2.105 . S
O120 C114 1.268 . S
O121 Sc111 2.105 . S
O121 C115 1.268 . S
O122 Sc112 2.105 . S
O122 C116 1.268 . S
O123 Sc110 2.105 . S
O123 C117 1.268 . S
O124 Sc112 2.105 . S
O124 C118 1.268 . S
O125 Sc111 2.105 . S
O125 C119 1.268 . S
O126 Sc110 2.105 . S
O126 C118 1.268 . S
O127 Sc111 2.105 . S
O127 C117 1.268 . S
O128 Sc112 2.105 . S
O128 C119 1.268 . S
O129 Sc110 2.105 . S
O129 C115 1.268 . S
O130 Sc112 2.105 . S
O130 C114 1.268 . S
O131 Sc111 2.105 . S
O131 C116 1.268 . S
Sc132 O135 2.025 . S
Sc132 O142 2.105 . S
Sc132 O145 2.105 . S
Sc132 O148 2.105 . S
Sc132 O151 2.105 . S
Sc133 O135 2.025 . S
Sc133 O143 2.105 . S
Sc133 O147 2.105 . S
Sc133 O149 2.105 . S
Sc133 O153 2.105 . S
Sc134 O135 2.025 . S
Sc134 O144 2.105 . S
Sc134 O146 2.105 . S
Sc134 O150 2.105 . S
Sc134 O152 2.105 . S
O135 Sc132 2.025 . S
O135 Sc133 2.025 . S
O135 Sc134 2.025 . S
C136 O142 1.268 . S
C136 O152 1.268 . S
C137 O143 1.268 . S
C137 O151 1.268 . S
C138 O144 1.268 . S
C138 O153 1.268 . S
C139 O145 1.268 . S
C139 O149 1.268 . S
C140 O146 1.268 . S
C140 O148 1.268 . S
C141 O147 1.268 . S
C141 O150 1.268 . S
O142 Sc132 2.105 . S
O142 C136 1.268 . S
O143 Sc133 2.105 . S
O143 C137 1.268 . S
O144 Sc134 2.105 . S
O144 C138 1.268 . S
O145 Sc132 2.105 . S
O145 C139 1.268 . S
O146 Sc134 2.105 . S
O146 C140 1.268 . S
O147 Sc133 2.105 . S
O147 C141 1.268 . S
O148 Sc132 2.105 . S
O148 C140 1.268 . S
O149 Sc133 2.105 . S
O149 C139 1.268 . S
O150 Sc134 2.105 . S
O150 C141 1.268 . S
O151 Sc132 2.105 . S
O151 C137 1.268 . S
O152 Sc134 2.105 . S
O152 C136 1.268 . S
O153 Sc133 2.105 . S
O153 C138 1.268 . S
Sc154 O157 2.025 . S
Sc154 O164 2.105 . S
Sc154 O167 2.105 . S
Sc154 O170 2.105 . S
Sc154 O173 2.105 . S
Sc155 O157 2.025 . S
Sc155 O165 2.105 . S
Sc155 O169 2.105 . S
Sc155 O171 2.105 . S
Sc155 O175 2.105 . S
Sc156 O157 2.025 . S
Sc156 O166 2.105 . S
Sc156 O168 2.105 . S
Sc156 O172 2.105 . S
Sc156 O174 2.105 . S
O157 Sc154 2.025 . S
O157 Sc155 2.025 . S
O157 Sc156 2.025 . S
C158 O164 1.268 . S
C158 O174 1.268 . S
C159 O165 1.268 . S
C159 O173 1.268 . S
C160 O166 1.268 . S
C160 O175 1.268 . S
C161 O167 1.268 . S
C161 O171 1.268 . S
C162 O168 1.268 . S
C162 O170 1.268 . S
C163 O169 1.268 . S
C163 O172 1.268 . S
O164 Sc154 2.105 . S
O164 C158 1.268 . S
O165 Sc155 2.105 . S
O165 C159 1.268 . S
O166 Sc156 2.105 . S
O166 C160 1.268 . S
O167 Sc154 2.105 . S
O167 C161 1.268 . S
O168 Sc156 2.105 . S
O168 C162 1.268 . S
O169 Sc155 2.105 . S
O169 C163 1.268 . S
O170 Sc154 2.105 . S
O170 C162 1.268 . S
O171 Sc155 2.105 . S
O171 C161 1.268 . S
O172 Sc156 2.105 . S
O172 C163 1.268 . S
O173 Sc154 2.105 . S
O173 C159 1.268 . S
O174 Sc156 2.105 . S
O174 C158 1.268 . S
O175 Sc155 2.105 . S
O175 C160 1.268 . S
Sc176 O179 2.025 . S
Sc176 O186 2.105 . S
Sc176 O189 2.105 . S
Sc176 O192 2.105 . S
Sc176 O195 2.105 . S
Sc177 O179 2.025 . S
Sc177 O187 2.105 . S
Sc177 O191 2.105 . S
Sc177 O193 2.105 . S
Sc177 O197 2.105 . S
Sc178 O179 2.025 . S
Sc178 O188 2.105 . S
Sc178 O190 2.105 . S
Sc178 O194 2.105 . S
Sc178 O196 2.105 . S
O179 Sc176 2.025 . S
O179 Sc177 2.025 . S
O179 Sc178 2.025 . S
C180 O186 1.268 . S
C180 O196 1.268 . S
C181 O187 1.268 . S
C181 O195 1.268 . S
C182 O188 1.268 . S
C182 O197 1.268 . S
C183 O189 1.268 . S
C183 O193 1.268 . S
C184 O190 1.268 . S
C184 O192 1.268 . S
C185 O191 1.268 . S
C185 O194 1.268 . S
O186 Sc176 2.105 . S
O186 C180 1.268 . S
O187 Sc177 2.105 . S
O187 C181 1.268 . S
O188 Sc178 2.105 . S
O188 C182 1.268 . S
O189 Sc176 2.105 . S
O189 C183 1.268 . S
O190 Sc178 2.105 . S
O190 C184 1.268 . S
O191 Sc177 2.105 . S
O191 C185 1.268 . S
O192 Sc176 2.105 . S
O192 C184 1.268 . S
O193 Sc177 2.105 . S
O193 C183 1.268 . S
O194 Sc178 2.105 . S
O194 C185 1.268 . S
O195 Sc176 2.105 . S
O195 C181 1.268 . S
O196 Sc178 2.105 . S
O196 C180 1.268 . S
O197 Sc177 2.105 . S
O197 C182 1.268 . S
Sc198 O201 2.025 . S
Sc198 O208 2.105 . S
Sc198 O211 2.105 . S
Sc198 O214 2.105 . S
Sc198 O217 2.105 . S
Sc199 O201 2.025 . S
Sc199 O209 2.105 . S
Sc199 O213 2.105 . S
Sc199 O215 2.105 . S
Sc199 O219 2.105 . S
Sc200 O201 2.025 . S
Sc200 O210 2.105 . S
Sc200 O212 2.105 . S
Sc200 O216 2.105 . S
Sc200 O218 2.105 . S
O201 Sc198 2.025 . S
O201 Sc199 2.025 . S
O201 Sc200 2.025 . S
C202 O208 1.268 . S
C202 O218 1.268 . S
C203 O209 1.268 . S
C203 O217 1.268 . S
C204 O210 1.268 . S
C204 O219 1.268 . S
C205 O211 1.268 . S
C205 O215 1.268 . S
C206 O212 1.268 . S
C206 O214 1.268 . S
C207 O213 1.268 . S
C207 O216 1.268 . S
O208 Sc198 2.105 . S
O208 C202 1.268 . S
O209 Sc199 2.105 . S
O209 C203 1.268 . S
O210 Sc200 2.105 . S
O210 C204 1.268 . S
O211 Sc198 2.105 . S
O211 C205 1.268 . S
O212 Sc200 2.105 . S
O212 C206 1.268 . S
O213 Sc199 2.105 . S
O213 C207 1.268 . S
O214 Sc198 2.105 . S
O214 C206 1.268 . S
O215 Sc199 2.105 . S
O215 C205 1.268 . S
O216 Sc200 2.105 . S
O216 C207 1.268 . S
O217 Sc198 2.105 . S
O217 C203 1.268 . S
O218 Sc200 2.105 . S
O218 C202 1.268 . S
O219 Sc199 2.105 . S
O219 C204 1.268 . S
Sc220 O223 2.025 . S
Sc220 O230 2.105 . S
Sc220 O233 2.105 . S
Sc220 O236 2.105 . S
Sc220 O239 2.105 . S
Sc221 O223 2.025 . S
Sc221 O231 2.105 . S
Sc221 O235 2.105 . S
Sc221 O237 2.105 . S
Sc221 O241 2.105 . S
Sc222 O223 2.025 . S
Sc222 O232 2.105 . S
Sc222 O234 2.105 . S
Sc222 O238 2.105 . S
Sc222 O240 2.105 . S
O223 Sc220 2.025 . S
O223 Sc221 2.025 . S
O223 Sc222 2.025 . S
C224 O230 1.268 . S
C224 O240 1.268 . S
C225 O231 1.268 . S
C225 O239 1.268 . S
C226 O232 1.268 . S
C226 O241 1.268 . S
C227 O233 1.268 . S
C227 O237 1.268 . S
C228 O234 1.268 . S
C228 O236 1.268 . S
C229 O235 1.268 . S
C229 O238 1.268 . S
O230 Sc220 2.105 . S
O230 C224 1.268 . S
O231 Sc221 2.105 . S
O231 C225 1.268 . S
O232 Sc222 2.105 . S
O232 C226 1.268 . S
O233 Sc220 2.105 . S
O233 C227 1.268 . S
O234 Sc222 2.105 . S
O234 C228 1.268 . S
O235 Sc221 2.105 . S
O235 C229 1.268 . S
O236 Sc220 2.105 . S
O236 C228 1.268 . S
O237 Sc221 2.105 . S
O237 C227 1.268 . S
O238 Sc222 2.105 . S
O238 C229 1.268 . S
O239 Sc220 2.105 . S
O239 C225 1.268 . S
O240 Sc222 2.105 . S
O240 C224 1.268 . S
O241 Sc221 2.105 . S
O241 C226 1.268 . S
Sc242 O245 2.025 . S
Sc242 O252 2.105 . S
Sc242 O255 2.105 . S
Sc242 O258 2.105 . S
Sc242 O261 2.105 . S
Sc243 O245 2.025 . S
Sc243 O253 2.105 . S
Sc243 O257 2.105 . S
Sc243 O259 2.105 . S
Sc243 O263 2.105 . S
Sc244 O245 2.025 . S
Sc244 O254 2.105 . S
Sc244 O256 2.105 . S
Sc244 O260 2.105 . S
Sc244 O262 2.105 . S
O245 Sc242 2.025 . S
O245 Sc243 2.025 . S
O245 Sc244 2.025 . S
C246 O252 1.268 . S
C246 O262 1.268 . S
C247 O253 1.268 . S
C247 O261 1.268 . S
C248 O254 1.268 . S
C248 O263 1.268 . S
C249 O255 1.268 . S
C249 O259 1.268 . S
C250 O256 1.268 . S
C250 O258 1.268 . S
C251 O257 1.268 . S
C251 O260 1.268 . S
O252 Sc242 2.105 . S
O252 C246 1.268 . S
O253 Sc243 2.105 . S
O253 C247 1.268 . S
O254 Sc244 2.105 . S
O254 C248 1.268 . S
O255 Sc242 2.105 . S
O255 C249 1.268 . S
O256 Sc244 2.105 . S
O256 C250 1.268 . S
O257 Sc243 2.105 . S
O257 C251 1.268 . S
O258 Sc242 2.105 . S
O258 C250 1.268 . S
O259 Sc243 2.105 . S
O259 C249 1.268 . S
O260 Sc244 2.105 . S
O260 C251 1.268 . S
O261 Sc242 2.105 . S
O261 C247 1.268 . S
O262 Sc244 2.105 . S
O262 C246 1.268 . S
O263 Sc243 2.105 . S
O263 C248 1.268 . S
Sc264 O267 2.025 . S
Sc264 O274 2.105 . S
Sc264 O277 2.105 . S
Sc264 O280 2.105 . S
Sc264 O283 2.105 . S
Sc265 O267 2.025 . S
Sc265 O275 2.105 . S
Sc265 O279 2.105 . S
Sc265 O281 2.105 . S
Sc265 O285 2.105 . S
Sc266 O267 2.025 . S
Sc266 O276 2.105 . S
Sc266 O278 2.105 . S
Sc266 O282 2.105 . S
Sc266 O284 2.105 . S
O267 Sc264 2.025 . S
O267 Sc265 2.025 . S
O267 Sc266 2.025 . S
C268 O274 1.268 . S
C268 O284 1.268 . S
C269 O275 1.268 . S
C269 O283 1.268 . S
C270 O276 1.268 . S
C270 O285 1.268 . S
C271 O277 1.268 . S
C271 O281 1.268 . S
C272 O278 1.268 . S
C272 O280 1.268 . S
C273 O279 1.268 . S
C273 O282 1.268 . S
O274 Sc264 2.105 . S
O274 C268 1.268 . S
O275 Sc265 2.105 . S
O275 C269 1.268 . S
O276 Sc266 2.105 . S
O276 C270 1.268 . S
O277 Sc264 2.105 . S
O277 C271 1.268 . S
O278 Sc266 2.105 . S
O278 C272 1.268 . S
O279 Sc265 2.105 . S
O279 C273 1.268 . S
O280 Sc264 2.105 . S
O280 C272 1.268 . S
O281 Sc265 2.105 . S
O281 C271 1.268 . S
O282 Sc266 2.105 . S
O282 C273 1.268 . S
O283 Sc264 2.105 . S
O283 C269 1.268 . S
O284 Sc266 2.105 . S
O284 C268 1.268 . S
O285 Sc265 2.105 . S
O285 C270 1.268 . S
Sc286 O289 2.025 . S
Sc286 O296 2.105 . S
Sc286 O299 2.105 . S
Sc286 O302 2.105 . S
Sc286 O305 2.105 . S
Sc287 O289 2.025 . S
Sc287 O297 2.105 . S
Sc287 O301 2.105 . S
Sc287 O303 2.105 . S
Sc287 O307 2.105 . S
Sc288 O289 2.025 . S
Sc288 O298 2.105 . S
Sc288 O300 2.105 . S
Sc288 O304 2.105 . S
Sc288 O306 2.105 . S
O289 Sc286 2.025 . S
O289 Sc287 2.025 . S
O289 Sc288 2.025 . S
C290 O296 1.268 . S
C290 O306 1.268 . S
C291 O297 1.268 . S
C291 O305 1.268 . S
C292 O298 1.268 . S
C292 O307 1.268 . S
C293 O299 1.268 . S
C293 O303 1.268 . S
C294 O300 1.268 . S
C294 O302 1.268 . S
C295 O301 1.268 . S
C295 O304 1.268 . S
O296 Sc286 2.105 . S
O296 C290 1.268 . S
O297 Sc287 2.105 . S
O297 C291 1.268 . S
O298 Sc288 2.105 . S
O298 C292 1.268 . S
O299 Sc286 2.105 . S
O299 C293 1.268 . S
O300 Sc288 2.105 . S
O300 C294 1.268 . S
O301 Sc287 2.105 . S
O301 C295 1.268 . S
O302 Sc286 2.105 . S
O302 C294 1.268 . S
O303 Sc287 2.105 . S
O303 C293 1.268 . S
O304 Sc288 2.105 . S
O304 C295 1.268 . S
O305 Sc286 2.105 . S
O305 C291 1.268 . S
O306 Sc288 2.105 . S
O306 C290 1.268 . S
O307 Sc287 2.105 . S
O307 C292 1.268 . S
Sc308 O311 2.025 . S
Sc308 O318 2.105 . S
Sc308 O321 2.105 . S
Sc308 O324 2.105 . S
Sc308 O327 2.105 . S
Sc309 O311 2.025 . S
Sc309 O319 2.105 . S
Sc309 O323 2.105 . S
Sc309 O325 2.105 . S
Sc309 O329 2.105 . S
Sc310 O311 2.025 . S
Sc310 O320 2.105 . S
Sc310 O322 2.105 . S
Sc310 O326 2.105 . S
Sc310 O328 2.105 . S
O311 Sc308 2.025 . S
O311 Sc309 2.025 . S
O311 Sc310 2.025 . S
C312 O318 1.268 . S
C312 O328 1.268 . S
C313 O319 1.268 . S
C313 O327 1.268 . S
C314 O320 1.268 . S
C314 O329 1.268 . S
C315 O321 1.268 . S
C315 O325 1.268 . S
C316 O322 1.268 . S
C316 O324 1.268 . S
C317 O323 1.268 . S
C317 O326 1.268 . S
O318 Sc308 2.105 . S
O318 C312 1.268 . S
O319 Sc309 2.105 . S
O319 C313 1.268 . S
O320 Sc310 2.105 . S
O320 C314 1.268 . S
O321 Sc308 2.105 . S
O321 C315 1.268 . S
O322 Sc310 2.105 . S
O322 C316 1.268 . S
O323 Sc309 2.105 . S
O323 C317 1.268 . S
O324 Sc308 2.105 . S
O324 C316 1.268 . S
O325 Sc309 2.105 . S
O325 C315 1.268 . S
O326 Sc310 2.105 . S
O326 C317 1.268 . S
O327 Sc308 2.105 . S
O327 C313 1.268 . S
O328 Sc310 2.105 . S
O328 C312 1.268 . S
O329 Sc309 2.105 . S
O329 C314 1.268 . S
Sc330 O333 2.025 . S
Sc330 O340 2.105 . S
Sc330 O343 2.105 . S
Sc330 O346 2.105 . S
Sc330 O349 2.105 . S
Sc331 O333 2.025 . S
Sc331 O341 2.105 . S
Sc331 O345 2.105 . S
Sc331 O347 2.105 . S
Sc331 O351 2.105 . S
Sc332 O333 2.025 . S
Sc332 O342 2.105 . S
Sc332 O344 2.105 . S
Sc332 O348 2.105 . S
Sc332 O350 2.105 . S
O333 Sc330 2.025 . S
O333 Sc331 2.025 . S
O333 Sc332 2.025 . S
C334 O340 1.268 . S
C334 O350 1.268 . S
C335 O341 1.268 . S
C335 O349 1.268 . S
C336 O342 1.268 . S
C336 O351 1.268 . S
C337 O343 1.268 . S
C337 O347 1.268 . S
C338 O344 1.268 . S
C338 O346 1.268 . S
C339 O345 1.268 . S
C339 O348 1.268 . S
O340 Sc330 2.105 . S
O340 C334 1.268 . S
O341 Sc331 2.105 . S
O341 C335 1.268 . S
O342 Sc332 2.105 . S
O342 C336 1.268 . S
O343 Sc330 2.105 . S
O343 C337 1.268 . S
O344 Sc332 2.105 . S
O344 C338 1.268 . S
O345 Sc331 2.105 . S
O345 C339 1.268 . S
O346 Sc330 2.105 . S
O346 C338 1.268 . S
O347 Sc331 2.105 . S
O347 C337 1.268 . S
O348 Sc332 2.105 . S
O348 C339 1.268 . S
O349 Sc330 2.105 . S
O349 C335 1.268 . S
O350 Sc332 2.105 . S
O350 C334 1.268 . S
O351 Sc331 2.105 . S
O351 C336 1.268 . S
Sc352 O355 2.025 . S
Sc352 O362 2.105 . S
Sc352 O365 2.105 . S
Sc352 O368 2.105 . S
Sc352 O371 2.105 . S
Sc353 O355 2.025 . S
Sc353 O363 2.105 . S
Sc353 O367 2.105 . S
Sc353 O369 2.105 . S
Sc353 O373 2.105 . S
Sc354 O355 2.025 . S
Sc354 O364 2.105 . S
Sc354 O366 2.105 . S
Sc354 O370 2.105 . S
Sc354 O372 2.105 . S
O355 Sc352 2.025 . S
O355 Sc353 2.025 . S
O355 Sc354 2.025 . S
C356 O362 1.268 . S
C356 O372 1.268 . S
C357 O363 1.268 . S
C357 O371 1.268 . S
C358 O364 1.268 . S
C358 O373 1.268 . S
C359 O365 1.268 . S
C359 O369 1.268 . S
C360 O366 1.268 . S
C360 O368 1.268 . S
C361 O367 1.268 . S
C361 O370 1.268 . S
O362 Sc352 2.105 . S
O362 C356 1.268 . S
O363 Sc353 2.105 . S
O363 C357 1.268 . S
O364 Sc354 2.105 . S
O364 C358 1.268 . S
O365 Sc352 2.105 . S
O365 C359 1.268 . S
O366 Sc354 2.105 . S
O366 C360 1.268 . S
O367 Sc353 2.105 . S
O367 C361 1.268 . S
O368 Sc352 2.105 . S
O368 C360 1.268 . S
O369 Sc353 2.105 . S
O369 C359 1.268 . S
O370 Sc354 2.105 . S
O370 C361 1.268 . S
O371 Sc352 2.105 . S
O371 C357 1.268 . S
O372 Sc354 2.105 . S
O372 C356 1.268 . S
O373 Sc353 2.105 . S
O373 C358 1.268 . S
Sc374 O377 2.025 . S
Sc374 O384 2.105 . S
Sc374 O387 2.105 . S
Sc374 O390 2.105 . S
Sc374 O393 2.105 . S
Sc375 O377 2.025 . S
Sc375 O385 2.105 . S
Sc375 O389 2.105 . S
Sc375 O391 2.105 . S
Sc375 O395 2.105 . S
Sc376 O377 2.025 . S
Sc376 O386 2.105 . S
Sc376 O388 2.105 . S
Sc376 O392 2.105 . S
Sc376 O394 2.105 . S
O377 Sc374 2.025 . S
O377 Sc375 2.025 . S
O377 Sc376 2.025 . S
C378 O384 1.268 . S
C378 O394 1.268 . S
C379 O385 1.268 . S
C379 O393 1.268 . S
C380 O386 1.268 . S
C380 O395 1.268 . S
C381 O387 1.268 . S
C381 O391 1.268 . S
C382 O388 1.268 . S
C382 O390 1.268 . S
C383 O389 1.268 . S
C383 O392 1.268 . S
O384 Sc374 2.105 . S
O384 C378 1.268 . S
O385 Sc375 2.105 . S
O385 C379 1.268 . S
O386 Sc376 2.105 . S
O386 C380 1.268 . S
O387 Sc374 2.105 . S
O387 C381 1.268 . S
O388 Sc376 2.105 . S
O388 C382 1.268 . S
O389 Sc375 2.105 . S
O389 C383 1.268 . S
O390 Sc374 2.105 . S
O390 C382 1.268 . S
O391 Sc375 2.105 . S
O391 C381 1.268 . S
O392 Sc376 2.105 . S
O392 C383 1.268 . S
O393 Sc374 2.105 . S
O393 C379 1.268 . S
O394 Sc376 2.105 . S
O394 C378 1.268 . S
O395 Sc375 2.105 . S
O395 C380 1.268 . S
H396 C408 0.930 . S
H397 C410 0.930 . S
H398 C411 0.930 . S
H399 C415 0.990 . S
H400 C415 0.934 1_556 S
H401 C415 0.941 1_556 S
H402 C416 0.960 . S
H403 C416 0.961 . S
H404 C416 0.959 . S
H405 C419 0.929 . S
H406 C420 0.931 . S
H407 C422 0.930 . S
C408 H396 0.930 . S
C408 C409 1.399 . S
C408 C413 1.399 . S
C409 C408 1.399 . S
C409 C410 1.376 . S
C410 H397 0.930 . S
C410 C409 1.376 . S
C410 C411 1.388 . S
C411 H398 0.930 . S
C411 C410 1.388 . S
C411 C412 1.390 . S
C412 C411 1.390 . S
C412 C413 1.394 . S
C412 C418 1.465 . S
C413 C408 1.399 . S
C413 C412 1.394 . S
C413 C414 1.516 . S
C414 C413 1.516 . S
C414 C415 1.520 . S
C414 C416 1.561 1_554 S
C414 C417 1.526 . S
C415 H399 0.990 . S
C415 H400 0.934 1_554 S
C415 H401 0.941 1_554 S
C415 C414 1.520 . S
C416 H402 0.960 . S
C416 H403 0.961 . S
C416 H404 0.959 . S
C416 C414 1.561 1_556 S
C417 C414 1.526 . S
C417 C418 1.396 . S
C417 C422 1.390 . S
C418 C412 1.465 . S
C418 C417 1.396 . S
C418 C419 1.399 . S
C419 H405 0.929 . S
C419 C418 1.399 . S
C419 C420 1.385 . S
C420 H406 0.931 . S
C420 C419 1.385 . S
C420 C421 1.389 . S
C421 C420 1.389 . S
C421 C422 1.387 . S
C422 H407 0.930 . S
C422 C417 1.390 . S
C422 C421 1.387 . S
H423 C435 0.930 . S
H424 C437 0.930 . S
H425 C438 0.930 1_556 S
H426 C442 0.959 . S
H427 C442 0.959 . S
H428 C442 0.961 . S
H429 C443 0.960 . S
H430 C443 0.961 . S
H431 C443 0.959 . S
H432 C446 0.929 1_556 S
H433 C447 0.931 . S
H434 C449 0.930 . S
C435 H423 0.930 . S
C435 C436 1.399 . S
C435 C440 1.399 . S
C436 C435 1.399 . S
C436 C437 1.376 . S
C437 H424 0.930 . S
C437 C436 1.376 . S
C437 C438 1.388 . S
C438 H425 0.930 1_554 S
C438 C437 1.388 . S
C438 C439 1.390 . S
C439 C438 1.390 . S
C439 C440 1.394 . S
C439 C445 1.465 . S
C440 C435 1.399 . S
C440 C439 1.394 . S
C440 C441 1.516 . S
C441 C440 1.516 . S
C441 C442 1.502 . S
C441 C443 1.561 . S
C441 C444 1.526 . S
C442 H426 0.959 . S
C442 H427 0.959 . S
C442 H428 0.961 . S
C442 C441 1.502 . S
C443 H429 0.960 . S
C443 H430 0.961 . S
C443 H431 0.959 . S
C443 C441 1.561 . S
C444 C441 1.526 . S
C444 C445 1.396 . S
C444 C449 1.390 . S
C445 C439 1.465 . S
C445 C444 1.396 . S
C445 C446 1.399 . S
C446 H432 0.929 1_554 S
C446 C445 1.399 . S
C446 C447 1.385 . S
C447 H433 0.931 . S
C447 C446 1.385 . S
C447 C448 1.389 . S
C448 C447 1.389 . S
C448 C449 1.387 . S
C449 H434 0.930 . S
C449 C444 1.390 . S
C449 C448 1.387 . S
H450 C462 0.930 . S
H451 C464 0.930 . S
H452 C465 0.930 . S
H453 C469 0.959 . S
H454 C469 0.959 . S
H455 C469 0.961 . S
H456 C470 0.960 . S
H457 C470 0.961 . S
H458 C470 0.959 . S
H459 C473 0.929 . S
H460 C474 0.931 . S
H461 C476 0.930 . S
C462 H450 0.930 . S
C462 C463 1.399 . S
C462 C467 1.399 . S
C463 C462 1.399 . S
C463 C464 1.376 . S
C464 H451 0.930 . S
C464 C463 1.376 . S
C464 C465 1.388 . S
C465 H452 0.930 . S
C465 C464 1.388 . S
C465 C466 1.390 . S
C466 C465 1.390 . S
C466 C467 1.394 . S
C466 C472 1.465 . S
C467 C462 1.399 . S
C467 C466 1.394 . S
C467 C468 1.516 . S
C468 C467 1.516 . S
C468 C469 1.502 . S
C468 C470 1.561 . S
C468 C471 1.526 . S
C469 H453 0.959 . S
C469 H454 0.959 . S
C469 H455 0.961 . S
C469 C468 1.502 . S
C470 H456 0.960 . S
C470 H457 0.961 . S
C470 H458 0.959 . S
C470 C468 1.561 . S
C471 C468 1.526 . S
C471 C472 1.396 . S
C471 C476 1.390 . S
C472 C466 1.465 . S
C472 C471 1.396 . S
C472 C473 1.399 . S
C473 H459 0.929 . S
C473 C472 1.399 . S
C473 C474 1.385 . S
C474 H460 0.931 . S
C474 C473 1.385 . S
C474 C475 1.389 . S
C475 C474 1.389 . S
C475 C476 1.387 . S
C476 H461 0.930 . S
C476 C471 1.390 . S
C476 C475 1.387 . S
H477 C489 0.930 . S
H478 C491 0.930 . S
H479 C492 0.930 . S
H480 C496 0.959 . S
H481 C496 0.959 . S
H482 C496 0.961 . S
H483 C497 0.960 . S
H484 C497 0.961 . S
H485 C497 0.959 . S
H486 C500 0.929 . S
H487 C501 0.931 . S
H488 C503 0.930 . S
C489 H477 0.930 . S
C489 C490 1.399 . S
C489 C494 1.399 . S
C490 C489 1.399 . S
C490 C491 1.376 . S
C491 H478 0.930 . S
C491 C490 1.376 . S
C491 C492 1.388 . S
C492 H479 0.930 . S
C492 C491 1.388 . S
C492 C493 1.390 . S
C493 C492 1.390 . S
C493 C494 1.394 . S
C493 C499 1.465 . S
C494 C489 1.399 . S
C494 C493 1.394 . S
C494 C495 1.516 . S
C495 C494 1.516 . S
C495 C496 1.502 . S
C495 C497 1.561 . S
C495 C498 1.526 . S
C496 H480 0.959 . S
C496 H481 0.959 . S
C496 H482 0.961 . S
C496 C495 1.502 . S
C497 H483 0.960 . S
C497 H484 0.961 . S
C497 H485 0.959 . S
C497 C495 1.561 . S
C498 C495 1.526 . S
C498 C499 1.396 . S
C498 C503 1.390 . S
C499 C493 1.465 . S
C499 C498 1.396 . S
C499 C500 1.399 . S
C500 H486 0.929 . S
C500 C499 1.399 . S
C500 C501 1.385 . S
C501 H487 0.931 . S
C501 C500 1.385 . S
C501 C502 1.389 . S
C502 C501 1.389 . S
C502 C503 1.387 . S
C503 H488 0.930 . S
C503 C498 1.390 . S
C503 C502 1.387 . S
H504 C516 0.930 . S
H505 C518 0.930 . S
H506 C519 0.930 1_554 S
H507 C523 0.959 . S
H508 C523 0.959 . S
H509 C523 0.961 . S
H510 C524 0.960 . S
H511 C524 0.961 . S
H512 C524 0.959 . S
H513 C527 0.929 1_554 S
H514 C528 0.931 . S
H515 C530 0.930 . S
C516 H504 0.930 . S
C516 C517 1.399 . S
C516 C521 1.399 . S
C517 C516 1.399 . S
C517 C518 1.376 . S
C518 H505 0.930 . S
C518 C517 1.376 . S
C518 C519 1.388 . S
C519 H506 0.930 1_556 S
C519 C518 1.388 . S
C519 C520 1.390 . S
C520 C519 1.390 . S
C520 C521 1.394 . S
C520 C526 1.465 . S
C521 C516 1.399 . S
C521 C520 1.394 . S
C521 C522 1.516 . S
C522 C521 1.516 . S
C522 C523 1.502 . S
C522 C524 1.561 . S
C522 C525 1.526 . S
C523 H507 0.959 . S
C523 H508 0.959 . S
C523 H509 0.961 . S
C523 C522 1.502 . S
C524 H510 0.960 . S
C524 H511 0.961 . S
C524 H512 0.959 . S
C524 C522 1.561 . S
C525 C522 1.526 . S
C525 C526 1.396 . S
C525 C530 1.390 . S
C526 C520 1.465 . S
C526 C525 1.396 . S
C526 C527 1.399 . S
C527 H513 0.929 1_556 S
C527 C526 1.399 . S
C527 C528 1.385 . S
C528 H514 0.931 . S
C528 C527 1.385 . S
C528 C529 1.389 . S
C529 C528 1.389 . S
C529 C530 1.387 . S
C530 H515 0.930 . S
C530 C525 1.390 . S
C530 C529 1.387 . S
H531 C543 0.930 . S
H532 C545 0.930 . S
H533 C546 0.930 . S
H534 C550 0.959 . S
H535 C550 0.959 . S
H536 C550 0.961 . S
H537 C551 0.960 . S
H538 C551 0.961 . S
H539 C551 0.959 . S
H540 C554 0.929 . S
H541 C555 0.931 . S
H542 C557 0.930 . S
C543 H531 0.930 . S
C543 C544 1.399 . S
C543 C548 1.399 . S
C544 C543 1.399 . S
C544 C545 1.376 . S
C545 H532 0.930 . S
C545 C544 1.376 . S
C545 C546 1.388 . S
C546 H533 0.930 . S
C546 C545 1.388 . S
C546 C547 1.390 . S
C547 C546 1.390 . S
C547 C548 1.394 . S
C547 C553 1.465 . S
C548 C543 1.399 . S
C548 C547 1.394 . S
C548 C549 1.516 . S
C549 C548 1.516 . S
C549 C550 1.502 . S
C549 C551 1.561 . S
C549 C552 1.526 . S
C550 H534 0.959 . S
C550 H535 0.959 . S
C550 H536 0.961 . S
C550 C549 1.502 . S
C551 H537 0.960 . S
C551 H538 0.961 . S
C551 H539 0.959 . S
C551 C549 1.561 . S
C552 C549 1.526 . S
C552 C553 1.396 . S
C552 C557 1.390 . S
C553 C547 1.465 . S
C553 C552 1.396 . S
C553 C554 1.399 . S
C554 H540 0.929 . S
C554 C553 1.399 . S
C554 C555 1.385 . S
C555 H541 0.931 . S
C555 C554 1.385 . S
C555 C556 1.389 . S
C556 C555 1.389 . S
C556 C557 1.387 . S
C557 H542 0.930 . S
C557 C552 1.390 . S
C557 C556 1.387 . S
H558 C570 0.930 . S
H559 C572 0.930 . S
H560 C573 0.930 . S
H561 C577 0.959 . S
H562 C577 0.959 . S
H563 C577 0.961 . S
H564 C578 0.960 . S
H565 C578 0.961 . S
H566 C578 0.959 . S
H567 C581 0.929 . S
H568 C582 0.931 . S
H569 C584 0.930 . S
C570 H558 0.930 . S
C570 C571 1.399 1_565 S
C570 C575 1.399 . S
C571 C570 1.399 1_545 S
C571 C572 1.376 . S
C572 H559 0.930 . S
C572 C571 1.376 . S
C572 C573 1.388 1_545 S
C573 H560 0.930 . S
C573 C572 1.388 1_565 S
C573 C574 1.390 . S
C574 C573 1.390 . S
C574 C575 1.394 . S
C574 C580 1.465 . S
C575 C570 1.399 . S
C575 C574 1.394 . S
C575 C576 1.516 . S
C576 C575 1.516 . S
C576 C577 1.502 . S
C576 C578 1.561 . S
C576 C579 1.526 . S
C577 H561 0.959 . S
C577 H562 0.959 . S
C577 H563 0.961 . S
C577 C576 1.502 . S
C578 H564 0.960 . S
C578 H565 0.961 . S
C578 H566 0.959 . S
C578 C576 1.561 . S
C579 C576 1.526 . S
C579 C580 1.396 . S
C579 C584 1.390 . S
C580 C574 1.465 . S
C580 C579 1.396 . S
C580 C581 1.399 . S
C581 H567 0.929 . S
C581 C580 1.399 . S
C581 C582 1.385 . S
C582 H568 0.931 . S
C582 C581 1.385 . S
C582 C583 1.389 . S
C583 C582 1.389 . S
C583 C584 1.387 . S
C584 H569 0.930 . S
C584 C579 1.390 . S
C584 C583 1.387 . S
H585 C597 0.930 . S
H586 C599 0.930 1_655 S
H587 C600 0.930 . S
H588 C604 0.959 . S
H589 C604 0.959 . S
H590 C604 0.961 . S
H591 C605 0.960 . S
H592 C605 0.961 . S
H593 C605 0.959 . S
H594 C608 0.929 . S
H595 C609 0.931 1_545 S
H596 C611 0.930 . S
C597 H585 0.930 . S
C597 C598 1.399 1_455 S
C597 C602 1.399 . S
C598 C597 1.399 1_655 S
C598 C599 1.376 1_655 S
C599 H586 0.930 1_455 S
C599 C598 1.376 1_455 S
C599 C600 1.388 . S
C600 H587 0.930 . S
C600 C599 1.388 . S
C600 C601 1.390 . S
C601 C600 1.390 . S
C601 C602 1.394 . S
C601 C607 1.465 . S
C602 C597 1.399 . S
C602 C601 1.394 . S
C602 C603 1.516 . S
C603 C602 1.516 . S
C603 C604 1.502 . S
C603 C605 1.561 . S
C603 C606 1.526 . S
C604 H588 0.959 . S
C604 H589 0.959 . S
C604 H590 0.961 . S
C604 C603 1.502 . S
C605 H591 0.960 . S
C605 H592 0.961 . S
C605 H593 0.959 . S
C605 C603 1.561 . S
C606 C603 1.526 . S
C606 C607 1.396 . S
C606 C611 1.390 . S
C607 C601 1.465 . S
C607 C606 1.396 . S
C607 C608 1.399 . S
C608 H594 0.929 . S
C608 C607 1.399 . S
C608 C609 1.385 . S
C609 H595 0.931 1_565 S
C609 C608 1.385 . S
C609 C610 1.389 1_565 S
C610 C609 1.389 1_545 S
C610 C611 1.387 1_545 S
C611 H596 0.930 . S
C611 C606 1.390 . S
C611 C610 1.387 1_565 S
H612 C624 0.930 . S
H613 C626 0.930 . S
H614 C627 0.930 . S
H615 C631 0.959 . S
H616 C631 0.959 . S
H617 C631 0.961 . S
H618 C632 0.960 . S
H619 C632 0.961 . S
H620 C632 0.959 . S
H621 C635 0.929 . S
H622 C636 0.931 1_655 S
H623 C638 0.936 . S
C624 H612 0.930 . S
C624 C625 1.399 . S
C624 C629 1.399 . S
C625 C624 1.399 . S
C625 C626 1.376 . S
C626 H613 0.930 . S
C626 C625 1.376 . S
C626 C627 1.388 . S
C627 H614 0.930 . S
C627 C626 1.388 . S
C627 C628 1.390 . S
C628 C627 1.390 . S
C628 C629 1.394 . S
C628 C634 1.465 . S
C629 C624 1.399 . S
C629 C628 1.394 . S
C629 C630 1.516 . S
C630 C629 1.516 . S
C630 C631 1.502 . S
C630 C632 1.561 . S
C630 C633 1.526 . S
C631 H615 0.959 . S
C631 H616 0.959 . S
C631 H617 0.961 . S
C631 C630 1.502 . S
C632 H618 0.960 . S
C632 H619 0.961 . S
C632 H620 0.959 . S
C632 C630 1.561 . S
C633 C630 1.526 . S
C633 C634 1.396 . S
C633 C638 1.390 . S
C634 C628 1.465 . S
C634 C633 1.396 . S
C634 C635 1.399 . S
C635 H621 0.929 . S
C635 C634 1.399 . S
C635 C636 1.385 . S
C636 H622 0.931 1_455 S
C636 C635 1.385 . S
C636 C637 1.389 1_455 S
C637 C636 1.389 1_655 S
C637 C638 1.387 1_655 S
C638 H623 0.936 . S
C638 C633 1.390 . S
C638 C637 1.387 1_455 S
H639 C651 0.930 . S
H640 C653 0.930 . S
H641 C654 0.930 . S
H642 C658 0.959 . S
H643 C658 0.959 . S
H644 C658 0.961 . S
H645 C659 0.960 . S
H646 C659 0.961 . S
H647 C659 0.959 . S
H648 C662 0.929 . S
H649 C663 0.931 . S
H650 C665 0.930 . S
C651 H639 0.930 . S
C651 C652 1.399 . S
C651 C656 1.399 . S
C652 C651 1.399 . S
C652 C653 1.376 . S
C653 H640 0.930 . S
C653 C652 1.376 . S
C653 C654 1.388 . S
C654 H641 0.930 . S
C654 C653 1.388 . S
C654 C655 1.390 . S
C655 C654 1.390 . S
C655 C656 1.394 . S
C655 C661 1.465 . S
C656 C651 1.399 . S
C656 C655 1.394 . S
C656 C657 1.516 . S
C657 C656 1.516 . S
C657 C658 1.502 . S
C657 C659 1.561 . S
C657 C660 1.526 . S
C658 H642 0.959 . S
C658 H643 0.959 . S
C658 H644 0.961 . S
C658 C657 1.502 . S
C659 H645 0.960 . S
C659 H646 0.961 . S
C659 H647 0.959 . S
C659 C657 1.561 . S
C660 C657 1.526 . S
C660 C661 1.396 . S
C660 C665 1.390 . S
C661 C655 1.465 . S
C661 C660 1.396 . S
C661 C662 1.399 . S
C662 H648 0.929 . S
C662 C661 1.399 . S
C662 C663 1.385 . S
C663 H649 0.931 . S
C663 C662 1.385 . S
C663 C664 1.389 . S
C664 C663 1.389 . S
C664 C665 1.387 . S
C665 H650 0.930 . S
C665 C660 1.390 . S
C665 C664 1.387 . S
H666 C678 0.930 . S
H667 C680 0.930 . S
H668 C681 0.930 . S
H669 C685 0.959 . S
H670 C685 0.959 . S
H671 C685 0.961 . S
H672 C686 0.960 . S
H673 C686 0.961 . S
H674 C686 0.959 . S
H675 C689 0.929 . S
H676 C690 0.931 . S
H677 C692 0.930 . S
C678 H666 0.930 . S
C678 C679 1.399 . S
C678 C683 1.399 . S
C679 C678 1.399 . S
C679 C680 1.376 . S
C680 H667 0.930 . S
C680 C679 1.376 . S
C680 C681 1.388 . S
C681 H668 0.930 . S
C681 C680 1.388 . S
C681 C682 1.390 . S
C682 C681 1.390 . S
C682 C683 1.394 . S
C682 C688 1.465 . S
C683 C678 1.399 . S
C683 C682 1.394 . S
C683 C684 1.516 . S
C684 C683 1.516 . S
C684 C685 1.502 . S
C684 C686 1.561 . S
C684 C687 1.526 . S
C685 H669 0.959 . S
C685 H670 0.959 . S
C685 H671 0.961 . S
C685 C684 1.502 . S
C686 H672 0.960 . S
C686 H673 0.961 . S
C686 H674 0.959 . S
C686 C684 1.561 . S
C687 C684 1.526 . S
C687 C688 1.396 . S
C687 C692 1.390 . S
C688 C682 1.465 . S
C688 C687 1.396 . S
C688 C689 1.399 . S
C689 H675 0.929 . S
C689 C688 1.399 . S
C689 C690 1.385 . S
C690 H676 0.931 . S
C690 C689 1.385 . S
C690 C691 1.389 . S
C691 C690 1.389 . S
C691 C692 1.387 . S
C692 H677 0.930 . S
C692 C687 1.390 . S
C692 C691 1.387 . S
H693 C705 0.930 . S
H694 C707 0.930 . S
H695 C708 0.930 . S
H696 C712 0.959 . S
H697 C712 0.959 . S
H698 C712 0.961 . S
H699 C713 0.960 . S
H700 C713 0.961 . S
H701 C713 0.959 . S
H702 C716 0.929 . S
H703 C717 0.931 . S
H704 C719 0.930 . S
C705 H693 0.930 . S
C705 C706 1.399 . S
C705 C710 1.399 . S
C706 C705 1.399 . S
C706 C707 1.376 . S
C707 H694 0.930 . S
C707 C706 1.376 . S
C707 C708 1.388 . S
C708 H695 0.930 . S
C708 C707 1.388 . S
C708 C709 1.390 . S
C709 C708 1.390 . S
C709 C710 1.394 . S
C709 C715 1.465 . S
C710 C705 1.399 . S
C710 C709 1.394 . S
C710 C711 1.516 . S
C711 C710 1.516 . S
C711 C712 1.502 . S
C711 C713 1.561 . S
C711 C714 1.526 . S
C712 H696 0.959 . S
C712 H697 0.959 . S
C712 H698 0.961 . S
C712 C711 1.502 . S
C713 H699 0.960 . S
C713 H700 0.961 . S
C713 H701 0.959 . S
C713 C711 1.561 . S
C714 C711 1.526 . S
C714 C715 1.396 . S
C714 C719 1.390 . S
C715 C709 1.465 . S
C715 C714 1.396 . S
C715 C716 1.399 . S
C716 H702 0.929 . S
C716 C715 1.399 . S
C716 C717 1.385 . S
C717 H703 0.931 . S
C717 C716 1.385 . S
C717 C718 1.389 . S
C718 C717 1.389 . S
C718 C719 1.387 . S
C719 H704 0.930 . S
C719 C714 1.390 . S
C719 C718 1.387 . S
H720 C732 0.930 . S
H721 C734 0.930 . S
H722 C735 0.930 . S
H723 C739 0.959 . S
H724 C739 0.959 . S
H725 C739 0.961 . S
H726 C740 0.960 . S
H727 C740 0.961 . S
H728 C740 0.959 . S
H729 C743 0.929 . S
H730 C744 0.931 . S
H731 C746 0.930 . S
C732 H720 0.930 . S
C732 C733 1.399 . S
C732 C737 1.399 . S
C733 C732 1.399 . S
C733 C734 1.376 . S
C734 H721 0.930 . S
C734 C733 1.376 . S
C734 C735 1.388 . S
C735 H722 0.930 . S
C735 C734 1.388 . S
C735 C736 1.390 . S
C736 C735 1.390 . S
C736 C737 1.394 . S
C736 C742 1.465 . S
C737 C732 1.399 . S
C737 C736 1.394 . S
C737 C738 1.516 . S
C738 C737 1.516 . S
C738 C739 1.502 . S
C738 C740 1.561 . S
C738 C741 1.526 . S
C739 H723 0.959 . S
C739 H724 0.959 . S
C739 H725 0.961 . S
C739 C738 1.502 . S
C740 H726 0.960 . S
C740 H727 0.961 . S
C740 H728 0.959 . S
C740 C738 1.561 . S
C741 C738 1.526 . S
C741 C742 1.396 . S
C741 C746 1.390 . S
C742 C736 1.465 . S
C742 C741 1.396 . S
C742 C743 1.399 . S
C743 H729 0.929 . S
C743 C742 1.399 . S
C743 C744 1.385 . S
C744 H730 0.931 . S
C744 C743 1.385 . S
C744 C745 1.389 . S
C745 C744 1.389 . S
C745 C746 1.387 . S
C746 H731 0.930 . S
C746 C741 1.390 . S
C746 C745 1.387 . S
H747 C759 0.930 . S
H748 C761 0.930 . S
H749 C762 0.930 . S
H750 C766 0.959 . S
H751 C766 0.959 . S
H752 C766 0.961 . S
H753 C767 0.960 . S
H754 C767 0.961 . S
H755 C767 0.959 . S
H756 C770 0.929 . S
H757 C771 0.931 . S
H758 C773 0.930 . S
C759 H747 0.930 . S
C759 C760 1.399 . S
C759 C764 1.399 . S
C760 C759 1.399 . S
C760 C761 1.376 . S
C761 H748 0.930 . S
C761 C760 1.376 . S
C761 C762 1.388 . S
C762 H749 0.930 . S
C762 C761 1.388 . S
C762 C763 1.390 . S
C763 C762 1.390 . S
C763 C764 1.394 . S
C763 C769 1.465 . S
C764 C759 1.399 . S
C764 C763 1.394 . S
C764 C765 1.516 . S
C765 C764 1.516 . S
C765 C766 1.502 . S
C765 C767 1.561 . S
C765 C768 1.526 . S
C766 H750 0.959 . S
C766 H751 0.959 . S
C766 H752 0.961 . S
C766 C765 1.502 . S
C767 H753 0.960 . S
C767 H754 0.961 . S
C767 H755 0.959 . S
C767 C765 1.561 . S
C768 C765 1.526 . S
C768 C769 1.396 . S
C768 C773 1.390 . S
C769 C763 1.465 . S
C769 C768 1.396 . S
C769 C770 1.399 . S
C770 H756 0.929 . S
C770 C769 1.399 . S
C770 C771 1.385 . S
C771 H757 0.931 . S
C771 C770 1.385 . S
C771 C772 1.389 . S
C772 C771 1.389 . S
C772 C773 1.387 . S
C773 H758 0.930 . S
C773 C768 1.390 . S
C773 C772 1.387 . S
H774 C786 0.930 . S
H775 C788 0.930 . S
H776 C789 0.930 . S
H777 C793 0.959 . S
H778 C793 0.959 . S
H779 C793 0.961 . S
H780 C794 0.960 . S
H781 C794 0.961 . S
H782 C794 0.959 . S
H783 C797 0.929 . S
H784 C798 0.931 . S
H785 C800 0.930 . S
C786 H774 0.930 . S
C786 C787 1.399 . S
C786 C791 1.399 . S
C787 C786 1.399 . S
C787 C788 1.376 . S
C788 H775 0.930 . S
C788 C787 1.376 . S
C788 C789 1.388 . S
C789 H776 0.930 . S
C789 C788 1.388 . S
C789 C790 1.390 . S
C790 C789 1.390 . S
C790 C791 1.394 . S
C790 C796 1.465 . S
C791 C786 1.399 . S
C791 C790 1.394 . S
C791 C792 1.516 . S
C792 C791 1.516 . S
C792 C793 1.502 . S
C792 C794 1.561 . S
C792 C795 1.526 . S
C793 H777 0.959 . S
C793 H778 0.959 . S
C793 H779 0.961 . S
C793 C792 1.502 . S
C794 H780 0.960 . S
C794 H781 0.961 . S
C794 H782 0.959 . S
C794 C792 1.561 . S
C795 C792 1.526 . S
C795 C796 1.396 . S
C795 C800 1.390 . S
C796 C790 1.465 . S
C796 C795 1.396 . S
C796 C797 1.399 . S
C797 H783 0.929 . S
C797 C796 1.399 . S
C797 C798 1.385 . S
C798 H784 0.931 . S
C798 C797 1.385 . S
C798 C799 1.389 . S
C799 C798 1.389 . S
C799 C800 1.387 . S
C800 H785 0.930 . S
C800 C795 1.390 . S
C800 C799 1.387 . S
H801 C813 0.930 . S
H802 C815 0.930 . S
H803 C816 0.930 . S
H804 C820 0.959 . S
H805 C820 0.959 . S
H806 C820 0.961 . S
H807 C821 0.960 . S
H808 C821 0.961 . S
H809 C821 0.959 . S
H810 C824 0.929 . S
H811 C825 0.931 . S
H812 C827 0.930 . S
C813 H801 0.930 . S
C813 C814 1.399 1_655 S
C813 C818 1.399 . S
C814 C813 1.399 1_455 S
C814 C815 1.376 . S
C815 H802 0.930 . S
C815 C814 1.376 . S
C815 C816 1.388 1_455 S
C816 H803 0.930 . S
C816 C815 1.388 1_655 S
C816 C817 1.390 . S
C817 C816 1.390 . S
C817 C818 1.394 . S
C817 C823 1.465 . S
C818 C813 1.399 . S
C818 C817 1.394 . S
C818 C819 1.516 . S
C819 C818 1.516 . S
C819 C820 1.502 . S
C819 C821 1.561 . S
C819 C822 1.526 . S
C820 H804 0.959 . S
C820 H805 0.959 . S
C820 H806 0.961 . S
C820 C819 1.502 . S
C821 H807 0.960 . S
C821 H808 0.961 . S
C821 H809 0.959 . S
C821 C819 1.561 . S
C822 C819 1.526 . S
C822 C823 1.396 . S
C822 C827 1.390 . S
C823 C817 1.465 . S
C823 C822 1.396 . S
C823 C824 1.399 . S
C824 H810 0.929 . S
C824 C823 1.399 . S
C824 C825 1.385 . S
C825 H811 0.931 . S
C825 C824 1.385 . S
C825 C826 1.389 . S
C826 C825 1.389 . S
C826 C827 1.387 . S
C827 H812 0.930 . S
C827 C822 1.390 . S
C827 C826 1.387 . S
H828 C840 0.930 . S
H829 C842 0.930 . S
H830 C843 0.930 . S
H831 C847 0.959 . S
H832 C847 0.959 . S
H833 C847 0.961 . S
H834 C848 0.960 . S
H835 C848 0.961 . S
H836 C848 0.959 . S
H837 C851 0.929 . S
H838 C852 0.931 . S
H839 C854 0.930 . S
C840 H828 0.930 . S
C840 C841 1.399 . S
C840 C845 1.399 . S
C841 C840 1.399 . S
C841 C842 1.376 . S
C842 H829 0.930 . S
C842 C841 1.376 . S
C842 C843 1.388 . S
C843 H830 0.930 . S
C843 C842 1.388 . S
C843 C844 1.390 . S
C844 C843 1.390 . S
C844 C845 1.394 . S
C844 C850 1.465 . S
C845 C840 1.399 . S
C845 C844 1.394 . S
C845 C846 1.516 . S
C846 C845 1.516 . S
C846 C847 1.502 . S
C846 C848 1.561 . S
C846 C849 1.526 . S
C847 H831 0.959 . S
C847 H832 0.959 . S
C847 H833 0.961 . S
C847 C846 1.502 . S
C848 H834 0.960 . S
C848 H835 0.961 . S
C848 H836 0.959 . S
C848 C846 1.561 . S
C849 C846 1.526 . S
C849 C850 1.396 . S
C849 C854 1.390 . S
C850 C844 1.465 . S
C850 C849 1.396 . S
C850 C851 1.399 . S
C851 H837 0.929 . S
C851 C850 1.399 . S
C851 C852 1.385 1_545 S
C852 H838 0.931 . S
C852 C851 1.385 1_565 S
C852 C853 1.389 . S
C853 C852 1.389 . S
C853 C854 1.387 1_565 S
C854 H839 0.930 . S
C854 C849 1.390 . S
C854 C853 1.387 1_545 S
H855 C867 0.930 1_455 S
H856 C869 0.931 . S
H857 C870 0.930 . S
H858 C874 0.959 . S
H859 C874 0.959 . S
H860 C874 0.961 . S
H861 C875 0.960 . S
H862 C875 0.961 . S
H863 C875 0.959 . S
H864 C878 0.929 . S
H865 C879 0.931 1_565 S
H866 C881 0.930 1_565 S
C867 H855 0.930 1_655 S
C867 C868 1.399 1_655 S
C867 C872 1.399 . S
C868 C867 1.399 1_455 S
C868 C869 1.376 1_455 S
C869 H856 0.931 . S
C869 C868 1.376 1_655 S
C869 C870 1.388 . S
C870 H857 0.930 . S
C870 C869 1.388 . S
C870 C871 1.390 . S
C871 C870 1.390 . S
C871 C872 1.394 . S
C871 C877 1.465 . S
C872 C867 1.399 . S
C872 C871 1.394 . S
C872 C873 1.516 . S
C873 C872 1.516 . S
C873 C874 1.502 . S
C873 C875 1.561 . S
C873 C876 1.526 . S
C874 H858 0.959 . S
C874 H859 0.959 . S
C874 H860 0.961 . S
C874 C873 1.502 . S
C875 H861 0.960 . S
C875 H862 0.961 . S
C875 H863 0.959 . S
C875 C873 1.561 . S
C876 C873 1.526 . S
C876 C877 1.396 . S
C876 C881 1.390 . S
C877 C871 1.465 . S
C877 C876 1.396 . S
C877 C878 1.399 . S
C878 H864 0.929 . S
C878 C877 1.399 . S
C878 C879 1.385 . S
C879 H865 0.931 1_545 S
C879 C878 1.385 . S
C879 C880 1.389 1_545 S
C880 C879 1.389 1_565 S
C880 C881 1.387 1_565 S
C881 H866 0.930 1_545 S
C881 C876 1.390 . S
C881 C880 1.387 1_545 S
H882 C894 0.930 . S
H883 C896 0.930 . S
H884 C897 0.930 . S
H885 C901 0.959 . S
H886 C901 0.959 . S
H887 C901 0.961 . S
H888 C902 0.960 . S
H889 C902 0.961 . S
H890 C902 0.959 . S
H891 C905 0.929 . S
H892 C906 0.931 . S
H893 C908 0.930 . S
C894 H882 0.930 . S
C894 C895 1.399 . S
C894 C899 1.399 . S
C895 C894 1.399 . S
C895 C896 1.376 . S
C896 H883 0.930 . S
C896 C895 1.376 . S
C896 C897 1.388 . S
C897 H884 0.930 . S
C897 C896 1.388 . S
C897 C898 1.390 . S
C898 C897 1.390 . S
C898 C899 1.394 . S
C898 C904 1.465 . S
C899 C894 1.399 . S
C899 C898 1.394 . S
C899 C900 1.516 . S
C900 C899 1.516 . S
C900 C901 1.502 . S
C900 C902 1.561 . S
C900 C903 1.526 . S
C901 H885 0.959 . S
C901 H886 0.959 . S
C901 H887 0.961 . S
C901 C900 1.502 . S
C902 H888 0.960 . S
C902 H889 0.961 . S
C902 H890 0.959 . S
C902 C900 1.561 . S
C903 C900 1.526 . S
C903 C904 1.396 . S
C903 C908 1.390 . S
C904 C898 1.465 . S
C904 C903 1.396 . S
C904 C905 1.399 . S
C905 H891 0.929 . S
C905 C904 1.399 . S
C905 C906 1.385 . S
C906 H892 0.931 . S
C906 C905 1.385 . S
C906 C907 1.389 . S
C907 C906 1.389 . S
C907 C908 1.387 . S
C908 H893 0.930 . S
C908 C903 1.390 . S
C908 C907 1.387 . S
H909 C921 0.930 . S
H910 C923 0.930 . S
H911 C924 0.930 . S
H912 C928 0.959 . S
H913 C928 0.959 . S
H914 C928 0.961 . S
H915 C929 0.960 . S
H916 C929 0.961 . S
H917 C929 0.959 . S
H918 C932 0.929 . S
H919 C933 0.931 . S
H920 C935 0.930 . S
C921 H909 0.930 . S
C921 C922 1.399 . S
C921 C926 1.399 . S
C922 C921 1.399 . S
C922 C923 1.376 . S
C923 H910 0.930 . S
C923 C922 1.376 . S
C923 C924 1.388 . S
C924 H911 0.930 . S
C924 C923 1.388 . S
C924 C925 1.390 . S
C925 C924 1.390 . S
C925 C926 1.394 . S
C925 C931 1.465 . S
C926 C921 1.399 . S
C926 C925 1.394 . S
C926 C927 1.516 . S
C927 C926 1.516 . S
C927 C928 1.502 . S
C927 C929 1.561 . S
C927 C930 1.526 . S
C928 H912 0.959 . S
C928 H913 0.959 . S
C928 H914 0.961 . S
C928 C927 1.502 . S
C929 H915 0.960 . S
C929 H916 0.961 . S
C929 H917 0.959 . S
C929 C927 1.561 . S
C930 C927 1.526 . S
C930 C931 1.396 . S
C930 C935 1.390 . S
C931 C925 1.465 . S
C931 C930 1.396 . S
C931 C932 1.399 . S
C932 H918 0.929 . S
C932 C931 1.399 . S
C932 C933 1.385 . S
C933 H919 0.931 . S
C933 C932 1.385 . S
C933 C934 1.389 . S
C934 C933 1.389 . S
C934 C935 1.387 . S
C935 H920 0.930 . S
C935 C930 1.390 . S
C935 C934 1.387 . S
H936 C948 0.930 . S
H937 C950 0.930 . S
H938 C951 0.930 . S
H939 C955 0.959 . S
H940 C955 0.959 . S
H941 C955 0.961 . S
H942 C956 0.960 . S
H943 C956 0.961 . S
H944 C956 0.959 . S
H945 C959 0.929 . S
H946 C960 0.931 . S
H947 C962 0.930 . S
C948 H936 0.930 . S
C948 C949 1.399 . S
C948 C953 1.399 . S
C949 C948 1.399 . S
C949 C950 1.376 . S
C950 H937 0.930 . S
C950 C949 1.376 . S
C950 C951 1.388 . S
C951 H938 0.930 . S
C951 C950 1.388 . S
C951 C952 1.390 . S
C952 C951 1.390 . S
C952 C953 1.394 . S
C952 C958 1.465 . S
C953 C948 1.399 . S
C953 C952 1.394 . S
C953 C954 1.516 . S
C954 C953 1.516 . S
C954 C955 1.502 . S
C954 C956 1.561 . S
C954 C957 1.526 . S
C955 H939 0.959 . S
C955 H940 0.959 . S
C955 H941 0.961 . S
C955 C954 1.502 . S
C956 H942 0.960 . S
C956 H943 0.961 . S
C956 H944 0.959 . S
C956 C954 1.561 . S
C957 C954 1.526 . S
C957 C958 1.396 . S
C957 C962 1.390 . S
C958 C952 1.465 . S
C958 C957 1.396 . S
C958 C959 1.399 . S
C959 H945 0.929 . S
C959 C958 1.399 . S
C959 C960 1.385 . S
C960 H946 0.931 . S
C960 C959 1.385 . S
C960 C961 1.389 . S
C961 C960 1.389 . S
C961 C962 1.387 . S
C962 H947 0.930 . S
C962 C957 1.390 . S
C962 C961 1.387 . S
H963 C975 0.930 . S
H964 C977 0.930 . S
H965 C978 0.930 . S
H966 C982 0.959 . S
H967 C982 0.959 . S
H968 C982 0.961 . S
H969 C983 0.960 . S
H970 C983 0.961 . S
H971 C983 0.959 . S
H972 C986 0.929 . S
H973 C987 0.931 . S
H974 C989 0.930 . S
C975 H963 0.930 . S
C975 C976 1.399 . S
C975 C980 1.399 . S
C976 C975 1.399 . S
C976 C977 1.376 . S
C977 H964 0.930 . S
C977 C976 1.376 . S
C977 C978 1.388 . S
C978 H965 0.930 . S
C978 C977 1.388 . S
C978 C979 1.390 . S
C979 C978 1.390 . S
C979 C980 1.394 . S
C979 C985 1.465 . S
C980 C975 1.399 . S
C980 C979 1.394 . S
C980 C981 1.516 . S
C981 C980 1.516 . S
C981 C982 1.502 . S
C981 C983 1.561 . S
C981 C984 1.526 . S
C982 H966 0.959 . S
C982 H967 0.959 . S
C982 H968 0.961 . S
C982 C981 1.502 . S
C983 H969 0.960 . S
C983 H970 0.961 . S
C983 H971 0.959 . S
C983 C981 1.561 . S
C984 C981 1.526 . S
C984 C985 1.396 . S
C984 C989 1.390 . S
C985 C979 1.465 . S
C985 C984 1.396 . S
C985 C986 1.399 . S
C986 H972 0.929 . S
C986 C985 1.399 . S
C986 C987 1.385 . S
C987 H973 0.931 . S
C987 C986 1.385 . S
C987 C988 1.389 . S
C988 C987 1.389 . S
C988 C989 1.387 . S
C989 H974 0.930 . S
C989 C984 1.390 . S
C989 C988 1.387 . S
H990 C1002 0.930 . S
H991 C1004 0.930 . S
H992 C1005 0.930 . S
H993 C1009 0.959 . S
H994 C1009 0.959 . S
H995 C1009 0.961 . S
H996 C1010 0.960 . S
H997 C1010 0.961 . S
H998 C1010 0.959 . S
H999 C1013 0.929 . S
H1000 C1014 0.931 . S
H1001 C1016 0.930 . S
C1002 H990 0.930 . S
C1002 C1003 1.399 . S
C1002 C1007 1.399 . S
C1003 C1002 1.399 . S
C1003 C1004 1.376 . S
C1004 H991 0.930 . S
C1004 C1003 1.376 . S
C1004 C1005 1.388 . S
C1005 H992 0.930 . S
C1005 C1004 1.388 . S
C1005 C1006 1.390 . S
C1006 C1005 1.390 . S
C1006 C1007 1.394 . S
C1006 C1012 1.465 . S
C1007 C1002 1.399 . S
C1007 C1006 1.394 . S
C1007 C1008 1.516 . S
C1008 C1007 1.516 . S
C1008 C1009 1.502 . S
C1008 C1010 1.561 . S
C1008 C1011 1.526 . S
C1009 H993 0.959 . S
C1009 H994 0.959 . S
C1009 H995 0.961 . S
C1009 C1008 1.502 . S
C1010 H996 0.960 . S
C1010 H997 0.961 . S
C1010 H998 0.959 . S
C1010 C1008 1.561 . S
C1011 C1008 1.526 . S
C1011 C1012 1.396 . S
C1011 C1016 1.390 . S
C1012 C1006 1.465 . S
C1012 C1011 1.396 . S
C1012 C1013 1.399 . S
C1013 H999 0.929 . S
C1013 C1012 1.399 . S
C1013 C1014 1.385 . S
C1014 H1000 0.931 . S
C1014 C1013 1.385 . S
C1014 C1015 1.389 . S
C1015 C1014 1.389 . S
C1015 C1016 1.387 . S
C1016 H1001 0.930 . S
C1016 C1011 1.390 . S
C1016 C1015 1.387 . S
H1017 C1029 0.930 . S
H1018 C1031 0.930 . S
H1019 C1032 0.930 . S
H1020 C1036 0.959 . S
H1021 C1036 0.959 . S
H1022 C1036 0.961 . S
H1023 C1037 0.960 . S
H1024 C1037 0.961 . S
H1025 C1037 0.959 . S
H1026 C1040 0.929 . S
H1027 C1041 0.931 . S
H1028 C1043 0.930 . S
C1029 H1017 0.930 . S
C1029 C1030 1.399 . S
C1029 C1034 1.399 . S
C1030 C1029 1.399 . S
C1030 C1031 1.376 . S
C1031 H1018 0.930 . S
C1031 C1030 1.376 . S
C1031 C1032 1.388 . S
C1032 H1019 0.930 . S
C1032 C1031 1.388 . S
C1032 C1033 1.390 . S
C1033 C1032 1.390 . S
C1033 C1034 1.394 . S
C1033 C1039 1.465 . S
C1034 C1029 1.399 . S
C1034 C1033 1.394 . S
C1034 C1035 1.516 . S
C1035 C1034 1.516 . S
C1035 C1036 1.502 . S
C1035 C1037 1.561 . S
C1035 C1038 1.526 . S
C1036 H1020 0.959 . S
C1036 H1021 0.959 . S
C1036 H1022 0.961 . S
C1036 C1035 1.502 . S
C1037 H1023 0.960 . S
C1037 H1024 0.961 . S
C1037 H1025 0.959 . S
C1037 C1035 1.561 . S
C1038 C1035 1.526 . S
C1038 C1039 1.396 . S
C1038 C1043 1.390 . S
C1039 C1033 1.465 . S
C1039 C1038 1.396 . S
C1039 C1040 1.399 . S
C1040 H1026 0.929 . S
C1040 C1039 1.399 . S
C1040 C1041 1.385 . S
C1041 H1027 0.931 . S
C1041 C1040 1.385 . S
C1041 C1042 1.389 . S
C1042 C1041 1.389 . S
C1042 C1043 1.387 . S
C1043 H1028 0.930 . S
C1043 C1038 1.390 . S
C1043 C1042 1.387 . S
H1044 C1056 0.930 . S
H1045 C1058 0.930 . S
H1046 C1059 0.930 . S
H1047 C1063 0.959 . S
H1048 C1063 0.959 . S
H1049 C1063 0.961 . S
H1050 C1064 0.960 . S
H1051 C1064 0.961 . S
H1052 C1064 0.959 . S
H1053 C1067 0.929 . S
H1054 C1068 0.931 . S
H1055 C1070 0.930 . S
C1056 H1044 0.930 . S
C1056 C1057 1.399 . S
C1056 C1061 1.399 . S
C1057 C1056 1.399 . S
C1057 C1058 1.376 . S
C1058 H1045 0.930 . S
C1058 C1057 1.376 . S
C1058 C1059 1.388 . S
C1059 H1046 0.930 . S
C1059 C1058 1.388 . S
C1059 C1060 1.390 . S
C1060 C1059 1.390 . S
C1060 C1061 1.394 . S
C1060 C1066 1.465 . S
C1061 C1056 1.399 . S
C1061 C1060 1.394 . S
C1061 C1062 1.516 . S
C1062 C1061 1.516 . S
C1062 C1063 1.502 . S
C1062 C1064 1.561 . S
C1062 C1065 1.526 . S
C1063 H1047 0.959 . S
C1063 H1048 0.959 . S
C1063 H1049 0.961 . S
C1063 C1062 1.502 . S
C1064 H1050 0.960 . S
C1064 H1051 0.961 . S
C1064 H1052 0.959 . S
C1064 C1062 1.561 . S
C1065 C1062 1.526 . S
C1065 C1066 1.396 . S
C1065 C1070 1.390 . S
C1066 C1060 1.465 . S
C1066 C1065 1.396 . S
C1066 C1067 1.399 . S
C1067 H1053 0.929 . S
C1067 C1066 1.399 . S
C1067 C1068 1.385 . S
C1068 H1054 0.931 . S
C1068 C1067 1.385 . S
C1068 C1069 1.389 . S
C1069 C1068 1.389 . S
C1069 C1070 1.387 . S
C1070 H1055 0.930 . S
C1070 C1065 1.390 . S
C1070 C1069 1.387 . S
H1071 C1083 0.930 . S
H1072 C1085 0.930 . S
H1073 C1086 0.930 . S
H1074 C1090 0.959 . S
H1075 C1090 0.959 . S
H1076 C1090 0.961 . S
H1077 C1091 0.960 . S
H1078 C1091 0.961 . S
H1079 C1091 0.959 . S
H1080 C1094 0.929 . S
H1081 C1095 0.931 . S
H1082 C1097 0.930 . S
C1083 H1071 0.930 . S
C1083 C1084 1.399 . S
C1083 C1088 1.399 . S
C1084 C1083 1.399 . S
C1084 C1085 1.376 . S
C1085 H1072 0.930 . S
C1085 C1084 1.376 . S
C1085 C1086 1.388 . S
C1086 H1073 0.930 . S
C1086 C1085 1.388 . S
C1086 C1087 1.390 . S
C1087 C1086 1.390 . S
C1087 C1088 1.394 . S
C1087 C1093 1.465 . S
C1088 C1083 1.399 . S
C1088 C1087 1.394 . S
C1088 C1089 1.516 . S
C1089 C1088 1.516 . S
C1089 C1090 1.502 . S
C1089 C1091 1.561 . S
C1089 C1092 1.526 . S
C1090 H1074 0.959 . S
C1090 H1075 0.959 . S
C1090 H1076 0.961 . S
C1090 C1089 1.502 . S
C1091 H1077 0.960 . S
C1091 H1078 0.961 . S
C1091 H1079 0.959 . S
C1091 C1089 1.561 . S
C1092 C1089 1.526 . S
C1092 C1093 1.396 . S
C1092 C1097 1.390 . S
C1093 C1087 1.465 . S
C1093 C1092 1.396 . S
C1093 C1094 1.399 . S
C1094 H1080 0.929 . S
C1094 C1093 1.399 . S
C1094 C1095 1.385 . S
C1095 H1081 0.931 . S
C1095 C1094 1.385 . S
C1095 C1096 1.389 . S
C1096 C1095 1.389 . S
C1096 C1097 1.387 . S
C1097 H1082 0.930 . S
C1097 C1092 1.390 . S
C1097 C1096 1.387 . S
H1098 C1110 0.930 . S
H1099 C1112 0.930 . S
H1100 C1113 0.930 . S
H1101 C1117 0.959 . S
H1102 C1117 0.959 . S
H1103 C1117 0.961 . S
H1104 C1118 0.960 . S
H1105 C1118 0.961 . S
H1106 C1118 0.959 . S
H1107 C1121 0.929 . S
H1108 C1122 0.931 . S
H1109 C1124 0.930 . S
C1110 H1098 0.930 . S
C1110 C1111 1.399 . S
C1110 C1115 1.399 . S
C1111 C1110 1.399 . S
C1111 C1112 1.376 . S
C1112 H1099 0.930 . S
C1112 C1111 1.376 . S
C1112 C1113 1.388 . S
C1113 H1100 0.930 . S
C1113 C1112 1.388 . S
C1113 C1114 1.390 . S
C1114 C1113 1.390 . S
C1114 C1115 1.394 . S
C1114 C1120 1.465 . S
C1115 C1110 1.399 . S
C1115 C1114 1.394 . S
C1115 C1116 1.516 . S
C1116 C1115 1.516 . S
C1116 C1117 1.502 . S
C1116 C1118 1.561 . S
C1116 C1119 1.526 . S
C1117 H1101 0.959 . S
C1117 H1102 0.959 . S
C1117 H1103 0.961 . S
C1117 C1116 1.502 . S
C1118 H1104 0.960 . S
C1118 H1105 0.961 . S
C1118 H1106 0.959 . S
C1118 C1116 1.561 . S
C1119 C1116 1.526 . S
C1119 C1120 1.396 . S
C1119 C1124 1.390 . S
C1120 C1114 1.465 . S
C1120 C1119 1.396 . S
C1120 C1121 1.399 . S
C1121 H1107 0.929 . S
C1121 C1120 1.399 . S
C1121 C1122 1.385 . S
C1122 H1108 0.931 . S
C1122 C1121 1.385 . S
C1122 C1123 1.389 . S
C1123 C1122 1.389 . S
C1123 C1124 1.387 . S
C1124 H1109 0.930 . S
C1124 C1119 1.390 . S
C1124 C1123 1.387 . S
H1125 C1137 0.930 . S
H1126 C1139 0.930 . S
H1127 C1140 0.930 . S
H1128 C1144 0.959 . S
H1129 C1144 0.959 . S
H1130 C1144 0.961 . S
H1131 C1145 0.960 . S
H1132 C1145 0.961 . S
H1133 C1145 0.959 . S
H1134 C1148 0.929 . S
H1135 C1149 0.931 . S
H1136 C1151 0.930 . S
C1137 H1125 0.930 . S
C1137 C1138 1.399 . S
C1137 C1142 1.399 . S
C1138 C1137 1.399 . S
C1138 C1139 1.376 . S
C1139 H1126 0.930 . S
C1139 C1138 1.376 . S
C1139 C1140 1.388 . S
C1140 H1127 0.930 . S
C1140 C1139 1.388 . S
C1140 C1141 1.390 . S
C1141 C1140 1.390 . S
C1141 C1142 1.394 . S
C1141 C1147 1.465 . S
C1142 C1137 1.399 . S
C1142 C1141 1.394 . S
C1142 C1143 1.516 . S
C1143 C1142 1.516 . S
C1143 C1144 1.502 . S
C1143 C1145 1.561 . S
C1143 C1146 1.526 . S
C1144 H1128 0.959 . S
C1144 H1129 0.959 . S
C1144 H1130 0.961 . S
C1144 C1143 1.502 . S
C1145 H1131 0.960 . S
C1145 H1132 0.961 . S
C1145 H1133 0.959 . S
C1145 C1143 1.561 . S
C1146 C1143 1.526 . S
C1146 C1147 1.396 . S
C1146 C1151 1.390 . S
C1147 C1141 1.465 . S
C1147 C1146 1.396 . S
C1147 C1148 1.399 . S
C1148 H1134 0.929 . S
C1148 C1147 1.399 . S
C1148 C1149 1.385 . S
C1149 H1135 0.931 . S
C1149 C1148 1.385 . S
C1149 C1150 1.389 . S
C1150 C1149 1.389 . S
C1150 C1151 1.387 . S
C1151 H1136 0.930 . S
C1151 C1146 1.390 . S
C1151 C1150 1.387 . S
H1152 C1164 0.930 . S
H1153 C1166 0.930 . S
H1154 C1167 0.930 . S
H1155 C1171 0.959 . S
H1156 C1171 0.959 . S
H1157 C1171 0.961 . S
H1158 C1172 0.960 . S
H1159 C1172 0.961 . S
H1160 C1172 0.959 . S
H1161 C1175 0.929 . S
H1162 C1176 0.931 . S
H1163 C1178 0.930 . S
C1164 H1152 0.930 . S
C1164 C1165 1.399 . S
C1164 C1169 1.399 . S
C1165 C1164 1.399 . S
C1165 C1166 1.376 . S
C1166 H1153 0.930 . S
C1166 C1165 1.376 . S
C1166 C1167 1.388 . S
C1167 H1154 0.930 . S
C1167 C1166 1.388 . S
C1167 C1168 1.390 . S
C1168 C1167 1.390 . S
C1168 C1169 1.394 . S
C1168 C1174 1.465 . S
C1169 C1164 1.399 . S
C1169 C1168 1.394 . S
C1169 C1170 1.516 . S
C1170 C1169 1.516 . S
C1170 C1171 1.502 . S
C1170 C1172 1.561 . S
C1170 C1173 1.526 . S
C1171 H1155 0.959 . S
C1171 H1156 0.959 . S
C1171 H1157 0.961 . S
C1171 C1170 1.502 . S
C1172 H1158 0.960 . S
C1172 H1159 0.961 . S
C1172 H1160 0.959 . S
C1172 C1170 1.561 . S
C1173 C1170 1.526 . S
C1173 C1174 1.396 . S
C1173 C1178 1.390 . S
C1174 C1168 1.465 . S
C1174 C1173 1.396 . S
C1174 C1175 1.399 . S
C1175 H1161 0.929 . S
C1175 C1174 1.399 . S
C1175 C1176 1.385 . S
C1176 H1162 0.931 . S
C1176 C1175 1.385 . S
C1176 C1177 1.389 . S
C1177 C1176 1.389 . S
C1177 C1178 1.387 . S
C1178 H1163 0.930 . S
C1178 C1173 1.390 . S
C1178 C1177 1.387 . S
H1179 C1191 0.930 . S
H1180 C1193 0.930 . S
H1181 C1194 0.930 . S
H1182 C1198 0.959 . S
H1183 C1198 0.959 . S
H1184 C1198 0.961 . S
H1185 C1199 0.960 . S
H1186 C1199 0.961 . S
H1187 C1199 0.959 . S
H1188 C1202 0.929 . S
H1189 C1203 0.931 . S
H1190 C1205 0.930 . S
C1191 H1179 0.930 . S
C1191 C1192 1.399 . S
C1191 C1196 1.399 . S
C1192 C1191 1.399 . S
C1192 C1193 1.376 . S
C1193 H1180 0.930 . S
C1193 C1192 1.376 . S
C1193 C1194 1.388 . S
C1194 H1181 0.930 . S
C1194 C1193 1.388 . S
C1194 C1195 1.390 . S
C1195 C1194 1.390 . S
C1195 C1196 1.394 . S
C1195 C1201 1.465 . S
C1196 C1191 1.399 . S
C1196 C1195 1.394 . S
C1196 C1197 1.516 . S
C1197 C1196 1.516 . S
C1197 C1198 1.502 . S
C1197 C1199 1.561 . S
C1197 C1200 1.526 . S
C1198 H1182 0.959 . S
C1198 H1183 0.959 . S
C1198 H1184 0.961 . S
C1198 C1197 1.502 . S
C1199 H1185 0.960 . S
C1199 H1186 0.961 . S
C1199 H1187 0.959 . S
C1199 C1197 1.561 . S
C1200 C1197 1.526 . S
C1200 C1201 1.396 . S
C1200 C1205 1.390 . S
C1201 C1195 1.465 . S
C1201 C1200 1.396 . S
C1201 C1202 1.399 . S
C1202 H1188 0.929 . S
C1202 C1201 1.399 . S
C1202 C1203 1.385 . S
C1203 H1189 0.931 . S
C1203 C1202 1.385 . S
C1203 C1204 1.389 . S
C1204 C1203 1.389 . S
C1204 C1205 1.387 . S
C1205 H1190 0.930 . S
C1205 C1200 1.390 . S
C1205 C1204 1.387 . S
H1206 C1218 0.930 . S
H1207 C1220 0.930 . S
H1208 C1221 0.930 . S
H1209 C1225 0.959 . S
H1210 C1225 0.959 . S
H1211 C1225 0.961 . S
H1212 C1226 0.960 . S
H1213 C1226 0.961 . S
H1214 C1226 0.959 . S
H1215 C1229 0.929 . S
H1216 C1230 0.931 . S
H1217 C1232 0.930 . S
C1218 H1206 0.930 . S
C1218 C1219 1.399 . S
C1218 C1223 1.399 . S
C1219 C1218 1.399 . S
C1219 C1220 1.376 . S
C1220 H1207 0.930 . S
C1220 C1219 1.376 . S
C1220 C1221 1.388 . S
C1221 H1208 0.930 . S
C1221 C1220 1.388 . S
C1221 C1222 1.390 . S
C1222 C1221 1.390 . S
C1222 C1223 1.394 . S
C1222 C1228 1.465 . S
C1223 C1218 1.399 . S
C1223 C1222 1.394 . S
C1223 C1224 1.516 . S
C1224 C1223 1.516 . S
C1224 C1225 1.502 . S
C1224 C1226 1.561 . S
C1224 C1227 1.526 . S
C1225 H1209 0.959 . S
C1225 H1210 0.959 . S
C1225 H1211 0.961 . S
C1225 C1224 1.502 . S
C1226 H1212 0.960 . S
C1226 H1213 0.961 . S
C1226 H1214 0.959 . S
C1226 C1224 1.561 . S
C1227 C1224 1.526 . S
C1227 C1228 1.396 . S
C1227 C1232 1.390 . S
C1228 C1222 1.465 . S
C1228 C1227 1.396 . S
C1228 C1229 1.399 . S
C1229 H1215 0.929 . S
C1229 C1228 1.399 . S
C1229 C1230 1.385 . S
C1230 H1216 0.931 . S
C1230 C1229 1.385 . S
C1230 C1231 1.389 . S
C1231 C1230 1.389 . S
C1231 C1232 1.387 . S
C1232 H1217 0.930 . S
C1232 C1227 1.390 . S
C1232 C1231 1.387 . S
H1233 C1245 0.930 . S
H1234 C1247 0.930 . S
H1235 C1248 0.930 . S
H1236 C1252 0.959 . S
H1237 C1252 0.959 . S
H1238 C1252 0.961 . S
H1239 C1253 0.960 . S
H1240 C1253 0.961 . S
H1241 C1253 0.959 . S
H1242 C1256 0.929 . S
H1243 C1257 0.931 . S
H1244 C1259 0.930 . S
C1245 H1233 0.930 . S
C1245 C1246 1.399 . S
C1245 C1250 1.399 . S
C1246 C1245 1.399 . S
C1246 C1247 1.376 . S
C1247 H1234 0.930 . S
C1247 C1246 1.376 . S
C1247 C1248 1.388 . S
C1248 H1235 0.930 . S
C1248 C1247 1.388 . S
C1248 C1249 1.390 . S
C1249 C1248 1.390 . S
C1249 C1250 1.394 . S
C1249 C1255 1.465 . S
C1250 C1245 1.399 . S
C1250 C1249 1.394 . S
C1250 C1251 1.516 1_545 S
C1251 C1250 1.516 1_565 S
C1251 C1252 1.502 . S
C1251 C1253 1.561 . S
C1251 C1254 1.526 . S
C1252 H1236 0.959 . S
C1252 H1237 0.959 . S
C1252 H1238 0.961 . S
C1252 C1251 1.502 . S
C1253 H1239 0.960 . S
C1253 H1240 0.961 . S
C1253 H1241 0.959 . S
C1253 C1251 1.561 . S
C1254 C1251 1.526 . S
C1254 C1255 1.396 1_565 S
C1254 C1259 1.390 . S
C1255 C1249 1.465 . S
C1255 C1254 1.396 1_545 S
C1255 C1256 1.399 . S
C1256 H1242 0.929 . S
C1256 C1255 1.399 . S
C1256 C1257 1.385 1_545 S
C1257 H1243 0.931 . S
C1257 C1256 1.385 1_565 S
C1257 C1258 1.389 . S
C1258 C1257 1.389 . S
C1258 C1259 1.387 . S
C1259 H1244 0.930 . S
C1259 C1254 1.390 . S
C1259 C1258 1.387 . S
H1260 C1272 0.930 . S
H1261 C1274 0.930 . S
H1262 C1275 0.930 . S
H1263 C1279 0.959 1_655 S
H1264 C1279 0.959 . S
H1265 C1279 0.961 . S
H1266 C1280 0.960 . S
H1267 C1280 0.961 . S
H1268 C1280 0.959 . S
H1269 C1283 0.929 . S
H1270 C1284 0.931 . S
H1271 C1286 0.930 . S
C1272 H1260 0.930 . S
C1272 C1273 1.399 . S
C1272 C1277 1.399 . S
C1273 C1272 1.399 . S
C1273 C1274 1.376 . S
C1274 H1261 0.930 . S
C1274 C1273 1.376 . S
C1274 C1275 1.388 . S
C1275 H1262 0.930 . S
C1275 C1274 1.388 . S
C1275 C1276 1.390 . S
C1276 C1275 1.390 . S
C1276 C1277 1.394 . S
C1276 C1282 1.465 1_455 S
C1277 C1272 1.399 . S
C1277 C1276 1.394 . S
C1277 C1278 1.516 . S
C1278 C1277 1.516 . S
C1278 C1279 1.502 . S
C1278 C1280 1.561 . S
C1278 C1281 1.526 1_455 S
C1279 H1263 0.959 1_455 S
C1279 H1264 0.959 . S
C1279 H1265 0.961 . S
C1279 C1278 1.502 . S
C1280 H1266 0.960 . S
C1280 H1267 0.961 . S
C1280 H1268 0.959 . S
C1280 C1278 1.561 . S
C1281 C1278 1.526 1_655 S
C1281 C1282 1.396 . S
C1281 C1286 1.390 . S
C1282 C1276 1.465 1_655 S
C1282 C1281 1.396 . S
C1282 C1283 1.399 . S
C1283 H1269 0.929 . S
C1283 C1282 1.399 . S
C1283 C1284 1.385 . S
C1284 H1270 0.931 . S
C1284 C1283 1.385 . S
C1284 C1285 1.389 . S
C1285 C1284 1.389 . S
C1285 C1286 1.387 . S
C1286 H1271 0.930 . S
C1286 C1281 1.390 . S
C1286 C1285 1.387 . S
H1287 C1299 0.930 . S
H1288 C1301 0.930 . S
H1289 C1302 0.930 . S
H1290 C1306 0.959 . S
H1291 C1306 0.959 . S
H1292 C1306 0.961 . S
H1293 C1307 0.960 . S
H1294 C1307 0.961 . S
H1295 C1307 0.959 . S
H1296 C1310 0.929 . S
H1297 C1311 0.931 . S
H1298 C1313 0.930 . S
C1299 H1287 0.930 . S
C1299 C1300 1.399 . S
C1299 C1304 1.399 . S
C1300 C1299 1.399 . S
C1300 C1301 1.376 . S
C1301 H1288 0.930 . S
C1301 C1300 1.376 . S
C1301 C1302 1.388 . S
C1302 H1289 0.930 . S
C1302 C1301 1.388 . S
C1302 C1303 1.390 . S
C1303 C1302 1.390 . S
C1303 C1304 1.394 . S
C1303 C1309 1.465 . S
C1304 C1299 1.399 . S
C1304 C1303 1.394 . S
C1304 C1305 1.516 . S
C1305 C1304 1.516 . S
C1305 C1306 1.502 . S
C1305 C1307 1.561 . S
C1305 C1308 1.526 . S
C1306 H1290 0.959 . S
C1306 H1291 0.959 . S
C1306 H1292 0.961 . S
C1306 C1305 1.502 . S
C1307 H1293 0.960 . S
C1307 H1294 0.961 . S
C1307 H1295 0.959 . S
C1307 C1305 1.561 . S
C1308 C1305 1.526 . S
C1308 C1309 1.396 . S
C1308 C1313 1.390 . S
C1309 C1303 1.465 . S
C1309 C1308 1.396 . S
C1309 C1310 1.399 . S
C1310 H1296 0.929 . S
C1310 C1309 1.399 . S
C1310 C1311 1.385 . S
C1311 H1297 0.931 . S
C1311 C1310 1.385 . S
C1311 C1312 1.389 . S
C1312 C1311 1.389 . S
C1312 C1313 1.387 . S
C1313 H1298 0.930 . S
C1313 C1308 1.390 . S
C1313 C1312 1.387 . S
H1314 C1326 0.930 . S
H1315 C1328 0.930 . S
H1316 C1329 0.930 . S
H1317 C1333 0.959 . S
H1318 C1333 0.959 . S
H1319 C1333 0.961 . S
H1320 C1334 0.960 1_545 S
H1321 C1334 0.961 . S
H1322 C1334 0.959 1_545 S
H1323 C1337 0.929 1_545 S
H1324 C1338 0.931 . S
H1325 C1340 0.930 . S
C1326 H1314 0.930 . S
C1326 C1327 1.399 . S
C1326 C1331 1.399 . S
C1327 C1326 1.399 . S
C1327 C1328 1.376 . S
C1328 H1315 0.930 . S
C1328 C1327 1.376 . S
C1328 C1329 1.388 . S
C1329 H1316 0.930 . S
C1329 C1328 1.388 . S
C1329 C1330 1.390 . S
C1330 C1329 1.390 . S
C1330 C1331 1.394 . S
C1330 C1336 1.465 1_545 S
C1331 C1326 1.399 . S
C1331 C1330 1.394 . S
C1331 C1332 1.516 1_545 S
C1332 C1331 1.516 1_565 S
C1332 C1333 1.502 . S
C1332 C1334 1.561 . S
C1332 C1335 1.526 . S
C1333 H1317 0.959 . S
C1333 H1318 0.959 . S
C1333 H1319 0.961 . S
C1333 C1332 1.502 . S
C1334 H1320 0.960 1_565 S
C1334 H1321 0.961 . S
C1334 H1322 0.959 1_565 S
C1334 C1332 1.561 . S
C1335 C1332 1.526 . S
C1335 C1336 1.396 . S
C1335 C1340 1.390 . S
C1336 C1330 1.465 1_565 S
C1336 C1335 1.396 . S
C1336 C1337 1.399 . S
C1337 H1323 0.929 1_565 S
C1337 C1336 1.399 . S
C1337 C1338 1.385 . S
C1338 H1324 0.931 . S
C1338 C1337 1.385 . S
C1338 C1339 1.389 . S
C1339 C1338 1.389 . S
C1339 C1340 1.387 . S
C1340 H1325 0.930 . S
C1340 C1335 1.390 . S
C1340 C1339 1.387 . S
H1341 C1353 0.930 . S
H1342 C1355 0.930 . S
H1343 C1356 0.930 . S
H1344 C1360 0.959 . S
H1345 C1360 0.959 . S
H1346 C1360 0.961 . S
H1347 C1361 0.960 . S
H1348 C1361 0.961 . S
H1349 C1361 0.959 . S
H1350 C1364 0.929 . S
H1351 C1365 0.931 . S
H1352 C1367 0.930 . S
C1353 H1341 0.930 . S
C1353 C1354 1.399 . S
C1353 C1358 1.399 . S
C1354 C1353 1.399 . S
C1354 C1355 1.376 . S
C1355 H1342 0.930 . S
C1355 C1354 1.376 . S
C1355 C1356 1.388 . S
C1356 H1343 0.930 . S
C1356 C1355 1.388 . S
C1356 C1357 1.390 . S
C1357 C1356 1.390 . S
C1357 C1358 1.394 . S
C1357 C1363 1.465 1_455 S
C1358 C1353 1.399 . S
C1358 C1357 1.394 . S
C1358 C1359 1.516 . S
C1359 C1358 1.516 . S
C1359 C1360 1.502 1_455 S
C1359 C1361 1.561 . S
C1359 C1362 1.526 1_455 S
C1360 H1344 0.959 . S
C1360 H1345 0.959 . S
C1360 H1346 0.961 . S
C1360 C1359 1.502 1_655 S
C1361 H1347 0.960 . S
C1361 H1348 0.961 . S
C1361 H1349 0.959 . S
C1361 C1359 1.561 . S
C1362 C1359 1.526 1_655 S
C1362 C1363 1.396 . S
C1362 C1367 1.390 . S
C1363 C1357 1.465 1_655 S
C1363 C1362 1.396 . S
C1363 C1364 1.399 . S
C1364 H1350 0.929 . S
C1364 C1363 1.399 . S
C1364 C1365 1.385 . S
C1365 H1351 0.931 . S
C1365 C1364 1.385 . S
C1365 C1366 1.389 . S
C1366 C1365 1.389 . S
C1366 C1367 1.387 . S
C1367 H1352 0.930 . S
C1367 C1362 1.390 . S
C1367 C1366 1.387 . S
H1368 C1380 0.930 . S
H1369 C1382 0.930 . S
H1370 C1383 0.930 . S
H1371 C1387 0.959 . S
H1372 C1387 0.959 . S
H1373 C1387 0.961 . S
H1374 C1388 0.960 . S
H1375 C1388 0.961 . S
H1376 C1388 0.959 . S
H1377 C1391 0.929 . S
H1378 C1392 0.931 . S
H1379 C1394 0.930 1_554 S
C1380 H1368 0.930 . S
C1380 C1381 1.399 . S
C1380 C1385 1.399 . S
C1381 C1380 1.399 . S
C1381 C1382 1.376 1_554 S
C1382 H1369 0.930 . S
C1382 C1381 1.376 1_556 S
C1382 C1383 1.388 . S
C1383 H1370 0.930 . S
C1383 C1382 1.388 . S
C1383 C1384 1.390 . S
C1384 C1383 1.390 . S
C1384 C1385 1.394 1_556 S
C1384 C1390 1.465 . S
C1385 C1380 1.399 . S
C1385 C1384 1.394 1_554 S
C1385 C1386 1.516 . S
C1386 C1385 1.516 . S
C1386 C1387 1.502 . S
C1386 C1388 1.561 . S
C1386 C1389 1.526 . S
C1387 H1371 0.959 . S
C1387 H1372 0.959 . S
C1387 H1373 0.961 . S
C1387 C1386 1.502 . S
C1388 H1374 0.960 . S
C1388 H1375 0.961 . S
C1388 H1376 0.959 . S
C1388 C1386 1.561 . S
C1389 C1386 1.526 . S
C1389 C1390 1.396 1_554 S
C1389 C1394 1.390 1_554 S
C1390 C1384 1.465 . S
C1390 C1389 1.396 1_556 S
C1390 C1391 1.399 . S
C1391 H1377 0.929 . S
C1391 C1390 1.399 . S
C1391 C1392 1.385 . S
C1392 H1378 0.931 . S
C1392 C1391 1.385 . S
C1392 C1393 1.389 . S
C1393 C1392 1.389 . S
C1393 C1394 1.387 . S
C1394 H1379 0.930 1_556 S
C1394 C1389 1.390 1_556 S
C1394 C1393 1.387 . S
H1395 C1407 0.930 1_554 S
H1396 C1409 0.930 . S
H1397 C1410 0.930 . S
H1398 C1414 0.959 . S
H1399 C1414 0.959 . S
H1400 C1414 0.961 . S
H1401 C1415 0.960 . S
H1402 C1415 0.961 . S
H1403 C1415 0.959 . S
H1404 C1418 0.929 . S
H1405 C1419 0.931 . S
H1406 C1421 0.930 . S
C1407 H1395 0.930 1_556 S
C1407 C1408 1.399 . S
C1407 C1412 1.399 1_556 S
C1408 C1407 1.399 . S
C1408 C1409 1.376 . S
C1409 H1396 0.930 . S
C1409 C1408 1.376 . S
C1409 C1410 1.388 . S
C1410 H1397 0.930 . S
C1410 C1409 1.388 . S
C1410 C1411 1.390 . S
C1411 C1410 1.390 . S
C1411 C1412 1.394 1_556 S
C1411 C1417 1.465 1_545 S
C1412 C1407 1.399 1_554 S
C1412 C1411 1.394 1_554 S
C1412 C1413 1.516 . S
C1413 C1412 1.516 . S
C1413 C1414 1.502 . S
C1413 C1415 1.561 . S
C1413 C1416 1.526 1_545 S
C1414 H1398 0.959 . S
C1414 H1399 0.959 . S
C1414 H1400 0.961 . S
C1414 C1413 1.502 . S
C1415 H1401 0.960 . S
C1415 H1402 0.961 . S
C1415 H1403 0.959 . S
C1415 C1413 1.561 . S
C1416 C1413 1.526 1_565 S
C1416 C1417 1.396 1_554 S
C1416 C1421 1.390 . S
C1417 C1411 1.465 1_565 S
C1417 C1416 1.396 1_556 S
C1417 C1418 1.399 . S
C1418 H1404 0.929 . S
C1418 C1417 1.399 . S
C1418 C1419 1.385 . S
C1419 H1405 0.931 . S
C1419 C1418 1.385 . S
C1419 C1420 1.389 1_556 S
C1420 C1419 1.389 1_554 S
C1420 C1421 1.387 . S
C1421 H1406 0.930 . S
C1421 C1416 1.390 . S
C1421 C1420 1.387 . S
H1422 C1434 0.930 . S
H1423 C1436 0.930 . S
H1424 C1437 0.930 . S
H1425 C1441 0.959 . S
H1426 C1441 0.959 . S
H1427 C1441 0.961 . S
H1428 C1442 0.960 . S
H1429 C1442 0.961 . S
H1430 C1442 0.959 . S
H1431 C1445 0.929 . S
H1432 C1446 0.931 . S
H1433 C1448 0.930 1_556 S
C1434 H1422 0.930 . S
C1434 C1435 1.399 . S
C1434 C1439 1.399 . S
C1435 C1434 1.399 . S
C1435 C1436 1.376 1_556 S
C1436 H1423 0.930 . S
C1436 C1435 1.376 1_554 S
C1436 C1437 1.388 . S
C1437 H1424 0.930 . S
C1437 C1436 1.388 . S
C1437 C1438 1.390 . S
C1438 C1437 1.390 . S
C1438 C1439 1.394 1_554 S
C1438 C1444 1.465 1_655 S
C1439 C1434 1.399 . S
C1439 C1438 1.394 1_556 S
C1439 C1440 1.516 1_655 S
C1440 C1439 1.516 1_455 S
C1440 C1441 1.502 . S
C1440 C1442 1.561 . S
C1440 C1443 1.526 . S
C1441 H1425 0.959 . S
C1441 H1426 0.959 . S
C1441 H1427 0.961 . S
C1441 C1440 1.502 . S
C1442 H1428 0.960 . S
C1442 H1429 0.961 . S
C1442 H1430 0.959 . S
C1442 C1440 1.561 . S
C1443 C1440 1.526 . S
C1443 C1444 1.396 1_556 S
C1443 C1448 1.390 1_556 S
C1444 C1438 1.465 1_455 S
C1444 C1443 1.396 1_554 S
C1444 C1445 1.399 . S
C1445 H1431 0.929 . S
C1445 C1444 1.399 . S
C1445 C1446 1.385 . S
C1446 H1432 0.931 . S
C1446 C1445 1.385 . S
C1446 C1447 1.389 . S
C1447 C1446 1.389 . S
C1447 C1448 1.387 . S
C1448 H1433 0.930 1_554 S
C1448 C1443 1.390 1_554 S
C1448 C1447 1.387 . S
H1449 C1461 0.930 . S
H1450 C1463 0.930 . S
H1451 C1464 0.930 . S
H1452 C1468 0.959 . S
H1453 C1468 0.959 . S
H1454 C1468 0.961 . S
H1455 C1469 0.960 . S
H1456 C1469 0.961 . S
H1457 C1469 0.959 . S
H1458 C1472 0.929 . S
H1459 C1473 0.931 . S
H1460 C1475 0.930 1_554 S
C1461 H1449 0.930 . S
C1461 C1462 1.399 . S
C1461 C1466 1.399 . S
C1462 C1461 1.399 . S
C1462 C1463 1.376 1_554 S
C1463 H1450 0.930 . S
C1463 C1462 1.376 1_556 S
C1463 C1464 1.388 . S
C1464 H1451 0.930 . S
C1464 C1463 1.388 . S
C1464 C1465 1.390 . S
C1465 C1464 1.390 . S
C1465 C1466 1.394 1_556 S
C1465 C1471 1.465 . S
C1466 C1461 1.399 . S
C1466 C1465 1.394 1_554 S
C1466 C1467 1.516 . S
C1467 C1466 1.516 . S
C1467 C1468 1.502 . S
C1467 C1469 1.561 . S
C1467 C1470 1.526 . S
C1468 H1452 0.959 . S
C1468 H1453 0.959 . S
C1468 H1454 0.961 . S
C1468 C1467 1.502 . S
C1469 H1455 0.960 . S
C1469 H1456 0.961 . S
C1469 H1457 0.959 . S
C1469 C1467 1.561 . S
C1470 C1467 1.526 . S
C1470 C1471 1.396 1_554 S
C1470 C1475 1.390 1_554 S
C1471 C1465 1.465 . S
C1471 C1470 1.396 1_556 S
C1471 C1472 1.399 . S
C1472 H1458 0.929 . S
C1472 C1471 1.399 . S
C1472 C1473 1.385 . S
C1473 H1459 0.931 . S
C1473 C1472 1.385 . S
C1473 C1474 1.389 . S
C1474 C1473 1.389 . S
C1474 C1475 1.387 . S
C1475 H1460 0.930 1_556 S
C1475 C1470 1.390 1_556 S
C1475 C1474 1.387 . S
H1476 C1488 0.930 1_556 S
H1477 C1490 0.930 . S
H1478 C1491 0.930 . S
H1479 C1495 0.959 . S
H1480 C1495 0.959 . S
H1481 C1495 0.961 . S
H1482 C1496 0.960 . S
H1483 C1496 0.961 . S
H1484 C1496 0.959 . S
H1485 C1499 0.929 . S
H1486 C1500 0.940 . S
H1487 C1502 0.930 . S
C1488 H1476 0.930 1_554 S
C1488 C1489 1.399 . S
C1488 C1493 1.399 1_554 S
C1489 C1488 1.399 . S
C1489 C1490 1.376 . S
C1490 H1477 0.930 . S
C1490 C1489 1.376 . S
C1490 C1491 1.388 . S
C1491 H1478 0.930 . S
C1491 C1490 1.388 . S
C1491 C1492 1.390 . S
C1492 C1491 1.390 . S
C1492 C1493 1.394 1_554 S
C1492 C1498 1.465 1_565 S
C1493 C1488 1.399 1_556 S
C1493 C1492 1.394 1_556 S
C1493 C1494 1.516 . S
C1494 C1493 1.516 . S
C1494 C1495 1.502 . S
C1494 C1496 1.561 . S
C1494 C1497 1.526 1_565 S
C1495 H1479 0.959 . S
C1495 H1480 0.959 . S
C1495 H1481 0.961 . S
C1495 C1494 1.502 . S
C1496 H1482 0.960 . S
C1496 H1483 0.961 . S
C1496 H1484 0.959 . S
C1496 C1494 1.561 . S
C1497 C1494 1.526 1_545 S
C1497 C1498 1.396 1_556 S
C1497 C1502 1.390 . S
C1498 C1492 1.465 1_545 S
C1498 C1497 1.396 1_554 S
C1498 C1499 1.399 . S
C1499 H1485 0.929 . S
C1499 C1498 1.399 . S
C1499 C1500 1.398 . S
C1500 H1486 0.940 . S
C1500 C1499 1.398 . S
C1500 C1501 1.369 1_554 S
C1501 C1500 1.369 1_556 S
C1501 C1502 1.387 . S
C1502 H1487 0.930 . S
C1502 C1497 1.390 . S
C1502 C1501 1.387 . S
H1503 C1515 0.930 1_554 S
H1504 C1517 0.930 . S
H1505 C1518 0.930 . S
H1506 C1522 0.959 . S
H1507 C1522 0.959 . S
H1508 C1522 0.961 . S
H1509 C1523 0.960 . S
H1510 C1523 0.961 . S
H1511 C1523 0.959 . S
H1512 C1526 0.929 . S
H1513 C1527 0.931 . S
H1514 C1529 0.930 . S
C1515 H1503 0.930 1_556 S
C1515 C1516 1.399 . S
C1515 C1520 1.399 1_556 S
C1516 C1515 1.399 . S
C1516 C1517 1.376 . S
C1517 H1504 0.930 . S
C1517 C1516 1.376 . S
C1517 C1518 1.388 . S
C1518 H1505 0.930 . S
C1518 C1517 1.388 . S
C1518 C1519 1.390 . S
C1519 C1518 1.390 . S
C1519 C1520 1.394 1_556 S
C1519 C1525 1.465 1_655 S
C1520 C1515 1.399 1_554 S
C1520 C1519 1.394 1_554 S
C1520 C1521 1.516 . S
C1521 C1520 1.516 . S
C1521 C1522 1.502 . S
C1521 C1523 1.561 . S
C1521 C1524 1.526 1_655 S
C1522 H1506 0.959 . S
C1522 H1507 0.959 . S
C1522 H1508 0.961 . S
C1522 C1521 1.502 . S
C1523 H1509 0.960 . S
C1523 H1510 0.961 . S
C1523 H1511 0.959 . S
C1523 C1521 1.561 . S
C1524 C1521 1.526 1_455 S
C1524 C1525 1.396 1_554 S
C1524 C1529 1.390 . S
C1525 C1519 1.465 1_455 S
C1525 C1524 1.396 1_556 S
C1525 C1526 1.399 . S
C1526 H1512 0.929 . S
C1526 C1525 1.399 . S
C1526 C1527 1.385 . S
C1527 H1513 0.931 . S
C1527 C1526 1.385 . S
C1527 C1528 1.389 1_556 S
C1528 C1527 1.389 1_554 S
C1528 C1529 1.387 . S
C1529 H1514 0.930 . S
C1529 C1524 1.390 . S
C1529 C1528 1.387 . S
H1530 C1542 0.930 . S
H1531 C1544 0.930 . S
H1532 C1545 0.930 . S
H1533 C1549 0.959 . S
H1534 C1549 0.959 . S
H1535 C1549 0.961 . S
H1536 C1550 0.960 . S
H1537 C1550 0.961 . S
H1538 C1550 0.959 . S
H1539 C1553 0.929 . S
H1540 C1554 0.931 . S
H1541 C1556 0.930 . S
C1542 H1530 0.930 . S
C1542 C1543 1.399 . S
C1542 C1547 1.399 . S
C1543 C1542 1.399 . S
C1543 C1544 1.376 . S
C1544 H1531 0.930 . S
C1544 C1543 1.376 . S
C1544 C1545 1.388 . S
C1545 H1532 0.930 . S
C1545 C1544 1.388 . S
C1545 C1546 1.390 . S
C1546 C1545 1.390 . S
C1546 C1547 1.394 . S
C1546 C1552 1.465 . S
C1547 C1542 1.399 . S
C1547 C1546 1.394 . S
C1547 C1548 1.516 . S
C1548 C1547 1.516 . S
C1548 C1549 1.502 1_655 S
C1548 C1550 1.561 1_655 S
C1548 C1551 1.526 . S
C1549 H1533 0.959 . S
C1549 H1534 0.959 . S
C1549 H1535 0.961 . S
C1549 C1548 1.502 1_455 S
C1550 H1536 0.960 . S
C1550 H1537 0.961 . S
C1550 H1538 0.959 . S
C1550 C1548 1.561 1_455 S
C1551 C1548 1.526 . S
C1551 C1552 1.396 . S
C1551 C1556 1.390 1_655 S
C1552 C1546 1.465 . S
C1552 C1551 1.396 . S
C1552 C1553 1.399 . S
C1553 H1539 0.929 . S
C1553 C1552 1.399 . S
C1553 C1554 1.385 . S
C1554 H1540 0.931 . S
C1554 C1553 1.385 . S
C1554 C1555 1.412 . S
C1555 C1554 1.412 . S
C1555 C1556 1.389 1_655 S
C1556 H1541 0.930 . S
C1556 C1551 1.390 1_455 S
C1556 C1555 1.389 1_455 S
H1557 C1569 0.930 . S
H1558 C1571 0.930 . S
H1559 C1572 0.930 . S
H1560 C1576 0.959 . S
H1561 C1576 0.959 . S
H1562 C1576 0.961 . S
H1563 C1577 0.960 . S
H1564 C1577 0.961 . S
H1565 C1577 0.959 . S
H1566 C1580 0.929 . S
H1567 C1581 0.931 . S
H1568 C1583 0.930 . S
C1569 H1557 0.930 . S
C1569 C1570 1.399 . S
C1569 C1574 1.399 . S
C1570 C1569 1.399 . S
C1570 C1571 1.376 . S
C1571 H1558 0.930 . S
C1571 C1570 1.376 . S
C1571 C1572 1.388 . S
C1572 H1559 0.930 . S
C1572 C1571 1.388 . S
C1572 C1573 1.390 . S
C1573 C1572 1.390 . S
C1573 C1574 1.394 . S
C1573 C1579 1.465 . S
C1574 C1569 1.399 . S
C1574 C1573 1.394 . S
C1574 C1575 1.516 . S
C1575 C1574 1.516 . S
C1575 C1576 1.502 . S
C1575 C1577 1.561 . S
C1575 C1578 1.526 . S
C1576 H1560 0.959 . S
C1576 H1561 0.959 . S
C1576 H1562 0.961 . S
C1576 C1575 1.502 . S
C1577 H1563 0.960 . S
C1577 H1564 0.961 . S
C1577 H1565 0.959 . S
C1577 C1575 1.561 . S
C1578 C1575 1.526 . S
C1578 C1579 1.396 . S
C1578 C1583 1.390 . S
C1579 C1573 1.465 . S
C1579 C1578 1.396 . S
C1579 C1580 1.399 . S
C1580 H1566 0.929 . S
C1580 C1579 1.399 . S
C1580 C1581 1.385 . S
C1581 H1567 0.931 . S
C1581 C1580 1.385 . S
C1581 C1582 1.389 . S
C1582 C1581 1.389 . S
C1582 C1583 1.387 . S
C1583 H1568 0.930 . S
C1583 C1578 1.390 . S
C1583 C1582 1.387 . S
H1584 C1596 0.930 . S
H1585 C1598 0.930 . S
H1586 C1599 0.930 . S
H1587 C1603 0.959 . S
H1588 C1603 0.959 . S
H1589 C1603 0.961 . S
H1590 C1604 0.960 1_565 S
H1591 C1604 0.961 . S
H1592 C1604 0.959 . S
H1593 C1607 0.929 . S
H1594 C1608 0.931 . S
H1595 C1610 0.930 . S
C1596 H1584 0.930 . S
C1596 C1597 1.377 1_565 S
C1596 C1601 1.399 1_565 S
C1597 C1596 1.377 1_545 S
C1597 C1598 1.405 . S
C1598 H1585 0.930 . S
C1598 C1597 1.405 . S
C1598 C1599 1.388 . S
C1599 H1586 0.930 . S
C1599 C1598 1.388 . S
C1599 C1600 1.390 . S
C1600 C1599 1.390 . S
C1600 C1601 1.394 . S
C1600 C1606 1.465 . S
C1601 C1596 1.399 1_545 S
C1601 C1600 1.394 . S
C1601 C1602 1.516 . S
C1602 C1601 1.516 . S
C1602 C1603 1.502 1_545 S
C1602 C1604 1.561 . S
C1602 C1605 1.526 . S
C1603 H1587 0.959 . S
C1603 H1588 0.959 . S
C1603 H1589 0.961 . S
C1603 C1602 1.502 1_565 S
C1604 H1590 0.960 1_545 S
C1604 H1591 0.961 . S
C1604 H1592 0.959 . S
C1604 C1602 1.561 . S
C1605 C1602 1.526 . S
C1605 C1606 1.396 . S
C1605 C1610 1.390 . S
C1606 C1600 1.465 . S
C1606 C1605 1.396 . S
C1606 C1607 1.399 . S
C1607 H1593 0.929 . S
C1607 C1606 1.399 . S
C1607 C1608 1.385 . S
C1608 H1594 0.931 . S
C1608 C1607 1.385 . S
C1608 C1609 1.389 . S
C1609 C1608 1.389 . S
C1609 C1610 1.387 . S
C1610 H1595 0.930 . S
C1610 C1605 1.390 . S
C1610 C1609 1.387 . S
H1611 C1623 0.930 . S
H1612 C1625 0.930 . S
H1613 C1626 0.930 . S
H1614 C1630 0.959 . S
H1615 C1630 0.959 . S
H1616 C1630 0.961 1_545 S
H1617 C1631 0.960 . S
H1618 C1631 0.961 . S
H1619 C1631 0.959 . S
H1620 C1634 0.929 . S
H1621 C1635 0.931 . S
H1622 C1637 0.930 1_565 S
C1623 H1611 0.930 . S
C1623 C1624 1.399 . S
C1623 C1628 1.399 . S
C1624 C1623 1.399 . S
C1624 C1625 1.376 . S
C1625 H1612 0.930 . S
C1625 C1624 1.376 . S
C1625 C1626 1.388 . S
C1626 H1613 0.930 . S
C1626 C1625 1.388 . S
C1626 C1627 1.390 . S
C1627 C1626 1.390 . S
C1627 C1628 1.394 . S
C1627 C1633 1.465 . S
C1628 C1623 1.399 . S
C1628 C1627 1.394 . S
C1628 C1629 1.516 . S
C1629 C1628 1.516 . S
C1629 C1630 1.502 1_545 S
C1629 C1631 1.561 . S
C1629 C1632 1.526 . S
C1630 H1614 0.959 . S
C1630 H1615 0.959 . S
C1630 H1616 0.961 1_565 S
C1630 C1629 1.502 1_565 S
C1631 H1617 0.960 . S
C1631 H1618 0.961 . S
C1631 H1619 0.959 . S
C1631 C1629 1.561 . S
C1632 C1629 1.526 . S
C1632 C1633 1.396 . S
C1632 C1637 1.390 . S
C1633 C1627 1.465 . S
C1633 C1632 1.396 . S
C1633 C1634 1.399 . S
C1634 H1620 0.929 . S
C1634 C1633 1.399 . S
C1634 C1635 1.385 . S
C1635 H1621 0.931 . S
C1635 C1634 1.385 . S
C1635 C1636 1.389 1_545 S
C1636 C1635 1.389 1_565 S
C1636 C1637 1.387 1_565 S
C1637 H1622 0.930 1_545 S
C1637 C1632 1.390 . S
C1637 C1636 1.387 1_545 S
H1638 C1650 0.930 . S
H1639 C1652 0.930 . S
H1640 C1653 0.930 . S
H1641 C1657 0.959 . S
H1642 C1657 0.959 . S
H1643 C1657 0.961 . S
H1644 C1658 0.960 . S
H1645 C1658 0.961 . S
H1646 C1658 0.959 . S
H1647 C1661 0.929 . S
H1648 C1662 0.931 . S
H1649 C1664 0.930 . S
C1650 H1638 0.930 . S
C1650 C1651 1.399 1_655 S
C1650 C1655 1.399 . S
C1651 C1650 1.399 1_455 S
C1651 C1652 1.376 . S
C1652 H1639 0.930 . S
C1652 C1651 1.376 . S
C1652 C1653 1.388 . S
C1653 H1640 0.930 . S
C1653 C1652 1.388 . S
C1653 C1654 1.390 1_455 S
C1654 C1653 1.390 1_655 S
C1654 C1655 1.394 . S
C1654 C1660 1.465 . S
C1655 C1650 1.399 . S
C1655 C1654 1.394 . S
C1655 C1656 1.516 . S
C1656 C1655 1.516 . S
C1656 C1657 1.502 . S
C1656 C1658 1.561 . S
C1656 C1659 1.526 . S
C1657 H1641 0.959 . S
C1657 H1642 0.959 . S
C1657 H1643 0.961 . S
C1657 C1656 1.502 . S
C1658 H1644 0.960 . S
C1658 H1645 0.961 . S
C1658 H1646 0.959 . S
C1658 C1656 1.561 . S
C1659 C1656 1.526 . S
C1659 C1660 1.396 . S
C1659 C1664 1.390 . S
C1660 C1654 1.465 . S
C1660 C1659 1.396 . S
C1660 C1661 1.399 . S
C1661 H1647 0.929 . S
C1661 C1660 1.399 . S
C1661 C1662 1.385 . S
C1662 H1648 0.931 . S
C1662 C1661 1.385 . S
C1662 C1663 1.389 . S
C1663 C1662 1.389 . S
C1663 C1664 1.387 . S
C1664 H1649 0.930 . S
C1664 C1659 1.390 . S
C1664 C1663 1.387 . S
H1665 C1677 0.930 . S
H1666 C1679 0.930 . S
H1667 C1680 0.930 . S
H1668 C1684 0.959 . S
H1669 C1684 0.959 . S
H1670 C1684 0.961 . S
H1671 C1685 0.960 . S
H1672 C1685 0.961 . S
H1673 C1685 0.959 . S
H1674 C1688 0.929 . S
H1675 C1689 0.931 . S
H1676 C1691 0.930 . S
C1677 H1665 0.930 . S
C1677 C1678 1.399 . S
C1677 C1682 1.399 . S
C1678 C1677 1.399 . S
C1678 C1679 1.376 . S
C1679 H1666 0.930 . S
C1679 C1678 1.376 . S
C1679 C1680 1.388 . S
C1680 H1667 0.930 . S
C1680 C1679 1.388 . S
C1680 C1681 1.390 . S
C1681 C1680 1.390 . S
C1681 C1682 1.394 . S
C1681 C1687 1.465 . S
C1682 C1677 1.399 . S
C1682 C1681 1.394 . S
C1682 C1683 1.516 . S
C1683 C1682 1.516 . S
C1683 C1684 1.502 . S
C1683 C1685 1.561 . S
C1683 C1686 1.526 . S
C1684 H1668 0.959 . S
C1684 H1669 0.959 . S
C1684 H1670 0.961 . S
C1684 C1683 1.502 . S
C1685 H1671 0.960 . S
C1685 H1672 0.961 . S
C1685 H1673 0.959 . S
C1685 C1683 1.561 . S
C1686 C1683 1.526 . S
C1686 C1687 1.396 . S
C1686 C1691 1.390 . S
C1687 C1681 1.465 . S
C1687 C1686 1.396 . S
C1687 C1688 1.399 . S
C1688 H1674 0.929 . S
C1688 C1687 1.399 . S
C1688 C1689 1.385 . S
C1689 H1675 0.931 . S
C1689 C1688 1.385 . S
C1689 C1690 1.389 . S
C1690 C1689 1.389 . S
C1690 C1691 1.387 . S
C1691 H1676 0.930 . S
C1691 C1686 1.390 . S
C1691 C1690 1.387 . S
H1692 C1704 0.930 . S
H1693 C1706 0.930 . S
H1694 C1707 0.930 . S
H1695 C1711 0.959 1_565 S
H1696 C1711 0.959 . S
H1697 C1711 0.961 . S
H1698 C1712 0.960 . S
H1699 C1712 0.961 . S
H1700 C1712 0.959 . S
H1701 C1715 0.929 . S
H1702 C1716 0.931 . S
H1703 C1718 0.930 . S
C1704 H1692 0.930 . S
C1704 C1705 1.399 . S
C1704 C1709 1.399 . S
C1705 C1704 1.399 . S
C1705 C1706 1.376 . S
C1706 H1693 0.930 . S
C1706 C1705 1.376 . S
C1706 C1707 1.388 . S
C1707 H1694 0.930 . S
C1707 C1706 1.388 . S
C1707 C1708 1.390 . S
C1708 C1707 1.390 . S
C1708 C1709 1.394 . S
C1708 C1714 1.465 . S
C1709 C1704 1.399 . S
C1709 C1708 1.394 . S
C1709 C1710 1.516 . S
C1710 C1709 1.516 . S
C1710 C1711 1.502 1_565 S
C1710 C1712 1.561 1_565 S
C1710 C1713 1.526 . S
C1711 H1695 0.959 1_545 S
C1711 H1696 0.959 . S
C1711 H1697 0.961 . S
C1711 C1710 1.502 1_545 S
C1712 H1698 0.960 . S
C1712 H1699 0.961 . S
C1712 H1700 0.959 . S
C1712 C1710 1.561 1_545 S
C1713 C1710 1.526 . S
C1713 C1714 1.396 . S
C1713 C1718 1.390 1_565 S
C1714 C1708 1.465 . S
C1714 C1713 1.396 . S
C1714 C1715 1.399 . S
C1715 H1701 0.929 . S
C1715 C1714 1.399 . S
C1715 C1716 1.385 . S
C1716 H1702 0.931 . S
C1716 C1715 1.385 . S
C1716 C1717 1.397 . S
C1717 C1716 1.397 . S
C1717 C1718 1.389 1_565 S
C1718 H1703 0.930 . S
C1718 C1713 1.390 1_545 S
C1718 C1717 1.389 1_545 S
H1719 C1731 0.930 . S
H1720 C1733 0.930 . S
H1721 C1734 0.930 . S
H1722 C1738 0.959 . S
H1723 C1738 0.959 . S
H1724 C1738 0.961 . S
H1725 C1739 0.960 . S
H1726 C1739 0.961 . S
H1727 C1739 0.959 . S
H1728 C1742 0.929 . S
H1729 C1743 0.931 . S
H1730 C1745 0.930 . S
C1731 H1719 0.930 . S
C1731 C1732 1.399 . S
C1731 C1736 1.399 . S
C1732 C1731 1.399 . S
C1732 C1733 1.376 . S
C1733 H1720 0.930 . S
C1733 C1732 1.376 . S
C1733 C1734 1.388 . S
C1734 H1721 0.930 . S
C1734 C1733 1.388 . S
C1734 C1735 1.390 . S
C1735 C1734 1.390 . S
C1735 C1736 1.394 . S
C1735 C1741 1.465 . S
C1736 C1731 1.399 . S
C1736 C1735 1.394 . S
C1736 C1737 1.516 . S
C1737 C1736 1.516 . S
C1737 C1738 1.502 . S
C1737 C1739 1.561 . S
C1737 C1740 1.526 . S
C1738 H1722 0.959 . S
C1738 H1723 0.959 . S
C1738 H1724 0.961 . S
C1738 C1737 1.502 . S
C1739 H1725 0.960 . S
C1739 H1726 0.961 . S
C1739 H1727 0.959 . S
C1739 C1737 1.561 . S
C1740 C1737 1.526 . S
C1740 C1741 1.396 . S
C1740 C1745 1.390 . S
C1741 C1735 1.465 . S
C1741 C1740 1.396 . S
C1741 C1742 1.399 1_455 S
C1742 H1728 0.929 . S
C1742 C1741 1.399 1_655 S
C1742 C1743 1.385 . S
C1743 H1729 0.931 . S
C1743 C1742 1.385 . S
C1743 C1744 1.389 . S
C1744 C1743 1.389 . S
C1744 C1745 1.387 1_655 S
C1745 H1730 0.930 . S
C1745 C1740 1.390 . S
C1745 C1744 1.387 1_455 S
H1746 C1758 0.930 . S
H1747 C1760 0.930 . S
H1748 C1761 0.930 . S
H1749 C1765 0.959 . S
H1750 C1765 0.959 . S
H1751 C1765 0.961 . S
H1752 C1766 0.960 . S
H1753 C1766 0.961 . S
H1754 C1766 0.959 . S
H1755 C1769 0.929 . S
H1756 C1770 0.931 . S
H1757 C1772 0.930 . S
C1758 H1746 0.930 . S
C1758 C1759 1.399 . S
C1758 C1763 1.399 . S
C1759 C1758 1.399 . S
C1759 C1760 1.376 . S
C1760 H1747 0.930 . S
C1760 C1759 1.376 . S
C1760 C1761 1.388 . S
C1761 H1748 0.930 . S
C1761 C1760 1.388 . S
C1761 C1762 1.390 . S
C1762 C1761 1.390 . S
C1762 C1763 1.394 . S
C1762 C1768 1.465 . S
C1763 C1758 1.399 . S
C1763 C1762 1.394 . S
C1763 C1764 1.516 . S
C1764 C1763 1.516 . S
C1764 C1765 1.502 . S
C1764 C1766 1.561 . S
C1764 C1767 1.526 . S
C1765 H1749 0.959 . S
C1765 H1750 0.959 . S
C1765 H1751 0.961 . S
C1765 C1764 1.502 . S
C1766 H1752 0.960 . S
C1766 H1753 0.961 . S
C1766 H1754 0.959 . S
C1766 C1764 1.561 . S
C1767 C1764 1.526 . S
C1767 C1768 1.396 . S
C1767 C1772 1.390 . S
C1768 C1762 1.465 . S
C1768 C1767 1.396 . S
C1768 C1769 1.399 . S
C1769 H1755 0.929 . S
C1769 C1768 1.399 . S
C1769 C1770 1.385 . S
C1770 H1756 0.931 . S
C1770 C1769 1.385 . S
C1770 C1771 1.389 . S
C1771 C1770 1.389 . S
C1771 C1772 1.387 . S
C1772 H1757 0.930 . S
C1772 C1767 1.390 . S
C1772 C1771 1.387 . S
H1773 C1785 0.930 . S
H1774 C1787 0.930 . S
H1775 C1788 0.930 . S
H1776 C1792 0.959 . S
H1777 C1792 0.959 . S
H1778 C1792 0.961 . S
H1779 C1793 0.960 . S
H1780 C1793 0.961 . S
H1781 C1793 0.959 1_655 S
H1782 C1796 0.929 . S
H1783 C1797 0.931 . S
H1784 C1799 0.930 . S
C1785 H1773 0.930 . S
C1785 C1786 1.399 1_455 S
C1785 C1790 1.399 . S
C1786 C1785 1.399 1_655 S
C1786 C1787 1.376 . S
C1787 H1774 0.930 . S
C1787 C1786 1.376 . S
C1787 C1788 1.388 1_655 S
C1788 H1775 0.930 . S
C1788 C1787 1.388 1_455 S
C1788 C1789 1.390 . S
C1789 C1788 1.390 . S
C1789 C1790 1.394 . S
C1789 C1795 1.465 . S
C1790 C1785 1.399 . S
C1790 C1789 1.394 . S
C1790 C1791 1.516 . S
C1791 C1790 1.516 . S
C1791 C1792 1.502 . S
C1791 C1793 1.561 . S
C1791 C1794 1.526 . S
C1792 H1776 0.959 . S
C1792 H1777 0.959 . S
C1792 H1778 0.961 . S
C1792 C1791 1.502 . S
C1793 H1779 0.960 . S
C1793 H1780 0.961 . S
C1793 H1781 0.959 1_455 S
C1793 C1791 1.561 . S
C1794 C1791 1.526 . S
C1794 C1795 1.396 . S
C1794 C1799 1.390 . S
C1795 C1789 1.465 . S
C1795 C1794 1.396 . S
C1795 C1796 1.399 . S
C1796 H1782 0.929 . S
C1796 C1795 1.399 . S
C1796 C1797 1.385 . S
C1797 H1783 0.931 . S
C1797 C1796 1.385 . S
C1797 C1798 1.389 . S
C1798 C1797 1.389 . S
C1798 C1799 1.387 . S
C1799 H1784 0.930 . S
C1799 C1794 1.390 . S
C1799 C1798 1.387 . S
H1800 C1812 0.930 . S
H1801 C1814 0.930 . S
H1802 C1815 0.930 . S
H1803 C1819 0.959 . S
H1804 C1819 0.959 . S
H1805 C1819 0.961 . S
H1806 C1820 0.960 . S
H1807 C1820 0.961 . S
H1808 C1820 0.959 . S
H1809 C1823 0.929 . S
H1810 C1824 0.931 . S
H1811 C1826 0.930 . S
C1812 H1800 0.930 . S
C1812 C1813 1.399 . S
C1812 C1817 1.399 . S
C1813 C1812 1.399 . S
C1813 C1814 1.376 . S
C1814 H1801 0.930 . S
C1814 C1813 1.376 . S
C1814 C1815 1.388 . S
C1815 H1802 0.930 . S
C1815 C1814 1.388 . S
C1815 C1816 1.390 . S
C1816 C1815 1.390 . S
C1816 C1817 1.394 . S
C1816 C1822 1.465 . S
C1817 C1812 1.399 . S
C1817 C1816 1.394 . S
C1817 C1818 1.516 . S
C1818 C1817 1.516 . S
C1818 C1819 1.502 . S
C1818 C1820 1.561 . S
C1818 C1821 1.526 . S
C1819 H1803 0.959 . S
C1819 H1804 0.959 . S
C1819 H1805 0.961 . S
C1819 C1818 1.502 . S
C1820 H1806 0.960 . S
C1820 H1807 0.961 . S
C1820 H1808 0.959 . S
C1820 C1818 1.561 . S
C1821 C1818 1.526 . S
C1821 C1822 1.396 . S
C1821 C1826 1.390 . S
C1822 C1816 1.465 . S
C1822 C1821 1.396 . S
C1822 C1823 1.399 . S
C1823 H1809 0.929 . S
C1823 C1822 1.399 . S
C1823 C1824 1.385 . S
C1824 H1810 0.931 . S
C1824 C1823 1.385 . S
C1824 C1825 1.389 . S
C1825 C1824 1.389 . S
C1825 C1826 1.387 . S
C1826 H1811 0.930 . S
C1826 C1821 1.390 . S
C1826 C1825 1.387 . S
H1827 C1839 0.930 . S
H1828 C1841 0.930 . S
H1829 C1842 0.930 . S
H1830 C1846 0.959 . S
H1831 C1846 0.959 . S
H1832 C1846 0.961 . S
H1833 C1847 0.960 . S
H1834 C1847 0.961 1_545 S
H1835 C1847 0.959 . S
H1836 C1850 0.929 . S
H1837 C1851 0.931 . S
H1838 C1853 0.930 . S
C1839 H1827 0.930 . S
C1839 C1840 1.399 . S
C1839 C1844 1.399 . S
C1840 C1839 1.399 . S
C1840 C1841 1.376 . S
C1841 H1828 0.930 . S
C1841 C1840 1.376 . S
C1841 C1842 1.388 . S
C1842 H1829 0.930 . S
C1842 C1841 1.388 . S
C1842 C1843 1.390 . S
C1843 C1842 1.390 . S
C1843 C1844 1.394 . S
C1843 C1849 1.465 . S
C1844 C1839 1.399 . S
C1844 C1843 1.394 . S
C1844 C1845 1.516 . S
C1845 C1844 1.516 . S
C1845 C1846 1.502 1_565 S
C1845 C1847 1.561 . S
C1845 C1848 1.526 . S
C1846 H1830 0.959 . S
C1846 H1831 0.959 . S
C1846 H1832 0.961 . S
C1846 C1845 1.502 1_545 S
C1847 H1833 0.960 . S
C1847 H1834 0.961 1_565 S
C1847 H1835 0.959 . S
C1847 C1845 1.561 . S
C1848 C1845 1.526 . S
C1848 C1849 1.396 . S
C1848 C1853 1.390 1_565 S
C1849 C1843 1.465 . S
C1849 C1848 1.396 . S
C1849 C1850 1.399 . S
C1850 H1836 0.929 . S
C1850 C1849 1.399 . S
C1850 C1851 1.385 . S
C1851 H1837 0.931 . S
C1851 C1850 1.385 . S
C1851 C1852 1.409 . S
C1852 C1851 1.409 . S
C1852 C1853 1.371 1_565 S
C1853 H1838 0.930 . S
C1853 C1848 1.390 1_545 S
C1853 C1852 1.371 1_545 S
C409 C48 1.173 . S
C421 C8 1.183 . S
C436 C30 1.195 . S
C448 C4 1.210 . S
C463 C26 1.268 . S
C475 C52 1.265 . S
C490 C70 1.168 . S
C502 C96 1.169 . S
C517 C118 1.263 . S
C529 C92 1.254 . S
C544 C114 1.169 . S
C556 C74 1.169 . S
C571 C180 1.172 . S
C583 C140 1.181 . S
C598 C136 1.255 . S
C610 C162 1.243 . S
C625 C158 1.191 . S
C637 C184 1.205 . S
C652 C228 1.190 . S
C664 C202 1.179 . S
C679 C224 1.202 . S
C691 C250 1.217 . S
C706 C206 1.267 . S
C718 C246 1.261 . S
C733 C272 1.246 . S
C745 C312 1.232 . S
C760 C268 1.171 . S
C772 C294 1.179 . S
C787 C290 1.231 . S
C799 C316 1.245 . S
C814 C360 1.194 . S
C826 C334 1.182 . S
C841 C382 1.169 . S
C853 C356 1.176 . S
C868 C378 1.241 . S
C880 C338 1.227 . S
C895 C9 1.047 . S
C907 C203 1.032 . S
C922 C31 1.019 . S
C934 C225 1.041 . S
C949 C247 0.935 . S
C961 C53 0.965 . S
C976 C71 1.036 . S
C988 C273 1.006 . S
C1003 C295 1.043 . S
C1015 C93 1.020 . S
C1030 C317 0.981 . S
C1042 C115 1.016 . S
C1057 C292 1.047 . S
C1069 C117 1.009 . S
C1084 C73 1.047 . S
C1096 C314 1.013 . S
C1111 C270 0.995 . S
C1123 C95 1.044 . S
C1138 C28 1.043 . S
C1150 C249 1.027 . S
C1165 C50 1.015 . S
C1177 C205 1.045 . S
C1192 C227 0.997 . S
C1204 C6 1.045 . S
C1219 C335 1.034 . S
C1231 C141 1.003 . S
C1246 C163 0.991 . S
C1258 C357 1.024 . S
C1273 C379 0.933 . S
C1285 C185 0.926 . S
C1300 C381 1.000 . S
C1312 C160 0.935 . S
C1327 C182 0.986 . S
C1339 C337 1.042 . S
C1354 C359 1.028 . S
C1366 C138 1.041 . S
C1381 C5 1.296 . S
C1393 C75 1.313 . S
C1408 C97 1.316 . S
C1420 C27 1.302 . S
C1435 C119 1.295 . S
C1447 C49 1.311 . S
C1462 C29 1.303 . S
C1474 C116 1.314 . S
C1489 C51 1.303 . S
C1501 C72 1.295 . S
C1516 C94 1.311 . S
C1528 C7 1.299 . S
C1543 C137 1.298 . S
C1555 C207 1.274 1_655 S
C1570 C229 1.294 . S
C1582 C159 1.309 . S
C1597 C251 1.296 1_545 S
C1609 C181 1.299 . S
C1624 C161 1.302 . S
C1636 C248 1.295 . S
C1651 C204 1.307 . S
C1663 C183 1.316 . S
C1678 C139 1.310 . S
C1690 C226 1.316 . S
C1705 C339 1.302 . S
C1717 C269 1.286 1_565 S
C1732 C361 1.316 . S
C1744 C291 1.305 . S
C1759 C383 1.315 . S
C1771 C313 1.307 . S
C1786 C293 1.301 . S
C1798 C380 1.313 . S
C1813 C315 1.300 . S
C1825 C336 1.295 . S
C1840 C358 1.296 . S
C1852 C271 1.296 1_565 S
