# Generated by pormake.
# Topology wfa, (4)-cn, num edge types: 1
# Building blocks:
#     Node 0, Type 0, BuildingBlock: ICAMEG_clean_sbu_1, # of connection points: 4
#     Node 1, Type 0, BuildingBlock: ICAMEG_clean_sbu_1, # of connection points: 4
#     Node 2, Type 0, BuildingBlock: ICAMEG_clean_sbu_1, # of connection points: 4
#     Node 3, Type 0, BuildingBlock: ICAMEG_clean_sbu_1, # of connection points: 4
#     Node 4, Type 0, BuildingBlock: ICAMEG_clean_sbu_1, # of connection points: 4
#     Node 5, Type 0, BuildingBlock: ICAMEG_clean_sbu_1, # of connection points: 4
#     Node 6, Type 0, BuildingBlock: ICAMEG_clean_sbu_1, # of connection points: 4
#     Node 7, Type 0, BuildingBlock: ICAMEG_clean_sbu_1, # of connection points: 4
#     Node 8, Type 0, BuildingBlock: ICAMEG_clean_sbu_1, # of connection points: 4
#     Node 9, Type 0, BuildingBlock: ICAMEG_clean_sbu_1, # of connection points: 4
#     Node 10, Type 0, BuildingBlock: ICAMEG_clean_sbu_1, # of connection points: 4
#     Node 11, Type 0, BuildingBlock: ICAMEG_clean_sbu_1, # of connection points: 4
#     Node 12, Type 0, BuildingBlock: ICAMEG_clean_sbu_1, # of connection points: 4
#     Node 13, Type 0, BuildingBlock: ICAMEG_clean_sbu_1, # of connection points: 4
#     Node 14, Type 0, BuildingBlock: ICAMEG_clean_sbu_1, # of connection points: 4
#     Node 15, Type 0, BuildingBlock: ICAMEG_clean_sbu_1, # of connection points: 4
#     Edge 16, Type (0, 0), BuildingBlock: AJUNOK_clean_linker_0, # of connection points: 2
#     Edge 17, Type (0, 0), BuildingBlock: AJUNOK_clean_linker_0, # of connection points: 2
#     Edge 18, Type (0, 0), BuildingBlock: AJUNOK_clean_linker_0, # of connection points: 2
#     Edge 19, Type (0, 0), BuildingBlock: AJUNOK_clean_linker_0, # of connection points: 2
#     Edge 20, Type (0, 0), BuildingBlock: AJUNOK_clean_linker_0, # of connection points: 2
#     Edge 21, Type (0, 0), BuildingBlock: AJUNOK_clean_linker_0, # of connection points: 2
#     Edge 22, Type (0, 0), BuildingBlock: AJUNOK_clean_linker_0, # of connection points: 2
#     Edge 23, Type (0, 0), BuildingBlock: AJUNOK_clean_linker_0, # of connection points: 2
#     Edge 24, Type (0, 0), BuildingBlock: AJUNOK_clean_linker_0, # of connection points: 2
#     Edge 25, Type (0, 0), BuildingBlock: AJUNOK_clean_linker_0, # of connection points: 2
#     Edge 26, Type (0, 0), BuildingBlock: AJUNOK_clean_linker_0, # of connection points: 2
#     Edge 27, Type (0, 0), BuildingBlock: AJUNOK_clean_linker_0, # of connection points: 2
#     Edge 28, Type (0, 0), BuildingBlock: AJUNOK_clean_linker_0, # of connection points: 2
#     Edge 29, Type (0, 0), BuildingBlock: AJUNOK_clean_linker_0, # of connection points: 2
#     Edge 30, Type (0, 0), BuildingBlock: AJUNOK_clean_linker_0, # of connection points: 2
#     Edge 31, Type (0, 0), BuildingBlock: AJUNOK_clean_linker_0, # of connection points: 2
#     Edge 32, Type (0, 0), BuildingBlock: AJUNOK_clean_linker_0, # of connection points: 2
#     Edge 33, Type (0, 0), BuildingBlock: AJUNOK_clean_linker_0, # of connection points: 2
#     Edge 34, Type (0, 0), BuildingBlock: AJUNOK_clean_linker_0, # of connection points: 2
#     Edge 35, Type (0, 0), BuildingBlock: AJUNOK_clean_linker_0, # of connection points: 2
#     Edge 36, Type (0, 0), BuildingBlock: AJUNOK_clean_linker_0, # of connection points: 2
#     Edge 37, Type (0, 0), BuildingBlock: AJUNOK_clean_linker_0, # of connection points: 2
#     Edge 38, Type (0, 0), BuildingBlock: AJUNOK_clean_linker_0, # of connection points: 2
#     Edge 39, Type (0, 0), BuildingBlock: AJUNOK_clean_linker_0, # of connection points: 2
#     Edge 40, Type (0, 0), BuildingBlock: AJUNOK_clean_linker_0, # of connection points: 2
#     Edge 41, Type (0, 0), BuildingBlock: AJUNOK_clean_linker_0, # of connection points: 2
#     Edge 42, Type (0, 0), BuildingBlock: AJUNOK_clean_linker_0, # of connection points: 2
#     Edge 43, Type (0, 0), BuildingBlock: AJUNOK_clean_linker_0, # of connection points: 2
#     Edge 44, Type (0, 0), BuildingBlock: AJUNOK_clean_linker_0, # of connection points: 2
#     Edge 45, Type (0, 0), BuildingBlock: AJUNOK_clean_linker_0, # of connection points: 2
#     Edge 46, Type (0, 0), BuildingBlock: AJUNOK_clean_linker_0, # of connection points: 2
#     Edge 47, Type (0, 0), BuildingBlock: AJUNOK_clean_linker_0, # of connection points: 2
# Relax obj value: 0.078
# Max RMSD: 0.218
# Mean RMSD: 0.190
data_MOF--net-wfa--node1-ICAMEG_clean_sbu_1--edge1-AJUNOK_clean_linker_0
_symmetry_space_group_name_H-M    P1
_symmetry_Int_Tables_number       1
_symmetry_cell_setting            triclinic
loop_
_symmetry_equiv_pos_as_xyz
'x, y, z'
_cell_length_a     35.750174
_cell_length_b     35.651492
_cell_length_c     20.01426
_cell_angle_alpha  89.130416
_cell_angle_beta   89.141212
_cell_angle_gamma 88.988447
loop_
_atom_site_label
_atom_site_type_symbol
_atom_site_fract_x
_atom_site_fract_y
_atom_site_fract_z
_atom_type_partial_charge
Co0 Co 0.63599 0.97747 0.12898 0.0
Co1 Co 0.64616 0.04496 1.00392 0.0
O2 O 0.66373 1.00055 0.0542 0.0
C3 C 0.70889 0.9961 0.18485 0.0
O4 O 0.70435 0.028 0.15217 0.0
C5 C 0.67139 0.98843 0.90165 0.0
O6 O 0.66457 0.96079 0.94371 0.0
O7 O 0.59679 0.02202 0.99105 0.0
O8 O 0.58684 0.98526 0.08135 0.0
H9 H 0.55139 0.14353 0.93593 0.0
H10 H 0.70178 0.93497 0.07601 0.0
O11 O 0.68429 0.97073 0.17977 0.0
H12 H 0.59357 0.85409 0.04046 0.0
H13 H 0.61619 0.88283 0.3153 0.0
H14 H 0.565 0.99558 0.20108 0.0
H15 H 0.58515 0.91562 0.09379 0.0
H16 H 0.64961 0.91102 0.21853 0.0
O17 O 0.66496 0.0224 0.9179 0.0
H18 H 0.57657 0.09144 1.00521 0.0
H19 H 0.67729 0.0904 0.89003 0.0
H20 H 0.53068 0.96829 0.29738 0.0
H21 H 0.71158 0.87331 0.02352 0.0
H22 H 0.55637 0.91172 0.35546 0.0
H23 H 0.65716 0.83253 1.005 0.0
O24 O 0.62881 0.02653 0.17163 0.0
H25 H 0.78678 0.04752 1.00267 0.0
H26 H 0.67063 0.12027 0.0463 0.0
H27 H 0.73163 0.15029 0.05979 0.0
H28 H 0.79018 0.11416 0.03635 0.0
H29 H 0.72521 0.01867 0.98925 0.0
H30 H 0.65294 0.14201 0.81869 0.0
H31 H 0.58945 0.16877 0.8412 0.0
O32 O 0.62713 0.06947 0.08837 0.0
C33 C 0.57548 1.00216 0.02825 0.0
C34 C 0.57913 0.13217 0.9257 0.0
C35 C 0.63611 0.13128 0.85988 0.0
N36 N 0.62857 0.08824 0.95243 0.0
C37 C 0.59369 0.10294 0.96524 0.0
C38 C 0.64977 0.1021 0.90055 0.0
C39 C 0.60046 0.14624 0.87245 0.0
C40 C 0.67806 0.91717 0.06887 0.0
N41 N 0.64295 0.92893 0.08774 0.0
C42 C 0.68374 0.88238 0.03878 0.0
C43 C 0.65318 0.85954 0.0283 0.0
C44 C 0.61748 0.87166 0.04804 0.0
C45 C 0.61286 0.90663 0.07788 0.0
C46 C 0.60472 0.90752 0.29039 0.0
C47 C 0.5762 0.9707 0.22562 0.0
C48 C 0.62352 0.9236 0.23561 0.0
N49 N 0.60911 0.95472 0.20381 0.0
C50 C 0.55669 0.95545 0.28029 0.0
C51 C 0.57113 0.92368 0.31285 0.0
C52 C 0.62403 0.05996 0.15006 0.0
C53 C 0.76143 0.06375 0.01195 0.0
C54 C 0.69602 0.1042 0.03675 0.0
C55 C 0.73047 0.12138 0.04434 0.0
C56 C 0.76334 0.10103 0.0314 0.0
N57 N 0.69435 0.06787 0.01625 0.0
C58 C 0.72647 0.04757 1.00435 0.0
Co59 Co 0.54254 0.65364 0.13156 0.0
Co60 Co 0.47684 0.66369 0.0086 0.0
O61 O 0.52062 0.68152 0.05613 0.0
C62 C 0.53168 0.73064 0.18228 0.0
O63 O 0.49966 0.73099 0.15105 0.0
C64 C 0.531 0.6896 0.90138 0.0
O65 O 0.55944 0.67792 0.9372 0.0
O66 O 0.50223 0.61458 0.99218 0.0
O67 O 0.5312 0.604 0.08927 0.0
H68 H 0.37878 0.57096 0.94781 0.0
H69 H 0.58779 0.71328 0.06738 0.0
O70 O 0.55355 0.70206 0.17792 0.0
H71 H 0.66161 0.59638 0.03792 0.0
H72 H 0.63811 0.62726 0.30984 0.0
H73 H 0.51935 0.58761 0.2131 0.0
H74 H 0.60087 0.59569 0.09789 0.0
H75 H 0.61097 0.66183 0.21374 0.0
O76 O 0.49757 0.68451 0.92208 0.0
H77 H 0.43187 0.59409 0.01213 0.0
H78 H 0.43036 0.69589 0.89891 0.0
H79 H 0.54545 0.5523 0.30904 0.0
H80 H 0.64869 0.71539 0.00786 0.0
H81 H 0.60532 0.57199 0.3579 0.0
H82 H 0.68594 0.65658 0.9925 0.0
O83 O 0.49343 0.65306 0.17773 0.0
H84 H 0.46349 0.80418 0.99939 0.0
H85 H 0.40111 0.68586 0.05924 0.0
H86 H 0.36568 0.7456 0.06646 0.0
H87 H 0.39615 0.80485 0.03234 0.0
H88 H 0.49793 0.74376 0.99269 0.0
H89 H 0.37786 0.67365 0.83298 0.0
H90 H 0.35168 0.61109 0.85722 0.0
O91 O 0.45413 0.6427 0.0939 0.0
C92 C 0.51774 0.59243 0.03452 0.0
C93 C 0.39 0.59842 0.93683 0.0
C94 C 0.38949 0.65603 0.87229 0.0
N95 N 0.43415 0.64635 0.95958 0.0
C96 C 0.41991 0.61172 0.97329 0.0
C97 C 0.41931 0.6684 0.90975 0.0
C98 C 0.37484 0.6208 0.88595 0.0
C99 C 0.60407 0.68768 0.06158 0.0
N100 N 0.59079 0.65442 0.08601 0.0
C101 C 0.63844 0.689 0.02754 0.0
C102 C 0.65928 0.65598 0.01881 0.0
C103 C 0.64562 0.62218 0.04418 0.0
C104 C 0.6111 0.62193 0.07781 0.0
C105 C 0.61208 0.61831 0.28875 0.0
C106 C 0.5455 0.5963 0.23387 0.0
C107 C 0.5966 0.63776 0.23433 0.0
N108 N 0.56391 0.6264 0.2071 0.0
C109 C 0.5601 0.57622 0.28831 0.0
C110 C 0.59369 0.5873 0.31573 0.0
C111 C 0.46164 0.64394 0.15613 0.0
C112 C 0.44962 0.77834 0.01268 0.0
C113 C 0.41508 0.71176 0.04696 0.0
C114 C 0.39478 0.74547 0.0507 0.0
C115 C 0.41204 0.77882 0.03216 0.0
N116 N 0.4514 0.71128 0.02459 0.0
C117 C 0.46899 0.74405 0.00908 0.0
Co118 Co 0.86675 0.54 0.12061 0.0
Co119 Co 0.86089 0.47383 0.99767 0.0
O120 O 0.84139 0.51829 0.04433 0.0
C121 C 0.78946 0.52943 0.16884 0.0
O122 O 0.79161 0.49739 0.13747 0.0
C123 C 0.83309 0.52827 0.89127 0.0
O124 O 0.83535 0.55627 0.93253 0.0
O125 O 0.91014 0.49782 0.98412 0.0
O126 O 0.91768 0.52717 0.08095 0.0
H127 H 0.95692 0.37318 0.94625 0.0
H128 H 0.80815 0.58816 0.05784 0.0
O129 O 0.8169 0.55186 0.16496 0.0
H130 H 0.92583 0.6565 0.02414 0.0
H131 H 0.88706 0.6373 0.29598 0.0
H132 H 0.92949 0.51526 0.20718 0.0
H133 H 0.92535 0.59588 0.08496 0.0
H134 H 0.85563 0.60977 0.19974 0.0
O135 O 0.84344 0.49519 0.90909 0.0
H136 H 0.93099 0.42825 1.00522 0.0
H137 H 0.83355 0.42674 0.88656 0.0
H138 H 0.9616 0.54165 0.30355 0.0
H139 H 0.80722 0.64919 0.99805 0.0
H140 H 0.9405 0.60316 0.34838 0.0
H141 H 0.86645 0.68362 0.98031 0.0
O142 O 0.8667 0.49098 0.16728 0.0
H143 H 0.72097 0.46518 0.98306 0.0
H144 H 0.83741 0.3985 0.04645 0.0
H145 H 0.77761 0.3653 0.05312 0.0
H146 H 0.71931 0.39803 0.01793 0.0
H147 H 0.78133 0.49756 0.97814 0.0
H148 H 0.85874 0.3721 0.82543 0.0
H149 H 0.92069 0.34468 0.85563 0.0
O150 O 0.87842 0.45037 0.08472 0.0
C151 C 0.93089 0.51282 0.02713 0.0
C152 C 0.92978 0.3847 0.93291 0.0
C153 C 0.8747 0.38411 0.86509 0.0
N154 N 0.88052 0.43035 0.95027 0.0
C155 C 0.91486 0.41577 0.9664 0.0
C156 C 0.86062 0.41514 0.89982 0.0
C157 C 0.90947 0.36876 0.88202 0.0
C158 C 0.83393 0.60323 0.05118 0.0
N159 N 0.86676 0.5883 0.07449 0.0
C160 C 0.83328 0.63767 0.01691 0.0
C161 C 0.86653 0.65693 0.00684 0.0
C162 C 0.89987 0.64169 0.03129 0.0
C163 C 0.89945 0.60719 0.06531 0.0
C164 C 0.89662 0.61055 0.27664 0.0
C165 C 0.92024 0.54213 0.22618 0.0
C166 C 0.87899 0.59486 0.22208 0.0
N167 N 0.89123 0.56131 0.19692 0.0
C168 C 0.93848 0.55689 0.28088 0.0
C169 C 0.92662 0.59141 0.30604 0.0
C170 C 0.87559 0.4584 0.14677 0.0
C171 C 0.74641 0.4504 0.99725 0.0
C172 C 0.81193 0.41341 0.03329 0.0
C173 C 0.77818 0.39437 0.0368 0.0
C174 C 0.74537 0.41288 0.01758 0.0
N175 N 0.81301 0.44977 0.01069 0.0
C176 C 0.78071 0.46855 0.99427 0.0
Co177 Co 0.96507 0.85119 0.13356 0.0
Co178 Co 0.0364 0.84077 0.01702 0.0
O179 O 0.99063 0.82355 0.0619 0.0
C180 C 0.97803 0.77547 0.19046 0.0
O181 O 0.01114 0.77737 0.16157 0.0
C182 C 0.98541 0.81861 0.90692 0.0
O183 O 0.95654 0.83241 0.94012 0.0
O184 O 0.01299 0.89066 0.99786 0.0
O185 O 0.97622 0.90076 0.08787 0.0
H186 H 0.14028 0.93035 0.96419 0.0
H187 H 0.9248 0.78899 0.07165 0.0
O188 O 0.95456 0.80257 0.18299 0.0
H189 H 0.84832 0.90265 0.02549 0.0
H190 H 0.86283 0.87319 0.30529 0.0
H191 H 0.98133 0.91988 0.20918 0.0
H192 H 0.90623 0.90637 0.09039 0.0
H193 H 0.89473 0.8398 0.21279 0.0
O194 O 0.0183 0.82124 0.9298 0.0
H195 H 0.08311 0.9089 0.02262 0.0
H196 H 0.08609 0.80835 0.91124 0.0
H197 H 0.95035 0.95415 0.3014 0.0
H198 H 0.86672 0.78386 0.00756 0.0
H199 H 0.89069 0.93078 0.3501 0.0
H200 H 0.82821 0.84104 0.98366 0.0
O201 O 0.01214 0.85461 0.18336 0.0
H202 H 0.04646 0.70014 0.01103 0.0
H203 H 0.10925 0.81611 0.07437 0.0
H204 H 0.14255 0.75534 0.08624 0.0
H205 H 0.11199 0.69735 0.05055 0.0
H206 H 0.01398 0.76153 1.00041 0.0
H207 H 0.1428 0.82897 0.85104 0.0
H208 H 0.17051 0.88992 0.87782 0.0
O209 O 0.05626 0.86052 0.10302 0.0
C210 C 0.99371 0.91245 0.03546 0.0
C211 C 0.12857 0.90351 0.95238 0.0
C212 C 0.12991 0.84666 0.8887 0.0
N213 N 0.08139 0.85732 0.97079 0.0
C214 C 0.09631 0.89116 0.98552 0.0
C215 C 0.09769 0.83523 0.92283 0.0
C216 C 0.14541 0.88097 0.90376 0.0
C217 C 0.90788 0.81388 0.06229 0.0
N218 N 0.91882 0.8479 0.08482 0.0
C219 C 0.87514 0.81085 0.02564 0.0
C220 C 0.85359 0.84296 0.01215 0.0
C221 C 0.86488 0.87754 0.03553 0.0
C222 C 0.89777 0.8795 0.07203 0.0
C223 C 0.88877 0.88369 0.28431 0.0
C224 C 0.95521 0.90969 0.22972 0.0
C225 C 0.90695 0.86491 0.23196 0.0
N226 N 0.93964 0.8781 0.20511 0.0
C227 C 0.93786 0.92916 0.28209 0.0
C228 C 0.9044 0.91602 0.30944 0.0
C229 C 0.04539 0.86163 0.1641 0.0
C230 C 0.06034 0.72547 0.0253 0.0
C231 C 0.09513 0.79073 0.0614 0.0
C232 C 0.11425 0.75644 0.06779 0.0
C233 C 0.09691 0.72377 0.0484 0.0
N234 N 0.0599 0.79241 0.0358 0.0
C235 C 0.04212 0.76029 0.01935 0.0
Co236 Co 0.1357 0.02713 0.38218 0.0
Co237 Co 0.14618 0.95924 0.50572 0.0
O238 O 0.16352 1.00333 0.45538 0.0
C239 C 0.20916 0.0089 0.32304 0.0
O240 O 0.20519 0.97652 0.35414 0.0
C241 C 0.17211 0.01368 0.60803 0.0
O242 O 0.16294 0.042 0.56875 0.0
O243 O 0.09709 0.98428 0.52371 0.0
O244 O 0.08666 0.01879 0.43081 0.0
H245 H 0.05252 0.86262 0.57795 0.0
H246 H 0.19977 0.06877 0.4348 0.0
O247 O 0.18396 0.03439 0.33031 0.0
H248 H 0.08874 0.14956 0.47663 0.0
H249 H 0.11456 0.12407 0.20017 0.0
H250 H 0.06609 0.00985 0.31055 0.0
H251 H 0.08263 0.08866 0.42131 0.0
H252 H 0.14783 0.09467 0.29525 0.0
O253 O 0.16654 0.98 0.59059 0.0
H254 H 0.07585 0.91632 0.51138 0.0
H255 H 0.17923 0.91044 0.61298 0.0
H256 H 0.03186 0.03838 0.21592 0.0
H257 H 0.20726 0.12978 0.48921 0.0
H258 H 0.05618 0.09578 0.15994 0.0
H259 H 0.15142 0.17053 0.51079 0.0
O260 O 0.1302 0.97839 0.33819 0.0
H261 H 0.2867 0.95166 0.49106 0.0
H262 H 0.1697 0.88399 0.45522 0.0
H263 H 0.23029 0.85305 0.42894 0.0
H264 H 0.28934 0.88692 0.44697 0.0
H265 H 0.22551 0.98172 0.51591 0.0
H266 H 0.15682 0.85708 0.68153 0.0
H267 H 0.09307 0.83273 0.66404 0.0
O268 O 0.12537 0.93652 0.42262 0.0
C269 C 0.07535 1.003 0.48518 0.0
C270 C 0.08044 0.87281 0.58577 0.0
C271 C 0.13896 0.86972 0.6439 0.0
N272 N 0.12912 0.91603 0.55722 0.0
C273 C 0.09391 0.90302 0.54781 0.0
C274 C 0.15151 0.89994 0.60488 0.0
C275 C 0.10318 0.8561 0.63413 0.0
C276 C 0.17543 0.08657 0.44329 0.0
N277 N 0.14082 0.07517 0.42498 0.0
C278 C 0.1798 0.12098 0.47445 0.0
C279 C 0.14845 0.1438 0.48667 0.0
C280 C 0.11326 0.13202 0.46762 0.0
C281 C 0.10995 0.09741 0.43664 0.0
C282 C 0.10366 0.09908 0.22429 0.0
C283 C 0.07665 0.03506 0.2869 0.0
C284 C 0.12238 0.0823 0.27811 0.0
N285 N 0.10872 0.05079 0.30887 0.0
C286 C 0.05721 0.05102 0.23319 0.0
C287 C 0.07088 0.08324 0.20176 0.0
C288 C 0.12323 0.94566 0.36074 0.0
C289 C 0.26116 0.93656 0.48325 0.0
C290 C 0.19526 0.89896 0.46303 0.0
C291 C 0.2295 0.88126 0.4482 0.0
C292 C 0.26263 0.90027 0.45838 0.0
N293 N 0.19404 0.93457 0.48748 0.0
C294 C 0.22641 0.95336 0.49763 0.0
Co295 Co 0.47483 0.1625 0.39389 0.0
Co296 Co 0.54699 0.16698 0.5056 0.0
O297 O 0.5013 0.18704 0.46521 0.0
C298 C 0.49233 0.23667 0.33879 0.0
O299 O 0.52494 0.23038 0.36632 0.0
C300 C 0.4963 0.18949 0.61913 0.0
O301 O 0.46753 0.17699 0.58674 0.0
O302 O 0.52305 0.11771 0.52328 0.0
O303 O 0.48459 0.11146 0.43644 0.0
H304 H 0.64791 0.0704 0.5498 0.0
H305 H 0.43634 0.22676 0.4594 0.0
O306 O 0.46651 0.21266 0.34749 0.0
H307 H 0.35732 0.11747 0.50862 0.0
H308 H 0.37057 0.15041 0.22962 0.0
H309 H 0.48946 0.09557 0.31032 0.0
H310 H 0.41481 0.11071 0.43984 0.0
H311 H 0.40402 0.17955 0.32195 0.0
O312 O 0.52931 0.18584 0.59491 0.0
H313 H 0.59176 0.09637 0.4947 0.0
H314 H 0.59815 0.19564 0.60842 0.0
H315 H 0.45689 0.06536 0.21821 0.0
H316 H 0.37845 0.23504 0.52668 0.0
H317 H 0.39693 0.09277 0.17733 0.0
H318 H 0.33876 0.18003 0.55237 0.0
O319 O 0.5214 0.15642 0.34102 0.0
H320 H 0.55473 0.30781 0.50594 0.0
H321 H 0.61971 0.18992 0.44404 0.0
H322 H 0.65017 0.25036 0.42085 0.0
H323 H 0.61785 0.30979 0.45261 0.0
H324 H 0.52509 0.2468 0.52768 0.0
H325 H 0.6541 0.17055 0.66532 0.0
H326 H 0.6795 0.10772 0.63583 0.0
O327 O 0.56633 0.14781 0.41716 0.0
C328 C 0.50272 0.09776 0.48625 0.0
C329 C 0.63725 0.09796 0.56282 0.0
C330 C 0.64066 0.15414 0.62778 0.0
N331 N 0.5919 0.14759 0.54784 0.0
C332 C 0.60556 0.11286 0.53156 0.0
C333 C 0.60895 0.16815 0.59542 0.0
C334 C 0.65482 0.1188 0.61129 0.0
C335 C 0.41884 0.20285 0.46936 0.0
N336 N 0.42888 0.16832 0.44566 0.0
C337 C 0.38624 0.20764 0.50788 0.0
C338 C 0.364 0.17676 0.52234 0.0
C339 C 0.37442 0.14164 0.49787 0.0
C340 C 0.40711 0.13794 0.45926 0.0
C341 C 0.39654 0.13805 0.2473 0.0
C342 C 0.4632 0.10745 0.29328 0.0
C343 C 0.41556 0.15439 0.29961 0.0
N344 N 0.44826 0.13883 0.32241 0.0
C345 C 0.44497 0.09031 0.24089 0.0
C346 C 0.41135 0.10573 0.21793 0.0
C347 C 0.55475 0.14786 0.35703 0.0
C348 C 0.56922 0.28206 0.49237 0.0
C349 C 0.60527 0.21568 0.45743 0.0
C350 C 0.62273 0.24982 0.44437 0.0
C351 C 0.60455 0.28318 0.46215 0.0
N352 N 0.57073 0.21476 0.48758 0.0
C353 C 0.55266 0.2474 0.50485 0.0
Co354 Co 0.37358 0.47492 0.37709 0.0
Co355 Co 0.35695 0.54081 0.49887 0.0
O356 O 0.34309 0.496 0.44995 0.0
C357 C 0.29966 0.48772 0.31896 0.0
O358 O 0.30087 0.52011 0.34902 0.0
C359 C 0.33199 0.48443 0.60306 0.0
O360 O 0.3426 0.45667 0.56459 0.0
O361 O 0.40681 0.51833 0.5183 0.0
O362 O 0.42115 0.4867 0.425 0.0
H363 H 0.44438 0.64091 0.57056 0.0
H364 H 0.31254 0.42772 0.43198 0.0
O365 O 0.32672 0.46421 0.32607 0.0
H366 H 0.42903 0.3555 0.47346 0.0
H367 H 0.40529 0.38183 0.19676 0.0
H368 H 0.44233 0.49864 0.30471 0.0
H369 H 0.43087 0.41736 0.41676 0.0
H370 H 0.36829 0.40727 0.29155 0.0
O371 O 0.33627 0.51843 0.58425 0.0
H372 H 0.42471 0.58742 0.50372 0.0
H373 H 0.31929 0.58701 0.6043 0.0
H374 H 0.48005 0.47425 0.21037 0.0
H375 H 0.30934 0.36565 0.48785 0.0
H376 H 0.46159 0.41562 0.15562 0.0
H377 H 0.36793 0.32919 0.50926 0.0
O378 O 0.37566 0.5243 0.33161 0.0
H379 H 0.21656 0.54144 0.48466 0.0
H380 H 0.33053 0.6151 0.44573 0.0
H381 H 0.26892 0.64332 0.41939 0.0
H382 H 0.2114 0.60651 0.43925 0.0
H383 H 0.27877 0.51411 0.50951 0.0
H384 H 0.33789 0.64039 0.67262 0.0
H385 H 0.40084 0.66773 0.65593 0.0
O386 O 0.37814 0.5653 0.41519 0.0
C387 C 0.43043 0.5021 0.4796 0.0
C388 C 0.41676 0.62946 0.57797 0.0
C389 C 0.35701 0.62913 0.63528 0.0
N390 N 0.37066 0.58453 0.54913 0.0
C391 C 0.40537 0.59933 0.5399 0.0
C392 C 0.34662 0.59894 0.59634 0.0
C393 C 0.39235 0.64443 0.62594 0.0
C394 C 0.33809 0.41183 0.44045 0.0
N395 N 0.37183 0.42617 0.42126 0.0
C396 C 0.33614 0.37679 0.47242 0.0
C397 C 0.36902 0.35638 0.48452 0.0
C398 C 0.40332 0.37115 0.46457 0.0
C399 C 0.4042 0.4063 0.43281 0.0
C400 C 0.41367 0.40742 0.22036 0.0
C401 C 0.43426 0.47286 0.28161 0.0
C402 C 0.39284 0.42195 0.27401 0.0
N403 N 0.40335 0.4542 0.30409 0.0
C404 C 0.45569 0.45924 0.22805 0.0
C405 C 0.44527 0.42631 0.19732 0.0
C406 C 0.38105 0.55706 0.35334 0.0
C407 C 0.24143 0.55782 0.4761 0.0
C408 C 0.30565 0.59879 0.4541 0.0
C409 C 0.27083 0.61497 0.43928 0.0
C410 C 0.23855 0.59429 0.45044 0.0
N411 N 0.30826 0.56304 0.47949 0.0
C412 C 0.27673 0.54257 0.49044 0.0
Co413 Co 0.021 0.34934 0.39396 0.0
Co414 Co 0.94571 0.34334 0.50343 0.0
O415 O 0.99144 0.32314 0.46229 0.0
C416 C 0.99959 0.27891 0.33216 0.0
O417 O 0.9666 0.2867 0.35849 0.0
C418 C 0.99399 0.31993 0.61757 0.0
O419 O 0.02264 0.3352 0.58645 0.0
O420 O 0.97072 0.39099 0.52344 0.0
O421 O 0.01408 0.3987 0.44203 0.0
H422 H 0.8476 0.44191 0.55191 0.0
H423 H 0.05283 0.27975 0.45474 0.0
O424 O 0.02674 0.30085 0.34279 0.0
H425 H 0.13956 0.37988 0.51255 0.0
H426 H 0.12832 0.36155 0.2297 0.0
H427 H 0.01391 0.42217 0.32094 0.0
H428 H 0.08415 0.39405 0.44397 0.0
H429 H 0.09109 0.33027 0.31854 0.0
O430 O 0.9616 0.32159 0.5918 0.0
H431 H 0.90358 0.41557 0.4955 0.0
H432 H 0.89197 0.31342 0.60524 0.0
H433 H 0.05039 0.45457 0.23253 0.0
H434 H 0.1084 0.26414 0.52204 0.0
H435 H 0.10807 0.42422 0.18632 0.0
H436 H 0.152 0.3145 0.55194 0.0
O437 O 0.97603 0.36138 0.34143 0.0
H438 H 0.93285 0.20311 0.50019 0.0
H439 H 0.87327 0.32473 0.4413 0.0
H440 H 0.8407 0.26614 0.41752 0.0
H441 H 0.87013 0.20488 0.44815 0.0
H442 H 0.9647 0.2624 0.52235 0.0
H443 H 0.83604 0.33883 0.66352 0.0
H444 H 0.81335 0.4034 0.63676 0.0
O445 O 0.92845 0.36559 0.41579 0.0
C446 C 0.99456 0.41093 0.4917 0.0
C447 C 0.85709 0.41366 0.56393 0.0
C448 C 0.85063 0.35582 0.6266 0.0
N449 N 0.90077 0.3629 0.54654 0.0
C450 C 0.88864 0.39854 0.5318 0.0
C451 C 0.88231 0.34161 0.59342 0.0
C452 C 0.83801 0.39211 0.61169 0.0
C453 C 0.07202 0.30168 0.46664 0.0
N454 N 0.06538 0.33772 0.44526 0.0
C455 C 0.10332 0.29272 0.50506 0.0
C456 C 0.12775 0.321 0.5219 0.0
C457 C 0.12076 0.3577 0.49987 0.0
C458 C 0.08927 0.36558 0.46128 0.0
C459 C 0.10333 0.37513 0.24965 0.0
C460 C 0.03918 0.40895 0.30156 0.0
C461 C 0.08215 0.35755 0.29992 0.0
N462 N 0.05065 0.3746 0.32548 0.0
C463 C 0.05963 0.42737 0.2513 0.0
C464 C 0.09195 0.4103 0.22531 0.0
C465 C 0.9421 0.36887 0.35663 0.0
C466 C 0.9196 0.22968 0.48704 0.0
C467 C 0.88657 0.29813 0.45384 0.0
C468 C 0.86791 0.26506 0.4405 0.0
C469 C 0.88451 0.23066 0.45757 0.0
N470 N 0.92076 0.29699 0.48355 0.0
C471 C 0.93743 0.26334 0.49972 0.0
Co472 Co 0.35114 0.02896 0.87803 0.0
Co473 Co 0.34795 0.95948 0.99826 0.0
O474 O 0.32545 1.00277 0.95156 0.0
C475 C 0.2767 0.01296 0.82459 0.0
O476 O 0.28056 0.98 0.85395 0.0
C477 C 0.31883 0.00925 0.10678 0.0
O478 O 0.33184 0.03854 0.0741 0.0
O479 O 0.3932 0.98868 0.0175 0.0
O480 O 0.40156 0.02028 0.92112 0.0
H481 H 0.4522 0.87065 0.06349 0.0
H482 H 0.28645 0.06731 0.94299 0.0
O483 O 0.30205 0.03738 0.83089 0.0
H484 H 0.39387 0.14914 0.97894 0.0
H485 H 0.36634 0.13128 0.7037 0.0
H486 H 0.4194 0.01325 0.79614 0.0
H487 H 0.40177 0.09065 0.91555 0.0
H488 H 0.33545 0.099 0.79899 0.0
O489 O 0.32385 0.9764 0.08387 0.0
H490 H 0.42291 0.92224 0.99865 0.0
H491 H 0.3203 0.907 0.10442 0.0
H492 H 0.45128 0.04464 0.70112 0.0
H493 H 0.27712 0.1259 1.00571 0.0
H494 H 0.42477 0.10417 0.65432 0.0
H495 H 0.33116 0.16711 0.02442 0.0
O496 O 0.35771 0.98128 0.83031 0.0
H497 H 0.21002 0.93421 0.99685 0.0
H498 H 0.33602 0.88357 0.94377 0.0
H499 H 0.28106 0.84433 0.92672 0.0
H500 H 0.21779 0.86901 0.95564 0.0
H501 H 0.26581 0.97277 0.01238 0.0
H502 H 0.34877 0.85599 0.17186 0.0
H503 H 0.41499 0.83741 0.15169 0.0
O504 O 0.37244 0.94083 0.9131 0.0
C505 C 0.41399 0.00651 0.97613 0.0
C506 C 0.42329 0.87857 0.07314 0.0
C507 C 0.36521 0.8703 0.1338 0.0
N508 N 0.36986 0.91736 0.04711 0.0
C509 C 0.40645 0.90747 0.03594 0.0
C510 C 0.34926 0.89918 0.09535 0.0
C511 C 0.40251 0.86008 0.1227 0.0
C512 C 0.30995 0.08539 0.95016 0.0
N513 N 0.34456 0.07565 0.92554 0.0
C514 C 0.30456 0.11841 0.98601 0.0
C515 C 0.33491 0.14149 0.99659 0.0
C516 C 0.37012 0.1314 0.97116 0.0
C517 C 0.37445 0.09817 0.93554 0.0
C518 C 0.37828 0.10549 0.72393 0.0
C519 C 0.40785 0.0393 0.77646 0.0
C520 C 0.36095 0.08711 0.77792 0.0
N521 N 0.376 0.05464 0.80397 0.0
C522 C 0.42596 0.05688 0.72247 0.0
C523 C 0.41106 0.09025 0.6962 0.0
C524 C 0.37071 0.94983 0.85104 0.0
C525 C 0.23757 0.92297 0.98479 0.0
C526 C 0.30843 0.89501 0.95458 0.0
C527 C 0.27743 0.87254 0.94524 0.0
C528 C 0.24186 0.88654 0.96116 0.0
N529 N 0.30413 0.93037 0.97941 0.0
C530 C 0.26925 0.94463 0.99363 0.0
Co531 Co 0.47742 0.37163 0.89039 0.0
Co532 Co 0.55037 0.35762 1.00008 0.0
O533 O 0.50373 0.34275 0.9594 0.0
C534 C 0.49497 0.29882 0.83024 0.0
O535 O 0.52768 0.30294 0.8577 0.0
C536 C 0.49812 0.33986 0.11407 0.0
O537 O 0.4701 0.35422 0.08008 0.0
O538 O 0.52975 0.40867 0.01709 0.0
O539 O 0.48684 0.42013 0.938 0.0
H540 H 0.65641 0.44373 0.04606 0.0
H541 H 0.43945 0.30585 0.95106 0.0
O542 O 0.46934 0.32377 0.83963 0.0
H543 H 0.35931 0.41513 0.00787 0.0
H544 H 0.37385 0.39482 0.72616 0.0
H545 H 0.4907 0.44327 0.81706 0.0
H546 H 0.41678 0.42308 0.93965 0.0
H547 H 0.40759 0.35969 0.81463 0.0
O548 O 0.53122 0.33992 0.08958 0.0
H549 H 0.59948 0.42383 0.9892 0.0
H550 H 0.599 0.32258 0.10386 0.0
H551 H 0.45778 0.47936 0.72907 0.0
H552 H 0.38183 0.29651 0.01826 0.0
H553 H 0.39901 0.45513 0.68288 0.0
H554 H 0.34151 0.35147 0.04758 0.0
O555 O 0.52413 0.37872 0.83809 0.0
H556 H 0.54902 0.21655 1.00301 0.0
H557 H 0.62181 0.32831 0.94082 0.0
H558 H 0.6489 0.26529 0.92097 0.0
H559 H 0.6128 0.20896 0.95359 0.0
H560 H 0.52299 0.2801 0.02217 0.0
H561 H 0.65563 0.34151 0.16233 0.0
H562 H 0.68487 0.40221 0.13333 0.0
O563 O 0.57111 0.37565 0.91151 0.0
C564 C 0.50732 0.43074 0.98602 0.0
C565 C 0.64399 0.41707 0.05901 0.0
C566 C 0.64356 0.3597 0.12428 0.0
N567 N 0.59618 0.37195 0.04267 0.0
C568 C 0.61194 0.40557 0.02663 0.0
C569 C 0.6115 0.34916 0.09095 0.0
C570 C 0.65984 0.39389 0.10813 0.0
C571 C 0.42172 0.3298 0.96271 0.0
N572 N 0.43139 0.36493 0.94133 0.0
C573 C 0.38925 0.32438 1.00111 0.0
C574 C 0.36667 0.35524 0.01765 0.0
C575 C 0.37667 0.39097 0.99545 0.0
C576 C 0.40931 0.39532 0.95706 0.0
C577 C 0.39942 0.4057 0.74598 0.0
C578 C 0.46495 0.43269 0.79766 0.0
C579 C 0.41865 0.38593 0.79601 0.0
N580 N 0.45084 0.39963 0.82148 0.0
C581 C 0.4465 0.45319 0.74764 0.0
C582 C 0.41352 0.43956 0.72174 0.0
C583 C 0.55853 0.38102 0.85262 0.0
C584 C 0.56523 0.24093 0.98949 0.0
C585 C 0.60569 0.30389 0.95433 0.0
C586 C 0.62123 0.26829 0.94315 0.0
C587 C 0.60088 0.23666 0.96125 0.0
N588 N 0.57098 0.30788 0.98318 0.0
C589 C 0.55067 0.27698 1.00032 0.0
Co590 Co 0.15332 0.46693 0.88326 0.0
Co591 Co 0.16277 0.53556 1.0005 0.0
O592 O 0.18122 0.49095 0.9538 0.0
C593 C 0.22715 0.4816 0.82374 0.0
O594 O 0.22326 0.51439 0.85208 0.0
C595 C 0.19106 0.48307 0.10814 0.0
O596 O 0.17971 0.45394 0.07527 0.0
O597 O 0.11516 0.51029 0.02322 0.0
O598 O 0.10407 0.47766 0.93094 0.0
H599 H 0.06548 0.62988 0.07539 0.0
H600 H 0.21732 0.4246 0.94157 0.0
O601 O 0.2016 0.45729 0.83193 0.0
H602 H 0.1066 0.34783 0.99107 0.0
H603 H 0.13157 0.36776 0.71204 0.0
H604 H 0.08343 0.48538 0.81043 0.0
H605 H 0.10044 0.40754 0.92794 0.0
H606 H 0.16556 0.39797 0.80268 0.0
O607 O 0.1854 0.51622 0.08557 0.0
H608 H 0.09094 0.57877 1.00565 0.0
H609 H 0.19558 0.58479 0.1023 0.0
H610 H 0.04847 0.45607 0.7202 0.0
H611 H 0.22488 0.36479 1.00402 0.0
H612 H 0.07251 0.39677 0.67045 0.0
H613 H 0.16919 0.32607 0.02945 0.0
O614 O 0.14792 0.51514 0.83467 0.0
H615 H 0.30271 0.54692 0.98643 0.0
H616 H 0.18168 0.61036 0.94245 0.0
H617 H 0.24029 0.64345 0.91707 0.0
H618 H 0.3012 0.61204 0.94061 0.0
H619 H 0.2434 0.51456 0.01 0.0
H620 H 0.17114 0.63553 0.17366 0.0
H621 H 0.10571 0.65811 0.16115 0.0
O622 O 0.13971 0.557 0.9164 0.0
C623 C 0.09301 0.49323 0.9852 0.0
C624 C 0.09409 0.62018 0.08158 0.0
C625 C 0.1534 0.62336 0.13669 0.0
N626 N 0.14476 0.57898 0.04943 0.0
C627 C 0.10878 0.59155 0.04164 0.0
C628 C 0.1671 0.59471 0.09589 0.0
C629 C 0.11656 0.63588 0.12981 0.0
C630 C 0.19306 0.40764 0.9517 0.0
N631 N 0.15851 0.41948 0.93108 0.0
C632 C 0.19747 0.37391 0.98739 0.0
C633 C 0.16621 0.35224 1.00177 0.0
C634 C 0.13107 0.36446 0.98033 0.0
C635 C 0.12772 0.39837 0.94484 0.0
C636 C 0.12074 0.39351 0.73353 0.0
C637 C 0.09393 0.45943 0.78942 0.0
C638 C 0.13987 0.41073 0.78483 0.0
N639 N 0.12623 0.44312 0.81247 0.0
C640 C 0.07407 0.44304 0.73816 0.0
C641 C 0.08759 0.4098 0.7102 0.0
C642 C 0.13882 0.54773 0.85492 0.0
C643 C 0.27625 0.561 0.97657 0.0
C644 C 0.20813 0.59619 0.95151 0.0
C645 C 0.24122 0.61514 0.93739 0.0
C646 C 0.27543 0.59745 0.95044 0.0
N647 N 0.20911 0.56062 0.97802 0.0
C648 C 0.24259 0.54288 0.99004 0.0
Co649 Co 0.02183 0.14046 0.89659 0.0
Co650 Co 0.949 0.1435 0.01168 0.0
O651 O 0.99329 0.16489 0.96829 0.0
C652 C 0.9996 0.21343 0.83926 0.0
O653 O 0.96712 0.20642 0.8677 0.0
C654 C 0.99808 0.16794 0.12236 0.0
O655 O 0.0274 0.15549 0.08872 0.0
O656 O 0.97636 0.0953 0.02905 0.0
O657 O 0.01564 0.08966 0.94099 0.0
H658 H 0.85753 0.04164 0.06599 0.0
H659 H 0.0553 0.20664 0.95884 0.0
O660 O 0.0269 0.19037 0.84823 0.0
H661 H 0.14198 0.10094 0.00764 0.0
H662 H 0.12838 0.12927 0.73007 0.0
H663 H 0.01227 0.07213 0.81591 0.0
H664 H 0.08542 0.09141 0.94129 0.0
H665 H 0.09184 0.15901 0.82119 0.0
O666 O 0.96531 0.16352 0.0998 0.0
H667 H 0.91023 0.07081 1.00501 0.0
H668 H 0.89508 0.17048 0.11651 0.0
H669 H 0.04801 0.04132 0.72507 0.0
H670 H 0.11208 0.21765 0.02384 0.0
H671 H 0.10667 0.06981 0.68181 0.0
H672 H 0.15563 0.16446 0.04931 0.0
O673 O 0.97583 0.13213 0.84614 0.0
H674 H 0.9329 0.28396 0.00649 0.0
H675 H 0.87455 0.1637 0.95453 0.0
H676 H 0.84094 0.22309 0.92898 0.0
H677 H 0.87016 0.2838 0.95495 0.0
H678 H 0.96573 0.22397 0.03046 0.0
H679 H 0.84254 0.14219 0.17938 0.0
H680 H 0.82362 0.07723 0.15454 0.0
O681 O 0.93098 0.12357 0.92428 0.0
C682 C 0.99834 0.07581 0.99192 0.0
C683 C 0.86553 0.06996 0.07731 0.0
C684 C 0.85712 0.12639 0.14095 0.0
N685 N 0.90553 0.12242 0.05669 0.0
C686 C 0.89518 0.08673 0.0426 0.0
C687 C 0.88687 0.14228 0.1051 0.0
C688 C 0.84656 0.08991 0.12707 0.0
C689 C 0.07448 0.18351 0.96872 0.0
N690 N 0.06711 0.14846 0.94621 0.0
C691 C 0.10645 0.18985 1.00591 0.0
C692 C 0.13085 0.15998 0.02026 0.0
C693 C 0.12317 0.12433 0.99699 0.0
C694 C 0.09101 0.11906 0.95972 0.0
C695 C 0.10303 0.11643 0.74884 0.0
C696 C 0.03788 0.08458 0.79765 0.0
C697 C 0.08224 0.13313 0.80045 0.0
N698 N 0.05037 0.11691 0.82481 0.0
C699 C 0.05794 0.06707 0.74603 0.0
C700 C 0.09081 0.08309 0.72172 0.0
C701 C 0.94278 0.12318 0.86362 0.0
C702 C 0.91984 0.25769 0.99511 0.0
C703 C 0.88749 0.18998 0.96588 0.0
C704 C 0.86828 0.22353 0.95143 0.0
C705 C 0.88466 0.25758 0.96609 0.0
N706 N 0.92203 0.19031 0.99421 0.0
C707 C 0.93821 0.2236 0.00894 0.0
Co708 Co 0.84728 0.97248 0.62177 0.0
Co709 Co 0.84739 0.04317 0.5038 0.0
O710 O 0.82327 1.00016 0.54796 0.0
C711 C 0.77043 0.98724 0.67262 0.0
O712 O 0.77267 0.02024 0.64301 0.0
C713 C 0.82044 0.99536 0.39365 0.0
O714 O 0.8328 0.96565 0.42649 0.0
O715 O 0.89289 0.01229 0.48576 0.0
O716 O 0.89907 0.98164 0.58311 0.0
H717 H 0.95474 0.12865 0.45235 0.0
H718 H 0.78611 0.93473 0.55268 0.0
O719 O 0.79712 0.96332 0.66577 0.0
H720 H 0.89802 0.85437 0.51615 0.0
H721 H 0.86044 0.86675 0.79033 0.0
H722 H 0.91106 0.98737 0.71036 0.0
H723 H 0.90163 0.91173 0.58293 0.0
H724 H 0.83181 0.9007 0.69508 0.0
O725 O 0.82585 0.02805 0.41617 0.0
H726 H 0.92165 0.07848 0.51378 0.0
H727 H 0.8254 0.09732 0.39512 0.0
H728 H 0.9406 0.95435 0.80557 0.0
H729 H 0.78097 0.877 0.48717 0.0
H730 H 0.91536 0.89348 0.84604 0.0
H731 H 0.83734 0.83664 0.46785 0.0
O732 O 0.85023 0.01941 0.67178 0.0
H733 H 0.71028 0.07514 0.49322 0.0
H734 H 0.83405 0.11921 0.5595 0.0
H735 H 0.77905 0.16136 0.57088 0.0
H736 H 0.71698 0.14004 0.53497 0.0
H737 H 0.76585 0.03351 0.48451 0.0
H738 H 0.85771 0.14731 0.3317 0.0
H739 H 0.92292 0.16312 0.35999 0.0
O740 O 0.86878 0.05986 0.59135 0.0
C741 C 0.91294 0.995 0.52868 0.0
C742 C 0.92635 0.12196 0.43949 0.0
C743 C 0.87191 0.13238 0.37171 0.0
N744 N 0.8716 0.08492 0.45821 0.0
C745 C 0.90737 0.09371 0.47439 0.0
C746 C 0.85378 0.10401 0.4078 0.0
C747 C 0.90851 0.14124 0.38757 0.0
C748 C 0.81058 0.91693 0.54546 0.0
N749 N 0.84409 0.92656 0.5716 0.0
C750 C 0.80758 0.88443 0.50794 0.0
C751 C 0.83922 0.86182 0.49706 0.0
C752 C 0.87329 0.87179 0.52406 0.0
C753 C 0.87521 0.90442 0.56153 0.0
C754 C 0.87187 0.89311 0.77284 0.0
C755 C 0.9001 0.96075 0.72725 0.0
C756 C 0.85583 0.91242 0.71882 0.0
N757 N 0.87028 0.94558 0.69613 0.0
C758 C 0.91686 0.94225 0.7814 0.0
C759 C 0.90266 0.90813 0.80413 0.0
C760 C 0.86369 0.05067 0.65292 0.0
C761 C 0.73725 0.08491 0.50859 0.0
C762 C 0.80686 0.10916 0.54611 0.0
C763 C 0.77586 0.13329 0.55216 0.0
C764 C 0.74097 0.1212 0.53232 0.0
N765 N 0.8032 0.07402 0.52087 0.0
C766 C 0.76885 0.06149 0.50352 0.0
Co767 Co 0.54601 0.8735 0.626 0.0
Co768 Co 0.47985 0.86059 0.50382 0.0
O769 O 0.52531 0.84548 0.55193 0.0
C770 C 0.53224 0.7986 0.68323 0.0
O771 O 0.50075 0.80127 0.65056 0.0
C772 C 0.53659 0.83476 0.3995 0.0
O773 O 0.56395 0.83759 0.44182 0.0
O774 O 0.49899 0.91226 0.48953 0.0
O775 O 0.5347 0.92272 0.57861 0.0
H776 H 0.37061 0.94593 0.44943 0.0
H777 H 0.5935 0.81144 0.5726 0.0
O778 O 0.55594 0.82492 0.67701 0.0
H779 H 0.66556 0.92641 0.53134 0.0
H780 H 0.63807 0.89737 0.80821 0.0
H781 H 0.52269 0.94214 0.69849 0.0
H782 H 0.60361 0.92954 0.58704 0.0
H783 H 0.61283 0.86336 0.71264 0.0
O784 O 0.50316 0.84426 0.41607 0.0
H785 H 0.42695 0.92561 0.5107 0.0
H786 H 0.437 0.82807 0.392 0.0
H787 H 0.54696 0.97696 0.79359 0.0
H788 H 0.65568 0.80692 0.51779 0.0
H789 H 0.60475 0.95445 0.84947 0.0
H790 H 0.69204 0.86476 0.49641 0.0
O791 O 0.49673 0.87656 0.671 0.0
H792 H 0.48709 0.71932 0.50526 0.0
H793 H 0.40701 0.83017 0.5518 0.0
H794 H 0.38175 0.76686 0.5698 0.0
H795 H 0.42171 0.71096 0.54557 0.0
H796 H 0.51146 0.78302 0.48918 0.0
H797 H 0.38124 0.84776 0.32854 0.0
H798 H 0.3475 0.90698 0.35738 0.0
O799 O 0.45447 0.87696 0.58913 0.0
C800 C 0.51701 0.9342 0.52676 0.0
C801 C 0.38498 0.91999 0.43656 0.0
C802 C 0.39099 0.86494 0.36865 0.0
N803 N 0.43515 0.87556 0.45538 0.0
C804 C 0.41679 0.90823 0.47135 0.0
C805 C 0.42266 0.85401 0.40463 0.0
C806 C 0.37206 0.89816 0.38485 0.0
C807 C 0.60935 0.83665 0.56414 0.0
N808 N 0.59486 0.8707 0.58267 0.0
C809 C 0.64445 0.83396 0.53277 0.0
C810 C 0.66481 0.86642 0.52068 0.0
C811 C 0.64993 0.90103 0.54013 0.0
C812 C 0.61472 0.90265 0.57129 0.0
C813 C 0.61278 0.90742 0.78426 0.0
C814 C 0.54815 0.93236 0.72203 0.0
C815 C 0.59837 0.88829 0.73018 0.0
N816 N 0.56649 0.90091 0.69969 0.0
C817 C 0.56168 0.95215 0.77601 0.0
C818 C 0.59417 0.9395 0.80732 0.0
C819 C 0.46339 0.87966 0.65036 0.0
C820 C 0.4693 0.74351 0.5154 0.0
C821 C 0.42472 0.80598 0.54163 0.0
C822 C 0.41021 0.77019 0.55179 0.0
C823 C 0.43267 0.73881 0.53828 0.0
N824 N 0.46055 0.81043 0.51833 0.0
C825 C 0.48287 0.77973 0.50584 0.0
Co826 Co 0.65446 0.53762 0.62048 0.0
Co827 Co 0.65883 0.47315 0.49488 0.0
O828 O 0.68058 0.51477 0.54366 0.0
C829 C 0.73151 0.52379 0.66947 0.0
O830 O 0.73089 0.4918 0.63788 0.0
C831 C 0.6847 0.52793 0.38991 0.0
O832 O 0.6751 0.55568 0.42915 0.0
O833 O 0.61236 0.50278 0.48109 0.0
O834 O 0.60352 0.52837 0.58118 0.0
H835 H 0.55619 0.38548 0.43541 0.0
H836 H 0.71483 0.58175 0.55611 0.0
O837 O 0.70377 0.54669 0.66488 0.0
H838 H 0.60004 0.65898 0.52977 0.0
H839 H 0.63477 0.63362 0.80057 0.0
H840 H 0.58951 0.51613 0.70611 0.0
H841 H 0.59803 0.59784 0.58882 0.0
H842 H 0.66634 0.60566 0.70226 0.0
O843 O 0.67952 0.494 0.40828 0.0
H844 H 0.58562 0.43517 0.49972 0.0
H845 H 0.6846 0.42536 0.38095 0.0
H846 H 0.55709 0.54312 0.80429 0.0
H847 H 0.71828 0.64316 0.49797 0.0
H848 H 0.57962 0.6024 0.85205 0.0
H849 H 0.6605 0.68207 0.48402 0.0
O850 O 0.65281 0.48813 0.66525 0.0
H851 H 0.79647 0.44732 0.46876 0.0
H852 H 0.67563 0.39525 0.54252 0.0
H853 H 0.73198 0.35447 0.54187 0.0
H854 H 0.79239 0.37983 0.50098 0.0
H855 H 0.73968 0.4875 0.47271 0.0
H856 H 0.65597 0.37611 0.31437 0.0
H857 H 0.59132 0.35579 0.34154 0.0
O858 O 0.63756 0.45075 0.58097 0.0
C859 C 0.59106 0.51725 0.52541 0.0
C860 C 0.58443 0.39398 0.42323 0.0
C861 C 0.64041 0.38875 0.35529 0.0
N862 N 0.63699 0.4328 0.44497 0.0
C863 C 0.60136 0.4219 0.45988 0.0
C864 C 0.65647 0.41669 0.39318 0.0
C865 C 0.60413 0.37739 0.37049 0.0
C866 C 0.6897 0.5988 0.55109 0.0
N867 N 0.65629 0.58619 0.57568 0.0
C868 C 0.69177 0.63343 0.51776 0.0
C869 C 0.65933 0.65521 0.50983 0.0
C870 C 0.62538 0.64224 0.53538 0.0
C871 C 0.62438 0.60747 0.56843 0.0
C872 C 0.62456 0.60791 0.77997 0.0
C873 C 0.59937 0.54203 0.7263 0.0
C874 C 0.64229 0.59196 0.72425 0.0
N875 N 0.62937 0.55964 0.69764 0.0
C876 C 0.58095 0.55713 0.78206 0.0
C877 C 0.59362 0.59036 0.80887 0.0
C878 C 0.64071 0.45734 0.64346 0.0
C879 C 0.77017 0.43579 0.48597 0.0
C880 C 0.70223 0.40705 0.52798 0.0
C881 C 0.73396 0.38368 0.52698 0.0
C882 C 0.76794 0.39803 0.50442 0.0
N883 N 0.70431 0.44363 0.50696 0.0
C884 C 0.73791 0.45841 0.48816 0.0
Co885 Co 0.96732 0.63538 0.64371 0.0
Co886 Co 0.03134 0.64371 0.51322 0.0
O887 O 0.98754 0.66169 0.56472 0.0
C888 C 0.98336 0.71057 0.69296 0.0
O889 O 0.01466 0.70691 0.6584 0.0
C890 C 0.97441 0.67053 0.41188 0.0
O891 O 0.94704 0.66672 0.45559 0.0
O892 O 0.00855 0.59358 0.5037 0.0
O893 O 0.97673 0.58508 0.60032 0.0
H894 H 0.13251 0.55053 0.44985 0.0
H895 H 0.92072 0.69736 0.5872 0.0
O896 O 0.95903 0.68483 0.69038 0.0
H897 H 0.8447 0.5839 0.56975 0.0
H898 H 0.87731 0.61662 0.83724 0.0
H899 H 0.99147 0.56882 0.72376 0.0
H900 H 0.90767 0.5802 0.61828 0.0
H901 H 0.90144 0.64788 0.73481 0.0
O902 O 0.00794 0.66154 0.4271 0.0
H903 H 0.07921 0.57484 0.51695 0.0
H904 H 0.07503 0.67392 0.39646 0.0
H905 H 0.96823 0.5366 0.82563 0.0
H906 H 0.85762 0.70247 0.53912 0.0
H907 H 0.91096 0.56065 0.88337 0.0
H908 H 0.81923 0.64541 0.52991 0.0
O909 O 0.01723 0.6321 0.68375 0.0
H910 H 0.03228 0.78488 0.50849 0.0
H911 H 0.10662 0.6696 0.55289 0.0
H912 H 0.13551 0.73129 0.56633 0.0
H913 H 0.09838 0.78946 0.54341 0.0
H914 H 0.0044 0.72271 0.49622 0.0
H915 H 0.12776 0.65032 0.32728 0.0
H916 H 0.15692 0.58823 0.3539 0.0
O917 O 0.057 0.62556 0.59684 0.0
C918 C 0.99151 0.57258 0.54607 0.0
C919 C 0.12009 0.57766 0.43786 0.0
C920 C 0.11741 0.63366 0.36905 0.0
N921 N 0.0742 0.62591 0.46112 0.0
C922 C 0.09003 0.59167 0.47592 0.0
C923 C 0.0875 0.64683 0.40837 0.0
C924 C 0.13375 0.59882 0.384 0.0
C925 C 0.90403 0.67249 0.58382 0.0
N926 N 0.91791 0.63853 0.6052 0.0
C927 C 0.8684 0.67552 0.55631 0.0
C928 C 0.84691 0.64348 0.55104 0.0
C929 C 0.86121 0.60894 0.57324 0.0
C930 C 0.89699 0.60698 0.6003 0.0
C931 C 0.90226 0.60582 0.81238 0.0
C932 C 0.96621 0.57917 0.74803 0.0
C933 C 0.91603 0.62337 0.75435 0.0
N934 N 0.9475 0.60983 0.72268 0.0
C935 C 0.95327 0.56089 0.80589 0.0
C936 C 0.9211 0.57438 0.83823 0.0
C937 C 0.04963 0.62551 0.65946 0.0
C938 C 0.04885 0.75972 0.51801 0.0
C939 C 0.09019 0.69478 0.54314 0.0
C940 C 0.10674 0.72964 0.55072 0.0
C941 C 0.08589 0.76228 0.5379 0.0
N942 N 0.05394 0.69246 0.52303 0.0
C943 C 0.03327 0.72438 0.51076 0.0
C944 C 0.60424 0.10274 0.31896 0.0
C945 C 0.57915 0.13225 0.3037 0.0
C946 C 0.62049 0.081 0.26828 0.0
C947 C 0.6126 0.08818 0.20038 0.0
H948 H 0.60933 0.09459 0.37042 0.0
H949 H 0.63804 0.05724 0.28276 0.0
S950 S 0.55431 0.16698 0.13403 0.0
N951 N 0.55118 0.171 0.216 0.0
N952 N 0.58215 0.13034 0.1206 0.0
C953 C 0.59043 0.11989 0.18428 0.0
C954 C 0.57354 0.14183 0.23602 0.0
C955 C 0.39146 0.57843 0.23515 0.0
C956 C 0.39494 0.5853 0.30399 0.0
C957 C 0.41076 0.59969 0.18692 0.0
C958 C 0.43462 0.62848 0.2056 0.0
H959 H 0.37513 0.55516 0.21828 0.0
H960 H 0.40891 0.59172 0.13509 0.0
S961 S 0.4482 0.66261 0.37775 0.0
N962 N 0.41989 0.62678 0.38726 0.0
N963 N 0.4566 0.66641 0.29662 0.0
C964 C 0.43587 0.63785 0.27362 0.0
C965 C 0.41586 0.61641 0.32279 0.0
C966 C 0.87831 0.4373 0.26644 0.0
C967 C 0.88657 0.43012 0.19855 0.0
C968 C 0.89402 0.41534 0.31777 0.0
C969 C 0.91887 0.38559 0.30319 0.0
H970 H 0.86089 0.46118 0.28042 0.0
H971 H 0.88861 0.42335 0.36906 0.0
S972 S 0.94436 0.35044 0.13467 0.0
N973 N 0.91706 0.38741 0.12018 0.0
N974 N 0.94704 0.34659 0.21677 0.0
C975 C 0.92496 0.37609 0.23588 0.0
C976 C 0.90863 0.39818 0.18352 0.0
C977 C 0.09657 0.9043 0.19529 0.0
C978 C 0.07088 0.87661 0.21434 0.0
C979 C 0.11513 0.92491 0.24325 0.0
C980 C 0.10911 0.91836 0.31221 0.0
H981 H 0.10062 0.91189 0.14312 0.0
H982 H 0.13312 0.94731 0.22597 0.0
S983 S 0.04964 0.84405 0.38754 0.0
N984 N 0.04387 0.84028 0.30625 0.0
N985 N 0.07929 0.87853 0.39649 0.0
C986 C 0.08603 0.88841 0.3317 0.0
C987 C 0.06672 0.86773 0.28276 0.0
C988 C 0.38389 0.93361 0.73175 0.0
C989 C 0.38874 0.92519 0.80027 0.0
C990 C 0.40623 0.91644 0.68257 0.0
C991 C 0.43447 0.89046 0.70009 0.0
H992 H 0.36396 0.95507 0.71592 0.0
H993 H 0.40303 0.92554 0.63106 0.0
S994 S 0.45398 0.85297 0.87015 0.0
N995 N 0.42028 0.88457 0.88148 0.0
N996 N 0.46265 0.85286 0.78893 0.0
C997 C 0.4375 0.87928 0.76749 0.0
C998 C 0.41447 0.89644 0.81761 0.0
C999 C 0.63415 0.43526 0.76215 0.0
C1000 C 0.6252 0.43081 0.6943 0.0
C1001 C 0.61424 0.4168 0.81329 0.0
C1002 C 0.58434 0.39345 0.7986 0.0
H1003 H 0.65554 0.45465 0.7763 0.0
H1004 H 0.62078 0.42284 0.86464 0.0
S1005 S 0.55398 0.36661 0.62959 0.0
N1006 N 0.5878 0.39678 0.6155 0.0
N1007 N 0.55007 0.3625 0.71164 0.0
C1008 C 0.57711 0.38619 0.73111 0.0
C1009 C 0.59768 0.40468 0.67894 0.0
C1010 C 0.10441 0.58461 0.68814 0.0
C1011 C 0.07858 0.61276 0.70686 0.0
C1012 C 0.12588 0.56555 0.73615 0.0
C1013 C 0.12254 0.57411 0.80464 0.0
H1014 H 0.10618 0.57534 0.63688 0.0
H1015 H 0.14375 0.54254 0.71964 0.0
S1016 S 0.06453 0.65135 0.87677 0.0
N1017 N 0.05488 0.65243 0.79636 0.0
N1018 N 0.09559 0.61698 0.88662 0.0
C1019 C 0.0996 0.60489 0.82283 0.0
C1020 C 0.07746 0.62406 0.77394 0.0
C1021 C 0.92962 0.11361 0.7427 0.0
C1022 C 0.91814 0.10965 0.8102 0.0
C1023 C 0.91029 0.09656 0.69135 0.0
C1024 C 0.87885 0.0746 0.70541 0.0
H1025 H 0.95463 0.12888 0.72927 0.0
H1026 H 0.9214 0.0989 0.64083 0.0
S1027 S 0.83351 0.06015 0.87167 0.0
N1028 N 0.87032 0.0858 0.88682 0.0
N1029 N 0.83425 0.05344 0.79026 0.0
C1030 C 0.86543 0.07254 0.77185 0.0
C1031 C 0.88496 0.09018 0.82421 0.0
C1032 C 0.72519 0.95969 0.83852 0.0
C1033 C 0.69199 0.98138 0.83853 0.0
C1034 C 0.74939 0.95956 0.78249 0.0
C1035 C 0.74107 0.98109 0.72472 0.0
H1036 H 0.73374 0.94478 0.88349 0.0
H1037 H 0.77584 0.94443 0.78619 0.0
S1038 S 0.65297 0.03483 0.69532 0.0
N1039 N 0.64899 0.01963 0.77329 0.0
N1040 N 0.69408 0.01928 0.66757 0.0
C1041 C 0.70629 1.0001 0.72242 0.0
C1042 C 0.68185 1.00028 0.77949 0.0
C1043 C 0.50942 0.73979 0.73832 0.0
C1044 C 0.537 0.76751 0.73324 0.0
C1045 C 0.50905 0.71345 0.79089 0.0
C1046 C 0.53654 0.71318 0.84039 0.0
H1047 H 0.48683 0.73921 0.70287 0.0
H1048 H 0.48624 0.69384 0.79397 0.0
S1049 S 0.61695 0.7773 0.84777 0.0
N1050 N 0.59413 0.79132 0.78045 0.0
N1051 N 0.59361 0.74132 0.87894 0.0
C1052 C 0.56566 0.7391 0.83398 0.0
C1053 C 0.56586 0.76636 0.78053 0.0
C1054 C 0.77822 0.55461 0.82869 0.0
C1055 C 0.81147 0.53292 0.82909 0.0
C1056 C 0.75346 0.55328 0.77485 0.0
C1057 C 0.76111 0.53023 0.71945 0.0
H1058 H 0.77013 0.57094 0.87194 0.0
H1059 H 0.72721 0.56881 0.77856 0.0
S1060 S 0.84867 0.47505 0.69091 0.0
N1061 N 0.85355 0.49258 0.76593 0.0
N1062 N 0.80743 0.49006 0.66433 0.0
C1063 C 0.7958 0.51091 0.71718 0.0
C1064 C 0.82085 0.51225 0.77209 0.0
C1065 C 0.00984 0.79294 0.79938 0.0
C1066 C 0.98047 0.79554 0.84667 0.0
C1067 C 0.00928 0.76687 0.74777 0.0
C1068 C 0.97956 0.74173 0.74164 0.0
H1069 H 0.03415 0.81045 0.80344 0.0
H1070 H 0.03326 0.76552 0.71411 0.0
S1071 S 0.89435 0.73893 0.85009 0.0
N1072 N 0.91956 0.77255 0.88174 0.0
N1073 N 0.91859 0.72307 0.78521 0.0
C1074 C 0.94903 0.74531 0.78668 0.0
C1075 C 0.94945 0.77232 0.83901 0.0
C1076 C 0.22624 0.04213 0.66562 0.0
C1077 C 0.19424 0.01972 0.66858 0.0
C1078 C 0.25182 0.04179 0.71843 0.0
C1079 C 0.24615 0.01906 0.77583 0.0
H1080 H 0.23275 0.05814 0.62063 0.0
H1081 H 0.27724 0.05768 0.71242 0.0
S1082 S 0.16216 0.96243 0.8131 0.0
N1083 N 0.15528 0.97909 0.73686 0.0
N1084 N 0.20291 0.97856 0.8364 0.0
C1085 C 0.2126 0.99912 0.78133 0.0
C1086 C 0.18677 0.99941 0.72759 0.0
C1087 C 0.51978 0.21372 0.72632 0.0
C1088 C 0.49103 0.21284 0.67933 0.0
C1089 C 0.51938 0.24021 0.77722 0.0
C1090 C 0.49048 0.26746 0.78286 0.0
H1091 H 0.54356 0.19456 0.7224 0.0
H1092 H 0.54289 0.24014 0.81077 0.0
S1093 S 0.40704 0.27545 0.67492 0.0
N1094 N 0.43145 0.23978 0.64407 0.0
N1095 N 0.43088 0.29011 0.7393 0.0
C1096 C 0.46042 0.26562 0.73835 0.0
C1097 C 0.46067 0.2382 0.6867 0.0
C1098 C 0.27948 0.4532 0.66518 0.0
C1099 C 0.31028 0.47722 0.66511 0.0
C1100 C 0.25373 0.45259 0.71911 0.0
C1101 C 0.25818 0.47589 0.7746 0.0
H1102 H 0.27385 0.43673 0.62152 0.0
H1103 H 0.22905 0.4356 0.71531 0.0
S1104 S 0.33895 0.53717 0.80396 0.0
N1105 N 0.34688 0.52034 0.72862 0.0
N1106 N 0.29923 0.51878 0.83038 0.0
C1107 C 0.2908 0.49733 0.77731 0.0
C1108 C 0.31665 0.49814 0.7224 0.0
C1109 C 0.96808 0.29236 0.72316 0.0
C1110 C 0.99897 0.29744 0.6799 0.0
C1111 C 0.96958 0.26685 0.77689 0.0
C1112 C 1.00189 0.24475 0.78932 0.0
H1113 H 0.94199 0.30745 0.71431 0.0
H1114 H 0.94446 0.26341 0.80716 0.0
S1115 S 0.09192 0.25031 0.69489 0.0
N1116 N 0.06406 0.28086 0.6565 0.0
N1117 N 0.0668 0.23226 0.75702 0.0
C1118 C 0.03381 0.25116 0.74884 0.0
C1119 C 0.03237 0.27764 0.69429 0.0
C1120 C 0.26649 0.98348 0.26587 0.0
C1121 C 0.24042 0.01323 0.27371 0.0
C1122 C 0.29295 0.98352 0.21368 0.0
C1123 C 0.29493 0.01351 0.16743 0.0
H1124 H 0.26568 0.95907 0.29873 0.0
H1125 H 0.31133 0.9592 0.20839 0.0
S1126 S 0.23586 0.1001 0.16896 0.0
N1127 N 0.22023 0.075 0.23323 0.0
N1128 N 0.27044 0.07511 0.13538 0.0
C1129 C 0.27075 0.04459 0.17687 0.0
C1130 C 0.24339 0.04444 0.22991 0.0
C1131 C 0.51948 0.29179 0.27863 0.0
C1132 C 0.48881 0.26799 0.28915 0.0
C1133 C 0.52105 0.31666 0.22401 0.0
C1134 C 0.49179 0.31934 0.17802 0.0
H1135 H 0.54356 0.28998 0.31085 0.0
H1136 H 0.54617 0.33285 0.21628 0.0
S1137 S 0.40263 0.26774 0.18782 0.0
N1138 N 0.42653 0.25183 0.25265 0.0
N1139 N 0.42936 0.29923 0.1503 0.0
C1140 C 0.45953 0.29821 0.1908 0.0
C1141 C 0.45806 0.27238 0.2463 0.0
C1142 C 0.23922 0.50769 0.26759 0.0
C1143 C 0.26892 0.48126 0.27135 0.0
C1144 C 0.21285 0.50653 0.2168 0.0
C1145 C 0.2146 0.4786 0.16802 0.0
H1146 H 0.23707 0.53057 0.30255 0.0
H1147 H 0.19163 0.52859 0.21431 0.0
S1148 S 0.28446 0.40067 0.1581 0.0
N1149 N 0.29685 0.42459 0.22402 0.0
N1150 N 0.24675 0.42231 0.12881 0.0
C1151 C 0.24253 0.45049 0.17338 0.0
C1152 C 0.26981 0.45184 0.22499 0.0
C1153 C 0.97128 0.19756 0.22501 0.0
C1154 C 1.00228 0.1918 0.18208 0.0
C1155 C 0.97169 0.22438 0.27532 0.0
C1156 C 0.00302 0.24705 0.28489 0.0
H1157 H 0.94586 0.182 0.21847 0.0
H1158 H 0.9465 0.22817 0.30539 0.0
S1159 S 0.09302 0.24054 0.19037 0.0
N1160 N 0.06655 0.2088 0.15609 0.0
N1161 N 0.0672 0.25964 0.25039 0.0
C1162 C 0.0351 0.24015 0.24488 0.0
C1163 C 0.03477 0.21244 0.19365 0.0
C1164 C 0.76479 0.02238 0.24006 0.0
C1165 C 0.74036 0.99215 0.23272 0.0
C1166 C 0.79172 0.02225 0.29017 0.0
C1167 C 0.79587 0.99171 0.33489 0.0
H1168 H 0.76236 0.04717 0.20836 0.0
H1169 H 0.80879 0.04686 0.29499 0.0
S1170 S 0.74148 0.90395 0.33398 0.0
N1171 N 0.72392 0.92956 0.27215 0.0
N1172 N 0.77492 0.92921 0.36594 0.0
C1173 C 0.77319 0.96032 0.32597 0.0
C1174 C 0.74536 0.96057 0.27509 0.0
C1175 C 0.56102 0.77737 0.34213 0.0
C1176 C 0.54209 0.81226 0.33858 0.0
C1177 C 0.55955 0.75187 0.28936 0.0
C1178 C 0.53912 0.76045 0.23125 0.0
H1179 H 0.57501 0.7687 0.38761 0.0
H1180 H 0.57263 0.72444 0.29593 0.0
S1181 S 0.49242 0.85173 0.19222 0.0
N1182 N 0.50746 0.8564 0.26912 0.0
N1183 N 0.50494 0.80892 0.16937 0.0
C1184 C 0.52281 0.79655 0.22514 0.0
C1185 C 0.52421 0.82233 0.27898 0.0
C1186 C 0.73864 0.5573 0.32916 0.0
C1187 C 0.70664 0.53496 0.32807 0.0
C1188 C 0.76428 0.55759 0.27512 0.0
C1189 C 0.75859 0.53563 0.21825 0.0
H1190 H 0.74518 0.57264 0.3737 0.0
H1191 H 0.78979 0.57323 0.27985 0.0
S1192 S 0.67451 0.47949 0.18598 0.0
N1193 N 0.66764 0.49522 0.26236 0.0
N1194 N 0.7152 0.49606 0.16029 0.0
C1195 C 0.72489 0.51597 0.21455 0.0
C1196 C 0.69909 0.51551 0.26965 0.0
C1197 C 0.94762 0.75141 0.29628 0.0
C1198 C 0.9708 0.74486 0.23994 0.0
C1199 C 0.9465 0.72563 0.35019 0.0
C1200 C 0.96854 0.69253 0.34949 0.0
H1201 H 0.9321 0.77764 0.30075 0.0
H1202 H 0.9303 0.73292 0.39444 0.0
S1203 S 0.02694 0.6583 0.2081 0.0
N1204 N 0.01134 0.69989 0.18252 0.0
N1205 N 0.00936 0.65184 0.28401 0.0
C1206 C 0.98918 0.68422 0.29126 0.0
C1207 C 0.99027 0.71027 0.23643 0.0
C1208 C 0.46986 0.98909 0.04663 0.0
C1209 C 0.45517 0.00736 0.98939 0.0
C1210 C 0.50859 0.98647 0.05768 0.0
C1211 C 0.53467 1.00196 0.01206 0.0
H1212 H 0.45133 0.97633 0.08339 0.0
H1213 H 0.51802 0.97249 0.10297 0.0
S1214 S 0.51129 0.05278 0.85375 0.0
N1215 N 0.47037 0.04162 0.88676 0.0
N1216 N 0.54268 0.03588 0.90624 0.0
C1217 C 0.52042 0.02013 0.95429 0.0
C1218 C 0.48095 0.02312 0.94343 0.0
C1219 C 0.49235 0.49857 0.95835 0.0
C1220 C 0.50833 0.47162 1.00211 0.0
C1221 C 0.49645 0.53724 0.96821 0.0
C1222 C 0.51655 0.55102 0.02258 0.0
H1223 H 0.47702 0.48985 0.91517 0.0
H1224 H 0.48343 0.55646 0.93279 0.0
S1225 S 0.56364 0.49238 0.15287 0.0
N1226 N 0.54472 0.46178 0.10307 0.0
N1227 N 0.55268 0.53399 0.12099 0.0
C1228 C 0.53255 0.52436 0.067 0.0
C1229 C 0.52832 0.48494 0.05706 0.0
C1230 C 0.98741 0.49134 0.96031 0.0
C1231 C 0.97247 0.50954 0.01714 0.0
C1232 C 0.02604 0.48483 0.9519 0.0
C1233 C 0.05185 0.49612 0.9999 0.0
H1234 H 0.96912 0.48173 0.9217 0.0
H1235 H 0.03567 0.4713 0.90658 0.0
S1236 S 0.02769 0.54425 0.15893 0.0
N1237 N 0.98712 0.53882 0.12245 0.0
N1238 N 0.05924 0.52553 0.1079 0.0
C1239 C 0.03733 0.51389 0.05755 0.0
C1240 C 0.99794 0.52096 0.06569 0.0
C1241 C 0.97867 0.01805 0.05673 0.0
C1242 C 1.00009 0.03419 1.00427 0.0
C1243 C 0.97605 0.97898 0.0652 0.0
C1244 C 0.99459 0.95388 0.02155 0.0
H1245 H 0.96324 0.0357 0.09146 0.0
H1246 H 0.95933 0.96848 0.10676 0.0
S1247 S 0.05517 0.98118 0.87656 0.0
N1248 N 0.04131 0.02141 0.90909 0.0
N1249 N 0.03539 0.94842 0.92343 0.0
C1250 C 0.01625 0.96956 0.96889 0.0
C1251 C 0.01934 0.00943 0.96083 0.0
C1252 C 0.00877 0.01561 0.45138 0.0
C1253 C 0.0342 1.00251 0.49993 0.0
C1254 C 0.97 0.01184 0.46025 0.0
C1255 C 0.95453 0.9949 0.51826 0.0
H1256 H 0.01878 0.02851 0.40532 0.0
H1257 H 0.95204 0.0227 0.42111 0.0
S1258 S 0.00866 0.95632 0.66179 0.0
N1259 N 0.04079 0.97245 0.60936 0.0
N1260 N 0.96824 0.9648 0.62533 0.0
C1261 C 0.97961 0.98164 0.56737 0.0
C1262 C 0.01921 0.9857 0.55853 0.0
C1263 C 0.53085 1.00105 0.55666 0.0
C1264 C 0.51413 0.9757 0.51319 0.0
C1265 C 0.52594 0.0401 0.54889 0.0
C1266 C 0.50388 0.05597 0.49742 0.0
H1267 H 0.54782 0.99077 0.59764 0.0
H1268 H 0.54 0.05795 0.5835 0.0
S1269 S 0.45345 1.00221 0.36989 0.0
N1270 N 0.4747 0.96974 0.41582 0.0
N1271 N 0.46453 0.04259 0.40279 0.0
C1272 C 0.48667 0.03093 0.4539 0.0
C1273 C 0.49211 0.99112 0.46122 0.0
C1274 C 0.53632 0.50007 0.45555 0.0
C1275 C 0.5498 0.51617 0.51431 0.0
C1276 C 0.49807 0.49448 0.44614 0.0
C1277 C 0.47111 0.50505 0.49464 0.0
H1278 H 0.5555 0.49109 0.41631 0.0
H1279 H 0.48969 0.4821 0.39974 0.0
S1280 S 0.49105 0.54989 0.65671 0.0
N1281 N 0.53258 0.54374 0.62113 0.0
N1282 N 0.4608 0.53309 0.60387 0.0
C1283 C 0.48403 0.52159 0.55352 0.0
C1284 C 0.52318 0.52731 0.56307 0.0
C1285 C 0.00822 0.51672 0.47464 0.0
C1286 C 0.99152 0.53114 0.53353 0.0
C1287 C 0.01055 0.47794 0.46282 0.0
C1288 C 0.99627 0.45155 0.50923 0.0
H1289 H 0.01966 0.53553 0.43686 0.0
H1290 H 0.02293 0.46873 0.41604 0.0
S1291 S 0.95197 0.47381 0.67358 0.0
N1292 N 0.96162 0.51512 0.64004 0.0
N1293 N 0.96649 0.44269 0.61838 0.0
C1294 C 0.98021 0.46543 0.56901 0.0
C1295 C 0.97766 0.50495 0.58092 0.0
loop_
_geom_bond_atom_site_label_1
_geom_bond_atom_site_label_2
_geom_bond_distance
_geom_bond_site_symmetry_2
_ccdc_geom_bond_type
Co0 O2 2.143 . S
Co0 O8 2.074 . S
Co0 O11 2.093 . S
Co0 O24 2.097 1_565 S
Co0 N41 2.151 . S
Co0 N49 2.214 . S
Co1 O2 2.160 1_545 S
Co1 O7 2.058 1_545 S
Co1 O17 2.057 1_554 S
Co1 O32 2.037 . S
Co1 N36 2.145 1_554 S
Co1 N57 2.257 . S
O2 Co0 2.143 . S
O2 Co1 2.160 1_565 S
C3 O4 1.278 1_565 S
C3 O11 1.224 . S
O4 C3 1.278 1_545 S
C5 O6 1.220 1_546 S
C5 O17 1.255 . S
O6 C5 1.220 1_564 S
O7 Co1 2.058 1_565 S
O7 C33 1.269 . S
O8 Co0 2.074 . S
O8 C33 1.257 . S
H9 C34 0.930 . S
H10 C40 0.930 . S
O11 Co0 2.093 . S
O11 C3 1.224 . S
H12 C44 0.929 . S
H13 C46 0.930 . S
H14 C47 0.930 . S
H15 C45 0.929 . S
H16 C48 0.928 . S
O17 Co1 2.057 1_556 S
O17 C5 1.255 . S
H18 C37 0.929 1_554 S
H19 C38 0.929 . S
H20 C50 0.931 . S
H21 C42 0.929 . S
H22 C51 0.930 . S
H23 C43 0.931 . S
O24 Co0 2.097 1_545 S
O24 C52 1.214 . S
H25 C53 0.929 . S
H26 C54 0.929 . S
H27 C55 0.930 . S
H28 C56 0.929 . S
H29 C58 0.930 . S
H30 C35 0.930 . S
H31 C39 0.930 . S
O32 Co1 2.037 . S
O32 C52 1.234 . S
C33 O7 1.269 . S
C33 O8 1.257 . S
C34 H9 0.930 . S
C34 C37 1.388 . S
C34 C39 1.418 . S
C35 H30 0.930 . S
C35 C38 1.404 . S
C35 C39 1.353 . S
N36 Co1 2.145 1_556 S
N36 C37 1.397 . S
N36 C38 1.334 . S
C37 H18 0.929 1_556 S
C37 C34 1.388 . S
C37 N36 1.397 . S
C38 H19 0.929 . S
C38 C35 1.404 . S
C38 N36 1.334 . S
C39 H31 0.930 . S
C39 C34 1.418 . S
C39 C35 1.353 . S
C40 H10 0.930 . S
C40 N41 1.330 . S
C40 C42 1.446 . S
N41 Co0 2.151 . S
N41 C40 1.330 . S
N41 C45 1.418 . S
C42 H21 0.929 . S
C42 C40 1.446 . S
C42 C43 1.332 . S
C43 H23 0.931 . S
C43 C42 1.332 . S
C43 C44 1.267 . S
C44 H12 0.929 . S
C44 C43 1.267 . S
C44 C45 1.251 . S
C45 H15 0.929 . S
C45 N41 1.418 . S
C45 C44 1.251 . S
C46 H13 0.930 . S
C46 C48 1.406 . S
C46 C51 1.261 . S
C47 H14 0.930 . S
C47 N49 1.325 . S
C47 C50 1.357 . S
C48 H16 0.928 . S
C48 C46 1.406 . S
C48 N49 1.261 . S
N49 Co0 2.214 . S
N49 C47 1.325 . S
N49 C48 1.261 . S
C50 H20 0.931 . S
C50 C47 1.357 . S
C50 C51 1.312 . S
C51 H22 0.930 . S
C51 C46 1.261 . S
C51 C50 1.312 . S
C52 O24 1.214 . S
C52 O32 1.234 . S
C53 H25 0.929 . S
C53 C56 1.391 . S
C53 C58 1.391 . S
C54 H26 0.929 . S
C54 C55 1.390 . S
C54 N57 1.391 . S
C55 H27 0.930 . S
C55 C54 1.390 . S
C55 C56 1.392 . S
C56 H28 0.929 . S
C56 C53 1.391 . S
C56 C55 1.392 . S
N57 Co1 2.257 . S
N57 C54 1.391 . S
N57 C58 1.388 . S
C58 H29 0.930 . S
C58 C53 1.391 . S
C58 N57 1.388 . S
Co59 O61 2.143 . S
Co59 O67 2.074 . S
Co59 O70 2.093 . S
Co59 O83 2.097 . S
Co59 N100 2.151 . S
Co59 N108 2.214 . S
Co60 O61 2.160 . S
Co60 O66 2.058 . S
Co60 O76 2.057 1_554 S
Co60 O91 2.037 . S
Co60 N95 2.145 1_554 S
Co60 N116 2.257 . S
O61 Co59 2.143 . S
O61 Co60 2.160 . S
C62 O63 1.278 . S
C62 O70 1.224 . S
O63 C62 1.278 . S
C64 O65 1.245 1_556 S
C64 O76 1.232 . S
O65 C64 1.245 1_554 S
O66 Co60 2.058 . S
O66 C92 1.269 . S
O67 Co59 2.074 . S
O67 C92 1.257 . S
H68 C93 0.930 . S
H69 C99 0.930 . S
O70 Co59 2.093 . S
O70 C62 1.224 . S
H71 C103 0.929 . S
H72 C105 0.930 . S
H73 C106 0.930 . S
H74 C104 0.929 . S
H75 C107 0.928 . S
O76 Co60 2.057 1_556 S
O76 C64 1.232 . S
H77 C96 0.929 . S
H78 C97 0.929 . S
H79 C109 0.931 . S
H80 C101 0.929 . S
H81 C110 0.930 . S
H82 C102 0.931 . S
O83 Co59 2.097 . S
O83 C111 1.214 . S
H84 C112 0.929 . S
H85 C113 0.929 . S
H86 C114 0.930 . S
H87 C115 0.929 . S
H88 C117 0.930 . S
H89 C94 0.930 . S
H90 C98 0.930 . S
O91 Co60 2.037 . S
O91 C111 1.234 . S
C92 O66 1.269 . S
C92 O67 1.257 . S
C93 H68 0.930 . S
C93 C96 1.388 1_556 S
C93 C98 1.418 . S
C94 H89 0.930 . S
C94 C97 1.404 . S
C94 C98 1.353 . S
N95 Co60 2.145 1_556 S
N95 C96 1.397 1_556 S
N95 C97 1.334 . S
C96 H77 0.929 . S
C96 C93 1.388 1_554 S
C96 N95 1.397 1_554 S
C97 H78 0.929 . S
C97 C94 1.404 . S
C97 N95 1.334 . S
C98 H90 0.930 . S
C98 C93 1.418 . S
C98 C94 1.353 . S
C99 H69 0.930 . S
C99 N100 1.330 . S
C99 C101 1.446 . S
N100 Co59 2.151 . S
N100 C99 1.330 . S
N100 C104 1.418 . S
C101 H80 0.929 . S
C101 C99 1.446 . S
C101 C102 1.332 . S
C102 H82 0.931 . S
C102 C101 1.332 . S
C102 C103 1.267 . S
C103 H71 0.929 . S
C103 C102 1.267 . S
C103 C104 1.251 . S
C104 H74 0.929 . S
C104 N100 1.418 . S
C104 C103 1.251 . S
C105 H72 0.930 . S
C105 C107 1.406 . S
C105 C110 1.261 . S
C106 H73 0.930 . S
C106 N108 1.325 . S
C106 C109 1.357 . S
C107 H75 0.928 . S
C107 C105 1.406 . S
C107 N108 1.261 . S
N108 Co59 2.214 . S
N108 C106 1.325 . S
N108 C107 1.261 . S
C109 H79 0.931 . S
C109 C106 1.357 . S
C109 C110 1.312 . S
C110 H81 0.930 . S
C110 C105 1.261 . S
C110 C109 1.312 . S
C111 O83 1.214 . S
C111 O91 1.234 . S
C112 H84 0.929 . S
C112 C115 1.391 . S
C112 C117 1.391 . S
C113 H85 0.929 . S
C113 C114 1.390 . S
C113 N116 1.391 . S
C114 H86 0.930 . S
C114 C113 1.390 . S
C114 C115 1.392 . S
C115 H87 0.929 . S
C115 C112 1.391 . S
C115 C114 1.392 . S
N116 Co60 2.257 . S
N116 C113 1.391 . S
N116 C117 1.388 . S
C117 H88 0.930 . S
C117 C112 1.391 . S
C117 N116 1.388 . S
Co118 O120 2.143 . S
Co118 O126 2.074 . S
Co118 O129 2.093 . S
Co118 O142 2.097 . S
Co118 N159 2.151 . S
Co118 N167 2.214 . S
Co119 O120 2.160 . S
Co119 O125 2.058 . S
Co119 O135 2.057 1_554 S
Co119 O150 2.037 . S
Co119 N154 2.145 1_554 S
Co119 N175 2.257 . S
O120 Co118 2.143 . S
O120 Co119 2.160 . S
C121 O122 1.278 . S
C121 O129 1.224 . S
O122 C121 1.278 . S
C123 O124 1.245 1_556 S
C123 O135 1.232 . S
O124 C123 1.245 1_554 S
O125 Co119 2.058 . S
O125 C151 1.269 . S
O126 Co118 2.074 . S
O126 C151 1.257 . S
H127 C152 0.930 . S
H128 C158 0.930 . S
O129 Co118 2.093 . S
O129 C121 1.224 . S
H130 C162 0.929 . S
H131 C164 0.930 . S
H132 C165 0.930 . S
H133 C163 0.929 . S
H134 C166 0.928 . S
O135 Co119 2.057 1_556 S
O135 C123 1.232 . S
H136 C155 0.929 . S
H137 C156 0.929 . S
H138 C168 0.931 1_455 S
H139 C160 0.929 . S
H140 C169 0.930 . S
H141 C161 0.931 . S
O142 Co118 2.097 . S
O142 C170 1.214 . S
H143 C171 0.929 . S
H144 C172 0.929 . S
H145 C173 0.930 . S
H146 C174 0.929 . S
H147 C176 0.930 . S
H148 C153 0.930 . S
H149 C157 0.930 . S
O150 Co119 2.037 . S
O150 C170 1.234 . S
C151 O125 1.269 . S
C151 O126 1.257 . S
C152 H127 0.930 . S
C152 C155 1.388 1_556 S
C152 C157 1.418 . S
C153 H148 0.930 . S
C153 C156 1.404 . S
C153 C157 1.353 . S
N154 Co119 2.145 1_556 S
N154 C155 1.397 1_556 S
N154 C156 1.334 . S
C155 H136 0.929 . S
C155 C152 1.388 1_554 S
C155 N154 1.397 1_554 S
C156 H137 0.929 . S
C156 C153 1.404 . S
C156 N154 1.334 . S
C157 H149 0.930 . S
C157 C152 1.418 . S
C157 C153 1.353 . S
C158 H128 0.930 . S
C158 N159 1.330 . S
C158 C160 1.446 . S
N159 Co118 2.151 . S
N159 C158 1.330 . S
N159 C163 1.418 . S
C160 H139 0.929 . S
C160 C158 1.446 . S
C160 C161 1.332 . S
C161 H141 0.931 . S
C161 C160 1.332 . S
C161 C162 1.267 . S
C162 H130 0.929 . S
C162 C161 1.267 . S
C162 C163 1.251 . S
C163 H133 0.929 . S
C163 N159 1.418 . S
C163 C162 1.251 . S
C164 H131 0.930 . S
C164 C166 1.406 . S
C164 C169 1.261 . S
C165 H132 0.930 . S
C165 N167 1.325 . S
C165 C168 1.357 . S
C166 H134 0.928 . S
C166 C164 1.406 . S
C166 N167 1.261 . S
N167 Co118 2.214 . S
N167 C165 1.325 . S
N167 C166 1.261 . S
C168 H138 0.931 1_655 S
C168 C165 1.357 . S
C168 C169 1.312 . S
C169 H140 0.930 . S
C169 C164 1.261 . S
C169 C168 1.312 . S
C170 O142 1.214 . S
C170 O150 1.234 . S
C171 H143 0.929 . S
C171 C174 1.391 . S
C171 C176 1.391 . S
C172 H144 0.929 . S
C172 C173 1.390 . S
C172 N175 1.391 . S
C173 H145 0.930 . S
C173 C172 1.390 . S
C173 C174 1.392 . S
C174 H146 0.929 . S
C174 C171 1.391 . S
C174 C173 1.392 . S
N175 Co119 2.257 . S
N175 C172 1.391 . S
N175 C176 1.388 . S
C176 H147 0.930 . S
C176 C171 1.391 . S
C176 N175 1.388 . S
Co177 O179 2.143 . S
Co177 O185 2.074 . S
Co177 O188 2.093 . S
Co177 O201 2.097 1_655 S
Co177 N218 2.151 . S
Co177 N226 2.214 . S
Co178 O179 2.160 1_455 S
Co178 O184 2.050 1_455 S
Co178 O194 2.057 1_554 S
Co178 O209 2.037 . S
Co178 N213 2.145 1_554 S
Co178 N234 2.257 . S
O179 Co177 2.143 . S
O179 Co178 2.160 1_655 S
C180 O181 1.278 1_655 S
C180 O188 1.224 . S
O181 C180 1.278 1_455 S
C182 O183 1.260 1_556 S
C182 O194 1.206 1_655 S
O183 C182 1.260 1_554 S
O184 Co178 2.050 1_655 S
O184 C210 1.276 . S
O185 Co177 2.074 . S
O185 C210 1.257 . S
H186 C211 0.930 . S
H187 C217 0.930 . S
O188 Co177 2.093 . S
O188 C180 1.224 . S
H189 C221 0.929 . S
H190 C223 0.930 . S
H191 C224 0.930 . S
H192 C222 0.929 . S
H193 C225 0.928 . S
O194 Co178 2.057 1_556 S
O194 C182 1.206 1_455 S
H195 C214 0.929 1_554 S
H196 C215 0.929 . S
H197 C227 0.931 . S
H198 C219 0.929 . S
H199 C228 0.930 . S
H200 C220 0.931 . S
O201 Co177 2.097 1_455 S
O201 C229 1.214 . S
H202 C230 0.929 . S
H203 C231 0.929 . S
H204 C232 0.930 . S
H205 C233 0.929 . S
H206 C235 0.930 . S
H207 C212 0.930 . S
H208 C216 0.930 . S
O209 Co178 2.037 . S
O209 C229 1.234 . S
C210 O184 1.276 . S
C210 O185 1.257 . S
C211 H186 0.930 . S
C211 C214 1.388 . S
C211 C216 1.418 . S
C212 H207 0.930 . S
C212 C215 1.404 . S
C212 C216 1.353 . S
N213 Co178 2.145 1_556 S
N213 C214 1.397 . S
N213 C215 1.334 . S
C214 H195 0.929 1_556 S
C214 C211 1.388 . S
C214 N213 1.397 . S
C215 H196 0.929 . S
C215 C212 1.404 . S
C215 N213 1.334 . S
C216 H208 0.930 . S
C216 C211 1.418 . S
C216 C212 1.353 . S
C217 H187 0.930 . S
C217 N218 1.330 . S
C217 C219 1.446 . S
N218 Co177 2.151 . S
N218 C217 1.330 . S
N218 C222 1.418 . S
C219 H198 0.929 . S
C219 C217 1.446 . S
C219 C220 1.332 . S
C220 H200 0.931 . S
C220 C219 1.332 . S
C220 C221 1.267 . S
C221 H189 0.929 . S
C221 C220 1.267 . S
C221 C222 1.251 . S
C222 H192 0.929 . S
C222 N218 1.418 . S
C222 C221 1.251 . S
C223 H190 0.930 . S
C223 C225 1.406 . S
C223 C228 1.261 . S
C224 H191 0.930 . S
C224 N226 1.325 . S
C224 C227 1.357 . S
C225 H193 0.928 . S
C225 C223 1.406 . S
C225 N226 1.261 . S
N226 Co177 2.214 . S
N226 C224 1.325 . S
N226 C225 1.261 . S
C227 H197 0.931 . S
C227 C224 1.357 . S
C227 C228 1.312 . S
C228 H199 0.930 . S
C228 C223 1.261 . S
C228 C227 1.312 . S
C229 O201 1.214 . S
C229 O209 1.234 . S
C230 H202 0.929 . S
C230 C233 1.391 . S
C230 C235 1.391 . S
C231 H203 0.929 . S
C231 C232 1.390 . S
C231 N234 1.391 . S
C232 H204 0.930 . S
C232 C231 1.390 . S
C232 C233 1.392 . S
C233 H205 0.929 . S
C233 C230 1.391 . S
C233 C232 1.392 . S
N234 Co178 2.257 . S
N234 C231 1.391 . S
N234 C235 1.388 . S
C235 H206 0.930 . S
C235 C230 1.391 . S
C235 N234 1.388 . S
Co236 O238 2.143 . S
Co236 O244 2.074 . S
Co236 O247 2.093 . S
Co236 O260 2.097 1_545 S
Co236 N277 2.151 . S
Co236 N285 2.214 . S
Co237 O238 2.160 1_565 S
Co237 O243 2.050 1_565 S
Co237 O253 2.057 . S
Co237 O268 2.037 . S
Co237 N272 2.145 . S
Co237 N293 2.257 . S
O238 Co236 2.143 . S
O238 Co237 2.160 1_545 S
C239 O240 1.278 1_545 S
C239 O247 1.224 . S
O240 C239 1.278 1_565 S
C241 O242 1.270 . S
C241 O253 1.206 1_545 S
O242 C241 1.270 . S
O243 Co237 2.050 1_545 S
O243 C269 1.276 . S
O244 Co236 2.074 . S
O244 C269 1.257 . S
H245 C270 0.930 . S
H246 C276 0.930 . S
O247 Co236 2.093 . S
O247 C239 1.224 . S
H248 C280 0.929 . S
H249 C282 0.930 . S
H250 C283 0.930 . S
H251 C281 0.929 . S
H252 C284 0.928 . S
O253 Co237 2.057 . S
O253 C241 1.206 1_565 S
H254 C273 0.929 . S
H255 C274 0.929 . S
H256 C286 0.931 . S
H257 C278 0.929 . S
H258 C287 0.930 . S
H259 C279 0.931 . S
O260 Co236 2.097 1_565 S
O260 C288 1.214 . S
H261 C289 0.929 . S
H262 C290 0.929 . S
H263 C291 0.930 . S
H264 C292 0.929 . S
H265 C294 0.930 . S
H266 C271 0.930 . S
H267 C275 0.930 . S
O268 Co237 2.037 . S
O268 C288 1.234 . S
C269 O243 1.276 . S
C269 O244 1.257 . S
C270 H245 0.930 . S
C270 C273 1.388 . S
C270 C275 1.418 . S
C271 H266 0.930 . S
C271 C274 1.404 . S
C271 C275 1.353 . S
N272 Co237 2.145 . S
N272 C273 1.397 . S
N272 C274 1.334 . S
C273 H254 0.929 . S
C273 C270 1.388 . S
C273 N272 1.397 . S
C274 H255 0.929 . S
C274 C271 1.404 . S
C274 N272 1.334 . S
C275 H267 0.930 . S
C275 C270 1.418 . S
C275 C271 1.353 . S
C276 H246 0.930 . S
C276 N277 1.330 . S
C276 C278 1.446 . S
N277 Co236 2.151 . S
N277 C276 1.330 . S
N277 C281 1.418 . S
C278 H257 0.929 . S
C278 C276 1.446 . S
C278 C279 1.332 . S
C279 H259 0.931 . S
C279 C278 1.332 . S
C279 C280 1.267 . S
C280 H248 0.929 . S
C280 C279 1.267 . S
C280 C281 1.251 . S
C281 H251 0.929 . S
C281 N277 1.418 . S
C281 C280 1.251 . S
C282 H249 0.930 . S
C282 C284 1.406 . S
C282 C287 1.261 . S
C283 H250 0.930 . S
C283 N285 1.325 . S
C283 C286 1.357 . S
C284 H252 0.928 . S
C284 C282 1.406 . S
C284 N285 1.261 . S
N285 Co236 2.214 . S
N285 C283 1.325 . S
N285 C284 1.261 . S
C286 H256 0.931 . S
C286 C283 1.357 . S
C286 C287 1.312 . S
C287 H258 0.930 . S
C287 C282 1.261 . S
C287 C286 1.312 . S
C288 O260 1.214 . S
C288 O268 1.234 . S
C289 H261 0.929 . S
C289 C292 1.391 . S
C289 C294 1.391 . S
C290 H262 0.929 . S
C290 C291 1.390 . S
C290 N293 1.391 . S
C291 H263 0.930 . S
C291 C290 1.390 . S
C291 C292 1.392 . S
C292 H264 0.929 . S
C292 C289 1.391 . S
C292 C291 1.392 . S
N293 Co237 2.257 . S
N293 C290 1.391 . S
N293 C294 1.388 . S
C294 H265 0.930 . S
C294 C289 1.391 . S
C294 N293 1.388 . S
Co295 O297 2.143 . S
Co295 O303 2.074 . S
Co295 O306 2.093 . S
Co295 O319 2.097 . S
Co295 N336 2.151 . S
Co295 N344 2.214 . S
Co296 O297 2.160 . S
Co296 O302 2.058 . S
Co296 O312 2.057 . S
Co296 O327 2.037 . S
Co296 N331 2.145 . S
Co296 N352 2.257 . S
O297 Co295 2.143 . S
O297 Co296 2.160 . S
C298 O299 1.278 . S
C298 O306 1.224 . S
O299 C298 1.278 . S
C300 O301 1.245 . S
C300 O312 1.232 . S
O301 C300 1.245 . S
O302 Co296 2.058 . S
O302 C328 1.269 . S
O303 Co295 2.074 . S
O303 C328 1.257 . S
H304 C329 0.930 . S
H305 C335 0.930 . S
O306 Co295 2.093 . S
O306 C298 1.224 . S
H307 C339 0.929 . S
H308 C341 0.930 . S
H309 C342 0.930 . S
H310 C340 0.929 . S
H311 C343 0.928 . S
O312 Co296 2.057 . S
O312 C300 1.232 . S
H313 C332 0.929 . S
H314 C333 0.929 . S
H315 C345 0.931 1_565 S
H316 C337 0.929 . S
H317 C346 0.930 . S
H318 C338 0.931 . S
O319 Co295 2.097 . S
O319 C347 1.214 . S
H320 C348 0.929 . S
H321 C349 0.929 . S
H322 C350 0.930 . S
H323 C351 0.929 . S
H324 C353 0.930 . S
H325 C330 0.930 . S
H326 C334 0.930 . S
O327 Co296 2.037 . S
O327 C347 1.234 . S
C328 O302 1.269 . S
C328 O303 1.257 . S
C329 H304 0.930 . S
C329 C332 1.388 . S
C329 C334 1.418 . S
C330 H325 0.930 . S
C330 C333 1.404 . S
C330 C334 1.353 . S
N331 Co296 2.145 . S
N331 C332 1.397 . S
N331 C333 1.334 . S
C332 H313 0.929 . S
C332 C329 1.388 . S
C332 N331 1.397 . S
C333 H314 0.929 . S
C333 C330 1.404 . S
C333 N331 1.334 . S
C334 H326 0.930 . S
C334 C329 1.418 . S
C334 C330 1.353 . S
C335 H305 0.930 . S
C335 N336 1.330 . S
C335 C337 1.446 . S
N336 Co295 2.151 . S
N336 C335 1.330 . S
N336 C340 1.418 . S
C337 H316 0.929 . S
C337 C335 1.446 . S
C337 C338 1.332 . S
C338 H318 0.931 . S
C338 C337 1.332 . S
C338 C339 1.267 . S
C339 H307 0.929 . S
C339 C338 1.267 . S
C339 C340 1.251 . S
C340 H310 0.929 . S
C340 N336 1.418 . S
C340 C339 1.251 . S
C341 H308 0.930 . S
C341 C343 1.406 . S
C341 C346 1.261 . S
C342 H309 0.930 . S
C342 N344 1.325 . S
C342 C345 1.357 . S
C343 H311 0.928 . S
C343 C341 1.406 . S
C343 N344 1.261 . S
N344 Co295 2.214 . S
N344 C342 1.325 . S
N344 C343 1.261 . S
C345 H315 0.931 1_545 S
C345 C342 1.357 . S
C345 C346 1.312 . S
C346 H317 0.930 . S
C346 C341 1.261 . S
C346 C345 1.312 . S
C347 O319 1.214 . S
C347 O327 1.234 . S
C348 H320 0.929 . S
C348 C351 1.391 . S
C348 C353 1.391 . S
C349 H321 0.929 . S
C349 C350 1.390 . S
C349 N352 1.391 . S
C350 H322 0.930 . S
C350 C349 1.390 . S
C350 C351 1.392 . S
C351 H323 0.929 . S
C351 C348 1.391 . S
C351 C350 1.392 . S
N352 Co296 2.257 . S
N352 C349 1.391 . S
N352 C353 1.388 . S
C353 H324 0.930 . S
C353 C348 1.391 . S
C353 N352 1.388 . S
Co354 O356 2.143 . S
Co354 O362 2.074 . S
Co354 O365 2.093 . S
Co354 O378 2.097 . S
Co354 N395 2.151 . S
Co354 N403 2.214 . S
Co355 O356 2.160 . S
Co355 O361 2.058 . S
Co355 O371 2.057 . S
Co355 O386 2.037 . S
Co355 N390 2.145 . S
Co355 N411 2.257 . S
O356 Co354 2.143 . S
O356 Co355 2.160 . S
C357 O358 1.278 . S
C357 O365 1.224 . S
O358 C357 1.278 . S
C359 O360 1.245 . S
C359 O371 1.232 . S
O360 C359 1.245 . S
O361 Co355 2.058 . S
O361 C387 1.269 . S
O362 Co354 2.074 . S
O362 C387 1.257 . S
H363 C388 0.930 . S
H364 C394 0.930 . S
O365 Co354 2.093 . S
O365 C357 1.224 . S
H366 C398 0.929 . S
H367 C400 0.930 . S
H368 C401 0.930 . S
H369 C399 0.929 . S
H370 C402 0.928 . S
O371 Co355 2.057 . S
O371 C359 1.232 . S
H372 C391 0.929 . S
H373 C392 0.929 . S
H374 C404 0.931 . S
H375 C396 0.929 . S
H376 C405 0.930 . S
H377 C397 0.931 . S
O378 Co354 2.097 . S
O378 C406 1.214 . S
H379 C407 0.929 . S
H380 C408 0.929 . S
H381 C409 0.930 . S
H382 C410 0.929 . S
H383 C412 0.930 . S
H384 C389 0.930 . S
H385 C393 0.930 . S
O386 Co355 2.037 . S
O386 C406 1.234 . S
C387 O361 1.269 . S
C387 O362 1.257 . S
C388 H363 0.930 . S
C388 C391 1.388 . S
C388 C393 1.418 . S
C389 H384 0.930 . S
C389 C392 1.404 . S
C389 C393 1.353 . S
N390 Co355 2.145 . S
N390 C391 1.397 . S
N390 C392 1.334 . S
C391 H372 0.929 . S
C391 C388 1.388 . S
C391 N390 1.397 . S
C392 H373 0.929 . S
C392 C389 1.404 . S
C392 N390 1.334 . S
C393 H385 0.930 . S
C393 C388 1.418 . S
C393 C389 1.353 . S
C394 H364 0.930 . S
C394 N395 1.330 . S
C394 C396 1.446 . S
N395 Co354 2.151 . S
N395 C394 1.330 . S
N395 C399 1.418 . S
C396 H375 0.929 . S
C396 C394 1.446 . S
C396 C397 1.332 . S
C397 H377 0.931 . S
C397 C396 1.332 . S
C397 C398 1.267 . S
C398 H366 0.929 . S
C398 C397 1.267 . S
C398 C399 1.251 . S
C399 H369 0.929 . S
C399 N395 1.418 . S
C399 C398 1.251 . S
C400 H367 0.930 . S
C400 C402 1.406 . S
C400 C405 1.261 . S
C401 H368 0.930 . S
C401 N403 1.325 . S
C401 C404 1.357 . S
C402 H370 0.928 . S
C402 C400 1.406 . S
C402 N403 1.261 . S
N403 Co354 2.214 . S
N403 C401 1.325 . S
N403 C402 1.261 . S
C404 H374 0.931 . S
C404 C401 1.357 . S
C404 C405 1.312 . S
C405 H376 0.930 . S
C405 C400 1.261 . S
C405 C404 1.312 . S
C406 O378 1.214 . S
C406 O386 1.234 . S
C407 H379 0.929 . S
C407 C410 1.391 . S
C407 C412 1.391 . S
C408 H380 0.929 . S
C408 C409 1.390 . S
C408 N411 1.391 . S
C409 H381 0.930 . S
C409 C408 1.390 . S
C409 C410 1.392 . S
C410 H382 0.929 . S
C410 C407 1.391 . S
C410 C409 1.392 . S
N411 Co355 2.257 . S
N411 C408 1.391 . S
N411 C412 1.388 . S
C412 H383 0.930 . S
C412 C407 1.391 . S
C412 N411 1.388 . S
Co413 O415 2.143 . S
Co413 O421 2.074 . S
Co413 O424 2.093 . S
Co413 O437 2.097 1_455 S
Co413 N454 2.151 . S
Co413 N462 2.214 . S
Co414 O415 2.160 1_655 S
Co414 O420 2.058 1_655 S
Co414 O430 2.057 . S
Co414 O445 2.037 . S
Co414 N449 2.145 . S
Co414 N470 2.257 . S
O415 Co413 2.143 . S
O415 Co414 2.160 1_455 S
C416 O417 1.278 1_455 S
C416 O424 1.224 . S
O417 C416 1.278 1_655 S
C418 O419 1.220 1_655 S
C418 O430 1.255 . S
O419 C418 1.220 1_455 S
O420 Co414 2.058 1_455 S
O420 C446 1.269 . S
O421 Co413 2.074 . S
O421 C446 1.257 . S
H422 C447 0.930 . S
H423 C453 0.930 . S
O424 Co413 2.093 . S
O424 C416 1.224 . S
H425 C457 0.929 . S
H426 C459 0.930 . S
H427 C460 0.930 . S
H428 C458 0.929 . S
H429 C461 0.928 . S
O430 Co414 2.057 . S
O430 C418 1.255 . S
H431 C450 0.929 . S
H432 C451 0.929 . S
H433 C463 0.931 . S
H434 C455 0.929 . S
H435 C464 0.930 . S
H436 C456 0.931 . S
O437 Co413 2.097 1_655 S
O437 C465 1.214 . S
H438 C466 0.929 . S
H439 C467 0.929 . S
H440 C468 0.930 . S
H441 C469 0.929 . S
H442 C471 0.930 . S
H443 C448 0.930 . S
H444 C452 0.930 . S
O445 Co414 2.037 . S
O445 C465 1.234 . S
C446 O420 1.269 . S
C446 O421 1.257 . S
C447 H422 0.930 . S
C447 C450 1.388 . S
C447 C452 1.418 . S
C448 H443 0.930 . S
C448 C451 1.404 . S
C448 C452 1.353 . S
N449 Co414 2.145 . S
N449 C450 1.397 . S
N449 C451 1.334 . S
C450 H431 0.929 . S
C450 C447 1.388 . S
C450 N449 1.397 . S
C451 H432 0.929 . S
C451 C448 1.404 . S
C451 N449 1.334 . S
C452 H444 0.930 . S
C452 C447 1.418 . S
C452 C448 1.353 . S
C453 H423 0.930 . S
C453 N454 1.330 . S
C453 C455 1.446 . S
N454 Co413 2.151 . S
N454 C453 1.330 . S
N454 C458 1.418 . S
C455 H434 0.929 . S
C455 C453 1.446 . S
C455 C456 1.332 . S
C456 H436 0.931 . S
C456 C455 1.332 . S
C456 C457 1.267 . S
C457 H425 0.929 . S
C457 C456 1.267 . S
C457 C458 1.251 . S
C458 H428 0.929 . S
C458 N454 1.418 . S
C458 C457 1.251 . S
C459 H426 0.930 . S
C459 C461 1.406 . S
C459 C464 1.261 . S
C460 H427 0.930 . S
C460 N462 1.325 . S
C460 C463 1.357 . S
C461 H429 0.928 . S
C461 C459 1.406 . S
C461 N462 1.261 . S
N462 Co413 2.214 . S
N462 C460 1.325 . S
N462 C461 1.261 . S
C463 H433 0.931 . S
C463 C460 1.357 . S
C463 C464 1.312 . S
C464 H435 0.930 . S
C464 C459 1.261 . S
C464 C463 1.312 . S
C465 O437 1.214 . S
C465 O445 1.234 . S
C466 H438 0.929 . S
C466 C469 1.391 . S
C466 C471 1.391 . S
C467 H439 0.929 . S
C467 C468 1.390 . S
C467 N470 1.391 . S
C468 H440 0.930 . S
C468 C467 1.390 . S
C468 C469 1.392 . S
C469 H441 0.929 . S
C469 C466 1.391 . S
C469 C468 1.392 . S
N470 Co414 2.257 . S
N470 C467 1.391 . S
N470 C471 1.388 . S
C471 H442 0.930 . S
C471 C466 1.391 . S
C471 N470 1.388 . S
Co472 O474 2.143 . S
Co472 O480 2.074 . S
Co472 O483 2.093 . S
Co472 O496 2.097 1_545 S
Co472 N513 2.151 . S
Co472 N521 2.214 . S
Co473 O474 2.160 1_565 S
Co473 O479 2.058 1_565 S
Co473 O489 2.057 1_556 S
Co473 O504 2.037 . S
Co473 N508 2.145 1_556 S
Co473 N529 2.257 . S
O474 Co472 2.143 . S
O474 Co473 2.160 1_545 S
C475 O476 1.278 1_545 S
C475 O483 1.224 . S
O476 C475 1.278 1_565 S
C477 O478 1.220 1_564 S
C477 O489 1.255 . S
O478 C477 1.220 1_546 S
O479 Co473 2.058 1_545 S
O479 C505 1.269 . S
O480 Co472 2.074 . S
O480 C505 1.257 . S
H481 C506 0.930 . S
H482 C512 0.930 . S
O483 Co472 2.093 . S
O483 C475 1.224 . S
H484 C516 0.929 . S
H485 C518 0.930 . S
H486 C519 0.930 . S
H487 C517 0.929 . S
H488 C520 0.928 . S
O489 Co473 2.057 1_554 S
O489 C477 1.255 . S
H490 C509 0.929 1_556 S
H491 C510 0.929 . S
H492 C522 0.931 . S
H493 C514 0.929 . S
H494 C523 0.930 . S
H495 C515 0.931 . S
O496 Co472 2.097 1_565 S
O496 C524 1.214 . S
H497 C525 0.929 . S
H498 C526 0.929 . S
H499 C527 0.930 . S
H500 C528 0.929 . S
H501 C530 0.930 . S
H502 C507 0.930 . S
H503 C511 0.930 . S
O504 Co473 2.037 . S
O504 C524 1.234 . S
C505 O479 1.269 . S
C505 O480 1.257 . S
C506 H481 0.930 . S
C506 C509 1.388 . S
C506 C511 1.418 . S
C507 H502 0.930 . S
C507 C510 1.404 . S
C507 C511 1.353 . S
N508 Co473 2.145 1_554 S
N508 C509 1.397 . S
N508 C510 1.334 . S
C509 H490 0.929 1_554 S
C509 C506 1.388 . S
C509 N508 1.397 . S
C510 H491 0.929 . S
C510 C507 1.404 . S
C510 N508 1.334 . S
C511 H503 0.930 . S
C511 C506 1.418 . S
C511 C507 1.353 . S
C512 H482 0.930 . S
C512 N513 1.330 . S
C512 C514 1.446 . S
N513 Co472 2.151 . S
N513 C512 1.330 . S
N513 C517 1.418 . S
C514 H493 0.929 . S
C514 C512 1.446 . S
C514 C515 1.332 . S
C515 H495 0.931 . S
C515 C514 1.332 . S
C515 C516 1.267 . S
C516 H484 0.929 . S
C516 C515 1.267 . S
C516 C517 1.251 . S
C517 H487 0.929 . S
C517 N513 1.418 . S
C517 C516 1.251 . S
C518 H485 0.930 . S
C518 C520 1.406 . S
C518 C523 1.261 . S
C519 H486 0.930 . S
C519 N521 1.325 . S
C519 C522 1.357 . S
C520 H488 0.928 . S
C520 C518 1.406 . S
C520 N521 1.261 . S
N521 Co472 2.214 . S
N521 C519 1.325 . S
N521 C520 1.261 . S
C522 H492 0.931 . S
C522 C519 1.357 . S
C522 C523 1.312 . S
C523 H494 0.930 . S
C523 C518 1.261 . S
C523 C522 1.312 . S
C524 O496 1.214 . S
C524 O504 1.234 . S
C525 H497 0.929 . S
C525 C528 1.391 . S
C525 C530 1.391 . S
C526 H498 0.929 . S
C526 C527 1.390 . S
C526 N529 1.391 . S
C527 H499 0.930 . S
C527 C526 1.390 . S
C527 C528 1.392 . S
C528 H500 0.929 . S
C528 C525 1.391 . S
C528 C527 1.392 . S
N529 Co473 2.257 . S
N529 C526 1.391 . S
N529 C530 1.388 . S
C530 H501 0.930 . S
C530 C525 1.391 . S
C530 N529 1.388 . S
Co531 O533 2.143 . S
Co531 O539 2.074 . S
Co531 O542 2.093 . S
Co531 O555 2.097 . S
Co531 N572 2.151 . S
Co531 N580 2.214 . S
Co532 O533 2.160 . S
Co532 O538 2.058 . S
Co532 O548 2.057 1_556 S
Co532 O563 2.037 . S
Co532 N567 2.145 1_556 S
Co532 N588 2.257 . S
O533 Co531 2.143 . S
O533 Co532 2.160 . S
C534 O535 1.278 . S
C534 O542 1.224 . S
O535 C534 1.278 . S
C536 O537 1.245 1_554 S
C536 O548 1.232 . S
O537 C536 1.245 1_556 S
O538 Co532 2.058 . S
O538 C564 1.269 . S
O539 Co531 2.074 . S
O539 C564 1.257 . S
H540 C565 0.930 . S
H541 C571 0.930 . S
O542 Co531 2.093 . S
O542 C534 1.224 . S
H543 C575 0.929 . S
H544 C577 0.930 . S
H545 C578 0.930 . S
H546 C576 0.929 . S
H547 C579 0.928 . S
O548 Co532 2.057 1_554 S
O548 C536 1.232 . S
H549 C568 0.929 . S
H550 C569 0.929 . S
H551 C581 0.931 . S
H552 C573 0.929 . S
H553 C582 0.930 . S
H554 C574 0.931 . S
O555 Co531 2.097 . S
O555 C583 1.214 . S
H556 C584 0.929 . S
H557 C585 0.929 . S
H558 C586 0.930 . S
H559 C587 0.929 . S
H560 C589 0.930 . S
H561 C566 0.930 . S
H562 C570 0.930 . S
O563 Co532 2.037 . S
O563 C583 1.234 . S
C564 O538 1.269 . S
C564 O539 1.257 . S
C565 H540 0.930 . S
C565 C568 1.388 1_554 S
C565 C570 1.418 . S
C566 H561 0.930 . S
C566 C569 1.404 . S
C566 C570 1.353 . S
N567 Co532 2.145 1_554 S
N567 C568 1.397 1_554 S
N567 C569 1.334 . S
C568 H549 0.929 . S
C568 C565 1.388 1_556 S
C568 N567 1.397 1_556 S
C569 H550 0.929 . S
C569 C566 1.404 . S
C569 N567 1.334 . S
C570 H562 0.930 . S
C570 C565 1.418 . S
C570 C566 1.353 . S
C571 H541 0.930 . S
C571 N572 1.330 . S
C571 C573 1.446 . S
N572 Co531 2.151 . S
N572 C571 1.330 . S
N572 C576 1.418 . S
C573 H552 0.929 . S
C573 C571 1.446 . S
C573 C574 1.332 . S
C574 H554 0.931 . S
C574 C573 1.332 . S
C574 C575 1.267 . S
C575 H543 0.929 . S
C575 C574 1.267 . S
C575 C576 1.251 . S
C576 H546 0.929 . S
C576 N572 1.418 . S
C576 C575 1.251 . S
C577 H544 0.930 . S
C577 C579 1.406 . S
C577 C582 1.261 . S
C578 H545 0.930 . S
C578 N580 1.325 . S
C578 C581 1.357 . S
C579 H547 0.928 . S
C579 C577 1.406 . S
C579 N580 1.261 . S
N580 Co531 2.214 . S
N580 C578 1.325 . S
N580 C579 1.261 . S
C581 H551 0.931 . S
C581 C578 1.357 . S
C581 C582 1.312 . S
C582 H553 0.930 . S
C582 C577 1.261 . S
C582 C581 1.312 . S
C583 O555 1.214 . S
C583 O563 1.234 . S
C584 H556 0.929 . S
C584 C587 1.391 . S
C584 C589 1.391 . S
C585 H557 0.929 . S
C585 C586 1.390 . S
C585 N588 1.391 . S
C586 H558 0.930 . S
C586 C585 1.390 . S
C586 C587 1.392 . S
C587 H559 0.929 . S
C587 C584 1.391 . S
C587 C586 1.392 . S
N588 Co532 2.257 . S
N588 C585 1.391 . S
N588 C589 1.388 . S
C589 H560 0.930 . S
C589 C584 1.391 . S
C589 N588 1.388 . S
Co590 O592 2.143 . S
Co590 O598 2.074 . S
Co590 O601 2.093 . S
Co590 O614 2.097 . S
Co590 N631 2.151 . S
Co590 N639 2.214 . S
Co591 O592 2.160 . S
Co591 O597 2.058 . S
Co591 O607 2.057 1_556 S
Co591 O622 2.037 . S
Co591 N626 2.145 1_556 S
Co591 N647 2.257 . S
O592 Co590 2.143 . S
O592 Co591 2.160 . S
C593 O594 1.278 . S
C593 O601 1.224 . S
O594 C593 1.278 . S
C595 O596 1.245 1_554 S
C595 O607 1.232 . S
O596 C595 1.245 1_556 S
O597 Co591 2.058 . S
O597 C623 1.269 . S
O598 Co590 2.074 . S
O598 C623 1.257 . S
H599 C624 0.930 . S
H600 C630 0.930 . S
O601 Co590 2.093 . S
O601 C593 1.224 . S
H602 C634 0.929 . S
H603 C636 0.930 . S
H604 C637 0.930 . S
H605 C635 0.929 . S
H606 C638 0.928 . S
O607 Co591 2.057 1_554 S
O607 C595 1.232 . S
H608 C627 0.929 . S
H609 C628 0.929 . S
H610 C640 0.931 1_655 S
H611 C632 0.929 . S
H612 C641 0.930 . S
H613 C633 0.931 . S
O614 Co590 2.097 . S
O614 C642 1.214 . S
H615 C643 0.929 . S
H616 C644 0.929 . S
H617 C645 0.930 . S
H618 C646 0.929 . S
H619 C648 0.930 . S
H620 C625 0.930 . S
H621 C629 0.930 . S
O622 Co591 2.037 . S
O622 C642 1.234 . S
C623 O597 1.269 . S
C623 O598 1.257 . S
C624 H599 0.930 . S
C624 C627 1.388 1_554 S
C624 C629 1.418 . S
C625 H620 0.930 . S
C625 C628 1.404 . S
C625 C629 1.353 . S
N626 Co591 2.145 1_554 S
N626 C627 1.397 1_554 S
N626 C628 1.334 . S
C627 H608 0.929 . S
C627 C624 1.388 1_556 S
C627 N626 1.397 1_556 S
C628 H609 0.929 . S
C628 C625 1.404 . S
C628 N626 1.334 . S
C629 H621 0.930 . S
C629 C624 1.418 . S
C629 C625 1.353 . S
C630 H600 0.930 . S
C630 N631 1.330 . S
C630 C632 1.446 . S
N631 Co590 2.151 . S
N631 C630 1.330 . S
N631 C635 1.418 . S
C632 H611 0.929 . S
C632 C630 1.446 . S
C632 C633 1.332 . S
C633 H613 0.931 . S
C633 C632 1.332 . S
C633 C634 1.267 . S
C634 H602 0.929 . S
C634 C633 1.267 . S
C634 C635 1.251 . S
C635 H605 0.929 . S
C635 N631 1.418 . S
C635 C634 1.251 . S
C636 H603 0.930 . S
C636 C638 1.406 . S
C636 C641 1.261 . S
C637 H604 0.930 . S
C637 N639 1.325 . S
C637 C640 1.357 . S
C638 H606 0.928 . S
C638 C636 1.406 . S
C638 N639 1.261 . S
N639 Co590 2.214 . S
N639 C637 1.325 . S
N639 C638 1.261 . S
C640 H610 0.931 1_455 S
C640 C637 1.357 . S
C640 C641 1.312 . S
C641 H612 0.930 . S
C641 C636 1.261 . S
C641 C640 1.312 . S
C642 O614 1.214 . S
C642 O622 1.234 . S
C643 H615 0.929 . S
C643 C646 1.391 . S
C643 C648 1.391 . S
C644 H616 0.929 . S
C644 C645 1.390 . S
C644 N647 1.391 . S
C645 H617 0.930 . S
C645 C644 1.390 . S
C645 C646 1.392 . S
C646 H618 0.929 . S
C646 C643 1.391 . S
C646 C645 1.392 . S
N647 Co591 2.257 . S
N647 C644 1.391 . S
N647 C648 1.388 . S
C648 H619 0.930 . S
C648 C643 1.391 . S
C648 N647 1.388 . S
Co649 O651 2.143 . S
Co649 O657 2.074 . S
Co649 O660 2.093 . S
Co649 O673 2.097 1_455 S
Co649 N690 2.151 . S
Co649 N698 2.214 . S
Co650 O651 2.160 1_655 S
Co650 O656 2.050 1_655 S
Co650 O666 2.057 1_556 S
Co650 O681 2.037 . S
Co650 N685 2.145 1_556 S
Co650 N706 2.257 . S
O651 Co649 2.143 . S
O651 Co650 2.160 1_455 S
C652 O653 1.278 1_455 S
C652 O660 1.224 . S
O653 C652 1.278 1_655 S
C654 O655 1.260 1_554 S
C654 O666 1.206 1_455 S
O655 C654 1.260 1_556 S
O656 Co650 2.050 1_455 S
O656 C682 1.276 . S
O657 Co649 2.074 . S
O657 C682 1.257 . S
H658 C683 0.930 . S
H659 C689 0.930 . S
O660 Co649 2.093 . S
O660 C652 1.224 . S
H661 C693 0.929 . S
H662 C695 0.930 . S
H663 C696 0.930 . S
H664 C694 0.929 . S
H665 C697 0.928 . S
O666 Co650 2.057 1_554 S
O666 C654 1.206 1_655 S
H667 C686 0.929 1_556 S
H668 C687 0.929 . S
H669 C699 0.931 . S
H670 C691 0.929 . S
H671 C700 0.930 . S
H672 C692 0.931 . S
O673 Co649 2.097 1_655 S
O673 C701 1.214 . S
H674 C702 0.929 . S
H675 C703 0.929 . S
H676 C704 0.930 . S
H677 C705 0.929 . S
H678 C707 0.930 . S
H679 C684 0.930 . S
H680 C688 0.930 . S
O681 Co650 2.037 . S
O681 C701 1.234 . S
C682 O656 1.276 . S
C682 O657 1.257 . S
C683 H658 0.930 . S
C683 C686 1.388 . S
C683 C688 1.418 . S
C684 H679 0.930 . S
C684 C687 1.404 . S
C684 C688 1.353 . S
N685 Co650 2.145 1_554 S
N685 C686 1.397 . S
N685 C687 1.334 . S
C686 H667 0.929 1_554 S
C686 C683 1.388 . S
C686 N685 1.397 . S
C687 H668 0.929 . S
C687 C684 1.404 . S
C687 N685 1.334 . S
C688 H680 0.930 . S
C688 C683 1.418 . S
C688 C684 1.353 . S
C689 H659 0.930 . S
C689 N690 1.330 . S
C689 C691 1.446 . S
N690 Co649 2.151 . S
N690 C689 1.330 . S
N690 C694 1.418 . S
C691 H670 0.929 . S
C691 C689 1.446 . S
C691 C692 1.332 . S
C692 H672 0.931 . S
C692 C691 1.332 . S
C692 C693 1.267 . S
C693 H661 0.929 . S
C693 C692 1.267 . S
C693 C694 1.251 . S
C694 H664 0.929 . S
C694 N690 1.418 . S
C694 C693 1.251 . S
C695 H662 0.930 . S
C695 C697 1.406 . S
C695 C700 1.261 . S
C696 H663 0.930 . S
C696 N698 1.325 . S
C696 C699 1.357 . S
C697 H665 0.928 . S
C697 C695 1.406 . S
C697 N698 1.261 . S
N698 Co649 2.214 . S
N698 C696 1.325 . S
N698 C697 1.261 . S
C699 H669 0.931 . S
C699 C696 1.357 . S
C699 C700 1.312 . S
C700 H671 0.930 . S
C700 C695 1.261 . S
C700 C699 1.312 . S
C701 O673 1.214 . S
C701 O681 1.234 . S
C702 H674 0.929 . S
C702 C705 1.391 . S
C702 C707 1.391 . S
C703 H675 0.929 . S
C703 C704 1.390 . S
C703 N706 1.391 . S
C704 H676 0.930 . S
C704 C703 1.390 . S
C704 C705 1.392 . S
C705 H677 0.929 . S
C705 C702 1.391 . S
C705 C704 1.392 . S
N706 Co650 2.257 . S
N706 C703 1.391 . S
N706 C707 1.388 . S
C707 H678 0.930 . S
C707 C702 1.391 . S
C707 N706 1.388 . S
Co708 O710 2.143 . S
Co708 O716 2.074 . S
Co708 O719 2.093 . S
Co708 O732 2.097 1_565 S
Co708 N749 2.151 . S
Co708 N757 2.214 . S
Co709 O710 2.160 1_545 S
Co709 O715 2.050 1_545 S
Co709 O725 2.057 . S
Co709 O740 2.037 . S
Co709 N744 2.145 . S
Co709 N765 2.257 . S
O710 Co708 2.143 . S
O710 Co709 2.160 1_565 S
C711 O712 1.278 1_565 S
C711 O719 1.224 . S
O712 C711 1.278 1_545 S
C713 O714 1.270 . S
C713 O725 1.206 1_565 S
O714 C713 1.270 . S
O715 Co709 2.050 1_565 S
O715 C741 1.276 . S
O716 Co708 2.074 . S
O716 C741 1.257 . S
H717 C742 0.930 . S
H718 C748 0.930 . S
O719 Co708 2.093 . S
O719 C711 1.224 . S
H720 C752 0.929 . S
H721 C754 0.930 . S
H722 C755 0.930 . S
H723 C753 0.929 . S
H724 C756 0.928 . S
O725 Co709 2.057 . S
O725 C713 1.206 1_545 S
H726 C745 0.929 . S
H727 C746 0.929 . S
H728 C758 0.931 . S
H729 C750 0.929 . S
H730 C759 0.930 . S
H731 C751 0.931 . S
O732 Co708 2.097 1_545 S
O732 C760 1.214 . S
H733 C761 0.929 . S
H734 C762 0.929 . S
H735 C763 0.930 . S
H736 C764 0.929 . S
H737 C766 0.930 . S
H738 C743 0.930 . S
H739 C747 0.930 . S
O740 Co709 2.037 . S
O740 C760 1.234 . S
C741 O715 1.276 . S
C741 O716 1.257 . S
C742 H717 0.930 . S
C742 C745 1.388 . S
C742 C747 1.418 . S
C743 H738 0.930 . S
C743 C746 1.404 . S
C743 C747 1.353 . S
N744 Co709 2.145 . S
N744 C745 1.397 . S
N744 C746 1.334 . S
C745 H726 0.929 . S
C745 C742 1.388 . S
C745 N744 1.397 . S
C746 H727 0.929 . S
C746 C743 1.404 . S
C746 N744 1.334 . S
C747 H739 0.930 . S
C747 C742 1.418 . S
C747 C743 1.353 . S
C748 H718 0.930 . S
C748 N749 1.330 . S
C748 C750 1.446 . S
N749 Co708 2.151 . S
N749 C748 1.330 . S
N749 C753 1.418 . S
C750 H729 0.929 . S
C750 C748 1.446 . S
C750 C751 1.332 . S
C751 H731 0.931 . S
C751 C750 1.332 . S
C751 C752 1.267 . S
C752 H720 0.929 . S
C752 C751 1.267 . S
C752 C753 1.251 . S
C753 H723 0.929 . S
C753 N749 1.418 . S
C753 C752 1.251 . S
C754 H721 0.930 . S
C754 C756 1.406 . S
C754 C759 1.261 . S
C755 H722 0.930 . S
C755 N757 1.325 . S
C755 C758 1.357 . S
C756 H724 0.928 . S
C756 C754 1.406 . S
C756 N757 1.261 . S
N757 Co708 2.214 . S
N757 C755 1.325 . S
N757 C756 1.261 . S
C758 H728 0.931 . S
C758 C755 1.357 . S
C758 C759 1.312 . S
C759 H730 0.930 . S
C759 C754 1.261 . S
C759 C758 1.312 . S
C760 O732 1.214 . S
C760 O740 1.234 . S
C761 H733 0.929 . S
C761 C764 1.391 . S
C761 C766 1.391 . S
C762 H734 0.929 . S
C762 C763 1.390 . S
C762 N765 1.391 . S
C763 H735 0.930 . S
C763 C762 1.390 . S
C763 C764 1.392 . S
C764 H736 0.929 . S
C764 C761 1.391 . S
C764 C763 1.392 . S
N765 Co709 2.257 . S
N765 C762 1.391 . S
N765 C766 1.388 . S
C766 H737 0.930 . S
C766 C761 1.391 . S
C766 N765 1.388 . S
Co767 O769 2.143 . S
Co767 O775 2.074 . S
Co767 O778 2.093 . S
Co767 O791 2.097 . S
Co767 N808 2.151 . S
Co767 N816 2.214 . S
Co768 O769 2.160 . S
Co768 O774 2.058 . S
Co768 O784 2.057 . S
Co768 O799 2.037 . S
Co768 N803 2.145 . S
Co768 N824 2.257 . S
O769 Co767 2.143 . S
O769 Co768 2.160 . S
C770 O771 1.278 . S
C770 O778 1.224 . S
O771 C770 1.278 . S
C772 O773 1.245 . S
C772 O784 1.232 . S
O773 C772 1.245 . S
O774 Co768 2.058 . S
O774 C800 1.269 . S
O775 Co767 2.074 . S
O775 C800 1.257 . S
H776 C801 0.930 . S
H777 C807 0.930 . S
O778 Co767 2.093 . S
O778 C770 1.224 . S
H779 C811 0.929 . S
H780 C813 0.930 . S
H781 C814 0.930 . S
H782 C812 0.929 . S
H783 C815 0.928 . S
O784 Co768 2.057 . S
O784 C772 1.232 . S
H785 C804 0.929 . S
H786 C805 0.929 . S
H787 C817 0.931 1_545 S
H788 C809 0.929 . S
H789 C818 0.930 . S
H790 C810 0.931 . S
O791 Co767 2.097 . S
O791 C819 1.214 . S
H792 C820 0.929 . S
H793 C821 0.929 . S
H794 C822 0.930 . S
H795 C823 0.929 . S
H796 C825 0.930 . S
H797 C802 0.930 . S
H798 C806 0.930 . S
O799 Co768 2.037 . S
O799 C819 1.234 . S
C800 O774 1.269 . S
C800 O775 1.257 . S
C801 H776 0.930 . S
C801 C804 1.388 . S
C801 C806 1.418 . S
C802 H797 0.930 . S
C802 C805 1.404 . S
C802 C806 1.353 . S
N803 Co768 2.145 . S
N803 C804 1.397 . S
N803 C805 1.334 . S
C804 H785 0.929 . S
C804 C801 1.388 . S
C804 N803 1.397 . S
C805 H786 0.929 . S
C805 C802 1.404 . S
C805 N803 1.334 . S
C806 H798 0.930 . S
C806 C801 1.418 . S
C806 C802 1.353 . S
C807 H777 0.930 . S
C807 N808 1.330 . S
C807 C809 1.446 . S
N808 Co767 2.151 . S
N808 C807 1.330 . S
N808 C812 1.418 . S
C809 H788 0.929 . S
C809 C807 1.446 . S
C809 C810 1.332 . S
C810 H790 0.931 . S
C810 C809 1.332 . S
C810 C811 1.267 . S
C811 H779 0.929 . S
C811 C810 1.267 . S
C811 C812 1.251 . S
C812 H782 0.929 . S
C812 N808 1.418 . S
C812 C811 1.251 . S
C813 H780 0.930 . S
C813 C815 1.406 . S
C813 C818 1.261 . S
C814 H781 0.930 . S
C814 N816 1.325 . S
C814 C817 1.357 . S
C815 H783 0.928 . S
C815 C813 1.406 . S
C815 N816 1.261 . S
N816 Co767 2.214 . S
N816 C814 1.325 . S
N816 C815 1.261 . S
C817 H787 0.931 1_565 S
C817 C814 1.357 . S
C817 C818 1.312 . S
C818 H789 0.930 . S
C818 C813 1.261 . S
C818 C817 1.312 . S
C819 O791 1.214 . S
C819 O799 1.234 . S
C820 H792 0.929 . S
C820 C823 1.391 . S
C820 C825 1.391 . S
C821 H793 0.929 . S
C821 C822 1.390 . S
C821 N824 1.391 . S
C822 H794 0.930 . S
C822 C821 1.390 . S
C822 C823 1.392 . S
C823 H795 0.929 . S
C823 C820 1.391 . S
C823 C822 1.392 . S
N824 Co768 2.257 . S
N824 C821 1.391 . S
N824 C825 1.388 . S
C825 H796 0.930 . S
C825 C820 1.391 . S
C825 N824 1.388 . S
Co826 O828 2.143 . S
Co826 O834 2.074 . S
Co826 O837 2.093 . S
Co826 O850 2.097 . S
Co826 N867 2.151 . S
Co826 N875 2.214 . S
Co827 O828 2.160 . S
Co827 O833 2.058 . S
Co827 O843 2.057 . S
Co827 O858 2.037 . S
Co827 N862 2.145 . S
Co827 N883 2.257 . S
O828 Co826 2.143 . S
O828 Co827 2.160 . S
C829 O830 1.278 . S
C829 O837 1.224 . S
O830 C829 1.278 . S
C831 O832 1.245 . S
C831 O843 1.232 . S
O832 C831 1.245 . S
O833 Co827 2.058 . S
O833 C859 1.269 . S
O834 Co826 2.074 . S
O834 C859 1.257 . S
H835 C860 0.930 . S
H836 C866 0.930 . S
O837 Co826 2.093 . S
O837 C829 1.224 . S
H838 C870 0.929 . S
H839 C872 0.930 . S
H840 C873 0.930 . S
H841 C871 0.929 . S
H842 C874 0.928 . S
O843 Co827 2.057 . S
O843 C831 1.232 . S
H844 C863 0.929 . S
H845 C864 0.929 . S
H846 C876 0.931 . S
H847 C868 0.929 . S
H848 C877 0.930 . S
H849 C869 0.931 . S
O850 Co826 2.097 . S
O850 C878 1.214 . S
H851 C879 0.929 . S
H852 C880 0.929 . S
H853 C881 0.930 . S
H854 C882 0.929 . S
H855 C884 0.930 . S
H856 C861 0.930 . S
H857 C865 0.930 . S
O858 Co827 2.037 . S
O858 C878 1.234 . S
C859 O833 1.269 . S
C859 O834 1.257 . S
C860 H835 0.930 . S
C860 C863 1.388 . S
C860 C865 1.418 . S
C861 H856 0.930 . S
C861 C864 1.404 . S
C861 C865 1.353 . S
N862 Co827 2.145 . S
N862 C863 1.397 . S
N862 C864 1.334 . S
C863 H844 0.929 . S
C863 C860 1.388 . S
C863 N862 1.397 . S
C864 H845 0.929 . S
C864 C861 1.404 . S
C864 N862 1.334 . S
C865 H857 0.930 . S
C865 C860 1.418 . S
C865 C861 1.353 . S
C866 H836 0.930 . S
C866 N867 1.330 . S
C866 C868 1.446 . S
N867 Co826 2.151 . S
N867 C866 1.330 . S
N867 C871 1.418 . S
C868 H847 0.929 . S
C868 C866 1.446 . S
C868 C869 1.332 . S
C869 H849 0.931 . S
C869 C868 1.332 . S
C869 C870 1.267 . S
C870 H838 0.929 . S
C870 C869 1.267 . S
C870 C871 1.251 . S
C871 H841 0.929 . S
C871 N867 1.418 . S
C871 C870 1.251 . S
C872 H839 0.930 . S
C872 C874 1.406 . S
C872 C877 1.261 . S
C873 H840 0.930 . S
C873 N875 1.325 . S
C873 C876 1.357 . S
C874 H842 0.928 . S
C874 C872 1.406 . S
C874 N875 1.261 . S
N875 Co826 2.214 . S
N875 C873 1.325 . S
N875 C874 1.261 . S
C876 H846 0.931 . S
C876 C873 1.357 . S
C876 C877 1.312 . S
C877 H848 0.930 . S
C877 C872 1.261 . S
C877 C876 1.312 . S
C878 O850 1.214 . S
C878 O858 1.234 . S
C879 H851 0.929 . S
C879 C882 1.391 . S
C879 C884 1.391 . S
C880 H852 0.929 . S
C880 C881 1.390 . S
C880 N883 1.391 . S
C881 H853 0.930 . S
C881 C880 1.390 . S
C881 C882 1.392 . S
C882 H854 0.929 . S
C882 C879 1.391 . S
C882 C881 1.392 . S
N883 Co827 2.257 . S
N883 C880 1.391 . S
N883 C884 1.388 . S
C884 H855 0.930 . S
C884 C879 1.391 . S
C884 N883 1.388 . S
Co885 O887 2.143 . S
Co885 O893 2.074 . S
Co885 O896 2.093 . S
Co885 O909 2.097 1_655 S
Co885 N926 2.151 . S
Co885 N934 2.214 . S
Co886 O887 2.160 1_455 S
Co886 O892 2.058 1_455 S
Co886 O902 2.057 . S
Co886 O917 2.037 . S
Co886 N921 2.145 . S
Co886 N942 2.257 . S
O887 Co885 2.143 . S
O887 Co886 2.160 1_655 S
C888 O889 1.278 1_655 S
C888 O896 1.224 . S
O889 C888 1.278 1_455 S
C890 O891 1.220 1_455 S
C890 O902 1.255 . S
O891 C890 1.220 1_655 S
O892 Co886 2.058 1_655 S
O892 C918 1.269 . S
O893 Co885 2.074 . S
O893 C918 1.257 . S
H894 C919 0.930 . S
H895 C925 0.930 . S
O896 Co885 2.093 . S
O896 C888 1.224 . S
H897 C929 0.929 . S
H898 C931 0.930 . S
H899 C932 0.930 . S
H900 C930 0.929 . S
H901 C933 0.928 . S
O902 Co886 2.057 . S
O902 C890 1.255 . S
H903 C922 0.929 . S
H904 C923 0.929 . S
H905 C935 0.931 . S
H906 C927 0.929 . S
H907 C936 0.930 . S
H908 C928 0.931 . S
O909 Co885 2.097 1_455 S
O909 C937 1.214 . S
H910 C938 0.929 . S
H911 C939 0.929 . S
H912 C940 0.930 . S
H913 C941 0.929 . S
H914 C943 0.930 . S
H915 C920 0.930 . S
H916 C924 0.930 . S
O917 Co886 2.037 . S
O917 C937 1.234 . S
C918 O892 1.269 . S
C918 O893 1.257 . S
C919 H894 0.930 . S
C919 C922 1.388 . S
C919 C924 1.418 . S
C920 H915 0.930 . S
C920 C923 1.404 . S
C920 C924 1.353 . S
N921 Co886 2.145 . S
N921 C922 1.397 . S
N921 C923 1.334 . S
C922 H903 0.929 . S
C922 C919 1.388 . S
C922 N921 1.397 . S
C923 H904 0.929 . S
C923 C920 1.404 . S
C923 N921 1.334 . S
C924 H916 0.930 . S
C924 C919 1.418 . S
C924 C920 1.353 . S
C925 H895 0.930 . S
C925 N926 1.330 . S
C925 C927 1.446 . S
N926 Co885 2.151 . S
N926 C925 1.330 . S
N926 C930 1.418 . S
C927 H906 0.929 . S
C927 C925 1.446 . S
C927 C928 1.332 . S
C928 H908 0.931 . S
C928 C927 1.332 . S
C928 C929 1.267 . S
C929 H897 0.929 . S
C929 C928 1.267 . S
C929 C930 1.251 . S
C930 H900 0.929 . S
C930 N926 1.418 . S
C930 C929 1.251 . S
C931 H898 0.930 . S
C931 C933 1.406 . S
C931 C936 1.261 . S
C932 H899 0.930 . S
C932 N934 1.325 . S
C932 C935 1.357 . S
C933 H901 0.928 . S
C933 C931 1.406 . S
C933 N934 1.261 . S
N934 Co885 2.214 . S
N934 C932 1.325 . S
N934 C933 1.261 . S
C935 H905 0.931 . S
C935 C932 1.357 . S
C935 C936 1.312 . S
C936 H907 0.930 . S
C936 C931 1.261 . S
C936 C935 1.312 . S
C937 O909 1.214 . S
C937 O917 1.234 . S
C938 H910 0.929 . S
C938 C941 1.391 . S
C938 C943 1.391 . S
C939 H911 0.929 . S
C939 C940 1.390 . S
C939 N942 1.391 . S
C940 H912 0.930 . S
C940 C939 1.390 . S
C940 C941 1.392 . S
C941 H913 0.929 . S
C941 C938 1.391 . S
C941 C940 1.392 . S
N942 Co886 2.257 . S
N942 C939 1.391 . S
N942 C943 1.388 . S
C943 H914 0.930 . S
C943 C938 1.391 . S
C943 N942 1.388 . S
C944 C945 1.369 . S
C944 C946 1.419 . S
C944 H948 0.930 . S
C945 C944 1.369 . S
C945 C954 1.429 . S
C946 C944 1.419 . S
C946 C947 1.363 . S
C946 H949 0.929 . S
C947 C946 1.363 . S
C947 C953 1.428 . S
H948 C944 0.930 . S
H949 C946 0.929 . S
S950 N951 1.613 . S
S950 N952 1.610 . S
N951 S950 1.613 . S
N951 C954 1.350 . S
N952 S950 1.610 . S
N952 C953 1.351 . S
C953 C947 1.428 . S
C953 N952 1.351 . S
C953 C954 1.434 . S
C954 C945 1.429 . S
C954 N951 1.350 . S
C954 C953 1.434 . S
C955 C956 1.369 . S
C955 C957 1.419 . S
C955 H959 0.930 . S
C956 C955 1.369 . S
C956 C965 1.429 . S
C957 C955 1.419 . S
C957 C958 1.363 . S
C957 H960 0.929 . S
C958 C957 1.363 . S
C958 C964 1.428 . S
H959 C955 0.930 . S
H960 C957 0.929 . S
S961 N962 1.613 . S
S961 N963 1.610 . S
N962 S961 1.613 . S
N962 C965 1.350 . S
N963 S961 1.610 . S
N963 C964 1.351 . S
C964 C958 1.428 . S
C964 N963 1.351 . S
C964 C965 1.434 . S
C965 C956 1.429 . S
C965 N962 1.350 . S
C965 C964 1.434 . S
C966 C967 1.369 . S
C966 C968 1.419 . S
C966 H970 0.930 . S
C967 C966 1.369 . S
C967 C976 1.429 . S
C968 C966 1.419 . S
C968 C969 1.363 . S
C968 H971 0.929 . S
C969 C968 1.363 . S
C969 C975 1.428 . S
H970 C966 0.930 . S
H971 C968 0.929 . S
S972 N973 1.613 . S
S972 N974 1.610 . S
N973 S972 1.613 . S
N973 C976 1.350 . S
N974 S972 1.610 . S
N974 C975 1.351 . S
C975 C969 1.428 . S
C975 N974 1.351 . S
C975 C976 1.434 . S
C976 C967 1.429 . S
C976 N973 1.350 . S
C976 C975 1.434 . S
C977 C978 1.369 . S
C977 C979 1.419 . S
C977 H981 0.930 . S
C978 C977 1.369 . S
C978 C987 1.429 . S
C979 C977 1.419 . S
C979 C980 1.363 . S
C979 H982 0.929 . S
C980 C979 1.363 . S
C980 C986 1.428 . S
H981 C977 0.930 . S
H982 C979 0.929 . S
S983 N984 1.613 . S
S983 N985 1.610 . S
N984 S983 1.613 . S
N984 C987 1.350 . S
N985 S983 1.610 . S
N985 C986 1.351 . S
C986 C980 1.428 . S
C986 N985 1.351 . S
C986 C987 1.434 . S
C987 C978 1.429 . S
C987 N984 1.350 . S
C987 C986 1.434 . S
C988 C989 1.369 . S
C988 C990 1.419 . S
C988 H992 0.930 . S
C989 C988 1.369 . S
C989 C998 1.429 . S
C990 C988 1.419 . S
C990 C991 1.363 . S
C990 H993 0.929 . S
C991 C990 1.363 . S
C991 C997 1.428 . S
H992 C988 0.930 . S
H993 C990 0.929 . S
S994 N995 1.613 . S
S994 N996 1.610 . S
N995 S994 1.613 . S
N995 C998 1.350 . S
N996 S994 1.610 . S
N996 C997 1.351 . S
C997 C991 1.428 . S
C997 N996 1.351 . S
C997 C998 1.434 . S
C998 C989 1.429 . S
C998 N995 1.350 . S
C998 C997 1.434 . S
C999 C1000 1.369 . S
C999 C1001 1.419 . S
C999 H1003 0.930 . S
C1000 C999 1.369 . S
C1000 C1009 1.429 . S
C1001 C999 1.419 . S
C1001 C1002 1.363 . S
C1001 H1004 0.929 . S
C1002 C1001 1.363 . S
C1002 C1008 1.428 . S
H1003 C999 0.930 . S
H1004 C1001 0.929 . S
S1005 N1006 1.613 . S
S1005 N1007 1.610 . S
N1006 S1005 1.613 . S
N1006 C1009 1.350 . S
N1007 S1005 1.610 . S
N1007 C1008 1.351 . S
C1008 C1002 1.428 . S
C1008 N1007 1.351 . S
C1008 C1009 1.434 . S
C1009 C1000 1.429 . S
C1009 N1006 1.350 . S
C1009 C1008 1.434 . S
C1010 C1011 1.369 . S
C1010 C1012 1.419 . S
C1010 H1014 0.930 . S
C1011 C1010 1.369 . S
C1011 C1020 1.429 . S
C1012 C1010 1.419 . S
C1012 C1013 1.363 . S
C1012 H1015 0.929 . S
C1013 C1012 1.363 . S
C1013 C1019 1.428 . S
H1014 C1010 0.930 . S
H1015 C1012 0.929 . S
S1016 N1017 1.613 . S
S1016 N1018 1.610 . S
N1017 S1016 1.613 . S
N1017 C1020 1.350 . S
N1018 S1016 1.610 . S
N1018 C1019 1.351 . S
C1019 C1013 1.428 . S
C1019 N1018 1.351 . S
C1019 C1020 1.434 . S
C1020 C1011 1.429 . S
C1020 N1017 1.350 . S
C1020 C1019 1.434 . S
C1021 C1022 1.369 . S
C1021 C1023 1.419 . S
C1021 H1025 0.930 . S
C1022 C1021 1.369 . S
C1022 C1031 1.429 . S
C1023 C1021 1.419 . S
C1023 C1024 1.363 . S
C1023 H1026 0.929 . S
C1024 C1023 1.363 . S
C1024 C1030 1.428 . S
H1025 C1021 0.930 . S
H1026 C1023 0.929 . S
S1027 N1028 1.613 1_565 S
S1027 N1029 1.607 1_565 S
N1028 S1027 1.613 1_545 S
N1028 C1031 1.350 . S
N1029 S1027 1.607 1_545 S
N1029 C1030 1.368 . S
C1030 C1024 1.428 . S
C1030 N1029 1.368 . S
C1030 C1031 1.434 . S
C1031 C1022 1.429 . S
C1031 N1028 1.350 . S
C1031 C1030 1.434 . S
C1032 C1033 1.369 1_545 S
C1032 C1034 1.419 1_545 S
C1032 H1036 0.930 . S
C1033 C1032 1.369 1_565 S
C1033 C1042 1.429 . S
C1034 C1032 1.419 1_565 S
C1034 C1035 1.363 . S
C1034 H1037 0.929 . S
C1035 C1034 1.363 . S
C1035 C1041 1.428 . S
H1036 C1032 0.930 . S
H1037 C1034 0.929 . S
S1038 N1039 1.613 . S
S1038 N1040 1.610 . S
N1039 S1038 1.613 . S
N1039 C1042 1.350 . S
N1040 S1038 1.610 . S
N1040 C1041 1.351 . S
C1041 C1035 1.428 . S
C1041 N1040 1.351 . S
C1041 C1042 1.434 . S
C1042 C1033 1.429 . S
C1042 N1039 1.350 . S
C1042 C1041 1.434 . S
C1043 C1044 1.369 . S
C1043 C1045 1.419 . S
C1043 H1047 0.930 . S
C1044 C1043 1.369 . S
C1044 C1053 1.429 . S
C1045 C1043 1.419 . S
C1045 C1046 1.363 . S
C1045 H1048 0.929 . S
C1046 C1045 1.363 . S
C1046 C1052 1.428 . S
H1047 C1043 0.930 . S
H1048 C1045 0.929 . S
S1049 N1050 1.613 . S
S1049 N1051 1.610 . S
N1050 S1049 1.613 . S
N1050 C1053 1.350 . S
N1051 S1049 1.610 . S
N1051 C1052 1.351 . S
C1052 C1046 1.428 . S
C1052 N1051 1.351 . S
C1052 C1053 1.434 . S
C1053 C1044 1.429 . S
C1053 N1050 1.350 . S
C1053 C1052 1.434 . S
C1054 C1055 1.369 . S
C1054 C1056 1.419 . S
C1054 H1058 0.930 . S
C1055 C1054 1.369 . S
C1055 C1064 1.429 . S
C1056 C1054 1.419 . S
C1056 C1057 1.363 . S
C1056 H1059 0.929 . S
C1057 C1056 1.363 . S
C1057 C1063 1.428 . S
H1058 C1054 0.930 . S
H1059 C1056 0.929 . S
S1060 N1061 1.613 . S
S1060 N1062 1.610 . S
N1061 S1060 1.613 . S
N1061 C1064 1.350 . S
N1062 S1060 1.610 . S
N1062 C1063 1.351 . S
C1063 C1057 1.428 . S
C1063 N1062 1.351 . S
C1063 C1064 1.434 . S
C1064 C1055 1.429 . S
C1064 N1061 1.350 . S
C1064 C1063 1.434 . S
C1065 C1066 1.369 1_455 S
C1065 C1067 1.419 . S
C1065 H1069 0.930 . S
C1066 C1065 1.369 1_655 S
C1066 C1075 1.429 . S
C1067 C1065 1.419 . S
C1067 C1068 1.363 1_455 S
C1067 H1070 0.929 . S
C1068 C1067 1.363 1_655 S
C1068 C1074 1.428 . S
H1069 C1065 0.930 . S
H1070 C1067 0.929 . S
S1071 N1072 1.613 . S
S1071 N1073 1.610 . S
N1072 S1071 1.613 . S
N1072 C1075 1.350 . S
N1073 S1071 1.610 . S
N1073 C1074 1.351 . S
C1074 C1068 1.428 . S
C1074 N1073 1.351 . S
C1074 C1075 1.434 . S
C1075 C1066 1.429 . S
C1075 N1072 1.350 . S
C1075 C1074 1.434 . S
C1076 C1077 1.369 . S
C1076 C1078 1.419 . S
C1076 H1080 0.930 . S
C1077 C1076 1.369 . S
C1077 C1086 1.429 . S
C1078 C1076 1.419 . S
C1078 C1079 1.363 . S
C1078 H1081 0.929 . S
C1079 C1078 1.363 . S
C1079 C1085 1.428 . S
H1080 C1076 0.930 . S
H1081 C1078 0.929 . S
S1082 N1083 1.613 . S
S1082 N1084 1.610 . S
N1083 S1082 1.613 . S
N1083 C1086 1.350 . S
N1084 S1082 1.610 . S
N1084 C1085 1.351 . S
C1085 C1079 1.428 . S
C1085 N1084 1.351 . S
C1085 C1086 1.434 . S
C1086 C1077 1.429 . S
C1086 N1083 1.350 . S
C1086 C1085 1.434 . S
C1087 C1088 1.369 . S
C1087 C1089 1.419 . S
C1087 H1091 0.930 . S
C1088 C1087 1.369 . S
C1088 C1097 1.429 . S
C1089 C1087 1.419 . S
C1089 C1090 1.363 . S
C1089 H1092 0.929 . S
C1090 C1089 1.363 . S
C1090 C1096 1.428 . S
H1091 C1087 0.930 . S
H1092 C1089 0.929 . S
S1093 N1094 1.613 . S
S1093 N1095 1.610 . S
N1094 S1093 1.613 . S
N1094 C1097 1.350 . S
N1095 S1093 1.610 . S
N1095 C1096 1.351 . S
C1096 C1090 1.428 . S
C1096 N1095 1.351 . S
C1096 C1097 1.434 . S
C1097 C1088 1.429 . S
C1097 N1094 1.350 . S
C1097 C1096 1.434 . S
C1098 C1099 1.369 . S
C1098 C1100 1.419 . S
C1098 H1102 0.930 . S
C1099 C1098 1.369 . S
C1099 C1108 1.429 . S
C1100 C1098 1.419 . S
C1100 C1101 1.363 . S
C1100 H1103 0.929 . S
C1101 C1100 1.363 . S
C1101 C1107 1.428 . S
H1102 C1098 0.930 . S
H1103 C1100 0.929 . S
S1104 N1105 1.613 . S
S1104 N1106 1.610 . S
N1105 S1104 1.613 . S
N1105 C1108 1.350 . S
N1106 S1104 1.610 . S
N1106 C1107 1.351 . S
C1107 C1101 1.428 . S
C1107 N1106 1.351 . S
C1107 C1108 1.434 . S
C1108 C1099 1.429 . S
C1108 N1105 1.350 . S
C1108 C1107 1.434 . S
C1109 C1110 1.369 1_655 S
C1109 C1111 1.419 . S
C1109 H1113 0.930 . S
C1110 C1109 1.369 1_455 S
C1110 C1119 1.429 . S
C1111 C1109 1.419 . S
C1111 C1112 1.363 1_655 S
C1111 H1114 0.929 . S
C1112 C1111 1.363 1_455 S
C1112 C1118 1.428 . S
H1113 C1109 0.930 . S
H1114 C1111 0.929 . S
S1115 N1116 1.613 . S
S1115 N1117 1.610 . S
N1116 S1115 1.613 . S
N1116 C1119 1.350 . S
N1117 S1115 1.610 . S
N1117 C1118 1.351 . S
C1118 C1112 1.428 . S
C1118 N1117 1.351 . S
C1118 C1119 1.434 . S
C1119 C1110 1.429 . S
C1119 N1116 1.350 . S
C1119 C1118 1.434 . S
C1120 C1121 1.369 . S
C1120 C1122 1.419 1_545 S
C1120 H1124 0.930 . S
C1121 C1120 1.369 . S
C1121 C1130 1.429 . S
C1122 C1120 1.419 1_565 S
C1122 C1123 1.363 1_565 S
C1122 H1125 0.929 . S
C1123 C1122 1.363 1_545 S
C1123 C1129 1.428 . S
H1124 C1120 0.930 . S
H1125 C1122 0.929 . S
S1126 N1127 1.613 . S
S1126 N1128 1.610 . S
N1127 S1126 1.613 . S
N1127 C1130 1.350 . S
N1128 S1126 1.610 . S
N1128 C1129 1.351 . S
C1129 C1123 1.428 . S
C1129 N1128 1.351 . S
C1129 C1130 1.434 . S
C1130 C1121 1.429 . S
C1130 N1127 1.350 . S
C1130 C1129 1.434 . S
C1131 C1132 1.369 . S
C1131 C1133 1.419 . S
C1131 H1135 0.930 . S
C1132 C1131 1.369 . S
C1132 C1141 1.429 . S
C1133 C1131 1.419 . S
C1133 C1134 1.363 . S
C1133 H1136 0.929 . S
C1134 C1133 1.363 . S
C1134 C1140 1.428 . S
H1135 C1131 0.930 . S
H1136 C1133 0.929 . S
S1137 N1138 1.613 . S
S1137 N1139 1.610 . S
N1138 S1137 1.613 . S
N1138 C1141 1.350 . S
N1139 S1137 1.610 . S
N1139 C1140 1.351 . S
C1140 C1134 1.428 . S
C1140 N1139 1.351 . S
C1140 C1141 1.434 . S
C1141 C1132 1.429 . S
C1141 N1138 1.350 . S
C1141 C1140 1.434 . S
C1142 C1143 1.369 . S
C1142 C1144 1.419 . S
C1142 H1146 0.930 . S
C1143 C1142 1.369 . S
C1143 C1152 1.429 . S
C1144 C1142 1.419 . S
C1144 C1145 1.363 . S
C1144 H1147 0.929 . S
C1145 C1144 1.363 . S
C1145 C1151 1.428 . S
H1146 C1142 0.930 . S
H1147 C1144 0.929 . S
S1148 N1149 1.613 . S
S1148 N1150 1.610 . S
N1149 S1148 1.613 . S
N1149 C1152 1.350 . S
N1150 S1148 1.610 . S
N1150 C1151 1.351 . S
C1151 C1145 1.428 . S
C1151 N1150 1.351 . S
C1151 C1152 1.434 . S
C1152 C1143 1.429 . S
C1152 N1149 1.350 . S
C1152 C1151 1.434 . S
C1153 C1154 1.369 1_655 S
C1153 C1155 1.411 1_655 S
C1153 H1157 0.930 . S
C1154 C1153 1.369 1_455 S
C1154 C1163 1.429 . S
C1155 C1153 1.411 1_455 S
C1155 C1156 1.384 . S
C1155 H1158 0.917 1_455 S
C1156 C1155 1.384 . S
C1156 C1162 1.428 . S
H1157 C1153 0.930 . S
H1158 C1155 0.917 1_655 S
S1159 N1160 1.613 . S
S1159 N1161 1.610 . S
N1160 S1159 1.613 . S
N1160 C1163 1.350 . S
N1161 S1159 1.610 . S
N1161 C1162 1.351 . S
C1162 C1156 1.428 . S
C1162 N1161 1.351 . S
C1162 C1163 1.434 . S
C1163 C1154 1.429 . S
C1163 N1160 1.350 . S
C1163 C1162 1.434 . S
C1164 C1165 1.369 1_545 S
C1164 C1166 1.419 . S
C1164 H1168 0.930 . S
C1165 C1164 1.369 1_565 S
C1165 C1174 1.429 . S
C1166 C1164 1.419 . S
C1166 C1167 1.363 1_545 S
C1166 H1169 0.929 . S
C1167 C1166 1.363 1_565 S
C1167 C1173 1.428 . S
H1168 C1164 0.930 . S
H1169 C1166 0.929 . S
S1170 N1171 1.613 . S
S1170 N1172 1.610 . S
N1171 S1170 1.613 . S
N1171 C1174 1.350 . S
N1172 S1170 1.610 . S
N1172 C1173 1.351 . S
C1173 C1167 1.428 . S
C1173 N1172 1.351 . S
C1173 C1174 1.434 . S
C1174 C1165 1.429 . S
C1174 N1171 1.350 . S
C1174 C1173 1.434 . S
C1175 C1176 1.369 . S
C1175 C1177 1.419 . S
C1175 H1179 0.930 . S
C1176 C1175 1.369 . S
C1176 C1185 1.429 . S
C1177 C1175 1.419 . S
C1177 C1178 1.363 . S
C1177 H1180 0.929 . S
C1178 C1177 1.363 . S
C1178 C1184 1.428 . S
H1179 C1175 0.930 . S
H1180 C1177 0.929 . S
S1181 N1182 1.613 . S
S1181 N1183 1.610 . S
N1182 S1181 1.613 . S
N1182 C1185 1.350 . S
N1183 S1181 1.610 . S
N1183 C1184 1.351 . S
C1184 C1178 1.428 . S
C1184 N1183 1.351 . S
C1184 C1185 1.434 . S
C1185 C1176 1.429 . S
C1185 N1182 1.350 . S
C1185 C1184 1.434 . S
C1186 C1187 1.369 . S
C1186 C1188 1.419 . S
C1186 H1190 0.930 . S
C1187 C1186 1.369 . S
C1187 C1196 1.429 . S
C1188 C1186 1.419 . S
C1188 C1189 1.363 . S
C1188 H1191 0.929 . S
C1189 C1188 1.363 . S
C1189 C1195 1.428 . S
H1190 C1186 0.930 . S
H1191 C1188 0.929 . S
S1192 N1193 1.613 . S
S1192 N1194 1.610 . S
N1193 S1192 1.613 . S
N1193 C1196 1.350 . S
N1194 S1192 1.610 . S
N1194 C1195 1.351 . S
C1195 C1189 1.428 . S
C1195 N1194 1.351 . S
C1195 C1196 1.434 . S
C1196 C1187 1.429 . S
C1196 N1193 1.350 . S
C1196 C1195 1.434 . S
C1197 C1198 1.369 . S
C1197 C1199 1.419 . S
C1197 H1201 0.930 . S
C1198 C1197 1.369 . S
C1198 C1207 1.426 1_655 S
C1199 C1197 1.419 . S
C1199 C1200 1.363 . S
C1199 H1202 0.929 . S
C1200 C1199 1.363 . S
C1200 C1206 1.428 1_655 S
H1201 C1197 0.930 . S
H1202 C1199 0.929 . S
S1203 N1204 1.613 . S
S1203 N1205 1.610 . S
N1204 S1203 1.613 . S
N1204 C1207 1.352 . S
N1205 S1203 1.610 . S
N1205 C1206 1.351 . S
C1206 C1200 1.428 1_455 S
C1206 N1205 1.351 . S
C1206 C1207 1.435 . S
C1207 C1198 1.426 1_455 S
C1207 N1204 1.352 . S
C1207 C1206 1.435 . S
C1208 C1209 1.369 1_554 S
C1208 C1210 1.419 . S
C1208 H1212 0.930 . S
C1209 C1208 1.369 1_556 S
C1209 C1218 1.429 1_545 S
C1210 C1208 1.419 . S
C1210 C1211 1.363 1_545 S
C1210 H1213 0.929 . S
C1211 C1210 1.363 1_565 S
C1211 C1217 1.428 1_554 S
H1212 C1208 0.930 . S
H1213 C1210 0.929 . S
S1214 N1215 1.613 . S
S1214 N1216 1.610 . S
N1215 S1214 1.613 . S
N1215 C1218 1.350 . S
N1216 S1214 1.610 . S
N1216 C1217 1.351 . S
C1217 C1211 1.428 1_556 S
C1217 N1216 1.351 . S
C1217 C1218 1.434 . S
C1218 C1209 1.429 1_565 S
C1218 N1215 1.350 . S
C1218 C1217 1.434 . S
C1219 C1220 1.369 . S
C1219 C1221 1.419 . S
C1219 H1223 0.930 . S
C1220 C1219 1.369 . S
C1220 C1229 1.429 1_556 S
C1221 C1219 1.419 . S
C1221 C1222 1.363 1_556 S
C1221 H1224 0.929 . S
C1222 C1221 1.363 1_554 S
C1222 C1228 1.428 . S
H1223 C1219 0.930 . S
H1224 C1221 0.929 . S
S1225 N1226 1.613 . S
S1225 N1227 1.610 . S
N1226 S1225 1.613 . S
N1226 C1229 1.350 . S
N1227 S1225 1.610 . S
N1227 C1228 1.351 . S
C1228 C1222 1.428 . S
C1228 N1227 1.351 . S
C1228 C1229 1.434 . S
C1229 C1220 1.429 1_554 S
C1229 N1226 1.350 . S
C1229 C1228 1.434 . S
C1230 C1231 1.369 1_556 S
C1230 C1232 1.419 . S
C1230 H1234 0.930 . S
C1231 C1230 1.369 1_554 S
C1231 C1240 1.429 1_655 S
C1232 C1230 1.419 . S
C1232 C1233 1.363 1_655 S
C1232 H1235 0.929 . S
C1233 C1232 1.363 1_455 S
C1233 C1239 1.428 1_556 S
H1234 C1230 0.930 . S
H1235 C1232 0.929 . S
S1236 N1237 1.613 . S
S1236 N1238 1.610 . S
N1237 S1236 1.613 . S
N1237 C1240 1.350 . S
N1238 S1236 1.610 . S
N1238 C1239 1.351 . S
C1239 C1233 1.428 1_554 S
C1239 N1238 1.351 . S
C1239 C1240 1.434 . S
C1240 C1231 1.429 1_455 S
C1240 N1237 1.350 . S
C1240 C1239 1.434 . S
C1241 C1242 1.369 1_654 S
C1241 C1243 1.419 1_545 S
C1241 H1245 0.930 . S
C1242 C1241 1.369 1_456 S
C1242 C1251 1.429 . S
C1243 C1241 1.419 1_565 S
C1243 C1244 1.363 . S
C1243 H1246 0.929 . S
C1244 C1243 1.363 . S
C1244 C1250 1.428 1_654 S
H1245 C1241 0.930 . S
H1246 C1243 0.929 . S
S1247 N1248 1.613 . S
S1247 N1249 1.610 . S
N1248 S1247 1.613 . S
N1248 C1251 1.350 1_565 S
N1249 S1247 1.610 . S
N1249 C1250 1.351 . S
C1250 C1244 1.428 1_456 S
C1250 N1249 1.351 . S
C1250 C1251 1.434 1_565 S
C1251 C1242 1.429 . S
C1251 N1248 1.350 1_545 S
C1251 C1250 1.434 1_545 S
C1252 C1253 1.369 . S
C1252 C1254 1.419 1_445 S
C1252 H1256 0.930 . S
C1253 C1252 1.369 . S
C1253 C1262 1.429 . S
C1254 C1252 1.419 1_665 S
C1254 C1255 1.363 . S
C1254 H1257 0.929 . S
C1255 C1254 1.363 . S
C1255 C1261 1.428 . S
H1256 C1252 0.930 . S
H1257 C1254 0.929 . S
S1258 N1259 1.613 1_565 S
S1258 N1260 1.610 1_455 S
N1259 S1258 1.613 1_545 S
N1259 C1262 1.350 . S
N1260 S1258 1.610 1_655 S
N1260 C1261 1.351 . S
C1261 C1255 1.428 . S
C1261 N1260 1.351 . S
C1261 C1262 1.434 1_665 S
C1262 C1253 1.429 . S
C1262 N1259 1.350 . S
C1262 C1261 1.434 1_445 S
C1263 C1264 1.369 . S
C1263 C1265 1.419 1_565 S
C1263 H1267 0.930 . S
C1264 C1263 1.369 . S
C1264 C1273 1.429 . S
C1265 C1263 1.419 1_545 S
C1265 C1266 1.363 . S
C1265 H1268 0.929 . S
C1266 C1265 1.363 . S
C1266 C1272 1.428 . S
H1267 C1263 0.930 . S
H1268 C1265 0.929 . S
S1269 N1270 1.613 1_545 S
S1269 N1271 1.610 . S
N1270 S1269 1.613 1_565 S
N1270 C1273 1.350 . S
N1271 S1269 1.610 . S
N1271 C1272 1.351 . S
C1272 C1266 1.428 . S
C1272 N1271 1.351 . S
C1272 C1273 1.434 1_545 S
C1273 C1264 1.429 . S
C1273 N1270 1.350 . S
C1273 C1272 1.434 1_565 S
C1274 C1275 1.369 . S
C1274 C1276 1.419 . S
C1274 H1278 0.930 . S
C1275 C1274 1.369 . S
C1275 C1284 1.429 . S
C1276 C1274 1.419 . S
C1276 C1277 1.363 . S
C1276 H1279 0.929 . S
C1277 C1276 1.363 . S
C1277 C1283 1.428 . S
H1278 C1274 0.930 . S
H1279 C1276 0.929 . S
S1280 N1281 1.613 . S
S1280 N1282 1.610 . S
N1281 S1280 1.613 . S
N1281 C1284 1.350 . S
N1282 S1280 1.610 . S
N1282 C1283 1.351 . S
C1283 C1277 1.428 . S
C1283 N1282 1.351 . S
C1283 C1284 1.434 . S
C1284 C1275 1.429 . S
C1284 N1281 1.350 . S
C1284 C1283 1.434 . S
C1285 C1286 1.369 . S
C1285 C1287 1.419 1_655 S
C1285 H1289 0.930 . S
C1286 C1285 1.369 . S
C1286 C1295 1.429 . S
C1287 C1285 1.419 1_455 S
C1287 C1288 1.363 . S
C1287 H1290 0.929 . S
C1288 C1287 1.363 . S
C1288 C1294 1.428 . S
H1289 C1285 0.930 . S
H1290 C1287 0.929 . S
S1291 N1292 1.613 . S
S1291 N1293 1.610 1_655 S
N1292 S1291 1.613 . S
N1292 C1295 1.350 . S
N1293 S1291 1.610 1_455 S
N1293 C1294 1.351 . S
C1294 C1288 1.428 . S
C1294 N1293 1.351 . S
C1294 C1295 1.434 1_455 S
C1295 C1286 1.429 . S
C1295 N1292 1.350 . S
C1295 C1294 1.434 1_655 S
C945 C347 0.843 . S
C947 C52 0.839 . S
C956 C406 0.993 . S
C958 C111 0.993 . S
C967 C170 0.844 . S
C969 C465 0.838 . S
C978 C229 0.701 . S
C980 C288 0.704 . S
C989 C524 0.844 . S
C991 C819 0.839 . S
C1000 C878 0.992 . S
C1002 C583 0.992 . S
C1011 C937 0.838 . S
C1013 C642 0.843 . S
C1022 C701 0.708 . S
C1024 C760 0.698 . S
C1033 C5 1.569 1_565 S
C1035 C711 1.495 . S
C1044 C770 1.654 . S
C1046 C64 1.785 . S
C1055 C123 1.802 . S
C1057 C829 1.705 . S
C1066 C182 1.613 . S
C1068 C888 1.540 . S
C1077 C241 1.613 . S
C1079 C475 1.541 . S
C1088 C300 1.804 . S
C1090 C534 1.698 . S
C1099 C359 1.786 . S
C1101 C593 1.652 . S
C1110 C418 1.570 1_455 S
C1112 C652 1.494 . S
C1121 C239 1.488 . S
C1123 C477 1.573 1_545 S
C1132 C298 1.661 . S
C1134 C536 1.783 . S
C1143 C357 1.707 . S
C1145 C595 1.802 . S
C1154 C654 1.613 . S
C1156 C416 1.540 . S
C1165 C3 1.541 . S
C1167 C713 1.613 . S
C1176 C772 1.804 . S
C1178 C62 1.700 . S
C1187 C831 1.786 . S
C1189 C121 1.653 . S
C1198 C180 1.492 . S
C1200 C890 1.572 1_655 S
C1209 C505 1.587 . S
C1211 C33 1.596 . S
C1220 C564 1.870 . S
C1222 C92 1.875 . S
C1231 C151 2.063 . S
C1233 C623 2.054 . S
C1242 C682 1.728 . S
C1244 C210 1.724 . S
C1253 C269 1.725 . S
C1255 C741 1.726 . S
C1264 C800 2.062 . S
C1266 C328 2.054 . S
C1275 C859 1.867 . S
C1277 C387 1.877 . S
C1286 C918 1.590 . S
C1288 C446 1.594 . S
