# Generated by pormake.
# Topology qtz-e, (6)-cn, num edge types: 1
# Building blocks:
#     Node 0, Type 0, BuildingBlock: PAMTUU_clean_sbu_0, # of connection points: 6
#     Node 1, Type 0, BuildingBlock: PAMTUU_clean_sbu_0, # of connection points: 6
#     Node 2, Type 0, BuildingBlock: PAMTUU_clean_sbu_0, # of connection points: 6
#     Node 3, Type 0, BuildingBlock: PAMTUU_clean_sbu_0, # of connection points: 6
#     Node 4, Type 0, BuildingBlock: PAMTUU_clean_sbu_0, # of connection points: 6
#     Node 5, Type 0, BuildingBlock: PAMTUU_clean_sbu_0, # of connection points: 6
#     Edge 6, Type (0, 0), BuildingBlock: EZIPEK_clean_linker_0, # of connection points: 2
#     Edge 7, Type (0, 0), BuildingBlock: EZIPEK_clean_linker_0, # of connection points: 2
#     Edge 8, Type (0, 0), BuildingBlock: EZIPEK_clean_linker_0, # of connection points: 2
#     Edge 9, Type (0, 0), BuildingBlock: EZIPEK_clean_linker_0, # of connection points: 2
#     Edge 10, Type (0, 0), BuildingBlock: EZIPEK_clean_linker_0, # of connection points: 2
#     Edge 11, Type (0, 0), BuildingBlock: EZIPEK_clean_linker_0, # of connection points: 2
#     Edge 12, Type (0, 0), BuildingBlock: EZIPEK_clean_linker_0, # of connection points: 2
#     Edge 13, Type (0, 0), BuildingBlock: EZIPEK_clean_linker_0, # of connection points: 2
#     Edge 14, Type (0, 0), BuildingBlock: EZIPEK_clean_linker_0, # of connection points: 2
#     Edge 15, Type (0, 0), BuildingBlock: EZIPEK_clean_linker_0, # of connection points: 2
#     Edge 16, Type (0, 0), BuildingBlock: EZIPEK_clean_linker_0, # of connection points: 2
#     Edge 17, Type (0, 0), BuildingBlock: EZIPEK_clean_linker_0, # of connection points: 2
#     Edge 18, Type (0, 0), BuildingBlock: EZIPEK_clean_linker_0, # of connection points: 2
#     Edge 19, Type (0, 0), BuildingBlock: EZIPEK_clean_linker_0, # of connection points: 2
#     Edge 20, Type (0, 0), BuildingBlock: EZIPEK_clean_linker_0, # of connection points: 2
#     Edge 21, Type (0, 0), BuildingBlock: EZIPEK_clean_linker_0, # of connection points: 2
#     Edge 22, Type (0, 0), BuildingBlock: EZIPEK_clean_linker_0, # of connection points: 2
#     Edge 23, Type (0, 0), BuildingBlock: EZIPEK_clean_linker_0, # of connection points: 2
# Relax obj value: 0.252
# Max RMSD: 0.232
# Mean RMSD: 0.232
data_MOF--net-qtz-e--node1-PAMTUU_clean_sbu_0--edge1-EZIPEK_clean_linker_0
_symmetry_space_group_name_H-M    P1
_symmetry_Int_Tables_number       1
_symmetry_cell_setting            triclinic
loop_
_symmetry_equiv_pos_as_xyz
'x, y, z'
_cell_length_a     20.094505
_cell_length_b     20.035644
_cell_length_c     40.492725
_cell_angle_alpha  90.212513
_cell_angle_beta   89.474695
_cell_angle_gamma 120.60247
loop_
_atom_site_label
_atom_site_type_symbol
_atom_site_fract_x
_atom_site_fract_y
_atom_site_fract_z
_atom_type_partial_charge
Tb0 Tb 0.26676 0.34045 0.13808 0.0
Tb1 Tb 0.34946 0.5196 0.10777 0.0
C2 C 0.44449 0.45538 0.14351 0.0
C3 C 0.1451 0.19004 0.19899 0.0
C4 C 0.0645 0.1537 0.26042 0.0
C5 C 0.10284 0.11478 0.25014 0.0
C6 C 0.1426 0.13269 0.21973 0.0
C7 C 0.1068 0.22912 0.20932 0.0
C8 C 0.06656 0.2108 0.23962 0.0
C9 C 0.19139 0.21176 0.16779 0.0
O10 O 0.29813 0.41748 0.18048 0.0
O11 O 0.31538 0.53077 0.1576 0.0
O12 O 0.23 0.45856 0.0929 0.0
O13 O 0.18702 0.38372 0.13848 0.0
O14 O 0.44666 0.61221 0.08516 0.0
O15 O 0.34706 0.62123 0.09869 0.0
O16 O 0.35072 0.45016 0.06672 0.0
O17 O 0.27789 0.32292 0.08468 0.0
O18 O 0.39075 0.38302 0.13745 0.0
O19 O 0.43383 0.51379 0.13843 0.0
C20 C 0.30645 0.48666 0.18311 0.0
O21 O 0.16461 0.23165 0.14274 0.0
O22 O 0.26553 0.2587 0.17105 0.0
C23 C 0.17595 0.42182 0.11502 0.0
C24 C 0.40994 0.67648 0.04863 0.0
C25 C 0.41459 0.71504 0.98209 0.0
C26 C 0.35281 0.64531 0.99419 0.0
C27 C 0.3509 0.62572 0.02728 0.0
C28 C 0.47052 0.74711 0.03674 0.0
C29 C 0.4729 0.76636 1.00353 0.0
C30 C 0.41228 0.65225 0.0823 0.0
C31 C 0.31683 0.375 0.06127 0.0
H32 H 0.10223 0.07071 0.26576 0.0
H33 H 0.17223 0.10231 0.21258 0.0
H34 H 0.10865 0.27445 0.19413 0.0
H35 H 0.03778 0.24185 0.24704 0.0
H36 H 0.30758 0.6053 0.9778 0.0
H37 H 0.30456 0.57015 0.03602 0.0
H38 H 0.5169 0.78622 0.05289 0.0
H39 H 0.52092 0.8204 0.99436 0.0
Tb40 Tb 0.71064 0.05973 0.51635 0.0
Tb41 Tb 0.60386 0.12218 0.55139 0.0
C42 C 0.52953 0.96512 0.51582 0.0
C43 C 0.83059 0.0374 0.45142 0.0
C44 C 0.90507 0.07666 0.38862 0.0
C45 C 0.917 0.02984 0.41073 0.0
C46 C 0.88033 0.01065 0.44185 0.0
C47 C 0.81809 0.08371 0.42918 0.0
C48 C 0.85526 0.10348 0.39817 0.0
C49 C 0.79324 0.01778 0.48467 0.0
O50 O 0.69609 0.13173 0.48028 0.0
O51 O 0.58328 0.12388 0.49877 0.0
O52 O 0.71012 0.22665 0.53754 0.0
O53 O 0.79076 0.17745 0.53376 0.0
O54 O 0.51344 0.09476 0.58495 0.0
O55 O 0.5687 0.20349 0.55881 0.0
O56 O 0.67281 0.1117 0.58975 0.0
O57 O 0.68332 0.01262 0.56725 0.0
O58 O 0.59255 0.98772 0.49817 0.0
O59 O 0.53554 0.99785 0.54433 0.0
C60 C 0.63626 0.14057 0.47583 0.0
O61 O 0.82021 0.07368 0.50619 0.0
O62 O 0.71802 0.97857 0.48552 0.0
C63 C 0.77894 0.23617 0.5325 0.0
C64 C 0.53334 0.20318 0.61409 0.0
C65 C 0.55424 0.26596 0.67748 0.0
C66 C 0.61854 0.27859 0.6587 0.0
C67 C 0.60806 0.2468 0.62717 0.0
C68 C 0.46932 0.192 0.63262 0.0
C69 C 0.47975 0.22338 0.66424 0.0
C70 C 0.52146 0.16314 0.58263 0.0
C71 C 0.67848 0.04964 0.59355 0.0
H72 H 0.95516 0.00856 0.40396 0.0
H73 H 0.89102 0.97499 0.45849 0.0
H74 H 0.77978 0.10485 0.43581 0.0
H75 H 0.84506 0.13958 0.38158 0.0
H76 H 0.67627 0.31152 0.66874 0.0
H77 H 0.65796 0.25479 0.61329 0.0
H78 H 0.41134 0.15757 0.62296 0.0
H79 H 0.42975 0.2135 0.67861 0.0
Tb80 Tb 0.63924 0.91455 0.80668 0.0
Tb81 Tb 0.46813 0.85539 0.775 0.0
C82 C 0.54874 1.00377 0.81634 0.0
C83 C 0.78113 0.93151 0.87038 0.0
C84 C 0.81635 0.89351 0.93307 0.0
C85 C 0.78832 0.9449 0.93062 0.0
C86 C 0.77084 0.96368 0.89966 0.0
C87 C 0.80925 0.8801 0.87305 0.0
C88 C 0.8264 0.86119 0.90396 0.0
C89 C 0.76321 0.95044 0.83704 0.0
O90 O 0.55429 0.83008 0.84081 0.0
O91 O 0.44849 0.84033 0.8281 0.0
O92 O 0.47602 0.75227 0.78003 0.0
O93 O 0.60691 0.80797 0.77985 0.0
O94 O 0.39837 0.88005 0.74532 0.0
O95 O 0.35108 0.77002 0.77013 0.0
O96 O 0.54703 0.87869 0.73375 0.0
O97 O 0.66073 0.97031 0.75752 0.0
O98 O 0.58991 0.97817 0.83069 0.0
O99 O 0.519 0.97727 0.78735 0.0
C100 C 0.48608 0.82018 0.8483 0.0
O101 O 0.72926 0.8929 0.81648 0.0
O102 O 0.73393 0.99539 0.83533 0.0
C103 C 0.5377 0.74596 0.77856 0.0
C104 C 0.30986 0.77002 0.71656 0.0
C105 C 0.26132 0.71448 0.65274 0.0
C106 C 0.21025 0.71951 0.67512 0.0
C107 C 0.2347 0.74777 0.70694 0.0
C108 C 0.35883 0.75937 0.695 0.0
C109 C 0.33486 0.73227 0.66307 0.0
C110 C 0.33966 0.80968 0.74791 0.0
C111 C 0.6177 0.93851 0.73094 0.0
H112 H 0.78019 0.97069 0.9527 0.0
H113 H 0.74938 1.00344 0.89871 0.0
H114 H 0.81811 0.85439 0.8511 0.0
H115 H 0.84808 0.82161 0.90516 0.0
H116 H 0.15361 0.70678 0.66718 0.0
H117 H 0.19642 0.75559 0.72342 0.0
H118 H 0.41692 0.77578 0.70231 0.0
H119 H 0.37507 0.72955 0.64588 0.0
Tb120 Tb 0.91665 0.63436 0.18355 0.0
Tb121 Tb 0.83583 0.45915 0.21674 0.0
C122 C 0.98877 0.52654 0.1775 0.0
C123 C 0.94489 0.7819 0.12094 0.0
C124 C 0.90037 0.81748 0.05986 0.0
C125 C 0.95705 0.79621 0.06073 0.0
C126 C 0.97906 0.77868 0.09084 0.0
C127 C 0.88854 0.80396 0.11992 0.0
C128 C 0.86635 0.82118 0.08977 0.0
C129 C 0.96736 0.76184 0.15304 0.0
O130 O 0.83974 0.55468 0.14625 0.0
O131 O 0.82533 0.43804 0.16354 0.0
O132 O 0.74104 0.47332 0.20207 0.0
O133 O 0.80269 0.60557 0.20254 0.0
O134 O 0.85056 0.37768 0.24349 0.0
O135 O 0.73779 0.35185 0.22816 0.0
O136 O 0.86194 0.54374 0.25594 0.0
O137 O 0.96885 0.64692 0.23273 0.0
O138 O 0.97549 0.57702 0.16286 0.0
O139 O 0.95562 0.49564 0.20574 0.0
C140 C 0.81939 0.48193 0.14104 0.0
O141 O 0.91747 0.73937 0.17728 0.0
O142 O 0.99978 0.71975 0.15165 0.0
C143 C 0.73953 0.53748 0.19954 0.0
C144 C 0.7474 0.30504 0.28013 0.0
C145 C 0.69525 0.25766 0.34502 0.0
C146 C 0.67242 0.30323 0.32789 0.0
C147 C 0.69882 0.32736 0.29568 0.0
C148 C 0.76996 0.25933 0.29736 0.0
C149 C 0.7442 0.23591 0.32967 0.0
C150 C 0.77654 0.3304 0.24638 0.0
C151 C 0.92964 0.60749 0.25921 0.0
H152 H 0.98435 0.79321 0.03803 0.0
H153 H 0.02288 0.76244 0.0905 0.0
H154 H 0.86114 0.80758 0.14247 0.0
H155 H 0.82276 0.83773 0.08978 0.0
H156 H 0.63466 0.32037 0.33955 0.0
H157 H 0.68132 0.36342 0.28302 0.0
H158 H 0.80777 0.24205 0.28584 0.0
H159 H 0.76221 0.20068 0.34272 0.0
Tb160 Tb 0.06259 0.71955 0.47085 0.0
Tb161 Tb 0.15489 0.63144 0.44285 0.0
C162 C 0.99423 0.54104 0.47931 0.0
C163 C 0.03931 0.84327 0.53173 0.0
C164 C 0.0893 0.92217 0.59325 0.0
C165 C 0.01342 0.85963 0.5895 0.0
C166 C 0.98873 0.82074 0.55912 0.0
C167 C 0.11522 0.9065 0.53553 0.0
C168 C 0.13989 0.94536 0.56593 0.0
C169 C 0.01354 0.79783 0.50025 0.0
O170 O 0.10453 0.68921 0.51404 0.0
O171 O 0.20048 0.67062 0.4923 0.0
O172 O 0.22223 0.75038 0.42682 0.0
O173 O 0.1873 0.79863 0.46957 0.0
O174 O 0.14479 0.53031 0.42255 0.0
O175 O 0.25673 0.62899 0.43426 0.0
O176 O 0.08365 0.62862 0.40178 0.0
O177 O 0.03753 0.70919 0.41762 0.0
O178 O 0.97776 0.59489 0.4715 0.0
O179 O 0.06368 0.55155 0.47562 0.0
C180 C 0.16588 0.68285 0.51733 0.0
O181 O 0.06107 0.82372 0.47501 0.0
O182 O 0.98137 0.72285 0.50314 0.0
C183 C 0.23977 0.80599 0.44801 0.0
C184 C 0.24622 0.55775 0.38591 0.0
C185 C 0.27986 0.54701 0.31952 0.0
C186 C 0.30985 0.61987 0.33431 0.0
C187 C 0.29283 0.62527 0.36732 0.0
C188 C 0.21868 0.48487 0.37125 0.0
C189 C 0.23514 0.47955 0.33814 0.0
C190 C 0.21951 0.56211 0.41929 0.0
C191 C 0.04752 0.6666 0.39526 0.0
H192 H 0.97332 0.8407 0.61018 0.0
H193 H 0.93012 0.77226 0.55713 0.0
H194 H 0.15612 0.9254 0.51518 0.0
H195 H 0.19872 0.99328 0.56819 0.0
H196 H 0.34419 0.67232 0.32003 0.0
H197 H 0.31409 0.68212 0.37787 0.0
H198 H 0.18217 0.43216 0.38507 0.0
H199 H 0.21141 0.42309 0.32674 0.0
Tb200 Tb 0.36074 0.27453 0.8488 0.0
Tb201 Tb 0.53005 0.39021 0.88244 0.0
C202 C 0.45211 0.4553 0.83924 0.0
C203 C 0.21793 0.1506 0.78464 0.0
C204 C 0.18096 0.07787 0.72163 0.0
C205 C 0.12324 0.07672 0.74196 0.0
C206 C 0.14154 0.11262 0.77311 0.0
C207 C 0.27588 0.15217 0.76424 0.0
C208 C 0.25758 0.11619 0.73306 0.0
C209 C 0.23595 0.18677 0.81804 0.0
O210 O 0.44711 0.27845 0.81486 0.0
O211 O 0.55468 0.39418 0.82968 0.0
O212 O 0.52532 0.2805 0.8778 0.0
O213 O 0.39516 0.19802 0.87161 0.0
O214 O 0.59384 0.48687 0.913 0.0
O215 O 0.64731 0.42856 0.89025 0.0
O216 O 0.44816 0.32658 0.92206 0.0
O217 O 0.33865 0.31029 0.89774 0.0
O218 O 0.41208 0.38791 0.82448 0.0
O219 O 0.47839 0.45854 0.86888 0.0
C220 C 0.51708 0.33682 0.80882 0.0
O221 O 0.26846 0.16222 0.83846 0.0
O222 O 0.26877 0.26197 0.81933 0.0
C223 C 0.46524 0.2101 0.87651 0.0
C224 C 0.67845 0.46869 0.94512 0.0
C225 C 0.71698 0.45015 1.0093 0.0
C226 C 0.75261 0.52412 0.99479 0.0
C227 C 0.73341 0.53336 0.96276 0.0
C228 C 0.64262 0.39485 0.95974 0.0
C229 C 0.66263 0.38541 0.99149 0.0
C230 C 0.6537 0.47834 0.91258 0.0
C231 C 0.37921 0.31854 0.92464 0.0
H232 H 0.06385 0.04775 0.73371 0.0
H233 H 0.09581 0.11042 0.78831 0.0
H234 H 0.33523 0.1809 0.77247 0.0
H235 H 0.30316 0.11812 0.71786 0.0
H236 H 0.79483 0.57453 1.00836 0.0
H237 H 0.76045 0.59084 0.95198 0.0
H238 H 0.59831 0.34476 0.94677 0.0
H239 H 0.63476 0.32808 1.00244 0.0
C240 C 0.23213 0.53081 0.26179 0.0
C241 C 0.29093 0.54095 0.28385 0.0
C242 C 0.36786 0.53613 0.23787 0.0
C243 C 0.30446 0.51469 0.21662 0.0
N244 N 0.17426 0.48706 0.2081 0.0
N245 N 0.41242 0.54821 0.29417 0.0
C246 C 0.23628 0.51163 0.22841 0.0
C247 C 0.35849 0.5427 0.27225 0.0
N248 N 0.17286 0.54033 0.27275 0.0
N249 N 0.43758 0.5524 0.22495 0.0
H250 H 0.40837 0.55517 0.31952 0.0
H251 H 0.45833 0.54058 0.28759 0.0
H252 H 0.44664 0.55076 0.19968 0.0
H253 H 0.48805 0.57482 0.23869 0.0
H254 H 0.13272 0.54186 0.25716 0.0
H255 H 0.16723 0.55307 0.29726 0.0
H256 H 0.11953 0.47365 0.21625 0.0
H257 H 0.17652 0.47566 0.1832 0.0
C258 C 0.57111 0.27932 0.77038 0.0
C259 C 0.55201 0.33713 0.77656 0.0
C260 C 0.55833 0.36334 0.71722 0.0
C261 C 0.56391 0.29661 0.71131 0.0
N262 N 0.58307 0.19444 0.73197 0.0
N263 N 0.53274 0.439 0.75663 0.0
C264 C 0.57341 0.25625 0.73774 0.0
C265 C 0.54876 0.38175 0.75017 0.0
N266 N 0.58633 0.24428 0.79546 0.0
N267 N 0.5629 0.40905 0.69127 0.0
H268 H 0.53165 0.45721 0.78055 0.0
H269 H 0.5191 0.46713 0.73873 0.0
H270 H 0.5699 0.39662 0.66687 0.0
H271 H 0.56585 0.46216 0.69389 0.0
H272 H 0.58944 0.26082 0.82011 0.0
H273 H 0.58944 0.26082 0.82011 0.0
H274 H 0.58908 0.16304 0.75107 0.0
H275 H 0.5844 0.17429 0.70833 0.0
C276 C 0.40961 0.79549 0.93651 0.0
C277 C 0.42007 0.734 0.94667 0.0
C278 C 0.44807 0.71525 0.8898 0.0
C279 C 0.45238 0.78568 0.88086 0.0
N280 N 0.44448 0.89786 0.89696 0.0
N281 N 0.45695 0.63919 0.93385 0.0
C282 C 0.4339 0.82673 0.90438 0.0
C283 C 0.44074 0.69427 0.92353 0.0
N284 N 0.37634 0.82383 0.95757 0.0
N285 N 0.44913 0.66758 0.8659 0.0
H286 H 0.45279 0.62224 0.95846 0.0
H287 H 0.48064 0.61483 0.91838 0.0
H288 H 0.45079 0.68004 0.84086 0.0
H289 H 0.4392 0.61219 0.87075 0.0
H290 H 0.36031 0.86352 0.95035 0.0
H291 H 0.35787 0.80198 0.98137 0.0
H292 H 0.44066 0.93421 0.91436 0.0
H293 H 0.46353 0.92345 0.87398 0.0
C294 C 0.68015 0.25417 0.43873 0.0
C295 C 0.63205 0.17339 0.44391 0.0
C296 C 0.6099 0.15291 0.38456 0.0
C297 C 0.6674 0.23139 0.37907 0.0
N298 N 0.75944 0.35787 0.40035 0.0
N299 N 0.54121 0.04703 0.42161 0.0
C300 C 0.70243 0.28285 0.40602 0.0
C301 C 0.59361 0.12351 0.41703 0.0
N302 N 0.70259 0.30319 0.46516 0.0
N303 N 0.57156 0.10521 0.35863 0.0
H304 H 0.52424 0.02115 0.44481 0.0
H305 H 0.52424 0.02115 0.44481 0.0
H306 H 0.58025 0.12453 0.33421 0.0
H307 H 0.5297 0.04681 0.36182 0.0
H308 H 0.73373 0.36337 0.46326 0.0
H309 H 0.68221 0.2832 0.48894 0.0
H310 H 0.79371 0.3957 0.41884 0.0
H311 H 0.77571 0.38137 0.3767 0.0
C312 C 0.21778 0.6348 0.60077 0.0
C313 C 0.24355 0.70633 0.61723 0.0
C314 C 0.22587 0.76352 0.56765 0.0
C315 C 0.19721 0.69158 0.55093 0.0
N316 N 0.16053 0.55664 0.55162 0.0
N317 N 0.2835 0.84241 0.61543 0.0
C318 C 0.1928 0.62673 0.56735 0.0
C319 C 0.25123 0.77148 0.60033 0.0
N320 N 0.21791 0.57529 0.61716 0.0
N321 N 0.2292 0.82645 0.55334 0.0
H322 H 0.30607 0.85295 0.63923 0.0
H323 H 0.28979 0.89167 0.60371 0.0
H324 H 0.21189 0.82799 0.52938 0.0
H325 H 0.21189 0.82799 0.52938 0.0
H326 H 0.20652 0.52355 0.60621 0.0
H327 H 0.23356 0.57915 0.64189 0.0
H328 H 0.14852 0.50505 0.56282 0.0
H329 H 0.14187 0.5487 0.52725 0.0
C330 C 0.839 0.46137 0.08178 0.0
C331 C 0.78773 0.44975 0.10829 0.0
C332 C 0.68509 0.42556 0.06976 0.0
C333 C 0.73764 0.44096 0.04321 0.0
N334 N 0.85555 0.45106 1.02294 0.0
N335 N 0.65743 0.3966 0.12815 0.0
C336 C 0.81184 0.45153 0.04893 0.0
C337 C 0.70896 0.42355 0.10242 0.0
N338 N 0.91426 0.48443 0.08808 0.0
N339 N 0.61407 0.41654 0.06392 0.0
H340 H 0.67381 0.39172 0.15195 0.0
H341 H 0.59796 0.37156 0.12547 0.0
H342 H 0.5946 0.41782 0.04031 0.0
H343 H 0.57592 0.41221 0.08248 0.0
H344 H 0.9575 0.50413 0.07007 0.0
H345 H 0.93359 0.4857 0.1119 0.0
H346 H 0.90725 0.45153 0.02565 0.0
H347 H 0.83668 0.44327 0.99855 0.0
C348 C 0.52278 0.45004 0.19071 0.0
C349 C 0.51974 0.4745 0.15813 0.0
C350 C 0.66099 0.56033 0.15767 0.0
C351 C 0.66506 0.52941 0.18872 0.0
N352 N 0.60062 0.44606 0.23531 0.0
N353 N 0.58568 0.54597 0.10901 0.0
C354 C 0.59593 0.47477 0.20538 0.0
C355 C 0.5888 0.52811 0.14133 0.0
N356 N 0.45586 0.4061 0.20825 0.0
N357 N 0.72556 0.62091 0.14362 0.0
H358 H 0.53402 0.52496 0.09629 0.0
H359 H 0.63409 0.57549 0.09374 0.0
H360 H 0.78019 0.64648 0.15379 0.0
H361 H 0.72418 0.6516 0.1232 0.0
H362 H 0.45397 0.39466 0.23339 0.0
H363 H 0.40121 0.38493 0.19828 0.0
H364 H 0.55448 0.39814 0.2467 0.0
H365 H 0.65213 0.46913 0.24846 0.0
C366 C 0.91788 0.39714 0.47421 0.0
C367 C 0.93439 0.46419 0.49251 0.0
C368 C 0.8552 0.38174 0.53879 0.0
C369 C 0.84141 0.31446 0.52097 0.0
N370 N 0.87312 0.26056 0.47358 0.0
N371 N 0.92854 0.52224 0.5438 0.0
C372 C 0.87681 0.32283 0.48933 0.0
C373 C 0.90526 0.45706 0.52518 0.0
N374 N 0.93988 0.40434 0.44173 0.0
N375 N 0.82072 0.37349 0.56896 0.0
H376 H 0.96307 0.5781 0.53442 0.0
H377 H 0.9176 0.52143 0.569 0.0
H378 H 0.7916 0.32062 0.58147 0.0
H379 H 0.81895 0.41829 0.58125 0.0
H380 H 0.91943 0.35781 0.42542 0.0
H381 H 0.97369 0.45772 0.43017 0.0
H382 H 0.90656 0.26541 0.45293 0.0
H383 H 0.84265 0.20418 0.48224 0.0
C384 C 0.42275 0.07287 0.85938 0.0
C385 C 0.48022 0.14396 0.87286 0.0
C386 C 0.58036 0.11593 0.85453 0.0
C387 C 0.52471 0.05221 0.83563 0.0
N388 N 0.38899 0.96737 0.82163 0.0
N389 N 0.60829 0.20995 0.89661 0.0
C390 C 0.44476 0.02994 0.83841 0.0
C391 C 0.55674 0.15788 0.87484 0.0
N392 N 0.34771 0.04253 0.86944 0.0
N393 N 0.65712 0.13942 0.85239 0.0
H394 H 0.5935 0.23762 0.91463 0.0
H395 H 0.5935 0.23762 0.91463 0.0
H396 H 0.67943 0.11579 0.83577 0.0
H397 H 0.69907 0.18619 0.86594 0.0
H398 H 0.30309 0.98754 0.86293 0.0
H399 H 0.33239 0.06772 0.88838 0.0
H400 H 0.33321 0.95729 0.81846 0.0
H401 H 0.39775 0.92631 0.80995 0.0
C402 C 0.58243 0.65634 0.80005 0.0
C403 C 0.52646 0.66632 0.78324 0.0
C404 C 0.42438 0.53666 0.80066 0.0
C405 C 0.4783 0.52872 0.82023 0.0
N406 N 0.61325 0.57446 0.83225 0.0
N407 N 0.40566 0.60225 0.75458 0.0
C408 C 0.5587 0.58695 0.81835 0.0
C409 C 0.4511 0.60161 0.77928 0.0
N410 N 0.65861 0.71272 0.79816 0.0
N411 N 0.34694 0.48509 0.804 0.0
H412 H 0.42625 0.64789 0.73765 0.0
H413 H 0.35227 0.55438 0.74856 0.0
H414 H 0.32419 0.43912 0.82074 0.0
H415 H 0.30486 0.49266 0.79271 0.0
H416 H 0.70009 0.71928 0.81515 0.0
H417 H 0.68085 0.75135 0.77838 0.0
H418 H 0.67245 0.6095 0.82829 0.0
H419 H 0.60078 0.52648 0.84638 0.0
C420 C 0.04682 0.38787 0.13845 0.0
C421 C 0.11404 0.44127 0.12065 0.0
C422 C 0.10007 0.54858 0.1409 0.0
C423 C 0.03301 0.49618 0.15925 0.0
N424 N 0.93086 0.36175 0.16755 0.0
N425 N 0.17654 0.56421 0.09211 0.0
C426 C 1.00279 0.41448 0.15582 0.0
C427 C 0.13199 0.51913 0.11771 0.0
N428 N 0.02558 0.31132 0.13897 0.0
N429 N 0.13568 0.62655 0.14649 0.0
H430 H 0.19178 0.54143 0.07225 0.0
H431 H 0.18735 0.62024 0.08803 0.0
H432 H 0.11733 0.65059 0.16475 0.0
H433 H 0.18856 0.66614 0.13564 0.0
H434 H 0.98548 0.27118 0.15562 0.0
H435 H 0.05059 0.28876 0.12314 0.0
H436 H 0.90268 0.30295 0.1618 0.0
H437 H 0.89561 0.37597 0.18085 0.0
C438 C 0.38105 0.8434 0.45055 0.0
C439 C 0.32263 0.86166 0.45686 0.0
C440 C 0.39399 0.93911 0.50461 0.0
C441 C 0.45173 0.9185 0.49967 0.0
N442 N 0.48906 0.83551 0.47218 0.0
N443 N 0.29531 0.95628 0.47892 0.0
C444 C 0.44225 0.86646 0.47364 0.0
C445 C 0.33694 0.91975 0.4802 0.0
N446 N 0.38197 0.81056 0.42113 0.0
N447 N 0.38788 0.96992 0.53382 0.0
H448 H 0.25487 0.94406 0.46037 0.0
H449 H 0.30745 1.00408 0.4935 0.0
H450 H 0.41352 0.96645 0.55539 0.0
H451 H 0.34536 0.9839 0.53856 0.0
H452 H 0.4261 0.80079 0.41382 0.0
H453 H 0.34477 0.80442 0.40205 0.0
H454 H 0.48082 0.79199 0.4557 0.0
H455 H 0.53041 0.84672 0.49013 0.0
C456 C 0.28491 0.27679 0.97461 0.0
C457 C 0.35512 0.33154 0.95852 0.0
C458 C 0.40217 0.399 1.01138 0.0
C459 C 0.32905 0.35179 0.02692 0.0
N460 N 0.19495 0.25224 1.02002 0.0
N461 N 0.46627 0.46043 0.96039 0.0
C462 C 0.26854 0.29205 1.00767 0.0
C463 C 0.40938 0.3973 0.9766 0.0
N464 N 0.2347 0.20964 0.95881 0.0
N465 N 0.46617 0.44384 0.02991 0.0
H466 H 0.46761 0.4643 0.93471 0.0
H467 H 0.50424 0.51215 0.97234 0.0
H468 H 0.46505 0.43986 0.05558 0.0
H469 H 0.52147 0.47626 1.01966 0.0
H470 H 0.18657 0.16404 0.97041 0.0
H471 H 0.2446 0.19745 0.93481 0.0
H472 H 0.1476 0.21361 1.00596 0.0
H473 H 0.18006 0.26286 0.04334 0.0
C474 C 0.02276 0.1608 0.35291 0.0
C475 C 0.94527 0.09787 0.35555 0.0
C476 C 0.94644 0.0706 0.2961 0.0
C477 C 0.02293 0.13514 0.29318 0.0
N478 N 0.13254 0.24574 0.31763 0.0
N479 N 0.82984 0.99799 0.32953 0.0
C480 C 0.06063 0.18145 0.32131 0.0
C481 C 0.90617 0.05428 0.32705 0.0
N482 N 0.06033 0.20008 0.38084 0.0
N483 N 0.91296 0.02378 0.26932 0.0
H484 H 0.79945 0.98229 0.35189 0.0
H485 H 0.79489 0.96981 0.30937 0.0
H486 H 0.93906 0.03574 0.24601 0.0
H487 H 0.86144 0.97076 0.27035 0.0
H488 H 0.11892 0.24131 0.38182 0.0
H489 H 0.0334 0.18898 0.40395 0.0
H490 H 0.16146 0.28616 0.33613 0.0
H491 H 0.16282 0.26118 0.29525 0.0
C492 C 0.62615 0.91479 0.66981 0.0
C493 C 0.6469 0.96867 0.69629 0.0
C494 C 0.70928 0.07374 0.65494 0.0
C495 C 0.67424 0.01999 0.62848 0.0
N496 N 0.58296 0.88677 0.61334 0.0
N497 N 0.69746 0.10264 0.71204 0.0
C498 C 0.62871 0.93963 0.63653 0.0
C499 C 0.68619 0.04919 0.68839 0.0
N500 N 0.60492 0.83962 0.67624 0.0
N501 N 0.76608 0.14823 0.64834 0.0
H502 H 0.67845 0.08809 0.73637 0.0
H503 H 0.71846 0.16085 0.70656 0.0
H504 H 0.7879 0.16726 0.62457 0.0
H505 H 0.79772 0.18791 0.66683 0.0
H506 H 0.59514 0.79962 0.65762 0.0
H507 H 0.60654 0.82011 0.69991 0.0
H508 H 0.54326 0.82911 0.61919 0.0
H509 H 0.57733 0.90151 0.58935 0.0
C510 C 0.90828 0.92775 0.98107 0.0
C511 C 0.83682 0.87458 0.96602 0.0
C512 C 0.80883 0.78192 1.01151 0.0
C513 C 0.87779 0.83731 0.02764 0.0
N514 N 0.98723 0.96732 0.03043 0.0
N515 N 0.71376 0.75566 0.96899 0.0
C516 C 0.92583 0.91149 1.01312 0.0
C517 C 0.78559 0.80287 0.98186 0.0
N518 N 0.96069 0.99281 0.96421 0.0
N519 N 0.76668 0.70845 1.02405 0.0
H520 H 0.69518 0.76875 0.94727 0.0
H521 H 0.6704 0.70669 0.98099 0.0
H522 H 0.78125 0.69141 0.04583 0.0
H523 H 0.72067 0.66276 1.01177 0.0
H524 H 0.01724 0.02941 0.97196 0.0
H525 H 0.9497 1.00727 0.94098 0.0
H526 H 0.01944 0.02508 1.02305 0.0
H527 H 1.00243 0.95742 0.05369 0.0
C528 C 0.97302 0.57903 0.34788 0.0
C529 C 0.01305 0.65516 0.36111 0.0
C530 C 0.9945 0.703 0.30754 0.0
C531 C 0.96417 0.62781 0.29345 0.0
N532 N 0.95037 0.50153 0.29904 0.0
N533 N 0.07341 0.79266 0.35072 0.0
C534 C 0.96094 0.56797 0.31333 0.0
C535 C 0.02686 0.71824 0.3402 0.0
N536 N 0.94356 0.51654 0.3685 0.0
N537 N 0.99043 0.75927 0.29036 0.0
H538 H 0.09915 0.80622 0.37389 0.0
H539 H 0.09185 0.84065 0.33538 0.0
H540 H 0.96688 0.75016 0.26679 0.0
H541 H 1.0043 0.81254 0.30063 0.0
H542 H 0.91029 0.45958 0.36021 0.0
H543 H 0.94379 0.52268 0.39407 0.0
H544 H 0.95326 0.45844 0.31219 0.0
H545 H 0.94989 0.49502 0.27351 0.0
C546 C 0.15523 0.96622 0.68359 0.0
C547 C 0.16082 0.03932 0.68829 0.0
C548 C 0.11695 0.0343 0.63113 0.0
C549 C 0.11556 0.96342 0.62584 0.0
N550 N 0.14482 0.86776 0.64517 0.0
N551 N 0.16026 0.14942 0.66495 0.0
C552 C 0.13811 0.93114 0.65158 0.0
C553 C 0.14542 0.07515 0.66156 0.0
N554 N 0.16365 0.92899 0.71004 0.0
N555 N 0.08873 0.06144 0.60739 0.0
H556 H 0.18083 0.18097 0.68678 0.0
H557 H 0.15854 0.1822 0.64545 0.0
H558 H 0.06875 0.03406 0.58466 0.0
H559 H 0.0796 0.10763 0.61106 0.0
H560 H 0.15199 0.87209 0.70928 0.0
H561 H 0.17695 0.95304 0.73365 0.0
H562 H 0.16904 0.8463 0.66155 0.0
H563 H 0.13173 0.83998 0.62229 0.0
loop_
_geom_bond_atom_site_label_1
_geom_bond_atom_site_label_2
_geom_bond_distance
_geom_bond_site_symmetry_2
_ccdc_geom_bond_type
Tb0 C9 2.764 . S
Tb0 O10 2.325 . S
Tb0 O13 2.303 . S
Tb0 O17 2.322 . S
Tb0 O18 2.349 . S
Tb0 O21 2.415 . S
Tb0 O22 2.399 . S
Tb1 O11 2.322 . S
Tb1 O12 2.349 . S
Tb1 O14 2.415 . S
Tb1 O15 2.399 . S
Tb1 O16 2.325 . S
Tb1 O19 2.303 . S
Tb1 C30 2.764 . S
C2 O18 1.261 . S
C2 O19 1.257 . S
C3 C6 1.358 . S
C3 C7 1.332 . S
C3 C9 1.504 . S
C4 C5 1.373 . S
C4 C8 1.308 . S
C5 C4 1.373 . S
C5 C6 1.429 . S
C5 H32 0.932 . S
C6 C3 1.358 . S
C6 C5 1.429 . S
C6 H33 0.930 . S
C7 C3 1.332 . S
C7 C8 1.394 . S
C7 H34 0.932 . S
C8 C4 1.308 . S
C8 C7 1.394 . S
C8 H35 0.941 . S
C9 Tb0 2.764 . S
C9 C3 1.504 . S
C9 O21 1.239 . S
C9 O22 1.263 . S
O10 Tb0 2.325 . S
O10 C20 1.236 . S
O11 Tb1 2.322 . S
O11 C20 1.257 . S
O12 Tb1 2.349 . S
O12 C23 1.261 . S
O13 Tb0 2.303 . S
O13 C23 1.257 . S
O14 Tb1 2.415 . S
O14 C30 1.239 . S
O15 Tb1 2.399 . S
O15 C30 1.263 . S
O16 Tb1 2.325 . S
O16 C31 1.236 . S
O17 Tb0 2.322 . S
O17 C31 1.257 . S
O18 Tb0 2.349 . S
O18 C2 1.261 . S
O19 Tb1 2.303 . S
O19 C2 1.257 . S
C20 O10 1.236 . S
C20 O11 1.257 . S
O21 Tb0 2.415 . S
O21 C9 1.239 . S
O22 Tb0 2.399 . S
O22 C9 1.263 . S
C23 O12 1.261 . S
C23 O13 1.257 . S
C24 C27 1.358 . S
C24 C28 1.332 . S
C24 C30 1.504 1_556 S
C25 C26 1.373 . S
C25 C29 1.308 . S
C26 C25 1.373 . S
C26 C27 1.429 . S
C26 H36 0.932 . S
C27 C24 1.358 . S
C27 C26 1.429 . S
C27 H37 0.930 . S
C28 C24 1.332 . S
C28 C29 1.394 . S
C28 H38 0.932 . S
C29 C25 1.308 . S
C29 C28 1.394 . S
C29 H39 0.929 . S
C30 Tb1 2.764 . S
C30 O14 1.239 . S
C30 O15 1.263 . S
C30 C24 1.504 1_554 S
C31 O16 1.236 . S
C31 O17 1.257 . S
H32 C5 0.932 . S
H33 C6 0.930 . S
H34 C7 0.932 . S
H35 C8 0.941 . S
H36 C26 0.932 . S
H37 C27 0.930 . S
H38 C28 0.932 . S
H39 C29 0.929 . S
Tb40 C49 2.764 . S
Tb40 O50 2.325 . S
Tb40 O53 2.303 . S
Tb40 O57 2.322 1_545 S
Tb40 O58 2.349 1_545 S
Tb40 O61 2.415 . S
Tb40 O62 2.399 1_545 S
Tb41 O51 2.322 . S
Tb41 O52 2.349 . S
Tb41 O54 2.415 . S
Tb41 O55 2.399 . S
Tb41 O56 2.325 . S
Tb41 O59 2.303 . S
Tb41 C70 2.764 . S
C42 O58 1.261 . S
C42 O59 1.257 1_565 S
C43 C46 1.358 1_545 S
C43 C47 1.332 . S
C43 C49 1.504 . S
C44 C45 1.373 1_545 S
C44 C48 1.308 . S
C45 C44 1.373 1_565 S
C45 C46 1.429 . S
C45 H72 0.932 . S
C46 C43 1.358 1_565 S
C46 C45 1.429 . S
C46 H73 0.930 . S
C47 C43 1.332 . S
C47 C48 1.394 . S
C47 H74 0.932 . S
C48 C44 1.308 . S
C48 C47 1.394 . S
C48 H75 0.929 . S
C49 Tb40 2.764 . S
C49 C43 1.504 . S
C49 O61 1.239 . S
C49 O62 1.263 1_545 S
O50 Tb40 2.325 . S
O50 C60 1.236 . S
O51 Tb41 2.322 . S
O51 C60 1.257 . S
O52 Tb41 2.349 . S
O52 C63 1.261 . S
O53 Tb40 2.303 . S
O53 C63 1.257 . S
O54 Tb41 2.415 . S
O54 C70 1.239 . S
O55 Tb41 2.399 . S
O55 C70 1.263 . S
O56 Tb41 2.325 . S
O56 C71 1.236 . S
O57 Tb40 2.322 1_565 S
O57 C71 1.257 1_565 S
O58 Tb40 2.349 1_565 S
O58 C42 1.261 . S
O59 Tb41 2.303 . S
O59 C42 1.257 1_545 S
C60 O50 1.236 . S
C60 O51 1.257 . S
O61 Tb40 2.415 . S
O61 C49 1.239 . S
O62 Tb40 2.399 1_565 S
O62 C49 1.263 1_565 S
C63 O52 1.261 . S
C63 O53 1.257 . S
C64 C67 1.358 . S
C64 C68 1.332 . S
C64 C70 1.504 . S
C65 C66 1.373 . S
C65 C69 1.308 . S
C66 C65 1.373 . S
C66 C67 1.429 . S
C66 H76 0.932 . S
C67 C64 1.358 . S
C67 C66 1.429 . S
C67 H77 0.930 . S
C68 C64 1.332 . S
C68 C69 1.394 . S
C68 H78 0.932 . S
C69 C65 1.308 . S
C69 C68 1.394 . S
C69 H79 0.929 . S
C70 Tb41 2.764 . S
C70 O54 1.239 . S
C70 O55 1.263 . S
C70 C64 1.504 . S
C71 O56 1.236 . S
C71 O57 1.257 1_545 S
H72 C45 0.932 . S
H73 C46 0.930 . S
H74 C47 0.932 . S
H75 C48 0.929 . S
H76 C66 0.932 . S
H77 C67 0.930 . S
H78 C68 0.932 . S
H79 C69 0.929 . S
Tb80 C89 2.764 . S
Tb80 O90 2.325 . S
Tb80 O93 2.303 . S
Tb80 O97 2.322 . S
Tb80 O98 2.349 1_565 S
Tb80 O101 2.415 . S
Tb80 O102 2.402 . S
Tb81 O91 2.322 . S
Tb81 O92 2.349 . S
Tb81 O94 2.415 . S
Tb81 O95 2.399 . S
Tb81 O96 2.325 . S
Tb81 O99 2.303 . S
Tb81 C110 2.764 . S
C82 O98 1.261 . S
C82 O99 1.257 1_545 S
C83 C86 1.358 1_565 S
C83 C87 1.332 . S
C83 C89 1.504 . S
C84 C85 1.371 1_565 S
C84 C88 1.308 . S
C85 C84 1.371 1_545 S
C85 C86 1.430 . S
C85 H112 0.933 . S
C86 C83 1.358 1_545 S
C86 C85 1.430 . S
C86 H113 0.930 . S
C87 C83 1.332 . S
C87 C88 1.394 . S
C87 H114 0.932 . S
C88 C84 1.308 . S
C88 C87 1.394 . S
C88 H115 0.929 . S
C89 Tb80 2.764 . S
C89 C83 1.504 . S
C89 O101 1.239 . S
C89 O102 1.277 . S
O90 Tb80 2.325 . S
O90 C100 1.236 . S
O91 Tb81 2.322 . S
O91 C100 1.257 . S
O92 Tb81 2.349 . S
O92 C103 1.261 . S
O93 Tb80 2.303 . S
O93 C103 1.257 . S
O94 Tb81 2.415 . S
O94 C110 1.239 . S
O95 Tb81 2.399 . S
O95 C110 1.263 . S
O96 Tb81 2.325 . S
O96 C111 1.236 . S
O97 Tb80 2.322 . S
O97 C111 1.257 . S
O98 Tb80 2.349 1_545 S
O98 C82 1.261 . S
O99 Tb81 2.303 . S
O99 C82 1.257 1_565 S
C100 O90 1.236 . S
C100 O91 1.257 . S
O101 Tb80 2.415 . S
O101 C89 1.239 . S
O102 Tb80 2.402 . S
O102 C89 1.277 . S
C103 O92 1.261 . S
C103 O93 1.257 . S
C104 C107 1.358 . S
C104 C108 1.332 . S
C104 C110 1.504 . S
C105 C106 1.373 . S
C105 C109 1.308 . S
C106 C105 1.373 . S
C106 C107 1.429 . S
C106 H116 0.932 . S
C107 C104 1.358 . S
C107 C106 1.429 . S
C107 H117 0.930 . S
C108 C104 1.332 . S
C108 C109 1.394 . S
C108 H118 0.932 . S
C109 C105 1.308 . S
C109 C108 1.394 . S
C109 H119 0.929 . S
C110 Tb81 2.764 . S
C110 O94 1.239 . S
C110 O95 1.263 . S
C110 C104 1.504 . S
C111 O96 1.236 . S
C111 O97 1.257 . S
H112 C85 0.933 . S
H113 C86 0.930 . S
H114 C87 0.932 . S
H115 C88 0.929 . S
H116 C106 0.932 . S
H117 C107 0.930 . S
H118 C108 0.932 . S
H119 C109 0.929 . S
Tb120 C129 2.764 . S
Tb120 O130 2.325 . S
Tb120 O133 2.303 . S
Tb120 O137 2.322 . S
Tb120 O138 2.349 1_655 S
Tb120 O141 2.415 . S
Tb120 O142 2.402 . S
Tb121 O131 2.322 . S
Tb121 O132 2.349 . S
Tb121 O134 2.415 . S
Tb121 O135 2.399 . S
Tb121 O136 2.325 . S
Tb121 O139 2.303 . S
Tb121 C150 2.764 . S
C122 O138 1.261 . S
C122 O139 1.257 1_455 S
C123 C126 1.358 1_655 S
C123 C127 1.332 . S
C123 C129 1.504 . S
C124 C125 1.372 1_655 S
C124 C128 1.308 . S
C125 C124 1.372 1_455 S
C125 C126 1.430 . S
C125 H152 0.933 . S
C126 C123 1.358 1_455 S
C126 C125 1.430 . S
C126 H153 0.930 . S
C127 C123 1.332 . S
C127 C128 1.394 . S
C127 H154 0.932 . S
C128 C124 1.308 . S
C128 C127 1.394 . S
C128 H155 0.929 . S
C129 Tb120 2.764 . S
C129 C123 1.504 . S
C129 O141 1.239 . S
C129 O142 1.278 . S
O130 Tb120 2.325 . S
O130 C140 1.236 . S
O131 Tb121 2.322 . S
O131 C140 1.257 . S
O132 Tb121 2.349 . S
O132 C143 1.261 . S
O133 Tb120 2.303 . S
O133 C143 1.257 . S
O134 Tb121 2.415 . S
O134 C150 1.239 . S
O135 Tb121 2.399 . S
O135 C150 1.263 . S
O136 Tb121 2.325 . S
O136 C151 1.236 . S
O137 Tb120 2.322 . S
O137 C151 1.257 . S
O138 Tb120 2.349 1_455 S
O138 C122 1.261 . S
O139 Tb121 2.303 . S
O139 C122 1.257 1_655 S
C140 O130 1.236 . S
C140 O131 1.257 . S
O141 Tb120 2.415 . S
O141 C129 1.239 . S
O142 Tb120 2.402 . S
O142 C129 1.278 . S
C143 O132 1.261 . S
C143 O133 1.257 . S
C144 C147 1.358 . S
C144 C148 1.332 . S
C144 C150 1.504 . S
C145 C146 1.373 . S
C145 C149 1.308 . S
C146 C145 1.373 . S
C146 C147 1.429 . S
C146 H156 0.932 . S
C147 C144 1.358 . S
C147 C146 1.429 . S
C147 H157 0.930 . S
C148 C144 1.332 . S
C148 C149 1.394 . S
C148 H158 0.932 . S
C149 C145 1.308 . S
C149 C148 1.394 . S
C149 H159 0.929 . S
C150 Tb121 2.764 . S
C150 O134 1.239 . S
C150 O135 1.263 . S
C150 C144 1.504 . S
C151 O136 1.236 . S
C151 O137 1.257 . S
H152 C125 0.933 . S
H153 C126 0.930 . S
H154 C127 0.932 . S
H155 C128 0.929 . S
H156 C146 0.932 . S
H157 C147 0.930 . S
H158 C148 0.932 . S
H159 C149 0.929 . S
Tb160 C169 2.764 . S
Tb160 O170 2.325 . S
Tb160 O173 2.303 . S
Tb160 O177 2.322 1_455 S
Tb160 O178 2.349 1_455 S
Tb160 O181 2.415 . S
Tb160 O182 2.399 1_455 S
Tb161 O171 2.322 . S
Tb161 O172 2.349 . S
Tb161 O174 2.415 . S
Tb161 O175 2.399 . S
Tb161 O176 2.325 . S
Tb161 O179 2.303 . S
Tb161 C190 2.764 . S
C162 O178 1.261 . S
C162 O179 1.257 1_655 S
C163 C166 1.358 1_455 S
C163 C167 1.332 . S
C163 C169 1.504 . S
C164 C165 1.373 1_455 S
C164 C168 1.308 . S
C165 C164 1.373 1_655 S
C165 C166 1.429 . S
C165 H192 0.932 . S
C166 C163 1.358 1_655 S
C166 C165 1.429 . S
C166 H193 0.930 . S
C167 C163 1.332 . S
C167 C168 1.394 . S
C167 H194 0.932 . S
C168 C164 1.308 . S
C168 C167 1.394 . S
C168 H195 0.929 . S
C169 Tb160 2.764 . S
C169 C163 1.504 . S
C169 O181 1.239 . S
C169 O182 1.263 1_455 S
O170 Tb160 2.325 . S
O170 C180 1.236 . S
O171 Tb161 2.322 . S
O171 C180 1.257 . S
O172 Tb161 2.349 . S
O172 C183 1.261 . S
O173 Tb160 2.303 . S
O173 C183 1.257 . S
O174 Tb161 2.415 . S
O174 C190 1.239 . S
O175 Tb161 2.399 . S
O175 C190 1.263 . S
O176 Tb161 2.325 . S
O176 C191 1.236 . S
O177 Tb160 2.322 1_655 S
O177 C191 1.257 1_655 S
O178 Tb160 2.349 1_655 S
O178 C162 1.261 . S
O179 Tb161 2.303 . S
O179 C162 1.257 1_455 S
C180 O170 1.236 . S
C180 O171 1.257 . S
O181 Tb160 2.415 . S
O181 C169 1.239 . S
O182 Tb160 2.399 1_655 S
O182 C169 1.263 1_655 S
C183 O172 1.261 . S
C183 O173 1.257 . S
C184 C187 1.358 . S
C184 C188 1.332 . S
C184 C190 1.504 . S
C185 C186 1.373 . S
C185 C189 1.308 . S
C186 C185 1.373 . S
C186 C187 1.429 . S
C186 H196 0.932 . S
C187 C184 1.358 . S
C187 C186 1.429 . S
C187 H197 0.930 . S
C188 C184 1.332 . S
C188 C189 1.394 . S
C188 H198 0.932 . S
C189 C185 1.308 . S
C189 C188 1.394 . S
C189 H199 0.929 . S
C190 Tb161 2.764 . S
C190 O174 1.239 . S
C190 O175 1.263 . S
C190 C184 1.504 . S
C191 O176 1.236 . S
C191 O177 1.257 1_455 S
H192 C165 0.932 . S
H193 C166 0.930 . S
H194 C167 0.932 . S
H195 C168 0.929 . S
H196 C186 0.932 . S
H197 C187 0.930 . S
H198 C188 0.932 . S
H199 C189 0.929 . S
Tb200 C209 2.764 . S
Tb200 O210 2.325 . S
Tb200 O213 2.303 . S
Tb200 O217 2.322 . S
Tb200 O218 2.349 . S
Tb200 O221 2.415 . S
Tb200 O222 2.399 . S
Tb201 O211 2.322 . S
Tb201 O212 2.349 . S
Tb201 O214 2.415 . S
Tb201 O215 2.399 . S
Tb201 O216 2.325 . S
Tb201 O219 2.303 . S
Tb201 C230 2.764 . S
C202 O218 1.261 . S
C202 O219 1.257 . S
C203 C206 1.358 . S
C203 C207 1.332 . S
C203 C209 1.504 . S
C204 C205 1.373 . S
C204 C208 1.308 . S
C205 C204 1.373 . S
C205 C206 1.429 . S
C205 H232 0.932 . S
C206 C203 1.358 . S
C206 C205 1.429 . S
C206 H233 0.930 . S
C207 C203 1.332 . S
C207 C208 1.394 . S
C207 H234 0.932 . S
C208 C204 1.308 . S
C208 C207 1.394 . S
C208 H235 0.941 . S
C209 Tb200 2.764 . S
C209 C203 1.504 . S
C209 O221 1.239 . S
C209 O222 1.263 . S
O210 Tb200 2.325 . S
O210 C220 1.236 . S
O211 Tb201 2.322 . S
O211 C220 1.257 . S
O212 Tb201 2.349 . S
O212 C223 1.261 . S
O213 Tb200 2.303 . S
O213 C223 1.257 . S
O214 Tb201 2.415 . S
O214 C230 1.239 . S
O215 Tb201 2.399 . S
O215 C230 1.263 . S
O216 Tb201 2.325 . S
O216 C231 1.236 . S
O217 Tb200 2.322 . S
O217 C231 1.257 . S
O218 Tb200 2.349 . S
O218 C202 1.261 . S
O219 Tb201 2.303 . S
O219 C202 1.257 . S
C220 O210 1.236 . S
C220 O211 1.257 . S
O221 Tb200 2.415 . S
O221 C209 1.239 . S
O222 Tb200 2.399 . S
O222 C209 1.263 . S
C223 O212 1.261 . S
C223 O213 1.257 . S
C224 C227 1.358 . S
C224 C228 1.332 . S
C224 C230 1.504 . S
C225 C226 1.373 1_554 S
C225 C229 1.308 1_554 S
C226 C225 1.373 1_556 S
C226 C227 1.429 . S
C226 H236 0.932 1_556 S
C227 C224 1.358 . S
C227 C226 1.429 . S
C227 H237 0.930 . S
C228 C224 1.332 . S
C228 C229 1.394 . S
C228 H238 0.932 . S
C229 C225 1.308 1_556 S
C229 C228 1.394 . S
C229 H239 0.929 . S
C230 Tb201 2.764 . S
C230 O214 1.239 . S
C230 O215 1.263 . S
C230 C224 1.504 . S
C231 O216 1.236 . S
C231 O217 1.257 . S
H232 C205 0.932 . S
H233 C206 0.930 . S
H234 C207 0.932 . S
H235 C208 0.941 . S
H236 C226 0.932 1_554 S
H237 C227 0.930 . S
H238 C228 0.932 . S
H239 C229 0.929 . S
C240 C241 1.363 . S
C240 C246 1.379 . S
C240 N248 1.356 . S
C241 C240 1.363 . S
C241 C247 1.363 . S
C242 C243 1.363 . S
C242 C247 1.379 . S
C242 N249 1.356 . S
C243 C242 1.363 . S
C243 C246 1.363 . S
N244 C246 1.356 . S
N244 H256 0.984 . S
N244 H257 0.985 . S
N245 C247 1.356 . S
N245 H250 0.984 . S
N245 H251 0.985 . S
C246 C240 1.379 . S
C246 C243 1.363 . S
C246 N244 1.356 . S
C247 C241 1.363 . S
C247 C242 1.379 . S
C247 N245 1.356 . S
N248 C240 1.356 . S
N248 H254 0.984 . S
N248 H255 0.984 . S
N249 C242 1.356 . S
N249 H252 0.984 . S
N249 H253 0.985 . S
H250 N245 0.984 . S
H251 N245 0.985 . S
H252 N249 0.984 . S
H253 N249 0.985 . S
H254 N248 0.984 . S
H255 N248 0.984 . S
H256 N244 0.984 . S
H257 N244 0.985 . S
C258 C259 1.363 . S
C258 C264 1.379 . S
C258 N266 1.356 . S
C259 C258 1.363 . S
C259 C265 1.363 . S
C260 C261 1.363 . S
C260 C265 1.379 . S
C260 N267 1.356 . S
C261 C260 1.363 . S
C261 C264 1.363 . S
N262 C264 1.356 . S
N262 H274 0.984 . S
N262 H275 0.985 . S
N263 C265 1.356 . S
N263 H268 0.984 . S
N263 H269 0.985 . S
C264 C258 1.379 . S
C264 C261 1.363 . S
C264 N262 1.356 . S
C265 C259 1.363 . S
C265 C260 1.379 . S
C265 N263 1.356 . S
N266 C258 1.356 . S
N266 H272 0.984 . S
N266 H273 0.984 . S
N267 C260 1.356 . S
N267 H270 0.984 . S
N267 H271 0.985 . S
H268 N263 0.984 . S
H269 N263 0.985 . S
H270 N267 0.984 . S
H271 N267 0.985 . S
H272 N266 0.984 . S
H273 N266 0.984 . S
H274 N262 0.984 . S
H275 N262 0.985 . S
C276 C277 1.363 . S
C276 C282 1.379 . S
C276 N284 1.356 . S
C277 C276 1.363 . S
C277 C283 1.363 . S
C278 C279 1.363 . S
C278 C283 1.379 . S
C278 N285 1.356 . S
C279 C278 1.363 . S
C279 C282 1.363 . S
N280 C282 1.356 . S
N280 H292 0.984 . S
N280 H293 0.985 . S
N281 C283 1.356 . S
N281 H286 0.984 . S
N281 H287 0.985 . S
C282 C276 1.379 . S
C282 C279 1.363 . S
C282 N280 1.356 . S
C283 C277 1.363 . S
C283 C278 1.379 . S
C283 N281 1.356 . S
N284 C276 1.356 . S
N284 H290 0.984 . S
N284 H291 0.984 . S
N285 C278 1.356 . S
N285 H288 0.984 . S
N285 H289 0.985 . S
H286 N281 0.984 . S
H287 N281 0.985 . S
H288 N285 0.984 . S
H289 N285 0.985 . S
H290 N284 0.984 . S
H291 N284 0.984 . S
H292 N280 0.984 . S
H293 N280 0.985 . S
C294 C295 1.363 . S
C294 C300 1.379 . S
C294 N302 1.356 . S
C295 C294 1.363 . S
C295 C301 1.363 . S
C296 C297 1.363 . S
C296 C301 1.379 . S
C296 N303 1.356 . S
C297 C296 1.363 . S
C297 C300 1.363 . S
N298 C300 1.356 . S
N298 H310 0.984 . S
N298 H311 0.985 . S
N299 C301 1.356 . S
N299 H304 0.984 . S
N299 H305 0.985 . S
C300 C294 1.379 . S
C300 C297 1.363 . S
C300 N298 1.356 . S
C301 C295 1.363 . S
C301 C296 1.379 . S
C301 N299 1.356 . S
N302 C294 1.356 . S
N302 H308 0.984 . S
N302 H309 0.984 . S
N303 C296 1.356 . S
N303 H306 0.984 . S
N303 H307 0.985 . S
H304 N299 0.984 . S
H305 N299 0.985 . S
H306 N303 0.984 . S
H307 N303 0.985 . S
H308 N302 0.984 . S
H309 N302 0.984 . S
H310 N298 0.984 . S
H311 N298 0.985 . S
C312 C313 1.363 . S
C312 C318 1.379 . S
C312 N320 1.356 . S
C313 C312 1.363 . S
C313 C319 1.363 . S
C314 C315 1.363 . S
C314 C319 1.379 . S
C314 N321 1.356 . S
C315 C314 1.363 . S
C315 C318 1.363 . S
N316 C318 1.356 . S
N316 H328 0.984 . S
N316 H329 0.985 . S
N317 C319 1.356 . S
N317 H322 0.984 . S
N317 H323 0.985 . S
C318 C312 1.379 . S
C318 C315 1.363 . S
C318 N316 1.356 . S
C319 C313 1.363 . S
C319 C314 1.379 . S
C319 N317 1.356 . S
N320 C312 1.356 . S
N320 H326 0.984 . S
N320 H327 0.984 . S
N321 C314 1.356 . S
N321 H324 0.984 . S
N321 H325 0.985 . S
H322 N317 0.984 . S
H323 N317 0.985 . S
H324 N321 0.984 . S
H325 N321 0.985 . S
H326 N320 0.984 . S
H327 N320 0.984 . S
H328 N316 0.984 . S
H329 N316 0.985 . S
C330 C331 1.363 . S
C330 C336 1.379 . S
C330 N338 1.356 . S
C331 C330 1.363 . S
C331 C337 1.363 . S
C332 C333 1.363 . S
C332 C337 1.379 . S
C332 N339 1.356 . S
C333 C332 1.363 . S
C333 C336 1.363 . S
N334 C336 1.356 . S
N334 H346 0.984 1_554 S
N334 H347 0.985 1_554 S
N335 C337 1.356 . S
N335 H340 0.984 . S
N335 H341 0.985 . S
C336 C330 1.379 . S
C336 C333 1.363 . S
C336 N334 1.356 . S
C337 C331 1.363 . S
C337 C332 1.379 . S
C337 N335 1.356 . S
N338 C330 1.356 . S
N338 H344 0.984 . S
N338 H345 0.984 . S
N339 C332 1.356 . S
N339 H342 0.984 . S
N339 H343 0.985 . S
H340 N335 0.984 . S
H341 N335 0.985 . S
H342 N339 0.984 . S
H343 N339 0.985 . S
H344 N338 0.984 . S
H345 N338 0.984 . S
H346 N334 0.984 1_556 S
H347 N334 0.985 1_556 S
C348 C349 1.363 . S
C348 C354 1.379 . S
C348 N356 1.356 . S
C349 C348 1.363 . S
C349 C355 1.363 . S
C350 C351 1.363 . S
C350 C355 1.379 . S
C350 N357 1.356 . S
C351 C350 1.363 . S
C351 C354 1.363 . S
N352 C354 1.356 . S
N352 H364 0.984 . S
N352 H365 0.985 . S
N353 C355 1.356 . S
N353 H358 0.984 . S
N353 H359 0.985 . S
C354 C348 1.379 . S
C354 C351 1.363 . S
C354 N352 1.356 . S
C355 C349 1.363 . S
C355 C350 1.379 . S
C355 N353 1.356 . S
N356 C348 1.356 . S
N356 H362 0.984 . S
N356 H363 0.984 . S
N357 C350 1.356 . S
N357 H360 0.984 . S
N357 H361 0.985 . S
H358 N353 0.984 . S
H359 N353 0.985 . S
H360 N357 0.984 . S
H361 N357 0.985 . S
H362 N356 0.984 . S
H363 N356 0.984 . S
H364 N352 0.984 . S
H365 N352 0.985 . S
C366 C367 1.363 . S
C366 C372 1.379 . S
C366 N374 1.356 . S
C367 C366 1.363 . S
C367 C373 1.363 . S
C368 C369 1.363 . S
C368 C373 1.379 . S
C368 N375 1.356 . S
C369 C368 1.363 . S
C369 C372 1.363 . S
N370 C372 1.356 . S
N370 H382 0.984 . S
N370 H383 0.985 . S
N371 C373 1.356 . S
N371 H376 0.984 . S
N371 H377 0.985 1_655 S
C372 C366 1.379 . S
C372 C369 1.363 . S
C372 N370 1.356 . S
C373 C367 1.363 . S
C373 C368 1.379 . S
C373 N371 1.356 . S
N374 C366 1.356 . S
N374 H380 0.984 . S
N374 H381 0.984 . S
N375 C368 1.356 . S
N375 H378 0.984 . S
N375 H379 0.985 . S
H376 N371 0.984 . S
H377 N371 0.985 1_455 S
H378 N375 0.984 . S
H379 N375 0.985 . S
H380 N374 0.984 . S
H381 N374 0.984 . S
H382 N370 0.984 . S
H383 N370 0.985 . S
C384 C385 1.363 . S
C384 C390 1.379 . S
C384 N392 1.356 . S
C385 C384 1.363 . S
C385 C391 1.363 . S
C386 C387 1.363 . S
C386 C391 1.379 . S
C386 N393 1.356 . S
C387 C386 1.363 . S
C387 C390 1.363 . S
N388 C390 1.356 1_565 S
N388 H400 0.984 . S
N388 H401 0.985 . S
N389 C391 1.356 . S
N389 H394 0.984 . S
N389 H395 0.985 . S
C390 C384 1.379 . S
C390 C387 1.363 . S
C390 N388 1.356 1_545 S
C391 C385 1.363 . S
C391 C386 1.379 . S
C391 N389 1.356 . S
N392 C384 1.356 . S
N392 H398 0.984 1_545 S
N392 H399 0.984 . S
N393 C386 1.356 . S
N393 H396 0.984 . S
N393 H397 0.985 . S
H394 N389 0.984 . S
H395 N389 0.985 . S
H396 N393 0.984 . S
H397 N393 0.985 . S
H398 N392 0.984 1_565 S
H399 N392 0.984 . S
H400 N388 0.984 . S
H401 N388 0.985 . S
C402 C403 1.363 . S
C402 C408 1.379 . S
C402 N410 1.356 . S
C403 C402 1.363 . S
C403 C409 1.363 . S
C404 C405 1.363 . S
C404 C409 1.379 . S
C404 N411 1.356 . S
C405 C404 1.363 . S
C405 C408 1.363 . S
N406 C408 1.356 . S
N406 H418 0.984 . S
N406 H419 0.985 . S
N407 C409 1.356 . S
N407 H412 0.984 . S
N407 H413 0.985 . S
C408 C402 1.379 . S
C408 C405 1.363 . S
C408 N406 1.356 . S
C409 C403 1.363 . S
C409 C404 1.379 . S
C409 N407 1.356 . S
N410 C402 1.356 . S
N410 H416 0.984 . S
N410 H417 0.984 . S
N411 C404 1.356 . S
N411 H414 0.984 . S
N411 H415 0.985 . S
H412 N407 0.984 . S
H413 N407 0.985 . S
H414 N411 0.984 . S
H415 N411 0.985 . S
H416 N410 0.984 . S
H417 N410 0.984 . S
H418 N406 0.984 . S
H419 N406 0.985 . S
C420 C421 1.363 . S
C420 C426 1.379 . S
C420 N428 1.356 . S
C421 C420 1.363 . S
C421 C427 1.363 . S
C422 C423 1.363 . S
C422 C427 1.379 . S
C422 N429 1.356 . S
C423 C422 1.363 . S
C423 C426 1.363 . S
N424 C426 1.356 1_655 S
N424 H436 0.984 . S
N424 H437 0.985 . S
N425 C427 1.356 . S
N425 H430 0.984 . S
N425 H431 0.985 . S
C426 C420 1.379 . S
C426 C423 1.363 . S
C426 N424 1.356 1_455 S
C427 C421 1.363 . S
C427 C422 1.379 . S
C427 N425 1.356 . S
N428 C420 1.356 . S
N428 H434 0.984 1_455 S
N428 H435 0.984 . S
N429 C422 1.356 . S
N429 H432 0.984 . S
N429 H433 0.985 . S
H430 N425 0.984 . S
H431 N425 0.985 . S
H432 N429 0.984 . S
H433 N429 0.985 . S
H434 N428 0.984 1_655 S
H435 N428 0.984 . S
H436 N424 0.984 . S
H437 N424 0.985 . S
C438 C439 1.363 . S
C438 C444 1.379 . S
C438 N446 1.356 . S
C439 C438 1.363 . S
C439 C445 1.363 . S
C440 C441 1.363 . S
C440 C445 1.379 . S
C440 N447 1.356 . S
C441 C440 1.363 . S
C441 C444 1.363 . S
N442 C444 1.356 . S
N442 H454 0.984 . S
N442 H455 0.985 . S
N443 C445 1.356 . S
N443 H448 0.984 . S
N443 H449 0.985 . S
C444 C438 1.379 . S
C444 C441 1.363 . S
C444 N442 1.356 . S
C445 C439 1.363 . S
C445 C440 1.379 . S
C445 N443 1.356 . S
N446 C438 1.356 . S
N446 H452 0.984 . S
N446 H453 0.984 . S
N447 C440 1.356 . S
N447 H450 0.984 . S
N447 H451 0.985 . S
H448 N443 0.984 . S
H449 N443 0.985 . S
H450 N447 0.984 . S
H451 N447 0.985 . S
H452 N446 0.984 . S
H453 N446 0.984 . S
H454 N442 0.984 . S
H455 N442 0.985 . S
C456 C457 1.363 . S
C456 C462 1.379 . S
C456 N464 1.356 . S
C457 C456 1.363 . S
C457 C463 1.363 . S
C458 C459 1.363 1_556 S
C458 C463 1.379 . S
C458 N465 1.356 1_556 S
C459 C458 1.363 1_554 S
C459 C462 1.363 1_554 S
N460 C462 1.356 1_554 S
N460 H472 0.984 . S
N460 H473 0.985 . S
N461 C463 1.356 . S
N461 H466 0.984 . S
N461 H467 0.985 . S
C462 C456 1.379 . S
C462 C459 1.363 1_556 S
C462 N460 1.356 1_556 S
C463 C457 1.363 . S
C463 C458 1.379 . S
C463 N461 1.356 . S
N464 C456 1.356 . S
N464 H470 0.984 . S
N464 H471 0.984 . S
N465 C458 1.356 1_554 S
N465 H468 0.984 . S
N465 H469 0.985 . S
H466 N461 0.984 . S
H467 N461 0.985 . S
H468 N465 0.984 . S
H469 N465 0.985 . S
H470 N464 0.984 . S
H471 N464 0.984 . S
H472 N460 0.984 . S
H473 N460 0.985 . S
C474 C475 1.362 1_455 S
C474 C480 1.380 . S
C474 N482 1.356 1_455 S
C475 C474 1.362 1_655 S
C475 C481 1.363 1_545 S
C476 C477 1.363 1_655 S
C476 C481 1.379 1_545 S
C476 N483 1.356 1_545 S
C477 C476 1.363 1_455 S
C477 C480 1.363 . S
N478 C480 1.356 . S
N478 H490 0.984 . S
N478 H491 0.985 . S
N479 C481 1.356 . S
N479 H484 0.984 . S
N479 H485 0.985 . S
C480 C474 1.380 . S
C480 C477 1.363 . S
C480 N478 1.356 . S
C481 C475 1.363 1_565 S
C481 C476 1.379 1_565 S
C481 N479 1.356 . S
N482 C474 1.356 1_655 S
N482 H488 0.984 1_655 S
N482 H489 0.984 . S
N483 C476 1.356 1_565 S
N483 H486 0.984 1_665 S
N483 H487 0.985 . S
H484 N479 0.984 . S
H485 N479 0.985 . S
H486 N483 0.984 1_445 S
H487 N483 0.985 . S
H488 N482 0.984 1_455 S
H489 N482 0.984 . S
H490 N478 0.984 . S
H491 N478 0.985 . S
C492 C493 1.363 . S
C492 C498 1.379 . S
C492 N500 1.356 . S
C493 C492 1.363 . S
C493 C499 1.363 1_565 S
C494 C495 1.363 1_545 S
C494 C499 1.379 . S
C494 N501 1.356 . S
C495 C494 1.363 1_565 S
C495 C498 1.363 . S
N496 C498 1.356 . S
N496 H508 0.984 . S
N496 H509 0.985 . S
N497 C499 1.356 . S
N497 H502 0.984 . S
N497 H503 0.985 . S
C498 C492 1.379 . S
C498 C495 1.363 . S
C498 N496 1.356 . S
C499 C493 1.363 1_545 S
C499 C494 1.379 . S
C499 N497 1.356 . S
N500 C492 1.356 . S
N500 H506 0.984 . S
N500 H507 0.984 . S
N501 C494 1.356 . S
N501 H504 0.984 . S
N501 H505 0.985 . S
H502 N497 0.984 . S
H503 N497 0.985 . S
H504 N501 0.984 . S
H505 N501 0.985 . S
H506 N500 0.984 . S
H507 N500 0.984 . S
H508 N496 0.984 . S
H509 N496 0.985 . S
C510 C511 1.363 . S
C510 C516 1.379 . S
C510 N518 1.356 1_565 S
C511 C510 1.363 . S
C511 C517 1.363 . S
C512 C513 1.363 . S
C512 C517 1.379 . S
C512 N519 1.356 1_556 S
C513 C512 1.363 . S
C513 C516 1.363 . S
N514 C516 1.356 1_454 S
N514 H526 0.984 1_564 S
N514 H527 0.985 . S
N515 C517 1.356 . S
N515 H520 0.984 . S
N515 H521 0.985 . S
C516 C510 1.379 . S
C516 C513 1.363 . S
C516 N514 1.356 1_656 S
C517 C511 1.363 . S
C517 C512 1.379 . S
C517 N515 1.356 . S
N518 C510 1.356 1_545 S
N518 H524 0.984 1_655 S
N518 H525 0.984 . S
N519 C512 1.356 1_554 S
N519 H522 0.984 . S
N519 H523 0.985 1_554 S
H520 N515 0.984 . S
H521 N515 0.985 . S
H522 N519 0.984 . S
H523 N519 0.985 1_556 S
H524 N518 0.984 1_455 S
H525 N518 0.984 . S
H526 N514 0.984 1_546 S
H527 N514 0.985 . S
C528 C529 1.363 . S
C528 C534 1.379 . S
C528 N536 1.356 1_655 S
C529 C528 1.363 . S
C529 C535 1.363 . S
C530 C531 1.363 . S
C530 C535 1.379 . S
C530 N537 1.356 . S
C531 C530 1.363 . S
C531 C534 1.363 . S
N532 C534 1.356 . S
N532 H544 0.984 . S
N532 H545 0.985 . S
N533 C535 1.356 . S
N533 H538 0.984 . S
N533 H539 0.985 . S
C534 C528 1.379 . S
C534 C531 1.363 . S
C534 N532 1.356 . S
C535 C529 1.363 . S
C535 C530 1.379 . S
C535 N533 1.356 . S
N536 C528 1.356 1_455 S
N536 H542 0.984 . S
N536 H543 0.984 . S
N537 C530 1.356 . S
N537 H540 0.984 . S
N537 H541 0.985 . S
H538 N533 0.984 . S
H539 N533 0.985 . S
H540 N537 0.984 . S
H541 N537 0.985 . S
H542 N536 0.984 . S
H543 N536 0.984 . S
H544 N532 0.984 . S
H545 N532 0.985 . S
C546 C547 1.363 1_565 S
C546 C552 1.379 . S
C546 N554 1.356 . S
C547 C546 1.363 1_545 S
C547 C553 1.363 . S
C548 C549 1.363 1_545 S
C548 C553 1.379 . S
C548 N555 1.356 . S
C549 C548 1.363 1_565 S
C549 C552 1.363 . S
N550 C552 1.356 . S
N550 H562 0.984 . S
N550 H563 0.986 . S
N551 C553 1.356 . S
N551 H556 0.984 . S
N551 H557 0.985 . S
C552 C546 1.379 . S
C552 C549 1.363 . S
C552 N550 1.356 . S
C553 C547 1.363 . S
C553 C548 1.379 . S
C553 N551 1.356 . S
N554 C546 1.356 . S
N554 H560 0.984 . S
N554 H561 0.984 . S
N555 C548 1.356 . S
N555 H558 0.984 1_545 S
N555 H559 0.985 . S
H556 N551 0.984 . S
H557 N551 0.985 . S
H558 N555 0.984 1_565 S
H559 N555 0.985 . S
H560 N554 0.984 . S
H561 N554 0.984 . S
H562 N550 0.984 . S
H563 N550 0.986 . S
C241 C185 1.696 . S
C243 C20 1.705 . S
C259 C220 1.705 . S
C261 C65 1.696 . S
C277 C25 1.696 . S
C279 C100 1.705 . S
C295 C60 1.705 . S
C297 C145 1.696 . S
C313 C105 1.696 . S
C315 C180 1.706 . S
C331 C140 1.705 . S
C333 C225 1.696 . S
C349 C2 2.156 . S
C351 C143 2.055 . S
C367 C162 2.156 . S
C369 C63 2.055 . S
C385 C223 2.055 . S
C387 C82 2.156 . S
C403 C103 2.055 . S
C405 C202 2.156 . S
C421 C23 2.055 . S
C423 C122 2.156 . S
C439 C183 2.055 . S
C441 C42 2.156 . S
C457 C231 1.722 . S
C459 C31 1.722 . S
C475 C44 0.920 . S
C477 C4 0.920 . S
C493 C111 1.722 . S
C495 C71 1.722 1_565 S
C511 C84 0.921 . S
C513 C124 0.921 1_556 S
C529 C191 1.722 1_655 S
C531 C151 1.722 . S
C547 C204 0.920 . S
C549 C164 0.920 . S
