# Generated by pormake.
# Topology snk, (6)-cn, num edge types: 1
# Building blocks:
#     Node 0, Type 0, BuildingBlock: INOVEN_clean_sbu_0, # of connection points: 6
#     Node 1, Type 0, BuildingBlock: INOVEN_clean_sbu_0, # of connection points: 6
#     Node 2, Type 0, BuildingBlock: INOVEN_clean_sbu_0, # of connection points: 6
#     Node 3, Type 0, BuildingBlock: INOVEN_clean_sbu_0, # of connection points: 6
#     Node 4, Type 0, BuildingBlock: INOVEN_clean_sbu_0, # of connection points: 6
#     Node 5, Type 0, BuildingBlock: INOVEN_clean_sbu_0, # of connection points: 6
#     Node 6, Type 0, BuildingBlock: INOVEN_clean_sbu_0, # of connection points: 6
#     Node 7, Type 0, BuildingBlock: INOVEN_clean_sbu_0, # of connection points: 6
#     Edge 8, Type (0, 0), None
#     Edge 9, Type (0, 0), None
#     Edge 10, Type (0, 0), None
#     Edge 11, Type (0, 0), None
#     Edge 12, Type (0, 0), None
#     Edge 13, Type (0, 0), None
#     Edge 14, Type (0, 0), None
#     Edge 15, Type (0, 0), None
#     Edge 16, Type (0, 0), None
#     Edge 17, Type (0, 0), None
#     Edge 18, Type (0, 0), None
#     Edge 19, Type (0, 0), None
#     Edge 20, Type (0, 0), None
#     Edge 21, Type (0, 0), None
#     Edge 22, Type (0, 0), None
#     Edge 23, Type (0, 0), None
#     Edge 24, Type (0, 0), None
#     Edge 25, Type (0, 0), None
#     Edge 26, Type (0, 0), None
#     Edge 27, Type (0, 0), None
#     Edge 28, Type (0, 0), None
#     Edge 29, Type (0, 0), None
#     Edge 30, Type (0, 0), None
#     Edge 31, Type (0, 0), None
# Relax obj value: 0.192
# Max RMSD: 0.287
# Mean RMSD: 0.242
data_MOF--net-snk--node1-INOVEN_clean_sbu_0--edge1-none
_symmetry_space_group_name_H-M    P1
_symmetry_Int_Tables_number       1
_symmetry_cell_setting            triclinic
loop_
_symmetry_equiv_pos_as_xyz
'x, y, z'
_cell_length_a     15.70112
_cell_length_b     15.694269
_cell_length_c     15.494809
_cell_angle_alpha  95.514704
_cell_angle_beta   95.572968
_cell_angle_gamma 91.632117
loop_
_atom_site_label
_atom_site_type_symbol
_atom_site_fract_x
_atom_site_fract_y
_atom_site_fract_z
_atom_type_partial_charge
Gd0 Gd -0.04478 0.88836 0.49652 0.0
Gd1 Gd -0.01249 0.02617 0.63087 0.0
C2 C 0.07719 0.04911 0.46358 0.0
C3 C -0.03516 0.81712 0.34342 0.0
C4 C -0.01301 0.86463 0.269 0.0
C5 C 0.06522 0.85484 0.23236 0.0
C6 C 0.93552 0.92971 0.24107 0.0
C7 C 0.02 0.94577 0.11868 0.0
C8 C -0.0473 -0.02984 0.16819 0.0
C9 C 0.08068 0.89273 0.15641 0.0
C10 C 0.04871 0.84181 0.63925 0.0
C11 C 0.84801 0.87437 0.65515 0.0
C12 C 0.02725 0.09395 0.78734 0.0
C13 C 0.02637 0.05142 0.86938 0.0
C14 C 0.94971 0.0404 0.90678 0.0
C15 C 0.10055 0.01657 0.90853 0.0
C16 C 0.02395 -0.02355 1.02969 0.0
C17 C 0.10006 -0.01882 0.98866 0.0
C18 C 0.94863 0.00233 0.98425 0.0
C19 C 0.87504 0.06919 0.49618 0.0
O20 O 0.01772 -0.00763 0.43008 0.0
O21 O 0.08837 0.06831 0.54859 0.0
O22 O 0.02678 0.81354 0.40547 0.0
O23 O 0.89056 0.83169 0.37367 0.0
O24 O -0.00732 0.79227 0.5901 0.0
O25 O 0.06014 0.91087 0.6044 0.0
O26 O 0.90288 0.93516 0.69193 0.0
O27 O 0.84588 0.84835 0.57066 0.0
O28 O -0.04707 0.10472 0.74409 0.0
O29 O 0.08502 0.06888 0.73612 0.0
O30 O 0.93065 0.12192 0.54292 0.0
O31 O 0.87554 -0.00207 0.52836 0.0
H32 H 0.11392 0.81689 0.26111 0.0
H33 H 0.88148 0.94965 0.27534 0.0
H34 H 0.91287 0.02066 0.15055 0.0
H35 H 0.13896 0.87834 0.12699 0.0
H36 H 0.88986 0.0606 0.87592 0.0
H37 H 0.15992 0.01977 0.87884 0.0
H38 H 0.15982 -0.03959 1.01895 0.0
H39 H 0.88783 -0.00686 1.00881 0.0
Gd40 Gd 0.25816 0.67674 0.75136 0.0
Gd41 Gd 0.13307 0.69884 0.8726 0.0
C42 C 0.1069 0.80686 0.7072 0.0
C43 C 0.30431 0.62721 0.60317 0.0
C44 C 0.25698 0.63192 0.51755 0.0
C45 C 0.23084 0.71096 0.49164 0.0
C46 C 0.23349 0.5568 0.46241 0.0
C47 C 0.179 0.64257 0.34991 0.0
C48 C 0.19534 0.56215 0.37818 0.0
C49 C 0.19554 0.71671 0.40722 0.0
C50 C 0.31438 0.79755 0.88503 0.0
C51 C 0.31037 0.59586 0.92668 0.0
C52 C 0.05277 0.70973 1.00823 0.0
C53 C 0.08511 0.69115 0.0951 0.0
C54 C 0.02821 0.66731 0.15262 0.0
C55 C 0.17381 0.69498 0.1204 0.0
C56 C 0.14734 0.65081 0.26004 0.0
C57 C 0.20482 0.67181 0.20157 0.0
C58 C 0.05925 0.65199 0.23641 0.0
C59 C 0.07332 0.59361 0.72937 0.0
O60 O 0.17098 0.76363 0.67991 0.0
O61 O 0.08156 0.79842 0.7853 0.0
O62 O 0.33397 0.69954 0.64699 0.0
O63 O 0.26976 0.57432 0.65122 0.0
O64 O 0.36287 0.74718 0.84127 0.0
O65 O 0.23762 0.7868 0.84991 0.0
O66 O 0.23964 0.63139 0.94967 0.0
O67 O 0.33126 0.59868 0.84665 0.0
O68 O 0.04545 0.64229 0.9514 0.0
O69 O 0.08811 0.77688 0.97981 0.0
O70 O 0.03007 0.65054 0.76937 0.0
O71 O 0.14796 0.59313 0.77004 0.0
H72 H 0.2414 0.76936 0.53502 0.0
H73 H 0.24549 0.49429 0.48377 0.0
H74 H 0.18072 0.50416 0.33468 0.0
H75 H 0.18342 0.77935 0.38641 0.0
H76 H -0.04015 0.66541 0.13461 0.0
H77 H 0.21864 0.71861 0.07928 0.0
H78 H 0.27332 0.67498 0.22067 0.0
H79 H 0.01494 0.64592 0.28376 0.0
Gd80 Gd 0.44666 0.88482 0.12232 0.0
Gd81 Gd 0.42567 0.01031 1.00139 0.0
C82 C 0.34402 0.06235 0.17622 0.0
C83 C 0.45633 0.80424 0.25794 0.0
C84 C 0.4378 0.83665 0.34481 0.0
C85 C 0.41393 0.77983 0.40248 0.0
C86 C 0.44194 0.92539 0.37003 0.0
C87 C 0.39811 0.89917 0.50988 0.0
C88 C 0.41912 -0.04346 0.45124 0.0
C89 C 0.3989 0.81101 0.48631 0.0
C90 C 0.34208 0.82534 0.97846 0.0
C91 C 0.55535 0.85868 0.9574 0.0
C92 C 0.37669 0.05686 0.85314 0.0
C93 C 0.38094 0.00925 0.76756 0.0
C94 C 0.4598 -0.01663 0.74109 0.0
C95 C 0.30553 -0.01475 0.71298 0.0
C96 C 0.3905 0.93096 0.59985 0.0
C97 C 0.31035 0.9469 0.62876 0.0
C98 C 0.46499 0.94799 0.65662 0.0
C99 C 0.54566 0.066 0.13578 0.0
O100 O 0.37891 -0.00876 0.19911 0.0
O101 O 0.34764 0.08367 0.09642 0.0
O102 O 0.38906 0.79761 0.20089 0.0
O103 O 0.52387 0.83904 0.22976 0.0
O104 O 0.39859 0.78186 1.01886 0.0
O105 O 0.34161 0.9 1.01901 0.0
O106 O 0.51285 0.92335 0.93026 0.0
O107 O 0.54619 0.83294 1.03524 0.0
O108 O 0.44928 0.08582 0.89697 0.0
O109 O 0.32346 0.02297 0.90125 0.0
O110 O 0.49568 0.11473 0.09182 0.0
O111 O 0.53517 -0.01074 0.10045 0.0
H112 H 0.41183 0.71142 0.38458 0.0
H113 H 0.46571 -0.02987 0.32887 0.0
H114 H 0.4227 0.02507 0.47027 0.0
H115 H 0.39287 0.76677 0.5338 0.0
H116 H 0.51844 -0.00589 0.78413 0.0
H117 H 0.24322 -0.00294 0.73476 0.0
H118 H 0.25209 0.93189 0.58572 0.0
H119 H 0.52743 0.93607 0.63534 0.0
Gd120 Gd 0.27416 0.23906 0.38073 0.0
Gd121 Gd 0.13634 0.20739 0.24647 0.0
C122 C 0.12232 0.09968 0.40485 0.0
C123 C 0.34187 0.27804 0.53735 0.0
C124 C 0.29919 0.27738 0.61928 0.0
C125 C 0.28915 0.20102 0.65759 0.0
C126 C 0.26341 0.35143 0.65754 0.0
C127 C 0.22443 0.27555 0.77967 0.0
C128 C 0.22808 0.35123 0.73768 0.0
C129 C 0.25121 0.20021 0.73513 0.0
C130 C 0.3173 0.1268 0.24588 0.0
C131 C 0.29739 0.32926 0.21387 0.0
C132 C 0.06503 0.21739 0.09337 0.0
C133 C 0.11258 0.23938 1.01896 0.0
C134 C 0.102 0.31709 0.98146 0.0
C135 C 0.17847 0.18851 0.99201 0.0
C136 C 0.19383 0.27206 0.86871 0.0
C137 C 0.21909 0.20561 0.9192 0.0
C138 C 0.13992 0.33236 0.90553 0.0
C139 C 0.09027 0.30046 0.38954 0.0
O140 O 0.18321 0.15438 0.44167 0.0
O141 O 0.09618 0.09782 0.32039 0.0
O142 O 0.35214 0.20364 0.49407 0.0
O143 O 0.31746 0.33613 0.48613 0.0
O144 O 0.36995 0.18228 0.29289 0.0
O145 O 0.24593 0.12738 0.27773 0.0
O146 O 0.24042 0.27003 0.18027 0.0
O147 O 0.31669 0.34017 0.29887 0.0
O148 O 0.06179 0.27935 0.15543 0.0
O149 O 0.07931 0.143 0.12363 0.0
O150 O 0.04061 0.24456 0.34037 0.0
O151 O 0.15911 0.31211 0.35443 0.0
H152 H 0.31007 0.14122 0.6274 0.0
H153 H 0.26585 0.41052 0.62718 0.0
H154 H 0.20655 0.41096 0.76724 0.0
H155 H 0.2428 0.13962 0.76048 0.0
H156 H 0.06355 0.3656 1.00963 0.0
H157 H 0.19886 0.13499 1.02698 0.0
H158 H 0.27035 0.16638 0.90236 0.0
H159 H 0.12496 0.39021 0.87545 0.0
Gd160 Gd 0.75822 0.17678 0.25133 0.0
Gd161 Gd 0.63306 0.19877 0.37254 0.0
C162 C 0.6069 0.30682 0.20711 0.0
C163 C 0.80434 0.12723 0.10313 0.0
C164 C 0.75698 0.13193 1.01752 0.0
C165 C 0.73083 0.21097 0.9916 0.0
C166 C 0.73348 0.0568 0.96239 0.0
C167 C 0.67896 0.14254 0.84989 0.0
C168 C 0.6953 0.06214 0.87818 0.0
C169 C 0.6955 0.21669 0.90718 0.0
C170 C 0.81435 0.29758 0.38502 0.0
C171 C 0.81041 0.09585 0.42661 0.0
C172 C 0.55275 0.20961 0.50816 0.0
C173 C 0.58508 0.19105 0.59505 0.0
C174 C 0.52818 0.16722 0.65256 0.0
C175 C 0.67378 0.19488 0.62035 0.0
C176 C 0.6473 0.15076 0.76001 0.0
C177 C 0.70478 0.17174 0.70154 0.0
C178 C 0.55921 0.15193 0.73637 0.0
C179 C 0.57341 0.0937 0.22923 0.0
O180 O 0.67111 0.26373 0.17992 0.0
O181 O 0.58148 0.29828 0.28517 0.0
O182 O 0.83401 0.19957 0.14694 0.0
O183 O 0.76979 0.07434 0.15119 0.0
O184 O 0.86288 0.24726 0.34126 0.0
O185 O 0.7376 0.28679 0.34989 0.0
O186 O 0.73965 0.13131 0.4496 0.0
O187 O 0.83134 0.09873 0.3466 0.0
O188 O 0.54547 0.14218 0.45134 0.0
O189 O 0.58807 0.27678 0.47975 0.0
O190 O 0.53005 0.15047 0.26931 0.0
O191 O 0.64803 0.09315 0.26993 0.0
H192 H 0.7414 0.26937 1.03497 0.0
H193 H 0.74549 -0.0057 0.98377 0.0
H194 H 0.68067 0.00413 0.83469 0.0
H195 H 0.68337 0.27933 0.88637 0.0
H196 H 0.45982 0.16532 0.63455 0.0
H197 H 0.71861 0.21849 0.57923 0.0
H198 H 0.77328 0.17491 0.72064 0.0
H199 H 0.51489 0.14587 0.78371 0.0
Gd200 Gd 0.77413 0.73906 0.88069 0.0
Gd201 Gd 0.63631 0.70738 0.74642 0.0
C202 C 0.62227 0.59969 0.90482 0.0
C203 C 0.84184 0.77806 1.03731 0.0
C204 C 0.79919 0.77739 0.11925 0.0
C205 C 0.78916 0.70104 0.15757 0.0
C206 C 0.76344 0.85145 0.15753 0.0
C207 C 0.72447 0.77557 0.27967 0.0
C208 C 0.72812 0.85126 0.23769 0.0
C209 C 0.75123 0.70023 0.23511 0.0
C210 C 0.81725 0.62685 0.74579 0.0
C211 C 0.79736 0.82927 0.71383 0.0
C212 C 0.56502 0.71732 0.59331 0.0
C213 C 0.6126 0.73934 0.51893 0.0
C214 C 0.60203 0.81707 0.48146 0.0
C215 C 0.67849 0.68848 0.49197 0.0
C216 C 0.69387 0.77207 0.36871 0.0
C217 C 0.71911 0.7056 0.41917 0.0
C218 C 0.63997 0.83236 0.40554 0.0
C219 C 0.5902 0.80055 0.88937 0.0
O220 O 0.68314 0.65442 0.94163 0.0
O221 O 0.59615 0.59782 0.82035 0.0
O222 O 0.85212 0.70366 0.99404 0.0
O223 O 0.81742 0.83614 0.9861 0.0
O224 O 0.86993 0.68226 0.79287 0.0
O225 O 0.74592 0.62739 0.77769 0.0
O226 O 0.74037 0.77006 0.68023 0.0
O227 O 0.81667 0.84016 0.79884 0.0
O228 O 0.56171 0.77928 0.65536 0.0
O229 O 0.57934 0.64295 0.62358 0.0
O230 O 0.54057 0.74453 0.84031 0.0
O231 O 0.6591 0.81214 0.85433 0.0
H232 H 0.81007 0.64123 0.12737 0.0
H233 H 0.76588 0.91054 0.12718 0.0
H234 H 0.70661 0.91099 0.26726 0.0
H235 H 0.74282 0.63964 0.26045 0.0
H236 H 0.56358 0.86557 0.50964 0.0
H237 H 0.69887 0.63494 0.52692 0.0
H238 H 0.77038 0.66637 0.40232 0.0
H239 H 0.62503 0.89023 0.37548 0.0
Gd240 Gd 0.45518 0.38837 0.9965 0.0
Gd241 Gd 0.48754 0.52613 0.13085 0.0
C242 C 0.57715 0.54911 0.96354 0.0
C243 C 0.46475 0.31713 0.84339 0.0
C244 C 0.48692 0.36462 0.76896 0.0
C245 C 0.56514 0.35477 0.73232 0.0
C246 C 0.43549 0.42972 0.74103 0.0
C247 C 0.51998 0.44573 0.61864 0.0
C248 C 0.45269 0.47016 0.66816 0.0
C249 C 0.58063 0.39265 0.65637 0.0
C250 C 0.54879 0.34174 0.13908 0.0
C251 C 0.34804 0.37436 0.15517 0.0
C252 C 0.52734 0.59389 0.28732 0.0
C253 C 0.52643 0.55137 0.36935 0.0
C254 C 0.44976 0.54038 0.40675 0.0
C255 C 0.6006 0.51651 0.40852 0.0
C256 C 0.52395 0.47641 0.52966 0.0
C257 C 0.60007 0.48111 0.48865 0.0
C258 C 0.44865 0.50231 0.48421 0.0
C259 C 0.37497 0.56921 0.99628 0.0
O260 O 0.51765 0.4924 0.93005 0.0
O261 O 0.58837 0.56829 1.04855 0.0
O262 O 0.52668 0.31351 0.90544 0.0
O263 O 0.39048 0.33175 0.87365 0.0
O264 O 0.4926 0.29226 0.09007 0.0
O265 O 0.56019 0.41084 0.10431 0.0
O266 O 0.40295 0.43511 0.19195 0.0
O267 O 0.34587 0.34836 0.07067 0.0
O268 O 0.45303 0.60472 0.24408 0.0
O269 O 0.58509 0.56877 0.23609 0.0
O270 O 0.43068 0.6219 1.04293 0.0
O271 O 0.3755 0.49793 1.02841 0.0
H272 H 0.61382 0.3168 0.76107 0.0
H273 H 0.38144 0.44968 0.77529 0.0
H274 H 0.41288 0.52068 0.65051 0.0
H275 H 0.6389 0.37823 0.62695 0.0
H276 H 0.38992 0.5606 0.37588 0.0
H277 H 0.65997 0.51969 0.37884 0.0
H278 H 0.65983 0.46032 0.51894 0.0
H279 H 0.38784 0.49315 0.50877 0.0
Gd280 Gd 0.94657 0.38479 0.62235 0.0
Gd281 Gd 0.92575 0.5103 0.50142 0.0
C282 C 0.844 0.56236 0.67619 0.0
C283 C -0.0438 0.3042 0.75796 0.0
C284 C 0.93772 0.33664 0.84483 0.0
C285 C 0.91387 0.27984 0.90253 0.0
C286 C 0.94189 0.42538 0.87002 0.0
C287 C 0.89812 0.39922 1.00991 0.0
C288 C 0.91911 0.45657 0.95124 0.0
C289 C 0.89888 0.31106 0.98636 0.0
C290 C 0.84203 0.32536 0.47846 0.0
C291 C 0.05537 0.35864 0.45751 0.0
C292 C 0.87681 0.5569 0.35318 0.0
C293 C 0.88104 0.50929 0.26759 0.0
C294 C -0.04012 0.48342 0.2411 0.0
C295 C 0.80561 0.48529 0.21304 0.0
C296 C 0.89055 0.43103 0.09987 0.0
C297 C 0.8104 0.44695 0.12882 0.0
C298 C -0.03495 0.44805 0.15661 0.0
C299 C 0.04554 0.56594 0.63593 0.0
O300 O 0.87882 0.49123 0.69911 0.0
O301 O 0.84768 0.58367 0.5964 0.0
O302 O 0.8889 0.29763 0.70093 0.0
O303 O 0.02376 0.33892 0.72977 0.0
O304 O 0.89849 0.28185 0.51888 0.0
O305 O 0.8416 0.40003 0.51899 0.0
O306 O 0.01293 0.42332 0.4303 0.0
O307 O 0.04613 0.33288 0.53532 0.0
O308 O 0.94942 0.58581 0.39701 0.0
O309 O 0.82356 0.52303 0.40128 0.0
O310 O -0.00429 0.61475 0.59189 0.0
O311 O 0.03514 0.4892 0.60058 0.0
H312 H 0.91176 0.21143 0.88465 0.0
H313 H -0.03435 0.4701 0.82883 0.0
H314 H 0.92271 0.5251 0.97025 0.0
H315 H 0.89287 0.26683 1.03387 0.0
H316 H 0.01854 0.49415 0.28412 0.0
H317 H 0.74331 0.49708 0.23485 0.0
H318 H 0.75213 0.43193 0.08579 0.0
H319 H 0.02749 0.43613 0.13532 0.0
loop_
_geom_bond_atom_site_label_1
_geom_bond_atom_site_label_2
_geom_bond_distance
_geom_bond_site_symmetry_2
_ccdc_geom_bond_type
Gd0 C3 2.818 1_655 S
Gd0 O20 2.377 1_665 S
Gd0 O22 2.448 1_655 S
Gd0 O23 2.506 . S
Gd0 O24 2.435 1_655 S
Gd0 O25 2.717 1_655 S
Gd0 O27 2.395 . S
Gd0 O31 2.327 1_565 S
Gd1 C12 2.818 1_455 S
Gd1 O21 2.395 . S
Gd1 O25 2.327 1_545 S
Gd1 O26 2.377 1_445 S
Gd1 O28 2.448 1_455 S
Gd1 O29 2.506 . S
Gd1 O30 2.435 1_455 S
Gd1 O31 2.717 1_455 S
C2 O20 1.240 . S
C2 O21 1.240 . S
C3 Gd0 2.818 1_455 S
C3 C4 1.510 . S
C3 O22 1.249 . S
C3 O23 1.252 1_455 S
C4 C3 1.510 . S
C4 C5 1.404 . S
C4 C6 1.352 . S
C5 C4 1.404 . S
C5 C9 1.389 . S
C5 H32 0.930 . S
C6 C4 1.352 . S
C6 C8 1.374 . S
C6 H33 0.931 1_455 S
C7 C8 1.359 . S
C7 C9 1.364 . S
C8 C6 1.374 . S
C8 C7 1.359 . S
C8 H34 0.929 1_455 S
C9 C5 1.389 . S
C9 C7 1.364 . S
C9 H35 0.931 . S
C10 O24 1.256 . S
C10 O25 1.257 . S
C11 O26 1.240 . S
C11 O27 1.240 . S
C12 Gd1 2.818 1_655 S
C12 C13 1.510 . S
C12 O28 1.249 . S
C12 O29 1.252 1_655 S
C13 C12 1.510 . S
C13 C14 1.404 . S
C13 C15 1.353 . S
C14 C13 1.404 . S
C14 C18 1.389 . S
C14 H36 0.930 . S
C15 C13 1.353 . S
C15 C17 1.377 . S
C15 H37 0.925 1_655 S
C16 C17 1.359 . S
C16 C18 1.364 . S
C17 C15 1.377 . S
C17 C16 1.359 . S
C17 H38 0.931 1_655 S
C18 C14 1.389 . S
C18 C16 1.364 . S
C18 H39 0.931 . S
C19 O30 1.256 . S
C19 O31 1.257 . S
O20 Gd0 2.377 1_445 S
O20 C2 1.240 . S
O21 Gd1 2.395 . S
O21 C2 1.240 . S
O22 Gd0 2.448 1_455 S
O22 C3 1.249 . S
O23 Gd0 2.506 . S
O23 C3 1.252 1_655 S
O24 Gd0 2.435 1_455 S
O24 C10 1.256 . S
O25 Gd0 2.717 1_455 S
O25 Gd1 2.327 1_565 S
O25 C10 1.257 . S
O26 Gd1 2.377 1_665 S
O26 C11 1.240 . S
O27 Gd0 2.395 . S
O27 C11 1.240 . S
O28 Gd1 2.448 1_655 S
O28 C12 1.249 . S
O29 Gd1 2.506 . S
O29 C12 1.252 1_455 S
O30 Gd1 2.435 1_655 S
O30 C19 1.256 . S
O31 Gd0 2.327 1_545 S
O31 Gd1 2.717 1_655 S
O31 C19 1.257 . S
H32 C5 0.930 . S
H33 C6 0.931 1_655 S
H34 C8 0.929 1_655 S
H35 C9 0.931 . S
H36 C14 0.930 . S
H37 C15 0.925 1_455 S
H38 C17 0.931 1_455 S
H39 C18 0.931 . S
Gd40 C43 2.818 . S
Gd40 O60 2.377 . S
Gd40 O62 2.448 . S
Gd40 O63 2.506 . S
Gd40 O64 2.435 . S
Gd40 O65 2.717 . S
Gd40 O67 2.395 . S
Gd40 O71 2.327 . S
Gd41 C52 2.818 . S
Gd41 O61 2.395 . S
Gd41 O65 2.327 . S
Gd41 O66 2.377 . S
Gd41 O68 2.448 . S
Gd41 O69 2.506 . S
Gd41 O70 2.435 . S
Gd41 O71 2.717 . S
C42 O60 1.240 . S
C42 O61 1.240 . S
C43 Gd40 2.818 . S
C43 C44 1.510 . S
C43 O62 1.249 . S
C43 O63 1.252 . S
C44 C43 1.510 . S
C44 C45 1.404 . S
C44 C46 1.352 . S
C45 C44 1.404 . S
C45 C49 1.389 . S
C45 H72 0.930 . S
C46 C44 1.352 . S
C46 C48 1.374 . S
C46 H73 0.931 . S
C47 C48 1.359 . S
C47 C49 1.364 . S
C48 C46 1.374 . S
C48 C47 1.359 . S
C48 H74 0.931 . S
C49 C45 1.389 . S
C49 C47 1.364 . S
C49 H75 0.931 . S
C50 O64 1.256 . S
C50 O65 1.257 . S
C51 O66 1.240 . S
C51 O67 1.240 . S
C52 Gd41 2.818 . S
C52 C53 1.510 1_556 S
C52 O68 1.249 . S
C52 O69 1.252 . S
C53 C52 1.510 1_554 S
C53 C54 1.404 . S
C53 C55 1.352 . S
C54 C53 1.404 . S
C54 C58 1.389 . S
C54 H76 0.930 . S
C55 C53 1.352 . S
C55 C57 1.374 . S
C55 H77 0.931 . S
C56 C57 1.359 . S
C56 C58 1.364 . S
C57 C55 1.374 . S
C57 C56 1.359 . S
C57 H78 0.931 . S
C58 C54 1.389 . S
C58 C56 1.364 . S
C58 H79 0.931 . S
C59 O70 1.256 . S
C59 O71 1.257 . S
O60 Gd40 2.377 . S
O60 C42 1.240 . S
O61 Gd41 2.395 . S
O61 C42 1.240 . S
O62 Gd40 2.448 . S
O62 C43 1.249 . S
O63 Gd40 2.506 . S
O63 C43 1.252 . S
O64 Gd40 2.435 . S
O64 C50 1.256 . S
O65 Gd40 2.717 . S
O65 Gd41 2.327 . S
O65 C50 1.257 . S
O66 Gd41 2.377 . S
O66 C51 1.240 . S
O67 Gd40 2.395 . S
O67 C51 1.240 . S
O68 Gd41 2.448 . S
O68 C52 1.249 . S
O69 Gd41 2.506 . S
O69 C52 1.252 . S
O70 Gd41 2.435 . S
O70 C59 1.256 . S
O71 Gd40 2.327 . S
O71 Gd41 2.717 . S
O71 C59 1.257 . S
H72 C45 0.930 . S
H73 C46 0.931 . S
H74 C48 0.931 . S
H75 C49 0.931 . S
H76 C54 0.930 . S
H77 C55 0.931 . S
H78 C57 0.931 . S
H79 C58 0.931 . S
Gd80 C83 2.818 . S
Gd80 O100 2.377 1_565 S
Gd80 O102 2.448 . S
Gd80 O103 2.506 . S
Gd80 O104 2.435 1_554 S
Gd80 O105 2.717 1_554 S
Gd80 O107 2.395 1_554 S
Gd80 O111 2.327 1_565 S
Gd81 C92 2.818 . S
Gd81 O101 2.395 1_556 S
Gd81 O105 2.327 1_545 S
Gd81 O106 2.377 1_545 S
Gd81 O108 2.448 . S
Gd81 O109 2.506 . S
Gd81 O110 2.435 1_556 S
Gd81 O111 2.717 1_556 S
C82 O100 1.240 . S
C82 O101 1.240 . S
C83 Gd80 2.818 . S
C83 C84 1.510 . S
C83 O102 1.249 . S
C83 O103 1.252 . S
C84 C83 1.510 . S
C84 C85 1.404 . S
C84 C86 1.352 . S
C85 C84 1.404 . S
C85 C89 1.389 . S
C85 H112 0.930 . S
C86 C84 1.352 . S
C86 C88 1.374 . S
C86 H113 0.931 1_565 S
C87 C88 1.359 . S
C87 C89 1.364 . S
C88 C86 1.374 . S
C88 C87 1.359 . S
C88 H114 0.931 1_565 S
C89 C85 1.389 . S
C89 C87 1.364 . S
C89 H115 0.931 . S
C90 O104 1.256 . S
C90 O105 1.257 . S
C91 O106 1.240 . S
C91 O107 1.240 . S
C92 Gd81 2.818 . S
C92 C93 1.510 . S
C92 O108 1.249 . S
C92 O109 1.252 . S
C93 C92 1.510 . S
C93 C94 1.404 . S
C93 C95 1.352 . S
C94 C93 1.404 . S
C94 C98 1.389 . S
C94 H116 0.930 . S
C95 C93 1.352 . S
C95 C97 1.374 . S
C95 H117 0.931 1_545 S
C96 C97 1.359 . S
C96 C98 1.364 . S
C97 C95 1.374 . S
C97 C96 1.359 . S
C97 H118 0.931 1_545 S
C98 C94 1.389 . S
C98 C96 1.364 . S
C98 H119 0.931 . S
C99 O110 1.256 . S
C99 O111 1.257 . S
O100 Gd80 2.377 1_545 S
O100 C82 1.240 . S
O101 Gd81 2.395 1_554 S
O101 C82 1.240 . S
O102 Gd80 2.448 . S
O102 C83 1.249 . S
O103 Gd80 2.506 . S
O103 C83 1.252 . S
O104 Gd80 2.435 1_556 S
O104 C90 1.256 . S
O105 Gd80 2.717 1_556 S
O105 Gd81 2.327 1_565 S
O105 C90 1.257 . S
O106 Gd81 2.377 1_565 S
O106 C91 1.240 . S
O107 Gd80 2.395 1_556 S
O107 C91 1.240 . S
O108 Gd81 2.448 . S
O108 C92 1.249 . S
O109 Gd81 2.506 . S
O109 C92 1.252 . S
O110 Gd81 2.435 1_554 S
O110 C99 1.256 . S
O111 Gd80 2.327 1_545 S
O111 Gd81 2.717 1_554 S
O111 C99 1.257 . S
H112 C85 0.930 . S
H113 C86 0.931 1_545 S
H114 C88 0.931 1_545 S
H115 C89 0.931 . S
H116 C94 0.930 . S
H117 C95 0.931 1_565 S
H118 C97 0.931 1_565 S
H119 C98 0.931 . S
Gd120 C123 2.818 . S
Gd120 O140 2.377 . S
Gd120 O142 2.448 . S
Gd120 O143 2.506 . S
Gd120 O144 2.435 . S
Gd120 O145 2.717 . S
Gd120 O147 2.395 . S
Gd120 O151 2.327 . S
Gd121 C132 2.818 . S
Gd121 O141 2.395 . S
Gd121 O145 2.327 . S
Gd121 O146 2.377 . S
Gd121 O148 2.448 . S
Gd121 O149 2.506 . S
Gd121 O150 2.435 . S
Gd121 O151 2.717 . S
C122 O140 1.240 . S
C122 O141 1.240 . S
C123 Gd120 2.818 . S
C123 C124 1.510 . S
C123 O142 1.249 . S
C123 O143 1.252 . S
C124 C123 1.510 . S
C124 C125 1.404 . S
C124 C126 1.352 . S
C125 C124 1.404 . S
C125 C129 1.389 . S
C125 H152 0.930 . S
C126 C124 1.352 . S
C126 C128 1.374 . S
C126 H153 0.931 . S
C127 C128 1.359 . S
C127 C129 1.364 . S
C128 C126 1.374 . S
C128 C127 1.359 . S
C128 H154 0.931 . S
C129 C125 1.389 . S
C129 C127 1.364 . S
C129 H155 0.931 . S
C130 O144 1.256 . S
C130 O145 1.257 . S
C131 O146 1.240 . S
C131 O147 1.240 . S
C132 Gd121 2.818 . S
C132 C133 1.510 1_554 S
C132 O148 1.249 . S
C132 O149 1.252 . S
C133 C132 1.510 1_556 S
C133 C134 1.404 . S
C133 C135 1.352 . S
C134 C133 1.404 . S
C134 C138 1.389 . S
C134 H156 0.930 1_455 S
C135 C133 1.352 . S
C135 C137 1.374 . S
C135 H157 0.931 . S
C136 C137 1.359 . S
C136 C138 1.364 . S
C137 C135 1.374 . S
C137 C136 1.359 . S
C137 H158 0.931 . S
C138 C134 1.389 . S
C138 C136 1.364 . S
C138 H159 0.931 1_455 S
C139 O150 1.256 . S
C139 O151 1.257 . S
O140 Gd120 2.377 . S
O140 C122 1.240 . S
O141 Gd121 2.395 . S
O141 C122 1.240 . S
O142 Gd120 2.448 . S
O142 C123 1.249 . S
O143 Gd120 2.506 . S
O143 C123 1.252 . S
O144 Gd120 2.435 . S
O144 C130 1.256 . S
O145 Gd120 2.717 . S
O145 Gd121 2.327 . S
O145 C130 1.257 . S
O146 Gd121 2.377 . S
O146 C131 1.240 . S
O147 Gd120 2.395 . S
O147 C131 1.240 . S
O148 Gd121 2.448 . S
O148 C132 1.249 . S
O149 Gd121 2.506 . S
O149 C132 1.252 . S
O150 Gd121 2.435 . S
O150 C139 1.256 . S
O151 Gd120 2.327 . S
O151 Gd121 2.717 . S
O151 C139 1.257 . S
H152 C125 0.930 . S
H153 C126 0.931 . S
H154 C128 0.931 . S
H155 C129 0.931 . S
H156 C134 0.930 1_655 S
H157 C135 0.931 . S
H158 C137 0.931 . S
H159 C138 0.931 1_655 S
Gd160 C163 2.818 . S
Gd160 O180 2.377 . S
Gd160 O182 2.448 . S
Gd160 O183 2.506 . S
Gd160 O184 2.435 . S
Gd160 O185 2.717 . S
Gd160 O187 2.395 . S
Gd160 O191 2.327 . S
Gd161 C172 2.818 . S
Gd161 O181 2.395 . S
Gd161 O185 2.327 . S
Gd161 O186 2.377 . S
Gd161 O188 2.448 . S
Gd161 O189 2.506 . S
Gd161 O190 2.435 . S
Gd161 O191 2.717 . S
C162 O180 1.240 . S
C162 O181 1.240 . S
C163 Gd160 2.818 . S
C163 C164 1.510 1_554 S
C163 O182 1.249 . S
C163 O183 1.252 . S
C164 C163 1.510 1_556 S
C164 C165 1.404 . S
C164 C166 1.352 . S
C165 C164 1.404 . S
C165 C169 1.389 . S
C165 H192 0.930 . S
C166 C164 1.352 . S
C166 C168 1.374 . S
C166 H193 0.931 . S
C167 C168 1.359 . S
C167 C169 1.364 . S
C168 C166 1.374 . S
C168 C167 1.359 . S
C168 H194 0.931 . S
C169 C165 1.389 . S
C169 C167 1.364 . S
C169 H195 0.931 . S
C170 O184 1.256 . S
C170 O185 1.257 . S
C171 O186 1.240 . S
C171 O187 1.240 . S
C172 Gd161 2.818 . S
C172 C173 1.510 . S
C172 O188 1.249 . S
C172 O189 1.252 . S
C173 C172 1.510 . S
C173 C174 1.404 . S
C173 C175 1.352 . S
C174 C173 1.404 . S
C174 C178 1.389 . S
C174 H196 0.930 . S
C175 C173 1.352 . S
C175 C177 1.374 . S
C175 H197 0.931 . S
C176 C177 1.359 . S
C176 C178 1.364 . S
C177 C175 1.374 . S
C177 C176 1.359 . S
C177 H198 0.931 . S
C178 C174 1.389 . S
C178 C176 1.364 . S
C178 H199 0.931 . S
C179 O190 1.256 . S
C179 O191 1.257 . S
O180 Gd160 2.377 . S
O180 C162 1.240 . S
O181 Gd161 2.395 . S
O181 C162 1.240 . S
O182 Gd160 2.448 . S
O182 C163 1.249 . S
O183 Gd160 2.506 . S
O183 C163 1.252 . S
O184 Gd160 2.435 . S
O184 C170 1.256 . S
O185 Gd160 2.717 . S
O185 Gd161 2.327 . S
O185 C170 1.257 . S
O186 Gd161 2.377 . S
O186 C171 1.240 . S
O187 Gd160 2.395 . S
O187 C171 1.240 . S
O188 Gd161 2.448 . S
O188 C172 1.249 . S
O189 Gd161 2.506 . S
O189 C172 1.252 . S
O190 Gd161 2.435 . S
O190 C179 1.256 . S
O191 Gd160 2.327 . S
O191 Gd161 2.717 . S
O191 C179 1.257 . S
H192 C165 0.930 . S
H193 C166 0.931 . S
H194 C168 0.931 . S
H195 C169 0.931 . S
H196 C174 0.930 . S
H197 C175 0.931 . S
H198 C177 0.931 . S
H199 C178 0.931 . S
Gd200 C203 2.818 . S
Gd200 O220 2.377 . S
Gd200 O222 2.448 . S
Gd200 O223 2.506 . S
Gd200 O224 2.435 . S
Gd200 O225 2.717 . S
Gd200 O227 2.395 . S
Gd200 O231 2.327 . S
Gd201 C212 2.818 . S
Gd201 O221 2.395 . S
Gd201 O225 2.327 . S
Gd201 O226 2.377 . S
Gd201 O228 2.448 . S
Gd201 O229 2.506 . S
Gd201 O230 2.435 . S
Gd201 O231 2.717 . S
C202 O220 1.240 . S
C202 O221 1.240 . S
C203 Gd200 2.818 . S
C203 C204 1.510 1_556 S
C203 O222 1.249 . S
C203 O223 1.252 . S
C204 C203 1.510 1_554 S
C204 C205 1.404 . S
C204 C206 1.352 . S
C205 C204 1.404 . S
C205 C209 1.389 . S
C205 H232 0.930 1_655 S
C206 C204 1.352 . S
C206 C208 1.374 . S
C206 H233 0.931 . S
C207 C208 1.359 . S
C207 C209 1.364 . S
C208 C206 1.374 . S
C208 C207 1.359 . S
C208 H234 0.931 . S
C209 C205 1.389 . S
C209 C207 1.364 . S
C209 H235 0.931 1_655 S
C210 O224 1.256 . S
C210 O225 1.257 . S
C211 O226 1.240 . S
C211 O227 1.240 . S
C212 Gd201 2.818 . S
C212 C213 1.510 . S
C212 O228 1.249 . S
C212 O229 1.252 . S
C213 C212 1.510 . S
C213 C214 1.404 . S
C213 C215 1.352 . S
C214 C213 1.404 . S
C214 C218 1.389 . S
C214 H236 0.930 . S
C215 C213 1.352 . S
C215 C217 1.374 . S
C215 H237 0.931 . S
C216 C217 1.359 . S
C216 C218 1.364 . S
C217 C215 1.374 . S
C217 C216 1.359 . S
C217 H238 0.931 . S
C218 C214 1.389 . S
C218 C216 1.364 . S
C218 H239 0.931 . S
C219 O230 1.256 . S
C219 O231 1.257 . S
O220 Gd200 2.377 . S
O220 C202 1.240 . S
O221 Gd201 2.395 . S
O221 C202 1.240 . S
O222 Gd200 2.448 . S
O222 C203 1.249 . S
O223 Gd200 2.506 . S
O223 C203 1.252 . S
O224 Gd200 2.435 . S
O224 C210 1.256 . S
O225 Gd200 2.717 . S
O225 Gd201 2.327 . S
O225 C210 1.257 . S
O226 Gd201 2.377 . S
O226 C211 1.240 . S
O227 Gd200 2.395 . S
O227 C211 1.240 . S
O228 Gd201 2.448 . S
O228 C212 1.249 . S
O229 Gd201 2.506 . S
O229 C212 1.252 . S
O230 Gd201 2.435 . S
O230 C219 1.256 . S
O231 Gd200 2.327 . S
O231 Gd201 2.717 . S
O231 C219 1.257 . S
H232 C205 0.930 1_455 S
H233 C206 0.931 . S
H234 C208 0.931 . S
H235 C209 0.931 1_455 S
H236 C214 0.930 . S
H237 C215 0.931 . S
H238 C217 0.931 . S
H239 C218 0.931 . S
Gd240 C243 2.818 . S
Gd240 O260 2.377 . S
Gd240 O262 2.448 . S
Gd240 O263 2.506 . S
Gd240 O264 2.435 . S
Gd240 O265 2.717 1_556 S
Gd240 O267 2.395 1_556 S
Gd240 O271 2.327 . S
Gd241 C252 2.818 . S
Gd241 O261 2.384 1_554 S
Gd241 O265 2.327 . S
Gd241 O266 2.377 . S
Gd241 O268 2.448 . S
Gd241 O269 2.506 . S
Gd241 O270 2.435 . S
Gd241 O271 2.717 1_554 S
C242 O260 1.240 . S
C242 O261 1.251 . S
C243 Gd240 2.818 . S
C243 C244 1.510 . S
C243 O262 1.249 . S
C243 O263 1.252 . S
C244 C243 1.510 . S
C244 C245 1.404 . S
C244 C246 1.352 . S
C245 C244 1.404 . S
C245 C249 1.389 . S
C245 H272 0.930 . S
C246 C244 1.352 . S
C246 C248 1.374 . S
C246 H273 0.931 . S
C247 C248 1.359 . S
C247 C249 1.364 . S
C248 C246 1.374 . S
C248 C247 1.359 . S
C248 H274 0.931 . S
C249 C245 1.389 . S
C249 C247 1.364 . S
C249 H275 0.931 . S
C250 O264 1.256 1_554 S
C250 O265 1.257 . S
C251 O266 1.240 . S
C251 O267 1.240 . S
C252 Gd241 2.818 . S
C252 C253 1.510 . S
C252 O268 1.249 . S
C252 O269 1.252 . S
C253 C252 1.510 . S
C253 C254 1.404 . S
C253 C255 1.352 . S
C254 C253 1.404 . S
C254 C258 1.389 . S
C254 H276 0.930 . S
C255 C253 1.352 . S
C255 C257 1.374 . S
C255 H277 0.931 . S
C256 C257 1.359 . S
C256 C258 1.364 . S
C257 C255 1.374 . S
C257 C256 1.359 . S
C257 H278 0.931 . S
C258 C254 1.389 . S
C258 C256 1.364 . S
C258 H279 0.931 . S
C259 O270 1.256 1_556 S
C259 O271 1.257 . S
O260 Gd240 2.377 . S
O260 C242 1.240 . S
O261 Gd241 2.384 1_556 S
O261 C242 1.251 . S
O262 Gd240 2.448 . S
O262 C243 1.249 . S
O263 Gd240 2.506 . S
O263 C243 1.252 . S
O264 Gd240 2.435 . S
O264 C250 1.256 1_556 S
O265 Gd240 2.717 1_554 S
O265 Gd241 2.327 . S
O265 C250 1.257 . S
O266 Gd241 2.377 . S
O266 C251 1.240 . S
O267 Gd240 2.395 1_554 S
O267 C251 1.240 . S
O268 Gd241 2.448 . S
O268 C252 1.249 . S
O269 Gd241 2.506 . S
O269 C252 1.252 . S
O270 Gd241 2.435 . S
O270 C259 1.256 1_554 S
O271 Gd240 2.327 . S
O271 Gd241 2.717 1_556 S
O271 C259 1.257 . S
H272 C245 0.930 . S
H273 C246 0.931 . S
H274 C248 0.931 . S
H275 C249 0.931 . S
H276 C254 0.930 . S
H277 C255 0.931 . S
H278 C257 0.931 . S
H279 C258 0.931 . S
Gd280 C283 2.818 1_455 S
Gd280 O300 2.377 1_455 S
Gd280 O302 2.448 1_455 S
Gd280 O303 2.506 . S
Gd280 O304 2.435 1_455 S
Gd280 O305 2.717 1_455 S
Gd280 O307 2.395 . S
Gd280 O311 2.327 . S
Gd281 C292 2.818 1_655 S
Gd281 O301 2.395 . S
Gd281 O305 2.327 . S
Gd281 O306 2.377 1_655 S
Gd281 O308 2.448 1_655 S
Gd281 O309 2.506 . S
Gd281 O310 2.435 1_655 S
Gd281 O311 2.717 1_655 S
C282 O300 1.240 . S
C282 O301 1.240 . S
C283 Gd280 2.818 1_655 S
C283 C284 1.510 . S
C283 O302 1.249 . S
C283 O303 1.252 1_655 S
C284 C283 1.510 . S
C284 C285 1.404 . S
C284 C286 1.352 . S
C285 C284 1.404 . S
C285 C289 1.389 . S
C285 H312 0.930 . S
C286 C284 1.352 . S
C286 C288 1.374 . S
C286 H313 0.931 1_655 S
C287 C288 1.359 . S
C287 C289 1.364 . S
C288 C286 1.374 . S
C288 C287 1.359 . S
C288 H314 0.931 . S
C289 C285 1.389 . S
C289 C287 1.364 . S
C289 H315 0.931 . S
C290 O304 1.256 . S
C290 O305 1.257 . S
C291 O306 1.240 . S
C291 O307 1.240 . S
C292 Gd281 2.818 1_455 S
C292 C293 1.510 . S
C292 O308 1.249 . S
C292 O309 1.252 1_455 S
C293 C292 1.510 . S
C293 C294 1.404 . S
C293 C295 1.352 . S
C294 C293 1.404 . S
C294 C298 1.389 . S
C294 H316 0.930 . S
C295 C293 1.352 . S
C295 C297 1.374 . S
C295 H317 0.931 1_455 S
C296 C297 1.359 . S
C296 C298 1.364 . S
C297 C295 1.374 . S
C297 C296 1.359 . S
C297 H318 0.931 . S
C298 C294 1.389 . S
C298 C296 1.364 . S
C298 H319 0.931 . S
C299 O310 1.256 . S
C299 O311 1.257 . S
O300 Gd280 2.377 1_655 S
O300 C282 1.240 . S
O301 Gd281 2.395 . S
O301 C282 1.240 . S
O302 Gd280 2.448 1_655 S
O302 C283 1.249 . S
O303 Gd280 2.506 . S
O303 C283 1.252 1_455 S
O304 Gd280 2.435 1_655 S
O304 C290 1.256 . S
O305 Gd280 2.717 1_655 S
O305 Gd281 2.327 . S
O305 C290 1.257 . S
O306 Gd281 2.377 1_455 S
O306 C291 1.240 . S
O307 Gd280 2.395 . S
O307 C291 1.240 . S
O308 Gd281 2.448 1_455 S
O308 C292 1.249 . S
O309 Gd281 2.506 . S
O309 C292 1.252 1_655 S
O310 Gd281 2.435 1_455 S
O310 C299 1.256 . S
O311 Gd280 2.327 . S
O311 Gd281 2.717 1_455 S
O311 C299 1.257 . S
H312 C285 0.930 . S
H313 C286 0.931 1_455 S
H314 C288 0.931 . S
H315 C289 0.931 . S
H316 C294 0.930 . S
H317 C295 0.931 1_655 S
H318 C297 0.931 . S
H319 C298 0.931 . S
C2 C122 2.501 . S
C10 C42 2.207 . S
C50 C90 2.011 . S
C82 C130 2.208 . S
C11 C211 2.501 . S
C19 C171 2.208 . S
C179 C99 2.011 . S
C219 C91 2.208 . S
C242 C202 2.501 . S
C162 C250 2.208 . S
C290 C170 2.011 . S
C210 C282 2.208 . S
C131 C251 2.501 . S
C259 C51 2.208 . S
C59 C299 2.011 . S
C139 C291 2.208 . S
C16 C7 5.042 1_646 S
C47 C56 3.652 . S
C96 C87 3.652 1_545 S
C136 C127 5.042 . S
C167 C176 3.652 . S
C216 C207 5.042 . S
C247 C256 5.042 . S
C287 C296 3.652 1_656 S
