# Generated by pormake.
# Topology bcs, (6)-cn, num edge types: 1
# Building blocks:
#     Node 0, Type 0, BuildingBlock: VOLQOD_clean_sbu_1, # of connection points: 6
#     Node 1, Type 0, BuildingBlock: VOLQOD_clean_sbu_1, # of connection points: 6
#     Node 2, Type 0, BuildingBlock: VOLQOD_clean_sbu_1, # of connection points: 6
#     Node 3, Type 0, BuildingBlock: VOLQOD_clean_sbu_1, # of connection points: 6
#     Node 4, Type 0, BuildingBlock: VOLQOD_clean_sbu_1, # of connection points: 6
#     Node 5, Type 0, BuildingBlock: VOLQOD_clean_sbu_1, # of connection points: 6
#     Node 6, Type 0, BuildingBlock: VOLQOD_clean_sbu_1, # of connection points: 6
#     Node 7, Type 0, BuildingBlock: VOLQOD_clean_sbu_1, # of connection points: 6
#     Node 8, Type 0, BuildingBlock: VOLQOD_clean_sbu_1, # of connection points: 6
#     Node 9, Type 0, BuildingBlock: VOLQOD_clean_sbu_1, # of connection points: 6
#     Node 10, Type 0, BuildingBlock: VOLQOD_clean_sbu_1, # of connection points: 6
#     Node 11, Type 0, BuildingBlock: VOLQOD_clean_sbu_1, # of connection points: 6
#     Node 12, Type 0, BuildingBlock: VOLQOD_clean_sbu_1, # of connection points: 6
#     Node 13, Type 0, BuildingBlock: VOLQOD_clean_sbu_1, # of connection points: 6
#     Node 14, Type 0, BuildingBlock: VOLQOD_clean_sbu_1, # of connection points: 6
#     Node 15, Type 0, BuildingBlock: VOLQOD_clean_sbu_1, # of connection points: 6
#     Edge 16, Type (0, 0), BuildingBlock: AJUNOK_clean_linker_0, # of connection points: 2
#     Edge 17, Type (0, 0), BuildingBlock: AJUNOK_clean_linker_0, # of connection points: 2
#     Edge 18, Type (0, 0), BuildingBlock: AJUNOK_clean_linker_0, # of connection points: 2
#     Edge 19, Type (0, 0), BuildingBlock: AJUNOK_clean_linker_0, # of connection points: 2
#     Edge 20, Type (0, 0), BuildingBlock: AJUNOK_clean_linker_0, # of connection points: 2
#     Edge 21, Type (0, 0), BuildingBlock: AJUNOK_clean_linker_0, # of connection points: 2
#     Edge 22, Type (0, 0), BuildingBlock: AJUNOK_clean_linker_0, # of connection points: 2
#     Edge 23, Type (0, 0), BuildingBlock: AJUNOK_clean_linker_0, # of connection points: 2
#     Edge 24, Type (0, 0), BuildingBlock: AJUNOK_clean_linker_0, # of connection points: 2
#     Edge 25, Type (0, 0), BuildingBlock: AJUNOK_clean_linker_0, # of connection points: 2
#     Edge 26, Type (0, 0), BuildingBlock: AJUNOK_clean_linker_0, # of connection points: 2
#     Edge 27, Type (0, 0), BuildingBlock: AJUNOK_clean_linker_0, # of connection points: 2
#     Edge 28, Type (0, 0), BuildingBlock: AJUNOK_clean_linker_0, # of connection points: 2
#     Edge 29, Type (0, 0), BuildingBlock: AJUNOK_clean_linker_0, # of connection points: 2
#     Edge 30, Type (0, 0), BuildingBlock: AJUNOK_clean_linker_0, # of connection points: 2
#     Edge 31, Type (0, 0), BuildingBlock: AJUNOK_clean_linker_0, # of connection points: 2
#     Edge 32, Type (0, 0), BuildingBlock: AJUNOK_clean_linker_0, # of connection points: 2
#     Edge 33, Type (0, 0), BuildingBlock: AJUNOK_clean_linker_0, # of connection points: 2
#     Edge 34, Type (0, 0), BuildingBlock: AJUNOK_clean_linker_0, # of connection points: 2
#     Edge 35, Type (0, 0), BuildingBlock: AJUNOK_clean_linker_0, # of connection points: 2
#     Edge 36, Type (0, 0), BuildingBlock: AJUNOK_clean_linker_0, # of connection points: 2
#     Edge 37, Type (0, 0), BuildingBlock: AJUNOK_clean_linker_0, # of connection points: 2
#     Edge 38, Type (0, 0), BuildingBlock: AJUNOK_clean_linker_0, # of connection points: 2
#     Edge 39, Type (0, 0), BuildingBlock: AJUNOK_clean_linker_0, # of connection points: 2
#     Edge 40, Type (0, 0), BuildingBlock: AJUNOK_clean_linker_0, # of connection points: 2
#     Edge 41, Type (0, 0), BuildingBlock: AJUNOK_clean_linker_0, # of connection points: 2
#     Edge 42, Type (0, 0), BuildingBlock: AJUNOK_clean_linker_0, # of connection points: 2
#     Edge 43, Type (0, 0), BuildingBlock: AJUNOK_clean_linker_0, # of connection points: 2
#     Edge 44, Type (0, 0), BuildingBlock: AJUNOK_clean_linker_0, # of connection points: 2
#     Edge 45, Type (0, 0), BuildingBlock: AJUNOK_clean_linker_0, # of connection points: 2
#     Edge 46, Type (0, 0), BuildingBlock: AJUNOK_clean_linker_0, # of connection points: 2
#     Edge 47, Type (0, 0), BuildingBlock: AJUNOK_clean_linker_0, # of connection points: 2
#     Edge 48, Type (0, 0), BuildingBlock: AJUNOK_clean_linker_0, # of connection points: 2
#     Edge 49, Type (0, 0), BuildingBlock: AJUNOK_clean_linker_0, # of connection points: 2
#     Edge 50, Type (0, 0), BuildingBlock: AJUNOK_clean_linker_0, # of connection points: 2
#     Edge 51, Type (0, 0), BuildingBlock: AJUNOK_clean_linker_0, # of connection points: 2
#     Edge 52, Type (0, 0), BuildingBlock: AJUNOK_clean_linker_0, # of connection points: 2
#     Edge 53, Type (0, 0), BuildingBlock: AJUNOK_clean_linker_0, # of connection points: 2
#     Edge 54, Type (0, 0), BuildingBlock: AJUNOK_clean_linker_0, # of connection points: 2
#     Edge 55, Type (0, 0), BuildingBlock: AJUNOK_clean_linker_0, # of connection points: 2
#     Edge 56, Type (0, 0), BuildingBlock: AJUNOK_clean_linker_0, # of connection points: 2
#     Edge 57, Type (0, 0), BuildingBlock: AJUNOK_clean_linker_0, # of connection points: 2
#     Edge 58, Type (0, 0), BuildingBlock: AJUNOK_clean_linker_0, # of connection points: 2
#     Edge 59, Type (0, 0), BuildingBlock: AJUNOK_clean_linker_0, # of connection points: 2
#     Edge 60, Type (0, 0), BuildingBlock: AJUNOK_clean_linker_0, # of connection points: 2
#     Edge 61, Type (0, 0), BuildingBlock: AJUNOK_clean_linker_0, # of connection points: 2
#     Edge 62, Type (0, 0), BuildingBlock: AJUNOK_clean_linker_0, # of connection points: 2
#     Edge 63, Type (0, 0), BuildingBlock: AJUNOK_clean_linker_0, # of connection points: 2
# Relax obj value: 0.391
# Max RMSD: 0.282
# Mean RMSD: 0.278
data_MOF--net-bcs--node1-VOLQOD_clean_sbu_1--edge1-AJUNOK_clean_linker_0
_symmetry_space_group_name_H-M    P1
_symmetry_Int_Tables_number       1
_symmetry_cell_setting            triclinic
loop_
_symmetry_equiv_pos_as_xyz
'x, y, z'
_cell_length_a     28.310554
_cell_length_b     28.623482
_cell_length_c     28.632968
_cell_angle_alpha  90.296545
_cell_angle_beta   89.713241
_cell_angle_gamma 89.616981
loop_
_atom_site_label
_atom_site_type_symbol
_atom_site_fract_x
_atom_site_fract_y
_atom_site_fract_z
_atom_type_partial_charge
O0 O 0.08839 0.06188 0.00016 0.0
Zn1 Zn 0.03652 0.03213 0.03726 0.0
O2 O 0.00511 0.98526 -0.00029 0.0
Zn3 Zn 0.93855 -0.00224 -0.00116 0.0
Zn4 Zn 0.02808 -0.01259 0.93688 0.0
Zn5 Zn 0.01812 0.92334 0.0222 0.0
O6 O 0.90216 0.94168 0.01661 0.0
O7 O 0.9583 0.8934 0.04181 0.0
O8 O -0.00884 0.08076 0.06244 0.0
O9 O 0.92198 0.0515 0.0414 0.0
O10 O 0.91809 0.01845 0.93637 0.0
O11 O 0.98492 0.02313 0.89632 0.0
O12 O 0.03554 0.92437 0.90936 0.0
O13 O 0.06998 0.00236 0.09061 0.0
O14 O 0.04242 0.8804 0.97224 0.0
O15 O 0.06534 0.92638 0.07405 0.0
C16 C 0.10798 0.05001 0.9617 0.0
C17 C 0.91511 0.90294 0.03402 0.0
C18 C 0.94076 0.03013 0.89994 0.0
C19 C 0.94619 0.08261 0.06213 0.0
C20 C 0.0431 0.88499 0.92814 0.0
C21 C 0.08106 0.96007 0.09863 0.0
O22 O 0.08995 0.01925 0.9352 0.0
O23 O 0.27365 0.73869 0.1995 0.0
Zn24 Zn 0.31804 0.76307 0.24794 0.0
O25 O 0.28895 0.81413 0.28239 0.0
Zn26 Zn 0.31412 0.87258 0.26318 0.0
Zn27 Zn 0.22319 0.81785 0.26837 0.0
Zn28 Zn 0.2954 0.80615 0.34832 0.0
O29 O 0.33075 0.91172 0.31874 0.0
O30 O 0.32205 0.86371 0.37883 0.0
O31 O 0.37646 0.78404 0.21453 0.0
O32 O 0.37366 0.86079 0.22721 0.0
O33 O 0.26627 0.90535 0.2226 0.0
O34 O 0.20248 0.88385 0.26151 0.0
O35 O 0.18523 0.78696 0.31728 0.0
O36 O 0.33694 0.71212 0.29182 0.0
O37 O 0.23414 0.78683 0.37752 0.0
O38 O 0.3363 0.75051 0.35967 0.0
C39 C 0.23267 0.75172 0.18659 0.0
C40 C 0.33363 0.90331 0.3623 0.0
C41 C 0.22236 0.90978 0.23162 0.0
C42 C 0.39403 0.82456 0.21047 0.0
C43 C 0.19424 0.77756 0.35958 0.0
C44 C 0.34561 0.71413 0.33537 0.0
O45 O 0.20996 0.78348 0.20865 0.0
O46 O 0.47534 0.00299 0.51006 0.0
Zn47 Zn 0.53023 0.01997 0.55081 0.0
O48 O 0.57795 0.05514 0.51721 0.0
Zn49 Zn 0.63916 0.02417 0.52006 0.0
Zn50 Zn 0.55959 0.06212 0.45301 0.0
Zn51 Zn 0.58239 0.11658 0.54426 0.0
O52 O 0.69045 0.06653 0.5437 0.0
O53 O 0.6493 0.13226 0.55273 0.0
O54 O 0.55752 0.96189 0.57727 0.0
O55 O 0.63409 0.96708 0.55991 0.0
O56 O 0.65943 0.00308 0.45675 0.0
O57 O 0.60411 0.03045 0.40945 0.0
O58 O 0.55482 0.12857 0.43516 0.0
O59 O 0.50665 0.05538 0.60606 0.0
O60 O 0.55519 0.16586 0.50299 0.0
O61 O 0.54897 0.12026 0.60613 0.0
C62 C 0.4668 0.01138 0.46733 0.0
C63 C 0.68833 0.11011 0.55238 0.0
C64 C 0.64241 0.00826 0.41611 0.0
C65 C 0.59948 0.94614 0.57899 0.0
C66 C 0.5499 0.16587 0.45897 0.0
C67 C 0.51887 0.0935 0.62524 0.0
O68 O 0.4961 0.03374 0.44223 0.0
O69 O 0.36064 0.25027 0.87346 0.0
Zn70 Zn 0.32661 0.20769 0.82913 0.0
O71 O 0.28824 0.24477 0.78754 0.0
Zn72 Zn 0.22318 0.24398 0.80577 0.0
Zn73 Zn 0.31217 0.30672 0.79056 0.0
Zn74 Zn 0.2943 0.22302 0.72484 0.0
O75 O 0.1825 0.217 0.75468 0.0
O76 O 0.23684 0.18981 0.70481 0.0
O77 O 0.28575 0.16401 0.86545 0.0
O78 O 0.21623 0.20063 0.85937 0.0
O79 O 0.20105 0.3079 0.82532 0.0
O80 O 0.26807 0.348 0.82593 0.0
O81 O 0.31691 0.33475 0.72744 0.0
O82 O 0.37638 0.17242 0.79271 0.0
O83 O 0.30116 0.27552 0.68004 0.0
O84 O 0.35209 0.18391 0.71965 0.0
C85 C 0.38261 0.28714 0.86191 0.0
C86 C 0.19411 0.19396 0.71816 0.0
C87 C 0.22409 0.34497 0.83413 0.0
C88 C 0.24255 0.16918 0.87694 0.0
C89 C 0.30987 0.31845 0.68673 0.0
C90 C 0.38118 0.16696 0.74883 0.0
O91 O 0.37373 0.30827 0.82394 0.0
O92 O 0.02226 0.91727 0.43804 0.0
Zn93 Zn 0.06309 0.96364 0.47172 0.0
O94 O 0.02469 0.00508 0.5122 0.0
Zn95 Zn 0.0404 0.06906 0.49915 0.0
Zn96 Zn 0.95812 -0.00463 0.50133 0.0
Zn97 Zn 0.03662 -0.00693 0.57749 0.0
O98 O 0.06705 0.10195 0.55469 0.0
O99 O 0.06158 0.0491 0.61073 0.0
O100 O 0.10205 -0.00125 0.42513 0.0
O101 O 0.08764 0.07191 0.44779 0.0
O102 O 0.9847 0.10437 0.47655 0.0
O103 O 0.92814 0.05128 0.47141 0.0
O104 O 0.9226 0.98142 0.56001 0.0
O105 O 0.10952 0.92766 0.50954 0.0
O106 O 0.97927 0.97261 0.61225 0.0
O107 O 0.08571 0.94374 0.58222 0.0
C108 C 0.97774 0.91153 0.43874 0.0
C109 C 0.07244 0.08977 0.59699 0.0
C110 C 0.94295 0.09275 0.46563 0.0
C111 C 0.10839 0.04242 0.42133 0.0
C112 C 0.93591 0.97157 0.60114 0.0
C113 C 0.11254 0.92235 0.55338 0.0
O114 O 0.95006 0.93894 0.46103 0.0
O115 O 0.227 0.67813 0.724 0.0
Zn116 Zn 0.23769 0.71631 0.78031 0.0
O117 O 0.2811 0.7652 0.76528 0.0
Zn118 Zn 0.33284 0.75978 0.80523 0.0
Zn119 Zn 0.30557 0.76255 0.70266 0.0
Zn120 Zn 0.25222 0.824 0.77345 0.0
O121 O 0.3568 0.82314 0.81876 0.0
O122 O 0.29733 0.8705 0.79946 0.0
O123 O 0.25999 0.67766 0.83349 0.0
O124 O 0.31309 0.72626 0.86298 0.0
O125 O 0.38336 0.72306 0.77263 0.0
O126 O 0.37549 0.75334 0.7019 0.0
O127 O 0.28416 0.81565 0.66259 0.0
O128 O 0.17607 0.74252 0.80307 0.0
O129 O 0.23026 0.84391 0.7119 0.0
O130 O 0.19475 0.81759 0.81208 0.0
C131 C 0.24435 0.67913 0.68298 0.0
C132 C 0.33891 0.86381 0.81478 0.0
C133 C 0.39872 0.72935 0.73133 0.0
C134 C 0.2861 0.69101 0.8669 0.0
C135 C 0.24745 0.84002 0.67105 0.0
C136 C 0.1665 0.78362 0.81723 0.0
O137 O 0.27554 0.70847 0.6708 0.0
O138 O 0.59456 0.03288 0.10773 0.0
Zn139 Zn 0.57666 -0.01162 0.05734 0.0
O140 O 0.53282 0.01782 0.0146 0.0
Zn141 Zn 0.47262 -0.01003 0.02338 0.0
Zn142 Zn 0.52365 0.08276 0.02812 0.0
Zn143 Zn 0.55262 0.0125 0.95094 0.0
O144 O 0.4419 0.98157 0.96231 0.0
O145 O 0.50138 -0.0145 0.91149 0.0
O146 O 0.54791 0.93342 0.08922 0.0
O147 O 0.47792 0.92817 0.05522 0.0
O148 O 0.43231 0.03133 0.06371 0.0
O149 O 0.45606 0.09927 0.03644 0.0
O150 O 0.55196 0.12471 0.98033 0.0
O151 O 0.63352 0.96468 0.02299 0.0
O152 O 0.56836 0.07421 0.92358 0.0
O153 O 0.61188 0.97494 0.94887 0.0
C154 C 0.58062 0.07437 0.11644 0.0
C155 C 0.45793 0.9789 0.92083 0.0
C156 C 0.42755 0.07539 0.06079 0.0
C157 C 0.50934 0.91205 0.08246 0.0
C158 C 0.56694 0.11572 0.93938 0.0
C159 C 0.64114 0.96054 0.97935 0.0
O160 O 0.5538 0.09647 0.08865 0.0
O161 O 0.33291 0.36829 0.3109 0.0
Zn162 Zn 0.31834 0.30807 0.3431 0.0
O163 O 0.29982 0.26309 0.29708 0.0
Zn164 Zn 0.23373 0.25606 0.29414 0.0
Zn165 Zn 0.32327 0.28592 0.23995 0.0
Zn166 Zn 0.32653 0.20383 0.30838 0.0
O167 O 0.2168 0.18866 0.29635 0.0
O168 O 0.27786 0.1611 0.33638 0.0
O169 O 0.26607 0.31901 0.38844 0.0
O170 O 0.20637 0.2859 0.35088 0.0
O171 O 0.20611 0.28991 0.23915 0.0
O172 O 0.27119 0.31739 0.2063 0.0
O173 O 0.34606 0.23404 0.19909 0.0
O174 O 0.37775 0.28724 0.37398 0.0
O175 O 0.34438 0.17422 0.24783 0.0
O176 O 0.38471 0.21442 0.34623 0.0
C177 C 0.36169 0.37057 0.27682 0.0
C178 C 0.2358 0.15682 0.32108 0.0
C179 C 0.22646 0.31488 0.20844 0.0
C180 C 0.2225 0.30886 0.38542 0.0
C181 C 0.35061 0.19058 0.20712 0.0
C182 C 0.40051 0.24903 0.36957 0.0
O183 O 0.37146 0.33478 0.25194 0.0
O184 O 0.49909 0.44495 0.97488 0.0
Zn185 Zn 0.52949 0.50182 0.00034 0.0
O186 O 0.48569 0.53807 0.03875 0.0
Zn187 Zn 0.47842 0.5997 0.01213 0.0
Zn188 Zn 0.42497 0.50651 0.04189 0.0
Zn189 Zn 0.51044 0.5448 0.10113 0.0
O190 O 0.50186 0.65093 0.05389 0.0
O191 O 0.51845 0.61111 0.11801 0.0
O192 O 0.55408 0.53846 0.94656 0.0
O193 O 0.51405 0.60515 0.95161 0.0
O194 O 0.41094 0.61174 0.00064 0.0
O195 O 0.3729 0.54556 0.01473 0.0
O196 O 0.40717 0.49326 0.1079 0.0
O197 O 0.58468 0.47995 0.03691 0.0
O198 O 0.46797 0.51815 0.14926 0.0
O199 O 0.57309 0.5125 0.10659 0.0
C200 C 0.45903 0.42627 0.98115 0.0
C201 C 0.51443 0.64947 0.09636 0.0
C202 C 0.37317 0.58804 0.00209 0.0
C203 C 0.54363 0.57858 0.93071 0.0
C204 C 0.4275 0.49957 0.14692 0.0
C205 C 0.59782 0.48775 0.07853 0.0
O206 O 0.4275 0.44558 0.00675 0.0
O207 O 0.709 0.18924 0.26696 0.0
Zn208 Zn 0.74287 0.23911 0.30129 0.0
O209 O 0.77256 0.28262 0.25869 0.0
Zn210 Zn 0.84046 0.27757 0.26188 0.0
Zn211 Zn 0.75238 0.26904 0.19639 0.0
Zn212 Zn 0.75257 0.34462 0.27407 0.0
O213 O 0.86944 0.34163 0.26821 0.0
O214 O 0.80716 0.38275 0.29265 0.0
O215 O 0.78999 0.21041 0.34322 0.0
O216 O 0.85783 0.24026 0.31877 0.0
O217 O 0.86637 0.24172 0.20613 0.0
O218 O 0.80292 0.23376 0.16183 0.0
O219 O 0.73353 0.3264 0.16062 0.0
O220 O 0.6934 0.2701 0.34095 0.0
O221 O 0.72745 0.37716 0.21889 0.0
O222 O 0.70152 0.34504 0.32258 0.0
C223 C 0.68739 0.19439 0.22861 0.0
C224 C 0.85118 0.37942 0.28404 0.0
C225 C 0.84642 0.22569 0.16962 0.0
C226 C 0.83441 0.21477 0.34688 0.0
C227 C 0.72367 0.36715 0.17589 0.0
C228 C 0.68127 0.31266 0.34519 0.0
O229 O 0.69693 0.22709 0.20025 0.0
O230 O 0.10472 0.54742 0.56685 0.0
Zn231 Zn 0.05826 0.50634 0.53814 0.0
O232 O 0.02348 0.53865 0.49186 0.0
Zn233 Zn 0.96292 0.51184 0.49361 0.0
Zn234 Zn 0.02266 0.60351 0.50583 0.0
Zn235 Zn 0.05241 0.53134 0.43279 0.0
O236 O 0.94264 0.49791 0.4287 0.0
O237 O 0.00417 0.51718 0.38402 0.0
O238 O 0.01508 0.4813 0.58598 0.0
O239 O 0.96191 0.4555 0.53547 0.0
O240 O 0.91854 0.55612 0.52452 0.0
O241 O 0.96126 0.62028 0.53607 0.0
O242 O 0.03584 0.64138 0.44906 0.0
O243 O 0.09313 0.45333 0.50987 0.0
O244 O 0.08713 0.59046 0.41859 0.0
O245 O 0.0942 0.47522 0.43529 0.0
C246 C 0.10767 0.59156 0.56775 0.0
C247 C 0.962 0.50275 0.38874 0.0
C248 C 0.92316 0.59726 0.54063 0.0
C249 C 0.98041 0.45529 0.57597 0.0
C250 C 0.07221 0.63225 0.42434 0.0
C251 C 0.10543 0.44697 0.46767 0.0
O252 O 0.07724 0.61762 0.54791 0.0
O253 O 0.84581 0.75225 0.34047 0.0
Zn254 Zn 0.79845 0.71378 0.30542 0.0
O255 O 0.76268 0.75202 0.26309 0.0
Zn256 Zn 0.70032 0.76449 0.28749 0.0
Zn257 Zn 0.79559 0.80976 0.25546 0.0
Zn258 Zn 0.75763 0.71941 0.20424 0.0
O259 O 0.65063 0.75388 0.2395 0.0
O260 O 0.69067 0.71618 0.18392 0.0
O261 O 0.75487 0.68253 0.34978 0.0
O262 O 0.68757 0.72245 0.34132 0.0
O263 O 0.6932 0.83058 0.30657 0.0
O264 O 0.75899 0.86393 0.28096 0.0
O265 O 0.8066 0.82148 0.18877 0.0
O266 O 0.8329 0.66353 0.27039 0.0
O267 O 0.78866 0.75483 0.15298 0.0
O268 O 0.78998 0.65697 0.20615 0.0
C269 C 0.86841 0.78803 0.32681 0.0
C270 C 0.65246 0.73374 0.19993 0.0
C271 C 0.71862 0.86639 0.30026 0.0
C272 C 0.71217 0.69093 0.36104 0.0
C273 C 0.80343 0.79655 0.15215 0.0
C274 C 0.82292 0.6423 0.23261 0.0
O275 O 0.8566 0.81005 0.29016 0.0
O276 O 0.82476 0.22737 0.691 0.0
Zn277 Zn 0.845 0.2619 0.748 0.0
O278 O 0.79203 0.29078 0.7807 0.0
Zn279 Zn 0.79864 0.3575 0.78224 0.0
Zn280 Zn 0.73448 0.27322 0.75147 0.0
Zn281 Zn 0.78909 0.26806 0.84313 0.0
O282 O 0.81724 0.37809 0.84605 0.0
O283 O 0.81728 0.31335 0.8885 0.0
O284 O 0.88933 0.30923 0.7241 0.0
O285 O 0.85004 0.37564 0.73772 0.0
O286 O 0.73905 0.39009 0.76237 0.0
O287 O 0.69796 0.32956 0.73654 0.0
O288 O 0.69269 0.23615 0.79338 0.0
O289 O 0.87583 0.21285 0.78563 0.0
O290 O 0.7231 0.25327 0.86239 0.0
O291 O 0.82432 0.20798 0.8443 0.0
C292 C 0.78426 0.22213 0.67325 0.0
C293 C 0.82444 0.35699 0.88442 0.0
C294 C 0.70228 0.37314 0.74359 0.0
C295 C 0.88417 0.35303 0.71904 0.0
C296 C 0.69016 0.23618 0.83769 0.0
C297 C 0.85862 0.19145 0.82044 0.0
O298 O 0.747 0.2382 0.69259 0.0
O299 O 0.83727 0.84012 0.75531 0.0
Zn300 Zn 0.80998 0.79411 0.80089 0.0
O301 O 0.76046 0.75775 0.77246 0.0
Zn302 Zn 0.69911 0.77688 0.79368 0.0
Zn303 Zn 0.75806 0.77211 0.7086 0.0
Zn304 Zn 0.77083 0.69162 0.77729 0.0
O305 O 0.66184 0.72048 0.8098 0.0
O306 O 0.71161 0.66048 0.80112 0.0
O307 O 0.78393 0.83185 0.85366 0.0
O308 O 0.70692 0.81634 0.85072 0.0
O309 O 0.66453 0.81364 0.74358 0.0
O310 O 0.69292 0.77164 0.68547 0.0
O311 O 0.79258 0.72649 0.67117 0.0
O312 O 0.85895 0.75165 0.82829 0.0
O313 O 0.79185 0.66344 0.71549 0.0
O314 O 0.82516 0.68179 0.82075 0.0
C315 C 0.8211 0.85459 0.71649 0.0
C316 C 0.67082 0.67689 0.81152 0.0
C317 C 0.66388 0.80185 0.70061 0.0
C318 C 0.74231 0.83565 0.86994 0.0
C319 C 0.80136 0.68351 0.677 0.0
C320 C 0.85832 0.7078 0.83567 0.0
O321 O 0.78722 0.83377 0.6963 0.0
O322 O 0.59301 0.57107 0.51285 0.0
Zn323 Zn 0.54918 0.54134 0.55676 0.0
O324 O 0.50233 0.50425 0.52469 0.0
Zn325 Zn 0.44134 0.52909 0.53976 0.0
Zn326 Zn 0.51285 0.50439 0.45792 0.0
Zn327 Zn 0.50534 0.4415 0.54631 0.0
O328 O 0.39502 0.4797 0.55582 0.0
O329 O 0.44089 0.41664 0.55786 0.0
O330 O 0.52117 0.59181 0.59562 0.0
O331 O 0.44536 0.57248 0.59451 0.0
O332 O 0.41752 0.56371 0.48509 0.0
O333 O 0.4595 0.53715 0.42469 0.0
O334 O 0.52718 0.43962 0.43315 0.0
O335 O 0.58457 0.50351 0.60251 0.0
O336 O 0.53823 0.40106 0.49948 0.0
O337 O 0.54218 0.43875 0.60551 0.0
C338 C 0.59727 0.56827 0.46884 0.0
C339 C 0.40045 0.43602 0.56128 0.0
C340 C 0.42618 0.5624 0.44144 0.0
C341 C 0.47928 0.59648 0.61066 0.0
C342 C 0.54101 0.40349 0.45524 0.0
C343 C 0.57449 0.46492 0.62164 0.0
O344 O 0.57002 0.5433 0.44396 0.0
O345 O 0.973 0.44618 0.0347 0.0
Zn346 Zn 0.02069 0.48344 0.07153 0.0
O347 O 0.04966 0.53248 0.03393 0.0
Zn348 Zn 0.1175 0.52868 0.03494 0.0
Zn349 Zn 0.03174 0.52308 0.97128 0.0
Zn350 Zn 0.02675 0.59382 0.05037 0.0
O351 O 0.14485 0.58993 0.0555 0.0
O352 O 0.08128 0.63406 0.06944 0.0
O353 O 0.07043 0.44161 0.09882 0.0
O354 O 0.13639 0.479 0.07988 0.0
O355 O 0.14513 0.50583 0.97366 0.0
O356 O 0.07964 0.48756 0.93624 0.0
O357 O 0.01867 0.58131 0.93773 0.0
O358 O 0.98213 0.5119 0.12319 0.0
O359 O -0.00811 0.62441 -0.00341 0.0
O360 O 0.98148 0.58731 0.10383 0.0
C361 C 0.9547 0.45692 -0.00433 0.0
C362 C 0.12598 0.62836 0.06885 0.0
C363 C 0.12424 0.48635 0.93947 0.0
C364 C 0.1152 0.44565 0.10023 0.0
C365 C -0.00462 0.61619 0.95293 0.0
C366 C 0.96833 0.55376 0.12979 0.0
O367 O 0.97267 0.48771 0.96947 0.0
C368 C 0.19538 0.14754 0.94592 0.0
C369 C 0.2193 0.13389 0.9051 0.0
C370 C 0.16173 0.11839 0.96622 0.0
C371 C 0.15011 0.07533 0.94538 0.0
H372 H 0.20074 0.18205 0.96064 0.0
H373 H 0.14252 0.13124 -0.00348 0.0
S374 S 0.20589 0.02324 0.8393 0.0
N375 N 0.23222 0.0741 0.84603 0.0
N376 N 0.16848 0.01902 0.88348 0.0
C377 C 0.17625 0.06017 0.90602 0.0
C378 C 0.21101 0.08965 0.88595 0.0
C379 C 0.15453 0.9192 0.12093 0.0
C380 C 0.118 0.95048 0.13296 0.0
C381 C 0.19098 0.90968 0.15212 0.0
C382 C 0.19142 0.93034 0.19666 0.0
H383 H 0.15488 0.90183 0.0872 0.0
H384 H 0.21751 0.88391 0.14231 0.0
S385 S 0.10463 0.0153 0.2447 0.0
N386 N 0.08547 0.00381 0.19143 0.0
N387 N 0.15313 0.98361 0.25139 0.0
C388 C 0.15562 0.96218 0.20899 0.0
C389 C 0.11909 0.97294 0.17668 0.0
C390 C 0.41656 -0.00022 0.39701 0.0
C391 C 0.42485 -0.00934 0.44454 0.0
C392 C 0.38386 0.97384 0.37157 0.0
C393 C 0.35821 0.93751 0.3925 0.0
H394 H 0.43727 0.02544 0.37844 0.0
H395 H 0.38111 0.98053 0.33446 0.0
S396 S 0.35805 0.9074 0.51847 0.0
N397 N 0.39837 0.94852 0.51353 0.0
N398 N 0.33682 0.89959 0.46543 0.0
C399 C 0.36235 0.93137 0.44106 0.0
C400 C 0.39568 0.95801 0.46714 0.0
C401 C 0.45609 0.17614 0.70698 0.0
C402 C 0.42442 0.14646 0.72987 0.0
C403 C 0.49009 0.15814 0.67627 0.0
C404 C 0.49267 0.10991 0.6669 0.0
H405 H 0.45231 0.21373 0.71026 0.0
H406 H 0.51164 0.18258 0.65695 0.0
S407 S 0.42333 0.0174 0.72598 0.0
N408 N 0.40177 0.06691 0.74732 0.0
N409 N 0.46583 0.03229 0.68928 0.0
C410 C 0.46422 0.0796 0.69346 0.0
C411 C 0.42982 0.09813 0.72505 0.0
C412 C 0.19673 0.90631 0.56983 0.0
C413 C 0.14922 0.89249 0.57251 0.0
C414 C 0.23043 0.88676 0.59981 0.0
C415 C 0.21674 0.85332 0.63271 0.0
H416 H 0.20701 0.93484 0.54728 0.0
H417 H 0.26614 0.90014 0.5996 0.0
S418 S 0.09872 0.79967 0.64647 0.0
N419 N 0.09169 0.83942 0.60544 0.0
N420 N 0.15492 0.80207 0.66137 0.0
C421 C 0.1704 0.83621 0.63227 0.0
C422 C 0.13645 0.85607 0.60215 0.0
C423 C 0.41559 0.90297 0.82354 0.0
C424 C 0.36662 0.90315 0.83161 0.0
C425 C 0.44515 0.93196 0.84933 0.0
C426 C 0.42645 0.96106 0.88453 0.0
H427 H 0.4314 0.87801 0.79942 0.0
H428 H 0.48299 0.92823 0.84462 0.0
S429 S 0.29982 0.98033 0.91274 0.0
N430 N 0.29996 0.93955 0.8717 0.0
N431 N 0.35573 -0.00591 0.92084 0.0
C432 C 0.37713 0.96521 0.88926 0.0
C433 C 0.34701 0.93609 0.86254 0.0
C434 C 0.38938 0.14893 0.08757 0.0
C435 C 0.39707 0.10086 0.0942 0.0
C436 C 0.37283 0.17731 0.1239 0.0
C437 C 0.36325 0.15871 0.16827 0.0
H438 H 0.39876 0.16535 0.05482 0.0
H439 H 0.36942 0.21444 0.11746 0.0
S440 S 0.36973 0.03341 0.20134 0.0
N441 N 0.38816 0.03468 0.1466 0.0
N442 N 0.35664 0.08806 0.21506 0.0
C443 C 0.36694 0.10999 0.17427 0.0
C444 C 0.38374 0.081 0.13709 0.0
C445 C 0.12473 0.09403 0.35516 0.0
C446 C 0.14128 0.06052 0.38658 0.0
C447 C 0.15615 0.12215 0.33066 0.0
C448 C 0.20528 0.11862 0.33787 0.0
H449 H 0.08713 0.1005 0.35166 0.0
H450 H 0.14135 0.14916 0.30867 0.0
S451 S 0.26597 0.03012 0.41104 0.0
N452 N 0.2091 0.02021 0.41922 0.0
N453 N 0.26898 0.0739 0.37376 0.0
C454 C 0.22233 0.08209 0.36609 0.0
C455 C 0.19004 0.05283 0.39046 0.0
C456 C 0.91975 0.18027 0.14888 0.0
C457 C 0.87287 0.19305 0.13828 0.0
C458 C 0.94361 0.14536 0.12338 0.0
C459 C 0.92145 0.12153 0.08652 0.0
H460 H 0.93792 0.1964 0.17792 0.0
H461 H 0.97922 0.13603 0.13364 0.0
S462 S 0.80113 0.14508 0.04086 0.0
N463 N 0.80668 0.18148 0.08534 0.0
N464 N 0.85148 0.11583 0.03792 0.0
C465 C 0.87536 0.13521 0.07419 0.0
C466 C 0.85115 0.17099 0.09987 0.0
C467 C 0.08392 0.71041 0.38837 0.0
C468 C 0.10269 0.67099 0.41075 0.0
C469 C 0.11347 0.74689 0.37438 0.0
C470 C 0.16218 0.74561 0.38395 0.0
H471 H 0.04665 0.71219 0.38009 0.0
H472 H 0.09843 0.77552 0.35466 0.0
S473 S 0.22681 0.65219 0.44715 0.0
N474 N 0.17163 0.63408 0.44525 0.0
N475 N 0.22697 0.7032 0.42052 0.0
C476 C 0.18057 0.70765 0.40918 0.0
C477 C 0.15082 0.67007 0.42211 0.0
C478 C 0.59001 0.89998 0.65152 0.0
C479 C 0.60888 0.9041 0.60627 0.0
C480 C 0.60538 0.86438 0.68127 0.0
C481 C 0.63929 0.83142 0.66618 0.0
H482 H 0.56563 0.92615 0.66503 0.0
H483 H 0.59247 0.86414 0.71695 0.0
S484 S 0.69243 0.82315 0.5471 0.0
N485 N 0.65826 0.87002 0.54553 0.0
N486 N 0.68615 0.80185 0.60019 0.0
C487 C 0.65479 0.83286 0.61918 0.0
C488 C 0.63995 0.8697 0.58953 0.0
C489 C 0.40909 0.35583 0.96972 0.0
C490 C 0.44719 0.38349 0.95491 0.0
C491 C 0.39135 0.3204 0.94109 0.0
C492 C 0.41071 0.3122 0.89655 0.0
H493 H 0.3913 0.36312 0.00258 0.0
H494 H 0.35986 0.30216 0.95225 0.0
S495 S 0.51526 0.3692 0.84439 0.0
N496 N 0.50773 0.39563 0.89532 0.0
N497 N 0.47312 0.32973 0.84115 0.0
C498 C 0.45112 0.33669 0.88296 0.0
C499 C 0.46976 0.37222 0.91232 0.0
C500 C 0.94052 0.83595 0.33776 0.0
C501 C 0.90354 0.80987 0.35751 0.0
C502 C 0.96728 0.8665 0.36516 0.0
C503 C 0.95688 0.87264 0.41275 0.0
H504 H 0.94721 0.8345 0.30048 0.0
H505 H -0.00611 0.88777 0.3484 0.0
S506 S 0.86785 0.80865 0.48235 0.0
N507 N 0.86157 0.7885 0.42859 0.0
N508 N 0.91098 0.84713 0.47969 0.0
C509 C 0.92228 0.84459 0.43353 0.0
C510 C 0.89583 0.81271 0.40597 0.0
C511 C 0.44189 0.61588 0.68624 0.0
C512 C 0.46956 0.62991 0.64814 0.0
C513 C 0.42467 0.6487 0.7183 0.0
C514 C 0.43334 0.69652 0.71198 0.0
H515 H 0.43143 0.57971 0.68984 0.0
H516 H 0.40021 0.63703 0.74498 0.0
S517 S 0.51084 0.74958 0.62256 0.0
N518 N 0.51144 0.69315 0.60998 0.0
N519 N 0.47659 0.75563 0.66915 0.0
C520 C 0.46469 0.71037 0.67668 0.0
C521 C 0.48339 0.67672 0.64479 0.0
C522 C 0.61531 0.18737 0.93496 0.0
C523 C 0.58925 0.15275 0.9119 0.0
C524 C 0.64586 0.2163 0.91013 0.0
C525 C 0.65099 0.21191 0.86138 0.0
H526 H 0.61468 0.19001 0.97271 0.0
H527 H 0.66726 0.24072 0.9297 0.0
S528 S 0.58227 0.13317 0.78404 0.0
N529 N 0.5646 0.12018 0.83743 0.0
N530 N 0.62159 0.17508 0.79028 0.0
C531 C 0.62145 0.1805 0.83747 0.0
C532 C 0.59071 0.15069 0.86293 0.0
C533 C 0.12251 0.38304 0.16026 0.0
C534 C 0.14353 0.41046 0.12536 0.0
C535 C 0.14923 0.35091 0.18587 0.0
C536 C 0.19791 0.34486 0.17735 0.0
H537 H 0.08538 0.38724 0.16878 0.0
H538 H 0.13174 0.33171 0.21342 0.0
S539 S 0.26863 0.40451 0.08581 0.0
N540 N 0.21505 0.42689 0.08095 0.0
N541 N 0.26522 0.36647 0.12875 0.0
C542 C 0.21892 0.37071 0.1411 0.0
C543 C 0.19176 0.40355 0.11524 0.0
C544 C 0.61768 0.58066 0.88355 0.0
C545 C 0.57142 0.59735 0.89142 0.0
C546 C 0.64886 0.60459 0.85432 0.0
C547 C 0.63476 0.64595 0.83193 0.0
H548 H 0.63111 0.55085 0.90265 0.0
H549 H 0.68511 0.59239 0.85205 0.0
S550 S 0.51366 0.69666 0.83108 0.0
N551 N 0.51036 0.6523 0.86758 0.0
N552 N 0.56885 0.6972 0.81216 0.0
C553 C 0.58708 0.65993 0.83537 0.0
C554 C 0.55541 0.63566 0.8653 0.0
C555 C 0.67961 0.38715 0.10355 0.0
C556 C 0.70169 0.40193 0.14488 0.0
C557 C 0.64872 0.41684 0.07976 0.0
C558 C 0.63881 0.46207 0.09673 0.0
H559 H 0.68343 0.35144 0.0913 0.0
H560 H 0.62981 0.40295 0.05001 0.0
S561 S 0.69701 0.52145 0.19606 0.0
N562 N 0.71888 0.46783 0.19625 0.0
N563 N 0.65988 0.52323 0.1518 0.0
C564 C 0.66445 0.47892 0.13496 0.0
C565 C 0.69624 0.44892 0.15896 0.0
C566 C 0.88805 0.48879 0.34645 0.0
C567 C 0.93716 0.48324 0.34857 0.0
C568 C 0.86068 0.45741 0.32115 0.0
C569 C 0.88156 0.41883 0.29801 0.0
H570 H 0.87038 0.51512 0.36769 0.0
H571 H 0.82265 0.46137 0.32325 0.0
S572 S 0.01017 0.39669 0.28349 0.0
N573 N 0.00667 0.44283 0.31824 0.0
N574 N 0.95511 0.38292 0.27083 0.0
C575 C 0.93116 0.41673 0.29481 0.0
C576 C 0.95909 0.44931 0.32014 0.0
C577 C 0.65854 0.58158 0.40834 0.0
C578 C 0.63114 0.59871 0.44568 0.0
C579 C 0.6875 0.61156 0.38285 0.0
C580 C 0.68852 0.65954 0.39326 0.0
H581 H 0.65688 0.54507 0.3983 0.0
H582 H 0.70724 0.59763 0.35332 0.0
S583 S 0.62438 0.72113 0.48841 0.0
N584 N 0.60838 0.66597 0.49332 0.0
N585 N 0.66149 0.72273 0.44373 0.0
C586 C 0.66221 0.67689 0.43109 0.0
C587 C 0.63379 0.64624 0.45785 0.0
C588 C 0.87808 0.35897 0.95327 0.0
C589 C 0.84785 0.38278 0.92235 0.0
C590 C 0.91038 0.38353 0.98086 0.0
C591 C 0.91312 0.43236 0.97808 0.0
H592 H 0.87956 0.32115 0.95341 0.0
H593 H 0.93578 0.36405 0.00133 0.0
S594 S 0.83395 0.51128 0.91184 0.0
N595 N 0.81673 0.45812 0.89754 0.0
N596 N 0.87767 0.50408 0.9491 0.0
C597 C 0.87958 0.45665 0.95146 0.0
C598 C 0.84676 0.43184 0.92362 0.0
C599 C 0.8083 0.86232 0.09809 0.0
C600 C 0.82135 0.81633 0.10903 0.0
C601 C 0.83659 0.88914 0.0689 0.0
C602 C 0.87909 0.87073 0.05095 0.0
H603 H 0.77844 0.87888 0.11548 0.0
H604 H 0.82756 0.92569 0.06442 0.0
S605 S 0.92178 0.7484 0.06015 0.0
N606 N 0.87354 0.75047 0.09285 0.0
N607 N 0.92767 0.80126 0.03803 0.0
C608 C 0.88908 0.82296 0.05676 0.0
C609 C 0.85977 0.79547 0.08592 0.0
C610 C 0.92566 0.13552 0.82535 0.0
C611 C 0.87758 0.14551 0.83249 0.0
C612 C 0.94548 0.09438 0.84262 0.0
C613 C 0.91762 0.0623 0.86745 0.0
H614 H 0.94866 0.16089 0.80911 0.0
H615 H 0.98343 0.08988 0.84 0.0
S616 S 0.78742 0.06633 0.88225 0.0
N617 N 0.80078 0.11602 0.85647 0.0
N618 N 0.83806 0.03824 0.88874 0.0
C619 C 0.86848 0.06919 0.86919 0.0
C620 C 0.84842 0.11118 0.85199 0.0
C621 C 0.75357 0.21325 0.59398 0.0
C622 C 0.77875 0.19391 0.63119 0.0
C623 C 0.72993 0.18445 0.56264 0.0
C624 C 0.72984 0.13571 0.56873 0.0
H625 H 0.74806 0.2507 0.592 0.0
H626 H 0.70695 0.20068 0.53717 0.0
S627 S 0.80149 0.06851 0.65328 0.0
N628 N 0.81135 0.12386 0.66651 0.0
N629 N 0.7656 0.06914 0.60793 0.0
C630 C 0.76103 0.1159 0.60117 0.0
C631 C 0.78573 0.1454 0.63277 0.0
C632 C 0.71233 0.97038 0.37931 0.0
C633 C 0.66402 0.98192 0.37742 0.0
C634 C 0.73128 0.93546 0.35043 0.0
C635 C 0.70211 0.91075 0.3197 0.0
H636 H 0.73493 -0.01365 0.40524 0.0
H637 H 0.76785 0.92511 0.35503 0.0
S638 S 0.57565 0.93304 0.29557 0.0
N639 N 0.58915 0.97062 0.33731 0.0
N640 N 0.62489 0.9039 0.28395 0.0
C641 C 0.65497 0.92477 0.31436 0.0
C642 C 0.63584 0.96088 0.34301 0.0
C643 C 0.90901 0.19228 0.38681 0.0
C644 C 0.85989 0.18714 0.38235 0.0
C645 C 0.93515 0.16291 0.4157 0.0
C646 C 0.91329 0.127 0.44102 0.0
H647 H 0.92785 0.21824 0.36674 0.0
H648 H 0.97315 0.16716 0.41645 0.0
S649 S 0.78487 0.10299 0.44736 0.0
N650 N 0.78958 0.14652 0.41005 0.0
N651 N 0.83931 0.09098 0.46411 0.0
C652 C 0.86394 0.12308 0.4392 0.0
C653 C 0.83708 0.15329 0.40999 0.0
C654 C 0.6694 0.11389 0.20474 0.0
C655 C 0.65365 0.15957 0.21365 0.0
C656 C 0.643 0.08418 0.17636 0.0
C657 C 0.60038 0.09974 0.15643 0.0
H658 H 0.70411 0.10262 0.21606 0.0
H659 H 0.65811 0.05055 0.16689 0.0
S660 S 0.53892 0.21224 0.18115 0.0
N661 N 0.5898 0.21619 0.20879 0.0
N662 N 0.53896 0.15998 0.15641 0.0
C663 C 0.58162 0.14327 0.17052 0.0
C664 C 0.60877 0.17349 0.1989 0.0
C665 C 0.73167 0.91665 0.89546 0.0
C666 C 0.73286 0.86917 0.90712 0.0
C667 C 0.70579 0.94827 0.92277 0.0
C668 C 0.68148 0.9331 0.96271 0.0
H669 H 0.74636 0.92843 0.86256 0.0
H670 H 0.70125 0.98372 0.91034 0.0
S671 S 0.68318 0.81414 0.01294 0.0
N672 N 0.71445 0.80956 0.9642 0.0
N673 N 0.66702 0.86961 0.01699 0.0
C674 C 0.68793 0.88702 0.97801 0.0
C675 C 0.71333 0.85463 0.94957 0.0
C676 C 0.86065 0.93026 0.61643 0.0
C677 C 0.90153 0.95142 0.6341 0.0
C678 C 0.83303 0.90141 0.64443 0.0
C679 C 0.84515 0.89267 0.69123 0.0
H680 H 0.85152 0.93329 0.57986 0.0
H681 H 0.80354 0.88377 0.62823 0.0
S682 S 0.94134 0.95022 0.75736 0.0
N683 N 0.94768 0.9692 0.70334 0.0
N684 N 0.89545 0.91491 0.75638 0.0
C685 C 0.88297 0.9177 0.7107 0.0
C686 C 0.91125 0.94709 0.682 0.0
C687 C 0.12099 0.78578 0.89019 0.0
C688 C 0.12258 0.79311 0.84188 0.0
C689 C 0.09017 0.81204 0.91831 0.0
C690 C 0.06088 0.84653 0.89851 0.0
H691 H 0.1471 0.76359 0.90676 0.0
H692 H 0.09317 0.80879 0.95586 0.0
S693 S 0.04373 0.86838 0.77206 0.0
N694 N 0.08669 0.82917 0.77432 0.0
N695 N 0.02777 0.87835 0.82681 0.0
C696 C 0.05751 0.84882 0.84955 0.0
C697 C 0.08893 0.82215 0.82117 0.0
C698 C 0.95243 0.44701 0.65751 0.0
C699 C 0.9593 0.42721 0.61292 0.0
C700 C 0.92909 0.42227 0.69257 0.0
C701 C 0.91349 0.37658 0.68435 0.0
H702 H 0.96351 0.48247 0.66474 0.0
H703 H 0.92264 0.43913 0.72599 0.0
S704 S 0.92485 0.3088 0.57397 0.0
N705 N 0.94971 0.35953 0.5625 0.0
N706 N 0.90716 0.3121 0.62895 0.0
C707 C 0.92165 0.35587 0.64037 0.0
C708 C 0.94423 0.38151 0.6044 0.0
C709 C 0.52277 0.20422 0.38698 0.0
C710 C 0.52608 0.20535 0.43598 0.0
C711 C 0.48323 0.22267 0.3648 0.0
C712 C 0.44706 0.24422 0.39084 0.0
H713 H 0.54758 0.18376 0.36626 0.0
H714 H 0.47908 0.21656 0.32765 0.0
S715 S 0.44826 0.27194 0.51712 0.0
N716 N 0.4969 0.24103 0.50804 0.0
N717 N 0.42269 0.27703 0.46563 0.0
C718 C 0.45438 0.25364 0.4383 0.0
C719 C 0.49444 0.23417 0.46113 0.0
C720 C 0.57658 0.70808 0.09645 0.0
C721 C 0.53618 0.69007 0.11819 0.0
C722 C 0.61307 0.72651 0.12331 0.0
C723 C 0.60934 0.72843 0.17227 0.0
H724 H 0.58291 0.7021 0.05953 0.0
H725 H 0.64586 0.7356 0.10601 0.0
S726 S 0.50387 0.69949 0.24328 0.0
N727 N 0.48959 0.68478 0.18932 0.0
N728 N 0.5577 0.72125 0.24006 0.0
C729 C 0.56583 0.71796 0.19334 0.0
C730 C 0.52907 0.69839 0.16603 0.0
C731 C 0.16109 0.17688 0.64041 0.0
C732 C 0.15773 0.17246 0.6891 0.0
C733 C 0.13103 0.15217 0.61095 0.0
C734 C 0.09735 0.12128 0.6292 0.0
H735 H 0.18802 0.19874 0.62492 0.0
H736 H 0.13607 0.15542 0.57357 0.0
S737 S 0.07223 0.10035 0.75472 0.0
N738 N 0.11619 0.13804 0.75474 0.0
N739 N 0.06004 0.09019 0.69921 0.0
C740 C 0.09225 0.11811 0.67802 0.0
C741 C 0.12237 0.14414 0.70808 0.0
C742 C 0.65023 0.33622 0.42257 0.0
C743 C 0.64176 0.32514 0.37571 0.0
C744 C 0.61508 0.3577 0.44978 0.0
C745 C 0.57095 0.36938 0.43043 0.0
H746 H 0.68497 0.3308 0.4374 0.0
H747 H 0.6239 0.36864 0.48495 0.0
S748 S 0.52909 0.33831 0.31206 0.0
N749 N 0.58461 0.32018 0.313 0.0
N750 N 0.51842 0.36166 0.36403 0.0
C751 C 0.56092 0.35475 0.38476 0.0
C752 C 0.59654 0.33234 0.35731 0.0
C753 C 0.49986 0.88488 0.16324 0.0
C754 C 0.49507 0.87556 0.11526 0.0
C755 C 0.46996 0.86367 0.19564 0.0
C756 C 0.43574 0.83159 0.18099 0.0
H757 H 0.52247 0.91282 0.17528 0.0
H758 H 0.47066 0.87562 0.23162 0.0
S759 S 0.41911 0.78575 0.06109 0.0
N760 N 0.4605 0.82585 0.05574 0.0
N761 N 0.40559 0.78412 0.11727 0.0
C762 C 0.43591 0.81657 0.13428 0.0
C763 C 0.46542 0.83914 0.10107 0.0
C764 C 0.94994 0.68757 0.9294 0.0
C765 C 0.96512 0.64165 0.91974 0.0
C766 C 0.91667 0.70978 0.90079 0.0
C767 C 0.89678 0.68622 0.86246 0.0
H768 H 0.9632 0.70609 0.95966 0.0
H769 H 0.90504 0.74482 0.90986 0.0
S770 S 0.92587 0.5665 0.82103 0.0
N771 N 0.95892 0.57415 0.8677 0.0
N772 N 0.8961 0.61579 0.81481 0.0
C773 C 0.91255 0.6409 0.85171 0.0
C774 C 0.94686 0.61862 0.88014 0.0
C775 C 0.35972 0.46218 0.18677 0.0
C776 C 0.4062 0.47909 0.1891 0.0
C777 C 0.34303 0.43073 0.21985 0.0
C778 C 0.3722 0.4156 0.25623 0.0
H779 H 0.33737 0.47018 0.15723 0.0
H780 H 0.30883 0.41483 0.21442 0.0
S781 S 0.4913 0.45855 0.28532 0.0
N782 N 0.47748 0.48551 0.23634 0.0
N783 N 0.4454 0.42566 0.2984 0.0
C784 C 0.41613 0.43653 0.26257 0.0
C785 C 0.4333 0.46879 0.22899 0.0
C786 C 0.32537 0.65763 -0.01395 0.0
C787 C 0.33158 0.60921 0.98058 0.0
C788 C 0.30506 0.68401 0.9506 0.0
C789 C 0.29008 0.6625 0.90912 0.0
H790 H 0.34161 0.67584 0.01506 0.0
H791 H 0.30542 0.72176 0.95378 0.0
S792 S 0.28555 0.53527 0.88486 0.0
N793 N 0.31153 0.53956 0.93622 0.0
N794 N 0.27245 0.5893 0.86933 0.0
C795 C 0.28857 0.61345 0.90694 0.0
C796 C 0.3095 0.58655 0.94312 0.0
C797 C 0.16827 0.58777 0.62968 0.0
C798 C 0.14735 0.61244 0.5927 0.0
C799 C 0.20333 0.60818 0.65682 0.0
C800 C 0.21931 0.65329 0.64697 0.0
H801 H 0.15582 0.55341 0.63932 0.0
H802 H 0.21631 0.58958 0.68709 0.0
S803 S 0.1802 0.73018 0.55049 0.0
N804 N 0.14784 0.68269 0.54513 0.0
N805 N 0.21493 0.72073 0.59567 0.0
C806 C 0.20134 0.67698 0.60798 0.0
C807 C 0.16484 0.65666 0.58098 0.0
C808 C 0.34013 0.33041 0.60639 0.0
C809 C 0.31802 0.34888 0.6465 0.0
C810 C 0.36202 0.35998 0.5744 0.0
C811 C 0.36201 0.40853 0.58155 0.0
H812 H 0.34475 0.29302 0.60206 0.0
H813 H 0.38263 0.3447 0.54628 0.0
S814 S 0.29591 0.47395 0.67323 0.0
N815 N 0.2877 0.41837 0.68593 0.0
N816 N 0.32871 0.47415 0.62537 0.0
C817 C 0.3336 0.42751 0.61736 0.0
C818 C 0.31174 0.39744 0.65022 0.0
C819 C 0.22781 0.68242 0.13373 0.0
C820 C 0.20895 0.72562 0.14869 0.0
C821 C 0.20199 0.65254 0.10494 0.0
C822 C 0.15626 0.66463 0.09004 0.0
H823 H 0.26165 0.67019 0.14643 0.0
H824 H 0.21701 0.61853 0.0968 0.0
S825 S 0.09577 0.77862 0.10982 0.0
N826 N 0.14542 0.7826 0.13952 0.0
N827 N 0.09671 0.72622 0.08543 0.0
C828 C 0.13893 0.70964 0.10086 0.0
C829 C 0.16532 0.74019 0.13018 0.0
C830 C 0.62135 0.3845 0.71399 0.0
C831 C 0.66574 0.40376 0.7239 0.0
C832 C 0.59055 0.4063 0.68315 0.0
C833 C 0.603 0.44828 0.66122 0.0
H834 H 0.61154 0.35065 0.7277 0.0
H835 H 0.55801 0.38863 0.67453 0.0
S836 S 0.71021 0.51867 0.68472 0.0
N837 N 0.71719 0.47105 0.71631 0.0
N838 N 0.65882 0.51283 0.65843 0.0
C839 C 0.64479 0.47077 0.67525 0.0
C840 C 0.67632 0.44835 0.70674 0.0
C841 C 0.84744 0.58755 0.16926 0.0
C842 C 0.85584 0.60631 0.214 0.0
C843 C 0.88382 0.56652 0.14356 0.0
C844 C 0.92937 0.5628 0.16207 0.0
H845 H 0.81371 0.5926 0.15223 0.0
H846 H 0.87714 0.55621 0.10772 0.0
S847 S 0.96714 0.59432 0.28144 0.0
N848 N 0.91119 0.61093 0.27905 0.0
N849 N 0.9796 0.57117 0.22982 0.0
C850 C 0.93708 0.57579 0.2085 0.0
C851 C 0.90004 0.59737 0.23492 0.0
C852 C 0.87527 0.66408 0.56875 0.0
C853 C 0.88599 0.6164 0.57078 0.0
C854 C 0.84568 0.68472 0.60202 0.0
C855 C 0.82671 0.65855 0.63924 0.0
H856 H 0.89094 0.68584 0.54202 0.0
H857 H 0.83951 0.72201 0.59952 0.0
S858 S 0.84294 0.53132 0.65824 0.0
N859 N 0.87402 0.54255 0.6107 0.0
N860 N 0.81891 0.58164 0.67437 0.0
C861 C 0.83575 0.61024 0.64048 0.0
C862 C 0.86531 0.58906 0.60592 0.0
C863 C 0.37264 0.63067 0.43285 0.0
C864 C 0.40122 0.59626 0.41136 0.0
C865 C 0.35474 0.66817 0.40765 0.0
C866 C 0.36383 0.67259 0.35966 0.0
H867 H 0.36534 0.62995 0.47001 0.0
H868 H 0.33392 0.6942 0.42628 0.0
S869 S 0.43173 0.58938 0.28518 0.0
N870 N 0.43469 0.56703 0.33816 0.0
N871 N 0.39988 0.63768 0.29038 0.0
C872 C 0.38995 0.6372 0.33686 0.0
C873 C 0.40888 0.59898 0.3628 0.0
C874 C 0.22315 0.41151 0.89016 0.0
C875 C 0.19977 0.3848 0.85619 0.0
C876 C 0.19916 0.44639 0.9153 0.0
C877 C 0.15121 0.45617 0.90673 0.0
H878 H 0.25957 0.40393 0.89898 0.0
H879 H 0.21786 0.46429 0.94295 0.0
S880 S 0.07701 0.40116 0.81498 0.0
N881 N 0.12828 0.37358 0.81121 0.0
N882 N 0.08315 0.44008 0.85721 0.0
C883 C 0.12861 0.43193 0.87014 0.0
C884 C 0.15289 0.3959 0.84524 0.0
C885 C 0.14314 0.34262 0.39828 0.0
C886 C 0.18862 0.33355 0.41587 0.0
C887 C 0.11528 0.37826 0.41709 0.0
C888 C 0.13133 0.40477 0.45493 0.0
H889 H 0.13049 0.32517 0.36713 0.0
H890 H 0.08195 0.38664 0.4005 0.0
S891 S 0.24233 0.38801 0.52065 0.0
N892 N 0.24511 0.34899 0.47796 0.0
N893 N 0.19122 0.41545 0.51443 0.0
C894 C 0.17393 0.39263 0.47651 0.0
C895 C 0.20299 0.35689 0.45672 0.0
loop_
_geom_bond_atom_site_label_1
_geom_bond_atom_site_label_2
_geom_bond_distance
_geom_bond_site_symmetry_2
_ccdc_geom_bond_type
O0 Zn1 1.953 . S
O0 C16 1.226 1_554 S
Zn1 O0 1.953 . S
Zn1 O2 1.961 1_545 S
Zn1 O8 1.919 1_455 S
Zn1 O13 1.924 . S
O2 Zn1 1.961 1_565 S
O2 Zn3 1.900 1_465 S
O2 Zn4 1.954 1_564 S
O2 Zn5 1.951 . S
Zn3 O2 1.900 1_645 S
Zn3 O6 1.933 1_545 S
Zn3 O9 1.941 . S
Zn3 O10 1.965 1_554 S
Zn4 O2 1.954 1_546 S
Zn4 O11 1.938 1_455 S
Zn4 O12 1.906 1_545 S
Zn4 O22 1.953 . S
Zn5 O2 1.951 . S
Zn5 O7 1.932 1_455 S
Zn5 O14 1.977 1_554 S
Zn5 O15 1.910 . S
O6 Zn3 1.933 1_565 S
O6 C17 1.226 . S
O7 Zn5 1.932 1_655 S
O7 C17 1.307 . S
O8 Zn1 1.919 1_655 S
O8 C19 1.253 . S
O9 Zn3 1.941 . S
O9 C19 1.283 . S
O10 Zn3 1.965 1_556 S
O10 C18 1.303 . S
O11 Zn4 1.938 1_655 S
O11 C18 1.247 . S
O12 Zn4 1.906 1_565 S
O12 C20 1.304 . S
O13 Zn1 1.924 . S
O13 C21 1.311 1_545 S
O14 Zn5 1.977 1_556 S
O14 C20 1.272 . S
O15 Zn5 1.910 . S
O15 C21 1.231 . S
C16 O0 1.226 1_556 S
C16 O22 1.298 . S
C17 O6 1.226 . S
C17 O7 1.307 . S
C18 O10 1.303 . S
C18 O11 1.247 . S
C19 O8 1.253 . S
C19 O9 1.283 . S
C20 O12 1.304 . S
C20 O14 1.272 . S
C21 O13 1.311 1_565 S
C21 O15 1.231 . S
O22 Zn4 1.953 . S
O22 C16 1.298 . S
O23 Zn24 1.953 . S
O23 C39 1.225 . S
Zn24 O23 1.953 . S
Zn24 O25 1.949 . S
Zn24 O31 1.919 . S
Zn24 O36 1.924 . S
O25 Zn24 1.949 . S
O25 Zn26 1.923 . S
O25 Zn27 1.950 . S
O25 Zn28 1.945 . S
Zn26 O25 1.923 . S
Zn26 O29 1.933 . S
Zn26 O32 1.941 . S
Zn26 O33 1.965 . S
Zn27 O25 1.950 . S
Zn27 O34 1.938 . S
Zn27 O35 1.906 . S
Zn27 O45 1.953 . S
Zn28 O25 1.945 . S
Zn28 O30 1.932 . S
Zn28 O37 1.977 . S
Zn28 O38 1.910 . S
O29 Zn26 1.933 . S
O29 C40 1.226 . S
O30 Zn28 1.932 . S
O30 C40 1.307 . S
O31 Zn24 1.919 . S
O31 C42 1.253 . S
O32 Zn26 1.941 . S
O32 C42 1.283 . S
O33 Zn26 1.965 . S
O33 C41 1.303 . S
O34 Zn27 1.938 . S
O34 C41 1.247 . S
O35 Zn27 1.906 . S
O35 C43 1.304 . S
O36 Zn24 1.924 . S
O36 C44 1.311 . S
O37 Zn28 1.977 . S
O37 C43 1.272 . S
O38 Zn28 1.910 . S
O38 C44 1.231 . S
C39 O23 1.225 . S
C39 O45 1.298 . S
C40 O29 1.226 . S
C40 O30 1.307 . S
C41 O33 1.303 . S
C41 O34 1.247 . S
C42 O31 1.253 . S
C42 O32 1.283 . S
C43 O35 1.304 . S
C43 O37 1.272 . S
C44 O36 1.311 . S
C44 O38 1.231 . S
O45 Zn27 1.953 . S
O45 C39 1.298 . S
O46 Zn47 1.953 1_565 S
O46 C62 1.225 . S
Zn47 O46 1.953 1_545 S
Zn47 O48 1.949 . S
Zn47 O54 1.919 1_545 S
Zn47 O59 1.924 . S
O48 Zn47 1.949 . S
O48 Zn49 1.923 . S
O48 Zn50 1.950 . S
O48 Zn51 1.945 . S
Zn49 O48 1.923 . S
Zn49 O52 1.933 . S
Zn49 O55 1.941 1_545 S
Zn49 O56 1.965 . S
Zn50 O48 1.950 . S
Zn50 O57 1.938 . S
Zn50 O58 1.906 . S
Zn50 O68 1.955 . S
Zn51 O48 1.945 . S
Zn51 O53 1.932 . S
Zn51 O60 1.977 . S
Zn51 O61 1.910 . S
O52 Zn49 1.933 . S
O52 C63 1.226 . S
O53 Zn51 1.932 . S
O53 C63 1.307 . S
O54 Zn47 1.919 1_565 S
O54 C65 1.253 . S
O55 Zn49 1.941 1_565 S
O55 C65 1.283 . S
O56 Zn49 1.965 . S
O56 C64 1.303 . S
O57 Zn50 1.938 . S
O57 C64 1.247 . S
O58 Zn50 1.906 . S
O58 C66 1.304 . S
O59 Zn47 1.924 . S
O59 C67 1.311 . S
O60 Zn51 1.977 . S
O60 C66 1.272 . S
O61 Zn51 1.910 . S
O61 C67 1.231 . S
C62 O46 1.225 . S
C62 O68 1.296 1_565 S
C63 O52 1.226 . S
C63 O53 1.307 . S
C64 O56 1.303 . S
C64 O57 1.247 . S
C65 O54 1.253 . S
C65 O55 1.283 . S
C66 O58 1.304 . S
C66 O60 1.272 . S
C67 O59 1.311 . S
C67 O61 1.231 . S
O68 Zn50 1.955 . S
O68 C62 1.296 1_545 S
O69 Zn70 1.953 . S
O69 C85 1.225 . S
Zn70 O69 1.953 . S
Zn70 O71 1.949 . S
Zn70 O77 1.919 . S
Zn70 O82 1.924 . S
O71 Zn70 1.949 . S
O71 Zn72 1.923 . S
O71 Zn73 1.950 . S
O71 Zn74 1.945 . S
Zn72 O71 1.923 . S
Zn72 O75 1.933 . S
Zn72 O78 1.941 . S
Zn72 O79 1.965 . S
Zn73 O71 1.950 . S
Zn73 O80 1.938 . S
Zn73 O81 1.906 . S
Zn73 O91 1.953 . S
Zn74 O71 1.945 . S
Zn74 O76 1.932 . S
Zn74 O83 1.977 . S
Zn74 O84 1.910 . S
O75 Zn72 1.933 . S
O75 C86 1.226 . S
O76 Zn74 1.932 . S
O76 C86 1.307 . S
O77 Zn70 1.919 . S
O77 C88 1.253 . S
O78 Zn72 1.941 . S
O78 C88 1.283 . S
O79 Zn72 1.965 . S
O79 C87 1.303 . S
O80 Zn73 1.938 . S
O80 C87 1.247 . S
O81 Zn73 1.906 . S
O81 C89 1.304 . S
O82 Zn70 1.924 . S
O82 C90 1.311 . S
O83 Zn74 1.977 . S
O83 C89 1.272 . S
O84 Zn74 1.910 . S
O84 C90 1.231 . S
C85 O69 1.225 . S
C85 O91 1.298 . S
C86 O75 1.226 . S
C86 O76 1.307 . S
C87 O79 1.303 . S
C87 O80 1.247 . S
C88 O77 1.253 . S
C88 O78 1.283 . S
C89 O81 1.304 . S
C89 O83 1.272 . S
C90 O82 1.311 . S
C90 O84 1.231 . S
O91 Zn73 1.953 . S
O91 C85 1.298 . S
O92 Zn93 1.953 1_565 S
O92 C108 1.225 . S
Zn93 O92 1.953 1_545 S
Zn93 O94 1.949 . S
Zn93 O100 1.919 . S
Zn93 O105 1.924 1_545 S
O94 Zn93 1.949 . S
O94 Zn95 1.923 . S
O94 Zn96 1.950 1_455 S
O94 Zn97 1.945 . S
Zn95 O94 1.923 . S
Zn95 O98 1.933 . S
Zn95 O101 1.941 . S
Zn95 O102 1.965 1_455 S
Zn96 O94 1.950 1_655 S
Zn96 O103 1.938 . S
Zn96 O104 1.906 . S
Zn96 O114 1.953 1_545 S
Zn97 O94 1.945 . S
Zn97 O99 1.932 . S
Zn97 O106 1.983 . S
Zn97 O107 1.910 1_545 S
O98 Zn95 1.933 . S
O98 C109 1.226 . S
O99 Zn97 1.932 . S
O99 C109 1.307 . S
O100 Zn93 1.919 . S
O100 C111 1.253 . S
O101 Zn95 1.941 . S
O101 C111 1.283 . S
O102 Zn95 1.965 1_655 S
O102 C110 1.303 . S
O103 Zn96 1.938 . S
O103 C110 1.247 . S
O104 Zn96 1.906 . S
O104 C112 1.304 . S
O105 Zn93 1.924 1_565 S
O105 C113 1.311 . S
O106 Zn97 1.983 . S
O106 C112 1.273 1_455 S
O107 Zn97 1.910 1_565 S
O107 C113 1.231 . S
C108 O92 1.225 . S
C108 O114 1.298 1_455 S
C109 O98 1.226 . S
C109 O99 1.307 . S
C110 O102 1.303 . S
C110 O103 1.247 . S
C111 O100 1.253 . S
C111 O101 1.283 . S
C112 O104 1.304 . S
C112 O106 1.273 1_655 S
C113 O105 1.311 . S
C113 O107 1.231 . S
O114 Zn96 1.953 1_565 S
O114 C108 1.298 1_655 S
O115 Zn116 1.953 . S
O115 C131 1.225 . S
Zn116 O115 1.953 . S
Zn116 O117 1.949 . S
Zn116 O123 1.919 . S
Zn116 O128 1.924 . S
O117 Zn116 1.949 . S
O117 Zn118 1.923 . S
O117 Zn119 1.950 . S
O117 Zn120 1.945 . S
Zn118 O117 1.923 . S
Zn118 O121 1.933 . S
Zn118 O124 1.941 . S
Zn118 O125 1.965 . S
Zn119 O117 1.950 . S
Zn119 O126 1.938 . S
Zn119 O127 1.906 . S
Zn119 O137 1.953 . S
Zn120 O117 1.945 . S
Zn120 O122 1.932 . S
Zn120 O129 1.977 . S
Zn120 O130 1.910 . S
O121 Zn118 1.933 . S
O121 C132 1.226 . S
O122 Zn120 1.932 . S
O122 C132 1.307 . S
O123 Zn116 1.919 . S
O123 C134 1.253 . S
O124 Zn118 1.941 . S
O124 C134 1.283 . S
O125 Zn118 1.965 . S
O125 C133 1.303 . S
O126 Zn119 1.938 . S
O126 C133 1.247 . S
O127 Zn119 1.906 . S
O127 C135 1.304 . S
O128 Zn116 1.924 . S
O128 C136 1.311 . S
O129 Zn120 1.977 . S
O129 C135 1.272 . S
O130 Zn120 1.910 . S
O130 C136 1.231 . S
C131 O115 1.225 . S
C131 O137 1.298 . S
C132 O121 1.226 . S
C132 O122 1.307 . S
C133 O125 1.303 . S
C133 O126 1.247 . S
C134 O123 1.253 . S
C134 O124 1.283 . S
C135 O127 1.304 . S
C135 O129 1.272 . S
C136 O128 1.311 . S
C136 O130 1.231 . S
O137 Zn119 1.953 . S
O137 C131 1.298 . S
O138 Zn139 1.954 1_545 S
O138 C154 1.225 . S
Zn139 O138 1.954 1_565 S
Zn139 O140 1.949 1_565 S
Zn139 O146 1.918 . S
Zn139 O151 1.924 . S
O140 Zn139 1.949 1_545 S
O140 Zn141 1.923 . S
O140 Zn142 1.950 . S
O140 Zn143 1.945 1_554 S
Zn141 O140 1.923 . S
Zn141 O144 1.948 . S
Zn141 O147 1.941 1_545 S
Zn141 O148 1.965 . S
Zn142 O140 1.950 . S
Zn142 O149 1.938 . S
Zn142 O150 1.906 1_554 S
Zn142 O160 1.953 . S
Zn143 O140 1.945 1_556 S
Zn143 O145 1.932 1_545 S
Zn143 O152 1.977 . S
Zn143 O153 1.910 1_545 S
O144 Zn141 1.948 . S
O144 C155 1.211 1_544 S
O145 Zn143 1.932 1_565 S
O145 C155 1.307 . S
O146 Zn139 1.918 . S
O146 C157 1.253 . S
O147 Zn141 1.941 1_565 S
O147 C157 1.283 . S
O148 Zn141 1.965 . S
O148 C156 1.303 . S
O149 Zn142 1.938 . S
O149 C156 1.247 . S
O150 Zn142 1.906 1_556 S
O150 C158 1.304 . S
O151 Zn139 1.924 . S
O151 C159 1.311 . S
O152 Zn143 1.977 . S
O152 C158 1.272 . S
O153 Zn143 1.910 1_565 S
O153 C159 1.231 1_556 S
C154 O138 1.225 . S
C154 O160 1.298 . S
C155 O144 1.211 1_566 S
C155 O145 1.307 . S
C156 O148 1.303 . S
C156 O149 1.247 . S
C157 O146 1.253 . S
C157 O147 1.283 . S
C158 O150 1.304 . S
C158 O152 1.272 . S
C159 O151 1.311 . S
C159 O153 1.231 1_554 S
O160 Zn142 1.953 . S
O160 C154 1.298 . S
O161 Zn162 1.953 . S
O161 C177 1.225 . S
Zn162 O161 1.953 . S
Zn162 O163 1.949 . S
Zn162 O169 1.919 . S
Zn162 O174 1.924 . S
O163 Zn162 1.949 . S
O163 Zn164 1.923 . S
O163 Zn165 1.950 . S
O163 Zn166 1.945 . S
Zn164 O163 1.923 . S
Zn164 O167 1.933 . S
Zn164 O170 1.941 . S
Zn164 O171 1.965 . S
Zn165 O163 1.950 . S
Zn165 O172 1.938 . S
Zn165 O173 1.906 . S
Zn165 O183 1.953 . S
Zn166 O163 1.945 . S
Zn166 O168 1.932 . S
Zn166 O175 1.977 . S
Zn166 O176 1.910 . S
O167 Zn164 1.933 . S
O167 C178 1.226 . S
O168 Zn166 1.932 . S
O168 C178 1.307 . S
O169 Zn162 1.919 . S
O169 C180 1.253 . S
O170 Zn164 1.941 . S
O170 C180 1.283 . S
O171 Zn164 1.965 . S
O171 C179 1.303 . S
O172 Zn165 1.938 . S
O172 C179 1.247 . S
O173 Zn165 1.906 . S
O173 C181 1.304 . S
O174 Zn162 1.924 . S
O174 C182 1.311 . S
O175 Zn166 1.977 . S
O175 C181 1.272 . S
O176 Zn166 1.910 . S
O176 C182 1.231 . S
C177 O161 1.225 . S
C177 O183 1.298 . S
C178 O167 1.226 . S
C178 O168 1.307 . S
C179 O171 1.303 . S
C179 O172 1.247 . S
C180 O169 1.253 . S
C180 O170 1.283 . S
C181 O173 1.304 . S
C181 O175 1.272 . S
C182 O174 1.311 . S
C182 O176 1.231 . S
O183 Zn165 1.953 . S
O183 C177 1.298 . S
O184 Zn185 1.953 . S
O184 C200 1.225 . S
Zn185 O184 1.953 . S
Zn185 O186 1.949 1_556 S
Zn185 O192 1.919 . S
Zn185 O197 1.924 1_556 S
O186 Zn185 1.949 1_554 S
O186 Zn187 1.923 . S
O186 Zn188 1.950 . S
O186 Zn189 1.945 . S
Zn187 O186 1.923 . S
Zn187 O190 1.933 . S
Zn187 O193 1.941 1_554 S
Zn187 O194 1.965 . S
Zn188 O186 1.950 . S
Zn188 O195 1.938 . S
Zn188 O196 1.906 . S
Zn188 O206 1.953 1_554 S
Zn189 O186 1.945 . S
Zn189 O191 1.932 . S
Zn189 O198 1.977 . S
Zn189 O199 1.910 . S
O190 Zn187 1.933 . S
O190 C201 1.226 . S
O191 Zn189 1.932 . S
O191 C201 1.307 . S
O192 Zn185 1.919 . S
O192 C203 1.253 . S
O193 Zn187 1.941 1_556 S
O193 C203 1.283 . S
O194 Zn187 1.965 . S
O194 C202 1.303 1_554 S
O195 Zn188 1.938 . S
O195 C202 1.247 1_554 S
O196 Zn188 1.906 . S
O196 C204 1.304 . S
O197 Zn185 1.924 1_554 S
O197 C205 1.311 . S
O198 Zn189 1.977 . S
O198 C204 1.272 . S
O199 Zn189 1.910 . S
O199 C205 1.231 . S
C200 O184 1.225 . S
C200 O206 1.298 . S
C201 O190 1.226 . S
C201 O191 1.307 . S
C202 O194 1.303 1_556 S
C202 O195 1.247 1_556 S
C203 O192 1.253 . S
C203 O193 1.283 . S
C204 O196 1.304 . S
C204 O198 1.272 . S
C205 O197 1.311 . S
C205 O199 1.231 . S
O206 Zn188 1.953 1_556 S
O206 C200 1.298 . S
O207 Zn208 1.953 . S
O207 C223 1.225 . S
Zn208 O207 1.953 . S
Zn208 O209 1.949 . S
Zn208 O215 1.919 . S
Zn208 O220 1.924 . S
O209 Zn208 1.949 . S
O209 Zn210 1.923 . S
O209 Zn211 1.950 . S
O209 Zn212 1.945 . S
Zn210 O209 1.923 . S
Zn210 O213 1.933 . S
Zn210 O216 1.941 . S
Zn210 O217 1.965 . S
Zn211 O209 1.950 . S
Zn211 O218 1.938 . S
Zn211 O219 1.906 . S
Zn211 O229 1.953 . S
Zn212 O209 1.945 . S
Zn212 O214 1.932 . S
Zn212 O221 1.977 . S
Zn212 O222 1.910 . S
O213 Zn210 1.933 . S
O213 C224 1.226 . S
O214 Zn212 1.932 . S
O214 C224 1.307 . S
O215 Zn208 1.919 . S
O215 C226 1.253 . S
O216 Zn210 1.941 . S
O216 C226 1.283 . S
O217 Zn210 1.965 . S
O217 C225 1.303 . S
O218 Zn211 1.938 . S
O218 C225 1.247 . S
O219 Zn211 1.906 . S
O219 C227 1.304 . S
O220 Zn208 1.924 . S
O220 C228 1.311 . S
O221 Zn212 1.977 . S
O221 C227 1.272 . S
O222 Zn212 1.910 . S
O222 C228 1.231 . S
C223 O207 1.225 . S
C223 O229 1.298 . S
C224 O213 1.226 . S
C224 O214 1.307 . S
C225 O217 1.303 . S
C225 O218 1.247 . S
C226 O215 1.253 . S
C226 O216 1.283 . S
C227 O219 1.304 . S
C227 O221 1.272 . S
C228 O220 1.311 . S
C228 O222 1.231 . S
O229 Zn211 1.953 . S
O229 C223 1.298 . S
O230 Zn231 1.953 . S
O230 C246 1.225 . S
Zn231 O230 1.953 . S
Zn231 O232 1.949 . S
Zn231 O238 1.919 . S
Zn231 O243 1.924 . S
O232 Zn231 1.949 . S
O232 Zn233 1.923 1_455 S
O232 Zn234 1.950 . S
O232 Zn235 1.945 . S
Zn233 O232 1.923 1_655 S
Zn233 O236 1.933 . S
Zn233 O239 1.941 . S
Zn233 O240 1.965 . S
Zn234 O232 1.950 . S
Zn234 O241 1.938 . S
Zn234 O242 1.906 . S
Zn234 O252 1.953 . S
Zn235 O232 1.945 . S
Zn235 O237 1.932 1_455 S
Zn235 O244 1.977 . S
Zn235 O245 1.910 . S
O236 Zn233 1.933 . S
O236 C247 1.226 . S
O237 Zn235 1.932 1_655 S
O237 C247 1.307 . S
O238 Zn231 1.919 . S
O238 C249 1.253 1_455 S
O239 Zn233 1.941 . S
O239 C249 1.283 . S
O240 Zn233 1.965 . S
O240 C248 1.303 . S
O241 Zn234 1.938 . S
O241 C248 1.247 1_455 S
O242 Zn234 1.906 . S
O242 C250 1.304 . S
O243 Zn231 1.924 . S
O243 C251 1.311 . S
O244 Zn235 1.977 . S
O244 C250 1.272 . S
O245 Zn235 1.910 . S
O245 C251 1.231 . S
C246 O230 1.225 . S
C246 O252 1.298 . S
C247 O236 1.226 . S
C247 O237 1.307 . S
C248 O240 1.303 . S
C248 O241 1.247 1_655 S
C249 O238 1.253 1_655 S
C249 O239 1.283 . S
C250 O242 1.304 . S
C250 O244 1.272 . S
C251 O243 1.311 . S
C251 O245 1.231 . S
O252 Zn234 1.953 . S
O252 C246 1.298 . S
O253 Zn254 1.953 . S
O253 C269 1.225 . S
Zn254 O253 1.953 . S
Zn254 O255 1.949 . S
Zn254 O261 1.919 . S
Zn254 O266 1.924 . S
O255 Zn254 1.949 . S
O255 Zn256 1.923 . S
O255 Zn257 1.950 . S
O255 Zn258 1.945 . S
Zn256 O255 1.923 . S
Zn256 O259 1.933 . S
Zn256 O262 1.941 . S
Zn256 O263 1.965 . S
Zn257 O255 1.950 . S
Zn257 O264 1.938 . S
Zn257 O265 1.906 . S
Zn257 O275 1.953 . S
Zn258 O255 1.945 . S
Zn258 O260 1.932 . S
Zn258 O267 1.977 . S
Zn258 O268 1.910 . S
O259 Zn256 1.933 . S
O259 C270 1.226 . S
O260 Zn258 1.932 . S
O260 C270 1.307 . S
O261 Zn254 1.919 . S
O261 C272 1.253 . S
O262 Zn256 1.941 . S
O262 C272 1.283 . S
O263 Zn256 1.965 . S
O263 C271 1.303 . S
O264 Zn257 1.938 . S
O264 C271 1.247 . S
O265 Zn257 1.906 . S
O265 C273 1.304 . S
O266 Zn254 1.924 . S
O266 C274 1.311 . S
O267 Zn258 1.977 . S
O267 C273 1.272 . S
O268 Zn258 1.910 . S
O268 C274 1.231 . S
C269 O253 1.225 . S
C269 O275 1.298 . S
C270 O259 1.226 . S
C270 O260 1.307 . S
C271 O263 1.303 . S
C271 O264 1.247 . S
C272 O261 1.253 . S
C272 O262 1.283 . S
C273 O265 1.304 . S
C273 O267 1.272 . S
C274 O266 1.311 . S
C274 O268 1.231 . S
O275 Zn257 1.953 . S
O275 C269 1.298 . S
O276 Zn277 1.953 . S
O276 C292 1.225 . S
Zn277 O276 1.953 . S
Zn277 O278 1.949 . S
Zn277 O284 1.919 . S
Zn277 O289 1.924 . S
O278 Zn277 1.949 . S
O278 Zn279 1.923 . S
O278 Zn280 1.950 . S
O278 Zn281 1.945 . S
Zn279 O278 1.923 . S
Zn279 O282 1.933 . S
Zn279 O285 1.941 . S
Zn279 O286 1.965 . S
Zn280 O278 1.950 . S
Zn280 O287 1.938 . S
Zn280 O288 1.906 . S
Zn280 O298 1.953 . S
Zn281 O278 1.945 . S
Zn281 O283 1.932 . S
Zn281 O290 1.977 . S
Zn281 O291 1.910 . S
O282 Zn279 1.933 . S
O282 C293 1.226 . S
O283 Zn281 1.932 . S
O283 C293 1.307 . S
O284 Zn277 1.919 . S
O284 C295 1.253 . S
O285 Zn279 1.941 . S
O285 C295 1.283 . S
O286 Zn279 1.965 . S
O286 C294 1.303 . S
O287 Zn280 1.938 . S
O287 C294 1.247 . S
O288 Zn280 1.906 . S
O288 C296 1.304 . S
O289 Zn277 1.924 . S
O289 C297 1.311 . S
O290 Zn281 1.977 . S
O290 C296 1.272 . S
O291 Zn281 1.910 . S
O291 C297 1.231 . S
C292 O276 1.225 . S
C292 O298 1.298 . S
C293 O282 1.226 . S
C293 O283 1.307 . S
C294 O286 1.303 . S
C294 O287 1.247 . S
C295 O284 1.253 . S
C295 O285 1.283 . S
C296 O288 1.304 . S
C296 O290 1.272 . S
C297 O289 1.311 . S
C297 O291 1.231 . S
O298 Zn280 1.953 . S
O298 C292 1.298 . S
O299 Zn300 1.953 . S
O299 C315 1.225 . S
Zn300 O299 1.953 . S
Zn300 O301 1.949 . S
Zn300 O307 1.919 . S
Zn300 O312 1.924 . S
O301 Zn300 1.949 . S
O301 Zn302 1.923 . S
O301 Zn303 1.950 . S
O301 Zn304 1.945 . S
Zn302 O301 1.923 . S
Zn302 O305 1.933 . S
Zn302 O308 1.941 . S
Zn302 O309 1.965 . S
Zn303 O301 1.950 . S
Zn303 O310 1.938 . S
Zn303 O311 1.906 . S
Zn303 O321 1.953 . S
Zn304 O301 1.945 . S
Zn304 O306 1.932 . S
Zn304 O313 1.977 . S
Zn304 O314 1.910 . S
O305 Zn302 1.933 . S
O305 C316 1.226 . S
O306 Zn304 1.932 . S
O306 C316 1.307 . S
O307 Zn300 1.919 . S
O307 C318 1.253 . S
O308 Zn302 1.941 . S
O308 C318 1.283 . S
O309 Zn302 1.965 . S
O309 C317 1.303 . S
O310 Zn303 1.938 . S
O310 C317 1.247 . S
O311 Zn303 1.906 . S
O311 C319 1.304 . S
O312 Zn300 1.924 . S
O312 C320 1.311 . S
O313 Zn304 1.977 . S
O313 C319 1.272 . S
O314 Zn304 1.910 . S
O314 C320 1.231 . S
C315 O299 1.225 . S
C315 O321 1.298 . S
C316 O305 1.226 . S
C316 O306 1.307 . S
C317 O309 1.303 . S
C317 O310 1.247 . S
C318 O307 1.253 . S
C318 O308 1.283 . S
C319 O311 1.304 . S
C319 O313 1.272 . S
C320 O312 1.311 . S
C320 O314 1.231 . S
O321 Zn303 1.953 . S
O321 C315 1.298 . S
O322 Zn323 1.953 . S
O322 C338 1.225 . S
Zn323 O322 1.953 . S
Zn323 O324 1.949 . S
Zn323 O330 1.919 . S
Zn323 O335 1.924 . S
O324 Zn323 1.949 . S
O324 Zn325 1.923 . S
O324 Zn326 1.950 . S
O324 Zn327 1.945 . S
Zn325 O324 1.923 . S
Zn325 O328 1.933 . S
Zn325 O331 1.941 . S
Zn325 O332 1.965 . S
Zn326 O324 1.950 . S
Zn326 O333 1.938 . S
Zn326 O334 1.906 . S
Zn326 O344 1.953 . S
Zn327 O324 1.945 . S
Zn327 O329 1.932 . S
Zn327 O336 1.977 . S
Zn327 O337 1.910 . S
O328 Zn325 1.933 . S
O328 C339 1.226 . S
O329 Zn327 1.932 . S
O329 C339 1.307 . S
O330 Zn323 1.919 . S
O330 C341 1.253 . S
O331 Zn325 1.941 . S
O331 C341 1.283 . S
O332 Zn325 1.965 . S
O332 C340 1.303 . S
O333 Zn326 1.938 . S
O333 C340 1.247 . S
O334 Zn326 1.906 . S
O334 C342 1.304 . S
O335 Zn323 1.924 . S
O335 C343 1.311 . S
O336 Zn327 1.977 . S
O336 C342 1.272 . S
O337 Zn327 1.910 . S
O337 C343 1.231 . S
C338 O322 1.225 . S
C338 O344 1.298 . S
C339 O328 1.226 . S
C339 O329 1.307 . S
C340 O332 1.303 . S
C340 O333 1.247 . S
C341 O330 1.253 . S
C341 O331 1.283 . S
C342 O334 1.304 . S
C342 O336 1.272 . S
C343 O335 1.311 . S
C343 O337 1.231 . S
O344 Zn326 1.953 . S
O344 C338 1.298 . S
O345 Zn346 1.953 1_655 S
O345 C361 1.225 1_554 S
Zn346 O345 1.953 1_455 S
Zn346 O347 1.949 . S
Zn346 O353 1.919 . S
Zn346 O358 1.924 1_455 S
O347 Zn346 1.949 . S
O347 Zn348 1.923 . S
O347 Zn349 1.950 1_554 S
O347 Zn350 1.945 . S
Zn348 O347 1.923 . S
Zn348 O351 1.933 . S
Zn348 O354 1.941 . S
Zn348 O355 1.965 1_554 S
Zn349 O347 1.950 1_556 S
Zn349 O356 1.938 . S
Zn349 O357 1.906 . S
Zn349 O367 1.953 1_455 S
Zn350 O347 1.945 . S
Zn350 O352 1.932 . S
Zn350 O359 1.977 . S
Zn350 O360 1.910 1_455 S
O351 Zn348 1.933 . S
O351 C362 1.226 . S
O352 Zn350 1.932 . S
O352 C362 1.307 . S
O353 Zn346 1.919 . S
O353 C364 1.253 . S
O354 Zn348 1.941 . S
O354 C364 1.283 . S
O355 Zn348 1.965 1_556 S
O355 C363 1.303 . S
O356 Zn349 1.938 . S
O356 C363 1.247 . S
O357 Zn349 1.906 . S
O357 C365 1.304 . S
O358 Zn346 1.924 1_655 S
O358 C366 1.311 . S
O359 Zn350 1.977 . S
O359 C365 1.272 1_554 S
O360 Zn350 1.910 1_655 S
O360 C366 1.231 . S
C361 O345 1.225 1_556 S
C361 O367 1.298 . S
C362 O351 1.226 . S
C362 O352 1.307 . S
C363 O355 1.303 . S
C363 O356 1.247 . S
C364 O353 1.253 . S
C364 O354 1.283 . S
C365 O357 1.304 . S
C365 O359 1.272 1_556 S
C366 O358 1.311 . S
C366 O360 1.231 . S
O367 Zn349 1.953 1_655 S
O367 C361 1.298 . S
C368 C369 1.369 . S
C368 C370 1.419 . S
C368 H372 0.930 . S
C369 C368 1.369 . S
C369 C378 1.429 . S
C370 C368 1.419 . S
C370 C371 1.363 . S
C370 H373 0.929 . S
C371 C370 1.363 . S
C371 C377 1.428 . S
H372 C368 0.930 . S
H373 C370 0.929 . S
S374 N375 1.613 . S
S374 N376 1.610 . S
N375 S374 1.613 . S
N375 C378 1.350 . S
N376 S374 1.610 . S
N376 C377 1.351 . S
C377 C371 1.428 . S
C377 N376 1.351 . S
C377 C378 1.434 . S
C378 C369 1.429 . S
C378 N375 1.350 . S
C378 C377 1.434 . S
C379 C380 1.369 . S
C379 C381 1.419 . S
C379 H383 0.930 . S
C380 C379 1.369 . S
C380 C389 1.429 . S
C381 C379 1.419 . S
C381 C382 1.363 . S
C381 H384 0.929 . S
C382 C381 1.363 . S
C382 C388 1.428 . S
H383 C379 0.930 . S
H384 C381 0.929 . S
S385 N386 1.613 1_565 S
S385 N387 1.623 . S
N386 S385 1.613 1_545 S
N386 C389 1.350 1_545 S
N387 S385 1.623 . S
N387 C388 1.351 . S
C388 C382 1.428 . S
C388 N387 1.351 . S
C388 C389 1.434 . S
C389 C380 1.429 . S
C389 N386 1.350 1_565 S
C389 C388 1.434 . S
C390 C391 1.369 . S
C390 C392 1.419 . S
C390 H394 0.930 . S
C391 C390 1.369 . S
C391 C400 1.429 . S
C392 C390 1.419 . S
C392 C393 1.363 . S
C392 H395 0.929 . S
C393 C392 1.363 . S
C393 C399 1.428 . S
H394 C390 0.930 . S
H395 C392 0.929 . S
S396 N397 1.613 . S
S396 N398 1.610 . S
N397 S396 1.613 . S
N397 C400 1.350 . S
N398 S396 1.610 . S
N398 C399 1.351 . S
C399 C393 1.428 . S
C399 N398 1.351 . S
C399 C400 1.434 . S
C400 C391 1.429 . S
C400 N397 1.350 . S
C400 C399 1.434 . S
C401 C402 1.369 . S
C401 C403 1.419 . S
C401 H405 0.930 . S
C402 C401 1.369 . S
C402 C411 1.429 . S
C403 C401 1.419 . S
C403 C404 1.363 . S
C403 H406 0.929 . S
C404 C403 1.363 . S
C404 C410 1.428 . S
H405 C401 0.930 . S
H406 C403 0.929 . S
S407 N408 1.613 . S
S407 N409 1.610 . S
N408 S407 1.613 . S
N408 C411 1.350 . S
N409 S407 1.610 . S
N409 C410 1.351 . S
C410 C404 1.428 . S
C410 N409 1.351 . S
C410 C411 1.434 . S
C411 C402 1.429 . S
C411 N408 1.350 . S
C411 C410 1.434 . S
C412 C413 1.369 . S
C412 C414 1.419 . S
C412 H416 0.930 . S
C413 C412 1.369 . S
C413 C422 1.429 . S
C414 C412 1.419 . S
C414 C415 1.363 . S
C414 H417 0.929 . S
C415 C414 1.363 . S
C415 C421 1.428 . S
H416 C412 0.930 . S
H417 C414 0.929 . S
S418 N419 1.613 . S
S418 N420 1.610 . S
N419 S418 1.613 . S
N419 C422 1.350 . S
N420 S418 1.610 . S
N420 C421 1.351 . S
C421 C415 1.428 . S
C421 N420 1.351 . S
C421 C422 1.434 . S
C422 C413 1.429 . S
C422 N419 1.350 . S
C422 C421 1.434 . S
C423 C424 1.369 . S
C423 C425 1.419 . S
C423 H427 0.930 . S
C424 C423 1.369 . S
C424 C433 1.429 . S
C425 C423 1.419 . S
C425 C426 1.363 . S
C425 H428 0.929 . S
C426 C425 1.363 . S
C426 C432 1.428 . S
H427 C423 0.930 . S
H428 C425 0.929 . S
S429 N430 1.613 . S
S429 N431 1.610 . S
N430 S429 1.613 . S
N430 C433 1.350 . S
N431 S429 1.610 . S
N431 C432 1.351 . S
C432 C426 1.428 . S
C432 N431 1.351 . S
C432 C433 1.434 . S
C433 C424 1.429 . S
C433 N430 1.350 . S
C433 C432 1.434 . S
C434 C435 1.369 . S
C434 C436 1.419 . S
C434 H438 0.930 . S
C435 C434 1.369 . S
C435 C444 1.429 . S
C436 C434 1.419 . S
C436 C437 1.363 . S
C436 H439 0.929 . S
C437 C436 1.363 . S
C437 C443 1.428 . S
H438 C434 0.930 . S
H439 C436 0.929 . S
S440 N441 1.613 . S
S440 N442 1.610 . S
N441 S440 1.613 . S
N441 C444 1.350 . S
N442 S440 1.610 . S
N442 C443 1.351 . S
C443 C437 1.428 . S
C443 N442 1.351 . S
C443 C444 1.434 . S
C444 C435 1.429 . S
C444 N441 1.350 . S
C444 C443 1.434 . S
C445 C446 1.369 . S
C445 C447 1.419 . S
C445 H449 0.930 . S
C446 C445 1.369 . S
C446 C455 1.429 . S
C447 C445 1.419 . S
C447 C448 1.363 . S
C447 H450 0.929 . S
C448 C447 1.363 . S
C448 C454 1.428 . S
H449 C445 0.930 . S
H450 C447 0.929 . S
S451 N452 1.613 . S
S451 N453 1.610 . S
N452 S451 1.613 . S
N452 C455 1.350 . S
N453 S451 1.610 . S
N453 C454 1.351 . S
C454 C448 1.428 . S
C454 N453 1.351 . S
C454 C455 1.434 . S
C455 C446 1.429 . S
C455 N452 1.350 . S
C455 C454 1.434 . S
C456 C457 1.369 . S
C456 C458 1.419 . S
C456 H460 0.930 . S
C457 C456 1.369 . S
C457 C466 1.429 . S
C458 C456 1.419 . S
C458 C459 1.363 . S
C458 H461 0.929 . S
C459 C458 1.363 . S
C459 C465 1.428 . S
H460 C456 0.930 . S
H461 C458 0.929 . S
S462 N463 1.613 . S
S462 N464 1.610 . S
N463 S462 1.613 . S
N463 C466 1.350 . S
N464 S462 1.610 . S
N464 C465 1.351 . S
C465 C459 1.428 . S
C465 N464 1.351 . S
C465 C466 1.434 . S
C466 C457 1.429 . S
C466 N463 1.350 . S
C466 C465 1.434 . S
C467 C468 1.369 . S
C467 C469 1.419 . S
C467 H471 0.930 . S
C468 C467 1.369 . S
C468 C477 1.429 . S
C469 C467 1.419 . S
C469 C470 1.363 . S
C469 H472 0.929 . S
C470 C469 1.363 . S
C470 C476 1.428 . S
H471 C467 0.930 . S
H472 C469 0.929 . S
S473 N474 1.613 . S
S473 N475 1.610 . S
N474 S473 1.613 . S
N474 C477 1.350 . S
N475 S473 1.610 . S
N475 C476 1.351 . S
C476 C470 1.428 . S
C476 N475 1.351 . S
C476 C477 1.434 . S
C477 C468 1.429 . S
C477 N474 1.350 . S
C477 C476 1.434 . S
C478 C479 1.369 . S
C478 C480 1.419 . S
C478 H482 0.930 . S
C479 C478 1.369 . S
C479 C488 1.429 . S
C480 C478 1.419 . S
C480 C481 1.363 . S
C480 H483 0.929 . S
C481 C480 1.363 . S
C481 C487 1.428 . S
H482 C478 0.930 . S
H483 C480 0.929 . S
S484 N485 1.613 . S
S484 N486 1.610 . S
N485 S484 1.613 . S
N485 C488 1.350 . S
N486 S484 1.610 . S
N486 C487 1.351 . S
C487 C481 1.428 . S
C487 N486 1.351 . S
C487 C488 1.434 . S
C488 C479 1.429 . S
C488 N485 1.350 . S
C488 C487 1.434 . S
C489 C490 1.369 . S
C489 C491 1.419 . S
C489 H493 0.930 . S
C490 C489 1.369 . S
C490 C499 1.429 . S
C491 C489 1.419 . S
C491 C492 1.363 . S
C491 H494 0.929 . S
C492 C491 1.363 . S
C492 C498 1.428 . S
H493 C489 0.930 . S
H494 C491 0.929 . S
S495 N496 1.613 . S
S495 N497 1.610 . S
N496 S495 1.613 . S
N496 C499 1.350 . S
N497 S495 1.610 . S
N497 C498 1.351 . S
C498 C492 1.428 . S
C498 N497 1.351 . S
C498 C499 1.434 . S
C499 C490 1.429 . S
C499 N496 1.350 . S
C499 C498 1.434 . S
C500 C501 1.369 . S
C500 C502 1.419 . S
C500 H504 0.930 . S
C501 C500 1.369 . S
C501 C510 1.429 . S
C502 C500 1.419 . S
C502 C503 1.363 . S
C502 H505 0.929 . S
C503 C502 1.363 . S
C503 C509 1.428 . S
H504 C500 0.930 . S
H505 C502 0.929 . S
S506 N507 1.613 1_455 S
S506 N508 1.610 . S
N507 S506 1.613 1_655 S
N507 C510 1.350 . S
N508 S506 1.610 . S
N508 C509 1.351 1_455 S
C509 C503 1.428 . S
C509 N508 1.351 1_655 S
C509 C510 1.434 . S
C510 C501 1.429 . S
C510 N507 1.350 . S
C510 C509 1.434 . S
C511 C512 1.369 . S
C511 C513 1.419 . S
C511 H515 0.930 . S
C512 C511 1.369 . S
C512 C521 1.429 . S
C513 C511 1.419 . S
C513 C514 1.363 . S
C513 H516 0.929 . S
C514 C513 1.363 . S
C514 C520 1.428 . S
H515 C511 0.930 . S
H516 C513 0.929 . S
S517 N518 1.613 . S
S517 N519 1.610 . S
N518 S517 1.613 . S
N518 C521 1.350 . S
N519 S517 1.610 . S
N519 C520 1.351 . S
C520 C514 1.428 . S
C520 N519 1.351 . S
C520 C521 1.434 . S
C521 C512 1.429 . S
C521 N518 1.350 . S
C521 C520 1.434 . S
C522 C523 1.369 . S
C522 C524 1.419 . S
C522 H526 0.930 . S
C523 C522 1.369 . S
C523 C532 1.429 . S
C524 C522 1.419 . S
C524 C525 1.363 . S
C524 H527 0.929 . S
C525 C524 1.363 . S
C525 C531 1.428 . S
H526 C522 0.930 . S
H527 C524 0.929 . S
S528 N529 1.613 . S
S528 N530 1.610 . S
N529 S528 1.613 . S
N529 C532 1.350 . S
N530 S528 1.610 . S
N530 C531 1.351 . S
C531 C525 1.428 . S
C531 N530 1.351 . S
C531 C532 1.434 . S
C532 C523 1.429 . S
C532 N529 1.350 . S
C532 C531 1.434 . S
C533 C534 1.369 . S
C533 C535 1.419 . S
C533 H537 0.930 . S
C534 C533 1.369 . S
C534 C543 1.429 . S
C535 C533 1.419 . S
C535 C536 1.363 . S
C535 H538 0.929 . S
C536 C535 1.363 . S
C536 C542 1.428 . S
H537 C533 0.930 . S
H538 C535 0.929 . S
S539 N540 1.613 . S
S539 N541 1.610 . S
N540 S539 1.613 . S
N540 C543 1.350 . S
N541 S539 1.610 . S
N541 C542 1.351 . S
C542 C536 1.428 . S
C542 N541 1.351 . S
C542 C543 1.434 . S
C543 C534 1.429 . S
C543 N540 1.350 . S
C543 C542 1.434 . S
C544 C545 1.369 . S
C544 C546 1.419 . S
C544 H548 0.930 . S
C545 C544 1.369 . S
C545 C554 1.429 . S
C546 C544 1.419 . S
C546 C547 1.363 . S
C546 H549 0.929 . S
C547 C546 1.363 . S
C547 C553 1.428 . S
H548 C544 0.930 . S
H549 C546 0.929 . S
S550 N551 1.613 . S
S550 N552 1.610 1_554 S
N551 S550 1.613 . S
N551 C554 1.350 1_554 S
N552 S550 1.610 1_556 S
N552 C553 1.351 . S
C553 C547 1.428 . S
C553 N552 1.351 . S
C553 C554 1.434 . S
C554 C545 1.429 . S
C554 N551 1.350 1_556 S
C554 C553 1.434 . S
C555 C556 1.369 . S
C555 C557 1.419 . S
C555 H559 0.930 . S
C556 C555 1.369 . S
C556 C565 1.429 . S
C557 C555 1.419 . S
C557 C558 1.363 . S
C557 H560 0.929 . S
C558 C557 1.363 . S
C558 C564 1.428 . S
H559 C555 0.930 . S
H560 C557 0.929 . S
S561 N562 1.613 . S
S561 N563 1.610 . S
N562 S561 1.613 . S
N562 C565 1.350 . S
N563 S561 1.610 . S
N563 C564 1.351 . S
C564 C558 1.428 . S
C564 N563 1.351 . S
C564 C565 1.434 . S
C565 C556 1.429 . S
C565 N562 1.350 . S
C565 C564 1.434 . S
C566 C567 1.369 . S
C566 C568 1.419 . S
C566 H570 0.930 . S
C567 C566 1.369 . S
C567 C576 1.429 . S
C568 C566 1.419 . S
C568 C569 1.363 . S
C568 H571 0.929 . S
C569 C568 1.363 . S
C569 C575 1.428 . S
H570 C566 0.930 . S
H571 C568 0.929 . S
S572 N573 1.613 . S
S572 N574 1.610 . S
N573 S572 1.613 . S
N573 C576 1.350 . S
N574 S572 1.610 . S
N574 C575 1.351 . S
C575 C569 1.428 . S
C575 N574 1.351 . S
C575 C576 1.434 . S
C576 C567 1.429 . S
C576 N573 1.350 . S
C576 C575 1.434 . S
C577 C578 1.369 . S
C577 C579 1.419 . S
C577 H581 0.930 . S
C578 C577 1.369 . S
C578 C587 1.429 . S
C579 C577 1.419 . S
C579 C580 1.363 . S
C579 H582 0.929 . S
C580 C579 1.363 . S
C580 C586 1.428 . S
H581 C577 0.930 . S
H582 C579 0.929 . S
S583 N584 1.613 . S
S583 N585 1.610 . S
N584 S583 1.613 . S
N584 C587 1.350 . S
N585 S583 1.610 . S
N585 C586 1.351 . S
C586 C580 1.428 . S
C586 N585 1.351 . S
C586 C587 1.434 . S
C587 C578 1.429 . S
C587 N584 1.350 . S
C587 C586 1.434 . S
C588 C589 1.369 . S
C588 C590 1.419 . S
C588 H592 0.930 . S
C589 C588 1.369 . S
C589 C598 1.429 . S
C590 C588 1.419 . S
C590 C591 1.363 . S
C590 H593 0.929 1_556 S
C591 C590 1.363 . S
C591 C597 1.428 . S
H592 C588 0.930 . S
H593 C590 0.929 1_554 S
S594 N595 1.613 . S
S594 N596 1.610 . S
N595 S594 1.613 . S
N595 C598 1.350 . S
N596 S594 1.610 . S
N596 C597 1.351 . S
C597 C591 1.428 . S
C597 N596 1.351 . S
C597 C598 1.434 . S
C598 C589 1.429 . S
C598 N595 1.350 . S
C598 C597 1.434 . S
C599 C600 1.369 . S
C599 C601 1.419 . S
C599 H603 0.930 . S
C600 C599 1.369 . S
C600 C609 1.429 . S
C601 C599 1.419 . S
C601 C602 1.363 . S
C601 H604 0.929 . S
C602 C601 1.363 . S
C602 C608 1.428 . S
H603 C599 0.930 . S
H604 C601 0.929 . S
S605 N606 1.613 . S
S605 N607 1.610 . S
N606 S605 1.613 . S
N606 C609 1.350 . S
N607 S605 1.610 . S
N607 C608 1.351 . S
C608 C602 1.428 . S
C608 N607 1.351 . S
C608 C609 1.434 . S
C609 C600 1.429 . S
C609 N606 1.350 . S
C609 C608 1.434 . S
C610 C611 1.369 . S
C610 C612 1.419 . S
C610 H614 0.930 . S
C611 C610 1.369 . S
C611 C620 1.429 . S
C612 C610 1.419 . S
C612 C613 1.363 . S
C612 H615 0.929 . S
C613 C612 1.363 . S
C613 C619 1.428 . S
H614 C610 0.930 . S
H615 C612 0.929 . S
S616 N617 1.613 . S
S616 N618 1.610 . S
N617 S616 1.613 . S
N617 C620 1.350 . S
N618 S616 1.610 . S
N618 C619 1.351 . S
C619 C613 1.428 . S
C619 N618 1.351 . S
C619 C620 1.434 . S
C620 C611 1.429 . S
C620 N617 1.350 . S
C620 C619 1.434 . S
C621 C622 1.369 . S
C621 C623 1.419 . S
C621 H625 0.930 . S
C622 C621 1.369 . S
C622 C631 1.429 . S
C623 C621 1.419 . S
C623 C624 1.363 . S
C623 H626 0.929 . S
C624 C623 1.363 . S
C624 C630 1.428 . S
H625 C621 0.930 . S
H626 C623 0.929 . S
S627 N628 1.613 . S
S627 N629 1.610 . S
N628 S627 1.613 . S
N628 C631 1.350 . S
N629 S627 1.610 . S
N629 C630 1.351 . S
C630 C624 1.428 . S
C630 N629 1.351 . S
C630 C631 1.434 . S
C631 C622 1.429 . S
C631 N628 1.350 . S
C631 C630 1.434 . S
C632 C633 1.369 . S
C632 C634 1.419 . S
C632 H636 0.945 . S
C633 C632 1.369 . S
C633 C642 1.429 . S
C634 C632 1.419 . S
C634 C635 1.363 . S
C634 H637 0.929 . S
C635 C634 1.363 . S
C635 C641 1.428 . S
H636 C632 0.945 . S
H637 C634 0.929 . S
S638 N639 1.613 . S
S638 N640 1.610 . S
N639 S638 1.613 . S
N639 C642 1.350 . S
N640 S638 1.610 . S
N640 C641 1.351 . S
C641 C635 1.428 . S
C641 N640 1.351 . S
C641 C642 1.434 . S
C642 C633 1.429 . S
C642 N639 1.350 . S
C642 C641 1.434 . S
C643 C644 1.369 . S
C643 C645 1.419 . S
C643 H647 0.930 . S
C644 C643 1.369 . S
C644 C653 1.429 . S
C645 C643 1.419 . S
C645 C646 1.363 . S
C645 H648 0.929 . S
C646 C645 1.363 . S
C646 C652 1.428 . S
H647 C643 0.930 . S
H648 C645 0.929 . S
S649 N650 1.613 . S
S649 N651 1.610 . S
N650 S649 1.613 . S
N650 C653 1.350 . S
N651 S649 1.610 . S
N651 C652 1.351 . S
C652 C646 1.428 . S
C652 N651 1.351 . S
C652 C653 1.434 . S
C653 C644 1.429 . S
C653 N650 1.350 . S
C653 C652 1.434 . S
C654 C655 1.369 . S
C654 C656 1.419 . S
C654 H658 0.930 . S
C655 C654 1.369 . S
C655 C664 1.429 . S
C656 C654 1.419 . S
C656 C657 1.363 . S
C656 H659 0.929 . S
C657 C656 1.363 . S
C657 C663 1.428 . S
H658 C654 0.930 . S
H659 C656 0.929 . S
S660 N661 1.613 . S
S660 N662 1.610 . S
N661 S660 1.613 . S
N661 C664 1.350 . S
N662 S660 1.610 . S
N662 C663 1.351 . S
C663 C657 1.428 . S
C663 N662 1.351 . S
C663 C664 1.434 . S
C664 C655 1.429 . S
C664 N661 1.350 . S
C664 C663 1.434 . S
C665 C666 1.369 . S
C665 C667 1.419 . S
C665 H669 0.930 . S
C666 C665 1.369 . S
C666 C675 1.429 . S
C667 C665 1.419 . S
C667 C668 1.363 1_556 S
C667 H670 0.929 . S
C668 C667 1.363 1_554 S
C668 C674 1.428 . S
H669 C665 0.930 . S
H670 C667 0.929 . S
S671 N672 1.607 1_554 S
S671 N673 1.610 . S
N672 S671 1.607 1_556 S
N672 C675 1.352 . S
N673 S671 1.610 . S
N673 C674 1.351 . S
C674 C668 1.428 . S
C674 N673 1.351 . S
C674 C675 1.434 1_554 S
C675 C666 1.429 . S
C675 N672 1.352 . S
C675 C674 1.434 1_556 S
C676 C677 1.369 . S
C676 C678 1.419 . S
C676 H680 0.930 . S
C677 C676 1.369 . S
C677 C686 1.429 1_565 S
C678 C676 1.419 . S
C678 C679 1.363 . S
C678 H681 0.929 . S
C679 C678 1.363 . S
C679 C685 1.428 . S
H680 C676 0.930 . S
H681 C678 0.929 . S
S682 N683 1.613 . S
S682 N684 1.610 . S
N683 S682 1.613 . S
N683 C686 1.350 . S
N684 S682 1.610 . S
N684 C685 1.351 1_545 S
C685 C679 1.428 . S
C685 N684 1.351 1_565 S
C685 C686 1.434 1_565 S
C686 C677 1.429 1_545 S
C686 N683 1.350 . S
C686 C685 1.434 1_545 S
C687 C688 1.369 . S
C687 C689 1.419 . S
C687 H691 0.930 . S
C688 C687 1.369 . S
C688 C697 1.429 . S
C689 C687 1.419 . S
C689 C690 1.363 . S
C689 H692 0.929 . S
C690 C689 1.363 . S
C690 C696 1.428 . S
H691 C687 0.930 . S
H692 C689 0.929 . S
S693 N694 1.613 . S
S693 N695 1.610 . S
N694 S693 1.613 . S
N694 C697 1.350 . S
N695 S693 1.610 . S
N695 C696 1.351 . S
C696 C690 1.428 . S
C696 N695 1.351 . S
C696 C697 1.434 . S
C697 C688 1.429 . S
C697 N694 1.350 . S
C697 C696 1.434 . S
C698 C699 1.369 . S
C698 C700 1.419 . S
C698 H702 0.930 . S
C699 C698 1.369 . S
C699 C708 1.429 . S
C700 C698 1.419 . S
C700 C701 1.363 . S
C700 H703 0.929 . S
C701 C700 1.363 . S
C701 C707 1.428 . S
H702 C698 0.930 . S
H703 C700 0.929 . S
S704 N705 1.613 . S
S704 N706 1.610 . S
N705 S704 1.613 . S
N705 C708 1.350 . S
N706 S704 1.610 . S
N706 C707 1.351 . S
C707 C701 1.428 . S
C707 N706 1.351 . S
C707 C708 1.434 . S
C708 C699 1.429 . S
C708 N705 1.350 . S
C708 C707 1.434 . S
C709 C710 1.369 . S
C709 C711 1.419 . S
C709 H713 0.930 . S
C710 C709 1.369 . S
C710 C719 1.429 . S
C711 C709 1.419 . S
C711 C712 1.363 . S
C711 H714 0.929 . S
C712 C711 1.363 . S
C712 C718 1.428 . S
H713 C709 0.930 . S
H714 C711 0.929 . S
S715 N716 1.613 . S
S715 N717 1.610 . S
N716 S715 1.613 . S
N716 C719 1.350 . S
N717 S715 1.610 . S
N717 C718 1.351 . S
C718 C712 1.428 . S
C718 N717 1.351 . S
C718 C719 1.434 . S
C719 C710 1.429 . S
C719 N716 1.350 . S
C719 C718 1.434 . S
C720 C721 1.369 . S
C720 C722 1.419 . S
C720 H724 0.930 . S
C721 C720 1.369 . S
C721 C730 1.429 . S
C722 C720 1.419 . S
C722 C723 1.363 . S
C722 H725 0.929 . S
C723 C722 1.363 . S
C723 C729 1.428 . S
H724 C720 0.930 . S
H725 C722 0.929 . S
S726 N727 1.613 . S
S726 N728 1.610 . S
N727 S726 1.613 . S
N727 C730 1.350 . S
N728 S726 1.610 . S
N728 C729 1.351 . S
C729 C723 1.428 . S
C729 N728 1.351 . S
C729 C730 1.434 . S
C730 C721 1.429 . S
C730 N727 1.350 . S
C730 C729 1.434 . S
C731 C732 1.369 . S
C731 C733 1.419 . S
C731 H735 0.930 . S
C732 C731 1.369 . S
C732 C741 1.429 . S
C733 C731 1.419 . S
C733 C734 1.363 . S
C733 H736 0.929 . S
C734 C733 1.363 . S
C734 C740 1.428 . S
H735 C731 0.930 . S
H736 C733 0.929 . S
S737 N738 1.613 . S
S737 N739 1.610 . S
N738 S737 1.613 . S
N738 C741 1.350 . S
N739 S737 1.610 . S
N739 C740 1.351 . S
C740 C734 1.428 . S
C740 N739 1.351 . S
C740 C741 1.434 . S
C741 C732 1.429 . S
C741 N738 1.350 . S
C741 C740 1.434 . S
C742 C743 1.369 . S
C742 C744 1.419 . S
C742 H746 0.930 . S
C743 C742 1.369 . S
C743 C752 1.429 . S
C744 C742 1.419 . S
C744 C745 1.363 . S
C744 H747 0.929 . S
C745 C744 1.363 . S
C745 C751 1.428 . S
H746 C742 0.930 . S
H747 C744 0.929 . S
S748 N749 1.613 . S
S748 N750 1.610 . S
N749 S748 1.613 . S
N749 C752 1.350 . S
N750 S748 1.610 . S
N750 C751 1.351 . S
C751 C745 1.428 . S
C751 N750 1.351 . S
C751 C752 1.434 . S
C752 C743 1.429 . S
C752 N749 1.350 . S
C752 C751 1.434 . S
C753 C754 1.369 . S
C753 C755 1.419 . S
C753 H757 0.930 . S
C754 C753 1.369 . S
C754 C763 1.429 . S
C755 C753 1.419 . S
C755 C756 1.363 . S
C755 H758 0.929 . S
C756 C755 1.363 . S
C756 C762 1.428 . S
H757 C753 0.930 . S
H758 C755 0.929 . S
S759 N760 1.613 . S
S759 N761 1.610 . S
N760 S759 1.613 . S
N760 C763 1.350 . S
N761 S759 1.610 . S
N761 C762 1.351 . S
C762 C756 1.428 . S
C762 N761 1.351 . S
C762 C763 1.434 . S
C763 C754 1.429 . S
C763 N760 1.350 . S
C763 C762 1.434 . S
C764 C765 1.369 . S
C764 C766 1.419 1_455 S
C764 H768 0.930 . S
C765 C764 1.369 . S
C765 C774 1.429 1_455 S
C766 C764 1.419 1_655 S
C766 C767 1.363 . S
C766 H769 0.929 . S
C767 C766 1.363 . S
C767 C773 1.428 . S
H768 C764 0.930 . S
H769 C766 0.929 . S
S770 N771 1.613 . S
S770 N772 1.610 . S
N771 S770 1.613 . S
N771 C774 1.350 . S
N772 S770 1.610 . S
N772 C773 1.351 . S
C773 C767 1.428 . S
C773 N772 1.351 . S
C773 C774 1.434 . S
C774 C765 1.429 1_655 S
C774 N771 1.350 . S
C774 C773 1.434 . S
C775 C776 1.369 . S
C775 C777 1.419 . S
C775 H779 0.930 . S
C776 C775 1.369 . S
C776 C785 1.429 . S
C777 C775 1.419 . S
C777 C778 1.363 . S
C777 H780 0.929 . S
C778 C777 1.363 . S
C778 C784 1.428 . S
H779 C775 0.930 . S
H780 C777 0.929 . S
S781 N782 1.613 . S
S781 N783 1.610 . S
N782 S781 1.613 . S
N782 C785 1.350 . S
N783 S781 1.610 . S
N783 C784 1.351 . S
C784 C778 1.428 . S
C784 N783 1.351 . S
C784 C785 1.434 . S
C785 C776 1.429 . S
C785 N782 1.350 . S
C785 C784 1.434 . S
C786 C787 1.369 . S
C786 C788 1.419 . S
C786 H790 0.930 1_556 S
C787 C786 1.369 . S
C787 C796 1.429 . S
C788 C786 1.419 . S
C788 C789 1.363 . S
C788 H791 0.929 . S
C789 C788 1.363 . S
C789 C795 1.428 . S
H790 C786 0.930 1_554 S
H791 C788 0.929 . S
S792 N793 1.613 . S
S792 N794 1.610 . S
N793 S792 1.613 . S
N793 C796 1.350 . S
N794 S792 1.610 . S
N794 C795 1.351 . S
C795 C789 1.428 . S
C795 N794 1.351 . S
C795 C796 1.434 . S
C796 C787 1.429 . S
C796 N793 1.350 . S
C796 C795 1.434 . S
C797 C798 1.369 . S
C797 C799 1.419 . S
C797 H801 0.930 . S
C798 C797 1.369 . S
C798 C807 1.429 . S
C799 C797 1.419 . S
C799 C800 1.363 . S
C799 H802 0.929 . S
C800 C799 1.363 . S
C800 C806 1.428 . S
H801 C797 0.930 . S
H802 C799 0.929 . S
S803 N804 1.613 . S
S803 N805 1.610 . S
N804 S803 1.613 . S
N804 C807 1.350 . S
N805 S803 1.610 . S
N805 C806 1.351 . S
C806 C800 1.428 . S
C806 N805 1.351 . S
C806 C807 1.434 . S
C807 C798 1.429 . S
C807 N804 1.350 . S
C807 C806 1.434 . S
C808 C809 1.369 . S
C808 C810 1.419 . S
C808 H812 0.930 . S
C809 C808 1.369 . S
C809 C818 1.429 . S
C810 C808 1.419 . S
C810 C811 1.363 . S
C810 H813 0.929 . S
C811 C810 1.363 . S
C811 C817 1.428 . S
H812 C808 0.930 . S
H813 C810 0.929 . S
S814 N815 1.613 . S
S814 N816 1.610 . S
N815 S814 1.613 . S
N815 C818 1.350 . S
N816 S814 1.610 . S
N816 C817 1.351 . S
C817 C811 1.428 . S
C817 N816 1.351 . S
C817 C818 1.434 . S
C818 C809 1.429 . S
C818 N815 1.350 . S
C818 C817 1.434 . S
C819 C820 1.369 . S
C819 C821 1.419 . S
C819 H823 0.930 . S
C820 C819 1.369 . S
C820 C829 1.429 . S
C821 C819 1.419 . S
C821 C822 1.363 . S
C821 H824 0.929 . S
C822 C821 1.363 . S
C822 C828 1.428 . S
H823 C819 0.930 . S
H824 C821 0.929 . S
S825 N826 1.613 . S
S825 N827 1.610 . S
N826 S825 1.613 . S
N826 C829 1.350 . S
N827 S825 1.610 . S
N827 C828 1.351 . S
C828 C822 1.428 . S
C828 N827 1.351 . S
C828 C829 1.434 . S
C829 C820 1.429 . S
C829 N826 1.350 . S
C829 C828 1.434 . S
C830 C831 1.369 . S
C830 C832 1.419 . S
C830 H834 0.930 . S
C831 C830 1.369 . S
C831 C840 1.429 . S
C832 C830 1.419 . S
C832 C833 1.363 . S
C832 H835 0.929 . S
C833 C832 1.363 . S
C833 C839 1.428 . S
H834 C830 0.930 . S
H835 C832 0.929 . S
S836 N837 1.613 . S
S836 N838 1.610 . S
N837 S836 1.613 . S
N837 C840 1.350 . S
N838 S836 1.610 . S
N838 C839 1.351 . S
C839 C833 1.428 . S
C839 N838 1.351 . S
C839 C840 1.434 . S
C840 C831 1.429 . S
C840 N837 1.350 . S
C840 C839 1.434 . S
C841 C842 1.369 . S
C841 C843 1.419 . S
C841 H845 0.930 . S
C842 C841 1.369 . S
C842 C851 1.429 . S
C843 C841 1.419 . S
C843 C844 1.363 . S
C843 H846 0.929 . S
C844 C843 1.363 . S
C844 C850 1.428 . S
H845 C841 0.930 . S
H846 C843 0.929 . S
S847 N848 1.613 . S
S847 N849 1.610 . S
N848 S847 1.613 . S
N848 C851 1.350 . S
N849 S847 1.610 . S
N849 C850 1.351 . S
C850 C844 1.428 . S
C850 N849 1.351 . S
C850 C851 1.434 . S
C851 C842 1.429 . S
C851 N848 1.350 . S
C851 C850 1.434 . S
C852 C853 1.369 . S
C852 C854 1.419 . S
C852 H856 0.930 . S
C853 C852 1.369 . S
C853 C862 1.429 . S
C854 C852 1.419 . S
C854 C855 1.363 . S
C854 H857 0.929 . S
C855 C854 1.363 . S
C855 C861 1.428 . S
H856 C852 0.930 . S
H857 C854 0.929 . S
S858 N859 1.613 . S
S858 N860 1.610 . S
N859 S858 1.613 . S
N859 C862 1.350 . S
N860 S858 1.610 . S
N860 C861 1.351 . S
C861 C855 1.428 . S
C861 N860 1.351 . S
C861 C862 1.434 . S
C862 C853 1.429 . S
C862 N859 1.350 . S
C862 C861 1.434 . S
C863 C864 1.369 . S
C863 C865 1.419 . S
C863 H867 0.930 . S
C864 C863 1.369 . S
C864 C873 1.429 . S
C865 C863 1.419 . S
C865 C866 1.363 . S
C865 H868 0.929 . S
C866 C865 1.363 . S
C866 C872 1.428 . S
H867 C863 0.930 . S
H868 C865 0.929 . S
S869 N870 1.613 . S
S869 N871 1.610 . S
N870 S869 1.613 . S
N870 C873 1.350 . S
N871 S869 1.610 . S
N871 C872 1.351 . S
C872 C866 1.428 . S
C872 N871 1.351 . S
C872 C873 1.434 . S
C873 C864 1.429 . S
C873 N870 1.350 . S
C873 C872 1.434 . S
C874 C875 1.369 . S
C874 C876 1.419 . S
C874 H878 0.930 . S
C875 C874 1.369 . S
C875 C884 1.429 . S
C876 C874 1.419 . S
C876 C877 1.363 . S
C876 H879 0.929 . S
C877 C876 1.363 . S
C877 C883 1.428 . S
H878 C874 0.930 . S
H879 C876 0.929 . S
S880 N881 1.613 . S
S880 N882 1.610 . S
N881 S880 1.613 . S
N881 C884 1.350 . S
N882 S880 1.610 . S
N882 C883 1.351 . S
C883 C877 1.428 . S
C883 N882 1.351 . S
C883 C884 1.434 . S
C884 C875 1.429 . S
C884 N881 1.350 . S
C884 C883 1.434 . S
C885 C886 1.369 . S
C885 C887 1.419 . S
C885 H889 0.930 . S
C886 C885 1.369 . S
C886 C895 1.429 . S
C887 C885 1.419 . S
C887 C888 1.363 . S
C887 H890 0.929 . S
C888 C887 1.363 . S
C888 C894 1.428 . S
H889 C885 0.930 . S
H890 C887 0.929 . S
S891 N892 1.613 . S
S891 N893 1.610 . S
N892 S891 1.613 . S
N892 C895 1.350 . S
N893 S891 1.610 . S
N893 C894 1.351 . S
C894 C888 1.428 . S
C894 N893 1.351 . S
C894 C895 1.434 . S
C895 C886 1.429 . S
C895 N892 1.350 . S
C895 C894 1.434 . S
C369 C88 1.373 . S
C371 C16 1.407 . S
C380 C21 1.365 . S
C382 C41 1.480 . S
C391 C62 1.641 . S
C393 C40 1.633 . S
C402 C90 1.340 . S
C404 C67 1.365 . S
C413 C113 1.306 . S
C415 C135 1.346 . S
C424 C132 1.621 . S
C426 C155 1.614 . S
C435 C156 1.447 . S
C437 C181 1.339 . S
C446 C111 1.361 . S
C448 C178 1.392 . S
C457 C225 1.407 . S
C459 C19 1.348 . S
C468 C250 1.574 . S
C470 C43 1.580 . S
C479 C65 1.367 . S
C481 C317 1.383 . S
C490 C200 1.560 . S
C492 C85 1.555 . S
C501 C269 1.560 . S
C503 C108 1.556 1_655 S
C512 C341 1.350 . S
C514 C133 1.406 . S
C523 C158 1.575 . S
C525 C296 1.577 . S
C534 C364 1.368 . S
C536 C179 1.384 . S
C545 C203 1.354 . S
C547 C316 1.395 . S
C556 C227 1.347 . S
C558 C205 1.307 . S
C567 C247 1.614 . S
C569 C224 1.624 . S
C578 C338 1.407 . S
C580 C272 1.369 . S
C589 C293 1.633 . S
C591 C361 1.636 . S
C600 C273 1.104 . S
C602 C17 1.147 . S
C611 C297 1.163 . S
C613 C18 1.207 . S
C622 C292 0.858 . S
C624 C63 0.847 . S
C633 C64 1.224 1_565 S
C635 C271 1.213 . S
C644 C226 1.206 . S
C646 C110 1.211 . S
C655 C223 0.870 . S
C657 C154 0.874 . S
C666 C318 1.198 . S
C668 C159 1.167 . S
C677 C112 1.141 1_565 S
C679 C315 1.169 . S
C688 C136 1.280 . S
C690 C20 1.160 . S
C699 C249 0.986 . S
C701 C295 0.981 . S
C710 C66 1.216 . S
C712 C182 1.222 . S
C721 C201 0.923 . S
C723 C270 0.915 . S
C732 C86 0.911 . S
C734 C109 0.920 . S
C743 C228 1.288 . S
C745 C342 1.171 . S
C754 C157 0.980 . S
C756 C42 0.978 . S
C765 C365 1.227 . S
C767 C320 1.219 . S
C776 C204 1.144 . S
C778 C177 1.167 . S
C787 C202 1.215 . S
C789 C134 1.202 . S
C798 C246 0.875 . S
C800 C131 0.869 . S
C809 C89 1.115 . S
C811 C339 1.140 . S
C820 C39 0.851 . S
C822 C362 0.846 . S
C831 C294 1.481 . S
C833 C343 1.368 . S
C842 C274 1.337 . S
C844 C366 1.363 . S
C853 C248 1.445 . S
C855 C319 1.344 . S
C864 C340 1.203 . S
C866 C44 1.173 . S
C875 C87 1.208 . S
C877 C363 1.224 . S
C886 C180 1.200 . S
C888 C251 1.169 . S
