# Generated by pormake.
# Topology umj, (4)-cn, num edge types: 1
# Building blocks:
#     Node 0, Type 0, BuildingBlock: KOZSID_clean_sbu_0, # of connection points: 4
#     Node 1, Type 0, BuildingBlock: KOZSID_clean_sbu_0, # of connection points: 4
#     Node 2, Type 0, BuildingBlock: KOZSID_clean_sbu_0, # of connection points: 4
#     Node 3, Type 0, BuildingBlock: KOZSID_clean_sbu_0, # of connection points: 4
#     Node 4, Type 0, BuildingBlock: KOZSID_clean_sbu_0, # of connection points: 4
#     Node 5, Type 0, BuildingBlock: KOZSID_clean_sbu_0, # of connection points: 4
#     Node 6, Type 0, BuildingBlock: KOZSID_clean_sbu_0, # of connection points: 4
#     Node 7, Type 0, BuildingBlock: KOZSID_clean_sbu_0, # of connection points: 4
#     Node 8, Type 0, BuildingBlock: KOZSID_clean_sbu_0, # of connection points: 4
#     Node 9, Type 0, BuildingBlock: KOZSID_clean_sbu_0, # of connection points: 4
#     Node 10, Type 0, BuildingBlock: KOZSID_clean_sbu_0, # of connection points: 4
#     Node 11, Type 0, BuildingBlock: KOZSID_clean_sbu_0, # of connection points: 4
#     Edge 12, Type (0, 0), BuildingBlock: XIVTED_clean_linker_0, # of connection points: 2
#     Edge 13, Type (0, 0), BuildingBlock: XIVTED_clean_linker_0, # of connection points: 2
#     Edge 14, Type (0, 0), BuildingBlock: XIVTED_clean_linker_0, # of connection points: 2
#     Edge 15, Type (0, 0), BuildingBlock: XIVTED_clean_linker_0, # of connection points: 2
#     Edge 16, Type (0, 0), BuildingBlock: XIVTED_clean_linker_0, # of connection points: 2
#     Edge 17, Type (0, 0), BuildingBlock: XIVTED_clean_linker_0, # of connection points: 2
#     Edge 18, Type (0, 0), BuildingBlock: XIVTED_clean_linker_0, # of connection points: 2
#     Edge 19, Type (0, 0), BuildingBlock: XIVTED_clean_linker_0, # of connection points: 2
#     Edge 20, Type (0, 0), BuildingBlock: XIVTED_clean_linker_0, # of connection points: 2
#     Edge 21, Type (0, 0), BuildingBlock: XIVTED_clean_linker_0, # of connection points: 2
#     Edge 22, Type (0, 0), BuildingBlock: XIVTED_clean_linker_0, # of connection points: 2
#     Edge 23, Type (0, 0), BuildingBlock: XIVTED_clean_linker_0, # of connection points: 2
#     Edge 24, Type (0, 0), BuildingBlock: XIVTED_clean_linker_0, # of connection points: 2
#     Edge 25, Type (0, 0), BuildingBlock: XIVTED_clean_linker_0, # of connection points: 2
#     Edge 26, Type (0, 0), BuildingBlock: XIVTED_clean_linker_0, # of connection points: 2
#     Edge 27, Type (0, 0), BuildingBlock: XIVTED_clean_linker_0, # of connection points: 2
#     Edge 28, Type (0, 0), BuildingBlock: XIVTED_clean_linker_0, # of connection points: 2
#     Edge 29, Type (0, 0), BuildingBlock: XIVTED_clean_linker_0, # of connection points: 2
#     Edge 30, Type (0, 0), BuildingBlock: XIVTED_clean_linker_0, # of connection points: 2
#     Edge 31, Type (0, 0), BuildingBlock: XIVTED_clean_linker_0, # of connection points: 2
#     Edge 32, Type (0, 0), BuildingBlock: XIVTED_clean_linker_0, # of connection points: 2
#     Edge 33, Type (0, 0), BuildingBlock: XIVTED_clean_linker_0, # of connection points: 2
#     Edge 34, Type (0, 0), BuildingBlock: XIVTED_clean_linker_0, # of connection points: 2
#     Edge 35, Type (0, 0), BuildingBlock: XIVTED_clean_linker_0, # of connection points: 2
# Relax obj value: 0.054
# Max RMSD: 0.159
# Mean RMSD: 0.159
data_MOF--net-umj--node1-KOZSID_clean_sbu_0--edge1-XIVTED_clean_linker_0
_symmetry_space_group_name_H-M    P1
_symmetry_Int_Tables_number       1
_symmetry_cell_setting            triclinic
loop_
_symmetry_equiv_pos_as_xyz
'x, y, z'
_cell_length_a     39.264143
_cell_length_b     39.353801
_cell_length_c     94.204876
_cell_angle_alpha  89.999902
_cell_angle_beta   90.000243
_cell_angle_gamma 120.06235
loop_
_atom_site_label
_atom_site_type_symbol
_atom_site_fract_x
_atom_site_fract_y
_atom_site_fract_z
_atom_type_partial_charge
C0 C 0.03446 0.25842 0.04929 0.0
C1 C 1.0057 0.24767 0.03896 0.0
C2 C 0.97306 0.24453 0.04566 0.0
C3 C 0.9837 0.25358 0.05966 0.0
N4 N 0.02087 0.26209 0.06212 0.0
Co5 Co 0.04795 0.27608 0.08074 0.0
N6 N 0.99767 0.25358 0.09132 0.0
C7 C 0.96292 0.24616 0.08587 0.0
C8 C 0.93336 0.2316 0.09582 0.0
C9 C 0.95081 0.23022 0.1083 0.0
C10 C 0.9902 0.2441 0.10526 0.0
N11 N 0.07571 0.29002 0.09923 0.0
C12 C 0.06185 0.27661 0.11241 0.0
C13 C 0.09154 0.29499 0.12247 0.0
C14 C 0.12483 0.32101 0.11529 0.0
C15 C 0.11378 0.31713 0.10131 0.0
N16 N 0.09833 0.29925 0.07022 0.0
C17 C 0.13394 0.32579 0.0753 0.0
C18 C 0.16359 0.33594 0.06561 0.0
C19 C 0.14546 0.31453 0.0537 0.0
C20 C 0.10552 0.29258 0.05678 0.0
N21 N 0.04939 0.32732 0.0803 0.0
C22 C 0.03923 0.39404 0.07933 0.0
C23 C 0.03599 0.37411 0.0921 0.0
C24 C 0.0409 0.34114 0.09235 0.0
C25 C 0.04981 0.38058 0.06715 0.0
C26 C 0.05501 0.34761 0.06788 0.0
N27 N 0.04491 0.22437 0.08119 0.0
C28 C 0.07377 0.18312 0.08466 0.0
C29 C 0.03734 0.14894 0.08213 0.0
C30 C 1.00517 0.15377 0.07895 0.0
C31 C 1.00958 0.19132 0.07844 0.0
C32 C 0.07686 0.22044 0.08426 0.0
H33 H 0.98404 0.19343 0.07581 0.0
H34 H 0.105 0.2461 0.08647 0.0
H35 H 0.03656 0.32616 0.10233 0.0
H36 H 0.06233 0.33778 0.05826 0.0
C37 C 0.95827 0.24763 0.0711 0.0
C38 C 0.07506 0.26741 0.04655 0.0
C39 C 0.02023 0.2505 0.11596 0.0
C40 C 0.13931 0.33395 0.08982 0.0
H41 H 1.0081 0.24267 0.02781 0.0
H42 H 0.94454 0.23513 0.04097 0.0
H43 H 0.90257 0.22199 0.09415 0.0
H44 H 0.93631 0.22044 0.11847 0.0
H45 H 0.08927 0.29079 0.13386 0.0
H46 H 0.15381 0.33977 0.11971 0.0
H47 H 0.19487 0.35496 0.06725 0.0
H48 H 0.16014 0.31493 0.04393 0.0
H49 H 0.02929 0.38352 0.10198 0.0
H50 H 0.05283 0.39448 0.05696 0.0
H51 H 0.09957 0.18104 0.0872 0.0
H52 H 0.9766 0.12862 0.07664 0.0
C53 C 0.78563 0.02145 0.38104 0.0
C54 C 0.76944 0.99067 0.3714 0.0
C55 C 0.7393 0.95914 0.37834 0.0
C56 C 0.73889 0.97211 0.39186 0.0
N57 N 0.76696 0.00976 0.39376 0.0
Co58 Co 0.77984 0.03911 0.41191 0.0
N59 N 0.75242 0.99042 0.42331 0.0
C60 C 0.7251 0.95501 0.41837 0.0
C61 C 0.71044 0.92688 0.42883 0.0
C62 C 0.72949 0.94601 0.44107 0.0
C63 C 0.75485 0.98488 0.4374 0.0
N64 N 0.79358 0.06921 0.42986 0.0
C65 C 0.7937 0.05726 0.44331 0.0
C66 C 0.80481 0.08811 0.45281 0.0
C67 C 0.8112 0.12013 0.44498 0.0
C68 C 0.8038 0.10723 0.4312 0.0
N69 N 0.80647 0.08784 0.40062 0.0
C70 C 0.8137 0.12352 0.40481 0.0
C71 C 0.83092 0.15144 0.39439 0.0
C72 C 0.83471 0.13198 0.38296 0.0
C73 C 0.81981 0.09322 0.38714 0.0
N74 N 0.72993 0.04014 0.41092 0.0
C75 C 0.65436 0.03263 0.40939 0.0
C76 C 0.67013 0.02942 0.42236 0.0
C77 C 0.70755 0.03314 0.42289 0.0
C78 C 0.67801 0.04077 0.39723 0.0
C79 C 0.71565 0.04473 0.39823 0.0
N80 N 0.82873 0.03658 0.41291 0.0
C81 C 0.89908 0.06612 0.41616 0.0
C82 C 0.89675 0.02946 0.41444 0.0
C83 C 0.85967 0.99686 0.41176 0.0
C84 C 0.82646 1.00103 0.41097 0.0
C85 C 0.86469 0.069 0.41547 0.0
H86 H 0.79876 0.97512 0.40873 0.0
H87 H 0.86708 0.09731 0.41703 0.0
H88 H 0.71784 0.02923 0.43302 0.0
H89 H 0.73288 0.05072 0.38867 0.0
C90 C 0.71929 0.94831 0.40365 0.0
C91 C 0.81734 0.06195 0.37797 0.0
C92 C 0.7788 0.01631 0.44759 0.0
C93 C 0.81119 0.13092 0.41919 0.0
H94 H 0.77864 0.99053 0.3606 0.0
H95 H 0.72152 0.92964 0.37426 0.0
H96 H 0.68947 0.89589 0.42763 0.0
H97 H 0.72511 0.93293 0.4515 0.0
H98 H 0.80711 0.08737 0.46424 0.0
H99 H 0.8209 0.14947 0.44886 0.0
H100 H 0.84119 0.18254 0.39519 0.0
H101 H 0.84716 0.14486 0.37276 0.0
H102 H 0.65318 0.02279 0.43206 0.0
H103 H 0.66759 0.04414 0.38697 0.0
H104 H 0.92709 0.09223 0.41826 0.0
H105 H 0.85626 0.96809 0.41006 0.0
C106 C 0.77876 0.78589 0.713 0.0
C107 C 0.80071 0.7762 0.70408 0.0
C108 C 0.80908 0.75145 0.71157 0.0
C109 C 0.79231 0.74781 0.72467 0.0
N110 N 0.77286 0.76791 0.72586 0.0
Co111 Co 0.7508 0.77681 0.7438 0.0
N112 N 0.77023 0.74772 0.75561 0.0
C113 C 0.78549 0.72591 0.75069 0.0
C114 C 0.79528 0.70844 0.76131 0.0
C115 C 0.78554 0.71973 0.77369 0.0
C116 C 0.77041 0.74363 0.76993 0.0
N117 N 0.73136 0.78886 0.76169 0.0
C118 C 0.73724 0.78306 0.77543 0.0
C119 C 0.72004 0.79774 0.78464 0.0
C120 C 0.70294 0.81356 0.77642 0.0
C121 C 0.71073 0.80782 0.76274 0.0
N122 N 0.72937 0.80396 0.73201 0.0
C123 C 0.70418 0.81582 0.73628 0.0
C124 C 0.69263 0.83146 0.7256 0.0
C125 C 0.71226 0.83016 0.71385 0.0
C126 C 0.73519 0.81427 0.71815 0.0
N127 N 0.69961 0.72558 0.74141 0.0
C128 C 0.63071 0.64964 0.74106 0.0
C129 C 0.63031 0.68191 0.74714 0.0
C130 C 0.66476 0.71917 0.74729 0.0
C131 C 0.66556 0.65658 0.73459 0.0
C132 C 0.69886 0.69424 0.73465 0.0
N133 N 0.80189 0.8266 0.74619 0.0
C134 C 0.84146 0.89769 0.74764 0.0
C135 C 0.87641 0.89604 0.74827 0.0
C136 C 0.87294 0.85897 0.74785 0.0
C137 C 0.83607 0.82523 0.74678 0.0
C138 C 0.8046 0.86272 0.74675 0.0
H139 H 0.83609 0.7982 0.74624 0.0
H140 H 0.77854 0.86521 0.74644 0.0
H141 H 0.66241 0.74203 0.75244 0.0
H142 H 0.72367 0.69671 0.72924 0.0
C143 C 0.79595 0.72772 0.73636 0.0
C144 C 0.76469 0.81292 0.70912 0.0
C145 C 0.75764 0.76275 0.78027 0.0
C146 C 0.69761 0.81823 0.75066 0.0
H147 H 0.81048 0.78657 0.6934 0.0
H148 H 0.82662 0.73885 0.70806 0.0
H149 H 0.80939 0.69098 0.76021 0.0
H150 H 0.78985 0.712 0.7843 0.0
H151 H 0.71948 0.79673 0.79612 0.0
H152 H 0.68654 0.82734 0.77998 0.0
H153 H 0.67401 0.84439 0.72642 0.0
H154 H 0.71119 0.84129 0.70346 0.0
H155 H 0.60387 0.67822 0.75219 0.0
H156 H 0.6672 0.63286 0.72939 0.0
H157 H 0.84249 0.92569 0.74798 0.0
H158 H 0.89883 0.85585 0.748 0.0
C159 C 0.99367 0.76025 0.04882 0.0
C160 C 0.02224 0.77072 0.03844 0.0
C161 C 0.05487 0.77365 0.04507 0.0
C162 C 0.04442 0.76476 0.05909 0.0
N163 N 1.00737 0.75655 0.06163 0.0
Co164 Co 0.98059 0.7427 0.08031 0.0
N165 N 0.031 0.76474 0.0908 0.0
C166 C 0.06557 0.77189 0.08525 0.0
C167 C 0.09529 0.78617 0.09514 0.0
C168 C 0.07814 0.78765 0.10768 0.0
C169 C 0.03876 0.77411 0.10474 0.0
N170 N 0.95314 0.72887 0.09887 0.0
C171 C 0.96728 0.74204 0.11204 0.0
C172 C 0.93772 0.72377 0.12216 0.0
C173 C 0.90421 0.69807 0.11502 0.0
C174 C 0.91502 0.70201 0.10102 0.0
N175 N 0.93005 0.72003 0.0699 0.0
C176 C 0.89441 0.69381 0.07506 0.0
C177 C 0.86463 0.68395 0.06545 0.0
C178 C 0.88269 0.70521 0.05351 0.0
C179 C 0.92272 0.72676 0.05648 0.0
N180 N 0.97856 0.6912 0.07975 0.0
C181 C 0.98667 0.62343 0.07849 0.0
C182 C 0.9913 0.64361 0.09129 0.0
C183 C 0.98728 0.67712 0.09168 0.0
C184 C 0.97651 0.63746 0.0664 0.0
C185 C 0.97219 0.67092 0.06728 0.0
N186 N 0.98417 0.79466 0.08085 0.0
C187 C 0.95593 0.83649 0.08426 0.0
C188 C 0.99229 0.87053 0.08132 0.0
C189 C 0.02425 0.86512 0.07826 0.0
C190 C 0.01956 0.82746 0.07797 0.0
C191 C 0.95254 0.79902 0.08402 0.0
H192 H 0.04498 0.82506 0.07542 0.0
H193 H 0.92435 0.77356 0.08634 0.0
H194 H 0.99255 0.69234 0.10166 0.0
H195 H 0.96466 0.68094 0.05775 0.0
C196 C 0.06994 0.77044 0.07047 0.0
C197 C 0.95309 0.75145 0.04614 0.0
C198 C 1.009 0.76789 0.11553 0.0
C199 C 0.88924 0.68555 0.08957 0.0
H200 H 0.01971 0.77564 0.02729 0.0
H201 H 0.08326 0.78277 0.04032 0.0
H202 H 0.12599 0.79553 0.09339 0.0
H203 H 0.09282 0.79726 0.11783 0.0
H204 H 0.94021 0.72786 0.13355 0.0
H205 H 0.87525 0.6795 0.11949 0.0
H206 H 0.83334 0.66519 0.06716 0.0
H207 H 0.8679 0.70493 0.04378 0.0
H208 H 0.99939 0.63444 0.10094 0.0
H209 H 0.9719 0.62273 0.05628 0.0
H210 H 0.93002 0.83854 0.08657 0.0
H211 H 0.05326 0.88987 0.07625 0.0
C212 C 0.24318 0.9943 0.3813 0.0
C213 C 0.25984 0.02535 0.37177 0.0
C214 C 0.28985 0.05657 0.37888 0.0
C215 C 0.2897 0.04318 0.39237 0.0
N216 N 0.26141 1.00554 0.39411 0.0
Co217 Co 0.24765 0.97575 0.41219 0.0
N218 N 0.2751 0.02417 0.42377 0.0
C219 C 0.30267 0.05962 0.41894 0.0
C220 C 0.31745 0.08753 0.42947 0.0
C221 C 0.29829 0.06821 0.44166 0.0
C222 C 0.2728 0.02943 0.4379 0.0
N223 N 0.23293 0.94517 0.43007 0.0
C224 C 0.233 0.95688 0.44358 0.0
C225 C 0.22139 0.92569 0.45297 0.0
C226 C 0.21447 0.89371 0.44502 0.0
C227 C 0.22211 0.90695 0.43128 0.0
N228 N 0.22105 0.92732 0.40071 0.0
C229 C 0.21322 0.89141 0.40484 0.0
C230 C 0.19623 0.86378 0.39431 0.0
C231 C 0.19318 0.88367 0.38288 0.0
C232 C 0.20825 0.92238 0.38716 0.0
N233 N 0.29736 0.97427 0.41142 0.0
C234 C 0.37386 0.98369 0.41021 0.0
C235 C 0.35688 0.98529 0.42315 0.0
C236 C 0.31912 0.98072 0.42352 0.0
C237 C 0.35042 0.97521 0.39795 0.0
C238 C 0.31239 0.97041 0.39879 0.0
N239 N 0.19901 0.97881 0.41295 0.0
C240 C 0.12846 0.94979 0.41543 0.0
C241 C 0.13105 0.98645 0.4132 0.0
C242 C 0.16866 0.01896 0.41108 0.0
C243 C 0.20176 0.01453 0.41092 0.0
C244 C 0.16274 0.94661 0.41528 0.0
H245 H 0.22977 0.04041 0.40906 0.0
H246 H 0.15997 0.91817 0.41693 0.0
H247 H 0.30813 0.98363 0.43364 0.0
H248 H 0.29563 0.9648 0.38912 0.0
C249 C 0.30894 0.06662 0.40426 0.0
C250 C 0.21138 0.95398 0.37802 0.0
C251 C 0.24896 0.99785 0.44807 0.0
C252 C 0.21496 0.88357 0.41921 0.0
H253 H 0.25103 0.02589 0.36095 0.0
H254 H 0.30788 0.08618 0.37491 0.0
H255 H 0.33866 0.11847 0.42836 0.0
H256 H 0.30277 0.08111 0.45213 0.0
H257 H 0.21931 0.92619 0.46441 0.0
H258 H 0.2045 0.86422 0.4488 0.0
H259 H 0.18561 0.8326 0.39504 0.0
H260 H 0.1811 0.87109 0.3726 0.0
H261 H 0.37273 0.99046 0.43305 0.0
H262 H 0.36172 0.97358 0.38765 0.0
H263 H 0.1002 0.9236 0.41706 0.0
H264 H 0.17288 0.04812 0.40967 0.0
C265 C 0.25791 0.24029 0.71433 0.0
C266 C 0.24326 0.25705 0.70497 0.0
C267 C 0.24243 0.28705 0.71221 0.0
C268 C 0.25624 0.28683 0.72561 0.0
N269 N 0.26558 0.25853 0.72715 0.0
Co270 Co 0.28236 0.24461 0.74502 0.0
N271 N 0.26181 0.27184 0.7569 0.0
C272 C 0.25381 0.29948 0.75229 0.0
C273 C 0.24109 0.31409 0.76302 0.0
C274 C 0.24163 0.29471 0.77509 0.0
C275 C 0.2547 0.26926 0.77106 0.0
N276 N 0.29893 0.22964 0.76267 0.0
C277 C 0.28759 0.22931 0.77625 0.0
C278 C 0.30753 0.21757 0.78542 0.0
C279 C 0.33253 0.211 0.77727 0.0
C280 C 0.32651 0.21894 0.76362 0.0
N281 N 0.30388 0.21831 0.73325 0.0
C282 C 0.33231 0.21059 0.73709 0.0
C283 C 0.3425 0.19372 0.72638 0.0
C284 C 0.31889 0.19064 0.71514 0.0
C285 C 0.29537 0.20559 0.71973 0.0
N286 N 0.3336 0.29424 0.74415 0.0
C287 C 0.40106 0.37001 0.74292 0.0
C288 C 0.38356 0.35283 0.75592 0.0
C289 C 0.34992 0.31539 0.7563 0.0
C290 C 0.38468 0.34777 0.73055 0.0
C291 C 0.35146 0.30984 0.73141 0.0
N292 N 0.23056 0.19611 0.74589 0.0
C293 C 0.18883 0.12575 0.74836 0.0
C294 C 0.15477 0.12851 0.74618 0.0
C295 C 0.15992 0.16604 0.74411 0.0
C296 C 0.19755 0.19899 0.74397 0.0
C297 C 0.22643 0.15987 0.74815 0.0
H298 H 0.19971 0.22699 0.74221 0.0
H299 H 0.25214 0.15701 0.74971 0.0
H300 H 0.33649 0.3042 0.76648 0.0
H301 H 0.33963 0.29354 0.7217 0.0
C302 C 0.25255 0.30596 0.73764 0.0
C303 C 0.26612 0.20842 0.71092 0.0
C304 C 0.26256 0.24504 0.78099 0.0
C305 C 0.34248 0.21213 0.75139 0.0
H306 H 0.23354 0.24831 0.69417 0.0
H307 H 0.23077 0.30513 0.7084 0.0
H308 H 0.23134 0.3353 0.76212 0.0
H309 H 0.23357 0.29899 0.78565 0.0
H310 H 0.30523 0.21518 0.79687 0.0
H311 H 0.35225 0.20103 0.78085 0.0
H312 H 0.36314 0.18313 0.72688 0.0
H313 H 0.31879 0.17853 0.70482 0.0
H314 H 0.39496 0.36882 0.76576 0.0
H315 H 0.39748 0.35957 0.72027 0.0
H316 H 0.18659 0.09747 0.74998 0.0
H317 H 0.13491 0.17026 0.74272 0.0
C318 C 0.77056 0.99691 0.62026 0.0
C319 C 0.78515 0.02778 0.62986 0.0
C320 C 0.78633 0.05911 0.62288 0.0
C321 C 0.77281 0.04593 0.60938 0.0
N322 N 0.76333 1.00834 0.60754 0.0
Co323 Co 0.74693 0.97878 0.58943 0.0
N324 N 0.76813 0.02729 0.57796 0.0
C325 C 0.77611 0.06268 0.58284 0.0
C326 C 0.78963 0.09071 0.57234 0.0
C327 C 0.7897 0.07153 0.56014 0.0
C328 C 0.77617 0.03271 0.56387 0.0
N329 N 0.73079 0.94843 0.57153 0.0
C330 C 0.74297 0.96027 0.55807 0.0
C331 C 0.72323 0.92928 0.54861 0.0
C332 C 0.69754 0.89729 0.55647 0.0
C333 C 0.70298 0.91034 0.57024 0.0
N334 N 0.7248 0.93023 0.6008 0.0
C335 C 0.69634 0.89444 0.59666 0.0
C336 C 0.68575 0.86667 0.60713 0.0
C337 C 0.70913 0.88636 0.61853 0.0
C338 C 0.73292 0.92509 0.61428 0.0
N339 N 0.69588 0.97745 0.59029 0.0
C340 C 0.62816 0.98522 0.5915 0.0
C341 C 0.64628 0.98662 0.57853 0.0
C342 C 0.68006 0.9831 0.57816 0.0
C343 C 0.64412 0.97869 0.60385 0.0
C344 C 0.67751 0.97427 0.60299 0.0
N345 N 0.79844 0.98168 0.58853 0.0
C346 C 0.83953 0.95263 0.58531 0.0
C347 C 0.87379 0.98944 0.58708 0.0
C348 C 0.86915 0.02184 0.58978 0.0
C349 C 0.83165 0.01736 0.59051 0.0
C350 C 0.80213 0.94943 0.58598 0.0
H351 H 0.82974 0.04314 0.59273 0.0
H352 H 0.77623 0.92102 0.5844 0.0
H353 H 0.69395 0.98611 0.56802 0.0
H354 H 0.68901 0.96921 0.61267 0.0
C355 C 0.77695 0.06953 0.59754 0.0
C356 C 0.76197 0.95653 0.62336 0.0
C357 C 0.76891 1.00124 0.55374 0.0
C358 C 0.68653 0.8868 0.58228 0.0
H359 H 0.79465 0.02812 0.64065 0.0
H360 H 0.79806 0.08864 0.62692 0.0
H361 H 0.79963 0.12167 0.57349 0.0
H362 H 0.79854 0.08456 0.54971 0.0
H363 H 0.72623 0.92992 0.53718 0.0
H364 H 0.67786 0.86789 0.55262 0.0
H365 H 0.665 0.83551 0.60637 0.0
H366 H 0.70887 0.87364 0.62874 0.0
H367 H 0.63521 0.9918 0.56871 0.0
H368 H 0.63083 0.97691 0.6141 0.0
H369 H 0.84158 0.92668 0.58319 0.0
H370 H 0.89445 0.05069 0.59154 0.0
C371 C 0.7866 0.76496 0.95391 0.0
C372 C 0.77595 0.78422 0.96373 0.0
C373 C 0.75274 0.79551 0.95671 0.0
C374 C 0.75055 0.78262 0.94303 0.0
N375 N 0.77033 0.76307 0.94096 0.0
Co376 Co 0.77804 0.74283 0.92236 0.0
N377 N 0.74794 0.76339 0.91163 0.0
C378 C 0.72767 0.77955 0.9173 0.0
C379 C 0.70981 0.79074 0.90729 0.0
C380 C 0.71927 0.78118 0.8945 0.0
C381 C 0.74255 0.76476 0.89743 0.0
N382 N 0.78791 0.72446 0.90376 0.0
C383 C 0.77989 0.73054 0.89032 0.0
C384 C 0.7937 0.71422 0.88037 0.0
C385 C 0.81117 0.69737 0.88778 0.0
C386 C 0.80721 0.70448 0.90173 0.0
N387 N 0.80696 0.72096 0.93306 0.0
C388 C 0.82134 0.69883 0.92766 0.0
C389 C 0.84111 0.68918 0.93731 0.0
C390 C 0.83965 0.70639 0.94964 0.0
C391 C 0.81859 0.72542 0.94683 0.0
N392 N 0.72729 0.69175 0.92483 0.0
C393 C 0.65149 0.62248 0.92526 0.0
C394 C 0.68459 0.62221 0.91969 0.0
C395 C 0.72178 0.65676 0.91959 0.0
C396 C 0.65791 0.6579 0.93108 0.0
C397 C 0.69537 0.69125 0.93098 0.0
N398 N 0.82759 0.79392 0.91983 0.0
C399 C 0.89833 0.83322 0.91665 0.0
C400 C 0.89671 0.86805 0.91713 0.0
C401 C 0.86001 0.86484 0.91897 0.0
C402 C 0.8264 0.82812 0.92036 0.0
C403 C 0.86347 0.79655 0.91786 0.0
H404 H 0.79974 0.82832 0.922 0.0
H405 H 0.86597 0.77067 0.91723 0.0
H406 H 0.7455 0.65448 0.91509 0.0
H407 H 0.69718 0.71645 0.93575 0.0
C408 C 0.73057 0.7886 0.93181 0.0
C409 C 0.81211 0.74885 0.95739 0.0
C410 C 0.75955 0.75161 0.88641 0.0
C411 C 0.82126 0.69278 0.91314 0.0
H412 H 0.78437 0.78979 0.9748 0.0
H413 H 0.73951 0.81169 0.96101 0.0
H414 H 0.69315 0.80548 0.90905 0.0
H415 H 0.71068 0.78635 0.88416 0.0
H416 H 0.79159 0.71458 0.86893 0.0
H417 H 0.82536 0.68206 0.8835 0.0
H418 H 0.85669 0.6734 0.93542 0.0
H419 H 0.85392 0.70604 0.9594 0.0
H420 H 0.68205 0.59555 0.91538 0.0
H421 H 0.63395 0.66073 0.93543 0.0
H422 H 0.92618 0.83423 0.91521 0.0
H423 H 0.85717 0.8908 0.9197 0.0
C424 C 0.02627 0.77922 0.28823 0.0
C425 C 0.99486 0.76277 0.29763 0.0
C426 C 0.96356 0.73317 0.2904 0.0
C427 C 0.97729 0.73332 0.27696 0.0
N428 N 0.0152 0.76123 0.27537 0.0
Co429 Co 0.04561 0.77478 0.25744 0.0
N430 N 0.99747 0.74818 0.24566 0.0
C431 C 0.96164 0.72087 0.25031 0.0
C432 C 0.93406 0.70681 0.23964 0.0
C433 C 0.954 0.72626 0.22756 0.0
C434 C 0.99277 0.75123 0.23154 0.0
N435 N 0.0768 0.7892 0.23971 0.0
C436 C 0.06565 0.78996 0.22619 0.0
C437 C 0.0971 0.80139 0.21691 0.0
C438 C 0.12868 0.80726 0.22495 0.0
C439 C 0.11494 0.79929 0.23863 0.0
N440 N 0.09382 0.80061 0.2691 0.0
C441 C 0.12974 0.80781 0.26513 0.0
C442 C 0.15714 0.8243 0.27578 0.0
C443 C 0.13709 0.82765 0.28711 0.0
C444 C 0.09852 0.81324 0.28266 0.0
N445 N 0.04631 0.72469 0.25828 0.0
C446 C 0.03885 0.64913 0.25947 0.0
C447 C 0.03629 0.66556 0.24656 0.0
C448 C 0.03996 0.70291 0.24619 0.0
C449 C 0.04617 0.67212 0.27177 0.0
C450 C 0.05011 0.70972 0.27093 0.0
N451 N 0.04338 0.82383 0.25659 0.0
C452 C 0.07347 0.89428 0.25385 0.0
C453 C 0.03677 0.89219 0.25542 0.0
C454 C 1.00383 0.85508 0.25774 0.0
C455 C 1.00775 0.82172 0.25835 0.0
C456 C 0.0761 0.85978 0.25436 0.0
H457 H 0.98156 0.79404 0.26032 0.0
H458 H 0.10449 0.86209 0.25294 0.0
H459 H 0.03662 0.71368 0.23608 0.0
H460 H 0.05553 0.72641 0.2806 0.0
C461 C 0.95407 0.71444 0.26496 0.0
C462 C 0.06677 0.81052 0.29166 0.0
C463 C 0.0249 0.77544 0.2216 0.0
C464 C 0.13794 0.80595 0.2508 0.0
H465 H 0.99415 0.77145 0.30846 0.0
H466 H 0.93373 0.7154 0.29425 0.0
H467 H 0.90291 0.68596 0.24058 0.0
H468 H 0.94152 0.72238 0.21704 0.0
H469 H 0.09704 0.80422 0.20549 0.0
H470 H 0.15828 0.81699 0.22128 0.0
H471 H 0.18831 0.83438 0.27519 0.0
H472 H 0.14946 0.83946 0.29744 0.0
H473 H 0.03027 0.64918 0.23675 0.0
H474 H 0.04901 0.66124 0.282 0.0
H475 H 0.09987 0.92224 0.25201 0.0
H476 H 0.97498 0.85172 0.25933 0.0
C477 C 0.25011 0.02135 0.62159 0.0
C478 C 0.22865 0.99019 0.63076 0.0
C479 C 0.22007 0.95669 0.6235 0.0
C480 C 0.23622 0.96911 0.61028 0.0
N481 N 0.25547 1.00857 0.60879 0.0
Co482 Co 0.27631 0.0385 0.59059 0.0
N483 N 0.25606 0.98932 0.57912 0.0
C484 C 0.24133 0.95256 0.58428 0.0
C485 C 0.2305 0.92468 0.57383 0.0
C486 C 0.23889 0.94496 0.5613 0.0
C487 C 0.25426 0.98417 0.56482 0.0
N488 N 0.2945 0.06891 0.57244 0.0
C489 C 0.28716 0.0564 0.5588 0.0
C490 C 0.30328 0.08771 0.54933 0.0
C491 C 0.32137 0.12112 0.55728 0.0
C492 C 0.31507 0.10841 0.57108 0.0
N493 N 0.29842 0.08773 0.60202 0.0
C494 C 0.32331 0.12451 0.59743 0.0
C495 C 0.33531 0.15232 0.60792 0.0
C496 C 0.31626 0.13206 0.61985 0.0
C497 C 0.29321 0.09299 0.61586 0.0
N498 N 0.32767 0.03869 0.59266 0.0
C499 C 0.39697 0.03244 0.59296 0.0
C500 C 0.39687 0.06466 0.58671 0.0
C501 C 0.36219 0.06705 0.58658 0.0
C502 C 0.36243 1.00453 0.59959 0.0
C503 C 0.32892 1.00851 0.59954 0.0
N504 N 0.22515 0.03707 0.58856 0.0
C505 C 0.18549 0.06854 0.58761 0.0
C506 C 0.15051 0.03195 0.58814 0.0
C507 C 0.15405 0.99837 0.5883 0.0
C508 C 0.19098 1.00152 0.58856 0.0
C509 C 0.2224 0.07044 0.58782 0.0
H510 H 0.19104 0.9745 0.58897 0.0
H511 H 0.24848 0.09897 0.58759 0.0
H512 H 0.36414 0.09191 0.5813 0.0
H513 H 0.30438 0.98624 0.60509 0.0
C514 C 0.23187 0.94471 0.59872 0.0
C515 C 0.26416 0.06263 0.62517 0.0
C516 C 0.26591 0.01542 0.55429 0.0
C517 C 0.32897 0.13267 0.58297 0.0
H518 H 0.21924 0.9913 0.64145 0.0
H519 H 0.20271 0.92675 0.62723 0.0
H520 H 0.21646 0.89318 0.57515 0.0
H521 H 0.23349 0.9323 0.55077 0.0
H522 H 0.30226 0.08655 0.53785 0.0
H523 H 0.33719 0.15108 0.55347 0.0
H524 H 0.35376 0.18381 0.60684 0.0
H525 H 0.31774 0.14485 0.63017 0.0
H526 H 0.42307 0.08734 0.58153 0.0
H527 H 0.36121 0.97951 0.6049 0.0
H528 H 0.18448 0.09552 0.58739 0.0
H529 H 0.12824 0.96932 0.58826 0.0
C530 C 0.24145 0.25208 0.95471 0.0
C531 C 0.25345 0.23456 0.96478 0.0
C532 C 0.27666 0.22309 0.95787 0.0
C533 C 0.27755 0.23418 0.94401 0.0
N534 N 0.25689 0.25274 0.9417 0.0
Co535 Co 0.24727 0.27044 0.92286 0.0
N536 N 0.27673 0.24881 0.91232 0.0
C537 C 0.29721 0.233 0.91811 0.0
C538 C 0.31433 0.22073 0.90819 0.0
C539 C 0.30411 0.22912 0.89533 0.0
C540 C 0.28118 0.246 0.89814 0.0
N541 N 0.23602 0.28678 0.90408 0.0
C542 C 0.24348 0.27963 0.89071 0.0
C543 C 0.22933 0.29523 0.8806 0.0
C544 C 0.21214 0.31262 0.88783 0.0
C545 C 0.21665 0.30661 0.90185 0.0
N546 N 0.21847 0.29282 0.93334 0.0
C547 C 0.20291 0.31364 0.92769 0.0
C548 C 0.18318 0.32362 0.93725 0.0
C549 C 0.18584 0.30792 0.94977 0.0
C550 C 0.20753 0.28944 0.94716 0.0
N551 N 0.29789 0.32203 0.92452 0.0
C552 C 0.37263 0.39185 0.92379 0.0
C553 C 0.33855 0.39188 0.9194 0.0
C554 C 0.30176 0.35684 0.91977 0.0
C555 C 0.36823 0.35694 0.92919 0.0
C556 C 0.33115 0.32316 0.92967 0.0
N557 N 0.1978 0.21887 0.92117 0.0
C558 C 0.12712 0.17866 0.91797 0.0
C559 C 0.12869 0.14415 0.92019 0.0
C560 C 0.16558 0.14805 0.92247 0.0
C561 C 0.19913 0.18501 0.92295 0.0
C562 C 0.16191 0.2156 0.91851 0.0
H563 H 0.2259 0.18529 0.92485 0.0
H564 H 0.15935 0.24121 0.91687 0.0
H565 H 0.27704 0.35856 0.916 0.0
H566 H 0.33062 0.2983 0.93417 0.0
C567 C 0.2961 0.22625 0.93278 0.0
C568 C 0.21524 0.26748 0.95799 0.0
C569 C 0.26362 0.25823 0.88701 0.0
C570 C 0.20245 0.31865 0.91312 0.0
H571 H 0.24576 0.2301 0.97593 0.0
H572 H 0.29049 0.20767 0.96236 0.0
H573 H 0.33118 0.20625 0.91008 0.0
H574 H 0.31203 0.22295 0.88503 0.0
H575 H 0.23102 0.294 0.86917 0.0
H576 H 0.19766 0.32748 0.88341 0.0
H577 H 0.16695 0.33866 0.93519 0.0
H578 H 0.17195 0.30889 0.95955 0.0
H579 H 0.34039 0.41848 0.91532 0.0
H580 H 0.3935 0.35565 0.93313 0.0
H581 H 0.09925 0.17728 0.9161 0.0
H582 H 0.16886 0.1225 0.92382 0.0
C583 C 1.00134 0.23806 0.28855 0.0
C584 C 0.03254 0.25453 0.29805 0.0
C585 C 0.06388 0.28437 0.29091 0.0
C586 C 0.05037 0.28434 0.27744 0.0
N587 N 1.01256 0.25629 0.27575 0.0
Co588 Co 0.98248 0.24269 0.25775 0.0
N589 N 0.03083 0.2695 0.2461 0.0
C590 C 0.0665 0.29695 0.25082 0.0
C591 C 0.09428 0.3112 0.24022 0.0
C592 C 0.07462 0.29172 0.2281 0.0
C593 C 0.03582 0.26654 0.232 0.0
N594 N 0.9516 0.22819 0.23995 0.0
C595 C 0.96304 0.2275 0.22647 0.0
C596 C 0.93173 0.21595 0.21711 0.0
C597 C 0.89995 0.20991 0.22506 0.0
C598 C 0.91343 0.21792 0.23877 0.0
N599 N 0.93408 0.21669 0.26929 0.0
C600 C 0.89817 0.20931 0.26524 0.0
C601 C 0.87059 0.19251 0.27582 0.0
C602 C 0.89055 0.18913 0.28719 0.0
C603 C 0.92922 0.20385 0.28281 0.0
N604 N 0.98158 0.29268 0.25852 0.0
C605 C 0.99053 0.36895 0.25975 0.0
C606 C 0.99261 0.35218 0.24682 0.0
C607 C 0.98823 0.31453 0.24645 0.0
C608 C 0.98213 0.34548 0.27199 0.0
C609 C 0.9776 0.30763 0.27114 0.0
N610 N 0.98496 0.19375 0.25698 0.0
C611 C 0.95527 0.12328 0.25442 0.0
C612 C 0.99189 0.12541 0.25652 0.0
C613 C 0.02468 0.1628 0.25867 0.0
C614 C 0.0206 0.19608 0.25894 0.0
C615 C 0.95246 0.15771 0.25468 0.0
H616 H 0.04673 0.2239 0.26079 0.0
H617 H 0.92405 0.15523 0.25309 0.0
H618 H 0.99127 0.3036 0.23632 0.0
H619 H 0.97196 0.29088 0.28081 0.0
C620 C 0.07379 0.30338 0.2655 0.0
C621 C 0.96088 0.20645 0.29182 0.0
C622 C 1.00392 0.24226 0.22199 0.0
C623 C 0.89018 0.21114 0.25088 0.0
H624 H 0.03308 0.24569 0.30886 0.0
H625 H 0.09361 0.3022 0.29484 0.0
H626 H 0.12537 0.33221 0.24123 0.0
H627 H 0.0873 0.29573 0.21761 0.0
H628 H 0.93201 0.21313 0.20569 0.0
H629 H 0.87039 0.20005 0.22131 0.0
H630 H 0.83939 0.18218 0.27516 0.0
H631 H 0.87803 0.17702 0.29747 0.0
H632 H 0.99782 0.36803 0.23693 0.0
H633 H 0.98024 0.35658 0.28229 0.0
H634 H 0.92882 0.09525 0.2528 0.0
H635 H 0.05384 0.16675 0.25998 0.0
H636 H 1.00407 0.18572 0.20518 0.0
H637 H 0.99866 0.29165 0.1333 0.0
H638 H 0.01774 0.30123 0.20372 0.0
H639 H 0.02251 0.19614 0.1334 0.0
H640 H 0.99639 0.28978 0.15932 0.0
H641 H 1.0047 0.18457 0.17904 0.0
C642 C 1.00814 0.21115 0.1993 0.0
C643 C 1.01171 0.24395 0.20649 0.0
C644 C 1.00159 0.26883 0.15368 0.0
C645 C 1.01075 0.24229 0.17678 0.0
C646 C 1.00224 0.26952 0.13885 0.0
C647 C 1.00997 0.24347 0.13129 0.0
C648 C 1.00873 0.24189 0.161 0.0
C649 C 0.01571 0.21615 0.13892 0.0
C650 C 1.0081 0.21038 0.18444 0.0
C651 C 0.01574 0.27579 0.1985 0.0
N652 N 0.01502 0.21605 0.15338 0.0
N653 N 0.01484 0.27406 0.18407 0.0
H654 H 0.83527 0.01662 0.46465 0.0
H655 H 0.72627 0.01999 0.53599 0.0
H656 H 0.71853 1.00067 0.46555 0.0
H657 H 0.82291 0.99757 0.53642 0.0
H658 H 0.72818 0.02122 0.50996 0.0
H659 H 0.83533 0.01512 0.49079 0.0
C660 C 0.80934 0.01185 0.4704 0.0
C661 C 0.77653 1.00793 0.46305 0.0
C662 C 0.74929 0.01646 0.51572 0.0
C663 C 0.7769 1.00785 0.49277 0.0
C664 C 0.74853 0.01633 0.53054 0.0
C665 C 0.77499 0.00945 0.53826 0.0
C666 C 0.77674 0.00968 0.50855 0.0
C667 C 0.80255 1.00368 0.53078 0.0
C668 C 0.80948 0.01136 0.48527 0.0
C669 C 0.74402 1.00297 0.47089 0.0
N670 N 0.80279 1.00396 0.51631 0.0
N671 N 0.74514 1.0034 0.48532 0.0
H672 H 0.71049 0.70029 0.79713 0.0
H673 H 0.80937 0.81347 0.86987 0.0
H674 H 0.81053 0.81726 0.79858 0.0
H675 H 0.70255 0.7015 0.86817 0.0
H676 H 0.81051 0.81589 0.84381 0.0
H677 H 0.70873 0.699 0.8232 0.0
C678 C 0.73265 0.72529 0.80301 0.0
C679 C 0.76112 0.75864 0.79582 0.0
C680 C 0.78644 0.79104 0.8491 0.0
C681 C 0.75868 0.75808 0.82554 0.0
C682 C 0.78557 0.78997 0.86395 0.0
C683 C 0.75542 0.75762 0.87106 0.0
C684 C 0.7572 0.75923 0.84134 0.0
C685 C 0.72583 0.72726 0.863 0.0
C686 C 0.73137 0.72483 0.81786 0.0
C687 C 0.78859 0.79078 0.80382 0.0
N688 N 0.72759 0.72865 0.84856 0.0
N689 N 0.78665 0.78977 0.81825 0.0
H690 H 0.03029 0.72639 0.13282 0.0
H691 H 0.02546 0.83236 0.2048 0.0
H692 H 1.00744 0.82256 0.13301 0.0
H693 H 1.01103 0.71654 0.20326 0.0
H694 H 0.02515 0.83375 0.17866 0.0
H695 H 0.03262 0.72815 0.15884 0.0
C696 C 0.02696 0.74864 0.13839 0.0
C697 C 0.01949 0.7749 0.13084 0.0
C698 C 0.02152 0.80783 0.18404 0.0
C699 C 0.02078 0.77637 0.16057 0.0
C700 C 0.02131 0.80692 0.19891 0.0
C701 C 0.01741 0.77396 0.20608 0.0
C702 C 0.01872 0.77588 0.17636 0.0
C703 C 1.01328 0.74212 0.19805 0.0
C704 C 0.02765 0.74927 0.15321 0.0
C705 C 0.01406 0.80238 0.13851 0.0
N706 N 0.01433 0.74397 0.18363 0.0
N707 N 0.01476 0.80241 0.15297 0.0
H708 H 0.31658 0.00979 0.53603 0.0
H709 H 0.19175 0.99205 0.46609 0.0
H710 H 0.20453 1.00461 0.53754 0.0
H711 H 0.31209 0.01811 0.46525 0.0
H712 H 0.19404 0.9937 0.49219 0.0
H713 H 0.31301 1.00758 0.51 0.0
C714 C 0.29082 1.00726 0.53082 0.0
C715 C 0.26051 1.00673 0.53882 0.0
C716 C 0.22013 0.9996 0.48631 0.0
C717 C 0.25653 1.00529 0.50913 0.0
C718 C 0.21891 0.99905 0.47145 0.0
C719 C 0.25205 1.00584 0.4636 0.0
C720 C 0.25459 1.00633 0.49334 0.0
C721 C 0.28623 0.0136 0.47097 0.0
C722 C 0.28895 1.0065 0.51599 0.0
C723 C 0.22814 1.00444 0.53166 0.0
N724 N 0.28657 0.01344 0.48541 0.0
N725 N 0.22698 1.00386 0.5172 0.0
H726 H 0.21084 0.18741 0.79875 0.0
H727 H 0.32214 0.3068 0.86904 0.0
H728 H 0.3065 0.30691 0.79847 0.0
H729 H 0.21265 0.19722 0.87031 0.0
H730 H 0.3206 0.3039 0.843 0.0
H731 H 0.21262 0.18798 0.82486 0.0
C732 C 0.2315 0.21405 0.80426 0.0
C733 C 0.25792 0.24746 0.79657 0.0
C734 C 0.29715 0.28015 0.84895 0.0
C735 C 0.26138 0.24796 0.82627 0.0
C736 C 0.29841 0.28156 0.86377 0.0
C737 C 0.26786 0.25184 0.87171 0.0
C738 C 0.26499 0.24883 0.84203 0.0
C739 C 0.23707 0.22027 0.86448 0.0
C740 C 0.23286 0.21428 0.81911 0.0
C741 C 0.28506 0.28092 0.80409 0.0
N742 N 0.23631 0.21962 0.85003 0.0
N743 N 0.28625 0.28026 0.81851 0.0
H744 H 0.10238 0.31953 0.0247 0.0
H745 H 0.15573 0.20057 0.97014 0.0
H746 H 0.07948 0.20429 0.03655 0.0
H747 H 0.23259 0.3239 0.97803 0.0
H748 H 0.11778 0.19673 0.99162 0.0
H749 H 0.13797 0.3171 0.00364 0.0
C750 C 0.10393 0.29327 0.0226 0.0
C751 C 0.0879 0.26198 0.03226 0.0
C752 C 0.14326 0.22445 0.9887 0.0
C753 C 0.12875 0.2591 0.00835 0.0
C754 C 0.16503 0.22658 0.97657 0.0
C755 C 0.19717 0.26264 0.97235 0.0
C756 C 0.15326 0.25884 0.99637 0.0
C757 C 0.20794 0.29561 0.98095 0.0
C758 C 0.12465 0.29211 0.01074 0.0
C759 C 0.09121 0.22881 0.02924 0.0
N760 N 0.18559 0.29311 0.99237 0.0
N761 N 0.11129 0.22815 0.01751 0.0
H762 H 0.89709 0.10452 0.3768 0.0
H763 H 0.91843 0.12691 0.29292 0.0
H764 H 0.79497 0.05037 0.34971 0.0
H765 H 0.97335 0.22857 0.32011 0.0
H766 H 0.88576 0.08582 0.31379 0.0
H767 H 0.93812 0.13753 0.35593 0.0
C768 C 0.88354 0.09842 0.36639 0.0
C769 C 0.84263 0.07382 0.36497 0.0
C770 C 0.90591 0.11696 0.31518 0.0
C771 C 0.88941 0.11124 0.34113 0.0
C772 C 0.92479 0.14035 0.30335 0.0
C773 C 0.94946 0.18115 0.3048 0.0
C774 C 0.9124 0.13429 0.32864 0.0
C775 C 0.95592 0.19718 0.31852 0.0
C776 C 0.90689 0.11748 0.35456 0.0
C777 C 0.82644 0.0677 0.35127 0.0
N778 N 0.93753 0.1737 0.32992 0.0
N779 N 0.84989 0.08624 0.33988 0.0
H780 H 0.79936 0.89252 0.70823 0.0
H781 H 0.79956 0.91448 0.62421 0.0
H782 H 0.75823 0.7918 0.68084 0.0
H783 H 0.75226 0.96822 0.65172 0.0
H784 H 0.80878 0.882 0.64496 0.0
H785 H 0.80693 0.93337 0.6874 0.0
C786 C 0.79318 0.8793 0.69777 0.0
C787 C 0.77848 0.83875 0.69625 0.0
C788 C 0.79745 0.90182 0.64645 0.0
C789 C 0.78744 0.88536 0.67245 0.0
C790 C 0.79248 0.92059 0.63468 0.0
C791 C 0.77604 0.94494 0.63625 0.0
C792 C 0.78671 0.90806 0.65996 0.0
C793 C 0.76649 0.95108 0.65002 0.0
C794 C 0.79721 0.90253 0.68596 0.0
C795 C 0.77041 0.82299 0.68248 0.0
N796 N 0.77202 0.93281 0.66135 0.0
N797 N 0.77496 0.84632 0.67109 0.0
H798 H 0.92446 0.69814 0.02467 0.0
H799 H 0.87289 0.81596 0.96899 0.0
H800 H 0.94966 0.81469 0.03562 0.0
H801 H 0.79421 0.6936 0.97796 0.0
H802 H 0.91103 0.82041 0.99048 0.0
H803 H 0.88879 0.70008 0.00355 0.0
C804 C 0.92338 0.72455 0.02236 0.0
C805 C 0.94007 0.75637 0.0318 0.0
C806 C 0.88512 0.79278 0.9878 0.0
C807 C 0.89916 0.75872 0.0078 0.0
C808 C 0.86325 0.79031 0.97566 0.0
C809 C 0.83052 0.75432 0.97173 0.0
C810 C 0.87463 0.75876 0.99578 0.0
C811 C 0.81933 0.72183 0.98064 0.0
C812 C 0.90262 0.72545 0.01047 0.0
C813 C 0.93739 0.78974 0.0285 0.0
N814 N 0.84177 0.7246 0.99206 0.0
N815 N 0.91726 0.79014 0.01674 0.0
H816 H 0.05342 0.78623 0.31969 0.0
H817 H 0.23566 0.9664 0.34997 0.0
H818 H 0.1101 0.89 0.29359 0.0
H819 H 0.13164 0.91147 0.37611 0.0
H820 H 0.19447 0.93592 0.32897 0.0
H821 H 0.08428 0.8271 0.34072 0.0
C822 C 0.07096 0.81774 0.31843 0.0
C823 C 0.0781 0.83488 0.30489 0.0
C824 C 0.18063 0.9314 0.33928 0.0
C825 C 0.11584 0.88129 0.32878 0.0
C826 C 0.20405 0.94932 0.35125 0.0
C827 C 0.18693 0.9426 0.36479 0.0
C828 C 0.14011 0.90525 0.34093 0.0
C829 C 0.1459 0.91794 0.36584 0.0
C830 C 0.08909 0.84097 0.33041 0.0
C831 C 0.1033 0.87575 0.30386 0.0
N832 N 0.12399 0.89951 0.35413 0.0
N833 N 0.12191 0.89743 0.31558 0.0
H834 H 0.22978 0.10791 0.62588 0.0
H835 H 0.22775 0.12887 0.70987 0.0
H836 H 0.27113 0.04895 0.65351 0.0
H837 H 0.2755 0.23044 0.68264 0.0
H838 H 0.21888 0.08759 0.68904 0.0
H839 H 0.22177 0.14121 0.64662 0.0
C840 C 0.23596 0.10104 0.63637 0.0
C841 C 0.25075 0.07528 0.63799 0.0
C842 C 0.2302 0.11876 0.68762 0.0
C843 C 0.2412 0.11288 0.66169 0.0
C844 C 0.23494 0.14225 0.69944 0.0
C845 C 0.25154 0.18309 0.69797 0.0
C846 C 0.24134 0.13604 0.67416 0.0
C847 C 0.26125 0.19905 0.68424 0.0
C848 C 0.23165 0.12023 0.64814 0.0
C849 C 0.25882 0.06782 0.6518 0.0
N850 N 0.25598 0.17548 0.67286 0.0
N851 N 0.25393 0.08654 0.66313 0.0
H852 H 0.02345 0.6037 0.05758 0.0
H853 H 0.98777 0.40595 0.09595 0.0
H854 H 0.96514 0.56353 0.09797 0.0
H855 H 0.07006 0.45946 0.0614 0.0
H856 H 0.97519 0.46054 0.09551 0.0
H857 H 0.03591 0.54839 0.05735 0.0
C858 C 1.01293 0.58317 0.06636 0.0
C859 C 0.99318 0.5887 0.07784 0.0
C860 C 0.99608 0.46045 0.08803 0.0
C861 C 1.00757 0.52484 0.07762 0.0
C862 C 1.00368 0.4292 0.08832 0.0
C863 C 0.03066 0.42764 0.07882 0.0
C864 C 0.01504 0.49078 0.07803 0.0
C865 C 0.04885 0.45864 0.06891 0.0
C866 C 0.02035 0.55166 0.06625 0.0
C867 C 0.98084 0.56106 0.08895 0.0
N868 N 0.04074 0.48869 0.06879 0.0
N869 N 0.98808 0.53054 0.08854 0.0
H870 H 0.59702 0.99416 0.3889 0.0
H871 H 0.43712 0.03422 0.4269 0.0
H872 H 0.61756 0.05741 0.42828 0.0
H873 H 0.40771 0.95281 0.39209 0.0
H874 H 0.50426 0.04625 0.42639 0.0
H875 H 0.52954 0.9828 0.38859 0.0
C876 C 0.58759 1.00599 0.39743 0.0
C877 C 0.61339 0.02677 0.40866 0.0
C878 C 0.48317 0.02568 0.41886 0.0
C879 C 0.53557 0.01358 0.40839 0.0
C880 C 0.44441 0.01845 0.4192 0.0
C881 C 0.41582 0.9919 0.40964 0.0
C882 C 0.49425 1.00666 0.4088 0.0
C883 C 0.4283 0.97369 0.39965 0.0
C884 C 0.54884 0.9992 0.39729 0.0
C885 C 0.5989 0.04083 0.41948 0.0
N886 N 0.46635 0.98135 0.39951 0.0
N887 N 0.56127 0.03407 0.41905 0.0
H888 H 0.46878 0.40201 0.75885 0.0
H889 H 0.55349 0.62427 0.73369 0.0
H890 H 0.41187 0.43192 0.72603 0.0
H891 H 0.62829 0.58188 0.74959 0.0
H892 H 0.49763 0.55635 0.7338 0.0
H893 H 0.52397 0.46987 0.75852 0.0
C894 C 0.46788 0.42285 0.75157 0.0
C895 C 0.43561 0.41104 0.7424 0.0
C896 C 0.52629 0.56198 0.73727 0.0
C897 C 0.49864 0.48932 0.74217 0.0
C898 C 0.55811 0.60076 0.7373 0.0
C899 C 0.59575 0.60888 0.74159 0.0
C900 C 0.53181 0.53106 0.7419 0.0
C901 C 0.59995 0.57706 0.74609 0.0
C902 C 0.49947 0.46159 0.75137 0.0
C903 C 0.43625 0.43952 0.73318 0.0
N904 N 0.56847 0.5398 0.74623 0.0
N905 N 0.46697 0.4773 0.73339 0.0
H906 H 0.47389 0.08484 0.60043 0.0
H907 H 0.56091 0.94931 0.57539 0.0
H908 H 0.40014 0.96755 0.58445 0.0
H909 H 0.61639 0.03542 0.60851 0.0
H910 H 0.50529 0.96133 0.57562 0.0
H911 H 0.53017 0.0734 0.60045 0.0
C912 C 0.46961 0.05683 0.59683 0.0
C913 C 0.43216 0.02708 0.59247 0.0
C914 C 0.52957 0.97753 0.58286 0.0
C915 C 0.49652 0.01394 0.59231 0.0
C916 C 0.56138 0.97075 0.58272 0.0
C917 C 0.59336 0.99122 0.59199 0.0
C918 C 0.5299 1.00573 0.59212 0.0
C919 C 0.59223 0.01867 0.60128 0.0
C920 C 0.50165 0.05023 0.59693 0.0
C921 C 0.42835 0.99123 0.58799 0.0
N922 N 0.56129 0.02539 0.60102 0.0
N923 N 0.46003 0.98579 0.58792 0.0
H924 H 0.39806 0.4663 0.93406 0.0
H925 H 0.61922 0.561 0.90583 0.0
H926 H 0.43882 0.39787 0.91169 0.0
H927 H 0.58907 0.60186 0.94379 0.0
H928 H 0.55168 0.50571 0.9049 0.0
H929 H 0.46596 0.52215 0.93429 0.0
C930 C 0.42119 0.46322 0.92904 0.0
C931 C 0.41276 0.42735 0.92288 0.0
C932 C 0.56002 0.52695 0.9134 0.0
C933 C 0.49044 0.49111 0.92303 0.0
C934 C 0.59884 0.55852 0.91404 0.0
C935 C 0.61059 0.58699 0.92485 0.0
C936 C 0.53222 0.52388 0.92348 0.0
C937 C 0.58184 0.58183 0.93497 0.0
C938 C 0.45995 0.49494 0.92927 0.0
C939 C 0.44403 0.42492 0.91663 0.0
N940 N 0.5442 0.55132 0.93396 0.0
N941 N 0.48134 0.4563 0.91681 0.0
H942 H 0.06487 0.61375 0.24043 0.0
H943 H 0.95863 0.40154 0.27799 0.0
H944 H 1.00011 0.59061 0.27961 0.0
H945 H 0.03984 0.4328 0.24296 0.0
H946 H 0.97136 0.4692 0.2785 0.0
H947 H 0.05345 0.54672 0.24079 0.0
C948 C 0.04813 0.59464 0.24912 0.0
C949 C 0.0334 0.60831 0.25998 0.0
C950 C 0.98636 0.4612 0.2707 0.0
C951 C 0.02015 0.53055 0.26047 0.0
C952 C 0.97927 0.42239 0.27043 0.0
C953 C 0.99787 0.4106 0.26035 0.0
C954 C 1.01221 0.48888 0.26079 0.0
C955 C 0.02389 0.43957 0.25075 0.0
C956 C 0.04177 0.55622 0.24935 0.0
C957 C 1.01243 0.58184 0.27105 0.0
N958 N 0.03009 0.47693 0.2512 0.0
N959 N 1.00628 0.54439 0.27096 0.0
H960 H 0.08613 0.12331 0.07138 0.0
H961 H 0.95355 0.89979 0.09763 0.0
H962 H 0.97677 0.08164 0.09394 0.0
H963 H 0.04308 0.93565 0.06529 0.0
H964 H 0.96459 0.96682 0.09809 0.0
H965 H 0.07496 0.05604 0.07121 0.0
C966 C 0.05995 0.10017 0.07642 0.0
C967 C 0.03233 0.10843 0.08263 0.0
C968 C 0.98183 0.95994 0.09091 0.0
C969 C 0.01923 0.03087 0.08246 0.0
C970 C 0.97535 0.9214 0.09055 0.0
C971 C 0.99749 0.91135 0.08148 0.0
C972 C 1.01098 0.9892 0.08224 0.0
C973 C 0.02576 0.94154 0.07276 0.0
C974 C 0.05341 0.06162 0.07622 0.0
C975 C 0.99872 0.07683 0.08887 0.0
N976 N 0.03175 0.97879 0.07343 0.0
N977 N 0.99321 0.03971 0.08865 0.0
H978 H 0.90363 0.97113 0.42784 0.0
H979 H 0.11791 0.03697 0.39683 0.0
H980 H 0.97062 0.07576 0.40279 0.0
H981 H 0.06236 0.94788 0.42911 0.0
H982 H 0.06269 0.04879 0.39784 0.0
H983 H 0.95959 0.95995 0.42753 0.0
C984 C 0.93015 0.99185 0.42228 0.0
C985 C 0.93217 0.02442 0.41527 0.0
C986 C 0.06254 0.02669 0.40474 0.0
C987 C 0.99673 0.01155 0.41483 0.0
C988 C 0.09431 0.01994 0.40423 0.0
C989 C 0.09552 0.99163 0.41306 0.0
C990 C 0.03104 1.00477 0.41402 0.0
C991 C 0.063 0.96984 0.42203 0.0
C992 C 0.96219 0.98546 0.42215 0.0
C993 C 0.96765 0.05044 0.40842 0.0
N994 N 0.03227 0.97688 0.42229 0.0
N995 N 0.99829 0.04328 0.40828 0.0
H996 H 0.09188 0.11472 0.72924 0.0
H997 H 0.93948 0.90772 0.76455 0.0
H998 H 0.12374 0.06143 0.76285 0.0
H999 H 0.90562 0.96621 0.73367 0.0
H1000 H 1.00681 0.96314 0.76393 0.0
H1001 H 0.02432 0.06017 0.73038 0.0
C1002 C 0.08478 0.09167 0.73693 0.0
C1003 C 0.11393 0.09326 0.74609 0.0
C1004 C 0.98472 0.96404 0.75732 0.0
C1005 C 0.03578 0.0298 0.74731 0.0
C1006 C 0.94612 0.93228 0.75764 0.0
C1007 C 0.91658 0.93195 0.74906 0.0
C1008 C 0.99436 0.99603 0.74831 0.0
C1009 C 0.92715 0.9651 0.74053 0.0
C1010 C 0.046 0.06033 0.73752 0.0
C1011 C 0.10264 0.06165 0.75552 0.0
N1012 N 0.9651 0.99555 0.7403 0.0
N1013 N 0.06459 0.03143 0.75591 0.0
H1014 H 0.9394 0.04879 0.57412 0.0
H1015 H 0.08612 0.97899 0.60348 0.0
H1016 H 0.90114 0.94287 0.59842 0.0
H1017 H 0.12258 0.07497 0.57399 0.0
H1018 H 0.01924 0.96776 0.60266 0.0
H1019 H 1.00674 0.0605 0.57462 0.0
C1020 C 0.9451 0.02791 0.57956 0.0
C1021 C 0.91434 0.99482 0.58631 0.0
C1022 C 0.04177 0.99128 0.59634 0.0
C1023 C 0.99192 1.00824 0.58693 0.0
C1024 C 0.08014 0.99772 0.59676 0.0
C1025 C 0.11031 0.0277 0.58861 0.0
C1026 C 0.033 0.0151 0.58779 0.0
C1027 C 0.10056 0.0516 0.58048 0.0
C1028 C 0.98365 0.03462 0.57981 0.0
C1029 C 0.92367 0.96859 0.59299 0.0
N1030 N 0.06281 0.04469 0.58024 0.0
N1031 N 0.96155 0.976 0.59321 0.0
H1032 H 0.90674 0.93116 0.90151 0.0
H1033 H 0.11247 0.082 0.93764 0.0
H1034 H 0.96775 0.89612 0.93085 0.0
H1035 H 0.06311 0.11426 0.90277 0.0
H1036 H 0.05784 0.0148 0.93609 0.0
H1037 H 0.96215 0.99852 0.90228 0.0
C1038 C 0.93196 0.9376 0.90805 0.0
C1039 C 0.93247 0.90786 0.91617 0.0
C1040 C 0.05888 0.03648 0.92876 0.0
C1041 C 0.99609 0.9853 0.91719 0.0
C1042 C 0.09019 0.07501 0.9296 0.0
C1043 C 0.09292 0.10403 0.92017 0.0
C1044 C 0.02951 0.02649 0.91848 0.0
C1045 C 0.06234 0.0931 0.91029 0.0
C1046 C 0.9636 0.97611 0.90848 0.0
C1047 C 0.96614 0.91794 0.92434 0.0
N1048 N 0.03203 0.05523 0.90967 0.0
N1049 N 0.99638 0.95581 0.92473 0.0
H1050 H 0.08424 0.96564 0.26715 0.0
H1051 H 0.95159 0.05677 0.24073 0.0
H1052 H 0.97823 0.9003 0.24252 0.0
H1053 H 0.04333 0.1116 0.27221 0.0
H1054 H 0.96284 1.00085 0.2401 0.0
H1055 H 0.07298 0.02165 0.26743 0.0
C1056 C 0.05881 0.96312 0.26168 0.0
C1057 C 0.03211 0.92788 0.25487 0.0
C1058 C 0.98052 0.02518 0.24713 0.0
C1059 C 0.01879 0.99218 0.25521 0.0
C1060 C 0.9739 0.05715 0.24759 0.0
C1061 C 0.99668 0.08962 0.25644 0.0
C1062 C 1.01031 0.02543 0.25554 0.0
C1063 C 0.02551 0.08805 0.26492 0.0
C1064 C 0.05219 0.99506 0.26194 0.0
C1065 C 0.99942 0.92652 0.24809 0.0
N1066 N 0.03154 0.05685 0.26421 0.0
N1067 N 0.99374 0.958 0.24843 0.0
loop_
_geom_bond_atom_site_label_1
_geom_bond_atom_site_label_2
_geom_bond_distance
_geom_bond_site_symmetry_2
_ccdc_geom_bond_type
C0 C1 1.443 1_455 S
C0 N4 1.376 1_455 S
C0 C38 1.389 . S
C1 C0 1.443 1_655 S
C1 C2 1.340 . S
C1 H41 0.951 . S
C2 C1 1.340 . S
C2 C3 1.439 . S
C2 H42 0.950 . S
C3 C2 1.439 . S
C3 N4 1.374 . S
C3 C37 1.395 . S
N4 C0 1.376 1_655 S
N4 C3 1.374 . S
N4 Co5 2.008 1_655 S
Co5 N4 2.008 1_455 S
Co5 N6 1.995 1_455 S
Co5 N11 2.008 . S
Co5 N16 1.995 . S
Co5 N21 2.282 . S
Co5 N27 2.282 . S
N6 Co5 1.995 1_655 S
N6 C7 1.376 . S
N6 C10 1.383 . S
C7 N6 1.376 . S
C7 C8 1.446 . S
C7 C37 1.391 . S
C8 C7 1.446 . S
C8 C9 1.339 . S
C8 H43 0.949 . S
C9 C8 1.339 . S
C9 C10 1.439 . S
C9 H44 0.950 . S
C10 N6 1.383 . S
C10 C9 1.439 . S
C10 C39 1.392 . S
N11 Co5 2.008 . S
N11 C12 1.376 . S
N11 C15 1.374 . S
C12 N11 1.376 . S
C12 C13 1.443 . S
C12 C39 1.389 1_455 S
C13 C12 1.443 . S
C13 C14 1.340 . S
C13 H45 0.951 . S
C14 C13 1.340 . S
C14 C15 1.439 . S
C14 H46 0.950 . S
C15 N11 1.374 . S
C15 C14 1.439 . S
C15 C40 1.395 . S
N16 Co5 1.995 . S
N16 C17 1.376 . S
N16 C20 1.383 . S
C17 N16 1.376 . S
C17 C18 1.446 . S
C17 C40 1.391 . S
C18 C17 1.446 . S
C18 C19 1.339 . S
C18 H47 0.949 . S
C19 C18 1.339 . S
C19 C20 1.439 . S
C19 H48 0.950 . S
C20 N16 1.383 . S
C20 C19 1.439 . S
C20 C38 1.392 . S
N21 Co5 2.282 . S
N21 C24 1.332 . S
N21 C26 1.332 1_455 S
C22 C23 1.386 . S
C22 C25 1.388 1_455 S
C23 C22 1.386 . S
C23 C24 1.382 . S
C23 H49 0.950 . S
C24 N21 1.332 . S
C24 C23 1.382 . S
C24 H35 0.952 . S
C25 C22 1.388 1_655 S
C25 C26 1.382 . S
C25 H50 0.950 . S
C26 N21 1.332 1_655 S
C26 C25 1.382 . S
C26 H36 0.948 . S
N27 Co5 2.282 . S
N27 C31 1.332 1_455 S
N27 C32 1.332 . S
C28 C29 1.388 . S
C28 C32 1.382 . S
C28 H51 0.950 . S
C29 C28 1.388 . S
C29 C30 1.386 1_455 S
C30 C29 1.386 1_655 S
C30 C31 1.382 . S
C30 H52 0.950 . S
C31 N27 1.332 1_655 S
C31 C30 1.382 . S
C31 H33 0.952 . S
C32 N27 1.332 . S
C32 C28 1.382 . S
C32 H34 0.948 . S
H33 C31 0.952 . S
H34 C32 0.948 . S
H35 C24 0.952 . S
H36 C26 0.948 . S
C37 C3 1.395 . S
C37 C7 1.391 . S
C38 C0 1.389 . S
C38 C20 1.392 . S
C39 C10 1.392 . S
C39 C12 1.389 1_655 S
C40 C15 1.395 . S
C40 C17 1.391 . S
H41 C1 0.951 . S
H42 C2 0.950 . S
H43 C8 0.949 . S
H44 C9 0.950 . S
H45 C13 0.951 . S
H46 C14 0.950 . S
H47 C18 0.949 . S
H48 C19 0.950 . S
H49 C23 0.950 . S
H50 C25 0.950 . S
H51 C28 0.950 . S
H52 C30 0.950 . S
C53 C54 1.443 1_545 S
C53 N57 1.376 1_545 S
C53 C91 1.389 . S
C54 C53 1.443 1_565 S
C54 C55 1.340 . S
C54 H94 0.951 . S
C55 C54 1.340 . S
C55 C56 1.439 . S
C55 H95 0.950 . S
C56 C55 1.439 . S
C56 N57 1.374 . S
C56 C90 1.395 . S
N57 C53 1.376 1_565 S
N57 C56 1.374 . S
N57 Co58 2.008 1_565 S
Co58 N57 2.008 1_545 S
Co58 N59 1.995 1_545 S
Co58 N64 2.008 . S
Co58 N69 1.995 . S
Co58 N74 2.282 . S
Co58 N80 2.282 . S
N59 Co58 1.995 1_565 S
N59 C60 1.376 . S
N59 C63 1.383 . S
C60 N59 1.376 . S
C60 C61 1.446 . S
C60 C90 1.391 . S
C61 C60 1.446 . S
C61 C62 1.339 . S
C61 H96 0.949 . S
C62 C61 1.339 . S
C62 C63 1.439 . S
C62 H97 0.950 . S
C63 N59 1.383 . S
C63 C62 1.439 . S
C63 C92 1.392 . S
N64 Co58 2.008 . S
N64 C65 1.376 . S
N64 C68 1.374 . S
C65 N64 1.376 . S
C65 C66 1.443 . S
C65 C92 1.389 1_545 S
C66 C65 1.443 . S
C66 C67 1.340 . S
C66 H98 0.951 . S
C67 C66 1.340 . S
C67 C68 1.439 . S
C67 H99 0.950 . S
C68 N64 1.374 . S
C68 C67 1.439 . S
C68 C93 1.395 . S
N69 Co58 1.995 . S
N69 C70 1.376 . S
N69 C73 1.383 . S
C70 N69 1.376 . S
C70 C71 1.446 . S
C70 C93 1.391 . S
C71 C70 1.446 . S
C71 C72 1.339 . S
C71 H100 0.949 . S
C72 C71 1.339 . S
C72 C73 1.439 . S
C72 H101 0.950 . S
C73 N69 1.383 . S
C73 C72 1.439 . S
C73 C91 1.392 . S
N74 Co58 2.282 . S
N74 C77 1.332 . S
N74 C79 1.332 1_545 S
C75 C76 1.386 . S
C75 C78 1.388 1_545 S
C76 C75 1.386 . S
C76 C77 1.382 . S
C76 H102 0.950 . S
C77 N74 1.332 . S
C77 C76 1.382 . S
C77 H88 0.952 . S
C78 C75 1.388 1_565 S
C78 C79 1.382 . S
C78 H103 0.950 . S
C79 N74 1.332 1_565 S
C79 C78 1.382 . S
C79 H89 0.948 . S
N80 Co58 2.282 . S
N80 C84 1.332 1_545 S
N80 C85 1.332 . S
C81 C82 1.388 . S
C81 C85 1.382 . S
C81 H104 0.950 . S
C82 C81 1.388 . S
C82 C83 1.386 1_545 S
C83 C82 1.386 1_565 S
C83 C84 1.382 . S
C83 H105 0.950 . S
C84 N80 1.332 1_565 S
C84 C83 1.382 . S
C84 H86 0.952 . S
C85 N80 1.332 . S
C85 C81 1.382 . S
C85 H87 0.948 . S
H86 C84 0.952 . S
H87 C85 0.948 . S
H88 C77 0.952 . S
H89 C79 0.948 . S
C90 C56 1.395 . S
C90 C60 1.391 . S
C91 C53 1.389 . S
C91 C73 1.392 . S
C92 C63 1.392 . S
C92 C65 1.389 1_565 S
C93 C68 1.395 . S
C93 C70 1.391 . S
H94 C54 0.951 . S
H95 C55 0.950 . S
H96 C61 0.949 . S
H97 C62 0.950 . S
H98 C66 0.951 . S
H99 C67 0.950 . S
H100 C71 0.949 . S
H101 C72 0.950 . S
H102 C76 0.950 . S
H103 C78 0.950 . S
H104 C81 0.950 . S
H105 C83 0.950 . S
C106 C107 1.443 . S
C106 N110 1.376 . S
C106 C144 1.389 . S
C107 C106 1.443 . S
C107 C108 1.340 . S
C107 H147 0.951 . S
C108 C107 1.340 . S
C108 C109 1.439 . S
C108 H148 0.950 . S
C109 C108 1.439 . S
C109 N110 1.374 . S
C109 C143 1.395 . S
N110 C106 1.376 . S
N110 C109 1.374 . S
N110 Co111 2.008 . S
Co111 N110 2.008 . S
Co111 N112 1.995 . S
Co111 N117 2.008 . S
Co111 N122 1.995 . S
Co111 N127 2.282 . S
Co111 N133 2.282 . S
N112 Co111 1.995 . S
N112 C113 1.376 . S
N112 C116 1.383 . S
C113 N112 1.376 . S
C113 C114 1.446 . S
C113 C143 1.391 . S
C114 C113 1.446 . S
C114 C115 1.339 . S
C114 H149 0.949 . S
C115 C114 1.339 . S
C115 C116 1.439 . S
C115 H150 0.950 . S
C116 N112 1.383 . S
C116 C115 1.439 . S
C116 C145 1.392 . S
N117 Co111 2.008 . S
N117 C118 1.376 . S
N117 C121 1.374 . S
C118 N117 1.376 . S
C118 C119 1.443 . S
C118 C145 1.389 . S
C119 C118 1.443 . S
C119 C120 1.340 . S
C119 H151 0.951 . S
C120 C119 1.340 . S
C120 C121 1.439 . S
C120 H152 0.950 . S
C121 N117 1.374 . S
C121 C120 1.439 . S
C121 C146 1.395 . S
N122 Co111 1.995 . S
N122 C123 1.376 . S
N122 C126 1.383 . S
C123 N122 1.376 . S
C123 C124 1.446 . S
C123 C146 1.391 . S
C124 C123 1.446 . S
C124 C125 1.339 . S
C124 H153 0.949 . S
C125 C124 1.339 . S
C125 C126 1.439 . S
C125 H154 0.950 . S
C126 N122 1.383 . S
C126 C125 1.439 . S
C126 C144 1.392 . S
N127 Co111 2.282 . S
N127 C130 1.332 . S
N127 C132 1.332 . S
C128 C129 1.386 . S
C128 C131 1.388 . S
C129 C128 1.386 . S
C129 C130 1.382 . S
C129 H155 0.950 . S
C130 N127 1.332 . S
C130 C129 1.382 . S
C130 H141 0.952 . S
C131 C128 1.388 . S
C131 C132 1.382 . S
C131 H156 0.950 . S
C132 N127 1.332 . S
C132 C131 1.382 . S
C132 H142 0.948 . S
N133 Co111 2.282 . S
N133 C137 1.332 . S
N133 C138 1.332 . S
C134 C135 1.388 . S
C134 C138 1.382 . S
C134 H157 0.950 . S
C135 C134 1.388 . S
C135 C136 1.386 . S
C136 C135 1.386 . S
C136 C137 1.382 . S
C136 H158 0.950 . S
C137 N133 1.332 . S
C137 C136 1.382 . S
C137 H139 0.952 . S
C138 N133 1.332 . S
C138 C134 1.382 . S
C138 H140 0.948 . S
H139 C137 0.952 . S
H140 C138 0.948 . S
H141 C130 0.952 . S
H142 C132 0.948 . S
C143 C109 1.395 . S
C143 C113 1.391 . S
C144 C106 1.389 . S
C144 C126 1.392 . S
C145 C116 1.392 . S
C145 C118 1.389 . S
C146 C121 1.395 . S
C146 C123 1.391 . S
H147 C107 0.951 . S
H148 C108 0.950 . S
H149 C114 0.949 . S
H150 C115 0.950 . S
H151 C119 0.951 . S
H152 C120 0.950 . S
H153 C124 0.949 . S
H154 C125 0.950 . S
H155 C129 0.950 . S
H156 C131 0.950 . S
H157 C134 0.950 . S
H158 C136 0.950 . S
C159 C160 1.443 1_655 S
C159 N163 1.376 1_655 S
C159 C197 1.389 . S
C160 C159 1.443 1_455 S
C160 C161 1.340 . S
C160 H200 0.951 . S
C161 C160 1.340 . S
C161 C162 1.439 . S
C161 H201 0.950 . S
C162 C161 1.439 . S
C162 N163 1.374 . S
C162 C196 1.395 . S
N163 C159 1.376 1_455 S
N163 C162 1.374 . S
N163 Co164 2.008 1_455 S
Co164 N163 2.008 1_655 S
Co164 N165 1.995 1_655 S
Co164 N170 2.008 . S
Co164 N175 1.995 . S
Co164 N180 2.282 . S
Co164 N186 2.282 . S
N165 Co164 1.995 1_455 S
N165 C166 1.376 . S
N165 C169 1.383 . S
C166 N165 1.376 . S
C166 C167 1.446 . S
C166 C196 1.391 . S
C167 C166 1.446 . S
C167 C168 1.339 . S
C167 H202 0.949 . S
C168 C167 1.339 . S
C168 C169 1.439 . S
C168 H203 0.950 . S
C169 N165 1.383 . S
C169 C168 1.439 . S
C169 C198 1.392 . S
N170 Co164 2.008 . S
N170 C171 1.376 . S
N170 C174 1.374 . S
C171 N170 1.376 . S
C171 C172 1.443 . S
C171 C198 1.389 1_655 S
C172 C171 1.443 . S
C172 C173 1.340 . S
C172 H204 0.951 . S
C173 C172 1.340 . S
C173 C174 1.439 . S
C173 H205 0.950 . S
C174 N170 1.374 . S
C174 C173 1.439 . S
C174 C199 1.395 . S
N175 Co164 1.995 . S
N175 C176 1.376 . S
N175 C179 1.383 . S
C176 N175 1.376 . S
C176 C177 1.446 . S
C176 C199 1.391 . S
C177 C176 1.446 . S
C177 C178 1.339 . S
C177 H206 0.949 . S
C178 C177 1.339 . S
C178 C179 1.439 . S
C178 H207 0.950 . S
C179 N175 1.383 . S
C179 C178 1.439 . S
C179 C197 1.392 . S
N180 Co164 2.282 . S
N180 C183 1.332 . S
N180 C185 1.332 1_655 S
C181 C182 1.386 . S
C181 C184 1.388 1_655 S
C182 C181 1.386 . S
C182 C183 1.382 . S
C182 H208 0.950 . S
C183 N180 1.332 . S
C183 C182 1.382 . S
C183 H194 0.952 . S
C184 C181 1.388 1_455 S
C184 C185 1.382 . S
C184 H209 0.950 . S
C185 N180 1.332 1_455 S
C185 C184 1.382 . S
C185 H195 0.948 . S
N186 Co164 2.282 . S
N186 C190 1.332 1_655 S
N186 C191 1.332 . S
C187 C188 1.388 . S
C187 C191 1.382 . S
C187 H210 0.950 . S
C188 C187 1.388 . S
C188 C189 1.386 1_655 S
C189 C188 1.386 1_455 S
C189 C190 1.382 . S
C189 H211 0.950 . S
C190 N186 1.332 1_455 S
C190 C189 1.382 . S
C190 H192 0.952 . S
C191 N186 1.332 . S
C191 C187 1.382 . S
C191 H193 0.948 . S
H192 C190 0.952 . S
H193 C191 0.948 . S
H194 C183 0.952 . S
H195 C185 0.948 . S
C196 C162 1.395 . S
C196 C166 1.391 . S
C197 C159 1.389 . S
C197 C179 1.392 . S
C198 C169 1.392 . S
C198 C171 1.389 1_455 S
C199 C174 1.395 . S
C199 C176 1.391 . S
H200 C160 0.951 . S
H201 C161 0.950 . S
H202 C167 0.949 . S
H203 C168 0.950 . S
H204 C172 0.951 . S
H205 C173 0.950 . S
H206 C177 0.949 . S
H207 C178 0.950 . S
H208 C182 0.950 . S
H209 C184 0.950 . S
H210 C187 0.950 . S
H211 C189 0.950 . S
C212 C213 1.443 1_565 S
C212 N216 1.376 1_565 S
C212 C250 1.389 . S
C213 C212 1.443 1_545 S
C213 C214 1.340 . S
C213 H253 0.951 . S
C214 C213 1.340 . S
C214 C215 1.439 . S
C214 H254 0.950 . S
C215 C214 1.439 . S
C215 N216 1.374 . S
C215 C249 1.395 . S
N216 C212 1.376 1_545 S
N216 C215 1.374 . S
N216 Co217 2.008 1_545 S
Co217 N216 2.008 1_565 S
Co217 N218 1.995 1_565 S
Co217 N223 2.008 . S
Co217 N228 1.995 . S
Co217 N233 2.282 . S
Co217 N239 2.282 . S
N218 Co217 1.995 1_545 S
N218 C219 1.376 . S
N218 C222 1.383 . S
C219 N218 1.376 . S
C219 C220 1.446 . S
C219 C249 1.391 . S
C220 C219 1.446 . S
C220 C221 1.339 . S
C220 H255 0.949 . S
C221 C220 1.339 . S
C221 C222 1.439 . S
C221 H256 0.950 . S
C222 N218 1.383 . S
C222 C221 1.439 . S
C222 C251 1.392 . S
N223 Co217 2.008 . S
N223 C224 1.376 . S
N223 C227 1.374 . S
C224 N223 1.376 . S
C224 C225 1.443 . S
C224 C251 1.389 1_565 S
C225 C224 1.443 . S
C225 C226 1.340 . S
C225 H257 0.951 . S
C226 C225 1.340 . S
C226 C227 1.439 . S
C226 H258 0.950 . S
C227 N223 1.374 . S
C227 C226 1.439 . S
C227 C252 1.395 . S
N228 Co217 1.995 . S
N228 C229 1.376 . S
N228 C232 1.383 . S
C229 N228 1.376 . S
C229 C230 1.446 . S
C229 C252 1.391 . S
C230 C229 1.446 . S
C230 C231 1.339 . S
C230 H259 0.949 . S
C231 C230 1.339 . S
C231 C232 1.439 . S
C231 H260 0.950 . S
C232 N228 1.383 . S
C232 C231 1.439 . S
C232 C250 1.392 . S
N233 Co217 2.282 . S
N233 C236 1.332 . S
N233 C238 1.332 1_565 S
C234 C235 1.386 . S
C234 C237 1.388 1_565 S
C235 C234 1.386 . S
C235 C236 1.382 . S
C235 H261 0.950 . S
C236 N233 1.332 . S
C236 C235 1.382 . S
C236 H247 0.952 . S
C237 C234 1.388 1_545 S
C237 C238 1.382 . S
C237 H262 0.950 . S
C238 N233 1.332 1_545 S
C238 C237 1.382 . S
C238 H248 0.948 . S
N239 Co217 2.282 . S
N239 C243 1.332 1_565 S
N239 C244 1.332 . S
C240 C241 1.388 . S
C240 C244 1.382 . S
C240 H263 0.950 . S
C241 C240 1.388 . S
C241 C242 1.386 1_565 S
C242 C241 1.386 1_545 S
C242 C243 1.382 . S
C242 H264 0.950 . S
C243 N239 1.332 1_545 S
C243 C242 1.382 . S
C243 H245 0.952 . S
C244 N239 1.332 . S
C244 C240 1.382 . S
C244 H246 0.948 . S
H245 C243 0.952 . S
H246 C244 0.948 . S
H247 C236 0.952 . S
H248 C238 0.948 . S
C249 C215 1.395 . S
C249 C219 1.391 . S
C250 C212 1.389 . S
C250 C232 1.392 . S
C251 C222 1.392 . S
C251 C224 1.389 1_545 S
C252 C227 1.395 . S
C252 C229 1.391 . S
H253 C213 0.951 . S
H254 C214 0.950 . S
H255 C220 0.949 . S
H256 C221 0.950 . S
H257 C225 0.951 . S
H258 C226 0.950 . S
H259 C230 0.949 . S
H260 C231 0.950 . S
H261 C235 0.950 . S
H262 C237 0.950 . S
H263 C240 0.950 . S
H264 C242 0.950 . S
C265 C266 1.443 . S
C265 N269 1.376 . S
C265 C303 1.389 . S
C266 C265 1.443 . S
C266 C267 1.340 . S
C266 H306 0.951 . S
C267 C266 1.340 . S
C267 C268 1.439 . S
C267 H307 0.950 . S
C268 C267 1.439 . S
C268 N269 1.374 . S
C268 C302 1.395 . S
N269 C265 1.376 . S
N269 C268 1.374 . S
N269 Co270 2.008 . S
Co270 N269 2.008 . S
Co270 N271 1.995 . S
Co270 N276 2.008 . S
Co270 N281 1.995 . S
Co270 N286 2.282 . S
Co270 N292 2.282 . S
N271 Co270 1.995 . S
N271 C272 1.376 . S
N271 C275 1.383 . S
C272 N271 1.376 . S
C272 C273 1.446 . S
C272 C302 1.391 . S
C273 C272 1.446 . S
C273 C274 1.339 . S
C273 H308 0.949 . S
C274 C273 1.339 . S
C274 C275 1.439 . S
C274 H309 0.950 . S
C275 N271 1.383 . S
C275 C274 1.439 . S
C275 C304 1.392 . S
N276 Co270 2.008 . S
N276 C277 1.376 . S
N276 C280 1.374 . S
C277 N276 1.376 . S
C277 C278 1.443 . S
C277 C304 1.389 . S
C278 C277 1.443 . S
C278 C279 1.340 . S
C278 H310 0.951 . S
C279 C278 1.340 . S
C279 C280 1.439 . S
C279 H311 0.950 . S
C280 N276 1.374 . S
C280 C279 1.439 . S
C280 C305 1.395 . S
N281 Co270 1.995 . S
N281 C282 1.376 . S
N281 C285 1.383 . S
C282 N281 1.376 . S
C282 C283 1.446 . S
C282 C305 1.391 . S
C283 C282 1.446 . S
C283 C284 1.339 . S
C283 H312 0.949 . S
C284 C283 1.339 . S
C284 C285 1.439 . S
C284 H313 0.950 . S
C285 N281 1.383 . S
C285 C284 1.439 . S
C285 C303 1.392 . S
N286 Co270 2.282 . S
N286 C289 1.332 . S
N286 C291 1.332 . S
C287 C288 1.386 . S
C287 C290 1.388 . S
C288 C287 1.386 . S
C288 C289 1.382 . S
C288 H314 0.950 . S
C289 N286 1.332 . S
C289 C288 1.382 . S
C289 H300 0.952 . S
C290 C287 1.388 . S
C290 C291 1.382 . S
C290 H315 0.950 . S
C291 N286 1.332 . S
C291 C290 1.382 . S
C291 H301 0.948 . S
N292 Co270 2.282 . S
N292 C296 1.332 . S
N292 C297 1.332 . S
C293 C294 1.388 . S
C293 C297 1.382 . S
C293 H316 0.950 . S
C294 C293 1.388 . S
C294 C295 1.386 . S
C295 C294 1.386 . S
C295 C296 1.382 . S
C295 H317 0.950 . S
C296 N292 1.332 . S
C296 C295 1.382 . S
C296 H298 0.952 . S
C297 N292 1.332 . S
C297 C293 1.382 . S
C297 H299 0.948 . S
H298 C296 0.952 . S
H299 C297 0.948 . S
H300 C289 0.952 . S
H301 C291 0.948 . S
C302 C268 1.395 . S
C302 C272 1.391 . S
C303 C265 1.389 . S
C303 C285 1.392 . S
C304 C275 1.392 . S
C304 C277 1.389 . S
C305 C280 1.395 . S
C305 C282 1.391 . S
H306 C266 0.951 . S
H307 C267 0.950 . S
H308 C273 0.949 . S
H309 C274 0.950 . S
H310 C278 0.951 . S
H311 C279 0.950 . S
H312 C283 0.949 . S
H313 C284 0.950 . S
H314 C288 0.950 . S
H315 C290 0.950 . S
H316 C293 0.950 . S
H317 C295 0.950 . S
C318 C319 1.443 1_565 S
C318 N322 1.376 1_565 S
C318 C356 1.389 . S
C319 C318 1.443 1_545 S
C319 C320 1.340 . S
C319 H359 0.951 . S
C320 C319 1.340 . S
C320 C321 1.439 . S
C320 H360 0.950 . S
C321 C320 1.439 . S
C321 N322 1.374 . S
C321 C355 1.395 . S
N322 C318 1.376 1_545 S
N322 C321 1.374 . S
N322 Co323 2.008 1_545 S
Co323 N322 2.008 1_565 S
Co323 N324 1.995 1_565 S
Co323 N329 2.008 . S
Co323 N334 1.995 . S
Co323 N339 2.282 . S
Co323 N345 2.282 . S
N324 Co323 1.995 1_545 S
N324 C325 1.376 . S
N324 C328 1.383 . S
C325 N324 1.376 . S
C325 C326 1.446 . S
C325 C355 1.391 . S
C326 C325 1.446 . S
C326 C327 1.339 . S
C326 H361 0.949 . S
C327 C326 1.339 . S
C327 C328 1.439 . S
C327 H362 0.950 . S
C328 N324 1.383 . S
C328 C327 1.439 . S
C328 C357 1.392 . S
N329 Co323 2.008 . S
N329 C330 1.376 . S
N329 C333 1.374 . S
C330 N329 1.376 . S
C330 C331 1.443 . S
C330 C357 1.389 1_565 S
C331 C330 1.443 . S
C331 C332 1.340 . S
C331 H363 0.951 . S
C332 C331 1.340 . S
C332 C333 1.439 . S
C332 H364 0.950 . S
C333 N329 1.374 . S
C333 C332 1.439 . S
C333 C358 1.395 . S
N334 Co323 1.995 . S
N334 C335 1.376 . S
N334 C338 1.383 . S
C335 N334 1.376 . S
C335 C336 1.446 . S
C335 C358 1.391 . S
C336 C335 1.446 . S
C336 C337 1.339 . S
C336 H365 0.949 . S
C337 C336 1.339 . S
C337 C338 1.439 . S
C337 H366 0.950 . S
C338 N334 1.383 . S
C338 C337 1.439 . S
C338 C356 1.392 . S
N339 Co323 2.282 . S
N339 C342 1.332 . S
N339 C344 1.332 1_565 S
C340 C341 1.386 . S
C340 C343 1.388 1_565 S
C341 C340 1.386 . S
C341 C342 1.382 . S
C341 H367 0.950 . S
C342 N339 1.332 . S
C342 C341 1.382 . S
C342 H353 0.952 . S
C343 C340 1.388 1_545 S
C343 C344 1.382 . S
C343 H368 0.950 . S
C344 N339 1.332 1_545 S
C344 C343 1.382 . S
C344 H354 0.948 . S
N345 Co323 2.282 . S
N345 C349 1.332 1_565 S
N345 C350 1.332 . S
C346 C347 1.388 . S
C346 C350 1.382 . S
C346 H369 0.950 . S
C347 C346 1.388 . S
C347 C348 1.386 1_565 S
C348 C347 1.386 1_545 S
C348 C349 1.382 . S
C348 H370 0.950 . S
C349 N345 1.332 1_545 S
C349 C348 1.382 . S
C349 H351 0.952 . S
C350 N345 1.332 . S
C350 C346 1.382 . S
C350 H352 0.948 . S
H351 C349 0.952 . S
H352 C350 0.948 . S
H353 C342 0.952 . S
H354 C344 0.948 . S
C355 C321 1.395 . S
C355 C325 1.391 . S
C356 C318 1.389 . S
C356 C338 1.392 . S
C357 C328 1.392 . S
C357 C330 1.389 1_545 S
C358 C333 1.395 . S
C358 C335 1.391 . S
H359 C319 0.951 . S
H360 C320 0.950 . S
H361 C326 0.949 . S
H362 C327 0.950 . S
H363 C331 0.951 . S
H364 C332 0.950 . S
H365 C336 0.949 . S
H366 C337 0.950 . S
H367 C341 0.950 . S
H368 C343 0.950 . S
H369 C346 0.950 . S
H370 C348 0.950 . S
C371 C372 1.443 . S
C371 N375 1.376 . S
C371 C409 1.389 . S
C372 C371 1.443 . S
C372 C373 1.340 . S
C372 H412 0.951 . S
C373 C372 1.340 . S
C373 C374 1.439 . S
C373 H413 0.950 . S
C374 C373 1.439 . S
C374 N375 1.374 . S
C374 C408 1.395 . S
N375 C371 1.376 . S
N375 C374 1.374 . S
N375 Co376 2.008 . S
Co376 N375 2.008 . S
Co376 N377 1.995 . S
Co376 N382 2.008 . S
Co376 N387 1.995 . S
Co376 N392 2.282 . S
Co376 N398 2.282 . S
N377 Co376 1.995 . S
N377 C378 1.376 . S
N377 C381 1.383 . S
C378 N377 1.376 . S
C378 C379 1.446 . S
C378 C408 1.391 . S
C379 C378 1.446 . S
C379 C380 1.339 . S
C379 H414 0.949 . S
C380 C379 1.339 . S
C380 C381 1.439 . S
C380 H415 0.950 . S
C381 N377 1.383 . S
C381 C380 1.439 . S
C381 C410 1.392 . S
N382 Co376 2.008 . S
N382 C383 1.376 . S
N382 C386 1.374 . S
C383 N382 1.376 . S
C383 C384 1.443 . S
C383 C410 1.389 . S
C384 C383 1.443 . S
C384 C385 1.340 . S
C384 H416 0.951 . S
C385 C384 1.340 . S
C385 C386 1.439 . S
C385 H417 0.950 . S
C386 N382 1.374 . S
C386 C385 1.439 . S
C386 C411 1.395 . S
N387 Co376 1.995 . S
N387 C388 1.376 . S
N387 C391 1.383 . S
C388 N387 1.376 . S
C388 C389 1.446 . S
C388 C411 1.391 . S
C389 C388 1.446 . S
C389 C390 1.339 . S
C389 H418 0.949 . S
C390 C389 1.339 . S
C390 C391 1.439 . S
C390 H419 0.950 . S
C391 N387 1.383 . S
C391 C390 1.439 . S
C391 C409 1.392 . S
N392 Co376 2.282 . S
N392 C395 1.332 . S
N392 C397 1.332 . S
C393 C394 1.386 . S
C393 C396 1.388 . S
C394 C393 1.386 . S
C394 C395 1.382 . S
C394 H420 0.950 . S
C395 N392 1.332 . S
C395 C394 1.382 . S
C395 H406 0.952 . S
C396 C393 1.388 . S
C396 C397 1.382 . S
C396 H421 0.950 . S
C397 N392 1.332 . S
C397 C396 1.382 . S
C397 H407 0.948 . S
N398 Co376 2.282 . S
N398 C402 1.332 . S
N398 C403 1.332 . S
C399 C400 1.388 . S
C399 C403 1.382 . S
C399 H422 0.950 . S
C400 C399 1.388 . S
C400 C401 1.386 . S
C401 C400 1.386 . S
C401 C402 1.382 . S
C401 H423 0.950 . S
C402 N398 1.332 . S
C402 C401 1.382 . S
C402 H404 0.952 . S
C403 N398 1.332 . S
C403 C399 1.382 . S
C403 H405 0.948 . S
H404 C402 0.952 . S
H405 C403 0.948 . S
H406 C395 0.952 . S
H407 C397 0.948 . S
C408 C374 1.395 . S
C408 C378 1.391 . S
C409 C371 1.389 . S
C409 C391 1.392 . S
C410 C381 1.392 . S
C410 C383 1.389 . S
C411 C386 1.395 . S
C411 C388 1.391 . S
H412 C372 0.951 . S
H413 C373 0.950 . S
H414 C379 0.949 . S
H415 C380 0.950 . S
H416 C384 0.951 . S
H417 C385 0.950 . S
H418 C389 0.949 . S
H419 C390 0.950 . S
H420 C394 0.950 . S
H421 C396 0.950 . S
H422 C399 0.950 . S
H423 C401 0.950 . S
C424 C425 1.443 1_455 S
C424 N428 1.376 1_455 S
C424 C462 1.389 . S
C425 C424 1.443 1_655 S
C425 C426 1.340 . S
C425 H465 0.951 . S
C426 C425 1.340 . S
C426 C427 1.439 . S
C426 H466 0.950 . S
C427 C426 1.439 . S
C427 N428 1.374 . S
C427 C461 1.395 . S
N428 C424 1.376 1_655 S
N428 C427 1.374 . S
N428 Co429 2.008 1_655 S
Co429 N428 2.008 1_455 S
Co429 N430 1.995 1_455 S
Co429 N435 2.008 . S
Co429 N440 1.995 . S
Co429 N445 2.282 . S
Co429 N451 2.282 . S
N430 Co429 1.995 1_655 S
N430 C431 1.376 . S
N430 C434 1.383 . S
C431 N430 1.376 . S
C431 C432 1.446 . S
C431 C461 1.391 . S
C432 C431 1.446 . S
C432 C433 1.339 . S
C432 H467 0.949 . S
C433 C432 1.339 . S
C433 C434 1.439 . S
C433 H468 0.950 . S
C434 N430 1.383 . S
C434 C433 1.439 . S
C434 C463 1.392 . S
N435 Co429 2.008 . S
N435 C436 1.376 . S
N435 C439 1.374 . S
C436 N435 1.376 . S
C436 C437 1.443 . S
C436 C463 1.389 1_455 S
C437 C436 1.443 . S
C437 C438 1.340 . S
C437 H469 0.951 . S
C438 C437 1.340 . S
C438 C439 1.439 . S
C438 H470 0.950 . S
C439 N435 1.374 . S
C439 C438 1.439 . S
C439 C464 1.395 . S
N440 Co429 1.995 . S
N440 C441 1.376 . S
N440 C444 1.383 . S
C441 N440 1.376 . S
C441 C442 1.446 . S
C441 C464 1.391 . S
C442 C441 1.446 . S
C442 C443 1.339 . S
C442 H471 0.949 . S
C443 C442 1.339 . S
C443 C444 1.439 . S
C443 H472 0.950 . S
C444 N440 1.383 . S
C444 C443 1.439 . S
C444 C462 1.392 . S
N445 Co429 2.282 . S
N445 C448 1.332 . S
N445 C450 1.332 1_455 S
C446 C447 1.386 . S
C446 C449 1.388 1_455 S
C447 C446 1.386 . S
C447 C448 1.382 . S
C447 H473 0.950 . S
C448 N445 1.332 . S
C448 C447 1.382 . S
C448 H459 0.952 . S
C449 C446 1.388 1_655 S
C449 C450 1.382 . S
C449 H474 0.950 . S
C450 N445 1.332 1_655 S
C450 C449 1.382 . S
C450 H460 0.948 . S
N451 Co429 2.282 . S
N451 C455 1.332 1_455 S
N451 C456 1.332 . S
C452 C453 1.388 . S
C452 C456 1.382 . S
C452 H475 0.950 . S
C453 C452 1.388 . S
C453 C454 1.386 1_455 S
C454 C453 1.386 1_655 S
C454 C455 1.382 . S
C454 H476 0.950 . S
C455 N451 1.332 1_655 S
C455 C454 1.382 . S
C455 H457 0.952 . S
C456 N451 1.332 . S
C456 C452 1.382 . S
C456 H458 0.948 . S
H457 C455 0.952 . S
H458 C456 0.948 . S
H459 C448 0.952 . S
H460 C450 0.948 . S
C461 C427 1.395 . S
C461 C431 1.391 . S
C462 C424 1.389 . S
C462 C444 1.392 . S
C463 C434 1.392 . S
C463 C436 1.389 1_655 S
C464 C439 1.395 . S
C464 C441 1.391 . S
H465 C425 0.951 . S
H466 C426 0.950 . S
H467 C432 0.949 . S
H468 C433 0.950 . S
H469 C437 0.951 . S
H470 C438 0.950 . S
H471 C442 0.949 . S
H472 C443 0.950 . S
H473 C447 0.950 . S
H474 C449 0.950 . S
H475 C452 0.950 . S
H476 C454 0.950 . S
C477 C478 1.443 1_545 S
C477 N481 1.376 1_545 S
C477 C515 1.389 . S
C478 C477 1.443 1_565 S
C478 C479 1.340 . S
C478 H518 0.951 . S
C479 C478 1.340 . S
C479 C480 1.439 . S
C479 H519 0.950 . S
C480 C479 1.439 . S
C480 N481 1.374 . S
C480 C514 1.395 . S
N481 C477 1.376 1_565 S
N481 C480 1.374 . S
N481 Co482 2.008 1_565 S
Co482 N481 2.008 1_545 S
Co482 N483 1.995 1_545 S
Co482 N488 2.008 . S
Co482 N493 1.995 . S
Co482 N498 2.282 . S
Co482 N504 2.282 . S
N483 Co482 1.995 1_565 S
N483 C484 1.376 . S
N483 C487 1.383 . S
C484 N483 1.376 . S
C484 C485 1.446 . S
C484 C514 1.391 . S
C485 C484 1.446 . S
C485 C486 1.339 . S
C485 H520 0.949 . S
C486 C485 1.339 . S
C486 C487 1.439 . S
C486 H521 0.950 . S
C487 N483 1.383 . S
C487 C486 1.439 . S
C487 C516 1.392 . S
N488 Co482 2.008 . S
N488 C489 1.376 . S
N488 C492 1.374 . S
C489 N488 1.376 . S
C489 C490 1.443 . S
C489 C516 1.389 1_545 S
C490 C489 1.443 . S
C490 C491 1.340 . S
C490 H522 0.951 . S
C491 C490 1.340 . S
C491 C492 1.439 . S
C491 H523 0.950 . S
C492 N488 1.374 . S
C492 C491 1.439 . S
C492 C517 1.395 . S
N493 Co482 1.995 . S
N493 C494 1.376 . S
N493 C497 1.383 . S
C494 N493 1.376 . S
C494 C495 1.446 . S
C494 C517 1.391 . S
C495 C494 1.446 . S
C495 C496 1.339 . S
C495 H524 0.949 . S
C496 C495 1.339 . S
C496 C497 1.439 . S
C496 H525 0.950 . S
C497 N493 1.383 . S
C497 C496 1.439 . S
C497 C515 1.392 . S
N498 Co482 2.282 . S
N498 C501 1.332 . S
N498 C503 1.332 1_545 S
C499 C500 1.386 . S
C499 C502 1.388 1_545 S
C500 C499 1.386 . S
C500 C501 1.382 . S
C500 H526 0.950 . S
C501 N498 1.332 . S
C501 C500 1.382 . S
C501 H512 0.952 . S
C502 C499 1.388 1_565 S
C502 C503 1.382 . S
C502 H527 0.950 . S
C503 N498 1.332 1_565 S
C503 C502 1.382 . S
C503 H513 0.948 . S
N504 Co482 2.282 . S
N504 C508 1.332 1_545 S
N504 C509 1.332 . S
C505 C506 1.388 . S
C505 C509 1.382 . S
C505 H528 0.950 . S
C506 C505 1.388 . S
C506 C507 1.386 1_545 S
C507 C506 1.386 1_565 S
C507 C508 1.382 . S
C507 H529 0.950 . S
C508 N504 1.332 1_565 S
C508 C507 1.382 . S
C508 H510 0.952 . S
C509 N504 1.332 . S
C509 C505 1.382 . S
C509 H511 0.948 . S
H510 C508 0.952 . S
H511 C509 0.948 . S
H512 C501 0.952 . S
H513 C503 0.948 . S
C514 C480 1.395 . S
C514 C484 1.391 . S
C515 C477 1.389 . S
C515 C497 1.392 . S
C516 C487 1.392 . S
C516 C489 1.389 1_565 S
C517 C492 1.395 . S
C517 C494 1.391 . S
H518 C478 0.951 . S
H519 C479 0.950 . S
H520 C485 0.949 . S
H521 C486 0.950 . S
H522 C490 0.951 . S
H523 C491 0.950 . S
H524 C495 0.949 . S
H525 C496 0.950 . S
H526 C500 0.950 . S
H527 C502 0.950 . S
H528 C505 0.950 . S
H529 C507 0.950 . S
C530 C531 1.443 . S
C530 N534 1.376 . S
C530 C568 1.389 . S
C531 C530 1.443 . S
C531 C532 1.340 . S
C531 H571 0.951 . S
C532 C531 1.340 . S
C532 C533 1.439 . S
C532 H572 0.950 . S
C533 C532 1.439 . S
C533 N534 1.374 . S
C533 C567 1.395 . S
N534 C530 1.376 . S
N534 C533 1.374 . S
N534 Co535 2.008 . S
Co535 N534 2.008 . S
Co535 N536 1.995 . S
Co535 N541 2.008 . S
Co535 N546 1.995 . S
Co535 N551 2.282 . S
Co535 N557 2.282 . S
N536 Co535 1.995 . S
N536 C537 1.376 . S
N536 C540 1.383 . S
C537 N536 1.376 . S
C537 C538 1.446 . S
C537 C567 1.391 . S
C538 C537 1.446 . S
C538 C539 1.339 . S
C538 H573 0.949 . S
C539 C538 1.339 . S
C539 C540 1.439 . S
C539 H574 0.950 . S
C540 N536 1.383 . S
C540 C539 1.439 . S
C540 C569 1.392 . S
N541 Co535 2.008 . S
N541 C542 1.376 . S
N541 C545 1.374 . S
C542 N541 1.376 . S
C542 C543 1.443 . S
C542 C569 1.389 . S
C543 C542 1.443 . S
C543 C544 1.340 . S
C543 H575 0.951 . S
C544 C543 1.340 . S
C544 C545 1.439 . S
C544 H576 0.950 . S
C545 N541 1.374 . S
C545 C544 1.439 . S
C545 C570 1.395 . S
N546 Co535 1.995 . S
N546 C547 1.376 . S
N546 C550 1.383 . S
C547 N546 1.376 . S
C547 C548 1.446 . S
C547 C570 1.391 . S
C548 C547 1.446 . S
C548 C549 1.339 . S
C548 H577 0.949 . S
C549 C548 1.339 . S
C549 C550 1.439 . S
C549 H578 0.950 . S
C550 N546 1.383 . S
C550 C549 1.439 . S
C550 C568 1.392 . S
N551 Co535 2.282 . S
N551 C554 1.332 . S
N551 C556 1.332 . S
C552 C553 1.386 . S
C552 C555 1.388 . S
C553 C552 1.386 . S
C553 C554 1.382 . S
C553 H579 0.950 . S
C554 N551 1.332 . S
C554 C553 1.382 . S
C554 H565 0.952 . S
C555 C552 1.388 . S
C555 C556 1.382 . S
C555 H580 0.950 . S
C556 N551 1.332 . S
C556 C555 1.382 . S
C556 H566 0.948 . S
N557 Co535 2.282 . S
N557 C561 1.332 . S
N557 C562 1.332 . S
C558 C559 1.388 . S
C558 C562 1.382 . S
C558 H581 0.950 . S
C559 C558 1.388 . S
C559 C560 1.386 . S
C560 C559 1.386 . S
C560 C561 1.382 . S
C560 H582 0.950 . S
C561 N557 1.332 . S
C561 C560 1.382 . S
C561 H563 0.952 . S
C562 N557 1.332 . S
C562 C558 1.382 . S
C562 H564 0.948 . S
H563 C561 0.952 . S
H564 C562 0.948 . S
H565 C554 0.952 . S
H566 C556 0.948 . S
C567 C533 1.395 . S
C567 C537 1.391 . S
C568 C530 1.389 . S
C568 C550 1.392 . S
C569 C540 1.392 . S
C569 C542 1.389 . S
C570 C545 1.395 . S
C570 C547 1.391 . S
H571 C531 0.951 . S
H572 C532 0.950 . S
H573 C538 0.949 . S
H574 C539 0.950 . S
H575 C543 0.951 . S
H576 C544 0.950 . S
H577 C548 0.949 . S
H578 C549 0.950 . S
H579 C553 0.950 . S
H580 C555 0.950 . S
H581 C558 0.950 . S
H582 C560 0.950 . S
C583 C584 1.443 1_655 S
C583 N587 1.376 1_655 S
C583 C621 1.389 . S
C584 C583 1.443 1_455 S
C584 C585 1.340 . S
C584 H624 0.951 . S
C585 C584 1.340 . S
C585 C586 1.439 . S
C585 H625 0.950 . S
C586 C585 1.439 . S
C586 N587 1.374 . S
C586 C620 1.395 . S
N587 C583 1.376 1_455 S
N587 C586 1.374 . S
N587 Co588 2.008 1_455 S
Co588 N587 2.008 1_655 S
Co588 N589 1.995 1_655 S
Co588 N594 2.008 . S
Co588 N599 1.995 . S
Co588 N604 2.282 . S
Co588 N610 2.282 . S
N589 Co588 1.995 1_455 S
N589 C590 1.376 . S
N589 C593 1.383 . S
C590 N589 1.376 . S
C590 C591 1.446 . S
C590 C620 1.391 . S
C591 C590 1.446 . S
C591 C592 1.339 . S
C591 H626 0.949 . S
C592 C591 1.339 . S
C592 C593 1.439 . S
C592 H627 0.950 . S
C593 N589 1.383 . S
C593 C592 1.439 . S
C593 C622 1.392 . S
N594 Co588 2.008 . S
N594 C595 1.376 . S
N594 C598 1.374 . S
C595 N594 1.376 . S
C595 C596 1.443 . S
C595 C622 1.389 1_655 S
C596 C595 1.443 . S
C596 C597 1.340 . S
C596 H628 0.951 . S
C597 C596 1.340 . S
C597 C598 1.439 . S
C597 H629 0.950 . S
C598 N594 1.374 . S
C598 C597 1.439 . S
C598 C623 1.395 . S
N599 Co588 1.995 . S
N599 C600 1.376 . S
N599 C603 1.383 . S
C600 N599 1.376 . S
C600 C601 1.446 . S
C600 C623 1.391 . S
C601 C600 1.446 . S
C601 C602 1.339 . S
C601 H630 0.949 . S
C602 C601 1.339 . S
C602 C603 1.439 . S
C602 H631 0.950 . S
C603 N599 1.383 . S
C603 C602 1.439 . S
C603 C621 1.392 . S
N604 Co588 2.282 . S
N604 C607 1.332 . S
N604 C609 1.332 1_655 S
C605 C606 1.386 . S
C605 C608 1.388 1_655 S
C606 C605 1.386 . S
C606 C607 1.382 . S
C606 H632 0.950 . S
C607 N604 1.332 . S
C607 C606 1.382 . S
C607 H618 0.952 . S
C608 C605 1.388 1_455 S
C608 C609 1.382 . S
C608 H633 0.950 . S
C609 N604 1.332 1_455 S
C609 C608 1.382 . S
C609 H619 0.948 . S
N610 Co588 2.282 . S
N610 C614 1.332 1_655 S
N610 C615 1.332 . S
C611 C612 1.388 . S
C611 C615 1.382 . S
C611 H634 0.950 . S
C612 C611 1.388 . S
C612 C613 1.386 1_655 S
C613 C612 1.386 1_455 S
C613 C614 1.382 . S
C613 H635 0.950 . S
C614 N610 1.332 1_455 S
C614 C613 1.382 . S
C614 H616 0.952 . S
C615 N610 1.332 . S
C615 C611 1.382 . S
C615 H617 0.948 . S
H616 C614 0.952 . S
H617 C615 0.948 . S
H618 C607 0.952 . S
H619 C609 0.948 . S
C620 C586 1.395 . S
C620 C590 1.391 . S
C621 C583 1.389 . S
C621 C603 1.392 . S
C622 C593 1.392 . S
C622 C595 1.389 1_455 S
C623 C598 1.395 . S
C623 C600 1.391 . S
H624 C584 0.951 . S
H625 C585 0.950 . S
H626 C591 0.949 . S
H627 C592 0.950 . S
H628 C596 0.951 . S
H629 C597 0.950 . S
H630 C601 0.949 . S
H631 C602 0.950 . S
H632 C606 0.950 . S
H633 C608 0.950 . S
H634 C611 0.950 . S
H635 C613 0.950 . S
H636 C642 0.930 . S
H637 C646 0.930 . S
H638 C651 0.929 . S
H639 C649 0.929 . S
H640 C644 0.929 . S
H641 C650 0.929 . S
C642 H636 0.930 . S
C642 C643 1.367 1_655 S
C642 C650 1.378 . S
C643 C642 1.367 1_455 S
C643 C651 1.433 . S
C644 H640 0.929 . S
C644 C646 1.378 . S
C644 C648 1.350 1_455 S
C645 C648 1.463 1_455 S
C645 C650 1.350 1_455 S
C645 N653 1.427 . S
C646 H637 0.930 . S
C646 C644 1.378 . S
C646 C647 1.367 1_455 S
C647 C646 1.367 1_655 S
C647 C649 1.433 . S
C648 C644 1.350 1_655 S
C648 C645 1.463 1_655 S
C648 N652 1.427 . S
C649 H639 0.929 . S
C649 C647 1.433 . S
C649 N652 1.384 . S
C650 H641 0.929 . S
C650 C642 1.378 . S
C650 C645 1.350 1_655 S
C651 H638 0.929 . S
C651 C643 1.433 . S
C651 N653 1.384 . S
N652 C648 1.427 . S
N652 C649 1.384 . S
N653 C645 1.427 . S
N653 C651 1.384 . S
H654 C660 0.930 . S
H655 C664 0.930 . S
H656 C669 0.929 . S
H657 C667 0.929 . S
H658 C662 0.929 . S
H659 C668 0.929 . S
C660 H654 0.930 . S
C660 C661 1.367 . S
C660 C668 1.378 . S
C661 C660 1.367 . S
C661 C669 1.433 1_565 S
C662 H658 0.929 . S
C662 C664 1.378 . S
C662 C666 1.350 . S
C663 C666 1.463 1_565 S
C663 C668 1.350 . S
C663 N671 1.427 1_565 S
C664 H655 0.930 . S
C664 C662 1.378 . S
C664 C665 1.367 . S
C665 C664 1.367 . S
C665 C667 1.433 1_545 S
C666 C662 1.350 . S
C666 C663 1.463 1_545 S
C666 N670 1.427 1_545 S
C667 H657 0.929 . S
C667 C665 1.433 1_565 S
C667 N670 1.384 . S
C668 H659 0.929 . S
C668 C660 1.378 . S
C668 C663 1.350 . S
C669 H656 0.929 . S
C669 C661 1.433 1_545 S
C669 N671 1.384 . S
N670 C666 1.427 1_565 S
N670 C667 1.384 . S
N671 C663 1.427 1_545 S
N671 C669 1.384 . S
H672 C678 0.930 . S
H673 C682 0.930 . S
H674 C687 0.929 . S
H675 C685 0.929 . S
H676 C680 0.929 . S
H677 C686 0.929 . S
C678 H672 0.930 . S
C678 C679 1.367 . S
C678 C686 1.378 . S
C679 C678 1.367 . S
C679 C687 1.433 . S
C680 H676 0.929 . S
C680 C682 1.378 . S
C680 C684 1.350 . S
C681 C684 1.463 . S
C681 C686 1.350 . S
C681 N689 1.427 . S
C682 H673 0.930 . S
C682 C680 1.378 . S
C682 C683 1.367 . S
C683 C682 1.367 . S
C683 C685 1.433 . S
C684 C680 1.350 . S
C684 C681 1.463 . S
C684 N688 1.427 . S
C685 H675 0.929 . S
C685 C683 1.433 . S
C685 N688 1.384 . S
C686 H677 0.929 . S
C686 C678 1.378 . S
C686 C681 1.350 . S
C687 H674 0.929 . S
C687 C679 1.433 . S
C687 N689 1.384 . S
N688 C684 1.427 . S
N688 C685 1.384 . S
N689 C681 1.427 . S
N689 C687 1.384 . S
H690 C696 0.930 . S
H691 C700 0.930 . S
H692 C705 0.929 . S
H693 C703 0.929 . S
H694 C698 0.929 . S
H695 C704 0.929 . S
C696 H690 0.930 . S
C696 C697 1.367 . S
C696 C704 1.378 . S
C697 C696 1.367 . S
C697 C705 1.433 1_455 S
C698 H694 0.929 . S
C698 C700 1.378 . S
C698 C702 1.350 . S
C699 C702 1.463 1_455 S
C699 C704 1.350 . S
C699 N707 1.427 1_455 S
C700 H691 0.930 . S
C700 C698 1.378 . S
C700 C701 1.367 . S
C701 C700 1.367 . S
C701 C703 1.433 1_655 S
C702 C698 1.350 . S
C702 C699 1.463 1_655 S
C702 N706 1.427 1_655 S
C703 H693 0.929 . S
C703 C701 1.433 1_455 S
C703 N706 1.384 . S
C704 H695 0.929 . S
C704 C696 1.378 . S
C704 C699 1.350 . S
C705 H692 0.929 . S
C705 C697 1.433 1_655 S
C705 N707 1.384 . S
N706 C702 1.427 1_455 S
N706 C703 1.384 . S
N707 C699 1.427 1_655 S
N707 C705 1.384 . S
H708 C714 0.930 . S
H709 C718 0.930 . S
H710 C723 0.929 . S
H711 C721 0.929 . S
H712 C716 0.929 . S
H713 C722 0.929 . S
C714 H708 0.930 . S
C714 C715 1.367 1_545 S
C714 C722 1.378 . S
C715 C714 1.367 1_565 S
C715 C723 1.433 . S
C716 H712 0.929 . S
C716 C718 1.378 . S
C716 C720 1.350 1_565 S
C717 C720 1.463 1_565 S
C717 C722 1.350 1_565 S
C717 N725 1.427 . S
C718 H709 0.930 . S
C718 C716 1.378 . S
C718 C719 1.367 1_565 S
C719 C718 1.367 1_545 S
C719 C721 1.433 . S
C720 C716 1.350 1_545 S
C720 C717 1.463 1_545 S
C720 N724 1.427 . S
C721 H711 0.929 . S
C721 C719 1.433 . S
C721 N724 1.384 . S
C722 H713 0.929 . S
C722 C714 1.378 . S
C722 C717 1.350 1_545 S
C723 H710 0.929 . S
C723 C715 1.433 . S
C723 N725 1.384 . S
N724 C720 1.427 . S
N724 C721 1.384 . S
N725 C717 1.427 . S
N725 C723 1.384 . S
H726 C732 0.930 . S
H727 C736 0.930 . S
H728 C741 0.929 . S
H729 C739 0.929 . S
H730 C734 0.929 . S
H731 C740 0.929 . S
C732 H726 0.930 . S
C732 C733 1.367 . S
C732 C740 1.378 . S
C733 C732 1.367 . S
C733 C741 1.433 . S
C734 H730 0.929 . S
C734 C736 1.378 . S
C734 C738 1.350 . S
C735 C738 1.463 . S
C735 C740 1.350 . S
C735 N743 1.427 . S
C736 H727 0.930 . S
C736 C734 1.378 . S
C736 C737 1.367 . S
C737 C736 1.367 . S
C737 C739 1.433 . S
C738 C734 1.350 . S
C738 C735 1.463 . S
C738 N742 1.427 . S
C739 H729 0.929 . S
C739 C737 1.433 . S
C739 N742 1.384 . S
C740 H731 0.929 . S
C740 C732 1.378 . S
C740 C735 1.350 . S
C741 H728 0.929 . S
C741 C733 1.433 . S
C741 N743 1.384 . S
N742 C738 1.427 . S
N742 C739 1.384 . S
N743 C735 1.427 . S
N743 C741 1.384 . S
H744 C750 0.930 . S
H745 C754 0.930 . S
H746 C759 0.929 . S
H747 C757 0.929 . S
H748 C752 0.929 . S
H749 C758 0.929 . S
C750 H744 0.930 . S
C750 C751 1.367 . S
C750 C758 1.378 . S
C751 C750 1.367 . S
C751 C759 1.433 . S
C752 H748 0.929 . S
C752 C754 1.378 . S
C752 C756 1.350 . S
C753 C756 1.463 1_554 S
C753 C758 1.350 . S
C753 N761 1.427 . S
C754 H745 0.930 . S
C754 C752 1.378 . S
C754 C755 1.367 . S
C755 C754 1.367 . S
C755 C757 1.433 . S
C756 C752 1.350 . S
C756 C753 1.463 1_556 S
C756 N760 1.427 . S
C757 H747 0.929 . S
C757 C755 1.433 . S
C757 N760 1.384 . S
C758 H749 0.929 . S
C758 C750 1.378 . S
C758 C753 1.350 . S
C759 H746 0.929 . S
C759 C751 1.433 . S
C759 N761 1.384 . S
N760 C756 1.427 . S
N760 C757 1.384 . S
N761 C753 1.427 . S
N761 C759 1.384 . S
H762 C768 0.930 . S
H763 C772 0.930 . S
H764 C777 0.929 . S
H765 C775 0.929 . S
H766 C770 0.929 . S
H767 C776 0.929 . S
C768 H762 0.930 . S
C768 C769 1.367 . S
C768 C776 1.378 . S
C769 C768 1.367 . S
C769 C777 1.433 . S
C770 H766 0.929 . S
C770 C772 1.378 . S
C770 C774 1.350 . S
C771 C774 1.463 . S
C771 C776 1.350 . S
C771 N779 1.427 . S
C772 H763 0.930 . S
C772 C770 1.378 . S
C772 C773 1.367 . S
C773 C772 1.367 . S
C773 C775 1.433 . S
C774 C770 1.350 . S
C774 C771 1.463 . S
C774 N778 1.427 . S
C775 H765 0.929 . S
C775 C773 1.433 . S
C775 N778 1.384 . S
C776 H767 0.929 . S
C776 C768 1.378 . S
C776 C771 1.350 . S
C777 H764 0.929 . S
C777 C769 1.433 . S
C777 N779 1.384 . S
N778 C774 1.427 . S
N778 C775 1.384 . S
N779 C771 1.427 . S
N779 C777 1.384 . S
H780 C786 0.930 . S
H781 C790 0.930 . S
H782 C795 0.929 . S
H783 C793 0.929 . S
H784 C788 0.929 . S
H785 C794 0.929 . S
C786 H780 0.930 . S
C786 C787 1.367 . S
C786 C794 1.378 . S
C787 C786 1.367 . S
C787 C795 1.433 . S
C788 H784 0.929 . S
C788 C790 1.378 . S
C788 C792 1.350 . S
C789 C792 1.463 . S
C789 C794 1.350 . S
C789 N797 1.427 . S
C790 H781 0.930 . S
C790 C788 1.378 . S
C790 C791 1.367 . S
C791 C790 1.367 . S
C791 C793 1.433 . S
C792 C788 1.350 . S
C792 C789 1.463 . S
C792 N796 1.427 . S
C793 H783 0.929 . S
C793 C791 1.433 . S
C793 N796 1.384 . S
C794 H785 0.929 . S
C794 C786 1.378 . S
C794 C789 1.350 . S
C795 H782 0.929 . S
C795 C787 1.433 . S
C795 N797 1.384 . S
N796 C792 1.427 . S
N796 C793 1.384 . S
N797 C789 1.427 . S
N797 C795 1.384 . S
H798 C804 0.930 . S
H799 C808 0.930 . S
H800 C813 0.929 . S
H801 C811 0.929 . S
H802 C806 0.929 . S
H803 C812 0.929 . S
C804 H798 0.930 . S
C804 C805 1.367 . S
C804 C812 1.378 . S
C805 C804 1.367 . S
C805 C813 1.433 . S
C806 H802 0.929 . S
C806 C808 1.378 . S
C806 C810 1.350 . S
C807 C810 1.463 1_554 S
C807 C812 1.350 . S
C807 N815 1.427 . S
C808 H799 0.930 . S
C808 C806 1.378 . S
C808 C809 1.367 . S
C809 C808 1.367 . S
C809 C811 1.433 . S
C810 C806 1.350 . S
C810 C807 1.463 1_556 S
C810 N814 1.427 . S
C811 H801 0.929 . S
C811 C809 1.433 . S
C811 N814 1.384 . S
C812 H803 0.929 . S
C812 C804 1.378 . S
C812 C807 1.350 . S
C813 H800 0.929 . S
C813 C805 1.433 . S
C813 N815 1.384 . S
N814 C810 1.427 . S
N814 C811 1.384 . S
N815 C807 1.427 . S
N815 C813 1.384 . S
H816 C822 0.930 . S
H817 C826 0.930 . S
H818 C831 0.929 . S
H819 C829 0.929 . S
H820 C824 0.929 . S
H821 C830 0.929 . S
C822 H816 0.930 . S
C822 C823 1.367 . S
C822 C830 1.378 . S
C823 C822 1.367 . S
C823 C831 1.433 . S
C824 H820 0.929 . S
C824 C826 1.378 . S
C824 C828 1.350 . S
C825 C828 1.463 . S
C825 C830 1.350 . S
C825 N833 1.427 . S
C826 H817 0.930 . S
C826 C824 1.378 . S
C826 C827 1.367 . S
C827 C826 1.367 . S
C827 C829 1.433 . S
C828 C824 1.350 . S
C828 C825 1.463 . S
C828 N832 1.427 . S
C829 H819 0.929 . S
C829 C827 1.433 . S
C829 N832 1.384 . S
C830 H821 0.929 . S
C830 C822 1.378 . S
C830 C825 1.350 . S
C831 H818 0.929 . S
C831 C823 1.433 . S
C831 N833 1.384 . S
N832 C828 1.427 . S
N832 C829 1.384 . S
N833 C825 1.427 . S
N833 C831 1.384 . S
H834 C840 0.930 . S
H835 C844 0.930 . S
H836 C849 0.929 . S
H837 C847 0.929 . S
H838 C842 0.929 . S
H839 C848 0.929 . S
C840 H834 0.930 . S
C840 C841 1.367 . S
C840 C848 1.378 . S
C841 C840 1.367 . S
C841 C849 1.433 . S
C842 H838 0.929 . S
C842 C844 1.378 . S
C842 C846 1.350 . S
C843 C846 1.463 . S
C843 C848 1.350 . S
C843 N851 1.427 . S
C844 H835 0.930 . S
C844 C842 1.378 . S
C844 C845 1.367 . S
C845 C844 1.367 . S
C845 C847 1.433 . S
C846 C842 1.350 . S
C846 C843 1.463 . S
C846 N850 1.427 . S
C847 H837 0.929 . S
C847 C845 1.433 . S
C847 N850 1.384 . S
C848 H839 0.929 . S
C848 C840 1.378 . S
C848 C843 1.350 . S
C849 H836 0.929 . S
C849 C841 1.433 . S
C849 N851 1.384 . S
N850 C846 1.427 . S
N850 C847 1.384 . S
N851 C843 1.427 . S
N851 C849 1.384 . S
H852 C858 0.932 1_455 S
H853 C862 0.933 1_655 S
H854 C867 0.929 . S
H855 C865 0.929 . S
H856 C860 0.929 . S
H857 C866 0.929 . S
C858 H852 0.932 1_655 S
C858 C859 1.367 . S
C858 C866 1.378 1_655 S
C859 C858 1.367 . S
C859 C867 1.433 . S
C860 H856 0.929 . S
C860 C862 1.378 1_655 S
C860 C864 1.350 1_655 S
C861 C864 1.463 1_655 S
C861 C866 1.350 1_655 S
C861 N869 1.427 . S
C862 H853 0.933 1_455 S
C862 C860 1.378 1_455 S
C862 C863 1.367 . S
C863 C862 1.367 . S
C863 C865 1.433 . S
C864 C860 1.350 1_455 S
C864 C861 1.463 1_455 S
C864 N868 1.427 . S
C865 H855 0.929 . S
C865 C863 1.433 . S
C865 N868 1.384 . S
C866 H857 0.929 . S
C866 C858 1.378 1_455 S
C866 C861 1.350 1_455 S
C867 H854 0.929 . S
C867 C859 1.433 . S
C867 N869 1.384 . S
N868 C864 1.427 . S
N868 C865 1.384 . S
N869 C861 1.427 . S
N869 C867 1.384 . S
H870 C876 0.930 . S
H871 C880 0.930 . S
H872 C885 0.929 . S
H873 C883 0.929 . S
H874 C878 0.929 . S
H875 C884 0.929 . S
C876 H870 0.930 . S
C876 C877 1.367 1_565 S
C876 C884 1.378 . S
C877 C876 1.367 1_545 S
C877 C885 1.433 . S
C878 H874 0.929 . S
C878 C880 1.378 . S
C878 C882 1.350 1_545 S
C879 C882 1.463 1_545 S
C879 C884 1.350 1_545 S
C879 N887 1.427 . S
C880 H871 0.930 . S
C880 C878 1.378 . S
C880 C881 1.367 1_545 S
C881 C880 1.367 1_565 S
C881 C883 1.433 . S
C882 C878 1.350 1_565 S
C882 C879 1.463 1_565 S
C882 N886 1.427 . S
C883 H873 0.929 . S
C883 C881 1.433 . S
C883 N886 1.384 . S
C884 H875 0.929 . S
C884 C876 1.378 . S
C884 C879 1.350 1_565 S
C885 H872 0.929 . S
C885 C877 1.433 . S
C885 N887 1.384 . S
N886 C882 1.427 . S
N886 C883 1.384 . S
N887 C879 1.427 . S
N887 C885 1.384 . S
H888 C894 0.930 . S
H889 C898 0.930 . S
H890 C903 0.929 . S
H891 C901 0.929 . S
H892 C896 0.929 . S
H893 C902 0.929 . S
C894 H888 0.930 . S
C894 C895 1.367 . S
C894 C902 1.378 . S
C895 C894 1.367 . S
C895 C903 1.433 . S
C896 H892 0.929 . S
C896 C898 1.378 . S
C896 C900 1.350 . S
C897 C900 1.463 . S
C897 C902 1.350 . S
C897 N905 1.427 . S
C898 H889 0.930 . S
C898 C896 1.378 . S
C898 C899 1.367 . S
C899 C898 1.367 . S
C899 C901 1.433 . S
C900 C896 1.350 . S
C900 C897 1.463 . S
C900 N904 1.427 . S
C901 H891 0.929 . S
C901 C899 1.433 . S
C901 N904 1.384 . S
C902 H893 0.929 . S
C902 C894 1.378 . S
C902 C897 1.350 . S
C903 H890 0.929 . S
C903 C895 1.433 . S
C903 N905 1.384 . S
N904 C900 1.427 . S
N904 C901 1.384 . S
N905 C897 1.427 . S
N905 C903 1.384 . S
H906 C912 0.930 . S
H907 C916 0.930 . S
H908 C921 0.929 . S
H909 C919 0.929 . S
H910 C914 0.929 . S
H911 C920 0.929 . S
C912 H906 0.930 . S
C912 C913 1.367 . S
C912 C920 1.378 . S
C913 C912 1.367 . S
C913 C921 1.433 1_545 S
C914 H910 0.929 . S
C914 C916 1.378 . S
C914 C918 1.350 . S
C915 C918 1.463 1_545 S
C915 C920 1.350 . S
C915 N923 1.427 1_545 S
C916 H907 0.930 . S
C916 C914 1.378 . S
C916 C917 1.367 . S
C917 C916 1.367 . S
C917 C919 1.433 1_565 S
C918 C914 1.350 . S
C918 C915 1.463 1_565 S
C918 N922 1.427 1_565 S
C919 H909 0.929 . S
C919 C917 1.433 1_545 S
C919 N922 1.384 . S
C920 H911 0.929 . S
C920 C912 1.378 . S
C920 C915 1.350 . S
C921 H908 0.929 . S
C921 C913 1.433 1_565 S
C921 N923 1.384 . S
N922 C918 1.427 1_545 S
N922 C919 1.384 . S
N923 C915 1.427 1_565 S
N923 C921 1.384 . S
H924 C930 0.930 . S
H925 C934 0.930 . S
H926 C939 0.929 . S
H927 C937 0.929 . S
H928 C932 0.929 . S
H929 C938 0.929 . S
C930 H924 0.930 . S
C930 C931 1.367 . S
C930 C938 1.378 . S
C931 C930 1.367 . S
C931 C939 1.433 . S
C932 H928 0.929 . S
C932 C934 1.378 . S
C932 C936 1.350 . S
C933 C936 1.463 . S
C933 C938 1.350 . S
C933 N941 1.427 . S
C934 H925 0.930 . S
C934 C932 1.378 . S
C934 C935 1.367 . S
C935 C934 1.367 . S
C935 C937 1.433 . S
C936 C932 1.350 . S
C936 C933 1.463 . S
C936 N940 1.427 . S
C937 H927 0.929 . S
C937 C935 1.433 . S
C937 N940 1.384 . S
C938 H929 0.929 . S
C938 C930 1.378 . S
C938 C933 1.350 . S
C939 H926 0.929 . S
C939 C931 1.433 . S
C939 N941 1.384 . S
N940 C936 1.427 . S
N940 C937 1.384 . S
N941 C933 1.427 . S
N941 C939 1.384 . S
H942 C948 0.930 . S
H943 C952 0.930 . S
H944 C957 0.929 . S
H945 C955 0.929 . S
H946 C950 0.929 . S
H947 C956 0.929 . S
C948 H942 0.930 . S
C948 C949 1.367 . S
C948 C956 1.378 . S
C949 C948 1.367 . S
C949 C957 1.433 1_455 S
C950 H946 0.929 . S
C950 C952 1.378 . S
C950 C954 1.350 . S
C951 C954 1.463 1_455 S
C951 C956 1.350 . S
C951 N959 1.427 1_455 S
C952 H943 0.930 . S
C952 C950 1.378 . S
C952 C953 1.367 . S
C953 C952 1.367 . S
C953 C955 1.433 1_655 S
C954 C950 1.350 . S
C954 C951 1.463 1_655 S
C954 N958 1.427 1_655 S
C955 H945 0.929 . S
C955 C953 1.433 1_455 S
C955 N958 1.384 . S
C956 H947 0.929 . S
C956 C948 1.378 . S
C956 C951 1.350 . S
C957 H944 0.929 . S
C957 C949 1.433 1_655 S
C957 N959 1.384 . S
N958 C954 1.427 1_455 S
N958 C955 1.384 . S
N959 C951 1.427 1_655 S
N959 C957 1.384 . S
H960 C966 0.930 . S
H961 C970 0.930 . S
H962 C975 0.929 1_655 S
H963 C973 0.929 1_455 S
H964 C968 0.929 . S
H965 C974 0.929 . S
C966 H960 0.930 . S
C966 C967 1.367 . S
C966 C974 1.378 . S
C967 C966 1.367 . S
C967 C975 1.433 . S
C968 H964 0.929 . S
C968 C970 1.378 . S
C968 C972 1.350 . S
C969 C972 1.463 1_445 S
C969 C974 1.350 . S
C969 N977 1.427 1_455 S
C970 H961 0.930 . S
C970 C968 1.378 . S
C970 C971 1.367 . S
C971 C970 1.367 . S
C971 C973 1.433 . S
C972 C968 1.350 . S
C972 C969 1.463 1_665 S
C972 N976 1.427 1_655 S
C973 H963 0.929 1_655 S
C973 C971 1.433 . S
C973 N976 1.384 1_655 S
C974 H965 0.929 . S
C974 C966 1.378 . S
C974 C969 1.350 . S
C975 H962 0.929 1_455 S
C975 C967 1.433 . S
C975 N977 1.384 1_455 S
N976 C972 1.427 1_455 S
N976 C973 1.384 1_455 S
N977 C969 1.427 1_655 S
N977 C975 1.384 1_655 S
H978 C984 0.930 . S
H979 C988 0.930 . S
H980 C993 0.929 . S
H981 C991 0.929 . S
H982 C986 0.929 . S
H983 C992 0.929 . S
C984 H978 0.930 . S
C984 C985 1.367 1_565 S
C984 C992 1.378 . S
C985 C984 1.367 1_545 S
C985 C993 1.433 . S
C986 H982 0.929 . S
C986 C988 1.378 . S
C986 C990 1.350 1_545 S
C987 C990 1.463 1_645 S
C987 C992 1.350 1_545 S
C987 N995 1.427 . S
C988 H979 0.930 . S
C988 C986 1.378 . S
C988 C989 1.367 1_545 S
C989 C988 1.367 1_565 S
C989 C991 1.433 . S
C990 C986 1.350 1_565 S
C990 C987 1.463 1_465 S
C990 N994 1.427 . S
C991 H981 0.929 . S
C991 C989 1.433 . S
C991 N994 1.384 . S
C992 H983 0.929 . S
C992 C984 1.378 . S
C992 C987 1.350 1_565 S
C993 H980 0.929 . S
C993 C985 1.433 . S
C993 N995 1.384 . S
N994 C990 1.427 . S
N994 C991 1.384 . S
N995 C987 1.427 . S
N995 C993 1.384 . S
H996 C1002 0.930 . S
H997 C1006 0.930 . S
H998 C1011 0.929 . S
H999 C1009 0.929 . S
H1000 C1004 0.929 . S
H1001 C1010 0.929 . S
C1002 H996 0.930 . S
C1002 C1003 1.367 . S
C1002 C1010 1.378 . S
C1003 C1002 1.367 . S
C1003 C1011 1.433 . S
C1004 H1000 0.929 . S
C1004 C1006 1.378 . S
C1004 C1008 1.350 . S
C1005 C1008 1.463 1_445 S
C1005 C1010 1.350 . S
C1005 N1013 1.427 . S
C1006 H997 0.930 . S
C1006 C1004 1.378 . S
C1006 C1007 1.367 . S
C1007 C1006 1.367 . S
C1007 C1009 1.433 . S
C1008 C1004 1.350 . S
C1008 C1005 1.463 1_665 S
C1008 N1012 1.427 . S
C1009 H999 0.929 . S
C1009 C1007 1.433 . S
C1009 N1012 1.384 . S
C1010 H1001 0.929 . S
C1010 C1002 1.378 . S
C1010 C1005 1.350 . S
C1011 H998 0.929 . S
C1011 C1003 1.433 . S
C1011 N1013 1.384 . S
N1012 C1008 1.427 . S
N1012 C1009 1.384 . S
N1013 C1005 1.427 . S
N1013 C1011 1.384 . S
H1014 C1020 0.930 1_545 S
H1015 C1024 0.930 1_565 S
H1016 C1029 0.929 . S
H1017 C1027 0.929 . S
H1018 C1022 0.929 . S
H1019 C1028 0.929 . S
C1020 H1014 0.930 1_565 S
C1020 C1021 1.367 . S
C1020 C1028 1.378 1_565 S
C1021 C1020 1.367 . S
C1021 C1029 1.433 . S
C1022 H1018 0.929 . S
C1022 C1024 1.378 1_565 S
C1022 C1026 1.350 1_565 S
C1023 C1026 1.463 1_665 S
C1023 C1028 1.350 1_565 S
C1023 N1031 1.427 . S
C1024 H1015 0.930 1_545 S
C1024 C1022 1.378 1_545 S
C1024 C1025 1.367 . S
C1025 C1024 1.367 . S
C1025 C1027 1.433 . S
C1026 C1022 1.350 1_545 S
C1026 C1023 1.463 1_445 S
C1026 N1030 1.427 . S
C1027 H1017 0.929 . S
C1027 C1025 1.433 . S
C1027 N1030 1.384 . S
C1028 H1019 0.929 . S
C1028 C1020 1.378 1_545 S
C1028 C1023 1.350 1_545 S
C1029 H1016 0.929 . S
C1029 C1021 1.433 . S
C1029 N1031 1.384 . S
N1030 C1026 1.427 . S
N1030 C1027 1.384 . S
N1031 C1023 1.427 . S
N1031 C1029 1.384 . S
H1032 C1038 0.930 . S
H1033 C1042 0.930 . S
H1034 C1047 0.929 . S
H1035 C1045 0.929 . S
H1036 C1040 0.929 . S
H1037 C1046 0.929 . S
C1038 H1032 0.930 . S
C1038 C1039 1.367 . S
C1038 C1046 1.378 . S
C1039 C1038 1.367 . S
C1039 C1047 1.433 . S
C1040 H1036 0.929 . S
C1040 C1042 1.378 . S
C1040 C1044 1.350 . S
C1041 C1044 1.463 1_665 S
C1041 C1046 1.350 . S
C1041 N1049 1.427 . S
C1042 H1033 0.930 . S
C1042 C1040 1.378 . S
C1042 C1043 1.367 . S
C1043 C1042 1.367 . S
C1043 C1045 1.433 . S
C1044 C1040 1.350 . S
C1044 C1041 1.463 1_445 S
C1044 N1048 1.427 . S
C1045 H1035 0.929 . S
C1045 C1043 1.433 . S
C1045 N1048 1.384 . S
C1046 H1037 0.929 . S
C1046 C1038 1.378 . S
C1046 C1041 1.350 . S
C1047 H1034 0.929 . S
C1047 C1039 1.433 . S
C1047 N1049 1.384 . S
N1048 C1044 1.427 . S
N1048 C1045 1.384 . S
N1049 C1041 1.427 . S
N1049 C1047 1.384 . S
H1050 C1056 0.930 . S
H1051 C1060 0.930 . S
H1052 C1065 0.929 . S
H1053 C1063 0.929 . S
H1054 C1058 0.929 1_565 S
H1055 C1064 0.929 1_545 S
C1056 H1050 0.930 . S
C1056 C1057 1.367 . S
C1056 C1064 1.378 . S
C1057 C1056 1.367 . S
C1057 C1065 1.433 1_455 S
C1058 H1054 0.929 1_545 S
C1058 C1060 1.378 . S
C1058 C1062 1.350 . S
C1059 C1062 1.463 1_465 S
C1059 C1064 1.350 . S
C1059 N1067 1.427 1_455 S
C1060 H1051 0.930 . S
C1060 C1058 1.378 . S
C1060 C1061 1.367 . S
C1061 C1060 1.367 . S
C1061 C1063 1.433 1_655 S
C1062 C1058 1.350 . S
C1062 C1059 1.463 1_645 S
C1062 N1066 1.427 1_655 S
C1063 H1053 0.929 . S
C1063 C1061 1.433 1_455 S
C1063 N1066 1.384 . S
C1064 H1055 0.929 1_565 S
C1064 C1056 1.378 . S
C1064 C1059 1.350 . S
C1065 H1052 0.929 . S
C1065 C1057 1.433 1_655 S
C1065 N1067 1.384 . S
N1066 C1062 1.427 1_455 S
N1066 C1063 1.384 . S
N1067 C1059 1.427 1_655 S
N1067 C1065 1.384 . S
C643 C622 1.834 . S
C647 C39 1.838 . S
C661 C92 1.842 . S
C665 C357 1.844 . S
C679 C145 1.840 . S
C683 C410 1.834 . S
C697 C198 1.843 . S
C701 C463 1.838 . S
C715 C516 1.839 . S
C719 C251 1.834 . S
C733 C304 1.834 . S
C737 C569 1.839 . S
C751 C38 1.829 . S
C755 C568 1.831 . S
C769 C91 1.826 . S
C773 C621 1.826 . S
C787 C144 1.826 . S
C791 C356 1.827 . S
C805 C197 1.831 . S
C809 C409 1.833 . S
C823 C462 1.834 . S
C827 C250 1.833 . S
C841 C515 1.826 . S
C845 C303 1.826 . S
C859 C181 1.537 . S
C863 C22 1.540 . S
C877 C75 1.537 . S
C881 C234 1.538 . S
C895 C287 1.541 . S
C899 C128 1.538 . S
C913 C499 1.538 . S
C917 C340 1.541 . S
C931 C552 1.538 . S
C935 C393 1.541 . S
C949 C446 1.541 . S
C953 C605 1.540 . S
C967 C29 1.588 . S
C971 C188 1.585 . S
C985 C82 1.583 . S
C989 C241 1.586 . S
C1003 C294 1.584 . S
C1007 C135 1.583 . S
C1021 C347 1.583 . S
C1025 C506 1.586 . S
C1039 C400 1.583 . S
C1043 C559 1.586 . S
C1057 C453 1.589 . S
C1061 C612 1.587 . S
