# Generated by pormake.
# Topology ukd, (4)-cn, num edge types: 1
# Building blocks:
#     Node 0, Type 0, BuildingBlock: KUFVIS_clean_sbu_0, # of connection points: 4
#     Node 1, Type 0, BuildingBlock: KUFVIS_clean_sbu_0, # of connection points: 4
#     Node 2, Type 0, BuildingBlock: KUFVIS_clean_sbu_0, # of connection points: 4
#     Node 3, Type 0, BuildingBlock: KUFVIS_clean_sbu_0, # of connection points: 4
#     Node 4, Type 0, BuildingBlock: KUFVIS_clean_sbu_0, # of connection points: 4
#     Node 5, Type 0, BuildingBlock: KUFVIS_clean_sbu_0, # of connection points: 4
#     Node 6, Type 0, BuildingBlock: KUFVIS_clean_sbu_0, # of connection points: 4
#     Node 7, Type 0, BuildingBlock: KUFVIS_clean_sbu_0, # of connection points: 4
#     Node 8, Type 0, BuildingBlock: KUFVIS_clean_sbu_0, # of connection points: 4
#     Node 9, Type 0, BuildingBlock: KUFVIS_clean_sbu_0, # of connection points: 4
#     Node 10, Type 0, BuildingBlock: KUFVIS_clean_sbu_0, # of connection points: 4
#     Node 11, Type 0, BuildingBlock: KUFVIS_clean_sbu_0, # of connection points: 4
#     Node 12, Type 0, BuildingBlock: KUFVIS_clean_sbu_0, # of connection points: 4
#     Node 13, Type 0, BuildingBlock: KUFVIS_clean_sbu_0, # of connection points: 4
#     Node 14, Type 0, BuildingBlock: KUFVIS_clean_sbu_0, # of connection points: 4
#     Node 15, Type 0, BuildingBlock: KUFVIS_clean_sbu_0, # of connection points: 4
#     Node 16, Type 0, BuildingBlock: KUFVIS_clean_sbu_0, # of connection points: 4
#     Node 17, Type 0, BuildingBlock: KUFVIS_clean_sbu_0, # of connection points: 4
#     Node 18, Type 0, BuildingBlock: KUFVIS_clean_sbu_0, # of connection points: 4
#     Node 19, Type 0, BuildingBlock: KUFVIS_clean_sbu_0, # of connection points: 4
#     Node 20, Type 0, BuildingBlock: KUFVIS_clean_sbu_0, # of connection points: 4
#     Node 21, Type 0, BuildingBlock: KUFVIS_clean_sbu_0, # of connection points: 4
#     Node 22, Type 0, BuildingBlock: KUFVIS_clean_sbu_0, # of connection points: 4
#     Node 23, Type 0, BuildingBlock: KUFVIS_clean_sbu_0, # of connection points: 4
#     Node 24, Type 0, BuildingBlock: KUFVIS_clean_sbu_0, # of connection points: 4
#     Node 25, Type 0, BuildingBlock: KUFVIS_clean_sbu_0, # of connection points: 4
#     Node 26, Type 0, BuildingBlock: KUFVIS_clean_sbu_0, # of connection points: 4
#     Node 27, Type 0, BuildingBlock: KUFVIS_clean_sbu_0, # of connection points: 4
#     Node 28, Type 0, BuildingBlock: KUFVIS_clean_sbu_0, # of connection points: 4
#     Node 29, Type 0, BuildingBlock: KUFVIS_clean_sbu_0, # of connection points: 4
#     Node 30, Type 0, BuildingBlock: KUFVIS_clean_sbu_0, # of connection points: 4
#     Node 31, Type 0, BuildingBlock: KUFVIS_clean_sbu_0, # of connection points: 4
#     Edge 32, Type (0, 0), BuildingBlock: TEMPAE_clean_linker_10, # of connection points: 2
#     Edge 33, Type (0, 0), BuildingBlock: TEMPAE_clean_linker_10, # of connection points: 2
#     Edge 34, Type (0, 0), BuildingBlock: TEMPAE_clean_linker_10, # of connection points: 2
#     Edge 35, Type (0, 0), BuildingBlock: TEMPAE_clean_linker_10, # of connection points: 2
#     Edge 36, Type (0, 0), BuildingBlock: TEMPAE_clean_linker_10, # of connection points: 2
#     Edge 37, Type (0, 0), BuildingBlock: TEMPAE_clean_linker_10, # of connection points: 2
#     Edge 38, Type (0, 0), BuildingBlock: TEMPAE_clean_linker_10, # of connection points: 2
#     Edge 39, Type (0, 0), BuildingBlock: TEMPAE_clean_linker_10, # of connection points: 2
#     Edge 40, Type (0, 0), BuildingBlock: TEMPAE_clean_linker_10, # of connection points: 2
#     Edge 41, Type (0, 0), BuildingBlock: TEMPAE_clean_linker_10, # of connection points: 2
#     Edge 42, Type (0, 0), BuildingBlock: TEMPAE_clean_linker_10, # of connection points: 2
#     Edge 43, Type (0, 0), BuildingBlock: TEMPAE_clean_linker_10, # of connection points: 2
#     Edge 44, Type (0, 0), BuildingBlock: TEMPAE_clean_linker_10, # of connection points: 2
#     Edge 45, Type (0, 0), BuildingBlock: TEMPAE_clean_linker_10, # of connection points: 2
#     Edge 46, Type (0, 0), BuildingBlock: TEMPAE_clean_linker_10, # of connection points: 2
#     Edge 47, Type (0, 0), BuildingBlock: TEMPAE_clean_linker_10, # of connection points: 2
#     Edge 48, Type (0, 0), BuildingBlock: TEMPAE_clean_linker_10, # of connection points: 2
#     Edge 49, Type (0, 0), BuildingBlock: TEMPAE_clean_linker_10, # of connection points: 2
#     Edge 50, Type (0, 0), BuildingBlock: TEMPAE_clean_linker_10, # of connection points: 2
#     Edge 51, Type (0, 0), BuildingBlock: TEMPAE_clean_linker_10, # of connection points: 2
#     Edge 52, Type (0, 0), BuildingBlock: TEMPAE_clean_linker_10, # of connection points: 2
#     Edge 53, Type (0, 0), BuildingBlock: TEMPAE_clean_linker_10, # of connection points: 2
#     Edge 54, Type (0, 0), BuildingBlock: TEMPAE_clean_linker_10, # of connection points: 2
#     Edge 55, Type (0, 0), BuildingBlock: TEMPAE_clean_linker_10, # of connection points: 2
#     Edge 56, Type (0, 0), BuildingBlock: TEMPAE_clean_linker_10, # of connection points: 2
#     Edge 57, Type (0, 0), BuildingBlock: TEMPAE_clean_linker_10, # of connection points: 2
#     Edge 58, Type (0, 0), BuildingBlock: TEMPAE_clean_linker_10, # of connection points: 2
#     Edge 59, Type (0, 0), BuildingBlock: TEMPAE_clean_linker_10, # of connection points: 2
#     Edge 60, Type (0, 0), BuildingBlock: TEMPAE_clean_linker_10, # of connection points: 2
#     Edge 61, Type (0, 0), BuildingBlock: TEMPAE_clean_linker_10, # of connection points: 2
#     Edge 62, Type (0, 0), BuildingBlock: TEMPAE_clean_linker_10, # of connection points: 2
#     Edge 63, Type (0, 0), BuildingBlock: TEMPAE_clean_linker_10, # of connection points: 2
#     Edge 64, Type (0, 0), BuildingBlock: TEMPAE_clean_linker_10, # of connection points: 2
#     Edge 65, Type (0, 0), BuildingBlock: TEMPAE_clean_linker_10, # of connection points: 2
#     Edge 66, Type (0, 0), BuildingBlock: TEMPAE_clean_linker_10, # of connection points: 2
#     Edge 67, Type (0, 0), BuildingBlock: TEMPAE_clean_linker_10, # of connection points: 2
#     Edge 68, Type (0, 0), BuildingBlock: TEMPAE_clean_linker_10, # of connection points: 2
#     Edge 69, Type (0, 0), BuildingBlock: TEMPAE_clean_linker_10, # of connection points: 2
#     Edge 70, Type (0, 0), BuildingBlock: TEMPAE_clean_linker_10, # of connection points: 2
#     Edge 71, Type (0, 0), BuildingBlock: TEMPAE_clean_linker_10, # of connection points: 2
#     Edge 72, Type (0, 0), BuildingBlock: TEMPAE_clean_linker_10, # of connection points: 2
#     Edge 73, Type (0, 0), BuildingBlock: TEMPAE_clean_linker_10, # of connection points: 2
#     Edge 74, Type (0, 0), BuildingBlock: TEMPAE_clean_linker_10, # of connection points: 2
#     Edge 75, Type (0, 0), BuildingBlock: TEMPAE_clean_linker_10, # of connection points: 2
#     Edge 76, Type (0, 0), BuildingBlock: TEMPAE_clean_linker_10, # of connection points: 2
#     Edge 77, Type (0, 0), BuildingBlock: TEMPAE_clean_linker_10, # of connection points: 2
#     Edge 78, Type (0, 0), BuildingBlock: TEMPAE_clean_linker_10, # of connection points: 2
#     Edge 79, Type (0, 0), BuildingBlock: TEMPAE_clean_linker_10, # of connection points: 2
#     Edge 80, Type (0, 0), BuildingBlock: TEMPAE_clean_linker_10, # of connection points: 2
#     Edge 81, Type (0, 0), BuildingBlock: TEMPAE_clean_linker_10, # of connection points: 2
#     Edge 82, Type (0, 0), BuildingBlock: TEMPAE_clean_linker_10, # of connection points: 2
#     Edge 83, Type (0, 0), BuildingBlock: TEMPAE_clean_linker_10, # of connection points: 2
#     Edge 84, Type (0, 0), BuildingBlock: TEMPAE_clean_linker_10, # of connection points: 2
#     Edge 85, Type (0, 0), BuildingBlock: TEMPAE_clean_linker_10, # of connection points: 2
#     Edge 86, Type (0, 0), BuildingBlock: TEMPAE_clean_linker_10, # of connection points: 2
#     Edge 87, Type (0, 0), BuildingBlock: TEMPAE_clean_linker_10, # of connection points: 2
#     Edge 88, Type (0, 0), BuildingBlock: TEMPAE_clean_linker_10, # of connection points: 2
#     Edge 89, Type (0, 0), BuildingBlock: TEMPAE_clean_linker_10, # of connection points: 2
#     Edge 90, Type (0, 0), BuildingBlock: TEMPAE_clean_linker_10, # of connection points: 2
#     Edge 91, Type (0, 0), BuildingBlock: TEMPAE_clean_linker_10, # of connection points: 2
#     Edge 92, Type (0, 0), BuildingBlock: TEMPAE_clean_linker_10, # of connection points: 2
#     Edge 93, Type (0, 0), BuildingBlock: TEMPAE_clean_linker_10, # of connection points: 2
#     Edge 94, Type (0, 0), BuildingBlock: TEMPAE_clean_linker_10, # of connection points: 2
#     Edge 95, Type (0, 0), BuildingBlock: TEMPAE_clean_linker_10, # of connection points: 2
# Relax obj value: 0.060
# Max RMSD: 0.102
# Mean RMSD: 0.100
data_MOF--net-ukd--node1-KUFVIS_clean_sbu_0--edge1-TEMPAE_clean_linker_10
_symmetry_space_group_name_H-M    P1
_symmetry_Int_Tables_number       1
_symmetry_cell_setting            triclinic
loop_
_symmetry_equiv_pos_as_xyz
'x, y, z'
_cell_length_a     45.146558
_cell_length_b     45.147209
_cell_length_c     73.55009
_cell_angle_alpha  89.995496
_cell_angle_beta   89.991245
_cell_angle_gamma 89.998351
loop_
_atom_site_label
_atom_site_type_symbol
_atom_site_fract_x
_atom_site_fract_y
_atom_site_fract_z
_atom_type_partial_charge
Mn0 Mn 0.20992 0.17834 0.34708 0.0
Mn1 Mn 0.14569 0.19149 0.32474 0.0
C2 C 0.16607 0.15816 0.35805 0.0
C3 C 0.25289 0.15051 0.35179 0.0
C4 C 0.17335 0.23538 0.35076 0.0
O5 O 0.22467 0.1947 0.32282 0.0
O6 O 0.18042 0.20188 0.30978 0.0
C7 C 0.15332 0.1454 0.2965 0.0
N8 N 0.13651 0.15834 0.30966 0.0
C9 C 0.09443 0.12823 0.30195 0.0
C10 C 0.11125 0.11454 0.28829 0.0
C11 C 0.14091 0.12299 0.28566 0.0
C12 C 0.10826 0.14985 0.31262 0.0
H13 H 0.17593 0.15231 0.29423 0.0
C14 C 0.20865 0.20319 0.30954 0.0
O15 O 0.25096 0.17785 0.35713 0.0
O16 O 0.2304 0.13983 0.34298 0.0
N17 N 0.10904 0.18336 0.33668 0.0
C18 C 0.09573 0.19931 0.3501 0.0
C19 C 0.06566 0.19457 0.35394 0.0
C20 C 0.04959 0.17335 0.34404 0.0
C21 C 0.06363 0.15743 0.33015 0.0
C22 C 0.0935 0.16353 0.3267 0.0
H23 H 0.10775 0.21612 0.35749 0.0
O24 O 0.18917 0.1611 0.36834 0.0
O25 O 0.16932 0.16612 0.34107 0.0
O26 O 0.19634 0.2201 0.35461 0.0
O27 O 0.15309 0.22646 0.33996 0.0
C28 C 0.04898 0.13627 0.3193 0.0
C29 C 0.06445 0.12147 0.30531 0.0
H30 H 0.10162 0.09755 0.27974 0.0
H31 H 0.15403 0.11255 0.27514 0.0
H32 H 0.05481 0.20741 0.36443 0.0
H33 H 0.02638 0.16978 0.34702 0.0
H34 H 0.02588 0.13108 0.32168 0.0
H35 H 0.05306 0.10502 0.2972 0.0
Mn36 Mn 0.07076 0.95918 0.59612 0.0
Mn37 Mn 0.05975 0.89793 0.57052 0.0
C38 C 0.09203 0.91443 0.60456 0.0
C39 C 0.09724 0.00222 0.60303 0.0
C40 C 0.01484 0.92032 0.59773 0.0
O41 O 0.05389 0.97681 0.57268 0.0
O42 O 0.0477 0.93416 0.55758 0.0
C43 C 0.1056 0.91257 0.54321 0.0
N44 N 0.09386 0.8932 0.55545 0.0
C45 C 0.12871 0.85545 0.54694 0.0
C46 C 0.1412 0.87495 0.53423 0.0
C47 C 0.12975 0.90374 0.53248 0.0
C48 C 0.10542 0.8659 0.55775 0.0
H49 H 0.0965 0.93453 0.54158 0.0
C50 C 0.04566 0.96228 0.55869 0.0
O51 O 0.07001 0.99868 0.6083 0.0
O52 O 0.1086 0.98129 0.59316 0.0
N53 N 0.06991 0.86015 0.58047 0.0
C54 C 0.05338 0.84312 0.59193 0.0
C55 C 0.06114 0.81337 0.59475 0.0
C56 C 0.08492 0.80098 0.5851 0.0
C57 C 0.10061 0.81843 0.57261 0.0
C58 C 0.09238 0.84818 0.57074 0.0
H59 H 0.03435 0.85217 0.59886 0.0
O60 O 0.08885 0.93566 0.61623 0.0
O61 O 0.08385 0.9202 0.58797 0.0
O62 O 0.02953 0.94319 0.60262 0.0
O63 O 0.02428 0.90151 0.58606 0.0
C64 C 0.12337 0.80716 0.56145 0.0
C65 C 0.13786 0.82582 0.54893 0.0
H66 H 0.1594 0.86796 0.52563 0.0
H67 H 0.13922 0.91891 0.52268 0.0
H68 H 0.04844 0.79985 0.60407 0.0
H69 H 0.09045 0.77786 0.58705 0.0
H70 H 0.12996 0.78415 0.56242 0.0
H71 H 0.15554 0.81696 0.54058 0.0
Mn72 Mn 0.29434 0.82485 0.84392 0.0
Mn73 Mn 0.35699 0.81469 0.81951 0.0
C74 C 0.33834 0.84659 0.85324 0.0
C75 C 0.25072 0.85062 0.8504 0.0
C76 C 0.33419 0.76961 0.84636 0.0
O77 O 0.27797 0.80801 0.82013 0.0
O78 O 0.32159 0.80136 0.80623 0.0
C79 C 0.34199 0.85963 0.79172 0.0
N80 N 0.36127 0.84865 0.80427 0.0
C81 C 0.39814 0.88468 0.79614 0.0
C82 C 0.37872 0.89639 0.78311 0.0
C83 C 0.35041 0.88396 0.78101 0.0
C84 C 0.38808 0.86115 0.8069 0.0
H85 H 0.32041 0.84981 0.78983 0.0
C86 C 0.29345 0.79911 0.80669 0.0
O87 O 0.2544 0.82333 0.85549 0.0
O88 O 0.27181 0.86243 0.84084 0.0
N89 N 0.39418 0.82602 0.82981 0.0
C90 C 0.41146 0.80991 0.84135 0.0
C91 C 0.4409 0.81855 0.84446 0.0
C92 C 0.45277 0.84279 0.83499 0.0
C93 C 0.43518 0.85795 0.82234 0.0
C94 C 0.40575 0.8488 0.82017 0.0
H95 H 0.40285 0.79053 0.84813 0.0
O96 O 0.31661 0.84297 0.86451 0.0
O97 O 0.33352 0.83856 0.83651 0.0
O98 O 0.31062 0.78378 0.85051 0.0
O99 O 0.35374 0.77945 0.83529 0.0
C100 C 0.44606 0.88105 0.8113 0.0
C101 C 0.42736 0.89484 0.7985 0.0
H102 H 0.38541 0.91473 0.77455 0.0
H103 H 0.3353 0.89283 0.77097 0.0
H104 H 0.45458 0.8062 0.85386 0.0
H105 H 0.47565 0.84905 0.83719 0.0
H106 H 0.46881 0.88839 0.81254 0.0
H107 H 0.43592 0.91275 0.79022 0.0
Mn108 Mn 0.42725 0.04 0.09681 0.0
Mn109 Mn 0.43745 0.10511 0.07481 0.0
C110 C 0.40549 0.08278 0.10819 0.0
C111 C 0.40127 0.99591 0.10156 0.0
C112 C 0.48296 0.07864 0.10027 0.0
O113 O 0.44351 0.02635 0.07229 0.0
O114 O 0.4486 0.07108 0.05949 0.0
C115 C 0.39101 0.09655 0.0469 0.0
N116 N 0.40368 0.11349 0.06009 0.0
C117 C 0.37232 0.15486 0.0528 0.0
C118 C 0.35888 0.1379 0.03912 0.0
C119 C 0.36809 0.10852 0.03627 0.0
C120 C 0.39445 0.14145 0.06327 0.0
H121 H 0.39851 0.07419 0.04443 0.0
C122 C 0.4509 0.04293 0.05902 0.0
O123 O 0.42866 0.99883 0.10662 0.0
O124 O 0.3895 0.01807 0.09295 0.0
N125 N 0.42835 0.1412 0.08713 0.0
C126 C 0.44419 0.15474 0.10052 0.0
C127 C 0.4387 0.18461 0.10456 0.0
C128 C 0.41685 0.20023 0.09491 0.0
C129 C 0.40107 0.18597 0.08105 0.0
C130 C 0.40793 0.15634 0.07738 0.0
H131 H 0.46149 0.14309 0.10771 0.0
O132 O 0.4097 0.0597 0.11833 0.0
O133 O 0.41329 0.08017 0.09115 0.0
O134 O 0.4686 0.05507 0.1041 0.0
O135 O 0.47308 0.09868 0.08964 0.0
C136 C 0.37937 0.20022 0.0704 0.0
C137 C 0.36481 0.1846 0.05639 0.0
H138 H 0.3415 0.1472 0.03072 0.0
H139 H 0.35786 0.0953 0.02573 0.0
H140 H 0.45143 0.19565 0.11502 0.0
H141 H 0.41269 0.22328 0.09807 0.0
H142 H 0.37359 0.22314 0.07294 0.0
H143 H 0.34794 0.19567 0.04843 0.0
Mn144 Mn 0.2113 0.82081 0.15445 0.0
Mn145 Mn 0.14713 0.80897 0.17716 0.0
C146 C 0.16769 0.84179 0.14368 0.0
C147 C 0.25481 0.84759 0.14932 0.0
C148 C 0.17361 0.76442 0.15112 0.0
O149 O 0.2261 0.80445 0.17868 0.0
O150 O 0.1819 0.79799 0.19192 0.0
C151 C 0.15605 0.855 0.20529 0.0
N152 N 0.1388 0.84232 0.19226 0.0
C153 C 0.09734 0.87308 0.20026 0.0
C154 C 0.11462 0.88652 0.2138 0.0
C155 C 0.14419 0.8776 0.21621 0.0
C156 C 0.11063 0.85126 0.1895 0.0
H157 H 0.17859 0.84773 0.20741 0.0
C158 C 0.2101 0.79625 0.19204 0.0
O159 O 0.25216 0.82023 0.14415 0.0
O160 O 0.2327 0.85891 0.15821 0.0
N161 N 0.11044 0.81773 0.16544 0.0
C162 C 0.09662 0.80194 0.15214 0.0
C163 C 0.06655 0.80712 0.14854 0.0
C164 C 0.05102 0.82863 0.15852 0.0
C165 C 0.06557 0.84436 0.17229 0.0
C166 C 0.0954 0.83781 0.17552 0.0
H167 H 0.10823 0.78491 0.14469 0.0
O168 O 0.19054 0.83824 0.13326 0.0
O169 O 0.17102 0.83388 0.16066 0.0
O170 O 0.19683 0.77926 0.14716 0.0
O171 O 0.15361 0.77378 0.16196 0.0
C172 C 0.05145 0.86574 0.18324 0.0
C173 C 0.0674 0.8803 0.19712 0.0
H174 H 0.10541 0.90365 0.22242 0.0
H175 H 0.15767 0.88783 0.22664 0.0
H176 H 0.0553 0.7944 0.13816 0.0
H177 H 0.0278 0.83255 0.1557 0.0
H178 H 0.02838 0.87127 0.18104 0.0
H179 H 0.05642 0.89692 0.20532 0.0
Mn180 Mn 0.43024 0.95926 0.4029 0.0
Mn181 Mn 0.44519 0.89741 0.42717 0.0
C182 C 0.41193 0.91376 0.39311 0.0
C183 C 0.40127 0.00109 0.39704 0.0
C184 C 0.48944 0.92665 0.40181 0.0
O185 O 0.44539 0.97588 0.42705 0.0
O186 O 0.45017 0.93305 0.44232 0.0
C187 C 0.39529 0.90015 0.45324 0.0
N188 N 0.41142 0.88489 0.44073 0.0
C189 C 0.38559 0.83963 0.44747 0.0
C190 C 0.36856 0.85484 0.46041 0.0
C191 C 0.37327 0.8853 0.4632 0.0
C192 C 0.40654 0.85582 0.4376 0.0
H193 H 0.39943 0.92339 0.45568 0.0
C194 C 0.45133 0.96128 0.44147 0.0
O195 O 0.42874 0.99957 0.39194 0.0
O196 O 0.39094 0.97874 0.40617 0.0
N197 N 0.44201 0.8604 0.41481 0.0
C198 C 0.46023 0.84919 0.40175 0.0
C199 C 0.45976 0.81872 0.39806 0.0
C200 C 0.44072 0.8001 0.40791 0.0
C201 C 0.42137 0.81226 0.42082 0.0
C202 C 0.42323 0.84269 0.42414 0.0
H203 H 0.47571 0.86323 0.39462 0.0
O204 O 0.41412 0.93606 0.38209 0.0
O205 O 0.41967 0.91879 0.4099 0.0
O206 O 0.47254 0.94716 0.39596 0.0
O207 O 0.48137 0.90777 0.41372 0.0
C208 C 0.40094 0.79529 0.43089 0.0
C209 C 0.38277 0.80904 0.44404 0.0
H210 H 0.35188 0.84336 0.46831 0.0
H211 H 0.36028 0.89717 0.47319 0.0
H212 H 0.47452 0.80949 0.38794 0.0
H213 H 0.44112 0.77647 0.40542 0.0
H214 H 0.39891 0.77168 0.42856 0.0
H215 H 0.36689 0.79584 0.45154 0.0
Mn216 Mn 0.28758 0.17719 0.65545 0.0
Mn217 Mn 0.35263 0.18956 0.67707 0.0
C218 C 0.33081 0.15614 0.64414 0.0
C219 C 0.24394 0.15022 0.65114 0.0
C220 C 0.32503 0.23357 0.65113 0.0
O221 O 0.27372 0.19395 0.67981 0.0
O222 O 0.31846 0.20083 0.69225 0.0
C223 C 0.34484 0.14406 0.70565 0.0
N224 N 0.36158 0.15651 0.69228 0.0
C225 C 0.40337 0.12594 0.6999 0.0
C226 C 0.38662 0.11274 0.71377 0.0
C227 C 0.35714 0.12167 0.71655 0.0
C228 C 0.38964 0.14754 0.68917 0.0
H229 H 0.32239 0.15135 0.70804 0.0
C230 C 0.29027 0.20254 0.69282 0.0
O231 O 0.24631 0.17752 0.64579 0.0
O232 O 0.26642 0.13909 0.65976 0.0
N233 N 0.38888 0.18062 0.66488 0.0
C234 C 0.40219 0.19623 0.65131 0.0
C235 C 0.43214 0.19106 0.64733 0.0
C236 C 0.44807 0.16974 0.65723 0.0
C237 C 0.43405 0.1542 0.67128 0.0
C238 C 0.40432 0.16075 0.67489 0.0
H239 H 0.39029 0.21314 0.64392 0.0
O240 O 0.30753 0.15945 0.63405 0.0
O241 O 0.32814 0.16432 0.66111 0.0
O242 O 0.30165 0.21865 0.64766 0.0
O243 O 0.3455 0.22441 0.6617 0.0
C244 C 0.44861 0.13305 0.68219 0.0
C245 C 0.4332 0.11871 0.69638 0.0
H246 H 0.39618 0.09578 0.72238 0.0
H247 H 0.34408 0.11162 0.72724 0.0
H248 H 0.443 0.20365 0.63673 0.0
H249 H 0.47119 0.16581 0.65411 0.0
H250 H 0.47161 0.12752 0.6797 0.0
H251 H 0.44451 0.10225 0.70454 0.0
Mn252 Mn 0.07594 0.03879 0.90586 0.0
Mn253 Mn 0.06332 0.10291 0.92846 0.0
C254 C 0.09678 0.08253 0.89517 0.0
C255 C 0.10296 0.99541 0.90083 0.0
C256 C 0.01939 0.07611 0.90216 0.0
O257 O 0.05928 0.02393 0.93002 0.0
O258 O 0.0523 0.0681 0.94321 0.0
C259 C 0.10898 0.09433 0.95685 0.0
N260 N 0.0964 0.11147 0.94373 0.0
C261 C 0.12692 0.15309 0.95179 0.0
C262 C 0.14025 0.13592 0.96542 0.0
C263 C 0.13141 0.10633 0.96786 0.0
C264 C 0.10527 0.13966 0.94095 0.0
H265 H 0.10178 0.07178 0.95898 0.0
C266 C 0.05076 0.03988 0.94333 0.0
O267 O 0.07563 0.99795 0.89558 0.0
O268 O 0.11411 0.01754 0.90978 0.0
N269 N 0.07205 0.13961 0.91674 0.0
C270 C 0.05641 0.1533 0.90332 0.0
C271 C 0.06154 0.18336 0.89967 0.0
C272 C 0.08284 0.19903 0.90973 0.0
C273 C 0.09843 0.18462 0.92361 0.0
C274 C 0.09193 0.15478 0.92689 0.0
H275 H 0.03954 0.14158 0.89579 0.0
O276 O 0.09354 0.05963 0.88475 0.0
O277 O 0.08866 0.07917 0.91211 0.0
O278 O 0.03445 0.05299 0.89834 0.0
O279 O 0.0284 0.0962 0.91305 0.0
C280 C 0.11963 0.19887 0.93464 0.0
C281 C 0.13407 0.18303 0.94861 0.0
H282 H 0.15725 0.14524 0.97409 0.0
H283 H 0.14157 0.09295 0.97835 0.0
H284 H 0.04894 0.19451 0.88919 0.0
H285 H 0.08673 0.22224 0.90688 0.0
H286 H 0.12512 0.22194 0.93241 0.0
H287 H 0.15056 0.19412 0.95686 0.0
Mn288 Mn 0.79129 0.818 0.65915 0.0
Mn289 Mn 0.7981 0.87941 0.68472 0.0
C290 C 0.82178 0.85589 0.64968 0.0
C291 C 0.80674 0.77012 0.65271 0.0
C292 C 0.745 0.86725 0.66037 0.0
O293 O 0.77529 0.8052 0.68355 0.0
O294 O 0.78343 0.84616 0.70029 0.0
C295 C 0.84647 0.85976 0.70912 0.0
N296 N 0.83574 0.87933 0.69665 0.0
C297 C 0.88074 0.90787 0.69763 0.0
C298 C 0.89217 0.88815 0.71057 0.0
C299 C 0.87498 0.86396 0.71631 0.0
C300 C 0.85213 0.90265 0.69101 0.0
H301 H 0.83344 0.84103 0.71351 0.0
C302 C 0.77545 0.81899 0.69866 0.0
O303 O 0.78035 0.77899 0.6482 0.0
O304 O 0.82362 0.78881 0.66113 0.0
N305 N 0.81291 0.91277 0.67142 0.0
C306 C 0.79962 0.92843 0.65784 0.0
C307 C 0.81442 0.95269 0.65008 0.0
C308 C 0.84265 0.96069 0.65642 0.0
C309 C 0.85585 0.94431 0.67043 0.0
C310 C 0.84001 0.92041 0.67769 0.0
H311 H 0.77803 0.9223 0.65281 0.0
O312 O 0.81176 0.8367 0.63807 0.0
O313 O 0.81374 0.85208 0.66649 0.0
O314 O 0.75415 0.84259 0.65402 0.0
O315 O 0.75916 0.88202 0.6724 0.0
C316 C 0.88433 0.95046 0.67727 0.0
C317 C 0.89683 0.93218 0.69079 0.0
H318 H 0.91422 0.8912 0.71607 0.0
H319 H 0.88371 0.84854 0.72622 0.0
H320 H 0.80414 0.96512 0.6392 0.0
H321 H 0.85409 0.97929 0.65031 0.0
H322 H 0.89694 0.96903 0.67209 0.0
H323 H 0.91897 0.93682 0.6957 0.0
Mn324 Mn 0.93056 0.04984 0.41149 0.0
Mn325 Mn 0.86869 0.05538 0.43686 0.0
C326 C 0.89183 0.07895 0.40171 0.0
C327 C 0.97816 0.06612 0.40489 0.0
C328 C 0.88245 0.00223 0.4129 0.0
O329 O 0.94372 0.03506 0.43609 0.0
O330 O 0.90213 0.04157 0.45258 0.0
C331 C 0.88714 0.10445 0.46108 0.0
N332 N 0.86788 0.09316 0.44861 0.0
C333 C 0.83861 0.13771 0.44916 0.0
C334 C 0.858 0.1497 0.4621 0.0
C335 C 0.88239 0.13301 0.46805 0.0
C336 C 0.84434 0.10904 0.44278 0.0
H337 H 0.90606 0.09183 0.46562 0.0
C338 C 0.92963 0.03475 0.45109 0.0
O339 O 0.9698 0.03944 0.4007 0.0
O340 O 0.95906 0.08295 0.41304 0.0
N341 N 0.8351 0.06932 0.42342 0.0
C342 C 0.81979 0.05552 0.40988 0.0
C343 C 0.79538 0.06978 0.40192 0.0
C344 C 0.7869 0.09802 0.40799 0.0
C345 C 0.8029 0.11175 0.42198 0.0
C346 C 0.82692 0.09638 0.42948 0.0
H347 H 0.82635 0.03396 0.40501 0.0
O348 O 0.91132 0.06918 0.39019 0.0
O349 O 0.89581 0.07146 0.4186 0.0
O350 O 0.90705 0.01186 0.40673 0.0
O351 O 0.86703 0.01627 0.42468 0.0
C352 C 0.79631 0.14032 0.42852 0.0
C353 C 0.8142 0.15333 0.44205 0.0
H354 H 0.85455 0.17181 0.46741 0.0
H355 H 0.89757 0.14218 0.47795 0.0
H356 H 0.78325 0.0591 0.39106 0.0
H357 H 0.76823 0.10908 0.4017 0.0
H358 H 0.77772 0.15261 0.42308 0.0
H359 H 0.80921 0.17552 0.44674 0.0
Mn360 Mn 0.70829 0.18403 0.15807 0.0
Mn361 Mn 0.69949 0.12548 0.186 0.0
C362 C 0.67522 0.14707 0.15062 0.0
C363 C 0.69662 0.23206 0.14966 0.0
C364 C 0.75181 0.13234 0.16031 0.0
O365 O 0.72639 0.19823 0.18167 0.0
O366 O 0.71651 0.15942 0.19996 0.0
C367 C 0.65336 0.14997 0.21039 0.0
N368 N 0.66254 0.12863 0.19857 0.0
C369 C 0.61649 0.10226 0.20166 0.0
C370 C 0.60664 0.12384 0.21396 0.0
C371 C 0.62514 0.14783 0.21831 0.0
C372 C 0.64488 0.1055 0.19425 0.0
H373 H 0.66742 0.16854 0.21372 0.0
C374 C 0.72593 0.18587 0.19725 0.0
O375 O 0.72165 0.22015 0.14501 0.0
O376 O 0.67849 0.21631 0.15933 0.0
N377 N 0.68246 0.09158 0.17433 0.0
C378 C 0.69438 0.07379 0.16127 0.0
C379 C 0.67823 0.04929 0.15495 0.0
C380 C 0.65008 0.04324 0.16217 0.0
C381 C 0.63831 0.06179 0.17564 0.0
C382 C 0.65548 0.0858 0.18148 0.0
H383 H 0.7159 0.07838 0.15556 0.0
O384 O 0.68556 0.16461 0.13816 0.0
O385 O 0.68417 0.15204 0.16714 0.0
O386 O 0.74338 0.15665 0.15321 0.0
O387 O 0.73771 0.11952 0.17318 0.0
C388 C 0.61001 0.05766 0.18329 0.0
C389 C 0.59904 0.07794 0.19623 0.0
H390 H 0.58482 0.12235 0.22002 0.0
H391 H 0.61763 0.16467 0.22771 0.0
H392 H 0.68741 0.03517 0.14448 0.0
H393 H 0.63762 0.02442 0.15718 0.0
H394 H 0.59636 0.0391 0.17919 0.0
H395 H 0.57704 0.07481 0.20177 0.0
Mn396 Mn 0.56745 0.95771 0.9104 0.0
Mn397 Mn 0.62658 0.9488 0.93787 0.0
C398 C 0.604 0.9244 0.90274 0.0
C399 C 0.51913 0.94649 0.90241 0.0
C400 C 0.61944 0.00092 0.91208 0.0
O401 O 0.55392 0.97611 0.93403 0.0
O402 O 0.5931 0.9662 0.95204 0.0
C403 C 0.60228 0.90307 0.9626 0.0
N404 N 0.62343 0.91198 0.95058 0.0
C405 C 0.64949 0.86574 0.95358 0.0
C406 C 0.62811 0.85616 0.96609 0.0
C407 C 0.60436 0.87489 0.97058 0.0
C408 C 0.64633 0.8941 0.94612 0.0
H409 H 0.5839 0.9173 0.96605 0.0
C410 C 0.56664 0.97574 0.9495 0.0
O411 O 0.53125 0.97133 0.89759 0.0
O412 O 0.53486 0.92825 0.91204 0.0
N413 N 0.66011 0.93142 0.92598 0.0
C414 C 0.67776 0.94312 0.91277 0.0
C415 C 0.70201 0.92674 0.90631 0.0
C416 C 0.70798 0.89859 0.91355 0.0
C417 C 0.68959 0.88704 0.92718 0.0
C418 C 0.66584 0.90445 0.93316 0.0
H419 H 0.67322 0.96464 0.90705 0.0
O420 O 0.58621 0.93471 0.89041 0.0
O421 O 0.59947 0.93347 0.91929 0.0
O422 O 0.59495 0.99253 0.90521 0.0
O423 O 0.63251 0.98685 0.92486 0.0
C424 C 0.69364 0.85875 0.93486 0.0
C425 C 0.67354 0.84805 0.94799 0.0
H426 H 0.62955 0.83438 0.9722 0.0
H427 H 0.58767 0.86759 0.98015 0.0
H428 H 0.71601 0.93575 0.89572 0.0
H429 H 0.72661 0.88596 0.90845 0.0
H430 H 0.71198 0.84491 0.93063 0.0
H431 H 0.67661 0.82605 0.95356 0.0
Mn432 Mn 0.7991 0.18092 0.84006 0.0
Mn433 Mn 0.80454 0.12004 0.81381 0.0
C434 C 0.82939 0.14253 0.84883 0.0
C435 C 0.81473 0.22869 0.84671 0.0
C436 C 0.75262 0.13176 0.83914 0.0
O437 O 0.78237 0.19442 0.81602 0.0
O438 O 0.78926 0.15373 0.79882 0.0
C439 C 0.852 0.14038 0.78895 0.0
N440 N 0.84172 0.12043 0.80134 0.0
C441 C 0.8868 0.09213 0.79957 0.0
C442 C 0.89777 0.11224 0.7867 0.0
C443 C 0.8803 0.13649 0.7814 0.0
C444 C 0.85835 0.09702 0.80655 0.0
H445 H 0.83878 0.15919 0.78492 0.0
C446 C 0.78164 0.18093 0.80083 0.0
O447 O 0.78851 0.21966 0.85146 0.0
O448 O 0.83145 0.21017 0.838 0.0
N449 N 0.81977 0.0862 0.82647 0.0
C450 C 0.80682 0.06995 0.83992 0.0
C451 C 0.82189 0.04546 0.8472 0.0
C452 C 0.85004 0.03786 0.84054 0.0
C453 C 0.86284 0.05478 0.82663 0.0
C454 C 0.84669 0.07883 0.8198 0.0
H455 H 0.78532 0.07577 0.84521 0.0
O456 O 0.82006 0.16163 0.86072 0.0
O457 O 0.82101 0.14682 0.83213 0.0
O458 O 0.76207 0.15633 0.84545 0.0
O459 O 0.76616 0.11719 0.82674 0.0
C460 C 0.89122 0.04906 0.81949 0.0
C461 C 0.90324 0.06776 0.80602 0.0
H462 H 0.91967 0.10944 0.78094 0.0
H463 H 0.88868 0.15222 0.77155 0.0
H464 H 0.81191 0.03259 0.85799 0.0
H465 H 0.86171 0.01912 0.84631 0.0
H466 H 0.90413 0.0305 0.82442 0.0
H467 H 0.92529 0.06341 0.80087 0.0
Mn468 Mn 0.56502 0.04625 0.5899 0.0
Mn469 Mn 0.62611 0.05179 0.56381 0.0
C470 C 0.60396 0.0755 0.59917 0.0
C471 C 0.51753 0.06251 0.59684 0.0
C472 C 0.61327 0.99883 0.58811 0.0
O473 O 0.55122 0.03117 0.56552 0.0
O474 O 0.59223 0.03786 0.54852 0.0
C475 C 0.60686 0.10075 0.53974 0.0
N476 N 0.62652 0.08951 0.55198 0.0
C477 C 0.65583 0.13401 0.55095 0.0
C478 C 0.63602 0.14595 0.53823 0.0
C479 C 0.6114 0.12925 0.53264 0.0
C480 C 0.65028 0.1054 0.55747 0.0
H481 H 0.58778 0.08811 0.53548 0.0
C482 C 0.56484 0.03088 0.55036 0.0
O483 O 0.52606 0.0359 0.60112 0.0
O484 O 0.53641 0.07927 0.58846 0.0
N485 N 0.66012 0.06579 0.57681 0.0
C486 C 0.67592 0.05201 0.59015 0.0
C487 C 0.70064 0.06627 0.59774 0.0
C488 C 0.70894 0.09447 0.5915 0.0
C489 C 0.69245 0.10815 0.57771 0.0
C490 C 0.66812 0.0928 0.57058 0.0
H491 H 0.66955 0.03045 0.59513 0.0
O492 O 0.58477 0.06587 0.61092 0.0
O493 O 0.59952 0.06788 0.58235 0.0
O494 O 0.58886 0.00842 0.59458 0.0
O495 O 0.62817 0.01277 0.57604 0.0
C496 C 0.69887 0.13666 0.571 0.0
C497 C 0.68053 0.14962 0.55768 0.0
H498 H 0.63932 0.16801 0.53282 0.0
H499 H 0.5959 0.13839 0.52291 0.0
H500 H 0.71317 0.05561 0.60844 0.0
H501 H 0.72786 0.10551 0.59751 0.0
H502 H 0.7177 0.14893 0.57614 0.0
H503 H 0.6854 0.17177 0.55286 0.0
Mn504 Mn 0.70825 0.81951 0.34174 0.0
Mn505 Mn 0.70413 0.87953 0.31467 0.0
C506 C 0.67965 0.8594 0.35024 0.0
C507 C 0.69057 0.77283 0.34943 0.0
C508 C 0.75638 0.86705 0.33963 0.0
O509 O 0.72366 0.80436 0.31769 0.0
O510 O 0.71801 0.8448 0.3001 0.0
C511 C 0.65545 0.85957 0.29061 0.0
N512 N 0.66663 0.87971 0.30258 0.0
C513 C 0.62213 0.90897 0.30102 0.0
C514 C 0.61027 0.88866 0.28858 0.0
C515 C 0.62699 0.86384 0.28337 0.0
C516 C 0.65071 0.90368 0.30768 0.0
H517 H 0.66809 0.8403 0.28667 0.0
C518 C 0.72463 0.81739 0.30234 0.0
O519 O 0.71738 0.78074 0.35369 0.0
O520 O 0.67457 0.7917 0.34052 0.0
N521 N 0.69021 0.9143 0.32694 0.0
C522 C 0.70399 0.93074 0.33999 0.0
C523 C 0.68975 0.95586 0.3471 0.0
C524 C 0.66156 0.96386 0.34071 0.0
C525 C 0.64789 0.94673 0.32721 0.0
C526 C 0.66325 0.92207 0.32052 0.0
H527 H 0.72551 0.92458 0.34511 0.0
O528 O 0.68868 0.84051 0.36233 0.0
O529 O 0.6874 0.85407 0.33354 0.0
O530 O 0.74643 0.84291 0.34631 0.0
O531 O 0.74286 0.88168 0.32724 0.0
C532 C 0.61939 0.95283 0.32039 0.0
C533 C 0.60647 0.93392 0.30735 0.0
H534 H 0.58823 0.89175 0.28307 0.0
H535 H 0.61791 0.84796 0.27387 0.0
H536 H 0.7004 0.96888 0.35757 0.0
H537 H 0.65051 0.98306 0.34637 0.0
H538 H 0.60707 0.97184 0.32523 0.0
H539 H 0.58434 0.93858 0.30244 0.0
Mn540 Mn 0.9324 0.95062 0.09034 0.0
Mn541 Mn 0.87203 0.94493 0.06367 0.0
C542 C 0.89388 0.92026 0.09889 0.0
C543 C 0.98004 0.93498 0.09737 0.0
C544 C 0.88313 0.99701 0.089 0.0
O545 O 0.94637 0.96724 0.06635 0.0
O546 O 0.90596 0.96033 0.04892 0.0
C547 C 0.89307 0.89753 0.039 0.0
N548 N 0.87283 0.90775 0.05123 0.0
C549 C 0.84478 0.86252 0.0493 0.0
C550 C 0.86519 0.85163 0.03659 0.0
C551 C 0.88946 0.8692 0.03144 0.0
C552 C 0.84939 0.89101 0.05628 0.0
H553 H 0.91189 0.91083 0.03509 0.0
C554 C 0.93312 0.96796 0.05108 0.0
O555 O 0.97095 0.96123 0.10201 0.0
O556 O 0.96168 0.91826 0.08855 0.0
N557 N 0.83801 0.92959 0.07608 0.0
C558 C 0.82144 0.94247 0.08941 0.0
C559 C 0.79689 0.9273 0.09653 0.0
C560 C 0.78954 0.89911 0.08984 0.0
C561 C 0.8068 0.88636 0.07606 0.0
C562 C 0.83089 0.90262 0.06939 0.0
H563 H 0.82707 0.96401 0.09473 0.0
O564 O 0.91273 0.92971 0.11089 0.0
O565 O 0.89848 0.92859 0.08221 0.0
O566 O 0.90764 0.98768 0.09547 0.0
O567 O 0.86878 0.98332 0.07656 0.0
C568 C 0.80135 0.85793 0.06891 0.0
C569 C 0.82037 0.84598 0.05559 0.0
H570 H 0.86262 0.8297 0.03083 0.0
H571 H 0.90542 0.86087 0.02172 0.0
H572 H 0.78376 0.93723 0.10722 0.0
H573 H 0.77076 0.88735 0.09549 0.0
H574 H 0.78278 0.84494 0.07372 0.0
H575 H 0.81623 0.8239 0.05043 0.0
Mn576 Mn 0.71046 0.67815 0.84583 0.0
Mn577 Mn 0.64547 0.6894 0.82393 0.0
C578 C 0.6676 0.65602 0.85683 0.0
C579 C 0.7545 0.65199 0.85036 0.0
C580 C 0.67153 0.73351 0.85036 0.0
O581 O 0.72435 0.69557 0.82166 0.0
O582 O 0.67964 0.7019 0.8091 0.0
C583 C 0.65511 0.64466 0.79511 0.0
N584 N 0.63774 0.65642 0.80841 0.0
C585 C 0.59701 0.62477 0.80029 0.0
C586 C 0.61442 0.61227 0.78648 0.0
C587 C 0.64369 0.6221 0.78398 0.0
C588 C 0.60989 0.64658 0.81125 0.0
H589 H 0.67739 0.65261 0.79294 0.0
C590 C 0.70778 0.7042 0.80867 0.0
O591 O 0.75153 0.67918 0.85579 0.0
O592 O 0.73246 0.64058 0.84145 0.0
N593 N 0.6092 0.67929 0.83573 0.0
C594 C 0.59508 0.69446 0.84919 0.0
C595 C 0.56517 0.68849 0.85282 0.0
C596 C 0.5501 0.66679 0.84274 0.0
C597 C 0.5649 0.65178 0.82876 0.0
C598 C 0.59453 0.65916 0.82548 0.0
H599 H 0.6063 0.71163 0.85673 0.0
O600 O 0.69069 0.65972 0.86702 0.0
O601 O 0.67027 0.66445 0.8399 0.0
O602 O 0.69528 0.71915 0.85376 0.0
O603 O 0.65139 0.72407 0.83964 0.0
C604 C 0.55119 0.63038 0.81763 0.0
C605 C 0.56733 0.61665 0.80352 0.0
H606 H 0.60554 0.59518 0.7777 0.0
H607 H 0.65726 0.61259 0.77335 0.0
H608 H 0.55367 0.70078 0.8633 0.0
H609 H 0.52702 0.6622 0.84562 0.0
H610 H 0.52829 0.6242 0.81987 0.0
H611 H 0.55667 0.60001 0.79518 0.0
Mn612 Mn 0.57146 0.45755 0.09559 0.0
Mn613 Mn 0.55943 0.39681 0.06971 0.0
C614 C 0.59243 0.41239 0.10359 0.0
C615 C 0.5985 0.50019 0.10268 0.0
C616 C 0.51494 0.41974 0.09708 0.0
O617 O 0.55455 0.47567 0.07227 0.0
O618 O 0.54844 0.43334 0.05676 0.0
C619 C 0.60577 0.41009 0.04246 0.0
N620 N 0.59345 0.39111 0.0547 0.0
C621 C 0.62693 0.3522 0.04609 0.0
C622 C 0.64002 0.37129 0.03337 0.0
C623 C 0.62956 0.40047 0.03167 0.0
C624 C 0.60408 0.36342 0.05696 0.0
H625 H 0.59737 0.43234 0.04085 0.0
C626 C 0.54661 0.46146 0.05808 0.0
O627 O 0.57129 0.49684 0.10802 0.0
O628 O 0.60954 0.47932 0.09261 0.0
N629 N 0.56858 0.35887 0.07978 0.0
C630 C 0.5518 0.34251 0.09147 0.0
C631 C 0.55859 0.31253 0.09429 0.0
C632 C 0.58166 0.29927 0.08444 0.0
C633 C 0.59779 0.31614 0.07186 0.0
C634 C 0.59053 0.34614 0.06999 0.0
H635 H 0.53328 0.35226 0.09857 0.0
O636 O 0.5896 0.4334 0.11545 0.0
O637 O 0.584 0.41859 0.08712 0.0
O638 O 0.53015 0.44207 0.10225 0.0
O639 O 0.52391 0.40119 0.08513 0.0
C640 C 0.61999 0.30408 0.06059 0.0
C641 C 0.63503 0.32225 0.04802 0.0
H642 H 0.65791 0.3637 0.02473 0.0
H643 H 0.63949 0.41533 0.02187 0.0
H644 H 0.54566 0.29951 0.10376 0.0
H645 H 0.58632 0.27594 0.08634 0.0
H646 H 0.62579 0.28085 0.06153 0.0
H647 H 0.65232 0.31279 0.03962 0.0
Mn648 Mn 0.7913 0.32655 0.344 0.0
Mn649 Mn 0.85637 0.31425 0.32237 0.0
C650 C 0.83472 0.34667 0.35566 0.0
C651 C 0.74805 0.35386 0.34894 0.0
C652 C 0.82813 0.26959 0.34761 0.0
O653 O 0.77735 0.31104 0.31933 0.0
O654 O 0.82215 0.30387 0.307 0.0
C655 C 0.84923 0.36071 0.2943 0.0
N656 N 0.86574 0.34769 0.30758 0.0
C657 C 0.90786 0.37813 0.30045 0.0
C658 C 0.89136 0.39191 0.28668 0.0
C659 C 0.86183 0.38332 0.2837 0.0
C660 C 0.89386 0.35631 0.31087 0.0
H661 H 0.82674 0.3537 0.29175 0.0
C662 C 0.79394 0.30267 0.30627 0.0
O663 O 0.75009 0.32626 0.35373 0.0
O664 O 0.77055 0.3651 0.34039 0.0
N665 N 0.8926 0.32248 0.33476 0.0
C666 C 0.90561 0.30643 0.34825 0.0
C667 C 0.93553 0.31133 0.35244 0.0
C668 C 0.95174 0.33277 0.34282 0.0
C669 C 0.93802 0.34878 0.32885 0.0
C670 C 0.9083 0.34253 0.32504 0.0
H671 H 0.89348 0.28945 0.35543 0.0
O672 O 0.81142 0.3431 0.36569 0.0
O673 O 0.83201 0.33921 0.33857 0.0
O674 O 0.80484 0.28461 0.35112 0.0
O675 O 0.84886 0.27893 0.33729 0.0
C676 C 0.95285 0.37015 0.31826 0.0
C677 C 0.9377 0.38502 0.30417 0.0
H678 H 0.90113 0.40906 0.27831 0.0
H679 H 0.84895 0.39382 0.2731 0.0
H680 H 0.94615 0.29843 0.363 0.0
H681 H 0.97484 0.33646 0.34608 0.0
H682 H 0.97585 0.37545 0.3209 0.0
H683 H 0.94923 0.40165 0.29625 0.0
Mn684 Mn 0.92362 0.54052 0.59576 0.0
Mn685 Mn 0.93436 0.60484 0.573 0.0
C686 C 0.90185 0.5837 0.60649 0.0
C687 C 0.89761 0.4966 0.60092 0.0
C688 C 0.97928 0.57927 0.59914 0.0
O689 O 0.94035 0.52599 0.57158 0.0
O690 O 0.94603 0.57025 0.55827 0.0
C691 C 0.88854 0.59497 0.54486 0.0
N692 N 0.90087 0.6125 0.55788 0.0
C693 C 0.86927 0.65332 0.54986 0.0
C694 C 0.85618 0.63575 0.53634 0.0
C695 C 0.8657 0.60636 0.53393 0.0
C696 C 0.89136 0.64048 0.56063 0.0
H697 H 0.89626 0.57259 0.54275 0.0
C698 C 0.94828 0.54208 0.5582 0.0
O699 O 0.92492 0.49972 0.60609 0.0
O700 O 0.88593 0.51845 0.59197 0.0
N701 N 0.92488 0.64138 0.58469 0.0
C702 C 0.94044 0.65557 0.59795 0.0
C703 C 0.93469 0.68555 0.60151 0.0
C704 C 0.91284 0.70062 0.59154 0.0
C705 C 0.89737 0.68571 0.5778 0.0
C706 C 0.90451 0.65601 0.5746 0.0
H707 H 0.95772 0.64433 0.60539 0.0
O708 O 0.90578 0.56091 0.61691 0.0
O709 O 0.90985 0.58054 0.58951 0.0
O710 O 0.96484 0.5558 0.60308 0.0
O711 O 0.96963 0.59907 0.58825 0.0
C712 C 0.87571 0.69938 0.56684 0.0
C713 C 0.86145 0.68311 0.55299 0.0
H714 H 0.83886 0.64459 0.52772 0.0
H715 H 0.85574 0.59266 0.52352 0.0
H716 H 0.94723 0.69709 0.61185 0.0
H717 H 0.90846 0.72375 0.59435 0.0
H718 H 0.86972 0.72234 0.56903 0.0
H719 H 0.84461 0.69374 0.54479 0.0
Mn720 Mn 0.70841 0.32208 0.65559 0.0
Mn721 Mn 0.64471 0.30985 0.6787 0.0
C722 C 0.66452 0.34281 0.64511 0.0
C723 C 0.75171 0.34897 0.65016 0.0
C724 C 0.67097 0.26551 0.65246 0.0
O725 O 0.72369 0.30574 0.6797 0.0
O726 O 0.67977 0.29891 0.69324 0.0
C727 C 0.65396 0.35583 0.70682 0.0
N728 N 0.63654 0.34315 0.69388 0.0
C729 C 0.59522 0.37402 0.70203 0.0
C730 C 0.61268 0.38745 0.71548 0.0
C731 C 0.64226 0.37847 0.71778 0.0
C732 C 0.60835 0.35213 0.69123 0.0
H733 H 0.67651 0.34855 0.70884 0.0
C734 C 0.70799 0.29735 0.69315 0.0
O735 O 0.74906 0.32159 0.64503 0.0
O736 O 0.72974 0.36026 0.65919 0.0
N737 N 0.60782 0.31857 0.6672 0.0
C738 C 0.59384 0.30284 0.65393 0.0
C739 C 0.56376 0.30812 0.65043 0.0
C740 C 0.54836 0.32963 0.66049 0.0
C741 C 0.56308 0.34531 0.67421 0.0
C742 C 0.59293 0.33868 0.67734 0.0
H743 H 0.60535 0.28582 0.64642 0.0
O744 O 0.68722 0.33941 0.63454 0.0
O745 O 0.66818 0.33492 0.66207 0.0
O746 O 0.69403 0.2805 0.6484 0.0
O747 O 0.65104 0.27472 0.66341 0.0
C748 C 0.54913 0.36676 0.6852 0.0
C749 C 0.56528 0.38131 0.699 0.0
H750 H 0.60361 0.40463 0.72412 0.0
H751 H 0.65588 0.38871 0.72813 0.0
H752 H 0.55238 0.29547 0.64006 0.0
H753 H 0.52513 0.33361 0.65776 0.0
H754 H 0.52606 0.37236 0.68308 0.0
H755 H 0.55442 0.39799 0.70722 0.0
Mn756 Mn 0.92702 0.46028 0.90441 0.0
Mn757 Mn 0.93823 0.39609 0.92723 0.0
C758 C 0.90654 0.41664 0.89334 0.0
C759 C 0.90039 0.50377 0.89895 0.0
C760 C 0.98365 0.42283 0.90185 0.0
O761 O 0.94251 0.47504 0.92886 0.0
O762 O 0.94842 0.43084 0.94222 0.0
C763 C 0.89107 0.4046 0.95471 0.0
N764 N 0.90434 0.3875 0.94182 0.0
C765 C 0.87356 0.3458 0.94932 0.0
C766 C 0.85951 0.36293 0.9627 0.0
C767 C 0.86815 0.39254 0.96529 0.0
C768 C 0.89568 0.35929 0.93888 0.0
H769 H 0.89812 0.42717 0.95697 0.0
C770 C 0.9501 0.45904 0.94236 0.0
O771 O 0.92794 0.50115 0.89416 0.0
O772 O 0.88876 0.48164 0.90767 0.0
N773 N 0.9301 0.35943 0.9153 0.0
C774 C 0.94643 0.3458 0.90217 0.0
C775 C 0.94154 0.31573 0.89841 0.0
C776 C 0.91979 0.3 0.90808 0.0
C777 C 0.90349 0.31437 0.92167 0.0
C778 C 0.90975 0.34421 0.92507 0.0
H779 H 0.96364 0.35756 0.89497 0.0
O780 O 0.91039 0.43952 0.88298 0.0
O781 O 0.91385 0.41996 0.91042 0.0
O782 O 0.96882 0.44594 0.89767 0.0
O783 O 0.974 0.40279 0.91257 0.0
C784 C 0.8818 0.30005 0.93231 0.0
C785 C 0.86665 0.31584 0.94602 0.0
H786 H 0.84212 0.35357 0.97106 0.0
H787 H 0.85744 0.4059 0.97559 0.0
H788 H 0.95466 0.30462 0.88816 0.0
H789 H 0.91609 0.27679 0.90515 0.0
H790 H 0.87649 0.27697 0.92998 0.0
H791 H 0.8498 0.3047 0.95396 0.0
Mn792 Mn 0.78943 0.67393 0.15634 0.0
Mn793 Mn 0.85426 0.68616 0.17825 0.0
C794 C 0.83278 0.65292 0.14515 0.0
C795 C 0.74583 0.64699 0.15176 0.0
C796 C 0.82698 0.73029 0.15224 0.0
O797 O 0.77532 0.69057 0.18068 0.0
O798 O 0.81992 0.6973 0.19334 0.0
C799 C 0.8462 0.64048 0.2067 0.0
N800 N 0.86306 0.65302 0.19342 0.0
C801 C 0.90477 0.62237 0.2011 0.0
C802 C 0.88789 0.60908 0.21488 0.0
C803 C 0.85839 0.61802 0.21759 0.0
C804 C 0.89115 0.64405 0.19038 0.0
H805 H 0.82373 0.64776 0.20903 0.0
C806 C 0.79173 0.69897 0.19381 0.0
O807 O 0.74828 0.67432 0.14649 0.0
O808 O 0.76819 0.63581 0.16048 0.0
N809 N 0.89063 0.67729 0.16617 0.0
C810 C 0.90406 0.69296 0.15267 0.0
C811 C 0.93404 0.68778 0.14877 0.0
C812 C 0.94987 0.66639 0.15867 0.0
C813 C 0.93572 0.6508 0.17266 0.0
C814 C 0.90597 0.65736 0.17618 0.0
H815 H 0.89224 0.7099 0.14527 0.0
O816 O 0.8096 0.65628 0.13499 0.0
O817 O 0.82994 0.66101 0.16213 0.0
O818 O 0.80363 0.7154 0.14866 0.0
O819 O 0.8473 0.72112 0.16292 0.0
C820 C 0.95017 0.62956 0.18355 0.0
C821 C 0.93462 0.61514 0.19766 0.0
H822 H 0.89736 0.59206 0.22348 0.0
H823 H 0.84523 0.6079 0.2282 0.0
H824 H 0.94499 0.70041 0.13823 0.0
H825 H 0.973 0.66245 0.15562 0.0
H826 H 0.97318 0.62402 0.18113 0.0
H827 H 0.94585 0.59862 0.20581 0.0
Mn828 Mn 0.57275 0.54235 0.40557 0.0
Mn829 Mn 0.55891 0.60508 0.42936 0.0
C830 C 0.5919 0.58726 0.39543 0.0
C831 C 0.60089 0.50006 0.39937 0.0
C832 C 0.5147 0.57752 0.40346 0.0
O833 O 0.55753 0.526 0.42976 0.0
O834 O 0.55037 0.5694 0.44391 0.0
C835 C 0.60632 0.59799 0.45682 0.0
N836 N 0.5923 0.61481 0.44409 0.0
C837 C 0.62089 0.65777 0.45217 0.0
C838 C 0.6357 0.64095 0.46537 0.0
C839 C 0.62855 0.61086 0.4676 0.0
C840 C 0.59952 0.64352 0.44152 0.0
H841 H 0.60039 0.57504 0.4588 0.0
C842 C 0.54968 0.54115 0.44358 0.0
O843 O 0.5733 0.50202 0.39457 0.0
O844 O 0.61173 0.52209 0.40856 0.0
N845 N 0.56543 0.64235 0.41778 0.0
C846 C 0.54892 0.65541 0.40452 0.0
C847 C 0.55243 0.68576 0.40104 0.0
C848 C 0.57283 0.70239 0.41123 0.0
C849 C 0.58965 0.68849 0.42476 0.0
C850 C 0.58486 0.65828 0.42781 0.0
H851 H 0.53262 0.64293 0.39699 0.0
O852 O 0.58892 0.56481 0.38461 0.0
O853 O 0.5844 0.5828 0.41237 0.0
O854 O 0.53056 0.55536 0.39884 0.0
O855 O 0.52341 0.59733 0.41463 0.0
C856 C 0.61047 0.70356 0.43564 0.0
C857 C 0.62631 0.68813 0.44921 0.0
H858 H 0.65255 0.65091 0.47389 0.0
H859 H 0.63985 0.59774 0.47778 0.0
H860 H 0.53921 0.69641 0.39064 0.0
H861 H 0.57521 0.72588 0.40867 0.0
H862 H 0.61464 0.72694 0.43358 0.0
H863 H 0.64254 0.69985 0.45733 0.0
Mn864 Mn 0.29374 0.3163 0.1605 0.0
Mn865 Mn 0.30031 0.37792 0.1859 0.0
C866 C 0.32375 0.35436 0.15078 0.0
C867 C 0.30945 0.26842 0.15428 0.0
C868 C 0.24712 0.36525 0.16172 0.0
O869 O 0.27806 0.30357 0.18497 0.0
O870 O 0.28595 0.34469 0.20161 0.0
C871 C 0.34907 0.35865 0.21011 0.0
N872 N 0.33808 0.37811 0.19767 0.0
C873 C 0.38301 0.40679 0.19831 0.0
C874 C 0.3947 0.38718 0.21123 0.0
C875 C 0.37767 0.36297 0.21713 0.0
C876 C 0.35431 0.40145 0.19187 0.0
H877 H 0.33616 0.33989 0.21461 0.0
C878 C 0.27821 0.31745 0.20003 0.0
O879 O 0.28299 0.27707 0.14976 0.0
O880 O 0.32629 0.28738 0.16252 0.0
N881 N 0.31477 0.41131 0.17248 0.0
C882 C 0.3012 0.42689 0.15897 0.0
C883 C 0.31578 0.45118 0.1511 0.0
C884 C 0.34409 0.45929 0.15724 0.0
C885 C 0.35758 0.44301 0.17119 0.0
C886 C 0.34192 0.41908 0.17859 0.0
H887 H 0.27955 0.42067 0.15408 0.0
O888 O 0.31384 0.33493 0.13928 0.0
O889 O 0.31595 0.35062 0.16764 0.0
O890 O 0.25638 0.3406 0.15541 0.0
O891 O 0.26125 0.38018 0.1737 0.0
C892 C 0.38615 0.44927 0.17784 0.0
C893 C 0.39892 0.4311 0.19132 0.0
H894 H 0.41682 0.39033 0.21659 0.0
H895 H 0.38661 0.34763 0.22701 0.0
H896 H 0.30528 0.46354 0.14027 0.0
H897 H 0.35537 0.4779 0.15103 0.0
H898 H 0.39863 0.46785 0.17254 0.0
H899 H 0.42113 0.43583 0.19608 0.0
Mn900 Mn 0.43334 0.54662 0.91032 0.0
Mn901 Mn 0.37138 0.55445 0.93531 0.0
C902 C 0.39564 0.57665 0.90009 0.0
C903 C 0.48133 0.56183 0.90386 0.0
C904 C 0.38404 0.50033 0.91193 0.0
O905 O 0.44577 0.5321 0.93512 0.0
O906 O 0.40425 0.54039 0.95138 0.0
C907 C 0.39049 0.60379 0.95912 0.0
N908 N 0.37121 0.59256 0.94665 0.0
C909 C 0.34265 0.63758 0.94671 0.0
C910 C 0.36207 0.64952 0.95966 0.0
C911 C 0.38613 0.63257 0.96585 0.0
C912 C 0.34802 0.60871 0.94057 0.0
H913 H 0.40912 0.59095 0.96387 0.0
C914 C 0.43156 0.53277 0.95007 0.0
O915 O 0.47255 0.53521 0.89979 0.0
O916 O 0.46246 0.57908 0.91185 0.0
N917 N 0.33837 0.56874 0.92148 0.0
C918 C 0.32308 0.55495 0.90793 0.0
C919 C 0.29905 0.56946 0.89971 0.0
C920 C 0.29089 0.59792 0.90556 0.0
C921 C 0.3069 0.61165 0.91955 0.0
C922 C 0.3306 0.59608 0.92727 0.0
H923 H 0.32933 0.53316 0.90327 0.0
O924 O 0.41495 0.566 0.88876 0.0
O925 O 0.39913 0.56935 0.91705 0.0
O926 O 0.4089 0.50916 0.9057 0.0
O927 O 0.369 0.51505 0.92358 0.0
C928 C 0.30058 0.64038 0.92591 0.0
C929 C 0.31852 0.6534 0.93942 0.0
H930 H 0.3589 0.67178 0.96479 0.0
H931 H 0.40132 0.64171 0.97575 0.0
H932 H 0.28691 0.55877 0.88886 0.0
H933 H 0.27248 0.60914 0.8991 0.0
H934 H 0.28215 0.65279 0.92037 0.0
H935 H 0.31377 0.67573 0.94395 0.0
Mn936 Mn 0.20383 0.6836 0.65908 0.0
Mn937 Mn 0.19472 0.62382 0.68597 0.0
C938 C 0.1709 0.64696 0.65086 0.0
C939 C 0.19229 0.732 0.65138 0.0
C940 C 0.24748 0.63198 0.66075 0.0
O941 O 0.22156 0.69674 0.68301 0.0
O942 O 0.21132 0.65717 0.7006 0.0
C943 C 0.14808 0.64701 0.71047 0.0
N944 N 0.15755 0.62625 0.69836 0.0
C945 C 0.11168 0.59939 0.70084 0.0
C946 C 0.10153 0.62037 0.71344 0.0
C947 C 0.11978 0.64432 0.71823 0.0
C948 C 0.14012 0.60317 0.6936 0.0
H949 H 0.16196 0.66553 0.71417 0.0
C950 C 0.22075 0.68374 0.69839 0.0
O951 O 0.21737 0.72025 0.64667 0.0
O952 O 0.17402 0.71587 0.66072 0.0
N953 N 0.17802 0.5904 0.67362 0.0
C954 C 0.1902 0.57329 0.6603 0.0
C955 C 0.17431 0.54895 0.65352 0.0
C956 C 0.14616 0.54234 0.66056 0.0
C957 C 0.1341 0.56021 0.67428 0.0
C958 C 0.15101 0.58411 0.68056 0.0
H959 H 0.21173 0.57831 0.65475 0.0
O960 O 0.18138 0.66505 0.63874 0.0
O961 O 0.17963 0.65121 0.6675 0.0
O962 O 0.23903 0.65651 0.65395 0.0
O963 O 0.2332 0.61856 0.67332 0.0
C964 C 0.10578 0.55549 0.68177 0.0
C965 C 0.09451 0.57515 0.69498 0.0
H966 H 0.07967 0.61845 0.71939 0.0
H967 H 0.11204 0.6607 0.72787 0.0
H968 H 0.1837 0.53537 0.64286 0.0
H969 H 0.13391 0.52363 0.65523 0.0
H970 H 0.09237 0.53697 0.67736 0.0
H971 H 0.07249 0.57159 0.70039 0.0
Mn972 Mn 0.06821 0.45612 0.41117 0.0
Mn973 Mn 0.12876 0.45152 0.43777 0.0
C974 C 0.10725 0.42643 0.40262 0.0
C975 C 0.02082 0.43978 0.40412 0.0
C976 C 0.11644 0.50354 0.4126 0.0
O977 O 0.05401 0.47235 0.43518 0.0
O978 O 0.09459 0.46613 0.45259 0.0
C979 C 0.1089 0.4036 0.46243 0.0
N980 N 0.12883 0.41428 0.45016 0.0
C981 C 0.15781 0.36962 0.45194 0.0
C982 C 0.13773 0.35827 0.4647 0.0
C983 C 0.11315 0.37532 0.46994 0.0
C984 C 0.15257 0.39805 0.44502 0.0
H985 H 0.08984 0.4165 0.46641 0.0
C986 C 0.06727 0.47322 0.45045 0.0
O987 O 0.02953 0.46618 0.39953 0.0
O988 O 0.03945 0.42326 0.41289 0.0
N989 N 0.16299 0.43691 0.42523 0.0
C990 C 0.17909 0.45012 0.4118 0.0
C991 C 0.20383 0.43543 0.40455 0.0
C992 C 0.21183 0.40739 0.41119 0.0
C993 C 0.19502 0.39429 0.42506 0.0
C994 C 0.17071 0.41007 0.43186 0.0
H995 H 0.17292 0.47151 0.40649 0.0
O996 O 0.08829 0.43561 0.3906 0.0
O997 O 0.10251 0.43472 0.41929 0.0
O998 O 0.09218 0.49367 0.4061 0.0
O999 O 0.13115 0.49006 0.42496 0.0
C1000 C 0.20109 0.36595 0.43213 0.0
C1001 C 0.18246 0.35359 0.44553 0.0
H1002 H 0.14079 0.33637 0.47041 0.0
H1003 H 0.09744 0.36663 0.47969 0.0
H1004 H 0.2166 0.44563 0.39378 0.0
H1005 H 0.23074 0.39599 0.40542 0.0
H1006 H 0.21984 0.35332 0.42721 0.0
H1007 H 0.18708 0.33156 0.45063 0.0
Mn1008 Mn 0.29523 0.68109 0.34082 0.0
Mn1009 Mn 0.30037 0.61998 0.31479 0.0
C1010 C 0.32393 0.64178 0.3502 0.0
C1011 C 0.31239 0.72805 0.3481 0.0
C1012 C 0.24735 0.63334 0.33893 0.0
O1013 O 0.28048 0.69515 0.3164 0.0
O1014 O 0.28667 0.65399 0.29951 0.0
C1015 C 0.3495 0.63902 0.29078 0.0
N1016 N 0.33815 0.61941 0.30302 0.0
C1017 C 0.38272 0.59018 0.30226 0.0
C1018 C 0.39478 0.60994 0.28956 0.0
C1019 C 0.3781 0.63449 0.28382 0.0
C1020 C 0.35401 0.5957 0.30863 0.0
H1021 H 0.3369 0.65807 0.28642 0.0
C1022 C 0.27991 0.68147 0.30126 0.0
O1023 O 0.28547 0.7202 0.35212 0.0
O1024 O 0.32877 0.70901 0.33959 0.0
N1025 N 0.31416 0.58588 0.3278 0.0
C1026 C 0.30024 0.57011 0.3411 0.0
C1027 C 0.31444 0.54544 0.34879 0.0
C1028 C 0.34275 0.53717 0.34271 0.0
C1029 C 0.35658 0.55364 0.32896 0.0
C1030 C 0.34127 0.57789 0.3217 0.0
H1031 H 0.27863 0.57649 0.34598 0.0
O1032 O 0.31432 0.66101 0.36192 0.0
O1033 O 0.31654 0.64636 0.33336 0.0
O1034 O 0.25704 0.65778 0.34531 0.0
O1035 O 0.26132 0.61816 0.327 0.0
C1036 C 0.38521 0.54728 0.32244 0.0
C1037 C 0.39831 0.56558 0.30914 0.0
H1038 H 0.41693 0.60666 0.28426 0.0
H1039 H 0.38734 0.64995 0.2741 0.0
H1040 H 0.30367 0.53294 0.35946 0.0
H1041 H 0.35376 0.51832 0.34882 0.0
H1042 H 0.39749 0.52854 0.3277 0.0
H1043 H 0.42055 0.56075 0.30446 0.0
Mn1044 Mn 0.06713 0.54363 0.09062 0.0
Mn1045 Mn 0.12778 0.54882 0.06412 0.0
C1046 C 0.10601 0.57343 0.09935 0.0
C1047 C 0.01964 0.55972 0.09767 0.0
C1048 C 0.11561 0.49644 0.08902 0.0
O1049 O 0.05309 0.52764 0.06649 0.0
O1050 O 0.09373 0.5343 0.04918 0.0
C1051 C 0.10787 0.59699 0.03966 0.0
N1052 N 0.12779 0.58621 0.0519 0.0
C1053 C 0.15683 0.63084 0.05022 0.0
C1054 C 0.13675 0.6423 0.0375 0.0
C1055 C 0.11215 0.62532 0.03222 0.0
C1056 C 0.15154 0.60238 0.05708 0.0
H1057 H 0.0888 0.58414 0.03564 0.0
C1058 C 0.06644 0.52706 0.05124 0.0
O1059 O 0.02843 0.5333 0.10217 0.0
O1060 O 0.03825 0.57638 0.08899 0.0
N1061 N 0.16191 0.56337 0.07677 0.0
C1062 C 0.17799 0.55006 0.09016 0.0
C1063 C 0.20275 0.56466 0.09745 0.0
C1064 C 0.2108 0.59273 0.09086 0.0
C1065 C 0.19401 0.60593 0.07703 0.0
C1066 C 0.16966 0.59025 0.07021 0.0
H1067 H 0.17181 0.52862 0.09541 0.0
O1068 O 0.08705 0.56401 0.1113 0.0
O1069 O 0.10138 0.56528 0.08264 0.0
O1070 O 0.09128 0.50611 0.09556 0.0
O1071 O 0.13026 0.51014 0.07673 0.0
C1072 C 0.20016 0.63428 0.06999 0.0
C1073 C 0.18154 0.64677 0.05664 0.0
H1074 H 0.13985 0.66423 0.03183 0.0
H1075 H 0.09645 0.6341 0.0225 0.0
H1076 H 0.2155 0.55438 0.10819 0.0
H1077 H 0.22975 0.60404 0.09664 0.0
H1078 H 0.21899 0.64681 0.07489 0.0
H1079 H 0.18621 0.66881 0.05157 0.0
Mn1080 Mn 0.20601 0.31794 0.84198 0.0
Mn1081 Mn 0.20013 0.37877 0.81572 0.0
C1082 C 0.17583 0.35644 0.85089 0.0
C1083 C 0.19018 0.27025 0.84884 0.0
C1084 C 0.25276 0.36681 0.8405 0.0
O1085 O 0.22222 0.30433 0.81777 0.0
O1086 O 0.21467 0.34495 0.80062 0.0
C1087 C 0.15186 0.35889 0.79133 0.0
N1088 N 0.16265 0.37872 0.80362 0.0
C1089 C 0.11796 0.40769 0.8021 0.0
C1090 C 0.10648 0.3877 0.78933 0.0
C1091 C 0.1235 0.36316 0.78396 0.0
C1092 C 0.14644 0.40239 0.80891 0.0
H1093 H 0.16476 0.3399 0.78722 0.0
C1094 C 0.22238 0.31776 0.80254 0.0
O1095 O 0.21655 0.27913 0.85338 0.0
O1096 O 0.17347 0.28884 0.84019 0.0
N1097 N 0.18552 0.41269 0.82856 0.0
C1098 C 0.19884 0.42868 0.84199 0.0
C1099 C 0.18421 0.45334 0.84938 0.0
C1100 C 0.15611 0.4614 0.84286 0.0
C1101 C 0.14289 0.4447 0.82899 0.0
C1102 C 0.15859 0.42043 0.82207 0.0
H1103 H 0.22032 0.42251 0.84717 0.0
O1104 O 0.18541 0.33742 0.86276 0.0
O1105 O 0.18402 0.35207 0.83417 0.0
O1106 O 0.2433 0.3424 0.84705 0.0
O1107 O 0.23892 0.38134 0.82821 0.0
C1108 C 0.11453 0.45089 0.82198 0.0
C1109 C 0.10202 0.43234 0.8086 0.0
H1110 H 0.08453 0.3908 0.78371 0.0
H1111 H 0.11472 0.34753 0.77419 0.0
H1112 H 0.1945 0.46602 0.86015 0.0
H1113 H 0.14478 0.48028 0.8487 0.0
H1114 H 0.10201 0.46969 0.82693 0.0
H1115 H 0.07997 0.43703 0.80356 0.0
Mn1116 Mn 0.43056 0.45386 0.59055 0.0
Mn1117 Mn 0.37057 0.44898 0.56348 0.0
C1118 C 0.39143 0.4241 0.59883 0.0
C1119 C 0.47777 0.4375 0.59809 0.0
C1120 C 0.3819 0.50091 0.58886 0.0
O1121 O 0.4453 0.46998 0.5666 0.0
O1122 O 0.40496 0.46389 0.54895 0.0
C1123 C 0.39134 0.40127 0.53894 0.0
N1124 N 0.37106 0.41177 0.55105 0.0
C1125 C 0.34251 0.36687 0.54904 0.0
C1126 C 0.36296 0.3557 0.53644 0.0
C1127 C 0.3875 0.37297 0.53139 0.0
C1128 C 0.34735 0.39533 0.556 0.0
H1129 H 0.41038 0.41433 0.53512 0.0
C1130 C 0.43225 0.47091 0.55126 0.0
O1131 O 0.46899 0.46395 0.60254 0.0
O1132 O 0.45938 0.42102 0.58912 0.0
N1133 N 0.33615 0.4341 0.5757 0.0
C1134 C 0.31958 0.4472 0.58895 0.0
C1135 C 0.29479 0.43231 0.59598 0.0
C1136 C 0.28723 0.40418 0.5893 0.0
C1137 C 0.30449 0.39121 0.5756 0.0
C1138 C 0.32882 0.40719 0.569 0.0
H1139 H 0.32539 0.46869 0.59427 0.0
O1140 O 0.4101 0.43339 0.61099 0.0
O1141 O 0.3965 0.43231 0.58218 0.0
O1142 O 0.40625 0.49133 0.59544 0.0
O1143 O 0.36761 0.48739 0.57634 0.0
C1144 C 0.29884 0.3628 0.56849 0.0
C1145 C 0.31786 0.35061 0.55525 0.0
H1146 H 0.36021 0.33377 0.5307 0.0
H1147 H 0.40349 0.36442 0.52177 0.0
H1148 H 0.28166 0.44242 0.60661 0.0
H1149 H 0.26828 0.39263 0.5949 0.0
H1150 H 0.2801 0.35 0.57326 0.0
H1151 H 0.31356 0.32854 0.55011 0.0
C1152 C 0.14389 0.40173 0.38248 0.0
C1153 C 0.12631 0.40115 0.39812 0.0
C1154 C 0.15766 0.37584 0.37616 0.0
C1155 C 0.15282 0.34876 0.38542 0.0
C1156 C 0.13661 0.34859 0.40189 0.0
C1157 C 0.12321 0.37478 0.40792 0.0
C1158 C 0.17552 0.37703 0.35884 0.0
C1159 C 0.13137 0.32032 0.41235 0.0
C1160 C 0.14277 0.2805 0.35634 0.0
C1161 C 0.16916 0.26482 0.35938 0.0
C1162 C 0.13756 0.30789 0.3646 0.0
C1163 C 0.15935 0.32026 0.37616 0.0
C1164 C 0.18632 0.30497 0.37908 0.0
C1165 C 0.19084 0.27728 0.37074 0.0
C1166 C 0.10839 0.32338 0.36114 0.0
C1167 C 0.21008 0.31729 0.39136 0.0
H1168 H 0.146 0.42219 0.37487 0.0
H1169 H 0.10896 0.37429 0.41979 0.0
H1170 H 0.19629 0.3641 0.36033 0.0
H1171 H 0.16258 0.36693 0.34761 0.0
H1172 H 0.18121 0.40013 0.35497 0.0
H1173 H 0.12136 0.32453 0.42591 0.0
H1174 H 0.11625 0.30573 0.40451 0.0
H1175 H 0.15251 0.3082 0.41426 0.0
H1176 H 0.12579 0.27123 0.34762 0.0
H1177 H 0.21131 0.26539 0.37321 0.0
H1178 H 0.1124 0.34572 0.35535 0.0
H1179 H 0.09629 0.32638 0.37414 0.0
H1180 H 0.09394 0.31087 0.35163 0.0
H1181 H 0.21155 0.34176 0.3903 0.0
H1182 H 0.23212 0.30763 0.3882 0.0
H1183 H 0.20459 0.31166 0.40565 0.0
C1184 C 0.97044 0.88828 0.60298 0.0
C1185 C 0.98538 0.91507 0.60607 0.0
C1186 C 0.94288 0.88259 0.611 0.0
C1187 C 0.92964 0.90431 0.62227 0.0
C1188 C 0.94424 0.93163 0.62519 0.0
C1189 C 0.97206 0.93659 0.61718 0.0
C1190 C 0.92809 0.85308 0.60757 0.0
C1191 C 0.93111 0.95538 0.63715 0.0
C1192 C 0.84767 0.89015 0.62855 0.0
C1193 C 0.84769 0.87375 0.64467 0.0
C1194 C 0.87399 0.90254 0.62182 0.0
C1195 C 0.90091 0.8976 0.63124 0.0
C1196 C 0.90064 0.88242 0.64807 0.0
C1197 C 0.87403 0.87035 0.65448 0.0
C1198 C 0.87331 0.91941 0.60412 0.0
C1199 C 0.92874 0.87722 0.65871 0.0
H1200 H 0.98043 0.87147 0.59444 0.0
H1201 H 0.98333 0.9574 0.61967 0.0
H1202 H 0.92488 0.8412 0.62064 0.0
H1203 H 0.90586 0.85656 0.6015 0.0
H1204 H 0.9412 0.83871 0.59833 0.0
H1205 H 0.90661 0.95609 0.63607 0.0
H1206 H 0.93696 0.95055 0.65149 0.0
H1207 H 0.94008 0.9776 0.63373 0.0
H1208 H 0.82724 0.89245 0.62093 0.0
H1209 H 0.87411 0.85691 0.6667 0.0
H1210 H 0.88424 0.90611 0.59335 0.0
H1211 H 0.88578 0.94048 0.60545 0.0
H1212 H 0.85033 0.92448 0.59971 0.0
H1213 H 0.94345 0.86203 0.65102 0.0
H1214 H 0.92432 0.8674 0.67229 0.0
H1215 H 0.94083 0.89838 0.66059 0.0
C1216 C 0.38167 0.62916 0.90425 0.0
C1217 C 0.3783 0.60266 0.89461 0.0
C1218 C 0.37018 0.65577 0.89748 0.0
C1219 C 0.35569 0.6559 0.88043 0.0
C1220 C 0.35084 0.62887 0.87111 0.0
C1221 C 0.36257 0.60252 0.87824 0.0
C1222 C 0.37521 0.68401 0.90803 0.0
C1223 C 0.33475 0.62807 0.85315 0.0
C1224 C 0.31728 0.72691 0.86565 0.0
C1225 C 0.33923 0.74022 0.85485 0.0
C1226 C 0.32193 0.69916 0.87377 0.0
C1227 C 0.34935 0.68455 0.87127 0.0
C1228 C 0.37151 0.69774 0.8603 0.0
C1229 C 0.36615 0.72531 0.85219 0.0
C1230 C 0.29775 0.68613 0.88546 0.0
C1231 C 0.40112 0.6829 0.85731 0.0
H1232 H 0.39464 0.62934 0.91666 0.0
H1233 H 0.36033 0.58197 0.87073 0.0
H1234 H 0.39068 0.69855 0.90043 0.0
H1235 H 0.35404 0.69621 0.90961 0.0
H1236 H 0.38462 0.67975 0.92174 0.0
H1237 H 0.32986 0.60506 0.84871 0.0
H1238 H 0.31362 0.64055 0.85412 0.0
H1239 H 0.34849 0.63895 0.84257 0.0
H1240 H 0.29636 0.73817 0.86781 0.0
H1241 H 0.3833 0.73529 0.84389 0.0
H1242 H 0.30204 0.69215 0.89983 0.0
H1243 H 0.2971 0.66162 0.88448 0.0
H1244 H 0.27565 0.69503 0.88168 0.0
H1245 H 0.4158 0.69589 0.84817 0.0
H1246 H 0.39783 0.66059 0.85131 0.0
H1247 H 0.41257 0.67987 0.87053 0.0
C1248 C 0.52513 0.06296 0.12057 0.0
C1249 C 0.5124 0.08376 0.10872 0.0
C1250 C 0.55274 0.06835 0.1288 0.0
C1251 C 0.56773 0.09529 0.12526 0.0
C1252 C 0.55509 0.11619 0.1132 0.0
C1253 C 0.52773 0.11016 0.10508 0.0
C1254 C 0.5652 0.04553 0.14167 0.0
C1255 C 0.57031 0.14524 0.109 0.0
C1256 C 0.62298 0.13286 0.1561 0.0
C1257 C 0.64932 0.12863 0.14642 0.0
C1258 C 0.59651 0.11965 0.15031 0.0
C1259 C 0.59637 0.10252 0.1342 0.0
C1260 C 0.62334 0.09678 0.12501 0.0
C1261 C 0.6495 0.11031 0.13109 0.0
C1262 C 0.56836 0.12577 0.16071 0.0
C1263 C 0.6242 0.07795 0.10807 0.0
H1264 H 0.51349 0.04253 0.12354 0.0
H1265 H 0.51825 0.12647 0.09597 0.0
H1266 H 0.58973 0.0446 0.14099 0.0
H1267 H 0.55881 0.05156 0.15575 0.0
H1268 H 0.55621 0.02311 0.13879 0.0
H1269 H 0.55763 0.15896 0.09917 0.0
H1270 H 0.5733 0.15818 0.12169 0.0
H1271 H 0.59265 0.14103 0.10326 0.0
H1272 H 0.6228 0.14768 0.1677 0.0
H1273 H 0.66993 0.10734 0.12356 0.0
H1274 H 0.55622 0.10481 0.16324 0.0
H1275 H 0.55373 0.14033 0.15251 0.0
H1276 H 0.57274 0.13674 0.17396 0.0
H1277 H 0.61155 0.05716 0.11019 0.0
H1278 H 0.64722 0.07226 0.10404 0.0
H1279 H 0.61357 0.09011 0.09669 0.0
C1280 C 0.1904 0.72213 0.13125 0.0
C1281 C 0.16892 0.73499 0.14259 0.0
C1282 C 0.18549 0.69445 0.123 0.0
C1283 C 0.15832 0.67956 0.12598 0.0
C1284 C 0.13672 0.69232 0.13753 0.0
C1285 C 0.14232 0.71971 0.1457 0.0
C1286 C 0.20905 0.68176 0.11073 0.0
C1287 C 0.10736 0.67724 0.14106 0.0
C1288 C 0.12192 0.62514 0.09421 0.0
C1289 C 0.12496 0.59873 0.10398 0.0
C1290 C 0.1353 0.65131 0.1003 0.0
C1291 C 0.15142 0.65107 0.1168 0.0
C1292 C 0.15611 0.62397 0.12607 0.0
C1293 C 0.14238 0.59811 0.11968 0.0
C1294 C 0.13025 0.6796 0.08983 0.0
C1295 C 0.17388 0.62272 0.14342 0.0
H1296 H 0.21103 0.73371 0.12872 0.0
H1297 H 0.12549 0.7293 0.1544 0.0
H1298 H 0.21003 0.65725 0.11168 0.0
H1299 H 0.20378 0.6877 0.09646 0.0
H1300 H 0.23127 0.69092 0.11398 0.0
H1301 H 0.09312 0.68999 0.15057 0.0
H1302 H 0.09518 0.67435 0.12807 0.0
H1303 H 0.11109 0.65488 0.14687 0.0
H1304 H 0.10776 0.62569 0.08231 0.0
H1305 H 0.14444 0.57761 0.12727 0.0
H1306 H 0.1515 0.6915 0.08786 0.0
H1307 H 0.11534 0.69437 0.09769 0.0
H1308 H 0.12011 0.67545 0.0763 0.0
H1309 H 0.19484 0.63532 0.14189 0.0
H1310 H 0.17921 0.5996 0.14741 0.0
H1311 H 0.16105 0.63317 0.15458 0.0
C1312 C 0.53138 0.9443 0.38195 0.0
C1313 C 0.51947 0.92317 0.3939 0.0
C1314 C 0.55923 0.93993 0.37379 0.0
C1315 C 0.57512 0.91353 0.37739 0.0
C1316 C 0.56346 0.89247 0.38972 0.0
C1317 C 0.53602 0.89767 0.39791 0.0
C1318 C 0.57097 0.96309 0.36089 0.0
C1319 C 0.57954 0.86387 0.39387 0.0
C1320 C 0.62802 0.87559 0.34544 0.0
C1321 C 0.6548 0.87896 0.35476 0.0
C1322 C 0.60217 0.8894 0.35165 0.0
C1323 C 0.60318 0.90651 0.36777 0.0
C1324 C 0.63069 0.91174 0.37644 0.0
C1325 C 0.65619 0.89737 0.37002 0.0
C1326 C 0.57339 0.88359 0.34185 0.0
C1327 C 0.6328 0.93076 0.39324 0.0
H1328 H 0.51887 0.96415 0.37881 0.0
H1329 H 0.52719 0.88116 0.40713 0.0
H1330 H 0.59546 0.96479 0.3616 0.0
H1331 H 0.56485 0.95689 0.34679 0.0
H1332 H 0.56126 0.98521 0.36376 0.0
H1333 H 0.56753 0.84997 0.40392 0.0
H1334 H 0.58238 0.85082 0.3812 0.0
H1335 H 0.60195 0.86866 0.3993 0.0
H1336 H 0.62693 0.86075 0.33386 0.0
H1337 H 0.67699 0.89972 0.37725 0.0
H1338 H 0.56121 0.90461 0.33966 0.0
H1339 H 0.55918 0.86901 0.35031 0.0
H1340 H 0.57693 0.87274 0.32847 0.0
H1341 H 0.61954 0.95129 0.39156 0.0
H1342 H 0.65607 0.93692 0.39637 0.0
H1343 H 0.62362 0.91849 0.40504 0.0
C1344 C 0.30774 0.27517 0.63086 0.0
C1345 C 0.32934 0.26286 0.64234 0.0
C1346 C 0.31235 0.30273 0.62237 0.0
C1347 C 0.33929 0.31805 0.6253 0.0
C1348 C 0.361 0.30583 0.63699 0.0
C1349 C 0.35573 0.27854 0.64536 0.0
C1350 C 0.28872 0.31487 0.60993 0.0
C1351 C 0.39012 0.32139 0.64048 0.0
C1352 C 0.37566 0.37241 0.59355 0.0
C1353 C 0.37232 0.39885 0.60325 0.0
C1354 C 0.36226 0.34623 0.59959 0.0
C1355 C 0.34584 0.34648 0.61598 0.0
C1356 C 0.34077 0.37361 0.62513 0.0
C1357 C 0.35452 0.39949 0.61879 0.0
C1358 C 0.36772 0.31789 0.58924 0.0
C1359 C 0.32272 0.37487 0.64237 0.0
H1360 H 0.28729 0.26326 0.62839 0.0
H1361 H 0.37264 0.26938 0.65418 0.0
H1362 H 0.28714 0.33934 0.61092 0.0
H1363 H 0.29444 0.30918 0.59569 0.0
H1364 H 0.26667 0.30515 0.61299 0.0
H1365 H 0.40449 0.30901 0.6501 0.0
H1366 H 0.40234 0.32424 0.62751 0.0
H1367 H 0.38603 0.34379 0.64615 0.0
H1368 H 0.3901 0.37186 0.58177 0.0
H1369 H 0.35224 0.42001 0.62633 0.0
H1370 H 0.34665 0.30565 0.58731 0.0
H1371 H 0.38284 0.30344 0.59718 0.0
H1372 H 0.37782 0.32204 0.57571 0.0
H1373 H 0.302 0.36188 0.64083 0.0
H1374 H 0.31693 0.39799 0.64616 0.0
H1375 H 0.33557 0.36488 0.65368 0.0
C1376 C 0.97472 0.10718 0.89618 0.0
C1377 C 0.99016 0.08059 0.89335 0.0
C1378 C 0.94753 0.11257 0.8877 0.0
C1379 C 0.93516 0.09078 0.87615 0.0
C1380 C 0.95022 0.06363 0.87344 0.0
C1381 C 0.97769 0.05892 0.88198 0.0
C1382 C 0.93225 0.14191 0.89094 0.0
C1383 C 0.93792 0.03986 0.86116 0.0
C1384 C 0.85381 0.10628 0.8693 0.0
C1385 C 0.85461 0.12356 0.85354 0.0
C1386 C 0.87961 0.09267 0.87588 0.0
C1387 C 0.90682 0.09738 0.86673 0.0
C1388 C 0.90724 0.1133 0.85016 0.0
C1389 C 0.88112 0.12654 0.84388 0.0
C1390 C 0.87816 0.07509 0.89329 0.0
C1391 C 0.93567 0.11833 0.83983 0.0
H1392 H 0.98402 0.12414 0.9049 0.0
H1393 H 0.9894 0.03831 0.87967 0.0
H1394 H 0.90981 0.13816 0.89664 0.0
H1395 H 0.94476 0.15638 0.90045 0.0
H1396 H 0.92953 0.15387 0.87787 0.0
H1397 H 0.9472 0.01774 0.86454 0.0
H1398 H 0.9134 0.0387 0.86197 0.0
H1399 H 0.94402 0.04506 0.84691 0.0
H1400 H 0.83323 0.10428 0.87681 0.0
H1401 H 0.88178 0.14058 0.83192 0.0
H1402 H 0.8883 0.08811 0.90447 0.0
H1403 H 0.89093 0.0542 0.89194 0.0
H1404 H 0.85499 0.06964 0.89714 0.0
H1405 H 0.95019 0.13351 0.84767 0.0
H1406 H 0.93167 0.12817 0.8262 0.0
H1407 H 0.94775 0.09713 0.83809 0.0
C1408 C 0.88896 0.61637 0.63247 0.0
C1409 C 0.88604 0.60965 0.61394 0.0
C1410 C 0.87275 0.63946 0.64043 0.0
C1411 C 0.85454 0.65753 0.62934 0.0
C1412 C 0.85026 0.64976 0.61083 0.0
C1413 C 0.86528 0.62518 0.60357 0.0
C1414 C 0.87594 0.64487 0.66059 0.0
C1415 C 0.83004 0.66741 0.59862 0.0
C1416 C 0.79959 0.71637 0.64521 0.0
C1417 C 0.81829 0.74078 0.64759 0.0
C1418 C 0.81117 0.68858 0.64027 0.0
C1419 C 0.84199 0.68567 0.63668 0.0
C1420 C 0.86088 0.71036 0.63968 0.0
C1421 C 0.84878 0.73735 0.64521 0.0
C1422 C 0.79004 0.66268 0.63954 0.0
C1423 C 0.89407 0.70935 0.63735 0.0
H1424 H 0.90387 0.60339 0.64085 0.0
H1425 H 0.86088 0.61816 0.58977 0.0
H1426 H 0.89433 0.66068 0.66298 0.0
H1427 H 0.85538 0.65431 0.66651 0.0
H1428 H 0.88139 0.62404 0.6679 0.0
H1429 H 0.83135 0.66005 0.58425 0.0
H1430 H 0.80678 0.6647 0.60308 0.0
H1431 H 0.83557 0.69134 0.5994 0.0
H1432 H 0.776 0.71879 0.64759 0.0
H1433 H 0.8634 0.75613 0.64727 0.0
H1434 H 0.80106 0.64116 0.63691 0.0
H1435 H 0.77314 0.66671 0.62886 0.0
H1436 H 0.77793 0.66105 0.65265 0.0
H1437 H 0.90476 0.71333 0.65072 0.0
H1438 H 0.90127 0.72761 0.62826 0.0
H1439 H 0.90243 0.68817 0.63193 0.0
C1440 C 0.1329 0.14699 0.38411 0.0
C1441 C 0.13956 0.14346 0.36561 0.0
C1442 C 0.10929 0.13166 0.39218 0.0
C1443 C 0.09074 0.11369 0.38125 0.0
C1444 C 0.09829 0.10896 0.36274 0.0
C1445 C 0.1233 0.1231 0.35536 0.0
C1446 C 0.10402 0.13535 0.41232 0.0
C1447 C 0.07999 0.0891 0.35066 0.0
C1448 C 0.03193 0.05908 0.39752 0.0
C1449 C 0.00751 0.07779 0.39986 0.0
C1450 C 0.05971 0.07059 0.39251 0.0
C1451 C 0.06264 0.10136 0.38881 0.0
C1452 C 0.038 0.12032 0.39183 0.0
C1453 C 0.01098 0.10828 0.39743 0.0
C1454 C 0.08557 0.04941 0.39177 0.0
C1455 C 0.03909 0.15348 0.38942 0.0
H1456 H 0.14636 0.16162 0.39237 0.0
H1457 H 0.13011 0.11829 0.34157 0.0
H1458 H 0.08832 0.15388 0.41458 0.0
H1459 H 0.09445 0.115 0.41843 0.0
H1460 H 0.12491 0.14083 0.41957 0.0
H1461 H 0.08719 0.09017 0.33625 0.0
H1462 H 0.08222 0.06581 0.35515 0.0
H1463 H 0.05621 0.0952 0.35155 0.0
H1464 H 0.02952 0.03551 0.39994 0.0
H1465 H 0.99221 0.12293 0.39949 0.0
H1466 H 0.10712 0.06039 0.38919 0.0
H1467 H 0.08154 0.03258 0.38105 0.0
H1468 H 0.08714 0.03722 0.40485 0.0
H1469 H 0.03493 0.16428 0.40274 0.0
H1470 H 0.02096 0.16064 0.38022 0.0
H1471 H 0.06036 0.16174 0.38409 0.0
C1472 C 0.59692 0.3646 0.12005 0.0
C1473 C 0.60925 0.38568 0.10839 0.0
C1474 C 0.61332 0.33977 0.12555 0.0
C1475 C 0.64377 0.33783 0.12097 0.0
C1476 C 0.65677 0.36016 0.11002 0.0
C1477 C 0.63903 0.38332 0.10333 0.0
C1478 C 0.59785 0.31541 0.13594 0.0
C1479 C 0.68939 0.35981 0.10553 0.0
C1480 C 0.68299 0.28522 0.1533 0.0
C1481 C 0.68725 0.26054 0.14213 0.0
C1482 C 0.67112 0.31155 0.14614 0.0
C1483 C 0.66173 0.31237 0.12773 0.0
C1484 C 0.66743 0.28765 0.11635 0.0
C1485 C 0.68039 0.26218 0.12369 0.0
C1486 C 0.66834 0.33828 0.15836 0.0
C1487 C 0.65852 0.28663 0.09667 0.0
H1488 H 0.57411 0.36711 0.1244 0.0
H1489 H 0.64875 0.40034 0.0948 0.0
H1490 H 0.60596 0.31472 0.15014 0.0
H1491 H 0.57344 0.31854 0.13624 0.0
H1492 H 0.60278 0.2936 0.12965 0.0
H1493 H 0.69687 0.38107 0.09947 0.0
H1494 H 0.70263 0.35537 0.11796 0.0
H1495 H 0.6941 0.34181 0.09569 0.0
H1496 H 0.68881 0.28387 0.16758 0.0
H1497 H 0.68379 0.24289 0.11512 0.0
H1498 H 0.6452 0.34039 0.16322 0.0
H1499 H 0.67401 0.35885 0.15086 0.0
H1500 H 0.68297 0.33647 0.17046 0.0
H1501 H 0.63886 0.27206 0.09532 0.0
H1502 H 0.67649 0.27664 0.08836 0.0
H1503 H 0.65324 0.30866 0.09103 0.0
C1504 C 0.46703 0.9299 0.90701 0.0
C1505 C 0.49016 0.93765 0.89533 0.0
C1506 C 0.4402 0.91894 0.90005 0.0
C1507 C 0.43739 0.91371 0.88106 0.0
C1508 C 0.46062 0.92283 0.86928 0.0
C1509 C 0.48642 0.93518 0.87659 0.0
C1510 C 0.41534 0.91306 0.9133 0.0
C1511 C 0.45972 0.91891 0.84897 0.0
C1512 C 0.38503 0.84982 0.87085 0.0
C1513 C 0.36461 0.8631 0.85916 0.0
C1514 C 0.40952 0.8657 0.87736 0.0
C1515 C 0.41168 0.89655 0.87383 0.0
C1516 C 0.38945 0.91056 0.86322 0.0
C1517 C 0.36684 0.89337 0.8554 0.0
C1518 C 0.43305 0.84917 0.88786 0.0
C1519 C 0.38936 0.94358 0.85998 0.0
H1520 H 0.46985 0.93251 0.92157 0.0
H1521 H 0.50444 0.94144 0.8676 0.0
H1522 H 0.39379 0.90868 0.90658 0.0
H1523 H 0.42122 0.89391 0.92204 0.0
H1524 H 0.41262 0.9324 0.92249 0.0
H1525 H 0.47917 0.90566 0.84458 0.0
H1526 H 0.43938 0.90808 0.84406 0.0
H1527 H 0.46164 0.9409 0.8423 0.0
H1528 H 0.38237 0.82664 0.87438 0.0
H1529 H 0.35012 0.90386 0.84699 0.0
H1530 H 0.42977 0.8528 0.90262 0.0
H1531 H 0.45555 0.85708 0.88417 0.0
H1532 H 0.43191 0.82493 0.88537 0.0
H1533 H 0.39902 0.95584 0.87164 0.0
H1534 H 0.36652 0.95187 0.85758 0.0
H1535 H 0.40261 0.94864 0.84767 0.0
C1536 C 0.87067 0.37452 0.89586 0.0
C1537 C 0.89151 0.39036 0.88573 0.0
C1538 C 0.85638 0.3496 0.88849 0.0
C1539 C 0.86148 0.34173 0.87007 0.0
C1540 C 0.87984 0.35999 0.85918 0.0
C1541 C 0.8953 0.38348 0.86728 0.0
C1542 C 0.836 0.33173 0.90049 0.0
C1543 C 0.8839 0.35447 0.8391 0.0
C1544 C 0.85657 0.26172 0.85432 0.0
C1545 C 0.82614 0.25811 0.85176 0.0
C1546 C 0.86842 0.28885 0.85984 0.0
C1547 C 0.84933 0.31347 0.86261 0.0
C1548 C 0.81862 0.31036 0.85877 0.0
C1549 C 0.80728 0.28245 0.85389 0.0
C1550 C 0.90154 0.29008 0.86242 0.0
C1551 C 0.79735 0.33617 0.85917 0.0
H1552 H 0.86562 0.38158 0.90958 0.0
H1553 H 0.91029 0.39666 0.85907 0.0
H1554 H 0.81284 0.33424 0.89581 0.0
H1555 H 0.84177 0.30785 0.89977 0.0
H1556 H 0.83684 0.3391 0.91487 0.0
H1557 H 0.88915 0.37535 0.83178 0.0
H1558 H 0.90275 0.33908 0.83702 0.0
H1559 H 0.8638 0.34449 0.83291 0.0
H1560 H 0.8713 0.24298 0.85242 0.0
H1561 H 0.78376 0.2799 0.85134 0.0
H1562 H 0.90963 0.31132 0.8679 0.0
H1563 H 0.91253 0.28618 0.84912 0.0
H1564 H 0.9087 0.27187 0.87156 0.0
H1565 H 0.78014 0.33217 0.86967 0.0
H1566 H 0.78563 0.33761 0.84592 0.0
H1567 H 0.80818 0.35777 0.86183 0.0
C1568 C 0.36308 0.14381 0.61782 0.0
C1569 C 0.35686 0.14083 0.63641 0.0
C1570 C 0.38635 0.12807 0.60967 0.0
C1571 C 0.40506 0.11026 0.6206 0.0
C1572 C 0.39784 0.10595 0.63921 0.0
C1573 C 0.37313 0.12049 0.64667 0.0
C1574 C 0.39116 0.13126 0.58945 0.0
C1575 C 0.41619 0.08615 0.6513 0.0
C1576 C 0.46388 0.05542 0.60458 0.0
C1577 C 0.48819 0.07416 0.60195 0.0
C1578 C 0.4361 0.06696 0.60959 0.0
C1579 C 0.43307 0.09782 0.61298 0.0
C1580 C 0.4576 0.11679 0.60963 0.0
C1581 C 0.48461 0.10469 0.60406 0.0
C1582 C 0.41033 0.04571 0.61063 0.0
C1583 C 0.45639 0.15001 0.61161 0.0
H1584 H 0.34956 0.15839 0.60954 0.0
H1585 H 0.36659 0.11605 0.66056 0.0
H1586 H 0.40652 0.14996 0.58687 0.0
H1587 H 0.40088 0.11088 0.58347 0.0
H1588 H 0.37004 0.13624 0.58234 0.0
H1589 H 0.40932 0.0876 0.66575 0.0
H1590 H 0.4136 0.06279 0.64702 0.0
H1591 H 0.44002 0.09196 0.65016 0.0
H1592 H 0.46635 0.0318 0.60239 0.0
H1593 H 0.50328 0.11936 0.60175 0.0
H1594 H 0.40854 0.03337 0.59761 0.0
H1595 H 0.38879 0.05666 0.61331 0.0
H1596 H 0.41462 0.02901 0.62139 0.0
H1597 H 0.43524 0.15835 0.61708 0.0
H1598 H 0.46005 0.16036 0.5981 0.0
H1599 H 0.47476 0.15761 0.62049 0.0
C1600 C 0.69458 0.7186 0.35649 0.0
C1601 C 0.67762 0.74449 0.35533 0.0
C1602 C 0.68144 0.69162 0.36173 0.0
C1603 C 0.6511 0.69106 0.36682 0.0
C1604 C 0.63395 0.71725 0.3652 0.0
C1605 C 0.6474 0.74345 0.35937 0.0
C1606 C 0.6995 0.66351 0.36076 0.0
C1607 C 0.60123 0.71851 0.3692 0.0
C1608 C 0.60304 0.62223 0.37024 0.0
C1609 C 0.60664 0.61426 0.38854 0.0
C1610 C 0.61866 0.64613 0.36271 0.0
C1611 C 0.63739 0.66336 0.37396 0.0
C1612 C 0.64147 0.65509 0.39239 0.0
C1613 C 0.62694 0.62988 0.39922 0.0
C1614 C 0.61451 0.6533 0.34283 0.0
C1615 C 0.66049 0.67329 0.40505 0.0
H1616 H 0.7178 0.71928 0.35276 0.0
H1617 H 0.63413 0.76341 0.35826 0.0
H1618 H 0.69973 0.65199 0.37405 0.0
H1619 H 0.68916 0.64815 0.35083 0.0
H1620 H 0.72274 0.66774 0.35652 0.0
H1621 H 0.58915 0.72482 0.35663 0.0
H1622 H 0.59199 0.69739 0.37418 0.0
H1623 H 0.59685 0.73619 0.37933 0.0
H1624 H 0.58811 0.60953 0.36172 0.0
H1625 H 0.63145 0.62239 0.41291 0.0
H1626 H 0.63588 0.65963 0.33646 0.0
H1627 H 0.59911 0.67231 0.34147 0.0
H1628 H 0.605 0.63429 0.33521 0.0
H1629 H 0.68361 0.67423 0.40007 0.0
H1630 H 0.66078 0.6642 0.41907 0.0
H1631 H 0.65214 0.69641 0.40544 0.0
C1632 C 0.13456 0.85396 0.11776 0.0
C1633 C 0.14141 0.85712 0.13626 0.0
C1634 C 0.11111 0.86973 0.10984 0.0
C1635 C 0.09285 0.88774 0.12094 0.0
C1636 C 0.10068 0.89221 0.13943 0.0
C1637 C 0.12558 0.87764 0.14664 0.0
C1638 C 0.10561 0.86636 0.08971 0.0
C1639 C 0.0828 0.91219 0.15166 0.0
C1640 C 0.03367 0.94234 0.10506 0.0
C1641 C 0.00936 0.92353 0.10263 0.0
C1642 C 0.06151 0.93092 0.11002 0.0
C1643 C 0.0646 0.90011 0.11361 0.0
C1644 C 0.04 0.88109 0.11059 0.0
C1645 C 0.01294 0.89306 0.10502 0.0
C1646 C 0.08729 0.95219 0.11075 0.0
C1647 C 0.04119 0.84792 0.11293 0.0
H1648 H 0.14774 0.83924 0.10937 0.0
H1649 H 0.13261 0.88221 0.16042 0.0
H1650 H 0.08995 0.84781 0.0874 0.0
H1651 H 0.09593 0.88679 0.08376 0.0
H1652 H 0.12644 0.86106 0.08235 0.0
H1653 H 0.0902 0.91094 0.16602 0.0
H1654 H 0.08524 0.93549 0.14722 0.0
H1655 H 0.05893 0.90638 0.15089 0.0
H1656 H 0.03115 0.96591 0.10266 0.0
H1657 H 0.99424 0.87835 0.10292 0.0
H1658 H 0.08885 0.96433 0.09765 0.0
H1659 H 0.10888 0.9413 0.11337 0.0
H1660 H 0.08316 0.96906 0.12144 0.0
H1661 H 0.03711 0.83718 0.09959 0.0
H1662 H 0.02306 0.84065 0.1221 0.0
H1663 H 0.06247 0.83968 0.11827 0.0
C1664 C 0.6398 0.77777 0.85626 0.0
C1665 C 0.66639 0.76247 0.85939 0.0
C1666 C 0.6339 0.80482 0.86478 0.0
C1667 C 0.65512 0.81717 0.87673 0.0
C1668 C 0.68218 0.80214 0.87985 0.0
C1669 C 0.68743 0.77484 0.87122 0.0
C1670 C 0.60472 0.8201 0.86104 0.0
C1671 C 0.70529 0.8143 0.89263 0.0
C1672 C 0.64042 0.89883 0.88295 0.0
C1673 C 0.6224 0.89856 0.8984 0.0
C1674 C 0.65383 0.87272 0.8767 0.0
C1675 C 0.64825 0.84571 0.88587 0.0
C1676 C 0.63146 0.84575 0.90212 0.0
C1677 C 0.61838 0.87218 0.90807 0.0
C1678 C 0.67226 0.87368 0.8596 0.0
C1679 C 0.62553 0.81753 0.91249 0.0
H1680 H 0.62329 0.76854 0.84719 0.0
H1681 H 0.708 0.7632 0.87381 0.0
H1682 H 0.60875 0.84251 0.85536 0.0
H1683 H 0.59065 0.80756 0.85133 0.0
H1684 H 0.5922 0.82292 0.87391 0.0
H1685 H 0.72758 0.80506 0.88967 0.0
H1686 H 0.70648 0.83881 0.89194 0.0
H1687 H 0.69932 0.80803 0.90674 0.0
H1688 H 0.64323 0.91931 0.87543 0.0
H1689 H 0.60378 0.87194 0.91978 0.0
H1690 H 0.65979 0.86323 0.84829 0.0
H1691 H 0.69305 0.86093 0.86148 0.0
H1692 H 0.67795 0.89673 0.85561 0.0
H1693 H 0.61065 0.80305 0.90442 0.0
H1694 H 0.61499 0.82184 0.92589 0.0
H1695 H 0.6465 0.80525 0.91473 0.0
C1696 C 0.47254 0.43613 0.11681 0.0
C1697 C 0.48553 0.41466 0.10552 0.0
C1698 C 0.44491 0.43118 0.12506 0.0
C1699 C 0.43021 0.40388 0.12223 0.0
C1700 C 0.44308 0.38225 0.11074 0.0
C1701 C 0.47042 0.38797 0.10246 0.0
C1702 C 0.43211 0.45488 0.13719 0.0
C1703 C 0.42819 0.35276 0.10742 0.0
C1704 C 0.37592 0.36944 0.15507 0.0
C1705 C 0.34927 0.37258 0.14556 0.0
C1706 C 0.40221 0.3818 0.14838 0.0
C1707 C 0.40182 0.39704 0.13157 0.0
C1708 C 0.37457 0.4018 0.12249 0.0
C1709 C 0.34859 0.38907 0.12947 0.0
C1710 C 0.43068 0.37676 0.15866 0.0
C1711 C 0.37318 0.41879 0.10485 0.0
H1712 H 0.48394 0.45689 0.11925 0.0
H1713 H 0.48015 0.3712 0.09377 0.0
H1714 H 0.40758 0.45555 0.13639 0.0
H1715 H 0.43839 0.45004 0.15146 0.0
H1716 H 0.44094 0.47712 0.13368 0.0
H1717 H 0.44102 0.33844 0.09799 0.0
H1718 H 0.42539 0.34079 0.12049 0.0
H1719 H 0.40579 0.35626 0.1016 0.0
H1720 H 0.37649 0.35597 0.16727 0.0
H1721 H 0.32792 0.39117 0.12208 0.0
H1722 H 0.44273 0.39797 0.16039 0.0
H1723 H 0.44521 0.36163 0.15079 0.0
H1724 H 0.42677 0.36692 0.1723 0.0
H1725 H 0.38569 0.43986 0.10604 0.0
H1726 H 0.35002 0.42387 0.1008 0.0
H1727 H 0.38367 0.40557 0.09388 0.0
C1728 C 0.85661 0.10327 0.38045 0.0
C1729 C 0.87322 0.1042 0.39648 0.0
C1730 C 0.84336 0.12904 0.37354 0.0
C1731 C 0.84772 0.15635 0.38264 0.0
C1732 C 0.86298 0.15692 0.39944 0.0
C1733 C 0.87588 0.13085 0.40604 0.0
C1734 C 0.82649 0.12745 0.35587 0.0
C1735 C 0.86765 0.18545 0.40973 0.0
C1736 C 0.85864 0.22449 0.35352 0.0
C1737 C 0.83206 0.24005 0.35614 0.0
C1738 C 0.86361 0.19711 0.36187 0.0
C1739 C 0.84139 0.18466 0.37309 0.0
C1740 C 0.8142 0.19977 0.37551 0.0
C1741 C 0.80992 0.22743 0.3671 0.0
C1742 C 0.89302 0.18179 0.35894 0.0
C1743 C 0.78996 0.18738 0.3874 0.0
H1744 H 0.85484 0.0826 0.37302 0.0
H1745 H 0.88943 0.13163 0.41821 0.0
H1746 H 0.80554 0.1402 0.35687 0.0
H1747 H 0.83994 0.13753 0.34486 0.0
H1748 H 0.82122 0.10425 0.35201 0.0
H1749 H 0.87712 0.1816 0.42348 0.0
H1750 H 0.883 0.19996 0.40201 0.0
H1751 H 0.84637 0.19748 0.41122 0.0
H1752 H 0.87596 0.23389 0.3451 0.0
H1753 H 0.78929 0.23921 0.36924 0.0
H1754 H 0.88941 0.15932 0.35325 0.0
H1755 H 0.90461 0.17912 0.37214 0.0
H1756 H 0.90775 0.19425 0.34957 0.0
H1757 H 0.78887 0.16287 0.38655 0.0
H1758 H 0.76798 0.19665 0.3837 0.0
H1759 H 0.79455 0.19347 0.40174 0.0
C1760 C 0.14537 0.61108 0.63065 0.0
C1761 C 0.14506 0.62872 0.64627 0.0
C1762 C 0.11929 0.59774 0.6243 0.0
C1763 C 0.09227 0.60299 0.63354 0.0
C1764 C 0.09227 0.61945 0.64992 0.0
C1765 C 0.11867 0.63247 0.65596 0.0
C1766 C 0.12029 0.57961 0.60708 0.0
C1767 C 0.06406 0.62501 0.66037 0.0
C1768 C 0.02364 0.61114 0.60448 0.0
C1769 C 0.00854 0.58448 0.60775 0.0
C1770 C 0.05092 0.61712 0.61271 0.0
C1771 C 0.06371 0.59589 0.62449 0.0
C1772 C 0.04894 0.56871 0.62767 0.0
C1773 C 0.0214 0.5634 0.61935 0.0
C1774 C 0.0659 0.64644 0.60893 0.0
C1775 C 0.06155 0.54553 0.64023 0.0
H1776 H 0.16586 0.60848 0.62311 0.0
H1777 H 0.11839 0.64678 0.6678 0.0
H1778 H 0.10782 0.55862 0.6089 0.0
H1779 H 0.10952 0.59211 0.5959 0.0
H1780 H 0.14335 0.57427 0.60295 0.0
H1781 H 0.06832 0.63554 0.67377 0.0
H1782 H 0.04934 0.63974 0.65235 0.0
H1783 H 0.05206 0.60388 0.6626 0.0
H1784 H 0.01402 0.62767 0.59557 0.0
H1785 H 0.00995 0.54276 0.62203 0.0
H1786 H 0.08827 0.64263 0.60313 0.0
H1787 H 0.06878 0.65892 0.6218 0.0
H1788 H 0.0531 0.66043 0.5993 0.0
H1789 H 0.08609 0.54493 0.63964 0.0
H1790 H 0.05288 0.52313 0.63696 0.0
H1791 H 0.0549 0.55089 0.65437 0.0
C1792 C 0.62002 0.12728 0.5946 0.0
C1793 C 0.62288 0.10063 0.60414 0.0
C1794 C 0.63332 0.15327 0.60101 0.0
C1795 C 0.64917 0.15261 0.6176 0.0
C1796 C 0.65369 0.12529 0.62665 0.0
C1797 C 0.64005 0.0996 0.61994 0.0
C1798 C 0.62847 0.18182 0.59076 0.0
C1799 C 0.6712 0.12361 0.64408 0.0
C1800 C 0.68802 0.22338 0.6326 0.0
C1801 C 0.66639 0.23612 0.64389 0.0
C1802 C 0.68322 0.19578 0.62424 0.0
C1803 C 0.65602 0.18087 0.62704 0.0
C1804 C 0.6343 0.19347 0.63856 0.0
C1805 C 0.63978 0.22078 0.64687 0.0
C1806 C 0.70694 0.18324 0.61202 0.0
C1807 C 0.6049 0.17836 0.64189 0.0
H1808 H 0.60606 0.12813 0.58261 0.0
H1809 H 0.64196 0.07892 0.62735 0.0
H1810 H 0.61351 0.19645 0.59869 0.0
H1811 H 0.64977 0.1937 0.58898 0.0
H1812 H 0.61848 0.17802 0.57716 0.0
H1813 H 0.67644 0.10038 0.6479 0.0
H1814 H 0.69221 0.1362 0.64278 0.0
H1815 H 0.65824 0.13382 0.65527 0.0
H1816 H 0.70866 0.23499 0.6302 0.0
H1817 H 0.62286 0.2303 0.65553 0.0
H1818 H 0.70195 0.18951 0.59777 0.0
H1819 H 0.70781 0.15871 0.61279 0.0
H1820 H 0.72913 0.19224 0.61549 0.0
H1821 H 0.59283 0.17573 0.62885 0.0
H1822 H 0.59059 0.19093 0.65145 0.0
H1823 H 0.60856 0.15587 0.64755 0.0
C1824 C 0.1508 0.39236 0.87138 0.0
C1825 C 0.15036 0.37511 0.8556 0.0
C1826 C 0.12482 0.40585 0.8778 0.0
C1827 C 0.09779 0.4011 0.86846 0.0
C1828 C 0.09772 0.38512 0.85191 0.0
C1829 C 0.12399 0.37197 0.8458 0.0
C1830 C 0.12588 0.42347 0.8952 0.0
C1831 C 0.0695 0.38004 0.84136 0.0
C1832 C 0.02869 0.39176 0.89693 0.0
C1833 C 0.01337 0.4183 0.89368 0.0
C1834 C 0.05629 0.38629 0.88898 0.0
C1835 C 0.06921 0.40795 0.87755 0.0
C1836 C 0.05432 0.43509 0.87449 0.0
C1837 C 0.02643 0.43987 0.8825 0.0
C1838 C 0.07138 0.35697 0.89259 0.0
C1839 C 0.06716 0.45874 0.86235 0.0
H1840 H 0.17126 0.39449 0.87899 0.0
H1841 H 0.12359 0.35794 0.83384 0.0
H1842 H 0.1133 0.44445 0.89368 0.0
H1843 H 0.11531 0.41057 0.90628 0.0
H1844 H 0.14897 0.42878 0.8993 0.0
H1845 H 0.07375 0.3699 0.82785 0.0
H1846 H 0.05469 0.36512 0.84919 0.0
H1847 H 0.05761 0.40128 0.83936 0.0
H1848 H 0.01894 0.37487 0.90552 0.0
H1849 H 0.01484 0.46046 0.87989 0.0
H1850 H 0.09369 0.36074 0.89848 0.0
H1851 H 0.07442 0.34477 0.87962 0.0
H1852 H 0.05856 0.34272 0.90206 0.0
H1853 H 0.09167 0.4596 0.86332 0.0
H1854 H 0.0581 0.48095 0.86571 0.0
H1855 H 0.06119 0.4537 0.84806 0.0
C1856 C 0.87813 0.86843 0.09392 0.0
C1857 C 0.87491 0.89498 0.10352 0.0
C1858 C 0.86485 0.84229 0.10016 0.0
C1859 C 0.84863 0.84272 0.11662 0.0
C1860 C 0.84372 0.86996 0.1257 0.0
C1861 C 0.85736 0.89577 0.11917 0.0
C1862 C 0.87013 0.81384 0.0899 0.0
C1863 C 0.82585 0.87142 0.143 0.0
C1864 C 0.81 0.77187 0.13185 0.0
C1865 C 0.83151 0.7595 0.14338 0.0
C1866 C 0.81483 0.79928 0.12324 0.0
C1867 C 0.84193 0.81438 0.12604 0.0
C1868 C 0.86356 0.80211 0.13775 0.0
C1869 C 0.85806 0.77498 0.14628 0.0
C1870 C 0.79125 0.81146 0.11078 0.0
C1871 C 0.89284 0.81743 0.14112 0.0
H1872 H 0.89238 0.86777 0.08205 0.0
H1873 H 0.85517 0.91637 0.12663 0.0
H1874 H 0.88523 0.7994 0.09784 0.0
H1875 H 0.849 0.80169 0.08805 0.0
H1876 H 0.88017 0.81783 0.07632 0.0
H1877 H 0.8203 0.89459 0.1468 0.0
H1878 H 0.805 0.85862 0.14155 0.0
H1879 H 0.83871 0.86133 0.15427 0.0
H1880 H 0.78944 0.76012 0.12946 0.0
H1881 H 0.87491 0.76576 0.15512 0.0
H1882 H 0.79676 0.80535 0.09657 0.0
H1883 H 0.79 0.83597 0.11156 0.0
H1884 H 0.76911 0.80211 0.114 0.0
H1885 H 0.90499 0.82009 0.1281 0.0
H1886 H 0.90718 0.805 0.15073 0.0
H1887 H 0.88898 0.83991 0.14674 0.0
C1888 C 0.46895 0.60744 0.39839 0.0
C1889 C 0.48496 0.5813 0.39519 0.0
C1890 C 0.44146 0.61238 0.39016 0.0
C1891 C 0.42935 0.59055 0.37853 0.0
C1892 C 0.44485 0.56371 0.37561 0.0
C1893 C 0.47263 0.55949 0.38387 0.0
C1894 C 0.42573 0.64142 0.3936 0.0
C1895 C 0.43275 0.53982 0.36335 0.0
C1896 C 0.348 0.60566 0.371 0.0
C1897 C 0.34909 0.62292 0.35523 0.0
C1898 C 0.37373 0.59219 0.37781 0.0
C1899 C 0.40113 0.59706 0.36893 0.0
C1900 C 0.40187 0.61298 0.35236 0.0
C1901 C 0.37583 0.62602 0.34582 0.0
C1902 C 0.37195 0.57453 0.39518 0.0
C1903 C 0.43052 0.61825 0.3423 0.0
H1904 H 0.47812 0.62448 0.4071 0.0
H1905 H 0.48473 0.53917 0.38133 0.0
H1906 H 0.42298 0.65363 0.38061 0.0
H1907 H 0.40329 0.63724 0.39918 0.0
H1908 H 0.43795 0.65584 0.40327 0.0
H1909 H 0.44226 0.51781 0.36673 0.0
H1910 H 0.40825 0.53842 0.36417 0.0
H1911 H 0.43881 0.54505 0.34909 0.0
H1912 H 0.32724 0.60355 0.37831 0.0
H1913 H 0.37671 0.64004 0.33386 0.0
H1914 H 0.38158 0.58762 0.4065 0.0
H1915 H 0.385 0.55379 0.39396 0.0
H1916 H 0.34873 0.5688 0.39875 0.0
H1917 H 0.4448 0.63337 0.35034 0.0
H1918 H 0.42681 0.62824 0.32868 0.0
H1919 H 0.44272 0.59712 0.34056 0.0
C1920 C 0.36851 0.12387 0.10562 0.0
C1921 C 0.38934 0.10829 0.1159 0.0
C1922 C 0.35326 0.14817 0.11304 0.0
C1923 C 0.3574 0.15559 0.13162 0.0
C1924 C 0.3756 0.13736 0.14261 0.0
C1925 C 0.39204 0.11456 0.1345 0.0
C1926 C 0.33296 0.16591 0.10091 0.0
C1927 C 0.37861 0.14229 0.16282 0.0
C1928 C 0.3516 0.23536 0.14751 0.0
C1929 C 0.32105 0.23896 0.1495 0.0
C1930 C 0.36376 0.20826 0.14222 0.0
C1931 C 0.34484 0.18365 0.13906 0.0
C1932 C 0.31395 0.18669 0.14237 0.0
C1933 C 0.30234 0.21457 0.14707 0.0
C1934 C 0.39701 0.20703 0.14036 0.0
C1935 C 0.29278 0.16084 0.14158 0.0
H1936 H 0.36425 0.11713 0.09175 0.0
H1937 H 0.40697 0.10148 0.14281 0.0
H1938 H 0.30969 0.16277 0.10523 0.0
H1939 H 0.33818 0.18988 0.10194 0.0
H1940 H 0.33451 0.15892 0.08648 0.0
H1941 H 0.38323 0.12113 0.16999 0.0
H1942 H 0.39755 0.15735 0.16544 0.0
H1943 H 0.35832 0.15232 0.16872 0.0
H1944 H 0.36625 0.25409 0.14968 0.0
H1945 H 0.2787 0.21709 0.1492 0.0
H1946 H 0.40486 0.22582 0.13189 0.0
H1947 H 0.40534 0.18614 0.13451 0.0
H1948 H 0.40717 0.20991 0.15399 0.0
H1949 H 0.30377 0.1393 0.13895 0.0
H1950 H 0.27591 0.16492 0.13088 0.0
H1951 H 0.28062 0.1592 0.15467 0.0
C1952 C 0.5146 0.60362 0.89661 0.0
C1953 C 0.5108 0.57313 0.89877 0.0
C1954 C 0.54166 0.6155 0.89102 0.0
C1955 C 0.56604 0.59635 0.88767 0.0
C1956 C 0.5628 0.56551 0.89106 0.0
C1957 C 0.53495 0.55418 0.89611 0.0
C1958 C 0.54307 0.64872 0.889 0.0
C1959 C 0.58841 0.54407 0.88997 0.0
C1960 C 0.62586 0.61969 0.85411 0.0
C1961 C 0.64183 0.64014 0.86446 0.0
C1962 C 0.60138 0.6047 0.86153 0.0
C1963 C 0.59416 0.60869 0.88015 0.0
C1964 C 0.61272 0.62648 0.89118 0.0
C1965 C 0.63569 0.64269 0.88309 0.0
C1966 C 0.58324 0.58483 0.84936 0.0
C1967 C 0.60794 0.62926 0.91142 0.0
H1968 H 0.49606 0.61846 0.8989 0.0
H1969 H 0.53229 0.53058 0.89831 0.0
H1970 H 0.53937 0.65913 0.90249 0.0
H1971 H 0.56428 0.65697 0.88356 0.0
H1972 H 0.52478 0.65637 0.88007 0.0
H1973 H 0.58394 0.52742 0.87921 0.0
H1974 H 0.61001 0.55487 0.88724 0.0
H1975 H 0.59017 0.5317 0.90298 0.0
H1976 H 0.63244 0.61553 0.84019 0.0
H1977 H 0.64903 0.65732 0.89144 0.0
H1978 H 0.55938 0.59054 0.85042 0.0
H1979 H 0.58589 0.56148 0.85364 0.0
H1980 H 0.59024 0.58633 0.83493 0.0
H1981 H 0.59238 0.64774 0.91415 0.0
H1982 H 0.62903 0.63435 0.91854 0.0
H1983 H 0.59847 0.60866 0.91727 0.0
C1984 C 0.17654 0.78433 0.65614 0.0
C1985 C 0.18322 0.76096 0.64438 0.0
C1986 C 0.16534 0.81118 0.64933 0.0
C1987 C 0.15887 0.8138 0.63048 0.0
C1988 C 0.16684 0.7903 0.6186 0.0
C1989 C 0.17935 0.76443 0.62571 0.0
C1990 C 0.1604 0.83623 0.66258 0.0
C1991 C 0.16129 0.79093 0.59844 0.0
C1992 C 0.09519 0.867 0.62145 0.0
C1993 C 0.10835 0.88768 0.60988 0.0
C1994 C 0.11099 0.84212 0.62748 0.0
C1995 C 0.14168 0.83972 0.62355 0.0
C1996 C 0.15559 0.86202 0.61295 0.0
C1997 C 0.13844 0.88513 0.60564 0.0
C1998 C 0.0946 0.81843 0.63792 0.0
C1999 C 0.18849 0.86167 0.6093 0.0
H2000 H 0.18012 0.78167 0.67063 0.0
H2001 H 0.18468 0.74618 0.61667 0.0
H2002 H 0.1571 0.85794 0.65581 0.0
H2003 H 0.14081 0.83124 0.67115 0.0
H2004 H 0.17966 0.8381 0.67191 0.0
H2005 H 0.14576 0.77279 0.59484 0.0
H2006 H 0.15212 0.81212 0.59356 0.0
H2007 H 0.18231 0.78655 0.59106 0.0
H2008 H 0.07217 0.86983 0.62531 0.0
H2009 H 0.14885 0.90197 0.59729 0.0
H2010 H 0.09924 0.82082 0.65263 0.0
H2011 H 0.10183 0.79599 0.63361 0.0
H2012 H 0.07025 0.82016 0.63601 0.0
H2013 H 0.20096 0.85324 0.62123 0.0
H2014 H 0.19686 0.88412 0.60585 0.0
H2015 H 0.1932 0.84694 0.59758 0.0
C2016 C 0.96722 0.44669 0.39634 0.0
C2017 C 0.99162 0.42804 0.39888 0.0
C2018 C 0.93955 0.4351 0.39119 0.0
C2019 C 0.93675 0.40431 0.38752 0.0
C2020 C 0.96137 0.38541 0.39075 0.0
C2021 C 0.98826 0.39754 0.39652 0.0
C2022 C 0.91365 0.45621 0.39028 0.0
C2023 C 0.9604 0.35224 0.38841 0.0
C2024 C 0.86694 0.35821 0.38212 0.0
C2025 C 0.86076 0.36172 0.36356 0.0
C2026 C 0.89017 0.37375 0.39045 0.0
C2027 C 0.90886 0.3919 0.37971 0.0
C2028 C 0.90173 0.39667 0.36115 0.0
C2029 C 0.87706 0.38232 0.35352 0.0
C2030 C 0.89493 0.37003 0.41063 0.0
C2031 C 0.92013 0.41677 0.34926 0.0
H2032 H 0.96955 0.47028 0.39873 0.0
H2033 H 0.00702 0.38295 0.39875 0.0
H2034 H 0.89219 0.44519 0.38747 0.0
H2035 H 0.91172 0.46826 0.40339 0.0
H2036 H 0.91788 0.47317 0.37966 0.0
H2037 H 0.97891 0.34501 0.37952 0.0
H2038 H 0.96397 0.34153 0.40182 0.0
H2039 H 0.93936 0.34393 0.38276 0.0
H2040 H 0.85341 0.3434 0.39023 0.0
H2041 H 0.87057 0.38712 0.33966 0.0
H2042 H 0.9045 0.39029 0.41684 0.0
H2043 H 0.91039 0.35134 0.41304 0.0
H2044 H 0.87381 0.36472 0.41768 0.0
H2045 H 0.91335 0.41564 0.33479 0.0
H2046 H 0.94396 0.41096 0.3504 0.0
H2047 H 0.91748 0.44003 0.35373 0.0
C2048 C 0.30949 0.78275 0.35395 0.0
C2049 C 0.32534 0.75612 0.35434 0.0
C2050 C 0.32293 0.80939 0.35957 0.0
C2051 C 0.35231 0.80888 0.36646 0.0
C2052 C 0.36809 0.78178 0.3668 0.0
C2053 C 0.35451 0.75591 0.3606 0.0
C2054 C 0.30611 0.8381 0.35764 0.0
C2055 C 0.39885 0.77909 0.37447 0.0
C2056 C 0.40183 0.87682 0.36884 0.0
C2057 C 0.39748 0.88628 0.38678 0.0
C2058 C 0.38641 0.85236 0.36184 0.0
C2059 C 0.36668 0.8365 0.37322 0.0
C2060 C 0.36202 0.84615 0.39132 0.0
C2061 C 0.37677 0.87155 0.39767 0.0
C2062 C 0.39164 0.84313 0.34238 0.0
C2063 C 0.34197 0.82933 0.40408 0.0
H2064 H 0.28699 0.78286 0.3488 0.0
H2065 H 0.36664 0.73517 0.3611 0.0
H2066 H 0.30297 0.84858 0.37113 0.0
H2067 H 0.31909 0.85383 0.3492 0.0
H2068 H 0.28404 0.83488 0.35127 0.0
H2069 H 0.41178 0.76185 0.36717 0.0
H2070 H 0.41142 0.80011 0.37396 0.0
H2071 H 0.39667 0.77186 0.3888 0.0
H2072 H 0.41723 0.88873 0.3602 0.0
H2073 H 0.37192 0.88004 0.4111 0.0
H2074 H 0.3702 0.83971 0.3353 0.0
H2075 H 0.40377 0.82176 0.34212 0.0
H2076 H 0.40478 0.85979 0.33472 0.0
H2077 H 0.3193 0.82788 0.3984 0.0
H2078 H 0.34064 0.83981 0.41772 0.0
H2079 H 0.35024 0.80631 0.40564 0.0
C2080 C 0.98679 0.60182 0.10514 0.0
C2081 C 0.99035 0.57131 0.1029 0.0
C2082 C 0.95981 0.61386 0.11081 0.0
C2083 C 0.93528 0.59487 0.11409 0.0
C2084 C 0.93829 0.56403 0.11059 0.0
C2085 C 0.96605 0.55255 0.10551 0.0
C2086 C 0.95864 0.64706 0.11297 0.0
C2087 C 0.91252 0.54278 0.11157 0.0
C2088 C 0.87513 0.6173 0.14772 0.0
C2089 C 0.85892 0.6377 0.13747 0.0
C2090 C 0.8999 0.60282 0.14027 0.0
C2091 C 0.90723 0.60726 0.1217 0.0
C2092 C 0.88859 0.62515 0.11077 0.0
C2093 C 0.86526 0.64082 0.11891 0.0
C2094 C 0.91818 0.58294 0.15236 0.0
C2095 C 0.89353 0.62847 0.09057 0.0
H2096 H 0.00546 0.6165 0.10286 0.0
H2097 H 0.96853 0.52895 0.10323 0.0
H2098 H 0.96247 0.6576 0.09953 0.0
H2099 H 0.93745 0.65536 0.1184 0.0
H2100 H 0.97693 0.65448 0.12197 0.0
H2101 H 0.91683 0.52599 0.12228 0.0
H2102 H 0.89098 0.5537 0.1143 0.0
H2103 H 0.91072 0.53055 0.09852 0.0
H2104 H 0.86849 0.61275 0.16158 0.0
H2105 H 0.85179 0.65546 0.11063 0.0
H2106 H 0.94201 0.58879 0.1513 0.0
H2107 H 0.91565 0.55961 0.148 0.0
H2108 H 0.91121 0.58427 0.16679 0.0
H2109 H 0.90901 0.6471 0.08807 0.0
H2110 H 0.87247 0.63362 0.08342 0.0
H2111 H 0.90317 0.60808 0.08456 0.0
C2112 C 0.1973 0.21657 0.85655 0.0
C2113 C 0.17859 0.24094 0.85406 0.0
C2114 C 0.18576 0.18879 0.86155 0.0
C2115 C 0.15493 0.18581 0.8651 0.0
C2116 C 0.13601 0.21045 0.862 0.0
C2117 C 0.14809 0.23746 0.8564 0.0
C2118 C 0.20696 0.16295 0.86239 0.0
C2119 C 0.10282 0.20938 0.86429 0.0
C2120 C 0.10884 0.11576 0.86927 0.0
C2121 C 0.11195 0.10893 0.88777 0.0
C2122 C 0.12453 0.13928 0.86136 0.0
C2123 C 0.14244 0.15762 0.87247 0.0
C2124 C 0.14681 0.14986 0.89098 0.0
C2125 C 0.13231 0.12491 0.89819 0.0
C2126 C 0.12123 0.14473 0.84121 0.0
C2127 C 0.16664 0.16787 0.90324 0.0
H2128 H 0.2209 0.21901 0.85421 0.0
H2129 H 0.13344 0.2562 0.85425 0.0
H2130 H 0.19597 0.1414 0.86497 0.0
H2131 H 0.21924 0.16134 0.84934 0.0
H2132 H 0.22371 0.16704 0.87315 0.0
H2133 H 0.0956 0.22748 0.87349 0.0
H2134 H 0.09214 0.21359 0.85093 0.0
H2135 H 0.09448 0.1881 0.86956 0.0
H2136 H 0.09422 0.1025 0.86086 0.0
H2137 H 0.13683 0.11794 0.91199 0.0
H2138 H 0.14172 0.15431 0.83528 0.0
H2139 H 0.10277 0.16048 0.83887 0.0
H2140 H 0.11586 0.12391 0.83387 0.0
H2141 H 0.16533 0.16051 0.91761 0.0
H2142 H 0.16073 0.1917 0.90242 0.0
H2143 H 0.18998 0.16553 0.89885 0.0
C2144 C 0.53136 0.44397 0.60613 0.0
C2145 C 0.50672 0.4256 0.60373 0.0
C2146 C 0.55889 0.43211 0.61137 0.0
C2147 C 0.56129 0.40134 0.61526 0.0
C2148 C 0.53631 0.38277 0.61238 0.0
C2149 C 0.50959 0.39514 0.60652 0.0
C2150 C 0.58507 0.45288 0.61208 0.0
C2151 C 0.53673 0.34968 0.61518 0.0
C2152 C 0.63081 0.35447 0.6194 0.0
C2153 C 0.63801 0.35792 0.63782 0.0
C2154 C 0.60728 0.37019 0.61154 0.0
C2155 C 0.58933 0.38852 0.62262 0.0
C2156 C 0.59738 0.39313 0.64106 0.0
C2157 C 0.62233 0.37856 0.64821 0.0
C2158 C 0.60144 0.36655 0.59145 0.0
C2159 C 0.57969 0.41329 0.65329 0.0
H2160 H 0.52937 0.46752 0.60347 0.0
H2161 H 0.49059 0.38078 0.6045 0.0
H2162 H 0.60645 0.44158 0.61471 0.0
H2163 H 0.58688 0.46496 0.59897 0.0
H2164 H 0.58128 0.46983 0.62276 0.0
H2165 H 0.53189 0.33852 0.60206 0.0
H2166 H 0.55798 0.3411 0.62036 0.0
H2167 H 0.51875 0.34327 0.62469 0.0
H2168 H 0.64381 0.33958 0.61101 0.0
H2169 H 0.62957 0.38328 0.66193 0.0
H2170 H 0.59248 0.38722 0.58539 0.0
H2171 H 0.585 0.34862 0.58937 0.0
H2172 H 0.62193 0.36027 0.58403 0.0
H2173 H 0.58206 0.43652 0.64871 0.0
H2174 H 0.58728 0.41221 0.66762 0.0
H2175 H 0.55582 0.40747 0.65266 0.0
C2176 C 0.26296 0.31473 0.23284 0.0
C2177 C 0.27085 0.30038 0.21665 0.0
C2178 C 0.25577 0.29841 0.24851 0.0
C2179 C 0.25697 0.26705 0.24801 0.0
C2180 C 0.26605 0.25252 0.23192 0.0
C2181 C 0.27263 0.26931 0.21642 0.0
C2182 C 0.24578 0.31467 0.26536 0.0
C2183 C 0.26796 0.21915 0.2309 0.0
C2184 C 0.25252 0.22453 0.29275 0.0
C2185 C 0.22233 0.21718 0.2933 0.0
C2186 C 0.26437 0.24046 0.27797 0.0
C2187 C 0.24552 0.24936 0.26356 0.0
C2188 C 0.21526 0.24138 0.26387 0.0
C2189 C 0.20416 0.22526 0.27859 0.0
C2190 C 0.29689 0.24818 0.2779 0.0
C2191 C 0.19436 0.25042 0.24879 0.0
H2192 H 0.26173 0.3387 0.23317 0.0
H2193 H 0.2793 0.25799 0.20408 0.0
H2194 H 0.22217 0.30949 0.26812 0.0
H2195 H 0.25873 0.30722 0.27733 0.0
H2196 H 0.24815 0.33906 0.26399 0.0
H2197 H 0.27835 0.21145 0.21805 0.0
H2198 H 0.28093 0.21038 0.24252 0.0
H2199 H 0.24541 0.2095 0.23181 0.0
H2200 H 0.26675 0.21842 0.30401 0.0
H2201 H 0.18084 0.21955 0.27869 0.0
H2202 H 0.29962 0.27259 0.27835 0.0
H2203 H 0.30737 0.24031 0.26513 0.0
H2204 H 0.30887 0.23835 0.28963 0.0
H2205 H 0.19398 0.27491 0.24752 0.0
H2206 H 0.17136 0.24256 0.25116 0.0
H2207 H 0.20217 0.24138 0.23561 0.0
C2208 C 0.02152 0.00686 0.54413 0.0
C2209 C 0.03145 0.97746 0.54305 0.0
C2210 C 0.0052 0.0196 0.52978 0.0
C2211 C 0.99853 0.0024 0.51418 0.0
C2212 C 0.00926 0.97309 0.51284 0.0
C2213 C 0.02574 0.96115 0.52715 0.0
C2214 C 0.99458 0.05116 0.53146 0.0
C2215 C 0.0027 0.95393 0.49646 0.0
C2216 C 0.93267 0.01717 0.48341 0.0
C2217 C 0.9467 0.02801 0.46777 0.0
C2218 C 0.94912 0.01005 0.49903 0.0
C2219 C 0.98021 0.01447 0.49909 0.0
C2220 C 0.99422 0.02685 0.48366 0.0
C2221 C 0.97737 0.03317 0.46814 0.0
C2222 C 0.93346 0.99643 0.51512 0.0
C2223 C 0.02722 0.03236 0.48327 0.0
H2224 H 0.02582 0.01964 0.55632 0.0
H2225 H 0.03358 0.93854 0.52597 0.0
H2226 H 0.00138 0.06413 0.51933 0.0
H2227 H 0.97003 0.05159 0.53201 0.0
H2228 H 0.00337 0.06222 0.54383 0.0
H2229 H 0.01255 0.93146 0.49762 0.0
H2230 H 0.9784 0.95156 0.49473 0.0
H2231 H 0.01145 0.96454 0.48396 0.0
H2232 H 0.90896 0.01337 0.48324 0.0
H2233 H 0.9883 0.0422 0.45624 0.0
H2234 H 0.9395 0.00824 0.52781 0.0
H2235 H 0.94062 0.97305 0.5167 0.0
H2236 H 0.90899 0.99688 0.51358 0.0
H2237 H 0.03434 0.04413 0.49577 0.0
H2238 H 0.03404 0.04559 0.47124 0.0
H2239 H 0.03915 0.01089 0.48289 0.0
C2240 C 0.23048 0.73218 0.71379 0.0
C2241 C 0.22895 0.70115 0.71473 0.0
C2242 C 0.2372 0.74918 0.72919 0.0
C2243 C 0.24296 0.73484 0.74593 0.0
C2244 C 0.24082 0.70359 0.74709 0.0
C2245 C 0.23368 0.68713 0.7315 0.0
C2246 C 0.23905 0.78246 0.72742 0.0
C2247 C 0.24723 0.68746 0.76464 0.0
C2248 C 0.29764 0.77249 0.77714 0.0
C2249 C 0.2794 0.78402 0.79094 0.0
C2250 C 0.28595 0.7565 0.76257 0.0
C2251 C 0.25504 0.75209 0.76146 0.0
C2252 C 0.23623 0.76408 0.77504 0.0
C2253 C 0.24867 0.77982 0.78973 0.0
C2254 C 0.30685 0.74398 0.74845 0.0
C2255 C 0.2031 0.76008 0.77409 0.0
H2256 H 0.22629 0.74332 0.70099 0.0
H2257 H 0.23228 0.6632 0.73241 0.0
H2258 H 0.22618 0.79333 0.7384 0.0
H2259 H 0.26242 0.78966 0.72888 0.0
H2260 H 0.23064 0.7904 0.71408 0.0
H2261 H 0.24207 0.66345 0.76373 0.0
H2262 H 0.27101 0.68999 0.76814 0.0
H2263 H 0.23421 0.69721 0.77595 0.0
H2264 H 0.32144 0.77548 0.77779 0.0
H2265 H 0.23439 0.78862 0.80027 0.0
H2266 H 0.30136 0.75301 0.73484 0.0
H2267 H 0.30435 0.71956 0.74771 0.0
H2268 H 0.33041 0.74915 0.75144 0.0
H2269 H 0.19458 0.76881 0.76099 0.0
H2270 H 0.19146 0.7715 0.7854 0.0
H2271 H 0.19754 0.73616 0.77458 0.0
C2272 C 0.47245 3e-05 0.04143 0.0
C2273 C 0.46463 0.03006 0.04245 0.0
C2274 C 0.48815 0.98898 0.02634 0.0
C2275 C 0.49638 0.0085 0.01211 0.0
C2276 C 0.48781 0.03856 0.01285 0.0
C2277 C 0.47188 0.04887 0.02787 0.0
C2278 C 0.49649 0.95663 0.02579 0.0
C2279 C 0.4962 0.06016 0.998 0.0
C2280 C 0.56267 0.99253 0.98189 0.0
C2281 C 0.54888 0.9843 0.96558 0.0
C2282 C 0.54584 0.99971 0.99733 0.0
C2283 C 0.51453 0.99804 0.99652 0.0
C2284 C 0.50053 0.98898 0.98024 0.0
C2285 C 0.51785 0.98251 0.96492 0.0
C2286 C 0.56153 0.00984 0.01436 0.0
C2287 C 0.46724 0.98652 0.97892 0.0
H2288 H 0.46692 0.98531 0.05257 0.0
H2289 H 0.46578 0.07207 0.02833 0.0
H2290 H 0.48907 0.94655 0.0128 0.0
H2291 H 0.52094 0.95435 0.02638 0.0
H2292 H 0.48669 0.94396 0.03726 0.0
H2293 H 0.48756 0.08281 0.00059 0.0
H2294 H 0.52068 0.06139 0.99682 0.0
H2295 H 0.48754 0.05243 0.98472 0.0
H2296 H 0.58663 0.99378 0.98251 0.0
H2297 H 0.50701 0.97557 0.95248 0.0
H2298 H 0.55461 0.9961 0.02612 0.0
H2299 H 0.55525 0.03307 0.01744 0.0
H2300 H 0.58602 0.00863 0.01304 0.0
H2301 H 0.45853 0.97276 0.99022 0.0
H2302 H 0.45997 0.97667 0.96581 0.0
H2303 H 0.45711 0.00881 0.98022 0.0
C2304 C 0.26551 0.68471 0.26835 0.0
C2305 C 0.27262 0.69885 0.28475 0.0
C2306 C 0.25838 0.7012 0.25275 0.0
C2307 C 0.25875 0.73256 0.25353 0.0
C2308 C 0.26699 0.74693 0.26985 0.0
C2309 C 0.27361 0.72995 0.28527 0.0
C2310 C 0.24934 0.68508 0.23564 0.0
C2311 C 0.26792 0.78031 0.27118 0.0
C2312 C 0.25415 0.77572 0.20904 0.0
C2313 C 0.22377 0.78217 0.20826 0.0
C2314 C 0.26612 0.75995 0.22385 0.0
C2315 C 0.24719 0.75025 0.23803 0.0
C2316 C 0.21671 0.75727 0.23747 0.0
C2317 C 0.20548 0.77327 0.22274 0.0
C2318 C 0.29886 0.75325 0.2242 0.0
C2319 C 0.19571 0.74731 0.25228 0.0
H2320 H 0.26489 0.66073 0.26778 0.0
H2321 H 0.27961 0.74114 0.29778 0.0
H2322 H 0.22566 0.68961 0.2327 0.0
H2323 H 0.26237 0.69322 0.22387 0.0
H2324 H 0.25242 0.66074 0.23681 0.0
H2325 H 0.27778 0.78798 0.2842 0.0
H2326 H 0.2809 0.78974 0.25976 0.0
H2327 H 0.24512 0.78933 0.27016 0.0
H2328 H 0.26848 0.78249 0.19797 0.0
H2329 H 0.18199 0.77821 0.22245 0.0
H2330 H 0.30237 0.72895 0.22362 0.0
H2331 H 0.30874 0.76122 0.23711 0.0
H2332 H 0.31083 0.76365 0.21265 0.0
H2333 H 0.19598 0.72279 0.25334 0.0
H2334 H 0.17256 0.75458 0.24977 0.0
H2335 H 0.20294 0.75625 0.26561 0.0
C2336 C 0.47422 0.00549 0.45697 0.0
C2337 C 0.46289 0.97659 0.45784 0.0
C2338 C 0.48969 0.01772 0.4718 0.0
C2339 C 0.49412 0.00048 0.48768 0.0
C2340 C 0.48143 0.97194 0.48893 0.0
C2341 C 0.46574 0.96054 0.47412 0.0
C2342 C 0.50227 0.04858 0.47022 0.0
C2343 C 0.48562 0.95277 0.50559 0.0
C2344 C 0.56062 0.01184 0.51847 0.0
C2345 C 0.5473 0.0242 0.5339 0.0
C2346 C 0.54372 0.00498 0.503 0.0
C2347 C 0.51296 0.01136 0.50285 0.0
C2348 C 0.49973 0.02514 0.51808 0.0
C2349 C 0.51697 0.03105 0.5335 0.0
C2350 C 0.55851 0.98977 0.48713 0.0
C2351 C 0.46719 0.0329 0.51829 0.0
H2352 H 0.47209 0.01808 0.44449 0.0
H2353 H 0.45668 0.93835 0.4751 0.0
H2354 H 0.49667 0.06181 0.48246 0.0
H2355 H 0.52677 0.04738 0.46938 0.0
H2356 H 0.49391 0.06034 0.45798 0.0
H2357 H 0.47376 0.93128 0.50451 0.0
H2358 H 0.50955 0.9482 0.50761 0.0
H2359 H 0.47757 0.96449 0.51788 0.0
H2360 H 0.58408 0.00671 0.5187 0.0
H2361 H 0.50668 0.04124 0.54527 0.0
H2362 H 0.55398 0.00201 0.47436 0.0
H2363 H 0.54922 0.96716 0.48551 0.0
H2364 H 0.58287 0.98793 0.48894 0.0
H2365 H 0.46109 0.04504 0.50572 0.0
H2366 H 0.46113 0.04668 0.53024 0.0
H2367 H 0.45378 0.01233 0.51865 0.0
C2368 C 0.23128 0.26926 0.78699 0.0
C2369 C 0.23007 0.30032 0.7861 0.0
C2370 C 0.23781 0.25222 0.77157 0.0
C2371 C 0.24364 0.26654 0.75484 0.0
C2372 C 0.2419 0.29782 0.75372 0.0
C2373 C 0.23498 0.31433 0.76934 0.0
C2374 C 0.23925 0.21891 0.7733 0.0
C2375 C 0.24834 0.3139 0.73616 0.0
C2376 C 0.29635 0.22786 0.72272 0.0
C2377 C 0.2773 0.21706 0.70912 0.0
C2378 C 0.28557 0.24391 0.73756 0.0
C2379 C 0.25482 0.24907 0.73913 0.0
C2380 C 0.23522 0.23763 0.72581 0.0
C2381 C 0.24672 0.22185 0.71086 0.0
C2382 C 0.30727 0.25581 0.75141 0.0
C2383 C 0.20222 0.24237 0.72725 0.0
H2384 H 0.22703 0.25811 0.79978 0.0
H2385 H 0.23388 0.33827 0.76846 0.0
H2386 H 0.22575 0.20827 0.76252 0.0
H2387 H 0.26244 0.21136 0.77145 0.0
H2388 H 0.23129 0.21106 0.78676 0.0
H2389 H 0.2439 0.33804 0.73718 0.0
H2390 H 0.27194 0.31069 0.7324 0.0
H2391 H 0.23475 0.30462 0.72496 0.0
H2392 H 0.32003 0.22433 0.72166 0.0
H2393 H 0.23182 0.21362 0.70047 0.0
H2394 H 0.30196 0.24695 0.76509 0.0
H2395 H 0.30548 0.28029 0.75217 0.0
H2396 H 0.33057 0.24997 0.74812 0.0
H2397 H 0.19403 0.23399 0.74051 0.0
H2398 H 0.18988 0.23111 0.71617 0.0
H2399 H 0.19719 0.26641 0.72673 0.0
C2400 C 0.02828 0.04414 0.9742 0.0
C2401 C 0.03643 0.02611 0.95944 0.0
C2402 C 0.01183 0.03295 0.98878 0.0
C2403 C 0.00355 0.00277 0.98886 0.0
C2404 C 0.01256 0.98405 0.97441 0.0
C2405 C 0.02883 0.99597 0.95979 0.0
C2406 C 0.00269 0.05371 0.0039 0.0
C2407 C 0.00453 0.95161 0.97424 0.0
C2408 C 0.9819 0.97443 0.0355 0.0
C2409 C 0.95084 0.97621 0.03487 0.0
C2410 C 0.99925 0.98159 0.02032 0.0
C2411 C 0.98531 0.99125 0.00416 0.0
C2412 C 0.95398 0.99263 0.00329 0.0
C2413 C 0.93709 0.98485 0.01862 0.0
C2414 C 0.03257 0.97948 0.02173 0.0
C2415 C 0.93833 0.00327 0.98637 0.0
H2416 H 0.03418 0.06741 0.97425 0.0
H2417 H 0.03499 0.98185 0.94849 0.0
H2418 H 0.97818 0.05443 0.00492 0.0
H2419 H 0.01123 0.04553 0.01712 0.0
H2420 H 0.01096 0.07663 0.00177 0.0
H2421 H 0.01456 0.93969 0.96254 0.0
H2422 H 0.01195 0.94089 0.98702 0.0
H2423 H 0.98011 0.94912 0.97353 0.0
H2424 H 0.99276 0.96724 0.04789 0.0
H2425 H 0.91314 0.98612 0.01799 0.0
H2426 H 0.0424 0.00196 0.02098 0.0
H2427 H 0.0416 0.96653 0.01017 0.0
H2428 H 0.03981 0.96894 0.03463 0.0
H2429 H 0.94403 0.02682 0.98383 0.0
H2430 H 0.91387 0.00134 0.98749 0.0
H2431 H 0.94583 0.9904 0.97438 0.0
C2432 C 0.76329 0.8163 0.73197 0.0
C2433 C 0.76783 0.80196 0.71527 0.0
C2434 C 0.75638 0.8001 0.74773 0.0
C2435 C 0.75427 0.76883 0.7468 0.0
C2436 C 0.75975 0.75418 0.73014 0.0
C2437 C 0.76627 0.77089 0.71459 0.0
C2438 C 0.75034 0.81652 0.76522 0.0
C2439 C 0.75789 0.72086 0.72861 0.0
C2440 C 0.75126 0.72401 0.79075 0.0
C2441 C 0.72067 0.71932 0.79255 0.0
C2442 C 0.76271 0.73998 0.77586 0.0
C2443 C 0.74308 0.75169 0.76265 0.0
C2444 C 0.7123 0.7468 0.76434 0.0
C2445 C 0.70155 0.73059 0.77913 0.0
C2446 C 0.79573 0.74448 0.77431 0.0
C2447 C 0.69055 0.75897 0.7506 0.0
H2448 H 0.76466 0.84024 0.73269 0.0
H2449 H 0.77023 0.75947 0.70185 0.0
H2450 H 0.72674 0.81373 0.76907 0.0
H2451 H 0.7639 0.8072 0.77642 0.0
H2452 H 0.75513 0.84058 0.76405 0.0
H2453 H 0.76556 0.71271 0.71516 0.0
H2454 H 0.7714 0.71022 0.73938 0.0
H2455 H 0.73463 0.71362 0.73062 0.0
H2456 H 0.76621 0.71544 0.80101 0.0
H2457 H 0.67786 0.72721 0.78025 0.0
H2458 H 0.80094 0.76849 0.77452 0.0
H2459 H 0.80378 0.73561 0.76114 0.0
H2460 H 0.80807 0.73347 0.7855 0.0
H2461 H 0.69275 0.7834 0.74974 0.0
H2462 H 0.66722 0.75354 0.75406 0.0
H2463 H 0.69548 0.74988 0.73692 0.0
C2464 C 0.73468 0.23503 0.21201 0.0
C2465 C 0.73444 0.20398 0.21324 0.0
C2466 C 0.74123 0.25267 0.22718 0.0
C2467 C 0.74822 0.23899 0.24394 0.0
C2468 C 0.74773 0.20769 0.24535 0.0
C2469 C 0.74063 0.19057 0.23002 0.0
C2470 C 0.74119 0.28597 0.22518 0.0
C2471 C 0.75555 0.19227 0.26292 0.0
C2472 C 0.80008 0.27957 0.2757 0.0
C2473 C 0.78102 0.28894 0.2897 0.0
C2474 C 0.78954 0.26362 0.26075 0.0
C2475 C 0.759 0.25719 0.25944 0.0
C2476 C 0.73931 0.26754 0.27306 0.0
C2477 C 0.75058 0.28319 0.28812 0.0
C2478 C 0.81136 0.25289 0.2466 0.0
C2479 C 0.70649 0.26154 0.27188 0.0
H2480 H 0.72938 0.24566 0.1992 0.0
H2481 H 0.7403 0.16663 0.23113 0.0
H2482 H 0.72747 0.29622 0.236 0.0
H2483 H 0.76405 0.29458 0.22677 0.0
H2484 H 0.73259 0.29319 0.21173 0.0
H2485 H 0.75257 0.16788 0.26206 0.0
H2486 H 0.77898 0.19696 0.26646 0.0
H2487 H 0.74165 0.20085 0.27418 0.0
H2488 H 0.82363 0.28399 0.27658 0.0
H2489 H 0.73566 0.29035 0.2988 0.0
H2490 H 0.80508 0.26135 0.23298 0.0
H2491 H 0.81088 0.22834 0.24592 0.0
H2492 H 0.83441 0.26003 0.24956 0.0
H2493 H 0.69778 0.269 0.25854 0.0
H2494 H 0.69391 0.27282 0.28286 0.0
H2495 H 0.70239 0.23736 0.27285 0.0
C2496 C 0.76452 0.18442 0.76841 0.0
C2497 C 0.77334 0.1984 0.78454 0.0
C2498 C 0.75655 0.2011 0.75303 0.0
C2499 C 0.75793 0.23244 0.75375 0.0
C2500 C 0.76784 0.2466 0.76978 0.0
C2501 C 0.77519 0.22945 0.785 0.0
C2502 C 0.74566 0.18523 0.73625 0.0
C2503 C 0.76996 0.27993 0.77102 0.0
C2504 C 0.75224 0.27557 0.70931 0.0
C2505 C 0.72209 0.28314 0.70918 0.0
C2506 C 0.76448 0.25941 0.72386 0.0
C2507 C 0.74606 0.25048 0.73848 0.0
C2508 C 0.71586 0.2587 0.73861 0.0
C2509 C 0.70436 0.27505 0.72409 0.0
C2510 C 0.79693 0.25142 0.72346 0.0
C2511 C 0.69543 0.24965 0.75393 0.0
H2512 H 0.76321 0.16046 0.76791 0.0
H2513 H 0.78254 0.24048 0.7973 0.0
H2514 H 0.72203 0.19078 0.73387 0.0
H2515 H 0.75824 0.19269 0.72413 0.0
H2516 H 0.74776 0.16079 0.73744 0.0
H2517 H 0.78079 0.28734 0.78379 0.0
H2518 H 0.78262 0.28885 0.7593 0.0
H2519 H 0.74744 0.28973 0.77043 0.0
H2520 H 0.76613 0.28169 0.69789 0.0
H2521 H 0.68108 0.28092 0.72431 0.0
H2522 H 0.79944 0.227 0.72282 0.0
H2523 H 0.80791 0.25899 0.73613 0.0
H2524 H 0.80858 0.26135 0.71163 0.0
H2525 H 0.69481 0.22514 0.75504 0.0
H2526 H 0.67244 0.25781 0.75194 0.0
H2527 H 0.70383 0.25835 0.76705 0.0
C2528 C 0.7394 0.81272 0.26955 0.0
C2529 C 0.73204 0.79927 0.28614 0.0
C2530 C 0.74628 0.79559 0.25417 0.0
C2531 C 0.7454 0.76427 0.25535 0.0
C2532 C 0.73706 0.75059 0.27188 0.0
C2533 C 0.7307 0.76822 0.28708 0.0
C2534 C 0.75549 0.81098 0.23685 0.0
C2535 C 0.73558 0.71729 0.27364 0.0
C2536 C 0.74832 0.72019 0.21114 0.0
C2537 C 0.77857 0.71324 0.21013 0.0
C2538 C 0.73692 0.73632 0.22597 0.0
C2539 C 0.7563 0.74588 0.23996 0.0
C2540 C 0.78663 0.73826 0.23922 0.0
C2541 C 0.79728 0.7219 0.22446 0.0
C2542 C 0.70432 0.74364 0.22652 0.0
C2543 C 0.8081 0.74806 0.25381 0.0
H2544 H 0.74031 0.83667 0.26865 0.0
H2545 H 0.72453 0.75756 0.29974 0.0
H2546 H 0.77897 0.80567 0.23378 0.0
H2547 H 0.742 0.80292 0.22526 0.0
H2548 H 0.75315 0.83543 0.23777 0.0
H2549 H 0.72591 0.71021 0.28683 0.0
H2550 H 0.72213 0.70776 0.26245 0.0
H2551 H 0.75817 0.70781 0.27249 0.0
H2552 H 0.73367 0.71359 0.20019 0.0
H2553 H 0.82067 0.71653 0.22402 0.0
H2554 H 0.70125 0.76797 0.22564 0.0
H2555 H 0.69459 0.73632 0.23962 0.0
H2556 H 0.6919 0.73305 0.21522 0.0
H2557 H 0.80847 0.7726 0.2546 0.0
H2558 H 0.83101 0.74012 0.25124 0.0
H2559 H 0.80084 0.73968 0.26726 0.0
C2560 C 0.52185 0.50594 0.04381 0.0
C2561 C 0.5329 0.47699 0.04241 0.0
C2562 C 0.50559 0.51868 0.02943 0.0
C2563 C 0.50012 0.50191 0.01348 0.0
C2564 C 0.51211 0.47313 0.01181 0.0
C2565 C 0.52854 0.46123 0.02614 0.0
C2566 C 0.49368 0.54972 0.03147 0.0
C2567 C 0.50687 0.45443 0.99505 0.0
C2568 C 0.4344 0.51483 0.9823 0.0
C2569 C 0.44838 0.52653 0.96689 0.0
C2570 C 0.45076 0.50802 0.99801 0.0
C2571 C 0.48164 0.51377 0.99841 0.0
C2572 C 0.49546 0.52717 0.98324 0.0
C2573 C 0.47876 0.53304 0.9676 0.0
C2574 C 0.43533 0.49324 0.01379 0.0
C2575 C 0.52817 0.53422 0.98325 0.0
H2576 H 0.52511 0.51828 0.05629 0.0
H2577 H 0.53732 0.43901 0.02472 0.0
H2578 H 0.49985 0.56333 0.01949 0.0
H2579 H 0.46914 0.54909 0.03207 0.0
H2580 H 0.50205 0.56075 0.04396 0.0
H2581 H 0.51762 0.43235 0.99598 0.0
H2582 H 0.48274 0.45112 0.993 0.0
H2583 H 0.51552 0.46592 0.98283 0.0
H2584 H 0.41088 0.51001 0.98184 0.0
H2585 H 0.48956 0.54278 0.95586 0.0
H2586 H 0.44054 0.5049 0.02667 0.0
H2587 H 0.44345 0.47014 0.01517 0.0
H2588 H 0.4109 0.49268 0.01202 0.0
H2589 H 0.53447 0.54574 0.996 0.0
H2590 H 0.53462 0.54829 0.9715 0.0
H2591 H 0.54109 0.51335 0.98261 0.0
C2592 C 0.06294 0.49016 0.48285 0.0
C2593 C 0.0494 0.48091 0.46667 0.0
C2594 C 0.04589 0.49745 0.49819 0.0
C2595 C 0.01462 0.49493 0.4974 0.0
C2596 C 0.00093 0.48461 0.48131 0.0
C2597 C 0.01843 0.47798 0.46611 0.0
C2598 C 0.06124 0.50883 0.51503 0.0
C2599 C 0.96771 0.48127 0.47999 0.0
C2600 C 0.97135 0.49871 0.54185 0.0
C2601 C 0.96275 0.52858 0.54207 0.0
C2602 C 0.98786 0.48716 0.52723 0.0
C2603 C 0.99608 0.50599 0.51266 0.0
C2604 C 0.98676 0.53587 0.51261 0.0
C2605 C 0.97008 0.54668 0.52718 0.0
C2606 C 0.99701 0.45502 0.52753 0.0
C2607 C 0.99504 0.55673 0.49734 0.0
H2608 H 0.08684 0.4923 0.48341 0.0
H2609 H 0.00777 0.47028 0.45378 0.0
H2610 H 0.05474 0.5322 0.51748 0.0
H2611 H 0.05425 0.49586 0.5271 0.0
H2612 H 0.08575 0.50773 0.51388 0.0
H2613 H 0.96078 0.47027 0.46717 0.0
H2614 H 0.95921 0.46818 0.49165 0.0
H2615 H 0.95707 0.50339 0.48063 0.0
H2616 H 0.96581 0.48455 0.55325 0.0
H2617 H 0.96338 0.56973 0.52704 0.0
H2618 H 0.0215 0.45339 0.52826 0.0
H2619 H 0.98997 0.4439 0.5148 0.0
H2620 H 0.9874 0.44289 0.53928 0.0
H2621 H 0.01951 0.55831 0.49626 0.0
H2622 H 0.98597 0.57936 0.49937 0.0
H2623 H 0.98671 0.54806 0.48419 0.0
C2624 C 0.01781 0.52308 0.03527 0.0
C2625 C 0.04872 0.5196 0.03493 0.0
C2626 C 0.00048 0.51673 0.01995 0.0
C2627 C 0.01429 0.50609 0.00398 0.0
C2628 C 0.04552 0.503 0.00341 0.0
C2629 C 0.06241 0.51007 0.01886 0.0
C2630 C 0.9673 0.52073 0.02102 0.0
C2631 C 0.06099 0.49123 0.98671 0.0
C2632 C 0.96993 0.45472 0.97387 0.0
C2633 C 0.9636 0.47269 0.95875 0.0
C2634 C 0.98611 0.46549 0.98866 0.0
C2635 C 0.99587 0.49522 0.98861 0.0
C2636 C 0.98847 0.51401 0.97385 0.0
C2637 C 0.97249 0.50247 0.95901 0.0
C2638 C 0.99353 0.44468 0.00411 0.0
C2639 C 0.99806 0.54602 0.97354 0.0
H2640 H 0.00707 0.53102 0.04753 0.0
H2641 H 0.08627 0.5075 0.01847 0.0
H2642 H 0.95929 0.53385 0.00925 0.0
H2643 H 0.95625 0.49881 0.0204 0.0
H2644 H 0.96034 0.532 0.03375 0.0
H2645 H 0.08549 0.49183 0.98805 0.0
H2646 H 0.05406 0.46799 0.98425 0.0
H2647 H 0.05452 0.50429 0.97457 0.0
H2648 H 0.96294 0.43175 0.97399 0.0
H2649 H 0.96769 0.51654 0.94743 0.0
H2650 H 0.98507 0.45371 0.01714 0.0
H2651 H 0.01793 0.44258 0.00543 0.0
H2652 H 0.98402 0.42222 0.00212 0.0
H2653 H 0.99113 0.55727 0.98626 0.0
H2654 H 0.98867 0.55825 0.96177 0.0
H2655 H 0.02257 0.54729 0.97284 0.0
C2656 C 0.52623 0.49727 0.45919 0.0
C2657 C 0.53694 0.52642 0.45984 0.0
C2658 C 0.51022 0.48528 0.47389 0.0
C2659 C 0.50465 0.50298 0.48944 0.0
C2660 C 0.51657 0.53188 0.49046 0.0
C2661 C 0.53272 0.54309 0.47577 0.0
C2662 C 0.49839 0.4541 0.47253 0.0
C2663 C 0.51122 0.55153 0.50678 0.0
C2664 C 0.43734 0.49031 0.51946 0.0
C2665 C 0.45036 0.4784 0.53513 0.0
C2666 C 0.45465 0.49756 0.50422 0.0
C2667 C 0.48557 0.49209 0.50452 0.0
C2668 C 0.4986 0.47895 0.52004 0.0
C2669 C 0.48092 0.4726 0.53522 0.0
C2670 C 0.44003 0.51207 0.48805 0.0
C2671 C 0.53136 0.47223 0.52077 0.0
H2672 H 0.52939 0.48422 0.44697 0.0
H2673 H 0.54125 0.56549 0.47659 0.0
H2674 H 0.50417 0.44132 0.48492 0.0
H2675 H 0.47387 0.45468 0.47161 0.0
H2676 H 0.50715 0.44224 0.46044 0.0
H2677 H 0.52257 0.57327 0.50558 0.0
H2678 H 0.48711 0.55554 0.50841 0.0
H2679 H 0.51908 0.54046 0.51935 0.0
H2680 H 0.41372 0.49468 0.5193 0.0
H2681 H 0.49105 0.46279 0.54715 0.0
H2682 H 0.44526 0.49963 0.47544 0.0
H2683 H 0.44885 0.53484 0.48632 0.0
H2684 H 0.41558 0.51338 0.48954 0.0
H2685 H 0.53823 0.45973 0.50849 0.0
H2686 H 0.53745 0.45918 0.53302 0.0
H2687 H 0.54412 0.49322 0.52092 0.0
C2688 C 0.28123 0.10304 0.34953 0.0
C2689 C 0.27816 0.13138 0.35709 0.0
C2690 C 0.303 0.08334 0.35586 0.0
C2691 C 0.32192 0.09203 0.37027 0.0
C2692 C 0.31951 0.12095 0.37758 0.0
C2693 C 0.29778 0.14035 0.37082 0.0
C2694 C 0.30516 0.05288 0.34747 0.0
C2695 C 0.33908 0.13098 0.39304 0.0
C2696 C 0.3533 0.02885 0.39855 0.0
C2697 C 0.38198 0.02606 0.39144 0.0
C2698 C 0.33388 0.05085 0.39218 0.0
C2699 C 0.34322 0.07031 0.37819 0.0
C2700 C 0.37239 0.06805 0.37126 0.0
C2701 C 0.39148 0.04608 0.37805 0.0
C2702 C 0.3031 0.05279 0.40013 0.0
C2703 C 0.3831 0.08816 0.35623 0.0
H2704 H 0.26623 0.09599 0.33887 0.0
H2705 H 0.29544 0.16217 0.3768 0.0
H2706 H 0.32824 0.04842 0.34307 0.0
H2707 H 0.29927 0.03587 0.35774 0.0
H2708 H 0.29023 0.05027 0.33557 0.0
H2709 H 0.33561 0.15468 0.3965 0.0
H2710 H 0.33441 0.11742 0.40529 0.0
H2711 H 0.36274 0.12763 0.38953 0.0
H2712 H 0.34584 0.01354 0.40894 0.0
H2713 H 0.41357 0.044 0.37242 0.0
H2714 H 0.28648 0.04752 0.3895 0.0
H2715 H 0.29859 0.07568 0.40488 0.0
H2716 H 0.29991 0.03732 0.41171 0.0
H2717 H 0.36988 0.08417 0.34376 0.0
H2718 H 0.40687 0.0846 0.35299 0.0
H2719 H 0.37987 0.1117 0.36009 0.0
C2720 C 0.14383 0.03212 0.60204 0.0
C2721 C 0.11544 0.02761 0.60926 0.0
C2722 C 0.16264 0.05408 0.60905 0.0
C2723 C 0.15299 0.07183 0.62379 0.0
C2724 C 0.12401 0.068 0.63079 0.0
C2725 C 0.10552 0.04602 0.62338 0.0
C2726 C 0.19323 0.05768 0.60103 0.0
C2727 C 0.11295 0.08635 0.64654 0.0
C2728 C 0.21543 0.10276 0.65278 0.0
C2729 C 0.21822 0.13162 0.64594 0.0
C2730 C 0.19343 0.08351 0.64624 0.0
C2731 C 0.17391 0.09323 0.63239 0.0
C2732 C 0.17585 0.12274 0.62596 0.0
C2733 C 0.19789 0.14163 0.63288 0.0
C2734 C 0.19186 0.05236 0.65365 0.0
C2735 C 0.15557 0.13392 0.61115 0.0
H2736 H 0.15162 0.01806 0.59108 0.0
H2737 H 0.08365 0.04261 0.62908 0.0
H2738 H 0.19702 0.08111 0.5971 0.0
H2739 H 0.21017 0.05185 0.61136 0.0
H2740 H 0.19667 0.04347 0.58888 0.0
H2741 H 0.08923 0.08208 0.6496 0.0
H2742 H 0.1262 0.08126 0.65886 0.0
H2743 H 0.11583 0.11029 0.64363 0.0
H2744 H 0.23096 0.0949 0.66293 0.0
H2745 H 0.19994 0.16388 0.62748 0.0
H2746 H 0.19798 0.03636 0.64284 0.0
H2747 H 0.16891 0.0471 0.65797 0.0
H2748 H 0.20694 0.04902 0.66541 0.0
H2749 H 0.16041 0.12202 0.59829 0.0
H2750 H 0.15822 0.15807 0.60874 0.0
H2751 H 0.13211 0.12938 0.61466 0.0
C2752 C 0.20683 0.85814 0.87075 0.0
C2753 C 0.22515 0.86849 0.8567 0.0
C2754 C 0.1849 0.87639 0.87843 0.0
C2755 C 0.18101 0.90556 0.87176 0.0
C2756 C 0.19857 0.91563 0.85704 0.0
C2757 C 0.22051 0.89704 0.84976 0.0
C2758 C 0.16676 0.86489 0.89416 0.0
C2759 C 0.19485 0.94642 0.84935 0.0
C2760 C 0.11135 0.95009 0.88187 0.0
C2761 C 0.12155 0.96996 0.89514 0.0
C2762 C 0.13015 0.92834 0.87453 0.0
C2763 C 0.15977 0.92624 0.88072 0.0
C2764 C 0.16972 0.9453 0.89475 0.0
C2765 C 0.15055 0.96702 0.90172 0.0
C2766 C 0.11872 0.90855 0.85954 0.0
C2767 C 0.20101 0.94353 0.90192 0.0
H2768 H 0.21036 0.83614 0.87624 0.0
H2769 H 0.23449 0.90515 0.83886 0.0
H2770 H 0.17212 0.8777 0.9066 0.0
H2771 H 0.14279 0.86797 0.89144 0.0
H2772 H 0.17097 0.84106 0.89689 0.0
H2773 H 0.20882 0.95015 0.83712 0.0
H2774 H 0.17136 0.95036 0.84565 0.0
H2775 H 0.20094 0.96307 0.8598 0.0
H2776 H 0.08899 0.95225 0.87667 0.0
H2777 H 0.15856 0.98221 0.91202 0.0
H2778 H 0.12327 0.88498 0.86276 0.0
H2779 H 0.13045 0.91376 0.84667 0.0
H2780 H 0.09454 0.9113 0.85729 0.0
H2781 H 0.20634 0.92046 0.90596 0.0
H2782 H 0.20458 0.95828 0.91381 0.0
H2783 H 0.21681 0.94993 0.89105 0.0
C2784 C 0.28396 0.89465 0.15077 0.0
C2785 C 0.28042 0.86602 0.14372 0.0
C2786 C 0.30592 0.91374 0.14401 0.0
C2787 C 0.32459 0.90411 0.1297 0.0
C2788 C 0.32184 0.87485 0.12299 0.0
C2789 C 0.29988 0.85609 0.13015 0.0
C2790 C 0.30841 0.94462 0.15176 0.0
C2791 C 0.34117 0.8638 0.10767 0.0
C2792 C 0.35459 0.9662 0.10007 0.0
C2793 C 0.38322 0.96998 0.10707 0.0
C2794 C 0.33574 0.94402 0.10682 0.0
C2795 C 0.34562 0.92538 0.12108 0.0
C2796 C 0.3749 0.92836 0.12773 0.0
C2797 C 0.39342 0.95053 0.12057 0.0
C2798 C 0.30484 0.94129 0.09914 0.0
C2799 C 0.38621 0.90907 0.14299 0.0
H2800 H 0.26909 0.90244 0.16131 0.0
H2801 H 0.29723 0.83402 0.12458 0.0
H2802 H 0.33162 0.94926 0.15582 0.0
H2803 H 0.30225 0.96109 0.14121 0.0
H2804 H 0.29383 0.94792 0.16376 0.0
H2805 H 0.33787 0.83981 0.10497 0.0
H2806 H 0.33603 0.8763 0.09507 0.0
H2807 H 0.36487 0.86768 0.11084 0.0
H2808 H 0.34659 0.98106 0.08958 0.0
H2809 H 0.41548 0.95339 0.12611 0.0
H2810 H 0.28838 0.94726 0.10973 0.0
H2811 H 0.30039 0.91806 0.09505 0.0
H2812 H 0.30135 0.95589 0.08717 0.0
H2813 H 0.37376 0.91406 0.15563 0.0
H2814 H 0.41019 0.91255 0.14563 0.0
H2815 H 0.38249 0.88534 0.1398 0.0
C2816 C 0.71175 0.91102 0.65568 0.0
C2817 C 0.71874 0.8814 0.65174 0.0
C2818 C 0.69097 0.92669 0.64526 0.0
C2819 C 0.67631 0.9123 0.63071 0.0
C2820 C 0.68148 0.88181 0.62755 0.0
C2821 C 0.70278 0.86675 0.63801 0.0
C2822 C 0.68621 0.95922 0.64909 0.0
C2823 C 0.66579 0.8655 0.61245 0.0
C2824 C 0.61283 0.9572 0.61088 0.0
C2825 C 0.62715 0.9724 0.59671 0.0
C2826 C 0.62796 0.93601 0.62139 0.0
C2827 C 0.6582 0.93014 0.61778 0.0
C2828 C 0.67217 0.94393 0.60277 0.0
C2829 C 0.65643 0.96463 0.59234 0.0
C2830 C 0.61206 0.92124 0.637 0.0
C2831 C 0.70442 0.9384 0.59846 0.0
H2832 H 0.72369 0.92261 0.6663 0.0
H2833 H 0.70771 0.8438 0.63492 0.0
H2834 H 0.69466 0.97253 0.6375 0.0
H2835 H 0.66224 0.96409 0.65048 0.0
H2836 H 0.6977 0.96659 0.66166 0.0
H2837 H 0.6685 0.84112 0.61364 0.0
H2838 H 0.6418 0.87084 0.61244 0.0
H2839 H 0.67494 0.87261 0.59915 0.0
H2840 H 0.59015 0.96273 0.61432 0.0
H2841 H 0.66775 0.97595 0.58136 0.0
H2842 H 0.61987 0.93087 0.65002 0.0
H2843 H 0.61705 0.89718 0.63734 0.0
H2844 H 0.58768 0.92428 0.63615 0.0
H2845 H 0.71841 0.94718 0.60963 0.0
H2846 H 0.71138 0.94913 0.58555 0.0
H2847 H 0.70881 0.91429 0.59743 0.0
C2848 C 0.88491 0.95925 0.39114 0.0
C2849 C 0.86921 0.97547 0.4043 0.0
C2850 C 0.87081 0.93739 0.38061 0.0
C2851 C 0.8402 0.93194 0.3831 0.0
C2852 C 0.82472 0.9469 0.3971 0.0
C2853 C 0.83945 0.9682 0.40763 0.0
C2854 C 0.88829 0.92137 0.36615 0.0
C2855 C 0.79201 0.94188 0.40019 0.0
C2856 C 0.79052 0.91027 0.34378 0.0
C2857 C 0.78253 0.88117 0.34843 0.0
C2858 C 0.81051 0.9265 0.35444 0.0
C2859 C 0.82341 0.91319 0.36997 0.0
C2860 C 0.81751 0.88305 0.37384 0.0
C2861 C 0.79697 0.86744 0.36311 0.0
C2862 C 0.81609 0.95863 0.34982 0.0
C2863 C 0.83143 0.8678 0.38997 0.0
H2864 H 0.90798 0.96438 0.38854 0.0
H2865 H 0.82706 0.98032 0.41783 0.0
H2866 H 0.88313 0.89734 0.36627 0.0
H2867 H 0.88208 0.93006 0.35256 0.0
H2868 H 0.91255 0.92432 0.36795 0.0
H2869 H 0.78367 0.95377 0.41238 0.0
H2870 H 0.77939 0.94967 0.38815 0.0
H2871 H 0.78734 0.91791 0.40184 0.0
H2872 H 0.77983 0.92113 0.33239 0.0
H2873 H 0.79129 0.84488 0.36676 0.0
H2874 H 0.84021 0.96319 0.34933 0.0
H2875 H 0.80647 0.97295 0.36057 0.0
H2876 H 0.80617 0.96503 0.33657 0.0
H2877 H 0.85538 0.87312 0.39086 0.0
H2878 H 0.82877 0.84336 0.38931 0.0
H2879 H 0.82083 0.87582 0.40266 0.0
C2880 C 0.78291 0.08679 0.15611 0.0
C2881 C 0.77723 0.11655 0.15181 0.0
C2882 C 0.80326 0.07001 0.146 0.0
C2883 C 0.81873 0.08337 0.13138 0.0
C2884 C 0.81466 0.11389 0.12777 0.0
C2885 C 0.79386 0.13007 0.13794 0.0
C2886 C 0.80688 0.03749 0.15029 0.0
C2887 C 0.83112 0.1291 0.11253 0.0
C2888 C 0.88248 0.0378 0.11233 0.0
C2889 C 0.8686 0.02283 0.0979 0.0
C2890 C 0.86701 0.05875 0.12283 0.0
C2891 C 0.83687 0.06466 0.11894 0.0
C2892 C 0.82325 0.05086 0.10381 0.0
C2893 C 0.83931 0.03035 0.09341 0.0
C2894 C 0.88249 0.07344 0.13862 0.0
C2895 C 0.79113 0.05649 0.09919 0.0
H2896 H 0.77038 0.07607 0.16682 0.0
H2897 H 0.78994 0.15311 0.13458 0.0
H2898 H 0.79829 0.02405 0.1388 0.0
H2899 H 0.83065 0.03193 0.15195 0.0
H2900 H 0.79488 0.03094 0.16285 0.0
H2901 H 0.82859 0.15356 0.11305 0.0
H2902 H 0.85505 0.12358 0.11307 0.0
H2903 H 0.82254 0.12115 0.09927 0.0
H2904 H 0.90514 0.0324 0.11589 0.0
H2905 H 0.82831 0.01914 0.08227 0.0
H2906 H 0.87351 0.0646 0.15157 0.0
H2907 H 0.87836 0.09766 0.13853 0.0
H2908 H 0.90678 0.06953 0.13839 0.0
H2909 H 0.77683 0.04829 0.11039 0.0
H2910 H 0.78432 0.04535 0.08639 0.0
H2911 H 0.787 0.0806 0.09779 0.0
C2912 C 0.66499 0.03172 0.9072 0.0
C2913 C 0.63502 0.02626 0.90338 0.0
C2914 C 0.68143 0.05204 0.89685 0.0
C2915 C 0.66751 0.06766 0.88251 0.0
C2916 C 0.63682 0.06381 0.87939 0.0
C2917 C 0.62098 0.04306 0.88979 0.0
C2918 C 0.71415 0.05545 0.9006 0.0
C2919 C 0.62104 0.08046 0.86446 0.0
C2920 C 0.71255 0.13129 0.86291 0.0
C2921 C 0.72692 0.11741 0.84825 0.0
C2922 C 0.69194 0.11587 0.87368 0.0
C2923 C 0.68574 0.08579 0.86981 0.0
C2924 C 0.69884 0.0722 0.85443 0.0
C2925 C 0.71905 0.0882 0.84379 0.0
C2926 C 0.678 0.13131 0.88974 0.0
C2927 C 0.69283 0.04015 0.84981 0.0
H2928 H 0.67609 0.01906 0.9177 0.0
H2929 H 0.59777 0.0393 0.88682 0.0
H2930 H 0.72703 0.04688 0.88887 0.0
H2931 H 0.71991 0.07918 0.90224 0.0
H2932 H 0.72119 0.04332 0.91301 0.0
H2933 H 0.5966 0.07805 0.86538 0.0
H2934 H 0.6267 0.10436 0.86496 0.0
H2935 H 0.62836 0.07192 0.85105 0.0
H2936 H 0.71823 0.15389 0.86646 0.0
H2937 H 0.72979 0.07721 0.83247 0.0
H2938 H 0.6874 0.12226 0.90252 0.0
H2939 H 0.65377 0.12724 0.89006 0.0
H2940 H 0.68196 0.1556 0.88949 0.0
H2941 H 0.7015 0.02572 0.86081 0.0
H2942 H 0.70332 0.0334 0.83679 0.0
H2943 H 0.66865 0.03614 0.84884 0.0
C2944 C 0.78401 0.60518 0.84864 0.0
C2945 C 0.78021 0.63365 0.85588 0.0
C2946 C 0.80582 0.58598 0.85547 0.0
C2947 C 0.82406 0.59533 0.87005 0.0
C2948 C 0.82111 0.62447 0.87694 0.0
C2949 C 0.79933 0.64335 0.8697 0.0
C2950 C 0.80855 0.55525 0.84753 0.0
C2951 C 0.83998 0.63523 0.89254 0.0
C2952 C 0.85328 0.53293 0.89974 0.0
C2953 C 0.8822 0.52941 0.89313 0.0
C2954 C 0.83454 0.55505 0.89282 0.0
C2955 C 0.84482 0.57391 0.87877 0.0
C2956 C 0.87432 0.57112 0.87246 0.0
C2957 C 0.89272 0.54901 0.87979 0.0
C2958 C 0.80338 0.55757 0.90012 0.0
C2959 C 0.88606 0.59064 0.85743 0.0
H2960 H 0.7694 0.59757 0.83792 0.0
H2961 H 0.79646 0.66528 0.87543 0.0
H2962 H 0.83189 0.55066 0.84375 0.0
H2963 H 0.80199 0.53859 0.85787 0.0
H2964 H 0.7944 0.55222 0.83532 0.0
H2965 H 0.83663 0.65917 0.89537 0.0
H2966 H 0.83443 0.62253 0.905 0.0
H2967 H 0.86377 0.63136 0.88963 0.0
H2968 H 0.84503 0.51795 0.91009 0.0
H2969 H 0.915 0.54636 0.87455 0.0
H2970 H 0.78729 0.55183 0.88928 0.0
H2971 H 0.79876 0.5807 0.90435 0.0
H2972 H 0.79949 0.5427 0.91192 0.0
H2973 H 0.87388 0.58593 0.84465 0.0
H2974 H 0.91008 0.58713 0.85497 0.0
H2975 H 0.88234 0.61432 0.86075 0.0
C2976 C 0.71734 0.59947 0.15305 0.0
C2977 C 0.72019 0.62842 0.14637 0.0
C2978 C 0.69539 0.5803 0.14636 0.0
C2979 C 0.67597 0.59019 0.1325 0.0
C2980 C 0.678 0.61976 0.12619 0.0
C2981 C 0.7 0.63856 0.13327 0.0
C2982 C 0.69372 0.54907 0.15365 0.0
C2983 C 0.65785 0.63113 0.11138 0.0
C2984 C 0.64546 0.52958 0.10189 0.0
C2985 C 0.61701 0.52526 0.10907 0.0
C2986 C 0.66447 0.55129 0.10903 0.0
C2987 C 0.65494 0.56896 0.12383 0.0
C2988 C 0.62593 0.5653 0.1308 0.0
C2989 C 0.60725 0.54359 0.12327 0.0
C2990 C 0.6951 0.55473 0.10104 0.0
C2991 C 0.61499 0.58356 0.14663 0.0
H2992 H 0.73278 0.59149 0.16322 0.0
H2993 H 0.70209 0.66087 0.12798 0.0
H2994 H 0.67075 0.54385 0.15795 0.0
H2995 H 0.69977 0.53316 0.14277 0.0
H2996 H 0.70879 0.54555 0.16539 0.0
H2997 H 0.66068 0.65526 0.10898 0.0
H2998 H 0.66261 0.61922 0.09851 0.0
H2999 H 0.63435 0.62676 0.11488 0.0
H3000 H 0.65314 0.51559 0.09088 0.0
H3001 H 0.58533 0.54032 0.12894 0.0
H3002 H 0.71197 0.54871 0.11136 0.0
H3003 H 0.69905 0.57816 0.09718 0.0
H3004 H 0.69846 0.54058 0.08885 0.0
H3005 H 0.62829 0.57834 0.15891 0.0
H3006 H 0.59128 0.57934 0.14972 0.0
H3007 H 0.61793 0.6075 0.14378 0.0
C3008 C 0.70346 0.36268 0.36846 0.0
C3009 C 0.7228 0.37259 0.35481 0.0
C3010 C 0.68193 0.3816 0.37593 0.0
C3011 C 0.67938 0.41101 0.36942 0.0
C3012 C 0.69797 0.42068 0.35507 0.0
C3013 C 0.71959 0.40144 0.34804 0.0
C3014 C 0.66276 0.3705 0.39131 0.0
C3015 C 0.69563 0.4517 0.34751 0.0
C3016 C 0.61 0.45622 0.37927 0.0
C3017 C 0.61988 0.47529 0.39307 0.0
C3018 C 0.62892 0.43483 0.37165 0.0
C3019 C 0.65832 0.43216 0.37815 0.0
C3020 C 0.66804 0.45057 0.39256 0.0
C3021 C 0.64878 0.47205 0.39976 0.0
C3022 C 0.6178 0.41585 0.35619 0.0
C3023 C 0.69906 0.44812 0.40009 0.0
H3024 H 0.70591 0.34047 0.37385 0.0
H3025 H 0.73439 0.40923 0.33746 0.0
H3026 H 0.66778 0.38318 0.40386 0.0
H3027 H 0.63902 0.37412 0.38814 0.0
H3028 H 0.66628 0.34658 0.39411 0.0
H3029 H 0.71018 0.45509 0.33551 0.0
H3030 H 0.67243 0.45651 0.34351 0.0
H3031 H 0.7019 0.46797 0.35814 0.0
H3032 H 0.58775 0.45868 0.37395 0.0
H3033 H 0.65656 0.48664 0.41044 0.0
H3034 H 0.62115 0.39206 0.35934 0.0
H3035 H 0.63066 0.42079 0.34369 0.0
H3036 H 0.59393 0.41962 0.35331 0.0
H3037 H 0.70375 0.42492 0.40414 0.0
H3038 H 0.70258 0.46273 0.41205 0.0
H3039 H 0.71535 0.45422 0.38943 0.0
C3040 C 0.88978 0.45169 0.62033 0.0
C3041 C 0.87954 0.47084 0.60667 0.0
C3042 C 0.87129 0.42969 0.62769 0.0
C3043 C 0.84199 0.42657 0.6211 0.0
C3044 C 0.83205 0.44491 0.60671 0.0
C3045 C 0.85088 0.46692 0.59975 0.0
C3046 C 0.88267 0.41071 0.64308 0.0
C3047 C 0.80112 0.44202 0.5991 0.0
C3048 C 0.79655 0.35733 0.63077 0.0
C3049 C 0.77716 0.36743 0.64434 0.0
C3050 C 0.81836 0.37604 0.6234 0.0
C3051 C 0.82104 0.40544 0.6299 0.0
C3052 C 0.80243 0.41527 0.64419 0.0
C3053 C 0.78062 0.39622 0.65116 0.0
C3054 C 0.83763 0.36477 0.60812 0.0
C3055 C 0.80485 0.44631 0.6517 0.0
H3056 H 0.91187 0.45466 0.62581 0.0
H3057 H 0.84285 0.48155 0.58915 0.0
H3058 H 0.8702 0.41589 0.65569 0.0
H3059 H 0.87902 0.38692 0.64006 0.0
H3060 H 0.90663 0.41431 0.6457 0.0
H3061 H 0.79756 0.4564 0.58704 0.0
H3062 H 0.79667 0.41871 0.59518 0.0
H3063 H 0.7847 0.44815 0.60968 0.0
H3064 H 0.79395 0.33515 0.62537 0.0
H3065 H 0.7658 0.40414 0.66169 0.0
H3066 H 0.86134 0.36872 0.61122 0.0
H3067 H 0.83243 0.37709 0.59545 0.0
H3068 H 0.83433 0.34075 0.60555 0.0
H3069 H 0.82806 0.45109 0.6557 0.0
H3070 H 0.7903 0.44981 0.66369 0.0
H3071 H 0.79863 0.46255 0.64104 0.0
C3072 C 0.15902 0.46266 0.09355 0.0
C3073 C 0.12961 0.47018 0.09774 0.0
C3074 C 0.17472 0.44201 0.10404 0.0
C3075 C 0.16057 0.42801 0.11892 0.0
C3076 C 0.13023 0.43365 0.12234 0.0
C3077 C 0.11515 0.45481 0.11179 0.0
C3078 C 0.20708 0.43673 0.09993 0.0
C3079 C 0.11416 0.41865 0.1378 0.0
C3080 C 0.20515 0.36467 0.13919 0.0
C3081 C 0.22082 0.37927 0.15306 0.0
C3082 C 0.18394 0.37971 0.12865 0.0
C3083 C 0.17855 0.41014 0.1319 0.0
C3084 C 0.19286 0.42445 0.1466 0.0
C3085 C 0.21356 0.4088 0.15708 0.0
C3086 C 0.16861 0.36346 0.11339 0.0
C3087 C 0.18785 0.45692 0.15052 0.0
H3088 H 0.17045 0.47413 0.08267 0.0
H3089 H 0.09236 0.46015 0.11508 0.0
H3090 H 0.22081 0.44544 0.11125 0.0
H3091 H 0.21163 0.41266 0.09882 0.0
H3092 H 0.21422 0.44766 0.08713 0.0
H3093 H 0.08978 0.4216 0.13682 0.0
H3094 H 0.11923 0.3946 0.13806 0.0
H3095 H 0.12173 0.42815 0.15091 0.0
H3096 H 0.21029 0.34179 0.13603 0.0
H3097 H 0.22526 0.42034 0.16782 0.0
H3098 H 0.17798 0.37074 0.10018 0.0
H3099 H 0.1446 0.3687 0.11322 0.0
H3100 H 0.17142 0.33908 0.11451 0.0
H3101 H 0.19645 0.47039 0.13906 0.0
H3102 H 0.19905 0.46421 0.16321 0.0
H3103 H 0.16383 0.46164 0.15176 0.0
C3104 C 0.34037 0.46681 0.90761 0.0
C3105 C 0.36995 0.47382 0.90354 0.0
C3106 C 0.32467 0.44582 0.89737 0.0
C3107 C 0.33897 0.43098 0.88286 0.0
C3108 C 0.36942 0.43619 0.87956 0.0
C3109 C 0.38452 0.45767 0.88986 0.0
C3110 C 0.29219 0.44102 0.90134 0.0
C3111 C 0.38564 0.42033 0.86449 0.0
C3112 C 0.29422 0.36703 0.86341 0.0
C3113 C 0.27894 0.38108 0.84916 0.0
C3114 C 0.31535 0.38241 0.87383 0.0
C3115 C 0.32106 0.41263 0.87008 0.0
C3116 C 0.30711 0.42636 0.85503 0.0
C3117 C 0.28648 0.41037 0.84468 0.0
C3118 C 0.33026 0.36678 0.88949 0.0
C3119 C 0.31246 0.45858 0.85056 0.0
H3120 H 0.32883 0.47889 0.91819 0.0
H3121 H 0.40742 0.46263 0.88666 0.0
H3122 H 0.27875 0.44933 0.88977 0.0
H3123 H 0.28739 0.41705 0.90284 0.0
H3124 H 0.28492 0.45261 0.91389 0.0
H3125 H 0.41003 0.42314 0.86557 0.0
H3126 H 0.38038 0.39633 0.86462 0.0
H3127 H 0.37837 0.42927 0.85117 0.0
H3128 H 0.28886 0.34435 0.86693 0.0
H3129 H 0.27508 0.4215 0.83366 0.0
H3130 H 0.32076 0.37481 0.90249 0.0
H3131 H 0.35432 0.37178 0.8897 0.0
H3132 H 0.32722 0.34239 0.88881 0.0
H3133 H 0.30376 0.47266 0.86172 0.0
H3134 H 0.30156 0.46536 0.83767 0.0
H3135 H 0.33654 0.46305 0.84941 0.0
C3136 C 0.38045 0.54061 0.61287 0.0
C3137 C 0.3673 0.52662 0.59783 0.0
C3138 C 0.36452 0.56102 0.62352 0.0
C3139 C 0.33466 0.56738 0.61914 0.0
C3140 C 0.32186 0.55474 0.60338 0.0
C3141 C 0.33837 0.53475 0.59286 0.0
C3142 C 0.37916 0.57451 0.64001 0.0
C3143 C 0.29007 0.5609 0.5982 0.0
C3144 C 0.2787 0.58672 0.65579 0.0
C3145 C 0.27325 0.61678 0.65225 0.0
C3146 C 0.29957 0.5707 0.64561 0.0
C3147 C 0.31582 0.58515 0.63173 0.0
C3148 C 0.31195 0.61592 0.62892 0.0
C3149 C 0.29059 0.63132 0.63912 0.0
C3150 C 0.30294 0.53787 0.64901 0.0
C3151 C 0.32927 0.63227 0.61452 0.0
H3152 H 0.40282 0.53474 0.61683 0.0
H3153 H 0.32793 0.52433 0.58123 0.0
H3154 H 0.37491 0.5987 0.64057 0.0
H3155 H 0.36962 0.5646 0.65251 0.0
H3156 H 0.40347 0.57071 0.6401 0.0
H3157 H 0.28403 0.55086 0.58492 0.0
H3158 H 0.27508 0.55184 0.60879 0.0
H3159 H 0.28609 0.58511 0.59746 0.0
H3160 H 0.26562 0.57522 0.66594 0.0
H3161 H 0.28685 0.65461 0.63636 0.0
H3162 H 0.32659 0.53217 0.65108 0.0
H3163 H 0.2951 0.52536 0.63695 0.0
H3164 H 0.29015 0.53035 0.66107 0.0
H3165 H 0.35315 0.62665 0.61539 0.0
H3166 H 0.32673 0.65667 0.61572 0.0
H3167 H 0.32143 0.62542 0.60086 0.0
C3168 C 0.11553 0.54507 0.38979 0.0
C3169 C 0.13028 0.52975 0.40375 0.0
C3170 C 0.13041 0.56613 0.37907 0.0
C3171 C 0.16083 0.5717 0.3822 0.0
C3172 C 0.17529 0.55777 0.39699 0.0
C3173 C 0.15979 0.53724 0.40768 0.0
C3174 C 0.114 0.58109 0.36373 0.0
C3175 C 0.20776 0.56298 0.40079 0.0
C3176 C 0.21317 0.59032 0.3436 0.0
C3177 C 0.22081 0.61977 0.34757 0.0
C3178 C 0.19249 0.5749 0.35422 0.0
C3179 C 0.17856 0.5894 0.369 0.0
C3180 C 0.18423 0.6198 0.37215 0.0
C3181 C 0.20543 0.63459 0.36148 0.0
C3182 C 0.18716 0.54245 0.3504 0.0
C3183 C 0.16926 0.63625 0.38747 0.0
H3184 H 0.09266 0.53977 0.38672 0.0
H3185 H 0.17143 0.52582 0.41849 0.0
H3186 H 0.11924 0.60509 0.36331 0.0
H3187 H 0.12111 0.57138 0.35058 0.0
H3188 H 0.08963 0.57833 0.36499 0.0
H3189 H 0.21518 0.55207 0.41354 0.0
H3190 H 0.22119 0.5542 0.38935 0.0
H3191 H 0.2124 0.58704 0.40183 0.0
H3192 H 0.22461 0.57862 0.33282 0.0
H3193 H 0.21085 0.65743 0.36459 0.0
H3194 H 0.16309 0.53787 0.34941 0.0
H3195 H 0.19597 0.52897 0.36181 0.0
H3196 H 0.19799 0.53504 0.33762 0.0
H3197 H 0.14526 0.63105 0.38789 0.0
H3198 H 0.17206 0.66061 0.38619 0.0
H3199 H 0.17896 0.62916 0.40062 0.0
loop_
_geom_bond_atom_site_label_1
_geom_bond_atom_site_label_2
_geom_bond_distance
_geom_bond_site_symmetry_2
_ccdc_geom_bond_type
Mn0 O5 2.095 . S
Mn0 O15 2.162 . S
Mn0 O16 2.297 . S
Mn0 O24 2.385 . S
Mn0 O25 2.209 . S
Mn0 O26 2.094 . S
Mn1 O6 2.121 . S
Mn1 N8 2.257 . S
Mn1 N17 2.282 . S
Mn1 O25 2.215 . S
Mn1 O27 2.117 . S
C2 O24 1.234 . S
C2 O25 1.283 . S
C3 O15 1.281 . S
C3 O16 1.236 . S
C4 O26 1.240 . S
C4 O27 1.264 . S
O5 Mn0 2.095 . S
O5 C14 1.250 . S
O6 Mn1 2.121 . S
O6 C14 1.258 . S
C7 N8 1.326 . S
C7 C11 1.460 . S
C7 H13 0.929 . S
N8 Mn1 2.257 . S
N8 C7 1.326 . S
N8 C12 1.362 . S
C9 C10 1.258 . S
C9 C12 1.431 . S
C9 C29 1.449 . S
C10 C9 1.258 . S
C10 C11 1.477 . S
C10 H30 0.931 . S
C11 C7 1.460 . S
C11 C10 1.477 . S
C11 H31 0.930 . S
C12 N8 1.362 . S
C12 C9 1.431 . S
C12 C22 1.476 . S
H13 C7 0.929 . S
C14 O5 1.250 . S
C14 O6 1.258 . S
O15 Mn0 2.162 . S
O15 C3 1.281 . S
O16 Mn0 2.297 . S
O16 C3 1.236 . S
N17 Mn1 2.282 . S
N17 C18 1.328 . S
N17 C22 1.318 . S
C18 N17 1.328 . S
C18 C19 1.457 . S
C18 H23 0.929 . S
C19 C18 1.457 . S
C19 C20 1.291 . S
C19 H32 0.931 . S
C20 C19 1.291 . S
C20 C21 1.373 . S
C20 H33 0.929 . S
C21 C20 1.373 . S
C21 C22 1.396 . S
C21 C28 1.403 . S
C22 C12 1.476 . S
C22 N17 1.318 . S
C22 C21 1.396 . S
H23 C18 0.929 . S
O24 Mn0 2.385 . S
O24 C2 1.234 . S
O25 Mn0 2.209 . S
O25 Mn1 2.215 . S
O25 C2 1.283 . S
O26 Mn0 2.094 . S
O26 C4 1.240 . S
O27 Mn1 2.117 . S
O27 C4 1.264 . S
C28 C21 1.403 . S
C28 C29 1.399 . S
C28 H34 0.929 . S
C29 C9 1.449 . S
C29 C28 1.399 . S
C29 H35 0.930 . S
H30 C10 0.931 . S
H31 C11 0.930 . S
H32 C19 0.931 . S
H33 C20 0.929 . S
H34 C28 0.929 . S
H35 C29 0.930 . S
Mn36 O41 2.095 . S
Mn36 O51 2.162 1_565 S
Mn36 O52 2.297 . S
Mn36 O60 2.385 . S
Mn36 O61 2.209 . S
Mn36 O62 2.094 . S
Mn37 O42 2.121 . S
Mn37 N44 2.257 . S
Mn37 N53 2.282 . S
Mn37 O61 2.215 . S
Mn37 O63 2.117 1_455 S
C38 O60 1.234 . S
C38 O61 1.283 . S
C39 O51 1.281 . S
C39 O52 1.236 1_545 S
C40 O62 1.240 1_655 S
C40 O63 1.264 . S
O41 Mn36 2.095 . S
O41 C50 1.250 . S
O42 Mn37 2.121 . S
O42 C50 1.258 . S
C43 N44 1.326 . S
C43 C47 1.460 . S
C43 H49 0.929 . S
N44 Mn37 2.257 . S
N44 C43 1.326 . S
N44 C48 1.362 . S
C45 C46 1.258 . S
C45 C48 1.431 . S
C45 C65 1.449 . S
C46 C45 1.258 . S
C46 C47 1.477 . S
C46 H66 0.931 . S
C47 C43 1.460 . S
C47 C46 1.477 . S
C47 H67 0.930 . S
C48 N44 1.362 . S
C48 C45 1.431 . S
C48 C58 1.476 . S
H49 C43 0.929 . S
C50 O41 1.250 . S
C50 O42 1.258 . S
O51 Mn36 2.162 1_545 S
O51 C39 1.281 . S
O52 Mn36 2.297 . S
O52 C39 1.236 1_565 S
N53 Mn37 2.282 . S
N53 C54 1.328 . S
N53 C58 1.318 . S
C54 N53 1.328 . S
C54 C55 1.457 . S
C54 H59 0.929 . S
C55 C54 1.457 . S
C55 C56 1.291 . S
C55 H68 0.931 . S
C56 C55 1.291 . S
C56 C57 1.373 . S
C56 H69 0.929 . S
C57 C56 1.373 . S
C57 C58 1.396 . S
C57 C64 1.403 . S
C58 C48 1.476 . S
C58 N53 1.318 . S
C58 C57 1.396 . S
H59 C54 0.929 . S
O60 Mn36 2.385 . S
O60 C38 1.234 . S
O61 Mn36 2.209 . S
O61 Mn37 2.215 . S
O61 C38 1.283 . S
O62 Mn36 2.094 . S
O62 C40 1.240 1_455 S
O63 Mn37 2.117 1_655 S
O63 C40 1.264 . S
C64 C57 1.403 . S
C64 C65 1.399 . S
C64 H70 0.929 . S
C65 C45 1.449 . S
C65 C64 1.399 . S
C65 H71 0.930 . S
H66 C46 0.931 . S
H67 C47 0.930 . S
H68 C55 0.931 . S
H69 C56 0.929 . S
H70 C64 0.929 . S
H71 C65 0.930 . S
Mn72 O77 2.095 . S
Mn72 O87 2.162 . S
Mn72 O88 2.297 . S
Mn72 O96 2.385 . S
Mn72 O97 2.209 . S
Mn72 O98 2.094 . S
Mn73 O78 2.121 . S
Mn73 N80 2.257 . S
Mn73 N89 2.282 . S
Mn73 O97 2.215 . S
Mn73 O99 2.117 . S
C74 O96 1.234 . S
C74 O97 1.283 . S
C75 O87 1.281 . S
C75 O88 1.236 . S
C76 O98 1.240 . S
C76 O99 1.264 . S
O77 Mn72 2.095 . S
O77 C86 1.250 . S
O78 Mn73 2.121 . S
O78 C86 1.258 . S
C79 N80 1.326 . S
C79 C83 1.460 . S
C79 H85 0.929 . S
N80 Mn73 2.257 . S
N80 C79 1.326 . S
N80 C84 1.362 . S
C81 C82 1.258 . S
C81 C84 1.431 . S
C81 C101 1.449 . S
C82 C81 1.258 . S
C82 C83 1.477 . S
C82 H102 0.931 . S
C83 C79 1.460 . S
C83 C82 1.477 . S
C83 H103 0.930 . S
C84 N80 1.362 . S
C84 C81 1.431 . S
C84 C94 1.476 . S
H85 C79 0.929 . S
C86 O77 1.250 . S
C86 O78 1.258 . S
O87 Mn72 2.162 . S
O87 C75 1.281 . S
O88 Mn72 2.297 . S
O88 C75 1.236 . S
N89 Mn73 2.282 . S
N89 C90 1.328 . S
N89 C94 1.318 . S
C90 N89 1.328 . S
C90 C91 1.457 . S
C90 H95 0.929 . S
C91 C90 1.457 . S
C91 C92 1.291 . S
C91 H104 0.931 . S
C92 C91 1.291 . S
C92 C93 1.373 . S
C92 H105 0.929 . S
C93 C92 1.373 . S
C93 C94 1.396 . S
C93 C100 1.403 . S
C94 C84 1.476 . S
C94 N89 1.318 . S
C94 C93 1.396 . S
H95 C90 0.929 . S
O96 Mn72 2.385 . S
O96 C74 1.234 . S
O97 Mn72 2.209 . S
O97 Mn73 2.215 . S
O97 C74 1.283 . S
O98 Mn72 2.094 . S
O98 C76 1.240 . S
O99 Mn73 2.117 . S
O99 C76 1.264 . S
C100 C93 1.403 . S
C100 C101 1.399 . S
C100 H106 0.929 . S
C101 C81 1.449 . S
C101 C100 1.399 . S
C101 H107 0.930 . S
H102 C82 0.931 . S
H103 C83 0.930 . S
H104 C91 0.931 . S
H105 C92 0.929 . S
H106 C100 0.929 . S
H107 C101 0.930 . S
Mn108 O113 2.095 . S
Mn108 O123 2.162 1_545 S
Mn108 O124 2.297 . S
Mn108 O132 2.385 . S
Mn108 O133 2.209 . S
Mn108 O134 2.094 . S
Mn109 O114 2.121 . S
Mn109 N116 2.257 . S
Mn109 N125 2.282 . S
Mn109 O133 2.215 . S
Mn109 O135 2.117 . S
C110 O132 1.234 . S
C110 O133 1.283 . S
C111 O123 1.281 . S
C111 O124 1.236 1_565 S
C112 O134 1.240 . S
C112 O135 1.264 . S
O113 Mn108 2.095 . S
O113 C122 1.250 . S
O114 Mn109 2.121 . S
O114 C122 1.258 . S
C115 N116 1.326 . S
C115 C119 1.460 . S
C115 H121 0.929 . S
N116 Mn109 2.257 . S
N116 C115 1.326 . S
N116 C120 1.362 . S
C117 C118 1.258 . S
C117 C120 1.431 . S
C117 C137 1.449 . S
C118 C117 1.258 . S
C118 C119 1.477 . S
C118 H138 0.931 . S
C119 C115 1.460 . S
C119 C118 1.477 . S
C119 H139 0.930 . S
C120 N116 1.362 . S
C120 C117 1.431 . S
C120 C130 1.476 . S
H121 C115 0.929 . S
C122 O113 1.250 . S
C122 O114 1.258 . S
O123 Mn108 2.162 1_565 S
O123 C111 1.281 . S
O124 Mn108 2.297 . S
O124 C111 1.236 1_545 S
N125 Mn109 2.282 . S
N125 C126 1.328 . S
N125 C130 1.318 . S
C126 N125 1.328 . S
C126 C127 1.457 . S
C126 H131 0.929 . S
C127 C126 1.457 . S
C127 C128 1.291 . S
C127 H140 0.931 . S
C128 C127 1.291 . S
C128 C129 1.373 . S
C128 H141 0.929 . S
C129 C128 1.373 . S
C129 C130 1.396 . S
C129 C136 1.403 . S
C130 C120 1.476 . S
C130 N125 1.318 . S
C130 C129 1.396 . S
H131 C126 0.929 . S
O132 Mn108 2.385 . S
O132 C110 1.234 . S
O133 Mn108 2.209 . S
O133 Mn109 2.215 . S
O133 C110 1.283 . S
O134 Mn108 2.094 . S
O134 C112 1.240 . S
O135 Mn109 2.117 . S
O135 C112 1.264 . S
C136 C129 1.403 . S
C136 C137 1.399 . S
C136 H142 0.929 . S
C137 C117 1.449 . S
C137 C136 1.399 . S
C137 H143 0.930 . S
H138 C118 0.931 . S
H139 C119 0.930 . S
H140 C127 0.931 . S
H141 C128 0.929 . S
H142 C136 0.929 . S
H143 C137 0.930 . S
Mn144 O149 2.095 . S
Mn144 O159 2.162 . S
Mn144 O160 2.297 . S
Mn144 O168 2.385 . S
Mn144 O169 2.209 . S
Mn144 O170 2.094 . S
Mn145 O150 2.121 . S
Mn145 N152 2.257 . S
Mn145 N161 2.282 . S
Mn145 O169 2.215 . S
Mn145 O171 2.117 . S
C146 O168 1.234 . S
C146 O169 1.283 . S
C147 O159 1.281 . S
C147 O160 1.236 . S
C148 O170 1.240 . S
C148 O171 1.264 . S
O149 Mn144 2.095 . S
O149 C158 1.250 . S
O150 Mn145 2.121 . S
O150 C158 1.258 . S
C151 N152 1.326 . S
C151 C155 1.460 . S
C151 H157 0.929 . S
N152 Mn145 2.257 . S
N152 C151 1.326 . S
N152 C156 1.362 . S
C153 C154 1.258 . S
C153 C156 1.431 . S
C153 C173 1.449 . S
C154 C153 1.258 . S
C154 C155 1.477 . S
C154 H174 0.931 . S
C155 C151 1.460 . S
C155 C154 1.477 . S
C155 H175 0.930 . S
C156 N152 1.362 . S
C156 C153 1.431 . S
C156 C166 1.476 . S
H157 C151 0.929 . S
C158 O149 1.250 . S
C158 O150 1.258 . S
O159 Mn144 2.162 . S
O159 C147 1.281 . S
O160 Mn144 2.297 . S
O160 C147 1.236 . S
N161 Mn145 2.282 . S
N161 C162 1.328 . S
N161 C166 1.318 . S
C162 N161 1.328 . S
C162 C163 1.457 . S
C162 H167 0.929 . S
C163 C162 1.457 . S
C163 C164 1.291 . S
C163 H176 0.931 . S
C164 C163 1.291 . S
C164 C165 1.373 . S
C164 H177 0.929 . S
C165 C164 1.373 . S
C165 C166 1.396 . S
C165 C172 1.403 . S
C166 C156 1.476 . S
C166 N161 1.318 . S
C166 C165 1.396 . S
H167 C162 0.929 . S
O168 Mn144 2.385 . S
O168 C146 1.234 . S
O169 Mn144 2.209 . S
O169 Mn145 2.215 . S
O169 C146 1.283 . S
O170 Mn144 2.094 . S
O170 C148 1.240 . S
O171 Mn145 2.117 . S
O171 C148 1.264 . S
C172 C165 1.403 . S
C172 C173 1.399 . S
C172 H178 0.929 . S
C173 C153 1.449 . S
C173 C172 1.399 . S
C173 H179 0.930 . S
H174 C154 0.931 . S
H175 C155 0.930 . S
H176 C163 0.931 . S
H177 C164 0.929 . S
H178 C172 0.929 . S
H179 C173 0.930 . S
Mn180 O185 2.095 . S
Mn180 O195 2.162 1_565 S
Mn180 O196 2.297 . S
Mn180 O204 2.385 . S
Mn180 O205 2.209 . S
Mn180 O206 2.094 . S
Mn181 O186 2.121 . S
Mn181 N188 2.257 . S
Mn181 N197 2.282 . S
Mn181 O205 2.215 . S
Mn181 O207 2.117 . S
C182 O204 1.234 . S
C182 O205 1.283 . S
C183 O195 1.281 . S
C183 O196 1.236 1_545 S
C184 O206 1.240 . S
C184 O207 1.264 . S
O185 Mn180 2.095 . S
O185 C194 1.250 . S
O186 Mn181 2.121 . S
O186 C194 1.258 . S
C187 N188 1.326 . S
C187 C191 1.460 . S
C187 H193 0.929 . S
N188 Mn181 2.257 . S
N188 C187 1.326 . S
N188 C192 1.362 . S
C189 C190 1.258 . S
C189 C192 1.431 . S
C189 C209 1.449 . S
C190 C189 1.258 . S
C190 C191 1.477 . S
C190 H210 0.931 . S
C191 C187 1.460 . S
C191 C190 1.477 . S
C191 H211 0.930 . S
C192 N188 1.362 . S
C192 C189 1.431 . S
C192 C202 1.476 . S
H193 C187 0.929 . S
C194 O185 1.250 . S
C194 O186 1.258 . S
O195 Mn180 2.162 1_545 S
O195 C183 1.281 . S
O196 Mn180 2.297 . S
O196 C183 1.236 1_565 S
N197 Mn181 2.282 . S
N197 C198 1.328 . S
N197 C202 1.318 . S
C198 N197 1.328 . S
C198 C199 1.457 . S
C198 H203 0.929 . S
C199 C198 1.457 . S
C199 C200 1.291 . S
C199 H212 0.931 . S
C200 C199 1.291 . S
C200 C201 1.373 . S
C200 H213 0.929 . S
C201 C200 1.373 . S
C201 C202 1.396 . S
C201 C208 1.403 . S
C202 C192 1.476 . S
C202 N197 1.318 . S
C202 C201 1.396 . S
H203 C198 0.929 . S
O204 Mn180 2.385 . S
O204 C182 1.234 . S
O205 Mn180 2.209 . S
O205 Mn181 2.215 . S
O205 C182 1.283 . S
O206 Mn180 2.094 . S
O206 C184 1.240 . S
O207 Mn181 2.117 . S
O207 C184 1.264 . S
C208 C201 1.403 . S
C208 C209 1.399 . S
C208 H214 0.929 . S
C209 C189 1.449 . S
C209 C208 1.399 . S
C209 H215 0.930 . S
H210 C190 0.931 . S
H211 C191 0.930 . S
H212 C199 0.931 . S
H213 C200 0.929 . S
H214 C208 0.929 . S
H215 C209 0.930 . S
Mn216 O221 2.095 . S
Mn216 O231 2.162 . S
Mn216 O232 2.297 . S
Mn216 O240 2.385 . S
Mn216 O241 2.209 . S
Mn216 O242 2.094 . S
Mn217 O222 2.121 . S
Mn217 N224 2.257 . S
Mn217 N233 2.282 . S
Mn217 O241 2.215 . S
Mn217 O243 2.117 . S
C218 O240 1.234 . S
C218 O241 1.283 . S
C219 O231 1.281 . S
C219 O232 1.236 . S
C220 O242 1.240 . S
C220 O243 1.264 . S
O221 Mn216 2.095 . S
O221 C230 1.250 . S
O222 Mn217 2.121 . S
O222 C230 1.258 . S
C223 N224 1.326 . S
C223 C227 1.460 . S
C223 H229 0.929 . S
N224 Mn217 2.257 . S
N224 C223 1.326 . S
N224 C228 1.362 . S
C225 C226 1.258 . S
C225 C228 1.431 . S
C225 C245 1.449 . S
C226 C225 1.258 . S
C226 C227 1.477 . S
C226 H246 0.931 . S
C227 C223 1.460 . S
C227 C226 1.477 . S
C227 H247 0.930 . S
C228 N224 1.362 . S
C228 C225 1.431 . S
C228 C238 1.476 . S
H229 C223 0.929 . S
C230 O221 1.250 . S
C230 O222 1.258 . S
O231 Mn216 2.162 . S
O231 C219 1.281 . S
O232 Mn216 2.297 . S
O232 C219 1.236 . S
N233 Mn217 2.282 . S
N233 C234 1.328 . S
N233 C238 1.318 . S
C234 N233 1.328 . S
C234 C235 1.457 . S
C234 H239 0.929 . S
C235 C234 1.457 . S
C235 C236 1.291 . S
C235 H248 0.931 . S
C236 C235 1.291 . S
C236 C237 1.373 . S
C236 H249 0.929 . S
C237 C236 1.373 . S
C237 C238 1.396 . S
C237 C244 1.403 . S
C238 C228 1.476 . S
C238 N233 1.318 . S
C238 C237 1.396 . S
H239 C234 0.929 . S
O240 Mn216 2.385 . S
O240 C218 1.234 . S
O241 Mn216 2.209 . S
O241 Mn217 2.215 . S
O241 C218 1.283 . S
O242 Mn216 2.094 . S
O242 C220 1.240 . S
O243 Mn217 2.117 . S
O243 C220 1.264 . S
C244 C237 1.403 . S
C244 C245 1.399 . S
C244 H250 0.929 . S
C245 C225 1.449 . S
C245 C244 1.399 . S
C245 H251 0.930 . S
H246 C226 0.931 . S
H247 C227 0.930 . S
H248 C235 0.931 . S
H249 C236 0.929 . S
H250 C244 0.929 . S
H251 C245 0.930 . S
Mn252 O257 2.095 . S
Mn252 O267 2.162 1_545 S
Mn252 O268 2.297 . S
Mn252 O276 2.385 . S
Mn252 O277 2.209 . S
Mn252 O278 2.094 . S
Mn253 O258 2.121 . S
Mn253 N260 2.257 . S
Mn253 N269 2.282 . S
Mn253 O277 2.215 . S
Mn253 O279 2.117 1_455 S
C254 O276 1.234 . S
C254 O277 1.283 . S
C255 O267 1.281 . S
C255 O268 1.236 1_565 S
C256 O278 1.240 1_655 S
C256 O279 1.264 . S
O257 Mn252 2.095 . S
O257 C266 1.250 . S
O258 Mn253 2.121 . S
O258 C266 1.258 . S
C259 N260 1.326 . S
C259 C263 1.460 . S
C259 H265 0.929 . S
N260 Mn253 2.257 . S
N260 C259 1.326 . S
N260 C264 1.362 . S
C261 C262 1.258 . S
C261 C264 1.431 . S
C261 C281 1.449 . S
C262 C261 1.258 . S
C262 C263 1.477 . S
C262 H282 0.931 . S
C263 C259 1.460 . S
C263 C262 1.477 . S
C263 H283 0.930 . S
C264 N260 1.362 . S
C264 C261 1.431 . S
C264 C274 1.476 . S
H265 C259 0.929 . S
C266 O257 1.250 . S
C266 O258 1.258 . S
O267 Mn252 2.162 1_565 S
O267 C255 1.281 . S
O268 Mn252 2.297 . S
O268 C255 1.236 1_545 S
N269 Mn253 2.282 . S
N269 C270 1.328 . S
N269 C274 1.318 . S
C270 N269 1.328 . S
C270 C271 1.457 . S
C270 H275 0.929 . S
C271 C270 1.457 . S
C271 C272 1.291 . S
C271 H284 0.931 . S
C272 C271 1.291 . S
C272 C273 1.373 . S
C272 H285 0.929 . S
C273 C272 1.373 . S
C273 C274 1.396 . S
C273 C280 1.403 . S
C274 C264 1.476 . S
C274 N269 1.318 . S
C274 C273 1.396 . S
H275 C270 0.929 . S
O276 Mn252 2.385 . S
O276 C254 1.234 . S
O277 Mn252 2.209 . S
O277 Mn253 2.215 . S
O277 C254 1.283 . S
O278 Mn252 2.094 . S
O278 C256 1.240 1_455 S
O279 Mn253 2.117 1_655 S
O279 C256 1.264 . S
C280 C273 1.403 . S
C280 C281 1.399 . S
C280 H286 0.929 . S
C281 C261 1.449 . S
C281 C280 1.399 . S
C281 H287 0.930 . S
H282 C262 0.931 . S
H283 C263 0.930 . S
H284 C271 0.931 . S
H285 C272 0.929 . S
H286 C280 0.929 . S
H287 C281 0.930 . S
Mn288 O293 2.095 . S
Mn288 O303 2.162 . S
Mn288 O304 2.297 . S
Mn288 O312 2.385 . S
Mn288 O313 2.209 . S
Mn288 O314 2.094 . S
Mn289 O294 2.121 . S
Mn289 N296 2.257 . S
Mn289 N305 2.282 . S
Mn289 O313 2.215 . S
Mn289 O315 2.117 . S
C290 O312 1.234 . S
C290 O313 1.283 . S
C291 O303 1.281 . S
C291 O304 1.236 . S
C292 O314 1.240 . S
C292 O315 1.264 . S
O293 Mn288 2.095 . S
O293 C302 1.250 . S
O294 Mn289 2.121 . S
O294 C302 1.258 . S
C295 N296 1.326 . S
C295 C299 1.460 . S
C295 H301 0.929 . S
N296 Mn289 2.257 . S
N296 C295 1.326 . S
N296 C300 1.362 . S
C297 C298 1.258 . S
C297 C300 1.431 . S
C297 C317 1.449 . S
C298 C297 1.258 . S
C298 C299 1.477 . S
C298 H318 0.931 . S
C299 C295 1.460 . S
C299 C298 1.477 . S
C299 H319 0.930 . S
C300 N296 1.362 . S
C300 C297 1.431 . S
C300 C310 1.476 . S
H301 C295 0.929 . S
C302 O293 1.250 . S
C302 O294 1.258 . S
O303 Mn288 2.162 . S
O303 C291 1.281 . S
O304 Mn288 2.297 . S
O304 C291 1.236 . S
N305 Mn289 2.282 . S
N305 C306 1.328 . S
N305 C310 1.318 . S
C306 N305 1.328 . S
C306 C307 1.457 . S
C306 H311 0.929 . S
C307 C306 1.457 . S
C307 C308 1.291 . S
C307 H320 0.931 . S
C308 C307 1.291 . S
C308 C309 1.373 . S
C308 H321 0.929 . S
C309 C308 1.373 . S
C309 C310 1.396 . S
C309 C316 1.403 . S
C310 C300 1.476 . S
C310 N305 1.318 . S
C310 C309 1.396 . S
H311 C306 0.929 . S
O312 Mn288 2.385 . S
O312 C290 1.234 . S
O313 Mn288 2.209 . S
O313 Mn289 2.215 . S
O313 C290 1.283 . S
O314 Mn288 2.094 . S
O314 C292 1.240 . S
O315 Mn289 2.117 . S
O315 C292 1.264 . S
C316 C309 1.403 . S
C316 C317 1.399 . S
C316 H322 0.929 . S
C317 C297 1.449 . S
C317 C316 1.399 . S
C317 H323 0.930 . S
H318 C298 0.931 . S
H319 C299 0.930 . S
H320 C307 0.931 . S
H321 C308 0.929 . S
H322 C316 0.929 . S
H323 C317 0.930 . S
Mn324 O329 2.095 . S
Mn324 O339 2.162 1_655 S
Mn324 O340 2.297 . S
Mn324 O348 2.385 . S
Mn324 O349 2.209 . S
Mn324 O350 2.094 1_545 S
Mn325 O330 2.121 . S
Mn325 N332 2.257 . S
Mn325 N341 2.282 . S
Mn325 O349 2.215 . S
Mn325 O351 2.117 1_545 S
C326 O348 1.234 . S
C326 O349 1.283 . S
C327 O339 1.281 . S
C327 O340 1.236 1_455 S
C328 O350 1.240 . S
C328 O351 1.264 . S
O329 Mn324 2.095 . S
O329 C338 1.250 . S
O330 Mn325 2.121 . S
O330 C338 1.258 . S
C331 N332 1.326 . S
C331 C335 1.460 . S
C331 H337 0.929 . S
N332 Mn325 2.257 . S
N332 C331 1.326 . S
N332 C336 1.362 . S
C333 C334 1.258 . S
C333 C336 1.431 . S
C333 C353 1.449 . S
C334 C333 1.258 . S
C334 C335 1.477 . S
C334 H354 0.931 . S
C335 C331 1.460 . S
C335 C334 1.477 . S
C335 H355 0.930 . S
C336 N332 1.362 . S
C336 C333 1.431 . S
C336 C346 1.476 . S
H337 C331 0.929 . S
C338 O329 1.250 . S
C338 O330 1.258 . S
O339 Mn324 2.162 1_455 S
O339 C327 1.281 . S
O340 Mn324 2.297 . S
O340 C327 1.236 1_655 S
N341 Mn325 2.282 . S
N341 C342 1.328 . S
N341 C346 1.318 . S
C342 N341 1.328 . S
C342 C343 1.457 . S
C342 H347 0.929 . S
C343 C342 1.457 . S
C343 C344 1.291 . S
C343 H356 0.931 . S
C344 C343 1.291 . S
C344 C345 1.373 . S
C344 H357 0.929 . S
C345 C344 1.373 . S
C345 C346 1.396 . S
C345 C352 1.403 . S
C346 C336 1.476 . S
C346 N341 1.318 . S
C346 C345 1.396 . S
H347 C342 0.929 . S
O348 Mn324 2.385 . S
O348 C326 1.234 . S
O349 Mn324 2.209 . S
O349 Mn325 2.215 . S
O349 C326 1.283 . S
O350 Mn324 2.094 1_565 S
O350 C328 1.240 . S
O351 Mn325 2.117 1_565 S
O351 C328 1.264 . S
C352 C345 1.403 . S
C352 C353 1.399 . S
C352 H358 0.929 . S
C353 C333 1.449 . S
C353 C352 1.399 . S
C353 H359 0.930 . S
H354 C334 0.931 . S
H355 C335 0.930 . S
H356 C343 0.931 . S
H357 C344 0.929 . S
H358 C352 0.929 . S
H359 C353 0.930 . S
Mn360 O365 2.095 . S
Mn360 O375 2.162 . S
Mn360 O376 2.297 . S
Mn360 O384 2.385 . S
Mn360 O385 2.209 . S
Mn360 O386 2.094 . S
Mn361 O366 2.121 . S
Mn361 N368 2.257 . S
Mn361 N377 2.282 . S
Mn361 O385 2.215 . S
Mn361 O387 2.117 . S
C362 O384 1.234 . S
C362 O385 1.283 . S
C363 O375 1.281 . S
C363 O376 1.236 . S
C364 O386 1.240 . S
C364 O387 1.264 . S
O365 Mn360 2.095 . S
O365 C374 1.250 . S
O366 Mn361 2.121 . S
O366 C374 1.258 . S
C367 N368 1.326 . S
C367 C371 1.460 . S
C367 H373 0.929 . S
N368 Mn361 2.257 . S
N368 C367 1.326 . S
N368 C372 1.362 . S
C369 C370 1.258 . S
C369 C372 1.431 . S
C369 C389 1.449 . S
C370 C369 1.258 . S
C370 C371 1.477 . S
C370 H390 0.931 . S
C371 C367 1.460 . S
C371 C370 1.477 . S
C371 H391 0.930 . S
C372 N368 1.362 . S
C372 C369 1.431 . S
C372 C382 1.476 . S
H373 C367 0.929 . S
C374 O365 1.250 . S
C374 O366 1.258 . S
O375 Mn360 2.162 . S
O375 C363 1.281 . S
O376 Mn360 2.297 . S
O376 C363 1.236 . S
N377 Mn361 2.282 . S
N377 C378 1.328 . S
N377 C382 1.318 . S
C378 N377 1.328 . S
C378 C379 1.457 . S
C378 H383 0.929 . S
C379 C378 1.457 . S
C379 C380 1.291 . S
C379 H392 0.931 . S
C380 C379 1.291 . S
C380 C381 1.373 . S
C380 H393 0.929 . S
C381 C380 1.373 . S
C381 C382 1.396 . S
C381 C388 1.403 . S
C382 C372 1.476 . S
C382 N377 1.318 . S
C382 C381 1.396 . S
H383 C378 0.929 . S
O384 Mn360 2.385 . S
O384 C362 1.234 . S
O385 Mn360 2.209 . S
O385 Mn361 2.215 . S
O385 C362 1.283 . S
O386 Mn360 2.094 . S
O386 C364 1.240 . S
O387 Mn361 2.117 . S
O387 C364 1.264 . S
C388 C381 1.403 . S
C388 C389 1.399 . S
C388 H394 0.929 . S
C389 C369 1.449 . S
C389 C388 1.399 . S
C389 H395 0.930 . S
H390 C370 0.931 . S
H391 C371 0.930 . S
H392 C379 0.931 . S
H393 C380 0.929 . S
H394 C388 0.929 . S
H395 C389 0.930 . S
Mn396 O401 2.095 . S
Mn396 O411 2.162 . S
Mn396 O412 2.297 . S
Mn396 O420 2.385 . S
Mn396 O421 2.209 . S
Mn396 O422 2.094 1_565 S
Mn397 O402 2.121 . S
Mn397 N404 2.257 . S
Mn397 N413 2.282 . S
Mn397 O421 2.215 . S
Mn397 O423 2.117 1_565 S
C398 O420 1.234 . S
C398 O421 1.283 . S
C399 O411 1.281 . S
C399 O412 1.236 . S
C400 O422 1.240 . S
C400 O423 1.264 . S
O401 Mn396 2.095 . S
O401 C410 1.250 . S
O402 Mn397 2.121 . S
O402 C410 1.258 . S
C403 N404 1.326 . S
C403 C407 1.460 . S
C403 H409 0.929 . S
N404 Mn397 2.257 . S
N404 C403 1.326 . S
N404 C408 1.362 . S
C405 C406 1.258 . S
C405 C408 1.431 . S
C405 C425 1.449 . S
C406 C405 1.258 . S
C406 C407 1.477 . S
C406 H426 0.931 . S
C407 C403 1.460 . S
C407 C406 1.477 . S
C407 H427 0.930 . S
C408 N404 1.362 . S
C408 C405 1.431 . S
C408 C418 1.476 . S
H409 C403 0.929 . S
C410 O401 1.250 . S
C410 O402 1.258 . S
O411 Mn396 2.162 . S
O411 C399 1.281 . S
O412 Mn396 2.297 . S
O412 C399 1.236 . S
N413 Mn397 2.282 . S
N413 C414 1.328 . S
N413 C418 1.318 . S
C414 N413 1.328 . S
C414 C415 1.457 . S
C414 H419 0.929 . S
C415 C414 1.457 . S
C415 C416 1.291 . S
C415 H428 0.931 . S
C416 C415 1.291 . S
C416 C417 1.373 . S
C416 H429 0.929 . S
C417 C416 1.373 . S
C417 C418 1.396 . S
C417 C424 1.403 . S
C418 C408 1.476 . S
C418 N413 1.318 . S
C418 C417 1.396 . S
H419 C414 0.929 . S
O420 Mn396 2.385 . S
O420 C398 1.234 . S
O421 Mn396 2.209 . S
O421 Mn397 2.215 . S
O421 C398 1.283 . S
O422 Mn396 2.094 1_545 S
O422 C400 1.240 . S
O423 Mn397 2.117 1_545 S
O423 C400 1.264 . S
C424 C417 1.403 . S
C424 C425 1.399 . S
C424 H430 0.929 . S
C425 C405 1.449 . S
C425 C424 1.399 . S
C425 H431 0.930 . S
H426 C406 0.931 . S
H427 C407 0.930 . S
H428 C415 0.931 . S
H429 C416 0.929 . S
H430 C424 0.929 . S
H431 C425 0.930 . S
Mn432 O437 2.095 . S
Mn432 O447 2.162 . S
Mn432 O448 2.297 . S
Mn432 O456 2.385 . S
Mn432 O457 2.209 . S
Mn432 O458 2.094 . S
Mn433 O438 2.121 . S
Mn433 N440 2.257 . S
Mn433 N449 2.282 . S
Mn433 O457 2.215 . S
Mn433 O459 2.117 . S
C434 O456 1.234 . S
C434 O457 1.283 . S
C435 O447 1.281 . S
C435 O448 1.236 . S
C436 O458 1.240 . S
C436 O459 1.264 . S
O437 Mn432 2.095 . S
O437 C446 1.250 . S
O438 Mn433 2.121 . S
O438 C446 1.258 . S
C439 N440 1.326 . S
C439 C443 1.460 . S
C439 H445 0.929 . S
N440 Mn433 2.257 . S
N440 C439 1.326 . S
N440 C444 1.362 . S
C441 C442 1.258 . S
C441 C444 1.431 . S
C441 C461 1.449 . S
C442 C441 1.258 . S
C442 C443 1.477 . S
C442 H462 0.931 . S
C443 C439 1.460 . S
C443 C442 1.477 . S
C443 H463 0.930 . S
C444 N440 1.362 . S
C444 C441 1.431 . S
C444 C454 1.476 . S
H445 C439 0.929 . S
C446 O437 1.250 . S
C446 O438 1.258 . S
O447 Mn432 2.162 . S
O447 C435 1.281 . S
O448 Mn432 2.297 . S
O448 C435 1.236 . S
N449 Mn433 2.282 . S
N449 C450 1.328 . S
N449 C454 1.318 . S
C450 N449 1.328 . S
C450 C451 1.457 . S
C450 H455 0.929 . S
C451 C450 1.457 . S
C451 C452 1.291 . S
C451 H464 0.931 . S
C452 C451 1.291 . S
C452 C453 1.373 . S
C452 H465 0.929 . S
C453 C452 1.373 . S
C453 C454 1.396 . S
C453 C460 1.403 . S
C454 C444 1.476 . S
C454 N449 1.318 . S
C454 C453 1.396 . S
H455 C450 0.929 . S
O456 Mn432 2.385 . S
O456 C434 1.234 . S
O457 Mn432 2.209 . S
O457 Mn433 2.215 . S
O457 C434 1.283 . S
O458 Mn432 2.094 . S
O458 C436 1.240 . S
O459 Mn433 2.117 . S
O459 C436 1.264 . S
C460 C453 1.403 . S
C460 C461 1.399 . S
C460 H466 0.929 . S
C461 C441 1.449 . S
C461 C460 1.399 . S
C461 H467 0.930 . S
H462 C442 0.931 . S
H463 C443 0.930 . S
H464 C451 0.931 . S
H465 C452 0.929 . S
H466 C460 0.929 . S
H467 C461 0.930 . S
Mn468 O473 2.095 . S
Mn468 O483 2.162 . S
Mn468 O484 2.297 . S
Mn468 O492 2.385 . S
Mn468 O493 2.209 . S
Mn468 O494 2.094 1_545 S
Mn469 O474 2.121 . S
Mn469 N476 2.257 . S
Mn469 N485 2.282 . S
Mn469 O493 2.215 . S
Mn469 O495 2.117 1_545 S
C470 O492 1.234 . S
C470 O493 1.283 . S
C471 O483 1.281 . S
C471 O484 1.236 . S
C472 O494 1.240 . S
C472 O495 1.264 . S
O473 Mn468 2.095 . S
O473 C482 1.250 . S
O474 Mn469 2.121 . S
O474 C482 1.258 . S
C475 N476 1.326 . S
C475 C479 1.460 . S
C475 H481 0.929 . S
N476 Mn469 2.257 . S
N476 C475 1.326 . S
N476 C480 1.362 . S
C477 C478 1.258 . S
C477 C480 1.431 . S
C477 C497 1.449 . S
C478 C477 1.258 . S
C478 C479 1.477 . S
C478 H498 0.931 . S
C479 C475 1.460 . S
C479 C478 1.477 . S
C479 H499 0.930 . S
C480 N476 1.362 . S
C480 C477 1.431 . S
C480 C490 1.476 . S
H481 C475 0.929 . S
C482 O473 1.250 . S
C482 O474 1.258 . S
O483 Mn468 2.162 . S
O483 C471 1.281 . S
O484 Mn468 2.297 . S
O484 C471 1.236 . S
N485 Mn469 2.282 . S
N485 C486 1.328 . S
N485 C490 1.318 . S
C486 N485 1.328 . S
C486 C487 1.457 . S
C486 H491 0.929 . S
C487 C486 1.457 . S
C487 C488 1.291 . S
C487 H500 0.931 . S
C488 C487 1.291 . S
C488 C489 1.373 . S
C488 H501 0.929 . S
C489 C488 1.373 . S
C489 C490 1.396 . S
C489 C496 1.403 . S
C490 C480 1.476 . S
C490 N485 1.318 . S
C490 C489 1.396 . S
H491 C486 0.929 . S
O492 Mn468 2.385 . S
O492 C470 1.234 . S
O493 Mn468 2.209 . S
O493 Mn469 2.215 . S
O493 C470 1.283 . S
O494 Mn468 2.094 1_565 S
O494 C472 1.240 . S
O495 Mn469 2.117 1_565 S
O495 C472 1.264 . S
C496 C489 1.403 . S
C496 C497 1.399 . S
C496 H502 0.929 . S
C497 C477 1.449 . S
C497 C496 1.399 . S
C497 H503 0.930 . S
H498 C478 0.931 . S
H499 C479 0.930 . S
H500 C487 0.931 . S
H501 C488 0.929 . S
H502 C496 0.929 . S
H503 C497 0.930 . S
Mn504 O509 2.095 . S
Mn504 O519 2.162 . S
Mn504 O520 2.297 . S
Mn504 O528 2.385 . S
Mn504 O529 2.209 . S
Mn504 O530 2.094 . S
Mn505 O510 2.121 . S
Mn505 N512 2.257 . S
Mn505 N521 2.282 . S
Mn505 O529 2.215 . S
Mn505 O531 2.117 . S
C506 O528 1.234 . S
C506 O529 1.283 . S
C507 O519 1.281 . S
C507 O520 1.236 . S
C508 O530 1.240 . S
C508 O531 1.264 . S
O509 Mn504 2.095 . S
O509 C518 1.250 . S
O510 Mn505 2.121 . S
O510 C518 1.258 . S
C511 N512 1.326 . S
C511 C515 1.460 . S
C511 H517 0.929 . S
N512 Mn505 2.257 . S
N512 C511 1.326 . S
N512 C516 1.362 . S
C513 C514 1.258 . S
C513 C516 1.431 . S
C513 C533 1.449 . S
C514 C513 1.258 . S
C514 C515 1.477 . S
C514 H534 0.931 . S
C515 C511 1.460 . S
C515 C514 1.477 . S
C515 H535 0.930 . S
C516 N512 1.362 . S
C516 C513 1.431 . S
C516 C526 1.476 . S
H517 C511 0.929 . S
C518 O509 1.250 . S
C518 O510 1.258 . S
O519 Mn504 2.162 . S
O519 C507 1.281 . S
O520 Mn504 2.297 . S
O520 C507 1.236 . S
N521 Mn505 2.282 . S
N521 C522 1.328 . S
N521 C526 1.318 . S
C522 N521 1.328 . S
C522 C523 1.457 . S
C522 H527 0.929 . S
C523 C522 1.457 . S
C523 C524 1.291 . S
C523 H536 0.931 . S
C524 C523 1.291 . S
C524 C525 1.373 . S
C524 H537 0.929 . S
C525 C524 1.373 . S
C525 C526 1.396 . S
C525 C532 1.403 . S
C526 C516 1.476 . S
C526 N521 1.318 . S
C526 C525 1.396 . S
H527 C522 0.929 . S
O528 Mn504 2.385 . S
O528 C506 1.234 . S
O529 Mn504 2.209 . S
O529 Mn505 2.215 . S
O529 C506 1.283 . S
O530 Mn504 2.094 . S
O530 C508 1.240 . S
O531 Mn505 2.117 . S
O531 C508 1.264 . S
C532 C525 1.403 . S
C532 C533 1.399 . S
C532 H538 0.929 . S
C533 C513 1.449 . S
C533 C532 1.399 . S
C533 H539 0.930 . S
H534 C514 0.931 . S
H535 C515 0.930 . S
H536 C523 0.931 . S
H537 C524 0.929 . S
H538 C532 0.929 . S
H539 C533 0.930 . S
Mn540 O545 2.095 . S
Mn540 O555 2.162 1_655 S
Mn540 O556 2.297 . S
Mn540 O564 2.385 . S
Mn540 O565 2.209 . S
Mn540 O566 2.094 1_565 S
Mn541 O546 2.121 . S
Mn541 N548 2.257 . S
Mn541 N557 2.282 . S
Mn541 O565 2.215 . S
Mn541 O567 2.117 1_565 S
C542 O564 1.234 . S
C542 O565 1.283 . S
C543 O555 1.281 . S
C543 O556 1.236 1_455 S
C544 O566 1.240 . S
C544 O567 1.264 . S
O545 Mn540 2.095 . S
O545 C554 1.250 . S
O546 Mn541 2.121 . S
O546 C554 1.258 . S
C547 N548 1.326 . S
C547 C551 1.460 . S
C547 H553 0.929 . S
N548 Mn541 2.257 . S
N548 C547 1.326 . S
N548 C552 1.362 . S
C549 C550 1.258 . S
C549 C552 1.431 . S
C549 C569 1.449 . S
C550 C549 1.258 . S
C550 C551 1.477 . S
C550 H570 0.931 . S
C551 C547 1.460 . S
C551 C550 1.477 . S
C551 H571 0.930 . S
C552 N548 1.362 . S
C552 C549 1.431 . S
C552 C562 1.476 . S
H553 C547 0.929 . S
C554 O545 1.250 . S
C554 O546 1.258 . S
O555 Mn540 2.162 1_455 S
O555 C543 1.281 . S
O556 Mn540 2.297 . S
O556 C543 1.236 1_655 S
N557 Mn541 2.282 . S
N557 C558 1.328 . S
N557 C562 1.318 . S
C558 N557 1.328 . S
C558 C559 1.457 . S
C558 H563 0.929 . S
C559 C558 1.457 . S
C559 C560 1.291 . S
C559 H572 0.931 . S
C560 C559 1.291 . S
C560 C561 1.373 . S
C560 H573 0.929 . S
C561 C560 1.373 . S
C561 C562 1.396 . S
C561 C568 1.403 . S
C562 C552 1.476 . S
C562 N557 1.318 . S
C562 C561 1.396 . S
H563 C558 0.929 . S
O564 Mn540 2.385 . S
O564 C542 1.234 . S
O565 Mn540 2.209 . S
O565 Mn541 2.215 . S
O565 C542 1.283 . S
O566 Mn540 2.094 1_545 S
O566 C544 1.240 . S
O567 Mn541 2.117 1_545 S
O567 C544 1.264 . S
C568 C561 1.403 . S
C568 C569 1.399 . S
C568 H574 0.929 . S
C569 C549 1.449 . S
C569 C568 1.399 . S
C569 H575 0.930 . S
H570 C550 0.931 . S
H571 C551 0.930 . S
H572 C559 0.931 . S
H573 C560 0.929 . S
H574 C568 0.929 . S
H575 C569 0.930 . S
Mn576 O581 2.095 . S
Mn576 O591 2.162 . S
Mn576 O592 2.297 . S
Mn576 O600 2.385 . S
Mn576 O601 2.209 . S
Mn576 O602 2.094 . S
Mn577 O582 2.121 . S
Mn577 N584 2.257 . S
Mn577 N593 2.282 . S
Mn577 O601 2.215 . S
Mn577 O603 2.117 . S
C578 O600 1.234 . S
C578 O601 1.283 . S
C579 O591 1.281 . S
C579 O592 1.236 . S
C580 O602 1.240 . S
C580 O603 1.264 . S
O581 Mn576 2.095 . S
O581 C590 1.250 . S
O582 Mn577 2.121 . S
O582 C590 1.258 . S
C583 N584 1.326 . S
C583 C587 1.460 . S
C583 H589 0.929 . S
N584 Mn577 2.257 . S
N584 C583 1.326 . S
N584 C588 1.362 . S
C585 C586 1.258 . S
C585 C588 1.431 . S
C585 C605 1.449 . S
C586 C585 1.258 . S
C586 C587 1.477 . S
C586 H606 0.931 . S
C587 C583 1.460 . S
C587 C586 1.477 . S
C587 H607 0.930 . S
C588 N584 1.362 . S
C588 C585 1.431 . S
C588 C598 1.476 . S
H589 C583 0.929 . S
C590 O581 1.250 . S
C590 O582 1.258 . S
O591 Mn576 2.162 . S
O591 C579 1.281 . S
O592 Mn576 2.297 . S
O592 C579 1.236 . S
N593 Mn577 2.282 . S
N593 C594 1.328 . S
N593 C598 1.318 . S
C594 N593 1.328 . S
C594 C595 1.457 . S
C594 H599 0.929 . S
C595 C594 1.457 . S
C595 C596 1.291 . S
C595 H608 0.931 . S
C596 C595 1.291 . S
C596 C597 1.373 . S
C596 H609 0.929 . S
C597 C596 1.373 . S
C597 C598 1.396 . S
C597 C604 1.403 . S
C598 C588 1.476 . S
C598 N593 1.318 . S
C598 C597 1.396 . S
H599 C594 0.929 . S
O600 Mn576 2.385 . S
O600 C578 1.234 . S
O601 Mn576 2.209 . S
O601 Mn577 2.215 . S
O601 C578 1.283 . S
O602 Mn576 2.094 . S
O602 C580 1.240 . S
O603 Mn577 2.117 . S
O603 C580 1.264 . S
C604 C597 1.403 . S
C604 C605 1.399 . S
C604 H610 0.929 . S
C605 C585 1.449 . S
C605 C604 1.399 . S
C605 H611 0.930 . S
H606 C586 0.931 . S
H607 C587 0.930 . S
H608 C595 0.931 . S
H609 C596 0.929 . S
H610 C604 0.929 . S
H611 C605 0.930 . S
Mn612 O617 2.095 . S
Mn612 O627 2.162 . S
Mn612 O628 2.297 . S
Mn612 O636 2.385 . S
Mn612 O637 2.209 . S
Mn612 O638 2.094 . S
Mn613 O618 2.121 . S
Mn613 N620 2.257 . S
Mn613 N629 2.282 . S
Mn613 O637 2.215 . S
Mn613 O639 2.117 . S
C614 O636 1.234 . S
C614 O637 1.283 . S
C615 O627 1.281 . S
C615 O628 1.236 . S
C616 O638 1.240 . S
C616 O639 1.264 . S
O617 Mn612 2.095 . S
O617 C626 1.250 . S
O618 Mn613 2.121 . S
O618 C626 1.258 . S
C619 N620 1.326 . S
C619 C623 1.460 . S
C619 H625 0.929 . S
N620 Mn613 2.257 . S
N620 C619 1.326 . S
N620 C624 1.362 . S
C621 C622 1.258 . S
C621 C624 1.431 . S
C621 C641 1.449 . S
C622 C621 1.258 . S
C622 C623 1.477 . S
C622 H642 0.931 . S
C623 C619 1.460 . S
C623 C622 1.477 . S
C623 H643 0.930 . S
C624 N620 1.362 . S
C624 C621 1.431 . S
C624 C634 1.476 . S
H625 C619 0.929 . S
C626 O617 1.250 . S
C626 O618 1.258 . S
O627 Mn612 2.162 . S
O627 C615 1.281 . S
O628 Mn612 2.297 . S
O628 C615 1.236 . S
N629 Mn613 2.282 . S
N629 C630 1.328 . S
N629 C634 1.318 . S
C630 N629 1.328 . S
C630 C631 1.457 . S
C630 H635 0.929 . S
C631 C630 1.457 . S
C631 C632 1.291 . S
C631 H644 0.931 . S
C632 C631 1.291 . S
C632 C633 1.373 . S
C632 H645 0.929 . S
C633 C632 1.373 . S
C633 C634 1.396 . S
C633 C640 1.403 . S
C634 C624 1.476 . S
C634 N629 1.318 . S
C634 C633 1.396 . S
H635 C630 0.929 . S
O636 Mn612 2.385 . S
O636 C614 1.234 . S
O637 Mn612 2.209 . S
O637 Mn613 2.215 . S
O637 C614 1.283 . S
O638 Mn612 2.094 . S
O638 C616 1.240 . S
O639 Mn613 2.117 . S
O639 C616 1.264 . S
C640 C633 1.403 . S
C640 C641 1.399 . S
C640 H646 0.929 . S
C641 C621 1.449 . S
C641 C640 1.399 . S
C641 H647 0.930 . S
H642 C622 0.931 . S
H643 C623 0.930 . S
H644 C631 0.931 . S
H645 C632 0.929 . S
H646 C640 0.929 . S
H647 C641 0.930 . S
Mn648 O653 2.095 . S
Mn648 O663 2.162 . S
Mn648 O664 2.297 . S
Mn648 O672 2.385 . S
Mn648 O673 2.209 . S
Mn648 O674 2.094 . S
Mn649 O654 2.121 . S
Mn649 N656 2.257 . S
Mn649 N665 2.282 . S
Mn649 O673 2.215 . S
Mn649 O675 2.117 . S
C650 O672 1.234 . S
C650 O673 1.283 . S
C651 O663 1.281 . S
C651 O664 1.236 . S
C652 O674 1.240 . S
C652 O675 1.264 . S
O653 Mn648 2.095 . S
O653 C662 1.250 . S
O654 Mn649 2.121 . S
O654 C662 1.258 . S
C655 N656 1.326 . S
C655 C659 1.460 . S
C655 H661 0.929 . S
N656 Mn649 2.257 . S
N656 C655 1.326 . S
N656 C660 1.362 . S
C657 C658 1.258 . S
C657 C660 1.431 . S
C657 C677 1.449 . S
C658 C657 1.258 . S
C658 C659 1.477 . S
C658 H678 0.931 . S
C659 C655 1.460 . S
C659 C658 1.477 . S
C659 H679 0.930 . S
C660 N656 1.362 . S
C660 C657 1.431 . S
C660 C670 1.476 . S
H661 C655 0.929 . S
C662 O653 1.250 . S
C662 O654 1.258 . S
O663 Mn648 2.162 . S
O663 C651 1.281 . S
O664 Mn648 2.297 . S
O664 C651 1.236 . S
N665 Mn649 2.282 . S
N665 C666 1.328 . S
N665 C670 1.318 . S
C666 N665 1.328 . S
C666 C667 1.457 . S
C666 H671 0.929 . S
C667 C666 1.457 . S
C667 C668 1.291 . S
C667 H680 0.931 . S
C668 C667 1.291 . S
C668 C669 1.373 . S
C668 H681 0.929 . S
C669 C668 1.373 . S
C669 C670 1.396 . S
C669 C676 1.403 . S
C670 C660 1.476 . S
C670 N665 1.318 . S
C670 C669 1.396 . S
H671 C666 0.929 . S
O672 Mn648 2.385 . S
O672 C650 1.234 . S
O673 Mn648 2.209 . S
O673 Mn649 2.215 . S
O673 C650 1.283 . S
O674 Mn648 2.094 . S
O674 C652 1.240 . S
O675 Mn649 2.117 . S
O675 C652 1.264 . S
C676 C669 1.403 . S
C676 C677 1.399 . S
C676 H682 0.929 . S
C677 C657 1.449 . S
C677 C676 1.399 . S
C677 H683 0.930 . S
H678 C658 0.931 . S
H679 C659 0.930 . S
H680 C667 0.931 . S
H681 C668 0.929 . S
H682 C676 0.929 . S
H683 C677 0.930 . S
Mn684 O689 2.095 . S
Mn684 O699 2.162 . S
Mn684 O700 2.297 . S
Mn684 O708 2.385 . S
Mn684 O709 2.209 . S
Mn684 O710 2.094 . S
Mn685 O690 2.121 . S
Mn685 N692 2.257 . S
Mn685 N701 2.282 . S
Mn685 O709 2.215 . S
Mn685 O711 2.117 1_655 S
C686 O708 1.234 . S
C686 O709 1.283 . S
C687 O699 1.281 . S
C687 O700 1.236 . S
C688 O710 1.240 1_455 S
C688 O711 1.264 . S
O689 Mn684 2.095 . S
O689 C698 1.250 . S
O690 Mn685 2.121 . S
O690 C698 1.258 . S
C691 N692 1.326 . S
C691 C695 1.460 . S
C691 H697 0.929 . S
N692 Mn685 2.257 . S
N692 C691 1.326 . S
N692 C696 1.362 . S
C693 C694 1.258 . S
C693 C696 1.431 . S
C693 C713 1.449 . S
C694 C693 1.258 . S
C694 C695 1.477 . S
C694 H714 0.931 . S
C695 C691 1.460 . S
C695 C694 1.477 . S
C695 H715 0.930 . S
C696 N692 1.362 . S
C696 C693 1.431 . S
C696 C706 1.476 . S
H697 C691 0.929 . S
C698 O689 1.250 . S
C698 O690 1.258 . S
O699 Mn684 2.162 . S
O699 C687 1.281 . S
O700 Mn684 2.297 . S
O700 C687 1.236 . S
N701 Mn685 2.282 . S
N701 C702 1.328 . S
N701 C706 1.318 . S
C702 N701 1.328 . S
C702 C703 1.457 . S
C702 H707 0.929 . S
C703 C702 1.457 . S
C703 C704 1.291 . S
C703 H716 0.931 . S
C704 C703 1.291 . S
C704 C705 1.373 . S
C704 H717 0.929 . S
C705 C704 1.373 . S
C705 C706 1.396 . S
C705 C712 1.403 . S
C706 C696 1.476 . S
C706 N701 1.318 . S
C706 C705 1.396 . S
H707 C702 0.929 . S
O708 Mn684 2.385 . S
O708 C686 1.234 . S
O709 Mn684 2.209 . S
O709 Mn685 2.215 . S
O709 C686 1.283 . S
O710 Mn684 2.094 . S
O710 C688 1.240 1_655 S
O711 Mn685 2.117 1_455 S
O711 C688 1.264 . S
C712 C705 1.403 . S
C712 C713 1.399 . S
C712 H718 0.929 . S
C713 C693 1.449 . S
C713 C712 1.399 . S
C713 H719 0.930 . S
H714 C694 0.931 . S
H715 C695 0.930 . S
H716 C703 0.931 . S
H717 C704 0.929 . S
H718 C712 0.929 . S
H719 C713 0.930 . S
Mn720 O725 2.095 . S
Mn720 O735 2.162 . S
Mn720 O736 2.297 . S
Mn720 O744 2.385 . S
Mn720 O745 2.209 . S
Mn720 O746 2.094 . S
Mn721 O726 2.121 . S
Mn721 N728 2.257 . S
Mn721 N737 2.282 . S
Mn721 O745 2.215 . S
Mn721 O747 2.117 . S
C722 O744 1.234 . S
C722 O745 1.283 . S
C723 O735 1.281 . S
C723 O736 1.236 . S
C724 O746 1.240 . S
C724 O747 1.264 . S
O725 Mn720 2.095 . S
O725 C734 1.250 . S
O726 Mn721 2.121 . S
O726 C734 1.258 . S
C727 N728 1.326 . S
C727 C731 1.460 . S
C727 H733 0.929 . S
N728 Mn721 2.257 . S
N728 C727 1.326 . S
N728 C732 1.362 . S
C729 C730 1.258 . S
C729 C732 1.431 . S
C729 C749 1.449 . S
C730 C729 1.258 . S
C730 C731 1.477 . S
C730 H750 0.931 . S
C731 C727 1.460 . S
C731 C730 1.477 . S
C731 H751 0.930 . S
C732 N728 1.362 . S
C732 C729 1.431 . S
C732 C742 1.476 . S
H733 C727 0.929 . S
C734 O725 1.250 . S
C734 O726 1.258 . S
O735 Mn720 2.162 . S
O735 C723 1.281 . S
O736 Mn720 2.297 . S
O736 C723 1.236 . S
N737 Mn721 2.282 . S
N737 C738 1.328 . S
N737 C742 1.318 . S
C738 N737 1.328 . S
C738 C739 1.457 . S
C738 H743 0.929 . S
C739 C738 1.457 . S
C739 C740 1.291 . S
C739 H752 0.931 . S
C740 C739 1.291 . S
C740 C741 1.373 . S
C740 H753 0.929 . S
C741 C740 1.373 . S
C741 C742 1.396 . S
C741 C748 1.403 . S
C742 C732 1.476 . S
C742 N737 1.318 . S
C742 C741 1.396 . S
H743 C738 0.929 . S
O744 Mn720 2.385 . S
O744 C722 1.234 . S
O745 Mn720 2.209 . S
O745 Mn721 2.215 . S
O745 C722 1.283 . S
O746 Mn720 2.094 . S
O746 C724 1.240 . S
O747 Mn721 2.117 . S
O747 C724 1.264 . S
C748 C741 1.403 . S
C748 C749 1.399 . S
C748 H754 0.929 . S
C749 C729 1.449 . S
C749 C748 1.399 . S
C749 H755 0.930 . S
H750 C730 0.931 . S
H751 C731 0.930 . S
H752 C739 0.931 . S
H753 C740 0.929 . S
H754 C748 0.929 . S
H755 C749 0.930 . S
Mn756 O761 2.095 . S
Mn756 O771 2.162 . S
Mn756 O772 2.297 . S
Mn756 O780 2.385 . S
Mn756 O781 2.209 . S
Mn756 O782 2.094 . S
Mn757 O762 2.121 . S
Mn757 N764 2.257 . S
Mn757 N773 2.282 . S
Mn757 O781 2.215 . S
Mn757 O783 2.117 1_655 S
C758 O780 1.234 . S
C758 O781 1.283 . S
C759 O771 1.281 . S
C759 O772 1.236 . S
C760 O782 1.240 1_455 S
C760 O783 1.264 . S
O761 Mn756 2.095 . S
O761 C770 1.250 . S
O762 Mn757 2.121 . S
O762 C770 1.258 . S
C763 N764 1.326 . S
C763 C767 1.460 . S
C763 H769 0.929 . S
N764 Mn757 2.257 . S
N764 C763 1.326 . S
N764 C768 1.362 . S
C765 C766 1.258 . S
C765 C768 1.431 . S
C765 C785 1.449 . S
C766 C765 1.258 . S
C766 C767 1.477 . S
C766 H786 0.931 . S
C767 C763 1.460 . S
C767 C766 1.477 . S
C767 H787 0.930 . S
C768 N764 1.362 . S
C768 C765 1.431 . S
C768 C778 1.476 . S
H769 C763 0.929 . S
C770 O761 1.250 . S
C770 O762 1.258 . S
O771 Mn756 2.162 . S
O771 C759 1.281 . S
O772 Mn756 2.297 . S
O772 C759 1.236 . S
N773 Mn757 2.282 . S
N773 C774 1.328 . S
N773 C778 1.318 . S
C774 N773 1.328 . S
C774 C775 1.457 . S
C774 H779 0.929 . S
C775 C774 1.457 . S
C775 C776 1.291 . S
C775 H788 0.931 . S
C776 C775 1.291 . S
C776 C777 1.373 . S
C776 H789 0.929 . S
C777 C776 1.373 . S
C777 C778 1.396 . S
C777 C784 1.403 . S
C778 C768 1.476 . S
C778 N773 1.318 . S
C778 C777 1.396 . S
H779 C774 0.929 . S
O780 Mn756 2.385 . S
O780 C758 1.234 . S
O781 Mn756 2.209 . S
O781 Mn757 2.215 . S
O781 C758 1.283 . S
O782 Mn756 2.094 . S
O782 C760 1.240 1_655 S
O783 Mn757 2.117 1_455 S
O783 C760 1.264 . S
C784 C777 1.403 . S
C784 C785 1.399 . S
C784 H790 0.929 . S
C785 C765 1.449 . S
C785 C784 1.399 . S
C785 H791 0.930 . S
H786 C766 0.931 . S
H787 C767 0.930 . S
H788 C775 0.931 . S
H789 C776 0.929 . S
H790 C784 0.929 . S
H791 C785 0.930 . S
Mn792 O797 2.095 . S
Mn792 O807 2.162 . S
Mn792 O808 2.297 . S
Mn792 O816 2.385 . S
Mn792 O817 2.209 . S
Mn792 O818 2.094 . S
Mn793 O798 2.121 . S
Mn793 N800 2.257 . S
Mn793 N809 2.282 . S
Mn793 O817 2.215 . S
Mn793 O819 2.117 . S
C794 O816 1.234 . S
C794 O817 1.283 . S
C795 O807 1.281 . S
C795 O808 1.236 . S
C796 O818 1.240 . S
C796 O819 1.264 . S
O797 Mn792 2.095 . S
O797 C806 1.250 . S
O798 Mn793 2.121 . S
O798 C806 1.258 . S
C799 N800 1.326 . S
C799 C803 1.460 . S
C799 H805 0.929 . S
N800 Mn793 2.257 . S
N800 C799 1.326 . S
N800 C804 1.362 . S
C801 C802 1.258 . S
C801 C804 1.431 . S
C801 C821 1.449 . S
C802 C801 1.258 . S
C802 C803 1.477 . S
C802 H822 0.931 . S
C803 C799 1.460 . S
C803 C802 1.477 . S
C803 H823 0.930 . S
C804 N800 1.362 . S
C804 C801 1.431 . S
C804 C814 1.476 . S
H805 C799 0.929 . S
C806 O797 1.250 . S
C806 O798 1.258 . S
O807 Mn792 2.162 . S
O807 C795 1.281 . S
O808 Mn792 2.297 . S
O808 C795 1.236 . S
N809 Mn793 2.282 . S
N809 C810 1.328 . S
N809 C814 1.318 . S
C810 N809 1.328 . S
C810 C811 1.457 . S
C810 H815 0.929 . S
C811 C810 1.457 . S
C811 C812 1.291 . S
C811 H824 0.931 . S
C812 C811 1.291 . S
C812 C813 1.373 . S
C812 H825 0.929 . S
C813 C812 1.373 . S
C813 C814 1.396 . S
C813 C820 1.403 . S
C814 C804 1.476 . S
C814 N809 1.318 . S
C814 C813 1.396 . S
H815 C810 0.929 . S
O816 Mn792 2.385 . S
O816 C794 1.234 . S
O817 Mn792 2.209 . S
O817 Mn793 2.215 . S
O817 C794 1.283 . S
O818 Mn792 2.094 . S
O818 C796 1.240 . S
O819 Mn793 2.117 . S
O819 C796 1.264 . S
C820 C813 1.403 . S
C820 C821 1.399 . S
C820 H826 0.929 . S
C821 C801 1.449 . S
C821 C820 1.399 . S
C821 H827 0.930 . S
H822 C802 0.931 . S
H823 C803 0.930 . S
H824 C811 0.931 . S
H825 C812 0.929 . S
H826 C820 0.929 . S
H827 C821 0.930 . S
Mn828 O833 2.095 . S
Mn828 O843 2.162 . S
Mn828 O844 2.297 . S
Mn828 O852 2.385 . S
Mn828 O853 2.209 . S
Mn828 O854 2.094 . S
Mn829 O834 2.121 . S
Mn829 N836 2.257 . S
Mn829 N845 2.282 . S
Mn829 O853 2.215 . S
Mn829 O855 2.117 . S
C830 O852 1.234 . S
C830 O853 1.283 . S
C831 O843 1.281 . S
C831 O844 1.236 . S
C832 O854 1.240 . S
C832 O855 1.264 . S
O833 Mn828 2.095 . S
O833 C842 1.250 . S
O834 Mn829 2.121 . S
O834 C842 1.258 . S
C835 N836 1.326 . S
C835 C839 1.460 . S
C835 H841 0.929 . S
N836 Mn829 2.257 . S
N836 C835 1.326 . S
N836 C840 1.362 . S
C837 C838 1.258 . S
C837 C840 1.431 . S
C837 C857 1.449 . S
C838 C837 1.258 . S
C838 C839 1.477 . S
C838 H858 0.931 . S
C839 C835 1.460 . S
C839 C838 1.477 . S
C839 H859 0.930 . S
C840 N836 1.362 . S
C840 C837 1.431 . S
C840 C850 1.476 . S
H841 C835 0.929 . S
C842 O833 1.250 . S
C842 O834 1.258 . S
O843 Mn828 2.162 . S
O843 C831 1.281 . S
O844 Mn828 2.297 . S
O844 C831 1.236 . S
N845 Mn829 2.282 . S
N845 C846 1.328 . S
N845 C850 1.318 . S
C846 N845 1.328 . S
C846 C847 1.457 . S
C846 H851 0.929 . S
C847 C846 1.457 . S
C847 C848 1.291 . S
C847 H860 0.931 . S
C848 C847 1.291 . S
C848 C849 1.373 . S
C848 H861 0.929 . S
C849 C848 1.373 . S
C849 C850 1.396 . S
C849 C856 1.403 . S
C850 C840 1.476 . S
C850 N845 1.318 . S
C850 C849 1.396 . S
H851 C846 0.929 . S
O852 Mn828 2.385 . S
O852 C830 1.234 . S
O853 Mn828 2.209 . S
O853 Mn829 2.215 . S
O853 C830 1.283 . S
O854 Mn828 2.094 . S
O854 C832 1.240 . S
O855 Mn829 2.117 . S
O855 C832 1.264 . S
C856 C849 1.403 . S
C856 C857 1.399 . S
C856 H862 0.929 . S
C857 C837 1.449 . S
C857 C856 1.399 . S
C857 H863 0.930 . S
H858 C838 0.931 . S
H859 C839 0.930 . S
H860 C847 0.931 . S
H861 C848 0.929 . S
H862 C856 0.929 . S
H863 C857 0.930 . S
Mn864 O869 2.095 . S
Mn864 O879 2.162 . S
Mn864 O880 2.297 . S
Mn864 O888 2.385 . S
Mn864 O889 2.209 . S
Mn864 O890 2.094 . S
Mn865 O870 2.121 . S
Mn865 N872 2.257 . S
Mn865 N881 2.282 . S
Mn865 O889 2.215 . S
Mn865 O891 2.117 . S
C866 O888 1.234 . S
C866 O889 1.283 . S
C867 O879 1.281 . S
C867 O880 1.236 . S
C868 O890 1.240 . S
C868 O891 1.264 . S
O869 Mn864 2.095 . S
O869 C878 1.250 . S
O870 Mn865 2.121 . S
O870 C878 1.258 . S
C871 N872 1.326 . S
C871 C875 1.460 . S
C871 H877 0.929 . S
N872 Mn865 2.257 . S
N872 C871 1.326 . S
N872 C876 1.362 . S
C873 C874 1.258 . S
C873 C876 1.431 . S
C873 C893 1.449 . S
C874 C873 1.258 . S
C874 C875 1.477 . S
C874 H894 0.931 . S
C875 C871 1.460 . S
C875 C874 1.477 . S
C875 H895 0.930 . S
C876 N872 1.362 . S
C876 C873 1.431 . S
C876 C886 1.476 . S
H877 C871 0.929 . S
C878 O869 1.250 . S
C878 O870 1.258 . S
O879 Mn864 2.162 . S
O879 C867 1.281 . S
O880 Mn864 2.297 . S
O880 C867 1.236 . S
N881 Mn865 2.282 . S
N881 C882 1.328 . S
N881 C886 1.318 . S
C882 N881 1.328 . S
C882 C883 1.457 . S
C882 H887 0.929 . S
C883 C882 1.457 . S
C883 C884 1.291 . S
C883 H896 0.931 . S
C884 C883 1.291 . S
C884 C885 1.373 . S
C884 H897 0.929 . S
C885 C884 1.373 . S
C885 C886 1.396 . S
C885 C892 1.403 . S
C886 C876 1.476 . S
C886 N881 1.318 . S
C886 C885 1.396 . S
H887 C882 0.929 . S
O888 Mn864 2.385 . S
O888 C866 1.234 . S
O889 Mn864 2.209 . S
O889 Mn865 2.215 . S
O889 C866 1.283 . S
O890 Mn864 2.094 . S
O890 C868 1.240 . S
O891 Mn865 2.117 . S
O891 C868 1.264 . S
C892 C885 1.403 . S
C892 C893 1.399 . S
C892 H898 0.929 . S
C893 C873 1.449 . S
C893 C892 1.399 . S
C893 H899 0.930 . S
H894 C874 0.931 . S
H895 C875 0.930 . S
H896 C883 0.931 . S
H897 C884 0.929 . S
H898 C892 0.929 . S
H899 C893 0.930 . S
Mn900 O905 2.095 . S
Mn900 O915 2.162 . S
Mn900 O916 2.297 . S
Mn900 O924 2.385 . S
Mn900 O925 2.209 . S
Mn900 O926 2.094 . S
Mn901 O906 2.121 . S
Mn901 N908 2.257 . S
Mn901 N917 2.282 . S
Mn901 O925 2.215 . S
Mn901 O927 2.117 . S
C902 O924 1.234 . S
C902 O925 1.283 . S
C903 O915 1.281 . S
C903 O916 1.236 . S
C904 O926 1.240 . S
C904 O927 1.264 . S
O905 Mn900 2.095 . S
O905 C914 1.250 . S
O906 Mn901 2.121 . S
O906 C914 1.258 . S
C907 N908 1.326 . S
C907 C911 1.460 . S
C907 H913 0.929 . S
N908 Mn901 2.257 . S
N908 C907 1.326 . S
N908 C912 1.362 . S
C909 C910 1.258 . S
C909 C912 1.431 . S
C909 C929 1.449 . S
C910 C909 1.258 . S
C910 C911 1.477 . S
C910 H930 0.931 . S
C911 C907 1.460 . S
C911 C910 1.477 . S
C911 H931 0.930 . S
C912 N908 1.362 . S
C912 C909 1.431 . S
C912 C922 1.476 . S
H913 C907 0.929 . S
C914 O905 1.250 . S
C914 O906 1.258 . S
O915 Mn900 2.162 . S
O915 C903 1.281 . S
O916 Mn900 2.297 . S
O916 C903 1.236 . S
N917 Mn901 2.282 . S
N917 C918 1.328 . S
N917 C922 1.318 . S
C918 N917 1.328 . S
C918 C919 1.457 . S
C918 H923 0.929 . S
C919 C918 1.457 . S
C919 C920 1.291 . S
C919 H932 0.931 . S
C920 C919 1.291 . S
C920 C921 1.373 . S
C920 H933 0.929 . S
C921 C920 1.373 . S
C921 C922 1.396 . S
C921 C928 1.403 . S
C922 C912 1.476 . S
C922 N917 1.318 . S
C922 C921 1.396 . S
H923 C918 0.929 . S
O924 Mn900 2.385 . S
O924 C902 1.234 . S
O925 Mn900 2.209 . S
O925 Mn901 2.215 . S
O925 C902 1.283 . S
O926 Mn900 2.094 . S
O926 C904 1.240 . S
O927 Mn901 2.117 . S
O927 C904 1.264 . S
C928 C921 1.403 . S
C928 C929 1.399 . S
C928 H934 0.929 . S
C929 C909 1.449 . S
C929 C928 1.399 . S
C929 H935 0.930 . S
H930 C910 0.931 . S
H931 C911 0.930 . S
H932 C919 0.931 . S
H933 C920 0.929 . S
H934 C928 0.929 . S
H935 C929 0.930 . S
Mn936 O941 2.095 . S
Mn936 O951 2.162 . S
Mn936 O952 2.297 . S
Mn936 O960 2.385 . S
Mn936 O961 2.209 . S
Mn936 O962 2.094 . S
Mn937 O942 2.121 . S
Mn937 N944 2.257 . S
Mn937 N953 2.282 . S
Mn937 O961 2.215 . S
Mn937 O963 2.117 . S
C938 O960 1.234 . S
C938 O961 1.283 . S
C939 O951 1.281 . S
C939 O952 1.236 . S
C940 O962 1.240 . S
C940 O963 1.264 . S
O941 Mn936 2.095 . S
O941 C950 1.250 . S
O942 Mn937 2.121 . S
O942 C950 1.258 . S
C943 N944 1.326 . S
C943 C947 1.460 . S
C943 H949 0.929 . S
N944 Mn937 2.257 . S
N944 C943 1.326 . S
N944 C948 1.362 . S
C945 C946 1.258 . S
C945 C948 1.431 . S
C945 C965 1.449 . S
C946 C945 1.258 . S
C946 C947 1.477 . S
C946 H966 0.931 . S
C947 C943 1.460 . S
C947 C946 1.477 . S
C947 H967 0.930 . S
C948 N944 1.362 . S
C948 C945 1.431 . S
C948 C958 1.476 . S
H949 C943 0.929 . S
C950 O941 1.250 . S
C950 O942 1.258 . S
O951 Mn936 2.162 . S
O951 C939 1.281 . S
O952 Mn936 2.297 . S
O952 C939 1.236 . S
N953 Mn937 2.282 . S
N953 C954 1.328 . S
N953 C958 1.318 . S
C954 N953 1.328 . S
C954 C955 1.457 . S
C954 H959 0.929 . S
C955 C954 1.457 . S
C955 C956 1.291 . S
C955 H968 0.931 . S
C956 C955 1.291 . S
C956 C957 1.373 . S
C956 H969 0.929 . S
C957 C956 1.373 . S
C957 C958 1.396 . S
C957 C964 1.403 . S
C958 C948 1.476 . S
C958 N953 1.318 . S
C958 C957 1.396 . S
H959 C954 0.929 . S
O960 Mn936 2.385 . S
O960 C938 1.234 . S
O961 Mn936 2.209 . S
O961 Mn937 2.215 . S
O961 C938 1.283 . S
O962 Mn936 2.094 . S
O962 C940 1.240 . S
O963 Mn937 2.117 . S
O963 C940 1.264 . S
C964 C957 1.403 . S
C964 C965 1.399 . S
C964 H970 0.929 . S
C965 C945 1.449 . S
C965 C964 1.399 . S
C965 H971 0.930 . S
H966 C946 0.931 . S
H967 C947 0.930 . S
H968 C955 0.931 . S
H969 C956 0.929 . S
H970 C964 0.929 . S
H971 C965 0.930 . S
Mn972 O977 2.095 . S
Mn972 O987 2.130 1_455 S
Mn972 O988 2.297 . S
Mn972 O996 2.385 . S
Mn972 O997 2.209 . S
Mn972 O998 2.094 . S
Mn973 O978 2.121 . S
Mn973 N980 2.257 . S
Mn973 N989 2.282 . S
Mn973 O997 2.215 . S
Mn973 O999 2.117 . S
C974 O996 1.234 . S
C974 O997 1.283 . S
C975 O987 1.294 . S
C975 O988 1.236 1_655 S
C976 O998 1.240 . S
C976 O999 1.264 . S
O977 Mn972 2.095 . S
O977 C986 1.250 . S
O978 Mn973 2.121 . S
O978 C986 1.258 . S
C979 N980 1.326 . S
C979 C983 1.460 . S
C979 H985 0.929 . S
N980 Mn973 2.257 . S
N980 C979 1.326 . S
N980 C984 1.362 . S
C981 C982 1.258 . S
C981 C984 1.431 . S
C981 C1001 1.449 . S
C982 C981 1.258 . S
C982 C983 1.477 . S
C982 H1002 0.931 . S
C983 C979 1.460 . S
C983 C982 1.477 . S
C983 H1003 0.930 . S
C984 N980 1.362 . S
C984 C981 1.431 . S
C984 C994 1.476 . S
H985 C979 0.929 . S
C986 O977 1.250 . S
C986 O978 1.258 . S
O987 Mn972 2.130 1_655 S
O987 C975 1.294 . S
O988 Mn972 2.297 . S
O988 C975 1.236 1_455 S
N989 Mn973 2.282 . S
N989 C990 1.328 . S
N989 C994 1.318 . S
C990 N989 1.328 . S
C990 C991 1.457 . S
C990 H995 0.929 . S
C991 C990 1.457 . S
C991 C992 1.291 . S
C991 H1004 0.931 . S
C992 C991 1.291 . S
C992 C993 1.373 . S
C992 H1005 0.929 . S
C993 C992 1.373 . S
C993 C994 1.396 . S
C993 C1000 1.403 . S
C994 C984 1.476 . S
C994 N989 1.318 . S
C994 C993 1.396 . S
H995 C990 0.929 . S
O996 Mn972 2.385 . S
O996 C974 1.234 . S
O997 Mn972 2.209 . S
O997 Mn973 2.215 . S
O997 C974 1.283 . S
O998 Mn972 2.094 . S
O998 C976 1.240 . S
O999 Mn973 2.117 . S
O999 C976 1.264 . S
C1000 C993 1.403 . S
C1000 C1001 1.399 . S
C1000 H1006 0.929 . S
C1001 C981 1.449 . S
C1001 C1000 1.399 . S
C1001 H1007 0.930 . S
H1002 C982 0.931 . S
H1003 C983 0.930 . S
H1004 C991 0.931 . S
H1005 C992 0.929 . S
H1006 C1000 0.929 . S
H1007 C1001 0.930 . S
Mn1008 O1013 2.095 . S
Mn1008 O1023 2.162 . S
Mn1008 O1024 2.297 . S
Mn1008 O1032 2.385 . S
Mn1008 O1033 2.209 . S
Mn1008 O1034 2.094 . S
Mn1009 O1014 2.121 . S
Mn1009 N1016 2.257 . S
Mn1009 N1025 2.282 . S
Mn1009 O1033 2.215 . S
Mn1009 O1035 2.117 . S
C1010 O1032 1.234 . S
C1010 O1033 1.283 . S
C1011 O1023 1.281 . S
C1011 O1024 1.236 . S
C1012 O1034 1.240 . S
C1012 O1035 1.264 . S
O1013 Mn1008 2.095 . S
O1013 C1022 1.250 . S
O1014 Mn1009 2.121 . S
O1014 C1022 1.258 . S
C1015 N1016 1.326 . S
C1015 C1019 1.460 . S
C1015 H1021 0.929 . S
N1016 Mn1009 2.257 . S
N1016 C1015 1.326 . S
N1016 C1020 1.362 . S
C1017 C1018 1.258 . S
C1017 C1020 1.431 . S
C1017 C1037 1.449 . S
C1018 C1017 1.258 . S
C1018 C1019 1.477 . S
C1018 H1038 0.931 . S
C1019 C1015 1.460 . S
C1019 C1018 1.477 . S
C1019 H1039 0.930 . S
C1020 N1016 1.362 . S
C1020 C1017 1.431 . S
C1020 C1030 1.476 . S
H1021 C1015 0.929 . S
C1022 O1013 1.250 . S
C1022 O1014 1.258 . S
O1023 Mn1008 2.162 . S
O1023 C1011 1.281 . S
O1024 Mn1008 2.297 . S
O1024 C1011 1.236 . S
N1025 Mn1009 2.282 . S
N1025 C1026 1.328 . S
N1025 C1030 1.318 . S
C1026 N1025 1.328 . S
C1026 C1027 1.457 . S
C1026 H1031 0.929 . S
C1027 C1026 1.457 . S
C1027 C1028 1.291 . S
C1027 H1040 0.931 . S
C1028 C1027 1.291 . S
C1028 C1029 1.373 . S
C1028 H1041 0.929 . S
C1029 C1028 1.373 . S
C1029 C1030 1.396 . S
C1029 C1036 1.403 . S
C1030 C1020 1.476 . S
C1030 N1025 1.318 . S
C1030 C1029 1.396 . S
H1031 C1026 0.929 . S
O1032 Mn1008 2.385 . S
O1032 C1010 1.234 . S
O1033 Mn1008 2.209 . S
O1033 Mn1009 2.215 . S
O1033 C1010 1.283 . S
O1034 Mn1008 2.094 . S
O1034 C1012 1.240 . S
O1035 Mn1009 2.117 . S
O1035 C1012 1.264 . S
C1036 C1029 1.403 . S
C1036 C1037 1.399 . S
C1036 H1042 0.929 . S
C1037 C1017 1.449 . S
C1037 C1036 1.399 . S
C1037 H1043 0.930 . S
H1038 C1018 0.931 . S
H1039 C1019 0.930 . S
H1040 C1027 0.931 . S
H1041 C1028 0.929 . S
H1042 C1036 0.929 . S
H1043 C1037 0.930 . S
Mn1044 O1049 2.095 . S
Mn1044 O1059 2.130 1_455 S
Mn1044 O1060 2.297 . S
Mn1044 O1068 2.385 . S
Mn1044 O1069 2.209 . S
Mn1044 O1070 2.094 . S
Mn1045 O1050 2.121 . S
Mn1045 N1052 2.257 . S
Mn1045 N1061 2.282 . S
Mn1045 O1069 2.215 . S
Mn1045 O1071 2.117 . S
C1046 O1068 1.234 . S
C1046 O1069 1.283 . S
C1047 O1059 1.294 . S
C1047 O1060 1.236 1_655 S
C1048 O1070 1.240 . S
C1048 O1071 1.264 . S
O1049 Mn1044 2.095 . S
O1049 C1058 1.250 . S
O1050 Mn1045 2.121 . S
O1050 C1058 1.258 . S
C1051 N1052 1.326 . S
C1051 C1055 1.460 . S
C1051 H1057 0.929 . S
N1052 Mn1045 2.257 . S
N1052 C1051 1.326 . S
N1052 C1056 1.362 . S
C1053 C1054 1.258 . S
C1053 C1056 1.431 . S
C1053 C1073 1.449 . S
C1054 C1053 1.258 . S
C1054 C1055 1.477 . S
C1054 H1074 0.931 . S
C1055 C1051 1.460 . S
C1055 C1054 1.477 . S
C1055 H1075 0.930 . S
C1056 N1052 1.362 . S
C1056 C1053 1.431 . S
C1056 C1066 1.476 . S
H1057 C1051 0.929 . S
C1058 O1049 1.250 . S
C1058 O1050 1.258 . S
O1059 Mn1044 2.130 1_655 S
O1059 C1047 1.294 . S
O1060 Mn1044 2.297 . S
O1060 C1047 1.236 1_455 S
N1061 Mn1045 2.282 . S
N1061 C1062 1.328 . S
N1061 C1066 1.318 . S
C1062 N1061 1.328 . S
C1062 C1063 1.457 . S
C1062 H1067 0.929 . S
C1063 C1062 1.457 . S
C1063 C1064 1.291 . S
C1063 H1076 0.931 . S
C1064 C1063 1.291 . S
C1064 C1065 1.373 . S
C1064 H1077 0.929 . S
C1065 C1064 1.373 . S
C1065 C1066 1.396 . S
C1065 C1072 1.403 . S
C1066 C1056 1.476 . S
C1066 N1061 1.318 . S
C1066 C1065 1.396 . S
H1067 C1062 0.929 . S
O1068 Mn1044 2.385 . S
O1068 C1046 1.234 . S
O1069 Mn1044 2.209 . S
O1069 Mn1045 2.215 . S
O1069 C1046 1.283 . S
O1070 Mn1044 2.094 . S
O1070 C1048 1.240 . S
O1071 Mn1045 2.117 . S
O1071 C1048 1.264 . S
C1072 C1065 1.403 . S
C1072 C1073 1.399 . S
C1072 H1078 0.929 . S
C1073 C1053 1.449 . S
C1073 C1072 1.399 . S
C1073 H1079 0.930 . S
H1074 C1054 0.931 . S
H1075 C1055 0.930 . S
H1076 C1063 0.931 . S
H1077 C1064 0.929 . S
H1078 C1072 0.929 . S
H1079 C1073 0.930 . S
Mn1080 O1085 2.095 . S
Mn1080 O1095 2.162 . S
Mn1080 O1096 2.297 . S
Mn1080 O1104 2.385 . S
Mn1080 O1105 2.209 . S
Mn1080 O1106 2.094 . S
Mn1081 O1086 2.121 . S
Mn1081 N1088 2.257 . S
Mn1081 N1097 2.282 . S
Mn1081 O1105 2.215 . S
Mn1081 O1107 2.117 . S
C1082 O1104 1.234 . S
C1082 O1105 1.283 . S
C1083 O1095 1.281 . S
C1083 O1096 1.236 . S
C1084 O1106 1.240 . S
C1084 O1107 1.264 . S
O1085 Mn1080 2.095 . S
O1085 C1094 1.250 . S
O1086 Mn1081 2.121 . S
O1086 C1094 1.258 . S
C1087 N1088 1.326 . S
C1087 C1091 1.460 . S
C1087 H1093 0.929 . S
N1088 Mn1081 2.257 . S
N1088 C1087 1.326 . S
N1088 C1092 1.362 . S
C1089 C1090 1.258 . S
C1089 C1092 1.431 . S
C1089 C1109 1.449 . S
C1090 C1089 1.258 . S
C1090 C1091 1.477 . S
C1090 H1110 0.931 . S
C1091 C1087 1.460 . S
C1091 C1090 1.477 . S
C1091 H1111 0.930 . S
C1092 N1088 1.362 . S
C1092 C1089 1.431 . S
C1092 C1102 1.476 . S
H1093 C1087 0.929 . S
C1094 O1085 1.250 . S
C1094 O1086 1.258 . S
O1095 Mn1080 2.162 . S
O1095 C1083 1.281 . S
O1096 Mn1080 2.297 . S
O1096 C1083 1.236 . S
N1097 Mn1081 2.282 . S
N1097 C1098 1.328 . S
N1097 C1102 1.318 . S
C1098 N1097 1.328 . S
C1098 C1099 1.457 . S
C1098 H1103 0.929 . S
C1099 C1098 1.457 . S
C1099 C1100 1.291 . S
C1099 H1112 0.931 . S
C1100 C1099 1.291 . S
C1100 C1101 1.373 . S
C1100 H1113 0.929 . S
C1101 C1100 1.373 . S
C1101 C1102 1.396 . S
C1101 C1108 1.403 . S
C1102 C1092 1.476 . S
C1102 N1097 1.318 . S
C1102 C1101 1.396 . S
H1103 C1098 0.929 . S
O1104 Mn1080 2.385 . S
O1104 C1082 1.234 . S
O1105 Mn1080 2.209 . S
O1105 Mn1081 2.215 . S
O1105 C1082 1.283 . S
O1106 Mn1080 2.094 . S
O1106 C1084 1.240 . S
O1107 Mn1081 2.117 . S
O1107 C1084 1.264 . S
C1108 C1101 1.403 . S
C1108 C1109 1.399 . S
C1108 H1114 0.929 . S
C1109 C1089 1.449 . S
C1109 C1108 1.399 . S
C1109 H1115 0.930 . S
H1110 C1090 0.931 . S
H1111 C1091 0.930 . S
H1112 C1099 0.931 . S
H1113 C1100 0.929 . S
H1114 C1108 0.929 . S
H1115 C1109 0.930 . S
Mn1116 O1121 2.095 . S
Mn1116 O1131 2.162 . S
Mn1116 O1132 2.297 . S
Mn1116 O1140 2.385 . S
Mn1116 O1141 2.209 . S
Mn1116 O1142 2.094 . S
Mn1117 O1122 2.121 . S
Mn1117 N1124 2.257 . S
Mn1117 N1133 2.282 . S
Mn1117 O1141 2.215 . S
Mn1117 O1143 2.117 . S
C1118 O1140 1.234 . S
C1118 O1141 1.283 . S
C1119 O1131 1.281 . S
C1119 O1132 1.236 . S
C1120 O1142 1.240 . S
C1120 O1143 1.264 . S
O1121 Mn1116 2.095 . S
O1121 C1130 1.250 . S
O1122 Mn1117 2.121 . S
O1122 C1130 1.258 . S
C1123 N1124 1.326 . S
C1123 C1127 1.460 . S
C1123 H1129 0.929 . S
N1124 Mn1117 2.257 . S
N1124 C1123 1.326 . S
N1124 C1128 1.362 . S
C1125 C1126 1.258 . S
C1125 C1128 1.431 . S
C1125 C1145 1.449 . S
C1126 C1125 1.258 . S
C1126 C1127 1.477 . S
C1126 H1146 0.931 . S
C1127 C1123 1.460 . S
C1127 C1126 1.477 . S
C1127 H1147 0.930 . S
C1128 N1124 1.362 . S
C1128 C1125 1.431 . S
C1128 C1138 1.476 . S
H1129 C1123 0.929 . S
C1130 O1121 1.250 . S
C1130 O1122 1.258 . S
O1131 Mn1116 2.162 . S
O1131 C1119 1.281 . S
O1132 Mn1116 2.297 . S
O1132 C1119 1.236 . S
N1133 Mn1117 2.282 . S
N1133 C1134 1.328 . S
N1133 C1138 1.318 . S
C1134 N1133 1.328 . S
C1134 C1135 1.457 . S
C1134 H1139 0.929 . S
C1135 C1134 1.457 . S
C1135 C1136 1.291 . S
C1135 H1148 0.931 . S
C1136 C1135 1.291 . S
C1136 C1137 1.373 . S
C1136 H1149 0.929 . S
C1137 C1136 1.373 . S
C1137 C1138 1.396 . S
C1137 C1144 1.403 . S
C1138 C1128 1.476 . S
C1138 N1133 1.318 . S
C1138 C1137 1.396 . S
H1139 C1134 0.929 . S
O1140 Mn1116 2.385 . S
O1140 C1118 1.234 . S
O1141 Mn1116 2.209 . S
O1141 Mn1117 2.215 . S
O1141 C1118 1.283 . S
O1142 Mn1116 2.094 . S
O1142 C1120 1.240 . S
O1143 Mn1117 2.117 . S
O1143 C1120 1.264 . S
C1144 C1137 1.403 . S
C1144 C1145 1.399 . S
C1144 H1150 0.929 . S
C1145 C1125 1.449 . S
C1145 C1144 1.399 . S
C1145 H1151 0.930 . S
H1146 C1126 0.931 . S
H1147 C1127 0.930 . S
H1148 C1135 0.931 . S
H1149 C1136 0.929 . S
H1150 C1144 0.929 . S
H1151 C1145 0.930 . S
C1152 C1153 1.391 . S
C1152 C1154 1.394 . S
C1152 H1168 0.931 . S
C1153 C1152 1.391 . S
C1153 C1157 1.376 . S
C1154 C1152 1.394 . S
C1154 C1155 1.369 . S
C1154 C1158 1.531 . S
C1155 C1154 1.369 . S
C1155 C1156 1.410 . S
C1155 C1163 1.503 . S
C1156 C1155 1.410 . S
C1156 C1157 1.392 . S
C1156 C1159 1.511 . S
C1157 C1153 1.376 . S
C1157 C1156 1.392 . S
C1157 H1169 0.929 . S
C1158 C1154 1.531 . S
C1158 H1170 0.960 . S
C1158 H1171 0.962 . S
C1158 H1172 0.960 . S
C1159 C1156 1.511 . S
C1159 H1173 0.961 . S
C1159 H1174 0.961 . S
C1159 H1175 0.961 . S
C1160 C1161 1.370 . S
C1160 C1162 1.363 . S
C1160 H1176 0.931 . S
C1161 C1160 1.370 . S
C1161 C1165 1.408 . S
C1162 C1160 1.363 . S
C1162 C1163 1.370 . S
C1162 C1166 1.524 . S
C1163 C1155 1.503 . S
C1163 C1162 1.370 . S
C1163 C1164 1.403 . S
C1164 C1163 1.403 . S
C1164 C1165 1.404 . S
C1164 C1167 1.539 . S
C1165 C1161 1.408 . S
C1165 C1164 1.404 . S
C1165 H1177 0.930 . S
C1166 C1162 1.524 . S
C1166 H1178 0.956 . S
C1166 H1179 0.961 . S
C1166 H1180 0.961 . S
C1167 C1164 1.539 . S
C1167 H1181 0.958 . S
C1167 H1182 0.961 . S
C1167 H1183 0.960 . S
H1168 C1152 0.931 . S
H1169 C1157 0.929 . S
H1170 C1158 0.960 . S
H1171 C1158 0.962 . S
H1172 C1158 0.960 . S
H1173 C1159 0.961 . S
H1174 C1159 0.961 . S
H1175 C1159 0.961 . S
H1176 C1160 0.931 . S
H1177 C1165 0.930 . S
H1178 C1166 0.956 . S
H1179 C1166 0.961 . S
H1180 C1166 0.961 . S
H1181 C1167 0.958 . S
H1182 C1167 0.961 . S
H1183 C1167 0.960 . S
C1184 C1185 1.391 . S
C1184 C1186 1.394 . S
C1184 H1200 0.931 . S
C1185 C1184 1.391 . S
C1185 C1189 1.376 . S
C1186 C1184 1.394 . S
C1186 C1187 1.369 . S
C1186 C1190 1.531 . S
C1187 C1186 1.369 . S
C1187 C1188 1.410 . S
C1187 C1195 1.503 . S
C1188 C1187 1.410 . S
C1188 C1189 1.392 . S
C1188 C1191 1.511 . S
C1189 C1185 1.376 . S
C1189 C1188 1.392 . S
C1189 H1201 0.929 . S
C1190 C1186 1.531 . S
C1190 H1202 0.960 . S
C1190 H1203 0.962 . S
C1190 H1204 0.960 . S
C1191 C1188 1.511 . S
C1191 H1205 0.961 . S
C1191 H1206 0.961 . S
C1191 H1207 0.961 . S
C1192 C1193 1.370 . S
C1192 C1194 1.363 . S
C1192 H1208 0.931 . S
C1193 C1192 1.370 . S
C1193 C1197 1.408 . S
C1194 C1192 1.363 . S
C1194 C1195 1.370 . S
C1194 C1198 1.524 . S
C1195 C1187 1.503 . S
C1195 C1194 1.370 . S
C1195 C1196 1.403 . S
C1196 C1195 1.403 . S
C1196 C1197 1.404 . S
C1196 C1199 1.539 . S
C1197 C1193 1.408 . S
C1197 C1196 1.404 . S
C1197 H1209 0.930 . S
C1198 C1194 1.524 . S
C1198 H1210 0.956 . S
C1198 H1211 0.961 . S
C1198 H1212 0.961 . S
C1199 C1196 1.539 . S
C1199 H1213 0.958 . S
C1199 H1214 0.961 . S
C1199 H1215 0.960 . S
H1200 C1184 0.931 . S
H1201 C1189 0.929 . S
H1202 C1190 0.960 . S
H1203 C1190 0.962 . S
H1204 C1190 0.960 . S
H1205 C1191 0.961 . S
H1206 C1191 0.961 . S
H1207 C1191 0.961 . S
H1208 C1192 0.931 . S
H1209 C1197 0.930 . S
H1210 C1198 0.956 . S
H1211 C1198 0.961 . S
H1212 C1198 0.961 . S
H1213 C1199 0.958 . S
H1214 C1199 0.961 . S
H1215 C1199 0.960 . S
C1216 C1217 1.391 . S
C1216 C1218 1.394 . S
C1216 H1232 0.931 . S
C1217 C1216 1.391 . S
C1217 C1221 1.376 . S
C1218 C1216 1.394 . S
C1218 C1219 1.369 . S
C1218 C1222 1.531 . S
C1219 C1218 1.369 . S
C1219 C1220 1.410 . S
C1219 C1227 1.503 . S
C1220 C1219 1.410 . S
C1220 C1221 1.392 . S
C1220 C1223 1.511 . S
C1221 C1217 1.376 . S
C1221 C1220 1.392 . S
C1221 H1233 0.929 . S
C1222 C1218 1.531 . S
C1222 H1234 0.960 . S
C1222 H1235 0.962 . S
C1222 H1236 0.960 . S
C1223 C1220 1.511 . S
C1223 H1237 0.961 . S
C1223 H1238 0.961 . S
C1223 H1239 0.961 . S
C1224 C1225 1.370 . S
C1224 C1226 1.363 . S
C1224 H1240 0.931 . S
C1225 C1224 1.370 . S
C1225 C1229 1.408 . S
C1226 C1224 1.363 . S
C1226 C1227 1.370 . S
C1226 C1230 1.524 . S
C1227 C1219 1.503 . S
C1227 C1226 1.370 . S
C1227 C1228 1.403 . S
C1228 C1227 1.403 . S
C1228 C1229 1.404 . S
C1228 C1231 1.539 . S
C1229 C1225 1.408 . S
C1229 C1228 1.404 . S
C1229 H1241 0.930 . S
C1230 C1226 1.524 . S
C1230 H1242 0.956 . S
C1230 H1243 0.961 . S
C1230 H1244 0.961 . S
C1231 C1228 1.539 . S
C1231 H1245 0.958 . S
C1231 H1246 0.961 . S
C1231 H1247 0.960 . S
H1232 C1216 0.931 . S
H1233 C1221 0.929 . S
H1234 C1222 0.960 . S
H1235 C1222 0.962 . S
H1236 C1222 0.960 . S
H1237 C1223 0.961 . S
H1238 C1223 0.961 . S
H1239 C1223 0.961 . S
H1240 C1224 0.931 . S
H1241 C1229 0.930 . S
H1242 C1230 0.956 . S
H1243 C1230 0.961 . S
H1244 C1230 0.961 . S
H1245 C1231 0.958 . S
H1246 C1231 0.961 . S
H1247 C1231 0.960 . S
C1248 C1249 1.391 . S
C1248 C1250 1.394 . S
C1248 H1264 0.931 . S
C1249 C1248 1.391 . S
C1249 C1253 1.376 . S
C1250 C1248 1.394 . S
C1250 C1251 1.369 . S
C1250 C1254 1.531 . S
C1251 C1250 1.369 . S
C1251 C1252 1.410 . S
C1251 C1259 1.503 . S
C1252 C1251 1.410 . S
C1252 C1253 1.392 . S
C1252 C1255 1.511 . S
C1253 C1249 1.376 . S
C1253 C1252 1.392 . S
C1253 H1265 0.929 . S
C1254 C1250 1.531 . S
C1254 H1266 0.960 . S
C1254 H1267 0.962 . S
C1254 H1268 0.960 . S
C1255 C1252 1.511 . S
C1255 H1269 0.961 . S
C1255 H1270 0.961 . S
C1255 H1271 0.961 . S
C1256 C1257 1.370 . S
C1256 C1258 1.363 . S
C1256 H1272 0.931 . S
C1257 C1256 1.370 . S
C1257 C1261 1.408 . S
C1258 C1256 1.363 . S
C1258 C1259 1.370 . S
C1258 C1262 1.524 . S
C1259 C1251 1.503 . S
C1259 C1258 1.370 . S
C1259 C1260 1.403 . S
C1260 C1259 1.403 . S
C1260 C1261 1.404 . S
C1260 C1263 1.539 . S
C1261 C1257 1.408 . S
C1261 C1260 1.404 . S
C1261 H1273 0.930 . S
C1262 C1258 1.524 . S
C1262 H1274 0.956 . S
C1262 H1275 0.961 . S
C1262 H1276 0.961 . S
C1263 C1260 1.539 . S
C1263 H1277 0.958 . S
C1263 H1278 0.961 . S
C1263 H1279 0.960 . S
H1264 C1248 0.931 . S
H1265 C1253 0.929 . S
H1266 C1254 0.960 . S
H1267 C1254 0.962 . S
H1268 C1254 0.960 . S
H1269 C1255 0.961 . S
H1270 C1255 0.961 . S
H1271 C1255 0.961 . S
H1272 C1256 0.931 . S
H1273 C1261 0.930 . S
H1274 C1262 0.956 . S
H1275 C1262 0.961 . S
H1276 C1262 0.961 . S
H1277 C1263 0.958 . S
H1278 C1263 0.961 . S
H1279 C1263 0.960 . S
C1280 C1281 1.391 . S
C1280 C1282 1.394 . S
C1280 H1296 0.931 . S
C1281 C1280 1.391 . S
C1281 C1285 1.376 . S
C1282 C1280 1.394 . S
C1282 C1283 1.369 . S
C1282 C1286 1.531 . S
C1283 C1282 1.369 . S
C1283 C1284 1.410 . S
C1283 C1291 1.503 . S
C1284 C1283 1.410 . S
C1284 C1285 1.392 . S
C1284 C1287 1.511 . S
C1285 C1281 1.376 . S
C1285 C1284 1.392 . S
C1285 H1297 0.929 . S
C1286 C1282 1.531 . S
C1286 H1298 0.960 . S
C1286 H1299 0.962 . S
C1286 H1300 0.960 . S
C1287 C1284 1.511 . S
C1287 H1301 0.961 . S
C1287 H1302 0.961 . S
C1287 H1303 0.961 . S
C1288 C1289 1.370 . S
C1288 C1290 1.363 . S
C1288 H1304 0.931 . S
C1289 C1288 1.370 . S
C1289 C1293 1.408 . S
C1290 C1288 1.363 . S
C1290 C1291 1.370 . S
C1290 C1294 1.524 . S
C1291 C1283 1.503 . S
C1291 C1290 1.370 . S
C1291 C1292 1.403 . S
C1292 C1291 1.403 . S
C1292 C1293 1.404 . S
C1292 C1295 1.539 . S
C1293 C1289 1.408 . S
C1293 C1292 1.404 . S
C1293 H1305 0.930 . S
C1294 C1290 1.524 . S
C1294 H1306 0.956 . S
C1294 H1307 0.961 . S
C1294 H1308 0.961 . S
C1295 C1292 1.539 . S
C1295 H1309 0.958 . S
C1295 H1310 0.961 . S
C1295 H1311 0.960 . S
H1296 C1280 0.931 . S
H1297 C1285 0.929 . S
H1298 C1286 0.960 . S
H1299 C1286 0.962 . S
H1300 C1286 0.960 . S
H1301 C1287 0.961 . S
H1302 C1287 0.961 . S
H1303 C1287 0.961 . S
H1304 C1288 0.931 . S
H1305 C1293 0.930 . S
H1306 C1294 0.956 . S
H1307 C1294 0.961 . S
H1308 C1294 0.961 . S
H1309 C1295 0.958 . S
H1310 C1295 0.961 . S
H1311 C1295 0.960 . S
C1312 C1313 1.391 . S
C1312 C1314 1.394 . S
C1312 H1328 0.931 . S
C1313 C1312 1.391 . S
C1313 C1317 1.376 . S
C1314 C1312 1.394 . S
C1314 C1315 1.369 . S
C1314 C1318 1.531 . S
C1315 C1314 1.369 . S
C1315 C1316 1.410 . S
C1315 C1323 1.503 . S
C1316 C1315 1.410 . S
C1316 C1317 1.392 . S
C1316 C1319 1.511 . S
C1317 C1313 1.376 . S
C1317 C1316 1.392 . S
C1317 H1329 0.929 . S
C1318 C1314 1.531 . S
C1318 H1330 0.960 . S
C1318 H1331 0.962 . S
C1318 H1332 0.960 . S
C1319 C1316 1.511 . S
C1319 H1333 0.961 . S
C1319 H1334 0.961 . S
C1319 H1335 0.961 . S
C1320 C1321 1.370 . S
C1320 C1322 1.363 . S
C1320 H1336 0.931 . S
C1321 C1320 1.370 . S
C1321 C1325 1.408 . S
C1322 C1320 1.363 . S
C1322 C1323 1.370 . S
C1322 C1326 1.524 . S
C1323 C1315 1.503 . S
C1323 C1322 1.370 . S
C1323 C1324 1.403 . S
C1324 C1323 1.403 . S
C1324 C1325 1.404 . S
C1324 C1327 1.539 . S
C1325 C1321 1.408 . S
C1325 C1324 1.404 . S
C1325 H1337 0.930 . S
C1326 C1322 1.524 . S
C1326 H1338 0.956 . S
C1326 H1339 0.961 . S
C1326 H1340 0.961 . S
C1327 C1324 1.539 . S
C1327 H1341 0.958 . S
C1327 H1342 0.961 . S
C1327 H1343 0.960 . S
H1328 C1312 0.931 . S
H1329 C1317 0.929 . S
H1330 C1318 0.960 . S
H1331 C1318 0.962 . S
H1332 C1318 0.960 . S
H1333 C1319 0.961 . S
H1334 C1319 0.961 . S
H1335 C1319 0.961 . S
H1336 C1320 0.931 . S
H1337 C1325 0.930 . S
H1338 C1326 0.956 . S
H1339 C1326 0.961 . S
H1340 C1326 0.961 . S
H1341 C1327 0.958 . S
H1342 C1327 0.961 . S
H1343 C1327 0.960 . S
C1344 C1345 1.391 . S
C1344 C1346 1.394 . S
C1344 H1360 0.931 . S
C1345 C1344 1.391 . S
C1345 C1349 1.376 . S
C1346 C1344 1.394 . S
C1346 C1347 1.369 . S
C1346 C1350 1.531 . S
C1347 C1346 1.369 . S
C1347 C1348 1.410 . S
C1347 C1355 1.503 . S
C1348 C1347 1.410 . S
C1348 C1349 1.392 . S
C1348 C1351 1.511 . S
C1349 C1345 1.376 . S
C1349 C1348 1.392 . S
C1349 H1361 0.929 . S
C1350 C1346 1.531 . S
C1350 H1362 0.960 . S
C1350 H1363 0.962 . S
C1350 H1364 0.960 . S
C1351 C1348 1.511 . S
C1351 H1365 0.961 . S
C1351 H1366 0.961 . S
C1351 H1367 0.961 . S
C1352 C1353 1.370 . S
C1352 C1354 1.363 . S
C1352 H1368 0.931 . S
C1353 C1352 1.370 . S
C1353 C1357 1.408 . S
C1354 C1352 1.363 . S
C1354 C1355 1.370 . S
C1354 C1358 1.524 . S
C1355 C1347 1.503 . S
C1355 C1354 1.370 . S
C1355 C1356 1.403 . S
C1356 C1355 1.403 . S
C1356 C1357 1.404 . S
C1356 C1359 1.539 . S
C1357 C1353 1.408 . S
C1357 C1356 1.404 . S
C1357 H1369 0.930 . S
C1358 C1354 1.524 . S
C1358 H1370 0.956 . S
C1358 H1371 0.961 . S
C1358 H1372 0.961 . S
C1359 C1356 1.539 . S
C1359 H1373 0.958 . S
C1359 H1374 0.961 . S
C1359 H1375 0.960 . S
H1360 C1344 0.931 . S
H1361 C1349 0.929 . S
H1362 C1350 0.960 . S
H1363 C1350 0.962 . S
H1364 C1350 0.960 . S
H1365 C1351 0.961 . S
H1366 C1351 0.961 . S
H1367 C1351 0.961 . S
H1368 C1352 0.931 . S
H1369 C1357 0.930 . S
H1370 C1358 0.956 . S
H1371 C1358 0.961 . S
H1372 C1358 0.961 . S
H1373 C1359 0.958 . S
H1374 C1359 0.961 . S
H1375 C1359 0.960 . S
C1376 C1377 1.391 . S
C1376 C1378 1.394 . S
C1376 H1392 0.931 . S
C1377 C1376 1.391 . S
C1377 C1381 1.376 . S
C1378 C1376 1.394 . S
C1378 C1379 1.369 . S
C1378 C1382 1.531 . S
C1379 C1378 1.369 . S
C1379 C1380 1.410 . S
C1379 C1387 1.503 . S
C1380 C1379 1.410 . S
C1380 C1381 1.392 . S
C1380 C1383 1.511 . S
C1381 C1377 1.376 . S
C1381 C1380 1.392 . S
C1381 H1393 0.929 . S
C1382 C1378 1.531 . S
C1382 H1394 0.960 . S
C1382 H1395 0.962 . S
C1382 H1396 0.960 . S
C1383 C1380 1.511 . S
C1383 H1397 0.961 . S
C1383 H1398 0.961 . S
C1383 H1399 0.961 . S
C1384 C1385 1.370 . S
C1384 C1386 1.363 . S
C1384 H1400 0.931 . S
C1385 C1384 1.370 . S
C1385 C1389 1.408 . S
C1386 C1384 1.363 . S
C1386 C1387 1.370 . S
C1386 C1390 1.524 . S
C1387 C1379 1.503 . S
C1387 C1386 1.370 . S
C1387 C1388 1.403 . S
C1388 C1387 1.403 . S
C1388 C1389 1.404 . S
C1388 C1391 1.539 . S
C1389 C1385 1.408 . S
C1389 C1388 1.404 . S
C1389 H1401 0.930 . S
C1390 C1386 1.524 . S
C1390 H1402 0.956 . S
C1390 H1403 0.961 . S
C1390 H1404 0.961 . S
C1391 C1388 1.539 . S
C1391 H1405 0.958 . S
C1391 H1406 0.961 . S
C1391 H1407 0.960 . S
H1392 C1376 0.931 . S
H1393 C1381 0.929 . S
H1394 C1382 0.960 . S
H1395 C1382 0.962 . S
H1396 C1382 0.960 . S
H1397 C1383 0.961 . S
H1398 C1383 0.961 . S
H1399 C1383 0.961 . S
H1400 C1384 0.931 . S
H1401 C1389 0.930 . S
H1402 C1390 0.956 . S
H1403 C1390 0.961 . S
H1404 C1390 0.961 . S
H1405 C1391 0.958 . S
H1406 C1391 0.961 . S
H1407 C1391 0.960 . S
C1408 C1409 1.391 . S
C1408 C1410 1.394 . S
C1408 H1424 0.931 . S
C1409 C1408 1.391 . S
C1409 C1413 1.376 . S
C1410 C1408 1.394 . S
C1410 C1411 1.369 . S
C1410 C1414 1.531 . S
C1411 C1410 1.369 . S
C1411 C1412 1.410 . S
C1411 C1419 1.503 . S
C1412 C1411 1.410 . S
C1412 C1413 1.392 . S
C1412 C1415 1.511 . S
C1413 C1409 1.376 . S
C1413 C1412 1.392 . S
C1413 H1425 0.929 . S
C1414 C1410 1.531 . S
C1414 H1426 0.960 . S
C1414 H1427 0.962 . S
C1414 H1428 0.960 . S
C1415 C1412 1.511 . S
C1415 H1429 0.961 . S
C1415 H1430 0.961 . S
C1415 H1431 0.961 . S
C1416 C1417 1.370 . S
C1416 C1418 1.363 . S
C1416 H1432 0.931 . S
C1417 C1416 1.370 . S
C1417 C1421 1.408 . S
C1418 C1416 1.363 . S
C1418 C1419 1.370 . S
C1418 C1422 1.524 . S
C1419 C1411 1.503 . S
C1419 C1418 1.370 . S
C1419 C1420 1.403 . S
C1420 C1419 1.403 . S
C1420 C1421 1.404 . S
C1420 C1423 1.539 . S
C1421 C1417 1.408 . S
C1421 C1420 1.404 . S
C1421 H1433 0.930 . S
C1422 C1418 1.524 . S
C1422 H1434 0.956 . S
C1422 H1435 0.961 . S
C1422 H1436 0.961 . S
C1423 C1420 1.539 . S
C1423 H1437 0.958 . S
C1423 H1438 0.961 . S
C1423 H1439 0.960 . S
H1424 C1408 0.931 . S
H1425 C1413 0.929 . S
H1426 C1414 0.960 . S
H1427 C1414 0.962 . S
H1428 C1414 0.960 . S
H1429 C1415 0.961 . S
H1430 C1415 0.961 . S
H1431 C1415 0.961 . S
H1432 C1416 0.931 . S
H1433 C1421 0.930 . S
H1434 C1422 0.956 . S
H1435 C1422 0.961 . S
H1436 C1422 0.961 . S
H1437 C1423 0.958 . S
H1438 C1423 0.961 . S
H1439 C1423 0.960 . S
C1440 C1441 1.391 . S
C1440 C1442 1.394 . S
C1440 H1456 0.931 . S
C1441 C1440 1.391 . S
C1441 C1445 1.376 . S
C1442 C1440 1.394 . S
C1442 C1443 1.369 . S
C1442 C1446 1.531 . S
C1443 C1442 1.369 . S
C1443 C1444 1.410 . S
C1443 C1451 1.503 . S
C1444 C1443 1.410 . S
C1444 C1445 1.392 . S
C1444 C1447 1.511 . S
C1445 C1441 1.376 . S
C1445 C1444 1.392 . S
C1445 H1457 0.929 . S
C1446 C1442 1.531 . S
C1446 H1458 0.960 . S
C1446 H1459 0.962 . S
C1446 H1460 0.960 . S
C1447 C1444 1.511 . S
C1447 H1461 0.961 . S
C1447 H1462 0.961 . S
C1447 H1463 0.961 . S
C1448 C1449 1.370 . S
C1448 C1450 1.363 . S
C1448 H1464 0.931 . S
C1449 C1448 1.370 . S
C1449 C1453 1.408 . S
C1450 C1448 1.363 . S
C1450 C1451 1.370 . S
C1450 C1454 1.524 . S
C1451 C1443 1.503 . S
C1451 C1450 1.370 . S
C1451 C1452 1.403 . S
C1452 C1451 1.403 . S
C1452 C1453 1.404 . S
C1452 C1455 1.539 . S
C1453 C1449 1.408 . S
C1453 C1452 1.404 . S
C1453 H1465 0.930 . S
C1454 C1450 1.524 . S
C1454 H1466 0.956 . S
C1454 H1467 0.961 . S
C1454 H1468 0.961 . S
C1455 C1452 1.539 . S
C1455 H1469 0.958 . S
C1455 H1470 0.961 . S
C1455 H1471 0.960 . S
H1456 C1440 0.931 . S
H1457 C1445 0.929 . S
H1458 C1446 0.960 . S
H1459 C1446 0.962 . S
H1460 C1446 0.960 . S
H1461 C1447 0.961 . S
H1462 C1447 0.961 . S
H1463 C1447 0.961 . S
H1464 C1448 0.931 . S
H1465 C1453 0.930 . S
H1466 C1454 0.956 . S
H1467 C1454 0.961 . S
H1468 C1454 0.961 . S
H1469 C1455 0.958 . S
H1470 C1455 0.961 . S
H1471 C1455 0.960 . S
C1472 C1473 1.391 . S
C1472 C1474 1.394 . S
C1472 H1488 0.931 . S
C1473 C1472 1.391 . S
C1473 C1477 1.376 . S
C1474 C1472 1.394 . S
C1474 C1475 1.369 . S
C1474 C1478 1.531 . S
C1475 C1474 1.369 . S
C1475 C1476 1.410 . S
C1475 C1483 1.503 . S
C1476 C1475 1.410 . S
C1476 C1477 1.392 . S
C1476 C1479 1.511 . S
C1477 C1473 1.376 . S
C1477 C1476 1.392 . S
C1477 H1489 0.929 . S
C1478 C1474 1.531 . S
C1478 H1490 0.960 . S
C1478 H1491 0.962 . S
C1478 H1492 0.960 . S
C1479 C1476 1.511 . S
C1479 H1493 0.961 . S
C1479 H1494 0.961 . S
C1479 H1495 0.961 . S
C1480 C1481 1.370 . S
C1480 C1482 1.363 . S
C1480 H1496 0.931 . S
C1481 C1480 1.370 . S
C1481 C1485 1.408 . S
C1482 C1480 1.363 . S
C1482 C1483 1.370 . S
C1482 C1486 1.524 . S
C1483 C1475 1.503 . S
C1483 C1482 1.370 . S
C1483 C1484 1.403 . S
C1484 C1483 1.403 . S
C1484 C1485 1.404 . S
C1484 C1487 1.539 . S
C1485 C1481 1.408 . S
C1485 C1484 1.404 . S
C1485 H1497 0.930 . S
C1486 C1482 1.524 . S
C1486 H1498 0.956 . S
C1486 H1499 0.961 . S
C1486 H1500 0.961 . S
C1487 C1484 1.539 . S
C1487 H1501 0.958 . S
C1487 H1502 0.961 . S
C1487 H1503 0.960 . S
H1488 C1472 0.931 . S
H1489 C1477 0.929 . S
H1490 C1478 0.960 . S
H1491 C1478 0.962 . S
H1492 C1478 0.960 . S
H1493 C1479 0.961 . S
H1494 C1479 0.961 . S
H1495 C1479 0.961 . S
H1496 C1480 0.931 . S
H1497 C1485 0.930 . S
H1498 C1486 0.956 . S
H1499 C1486 0.961 . S
H1500 C1486 0.961 . S
H1501 C1487 0.958 . S
H1502 C1487 0.961 . S
H1503 C1487 0.960 . S
C1504 C1505 1.391 . S
C1504 C1506 1.394 . S
C1504 H1520 0.931 . S
C1505 C1504 1.391 . S
C1505 C1509 1.376 . S
C1506 C1504 1.394 . S
C1506 C1507 1.369 . S
C1506 C1510 1.531 . S
C1507 C1506 1.369 . S
C1507 C1508 1.410 . S
C1507 C1515 1.503 . S
C1508 C1507 1.410 . S
C1508 C1509 1.392 . S
C1508 C1511 1.511 . S
C1509 C1505 1.376 . S
C1509 C1508 1.392 . S
C1509 H1521 0.929 . S
C1510 C1506 1.531 . S
C1510 H1522 0.960 . S
C1510 H1523 0.962 . S
C1510 H1524 0.960 . S
C1511 C1508 1.511 . S
C1511 H1525 0.961 . S
C1511 H1526 0.961 . S
C1511 H1527 0.961 . S
C1512 C1513 1.370 . S
C1512 C1514 1.363 . S
C1512 H1528 0.931 . S
C1513 C1512 1.370 . S
C1513 C1517 1.408 . S
C1514 C1512 1.363 . S
C1514 C1515 1.370 . S
C1514 C1518 1.524 . S
C1515 C1507 1.503 . S
C1515 C1514 1.370 . S
C1515 C1516 1.403 . S
C1516 C1515 1.403 . S
C1516 C1517 1.404 . S
C1516 C1519 1.539 . S
C1517 C1513 1.408 . S
C1517 C1516 1.404 . S
C1517 H1529 0.930 . S
C1518 C1514 1.524 . S
C1518 H1530 0.956 . S
C1518 H1531 0.961 . S
C1518 H1532 0.961 . S
C1519 C1516 1.539 . S
C1519 H1533 0.958 . S
C1519 H1534 0.961 . S
C1519 H1535 0.960 . S
H1520 C1504 0.931 . S
H1521 C1509 0.929 . S
H1522 C1510 0.960 . S
H1523 C1510 0.962 . S
H1524 C1510 0.960 . S
H1525 C1511 0.961 . S
H1526 C1511 0.961 . S
H1527 C1511 0.961 . S
H1528 C1512 0.931 . S
H1529 C1517 0.930 . S
H1530 C1518 0.956 . S
H1531 C1518 0.961 . S
H1532 C1518 0.961 . S
H1533 C1519 0.958 . S
H1534 C1519 0.961 . S
H1535 C1519 0.960 . S
C1536 C1537 1.391 . S
C1536 C1538 1.394 . S
C1536 H1552 0.931 . S
C1537 C1536 1.391 . S
C1537 C1541 1.376 . S
C1538 C1536 1.394 . S
C1538 C1539 1.369 . S
C1538 C1542 1.531 . S
C1539 C1538 1.369 . S
C1539 C1540 1.410 . S
C1539 C1547 1.503 . S
C1540 C1539 1.410 . S
C1540 C1541 1.392 . S
C1540 C1543 1.511 . S
C1541 C1537 1.376 . S
C1541 C1540 1.392 . S
C1541 H1553 0.929 . S
C1542 C1538 1.531 . S
C1542 H1554 0.960 . S
C1542 H1555 0.962 . S
C1542 H1556 0.960 . S
C1543 C1540 1.511 . S
C1543 H1557 0.961 . S
C1543 H1558 0.961 . S
C1543 H1559 0.961 . S
C1544 C1545 1.370 . S
C1544 C1546 1.363 . S
C1544 H1560 0.931 . S
C1545 C1544 1.370 . S
C1545 C1549 1.408 . S
C1546 C1544 1.363 . S
C1546 C1547 1.370 . S
C1546 C1550 1.524 . S
C1547 C1539 1.503 . S
C1547 C1546 1.370 . S
C1547 C1548 1.403 . S
C1548 C1547 1.403 . S
C1548 C1549 1.404 . S
C1548 C1551 1.539 . S
C1549 C1545 1.408 . S
C1549 C1548 1.404 . S
C1549 H1561 0.930 . S
C1550 C1546 1.524 . S
C1550 H1562 0.956 . S
C1550 H1563 0.961 . S
C1550 H1564 0.961 . S
C1551 C1548 1.539 . S
C1551 H1565 0.958 . S
C1551 H1566 0.961 . S
C1551 H1567 0.960 . S
H1552 C1536 0.931 . S
H1553 C1541 0.929 . S
H1554 C1542 0.960 . S
H1555 C1542 0.962 . S
H1556 C1542 0.960 . S
H1557 C1543 0.961 . S
H1558 C1543 0.961 . S
H1559 C1543 0.961 . S
H1560 C1544 0.931 . S
H1561 C1549 0.930 . S
H1562 C1550 0.956 . S
H1563 C1550 0.961 . S
H1564 C1550 0.961 . S
H1565 C1551 0.958 . S
H1566 C1551 0.961 . S
H1567 C1551 0.960 . S
C1568 C1569 1.391 . S
C1568 C1570 1.394 . S
C1568 H1584 0.931 . S
C1569 C1568 1.391 . S
C1569 C1573 1.376 . S
C1570 C1568 1.394 . S
C1570 C1571 1.369 . S
C1570 C1574 1.531 . S
C1571 C1570 1.369 . S
C1571 C1572 1.410 . S
C1571 C1579 1.503 . S
C1572 C1571 1.410 . S
C1572 C1573 1.392 . S
C1572 C1575 1.511 . S
C1573 C1569 1.376 . S
C1573 C1572 1.392 . S
C1573 H1585 0.929 . S
C1574 C1570 1.531 . S
C1574 H1586 0.960 . S
C1574 H1587 0.962 . S
C1574 H1588 0.960 . S
C1575 C1572 1.511 . S
C1575 H1589 0.961 . S
C1575 H1590 0.961 . S
C1575 H1591 0.961 . S
C1576 C1577 1.370 . S
C1576 C1578 1.363 . S
C1576 H1592 0.931 . S
C1577 C1576 1.370 . S
C1577 C1581 1.408 . S
C1578 C1576 1.363 . S
C1578 C1579 1.370 . S
C1578 C1582 1.524 . S
C1579 C1571 1.503 . S
C1579 C1578 1.370 . S
C1579 C1580 1.403 . S
C1580 C1579 1.403 . S
C1580 C1581 1.404 . S
C1580 C1583 1.539 . S
C1581 C1577 1.408 . S
C1581 C1580 1.404 . S
C1581 H1593 0.930 . S
C1582 C1578 1.524 . S
C1582 H1594 0.956 . S
C1582 H1595 0.961 . S
C1582 H1596 0.961 . S
C1583 C1580 1.539 . S
C1583 H1597 0.958 . S
C1583 H1598 0.961 . S
C1583 H1599 0.960 . S
H1584 C1568 0.931 . S
H1585 C1573 0.929 . S
H1586 C1574 0.960 . S
H1587 C1574 0.962 . S
H1588 C1574 0.960 . S
H1589 C1575 0.961 . S
H1590 C1575 0.961 . S
H1591 C1575 0.961 . S
H1592 C1576 0.931 . S
H1593 C1581 0.930 . S
H1594 C1582 0.956 . S
H1595 C1582 0.961 . S
H1596 C1582 0.961 . S
H1597 C1583 0.958 . S
H1598 C1583 0.961 . S
H1599 C1583 0.960 . S
C1600 C1601 1.391 . S
C1600 C1602 1.394 . S
C1600 H1616 0.931 . S
C1601 C1600 1.391 . S
C1601 C1605 1.376 . S
C1602 C1600 1.394 . S
C1602 C1603 1.369 . S
C1602 C1606 1.531 . S
C1603 C1602 1.369 . S
C1603 C1604 1.410 . S
C1603 C1611 1.503 . S
C1604 C1603 1.410 . S
C1604 C1605 1.392 . S
C1604 C1607 1.511 . S
C1605 C1601 1.376 . S
C1605 C1604 1.392 . S
C1605 H1617 0.929 . S
C1606 C1602 1.531 . S
C1606 H1618 0.960 . S
C1606 H1619 0.962 . S
C1606 H1620 0.960 . S
C1607 C1604 1.511 . S
C1607 H1621 0.961 . S
C1607 H1622 0.961 . S
C1607 H1623 0.961 . S
C1608 C1609 1.370 . S
C1608 C1610 1.363 . S
C1608 H1624 0.931 . S
C1609 C1608 1.370 . S
C1609 C1613 1.408 . S
C1610 C1608 1.363 . S
C1610 C1611 1.370 . S
C1610 C1614 1.524 . S
C1611 C1603 1.503 . S
C1611 C1610 1.370 . S
C1611 C1612 1.403 . S
C1612 C1611 1.403 . S
C1612 C1613 1.404 . S
C1612 C1615 1.539 . S
C1613 C1609 1.408 . S
C1613 C1612 1.404 . S
C1613 H1625 0.930 . S
C1614 C1610 1.524 . S
C1614 H1626 0.956 . S
C1614 H1627 0.961 . S
C1614 H1628 0.961 . S
C1615 C1612 1.539 . S
C1615 H1629 0.958 . S
C1615 H1630 0.961 . S
C1615 H1631 0.960 . S
H1616 C1600 0.931 . S
H1617 C1605 0.929 . S
H1618 C1606 0.960 . S
H1619 C1606 0.962 . S
H1620 C1606 0.960 . S
H1621 C1607 0.961 . S
H1622 C1607 0.961 . S
H1623 C1607 0.961 . S
H1624 C1608 0.931 . S
H1625 C1613 0.930 . S
H1626 C1614 0.956 . S
H1627 C1614 0.961 . S
H1628 C1614 0.961 . S
H1629 C1615 0.958 . S
H1630 C1615 0.961 . S
H1631 C1615 0.960 . S
C1632 C1633 1.391 . S
C1632 C1634 1.394 . S
C1632 H1648 0.931 . S
C1633 C1632 1.391 . S
C1633 C1637 1.376 . S
C1634 C1632 1.394 . S
C1634 C1635 1.369 . S
C1634 C1638 1.531 . S
C1635 C1634 1.369 . S
C1635 C1636 1.410 . S
C1635 C1643 1.503 . S
C1636 C1635 1.410 . S
C1636 C1637 1.392 . S
C1636 C1639 1.511 . S
C1637 C1633 1.376 . S
C1637 C1636 1.392 . S
C1637 H1649 0.929 . S
C1638 C1634 1.531 . S
C1638 H1650 0.960 . S
C1638 H1651 0.962 . S
C1638 H1652 0.960 . S
C1639 C1636 1.511 . S
C1639 H1653 0.961 . S
C1639 H1654 0.961 . S
C1639 H1655 0.961 . S
C1640 C1641 1.370 . S
C1640 C1642 1.363 . S
C1640 H1656 0.931 . S
C1641 C1640 1.370 . S
C1641 C1645 1.408 . S
C1642 C1640 1.363 . S
C1642 C1643 1.370 . S
C1642 C1646 1.524 . S
C1643 C1635 1.503 . S
C1643 C1642 1.370 . S
C1643 C1644 1.403 . S
C1644 C1643 1.403 . S
C1644 C1645 1.404 . S
C1644 C1647 1.539 . S
C1645 C1641 1.408 . S
C1645 C1644 1.404 . S
C1645 H1657 0.930 . S
C1646 C1642 1.524 . S
C1646 H1658 0.956 . S
C1646 H1659 0.961 . S
C1646 H1660 0.961 . S
C1647 C1644 1.539 . S
C1647 H1661 0.958 . S
C1647 H1662 0.961 . S
C1647 H1663 0.960 . S
H1648 C1632 0.931 . S
H1649 C1637 0.929 . S
H1650 C1638 0.960 . S
H1651 C1638 0.962 . S
H1652 C1638 0.960 . S
H1653 C1639 0.961 . S
H1654 C1639 0.961 . S
H1655 C1639 0.961 . S
H1656 C1640 0.931 . S
H1657 C1645 0.930 . S
H1658 C1646 0.956 . S
H1659 C1646 0.961 . S
H1660 C1646 0.961 . S
H1661 C1647 0.958 . S
H1662 C1647 0.961 . S
H1663 C1647 0.960 . S
C1664 C1665 1.391 . S
C1664 C1666 1.394 . S
C1664 H1680 0.931 . S
C1665 C1664 1.391 . S
C1665 C1669 1.376 . S
C1666 C1664 1.394 . S
C1666 C1667 1.369 . S
C1666 C1670 1.531 . S
C1667 C1666 1.369 . S
C1667 C1668 1.410 . S
C1667 C1675 1.503 . S
C1668 C1667 1.410 . S
C1668 C1669 1.392 . S
C1668 C1671 1.511 . S
C1669 C1665 1.376 . S
C1669 C1668 1.392 . S
C1669 H1681 0.929 . S
C1670 C1666 1.531 . S
C1670 H1682 0.960 . S
C1670 H1683 0.962 . S
C1670 H1684 0.960 . S
C1671 C1668 1.511 . S
C1671 H1685 0.961 . S
C1671 H1686 0.961 . S
C1671 H1687 0.961 . S
C1672 C1673 1.370 . S
C1672 C1674 1.363 . S
C1672 H1688 0.931 . S
C1673 C1672 1.370 . S
C1673 C1677 1.408 . S
C1674 C1672 1.363 . S
C1674 C1675 1.370 . S
C1674 C1678 1.524 . S
C1675 C1667 1.503 . S
C1675 C1674 1.370 . S
C1675 C1676 1.403 . S
C1676 C1675 1.403 . S
C1676 C1677 1.404 . S
C1676 C1679 1.539 . S
C1677 C1673 1.408 . S
C1677 C1676 1.404 . S
C1677 H1689 0.930 . S
C1678 C1674 1.524 . S
C1678 H1690 0.956 . S
C1678 H1691 0.961 . S
C1678 H1692 0.961 . S
C1679 C1676 1.539 . S
C1679 H1693 0.958 . S
C1679 H1694 0.961 . S
C1679 H1695 0.960 . S
H1680 C1664 0.931 . S
H1681 C1669 0.929 . S
H1682 C1670 0.960 . S
H1683 C1670 0.962 . S
H1684 C1670 0.960 . S
H1685 C1671 0.961 . S
H1686 C1671 0.961 . S
H1687 C1671 0.961 . S
H1688 C1672 0.931 . S
H1689 C1677 0.930 . S
H1690 C1678 0.956 . S
H1691 C1678 0.961 . S
H1692 C1678 0.961 . S
H1693 C1679 0.958 . S
H1694 C1679 0.961 . S
H1695 C1679 0.960 . S
C1696 C1697 1.391 . S
C1696 C1698 1.394 . S
C1696 H1712 0.931 . S
C1697 C1696 1.391 . S
C1697 C1701 1.376 . S
C1698 C1696 1.394 . S
C1698 C1699 1.369 . S
C1698 C1702 1.531 . S
C1699 C1698 1.369 . S
C1699 C1700 1.410 . S
C1699 C1707 1.503 . S
C1700 C1699 1.410 . S
C1700 C1701 1.392 . S
C1700 C1703 1.511 . S
C1701 C1697 1.376 . S
C1701 C1700 1.392 . S
C1701 H1713 0.929 . S
C1702 C1698 1.531 . S
C1702 H1714 0.960 . S
C1702 H1715 0.962 . S
C1702 H1716 0.960 . S
C1703 C1700 1.511 . S
C1703 H1717 0.961 . S
C1703 H1718 0.961 . S
C1703 H1719 0.961 . S
C1704 C1705 1.370 . S
C1704 C1706 1.363 . S
C1704 H1720 0.931 . S
C1705 C1704 1.370 . S
C1705 C1709 1.408 . S
C1706 C1704 1.363 . S
C1706 C1707 1.370 . S
C1706 C1710 1.524 . S
C1707 C1699 1.503 . S
C1707 C1706 1.370 . S
C1707 C1708 1.403 . S
C1708 C1707 1.403 . S
C1708 C1709 1.404 . S
C1708 C1711 1.539 . S
C1709 C1705 1.408 . S
C1709 C1708 1.404 . S
C1709 H1721 0.930 . S
C1710 C1706 1.524 . S
C1710 H1722 0.956 . S
C1710 H1723 0.961 . S
C1710 H1724 0.961 . S
C1711 C1708 1.539 . S
C1711 H1725 0.958 . S
C1711 H1726 0.961 . S
C1711 H1727 0.960 . S
H1712 C1696 0.931 . S
H1713 C1701 0.929 . S
H1714 C1702 0.960 . S
H1715 C1702 0.962 . S
H1716 C1702 0.960 . S
H1717 C1703 0.961 . S
H1718 C1703 0.961 . S
H1719 C1703 0.961 . S
H1720 C1704 0.931 . S
H1721 C1709 0.930 . S
H1722 C1710 0.956 . S
H1723 C1710 0.961 . S
H1724 C1710 0.961 . S
H1725 C1711 0.958 . S
H1726 C1711 0.961 . S
H1727 C1711 0.960 . S
C1728 C1729 1.391 . S
C1728 C1730 1.394 . S
C1728 H1744 0.931 . S
C1729 C1728 1.391 . S
C1729 C1733 1.376 . S
C1730 C1728 1.394 . S
C1730 C1731 1.369 . S
C1730 C1734 1.531 . S
C1731 C1730 1.369 . S
C1731 C1732 1.410 . S
C1731 C1739 1.503 . S
C1732 C1731 1.410 . S
C1732 C1733 1.392 . S
C1732 C1735 1.511 . S
C1733 C1729 1.376 . S
C1733 C1732 1.392 . S
C1733 H1745 0.929 . S
C1734 C1730 1.531 . S
C1734 H1746 0.960 . S
C1734 H1747 0.962 . S
C1734 H1748 0.960 . S
C1735 C1732 1.511 . S
C1735 H1749 0.961 . S
C1735 H1750 0.961 . S
C1735 H1751 0.961 . S
C1736 C1737 1.370 . S
C1736 C1738 1.363 . S
C1736 H1752 0.931 . S
C1737 C1736 1.370 . S
C1737 C1741 1.408 . S
C1738 C1736 1.363 . S
C1738 C1739 1.370 . S
C1738 C1742 1.524 . S
C1739 C1731 1.503 . S
C1739 C1738 1.370 . S
C1739 C1740 1.403 . S
C1740 C1739 1.403 . S
C1740 C1741 1.404 . S
C1740 C1743 1.539 . S
C1741 C1737 1.408 . S
C1741 C1740 1.404 . S
C1741 H1753 0.930 . S
C1742 C1738 1.524 . S
C1742 H1754 0.956 . S
C1742 H1755 0.961 . S
C1742 H1756 0.961 . S
C1743 C1740 1.539 . S
C1743 H1757 0.958 . S
C1743 H1758 0.961 . S
C1743 H1759 0.960 . S
H1744 C1728 0.931 . S
H1745 C1733 0.929 . S
H1746 C1734 0.960 . S
H1747 C1734 0.962 . S
H1748 C1734 0.960 . S
H1749 C1735 0.961 . S
H1750 C1735 0.961 . S
H1751 C1735 0.961 . S
H1752 C1736 0.931 . S
H1753 C1741 0.930 . S
H1754 C1742 0.956 . S
H1755 C1742 0.961 . S
H1756 C1742 0.961 . S
H1757 C1743 0.958 . S
H1758 C1743 0.961 . S
H1759 C1743 0.960 . S
C1760 C1761 1.391 . S
C1760 C1762 1.394 . S
C1760 H1776 0.931 . S
C1761 C1760 1.391 . S
C1761 C1765 1.376 . S
C1762 C1760 1.394 . S
C1762 C1763 1.369 . S
C1762 C1766 1.531 . S
C1763 C1762 1.369 . S
C1763 C1764 1.410 . S
C1763 C1771 1.503 . S
C1764 C1763 1.410 . S
C1764 C1765 1.392 . S
C1764 C1767 1.511 . S
C1765 C1761 1.376 . S
C1765 C1764 1.392 . S
C1765 H1777 0.929 . S
C1766 C1762 1.531 . S
C1766 H1778 0.960 . S
C1766 H1779 0.962 . S
C1766 H1780 0.960 . S
C1767 C1764 1.511 . S
C1767 H1781 0.961 . S
C1767 H1782 0.961 . S
C1767 H1783 0.961 . S
C1768 C1769 1.370 . S
C1768 C1770 1.363 . S
C1768 H1784 0.931 . S
C1769 C1768 1.370 . S
C1769 C1773 1.408 . S
C1770 C1768 1.363 . S
C1770 C1771 1.370 . S
C1770 C1774 1.524 . S
C1771 C1763 1.503 . S
C1771 C1770 1.370 . S
C1771 C1772 1.403 . S
C1772 C1771 1.403 . S
C1772 C1773 1.404 . S
C1772 C1775 1.539 . S
C1773 C1769 1.408 . S
C1773 C1772 1.404 . S
C1773 H1785 0.930 . S
C1774 C1770 1.524 . S
C1774 H1786 0.956 . S
C1774 H1787 0.961 . S
C1774 H1788 0.961 . S
C1775 C1772 1.539 . S
C1775 H1789 0.958 . S
C1775 H1790 0.961 . S
C1775 H1791 0.960 . S
H1776 C1760 0.931 . S
H1777 C1765 0.929 . S
H1778 C1766 0.960 . S
H1779 C1766 0.962 . S
H1780 C1766 0.960 . S
H1781 C1767 0.961 . S
H1782 C1767 0.961 . S
H1783 C1767 0.961 . S
H1784 C1768 0.931 . S
H1785 C1773 0.930 . S
H1786 C1774 0.956 . S
H1787 C1774 0.961 . S
H1788 C1774 0.961 . S
H1789 C1775 0.958 . S
H1790 C1775 0.961 . S
H1791 C1775 0.960 . S
C1792 C1793 1.391 . S
C1792 C1794 1.394 . S
C1792 H1808 0.931 . S
C1793 C1792 1.391 . S
C1793 C1797 1.376 . S
C1794 C1792 1.394 . S
C1794 C1795 1.369 . S
C1794 C1798 1.531 . S
C1795 C1794 1.369 . S
C1795 C1796 1.410 . S
C1795 C1803 1.503 . S
C1796 C1795 1.410 . S
C1796 C1797 1.392 . S
C1796 C1799 1.511 . S
C1797 C1793 1.376 . S
C1797 C1796 1.392 . S
C1797 H1809 0.929 . S
C1798 C1794 1.531 . S
C1798 H1810 0.960 . S
C1798 H1811 0.962 . S
C1798 H1812 0.960 . S
C1799 C1796 1.511 . S
C1799 H1813 0.961 . S
C1799 H1814 0.961 . S
C1799 H1815 0.961 . S
C1800 C1801 1.370 . S
C1800 C1802 1.363 . S
C1800 H1816 0.931 . S
C1801 C1800 1.370 . S
C1801 C1805 1.408 . S
C1802 C1800 1.363 . S
C1802 C1803 1.370 . S
C1802 C1806 1.524 . S
C1803 C1795 1.503 . S
C1803 C1802 1.370 . S
C1803 C1804 1.403 . S
C1804 C1803 1.403 . S
C1804 C1805 1.404 . S
C1804 C1807 1.539 . S
C1805 C1801 1.408 . S
C1805 C1804 1.404 . S
C1805 H1817 0.930 . S
C1806 C1802 1.524 . S
C1806 H1818 0.956 . S
C1806 H1819 0.961 . S
C1806 H1820 0.961 . S
C1807 C1804 1.539 . S
C1807 H1821 0.958 . S
C1807 H1822 0.961 . S
C1807 H1823 0.960 . S
H1808 C1792 0.931 . S
H1809 C1797 0.929 . S
H1810 C1798 0.960 . S
H1811 C1798 0.962 . S
H1812 C1798 0.960 . S
H1813 C1799 0.961 . S
H1814 C1799 0.961 . S
H1815 C1799 0.961 . S
H1816 C1800 0.931 . S
H1817 C1805 0.930 . S
H1818 C1806 0.956 . S
H1819 C1806 0.961 . S
H1820 C1806 0.961 . S
H1821 C1807 0.958 . S
H1822 C1807 0.961 . S
H1823 C1807 0.960 . S
C1824 C1825 1.391 . S
C1824 C1826 1.394 . S
C1824 H1840 0.931 . S
C1825 C1824 1.391 . S
C1825 C1829 1.376 . S
C1826 C1824 1.394 . S
C1826 C1827 1.369 . S
C1826 C1830 1.531 . S
C1827 C1826 1.369 . S
C1827 C1828 1.410 . S
C1827 C1835 1.503 . S
C1828 C1827 1.410 . S
C1828 C1829 1.392 . S
C1828 C1831 1.511 . S
C1829 C1825 1.376 . S
C1829 C1828 1.392 . S
C1829 H1841 0.929 . S
C1830 C1826 1.531 . S
C1830 H1842 0.960 . S
C1830 H1843 0.962 . S
C1830 H1844 0.960 . S
C1831 C1828 1.511 . S
C1831 H1845 0.961 . S
C1831 H1846 0.961 . S
C1831 H1847 0.961 . S
C1832 C1833 1.370 . S
C1832 C1834 1.363 . S
C1832 H1848 0.931 . S
C1833 C1832 1.370 . S
C1833 C1837 1.408 . S
C1834 C1832 1.363 . S
C1834 C1835 1.370 . S
C1834 C1838 1.524 . S
C1835 C1827 1.503 . S
C1835 C1834 1.370 . S
C1835 C1836 1.403 . S
C1836 C1835 1.403 . S
C1836 C1837 1.404 . S
C1836 C1839 1.539 . S
C1837 C1833 1.408 . S
C1837 C1836 1.404 . S
C1837 H1849 0.930 . S
C1838 C1834 1.524 . S
C1838 H1850 0.956 . S
C1838 H1851 0.961 . S
C1838 H1852 0.961 . S
C1839 C1836 1.539 . S
C1839 H1853 0.958 . S
C1839 H1854 0.961 . S
C1839 H1855 0.960 . S
H1840 C1824 0.931 . S
H1841 C1829 0.929 . S
H1842 C1830 0.960 . S
H1843 C1830 0.962 . S
H1844 C1830 0.960 . S
H1845 C1831 0.961 . S
H1846 C1831 0.961 . S
H1847 C1831 0.961 . S
H1848 C1832 0.931 . S
H1849 C1837 0.930 . S
H1850 C1838 0.956 . S
H1851 C1838 0.961 . S
H1852 C1838 0.961 . S
H1853 C1839 0.958 . S
H1854 C1839 0.961 . S
H1855 C1839 0.960 . S
C1856 C1857 1.391 . S
C1856 C1858 1.394 . S
C1856 H1872 0.931 . S
C1857 C1856 1.391 . S
C1857 C1861 1.376 . S
C1858 C1856 1.394 . S
C1858 C1859 1.369 . S
C1858 C1862 1.531 . S
C1859 C1858 1.369 . S
C1859 C1860 1.410 . S
C1859 C1867 1.503 . S
C1860 C1859 1.410 . S
C1860 C1861 1.392 . S
C1860 C1863 1.511 . S
C1861 C1857 1.376 . S
C1861 C1860 1.392 . S
C1861 H1873 0.929 . S
C1862 C1858 1.531 . S
C1862 H1874 0.960 . S
C1862 H1875 0.962 . S
C1862 H1876 0.960 . S
C1863 C1860 1.511 . S
C1863 H1877 0.961 . S
C1863 H1878 0.961 . S
C1863 H1879 0.961 . S
C1864 C1865 1.370 . S
C1864 C1866 1.363 . S
C1864 H1880 0.931 . S
C1865 C1864 1.370 . S
C1865 C1869 1.408 . S
C1866 C1864 1.363 . S
C1866 C1867 1.370 . S
C1866 C1870 1.524 . S
C1867 C1859 1.503 . S
C1867 C1866 1.370 . S
C1867 C1868 1.403 . S
C1868 C1867 1.403 . S
C1868 C1869 1.404 . S
C1868 C1871 1.539 . S
C1869 C1865 1.408 . S
C1869 C1868 1.404 . S
C1869 H1881 0.930 . S
C1870 C1866 1.524 . S
C1870 H1882 0.956 . S
C1870 H1883 0.961 . S
C1870 H1884 0.961 . S
C1871 C1868 1.539 . S
C1871 H1885 0.958 . S
C1871 H1886 0.961 . S
C1871 H1887 0.960 . S
H1872 C1856 0.931 . S
H1873 C1861 0.929 . S
H1874 C1862 0.960 . S
H1875 C1862 0.962 . S
H1876 C1862 0.960 . S
H1877 C1863 0.961 . S
H1878 C1863 0.961 . S
H1879 C1863 0.961 . S
H1880 C1864 0.931 . S
H1881 C1869 0.930 . S
H1882 C1870 0.956 . S
H1883 C1870 0.961 . S
H1884 C1870 0.961 . S
H1885 C1871 0.958 . S
H1886 C1871 0.961 . S
H1887 C1871 0.960 . S
C1888 C1889 1.391 . S
C1888 C1890 1.394 . S
C1888 H1904 0.931 . S
C1889 C1888 1.391 . S
C1889 C1893 1.376 . S
C1890 C1888 1.394 . S
C1890 C1891 1.369 . S
C1890 C1894 1.531 . S
C1891 C1890 1.369 . S
C1891 C1892 1.410 . S
C1891 C1899 1.503 . S
C1892 C1891 1.410 . S
C1892 C1893 1.392 . S
C1892 C1895 1.511 . S
C1893 C1889 1.376 . S
C1893 C1892 1.392 . S
C1893 H1905 0.929 . S
C1894 C1890 1.531 . S
C1894 H1906 0.960 . S
C1894 H1907 0.962 . S
C1894 H1908 0.960 . S
C1895 C1892 1.511 . S
C1895 H1909 0.961 . S
C1895 H1910 0.961 . S
C1895 H1911 0.961 . S
C1896 C1897 1.370 . S
C1896 C1898 1.363 . S
C1896 H1912 0.931 . S
C1897 C1896 1.370 . S
C1897 C1901 1.408 . S
C1898 C1896 1.363 . S
C1898 C1899 1.370 . S
C1898 C1902 1.524 . S
C1899 C1891 1.503 . S
C1899 C1898 1.370 . S
C1899 C1900 1.403 . S
C1900 C1899 1.403 . S
C1900 C1901 1.404 . S
C1900 C1903 1.539 . S
C1901 C1897 1.408 . S
C1901 C1900 1.404 . S
C1901 H1913 0.930 . S
C1902 C1898 1.524 . S
C1902 H1914 0.956 . S
C1902 H1915 0.961 . S
C1902 H1916 0.961 . S
C1903 C1900 1.539 . S
C1903 H1917 0.958 . S
C1903 H1918 0.961 . S
C1903 H1919 0.960 . S
H1904 C1888 0.931 . S
H1905 C1893 0.929 . S
H1906 C1894 0.960 . S
H1907 C1894 0.962 . S
H1908 C1894 0.960 . S
H1909 C1895 0.961 . S
H1910 C1895 0.961 . S
H1911 C1895 0.961 . S
H1912 C1896 0.931 . S
H1913 C1901 0.930 . S
H1914 C1902 0.956 . S
H1915 C1902 0.961 . S
H1916 C1902 0.961 . S
H1917 C1903 0.958 . S
H1918 C1903 0.961 . S
H1919 C1903 0.960 . S
C1920 C1921 1.391 . S
C1920 C1922 1.394 . S
C1920 H1936 0.931 . S
C1921 C1920 1.391 . S
C1921 C1925 1.376 . S
C1922 C1920 1.394 . S
C1922 C1923 1.369 . S
C1922 C1926 1.531 . S
C1923 C1922 1.369 . S
C1923 C1924 1.410 . S
C1923 C1931 1.503 . S
C1924 C1923 1.410 . S
C1924 C1925 1.392 . S
C1924 C1927 1.511 . S
C1925 C1921 1.376 . S
C1925 C1924 1.392 . S
C1925 H1937 0.929 . S
C1926 C1922 1.531 . S
C1926 H1938 0.960 . S
C1926 H1939 0.962 . S
C1926 H1940 0.960 . S
C1927 C1924 1.511 . S
C1927 H1941 0.961 . S
C1927 H1942 0.961 . S
C1927 H1943 0.961 . S
C1928 C1929 1.370 . S
C1928 C1930 1.363 . S
C1928 H1944 0.931 . S
C1929 C1928 1.370 . S
C1929 C1933 1.408 . S
C1930 C1928 1.363 . S
C1930 C1931 1.370 . S
C1930 C1934 1.524 . S
C1931 C1923 1.503 . S
C1931 C1930 1.370 . S
C1931 C1932 1.403 . S
C1932 C1931 1.403 . S
C1932 C1933 1.404 . S
C1932 C1935 1.539 . S
C1933 C1929 1.408 . S
C1933 C1932 1.404 . S
C1933 H1945 0.930 . S
C1934 C1930 1.524 . S
C1934 H1946 0.956 . S
C1934 H1947 0.961 . S
C1934 H1948 0.961 . S
C1935 C1932 1.539 . S
C1935 H1949 0.958 . S
C1935 H1950 0.961 . S
C1935 H1951 0.960 . S
H1936 C1920 0.931 . S
H1937 C1925 0.929 . S
H1938 C1926 0.960 . S
H1939 C1926 0.962 . S
H1940 C1926 0.960 . S
H1941 C1927 0.961 . S
H1942 C1927 0.961 . S
H1943 C1927 0.961 . S
H1944 C1928 0.931 . S
H1945 C1933 0.930 . S
H1946 C1934 0.956 . S
H1947 C1934 0.961 . S
H1948 C1934 0.961 . S
H1949 C1935 0.958 . S
H1950 C1935 0.961 . S
H1951 C1935 0.960 . S
C1952 C1953 1.391 . S
C1952 C1954 1.394 . S
C1952 H1968 0.931 . S
C1953 C1952 1.391 . S
C1953 C1957 1.376 . S
C1954 C1952 1.394 . S
C1954 C1955 1.369 . S
C1954 C1958 1.531 . S
C1955 C1954 1.369 . S
C1955 C1956 1.410 . S
C1955 C1963 1.503 . S
C1956 C1955 1.410 . S
C1956 C1957 1.392 . S
C1956 C1959 1.511 . S
C1957 C1953 1.376 . S
C1957 C1956 1.392 . S
C1957 H1969 0.929 . S
C1958 C1954 1.531 . S
C1958 H1970 0.960 . S
C1958 H1971 0.962 . S
C1958 H1972 0.960 . S
C1959 C1956 1.511 . S
C1959 H1973 0.961 . S
C1959 H1974 0.961 . S
C1959 H1975 0.961 . S
C1960 C1961 1.370 . S
C1960 C1962 1.363 . S
C1960 H1976 0.931 . S
C1961 C1960 1.370 . S
C1961 C1965 1.408 . S
C1962 C1960 1.363 . S
C1962 C1963 1.370 . S
C1962 C1966 1.524 . S
C1963 C1955 1.503 . S
C1963 C1962 1.370 . S
C1963 C1964 1.403 . S
C1964 C1963 1.403 . S
C1964 C1965 1.404 . S
C1964 C1967 1.539 . S
C1965 C1961 1.408 . S
C1965 C1964 1.404 . S
C1965 H1977 0.930 . S
C1966 C1962 1.524 . S
C1966 H1978 0.956 . S
C1966 H1979 0.961 . S
C1966 H1980 0.961 . S
C1967 C1964 1.539 . S
C1967 H1981 0.958 . S
C1967 H1982 0.961 . S
C1967 H1983 0.960 . S
H1968 C1952 0.931 . S
H1969 C1957 0.929 . S
H1970 C1958 0.960 . S
H1971 C1958 0.962 . S
H1972 C1958 0.960 . S
H1973 C1959 0.961 . S
H1974 C1959 0.961 . S
H1975 C1959 0.961 . S
H1976 C1960 0.931 . S
H1977 C1965 0.930 . S
H1978 C1966 0.956 . S
H1979 C1966 0.961 . S
H1980 C1966 0.961 . S
H1981 C1967 0.958 . S
H1982 C1967 0.961 . S
H1983 C1967 0.960 . S
C1984 C1985 1.391 . S
C1984 C1986 1.394 . S
C1984 H2000 0.931 . S
C1985 C1984 1.391 . S
C1985 C1989 1.376 . S
C1986 C1984 1.394 . S
C1986 C1987 1.369 . S
C1986 C1990 1.531 . S
C1987 C1986 1.369 . S
C1987 C1988 1.410 . S
C1987 C1995 1.503 . S
C1988 C1987 1.410 . S
C1988 C1989 1.392 . S
C1988 C1991 1.511 . S
C1989 C1985 1.376 . S
C1989 C1988 1.392 . S
C1989 H2001 0.929 . S
C1990 C1986 1.531 . S
C1990 H2002 0.960 . S
C1990 H2003 0.962 . S
C1990 H2004 0.960 . S
C1991 C1988 1.511 . S
C1991 H2005 0.961 . S
C1991 H2006 0.961 . S
C1991 H2007 0.961 . S
C1992 C1993 1.370 . S
C1992 C1994 1.363 . S
C1992 H2008 0.931 . S
C1993 C1992 1.370 . S
C1993 C1997 1.408 . S
C1994 C1992 1.363 . S
C1994 C1995 1.370 . S
C1994 C1998 1.524 . S
C1995 C1987 1.503 . S
C1995 C1994 1.370 . S
C1995 C1996 1.403 . S
C1996 C1995 1.403 . S
C1996 C1997 1.404 . S
C1996 C1999 1.539 . S
C1997 C1993 1.408 . S
C1997 C1996 1.404 . S
C1997 H2009 0.930 . S
C1998 C1994 1.524 . S
C1998 H2010 0.956 . S
C1998 H2011 0.961 . S
C1998 H2012 0.961 . S
C1999 C1996 1.539 . S
C1999 H2013 0.958 . S
C1999 H2014 0.961 . S
C1999 H2015 0.960 . S
H2000 C1984 0.931 . S
H2001 C1989 0.929 . S
H2002 C1990 0.960 . S
H2003 C1990 0.962 . S
H2004 C1990 0.960 . S
H2005 C1991 0.961 . S
H2006 C1991 0.961 . S
H2007 C1991 0.961 . S
H2008 C1992 0.931 . S
H2009 C1997 0.930 . S
H2010 C1998 0.956 . S
H2011 C1998 0.961 . S
H2012 C1998 0.961 . S
H2013 C1999 0.958 . S
H2014 C1999 0.961 . S
H2015 C1999 0.960 . S
C2016 C2017 1.391 . S
C2016 C2018 1.394 . S
C2016 H2032 0.931 . S
C2017 C2016 1.391 . S
C2017 C2021 1.376 . S
C2018 C2016 1.394 . S
C2018 C2019 1.369 . S
C2018 C2022 1.531 . S
C2019 C2018 1.369 . S
C2019 C2020 1.410 . S
C2019 C2027 1.503 . S
C2020 C2019 1.410 . S
C2020 C2021 1.392 . S
C2020 C2023 1.511 . S
C2021 C2017 1.376 . S
C2021 C2020 1.392 . S
C2021 H2033 0.929 . S
C2022 C2018 1.531 . S
C2022 H2034 0.960 . S
C2022 H2035 0.962 . S
C2022 H2036 0.960 . S
C2023 C2020 1.511 . S
C2023 H2037 0.961 . S
C2023 H2038 0.961 . S
C2023 H2039 0.961 . S
C2024 C2025 1.370 . S
C2024 C2026 1.363 . S
C2024 H2040 0.931 . S
C2025 C2024 1.370 . S
C2025 C2029 1.408 . S
C2026 C2024 1.363 . S
C2026 C2027 1.370 . S
C2026 C2030 1.524 . S
C2027 C2019 1.503 . S
C2027 C2026 1.370 . S
C2027 C2028 1.403 . S
C2028 C2027 1.403 . S
C2028 C2029 1.404 . S
C2028 C2031 1.539 . S
C2029 C2025 1.408 . S
C2029 C2028 1.404 . S
C2029 H2041 0.930 . S
C2030 C2026 1.524 . S
C2030 H2042 0.956 . S
C2030 H2043 0.961 . S
C2030 H2044 0.961 . S
C2031 C2028 1.539 . S
C2031 H2045 0.958 . S
C2031 H2046 0.961 . S
C2031 H2047 0.960 . S
H2032 C2016 0.931 . S
H2033 C2021 0.929 . S
H2034 C2022 0.960 . S
H2035 C2022 0.962 . S
H2036 C2022 0.960 . S
H2037 C2023 0.961 . S
H2038 C2023 0.961 . S
H2039 C2023 0.961 . S
H2040 C2024 0.931 . S
H2041 C2029 0.930 . S
H2042 C2030 0.956 . S
H2043 C2030 0.961 . S
H2044 C2030 0.961 . S
H2045 C2031 0.958 . S
H2046 C2031 0.961 . S
H2047 C2031 0.960 . S
C2048 C2049 1.391 . S
C2048 C2050 1.394 . S
C2048 H2064 0.931 . S
C2049 C2048 1.391 . S
C2049 C2053 1.376 . S
C2050 C2048 1.394 . S
C2050 C2051 1.369 . S
C2050 C2054 1.531 . S
C2051 C2050 1.369 . S
C2051 C2052 1.410 . S
C2051 C2059 1.503 . S
C2052 C2051 1.410 . S
C2052 C2053 1.392 . S
C2052 C2055 1.511 . S
C2053 C2049 1.376 . S
C2053 C2052 1.392 . S
C2053 H2065 0.929 . S
C2054 C2050 1.531 . S
C2054 H2066 0.960 . S
C2054 H2067 0.962 . S
C2054 H2068 0.960 . S
C2055 C2052 1.511 . S
C2055 H2069 0.961 . S
C2055 H2070 0.961 . S
C2055 H2071 0.961 . S
C2056 C2057 1.370 . S
C2056 C2058 1.363 . S
C2056 H2072 0.931 . S
C2057 C2056 1.370 . S
C2057 C2061 1.408 . S
C2058 C2056 1.363 . S
C2058 C2059 1.370 . S
C2058 C2062 1.524 . S
C2059 C2051 1.503 . S
C2059 C2058 1.370 . S
C2059 C2060 1.403 . S
C2060 C2059 1.403 . S
C2060 C2061 1.404 . S
C2060 C2063 1.539 . S
C2061 C2057 1.408 . S
C2061 C2060 1.404 . S
C2061 H2073 0.930 . S
C2062 C2058 1.524 . S
C2062 H2074 0.956 . S
C2062 H2075 0.961 . S
C2062 H2076 0.961 . S
C2063 C2060 1.539 . S
C2063 H2077 0.958 . S
C2063 H2078 0.961 . S
C2063 H2079 0.960 . S
H2064 C2048 0.931 . S
H2065 C2053 0.929 . S
H2066 C2054 0.960 . S
H2067 C2054 0.962 . S
H2068 C2054 0.960 . S
H2069 C2055 0.961 . S
H2070 C2055 0.961 . S
H2071 C2055 0.961 . S
H2072 C2056 0.931 . S
H2073 C2061 0.930 . S
H2074 C2062 0.956 . S
H2075 C2062 0.961 . S
H2076 C2062 0.961 . S
H2077 C2063 0.958 . S
H2078 C2063 0.961 . S
H2079 C2063 0.960 . S
C2080 C2081 1.391 . S
C2080 C2082 1.394 . S
C2080 H2096 0.931 . S
C2081 C2080 1.391 . S
C2081 C2085 1.376 . S
C2082 C2080 1.394 . S
C2082 C2083 1.369 . S
C2082 C2086 1.531 . S
C2083 C2082 1.369 . S
C2083 C2084 1.410 . S
C2083 C2091 1.503 . S
C2084 C2083 1.410 . S
C2084 C2085 1.392 . S
C2084 C2087 1.511 . S
C2085 C2081 1.376 . S
C2085 C2084 1.392 . S
C2085 H2097 0.929 . S
C2086 C2082 1.531 . S
C2086 H2098 0.960 . S
C2086 H2099 0.962 . S
C2086 H2100 0.960 . S
C2087 C2084 1.511 . S
C2087 H2101 0.961 . S
C2087 H2102 0.961 . S
C2087 H2103 0.961 . S
C2088 C2089 1.370 . S
C2088 C2090 1.363 . S
C2088 H2104 0.931 . S
C2089 C2088 1.370 . S
C2089 C2093 1.408 . S
C2090 C2088 1.363 . S
C2090 C2091 1.370 . S
C2090 C2094 1.524 . S
C2091 C2083 1.503 . S
C2091 C2090 1.370 . S
C2091 C2092 1.403 . S
C2092 C2091 1.403 . S
C2092 C2093 1.404 . S
C2092 C2095 1.539 . S
C2093 C2089 1.408 . S
C2093 C2092 1.404 . S
C2093 H2105 0.930 . S
C2094 C2090 1.524 . S
C2094 H2106 0.956 . S
C2094 H2107 0.961 . S
C2094 H2108 0.961 . S
C2095 C2092 1.539 . S
C2095 H2109 0.958 . S
C2095 H2110 0.961 . S
C2095 H2111 0.960 . S
H2096 C2080 0.931 . S
H2097 C2085 0.929 . S
H2098 C2086 0.960 . S
H2099 C2086 0.962 . S
H2100 C2086 0.960 . S
H2101 C2087 0.961 . S
H2102 C2087 0.961 . S
H2103 C2087 0.961 . S
H2104 C2088 0.931 . S
H2105 C2093 0.930 . S
H2106 C2094 0.956 . S
H2107 C2094 0.961 . S
H2108 C2094 0.961 . S
H2109 C2095 0.958 . S
H2110 C2095 0.961 . S
H2111 C2095 0.960 . S
C2112 C2113 1.391 . S
C2112 C2114 1.394 . S
C2112 H2128 0.931 . S
C2113 C2112 1.391 . S
C2113 C2117 1.376 . S
C2114 C2112 1.394 . S
C2114 C2115 1.369 . S
C2114 C2118 1.531 . S
C2115 C2114 1.369 . S
C2115 C2116 1.410 . S
C2115 C2123 1.503 . S
C2116 C2115 1.410 . S
C2116 C2117 1.392 . S
C2116 C2119 1.511 . S
C2117 C2113 1.376 . S
C2117 C2116 1.392 . S
C2117 H2129 0.929 . S
C2118 C2114 1.531 . S
C2118 H2130 0.960 . S
C2118 H2131 0.962 . S
C2118 H2132 0.960 . S
C2119 C2116 1.511 . S
C2119 H2133 0.961 . S
C2119 H2134 0.961 . S
C2119 H2135 0.961 . S
C2120 C2121 1.370 . S
C2120 C2122 1.363 . S
C2120 H2136 0.931 . S
C2121 C2120 1.370 . S
C2121 C2125 1.408 . S
C2122 C2120 1.363 . S
C2122 C2123 1.370 . S
C2122 C2126 1.524 . S
C2123 C2115 1.503 . S
C2123 C2122 1.370 . S
C2123 C2124 1.403 . S
C2124 C2123 1.403 . S
C2124 C2125 1.404 . S
C2124 C2127 1.539 . S
C2125 C2121 1.408 . S
C2125 C2124 1.404 . S
C2125 H2137 0.930 . S
C2126 C2122 1.524 . S
C2126 H2138 0.956 . S
C2126 H2139 0.961 . S
C2126 H2140 0.961 . S
C2127 C2124 1.539 . S
C2127 H2141 0.958 . S
C2127 H2142 0.961 . S
C2127 H2143 0.960 . S
H2128 C2112 0.931 . S
H2129 C2117 0.929 . S
H2130 C2118 0.960 . S
H2131 C2118 0.962 . S
H2132 C2118 0.960 . S
H2133 C2119 0.961 . S
H2134 C2119 0.961 . S
H2135 C2119 0.961 . S
H2136 C2120 0.931 . S
H2137 C2125 0.930 . S
H2138 C2126 0.956 . S
H2139 C2126 0.961 . S
H2140 C2126 0.961 . S
H2141 C2127 0.958 . S
H2142 C2127 0.961 . S
H2143 C2127 0.960 . S
C2144 C2145 1.391 . S
C2144 C2146 1.394 . S
C2144 H2160 0.931 . S
C2145 C2144 1.391 . S
C2145 C2149 1.376 . S
C2146 C2144 1.394 . S
C2146 C2147 1.369 . S
C2146 C2150 1.531 . S
C2147 C2146 1.369 . S
C2147 C2148 1.410 . S
C2147 C2155 1.503 . S
C2148 C2147 1.410 . S
C2148 C2149 1.392 . S
C2148 C2151 1.511 . S
C2149 C2145 1.376 . S
C2149 C2148 1.392 . S
C2149 H2161 0.929 . S
C2150 C2146 1.531 . S
C2150 H2162 0.960 . S
C2150 H2163 0.962 . S
C2150 H2164 0.960 . S
C2151 C2148 1.511 . S
C2151 H2165 0.961 . S
C2151 H2166 0.961 . S
C2151 H2167 0.961 . S
C2152 C2153 1.370 . S
C2152 C2154 1.363 . S
C2152 H2168 0.931 . S
C2153 C2152 1.370 . S
C2153 C2157 1.408 . S
C2154 C2152 1.363 . S
C2154 C2155 1.370 . S
C2154 C2158 1.524 . S
C2155 C2147 1.503 . S
C2155 C2154 1.370 . S
C2155 C2156 1.403 . S
C2156 C2155 1.403 . S
C2156 C2157 1.404 . S
C2156 C2159 1.539 . S
C2157 C2153 1.408 . S
C2157 C2156 1.404 . S
C2157 H2169 0.930 . S
C2158 C2154 1.524 . S
C2158 H2170 0.956 . S
C2158 H2171 0.961 . S
C2158 H2172 0.961 . S
C2159 C2156 1.539 . S
C2159 H2173 0.958 . S
C2159 H2174 0.961 . S
C2159 H2175 0.960 . S
H2160 C2144 0.931 . S
H2161 C2149 0.929 . S
H2162 C2150 0.960 . S
H2163 C2150 0.962 . S
H2164 C2150 0.960 . S
H2165 C2151 0.961 . S
H2166 C2151 0.961 . S
H2167 C2151 0.961 . S
H2168 C2152 0.931 . S
H2169 C2157 0.930 . S
H2170 C2158 0.956 . S
H2171 C2158 0.961 . S
H2172 C2158 0.961 . S
H2173 C2159 0.958 . S
H2174 C2159 0.961 . S
H2175 C2159 0.960 . S
C2176 C2177 1.391 . S
C2176 C2178 1.394 . S
C2176 H2192 0.931 . S
C2177 C2176 1.391 . S
C2177 C2181 1.376 . S
C2178 C2176 1.394 . S
C2178 C2179 1.369 . S
C2178 C2182 1.531 . S
C2179 C2178 1.369 . S
C2179 C2180 1.410 . S
C2179 C2187 1.503 . S
C2180 C2179 1.410 . S
C2180 C2181 1.392 . S
C2180 C2183 1.511 . S
C2181 C2177 1.376 . S
C2181 C2180 1.392 . S
C2181 H2193 0.929 . S
C2182 C2178 1.531 . S
C2182 H2194 0.960 . S
C2182 H2195 0.962 . S
C2182 H2196 0.960 . S
C2183 C2180 1.511 . S
C2183 H2197 0.961 . S
C2183 H2198 0.961 . S
C2183 H2199 0.961 . S
C2184 C2185 1.370 . S
C2184 C2186 1.363 . S
C2184 H2200 0.931 . S
C2185 C2184 1.370 . S
C2185 C2189 1.408 . S
C2186 C2184 1.363 . S
C2186 C2187 1.370 . S
C2186 C2190 1.524 . S
C2187 C2179 1.503 . S
C2187 C2186 1.370 . S
C2187 C2188 1.403 . S
C2188 C2187 1.403 . S
C2188 C2189 1.404 . S
C2188 C2191 1.539 . S
C2189 C2185 1.408 . S
C2189 C2188 1.404 . S
C2189 H2201 0.930 . S
C2190 C2186 1.524 . S
C2190 H2202 0.956 . S
C2190 H2203 0.961 . S
C2190 H2204 0.961 . S
C2191 C2188 1.539 . S
C2191 H2205 0.958 . S
C2191 H2206 0.961 . S
C2191 H2207 0.960 . S
H2192 C2176 0.931 . S
H2193 C2181 0.929 . S
H2194 C2182 0.960 . S
H2195 C2182 0.962 . S
H2196 C2182 0.960 . S
H2197 C2183 0.961 . S
H2198 C2183 0.961 . S
H2199 C2183 0.961 . S
H2200 C2184 0.931 . S
H2201 C2189 0.930 . S
H2202 C2190 0.956 . S
H2203 C2190 0.961 . S
H2204 C2190 0.961 . S
H2205 C2191 0.958 . S
H2206 C2191 0.961 . S
H2207 C2191 0.960 . S
C2208 C2209 1.391 1_645 S
C2208 C2210 1.394 . S
C2208 H2224 0.931 . S
C2209 C2208 1.391 1_465 S
C2209 C2213 1.376 . S
C2210 C2208 1.394 . S
C2210 C2211 1.369 1_655 S
C2210 C2214 1.531 . S
C2211 C2210 1.369 1_455 S
C2211 C2212 1.410 1_545 S
C2211 C2219 1.503 1_455 S
C2212 C2211 1.410 1_565 S
C2212 C2213 1.392 . S
C2212 C2215 1.511 . S
C2213 C2209 1.376 . S
C2213 C2212 1.392 . S
C2213 H2225 0.929 . S
C2214 C2210 1.531 . S
C2214 H2226 0.960 . S
C2214 H2227 0.962 . S
C2214 H2228 0.960 . S
C2215 C2212 1.511 . S
C2215 H2229 0.961 . S
C2215 H2230 0.961 . S
C2215 H2231 0.961 1_565 S
C2216 C2217 1.370 1_565 S
C2216 C2218 1.363 . S
C2216 H2232 0.931 . S
C2217 C2216 1.370 1_545 S
C2217 C2221 1.408 . S
C2218 C2216 1.363 . S
C2218 C2219 1.370 1_565 S
C2218 C2222 1.524 . S
C2219 C2211 1.503 1_655 S
C2219 C2218 1.370 1_545 S
C2219 C2220 1.401 1_655 S
C2220 C2219 1.401 1_455 S
C2220 C2221 1.400 1_455 S
C2220 C2223 1.545 . S
C2221 C2217 1.408 . S
C2221 C2220 1.400 1_655 S
C2221 H2233 0.930 . S
C2222 C2218 1.524 . S
C2222 H2234 0.956 . S
C2222 H2235 0.961 . S
C2222 H2236 0.961 . S
C2223 C2220 1.545 . S
C2223 H2237 0.958 . S
C2223 H2238 0.961 . S
C2223 H2239 0.960 . S
H2224 C2208 0.931 . S
H2225 C2213 0.929 . S
H2226 C2214 0.960 . S
H2227 C2214 0.962 . S
H2228 C2214 0.960 . S
H2229 C2215 0.961 . S
H2230 C2215 0.961 . S
H2231 C2215 0.961 1_545 S
H2232 C2216 0.931 . S
H2233 C2221 0.930 . S
H2234 C2222 0.956 . S
H2235 C2222 0.961 . S
H2236 C2222 0.961 . S
H2237 C2223 0.958 . S
H2238 C2223 0.961 . S
H2239 C2223 0.960 . S
C2240 C2241 1.391 . S
C2240 C2242 1.394 . S
C2240 H2256 0.931 . S
C2241 C2240 1.391 . S
C2241 C2245 1.376 . S
C2242 C2240 1.394 . S
C2242 C2243 1.369 . S
C2242 C2246 1.531 . S
C2243 C2242 1.369 . S
C2243 C2244 1.410 . S
C2243 C2251 1.503 . S
C2244 C2243 1.410 . S
C2244 C2245 1.392 . S
C2244 C2247 1.511 . S
C2245 C2241 1.376 . S
C2245 C2244 1.392 . S
C2245 H2257 0.929 . S
C2246 C2242 1.531 . S
C2246 H2258 0.960 . S
C2246 H2259 0.962 . S
C2246 H2260 0.960 . S
C2247 C2244 1.511 . S
C2247 H2261 0.961 . S
C2247 H2262 0.961 . S
C2247 H2263 0.961 . S
C2248 C2249 1.370 . S
C2248 C2250 1.363 . S
C2248 H2264 0.931 . S
C2249 C2248 1.370 . S
C2249 C2253 1.408 . S
C2250 C2248 1.363 . S
C2250 C2251 1.370 . S
C2250 C2254 1.524 . S
C2251 C2243 1.503 . S
C2251 C2250 1.370 . S
C2251 C2252 1.403 . S
C2252 C2251 1.403 . S
C2252 C2253 1.404 . S
C2252 C2255 1.539 . S
C2253 C2249 1.408 . S
C2253 C2252 1.404 . S
C2253 H2265 0.930 . S
C2254 C2250 1.524 . S
C2254 H2266 0.956 . S
C2254 H2267 0.961 . S
C2254 H2268 0.961 . S
C2255 C2252 1.539 . S
C2255 H2269 0.958 . S
C2255 H2270 0.961 . S
C2255 H2271 0.960 . S
H2256 C2240 0.931 . S
H2257 C2245 0.929 . S
H2258 C2246 0.960 . S
H2259 C2246 0.962 . S
H2260 C2246 0.960 . S
H2261 C2247 0.961 . S
H2262 C2247 0.961 . S
H2263 C2247 0.961 . S
H2264 C2248 0.931 . S
H2265 C2253 0.930 . S
H2266 C2254 0.956 . S
H2267 C2254 0.961 . S
H2268 C2254 0.961 . S
H2269 C2255 0.958 . S
H2270 C2255 0.961 . S
H2271 C2255 0.960 . S
C2272 C2273 1.391 1_565 S
C2272 C2274 1.394 . S
C2272 H2288 0.931 . S
C2273 C2272 1.391 1_545 S
C2273 C2277 1.376 . S
C2274 C2272 1.394 . S
C2274 C2275 1.369 . S
C2274 C2278 1.531 . S
C2275 C2274 1.369 . S
C2275 C2276 1.410 1_565 S
C2275 C2283 1.503 1_554 S
C2276 C2275 1.410 1_545 S
C2276 C2277 1.392 . S
C2276 C2279 1.511 1_554 S
C2277 C2273 1.376 . S
C2277 C2276 1.392 . S
C2277 H2289 0.929 . S
C2278 C2274 1.531 . S
C2278 H2290 0.960 . S
C2278 H2291 0.962 . S
C2278 H2292 0.960 . S
C2279 C2276 1.511 1_556 S
C2279 H2293 0.965 . S
C2279 H2294 0.961 . S
C2279 H2295 0.961 . S
C2280 C2281 1.370 1_545 S
C2280 C2282 1.363 . S
C2280 H2296 0.931 . S
C2281 C2280 1.370 1_565 S
C2281 C2285 1.408 . S
C2282 C2280 1.363 . S
C2282 C2283 1.370 1_545 S
C2282 C2286 1.524 . S
C2283 C2275 1.503 1_556 S
C2283 C2282 1.370 1_565 S
C2283 C2284 1.403 . S
C2284 C2283 1.403 . S
C2284 C2285 1.404 . S
C2284 C2287 1.539 . S
C2285 C2281 1.408 . S
C2285 C2284 1.404 . S
C2285 H2297 0.930 . S
C2286 C2282 1.524 . S
C2286 H2298 0.956 1_556 S
C2286 H2299 0.961 . S
C2286 H2300 0.961 . S
C2287 C2284 1.539 . S
C2287 H2301 0.958 . S
C2287 H2302 0.961 . S
C2287 H2303 0.960 . S
H2288 C2272 0.931 . S
H2289 C2277 0.929 . S
H2290 C2278 0.960 . S
H2291 C2278 0.962 . S
H2292 C2278 0.960 . S
H2293 C2279 0.965 . S
H2294 C2279 0.961 . S
H2295 C2279 0.961 . S
H2296 C2280 0.931 . S
H2297 C2285 0.930 . S
H2298 C2286 0.956 1_554 S
H2299 C2286 0.961 . S
H2300 C2286 0.961 . S
H2301 C2287 0.958 . S
H2302 C2287 0.961 . S
H2303 C2287 0.960 . S
C2304 C2305 1.391 . S
C2304 C2306 1.394 . S
C2304 H2320 0.931 . S
C2305 C2304 1.391 . S
C2305 C2309 1.376 . S
C2306 C2304 1.394 . S
C2306 C2307 1.369 . S
C2306 C2310 1.531 . S
C2307 C2306 1.369 . S
C2307 C2308 1.410 . S
C2307 C2315 1.503 . S
C2308 C2307 1.410 . S
C2308 C2309 1.392 . S
C2308 C2311 1.511 . S
C2309 C2305 1.376 . S
C2309 C2308 1.392 . S
C2309 H2321 0.929 . S
C2310 C2306 1.531 . S
C2310 H2322 0.960 . S
C2310 H2323 0.962 . S
C2310 H2324 0.960 . S
C2311 C2308 1.511 . S
C2311 H2325 0.961 . S
C2311 H2326 0.961 . S
C2311 H2327 0.961 . S
C2312 C2313 1.370 . S
C2312 C2314 1.363 . S
C2312 H2328 0.931 . S
C2313 C2312 1.370 . S
C2313 C2317 1.408 . S
C2314 C2312 1.363 . S
C2314 C2315 1.370 . S
C2314 C2318 1.524 . S
C2315 C2307 1.503 . S
C2315 C2314 1.370 . S
C2315 C2316 1.403 . S
C2316 C2315 1.403 . S
C2316 C2317 1.404 . S
C2316 C2319 1.539 . S
C2317 C2313 1.408 . S
C2317 C2316 1.404 . S
C2317 H2329 0.930 . S
C2318 C2314 1.524 . S
C2318 H2330 0.956 . S
C2318 H2331 0.961 . S
C2318 H2332 0.961 . S
C2319 C2316 1.539 . S
C2319 H2333 0.958 . S
C2319 H2334 0.961 . S
C2319 H2335 0.960 . S
H2320 C2304 0.931 . S
H2321 C2309 0.929 . S
H2322 C2310 0.960 . S
H2323 C2310 0.962 . S
H2324 C2310 0.960 . S
H2325 C2311 0.961 . S
H2326 C2311 0.961 . S
H2327 C2311 0.961 . S
H2328 C2312 0.931 . S
H2329 C2317 0.930 . S
H2330 C2318 0.956 . S
H2331 C2318 0.961 . S
H2332 C2318 0.961 . S
H2333 C2319 0.958 . S
H2334 C2319 0.961 . S
H2335 C2319 0.960 . S
C2336 C2337 1.391 1_545 S
C2336 C2338 1.394 . S
C2336 H2352 0.931 . S
C2337 C2336 1.391 1_565 S
C2337 C2341 1.376 . S
C2338 C2336 1.394 . S
C2338 C2339 1.369 . S
C2338 C2342 1.531 . S
C2339 C2338 1.369 . S
C2339 C2340 1.410 1_545 S
C2339 C2347 1.503 . S
C2340 C2339 1.410 1_565 S
C2340 C2341 1.392 . S
C2340 C2343 1.511 . S
C2341 C2337 1.376 . S
C2341 C2340 1.392 . S
C2341 H2353 0.929 . S
C2342 C2338 1.531 . S
C2342 H2354 0.960 . S
C2342 H2355 0.962 . S
C2342 H2356 0.960 . S
C2343 C2340 1.511 . S
C2343 H2357 0.961 . S
C2343 H2358 0.961 . S
C2343 H2359 0.961 1_565 S
C2344 C2345 1.370 1_565 S
C2344 C2346 1.363 . S
C2344 H2360 0.931 . S
C2345 C2344 1.370 1_545 S
C2345 C2349 1.408 . S
C2346 C2344 1.363 . S
C2346 C2347 1.370 1_565 S
C2346 C2350 1.524 . S
C2347 C2339 1.503 . S
C2347 C2346 1.370 1_545 S
C2347 C2348 1.403 . S
C2348 C2347 1.403 . S
C2348 C2349 1.404 . S
C2348 C2351 1.539 . S
C2349 C2345 1.408 . S
C2349 C2348 1.404 . S
C2349 H2361 0.930 . S
C2350 C2346 1.524 . S
C2350 H2362 0.956 . S
C2350 H2363 0.961 . S
C2350 H2364 0.961 . S
C2351 C2348 1.539 . S
C2351 H2365 0.958 . S
C2351 H2366 0.961 . S
C2351 H2367 0.960 . S
H2352 C2336 0.931 . S
H2353 C2341 0.929 . S
H2354 C2342 0.960 . S
H2355 C2342 0.962 . S
H2356 C2342 0.960 . S
H2357 C2343 0.961 . S
H2358 C2343 0.961 . S
H2359 C2343 0.961 1_545 S
H2360 C2344 0.931 . S
H2361 C2349 0.930 . S
H2362 C2350 0.956 . S
H2363 C2350 0.961 . S
H2364 C2350 0.961 . S
H2365 C2351 0.958 . S
H2366 C2351 0.961 . S
H2367 C2351 0.960 . S
C2368 C2369 1.391 . S
C2368 C2370 1.394 . S
C2368 H2384 0.931 . S
C2369 C2368 1.391 . S
C2369 C2373 1.376 . S
C2370 C2368 1.394 . S
C2370 C2371 1.369 . S
C2370 C2374 1.531 . S
C2371 C2370 1.369 . S
C2371 C2372 1.410 . S
C2371 C2379 1.503 . S
C2372 C2371 1.410 . S
C2372 C2373 1.392 . S
C2372 C2375 1.511 . S
C2373 C2369 1.376 . S
C2373 C2372 1.392 . S
C2373 H2385 0.929 . S
C2374 C2370 1.531 . S
C2374 H2386 0.960 . S
C2374 H2387 0.962 . S
C2374 H2388 0.960 . S
C2375 C2372 1.511 . S
C2375 H2389 0.961 . S
C2375 H2390 0.961 . S
C2375 H2391 0.961 . S
C2376 C2377 1.370 . S
C2376 C2378 1.363 . S
C2376 H2392 0.931 . S
C2377 C2376 1.370 . S
C2377 C2381 1.408 . S
C2378 C2376 1.363 . S
C2378 C2379 1.370 . S
C2378 C2382 1.524 . S
C2379 C2371 1.503 . S
C2379 C2378 1.370 . S
C2379 C2380 1.403 . S
C2380 C2379 1.403 . S
C2380 C2381 1.404 . S
C2380 C2383 1.539 . S
C2381 C2377 1.408 . S
C2381 C2380 1.404 . S
C2381 H2393 0.930 . S
C2382 C2378 1.524 . S
C2382 H2394 0.956 . S
C2382 H2395 0.961 . S
C2382 H2396 0.961 . S
C2383 C2380 1.539 . S
C2383 H2397 0.958 . S
C2383 H2398 0.961 . S
C2383 H2399 0.960 . S
H2384 C2368 0.931 . S
H2385 C2373 0.929 . S
H2386 C2374 0.960 . S
H2387 C2374 0.962 . S
H2388 C2374 0.960 . S
H2389 C2375 0.961 . S
H2390 C2375 0.961 . S
H2391 C2375 0.961 . S
H2392 C2376 0.931 . S
H2393 C2381 0.930 . S
H2394 C2382 0.956 . S
H2395 C2382 0.961 . S
H2396 C2382 0.961 . S
H2397 C2383 0.958 . S
H2398 C2383 0.961 . S
H2399 C2383 0.960 . S
C2400 C2401 1.391 . S
C2400 C2402 1.394 . S
C2400 H2416 0.931 . S
C2401 C2400 1.391 . S
C2401 C2405 1.376 1_445 S
C2402 C2400 1.394 . S
C2402 C2403 1.369 . S
C2402 C2406 1.531 1_556 S
C2403 C2402 1.369 . S
C2403 C2404 1.410 1_445 S
C2403 C2411 1.503 1_456 S
C2404 C2403 1.410 1_665 S
C2404 C2405 1.392 . S
C2404 C2407 1.511 . S
C2405 C2401 1.376 1_665 S
C2405 C2404 1.392 . S
C2405 H2417 0.929 . S
C2406 C2402 1.531 1_554 S
C2406 H2418 0.960 . S
C2406 H2419 0.962 . S
C2406 H2420 0.950 1_554 S
C2407 C2404 1.511 . S
C2407 H2421 0.961 . S
C2407 H2422 0.961 . S
C2407 H2423 0.961 . S
C2408 C2409 1.370 . S
C2408 C2410 1.363 1_655 S
C2408 H2424 0.931 1_655 S
C2409 C2408 1.370 . S
C2409 C2413 1.408 1_565 S
C2410 C2408 1.363 1_455 S
C2410 C2411 1.370 1_465 S
C2410 C2414 1.524 . S
C2411 C2403 1.503 1_654 S
C2411 C2410 1.370 1_645 S
C2411 C2412 1.403 . S
C2412 C2411 1.403 . S
C2412 C2413 1.404 . S
C2412 C2415 1.539 . S
C2413 C2409 1.408 1_545 S
C2413 C2412 1.404 . S
C2413 H2425 0.930 . S
C2414 C2410 1.524 . S
C2414 H2426 0.956 . S
C2414 H2427 0.967 . S
C2414 H2428 0.961 . S
C2415 C2412 1.539 . S
C2415 H2429 0.958 . S
C2415 H2430 0.961 . S
C2415 H2431 0.960 1_554 S
H2416 C2400 0.931 . S
H2417 C2405 0.929 . S
H2418 C2406 0.960 . S
H2419 C2406 0.962 . S
H2420 C2406 0.950 1_556 S
H2421 C2407 0.961 . S
H2422 C2407 0.961 . S
H2423 C2407 0.961 . S
H2424 C2408 0.931 1_455 S
H2425 C2413 0.930 . S
H2426 C2414 0.956 . S
H2427 C2414 0.967 . S
H2428 C2414 0.961 . S
H2429 C2415 0.958 . S
H2430 C2415 0.961 . S
H2431 C2415 0.960 1_556 S
C2432 C2433 1.391 . S
C2432 C2434 1.394 . S
C2432 H2448 0.931 . S
C2433 C2432 1.391 . S
C2433 C2437 1.376 . S
C2434 C2432 1.394 . S
C2434 C2435 1.369 . S
C2434 C2438 1.531 . S
C2435 C2434 1.369 . S
C2435 C2436 1.410 . S
C2435 C2443 1.503 . S
C2436 C2435 1.410 . S
C2436 C2437 1.392 . S
C2436 C2439 1.511 . S
C2437 C2433 1.376 . S
C2437 C2436 1.392 . S
C2437 H2449 0.929 . S
C2438 C2434 1.531 . S
C2438 H2450 0.960 . S
C2438 H2451 0.962 . S
C2438 H2452 0.960 . S
C2439 C2436 1.511 . S
C2439 H2453 0.961 . S
C2439 H2454 0.961 . S
C2439 H2455 0.961 . S
C2440 C2441 1.370 . S
C2440 C2442 1.363 . S
C2440 H2456 0.931 . S
C2441 C2440 1.370 . S
C2441 C2445 1.408 . S
C2442 C2440 1.363 . S
C2442 C2443 1.370 . S
C2442 C2446 1.524 . S
C2443 C2435 1.503 . S
C2443 C2442 1.370 . S
C2443 C2444 1.403 . S
C2444 C2443 1.403 . S
C2444 C2445 1.404 . S
C2444 C2447 1.539 . S
C2445 C2441 1.408 . S
C2445 C2444 1.404 . S
C2445 H2457 0.930 . S
C2446 C2442 1.524 . S
C2446 H2458 0.956 . S
C2446 H2459 0.961 . S
C2446 H2460 0.961 . S
C2447 C2444 1.539 . S
C2447 H2461 0.958 . S
C2447 H2462 0.961 . S
C2447 H2463 0.960 . S
H2448 C2432 0.931 . S
H2449 C2437 0.929 . S
H2450 C2438 0.960 . S
H2451 C2438 0.962 . S
H2452 C2438 0.960 . S
H2453 C2439 0.961 . S
H2454 C2439 0.961 . S
H2455 C2439 0.961 . S
H2456 C2440 0.931 . S
H2457 C2445 0.930 . S
H2458 C2446 0.956 . S
H2459 C2446 0.961 . S
H2460 C2446 0.961 . S
H2461 C2447 0.958 . S
H2462 C2447 0.961 . S
H2463 C2447 0.960 . S
C2464 C2465 1.391 . S
C2464 C2466 1.394 . S
C2464 H2480 0.931 . S
C2465 C2464 1.391 . S
C2465 C2469 1.376 . S
C2466 C2464 1.394 . S
C2466 C2467 1.369 . S
C2466 C2470 1.531 . S
C2467 C2466 1.369 . S
C2467 C2468 1.410 . S
C2467 C2475 1.503 . S
C2468 C2467 1.410 . S
C2468 C2469 1.392 . S
C2468 C2471 1.511 . S
C2469 C2465 1.376 . S
C2469 C2468 1.392 . S
C2469 H2481 0.929 . S
C2470 C2466 1.531 . S
C2470 H2482 0.960 . S
C2470 H2483 0.962 . S
C2470 H2484 0.960 . S
C2471 C2468 1.511 . S
C2471 H2485 0.961 . S
C2471 H2486 0.961 . S
C2471 H2487 0.961 . S
C2472 C2473 1.370 . S
C2472 C2474 1.363 . S
C2472 H2488 0.931 . S
C2473 C2472 1.370 . S
C2473 C2477 1.408 . S
C2474 C2472 1.363 . S
C2474 C2475 1.370 . S
C2474 C2478 1.524 . S
C2475 C2467 1.503 . S
C2475 C2474 1.370 . S
C2475 C2476 1.403 . S
C2476 C2475 1.403 . S
C2476 C2477 1.404 . S
C2476 C2479 1.539 . S
C2477 C2473 1.408 . S
C2477 C2476 1.404 . S
C2477 H2489 0.930 . S
C2478 C2474 1.524 . S
C2478 H2490 0.956 . S
C2478 H2491 0.961 . S
C2478 H2492 0.961 . S
C2479 C2476 1.539 . S
C2479 H2493 0.958 . S
C2479 H2494 0.961 . S
C2479 H2495 0.960 . S
H2480 C2464 0.931 . S
H2481 C2469 0.929 . S
H2482 C2470 0.960 . S
H2483 C2470 0.962 . S
H2484 C2470 0.960 . S
H2485 C2471 0.961 . S
H2486 C2471 0.961 . S
H2487 C2471 0.961 . S
H2488 C2472 0.931 . S
H2489 C2477 0.930 . S
H2490 C2478 0.956 . S
H2491 C2478 0.961 . S
H2492 C2478 0.961 . S
H2493 C2479 0.958 . S
H2494 C2479 0.961 . S
H2495 C2479 0.960 . S
C2496 C2497 1.391 . S
C2496 C2498 1.394 . S
C2496 H2512 0.931 . S
C2497 C2496 1.391 . S
C2497 C2501 1.376 . S
C2498 C2496 1.394 . S
C2498 C2499 1.369 . S
C2498 C2502 1.531 . S
C2499 C2498 1.369 . S
C2499 C2500 1.410 . S
C2499 C2507 1.503 . S
C2500 C2499 1.410 . S
C2500 C2501 1.392 . S
C2500 C2503 1.511 . S
C2501 C2497 1.376 . S
C2501 C2500 1.392 . S
C2501 H2513 0.929 . S
C2502 C2498 1.531 . S
C2502 H2514 0.960 . S
C2502 H2515 0.962 . S
C2502 H2516 0.960 . S
C2503 C2500 1.511 . S
C2503 H2517 0.961 . S
C2503 H2518 0.961 . S
C2503 H2519 0.961 . S
C2504 C2505 1.370 . S
C2504 C2506 1.363 . S
C2504 H2520 0.931 . S
C2505 C2504 1.370 . S
C2505 C2509 1.408 . S
C2506 C2504 1.363 . S
C2506 C2507 1.370 . S
C2506 C2510 1.524 . S
C2507 C2499 1.503 . S
C2507 C2506 1.370 . S
C2507 C2508 1.403 . S
C2508 C2507 1.403 . S
C2508 C2509 1.404 . S
C2508 C2511 1.539 . S
C2509 C2505 1.408 . S
C2509 C2508 1.404 . S
C2509 H2521 0.930 . S
C2510 C2506 1.524 . S
C2510 H2522 0.956 . S
C2510 H2523 0.961 . S
C2510 H2524 0.961 . S
C2511 C2508 1.539 . S
C2511 H2525 0.958 . S
C2511 H2526 0.961 . S
C2511 H2527 0.960 . S
H2512 C2496 0.931 . S
H2513 C2501 0.929 . S
H2514 C2502 0.960 . S
H2515 C2502 0.962 . S
H2516 C2502 0.960 . S
H2517 C2503 0.961 . S
H2518 C2503 0.961 . S
H2519 C2503 0.961 . S
H2520 C2504 0.931 . S
H2521 C2509 0.930 . S
H2522 C2510 0.956 . S
H2523 C2510 0.961 . S
H2524 C2510 0.961 . S
H2525 C2511 0.958 . S
H2526 C2511 0.961 . S
H2527 C2511 0.960 . S
C2528 C2529 1.391 . S
C2528 C2530 1.394 . S
C2528 H2544 0.931 . S
C2529 C2528 1.391 . S
C2529 C2533 1.376 . S
C2530 C2528 1.394 . S
C2530 C2531 1.369 . S
C2530 C2534 1.531 . S
C2531 C2530 1.369 . S
C2531 C2532 1.410 . S
C2531 C2539 1.503 . S
C2532 C2531 1.410 . S
C2532 C2533 1.392 . S
C2532 C2535 1.511 . S
C2533 C2529 1.376 . S
C2533 C2532 1.392 . S
C2533 H2545 0.929 . S
C2534 C2530 1.531 . S
C2534 H2546 0.960 . S
C2534 H2547 0.962 . S
C2534 H2548 0.960 . S
C2535 C2532 1.511 . S
C2535 H2549 0.961 . S
C2535 H2550 0.961 . S
C2535 H2551 0.961 . S
C2536 C2537 1.370 . S
C2536 C2538 1.363 . S
C2536 H2552 0.931 . S
C2537 C2536 1.370 . S
C2537 C2541 1.408 . S
C2538 C2536 1.363 . S
C2538 C2539 1.370 . S
C2538 C2542 1.524 . S
C2539 C2531 1.503 . S
C2539 C2538 1.370 . S
C2539 C2540 1.403 . S
C2540 C2539 1.403 . S
C2540 C2541 1.404 . S
C2540 C2543 1.539 . S
C2541 C2537 1.408 . S
C2541 C2540 1.404 . S
C2541 H2553 0.930 . S
C2542 C2538 1.524 . S
C2542 H2554 0.956 . S
C2542 H2555 0.961 . S
C2542 H2556 0.961 . S
C2543 C2540 1.539 . S
C2543 H2557 0.958 . S
C2543 H2558 0.961 . S
C2543 H2559 0.960 . S
H2544 C2528 0.931 . S
H2545 C2533 0.929 . S
H2546 C2534 0.960 . S
H2547 C2534 0.962 . S
H2548 C2534 0.960 . S
H2549 C2535 0.961 . S
H2550 C2535 0.961 . S
H2551 C2535 0.961 . S
H2552 C2536 0.931 . S
H2553 C2541 0.930 . S
H2554 C2542 0.956 . S
H2555 C2542 0.961 . S
H2556 C2542 0.961 . S
H2557 C2543 0.958 . S
H2558 C2543 0.961 . S
H2559 C2543 0.960 . S
C2560 C2561 1.391 . S
C2560 C2562 1.394 . S
C2560 H2576 0.931 . S
C2561 C2560 1.391 . S
C2561 C2565 1.376 . S
C2562 C2560 1.394 . S
C2562 C2563 1.369 . S
C2562 C2566 1.531 . S
C2563 C2562 1.369 . S
C2563 C2564 1.410 . S
C2563 C2571 1.503 1_554 S
C2564 C2563 1.410 . S
C2564 C2565 1.392 . S
C2564 C2567 1.511 1_554 S
C2565 C2561 1.376 . S
C2565 C2564 1.392 . S
C2565 H2577 0.929 . S
C2566 C2562 1.531 . S
C2566 H2578 0.960 . S
C2566 H2579 0.962 . S
C2566 H2580 0.960 . S
C2567 C2564 1.511 1_556 S
C2567 H2581 0.963 . S
C2567 H2582 0.961 . S
C2567 H2583 0.961 . S
C2568 C2569 1.370 . S
C2568 C2570 1.363 . S
C2568 H2584 0.931 . S
C2569 C2568 1.370 . S
C2569 C2573 1.408 . S
C2570 C2568 1.363 . S
C2570 C2571 1.370 . S
C2570 C2574 1.524 . S
C2571 C2563 1.503 1_556 S
C2571 C2570 1.370 . S
C2571 C2572 1.403 . S
C2572 C2571 1.403 . S
C2572 C2573 1.404 . S
C2572 C2575 1.539 . S
C2573 C2569 1.408 . S
C2573 C2572 1.404 . S
C2573 H2585 0.930 . S
C2574 C2570 1.524 . S
C2574 H2586 0.956 . S
C2574 H2587 0.961 . S
C2574 H2588 0.961 . S
C2575 C2572 1.539 . S
C2575 H2589 0.958 . S
C2575 H2590 0.961 . S
C2575 H2591 0.955 . S
H2576 C2560 0.931 . S
H2577 C2565 0.929 . S
H2578 C2566 0.960 . S
H2579 C2566 0.962 . S
H2580 C2566 0.960 . S
H2581 C2567 0.963 . S
H2582 C2567 0.961 . S
H2583 C2567 0.961 . S
H2584 C2568 0.931 . S
H2585 C2573 0.930 . S
H2586 C2574 0.956 . S
H2587 C2574 0.961 . S
H2588 C2574 0.961 . S
H2589 C2575 0.958 . S
H2590 C2575 0.961 . S
H2591 C2575 0.955 . S
C2592 C2593 1.391 . S
C2592 C2594 1.394 . S
C2592 H2608 0.931 . S
C2593 C2592 1.391 . S
C2593 C2597 1.376 1_455 S
C2594 C2592 1.394 . S
C2594 C2595 1.392 . S
C2594 C2598 1.531 . S
C2595 C2594 1.392 . S
C2595 C2596 1.396 1_455 S
C2595 C2603 1.495 1_455 S
C2596 C2595 1.396 1_655 S
C2596 C2597 1.392 . S
C2596 C2599 1.511 . S
C2597 C2593 1.376 1_655 S
C2597 C2596 1.392 . S
C2597 H2609 0.929 . S
C2598 C2594 1.531 . S
C2598 H2610 0.960 . S
C2598 H2611 0.962 . S
C2598 H2612 0.960 . S
C2599 C2596 1.511 . S
C2599 H2613 0.961 . S
C2599 H2614 0.961 . S
C2599 H2615 0.961 . S
C2600 C2601 1.370 . S
C2600 C2602 1.363 1_655 S
C2600 H2616 0.931 1_655 S
C2601 C2600 1.370 . S
C2601 C2605 1.408 . S
C2602 C2600 1.363 1_455 S
C2602 C2603 1.370 1_455 S
C2602 C2606 1.524 . S
C2603 C2595 1.495 1_655 S
C2603 C2602 1.370 1_655 S
C2603 C2604 1.403 . S
C2604 C2603 1.403 . S
C2604 C2605 1.404 . S
C2604 C2607 1.539 . S
C2605 C2601 1.408 . S
C2605 C2604 1.404 . S
C2605 H2617 0.930 . S
C2606 C2602 1.524 . S
C2606 H2618 0.956 . S
C2606 H2619 0.961 . S
C2606 H2620 0.961 . S
C2607 C2604 1.539 . S
C2607 H2621 0.958 . S
C2607 H2622 0.961 . S
C2607 H2623 0.960 . S
H2608 C2592 0.931 . S
H2609 C2597 0.929 . S
H2610 C2598 0.960 . S
H2611 C2598 0.962 . S
H2612 C2598 0.960 . S
H2613 C2599 0.961 . S
H2614 C2599 0.961 . S
H2615 C2599 0.961 . S
H2616 C2600 0.931 1_455 S
H2617 C2605 0.930 . S
H2618 C2606 0.956 . S
H2619 C2606 0.961 . S
H2620 C2606 0.961 . S
H2621 C2607 0.958 . S
H2622 C2607 0.961 . S
H2623 C2607 0.960 . S
C2624 C2625 1.391 . S
C2624 C2626 1.394 1_455 S
C2624 H2640 0.931 1_455 S
C2625 C2624 1.391 . S
C2625 C2629 1.376 . S
C2626 C2624 1.394 1_655 S
C2626 C2627 1.369 1_655 S
C2626 C2630 1.531 . S
C2627 C2626 1.369 1_455 S
C2627 C2628 1.410 . S
C2627 C2635 1.503 1_454 S
C2628 C2627 1.410 . S
C2628 C2629 1.392 . S
C2628 C2631 1.511 . S
C2629 C2625 1.376 . S
C2629 C2628 1.392 . S
C2629 H2641 0.929 . S
C2630 C2626 1.531 . S
C2630 H2642 0.960 . S
C2630 H2643 0.962 . S
C2630 H2644 0.960 . S
C2631 C2628 1.511 . S
C2631 H2645 0.961 . S
C2631 H2646 0.961 1_554 S
C2631 H2647 0.961 1_554 S
C2632 C2633 1.370 . S
C2632 C2634 1.363 . S
C2632 H2648 0.931 . S
C2633 C2632 1.370 . S
C2633 C2637 1.408 . S
C2634 C2632 1.363 . S
C2634 C2635 1.370 . S
C2634 C2638 1.524 1_556 S
C2635 C2627 1.503 1_656 S
C2635 C2634 1.370 . S
C2635 C2636 1.403 1_655 S
C2636 C2635 1.403 1_455 S
C2636 C2637 1.404 1_455 S
C2636 C2639 1.539 . S
C2637 C2633 1.408 . S
C2637 C2636 1.404 1_655 S
C2637 H2649 0.930 1_655 S
C2638 C2634 1.524 1_554 S
C2638 H2650 0.956 . S
C2638 H2651 0.961 . S
C2638 H2652 0.961 1_554 S
C2639 C2636 1.539 . S
C2639 H2653 0.958 . S
C2639 H2654 0.961 . S
C2639 H2655 0.960 . S
H2640 C2624 0.931 1_655 S
H2641 C2629 0.929 . S
H2642 C2630 0.960 . S
H2643 C2630 0.962 . S
H2644 C2630 0.960 . S
H2645 C2631 0.961 . S
H2646 C2631 0.961 1_556 S
H2647 C2631 0.961 1_556 S
H2648 C2632 0.931 . S
H2649 C2637 0.930 1_455 S
H2650 C2638 0.956 . S
H2651 C2638 0.961 . S
H2652 C2638 0.961 1_556 S
H2653 C2639 0.958 . S
H2654 C2639 0.961 . S
H2655 C2639 0.960 . S
C2656 C2657 1.391 . S
C2656 C2658 1.394 . S
C2656 H2672 0.931 . S
C2657 C2656 1.391 . S
C2657 C2661 1.376 . S
C2658 C2656 1.394 . S
C2658 C2659 1.369 . S
C2658 C2662 1.531 . S
C2659 C2658 1.369 . S
C2659 C2660 1.410 . S
C2659 C2667 1.503 . S
C2660 C2659 1.410 . S
C2660 C2661 1.392 . S
C2660 C2663 1.511 . S
C2661 C2657 1.376 . S
C2661 C2660 1.392 . S
C2661 H2673 0.929 . S
C2662 C2658 1.531 . S
C2662 H2674 0.960 . S
C2662 H2675 0.962 . S
C2662 H2676 0.960 . S
C2663 C2660 1.511 . S
C2663 H2677 0.961 . S
C2663 H2678 0.961 . S
C2663 H2679 0.961 . S
C2664 C2665 1.370 . S
C2664 C2666 1.363 . S
C2664 H2680 0.931 . S
C2665 C2664 1.370 . S
C2665 C2669 1.408 . S
C2666 C2664 1.363 . S
C2666 C2667 1.370 . S
C2666 C2670 1.524 . S
C2667 C2659 1.503 . S
C2667 C2666 1.370 . S
C2667 C2668 1.403 . S
C2668 C2667 1.403 . S
C2668 C2669 1.404 . S
C2668 C2671 1.539 . S
C2669 C2665 1.408 . S
C2669 C2668 1.404 . S
C2669 H2681 0.930 . S
C2670 C2666 1.524 . S
C2670 H2682 0.956 . S
C2670 H2683 0.961 . S
C2670 H2684 0.961 . S
C2671 C2668 1.539 . S
C2671 H2685 0.958 . S
C2671 H2686 0.961 . S
C2671 H2687 0.960 . S
H2672 C2656 0.931 . S
H2673 C2661 0.929 . S
H2674 C2662 0.960 . S
H2675 C2662 0.962 . S
H2676 C2662 0.960 . S
H2677 C2663 0.961 . S
H2678 C2663 0.961 . S
H2679 C2663 0.961 . S
H2680 C2664 0.931 . S
H2681 C2669 0.930 . S
H2682 C2670 0.956 . S
H2683 C2670 0.961 . S
H2684 C2670 0.961 . S
H2685 C2671 0.958 . S
H2686 C2671 0.961 . S
H2687 C2671 0.960 . S
C2688 C2689 1.391 . S
C2688 C2690 1.394 . S
C2688 H2704 0.931 . S
C2689 C2688 1.391 . S
C2689 C2693 1.376 . S
C2690 C2688 1.394 . S
C2690 C2691 1.369 . S
C2690 C2694 1.531 . S
C2691 C2690 1.369 . S
C2691 C2692 1.410 . S
C2691 C2699 1.503 . S
C2692 C2691 1.410 . S
C2692 C2693 1.392 . S
C2692 C2695 1.511 . S
C2693 C2689 1.376 . S
C2693 C2692 1.392 . S
C2693 H2705 0.929 . S
C2694 C2690 1.531 . S
C2694 H2706 0.960 . S
C2694 H2707 0.962 . S
C2694 H2708 0.960 . S
C2695 C2692 1.511 . S
C2695 H2709 0.961 . S
C2695 H2710 0.961 . S
C2695 H2711 0.961 . S
C2696 C2697 1.370 . S
C2696 C2698 1.363 . S
C2696 H2712 0.931 . S
C2697 C2696 1.370 . S
C2697 C2701 1.408 . S
C2698 C2696 1.363 . S
C2698 C2699 1.370 . S
C2698 C2702 1.524 . S
C2699 C2691 1.503 . S
C2699 C2698 1.370 . S
C2699 C2700 1.403 . S
C2700 C2699 1.403 . S
C2700 C2701 1.404 . S
C2700 C2703 1.539 . S
C2701 C2697 1.408 . S
C2701 C2700 1.404 . S
C2701 H2713 0.930 . S
C2702 C2698 1.524 . S
C2702 H2714 0.956 . S
C2702 H2715 0.961 . S
C2702 H2716 0.961 . S
C2703 C2700 1.539 . S
C2703 H2717 0.958 . S
C2703 H2718 0.961 . S
C2703 H2719 0.960 . S
H2704 C2688 0.931 . S
H2705 C2693 0.929 . S
H2706 C2694 0.960 . S
H2707 C2694 0.962 . S
H2708 C2694 0.960 . S
H2709 C2695 0.961 . S
H2710 C2695 0.961 . S
H2711 C2695 0.961 . S
H2712 C2696 0.931 . S
H2713 C2701 0.930 . S
H2714 C2702 0.956 . S
H2715 C2702 0.961 . S
H2716 C2702 0.961 . S
H2717 C2703 0.958 . S
H2718 C2703 0.961 . S
H2719 C2703 0.960 . S
C2720 C2721 1.391 . S
C2720 C2722 1.394 . S
C2720 H2736 0.931 . S
C2721 C2720 1.391 . S
C2721 C2725 1.376 . S
C2722 C2720 1.394 . S
C2722 C2723 1.369 . S
C2722 C2726 1.531 . S
C2723 C2722 1.369 . S
C2723 C2724 1.410 . S
C2723 C2731 1.503 . S
C2724 C2723 1.410 . S
C2724 C2725 1.392 . S
C2724 C2727 1.511 . S
C2725 C2721 1.376 . S
C2725 C2724 1.392 . S
C2725 H2737 0.929 . S
C2726 C2722 1.531 . S
C2726 H2738 0.960 . S
C2726 H2739 0.962 . S
C2726 H2740 0.960 . S
C2727 C2724 1.511 . S
C2727 H2741 0.961 . S
C2727 H2742 0.961 . S
C2727 H2743 0.961 . S
C2728 C2729 1.370 . S
C2728 C2730 1.363 . S
C2728 H2744 0.931 . S
C2729 C2728 1.370 . S
C2729 C2733 1.408 . S
C2730 C2728 1.363 . S
C2730 C2731 1.370 . S
C2730 C2734 1.524 . S
C2731 C2723 1.503 . S
C2731 C2730 1.370 . S
C2731 C2732 1.403 . S
C2732 C2731 1.403 . S
C2732 C2733 1.404 . S
C2732 C2735 1.539 . S
C2733 C2729 1.408 . S
C2733 C2732 1.404 . S
C2733 H2745 0.930 . S
C2734 C2730 1.524 . S
C2734 H2746 0.956 . S
C2734 H2747 0.961 . S
C2734 H2748 0.961 . S
C2735 C2732 1.539 . S
C2735 H2749 0.958 . S
C2735 H2750 0.961 . S
C2735 H2751 0.960 . S
H2736 C2720 0.931 . S
H2737 C2725 0.929 . S
H2738 C2726 0.960 . S
H2739 C2726 0.962 . S
H2740 C2726 0.960 . S
H2741 C2727 0.961 . S
H2742 C2727 0.961 . S
H2743 C2727 0.961 . S
H2744 C2728 0.931 . S
H2745 C2733 0.930 . S
H2746 C2734 0.956 . S
H2747 C2734 0.961 . S
H2748 C2734 0.961 . S
H2749 C2735 0.958 . S
H2750 C2735 0.961 . S
H2751 C2735 0.960 . S
C2752 C2753 1.391 . S
C2752 C2754 1.394 . S
C2752 H2768 0.931 . S
C2753 C2752 1.391 . S
C2753 C2757 1.376 . S
C2754 C2752 1.394 . S
C2754 C2755 1.369 . S
C2754 C2758 1.531 . S
C2755 C2754 1.369 . S
C2755 C2756 1.410 . S
C2755 C2763 1.503 . S
C2756 C2755 1.410 . S
C2756 C2757 1.392 . S
C2756 C2759 1.511 . S
C2757 C2753 1.376 . S
C2757 C2756 1.392 . S
C2757 H2769 0.929 . S
C2758 C2754 1.531 . S
C2758 H2770 0.960 . S
C2758 H2771 0.962 . S
C2758 H2772 0.960 . S
C2759 C2756 1.511 . S
C2759 H2773 0.961 . S
C2759 H2774 0.961 . S
C2759 H2775 0.961 . S
C2760 C2761 1.370 . S
C2760 C2762 1.363 . S
C2760 H2776 0.931 . S
C2761 C2760 1.370 . S
C2761 C2765 1.408 . S
C2762 C2760 1.363 . S
C2762 C2763 1.370 . S
C2762 C2766 1.524 . S
C2763 C2755 1.503 . S
C2763 C2762 1.370 . S
C2763 C2764 1.403 . S
C2764 C2763 1.403 . S
C2764 C2765 1.404 . S
C2764 C2767 1.539 . S
C2765 C2761 1.408 . S
C2765 C2764 1.404 . S
C2765 H2777 0.930 . S
C2766 C2762 1.524 . S
C2766 H2778 0.956 . S
C2766 H2779 0.961 . S
C2766 H2780 0.961 . S
C2767 C2764 1.539 . S
C2767 H2781 0.958 . S
C2767 H2782 0.961 . S
C2767 H2783 0.960 . S
H2768 C2752 0.931 . S
H2769 C2757 0.929 . S
H2770 C2758 0.960 . S
H2771 C2758 0.962 . S
H2772 C2758 0.960 . S
H2773 C2759 0.961 . S
H2774 C2759 0.961 . S
H2775 C2759 0.961 . S
H2776 C2760 0.931 . S
H2777 C2765 0.930 . S
H2778 C2766 0.956 . S
H2779 C2766 0.961 . S
H2780 C2766 0.961 . S
H2781 C2767 0.958 . S
H2782 C2767 0.961 . S
H2783 C2767 0.960 . S
C2784 C2785 1.391 . S
C2784 C2786 1.394 . S
C2784 H2800 0.931 . S
C2785 C2784 1.391 . S
C2785 C2789 1.376 . S
C2786 C2784 1.394 . S
C2786 C2787 1.369 . S
C2786 C2790 1.531 . S
C2787 C2786 1.369 . S
C2787 C2788 1.410 . S
C2787 C2795 1.503 . S
C2788 C2787 1.410 . S
C2788 C2789 1.392 . S
C2788 C2791 1.511 . S
C2789 C2785 1.376 . S
C2789 C2788 1.392 . S
C2789 H2801 0.929 . S
C2790 C2786 1.531 . S
C2790 H2802 0.960 . S
C2790 H2803 0.962 . S
C2790 H2804 0.960 . S
C2791 C2788 1.511 . S
C2791 H2805 0.961 . S
C2791 H2806 0.961 . S
C2791 H2807 0.961 . S
C2792 C2793 1.370 . S
C2792 C2794 1.363 . S
C2792 H2808 0.931 . S
C2793 C2792 1.370 . S
C2793 C2797 1.408 . S
C2794 C2792 1.363 . S
C2794 C2795 1.370 . S
C2794 C2798 1.524 . S
C2795 C2787 1.503 . S
C2795 C2794 1.370 . S
C2795 C2796 1.403 . S
C2796 C2795 1.403 . S
C2796 C2797 1.404 . S
C2796 C2799 1.539 . S
C2797 C2793 1.408 . S
C2797 C2796 1.404 . S
C2797 H2809 0.930 . S
C2798 C2794 1.524 . S
C2798 H2810 0.956 . S
C2798 H2811 0.961 . S
C2798 H2812 0.961 . S
C2799 C2796 1.539 . S
C2799 H2813 0.958 . S
C2799 H2814 0.961 . S
C2799 H2815 0.960 . S
H2800 C2784 0.931 . S
H2801 C2789 0.929 . S
H2802 C2790 0.960 . S
H2803 C2790 0.962 . S
H2804 C2790 0.960 . S
H2805 C2791 0.961 . S
H2806 C2791 0.961 . S
H2807 C2791 0.961 . S
H2808 C2792 0.931 . S
H2809 C2797 0.930 . S
H2810 C2798 0.956 . S
H2811 C2798 0.961 . S
H2812 C2798 0.961 . S
H2813 C2799 0.958 . S
H2814 C2799 0.961 . S
H2815 C2799 0.960 . S
C2816 C2817 1.391 . S
C2816 C2818 1.394 . S
C2816 H2832 0.931 . S
C2817 C2816 1.391 . S
C2817 C2821 1.376 . S
C2818 C2816 1.394 . S
C2818 C2819 1.369 . S
C2818 C2822 1.531 . S
C2819 C2818 1.369 . S
C2819 C2820 1.410 . S
C2819 C2827 1.503 . S
C2820 C2819 1.410 . S
C2820 C2821 1.392 . S
C2820 C2823 1.511 . S
C2821 C2817 1.376 . S
C2821 C2820 1.392 . S
C2821 H2833 0.929 . S
C2822 C2818 1.531 . S
C2822 H2834 0.960 . S
C2822 H2835 0.962 . S
C2822 H2836 0.960 . S
C2823 C2820 1.511 . S
C2823 H2837 0.961 . S
C2823 H2838 0.961 . S
C2823 H2839 0.961 . S
C2824 C2825 1.370 . S
C2824 C2826 1.363 . S
C2824 H2840 0.931 . S
C2825 C2824 1.370 . S
C2825 C2829 1.408 . S
C2826 C2824 1.363 . S
C2826 C2827 1.370 . S
C2826 C2830 1.524 . S
C2827 C2819 1.503 . S
C2827 C2826 1.370 . S
C2827 C2828 1.403 . S
C2828 C2827 1.403 . S
C2828 C2829 1.404 . S
C2828 C2831 1.539 . S
C2829 C2825 1.408 . S
C2829 C2828 1.404 . S
C2829 H2841 0.930 . S
C2830 C2826 1.524 . S
C2830 H2842 0.956 . S
C2830 H2843 0.961 . S
C2830 H2844 0.961 . S
C2831 C2828 1.539 . S
C2831 H2845 0.958 . S
C2831 H2846 0.961 . S
C2831 H2847 0.960 . S
H2832 C2816 0.931 . S
H2833 C2821 0.929 . S
H2834 C2822 0.960 . S
H2835 C2822 0.962 . S
H2836 C2822 0.960 . S
H2837 C2823 0.961 . S
H2838 C2823 0.961 . S
H2839 C2823 0.961 . S
H2840 C2824 0.931 . S
H2841 C2829 0.930 . S
H2842 C2830 0.956 . S
H2843 C2830 0.961 . S
H2844 C2830 0.961 . S
H2845 C2831 0.958 . S
H2846 C2831 0.961 . S
H2847 C2831 0.960 . S
C2848 C2849 1.391 . S
C2848 C2850 1.394 . S
C2848 H2864 0.931 . S
C2849 C2848 1.391 . S
C2849 C2853 1.376 . S
C2850 C2848 1.394 . S
C2850 C2851 1.369 . S
C2850 C2854 1.531 . S
C2851 C2850 1.369 . S
C2851 C2852 1.410 . S
C2851 C2859 1.503 . S
C2852 C2851 1.410 . S
C2852 C2853 1.392 . S
C2852 C2855 1.511 . S
C2853 C2849 1.376 . S
C2853 C2852 1.392 . S
C2853 H2865 0.929 . S
C2854 C2850 1.531 . S
C2854 H2866 0.960 . S
C2854 H2867 0.962 . S
C2854 H2868 0.960 . S
C2855 C2852 1.511 . S
C2855 H2869 0.961 . S
C2855 H2870 0.961 . S
C2855 H2871 0.961 . S
C2856 C2857 1.370 . S
C2856 C2858 1.363 . S
C2856 H2872 0.931 . S
C2857 C2856 1.370 . S
C2857 C2861 1.408 . S
C2858 C2856 1.363 . S
C2858 C2859 1.370 . S
C2858 C2862 1.524 . S
C2859 C2851 1.503 . S
C2859 C2858 1.370 . S
C2859 C2860 1.403 . S
C2860 C2859 1.403 . S
C2860 C2861 1.404 . S
C2860 C2863 1.539 . S
C2861 C2857 1.408 . S
C2861 C2860 1.404 . S
C2861 H2873 0.930 . S
C2862 C2858 1.524 . S
C2862 H2874 0.956 . S
C2862 H2875 0.961 . S
C2862 H2876 0.961 . S
C2863 C2860 1.539 . S
C2863 H2877 0.958 . S
C2863 H2878 0.961 . S
C2863 H2879 0.960 . S
H2864 C2848 0.931 . S
H2865 C2853 0.929 . S
H2866 C2854 0.960 . S
H2867 C2854 0.962 . S
H2868 C2854 0.960 . S
H2869 C2855 0.961 . S
H2870 C2855 0.961 . S
H2871 C2855 0.961 . S
H2872 C2856 0.931 . S
H2873 C2861 0.930 . S
H2874 C2862 0.956 . S
H2875 C2862 0.961 . S
H2876 C2862 0.961 . S
H2877 C2863 0.958 . S
H2878 C2863 0.961 . S
H2879 C2863 0.960 . S
C2880 C2881 1.391 . S
C2880 C2882 1.394 . S
C2880 H2896 0.931 . S
C2881 C2880 1.391 . S
C2881 C2885 1.376 . S
C2882 C2880 1.394 . S
C2882 C2883 1.369 . S
C2882 C2886 1.531 . S
C2883 C2882 1.369 . S
C2883 C2884 1.410 . S
C2883 C2891 1.503 . S
C2884 C2883 1.410 . S
C2884 C2885 1.392 . S
C2884 C2887 1.511 . S
C2885 C2881 1.376 . S
C2885 C2884 1.392 . S
C2885 H2897 0.929 . S
C2886 C2882 1.531 . S
C2886 H2898 0.960 . S
C2886 H2899 0.962 . S
C2886 H2900 0.960 . S
C2887 C2884 1.511 . S
C2887 H2901 0.961 . S
C2887 H2902 0.961 . S
C2887 H2903 0.961 . S
C2888 C2889 1.370 . S
C2888 C2890 1.363 . S
C2888 H2904 0.931 . S
C2889 C2888 1.370 . S
C2889 C2893 1.408 . S
C2890 C2888 1.363 . S
C2890 C2891 1.370 . S
C2890 C2894 1.524 . S
C2891 C2883 1.503 . S
C2891 C2890 1.370 . S
C2891 C2892 1.403 . S
C2892 C2891 1.403 . S
C2892 C2893 1.404 . S
C2892 C2895 1.539 . S
C2893 C2889 1.408 . S
C2893 C2892 1.404 . S
C2893 H2905 0.930 . S
C2894 C2890 1.524 . S
C2894 H2906 0.956 . S
C2894 H2907 0.961 . S
C2894 H2908 0.961 . S
C2895 C2892 1.539 . S
C2895 H2909 0.958 . S
C2895 H2910 0.961 . S
C2895 H2911 0.960 . S
H2896 C2880 0.931 . S
H2897 C2885 0.929 . S
H2898 C2886 0.960 . S
H2899 C2886 0.962 . S
H2900 C2886 0.960 . S
H2901 C2887 0.961 . S
H2902 C2887 0.961 . S
H2903 C2887 0.961 . S
H2904 C2888 0.931 . S
H2905 C2893 0.930 . S
H2906 C2894 0.956 . S
H2907 C2894 0.961 . S
H2908 C2894 0.961 . S
H2909 C2895 0.958 . S
H2910 C2895 0.961 . S
H2911 C2895 0.960 . S
C2912 C2913 1.391 . S
C2912 C2914 1.394 . S
C2912 H2928 0.931 . S
C2913 C2912 1.391 . S
C2913 C2917 1.376 . S
C2914 C2912 1.394 . S
C2914 C2915 1.369 . S
C2914 C2918 1.531 . S
C2915 C2914 1.369 . S
C2915 C2916 1.410 . S
C2915 C2923 1.503 . S
C2916 C2915 1.410 . S
C2916 C2917 1.392 . S
C2916 C2919 1.511 . S
C2917 C2913 1.376 . S
C2917 C2916 1.392 . S
C2917 H2929 0.929 . S
C2918 C2914 1.531 . S
C2918 H2930 0.960 . S
C2918 H2931 0.962 . S
C2918 H2932 0.960 . S
C2919 C2916 1.511 . S
C2919 H2933 0.961 . S
C2919 H2934 0.961 . S
C2919 H2935 0.961 . S
C2920 C2921 1.370 . S
C2920 C2922 1.363 . S
C2920 H2936 0.931 . S
C2921 C2920 1.370 . S
C2921 C2925 1.408 . S
C2922 C2920 1.363 . S
C2922 C2923 1.370 . S
C2922 C2926 1.524 . S
C2923 C2915 1.503 . S
C2923 C2922 1.370 . S
C2923 C2924 1.403 . S
C2924 C2923 1.403 . S
C2924 C2925 1.404 . S
C2924 C2927 1.539 . S
C2925 C2921 1.408 . S
C2925 C2924 1.404 . S
C2925 H2937 0.930 . S
C2926 C2922 1.524 . S
C2926 H2938 0.956 . S
C2926 H2939 0.961 . S
C2926 H2940 0.961 . S
C2927 C2924 1.539 . S
C2927 H2941 0.958 . S
C2927 H2942 0.961 . S
C2927 H2943 0.960 . S
H2928 C2912 0.931 . S
H2929 C2917 0.929 . S
H2930 C2918 0.960 . S
H2931 C2918 0.962 . S
H2932 C2918 0.960 . S
H2933 C2919 0.961 . S
H2934 C2919 0.961 . S
H2935 C2919 0.961 . S
H2936 C2920 0.931 . S
H2937 C2925 0.930 . S
H2938 C2926 0.956 . S
H2939 C2926 0.961 . S
H2940 C2926 0.961 . S
H2941 C2927 0.958 . S
H2942 C2927 0.961 . S
H2943 C2927 0.960 . S
C2944 C2945 1.391 . S
C2944 C2946 1.394 . S
C2944 H2960 0.931 . S
C2945 C2944 1.391 . S
C2945 C2949 1.376 . S
C2946 C2944 1.394 . S
C2946 C2947 1.369 . S
C2946 C2950 1.531 . S
C2947 C2946 1.369 . S
C2947 C2948 1.410 . S
C2947 C2955 1.503 . S
C2948 C2947 1.410 . S
C2948 C2949 1.392 . S
C2948 C2951 1.511 . S
C2949 C2945 1.376 . S
C2949 C2948 1.392 . S
C2949 H2961 0.929 . S
C2950 C2946 1.531 . S
C2950 H2962 0.960 . S
C2950 H2963 0.962 . S
C2950 H2964 0.960 . S
C2951 C2948 1.511 . S
C2951 H2965 0.961 . S
C2951 H2966 0.961 . S
C2951 H2967 0.961 . S
C2952 C2953 1.370 . S
C2952 C2954 1.363 . S
C2952 H2968 0.931 . S
C2953 C2952 1.370 . S
C2953 C2957 1.408 . S
C2954 C2952 1.363 . S
C2954 C2955 1.370 . S
C2954 C2958 1.524 . S
C2955 C2947 1.503 . S
C2955 C2954 1.370 . S
C2955 C2956 1.403 . S
C2956 C2955 1.403 . S
C2956 C2957 1.404 . S
C2956 C2959 1.539 . S
C2957 C2953 1.408 . S
C2957 C2956 1.404 . S
C2957 H2969 0.930 . S
C2958 C2954 1.524 . S
C2958 H2970 0.956 . S
C2958 H2971 0.961 . S
C2958 H2972 0.961 . S
C2959 C2956 1.539 . S
C2959 H2973 0.958 . S
C2959 H2974 0.961 . S
C2959 H2975 0.960 . S
H2960 C2944 0.931 . S
H2961 C2949 0.929 . S
H2962 C2950 0.960 . S
H2963 C2950 0.962 . S
H2964 C2950 0.960 . S
H2965 C2951 0.961 . S
H2966 C2951 0.961 . S
H2967 C2951 0.961 . S
H2968 C2952 0.931 . S
H2969 C2957 0.930 . S
H2970 C2958 0.956 . S
H2971 C2958 0.961 . S
H2972 C2958 0.961 . S
H2973 C2959 0.958 . S
H2974 C2959 0.961 . S
H2975 C2959 0.960 . S
C2976 C2977 1.391 . S
C2976 C2978 1.394 . S
C2976 H2992 0.931 . S
C2977 C2976 1.391 . S
C2977 C2981 1.376 . S
C2978 C2976 1.394 . S
C2978 C2979 1.369 . S
C2978 C2982 1.531 . S
C2979 C2978 1.369 . S
C2979 C2980 1.410 . S
C2979 C2987 1.503 . S
C2980 C2979 1.410 . S
C2980 C2981 1.392 . S
C2980 C2983 1.511 . S
C2981 C2977 1.376 . S
C2981 C2980 1.392 . S
C2981 H2993 0.929 . S
C2982 C2978 1.531 . S
C2982 H2994 0.960 . S
C2982 H2995 0.962 . S
C2982 H2996 0.960 . S
C2983 C2980 1.511 . S
C2983 H2997 0.961 . S
C2983 H2998 0.961 . S
C2983 H2999 0.961 . S
C2984 C2985 1.370 . S
C2984 C2986 1.363 . S
C2984 H3000 0.931 . S
C2985 C2984 1.370 . S
C2985 C2989 1.408 . S
C2986 C2984 1.363 . S
C2986 C2987 1.370 . S
C2986 C2990 1.524 . S
C2987 C2979 1.503 . S
C2987 C2986 1.370 . S
C2987 C2988 1.403 . S
C2988 C2987 1.403 . S
C2988 C2989 1.404 . S
C2988 C2991 1.539 . S
C2989 C2985 1.408 . S
C2989 C2988 1.404 . S
C2989 H3001 0.930 . S
C2990 C2986 1.524 . S
C2990 H3002 0.956 . S
C2990 H3003 0.961 . S
C2990 H3004 0.961 . S
C2991 C2988 1.539 . S
C2991 H3005 0.958 . S
C2991 H3006 0.961 . S
C2991 H3007 0.960 . S
H2992 C2976 0.931 . S
H2993 C2981 0.929 . S
H2994 C2982 0.960 . S
H2995 C2982 0.962 . S
H2996 C2982 0.960 . S
H2997 C2983 0.961 . S
H2998 C2983 0.961 . S
H2999 C2983 0.961 . S
H3000 C2984 0.931 . S
H3001 C2989 0.930 . S
H3002 C2990 0.956 . S
H3003 C2990 0.961 . S
H3004 C2990 0.961 . S
H3005 C2991 0.958 . S
H3006 C2991 0.961 . S
H3007 C2991 0.960 . S
C3008 C3009 1.391 . S
C3008 C3010 1.394 . S
C3008 H3024 0.931 . S
C3009 C3008 1.391 . S
C3009 C3013 1.376 . S
C3010 C3008 1.394 . S
C3010 C3011 1.369 . S
C3010 C3014 1.531 . S
C3011 C3010 1.369 . S
C3011 C3012 1.410 . S
C3011 C3019 1.503 . S
C3012 C3011 1.410 . S
C3012 C3013 1.392 . S
C3012 C3015 1.511 . S
C3013 C3009 1.376 . S
C3013 C3012 1.392 . S
C3013 H3025 0.929 . S
C3014 C3010 1.531 . S
C3014 H3026 0.960 . S
C3014 H3027 0.962 . S
C3014 H3028 0.960 . S
C3015 C3012 1.511 . S
C3015 H3029 0.961 . S
C3015 H3030 0.961 . S
C3015 H3031 0.961 . S
C3016 C3017 1.370 . S
C3016 C3018 1.363 . S
C3016 H3032 0.931 . S
C3017 C3016 1.370 . S
C3017 C3021 1.408 . S
C3018 C3016 1.363 . S
C3018 C3019 1.370 . S
C3018 C3022 1.524 . S
C3019 C3011 1.503 . S
C3019 C3018 1.370 . S
C3019 C3020 1.403 . S
C3020 C3019 1.403 . S
C3020 C3021 1.404 . S
C3020 C3023 1.539 . S
C3021 C3017 1.408 . S
C3021 C3020 1.404 . S
C3021 H3033 0.930 . S
C3022 C3018 1.524 . S
C3022 H3034 0.956 . S
C3022 H3035 0.961 . S
C3022 H3036 0.961 . S
C3023 C3020 1.539 . S
C3023 H3037 0.958 . S
C3023 H3038 0.961 . S
C3023 H3039 0.960 . S
H3024 C3008 0.931 . S
H3025 C3013 0.929 . S
H3026 C3014 0.960 . S
H3027 C3014 0.962 . S
H3028 C3014 0.960 . S
H3029 C3015 0.961 . S
H3030 C3015 0.961 . S
H3031 C3015 0.961 . S
H3032 C3016 0.931 . S
H3033 C3021 0.930 . S
H3034 C3022 0.956 . S
H3035 C3022 0.961 . S
H3036 C3022 0.961 . S
H3037 C3023 0.958 . S
H3038 C3023 0.961 . S
H3039 C3023 0.960 . S
C3040 C3041 1.391 . S
C3040 C3042 1.394 . S
C3040 H3056 0.931 . S
C3041 C3040 1.391 . S
C3041 C3045 1.376 . S
C3042 C3040 1.394 . S
C3042 C3043 1.369 . S
C3042 C3046 1.531 . S
C3043 C3042 1.369 . S
C3043 C3044 1.410 . S
C3043 C3051 1.503 . S
C3044 C3043 1.410 . S
C3044 C3045 1.392 . S
C3044 C3047 1.511 . S
C3045 C3041 1.376 . S
C3045 C3044 1.392 . S
C3045 H3057 0.929 . S
C3046 C3042 1.531 . S
C3046 H3058 0.960 . S
C3046 H3059 0.962 . S
C3046 H3060 0.960 . S
C3047 C3044 1.511 . S
C3047 H3061 0.961 . S
C3047 H3062 0.961 . S
C3047 H3063 0.961 . S
C3048 C3049 1.370 . S
C3048 C3050 1.363 . S
C3048 H3064 0.931 . S
C3049 C3048 1.370 . S
C3049 C3053 1.408 . S
C3050 C3048 1.363 . S
C3050 C3051 1.370 . S
C3050 C3054 1.524 . S
C3051 C3043 1.503 . S
C3051 C3050 1.370 . S
C3051 C3052 1.403 . S
C3052 C3051 1.403 . S
C3052 C3053 1.404 . S
C3052 C3055 1.539 . S
C3053 C3049 1.408 . S
C3053 C3052 1.404 . S
C3053 H3065 0.930 . S
C3054 C3050 1.524 . S
C3054 H3066 0.956 . S
C3054 H3067 0.961 . S
C3054 H3068 0.961 . S
C3055 C3052 1.539 . S
C3055 H3069 0.958 . S
C3055 H3070 0.961 . S
C3055 H3071 0.960 . S
H3056 C3040 0.931 . S
H3057 C3045 0.929 . S
H3058 C3046 0.960 . S
H3059 C3046 0.962 . S
H3060 C3046 0.960 . S
H3061 C3047 0.961 . S
H3062 C3047 0.961 . S
H3063 C3047 0.961 . S
H3064 C3048 0.931 . S
H3065 C3053 0.930 . S
H3066 C3054 0.956 . S
H3067 C3054 0.961 . S
H3068 C3054 0.961 . S
H3069 C3055 0.958 . S
H3070 C3055 0.961 . S
H3071 C3055 0.960 . S
C3072 C3073 1.391 . S
C3072 C3074 1.394 . S
C3072 H3088 0.931 . S
C3073 C3072 1.391 . S
C3073 C3077 1.376 . S
C3074 C3072 1.394 . S
C3074 C3075 1.369 . S
C3074 C3078 1.531 . S
C3075 C3074 1.369 . S
C3075 C3076 1.410 . S
C3075 C3083 1.503 . S
C3076 C3075 1.410 . S
C3076 C3077 1.392 . S
C3076 C3079 1.511 . S
C3077 C3073 1.376 . S
C3077 C3076 1.392 . S
C3077 H3089 0.929 . S
C3078 C3074 1.531 . S
C3078 H3090 0.960 . S
C3078 H3091 0.962 . S
C3078 H3092 0.960 . S
C3079 C3076 1.511 . S
C3079 H3093 0.961 . S
C3079 H3094 0.961 . S
C3079 H3095 0.961 . S
C3080 C3081 1.370 . S
C3080 C3082 1.363 . S
C3080 H3096 0.931 . S
C3081 C3080 1.370 . S
C3081 C3085 1.408 . S
C3082 C3080 1.363 . S
C3082 C3083 1.370 . S
C3082 C3086 1.524 . S
C3083 C3075 1.503 . S
C3083 C3082 1.370 . S
C3083 C3084 1.403 . S
C3084 C3083 1.403 . S
C3084 C3085 1.404 . S
C3084 C3087 1.539 . S
C3085 C3081 1.408 . S
C3085 C3084 1.404 . S
C3085 H3097 0.930 . S
C3086 C3082 1.524 . S
C3086 H3098 0.956 . S
C3086 H3099 0.961 . S
C3086 H3100 0.961 . S
C3087 C3084 1.539 . S
C3087 H3101 0.958 . S
C3087 H3102 0.961 . S
C3087 H3103 0.960 . S
H3088 C3072 0.931 . S
H3089 C3077 0.929 . S
H3090 C3078 0.960 . S
H3091 C3078 0.962 . S
H3092 C3078 0.960 . S
H3093 C3079 0.961 . S
H3094 C3079 0.961 . S
H3095 C3079 0.961 . S
H3096 C3080 0.931 . S
H3097 C3085 0.930 . S
H3098 C3086 0.956 . S
H3099 C3086 0.961 . S
H3100 C3086 0.961 . S
H3101 C3087 0.958 . S
H3102 C3087 0.961 . S
H3103 C3087 0.960 . S
C3104 C3105 1.391 . S
C3104 C3106 1.394 . S
C3104 H3120 0.931 . S
C3105 C3104 1.391 . S
C3105 C3109 1.376 . S
C3106 C3104 1.394 . S
C3106 C3107 1.369 . S
C3106 C3110 1.531 . S
C3107 C3106 1.369 . S
C3107 C3108 1.410 . S
C3107 C3115 1.503 . S
C3108 C3107 1.410 . S
C3108 C3109 1.392 . S
C3108 C3111 1.511 . S
C3109 C3105 1.376 . S
C3109 C3108 1.392 . S
C3109 H3121 0.929 . S
C3110 C3106 1.531 . S
C3110 H3122 0.960 . S
C3110 H3123 0.962 . S
C3110 H3124 0.960 . S
C3111 C3108 1.511 . S
C3111 H3125 0.961 . S
C3111 H3126 0.961 . S
C3111 H3127 0.961 . S
C3112 C3113 1.370 . S
C3112 C3114 1.363 . S
C3112 H3128 0.931 . S
C3113 C3112 1.370 . S
C3113 C3117 1.408 . S
C3114 C3112 1.363 . S
C3114 C3115 1.370 . S
C3114 C3118 1.524 . S
C3115 C3107 1.503 . S
C3115 C3114 1.370 . S
C3115 C3116 1.403 . S
C3116 C3115 1.403 . S
C3116 C3117 1.404 . S
C3116 C3119 1.539 . S
C3117 C3113 1.408 . S
C3117 C3116 1.404 . S
C3117 H3129 0.930 . S
C3118 C3114 1.524 . S
C3118 H3130 0.956 . S
C3118 H3131 0.961 . S
C3118 H3132 0.961 . S
C3119 C3116 1.539 . S
C3119 H3133 0.958 . S
C3119 H3134 0.961 . S
C3119 H3135 0.960 . S
H3120 C3104 0.931 . S
H3121 C3109 0.929 . S
H3122 C3110 0.960 . S
H3123 C3110 0.962 . S
H3124 C3110 0.960 . S
H3125 C3111 0.961 . S
H3126 C3111 0.961 . S
H3127 C3111 0.961 . S
H3128 C3112 0.931 . S
H3129 C3117 0.930 . S
H3130 C3118 0.956 . S
H3131 C3118 0.961 . S
H3132 C3118 0.961 . S
H3133 C3119 0.958 . S
H3134 C3119 0.961 . S
H3135 C3119 0.960 . S
C3136 C3137 1.391 . S
C3136 C3138 1.394 . S
C3136 H3152 0.931 . S
C3137 C3136 1.391 . S
C3137 C3141 1.376 . S
C3138 C3136 1.394 . S
C3138 C3139 1.369 . S
C3138 C3142 1.531 . S
C3139 C3138 1.369 . S
C3139 C3140 1.410 . S
C3139 C3147 1.503 . S
C3140 C3139 1.410 . S
C3140 C3141 1.392 . S
C3140 C3143 1.511 . S
C3141 C3137 1.376 . S
C3141 C3140 1.392 . S
C3141 H3153 0.929 . S
C3142 C3138 1.531 . S
C3142 H3154 0.960 . S
C3142 H3155 0.962 . S
C3142 H3156 0.960 . S
C3143 C3140 1.511 . S
C3143 H3157 0.961 . S
C3143 H3158 0.961 . S
C3143 H3159 0.961 . S
C3144 C3145 1.370 . S
C3144 C3146 1.363 . S
C3144 H3160 0.931 . S
C3145 C3144 1.370 . S
C3145 C3149 1.408 . S
C3146 C3144 1.363 . S
C3146 C3147 1.370 . S
C3146 C3150 1.524 . S
C3147 C3139 1.503 . S
C3147 C3146 1.370 . S
C3147 C3148 1.403 . S
C3148 C3147 1.403 . S
C3148 C3149 1.404 . S
C3148 C3151 1.539 . S
C3149 C3145 1.408 . S
C3149 C3148 1.404 . S
C3149 H3161 0.930 . S
C3150 C3146 1.524 . S
C3150 H3162 0.956 . S
C3150 H3163 0.961 . S
C3150 H3164 0.961 . S
C3151 C3148 1.539 . S
C3151 H3165 0.958 . S
C3151 H3166 0.961 . S
C3151 H3167 0.960 . S
H3152 C3136 0.931 . S
H3153 C3141 0.929 . S
H3154 C3142 0.960 . S
H3155 C3142 0.962 . S
H3156 C3142 0.960 . S
H3157 C3143 0.961 . S
H3158 C3143 0.961 . S
H3159 C3143 0.961 . S
H3160 C3144 0.931 . S
H3161 C3149 0.930 . S
H3162 C3150 0.956 . S
H3163 C3150 0.961 . S
H3164 C3150 0.961 . S
H3165 C3151 0.958 . S
H3166 C3151 0.961 . S
H3167 C3151 0.960 . S
C3168 C3169 1.391 . S
C3168 C3170 1.394 . S
C3168 H3184 0.931 . S
C3169 C3168 1.391 . S
C3169 C3173 1.376 . S
C3170 C3168 1.394 . S
C3170 C3171 1.369 . S
C3170 C3174 1.531 . S
C3171 C3170 1.369 . S
C3171 C3172 1.410 . S
C3171 C3179 1.503 . S
C3172 C3171 1.410 . S
C3172 C3173 1.392 . S
C3172 C3175 1.511 . S
C3173 C3169 1.376 . S
C3173 C3172 1.392 . S
C3173 H3185 0.929 . S
C3174 C3170 1.531 . S
C3174 H3186 0.960 . S
C3174 H3187 0.962 . S
C3174 H3188 0.960 . S
C3175 C3172 1.511 . S
C3175 H3189 0.961 . S
C3175 H3190 0.961 . S
C3175 H3191 0.961 . S
C3176 C3177 1.370 . S
C3176 C3178 1.363 . S
C3176 H3192 0.931 . S
C3177 C3176 1.370 . S
C3177 C3181 1.408 . S
C3178 C3176 1.363 . S
C3178 C3179 1.370 . S
C3178 C3182 1.524 . S
C3179 C3171 1.503 . S
C3179 C3178 1.370 . S
C3179 C3180 1.403 . S
C3180 C3179 1.403 . S
C3180 C3181 1.404 . S
C3180 C3183 1.539 . S
C3181 C3177 1.408 . S
C3181 C3180 1.404 . S
C3181 H3193 0.930 . S
C3182 C3178 1.524 . S
C3182 H3194 0.956 . S
C3182 H3195 0.961 . S
C3182 H3196 0.961 . S
C3183 C3180 1.539 . S
C3183 H3197 0.958 . S
C3183 H3198 0.961 . S
C3183 H3199 0.960 . S
H3184 C3168 0.931 . S
H3185 C3173 0.929 . S
H3186 C3174 0.960 . S
H3187 C3174 0.962 . S
H3188 C3174 0.960 . S
H3189 C3175 0.961 . S
H3190 C3175 0.961 . S
H3191 C3175 0.961 . S
H3192 C3176 0.931 . S
H3193 C3181 0.930 . S
H3194 C3182 0.956 . S
H3195 C3182 0.961 . S
H3196 C3182 0.961 . S
H3197 C3183 0.958 . S
H3198 C3183 0.961 . S
H3199 C3183 0.960 . S
C1153 C974 1.340 . S
C1161 C4 1.307 . S
C1185 C40 1.281 . S
C1193 C290 1.332 . S
C1217 C902 1.307 . S
C1225 C76 1.295 . S
C1249 C112 1.312 . S
C1257 C362 1.322 . S
C1281 C148 1.292 . S
C1289 C1046 1.320 . S
C1313 C184 1.328 . S
C1321 C506 1.329 . S
C1345 C220 1.316 . S
C1353 C1118 1.323 . S
C1377 C256 1.311 . S
C1385 C434 1.334 . S
C1409 C686 1.244 . S
C1417 C291 1.259 . S
C1441 C2 1.246 . S
C1449 C327 1.259 . S
C1473 C614 1.278 . S
C1481 C363 1.271 . S
C1505 C399 1.278 . S
C1513 C74 1.269 . S
C1537 C758 1.278 . S
C1545 C435 1.272 . S
C1569 C218 1.260 . S
C1577 C471 1.262 . S
C1601 C507 1.269 . S
C1609 C830 1.270 . S
C1633 C146 1.248 . S
C1641 C543 1.259 . S
C1665 C580 1.322 . S
C1673 C398 1.332 . S
C1697 C616 1.266 . S
C1705 C866 1.323 . S
C1729 C326 1.318 . S
C1737 C652 1.311 . S
C1761 C938 1.340 . S
C1769 C688 1.305 . S
C1793 C470 1.332 . S
C1801 C724 1.291 . S
C1825 C1082 1.320 . S
C1833 C760 1.312 . S
C1857 C542 1.313 . S
C1865 C796 1.288 . S
C1889 C832 1.265 . S
C1897 C1010 1.325 . S
C1921 C110 1.258 . S
C1929 C867 1.268 . S
C1953 C903 1.266 . S
C1961 C578 1.261 . S
C1985 C939 1.273 . S
C1993 C38 1.265 . S
C2017 C975 1.256 . S
C2025 C650 1.265 . S
C2049 C1011 1.277 . S
C2057 C182 1.271 . S
C2081 C1047 1.260 . S
C2089 C794 1.259 . S
C2113 C1083 1.257 . S
C2121 C254 1.266 . S
C2145 C1119 1.275 . S
C2153 C722 1.271 . S
C2177 C878 1.479 . S
C2185 C14 1.429 . S
C2209 C50 1.476 . S
C2217 C338 1.494 . S
C2241 C950 1.500 . S
C2249 C86 1.459 . S
C2273 C122 1.475 . S
C2281 C410 1.497 . S
C2305 C1022 1.464 . S
C2313 C158 1.430 . S
C2337 C194 1.477 . S
C2345 C482 1.494 . S
C2369 C1094 1.506 . S
C2377 C230 1.457 . S
C2401 C266 1.403 . S
C2409 C554 1.481 . S
C2433 C302 1.466 . S
C2441 C590 1.429 . S
C2465 C374 1.506 . S
C2473 C662 1.457 . S
C2497 C446 1.484 . S
C2505 C734 1.430 . S
C2529 C518 1.465 . S
C2537 C806 1.429 . S
C2561 C626 1.474 . S
C2569 C914 1.491 . S
C2593 C986 1.502 . S
C2601 C698 1.441 . S
C2625 C1058 1.469 . S
C2633 C770 1.447 . S
C2657 C842 1.473 . S
C2665 C1130 1.498 . S
C2689 C3 1.484 . S
C2697 C183 1.487 . S
C2721 C39 1.484 . S
C2729 C219 1.487 . S
C2753 C75 1.478 . S
C2761 C255 1.483 . S
C2785 C147 1.476 . S
C2793 C111 1.487 . S
C2817 C292 1.325 . S
C2825 C472 1.342 . S
C2849 C328 1.335 . S
C2857 C508 1.354 . S
C2881 C364 1.323 . S
C2889 C544 1.345 . S
C2913 C400 1.355 . S
C2921 C436 1.345 . S
C2945 C579 1.485 . S
C2953 C759 1.486 . S
C2977 C795 1.477 . S
C2985 C615 1.487 . S
C3009 C651 1.487 . S
C3017 C831 1.484 . S
C3041 C687 1.482 . S
C3049 C723 1.483 . S
C3073 C1048 1.329 . S
C3081 C868 1.341 . S
C3105 C904 1.354 . S
C3113 C1084 1.345 . S
C3137 C1120 1.371 . S
C3145 C940 1.359 . S
C3169 C976 1.358 . S
C3177 C1012 1.361 . S
