# Generated by pormake.
# Topology rkf, (6)-cn, num edge types: 1
# Building blocks:
#     Node 0, Type 0, BuildingBlock: BETFEN_clean_sbu_0, # of connection points: 6
#     Node 1, Type 0, BuildingBlock: BETFEN_clean_sbu_0, # of connection points: 6
#     Node 2, Type 0, BuildingBlock: BETFEN_clean_sbu_0, # of connection points: 6
#     Node 3, Type 0, BuildingBlock: BETFEN_clean_sbu_0, # of connection points: 6
#     Node 4, Type 0, BuildingBlock: BETFEN_clean_sbu_0, # of connection points: 6
#     Node 5, Type 0, BuildingBlock: BETFEN_clean_sbu_0, # of connection points: 6
#     Edge 6, Type (0, 0), BuildingBlock: ZUJKAS_clean_linker_0, # of connection points: 2
#     Edge 7, Type (0, 0), BuildingBlock: ZUJKAS_clean_linker_0, # of connection points: 2
#     Edge 8, Type (0, 0), BuildingBlock: ZUJKAS_clean_linker_0, # of connection points: 2
#     Edge 9, Type (0, 0), BuildingBlock: ZUJKAS_clean_linker_0, # of connection points: 2
#     Edge 10, Type (0, 0), BuildingBlock: ZUJKAS_clean_linker_0, # of connection points: 2
#     Edge 11, Type (0, 0), BuildingBlock: ZUJKAS_clean_linker_0, # of connection points: 2
#     Edge 12, Type (0, 0), BuildingBlock: ZUJKAS_clean_linker_0, # of connection points: 2
#     Edge 13, Type (0, 0), BuildingBlock: ZUJKAS_clean_linker_0, # of connection points: 2
#     Edge 14, Type (0, 0), BuildingBlock: ZUJKAS_clean_linker_0, # of connection points: 2
#     Edge 15, Type (0, 0), BuildingBlock: ZUJKAS_clean_linker_0, # of connection points: 2
#     Edge 16, Type (0, 0), BuildingBlock: ZUJKAS_clean_linker_0, # of connection points: 2
#     Edge 17, Type (0, 0), BuildingBlock: ZUJKAS_clean_linker_0, # of connection points: 2
#     Edge 18, Type (0, 0), BuildingBlock: ZUJKAS_clean_linker_0, # of connection points: 2
#     Edge 19, Type (0, 0), BuildingBlock: ZUJKAS_clean_linker_0, # of connection points: 2
#     Edge 20, Type (0, 0), BuildingBlock: ZUJKAS_clean_linker_0, # of connection points: 2
#     Edge 21, Type (0, 0), BuildingBlock: ZUJKAS_clean_linker_0, # of connection points: 2
#     Edge 22, Type (0, 0), BuildingBlock: ZUJKAS_clean_linker_0, # of connection points: 2
#     Edge 23, Type (0, 0), BuildingBlock: ZUJKAS_clean_linker_0, # of connection points: 2
# Relax obj value: 0.543
# Max RMSD: 0.248
# Mean RMSD: 0.248
data_MOF--net-rkf--node1-BETFEN_clean_sbu_0--edge1-ZUJKAS_clean_linker_0
_symmetry_space_group_name_H-M    P1
_symmetry_Int_Tables_number       1
_symmetry_cell_setting            triclinic
loop_
_symmetry_equiv_pos_as_xyz
'x, y, z'
_cell_length_a     32.25782
_cell_length_b     32.29534
_cell_length_c     58.82863
_cell_angle_alpha  89.960009
_cell_angle_beta   90.299536
_cell_angle_gamma 119.78847
loop_
_atom_site_label
_atom_site_type_symbol
_atom_site_fract_x
_atom_site_fract_y
_atom_site_fract_z
_atom_type_partial_charge
Pr0 Pr 0.26758 0.09055 0.10742 0.0
Pr1 Pr 0.32968 0.18857 1.09476 0.0
C2 C 0.22869 -0.00413 0.11384 0.0
C3 C 0.22685 0.96239 0.13109 0.0
C4 C 0.25259 0.97893 0.15148 0.0
C5 C 0.24789 0.94657 0.16843 0.0
C6 C 0.21728 0.89729 0.16519 0.0
C7 C 0.19309 0.88097 0.14431 0.0
C8 C 0.19785 0.91334 0.1274 0.0
C9 C 0.21604 0.13379 1.09068 0.0
C10 C 0.29089 0.1644 0.1497 0.0
C11 C 0.37591 0.28392 1.08852 0.0
C12 C 0.38663 0.31932 1.07071 0.0
C13 C 0.41091 0.36794 1.07628 0.0
C14 C 0.41987 0.4021 1.05956 0.0
C15 C 0.40471 0.38793 1.03705 0.0
C16 C 0.38091 0.33899 1.03156 0.0
C17 C 0.37194 0.30494 1.04827 0.0
C18 C 0.38109 0.14237 0.10422 0.0
C19 C 0.29235 0.11207 1.05131 0.0
O20 O 0.27002 0.02213 0.1041 0.0
O21 O 0.20661 0.01943 0.11873 0.0
O22 O 0.25418 0.13846 1.08294 0.0
O23 O 0.20344 0.10638 0.10848 0.0
O24 O 0.3072 0.19611 0.13297 0.0
O25 O 0.27776 0.11956 0.14507 0.0
O26 O 0.33126 0.25935 1.09476 0.0
O27 O 0.39654 0.25806 1.08675 0.0
O28 O 0.34729 0.13897 0.11652 0.0
O29 O 0.38841 0.16967 1.08681 0.0
O30 O 0.27885 0.0805 1.06803 0.0
O31 O 0.30991 0.15789 1.05659 0.0
H32 H 0.27524 0.01684 0.15451 0.0
H33 H 0.26648 0.96026 0.18444 0.0
H34 H 0.16964 0.84321 0.14127 0.0
H35 H 0.17804 0.90012 0.11163 0.0
H36 H 0.42248 0.37943 1.0936 0.0
H37 H 0.43841 0.43949 1.06425 0.0
H38 H 0.3679 0.32685 1.01447 0.0
H39 H 0.35293 0.26742 1.04378 0.0
Pr40 Pr 0.24693 0.27427 0.44199 0.0
Pr41 Pr 0.20228 0.33102 0.42988 0.0
C42 C 0.31066 0.24438 0.44797 0.0
C43 C 0.34594 0.24922 0.46504 0.0
C44 C 0.36449 0.2182 0.46456 0.0
C45 C 0.3952 0.21993 0.48181 0.0
C46 C 0.40774 0.25275 0.49981 0.0
C47 C 0.39065 0.28525 0.49961 0.0
C48 C 0.35981 0.28335 0.4824 0.0
C49 C 0.15223 0.21715 0.42668 0.0
C50 C 0.19384 0.29318 0.48481 0.0
C51 C 0.14775 0.37213 0.42429 0.0
C52 C 0.13147 0.39295 0.40673 0.0
C53 C 0.0911 0.39739 0.41073 0.0
C54 C 0.07379 0.4153 0.39383 0.0
C55 C 0.09681 0.42917 0.37271 0.0
C56 C 0.13824 0.42602 0.36906 0.0
C57 C 0.15537 0.40788 0.38593 0.0
C58 C 0.29982 0.38688 0.43753 0.0
C59 C 0.2439 0.29782 0.38561 0.0
O60 O 0.32023 0.28328 0.43693 0.0
O61 O 0.26585 0.2191 0.45396 0.0
O62 O 0.1829 0.25651 0.41875 0.0
O63 O 0.17017 0.20612 0.44397 0.0
O64 O 0.17441 0.30591 0.4682 0.0
O65 O 0.22842 0.28409 0.4798 0.0
O66 O 0.13058 0.32598 0.42336 0.0
O67 O 0.19315 0.39587 0.42945 0.0
O68 O 0.27177 0.35276 0.45027 0.0
O69 O 0.27758 0.39248 0.42041 0.0
O70 O 0.26276 0.28373 0.40191 0.0
O71 O 0.21584 0.31548 0.39141 0.0
H72 H 0.35402 0.19166 0.45123 0.0
H73 H 0.40709 0.19392 0.48164 0.0
H74 H 0.39999 0.31117 0.51315 0.0
H75 H 0.34575 0.30761 0.48296 0.0
H76 H 0.07246 0.38619 0.42679 0.0
H77 H 0.04186 0.41739 0.39709 0.0
H78 H 0.15619 0.43556 0.35279 0.0
H79 H 0.1866 0.40456 0.38259 0.0
Pr80 Pr 0.05851 0.25533 0.78025 0.0
Pr81 Pr 0.95929 0.23072 0.76928 0.0
C82 C 0.15036 0.29839 0.79398 0.0
C83 C 0.18178 0.33267 0.81106 0.0
C84 C 0.16308 0.34275 0.83038 0.0
C85 C 0.19371 0.37695 0.84604 0.0
C86 C 0.24342 0.4017 0.8425 0.0
C87 C 0.2617 0.39202 0.82282 0.0
C88 C 0.23107 0.35775 0.80724 0.0
C89 C 0.00588 0.16415 0.76182 0.0
C90 C -0.02096 0.21109 0.82303 0.0
C91 C 0.86859 0.19965 0.75557 0.0
C92 C 0.83503 0.17237 0.73736 0.0
C93 C 0.7859 0.14932 0.7417 0.0
C94 C 0.75322 0.12028 0.72514 0.0
C95 C 0.76935 0.11407 0.70397 0.0
C96 C 0.81874 0.13796 0.69958 0.0
C97 C 0.85138 0.16681 0.71619 0.0
C98 C 0.01293 0.32221 0.78805 0.0
C99 C 0.03715 0.25548 0.72509 0.0
O100 O 0.13433 0.31591 0.77848 0.0
O101 O 0.11816 0.25604 0.80107 0.0
O102 O -0.0103 0.18183 0.77585 0.0
O103 O 0.05132 0.1915 0.75866 0.0
O104 O 0.94606 0.19967 0.80699 0.0
O105 O 0.02486 0.23734 0.81764 0.0
O106 O 0.88091 0.17537 0.76901 0.0
O107 O 0.9042 0.24168 0.75038 0.0
O108 O 0.02755 0.30476 0.77298 0.0
O109 O 0.96977 0.29172 0.79403 0.0
O110 O 0.07077 0.26806 0.74076 0.0
O111 O -0.00796 0.23894 0.73142 0.0
H112 H 0.12492 0.32408 0.83337 0.0
H113 H 0.17857 0.38305 0.86119 0.0
H114 H 0.29971 0.41083 0.81949 0.0
H115 H 0.24588 0.35088 0.79216 0.0
H116 H 0.77286 0.15317 0.75805 0.0
H117 H 0.71541 0.10247 0.72891 0.0
H118 H 0.83224 0.13317 0.68356 0.0
H119 H 0.88929 0.18401 0.71268 0.0
Pr120 Pr 0.85365 0.05835 0.11482 0.0
Pr121 Pr 0.78274 0.95877 0.10253 0.0
C122 C 0.90062 0.14964 0.12911 0.0
C123 C 0.90219 0.18343 0.14631 0.0
C124 C 0.90776 0.17748 0.16953 0.0
C125 C 0.91272 0.21224 0.18515 0.0
C126 C 0.91206 0.25346 0.17783 0.0
C127 C 0.90494 0.25844 0.15465 0.0
C128 C 0.90019 0.22381 0.13905 0.0
C129 C 0.89569 0.00699 0.09807 0.0
C130 C 0.81949 0.97728 0.15646 0.0
C131 C 0.72695 0.86873 1.08739 0.0
C132 C 0.72701 0.83599 1.07019 0.0
C133 C 0.70739 0.78756 1.07558 0.0
C134 C 0.70977 0.75613 1.06007 0.0
C135 C 0.73164 0.77274 1.03889 0.0
C136 C 0.75075 0.82127 1.03343 0.0
C137 C 0.74858 0.85271 1.04899 0.0
C138 C 0.74049 0.00894 0.12084 0.0
C139 C 0.83745 0.03926 1.05957 0.0
O140 O 0.86489 0.13304 0.11474 0.0
O141 O 0.91316 0.11826 0.13502 0.0
O142 O 0.86088 -0.00927 0.11136 0.0
O143 O 0.91238 0.05207 1.09426 0.0
O144 O 0.80268 0.94535 0.1398 0.0
O145 O 0.83451 0.02276 0.15176 0.0
O146 O 0.75815 0.87999 0.10377 0.0
O147 O 0.72273 0.90483 1.08027 0.0
O148 O 0.77344 0.02525 0.10625 0.0
O149 O 0.72889 0.96579 0.12641 0.0
O150 O 0.85309 0.07237 1.07553 0.0
O151 O 0.81264 -0.0065 1.06547 0.0
H152 H 0.90937 0.14661 0.17558 0.0
H153 H 0.91889 0.20764 0.20285 0.0
H154 H 0.90373 0.28945 0.1485 0.0
H155 H 0.89586 0.22904 0.12118 0.0
H156 H 0.69084 0.77421 1.09195 0.0
H157 H 0.69463 0.7189 1.06464 0.0
H158 H 0.76855 0.83519 1.01737 0.0
H159 H 0.76441 0.8901 1.04461 0.0
Pr160 Pr 0.85967 0.85294 0.44605 0.0
Pr161 Pr 0.88333 0.77722 0.43399 0.0
C162 C 0.81796 0.90234 0.46063 0.0
C163 C 0.78664 0.90167 0.47868 0.0
C164 C 0.7819 0.87747 0.49913 0.0
C165 C 0.75117 0.87682 0.51596 0.0
C166 C 0.72462 0.90016 0.51247 0.0
C167 C 0.72865 0.92318 0.49164 0.0
C168 C 0.75946 0.92393 0.4749 0.0
C169 C 0.95107 0.88918 0.42827 0.0
C170 C 0.90375 0.81493 0.48792 0.0
C171 C 0.91511 0.71948 0.4185 0.0
C172 C 0.94012 0.71479 0.39883 0.0
C173 C 0.9679 0.69281 0.40155 0.0
C174 C -0.00506 0.69115 0.38349 0.0
C175 C -0.00562 0.71133 0.36241 0.0
C176 C 0.96577 0.73264 0.35966 0.0
C177 C 0.93896 0.73452 0.37777 0.0
C178 C 0.79264 0.74055 0.45299 0.0
C179 C 0.85828 0.83379 0.39102 0.0
O180 O 0.79805 0.86721 0.44606 0.0
O181 O 0.8616 0.91344 0.46632 0.0
O182 O 0.93197 0.85517 0.44204 0.0
O183 O 0.92473 0.90856 0.4247 0.0
O184 O 0.91388 0.79259 0.47185 0.0
O185 O 0.87849 0.83592 0.48286 0.0
O186 O 0.94046 0.75641 0.43153 0.0
O187 O 0.87149 0.71109 0.41517 0.0
O188 O 0.81005 0.77304 0.43813 0.0
O189 O 0.82256 0.72642 0.45847 0.0
O190 O 0.84618 0.85434 0.40698 0.0
O191 O 0.87449 0.80444 0.39677 0.0
H192 H 0.80225 0.85954 0.50215 0.0
H193 H 0.74936 0.85936 0.53194 0.0
H194 H 0.70829 0.94099 0.48836 0.0
H195 H 0.7622 0.94206 0.45899 0.0
H196 H 0.96933 0.67769 0.41779 0.0
H197 H 0.01655 0.67441 0.38603 0.0
H198 H 0.96531 0.74923 0.34372 0.0
H199 H 0.91813 0.75216 0.37546 0.0
Pr200 Pr 0.07396 0.86298 0.77607 0.0
Pr201 Pr 0.17583 0.90601 0.76404 0.0
C202 C -0.01561 0.80852 0.79153 0.0
C203 C 0.95848 0.77903 0.81101 0.0
C204 C -0.01815 0.78254 0.83167 0.0
C205 C 0.9562 0.75413 0.85007 0.0
C206 C 0.90691 0.72176 0.84799 0.0
C207 C 0.88415 0.71749 0.82698 0.0
C208 C 0.90979 0.74596 0.80864 0.0
C209 C 0.1074 0.9497 0.75381 0.0
C210 C 0.15507 0.92291 0.8173 0.0
C211 C 0.26624 0.94931 0.74845 0.0
C212 C 0.29452 0.97422 0.72851 0.0
C213 C 0.34125 -0.01762 0.72667 0.0
C214 C 0.36916 0.00681 0.70796 0.0
C215 C 0.35063 0.02341 0.6908 0.0
C216 C 0.30349 0.01485 0.69272 0.0
C217 C 0.27559 -0.00969 0.71142 0.0
C218 C 0.13793 0.81522 0.78368 0.0
C219 C 0.09361 0.86056 0.7214 0.0
O220 O 0.00626 0.79203 0.77898 0.0
O221 O 0.00914 0.85472 0.79476 0.0
O222 O 0.13095 0.94217 0.76885 0.0
O223 O 0.06441 0.91414 0.75156 0.0
O224 O 0.18667 0.94047 0.80069 0.0
O225 O 0.11097 0.88822 0.81277 0.0
O226 O 0.24856 0.97135 0.76007 0.0
O227 O 0.23655 0.90368 0.7461 0.0
O228 O 0.11795 0.82689 0.76854 0.0
O229 O 0.17868 0.85131 0.7895 0.0
O230 O 0.0616 0.8399 0.73758 0.0
O231 O 0.13905 0.88999 0.72696 0.0
H232 H 0.01966 0.80765 0.83363 0.0
H233 H 0.97459 0.75871 0.86612 0.0
H234 H 0.84638 0.69255 0.8248 0.0
H235 H 0.89149 0.74243 0.79265 0.0
H236 H 0.35619 0.96994 0.73976 0.0
H237 H 0.40507 0.01236 0.70683 0.0
H238 H 0.28839 0.0278 0.67998 0.0
H239 H 0.23947 -0.01577 0.71265 0.0
H240 H 0.84455 0.94075 1.06506 0.0
H241 H 0.88385 0.93485 1.03077 0.0
H242 H 0.01692 -0.00594 1.06803 0.0
H243 H -0.0204 0.00816 0.10044 0.0
H244 H 0.95248 0.03533 1.0222 0.0
H245 H 0.04633 0.93543 1.01168 0.0
H246 H -0.01634 0.90724 1.01932 0.0
H247 H 0.02956 0.93147 1.04098 0.0
C248 C 0.88206 0.95201 1.06588 0.0
C249 C 0.91005 0.97811 1.08461 0.0
C250 C 0.90415 0.94718 1.04645 0.0
C251 C 0.95369 0.96549 1.04651 0.0
C252 C -0.02127 0.98042 1.06733 0.0
H253 H 0.12303 0.10916 0.09895 0.0
H254 H 0.06023 0.08389 1.07013 0.0
C255 C 0.95751 -0.01134 1.086 0.0
C256 C -0.0182 -0.01155 1.02589 0.0
H257 H 0.09932 0.02318 1.02358 0.0
C258 C -0.01546 0.03245 1.02112 0.0
C259 C 0.02265 -0.01563 1.02194 0.0
C260 C 0.02016 0.93672 1.02344 0.0
C261 C 0.029 0.07444 1.02234 0.0
C262 C 0.0702 0.07054 1.02577 0.0
C263 C 0.06736 0.02616 1.02212 0.0
C264 C 0.10824 0.10343 1.04144 0.0
C265 C 0.03092 0.12187 1.02399 0.0
C266 C 0.15606 0.12598 1.03483 0.0
C267 C 0.19204 0.14203 1.05132 0.0
C268 C 0.18047 0.13347 1.07461 0.0
C269 C 0.13295 0.11569 1.0812 0.0
C270 C 0.09711 0.10135 1.06468 0.0
H271 H 0.00164 0.12178 1.01392 0.0
H272 H 0.02633 0.12887 1.04201 0.0
H273 H 0.06587 0.15116 1.01801 0.0
H274 H 0.16534 0.12766 1.01704 0.0
H275 H 0.22851 0.15668 1.04564 0.0
H276 H 0.95922 0.84067 0.39198 0.0
H277 H 0.00952 0.88245 0.35959 0.0
H278 H 0.0927 0.00514 0.40247 0.0
H279 H 0.03855 0.96574 0.43365 0.0
H280 H -0.01169 0.9565 0.35389 0.0
H281 H 0.18184 0.04053 0.34782 0.0
H282 H 0.1441 0.97747 0.35385 0.0
H283 H 0.16609 0.02082 0.3766 0.0
C284 C -0.01105 0.87608 0.39458 0.0
C285 C -0.00641 0.90127 0.41478 0.0
C286 C 0.01856 0.89948 0.37613 0.0
C287 C 0.054 0.94751 0.37828 0.0
C288 C 0.06519 0.96825 0.40014 0.0
H289 H 0.0912 0.12242 0.43499 0.0
H290 H 0.05692 0.05973 0.40605 0.0
C291 C 0.03406 0.94587 0.41811 0.0
C292 C 0.06322 0.98061 0.35912 0.0
H293 H 0.15055 0.09625 0.3611 0.0
C294 C 0.02413 -0.01286 0.35408 0.0
C295 C 0.10954 0.02012 0.35696 0.0
C296 C 0.15277 0.01413 0.35878 0.0
C297 C 0.02921 0.03263 0.35637 0.0
C298 C 0.07484 0.07135 0.36132 0.0
C299 C 0.1151 0.06595 0.35837 0.0
C300 C 0.08019 0.10845 0.37751 0.0
C301 C -0.01467 0.0377 0.35746 0.0
C302 C 0.1015 0.15619 0.37096 0.0
C303 C 0.11943 0.19194 0.38751 0.0
C304 C 0.11846 0.18034 0.41074 0.0
C305 C 0.09286 0.13239 0.41729 0.0
C306 C 0.07338 0.09666 0.40074 0.0
H307 H 0.95623 0.01054 0.3466 0.0
H308 H 0.97238 0.03216 0.37526 0.0
H309 H -0.00647 0.07395 0.35206 0.0
H310 H 0.10718 0.16587 0.35314 0.0
H311 H 0.13813 0.22867 0.38188 0.0
H312 H 0.14439 0.96208 0.71132 0.0
H313 H 0.12961 0.00624 0.68197 0.0
H314 H 0.09409 0.07766 0.73379 0.0
H315 H 0.10545 0.03065 0.76299 0.0
H316 H 0.03044 0.97844 0.68547 0.0
H317 H 0.13709 0.17336 0.67924 0.0
H318 H 0.16368 0.13613 0.68436 0.0
H319 H 0.14106 0.15531 0.70765 0.0
C320 C 0.1355 -0.0114 0.71655 0.0
C321 C 0.12502 -0.00782 0.73938 0.0
C322 C 0.12761 0.01434 0.69967 0.0
C323 C 0.11054 0.04508 0.70561 0.0
C324 C 0.10787 0.05453 0.72877 0.0
H325 H 0.94779 0.15431 0.72565 0.0
H326 H 0.94902 0.11184 0.6916 0.0
C327 C 0.11442 0.02769 0.74557 0.0
C328 C 0.08039 0.05373 0.68949 0.0
H329 H 0.05033 0.14031 0.68878 0.0
C330 C 0.03515 0.01411 0.68494 0.0
C331 C 0.0865 0.09988 0.68724 0.0
C332 C 0.135 0.14361 0.68961 0.0
C333 C -0.00552 0.01925 0.6853 0.0
C334 C 0.00044 0.06463 0.69003 0.0
C335 C 0.04576 0.10489 0.68666 0.0
C336 C 0.97392 0.06953 0.70927 0.0
C337 C 0.94579 0.97545 0.68579 0.0
C338 C -0.01657 0.05694 0.73081 0.0
C339 C -0.01349 0.08395 0.74984 0.0
C340 C -0.02258 0.1218 0.74772 0.0
C341 C 0.95721 0.1268 0.72741 0.0
C342 C 0.95681 0.10174 0.70796 0.0
H343 H 0.94396 0.94822 0.67366 0.0
H344 H 0.939 0.95968 0.70308 0.0
H345 H 0.91749 -0.01569 0.68155 0.0
H346 H -0.00326 0.03214 0.73233 0.0
H347 H 0.00205 0.07934 0.76535 0.0
H348 H 0.39062 0.46454 1.0414 0.0
H349 H 0.38453 0.5122 1.01054 0.0
H350 H 0.42377 0.4373 0.96226 0.0
H351 H 0.43198 0.39123 0.993 0.0
H352 H 0.45572 0.5337 0.95002 0.0
H353 H 0.26255 0.43461 0.97341 0.0
H354 H 0.30512 0.47372 0.99412 0.0
H355 H 0.3045 0.41979 0.98603 0.0
C356 C 0.39959 0.45945 1.02431 0.0
C357 C 0.4106 0.42332 1.01949 0.0
C358 C 0.39584 0.48654 1.0067 0.0
C359 C 0.40259 0.47744 0.98411 0.0
C360 C 0.41815 0.44471 0.97959 0.0
H361 H 0.32643 0.4085 0.85762 0.0
H362 H 0.3729 0.45128 0.89075 0.0
C363 C 0.42222 0.41795 0.99712 0.0
C364 C 0.38568 0.49457 0.96483 0.0
H365 H 0.28165 0.46286 0.93663 0.0
C366 C 0.41777 0.51964 0.94728 0.0
C367 C 0.3362 0.47689 0.96141 0.0
C368 C 0.29988 0.44961 0.97963 0.0
C369 C 0.40119 0.52289 0.92562 0.0
C370 C 0.35144 0.49974 0.92148 0.0
C371 C 0.31982 0.4802 0.93977 0.0
C372 C 0.33107 0.48522 0.89832 0.0
C373 C 0.43702 0.54835 0.90707 0.0
C374 C 0.29208 0.49015 0.89129 0.0
C375 C 0.26488 0.46505 0.87233 0.0
C376 C 0.27621 0.43453 0.86016 0.0
C377 C 0.3171 0.43219 0.86638 0.0
C378 C 0.34409 0.4571 0.8853 0.0
H379 H 0.46925 0.58003 0.91402 0.0
H380 H 0.44872 0.52405 0.89991 0.0
H381 H 0.42175 0.56 0.89316 0.0
H382 H 0.2811 0.51126 0.90122 0.0
H383 H 0.23393 0.46807 0.86773 0.0
H384 H 0.14041 0.50195 0.34193 0.0
H385 H 0.10686 0.50878 0.30559 0.0
H386 H 0.97078 0.3881 0.32369 0.0
H387 H 0.0036 0.382 0.35987 0.0
H388 H 0.08304 0.44085 0.27694 0.0
H389 H 0.924 0.45905 0.28657 0.0
H390 H 0.96723 0.47455 0.30927 0.0
H391 H 0.91878 0.41402 0.30595 0.0
C392 C 0.10289 0.47803 0.33839 0.0
C393 C 0.07471 0.44112 0.35357 0.0
C394 C 0.08368 0.48216 0.31773 0.0
C395 C 0.03614 0.44922 0.31189 0.0
C396 C 0.00706 0.41491 0.32793 0.0
H397 H 0.88008 0.24583 0.22146 0.0
H398 H 0.90973 0.30872 0.25023 0.0
C399 C 0.02606 0.41113 0.34864 0.0
C400 C 0.02022 0.44257 0.28783 0.0
H401 H 0.91865 0.40256 0.25603 0.0
C402 C 0.04784 0.43436 0.27204 0.0
C403 C 0.97445 0.43433 0.28133 0.0
C404 C 0.94481 0.44654 0.2967 0.0
C405 C 0.02876 0.41258 0.25108 0.0
C406 C -0.01902 0.39941 0.24566 0.0
C407 C 0.95508 0.4122 0.26038 0.0
C408 C 0.95542 0.36511 0.22714 0.0
C409 C 0.05828 0.39954 0.23595 0.0
C410 C 0.96984 0.37645 0.20448 0.0
C411 C 0.95366 0.34039 0.18808 0.0
C412 C 0.92247 0.29255 0.19411 0.0
C413 C 0.90493 0.28213 0.21642 0.0
C414 C 0.92134 0.31813 0.2328 0.0
H415 H 0.09279 0.40769 0.24396 0.0
H416 H 0.03821 0.36093 0.2317 0.0
H417 H 0.06619 0.41987 0.21983 0.0
H418 H -0.00417 0.41264 0.19979 0.0
H419 H 0.96797 0.34966 0.17106 0.0
H420 H 0.69393 0.02434 0.71089 0.0
H421 H 0.64575 0.96549 0.68172 0.0
H422 H 0.72081 0.06977 0.6295 0.0
H423 H 0.76815 0.1289 0.65846 0.0
H424 H 0.61809 0.00463 0.62089 0.0
H425 H 0.72072 0.91382 0.6453 0.0
H426 H 0.68652 0.9235 0.66655 0.0
H427 H 0.739 0.9734 0.65506 0.0
C428 C 0.69916 0.03505 0.69321 0.0
C429 C 0.73528 0.08093 0.68686 0.0
C430 C 0.67173 0.00138 0.67661 0.0
C431 C 0.68019 0.01326 0.65353 0.0
C432 C 0.71378 0.06001 0.64727 0.0
H433 H 0.72085 0.97912 0.52513 0.0
H434 H 0.68663 -0.00942 0.55947 0.0
C435 C 0.74115 0.09357 0.66378 0.0
C436 C 0.66011 0.97636 0.63564 0.0
H437 H 0.68644 0.89856 0.60928 0.0
C438 C 0.63166 0.98019 0.61858 0.0
C439 C 0.67716 0.94392 0.6329 0.0
C440 C 0.70764 0.93819 0.65082 0.0
C441 C 0.62388 0.95593 0.59786 0.0
C442 C 0.64621 0.92838 0.59404 0.0
C443 C 0.66969 0.92006 0.61212 0.0
C444 C 0.65546 0.9173 0.57083 0.0
C445 C 0.59425 0.96237 0.5798 0.0
C446 C 0.6493 0.87216 0.56556 0.0
C447 C 0.66957 0.86564 0.54589 0.0
C448 C 0.69635 0.90421 0.53123 0.0
C449 C 0.69983 0.94849 0.53585 0.0
C450 C 0.67982 0.955 0.55548 0.0
H451 H 0.56401 0.96439 0.58761 0.0
H452 H 0.61662 -0.00344 0.5708 0.0
H453 H 0.57985 0.9328 0.56721 0.0
H454 H 0.63106 0.8427 0.57728 0.0
H455 H 0.66584 0.83095 0.5426 0.0
H456 H 0.76018 0.70763 1.04812 0.0
H457 H 0.77858 0.66222 1.02049 0.0
H458 H 0.73343 0.72028 0.96591 0.0
H459 H 0.71426 0.76494 0.99334 0.0
H460 H 0.70787 0.61828 0.96126 0.0
H461 H 0.89985 0.74498 0.98106 0.0
H462 H 0.85997 0.71131 1.00371 0.0
H463 H 0.85369 0.75744 0.98989 0.0
C464 C 0.75305 0.70968 1.03027 0.0
C465 C 0.73645 0.74028 1.02278 0.0
C466 C 0.76367 0.68386 1.01456 0.0
C467 C 0.75767 0.68832 0.99124 0.0
C468 C 0.73818 0.71638 0.98389 0.0
H469 H 0.8208 0.71 0.86056 0.0
H470 H 0.78052 0.68059 0.89654 0.0
C471 C 0.72774 0.74223 0.99951 0.0
C472 C 0.77739 0.66972 0.97407 0.0
H473 H 0.88212 0.70435 0.94658 0.0
C474 C 0.74606 0.6359 0.95833 0.0
C475 C 0.82722 0.6922 0.97055 0.0
C476 C 0.8624 0.72861 0.98709 0.0
C477 C 0.76318 0.62733 0.93803 0.0
C478 C 0.81255 0.65428 0.93324 0.0
C479 C 0.8442 0.68396 0.95016 0.0
C480 C 0.83099 0.66063 0.90975 0.0
C481 C 0.72791 0.59148 0.9214 0.0
C482 C 0.87291 0.65923 0.90501 0.0
C483 C 0.89654 0.67678 0.88438 0.0
C484 C 0.87859 0.69603 0.8682 0.0
C485 C 0.83516 0.69471 0.87247 0.0
C486 C 0.81178 0.67745 0.89306 0.0
H487 H 0.69878 0.5608 0.93056 0.0
H488 H 0.71125 0.60846 0.9113 0.0
H489 H 0.74529 0.57795 0.90962 0.0
H490 H 0.88861 0.64684 0.91774 0.0
H491 H 0.92971 0.67691 0.88142 0.0
H492 H 0.97084 0.69125 0.31762 0.0
H493 H 0.02509 0.70574 0.28602 0.0
H494 H 0.14249 0.74942 0.33316 0.0
H495 H 0.08838 0.73579 0.36492 0.0
H496 H 0.15703 0.81709 0.30159 0.0
H497 H 0.09778 0.64534 0.25806 0.0
H498 H 0.04818 0.65404 0.26406 0.0
H499 H 0.08228 0.64909 0.28719 0.0
C500 C 0.00804 0.7031 0.32126 0.0
C501 C 0.0255 0.71277 0.34368 0.0
C502 C 0.03889 0.71068 0.30323 0.0
C503 C 0.08769 0.72793 0.30728 0.0
C504 C 0.10482 0.73546 0.32973 0.0
H505 H 0.28012 0.89355 0.1957 0.0
H506 H 0.2599 0.84594 0.23064 0.0
C507 C 0.07389 0.72764 0.34782 0.0
C508 C 0.12123 0.74577 0.28798 0.0
H509 H 0.1348 0.71636 0.23397 0.0
C510 C 0.15346 0.79495 0.28702 0.0
C511 C 0.11652 0.71668 0.26911 0.0
C512 C 0.08463 0.66326 0.26975 0.0
C513 C 0.17735 0.81663 0.26687 0.0
C514 C 0.16949 0.78799 0.24734 0.0
C515 C 0.14058 0.73823 0.24893 0.0
C516 C 0.18361 0.8097 0.22454 0.0
C517 C 0.20726 0.87039 0.26612 0.0
C518 C 0.14764 0.80311 0.20905 0.0
C519 C 0.15902 0.82984 0.18915 0.0
C520 C 0.20668 0.86378 0.18436 0.0
C521 C 0.24303 0.86816 0.19917 0.0
C522 C 0.23157 0.84102 0.21908 0.0
H523 H 0.2041 0.88745 0.28191 0.0
H524 H 0.24539 0.88086 0.264 0.0
H525 H 0.19653 0.88475 0.25148 0.0
H526 H 0.11038 0.77924 0.21299 0.0
H527 H 0.13015 0.82592 0.17822 0.0
H528 H 0.32306 0.01525 0.64638 0.0
H529 H 0.36902 0.06469 0.61464 0.0
H530 H 0.49211 0.1405 0.65839 0.0
H531 H 0.44529 0.09237 0.69068 0.0
H532 H 0.47682 0.20105 0.63559 0.0
H533 H 0.47006 0.07088 0.57385 0.0
H534 H 0.41048 0.04984 0.58367 0.0
H535 H 0.45617 0.05596 0.60349 0.0
C536 C 0.35997 0.04225 0.64927 0.0
C537 C 0.38038 0.05014 0.67108 0.0
C538 C 0.38657 0.06994 0.63099 0.0
C539 C 0.43443 0.10561 0.63399 0.0
C540 C 0.45546 0.11272 0.65562 0.0
H541 H 0.4846 0.23784 0.50123 0.0
H542 H 0.51494 0.21564 0.53467 0.0
C543 C 0.42869 0.0851 0.67402 0.0
C544 C 0.45945 0.13903 0.6151 0.0
H545 H 0.46363 0.13858 0.55735 0.0
C546 C 0.47555 0.18772 0.61853 0.0
C547 C 0.45993 0.12243 0.59293 0.0
C548 C 0.44875 0.07195 0.58839 0.0
C549 C 0.48548 0.21861 0.60005 0.0
C550 C 0.47761 0.19983 0.57774 0.0
C551 C 0.46833 0.1529 0.57443 0.0
C552 C 0.46851 0.22383 0.55845 0.0
C553 C 0.5014 0.27032 0.60467 0.0
C554 C 0.43316 0.23683 0.56076 0.0
C555 C 0.4159 0.24943 0.54181 0.0
C556 C 0.43312 0.24872 0.52003 0.0
C557 C 0.4704 0.2383 0.51781 0.0
C558 C 0.48794 0.2259 0.53689 0.0
H559 H 0.5261 0.28347 0.61951 0.0
H560 H 0.51959 0.29321 0.58976 0.0
H561 H 0.46986 0.27387 0.609 0.0
H562 H 0.41624 0.23388 0.57699 0.0
H563 H 0.38655 0.25629 0.54409 0.0
H564 H 0.45935 0.15848 1.08071 0.0
H565 H 0.51849 0.13542 1.09025 0.0
H566 H 0.44085 0.06634 0.15108 0.0
H567 H 0.38063 0.08974 0.14157 0.0
H568 H 0.57494 0.15954 0.13269 0.0
H569 H 0.46312 0.96444 0.11594 0.0
H570 H 0.44818 0.00701 0.10408 0.0
H571 H 0.43946 -0.00695 0.13377 0.0
C572 C 0.45455 0.13833 1.09615 0.0
C573 C 0.41531 0.12611 0.11045 0.0
C574 C 0.48858 0.12526 0.10158 0.0
C575 C 0.48417 0.09922 0.12134 0.0
C576 C 0.44478 0.0863 0.13566 0.0
H577 H 0.66776 0.97697 0.1512 0.0
H578 H 0.60742 0.00137 0.15488 0.0
C579 C 0.41052 0.09971 0.13026 0.0
C580 C 0.52153 0.08639 0.1265 0.0
H581 H 0.54448 -0.00591 0.12365 0.0
C582 C 0.56823 0.12326 0.13104 0.0
C583 C 0.51268 0.03911 0.12437 0.0
C584 C 0.46328 -0.0016 0.11918 0.0
C585 C 0.60653 0.1143 0.133 0.0
C586 C 0.59818 0.06732 0.12971 0.0
C587 C 0.55107 0.03016 0.12605 0.0
C588 C 0.63775 0.05604 0.12903 0.0
C589 C 0.65553 0.15534 0.13858 0.0
C590 C 0.67547 0.07901 0.11348 0.0
C591 C 0.7104 0.06544 0.11153 0.0
C592 C 0.70777 0.02804 0.1248 0.0
C593 C 0.67071 0.00589 0.14071 0.0
C594 C 0.63609 0.01971 0.14279 0.0
H595 H 0.65322 0.18395 0.14799 0.0
H596 H 0.67658 0.14347 0.14892 0.0
H597 H 0.67501 0.17103 0.12254 0.0
H598 H 0.67704 0.10633 0.10226 0.0
H599 H 0.73828 0.0829 0.09899 0.0
H600 H 0.35917 0.46505 0.4131 0.0
H601 H 0.44159 0.52492 0.42164 0.0
H602 H 0.4377 0.44885 0.48259 0.0
H603 H 0.35429 0.38828 0.47412 0.0
H604 H 0.47674 0.58272 0.46276 0.0
H605 H 0.55878 0.46896 0.44701 0.0
H606 H 0.50023 0.45335 0.43627 0.0
H607 H 0.50849 0.44636 0.46591 0.0
C608 C 0.37573 0.46085 0.42833 0.0
C609 C 0.35023 0.42188 0.44295 0.0
C610 C 0.42286 0.49523 0.4332 0.0
C611 C 0.44582 0.49131 0.45268 0.0
C612 C 0.4207 0.45232 0.46735 0.0
H613 H 0.74987 0.66961 0.48412 0.0
H614 H 0.66475 0.61156 0.48748 0.0
C615 C 0.37314 0.41781 0.46252 0.0
C616 C 0.49603 0.52855 0.45731 0.0
H617 H 0.61064 0.54957 0.45575 0.0
C618 C 0.50608 0.57547 0.46147 0.0
C619 C 0.53413 0.51894 0.45569 0.0
C620 C 0.52526 0.4693 0.45085 0.0
C621 C 0.55329 0.61322 0.46371 0.0
C622 C 0.59158 0.60401 0.46111 0.0
C623 C 0.58138 0.55675 0.45767 0.0
C624 C 0.64245 0.64279 0.46092 0.0
C625 C 0.56155 0.6625 0.46891 0.0
C626 C 0.65838 0.68037 0.44516 0.0
C627 C 0.70706 0.71399 0.4434 0.0
C628 C 0.7408 0.7101 0.45708 0.0
C629 C 0.72469 0.67344 0.47331 0.0
C630 C 0.67605 0.64016 0.47521 0.0
H631 H 0.53047 0.66084 0.47782 0.0
H632 H 0.59396 0.68307 0.47959 0.0
H633 H 0.56635 0.68206 0.45274 0.0
H634 H 0.63343 0.68265 0.43356 0.0
H635 H 0.71845 0.74163 0.43061 0.0
H636 H -0.02436 0.36585 0.81363 0.0
H637 H 0.00162 0.45085 0.81537 0.0
H638 H 0.12198 0.48157 0.77279 0.0
H639 H 0.09532 0.39603 0.77051 0.0
H640 H 0.08152 0.5304 0.82966 0.0
H641 H 0.05665 0.54017 0.73675 0.0
H642 H 0.03606 0.4843 0.75138 0.0
H643 H 0.09808 0.52042 0.74412 0.0
C644 C 0.00789 0.39069 0.80478 0.0
C645 C 0.03304 0.37416 0.79164 0.0
C646 C 0.02274 0.43935 0.80581 0.0
C647 C 0.06312 0.47261 0.79378 0.0
C648 C 0.08998 0.45649 0.78173 0.0
H649 H 0.18986 0.78256 0.80667 0.0
H650 H 0.17212 0.69983 0.81032 0.0
C651 C 0.07496 0.40765 0.78058 0.0
C652 C 0.07554 0.52363 0.79321 0.0
H653 H 0.08812 0.61237 0.75733 0.0
C654 C 0.08311 0.54839 0.81384 0.0
C655 C 0.0767 0.54687 0.7726 0.0
C656 C 0.06601 0.52154 0.74996 0.0
C657 C 0.09195 0.59567 0.81441 0.0
C658 C 0.09424 0.61925 0.79376 0.0
C659 C 0.08662 0.59445 0.77316 0.0
C660 C 0.1038 0.66937 0.79299 0.0
C661 C 0.09733 0.61936 0.83718 0.0
C662 C 0.07159 0.68006 0.78187 0.0
C663 C 0.08193 0.72739 0.77955 0.0
C664 C 0.12477 0.76504 0.78826 0.0
C665 C 0.15642 0.75429 0.7999 0.0
C666 C 0.1462 0.70695 0.8021 0.0
H667 H 0.08123 0.59273 0.85105 0.0
H668 H 0.13587 0.64237 0.84112 0.0
H669 H 0.0804 0.64205 0.83706 0.0
H670 H 0.03867 0.65175 0.77468 0.0
H671 H 0.05684 0.73455 0.77049 0.0
H672 H 0.29749 0.24907 0.16481 0.0
H673 H 0.28918 0.27224 0.20363 0.0
H674 H 0.26657 0.13751 0.2288 0.0
H675 H 0.27389 0.11369 0.19 0.0
H676 H 0.20298 0.21275 0.23776 0.0
H677 H 0.38147 0.25028 0.26858 0.0
H678 H 0.36958 0.25415 0.23882 0.0
H679 H 0.34623 0.19693 0.25207 0.0
C680 C 0.29077 0.22418 0.17853 0.0
C681 C 0.28653 0.17926 0.17383 0.0
C682 C 0.28586 0.23756 0.20091 0.0
C683 C 0.27732 0.20698 0.21961 0.0
C684 C 0.27329 0.16223 0.215 0.0
H685 H 0.27692 0.2397 0.36898 0.0
H686 H 0.28279 0.21848 0.32978 0.0
C687 C 0.27749 0.14853 0.19259 0.0
C688 C 0.27267 0.22167 0.24375 0.0
H689 H 0.33127 0.25731 0.29519 0.0
C690 C 0.23117 0.22265 0.25027 0.0
C691 C 0.30879 0.2342 0.26052 0.0
C692 C 0.35428 0.2342 0.25483 0.0
C693 C 0.2245 0.23464 0.27278 0.0
C694 C 0.26118 0.2483 0.28957 0.0
C695 C 0.30277 0.24735 0.28285 0.0
C696 C 0.2569 0.26212 0.31415 0.0
C697 C 0.17694 0.2303 0.2784 0.0
C698 C 0.24077 0.29456 0.3195 0.0
C699 C 0.23652 0.30629 0.34235 0.0
C700 C 0.24953 0.2872 0.36087 0.0
C701 C 0.26673 0.25576 0.35549 0.0
C702 C 0.27017 0.24344 0.33276 0.0
H703 H 0.14831 0.20491 0.26678 0.0
H704 H 0.16623 0.218 0.29613 0.0
H705 H 0.17943 0.26561 0.27631 0.0
H706 H 0.23175 0.31146 0.30599 0.0
H707 H 0.22336 0.33076 0.34547 0.0
H708 H 0.23309 0.28053 0.52463 0.0
H709 H 0.2052 0.27365 0.56397 0.0
H710 H 0.0866 0.28863 0.54077 0.0
H711 H 0.11452 0.2959 0.50142 0.0
H712 H 0.19113 0.33669 0.59179 0.0
H713 H 0.01793 0.1701 0.58101 0.0
H714 H 0.06497 0.18996 0.56023 0.0
H715 H 0.02777 0.21678 0.56143 0.0
C716 C 0.20093 0.28224 0.52775 0.0
C717 C 0.17631 0.28869 0.50933 0.0
C718 C 0.18488 0.27833 0.55051 0.0
C719 C 0.14298 0.27979 0.55591 0.0
C720 C 0.11839 0.28633 0.53753 0.0
H721 H -0.0148 0.24919 0.68558 0.0
H722 H 0.01027 0.25584 0.64562 0.0
C723 C 0.13475 0.29085 0.5148 0.0
C724 C 0.12594 0.27562 0.58058 0.0
H725 H 0.03158 0.20928 0.61651 0.0
C726 C 0.15624 0.30861 0.59709 0.0
C727 C 0.0802 0.23951 0.58809 0.0
C728 C 0.04585 0.20175 0.57188 0.0
C729 C 0.14223 0.30721 0.62015 0.0
C730 C 0.09677 0.27048 0.62785 0.0
C731 C 0.06638 0.23756 0.61126 0.0
C732 C 0.08051 0.26552 0.6528 0.0
C733 C 0.17618 0.34674 0.63577 0.0
C734 C 0.1102 0.26729 0.67096 0.0
C735 C 0.09611 0.26432 0.69394 0.0
C736 C 0.05105 0.25825 0.70005 0.0
C737 C 0.02035 0.25443 0.68193 0.0
C738 C 0.03482 0.25813 0.65883 0.0
H739 H 0.19999 0.37965 0.62612 0.0
H740 H 0.15673 0.35567 0.64861 0.0
H741 H 0.19924 0.33539 0.64471 0.0
H742 H 0.14462 0.27064 0.66745 0.0
H743 H 0.12076 0.26631 0.70703 0.0
H744 H 0.88804 0.15871 0.84122 0.0
H745 H 0.86425 0.12879 0.88 0.0
H746 H 0.01213 0.19192 0.89964 0.0
H747 H 0.03618 0.22169 0.86073 0.0
H748 H 0.96146 0.10346 0.9187 0.0
H749 H 0.86286 0.19931 0.93607 0.0
H750 H 0.84126 0.16202 0.91129 0.0
H751 H 0.9009 0.21243 0.91163 0.0
C752 C 0.91576 0.16664 0.85372 0.0
C753 C 0.96434 0.19331 0.84738 0.0
C754 C 0.90196 0.14953 0.8762 0.0
C755 C 0.93602 0.15831 0.89347 0.0
C756 C -0.01542 0.18438 0.88709 0.0
H757 H 0.87889 0.13001 1.04145 0.0
H758 H 0.90237 0.15636 1.00229 0.0
C759 C -0.00156 0.20172 0.86461 0.0
C760 C 0.92116 0.14016 0.91786 0.0
H761 H 0.85438 0.14122 0.96319 0.0
C762 C 0.93799 0.11185 0.92832 0.0
C763 C 0.89096 0.15103 0.93113 0.0
C764 C 0.87327 0.18323 0.9221 0.0
C765 C 0.92516 0.09391 0.95089 0.0
C766 C 0.89387 0.10371 0.9639 0.0
C767 C 0.87774 0.13268 0.95357 0.0
C768 C 0.87901 0.08618 0.98837 0.0
C769 C 0.94649 0.06555 0.96079 0.0
C770 C 0.85712 0.03737 0.99444 0.0
C771 C 0.84315 0.0219 1.01719 0.0
C772 C 0.85047 0.05459 1.03483 0.0
C773 C 0.87223 0.10328 1.02866 0.0
C774 C 0.88583 0.11861 1.006 0.0
H775 H -0.02064 0.07242 0.95166 0.0
H776 H 0.9554 0.07405 0.97906 0.0
H777 H 0.9202 0.02694 0.95927 0.0
H778 H 0.85021 0.01085 0.98152 0.0
H779 H 0.82686 -0.0158 1.02095 0.0
H780 H 0.80884 0.89109 0.17131 0.0
H781 H 0.81655 0.86689 0.20998 0.0
H782 H 0.84622 0.00384 0.23551 0.0
H783 H 0.83927 0.0286 0.1968 0.0
H784 H 0.89837 0.91265 0.24248 0.0
H785 H 0.735 0.90545 0.27679 0.0
H786 H 0.74458 0.90377 0.24666 0.0
H787 H 0.77558 0.95912 0.26195 0.0
C788 C 0.81686 0.91622 0.18509 0.0
C789 C 0.8231 0.96198 0.18055 0.0
C790 C 0.82147 0.90224 0.20737 0.0
C791 C 0.83167 0.93308 0.22612 0.0
C792 C 0.83784 0.97878 0.22166 0.0
H793 H 0.84568 0.90667 0.37476 0.0
H794 H 0.84164 0.92956 0.33569 0.0
C795 C 0.83392 -0.00695 0.19933 0.0
C796 C 0.8359 0.91758 0.25012 0.0
H797 H 0.78354 0.89322 0.30284 0.0
C798 C 0.87309 0.90826 0.25563 0.0
C799 C 0.80348 0.91193 0.26768 0.0
C800 C 0.76212 0.92019 0.2631 0.0
C801 C 0.87935 0.89488 0.27792 0.0
C802 C 0.84642 0.88849 0.2955 0.0
C803 C 0.80908 0.89765 0.28982 0.0
C804 C 0.85052 0.874 0.31988 0.0
C805 C 0.92264 0.88979 0.2825 0.0
C806 C 0.85699 0.83466 0.32498 0.0
C807 C 0.86008 0.82167 0.34776 0.0
C808 C 0.85567 0.8468 0.36636 0.0
C809 C 0.84886 0.88579 0.3612 0.0
C810 C 0.84646 0.89909 0.33856 0.0
H811 H 0.95152 0.91039 0.27008 0.0
H812 H 0.93705 0.90216 0.29988 0.0
H813 H 0.91257 0.8517 0.28082 0.0
H814 H 0.85893 0.81325 0.31136 0.0
H815 H 0.8652 0.79143 0.35077 0.0
H816 H 0.91127 0.8761 0.52261 0.0
H817 H 0.94554 0.88468 0.5607 0.0
H818 H 0.97157 0.76855 0.54681 0.0
H819 H 0.93978 0.76178 0.50826 0.0
H820 H 0.92651 0.83843 0.59685 0.0
H821 H 0.09806 0.85392 0.57185 0.0
H822 H 0.05674 0.85392 0.55115 0.0
H823 H 0.04926 0.79843 0.56215 0.0
C824 C 0.9245 0.85244 0.52755 0.0
C825 C 0.92282 0.81843 0.51194 0.0
C826 C 0.94426 0.85737 0.54957 0.0
C827 C 0.96286 0.82824 0.55707 0.0
C828 C 0.9597 0.79315 0.54168 0.0
H829 H 0.00418 0.79847 0.7041 0.0
H830 H 0.97416 0.79087 0.66529 0.0
C831 C 0.94075 0.78882 0.51948 0.0
C832 C -0.01585 0.83394 0.58097 0.0
H833 H 0.07856 0.83959 0.61122 0.0
C834 C 0.95993 0.83887 0.59978 0.0
C835 C 0.02855 0.83587 0.58549 0.0
C836 C 0.0599 0.83581 0.56657 0.0
C837 C -0.02223 0.84459 0.62238 0.0
C838 C 0.02058 0.84345 0.62703 0.0
C839 C 0.04538 0.8396 0.6082 0.0
C840 C 0.04023 0.8466 0.65106 0.0
C841 C 0.95102 0.85357 0.64092 0.0
C842 C 0.08864 0.87847 0.65655 0.0
C843 C 0.10651 0.88201 0.67896 0.0
C844 C 0.07659 0.85401 0.69682 0.0
C845 C 0.02861 0.8212 0.69113 0.0
C846 C 0.011 0.81722 0.66874 0.0
H847 H 0.93036 0.86993 0.63402 0.0
H848 H 0.92517 0.8191 0.64881 0.0
H849 H -0.02439 0.87752 0.65431 0.0
H850 H 0.11269 0.90147 0.64353 0.0
H851 H 0.14367 0.90752 0.68233 0.0
H852 H 0.10722 0.88639 0.85803 0.0
H853 H 0.1312 0.91899 0.8967 0.0
H854 H 0.25912 0.0379 0.87022 0.0
H855 H 0.23594 0.00516 0.83164 0.0
H856 H 0.22631 0.94629 0.92121 0.0
H857 H 0.19297 0.0983 0.91106 0.0
H858 H 0.16355 0.04549 0.89344 0.0
H859 H 0.22518 0.08838 0.88879 0.0
C860 C 0.14052 0.9195 0.86033 0.0
C861 C 0.16943 0.9428 0.84132 0.0
C862 C 0.1543 0.93822 0.88263 0.0
C863 C 0.19702 0.98145 0.88676 0.0
C864 C 0.22582 0.00484 0.86781 0.0
H865 H 0.3226 0.16248 1.01043 0.0
H866 H 0.30149 0.1315 0.97132 0.0
C867 C 0.21247 -0.01421 0.84559 0.0
C868 C 0.21189 0.0016 0.91073 0.0
H869 H 0.22687 0.09337 0.9458 0.0
C870 C 0.22622 0.97837 0.92656 0.0
C871 C 0.21281 0.04397 0.91801 0.0
C872 C 0.19761 0.07063 0.90209 0.0
C873 C 0.24182 -0.0037 0.94892 0.0
C874 C 0.24151 0.03812 0.95654 0.0
C875 C 0.22733 0.06143 0.94055 0.0
C876 C 0.25512 0.0577 0.98084 0.0
C877 C 0.26031 0.97083 0.96376 0.0
C878 C 0.2361 0.02767 0.99994 0.0
C879 C 0.24907 0.04528 1.02235 0.0
C880 C 0.28073 0.0941 1.02689 0.0
C881 C 0.29868 0.12465 1.00789 0.0
C882 C 0.28628 0.10677 0.98533 0.0
H883 H 0.27451 0.95197 0.95337 0.0
H884 H 0.28911 -0.00409 0.97537 0.0
H885 H 0.23053 0.94354 0.97406 0.0
H886 H 0.21043 -0.00976 0.99762 0.0
H887 H 0.23327 0.02037 1.03626 0.0
loop_
_geom_bond_atom_site_label_1
_geom_bond_atom_site_label_2
_geom_bond_distance
_geom_bond_site_symmetry_2
_ccdc_geom_bond_type
Pr0 C2 2.880 . S
Pr0 O20 2.562 . S
Pr0 O21 2.490 . S
Pr0 O22 2.695 1_554 S
Pr0 O23 2.512 . S
Pr0 O25 2.437 . S
Pr0 O28 2.436 . S
Pr0 O30 2.438 1_554 S
Pr1 C11 2.880 . S
Pr1 O22 2.436 . S
Pr1 O24 2.438 1_556 S
Pr1 O26 2.562 . S
Pr1 O27 2.490 . S
Pr1 O28 2.695 1_556 S
Pr1 O29 2.512 . S
Pr1 O31 2.437 . S
C2 Pr0 2.880 . S
C2 C3 1.491 . S
C2 O20 1.254 . S
C2 O21 1.225 . S
C3 C2 1.491 . S
C3 C4 1.392 . S
C3 C8 1.356 . S
C4 C3 1.392 . S
C4 C5 1.368 . S
C4 H32 0.929 . S
C5 C4 1.368 . S
C5 C6 1.386 . S
C5 H33 0.929 1_545 S
C6 C5 1.386 . S
C6 C7 1.373 . S
C7 C6 1.373 . S
C7 C8 1.409 . S
C7 H34 0.931 . S
C8 C3 1.356 . S
C8 C7 1.409 . S
C8 H35 0.930 . S
C9 O22 1.270 1_554 S
C9 O23 1.248 . S
C10 O24 1.267 . S
C10 O25 1.278 . S
C11 Pr1 2.880 . S
C11 C12 1.491 . S
C11 O26 1.254 . S
C11 O27 1.225 . S
C12 C11 1.491 . S
C12 C13 1.392 . S
C12 C17 1.356 . S
C13 C12 1.392 . S
C13 C14 1.368 . S
C13 H36 0.929 . S
C14 C13 1.368 . S
C14 C15 1.386 . S
C14 H37 0.929 . S
C15 C14 1.386 . S
C15 C16 1.373 . S
C16 C15 1.373 . S
C16 C17 1.409 . S
C16 H38 0.931 . S
C17 C12 1.356 . S
C17 C16 1.409 . S
C17 H39 0.930 . S
C18 O28 1.270 . S
C18 O29 1.248 1_554 S
C19 O30 1.267 . S
C19 O31 1.278 . S
O20 Pr0 2.562 . S
O20 C2 1.254 . S
O21 Pr0 2.490 . S
O21 C2 1.225 . S
O22 Pr0 2.695 1_556 S
O22 Pr1 2.436 . S
O22 C9 1.270 1_556 S
O23 Pr0 2.512 . S
O23 C9 1.248 . S
O24 Pr1 2.438 1_554 S
O24 C10 1.267 . S
O25 Pr0 2.437 . S
O25 C10 1.278 . S
O26 Pr1 2.562 . S
O26 C11 1.254 . S
O27 Pr1 2.490 . S
O27 C11 1.225 . S
O28 Pr0 2.436 . S
O28 Pr1 2.695 1_554 S
O28 C18 1.270 . S
O29 Pr1 2.512 . S
O29 C18 1.248 1_556 S
O30 Pr0 2.438 1_556 S
O30 C19 1.267 . S
O31 Pr1 2.437 . S
O31 C19 1.278 . S
H32 C4 0.929 . S
H33 C5 0.929 1_565 S
H34 C7 0.931 . S
H35 C8 0.930 . S
H36 C13 0.929 . S
H37 C14 0.929 . S
H38 C16 0.931 . S
H39 C17 0.930 . S
Pr40 C42 2.880 . S
Pr40 O60 2.562 . S
Pr40 O61 2.490 . S
Pr40 O62 2.695 . S
Pr40 O63 2.512 . S
Pr40 O65 2.437 . S
Pr40 O68 2.436 . S
Pr40 O70 2.438 . S
Pr41 C51 2.880 . S
Pr41 O62 2.436 . S
Pr41 O64 2.438 . S
Pr41 O66 2.562 . S
Pr41 O67 2.490 . S
Pr41 O68 2.695 . S
Pr41 O69 2.512 . S
Pr41 O71 2.437 . S
C42 Pr40 2.880 . S
C42 C43 1.491 . S
C42 O60 1.254 . S
C42 O61 1.225 . S
C43 C42 1.491 . S
C43 C44 1.392 . S
C43 C48 1.356 . S
C44 C43 1.392 . S
C44 C45 1.368 . S
C44 H72 0.929 . S
C45 C44 1.368 . S
C45 C46 1.386 . S
C45 H73 0.929 . S
C46 C45 1.386 . S
C46 C47 1.373 . S
C47 C46 1.373 . S
C47 C48 1.409 . S
C47 H74 0.931 . S
C48 C43 1.356 . S
C48 C47 1.409 . S
C48 H75 0.930 . S
C49 O62 1.270 . S
C49 O63 1.248 . S
C50 O64 1.267 . S
C50 O65 1.278 . S
C51 Pr41 2.880 . S
C51 C52 1.491 . S
C51 O66 1.254 . S
C51 O67 1.225 . S
C52 C51 1.491 . S
C52 C53 1.392 . S
C52 C57 1.356 . S
C53 C52 1.392 . S
C53 C54 1.368 . S
C53 H76 0.929 . S
C54 C53 1.368 . S
C54 C55 1.386 . S
C54 H77 0.929 . S
C55 C54 1.386 . S
C55 C56 1.373 . S
C56 C55 1.373 . S
C56 C57 1.409 . S
C56 H78 0.931 . S
C57 C52 1.356 . S
C57 C56 1.409 . S
C57 H79 0.930 . S
C58 O68 1.270 . S
C58 O69 1.248 . S
C59 O70 1.267 . S
C59 O71 1.278 . S
O60 Pr40 2.562 . S
O60 C42 1.254 . S
O61 Pr40 2.490 . S
O61 C42 1.225 . S
O62 Pr40 2.695 . S
O62 Pr41 2.436 . S
O62 C49 1.270 . S
O63 Pr40 2.512 . S
O63 C49 1.248 . S
O64 Pr41 2.438 . S
O64 C50 1.267 . S
O65 Pr40 2.437 . S
O65 C50 1.278 . S
O66 Pr41 2.562 . S
O66 C51 1.254 . S
O67 Pr41 2.490 . S
O67 C51 1.225 . S
O68 Pr40 2.436 . S
O68 Pr41 2.695 . S
O68 C58 1.270 . S
O69 Pr41 2.512 . S
O69 C58 1.248 . S
O70 Pr40 2.438 . S
O70 C59 1.267 . S
O71 Pr41 2.437 . S
O71 C59 1.278 . S
H72 C44 0.929 . S
H73 C45 0.929 . S
H74 C47 0.931 . S
H75 C48 0.930 . S
H76 C53 0.929 . S
H77 C54 0.929 . S
H78 C56 0.931 . S
H79 C57 0.930 . S
Pr80 C82 2.880 . S
Pr80 O100 2.562 . S
Pr80 O101 2.490 . S
Pr80 O102 2.695 . S
Pr80 O103 2.512 . S
Pr80 O105 2.424 1_455 S
Pr80 O108 2.436 . S
Pr80 O110 2.438 . S
Pr81 C91 2.880 . S
Pr81 O102 2.436 1_655 S
Pr81 O104 2.438 . S
Pr81 O106 2.562 . S
Pr81 O107 2.490 . S
Pr81 O108 2.695 1_655 S
Pr81 O109 2.512 . S
Pr81 O111 2.437 1_655 S
C82 Pr80 2.880 . S
C82 C83 1.491 . S
C82 O100 1.254 . S
C82 O101 1.225 . S
C83 C82 1.491 . S
C83 C84 1.392 . S
C83 C88 1.356 . S
C84 C83 1.392 . S
C84 C85 1.368 . S
C84 H112 0.929 . S
C85 C84 1.368 . S
C85 C86 1.386 . S
C85 H113 0.929 . S
C86 C85 1.386 . S
C86 C87 1.373 . S
C87 C86 1.373 . S
C87 C88 1.409 . S
C87 H114 0.931 . S
C88 C83 1.356 . S
C88 C87 1.409 . S
C88 H115 0.930 . S
C89 O102 1.270 . S
C89 O103 1.248 . S
C90 O104 1.267 . S
C90 O105 1.300 . S
C91 Pr81 2.880 . S
C91 C92 1.491 . S
C91 O106 1.254 . S
C91 O107 1.225 . S
C92 C91 1.491 . S
C92 C93 1.392 . S
C92 C97 1.356 . S
C93 C92 1.392 . S
C93 C94 1.368 . S
C93 H116 0.929 . S
C94 C93 1.368 . S
C94 C95 1.386 . S
C94 H117 0.929 . S
C95 C94 1.386 . S
C95 C96 1.373 . S
C96 C95 1.373 . S
C96 C97 1.409 . S
C96 H118 0.931 . S
C97 C92 1.356 . S
C97 C96 1.409 . S
C97 H119 0.930 . S
C98 O108 1.270 1_655 S
C98 O109 1.248 . S
C99 O110 1.267 . S
C99 O111 1.278 . S
O100 Pr80 2.562 . S
O100 C82 1.254 . S
O101 Pr80 2.490 . S
O101 C82 1.225 . S
O102 Pr80 2.695 . S
O102 Pr81 2.436 1_455 S
O102 C89 1.270 . S
O103 Pr80 2.512 . S
O103 C89 1.248 . S
O104 Pr81 2.438 . S
O104 C90 1.267 . S
O105 Pr80 2.424 1_655 S
O105 C90 1.300 . S
O106 Pr81 2.562 . S
O106 C91 1.254 . S
O107 Pr81 2.490 . S
O107 C91 1.225 . S
O108 Pr80 2.436 . S
O108 Pr81 2.695 1_455 S
O108 C98 1.270 1_455 S
O109 Pr81 2.512 . S
O109 C98 1.248 . S
O110 Pr80 2.438 . S
O110 C99 1.267 . S
O111 Pr81 2.437 1_455 S
O111 C99 1.278 . S
H112 C84 0.929 . S
H113 C85 0.929 . S
H114 C87 0.931 . S
H115 C88 0.930 . S
H116 C93 0.929 . S
H117 C94 0.929 . S
H118 C96 0.931 . S
H119 C97 0.930 . S
Pr120 C122 2.880 . S
Pr120 O140 2.562 . S
Pr120 O141 2.490 . S
Pr120 O142 2.695 1_554 S
Pr120 O143 2.512 . S
Pr120 O145 2.437 1_545 S
Pr120 O148 2.436 . S
Pr120 O150 2.438 1_554 S
Pr121 C131 2.880 . S
Pr121 O142 2.436 1_565 S
Pr121 O144 2.438 1_556 S
Pr121 O146 2.562 . S
Pr121 O147 2.490 . S
Pr121 O148 2.695 1_566 S
Pr121 O149 2.512 . S
Pr121 O151 2.437 1_565 S
C122 Pr120 2.880 . S
C122 C123 1.491 . S
C122 O140 1.254 . S
C122 O141 1.225 . S
C123 C122 1.491 . S
C123 C124 1.392 . S
C123 C128 1.356 . S
C124 C123 1.392 . S
C124 C125 1.368 . S
C124 H152 0.929 . S
C125 C124 1.368 . S
C125 C126 1.386 . S
C125 H153 0.929 . S
C126 C125 1.386 . S
C126 C127 1.373 . S
C127 C126 1.373 . S
C127 C128 1.409 . S
C127 H154 0.931 . S
C128 C123 1.356 . S
C128 C127 1.409 . S
C128 H155 0.930 . S
C129 O142 1.270 1_554 S
C129 O143 1.248 . S
C130 O144 1.267 . S
C130 O145 1.278 . S
C131 Pr121 2.880 . S
C131 C132 1.491 . S
C131 O146 1.254 . S
C131 O147 1.225 . S
C132 C131 1.491 . S
C132 C133 1.392 . S
C132 C137 1.356 . S
C133 C132 1.392 . S
C133 C134 1.368 . S
C133 H156 0.929 . S
C134 C133 1.368 . S
C134 C135 1.386 . S
C134 H157 0.929 . S
C135 C134 1.386 . S
C135 C136 1.373 . S
C136 C135 1.373 . S
C136 C137 1.409 . S
C136 H158 0.931 . S
C137 C132 1.356 . S
C137 C136 1.409 . S
C137 H159 0.930 . S
C138 O148 1.270 1_565 S
C138 O149 1.248 1_554 S
C139 O150 1.267 . S
C139 O151 1.278 . S
O140 Pr120 2.562 . S
O140 C122 1.254 . S
O141 Pr120 2.490 . S
O141 C122 1.225 . S
O142 Pr120 2.695 1_556 S
O142 Pr121 2.436 1_545 S
O142 C129 1.270 1_556 S
O143 Pr120 2.512 . S
O143 C129 1.248 . S
O144 Pr121 2.438 1_554 S
O144 C130 1.267 . S
O145 Pr120 2.437 1_565 S
O145 C130 1.278 . S
O146 Pr121 2.562 . S
O146 C131 1.254 . S
O147 Pr121 2.490 . S
O147 C131 1.225 . S
O148 Pr120 2.436 . S
O148 Pr121 2.695 1_544 S
O148 C138 1.270 1_545 S
O149 Pr121 2.512 . S
O149 C138 1.248 1_556 S
O150 Pr120 2.438 1_556 S
O150 C139 1.267 . S
O151 Pr121 2.437 1_545 S
O151 C139 1.278 . S
H152 C124 0.929 . S
H153 C125 0.929 . S
H154 C127 0.931 . S
H155 C128 0.930 . S
H156 C133 0.929 . S
H157 C134 0.929 . S
H158 C136 0.931 . S
H159 C137 0.930 . S
Pr160 C162 2.880 . S
Pr160 O180 2.562 . S
Pr160 O181 2.490 . S
Pr160 O182 2.695 . S
Pr160 O183 2.512 . S
Pr160 O185 2.437 . S
Pr160 O188 2.436 . S
Pr160 O190 2.438 . S
Pr161 C171 2.880 . S
Pr161 O182 2.436 . S
Pr161 O184 2.438 . S
Pr161 O186 2.562 . S
Pr161 O187 2.490 . S
Pr161 O188 2.695 . S
Pr161 O189 2.512 . S
Pr161 O191 2.437 . S
C162 Pr160 2.880 . S
C162 C163 1.491 . S
C162 O180 1.254 . S
C162 O181 1.225 . S
C163 C162 1.491 . S
C163 C164 1.392 . S
C163 C168 1.356 . S
C164 C163 1.392 . S
C164 C165 1.368 . S
C164 H192 0.929 . S
C165 C164 1.368 . S
C165 C166 1.386 . S
C165 H193 0.929 . S
C166 C165 1.386 . S
C166 C167 1.373 . S
C167 C166 1.373 . S
C167 C168 1.409 . S
C167 H194 0.931 . S
C168 C163 1.356 . S
C168 C167 1.409 . S
C168 H195 0.930 . S
C169 O182 1.270 . S
C169 O183 1.248 . S
C170 O184 1.267 . S
C170 O185 1.278 . S
C171 Pr161 2.880 . S
C171 C172 1.491 . S
C171 O186 1.254 . S
C171 O187 1.225 . S
C172 C171 1.491 . S
C172 C173 1.392 . S
C172 C177 1.356 1_655 S
C173 C172 1.392 . S
C173 C174 1.368 . S
C173 H196 0.929 . S
C174 C173 1.368 . S
C174 C175 1.387 . S
C174 H197 0.929 . S
C175 C174 1.387 . S
C175 C176 1.374 1_655 S
C176 C175 1.374 1_455 S
C176 C177 1.409 . S
C176 H198 0.931 . S
C177 C172 1.356 1_455 S
C177 C176 1.409 . S
C177 H199 0.930 . S
C178 O188 1.270 . S
C178 O189 1.248 . S
C179 O190 1.267 . S
C179 O191 1.278 . S
O180 Pr160 2.562 . S
O180 C162 1.254 . S
O181 Pr160 2.490 . S
O181 C162 1.225 . S
O182 Pr160 2.695 . S
O182 Pr161 2.436 . S
O182 C169 1.270 . S
O183 Pr160 2.512 . S
O183 C169 1.248 . S
O184 Pr161 2.438 . S
O184 C170 1.267 . S
O185 Pr160 2.437 . S
O185 C170 1.278 . S
O186 Pr161 2.562 . S
O186 C171 1.254 . S
O187 Pr161 2.490 . S
O187 C171 1.225 . S
O188 Pr160 2.436 . S
O188 Pr161 2.695 . S
O188 C178 1.270 . S
O189 Pr161 2.512 . S
O189 C178 1.248 . S
O190 Pr160 2.438 . S
O190 C179 1.267 . S
O191 Pr161 2.437 . S
O191 C179 1.278 . S
H192 C164 0.929 . S
H193 C165 0.929 . S
H194 C167 0.931 . S
H195 C168 0.930 . S
H196 C173 0.929 . S
H197 C174 0.929 . S
H198 C176 0.931 . S
H199 C177 0.930 . S
Pr200 C202 2.880 . S
Pr200 O220 2.562 . S
Pr200 O221 2.490 . S
Pr200 O222 2.695 . S
Pr200 O223 2.512 . S
Pr200 O225 2.437 . S
Pr200 O228 2.436 . S
Pr200 O230 2.438 . S
Pr201 C211 2.880 . S
Pr201 O222 2.436 . S
Pr201 O224 2.438 . S
Pr201 O226 2.562 . S
Pr201 O227 2.490 . S
Pr201 O228 2.695 . S
Pr201 O229 2.512 . S
Pr201 O231 2.437 . S
C202 Pr200 2.880 . S
C202 C203 1.491 . S
C202 O220 1.254 . S
C202 O221 1.225 . S
C203 C202 1.491 . S
C203 C204 1.392 . S
C203 C208 1.356 . S
C204 C203 1.392 . S
C204 C205 1.368 . S
C204 H232 0.929 . S
C205 C204 1.368 . S
C205 C206 1.386 . S
C205 H233 0.929 1_455 S
C206 C205 1.386 . S
C206 C207 1.373 . S
C207 C206 1.373 . S
C207 C208 1.409 . S
C207 H234 0.931 . S
C208 C203 1.356 . S
C208 C207 1.409 . S
C208 H235 0.930 . S
C209 O222 1.270 . S
C209 O223 1.248 . S
C210 O224 1.267 . S
C210 O225 1.278 . S
C211 Pr201 2.880 . S
C211 C212 1.491 . S
C211 O226 1.254 . S
C211 O227 1.225 . S
C212 C211 1.491 . S
C212 C213 1.392 . S
C212 C217 1.356 1_565 S
C213 C212 1.392 . S
C213 C214 1.368 . S
C213 H236 0.929 . S
C214 C213 1.368 . S
C214 C215 1.386 . S
C214 H237 0.929 . S
C215 C214 1.386 . S
C215 C216 1.373 1_565 S
C216 C215 1.373 1_545 S
C216 C217 1.409 . S
C216 H238 0.931 . S
C217 C212 1.356 1_545 S
C217 C216 1.409 . S
C217 H239 0.930 . S
C218 O228 1.270 . S
C218 O229 1.248 . S
C219 O230 1.267 . S
C219 O231 1.278 . S
O220 Pr200 2.562 . S
O220 C202 1.254 . S
O221 Pr200 2.490 . S
O221 C202 1.225 . S
O222 Pr200 2.695 . S
O222 Pr201 2.436 . S
O222 C209 1.270 . S
O223 Pr200 2.512 . S
O223 C209 1.248 . S
O224 Pr201 2.438 . S
O224 C210 1.267 . S
O225 Pr200 2.437 . S
O225 C210 1.278 . S
O226 Pr201 2.562 . S
O226 C211 1.254 . S
O227 Pr201 2.490 . S
O227 C211 1.225 . S
O228 Pr200 2.436 . S
O228 Pr201 2.695 . S
O228 C218 1.270 . S
O229 Pr201 2.512 . S
O229 C218 1.248 . S
O230 Pr200 2.438 . S
O230 C219 1.267 . S
O231 Pr201 2.437 . S
O231 C219 1.278 . S
H232 C204 0.929 . S
H233 C205 0.929 1_655 S
H234 C207 0.931 . S
H235 C208 0.930 . S
H236 C213 0.929 . S
H237 C214 0.929 . S
H238 C216 0.931 . S
H239 C217 0.930 . S
H240 C248 0.929 . S
H241 C250 0.930 . S
H242 C252 0.930 . S
H243 C255 0.929 . S
H244 C258 0.930 . S
H245 C260 0.960 . S
H246 C260 0.960 . S
H247 C260 0.960 . S
C248 H240 0.929 . S
C248 C249 1.369 1_546 S
C248 C250 1.384 . S
C249 C248 1.369 1_564 S
C249 C255 1.398 . S
C250 H241 0.930 . S
C250 C248 1.384 . S
C250 C251 1.380 . S
C251 C250 1.380 . S
C251 C252 1.392 1_546 S
C251 C256 1.490 1_655 S
C252 H242 0.930 . S
C252 C251 1.392 1_564 S
C252 C255 1.386 . S
H253 C269 0.930 . S
H254 C270 0.931 . S
C255 H243 0.929 . S
C255 C249 1.398 . S
C255 C252 1.386 . S
C256 C251 1.490 1_455 S
C256 C258 1.395 1_556 S
C256 C259 1.402 . S
H257 C263 0.930 . S
C258 H244 0.930 . S
C258 C256 1.395 1_554 S
C258 C261 1.403 . S
C259 C256 1.402 . S
C259 C260 1.524 1_545 S
C259 C263 1.400 . S
C260 H245 0.960 . S
C260 H246 0.960 . S
C260 H247 0.960 . S
C260 C259 1.524 1_565 S
C261 C258 1.403 . S
C261 C262 1.392 . S
C261 C265 1.495 . S
C262 C261 1.392 . S
C262 C263 1.385 1_554 S
C262 C264 1.478 . S
C263 H257 0.930 . S
C263 C259 1.400 . S
C263 C262 1.385 1_556 S
C264 C262 1.478 . S
C264 C266 1.381 1_554 S
C264 C270 1.383 . S
C265 C261 1.495 . S
C265 H271 0.959 . S
C265 H272 0.961 . S
C265 H273 0.960 . S
C266 C264 1.381 1_556 S
C266 C267 1.394 . S
C266 H274 0.930 . S
C267 C266 1.394 . S
C267 C268 1.383 1_556 S
C267 H275 0.929 . S
C268 C267 1.383 1_554 S
C268 C269 1.377 . S
C269 H253 0.930 . S
C269 C268 1.377 . S
C269 C270 1.379 . S
C270 H254 0.931 . S
C270 C264 1.383 . S
C270 C269 1.379 . S
H271 C265 0.959 . S
H272 C265 0.961 . S
H273 C265 0.960 . S
H274 C266 0.930 . S
H275 C267 0.929 . S
H276 C284 0.929 . S
H277 C286 0.930 . S
H278 C288 0.930 . S
H279 C291 0.929 . S
H280 C294 0.930 1_655 S
H281 C296 0.960 . S
H282 C296 0.960 . S
H283 C296 0.960 . S
C284 H276 0.929 . S
C284 C285 1.377 . S
C284 C286 1.384 . S
C285 C284 1.377 . S
C285 C291 1.390 1_655 S
C286 H277 0.930 . S
C286 C284 1.384 . S
C286 C287 1.372 1_655 S
C287 C286 1.372 1_455 S
C287 C288 1.400 . S
C287 C292 1.490 1_565 S
C288 H278 0.930 . S
C288 C287 1.400 . S
C288 C291 1.386 . S
H289 C305 0.930 . S
H290 C306 0.931 . S
C291 H279 0.929 . S
C291 C285 1.390 1_455 S
C291 C288 1.386 . S
C292 C287 1.490 1_545 S
C292 C294 1.395 . S
C292 C295 1.403 . S
H293 C299 0.930 . S
C294 H280 0.930 1_455 S
C294 C292 1.395 . S
C294 C297 1.403 . S
C295 C292 1.403 . S
C295 C296 1.524 . S
C295 C299 1.400 . S
C296 H281 0.960 . S
C296 H282 0.960 . S
C296 H283 0.960 . S
C296 C295 1.524 . S
C297 C294 1.403 . S
C297 C298 1.392 . S
C297 C301 1.495 . S
C298 C297 1.392 . S
C298 C299 1.385 . S
C298 C300 1.478 . S
C299 H293 0.930 . S
C299 C295 1.400 . S
C299 C298 1.385 . S
C300 C298 1.478 . S
C300 C302 1.381 . S
C300 C306 1.383 . S
C301 C297 1.495 . S
C301 H307 0.959 1_455 S
C301 H308 0.961 . S
C301 H309 0.960 . S
C302 C300 1.381 . S
C302 C303 1.394 . S
C302 H310 0.930 . S
C303 C302 1.394 . S
C303 C304 1.383 . S
C303 H311 0.929 . S
C304 C303 1.383 . S
C304 C305 1.377 . S
C305 H289 0.930 . S
C305 C304 1.377 . S
C305 C306 1.379 . S
C306 H290 0.931 . S
C306 C300 1.383 . S
C306 C305 1.379 . S
H307 C301 0.959 1_655 S
H308 C301 0.961 . S
H309 C301 0.960 . S
H310 C302 0.930 . S
H311 C303 0.929 . S
H312 C320 0.929 . S
H313 C322 0.930 . S
H314 C324 0.930 . S
H315 C327 0.929 . S
H316 C330 0.930 . S
H317 C332 0.960 . S
H318 C332 0.960 . S
H319 C332 0.960 . S
C320 H312 0.929 . S
C320 C321 1.377 . S
C320 C322 1.384 . S
C321 C320 1.377 . S
C321 C327 1.390 1_565 S
C322 H313 0.930 . S
C322 C320 1.384 . S
C322 C323 1.372 1_565 S
C323 C322 1.372 1_545 S
C323 C324 1.400 . S
C323 C328 1.490 . S
C324 H314 0.930 . S
C324 C323 1.400 . S
C324 C327 1.386 . S
H325 C341 0.930 . S
H326 C342 0.931 . S
C327 H315 0.929 . S
C327 C321 1.390 1_545 S
C327 C324 1.386 . S
C328 C323 1.490 . S
C328 C330 1.395 . S
C328 C331 1.403 . S
H329 C335 0.930 . S
C330 H316 0.930 . S
C330 C328 1.395 . S
C330 C333 1.403 . S
C331 C328 1.403 . S
C331 C332 1.524 . S
C331 C335 1.400 . S
C332 H317 0.960 . S
C332 H318 0.960 . S
C332 H319 0.960 . S
C332 C331 1.524 . S
C333 C330 1.403 . S
C333 C334 1.392 . S
C333 C337 1.495 . S
C334 C333 1.392 . S
C334 C335 1.385 . S
C334 C336 1.478 . S
C335 H329 0.930 . S
C335 C331 1.400 . S
C335 C334 1.385 . S
C336 C334 1.478 . S
C336 C338 1.381 1_455 S
C336 C342 1.383 . S
C337 C333 1.495 . S
C337 H343 0.959 . S
C337 H344 0.961 . S
C337 H345 0.960 1_455 S
C338 C336 1.381 1_655 S
C338 C339 1.394 . S
C338 H346 0.930 . S
C339 C338 1.394 . S
C339 C340 1.383 . S
C339 H347 0.929 . S
C340 C339 1.383 . S
C340 C341 1.377 1_655 S
C341 H325 0.930 . S
C341 C340 1.377 1_455 S
C341 C342 1.379 . S
C342 H326 0.931 . S
C342 C336 1.383 . S
C342 C341 1.379 . S
H343 C337 0.959 . S
H344 C337 0.961 . S
H345 C337 0.960 1_655 S
H346 C338 0.930 . S
H347 C339 0.929 . S
H348 C356 0.929 . S
H349 C358 0.930 . S
H350 C360 0.930 . S
H351 C363 0.929 . S
H352 C366 0.930 . S
H353 C368 0.960 . S
H354 C368 0.960 . S
H355 C368 0.960 . S
C356 H348 0.929 . S
C356 C357 1.377 . S
C356 C358 1.384 . S
C357 C356 1.377 . S
C357 C363 1.390 . S
C358 H349 0.930 . S
C358 C356 1.384 . S
C358 C359 1.372 . S
C359 C358 1.372 . S
C359 C360 1.400 . S
C359 C364 1.490 . S
C360 H350 0.930 . S
C360 C359 1.400 . S
C360 C363 1.386 . S
H361 C377 0.930 . S
H362 C378 0.931 . S
C363 H351 0.929 . S
C363 C357 1.390 . S
C363 C360 1.386 . S
C364 C359 1.490 . S
C364 C366 1.395 . S
C364 C367 1.403 . S
H365 C371 0.930 . S
C366 H352 0.930 . S
C366 C364 1.395 . S
C366 C369 1.403 . S
C367 C364 1.403 . S
C367 C368 1.524 . S
C367 C371 1.400 . S
C368 H353 0.960 . S
C368 H354 0.960 . S
C368 H355 0.960 . S
C368 C367 1.524 . S
C369 C366 1.403 . S
C369 C370 1.392 . S
C369 C373 1.495 . S
C370 C369 1.392 . S
C370 C371 1.385 . S
C370 C372 1.478 . S
C371 H365 0.930 . S
C371 C367 1.400 . S
C371 C370 1.385 . S
C372 C370 1.478 . S
C372 C374 1.381 . S
C372 C378 1.383 . S
C373 C369 1.495 . S
C373 H379 0.959 . S
C373 H380 0.961 . S
C373 H381 0.960 . S
C374 C372 1.381 . S
C374 C375 1.394 . S
C374 H382 0.930 . S
C375 C374 1.394 . S
C375 C376 1.383 . S
C375 H383 0.929 . S
C376 C375 1.383 . S
C376 C377 1.377 . S
C377 H361 0.930 . S
C377 C376 1.377 . S
C377 C378 1.379 . S
C378 H362 0.931 . S
C378 C372 1.383 . S
C378 C377 1.379 . S
H379 C373 0.959 . S
H380 C373 0.961 . S
H381 C373 0.960 . S
H382 C374 0.930 . S
H383 C375 0.929 . S
H384 C392 0.929 . S
H385 C394 0.930 . S
H386 C396 0.930 . S
H387 C399 0.929 . S
H388 C402 0.930 . S
H389 C404 0.960 1_655 S
H390 C404 0.960 . S
H391 C404 0.960 . S
C392 H384 0.929 . S
C392 C393 1.377 . S
C392 C394 1.384 . S
C393 C392 1.377 . S
C393 C399 1.390 . S
C394 H385 0.930 . S
C394 C392 1.384 . S
C394 C395 1.372 . S
C395 C394 1.372 . S
C395 C396 1.400 . S
C395 C400 1.490 . S
C396 H386 0.930 . S
C396 C395 1.400 . S
C396 C399 1.386 . S
H397 C413 0.930 . S
H398 C414 0.931 . S
C399 H387 0.929 . S
C399 C393 1.390 . S
C399 C396 1.386 . S
C400 C395 1.490 . S
C400 C402 1.395 . S
C400 C403 1.403 . S
H401 C407 0.930 . S
C402 H388 0.930 . S
C402 C400 1.395 . S
C402 C405 1.403 . S
C403 C400 1.403 . S
C403 C404 1.524 . S
C403 C407 1.400 1_455 S
C404 H389 0.960 1_455 S
C404 H390 0.960 . S
C404 H391 0.960 . S
C404 C403 1.524 . S
C405 C402 1.403 . S
C405 C406 1.392 1_455 S
C405 C409 1.495 . S
C406 C405 1.392 1_655 S
C406 C407 1.385 . S
C406 C408 1.478 . S
C407 H401 0.930 . S
C407 C403 1.400 1_655 S
C407 C406 1.385 . S
C408 C406 1.478 . S
C408 C410 1.381 . S
C408 C414 1.383 . S
C409 C405 1.495 . S
C409 H415 0.959 . S
C409 H416 0.963 . S
C409 H417 0.960 . S
C410 C408 1.381 . S
C410 C411 1.394 . S
C410 H418 0.930 . S
C411 C410 1.394 . S
C411 C412 1.383 . S
C411 H419 0.929 . S
C412 C411 1.383 . S
C412 C413 1.377 . S
C413 H397 0.930 . S
C413 C412 1.377 . S
C413 C414 1.379 . S
C414 H398 0.931 . S
C414 C408 1.383 . S
C414 C413 1.379 . S
H415 C409 0.959 . S
H416 C409 0.963 . S
H417 C409 0.960 . S
H418 C410 0.930 . S
H419 C411 0.929 . S
H420 C428 0.929 . S
H421 C430 0.930 . S
H422 C432 0.930 . S
H423 C435 0.929 . S
H424 C438 0.930 . S
H425 C440 0.960 . S
H426 C440 0.960 . S
H427 C440 0.960 . S
C428 H420 0.929 . S
C428 C429 1.377 . S
C428 C430 1.384 . S
C429 C428 1.377 . S
C429 C435 1.390 . S
C430 H421 0.930 . S
C430 C428 1.384 . S
C430 C431 1.372 . S
C431 C430 1.372 . S
C431 C432 1.400 . S
C431 C436 1.490 . S
C432 H422 0.930 . S
C432 C431 1.400 . S
C432 C435 1.386 . S
H433 C449 0.930 . S
H434 C450 0.931 . S
C435 H423 0.929 . S
C435 C429 1.390 . S
C435 C432 1.386 . S
C436 C431 1.490 . S
C436 C438 1.395 . S
C436 C439 1.403 . S
H437 C443 0.930 . S
C438 H424 0.930 . S
C438 C436 1.395 . S
C438 C441 1.403 1_545 S
C439 C436 1.403 . S
C439 C440 1.524 . S
C439 C443 1.400 . S
C440 H425 0.960 . S
C440 H426 0.960 . S
C440 H427 0.960 . S
C440 C439 1.524 . S
C441 C438 1.403 1_565 S
C441 C442 1.392 . S
C441 C445 1.495 . S
C442 C441 1.392 . S
C442 C443 1.385 1_565 S
C442 C444 1.478 . S
C443 H437 0.930 . S
C443 C439 1.400 . S
C443 C442 1.385 1_545 S
C444 C442 1.478 . S
C444 C446 1.381 . S
C444 C450 1.383 . S
C445 C441 1.495 . S
C445 H451 0.959 . S
C445 H452 0.961 . S
C445 H453 0.960 . S
C446 C444 1.381 . S
C446 C447 1.394 . S
C446 H454 0.930 . S
C447 C446 1.394 . S
C447 C448 1.383 . S
C447 H455 0.929 . S
C448 C447 1.383 . S
C448 C449 1.377 . S
C449 H433 0.930 . S
C449 C448 1.377 . S
C449 C450 1.379 . S
C450 H434 0.931 . S
C450 C444 1.383 . S
C450 C449 1.379 . S
H451 C445 0.959 . S
H452 C445 0.961 . S
H453 C445 0.960 . S
H454 C446 0.930 . S
H455 C447 0.929 . S
H456 C464 0.929 . S
H457 C466 0.930 . S
H458 C468 0.930 . S
H459 C471 0.929 . S
H460 C474 0.930 . S
H461 C476 0.960 . S
H462 C476 0.960 . S
H463 C476 0.960 . S
C464 H456 0.929 . S
C464 C465 1.377 . S
C464 C466 1.384 . S
C465 C464 1.377 . S
C465 C471 1.390 . S
C466 H457 0.930 . S
C466 C464 1.384 . S
C466 C467 1.372 . S
C467 C466 1.372 . S
C467 C468 1.400 . S
C467 C472 1.490 . S
C468 H458 0.930 . S
C468 C467 1.400 . S
C468 C471 1.386 . S
H469 C485 0.930 . S
H470 C486 0.931 . S
C471 H459 0.929 . S
C471 C465 1.390 . S
C471 C468 1.386 . S
C472 C467 1.490 . S
C472 C474 1.395 . S
C472 C475 1.403 . S
H473 C479 0.930 . S
C474 H460 0.930 . S
C474 C472 1.395 . S
C474 C477 1.403 . S
C475 C472 1.403 . S
C475 C476 1.524 . S
C475 C479 1.400 . S
C476 H461 0.960 . S
C476 H462 0.960 . S
C476 H463 0.960 . S
C476 C475 1.524 . S
C477 C474 1.403 . S
C477 C478 1.392 . S
C477 C481 1.495 . S
C478 C477 1.392 . S
C478 C479 1.385 . S
C478 C480 1.478 . S
C479 H473 0.930 . S
C479 C475 1.400 . S
C479 C478 1.385 . S
C480 C478 1.478 . S
C480 C482 1.405 . S
C480 C486 1.383 . S
C481 C477 1.495 . S
C481 H487 0.959 . S
C481 H488 0.961 . S
C481 H489 0.960 . S
C482 C480 1.405 . S
C482 C483 1.375 1_655 S
C482 H490 0.926 1_655 S
C483 C482 1.375 1_455 S
C483 C484 1.383 . S
C483 H491 0.929 . S
C484 C483 1.383 . S
C484 C485 1.377 1_455 S
C485 H469 0.930 . S
C485 C484 1.377 1_655 S
C485 C486 1.379 . S
C486 H470 0.931 . S
C486 C480 1.383 . S
C486 C485 1.379 . S
H487 C481 0.959 . S
H488 C481 0.961 . S
H489 C481 0.960 . S
H490 C482 0.926 1_455 S
H491 C483 0.929 . S
H492 C500 0.929 . S
H493 C502 0.930 . S
H494 C504 0.930 . S
H495 C507 0.929 . S
H496 C510 0.930 . S
H497 C512 0.960 . S
H498 C512 0.960 . S
H499 C512 0.960 . S
C500 H492 0.929 . S
C500 C501 1.377 . S
C500 C502 1.384 1_655 S
C501 C500 1.377 . S
C501 C507 1.390 1_655 S
C502 H493 0.930 . S
C502 C500 1.384 1_455 S
C502 C503 1.372 . S
C503 C502 1.372 . S
C503 C504 1.400 . S
C503 C508 1.490 . S
C504 H494 0.930 . S
C504 C503 1.400 . S
C504 C507 1.386 . S
H505 C521 0.930 . S
H506 C522 0.931 1_545 S
C507 H495 0.929 . S
C507 C501 1.390 1_455 S
C507 C504 1.386 . S
C508 C503 1.490 . S
C508 C510 1.395 . S
C508 C511 1.403 . S
H509 C515 0.930 . S
C510 H496 0.930 . S
C510 C508 1.395 . S
C510 C513 1.403 . S
C511 C508 1.403 . S
C511 C512 1.524 . S
C511 C515 1.400 . S
C512 H497 0.960 . S
C512 H498 0.960 . S
C512 H499 0.960 . S
C512 C511 1.524 . S
C513 C510 1.403 . S
C513 C514 1.392 . S
C513 C517 1.495 . S
C514 C513 1.392 . S
C514 C515 1.385 . S
C514 C516 1.478 . S
C515 H509 0.930 . S
C515 C511 1.400 . S
C515 C514 1.385 . S
C516 C514 1.478 . S
C516 C518 1.381 . S
C516 C522 1.383 . S
C517 C513 1.495 . S
C517 H523 0.959 . S
C517 H524 0.961 . S
C517 H525 0.960 . S
C518 C516 1.381 . S
C518 C519 1.394 . S
C518 H526 0.930 . S
C519 C518 1.394 . S
C519 C520 1.383 1_565 S
C519 H527 0.929 . S
C520 C519 1.383 1_545 S
C520 C521 1.377 . S
C521 H505 0.930 . S
C521 C520 1.377 . S
C521 C522 1.379 1_545 S
C522 H506 0.931 1_565 S
C522 C516 1.383 . S
C522 C521 1.379 1_565 S
H523 C517 0.959 . S
H524 C517 0.961 . S
H525 C517 0.960 . S
H526 C518 0.930 . S
H527 C519 0.929 . S
H528 C536 0.929 1_565 S
H529 C538 0.930 . S
H530 C540 0.930 . S
H531 C543 0.929 . S
H532 C546 0.930 . S
H533 C548 0.960 . S
H534 C548 0.960 . S
H535 C548 0.960 . S
C536 H528 0.929 1_545 S
C536 C537 1.377 1_545 S
C536 C538 1.384 . S
C537 C536 1.377 1_565 S
C537 C543 1.390 1_565 S
C538 H529 0.930 . S
C538 C536 1.384 . S
C538 C539 1.372 . S
C539 C538 1.372 . S
C539 C540 1.400 . S
C539 C544 1.490 . S
C540 H530 0.930 . S
C540 C539 1.400 . S
C540 C543 1.386 . S
H541 C557 0.930 . S
H542 C558 0.931 . S
C543 H531 0.929 . S
C543 C537 1.390 1_545 S
C543 C540 1.386 . S
C544 C539 1.490 . S
C544 C546 1.395 . S
C544 C547 1.403 . S
H545 C551 0.930 . S
C546 H532 0.930 . S
C546 C544 1.395 . S
C546 C549 1.403 . S
C547 C544 1.403 . S
C547 C548 1.524 . S
C547 C551 1.400 . S
C548 H533 0.960 . S
C548 H534 0.960 . S
C548 H535 0.960 . S
C548 C547 1.524 . S
C549 C546 1.403 . S
C549 C550 1.392 . S
C549 C553 1.495 . S
C550 C549 1.392 . S
C550 C551 1.385 . S
C550 C552 1.478 . S
C551 H545 0.930 . S
C551 C547 1.400 . S
C551 C550 1.385 . S
C552 C550 1.478 . S
C552 C554 1.381 . S
C552 C558 1.383 . S
C553 C549 1.495 . S
C553 H559 0.959 . S
C553 H560 0.961 . S
C553 H561 0.960 . S
C554 C552 1.381 . S
C554 C555 1.394 . S
C554 H562 0.930 . S
C555 C554 1.394 . S
C555 C556 1.383 . S
C555 H563 0.929 . S
C556 C555 1.383 . S
C556 C557 1.377 . S
C557 H541 0.930 . S
C557 C556 1.377 . S
C557 C558 1.379 . S
C558 H542 0.931 . S
C558 C552 1.383 . S
C558 C557 1.379 . S
H559 C553 0.959 . S
H560 C553 0.961 . S
H561 C553 0.960 . S
H562 C554 0.930 . S
H563 C555 0.929 . S
H564 C572 0.929 . S
H565 C574 0.930 . S
H566 C576 0.930 . S
H567 C579 0.929 . S
H568 C582 0.930 . S
H569 C584 0.960 1_565 S
H570 C584 0.960 . S
H571 C584 0.960 1_554 S
C572 H564 0.929 . S
C572 C573 1.377 1_556 S
C572 C574 1.384 . S
C573 C572 1.377 1_554 S
C573 C579 1.390 . S
C574 H565 0.930 . S
C574 C572 1.384 . S
C574 C575 1.372 1_556 S
C575 C574 1.372 1_554 S
C575 C576 1.400 . S
C575 C580 1.490 . S
C576 H566 0.930 . S
C576 C575 1.400 . S
C576 C579 1.386 . S
H577 C593 0.930 . S
H578 C594 0.931 . S
C579 H567 0.929 . S
C579 C573 1.390 . S
C579 C576 1.386 . S
C580 C575 1.490 . S
C580 C582 1.395 . S
C580 C583 1.403 . S
H581 C587 0.930 1_556 S
C582 H568 0.930 . S
C582 C580 1.395 . S
C582 C585 1.403 . S
C583 C580 1.403 . S
C583 C584 1.524 1_554 S
C583 C587 1.400 . S
C584 H569 0.960 1_545 S
C584 H570 0.960 . S
C584 H571 0.960 1_556 S
C584 C583 1.524 1_556 S
C585 C582 1.403 . S
C585 C586 1.392 . S
C585 C589 1.495 . S
C586 C585 1.392 . S
C586 C587 1.385 . S
C586 C588 1.478 . S
C587 H581 0.930 1_554 S
C587 C583 1.400 . S
C587 C586 1.385 . S
C588 C586 1.478 . S
C588 C590 1.381 1_554 S
C588 C594 1.383 . S
C589 C585 1.495 . S
C589 H595 0.959 . S
C589 H596 0.961 . S
C589 H597 0.960 . S
C590 C588 1.381 1_556 S
C590 C591 1.394 . S
C590 H598 0.930 . S
C591 C590 1.394 . S
C591 C592 1.383 1_546 S
C591 H599 0.929 . S
C592 C591 1.383 1_564 S
C592 C593 1.377 . S
C593 H577 0.930 . S
C593 C592 1.377 . S
C593 C594 1.379 1_565 S
C594 H578 0.931 . S
C594 C588 1.383 . S
C594 C593 1.379 1_545 S
H595 C589 0.959 . S
H596 C589 0.961 . S
H597 C589 0.960 . S
H598 C590 0.930 . S
H599 C591 0.929 . S
H600 C608 0.929 . S
H601 C610 0.930 . S
H602 C612 0.930 . S
H603 C615 0.929 . S
H604 C618 0.930 . S
H605 C620 0.960 . S
H606 C620 0.960 . S
H607 C620 0.960 . S
C608 H600 0.929 . S
C608 C609 1.377 . S
C608 C610 1.384 . S
C609 C608 1.377 . S
C609 C615 1.390 . S
C610 H601 0.930 . S
C610 C608 1.384 . S
C610 C611 1.372 . S
C611 C610 1.372 . S
C611 C612 1.400 . S
C611 C616 1.490 . S
C612 H602 0.930 . S
C612 C611 1.400 . S
C612 C615 1.386 . S
H613 C629 0.930 . S
H614 C630 0.931 . S
C615 H603 0.929 . S
C615 C609 1.390 . S
C615 C612 1.386 . S
C616 C611 1.490 . S
C616 C618 1.395 . S
C616 C619 1.403 . S
H617 C623 0.930 . S
C618 H604 0.930 . S
C618 C616 1.395 . S
C618 C621 1.403 . S
C619 C616 1.403 . S
C619 C620 1.524 . S
C619 C623 1.400 . S
C620 H605 0.960 . S
C620 H606 0.960 . S
C620 H607 0.960 . S
C620 C619 1.524 . S
C621 C618 1.403 . S
C621 C622 1.392 . S
C621 C625 1.495 . S
C622 C621 1.392 . S
C622 C623 1.385 . S
C622 C624 1.478 . S
C623 H617 0.930 . S
C623 C619 1.400 . S
C623 C622 1.385 . S
C624 C622 1.478 . S
C624 C626 1.381 . S
C624 C630 1.383 . S
C625 C621 1.495 . S
C625 H631 0.959 . S
C625 H632 0.961 . S
C625 H633 0.960 . S
C626 C624 1.381 . S
C626 C627 1.394 . S
C626 H634 0.930 . S
C627 C626 1.394 . S
C627 C628 1.383 . S
C627 H635 0.929 . S
C628 C627 1.383 . S
C628 C629 1.377 . S
C629 H613 0.930 . S
C629 C628 1.377 . S
C629 C630 1.379 . S
C630 H614 0.931 . S
C630 C624 1.383 . S
C630 C629 1.379 . S
H631 C625 0.959 . S
H632 C625 0.961 . S
H633 C625 0.960 . S
H634 C626 0.930 . S
H635 C627 0.929 . S
H636 C644 0.929 . S
H637 C646 0.930 . S
H638 C648 0.930 . S
H639 C651 0.929 . S
H640 C654 0.930 . S
H641 C656 0.960 . S
H642 C656 0.960 . S
H643 C656 0.960 . S
C644 H636 0.929 . S
C644 C645 1.377 . S
C644 C646 1.384 . S
C645 C644 1.377 . S
C645 C651 1.390 1_655 S
C646 H637 0.930 . S
C646 C644 1.384 . S
C646 C647 1.372 1_655 S
C647 C646 1.372 1_455 S
C647 C648 1.400 . S
C647 C652 1.490 . S
C648 H638 0.930 . S
C648 C647 1.400 . S
C648 C651 1.386 . S
H649 C665 0.930 . S
H650 C666 0.931 . S
C651 H639 0.929 . S
C651 C645 1.390 1_455 S
C651 C648 1.386 . S
C652 C647 1.490 . S
C652 C654 1.395 . S
C652 C655 1.403 . S
H653 C659 0.930 . S
C654 H640 0.930 . S
C654 C652 1.395 . S
C654 C657 1.403 . S
C655 C652 1.403 . S
C655 C656 1.524 . S
C655 C659 1.400 . S
C656 H641 0.960 . S
C656 H642 0.960 . S
C656 H643 0.960 . S
C656 C655 1.524 . S
C657 C654 1.403 . S
C657 C658 1.392 . S
C657 C661 1.495 . S
C658 C657 1.392 . S
C658 C659 1.385 . S
C658 C660 1.478 . S
C659 H653 0.930 . S
C659 C655 1.400 . S
C659 C658 1.385 . S
C660 C658 1.478 . S
C660 C662 1.381 . S
C660 C666 1.383 . S
C661 C657 1.495 . S
C661 H667 0.959 . S
C661 H668 0.961 . S
C661 H669 0.960 . S
C662 C660 1.381 . S
C662 C663 1.394 . S
C662 H670 0.930 . S
C663 C662 1.394 . S
C663 C664 1.383 . S
C663 H671 0.929 . S
C664 C663 1.383 . S
C664 C665 1.377 . S
C665 H649 0.930 . S
C665 C664 1.377 . S
C665 C666 1.379 . S
C666 H650 0.931 . S
C666 C660 1.383 . S
C666 C665 1.379 . S
H667 C661 0.959 . S
H668 C661 0.961 . S
H669 C661 0.960 . S
H670 C662 0.930 . S
H671 C663 0.929 . S
H672 C680 0.929 . S
H673 C682 0.930 . S
H674 C684 0.930 . S
H675 C687 0.929 . S
H676 C690 0.930 . S
H677 C692 0.960 . S
H678 C692 0.960 . S
H679 C692 0.960 . S
C680 H672 0.929 . S
C680 C681 1.377 . S
C680 C682 1.384 . S
C681 C680 1.377 . S
C681 C687 1.390 . S
C682 H673 0.930 . S
C682 C680 1.384 . S
C682 C683 1.372 . S
C683 C682 1.372 . S
C683 C684 1.400 . S
C683 C688 1.490 . S
C684 H674 0.930 . S
C684 C683 1.400 . S
C684 C687 1.386 . S
H685 C701 0.930 . S
H686 C702 0.931 . S
C687 H675 0.929 . S
C687 C681 1.390 . S
C687 C684 1.386 . S
C688 C683 1.490 . S
C688 C690 1.395 . S
C688 C691 1.403 . S
H689 C695 0.930 . S
C690 H676 0.930 . S
C690 C688 1.395 . S
C690 C693 1.403 . S
C691 C688 1.403 . S
C691 C692 1.524 . S
C691 C695 1.400 . S
C692 H677 0.960 . S
C692 H678 0.960 . S
C692 H679 0.960 . S
C692 C691 1.524 . S
C693 C690 1.403 . S
C693 C694 1.392 . S
C693 C697 1.495 . S
C694 C693 1.392 . S
C694 C695 1.385 . S
C694 C696 1.478 . S
C695 H689 0.930 . S
C695 C691 1.400 . S
C695 C694 1.385 . S
C696 C694 1.478 . S
C696 C698 1.381 . S
C696 C702 1.383 . S
C697 C693 1.495 . S
C697 H703 0.959 . S
C697 H704 0.961 . S
C697 H705 0.960 . S
C698 C696 1.381 . S
C698 C699 1.394 . S
C698 H706 0.930 . S
C699 C698 1.394 . S
C699 C700 1.383 . S
C699 H707 0.929 . S
C700 C699 1.383 . S
C700 C701 1.377 . S
C701 H685 0.930 . S
C701 C700 1.377 . S
C701 C702 1.379 . S
C702 H686 0.931 . S
C702 C696 1.383 . S
C702 C701 1.379 . S
H703 C697 0.959 . S
H704 C697 0.961 . S
H705 C697 0.960 . S
H706 C698 0.930 . S
H707 C699 0.929 . S
H708 C716 0.929 . S
H709 C718 0.930 . S
H710 C720 0.930 . S
H711 C723 0.929 . S
H712 C726 0.930 . S
H713 C728 0.960 . S
H714 C728 0.960 . S
H715 C728 0.960 . S
C716 H708 0.929 . S
C716 C717 1.377 . S
C716 C718 1.384 . S
C717 C716 1.377 . S
C717 C723 1.390 . S
C718 H709 0.930 . S
C718 C716 1.384 . S
C718 C719 1.372 . S
C719 C718 1.372 . S
C719 C720 1.400 . S
C719 C724 1.490 . S
C720 H710 0.930 . S
C720 C719 1.400 . S
C720 C723 1.386 . S
H721 C737 0.930 . S
H722 C738 0.931 . S
C723 H711 0.929 . S
C723 C717 1.390 . S
C723 C720 1.386 . S
C724 C719 1.490 . S
C724 C726 1.395 . S
C724 C727 1.403 . S
H725 C731 0.930 . S
C726 H712 0.930 . S
C726 C724 1.395 . S
C726 C729 1.403 . S
C727 C724 1.403 . S
C727 C728 1.524 . S
C727 C731 1.400 . S
C728 H713 0.960 . S
C728 H714 0.960 . S
C728 H715 0.960 . S
C728 C727 1.524 . S
C729 C726 1.403 . S
C729 C730 1.392 . S
C729 C733 1.495 . S
C730 C729 1.392 . S
C730 C731 1.385 . S
C730 C732 1.478 . S
C731 H725 0.930 . S
C731 C727 1.400 . S
C731 C730 1.385 . S
C732 C730 1.478 . S
C732 C734 1.381 . S
C732 C738 1.383 . S
C733 C729 1.495 . S
C733 H739 0.959 . S
C733 H740 0.961 . S
C733 H741 0.960 . S
C734 C732 1.381 . S
C734 C735 1.394 . S
C734 H742 0.930 . S
C735 C734 1.394 . S
C735 C736 1.383 . S
C735 H743 0.929 . S
C736 C735 1.383 . S
C736 C737 1.377 . S
C737 H721 0.930 . S
C737 C736 1.377 . S
C737 C738 1.379 . S
C738 H722 0.931 . S
C738 C732 1.383 . S
C738 C737 1.379 . S
H739 C733 0.959 . S
H740 C733 0.961 . S
H741 C733 0.960 . S
H742 C734 0.930 . S
H743 C735 0.929 . S
H744 C752 0.929 . S
H745 C754 0.930 . S
H746 C756 0.930 . S
H747 C759 0.929 . S
H748 C762 0.930 . S
H749 C764 0.960 . S
H750 C764 0.960 . S
H751 C764 0.960 . S
C752 H744 0.929 . S
C752 C753 1.377 . S
C752 C754 1.384 . S
C753 C752 1.377 . S
C753 C759 1.390 . S
C754 H745 0.930 . S
C754 C752 1.384 . S
C754 C755 1.372 . S
C755 C754 1.372 . S
C755 C756 1.400 . S
C755 C760 1.490 . S
C756 H746 0.930 . S
C756 C755 1.400 . S
C756 C759 1.386 . S
H757 C773 0.930 . S
H758 C774 0.931 . S
C759 H747 0.929 . S
C759 C753 1.390 . S
C759 C756 1.386 . S
C760 C755 1.490 . S
C760 C762 1.395 . S
C760 C763 1.403 . S
H761 C767 0.930 . S
C762 H748 0.930 . S
C762 C760 1.395 . S
C762 C765 1.403 . S
C763 C760 1.403 . S
C763 C764 1.524 . S
C763 C767 1.400 . S
C764 H749 0.960 . S
C764 H750 0.960 . S
C764 H751 0.960 . S
C764 C763 1.524 . S
C765 C762 1.403 . S
C765 C766 1.392 . S
C765 C769 1.495 . S
C766 C765 1.392 . S
C766 C767 1.385 . S
C766 C768 1.478 . S
C767 H761 0.930 . S
C767 C763 1.400 . S
C767 C766 1.385 . S
C768 C766 1.478 . S
C768 C770 1.381 . S
C768 C774 1.383 . S
C769 C765 1.495 . S
C769 H775 0.959 . S
C769 H776 0.961 . S
C769 H777 0.960 . S
C770 C768 1.381 . S
C770 C771 1.394 . S
C770 H778 0.930 . S
C771 C770 1.394 . S
C771 C772 1.383 . S
C771 H779 0.929 . S
C772 C771 1.383 . S
C772 C773 1.377 . S
C773 H757 0.930 . S
C773 C772 1.377 . S
C773 C774 1.379 . S
C774 H758 0.931 . S
C774 C768 1.383 . S
C774 C773 1.379 . S
H775 C769 0.959 . S
H776 C769 0.961 . S
H777 C769 0.960 . S
H778 C770 0.930 . S
H779 C771 0.929 . S
H780 C788 0.929 . S
H781 C790 0.930 . S
H782 C792 0.930 . S
H783 C795 0.929 . S
H784 C798 0.930 . S
H785 C800 0.960 . S
H786 C800 0.960 . S
H787 C800 0.960 . S
C788 H780 0.929 . S
C788 C789 1.377 . S
C788 C790 1.384 . S
C789 C788 1.377 . S
C789 C795 1.390 . S
C790 H781 0.930 . S
C790 C788 1.384 . S
C790 C791 1.372 . S
C791 C790 1.372 . S
C791 C792 1.400 . S
C791 C796 1.490 . S
C792 H782 0.930 . S
C792 C791 1.400 . S
C792 C795 1.386 . S
H793 C809 0.930 . S
H794 C810 0.931 . S
C795 H783 0.929 . S
C795 C789 1.390 . S
C795 C792 1.386 . S
C796 C791 1.490 . S
C796 C798 1.395 . S
C796 C799 1.403 . S
H797 C803 0.930 . S
C798 H784 0.930 . S
C798 C796 1.395 . S
C798 C801 1.403 . S
C799 C796 1.403 . S
C799 C800 1.524 . S
C799 C803 1.400 . S
C800 H785 0.960 . S
C800 H786 0.960 . S
C800 H787 0.960 . S
C800 C799 1.524 . S
C801 C798 1.403 . S
C801 C802 1.392 . S
C801 C805 1.495 . S
C802 C801 1.392 . S
C802 C803 1.385 . S
C802 C804 1.478 . S
C803 H797 0.930 . S
C803 C799 1.400 . S
C803 C802 1.385 . S
C804 C802 1.478 . S
C804 C806 1.381 . S
C804 C810 1.383 . S
C805 C801 1.495 . S
C805 H811 0.959 . S
C805 H812 0.961 . S
C805 H813 0.960 . S
C806 C804 1.381 . S
C806 C807 1.394 . S
C806 H814 0.930 . S
C807 C806 1.394 . S
C807 C808 1.383 . S
C807 H815 0.929 . S
C808 C807 1.383 . S
C808 C809 1.377 . S
C809 H793 0.930 . S
C809 C808 1.377 . S
C809 C810 1.379 . S
C810 H794 0.931 . S
C810 C804 1.383 . S
C810 C809 1.379 . S
H811 C805 0.959 . S
H812 C805 0.961 . S
H813 C805 0.960 . S
H814 C806 0.930 . S
H815 C807 0.929 . S
H816 C824 0.930 1_455 S
H817 C826 0.930 . S
H818 C828 0.930 . S
H819 C831 0.929 . S
H820 C834 0.930 . S
H821 C836 0.960 . S
H822 C836 0.960 . S
H823 C836 0.960 . S
C824 H816 0.930 1_655 S
C824 C825 1.377 . S
C824 C826 1.384 1_655 S
C825 C824 1.377 . S
C825 C831 1.390 . S
C826 H817 0.930 . S
C826 C824 1.384 1_455 S
C826 C827 1.372 1_455 S
C827 C826 1.372 1_655 S
C827 C828 1.400 . S
C827 C832 1.490 1_655 S
C828 H818 0.930 . S
C828 C827 1.400 . S
C828 C831 1.386 . S
H829 C845 0.930 . S
H830 C846 0.931 . S
C831 H819 0.929 . S
C831 C825 1.390 . S
C831 C828 1.386 . S
C832 C827 1.490 1_455 S
C832 C834 1.395 1_455 S
C832 C835 1.403 . S
H833 C839 0.930 . S
C834 H820 0.930 . S
C834 C832 1.395 1_655 S
C834 C837 1.401 1_655 S
C835 C832 1.403 . S
C835 C836 1.524 . S
C835 C839 1.400 . S
C836 H821 0.960 . S
C836 H822 0.960 . S
C836 H823 0.960 . S
C836 C835 1.524 . S
C837 C834 1.401 1_455 S
C837 C838 1.407 . S
C837 C841 1.483 1_455 S
C838 C837 1.407 . S
C838 C839 1.385 . S
C838 C840 1.478 . S
C839 H833 0.930 . S
C839 C835 1.400 . S
C839 C838 1.385 . S
C840 C838 1.478 . S
C840 C842 1.381 . S
C840 C846 1.383 . S
C841 C837 1.483 1_655 S
C841 H847 0.959 . S
C841 H848 0.961 . S
C841 H849 0.960 1_655 S
C842 C840 1.381 . S
C842 C843 1.394 . S
C842 H850 0.930 . S
C843 C842 1.394 . S
C843 C844 1.383 . S
C843 H851 0.929 . S
C844 C843 1.383 . S
C844 C845 1.377 . S
C845 H829 0.930 . S
C845 C844 1.377 . S
C845 C846 1.379 . S
C846 H830 0.931 . S
C846 C840 1.383 . S
C846 C845 1.379 . S
H847 C841 0.959 . S
H848 C841 0.961 . S
H849 C841 0.960 1_455 S
H850 C842 0.930 . S
H851 C843 0.929 . S
H852 C860 0.929 . S
H853 C862 0.930 . S
H854 C864 0.930 . S
H855 C867 0.929 . S
H856 C870 0.930 . S
H857 C872 0.960 . S
H858 C872 0.960 . S
H859 C872 0.960 . S
C860 H852 0.929 . S
C860 C861 1.377 . S
C860 C862 1.384 . S
C861 C860 1.377 . S
C861 C867 1.390 1_565 S
C862 H853 0.930 . S
C862 C860 1.384 . S
C862 C863 1.372 . S
C863 C862 1.372 . S
C863 C864 1.400 1_565 S
C863 C868 1.490 1_565 S
C864 H854 0.930 . S
C864 C863 1.400 1_545 S
C864 C867 1.386 . S
H865 C881 0.930 . S
H866 C882 0.931 . S
C867 H855 0.929 . S
C867 C861 1.390 1_545 S
C867 C864 1.386 . S
C868 C863 1.490 1_545 S
C868 C870 1.395 1_545 S
C868 C871 1.403 . S
H869 C875 0.930 . S
C870 H856 0.930 . S
C870 C868 1.395 1_565 S
C870 C873 1.403 . S
C871 C868 1.403 . S
C871 C872 1.524 . S
C871 C875 1.400 . S
C872 H857 0.960 . S
C872 H858 0.960 . S
C872 H859 0.960 . S
C872 C871 1.524 . S
C873 C870 1.403 . S
C873 C874 1.392 1_565 S
C873 C877 1.495 . S
C874 C873 1.392 1_545 S
C874 C875 1.385 . S
C874 C876 1.478 . S
C875 H869 0.930 . S
C875 C871 1.400 . S
C875 C874 1.385 . S
C876 C874 1.478 . S
C876 C878 1.381 . S
C876 C882 1.383 . S
C877 C873 1.495 . S
C877 H883 0.959 . S
C877 H884 0.961 . S
C877 H885 0.960 . S
C878 C876 1.381 . S
C878 C879 1.394 . S
C878 H886 0.930 1_545 S
C879 C878 1.394 . S
C879 C880 1.383 . S
C879 H887 0.929 . S
C880 C879 1.383 . S
C880 C881 1.377 . S
C881 H865 0.930 . S
C881 C880 1.377 . S
C881 C882 1.379 . S
C882 H866 0.931 . S
C882 C876 1.383 . S
C882 C881 1.379 . S
H883 C877 0.959 . S
H884 C877 0.961 . S
H885 C877 0.960 . S
H886 C878 0.930 1_565 S
H887 C879 0.929 . S
C249 C129 1.157 1_565 S
C268 C9 1.197 . S
C285 C169 1.155 . S
C304 C49 1.199 . S
C321 C209 1.148 . S
C340 C89 1.172 1_655 S
C357 C15 0.558 . S
C376 C86 0.579 . S
C393 C55 0.596 . S
C412 C126 0.503 . S
C429 C95 0.557 . S
C448 C166 0.608 . S
C465 C135 0.561 . S
C484 C206 0.626 . S
C501 C175 0.593 . S
C520 C6 0.466 . S
C537 C215 0.575 . S
C556 C46 0.623 . S
C573 C18 0.989 . S
C592 C138 0.995 . S
C609 C58 0.993 . S
C628 C178 0.973 . S
C645 C98 0.992 . S
C664 C218 1.011 . S
C681 C10 3.891 . S
C700 C59 3.936 . S
C717 C50 3.889 . S
C736 C99 3.934 . S
C753 C90 3.889 . S
C772 C139 3.939 . S
C789 C130 3.891 . S
C808 C179 3.936 . S
C825 C170 3.888 . S
C844 C219 3.940 . S
C861 C210 3.888 . S
C880 C19 3.936 . S
