# Generated by pormake.
# Topology yfu, (5)-cn, num edge types: 1
# Building blocks:
#     Node 0, Type 0, BuildingBlock: XOMCOT_clean_sbu_1, # of connection points: 5
#     Node 1, Type 0, BuildingBlock: XOMCOT_clean_sbu_1, # of connection points: 5
#     Node 2, Type 0, BuildingBlock: XOMCOT_clean_sbu_1, # of connection points: 5
#     Node 3, Type 0, BuildingBlock: XOMCOT_clean_sbu_1, # of connection points: 5
#     Node 4, Type 0, BuildingBlock: XOMCOT_clean_sbu_1, # of connection points: 5
#     Node 5, Type 0, BuildingBlock: XOMCOT_clean_sbu_1, # of connection points: 5
#     Node 6, Type 0, BuildingBlock: XOMCOT_clean_sbu_1, # of connection points: 5
#     Node 7, Type 0, BuildingBlock: XOMCOT_clean_sbu_1, # of connection points: 5
#     Node 8, Type 0, BuildingBlock: XOMCOT_clean_sbu_1, # of connection points: 5
#     Node 9, Type 0, BuildingBlock: XOMCOT_clean_sbu_1, # of connection points: 5
#     Node 10, Type 0, BuildingBlock: XOMCOT_clean_sbu_1, # of connection points: 5
#     Node 11, Type 0, BuildingBlock: XOMCOT_clean_sbu_1, # of connection points: 5
#     Node 12, Type 0, BuildingBlock: XOMCOT_clean_sbu_1, # of connection points: 5
#     Node 13, Type 0, BuildingBlock: XOMCOT_clean_sbu_1, # of connection points: 5
#     Node 14, Type 0, BuildingBlock: XOMCOT_clean_sbu_1, # of connection points: 5
#     Node 15, Type 0, BuildingBlock: XOMCOT_clean_sbu_1, # of connection points: 5
#     Node 16, Type 0, BuildingBlock: XOMCOT_clean_sbu_1, # of connection points: 5
#     Node 17, Type 0, BuildingBlock: XOMCOT_clean_sbu_1, # of connection points: 5
#     Node 18, Type 0, BuildingBlock: XOMCOT_clean_sbu_1, # of connection points: 5
#     Node 19, Type 0, BuildingBlock: XOMCOT_clean_sbu_1, # of connection points: 5
#     Node 20, Type 0, BuildingBlock: XOMCOT_clean_sbu_1, # of connection points: 5
#     Node 21, Type 0, BuildingBlock: XOMCOT_clean_sbu_1, # of connection points: 5
#     Node 22, Type 0, BuildingBlock: XOMCOT_clean_sbu_1, # of connection points: 5
#     Node 23, Type 0, BuildingBlock: XOMCOT_clean_sbu_1, # of connection points: 5
#     Node 24, Type 0, BuildingBlock: XOMCOT_clean_sbu_1, # of connection points: 5
#     Node 25, Type 0, BuildingBlock: XOMCOT_clean_sbu_1, # of connection points: 5
#     Node 26, Type 0, BuildingBlock: XOMCOT_clean_sbu_1, # of connection points: 5
#     Node 27, Type 0, BuildingBlock: XOMCOT_clean_sbu_1, # of connection points: 5
#     Node 28, Type 0, BuildingBlock: XOMCOT_clean_sbu_1, # of connection points: 5
#     Node 29, Type 0, BuildingBlock: XOMCOT_clean_sbu_1, # of connection points: 5
#     Node 30, Type 0, BuildingBlock: XOMCOT_clean_sbu_1, # of connection points: 5
#     Node 31, Type 0, BuildingBlock: XOMCOT_clean_sbu_1, # of connection points: 5
#     Edge 32, Type (0, 0), BuildingBlock: AJUNOK_clean_linker_0, # of connection points: 2
#     Edge 33, Type (0, 0), BuildingBlock: AJUNOK_clean_linker_0, # of connection points: 2
#     Edge 34, Type (0, 0), BuildingBlock: AJUNOK_clean_linker_0, # of connection points: 2
#     Edge 35, Type (0, 0), BuildingBlock: AJUNOK_clean_linker_0, # of connection points: 2
#     Edge 36, Type (0, 0), BuildingBlock: AJUNOK_clean_linker_0, # of connection points: 2
#     Edge 37, Type (0, 0), BuildingBlock: AJUNOK_clean_linker_0, # of connection points: 2
#     Edge 38, Type (0, 0), BuildingBlock: AJUNOK_clean_linker_0, # of connection points: 2
#     Edge 39, Type (0, 0), BuildingBlock: AJUNOK_clean_linker_0, # of connection points: 2
#     Edge 40, Type (0, 0), BuildingBlock: AJUNOK_clean_linker_0, # of connection points: 2
#     Edge 41, Type (0, 0), BuildingBlock: AJUNOK_clean_linker_0, # of connection points: 2
#     Edge 42, Type (0, 0), BuildingBlock: AJUNOK_clean_linker_0, # of connection points: 2
#     Edge 43, Type (0, 0), BuildingBlock: AJUNOK_clean_linker_0, # of connection points: 2
#     Edge 44, Type (0, 0), BuildingBlock: AJUNOK_clean_linker_0, # of connection points: 2
#     Edge 45, Type (0, 0), BuildingBlock: AJUNOK_clean_linker_0, # of connection points: 2
#     Edge 46, Type (0, 0), BuildingBlock: AJUNOK_clean_linker_0, # of connection points: 2
#     Edge 47, Type (0, 0), BuildingBlock: AJUNOK_clean_linker_0, # of connection points: 2
#     Edge 48, Type (0, 0), BuildingBlock: AJUNOK_clean_linker_0, # of connection points: 2
#     Edge 49, Type (0, 0), BuildingBlock: AJUNOK_clean_linker_0, # of connection points: 2
#     Edge 50, Type (0, 0), BuildingBlock: AJUNOK_clean_linker_0, # of connection points: 2
#     Edge 51, Type (0, 0), BuildingBlock: AJUNOK_clean_linker_0, # of connection points: 2
#     Edge 52, Type (0, 0), BuildingBlock: AJUNOK_clean_linker_0, # of connection points: 2
#     Edge 53, Type (0, 0), BuildingBlock: AJUNOK_clean_linker_0, # of connection points: 2
#     Edge 54, Type (0, 0), BuildingBlock: AJUNOK_clean_linker_0, # of connection points: 2
#     Edge 55, Type (0, 0), BuildingBlock: AJUNOK_clean_linker_0, # of connection points: 2
#     Edge 56, Type (0, 0), BuildingBlock: AJUNOK_clean_linker_0, # of connection points: 2
#     Edge 57, Type (0, 0), BuildingBlock: AJUNOK_clean_linker_0, # of connection points: 2
#     Edge 58, Type (0, 0), BuildingBlock: AJUNOK_clean_linker_0, # of connection points: 2
#     Edge 59, Type (0, 0), BuildingBlock: AJUNOK_clean_linker_0, # of connection points: 2
#     Edge 60, Type (0, 0), BuildingBlock: AJUNOK_clean_linker_0, # of connection points: 2
#     Edge 61, Type (0, 0), BuildingBlock: AJUNOK_clean_linker_0, # of connection points: 2
#     Edge 62, Type (0, 0), BuildingBlock: AJUNOK_clean_linker_0, # of connection points: 2
#     Edge 63, Type (0, 0), BuildingBlock: AJUNOK_clean_linker_0, # of connection points: 2
#     Edge 64, Type (0, 0), BuildingBlock: AJUNOK_clean_linker_0, # of connection points: 2
#     Edge 65, Type (0, 0), BuildingBlock: AJUNOK_clean_linker_0, # of connection points: 2
#     Edge 66, Type (0, 0), BuildingBlock: AJUNOK_clean_linker_0, # of connection points: 2
#     Edge 67, Type (0, 0), BuildingBlock: AJUNOK_clean_linker_0, # of connection points: 2
#     Edge 68, Type (0, 0), BuildingBlock: AJUNOK_clean_linker_0, # of connection points: 2
#     Edge 69, Type (0, 0), BuildingBlock: AJUNOK_clean_linker_0, # of connection points: 2
#     Edge 70, Type (0, 0), BuildingBlock: AJUNOK_clean_linker_0, # of connection points: 2
#     Edge 71, Type (0, 0), BuildingBlock: AJUNOK_clean_linker_0, # of connection points: 2
#     Edge 72, Type (0, 0), BuildingBlock: AJUNOK_clean_linker_0, # of connection points: 2
#     Edge 73, Type (0, 0), BuildingBlock: AJUNOK_clean_linker_0, # of connection points: 2
#     Edge 74, Type (0, 0), BuildingBlock: AJUNOK_clean_linker_0, # of connection points: 2
#     Edge 75, Type (0, 0), BuildingBlock: AJUNOK_clean_linker_0, # of connection points: 2
#     Edge 76, Type (0, 0), BuildingBlock: AJUNOK_clean_linker_0, # of connection points: 2
#     Edge 77, Type (0, 0), BuildingBlock: AJUNOK_clean_linker_0, # of connection points: 2
#     Edge 78, Type (0, 0), BuildingBlock: AJUNOK_clean_linker_0, # of connection points: 2
#     Edge 79, Type (0, 0), BuildingBlock: AJUNOK_clean_linker_0, # of connection points: 2
#     Edge 80, Type (0, 0), BuildingBlock: AJUNOK_clean_linker_0, # of connection points: 2
#     Edge 81, Type (0, 0), BuildingBlock: AJUNOK_clean_linker_0, # of connection points: 2
#     Edge 82, Type (0, 0), BuildingBlock: AJUNOK_clean_linker_0, # of connection points: 2
#     Edge 83, Type (0, 0), BuildingBlock: AJUNOK_clean_linker_0, # of connection points: 2
#     Edge 84, Type (0, 0), BuildingBlock: AJUNOK_clean_linker_0, # of connection points: 2
#     Edge 85, Type (0, 0), BuildingBlock: AJUNOK_clean_linker_0, # of connection points: 2
#     Edge 86, Type (0, 0), BuildingBlock: AJUNOK_clean_linker_0, # of connection points: 2
#     Edge 87, Type (0, 0), BuildingBlock: AJUNOK_clean_linker_0, # of connection points: 2
#     Edge 88, Type (0, 0), BuildingBlock: AJUNOK_clean_linker_0, # of connection points: 2
#     Edge 89, Type (0, 0), BuildingBlock: AJUNOK_clean_linker_0, # of connection points: 2
#     Edge 90, Type (0, 0), BuildingBlock: AJUNOK_clean_linker_0, # of connection points: 2
#     Edge 91, Type (0, 0), BuildingBlock: AJUNOK_clean_linker_0, # of connection points: 2
#     Edge 92, Type (0, 0), BuildingBlock: AJUNOK_clean_linker_0, # of connection points: 2
#     Edge 93, Type (0, 0), BuildingBlock: AJUNOK_clean_linker_0, # of connection points: 2
#     Edge 94, Type (0, 0), BuildingBlock: AJUNOK_clean_linker_0, # of connection points: 2
#     Edge 95, Type (0, 0), BuildingBlock: AJUNOK_clean_linker_0, # of connection points: 2
#     Edge 96, Type (0, 0), BuildingBlock: AJUNOK_clean_linker_0, # of connection points: 2
#     Edge 97, Type (0, 0), BuildingBlock: AJUNOK_clean_linker_0, # of connection points: 2
#     Edge 98, Type (0, 0), BuildingBlock: AJUNOK_clean_linker_0, # of connection points: 2
#     Edge 99, Type (0, 0), BuildingBlock: AJUNOK_clean_linker_0, # of connection points: 2
#     Edge 100, Type (0, 0), BuildingBlock: AJUNOK_clean_linker_0, # of connection points: 2
#     Edge 101, Type (0, 0), BuildingBlock: AJUNOK_clean_linker_0, # of connection points: 2
#     Edge 102, Type (0, 0), BuildingBlock: AJUNOK_clean_linker_0, # of connection points: 2
#     Edge 103, Type (0, 0), BuildingBlock: AJUNOK_clean_linker_0, # of connection points: 2
#     Edge 104, Type (0, 0), BuildingBlock: AJUNOK_clean_linker_0, # of connection points: 2
#     Edge 105, Type (0, 0), BuildingBlock: AJUNOK_clean_linker_0, # of connection points: 2
#     Edge 106, Type (0, 0), BuildingBlock: AJUNOK_clean_linker_0, # of connection points: 2
#     Edge 107, Type (0, 0), BuildingBlock: AJUNOK_clean_linker_0, # of connection points: 2
#     Edge 108, Type (0, 0), BuildingBlock: AJUNOK_clean_linker_0, # of connection points: 2
#     Edge 109, Type (0, 0), BuildingBlock: AJUNOK_clean_linker_0, # of connection points: 2
#     Edge 110, Type (0, 0), BuildingBlock: AJUNOK_clean_linker_0, # of connection points: 2
#     Edge 111, Type (0, 0), BuildingBlock: AJUNOK_clean_linker_0, # of connection points: 2
# Relax obj value: 0.460
# Max RMSD: 0.266
# Mean RMSD: 0.266
data_MOF--net-yfu--node1-XOMCOT_clean_sbu_1--edge1-AJUNOK_clean_linker_0
_symmetry_space_group_name_H-M    P1
_symmetry_Int_Tables_number       1
_symmetry_cell_setting            triclinic
loop_
_symmetry_equiv_pos_as_xyz
'x, y, z'
_cell_length_a     35.461996
_cell_length_b     35.393362
_cell_length_c     60.36444
_cell_angle_alpha  90.264656
_cell_angle_beta   90.106524
_cell_angle_gamma 89.842742
loop_
_atom_site_label
_atom_site_type_symbol
_atom_site_fract_x
_atom_site_fract_y
_atom_site_fract_z
_atom_type_partial_charge
C0 C 0.02535 0.1298 0.27724 0.0
C1 C 1.00651 0.16376 0.27464 0.0
N2 N 0.01972 0.1886 0.28968 0.0
N3 N 0.05114 0.13295 0.29366 0.0
C4 C 0.0463 0.16918 0.30108 0.0
H5 H 0.02145 0.10511 0.26696 0.0
Co6 Co 0.09135 0.0983 0.30158 0.0
C7 C 0.13146 0.16674 0.28963 0.0
O8 O 0.11663 0.16558 0.26968 0.0
N9 N 0.13275 0.06588 0.30966 0.0
C10 C 0.19268 0.04763 0.31396 0.0
C11 C 0.16868 0.07222 0.30329 0.0
C12 C 0.1359 0.0361 0.32374 0.0
N13 N 0.17214 0.02513 0.32715 0.0
O14 O 0.10261 0.08864 0.27094 0.0
H15 H 0.17725 0.0943 0.29206 0.0
H16 H 0.11224 0.02237 0.33138 0.0
O17 O 0.12444 0.14061 0.30348 0.0
C18 C 0.08321 0.05937 0.26608 0.0
O19 O 0.06082 0.04533 0.28125 0.0
N20 N 0.07765 0.10259 0.33106 0.0
C21 C 0.04253 0.09569 0.37212 0.0
C22 C 0.06261 0.12883 0.36662 0.0
C23 C 0.08153 0.13101 0.34622 0.0
C24 C 0.05848 0.07074 0.33621 0.0
C25 C 0.04386 0.06539 0.35712 0.0
H26 H 0.09706 0.15627 0.34216 0.0
H27 H 0.0549 0.04884 0.32387 0.0
H28 H 0.06397 0.18235 0.31345 0.0
H29 H 0.98544 0.17004 0.26217 0.0
H30 H 0.22313 0.0474 0.3127 0.0
H31 H 0.06219 0.15364 0.37711 0.0
H32 H 0.03109 0.03837 0.36068 0.0
C33 C 0.13688 0.78669 0.5416 0.0
C34 C 0.10543 0.76559 0.53573 0.0
N35 N 0.07813 0.77188 0.55084 0.0
N36 N 0.12938 0.80668 0.5602 0.0
C37 C 0.09374 0.79594 0.56556 0.0
H38 H 0.16234 0.78937 0.53193 0.0
Co39 Co 0.15378 0.85021 0.57264 0.0
C40 C 0.08167 0.88084 0.55833 0.0
O41 O 0.08675 0.86854 0.53799 0.0
N42 N 0.17445 0.89456 0.586 0.0
C43 C 0.17492 0.94046 0.61137 0.0
C44 C 0.15515 0.91088 0.60287 0.0
C45 C 0.20655 0.91542 0.58467 0.0
N46 N 0.20704 0.94383 0.59985 0.0
O47 O 0.16266 0.86949 0.54392 0.0
H48 H 0.12838 0.90124 0.60919 0.0
H49 H 0.22902 0.91018 0.57297 0.0
O50 O 0.10586 0.87425 0.57353 0.0
C51 C 0.19676 0.86215 0.53891 0.0
O52 O 0.21828 0.84554 0.5537 0.0
N53 N 0.15073 0.82939 0.60067 0.0
C54 C 0.16564 0.78869 0.63877 0.0
C55 C 0.12844 0.79989 0.63363 0.0
C56 C 0.12165 0.82155 0.61464 0.0
C57 C 0.18695 0.82152 0.60657 0.0
C58 C 0.19514 0.803 0.6261 0.0
H59 H 0.09329 0.83061 0.61088 0.0
H60 H 0.20983 0.82927 0.59572 0.0
H61 H 0.07732 0.809 0.57848 0.0
H62 H 0.10241 0.74842 0.52096 0.0
H63 H 0.16653 0.95795 0.62529 0.0
H64 H 0.10475 0.79028 0.64338 0.0
H65 H 0.22433 0.79733 0.63023 0.0
C66 C 0.49973 0.89891 0.77151 0.0
C67 C 0.51447 0.86303 0.76876 0.0
N68 N 0.50188 0.84112 0.78532 0.0
N69 N 0.47746 0.89979 0.78961 0.0
C70 C 0.47951 0.86399 0.79764 0.0
H71 H 0.50492 0.92285 0.76089 0.0
Co72 Co 0.45004 0.94256 0.80004 0.0
C73 C 0.38409 0.90631 0.82218 0.0
O74 O 0.38469 0.93077 0.83863 0.0
N75 N 0.42281 0.98631 0.81017 0.0
C76 C 0.41156 0.04347 0.82435 0.0
C77 C 0.43874 0.01906 0.81693 0.0
C78 C 0.38525 0.99331 0.81198 0.0
N79 N 0.37769 0.02708 0.82171 0.0
O80 O 0.42961 0.95072 0.77139 0.0
H81 H 0.46835 0.02557 0.81652 0.0
H82 H 0.3638 0.97386 0.80638 0.0
O83 O 0.40832 0.909 0.80669 0.0
C84 C 0.44479 0.97949 0.76258 0.0
O85 O 0.47326 0.9958 0.77275 0.0
N86 N 0.47227 0.9369 0.82811 0.0
C87 C 0.50583 0.94301 0.86994 0.0
C88 C 0.48114 0.9131 0.86479 0.0
C89 C 0.46424 0.91093 0.84402 0.0
C90 C 0.49989 0.96277 0.83176 0.0
C91 C 0.5153 0.96792 0.85279 0.0
H92 H 0.44546 0.88772 0.84092 0.0
H93 H 0.50945 0.98024 0.81829 0.0
H94 H 0.4642 0.85427 0.81191 0.0
H95 H 0.5334 0.85388 0.75574 0.0
H96 H 0.41668 0.0707 0.832 0.0
H97 H 0.47558 0.89045 0.87625 0.0
H98 H 0.53498 0.99083 0.85519 0.0
C99 C 0.37926 0.22352 0.02494 0.0
C100 C 0.41308 0.2407 0.02075 0.0
N101 N 0.43785 0.23144 0.0368 0.0
N102 N 0.38194 0.20217 0.04334 0.0
C103 C 0.41824 0.20769 0.05018 0.0
H104 H 0.35467 0.22607 0.01454 0.0
Co105 Co 0.3424 0.17014 0.05443 0.0
C106 C 0.40383 0.11681 0.04839 0.0
O107 O 0.40701 0.12634 0.02747 0.0
N108 N 0.30325 0.13861 0.06539 0.0
C109 C 0.24564 0.11934 0.07456 0.0
C110 C 0.26617 0.14748 0.06488 0.0
C111 C 0.30434 0.10464 0.07576 0.0
N112 N 0.2695 0.09211 0.08127 0.0
O113 O 0.33324 0.15105 0.02553 0.0
H114 H 0.25438 0.17346 0.05863 0.0
H115 H 0.33007 0.08951 0.0795 0.0
O116 O 0.37845 0.13186 0.06044 0.0
C117 C 0.30592 0.17071 0.01816 0.0
O118 O 0.29408 0.19978 0.02987 0.0
N119 N 0.34769 0.19099 0.0823 0.0
C120 C 0.34793 0.23684 0.1196 0.0
C121 C 0.377 0.21029 0.11622 0.0
C122 C 0.37589 0.18675 0.0975 0.0
C123 C 0.31841 0.21494 0.08612 0.0
C124 C 0.31714 0.23688 0.1051 0.0
H125 H 0.39874 0.1671 0.0946 0.0
H126 H 0.29659 0.2183 0.0738 0.0
H127 H 0.4304 0.19399 0.06446 0.0
H128 H 0.41895 0.25735 0.00622 0.0
H129 H 0.21552 0.11989 0.07742 0.0
H130 H 0.40155 0.2096 0.1269 0.0
H131 H 0.29385 0.25643 0.10727 0.0
C132 C 0.08789 0.86238 0.19364 0.0
C133 C 0.06618 0.8303 0.19409 0.0
N134 N 0.07197 0.8106 0.1753 0.0
N135 N 0.10707 0.86428 0.17435 0.0
C136 C 0.09781 0.83119 0.16397 0.0
H137 H 0.09116 0.88164 0.20742 0.0
Co138 Co 0.14457 0.90175 0.16693 0.0
C139 C 0.20814 0.86503 0.18625 0.0
O140 O 0.22999 0.88001 0.17111 0.0
N141 N 0.18178 0.93755 0.15995 0.0
C142 C 0.22301 0.98438 0.16351 0.0
C143 C 0.20066 0.9592 0.17467 0.0
C144 C 0.19358 0.94978 0.13991 0.0
N145 N 0.21833 0.9788 0.14158 0.0
O146 O 0.12498 0.93807 0.18887 0.0
H147 H 0.1978 0.95729 0.19245 0.0
H148 H 0.1835 0.93801 0.12444 0.0
O149 O 0.17597 0.88006 0.18967 0.0
C150 C 0.0928 0.95223 0.19366 0.0
O151 O 0.06254 0.93993 0.18332 0.0
N152 N 0.11363 0.92164 0.14423 0.0
C153 C 0.05331 0.94053 0.11729 0.0
C154 C 0.07145 0.90553 0.11478 0.0
C155 C 0.10237 0.89705 0.12815 0.0
C156 C 0.10175 0.95838 0.14345 0.0
C157 C 0.07084 0.96835 0.1303 0.0
H158 H 0.11578 0.86984 0.12659 0.0
H159 H 0.11401 0.97941 0.1543 0.0
H160 H 0.11099 0.82129 0.1489 0.0
H161 H 0.04943 0.82093 0.20798 0.0
H162 H 0.24008 1.00632 0.17099 0.0
H163 H 0.05998 0.88367 0.10412 0.0
H164 H 0.05902 0.99652 0.13165 0.0
C165 C 0.35012 0.79613 0.44917 0.0
C166 C 0.38475 0.77917 0.45228 0.0
N167 N 0.4066 0.78522 0.43437 0.0
N168 N 0.34941 0.8139 0.42948 0.0
C169 C 0.38451 0.80688 0.4209 0.0
H170 H 0.32712 0.79575 0.46086 0.0
Co171 Co 0.30723 0.84243 0.41741 0.0
C172 C 0.36229 0.89805 0.42965 0.0
O173 O 0.36146 0.8861 0.45021 0.0
N174 N 0.26641 0.86975 0.40492 0.0
C175 C 0.20852 0.88079 0.39202 0.0
C176 C 0.23119 0.85567 0.40314 0.0
C177 C 0.2646 0.90331 0.39408 0.0
N178 N 0.22948 0.91076 0.38627 0.0
O179 O 0.29137 0.85792 0.44607 0.0
H180 H 0.2227 0.82799 0.40861 0.0
H181 H 0.28862 0.92155 0.39147 0.0
O182 O 0.33908 0.88494 0.41546 0.0
C183 C 0.26385 0.83945 0.45394 0.0
O184 O 0.25237 0.80878 0.44367 0.0
N185 N 0.31985 0.82653 0.38965 0.0
C186 C 0.33943 0.79088 0.35067 0.0
C187 C 0.34588 0.82972 0.35327 0.0
C188 C 0.33576 0.84725 0.37312 0.0
C189 C 0.30983 0.78999 0.38648 0.0
C190 C 0.31947 0.77145 0.36709 0.0
H191 H 0.34179 0.87689 0.3754 0.0
H192 H 0.29603 0.77475 0.39967 0.0
H193 H 0.39367 0.81733 0.40498 0.0
H194 H 0.39327 0.76437 0.46711 0.0
H195 H 0.17926 0.87655 0.38753 0.0
H196 H 0.36061 0.84569 0.34072 0.0
H197 H 0.31414 0.74139 0.36586 0.0
C198 C 0.4802 0.11618 0.67643 0.0
C199 C 0.50547 0.14461 0.6821 0.0
N200 N 0.49217 0.17763 0.6742 0.0
N201 N 0.45077 0.13135 0.66533 0.0
C202 C 0.45912 0.16875 0.6645 0.0
H203 H 0.48306 0.0865 0.68029 0.0
Co204 Co 0.40637 0.10942 0.65283 0.0
C205 C 0.37307 0.17098 0.67871 0.0
O206 O 0.38814 0.15805 0.69707 0.0
N207 N 0.36145 0.09072 0.63972 0.0
C208 C 0.31204 0.09445 0.61707 0.0
C209 C 0.34084 0.11395 0.6267 0.0
C210 C 0.34398 0.05673 0.63772 0.0
N211 N 0.31343 0.05855 0.62418 0.0
O212 O 0.39355 0.08833 0.68053 0.0
H213 H 0.34719 0.14331 0.6236 0.0
H214 H 0.35338 0.03116 0.64578 0.0
O215 O 0.37949 0.1548 0.6601 0.0
C216 C 0.40372 0.05389 0.68176 0.0
O217 O 0.41884 0.03773 0.66425 0.0
N218 N 0.42165 0.12522 0.62505 0.0
C219 C 0.46705 0.1303 0.58808 0.0
C220 C 0.45142 0.16323 0.59755 0.0
C221 C 0.42766 0.15996 0.61603 0.0
C222 C 0.43299 0.09325 0.6144 0.0
C223 C 0.45482 0.09511 0.59551 0.0
H224 H 0.4168 0.18514 0.62394 0.0
H225 H 0.42745 0.06597 0.62168 0.0
H226 H 0.44062 0.18987 0.65763 0.0
H227 H 0.53158 0.14122 0.6912 0.0
H228 H 0.2922 0.10575 0.60515 0.0
H229 H 0.46005 0.191 0.59208 0.0
H230 H 0.46567 0.06915 0.58835 0.0
C231 C 0.17064 0.24932 0.91288 0.0
C232 C 0.1395 0.27261 0.91588 0.0
N233 N 0.10794 0.25277 0.91123 0.0
N234 N 0.15907 0.21481 0.90633 0.0
C235 C 0.12088 0.21819 0.90531 0.0
H236 H 0.19986 0.25731 0.91493 0.0
Co237 Co 0.18851 0.17156 0.89811 0.0
C238 C 0.12838 0.13583 0.92266 0.0
O239 O 0.13885 0.1546 0.9404 0.0
N240 N 0.21616 0.12775 0.88979 0.0
C241 C 0.23979 0.06936 0.89091 0.0
C242 C 0.21642 0.09505 0.90123 0.0
C243 C 0.23961 0.12095 0.8725 0.0
N244 N 0.25415 0.08563 0.87266 0.0
O245 O 0.20624 0.1662 0.92734 0.0
H246 H 0.20123 0.09041 0.91649 0.0
H247 H 0.24642 0.14128 0.85993 0.0
O248 O 0.14602 0.13988 0.90434 0.0
C249 C 0.24124 0.17072 0.93097 0.0
O250 O 0.26366 0.17912 0.91441 0.0
N251 N 0.17481 0.17957 0.86914 0.0
C252 C 0.16103 0.22526 0.83322 0.0
C253 C 0.13211 0.2024 0.84169 0.0
C254 C 0.13999 0.17841 0.85954 0.0
C255 C 0.20346 0.19937 0.85986 0.0
C256 C 0.19774 0.22049 0.84099 0.0
H257 H 0.11722 0.16323 0.86733 0.0
H258 H 0.23002 0.20195 0.86857 0.0
H259 H 0.10249 0.19557 0.90021 0.0
H260 H 0.14049 0.30214 0.92048 0.0
H261 H 0.24678 0.04151 0.897 0.0
H262 H 0.10319 0.20648 0.83642 0.0
H263 H 0.22036 0.23855 0.83528 0.0
C264 C 0.95311 0.87485 0.70792 0.0
C265 C 0.97025 0.84025 0.70935 0.0
N266 N 0.97153 0.82446 0.68913 0.0
N267 N 0.94235 0.88228 0.68679 0.0
C268 C 0.95422 0.85024 0.67576 0.0
H269 H 0.94723 0.89204 0.72225 0.0
Co270 Co 0.91135 0.92735 0.67851 0.0
C271 C 0.85754 0.86893 0.68914 0.0
O272 O 0.87101 0.86637 0.70935 0.0
N273 N 0.88071 0.97031 0.67074 0.0
C274 C 0.8622 0.03024 0.66703 0.0
C275 C 0.88675 1.00626 0.67752 0.0
C276 C 0.85227 0.97358 0.65569 0.0
N277 N 0.84062 1.00993 0.6531 0.0
O278 O 0.90347 0.94037 0.70887 0.0
H279 H 0.90913 0.0154 0.68836 0.0
H280 H 0.84123 0.94992 0.64634 0.0
O281 O 0.86845 0.89549 0.67656 0.0
C282 C 0.93241 0.96066 0.71314 0.0
O283 O 0.95996 0.96122 0.69858 0.0
N284 N 0.92165 0.92042 0.64879 0.0
C285 C 0.95068 0.92233 0.6063 0.0
C286 C 0.92937 0.89102 0.6134 0.0
C287 C 0.91316 0.89162 0.63457 0.0
C288 C 0.93966 0.95179 0.64143 0.0
C289 C 0.95109 0.95465 0.6197 0.0
H290 H 0.89711 0.86759 0.64019 0.0
H291 H 0.94572 0.97483 0.65268 0.0
H292 H 0.95025 0.84517 0.65833 0.0
H293 H 0.97943 0.82702 0.72457 0.0
H294 H 0.8618 0.06073 0.66857 0.0
H295 H 0.92774 0.86528 0.60373 0.0
H296 H 0.96503 0.98034 0.61453 0.0
C297 C 0.86951 0.22997 0.4306 0.0
C298 C 0.90117 0.25238 0.43372 0.0
N299 N 0.93125 0.23499 0.42447 0.0
N300 N 0.87921 0.19828 0.41949 0.0
C301 C 0.91692 0.20259 0.41604 0.0
H302 H 0.84112 0.23681 0.43579 0.0
Co303 Co 0.84817 0.15693 0.40932 0.0
C304 C 0.91469 0.11719 0.42666 0.0
O305 O 0.91063 0.13217 0.44646 0.0
N306 N 0.81904 0.11558 0.39847 0.0
C307 C 0.80608 0.06366 0.37887 0.0
C308 C 0.83404 0.08473 0.38849 0.0
C309 C 0.78142 0.11237 0.39451 0.0
N310 N 0.77293 0.08106 0.38246 0.0
O311 O 0.83405 0.14529 0.4389 0.0
H312 H 0.86371 0.07872 0.3869 0.0
H313 H 0.76097 0.13374 0.39902 0.0
O314 O 0.89131 0.12488 0.41122 0.0
C315 C 0.80216 0.16005 0.44347 0.0
O316 O 0.78553 0.18093 0.42837 0.0
N317 N 0.85785 0.1703 0.38036 0.0
C318 C 0.86385 0.22055 0.34608 0.0
C319 C 0.89542 0.19913 0.35248 0.0
C320 C 0.89144 0.17269 0.36949 0.0
C321 C 0.82619 0.18661 0.37195 0.0
C322 C 0.82834 0.21074 0.35405 0.0
H323 H 0.91602 0.15786 0.3755 0.0
H324 H 0.79987 0.18465 0.38083 0.0
H325 H 0.93416 0.18205 0.40761 0.0
H326 H 0.90137 0.27995 0.4415 0.0
H327 H 0.80996 0.03784 0.36945 0.0
H328 H 0.92329 0.20606 0.34646 0.0
H329 H 0.80353 0.22696 0.34951 0.0
C330 C 0.52307 0.13085 0.18951 0.0
C331 C 0.50835 0.16691 0.19041 0.0
N332 N 0.53556 0.19176 0.18504 0.0
N333 N 0.55965 0.13226 0.18358 0.0
C334 C 0.56652 0.16995 0.18124 0.0
H335 H 0.50741 0.105 0.19182 0.0
Co336 Co 0.58805 0.08795 0.17575 0.0
C337 C 0.64216 0.12399 0.14556 0.0
O338 O 0.63686 0.09769 0.13043 0.0
N339 N 0.61578 0.04289 0.1686 0.0
C340 C 0.62818 0.98096 0.166 0.0
C341 C 0.60287 1.00784 0.17322 0.0
C342 C 0.65036 0.03617 0.15976 0.0
N343 N 0.65794 0.99894 0.15739 0.0
O344 O 0.61193 0.08721 0.20389 0.0
H345 H 0.57636 1.00194 0.18128 0.0
H346 H 0.67048 0.05768 0.1555 0.0
O347 O 0.6272 0.12034 0.16459 0.0
C348 C 0.59153 0.06785 0.21681 0.0
O349 O 0.55807 0.05704 0.20999 0.0
N350 N 0.56241 0.08668 0.14823 0.0
C351 C 0.51957 0.08157 0.10958 0.0
C352 C 0.53821 0.11516 0.11507 0.0
C353 C 0.55881 0.11738 0.13469 0.0
C354 C 0.54282 0.05451 0.14353 0.0
C355 C 0.52192 0.05103 0.1241 0.0
H356 H 0.57118 0.14415 0.13911 0.0
H357 H 0.54164 0.03185 0.15527 0.0
H358 H 0.59279 0.18107 0.17525 0.0
H359 H 0.47932 0.17415 0.19404 0.0
H360 H 0.62443 0.95062 0.16636 0.0
H361 H 0.53526 0.14017 0.10492 0.0
H362 H 0.50641 0.02523 0.12092 0.0
C363 C 0.6702 0.77483 0.92199 0.0
C364 C 0.64075 0.75102 0.92685 0.0
N365 N 0.61598 0.76922 0.94016 0.0
N366 N 0.6645 0.80852 0.93191 0.0
C367 C 0.6334 0.80277 0.94454 0.0
H368 H 0.692 0.76922 0.90991 0.0
Co369 Co 0.68679 0.85474 0.92169 0.0
C370 C 0.60227 0.87893 0.92507 0.0
O371 O 0.58681 0.84565 0.92215 0.0
N372 N 0.70856 0.90024 0.91092 0.0
C373 C 0.71221 0.95074 0.88913 0.0
C374 C 0.68939 0.92268 0.89677 0.0
C375 C 0.74408 0.91463 0.91074 0.0
N376 N 0.7467 0.94581 0.89784 0.0
O377 O 0.70015 0.86823 0.95141 0.0
H378 H 0.66182 0.91636 0.89023 0.0
H379 H 0.76806 0.90132 0.91861 0.0
O380 O 0.63821 0.88277 0.92427 0.0
C381 C 0.7342 0.85804 0.95499 0.0
O382 O 0.75199 0.83919 0.93937 0.0
N383 N 0.6787 0.84012 0.89229 0.0
C384 C 0.68246 0.80696 0.85053 0.0
C385 C 0.64742 0.81616 0.86001 0.0
C386 C 0.64615 0.83325 0.88093 0.0
C387 C 0.71282 0.8333 0.88271 0.0
C388 C 0.71536 0.81766 0.86166 0.0
H389 H 0.61916 0.83871 0.8882 0.0
H390 H 0.73842 0.83848 0.89197 0.0
H391 H 0.62127 0.82508 0.95448 0.0
H392 H 0.6365 0.72362 0.91928 0.0
H393 H 0.70508 0.9709 0.87633 0.0
H394 H 0.62125 0.80769 0.8522 0.0
H395 H 0.74295 0.81122 0.85492 0.0
C396 C 1.00569 0.13589 0.81689 0.0
C397 C 0.02281 0.17054 0.81412 0.0
N398 N 0.99594 0.19708 0.81136 0.0
N399 N 0.96788 0.13984 0.81566 0.0
C400 C 0.96292 0.17775 0.81234 0.0
H401 H 0.02002 0.10967 0.82063 0.0
Co402 Co 0.93211 0.09992 0.82182 0.0
C403 C 0.86942 0.15019 0.83662 0.0
O404 O 0.86247 0.1307 0.85452 0.0
N405 N 0.89619 0.05986 0.82806 0.0
C406 C 0.86656 1.00412 0.82563 0.0
C407 C 0.89009 0.02905 0.81517 0.0
C408 C 0.87617 0.05186 0.84673 0.0
N409 N 0.85777 0.01853 0.84553 0.0
O410 O 0.92338 0.09269 0.79087 0.0
H411 H 0.90328 0.0233 0.79955 0.0
H412 H 0.87776 0.06803 0.86187 0.0
O413 O 0.89356 0.1383 0.82271 0.0
C414 C 0.94964 0.07208 0.78292 0.0
O415 O 0.97885 0.06489 0.79565 0.0
N416 N 0.94375 0.10395 0.85184 0.0
C417 C 0.98337 0.10334 0.8915 0.0
C418 C 0.96957 0.13749 0.88276 0.0
C419 C 0.94932 0.13709 0.86293 0.0
C420 C 0.95547 0.07058 0.86075 0.0
C421 C 0.97292 0.06946 0.88126 0.0
H422 H 0.94216 0.16362 0.85531 0.0
H423 H 0.95352 0.04465 0.8513 0.0
H424 H 0.93565 0.19134 0.81131 0.0
H425 H 0.05276 0.17598 0.81512 0.0
H426 H 0.85718 0.97711 0.81922 0.0
H427 H 0.97791 0.16455 0.88957 0.0
H428 H 0.98278 0.0425 0.88747 0.0
C429 C 0.67005 0.24333 0.5379 0.0
C430 C 0.64075 0.26813 0.53342 0.0
N431 N 0.61038 0.25814 0.54551 0.0
N432 N 0.65848 0.21756 0.55276 0.0
C433 C 0.62235 0.22813 0.55742 0.0
H434 H 0.69754 0.24329 0.53018 0.0
Co435 Co 0.68391 0.17292 0.56274 0.0
C436 C 0.61213 0.14421 0.54666 0.0
O437 O 0.61921 0.1577 0.52686 0.0
N438 N 0.70729 0.12762 0.57287 0.0
C439 C 0.72018 0.06603 0.57468 0.0
C440 C 0.69953 0.09339 0.56404 0.0
C441 C 0.73303 0.12014 0.58899 0.0
N442 N 0.74153 0.08276 0.59033 0.0
O443 O 0.6954 0.15874 0.5329 0.0
H444 H 0.67972 0.0885 0.55069 0.0
H445 H 0.7455 0.14158 0.59949 0.0
O446 O 0.63662 0.14713 0.56207 0.0
C447 C 0.73067 0.16268 0.52949 0.0
O448 O 0.75188 0.17545 0.54574 0.0
N449 N 0.67715 0.18923 0.59147 0.0
C450 C 0.6712 0.24193 0.6251 0.0
C451 C 0.64171 0.21629 0.62123 0.0
C452 C 0.64536 0.18955 0.60416 0.0
C453 C 0.70735 0.21109 0.59673 0.0
C454 C 0.70514 0.2375 0.61368 0.0
H455 H 0.62145 0.17213 0.59982 0.0
H456 H 0.73203 0.21051 0.58623 0.0
H457 H 0.604 0.21258 0.56833 0.0
H458 H 0.64175 0.29129 0.52182 0.0
H459 H 0.71872 0.03595 0.57149 0.0
H460 H 0.6151 0.21913 0.62988 0.0
H461 H 0.72848 0.25666 0.61646 0.0
C462 C 0.5384 0.89218 0.2791 0.0
C463 C 0.52615 0.85707 0.27173 0.0
N464 N 0.52967 0.83188 0.28835 0.0
N465 N 0.54997 0.88966 0.30036 0.0
C466 C 0.54382 0.85263 0.30536 0.0
H467 H 0.54052 0.91732 0.26909 0.0
Co468 Co 0.57673 0.92528 0.31917 0.0
C469 C 0.62969 0.86393 0.31438 0.0
O470 O 0.63129 0.86947 0.2929 0.0
N471 N 0.60478 0.95777 0.33899 0.0
C472 C 0.63245 0.97444 0.37085 0.0
C473 C 0.61051 0.94818 0.36044 0.0
C474 C 0.62522 0.99011 0.33679 0.0
N475 N 0.64176 1.00101 0.35611 0.0
O476 O 0.60705 0.94205 0.29484 0.0
H477 H 0.60108 0.92249 0.36812 0.0
H478 H 0.62915 1.00482 0.32132 0.0
O479 O 0.61018 0.88593 0.32655 0.0
C480 C 0.58859 0.97147 0.2891 0.0
O481 O 0.55601 0.97797 0.29869 0.0
N482 N 0.54394 0.91455 0.3422 0.0
C483 C 0.49206 0.91828 0.37647 0.0
C484 C 0.51464 0.88586 0.37359 0.0
C485 C 0.54115 0.8848 0.35643 0.0
C486 C 0.52194 0.94577 0.34482 0.0
C487 C 0.49659 0.94862 0.36205 0.0
H488 H 0.55979 0.86078 0.35503 0.0
H489 H 0.5251 0.96952 0.33391 0.0
H490 H 0.55155 0.84028 0.32095 0.0
H491 H 0.51757 0.85049 0.25496 0.0
H492 H 0.64306 0.97264 0.38765 0.0
H493 H 0.51154 0.8615 0.3842 0.0
H494 H 0.48028 0.97437 0.36387 0.0
C495 C 0.87858 0.78421 0.05785 0.0
C496 C 0.91244 0.76567 0.05396 0.0
N497 N 0.94099 0.78976 0.05818 0.0
N498 N 0.88554 0.81983 0.06471 0.0
C499 C 0.9238 0.82214 0.06471 0.0
H500 H 0.8507 0.77215 0.05636 0.0
Co501 Co 0.85015 0.85649 0.07525 0.0
C502 C 0.89799 0.91305 0.09718 0.0
O503 O 0.87347 0.91408 0.11346 0.0
N504 N 0.81578 0.89483 0.0855 0.0
C505 C 0.79187 0.95309 0.08683 0.0
C506 C 0.8173 0.92978 0.07662 0.0
C507 C 0.78832 0.89785 0.10115 0.0
N508 N 0.77341 0.93323 0.10233 0.0
O509 O 0.84211 0.87365 0.04541 0.0
H510 H 0.83672 0.93829 0.0638 0.0
H511 H 0.77923 0.87478 0.11141 0.0
O512 O 0.89166 0.89162 0.08049 0.0
C513 C 0.80988 0.86039 0.03985 0.0
O514 O 0.79176 0.83943 0.05423 0.0
N515 N 0.85401 0.83472 0.10329 0.0
C516 C 0.86075 0.76532 0.12404 0.0
C517 C 0.89134 0.79041 0.12383 0.0
C518 C 0.88732 0.82549 0.11339 0.0
C519 C 0.82297 0.81266 0.10612 0.0
C520 C 0.82553 0.77816 0.1169 0.0
H521 H 0.91242 0.84189 0.11046 0.0
H522 H 0.7976 0.81848 0.09681 0.0
H523 H 0.93914 0.84638 0.07066 0.0
H524 H 0.91573 0.73663 0.04858 0.0
H525 H 0.78799 0.98282 0.08338 0.0
H526 H 0.91908 0.78122 0.12914 0.0
H527 H 0.80136 0.75948 0.11682 0.0
C528 C 0.5576 0.62413 0.79149 0.0
C529 C 0.53438 0.65423 0.78601 0.0
N530 N 0.54625 0.68519 0.79706 0.0
N531 N 0.58447 0.63604 0.80572 0.0
C532 C 0.5764 0.67328 0.80884 0.0
H533 H 0.55579 0.59574 0.78488 0.0
Co534 Co 0.62727 0.60905 0.81667 0.0
C535 C 0.66267 0.6767 0.79864 0.0
O536 O 0.64804 0.67071 0.77893 0.0
N537 N 0.67075 0.58408 0.82753 0.0
C538 C 0.73085 0.56671 0.83129 0.0
C539 C 0.7063 0.59041 0.82044 0.0
C540 C 0.67451 0.5561 0.84259 0.0
N541 N 0.71074 0.54497 0.8451 0.0
O542 O 0.63978 0.59324 0.78741 0.0
H543 H 0.71393 0.61055 0.80782 0.0
H544 H 0.65128 0.54391 0.85156 0.0
O545 O 0.65626 0.65395 0.81447 0.0
C546 C 0.63382 0.55775 0.7861 0.0
O547 O 0.62196 0.53983 0.80376 0.0
N548 N 0.61206 0.61992 0.84525 0.0
C549 C 0.55777 0.63098 0.87724 0.0
C550 C 0.58273 0.66036 0.8719 0.0
C551 C 0.61084 0.65386 0.85603 0.0
C552 C 0.59087 0.59029 0.85219 0.0
C553 C 0.56448 0.59484 0.86884 0.0
H554 H 0.6278 0.67727 0.85044 0.0
H555 H 0.59113 0.56415 0.84286 0.0
H556 H 0.59371 0.69221 0.81851 0.0
H557 H 0.51101 0.65352 0.77445 0.0
H558 H 0.76104 0.5649 0.82882 0.0
H559 H 0.57765 0.68886 0.8778 0.0
H560 H 0.54523 0.57185 0.87226 0.0
C561 C 0.65773 0.27331 0.04556 0.0
C562 C 0.62612 0.25221 0.04025 0.0
N563 N 0.59557 0.27473 0.04149 0.0
N564 N 0.64748 0.30931 0.05007 0.0
C565 C 0.60933 0.30907 0.04719 0.0
H566 H 0.68608 0.26238 0.04711 0.0
Co567 Co 0.67835 0.34869 0.06272 0.0
C568 C 0.62419 0.39955 0.04076 0.0
O569 O 0.63297 0.38778 0.02076 0.0
N570 N 0.70679 0.38837 0.07558 0.0
C571 C 0.71828 0.43866 0.09687 0.0
C572 C 0.69092 0.41551 0.08838 0.0
C573 C 0.74429 0.39523 0.07702 0.0
N574 N 0.75185 0.42577 0.08988 0.0
O575 O 0.70039 0.35857 0.0348 0.0
H576 H 0.66133 0.41697 0.0925 0.0
H577 H 0.7657 0.37753 0.06952 0.0
O578 O 0.63899 0.38445 0.05783 0.0
C579 C 0.72935 0.33722 0.03373 0.0
O580 O 0.73663 0.31457 0.0504 0.0
N581 N 0.66148 0.33574 0.09063 0.0
C582 C 0.64958 0.28088 0.12188 0.0
C583 C 0.61868 0.30004 0.11252 0.0
C584 C 0.62538 0.32857 0.09704 0.0
C585 C 0.6913 0.32134 0.10212 0.0
C586 C 0.68588 0.29442 0.11832 0.0
H587 H 0.60189 0.34106 0.0883 0.0
H588 H 0.71978 0.32658 0.09662 0.0
H589 H 0.59126 0.33289 0.05078 0.0
H590 H 0.62555 0.22233 0.0364 0.0
H591 H 0.71407 0.46173 0.10846 0.0
H592 H 0.59017 0.2901 0.11513 0.0
H593 H 0.71024 0.28003 0.12519 0.0
C594 C 0.97884 0.40965 0.28657 0.0
C595 C 0.999 0.37681 0.28224 0.0
N596 N 0.98351 0.34831 0.2938 0.0
N597 N 0.95034 0.40202 0.30063 0.0
C598 C 0.95417 0.36431 0.30463 0.0
H599 H 0.98374 0.437 0.27921 0.0
Co600 Co 0.90957 0.43444 0.30945 0.0
C601 C 0.85834 0.37974 0.3292 0.0
O602 O 0.84877 0.40387 0.34482 0.0
N603 N 0.86664 0.46501 0.31817 0.0
C604 C 0.8069 0.48527 0.3177 0.0
C605 C 0.83346 0.46348 0.30711 0.0
C606 C 0.85897 0.4882 0.3357 0.0
N607 N 0.82277 0.50069 0.33583 0.0
O608 O 0.89472 0.43794 0.27918 0.0
H609 H 0.8282 0.44621 0.29262 0.0
H610 H 0.87901 0.4954 0.34846 0.0
O611 O 0.88012 0.39001 0.31371 0.0
C612 C 0.90284 0.47126 0.27278 0.0
O613 O 0.91603 0.49547 0.28741 0.0
N614 N 0.92878 0.43509 0.33819 0.0
C615 C 0.98308 0.44352 0.37107 0.0
C616 C 0.96429 0.40893 0.36828 0.0
C617 C 0.9372 0.40522 0.35156 0.0
C618 C 0.94533 0.46927 0.34166 0.0
C619 C 0.97142 0.47452 0.35852 0.0
H620 H 0.92661 0.37748 0.34794 0.0
H621 H 0.94021 0.49206 0.33016 0.0
H622 H 0.93473 0.348 0.31443 0.0
H623 H 0.02279 0.37398 0.27114 0.0
H624 H 0.77761 0.48819 0.31291 0.0
H625 H 0.97339 0.38394 0.37713 0.0
H626 H 0.98547 0.50156 0.36004 0.0
C627 C 0.85579 0.74315 0.54424 0.0
C628 C 0.88972 0.76066 0.53945 0.0
N629 N 0.91727 0.74399 0.55138 0.0
N630 N 0.86172 0.71545 0.55914 0.0
C631 C 0.89937 0.7174 0.56336 0.0
H632 H 0.82892 0.74903 0.53646 0.0
Co633 Co 0.82867 0.67563 0.56776 0.0
C634 C 0.88265 0.61754 0.58178 0.0
O635 O 0.85996 0.60743 0.59787 0.0
N636 N 0.79729 0.63366 0.5758 0.0
C637 C 0.77506 0.57479 0.5737 0.0
C638 C 0.79878 0.60072 0.56437 0.0
C639 C 0.77161 0.62683 0.59198 0.0
N640 N 0.75802 0.59103 0.59119 0.0
O641 O 0.81895 0.66423 0.53736 0.0
H642 H 0.81696 0.5954 0.55032 0.0
H643 H 0.76262 0.64756 0.60399 0.0
O644 O 0.87219 0.64318 0.56841 0.0
C645 C 0.78536 0.67626 0.53423 0.0
O646 O 0.76831 0.69442 0.55039 0.0
N647 N 0.83347 0.691 0.59733 0.0
C648 C 0.83123 0.73853 0.63417 0.0
C649 C 0.86381 0.71723 0.62946 0.0
C650 C 0.86431 0.69322 0.6109 0.0
C651 C 0.80123 0.70993 0.6026 0.0
C652 C 0.79894 0.73239 0.6214 0.0
H653 H 0.89031 0.67913 0.60671 0.0
H654 H 0.77743 0.70914 0.59143 0.0
H655 H 0.91422 0.69821 0.57409 0.0
H656 H 0.89376 0.7834 0.52778 0.0
H657 H 0.77141 0.54583 0.5683 0.0
H658 H 0.88943 0.72121 0.63898 0.0
H659 H 0.77286 0.74729 0.62485 0.0
C660 C 0.53763 0.38929 0.70374 0.0
C661 C 0.52567 0.35243 0.70598 0.0
N662 N 0.53496 0.33313 0.68752 0.0
N663 N 0.55488 0.3936 0.68398 0.0
C664 C 0.55233 0.35872 0.67445 0.0
H665 H 0.53457 0.41115 0.71614 0.0
Co666 Co 0.58108 0.43736 0.67335 0.0
C667 C 0.63776 0.37892 0.67376 0.0
O668 O 0.6339 0.37756 0.69538 0.0
N669 N 0.60696 0.48038 0.66272 0.0
C670 C 0.62159 0.54095 0.65781 0.0
C671 C 0.59676 0.51638 0.6674 0.0
C672 C 0.63791 0.48398 0.64972 0.0
N673 N 0.64751 0.52062 0.64677 0.0
O674 O 0.60571 0.44449 0.70101 0.0
H675 H 0.57231 0.52464 0.67687 0.0
H676 H 0.65325 0.4604 0.64264 0.0
O677 O 0.62034 0.40427 0.66273 0.0
C678 C 0.58741 0.46907 0.71208 0.0
O679 O 0.55352 0.47876 0.70529 0.0
N680 N 0.55492 0.43486 0.64694 0.0
C681 C 0.50763 0.44333 0.6105 0.0
C682 C 0.535 0.41435 0.61099 0.0
C683 C 0.55926 0.41124 0.62922 0.0
C684 C 0.52914 0.46333 0.6465 0.0
C685 C 0.50665 0.46925 0.62806 0.0
H686 H 0.58058 0.3894 0.62927 0.0
H687 H 0.52633 0.48196 0.66063 0.0
H688 H 0.56473 0.35148 0.65868 0.0
H689 H 0.51125 0.34069 0.72015 0.0
H690 H 0.6202 0.5715 0.65841 0.0
H691 H 0.53702 0.39364 0.59779 0.0
H692 H 0.48795 0.49345 0.62798 0.0
C693 C 0.88704 0.27942 0.91851 0.0
C694 C 0.92178 0.26198 0.91737 0.0
N695 N 0.9487 0.28869 0.91792 0.0
N696 N 0.89147 0.31721 0.91985 0.0
C697 C 0.92963 0.32189 0.91941 0.0
H698 H 0.86013 0.26535 0.91707 0.0
Co699 Co 0.85004 0.35195 0.9177 0.0
C700 C 0.90464 0.4096 0.93209 0.0
O701 O 0.90352 0.3984 0.95278 0.0
N702 N 0.80933 0.38547 0.91532 0.0
C703 C 0.7505 0.40723 0.91575 0.0
C704 C 0.77463 0.38022 0.9239 0.0
C705 C 0.8056 0.41586 0.90198 0.0
N706 N 0.76992 0.42929 0.90174 0.0
O707 O 0.84524 0.35426 0.94898 0.0
H708 H 0.76663 0.35697 0.93439 0.0
H709 H 0.82785 0.42613 0.89136 0.0
O710 O 0.88413 0.39358 0.91746 0.0
C711 C 0.8261 0.3275 0.95722 0.0
O712 O 0.81664 0.29894 0.94443 0.0
N713 N 0.85169 0.34783 0.88704 0.0
C714 C 0.85565 0.3105 0.84711 0.0
C715 C 0.88588 0.33316 0.85413 0.0
C716 C 0.88342 0.35172 0.87456 0.0
C717 C 0.81981 0.33254 0.87814 0.0
C718 C 0.82072 0.31533 0.85742 0.0
H719 H 0.90842 0.36462 0.88148 0.0
H720 H 0.79479 0.32952 0.88817 0.0
H721 H 0.94337 0.34897 0.91857 0.0
H722 H 0.9268 0.23193 0.91556 0.0
H723 H 0.72066 0.4096 0.91925 0.0
H724 H 0.91305 0.33064 0.84624 0.0
H725 H 0.79662 0.29864 0.85228 0.0
C726 C 0.02551 0.59433 0.17576 0.0
C727 C 0.04387 0.62829 0.17903 0.0
N728 N 0.02352 0.65584 0.16936 0.0
N729 N 0.99374 0.60025 0.16396 0.0
C730 C 0.99336 0.63818 0.16034 0.0
H731 H 0.0357 0.56676 0.18064 0.0
Co732 Co 0.96487 0.56146 0.15062 0.0
C733 C 0.90394 0.60734 0.12818 0.0
O734 O 0.90187 0.58559 0.11052 0.0
N735 N 0.93686 0.52163 0.13699 0.0
C736 C 0.92548 0.46612 0.12069 0.0
C737 C 0.95269 0.48957 0.12894 0.0
C738 C 0.89929 0.51582 0.13422 0.0
N739 N 0.89176 0.48244 0.12406 0.0
O740 O 0.93951 0.55182 0.17768 0.0
H741 H 0.98219 0.48252 0.12934 0.0
H742 H 0.87776 0.53539 0.13978 0.0
O743 O 0.92699 0.59898 0.1436 0.0
C744 C 0.94879 0.52076 0.18679 0.0
O745 O 0.97558 0.50024 0.17768 0.0
N746 N 0.99196 0.56888 0.12478 0.0
C747 C 0.04495 0.57394 0.09107 0.0
C748 C 0.01546 0.60044 0.09275 0.0
C749 C 0.98917 0.59742 0.10977 0.0
C750 C 0.02124 0.54404 0.12387 0.0
C751 C 0.04685 0.54475 0.10657 0.0
H752 H 0.96879 0.61975 0.11165 0.0
H753 H 0.02554 0.52429 0.13725 0.0
H754 H 0.97293 0.65241 0.15001 0.0
H755 H 0.07053 0.63236 0.18746 0.0
H756 H 0.93037 0.43934 0.11246 0.0
H757 H 0.01428 0.62504 0.08217 0.0
H758 H 0.06959 0.52426 0.10634 0.0
C759 C 0.62676 0.74184 0.42776 0.0
C760 C 0.59346 0.76229 0.42883 0.0
N761 N 0.56414 0.73828 0.42724 0.0
N762 N 0.61909 0.70474 0.42543 0.0
C763 C 0.58054 0.70359 0.42514 0.0
H764 H 0.65491 0.75351 0.42802 0.0
Co765 Co 0.6565 0.66591 0.41996 0.0
C766 C 0.59798 0.61048 0.43311 0.0
O767 O 0.59795 0.61862 0.45435 0.0
N768 N 0.69257 0.6257 0.41436 0.0
C769 C 0.7219 0.57028 0.41932 0.0
C770 C 0.69646 0.59571 0.42801 0.0
C771 C 0.71618 0.61711 0.39725 0.0
N772 N 0.73451 0.58383 0.39994 0.0
O773 O 0.6658 0.66091 0.45077 0.0
H774 H 0.6807 0.59172 0.44313 0.0
H775 H 0.71969 0.63402 0.38263 0.0
O776 O 0.61886 0.62852 0.41972 0.0
C777 C 0.6973 0.67747 0.45394 0.0
O778 O 0.71217 0.69625 0.43741 0.0
N779 N 0.65121 0.67435 0.39014 0.0
C780 C 0.64717 0.71616 0.35186 0.0
C781 C 0.61615 0.69438 0.35848 0.0
C782 C 0.61902 0.67269 0.37776 0.0
C783 C 0.68189 0.69369 0.38298 0.0
C784 C 0.68139 0.71243 0.36301 0.0
H785 H 0.59423 0.65871 0.38408 0.0
H786 H 0.70621 0.69669 0.39366 0.0
H787 H 0.5646 0.67803 0.42238 0.0
H788 H 0.59107 0.79265 0.43061 0.0
H789 H 0.72894 0.54302 0.42626 0.0
H790 H 0.58896 0.69775 0.35052 0.0
H791 H 0.7054 0.72978 0.35864 0.0
C792 C 0.50024 0.41411 0.18137 0.0
C793 C 0.51993 0.38155 0.18682 0.0
N794 N 0.5072 0.3527 0.17418 0.0
N795 N 0.47469 0.40624 0.16544 0.0
C796 C 0.48014 0.3687 0.16136 0.0
H797 H 0.50328 0.44133 0.18937 0.0
Co798 Co 0.43511 0.43781 0.15361 0.0
C799 C 0.39207 0.37086 0.16618 0.0
O800 O 0.40218 0.37429 0.18703 0.0
N801 N 0.39487 0.46677 0.14134 0.0
C802 C 0.34631 0.47946 0.11906 0.0
C803 C 0.37127 0.45234 0.12586 0.0
C804 C 0.38391 0.50345 0.14324 0.0
N805 N 0.35406 0.5116 0.13003 0.0
O806 O 0.4176 0.4493 0.18245 0.0
H807 H 0.37321 0.4242 0.11899 0.0
H808 H 0.39781 0.52409 0.15365 0.0
O809 O 0.40379 0.39427 0.15176 0.0
C810 C 0.4314 0.48125 0.18784 0.0
O811 O 0.4556 0.49711 0.17431 0.0
N812 N 0.45415 0.43171 0.12538 0.0
C813 C 0.49435 0.43757 0.08622 0.0
C814 C 0.47834 0.40281 0.0925 0.0
C815 C 0.45728 0.40067 0.11207 0.0
C816 C 0.46705 0.46594 0.11861 0.0
C817 C 0.48559 0.46983 0.09861 0.0
H818 H 0.44508 0.37405 0.11689 0.0
H819 H 0.46352 0.49047 0.12915 0.0
H820 H 0.46336 0.35267 0.14979 0.0
H821 H 0.5404 0.37918 0.20004 0.0
H822 H 0.32526 0.4763 0.10617 0.0
H823 H 0.48386 0.37718 0.08317 0.0
H824 H 0.49539 0.49753 0.09377 0.0
C825 C 0.39451 0.76571 0.92883 0.0
C826 C 0.43007 0.77914 0.93378 0.0
N827 N 0.45364 0.74953 0.93609 0.0
N828 N 0.39515 0.72757 0.92802 0.0
C829 C 0.43181 0.71865 0.93252 0.0
H830 H 0.36982 0.78278 0.92549 0.0
Co831 Co 0.35262 0.69551 0.92111 0.0
C832 C 0.39827 0.64298 0.89428 0.0
O833 O 0.37524 0.64616 0.87735 0.0
N834 N 0.30969 0.66318 0.91507 0.0
C835 C 0.24915 0.64543 0.91677 0.0
C836 C 0.27581 0.6705 0.92446 0.0
C837 C 0.30252 0.63249 0.90198 0.0
N838 N 0.26592 0.62154 0.90249 0.0
O839 O 0.35124 0.67954 0.95119 0.0
H840 H 0.27021 0.69386 0.93555 0.0
H841 H 0.32318 0.61763 0.89232 0.0
O842 O 0.38866 0.65624 0.91314 0.0
C843 C 0.33541 0.70698 0.96138 0.0
O844 O 0.32556 0.73708 0.95009 0.0
N845 N 0.35096 0.71561 0.89218 0.0
C846 C 0.34545 0.76398 0.85607 0.0
C847 C 0.38045 0.74904 0.8624 0.0
C848 C 0.38268 0.72542 0.88073 0.0
C849 C 0.31651 0.72851 0.8854 0.0
C850 C 0.31306 0.75227 0.8672 0.0
H851 H 0.41028 0.71732 0.88662 0.0
H852 H 0.29166 0.72342 0.89515 0.0
H853 H 0.44251 0.69007 0.93311 0.0
H854 H 0.43825 0.80854 0.93477 0.0
H855 H 0.21934 0.64595 0.92059 0.0
H856 H 0.40632 0.75854 0.85472 0.0
H857 H 0.28572 0.7641 0.86312 0.0
C858 C 0.02831 0.60853 0.66879 0.0
C859 C 1.00437 0.63915 0.67208 0.0
N860 N 0.02535 0.6703 0.67562 0.0
N861 N 0.06455 0.61994 0.67 0.0
C862 C 0.0615 0.65777 0.67434 0.0
H863 H 0.01976 0.58016 0.66443 0.0
Co864 Co 0.10795 0.59121 0.65986 0.0
C865 C 0.15365 0.65097 0.68131 0.0
O866 O 0.14501 0.64007 0.70142 0.0
N867 N 0.15151 0.56465 0.64904 0.0
C868 C 0.20262 0.55772 0.62792 0.0
C869 C 0.17804 0.58296 0.6372 0.0
C870 C 0.16066 0.5275 0.64627 0.0
N871 N 0.19165 0.52265 0.63329 0.0
O872 O 0.11783 0.5742 0.68921 0.0
H873 H 0.17751 0.61272 0.63353 0.0
H874 H 0.14317 0.50451 0.65191 0.0
O875 O 0.13919 0.63478 0.66436 0.0
C876 C 0.10609 0.54116 0.69378 0.0
O877 O 0.08806 0.52188 0.67844 0.0
N878 N 0.09589 0.60416 0.63083 0.0
C879 C 0.04215 0.60803 0.59803 0.0
C880 C 0.05575 0.64143 0.60781 0.0
C881 C 0.08383 0.6389 0.6241 0.0
C882 C 0.08744 0.57265 0.61875 0.0
C883 C 0.06164 0.57431 0.60154 0.0
H884 H 0.09149 0.66392 0.63337 0.0
H885 H 0.09609 0.54509 0.62441 0.0
H886 H 0.08507 0.67684 0.67447 0.0
H887 H 0.97388 0.63863 0.67133 0.0
H888 H 0.22563 0.56466 0.61692 0.0
H889 H 0.04148 0.66815 0.60518 0.0
H890 H 0.05199 0.54817 0.59403 0.0
C891 C 0.15024 0.27341 0.41107 0.0
C892 C 0.11702 0.25339 0.41294 0.0
N893 N 0.08899 0.27769 0.41796 0.0
N894 N 0.14346 0.31046 0.4146 0.0
C895 C 0.10579 0.31204 0.41893 0.0
H896 H 0.17739 0.26189 0.40641 0.0
Co897 Co 0.17951 0.34948 0.40961 0.0
C898 C 0.13447 0.41761 0.39958 0.0
O899 O 0.16169 0.43057 0.38706 0.0
N900 N 0.21628 0.3893 0.40474 0.0
C901 C 0.25038 0.44139 0.41118 0.0
C902 C 0.22492 0.41631 0.4199 0.0
C903 C 0.23722 0.39931 0.38678 0.0
N904 N 0.25788 0.43093 0.39024 0.0
O905 O 0.18682 0.3545 0.44066 0.0
H906 H 0.2124 0.41881 0.43614 0.0
H907 H 0.23673 0.38476 0.37108 0.0
O908 O 0.13881 0.38636 0.40975 0.0
C909 C 0.21799 0.33811 0.44503 0.0
O910 O 0.23618 0.32097 0.42889 0.0
N911 N 0.17488 0.34037 0.37946 0.0
C912 C 0.17021 0.29843 0.34052 0.0
C913 C 0.13911 0.31973 0.34798 0.0
C914 C 0.14211 0.34087 0.36756 0.0
C915 C 0.20546 0.32087 0.37199 0.0
C916 C 0.20434 0.30134 0.35206 0.0
H917 H 0.11701 0.35387 0.3743 0.0
H918 H 0.23036 0.31872 0.38229 0.0
H919 H 0.09041 0.33796 0.42148 0.0
H920 H 0.11359 0.22331 0.4103 0.0
H921 H 0.26114 0.46651 0.41929 0.0
H922 H 0.11179 0.31721 0.34009 0.0
H923 H 0.22902 0.28549 0.34692 0.0
C924 C 0.51203 0.61101 0.30508 0.0
C925 C 0.53195 0.64329 0.29999 0.0
N926 N 0.50881 0.66813 0.28978 0.0
N927 N 0.47588 0.61496 0.29844 0.0
C928 C 0.4758 0.64895 0.28779 0.0
H929 H 0.52296 0.58783 0.31472 0.0
Co930 Co 0.43053 0.58858 0.3077 0.0
C931 C 0.42214 0.66657 0.32267 0.0
O932 O 0.45564 0.66399 0.33192 0.0
N933 N 0.38494 0.56473 0.31631 0.0
C934 C 0.32335 0.55364 0.31871 0.0
C935 C 0.35053 0.57627 0.30953 0.0
C936 C 0.37784 0.53484 0.32969 0.0
N937 N 0.34049 0.52742 0.33134 0.0
O938 O 0.41412 0.58797 0.27774 0.0
H939 H 0.34547 0.60007 0.29874 0.0
H940 H 0.39951 0.51883 0.33813 0.0
O941 O 0.40731 0.63761 0.3134 0.0
C942 C 0.41928 0.55344 0.27229 0.0
O943 O 0.43402 0.5303 0.28693 0.0
N944 N 0.44798 0.58295 0.33661 0.0
C945 C 0.48259 0.5628 0.37611 0.0
C946 C 0.45464 0.59111 0.37578 0.0
C947 C 0.43621 0.59948 0.35589 0.0
C948 C 0.47109 0.55223 0.33727 0.0
C949 C 0.48817 0.54119 0.35689 0.0
H950 H 0.41368 0.62005 0.35595 0.0
H951 H 0.47714 0.53679 0.3222 0.0
H952 H 0.45017 0.66153 0.28148 0.0
H953 H 0.5607 0.64895 0.30502 0.0
H954 H 0.29318 0.55705 0.31681 0.0
H955 H 0.44856 0.60821 0.39024 0.0
H956 H 0.50796 0.51783 0.35657 0.0
C957 C 0.16205 0.76145 0.04413 0.0
C958 C 0.12627 0.77405 0.03916 0.0
N959 N 0.10185 0.75966 0.05399 0.0
N960 N 0.16068 0.73856 0.06188 0.0
C961 C 0.12346 0.73774 0.0674 0.0
H962 H 0.18753 0.76879 0.03536 0.0
Co963 Co 0.20316 0.71543 0.07566 0.0
C964 C 0.16574 0.65237 0.05494 0.0
O965 O 0.16771 0.66939 0.03569 0.0
N966 N 0.24494 0.69319 0.08952 0.0
C967 C 0.2941 0.68688 0.11212 0.0
C968 C 0.26949 0.71213 0.10252 0.0
C969 C 0.25531 0.65655 0.09128 0.0
N970 N 0.28486 0.65186 0.10523 0.0
O971 O 0.22767 0.70842 0.04784 0.0
H972 H 0.26851 0.74227 0.10551 0.0
H973 H 0.241 0.63367 0.08285 0.0
O974 O 0.17941 0.66791 0.07227 0.0
C975 C 0.25781 0.72643 0.04378 0.0
O976 O 0.26867 0.753 0.05765 0.0
N977 N 0.18163 0.72247 0.10351 0.0
C978 C 0.18456 0.74099 0.14802 0.0
C979 C 0.18289 0.70306 0.14159 0.0
C980 C 0.18058 0.69428 0.11897 0.0
C981 C 0.17924 0.75934 0.10971 0.0
C982 C 0.17994 0.76921 0.13198 0.0
H983 H 0.18307 0.66504 0.11393 0.0
H984 H 0.18111 0.78129 0.09736 0.0
H985 H 0.11255 0.72215 0.08137 0.0
H986 H 0.11893 0.79229 0.02548 0.0
H987 H 0.31603 0.69357 0.12399 0.0
H988 H 0.1865 0.68074 0.15362 0.0
H989 H 0.18115 0.79885 0.13653 0.0
C990 C 0.02272 0.42045 0.81832 0.0
C991 C 1.00223 0.38727 0.81645 0.0
N992 N 0.02582 0.35883 0.81083 0.0
N993 N 0.05948 0.41345 0.81417 0.0
C994 C 0.06001 0.37573 0.80932 0.0
H995 H 1.01179 0.44743 0.82386 0.0
Co996 Co 0.10149 0.44647 0.82104 0.0
C997 C 0.15287 0.38269 0.81092 0.0
O998 O 0.1595 0.39525 0.79088 0.0
N999 N 0.14487 0.47776 0.82833 0.0
C1000 C 0.20354 0.50053 0.82608 0.0
C1001 C 0.17704 0.47752 0.81634 0.0
C1002 C 0.15313 0.50171 0.84547 0.0
N1003 N 0.18872 0.51584 0.84456 0.0
O1004 O 0.11232 0.45144 0.79019 0.0
H1005 H 0.18146 0.46135 0.80138 0.0
H1006 H 0.13359 0.50911 0.8584 0.0
O1007 O 0.13282 0.40226 0.82432 0.0
C1008 C 0.10204 0.48411 0.78366 0.0
O1009 O 0.08654 0.5072 0.79815 0.0
N1010 N 0.08682 0.44576 0.85041 0.0
C1011 C 0.03862 0.44931 0.88645 0.0
C1012 C 0.05882 0.416 0.88183 0.0
C1013 C 0.08286 0.41475 0.86349 0.0
C1014 C 0.06888 0.47872 0.85549 0.0
C1015 C 0.04582 0.48158 0.87395 0.0
H1016 H 0.09452 0.388 0.85849 0.0
H1017 H 0.07048 0.50229 0.84419 0.0
H1018 H 0.08523 0.36001 0.80612 0.0
H1019 H 0.97243 0.38419 0.8198 0.0
H1020 H 0.23193 0.50501 0.82012 0.0
H1021 H 0.05319 0.39024 0.89085 0.0
H1022 H 0.03075 0.50774 0.87706 0.0
C1023 C 0.3934 0.29812 0.52773 0.0
C1024 C 0.42995 0.28734 0.52309 0.0
N1025 N 0.4528 0.30052 0.53922 0.0
N1026 N 0.39272 0.31826 0.54673 0.0
C1027 C 0.42944 0.31889 0.55346 0.0
H1028 H 0.36875 0.29094 0.51804 0.0
Co1029 Co 0.34851 0.33761 0.56093 0.0
C1030 C 0.39197 0.40498 0.55067 0.0
O1031 O 0.39634 0.39452 0.52992 0.0
N1032 N 0.30487 0.35603 0.57556 0.0
C1033 C 0.25452 0.35447 0.59754 0.0
C1034 C 0.28029 0.3331 0.58594 0.0
C1035 C 0.29324 0.3914 0.58104 0.0
N1036 N 0.26289 0.39121 0.59471 0.0
O1037 O 0.32692 0.35114 0.53309 0.0
H1038 H 0.28187 0.30258 0.58569 0.0
H1039 H 0.30767 0.41677 0.57593 0.0
O1040 O 0.37203 0.38519 0.56368 0.0
C1041 C 0.29846 0.33116 0.52774 0.0
O1042 O 0.28896 0.30257 0.54033 0.0
N1043 N 0.36719 0.32306 0.58809 0.0
C1044 C 0.36446 0.29183 0.62975 0.0
C1045 C 0.36657 0.33104 0.62753 0.0
C1046 C 0.36821 0.34632 0.60625 0.0
C1047 C 0.369 0.28494 0.59019 0.0
C1048 C 0.36836 0.26869 0.61097 0.0
H1049 H 0.36589 0.37655 0.60441 0.0
H1050 H 0.36724 0.26704 0.57566 0.0
H1051 H 0.43886 0.33244 0.56861 0.0
H1052 H 0.43881 0.26995 0.50924 0.0
H1053 H 0.2315 0.34368 0.60738 0.0
H1054 H 0.36401 0.3495 0.64181 0.0
H1055 H 0.36777 0.23816 0.61226 0.0
C1056 C 0.1801 0.2313 0.32964 0.0
C1057 C 0.16533 0.26714 0.32432 0.0
C1058 C 0.17152 0.19948 0.31699 0.0
C1059 C 0.14755 0.20195 0.29856 0.0
H1060 H 0.19663 0.22712 0.34454 0.0
H1061 H 0.182 0.17228 0.32248 0.0
S1062 S 0.10445 0.28948 0.27611 0.0
N1063 N 0.12837 0.30381 0.29809 0.0
N1064 N 0.11125 0.24336 0.27443 0.0
C1065 C 0.13431 0.2378 0.29212 0.0
C1066 C 0.14324 0.2705 0.30506 0.0
C1067 C 0.01626 0.93462 0.59412 0.0
C1068 C 0.98075 0.91846 0.58933 0.0
C1069 C 0.04806 0.92512 0.58209 0.0
C1070 C 0.04622 0.89839 0.56508 0.0
H1071 H 0.02084 0.95243 0.60848 0.0
H1072 H 0.07495 0.93661 0.58738 0.0
S1073 S 0.95997 0.85356 0.54249 0.0
N1074 N 0.94483 0.87948 0.56352 0.0
N1075 N 1.00609 0.85986 0.54139 0.0
C1076 C 1.01086 0.88456 0.55844 0.0
C1077 C 0.97781 0.89482 0.57059 0.0
C1078 C 0.32982 0.83166 0.85193 0.0
C1079 C 0.34451 0.79841 0.84244 0.0
C1080 C 0.33938 0.86702 0.84354 0.0
C1081 C 0.36385 0.87028 0.82536 0.0
H1082 H 0.31399 0.83066 0.86725 0.0
H1083 H 0.3302 0.89186 0.85261 0.0
S1084 S 0.40042 0.79107 0.79089 0.0
N1085 N 0.37817 0.77031 0.81151 0.0
N1086 N 0.39493 0.83694 0.79495 0.0
C1087 C 0.37402 0.83709 0.81378 0.0
C1088 C 0.36481 0.80102 0.82261 0.0
C1089 C 0.42645 0.07919 0.08006 0.0
C1090 C 0.43466 0.09728 0.05998 0.0
C1091 C 0.45486 0.07116 0.09533 0.0
C1092 C 0.49246 0.08103 0.09103 0.0
H1093 H 0.39751 0.07383 0.08478 0.0
H1094 H 0.44679 0.06005 0.11133 0.0
S1095 S 0.52985 0.12128 0.03898 0.0
N1096 N 0.48376 0.11932 0.03505 0.0
N1097 N 0.53746 0.104 0.06398 0.0
C1098 C 0.50164 0.09545 0.07009 0.0
C1099 C 0.47263 0.10347 0.05442 0.0
C1100 C 0.17192 0.76811 0.18488 0.0
C1101 C 0.19833 0.753 0.16999 0.0
C1102 C 0.17852 0.80322 0.19496 0.0
C1103 C 0.21144 0.8237 0.18989 0.0
H1104 H 0.14411 0.75598 0.18612 0.0
H1105 H 0.15535 0.81662 0.20363 0.0
S1106 S 0.2966 0.78485 0.16254 0.0
N1107 N 0.26394 0.75222 0.15884 0.0
N1108 N 0.27654 0.81856 0.17749 0.0
C1109 C 0.24168 0.80357 0.18047 0.0
C1110 C 0.23503 0.76764 0.17057 0.0
C1111 C 0.42576 0.93368 0.38594 0.0
C1112 C 0.4611 0.91977 0.39276 0.0
C1113 C 0.39444 0.93143 0.39965 0.0
C1114 C 0.39693 0.91411 0.42045 0.0
H1115 H 0.42153 0.9443 0.36931 0.0
H1116 H 0.36732 0.94014 0.39307 0.0
S1117 S 0.48444 0.88042 0.44792 0.0
N1118 N 0.4983 0.89443 0.42318 0.0
N1119 N 0.43849 0.88811 0.44877 0.0
C1120 C 0.43269 0.90338 0.42843 0.0
C1121 C 0.46496 0.90631 0.4145 0.0
C1122 C 0.32708 0.21526 0.66379 0.0
C1123 C 0.35815 0.2094 0.67775 0.0
C1124 C 0.32528 0.24739 0.65058 0.0
C1125 C 0.355 0.27363 0.65082 0.0
H1126 H 0.30745 0.19247 0.66051 0.0
H1127 H 0.30392 0.24858 0.63773 0.0
S1128 S 0.43191 0.27904 0.692 0.0
N1129 N 0.41108 0.23826 0.69699 0.0
N1130 N 0.40857 0.29844 0.67123 0.0
C1131 C 0.38134 0.27208 0.66806 0.0
C1132 C 0.38264 0.23968 0.68192 0.0
C1133 C 0.08443 0.08939 0.90717 0.0
C1134 C 0.09056 0.11971 0.92161 0.0
C1135 C 0.04834 0.08135 0.89951 0.0
C1136 C 0.01709 0.10359 0.90598 0.0
H1137 H 0.10807 0.07397 0.90017 0.0
H1138 H 0.04597 0.06015 0.88661 0.0
S1139 S 0.01781 0.18113 0.94742 0.0
N1140 N 0.06245 0.16835 0.94505 0.0
N1141 N 0.99391 0.15267 0.93083 0.0
C1142 C 0.02236 0.13099 0.92259 0.0
C1143 C 0.05935 0.13919 0.93043 0.0
C1144 C 0.84905 0.76728 0.67089 0.0
C1145 C 0.83229 0.77092 0.64988 0.0
C1146 C 0.8538 0.79885 0.68477 0.0
C1147 C 0.84212 0.83511 0.67801 0.0
H1148 H 0.85971 0.74014 0.67631 0.0
H1149 H 0.86906 0.79517 0.70017 0.0
S1150 S 0.79536 0.85963 0.62502 0.0
N1151 N 0.80336 0.81378 0.62324 0.0
N1152 N 0.81083 0.87237 0.64971 0.0
C1153 C 0.82335 0.83866 0.65764 0.0
C1154 C 0.81895 0.80681 0.64343 0.0
C1155 C 0.98113 0.07313 0.38749 0.0
C1156 C 0.01454 0.09426 0.39066 0.0
C1157 C 0.95071 0.07636 0.40179 0.0
C1158 C 0.95125 0.10217 0.41934 0.0
H1159 H 0.97641 0.05612 0.37285 0.0
H1160 H 0.92504 0.0614 0.39763 0.0
S1161 S 0.03358 0.15783 0.43854 0.0
N1162 N 0.04866 0.13585 0.41602 0.0
N1163 N 0.98931 0.14462 0.44184 0.0
C1164 C 0.98529 0.12059 0.42439 0.0
C1165 C 0.01725 0.11633 0.41013 0.0
C1166 C 0.65939 0.19064 0.15459 0.0
C1167 C 0.65048 0.16293 0.13858 0.0
C1168 C 0.65775 0.2292 0.14948 0.0
C1169 C 0.64646 0.2411 0.12835 0.0
H1170 H 0.66632 0.1825 0.1714 0.0
H1171 H 0.66519 0.24978 0.16206 0.0
S1172 S 0.62676 0.18011 0.07966 0.0
N1173 N 0.63485 0.15033 0.1 0.0
N1174 N 0.63109 0.22268 0.09062 0.0
C1175 C 0.63955 0.21377 0.11194 0.0
C1176 C 0.64197 0.17469 0.11696 0.0
C1177 C 0.58918 0.94097 0.90816 0.0
C1178 C 0.57732 0.91184 0.92209 0.0
C1179 C 0.56442 0.9556 0.89234 0.0
C1180 C 0.52647 0.94361 0.89154 0.0
H1181 H 0.61848 0.94865 0.90726 0.0
H1182 H 0.57666 0.97267 0.87944 0.0
S1183 S 0.47819 0.88966 0.93573 0.0
N1184 N 0.52361 0.88514 0.94128 0.0
N1185 N 0.47548 0.91738 0.91383 0.0
C1186 C 0.51264 0.92427 0.9102 0.0
C1187 C 0.53845 0.90746 0.92527 0.0
C1188 C 0.87776 0.20951 0.85702 0.0
C1189 C 0.86465 0.19121 0.83789 0.0
C1190 C 0.87843 0.2486 0.85838 0.0
C1191 C 0.86417 0.27111 0.84119 0.0
H1192 H 0.88812 0.19355 0.87105 0.0
H1193 H 0.88823 0.2614 0.87362 0.0
S1194 S 0.82659 0.23702 0.78752 0.0
N1195 N 0.83898 0.19807 0.80075 0.0
N1196 N 0.83638 0.27262 0.80442 0.0
C1197 C 0.85082 0.25341 0.8219 0.0
C1198 C 0.85196 0.21316 0.82001 0.0
C1199 C 0.56798 0.11239 0.57179 0.0
C1200 C 0.57323 0.13593 0.55346 0.0
C1201 C 0.53316 0.11026 0.58227 0.0
C1202 C 0.50202 0.1315 0.57484 0.0
H1203 H 0.59149 0.09679 0.57876 0.0
H1204 H 0.53112 0.09294 0.59698 0.0
S1205 S 0.5 0.19508 0.52635 0.0
N1206 N 0.54391 0.1794 0.52734 0.0
N1207 N 0.47782 0.175 0.54725 0.0
C1208 C 0.50628 0.15402 0.55597 0.0
C1209 C 0.54199 0.15611 0.54512 0.0
C1210 C 0.64472 0.7583 0.31866 0.0
C1211 C 0.64103 0.75295 0.34153 0.0
C1212 C 0.64347 0.79489 0.30978 0.0
C1213 C 0.63935 0.82679 0.32369 0.0
H1214 H 0.64838 0.73425 0.3077 0.0
H1215 H 0.64441 0.79803 0.29195 0.0
S1216 S 0.63386 0.82668 0.38512 0.0
N1217 N 0.63538 0.78169 0.37797 0.0
N1218 N 0.63608 0.85024 0.36166 0.0
C1219 C 0.63796 0.8214 0.34672 0.0
C1220 C 0.63778 0.78449 0.35554 0.0
C1221 C 1.00229 0.931 0.08907 0.0
C1222 C 0.0135 0.94444 0.11001 0.0
C1223 C 0.96423 0.92401 0.08427 0.0
C1224 C 0.93604 0.92973 0.10037 0.0
H1225 H 0.02333 0.92377 0.07678 0.0
H1226 H 0.95727 0.91193 0.06827 0.0
S1227 S 0.95018 0.97095 0.15651 0.0
N1228 N 0.99297 0.96781 0.14599 0.0
N1229 N 0.92159 0.95527 0.13695 0.0
C1230 C 0.94655 0.94685 0.12057 0.0
C1231 C 0.98527 0.95401 0.12541 0.0
C1232 C 0.70845 0.74742 0.83499 0.0
C1233 C 0.68486 0.77912 0.83219 0.0
C1234 C 0.70446 0.71548 0.82165 0.0
C1235 C 0.67677 0.71403 0.80508 0.0
H1236 H 0.72772 0.74563 0.84889 0.0
H1237 H 0.72061 0.69041 0.82577 0.0
S1238 S 0.61426 0.79252 0.78757 0.0
N1239 N 0.63779 0.80969 0.809 0.0
N1240 N 0.62987 0.7489 0.78393 0.0
C1241 C 0.65616 0.74695 0.80028 0.0
C1242 C 0.66016 0.77968 0.81396 0.0
C1243 C 0.55557 0.40908 0.03775 0.0
C1244 C 0.59069 0.42283 0.04464 0.0
C1245 C 0.52307 0.41661 0.05022 0.0
C1246 C 0.52502 0.4389 0.06956 0.0
H1247 H 0.55407 0.38926 0.02417 0.0
H1248 H 0.497 0.4027 0.04566 0.0
S1249 S 0.60962 0.49077 0.08988 0.0
N1250 N 0.62446 0.4669 0.06803 0.0
N1251 N 0.56441 0.48071 0.09216 0.0
C1252 C 0.55931 0.45747 0.07441 0.0
C1253 C 0.59196 0.44977 0.06158 0.0
C1254 C 0.85798 0.27413 0.31949 0.0
C1255 C 0.86817 0.2605 0.34044 0.0
C1256 C 0.85358 0.31308 0.316 0.0
C1257 C 0.85728 0.33902 0.33364 0.0
H1258 H 0.8528 0.25462 0.30595 0.0
H1259 H 0.84697 0.32299 0.29949 0.0
S1260 S 0.88356 0.31666 0.39162 0.0
N1261 N 0.88295 0.27541 0.37878 0.0
N1262 N 0.87191 0.34809 0.37271 0.0
C1263 C 0.86697 0.3254 0.3547 0.0
C1264 C 0.87324 0.28624 0.35794 0.0
C1265 C 0.94922 0.62693 0.56908 0.0
C1266 C 0.92332 0.60818 0.58299 0.0
C1267 C 0.98805 0.62628 0.57349 0.0
C1268 C 1.00224 0.60557 0.59137 0.0
H1269 H 0.93941 0.64394 0.55536 0.0
H1270 H 1.00689 0.64271 0.56324 0.0
S1271 S 0.94746 0.5473 0.63087 0.0
N1272 N 0.91551 0.56525 0.61401 0.0
N1273 N 0.98828 0.56345 0.62202 0.0
C1274 C 0.97706 0.58441 0.60434 0.0
C1275 C 0.93766 0.58556 0.6001 0.0
C1276 C 0.65593 0.27588 0.6604 0.0
C1277 C 0.66486 0.27699 0.63782 0.0
C1278 C 0.64952 0.30938 0.67231 0.0
C1279 C 0.65126 0.34495 0.66188 0.0
H1280 H 0.65367 0.24903 0.66883 0.0
H1281 H 0.64158 0.30717 0.68957 0.0
S1282 S 0.67331 0.36241 0.6028 0.0
N1283 N 0.67512 0.31602 0.60535 0.0
N1284 N 0.66307 0.37894 0.6277 0.0
C1285 C 0.66066 0.34624 0.63933 0.0
C1286 C 0.66738 0.31225 0.62729 0.0
C1287 C 1.00636 0.43217 0.92185 0.0
C1288 C 1.00468 0.44792 0.90056 0.0
C1289 C 0.97326 0.42389 0.9335 0.0
C1290 C 0.9376 0.43045 0.92394 0.0
H1291 H 0.03331 0.4244 0.92901 0.0
H1292 H 0.97569 0.40919 0.94914 0.0
S1293 S 0.91804 0.47461 0.8696 0.0
N1294 N 0.96445 0.47241 0.87114 0.0
N1295 N 0.90254 0.45722 0.89319 0.0
C1296 C 0.93568 0.44898 0.90349 0.0
C1297 C 0.96918 0.45746 0.89168 0.0
C1298 C 0.88391 0.70898 0.14526 0.0
C1299 C 0.86733 0.72416 0.12617 0.0
C1300 C 0.89329 0.67047 0.14631 0.0
C1301 C 0.88739 0.64599 0.12805 0.0
H1302 H 0.89016 0.72707 0.15931 0.0
H1303 H 0.90652 0.66021 0.16131 0.0
S1304 S 0.84364 0.67243 0.07436 0.0
N1305 N 0.84416 0.712 0.0889 0.0
N1306 N 0.86216 0.63999 0.09067 0.0
C1307 C 0.86957 0.66081 0.10915 0.0
C1308 C 0.85965 0.69983 0.10822 0.0
C1309 C 0.5782 0.57062 0.40193 0.0
C1310 C 0.56986 0.58528 0.423 0.0
C1311 C 0.54963 0.55954 0.38758 0.0
C1312 C 0.51149 0.56184 0.39391 0.0
H1313 H 0.60677 0.57138 0.39556 0.0
H1314 H 0.55769 0.55292 0.37071 0.0
S1315 S 0.47654 0.58346 0.45041 0.0
N1316 N 0.52231 0.59197 0.45175 0.0
N1317 N 0.46803 0.56914 0.4248 0.0
C1318 C 0.50336 0.57033 0.41621 0.0
C1319 C 0.53275 0.58231 0.43084 0.0
C1320 C 0.35528 0.33844 0.13734 0.0
C1321 C 0.37345 0.33649 0.15793 0.0
C1322 C 0.34571 0.30593 0.12575 0.0
C1323 C 0.35316 0.26984 0.13443 0.0
H1324 H 0.35025 0.36535 0.12944 0.0
H1325 H 0.33438 0.30941 0.10921 0.0
S1326 S 0.39335 0.2493 0.18983 0.0
N1327 N 0.39393 0.29589 0.18815 0.0
N1328 N 0.37503 0.23397 0.16626 0.0
C1329 C 0.36836 0.26731 0.1559 0.0
C1330 C 0.37837 0.30085 0.16779 0.0
C1331 C 0.5031 0.62627 0.90326 0.0
C1332 C 0.5185 0.63925 0.88329 0.0
C1333 C 0.4639 0.62674 0.90665 0.0
C1334 C 0.43906 0.63889 0.88987 0.0
H1335 H 0.52136 0.61506 0.91605 0.0
H1336 H 0.45293 0.61721 0.9224 0.0
S1337 S 0.46626 0.67396 0.83418 0.0
N1338 N 0.50655 0.66382 0.84651 0.0
N1339 N 0.43327 0.66393 0.85242 0.0
C1340 C 0.45447 0.6515 0.86974 0.0
C1341 C 0.49412 0.65195 0.8666 0.0
C1342 C 0.15237 0.75426 0.67414 0.0
C1343 C 0.17304 0.75725 0.65435 0.0
C1344 C 0.15146 0.72012 0.68579 0.0
C1345 C 0.17033 0.68813 0.67763 0.0
H1346 H 0.13473 0.77743 0.67974 0.0
H1347 H 0.13272 0.7175 0.69977 0.0
S1348 S 0.23645 0.68349 0.63054 0.0
N1349 N 0.2187 0.72659 0.62973 0.0
N1350 N 0.2174 0.66357 0.65246 0.0
C1351 C 0.19555 0.69238 0.66012 0.0
C1352 C 0.19653 0.72669 0.64809 0.0
C1353 C 0.08819 0.45253 0.37671 0.0
C1354 C 0.09595 0.43252 0.39624 0.0
C1355 C 0.05125 0.45826 0.36962 0.0
C1356 C 0.02051 0.44456 0.38187 0.0
H1357 H 0.11071 0.46135 0.3658 0.0
H1358 H 0.04702 0.47109 0.35354 0.0
S1359 S 0.02534 0.39961 0.43705 0.0
N1360 N 0.06988 0.40597 0.43003 0.0
N1361 N 0.99985 0.41606 0.41627 0.0
C1362 C 0.02763 0.42793 0.40251 0.0
C1363 C 0.0655 0.42226 0.40986 0.0
C1364 C 0.36327 0.70439 0.31911 0.0
C1365 C 0.40233 0.70304 0.32287 0.0
C1366 C 0.34259 0.73672 0.32462 0.0
C1367 C 0.36046 0.76815 0.33434 0.0
H1368 H 0.3481 0.67941 0.31378 0.0
H1369 H 0.31209 0.7354 0.32386 0.0
S1370 S 0.46356 0.7827 0.34047 0.0
N1371 N 0.4592 0.73906 0.3311 0.0
N1372 N 0.42015 0.7993 0.3423 0.0
C1373 C 0.40005 0.76924 0.33467 0.0
C1374 C 0.42111 0.73651 0.3289 0.0
C1375 C 0.14451 0.59869 0.07721 0.0
C1376 C 0.13955 0.62104 0.05831 0.0
C1377 C 0.11419 0.57967 0.08648 0.0
C1378 C 0.07797 0.58198 0.07694 0.0
H1379 H 0.17095 0.59918 0.08625 0.0
H1380 H 0.11863 0.56667 0.10247 0.0
S1381 S 0.05346 0.62727 0.02357 0.0
N1382 N 0.09824 0.63799 0.02765 0.0
N1383 N 0.04115 0.60058 0.04472 0.0
C1384 C 0.07419 0.59927 0.05614 0.0
C1385 C 0.10514 0.61914 0.0468 0.0
C1386 C 0.14268 0.29021 0.84095 0.0
C1387 C 0.15263 0.26318 0.82495 0.0
C1388 C 0.14583 0.32862 0.83663 0.0
C1389 C 0.15707 0.34185 0.81573 0.0
H1390 H 0.13494 0.28155 0.85755 0.0
H1391 H 0.13964 0.34799 0.84997 0.0
S1392 S 0.18713 0.28174 0.76826 0.0
N1393 N 0.17642 0.25134 0.78795 0.0
N1394 N 0.17891 0.32416 0.77878 0.0
C1395 C 0.16684 0.31491 0.7994 0.0
C1396 C 0.16514 0.27547 0.80421 0.0
C1397 C 0.45818 0.42556 0.55566 0.0
C1398 C 0.42005 0.42921 0.56159 0.0
C1399 C 0.48677 0.43319 0.5711 0.0
C1400 C 0.47805 0.4442 0.59297 0.0
H1401 H 0.46598 0.41309 0.53989 0.0
H1402 H 0.51573 0.42799 0.56628 0.0
S1403 S 0.38183 0.46447 0.61481 0.0
N1404 N 0.37503 0.45144 0.58886 0.0
N1405 N 0.42786 0.46259 0.61862 0.0
C1406 C 0.43991 0.45172 0.59818 0.0
C1407 C 0.41116 0.44524 0.5822 0.0
C1408 C 0.22091 0.97797 0.33818 0.0
C1409 C 0.18669 0.99716 0.34259 0.0
C1410 C 0.2357 0.95091 0.35293 0.0
C1411 C 0.21673 0.94169 0.37258 0.0
H1412 H 0.23607 0.98333 0.32298 0.0
H1413 H 0.26146 0.93615 0.34858 0.0
S1414 S 0.12891 0.98612 0.39347 0.0
N1415 N 0.13648 1.00702 0.3695 0.0
N1416 N 0.16358 0.95532 0.3965 0.0
C1417 C 0.18317 0.96114 0.37751 0.0
C1418 C 0.16832 0.98901 0.36271 0.0
C1419 C 0.29893 0.9921 0.61356 0.0
C1420 C 0.28694 0.02934 0.61813 0.0
C1421 C 0.2731 0.96428 0.6064 0.0
C1422 C 0.23461 0.97297 0.60369 0.0
H1423 H 0.32838 0.98458 0.61538 0.0
H1424 H 0.28298 0.93568 0.60363 0.0
S1425 S 0.189 0.06595 0.61345 0.0
N1426 N 0.2337 0.07272 0.6199 0.0
N1427 N 0.18619 0.02146 0.60539 0.0
C1428 C 0.22264 1.01018 0.60784 0.0
C1429 C 0.24849 0.03806 0.61537 0.0
C1430 C 0.30854 0.09445 0.84765 0.0
C1431 C 0.28212 0.07036 0.85763 0.0
C1432 C 0.338 0.08015 0.83465 0.0
C1433 C 0.34279 0.04104 0.83119 0.0
H1434 H 0.30754 0.12461 0.85061 0.0
H1435 H 0.35804 0.09997 0.82787 0.0
S1436 S 0.27794 0.96612 0.85102 0.0
N1437 N 0.25974 1.00576 0.86082 0.0
N1438 N 0.31603 0.97862 0.83724 0.0
C1439 C 0.31521 0.0167 0.83997 0.0
C1440 C 0.28484 0.0314 0.85307 0.0
C1441 C 0.2814 0.04806 0.11228 0.0
C1442 C 0.2593 0.05929 0.0941 0.0
C1443 C 0.26859 0.02041 0.12711 0.0
C1444 C 0.23326 1.00274 0.1243 0.0
H1445 H 0.30787 0.0621 0.11573 0.0
H1446 H 0.28601 0.0136 0.14129 0.0
S1447 S 0.16666 0.01915 0.07777 0.0
N1448 N 0.20225 0.04781 0.07276 0.0
N1449 N 0.1776 0.99703 0.10092 0.0
C1450 C 0.21189 1.01224 0.10545 0.0
C1451 C 0.22504 0.04024 0.09033 0.0
C1452 C 0.79227 0.05776 0.64338 0.0
C1453 C 0.81407 0.02589 0.6374 0.0
C1454 C 0.76902 0.07636 0.62795 0.0
C1455 C 0.76649 0.0639 0.60585 0.0
H1456 H 0.79332 0.06851 0.66018 0.0
H1457 H 0.75258 0.10045 0.63344 0.0
S1458 S 0.81991 0.98362 0.5812 0.0
N1459 N 0.83285 0.98388 0.60748 0.0
N1460 N 0.78937 0.01863 0.57851 0.0
C1461 C 0.78828 0.03215 0.5996 0.0
C1462 C 0.81193 1.01319 0.61534 0.0
C1463 C 0.7347 0.05043 0.35312 0.0
C1464 C 0.7369 0.06836 0.37404 0.0
C1465 C 0.70196 0.03134 0.34624 0.0
C1466 C 0.67031 0.02923 0.36011 0.0
H1467 H 0.75912 0.04972 0.3424 0.0
H1468 H 0.70244 0.01578 0.33076 0.0
S1469 S 0.65962 0.07538 0.41506 0.0
N1470 N 0.70307 0.08583 0.40747 0.0
N1471 N 0.64157 0.05016 0.39454 0.0
C1472 C 0.67111 0.0495 0.38025 0.0
C1473 C 0.70435 0.06905 0.38721 0.0
C1474 C 0.69465 0.99589 0.12294 0.0
C1475 C 0.68758 0.98222 0.14429 0.0
C1476 C 0.7219 0.97905 0.10931 0.0
C1477 C 0.74393 0.94818 0.11657 0.0
H1478 H 0.67832 0.01934 0.11654 0.0
H1479 H 0.72546 0.9903 0.09282 0.0
S1480 S 0.73721 0.90317 0.17191 0.0
N1481 N 0.70451 0.9365 0.1724 0.0
N1482 N 0.75718 0.90564 0.14725 0.0
C1483 C 0.73721 0.93439 0.13809 0.0
C1484 C 0.70877 0.95125 0.15183 0.0
C1485 C 0.80792 0.94362 0.87857 0.0
C1486 C 0.77974 0.9645 0.8895 0.0
C1487 C 0.8345 0.96163 0.86497 0.0
C1488 C 0.83406 1.00115 0.86204 0.0
H1489 H 0.80772 0.91306 0.87928 0.0
H1490 H 0.85473 0.9444 0.85605 0.0
S1491 S 0.76774 0.06849 0.88866 0.0
N1492 N 0.75441 0.02665 0.89774 0.0
N1493 N 0.80438 0.06056 0.87243 0.0
C1494 C 0.80749 0.02242 0.87405 0.0
C1495 C 0.78032 1.00406 0.88769 0.0
C1496 C 0.7746 0.49175 0.88396 0.0
C1497 C 0.75477 0.45797 0.88738 0.0
C1498 C 0.76001 0.52011 0.87016 0.0
C1499 C 0.72518 0.51556 0.85924 0.0
H1500 H 0.80129 0.49643 0.89226 0.0
H1501 H 0.77585 0.54598 0.86823 0.0
S1502 S 0.66495 0.43011 0.86033 0.0
N1503 N 0.70025 0.42016 0.87722 0.0
N1504 N 0.67304 0.47324 0.85122 0.0
C1505 C 0.70565 0.48144 0.86205 0.0
C1506 C 0.72041 0.45268 0.87612 0.0
C1507 C 0.79499 0.47836 0.09849 0.0
C1508 C 0.78772 0.43929 0.09769 0.0
C1509 C 0.82861 0.49245 0.10762 0.0
C1510 C 0.85596 0.46794 0.1165 0.0
H1511 H 0.77451 0.49807 0.09187 0.0
H1512 H 0.83358 0.52261 0.10734 0.0
S1513 S 0.84787 0.36364 0.12106 0.0
N1514 N 0.80899 0.37667 0.10805 0.0
N1515 N 0.87176 0.40289 0.12569 0.0
C1516 C 0.84836 0.42886 0.11641 0.0
C1517 C 0.81438 0.41459 0.10687 0.0
C1518 C 0.77412 0.5482 0.34568 0.0
C1519 C 0.80332 0.52356 0.35225 0.0
C1520 C 0.75251 0.5684 0.36124 0.0
C1521 C 0.75894 0.56477 0.38416 0.0
H1522 H 0.76761 0.55162 0.32827 0.0
H1523 H 0.72979 0.58611 0.35524 0.0
S1524 S 0.83311 0.5054 0.41024 0.0
N1525 N 0.83798 0.49739 0.38343 0.0
N1526 N 0.79818 0.53609 0.4126 0.0
C1527 C 0.78873 0.54103 0.39099 0.0
C1528 C 0.81076 0.52037 0.3751 0.0
C1529 C 0.68138 0.52568 0.61126 0.0
C1530 C 0.67746 0.53607 0.63358 0.0
C1531 C 0.70757 0.54392 0.59756 0.0
C1532 C 0.73115 0.57294 0.60573 0.0
H1533 H 0.66313 0.50429 0.60419 0.0
H1534 H 0.70874 0.53571 0.58028 0.0
S1535 S 0.7344 0.60706 0.66397 0.0
N1536 N 0.70047 0.57519 0.66375 0.0
N1537 N 0.75068 0.60853 0.63838 0.0
C1538 C 0.72826 0.58252 0.62833 0.0
C1539 C 0.70123 0.56427 0.64215 0.0
C1540 C 0.34078 0.61442 0.11644 0.0
C1541 C 0.30163 0.61687 0.11259 0.0
C1542 C 0.35775 0.58033 0.12308 0.0
C1543 C 0.33611 0.54755 0.12612 0.0
H1544 H 0.35854 0.63878 0.11369 0.0
H1545 H 0.38809 0.57921 0.12504 0.0
S1546 S 0.23205 0.54039 0.12154 0.0
N1547 N 0.24139 0.58451 0.11475 0.0
N1548 N 0.27325 0.52058 0.12696 0.0
C1549 C 0.29682 0.55009 0.12329 0.0
C1550 C 0.27958 0.58468 0.11658 0.0
C1551 C 0.23663 0.5658 0.85176 0.0
C1552 C 0.20774 0.54194 0.85964 0.0
C1553 C 0.25608 0.59087 0.86589 0.0
C1554 C 0.24735 0.59367 0.88855 0.0
H1555 H 0.24402 0.56562 0.83438 0.0
H1556 H 0.2775 0.60897 0.85889 0.0
S1557 S 0.17673 0.53585 0.91831 0.0
N1558 N 0.17352 0.52135 0.89234 0.0
N1559 N 0.20925 0.56917 0.91855 0.0
C1560 C 0.21895 0.56984 0.8968 0.0
C1561 C 0.19938 0.54391 0.88247 0.0
C1562 C 0.23932 0.45689 0.59257 0.0
C1563 C 0.24399 0.42342 0.60467 0.0
C1564 C 0.22122 0.48854 0.60183 0.0
C1565 C 0.2072 0.48835 0.62371 0.0
H1566 H 0.24947 0.45853 0.5757 0.0
H1567 H 0.21819 0.51348 0.59167 0.0
S1568 S 0.21377 0.40837 0.66291 0.0
N1569 N 0.23394 0.39231 0.64007 0.0
N1570 N 0.19999 0.45193 0.65736 0.0
C1571 C 0.21144 0.45501 0.63599 0.0
C1572 C 0.22988 0.42261 0.62654 0.0
C1573 C 0.33411 0.49361 0.367 0.0
C1574 C 0.32194 0.49979 0.34512 0.0
C1575 C 0.31354 0.47036 0.38146 0.0
C1576 C 0.28033 0.4519 0.37451 0.0
H1577 H 0.35883 0.50807 0.37326 0.0
H1578 H 0.3234 0.46718 0.39833 0.0
S1579 S 0.23797 0.45692 0.31832 0.0
N1580 N 0.27582 0.48385 0.31681 0.0
N1581 N 0.23703 0.44074 0.34391 0.0
C1582 C 0.26868 0.45682 0.3524 0.0
C1583 C 0.28948 0.48063 0.33776 0.0
C1584 C 0.12086 0.02625 0.23687 0.0
C1585 C 0.08588 0.03913 0.24472 0.0
C1586 C 0.12287 0.99869 0.22004 0.0
C1587 C 0.08998 0.98324 0.21038 0.0
H1588 H 0.14669 0.03573 0.2447 0.0
H1589 H 0.15045 0.98869 0.21508 0.0
S1590 S 0.99156 1.01142 0.22369 0.0
N1591 N 0.01784 0.03695 0.24064 0.0
N1592 N 0.02137 0.98597 0.20884 0.0
C1593 C 0.05491 0.99777 0.2173 0.0
C1594 C 0.05295 0.02548 0.23452 0.0
C1595 C 0.24979 0.87144 0.51294 0.0
C1596 C 0.21101 0.86521 0.51618 0.0
C1597 C 0.26652 0.86522 0.49227 0.0
C1598 C 0.24508 0.85161 0.47442 0.0
H1599 H 0.26765 0.87945 0.52676 0.0
H1600 H 0.29673 0.86882 0.49064 0.0
S1601 S 0.1418 0.83542 0.47356 0.0
N1602 N 0.15097 0.84886 0.49924 0.0
N1603 N 0.18264 0.83597 0.46045 0.0
C1604 C 0.20592 0.84757 0.47703 0.0
C1605 C 0.18875 0.8548 0.49794 0.0
C1606 C 0.41766 0.05552 0.72202 0.0
C1607 C 0.40667 0.03473 0.70325 0.0
C1608 C 0.42889 0.03715 0.7414 0.0
C1609 C 0.42872 0.99748 0.7428 0.0
H1610 H 0.41988 0.08602 0.72131 0.0
H1611 H 0.43867 0.05414 0.75523 0.0
S1612 S 0.39802 0.93052 0.69912 0.0
N1613 N 0.39346 0.97263 0.6877 0.0
N1614 N 0.41354 0.93814 0.72458 0.0
C1615 C 0.41531 0.97647 0.72472 0.0
C1616 C 0.40459 0.99514 0.70478 0.0
C1617 C 0.29532 0.15868 0.95652 0.0
C1618 C 0.25667 0.16645 0.95347 0.0
C1619 C 0.31111 0.15721 0.9778 0.0
C1620 C 0.28868 0.16395 -0.00349 0.0
H1621 H 0.31365 0.15449 0.94238 0.0
H1622 H 0.34122 0.15286 0.97954 0.0
S1623 S 0.18581 0.18263 -0.0023 0.0
N1624 N 0.19622 0.17878 0.97116 0.0
N1625 N 0.22592 0.17589 0.01103 0.0
C1626 C 0.24985 0.16998 -0.00624 0.0
C1627 C 0.23377 0.17127 0.97223 0.0
C1628 C 0.97021 0.9977 0.73978 0.0
C1629 C 0.93439 0.9876 0.73181 0.0
C1630 C 0.97474 0.02676 0.75523 0.0
C1631 C 0.94366 0.0473 0.76335 0.0
H1632 H 0.99518 0.983 0.73398 0.0
H1633 H 1.00298 0.03263 0.76118 0.0
S1634 S 0.84381 0.03383 0.74641 0.0
N1635 N 0.86723 1.00137 0.73224 0.0
N1636 N 0.87566 0.05679 0.76123 0.0
C1637 C 0.9076 0.03841 0.75494 0.0
C1638 C 0.90295 1.00815 0.73936 0.0
C1639 C 0.72724 0.16325 0.48818 0.0
C1640 C 0.74789 0.15608 0.50755 0.0
C1641 C 0.74497 0.1632 0.46744 0.0
C1642 C 0.78384 0.15544 0.4653 0.0
H1643 H 0.69765 0.1708 0.48912 0.0
H1644 H 0.72816 0.1702 0.45302 0.0
S1645 S 0.84927 0.13007 0.51086 0.0
N1646 N 0.80843 0.13762 0.52324 0.0
N1647 N 0.84158 0.13712 0.48422 0.0
C1648 C 0.80424 0.14589 0.48443 0.0
C1649 C 0.7863 0.14637 0.50557 0.0
C1650 C 0.58895 0.06171 0.25706 0.0
C1651 C 0.6062 0.05102 0.2372 0.0
C1652 C 0.58732 0.03668 0.27482 0.0
C1653 C 0.60207 0.99973 0.27309 0.0
H1654 H 0.57341 0.08807 0.25814 0.0
H1655 H 0.57146 0.04531 0.28932 0.0
S1656 S 0.65714 0.96134 0.22607 0.0
N1657 N 0.64443 1.00412 0.21805 0.0
N1658 N 0.64006 0.95614 0.25133 0.0
C1659 C 0.62338 0.99036 0.25433 0.0
C1660 C 0.62564 0.01632 0.23631 0.0
C1661 C 0.75205 0.86669 0.01669 0.0
C1662 C 0.79178 0.86719 0.0181 0.0
C1663 C 0.73335 0.86615 -0.0038 0.0
C1664 C 0.75374 0.86537 0.97632 0.0
H1665 H 0.73518 0.86539 0.03162 0.0
H1666 H 0.70286 0.8642 -0.00403 0.0
S1667 S 0.85797 0.87083 0.97082 0.0
N1668 N 0.85067 0.87053 -0.00217 0.0
N1669 N 0.81578 0.86897 0.95921 0.0
C1670 C 0.79342 0.86811 0.97746 0.0
C1671 C 0.8124 0.86924 -0.00163 0.0
C1672 C 0.61109 0.55377 0.74747 0.0
C1673 C 0.63175 0.53771 0.76485 0.0
C1674 C 0.59797 0.53125 0.73001 0.0
C1675 C 0.60583 0.49223 0.72918 0.0
H1676 H 0.60236 0.58312 0.74826 0.0
H1677 H 0.58038 0.54429 0.71749 0.0
S1678 S 0.6636 0.43811 0.7691 0.0
N1679 N 0.66268 0.48154 0.77927 0.0
N1680 N 0.63906 0.43945 0.74582 0.0
C1681 C 0.62926 0.47657 0.74541 0.0
C1682 C 0.64197 0.49933 0.76346 0.0
C1683 C 0.77178 0.30218 0.00843 0.0
C1684 C 0.75476 0.33659 0.01452 0.0
C1685 C 0.7965 0.29999 -0.00952 0.0
C1686 C 0.80596 0.33232 0.97835 0.0
H1687 H 0.76517 0.27644 0.01725 0.0
H1688 H 0.8077 0.27259 0.98577 0.0
S1689 S 0.77114 0.42982 0.98869 0.0
N1690 N 0.75004 0.40402 0.00772 0.0
N1691 N 0.79777 0.40029 0.97429 0.0
C1692 C 0.7904 0.36731 0.98484 0.0
C1693 C 0.76434 0.36933 0.00282 0.0
C1694 C 0.92162 0.4564 0.2341 0.0
C1695 C 0.90502 0.48152 0.24925 0.0
C1696 C 0.9343 0.46917 0.21348 0.0
C1697 C 0.9304 0.50736 0.20726 0.0
H1698 H 0.92744 0.42745 0.23881 0.0
H1699 H 0.94858 0.44922 0.20271 0.0
S1700 S 0.88344 0.58281 0.24002 0.0
N1701 N 0.88154 0.54508 0.25597 0.0
N1702 N 0.90474 0.56902 0.21705 0.0
C1703 C 0.91099 0.53196 0.2216 0.0
C1704 C 0.89848 0.51902 0.24267 0.0
C1705 C 0.78091 0.67809 0.49314 0.0
C1706 C 0.76436 0.66992 0.51357 0.0
C1707 C 0.75885 0.67969 0.47389 0.0
C1708 C 0.71966 0.67267 0.47441 0.0
H1709 H 0.81054 0.68529 0.4922 0.0
H1710 H 0.77263 0.68724 0.45854 0.0
S1711 S 0.66422 0.64532 0.52372 0.0
N1712 N 0.70749 0.65154 0.53319 0.0
N1713 N 0.66617 0.6539 0.49687 0.0
C1714 C 0.70335 0.66215 0.49459 0.0
C1715 C 0.72571 0.661 0.51422 0.0
C1716 C 0.42644 0.55811 0.23153 0.0
C1717 C 0.41253 0.53868 0.24991 0.0
C1718 C 0.43077 0.53954 0.21115 0.0
C1719 C 0.42106 0.50111 0.20853 0.0
H1720 H 0.43672 0.58677 0.2333 0.0
H1721 H 0.44335 0.55507 0.19764 0.0
S1722 S 0.37719 0.44016 0.25101 0.0
N1723 N 0.38453 0.48084 0.26379 0.0
N1724 N 0.39233 0.446 0.2254 0.0
C1725 C 0.40396 0.48252 0.22633 0.0
C1726 C 0.39981 0.50135 0.24708 0.0
C1727 C 0.32975 0.73684 -0.00196 0.0
C1728 C 0.32313 0.70517 0.98452 0.0
C1729 C 0.30937 0.74266 0.01755 0.0
C1730 C 0.28098 0.71738 0.02406 0.0
H1731 H 0.34945 0.75841 -0.00716 0.0
H1732 H 0.31477 0.76816 0.02702 0.0
S1733 S 0.2551 0.62825 -0.00491 0.0
N1734 N 0.2884 0.64682 0.97947 0.0
N1735 N 0.24961 0.65755 0.01623 0.0
C1736 C 0.27551 0.6844 0.01124 0.0
C1737 C 0.29677 0.67831 -0.00855 0.0
C1738 C 0.10969 0.55027 0.73473 0.0
C1739 C 0.10954 0.52567 0.71643 0.0
C1740 C 0.10832 0.5363 0.75638 0.0
C1741 C 0.10744 0.49719 0.76062 0.0
H1742 H 0.10928 0.58059 0.73233 0.0
H1743 H 0.1073 0.55647 0.76992 0.0
S1744 S 0.11095 0.42083 0.71843 0.0
N1745 N 0.11127 0.46024 0.70388 0.0
N1746 N 0.10941 0.43403 0.7447 0.0
C1747 C 0.10937 0.47222 0.74251 0.0
C1748 C 0.11016 0.48647 0.72038 0.0
C1749 C 0.27586 0.34743 0.4675 0.0
C1750 C 0.23658 0.34173 0.46672 0.0
C1751 C 0.2956 0.34632 0.48759 0.0
C1752 C 0.27676 0.33846 0.50743 0.0
H1753 H 0.29159 0.35196 0.45237 0.0
H1754 H 0.32597 0.34962 0.48744 0.0
S1755 S 0.17382 0.32456 0.51449 0.0
N1756 N 0.17923 0.33099 0.48759 0.0
N1757 N 0.21646 0.32758 0.52544 0.0
C1758 C 0.23731 0.33424 0.507 0.0
C1759 C 0.21712 0.33629 0.48659 0.0
C1760 C 1.00915 0.25102 0.27183 0.0
C1761 C 1.01107 0.22874 0.29112 0.0
C1762 C 1.00105 0.29009 0.27284 0.0
C1763 C 0.99352 0.30842 0.29314 0.0
H1764 H 0.0145 0.23819 0.25582 0.0
H1765 H 0.99995 0.30597 0.25757 0.0
S1766 S 0.99429 0.26304 0.34841 0.0
N1767 N 1.00487 0.22823 0.33115 0.0
N1768 N 0.98853 0.30106 0.33299 0.0
C1769 C 0.99507 0.28642 0.31252 0.0
C1770 C 1.00418 0.24684 0.31153 0.0
C1771 C 0.9797 0.74753 0.57007 0.0
C1772 C 0.9578 0.75027 0.55063 0.0
C1773 C 0.01896 0.75357 0.56985 0.0
C1774 C 0.03838 0.76192 0.55011 0.0
H1775 H 0.96622 0.74141 0.58572 0.0
H1776 H 0.03434 0.75197 0.58534 0.0
S1777 S 0.9947 0.77119 0.49448 0.0
N1778 N 0.95899 0.76085 0.51088 0.0
N1779 N 0.03244 0.77246 0.51053 0.0
C1780 C 0.01701 0.76397 0.53046 0.0
C1781 C 0.9769 0.75814 0.53071 0.0
C1782 C 0.51153 0.77595 0.77098 0.0
C1783 C 0.51079 0.80158 0.78891 0.0
C1784 C 0.52191 0.73782 0.77389 0.0
C1785 C 0.53291 0.72385 0.79476 0.0
H1786 H 0.50407 0.78556 0.75455 0.0
H1787 H 0.52251 0.7194 0.75953 0.0
S1788 S 0.53582 0.77938 0.84712 0.0
N1789 N 0.5214 0.81006 0.82836 0.0
N1790 N 0.54188 0.73901 0.83375 0.0
C1791 C 0.53207 0.7492 0.81286 0.0
C1792 C 0.5207 0.78781 0.80997 0.0
C1793 C 0.5043 0.22041 0.04922 0.0
C1794 C 0.47725 0.24313 0.0384 0.0
C1795 C 0.54285 0.23039 0.04981 0.0
C1796 C 0.55614 0.26378 0.03988 0.0
H1797 H 0.4958 0.19443 0.05711 0.0
H1798 H 0.56226 0.21202 0.05838 0.0
S1799 S 0.49774 0.33364 0.00969 0.0
N1800 N 0.46723 0.30186 0.01825 0.0
N1801 N 0.53934 0.3189 0.01846 0.0
C1802 C 0.52956 0.28673 0.02912 0.0
C1803 C 0.49035 0.2769 0.02862 0.0
C1804 C 0.0689 0.70674 0.16018 0.0
C1805 C 0.03335 0.69546 0.1681 0.0
C1806 C 0.08014 0.74495 0.16078 0.0
C1807 C 0.05725 0.77304 0.17052 0.0
H1808 H 0.08825 0.68576 0.15364 0.0
H1809 H 0.10757 0.75223 0.15445 0.0
S1810 S 0.95912 0.75888 0.19025 0.0
N1811 N 0.97331 0.71609 0.18299 0.0
N1812 N 0.99497 0.7873 0.18525 0.0
C1813 C 0.0207 0.76229 0.1772 0.0
C1814 C 1.00875 0.72368 0.17582 0.0
C1815 C 0.51053 0.78191 0.41777 0.0
C1816 C 0.52403 0.7483 0.42771 0.0
C1817 C 0.4721 0.79305 0.41915 0.0
C1818 C 0.44539 0.7717 0.43105 0.0
H1819 H 0.52991 0.79986 0.40885 0.0
H1820 H 0.46353 0.8192 0.41139 0.0
S1821 S 0.46561 0.68063 0.4593 0.0
N1822 N 0.50686 0.69339 0.44923 0.0
N1823 N 0.43547 0.7137 0.45169 0.0
C1824 C 0.45846 0.73753 0.44049 0.0
C1825 C 0.49738 0.72605 0.43888 0.0
C1826 C 0.5218 0.22822 0.69699 0.0
C1827 C 0.50766 0.21538 0.6765 0.0
C1828 C 0.53161 0.26647 0.7003 0.0
C1829 C 0.52827 0.2933 0.68316 0.0
H1830 H 0.52359 0.20898 0.71084 0.0
H1831 H 0.54122 0.27529 0.71654 0.0
S1832 S 0.49518 0.2735 0.62596 0.0
N1833 N 0.49298 0.23217 0.63846 0.0
N1834 N 0.5113 0.3036 0.64467 0.0
C1835 C 0.51592 0.28036 0.66231 0.0
C1836 C 0.50558 0.24159 0.65901 0.0
C1837 C 0.04108 0.24589 0.89901 0.0
C1838 C 0.06845 0.26461 0.91208 0.0
C1839 C 1.0024 0.25439 0.90072 0.0
C1840 C 0.98898 0.28243 0.91536 0.0
H1841 H 0.04942 0.22418 0.88732 0.0
H1842 H 0.98273 0.23881 0.89045 0.0
S1843 S 0.04774 0.34056 0.95315 0.0
N1844 N 0.07844 0.31304 0.94027 0.0
N1845 N 1.006 0.32944 0.94291 0.0
C1846 C 0.0158 0.30226 0.92803 0.0
C1847 C 0.05533 0.29331 0.92653 0.0
C1848 C 0.96848 0.76173 0.66941 0.0
C1849 C 0.98675 0.78687 0.68415 0.0
C1850 C 0.98094 0.72377 0.66669 0.0
C1851 C 1.01236 0.70931 0.67849 0.0
H1852 H 0.94375 0.7711 0.66042 0.0
H1853 H 0.96589 0.70561 0.65524 0.0
S1854 S 0.06991 0.76321 0.71909 0.0
N1855 N 0.03879 0.79427 0.71005 0.0
N1856 N 0.06033 0.72342 0.7059 0.0
C1857 C 0.03079 0.73429 0.69308 0.0
C1858 C 0.0185 0.77277 0.69566 0.0
C1859 C 0.03217 0.24415 0.40408 0.0
C1860 C 0.04905 0.26879 0.41951 0.0
C1861 C 0.99384 0.23408 0.40559 0.0
C1862 C 0.97042 0.24762 0.42284 0.0
H1863 H 0.04875 0.23267 0.39058 0.0
H1864 H 0.98262 0.21542 0.39298 0.0
S1865 S 1.00203 0.31084 0.46859 0.0
N1866 N 0.03997 0.30557 0.45304 0.0
N1867 N 0.96844 0.28605 0.45638 0.0
C1868 C 0.9872 0.27221 0.43851 0.0
C1869 C 0.02626 0.28286 0.43674 0.0
C1870 C 0.48874 0.28495 0.17063 0.0
C1871 C 0.51612 0.31241 0.17596 0.0
C1872 C 0.49556 0.24604 0.17337 0.0
C1873 C 0.53029 0.23219 0.18141 0.0
H1874 H 0.46131 0.29346 0.16464 0.0
H1875 H 0.47324 0.22654 0.16905 0.0
S1876 S 0.61312 0.29128 0.19598 0.0
N1877 N 0.58079 0.3222 0.18822 0.0
N1878 N 0.59327 0.24929 0.19365 0.0
C1879 C 0.55853 0.25905 0.18608 0.0
C1880 C 0.55152 0.29893 0.18336 0.0
C1881 C 0.55813 0.73559 0.92644 0.0
C1882 C 0.57547 0.76081 0.94171 0.0
C1883 C 0.51868 0.73085 0.92532 0.0
C1884 C 0.49428 0.75139 0.93919 0.0
H1885 H 0.57476 0.72022 0.91445 0.0
H1886 H 0.50706 0.71225 0.91278 0.0
S1887 S 0.52343 0.81675 0.98421 0.0
N1888 N 0.56363 0.80303 0.97295 0.0
N1889 N 0.48986 0.79525 0.97001 0.0
C1890 C 0.51076 0.77543 0.95511 0.0
C1891 C 0.55106 0.7798 0.9566 0.0
C1892 C 0.9808 0.26331 0.82297 0.0
C1893 C 1.00199 0.23777 0.80999 0.0
C1894 C 0.98862 0.30253 0.82304 0.0
C1895 C 0.01745 0.31831 0.80986 0.0
H1896 H 0.95887 0.25273 0.83373 0.0
H1897 H 0.97271 0.32057 0.83405 0.0
S1898 S 0.07872 0.26377 0.77127 0.0
N1899 N 0.05196 0.23131 0.78286 0.0
N1900 N 0.06555 0.3045 0.78228 0.0
C1901 C 0.03812 0.29299 0.79636 0.0
C1902 C 0.03061 0.25304 0.79659 0.0
C1903 C 0.54789 0.27209 0.56283 0.0
C1904 C 0.57178 0.27234 0.54411 0.0
C1905 C 0.50952 0.28286 0.5614 0.0
C1906 C 0.49317 0.29381 0.54113 0.0
H1907 H 0.55884 0.26305 0.57871 0.0
H1908 H 0.49212 0.28121 0.57605 0.0
S1909 S 0.5429 0.30013 0.48724 0.0
N1910 N 0.57559 0.28511 0.50463 0.0
N1911 N 0.50426 0.30561 0.50213 0.0
C1912 C 0.51685 0.29501 0.52244 0.0
C1913 C 0.55586 0.28428 0.52388 0.0
C1914 C 0.54489 0.76715 0.30221 0.0
C1915 C 0.5242 0.79081 0.28784 0.0
C1916 C 0.54044 0.72761 0.30224 0.0
C1917 C 0.51473 0.70903 0.288 0.0
H1918 H 0.56489 0.77913 0.31375 0.0
H1919 H 0.55678 0.71171 0.31412 0.0
S1920 S 0.4527 0.75727 0.24716 0.0
N1921 N 0.47601 0.79216 0.25914 0.0
N1922 N 0.46835 0.7181 0.25877 0.0
C1923 C 0.49379 0.73222 0.27343 0.0
C1924 C 0.49835 0.77277 0.27343 0.0
C1925 C 0.99647 0.74655 0.06236 0.0
C1926 C 0.9814 0.78238 0.05702 0.0
C1927 C 0.03573 0.73938 0.06174 0.0
C1928 C 0.0616 0.76761 0.05551 0.0
H1929 H 0.97781 0.72397 0.06732 0.0
H1930 H 0.04586 0.71136 0.06581 0.0
S1931 S 0.03697 0.86613 0.03995 0.0
N1932 N 0.99593 0.84606 0.04492 0.0
N1933 N 0.06899 0.83318 0.04455 0.0
C1934 C 0.04685 0.80354 0.05029 0.0
C1935 C 1.00705 0.81077 0.05086 0.0
loop_
_geom_bond_atom_site_label_1
_geom_bond_atom_site_label_2
_geom_bond_distance
_geom_bond_site_symmetry_2
_ccdc_geom_bond_type
C0 C1 1.351 . S
C0 N3 1.368 . S
C0 H5 0.931 . S
C1 C0 1.351 . S
C1 N2 1.373 . S
C1 H29 0.930 . S
N2 C1 1.373 . S
N2 C4 1.340 . S
N3 C0 1.368 . S
N3 C4 1.321 . S
N3 Co6 2.135 . S
C4 N2 1.340 . S
C4 N3 1.321 . S
C4 H28 0.930 . S
H5 C0 0.931 . S
Co6 N3 2.135 . S
Co6 N9 2.121 . S
Co6 O14 2.055 . S
Co6 O17 2.039 . S
Co6 N20 2.140 . S
C7 O8 1.227 . S
C7 O17 1.265 . S
O8 C7 1.227 . S
N9 Co6 2.121 . S
N9 C11 1.375 . S
N9 C12 1.313 . S
C10 C11 1.338 . S
C10 N13 1.377 . S
C10 H30 0.930 . S
C11 N9 1.375 . S
C11 C10 1.338 . S
C11 H15 0.931 . S
C12 N9 1.313 . S
C12 N13 1.344 . S
C12 H16 0.930 . S
N13 C10 1.377 . S
N13 C12 1.344 . S
O14 Co6 2.055 . S
O14 C18 1.253 . S
H15 C11 0.931 . S
H16 C12 0.930 . S
O17 Co6 2.039 . S
O17 C7 1.265 . S
C18 O14 1.253 . S
C18 O19 1.227 . S
O19 C18 1.227 . S
N20 Co6 2.140 . S
N20 C23 1.346 . S
N20 C24 1.345 . S
C21 C22 1.387 . S
C21 C25 1.391 . S
C22 C21 1.387 . S
C22 C23 1.369 . S
C22 H31 0.929 1_455 S
C23 N20 1.346 . S
C23 C22 1.369 . S
C23 H26 0.928 . S
C24 N20 1.345 . S
C24 C25 1.371 . S
C24 H27 0.931 . S
C25 C21 1.391 . S
C25 C24 1.371 . S
C25 H32 0.930 . S
H26 C23 0.928 . S
H27 C24 0.931 . S
H28 C4 0.930 . S
H29 C1 0.930 . S
H30 C10 0.930 . S
H31 C22 0.929 1_655 S
H32 C25 0.930 . S
C33 C34 1.351 . S
C33 N36 1.368 . S
C33 H38 0.931 . S
C34 C33 1.351 . S
C34 N35 1.373 . S
C34 H62 0.930 . S
N35 C34 1.373 . S
N35 C37 1.340 . S
N36 C33 1.368 . S
N36 C37 1.321 . S
N36 Co39 2.135 . S
C37 N35 1.340 . S
C37 N36 1.321 . S
C37 H61 0.930 . S
H38 C33 0.931 . S
Co39 N36 2.135 . S
Co39 N42 2.121 . S
Co39 O47 2.055 . S
Co39 O50 2.039 . S
Co39 N53 2.140 . S
C40 O41 1.227 . S
C40 O50 1.265 . S
O41 C40 1.227 . S
N42 Co39 2.121 . S
N42 C44 1.375 . S
N42 C45 1.313 . S
C43 C44 1.338 . S
C43 N46 1.377 . S
C43 H63 0.930 . S
C44 N42 1.375 . S
C44 C43 1.338 . S
C44 H48 0.931 . S
C45 N42 1.313 . S
C45 N46 1.344 . S
C45 H49 0.930 . S
N46 C43 1.377 . S
N46 C45 1.344 . S
O47 Co39 2.055 . S
O47 C51 1.253 . S
H48 C44 0.931 . S
H49 C45 0.930 . S
O50 Co39 2.039 . S
O50 C40 1.265 . S
C51 O47 1.253 . S
C51 O52 1.227 . S
O52 C51 1.227 . S
N53 Co39 2.140 . S
N53 C56 1.346 . S
N53 C57 1.345 . S
C54 C55 1.387 . S
C54 C58 1.391 . S
C55 C54 1.387 . S
C55 C56 1.369 . S
C55 H64 0.929 . S
C56 N53 1.346 . S
C56 C55 1.369 . S
C56 H59 0.928 . S
C57 N53 1.345 . S
C57 C58 1.371 . S
C57 H60 0.931 . S
C58 C54 1.391 . S
C58 C57 1.371 . S
C58 H65 0.930 . S
H59 C56 0.928 . S
H60 C57 0.931 . S
H61 C37 0.930 . S
H62 C34 0.930 . S
H63 C43 0.930 . S
H64 C55 0.929 . S
H65 C58 0.930 . S
C66 C67 1.351 . S
C66 N69 1.368 . S
C66 H71 0.931 . S
C67 C66 1.351 . S
C67 N68 1.373 . S
C67 H95 0.930 . S
N68 C67 1.373 . S
N68 C70 1.340 . S
N69 C66 1.368 . S
N69 C70 1.321 . S
N69 Co72 2.135 . S
C70 N68 1.340 . S
C70 N69 1.321 . S
C70 H94 0.930 . S
H71 C66 0.931 . S
Co72 N69 2.135 . S
Co72 N75 2.121 . S
Co72 O80 2.055 . S
Co72 O83 2.039 . S
Co72 N86 2.140 . S
C73 O74 1.227 . S
C73 O83 1.265 . S
O74 C73 1.227 . S
N75 Co72 2.121 . S
N75 C77 1.375 . S
N75 C78 1.313 . S
C76 C77 1.338 . S
C76 N79 1.377 . S
C76 H96 0.930 . S
C77 N75 1.375 . S
C77 C76 1.338 . S
C77 H81 0.931 . S
C78 N75 1.313 . S
C78 N79 1.344 . S
C78 H82 0.930 . S
N79 C76 1.377 . S
N79 C78 1.344 . S
O80 Co72 2.055 . S
O80 C84 1.253 . S
H81 C77 0.931 . S
H82 C78 0.930 . S
O83 Co72 2.039 . S
O83 C73 1.265 . S
C84 O80 1.253 . S
C84 O85 1.227 . S
O85 C84 1.227 . S
N86 Co72 2.140 . S
N86 C89 1.346 . S
N86 C90 1.345 . S
C87 C88 1.387 . S
C87 C91 1.391 . S
C88 C87 1.387 . S
C88 C89 1.369 . S
C88 H97 0.929 . S
C89 N86 1.346 . S
C89 C88 1.369 . S
C89 H92 0.928 . S
C90 N86 1.345 . S
C90 C91 1.371 . S
C90 H93 0.931 . S
C91 C87 1.391 . S
C91 C90 1.371 . S
C91 H98 0.930 . S
H92 C89 0.928 . S
H93 C90 0.931 . S
H94 C70 0.930 . S
H95 C67 0.930 . S
H96 C76 0.930 . S
H97 C88 0.929 . S
H98 C91 0.930 . S
C99 C100 1.351 . S
C99 N102 1.368 . S
C99 H104 0.931 . S
C100 C99 1.351 . S
C100 N101 1.373 . S
C100 H128 0.930 . S
N101 C100 1.373 . S
N101 C103 1.340 . S
N102 C99 1.368 . S
N102 C103 1.321 . S
N102 Co105 2.135 . S
C103 N101 1.340 . S
C103 N102 1.321 . S
C103 H127 0.930 . S
H104 C99 0.931 . S
Co105 N102 2.135 . S
Co105 N108 2.121 . S
Co105 O113 2.055 . S
Co105 O116 2.039 . S
Co105 N119 2.140 . S
C106 O107 1.227 . S
C106 O116 1.265 . S
O107 C106 1.227 . S
N108 Co105 2.121 . S
N108 C110 1.375 . S
N108 C111 1.313 . S
C109 C110 1.338 . S
C109 N112 1.377 . S
C109 H129 0.930 . S
C110 N108 1.375 . S
C110 C109 1.338 . S
C110 H114 0.931 . S
C111 N108 1.313 . S
C111 N112 1.344 . S
C111 H115 0.930 . S
N112 C109 1.377 . S
N112 C111 1.344 . S
O113 Co105 2.055 . S
O113 C117 1.253 . S
H114 C110 0.931 . S
H115 C111 0.930 . S
O116 Co105 2.039 . S
O116 C106 1.265 . S
C117 O113 1.253 . S
C117 O118 1.227 . S
O118 C117 1.227 . S
N119 Co105 2.140 . S
N119 C122 1.346 . S
N119 C123 1.345 . S
C120 C121 1.387 . S
C120 C124 1.391 . S
C121 C120 1.387 . S
C121 C122 1.369 . S
C121 H130 0.929 . S
C122 N119 1.346 . S
C122 C121 1.369 . S
C122 H125 0.928 . S
C123 N119 1.345 . S
C123 C124 1.371 . S
C123 H126 0.931 . S
C124 C120 1.391 . S
C124 C123 1.371 . S
C124 H131 0.930 . S
H125 C122 0.928 . S
H126 C123 0.931 . S
H127 C103 0.930 . S
H128 C100 0.930 . S
H129 C109 0.930 . S
H130 C121 0.929 . S
H131 C124 0.930 . S
C132 C133 1.351 . S
C132 N135 1.368 . S
C132 H137 0.931 . S
C133 C132 1.351 . S
C133 N134 1.373 . S
C133 H161 0.930 . S
N134 C133 1.373 . S
N134 C136 1.340 . S
N135 C132 1.368 . S
N135 C136 1.321 . S
N135 Co138 2.135 . S
C136 N134 1.340 . S
C136 N135 1.321 . S
C136 H160 0.930 . S
H137 C132 0.931 . S
Co138 N135 2.135 . S
Co138 N141 2.121 . S
Co138 O146 2.055 . S
Co138 O149 2.039 . S
Co138 N152 2.140 . S
C139 O140 1.227 . S
C139 O149 1.265 . S
O140 C139 1.227 . S
N141 Co138 2.121 . S
N141 C143 1.375 . S
N141 C144 1.313 . S
C142 C143 1.338 . S
C142 N145 1.377 . S
C142 H162 0.930 . S
C143 N141 1.375 . S
C143 C142 1.338 . S
C143 H147 0.931 . S
C144 N141 1.313 . S
C144 N145 1.344 . S
C144 H148 0.930 . S
N145 C142 1.377 . S
N145 C144 1.344 . S
O146 Co138 2.055 . S
O146 C150 1.253 . S
H147 C143 0.931 . S
H148 C144 0.930 . S
O149 Co138 2.039 . S
O149 C139 1.265 . S
C150 O146 1.253 . S
C150 O151 1.227 . S
O151 C150 1.227 . S
N152 Co138 2.140 . S
N152 C155 1.346 . S
N152 C156 1.345 . S
C153 C154 1.387 . S
C153 C157 1.391 . S
C154 C153 1.387 . S
C154 C155 1.369 . S
C154 H163 0.929 1_455 S
C155 N152 1.346 . S
C155 C154 1.369 . S
C155 H158 0.928 . S
C156 N152 1.345 . S
C156 C157 1.371 . S
C156 H159 0.931 . S
C157 C153 1.391 . S
C157 C156 1.371 . S
C157 H164 0.930 . S
H158 C155 0.928 . S
H159 C156 0.931 . S
H160 C136 0.930 . S
H161 C133 0.930 . S
H162 C142 0.930 . S
H163 C154 0.929 1_655 S
H164 C157 0.930 . S
C165 C166 1.351 . S
C165 N168 1.368 . S
C165 H170 0.931 . S
C166 C165 1.351 . S
C166 N167 1.373 . S
C166 H194 0.930 . S
N167 C166 1.373 . S
N167 C169 1.340 . S
N168 C165 1.368 . S
N168 C169 1.321 . S
N168 Co171 2.135 . S
C169 N167 1.340 . S
C169 N168 1.321 . S
C169 H193 0.930 . S
H170 C165 0.931 . S
Co171 N168 2.135 . S
Co171 N174 2.121 . S
Co171 O179 2.055 . S
Co171 O182 2.039 . S
Co171 N185 2.140 . S
C172 O173 1.227 . S
C172 O182 1.265 . S
O173 C172 1.227 . S
N174 Co171 2.121 . S
N174 C176 1.375 . S
N174 C177 1.313 . S
C175 C176 1.338 . S
C175 N178 1.377 . S
C175 H195 0.930 . S
C176 N174 1.375 . S
C176 C175 1.338 . S
C176 H180 0.931 . S
C177 N174 1.313 . S
C177 N178 1.344 . S
C177 H181 0.930 . S
N178 C175 1.377 . S
N178 C177 1.344 . S
O179 Co171 2.055 . S
O179 C183 1.253 . S
H180 C176 0.931 . S
H181 C177 0.930 . S
O182 Co171 2.039 . S
O182 C172 1.265 . S
C183 O179 1.253 . S
C183 O184 1.227 . S
O184 C183 1.227 . S
N185 Co171 2.140 . S
N185 C188 1.346 . S
N185 C189 1.345 . S
C186 C187 1.387 . S
C186 C190 1.391 . S
C187 C186 1.387 . S
C187 C188 1.369 . S
C187 H196 0.929 . S
C188 N185 1.346 . S
C188 C187 1.369 . S
C188 H191 0.928 . S
C189 N185 1.345 . S
C189 C190 1.371 . S
C189 H192 0.931 . S
C190 C186 1.391 . S
C190 C189 1.371 . S
C190 H197 0.930 . S
H191 C188 0.928 . S
H192 C189 0.931 . S
H193 C169 0.930 . S
H194 C166 0.930 . S
H195 C175 0.930 . S
H196 C187 0.929 . S
H197 C190 0.930 . S
C198 C199 1.351 . S
C198 N201 1.368 . S
C198 H203 0.931 . S
C199 C198 1.351 . S
C199 N200 1.373 . S
C199 H227 0.930 . S
N200 C199 1.373 . S
N200 C202 1.340 . S
N201 C198 1.368 . S
N201 C202 1.321 . S
N201 Co204 2.135 . S
C202 N200 1.340 . S
C202 N201 1.321 . S
C202 H226 0.930 . S
H203 C198 0.931 . S
Co204 N201 2.135 . S
Co204 N207 2.121 . S
Co204 O212 2.055 . S
Co204 O215 2.039 . S
Co204 N218 2.140 . S
C205 O206 1.227 . S
C205 O215 1.265 . S
O206 C205 1.227 . S
N207 Co204 2.121 . S
N207 C209 1.375 . S
N207 C210 1.313 . S
C208 C209 1.338 . S
C208 N211 1.377 . S
C208 H228 0.930 . S
C209 N207 1.375 . S
C209 C208 1.338 . S
C209 H213 0.931 . S
C210 N207 1.313 . S
C210 N211 1.344 . S
C210 H214 0.930 . S
N211 C208 1.377 . S
N211 C210 1.344 . S
O212 Co204 2.055 . S
O212 C216 1.253 . S
H213 C209 0.931 . S
H214 C210 0.930 . S
O215 Co204 2.039 . S
O215 C205 1.265 . S
C216 O212 1.253 . S
C216 O217 1.227 . S
O217 C216 1.227 . S
N218 Co204 2.140 . S
N218 C221 1.346 . S
N218 C222 1.345 . S
C219 C220 1.387 . S
C219 C223 1.391 . S
C220 C219 1.387 . S
C220 C221 1.369 . S
C220 H229 0.929 . S
C221 N218 1.346 . S
C221 C220 1.369 . S
C221 H224 0.928 . S
C222 N218 1.345 . S
C222 C223 1.371 . S
C222 H225 0.931 . S
C223 C219 1.391 . S
C223 C222 1.371 . S
C223 H230 0.930 . S
H224 C221 0.928 . S
H225 C222 0.931 . S
H226 C202 0.930 . S
H227 C199 0.930 . S
H228 C208 0.930 . S
H229 C220 0.929 . S
H230 C223 0.930 . S
C231 C232 1.351 . S
C231 N234 1.368 . S
C231 H236 0.931 . S
C232 C231 1.351 . S
C232 N233 1.373 . S
C232 H260 0.930 . S
N233 C232 1.373 . S
N233 C235 1.340 . S
N234 C231 1.368 . S
N234 C235 1.321 . S
N234 Co237 2.135 . S
C235 N233 1.340 . S
C235 N234 1.321 . S
C235 H259 0.930 . S
H236 C231 0.931 . S
Co237 N234 2.135 . S
Co237 N240 2.121 . S
Co237 O245 2.055 . S
Co237 O248 2.039 . S
Co237 N251 2.140 . S
C238 O239 1.227 . S
C238 O248 1.265 . S
O239 C238 1.227 . S
N240 Co237 2.121 . S
N240 C242 1.375 . S
N240 C243 1.313 . S
C241 C242 1.338 . S
C241 N244 1.377 . S
C241 H261 0.930 . S
C242 N240 1.375 . S
C242 C241 1.338 . S
C242 H246 0.931 . S
C243 N240 1.313 . S
C243 N244 1.344 . S
C243 H247 0.930 . S
N244 C241 1.377 . S
N244 C243 1.344 . S
O245 Co237 2.055 . S
O245 C249 1.253 . S
H246 C242 0.931 . S
H247 C243 0.930 . S
O248 Co237 2.039 . S
O248 C238 1.265 . S
C249 O245 1.253 . S
C249 O250 1.227 . S
O250 C249 1.227 . S
N251 Co237 2.140 . S
N251 C254 1.346 . S
N251 C255 1.345 . S
C252 C253 1.387 . S
C252 C256 1.391 . S
C253 C252 1.387 . S
C253 C254 1.369 . S
C253 H262 0.929 . S
C254 N251 1.346 . S
C254 C253 1.369 . S
C254 H257 0.928 . S
C255 N251 1.345 . S
C255 C256 1.371 . S
C255 H258 0.931 . S
C256 C252 1.391 . S
C256 C255 1.371 . S
C256 H263 0.930 . S
H257 C254 0.928 . S
H258 C255 0.931 . S
H259 C235 0.930 . S
H260 C232 0.930 . S
H261 C241 0.930 . S
H262 C253 0.929 . S
H263 C256 0.930 . S
C264 C265 1.351 . S
C264 N267 1.368 . S
C264 H269 0.931 . S
C265 C264 1.351 . S
C265 N266 1.373 . S
C265 H293 0.930 . S
N266 C265 1.373 . S
N266 C268 1.340 . S
N267 C264 1.368 . S
N267 C268 1.321 . S
N267 Co270 2.135 . S
C268 N266 1.340 . S
C268 N267 1.321 . S
C268 H292 0.930 . S
H269 C264 0.931 . S
Co270 N267 2.135 . S
Co270 N273 2.121 . S
Co270 O278 2.055 . S
Co270 O281 2.039 . S
Co270 N284 2.140 . S
C271 O272 1.227 . S
C271 O281 1.265 . S
O272 C271 1.227 . S
N273 Co270 2.121 . S
N273 C275 1.375 . S
N273 C276 1.313 . S
C274 C275 1.338 . S
C274 N277 1.377 . S
C274 H294 0.930 . S
C275 N273 1.375 . S
C275 C274 1.338 . S
C275 H279 0.931 . S
C276 N273 1.313 . S
C276 N277 1.344 . S
C276 H280 0.930 . S
N277 C274 1.377 . S
N277 C276 1.344 . S
O278 Co270 2.055 . S
O278 C282 1.253 . S
H279 C275 0.931 . S
H280 C276 0.930 . S
O281 Co270 2.039 . S
O281 C271 1.265 . S
C282 O278 1.253 . S
C282 O283 1.227 . S
O283 C282 1.227 . S
N284 Co270 2.140 . S
N284 C287 1.346 . S
N284 C288 1.345 . S
C285 C286 1.387 . S
C285 C289 1.391 . S
C286 C285 1.387 . S
C286 C287 1.369 . S
C286 H295 0.929 1_655 S
C287 N284 1.346 . S
C287 C286 1.369 . S
C287 H290 0.928 . S
C288 N284 1.345 . S
C288 C289 1.371 . S
C288 H291 0.931 . S
C289 C285 1.391 . S
C289 C288 1.371 . S
C289 H296 0.930 . S
H290 C287 0.928 . S
H291 C288 0.931 . S
H292 C268 0.930 . S
H293 C265 0.930 . S
H294 C274 0.930 . S
H295 C286 0.929 1_455 S
H296 C289 0.930 . S
C297 C298 1.351 . S
C297 N300 1.368 . S
C297 H302 0.931 . S
C298 C297 1.351 . S
C298 N299 1.373 . S
C298 H326 0.930 . S
N299 C298 1.373 . S
N299 C301 1.340 . S
N300 C297 1.368 . S
N300 C301 1.321 . S
N300 Co303 2.135 . S
C301 N299 1.340 . S
C301 N300 1.321 . S
C301 H325 0.930 . S
H302 C297 0.931 . S
Co303 N300 2.135 . S
Co303 N306 2.121 . S
Co303 O311 2.055 . S
Co303 O314 2.039 . S
Co303 N317 2.140 . S
C304 O305 1.227 . S
C304 O314 1.265 . S
O305 C304 1.227 . S
N306 Co303 2.121 . S
N306 C308 1.375 . S
N306 C309 1.313 . S
C307 C308 1.338 . S
C307 N310 1.377 . S
C307 H327 0.930 . S
C308 N306 1.375 . S
C308 C307 1.338 . S
C308 H312 0.931 . S
C309 N306 1.313 . S
C309 N310 1.344 . S
C309 H313 0.930 . S
N310 C307 1.377 . S
N310 C309 1.344 . S
O311 Co303 2.055 . S
O311 C315 1.253 . S
H312 C308 0.931 . S
H313 C309 0.930 . S
O314 Co303 2.039 . S
O314 C304 1.265 . S
C315 O311 1.253 . S
C315 O316 1.227 . S
O316 C315 1.227 . S
N317 Co303 2.140 . S
N317 C320 1.346 . S
N317 C321 1.345 . S
C318 C319 1.387 . S
C318 C322 1.391 . S
C319 C318 1.387 . S
C319 C320 1.369 . S
C319 H328 0.929 . S
C320 N317 1.346 . S
C320 C319 1.369 . S
C320 H323 0.928 . S
C321 N317 1.345 . S
C321 C322 1.371 . S
C321 H324 0.931 . S
C322 C318 1.391 . S
C322 C321 1.371 . S
C322 H329 0.930 . S
H323 C320 0.928 . S
H324 C321 0.931 . S
H325 C301 0.930 . S
H326 C298 0.930 . S
H327 C307 0.930 . S
H328 C319 0.929 . S
H329 C322 0.930 . S
C330 C331 1.351 . S
C330 N333 1.368 . S
C330 H335 0.931 . S
C331 C330 1.351 . S
C331 N332 1.373 . S
C331 H359 0.930 . S
N332 C331 1.373 . S
N332 C334 1.340 . S
N333 C330 1.368 . S
N333 C334 1.321 . S
N333 Co336 2.135 . S
C334 N332 1.340 . S
C334 N333 1.321 . S
C334 H358 0.930 . S
H335 C330 0.931 . S
Co336 N333 2.135 . S
Co336 N339 2.121 . S
Co336 O344 2.055 . S
Co336 O347 2.039 . S
Co336 N350 2.140 . S
C337 O338 1.227 . S
C337 O347 1.265 . S
O338 C337 1.227 . S
N339 Co336 2.121 . S
N339 C341 1.375 . S
N339 C342 1.313 . S
C340 C341 1.338 . S
C340 N343 1.377 . S
C340 H360 0.930 . S
C341 N339 1.375 . S
C341 C340 1.338 . S
C341 H345 0.931 . S
C342 N339 1.313 . S
C342 N343 1.344 . S
C342 H346 0.930 . S
N343 C340 1.377 . S
N343 C342 1.344 . S
O344 Co336 2.055 . S
O344 C348 1.253 . S
H345 C341 0.931 . S
H346 C342 0.930 . S
O347 Co336 2.039 . S
O347 C337 1.265 . S
C348 O344 1.253 . S
C348 O349 1.227 . S
O349 C348 1.227 . S
N350 Co336 2.140 . S
N350 C353 1.346 . S
N350 C354 1.345 . S
C351 C352 1.387 . S
C351 C355 1.391 . S
C352 C351 1.387 . S
C352 C353 1.369 . S
C352 H361 0.929 . S
C353 N350 1.346 . S
C353 C352 1.369 . S
C353 H356 0.928 . S
C354 N350 1.345 . S
C354 C355 1.371 . S
C354 H357 0.931 . S
C355 C351 1.391 . S
C355 C354 1.371 . S
C355 H362 0.930 . S
H356 C353 0.928 . S
H357 C354 0.931 . S
H358 C334 0.930 . S
H359 C331 0.930 . S
H360 C340 0.930 . S
H361 C352 0.929 . S
H362 C355 0.930 . S
C363 C364 1.351 . S
C363 N366 1.368 . S
C363 H368 0.931 . S
C364 C363 1.351 . S
C364 N365 1.373 . S
C364 H392 0.930 . S
N365 C364 1.373 . S
N365 C367 1.340 . S
N366 C363 1.368 . S
N366 C367 1.321 . S
N366 Co369 2.135 . S
C367 N365 1.340 . S
C367 N366 1.321 . S
C367 H391 0.930 . S
H368 C363 0.931 . S
Co369 N366 2.135 . S
Co369 N372 2.121 . S
Co369 O377 2.055 . S
Co369 O380 2.039 . S
Co369 N383 2.140 . S
C370 O371 1.227 . S
C370 O380 1.265 . S
O371 C370 1.227 . S
N372 Co369 2.121 . S
N372 C374 1.375 . S
N372 C375 1.313 . S
C373 C374 1.338 . S
C373 N376 1.377 . S
C373 H393 0.930 . S
C374 N372 1.375 . S
C374 C373 1.338 . S
C374 H378 0.931 . S
C375 N372 1.313 . S
C375 N376 1.344 . S
C375 H379 0.930 . S
N376 C373 1.377 . S
N376 C375 1.344 . S
O377 Co369 2.055 . S
O377 C381 1.253 . S
H378 C374 0.931 . S
H379 C375 0.930 . S
O380 Co369 2.039 . S
O380 C370 1.265 . S
C381 O377 1.253 . S
C381 O382 1.227 . S
O382 C381 1.227 . S
N383 Co369 2.140 . S
N383 C386 1.346 . S
N383 C387 1.345 . S
C384 C385 1.387 . S
C384 C388 1.391 . S
C385 C384 1.387 . S
C385 C386 1.369 . S
C385 H394 0.929 . S
C386 N383 1.346 . S
C386 C385 1.369 . S
C386 H389 0.928 . S
C387 N383 1.345 . S
C387 C388 1.371 . S
C387 H390 0.931 . S
C388 C384 1.391 . S
C388 C387 1.371 . S
C388 H395 0.930 . S
H389 C386 0.928 . S
H390 C387 0.931 . S
H391 C367 0.930 . S
H392 C364 0.930 . S
H393 C373 0.930 . S
H394 C385 0.929 . S
H395 C388 0.930 . S
C396 C397 1.351 . S
C396 N399 1.368 . S
C396 H401 0.931 . S
C397 C396 1.351 . S
C397 N398 1.373 . S
C397 H425 0.930 . S
N398 C397 1.373 . S
N398 C400 1.340 . S
N399 C396 1.368 . S
N399 C400 1.321 . S
N399 Co402 2.135 . S
C400 N398 1.340 . S
C400 N399 1.321 . S
C400 H424 0.930 . S
H401 C396 0.931 . S
Co402 N399 2.135 . S
Co402 N405 2.121 . S
Co402 O410 2.055 . S
Co402 O413 2.039 . S
Co402 N416 2.140 . S
C403 O404 1.227 . S
C403 O413 1.265 . S
O404 C403 1.227 . S
N405 Co402 2.121 . S
N405 C407 1.375 . S
N405 C408 1.313 . S
C406 C407 1.338 . S
C406 N409 1.377 . S
C406 H426 0.930 . S
C407 N405 1.375 . S
C407 C406 1.338 . S
C407 H411 0.931 . S
C408 N405 1.313 . S
C408 N409 1.344 . S
C408 H412 0.930 . S
N409 C406 1.377 . S
N409 C408 1.344 . S
O410 Co402 2.055 . S
O410 C414 1.253 . S
H411 C407 0.931 . S
H412 C408 0.930 . S
O413 Co402 2.039 . S
O413 C403 1.265 . S
C414 O410 1.253 . S
C414 O415 1.227 . S
O415 C414 1.227 . S
N416 Co402 2.140 . S
N416 C419 1.346 . S
N416 C420 1.345 . S
C417 C418 1.387 . S
C417 C421 1.391 . S
C418 C417 1.387 . S
C418 C419 1.369 . S
C418 H427 0.929 1_655 S
C419 N416 1.346 . S
C419 C418 1.369 . S
C419 H422 0.928 . S
C420 N416 1.345 . S
C420 C421 1.371 . S
C420 H423 0.931 . S
C421 C417 1.391 . S
C421 C420 1.371 . S
C421 H428 0.930 . S
H422 C419 0.928 . S
H423 C420 0.931 . S
H424 C400 0.930 . S
H425 C397 0.930 . S
H426 C406 0.930 . S
H427 C418 0.929 1_455 S
H428 C421 0.930 . S
C429 C430 1.351 . S
C429 N432 1.368 . S
C429 H434 0.931 . S
C430 C429 1.351 . S
C430 N431 1.373 . S
C430 H458 0.930 . S
N431 C430 1.373 . S
N431 C433 1.340 . S
N432 C429 1.368 . S
N432 C433 1.321 . S
N432 Co435 2.135 . S
C433 N431 1.340 . S
C433 N432 1.321 . S
C433 H457 0.930 . S
H434 C429 0.931 . S
Co435 N432 2.135 . S
Co435 N438 2.121 . S
Co435 O443 2.055 . S
Co435 O446 2.039 . S
Co435 N449 2.140 . S
C436 O437 1.227 . S
C436 O446 1.265 . S
O437 C436 1.227 . S
N438 Co435 2.121 . S
N438 C440 1.375 . S
N438 C441 1.313 . S
C439 C440 1.338 . S
C439 N442 1.377 . S
C439 H459 0.930 . S
C440 N438 1.375 . S
C440 C439 1.338 . S
C440 H444 0.931 . S
C441 N438 1.313 . S
C441 N442 1.344 . S
C441 H445 0.930 . S
N442 C439 1.377 . S
N442 C441 1.344 . S
O443 Co435 2.055 . S
O443 C447 1.253 . S
H444 C440 0.931 . S
H445 C441 0.930 . S
O446 Co435 2.039 . S
O446 C436 1.265 . S
C447 O443 1.253 . S
C447 O448 1.227 . S
O448 C447 1.227 . S
N449 Co435 2.140 . S
N449 C452 1.346 . S
N449 C453 1.345 . S
C450 C451 1.387 . S
C450 C454 1.391 . S
C451 C450 1.387 . S
C451 C452 1.369 . S
C451 H460 0.929 . S
C452 N449 1.346 . S
C452 C451 1.369 . S
C452 H455 0.928 . S
C453 N449 1.345 . S
C453 C454 1.371 . S
C453 H456 0.931 . S
C454 C450 1.391 . S
C454 C453 1.371 . S
C454 H461 0.930 . S
H455 C452 0.928 . S
H456 C453 0.931 . S
H457 C433 0.930 . S
H458 C430 0.930 . S
H459 C439 0.930 . S
H460 C451 0.929 . S
H461 C454 0.930 . S
C462 C463 1.351 . S
C462 N465 1.368 . S
C462 H467 0.931 . S
C463 C462 1.351 . S
C463 N464 1.373 . S
C463 H491 0.930 . S
N464 C463 1.373 . S
N464 C466 1.340 . S
N465 C462 1.368 . S
N465 C466 1.321 . S
N465 Co468 2.135 . S
C466 N464 1.340 . S
C466 N465 1.321 . S
C466 H490 0.930 . S
H467 C462 0.931 . S
Co468 N465 2.135 . S
Co468 N471 2.121 . S
Co468 O476 2.055 . S
Co468 O479 2.039 . S
Co468 N482 2.140 . S
C469 O470 1.227 . S
C469 O479 1.265 . S
O470 C469 1.227 . S
N471 Co468 2.121 . S
N471 C473 1.375 . S
N471 C474 1.313 . S
C472 C473 1.338 . S
C472 N475 1.377 . S
C472 H492 0.930 . S
C473 N471 1.375 . S
C473 C472 1.338 . S
C473 H477 0.931 . S
C474 N471 1.313 . S
C474 N475 1.344 . S
C474 H478 0.930 . S
N475 C472 1.377 . S
N475 C474 1.344 . S
O476 Co468 2.055 . S
O476 C480 1.253 . S
H477 C473 0.931 . S
H478 C474 0.930 . S
O479 Co468 2.039 . S
O479 C469 1.265 . S
C480 O476 1.253 . S
C480 O481 1.227 . S
O481 C480 1.227 . S
N482 Co468 2.140 . S
N482 C485 1.346 . S
N482 C486 1.345 . S
C483 C484 1.387 . S
C483 C487 1.391 . S
C484 C483 1.387 . S
C484 C485 1.369 . S
C484 H493 0.929 . S
C485 N482 1.346 . S
C485 C484 1.369 . S
C485 H488 0.928 . S
C486 N482 1.345 . S
C486 C487 1.371 . S
C486 H489 0.931 . S
C487 C483 1.391 . S
C487 C486 1.371 . S
C487 H494 0.930 . S
H488 C485 0.928 . S
H489 C486 0.931 . S
H490 C466 0.930 . S
H491 C463 0.930 . S
H492 C472 0.930 . S
H493 C484 0.929 . S
H494 C487 0.930 . S
C495 C496 1.351 . S
C495 N498 1.368 . S
C495 H500 0.931 . S
C496 C495 1.351 . S
C496 N497 1.373 . S
C496 H524 0.930 . S
N497 C496 1.373 . S
N497 C499 1.340 . S
N498 C495 1.368 . S
N498 C499 1.321 . S
N498 Co501 2.135 . S
C499 N497 1.340 . S
C499 N498 1.321 . S
C499 H523 0.930 . S
H500 C495 0.931 . S
Co501 N498 2.135 . S
Co501 N504 2.121 . S
Co501 O509 2.055 . S
Co501 O512 2.039 . S
Co501 N515 2.140 . S
C502 O503 1.227 . S
C502 O512 1.265 . S
O503 C502 1.227 . S
N504 Co501 2.121 . S
N504 C506 1.375 . S
N504 C507 1.313 . S
C505 C506 1.338 . S
C505 N508 1.377 . S
C505 H525 0.930 . S
C506 N504 1.375 . S
C506 C505 1.338 . S
C506 H510 0.931 . S
C507 N504 1.313 . S
C507 N508 1.344 . S
C507 H511 0.930 . S
N508 C505 1.377 . S
N508 C507 1.344 . S
O509 Co501 2.055 . S
O509 C513 1.253 . S
H510 C506 0.931 . S
H511 C507 0.930 . S
O512 Co501 2.039 . S
O512 C502 1.265 . S
C513 O509 1.253 . S
C513 O514 1.227 . S
O514 C513 1.227 . S
N515 Co501 2.140 . S
N515 C518 1.346 . S
N515 C519 1.345 . S
C516 C517 1.387 . S
C516 C520 1.391 . S
C517 C516 1.387 . S
C517 C518 1.369 . S
C517 H526 0.929 . S
C518 N515 1.346 . S
C518 C517 1.369 . S
C518 H521 0.928 . S
C519 N515 1.345 . S
C519 C520 1.371 . S
C519 H522 0.931 . S
C520 C516 1.391 . S
C520 C519 1.371 . S
C520 H527 0.930 . S
H521 C518 0.928 . S
H522 C519 0.931 . S
H523 C499 0.930 . S
H524 C496 0.930 . S
H525 C505 0.930 . S
H526 C517 0.929 . S
H527 C520 0.930 . S
C528 C529 1.351 . S
C528 N531 1.368 . S
C528 H533 0.931 . S
C529 C528 1.351 . S
C529 N530 1.373 . S
C529 H557 0.930 . S
N530 C529 1.373 . S
N530 C532 1.340 . S
N531 C528 1.368 . S
N531 C532 1.321 . S
N531 Co534 2.135 . S
C532 N530 1.340 . S
C532 N531 1.321 . S
C532 H556 0.930 . S
H533 C528 0.931 . S
Co534 N531 2.135 . S
Co534 N537 2.121 . S
Co534 O542 2.055 . S
Co534 O545 2.039 . S
Co534 N548 2.140 . S
C535 O536 1.227 . S
C535 O545 1.265 . S
O536 C535 1.227 . S
N537 Co534 2.121 . S
N537 C539 1.375 . S
N537 C540 1.313 . S
C538 C539 1.338 . S
C538 N541 1.377 . S
C538 H558 0.930 . S
C539 N537 1.375 . S
C539 C538 1.338 . S
C539 H543 0.931 . S
C540 N537 1.313 . S
C540 N541 1.344 . S
C540 H544 0.930 . S
N541 C538 1.377 . S
N541 C540 1.344 . S
O542 Co534 2.055 . S
O542 C546 1.253 . S
H543 C539 0.931 . S
H544 C540 0.930 . S
O545 Co534 2.039 . S
O545 C535 1.265 . S
C546 O542 1.253 . S
C546 O547 1.227 . S
O547 C546 1.227 . S
N548 Co534 2.140 . S
N548 C551 1.346 . S
N548 C552 1.345 . S
C549 C550 1.387 . S
C549 C553 1.391 . S
C550 C549 1.387 . S
C550 C551 1.369 . S
C550 H559 0.929 . S
C551 N548 1.346 . S
C551 C550 1.369 . S
C551 H554 0.928 . S
C552 N548 1.345 . S
C552 C553 1.371 . S
C552 H555 0.931 . S
C553 C549 1.391 . S
C553 C552 1.371 . S
C553 H560 0.930 . S
H554 C551 0.928 . S
H555 C552 0.931 . S
H556 C532 0.930 . S
H557 C529 0.930 . S
H558 C538 0.930 . S
H559 C550 0.929 . S
H560 C553 0.930 . S
C561 C562 1.351 . S
C561 N564 1.368 . S
C561 H566 0.931 . S
C562 C561 1.351 . S
C562 N563 1.373 . S
C562 H590 0.930 . S
N563 C562 1.373 . S
N563 C565 1.340 . S
N564 C561 1.368 . S
N564 C565 1.321 . S
N564 Co567 2.135 . S
C565 N563 1.340 . S
C565 N564 1.321 . S
C565 H589 0.930 . S
H566 C561 0.931 . S
Co567 N564 2.135 . S
Co567 N570 2.121 . S
Co567 O575 2.055 . S
Co567 O578 2.039 . S
Co567 N581 2.140 . S
C568 O569 1.227 . S
C568 O578 1.265 . S
O569 C568 1.227 . S
N570 Co567 2.121 . S
N570 C572 1.375 . S
N570 C573 1.313 . S
C571 C572 1.338 . S
C571 N574 1.377 . S
C571 H591 0.930 . S
C572 N570 1.375 . S
C572 C571 1.338 . S
C572 H576 0.931 . S
C573 N570 1.313 . S
C573 N574 1.344 . S
C573 H577 0.930 . S
N574 C571 1.377 . S
N574 C573 1.344 . S
O575 Co567 2.055 . S
O575 C579 1.253 . S
H576 C572 0.931 . S
H577 C573 0.930 . S
O578 Co567 2.039 . S
O578 C568 1.265 . S
C579 O575 1.253 . S
C579 O580 1.227 . S
O580 C579 1.227 . S
N581 Co567 2.140 . S
N581 C584 1.346 . S
N581 C585 1.345 . S
C582 C583 1.387 . S
C582 C586 1.391 . S
C583 C582 1.387 . S
C583 C584 1.369 . S
C583 H592 0.929 . S
C584 N581 1.346 . S
C584 C583 1.369 . S
C584 H587 0.928 . S
C585 N581 1.345 . S
C585 C586 1.371 . S
C585 H588 0.931 . S
C586 C582 1.391 . S
C586 C585 1.371 . S
C586 H593 0.930 . S
H587 C584 0.928 . S
H588 C585 0.931 . S
H589 C565 0.930 . S
H590 C562 0.930 . S
H591 C571 0.930 . S
H592 C583 0.929 . S
H593 C586 0.930 . S
C594 C595 1.351 . S
C594 N597 1.368 . S
C594 H599 0.931 . S
C595 C594 1.351 . S
C595 N596 1.373 . S
C595 H623 0.930 . S
N596 C595 1.373 . S
N596 C598 1.340 . S
N597 C594 1.368 . S
N597 C598 1.321 . S
N597 Co600 2.135 . S
C598 N596 1.340 . S
C598 N597 1.321 . S
C598 H622 0.930 . S
H599 C594 0.931 . S
Co600 N597 2.135 . S
Co600 N603 2.121 . S
Co600 O608 2.055 . S
Co600 O611 2.039 . S
Co600 N614 2.140 . S
C601 O602 1.227 . S
C601 O611 1.265 . S
O602 C601 1.227 . S
N603 Co600 2.121 . S
N603 C605 1.375 . S
N603 C606 1.313 . S
C604 C605 1.338 . S
C604 N607 1.377 . S
C604 H624 0.930 . S
C605 N603 1.375 . S
C605 C604 1.338 . S
C605 H609 0.931 . S
C606 N603 1.313 . S
C606 N607 1.344 . S
C606 H610 0.930 . S
N607 C604 1.377 . S
N607 C606 1.344 . S
O608 Co600 2.055 . S
O608 C612 1.253 . S
H609 C605 0.931 . S
H610 C606 0.930 . S
O611 Co600 2.039 . S
O611 C601 1.265 . S
C612 O608 1.253 . S
C612 O613 1.227 . S
O613 C612 1.227 . S
N614 Co600 2.140 . S
N614 C617 1.346 . S
N614 C618 1.345 . S
C615 C616 1.387 . S
C615 C619 1.391 . S
C616 C615 1.387 . S
C616 C617 1.369 . S
C616 H625 0.929 1_655 S
C617 N614 1.346 . S
C617 C616 1.369 . S
C617 H620 0.928 . S
C618 N614 1.345 . S
C618 C619 1.371 . S
C618 H621 0.931 . S
C619 C615 1.391 . S
C619 C618 1.371 . S
C619 H626 0.930 . S
H620 C617 0.928 . S
H621 C618 0.931 . S
H622 C598 0.930 . S
H623 C595 0.930 . S
H624 C604 0.930 . S
H625 C616 0.929 1_455 S
H626 C619 0.930 . S
C627 C628 1.351 . S
C627 N630 1.368 . S
C627 H632 0.931 . S
C628 C627 1.351 . S
C628 N629 1.373 . S
C628 H656 0.930 . S
N629 C628 1.373 . S
N629 C631 1.340 . S
N630 C627 1.368 . S
N630 C631 1.321 . S
N630 Co633 2.135 . S
C631 N629 1.340 . S
C631 N630 1.321 . S
C631 H655 0.930 . S
H632 C627 0.931 . S
Co633 N630 2.135 . S
Co633 N636 2.121 . S
Co633 O641 2.055 . S
Co633 O644 2.039 . S
Co633 N647 2.140 . S
C634 O635 1.227 . S
C634 O644 1.265 . S
O635 C634 1.227 . S
N636 Co633 2.121 . S
N636 C638 1.375 . S
N636 C639 1.313 . S
C637 C638 1.338 . S
C637 N640 1.377 . S
C637 H657 0.930 . S
C638 N636 1.375 . S
C638 C637 1.338 . S
C638 H642 0.931 . S
C639 N636 1.313 . S
C639 N640 1.344 . S
C639 H643 0.930 . S
N640 C637 1.377 . S
N640 C639 1.344 . S
O641 Co633 2.055 . S
O641 C645 1.253 . S
H642 C638 0.931 . S
H643 C639 0.930 . S
O644 Co633 2.039 . S
O644 C634 1.265 . S
C645 O641 1.253 . S
C645 O646 1.227 . S
O646 C645 1.227 . S
N647 Co633 2.140 . S
N647 C650 1.346 . S
N647 C651 1.345 . S
C648 C649 1.387 . S
C648 C652 1.391 . S
C649 C648 1.387 . S
C649 C650 1.369 . S
C649 H658 0.929 . S
C650 N647 1.346 . S
C650 C649 1.369 . S
C650 H653 0.928 . S
C651 N647 1.345 . S
C651 C652 1.371 . S
C651 H654 0.931 . S
C652 C648 1.391 . S
C652 C651 1.371 . S
C652 H659 0.930 . S
H653 C650 0.928 . S
H654 C651 0.931 . S
H655 C631 0.930 . S
H656 C628 0.930 . S
H657 C637 0.930 . S
H658 C649 0.929 . S
H659 C652 0.930 . S
C660 C661 1.351 . S
C660 N663 1.368 . S
C660 H665 0.931 . S
C661 C660 1.351 . S
C661 N662 1.373 . S
C661 H689 0.930 . S
N662 C661 1.373 . S
N662 C664 1.340 . S
N663 C660 1.368 . S
N663 C664 1.321 . S
N663 Co666 2.135 . S
C664 N662 1.340 . S
C664 N663 1.321 . S
C664 H688 0.930 . S
H665 C660 0.931 . S
Co666 N663 2.135 . S
Co666 N669 2.121 . S
Co666 O674 2.055 . S
Co666 O677 2.039 . S
Co666 N680 2.140 . S
C667 O668 1.227 . S
C667 O677 1.265 . S
O668 C667 1.227 . S
N669 Co666 2.121 . S
N669 C671 1.375 . S
N669 C672 1.313 . S
C670 C671 1.338 . S
C670 N673 1.377 . S
C670 H690 0.930 . S
C671 N669 1.375 . S
C671 C670 1.338 . S
C671 H675 0.931 . S
C672 N669 1.313 . S
C672 N673 1.344 . S
C672 H676 0.930 . S
N673 C670 1.377 . S
N673 C672 1.344 . S
O674 Co666 2.055 . S
O674 C678 1.253 . S
H675 C671 0.931 . S
H676 C672 0.930 . S
O677 Co666 2.039 . S
O677 C667 1.265 . S
C678 O674 1.253 . S
C678 O679 1.227 . S
O679 C678 1.227 . S
N680 Co666 2.140 . S
N680 C683 1.346 . S
N680 C684 1.345 . S
C681 C682 1.387 . S
C681 C685 1.391 . S
C682 C681 1.387 . S
C682 C683 1.369 . S
C682 H691 0.929 . S
C683 N680 1.346 . S
C683 C682 1.369 . S
C683 H686 0.928 . S
C684 N680 1.345 . S
C684 C685 1.371 . S
C684 H687 0.931 . S
C685 C681 1.391 . S
C685 C684 1.371 . S
C685 H692 0.930 . S
H686 C683 0.928 . S
H687 C684 0.931 . S
H688 C664 0.930 . S
H689 C661 0.930 . S
H690 C670 0.930 . S
H691 C682 0.929 . S
H692 C685 0.930 . S
C693 C694 1.351 . S
C693 N696 1.368 . S
C693 H698 0.931 . S
C694 C693 1.351 . S
C694 N695 1.373 . S
C694 H722 0.930 . S
N695 C694 1.373 . S
N695 C697 1.340 . S
N696 C693 1.368 . S
N696 C697 1.321 . S
N696 Co699 2.135 . S
C697 N695 1.340 . S
C697 N696 1.321 . S
C697 H721 0.930 . S
H698 C693 0.931 . S
Co699 N696 2.135 . S
Co699 N702 2.121 . S
Co699 O707 2.055 . S
Co699 O710 2.039 . S
Co699 N713 2.140 . S
C700 O701 1.227 . S
C700 O710 1.265 . S
O701 C700 1.227 . S
N702 Co699 2.121 . S
N702 C704 1.375 . S
N702 C705 1.313 . S
C703 C704 1.338 . S
C703 N706 1.377 . S
C703 H723 0.930 . S
C704 N702 1.375 . S
C704 C703 1.338 . S
C704 H708 0.931 . S
C705 N702 1.313 . S
C705 N706 1.344 . S
C705 H709 0.930 . S
N706 C703 1.377 . S
N706 C705 1.344 . S
O707 Co699 2.055 . S
O707 C711 1.253 . S
H708 C704 0.931 . S
H709 C705 0.930 . S
O710 Co699 2.039 . S
O710 C700 1.265 . S
C711 O707 1.253 . S
C711 O712 1.227 . S
O712 C711 1.227 . S
N713 Co699 2.140 . S
N713 C716 1.346 . S
N713 C717 1.345 . S
C714 C715 1.387 . S
C714 C718 1.391 . S
C715 C714 1.387 . S
C715 C716 1.369 . S
C715 H724 0.929 . S
C716 N713 1.346 . S
C716 C715 1.369 . S
C716 H719 0.928 . S
C717 N713 1.345 . S
C717 C718 1.371 . S
C717 H720 0.931 . S
C718 C714 1.391 . S
C718 C717 1.371 . S
C718 H725 0.930 . S
H719 C716 0.928 . S
H720 C717 0.931 . S
H721 C697 0.930 . S
H722 C694 0.930 . S
H723 C703 0.930 . S
H724 C715 0.929 . S
H725 C718 0.930 . S
C726 C727 1.351 . S
C726 N729 1.368 . S
C726 H731 0.931 . S
C727 C726 1.351 . S
C727 N728 1.373 . S
C727 H755 0.930 . S
N728 C727 1.373 . S
N728 C730 1.340 . S
N729 C726 1.368 . S
N729 C730 1.321 . S
N729 Co732 2.135 . S
C730 N728 1.340 . S
C730 N729 1.321 . S
C730 H754 0.930 . S
H731 C726 0.931 . S
Co732 N729 2.135 . S
Co732 N735 2.121 . S
Co732 O740 2.055 . S
Co732 O743 2.039 . S
Co732 N746 2.140 . S
C733 O734 1.227 . S
C733 O743 1.265 . S
O734 C733 1.227 . S
N735 Co732 2.121 . S
N735 C737 1.375 . S
N735 C738 1.313 . S
C736 C737 1.338 . S
C736 N739 1.377 . S
C736 H756 0.930 . S
C737 N735 1.375 . S
C737 C736 1.338 . S
C737 H741 0.931 . S
C738 N735 1.313 . S
C738 N739 1.344 . S
C738 H742 0.930 . S
N739 C736 1.377 . S
N739 C738 1.344 . S
O740 Co732 2.055 . S
O740 C744 1.253 . S
H741 C737 0.931 . S
H742 C738 0.930 . S
O743 Co732 2.039 . S
O743 C733 1.265 . S
C744 O740 1.253 . S
C744 O745 1.227 . S
O745 C744 1.227 . S
N746 Co732 2.140 . S
N746 C749 1.346 . S
N746 C750 1.345 . S
C747 C748 1.387 . S
C747 C751 1.391 . S
C748 C747 1.387 . S
C748 C749 1.369 . S
C748 H757 0.929 1_655 S
C749 N746 1.346 . S
C749 C748 1.369 . S
C749 H752 0.928 . S
C750 N746 1.345 . S
C750 C751 1.371 . S
C750 H753 0.931 . S
C751 C747 1.391 . S
C751 C750 1.371 . S
C751 H758 0.930 . S
H752 C749 0.928 . S
H753 C750 0.931 . S
H754 C730 0.930 . S
H755 C727 0.930 . S
H756 C736 0.930 . S
H757 C748 0.929 1_455 S
H758 C751 0.930 . S
C759 C760 1.351 . S
C759 N762 1.368 . S
C759 H764 0.931 . S
C760 C759 1.351 . S
C760 N761 1.373 . S
C760 H788 0.930 . S
N761 C760 1.373 . S
N761 C763 1.340 . S
N762 C759 1.368 . S
N762 C763 1.321 . S
N762 Co765 2.135 . S
C763 N761 1.340 . S
C763 N762 1.321 . S
C763 H787 0.930 . S
H764 C759 0.931 . S
Co765 N762 2.135 . S
Co765 N768 2.121 . S
Co765 O773 2.055 . S
Co765 O776 2.039 . S
Co765 N779 2.140 . S
C766 O767 1.227 . S
C766 O776 1.265 . S
O767 C766 1.227 . S
N768 Co765 2.121 . S
N768 C770 1.375 . S
N768 C771 1.313 . S
C769 C770 1.338 . S
C769 N772 1.377 . S
C769 H789 0.930 . S
C770 N768 1.375 . S
C770 C769 1.338 . S
C770 H774 0.931 . S
C771 N768 1.313 . S
C771 N772 1.344 . S
C771 H775 0.930 . S
N772 C769 1.377 . S
N772 C771 1.344 . S
O773 Co765 2.055 . S
O773 C777 1.253 . S
H774 C770 0.931 . S
H775 C771 0.930 . S
O776 Co765 2.039 . S
O776 C766 1.265 . S
C777 O773 1.253 . S
C777 O778 1.227 . S
O778 C777 1.227 . S
N779 Co765 2.140 . S
N779 C782 1.346 . S
N779 C783 1.345 . S
C780 C781 1.387 . S
C780 C784 1.391 . S
C781 C780 1.387 . S
C781 C782 1.369 . S
C781 H790 0.929 . S
C782 N779 1.346 . S
C782 C781 1.369 . S
C782 H785 0.928 . S
C783 N779 1.345 . S
C783 C784 1.371 . S
C783 H786 0.931 . S
C784 C780 1.391 . S
C784 C783 1.371 . S
C784 H791 0.930 . S
H785 C782 0.928 . S
H786 C783 0.931 . S
H787 C763 0.930 . S
H788 C760 0.930 . S
H789 C769 0.930 . S
H790 C781 0.929 . S
H791 C784 0.930 . S
C792 C793 1.351 . S
C792 N795 1.368 . S
C792 H797 0.931 . S
C793 C792 1.351 . S
C793 N794 1.373 . S
C793 H821 0.930 . S
N794 C793 1.373 . S
N794 C796 1.340 . S
N795 C792 1.368 . S
N795 C796 1.321 . S
N795 Co798 2.135 . S
C796 N794 1.340 . S
C796 N795 1.321 . S
C796 H820 0.930 . S
H797 C792 0.931 . S
Co798 N795 2.135 . S
Co798 N801 2.121 . S
Co798 O806 2.055 . S
Co798 O809 2.039 . S
Co798 N812 2.140 . S
C799 O800 1.227 . S
C799 O809 1.265 . S
O800 C799 1.227 . S
N801 Co798 2.121 . S
N801 C803 1.375 . S
N801 C804 1.313 . S
C802 C803 1.338 . S
C802 N805 1.377 . S
C802 H822 0.930 . S
C803 N801 1.375 . S
C803 C802 1.338 . S
C803 H807 0.931 . S
C804 N801 1.313 . S
C804 N805 1.344 . S
C804 H808 0.930 . S
N805 C802 1.377 . S
N805 C804 1.344 . S
O806 Co798 2.055 . S
O806 C810 1.253 . S
H807 C803 0.931 . S
H808 C804 0.930 . S
O809 Co798 2.039 . S
O809 C799 1.265 . S
C810 O806 1.253 . S
C810 O811 1.227 . S
O811 C810 1.227 . S
N812 Co798 2.140 . S
N812 C815 1.346 . S
N812 C816 1.345 . S
C813 C814 1.387 . S
C813 C817 1.391 . S
C814 C813 1.387 . S
C814 C815 1.369 . S
C814 H823 0.929 . S
C815 N812 1.346 . S
C815 C814 1.369 . S
C815 H818 0.928 . S
C816 N812 1.345 . S
C816 C817 1.371 . S
C816 H819 0.931 . S
C817 C813 1.391 . S
C817 C816 1.371 . S
C817 H824 0.930 . S
H818 C815 0.928 . S
H819 C816 0.931 . S
H820 C796 0.930 . S
H821 C793 0.930 . S
H822 C802 0.930 . S
H823 C814 0.929 . S
H824 C817 0.930 . S
C825 C826 1.351 . S
C825 N828 1.368 . S
C825 H830 0.931 . S
C826 C825 1.351 . S
C826 N827 1.373 . S
C826 H854 0.930 . S
N827 C826 1.373 . S
N827 C829 1.340 . S
N828 C825 1.368 . S
N828 C829 1.321 . S
N828 Co831 2.135 . S
C829 N827 1.340 . S
C829 N828 1.321 . S
C829 H853 0.930 . S
H830 C825 0.931 . S
Co831 N828 2.135 . S
Co831 N834 2.121 . S
Co831 O839 2.055 . S
Co831 O842 2.039 . S
Co831 N845 2.140 . S
C832 O833 1.227 . S
C832 O842 1.265 . S
O833 C832 1.227 . S
N834 Co831 2.121 . S
N834 C836 1.375 . S
N834 C837 1.313 . S
C835 C836 1.338 . S
C835 N838 1.377 . S
C835 H855 0.930 . S
C836 N834 1.375 . S
C836 C835 1.338 . S
C836 H840 0.931 . S
C837 N834 1.313 . S
C837 N838 1.344 . S
C837 H841 0.930 . S
N838 C835 1.377 . S
N838 C837 1.344 . S
O839 Co831 2.055 . S
O839 C843 1.253 . S
H840 C836 0.931 . S
H841 C837 0.930 . S
O842 Co831 2.039 . S
O842 C832 1.265 . S
C843 O839 1.253 . S
C843 O844 1.227 . S
O844 C843 1.227 . S
N845 Co831 2.140 . S
N845 C848 1.346 . S
N845 C849 1.345 . S
C846 C847 1.387 . S
C846 C850 1.391 . S
C847 C846 1.387 . S
C847 C848 1.369 . S
C847 H856 0.929 . S
C848 N845 1.346 . S
C848 C847 1.369 . S
C848 H851 0.928 . S
C849 N845 1.345 . S
C849 C850 1.371 . S
C849 H852 0.931 . S
C850 C846 1.391 . S
C850 C849 1.371 . S
C850 H857 0.930 . S
H851 C848 0.928 . S
H852 C849 0.931 . S
H853 C829 0.930 . S
H854 C826 0.930 . S
H855 C835 0.930 . S
H856 C847 0.929 . S
H857 C850 0.930 . S
C858 C859 1.351 . S
C858 N861 1.368 . S
C858 H863 0.931 . S
C859 C858 1.351 . S
C859 N860 1.373 . S
C859 H887 0.930 . S
N860 C859 1.373 . S
N860 C862 1.340 . S
N861 C858 1.368 . S
N861 C862 1.321 . S
N861 Co864 2.135 . S
C862 N860 1.340 . S
C862 N861 1.321 . S
C862 H886 0.930 . S
H863 C858 0.931 . S
Co864 N861 2.135 . S
Co864 N867 2.121 . S
Co864 O872 2.055 . S
Co864 O875 2.039 . S
Co864 N878 2.140 . S
C865 O866 1.227 . S
C865 O875 1.265 . S
O866 C865 1.227 . S
N867 Co864 2.121 . S
N867 C869 1.375 . S
N867 C870 1.313 . S
C868 C869 1.338 . S
C868 N871 1.377 . S
C868 H888 0.930 . S
C869 N867 1.375 . S
C869 C868 1.338 . S
C869 H873 0.931 . S
C870 N867 1.313 . S
C870 N871 1.344 . S
C870 H874 0.930 . S
N871 C868 1.377 . S
N871 C870 1.344 . S
O872 Co864 2.055 . S
O872 C876 1.253 . S
H873 C869 0.931 . S
H874 C870 0.930 . S
O875 Co864 2.039 . S
O875 C865 1.265 . S
C876 O872 1.253 . S
C876 O877 1.227 . S
O877 C876 1.227 . S
N878 Co864 2.140 . S
N878 C881 1.346 . S
N878 C882 1.345 . S
C879 C880 1.387 . S
C879 C883 1.391 . S
C880 C879 1.387 . S
C880 C881 1.369 . S
C880 H889 0.929 1_455 S
C881 N878 1.346 . S
C881 C880 1.369 . S
C881 H884 0.928 . S
C882 N878 1.345 . S
C882 C883 1.371 . S
C882 H885 0.931 . S
C883 C879 1.391 . S
C883 C882 1.371 . S
C883 H890 0.930 . S
H884 C881 0.928 . S
H885 C882 0.931 . S
H886 C862 0.930 . S
H887 C859 0.930 . S
H888 C868 0.930 . S
H889 C880 0.929 1_655 S
H890 C883 0.930 . S
C891 C892 1.351 . S
C891 N894 1.368 . S
C891 H896 0.931 . S
C892 C891 1.351 . S
C892 N893 1.373 . S
C892 H920 0.930 . S
N893 C892 1.373 . S
N893 C895 1.340 . S
N894 C891 1.368 . S
N894 C895 1.321 . S
N894 Co897 2.135 . S
C895 N893 1.340 . S
C895 N894 1.321 . S
C895 H919 0.930 . S
H896 C891 0.931 . S
Co897 N894 2.135 . S
Co897 N900 2.121 . S
Co897 O905 2.055 . S
Co897 O908 2.039 . S
Co897 N911 2.140 . S
C898 O899 1.227 . S
C898 O908 1.265 . S
O899 C898 1.227 . S
N900 Co897 2.121 . S
N900 C902 1.375 . S
N900 C903 1.313 . S
C901 C902 1.338 . S
C901 N904 1.377 . S
C901 H921 0.930 . S
C902 N900 1.375 . S
C902 C901 1.338 . S
C902 H906 0.931 . S
C903 N900 1.313 . S
C903 N904 1.344 . S
C903 H907 0.930 . S
N904 C901 1.377 . S
N904 C903 1.344 . S
O905 Co897 2.055 . S
O905 C909 1.253 . S
H906 C902 0.931 . S
H907 C903 0.930 . S
O908 Co897 2.039 . S
O908 C898 1.265 . S
C909 O905 1.253 . S
C909 O910 1.227 . S
O910 C909 1.227 . S
N911 Co897 2.140 . S
N911 C914 1.346 . S
N911 C915 1.345 . S
C912 C913 1.387 . S
C912 C916 1.391 . S
C913 C912 1.387 . S
C913 C914 1.369 . S
C913 H922 0.929 . S
C914 N911 1.346 . S
C914 C913 1.369 . S
C914 H917 0.928 . S
C915 N911 1.345 . S
C915 C916 1.371 . S
C915 H918 0.931 . S
C916 C912 1.391 . S
C916 C915 1.371 . S
C916 H923 0.930 . S
H917 C914 0.928 . S
H918 C915 0.931 . S
H919 C895 0.930 . S
H920 C892 0.930 . S
H921 C901 0.930 . S
H922 C913 0.929 . S
H923 C916 0.930 . S
C924 C925 1.351 . S
C924 N927 1.368 . S
C924 H929 0.931 . S
C925 C924 1.351 . S
C925 N926 1.373 . S
C925 H953 0.930 . S
N926 C925 1.373 . S
N926 C928 1.340 . S
N927 C924 1.368 . S
N927 C928 1.321 . S
N927 Co930 2.135 . S
C928 N926 1.340 . S
C928 N927 1.321 . S
C928 H952 0.930 . S
H929 C924 0.931 . S
Co930 N927 2.135 . S
Co930 N933 2.121 . S
Co930 O938 2.055 . S
Co930 O941 2.039 . S
Co930 N944 2.140 . S
C931 O932 1.227 . S
C931 O941 1.265 . S
O932 C931 1.227 . S
N933 Co930 2.121 . S
N933 C935 1.375 . S
N933 C936 1.313 . S
C934 C935 1.338 . S
C934 N937 1.377 . S
C934 H954 0.930 . S
C935 N933 1.375 . S
C935 C934 1.338 . S
C935 H939 0.931 . S
C936 N933 1.313 . S
C936 N937 1.344 . S
C936 H940 0.930 . S
N937 C934 1.377 . S
N937 C936 1.344 . S
O938 Co930 2.055 . S
O938 C942 1.253 . S
H939 C935 0.931 . S
H940 C936 0.930 . S
O941 Co930 2.039 . S
O941 C931 1.265 . S
C942 O938 1.253 . S
C942 O943 1.227 . S
O943 C942 1.227 . S
N944 Co930 2.140 . S
N944 C947 1.346 . S
N944 C948 1.345 . S
C945 C946 1.387 . S
C945 C949 1.391 . S
C946 C945 1.387 . S
C946 C947 1.369 . S
C946 H955 0.929 . S
C947 N944 1.346 . S
C947 C946 1.369 . S
C947 H950 0.928 . S
C948 N944 1.345 . S
C948 C949 1.371 . S
C948 H951 0.931 . S
C949 C945 1.391 . S
C949 C948 1.371 . S
C949 H956 0.930 . S
H950 C947 0.928 . S
H951 C948 0.931 . S
H952 C928 0.930 . S
H953 C925 0.930 . S
H954 C934 0.930 . S
H955 C946 0.929 . S
H956 C949 0.930 . S
C957 C958 1.351 . S
C957 N960 1.368 . S
C957 H962 0.931 . S
C958 C957 1.351 . S
C958 N959 1.373 . S
C958 H986 0.930 . S
N959 C958 1.373 . S
N959 C961 1.340 . S
N960 C957 1.368 . S
N960 C961 1.321 . S
N960 Co963 2.135 . S
C961 N959 1.340 . S
C961 N960 1.321 . S
C961 H985 0.930 . S
H962 C957 0.931 . S
Co963 N960 2.135 . S
Co963 N966 2.121 . S
Co963 O971 2.055 . S
Co963 O974 2.039 . S
Co963 N977 2.140 . S
C964 O965 1.227 . S
C964 O974 1.265 . S
O965 C964 1.227 . S
N966 Co963 2.121 . S
N966 C968 1.375 . S
N966 C969 1.313 . S
C967 C968 1.338 . S
C967 N970 1.377 . S
C967 H987 0.930 . S
C968 N966 1.375 . S
C968 C967 1.338 . S
C968 H972 0.931 . S
C969 N966 1.313 . S
C969 N970 1.344 . S
C969 H973 0.930 . S
N970 C967 1.377 . S
N970 C969 1.344 . S
O971 Co963 2.055 . S
O971 C975 1.253 . S
H972 C968 0.931 . S
H973 C969 0.930 . S
O974 Co963 2.039 . S
O974 C964 1.265 . S
C975 O971 1.253 . S
C975 O976 1.227 . S
O976 C975 1.227 . S
N977 Co963 2.140 . S
N977 C980 1.346 . S
N977 C981 1.345 . S
C978 C979 1.387 . S
C978 C982 1.391 . S
C979 C978 1.387 . S
C979 C980 1.369 . S
C979 H988 0.929 . S
C980 N977 1.346 . S
C980 C979 1.369 . S
C980 H983 0.928 . S
C981 N977 1.345 . S
C981 C982 1.371 . S
C981 H984 0.931 . S
C982 C978 1.391 . S
C982 C981 1.371 . S
C982 H989 0.930 . S
H983 C980 0.928 . S
H984 C981 0.931 . S
H985 C961 0.930 . S
H986 C958 0.930 . S
H987 C967 0.930 . S
H988 C979 0.929 . S
H989 C982 0.930 . S
C990 C991 1.351 . S
C990 N993 1.368 . S
C990 H995 0.931 . S
C991 C990 1.351 . S
C991 N992 1.373 . S
C991 H1019 0.930 . S
N992 C991 1.373 . S
N992 C994 1.340 . S
N993 C990 1.368 . S
N993 C994 1.321 . S
N993 Co996 2.135 . S
C994 N992 1.340 . S
C994 N993 1.321 . S
C994 H1018 0.930 . S
H995 C990 0.931 . S
Co996 N993 2.135 . S
Co996 N999 2.121 . S
Co996 O1004 2.055 . S
Co996 O1007 2.039 . S
Co996 N1010 2.140 . S
C997 O998 1.227 . S
C997 O1007 1.265 . S
O998 C997 1.227 . S
N999 Co996 2.121 . S
N999 C1001 1.375 . S
N999 C1002 1.313 . S
C1000 C1001 1.338 . S
C1000 N1003 1.377 . S
C1000 H1020 0.930 . S
C1001 N999 1.375 . S
C1001 C1000 1.338 . S
C1001 H1005 0.931 . S
C1002 N999 1.313 . S
C1002 N1003 1.344 . S
C1002 H1006 0.930 . S
N1003 C1000 1.377 . S
N1003 C1002 1.344 . S
O1004 Co996 2.055 . S
O1004 C1008 1.253 . S
H1005 C1001 0.931 . S
H1006 C1002 0.930 . S
O1007 Co996 2.039 . S
O1007 C997 1.265 . S
C1008 O1004 1.253 . S
C1008 O1009 1.227 . S
O1009 C1008 1.227 . S
N1010 Co996 2.140 . S
N1010 C1013 1.346 . S
N1010 C1014 1.345 . S
C1011 C1012 1.387 . S
C1011 C1015 1.391 . S
C1012 C1011 1.387 . S
C1012 C1013 1.369 . S
C1012 H1021 0.929 1_455 S
C1013 N1010 1.346 . S
C1013 C1012 1.369 . S
C1013 H1016 0.928 . S
C1014 N1010 1.345 . S
C1014 C1015 1.371 . S
C1014 H1017 0.931 . S
C1015 C1011 1.391 . S
C1015 C1014 1.371 . S
C1015 H1022 0.930 . S
H1016 C1013 0.928 . S
H1017 C1014 0.931 . S
H1018 C994 0.930 . S
H1019 C991 0.930 . S
H1020 C1000 0.930 . S
H1021 C1012 0.929 1_655 S
H1022 C1015 0.930 . S
C1023 C1024 1.351 . S
C1023 N1026 1.368 . S
C1023 H1028 0.931 . S
C1024 C1023 1.351 . S
C1024 N1025 1.373 . S
C1024 H1052 0.930 . S
N1025 C1024 1.373 . S
N1025 C1027 1.340 . S
N1026 C1023 1.368 . S
N1026 C1027 1.321 . S
N1026 Co1029 2.135 . S
C1027 N1025 1.340 . S
C1027 N1026 1.321 . S
C1027 H1051 0.930 . S
H1028 C1023 0.931 . S
Co1029 N1026 2.135 . S
Co1029 N1032 2.121 . S
Co1029 O1037 2.055 . S
Co1029 O1040 2.039 . S
Co1029 N1043 2.140 . S
C1030 O1031 1.227 . S
C1030 O1040 1.265 . S
O1031 C1030 1.227 . S
N1032 Co1029 2.121 . S
N1032 C1034 1.375 . S
N1032 C1035 1.313 . S
C1033 C1034 1.338 . S
C1033 N1036 1.377 . S
C1033 H1053 0.930 . S
C1034 N1032 1.375 . S
C1034 C1033 1.338 . S
C1034 H1038 0.931 . S
C1035 N1032 1.313 . S
C1035 N1036 1.344 . S
C1035 H1039 0.930 . S
N1036 C1033 1.377 . S
N1036 C1035 1.344 . S
O1037 Co1029 2.055 . S
O1037 C1041 1.253 . S
H1038 C1034 0.931 . S
H1039 C1035 0.930 . S
O1040 Co1029 2.039 . S
O1040 C1030 1.265 . S
C1041 O1037 1.253 . S
C1041 O1042 1.227 . S
O1042 C1041 1.227 . S
N1043 Co1029 2.140 . S
N1043 C1046 1.346 . S
N1043 C1047 1.345 . S
C1044 C1045 1.387 . S
C1044 C1048 1.391 . S
C1045 C1044 1.387 . S
C1045 C1046 1.369 . S
C1045 H1054 0.929 . S
C1046 N1043 1.346 . S
C1046 C1045 1.369 . S
C1046 H1049 0.928 . S
C1047 N1043 1.345 . S
C1047 C1048 1.371 . S
C1047 H1050 0.931 . S
C1048 C1044 1.391 . S
C1048 C1047 1.371 . S
C1048 H1055 0.930 . S
H1049 C1046 0.928 . S
H1050 C1047 0.931 . S
H1051 C1027 0.930 . S
H1052 C1024 0.930 . S
H1053 C1033 0.930 . S
H1054 C1045 0.929 . S
H1055 C1048 0.930 . S
C1056 C1057 1.369 . S
C1056 C1058 1.419 . S
C1056 H1060 0.930 . S
C1057 C1056 1.369 . S
C1057 C1066 1.429 . S
C1058 C1056 1.419 . S
C1058 C1059 1.363 . S
C1058 H1061 0.929 . S
C1059 C1058 1.363 . S
C1059 C1065 1.428 . S
H1060 C1056 0.930 . S
H1061 C1058 0.929 . S
S1062 N1063 1.613 . S
S1062 N1064 1.610 . S
N1063 S1062 1.613 . S
N1063 C1066 1.350 . S
N1064 S1062 1.610 . S
N1064 C1065 1.351 . S
C1065 C1059 1.428 . S
C1065 N1064 1.351 . S
C1065 C1066 1.434 . S
C1066 C1057 1.429 . S
C1066 N1063 1.350 . S
C1066 C1065 1.434 . S
C1067 C1068 1.369 . S
C1067 C1069 1.419 . S
C1067 H1071 0.930 . S
C1068 C1067 1.369 . S
C1068 C1077 1.429 . S
C1069 C1067 1.419 . S
C1069 C1070 1.363 . S
C1069 H1072 0.929 . S
C1070 C1069 1.363 . S
C1070 C1076 1.428 . S
H1071 C1067 0.930 . S
H1072 C1069 0.929 . S
S1073 N1074 1.613 . S
S1073 N1075 1.610 1_655 S
N1074 S1073 1.613 . S
N1074 C1077 1.350 1_655 S
N1075 S1073 1.610 1_455 S
N1075 C1076 1.351 . S
C1076 C1070 1.428 . S
C1076 N1075 1.351 . S
C1076 C1077 1.434 . S
C1077 C1068 1.429 . S
C1077 N1074 1.350 1_455 S
C1077 C1076 1.434 . S
C1078 C1079 1.369 . S
C1078 C1080 1.419 . S
C1078 H1082 0.930 . S
C1079 C1078 1.369 . S
C1079 C1088 1.429 . S
C1080 C1078 1.419 . S
C1080 C1081 1.363 . S
C1080 H1083 0.929 . S
C1081 C1080 1.363 . S
C1081 C1087 1.428 . S
H1082 C1078 0.930 . S
H1083 C1080 0.929 . S
S1084 N1085 1.613 . S
S1084 N1086 1.610 . S
N1085 S1084 1.613 . S
N1085 C1088 1.350 . S
N1086 S1084 1.610 . S
N1086 C1087 1.351 . S
C1087 C1081 1.428 . S
C1087 N1086 1.351 . S
C1087 C1088 1.434 . S
C1088 C1079 1.429 . S
C1088 N1085 1.350 . S
C1088 C1087 1.434 . S
C1089 C1090 1.369 . S
C1089 C1091 1.419 . S
C1089 H1093 0.930 . S
C1090 C1089 1.369 . S
C1090 C1099 1.429 . S
C1091 C1089 1.419 . S
C1091 C1092 1.363 . S
C1091 H1094 0.929 . S
C1092 C1091 1.363 . S
C1092 C1098 1.428 . S
H1093 C1089 0.930 . S
H1094 C1091 0.929 . S
S1095 N1096 1.613 . S
S1095 N1097 1.610 . S
N1096 S1095 1.613 . S
N1096 C1099 1.350 . S
N1097 S1095 1.610 . S
N1097 C1098 1.351 . S
C1098 C1092 1.428 . S
C1098 N1097 1.351 . S
C1098 C1099 1.434 . S
C1099 C1090 1.429 . S
C1099 N1096 1.350 . S
C1099 C1098 1.434 . S
C1100 C1101 1.369 . S
C1100 C1102 1.419 . S
C1100 H1104 0.930 . S
C1101 C1100 1.369 . S
C1101 C1110 1.429 . S
C1102 C1100 1.419 . S
C1102 C1103 1.363 . S
C1102 H1105 0.929 . S
C1103 C1102 1.363 . S
C1103 C1109 1.428 . S
H1104 C1100 0.930 . S
H1105 C1102 0.929 . S
S1106 N1107 1.613 . S
S1106 N1108 1.610 . S
N1107 S1106 1.613 . S
N1107 C1110 1.350 . S
N1108 S1106 1.610 . S
N1108 C1109 1.351 . S
C1109 C1103 1.428 . S
C1109 N1108 1.351 . S
C1109 C1110 1.434 . S
C1110 C1101 1.429 . S
C1110 N1107 1.350 . S
C1110 C1109 1.434 . S
C1111 C1112 1.369 . S
C1111 C1113 1.419 . S
C1111 H1115 0.930 . S
C1112 C1111 1.369 . S
C1112 C1121 1.429 . S
C1113 C1111 1.419 . S
C1113 C1114 1.363 . S
C1113 H1116 0.929 . S
C1114 C1113 1.363 . S
C1114 C1120 1.428 . S
H1115 C1111 0.930 . S
H1116 C1113 0.929 . S
S1117 N1118 1.613 . S
S1117 N1119 1.610 . S
N1118 S1117 1.613 . S
N1118 C1121 1.350 . S
N1119 S1117 1.610 . S
N1119 C1120 1.351 . S
C1120 C1114 1.428 . S
C1120 N1119 1.351 . S
C1120 C1121 1.434 . S
C1121 C1112 1.429 . S
C1121 N1118 1.350 . S
C1121 C1120 1.434 . S
C1122 C1123 1.369 . S
C1122 C1124 1.419 . S
C1122 H1126 0.930 . S
C1123 C1122 1.369 . S
C1123 C1132 1.429 . S
C1124 C1122 1.419 . S
C1124 C1125 1.363 . S
C1124 H1127 0.929 . S
C1125 C1124 1.363 . S
C1125 C1131 1.428 . S
H1126 C1122 0.930 . S
H1127 C1124 0.929 . S
S1128 N1129 1.613 . S
S1128 N1130 1.610 . S
N1129 S1128 1.613 . S
N1129 C1132 1.350 . S
N1130 S1128 1.610 . S
N1130 C1131 1.351 . S
C1131 C1125 1.428 . S
C1131 N1130 1.351 . S
C1131 C1132 1.434 . S
C1132 C1123 1.429 . S
C1132 N1129 1.350 . S
C1132 C1131 1.434 . S
C1133 C1134 1.369 . S
C1133 C1135 1.419 . S
C1133 H1137 0.930 . S
C1134 C1133 1.369 . S
C1134 C1143 1.429 . S
C1135 C1133 1.419 . S
C1135 C1136 1.363 . S
C1135 H1138 0.929 . S
C1136 C1135 1.363 . S
C1136 C1142 1.428 . S
H1137 C1133 0.930 . S
H1138 C1135 0.929 . S
S1139 N1140 1.613 . S
S1139 N1141 1.610 . S
N1140 S1139 1.613 . S
N1140 C1143 1.350 . S
N1141 S1139 1.610 . S
N1141 C1142 1.351 . S
C1142 C1136 1.428 . S
C1142 N1141 1.351 . S
C1142 C1143 1.434 . S
C1143 C1134 1.429 . S
C1143 N1140 1.350 . S
C1143 C1142 1.434 . S
C1144 C1145 1.369 . S
C1144 C1146 1.419 . S
C1144 H1148 0.930 . S
C1145 C1144 1.369 . S
C1145 C1154 1.429 . S
C1146 C1144 1.419 . S
C1146 C1147 1.363 . S
C1146 H1149 0.929 . S
C1147 C1146 1.363 . S
C1147 C1153 1.428 . S
H1148 C1144 0.930 . S
H1149 C1146 0.929 . S
S1150 N1151 1.613 . S
S1150 N1152 1.610 . S
N1151 S1150 1.613 . S
N1151 C1154 1.350 . S
N1152 S1150 1.610 . S
N1152 C1153 1.351 . S
C1153 C1147 1.428 . S
C1153 N1152 1.351 . S
C1153 C1154 1.434 . S
C1154 C1145 1.429 . S
C1154 N1151 1.350 . S
C1154 C1153 1.434 . S
C1155 C1156 1.369 . S
C1155 C1157 1.419 . S
C1155 H1159 0.930 . S
C1156 C1155 1.369 . S
C1156 C1165 1.429 . S
C1157 C1155 1.419 . S
C1157 C1158 1.363 . S
C1157 H1160 0.929 . S
C1158 C1157 1.363 . S
C1158 C1164 1.428 . S
H1159 C1155 0.930 . S
H1160 C1157 0.929 . S
S1161 N1162 1.613 . S
S1161 N1163 1.610 1_455 S
N1162 S1161 1.613 . S
N1162 C1165 1.350 1_455 S
N1163 S1161 1.610 1_655 S
N1163 C1164 1.351 . S
C1164 C1158 1.428 . S
C1164 N1163 1.351 . S
C1164 C1165 1.434 . S
C1165 C1156 1.429 . S
C1165 N1162 1.350 1_655 S
C1165 C1164 1.434 . S
C1166 C1167 1.369 . S
C1166 C1168 1.419 . S
C1166 H1170 0.930 . S
C1167 C1166 1.369 . S
C1167 C1176 1.429 . S
C1168 C1166 1.419 . S
C1168 C1169 1.363 . S
C1168 H1171 0.929 . S
C1169 C1168 1.363 . S
C1169 C1175 1.428 . S
H1170 C1166 0.930 . S
H1171 C1168 0.929 . S
S1172 N1173 1.613 . S
S1172 N1174 1.610 . S
N1173 S1172 1.613 . S
N1173 C1176 1.350 . S
N1174 S1172 1.610 . S
N1174 C1175 1.351 . S
C1175 C1169 1.428 . S
C1175 N1174 1.351 . S
C1175 C1176 1.434 . S
C1176 C1167 1.429 . S
C1176 N1173 1.350 . S
C1176 C1175 1.434 . S
C1177 C1178 1.369 . S
C1177 C1179 1.419 . S
C1177 H1181 0.930 . S
C1178 C1177 1.369 . S
C1178 C1187 1.429 . S
C1179 C1177 1.419 . S
C1179 C1180 1.363 . S
C1179 H1182 0.929 . S
C1180 C1179 1.363 . S
C1180 C1186 1.428 . S
H1181 C1177 0.930 . S
H1182 C1179 0.929 . S
S1183 N1184 1.613 1_545 S
S1183 N1185 1.610 1_545 S
N1184 S1183 1.613 1_565 S
N1184 C1187 1.350 . S
N1185 S1183 1.610 1_565 S
N1185 C1186 1.351 . S
C1186 C1180 1.428 . S
C1186 N1185 1.351 . S
C1186 C1187 1.434 . S
C1187 C1178 1.429 . S
C1187 N1184 1.350 . S
C1187 C1186 1.434 . S
C1188 C1189 1.369 . S
C1188 C1190 1.419 . S
C1188 H1192 0.930 . S
C1189 C1188 1.369 . S
C1189 C1198 1.429 . S
C1190 C1188 1.419 . S
C1190 C1191 1.363 . S
C1190 H1193 0.929 . S
C1191 C1190 1.363 . S
C1191 C1197 1.428 . S
H1192 C1188 0.930 . S
H1193 C1190 0.929 . S
S1194 N1195 1.613 . S
S1194 N1196 1.610 . S
N1195 S1194 1.613 . S
N1195 C1198 1.350 . S
N1196 S1194 1.610 . S
N1196 C1197 1.351 . S
C1197 C1191 1.428 . S
C1197 N1196 1.351 . S
C1197 C1198 1.434 . S
C1198 C1189 1.429 . S
C1198 N1195 1.350 . S
C1198 C1197 1.434 . S
C1199 C1200 1.369 . S
C1199 C1201 1.419 . S
C1199 H1203 0.930 . S
C1200 C1199 1.369 . S
C1200 C1209 1.429 . S
C1201 C1199 1.419 . S
C1201 C1202 1.363 . S
C1201 H1204 0.929 . S
C1202 C1201 1.363 . S
C1202 C1208 1.428 . S
H1203 C1199 0.930 . S
H1204 C1201 0.929 . S
S1205 N1206 1.613 . S
S1205 N1207 1.610 . S
N1206 S1205 1.613 . S
N1206 C1209 1.350 . S
N1207 S1205 1.610 . S
N1207 C1208 1.351 . S
C1208 C1202 1.428 . S
C1208 N1207 1.351 . S
C1208 C1209 1.434 . S
C1209 C1200 1.429 . S
C1209 N1206 1.350 . S
C1209 C1208 1.434 . S
C1210 C1211 1.369 . S
C1210 C1212 1.419 . S
C1210 H1214 0.930 . S
C1211 C1210 1.369 . S
C1211 C1220 1.429 . S
C1212 C1210 1.419 . S
C1212 C1213 1.363 . S
C1212 H1215 0.929 . S
C1213 C1212 1.363 . S
C1213 C1219 1.428 . S
H1214 C1210 0.930 . S
H1215 C1212 0.929 . S
S1216 N1217 1.613 . S
S1216 N1218 1.610 . S
N1217 S1216 1.613 . S
N1217 C1220 1.350 . S
N1218 S1216 1.610 . S
N1218 C1219 1.351 . S
C1219 C1213 1.428 . S
C1219 N1218 1.351 . S
C1219 C1220 1.434 . S
C1220 C1211 1.429 . S
C1220 N1217 1.350 . S
C1220 C1219 1.434 . S
C1221 C1222 1.369 . S
C1221 C1223 1.419 . S
C1221 H1225 0.930 1_655 S
C1222 C1221 1.369 . S
C1222 C1231 1.429 . S
C1223 C1221 1.419 . S
C1223 C1224 1.363 . S
C1223 H1226 0.929 . S
C1224 C1223 1.363 . S
C1224 C1230 1.428 . S
H1225 C1221 0.930 1_455 S
H1226 C1223 0.929 . S
S1227 N1228 1.613 . S
S1227 N1229 1.610 . S
N1228 S1227 1.613 . S
N1228 C1231 1.350 . S
N1229 S1227 1.610 . S
N1229 C1230 1.351 . S
C1230 C1224 1.428 . S
C1230 N1229 1.351 . S
C1230 C1231 1.434 . S
C1231 C1222 1.429 . S
C1231 N1228 1.350 . S
C1231 C1230 1.434 . S
C1232 C1233 1.369 . S
C1232 C1234 1.419 . S
C1232 H1236 0.930 . S
C1233 C1232 1.369 . S
C1233 C1242 1.429 . S
C1234 C1232 1.419 . S
C1234 C1235 1.363 . S
C1234 H1237 0.929 . S
C1235 C1234 1.363 . S
C1235 C1241 1.428 . S
H1236 C1232 0.930 . S
H1237 C1234 0.929 . S
S1238 N1239 1.613 . S
S1238 N1240 1.610 . S
N1239 S1238 1.613 . S
N1239 C1242 1.350 . S
N1240 S1238 1.610 . S
N1240 C1241 1.351 . S
C1241 C1235 1.428 . S
C1241 N1240 1.351 . S
C1241 C1242 1.434 . S
C1242 C1233 1.429 . S
C1242 N1239 1.350 . S
C1242 C1241 1.434 . S
C1243 C1244 1.369 . S
C1243 C1245 1.419 . S
C1243 H1247 0.930 . S
C1244 C1243 1.369 . S
C1244 C1253 1.429 . S
C1245 C1243 1.419 . S
C1245 C1246 1.363 . S
C1245 H1248 0.929 . S
C1246 C1245 1.363 . S
C1246 C1252 1.428 . S
H1247 C1243 0.930 . S
H1248 C1245 0.929 . S
S1249 N1250 1.613 . S
S1249 N1251 1.610 . S
N1250 S1249 1.613 . S
N1250 C1253 1.350 . S
N1251 S1249 1.610 . S
N1251 C1252 1.351 . S
C1252 C1246 1.428 . S
C1252 N1251 1.351 . S
C1252 C1253 1.434 . S
C1253 C1244 1.429 . S
C1253 N1250 1.350 . S
C1253 C1252 1.434 . S
C1254 C1255 1.369 . S
C1254 C1256 1.419 . S
C1254 H1258 0.930 . S
C1255 C1254 1.369 . S
C1255 C1264 1.429 . S
C1256 C1254 1.419 . S
C1256 C1257 1.363 . S
C1256 H1259 0.929 . S
C1257 C1256 1.363 . S
C1257 C1263 1.428 . S
H1258 C1254 0.930 . S
H1259 C1256 0.929 . S
S1260 N1261 1.613 . S
S1260 N1262 1.610 . S
N1261 S1260 1.613 . S
N1261 C1264 1.350 . S
N1262 S1260 1.610 . S
N1262 C1263 1.351 . S
C1263 C1257 1.428 . S
C1263 N1262 1.351 . S
C1263 C1264 1.434 . S
C1264 C1255 1.429 . S
C1264 N1261 1.350 . S
C1264 C1263 1.434 . S
C1265 C1266 1.369 . S
C1265 C1267 1.419 . S
C1265 H1269 0.930 . S
C1266 C1265 1.369 . S
C1266 C1275 1.429 . S
C1267 C1265 1.419 . S
C1267 C1268 1.363 . S
C1267 H1270 0.948 . S
C1268 C1267 1.363 . S
C1268 C1274 1.428 . S
H1269 C1265 0.930 . S
H1270 C1267 0.948 . S
S1271 N1272 1.613 . S
S1271 N1273 1.610 . S
N1272 S1271 1.613 . S
N1272 C1275 1.350 . S
N1273 S1271 1.610 . S
N1273 C1274 1.351 . S
C1274 C1268 1.428 . S
C1274 N1273 1.351 . S
C1274 C1275 1.434 . S
C1275 C1266 1.429 . S
C1275 N1272 1.350 . S
C1275 C1274 1.434 . S
C1276 C1277 1.369 . S
C1276 C1278 1.419 . S
C1276 H1280 0.930 . S
C1277 C1276 1.369 . S
C1277 C1286 1.429 . S
C1278 C1276 1.419 . S
C1278 C1279 1.363 . S
C1278 H1281 0.929 . S
C1279 C1278 1.363 . S
C1279 C1285 1.428 . S
H1280 C1276 0.930 . S
H1281 C1278 0.929 . S
S1282 N1283 1.613 . S
S1282 N1284 1.610 . S
N1283 S1282 1.613 . S
N1283 C1286 1.350 . S
N1284 S1282 1.610 . S
N1284 C1285 1.351 . S
C1285 C1279 1.428 . S
C1285 N1284 1.351 . S
C1285 C1286 1.434 . S
C1286 C1277 1.429 . S
C1286 N1283 1.350 . S
C1286 C1285 1.434 . S
C1287 C1288 1.369 . S
C1287 C1289 1.419 . S
C1287 H1291 0.930 1_655 S
C1288 C1287 1.369 . S
C1288 C1297 1.429 . S
C1289 C1287 1.419 . S
C1289 C1290 1.363 . S
C1289 H1292 0.929 . S
C1290 C1289 1.363 . S
C1290 C1296 1.428 . S
H1291 C1287 0.930 1_455 S
H1292 C1289 0.929 . S
S1293 N1294 1.613 . S
S1293 N1295 1.610 . S
N1294 S1293 1.613 . S
N1294 C1297 1.350 . S
N1295 S1293 1.610 . S
N1295 C1296 1.351 . S
C1296 C1290 1.428 . S
C1296 N1295 1.351 . S
C1296 C1297 1.434 . S
C1297 C1288 1.429 . S
C1297 N1294 1.350 . S
C1297 C1296 1.434 . S
C1298 C1299 1.369 . S
C1298 C1300 1.419 . S
C1298 H1302 0.930 . S
C1299 C1298 1.369 . S
C1299 C1308 1.429 . S
C1300 C1298 1.419 . S
C1300 C1301 1.363 . S
C1300 H1303 0.929 . S
C1301 C1300 1.363 . S
C1301 C1307 1.428 . S
H1302 C1298 0.930 . S
H1303 C1300 0.929 . S
S1304 N1305 1.613 . S
S1304 N1306 1.610 . S
N1305 S1304 1.613 . S
N1305 C1308 1.350 . S
N1306 S1304 1.610 . S
N1306 C1307 1.351 . S
C1307 C1301 1.428 . S
C1307 N1306 1.351 . S
C1307 C1308 1.434 . S
C1308 C1299 1.429 . S
C1308 N1305 1.350 . S
C1308 C1307 1.434 . S
C1309 C1310 1.369 . S
C1309 C1311 1.419 . S
C1309 H1313 0.930 . S
C1310 C1309 1.369 . S
C1310 C1319 1.429 . S
C1311 C1309 1.419 . S
C1311 C1312 1.363 . S
C1311 H1314 0.929 . S
C1312 C1311 1.363 . S
C1312 C1318 1.428 . S
H1313 C1309 0.930 . S
H1314 C1311 0.929 . S
S1315 N1316 1.613 . S
S1315 N1317 1.610 . S
N1316 S1315 1.613 . S
N1316 C1319 1.350 . S
N1317 S1315 1.610 . S
N1317 C1318 1.351 . S
C1318 C1312 1.428 . S
C1318 N1317 1.351 . S
C1318 C1319 1.434 . S
C1319 C1310 1.429 . S
C1319 N1316 1.350 . S
C1319 C1318 1.434 . S
C1320 C1321 1.369 . S
C1320 C1322 1.419 . S
C1320 H1324 0.930 . S
C1321 C1320 1.369 . S
C1321 C1330 1.429 . S
C1322 C1320 1.419 . S
C1322 C1323 1.363 . S
C1322 H1325 0.929 . S
C1323 C1322 1.363 . S
C1323 C1329 1.428 . S
H1324 C1320 0.930 . S
H1325 C1322 0.929 . S
S1326 N1327 1.613 . S
S1326 N1328 1.610 . S
N1327 S1326 1.613 . S
N1327 C1330 1.350 . S
N1328 S1326 1.610 . S
N1328 C1329 1.351 . S
C1329 C1323 1.428 . S
C1329 N1328 1.351 . S
C1329 C1330 1.434 . S
C1330 C1321 1.429 . S
C1330 N1327 1.350 . S
C1330 C1329 1.434 . S
C1331 C1332 1.369 . S
C1331 C1333 1.419 . S
C1331 H1335 0.930 . S
C1332 C1331 1.369 . S
C1332 C1341 1.429 . S
C1333 C1331 1.419 . S
C1333 C1334 1.363 . S
C1333 H1336 0.929 . S
C1334 C1333 1.363 . S
C1334 C1340 1.428 . S
H1335 C1331 0.930 . S
H1336 C1333 0.929 . S
S1337 N1338 1.613 . S
S1337 N1339 1.610 . S
N1338 S1337 1.613 . S
N1338 C1341 1.350 . S
N1339 S1337 1.610 . S
N1339 C1340 1.351 . S
C1340 C1334 1.428 . S
C1340 N1339 1.351 . S
C1340 C1341 1.434 . S
C1341 C1332 1.429 . S
C1341 N1338 1.350 . S
C1341 C1340 1.434 . S
C1342 C1343 1.369 . S
C1342 C1344 1.419 . S
C1342 H1346 0.930 . S
C1343 C1342 1.369 . S
C1343 C1352 1.429 . S
C1344 C1342 1.419 . S
C1344 C1345 1.363 . S
C1344 H1347 0.929 . S
C1345 C1344 1.363 . S
C1345 C1351 1.428 . S
H1346 C1342 0.930 . S
H1347 C1344 0.929 . S
S1348 N1349 1.613 . S
S1348 N1350 1.610 . S
N1349 S1348 1.613 . S
N1349 C1352 1.350 . S
N1350 S1348 1.610 . S
N1350 C1351 1.351 . S
C1351 C1345 1.428 . S
C1351 N1350 1.351 . S
C1351 C1352 1.434 . S
C1352 C1343 1.429 . S
C1352 N1349 1.350 . S
C1352 C1351 1.434 . S
C1353 C1354 1.369 . S
C1353 C1355 1.419 . S
C1353 H1357 0.930 . S
C1354 C1353 1.369 . S
C1354 C1363 1.429 . S
C1355 C1353 1.419 . S
C1355 C1356 1.363 . S
C1355 H1358 0.929 . S
C1356 C1355 1.363 . S
C1356 C1362 1.428 . S
H1357 C1353 0.930 . S
H1358 C1355 0.929 . S
S1359 N1360 1.613 1_655 S
S1359 N1361 1.610 . S
N1360 S1359 1.613 1_455 S
N1360 C1363 1.350 . S
N1361 S1359 1.610 . S
N1361 C1362 1.351 1_655 S
C1362 C1356 1.428 . S
C1362 N1361 1.351 1_455 S
C1362 C1363 1.434 . S
C1363 C1354 1.429 . S
C1363 N1360 1.350 . S
C1363 C1362 1.434 . S
C1364 C1365 1.369 . S
C1364 C1366 1.419 . S
C1364 H1368 0.930 . S
C1365 C1364 1.369 . S
C1365 C1374 1.429 . S
C1366 C1364 1.419 . S
C1366 C1367 1.363 . S
C1366 H1369 0.929 . S
C1367 C1366 1.363 . S
C1367 C1373 1.428 . S
H1368 C1364 0.930 . S
H1369 C1366 0.929 . S
S1370 N1371 1.613 . S
S1370 N1372 1.610 . S
N1371 S1370 1.613 . S
N1371 C1374 1.350 . S
N1372 S1370 1.610 . S
N1372 C1373 1.351 . S
C1373 C1367 1.428 . S
C1373 N1372 1.351 . S
C1373 C1374 1.434 . S
C1374 C1365 1.429 . S
C1374 N1371 1.350 . S
C1374 C1373 1.434 . S
C1375 C1376 1.369 . S
C1375 C1377 1.419 . S
C1375 H1379 0.930 . S
C1376 C1375 1.369 . S
C1376 C1385 1.429 . S
C1377 C1375 1.419 . S
C1377 C1378 1.363 . S
C1377 H1380 0.929 . S
C1378 C1377 1.363 . S
C1378 C1384 1.428 . S
H1379 C1375 0.930 . S
H1380 C1377 0.929 . S
S1381 N1382 1.613 1_655 S
S1381 N1383 1.610 . S
N1382 S1381 1.613 1_455 S
N1382 C1385 1.350 . S
N1383 S1381 1.610 . S
N1383 C1384 1.351 1_655 S
C1384 C1378 1.428 . S
C1384 N1383 1.351 1_455 S
C1384 C1385 1.434 . S
C1385 C1376 1.429 . S
C1385 N1382 1.350 . S
C1385 C1384 1.434 . S
C1386 C1387 1.369 . S
C1386 C1388 1.419 . S
C1386 H1390 0.930 . S
C1387 C1386 1.369 . S
C1387 C1396 1.429 . S
C1388 C1386 1.419 . S
C1388 C1389 1.363 . S
C1388 H1391 0.929 . S
C1389 C1388 1.363 . S
C1389 C1395 1.428 . S
H1390 C1386 0.930 . S
H1391 C1388 0.929 . S
S1392 N1393 1.613 . S
S1392 N1394 1.610 . S
N1393 S1392 1.613 . S
N1393 C1396 1.350 . S
N1394 S1392 1.610 . S
N1394 C1395 1.351 . S
C1395 C1389 1.428 . S
C1395 N1394 1.351 . S
C1395 C1396 1.434 . S
C1396 C1387 1.429 . S
C1396 N1393 1.350 . S
C1396 C1395 1.434 . S
C1397 C1398 1.369 . S
C1397 C1399 1.419 . S
C1397 H1401 0.930 . S
C1398 C1397 1.369 . S
C1398 C1407 1.429 . S
C1399 C1397 1.419 . S
C1399 C1400 1.363 . S
C1399 H1402 0.929 . S
C1400 C1399 1.363 . S
C1400 C1406 1.428 . S
H1401 C1397 0.930 . S
H1402 C1399 0.929 . S
S1403 N1404 1.613 . S
S1403 N1405 1.610 . S
N1404 S1403 1.613 . S
N1404 C1407 1.350 . S
N1405 S1403 1.610 . S
N1405 C1406 1.351 . S
C1406 C1400 1.428 . S
C1406 N1405 1.351 . S
C1406 C1407 1.434 . S
C1407 C1398 1.429 . S
C1407 N1404 1.350 . S
C1407 C1406 1.434 . S
C1408 C1409 1.358 1_545 S
C1408 C1410 1.405 1_545 S
C1408 H1412 0.956 . S
C1409 C1408 1.358 1_565 S
C1409 C1418 1.429 . S
C1410 C1408 1.405 1_565 S
C1410 C1411 1.363 . S
C1410 H1413 0.929 . S
C1411 C1410 1.363 . S
C1411 C1417 1.428 . S
H1412 C1408 0.956 . S
H1413 C1410 0.929 . S
S1414 N1415 1.613 . S
S1414 N1416 1.610 . S
N1415 S1414 1.613 . S
N1415 C1418 1.350 . S
N1416 S1414 1.610 . S
N1416 C1417 1.351 . S
C1417 C1411 1.428 . S
C1417 N1416 1.351 . S
C1417 C1418 1.434 . S
C1418 C1409 1.429 . S
C1418 N1415 1.350 . S
C1418 C1417 1.434 . S
C1419 C1420 1.369 . S
C1419 C1421 1.419 . S
C1419 H1423 0.930 . S
C1420 C1419 1.369 . S
C1420 C1429 1.429 1_565 S
C1421 C1419 1.419 . S
C1421 C1422 1.363 . S
C1421 H1424 0.929 . S
C1422 C1421 1.363 . S
C1422 C1428 1.428 . S
H1423 C1419 0.930 . S
H1424 C1421 0.929 . S
S1425 N1426 1.613 . S
S1425 N1427 1.610 . S
N1426 S1425 1.613 . S
N1426 C1429 1.350 . S
N1427 S1425 1.610 . S
N1427 C1428 1.351 1_545 S
C1428 C1422 1.428 . S
C1428 N1427 1.351 1_565 S
C1428 C1429 1.434 1_565 S
C1429 C1420 1.429 1_545 S
C1429 N1426 1.350 . S
C1429 C1428 1.434 1_545 S
C1430 C1431 1.369 . S
C1430 C1432 1.419 . S
C1430 H1434 0.930 . S
C1431 C1430 1.369 . S
C1431 C1440 1.429 . S
C1432 C1430 1.419 . S
C1432 C1433 1.363 . S
C1432 H1435 0.929 . S
C1433 C1432 1.363 . S
C1433 C1439 1.436 . S
H1434 C1430 0.930 . S
H1435 C1432 0.929 . S
S1436 N1437 1.613 1_565 S
S1436 N1438 1.610 . S
N1437 S1436 1.613 1_545 S
N1437 C1440 1.350 . S
N1438 S1436 1.610 . S
N1438 C1439 1.332 1_565 S
C1439 C1433 1.436 . S
C1439 N1438 1.332 1_545 S
C1439 C1440 1.445 . S
C1440 C1431 1.429 . S
C1440 N1437 1.350 . S
C1440 C1439 1.445 . S
C1441 C1442 1.369 . S
C1441 C1443 1.419 . S
C1441 H1445 0.930 . S
C1442 C1441 1.369 . S
C1442 C1451 1.429 . S
C1443 C1441 1.419 . S
C1443 C1444 1.363 . S
C1443 H1446 0.929 1_545 S
C1444 C1443 1.363 . S
C1444 C1450 1.428 . S
H1445 C1441 0.930 . S
H1446 C1443 0.929 1_565 S
S1447 N1448 1.613 . S
S1447 N1449 1.610 . S
N1448 S1447 1.613 . S
N1448 C1451 1.350 . S
N1449 S1447 1.610 . S
N1449 C1450 1.351 . S
C1450 C1444 1.428 . S
C1450 N1449 1.351 . S
C1450 C1451 1.434 . S
C1451 C1442 1.429 . S
C1451 N1448 1.350 . S
C1451 C1450 1.434 . S
C1452 C1453 1.369 . S
C1452 C1454 1.419 . S
C1452 H1456 0.930 . S
C1453 C1452 1.369 . S
C1453 C1462 1.417 1_545 S
C1454 C1452 1.419 . S
C1454 C1455 1.363 . S
C1454 H1457 0.929 . S
C1455 C1454 1.363 . S
C1455 C1461 1.428 . S
H1456 C1452 0.930 . S
H1457 C1454 0.929 . S
S1458 N1459 1.613 . S
S1458 N1460 1.605 1_565 S
N1459 S1458 1.613 . S
N1459 C1462 1.378 . S
N1460 S1458 1.605 1_545 S
N1460 C1461 1.354 . S
C1461 C1455 1.428 . S
C1461 N1460 1.354 . S
C1461 C1462 1.419 1_545 S
C1462 C1453 1.417 1_565 S
C1462 N1459 1.378 . S
C1462 C1461 1.419 1_565 S
C1463 C1464 1.369 . S
C1463 C1465 1.419 . S
C1463 H1467 0.930 . S
C1464 C1463 1.369 . S
C1464 C1473 1.429 . S
C1465 C1463 1.419 . S
C1465 C1466 1.363 . S
C1465 H1468 0.929 . S
C1466 C1465 1.363 . S
C1466 C1472 1.428 . S
H1467 C1463 0.930 . S
H1468 C1465 0.929 . S
S1469 N1470 1.613 . S
S1469 N1471 1.610 . S
N1470 S1469 1.613 . S
N1470 C1473 1.350 . S
N1471 S1469 1.610 . S
N1471 C1472 1.351 . S
C1472 C1466 1.428 . S
C1472 N1471 1.351 . S
C1472 C1473 1.434 . S
C1473 C1464 1.429 . S
C1473 N1470 1.350 . S
C1473 C1472 1.434 . S
C1474 C1475 1.369 . S
C1474 C1476 1.419 . S
C1474 H1478 0.930 1_565 S
C1475 C1474 1.369 . S
C1475 C1484 1.429 . S
C1476 C1474 1.419 . S
C1476 C1477 1.363 . S
C1476 H1479 0.929 . S
C1477 C1476 1.363 . S
C1477 C1483 1.428 . S
H1478 C1474 0.930 1_545 S
H1479 C1476 0.929 . S
S1480 N1481 1.613 . S
S1480 N1482 1.610 . S
N1481 S1480 1.613 . S
N1481 C1484 1.350 . S
N1482 S1480 1.610 . S
N1482 C1483 1.351 . S
C1483 C1477 1.428 . S
C1483 N1482 1.351 . S
C1483 C1484 1.434 . S
C1484 C1475 1.429 . S
C1484 N1481 1.350 . S
C1484 C1483 1.434 . S
C1485 C1486 1.369 . S
C1485 C1487 1.419 . S
C1485 H1489 0.930 . S
C1486 C1485 1.369 . S
C1486 C1495 1.429 . S
C1487 C1485 1.419 . S
C1487 C1488 1.363 . S
C1487 H1490 0.929 . S
C1488 C1487 1.363 . S
C1488 C1494 1.428 . S
H1489 C1485 0.930 . S
H1490 C1487 0.929 . S
S1491 N1492 1.613 1_545 S
S1491 N1493 1.610 . S
N1492 S1491 1.613 1_565 S
N1492 C1495 1.350 . S
N1493 S1491 1.610 . S
N1493 C1494 1.351 1_545 S
C1494 C1488 1.428 . S
C1494 N1493 1.351 1_565 S
C1494 C1495 1.434 . S
C1495 C1486 1.429 . S
C1495 N1492 1.350 . S
C1495 C1494 1.434 . S
C1496 C1497 1.369 . S
C1496 C1498 1.419 . S
C1496 H1500 0.930 . S
C1497 C1496 1.369 . S
C1497 C1506 1.429 . S
C1498 C1496 1.419 . S
C1498 C1499 1.363 . S
C1498 H1501 0.929 . S
C1499 C1498 1.363 . S
C1499 C1505 1.428 . S
H1500 C1496 0.930 . S
H1501 C1498 0.929 . S
S1502 N1503 1.613 . S
S1502 N1504 1.610 . S
N1503 S1502 1.613 . S
N1503 C1506 1.350 . S
N1504 S1502 1.610 . S
N1504 C1505 1.351 . S
C1505 C1499 1.428 . S
C1505 N1504 1.351 . S
C1505 C1506 1.434 . S
C1506 C1497 1.429 . S
C1506 N1503 1.350 . S
C1506 C1505 1.434 . S
C1507 C1508 1.369 . S
C1507 C1509 1.419 . S
C1507 H1511 0.930 . S
C1508 C1507 1.369 . S
C1508 C1517 1.429 . S
C1509 C1507 1.419 . S
C1509 C1510 1.363 . S
C1509 H1512 0.929 . S
C1510 C1509 1.363 . S
C1510 C1516 1.428 . S
H1511 C1507 0.930 . S
H1512 C1509 0.929 . S
S1513 N1514 1.613 . S
S1513 N1515 1.610 . S
N1514 S1513 1.613 . S
N1514 C1517 1.350 . S
N1515 S1513 1.610 . S
N1515 C1516 1.351 . S
C1516 C1510 1.428 . S
C1516 N1515 1.351 . S
C1516 C1517 1.434 . S
C1517 C1508 1.429 . S
C1517 N1514 1.350 . S
C1517 C1516 1.434 . S
C1518 C1519 1.369 . S
C1518 C1520 1.419 . S
C1518 H1522 0.930 . S
C1519 C1518 1.369 . S
C1519 C1528 1.429 . S
C1520 C1518 1.419 . S
C1520 C1521 1.363 . S
C1520 H1523 0.929 . S
C1521 C1520 1.363 . S
C1521 C1527 1.428 . S
H1522 C1518 0.930 . S
H1523 C1520 0.929 . S
S1524 N1525 1.613 . S
S1524 N1526 1.610 . S
N1525 S1524 1.613 . S
N1525 C1528 1.350 . S
N1526 S1524 1.610 . S
N1526 C1527 1.351 . S
C1527 C1521 1.428 . S
C1527 N1526 1.351 . S
C1527 C1528 1.434 . S
C1528 C1519 1.429 . S
C1528 N1525 1.350 . S
C1528 C1527 1.434 . S
C1529 C1530 1.369 . S
C1529 C1531 1.419 . S
C1529 H1533 0.930 . S
C1530 C1529 1.369 . S
C1530 C1539 1.429 . S
C1531 C1529 1.419 . S
C1531 C1532 1.363 . S
C1531 H1534 0.929 . S
C1532 C1531 1.363 . S
C1532 C1538 1.428 . S
H1533 C1529 0.930 . S
H1534 C1531 0.929 . S
S1535 N1536 1.613 . S
S1535 N1537 1.610 . S
N1536 S1535 1.613 . S
N1536 C1539 1.350 . S
N1537 S1535 1.610 . S
N1537 C1538 1.351 . S
C1538 C1532 1.428 . S
C1538 N1537 1.351 . S
C1538 C1539 1.434 . S
C1539 C1530 1.429 . S
C1539 N1536 1.350 . S
C1539 C1538 1.434 . S
C1540 C1541 1.369 . S
C1540 C1542 1.419 . S
C1540 H1544 0.930 . S
C1541 C1540 1.369 . S
C1541 C1550 1.429 . S
C1542 C1540 1.419 . S
C1542 C1543 1.363 . S
C1542 H1545 0.929 . S
C1543 C1542 1.363 . S
C1543 C1549 1.428 . S
H1544 C1540 0.930 . S
H1545 C1542 0.929 . S
S1546 N1547 1.613 . S
S1546 N1548 1.610 . S
N1547 S1546 1.613 . S
N1547 C1550 1.350 . S
N1548 S1546 1.610 . S
N1548 C1549 1.351 . S
C1549 C1543 1.428 . S
C1549 N1548 1.351 . S
C1549 C1550 1.434 . S
C1550 C1541 1.429 . S
C1550 N1547 1.350 . S
C1550 C1549 1.434 . S
C1551 C1552 1.369 . S
C1551 C1553 1.419 . S
C1551 H1555 0.930 . S
C1552 C1551 1.369 . S
C1552 C1561 1.429 . S
C1553 C1551 1.419 . S
C1553 C1554 1.363 . S
C1553 H1556 0.929 . S
C1554 C1553 1.363 . S
C1554 C1560 1.428 . S
H1555 C1551 0.930 . S
H1556 C1553 0.929 . S
S1557 N1558 1.613 . S
S1557 N1559 1.610 . S
N1558 S1557 1.613 . S
N1558 C1561 1.350 . S
N1559 S1557 1.610 . S
N1559 C1560 1.351 . S
C1560 C1554 1.428 . S
C1560 N1559 1.351 . S
C1560 C1561 1.434 . S
C1561 C1552 1.429 . S
C1561 N1558 1.350 . S
C1561 C1560 1.434 . S
C1562 C1563 1.369 . S
C1562 C1564 1.419 . S
C1562 H1566 0.930 . S
C1563 C1562 1.369 . S
C1563 C1572 1.429 . S
C1564 C1562 1.419 . S
C1564 C1565 1.363 . S
C1564 H1567 0.929 . S
C1565 C1564 1.363 . S
C1565 C1571 1.428 . S
H1566 C1562 0.930 . S
H1567 C1564 0.929 . S
S1568 N1569 1.613 . S
S1568 N1570 1.610 . S
N1569 S1568 1.613 . S
N1569 C1572 1.350 . S
N1570 S1568 1.610 . S
N1570 C1571 1.351 . S
C1571 C1565 1.428 . S
C1571 N1570 1.351 . S
C1571 C1572 1.434 . S
C1572 C1563 1.429 . S
C1572 N1569 1.350 . S
C1572 C1571 1.434 . S
C1573 C1574 1.369 . S
C1573 C1575 1.419 . S
C1573 H1577 0.930 . S
C1574 C1573 1.369 . S
C1574 C1583 1.429 . S
C1575 C1573 1.419 . S
C1575 C1576 1.363 . S
C1575 H1578 0.929 . S
C1576 C1575 1.363 . S
C1576 C1582 1.428 . S
H1577 C1573 0.930 . S
H1578 C1575 0.929 . S
S1579 N1580 1.613 . S
S1579 N1581 1.610 . S
N1580 S1579 1.613 . S
N1580 C1583 1.350 . S
N1581 S1579 1.610 . S
N1581 C1582 1.351 . S
C1582 C1576 1.428 . S
C1582 N1581 1.351 . S
C1582 C1583 1.434 . S
C1583 C1574 1.429 . S
C1583 N1580 1.350 . S
C1583 C1582 1.434 . S
C1584 C1585 1.357 1_565 S
C1584 C1586 1.429 . S
C1584 H1588 0.931 . S
C1585 C1584 1.357 1_545 S
C1585 C1594 1.429 . S
C1586 C1584 1.429 . S
C1586 C1587 1.363 . S
C1586 H1589 0.929 . S
C1587 C1586 1.363 . S
C1587 C1593 1.428 1_565 S
H1588 C1584 0.931 . S
H1589 C1586 0.929 . S
S1590 N1591 1.613 . S
S1590 N1592 1.610 . S
N1591 S1590 1.613 . S
N1591 C1594 1.350 . S
N1592 S1590 1.610 . S
N1592 C1593 1.351 . S
C1593 C1587 1.428 1_545 S
C1593 N1592 1.351 . S
C1593 C1594 1.434 . S
C1594 C1585 1.429 . S
C1594 N1591 1.350 . S
C1594 C1593 1.434 . S
C1595 C1596 1.369 . S
C1595 C1597 1.419 . S
C1595 H1599 0.930 . S
C1596 C1595 1.369 . S
C1596 C1605 1.429 . S
C1597 C1595 1.419 . S
C1597 C1598 1.363 . S
C1597 H1600 0.929 . S
C1598 C1597 1.363 . S
C1598 C1604 1.428 . S
H1599 C1595 0.930 . S
H1600 C1597 0.929 . S
S1601 N1602 1.613 . S
S1601 N1603 1.610 . S
N1602 S1601 1.613 . S
N1602 C1605 1.350 . S
N1603 S1601 1.610 . S
N1603 C1604 1.351 . S
C1604 C1598 1.428 . S
C1604 N1603 1.351 . S
C1604 C1605 1.434 . S
C1605 C1596 1.429 . S
C1605 N1602 1.350 . S
C1605 C1604 1.434 . S
C1606 C1607 1.369 . S
C1606 C1608 1.442 . S
C1606 H1610 0.930 . S
C1607 C1606 1.369 . S
C1607 C1616 1.429 1_545 S
C1608 C1606 1.442 . S
C1608 C1609 1.337 1_545 S
C1608 H1611 0.932 . S
C1609 C1608 1.337 1_565 S
C1609 C1615 1.428 . S
H1610 C1606 0.930 . S
H1611 C1608 0.932 . S
S1612 N1613 1.613 . S
S1612 N1614 1.610 . S
N1613 S1612 1.613 . S
N1613 C1616 1.350 . S
N1614 S1612 1.610 . S
N1614 C1615 1.351 . S
C1615 C1609 1.428 . S
C1615 N1614 1.351 . S
C1615 C1616 1.434 . S
C1616 C1607 1.429 1_565 S
C1616 N1613 1.350 . S
C1616 C1615 1.434 . S
C1617 C1618 1.369 . S
C1617 C1619 1.419 . S
C1617 H1621 0.930 . S
C1618 C1617 1.369 . S
C1618 C1627 1.429 1_556 S
C1619 C1617 1.419 . S
C1619 C1620 1.363 1_556 S
C1619 H1622 0.929 . S
C1620 C1619 1.363 1_554 S
C1620 C1626 1.428 . S
H1621 C1617 0.930 . S
H1622 C1619 0.929 . S
S1623 N1624 1.613 . S
S1623 N1625 1.610 . S
N1624 S1623 1.613 . S
N1624 C1627 1.350 . S
N1625 S1623 1.610 . S
N1625 C1626 1.351 . S
C1626 C1620 1.428 . S
C1626 N1625 1.351 . S
C1626 C1627 1.434 . S
C1627 C1618 1.429 1_554 S
C1627 N1624 1.350 . S
C1627 C1626 1.434 . S
C1628 C1629 1.340 1_545 S
C1628 C1630 1.445 . S
C1628 H1632 0.933 . S
C1629 C1628 1.340 1_565 S
C1629 C1638 1.429 . S
C1630 C1628 1.445 . S
C1630 C1631 1.363 . S
C1630 H1633 0.929 . S
C1631 C1630 1.363 . S
C1631 C1637 1.428 1_545 S
H1632 C1628 0.933 . S
H1633 C1630 0.929 . S
S1634 N1635 1.613 . S
S1634 N1636 1.610 . S
N1635 S1634 1.613 . S
N1635 C1638 1.350 . S
N1636 S1634 1.610 . S
N1636 C1637 1.351 . S
C1637 C1631 1.428 1_565 S
C1637 N1636 1.351 . S
C1637 C1638 1.434 . S
C1638 C1629 1.429 . S
C1638 N1635 1.350 . S
C1638 C1637 1.434 . S
C1639 C1640 1.369 . S
C1639 C1641 1.419 . S
C1639 H1643 0.930 . S
C1640 C1639 1.369 . S
C1640 C1649 1.429 . S
C1641 C1639 1.419 . S
C1641 C1642 1.363 . S
C1641 H1644 0.929 . S
C1642 C1641 1.363 . S
C1642 C1648 1.428 . S
H1643 C1639 0.930 . S
H1644 C1641 0.929 . S
S1645 N1646 1.613 . S
S1645 N1647 1.610 . S
N1646 S1645 1.613 . S
N1646 C1649 1.350 . S
N1647 S1645 1.610 . S
N1647 C1648 1.351 . S
C1648 C1642 1.428 . S
C1648 N1647 1.351 . S
C1648 C1649 1.434 . S
C1649 C1640 1.429 . S
C1649 N1646 1.350 . S
C1649 C1648 1.434 . S
C1650 C1651 1.369 . S
C1650 C1652 1.420 . S
C1650 H1654 0.930 . S
C1651 C1650 1.369 . S
C1651 C1660 1.429 1_545 S
C1652 C1650 1.420 . S
C1652 C1653 1.362 1_545 S
C1652 H1655 0.929 . S
C1653 C1652 1.362 1_565 S
C1653 C1659 1.428 . S
H1654 C1650 0.930 . S
H1655 C1652 0.929 . S
S1656 N1657 1.613 . S
S1656 N1658 1.610 . S
N1657 S1656 1.613 . S
N1657 C1660 1.350 . S
N1658 S1656 1.610 . S
N1658 C1659 1.351 . S
C1659 C1653 1.428 . S
C1659 N1658 1.351 . S
C1659 C1660 1.434 . S
C1660 C1651 1.429 1_565 S
C1660 N1657 1.350 . S
C1660 C1659 1.434 . S
C1661 C1662 1.369 . S
C1661 C1663 1.419 1_554 S
C1661 H1665 0.930 . S
C1662 C1661 1.369 . S
C1662 C1671 1.429 . S
C1663 C1661 1.419 1_556 S
C1663 C1664 1.363 . S
C1663 H1666 0.929 . S
C1664 C1663 1.363 . S
C1664 C1670 1.428 . S
H1665 C1661 0.930 . S
H1666 C1663 0.929 . S
S1667 N1668 1.613 1_556 S
S1667 N1669 1.610 . S
N1668 S1667 1.613 1_554 S
N1668 C1671 1.350 . S
N1669 S1667 1.610 . S
N1669 C1670 1.351 . S
C1670 C1664 1.428 . S
C1670 N1669 1.351 . S
C1670 C1671 1.434 1_556 S
C1671 C1662 1.429 . S
C1671 N1668 1.350 . S
C1671 C1670 1.434 1_554 S
C1672 C1673 1.369 . S
C1672 C1674 1.419 . S
C1672 H1676 0.930 . S
C1673 C1672 1.369 . S
C1673 C1682 1.429 . S
C1674 C1672 1.419 . S
C1674 C1675 1.363 . S
C1674 H1677 0.929 . S
C1675 C1674 1.363 . S
C1675 C1681 1.428 . S
H1676 C1672 0.930 . S
H1677 C1674 0.929 . S
S1678 N1679 1.613 . S
S1678 N1680 1.610 . S
N1679 S1678 1.613 . S
N1679 C1682 1.350 . S
N1680 S1678 1.610 . S
N1680 C1681 1.351 . S
C1681 C1675 1.428 . S
C1681 N1680 1.351 . S
C1681 C1682 1.434 . S
C1682 C1673 1.429 . S
C1682 N1679 1.350 . S
C1682 C1681 1.434 . S
C1683 C1684 1.369 . S
C1683 C1685 1.419 . S
C1683 H1687 0.930 . S
C1684 C1683 1.369 . S
C1684 C1693 1.429 1_554 S
C1685 C1683 1.419 . S
C1685 C1686 1.363 1_554 S
C1685 H1688 0.929 . S
C1686 C1685 1.363 1_556 S
C1686 C1692 1.428 . S
H1687 C1683 0.930 . S
H1688 C1685 0.929 . S
S1689 N1690 1.613 . S
S1689 N1691 1.610 . S
N1690 S1689 1.613 . S
N1690 C1693 1.350 . S
N1691 S1689 1.610 . S
N1691 C1692 1.351 . S
C1692 C1686 1.428 . S
C1692 N1691 1.351 . S
C1692 C1693 1.434 . S
C1693 C1684 1.429 1_556 S
C1693 N1690 1.350 . S
C1693 C1692 1.434 . S
C1694 C1695 1.369 . S
C1694 C1696 1.419 . S
C1694 H1698 0.930 . S
C1695 C1694 1.369 . S
C1695 C1704 1.429 . S
C1696 C1694 1.419 . S
C1696 C1697 1.363 . S
C1696 H1699 0.929 . S
C1697 C1696 1.363 . S
C1697 C1703 1.428 . S
H1698 C1694 0.930 . S
H1699 C1696 0.929 . S
S1700 N1701 1.613 . S
S1700 N1702 1.610 . S
N1701 S1700 1.613 . S
N1701 C1704 1.350 . S
N1702 S1700 1.610 . S
N1702 C1703 1.351 . S
C1703 C1697 1.428 . S
C1703 N1702 1.351 . S
C1703 C1704 1.434 . S
C1704 C1695 1.429 . S
C1704 N1701 1.350 . S
C1704 C1703 1.434 . S
C1705 C1706 1.369 . S
C1705 C1707 1.419 . S
C1705 H1709 0.930 . S
C1706 C1705 1.369 . S
C1706 C1715 1.429 . S
C1707 C1705 1.419 . S
C1707 C1708 1.363 . S
C1707 H1710 0.929 . S
C1708 C1707 1.363 . S
C1708 C1714 1.428 . S
H1709 C1705 0.930 . S
H1710 C1707 0.929 . S
S1711 N1712 1.613 . S
S1711 N1713 1.610 . S
N1712 S1711 1.613 . S
N1712 C1715 1.350 . S
N1713 S1711 1.610 . S
N1713 C1714 1.351 . S
C1714 C1708 1.428 . S
C1714 N1713 1.351 . S
C1714 C1715 1.434 . S
C1715 C1706 1.429 . S
C1715 N1712 1.350 . S
C1715 C1714 1.434 . S
C1716 C1717 1.369 . S
C1716 C1718 1.419 . S
C1716 H1720 0.930 . S
C1717 C1716 1.369 . S
C1717 C1726 1.429 . S
C1718 C1716 1.419 . S
C1718 C1719 1.363 . S
C1718 H1721 0.929 . S
C1719 C1718 1.363 . S
C1719 C1725 1.428 . S
H1720 C1716 0.930 . S
H1721 C1718 0.929 . S
S1722 N1723 1.613 . S
S1722 N1724 1.610 . S
N1723 S1722 1.613 . S
N1723 C1726 1.350 . S
N1724 S1722 1.610 . S
N1724 C1725 1.351 . S
C1725 C1719 1.428 . S
C1725 N1724 1.351 . S
C1725 C1726 1.434 . S
C1726 C1717 1.429 . S
C1726 N1723 1.350 . S
C1726 C1725 1.434 . S
C1727 C1728 1.369 1_554 S
C1727 C1729 1.419 . S
C1727 H1731 0.930 . S
C1728 C1727 1.369 1_556 S
C1728 C1737 1.429 . S
C1729 C1727 1.419 . S
C1729 C1730 1.363 . S
C1729 H1732 0.929 . S
C1730 C1729 1.363 . S
C1730 C1736 1.428 1_554 S
H1731 C1727 0.930 . S
H1732 C1729 0.929 . S
S1733 N1734 1.613 . S
S1733 N1735 1.610 . S
N1734 S1733 1.613 . S
N1734 C1737 1.350 . S
N1735 S1733 1.610 . S
N1735 C1736 1.351 . S
C1736 C1730 1.428 1_556 S
C1736 N1735 1.351 . S
C1736 C1737 1.434 . S
C1737 C1728 1.429 . S
C1737 N1734 1.350 . S
C1737 C1736 1.434 . S
C1738 C1739 1.369 . S
C1738 C1740 1.419 . S
C1738 H1742 0.930 . S
C1739 C1738 1.369 . S
C1739 C1748 1.429 . S
C1740 C1738 1.419 . S
C1740 C1741 1.363 . S
C1740 H1743 0.929 . S
C1741 C1740 1.363 . S
C1741 C1747 1.428 . S
H1742 C1738 0.930 . S
H1743 C1740 0.929 . S
S1744 N1745 1.613 . S
S1744 N1746 1.610 . S
N1745 S1744 1.613 . S
N1745 C1748 1.350 . S
N1746 S1744 1.610 . S
N1746 C1747 1.351 . S
C1747 C1741 1.428 . S
C1747 N1746 1.351 . S
C1747 C1748 1.434 . S
C1748 C1739 1.429 . S
C1748 N1745 1.350 . S
C1748 C1747 1.434 . S
C1749 C1750 1.369 . S
C1749 C1751 1.419 . S
C1749 H1753 0.930 . S
C1750 C1749 1.369 . S
C1750 C1759 1.429 . S
C1751 C1749 1.419 . S
C1751 C1752 1.363 . S
C1751 H1754 0.929 . S
C1752 C1751 1.363 . S
C1752 C1758 1.428 . S
H1753 C1749 0.930 . S
H1754 C1751 0.929 . S
S1755 N1756 1.613 . S
S1755 N1757 1.610 . S
N1756 S1755 1.613 . S
N1756 C1759 1.350 . S
N1757 S1755 1.610 . S
N1757 C1758 1.351 . S
C1758 C1752 1.428 . S
C1758 N1757 1.351 . S
C1758 C1759 1.434 . S
C1759 C1750 1.429 . S
C1759 N1756 1.350 . S
C1759 C1758 1.434 . S
C1760 C1761 1.369 . S
C1760 C1762 1.432 . S
C1760 H1764 0.930 . S
C1761 C1760 1.369 . S
C1761 C1770 1.429 1_455 S
C1762 C1760 1.432 . S
C1762 C1763 1.348 1_455 S
C1762 H1765 0.931 . S
C1763 C1762 1.348 1_655 S
C1763 C1769 1.428 . S
H1764 C1760 0.930 . S
H1765 C1762 0.931 . S
S1766 N1767 1.613 . S
S1766 N1768 1.610 . S
N1767 S1766 1.613 . S
N1767 C1770 1.350 . S
N1768 S1766 1.610 . S
N1768 C1769 1.351 . S
C1769 C1763 1.428 . S
C1769 N1768 1.351 . S
C1769 C1770 1.434 . S
C1770 C1761 1.429 1_655 S
C1770 N1767 1.350 . S
C1770 C1769 1.434 . S
C1771 C1772 1.382 . S
C1771 C1773 1.406 1_655 S
C1771 H1775 0.930 1_655 S
C1772 C1771 1.382 . S
C1772 C1781 1.429 . S
C1773 C1771 1.406 1_455 S
C1773 C1774 1.363 . S
C1773 H1776 0.929 . S
C1774 C1773 1.363 . S
C1774 C1780 1.424 1_455 S
H1775 C1771 0.930 1_455 S
H1776 C1773 0.929 . S
S1777 N1778 1.613 . S
S1777 N1779 1.610 . S
N1778 S1777 1.613 . S
N1778 C1781 1.350 . S
N1779 S1777 1.610 . S
N1779 C1780 1.352 . S
C1780 C1774 1.424 1_655 S
C1780 N1779 1.352 . S
C1780 C1781 1.438 . S
C1781 C1772 1.429 . S
C1781 N1778 1.350 . S
C1781 C1780 1.438 . S
C1782 C1783 1.369 . S
C1782 C1784 1.419 . S
C1782 H1786 0.930 . S
C1783 C1782 1.369 . S
C1783 C1792 1.429 . S
C1784 C1782 1.419 . S
C1784 C1785 1.363 . S
C1784 H1787 0.929 . S
C1785 C1784 1.363 . S
C1785 C1791 1.428 . S
H1786 C1782 0.930 . S
H1787 C1784 0.929 . S
S1788 N1789 1.613 . S
S1788 N1790 1.610 . S
N1789 S1788 1.613 . S
N1789 C1792 1.350 . S
N1790 S1788 1.610 . S
N1790 C1791 1.351 . S
C1791 C1785 1.428 . S
C1791 N1790 1.351 . S
C1791 C1792 1.434 . S
C1792 C1783 1.429 . S
C1792 N1789 1.350 . S
C1792 C1791 1.434 . S
C1793 C1794 1.369 . S
C1793 C1795 1.419 . S
C1793 H1797 0.930 . S
C1794 C1793 1.369 . S
C1794 C1803 1.429 . S
C1795 C1793 1.419 . S
C1795 C1796 1.363 . S
C1795 H1798 0.929 . S
C1796 C1795 1.363 . S
C1796 C1802 1.428 . S
H1797 C1793 0.930 . S
H1798 C1795 0.929 . S
S1799 N1800 1.613 1_556 S
S1799 N1801 1.610 1_556 S
N1800 S1799 1.613 1_554 S
N1800 C1803 1.350 . S
N1801 S1799 1.610 1_554 S
N1801 C1802 1.351 . S
C1802 C1796 1.428 . S
C1802 N1801 1.351 . S
C1802 C1803 1.434 . S
C1803 C1794 1.429 . S
C1803 N1800 1.350 . S
C1803 C1802 1.434 . S
C1804 C1805 1.369 1_455 S
C1804 C1806 1.419 . S
C1804 H1808 0.930 . S
C1805 C1804 1.369 1_655 S
C1805 C1814 1.429 . S
C1806 C1804 1.419 . S
C1806 C1807 1.363 . S
C1806 H1809 0.929 . S
C1807 C1806 1.363 . S
C1807 C1813 1.428 1_455 S
H1808 C1804 0.930 . S
H1809 C1806 0.929 . S
S1810 N1811 1.613 . S
S1810 N1812 1.610 . S
N1811 S1810 1.613 . S
N1811 C1814 1.350 . S
N1812 S1810 1.610 . S
N1812 C1813 1.351 . S
C1813 C1807 1.428 1_655 S
C1813 N1812 1.351 . S
C1813 C1814 1.434 . S
C1814 C1805 1.429 . S
C1814 N1811 1.350 . S
C1814 C1813 1.434 . S
C1815 C1816 1.369 . S
C1815 C1817 1.419 . S
C1815 H1819 0.930 . S
C1816 C1815 1.369 . S
C1816 C1825 1.429 . S
C1817 C1815 1.419 . S
C1817 C1818 1.363 . S
C1817 H1820 0.929 . S
C1818 C1817 1.363 . S
C1818 C1824 1.428 . S
H1819 C1815 0.930 . S
H1820 C1817 0.929 . S
S1821 N1822 1.613 . S
S1821 N1823 1.610 . S
N1822 S1821 1.613 . S
N1822 C1825 1.350 . S
N1823 S1821 1.610 . S
N1823 C1824 1.351 . S
C1824 C1818 1.428 . S
C1824 N1823 1.351 . S
C1824 C1825 1.434 . S
C1825 C1816 1.429 . S
C1825 N1822 1.350 . S
C1825 C1824 1.434 . S
C1826 C1827 1.369 . S
C1826 C1828 1.419 . S
C1826 H1830 0.930 . S
C1827 C1826 1.369 . S
C1827 C1836 1.429 . S
C1828 C1826 1.419 . S
C1828 C1829 1.363 . S
C1828 H1831 0.929 . S
C1829 C1828 1.363 . S
C1829 C1835 1.428 . S
H1830 C1826 0.930 . S
H1831 C1828 0.929 . S
S1832 N1833 1.613 . S
S1832 N1834 1.610 . S
N1833 S1832 1.613 . S
N1833 C1836 1.350 . S
N1834 S1832 1.610 . S
N1834 C1835 1.351 . S
C1835 C1829 1.428 . S
C1835 N1834 1.351 . S
C1835 C1836 1.434 . S
C1836 C1827 1.429 . S
C1836 N1833 1.350 . S
C1836 C1835 1.434 . S
C1837 C1838 1.369 . S
C1837 C1839 1.419 1_455 S
C1837 H1841 0.930 . S
C1838 C1837 1.369 . S
C1838 C1847 1.429 . S
C1839 C1837 1.419 1_655 S
C1839 C1840 1.363 . S
C1839 H1842 0.929 . S
C1840 C1839 1.363 . S
C1840 C1846 1.428 . S
H1841 C1837 0.930 . S
H1842 C1839 0.929 . S
S1843 N1844 1.613 . S
S1843 N1845 1.610 1_455 S
N1844 S1843 1.613 . S
N1844 C1847 1.350 1_554 S
N1845 S1843 1.610 1_655 S
N1845 C1846 1.351 1_554 S
C1846 C1840 1.428 . S
C1846 N1845 1.351 1_556 S
C1846 C1847 1.434 1_655 S
C1847 C1838 1.429 . S
C1847 N1844 1.350 1_556 S
C1847 C1846 1.434 1_455 S
C1848 C1849 1.369 . S
C1848 C1850 1.419 . S
C1848 H1852 0.930 . S
C1849 C1848 1.369 . S
C1849 C1858 1.429 1_655 S
C1850 C1848 1.419 . S
C1850 C1851 1.363 1_655 S
C1850 H1853 0.929 . S
C1851 C1850 1.363 1_455 S
C1851 C1857 1.428 . S
H1852 C1848 0.930 . S
H1853 C1850 0.929 . S
S1854 N1855 1.613 . S
S1854 N1856 1.610 . S
N1855 S1854 1.613 . S
N1855 C1858 1.350 . S
N1856 S1854 1.610 . S
N1856 C1857 1.351 . S
C1857 C1851 1.428 . S
C1857 N1856 1.351 . S
C1857 C1858 1.434 . S
C1858 C1849 1.429 1_455 S
C1858 N1855 1.350 . S
C1858 C1857 1.434 . S
C1859 C1860 1.369 . S
C1859 C1861 1.419 1_455 S
C1859 H1863 0.930 . S
C1860 C1859 1.369 . S
C1860 C1869 1.429 . S
C1861 C1859 1.419 1_655 S
C1861 C1862 1.363 . S
C1861 H1864 0.929 . S
C1862 C1861 1.363 . S
C1862 C1868 1.428 . S
H1863 C1859 0.930 . S
H1864 C1861 0.929 . S
S1865 N1866 1.613 1_655 S
S1865 N1867 1.610 . S
N1866 S1865 1.613 1_455 S
N1866 C1869 1.350 . S
N1867 S1865 1.610 . S
N1867 C1868 1.351 . S
C1868 C1862 1.428 . S
C1868 N1867 1.351 . S
C1868 C1869 1.434 1_655 S
C1869 C1860 1.429 . S
C1869 N1866 1.350 . S
C1869 C1868 1.434 1_455 S
C1870 C1871 1.369 . S
C1870 C1872 1.419 . S
C1870 H1874 0.930 . S
C1871 C1870 1.369 . S
C1871 C1880 1.429 . S
C1872 C1870 1.419 . S
C1872 C1873 1.363 . S
C1872 H1875 0.929 . S
C1873 C1872 1.363 . S
C1873 C1879 1.428 . S
H1874 C1870 0.930 . S
H1875 C1872 0.929 . S
S1876 N1877 1.613 . S
S1876 N1878 1.610 . S
N1877 S1876 1.613 . S
N1877 C1880 1.350 . S
N1878 S1876 1.610 . S
N1878 C1879 1.351 . S
C1879 C1873 1.428 . S
C1879 N1878 1.351 . S
C1879 C1880 1.434 . S
C1880 C1871 1.429 . S
C1880 N1877 1.350 . S
C1880 C1879 1.434 . S
C1881 C1882 1.369 . S
C1881 C1883 1.419 . S
C1881 H1885 0.930 . S
C1882 C1881 1.369 . S
C1882 C1891 1.429 . S
C1883 C1881 1.419 . S
C1883 C1884 1.363 . S
C1883 H1886 0.929 . S
C1884 C1883 1.363 . S
C1884 C1890 1.428 . S
H1885 C1881 0.930 . S
H1886 C1883 0.929 . S
S1887 N1888 1.613 . S
S1887 N1889 1.610 . S
N1888 S1887 1.613 . S
N1888 C1891 1.350 . S
N1889 S1887 1.610 . S
N1889 C1890 1.351 . S
C1890 C1884 1.428 . S
C1890 N1889 1.351 . S
C1890 C1891 1.434 . S
C1891 C1882 1.429 . S
C1891 N1888 1.350 . S
C1891 C1890 1.434 . S
C1892 C1893 1.369 . S
C1892 C1894 1.419 . S
C1892 H1896 0.930 . S
C1893 C1892 1.369 . S
C1893 C1902 1.429 1_655 S
C1894 C1892 1.419 . S
C1894 C1895 1.363 1_655 S
C1894 H1897 0.929 . S
C1895 C1894 1.363 1_455 S
C1895 C1901 1.428 . S
H1896 C1892 0.930 . S
H1897 C1894 0.929 . S
S1898 N1899 1.613 . S
S1898 N1900 1.610 . S
N1899 S1898 1.613 . S
N1899 C1902 1.350 . S
N1900 S1898 1.610 . S
N1900 C1901 1.351 . S
C1901 C1895 1.428 . S
C1901 N1900 1.351 . S
C1901 C1902 1.434 . S
C1902 C1893 1.429 1_455 S
C1902 N1899 1.350 . S
C1902 C1901 1.434 . S
C1903 C1904 1.369 . S
C1903 C1905 1.419 . S
C1903 H1907 0.930 . S
C1904 C1903 1.369 . S
C1904 C1913 1.429 . S
C1905 C1903 1.419 . S
C1905 C1906 1.363 . S
C1905 H1908 0.929 . S
C1906 C1905 1.363 . S
C1906 C1912 1.428 . S
H1907 C1903 0.930 . S
H1908 C1905 0.929 . S
S1909 N1910 1.613 . S
S1909 N1911 1.610 . S
N1910 S1909 1.613 . S
N1910 C1913 1.350 . S
N1911 S1909 1.610 . S
N1911 C1912 1.351 . S
C1912 C1906 1.428 . S
C1912 N1911 1.351 . S
C1912 C1913 1.434 . S
C1913 C1904 1.429 . S
C1913 N1910 1.350 . S
C1913 C1912 1.434 . S
C1914 C1915 1.369 . S
C1914 C1916 1.419 . S
C1914 H1918 0.930 . S
C1915 C1914 1.369 . S
C1915 C1924 1.429 . S
C1916 C1914 1.419 . S
C1916 C1917 1.363 . S
C1916 H1919 0.929 . S
C1917 C1916 1.363 . S
C1917 C1923 1.428 . S
H1918 C1914 0.930 . S
H1919 C1916 0.929 . S
S1920 N1921 1.613 . S
S1920 N1922 1.610 . S
N1921 S1920 1.613 . S
N1921 C1924 1.350 . S
N1922 S1920 1.610 . S
N1922 C1923 1.351 . S
C1923 C1917 1.428 . S
C1923 N1922 1.351 . S
C1923 C1924 1.434 . S
C1924 C1915 1.429 . S
C1924 N1921 1.350 . S
C1924 C1923 1.434 . S
C1925 C1926 1.369 . S
C1925 C1927 1.419 . S
C1925 H1929 0.930 . S
C1926 C1925 1.369 . S
C1926 C1935 1.429 1_655 S
C1927 C1925 1.419 . S
C1927 C1928 1.363 1_655 S
C1927 H1930 0.929 . S
C1928 C1927 1.363 1_455 S
C1928 C1934 1.428 . S
H1929 C1925 0.930 . S
H1930 C1927 0.929 . S
S1931 N1932 1.613 . S
S1931 N1933 1.610 . S
N1932 S1931 1.613 . S
N1932 C1935 1.350 . S
N1933 S1931 1.610 . S
N1933 C1934 1.351 . S
C1934 C1928 1.428 . S
C1934 N1933 1.351 . S
C1934 C1935 1.434 . S
C1935 C1926 1.429 1_455 S
C1935 N1932 1.350 . S
C1935 C1934 1.434 . S
C1057 C912 0.865 . S
C1059 C7 0.870 . S
C1068 C285 0.867 1_455 S
C1070 C40 0.875 . S
C1079 C846 0.865 . S
C1081 C73 0.873 . S
C1090 C106 0.873 . S
C1092 C351 0.867 . S
C1101 C978 0.868 . S
C1103 C139 0.870 . S
C1112 C483 0.865 . S
C1114 C172 0.872 . S
C1123 C205 0.873 . S
C1125 C1044 0.867 . S
C1134 C238 0.882 . S
C1136 C417 0.877 1_455 S
C1145 C648 0.876 . S
C1147 C271 0.875 . S
C1156 C21 0.868 1_655 S
C1158 C304 0.875 . S
C1167 C337 0.869 . S
C1169 C582 0.869 . S
C1178 C370 0.882 . S
C1180 C87 0.876 . S
C1189 C403 0.882 . S
C1191 C714 0.877 . S
C1200 C436 0.868 . S
C1202 C219 0.866 . S
C1211 C780 0.879 . S
C1213 C469 0.879 . S
C1222 C153 0.875 1_655 S
C1224 C502 0.875 . S
C1233 C384 0.864 . S
C1235 C535 0.871 . S
C1244 C568 0.877 . S
C1246 C813 0.876 . S
C1255 C318 0.879 . S
C1257 C601 0.878 . S
C1266 C634 0.879 . S
C1268 C879 0.878 1_655 S
C1277 C450 0.870 . S
C1279 C667 0.871 . S
C1288 C1011 0.880 1_655 S
C1290 C700 0.878 . S
C1299 C516 0.873 . S
C1301 C733 0.873 . S
C1310 C766 0.872 . S
C1312 C945 0.867 . S
C1321 C799 0.872 . S
C1323 C120 0.867 . S
C1332 C549 0.869 . S
C1334 C832 0.871 . S
C1343 C54 0.875 . S
C1345 C865 0.875 . S
C1354 C898 0.869 . S
C1356 C615 0.866 1_455 S
C1365 C931 0.868 . S
C1367 C186 0.866 . S
C1376 C964 0.878 . S
C1378 C747 0.872 1_455 S
C1387 C252 0.870 . S
C1389 C997 0.876 . S
C1398 C1030 0.868 . S
C1400 C681 0.867 . S
C1409 N13 1.532 1_565 S
C1411 N178 1.531 . S
C1420 N211 1.525 1_565 S
C1422 N46 1.527 . S
C1431 N244 1.528 . S
C1433 N79 1.525 1_545 S
C1442 N112 1.529 . S
C1444 N145 1.533 1_545 S
C1453 N277 1.523 1_545 S
C1455 N442 1.529 . S
C1464 N310 1.535 . S
C1466 N475 1.525 1_545 S
C1475 N343 1.534 1_565 S
C1477 N508 1.525 . S
C1486 N376 1.523 . S
C1488 N409 1.529 1_565 S
C1497 N706 1.523 . S
C1499 N541 1.530 . S
C1508 N574 1.528 . S
C1510 N739 1.533 . S
C1519 N607 1.523 . S
C1521 N772 1.533 . S
C1530 N673 1.534 . S
C1532 N640 1.529 . S
C1541 N970 1.530 . S
C1543 N805 1.524 . S
C1552 N1003 1.533 . S
C1554 N838 1.531 . S
C1563 N1036 1.523 . S
C1565 N871 1.530 . S
C1574 N937 1.531 . S
C1576 N904 1.524 . S
C1585 C18 1.322 . S
C1587 C150 1.314 . S
C1596 C51 1.322 . S
C1598 C183 1.315 . S
C1607 C216 1.314 . S
C1609 C84 1.321 . S
C1618 C249 1.318 . S
C1620 C117 1.314 . S
C1629 C282 1.322 . S
C1631 C414 1.314 . S
C1640 C447 1.315 . S
C1642 C315 1.317 . S
C1651 C348 1.312 . S
C1653 C480 1.321 . S
C1662 C513 1.318 . S
C1664 C381 1.319 . S
C1673 C546 1.312 . S
C1675 C678 1.321 . S
C1684 C579 1.317 . S
C1686 C711 1.315 . S
C1695 C612 1.312 . S
C1697 C744 1.319 . S
C1706 C645 1.313 . S
C1708 C777 1.318 . S
C1717 C942 1.312 . S
C1719 C810 1.321 . S
C1728 C843 1.313 . S
C1730 C975 1.321 . S
C1739 C876 1.312 . S
C1741 C1008 1.320 . S
C1750 C909 1.321 . S
C1752 C1041 1.313 . S
C1761 N2 1.346 . S
C1763 N596 1.351 . S
C1772 N629 1.348 . S
C1774 N35 1.350 . S
C1783 N68 1.350 . S
C1785 N530 1.348 . S
C1794 N101 1.347 . S
C1796 N563 1.350 . S
C1805 N728 1.351 . S
C1807 N134 1.347 . S
C1816 N761 1.351 . S
C1818 N167 1.347 . S
C1827 N200 1.347 . S
C1829 N662 1.350 . S
C1838 N233 1.349 . S
C1840 N695 1.349 . S
C1849 N266 1.346 . S
C1851 N860 1.351 . S
C1860 N893 1.348 . S
C1862 N299 1.349 . S
C1871 N794 1.346 . S
C1873 N332 1.351 . S
C1882 N365 1.352 . S
C1884 N827 1.347 . S
C1893 N398 1.346 . S
C1895 N992 1.351 . S
C1904 N431 1.347 . S
C1906 N1025 1.350 . S
C1915 N464 1.346 . S
C1917 N926 1.351 . S
C1926 N497 1.351 . S
C1928 N959 1.347 . S
