# Generated by pormake.
# Topology ecn, (8)-cn, num edge types: 1
# Building blocks:
#     Node 0, Type 0, BuildingBlock: AJUNOK_clean_sbu_0, # of connection points: 8
#     Node 1, Type 0, BuildingBlock: AJUNOK_clean_sbu_0, # of connection points: 8
#     Node 2, Type 0, BuildingBlock: AJUNOK_clean_sbu_0, # of connection points: 8
#     Node 3, Type 0, BuildingBlock: AJUNOK_clean_sbu_0, # of connection points: 8
#     Node 4, Type 0, BuildingBlock: AJUNOK_clean_sbu_0, # of connection points: 8
#     Node 5, Type 0, BuildingBlock: AJUNOK_clean_sbu_0, # of connection points: 8
#     Node 6, Type 0, BuildingBlock: AJUNOK_clean_sbu_0, # of connection points: 8
#     Node 7, Type 0, BuildingBlock: AJUNOK_clean_sbu_0, # of connection points: 8
#     Node 8, Type 0, BuildingBlock: AJUNOK_clean_sbu_0, # of connection points: 8
#     Edge 9, Type (0, 0), BuildingBlock: AJUNOK_clean_linker_0, # of connection points: 2
#     Edge 10, Type (0, 0), BuildingBlock: AJUNOK_clean_linker_0, # of connection points: 2
#     Edge 11, Type (0, 0), BuildingBlock: AJUNOK_clean_linker_0, # of connection points: 2
#     Edge 12, Type (0, 0), BuildingBlock: AJUNOK_clean_linker_0, # of connection points: 2
#     Edge 13, Type (0, 0), BuildingBlock: AJUNOK_clean_linker_0, # of connection points: 2
#     Edge 14, Type (0, 0), BuildingBlock: AJUNOK_clean_linker_0, # of connection points: 2
#     Edge 15, Type (0, 0), BuildingBlock: AJUNOK_clean_linker_0, # of connection points: 2
#     Edge 16, Type (0, 0), BuildingBlock: AJUNOK_clean_linker_0, # of connection points: 2
#     Edge 17, Type (0, 0), BuildingBlock: AJUNOK_clean_linker_0, # of connection points: 2
#     Edge 18, Type (0, 0), BuildingBlock: AJUNOK_clean_linker_0, # of connection points: 2
#     Edge 19, Type (0, 0), BuildingBlock: AJUNOK_clean_linker_0, # of connection points: 2
#     Edge 20, Type (0, 0), BuildingBlock: AJUNOK_clean_linker_0, # of connection points: 2
#     Edge 21, Type (0, 0), BuildingBlock: AJUNOK_clean_linker_0, # of connection points: 2
#     Edge 22, Type (0, 0), BuildingBlock: AJUNOK_clean_linker_0, # of connection points: 2
#     Edge 23, Type (0, 0), BuildingBlock: AJUNOK_clean_linker_0, # of connection points: 2
#     Edge 24, Type (0, 0), BuildingBlock: AJUNOK_clean_linker_0, # of connection points: 2
#     Edge 25, Type (0, 0), BuildingBlock: AJUNOK_clean_linker_0, # of connection points: 2
#     Edge 26, Type (0, 0), BuildingBlock: AJUNOK_clean_linker_0, # of connection points: 2
#     Edge 27, Type (0, 0), BuildingBlock: AJUNOK_clean_linker_0, # of connection points: 2
#     Edge 28, Type (0, 0), BuildingBlock: AJUNOK_clean_linker_0, # of connection points: 2
#     Edge 29, Type (0, 0), BuildingBlock: AJUNOK_clean_linker_0, # of connection points: 2
#     Edge 30, Type (0, 0), BuildingBlock: AJUNOK_clean_linker_0, # of connection points: 2
#     Edge 31, Type (0, 0), BuildingBlock: AJUNOK_clean_linker_0, # of connection points: 2
#     Edge 32, Type (0, 0), BuildingBlock: AJUNOK_clean_linker_0, # of connection points: 2
#     Edge 33, Type (0, 0), BuildingBlock: AJUNOK_clean_linker_0, # of connection points: 2
#     Edge 34, Type (0, 0), BuildingBlock: AJUNOK_clean_linker_0, # of connection points: 2
#     Edge 35, Type (0, 0), BuildingBlock: AJUNOK_clean_linker_0, # of connection points: 2
#     Edge 36, Type (0, 0), BuildingBlock: AJUNOK_clean_linker_0, # of connection points: 2
#     Edge 37, Type (0, 0), BuildingBlock: AJUNOK_clean_linker_0, # of connection points: 2
#     Edge 38, Type (0, 0), BuildingBlock: AJUNOK_clean_linker_0, # of connection points: 2
#     Edge 39, Type (0, 0), BuildingBlock: AJUNOK_clean_linker_0, # of connection points: 2
#     Edge 40, Type (0, 0), BuildingBlock: AJUNOK_clean_linker_0, # of connection points: 2
#     Edge 41, Type (0, 0), BuildingBlock: AJUNOK_clean_linker_0, # of connection points: 2
#     Edge 42, Type (0, 0), BuildingBlock: AJUNOK_clean_linker_0, # of connection points: 2
#     Edge 43, Type (0, 0), BuildingBlock: AJUNOK_clean_linker_0, # of connection points: 2
#     Edge 44, Type (0, 0), BuildingBlock: AJUNOK_clean_linker_0, # of connection points: 2
# Relax obj value: 0.186
# Max RMSD: 0.198
# Mean RMSD: 0.198
data_MOF--net-ecn--node1-AJUNOK_clean_sbu_0--edge1-AJUNOK_clean_linker_0
_symmetry_space_group_name_H-M    P1
_symmetry_Int_Tables_number       1
_symmetry_cell_setting            triclinic
loop_
_symmetry_equiv_pos_as_xyz
'x, y, z'
_cell_length_a     48.280817
_cell_length_b     48.218183
_cell_length_c     9.7611181
_cell_angle_alpha  90.213104
_cell_angle_beta   89.668179
_cell_angle_gamma 120.09985
loop_
_atom_site_label
_atom_site_type_symbol
_atom_site_fract_x
_atom_site_fract_y
_atom_site_fract_z
_atom_type_partial_charge
Cd0 Cd 0.11292 0.17748 0.13683 0.0
Cd1 Cd 0.10644 0.26801 0.0295 0.0
C2 C 0.04374 0.11533 0.17154 0.0
N3 N 0.05768 0.1446 0.1107 0.0
C4 C 0.00884 0.13098 -0.00452 0.0
C5 C 0.99423 0.10042 0.05514 0.0
C6 C 0.01186 0.09293 0.14619 0.0
C7 C 0.04088 0.15283 0.02477 0.0
H8 H 0.05757 0.10883 0.23646 0.0
H9 H 0.05259 0.17584 0.97495 0.0
C10 C 0.09898 0.23634 0.3074 0.0
C11 C 0.17304 0.312 0.17861 0.0
C12 C 0.20608 0.33001 0.19799 0.0
C13 C 0.22662 0.3258 0.10868 0.0
C14 C 0.21316 0.302 0.00749 0.0
C15 C 0.18008 0.28475 -0.00887 0.0
N16 N 0.16083 0.29058 0.07398 0.0
H17 H 0.15721 0.31642 0.24206 0.0
H18 H 0.17011 0.26768 0.90867 0.0
C19 C 0.0325 0.21885 0.09394 0.0
N20 N 0.05272 0.2319 0.98555 0.0
C21 C 0.00855 0.21087 0.83053 0.0
C22 C 0.98713 0.19865 0.94173 0.0
C23 C -0.00043 0.20197 0.07425 0.0
C24 C 0.04154 0.22757 0.85502 0.0
H25 H 0.04167 0.22301 0.19686 0.0
H26 H 0.05814 0.23862 0.77079 0.0
C27 C 0.1135 0.20636 0.86009 0.0
C28 C 0.12437 0.12948 0.24296 0.0
N29 N 0.16478 0.21805 0.17842 0.0
C30 C 0.18714 0.22304 0.08178 0.0
C31 C 0.2196 0.24078 0.11361 0.0
C32 C 0.22895 0.25312 0.24652 0.0
C33 C 0.20537 0.24942 0.34136 0.0
C34 C 0.17314 0.23142 0.30518 0.0
C35 C 0.10849 0.32219 0.9034 0.0
O36 O 0.10284 0.2207 0.21203 0.0
O37 O 0.09811 0.26143 0.27592 0.0
O38 O 0.11308 0.22317 0.95857 0.0
O39 O 0.11613 0.18213 0.88799 0.0
O40 O 0.11391 0.14341 0.32143 0.0
O41 O 0.12987 0.13858 0.11886 0.0
O42 O 0.11512 0.30372 0.83501 0.0
O43 O 0.10136 0.31539 0.02906 0.0
H44 H 0.17973 0.21135 0.9832 0.0
H45 H 0.15488 0.22593 0.38164 0.0
H46 H 0.99589 0.13758 0.9249 0.0
H47 H 0.0015 0.06941 0.19262 0.0
H48 H 0.21538 0.34873 0.27488 0.0
H49 H 0.22817 0.29798 0.93672 0.0
H50 H -0.00013 0.20906 0.72694 0.0
H51 H 0.98408 0.19389 0.16348 0.0
H52 H 0.23699 0.24234 0.03882 0.0
H53 H 0.21171 0.25803 0.44556 0.0
Cd54 Cd 0.8194 0.9258 0.8865 0.0
Cd55 Cd 0.71667 0.8317 0.77372 0.0
C56 C 0.83735 0.87114 0.90467 0.0
N57 N 0.84028 0.89603 0.9811 0.0
C58 C 0.87848 0.89339 0.12609 0.0
C59 C 0.87817 0.86964 0.04122 0.0
C60 C 0.85565 0.85696 0.93495 0.0
C61 C 0.85914 0.90629 0.09419 0.0
H62 H 0.82263 0.864 0.81419 0.0
H63 H 0.86102 0.926 0.15422 0.0
C64 C 0.75072 0.86191 0.04136 0.0
C65 C 0.69158 0.87898 0.84492 0.0
C66 C 0.67907 0.89904 0.8241 0.0
C67 C 0.6822 0.91324 0.69503 0.0
C68 C 0.69915 0.90773 0.59117 0.0
C69 C 0.71094 0.88704 0.61611 0.0
N70 N 0.70649 0.8729 0.7408 0.0
H71 H 0.68769 0.86665 0.94159 0.0
H72 H 0.72232 0.8811 0.53447 0.0
C73 C 0.7174 0.77574 0.92566 0.0
N74 N 0.73636 0.7986 0.83377 0.0
C75 C 0.77474 0.78119 0.83983 0.0
C76 C 0.75586 0.75798 0.93744 0.0
C77 C 0.72685 0.75523 0.98003 0.0
C78 C 0.76449 0.80161 0.78928 0.0
H79 H 0.69513 0.77394 0.9587 0.0
H80 H 0.77912 0.81997 0.71622 0.0
C81 C 0.79081 0.8877 0.60064 0.0
C82 C 0.87411 0.98702 0.92663 0.0
N83 N 0.78746 0.9478 0.94233 0.0
C84 C 0.76803 0.94844 0.84394 0.0
C85 C 0.75181 0.96525 0.86602 0.0
C86 C 0.75576 0.98154 -0.00959 0.0
C87 C 0.77524 0.97961 0.0914 0.0
C88 C 0.79125 0.96296 0.06453 0.0
C89 C 0.65628 0.78234 0.68503 0.0
O90 O 0.76674 0.87987 0.94246 0.0
O91 O 0.72269 0.83907 0.01728 0.0
O92 O 0.76927 0.87239 0.68901 0.0
O93 O 0.81623 0.91269 0.63923 0.0
O94 O 0.85802 0.96908 0.02589 0.0
O95 O 0.86488 0.97614 0.8062 0.0
O96 O 0.68077 0.7924 0.6076 0.0
O97 O 0.66011 0.79618 0.80002 0.0
H98 H 0.76637 0.93714 0.74615 0.0
H99 H 0.80793 0.9637 0.13952 0.0
H100 H 0.89541 0.90386 0.20928 0.0
H101 H 0.85392 0.83797 0.86952 0.0
H102 H 0.66519 0.90156 0.90568 0.0
H103 H 0.70178 0.91796 0.49005 0.0
H104 H 0.79731 0.78385 0.80539 0.0
H105 H 0.71167 0.73736 0.0546 0.0
H106 H 0.73742 0.96657 0.78473 0.0
H107 H 0.77979 0.99262 0.18706 0.0
Cd108 Cd 0.06302 0.88986 0.11982 0.0
Cd109 Cd 0.15961 0.88909 0.00964 0.0
C110 C 0.06012 0.95004 0.23738 0.0
N111 N 0.08136 0.9394 0.23025 0.0
C112 C 0.1236 0.99015 0.30805 0.0
C113 C 0.10258 0.00233 0.30753 0.0
C114 C 0.07022 0.98149 0.27663 0.0
C115 C 0.11244 0.95843 0.26794 0.0
H116 H 0.03569 0.93467 0.20501 0.0
H117 H 0.12894 0.94957 0.26106 0.0
C118 C 0.12964 0.8904 0.2892 0.0
C119 C 0.11538 0.81384 0.04915 0.0
C120 C 0.1001 0.78206 0.00427 0.0
C121 C 0.08846 0.7748 0.86952 0.0
C122 C 0.08873 0.79909 0.78973 0.0
C123 C 0.1049 0.83059 0.83735 0.0
N124 N 0.11881 0.83741 0.96293 0.0
H125 H 0.12731 0.82008 0.14729 0.0
H126 H 0.10855 0.84971 0.76953 0.0
C127 C 0.17892 0.9645 0.02187 0.0
N128 N 0.19118 0.94505 -0.00534 0.0
C129 C 0.24322 0.9905 0.9589 0.0
C130 C 0.23138 0.01114 -0.01097 0.0
C131 C 0.19871 0.99779 0.0198 0.0
C132 C 0.22264 0.95743 0.96252 0.0
H133 H 0.15398 0.95429 0.0481 0.0
H134 H 0.23206 0.94165 0.94361 0.0
C135 C 0.10417 0.90696 0.85177 0.0
C136 C -0.00227 0.87104 0.09239 0.0
N137 N 0.04775 0.83537 0.11991 0.0
C138 C 0.04047 0.82168 -0.00648 0.0
C139 C 0.02256 0.7884 0.97972 0.0
C140 C 0.01099 0.76924 0.09758 0.0
C141 C 0.02188 0.7838 0.22595 0.0
C142 C 0.0403 0.81709 0.23498 0.0
C143 C 0.20476 0.87735 0.87509 0.0
O144 O 0.11136 0.88798 0.19136 0.0
O145 O 0.15475 0.88923 0.25958 0.0
O146 O 0.11849 0.90031 0.94175 0.0
O147 O 0.07972 0.90821 0.88894 0.0
O148 O 0.00887 0.87013 0.20937 0.0
O149 O 0.01722 0.88072 -0.0081 0.0
O150 O 0.18815 0.88667 0.8103 0.0
O151 O 0.2002 0.87324 0.00384 0.0
H152 H 0.04653 0.83672 0.90362 0.0
H153 H 0.04602 0.82791 0.33498 0.0
H154 H 0.14867 0.00539 0.33273 0.0
H155 H 0.05331 0.99001 0.27337 0.0
H156 H 0.10049 0.76408 0.06909 0.0
H157 H 0.0793 0.79432 0.68654 0.0
H158 H 0.26845 -0.00024 0.93912 0.0
H159 H 0.18875 0.01293 0.04508 0.0
H160 H 0.01549 0.77804 0.87843 0.0
H161 H 0.01358 0.77 0.31969 0.0
Cd162 Cd 0.77646 0.51487 0.41753 0.0
Cd163 Cd 0.77524 0.61001 0.32684 0.0
C164 C 0.7072 0.49911 0.52826 0.0
N165 N 0.72702 0.4867 0.52564 0.0
C166 C 0.68385 0.43466 0.58006 0.0
C167 C 0.66231 0.44611 0.5704 0.0
C168 C 0.67445 0.47909 0.55157 0.0
C169 C 0.71631 0.45548 0.55608 0.0
H170 H 0.71637 0.52393 0.50158 0.0
H171 H 0.73249 0.44614 0.5503 0.0
C172 C 0.77914 0.58138 0.59653 0.0
C173 C 0.85108 0.6394 0.37225 0.0
C174 C 0.88315 0.65518 0.33114 0.0
C175 C 0.89077 0.65506 0.19206 0.0
C176 C 0.86615 0.63619 0.10014 0.0
C177 C 0.83446 0.62099 0.14541 0.0
N178 N 0.8276 0.6238 0.27818 0.0
H179 H 0.84488 0.64167 0.47669 0.0
H180 H 0.81529 0.60886 0.07265 0.0
C181 C 0.71387 0.59721 0.49359 0.0
N182 N 0.72118 0.58418 0.38554 0.0
C183 C 0.66606 0.54431 0.35838 0.0
C184 C 0.65788 0.55753 0.46917 0.0
C185 C 0.68229 0.58415 0.53761 0.0
C186 C 0.6981 0.55826 0.31736 0.0
H187 H 0.73263 0.6181 0.54458 0.0
H188 H 0.70442 0.54842 0.23112 0.0
C189 C 0.75717 0.53698 0.1543 0.0
C190 C 0.79522 0.46824 0.38768 0.0
N191 N 0.82965 0.55593 0.40392 0.0
C192 C 0.84214 0.56143 0.27526 0.0
C193 C 0.87521 0.57715 0.25594 0.0
C194 C 0.89535 0.58612 0.37069 0.0
C195 C 0.88189 0.58387 0.50101 0.0
C196 C 0.84874 0.56855 0.51545 0.0
C197 C 0.77711 0.66252 0.19073 0.0
O198 O 0.78068 0.56559 0.49537 0.0
O199 O 0.78182 0.60848 0.5721 0.0
O200 O 0.76317 0.55787 0.24531 0.0
O201 O 0.75621 0.51143 0.19065 0.0
O202 O 0.79565 0.47987 0.50578 0.0
O203 O 0.7862 0.4786 0.28784 0.0
O204 O 0.76963 0.63655 0.12835 0.0
O205 O 0.78373 0.66392 0.31738 0.0
H206 H 0.82641 0.55108 0.18833 0.0
H207 H 0.83868 0.5642 0.61703 0.0
H208 H 0.67537 0.40934 0.59311 0.0
H209 H 0.65855 0.48879 0.5449 0.0
H210 H 0.9015 0.66969 0.40483 0.0
H211 H 0.87117 0.63532 -0.0076 0.0
H212 H 0.64793 0.52353 0.30404 0.0
H213 H 0.67693 0.59533 0.6222 0.0
H214 H 0.88467 0.57886 0.15345 0.0
H215 H 0.89625 0.59 0.59287 0.0
Cd216 Cd 0.49132 0.27626 0.35465 0.0
Cd217 Cd 0.39376 0.18053 0.2504 0.0
C218 C 0.51672 0.22727 0.30919 0.0
N219 N 0.52054 0.25065 0.39813 0.0
C220 C 0.56727 0.2529 0.49178 0.0
C221 C 0.5652 0.23048 0.39414 0.0
C222 C 0.53839 0.21616 0.30787 0.0
C223 C 0.54445 0.26263 0.49235 0.0
H224 H 0.49795 0.21855 0.23366 0.0
H225 H 0.54725 0.28131 0.56184 0.0
C226 C 0.43054 0.20559 0.51705 0.0
C227 C 0.37104 0.22485 0.41742 0.0
C228 C 0.35425 0.24132 0.43233 0.0
C229 C 0.3429 0.24938 0.31545 0.0
C230 C 0.35031 0.24206 0.18565 0.0
C231 C 0.36744 0.22596 0.17553 0.0
N232 N 0.37668 0.21704 0.29032 0.0
H233 H 0.37796 0.2169 0.50745 0.0
H234 H 0.37168 0.21875 0.07615 0.0
C235 C 0.39134 0.11316 0.21974 0.0
N236 N 0.41162 0.14369 0.26188 0.0
C237 C 0.44931 0.12893 0.33897 0.0
C238 C 0.42834 0.09706 0.30012 0.0
C239 C 0.3993 0.08937 0.23751 0.0
C240 C 0.44037 0.152 0.31884 0.0
H241 H 0.36848 0.10689 0.1761 0.0
H242 H 0.45573 0.17616 0.35391 0.0
C243 C 0.46542 0.24157 0.0727 0.0
C244 C 0.53963 0.33775 0.44431 0.0
N245 N 0.45188 0.28989 0.37925 0.0
C246 C 0.4372 0.29355 0.26802 0.0
C247 C 0.41756 0.30703 0.28268 0.0
C248 C 0.41329 0.31693 0.41297 0.0
C249 C 0.42795 0.31161 0.52594 0.0
C250 C 0.44728 0.29822 0.50663 0.0
C251 C 0.33449 0.13611 0.1287 0.0
O252 O 0.44423 0.22516 0.41988 0.0
O253 O 0.40391 0.18058 0.49264 0.0
O254 O 0.44446 0.22561 0.16281 0.0
O255 O 0.48991 0.26778 0.10804 0.0
O256 O 0.52278 0.31582 0.53015 0.0
O257 O 0.53359 0.33099 0.31787 0.0
O258 O 0.359 0.15306 0.05402 0.0
O259 O 0.33784 0.14096 0.25712 0.0
H260 H 0.44166 0.28712 0.16741 0.0
H261 H 0.46008 0.29633 0.59281 0.0
H262 H 0.58751 0.26452 0.56041 0.0
H263 H 0.53527 0.19802 0.23399 0.0
H264 H 0.3489 0.24638 0.53418 0.0
H265 H 0.34117 0.24673 0.09285 0.0
H266 H 0.47182 0.13567 0.38879 0.0
H267 H 0.38213 0.06491 0.20941 0.0
H268 H 0.40644 0.31017 0.19275 0.0
H269 H 0.42634 0.31966 0.62784 0.0
Cd270 Cd 0.7409 0.22869 0.25744 0.0
Cd271 Cd 0.82493 0.20758 0.14574 0.0
C272 C 0.75071 0.2971 0.22779 0.0
N273 N 0.76958 0.28495 0.26446 0.0
C274 C 0.81255 0.33749 0.31893 0.0
C275 C 0.79273 0.35012 0.28807 0.0
C276 C 0.76185 0.32972 0.23855 0.0
C277 C 0.80055 0.3045 0.30376 0.0
H278 H 0.72656 0.28125 0.19337 0.0
H279 H 0.81539 0.29441 0.32997 0.0
C280 C 0.80547 0.22359 0.42334 0.0
C281 C 0.78487 0.13673 0.25077 0.0
C282 C 0.76672 0.10352 0.23813 0.0
C283 C 0.745 0.09012 0.12927 0.0
C284 C 0.73852 0.11028 0.04924 0.0
C285 C 0.75775 0.14339 0.06344 0.0
N286 N 0.78146 0.15579 0.15855 0.0
H287 H 0.804 0.14727 0.32499 0.0
H288 H 0.75526 0.15878 -0.00902 0.0
C289 C 0.89267 0.27007 0.1356 0.0
N290 N 0.86146 0.26203 0.12567 0.0
C291 C 0.87612 0.31727 0.11924 0.0
C292 C 0.90847 0.32616 0.13409 0.0
C293 C 0.9167 0.30214 0.13926 0.0
C294 C 0.85281 0.28476 0.11399 0.0
H295 H 0.89883 0.25151 0.14612 0.0
H296 H 0.82784 0.27772 0.1057 0.0
C297 C 0.76838 0.22256 0.98292 0.0
C298 C 0.68037 0.22246 0.30998 0.0
N299 N 0.71966 0.17575 0.32671 0.0
C300 C 0.70352 0.1527 0.23109 0.0
C301 C 0.68359 0.12089 0.27095 0.0
C302 C 0.68028 0.11288 0.41072 0.0
C303 C 0.69911 0.13685 0.50588 0.0
C304 C 0.71827 0.16838 0.46168 0.0
C305 C 0.86622 0.1882 0.0244 0.0
O306 O 0.78814 0.22459 0.32868 0.0
O307 O 0.827 0.21689 0.391 0.0
O308 O 0.78218 0.21702 0.07899 0.0
O309 O 0.74525 0.22677 0.01302 0.0
O310 O 0.70061 0.23012 0.40662 0.0
O311 O 0.68845 0.21719 0.19277 0.0
O312 O 0.85356 0.20077 0.9521 0.0
O313 O 0.85919 0.18432 0.15125 0.0
H314 H 0.70431 0.15944 0.12493 0.0
H315 H 0.72997 0.18717 0.53635 0.0
H316 H 0.83664 0.35279 0.35642 0.0
H317 H 0.746 0.33879 0.21354 0.0
H318 H 0.77246 0.08884 0.30239 0.0
H319 H 0.72136 0.10071 0.96649 0.0
H320 H 0.86892 0.33522 0.11628 0.0
H321 H 0.94128 0.30803 0.15418 0.0
H322 H 0.66894 0.10343 0.19434 0.0
H323 H 0.69712 0.13173 0.61462 0.0
Cd324 Cd 0.45349 0.85187 0.72714 0.0
Cd325 Cd 0.43942 0.93723 0.62075 0.0
C326 C 0.38773 0.79772 0.61576 0.0
N327 N 0.39814 0.82113 0.71229 0.0
C328 C 0.34452 0.80176 0.79111 0.0
C329 C 0.33328 0.77706 0.69307 0.0
C330 C 0.3553 0.77552 0.60364 0.0
C331 C 0.37742 0.82373 0.79924 0.0
H332 H 0.40482 0.79569 0.55069 0.0
H333 H 0.38649 0.84225 0.8769 0.0
C334 C 0.44879 0.91615 0.90431 0.0
C335 C 0.5144 0.97218 0.6973 0.0
C336 C 0.54732 0.99163 0.67823 0.0
C337 C 0.55982 9e-05 0.54502 0.0
C338 C 0.53891 0.98712 0.43332 0.0
C339 C 0.50608 0.96769 0.45712 0.0
N340 N 0.4945 0.96114 0.5875 0.0
H341 H 0.50473 0.9673 0.79994 0.0
H342 H 0.48966 0.95916 0.3718 0.0
C343 C 0.37081 0.8933 0.76017 0.0
N344 N 0.38404 0.9045 0.63488 0.0
C345 C 0.3327 0.88926 0.5416 0.0
C346 C 0.31902 0.88078 0.67321 0.0
C347 C 0.33826 0.88139 0.78187 0.0
C348 C 0.36562 0.90186 0.52526 0.0
H349 H 0.38575 0.89573 0.84608 0.0
H350 H 0.37671 0.91149 0.42717 0.0
C351 C 0.44489 0.87511 0.4548 0.0
C352 C 0.46198 0.80214 0.83203 0.0
N353 N 0.50764 0.8886 0.71298 0.0
C354 C 0.52089 0.90902 0.60552 0.0
C355 C 0.55404 0.9262 0.58782 0.0
C356 C 0.57345 0.92296 0.68467 0.0
C357 C 0.55919 0.90288 0.79815 0.0
C358 C 0.52603 0.88534 0.80867 0.0
C359 C 0.43853 0.98954 0.4984 0.0
O360 O 0.44986 0.8982 0.812 0.0
O361 O 0.44434 0.93891 0.86909 0.0
O362 O 0.44142 0.88954 0.55579 0.0
O363 O 0.45075 0.8528 0.47898 0.0
O364 O 0.45415 0.81783 0.91362 0.0
O365 O 0.46592 0.81032 0.70698 0.0
O366 O 0.4354 0.96627 0.42476 0.0
O367 O 0.44154 0.98764 0.62676 0.0
H368 H 0.50583 0.91093 0.53032 0.0
H369 H 0.51487 0.86806 0.89017 0.0
H370 H 0.32816 0.80373 0.86146 0.0
H371 H 0.34762 0.75655 0.52823 0.0
H372 H 0.5627 0.00129 0.76682 0.0
H373 H 0.54753 0.99364 0.32911 0.0
H374 H 0.31857 0.88814 0.45382 0.0
H375 H 0.32892 0.87519 0.88525 0.0
H376 H 0.56429 0.94068 0.497 0.0
H377 H 0.57343 0.89888 0.8723 0.0
Cd378 Cd 0.15305 0.60418 0.57719 0.0
Cd379 Cd 0.05887 0.50062 0.47955 0.0
C380 C 0.20812 0.58833 0.57056 0.0
N381 N 0.17844 0.57521 0.62709 0.0
C382 C 0.18567 0.53553 0.74154 0.0
C383 C 0.21687 0.54952 0.68862 0.0
C384 C 0.22781 0.57576 0.59969 0.0
C385 C 0.16661 0.54877 0.70831 0.0
H386 H 0.2168 0.60921 0.50558 0.0
H387 H 0.14285 0.53847 0.75043 0.0
C388 C 0.08311 0.54192 0.73846 0.0
C389 C -0.00167 0.5113 0.51256 0.0
C390 C 0.98 0.52584 0.49332 0.0
C391 C 0.99498 0.5581 0.45323 0.0
C392 C 0.02835 0.57576 0.44345 0.0
C393 C 0.0458 0.56026 0.46497 0.0
N394 N 0.0305 0.52828 0.49224 0.0
H395 H 0.98661 0.48616 0.53784 0.0
H396 H 0.07129 0.57307 0.44901 0.0
C397 C 0.09294 0.47426 0.6972 0.0
N398 N 0.08269 0.47179 0.56571 0.0
C399 C 0.08969 0.42654 0.52775 0.0
C400 C 0.09954 0.42805 0.66407 0.0
C401 C 0.10195 0.45292 0.74779 0.0
C402 C 0.08163 0.4489 0.48034 0.0
H403 H 0.09302 0.49181 0.76576 0.0
H404 H 0.07293 0.44694 0.37697 0.0
C405 C 0.12249 0.56887 0.297 0.0
C406 C 0.20814 0.6642 0.63137 0.0
N407 N 0.12176 0.62675 0.63602 0.0
C408 C 0.10864 0.63485 0.53186 0.0
C409 C 0.09401 0.65305 0.55751 0.0
C410 C 0.09403 0.66399 0.69095 0.0
C411 C 0.10677 0.65433 0.79726 0.0
C412 C 0.12088 0.63588 0.76715 0.0
C413 C 0.01 0.44722 0.33479 0.0
O414 O 0.1019 0.5566 0.63994 0.0
O415 O 0.05852 0.51486 0.71464 0.0
O416 O 0.10637 0.5491 0.39053 0.0
O417 O 0.14694 0.59521 0.33098 0.0
O418 O 0.1934 0.64433 0.72785 0.0
O419 O 0.19699 0.65575 0.51084 0.0
O420 O 0.03535 0.46741 0.27215 0.0
O421 O 0.00827 0.45187 0.46169 0.0
H422 H 0.11077 0.62835 0.42777 0.0
H423 H 0.13303 0.63082 0.84708 0.0
H424 H 0.1764 0.51505 0.80947 0.0
H425 H 0.25185 0.58726 0.55759 0.0
H426 H 0.95421 0.51166 0.50387 0.0
H427 H 0.04051 0.60057 0.41118 0.0
H428 H 0.08657 0.40733 0.46024 0.0
H429 H 0.10958 0.45516 0.85339 0.0
H430 H 0.08437 0.65995 0.47279 0.0
H431 H 0.108 0.66296 0.90095 0.0
Cd432 Cd 0.3898 0.55505 0.87288 0.0
Cd433 Cd 0.47982 0.53565 0.74801 0.0
C434 C 0.44568 0.62934 0.91662 0.0
N435 N 0.4133 0.61012 0.91506 0.0
C436 C 0.40595 0.6552 0.94179 0.0
C437 C 0.4392 0.67571 0.93962 0.0
C438 C 0.45928 0.66252 0.92946 0.0
C439 C 0.39344 0.62234 0.92797 0.0
H440 H 0.46084 0.61893 0.90476 0.0
H441 H 0.36783 0.60672 0.92363 0.0
C442 C 0.45341 0.54678 0.0282 0.0
C443 C 0.44524 0.45979 0.75726 0.0
C444 C 0.42726 0.42791 0.71529 0.0
C445 C 0.40413 0.41953 0.61259 0.0
C446 C 0.39746 0.44278 0.56412 0.0
C447 C 0.41579 0.47428 0.60992 0.0
N448 N 0.44012 0.48247 0.70035 0.0
H449 H 0.4647 0.46685 0.82876 0.0
H450 H 0.41118 0.49208 0.56795 0.0
C451 C 0.51412 0.6106 0.80443 0.0
N452 N 0.50705 0.5903 0.69661 0.0
C453 C 0.53775 0.63438 0.54572 0.0
C454 C 0.54627 0.65585 0.65621 0.0
C455 C 0.53387 0.64351 0.78677 0.0
C456 C 0.51839 0.6015 0.56867 0.0
H457 H 0.50568 0.60114 0.90578 0.0
H458 H 0.51367 0.585 0.48527 0.0
C459 C 0.42431 0.5531 0.59571 0.0
C460 C 0.32516 0.53739 0.8356 0.0
N461 N 0.37389 0.5067 0.98552 0.0
C462 C 0.37987 0.48575 0.91654 0.0
C463 C 0.36589 0.45395 0.95834 0.0
C464 C 0.3445 0.44338 0.06949 0.0
C465 C 0.34058 0.46605 0.14531 0.0
C466 C 0.35553 0.49782 0.10082 0.0
C467 C 0.53251 0.53027 0.65227 0.0
O468 O 0.43702 0.54924 0.93313 0.0
O469 O 0.47498 0.54006 -0.00438 0.0
O470 O 0.43869 0.54729 0.6879 0.0
O471 O 0.40142 0.55725 0.63105 0.0
O472 O 0.33846 0.54698 0.95211 0.0
O473 O 0.34191 0.53504 0.73991 0.0
O474 O 0.51221 0.53053 0.57072 0.0
O475 O 0.52753 0.53139 0.78001 0.0
H476 H 0.39386 0.49338 0.82373 0.0
H477 H 0.35045 0.51468 0.15215 0.0
H478 H 0.38977 0.66461 0.94675 0.0
H479 H 0.48505 0.67774 0.92734 0.0
H480 H 0.43333 0.41059 0.75386 0.0
H481 H 0.37981 0.43713 0.48494 0.0
H482 H 0.54698 0.64278 0.44361 0.0
H483 H 0.54075 0.65881 0.87632 0.0
H484 H 0.36937 0.43719 0.89672 0.0
H485 H 0.32365 0.45876 0.22948 0.0
C486 C 0.2642 0.24365 0.39865 0.0
C487 C 0.26142 0.26187 0.29318 0.0
C488 C 0.29234 0.24251 0.41531 0.0
C489 C 0.31875 0.25972 0.32754 0.0
H490 H 0.24349 0.22754 0.45955 0.0
H491 H 0.29208 0.22552 0.48833 0.0
S492 S 0.3266 0.31842 0.06343 0.0
N493 N 0.28928 0.30243 0.11864 0.0
N494 N 0.34283 0.30123 0.15307 0.0
C495 C 0.31774 0.28145 0.2346 0.0
C496 C 0.28887 0.28227 0.21648 0.0
C497 C 0.72811 0.03271 0.1723 0.0
C498 C 0.73699 0.05794 0.07885 0.0
C499 C 0.73143 0.00628 0.13844 0.0
C500 C 0.74386 0.00426 0.01021 0.0
H501 H 0.72089 0.03461 0.27563 0.0
H502 H 0.72622 0.98832 0.21625 0.0
S503 S 0.76646 0.06195 0.72283 0.0
N504 N 0.75514 0.0774 0.84707 0.0
N505 N 0.76168 0.02802 0.78443 0.0
C506 C 0.7498 0.02776 0.91139 0.0
C507 C 0.74623 0.05453 0.94547 0.0
C508 C 0.98031 0.71221 0.1797 0.0
C509 C 0.98267 0.73637 0.0914 0.0
C510 C 0.95077 0.68438 0.20448 0.0
C511 C 0.92269 0.67966 0.14062 0.0
H512 H 0.00105 0.71576 0.23657 0.0
H513 H 0.94954 0.66731 0.27955 0.0
S514 S 0.91611 0.73449 0.89423 0.0
N515 N 0.95437 0.75268 0.9347 0.0
N516 N 0.89933 0.70039 0.97947 0.0
C517 C 0.92514 0.70244 0.04448 0.0
C518 C 0.95504 0.73078 0.02005 0.0
C519 C 0.76875 0.73555 0.13964 0.0
C520 C 0.76591 0.73644 -0.00314 0.0
C521 C 0.77392 0.71241 0.20103 0.0
C522 C 0.77591 0.68905 0.12169 0.0
H523 H 0.76605 0.75236 0.20448 0.0
H524 H 0.77499 0.71204 0.31181 0.0
S525 S 0.77222 0.68271 0.74215 0.0
N526 N 0.76728 0.71353 0.77674 0.0
N527 N 0.77678 0.66963 0.89174 0.0
C528 C 0.77443 0.69055 0.97804 0.0
C529 C 0.76951 0.7144 0.9156 0.0
C530 C 0.25343 0.06103 0.12884 0.0
C531 C 0.25394 0.04596 0.00612 0.0
C532 C 0.27852 0.09158 0.16245 0.0
C533 C 0.30503 0.10828 0.07444 0.0
H534 H 0.23467 0.04827 0.20404 0.0
H535 H 0.27799 0.1013 0.26204 0.0
S536 S 0.31444 0.08188 0.72821 0.0
N537 N 0.2805 0.0518 0.78699 0.0
N538 N 0.3278 0.1094 0.84993 0.0
C539 C 0.30428 0.09479 0.94546 0.0
C540 C 0.27874 0.06353 0.91155 0.0
C541 C 0.9444 0.20873 0.8569 0.0
C542 C 0.95276 0.18841 0.92602 0.0
C543 C 0.91452 0.20627 0.87823 0.0
C544 C 0.89228 0.18368 0.97057 0.0
H545 H 0.96203 0.2286 0.79626 0.0
H546 H 0.91015 0.22413 0.83235 0.0
S547 S 0.89922 0.11948 0.14677 0.0
N548 N 0.93379 0.14061 0.06611 0.0
N549 N 0.87799 0.13675 0.11041 0.0
C550 C 0.89885 0.1609 0.0275 0.0
C551 C 0.92903 0.16304 0.00387 0.0
C552 C 0.92762 0.56267 0.28682 0.0
C553 C 0.92661 0.58732 0.36055 0.0
C554 C 0.95137 0.55499 0.31116 0.0
C555 C 0.9751 0.57169 0.40957 0.0
H556 H 0.90827 0.547 0.2193 0.0
H557 H 0.94997 0.53446 0.2588 0.0
S558 S 0.98803 0.64315 0.60521 0.0
N559 N 0.955 0.63228 0.517 0.0
N560 N -0.00018 0.6174 0.56376 0.0
C561 C 0.97679 0.59873 0.47231 0.0
C562 C 0.95245 0.60664 0.44751 0.0
C563 C 0.37988 0.36021 0.61013 0.0
C564 C 0.39307 0.38917 0.53759 0.0
C565 C 0.38163 0.33411 0.5571 0.0
C566 C 0.39796 0.33681 0.4331 0.0
H567 H 0.37101 0.35877 0.71362 0.0
H568 H 0.37354 0.31311 0.62114 0.0
S569 S 0.42815 0.40478 0.18833 0.0
N570 N 0.41555 0.4165 0.32204 0.0
N571 N 0.42072 0.36831 0.22549 0.0
C572 C 0.40662 0.36388 0.35062 0.0
C573 C 0.40389 0.39004 0.40292 0.0
C574 C 0.60358 0.05546 0.59404 0.0
C575 C 0.59318 0.02642 0.52375 0.0
C576 C 0.63275 0.08269 0.56201 0.0
C577 C 0.65287 0.08203 0.45869 0.0
H578 H 0.58821 0.05774 0.66908 0.0
H579 H 0.63857 0.10491 0.6133 0.0
S580 S 0.63909 0.0105 0.26027 0.0
N581 N 0.60673 0.9975 0.35703 0.0
N582 N 0.66214 0.04887 0.29771 0.0
C583 C 0.64377 0.05261 0.39371 0.0
C584 C 0.61381 0.02478 0.42596 0.0
C585 C 0.44153 0.06927 0.47964 0.0
C586 C 0.43444 0.07119 0.34194 0.0
C587 C 0.44338 0.04304 0.5278 0.0
C588 C 0.43829 0.01767 0.44013 0.0
H589 H 0.44442 0.08758 0.55226 0.0
H590 H 0.44821 0.04244 0.63568 0.0
S591 S 0.4219 0.01277 0.06703 0.0
N592 N 0.42442 0.0468 0.11587 0.0
N593 N 0.42787 0.99717 0.20638 0.0
C594 C 0.43239 0.01986 0.30068 0.0
C595 C 0.43041 0.04667 0.25166 0.0
C596 C 0.95297 0.40406 0.32771 0.0
C597 C 0.98358 0.41899 0.26682 0.0
C598 C 0.92812 0.37507 0.27745 0.0
C599 C 0.93304 0.35969 0.16535 0.0
H600 H 0.94836 0.41438 0.41773 0.0
H601 H 0.90542 0.36373 0.33167 0.0
S602 S 0.00758 0.39039 0.95986 0.0
N603 N 0.01661 0.41769 0.08061 0.0
N604 N 0.96983 0.36268 0.98713 0.0
C605 C 0.96298 0.37513 0.09875 0.0
C606 C 0.98826 0.40496 0.14902 0.0
C607 C 0.58526 0.53392 0.69446 0.0
C608 C 0.56222 0.53182 0.60083 0.0
C609 C 0.6156 0.54049 0.65013 0.0
C610 C 0.62407 0.54515 0.51051 0.0
H611 H 0.58036 0.53176 0.80354 0.0
H612 H 0.63296 0.54301 0.72627 0.0
S613 S 0.57167 0.53941 0.22233 0.0
N614 N 0.54922 0.53245 0.36038 0.0
N615 N 0.60644 0.5453 0.27791 0.0
C616 C 0.60073 0.54131 0.41499 0.0
C617 C 0.56977 0.53456 0.45998 0.0
C618 C 0.61495 0.92045 0.5462 0.0
C619 C 0.60742 0.93434 0.65634 0.0
C620 C 0.6423 0.91748 0.55016 0.0
C621 C 0.6628 0.92844 0.66426 0.0
H622 H 0.59767 0.90816 0.46558 0.0
H623 H 0.64507 0.90308 0.47177 0.0
S624 S 0.65851 0.97604 0.95423 0.0
N625 N 0.62601 0.96602 0.86399 0.0
N626 N 0.67789 0.96099 0.87115 0.0
C627 C 0.65818 0.94716 0.76264 0.0
C628 C 0.63029 0.95003 0.75866 0.0
C629 C 0.06794 0.68827 0.83213 0.0
C630 C 0.08622 0.68966 0.71673 0.0
C631 C 0.06642 0.71527 0.87541 0.0
C632 C 0.0832 0.7446 0.8049 0.0
H633 H 0.05605 0.66662 0.89318 0.0
H634 H 0.05342 0.71369 0.96868 0.0
S635 S 0.13339 0.76027 0.49282 0.0
N636 N 0.12015 0.72227 0.52916 0.0
N637 N 0.11754 0.77287 0.61024 0.0
C638 C 0.09994 0.74565 0.68445 0.0
C639 C 0.10139 0.71821 0.64044 0.0
C640 C 0.27417 0.36409 0.97349 0.0
C641 C 0.26102 0.35044 0.10159 0.0
C642 C 0.30324 0.39272 0.96388 0.0
C643 C 0.32027 0.40895 0.08202 0.0
H644 H 0.26068 0.35425 0.88012 0.0
H645 H 0.31075 0.40362 0.86361 0.0
S646 S 0.30066 0.37872 0.43833 0.0
N647 N 0.27039 0.35166 0.34674 0.0
N648 N 0.32522 0.40621 0.32851 0.0
C649 C 0.3093 0.39377 0.20946 0.0
C650 C 0.27961 0.36435 0.21931 0.0
C651 C 0.0927 0.36409 0.91037 0.0
C652 C 0.10787 0.3498 0.84024 0.0
C653 C 0.09061 0.38952 0.8531 0.0
C654 C 0.10388 0.40207 0.7236 0.0
H655 H 0.08169 0.35519 0.00963 0.0
H656 H 0.07777 0.39891 0.90998 0.0
S657 S 0.14832 0.37472 0.50166 0.0
N658 N 0.1375 0.35077 0.63611 0.0
N659 N 0.13439 0.39931 0.52987 0.0
C660 C 0.11979 0.38848 0.65329 0.0
C661 C 0.12162 0.36223 0.71127 0.0
C662 C 0.62604 0.72917 0.57037 0.0
C663 C 0.62584 0.75298 0.65307 0.0
C664 C 0.59932 0.69824 0.56471 0.0
C665 C 0.57129 0.69014 0.64016 0.0
H666 H 0.64772 0.7337 0.51761 0.0
H667 H 0.60155 0.68009 0.50819 0.0
S668 S 0.55664 0.74599 0.84947 0.0
N669 N 0.59407 0.76787 0.79678 0.0
N670 N 0.54341 0.71007 0.78218 0.0
C671 C 0.56984 0.71469 0.71254 0.0
C672 C 0.59721 0.74603 0.71986 0.0
C673 C 0.26695 0.85338 0.8024 0.0
C674 C 0.28665 0.876 0.70328 0.0
C675 C 0.23968 0.85309 0.85434 0.0
C676 C 0.23068 0.87485 0.80651 0.0
H677 H 0.2734 0.83664 0.84447 0.0
H678 H 0.22601 0.83625 0.93486 0.0
S679 S 0.27267 0.93782 0.54354 0.0
N680 N 0.29445 0.92038 0.55769 0.0
N681 N 0.24227 0.91843 0.64998 0.0
C682 C 0.24884 0.89621 0.70155 0.0
C683 C 0.27703 0.89709 0.65094 0.0
C684 C 0.09748 0.04831 0.39755 0.0
C685 C 0.11446 0.03723 0.3184 0.0
C686 C 0.103 0.07961 0.38237 0.0
C687 C 0.12539 0.10068 0.28611 0.0
H688 H 0.07847 0.03206 0.46568 0.0
H689 H 0.08786 0.0864 0.43837 0.0
S690 S 0.17959 0.08512 0.06977 0.0
N691 N 0.15726 0.05116 0.15246 0.0
N692 N 0.16763 0.10989 0.12432 0.0
C693 C 0.14446 0.09086 0.21543 0.0
C694 C 0.13903 0.05913 0.23158 0.0
C695 C 0.93957 0.05718 0.12021 0.0
C696 C 0.9616 0.07517 0.01686 0.0
C697 C 0.91076 0.02945 0.08884 0.0
C698 C 0.90293 0.01854 0.95283 0.0
H699 H 0.94518 0.06399 0.22678 0.0
H700 H 0.89504 0.01593 0.17282 0.0
S701 S 0.95159 0.0588 0.64351 0.0
N702 N 0.97306 0.08153 0.77253 0.0
N703 N 0.91865 0.0294 0.71271 0.0
C704 C 0.924 0.03735 0.84756 0.0
C705 C 0.9534 0.0657 0.87979 0.0
C706 C 0.91605 0.85962 0.17863 0.0
C707 C 0.90483 0.86271 0.05 0.0
C708 C 0.94532 0.86035 0.19115 0.0
C709 C 0.96445 0.86424 0.07541 0.0
H710 H 0.90281 0.85814 0.27099 0.0
H711 H 0.95371 0.85952 0.29291 0.0
S712 S 0.94421 0.8695 0.71346 0.0
N713 N 0.91416 0.86734 0.8034 0.0
N714 N 0.96841 0.86754 0.82659 0.0
C715 C 0.95235 0.86486 0.94532 0.0
C716 C 0.92272 0.86435 0.93263 0.0
C717 C 0.80211 0.40272 0.20607 0.0
C718 C 0.80242 0.38389 0.31453 0.0
C719 C 0.80214 0.43128 0.23121 0.0
C720 C 0.80204 0.44184 0.36594 0.0
H721 H 0.79986 0.39429 0.10138 0.0
H722 H 0.80037 0.44417 0.14413 0.0
S723 S 0.80658 0.40262 0.68479 0.0
N724 N 0.80572 0.37887 0.5604 0.0
N725 N 0.80568 0.43271 0.60878 0.0
C726 C 0.80488 0.42442 0.47506 0.0
C727 C 0.80505 0.39534 0.44901 0.0
C728 C 0.61241 0.39664 0.64509 0.0
C729 C 0.62776 0.42269 0.55442 0.0
C730 C 0.58256 0.37008 0.61326 0.0
C731 C 0.56732 0.36847 0.48856 0.0
H732 H 0.62437 0.39605 0.73771 0.0
H733 H 0.57243 0.34983 0.68268 0.0
S734 S 0.59554 0.43224 0.22469 0.0
N735 N 0.624 0.44665 0.34144 0.0
N736 N 0.56796 0.39673 0.28167 0.0
C737 C 0.58129 0.39536 0.40193 0.0
C738 C 0.6115 0.42252 0.43498 0.0
C739 C 0.60924 0.2219 0.48219 0.0
C740 C 0.5928 0.22537 0.37087 0.0
C741 C 0.63724 0.22032 0.46194 0.0
C742 C 0.64968 0.22194 0.32958 0.0
H743 H 0.60064 0.22082 0.5859 0.0
H744 H 0.64938 0.21812 0.55069 0.0
S745 S 0.61655 0.23253 0.00413 0.0
N746 N 0.59191 0.2317 0.12386 0.0
N747 N 0.64365 0.22767 0.08565 0.0
C748 C 0.63321 0.22495 0.21733 0.0
C749 C 0.60501 0.22692 0.23798 0.0
C750 C 0.4476 0.75716 -0.00394 0.0
C751 C 0.46313 0.77336 0.87501 0.0
C752 C 0.44195 0.72616 0.0222 0.0
C753 C 0.45198 0.7106 0.92896 0.0
H754 H 0.43784 0.76752 0.06649 0.0
H755 H 0.42815 0.7136 0.11213 0.0
S756 S 0.49685 0.74408 0.60521 0.0
N757 N 0.49151 0.77285 0.66856 0.0
N758 N 0.48005 0.71439 0.71646 0.0
C759 C 0.46959 0.72745 0.81301 0.0
C760 C 0.47541 0.75893 0.78642 0.0
C761 C 0.25372 0.71552 0.54358 0.0
C762 C 0.23798 0.69515 0.65539 0.0
C763 C 0.28374 0.74308 0.55868 0.0
C764 C 0.29919 0.75152 0.68623 0.0
H765 H 0.24335 0.70962 0.4421 0.0
H766 H 0.29549 0.75734 0.46864 0.0
S767 S 0.26732 0.70806 0.01395 0.0
N768 N 0.23926 0.68673 0.90066 0.0
N769 N 0.29592 0.73854 0.92819 0.0
C770 C 0.28309 0.73245 0.80052 0.0
C771 C 0.25245 0.70424 0.78526 0.0
C772 C 0.28281 0.52944 0.66943 0.0
C773 C 0.29328 0.53331 0.80624 0.0
C774 C 0.25646 0.53244 0.63314 0.0
C775 C 0.23935 0.53896 0.73243 0.0
H776 H 0.29617 0.52601 0.58811 0.0
H777 H 0.2504 0.53125 0.52571 0.0
S778 S 0.25385 0.5466 0.10682 0.0
N779 N 0.28212 0.54046 0.04338 0.0
N780 N 0.23245 0.54603 0.97435 0.0
C781 C 0.24779 0.54023 0.87072 0.0
C782 C 0.27482 0.53741 0.90787 0.0
C783 C 0.12064 0.24524 0.6792 0.0
C784 C 0.10845 0.21331 0.72019 0.0
C785 C 0.11632 0.25252 0.54585 0.0
C786 C 0.09959 0.22799 0.45019 0.0
H787 H 0.13412 0.26475 0.74949 0.0
H788 H 0.12707 0.27748 0.51631 0.0
S789 S 0.05745 0.14058 0.51559 0.0
N790 N 0.0754 0.15699 0.66149 0.0
N791 N 0.06716 0.1707 0.4092 0.0
C792 C 0.08581 0.19595 0.49178 0.0
C793 C 0.0903 0.18857 0.62754 0.0
C794 C 0.78953 0.89665 0.2186 0.0
C795 C 0.76412 0.86673 0.1795 0.0
C796 C 0.79933 0.90309 0.35497 0.0
C797 C 0.78448 0.87922 0.45524 0.0
H798 H 0.8015 0.91526 0.14368 0.0
H799 H 0.81772 0.92716 0.38242 0.0
S800 S 0.7265 0.79324 0.39172 0.0
N801 N 0.73066 0.81073 0.24219 0.0
N802 N 0.74933 0.8223 0.49899 0.0
C803 C 0.76196 0.84797 0.41364 0.0
C804 C 0.75177 0.84172 0.2752 0.0
C805 C 0.14204 0.91218 0.66593 0.0
C806 C 0.11217 0.90783 0.70637 0.0
C807 C 0.14754 0.90659 0.53044 0.0
C808 C 0.1234 0.89677 0.43095 0.0
H809 H 0.16089 0.919 0.74027 0.0
H810 H 0.17075 0.90966 0.50421 0.0
S811 S 0.04172 0.88448 0.48632 0.0
N812 N 0.05889 0.89507 0.63707 0.0
N813 N 0.0691 0.88489 0.38334 0.0
C814 C 0.09397 0.89391 0.47005 0.0
C815 C 0.08844 0.89957 0.60743 0.0
C816 C 0.76014 0.58137 0.8338 0.0
C817 C 0.77138 0.56781 0.73583 0.0
C818 C 0.75317 0.56964 0.9677 0.0
C819 C 0.75783 0.54448 0.00869 0.0
H820 H 0.75682 0.60132 0.80741 0.0
H821 H 0.74485 0.58078 0.0406 0.0
S822 S 0.78368 0.49854 0.79035 0.0
N823 N 0.78372 0.52562 0.68753 0.0
N824 N 0.77189 0.50459 0.94025 0.0
C825 C 0.7673 0.52954 0.9106 0.0
C826 C 0.77394 0.5411 0.77393 0.0
C827 C 0.47528 0.25325 0.82492 0.0
C828 C 0.46085 0.23072 0.93038 0.0
C829 C 0.46727 0.24411 0.6888 0.0
C830 C 0.44397 0.21266 0.65501 0.0
H831 H 0.49168 0.27828 0.84762 0.0
H832 H 0.47826 0.26204 0.61019 0.0
S833 S 0.40949 0.1428 0.88809 0.0
N834 N 0.42975 0.17414 -0.01093 0.0
N835 N 0.41359 0.15737 0.73193 0.0
C836 C 0.43254 0.18921 0.75748 0.0
C837 C 0.44116 0.19827 0.89601 0.0
C838 C 0.80666 0.2111 0.66818 0.0
C839 C 0.79837 0.22624 0.56715 0.0
C840 C 0.79714 0.21035 0.80374 0.0
C841 C 0.77938 0.2249 0.84218 0.0
H842 H 0.81948 0.19871 0.64183 0.0
H843 H 0.80282 0.19743 0.87789 0.0
S844 S 0.75503 0.27092 0.62044 0.0
N845 N 0.773 0.25764 0.51723 0.0
N846 N 0.75658 0.25754 0.77351 0.0
C847 C 0.77236 0.24147 0.74413 0.0
C848 C 0.78163 0.24189 0.60608 0.0
C849 C 0.42236 0.89135 0.26646 0.0
C850 C 0.44704 0.887 0.31659 0.0
C851 C 0.42365 0.90221 0.13296 0.0
C852 C 0.44974 0.90894 0.04763 0.0
H853 H 0.40155 0.88524 0.32917 0.0
H854 H 0.40371 0.90426 0.0949 0.0
S855 S 0.52294 0.90712 0.14087 0.0
N856 N 0.4996 0.89324 0.27725 0.0
N857 N 0.50253 0.91486 0.02695 0.0
C858 C 0.47526 0.90626 0.09899 0.0
C859 C 0.47377 0.89486 0.23388 0.0
C860 C 0.13381 0.57832 0.04945 0.0
C861 C 0.11137 0.56371 0.15532 0.0
C862 C 0.12414 0.57307 0.91322 0.0
C863 C 0.09185 0.553 0.87907 0.0
H864 H 0.15908 0.59318 0.07166 0.0
H865 H 0.14227 0.58413 0.83455 0.0
S866 S 0.02298 0.51638 0.1182 0.0
N867 N 0.05495 0.53295 0.21699 0.0
N868 N 0.03686 0.52365 0.95991 0.0
C869 C 0.06892 0.5406 0.98363 0.0
C870 C 0.07871 0.54568 0.12231 0.0
C871 C 0.45306 0.54166 0.41258 0.0
C872 C 0.43275 0.55333 0.45182 0.0
C873 C 0.45987 0.53987 0.27522 0.0
C874 C 0.44647 0.54966 0.17245 0.0
H875 H 0.4634 0.53334 0.48834 0.0
H876 H 0.47535 0.53032 0.24986 0.0
S877 S 0.39347 0.58417 0.22441 0.0
N878 N 0.40071 0.57642 0.37967 0.0
N879 N 0.41313 0.57284 0.12123 0.0
C880 C 0.42671 0.56207 0.21133 0.0
C881 C 0.41991 0.56397 0.35111 0.0
loop_
_geom_bond_atom_site_label_1
_geom_bond_atom_site_label_2
_geom_bond_distance
_geom_bond_site_symmetry_2
_ccdc_geom_bond_type
Cd0 N3 2.334 1_556 S
Cd0 N29 2.304 . S
Cd0 O36 2.268 1_556 S
Cd0 O39 2.273 . S
Cd0 O40 2.417 1_556 S
Cd0 O41 2.330 . S
Cd1 N16 2.304 1_554 S
Cd1 N20 2.334 . S
Cd1 O37 2.273 . S
Cd1 O38 2.268 1_554 S
Cd1 O42 2.417 1_554 S
Cd1 O43 2.330 . S
C2 N3 1.332 1_556 S
C2 C6 1.381 . S
C2 H8 0.931 . S
N3 Cd0 2.334 1_554 S
N3 C2 1.332 1_554 S
N3 C7 1.328 . S
C4 C5 1.396 1_455 S
C4 C7 1.378 . S
C4 H46 0.931 . S
C5 C4 1.396 1_655 S
C5 C6 1.382 1_654 S
C6 C2 1.381 . S
C6 C5 1.382 1_456 S
C6 H47 0.937 . S
C7 N3 1.328 . S
C7 C4 1.378 . S
C7 H9 0.930 . S
H8 C2 0.931 . S
H9 C7 0.930 . S
C10 O36 1.238 . S
C10 O37 1.253 . S
C11 C12 1.379 . S
C11 N16 1.337 1_554 S
C11 H17 0.929 . S
C12 C11 1.379 . S
C12 C13 1.380 1_554 S
C12 H48 0.929 . S
C13 C12 1.380 1_556 S
C13 C14 1.399 . S
C14 C13 1.399 . S
C14 C15 1.376 . S
C14 H49 0.931 . S
C15 C14 1.376 . S
C15 N16 1.338 . S
C15 H18 0.930 . S
N16 Cd1 2.304 1_556 S
N16 C11 1.337 1_556 S
N16 C15 1.338 . S
H17 C11 0.929 . S
H18 C15 0.930 . S
C19 N20 1.332 . S
C19 C23 1.381 . S
C19 H25 0.931 . S
N20 Cd1 2.334 . S
N20 C19 1.332 . S
N20 C24 1.328 1_554 S
C21 C22 1.396 1_456 S
C21 C24 1.378 . S
C21 H50 0.922 1_455 S
C22 C21 1.396 1_654 S
C22 C23 1.382 1_655 S
C23 C19 1.381 . S
C23 C22 1.382 1_455 S
C23 H51 0.930 . S
C24 N20 1.328 1_556 S
C24 C21 1.378 . S
C24 H26 0.930 . S
H25 C19 0.931 . S
H26 C24 0.930 . S
C27 O38 1.238 . S
C27 O39 1.253 . S
C28 O40 1.239 . S
C28 O41 1.230 1_554 S
N29 Cd0 2.304 . S
N29 C30 1.337 . S
N29 C34 1.338 1_556 S
C30 N29 1.337 . S
C30 C31 1.379 . S
C30 H44 0.929 . S
C31 C30 1.379 . S
C31 C32 1.380 . S
C31 H52 0.929 . S
C32 C31 1.380 . S
C32 C33 1.399 1_556 S
C33 C32 1.399 1_554 S
C33 C34 1.376 . S
C33 H53 0.931 . S
C34 N29 1.338 1_554 S
C34 C33 1.376 . S
C34 H45 0.930 . S
C35 O42 1.239 . S
C35 O43 1.230 1_556 S
O36 Cd0 2.268 1_554 S
O36 C10 1.238 . S
O37 Cd1 2.273 . S
O37 C10 1.253 . S
O38 Cd1 2.268 1_556 S
O38 C27 1.238 . S
O39 Cd0 2.273 . S
O39 C27 1.253 . S
O40 Cd0 2.417 1_554 S
O40 C28 1.239 . S
O41 Cd0 2.330 . S
O41 C28 1.230 1_556 S
O42 Cd1 2.417 1_556 S
O42 C35 1.239 . S
O43 Cd1 2.330 . S
O43 C35 1.230 1_554 S
H44 C30 0.929 . S
H45 C34 0.930 . S
H46 C4 0.931 . S
H47 C6 0.937 . S
H48 C12 0.929 . S
H49 C14 0.931 . S
H50 C21 0.922 1_655 S
H51 C23 0.930 . S
H52 C31 0.929 . S
H53 C33 0.931 . S
Cd54 N57 2.334 1_556 S
Cd54 N83 2.304 . S
Cd54 O90 2.268 1_556 S
Cd54 O93 2.273 . S
Cd54 O94 2.417 1_556 S
Cd54 O95 2.330 . S
Cd55 N70 2.304 1_554 S
Cd55 N74 2.334 . S
Cd55 O91 2.273 . S
Cd55 O92 2.268 1_554 S
Cd55 O96 2.417 1_554 S
Cd55 O97 2.330 . S
C56 N57 1.332 1_556 S
C56 C60 1.381 . S
C56 H62 0.931 . S
N57 Cd54 2.334 1_554 S
N57 C56 1.332 1_554 S
N57 C61 1.328 . S
C58 C59 1.396 . S
C58 C61 1.378 . S
C58 H100 0.931 . S
C59 C58 1.396 . S
C59 C60 1.382 1_554 S
C60 C56 1.381 . S
C60 C59 1.382 1_556 S
C60 H101 0.930 . S
C61 N57 1.328 . S
C61 C58 1.378 . S
C61 H63 0.930 . S
H62 C56 0.931 . S
H63 C61 0.930 . S
C64 O90 1.238 . S
C64 O91 1.253 . S
C65 C66 1.379 . S
C65 N70 1.337 1_554 S
C65 H71 0.929 . S
C66 C65 1.379 . S
C66 C67 1.380 1_554 S
C66 H102 0.929 . S
C67 C66 1.380 1_556 S
C67 C68 1.399 . S
C68 C67 1.399 . S
C68 C69 1.376 . S
C68 H103 0.931 . S
C69 C68 1.376 . S
C69 N70 1.338 . S
C69 H72 0.930 . S
N70 Cd55 2.304 1_556 S
N70 C65 1.337 1_556 S
N70 C69 1.338 . S
H71 C65 0.929 . S
H72 C69 0.930 . S
C73 N74 1.332 . S
C73 C77 1.381 . S
C73 H79 0.931 . S
N74 Cd55 2.334 . S
N74 C73 1.332 . S
N74 C78 1.328 1_554 S
C75 C76 1.396 1_556 S
C75 C78 1.378 . S
C75 H104 0.931 . S
C76 C75 1.396 1_554 S
C76 C77 1.382 . S
C77 C73 1.381 . S
C77 C76 1.382 . S
C77 H105 0.930 . S
C78 N74 1.328 1_556 S
C78 C75 1.378 . S
C78 H80 0.930 . S
H79 C73 0.931 . S
H80 C78 0.930 . S
C81 O92 1.238 . S
C81 O93 1.253 . S
C82 O94 1.239 . S
C82 O95 1.230 1_554 S
N83 Cd54 2.304 . S
N83 C84 1.337 . S
N83 C88 1.338 1_556 S
C84 N83 1.337 . S
C84 C85 1.379 . S
C84 H98 0.929 . S
C85 C84 1.379 . S
C85 C86 1.380 . S
C85 H106 0.929 . S
C86 C85 1.380 . S
C86 C87 1.399 1_556 S
C87 C86 1.399 1_554 S
C87 C88 1.376 . S
C87 H107 0.931 . S
C88 N83 1.338 1_554 S
C88 C87 1.376 . S
C88 H99 0.930 . S
C89 O96 1.239 . S
C89 O97 1.230 1_556 S
O90 Cd54 2.268 1_554 S
O90 C64 1.238 . S
O91 Cd55 2.273 . S
O91 C64 1.253 . S
O92 Cd55 2.268 1_556 S
O92 C81 1.238 . S
O93 Cd54 2.273 . S
O93 C81 1.253 . S
O94 Cd54 2.417 1_554 S
O94 C82 1.239 . S
O95 Cd54 2.330 . S
O95 C82 1.230 1_556 S
O96 Cd55 2.417 1_556 S
O96 C89 1.239 . S
O97 Cd55 2.330 . S
O97 C89 1.230 1_554 S
H98 C84 0.929 . S
H99 C88 0.930 . S
H100 C58 0.931 . S
H101 C60 0.930 . S
H102 C66 0.929 . S
H103 C68 0.931 . S
H104 C75 0.931 . S
H105 C77 0.930 . S
H106 C85 0.929 . S
H107 C87 0.931 . S
Cd108 N111 2.334 1_556 S
Cd108 N137 2.304 . S
Cd108 O144 2.268 1_556 S
Cd108 O147 2.273 . S
Cd108 O148 2.417 1_556 S
Cd108 O149 2.330 . S
Cd109 N124 2.304 1_554 S
Cd109 N128 2.334 . S
Cd109 O145 2.273 . S
Cd109 O146 2.268 1_554 S
Cd109 O150 2.417 1_554 S
Cd109 O151 2.330 . S
C110 N111 1.332 1_556 S
C110 C114 1.381 . S
C110 H116 0.931 . S
N111 Cd108 2.334 1_554 S
N111 C110 1.332 1_554 S
N111 C115 1.328 . S
C112 C113 1.396 1_565 S
C112 C115 1.378 . S
C112 H154 0.931 . S
C113 C112 1.396 1_545 S
C113 C114 1.382 1_544 S
C114 C110 1.381 . S
C114 C113 1.382 1_566 S
C114 H155 0.943 . S
C115 N111 1.328 . S
C115 C112 1.378 . S
C115 H117 0.930 . S
H116 C110 0.931 . S
H117 C115 0.930 . S
C118 O144 1.238 . S
C118 O145 1.253 . S
C119 C120 1.379 . S
C119 N124 1.337 1_554 S
C119 H125 0.929 . S
C120 C119 1.379 . S
C120 C121 1.380 1_554 S
C120 H156 0.929 . S
C121 C120 1.380 1_556 S
C121 C122 1.399 . S
C122 C121 1.399 . S
C122 C123 1.376 . S
C122 H157 0.931 . S
C123 C122 1.376 . S
C123 N124 1.338 . S
C123 H126 0.930 . S
N124 Cd109 2.304 1_556 S
N124 C119 1.337 1_556 S
N124 C123 1.338 . S
H125 C119 0.929 . S
H126 C123 0.930 . S
C127 N128 1.332 . S
C127 C131 1.381 . S
C127 H133 0.931 . S
N128 Cd109 2.334 . S
N128 C127 1.332 . S
N128 C132 1.328 1_554 S
C129 C130 1.396 1_566 S
C129 C132 1.378 . S
C129 H158 0.914 1_565 S
C130 C129 1.396 1_544 S
C130 C131 1.382 1_545 S
C131 C127 1.381 . S
C131 C130 1.382 1_565 S
C131 H159 0.930 . S
C132 N128 1.328 1_556 S
C132 C129 1.378 . S
C132 H134 0.930 . S
H133 C127 0.931 . S
H134 C132 0.930 . S
C135 O146 1.238 . S
C135 O147 1.253 . S
C136 O148 1.239 . S
C136 O149 1.230 1_554 S
N137 Cd108 2.304 . S
N137 C138 1.337 . S
N137 C142 1.338 1_556 S
C138 N137 1.337 . S
C138 C139 1.379 . S
C138 H152 0.929 . S
C139 C138 1.379 . S
C139 C140 1.380 . S
C139 H160 0.929 . S
C140 C139 1.380 . S
C140 C141 1.399 1_556 S
C141 C140 1.399 1_554 S
C141 C142 1.376 . S
C141 H161 0.931 . S
C142 N137 1.338 1_554 S
C142 C141 1.376 . S
C142 H153 0.930 . S
C143 O150 1.239 . S
C143 O151 1.230 1_556 S
O144 Cd108 2.268 1_554 S
O144 C118 1.238 . S
O145 Cd109 2.273 . S
O145 C118 1.253 . S
O146 Cd109 2.268 1_556 S
O146 C135 1.238 . S
O147 Cd108 2.273 . S
O147 C135 1.253 . S
O148 Cd108 2.417 1_554 S
O148 C136 1.239 . S
O149 Cd108 2.330 . S
O149 C136 1.230 1_556 S
O150 Cd109 2.417 1_556 S
O150 C143 1.239 . S
O151 Cd109 2.330 . S
O151 C143 1.230 1_554 S
H152 C138 0.929 . S
H153 C142 0.930 . S
H154 C112 0.931 . S
H155 C114 0.943 . S
H156 C120 0.929 . S
H157 C122 0.931 . S
H158 C129 0.914 1_545 S
H159 C131 0.930 . S
H160 C139 0.929 . S
H161 C141 0.931 . S
Cd162 N165 2.334 . S
Cd162 N191 2.304 . S
Cd162 O198 2.268 . S
Cd162 O201 2.273 . S
Cd162 O202 2.417 . S
Cd162 O203 2.330 . S
Cd163 N178 2.304 . S
Cd163 N182 2.334 . S
Cd163 O199 2.273 . S
Cd163 O200 2.268 . S
Cd163 O204 2.417 . S
Cd163 O205 2.330 . S
C164 N165 1.332 . S
C164 C168 1.381 . S
C164 H170 0.931 . S
N165 Cd162 2.334 . S
N165 C164 1.332 . S
N165 C169 1.328 . S
C166 C167 1.396 . S
C166 C169 1.378 . S
C166 H208 0.931 . S
C167 C166 1.396 . S
C167 C168 1.382 . S
C168 C164 1.381 . S
C168 C167 1.382 . S
C168 H209 0.930 . S
C169 N165 1.328 . S
C169 C166 1.378 . S
C169 H171 0.930 . S
H170 C164 0.931 . S
H171 C169 0.930 . S
C172 O198 1.238 . S
C172 O199 1.253 . S
C173 C174 1.379 . S
C173 N178 1.337 . S
C173 H179 0.929 . S
C174 C173 1.379 . S
C174 C175 1.380 . S
C174 H210 0.929 . S
C175 C174 1.380 . S
C175 C176 1.399 . S
C176 C175 1.399 . S
C176 C177 1.376 . S
C176 H211 0.931 . S
C177 C176 1.376 . S
C177 N178 1.338 . S
C177 H180 0.930 . S
N178 Cd163 2.304 . S
N178 C173 1.337 . S
N178 C177 1.338 . S
H179 C173 0.929 . S
H180 C177 0.930 . S
C181 N182 1.332 . S
C181 C185 1.381 . S
C181 H187 0.931 . S
N182 Cd163 2.334 . S
N182 C181 1.332 . S
N182 C186 1.328 . S
C183 C184 1.396 . S
C183 C186 1.378 . S
C183 H212 0.931 . S
C184 C183 1.396 . S
C184 C185 1.382 . S
C185 C181 1.381 . S
C185 C184 1.382 . S
C185 H213 0.930 . S
C186 N182 1.328 . S
C186 C183 1.378 . S
C186 H188 0.930 . S
H187 C181 0.931 . S
H188 C186 0.930 . S
C189 O200 1.238 . S
C189 O201 1.253 . S
C190 O202 1.239 . S
C190 O203 1.230 . S
N191 Cd162 2.304 . S
N191 C192 1.337 . S
N191 C196 1.338 . S
C192 N191 1.337 . S
C192 C193 1.379 . S
C192 H206 0.929 . S
C193 C192 1.379 . S
C193 C194 1.380 . S
C193 H214 0.929 . S
C194 C193 1.380 . S
C194 C195 1.399 . S
C195 C194 1.399 . S
C195 C196 1.376 . S
C195 H215 0.931 . S
C196 N191 1.338 . S
C196 C195 1.376 . S
C196 H207 0.930 . S
C197 O204 1.239 . S
C197 O205 1.230 . S
O198 Cd162 2.268 . S
O198 C172 1.238 . S
O199 Cd163 2.273 . S
O199 C172 1.253 . S
O200 Cd163 2.268 . S
O200 C189 1.238 . S
O201 Cd162 2.273 . S
O201 C189 1.253 . S
O202 Cd162 2.417 . S
O202 C190 1.239 . S
O203 Cd162 2.330 . S
O203 C190 1.230 . S
O204 Cd163 2.417 . S
O204 C197 1.239 . S
O205 Cd163 2.330 . S
O205 C197 1.230 . S
H206 C192 0.929 . S
H207 C196 0.930 . S
H208 C166 0.931 . S
H209 C168 0.930 . S
H210 C174 0.929 . S
H211 C176 0.931 . S
H212 C183 0.931 . S
H213 C185 0.930 . S
H214 C193 0.929 . S
H215 C195 0.931 . S
Cd216 N219 2.334 . S
Cd216 N245 2.304 . S
Cd216 O252 2.268 . S
Cd216 O255 2.273 . S
Cd216 O256 2.417 . S
Cd216 O257 2.330 . S
Cd217 N232 2.304 . S
Cd217 N236 2.334 . S
Cd217 O253 2.273 . S
Cd217 O254 2.268 . S
Cd217 O258 2.417 . S
Cd217 O259 2.330 . S
C218 N219 1.332 . S
C218 C222 1.381 . S
C218 H224 0.931 . S
N219 Cd216 2.334 . S
N219 C218 1.332 . S
N219 C223 1.328 . S
C220 C221 1.396 . S
C220 C223 1.378 . S
C220 H262 0.931 . S
C221 C220 1.396 . S
C221 C222 1.382 . S
C222 C218 1.381 . S
C222 C221 1.382 . S
C222 H263 0.930 . S
C223 N219 1.328 . S
C223 C220 1.378 . S
C223 H225 0.930 . S
H224 C218 0.931 . S
H225 C223 0.930 . S
C226 O252 1.238 . S
C226 O253 1.253 . S
C227 C228 1.379 . S
C227 N232 1.337 . S
C227 H233 0.929 . S
C228 C227 1.379 . S
C228 C229 1.380 . S
C228 H264 0.929 . S
C229 C228 1.380 . S
C229 C230 1.399 . S
C230 C229 1.399 . S
C230 C231 1.376 . S
C230 H265 0.931 . S
C231 C230 1.376 . S
C231 N232 1.338 . S
C231 H234 0.930 . S
N232 Cd217 2.304 . S
N232 C227 1.337 . S
N232 C231 1.338 . S
H233 C227 0.929 . S
H234 C231 0.930 . S
C235 N236 1.332 . S
C235 C239 1.381 . S
C235 H241 0.931 . S
N236 Cd217 2.334 . S
N236 C235 1.332 . S
N236 C240 1.328 . S
C237 C238 1.396 . S
C237 C240 1.378 . S
C237 H266 0.931 . S
C238 C237 1.396 . S
C238 C239 1.382 . S
C239 C235 1.381 . S
C239 C238 1.382 . S
C239 H267 0.930 . S
C240 N236 1.328 . S
C240 C237 1.378 . S
C240 H242 0.930 . S
H241 C235 0.931 . S
H242 C240 0.930 . S
C243 O254 1.238 . S
C243 O255 1.253 . S
C244 O256 1.239 . S
C244 O257 1.230 . S
N245 Cd216 2.304 . S
N245 C246 1.337 . S
N245 C250 1.338 . S
C246 N245 1.337 . S
C246 C247 1.379 . S
C246 H260 0.929 . S
C247 C246 1.379 . S
C247 C248 1.380 . S
C247 H268 0.929 . S
C248 C247 1.380 . S
C248 C249 1.399 . S
C249 C248 1.399 . S
C249 C250 1.376 . S
C249 H269 0.931 . S
C250 N245 1.338 . S
C250 C249 1.376 . S
C250 H261 0.930 . S
C251 O258 1.239 . S
C251 O259 1.230 . S
O252 Cd216 2.268 . S
O252 C226 1.238 . S
O253 Cd217 2.273 . S
O253 C226 1.253 . S
O254 Cd217 2.268 . S
O254 C243 1.238 . S
O255 Cd216 2.273 . S
O255 C243 1.253 . S
O256 Cd216 2.417 . S
O256 C244 1.239 . S
O257 Cd216 2.330 . S
O257 C244 1.230 . S
O258 Cd217 2.417 . S
O258 C251 1.239 . S
O259 Cd217 2.330 . S
O259 C251 1.230 . S
H260 C246 0.929 . S
H261 C250 0.930 . S
H262 C220 0.931 . S
H263 C222 0.930 . S
H264 C228 0.929 . S
H265 C230 0.931 . S
H266 C237 0.931 . S
H267 C239 0.930 . S
H268 C247 0.929 . S
H269 C249 0.931 . S
Cd270 N273 2.334 . S
Cd270 N299 2.304 . S
Cd270 O306 2.268 . S
Cd270 O309 2.273 . S
Cd270 O310 2.417 . S
Cd270 O311 2.330 . S
Cd271 N286 2.304 . S
Cd271 N290 2.334 . S
Cd271 O307 2.273 . S
Cd271 O308 2.268 . S
Cd271 O312 2.417 . S
Cd271 O313 2.330 . S
C272 N273 1.332 . S
C272 C276 1.381 . S
C272 H278 0.931 . S
N273 Cd270 2.334 . S
N273 C272 1.332 . S
N273 C277 1.328 . S
C274 C275 1.396 . S
C274 C277 1.378 . S
C274 H316 0.931 . S
C275 C274 1.396 . S
C275 C276 1.382 . S
C276 C272 1.381 . S
C276 C275 1.382 . S
C276 H317 0.930 . S
C277 N273 1.328 . S
C277 C274 1.378 . S
C277 H279 0.930 . S
H278 C272 0.931 . S
H279 C277 0.930 . S
C280 O306 1.238 . S
C280 O307 1.253 . S
C281 C282 1.379 . S
C281 N286 1.337 . S
C281 H287 0.929 . S
C282 C281 1.379 . S
C282 C283 1.380 . S
C282 H318 0.929 . S
C283 C282 1.380 . S
C283 C284 1.399 . S
C284 C283 1.399 . S
C284 C285 1.376 . S
C284 H319 0.931 . S
C285 C284 1.376 . S
C285 N286 1.338 . S
C285 H288 0.930 . S
N286 Cd271 2.304 . S
N286 C281 1.337 . S
N286 C285 1.338 . S
H287 C281 0.929 . S
H288 C285 0.930 . S
C289 N290 1.332 . S
C289 C293 1.381 . S
C289 H295 0.931 . S
N290 Cd271 2.334 . S
N290 C289 1.332 . S
N290 C294 1.328 . S
C291 C292 1.396 . S
C291 C294 1.378 . S
C291 H320 0.931 . S
C292 C291 1.396 . S
C292 C293 1.382 . S
C293 C289 1.381 . S
C293 C292 1.382 . S
C293 H321 0.930 . S
C294 N290 1.328 . S
C294 C291 1.378 . S
C294 H296 0.930 . S
H295 C289 0.931 . S
H296 C294 0.930 . S
C297 O308 1.238 . S
C297 O309 1.253 . S
C298 O310 1.239 . S
C298 O311 1.230 . S
N299 Cd270 2.304 . S
N299 C300 1.337 . S
N299 C304 1.338 . S
C300 N299 1.337 . S
C300 C301 1.379 . S
C300 H314 0.929 . S
C301 C300 1.379 . S
C301 C302 1.380 . S
C301 H322 0.929 . S
C302 C301 1.380 . S
C302 C303 1.399 . S
C303 C302 1.399 . S
C303 C304 1.376 . S
C303 H323 0.931 . S
C304 N299 1.338 . S
C304 C303 1.376 . S
C304 H315 0.930 . S
C305 O312 1.239 . S
C305 O313 1.230 . S
O306 Cd270 2.268 . S
O306 C280 1.238 . S
O307 Cd271 2.273 . S
O307 C280 1.253 . S
O308 Cd271 2.268 . S
O308 C297 1.238 . S
O309 Cd270 2.273 . S
O309 C297 1.253 . S
O310 Cd270 2.417 . S
O310 C298 1.239 . S
O311 Cd270 2.330 . S
O311 C298 1.230 . S
O312 Cd271 2.417 . S
O312 C305 1.239 . S
O313 Cd271 2.330 . S
O313 C305 1.230 . S
H314 C300 0.929 . S
H315 C304 0.930 . S
H316 C274 0.931 . S
H317 C276 0.930 . S
H318 C282 0.929 . S
H319 C284 0.931 . S
H320 C291 0.931 . S
H321 C293 0.930 . S
H322 C301 0.929 . S
H323 C303 0.931 . S
Cd324 N327 2.334 . S
Cd324 N353 2.304 . S
Cd324 O360 2.268 . S
Cd324 O363 2.273 . S
Cd324 O364 2.417 . S
Cd324 O365 2.330 . S
Cd325 N340 2.304 . S
Cd325 N344 2.334 . S
Cd325 O361 2.273 . S
Cd325 O362 2.268 . S
Cd325 O366 2.417 . S
Cd325 O367 2.330 . S
C326 N327 1.332 . S
C326 C330 1.381 . S
C326 H332 0.931 . S
N327 Cd324 2.334 . S
N327 C326 1.332 . S
N327 C331 1.328 . S
C328 C329 1.396 . S
C328 C331 1.378 . S
C328 H370 0.931 . S
C329 C328 1.396 . S
C329 C330 1.382 . S
C330 C326 1.381 . S
C330 C329 1.382 . S
C330 H371 0.930 . S
C331 N327 1.328 . S
C331 C328 1.378 . S
C331 H333 0.930 . S
H332 C326 0.931 . S
H333 C331 0.930 . S
C334 O360 1.238 . S
C334 O361 1.253 . S
C335 C336 1.379 . S
C335 N340 1.337 . S
C335 H341 0.929 . S
C336 C335 1.379 . S
C336 C337 1.380 . S
C336 H372 0.929 1_565 S
C337 C336 1.380 . S
C337 C338 1.399 . S
C338 C337 1.399 . S
C338 C339 1.376 . S
C338 H373 0.931 . S
C339 C338 1.376 . S
C339 N340 1.338 . S
C339 H342 0.930 . S
N340 Cd325 2.304 . S
N340 C335 1.337 . S
N340 C339 1.338 . S
H341 C335 0.929 . S
H342 C339 0.930 . S
C343 N344 1.332 . S
C343 C347 1.381 . S
C343 H349 0.931 . S
N344 Cd325 2.334 . S
N344 C343 1.332 . S
N344 C348 1.328 . S
C345 C346 1.396 . S
C345 C348 1.378 . S
C345 H374 0.931 . S
C346 C345 1.396 . S
C346 C347 1.382 . S
C347 C343 1.381 . S
C347 C346 1.382 . S
C347 H375 0.930 . S
C348 N344 1.328 . S
C348 C345 1.378 . S
C348 H350 0.930 . S
H349 C343 0.931 . S
H350 C348 0.930 . S
C351 O362 1.238 . S
C351 O363 1.253 . S
C352 O364 1.239 . S
C352 O365 1.230 . S
N353 Cd324 2.304 . S
N353 C354 1.337 . S
N353 C358 1.338 . S
C354 N353 1.337 . S
C354 C355 1.379 . S
C354 H368 0.929 . S
C355 C354 1.379 . S
C355 C356 1.380 . S
C355 H376 0.929 . S
C356 C355 1.380 . S
C356 C357 1.399 . S
C357 C356 1.399 . S
C357 C358 1.376 . S
C357 H377 0.931 . S
C358 N353 1.338 . S
C358 C357 1.376 . S
C358 H369 0.930 . S
C359 O366 1.239 . S
C359 O367 1.230 . S
O360 Cd324 2.268 . S
O360 C334 1.238 . S
O361 Cd325 2.273 . S
O361 C334 1.253 . S
O362 Cd325 2.268 . S
O362 C351 1.238 . S
O363 Cd324 2.273 . S
O363 C351 1.253 . S
O364 Cd324 2.417 . S
O364 C352 1.239 . S
O365 Cd324 2.330 . S
O365 C352 1.230 . S
O366 Cd325 2.417 . S
O366 C359 1.239 . S
O367 Cd325 2.330 . S
O367 C359 1.230 . S
H368 C354 0.929 . S
H369 C358 0.930 . S
H370 C328 0.931 . S
H371 C330 0.930 . S
H372 C336 0.929 1_545 S
H373 C338 0.931 . S
H374 C345 0.931 . S
H375 C347 0.930 . S
H376 C355 0.929 . S
H377 C357 0.931 . S
Cd378 N381 2.334 . S
Cd378 N407 2.304 . S
Cd378 O414 2.268 . S
Cd378 O417 2.273 . S
Cd378 O418 2.417 . S
Cd378 O419 2.330 . S
Cd379 N394 2.304 . S
Cd379 N398 2.334 . S
Cd379 O415 2.273 . S
Cd379 O416 2.268 . S
Cd379 O420 2.417 . S
Cd379 O421 2.330 . S
C380 N381 1.332 . S
C380 C384 1.381 . S
C380 H386 0.931 . S
N381 Cd378 2.334 . S
N381 C380 1.332 . S
N381 C385 1.328 . S
C382 C383 1.396 . S
C382 C385 1.378 . S
C382 H424 0.931 . S
C383 C382 1.396 . S
C383 C384 1.382 . S
C384 C380 1.381 . S
C384 C383 1.382 . S
C384 H425 0.930 . S
C385 N381 1.328 . S
C385 C382 1.378 . S
C385 H387 0.930 . S
H386 C380 0.931 . S
H387 C385 0.930 . S
C388 O414 1.238 . S
C388 O415 1.253 . S
C389 C390 1.379 . S
C389 N394 1.337 . S
C389 H395 0.929 . S
C390 C389 1.379 . S
C390 C391 1.380 . S
C390 H426 0.929 1_455 S
C391 C390 1.380 . S
C391 C392 1.399 . S
C392 C391 1.399 . S
C392 C393 1.376 . S
C392 H427 0.931 . S
C393 C392 1.376 . S
C393 N394 1.338 . S
C393 H396 0.930 . S
N394 Cd379 2.304 . S
N394 C389 1.337 . S
N394 C393 1.338 . S
H395 C389 0.929 . S
H396 C393 0.930 . S
C397 N398 1.332 . S
C397 C401 1.381 . S
C397 H403 0.931 . S
N398 Cd379 2.334 . S
N398 C397 1.332 . S
N398 C402 1.328 . S
C399 C400 1.396 . S
C399 C402 1.378 . S
C399 H428 0.931 . S
C400 C399 1.396 . S
C400 C401 1.382 . S
C401 C397 1.381 . S
C401 C400 1.382 . S
C401 H429 0.930 . S
C402 N398 1.328 . S
C402 C399 1.378 . S
C402 H404 0.930 . S
H403 C397 0.931 . S
H404 C402 0.930 . S
C405 O416 1.238 . S
C405 O417 1.253 . S
C406 O418 1.239 . S
C406 O419 1.230 . S
N407 Cd378 2.304 . S
N407 C408 1.337 . S
N407 C412 1.338 . S
C408 N407 1.337 . S
C408 C409 1.379 . S
C408 H422 0.929 . S
C409 C408 1.379 . S
C409 C410 1.380 . S
C409 H430 0.929 . S
C410 C409 1.380 . S
C410 C411 1.399 . S
C411 C410 1.399 . S
C411 C412 1.376 . S
C411 H431 0.931 . S
C412 N407 1.338 . S
C412 C411 1.376 . S
C412 H423 0.930 . S
C413 O420 1.239 . S
C413 O421 1.230 . S
O414 Cd378 2.268 . S
O414 C388 1.238 . S
O415 Cd379 2.273 . S
O415 C388 1.253 . S
O416 Cd379 2.268 . S
O416 C405 1.238 . S
O417 Cd378 2.273 . S
O417 C405 1.253 . S
O418 Cd378 2.417 . S
O418 C406 1.239 . S
O419 Cd378 2.330 . S
O419 C406 1.230 . S
O420 Cd379 2.417 . S
O420 C413 1.239 . S
O421 Cd379 2.330 . S
O421 C413 1.230 . S
H422 C408 0.929 . S
H423 C412 0.930 . S
H424 C382 0.931 . S
H425 C384 0.930 . S
H426 C390 0.929 1_655 S
H427 C392 0.931 . S
H428 C399 0.931 . S
H429 C401 0.930 . S
H430 C409 0.929 . S
H431 C411 0.931 . S
Cd432 N435 2.334 . S
Cd432 N461 2.304 . S
Cd432 O468 2.268 . S
Cd432 O471 2.273 . S
Cd432 O472 2.417 . S
Cd432 O473 2.330 . S
Cd433 N448 2.304 . S
Cd433 N452 2.334 . S
Cd433 O469 2.273 . S
Cd433 O470 2.268 . S
Cd433 O474 2.417 . S
Cd433 O475 2.330 . S
C434 N435 1.332 . S
C434 C438 1.381 . S
C434 H440 0.931 . S
N435 Cd432 2.334 . S
N435 C434 1.332 . S
N435 C439 1.328 . S
C436 C437 1.396 . S
C436 C439 1.378 . S
C436 H478 0.931 . S
C437 C436 1.396 . S
C437 C438 1.382 . S
C438 C434 1.381 . S
C438 C437 1.382 . S
C438 H479 0.930 . S
C439 N435 1.328 . S
C439 C436 1.378 . S
C439 H441 0.930 . S
H440 C434 0.931 . S
H441 C439 0.930 . S
C442 O468 1.238 . S
C442 O469 1.253 . S
C443 C444 1.379 . S
C443 N448 1.337 . S
C443 H449 0.929 . S
C444 C443 1.379 . S
C444 C445 1.380 . S
C444 H480 0.929 . S
C445 C444 1.380 . S
C445 C446 1.399 . S
C446 C445 1.399 . S
C446 C447 1.376 . S
C446 H481 0.931 . S
C447 C446 1.376 . S
C447 N448 1.338 . S
C447 H450 0.930 . S
N448 Cd433 2.304 . S
N448 C443 1.337 . S
N448 C447 1.338 . S
H449 C443 0.929 . S
H450 C447 0.930 . S
C451 N452 1.332 . S
C451 C455 1.381 . S
C451 H457 0.931 . S
N452 Cd433 2.334 . S
N452 C451 1.332 . S
N452 C456 1.328 . S
C453 C454 1.396 . S
C453 C456 1.378 . S
C453 H482 0.931 . S
C454 C453 1.396 . S
C454 C455 1.382 . S
C455 C451 1.381 . S
C455 C454 1.382 . S
C455 H483 0.930 . S
C456 N452 1.328 . S
C456 C453 1.378 . S
C456 H458 0.930 . S
H457 C451 0.931 . S
H458 C456 0.930 . S
C459 O470 1.238 . S
C459 O471 1.253 . S
C460 O472 1.239 . S
C460 O473 1.230 . S
N461 Cd432 2.304 . S
N461 C462 1.337 . S
N461 C466 1.338 . S
C462 N461 1.337 . S
C462 C463 1.379 . S
C462 H476 0.929 . S
C463 C462 1.379 . S
C463 C464 1.380 . S
C463 H484 0.929 . S
C464 C463 1.380 . S
C464 C465 1.399 . S
C465 C464 1.399 . S
C465 C466 1.376 . S
C465 H485 0.931 . S
C466 N461 1.338 . S
C466 C465 1.376 . S
C466 H477 0.930 . S
C467 O474 1.239 . S
C467 O475 1.230 . S
O468 Cd432 2.268 . S
O468 C442 1.238 . S
O469 Cd433 2.273 . S
O469 C442 1.253 . S
O470 Cd433 2.268 . S
O470 C459 1.238 . S
O471 Cd432 2.273 . S
O471 C459 1.253 . S
O472 Cd432 2.417 . S
O472 C460 1.239 . S
O473 Cd432 2.330 . S
O473 C460 1.230 . S
O474 Cd433 2.417 . S
O474 C467 1.239 . S
O475 Cd433 2.330 . S
O475 C467 1.230 . S
H476 C462 0.929 . S
H477 C466 0.930 . S
H478 C436 0.931 . S
H479 C438 0.930 . S
H480 C444 0.929 . S
H481 C446 0.931 . S
H482 C453 0.931 . S
H483 C455 0.930 . S
H484 C463 0.929 . S
H485 C465 0.931 . S
C486 C487 1.369 . S
C486 C488 1.419 . S
C486 H490 0.930 . S
C487 C486 1.369 . S
C487 C496 1.429 . S
C488 C486 1.419 . S
C488 C489 1.363 . S
C488 H491 0.929 . S
C489 C488 1.363 . S
C489 C495 1.428 . S
H490 C486 0.930 . S
H491 C488 0.929 . S
S492 N493 1.613 . S
S492 N494 1.610 . S
N493 S492 1.613 . S
N493 C496 1.350 . S
N494 S492 1.610 . S
N494 C495 1.351 . S
C495 C489 1.428 . S
C495 N494 1.351 . S
C495 C496 1.434 . S
C496 C487 1.429 . S
C496 N493 1.350 . S
C496 C495 1.434 . S
C497 C498 1.369 . S
C497 C499 1.419 . S
C497 H501 0.930 . S
C498 C497 1.369 . S
C498 C507 1.429 . S
C499 C497 1.419 . S
C499 C500 1.363 . S
C499 H502 0.929 1_545 S
C500 C499 1.363 . S
C500 C506 1.428 . S
H501 C497 0.930 . S
H502 C499 0.929 1_565 S
S503 N504 1.613 1_556 S
S503 N505 1.610 . S
N504 S503 1.613 1_554 S
N504 C507 1.350 . S
N505 S503 1.610 . S
N505 C506 1.351 1_556 S
C506 C500 1.428 . S
C506 N505 1.351 1_554 S
C506 C507 1.434 . S
C507 C498 1.429 . S
C507 N504 1.350 . S
C507 C506 1.434 . S
C508 C509 1.369 . S
C508 C510 1.419 . S
C508 H512 0.930 1_655 S
C509 C508 1.369 . S
C509 C518 1.429 . S
C510 C508 1.419 . S
C510 C511 1.363 . S
C510 H513 0.929 . S
C511 C510 1.363 . S
C511 C517 1.428 . S
H512 C508 0.930 1_455 S
H513 C510 0.929 . S
S514 N515 1.613 . S
S514 N516 1.610 . S
N515 S514 1.613 . S
N515 C518 1.350 . S
N516 S514 1.610 . S
N516 C517 1.351 . S
C517 C511 1.428 . S
C517 N516 1.351 . S
C517 C518 1.434 . S
C518 C509 1.429 . S
C518 N515 1.350 . S
C518 C517 1.434 . S
C519 C520 1.369 . S
C519 C521 1.419 . S
C519 H523 0.930 . S
C520 C519 1.369 . S
C520 C529 1.429 . S
C521 C519 1.419 . S
C521 C522 1.363 . S
C521 H524 0.929 . S
C522 C521 1.363 . S
C522 C528 1.428 . S
H523 C519 0.930 . S
H524 C521 0.929 . S
S525 N526 1.613 . S
S525 N527 1.610 1_556 S
N526 S525 1.613 . S
N526 C529 1.350 1_556 S
N527 S525 1.610 1_554 S
N527 C528 1.351 . S
C528 C522 1.428 . S
C528 N527 1.351 . S
C528 C529 1.434 . S
C529 C520 1.429 . S
C529 N526 1.350 1_554 S
C529 C528 1.434 . S
C530 C531 1.369 . S
C530 C532 1.419 . S
C530 H534 0.930 . S
C531 C530 1.369 . S
C531 C540 1.429 . S
C532 C530 1.419 . S
C532 C533 1.363 . S
C532 H535 0.929 . S
C533 C532 1.363 . S
C533 C539 1.428 . S
H534 C530 0.930 . S
H535 C532 0.929 . S
S536 N537 1.613 . S
S536 N538 1.610 . S
N537 S536 1.613 . S
N537 C540 1.350 . S
N538 S536 1.610 . S
N538 C539 1.351 . S
C539 C533 1.428 . S
C539 N538 1.351 . S
C539 C540 1.434 . S
C540 C531 1.429 . S
C540 N537 1.350 . S
C540 C539 1.434 . S
C541 C542 1.369 . S
C541 C543 1.419 . S
C541 H545 0.930 1_554 S
C542 C541 1.369 . S
C542 C551 1.429 . S
C543 C541 1.419 . S
C543 C544 1.363 . S
C543 H546 0.929 . S
C544 C543 1.363 . S
C544 C550 1.428 . S
H545 C541 0.930 1_556 S
H546 C543 0.929 . S
S547 N548 1.613 . S
S547 N549 1.610 . S
N548 S547 1.613 . S
N548 C551 1.350 . S
N549 S547 1.610 . S
N549 C550 1.351 . S
C550 C544 1.428 . S
C550 N549 1.351 . S
C550 C551 1.434 . S
C551 C542 1.429 . S
C551 N548 1.350 . S
C551 C550 1.434 . S
C552 C553 1.369 . S
C552 C554 1.419 . S
C552 H556 0.930 . S
C553 C552 1.369 . S
C553 C562 1.429 . S
C554 C552 1.419 . S
C554 C555 1.363 . S
C554 H557 0.929 . S
C555 C554 1.363 . S
C555 C561 1.428 . S
H556 C552 0.930 . S
H557 C554 0.929 . S
S558 N559 1.613 1_455 S
S558 N560 1.610 . S
N559 S558 1.613 1_655 S
N559 C562 1.350 . S
N560 S558 1.610 . S
N560 C561 1.351 1_455 S
C561 C555 1.428 . S
C561 N560 1.351 1_655 S
C561 C562 1.434 . S
C562 C553 1.429 . S
C562 N559 1.350 . S
C562 C561 1.434 . S
C563 C564 1.369 . S
C563 C565 1.419 . S
C563 H567 0.930 . S
C564 C563 1.369 . S
C564 C573 1.429 . S
C565 C563 1.419 . S
C565 C566 1.363 . S
C565 H568 0.929 . S
C566 C565 1.363 . S
C566 C572 1.428 . S
H567 C563 0.930 . S
H568 C565 0.929 . S
S569 N570 1.613 . S
S569 N571 1.610 . S
N570 S569 1.613 . S
N570 C573 1.350 . S
N571 S569 1.610 . S
N571 C572 1.351 . S
C572 C566 1.428 . S
C572 N571 1.351 . S
C572 C573 1.434 . S
C573 C564 1.429 . S
C573 N570 1.350 . S
C573 C572 1.434 . S
C574 C575 1.369 . S
C574 C576 1.419 . S
C574 H578 0.930 . S
C575 C574 1.369 . S
C575 C584 1.429 . S
C576 C574 1.419 . S
C576 C577 1.363 . S
C576 H579 0.929 . S
C577 C576 1.363 . S
C577 C583 1.428 . S
H578 C574 0.930 . S
H579 C576 0.929 . S
S580 N581 1.613 . S
S580 N582 1.610 1_565 S
N581 S580 1.613 . S
N581 C584 1.350 1_565 S
N582 S580 1.610 1_545 S
N582 C583 1.351 . S
C583 C577 1.428 . S
C583 N582 1.351 . S
C583 C584 1.434 . S
C584 C575 1.429 . S
C584 N581 1.350 1_545 S
C584 C583 1.434 . S
C585 C586 1.369 . S
C585 C587 1.419 . S
C585 H589 0.930 . S
C586 C585 1.369 . S
C586 C595 1.429 . S
C587 C585 1.419 . S
C587 C588 1.363 . S
C587 H590 0.929 . S
C588 C587 1.363 . S
C588 C594 1.428 . S
H589 C585 0.930 . S
H590 C587 0.929 . S
S591 N592 1.613 . S
S591 N593 1.610 . S
N592 S591 1.613 . S
N592 C595 1.350 . S
N593 S591 1.610 . S
N593 C594 1.351 . S
C594 C588 1.428 . S
C594 N593 1.351 . S
C594 C595 1.434 . S
C595 C586 1.429 . S
C595 N592 1.350 . S
C595 C594 1.434 . S
C596 C597 1.369 . S
C596 C598 1.419 . S
C596 H600 0.930 . S
C597 C596 1.369 . S
C597 C606 1.429 . S
C598 C596 1.419 . S
C598 C599 1.363 . S
C598 H601 0.929 . S
C599 C598 1.363 . S
C599 C605 1.428 . S
H600 C596 0.930 . S
H601 C598 0.929 . S
S602 N603 1.613 . S
S602 N604 1.610 . S
N603 S602 1.613 . S
N603 C606 1.350 . S
N604 S602 1.610 . S
N604 C605 1.351 . S
C605 C599 1.428 . S
C605 N604 1.351 . S
C605 C606 1.434 . S
C606 C597 1.429 . S
C606 N603 1.350 . S
C606 C605 1.434 . S
C607 C608 1.369 . S
C607 C609 1.419 . S
C607 H611 0.930 . S
C608 C607 1.369 . S
C608 C617 1.429 . S
C609 C607 1.419 . S
C609 C610 1.363 . S
C609 H612 0.929 . S
C610 C609 1.363 . S
C610 C616 1.428 . S
H611 C607 0.930 . S
H612 C609 0.929 . S
S613 N614 1.613 . S
S613 N615 1.610 . S
N614 S613 1.613 . S
N614 C617 1.350 . S
N615 S613 1.610 . S
N615 C616 1.351 . S
C616 C610 1.428 . S
C616 N615 1.351 . S
C616 C617 1.434 . S
C617 C608 1.429 . S
C617 N614 1.350 . S
C617 C616 1.434 . S
C618 C619 1.369 . S
C618 C620 1.419 . S
C618 H622 0.930 . S
C619 C618 1.369 . S
C619 C628 1.429 . S
C620 C618 1.419 . S
C620 C621 1.363 . S
C620 H623 0.929 . S
C621 C620 1.363 . S
C621 C627 1.428 . S
H622 C618 0.930 . S
H623 C620 0.929 . S
S624 N625 1.613 1_554 S
S624 N626 1.610 . S
N625 S624 1.613 1_556 S
N625 C628 1.350 . S
N626 S624 1.610 . S
N626 C627 1.351 1_554 S
C627 C621 1.428 . S
C627 N626 1.351 1_556 S
C627 C628 1.434 . S
C628 C619 1.429 . S
C628 N625 1.350 . S
C628 C627 1.434 . S
C629 C630 1.369 . S
C629 C631 1.419 . S
C629 H633 0.930 . S
C630 C629 1.369 . S
C630 C639 1.429 . S
C631 C629 1.419 . S
C631 C632 1.363 . S
C631 H634 0.929 1_556 S
C632 C631 1.363 . S
C632 C638 1.428 . S
H633 C629 0.930 . S
H634 C631 0.929 1_554 S
S635 N636 1.613 . S
S635 N637 1.610 . S
N636 S635 1.613 . S
N636 C639 1.350 . S
N637 S635 1.610 . S
N637 C638 1.351 . S
C638 C632 1.428 . S
C638 N637 1.351 . S
C638 C639 1.434 . S
C639 C630 1.429 . S
C639 N636 1.350 . S
C639 C638 1.434 . S
C640 C641 1.369 . S
C640 C642 1.419 . S
C640 H644 0.930 . S
C641 C640 1.369 . S
C641 C650 1.429 . S
C642 C640 1.419 . S
C642 C643 1.363 . S
C642 H645 0.929 . S
C643 C642 1.363 . S
C643 C649 1.428 . S
H644 C640 0.930 . S
H645 C642 0.929 . S
S646 N647 1.613 . S
S646 N648 1.610 1_554 S
N647 S646 1.613 . S
N647 C650 1.350 1_554 S
N648 S646 1.610 1_556 S
N648 C649 1.351 . S
C649 C643 1.428 . S
C649 N648 1.351 . S
C649 C650 1.434 . S
C650 C641 1.429 . S
C650 N647 1.350 1_556 S
C650 C649 1.434 . S
C651 C652 1.369 . S
C651 C653 1.419 . S
C651 H655 0.930 . S
C652 C651 1.369 . S
C652 C661 1.429 . S
C653 C651 1.419 . S
C653 C654 1.363 . S
C653 H656 0.929 . S
C654 C653 1.363 . S
C654 C660 1.428 . S
H655 C651 0.930 . S
H656 C653 0.929 . S
S657 N658 1.613 . S
S657 N659 1.610 . S
N658 S657 1.613 . S
N658 C661 1.350 . S
N659 S657 1.610 . S
N659 C660 1.351 . S
C660 C654 1.428 . S
C660 N659 1.351 . S
C660 C661 1.434 . S
C661 C652 1.429 . S
C661 N658 1.350 . S
C661 C660 1.434 . S
C662 C663 1.369 . S
C662 C664 1.419 . S
C662 H666 0.930 . S
C663 C662 1.369 . S
C663 C672 1.429 . S
C664 C662 1.419 . S
C664 C665 1.363 . S
C664 H667 0.929 . S
C665 C664 1.363 . S
C665 C671 1.428 . S
H666 C662 0.930 . S
H667 C664 0.929 . S
S668 N669 1.613 . S
S668 N670 1.610 1_554 S
N669 S668 1.613 . S
N669 C672 1.350 1_554 S
N670 S668 1.610 1_556 S
N670 C671 1.351 . S
C671 C665 1.428 . S
C671 N670 1.351 . S
C671 C672 1.434 . S
C672 C663 1.429 . S
C672 N669 1.350 1_556 S
C672 C671 1.434 . S
C673 C674 1.369 . S
C673 C675 1.419 . S
C673 H677 0.930 . S
C674 C673 1.369 . S
C674 C683 1.429 . S
C675 C673 1.419 . S
C675 C676 1.363 . S
C675 H678 0.929 . S
C676 C675 1.363 . S
C676 C682 1.428 . S
H677 C673 0.930 . S
H678 C675 0.929 . S
S679 N680 1.613 . S
S679 N681 1.610 . S
N680 S679 1.613 . S
N680 C683 1.350 . S
N681 S679 1.610 . S
N681 C682 1.351 . S
C682 C676 1.428 . S
C682 N681 1.351 . S
C682 C683 1.434 . S
C683 C674 1.429 . S
C683 N680 1.350 . S
C683 C682 1.434 . S
C684 C685 1.369 . S
C684 C686 1.419 . S
C684 H688 0.930 . S
C685 C684 1.369 . S
C685 C694 1.429 . S
C686 C684 1.419 . S
C686 C687 1.363 . S
C686 H689 0.929 . S
C687 C686 1.363 . S
C687 C693 1.428 . S
H688 C684 0.930 . S
H689 C686 0.929 . S
S690 N691 1.613 . S
S690 N692 1.610 . S
N691 S690 1.613 . S
N691 C694 1.350 . S
N692 S690 1.610 . S
N692 C693 1.351 . S
C693 C687 1.428 . S
C693 N692 1.351 . S
C693 C694 1.434 . S
C694 C685 1.429 . S
C694 N691 1.350 . S
C694 C693 1.434 . S
C695 C696 1.369 1_556 S
C695 C697 1.419 . S
C695 H699 0.930 . S
C696 C695 1.369 1_554 S
C696 C705 1.429 . S
C697 C695 1.419 . S
C697 C698 1.363 1_556 S
C697 H700 0.929 . S
C698 C697 1.363 1_554 S
C698 C704 1.428 . S
H699 C695 0.930 . S
H700 C697 0.929 . S
S701 N702 1.613 . S
S701 N703 1.610 . S
N702 S701 1.613 . S
N702 C705 1.350 . S
N703 S701 1.610 . S
N703 C704 1.351 . S
C704 C698 1.428 . S
C704 N703 1.351 . S
C704 C705 1.434 . S
C705 C696 1.429 . S
C705 N702 1.350 . S
C705 C704 1.434 . S
C706 C707 1.369 . S
C706 C708 1.419 . S
C706 H710 0.930 . S
C707 C706 1.369 . S
C707 C716 1.429 1_554 S
C708 C706 1.419 . S
C708 C709 1.363 . S
C708 H711 0.929 . S
C709 C708 1.363 . S
C709 C715 1.428 1_554 S
H710 C706 0.930 . S
H711 C708 0.929 . S
S712 N713 1.613 . S
S712 N714 1.610 . S
N713 S712 1.613 . S
N713 C716 1.350 . S
N714 S712 1.610 . S
N714 C715 1.351 . S
C715 C709 1.428 1_556 S
C715 N714 1.351 . S
C715 C716 1.434 . S
C716 C707 1.429 1_556 S
C716 N713 1.350 . S
C716 C715 1.434 . S
C717 C718 1.369 . S
C717 C719 1.419 . S
C717 H721 0.930 . S
C718 C717 1.369 . S
C718 C727 1.429 . S
C719 C717 1.419 . S
C719 C720 1.363 . S
C719 H722 0.929 . S
C720 C719 1.363 . S
C720 C726 1.428 . S
H721 C717 0.930 . S
H722 C719 0.929 . S
S723 N724 1.613 . S
S723 N725 1.610 . S
N724 S723 1.613 . S
N724 C727 1.350 . S
N725 S723 1.610 . S
N725 C726 1.351 . S
C726 C720 1.428 . S
C726 N725 1.351 . S
C726 C727 1.434 . S
C727 C718 1.429 . S
C727 N724 1.350 . S
C727 C726 1.434 . S
C728 C729 1.369 . S
C728 C730 1.419 . S
C728 H732 0.930 . S
C729 C728 1.369 . S
C729 C738 1.429 . S
C730 C728 1.419 . S
C730 C731 1.363 . S
C730 H733 0.929 . S
C731 C730 1.363 . S
C731 C737 1.428 . S
H732 C728 0.930 . S
H733 C730 0.929 . S
S734 N735 1.613 . S
S734 N736 1.610 . S
N735 S734 1.613 . S
N735 C738 1.350 . S
N736 S734 1.610 . S
N736 C737 1.351 . S
C737 C731 1.428 . S
C737 N736 1.351 . S
C737 C738 1.434 . S
C738 C729 1.429 . S
C738 N735 1.350 . S
C738 C737 1.434 . S
C739 C740 1.369 . S
C739 C741 1.419 . S
C739 H743 0.930 . S
C740 C739 1.369 . S
C740 C749 1.429 . S
C741 C739 1.419 . S
C741 C742 1.363 . S
C741 H744 0.929 . S
C742 C741 1.363 . S
C742 C748 1.428 . S
H743 C739 0.930 . S
H744 C741 0.929 . S
S745 N746 1.613 . S
S745 N747 1.610 . S
N746 S745 1.613 . S
N746 C749 1.350 . S
N747 S745 1.610 . S
N747 C748 1.351 . S
C748 C742 1.428 . S
C748 N747 1.351 . S
C748 C749 1.434 . S
C749 C740 1.429 . S
C749 N746 1.350 . S
C749 C748 1.434 . S
C750 C751 1.369 . S
C750 C752 1.419 . S
C750 H754 0.930 . S
C751 C750 1.369 . S
C751 C760 1.429 . S
C752 C750 1.419 . S
C752 C753 1.363 . S
C752 H755 0.929 . S
C753 C752 1.363 . S
C753 C759 1.428 . S
H754 C750 0.930 . S
H755 C752 0.929 . S
S756 N757 1.613 . S
S756 N758 1.610 . S
N757 S756 1.613 . S
N757 C760 1.350 . S
N758 S756 1.610 . S
N758 C759 1.351 . S
C759 C753 1.428 . S
C759 N758 1.351 . S
C759 C760 1.434 . S
C760 C751 1.429 . S
C760 N757 1.350 . S
C760 C759 1.434 . S
C761 C762 1.369 . S
C761 C763 1.419 . S
C761 H765 0.930 . S
C762 C761 1.369 . S
C762 C771 1.429 . S
C763 C761 1.419 . S
C763 C764 1.363 . S
C763 H766 0.929 . S
C764 C763 1.363 . S
C764 C770 1.428 . S
H765 C761 0.930 . S
H766 C763 0.929 . S
S767 N768 1.613 . S
S767 N769 1.610 . S
N768 S767 1.613 . S
N768 C771 1.350 . S
N769 S767 1.610 . S
N769 C770 1.351 . S
C770 C764 1.428 . S
C770 N769 1.351 . S
C770 C771 1.434 . S
C771 C762 1.429 . S
C771 N768 1.350 . S
C771 C770 1.434 . S
C772 C773 1.369 . S
C772 C774 1.419 . S
C772 H776 0.930 . S
C773 C772 1.369 . S
C773 C782 1.429 . S
C774 C772 1.419 . S
C774 C775 1.363 . S
C774 H777 0.929 . S
C775 C774 1.363 . S
C775 C781 1.428 . S
H776 C772 0.930 . S
H777 C774 0.929 . S
S778 N779 1.613 1_554 S
S778 N780 1.610 1_554 S
N779 S778 1.613 1_556 S
N779 C782 1.350 . S
N780 S778 1.610 1_556 S
N780 C781 1.351 . S
C781 C775 1.428 . S
C781 N780 1.351 . S
C781 C782 1.434 . S
C782 C773 1.429 . S
C782 N779 1.350 . S
C782 C781 1.434 . S
C783 C784 1.369 . S
C783 C785 1.419 . S
C783 H787 0.930 . S
C784 C783 1.369 . S
C784 C793 1.429 . S
C785 C783 1.419 . S
C785 C786 1.363 . S
C785 H788 0.929 . S
C786 C785 1.363 . S
C786 C792 1.428 . S
H787 C783 0.930 . S
H788 C785 0.929 . S
S789 N790 1.613 . S
S789 N791 1.610 . S
N790 S789 1.613 . S
N790 C793 1.350 . S
N791 S789 1.610 . S
N791 C792 1.351 . S
C792 C786 1.428 . S
C792 N791 1.351 . S
C792 C793 1.434 . S
C793 C784 1.429 . S
C793 N790 1.350 . S
C793 C792 1.434 . S
C794 C795 1.369 . S
C794 C796 1.419 . S
C794 H798 0.930 . S
C795 C794 1.369 . S
C795 C804 1.429 . S
C796 C794 1.419 . S
C796 C797 1.363 . S
C796 H799 0.929 . S
C797 C796 1.363 . S
C797 C803 1.428 . S
H798 C794 0.930 . S
H799 C796 0.929 . S
S800 N801 1.613 . S
S800 N802 1.610 . S
N801 S800 1.613 . S
N801 C804 1.350 . S
N802 S800 1.610 . S
N802 C803 1.351 . S
C803 C797 1.428 . S
C803 N802 1.351 . S
C803 C804 1.434 . S
C804 C795 1.429 . S
C804 N801 1.350 . S
C804 C803 1.434 . S
C805 C806 1.369 . S
C805 C807 1.419 . S
C805 H809 0.930 . S
C806 C805 1.369 . S
C806 C815 1.429 . S
C807 C805 1.419 . S
C807 C808 1.363 . S
C807 H810 0.929 . S
C808 C807 1.363 . S
C808 C814 1.428 . S
H809 C805 0.930 . S
H810 C807 0.929 . S
S811 N812 1.613 . S
S811 N813 1.610 . S
N812 S811 1.613 . S
N812 C815 1.350 . S
N813 S811 1.610 . S
N813 C814 1.351 . S
C814 C808 1.428 . S
C814 N813 1.351 . S
C814 C815 1.434 . S
C815 C806 1.429 . S
C815 N812 1.350 . S
C815 C814 1.434 . S
C816 C817 1.369 . S
C816 C818 1.419 . S
C816 H820 0.930 . S
C817 C816 1.369 . S
C817 C826 1.429 . S
C818 C816 1.419 . S
C818 C819 1.363 . S
C818 H821 0.929 . S
C819 C818 1.363 . S
C819 C825 1.428 . S
H820 C816 0.930 . S
H821 C818 0.929 . S
S822 N823 1.613 . S
S822 N824 1.610 . S
N823 S822 1.613 . S
N823 C826 1.350 . S
N824 S822 1.610 . S
N824 C825 1.351 . S
C825 C819 1.428 . S
C825 N824 1.351 . S
C825 C826 1.434 . S
C826 C817 1.429 . S
C826 N823 1.350 . S
C826 C825 1.434 . S
C827 C828 1.369 . S
C827 C829 1.419 . S
C827 H831 0.930 . S
C828 C827 1.369 . S
C828 C837 1.429 . S
C829 C827 1.419 . S
C829 C830 1.363 . S
C829 H832 0.929 . S
C830 C829 1.363 . S
C830 C836 1.428 . S
H831 C827 0.930 . S
H832 C829 0.929 . S
S833 N834 1.613 . S
S833 N835 1.610 . S
N834 S833 1.613 . S
N834 C837 1.350 . S
N835 S833 1.610 . S
N835 C836 1.351 . S
C836 C830 1.428 . S
C836 N835 1.351 . S
C836 C837 1.434 . S
C837 C828 1.429 . S
C837 N834 1.350 . S
C837 C836 1.434 . S
C838 C839 1.369 . S
C838 C840 1.419 . S
C838 H842 0.930 . S
C839 C838 1.369 . S
C839 C848 1.429 . S
C840 C838 1.419 . S
C840 C841 1.363 . S
C840 H843 0.929 . S
C841 C840 1.363 . S
C841 C847 1.428 . S
H842 C838 0.930 . S
H843 C840 0.929 . S
S844 N845 1.613 . S
S844 N846 1.610 . S
N845 S844 1.613 . S
N845 C848 1.350 . S
N846 S844 1.610 . S
N846 C847 1.351 . S
C847 C841 1.428 . S
C847 N846 1.351 . S
C847 C848 1.434 . S
C848 C839 1.429 . S
C848 N845 1.350 . S
C848 C847 1.434 . S
C849 C850 1.369 . S
C849 C851 1.419 . S
C849 H853 0.930 . S
C850 C849 1.369 . S
C850 C859 1.429 . S
C851 C849 1.419 . S
C851 C852 1.363 . S
C851 H854 0.929 . S
C852 C851 1.363 . S
C852 C858 1.428 . S
H853 C849 0.930 . S
H854 C851 0.929 . S
S855 N856 1.613 . S
S855 N857 1.610 . S
N856 S855 1.613 . S
N856 C859 1.350 . S
N857 S855 1.610 . S
N857 C858 1.351 . S
C858 C852 1.428 . S
C858 N857 1.351 . S
C858 C859 1.434 . S
C859 C850 1.429 . S
C859 N856 1.350 . S
C859 C858 1.434 . S
C860 C861 1.369 . S
C860 C862 1.419 . S
C860 H864 0.930 . S
C861 C860 1.369 . S
C861 C870 1.429 . S
C862 C860 1.419 . S
C862 C863 1.363 . S
C862 H865 0.929 . S
C863 C862 1.363 . S
C863 C869 1.428 . S
H864 C860 0.930 . S
H865 C862 0.929 . S
S866 N867 1.613 . S
S866 N868 1.610 . S
N867 S866 1.613 . S
N867 C870 1.350 . S
N868 S866 1.610 . S
N868 C869 1.351 . S
C869 C863 1.428 . S
C869 N868 1.351 . S
C869 C870 1.434 . S
C870 C861 1.429 . S
C870 N867 1.350 . S
C870 C869 1.434 . S
C871 C872 1.369 . S
C871 C873 1.419 . S
C871 H875 0.930 . S
C872 C871 1.369 . S
C872 C881 1.429 . S
C873 C871 1.419 . S
C873 C874 1.363 . S
C873 H876 0.929 . S
C874 C873 1.363 . S
C874 C880 1.428 . S
H875 C871 0.930 . S
H876 C873 0.929 . S
S877 N878 1.613 . S
S877 N879 1.610 . S
N878 S877 1.613 . S
N878 C881 1.350 . S
N879 S877 1.610 . S
N879 C880 1.351 . S
C880 C874 1.428 . S
C880 N879 1.351 . S
C880 C881 1.434 . S
C881 C872 1.429 . S
C881 N878 1.350 . S
C881 C880 1.434 . S
C487 C32 1.574 1_554 S
C489 C229 1.596 . S
C498 C283 1.590 . S
C500 C86 1.571 1_544 S
C509 C140 1.563 1_654 S
C511 C175 1.592 . S
C520 C76 1.840 . S
C522 C197 1.970 . S
C531 C130 1.848 . S
C533 C251 1.968 . S
C542 C22 1.843 . S
C544 C305 1.971 . S
C553 C194 1.574 . S
C555 C391 1.597 1_655 S
C564 C445 1.591 . S
C566 C248 1.572 . S
C575 C337 1.598 1_545 S
C577 C302 1.572 . S
C586 C238 1.840 . S
C588 C359 1.970 1_545 S
C597 C413 1.968 1_655 S
C599 C292 1.844 . S
C608 C467 1.969 . S
C610 C184 1.844 . S
C619 C356 1.568 . S
C621 C67 1.600 . S
C630 C410 1.567 . S
C632 C121 1.590 . S
C641 C13 1.600 . S
C643 C464 1.564 . S
C652 C35 1.969 . S
C654 C400 1.847 . S
C663 C89 1.971 . S
C665 C454 1.842 . S
C674 C346 1.838 . S
C676 C143 1.971 . S
C685 C113 1.691 . S
C687 C28 1.783 . S
C696 C5 1.690 . S
C698 C82 1.783 1_545 S
C707 C59 1.686 . S
C709 C136 1.782 1_655 S
C718 C275 1.684 . S
C720 C190 1.782 . S
C729 C167 1.685 . S
C731 C244 1.782 . S
C740 C221 1.683 . S
C742 C298 1.783 . S
C751 C352 1.784 . S
C753 C437 1.683 . S
C762 C406 1.785 . S
C764 C329 1.683 . S
C773 C460 1.784 . S
C775 C383 1.688 . S
C784 C27 0.795 . S
C786 C10 0.800 . S
C795 C64 0.796 . S
C797 C81 0.800 . S
C806 C135 0.795 . S
C808 C118 0.800 . S
C817 C172 0.801 . S
C819 C189 0.795 1_556 S
C828 C243 0.801 1_556 S
C830 C226 0.795 . S
C839 C280 0.797 . S
C841 C297 0.798 1_556 S
C850 C351 0.798 . S
C852 C334 0.798 1_554 S
C861 C405 0.801 . S
C863 C388 0.795 1_554 S
C872 C459 0.794 . S
C874 C442 0.801 1_554 S
