# Generated by pormake.
# Topology wjm, (5)-cn, num edge types: 1
# Building blocks:
#     Node 0, Type 0, BuildingBlock: XOMCOT_clean_sbu_1, # of connection points: 5
#     Node 1, Type 0, BuildingBlock: XOMCOT_clean_sbu_1, # of connection points: 5
#     Node 2, Type 0, BuildingBlock: XOMCOT_clean_sbu_1, # of connection points: 5
#     Node 3, Type 0, BuildingBlock: XOMCOT_clean_sbu_1, # of connection points: 5
#     Node 4, Type 0, BuildingBlock: XOMCOT_clean_sbu_1, # of connection points: 5
#     Node 5, Type 0, BuildingBlock: XOMCOT_clean_sbu_1, # of connection points: 5
#     Node 6, Type 0, BuildingBlock: XOMCOT_clean_sbu_1, # of connection points: 5
#     Node 7, Type 0, BuildingBlock: XOMCOT_clean_sbu_1, # of connection points: 5
#     Node 8, Type 0, BuildingBlock: XOMCOT_clean_sbu_1, # of connection points: 5
#     Node 9, Type 0, BuildingBlock: XOMCOT_clean_sbu_1, # of connection points: 5
#     Node 10, Type 0, BuildingBlock: XOMCOT_clean_sbu_1, # of connection points: 5
#     Node 11, Type 0, BuildingBlock: XOMCOT_clean_sbu_1, # of connection points: 5
#     Edge 12, Type (0, 0), BuildingBlock: CIFDUS_clean_linker_0, # of connection points: 2
#     Edge 13, Type (0, 0), BuildingBlock: CIFDUS_clean_linker_0, # of connection points: 2
#     Edge 14, Type (0, 0), BuildingBlock: CIFDUS_clean_linker_0, # of connection points: 2
#     Edge 15, Type (0, 0), BuildingBlock: CIFDUS_clean_linker_0, # of connection points: 2
#     Edge 16, Type (0, 0), BuildingBlock: CIFDUS_clean_linker_0, # of connection points: 2
#     Edge 17, Type (0, 0), BuildingBlock: CIFDUS_clean_linker_0, # of connection points: 2
#     Edge 18, Type (0, 0), BuildingBlock: CIFDUS_clean_linker_0, # of connection points: 2
#     Edge 19, Type (0, 0), BuildingBlock: CIFDUS_clean_linker_0, # of connection points: 2
#     Edge 20, Type (0, 0), BuildingBlock: CIFDUS_clean_linker_0, # of connection points: 2
#     Edge 21, Type (0, 0), BuildingBlock: CIFDUS_clean_linker_0, # of connection points: 2
#     Edge 22, Type (0, 0), BuildingBlock: CIFDUS_clean_linker_0, # of connection points: 2
#     Edge 23, Type (0, 0), BuildingBlock: CIFDUS_clean_linker_0, # of connection points: 2
#     Edge 24, Type (0, 0), BuildingBlock: CIFDUS_clean_linker_0, # of connection points: 2
#     Edge 25, Type (0, 0), BuildingBlock: CIFDUS_clean_linker_0, # of connection points: 2
#     Edge 26, Type (0, 0), BuildingBlock: CIFDUS_clean_linker_0, # of connection points: 2
#     Edge 27, Type (0, 0), BuildingBlock: CIFDUS_clean_linker_0, # of connection points: 2
#     Edge 28, Type (0, 0), BuildingBlock: CIFDUS_clean_linker_0, # of connection points: 2
#     Edge 29, Type (0, 0), BuildingBlock: CIFDUS_clean_linker_0, # of connection points: 2
#     Edge 30, Type (0, 0), BuildingBlock: CIFDUS_clean_linker_0, # of connection points: 2
#     Edge 31, Type (0, 0), BuildingBlock: CIFDUS_clean_linker_0, # of connection points: 2
#     Edge 32, Type (0, 0), BuildingBlock: CIFDUS_clean_linker_0, # of connection points: 2
#     Edge 33, Type (0, 0), BuildingBlock: CIFDUS_clean_linker_0, # of connection points: 2
#     Edge 34, Type (0, 0), BuildingBlock: CIFDUS_clean_linker_0, # of connection points: 2
#     Edge 35, Type (0, 0), BuildingBlock: CIFDUS_clean_linker_0, # of connection points: 2
#     Edge 36, Type (0, 0), BuildingBlock: CIFDUS_clean_linker_0, # of connection points: 2
#     Edge 37, Type (0, 0), BuildingBlock: CIFDUS_clean_linker_0, # of connection points: 2
#     Edge 38, Type (0, 0), BuildingBlock: CIFDUS_clean_linker_0, # of connection points: 2
#     Edge 39, Type (0, 0), BuildingBlock: CIFDUS_clean_linker_0, # of connection points: 2
#     Edge 40, Type (0, 0), BuildingBlock: CIFDUS_clean_linker_0, # of connection points: 2
#     Edge 41, Type (0, 0), BuildingBlock: CIFDUS_clean_linker_0, # of connection points: 2
# Relax obj value: 0.692
# Max RMSD: 0.273
# Mean RMSD: 0.273
data_MOF--net-wjm--node1-XOMCOT_clean_sbu_1--edge1-CIFDUS_clean_linker_0
_symmetry_space_group_name_H-M    P1
_symmetry_Int_Tables_number       1
_symmetry_cell_setting            triclinic
loop_
_symmetry_equiv_pos_as_xyz
'x, y, z'
_cell_length_a     28.56608
_cell_length_b     28.510498
_cell_length_c     36.051924
_cell_angle_alpha  89.916992
_cell_angle_beta   90.183741
_cell_angle_gamma 119.87191
loop_
_atom_site_label
_atom_site_type_symbol
_atom_site_fract_x
_atom_site_fract_y
_atom_site_fract_z
_atom_type_partial_charge
C0 C 0.34156 0.48339 0.21785 0.0
C1 C 0.37634 0.5218 0.24254 0.0
N2 N 0.35488 0.50742 0.27674 0.0
N3 N 0.29891 0.44487 0.2366 0.0
C4 C 0.30778 0.46094 0.27225 0.0
H5 H 0.34672 0.48348 0.18814 0.0
Co6 Co 0.23838 0.38639 0.21655 0.0
C7 C 0.23429 0.30414 0.27337 0.0
O8 O 0.23575 0.27496 0.24573 0.0
N9 N 0.17581 0.3301 0.19377 0.0
C10 C 0.12138 0.2532 0.16431 0.0
C11 C 0.14589 0.27597 0.1979 0.0
C12 C 0.16456 0.33914 0.15887 0.0
N13 N 0.13516 0.29316 0.13926 0.0
O14 O 0.19735 0.4233 0.23076 0.0
H15 H 0.14633 0.2537 0.22197 0.0
H16 H 0.18628 0.37833 0.14588 0.0
O17 O 0.22791 0.34531 0.26618 0.0
C18 C 0.20563 0.46016 0.20655 0.0
O19 O 0.23594 0.46506 0.17785 0.0
N20 N 0.28243 0.35732 0.19829 0.0
C21 C 0.37163 0.37435 0.15829 0.0
C22 C 0.37464 0.3781 0.19704 0.0
C23 C 0.32904 0.36919 0.21676 0.0
C24 C 0.27663 0.33973 0.16237 0.0
C25 C 0.32116 0.34906 0.14144 0.0
H26 H 0.33394 0.37993 0.24582 0.0
H27 H 0.23949 0.32364 0.14787 0.0
H28 H 0.27933 0.4399 0.29431 0.0
H29 H 0.41438 0.55738 0.23583 0.0
H30 H 0.10127 0.2105 0.15771 0.0
H31 H 0.41333 0.39669 0.21115 0.0
H32 H 0.3172 0.34379 0.11161 0.0
C33 C 0.88398 0.33508 0.54639 0.0
C34 C 0.88141 0.37114 0.57048 0.0
N35 N 0.87493 0.35085 0.60507 0.0
N36 N 0.87947 0.29259 0.56584 0.0
C37 C 0.87358 0.30312 0.60139 0.0
H38 H 0.88842 0.33921 0.5166 0.0
Co39 Co 0.87662 0.23085 0.54666 0.0
C40 C 0.95666 0.22827 0.60358 0.0
O41 O 0.98786 0.23007 0.5763 0.0
N42 N 0.87084 0.16729 0.52515 0.0
C43 C 0.89268 0.11078 0.49768 0.0
C44 C 0.89803 0.1401 0.52951 0.0
C45 C 0.8457 0.14979 0.49197 0.0
N46 N 0.86006 0.11753 0.47398 0.0
O47 O 0.80083 0.18972 0.5632 0.0
H48 H 0.9234 0.14381 0.5527 0.0
H49 H 0.8244 0.16744 0.47838 0.0
O50 O 0.90976 0.22285 0.5959 0.0
C51 C 0.77189 0.19681 0.53869 0.0
O52 O 0.79666 0.22604 0.50939 0.0
N53 N 0.94623 0.27424 0.52572 0.0
C54 C 0.02448 0.36203 0.48662 0.0
C55 C 0.02647 0.36141 0.52538 0.0
C56 C 0.98589 0.31767 0.54449 0.0
C57 C 0.94931 0.27164 0.48798 0.0
C58 C 0.98882 0.31478 0.46791 0.0
H59 H 0.98255 0.32229 0.57392 0.0
H60 H 0.91715 0.24038 0.47218 0.0
H61 H 0.86668 0.27545 0.62402 0.0
H62 H 0.88422 0.40927 0.56312 0.0
H63 H 0.91433 0.0896 0.49136 0.0
H64 H 0.05288 0.39795 0.54069 0.0
H65 H 0.98554 0.3146 0.43794 0.0
C66 C 0.60737 0.79564 0.98128 0.0
C67 C 0.56604 0.79081 1.00334 0.0
N68 N 0.54558 0.81957 0.98769 0.0
N69 N 0.61308 0.8278 0.95215 0.0
C70 C 0.57434 0.84127 0.9566 0.0
H71 H 0.63261 0.77798 0.98658 0.0
Co72 Co 0.66344 0.84664 0.91441 0.0
C73 C 0.76618 0.91283 0.95836 0.0
O74 O 0.7874 0.94262 0.92864 0.0
N75 N 0.71143 0.86173 0.87393 0.0
C76 C 0.7739 0.87073 0.83279 0.0
C77 C 0.76085 0.86681 0.87012 0.0
C78 C 0.69442 0.85928 0.8385 0.0
N79 N 0.73164 0.86578 0.81303 0.0
O80 O 0.63995 0.76876 0.90988 0.0
H81 H 0.78494 0.865 0.89266 0.0
H82 H 0.65462 0.85215 0.83132 0.0
O83 O 0.72241 0.86628 0.9543 0.0
C84 C 0.59924 0.74587 0.88758 0.0
O85 O 0.58418 0.7769 0.87046 0.0
N86 N 0.67958 0.92017 0.91727 0.0
C87 C 0.67936 0.01691 0.92492 0.0
C88 C 0.68748 0.99253 0.95583 0.0
C89 C 0.68396 0.94269 0.9516 0.0
C90 C 0.67915 0.94781 0.88644 0.0
C91 C 0.67972 0.99677 0.88963 0.0
H92 H 0.68024 0.92024 0.97658 0.0
H93 H 0.67258 0.93022 0.85936 0.0
H94 H 0.56903 0.86857 0.93844 0.0
H95 H 0.55394 0.77042 1.02987 0.0
H96 H 0.81022 0.87387 0.82111 0.0
H97 H 0.68638 1.0066 0.98358 0.0
H98 H 0.67231 0.01411 0.86507 0.0
C99 C 0.71319 0.52554 0.2243 0.0
C100 C 0.67982 0.48879 0.25021 0.0
N101 N 0.69674 0.51075 0.2841 0.0
N102 N 0.75049 0.57053 0.24179 0.0
C103 C 0.74005 0.55998 0.27823 0.0
H104 H 0.71036 0.5202 0.19459 0.0
Co105 Co 0.80414 0.63161 0.2184 0.0
C106 C 0.80111 0.71328 0.27275 0.0
O107 O 0.7927 0.73695 0.24427 0.0
N108 N 0.86005 0.691 0.19236 0.0
C109 C 0.90824 0.76919 0.16254 0.0
C110 C 0.88622 0.74528 0.19636 0.0
C111 C 0.87095 0.68345 0.15702 0.0
N112 N 0.89676 0.72989 0.13741 0.0
O113 O 0.85499 0.60547 0.23206 0.0
H114 H 0.88546 0.76646 0.22091 0.0
H115 H 0.85196 0.64414 0.14402 0.0
O116 O 0.81326 0.67565 0.26656 0.0
C117 C 0.8497 0.5696 0.20788 0.0
O118 O 0.81691 0.56085 0.17984 0.0
N119 N 0.75063 0.64896 0.20054 0.0
C120 C 0.65347 0.61027 0.16383 0.0
C121 C 0.65477 0.61187 0.20261 0.0
C122 C 0.70439 0.63231 0.22067 0.0
C123 C 0.7498 0.65977 0.16361 0.0
C124 C 0.70135 0.63952 0.1444 0.0
H125 H 0.70413 0.62656 0.2503 0.0
H126 H 0.78528 0.67847 0.14727 0.0
H127 H 0.76368 0.58771 0.30009 0.0
H128 H 0.64512 0.44955 0.24449 0.0
H129 H 0.92574 0.81174 0.15609 0.0
H130 H 0.61793 0.59008 0.21854 0.0
H131 H 0.70156 0.64038 0.11433 0.0
C132 C 0.18793 0.69581 0.54764 0.0
C133 C 0.19749 0.66484 0.57237 0.0
N134 N 0.20011 0.68469 0.60669 0.0
N135 N 0.18393 0.73453 0.56637 0.0
C136 C 0.192 0.72713 0.60223 0.0
H137 H 0.18446 0.69079 0.51784 0.0
Co138 Co 0.17361 0.78743 0.54475 0.0
C139 C 0.08714 0.78192 0.59884 0.0
O140 O 0.0558 0.77488 0.57015 0.0
N141 N 0.16523 0.84255 0.5203 0.0
C142 C 0.1309 0.89121 0.49599 0.0
C143 C 0.13829 0.86912 0.52824 0.0
C144 C 0.17822 0.85423 0.48407 0.0
N145 N 0.15501 0.8803 0.468 0.0
O146 O 0.24789 0.84065 0.56003 0.0
H147 H 0.12183 0.86989 0.55495 0.0
H148 H 0.2005 0.8396 0.46839 0.0
O149 O 0.1361 0.79174 0.59302 0.0
C150 C 0.27934 0.83938 0.53485 0.0
O151 O 0.25652 0.81051 0.505 0.0
N152 N 0.10732 0.73237 0.52521 0.0
C153 C 0.03839 0.63522 0.48995 0.0
C154 C 0.03442 0.64049 0.52824 0.0
C155 C 0.07013 0.6893 0.54554 0.0
C156 C 0.10872 0.72761 0.48765 0.0
C157 C 0.07303 0.6805 0.46929 0.0
H158 H 0.07254 0.68955 0.57543 0.0
H159 H 0.14299 0.75581 0.47214 0.0
H160 H 0.19182 0.75229 0.62461 0.0
H161 H 0.20316 0.63105 0.56552 0.0
H162 H 0.10568 0.90939 0.49285 0.0
H163 H 1.00979 0.60527 0.5452 0.0
H164 H 0.07917 0.67675 0.44001 0.0
C165 C 0.43592 0.2456 0.96898 0.0
C166 C 0.48108 0.26392 0.9908 0.0
N167 N 0.51272 0.24615 0.97619 0.0
N168 N 0.43909 0.21649 0.94066 0.0
C169 C 0.4866 0.2176 0.94569 0.0
H170 H 0.40313 0.25372 0.9731 0.0
Co171 Co 0.38842 0.18828 0.90247 0.0
C172 C 0.28858 0.10987 0.94394 0.0
O173 O 0.2762 0.07954 0.91408 0.0
N174 N 0.33739 0.16316 0.86249 0.0
C175 C 0.26569 0.14648 0.82793 0.0
C176 C 0.28801 0.1587 0.86292 0.0
C177 C 0.34528 0.15718 0.82603 0.0
N178 N 0.30177 0.14527 0.80458 0.0
O179 O 0.40056 0.26208 0.89465 0.0
H180 H 0.26974 0.16568 0.88693 0.0
H181 H 0.38362 0.16566 0.81464 0.0
O182 O 0.32756 0.15986 0.94176 0.0
C183 C 0.44035 0.28095 0.87156 0.0
O184 O 0.45545 0.24729 0.859 0.0
N185 N 0.38687 0.12164 0.90723 0.0
C186 C 0.42705 0.05231 0.91741 0.0
C187 C 0.4055 0.06572 0.9474 0.0
C188 C 0.38674 0.10154 0.94186 0.0
C189 C 0.40213 0.10344 0.87728 0.0
C190 C 0.42114 0.06752 0.88164 0.0
H191 H 0.37967 0.11877 0.96637 0.0
H192 H 0.40723 0.12186 0.85066 0.0
H193 H 0.50195 0.19855 0.92719 0.0
H194 H 0.48996 0.28817 1.01568 0.0
H195 H 0.22629 0.14011 0.8203 0.0
H196 H 0.41081 0.05567 0.97553 0.0
H197 H 0.43843 0.0582 0.85799 0.0
C198 C 0.50742 0.72171 0.50592 0.0
C199 C 0.46966 0.68937 0.48013 0.0
N200 N 0.4925 0.70339 0.44634 0.0
N201 N 0.55385 0.75551 0.4884 0.0
C202 C 0.5433 0.74407 0.45204 0.0
H203 H 0.50214 0.7195 0.53568 0.0
Co204 Co 0.61688 0.80352 0.51266 0.0
C205 C 0.69894 0.79813 0.45953 0.0
O206 O 0.71923 0.7864 0.48851 0.0
N207 N 0.67971 0.85377 0.53983 0.0
C208 C 0.76159 0.90213 0.56529 0.0
C209 C 0.73322 0.88074 0.53263 0.0
C210 C 0.6772 0.86368 0.5763 0.0
N211 N 0.72594 0.88997 0.5931 0.0
O212 O 0.59932 0.86018 0.49979 0.0
H213 H 0.75119 0.8833 0.5059 0.0
H214 H 0.63969 0.84883 0.59106 0.0
O215 O 0.66132 0.81049 0.46488 0.0
C216 C 0.56576 0.85727 0.52492 0.0
O217 O 0.56017 0.8278 0.55435 0.0
N218 N 0.62341 0.74387 0.5294 0.0
C219 C 0.56376 0.63852 0.5545 0.0
C220 C 0.58084 0.64863 0.51763 0.0
C221 C 0.61107 0.70185 0.50555 0.0
C222 C 0.61437 0.73361 0.56656 0.0
C223 C 0.58479 0.68096 0.57979 0.0
H224 H 0.61491 0.70802 0.47598 0.0
H225 H 0.62101 0.7647 0.58583 0.0
H226 H 0.57293 0.76311 0.43032 0.0
H227 H 0.42905 0.65713 0.48585 0.0
H228 H 0.805 0.92211 0.56848 0.0
H229 H 0.56513 0.61617 0.49741 0.0
H230 H 0.57211 0.67419 0.60854 0.0
C231 C 0.80991 0.50393 0.83319 0.0
C232 C 0.81087 0.46875 0.8077 0.0
N233 N 0.815 0.48991 0.7736 0.0
N234 N 0.8134 0.54712 0.81535 0.0
C235 C 0.81579 0.53718 0.779 0.0
H236 H 0.80888 0.4994 0.86302 0.0
Co237 Co 0.81986 0.60751 0.83967 0.0
C238 C 0.90172 0.69321 0.7855 0.0
O239 O 0.93354 0.71816 0.81381 0.0
N240 N 0.82458 0.66728 0.8669 0.0
C241 C 0.85509 0.74568 0.89701 0.0
C242 C 0.8519 0.72168 0.86299 0.0
C243 C 0.80739 0.65995 0.90249 0.0
N244 N 0.82771 0.70636 0.92206 0.0
O245 O 0.74324 0.58293 0.82705 0.0
H246 H 0.87076 0.74322 0.83787 0.0
H247 H 0.78592 0.62056 0.9153 0.0
O248 O 0.85361 0.65285 0.79185 0.0
C249 C 0.71556 0.54769 0.85222 0.0
O250 O 0.74233 0.53778 0.87778 0.0
N251 N 0.88876 0.62288 0.85695 0.0
C252 C 0.97277 0.61346 0.8882 0.0
C253 C 0.96946 0.61741 0.84974 0.0
C254 C 0.92623 0.62059 0.83458 0.0
C255 C 0.89322 0.62076 0.89459 0.0
C256 C 0.9355 0.61733 0.91079 0.0
H257 H 0.92051 0.61625 0.80492 0.0
H258 H 0.86097 0.61467 0.91256 0.0
H259 H 0.82082 0.5652 0.75705 0.0
H260 H 0.80967 0.43103 0.81391 0.0
H261 H 0.87802 0.7885 0.90313 0.0
H262 H 0.99619 0.61153 0.83149 0.0
H263 H 0.93535 0.61121 0.94049 0.0
C264 C 0.32723 0.86016 0.17604 0.0
C265 C 0.36541 0.86056 0.15289 0.0
N266 N 0.34285 0.84388 0.11919 0.0
N267 N 0.28128 0.84452 0.1567 0.0
C268 C 0.29159 0.83375 0.1222 0.0
H269 H 0.3325 0.87084 0.20514 0.0
Co270 Co 0.21923 0.83835 0.17737 0.0
C271 C 0.19776 0.9068 0.12171 0.0
O272 O 0.19285 0.93259 0.15026 0.0
N273 N 0.1563 0.82929 0.20118 0.0
C274 C 0.08971 0.83741 0.22703 0.0
C275 C 0.11673 0.84114 0.19431 0.0
C276 C 0.14875 0.8136 0.23707 0.0
N277 N 0.11047 0.82024 0.2538 0.0
O278 O 0.18205 0.75999 0.16484 0.0
H279 H 0.10878 0.85367 0.16792 0.0
H280 H 0.17541 0.80356 0.25207 0.0
O281 O 0.20228 0.86419 0.12772 0.0
C282 C 0.19254 0.73381 0.18973 0.0
O283 O 0.22133 0.7611 0.2186 0.0
N284 N 0.25986 0.91209 0.19328 0.0
C285 C 0.34587 1.00849 0.22021 0.0
C286 C 0.33901 0.99778 0.18197 0.0
C287 C 0.29657 0.94938 0.16928 0.0
C288 C 0.26227 0.92506 0.23003 0.0
C289 C 0.3041 0.97368 0.24387 0.0
H290 H 0.29742 0.93948 0.14049 0.0
H291 H 0.23589 0.89628 0.25001 0.0
H292 H 0.26229 0.81883 0.09987 0.0
H293 H 0.40617 0.87086 0.16039 0.0
H294 H 0.05871 0.84818 0.23107 0.0
H295 H 0.36973 0.02235 0.16199 0.0
H296 H 0.30676 0.9807 0.27351 0.0
C297 C 0.50888 0.32493 0.51669 0.0
C298 C 0.54714 0.36118 0.49263 0.0
N299 N 0.53526 0.33956 0.45831 0.0
N300 N 0.47286 0.28122 0.49739 0.0
C301 C 0.49018 0.29104 0.46206 0.0
H302 H 0.50754 0.32972 0.54636 0.0
Co303 Co 0.41564 0.21881 0.51636 0.0
C304 C 0.33085 0.2122 0.4594 0.0
O305 O 0.3003 0.21121 0.48689 0.0
N306 N 0.35982 0.15456 0.53775 0.0
C307 C 0.28246 0.09429 0.56408 0.0
C308 C 0.30608 0.12357 0.5322 0.0
C309 C 0.36794 0.13948 0.57168 0.0
N310 N 0.32169 0.10513 0.58908 0.0
O311 O 0.45294 0.17989 0.50006 0.0
H312 H 0.28439 0.12453 0.50802 0.0
H313 H 0.40624 0.16024 0.586 0.0
O314 O 0.37397 0.20937 0.46681 0.0
C315 C 0.48921 0.18823 0.52465 0.0
O316 O 0.492 0.2166 0.5541 0.0
N317 N 0.3866 0.2603 0.53688 0.0
C318 C 0.37726 0.34157 0.57329 0.0
C319 C 0.38231 0.34208 0.53453 0.0
C320 C 0.388 0.30189 0.51707 0.0
C321 C 0.37754 0.25728 0.57429 0.0
C322 C 0.37148 0.29672 0.59286 0.0
H323 H 0.39862 0.30722 0.48804 0.0
H324 H 0.38065 0.22805 0.59119 0.0
H325 H 0.47009 0.26297 0.43954 0.0
H326 H 0.5816 0.39979 0.49999 0.0
H327 H 0.23958 0.07035 0.56946 0.0
H328 H 0.38866 0.37653 0.51803 0.0
H329 H 0.36826 0.29504 0.62283 0.0
C330 C 0.22755 0.51456 0.8402 0.0
C331 C 0.22684 0.54961 0.81429 0.0
N332 N 0.22495 0.52907 0.78029 0.0
N333 N 0.22573 0.47204 0.8226 0.0
C334 C 0.22502 0.48235 0.78618 0.0
H335 H 0.2273 0.51864 0.87002 0.0
Co336 Co 0.22091 0.41201 0.84595 0.0
C337 C 0.13876 0.3261 0.79179 0.0
O338 O 0.10701 0.30085 0.81997 0.0
N339 N 0.21792 0.35229 0.87205 0.0
C340 C 0.18672 0.27304 0.90113 0.0
C341 C 0.19071 0.298 0.86737 0.0
C342 C 0.23449 0.35863 0.90777 0.0
N343 N 0.21367 0.3117 0.9267 0.0
O344 O 0.29656 0.43809 0.83146 0.0
H345 H 0.17214 0.27716 0.84194 0.0
H346 H 0.25541 0.39756 0.92124 0.0
O347 O 0.1865 0.367 0.79821 0.0
C348 C 0.32716 0.47276 0.85611 0.0
O349 O 0.3038 0.48 0.88509 0.0
N350 N 0.15226 0.39541 0.86431 0.0
C351 C 0.07056 0.40794 0.89586 0.0
C352 C 0.07208 0.40196 0.85752 0.0
C353 C 0.11426 0.39742 0.84218 0.0
C354 C 0.14897 0.39848 0.90198 0.0
C355 C 0.10793 0.40378 0.91836 0.0
H356 H 0.11921 0.40137 0.81248 0.0
H357 H 0.18159 0.40451 0.9197 0.0
H358 H 0.2237 0.45567 0.76441 0.0
H359 H 0.22543 0.58609 0.82017 0.0
H360 H 0.16325 0.23011 0.90678 0.0
H361 H 0.04531 0.40808 0.83932 0.0
H362 H 0.1095 0.41152 0.94789 0.0
C363 C 0.76654 0.26495 0.15989 0.0
C364 C 0.736 0.27287 0.13401 0.0
N365 N 0.73045 0.24219 0.10413 0.0
N366 N 0.7808 0.22983 0.14645 0.0
C367 C 0.75787 0.21617 0.11237 0.0
H368 H 0.77668 0.28263 0.1873 0.0
Co369 Co 0.82029 0.20811 0.17543 0.0
C370 C 0.82514 0.12041 0.13051 0.0
O371 O 0.81588 0.09402 0.162 0.0
N372 N 0.86117 0.18742 0.20667 0.0
C373 C 0.92879 0.17926 0.23094 0.0
C374 C 0.91036 0.19361 0.19979 0.0
C375 C 0.851 0.16939 0.24222 0.0
N376 N 0.89111 0.16393 0.25772 0.0
O377 O 0.88336 0.27933 0.16579 0.0
H378 H 0.93218 0.2091 0.17409 0.0
H379 H 0.81625 0.16294 0.2577 0.0
O380 O 0.83061 0.16844 0.13098 0.0
C381 C 0.88995 0.31124 0.19321 0.0
O382 O 0.87262 0.28891 0.22588 0.0
N383 N 0.75576 0.14787 0.18876 0.0
C384 C 0.64742 0.10682 0.20387 0.0
C385 C 0.66311 0.08955 0.17233 0.0
C386 C 0.71798 0.11066 0.16515 0.0
C387 C 0.74021 0.16255 0.22034 0.0
C388 C 0.68627 0.14098 0.22918 0.0
H389 H 0.72888 0.10316 0.13815 0.0
H390 H 0.76923 0.19751 0.23581 0.0
H391 H 0.76033 0.1872 0.09431 0.0
H392 H 0.71737 0.29763 0.13751 0.0
H393 H 0.9674 0.18111 0.23375 0.0
H394 H 0.63356 0.06439 0.1517 0.0
H395 H 0.67532 0.1568 0.25289 0.0
H396 H 0.55982 0.60037 0.13694 0.0
H397 H 0.64825 0.51577 0.15111 0.0
H398 H 0.56631 0.42907 0.14164 0.0
H399 H 0.46721 0.37881 0.1456 0.0
H400 H 0.37906 0.4629 0.12687 0.0
H401 H 0.46306 0.54838 0.12024 0.0
C402 C 0.56112 0.56299 0.13642 0.0
C403 C 0.60871 0.56341 0.14592 0.0
C404 C 0.51399 0.51338 0.13034 0.0
C405 C 0.61104 0.5154 0.14475 0.0
C406 C 0.56438 0.46599 0.13932 0.0
C407 C 0.46671 0.41542 0.13804 0.0
C408 C 0.41785 0.41535 0.13747 0.0
C409 C 0.5151 0.46441 0.13446 0.0
C410 C 0.41684 0.46258 0.12757 0.0
C411 C 0.46477 0.51157 0.12428 0.0
H412 H 0.95445 0.39106 0.46434 0.0
H413 H 0.125 0.44906 0.47443 0.0
H414 H 0.14381 0.5425 0.46759 0.0
H415 H 0.1101 0.60577 0.4731 0.0
H416 H 0.93892 0.54687 0.47671 0.0
H417 H 0.92096 0.45467 0.46406 0.0
C418 C 0.99583 0.42419 0.46344 0.0
C419 C 0.03855 0.4139 0.46937 0.0
C420 C 1.00558 0.47718 0.46305 0.0
C421 C 0.09193 0.45658 0.46929 0.0
C422 C 0.1024 0.50971 0.46595 0.0
C423 C 0.06891 0.57282 0.46988 0.0
C424 C 0.02563 0.58228 0.47535 0.0
C425 C 0.05935 0.52031 0.46496 0.0
C426 C 0.97241 0.53985 0.47226 0.0
C427 C 0.96239 0.48751 0.46516 0.0
H428 H 0.52891 0.11055 0.89469 0.0
H429 H 0.42173 0.97013 0.95925 0.0
H430 H 0.49696 0.95518 0.97448 0.0
H431 H 0.58897 0.97677 0.96367 0.0
H432 H 0.6946 0.11166 0.89427 0.0
H433 H 0.62373 0.13594 0.88744 0.0
C434 C 0.52198 0.07612 0.91157 0.0
C435 C 0.46998 0.03994 0.92472 0.0
C436 C 0.56498 0.06807 0.91999 0.0
C437 C 0.46144 0.99718 0.94809 0.0
C438 C 0.50434 0.98918 0.95705 0.0
C439 C 0.59742 1.01286 0.94831 0.0
C440 C 0.6469 0.04307 0.92985 0.0
C441 C 0.55587 0.02392 0.94263 0.0
C442 C 0.65685 0.08858 0.909 0.0
C443 C 0.61623 0.10175 0.9047 0.0
H444 H 0.55262 0.5675 0.60866 0.0
H445 H 0.466 0.59803 0.52272 0.0
H446 H 0.38649 0.50979 0.53313 0.0
H447 H 0.35078 0.41809 0.55605 0.0
H448 H 0.44461 0.38294 0.63343 0.0
H449 H 0.50894 0.4787 0.63993 0.0
C450 C 0.51591 0.55477 0.59276 0.0
C451 C 0.51524 0.5876 0.56412 0.0
C452 C 0.47107 0.50319 0.59797 0.0
C453 C 0.46751 0.57201 0.54404 0.0
C454 C 0.42199 0.52197 0.55024 0.0
C455 C 0.38437 0.43171 0.5753 0.0
C456 C 0.39446 0.39352 0.59252 0.0
C457 C 0.42441 0.48616 0.57567 0.0
C458 C 0.43639 0.41134 0.61891 0.0
C459 C 0.47415 0.46626 0.62203 0.0
H460 H 0.12035 0.51343 0.90605 0.0
H461 H 0.96453 0.36929 0.91315 0.0
H462 H 0.9213 0.42467 0.92052 0.0
H463 H 0.92736 0.51266 0.91248 0.0
H464 H 0.08171 0.65505 0.89367 0.0
H465 H 0.1272 0.60231 0.90392 0.0
C466 C 0.07711 0.4945 0.9105 0.0
C467 C 0.04518 0.43799 0.9095 0.0
C468 C 0.05282 0.52638 0.91211 0.0
C469 C 0.9893 0.41293 0.91429 0.0
C470 C 0.96486 0.44453 0.91818 0.0
C471 C 0.97111 0.53224 0.91195 0.0
C472 C 1.00171 0.58726 0.90281 0.0
C473 C 0.99607 0.5011 0.91538 0.0
C474 C 0.05802 0.61268 0.90106 0.0
C475 C 0.08369 0.58252 0.90664 0.0
H476 H 0.42681 0.10127 0.18951 0.0
H477 H 0.39202 0.99582 0.2841 0.0
H478 H 0.48658 0.02299 0.28966 0.0
H479 H 0.57426 0.05776 0.25834 0.0
H480 H 0.60324 0.14632 0.15606 0.0
H481 H 0.51539 0.14114 0.16078 0.0
C482 C 0.4399 0.08443 0.21154 0.0
C483 C 0.40145 0.04401 0.23472 0.0
C484 C 0.49304 0.09459 0.21173 0.0
C485 C 0.41986 0.026 0.26495 0.0
C486 C 0.4741 0.04046 0.26772 0.0
C487 C 0.56087 0.07558 0.23717 0.0
C488 C 0.59352 0.10059 0.2063 0.0
C489 C 0.50994 0.07113 0.23953 0.0
C490 C 0.57725 0.12507 0.17931 0.0
C491 C 0.52766 0.12291 0.18233 0.0
H492 H 0.221 0.35669 0.09596 0.0
H493 H 0.06089 0.21759 0.09253 0.0
H494 H 0.07171 0.20748 1.02574 0.0
H495 H 0.1271 0.24092 0.96794 0.0
H496 H 0.28986 0.37512 0.97573 0.0
H497 H 0.27821 0.38312 0.04189 0.0
C498 C 0.18816 0.32384 0.08104 0.0
C499 C 0.13976 0.28819 0.09952 0.0
C500 C 0.19566 0.31698 0.04344 0.0
C501 C 0.09832 0.24584 0.07905 0.0
C502 C 0.10471 0.23994 0.04093 0.0
C503 C 0.16039 0.27097 0.98433 0.0
C504 C 0.20932 0.30779 0.9667 0.0
C505 C 0.15337 0.27534 1.02277 0.0
C506 C 0.25178 0.34678 0.98843 0.0
C507 C 0.24502 0.35155 1.02624 0.0
H508 H 0.80789 0.1064 0.30477 0.0
H509 H 0.98183 0.19141 0.29836 0.0
H510 H 0.98731 0.17776 0.36479 0.0
H511 H 0.94283 0.15019 0.42622 0.0
H512 H 0.76974 0.0725 0.43281 0.0
H513 H 0.76358 0.07496 0.36503 0.0
C514 C 0.84713 0.12222 0.31774 0.0
C515 C 0.89439 0.15074 0.29625 0.0
C516 C 0.85004 0.1155 0.35623 0.0
C517 C 0.94469 0.16926 0.31381 0.0
C518 C 0.94788 0.16175 0.352 0.0
C519 C 0.90381 0.13247 0.41258 0.0
C520 C 0.85659 0.11026 0.43429 0.0
C521 C 0.90089 0.13595 0.37366 0.0
C522 C 0.80634 0.08899 0.41651 0.0
C523 C 0.80296 0.09082 0.37785 0.0
H524 H 0.80498 0.92699 0.76058 0.0
H525 H 0.6413 0.79787 0.77579 0.0
H526 H 0.62515 0.79459 0.70916 0.0
H527 H 0.65671 0.8277 0.64698 0.0
H528 H 0.81896 0.95915 0.62974 0.0
H529 H 0.83667 0.9618 0.6965 0.0
C530 C 0.76603 0.89797 0.74912 0.0
C531 C 0.72431 0.86279 0.7732 0.0
C532 C 0.75667 0.89683 0.71044 0.0
C533 C 0.67383 0.82572 0.758 0.0
C534 C 0.6646 0.82376 0.71985 0.0
C535 C 0.69577 0.85784 0.65749 0.0
C536 C 0.73616 0.89366 0.63284 0.0
C537 C 0.7055 0.85936 0.69585 0.0
C538 C 0.78698 0.93098 0.6477 0.0
C539 C 0.79712 0.93255 0.68601 0.0
H540 H 0.81434 0.66282 0.09256 0.0
H541 H 0.96991 0.80809 0.09189 0.0
H542 H 0.96154 0.81665 1.02454 0.0
H543 H 0.91006 0.78022 0.96542 0.0
H544 H 0.75137 0.63884 0.96968 0.0
H545 H 0.76037 0.63225 0.0364 0.0
C546 C 0.84663 0.69658 0.07803 0.0
C547 C 0.89313 0.7345 0.0975 0.0
C548 C 0.84058 0.70218 0.03986 0.0
C549 C 0.93394 0.77815 0.07765 0.0
C550 C 0.92898 0.78309 0.03917 0.0
C551 C 0.877 0.74872 0.98106 0.0
C552 C 0.83019 0.7096 0.96223 0.0
C553 C 0.88236 0.74523 1.01989 0.0
C554 C 0.78805 0.6689 0.98317 0.0
C555 C 0.79323 0.66502 1.02138 0.0
H556 H 0.1182 0.79311 0.42447 0.0
H557 H 0.16141 0.96072 0.42381 0.0
H558 H 0.14476 0.95571 0.35635 0.0
H559 H 0.12517 0.90421 0.29667 0.0
H560 H 0.08575 0.73756 0.29949 0.0
H561 H 0.09304 0.74091 0.36721 0.0
C562 C 0.12429 0.82864 0.40963 0.0
C563 C 0.14231 0.87756 0.42893 0.0
C564 C 0.11479 0.8252 0.37128 0.0
C565 C 0.14813 0.92282 0.40943 0.0
C566 C 0.13861 0.91983 0.37094 0.0
C567 C 0.1167 0.86842 0.31241 0.0
C568 C 0.10406 0.82028 0.29338 0.0
C569 C 0.12272 0.87134 0.35142 0.0
C570 C 0.0947 0.77453 0.31377 0.0
C571 C 0.09937 0.77668 0.35234 0.0
H572 H 0.35536 0.11001 0.76121 0.0
H573 H 0.23516 0.15956 0.75764 0.0
H574 H 0.22586 0.14482 0.69087 0.0
H575 H 0.25587 0.12343 0.63241 0.0
H576 H 0.37935 0.07894 0.63512 0.0
H577 H 0.38328 0.08581 0.703 0.0
C578 C 0.32732 0.11789 0.74588 0.0
C579 C 0.2962 0.13612 0.76482 0.0
C580 C 0.32249 0.10983 0.70714 0.0
C581 C 0.25938 0.14509 0.74424 0.0
C582 C 0.25411 0.13683 0.70585 0.0
C583 C 0.28249 0.11379 0.64802 0.0
C584 C 0.31663 0.09972 0.62889 0.0
C585 C 0.28568 0.11957 0.68693 0.0
C586 C 0.35226 0.0891 0.64936 0.0
C587 C 0.35478 0.09349 0.68809 0.0
H588 H 0.2759 0.26574 0.44272 0.0
H589 H 0.35934 0.1929 0.38981 0.0
H590 H 0.33608 0.21426 0.32876 0.0
H591 H 0.29071 0.25225 0.29021 0.0
H592 H 0.21299 0.33102 0.34303 0.0
H593 H 0.23548 0.30891 0.40412 0.0
C594 C 0.289 0.25419 0.4179 0.0
C595 C 0.31887 0.22658 0.42134 0.0
C596 C 0.27635 0.26778 0.38273 0.0
C597 C 0.33622 0.21356 0.38848 0.0
C598 C 0.32275 0.22583 0.35344 0.0
C599 C 0.2783 0.26455 0.31501 0.0
C600 C 0.24897 0.29271 0.31152 0.0
C601 C 0.29253 0.25261 0.35017 0.0
C602 C 0.2349 0.30912 0.34438 0.0
C603 C 0.24785 0.29634 0.37944 0.0
H604 H 0.06417 0.28049 0.62183 0.0
H605 H 0.90671 0.21045 0.6722 0.0
H606 H 0.94927 0.23355 0.73386 0.0
H607 H 0.03117 0.27298 0.77361 0.0
H608 H 0.18875 0.34877 0.72301 0.0
H609 H 0.14615 0.32418 0.66141 0.0
C610 C 0.0388 0.26981 0.64622 0.0
C611 C 0.98165 0.24256 0.64193 0.0
C612 C 0.06381 0.28439 0.68167 0.0
C613 C 0.95031 0.2307 0.67423 0.0
C614 C 0.97485 0.24402 0.7096 0.0
C615 C 0.05654 0.28401 0.7492 0.0
C616 C 0.11372 0.31216 0.75344 0.0
C617 C 0.03155 0.27065 0.71371 0.0
C618 C 0.14512 0.32689 0.72105 0.0
C619 C 0.12055 0.31274 0.68571 0.0
H620 H 0.82056 0.02298 0.9697 0.0
H621 H 0.73879 0.87265 1.03022 0.0
H622 H 0.7515 0.92349 0.08794 0.0
H623 H 0.78258 1.01065 0.12106 0.0
H624 H 0.85701 0.16002 0.0592 0.0
H625 H 0.84978 0.10947 1.00235 0.0
C626 C 0.8062 1.00087 0.99551 0.0
C627 C 0.77951 0.94321 0.99513 0.0
C628 C 0.8117 0.0305 1.02848 0.0
C629 C 0.76017 0.91643 1.02921 0.0
C630 C 0.76711 0.94574 0.06231 0.0
C631 C 0.79765 0.03254 0.09524 0.0
C632 C 0.821 0.0899 0.095 0.0
C633 C 0.79232 1.0028 0.06229 0.0
C634 C 0.83916 0.11649 0.06076 0.0
C635 C 0.83505 0.08736 1.02811 0.0
H636 H 0.75434 0.74486 0.44238 0.0
H637 H 0.67957 0.82718 0.38983 0.0
H638 H 0.70605 0.80972 0.32886 0.0
H639 H 0.74991 0.7706 0.29014 0.0
H640 H 0.81998 0.68363 0.34245 0.0
H641 H 0.79587 0.7034 0.40352 0.0
C642 C 0.74389 0.75947 0.41772 0.0
C643 C 0.71516 0.78826 0.42138 0.0
C644 C 0.75854 0.74829 0.38246 0.0
C645 C 0.70169 0.80551 0.3885 0.0
C646 C 0.71693 0.79537 0.35345 0.0
C647 C 0.76048 0.75609 0.31479 0.0
C648 C 0.78787 0.72598 0.31105 0.0
C649 C 0.74541 0.76684 0.35002 0.0
C650 C 0.79971 0.70712 0.34386 0.0
C651 C 0.7857 0.71845 0.37897 0.0
H652 H 1.00967 0.74914 0.76822 0.0
H653 H 0.85287 0.66551 0.71598 0.0
H654 H 0.89638 0.68668 0.65479 0.0
H655 H 0.97901 0.72876 0.6159 0.0
H656 H 0.13577 0.80724 0.66836 0.0
H657 H 0.09219 0.78816 0.72947 0.0
C658 C 0.98459 0.73568 0.74355 0.0
C659 C 0.92732 0.70618 0.74727 0.0
C660 C 1.01016 0.7471 0.70831 0.0
C661 C 0.8965 0.68849 0.7145 0.0
C662 C 0.92161 0.70064 0.67936 0.0
C663 C 1.00402 0.74212 0.64061 0.0
C664 C 0.06131 0.77037 0.63697 0.0
C665 C 0.97842 0.72998 0.67587 0.0
C666 C 0.09211 0.78598 0.66978 0.0
C667 C 0.06697 0.77497 0.70487 0.0
H668 H 0.23133 0.01384 0.10877 0.0
H669 H 0.19526 0.86718 0.05086 0.0
H670 H 0.21724 0.91664 0.99174 0.0
H671 H 0.2477 1.00147 0.95655 0.0
H672 H 0.29065 0.14975 1.01477 0.0
H673 H 0.26469 0.09952 0.07366 0.0
C674 C 0.2277 0.99218 0.08327 0.0
C675 C 0.21052 0.9359 0.0847 0.0
C676 C 0.24167 0.0214 0.04934 0.0
C677 C 0.20768 0.9098 0.05104 0.0
C678 C 0.22035 0.93831 1.01713 0.0
C679 C 0.25091 0.02317 0.98196 0.0
C680 C 0.27036 0.07992 0.98061 0.0
C681 C 0.23736 0.9941 1.01591 0.0
C682 C 0.27534 0.10653 1.01442 0.0
C683 C 0.26059 0.07761 0.04821 0.0
H684 H 0.42051 0.61473 0.28516 0.0
H685 H 0.33761 0.46427 0.3455 0.0
H686 H 0.37145 0.51256 0.40392 0.0
H687 H 0.42563 0.59712 0.43773 0.0
H688 H 0.51077 0.74755 0.37794 0.0
H689 H 0.47574 0.69959 0.31913 0.0
C690 C 0.41032 0.59249 0.31104 0.0
C691 C 0.37638 0.53605 0.31097 0.0
C692 C 0.43028 0.62046 0.34453 0.0
C693 C 0.36293 0.50783 0.34482 0.0
C694 C 0.38247 0.53535 0.37823 0.0
C695 C 0.43582 0.61943 0.41185 0.0
C696 C 0.47022 0.6757 0.41202 0.0
C697 C 0.41599 0.59162 0.37839 0.0
C698 C 0.48438 0.70411 0.3783 0.0
C699 C 0.46434 0.67676 0.34479 0.0
H700 H 0.83217 0.41593 0.61271 0.0
H701 H 0.90468 0.33797 0.67376 0.0
H702 H 0.89212 0.37428 0.73171 0.0
H703 H 0.86068 0.4279 0.76491 0.0
H704 H 0.7876 0.50586 0.70461 0.0
H705 H 0.80139 0.47084 0.64624 0.0
C706 C 0.8457 0.40738 0.63865 0.0
C707 C 0.86907 0.37407 0.63894 0.0
C708 C 0.83834 0.42843 0.67192 0.0
C709 C 0.88581 0.36279 0.67285 0.0
C710 C 0.8789 0.38375 0.70597 0.0
C711 C 0.84708 0.4367 0.73911 0.0
C712 C 0.8227 0.46907 0.73919 0.0
C713 C 0.85489 0.41628 0.70583 0.0
C714 C 0.80671 0.48127 0.7053 0.0
C715 C 0.8144 0.46108 0.67195 0.0
H716 H 0.44022 0.91309 0.0928 0.0
H717 H 0.3025 0.75477 0.07638 0.0
H718 H 0.35269 0.73382 1.0304 0.0
H719 H 0.44003 0.75771 1.00067 0.0
H720 H 0.5767 0.91663 1.01678 0.0
H721 H 0.5231 0.94116 0.05693 0.0
C722 C 0.42119 0.87447 0.07853 0.0
C723 C 0.36832 0.83523 0.08787 0.0
C724 C 0.45027 0.86302 0.05241 0.0
C725 C 0.34326 0.78542 0.06926 0.0
C726 C 0.37205 0.77341 0.0433 0.0
C727 C 0.45722 0.79791 1.01248 0.0
C728 C 0.51161 0.83567 1.00601 0.0
C729 C 0.4261 0.81137 0.03548 0.0
C730 C 0.53446 0.88764 1.0213 0.0
C731 C 0.50404 0.90133 0.04438 0.0
H732 H 0.64171 0.40516 0.30129 0.0
H733 H 0.69626 0.56463 0.34568 0.0
H734 H 0.6522 0.52536 0.40459 0.0
H735 H 0.59524 0.44554 0.44255 0.0
H736 H 0.54077 0.28612 0.39802 0.0
H737 H 0.58675 0.32551 0.33975 0.0
C738 C 0.64368 0.43125 0.3238 0.0
C739 C 0.67212 0.48762 0.31912 0.0
C740 C 0.61795 0.40842 0.35743 0.0
C741 C 0.67517 0.52108 0.34874 0.0
C742 C 0.64969 0.49867 0.38234 0.0
C743 C 0.59401 0.41947 0.42028 0.0
C744 C 0.56434 0.36302 0.42457 0.0
C745 C 0.62074 0.44238 0.38691 0.0
C746 C 0.56251 0.32969 0.39523 0.0
C747 C 0.58907 0.35217 0.36197 0.0
H748 H 0.25638 0.6329 0.76412 0.0
H749 H 0.17872 0.47201 0.71754 0.0
H750 H 0.16549 0.50668 0.65908 0.0
H751 H 0.17302 0.582 0.62185 0.0
H752 H 0.24875 0.74257 0.6685 0.0
H753 H 0.26428 0.70842 0.7267 0.0
C754 C 0.23628 0.60535 0.74129 0.0
C755 C 0.21878 0.54997 0.74533 0.0
C756 C 0.22795 0.62539 0.70788 0.0
C757 C 0.1935 0.51497 0.71517 0.0
C758 C 0.18545 0.53467 0.68175 0.0
C759 C 0.19344 0.60961 0.6446 0.0
C760 C 0.20968 0.6647 0.64086 0.0
C761 C 0.20229 0.58973 0.67787 0.0
C762 C 0.23523 0.69985 0.67084 0.0
C763 C 0.24443 0.68042 0.70404 0.0
H764 H 0.54432 0.17262 0.9879 0.0
H765 H 0.5933 0.34126 0.99945 0.0
H766 H 0.67153 0.35654 0.03631 0.0
H767 H 0.71838 0.31971 0.07199 0.0
H768 H 0.66737 0.15018 0.06522 0.0
H769 H 0.59852 0.13723 1.01901 0.0
C770 C 0.57307 0.21279 0.99782 0.0
C771 C 0.56324 0.25583 0.99142 0.0
C772 C 0.61711 0.22082 1.02007 0.0
C773 C 0.60017 0.30771 1.00448 0.0
C774 C 0.64469 0.31635 1.02555 0.0
C775 C 0.69251 0.28007 0.06006 0.0
C776 C 0.69723 0.23587 0.07231 0.0
C777 C 0.65233 0.27286 1.03466 0.0
C778 C 0.66442 0.18483 0.05614 0.0
C779 C 0.62479 0.17739 1.03001 0.0
H780 H 0.18065 0.66375 0.24543 0.0
H781 H 0.17931 0.67417 0.12614 0.0
H782 H 0.17776 0.58746 0.1214 0.0
H783 H 0.18693 0.51388 0.15111 0.0
H784 H 0.18808 0.50318 0.27038 0.0
H785 H 0.17882 0.58418 0.27519 0.0
C786 C 0.17898 0.64665 0.21828 0.0
C787 C 0.18019 0.67606 0.18607 0.0
C788 C 0.17846 0.59673 0.21586 0.0
C789 C 0.17786 0.65274 0.15133 0.0
C790 C 0.17749 0.6032 0.14868 0.0
C791 C 0.18412 0.52855 0.17828 0.0
C792 C 0.18834 0.50199 0.21045 0.0
C793 C 0.17921 0.57555 0.18073 0.0
C794 C 0.18443 0.52193 0.24522 0.0
C795 C 0.17966 0.56875 0.2479 0.0
H796 H 0.54553 0.17244 0.57941 0.0
H797 H 0.53346 0.17474 0.46023 0.0
H798 H 0.61742 0.17136 0.4546 0.0
H799 H 0.69957 0.17898 0.48369 0.0
H800 H 0.71238 0.1782 0.60289 0.0
H801 H 0.62249 0.16904 0.60841 0.0
C802 C 0.56063 0.17116 0.55209 0.0
C803 C 0.53293 0.17405 0.52018 0.0
C804 C 0.6094 0.16997 0.54918 0.0
C805 C 0.55325 0.17207 0.48517 0.0
C806 C 0.60168 0.17068 0.48203 0.0
C807 C 0.68239 0.17583 0.51098 0.0
C808 C 0.71324 0.17959 0.54294 0.0
C809 C 0.63089 0.17125 0.51384 0.0
C810 C 0.68983 0.17505 0.5779 0.0
C811 C 0.6385 0.1703 0.58099 0.0
H812 H 0.40548 0.5089 0.90896 0.0
H813 H 0.38011 0.53 0.79371 0.0
H814 H 0.4673 0.61441 0.79225 0.0
H815 H 0.54315 0.68928 0.82663 0.0
H816 H 0.56874 0.66799 0.94185 0.0
H817 H 0.48994 0.57646 0.94035 0.0
C818 C 0.41992 0.53097 0.88311 0.0
C819 C 0.38606 0.51263 0.85133 0.0
C820 C 0.46996 0.58002 0.88273 0.0
C821 C 0.40535 0.54223 0.8183 0.0
C822 C 0.45503 0.59107 0.81769 0.0
C823 C 0.53248 0.66401 0.85118 0.0
C824 C 0.56217 0.68588 0.88443 0.0
C825 C 0.48664 0.61142 0.85011 0.0
C826 C 0.54745 0.6524 0.91587 0.0
C827 C 0.50183 0.60013 0.91506 0.0
H828 H 0.86504 0.51413 0.1523 0.0
H829 H 0.88457 0.53863 0.2706 0.0
H830 H 0.90524 0.46476 0.27541 0.0
H831 H 0.90768 0.38667 0.24679 0.0
H832 H 0.88539 0.36133 0.12858 0.0
H833 H 0.8766 0.44226 0.12299 0.0
C834 C 0.87467 0.50409 0.17922 0.0
C835 C 0.87298 0.53241 0.21117 0.0
C836 C 0.88573 0.46093 0.18174 0.0
C837 C 0.8859 0.51841 0.24555 0.0
C838 C 0.89729 0.47566 0.24827 0.0
C839 C 0.90206 0.39934 0.21957 0.0
C840 C 0.89731 0.36718 0.18805 0.0
C841 C 0.89596 0.44571 0.21668 0.0
C842 C 0.88992 0.3849 0.15324 0.0
C843 C 0.88428 0.4311 0.15013 0.0
H844 H 0.51011 0.8761 0.57837 0.0
H845 H 0.52217 0.86978 0.45948 0.0
H846 H 0.43708 0.87068 0.45256 0.0
H847 H 0.35341 0.86043 0.48056 0.0
H848 H 0.33949 0.86267 0.59955 0.0
H849 H 0.43124 0.87679 0.60615 0.0
C850 C 0.49494 0.8763 0.55079 0.0
C851 C 0.52314 0.873 0.5194 0.0
C852 C 0.44507 0.87533 0.54715 0.0
C853 C 0.50234 0.87314 0.48407 0.0
C854 C 0.45311 0.87292 0.48019 0.0
C855 C 0.3707 0.86508 0.50805 0.0
C856 C 0.33891 0.86025 0.53962 0.0
C857 C 0.42324 0.87213 0.51156 0.0
C858 C 0.36259 0.86662 0.57481 0.0
C859 C 0.41506 0.8742 0.57853 0.0
H860 H 0.63802 0.4813 0.80084 0.0
H861 H 0.65807 0.53933 0.91319 0.0
H862 H 0.56848 0.46564 0.92921 0.0
H863 H 0.49168 0.37407 0.91453 0.0
H864 H 0.4709 0.31684 0.80193 0.0
H865 H 0.55132 0.39998 0.78297 0.0
C866 C 0.62175 0.47939 0.82829 0.0
C867 C 0.65516 0.51653 0.85561 0.0
C868 C 0.56971 0.43575 0.8377 0.0
C869 C 0.63338 0.5119 0.89139 0.0
C870 C 0.58208 0.46916 0.90079 0.0
C871 C 0.50313 0.38094 0.88553 0.0
C872 C 0.4745 0.33886 0.85974 0.0
C873 C 0.55068 0.42923 0.87468 0.0
C874 C 0.49152 0.34842 0.82243 0.0
C875 C 0.53818 0.39597 0.81154 0.0
loop_
_geom_bond_atom_site_label_1
_geom_bond_atom_site_label_2
_geom_bond_distance
_geom_bond_site_symmetry_2
_ccdc_geom_bond_type
C0 C1 1.351 . S
C0 N3 1.368 . S
C0 H5 0.931 . S
C1 C0 1.351 . S
C1 N2 1.373 . S
C1 H29 0.930 . S
N2 C1 1.373 . S
N2 C4 1.340 . S
N3 C0 1.368 . S
N3 C4 1.321 . S
N3 Co6 2.135 . S
C4 N2 1.340 . S
C4 N3 1.321 . S
C4 H28 0.930 . S
H5 C0 0.931 . S
Co6 N3 2.135 . S
Co6 N9 2.121 . S
Co6 O14 2.055 . S
Co6 O17 2.039 . S
Co6 N20 2.140 . S
C7 O8 1.227 . S
C7 O17 1.265 . S
O8 C7 1.227 . S
N9 Co6 2.121 . S
N9 C11 1.375 . S
N9 C12 1.313 . S
C10 C11 1.338 . S
C10 N13 1.377 . S
C10 H30 0.930 . S
C11 N9 1.375 . S
C11 C10 1.338 . S
C11 H15 0.931 . S
C12 N9 1.313 . S
C12 N13 1.344 . S
C12 H16 0.930 . S
N13 C10 1.377 . S
N13 C12 1.344 . S
O14 Co6 2.055 . S
O14 C18 1.253 . S
H15 C11 0.931 . S
H16 C12 0.930 . S
O17 Co6 2.039 . S
O17 C7 1.265 . S
C18 O14 1.253 . S
C18 O19 1.227 . S
O19 C18 1.227 . S
N20 Co6 2.140 . S
N20 C23 1.346 . S
N20 C24 1.345 . S
C21 C22 1.387 . S
C21 C25 1.391 . S
C22 C21 1.387 . S
C22 C23 1.369 . S
C22 H31 0.929 . S
C23 N20 1.346 . S
C23 C22 1.369 . S
C23 H26 0.928 . S
C24 N20 1.345 . S
C24 C25 1.371 . S
C24 H27 0.931 . S
C25 C21 1.391 . S
C25 C24 1.371 . S
C25 H32 0.930 . S
H26 C23 0.928 . S
H27 C24 0.931 . S
H28 C4 0.930 . S
H29 C1 0.930 . S
H30 C10 0.930 . S
H31 C22 0.929 . S
H32 C25 0.930 . S
C33 C34 1.351 . S
C33 N36 1.368 . S
C33 H38 0.931 . S
C34 C33 1.351 . S
C34 N35 1.373 . S
C34 H62 0.930 . S
N35 C34 1.373 . S
N35 C37 1.340 . S
N36 C33 1.368 . S
N36 C37 1.321 . S
N36 Co39 2.135 . S
C37 N35 1.340 . S
C37 N36 1.321 . S
C37 H61 0.930 . S
H38 C33 0.931 . S
Co39 N36 2.135 . S
Co39 N42 2.121 . S
Co39 O47 2.055 . S
Co39 O50 2.039 . S
Co39 N53 2.140 . S
C40 O41 1.227 . S
C40 O50 1.265 . S
O41 C40 1.227 . S
N42 Co39 2.121 . S
N42 C44 1.375 . S
N42 C45 1.313 . S
C43 C44 1.338 . S
C43 N46 1.377 . S
C43 H63 0.930 . S
C44 N42 1.375 . S
C44 C43 1.338 . S
C44 H48 0.931 . S
C45 N42 1.313 . S
C45 N46 1.344 . S
C45 H49 0.930 . S
N46 C43 1.377 . S
N46 C45 1.344 . S
O47 Co39 2.055 . S
O47 C51 1.253 . S
H48 C44 0.931 . S
H49 C45 0.930 . S
O50 Co39 2.039 . S
O50 C40 1.265 . S
C51 O47 1.253 . S
C51 O52 1.227 . S
O52 C51 1.227 . S
N53 Co39 2.140 . S
N53 C56 1.346 . S
N53 C57 1.345 . S
C54 C55 1.387 . S
C54 C58 1.391 . S
C55 C54 1.387 . S
C55 C56 1.369 . S
C55 H64 0.929 . S
C56 N53 1.346 . S
C56 C55 1.369 . S
C56 H59 0.928 . S
C57 N53 1.345 . S
C57 C58 1.371 . S
C57 H60 0.931 . S
C58 C54 1.391 . S
C58 C57 1.371 . S
C58 H65 0.930 . S
H59 C56 0.928 . S
H60 C57 0.931 . S
H61 C37 0.930 . S
H62 C34 0.930 . S
H63 C43 0.930 . S
H64 C55 0.929 . S
H65 C58 0.930 . S
C66 C67 1.351 . S
C66 N69 1.368 . S
C66 H71 0.931 . S
C67 C66 1.351 . S
C67 N68 1.373 . S
C67 H95 0.930 . S
N68 C67 1.373 . S
N68 C70 1.340 . S
N69 C66 1.368 . S
N69 C70 1.321 . S
N69 Co72 2.135 . S
C70 N68 1.340 . S
C70 N69 1.321 . S
C70 H94 0.930 . S
H71 C66 0.931 . S
Co72 N69 2.135 . S
Co72 N75 2.121 . S
Co72 O80 2.055 . S
Co72 O83 2.039 . S
Co72 N86 2.140 . S
C73 O74 1.227 . S
C73 O83 1.265 . S
O74 C73 1.227 . S
N75 Co72 2.121 . S
N75 C77 1.375 . S
N75 C78 1.313 . S
C76 C77 1.338 . S
C76 N79 1.377 . S
C76 H96 0.930 . S
C77 N75 1.375 . S
C77 C76 1.338 . S
C77 H81 0.931 . S
C78 N75 1.313 . S
C78 N79 1.344 . S
C78 H82 0.930 . S
N79 C76 1.377 . S
N79 C78 1.344 . S
O80 Co72 2.055 . S
O80 C84 1.253 . S
H81 C77 0.931 . S
H82 C78 0.930 . S
O83 Co72 2.039 . S
O83 C73 1.265 . S
C84 O80 1.253 . S
C84 O85 1.227 . S
O85 C84 1.227 . S
N86 Co72 2.140 . S
N86 C89 1.346 . S
N86 C90 1.345 . S
C87 C88 1.387 . S
C87 C91 1.391 . S
C88 C87 1.387 . S
C88 C89 1.369 . S
C88 H97 0.929 . S
C89 N86 1.346 . S
C89 C88 1.369 . S
C89 H92 0.928 . S
C90 N86 1.345 . S
C90 C91 1.371 . S
C90 H93 0.931 . S
C91 C87 1.391 . S
C91 C90 1.371 . S
C91 H98 0.930 . S
H92 C89 0.928 . S
H93 C90 0.931 . S
H94 C70 0.930 . S
H95 C67 0.930 . S
H96 C76 0.930 . S
H97 C88 0.929 . S
H98 C91 0.930 . S
C99 C100 1.351 . S
C99 N102 1.368 . S
C99 H104 0.931 . S
C100 C99 1.351 . S
C100 N101 1.373 . S
C100 H128 0.930 . S
N101 C100 1.373 . S
N101 C103 1.340 . S
N102 C99 1.368 . S
N102 C103 1.321 . S
N102 Co105 2.135 . S
C103 N101 1.340 . S
C103 N102 1.321 . S
C103 H127 0.930 . S
H104 C99 0.931 . S
Co105 N102 2.135 . S
Co105 N108 2.121 . S
Co105 O113 2.055 . S
Co105 O116 2.039 . S
Co105 N119 2.140 . S
C106 O107 1.227 . S
C106 O116 1.265 . S
O107 C106 1.227 . S
N108 Co105 2.121 . S
N108 C110 1.375 . S
N108 C111 1.313 . S
C109 C110 1.338 . S
C109 N112 1.377 . S
C109 H129 0.930 . S
C110 N108 1.375 . S
C110 C109 1.338 . S
C110 H114 0.931 . S
C111 N108 1.313 . S
C111 N112 1.344 . S
C111 H115 0.930 . S
N112 C109 1.377 . S
N112 C111 1.344 . S
O113 Co105 2.055 . S
O113 C117 1.253 . S
H114 C110 0.931 . S
H115 C111 0.930 . S
O116 Co105 2.039 . S
O116 C106 1.265 . S
C117 O113 1.253 . S
C117 O118 1.227 . S
O118 C117 1.227 . S
N119 Co105 2.140 . S
N119 C122 1.346 . S
N119 C123 1.345 . S
C120 C121 1.387 . S
C120 C124 1.391 . S
C121 C120 1.387 . S
C121 C122 1.369 . S
C121 H130 0.929 . S
C122 N119 1.346 . S
C122 C121 1.369 . S
C122 H125 0.928 . S
C123 N119 1.345 . S
C123 C124 1.371 . S
C123 H126 0.931 . S
C124 C120 1.391 . S
C124 C123 1.371 . S
C124 H131 0.930 . S
H125 C122 0.928 . S
H126 C123 0.931 . S
H127 C103 0.930 . S
H128 C100 0.930 . S
H129 C109 0.930 . S
H130 C121 0.929 . S
H131 C124 0.930 . S
C132 C133 1.351 . S
C132 N135 1.368 . S
C132 H137 0.931 . S
C133 C132 1.351 . S
C133 N134 1.373 . S
C133 H161 0.930 . S
N134 C133 1.373 . S
N134 C136 1.340 . S
N135 C132 1.368 . S
N135 C136 1.321 . S
N135 Co138 2.135 . S
C136 N134 1.340 . S
C136 N135 1.321 . S
C136 H160 0.930 . S
H137 C132 0.931 . S
Co138 N135 2.135 . S
Co138 N141 2.121 . S
Co138 O146 2.055 . S
Co138 O149 2.039 . S
Co138 N152 2.140 . S
C139 O140 1.227 . S
C139 O149 1.265 . S
O140 C139 1.227 . S
N141 Co138 2.121 . S
N141 C143 1.375 . S
N141 C144 1.313 . S
C142 C143 1.338 . S
C142 N145 1.377 . S
C142 H162 0.930 . S
C143 N141 1.375 . S
C143 C142 1.338 . S
C143 H147 0.931 . S
C144 N141 1.313 . S
C144 N145 1.344 . S
C144 H148 0.930 . S
N145 C142 1.377 . S
N145 C144 1.344 . S
O146 Co138 2.055 . S
O146 C150 1.253 . S
H147 C143 0.931 . S
H148 C144 0.930 . S
O149 Co138 2.039 . S
O149 C139 1.265 . S
C150 O146 1.253 . S
C150 O151 1.227 . S
O151 C150 1.227 . S
N152 Co138 2.140 . S
N152 C155 1.346 . S
N152 C156 1.345 . S
C153 C154 1.387 . S
C153 C157 1.391 . S
C154 C153 1.387 . S
C154 C155 1.369 . S
C154 H163 0.929 . S
C155 N152 1.346 . S
C155 C154 1.369 . S
C155 H158 0.928 . S
C156 N152 1.345 . S
C156 C157 1.371 . S
C156 H159 0.931 . S
C157 C153 1.391 . S
C157 C156 1.371 . S
C157 H164 0.930 . S
H158 C155 0.928 . S
H159 C156 0.931 . S
H160 C136 0.930 . S
H161 C133 0.930 . S
H162 C142 0.930 . S
H163 C154 0.929 . S
H164 C157 0.930 . S
C165 C166 1.351 . S
C165 N168 1.368 . S
C165 H170 0.931 . S
C166 C165 1.351 . S
C166 N167 1.373 . S
C166 H194 0.930 . S
N167 C166 1.373 . S
N167 C169 1.340 . S
N168 C165 1.368 . S
N168 C169 1.321 . S
N168 Co171 2.135 . S
C169 N167 1.340 . S
C169 N168 1.321 . S
C169 H193 0.930 . S
H170 C165 0.931 . S
Co171 N168 2.135 . S
Co171 N174 2.121 . S
Co171 O179 2.055 . S
Co171 O182 2.039 . S
Co171 N185 2.140 . S
C172 O173 1.227 . S
C172 O182 1.265 . S
O173 C172 1.227 . S
N174 Co171 2.121 . S
N174 C176 1.375 . S
N174 C177 1.313 . S
C175 C176 1.338 . S
C175 N178 1.377 . S
C175 H195 0.930 . S
C176 N174 1.375 . S
C176 C175 1.338 . S
C176 H180 0.931 . S
C177 N174 1.313 . S
C177 N178 1.344 . S
C177 H181 0.930 . S
N178 C175 1.377 . S
N178 C177 1.344 . S
O179 Co171 2.055 . S
O179 C183 1.253 . S
H180 C176 0.931 . S
H181 C177 0.930 . S
O182 Co171 2.039 . S
O182 C172 1.265 . S
C183 O179 1.253 . S
C183 O184 1.227 . S
O184 C183 1.227 . S
N185 Co171 2.140 . S
N185 C188 1.346 . S
N185 C189 1.345 . S
C186 C187 1.387 . S
C186 C190 1.391 . S
C187 C186 1.387 . S
C187 C188 1.369 . S
C187 H196 0.929 . S
C188 N185 1.346 . S
C188 C187 1.369 . S
C188 H191 0.928 . S
C189 N185 1.345 . S
C189 C190 1.371 . S
C189 H192 0.931 . S
C190 C186 1.391 . S
C190 C189 1.371 . S
C190 H197 0.930 . S
H191 C188 0.928 . S
H192 C189 0.931 . S
H193 C169 0.930 . S
H194 C166 0.930 . S
H195 C175 0.930 . S
H196 C187 0.929 . S
H197 C190 0.930 . S
C198 C199 1.351 . S
C198 N201 1.368 . S
C198 H203 0.931 . S
C199 C198 1.351 . S
C199 N200 1.373 . S
C199 H227 0.930 . S
N200 C199 1.373 . S
N200 C202 1.340 . S
N201 C198 1.368 . S
N201 C202 1.321 . S
N201 Co204 2.135 . S
C202 N200 1.340 . S
C202 N201 1.321 . S
C202 H226 0.930 . S
H203 C198 0.931 . S
Co204 N201 2.135 . S
Co204 N207 2.121 . S
Co204 O212 2.055 . S
Co204 O215 2.039 . S
Co204 N218 2.140 . S
C205 O206 1.227 . S
C205 O215 1.265 . S
O206 C205 1.227 . S
N207 Co204 2.121 . S
N207 C209 1.375 . S
N207 C210 1.313 . S
C208 C209 1.338 . S
C208 N211 1.377 . S
C208 H228 0.930 . S
C209 N207 1.375 . S
C209 C208 1.338 . S
C209 H213 0.931 . S
C210 N207 1.313 . S
C210 N211 1.344 . S
C210 H214 0.930 . S
N211 C208 1.377 . S
N211 C210 1.344 . S
O212 Co204 2.055 . S
O212 C216 1.253 . S
H213 C209 0.931 . S
H214 C210 0.930 . S
O215 Co204 2.039 . S
O215 C205 1.265 . S
C216 O212 1.253 . S
C216 O217 1.227 . S
O217 C216 1.227 . S
N218 Co204 2.140 . S
N218 C221 1.346 . S
N218 C222 1.345 . S
C219 C220 1.387 . S
C219 C223 1.391 . S
C220 C219 1.387 . S
C220 C221 1.369 . S
C220 H229 0.929 . S
C221 N218 1.346 . S
C221 C220 1.369 . S
C221 H224 0.928 . S
C222 N218 1.345 . S
C222 C223 1.371 . S
C222 H225 0.931 . S
C223 C219 1.391 . S
C223 C222 1.371 . S
C223 H230 0.930 . S
H224 C221 0.928 . S
H225 C222 0.931 . S
H226 C202 0.930 . S
H227 C199 0.930 . S
H228 C208 0.930 . S
H229 C220 0.929 . S
H230 C223 0.930 . S
C231 C232 1.351 . S
C231 N234 1.368 . S
C231 H236 0.931 . S
C232 C231 1.351 . S
C232 N233 1.373 . S
C232 H260 0.930 . S
N233 C232 1.373 . S
N233 C235 1.340 . S
N234 C231 1.368 . S
N234 C235 1.321 . S
N234 Co237 2.135 . S
C235 N233 1.340 . S
C235 N234 1.321 . S
C235 H259 0.930 . S
H236 C231 0.931 . S
Co237 N234 2.135 . S
Co237 N240 2.121 . S
Co237 O245 2.055 . S
Co237 O248 2.039 . S
Co237 N251 2.140 . S
C238 O239 1.227 . S
C238 O248 1.265 . S
O239 C238 1.227 . S
N240 Co237 2.121 . S
N240 C242 1.375 . S
N240 C243 1.313 . S
C241 C242 1.338 . S
C241 N244 1.377 . S
C241 H261 0.930 . S
C242 N240 1.375 . S
C242 C241 1.338 . S
C242 H246 0.931 . S
C243 N240 1.313 . S
C243 N244 1.344 . S
C243 H247 0.930 . S
N244 C241 1.377 . S
N244 C243 1.344 . S
O245 Co237 2.055 . S
O245 C249 1.253 . S
H246 C242 0.931 . S
H247 C243 0.930 . S
O248 Co237 2.039 . S
O248 C238 1.265 . S
C249 O245 1.253 . S
C249 O250 1.227 . S
O250 C249 1.227 . S
N251 Co237 2.140 . S
N251 C254 1.346 . S
N251 C255 1.345 . S
C252 C253 1.387 . S
C252 C256 1.391 . S
C253 C252 1.387 . S
C253 C254 1.369 . S
C253 H262 0.929 . S
C254 N251 1.346 . S
C254 C253 1.369 . S
C254 H257 0.928 . S
C255 N251 1.345 . S
C255 C256 1.371 . S
C255 H258 0.931 . S
C256 C252 1.391 . S
C256 C255 1.371 . S
C256 H263 0.930 . S
H257 C254 0.928 . S
H258 C255 0.931 . S
H259 C235 0.930 . S
H260 C232 0.930 . S
H261 C241 0.930 . S
H262 C253 0.929 . S
H263 C256 0.930 . S
C264 C265 1.351 . S
C264 N267 1.368 . S
C264 H269 0.931 . S
C265 C264 1.351 . S
C265 N266 1.373 . S
C265 H293 0.930 . S
N266 C265 1.373 . S
N266 C268 1.340 . S
N267 C264 1.368 . S
N267 C268 1.321 . S
N267 Co270 2.135 . S
C268 N266 1.340 . S
C268 N267 1.321 . S
C268 H292 0.930 . S
H269 C264 0.931 . S
Co270 N267 2.135 . S
Co270 N273 2.121 . S
Co270 O278 2.055 . S
Co270 O281 2.039 . S
Co270 N284 2.140 . S
C271 O272 1.227 . S
C271 O281 1.265 . S
O272 C271 1.227 . S
N273 Co270 2.121 . S
N273 C275 1.375 . S
N273 C276 1.313 . S
C274 C275 1.338 . S
C274 N277 1.377 . S
C274 H294 0.930 . S
C275 N273 1.375 . S
C275 C274 1.338 . S
C275 H279 0.931 . S
C276 N273 1.313 . S
C276 N277 1.344 . S
C276 H280 0.930 . S
N277 C274 1.377 . S
N277 C276 1.344 . S
O278 Co270 2.055 . S
O278 C282 1.253 . S
H279 C275 0.931 . S
H280 C276 0.930 . S
O281 Co270 2.039 . S
O281 C271 1.265 . S
C282 O278 1.253 . S
C282 O283 1.227 . S
O283 C282 1.227 . S
N284 Co270 2.140 . S
N284 C287 1.346 . S
N284 C288 1.345 . S
C285 C286 1.387 . S
C285 C289 1.391 . S
C286 C285 1.387 . S
C286 C287 1.369 . S
C286 H295 0.929 . S
C287 N284 1.346 . S
C287 C286 1.369 . S
C287 H290 0.928 . S
C288 N284 1.345 . S
C288 C289 1.371 . S
C288 H291 0.931 . S
C289 C285 1.391 . S
C289 C288 1.371 . S
C289 H296 0.930 . S
H290 C287 0.928 . S
H291 C288 0.931 . S
H292 C268 0.930 . S
H293 C265 0.930 . S
H294 C274 0.930 . S
H295 C286 0.929 . S
H296 C289 0.930 . S
C297 C298 1.351 . S
C297 N300 1.368 . S
C297 H302 0.931 . S
C298 C297 1.351 . S
C298 N299 1.373 . S
C298 H326 0.930 . S
N299 C298 1.373 . S
N299 C301 1.340 . S
N300 C297 1.368 . S
N300 C301 1.321 . S
N300 Co303 2.135 . S
C301 N299 1.340 . S
C301 N300 1.321 . S
C301 H325 0.930 . S
H302 C297 0.931 . S
Co303 N300 2.135 . S
Co303 N306 2.121 . S
Co303 O311 2.055 . S
Co303 O314 2.039 . S
Co303 N317 2.140 . S
C304 O305 1.227 . S
C304 O314 1.265 . S
O305 C304 1.227 . S
N306 Co303 2.121 . S
N306 C308 1.375 . S
N306 C309 1.313 . S
C307 C308 1.338 . S
C307 N310 1.377 . S
C307 H327 0.930 . S
C308 N306 1.375 . S
C308 C307 1.338 . S
C308 H312 0.931 . S
C309 N306 1.313 . S
C309 N310 1.344 . S
C309 H313 0.930 . S
N310 C307 1.377 . S
N310 C309 1.344 . S
O311 Co303 2.055 . S
O311 C315 1.253 . S
H312 C308 0.931 . S
H313 C309 0.930 . S
O314 Co303 2.039 . S
O314 C304 1.265 . S
C315 O311 1.253 . S
C315 O316 1.227 . S
O316 C315 1.227 . S
N317 Co303 2.140 . S
N317 C320 1.346 . S
N317 C321 1.345 . S
C318 C319 1.387 . S
C318 C322 1.391 . S
C319 C318 1.387 . S
C319 C320 1.369 . S
C319 H328 0.929 . S
C320 N317 1.346 . S
C320 C319 1.369 . S
C320 H323 0.928 . S
C321 N317 1.345 . S
C321 C322 1.371 . S
C321 H324 0.931 . S
C322 C318 1.391 . S
C322 C321 1.371 . S
C322 H329 0.930 . S
H323 C320 0.928 . S
H324 C321 0.931 . S
H325 C301 0.930 . S
H326 C298 0.930 . S
H327 C307 0.930 . S
H328 C319 0.929 . S
H329 C322 0.930 . S
C330 C331 1.351 . S
C330 N333 1.368 . S
C330 H335 0.931 . S
C331 C330 1.351 . S
C331 N332 1.373 . S
C331 H359 0.930 . S
N332 C331 1.373 . S
N332 C334 1.340 . S
N333 C330 1.368 . S
N333 C334 1.321 . S
N333 Co336 2.135 . S
C334 N332 1.340 . S
C334 N333 1.321 . S
C334 H358 0.930 . S
H335 C330 0.931 . S
Co336 N333 2.135 . S
Co336 N339 2.121 . S
Co336 O344 2.055 . S
Co336 O347 2.039 . S
Co336 N350 2.140 . S
C337 O338 1.227 . S
C337 O347 1.265 . S
O338 C337 1.227 . S
N339 Co336 2.121 . S
N339 C341 1.375 . S
N339 C342 1.313 . S
C340 C341 1.338 . S
C340 N343 1.377 . S
C340 H360 0.930 . S
C341 N339 1.375 . S
C341 C340 1.338 . S
C341 H345 0.931 . S
C342 N339 1.313 . S
C342 N343 1.344 . S
C342 H346 0.930 . S
N343 C340 1.377 . S
N343 C342 1.344 . S
O344 Co336 2.055 . S
O344 C348 1.253 . S
H345 C341 0.931 . S
H346 C342 0.930 . S
O347 Co336 2.039 . S
O347 C337 1.265 . S
C348 O344 1.253 . S
C348 O349 1.227 . S
O349 C348 1.227 . S
N350 Co336 2.140 . S
N350 C353 1.346 . S
N350 C354 1.345 . S
C351 C352 1.387 . S
C351 C355 1.391 . S
C352 C351 1.387 . S
C352 C353 1.369 . S
C352 H361 0.929 . S
C353 N350 1.346 . S
C353 C352 1.369 . S
C353 H356 0.928 . S
C354 N350 1.345 . S
C354 C355 1.371 . S
C354 H357 0.931 . S
C355 C351 1.391 . S
C355 C354 1.371 . S
C355 H362 0.930 . S
H356 C353 0.928 . S
H357 C354 0.931 . S
H358 C334 0.930 . S
H359 C331 0.930 . S
H360 C340 0.930 . S
H361 C352 0.929 . S
H362 C355 0.930 . S
C363 C364 1.351 . S
C363 N366 1.368 . S
C363 H368 0.931 . S
C364 C363 1.351 . S
C364 N365 1.373 . S
C364 H392 0.930 . S
N365 C364 1.373 . S
N365 C367 1.340 . S
N366 C363 1.368 . S
N366 C367 1.321 . S
N366 Co369 2.135 . S
C367 N365 1.340 . S
C367 N366 1.321 . S
C367 H391 0.930 . S
H368 C363 0.931 . S
Co369 N366 2.135 . S
Co369 N372 2.121 . S
Co369 O377 2.055 . S
Co369 O380 2.039 . S
Co369 N383 2.140 . S
C370 O371 1.227 . S
C370 O380 1.265 . S
O371 C370 1.227 . S
N372 Co369 2.121 . S
N372 C374 1.375 . S
N372 C375 1.313 . S
C373 C374 1.338 . S
C373 N376 1.377 . S
C373 H393 0.930 . S
C374 N372 1.375 . S
C374 C373 1.338 . S
C374 H378 0.931 . S
C375 N372 1.313 . S
C375 N376 1.344 . S
C375 H379 0.930 . S
N376 C373 1.377 . S
N376 C375 1.344 . S
O377 Co369 2.055 . S
O377 C381 1.253 . S
H378 C374 0.931 . S
H379 C375 0.930 . S
O380 Co369 2.039 . S
O380 C370 1.265 . S
C381 O377 1.253 . S
C381 O382 1.227 . S
O382 C381 1.227 . S
N383 Co369 2.140 . S
N383 C386 1.346 . S
N383 C387 1.345 . S
C384 C385 1.387 . S
C384 C388 1.391 . S
C385 C384 1.387 . S
C385 C386 1.369 . S
C385 H394 0.929 . S
C386 N383 1.346 . S
C386 C385 1.369 . S
C386 H389 0.928 . S
C387 N383 1.345 . S
C387 C388 1.371 . S
C387 H390 0.931 . S
C388 C384 1.391 . S
C388 C387 1.371 . S
C388 H395 0.930 . S
H389 C386 0.928 . S
H390 C387 0.931 . S
H391 C367 0.930 . S
H392 C364 0.930 . S
H393 C373 0.930 . S
H394 C385 0.929 . S
H395 C388 0.930 . S
H396 C402 0.930 . S
H397 C405 0.930 . S
H398 C406 0.930 . S
H399 C407 0.930 . S
H400 C410 0.930 . S
H401 C411 0.930 . S
C402 H396 0.930 . S
C402 C403 1.355 . S
C402 C404 1.415 . S
C403 C402 1.355 . S
C403 C405 1.419 . S
C404 C402 1.415 . S
C404 C409 1.425 . S
C404 C411 1.409 . S
C405 H397 0.930 . S
C405 C403 1.419 . S
C405 C406 1.362 . S
C406 H398 0.930 . S
C406 C405 1.362 . S
C406 C409 1.409 . S
C407 H399 0.930 . S
C407 C408 1.355 . S
C407 C409 1.415 . S
C408 C407 1.355 . S
C408 C410 1.419 . S
C409 C404 1.425 . S
C409 C406 1.409 . S
C409 C407 1.415 . S
C410 H400 0.930 . S
C410 C408 1.419 . S
C410 C411 1.362 . S
C411 H401 0.930 . S
C411 C404 1.409 . S
C411 C410 1.362 . S
H412 C418 0.930 . S
H413 C421 0.930 . S
H414 C422 0.930 . S
H415 C423 0.930 . S
H416 C426 0.930 . S
H417 C427 0.930 . S
C418 H412 0.930 . S
C418 C419 1.355 . S
C418 C420 1.415 . S
C419 C418 1.355 . S
C419 C421 1.419 1_655 S
C420 C418 1.415 . S
C420 C425 1.425 1_655 S
C420 C427 1.409 . S
C421 H413 0.930 . S
C421 C419 1.419 1_455 S
C421 C422 1.362 . S
C422 H414 0.930 . S
C422 C421 1.362 . S
C422 C425 1.409 . S
C423 H415 0.930 . S
C423 C424 1.355 . S
C423 C425 1.415 . S
C424 C423 1.355 . S
C424 C426 1.419 1_455 S
C425 C420 1.425 1_455 S
C425 C422 1.409 . S
C425 C423 1.415 . S
C426 H416 0.930 . S
C426 C424 1.419 1_655 S
C426 C427 1.362 . S
C427 H417 0.930 . S
C427 C420 1.409 . S
C427 C426 1.362 . S
H428 C434 0.930 . S
H429 C437 0.930 . S
H430 C438 0.930 . S
H431 C439 0.930 . S
H432 C442 0.930 . S
H433 C443 0.930 . S
C434 H428 0.930 . S
C434 C435 1.355 1_565 S
C434 C436 1.415 . S
C435 C434 1.355 1_545 S
C435 C437 1.419 . S
C436 C434 1.415 . S
C436 C441 1.425 1_565 S
C436 C443 1.409 . S
C437 H429 0.930 . S
C437 C435 1.419 . S
C437 C438 1.362 . S
C438 H430 0.930 . S
C438 C437 1.362 . S
C438 C441 1.409 . S
C439 H431 0.930 . S
C439 C440 1.355 1_545 S
C439 C441 1.415 . S
C440 C439 1.355 1_565 S
C440 C442 1.419 . S
C441 C436 1.425 1_545 S
C441 C438 1.409 . S
C441 C439 1.415 . S
C442 H432 0.930 . S
C442 C440 1.419 . S
C442 C443 1.362 . S
C443 H433 0.930 . S
C443 C436 1.409 . S
C443 C442 1.362 . S
H444 C450 0.930 . S
H445 C453 0.930 . S
H446 C454 0.930 . S
H447 C455 0.930 . S
H448 C458 0.930 . S
H449 C459 0.930 . S
C450 H444 0.930 . S
C450 C451 1.355 . S
C450 C452 1.415 . S
C451 C450 1.355 . S
C451 C453 1.419 . S
C452 C450 1.415 . S
C452 C457 1.425 . S
C452 C459 1.409 . S
C453 H445 0.930 . S
C453 C451 1.419 . S
C453 C454 1.362 . S
C454 H446 0.930 . S
C454 C453 1.362 . S
C454 C457 1.409 . S
C455 H447 0.930 . S
C455 C456 1.355 . S
C455 C457 1.415 . S
C456 C455 1.355 . S
C456 C458 1.419 . S
C457 C452 1.425 . S
C457 C454 1.409 . S
C457 C455 1.415 . S
C458 H448 0.930 . S
C458 C456 1.419 . S
C458 C459 1.362 . S
C459 H449 0.930 . S
C459 C452 1.409 . S
C459 C458 1.362 . S
H460 C466 0.930 . S
H461 C469 0.930 . S
H462 C470 0.930 . S
H463 C471 0.930 . S
H464 C474 0.930 . S
H465 C475 0.930 . S
C466 H460 0.930 . S
C466 C467 1.355 . S
C466 C468 1.415 . S
C467 C466 1.355 . S
C467 C469 1.419 1_455 S
C468 C466 1.415 . S
C468 C473 1.425 1_455 S
C468 C475 1.409 . S
C469 H461 0.930 . S
C469 C467 1.419 1_655 S
C469 C470 1.362 . S
C470 H462 0.930 . S
C470 C469 1.362 . S
C470 C473 1.409 . S
C471 H463 0.930 . S
C471 C472 1.355 . S
C471 C473 1.415 . S
C472 C471 1.355 . S
C472 C474 1.419 1_655 S
C473 C468 1.425 1_655 S
C473 C470 1.409 . S
C473 C471 1.415 . S
C474 H464 0.930 . S
C474 C472 1.419 1_455 S
C474 C475 1.362 . S
C475 H465 0.930 . S
C475 C468 1.409 . S
C475 C474 1.362 . S
H476 C482 0.930 . S
H477 C485 0.930 . S
H478 C486 0.930 . S
H479 C487 0.930 . S
H480 C490 0.930 . S
H481 C491 0.930 . S
C482 H476 0.930 . S
C482 C483 1.355 1_545 S
C482 C484 1.415 . S
C483 C482 1.355 1_565 S
C483 C485 1.419 . S
C484 C482 1.415 . S
C484 C489 1.425 1_545 S
C484 C491 1.409 . S
C485 H477 0.930 . S
C485 C483 1.419 . S
C485 C486 1.362 . S
C486 H478 0.930 . S
C486 C485 1.362 . S
C486 C489 1.409 . S
C487 H479 0.930 . S
C487 C488 1.355 1_565 S
C487 C489 1.415 . S
C488 C487 1.355 1_545 S
C488 C490 1.419 . S
C489 C484 1.425 1_565 S
C489 C486 1.409 . S
C489 C487 1.415 . S
C490 H480 0.930 . S
C490 C488 1.419 . S
C490 C491 1.362 . S
C491 H481 0.930 . S
C491 C484 1.409 . S
C491 C490 1.362 . S
H492 C498 0.930 . S
H493 C501 0.930 . S
H494 C502 0.930 . S
H495 C503 0.930 . S
H496 C506 0.930 . S
H497 C507 0.930 . S
C498 H492 0.930 . S
C498 C499 1.355 . S
C498 C500 1.415 . S
C499 C498 1.355 . S
C499 C501 1.419 . S
C500 C498 1.415 . S
C500 C505 1.425 1_554 S
C500 C507 1.409 1_554 S
C501 H493 0.930 . S
C501 C499 1.419 . S
C501 C502 1.362 . S
C502 H494 0.930 . S
C502 C501 1.362 . S
C502 C505 1.409 1_554 S
C503 H495 0.930 . S
C503 C504 1.355 . S
C503 C505 1.415 . S
C504 C503 1.355 . S
C504 C506 1.419 . S
C505 C500 1.425 1_556 S
C505 C502 1.409 1_556 S
C505 C503 1.415 . S
C506 H496 0.930 . S
C506 C504 1.419 . S
C506 C507 1.362 . S
C507 H497 0.930 . S
C507 C500 1.409 1_556 S
C507 C506 1.362 . S
H508 C514 0.930 . S
H509 C517 0.930 . S
H510 C518 0.930 . S
H511 C519 0.930 . S
H512 C522 0.930 . S
H513 C523 0.930 . S
C514 H508 0.930 . S
C514 C515 1.355 . S
C514 C516 1.415 . S
C515 C514 1.355 . S
C515 C517 1.419 . S
C516 C514 1.415 . S
C516 C521 1.425 . S
C516 C523 1.409 . S
C517 H509 0.930 . S
C517 C515 1.419 . S
C517 C518 1.362 . S
C518 H510 0.930 . S
C518 C517 1.362 . S
C518 C521 1.409 . S
C519 H511 0.930 . S
C519 C520 1.355 . S
C519 C521 1.415 . S
C520 C519 1.355 . S
C520 C522 1.419 . S
C521 C516 1.425 . S
C521 C518 1.409 . S
C521 C519 1.415 . S
C522 H512 0.930 . S
C522 C520 1.419 . S
C522 C523 1.362 . S
C523 H513 0.930 . S
C523 C516 1.409 . S
C523 C522 1.362 . S
H524 C530 0.930 . S
H525 C533 0.930 . S
H526 C534 0.930 . S
H527 C535 0.930 . S
H528 C538 0.930 . S
H529 C539 0.930 . S
C530 H524 0.930 . S
C530 C531 1.355 . S
C530 C532 1.415 . S
C531 C530 1.355 . S
C531 C533 1.419 . S
C532 C530 1.415 . S
C532 C537 1.425 . S
C532 C539 1.409 . S
C533 H525 0.930 . S
C533 C531 1.419 . S
C533 C534 1.362 . S
C534 H526 0.930 . S
C534 C533 1.362 . S
C534 C537 1.409 . S
C535 H527 0.930 . S
C535 C536 1.355 . S
C535 C537 1.415 . S
C536 C535 1.355 . S
C536 C538 1.419 . S
C537 C532 1.425 . S
C537 C534 1.409 . S
C537 C535 1.415 . S
C538 H528 0.930 . S
C538 C536 1.419 . S
C538 C539 1.362 . S
C539 H529 0.930 . S
C539 C532 1.409 . S
C539 C538 1.362 . S
H540 C546 0.930 . S
H541 C549 0.930 . S
H542 C550 0.930 . S
H543 C551 0.930 . S
H544 C554 0.930 . S
H545 C555 0.930 . S
C546 H540 0.930 . S
C546 C547 1.355 . S
C546 C548 1.415 . S
C547 C546 1.355 . S
C547 C549 1.419 . S
C548 C546 1.415 . S
C548 C553 1.425 1_554 S
C548 C555 1.409 1_554 S
C549 H541 0.930 . S
C549 C547 1.419 . S
C549 C550 1.362 . S
C550 H542 0.930 . S
C550 C549 1.362 . S
C550 C553 1.409 1_554 S
C551 H543 0.930 . S
C551 C552 1.355 . S
C551 C553 1.415 . S
C552 C551 1.355 . S
C552 C554 1.419 . S
C553 C548 1.425 1_556 S
C553 C550 1.409 1_556 S
C553 C551 1.415 . S
C554 H544 0.930 . S
C554 C552 1.419 . S
C554 C555 1.362 . S
C555 H545 0.930 . S
C555 C548 1.409 1_556 S
C555 C554 1.362 . S
H556 C562 0.930 . S
H557 C565 0.930 . S
H558 C566 0.930 . S
H559 C567 0.930 . S
H560 C570 0.930 . S
H561 C571 0.930 . S
C562 H556 0.930 . S
C562 C563 1.355 . S
C562 C564 1.415 . S
C563 C562 1.355 . S
C563 C565 1.419 . S
C564 C562 1.415 . S
C564 C569 1.425 . S
C564 C571 1.409 . S
C565 H557 0.930 . S
C565 C563 1.419 . S
C565 C566 1.362 . S
C566 H558 0.930 . S
C566 C565 1.362 . S
C566 C569 1.409 . S
C567 H559 0.930 . S
C567 C568 1.355 . S
C567 C569 1.415 . S
C568 C567 1.355 . S
C568 C570 1.419 . S
C569 C564 1.425 . S
C569 C566 1.409 . S
C569 C567 1.415 . S
C570 H560 0.930 . S
C570 C568 1.419 . S
C570 C571 1.362 . S
C571 H561 0.930 . S
C571 C564 1.409 . S
C571 C570 1.362 . S
H572 C578 0.930 . S
H573 C581 0.930 . S
H574 C582 0.930 . S
H575 C583 0.930 . S
H576 C586 0.930 . S
H577 C587 0.930 . S
C578 H572 0.930 . S
C578 C579 1.355 . S
C578 C580 1.415 . S
C579 C578 1.355 . S
C579 C581 1.419 . S
C580 C578 1.415 . S
C580 C585 1.425 . S
C580 C587 1.409 . S
C581 H573 0.930 . S
C581 C579 1.419 . S
C581 C582 1.362 . S
C582 H574 0.930 . S
C582 C581 1.362 . S
C582 C585 1.409 . S
C583 H575 0.930 . S
C583 C584 1.355 . S
C583 C585 1.415 . S
C584 C583 1.355 . S
C584 C586 1.419 . S
C585 C580 1.425 . S
C585 C582 1.409 . S
C585 C583 1.415 . S
C586 H576 0.930 . S
C586 C584 1.419 . S
C586 C587 1.362 . S
C587 H577 0.930 . S
C587 C580 1.409 . S
C587 C586 1.362 . S
H588 C594 0.930 . S
H589 C597 0.930 . S
H590 C598 0.930 . S
H591 C599 0.930 . S
H592 C602 0.930 . S
H593 C603 0.930 . S
C594 H588 0.930 . S
C594 C595 1.355 . S
C594 C596 1.415 . S
C595 C594 1.355 . S
C595 C597 1.419 . S
C596 C594 1.415 . S
C596 C601 1.425 . S
C596 C603 1.409 . S
C597 H589 0.930 . S
C597 C595 1.419 . S
C597 C598 1.362 . S
C598 H590 0.930 . S
C598 C597 1.362 . S
C598 C601 1.409 . S
C599 H591 0.930 . S
C599 C600 1.355 . S
C599 C601 1.415 . S
C600 C599 1.355 . S
C600 C602 1.419 . S
C601 C596 1.425 . S
C601 C598 1.409 . S
C601 C599 1.415 . S
C602 H592 0.930 . S
C602 C600 1.419 . S
C602 C603 1.362 . S
C603 H593 0.930 . S
C603 C596 1.409 . S
C603 C602 1.362 . S
H604 C610 0.930 . S
H605 C613 0.930 . S
H606 C614 0.930 . S
H607 C615 0.930 . S
H608 C618 0.930 . S
H609 C619 0.930 . S
C610 H604 0.930 . S
C610 C611 1.355 . S
C610 C612 1.415 1_655 S
C611 C610 1.355 . S
C611 C613 1.419 . S
C612 C610 1.415 1_455 S
C612 C617 1.425 1_455 S
C612 C619 1.409 . S
C613 H605 0.930 . S
C613 C611 1.419 . S
C613 C614 1.362 . S
C614 H606 0.930 . S
C614 C613 1.362 . S
C614 C617 1.409 . S
C615 H607 0.930 . S
C615 C616 1.355 . S
C615 C617 1.415 1_455 S
C616 C615 1.355 . S
C616 C618 1.419 . S
C617 C612 1.425 1_655 S
C617 C614 1.409 . S
C617 C615 1.415 1_655 S
C618 H608 0.930 . S
C618 C616 1.419 . S
C618 C619 1.362 . S
C619 H609 0.930 . S
C619 C612 1.409 . S
C619 C618 1.362 . S
H620 C626 0.930 . S
H621 C629 0.930 . S
H622 C630 0.930 . S
H623 C631 0.930 . S
H624 C634 0.930 . S
H625 C635 0.930 . S
C626 H620 0.930 . S
C626 C627 1.355 . S
C626 C628 1.415 1_556 S
C627 C626 1.355 . S
C627 C629 1.419 . S
C628 C626 1.415 1_554 S
C628 C633 1.425 1_564 S
C628 C635 1.409 . S
C629 H621 0.930 . S
C629 C627 1.419 . S
C629 C630 1.362 1_565 S
C630 H622 0.930 . S
C630 C629 1.362 1_545 S
C630 C633 1.409 . S
C631 H623 0.930 . S
C631 C632 1.355 . S
C631 C633 1.415 1_554 S
C632 C631 1.355 . S
C632 C634 1.419 . S
C633 C628 1.425 1_546 S
C633 C630 1.409 . S
C633 C631 1.415 1_556 S
C634 H624 0.930 . S
C634 C632 1.419 . S
C634 C635 1.362 1_545 S
C635 H625 0.930 . S
C635 C628 1.409 . S
C635 C634 1.362 1_565 S
H636 C642 0.930 . S
H637 C645 0.930 . S
H638 C646 0.930 . S
H639 C647 0.930 . S
H640 C650 0.930 . S
H641 C651 0.930 . S
C642 H636 0.930 . S
C642 C643 1.355 . S
C642 C644 1.415 . S
C643 C642 1.355 . S
C643 C645 1.419 . S
C644 C642 1.415 . S
C644 C649 1.425 . S
C644 C651 1.409 . S
C645 H637 0.930 . S
C645 C643 1.419 . S
C645 C646 1.362 . S
C646 H638 0.930 . S
C646 C645 1.362 . S
C646 C649 1.409 . S
C647 H639 0.930 . S
C647 C648 1.355 . S
C647 C649 1.415 . S
C648 C647 1.355 . S
C648 C650 1.419 . S
C649 C644 1.425 . S
C649 C646 1.409 . S
C649 C647 1.415 . S
C650 H640 0.930 . S
C650 C648 1.419 . S
C650 C651 1.362 . S
C651 H641 0.930 . S
C651 C644 1.409 . S
C651 C650 1.362 . S
H652 C658 0.930 . S
H653 C661 0.930 . S
H654 C662 0.930 . S
H655 C663 0.930 . S
H656 C666 0.930 . S
H657 C667 0.930 . S
C658 H652 0.930 . S
C658 C659 1.355 . S
C658 C660 1.415 . S
C659 C658 1.355 . S
C659 C661 1.419 . S
C660 C658 1.415 . S
C660 C665 1.425 1_655 S
C660 C667 1.409 . S
C661 H653 0.930 . S
C661 C659 1.419 . S
C661 C662 1.362 1_655 S
C662 H654 0.930 . S
C662 C661 1.362 1_455 S
C662 C665 1.409 . S
C663 H655 0.930 . S
C663 C664 1.355 . S
C663 C665 1.415 . S
C664 C663 1.355 . S
C664 C666 1.419 . S
C665 C660 1.425 1_455 S
C665 C662 1.409 . S
C665 C663 1.415 . S
C666 H656 0.930 . S
C666 C664 1.419 . S
C666 C667 1.362 1_455 S
C667 H657 0.930 . S
C667 C660 1.409 . S
C667 C666 1.362 1_655 S
H668 C674 0.930 . S
H669 C677 0.930 . S
H670 C678 0.930 . S
H671 C679 0.930 . S
H672 C682 0.930 . S
H673 C683 0.930 . S
C674 H668 0.930 . S
C674 C675 1.355 . S
C674 C676 1.415 1_565 S
C675 C674 1.355 . S
C675 C677 1.419 . S
C676 C674 1.415 1_545 S
C676 C681 1.425 1_544 S
C676 C683 1.409 . S
C677 H669 0.930 . S
C677 C675 1.419 . S
C677 C678 1.362 1_554 S
C678 H670 0.930 . S
C678 C677 1.362 1_556 S
C678 C681 1.409 . S
C679 H671 0.930 . S
C679 C680 1.355 . S
C679 C681 1.415 1_545 S
C680 C679 1.355 . S
C680 C682 1.419 . S
C681 C676 1.425 1_566 S
C681 C678 1.409 . S
C681 C679 1.415 1_565 S
C682 H672 0.930 . S
C682 C680 1.419 . S
C682 C683 1.362 1_556 S
C683 H673 0.930 . S
C683 C676 1.409 . S
C683 C682 1.362 1_554 S
H684 C690 0.930 . S
H685 C693 0.930 . S
H686 C694 0.930 . S
H687 C695 0.930 . S
H688 C698 0.930 . S
H689 C699 0.930 . S
C690 H684 0.930 . S
C690 C691 1.355 . S
C690 C692 1.415 . S
C691 C690 1.355 . S
C691 C693 1.419 . S
C692 C690 1.415 . S
C692 C697 1.425 . S
C692 C699 1.409 . S
C693 H685 0.930 . S
C693 C691 1.419 . S
C693 C694 1.362 . S
C694 H686 0.930 . S
C694 C693 1.362 . S
C694 C697 1.409 . S
C695 H687 0.930 . S
C695 C696 1.355 . S
C695 C697 1.415 . S
C696 C695 1.355 . S
C696 C698 1.419 . S
C697 C692 1.425 . S
C697 C694 1.409 . S
C697 C695 1.415 . S
C698 H688 0.930 . S
C698 C696 1.419 . S
C698 C699 1.362 . S
C699 H689 0.930 . S
C699 C692 1.409 . S
C699 C698 1.362 . S
H700 C706 0.930 . S
H701 C709 0.930 . S
H702 C710 0.930 . S
H703 C711 0.930 . S
H704 C714 0.930 . S
H705 C715 0.930 . S
C706 H700 0.930 . S
C706 C707 1.355 . S
C706 C708 1.415 . S
C707 C706 1.355 . S
C707 C709 1.419 . S
C708 C706 1.415 . S
C708 C713 1.425 . S
C708 C715 1.409 . S
C709 H701 0.930 . S
C709 C707 1.419 . S
C709 C710 1.362 . S
C710 H702 0.930 . S
C710 C709 1.362 . S
C710 C713 1.409 . S
C711 H703 0.930 . S
C711 C712 1.355 . S
C711 C713 1.415 . S
C712 C711 1.355 . S
C712 C714 1.419 . S
C713 C708 1.425 . S
C713 C710 1.409 . S
C713 C711 1.415 . S
C714 H704 0.930 . S
C714 C712 1.419 . S
C714 C715 1.362 . S
C715 H705 0.930 . S
C715 C708 1.409 . S
C715 C714 1.362 . S
H716 C722 0.930 . S
H717 C725 0.930 . S
H718 C726 0.930 . S
H719 C727 0.930 . S
H720 C730 0.930 . S
H721 C731 0.930 . S
C722 H716 0.930 . S
C722 C723 1.355 . S
C722 C724 1.415 . S
C723 C722 1.355 . S
C723 C725 1.419 1_554 S
C724 C722 1.415 . S
C724 C729 1.425 1_554 S
C724 C731 1.409 . S
C725 H717 0.930 . S
C725 C723 1.419 1_556 S
C725 C726 1.362 . S
C726 H718 0.930 . S
C726 C725 1.362 . S
C726 C729 1.409 . S
C727 H719 0.930 . S
C727 C728 1.355 . S
C727 C729 1.415 . S
C728 C727 1.355 . S
C728 C730 1.419 1_556 S
C729 C724 1.425 1_556 S
C729 C726 1.409 . S
C729 C727 1.415 . S
C730 H720 0.930 . S
C730 C728 1.419 1_554 S
C730 C731 1.362 . S
C731 H721 0.930 . S
C731 C724 1.409 . S
C731 C730 1.362 . S
H732 C738 0.930 . S
H733 C741 0.930 . S
H734 C742 0.930 . S
H735 C743 0.930 . S
H736 C746 0.930 . S
H737 C747 0.930 . S
C738 H732 0.930 . S
C738 C739 1.355 . S
C738 C740 1.415 . S
C739 C738 1.355 . S
C739 C741 1.419 . S
C740 C738 1.415 . S
C740 C745 1.425 . S
C740 C747 1.409 . S
C741 H733 0.930 . S
C741 C739 1.419 . S
C741 C742 1.362 . S
C742 H734 0.930 . S
C742 C741 1.362 . S
C742 C745 1.409 . S
C743 H735 0.930 . S
C743 C744 1.355 . S
C743 C745 1.415 . S
C744 C743 1.355 . S
C744 C746 1.419 . S
C745 C740 1.425 . S
C745 C742 1.409 . S
C745 C743 1.415 . S
C746 H736 0.930 . S
C746 C744 1.419 . S
C746 C747 1.362 . S
C747 H737 0.930 . S
C747 C740 1.409 . S
C747 C746 1.362 . S
H748 C754 0.930 . S
H749 C757 0.930 . S
H750 C758 0.930 . S
H751 C759 0.930 . S
H752 C762 0.930 . S
H753 C763 0.930 . S
C754 H748 0.930 . S
C754 C755 1.355 . S
C754 C756 1.415 . S
C755 C754 1.355 . S
C755 C757 1.419 . S
C756 C754 1.415 . S
C756 C761 1.425 . S
C756 C763 1.409 . S
C757 H749 0.930 . S
C757 C755 1.419 . S
C757 C758 1.362 . S
C758 H750 0.930 . S
C758 C757 1.362 . S
C758 C761 1.409 . S
C759 H751 0.930 . S
C759 C760 1.355 . S
C759 C761 1.415 . S
C760 C759 1.355 . S
C760 C762 1.419 . S
C761 C756 1.425 . S
C761 C758 1.409 . S
C761 C759 1.415 . S
C762 H752 0.930 . S
C762 C760 1.419 . S
C762 C763 1.362 . S
C763 H753 0.930 . S
C763 C756 1.409 . S
C763 C762 1.362 . S
H764 C770 0.930 . S
H765 C773 0.930 . S
H766 C774 0.930 . S
H767 C775 0.930 . S
H768 C778 0.930 . S
H769 C779 0.930 . S
C770 H764 0.930 . S
C770 C771 1.355 1_554 S
C770 C772 1.415 . S
C771 C770 1.355 1_556 S
C771 C773 1.419 . S
C772 C770 1.415 . S
C772 C777 1.425 1_554 S
C772 C779 1.409 . S
C773 H765 0.930 . S
C773 C771 1.419 . S
C773 C774 1.362 . S
C774 H766 0.930 . S
C774 C773 1.362 . S
C774 C777 1.409 . S
C775 H767 0.930 . S
C775 C776 1.355 1_556 S
C775 C777 1.415 . S
C776 C775 1.355 1_554 S
C776 C778 1.419 . S
C777 C772 1.425 1_556 S
C777 C774 1.409 . S
C777 C775 1.415 . S
C778 H768 0.930 . S
C778 C776 1.419 . S
C778 C779 1.362 . S
C779 H769 0.930 . S
C779 C772 1.409 . S
C779 C778 1.362 . S
H780 C786 0.930 . S
H781 C789 0.930 . S
H782 C790 0.930 . S
H783 C791 0.930 . S
H784 C794 0.930 . S
H785 C795 0.930 . S
C786 H780 0.930 . S
C786 C787 1.355 . S
C786 C788 1.415 . S
C787 C786 1.355 . S
C787 C789 1.419 . S
C788 C786 1.415 . S
C788 C793 1.425 . S
C788 C795 1.409 . S
C789 H781 0.930 . S
C789 C787 1.419 . S
C789 C790 1.362 . S
C790 H782 0.930 . S
C790 C789 1.362 . S
C790 C793 1.409 . S
C791 H783 0.930 . S
C791 C792 1.355 . S
C791 C793 1.415 . S
C792 C791 1.355 . S
C792 C794 1.419 . S
C793 C788 1.425 . S
C793 C790 1.409 . S
C793 C791 1.415 . S
C794 H784 0.930 . S
C794 C792 1.419 . S
C794 C795 1.362 . S
C795 H785 0.930 . S
C795 C788 1.409 . S
C795 C794 1.362 . S
H796 C802 0.930 . S
H797 C805 0.930 . S
H798 C806 0.930 . S
H799 C807 0.930 . S
H800 C810 0.930 . S
H801 C811 0.930 . S
C802 H796 0.930 . S
C802 C803 1.355 . S
C802 C804 1.415 . S
C803 C802 1.355 . S
C803 C805 1.419 . S
C804 C802 1.415 . S
C804 C809 1.425 . S
C804 C811 1.409 . S
C805 H797 0.930 . S
C805 C803 1.419 . S
C805 C806 1.362 . S
C806 H798 0.930 . S
C806 C805 1.362 . S
C806 C809 1.409 . S
C807 H799 0.930 . S
C807 C808 1.355 . S
C807 C809 1.415 . S
C808 C807 1.355 . S
C808 C810 1.419 . S
C809 C804 1.425 . S
C809 C806 1.409 . S
C809 C807 1.415 . S
C810 H800 0.930 . S
C810 C808 1.419 . S
C810 C811 1.362 . S
C811 H801 0.930 . S
C811 C804 1.409 . S
C811 C810 1.362 . S
H812 C818 0.930 . S
H813 C821 0.930 . S
H814 C822 0.930 . S
H815 C823 0.930 . S
H816 C826 0.930 . S
H817 C827 0.930 . S
C818 H812 0.930 . S
C818 C819 1.355 . S
C818 C820 1.415 . S
C819 C818 1.355 . S
C819 C821 1.419 . S
C820 C818 1.415 . S
C820 C825 1.425 . S
C820 C827 1.409 . S
C821 H813 0.930 . S
C821 C819 1.419 . S
C821 C822 1.362 . S
C822 H814 0.930 . S
C822 C821 1.362 . S
C822 C825 1.409 . S
C823 H815 0.930 . S
C823 C824 1.355 . S
C823 C825 1.415 . S
C824 C823 1.355 . S
C824 C826 1.419 . S
C825 C820 1.425 . S
C825 C822 1.409 . S
C825 C823 1.415 . S
C826 H816 0.930 . S
C826 C824 1.419 . S
C826 C827 1.362 . S
C827 H817 0.930 . S
C827 C820 1.409 . S
C827 C826 1.362 . S
H828 C834 0.930 . S
H829 C837 0.930 . S
H830 C838 0.930 . S
H831 C839 0.930 . S
H832 C842 0.930 . S
H833 C843 0.930 . S
C834 H828 0.930 . S
C834 C835 1.355 . S
C834 C836 1.415 . S
C835 C834 1.355 . S
C835 C837 1.419 . S
C836 C834 1.415 . S
C836 C841 1.425 . S
C836 C843 1.409 . S
C837 H829 0.930 . S
C837 C835 1.419 . S
C837 C838 1.362 . S
C838 H830 0.930 . S
C838 C837 1.362 . S
C838 C841 1.409 . S
C839 H831 0.930 . S
C839 C840 1.355 . S
C839 C841 1.415 . S
C840 C839 1.355 . S
C840 C842 1.419 . S
C841 C836 1.425 . S
C841 C838 1.409 . S
C841 C839 1.415 . S
C842 H832 0.930 . S
C842 C840 1.419 . S
C842 C843 1.362 . S
C843 H833 0.930 . S
C843 C836 1.409 . S
C843 C842 1.362 . S
H844 C850 0.930 . S
H845 C853 0.930 . S
H846 C854 0.930 . S
H847 C855 0.930 . S
H848 C858 0.930 . S
H849 C859 0.930 . S
C850 H844 0.930 . S
C850 C851 1.355 . S
C850 C852 1.415 . S
C851 C850 1.355 . S
C851 C853 1.419 . S
C852 C850 1.415 . S
C852 C857 1.425 . S
C852 C859 1.409 . S
C853 H845 0.930 . S
C853 C851 1.419 . S
C853 C854 1.362 . S
C854 H846 0.930 . S
C854 C853 1.362 . S
C854 C857 1.409 . S
C855 H847 0.930 . S
C855 C856 1.355 . S
C855 C857 1.415 . S
C856 C855 1.355 . S
C856 C858 1.419 . S
C857 C852 1.425 . S
C857 C854 1.409 . S
C857 C855 1.415 . S
C858 H848 0.930 . S
C858 C856 1.419 . S
C858 C859 1.362 . S
C859 H849 0.930 . S
C859 C852 1.409 . S
C859 C858 1.362 . S
H860 C866 0.930 . S
H861 C869 0.930 . S
H862 C870 0.930 . S
H863 C871 0.930 . S
H864 C874 0.930 . S
H865 C875 0.930 . S
C866 H860 0.930 . S
C866 C867 1.355 . S
C866 C868 1.415 . S
C867 C866 1.355 . S
C867 C869 1.419 . S
C868 C866 1.415 . S
C868 C873 1.425 . S
C868 C875 1.409 . S
C869 H861 0.930 . S
C869 C867 1.419 . S
C869 C870 1.362 . S
C870 H862 0.930 . S
C870 C869 1.362 . S
C870 C873 1.409 . S
C871 H863 0.930 . S
C871 C872 1.355 . S
C871 C873 1.415 . S
C872 C871 1.355 . S
C872 C874 1.419 . S
C873 C868 1.425 . S
C873 C870 1.409 . S
C873 C871 1.415 . S
C874 H864 0.930 . S
C874 C872 1.419 . S
C874 C875 1.362 . S
C875 H865 0.930 . S
C875 C868 1.409 . S
C875 C874 1.362 . S
C403 C120 0.333 . S
C408 C21 0.396 . S
C419 C54 0.561 . S
C424 C153 0.525 . S
C435 C186 0.330 . S
C440 C87 0.406 . S
C451 C219 0.339 . S
C456 C318 0.382 . S
C467 C351 0.560 . S
C472 C252 0.529 . S
C483 C285 0.339 . S
C488 C384 0.380 . S
C499 N13 2.065 . S
C504 N343 2.058 . S
C515 N376 2.089 . S
C520 N46 2.085 . S
C531 N79 2.048 . S
C536 N211 2.045 . S
C547 N112 2.052 . S
C552 N244 2.047 . S
C563 N145 2.090 . S
C568 N277 2.093 . S
C579 N178 2.074 . S
C584 N310 2.067 . S
C595 C304 1.917 . S
C600 C7 1.858 . S
C611 C40 1.872 . S
C616 C337 1.907 . S
C627 C73 1.908 . S
C632 C370 1.845 . S
C643 C205 1.908 . S
C648 C106 1.846 . S
C659 C238 1.857 . S
C664 C139 1.895 . S
C675 C271 1.896 . S
C680 C172 1.883 . S
C691 N2 1.243 . S
C696 N200 1.190 . S
C707 N35 1.171 . S
C712 N233 1.220 . S
C723 N266 1.298 . S
C728 N68 1.293 . S
C739 N101 1.194 . S
C744 N299 1.153 . S
C755 N332 1.260 . S
C760 N134 1.209 . S
C771 N167 1.148 . S
C776 N365 1.184 . S
C787 C282 1.415 . S
C792 C18 1.360 . S
C803 C315 1.365 . S
C808 C51 1.407 . S
C819 C348 1.410 . S
C824 C84 1.363 . S
C835 C117 1.367 . S
C840 C381 1.419 . S
C851 C216 1.366 . S
C856 C150 1.405 . S
C867 C249 1.416 . S
C872 C183 1.373 . S
