# Generated by pormake.
# Topology atn, (4)-cn, num edge types: 1
# Building blocks:
#     Node 0, Type 0, BuildingBlock: QUQFOY_clean_sbu_3, # of connection points: 4
#     Node 1, Type 0, BuildingBlock: QUQFOY_clean_sbu_3, # of connection points: 4
#     Node 2, Type 0, BuildingBlock: QUQFOY_clean_sbu_3, # of connection points: 4
#     Node 3, Type 0, BuildingBlock: QUQFOY_clean_sbu_3, # of connection points: 4
#     Node 4, Type 0, BuildingBlock: QUQFOY_clean_sbu_3, # of connection points: 4
#     Node 5, Type 0, BuildingBlock: QUQFOY_clean_sbu_3, # of connection points: 4
#     Node 6, Type 0, BuildingBlock: QUQFOY_clean_sbu_3, # of connection points: 4
#     Node 7, Type 0, BuildingBlock: QUQFOY_clean_sbu_3, # of connection points: 4
#     Node 8, Type 0, BuildingBlock: QUQFOY_clean_sbu_3, # of connection points: 4
#     Node 9, Type 0, BuildingBlock: QUQFOY_clean_sbu_3, # of connection points: 4
#     Node 10, Type 0, BuildingBlock: QUQFOY_clean_sbu_3, # of connection points: 4
#     Node 11, Type 0, BuildingBlock: QUQFOY_clean_sbu_3, # of connection points: 4
#     Node 12, Type 0, BuildingBlock: QUQFOY_clean_sbu_3, # of connection points: 4
#     Node 13, Type 0, BuildingBlock: QUQFOY_clean_sbu_3, # of connection points: 4
#     Node 14, Type 0, BuildingBlock: QUQFOY_clean_sbu_3, # of connection points: 4
#     Node 15, Type 0, BuildingBlock: QUQFOY_clean_sbu_3, # of connection points: 4
#     Edge 16, Type (0, 0), BuildingBlock: CIFDUS_clean_linker_0, # of connection points: 2
#     Edge 17, Type (0, 0), BuildingBlock: CIFDUS_clean_linker_0, # of connection points: 2
#     Edge 18, Type (0, 0), BuildingBlock: CIFDUS_clean_linker_0, # of connection points: 2
#     Edge 19, Type (0, 0), BuildingBlock: CIFDUS_clean_linker_0, # of connection points: 2
#     Edge 20, Type (0, 0), BuildingBlock: CIFDUS_clean_linker_0, # of connection points: 2
#     Edge 21, Type (0, 0), BuildingBlock: CIFDUS_clean_linker_0, # of connection points: 2
#     Edge 22, Type (0, 0), BuildingBlock: CIFDUS_clean_linker_0, # of connection points: 2
#     Edge 23, Type (0, 0), BuildingBlock: CIFDUS_clean_linker_0, # of connection points: 2
#     Edge 24, Type (0, 0), BuildingBlock: CIFDUS_clean_linker_0, # of connection points: 2
#     Edge 25, Type (0, 0), BuildingBlock: CIFDUS_clean_linker_0, # of connection points: 2
#     Edge 26, Type (0, 0), BuildingBlock: CIFDUS_clean_linker_0, # of connection points: 2
#     Edge 27, Type (0, 0), BuildingBlock: CIFDUS_clean_linker_0, # of connection points: 2
#     Edge 28, Type (0, 0), BuildingBlock: CIFDUS_clean_linker_0, # of connection points: 2
#     Edge 29, Type (0, 0), BuildingBlock: CIFDUS_clean_linker_0, # of connection points: 2
#     Edge 30, Type (0, 0), BuildingBlock: CIFDUS_clean_linker_0, # of connection points: 2
#     Edge 31, Type (0, 0), BuildingBlock: CIFDUS_clean_linker_0, # of connection points: 2
#     Edge 32, Type (0, 0), BuildingBlock: CIFDUS_clean_linker_0, # of connection points: 2
#     Edge 33, Type (0, 0), BuildingBlock: CIFDUS_clean_linker_0, # of connection points: 2
#     Edge 34, Type (0, 0), BuildingBlock: CIFDUS_clean_linker_0, # of connection points: 2
#     Edge 35, Type (0, 0), BuildingBlock: CIFDUS_clean_linker_0, # of connection points: 2
#     Edge 36, Type (0, 0), BuildingBlock: CIFDUS_clean_linker_0, # of connection points: 2
#     Edge 37, Type (0, 0), BuildingBlock: CIFDUS_clean_linker_0, # of connection points: 2
#     Edge 38, Type (0, 0), BuildingBlock: CIFDUS_clean_linker_0, # of connection points: 2
#     Edge 39, Type (0, 0), BuildingBlock: CIFDUS_clean_linker_0, # of connection points: 2
#     Edge 40, Type (0, 0), BuildingBlock: CIFDUS_clean_linker_0, # of connection points: 2
#     Edge 41, Type (0, 0), BuildingBlock: CIFDUS_clean_linker_0, # of connection points: 2
#     Edge 42, Type (0, 0), BuildingBlock: CIFDUS_clean_linker_0, # of connection points: 2
#     Edge 43, Type (0, 0), BuildingBlock: CIFDUS_clean_linker_0, # of connection points: 2
#     Edge 44, Type (0, 0), BuildingBlock: CIFDUS_clean_linker_0, # of connection points: 2
#     Edge 45, Type (0, 0), BuildingBlock: CIFDUS_clean_linker_0, # of connection points: 2
#     Edge 46, Type (0, 0), BuildingBlock: CIFDUS_clean_linker_0, # of connection points: 2
#     Edge 47, Type (0, 0), BuildingBlock: CIFDUS_clean_linker_0, # of connection points: 2
# Relax obj value: 0.028
# Max RMSD: 0.058
# Mean RMSD: 0.058
data_MOF--net-atn--node1-QUQFOY_clean_sbu_3--edge1-CIFDUS_clean_linker_0
_symmetry_space_group_name_H-M    P1
_symmetry_Int_Tables_number       1
_symmetry_cell_setting            triclinic
loop_
_symmetry_equiv_pos_as_xyz
'x, y, z'
_cell_length_a     55.256988
_cell_length_b     55.552497
_cell_length_c     25.284537
_cell_angle_alpha  90.254006
_cell_angle_beta   90.671295
_cell_angle_gamma 90.10418
loop_
_atom_site_label
_atom_site_type_symbol
_atom_site_fract_x
_atom_site_fract_y
_atom_site_fract_z
_atom_type_partial_charge
C0 C 0.1562 0.3458 0.89171 0.0
O1 O 0.14567 0.32952 0.9181 0.0
Cd2 Cd 0.15157 0.32257 0.0108 0.0
O3 O 0.17016 0.36101 0.91462 0.0
Cd4 Cd 0.1849 0.37191 0.00479 0.0
C5 C 0.21452 0.31884 0.01254 0.0
O6 O 0.14898 0.36053 0.05234 0.0
O7 O 0.18029 0.36871 0.10089 0.0
O8 O 0.17325 0.41305 -0.00814 0.0
C9 C 0.15819 0.36256 0.09824 0.0
O10 O 0.19348 0.30971 0.01732 0.0
C11 C 0.19407 0.42224 -0.00115 0.0
O12 O 0.21725 0.34136 0.00463 0.0
O13 O 0.21158 0.40781 0.00676 0.0
C14 C 0.63182 0.14568 0.88356 0.0
O15 O 0.64594 0.13287 0.91173 0.0
Cd16 Cd 0.64992 0.13778 0.00597 0.0
O17 O 0.61741 0.16059 0.90506 0.0
Cd18 Cd 0.60264 0.17547 -0.00872 0.0
C19 C 0.65786 0.20056 0.00791 0.0
O20 O 0.61025 0.13879 0.03906 0.0
O21 O 0.60017 0.16913 0.08718 0.0
O22 O 0.56438 0.16586 0.9512 0.0
C23 C 0.60667 0.14727 0.08489 0.0
O24 O 0.66488 0.17886 0.01374 0.0
C25 C 0.55336 0.18492 0.96447 0.0
O26 O 0.6358 0.20539 -0.0035 0.0
O27 O 0.56557 0.20068 -0.00995 0.0
C28 C 0.83204 0.6255 0.8647 0.0
O29 O 0.84397 0.64047 0.8927 0.0
Cd30 Cd 0.82993 0.65076 -0.02124 0.0
O31 O 0.81484 0.61347 0.88497 0.0
Cd32 Cd 0.79626 0.60569 0.97249 0.0
C33 C 0.76794 0.65743 0.95272 0.0
O34 O 0.82897 0.61613 0.03398 0.0
O35 O 0.79262 0.61769 0.06483 0.0
O36 O 0.81134 0.56567 0.96531 0.0
C37 C 0.81525 0.6185 0.07351 0.0
O38 O 0.78909 0.66581 0.9617 0.0
C39 C 0.79153 0.5546 0.97168 0.0
O40 O 0.76398 0.63481 0.9528 0.0
O41 O 0.77264 0.56746 -0.02283 0.0
C42 C 0.34466 0.83137 0.89768 0.0
O43 O 0.33018 0.84272 0.92741 0.0
Cd44 Cd 0.32054 0.83066 0.01483 0.0
O45 O 0.3571 0.81373 0.91532 0.0
Cd46 Cd 0.36638 0.79144 -0.0017 0.0
C47 C 0.30952 0.76956 -0.01325 0.0
O48 O 0.35839 0.82472 0.0556 0.0
O49 O 0.36271 0.79071 0.09524 0.0
O50 O 0.40865 0.80012 -0.01081 0.0
C51 C 0.35883 0.81317 0.09853 0.0
O52 O 0.30313 0.79105 -0.00235 0.0
C53 C 0.41611 0.77856 -0.00952 0.0
O54 O 0.33182 0.76379 -0.01617 0.0
O55 O 0.40014 0.76207 -0.00719 0.0
C56 C 0.14711 0.64882 0.08128 0.0
O57 O 0.13852 0.66453 0.0499 0.0
Cd58 Cd 0.1474 0.66615 0.95761 0.0
O59 O 0.16039 0.63178 0.06413 0.0
Cd60 Cd 0.17681 0.61478 -0.01904 0.0
C61 C 0.21061 0.66519 0.96826 0.0
O62 O 0.14217 0.62609 0.92839 0.0
O63 O 0.17188 0.61176 0.88405 0.0
O64 O 0.16271 0.57703 0.01496 0.0
C65 C 0.15062 0.62031 0.88388 0.0
O66 O 0.19048 0.67537 0.95764 0.0
C67 C 0.18158 0.56495 0.00489 0.0
O68 O 0.21143 0.64296 -0.01923 0.0
O69 O 0.19927 0.57636 -0.01487 0.0
C70 C 0.34341 0.14527 0.07881 0.0
O71 O 0.32822 0.1338 0.05028 0.0
Cd72 Cd 0.31614 0.1486 0.96518 0.0
O73 O 0.35491 0.16309 0.0598 0.0
Cd74 Cd 0.36018 0.18482 0.97489 0.0
C75 C 0.30621 0.20885 -0.00199 0.0
O76 O 0.34951 0.15471 0.9079 0.0
O77 O 0.34558 0.19208 0.88547 0.0
O78 O 0.40225 0.17515 0.96706 0.0
C79 C 0.34499 0.17005 0.87204 0.0
O80 O 0.29868 0.18778 -0.01393 0.0
C81 C 0.41045 0.19636 0.9722 0.0
O82 O 0.32876 0.21375 -0.00093 0.0
O83 O 0.39512 0.21306 -0.02028 0.0
C84 C 0.81545 0.33773 0.07897 0.0
O85 O 0.82567 0.32159 0.05146 0.0
Cd86 Cd 0.81247 0.31313 0.9621 0.0
O87 O 0.79989 0.35168 0.05763 0.0
Cd88 Cd 0.78164 0.36111 0.96924 0.0
C89 C 0.75033 0.30974 -0.01917 0.0
O90 O 0.81402 0.34848 0.90862 0.0
O91 O 0.77888 0.35608 0.87386 0.0
O92 O 0.79519 0.40178 -0.01691 0.0
C93 C 0.80083 0.35034 0.86727 0.0
O94 O 0.77082 0.29998 0.97287 0.0
C95 C 0.77476 0.41186 -0.02274 0.0
O96 O 0.74819 0.33257 -0.0173 0.0
O97 O 0.75667 0.39813 0.96865 0.0
C98 C 0.64599 0.81301 0.08256 0.0
O99 O 0.66123 0.82196 0.05092 0.0
Cd100 Cd 0.66134 0.8145 0.95762 0.0
O101 O 0.62852 0.79999 0.06533 0.0
Cd102 Cd 0.61009 0.78489 -0.01883 0.0
C103 C 0.66019 0.7515 0.96017 0.0
O104 O 0.62078 0.82001 0.93079 0.0
O105 O 0.60612 0.79064 0.88491 0.0
O106 O 0.573 0.7989 0.01918 0.0
C107 C 0.61457 0.81186 0.88587 0.0
O108 O 0.67019 0.77172 0.95084 0.0
C109 C 0.56002 0.78091 0.0063 0.0
O110 O 0.63827 0.75037 0.97547 0.0
O111 O 0.57065 0.76353 -0.01669 0.0
C112 C 0.64724 0.82013 0.39812 0.0
O113 O 0.63662 0.80605 0.42984 0.0
Cd114 Cd 0.64375 0.80481 0.5234 0.0
O115 O 0.66197 0.83615 0.4153 0.0
Cd116 Cd 0.67837 0.8525 0.50025 0.0
C117 C 0.70665 0.79948 0.52194 0.0
O118 O 0.64263 0.84525 0.55173 0.0
O119 O 0.67427 0.85565 0.59673 0.0
O120 O 0.66839 0.89243 0.47136 0.0
C121 C 0.65206 0.84984 0.5965 0.0
O122 O 0.68552 0.7913 0.53093 0.0
C123 C 0.68918 0.90164 0.47893 0.0
O124 O 0.70973 0.82119 0.5071 0.0
O125 O 0.70593 0.88754 0.49434 0.0
C126 C 0.14066 0.64688 0.39615 0.0
O127 O 0.15311 0.63412 0.42794 0.0
Cd128 Cd 0.15626 0.64197 0.52091 0.0
O129 O 0.12731 0.66388 0.41322 0.0
Cd130 Cd 0.11309 0.68338 0.49576 0.0
C131 C 0.17046 0.70342 0.51187 0.0
O132 O 0.11607 0.64751 0.54822 0.0
O133 O 0.10856 0.67984 0.59204 0.0
O134 O 0.07379 0.67842 0.45581 0.0
C135 C 0.11252 0.65737 0.59263 0.0
O136 O 0.17543 0.68148 0.52184 0.0
C137 C 0.06563 0.69906 0.46766 0.0
O138 O 0.14898 0.70979 0.4991 0.0
O139 O 0.0801 0.71342 0.49142 0.0
C140 C 0.31859 0.12274 0.38301 0.0
O141 O 0.32955 0.13862 0.41043 0.0
Cd142 Cd 0.31728 0.14809 0.49843 0.0
O143 O 0.30226 0.10976 0.40387 0.0
Cd144 Cd 0.28439 0.10299 0.49276 0.0
C145 C 0.25493 0.15492 0.48172 0.0
O146 O 0.318 0.11318 0.55281 0.0
O147 O 0.28204 0.11533 0.58531 0.0
O148 O 0.29711 0.06181 0.49326 0.0
C149 C 0.30476 0.11568 0.59307 0.0
O150 O 0.27603 0.16349 0.49038 0.0
C151 C 0.27631 0.0523 0.49596 0.0
O152 O 0.25171 0.13225 0.4776 0.0
O153 O 0.25826 0.06649 0.49564 0.0
C154 C 0.84136 0.31597 0.38626 0.0
O155 O 0.82645 0.32768 0.41424 0.0
Cd156 Cd 0.81694 0.31465 0.50238 0.0
O157 O 0.85401 0.29924 0.40701 0.0
Cd158 Cd 0.86286 0.27989 0.49408 0.0
C159 C 0.80884 0.25352 0.47545 0.0
O160 O 0.85218 0.31181 0.55743 0.0
O161 O 0.85651 0.27579 0.58861 0.0
O162 O 0.90442 0.29207 0.48769 0.0
C163 C 0.85246 0.29792 0.5973 0.0
O164 O 0.80095 0.27461 0.48504 0.0
C165 C 0.91368 0.2712 0.48847 0.0
O166 O 0.8315 0.24915 0.47537 0.0
O167 O 0.8991 0.25346 0.4904 0.0
C168 C 0.65462 0.125 0.57534 0.0
O169 O 0.64458 0.14155 0.54844 0.0
Cd170 Cd 0.65087 0.14706 0.45569 0.0
O171 O 0.66742 0.10898 0.55279 0.0
Cd172 Cd 0.67984 0.09594 0.46304 0.0
C173 C 0.71408 0.14595 0.45641 0.0
O174 O 0.64422 0.10936 0.4146 0.0
O175 O 0.6745 0.09883 0.36674 0.0
O176 O 0.66327 0.05759 0.48546 0.0
C177 C 0.65281 0.1062 0.36888 0.0
O178 O 0.6937 0.15637 0.4506 0.0
C179 C 0.6816 0.04499 0.47405 0.0
O180 O 0.71526 0.12334 0.46491 0.0
O181 O 0.70041 0.05624 0.45915 0.0
C182 C 0.85433 0.64931 0.56047 0.0
O183 O 0.83813 0.63867 0.53313 0.0
Cd184 Cd 0.82536 0.65459 0.44991 0.0
O185 O 0.86649 0.66648 0.54055 0.0
Cd186 Cd 0.87177 0.68695 0.45403 0.0
C187 C 0.8211 0.71567 0.48243 0.0
O188 O 0.85778 0.6573 0.38924 0.0
O189 O 0.85554 0.69473 0.36599 0.0
O190 O 0.91195 0.67209 0.44356 0.0
C191 C 0.85372 0.67268 0.35325 0.0
O192 O 0.81182 0.69512 0.47217 0.0
C193 C 0.92279 0.69221 0.44407 0.0
O194 O 0.84391 0.71896 0.4805 0.0
O195 O 0.90988 0.7109 0.4509 0.0
C196 C 0.33637 0.82936 0.58479 0.0
O197 O 0.34407 0.81314 0.55366 0.0
Cd198 Cd 0.33084 0.80864 0.46419 0.0
O199 O 0.32162 0.84546 0.56854 0.0
Cd200 Cd 0.30027 0.86053 0.4881 0.0
C201 C 0.2683 0.80851 0.48705 0.0
O202 O 0.33282 0.84843 0.43311 0.0
O203 O 0.30206 0.8623 0.39043 0.0
O204 O 0.31349 0.89936 0.5198 0.0
C205 C 0.32307 0.85322 0.38902 0.0
O206 O 0.28828 0.79847 0.47532 0.0
C207 C 0.29381 0.91041 0.51062 0.0
O208 O 0.26701 0.83118 0.49496 0.0
O209 O 0.27629 0.89797 0.4921 0.0
C210 C 0.13487 0.32311 0.58291 0.0
O211 O 0.14927 0.33579 0.55577 0.0
Cd212 Cd 0.15546 0.3293 0.46315 0.0
O213 O 0.12108 0.30756 0.56065 0.0
Cd214 Cd 0.10776 0.29129 0.47342 0.0
C215 C 0.16343 0.26638 0.46851 0.0
O216 O 0.11655 0.3272 0.42494 0.0
O217 O 0.10744 0.29639 0.37669 0.0
O218 O 0.06919 0.30349 0.50526 0.0
C219 C 0.11383 0.31832 0.37907 0.0
O220 O 0.17026 0.28815 0.46286 0.0
C221 C 0.05748 0.28455 0.49326 0.0
O222 O 0.1411 0.26121 0.47512 0.0
O223 O 0.06948 0.26735 0.47285 0.0
H224 H 0.21869 0.53331 -0.01322 0.0
H225 H 0.14456 0.53719 0.03869 0.0
H226 H 0.1423 0.49357 0.04165 0.0
H227 H 0.16025 0.45441 0.02531 0.0
H228 H 0.23462 0.44906 -0.0229 0.0
H229 H 0.23795 0.49319 -0.02311 0.0
C230 C 0.20216 0.52458 -0.00076 0.0
C231 C 0.18177 0.53854 0.01204 0.0
C232 C 0.20093 0.49927 0.00105 0.0
C233 C 0.16051 0.52695 0.02841 0.0
C234 C 0.15913 0.50196 0.02998 0.0
C235 C 0.17721 0.46289 0.01469 0.0
C236 C 0.19704 0.44863 0.00042 0.0
C237 C 0.17904 0.48799 0.01554 0.0
C238 C 0.21906 0.45977 -0.01208 0.0
C239 C 0.22094 0.48495 -0.01222 0.0
H240 H 0.44266 0.16978 0.91955 0.0
H241 H 0.43708 0.23278 0.01868 0.0
H242 H 0.48143 0.23633 0.02172 0.0
H243 H 0.52182 0.2189 0.00231 0.0
H244 H 0.52587 0.15589 0.902 0.0
H245 H 0.4821 0.15517 0.89286 0.0
C246 C 0.45114 0.18442 0.94152 0.0
C247 C 0.43676 0.20077 0.96952 0.0
C248 C 0.47638 0.18629 0.94297 0.0
C249 C 0.44788 0.21992 -0.00303 0.0
C250 C 0.47319 0.22187 -0.00115 0.0
C251 C 0.5131 0.20527 -0.02217 0.0
C252 C 0.52712 0.18728 0.95352 0.0
C253 C 0.48766 0.2048 0.97291 0.0
C254 C 0.51556 0.1698 0.9217 0.0
C255 C 0.49048 0.16931 0.91643 0.0
H256 H 0.81152 0.44353 -0.01642 0.0
H257 H 0.73365 0.43985 0.97241 0.0
H258 H 0.73156 0.48399 0.97075 0.0
H259 H 0.75241 0.52378 0.97067 0.0
H260 H 0.83056 0.52562 -0.02108 0.0
H261 H 0.83189 0.48208 -0.01656 0.0
C262 C 0.79401 0.4523 -0.01896 0.0
C263 C 0.77278 0.43843 -0.02176 0.0
C264 C 0.79301 0.47743 -0.02067 0.0
C265 C 0.75029 0.45015 0.97467 0.0
C266 C 0.7491 0.47537 0.97364 0.0
C267 C 0.76967 0.51459 0.9735 0.0
C268 C 0.79133 0.528 0.97426 0.0
C269 C 0.77041 0.48924 0.97563 0.0
C270 C 0.81358 0.51583 -0.02211 0.0
C271 C 0.81442 0.49087 -0.01937 0.0
H272 H 0.52595 0.74742 0.97543 0.0
H273 H 0.53439 0.8164 0.05323 0.0
H274 H 0.49077 0.82124 0.05552 0.0
H275 H 0.45044 0.8075 0.03079 0.0
H276 H 0.44037 0.73822 0.95636 0.0
H277 H 0.48442 0.73183 0.95739 0.0
C278 C 0.5182 0.76333 -0.00651 0.0
C279 C 0.53349 0.78162 0.01363 0.0
C280 C 0.49286 0.76609 -0.00526 0.0
C281 C 0.52314 0.80209 0.03711 0.0
C282 C 0.49815 0.80496 0.03833 0.0
C283 C 0.45787 0.79098 0.01474 0.0
C284 C 0.44233 0.77354 -0.00733 0.0
C285 C 0.48291 0.78736 0.01631 0.0
C286 C 0.45209 0.75197 0.9732 0.0
C287 C 0.47722 0.74835 0.9738 0.0
H288 H 0.71851 0.0119 0.47018 0.0
H289 H 0.64078 0.01843 0.47985 0.0
H290 H 0.63655 0.97497 0.47902 0.0
H291 H 0.65439 0.93523 0.47666 0.0
H292 H 0.73193 0.92701 0.47269 0.0
H293 H 0.73678 0.97096 0.46981 0.0
C294 C 0.7007 0.00373 0.47217 0.0
C295 C 0.68002 0.01843 0.47514 0.0
C296 C 0.69833 0.97846 0.47244 0.0
C297 C 0.65704 0.00761 0.47789 0.0
C298 C 0.65454 0.98271 0.4772 0.0
C299 C 0.67239 0.94298 0.47469 0.0
C300 C 0.69275 0.92792 0.47438 0.0
C301 C 0.675 0.96801 0.47451 0.0
C302 C 0.71595 0.93828 0.47273 0.0
C303 C 0.71872 0.96338 0.47121 0.0
H304 H 0.95503 0.72684 0.47776 0.0
H305 H 0.94976 0.65926 0.39337 0.0
H306 H -0.00643 0.65721 0.38751 0.0
H307 H 0.03317 0.6722 0.41343 0.0
H308 H 0.0399 0.73836 0.50236 0.0
H309 H -0.00415 0.74363 0.49856 0.0
C310 C 0.96355 0.71189 0.45752 0.0
C311 C 0.94922 0.6931 0.43657 0.0
C312 C -0.01101 0.7105 0.45529 0.0
C313 C 0.96042 0.67379 0.41048 0.0
C314 C 0.98548 0.6726 0.40698 0.0
C315 C 0.0251 0.68797 0.43148 0.0
C316 C 0.03976 0.70472 0.45858 0.0
C317 C -8e-05 0.69049 0.43039 0.0
C318 C 0.02898 0.72515 0.48132 0.0
C319 C 0.00379 0.72809 0.47942 0.0
H320 H 0.31011 0.02181 0.53216 0.0
H321 H 0.23711 0.02373 0.47033 0.0
H322 H 0.23529 0.97953 0.47239 0.0
H323 H 0.25583 0.94033 0.48675 0.0
H324 H 0.32879 0.93987 0.55017 0.0
H325 H 0.32912 0.98358 0.55294 0.0
C326 C 0.29374 0.01259 0.51922 0.0
C327 C 0.2739 0.02591 0.50038 0.0
C328 C 0.29284 -0.01255 0.52084 0.0
C329 C 0.25266 0.01378 0.48477 0.0
C330 C 0.25166 -0.01145 0.48585 0.0
C331 C 0.27167 0.94983 0.50174 0.0
C332 C 0.29234 0.93681 0.51772 0.0
C333 C 0.27182 0.97517 0.50311 0.0
C334 C 0.31269 0.94937 0.53726 0.0
C335 C 0.31294 0.97441 0.53879 0.0
H336 H 0.02553 0.2477 0.46979 0.0
H337 H 0.02949 0.3203 0.53157 0.0
H338 H 0.98576 0.32212 0.5358 0.0
H339 H 0.94637 0.30432 0.51874 0.0
H340 H 0.94059 0.23152 0.46024 0.0
H341 H 0.98497 0.22851 0.45816 0.0
C342 C 0.01678 0.26379 0.48461 0.0
C343 C 0.03087 0.28388 0.49992 0.0
C344 C -0.0087 0.26478 0.48723 0.0
C345 C 0.01923 0.30457 0.51926 0.0
C346 C -0.00586 0.30571 0.52165 0.0
C347 C 0.95478 0.28775 0.50547 0.0
C348 C 0.94028 0.2683 0.48898 0.0
C349 C 0.98003 0.28611 0.50506 0.0
C350 C 0.95143 0.2468 0.47291 0.0
C351 C 0.97677 0.24511 0.47168 0.0
H352 H 0.21428 0.27181 0.03842 0.0
H353 H 0.26222 0.32881 -0.01016 0.0
H354 H 0.29575 0.30003 -0.01483 0.0
H355 H 0.3105 0.25782 -0.01126 0.0
H356 H 0.26096 0.20155 0.03406 0.0
H357 H 0.22903 0.23101 0.04629 0.0
C358 C 0.23206 0.2781 0.027 0.0
C359 C 0.23563 0.30241 0.01395 0.0
C360 C 0.25098 0.26152 0.02362 0.0
C361 C 0.25892 0.31017 -0.0001 0.0
C362 C 0.27808 0.29371 -0.00291 0.0
C363 C 0.2928 0.25213 0.00193 0.0
C364 C 0.28806 0.22752 0.01007 0.0
C365 C 0.27421 0.26922 0.00798 0.0
C366 C 0.26501 0.22034 0.02694 0.0
C367 C 0.24672 0.23717 0.03401 0.0
H368 H 0.75131 0.26481 0.01888 0.0
H369 H 0.70208 0.31903 0.96111 0.0
H370 H 0.66827 0.2904 0.96725 0.0
H371 H 0.65353 0.24871 -0.0166 0.0
H372 H 0.7042 0.1957 0.04233 0.0
H373 H 0.73649 0.22519 0.0415 0.0
C374 C 0.73317 0.27044 0.00773 0.0
C375 C 0.72923 0.29383 -0.01119 0.0
C376 C 0.71405 0.25405 0.01141 0.0
C377 C 0.70555 0.30103 0.97563 0.0
C378 C 0.68627 0.28465 -0.02104 0.0
C379 C 0.67157 0.24372 -0.00344 0.0
C380 C 0.67639 0.21984 0.01213 0.0
C381 C 0.69039 0.26091 -0.00403 0.0
C382 C 0.6999 0.21377 0.02941 0.0
C383 C 0.71849 0.23065 0.02904 0.0
H384 H 0.72021 0.65492 -0.0187 0.0
H385 H 0.77204 0.69909 0.89979 0.0
H386 H 0.74222 0.73097 0.89028 0.0
H387 H 0.70324 0.74783 0.91201 0.0
H388 H 0.65112 0.70575 -0.00236 0.0
H389 H 0.67904 0.67142 -0.00197 0.0
C390 C 0.72472 0.67138 0.96071 0.0
C391 C 0.74832 0.67476 0.9416 0.0
C392 C 0.70756 0.69007 0.95655 0.0
C393 C 0.75407 0.6962 0.9153 0.0
C394 C 0.73704 0.71445 0.90983 0.0
C395 C 0.69781 0.73113 0.93057 0.0
C396 C 0.67524 0.72951 0.95543 0.0
C397 C 0.71401 0.71183 0.93154 0.0
C398 C 0.66844 0.70754 -0.0216 0.0
C399 C 0.68444 0.68794 -0.02119 0.0
H400 H 0.21395 0.71191 0.94087 0.0
H401 H 0.25728 0.6525 -0.00297 0.0
H402 H 0.29263 0.67917 0.00431 0.0
H403 H 0.31039 0.72041 1e-05 0.0
H404 H 0.26507 0.77908 0.94738 0.0
H405 H 0.23141 0.75158 0.93342 0.0
C406 C 0.23111 0.7046 0.9545 0.0
C407 C 0.23284 0.68024 0.96877 0.0
C408 C 0.25104 0.72001 0.9595 0.0
C409 C 0.25537 0.67121 -0.01409 0.0
C410 C 0.27558 0.68648 -0.00979 0.0
C411 C 0.2932 0.72703 -0.01497 0.0
C412 C 0.29019 0.7518 0.97523 0.0
C413 C 0.27353 0.71106 -0.02209 0.0
C414 C 0.26779 0.76018 0.95594 0.0
C415 C 0.2485 0.74446 0.94778 0.0
H416 H 0.77803 0.71187 0.52943 0.0
H417 H 0.82706 0.76407 0.46431 0.0
H418 H 0.79637 0.79564 0.47453 0.0
H419 H 0.754 0.80716 0.49413 0.0
H420 H 0.70591 0.75375 0.55931 0.0
H421 H 0.73792 0.72399 0.55706 0.0
C422 C 0.78211 0.73022 0.51788 0.0
C423 C 0.80457 0.73562 0.49545 0.0
C424 C 0.76446 0.74802 0.52351 0.0
C425 C 0.80982 0.75951 0.48162 0.0
C426 C 0.79223 0.77749 0.48716 0.0
C427 C 0.75064 0.7891 0.50841 0.0
C428 C 0.72739 0.78268 0.52598 0.0
C429 C 0.76923 0.7718 0.50685 0.0
C430 C 0.72345 0.75921 0.54481 0.0
C431 C 0.74177 0.74209 0.54362 0.0
H432 H 0.26822 0.76127 0.50888 0.0
H433 H 0.22009 0.82091 0.47994 0.0
H434 H 0.18507 0.7938 0.48634 0.0
H435 H 0.1685 0.75248 0.49703 0.0
H436 H 0.21812 0.69396 0.52806 0.0
H437 H 0.2521 0.72141 0.52404 0.0
C438 C 0.25008 0.76842 0.50385 0.0
C439 C 0.24676 0.79298 0.49327 0.0
C440 C 0.23027 0.7529 0.50796 0.0
C441 C 0.22311 0.80201 0.48796 0.0
C442 C 0.20312 0.78651 0.4915 0.0
C443 C 0.18673 0.74579 0.50316 0.0
C444 C 0.19062 0.72108 0.51245 0.0
C445 C 0.20651 0.76181 0.50102 0.0
C446 C 0.21442 0.71279 0.52067 0.0
C447 C 0.23399 0.72848 0.51831 0.0
H448 H 0.25764 0.20322 0.47547 0.0
H449 H 0.20588 0.14501 0.47719 0.0
H450 H 0.17257 0.17417 0.47293 0.0
H451 H 0.15835 0.21679 0.4706 0.0
H452 H 0.21188 0.27368 0.46841 0.0
H453 H 0.24409 0.24438 0.47119 0.0
C454 C 0.2391 0.19675 0.47493 0.0
C455 C 0.23433 0.17193 0.47695 0.0
C456 C 0.22024 0.21347 0.47253 0.0
C457 C 0.21011 0.16403 0.47568 0.0
C458 C 0.19106 0.18072 0.47338 0.0
C459 C 0.17705 0.22272 0.47067 0.0
C460 C 0.18249 0.24753 0.46933 0.0
C461 C 0.1959 0.20557 0.47211 0.0
C462 C 0.20692 0.25482 0.46928 0.0
C463 C 0.22551 0.23805 0.47094 0.0
H464 H 0.81137 0.20465 0.493 0.0
H465 H 0.76583 0.26033 0.4271 0.0
H466 H 0.73371 0.2313 0.41084 0.0
H467 H 0.71723 0.1914 0.42121 0.0
H468 H 0.76049 0.13495 0.49062 0.0
H469 H 0.79494 0.16281 0.49877 0.0
C470 C 0.79451 0.21025 0.47453 0.0
C471 C 0.79089 0.23466 0.46184 0.0
C472 C 0.77568 0.1934 0.46612 0.0
C473 C 0.76894 0.24174 0.43799 0.0
C474 C 0.75055 0.22514 0.42851 0.0
C475 C 0.73419 0.18502 0.43794 0.0
C476 C 0.73614 0.1612 0.45591 0.0
C477 C 0.75352 0.20112 0.44348 0.0
C478 C 0.75846 0.15323 0.4766 0.0
C479 C 0.77811 0.1692 0.4815 0.0
H480 H 0.1011 0.30931 0.27714 0.0
H481 H 0.1452 0.35608 0.37519 0.0
H482 H 0.16233 0.37458 0.29655 0.0
H483 H 0.16664 0.37563 0.19993 0.0
H484 H 0.12102 0.33041 0.10173 0.0
H485 H 0.10246 0.31323 0.18035 0.0
C486 C 0.11431 0.32369 0.28116 0.0
C487 C 0.1221 0.33114 0.3317 0.0
C488 C 0.12385 0.33444 0.23582 0.0
C489 C 0.13897 0.35001 0.3366 0.0
C490 C 0.14883 0.36053 0.29169 0.0
C491 C 0.1525 0.36215 0.19588 0.0
C492 C 0.14535 0.35408 0.14537 0.0
C493 C 0.14171 0.3526 0.24114 0.0
C494 C 0.1268 0.33687 0.14034 0.0
C495 C 0.11626 0.32699 0.18523 0.0
H496 H 0.66019 0.09162 0.26797 0.0
H497 H 0.61587 0.13842 0.36279 0.0
H498 H 0.59651 0.15434 0.28295 0.0
H499 H 0.59426 0.15693 0.18603 0.0
H500 H 0.63738 0.10899 0.09122 0.0
H501 H 0.65492 0.09132 0.1712 0.0
C502 C 0.64617 0.10518 0.27105 0.0
C503 C 0.63964 0.11405 0.32098 0.0
C504 C 0.63494 0.11405 0.22506 0.0
C505 C 0.62121 0.13135 0.32468 0.0
C506 C 0.61019 0.14051 0.27908 0.0
C507 C 0.60731 0.14244 0.18297 0.0
C508 C 0.61473 0.13446 0.13292 0.0
C509 C 0.61721 0.13228 0.22906 0.0
C510 C 0.63141 0.11547 0.12936 0.0
C511 C 0.64154 0.10543 0.17505 0.0
H512 H 0.86851 0.63566 0.29217 0.0
H513 H 0.81696 0.69369 0.29901 0.0
H514 H 0.79949 0.68113 0.21385 0.0
H515 H 0.7991 0.65371 0.1373 0.0
H516 H 0.85363 0.5987 0.12503 0.0
H517 H 0.86987 0.60987 0.21248 0.0
C518 C 0.85345 0.64546 0.27479 0.0
C519 C 0.84383 0.66539 0.3015 0.0
C520 C 0.84411 0.63865 0.22507 0.0
C521 C 0.82459 0.6783 0.27873 0.0
C522 C 0.81459 0.6711 0.23027 0.0
C523 C 0.81447 0.64417 0.15407 0.0
C524 C 0.82506 0.62528 0.12564 0.0
C525 C 0.82421 0.65131 0.20312 0.0
C526 C 0.84526 0.61327 0.14674 0.0
C527 C 0.85448 0.61964 0.19656 0.0
H528 H 0.3133 0.86903 0.28998 0.0
H529 H 0.35632 0.81766 0.3772 0.0
H530 H 0.37131 0.80067 0.29472 0.0
H531 H 0.37092 0.79937 0.19763 0.0
H532 H 0.33013 0.85245 0.11041 0.0
H533 H 0.31559 0.8699 0.19298 0.0
C534 C 0.32604 0.8542 0.29077 0.0
C535 C 0.3335 0.84442 0.33933 0.0
C536 C 0.33492 0.8448 0.24329 0.0
C537 C 0.35028 0.82544 0.34015 0.0
C538 C 0.35881 0.81567 0.29306 0.0
C539 C 0.35891 0.8148 0.19689 0.0
C540 C 0.35137 0.82448 0.14834 0.0
C541 C 0.35103 0.82502 0.24441 0.0
C542 C 0.33613 0.8447 0.14754 0.0
C543 C 0.32777 0.85464 0.19464 0.0
H544 H 0.09885 0.67022 0.6911 0.0
H545 H 0.13942 0.6167 0.60566 0.0
H546 H 0.15396 0.59956 0.68892 0.0
H547 H 0.15789 0.60208 0.78583 0.0
H548 H 0.11599 0.65459 0.8712 0.0
H549 H 0.09907 0.66973 0.78819 0.0
C550 C 0.11065 0.65463 0.69082 0.0
C551 C 0.11834 0.64495 0.64251 0.0
C552 C 0.11882 0.64481 0.73875 0.0
C553 C 0.13333 0.62453 0.64247 0.0
C554 C 0.14174 0.61479 0.69002 0.0
C555 C 0.14488 0.61668 0.78614 0.0
C556 C 0.13844 0.62744 0.83429 0.0
C557 C 0.13506 0.62515 0.73835 0.0
C558 C 0.12129 0.64608 0.83449 0.0
C559 C 0.11167 0.65481 0.78708 0.0
H560 H 0.28884 0.15052 0.65809 0.0
H561 H 0.34419 0.09654 0.64239 0.0
H562 H 0.3612 0.10787 0.72911 0.0
H563 H 0.36015 0.13345 0.80946 0.0
H564 H 0.30745 0.19037 0.81934 0.0
H565 H 0.28951 0.17773 0.73483 0.0
C566 C 0.30457 0.14123 0.67392 0.0
C567 C 0.31514 0.12258 0.64471 0.0
C568 C 0.3147 0.14845 0.72256 0.0
C569 C 0.3358 0.11093 0.66466 0.0
C570 C 0.34547 0.11738 0.71409 0.0
C571 C 0.34475 0.143 0.79286 0.0
C572 C 0.33497 0.16266 0.82035 0.0
C573 C 0.33506 0.13614 0.74341 0.0
C574 C 0.31526 0.17522 0.79853 0.0
C575 C 0.30497 0.16797 0.7504 0.0
H576 H 0.83554 0.31813 0.8401 0.0
H577 H 0.78624 0.37049 0.7747 0.0
H578 H 0.79938 0.3604 0.68528 0.0
H579 H 0.82333 0.3351 0.62521 0.0
H580 H 0.86947 0.27988 0.6902 0.0
H581 H 0.8593 0.29263 0.77995 0.0
C582 C 0.82792 0.32748 0.80622 0.0
C583 C 0.81007 0.3451 0.81385 0.0
C584 C 0.83492 0.32095 0.75479 0.0
C585 C 0.8 0.35683 0.76968 0.0
C586 C 0.8075 0.35107 0.71858 0.0
C587 C 0.83132 0.32607 0.65911 0.0
C588 C 0.8472 0.30668 0.65123 0.0
C589 C 0.82472 0.33294 0.71057 0.0
C590 C 0.85715 0.29484 0.69538 0.0
C591 C 0.85136 0.30212 0.74667 0.0
H592 H 0.59711 0.80347 0.78697 0.0
H593 H 0.64763 0.84787 0.87506 0.0
H594 H 0.66272 0.86485 0.79285 0.0
H595 H 0.66388 0.86449 0.69575 0.0
H596 H 0.61253 0.82102 0.60769 0.0
H597 H 0.59526 0.80645 0.69006 0.0
C598 C 0.61125 0.81704 0.78809 0.0
C599 C 0.62147 0.82418 0.83679 0.0
C600 C 0.61976 0.8268 0.74074 0.0
C601 C 0.63953 0.84202 0.83794 0.0
C602 C 0.64824 0.85167 0.79097 0.0
C603 C 0.64874 0.85202 0.69469 0.0
C604 C 0.63969 0.84359 0.64589 0.0
C605 C 0.63885 0.8438 0.74213 0.0
C606 C 0.61986 0.82771 0.64487 0.0
C607 C 0.61004 0.81929 0.69192 0.0
H608 H 0.82919 0.61623 0.61689 0.0
H609 H 0.88541 0.66999 0.63253 0.0
H610 H 0.88515 0.66549 0.72846 0.0
H611 H 0.86584 0.64966 0.80796 0.0
H612 H 0.80873 0.59683 0.79213 0.0
H613 H 0.81268 0.59751 0.69621 0.0
C614 C 0.84167 0.62672 0.64113 0.0
C615 C 0.85706 0.64366 0.61745 0.0
C616 C 0.84112 0.6244 0.69634 0.0
C617 C 0.87322 0.65695 0.64961 0.0
C618 C 0.87304 0.65445 0.70456 0.0
C619 C 0.85445 0.63805 0.78364 0.0
C620 C 0.83678 0.62348 0.8073 0.0
C621 C 0.85655 0.63877 0.72839 0.0
C622 C 0.82234 0.6084 0.77507 0.0
C623 C 0.82455 0.60879 0.72013 0.0
H624 H 0.32344 0.86068 0.66231 0.0
H625 H 0.36581 0.7967 0.63412 0.0
H626 H 0.37442 0.79332 0.72854 0.0
H627 H 0.36672 0.80623 0.81946 0.0
H628 H 0.32324 0.86943 0.84775 0.0
H629 H 0.31861 0.87554 0.75278 0.0
C630 C 0.33475 0.84611 0.67668 0.0
C631 C 0.34367 0.8288 0.6412 0.0
C632 C 0.3394 0.84407 0.73108 0.0
C633 C 0.3585 0.81018 0.66055 0.0
C634 C 0.36345 0.8082 0.71459 0.0
C635 C 0.35654 0.82156 0.80494 0.0
C636 C 0.34511 0.83716 0.84071 0.0
C637 C 0.35352 0.82471 0.75029 0.0
C638 C 0.33205 0.85699 0.82112 0.0
C639 C 0.32933 0.86048 0.76678 0.0
H640 H 0.16045 0.35517 0.64345 0.0
H641 H 0.1085 0.29722 0.65358 0.0
H642 H 0.10966 0.29999 0.74978 0.0
H643 H 0.12677 0.31746 0.83098 0.0
H644 H 0.17888 0.37527 0.82128 0.0
H645 H 0.17611 0.37402 0.72491 0.0
C646 C 0.14927 0.34321 0.66663 0.0
C647 C 0.13455 0.3259 0.64118 0.0
C648 C 0.15007 0.34483 0.72204 0.0
C649 C 0.12008 0.31066 0.67198 0.0
C650 C 0.12074 0.31221 0.72708 0.0
C651 C 0.13745 0.32991 0.80789 0.0
C652 C 0.15314 0.34631 0.83345 0.0
C653 C 0.13588 0.32901 0.75251 0.0
C654 C 0.16669 0.3624 0.80275 0.0
C655 C 0.16516 0.36167 0.74758 0.0
H656 H 0.65819 0.11449 0.82387 0.0
H657 H 0.60666 0.17264 0.81169 0.0
H658 H 0.6087 0.17089 0.71557 0.0
H659 H 0.62596 0.15381 0.63506 0.0
H660 H 0.67734 0.09553 0.64667 0.0
H661 H 0.67438 0.09637 0.74289 0.0
C662 C 0.64734 0.12674 0.80024 0.0
C663 C 0.6324 0.14374 0.82514 0.0
C664 C 0.64858 0.12566 0.74483 0.0
C665 C 0.61837 0.15938 0.79374 0.0
C666 C 0.61953 0.15843 0.73868 0.0
C667 C 0.63648 0.14122 0.65854 0.0
C668 C 0.65194 0.12473 0.63356 0.0
C669 C 0.63472 0.14179 0.71383 0.0
C670 C 0.6653 0.10846 0.66475 0.0
C671 C 0.66366 0.10894 0.71984 0.0
H672 H 0.81546 0.34841 0.32773 0.0
H673 H 0.86928 0.29254 0.31381 0.0
H674 H 0.86724 0.29552 0.21767 0.0
H675 H 0.84785 0.31159 0.13739 0.0
H676 H 0.79375 0.36718 0.15126 0.0
H677 H 0.79842 0.36675 0.2473 0.0
C678 C 0.82699 0.33708 0.30377 0.0
C679 C 0.84235 0.32013 0.32825 0.0
C680 C 0.82556 0.33868 0.2483 0.0
C681 C 0.85719 0.30569 0.2963 0.0
C682 C 0.85599 0.30731 0.24117 0.0
C683 C 0.83723 0.3238 0.1613 0.0
C684 C 0.8203 0.33923 0.13689 0.0
C685 C 0.83986 0.32337 0.21671 0.0
C686 C 0.80685 0.35502 0.16875 0.0
C687 C 0.80946 0.35476 0.22382 0.0
H688 H 0.61946 0.79384 0.1621 0.0
H689 H 0.67854 0.84278 0.13238 0.0
H690 H 0.68348 0.84998 0.22709 0.0
H691 H 0.67175 0.84168 0.31843 0.0
H692 H 0.61328 0.79204 0.34819 0.0
H693 H 0.60738 0.78596 0.25334 0.0
C694 C 0.63338 0.80615 0.17624 0.0
C695 C 0.64862 0.81769 0.14005 0.0
C696 C 0.63626 0.8101 0.23081 0.0
C697 C 0.66658 0.83356 0.15925 0.0
C698 C 0.66942 0.83773 0.21346 0.0
C699 C 0.65761 0.82964 0.30422 0.0
C700 C 0.64302 0.81733 0.34048 0.0
C701 C 0.65446 0.826 0.24961 0.0
C702 C 0.62485 0.8017 0.32126 0.0
C703 C 0.62144 0.7982 0.26697 0.0
H704 H 0.12005 0.67307 0.31706 0.0
H705 H 0.16561 0.61125 0.34555 0.0
H706 H 0.1708 0.60589 0.25057 0.0
H707 H 0.16389 0.61973 0.15981 0.0
H708 H 0.11895 0.68202 0.13153 0.0
H709 H 0.11204 0.6861 0.2262 0.0
C710 C 0.13099 0.65831 0.30259 0.0
C711 C 0.14249 0.64267 0.3385 0.0
C712 C 0.13413 0.65545 0.24796 0.0
C713 C 0.1566 0.62364 0.31889 0.0
C714 C 0.15962 0.62055 0.26454 0.0
C715 C 0.15249 0.63415 0.17424 0.0
C716 C 0.14207 0.65061 0.13852 0.0
C717 C 0.1487 0.63653 0.22877 0.0
C718 C 0.1273 0.66914 0.15806 0.0
C719 C 0.12332 0.67151 0.21224 0.0
H720 H 0.35257 0.14684 0.32675 0.0
H721 H 0.29563 0.09391 0.31002 0.0
H722 H 0.30031 0.09418 0.21418 0.0
H723 H 0.3176 0.11247 0.13494 0.0
H724 H 0.37375 0.16624 0.15181 0.0
H725 H 0.37253 0.16229 0.24776 0.0
C726 C 0.34134 0.13514 0.30227 0.0
C727 C 0.32354 0.12062 0.32565 0.0
C728 C 0.34391 0.13559 0.2471 0.0
C729 C 0.30936 0.10541 0.2932 0.0
C730 C 0.31198 0.10558 0.2383 0.0
C731 C 0.32987 0.12307 0.15948 0.0
C732 C 0.34553 0.13985 0.13606 0.0
C733 C 0.32877 0.12105 0.21476 0.0
C734 C 0.36137 0.15331 0.16865 0.0
C735 C 0.36063 0.15113 0.22361 0.0
loop_
_geom_bond_atom_site_label_1
_geom_bond_atom_site_label_2
_geom_bond_distance
_geom_bond_site_symmetry_2
_ccdc_geom_bond_type
C0 O1 1.306 . S
C0 O3 1.160 . S
O1 C0 1.306 . S
O1 Cd2 2.228 1_556 S
Cd2 O1 2.228 1_554 S
Cd2 O6 2.273 . S
Cd2 O10 2.277 . S
O3 C0 1.160 . S
O3 Cd4 2.203 1_556 S
Cd4 O3 2.203 1_554 S
Cd4 O6 2.411 . S
Cd4 O7 2.333 . S
Cd4 O8 2.352 . S
Cd4 O12 2.277 . S
Cd4 O13 2.356 . S
C5 O10 1.209 . S
C5 O12 1.226 . S
O6 Cd2 2.273 . S
O6 Cd4 2.411 . S
O6 C9 1.320 . S
O7 Cd4 2.333 . S
O7 C9 1.214 . S
O8 Cd4 2.352 . S
O8 C11 1.258 . S
C9 O6 1.320 . S
C9 O7 1.214 . S
O10 Cd2 2.277 . S
O10 C5 1.209 . S
C11 O8 1.258 . S
C11 O13 1.282 . S
O12 Cd4 2.277 . S
O12 C5 1.226 . S
O13 Cd4 2.356 . S
O13 C11 1.282 . S
C14 O15 1.306 . S
C14 O17 1.160 . S
O15 C14 1.306 . S
O15 Cd16 2.228 1_556 S
Cd16 O15 2.228 1_554 S
Cd16 O20 2.273 . S
Cd16 O24 2.277 . S
O17 C14 1.160 . S
O17 Cd18 2.203 1_556 S
Cd18 O17 2.203 1_554 S
Cd18 O20 2.411 . S
Cd18 O21 2.333 . S
Cd18 O22 2.352 . S
Cd18 O26 2.277 . S
Cd18 O27 2.356 . S
C19 O24 1.209 . S
C19 O26 1.226 . S
O20 Cd16 2.273 . S
O20 Cd18 2.411 . S
O20 C23 1.320 . S
O21 Cd18 2.333 . S
O21 C23 1.214 . S
O22 Cd18 2.352 . S
O22 C25 1.258 . S
C23 O20 1.320 . S
C23 O21 1.214 . S
O24 Cd16 2.277 . S
O24 C19 1.209 . S
C25 O22 1.258 . S
C25 O27 1.282 . S
O26 Cd18 2.277 . S
O26 C19 1.226 . S
O27 Cd18 2.356 . S
O27 C25 1.282 . S
C28 O29 1.306 . S
C28 O31 1.160 . S
O29 C28 1.306 . S
O29 Cd30 2.228 1_556 S
Cd30 O29 2.228 1_554 S
Cd30 O34 2.273 . S
Cd30 O38 2.277 . S
O31 C28 1.160 . S
O31 Cd32 2.203 1_556 S
Cd32 O31 2.203 1_554 S
Cd32 O34 2.411 . S
Cd32 O35 2.333 . S
Cd32 O36 2.352 . S
Cd32 O40 2.277 . S
Cd32 O41 2.356 . S
C33 O38 1.209 . S
C33 O40 1.226 . S
O34 Cd30 2.273 . S
O34 Cd32 2.411 . S
O34 C37 1.320 . S
O35 Cd32 2.333 . S
O35 C37 1.214 . S
O36 Cd32 2.352 . S
O36 C39 1.258 . S
C37 O34 1.320 . S
C37 O35 1.214 . S
O38 Cd30 2.277 . S
O38 C33 1.209 . S
C39 O36 1.258 . S
C39 O41 1.282 . S
O40 Cd32 2.277 . S
O40 C33 1.226 . S
O41 Cd32 2.356 . S
O41 C39 1.282 . S
C42 O43 1.306 . S
C42 O45 1.160 . S
O43 C42 1.306 . S
O43 Cd44 2.228 1_556 S
Cd44 O43 2.228 1_554 S
Cd44 O48 2.273 . S
Cd44 O52 2.277 . S
O45 C42 1.160 . S
O45 Cd46 2.203 1_556 S
Cd46 O45 2.203 1_554 S
Cd46 O48 2.411 . S
Cd46 O49 2.333 . S
Cd46 O50 2.352 . S
Cd46 O54 2.277 . S
Cd46 O55 2.356 . S
C47 O52 1.209 . S
C47 O54 1.226 . S
O48 Cd44 2.273 . S
O48 Cd46 2.411 . S
O48 C51 1.320 . S
O49 Cd46 2.333 . S
O49 C51 1.214 . S
O50 Cd46 2.352 . S
O50 C53 1.258 . S
C51 O48 1.320 . S
C51 O49 1.214 . S
O52 Cd44 2.277 . S
O52 C47 1.209 . S
C53 O50 1.258 . S
C53 O55 1.282 . S
O54 Cd46 2.277 . S
O54 C47 1.226 . S
O55 Cd46 2.356 . S
O55 C53 1.282 . S
C56 O57 1.306 . S
C56 O59 1.160 . S
O57 C56 1.306 . S
O57 Cd58 2.228 1_554 S
Cd58 O57 2.228 1_556 S
Cd58 O62 2.273 . S
Cd58 O66 2.277 1_556 S
O59 C56 1.160 . S
O59 Cd60 2.203 . S
Cd60 O59 2.203 . S
Cd60 O62 2.411 1_554 S
Cd60 O63 2.333 1_554 S
Cd60 O64 2.352 . S
Cd60 O68 2.277 . S
Cd60 O69 2.356 1_554 S
C61 O66 1.209 . S
C61 O68 1.226 . S
O62 Cd58 2.273 . S
O62 Cd60 2.411 1_556 S
O62 C65 1.320 . S
O63 Cd60 2.333 1_556 S
O63 C65 1.214 . S
O64 Cd60 2.352 . S
O64 C67 1.258 . S
C65 O62 1.320 . S
C65 O63 1.214 . S
O66 Cd58 2.277 1_554 S
O66 C61 1.209 . S
C67 O64 1.258 . S
C67 O69 1.282 1_554 S
O68 Cd60 2.277 . S
O68 C61 1.226 . S
O69 Cd60 2.356 1_556 S
O69 C67 1.282 1_556 S
C70 O71 1.306 . S
C70 O73 1.160 . S
O71 C70 1.306 . S
O71 Cd72 2.228 1_554 S
Cd72 O71 2.228 1_556 S
Cd72 O76 2.273 . S
Cd72 O80 2.277 1_556 S
O73 C70 1.160 . S
O73 Cd74 2.203 . S
Cd74 O73 2.203 . S
Cd74 O76 2.411 1_554 S
Cd74 O77 2.333 1_554 S
Cd74 O78 2.352 . S
Cd74 O82 2.277 . S
Cd74 O83 2.356 1_554 S
C75 O80 1.209 . S
C75 O82 1.226 . S
O76 Cd72 2.273 . S
O76 Cd74 2.411 1_556 S
O76 C79 1.320 . S
O77 Cd74 2.333 1_556 S
O77 C79 1.214 . S
O78 Cd74 2.352 . S
O78 C81 1.258 . S
C79 O76 1.320 . S
C79 O77 1.214 . S
O80 Cd72 2.277 1_554 S
O80 C75 1.209 . S
C81 O78 1.258 . S
C81 O83 1.282 1_554 S
O82 Cd74 2.277 . S
O82 C75 1.226 . S
O83 Cd74 2.356 1_556 S
O83 C81 1.282 1_556 S
C84 O85 1.306 . S
C84 O87 1.160 . S
O85 C84 1.306 . S
O85 Cd86 2.228 1_554 S
Cd86 O85 2.228 1_556 S
Cd86 O90 2.273 . S
Cd86 O94 2.277 1_556 S
O87 C84 1.160 . S
O87 Cd88 2.203 . S
Cd88 O87 2.203 . S
Cd88 O90 2.411 1_554 S
Cd88 O91 2.333 1_554 S
Cd88 O92 2.352 . S
Cd88 O96 2.277 . S
Cd88 O97 2.356 1_554 S
C89 O94 1.209 . S
C89 O96 1.226 . S
O90 Cd86 2.273 . S
O90 Cd88 2.411 1_556 S
O90 C93 1.320 . S
O91 Cd88 2.333 1_556 S
O91 C93 1.214 . S
O92 Cd88 2.352 . S
O92 C95 1.258 . S
C93 O90 1.320 . S
C93 O91 1.214 . S
O94 Cd86 2.277 1_554 S
O94 C89 1.209 . S
C95 O92 1.258 . S
C95 O97 1.282 1_554 S
O96 Cd88 2.277 . S
O96 C89 1.226 . S
O97 Cd88 2.356 1_556 S
O97 C95 1.282 1_556 S
C98 O99 1.306 . S
C98 O101 1.160 . S
O99 C98 1.306 . S
O99 Cd100 2.228 1_554 S
Cd100 O99 2.228 1_556 S
Cd100 O104 2.273 . S
Cd100 O108 2.277 1_556 S
O101 C98 1.160 . S
O101 Cd102 2.203 . S
Cd102 O101 2.203 . S
Cd102 O104 2.411 1_554 S
Cd102 O105 2.333 1_554 S
Cd102 O106 2.352 . S
Cd102 O110 2.277 . S
Cd102 O111 2.356 1_554 S
C103 O108 1.209 . S
C103 O110 1.226 . S
O104 Cd100 2.273 . S
O104 Cd102 2.411 1_556 S
O104 C107 1.320 . S
O105 Cd102 2.333 1_556 S
O105 C107 1.214 . S
O106 Cd102 2.352 . S
O106 C109 1.258 . S
C107 O104 1.320 . S
C107 O105 1.214 . S
O108 Cd100 2.277 1_554 S
O108 C103 1.209 . S
C109 O106 1.258 . S
C109 O111 1.282 1_554 S
O110 Cd102 2.277 . S
O110 C103 1.226 . S
O111 Cd102 2.356 1_556 S
O111 C109 1.282 1_556 S
C112 O113 1.306 . S
C112 O115 1.160 . S
O113 C112 1.306 . S
O113 Cd114 2.228 . S
Cd114 O113 2.228 . S
Cd114 O118 2.273 . S
Cd114 O122 2.277 . S
O115 C112 1.160 . S
O115 Cd116 2.203 . S
Cd116 O115 2.203 . S
Cd116 O118 2.411 . S
Cd116 O119 2.333 . S
Cd116 O120 2.352 . S
Cd116 O124 2.277 . S
Cd116 O125 2.356 . S
C117 O122 1.209 . S
C117 O124 1.226 . S
O118 Cd114 2.273 . S
O118 Cd116 2.411 . S
O118 C121 1.320 . S
O119 Cd116 2.333 . S
O119 C121 1.214 . S
O120 Cd116 2.352 . S
O120 C123 1.258 . S
C121 O118 1.320 . S
C121 O119 1.214 . S
O122 Cd114 2.277 . S
O122 C117 1.209 . S
C123 O120 1.258 . S
C123 O125 1.282 . S
O124 Cd116 2.277 . S
O124 C117 1.226 . S
O125 Cd116 2.356 . S
O125 C123 1.282 . S
C126 O127 1.306 . S
C126 O129 1.160 . S
O127 C126 1.306 . S
O127 Cd128 2.228 . S
Cd128 O127 2.228 . S
Cd128 O132 2.273 . S
Cd128 O136 2.277 . S
O129 C126 1.160 . S
O129 Cd130 2.203 . S
Cd130 O129 2.203 . S
Cd130 O132 2.411 . S
Cd130 O133 2.333 . S
Cd130 O134 2.352 . S
Cd130 O138 2.277 . S
Cd130 O139 2.356 . S
C131 O136 1.209 . S
C131 O138 1.226 . S
O132 Cd128 2.273 . S
O132 Cd130 2.411 . S
O132 C135 1.320 . S
O133 Cd130 2.333 . S
O133 C135 1.214 . S
O134 Cd130 2.352 . S
O134 C137 1.258 . S
C135 O132 1.320 . S
C135 O133 1.214 . S
O136 Cd128 2.277 . S
O136 C131 1.209 . S
C137 O134 1.258 . S
C137 O139 1.282 . S
O138 Cd130 2.277 . S
O138 C131 1.226 . S
O139 Cd130 2.356 . S
O139 C137 1.282 . S
C140 O141 1.306 . S
C140 O143 1.160 . S
O141 C140 1.306 . S
O141 Cd142 2.228 . S
Cd142 O141 2.228 . S
Cd142 O146 2.273 . S
Cd142 O150 2.277 . S
O143 C140 1.160 . S
O143 Cd144 2.203 . S
Cd144 O143 2.203 . S
Cd144 O146 2.411 . S
Cd144 O147 2.333 . S
Cd144 O148 2.352 . S
Cd144 O152 2.277 . S
Cd144 O153 2.356 . S
C145 O150 1.209 . S
C145 O152 1.226 . S
O146 Cd142 2.273 . S
O146 Cd144 2.411 . S
O146 C149 1.320 . S
O147 Cd144 2.333 . S
O147 C149 1.214 . S
O148 Cd144 2.352 . S
O148 C151 1.258 . S
C149 O146 1.320 . S
C149 O147 1.214 . S
O150 Cd142 2.277 . S
O150 C145 1.209 . S
C151 O148 1.258 . S
C151 O153 1.282 . S
O152 Cd144 2.277 . S
O152 C145 1.226 . S
O153 Cd144 2.356 . S
O153 C151 1.282 . S
C154 O155 1.306 . S
C154 O157 1.160 . S
O155 C154 1.306 . S
O155 Cd156 2.228 . S
Cd156 O155 2.228 . S
Cd156 O160 2.273 . S
Cd156 O164 2.277 . S
O157 C154 1.160 . S
O157 Cd158 2.203 . S
Cd158 O157 2.203 . S
Cd158 O160 2.411 . S
Cd158 O161 2.333 . S
Cd158 O162 2.352 . S
Cd158 O166 2.277 . S
Cd158 O167 2.356 . S
C159 O164 1.209 . S
C159 O166 1.226 . S
O160 Cd156 2.273 . S
O160 Cd158 2.411 . S
O160 C163 1.320 . S
O161 Cd158 2.333 . S
O161 C163 1.214 . S
O162 Cd158 2.352 . S
O162 C165 1.258 . S
C163 O160 1.320 . S
C163 O161 1.214 . S
O164 Cd156 2.277 . S
O164 C159 1.209 . S
C165 O162 1.258 . S
C165 O167 1.282 . S
O166 Cd158 2.277 . S
O166 C159 1.226 . S
O167 Cd158 2.356 . S
O167 C165 1.282 . S
C168 O169 1.306 . S
C168 O171 1.160 . S
O169 C168 1.306 . S
O169 Cd170 2.228 . S
Cd170 O169 2.228 . S
Cd170 O174 2.273 . S
Cd170 O178 2.277 . S
O171 C168 1.160 . S
O171 Cd172 2.203 . S
Cd172 O171 2.203 . S
Cd172 O174 2.411 . S
Cd172 O175 2.333 . S
Cd172 O176 2.352 . S
Cd172 O180 2.277 . S
Cd172 O181 2.356 . S
C173 O178 1.209 . S
C173 O180 1.226 . S
O174 Cd170 2.273 . S
O174 Cd172 2.411 . S
O174 C177 1.320 . S
O175 Cd172 2.333 . S
O175 C177 1.214 . S
O176 Cd172 2.352 . S
O176 C179 1.258 . S
C177 O174 1.320 . S
C177 O175 1.214 . S
O178 Cd170 2.277 . S
O178 C173 1.209 . S
C179 O176 1.258 . S
C179 O181 1.282 . S
O180 Cd172 2.277 . S
O180 C173 1.226 . S
O181 Cd172 2.356 . S
O181 C179 1.282 . S
C182 O183 1.306 . S
C182 O185 1.160 . S
O183 C182 1.306 . S
O183 Cd184 2.228 . S
Cd184 O183 2.228 . S
Cd184 O188 2.273 . S
Cd184 O192 2.277 . S
O185 C182 1.160 . S
O185 Cd186 2.203 . S
Cd186 O185 2.203 . S
Cd186 O188 2.411 . S
Cd186 O189 2.333 . S
Cd186 O190 2.352 . S
Cd186 O194 2.277 . S
Cd186 O195 2.356 . S
C187 O192 1.209 . S
C187 O194 1.226 . S
O188 Cd184 2.273 . S
O188 Cd186 2.411 . S
O188 C191 1.320 . S
O189 Cd186 2.333 . S
O189 C191 1.214 . S
O190 Cd186 2.352 . S
O190 C193 1.258 . S
C191 O188 1.320 . S
C191 O189 1.214 . S
O192 Cd184 2.277 . S
O192 C187 1.209 . S
C193 O190 1.258 . S
C193 O195 1.282 . S
O194 Cd186 2.277 . S
O194 C187 1.226 . S
O195 Cd186 2.356 . S
O195 C193 1.282 . S
C196 O197 1.306 . S
C196 O199 1.160 . S
O197 C196 1.306 . S
O197 Cd198 2.228 . S
Cd198 O197 2.228 . S
Cd198 O202 2.273 . S
Cd198 O206 2.277 . S
O199 C196 1.160 . S
O199 Cd200 2.203 . S
Cd200 O199 2.203 . S
Cd200 O202 2.411 . S
Cd200 O203 2.333 . S
Cd200 O204 2.352 . S
Cd200 O208 2.277 . S
Cd200 O209 2.356 . S
C201 O206 1.209 . S
C201 O208 1.226 . S
O202 Cd198 2.273 . S
O202 Cd200 2.411 . S
O202 C205 1.320 . S
O203 Cd200 2.333 . S
O203 C205 1.214 . S
O204 Cd200 2.352 . S
O204 C207 1.258 . S
C205 O202 1.320 . S
C205 O203 1.214 . S
O206 Cd198 2.277 . S
O206 C201 1.209 . S
C207 O204 1.258 . S
C207 O209 1.282 . S
O208 Cd200 2.277 . S
O208 C201 1.226 . S
O209 Cd200 2.356 . S
O209 C207 1.282 . S
C210 O211 1.306 . S
C210 O213 1.160 . S
O211 C210 1.306 . S
O211 Cd212 2.228 . S
Cd212 O211 2.228 . S
Cd212 O216 2.273 . S
Cd212 O220 2.277 . S
O213 C210 1.160 . S
O213 Cd214 2.203 . S
Cd214 O213 2.203 . S
Cd214 O216 2.411 . S
Cd214 O217 2.333 . S
Cd214 O218 2.352 . S
Cd214 O222 2.277 . S
Cd214 O223 2.356 . S
C215 O220 1.209 . S
C215 O222 1.226 . S
O216 Cd212 2.273 . S
O216 Cd214 2.411 . S
O216 C219 1.320 . S
O217 Cd214 2.333 . S
O217 C219 1.214 . S
O218 Cd214 2.352 . S
O218 C221 1.258 . S
C219 O216 1.320 . S
C219 O217 1.214 . S
O220 Cd212 2.277 . S
O220 C215 1.209 . S
C221 O218 1.258 . S
C221 O223 1.282 . S
O222 Cd214 2.277 . S
O222 C215 1.226 . S
O223 Cd214 2.356 . S
O223 C221 1.282 . S
H224 C230 0.930 . S
H225 C233 0.930 . S
H226 C234 0.930 . S
H227 C235 0.930 1_556 S
H228 C238 0.930 . S
H229 C239 0.930 . S
C230 H224 0.930 . S
C230 C231 1.355 . S
C230 C232 1.415 . S
C231 C230 1.355 . S
C231 C233 1.419 1_554 S
C232 C230 1.415 . S
C232 C237 1.425 . S
C232 C239 1.409 . S
C233 H225 0.930 . S
C233 C231 1.419 1_556 S
C233 C234 1.362 . S
C234 H226 0.930 . S
C234 C233 1.362 . S
C234 C237 1.409 1_556 S
C235 H227 0.930 1_554 S
C235 C236 1.355 . S
C235 C237 1.415 . S
C236 C235 1.355 . S
C236 C238 1.419 . S
C237 C232 1.425 . S
C237 C234 1.409 1_554 S
C237 C235 1.415 . S
C238 H228 0.930 . S
C238 C236 1.419 . S
C238 C239 1.362 . S
C239 H229 0.930 . S
C239 C232 1.409 . S
C239 C238 1.362 . S
H240 C246 0.930 . S
H241 C249 0.930 . S
H242 C250 0.930 . S
H243 C251 0.930 . S
H244 C254 0.930 . S
H245 C255 0.930 . S
C246 H240 0.930 . S
C246 C247 1.357 . S
C246 C248 1.415 . S
C247 C246 1.357 . S
C247 C249 1.416 1_554 S
C248 C246 1.415 . S
C248 C253 1.425 1_554 S
C248 C255 1.409 . S
C249 H241 0.930 . S
C249 C247 1.416 1_556 S
C249 C250 1.362 . S
C250 H242 0.930 . S
C250 C249 1.362 . S
C250 C253 1.409 . S
C251 H243 0.930 . S
C251 C252 1.355 1_556 S
C251 C253 1.415 . S
C252 C251 1.355 1_554 S
C252 C254 1.419 . S
C253 C248 1.425 1_556 S
C253 C250 1.409 . S
C253 C251 1.415 . S
C254 H244 0.930 . S
C254 C252 1.419 . S
C254 C255 1.362 . S
C255 H245 0.930 . S
C255 C248 1.409 . S
C255 C254 1.362 . S
H256 C262 0.930 . S
H257 C265 0.930 . S
H258 C266 0.930 . S
H259 C267 0.930 . S
H260 C270 0.930 . S
H261 C271 0.930 . S
C262 H256 0.930 . S
C262 C263 1.367 . S
C262 C264 1.415 . S
C263 C262 1.367 . S
C263 C265 1.404 1_554 S
C264 C262 1.415 . S
C264 C269 1.425 1_554 S
C264 C271 1.409 . S
C265 H257 0.930 . S
C265 C263 1.404 1_556 S
C265 C266 1.362 . S
C266 H258 0.930 . S
C266 C265 1.362 . S
C266 C269 1.409 . S
C267 H259 0.930 . S
C267 C268 1.355 1_556 S
C267 C269 1.415 . S
C268 C267 1.355 1_554 S
C268 C270 1.419 . S
C269 C264 1.425 1_556 S
C269 C266 1.409 . S
C269 C267 1.415 . S
C270 H260 0.930 . S
C270 C268 1.419 . S
C270 C271 1.362 . S
C271 H261 0.930 . S
C271 C264 1.409 . S
C271 C270 1.362 . S
H272 C278 0.930 . S
H273 C281 0.930 . S
H274 C282 0.930 . S
H275 C283 0.930 . S
H276 C286 0.930 . S
H277 C287 0.930 . S
C278 H272 0.930 . S
C278 C279 1.355 1_556 S
C278 C280 1.415 . S
C279 C278 1.355 1_554 S
C279 C281 1.419 . S
C280 C278 1.415 . S
C280 C285 1.425 1_556 S
C280 C287 1.409 . S
C281 H273 0.930 . S
C281 C279 1.419 . S
C281 C282 1.362 . S
C282 H274 0.930 . S
C282 C281 1.362 . S
C282 C285 1.409 . S
C283 H275 0.930 . S
C283 C284 1.355 . S
C283 C285 1.415 . S
C284 C283 1.355 . S
C284 C286 1.419 1_554 S
C285 C280 1.425 1_554 S
C285 C282 1.409 . S
C285 C283 1.415 . S
C286 H276 0.930 . S
C286 C284 1.419 1_556 S
C286 C287 1.362 . S
C287 H277 0.930 . S
C287 C280 1.409 . S
C287 C286 1.362 . S
H288 C294 0.930 . S
H289 C297 0.930 . S
H290 C298 0.930 . S
H291 C299 0.930 . S
H292 C302 0.930 . S
H293 C303 0.930 . S
C294 H288 0.930 . S
C294 C295 1.355 . S
C294 C296 1.415 . S
C295 C294 1.355 . S
C295 C297 1.419 . S
C296 C294 1.415 . S
C296 C301 1.425 1_545 S
C296 C303 1.409 1_545 S
C297 H289 0.930 . S
C297 C295 1.419 . S
C297 C298 1.362 . S
C298 H290 0.930 . S
C298 C297 1.362 . S
C298 C301 1.409 1_545 S
C299 H291 0.930 . S
C299 C300 1.355 . S
C299 C301 1.415 . S
C300 C299 1.355 . S
C300 C302 1.419 . S
C301 C296 1.425 1_565 S
C301 C298 1.409 1_565 S
C301 C299 1.415 . S
C302 H292 0.930 . S
C302 C300 1.419 . S
C302 C303 1.362 . S
C303 H293 0.930 . S
C303 C296 1.409 1_565 S
C303 C302 1.362 . S
H304 C310 0.930 . S
H305 C313 0.930 . S
H306 C314 0.930 . S
H307 C315 0.930 . S
H308 C318 0.930 . S
H309 C319 0.930 . S
C310 H304 0.930 . S
C310 C311 1.355 . S
C310 C312 1.415 . S
C311 C310 1.355 . S
C311 C313 1.419 . S
C312 C310 1.415 . S
C312 C317 1.425 1_655 S
C312 C319 1.409 1_655 S
C313 H305 0.930 . S
C313 C311 1.419 . S
C313 C314 1.362 . S
C314 H306 0.930 . S
C314 C313 1.362 . S
C314 C317 1.409 1_655 S
C315 H307 0.930 . S
C315 C316 1.355 . S
C315 C317 1.415 . S
C316 C315 1.355 . S
C316 C318 1.419 . S
C317 C312 1.425 1_455 S
C317 C314 1.409 1_455 S
C317 C315 1.415 . S
C318 H308 0.930 . S
C318 C316 1.419 . S
C318 C319 1.362 . S
C319 H309 0.930 . S
C319 C312 1.409 1_455 S
C319 C318 1.362 . S
H320 C326 0.930 . S
H321 C329 0.930 . S
H322 C330 0.930 . S
H323 C331 0.930 . S
H324 C334 0.930 . S
H325 C335 0.930 . S
C326 H320 0.930 . S
C326 C327 1.355 . S
C326 C328 1.415 . S
C327 C326 1.355 . S
C327 C329 1.419 . S
C328 C326 1.415 . S
C328 C333 1.425 1_545 S
C328 C335 1.409 1_545 S
C329 H321 0.930 . S
C329 C327 1.419 . S
C329 C330 1.362 . S
C330 H322 0.930 . S
C330 C329 1.362 . S
C330 C333 1.409 1_545 S
C331 H323 0.930 . S
C331 C332 1.355 . S
C331 C333 1.415 . S
C332 C331 1.355 . S
C332 C334 1.419 . S
C333 C328 1.425 1_565 S
C333 C330 1.409 1_565 S
C333 C331 1.415 . S
C334 H324 0.930 . S
C334 C332 1.419 . S
C334 C335 1.362 . S
C335 H325 0.930 . S
C335 C328 1.409 1_565 S
C335 C334 1.362 . S
H336 C342 0.930 . S
H337 C345 0.930 . S
H338 C346 0.930 . S
H339 C347 0.930 . S
H340 C350 0.930 . S
H341 C351 0.930 . S
C342 H336 0.930 . S
C342 C343 1.355 . S
C342 C344 1.415 . S
C343 C342 1.355 . S
C343 C345 1.419 . S
C344 C342 1.415 . S
C344 C349 1.425 1_455 S
C344 C351 1.409 1_455 S
C345 H337 0.930 . S
C345 C343 1.419 . S
C345 C346 1.362 . S
C346 H338 0.930 . S
C346 C345 1.362 . S
C346 C349 1.409 1_455 S
C347 H339 0.930 . S
C347 C348 1.355 . S
C347 C349 1.415 . S
C348 C347 1.355 . S
C348 C350 1.419 . S
C349 C344 1.425 1_655 S
C349 C346 1.409 1_655 S
C349 C347 1.415 . S
C350 H340 0.930 . S
C350 C348 1.419 . S
C350 C351 1.362 . S
C351 H341 0.930 . S
C351 C344 1.409 1_655 S
C351 C350 1.362 . S
H352 C358 0.930 . S
H353 C361 0.930 . S
H354 C362 0.930 . S
H355 C363 0.930 . S
H356 C366 0.930 . S
H357 C367 0.930 . S
C358 H352 0.930 . S
C358 C359 1.355 . S
C358 C360 1.415 . S
C359 C358 1.355 . S
C359 C361 1.419 1_554 S
C360 C358 1.415 . S
C360 C365 1.425 1_554 S
C360 C367 1.409 . S
C361 H353 0.930 . S
C361 C359 1.419 1_556 S
C361 C362 1.362 . S
C362 H354 0.930 . S
C362 C361 1.362 . S
C362 C365 1.409 . S
C363 H355 0.930 . S
C363 C364 1.355 1_556 S
C363 C365 1.415 . S
C364 C363 1.355 1_554 S
C364 C366 1.419 . S
C365 C360 1.425 1_556 S
C365 C362 1.409 . S
C365 C363 1.415 . S
C366 H356 0.930 . S
C366 C364 1.419 . S
C366 C367 1.362 . S
C367 H357 0.930 . S
C367 C360 1.409 . S
C367 C366 1.362 . S
H368 C374 0.930 . S
H369 C377 0.930 . S
H370 C378 0.930 . S
H371 C379 0.930 . S
H372 C382 0.930 . S
H373 C383 0.930 . S
C374 H368 0.930 . S
C374 C375 1.355 . S
C374 C376 1.415 . S
C375 C374 1.355 . S
C375 C377 1.419 1_554 S
C376 C374 1.415 . S
C376 C381 1.425 . S
C376 C383 1.409 . S
C377 H369 0.930 . S
C377 C375 1.419 1_556 S
C377 C378 1.362 . S
C378 H370 0.930 . S
C378 C377 1.362 . S
C378 C381 1.409 1_556 S
C379 H371 0.930 . S
C379 C380 1.355 . S
C379 C381 1.415 . S
C380 C379 1.355 . S
C380 C382 1.419 . S
C381 C376 1.425 . S
C381 C378 1.409 1_554 S
C381 C379 1.415 . S
C382 H372 0.930 . S
C382 C380 1.419 . S
C382 C383 1.362 . S
C383 H373 0.930 . S
C383 C376 1.409 . S
C383 C382 1.362 . S
H384 C390 0.930 . S
H385 C393 0.930 . S
H386 C394 0.930 . S
H387 C395 0.930 . S
H388 C398 0.930 . S
H389 C399 0.930 . S
C390 H384 0.930 . S
C390 C391 1.355 . S
C390 C392 1.415 . S
C391 C390 1.355 . S
C391 C393 1.419 1_554 S
C392 C390 1.415 . S
C392 C397 1.425 1_554 S
C392 C399 1.409 . S
C393 H385 0.930 . S
C393 C391 1.419 1_556 S
C393 C394 1.362 . S
C394 H386 0.930 . S
C394 C393 1.362 . S
C394 C397 1.409 . S
C395 H387 0.930 . S
C395 C396 1.355 1_556 S
C395 C397 1.415 . S
C396 C395 1.355 1_554 S
C396 C398 1.419 . S
C397 C392 1.425 1_556 S
C397 C394 1.409 . S
C397 C395 1.415 . S
C398 H388 0.930 . S
C398 C396 1.419 . S
C398 C399 1.362 . S
C399 H389 0.930 . S
C399 C392 1.409 . S
C399 C398 1.362 . S
H400 C406 0.930 . S
H401 C409 0.930 . S
H402 C410 0.930 . S
H403 C411 0.930 . S
H404 C414 0.930 . S
H405 C415 0.930 . S
C406 H400 0.930 . S
C406 C407 1.355 . S
C406 C408 1.415 . S
C407 C406 1.355 . S
C407 C409 1.419 1_554 S
C408 C406 1.415 . S
C408 C413 1.425 . S
C408 C415 1.409 . S
C409 H401 0.930 . S
C409 C407 1.419 1_556 S
C409 C410 1.362 . S
C410 H402 0.930 . S
C410 C409 1.362 . S
C410 C413 1.409 1_556 S
C411 H403 0.930 . S
C411 C412 1.355 . S
C411 C413 1.415 . S
C412 C411 1.355 . S
C412 C414 1.419 . S
C413 C408 1.425 . S
C413 C410 1.409 1_554 S
C413 C411 1.415 . S
C414 H404 0.930 . S
C414 C412 1.419 . S
C414 C415 1.362 . S
C415 H405 0.930 . S
C415 C408 1.409 . S
C415 C414 1.362 . S
H416 C422 0.930 . S
H417 C425 0.930 . S
H418 C426 0.930 . S
H419 C427 0.930 . S
H420 C430 0.930 . S
H421 C431 0.930 . S
C422 H416 0.930 . S
C422 C423 1.355 . S
C422 C424 1.415 . S
C423 C422 1.355 . S
C423 C425 1.419 . S
C424 C422 1.415 . S
C424 C429 1.425 . S
C424 C431 1.409 . S
C425 H417 0.930 . S
C425 C423 1.419 . S
C425 C426 1.362 . S
C426 H418 0.930 . S
C426 C425 1.362 . S
C426 C429 1.409 . S
C427 H419 0.930 . S
C427 C428 1.355 . S
C427 C429 1.415 . S
C428 C427 1.355 . S
C428 C430 1.419 . S
C429 C424 1.425 . S
C429 C426 1.409 . S
C429 C427 1.415 . S
C430 H420 0.930 . S
C430 C428 1.419 . S
C430 C431 1.362 . S
C431 H421 0.930 . S
C431 C424 1.409 . S
C431 C430 1.362 . S
H432 C438 0.930 . S
H433 C441 0.930 . S
H434 C442 0.930 . S
H435 C443 0.930 . S
H436 C446 0.930 . S
H437 C447 0.930 . S
C438 H432 0.930 . S
C438 C439 1.355 . S
C438 C440 1.415 . S
C439 C438 1.355 . S
C439 C441 1.419 . S
C440 C438 1.415 . S
C440 C445 1.425 . S
C440 C447 1.409 . S
C441 H433 0.930 . S
C441 C439 1.419 . S
C441 C442 1.362 . S
C442 H434 0.930 . S
C442 C441 1.362 . S
C442 C445 1.409 . S
C443 H435 0.930 . S
C443 C444 1.355 . S
C443 C445 1.415 . S
C444 C443 1.355 . S
C444 C446 1.419 . S
C445 C440 1.425 . S
C445 C442 1.409 . S
C445 C443 1.415 . S
C446 H436 0.930 . S
C446 C444 1.419 . S
C446 C447 1.362 . S
C447 H437 0.930 . S
C447 C440 1.409 . S
C447 C446 1.362 . S
H448 C454 0.930 . S
H449 C457 0.930 . S
H450 C458 0.930 . S
H451 C459 0.930 . S
H452 C462 0.930 . S
H453 C463 0.930 . S
C454 H448 0.930 . S
C454 C455 1.355 . S
C454 C456 1.415 . S
C455 C454 1.355 . S
C455 C457 1.419 . S
C456 C454 1.415 . S
C456 C461 1.425 . S
C456 C463 1.409 . S
C457 H449 0.930 . S
C457 C455 1.419 . S
C457 C458 1.362 . S
C458 H450 0.930 . S
C458 C457 1.362 . S
C458 C461 1.409 . S
C459 H451 0.930 . S
C459 C460 1.355 . S
C459 C461 1.415 . S
C460 C459 1.355 . S
C460 C462 1.419 . S
C461 C456 1.425 . S
C461 C458 1.409 . S
C461 C459 1.415 . S
C462 H452 0.930 . S
C462 C460 1.419 . S
C462 C463 1.362 . S
C463 H453 0.930 . S
C463 C456 1.409 . S
C463 C462 1.362 . S
H464 C470 0.930 . S
H465 C473 0.930 . S
H466 C474 0.930 . S
H467 C475 0.930 . S
H468 C478 0.930 . S
H469 C479 0.930 . S
C470 H464 0.930 . S
C470 C471 1.355 . S
C470 C472 1.415 . S
C471 C470 1.355 . S
C471 C473 1.419 . S
C472 C470 1.415 . S
C472 C477 1.425 . S
C472 C479 1.409 . S
C473 H465 0.930 . S
C473 C471 1.419 . S
C473 C474 1.362 . S
C474 H466 0.930 . S
C474 C473 1.362 . S
C474 C477 1.409 . S
C475 H467 0.930 . S
C475 C476 1.355 . S
C475 C477 1.415 . S
C476 C475 1.355 . S
C476 C478 1.419 . S
C477 C472 1.425 . S
C477 C474 1.409 . S
C477 C475 1.415 . S
C478 H468 0.930 . S
C478 C476 1.419 . S
C478 C479 1.362 . S
C479 H469 0.930 . S
C479 C472 1.409 . S
C479 C478 1.362 . S
H480 C486 0.930 . S
H481 C489 0.930 . S
H482 C490 0.930 . S
H483 C491 0.930 . S
H484 C494 0.930 . S
H485 C495 0.930 . S
C486 H480 0.930 . S
C486 C487 1.355 . S
C486 C488 1.415 . S
C487 C486 1.355 . S
C487 C489 1.419 . S
C488 C486 1.415 . S
C488 C493 1.425 . S
C488 C495 1.409 . S
C489 H481 0.930 . S
C489 C487 1.419 . S
C489 C490 1.362 . S
C490 H482 0.930 . S
C490 C489 1.362 . S
C490 C493 1.409 . S
C491 H483 0.930 . S
C491 C492 1.355 . S
C491 C493 1.415 . S
C492 C491 1.355 . S
C492 C494 1.419 . S
C493 C488 1.425 . S
C493 C490 1.409 . S
C493 C491 1.415 . S
C494 H484 0.930 . S
C494 C492 1.419 . S
C494 C495 1.362 . S
C495 H485 0.930 . S
C495 C488 1.409 . S
C495 C494 1.362 . S
H496 C502 0.930 . S
H497 C505 0.930 . S
H498 C506 0.930 . S
H499 C507 0.930 . S
H500 C510 0.930 . S
H501 C511 0.930 . S
C502 H496 0.930 . S
C502 C503 1.355 . S
C502 C504 1.415 . S
C503 C502 1.355 . S
C503 C505 1.419 . S
C504 C502 1.415 . S
C504 C509 1.425 . S
C504 C511 1.409 . S
C505 H497 0.930 . S
C505 C503 1.419 . S
C505 C506 1.362 . S
C506 H498 0.930 . S
C506 C505 1.362 . S
C506 C509 1.409 . S
C507 H499 0.930 . S
C507 C508 1.355 . S
C507 C509 1.415 . S
C508 C507 1.355 . S
C508 C510 1.419 . S
C509 C504 1.425 . S
C509 C506 1.409 . S
C509 C507 1.415 . S
C510 H500 0.930 . S
C510 C508 1.419 . S
C510 C511 1.362 . S
C511 H501 0.930 . S
C511 C504 1.409 . S
C511 C510 1.362 . S
H512 C518 0.930 . S
H513 C521 0.930 . S
H514 C522 0.930 . S
H515 C523 0.930 . S
H516 C526 0.930 . S
H517 C527 0.930 . S
C518 H512 0.930 . S
C518 C519 1.355 . S
C518 C520 1.415 . S
C519 C518 1.355 . S
C519 C521 1.419 . S
C520 C518 1.415 . S
C520 C525 1.425 . S
C520 C527 1.409 . S
C521 H513 0.930 . S
C521 C519 1.419 . S
C521 C522 1.362 . S
C522 H514 0.930 . S
C522 C521 1.362 . S
C522 C525 1.409 . S
C523 H515 0.930 . S
C523 C524 1.355 . S
C523 C525 1.415 . S
C524 C523 1.355 . S
C524 C526 1.419 . S
C525 C520 1.425 . S
C525 C522 1.409 . S
C525 C523 1.415 . S
C526 H516 0.930 . S
C526 C524 1.419 . S
C526 C527 1.362 . S
C527 H517 0.930 . S
C527 C520 1.409 . S
C527 C526 1.362 . S
H528 C534 0.930 . S
H529 C537 0.930 . S
H530 C538 0.930 . S
H531 C539 0.930 . S
H532 C542 0.930 . S
H533 C543 0.930 . S
C534 H528 0.930 . S
C534 C535 1.355 . S
C534 C536 1.415 . S
C535 C534 1.355 . S
C535 C537 1.419 . S
C536 C534 1.415 . S
C536 C541 1.425 . S
C536 C543 1.409 . S
C537 H529 0.930 . S
C537 C535 1.419 . S
C537 C538 1.362 . S
C538 H530 0.930 . S
C538 C537 1.362 . S
C538 C541 1.409 . S
C539 H531 0.930 . S
C539 C540 1.355 . S
C539 C541 1.415 . S
C540 C539 1.355 . S
C540 C542 1.419 . S
C541 C536 1.425 . S
C541 C538 1.409 . S
C541 C539 1.415 . S
C542 H532 0.930 . S
C542 C540 1.419 . S
C542 C543 1.362 . S
C543 H533 0.930 . S
C543 C536 1.409 . S
C543 C542 1.362 . S
H544 C550 0.930 . S
H545 C553 0.930 . S
H546 C554 0.930 . S
H547 C555 0.930 . S
H548 C558 0.930 . S
H549 C559 0.930 . S
C550 H544 0.930 . S
C550 C551 1.355 . S
C550 C552 1.415 . S
C551 C550 1.355 . S
C551 C553 1.419 . S
C552 C550 1.415 . S
C552 C557 1.425 . S
C552 C559 1.409 . S
C553 H545 0.930 . S
C553 C551 1.419 . S
C553 C554 1.362 . S
C554 H546 0.930 . S
C554 C553 1.362 . S
C554 C557 1.409 . S
C555 H547 0.930 . S
C555 C556 1.355 . S
C555 C557 1.415 . S
C556 C555 1.355 . S
C556 C558 1.419 . S
C557 C552 1.425 . S
C557 C554 1.409 . S
C557 C555 1.415 . S
C558 H548 0.930 . S
C558 C556 1.419 . S
C558 C559 1.362 . S
C559 H549 0.930 . S
C559 C552 1.409 . S
C559 C558 1.362 . S
H560 C566 0.930 . S
H561 C569 0.930 . S
H562 C570 0.930 . S
H563 C571 0.930 . S
H564 C574 0.930 . S
H565 C575 0.930 . S
C566 H560 0.930 . S
C566 C567 1.355 . S
C566 C568 1.415 . S
C567 C566 1.355 . S
C567 C569 1.419 . S
C568 C566 1.415 . S
C568 C573 1.425 . S
C568 C575 1.409 . S
C569 H561 0.930 . S
C569 C567 1.419 . S
C569 C570 1.362 . S
C570 H562 0.930 . S
C570 C569 1.362 . S
C570 C573 1.409 . S
C571 H563 0.930 . S
C571 C572 1.355 . S
C571 C573 1.415 . S
C572 C571 1.355 . S
C572 C574 1.419 . S
C573 C568 1.425 . S
C573 C570 1.409 . S
C573 C571 1.415 . S
C574 H564 0.930 . S
C574 C572 1.419 . S
C574 C575 1.362 . S
C575 H565 0.930 . S
C575 C568 1.409 . S
C575 C574 1.362 . S
H576 C582 0.930 . S
H577 C585 0.930 . S
H578 C586 0.930 . S
H579 C587 0.930 . S
H580 C590 0.930 . S
H581 C591 0.930 . S
C582 H576 0.930 . S
C582 C583 1.355 . S
C582 C584 1.415 . S
C583 C582 1.355 . S
C583 C585 1.419 . S
C584 C582 1.415 . S
C584 C589 1.425 . S
C584 C591 1.409 . S
C585 H577 0.930 . S
C585 C583 1.419 . S
C585 C586 1.362 . S
C586 H578 0.930 . S
C586 C585 1.362 . S
C586 C589 1.409 . S
C587 H579 0.930 . S
C587 C588 1.355 . S
C587 C589 1.415 . S
C588 C587 1.355 . S
C588 C590 1.419 . S
C589 C584 1.425 . S
C589 C586 1.409 . S
C589 C587 1.415 . S
C590 H580 0.930 . S
C590 C588 1.419 . S
C590 C591 1.362 . S
C591 H581 0.930 . S
C591 C584 1.409 . S
C591 C590 1.362 . S
H592 C598 0.930 . S
H593 C601 0.930 . S
H594 C602 0.930 . S
H595 C603 0.930 . S
H596 C606 0.930 . S
H597 C607 0.930 . S
C598 H592 0.930 . S
C598 C599 1.355 . S
C598 C600 1.415 . S
C599 C598 1.355 . S
C599 C601 1.419 . S
C600 C598 1.415 . S
C600 C605 1.425 . S
C600 C607 1.409 . S
C601 H593 0.930 . S
C601 C599 1.419 . S
C601 C602 1.362 . S
C602 H594 0.930 . S
C602 C601 1.362 . S
C602 C605 1.409 . S
C603 H595 0.930 . S
C603 C604 1.355 . S
C603 C605 1.415 . S
C604 C603 1.355 . S
C604 C606 1.419 . S
C605 C600 1.425 . S
C605 C602 1.409 . S
C605 C603 1.415 . S
C606 H596 0.930 . S
C606 C604 1.419 . S
C606 C607 1.362 . S
C607 H597 0.930 . S
C607 C600 1.409 . S
C607 C606 1.362 . S
H608 C614 0.930 . S
H609 C617 0.930 . S
H610 C618 0.930 . S
H611 C619 0.930 . S
H612 C622 0.930 . S
H613 C623 0.930 . S
C614 H608 0.930 . S
C614 C615 1.355 . S
C614 C616 1.415 . S
C615 C614 1.355 . S
C615 C617 1.419 . S
C616 C614 1.415 . S
C616 C621 1.425 . S
C616 C623 1.409 . S
C617 H609 0.930 . S
C617 C615 1.419 . S
C617 C618 1.362 . S
C618 H610 0.930 . S
C618 C617 1.362 . S
C618 C621 1.409 . S
C619 H611 0.930 . S
C619 C620 1.355 . S
C619 C621 1.415 . S
C620 C619 1.355 . S
C620 C622 1.419 . S
C621 C616 1.425 . S
C621 C618 1.409 . S
C621 C619 1.415 . S
C622 H612 0.930 . S
C622 C620 1.419 . S
C622 C623 1.362 . S
C623 H613 0.930 . S
C623 C616 1.409 . S
C623 C622 1.362 . S
H624 C630 0.930 . S
H625 C633 0.930 . S
H626 C634 0.930 . S
H627 C635 0.930 . S
H628 C638 0.930 . S
H629 C639 0.930 . S
C630 H624 0.930 . S
C630 C631 1.355 . S
C630 C632 1.415 . S
C631 C630 1.355 . S
C631 C633 1.419 . S
C632 C630 1.415 . S
C632 C637 1.425 . S
C632 C639 1.409 . S
C633 H625 0.930 . S
C633 C631 1.419 . S
C633 C634 1.362 . S
C634 H626 0.930 . S
C634 C633 1.362 . S
C634 C637 1.409 . S
C635 H627 0.930 . S
C635 C636 1.355 . S
C635 C637 1.415 . S
C636 C635 1.355 . S
C636 C638 1.419 . S
C637 C632 1.425 . S
C637 C634 1.409 . S
C637 C635 1.415 . S
C638 H628 0.930 . S
C638 C636 1.419 . S
C638 C639 1.362 . S
C639 H629 0.930 . S
C639 C632 1.409 . S
C639 C638 1.362 . S
H640 C646 0.930 . S
H641 C649 0.930 . S
H642 C650 0.930 . S
H643 C651 0.930 . S
H644 C654 0.930 . S
H645 C655 0.930 . S
C646 H640 0.930 . S
C646 C647 1.355 . S
C646 C648 1.415 . S
C647 C646 1.355 . S
C647 C649 1.419 . S
C648 C646 1.415 . S
C648 C653 1.425 . S
C648 C655 1.409 . S
C649 H641 0.930 . S
C649 C647 1.419 . S
C649 C650 1.362 . S
C650 H642 0.930 . S
C650 C649 1.362 . S
C650 C653 1.409 . S
C651 H643 0.930 . S
C651 C652 1.355 . S
C651 C653 1.415 . S
C652 C651 1.355 . S
C652 C654 1.419 . S
C653 C648 1.425 . S
C653 C650 1.409 . S
C653 C651 1.415 . S
C654 H644 0.930 . S
C654 C652 1.419 . S
C654 C655 1.362 . S
C655 H645 0.930 . S
C655 C648 1.409 . S
C655 C654 1.362 . S
H656 C662 0.930 . S
H657 C665 0.930 . S
H658 C666 0.930 . S
H659 C667 0.930 . S
H660 C670 0.930 . S
H661 C671 0.930 . S
C662 H656 0.930 . S
C662 C663 1.355 . S
C662 C664 1.415 . S
C663 C662 1.355 . S
C663 C665 1.419 . S
C664 C662 1.415 . S
C664 C669 1.425 . S
C664 C671 1.409 . S
C665 H657 0.930 . S
C665 C663 1.419 . S
C665 C666 1.362 . S
C666 H658 0.930 . S
C666 C665 1.362 . S
C666 C669 1.409 . S
C667 H659 0.930 . S
C667 C668 1.355 . S
C667 C669 1.415 . S
C668 C667 1.355 . S
C668 C670 1.419 . S
C669 C664 1.425 . S
C669 C666 1.409 . S
C669 C667 1.415 . S
C670 H660 0.930 . S
C670 C668 1.419 . S
C670 C671 1.362 . S
C671 H661 0.930 . S
C671 C664 1.409 . S
C671 C670 1.362 . S
H672 C678 0.930 . S
H673 C681 0.930 . S
H674 C682 0.930 . S
H675 C683 0.930 . S
H676 C686 0.930 . S
H677 C687 0.930 . S
C678 H672 0.930 . S
C678 C679 1.355 . S
C678 C680 1.415 . S
C679 C678 1.355 . S
C679 C681 1.419 . S
C680 C678 1.415 . S
C680 C685 1.425 . S
C680 C687 1.409 . S
C681 H673 0.930 . S
C681 C679 1.419 . S
C681 C682 1.362 . S
C682 H674 0.930 . S
C682 C681 1.362 . S
C682 C685 1.409 . S
C683 H675 0.930 . S
C683 C684 1.355 . S
C683 C685 1.415 . S
C684 C683 1.355 . S
C684 C686 1.419 . S
C685 C680 1.425 . S
C685 C682 1.409 . S
C685 C683 1.415 . S
C686 H676 0.930 . S
C686 C684 1.419 . S
C686 C687 1.362 . S
C687 H677 0.930 . S
C687 C680 1.409 . S
C687 C686 1.362 . S
H688 C694 0.930 . S
H689 C697 0.930 . S
H690 C698 0.930 . S
H691 C699 0.930 . S
H692 C702 0.930 . S
H693 C703 0.930 . S
C694 H688 0.930 . S
C694 C695 1.355 . S
C694 C696 1.415 . S
C695 C694 1.355 . S
C695 C697 1.419 . S
C696 C694 1.415 . S
C696 C701 1.425 . S
C696 C703 1.409 . S
C697 H689 0.930 . S
C697 C695 1.419 . S
C697 C698 1.362 . S
C698 H690 0.930 . S
C698 C697 1.362 . S
C698 C701 1.409 . S
C699 H691 0.930 . S
C699 C700 1.355 . S
C699 C701 1.415 . S
C700 C699 1.355 . S
C700 C702 1.419 . S
C701 C696 1.425 . S
C701 C698 1.409 . S
C701 C699 1.415 . S
C702 H692 0.930 . S
C702 C700 1.419 . S
C702 C703 1.362 . S
C703 H693 0.930 . S
C703 C696 1.409 . S
C703 C702 1.362 . S
H704 C710 0.930 . S
H705 C713 0.930 . S
H706 C714 0.930 . S
H707 C715 0.930 . S
H708 C718 0.930 . S
H709 C719 0.930 . S
C710 H704 0.930 . S
C710 C711 1.355 . S
C710 C712 1.415 . S
C711 C710 1.355 . S
C711 C713 1.419 . S
C712 C710 1.415 . S
C712 C717 1.425 . S
C712 C719 1.409 . S
C713 H705 0.930 . S
C713 C711 1.419 . S
C713 C714 1.362 . S
C714 H706 0.930 . S
C714 C713 1.362 . S
C714 C717 1.409 . S
C715 H707 0.930 . S
C715 C716 1.355 . S
C715 C717 1.415 . S
C716 C715 1.355 . S
C716 C718 1.419 . S
C717 C712 1.425 . S
C717 C714 1.409 . S
C717 C715 1.415 . S
C718 H708 0.930 . S
C718 C716 1.419 . S
C718 C719 1.362 . S
C719 H709 0.930 . S
C719 C712 1.409 . S
C719 C718 1.362 . S
H720 C726 0.930 . S
H721 C729 0.930 . S
H722 C730 0.930 . S
H723 C731 0.930 . S
H724 C734 0.930 . S
H725 C735 0.930 . S
C726 H720 0.930 . S
C726 C727 1.355 . S
C726 C728 1.415 . S
C727 C726 1.355 . S
C727 C729 1.419 . S
C728 C726 1.415 . S
C728 C733 1.425 . S
C728 C735 1.409 . S
C729 H721 0.930 . S
C729 C727 1.419 . S
C729 C730 1.362 . S
C730 H722 0.930 . S
C730 C729 1.362 . S
C730 C733 1.409 . S
C731 H723 0.930 . S
C731 C732 1.355 . S
C731 C733 1.415 . S
C732 C731 1.355 . S
C732 C734 1.419 . S
C733 C728 1.425 . S
C733 C730 1.409 . S
C733 C731 1.415 . S
C734 H724 0.930 . S
C734 C732 1.419 . S
C734 C735 1.362 . S
C735 H725 0.930 . S
C735 C728 1.409 . S
C735 C734 1.362 . S
C231 C67 1.419 . S
C236 C11 1.406 . S
C247 C81 1.408 . S
C252 C25 1.416 . S
C263 C95 1.408 . S
C268 C39 1.418 . S
C279 C109 1.420 . S
C284 C53 1.409 . S
C295 C179 1.414 . S
C300 C123 1.410 . S
C311 C193 1.412 . S
C316 C137 1.412 . S
C327 C151 1.406 . S
C332 C207 1.420 . S
C343 C221 1.410 . S
C348 C165 1.414 . S
C359 C5 1.474 . S
C364 C75 1.458 . S
C375 C89 1.473 . S
C380 C19 1.459 . S
C391 C33 1.463 . S
C396 C103 1.470 . S
C407 C61 1.473 . S
C412 C47 1.459 . S
C423 C187 1.473 . S
C428 C117 1.458 . S
C439 C201 1.473 . S
C444 C131 1.459 . S
C455 C145 1.471 . S
C460 C215 1.462 . S
C471 C159 1.461 . S
C476 C173 1.472 . S
C487 C219 1.453 . S
C492 C9 1.463 . S
C503 C177 1.466 . S
C508 C23 1.463 . S
C519 C191 1.436 . S
C524 C37 1.445 . S
C535 C205 1.466 . S
C540 C51 1.458 . S
C551 C135 1.466 . S
C556 C65 1.465 . S
C567 C149 1.457 . S
C572 C79 1.446 . S
C583 C93 1.435 . S
C588 C163 1.442 . S
C599 C107 1.457 . S
C604 C121 1.465 . S
C615 C182 1.389 . S
C620 C28 1.373 . S
C631 C196 1.365 . S
C636 C42 1.386 . S
C647 C210 1.375 . S
C652 C0 1.387 . S
C663 C14 1.361 . S
C668 C168 1.393 . S
C679 C154 1.395 . S
C684 C84 1.362 . S
C695 C98 1.394 . S
C700 C112 1.361 . S
C711 C126 1.362 . S
C716 C56 1.390 . S
C727 C140 1.372 . S
C732 C70 1.389 . S
