# Generated by pormake.
# Topology wiu, (6)-cn, num edge types: 1
# Building blocks:
#     Node 0, Type 0, BuildingBlock: MIFKUJ_clean_sbu_0, # of connection points: 6
#     Node 1, Type 0, BuildingBlock: MIFKUJ_clean_sbu_0, # of connection points: 6
#     Node 2, Type 0, BuildingBlock: MIFKUJ_clean_sbu_0, # of connection points: 6
#     Node 3, Type 0, BuildingBlock: MIFKUJ_clean_sbu_0, # of connection points: 6
#     Node 4, Type 0, BuildingBlock: MIFKUJ_clean_sbu_0, # of connection points: 6
#     Node 5, Type 0, BuildingBlock: MIFKUJ_clean_sbu_0, # of connection points: 6
#     Node 6, Type 0, BuildingBlock: MIFKUJ_clean_sbu_0, # of connection points: 6
#     Node 7, Type 0, BuildingBlock: MIFKUJ_clean_sbu_0, # of connection points: 6
#     Node 8, Type 0, BuildingBlock: MIFKUJ_clean_sbu_0, # of connection points: 6
#     Node 9, Type 0, BuildingBlock: MIFKUJ_clean_sbu_0, # of connection points: 6
#     Node 10, Type 0, BuildingBlock: MIFKUJ_clean_sbu_0, # of connection points: 6
#     Node 11, Type 0, BuildingBlock: MIFKUJ_clean_sbu_0, # of connection points: 6
#     Node 12, Type 0, BuildingBlock: MIFKUJ_clean_sbu_0, # of connection points: 6
#     Node 13, Type 0, BuildingBlock: MIFKUJ_clean_sbu_0, # of connection points: 6
#     Node 14, Type 0, BuildingBlock: MIFKUJ_clean_sbu_0, # of connection points: 6
#     Node 15, Type 0, BuildingBlock: MIFKUJ_clean_sbu_0, # of connection points: 6
#     Edge 16, Type (0, 0), BuildingBlock: XUDNAN_clean_linker_2, # of connection points: 2
#     Edge 17, Type (0, 0), BuildingBlock: XUDNAN_clean_linker_2, # of connection points: 2
#     Edge 18, Type (0, 0), BuildingBlock: XUDNAN_clean_linker_2, # of connection points: 2
#     Edge 19, Type (0, 0), BuildingBlock: XUDNAN_clean_linker_2, # of connection points: 2
#     Edge 20, Type (0, 0), BuildingBlock: XUDNAN_clean_linker_2, # of connection points: 2
#     Edge 21, Type (0, 0), BuildingBlock: XUDNAN_clean_linker_2, # of connection points: 2
#     Edge 22, Type (0, 0), BuildingBlock: XUDNAN_clean_linker_2, # of connection points: 2
#     Edge 23, Type (0, 0), BuildingBlock: XUDNAN_clean_linker_2, # of connection points: 2
#     Edge 24, Type (0, 0), BuildingBlock: XUDNAN_clean_linker_2, # of connection points: 2
#     Edge 25, Type (0, 0), BuildingBlock: XUDNAN_clean_linker_2, # of connection points: 2
#     Edge 26, Type (0, 0), BuildingBlock: XUDNAN_clean_linker_2, # of connection points: 2
#     Edge 27, Type (0, 0), BuildingBlock: XUDNAN_clean_linker_2, # of connection points: 2
#     Edge 28, Type (0, 0), BuildingBlock: XUDNAN_clean_linker_2, # of connection points: 2
#     Edge 29, Type (0, 0), BuildingBlock: XUDNAN_clean_linker_2, # of connection points: 2
#     Edge 30, Type (0, 0), BuildingBlock: XUDNAN_clean_linker_2, # of connection points: 2
#     Edge 31, Type (0, 0), BuildingBlock: XUDNAN_clean_linker_2, # of connection points: 2
#     Edge 32, Type (0, 0), BuildingBlock: XUDNAN_clean_linker_2, # of connection points: 2
#     Edge 33, Type (0, 0), BuildingBlock: XUDNAN_clean_linker_2, # of connection points: 2
#     Edge 34, Type (0, 0), BuildingBlock: XUDNAN_clean_linker_2, # of connection points: 2
#     Edge 35, Type (0, 0), BuildingBlock: XUDNAN_clean_linker_2, # of connection points: 2
#     Edge 36, Type (0, 0), BuildingBlock: XUDNAN_clean_linker_2, # of connection points: 2
#     Edge 37, Type (0, 0), BuildingBlock: XUDNAN_clean_linker_2, # of connection points: 2
#     Edge 38, Type (0, 0), BuildingBlock: XUDNAN_clean_linker_2, # of connection points: 2
#     Edge 39, Type (0, 0), BuildingBlock: XUDNAN_clean_linker_2, # of connection points: 2
#     Edge 40, Type (0, 0), BuildingBlock: XUDNAN_clean_linker_2, # of connection points: 2
#     Edge 41, Type (0, 0), BuildingBlock: XUDNAN_clean_linker_2, # of connection points: 2
#     Edge 42, Type (0, 0), BuildingBlock: XUDNAN_clean_linker_2, # of connection points: 2
#     Edge 43, Type (0, 0), BuildingBlock: XUDNAN_clean_linker_2, # of connection points: 2
#     Edge 44, Type (0, 0), BuildingBlock: XUDNAN_clean_linker_2, # of connection points: 2
#     Edge 45, Type (0, 0), BuildingBlock: XUDNAN_clean_linker_2, # of connection points: 2
#     Edge 46, Type (0, 0), BuildingBlock: XUDNAN_clean_linker_2, # of connection points: 2
#     Edge 47, Type (0, 0), BuildingBlock: XUDNAN_clean_linker_2, # of connection points: 2
#     Edge 48, Type (0, 0), BuildingBlock: XUDNAN_clean_linker_2, # of connection points: 2
#     Edge 49, Type (0, 0), BuildingBlock: XUDNAN_clean_linker_2, # of connection points: 2
#     Edge 50, Type (0, 0), BuildingBlock: XUDNAN_clean_linker_2, # of connection points: 2
#     Edge 51, Type (0, 0), BuildingBlock: XUDNAN_clean_linker_2, # of connection points: 2
#     Edge 52, Type (0, 0), BuildingBlock: XUDNAN_clean_linker_2, # of connection points: 2
#     Edge 53, Type (0, 0), BuildingBlock: XUDNAN_clean_linker_2, # of connection points: 2
#     Edge 54, Type (0, 0), BuildingBlock: XUDNAN_clean_linker_2, # of connection points: 2
#     Edge 55, Type (0, 0), BuildingBlock: XUDNAN_clean_linker_2, # of connection points: 2
#     Edge 56, Type (0, 0), BuildingBlock: XUDNAN_clean_linker_2, # of connection points: 2
#     Edge 57, Type (0, 0), BuildingBlock: XUDNAN_clean_linker_2, # of connection points: 2
#     Edge 58, Type (0, 0), BuildingBlock: XUDNAN_clean_linker_2, # of connection points: 2
#     Edge 59, Type (0, 0), BuildingBlock: XUDNAN_clean_linker_2, # of connection points: 2
#     Edge 60, Type (0, 0), BuildingBlock: XUDNAN_clean_linker_2, # of connection points: 2
#     Edge 61, Type (0, 0), BuildingBlock: XUDNAN_clean_linker_2, # of connection points: 2
#     Edge 62, Type (0, 0), BuildingBlock: XUDNAN_clean_linker_2, # of connection points: 2
#     Edge 63, Type (0, 0), BuildingBlock: XUDNAN_clean_linker_2, # of connection points: 2
# Relax obj value: 0.181
# Max RMSD: 0.244
# Mean RMSD: 0.244
data_MOF--net-wiu--node1-MIFKUJ_clean_sbu_0--edge1-XUDNAN_clean_linker_2
_symmetry_space_group_name_H-M    P1
_symmetry_Int_Tables_number       1
_symmetry_cell_setting            triclinic
loop_
_symmetry_equiv_pos_as_xyz
'x, y, z'
_cell_length_a     30.692862
_cell_length_b     30.633788
_cell_length_c     68.354665
_cell_angle_alpha  89.924861
_cell_angle_beta   90.080144
_cell_angle_gamma 89.983873
loop_
_atom_site_label
_atom_site_type_symbol
_atom_site_fract_x
_atom_site_fract_y
_atom_site_fract_z
_atom_type_partial_charge
Zn0 Zn 0.30752 0.12254 0.04933 0.0
Zn1 Zn 0.29377 0.16079 0.10823 0.0
C2 C 0.25111 0.1524 0.01816 0.0
O3 O 0.21938 0.14883 0.03091 0.0
C4 C 0.33947 0.11523 0.14026 0.0
O5 O 0.37394 0.11723 0.12893 0.0
O6 O 0.34612 0.07669 0.03864 0.0
O7 O 0.34333 0.16542 0.06698 0.0
O8 O 0.34705 0.18896 0.09796 0.0
C9 C 0.38486 0.06742 0.04347 0.0
O10 O 0.40216 0.08517 0.05914 0.0
O11 O 0.2903 0.15052 0.02404 0.0
C12 C 0.21639 0.21044 0.12065 0.0
O13 O 0.20213 0.17426 0.12868 0.0
O14 O 0.25235 0.21046 0.11153 0.0
O15 O 0.27827 0.12472 0.08599 0.0
O16 O 0.2534 0.09295 0.06054 0.0
O17 O 0.3033 0.13017 0.1341 0.0
C18 C 0.36082 0.18906 0.08033 0.0
C19 C 0.24849 0.10229 0.07834 0.0
Zn20 Zn 0.62726 0.55128 0.29655 0.0
Zn21 Zn 0.59543 0.53282 0.35173 0.0
C22 C 0.62154 0.48416 0.26675 0.0
O23 O 0.65199 0.46524 0.27723 0.0
C24 C 0.62539 0.57849 0.38385 0.0
O25 O 0.58283 0.58194 0.38506 0.0
O26 O 0.66579 0.59266 0.28277 0.0
O27 O 0.57943 0.58956 0.30801 0.0
O28 O 0.56216 0.57984 0.33927 0.0
C29 C 0.68242 0.62752 0.28931 0.0
O30 O 0.6779 0.63778 0.30785 0.0
O31 O 0.60362 0.51877 0.27309 0.0
C32 C 0.52429 0.47673 0.36376 0.0
O33 O 0.52646 0.46122 0.34588 0.0
O34 O 0.55188 0.50493 0.36934 0.0
O35 O 0.61485 0.48766 0.3331 0.0
O36 O 0.66552 0.51138 0.31326 0.0
O37 O 0.64194 0.55833 0.36939 0.0
C38 C 0.55704 0.59918 0.32305 0.0
C39 C 0.65367 0.48622 0.32704 0.0
Zn40 Zn 0.18487 0.87661 0.54703 0.0
Zn41 Zn 0.1843 0.84105 0.60135 0.0
C42 C 0.24249 0.85826 0.5131 0.0
O43 O 0.26746 0.83565 0.52501 0.0
C44 C 0.12957 0.86127 0.63501 0.0
O45 O 0.10195 0.8331 0.62752 0.0
O46 O 0.13437 0.91856 0.54531 0.0
O47 O 0.15832 0.81797 0.55316 0.0
O48 O 0.13681 0.84397 0.58138 0.0
C49 C 0.11039 0.9084 0.5308 0.0
O50 O 0.12002 0.87361 0.52047 0.0
O51 O 0.208 0.87591 0.51957 0.0
C52 C 0.23674 0.7661 0.61357 0.0
O53 O 0.2677 0.79506 0.61634 0.0
O54 O 0.19998 0.77854 0.60711 0.0
O55 O 0.23702 0.87425 0.59409 0.0
O56 O 0.23567 0.89847 0.56343 0.0
O57 O 0.16513 0.86892 0.62624 0.0
C58 C 0.13624 0.81378 0.56872 0.0
C59 C 0.25368 0.89598 0.58019 0.0
Zn60 Zn 0.84859 0.43662 0.79787 0.0
Zn61 Zn 0.89771 0.45709 0.85537 0.0
C62 C 0.88757 0.48343 0.76551 0.0
O63 O 0.89103 0.51504 0.77833 0.0
C64 C 0.85963 0.41215 0.8886 0.0
O65 O 0.85869 0.37898 0.87647 0.0
O66 O 0.79845 0.39828 0.79148 0.0
O67 O 0.88753 0.40311 0.81739 0.0
O68 O 0.92073 0.39927 0.84611 0.0
C69 C 0.81042 0.36044 0.78613 0.0
O70 O 0.8518 0.34983 0.78747 0.0
O71 O 0.87556 0.4459 0.7713 0.0
C72 C 0.95281 0.52344 0.87079 0.0
O73 O 0.92358 0.5238 0.8848 0.0
O74 O 0.94716 0.49898 0.85605 0.0
O75 O 0.85638 0.47167 0.83449 0.0
O76 O 0.82848 0.49617 0.80786 0.0
O77 O 0.87254 0.44918 0.8825 0.0
C78 C 0.9116 0.38256 0.82952 0.0
C79 C 0.84115 0.50377 0.82515 0.0
Zn80 Zn 0.71189 0.83151 0.89576 0.0
Zn81 Zn 0.68134 0.8921 0.94754 0.0
C82 C 0.66693 0.85038 0.85861 0.0
O83 O 0.65993 0.8081 0.85797 0.0
C84 C 0.73699 0.85453 0.97818 0.0
O85 O 0.76855 0.85718 0.96527 0.0
O86 O 0.75852 0.78903 0.88862 0.0
O87 O 0.72551 0.87169 0.91653 0.0
O88 O 0.73456 0.92434 0.93651 0.0
C89 C 0.77932 0.79212 0.87268 0.0
O90 O 0.7731 0.82645 0.86147 0.0
O91 O 0.68817 0.86633 0.87289 0.0
C92 C 0.60829 0.92036 0.96666 0.0
O93 O 0.6108 0.8793 0.97204 0.0
O94 O 0.63696 0.93626 0.95536 0.0
O95 O 0.64632 0.85344 0.92806 0.0
O96 O 0.66524 0.79845 0.90907 0.0
O97 O 0.69823 0.8631 0.97291 0.0
C98 C 0.74724 0.90461 0.92135 0.0
C99 C 0.64374 0.81304 0.92363 0.0
Zn100 Zn 0.40546 0.46842 0.64647 0.0
Zn101 Zn 0.35937 0.43256 0.69759 0.0
C102 C 0.38085 0.42455 0.61154 0.0
O103 O 0.41815 0.40572 0.61563 0.0
C104 C 0.39653 0.47217 0.7324 0.0
O105 O 0.40673 0.43198 0.73732 0.0
O106 O 0.45538 0.50593 0.63891 0.0
O107 O 0.37584 0.4898 0.66993 0.0
O108 O 0.31489 0.46277 0.67996 0.0
C109 C 0.45331 0.53329 0.62502 0.0
O110 O 0.41612 0.53938 0.61588 0.0
O111 O 0.36693 0.45487 0.62268 0.0
C112 C 0.30439 0.36223 0.70893 0.0
O113 O 0.295 0.36131 0.69018 0.0
O114 O 0.32943 0.3916 0.71549 0.0
O115 O 0.40555 0.39346 0.68455 0.0
O116 O 0.43078 0.41282 0.6552 0.0
O117 O 0.38202 0.47975 0.71531 0.0
C118 C 0.33485 0.48929 0.66895 0.0
C119 C 0.42968 0.38673 0.66965 0.0
Zn120 Zn 0.79264 0.15153 0.39147 0.0
Zn121 Zn 0.80379 0.11795 0.45155 0.0
C122 C 0.83308 0.14028 0.354 0.0
O123 O 0.83767 0.18271 0.3559 0.0
C124 C 0.76064 0.11314 0.48568 0.0
O125 O 0.76563 0.073 0.47931 0.0
O126 O 0.7455 0.19357 0.38423 0.0
O127 O 0.77882 0.11376 0.41315 0.0
O128 O 0.752 0.08648 0.43915 0.0
C129 C 0.72772 0.19138 0.36751 0.0
O130 O 0.73296 0.15592 0.35699 0.0
O131 O 0.81498 0.11888 0.36774 0.0
C132 C 0.88453 0.06544 0.45804 0.0
O133 O 0.89942 0.07903 0.44109 0.0
O134 O 0.84667 0.07644 0.46353 0.0
O135 O 0.83721 0.16406 0.43453 0.0
O136 O 0.83954 0.1879 0.40354 0.0
O137 O 0.77552 0.14449 0.47541 0.0
C138 C 0.74689 0.09583 0.42136 0.0
C139 C 0.85282 0.18928 0.42127 0.0
Zn140 Zn 0.09955 0.54523 0.1419 0.0
Zn141 Zn 0.12858 0.54866 0.20123 0.0
C142 C 0.1197 0.59076 0.10613 0.0
O143 O 0.07906 0.60385 0.10754 0.0
C144 C 0.10421 0.52762 0.24115 0.0
O145 O 0.1225 0.56518 0.24543 0.0
O146 O 0.05857 0.4964 0.13607 0.0
O147 O 0.13623 0.53267 0.16374 0.0
O148 O 0.16011 0.49759 0.18833 0.0
C149 C 0.04813 0.48603 0.11875 0.0
O150 O 0.06921 0.50369 0.10403 0.0
O151 O 0.13517 0.56531 0.11906 0.0
C152 C 0.17778 0.62804 0.20836 0.0
O153 O 0.15546 0.6445 0.19371 0.0
O154 O 0.17258 0.58831 0.21307 0.0
O155 O 0.08434 0.58597 0.1845 0.0
O156 O 0.06318 0.59247 0.15321 0.0
O157 O 0.09871 0.5174 0.2233 0.0
C158 C 0.15291 0.49824 0.17025 0.0
C159 C 0.06074 0.60375 0.17116 0.0
Zn160 Zn 0.80664 0.60405 0.54566 0.0
Zn161 Zn 0.78481 0.64607 0.60353 0.0
C162 C 0.76442 0.60772 0.51095 0.0
O163 O 0.75958 0.56776 0.5176 0.0
C164 C 0.81946 0.62324 0.64104 0.0
O165 O 0.83684 0.66231 0.63964 0.0
O166 O 0.85072 0.56182 0.53601 0.0
O167 O 0.84182 0.64167 0.56576 0.0
O168 O 0.84165 0.67091 0.59551 0.0
C169 C 0.88162 0.58396 0.52863 0.0
O170 O 0.87887 0.62678 0.52872 0.0
O171 O 0.7863 0.63494 0.52105 0.0
C172 C 0.72098 0.70223 0.62166 0.0
O173 O 0.72285 0.67379 0.63604 0.0
O174 O 0.74263 0.69521 0.60619 0.0
O175 O 0.77319 0.60869 0.58156 0.0
O176 O 0.75126 0.57468 0.55621 0.0
O177 O 0.79402 0.60996 0.62763 0.0
C178 C 0.8602 0.66453 0.57908 0.0
C179 C 0.74337 0.58774 0.5733 0.0
Zn180 Zn 0.12478 0.05302 0.79635 0.0
Zn181 Zn 0.0968 0.04415 0.85521 0.0
C182 C 0.12935 0.02176 0.75861 0.0
O183 O 0.17043 0.0257 0.76375 0.0
C184 C 0.12944 0.08285 0.88977 0.0
O185 O 0.0961 0.10874 0.88647 0.0
O186 O 0.17134 0.09605 0.78984 0.0
O187 O 0.07979 0.09098 0.81263 0.0
O188 O 0.07131 0.09835 0.84524 0.0
C189 C 0.1576 0.1259 0.77852 0.0
O190 O 0.11661 0.12546 0.77295 0.0
O191 O 0.09991 0.03312 0.77066 0.0
C192 C 0.02711 0.97404 0.86302 0.0
O193 O 0.05104 0.94003 0.85843 0.0
O194 O 0.04309 0.01215 0.86244 0.0
O195 O 0.12326 0.02545 0.83183 0.0
O196 O 0.15333 -0.00298 0.80703 0.0
O197 O 0.13733 0.05215 0.87784 0.0
C198 C 0.06137 0.10834 0.82764 0.0
C199 C 0.14509 0.99476 0.82496 0.0
Zn200 Zn 0.69147 0.40027 0.04983 0.0
Zn201 Zn 0.70638 0.33524 0.10115 0.0
C202 C 0.7164 0.35617 0.01243 0.0
O203 O 0.67588 0.35869 0.00643 0.0
C204 C 0.66111 0.34886 0.139 0.0
O205 O 0.65405 0.30658 0.13897 0.0
O206 O 0.65093 0.44084 0.03608 0.0
O207 O 0.65213 0.36977 0.07015 0.0
O208 O 0.6574 0.30805 0.08577 0.0
C209 C 0.61683 0.42218 0.02967 0.0
O210 O 0.61219 0.37986 0.03183 0.0
O211 O 0.72562 0.36469 0.03016 0.0
C212 C 0.76295 0.28481 0.12555 0.0
O213 O 0.75665 0.31761 0.13755 0.0
O214 O 0.74877 0.28765 0.10816 0.0
O215 O 0.72778 0.3821 0.08403 0.0
O216 O 0.74135 0.43266 0.06304 0.0
O217 O 0.6819 0.36619 0.12492 0.0
C218 C 0.6395 0.33054 0.07232 0.0
C219 C 0.75253 0.41241 0.07842 0.0
Zn220 Zn 0.35232 0.93276 0.29859 0.0
Zn221 Zn 0.41453 0.95442 0.35086 0.0
C222 C 0.39285 0.95147 0.26074 0.0
O223 O 0.38303 0.91136 0.25571 0.0
C224 C 0.38843 0.90761 0.38736 0.0
O225 O 0.42208 0.88173 0.38484 0.0
O226 O 0.31138 0.89162 0.28469 0.0
O227 O 0.38018 0.89478 0.32084 0.0
O228 O 0.43972 0.90134 0.33829 0.0
C229 C 0.32942 0.85463 0.2824 0.0
O230 O 0.37039 0.84971 0.28741 0.0
O231 O 0.39144 0.96207 0.27871 0.0
C232 C 0.46008 0.02262 0.3713 0.0
O233 O 0.42443 0.02264 0.38191 0.0
O234 O 0.46242 -0.00248 0.35656 0.0
O235 O 0.37075 0.97203 0.33134 0.0
O236 O 0.32103 0.98599 0.31003 0.0
O237 O 0.38134 0.93835 0.37527 0.0
C238 C 0.41875 0.88198 0.32474 0.0
C239 C 0.34087 -0.00299 0.32552 0.0
Zn240 Zn 0.19658 0.3321 0.39266 0.0
Zn241 Zn 0.18468 0.37131 0.45249 0.0
C242 C 0.16469 0.34028 0.35368 0.0
O243 O 0.16234 0.29771 0.35583 0.0
C244 C 0.22274 0.38127 0.48796 0.0
O245 O 0.21519 0.4205 0.48093 0.0
O246 O 0.2398 0.28572 0.38753 0.0
O247 O 0.22271 0.37358 0.41242 0.0
O248 O 0.23236 0.40735 0.44024 0.0
C249 C 0.26538 0.28487 0.37299 0.0
O250 O 0.26444 0.3165 0.36001 0.0
O251 O 0.17937 0.36319 0.36772 0.0
C252 C 0.1038 0.3994 0.46844 0.0
O253 O 0.0997 0.35838 0.47376 0.0
O254 O 0.13679 0.41123 0.45869 0.0
O255 O 0.16598 0.3311 0.43111 0.0
O256 O 0.14229 0.30361 0.40411 0.0
O257 O 0.21072 0.3484 0.47787 0.0
C258 C 0.2439 0.40087 0.42263 0.0
C259 C 0.1357 0.31154 0.42208 0.0
Zn260 Zn 0.90477 0.95005 0.13978 0.0
Zn261 Zn 0.86021 0.92929 0.19823 0.0
C262 C 0.88175 0.90853 0.10251 0.0
O263 O 0.91913 0.88798 0.10427 0.0
C264 C 0.86378 0.95811 0.23764 0.0
O265 O 0.82724 0.93582 0.23782 0.0
O266 O 0.95138 0.99452 0.13613 0.0
O267 O 0.86084 0.97045 0.15967 0.0
O268 O 0.82207 0.97586 0.1863 0.0
C269 C 0.95841 0.01656 0.12073 0.0
O270 O 0.93189 0.01269 0.10573 0.0
O271 O 0.87087 0.93661 0.11527 0.0
C272 C 0.84253 0.84975 0.21656 0.0
O273 O 0.88196 0.85667 0.22338 0.0
O274 O 0.82509 0.8775 0.20525 0.0
O275 O 0.90054 0.91075 0.17684 0.0
O276 O 0.93422 0.89463 0.15006 0.0
O277 O 0.88681 0.95834 0.22214 0.0
C278 C 0.83124 0.9898 0.16925 0.0
C279 C 0.925 0.88472 0.16761 0.0
Zn280 Zn 0.29353 0.65001 0.89119 0.0
Zn281 Zn 0.30098 0.60631 0.94932 0.0
C282 C 0.33635 0.60901 0.85823 0.0
O283 O 0.36963 0.6068 0.87029 0.0
C284 C 0.24106 0.64359 0.97745 0.0
O285 O 0.21024 0.62778 0.96615 0.0
O286 O 0.25948 0.70507 0.89021 0.0
O287 O 0.27377 0.61162 0.91227 0.0
O288 O 0.2492 0.57505 0.93662 0.0
C289 C 0.22748 0.71367 0.87911 0.0
O290 O 0.21161 0.68306 0.8677 0.0
O291 O 0.30032 0.62437 0.86426 0.0
C292 C 0.36966 0.54194 0.95733 0.0
O293 O 0.3757 0.53844 0.93838 0.0
O294 O 0.33886 0.56527 0.96383 0.0
O295 O 0.34105 0.64143 0.93095 0.0
O296 O 0.35086 0.66842 0.90119 0.0
O297 O 0.28019 0.64336 0.97146 0.0
C298 C 0.24461 0.58703 0.91903 0.0
C299 C 0.36405 0.66282 0.91869 0.0
Zn300 Zn 0.59431 0.02755 0.64452 0.0
Zn301 Zn 0.63635 0.05026 0.70253 0.0
C302 C 0.60705 0.07752 0.60967 0.0
O303 O 0.56635 0.08811 0.61315 0.0
C304 C 0.60777 0.99086 0.73324 0.0
O305 O 0.61558 0.96074 0.72004 0.0
O306 O 0.55147 0.98148 0.63703 0.0
O307 O 0.6306 0.01821 0.66703 0.0
O308 O 0.66947 -0.00305 0.69107 0.0
C309 C 0.55053 0.97073 0.61912 0.0
O310 O 0.58418 0.97977 0.60799 0.0
O311 O 0.62669 0.05128 0.62113 0.0
C312 C 0.65546 0.13015 0.71644 0.0
O313 O 0.61279 0.12716 0.71687 0.0
O314 O 0.67764 0.09757 0.71066 0.0
O315 O 0.5928 0.08447 0.68384 0.0
O316 O 0.56034 0.07597 0.65484 0.0
O317 O 0.61019 0.03088 0.72833 0.0
C318 C 0.65677 0.99071 0.67374 0.0
C319 C 0.56681 0.09789 0.67039 0.0
H320 H 0.43534 0.17493 0.0588 0.0
H321 H 0.3645 0.27293 0.09159 0.0
H322 H 0.42497 0.32473 0.08718 0.0
H323 H 0.53334 0.19194 0.0799 0.0
H324 H 0.56711 0.18523 0.05854 0.0
H325 H 0.5147 0.15928 0.0596 0.0
H326 H 0.49206 0.19733 0.02732 0.0
H327 H 0.5447 0.22339 0.02608 0.0
H328 H 0.49579 0.25588 0.02534 0.0
H329 H 0.49432 0.36251 0.08314 0.0
H330 H 0.57216 0.38175 0.0829 0.0
H331 H 0.60269 0.25799 0.05543 0.0
C332 C 0.43226 0.20782 0.06441 0.0
C333 C 0.39532 0.22036 0.07533 0.0
C334 C 0.39259 0.26302 0.08309 0.0
C335 C 0.42656 0.29276 0.08051 0.0
C336 C 0.46319 0.27927 0.07019 0.0
C337 C 0.46652 0.23782 0.06228 0.0
C338 C 0.51206 0.2299 0.05438 0.0
C339 C 0.53302 0.1892 0.06368 0.0
C340 C 0.51109 0.22641 0.03195 0.0
C341 C 0.53455 0.27168 0.06075 0.0
C342 C 0.50502 0.3005 0.06887 0.0
C343 C 0.5177 0.34061 0.07653 0.0
C344 C 0.56194 0.35127 0.07632 0.0
C345 C 0.59306 0.32141 0.06901 0.0
C346 C 0.57923 0.28141 0.06087 0.0
H347 H 0.55597 0.67086 0.29884 0.0
H348 H 0.48554 0.60753 0.34602 0.0
H349 H 0.43555 0.6701 0.3479 0.0
H350 H 0.5565 0.77282 0.31839 0.0
H351 H 0.54837 0.8029 0.296 0.0
H352 H 0.57327 0.74982 0.29532 0.0
H353 H 0.51448 0.72338 0.27078 0.0
H354 H 0.48942 0.77664 0.27132 0.0
H355 H 0.45764 0.72879 0.27694 0.0
H356 H 0.39924 0.74142 0.34776 0.0
H357 H 0.38078 0.81987 0.3466 0.0
H358 H 0.47591 0.83965 0.30066 0.0
C359 C 0.52912 0.66969 0.30909 0.0
C360 C 0.52434 0.63431 0.32216 0.0
C361 C 0.48967 0.63431 0.33582 0.0
C362 C 0.46089 0.66954 0.33691 0.0
C363 C 0.46712 0.70448 0.32421 0.0
C364 C 0.50023 0.70495 0.31051 0.0
C365 C 0.50265 0.74877 0.30023 0.0
C366 C 0.54788 0.7698 0.30265 0.0
C367 C 0.49032 0.74411 0.27853 0.0
C368 C 0.46789 0.77364 0.31131 0.0
C369 C 0.44678 0.74687 0.32456 0.0
C370 C 0.41493 0.76256 0.33722 0.0
C371 C 0.40475 0.80699 0.3365 0.0
C372 C 0.42691 0.83508 0.32348 0.0
C373 C 0.45844 0.81833 0.31057 0.0
H374 H 0.07045 0.79438 0.54317 0.0
H375 H 0.12536 0.75895 0.59935 0.0
H376 H 0.066 0.7069 0.60476 0.0
H377 H 0.96561 0.80056 0.56081 0.0
H378 H 0.9383 0.78066 0.53923 0.0
H379 H 0.99038 0.80713 0.53709 0.0
H380 H 0.0216 0.73932 0.51933 0.0
H381 H 0.96937 0.71273 0.52129 0.0
H382 H 0.01753 0.68635 0.53071 0.0
H383 H -0.00245 0.66786 0.60674 0.0
H384 H 0.9206 0.64566 0.60609 0.0
H385 H 0.90418 0.70794 0.54952 0.0
C386 C 0.07068 0.77413 0.55617 0.0
C387 C 0.10356 0.77901 0.57049 0.0
C388 C 0.10167 0.7543 0.5879 0.0
C389 C 0.06787 0.72471 0.59111 0.0
C390 C 0.03544 0.72109 0.57696 0.0
C391 C 0.03614 0.74528 0.55987 0.0
C392 C 0.9935 0.74039 0.54873 0.0
C393 C 0.97061 0.78482 0.54633 0.0
C394 C 0.00097 0.71837 0.52884 0.0
C395 C 0.96853 0.71067 0.56253 0.0
C396 C 0.99391 0.6995 0.57851 0.0
C397 C 0.97752 0.67568 0.59417 0.0
C398 C 0.93376 0.6635 0.59373 0.0
C399 C 0.90682 0.67504 0.57774 0.0
C400 C 0.92452 0.69811 0.56171 0.0
H401 H 0.05679 0.17805 0.8019 0.0
H402 H 0.98795 0.1121 0.84876 0.0
H403 H 0.93369 0.1709 0.84952 0.0
H404 H 0.05044 0.27959 0.82024 0.0
H405 H 0.04066 0.30916 0.79783 0.0
H406 H 0.06823 0.25744 0.79715 0.0
H407 H 0.01088 0.22782 0.77274 0.0
H408 H 0.98314 0.27976 0.77323 0.0
H409 H 0.95385 0.23038 0.7789 0.0
H410 H 0.89576 0.23997 0.84996 0.0
H411 H 0.87575 0.31771 0.85016 0.0
H412 H 0.96743 0.34301 0.80337 0.0
C413 C 0.02924 0.17544 0.81171 0.0
C414 C 0.02619 0.14055 0.82518 0.0
C415 C 0.99065 0.13858 0.8383 0.0
C416 C 0.95948 0.17165 0.83875 0.0
C417 C 0.96408 0.20653 0.82589 0.0
C418 C -0.00227 0.20874 0.81246 0.0
C419 C -0.0022 0.25276 0.80215 0.0
C420 C 0.04189 0.2761 0.80451 0.0
C421 C 0.9857 0.24735 0.78047 0.0
C422 C 0.96168 0.27599 0.81321 0.0
C423 C 0.94178 0.24792 0.8263 0.0
C424 C 0.91029 0.26207 0.83947 0.0
C425 C 0.89937 0.30628 0.8396 0.0
C426 C 0.92 0.33585 0.82676 0.0
C427 C 0.95076 0.32056 0.81304 0.0
H428 H 0.58634 0.78282 0.89707 0.0
H429 H 0.60876 0.79364 0.95946 0.0
H430 H 0.53939 0.75398 0.96578 0.0
H431 H 0.47101 0.80062 0.89905 0.0
H432 H 0.46008 0.76345 0.87922 0.0
H433 H 0.51125 0.79204 0.88025 0.0
H434 H 0.55244 0.71811 0.87872 0.0
H435 H 0.50139 0.68928 0.87785 0.0
H436 H 0.54071 0.67646 0.89662 0.0
H437 H 0.46744 0.7105 0.96446 0.0
H438 H 0.39802 0.67355 0.95583 0.0
H439 H 0.42558 0.6948 0.89427 0.0
C440 C 0.57677 0.77657 0.91208 0.0
C441 C 0.60269 0.79057 0.92784 0.0
C442 C 0.58894 0.78292 0.94727 0.0
C443 C 0.54987 0.76035 0.95094 0.0
C444 C 0.52515 0.74643 0.93495 0.0
C445 C 0.53802 0.75483 0.91593 0.0
C446 C 0.50562 0.73804 0.9012 0.0
C447 C 0.48582 0.77579 0.88924 0.0
C448 C 0.52629 0.70341 0.88782 0.0
C449 C 0.4726 0.71816 0.91481 0.0
C450 C 0.48415 0.723 0.93423 0.0
C451 C 0.45806 0.70675 0.94929 0.0
C452 C 0.41887 0.6857 0.94427 0.0
C453 C 0.40636 0.68159 0.9244 0.0
C454 C 0.43399 0.69765 0.90961 0.0
H455 H 0.53237 0.15305 0.69946 0.0
H456 H 0.57315 0.1477 0.63866 0.0
H457 H 0.54431 0.22049 0.633 0.0
H458 H 0.4344 0.20994 0.69319 0.0
H459 H 0.43978 0.24667 0.71365 0.0
H460 H 0.46643 0.1943 0.71421 0.0
H461 H 0.54051 0.23184 0.72046 0.0
H462 H 0.51433 0.28454 0.71999 0.0
H463 H 0.55935 0.27346 0.70384 0.0
H464 H 0.50706 0.28805 0.6321 0.0
H465 H 0.46679 0.35547 0.63668 0.0
H466 H 0.44948 0.32483 0.69839 0.0
C467 C 0.53567 0.16773 0.68513 0.0
C468 C 0.55356 0.14404 0.66928 0.0
C469 C 0.55788 0.16438 0.65077 0.0
C470 C 0.54209 0.20606 0.64742 0.0
C471 C 0.52303 0.2279 0.6629 0.0
C472 C 0.52038 0.21041 0.68151 0.0
C473 C 0.49784 0.24247 0.69519 0.0
C474 C 0.45718 0.22211 0.7046 0.0
C475 C 0.52991 0.25905 0.7108 0.0
C476 C 0.48597 0.27878 0.68088 0.0
C477 C 0.50181 0.26942 0.66249 0.0
C478 C 0.49505 0.29642 0.64649 0.0
C479 C 0.47188 0.33479 0.64929 0.0
C480 C 0.45507 0.34591 0.66793 0.0
C481 C 0.46211 0.31735 0.68399 0.0
H482 H 0.09665 0.24875 0.44427 0.0
H483 H 0.0731 0.36978 0.41336 0.0
H484 H 0.99382 0.35727 0.41539 0.0
H485 H 0.02492 0.1877 0.42146 0.0
H486 H 0.00453 0.15603 0.44173 0.0
H487 H 0.05803 0.1795 0.44298 0.0
H488 H 0.03801 0.21973 0.47501 0.0
H489 H 0.98443 0.19561 0.47411 0.0
H490 H 0.99033 0.25404 0.47571 0.0
H491 H 0.92155 0.32294 0.41264 0.0
H492 H 0.8591 0.27298 0.40882 0.0
H493 H 0.9262 0.17508 0.44333 0.0
C494 C 0.07449 0.27368 0.43902 0.0
C495 C 0.09053 0.31074 0.42911 0.0
C496 C 0.06109 0.34185 0.42147 0.0
C497 C 0.01606 0.3349 0.42251 0.0
C498 C 0.00104 0.2969 0.4315 0.0
C499 C 0.02923 0.26731 0.44015 0.0
C500 C 0.00491 0.22674 0.4468 0.0
C501 C 0.02425 0.18507 0.43768 0.0
C502 C 0.00439 0.22387 0.46924 0.0
C503 C 0.95971 0.23637 0.43889 0.0
C504 C 0.95806 0.27744 0.43046 0.0
C505 C 0.92186 0.29147 0.41984 0.0
C506 C 0.88666 0.26279 0.41763 0.0
C507 C 0.88764 0.22067 0.42613 0.0
C508 C 0.92418 0.2077 0.43728 0.0
H509 H 0.08001 0.68384 0.1863 0.0
H510 H 0.97366 0.60377 0.16532 0.0
H511 H 0.9233 0.6664 0.16849 0.0
H512 H 0.0138 0.75748 0.21964 0.0
H513 H 0.0453 0.80464 0.21268 0.0
H514 H 0.07055 0.7515 0.2134 0.0
H515 H 0.09492 0.76067 0.17742 0.0
H516 H 0.06985 0.81361 0.17651 0.0
H517 H 0.05472 0.77255 0.15889 0.0
H518 H 0.88684 0.73883 0.16994 0.0
H519 H 0.86893 0.81707 0.16586 0.0
H520 H 0.00013 0.85191 0.18309 0.0
C521 C 0.04574 0.6792 0.18324 0.0
C522 C 0.03015 0.63888 0.17619 0.0
C523 C 0.98569 0.6343 0.17122 0.0
C524 C 0.95693 0.66961 0.17303 0.0
C525 C 0.97334 0.70941 0.17963 0.0
C526 C 0.01681 0.71451 0.18455 0.0
C527 C 0.02762 0.76211 0.18822 0.0
C528 C 0.04005 0.76935 0.20977 0.0
C529 C 0.06389 0.77815 0.17443 0.0
C530 C 0.98413 0.7832 0.1835 0.0
C531 C 0.95285 0.75203 0.17934 0.0
C532 C 0.91082 0.76349 0.17348 0.0
C533 C 0.90087 0.80788 0.17124 0.0
C534 C 0.93303 0.84004 0.17448 0.0
C535 C 0.97485 0.82769 0.18101 0.0
H536 H 0.46231 0.02494 0.04997 0.0
H537 H 0.3692 0.05854 0.00447 0.0
H538 H 0.41778 0.02706 0.97961 0.0
H539 H 0.5587 0.04647 0.02305 0.0
H540 H 0.58859 0.00037 0.0325 0.0
H541 H 0.54648 0.02526 0.04704 0.0
H542 H 0.50697 0.95071 0.05025 0.0
H543 H 0.54939 0.92546 0.03602 0.0
H544 H 0.49334 0.92054 0.02845 0.0
H545 H 0.47878 -0.00296 0.95937 0.0
H546 H 0.54362 0.95926 0.9458 0.0
H547 H 0.59367 0.94007 0.00447 0.0
C548 C 0.45208 0.02531 0.0348 0.0
C549 C 0.41221 0.04431 0.02915 0.0
C550 C 0.39963 0.04396 0.00916 0.0
C551 C 0.42709 0.02646 0.99489 0.0
C552 C 0.46662 0.0088 0.00088 0.0
C553 C 0.47869 0.00713 0.02037 0.0
C554 C 0.52227 0.98486 0.02292 0.0
C555 C 0.55599 0.01611 0.03191 0.0
C556 C 0.5177 0.9429 0.03513 0.0
C557 C 0.53291 0.97475 0.00183 0.0
C558 C 0.50075 0.98946 0.98929 0.0
C559 C 0.50404 0.985 0.96903 0.0
C560 C 0.54088 0.96393 0.96146 0.0
C561 C 0.57302 0.94722 0.97422 0.0
C562 C 0.56918 0.95282 0.99456 0.0
H563 H 0.74118 0.69281 0.29708 0.0
H564 H 0.66928 0.63043 0.25003 0.0
H565 H 0.70241 0.68078 0.22624 0.0
H566 H 0.73535 0.80296 0.2779 0.0
H567 H 0.78985 0.81689 0.28549 0.0
H568 H 0.75906 0.77706 0.29909 0.0
H569 H 0.82132 0.72071 0.29445 0.0
H570 H 0.85219 0.76033 0.28079 0.0
H571 H 0.83989 0.70799 0.2701 0.0
H572 H 0.74116 0.73894 0.20771 0.0
H573 H 0.78761 0.79903 0.19532 0.0
H574 H 0.83843 0.81964 0.25379 0.0
C575 C 0.73239 0.68993 0.28179 0.0
C576 C 0.7028 0.65782 0.27538 0.0
C577 C 0.69219 0.65469 0.25523 0.0
C578 C 0.71064 0.68322 0.2416 0.0
C579 C 0.73995 0.71431 0.24835 0.0
C580 C 0.75107 0.71771 0.26791 0.0
C581 C 0.78452 0.75321 0.27113 0.0
C582 C 0.76608 0.78968 0.28417 0.0
C583 C 0.827 0.73441 0.27962 0.0
C584 C 0.79069 0.76879 0.25032 0.0
C585 C 0.76412 0.74642 0.23745 0.0
C586 C 0.76251 0.75642 0.21757 0.0
C587 C 0.78885 0.7904 0.21069 0.0
C588 C 0.81677 0.81298 0.22363 0.0
C589 C 0.81795 0.80193 0.24361 0.0
H590 H 0.09367 0.93274 0.49364 0.0
H591 H 0.04636 0.94607 0.55304 0.0
H592 H 0.98188 0.98681 0.54068 0.0
H593 H 0.06057 0.04156 0.47777 0.0
H594 H 0.04733 0.02352 0.45339 0.0
H595 H 0.08919 -0.00404 0.46718 0.0
H596 H 0.04869 0.92251 0.46227 0.0
H597 H 0.00644 0.94991 0.44869 0.0
H598 H 0.99267 0.91766 0.46988 0.0
H599 H 0.92064 0.02105 0.5213 0.0
H600 H 0.8714 0.05515 0.49725 0.0
H601 H 0.96209 0.02365 0.45063 0.0
C602 C 0.06981 0.94459 0.50403 0.0
C603 C 0.07446 0.93639 0.52422 0.0
C604 C 0.04316 0.95248 0.53751 0.0
C605 C 0.00649 0.9753 0.5306 0.0
C606 C 0.0025 0.98227 0.51048 0.0
C607 C 0.03381 0.96818 0.49744 0.0
C608 C 0.02267 0.98089 0.47663 0.0
C609 C 0.05698 0.01236 0.46826 0.0
C610 C 0.01729 0.94032 0.46361 0.0
C611 C 0.97962 0.00369 0.47986 0.0
C612 C 0.96838 0.00376 0.49946 0.0
C613 C 0.92937 0.02166 0.50597 0.0
C614 C 0.90154 0.04075 0.49214 0.0
C615 C 0.91306 0.04227 0.47205 0.0
C616 C 0.95256 0.02325 0.46588 0.0
H617 H 0.82124 0.27374 0.77841 0.0
H618 H 0.73242 0.38239 0.76953 0.0
H619 H 0.68621 0.33592 0.74858 0.0
H620 H 0.81475 0.22879 0.7303 0.0
H621 H 0.81564 0.17276 0.7384 0.0
H622 H 0.84205 0.21434 0.75277 0.0
H623 H 0.79635 0.19247 0.78308 0.0
H624 H 0.77038 0.1503 0.76892 0.0
H625 H 0.73778 0.19081 0.78118 0.0
H626 H 0.65014 0.27866 0.72876 0.0
H627 H 0.62201 0.21138 0.71355 0.0
H628 H 0.73416 0.13957 0.73508 0.0
C629 C 0.79192 0.28765 0.77214 0.0
C630 C 0.78032 0.33159 0.77555 0.0
C631 C 0.74166 0.34867 0.76722 0.0
C632 C 0.71546 0.32268 0.75517 0.0
C633 C 0.72833 0.27977 0.75177 0.0
C634 C 0.76525 0.26212 0.76022 0.0
C635 C 0.7708 0.21455 0.75478 0.0
C636 C 0.81334 0.20721 0.74338 0.0
C637 C 0.76868 0.18531 0.77308 0.0
C638 C 0.73124 0.20828 0.74184 0.0
C639 C 0.70737 0.24646 0.74027 0.0
C640 C 0.6685 0.24859 0.72984 0.0
C641 C 0.6528 0.21029 0.7213 0.0
C642 C 0.67602 0.1706 0.72321 0.0
C643 C 0.71624 0.16975 0.73319 0.0
H644 H 0.23298 0.31027 0.70433 0.0
H645 H 0.34212 0.3358 0.74309 0.0
H646 H 0.31814 0.27591 0.76477 0.0
H647 H 0.15595 0.28902 0.7423 0.0
H648 H 0.12782 0.24702 0.72883 0.0
H649 H 0.15501 0.29041 0.71593 0.0
H650 H 0.19991 0.2334 0.69643 0.0
H651 H 0.1729 0.18983 0.70931 0.0
H652 H 0.23152 0.19318 0.7095 0.0
H653 H 0.28272 0.21221 0.78186 0.0
H654 H 0.23471 0.15361 0.79449 0.0
H655 H 0.14706 0.17364 0.74542 0.0
C656 C 0.25186 0.30311 0.71735 0.0
C657 C 0.28933 0.3274 0.72206 0.0
C658 C 0.31308 0.31757 0.73931 0.0
C659 C 0.29991 0.28351 0.75164 0.0
C660 C 0.26272 0.26012 0.74658 0.0
C661 C 0.23878 0.2698 0.72996 0.0
C662 C 0.19896 0.24114 0.7283 0.0
C663 C 0.15696 0.26854 0.72888 0.0
C664 C 0.20097 0.2127 0.70979 0.0
C665 C 0.20414 0.21395 0.74659 0.0
C666 C 0.24141 0.22487 0.75682 0.0
C667 C 0.2533 0.20351 0.77404 0.0
C668 C 0.22599 0.17032 0.78107 0.0
C669 C 0.18714 0.1596 0.77099 0.0
C670 C 0.17632 0.18161 0.75354 0.0
H671 H 0.26891 0.85188 0.25269 0.0
H672 H 0.33806 0.77202 0.29505 0.0
H673 H 0.30548 0.70574 0.28087 0.0
H674 H 0.16911 0.78475 0.24962 0.0
H675 H 0.16371 0.7924 0.22358 0.0
H676 H 0.18871 0.8342 0.23833 0.0
H677 H 0.25723 0.83131 0.21626 0.0
H678 H 0.23275 0.78897 0.20167 0.0
H679 H 0.28518 0.7801 0.2129 0.0
H680 H 0.27014 0.6486 0.26148 0.0
H681 H 0.23034 0.60209 0.23828 0.0
H682 H 0.18518 0.71759 0.20727 0.0
C683 C 0.2762 0.82043 0.25918 0.0
C684 C 0.30557 0.81671 0.27498 0.0
C685 C 0.31551 0.77522 0.28291 0.0
C686 C 0.2972 0.7375 0.275 0.0
C687 C 0.2694 0.74191 0.25905 0.0
C688 C 0.25866 0.78216 0.25121 0.0
C689 C 0.23004 0.77704 0.23325 0.0
C690 C 0.18523 0.79836 0.23639 0.0
C691 C 0.25266 0.79545 0.21494 0.0
C692 C 0.22654 0.72773 0.23233 0.0
C693 C 0.24951 0.70832 0.24739 0.0
C694 C 0.25177 0.66328 0.24965 0.0
C695 C 0.22918 0.63717 0.23635 0.0
C696 C 0.20466 0.65621 0.22097 0.0
C697 C 0.2038 0.70211 0.21882 0.0
H698 H 0.02703 0.38763 0.48845 0.0
H699 H 0.11292 0.48722 0.46463 0.0
H700 H 0.06601 0.54438 0.47827 0.0
H701 H 0.92665 0.44608 0.47912 0.0
H702 H 0.90092 0.42793 0.50137 0.0
H703 H 0.94135 0.39421 0.48973 0.0
H704 H 0.9859 0.39239 0.52195 0.0
H705 H 0.94584 0.42642 0.53367 0.0
H706 H 0.00217 0.443 0.53324 0.0
H707 H 0.01263 0.59055 0.49493 0.0
H708 H 0.95091 0.62453 0.51192 0.0
H709 H 0.89754 0.49608 0.52454 0.0
C710 C 0.03577 0.42146 0.48604 0.0
C711 C 0.07361 0.43298 0.47554 0.0
C712 C 0.084 0.47758 0.47261 0.0
C713 C 0.05771 0.51036 0.48035 0.0
C714 C 0.02106 0.49799 0.49086 0.0
C715 C 0.00966 0.45478 0.49358 0.0
C716 C 0.96797 0.45081 0.50524 0.0
C717 C 0.9321 0.42844 0.49314 0.0
C718 C 0.97597 0.42673 0.52468 0.0
C719 C 0.9579 0.49861 0.50858 0.0
C720 C 0.98925 0.52508 0.50027 0.0
C721 C 0.98761 0.57032 0.50143 0.0
C722 C 0.95242 0.58925 0.51112 0.0
C723 C 0.9193 0.56289 0.5194 0.0
C724 C 0.92233 0.51698 0.51827 0.0
H725 H 0.57193 0.40319 0.99659 0.0
H726 H 0.58182 0.49706 0.04379 0.0
H727 H 0.51684 0.53579 0.03103 0.0
H728 H 0.54185 0.48291 0.95961 0.0
H729 H 0.50607 0.44592 0.94687 0.0
H730 H 0.55229 0.425 0.96017 0.0
H731 H 0.50106 0.3744 0.98003 0.0
H732 H 0.4546 0.39548 0.96695 0.0
H733 H 0.45603 0.3978 0.99329 0.0
H734 H 0.44917 0.56081 0.01451 0.0
H735 H 0.38889 0.57913 0.99225 0.0
H736 H 0.42688 0.47327 0.95364 0.0
C737 C 0.56039 0.4321 0.00409 0.0
C738 C 0.58132 0.44746 0.02109 0.0
C739 C 0.56605 0.48535 0.03061 0.0
C740 C 0.52914 0.50719 0.02358 0.0
C741 C 0.50883 0.491 0.00685 0.0
C742 C 0.52442 0.45497 0.99694 0.0
C743 C 0.49794 0.44582 0.9787 0.0
C744 C 0.52623 0.45019 0.96025 0.0
C745 C 0.47612 0.4007 0.97982 0.0
C746 C 0.4647 0.48216 0.97999 0.0
C747 C 0.4712 0.50723 0.99656 0.0
C748 C 0.44397 0.54178 0.00138 0.0
C749 C 0.40968 0.55169 0.98869 0.0
C750 C 0.40343 0.52762 0.9712 0.0
C751 C 0.43117 0.49227 0.96686 0.0
H752 H 0.25152 0.29172 0.11768 0.0
H753 H 0.13252 0.22345 0.13307 0.0
H754 H 0.09934 0.29351 0.14315 0.0
H755 H 0.25347 0.35723 0.15804 0.0
H756 H 0.27547 0.40481 0.14605 0.0
H757 H 0.2867 0.35139 0.13647 0.0
H758 H 0.25537 0.37417 0.10278 0.0
H759 H 0.24434 0.42801 0.11217 0.0
H760 H 0.2011 0.39647 0.10128 0.0
H761 H 0.08293 0.36842 0.15544 0.0
H762 H 0.08516 0.44232 0.17002 0.0
H763 H 0.21555 0.46121 0.14747 0.0
C764 C 0.21799 0.29164 0.1226 0.0
C765 C 0.19436 0.2523 0.12446 0.0
C766 C 0.15105 0.25333 0.13148 0.0
C767 C 0.13193 0.29295 0.13713 0.0
C768 C 0.15664 0.33103 0.13565 0.0
C769 C 0.19875 0.33068 0.12853 0.0
C770 C 0.22032 0.37485 0.13066 0.0
C771 C 0.26139 0.37186 0.14358 0.0
C772 C 0.23089 0.39454 0.11052 0.0
C773 C 0.18427 0.39988 0.14071 0.0
C774 C 0.14751 0.37423 0.14311 0.0
C775 C 0.11115 0.38905 0.15332 0.0
C776 C 0.11268 0.43086 0.16154 0.0
C777 C 0.15021 0.45713 0.15947 0.0
C778 C 0.1862 0.4418 0.14877 0.0
H779 H 0.45906 0.41666 0.35764 0.0
H780 H 0.50239 0.51792 0.39767 0.0
H781 H 0.43408 0.51096 0.41611 0.0
H782 H 0.34831 0.4468 0.35554 0.0
H783 H 0.32707 0.39194 0.35558 0.0
H784 H 0.38041 0.40265 0.34575 0.0
H785 H 0.41444 0.34584 0.36937 0.0
H786 H 0.36103 0.33425 0.37895 0.0
H787 H 0.40435 0.35027 0.39526 0.0
H788 H 0.36048 0.49657 0.42918 0.0
H789 H 0.28804 0.46914 0.43861 0.0
H790 H 0.29178 0.37663 0.39054 0.0
C791 C 0.45437 0.43695 0.37042 0.0
C792 C 0.48595 0.46799 0.37613 0.0
C793 C 0.47872 0.49387 0.393 0.0
C794 C 0.43992 0.49035 0.40354 0.0
C795 C 0.40892 0.46047 0.39718 0.0
C796 C 0.4159 0.43358 0.38128 0.0
C797 C 0.37718 0.40389 0.37776 0.0
C798 C 0.35706 0.41183 0.35745 0.0
C799 C 0.39002 0.35571 0.38051 0.0
C800 C 0.34711 0.41913 0.39393 0.0
C801 C 0.36617 0.45178 0.40492 0.0
C802 C 0.3452 0.47084 0.42078 0.0
C803 C 0.30404 0.45515 0.42597 0.0
C804 C 0.28435 0.42082 0.4153 0.0
C805 C 0.30587 0.4032 0.39884 0.0
H806 H 0.31292 0.72691 0.62496 0.0
H807 H 0.17589 0.70055 0.6145 0.0
H808 H 0.18657 0.62425 0.62514 0.0
H809 H 0.35502 0.62045 0.60909 0.0
H810 H 0.39616 0.621 0.62797 0.0
H811 H 0.37659 0.67157 0.61787 0.0
H812 H 0.35811 0.69665 0.65336 0.0
H813 H 0.37622 0.64499 0.66291 0.0
H814 H 0.32181 0.6639 0.66801 0.0
H815 H 0.21117 0.55239 0.64023 0.0
H816 H 0.2488 0.49102 0.65699 0.0
H817 H 0.36977 0.56416 0.65513 0.0
C818 C 0.28523 0.70501 0.62466 0.0
C819 C 0.24361 0.71974 0.61886 0.0
C820 C 0.20818 0.69001 0.61881 0.0
C821 C 0.2139 0.64656 0.62482 0.0
C822 C 0.25533 0.63319 0.63063 0.0
C823 C 0.29043 0.66152 0.63043 0.0
C824 C 0.33122 0.63975 0.63807 0.0
C825 C 0.36681 0.63806 0.62229 0.0
C826 C 0.34778 0.66269 0.65669 0.0
C827 C 0.31359 0.5948 0.64263 0.0
C828 C 0.26969 0.59156 0.63845 0.0
C829 C 0.24576 0.55422 0.6432 0.0
C830 C 0.26728 0.51957 0.6527 0.0
C831 C 0.31225 0.52254 0.65704 0.0
C832 C 0.33557 0.56037 0.65157 0.0
H833 H 0.99234 0.53726 0.90583 0.0
H834 H 0.0116 0.5491 0.84318 0.0
H835 H 0.08892 0.56824 0.84877 0.0
H836 H 0.06802 0.62376 0.92137 0.0
H837 H 0.08641 0.59258 0.94219 0.0
H838 H 0.03168 0.58573 0.93315 0.0
H839 H 0.04559 0.50262 0.92972 0.0
H840 H 0.10066 0.50932 0.93828 0.0
H841 H 0.09045 0.48381 0.91497 0.0
H842 H 0.16473 0.5811 0.86112 0.0
H843 H 0.23352 0.58952 0.87949 0.0
H844 H 0.16503 0.56508 0.93383 0.0
C845 C 0.01247 0.54527 0.89333 0.0
C846 C -0.00389 0.54238 0.87409 0.0
C847 C 0.02368 0.55161 0.85804 0.0
C848 C 0.06753 0.56234 0.86107 0.0
C849 C 0.08311 0.56324 0.88021 0.0
C850 C 0.0564 0.55518 0.89608 0.0
C851 C 0.08182 0.55494 0.91504 0.0
C852 C 0.06605 0.59144 0.92874 0.0
C853 C 0.07948 0.51 0.92508 0.0
C854 C 0.12705 0.5641 0.90737 0.0
C855 C 0.12707 0.569 0.88727 0.0
C856 C 0.16507 0.57763 0.87688 0.0
C857 C 0.20395 0.58237 0.8874 0.0
C858 C 0.20446 0.57813 0.908 0.0
C859 C 0.16561 0.56821 0.91805 0.0
H860 H 0.82248 0.53886 0.86113 0.0
H861 H 0.87124 0.57115 0.80346 0.0
H862 H 0.87405 0.64865 0.81231 0.0
H863 H 0.74976 0.62319 0.86302 0.0
H864 H 0.75529 0.63524 0.88871 0.0
H865 H 0.76699 0.58128 0.87989 0.0
H866 H 0.84416 0.58532 0.89513 0.0
H867 H 0.83276 0.63955 0.90401 0.0
H868 H 0.87973 0.62995 0.88881 0.0
H869 H 0.86094 0.72226 0.82475 0.0
H870 H 0.8289 0.78805 0.83959 0.0
H871 H 0.78542 0.71057 0.88909 0.0
C872 C 0.8351 0.56228 0.8507 0.0
C873 C 0.84726 0.54911 0.8317 0.0
C874 C 0.86218 0.58054 0.81811 0.0
C875 C 0.86416 0.62468 0.82306 0.0
C876 C 0.85067 0.63707 0.84165 0.0
C877 C 0.83629 0.60693 0.8553 0.0
C878 C 0.81741 0.62974 0.87306 0.0
C879 C 0.76954 0.61659 0.87634 0.0
C880 C 0.84518 0.6206 0.89133 0.0
C881 C 0.82138 0.67707 0.86669 0.0
C882 C 0.84178 0.68049 0.84877 0.0
C883 C 0.84568 0.72024 0.83899 0.0
C884 C 0.82722 0.75743 0.84749 0.0
C885 C 0.8048 0.7545 0.8655 0.0
C886 C 0.80299 0.71398 0.87545 0.0
H887 H 0.5367 0.50803 0.63303 0.0
H888 H 0.46111 0.60247 0.59988 0.0
H889 H 0.52897 0.63065 0.58505 0.0
H890 H 0.63406 0.57616 0.64133 0.0
H891 H 0.67057 0.53066 0.63805 0.0
H892 H 0.61679 0.52179 0.64782 0.0
H893 H 0.60149 0.46531 0.62048 0.0
H894 H 0.65498 0.47427 0.61052 0.0
H895 H 0.60758 0.4813 0.59524 0.0
H896 H 0.60317 0.64326 0.57148 0.0
H897 H 0.67981 0.64056 0.56033 0.0
H898 H 0.70726 0.53812 0.60233 0.0
C899 C 0.53445 0.53537 0.62302 0.0
C900 C 0.49372 0.55337 0.61767 0.0
C901 C 0.49204 0.58837 0.60418 0.0
C902 C 0.53037 0.60461 0.59575 0.0
C903 C 0.56989 0.5854 0.60099 0.0
C904 C 0.57226 0.55166 0.61437 0.0
C905 C 0.6183 0.53431 0.61628 0.0
C906 C 0.63597 0.54116 0.63711 0.0
C907 C 0.6207 0.48594 0.61027 0.0
C908 C 0.64145 0.56324 0.60168 0.0
C909 C 0.6129 0.59258 0.59309 0.0
C910 C 0.62593 0.62088 0.57827 0.0
C911 C 0.66925 0.61901 0.57198 0.0
C912 C 0.69875 0.58925 0.58059 0.0
C913 C 0.68502 0.56136 0.59574 0.0
H914 H 0.68973 0.26359 0.38387 0.0
H915 H 0.74268 0.2129 0.32962 0.0
H916 H 0.73836 0.28631 0.31491 0.0
H917 H 0.61182 0.33632 0.36072 0.0
H918 H 0.6177 0.37802 0.37912 0.0
H919 H 0.62649 0.32165 0.38543 0.0
H920 H 0.70313 0.34195 0.39856 0.0
H921 H 0.695 0.39816 0.39166 0.0
H922 H 0.74152 0.36859 0.38258 0.0
H923 H 0.73358 0.36573 0.30687 0.0
H924 H 0.70961 0.44211 0.3027 0.0
H925 H 0.65298 0.4397 0.36081 0.0
C926 C 0.6997 0.26795 0.3688 0.0
C927 C 0.71643 0.23273 0.35783 0.0
C928 C 0.72924 0.23941 0.33817 0.0
C929 C 0.72761 0.28109 0.3298 0.0
C930 C 0.71245 0.31547 0.3412 0.0
C931 C 0.69733 0.30918 0.36004 0.0
C932 C 0.67957 0.35118 0.36856 0.0
C933 C 0.63101 0.3465 0.37375 0.0
C934 C 0.70642 0.36581 0.38639 0.0
C935 C 0.68633 0.38167 0.35138 0.0
C936 C 0.70679 0.3608 0.33603 0.0
C937 C 0.7169 0.38234 0.31865 0.0
C938 C 0.70325 0.42571 0.31642 0.0
C939 C 0.67847 0.44618 0.33122 0.0
C940 C 0.67154 0.42447 0.34919 0.0
H941 H 0.82303 0.4553 0.06394 0.0
H942 H 0.77452 0.39007 0.11586 0.0
H943 H 0.84675 0.39821 0.13158 0.0
H944 H 0.927 0.4058 0.06411 0.0
H945 H 0.95556 0.45367 0.0557 0.0
H946 H 0.89938 0.44545 0.04902 0.0
H947 H 0.87861 0.52063 0.06374 0.0
H948 H 0.93489 0.52959 0.07 0.0
H949 H 0.89357 0.53292 0.08865 0.0
H950 H 0.92491 0.41284 0.14122 0.0
H951 H 0.00149 0.43676 0.1448 0.0
H952 H -0.00141 0.48869 0.08569 0.0
C953 C 0.82738 0.44347 0.07875 0.0
C954 C 0.79337 0.42219 0.08877 0.0
C955 C 0.80039 0.4064 0.10799 0.0
C956 C 0.84123 0.4108 0.11699 0.0
C957 C 0.87458 0.43073 0.10644 0.0
C958 C 0.86797 0.44707 0.0878 0.0
C959 C 0.90927 0.46616 0.07939 0.0
C960 C 0.92364 0.44127 0.06097 0.0
C961 C 0.90375 0.51523 0.07521 0.0
C962 C 0.94021 0.45819 0.09621 0.0
C963 C 0.91967 0.43777 0.11171 0.0
C964 C 0.94139 0.42866 0.12915 0.0
C965 C 0.98487 0.44215 0.13101 0.0
C966 C 0.00599 0.46427 0.11546 0.0
C967 C 0.98361 0.47119 0.0977 0.0
H968 H 0.69159 0.73684 0.65608 0.0
H969 H 0.71002 0.76717 0.59457 0.0
H970 H 0.69284 0.84439 0.60116 0.0
H971 H 0.60257 0.81885 0.66473 0.0
H972 H 0.62267 0.83044 0.68895 0.0
H973 H 0.62927 0.77666 0.6787 0.0
H974 H 0.71242 0.78178 0.68504 0.0
H975 H 0.70634 0.83597 0.69477 0.0
H976 H 0.74287 0.8264 0.67459 0.0
H977 H 0.6813 0.91912 0.6149 0.0
H978 H 0.67167 0.98579 0.63474 0.0
H979 H 0.66395 0.90723 0.68738 0.0
C980 C 0.69072 0.75942 0.64389 0.0
C981 C 0.70219 0.746 0.62484 0.0
C982 C 0.7013 0.77672 0.60931 0.0
C983 C 0.69161 0.82067 0.61289 0.0
C984 C 0.68259 0.83321 0.63203 0.0
C985 C 0.68135 0.80342 0.64723 0.0
C986 C 0.6736 0.8258 0.66664 0.0
C987 C 0.6294 0.81212 0.67526 0.0
C988 C 0.71105 0.81695 0.6811 0.0
C989 C 0.6729 0.87296 0.66013 0.0
C990 C 0.67723 0.87646 0.64006 0.0
C991 C 0.67749 0.91674 0.6306 0.0
C992 C 0.67216 0.95436 0.64195 0.0
C993 C 0.66739 0.95138 0.66249 0.0
C994 C 0.66831 0.91026 0.67171 0.0
H995 H 0.81333 0.85871 0.90468 0.0
H996 H 0.76064 0.98913 0.91129 0.0
H997 H 0.82301 0.01922 0.89286 0.0
H998 H 0.92 0.88888 0.91465 0.0
H999 H 0.94559 0.85136 0.89792 0.0
H1000 H 0.89311 0.83864 0.90812 0.0
H1001 H 0.86347 0.82877 0.87353 0.0
H1002 H 0.91422 0.84399 0.86239 0.0
H1003 H 0.86504 0.87316 0.85618 0.0
H1004 H 0.89259 0.03592 0.87707 0.0
H1005 H 0.96855 0.04005 0.86639 0.0
H1006 H 0.98041 0.89909 0.87152 0.0
C1007 C 0.81449 0.8934 0.90165 0.0
C1008 C 0.7822 0.92178 0.909 0.0
C1009 C 0.78514 0.96712 0.90558 0.0
C1010 C 0.82019 0.98434 0.89505 0.0
C1011 C 0.85214 0.95573 0.88834 0.0
C1012 C 0.84993 0.91123 0.89157 0.0
C1013 C 0.89163 0.88872 0.88517 0.0
C1014 C 0.91389 0.86556 0.9025 0.0
C1015 C 0.88302 0.85683 0.86828 0.0
C1016 C 0.91786 0.92765 0.8783 0.0
C1017 C 0.89396 0.96574 0.87993 0.0
C1018 C 0.91153 0.00632 0.87555 0.0
C1019 C 0.95492 0.00824 0.86959 0.0
C1020 C 0.9806 0.96983 0.8682 0.0
C1021 C 0.96154 0.92891 0.87232 0.0
H1022 H 0.8593 0.04424 0.13981 0.0
H1023 H 0.75534 0.02502 0.182 0.0
H1024 H 0.72553 0.09728 0.1738 0.0
H1025 H 0.8786 0.15263 0.1505 0.0
H1026 H 0.8887 0.17093 0.12585 0.0
H1027 H 0.89915 0.115 0.13247 0.0
H1028 H 0.84818 0.08804 0.10489 0.0
H1029 H 0.8383 0.14387 0.0978 0.0
H1030 H 0.79315 0.10845 0.10348 0.0
H1031 H 0.71439 0.17415 0.16587 0.0
H1032 H 0.71431 0.25009 0.15409 0.0
H1033 H 0.82187 0.22082 0.11515 0.0
C1034 C 0.8295 0.05477 0.14684 0.0
C1035 C 0.80962 0.02919 0.16159 0.0
C1036 C 0.77115 0.04423 0.17075 0.0
C1037 C 0.75396 0.08519 0.16619 0.0
C1038 C 0.77547 0.11055 0.15235 0.0
C1039 C 0.8118 0.0958 0.14244 0.0
C1040 C 0.82987 0.13107 0.12908 0.0
C1041 C 0.87686 0.1431 0.13483 0.0
C1042 C 0.82718 0.11701 0.10753 0.0
C1043 C 0.79854 0.16812 0.13348 0.0
C1044 C 0.76776 0.15538 0.14709 0.0
C1045 C 0.73762 0.18439 0.15489 0.0
C1046 C 0.73814 0.22749 0.14829 0.0
C1047 C 0.76802 0.24094 0.13378 0.0
C1048 C 0.79862 0.21098 0.12621 0.0
H1049 H 0.71469 0.05618 0.38829 0.0
H1050 H 0.67921 0.13888 0.43711 0.0
H1051 H 0.60223 0.13697 0.42668 0.0
H1052 H 0.6312 0.09745 0.35273 0.0
H1053 H 0.62079 0.04365 0.34315 0.0
H1054 H 0.67415 0.05731 0.35236 0.0
H1055 H 0.67083 0.99136 0.37609 0.0
H1056 H 0.61757 0.97756 0.36701 0.0
H1057 H 0.6257 0.98662 0.39281 0.0
H1058 H 0.52907 0.11943 0.41372 0.0
H1059 H 0.46345 0.08585 0.39936 0.0
H1060 H 0.54479 0.01265 0.35913 0.0
C1061 C 0.69072 0.07484 0.39634 0.0
C1062 C 0.70255 0.09818 0.4133 0.0
C1063 C 0.67048 0.12116 0.42397 0.0
C1064 C 0.62681 0.12039 0.41812 0.0
C1065 C 0.61571 0.09621 0.40163 0.0
C1066 C 0.64661 0.07379 0.39085 0.0
C1067 C 0.62512 0.04641 0.37508 0.0
C1068 C 0.63862 0.06216 0.35462 0.0
C1069 C 0.63542 -0.00239 0.37793 0.0
C1070 C 0.57746 0.05611 0.37906 0.0
C1071 C 0.57288 0.08539 0.39426 0.0
C1072 C 0.53215 0.09702 0.40158 0.0
C1073 C 0.49506 0.07768 0.39336 0.0
C1074 C 0.49894 0.04689 0.37804 0.0
C1075 C 0.54071 0.03669 0.37058 0.0
H1076 H 0.2816 0.24785 0.33757 0.0
H1077 H 0.29953 0.22982 0.40001 0.0
H1078 H 0.32398 0.15415 0.39433 0.0
H1079 H 0.23447 0.14899 0.32906 0.0
H1080 H 0.25922 0.13841 0.30564 0.0
H1081 H 0.25155 0.19374 0.31372 0.0
H1082 H 0.33393 0.20977 0.30965 0.0
H1083 H 0.34175 0.15485 0.3009 0.0
H1084 H 0.37326 0.17458 0.32133 0.0
H1085 H 0.33707 0.07894 0.38254 0.0
H1086 H 0.34451 0.00928 0.36477 0.0
H1087 H 0.3151 0.07492 0.31014 0.0
C1088 C 0.29243 0.22846 0.34992 0.0
C1089 C 0.28922 0.24441 0.36918 0.0
C1090 C 0.30215 0.21793 0.38513 0.0
C1091 C 0.31597 0.17502 0.38206 0.0
C1092 C 0.31649 0.15936 0.36297 0.0
C1093 C 0.30571 0.18533 0.34711 0.0
C1094 C 0.3052 0.15928 0.32832 0.0
C1095 C 0.25991 0.16017 0.31863 0.0
C1096 C 0.34065 0.17559 0.31422 0.0
C1097 C 0.31593 0.11442 0.3362 0.0
C1098 C 0.32284 0.11536 0.35618 0.0
C1099 C 0.33242 0.07787 0.36685 0.0
C1100 C 0.33649 0.03852 0.3567 0.0
C1101 C 0.33058 0.03707 0.3362 0.0
C1102 C 0.31937 0.07527 0.32587 0.0
H1103 H -0.004 0.04827 0.08721 0.0
H1104 H 0.01658 0.03492 0.1498 0.0
H1105 H 0.09236 0.05977 0.14589 0.0
H1106 H 0.09417 0.00641 0.07278 0.0
H1107 H 0.10338 0.04315 0.05258 0.0
H1108 H 0.04866 0.03127 0.06032 0.0
H1109 H 0.03317 0.11367 0.0653 0.0
H1110 H 0.08761 0.12596 0.05711 0.0
H1111 H 0.06907 0.14555 0.08052 0.0
H1112 H 0.16806 0.07544 0.13481 0.0
H1113 H 0.23732 0.0892 0.1174 0.0
H1114 H 0.16772 0.09285 0.0622 0.0
C1115 C 0.01602 0.05188 0.10016 0.0
C1116 C 0.00045 0.03952 0.11878 0.0
C1117 C 0.02787 0.0441 0.13536 0.0
C1118 C 0.07098 0.05819 0.13331 0.0
C1119 C 0.08599 0.06803 0.11463 0.0
C1120 C 0.0592 0.06591 0.09838 0.0
C1121 C 0.08426 0.07558 0.07981 0.0
C1122 C 0.08251 0.03678 0.06554 0.0
C1123 C 0.06753 0.1177 0.07012 0.0
C1124 C 0.12955 0.08174 0.08812 0.0
C1125 C 0.12978 0.07761 0.10825 0.0
C1126 C 0.16818 0.07976 0.1191 0.0
C1127 C 0.20729 0.08753 0.10914 0.0
C1128 C 0.20755 0.09282 0.08861 0.0
C1129 C 0.16828 0.08933 0.07797 0.0
H1130 H 0.11523 0.9115 0.82347 0.0
H1131 H 0.20592 -0.00351 0.85356 0.0
H1132 H 0.23164 0.93403 0.87357 0.0
H1133 H 0.08969 0.84485 0.86811 0.0
H1134 H 0.08357 0.7954 0.85412 0.0
H1135 H 0.06986 0.84736 0.84331 0.0
H1136 H 0.12282 0.83218 0.81462 0.0
H1137 H 0.13643 0.78019 0.82521 0.0
H1138 H 0.17894 0.819 0.81983 0.0
H1139 H 0.25137 0.8622 0.88792 0.0
H1140 H 0.26565 0.78516 0.89557 0.0
H1141 H 0.16018 0.74632 0.85687 0.0
C1142 C 0.14026 0.91669 0.83441 0.0
C1143 C 0.15913 0.95813 0.83707 0.0
C1144 C 0.19141 0.96458 0.85149 0.0
C1145 C 0.20591 0.9295 0.86292 0.0
C1146 C 0.18677 0.88876 0.85999 0.0
C1147 C 0.15429 0.88224 0.84626 0.0
C1148 C 0.13998 0.83496 0.84574 0.0
C1149 C 0.09299 0.83038 0.85327 0.0
C1150 C 0.14489 0.81545 0.82513 0.0
C1151 C 0.17205 0.81527 0.86009 0.0
C1152 C 0.19779 0.84713 0.86856 0.0
C1153 C 0.23103 0.83699 0.88162 0.0
C1154 C 0.23886 0.79303 0.88585 0.0
C1155 C 0.21402 0.75965 0.87678 0.0
C1156 C 0.17954 0.77109 0.86408 0.0
H1157 H 0.48097 0.92654 0.63438 0.0
H1158 H 0.52358 0.00045 0.58371 0.0
H1159 H 0.44958 -0.00388 0.56972 0.0
H1160 H 0.41376 0.85264 0.60757 0.0
H1161 H 0.37269 0.84884 0.62632 0.0
H1162 H 0.42826 0.86055 0.63289 0.0
H1163 H 0.40283 0.93066 0.65074 0.0
H1164 H 0.34718 0.91946 0.64399 0.0
H1165 H 0.37162 0.97101 0.63756 0.0
H1166 H 0.37187 0.98188 0.56074 0.0
H1167 H 0.29761 0.95254 0.55594 0.0
H1168 H 0.30638 0.88686 0.61219 0.0
C1169 C 0.47463 0.9415 0.62029 0.0
C1170 C 0.50788 0.96328 0.60997 0.0
C1171 C 0.49865 0.98273 0.59162 0.0
C1172 C 0.45662 0.98101 0.5837 0.0
C1173 C 0.42442 0.9594 0.59424 0.0
C1174 C 0.43302 0.93951 0.61201 0.0
C1175 C 0.3934 0.91573 0.61968 0.0
C1176 C 0.40258 0.86653 0.62173 0.0
C1177 C 0.37784 0.93542 0.63914 0.0
C1178 C 0.36146 0.9249 0.6033 0.0
C1179 C 0.37973 0.95067 0.58891 0.0
C1180 C 0.35709 0.96171 0.57191 0.0
C1181 C 0.31503 0.94481 0.56929 0.0
C1182 C 0.29628 0.91714 0.58359 0.0
C1183 C 0.31962 0.90802 0.60098 0.0
H1184 H 0.19692 0.19153 0.99133 0.0
H1185 H 0.28482 0.08236 -0.0001 0.0
H1186 H 0.26567 0.05379 0.96726 0.0
H1187 H 0.11371 0.13731 0.96661 0.0
H1188 H 0.10268 0.17993 0.94907 0.0
H1189 H 0.12521 0.19346 0.97261 0.0
H1190 H 0.19007 0.23263 0.9558 0.0
H1191 H 0.16756 0.21941 0.93216 0.0
H1192 H 0.22248 0.20343 0.93816 0.0
H1193 H 0.23288 0.03414 0.93497 0.0
H1194 H 0.19123 0.02679 0.90421 0.0
H1195 H 0.12698 0.15036 0.91587 0.0
C1196 C 0.21255 0.1621 0.98609 0.0
C1197 C 0.24259 0.1393 -0.00213 0.0
C1198 C 0.26231 0.10062 0.9908 0.0
C1199 C 0.25152 0.08406 0.97236 0.0
C1200 C 0.22164 0.10711 0.96105 0.0
C1201 C 0.20298 0.14567 0.96745 0.0
C1202 C 0.17187 0.16392 0.95231 0.0
C1203 C 0.12563 0.16891 0.96066 0.0
C1204 C 0.18902 0.20743 0.94413 0.0
C1205 C 0.17405 0.12834 0.937 0.0
C1206 C 0.2034 0.09617 0.94219 0.0
C1207 C 0.21023 0.05942 0.93059 0.0
C1208 C 0.18643 0.05554 0.91316 0.0
C1209 C 0.15599 0.08809 0.90763 0.0
C1210 C 0.15005 0.12499 0.9197 0.0
H1211 H 0.64534 0.32235 0.17664 0.0
H1212 H 0.64765 0.43704 0.13937 0.0
H1213 H 0.62884 0.48329 0.16773 0.0
H1214 H 0.55696 0.35893 0.20976 0.0
H1215 H 0.58305 0.33581 0.23101 0.0
H1216 H 0.59061 0.311 0.20736 0.0
H1217 H 0.67439 0.3179 0.21128 0.0
H1218 H 0.66705 0.3426 0.2349 0.0
H1219 H 0.6979 0.37065 0.21632 0.0
H1220 H 0.61266 0.51741 0.20043 0.0
H1221 H 0.60927 0.53772 0.23539 0.0
H1222 H 0.62355 0.40164 0.25167 0.0
C1223 C 0.64095 0.35707 0.17438 0.0
C1224 C 0.64737 0.37606 0.15577 0.0
C1225 C 0.64259 0.42179 0.15349 0.0
C1226 C 0.63167 0.44829 0.16948 0.0
C1227 C 0.62595 0.42861 0.18769 0.0
C1228 C 0.63081 0.38408 0.19026 0.0
C1229 C 0.62717 0.37163 0.21166 0.0
C1230 C 0.58706 0.34262 0.21515 0.0
C1231 C 0.66913 0.34941 0.21896 0.0
C1232 C 0.62106 0.41621 0.22079 0.0
C1233 C 0.61905 0.4485 0.20667 0.0
C1234 C 0.6139 0.49236 0.21159 0.0
C1235 C 0.61172 0.50356 0.23147 0.0
C1236 C 0.61579 0.47113 0.24614 0.0
C1237 C 0.62001 0.42693 0.24069 0.0
H1238 H 0.31381 0.82576 0.49337 0.0
H1239 H 0.20058 0.90959 0.48641 0.0
H1240 H 0.2238 0.92758 0.45296 0.0
H1241 H 0.38839 0.89244 0.4683 0.0
H1242 H 0.41716 0.84836 0.45657 0.0
H1243 H 0.39018 0.83921 0.47957 0.0
H1244 H 0.34613 0.77573 0.46426 0.0
H1245 H 0.37301 0.78459 0.44116 0.0
H1246 H 0.31437 0.78541 0.44248 0.0
H1247 H 0.26141 0.94124 0.42151 0.0
H1248 H 0.31039 0.94808 0.39322 0.0
H1249 H 0.39901 0.85431 0.41964 0.0
C1250 C 0.29365 0.84747 0.48472 0.0
C1251 C 0.2554 0.86625 0.49256 0.0
C1252 C 0.22999 0.89467 0.48077 0.0
C1253 C 0.24285 0.90511 0.46171 0.0
C1254 C 0.28097 0.88657 0.45452 0.0
C1255 C 0.30586 0.85807 0.46554 0.0
C1256 C 0.3461 0.84379 0.45439 0.0
C1257 C 0.38792 0.85674 0.46536 0.0
C1258 C 0.34481 0.79445 0.45033 0.0
C1259 C 0.34059 0.86991 0.43567 0.0
C1260 C 0.30257 0.89404 0.43606 0.0
C1261 C 0.29106 0.92216 0.42091 0.0
C1262 C 0.31924 0.92592 0.40493 0.0
C1263 C 0.35857 0.9017 0.40416 0.0
C1264 C 0.36907 0.87301 0.41971 0.0
H1265 H 0.85837 0.64533 0.67575 0.0
H1266 H 0.80751 0.53498 0.64315 0.0
H1267 H 0.82838 0.48566 0.67015 0.0
H1268 H 0.94997 0.58843 0.69917 0.0
H1269 H 0.94314 0.61697 0.722 0.0
H1270 H 0.92822 0.6431 0.69932 0.0
H1271 H 0.85032 0.65664 0.71257 0.0
H1272 H 0.86503 0.63085 0.73529 0.0
H1273 H 0.81885 0.61118 0.72157 0.0
H1274 H 0.85142 0.44889 0.70115 0.0
H1275 H 0.86789 0.42827 0.73523 0.0
H1276 H 0.902 0.56282 0.74808 0.0
C1277 C 0.85207 0.61072 0.67421 0.0
C1278 C 0.83151 0.59393 0.65733 0.0
C1279 C 0.82317 0.54856 0.65598 0.0
C1280 C 0.83523 0.52023 0.67116 0.0
C1281 C 0.85546 0.53781 0.68761 0.0
C1282 C 0.86347 0.58204 0.68932 0.0
C1283 C 0.88227 0.59304 0.7092 0.0
C1284 C 0.92866 0.61147 0.7073 0.0
C1285 C 0.85232 0.62478 0.72031 0.0
C1286 C 0.88266 0.5482 0.71857 0.0
C1287 C 0.86786 0.5167 0.70573 0.0
C1288 C 0.86342 0.47318 0.7113 0.0
C1289 C 0.87302 0.46176 0.7307 0.0
C1290 C 0.8864 0.49387 0.74436 0.0
C1291 C 0.89235 0.53739 0.73798 0.0
H1292 H 0.89948 0.86423 0.06848 0.0
H1293 H 0.79531 0.929 0.10006 0.0
H1294 H 0.7443 0.91191 0.07326 0.0
H1295 H 0.87196 0.90443 0.0224 0.0
H1296 H 0.88561 0.85542 0.00917 0.0
H1297 H 0.91238 0.86733 0.03196 0.0
H1298 H 0.88793 0.79223 0.04562 0.0
H1299 H 0.86067 0.7803 0.02286 0.0
H1300 H 0.8309 0.77819 0.04555 0.0
H1301 H 0.70552 0.89147 0.04258 0.0
H1302 H 0.68397 0.87825 0.00843 0.0
H1303 H 0.814 0.83025 0.99569 0.0
C1304 C 0.86578 0.87422 0.06987 0.0
C1305 C 0.85133 0.89771 0.08642 0.0
C1306 C 0.80715 0.91093 0.08754 0.0
C1307 C 0.7778 0.90103 0.07247 0.0
C1308 C 0.7931 0.87795 0.05633 0.0
C1309 C 0.83612 0.86504 0.05483 0.0
C1310 C 0.84507 0.84441 0.03509 0.0
C1311 C 0.88085 0.86941 0.024 0.0
C1312 C 0.85684 0.7959 0.03742 0.0
C1313 C 0.80094 0.84972 0.02541 0.0
C1314 C 0.77108 0.86775 0.03818 0.0
C1315 C 0.72852 0.87707 0.03248 0.0
C1316 C 0.71656 0.86927 0.01302 0.0
C1317 C 0.74738 0.85328 -0.00067 0.0
C1318 C 0.78972 0.84229 0.00581 0.0
H1319 H 0.40235 0.56104 0.84174 0.0
H1320 H 0.28158 0.62825 0.8279 0.0
H1321 H 0.28999 0.60799 0.79321 0.0
H1322 H 0.45914 0.58665 0.79529 0.0
H1323 H 0.48484 0.53381 0.79419 0.0
H1324 H 0.47238 0.55799 0.81756 0.0
H1325 H 0.42815 0.48925 0.82722 0.0
H1326 H 0.44059 0.46484 0.80398 0.0
H1327 H 0.38463 0.47088 0.81151 0.0
H1328 H 0.3101 0.57942 0.76043 0.0
H1329 H 0.33416 0.53511 0.73248 0.0
H1330 H 0.43891 0.48109 0.76772 0.0
C1331 C 0.37794 0.57189 0.83136 0.0
C1332 C 0.34142 0.59642 0.83749 0.0
C1333 C 0.30983 0.60945 0.82353 0.0
C1334 C 0.31452 0.59845 0.80377 0.0
C1335 C 0.35088 0.57428 0.7982 0.0
C1336 C 0.38181 0.56069 0.81158 0.0
C1337 C 0.41572 0.53176 0.802 0.0
C1338 C 0.46069 0.55387 0.80228 0.0
C1339 C 0.41732 0.4865 0.81175 0.0
C1340 C 0.39775 0.52948 0.78135 0.0
C1341 C 0.3613 0.55565 0.77936 0.0
C1342 C 0.33869 0.55895 0.76177 0.0
C1343 C 0.35283 0.53379 0.74593 0.0
C1344 C 0.38852 0.50474 0.74792 0.0
C1345 C 0.41171 0.50321 0.76578 0.0
H1346 H 0.66391 0.03289 0.58684 0.0
H1347 H 0.59689 0.15686 0.59195 0.0
H1348 H 0.63199 0.18239 0.56131 0.0
H1349 H 0.76455 0.07091 0.56638 0.0
H1350 H 0.76949 0.02552 0.54977 0.0
H1351 H 0.74121 0.01871 0.57263 0.0
H1352 H 0.67268 0.99148 0.55404 0.0
H1353 H 0.7008 -0.00194 0.53114 0.0
H1354 H 0.64935 0.02502 0.53504 0.0
H1355 H 0.67594 0.1938 0.5298 0.0
H1356 H 0.71856 0.18712 0.49903 0.0
H1357 H 0.75162 0.05383 0.51461 0.0
C1358 C 0.65718 0.06564 0.58164 0.0
C1359 C 0.62849 0.09331 0.5918 0.0
C1360 C 0.61919 0.13542 0.58432 0.0
C1361 C 0.63902 0.15017 0.56702 0.0
C1362 C 0.66728 0.12198 0.55727 0.0
C1363 C 0.67574 0.08036 0.56422 0.0
C1364 C 0.70454 0.05507 0.55043 0.0
C1365 C 0.7475 0.0418 0.5604 0.0
C1366 C 0.68039 0.01506 0.54217 0.0
C1367 C 0.71187 0.08918 0.53483 0.0
C1368 C 0.69045 0.12772 0.53896 0.0
C1369 C 0.69277 0.1637 0.52641 0.0
C1370 C 0.71714 0.15976 0.50906 0.0
C1371 C 0.73817 0.11997 0.50447 0.0
C1372 C 0.73568 0.08463 0.51766 0.0
H1373 H 0.15173 0.42759 0.34628 0.0
H1374 H 0.14555 0.29966 0.31915 0.0
H1375 H 0.12175 0.33363 0.28818 0.0
H1376 H 0.05644 0.47303 0.32055 0.0
H1377 H 0.08042 0.52649 0.31833 0.0
H1378 H 0.09425 0.49208 0.33884 0.0
H1379 H 0.17626 0.49874 0.33021 0.0
H1380 H 0.16265 0.53346 0.30987 0.0
H1381 H 0.19429 0.48469 0.30592 0.0
H1382 H 0.10145 0.38144 0.25986 0.0
H1383 H 0.09198 0.44001 0.23551 0.0
H1384 H 0.1117 0.53708 0.28092 0.0
C1385 C 0.14514 0.4067 0.33386 0.0
C1386 C 0.15033 0.36093 0.33517 0.0
C1387 C 0.14147 0.33476 0.31856 0.0
C1388 C 0.1278 0.35372 0.30091 0.0
C1389 C 0.1227 0.39888 0.30015 0.0
C1390 C 0.13116 0.42506 0.31616 0.0
C1391 C 0.1248 0.47288 0.31121 0.0
C1392 C 0.08672 0.49226 0.32294 0.0
C1393 C 0.16702 0.49895 0.31449 0.0
C1394 C 0.1134 0.46958 0.28971 0.0
C1395 C 0.11136 0.42655 0.28374 0.0
C1396 C 0.1026 0.41526 0.2644 0.0
C1397 C 0.09706 0.44885 0.25068 0.0
C1398 C 0.10101 0.49323 0.2563 0.0
C1399 C 0.10821 0.50354 0.27619 0.0
H1400 H 0.61058 0.55682 0.42137 0.0
H1401 H 0.69988 0.62845 0.38432 0.0
H1402 H 0.74147 0.65192 0.41379 0.0
H1403 H 0.60948 0.62866 0.4631 0.0
H1404 H 0.60942 0.58444 0.48053 0.0
H1405 H 0.5851 0.57702 0.45677 0.0
H1406 H 0.63464 0.50984 0.45054 0.0
H1407 H 0.65851 0.51672 0.47438 0.0
H1408 H 0.69285 0.51543 0.45302 0.0
H1409 H 0.77306 0.66676 0.44805 0.0
H1410 H 0.79824 0.66173 0.48257 0.0
H1411 H 0.68997 0.5759 0.49573 0.0
C1412 C 0.63871 0.57779 0.41951 0.0
C1413 C 0.65198 0.5914 0.40078 0.0
C1414 C 0.68941 0.61787 0.39869 0.0
C1415 C 0.71287 0.63156 0.41531 0.0
C1416 C 0.69867 0.61774 0.43373 0.0
C1417 C 0.66288 0.59068 0.43579 0.0
C1418 C 0.65649 0.5766 0.45676 0.0
C1419 C 0.61251 0.59267 0.46475 0.0
C1420 C 0.66091 0.52671 0.45878 0.0
C1421 C 0.69415 0.60006 0.46631 0.0
C1422 C 0.71779 0.62431 0.45296 0.0
C1423 C 0.75473 0.64787 0.45859 0.0
C1424 C 0.76863 0.64515 0.4782 0.0
C1425 C 0.74598 0.61844 0.49166 0.0
C1426 C 0.70781 0.59662 0.48569 0.0
H1427 H 0.18429 0.91381 0.65607 0.0
H1428 H 0.05308 0.86078 0.65569 0.0
H1429 H 0.03709 0.90027 0.68638 0.0
H1430 H 0.20146 0.9051 0.70727 0.0
H1431 H 0.2322 0.95507 0.70906 0.0
H1432 H 0.2324 0.92448 0.6866 0.0
H1433 H 0.20612 0.99305 0.66778 0.0
H1434 H 0.20555 0.02379 0.69023 0.0
H1435 H 0.15703 0.02044 0.67543 0.0
H1436 H 0.0357 0.94501 0.71723 0.0
H1437 H 0.05096 0.98693 0.74739 0.0
H1438 H 0.18351 0.0088 0.7276 0.0
C1439 C 0.15204 0.91067 0.66233 0.0
C1440 C 0.11975 0.88445 0.65342 0.0
C1441 C 0.07822 0.88081 0.66224 0.0
C1442 C 0.0688 0.90324 0.67961 0.0
C1443 C 0.1013 0.929 0.68794 0.0
C1444 C 0.14219 0.93258 0.67966 0.0
C1445 C 0.172 0.96081 0.69195 0.0
C1446 C 0.21184 0.93479 0.69915 0.0
C1447 C 0.18597 0.00196 0.68067 0.0
C1448 C 0.1416 0.97202 0.7086 0.0
C1449 C 0.10081 0.95392 0.7059 0.0
C1450 C 0.06748 0.95943 0.71951 0.0
C1451 C 0.07637 0.98339 0.73653 0.0
C1452 C 0.11838 0.00095 0.73982 0.0
C1453 C 0.15108 -0.00435 0.7255 0.0
H1454 H 0.80756 0.34867 0.90419 0.0
H1455 H 0.8855 0.46148 0.91985 0.0
H1456 H 0.86609 0.4508 0.95462 0.0
H1457 H 0.72087 0.37236 0.93458 0.0
H1458 H 0.70878 0.31662 0.94111 0.0
H1459 H 0.73476 0.32848 0.91816 0.0
H1460 H 0.79818 0.27621 0.92723 0.0
H1461 H 0.77234 0.26435 0.95031 0.0
H1462 H 0.82753 0.28437 0.94979 0.0
H1463 H 0.83563 0.43001 0.98728 0.0
H1464 H 0.78699 0.40936 0.01438 0.0
H1465 H 0.723 0.31468 0.97699 0.0
C1466 C 0.82106 0.37069 0.91499 0.0
C1467 C 0.84816 0.40576 0.90938 0.0
C1468 C 0.86459 0.43443 0.92386 0.0
C1469 C 0.85415 0.42832 0.94365 0.0
C1470 C 0.82707 0.39355 0.94869 0.0
C1471 C 0.81029 0.36554 0.93475 0.0
C1472 C 0.77782 0.33405 0.94367 0.0
C1473 C 0.7329 0.33817 0.9338 0.0
C1474 C 0.795 0.28695 0.94269 0.0
C1475 C 0.77706 0.35031 0.96457 0.0
C1476 C 0.80719 0.38331 0.96734 0.0
C1477 C 0.81215 0.40403 0.98531 0.0
C1478 C 0.7845 0.39185 0.00067 0.0
C1479 C 0.75141 0.36022 0.99776 0.0
C1480 C 0.74831 0.3386 0.9796 0.0
H1481 H 0.43797 0.96971 0.22693 0.0
H1482 H 0.32648 0.00884 0.26157 0.0
H1483 H 0.30254 0.05829 0.2351 0.0
H1484 H 0.45501 0.08239 0.20525 0.0
H1485 H 0.47299 0.06016 0.18224 0.0
H1486 H 0.48349 0.03095 0.20468 0.0
H1487 H 0.445 0.96282 0.19036 0.0
H1488 H 0.43389 0.99188 0.16802 0.0
H1489 H 0.38977 0.96749 0.18155 0.0
H1490 H 0.2852 0.0947 0.20339 0.0
H1491 H 0.28024 0.12379 0.16981 0.0
H1492 H 0.40602 0.06646 0.15624 0.0
C1493 C 0.40927 0.9897 0.22905 0.0
C1494 C 0.38424 0.98602 0.24626 0.0
C1495 C 0.34644 0.01198 0.24858 0.0
C1496 C 0.3325 0.03995 0.23361 0.0
C1497 C 0.35735 0.04236 0.21662 0.0
C1498 C 0.39558 0.01894 0.21444 0.0
C1499 C 0.41583 0.02744 0.19457 0.0
C1500 C 0.45941 0.05168 0.19682 0.0
C1501 C 0.42142 0.98486 0.18294 0.0
C1502 C 0.38151 0.05679 0.18547 0.0
C1503 C 0.34824 0.06523 0.19853 0.0
C1504 C 0.3115 0.08914 0.19316 0.0
C1505 C 0.30886 0.10527 0.174 0.0
C1506 C 0.34284 0.09762 0.16041 0.0
C1507 C 0.37973 0.07326 0.16634 0.0
H1508 H 0.3363 0.4737 0.58446 0.0
H1509 H 0.37109 0.34075 0.59957 0.0
H1510 H 0.3332 0.31387 0.56996 0.0
H1511 H 0.23087 0.45365 0.56343 0.0
H1512 H 0.23802 0.49217 0.54373 0.0
H1513 H 0.26588 0.50038 0.56663 0.0
H1514 H 0.3398 0.50341 0.54831 0.0
H1515 H 0.31209 0.49505 0.52538 0.0
H1516 H 0.35529 0.45866 0.5327 0.0
H1517 H 0.2907 0.30166 0.53831 0.0
H1518 H 0.25052 0.30616 0.50681 0.0
H1519 H 0.24782 0.44735 0.51201 0.0
C1520 C 0.33521 0.43893 0.58166 0.0
C1521 C 0.35578 0.40916 0.59442 0.0
C1522 C 0.35507 0.36398 0.59 0.0
C1523 C 0.33368 0.34843 0.57323 0.0
C1524 C 0.31392 0.37858 0.5608 0.0
C1525 C 0.31498 0.42294 0.5647 0.0
C1526 C 0.29373 0.44871 0.54839 0.0
C1527 C 0.2548 0.47528 0.55601 0.0
C1528 C 0.32722 0.47819 0.53809 0.0
C1529 C 0.27913 0.41197 0.53512 0.0
C1530 C 0.29117 0.3717 0.5424 0.0
C1531 C 0.28114 0.3331 0.53247 0.0
C1532 C 0.25826 0.3359 0.51463 0.0
C1533 C 0.24585 0.37702 0.50694 0.0
C1534 C 0.25661 0.41531 0.51744 0.0
H1535 H 0.82029 0.05461 0.34351 0.0
H1536 H 0.876 0.17645 0.32285 0.0
H1537 H 0.89698 0.14066 0.29193 0.0
H1538 H 0.90091 0.98205 0.32069 0.0
H1539 H 0.86082 0.9412 0.31472 0.0
H1540 H 0.85351 0.9753 0.33594 0.0
H1541 H 0.77791 -0.00016 0.32299 0.0
H1542 H 0.78481 0.96551 0.3019 0.0
H1543 H 0.77365 0.02288 0.29878 0.0
H1544 H 0.90981 0.09197 0.26266 0.0
H1545 H 0.90653 0.03654 0.23637 0.0
H1546 H 0.84017 0.94774 0.27578 0.0
C1547 C 0.83745 0.07365 0.33261 0.0
C1548 C 0.84692 0.11826 0.33572 0.0
C1549 C 0.86871 0.14214 0.3209 0.0
C1550 C 0.88093 0.12206 0.30329 0.0
C1551 C 0.87118 0.07801 0.3007 0.0
C1552 C 0.84968 0.05418 0.31492 0.0
C1553 C 0.84054 0.00811 0.30803 0.0
C1554 C 0.86543 0.97469 0.3206 0.0
C1555 C 0.79131 -0.00144 0.30791 0.0
C1556 C 0.85889 0.01019 0.2875 0.0
C1557 C 0.87739 0.05043 0.28369 0.0
C1558 C 0.89567 0.06024 0.26553 0.0
C1559 C 0.89393 0.0285 0.25072 0.0
C1560 C 0.87326 0.98788 0.2541 0.0
C1561 C 0.85634 0.97848 0.27284 0.0
H1562 H 0.09271 0.6285 0.07183 0.0
H1563 H 0.20783 0.58156 0.10227 0.0
H1564 H 0.25295 0.60088 0.07372 0.0
H1565 H 0.11888 0.58522 0.02649 0.0
H1566 H 0.09761 0.6301 0.01231 0.0
H1567 H 0.07553 0.61862 0.03611 0.0
H1568 H 0.09233 0.69801 0.04688 0.0
H1569 H 0.11486 0.7096 0.02308 0.0
H1570 H 0.14709 0.71872 0.04475 0.0
H1571 H 0.28487 0.62155 0.04164 0.0
H1572 H 0.30029 0.63204 0.00668 0.0
H1573 H 0.1638 0.66104 0.99606 0.0
C1574 C 0.12753 0.62311 0.07264 0.0
C1575 C 0.14686 0.60406 0.08935 0.0
C1576 C 0.19238 0.59647 0.08966 0.0
C1577 C 0.21833 0.60762 0.07358 0.0
C1578 C 0.19825 0.62628 0.05731 0.0
C1579 C 0.15385 0.63359 0.05662 0.0
C1580 C 0.13982 0.64984 0.03664 0.0
C1581 C 0.10599 0.61909 0.02734 0.0
C1582 C 0.1225 0.69684 0.03792 0.0
C1583 C 0.18293 0.64838 0.02592 0.0
C1584 C 0.21641 0.63625 0.03834 0.0
C1585 C 0.25903 0.63145 0.0318 0.0
C1586 C 0.26746 0.63774 0.01189 0.0
C1587 C 0.23318 0.64753 -0.00134 0.0
C1588 C 0.19061 0.65395 0.00588 0.0
H1589 H 0.6376 0.82647 0.82219 0.0
H1590 H 0.66226 0.93967 0.85867 0.0
H1591 H 0.64035 0.98804 0.83146 0.0
H1592 H 0.68225 0.86958 0.77963 0.0
H1593 H 0.64332 0.84523 0.76316 0.0
H1594 H 0.65505 0.81954 0.78624 0.0
H1595 H 0.57298 0.82146 0.79515 0.0
H1596 H 0.56102 0.84724 0.77203 0.0
H1597 H 0.54409 0.87268 0.79453 0.0
H1598 H 0.62108 0.02422 0.79958 0.0
H1599 H 0.61145 0.04534 0.76501 0.0
H1600 H 0.60154 0.90861 0.74896 0.0
C1601 C 0.6376 0.8614 0.82459 0.0
C1602 C 0.65143 0.87924 0.84261 0.0
C1603 C 0.65175 0.9252 0.84501 0.0
C1604 C 0.6391 0.95296 0.82967 0.0
C1605 C 0.62619 0.93433 0.812 0.0
C1606 C 0.62545 0.8896 0.80937 0.0
C1607 C 0.61403 0.87797 0.78843 0.0
C1608 C 0.65086 0.85154 0.7788 0.0
C1609 C 0.57043 0.85338 0.78749 0.0
C1610 C 0.61 0.92313 0.77954 0.0
C1611 C 0.61614 0.9552 0.79347 0.0
C1612 C 0.61578 -0.00061 0.78859 0.0
C1613 C 0.61015 0.01107 0.76888 0.0
C1614 C 0.6056 0.97866 0.75423 0.0
C1615 C 0.60456 0.9342 0.7598 0.0
loop_
_geom_bond_atom_site_label_1
_geom_bond_atom_site_label_2
_geom_bond_distance
_geom_bond_site_symmetry_2
_ccdc_geom_bond_type
Zn0 O6 1.969 . S
Zn0 O7 1.965 . S
Zn0 O11 2.024 . S
Zn0 O16 1.969 . S
Zn1 O8 1.969 . S
Zn1 O14 1.969 . S
Zn1 O15 1.965 . S
Zn1 O17 2.024 . S
C2 O3 1.229 . S
C2 O11 1.058 . S
O3 C2 1.229 . S
C4 O5 1.229 . S
C4 O17 1.058 . S
O5 C4 1.229 . S
O6 Zn0 1.969 . S
O6 C9 1.267 . S
O7 Zn0 1.965 . S
O7 C18 1.260 . S
O8 Zn1 1.969 . S
O8 C18 1.258 . S
C9 O6 1.267 . S
C9 O10 1.228 . S
O10 C9 1.228 . S
O11 Zn0 2.024 . S
O11 C2 1.058 . S
C12 O13 1.228 . S
C12 O14 1.267 . S
O13 C12 1.228 . S
O14 Zn1 1.969 . S
O14 C12 1.267 . S
O15 Zn1 1.965 . S
O15 C19 1.260 . S
O16 Zn0 1.969 . S
O16 C19 1.258 . S
O17 Zn1 2.024 . S
O17 C4 1.058 . S
C18 O7 1.260 . S
C18 O8 1.258 . S
C19 O15 1.260 . S
C19 O16 1.258 . S
Zn20 O26 1.969 . S
Zn20 O27 1.965 . S
Zn20 O31 2.024 . S
Zn20 O36 1.969 . S
Zn21 O28 1.969 . S
Zn21 O34 1.969 . S
Zn21 O35 1.965 . S
Zn21 O37 2.024 . S
C22 O23 1.229 . S
C22 O31 1.058 . S
O23 C22 1.229 . S
C24 O25 1.229 . S
C24 O37 1.058 . S
O25 C24 1.229 . S
O26 Zn20 1.969 . S
O26 C29 1.267 . S
O27 Zn20 1.965 . S
O27 C38 1.260 . S
O28 Zn21 1.969 . S
O28 C38 1.258 . S
C29 O26 1.267 . S
C29 O30 1.228 . S
O30 C29 1.228 . S
O31 Zn20 2.024 . S
O31 C22 1.058 . S
C32 O33 1.228 . S
C32 O34 1.267 . S
O33 C32 1.228 . S
O34 Zn21 1.969 . S
O34 C32 1.267 . S
O35 Zn21 1.965 . S
O35 C39 1.260 . S
O36 Zn20 1.969 . S
O36 C39 1.258 . S
O37 Zn21 2.024 . S
O37 C24 1.058 . S
C38 O27 1.260 . S
C38 O28 1.258 . S
C39 O35 1.260 . S
C39 O36 1.258 . S
Zn40 O46 1.969 . S
Zn40 O47 1.965 . S
Zn40 O51 2.024 . S
Zn40 O56 1.969 . S
Zn41 O48 1.969 . S
Zn41 O54 1.969 . S
Zn41 O55 1.965 . S
Zn41 O57 2.024 . S
C42 O43 1.229 . S
C42 O51 1.058 . S
O43 C42 1.229 . S
C44 O45 1.229 . S
C44 O57 1.058 . S
O45 C44 1.229 . S
O46 Zn40 1.969 . S
O46 C49 1.267 . S
O47 Zn40 1.965 . S
O47 C58 1.260 . S
O48 Zn41 1.969 . S
O48 C58 1.258 . S
C49 O46 1.267 . S
C49 O50 1.228 . S
O50 C49 1.228 . S
O51 Zn40 2.024 . S
O51 C42 1.058 . S
C52 O53 1.228 . S
C52 O54 1.267 . S
O53 C52 1.228 . S
O54 Zn41 1.969 . S
O54 C52 1.267 . S
O55 Zn41 1.965 . S
O55 C59 1.260 . S
O56 Zn40 1.969 . S
O56 C59 1.258 . S
O57 Zn41 2.024 . S
O57 C44 1.058 . S
C58 O47 1.260 . S
C58 O48 1.258 . S
C59 O55 1.260 . S
C59 O56 1.258 . S
Zn60 O66 1.969 . S
Zn60 O67 1.965 . S
Zn60 O71 2.024 . S
Zn60 O76 1.969 . S
Zn61 O68 1.969 . S
Zn61 O74 1.969 . S
Zn61 O75 1.965 . S
Zn61 O77 2.024 . S
C62 O63 1.229 . S
C62 O71 1.058 . S
O63 C62 1.229 . S
C64 O65 1.229 . S
C64 O77 1.058 . S
O65 C64 1.229 . S
O66 Zn60 1.969 . S
O66 C69 1.267 . S
O67 Zn60 1.965 . S
O67 C78 1.260 . S
O68 Zn61 1.969 . S
O68 C78 1.258 . S
C69 O66 1.267 . S
C69 O70 1.228 . S
O70 C69 1.228 . S
O71 Zn60 2.024 . S
O71 C62 1.058 . S
C72 O73 1.228 . S
C72 O74 1.267 . S
O73 C72 1.228 . S
O74 Zn61 1.969 . S
O74 C72 1.267 . S
O75 Zn61 1.965 . S
O75 C79 1.260 . S
O76 Zn60 1.969 . S
O76 C79 1.258 . S
O77 Zn61 2.024 . S
O77 C64 1.058 . S
C78 O67 1.260 . S
C78 O68 1.258 . S
C79 O75 1.260 . S
C79 O76 1.258 . S
Zn80 O86 1.969 . S
Zn80 O87 1.965 . S
Zn80 O91 2.024 . S
Zn80 O96 1.969 . S
Zn81 O88 1.969 . S
Zn81 O94 1.969 . S
Zn81 O95 1.965 . S
Zn81 O97 2.024 . S
C82 O83 1.229 . S
C82 O91 1.058 . S
O83 C82 1.229 . S
C84 O85 1.229 . S
C84 O97 1.058 . S
O85 C84 1.229 . S
O86 Zn80 1.969 . S
O86 C89 1.267 . S
O87 Zn80 1.965 . S
O87 C98 1.260 . S
O88 Zn81 1.969 . S
O88 C98 1.258 . S
C89 O86 1.267 . S
C89 O90 1.228 . S
O90 C89 1.228 . S
O91 Zn80 2.024 . S
O91 C82 1.058 . S
C92 O93 1.228 . S
C92 O94 1.267 . S
O93 C92 1.228 . S
O94 Zn81 1.969 . S
O94 C92 1.267 . S
O95 Zn81 1.965 . S
O95 C99 1.260 . S
O96 Zn80 1.969 . S
O96 C99 1.258 . S
O97 Zn81 2.024 . S
O97 C84 1.058 . S
C98 O87 1.260 . S
C98 O88 1.258 . S
C99 O95 1.260 . S
C99 O96 1.258 . S
Zn100 O106 1.969 . S
Zn100 O107 1.965 . S
Zn100 O111 2.024 . S
Zn100 O116 1.969 . S
Zn101 O108 1.969 . S
Zn101 O114 1.969 . S
Zn101 O115 1.965 . S
Zn101 O117 2.024 . S
C102 O103 1.229 . S
C102 O111 1.058 . S
O103 C102 1.229 . S
C104 O105 1.229 . S
C104 O117 1.058 . S
O105 C104 1.229 . S
O106 Zn100 1.969 . S
O106 C109 1.267 . S
O107 Zn100 1.965 . S
O107 C118 1.260 . S
O108 Zn101 1.969 . S
O108 C118 1.258 . S
C109 O106 1.267 . S
C109 O110 1.228 . S
O110 C109 1.228 . S
O111 Zn100 2.024 . S
O111 C102 1.058 . S
C112 O113 1.228 . S
C112 O114 1.267 . S
O113 C112 1.228 . S
O114 Zn101 1.969 . S
O114 C112 1.267 . S
O115 Zn101 1.965 . S
O115 C119 1.260 . S
O116 Zn100 1.969 . S
O116 C119 1.258 . S
O117 Zn101 2.024 . S
O117 C104 1.058 . S
C118 O107 1.260 . S
C118 O108 1.258 . S
C119 O115 1.260 . S
C119 O116 1.258 . S
Zn120 O126 1.969 . S
Zn120 O127 1.965 . S
Zn120 O131 2.024 . S
Zn120 O136 1.969 . S
Zn121 O128 1.969 . S
Zn121 O134 1.969 . S
Zn121 O135 1.965 . S
Zn121 O137 2.024 . S
C122 O123 1.229 . S
C122 O131 1.058 . S
O123 C122 1.229 . S
C124 O125 1.229 . S
C124 O137 1.058 . S
O125 C124 1.229 . S
O126 Zn120 1.969 . S
O126 C129 1.267 . S
O127 Zn120 1.965 . S
O127 C138 1.260 . S
O128 Zn121 1.969 . S
O128 C138 1.258 . S
C129 O126 1.267 . S
C129 O130 1.228 . S
O130 C129 1.228 . S
O131 Zn120 2.024 . S
O131 C122 1.058 . S
C132 O133 1.228 . S
C132 O134 1.267 . S
O133 C132 1.228 . S
O134 Zn121 1.969 . S
O134 C132 1.267 . S
O135 Zn121 1.965 . S
O135 C139 1.260 . S
O136 Zn120 1.969 . S
O136 C139 1.258 . S
O137 Zn121 2.024 . S
O137 C124 1.058 . S
C138 O127 1.260 . S
C138 O128 1.258 . S
C139 O135 1.260 . S
C139 O136 1.258 . S
Zn140 O146 1.969 . S
Zn140 O147 1.965 . S
Zn140 O151 2.024 . S
Zn140 O156 1.969 . S
Zn141 O148 1.969 . S
Zn141 O154 1.969 . S
Zn141 O155 1.965 . S
Zn141 O157 2.024 . S
C142 O143 1.229 . S
C142 O151 1.058 . S
O143 C142 1.229 . S
C144 O145 1.229 . S
C144 O157 1.058 . S
O145 C144 1.229 . S
O146 Zn140 1.969 . S
O146 C149 1.267 . S
O147 Zn140 1.965 . S
O147 C158 1.260 . S
O148 Zn141 1.969 . S
O148 C158 1.258 . S
C149 O146 1.267 . S
C149 O150 1.228 . S
O150 C149 1.228 . S
O151 Zn140 2.024 . S
O151 C142 1.058 . S
C152 O153 1.228 . S
C152 O154 1.267 . S
O153 C152 1.228 . S
O154 Zn141 1.969 . S
O154 C152 1.267 . S
O155 Zn141 1.965 . S
O155 C159 1.260 . S
O156 Zn140 1.969 . S
O156 C159 1.258 . S
O157 Zn141 2.024 . S
O157 C144 1.058 . S
C158 O147 1.260 . S
C158 O148 1.258 . S
C159 O155 1.260 . S
C159 O156 1.258 . S
Zn160 O166 1.969 . S
Zn160 O167 1.965 . S
Zn160 O171 2.024 . S
Zn160 O176 1.969 . S
Zn161 O168 1.969 . S
Zn161 O174 1.969 . S
Zn161 O175 1.965 . S
Zn161 O177 2.024 . S
C162 O163 1.229 . S
C162 O171 1.058 . S
O163 C162 1.229 . S
C164 O165 1.229 . S
C164 O177 1.058 . S
O165 C164 1.229 . S
O166 Zn160 1.969 . S
O166 C169 1.267 . S
O167 Zn160 1.965 . S
O167 C178 1.260 . S
O168 Zn161 1.969 . S
O168 C178 1.258 . S
C169 O166 1.267 . S
C169 O170 1.228 . S
O170 C169 1.228 . S
O171 Zn160 2.024 . S
O171 C162 1.058 . S
C172 O173 1.228 . S
C172 O174 1.267 . S
O173 C172 1.228 . S
O174 Zn161 1.969 . S
O174 C172 1.267 . S
O175 Zn161 1.965 . S
O175 C179 1.260 . S
O176 Zn160 1.969 . S
O176 C179 1.258 . S
O177 Zn161 2.024 . S
O177 C164 1.058 . S
C178 O167 1.260 . S
C178 O168 1.258 . S
C179 O175 1.260 . S
C179 O176 1.258 . S
Zn180 O186 1.969 . S
Zn180 O187 1.965 . S
Zn180 O191 2.024 . S
Zn180 O196 1.969 . S
Zn181 O188 1.969 . S
Zn181 O194 1.969 . S
Zn181 O195 1.965 . S
Zn181 O197 2.024 . S
C182 O183 1.229 . S
C182 O191 1.058 . S
O183 C182 1.229 . S
C184 O185 1.229 . S
C184 O197 1.058 . S
O185 C184 1.229 . S
O186 Zn180 1.969 . S
O186 C189 1.267 . S
O187 Zn180 1.965 . S
O187 C198 1.260 . S
O188 Zn181 1.969 . S
O188 C198 1.258 . S
C189 O186 1.267 . S
C189 O190 1.228 . S
O190 C189 1.228 . S
O191 Zn180 2.024 . S
O191 C182 1.058 . S
C192 O193 1.228 . S
C192 O194 1.267 1_565 S
O193 C192 1.228 . S
O194 Zn181 1.969 . S
O194 C192 1.267 1_545 S
O195 Zn181 1.965 . S
O195 C199 1.259 . S
O196 Zn180 1.969 . S
O196 C199 1.257 . S
O197 Zn181 2.024 . S
O197 C184 1.058 . S
C198 O187 1.260 . S
C198 O188 1.258 . S
C199 O195 1.259 . S
C199 O196 1.257 . S
Zn200 O206 1.969 . S
Zn200 O207 1.965 . S
Zn200 O211 2.024 . S
Zn200 O216 1.969 . S
Zn201 O208 1.969 . S
Zn201 O214 1.969 . S
Zn201 O215 1.965 . S
Zn201 O217 2.024 . S
C202 O203 1.229 . S
C202 O211 1.058 . S
O203 C202 1.229 . S
C204 O205 1.229 . S
C204 O217 1.058 . S
O205 C204 1.229 . S
O206 Zn200 1.969 . S
O206 C209 1.267 . S
O207 Zn200 1.965 . S
O207 C218 1.260 . S
O208 Zn201 1.969 . S
O208 C218 1.258 . S
C209 O206 1.267 . S
C209 O210 1.228 . S
O210 C209 1.228 . S
O211 Zn200 2.024 . S
O211 C202 1.058 . S
C212 O213 1.228 . S
C212 O214 1.267 . S
O213 C212 1.228 . S
O214 Zn201 1.969 . S
O214 C212 1.267 . S
O215 Zn201 1.965 . S
O215 C219 1.260 . S
O216 Zn200 1.969 . S
O216 C219 1.258 . S
O217 Zn201 2.024 . S
O217 C204 1.058 . S
C218 O207 1.260 . S
C218 O208 1.258 . S
C219 O215 1.260 . S
C219 O216 1.258 . S
Zn220 O226 1.969 . S
Zn220 O227 1.965 . S
Zn220 O231 2.024 . S
Zn220 O236 1.969 . S
Zn221 O228 1.969 . S
Zn221 O234 1.969 . S
Zn221 O235 1.965 . S
Zn221 O237 2.024 . S
C222 O223 1.229 . S
C222 O231 1.058 . S
O223 C222 1.229 . S
C224 O225 1.229 . S
C224 O237 1.058 . S
O225 C224 1.229 . S
O226 Zn220 1.969 . S
O226 C229 1.267 . S
O227 Zn220 1.965 . S
O227 C238 1.260 . S
O228 Zn221 1.969 . S
O228 C238 1.258 . S
C229 O226 1.267 . S
C229 O230 1.228 . S
O230 C229 1.228 . S
O231 Zn220 2.024 . S
O231 C222 1.058 . S
C232 O233 1.228 . S
C232 O234 1.267 1_545 S
O233 C232 1.228 . S
O234 Zn221 1.969 . S
O234 C232 1.267 1_565 S
O235 Zn221 1.965 . S
O235 C239 1.259 . S
O236 Zn220 1.969 . S
O236 C239 1.257 . S
O237 Zn221 2.024 . S
O237 C224 1.058 . S
C238 O227 1.260 . S
C238 O228 1.258 . S
C239 O235 1.259 . S
C239 O236 1.257 . S
Zn240 O246 1.969 . S
Zn240 O247 1.965 . S
Zn240 O251 2.024 . S
Zn240 O256 1.969 . S
Zn241 O248 1.969 . S
Zn241 O254 1.969 . S
Zn241 O255 1.965 . S
Zn241 O257 2.024 . S
C242 O243 1.229 . S
C242 O251 1.058 . S
O243 C242 1.229 . S
C244 O245 1.229 . S
C244 O257 1.058 . S
O245 C244 1.229 . S
O246 Zn240 1.969 . S
O246 C249 1.267 . S
O247 Zn240 1.965 . S
O247 C258 1.260 . S
O248 Zn241 1.969 . S
O248 C258 1.258 . S
C249 O246 1.267 . S
C249 O250 1.228 . S
O250 C249 1.228 . S
O251 Zn240 2.024 . S
O251 C242 1.058 . S
C252 O253 1.228 . S
C252 O254 1.267 . S
O253 C252 1.228 . S
O254 Zn241 1.969 . S
O254 C252 1.267 . S
O255 Zn241 1.965 . S
O255 C259 1.260 . S
O256 Zn240 1.969 . S
O256 C259 1.258 . S
O257 Zn241 2.024 . S
O257 C244 1.058 . S
C258 O247 1.260 . S
C258 O248 1.258 . S
C259 O255 1.260 . S
C259 O256 1.258 . S
Zn260 O266 1.969 . S
Zn260 O267 1.965 . S
Zn260 O271 2.024 . S
Zn260 O276 1.969 . S
Zn261 O268 1.969 . S
Zn261 O274 1.969 . S
Zn261 O275 1.965 . S
Zn261 O277 2.024 . S
C262 O263 1.229 . S
C262 O271 1.058 . S
O263 C262 1.229 . S
C264 O265 1.229 . S
C264 O277 1.058 . S
O265 C264 1.229 . S
O266 Zn260 1.969 . S
O266 C269 1.267 1_565 S
O267 Zn260 1.965 . S
O267 C278 1.259 . S
O268 Zn261 1.969 . S
O268 C278 1.257 . S
C269 O266 1.267 1_545 S
C269 O270 1.228 . S
O270 C269 1.228 . S
O271 Zn260 2.024 . S
O271 C262 1.058 . S
C272 O273 1.228 . S
C272 O274 1.267 . S
O273 C272 1.228 . S
O274 Zn261 1.969 . S
O274 C272 1.267 . S
O275 Zn261 1.965 . S
O275 C279 1.260 . S
O276 Zn260 1.969 . S
O276 C279 1.258 . S
O277 Zn261 2.024 . S
O277 C264 1.058 . S
C278 O267 1.259 . S
C278 O268 1.257 . S
C279 O275 1.260 . S
C279 O276 1.258 . S
Zn280 O286 1.969 . S
Zn280 O287 1.965 . S
Zn280 O291 2.024 . S
Zn280 O296 1.969 . S
Zn281 O288 1.969 . S
Zn281 O294 1.969 . S
Zn281 O295 1.965 . S
Zn281 O297 2.024 . S
C282 O283 1.229 . S
C282 O291 1.058 . S
O283 C282 1.229 . S
C284 O285 1.229 . S
C284 O297 1.058 . S
O285 C284 1.229 . S
O286 Zn280 1.969 . S
O286 C289 1.267 . S
O287 Zn280 1.965 . S
O287 C298 1.260 . S
O288 Zn281 1.969 . S
O288 C298 1.258 . S
C289 O286 1.267 . S
C289 O290 1.228 . S
O290 C289 1.228 . S
O291 Zn280 2.024 . S
O291 C282 1.058 . S
C292 O293 1.228 . S
C292 O294 1.267 . S
O293 C292 1.228 . S
O294 Zn281 1.969 . S
O294 C292 1.267 . S
O295 Zn281 1.965 . S
O295 C299 1.260 . S
O296 Zn280 1.969 . S
O296 C299 1.258 . S
O297 Zn281 2.024 . S
O297 C284 1.058 . S
C298 O287 1.260 . S
C298 O288 1.258 . S
C299 O295 1.260 . S
C299 O296 1.258 . S
Zn300 O306 1.969 . S
Zn300 O307 1.965 . S
Zn300 O311 2.024 . S
Zn300 O316 1.969 . S
Zn301 O308 1.969 . S
Zn301 O314 1.969 . S
Zn301 O315 1.965 . S
Zn301 O317 2.024 . S
C302 O303 1.229 . S
C302 O311 1.058 . S
O303 C302 1.229 . S
C304 O305 1.229 . S
C304 O317 1.058 . S
O305 C304 1.229 . S
O306 Zn300 1.969 . S
O306 C309 1.267 1_545 S
O307 Zn300 1.965 . S
O307 C318 1.259 . S
O308 Zn301 1.969 . S
O308 C318 1.257 . S
C309 O306 1.267 1_565 S
C309 O310 1.228 . S
O310 C309 1.228 . S
O311 Zn300 2.024 . S
O311 C302 1.058 . S
C312 O313 1.228 . S
C312 O314 1.267 . S
O313 C312 1.228 . S
O314 Zn301 1.969 . S
O314 C312 1.267 . S
O315 Zn301 1.965 . S
O315 C319 1.260 . S
O316 Zn300 1.969 . S
O316 C319 1.258 . S
O317 Zn301 2.024 . S
O317 C304 1.058 . S
C318 O307 1.259 . S
C318 O308 1.257 . S
C319 O315 1.260 . S
C319 O316 1.258 . S
H320 C332 0.930 . S
H321 C334 0.930 . S
H322 C335 0.930 . S
H323 C339 0.959 . S
H324 C339 0.959 . S
H325 C339 0.961 . S
H326 C340 0.960 . S
H327 C340 0.961 . S
H328 C340 0.959 . S
H329 C343 0.929 . S
H330 C344 0.931 . S
H331 C346 0.930 . S
C332 H320 0.930 . S
C332 C333 1.399 . S
C332 C337 1.399 . S
C333 C332 1.399 . S
C333 C334 1.376 . S
C334 H321 0.930 . S
C334 C333 1.376 . S
C334 C335 1.388 . S
C335 H322 0.930 . S
C335 C334 1.388 . S
C335 C336 1.390 . S
C336 C335 1.390 . S
C336 C337 1.394 . S
C336 C342 1.465 . S
C337 C332 1.399 . S
C337 C336 1.394 . S
C337 C338 1.516 . S
C338 C337 1.516 . S
C338 C339 1.502 . S
C338 C340 1.561 . S
C338 C341 1.526 . S
C339 H323 0.959 . S
C339 H324 0.959 . S
C339 H325 0.961 . S
C339 C338 1.502 . S
C340 H326 0.960 . S
C340 H327 0.961 . S
C340 H328 0.959 . S
C340 C338 1.561 . S
C341 C338 1.526 . S
C341 C342 1.396 . S
C341 C346 1.390 . S
C342 C336 1.465 . S
C342 C341 1.396 . S
C342 C343 1.399 . S
C343 H329 0.929 . S
C343 C342 1.399 . S
C343 C344 1.385 . S
C344 H330 0.931 . S
C344 C343 1.385 . S
C344 C345 1.389 . S
C345 C344 1.389 . S
C345 C346 1.387 . S
C346 H331 0.930 . S
C346 C341 1.390 . S
C346 C345 1.387 . S
H347 C359 0.930 . S
H348 C361 0.930 . S
H349 C362 0.930 . S
H350 C366 0.959 . S
H351 C366 0.959 . S
H352 C366 0.961 . S
H353 C367 0.960 . S
H354 C367 0.961 . S
H355 C367 0.959 . S
H356 C370 0.929 . S
H357 C371 0.931 . S
H358 C373 0.930 . S
C359 H347 0.930 . S
C359 C360 1.399 . S
C359 C364 1.399 . S
C360 C359 1.399 . S
C360 C361 1.376 . S
C361 H348 0.930 . S
C361 C360 1.376 . S
C361 C362 1.388 . S
C362 H349 0.930 . S
C362 C361 1.388 . S
C362 C363 1.390 . S
C363 C362 1.390 . S
C363 C364 1.394 . S
C363 C369 1.465 . S
C364 C359 1.399 . S
C364 C363 1.394 . S
C364 C365 1.516 . S
C365 C364 1.516 . S
C365 C366 1.502 . S
C365 C367 1.561 . S
C365 C368 1.526 . S
C366 H350 0.959 . S
C366 H351 0.959 . S
C366 H352 0.961 . S
C366 C365 1.502 . S
C367 H353 0.960 . S
C367 H354 0.961 . S
C367 H355 0.959 . S
C367 C365 1.561 . S
C368 C365 1.526 . S
C368 C369 1.396 . S
C368 C373 1.390 . S
C369 C363 1.465 . S
C369 C368 1.396 . S
C369 C370 1.399 . S
C370 H356 0.929 . S
C370 C369 1.399 . S
C370 C371 1.385 . S
C371 H357 0.931 . S
C371 C370 1.385 . S
C371 C372 1.389 . S
C372 C371 1.389 . S
C372 C373 1.387 . S
C373 H358 0.930 . S
C373 C368 1.390 . S
C373 C372 1.387 . S
H374 C386 0.930 . S
H375 C388 0.930 . S
H376 C389 0.930 . S
H377 C393 0.959 . S
H378 C393 0.959 . S
H379 C393 0.961 . S
H380 C394 0.960 . S
H381 C394 0.961 1_655 S
H382 C394 0.959 . S
H383 C397 0.929 . S
H384 C398 0.931 . S
H385 C400 0.930 . S
C386 H374 0.930 . S
C386 C387 1.399 . S
C386 C391 1.399 . S
C387 C386 1.399 . S
C387 C388 1.376 . S
C388 H375 0.930 . S
C388 C387 1.376 . S
C388 C389 1.388 . S
C389 H376 0.930 . S
C389 C388 1.388 . S
C389 C390 1.390 . S
C390 C389 1.390 . S
C390 C391 1.394 . S
C390 C396 1.465 1_455 S
C391 C386 1.399 . S
C391 C390 1.394 . S
C391 C392 1.516 1_455 S
C392 C391 1.516 1_655 S
C392 C393 1.502 . S
C392 C394 1.561 1_655 S
C392 C395 1.526 . S
C393 H377 0.959 . S
C393 H378 0.959 . S
C393 H379 0.961 . S
C393 C392 1.502 . S
C394 H380 0.960 . S
C394 H381 0.961 1_455 S
C394 H382 0.959 . S
C394 C392 1.561 1_455 S
C395 C392 1.526 . S
C395 C396 1.396 . S
C395 C400 1.390 . S
C396 C390 1.465 1_655 S
C396 C395 1.396 . S
C396 C397 1.399 . S
C397 H383 0.929 . S
C397 C396 1.399 . S
C397 C398 1.385 . S
C398 H384 0.931 . S
C398 C397 1.385 . S
C398 C399 1.389 . S
C399 C398 1.389 . S
C399 C400 1.387 . S
C400 H385 0.930 . S
C400 C395 1.390 . S
C400 C399 1.387 . S
H401 C413 0.930 . S
H402 C415 0.930 . S
H403 C416 0.930 1_655 S
H404 C420 0.959 . S
H405 C420 0.959 . S
H406 C420 0.961 . S
H407 C421 0.960 . S
H408 C421 0.961 . S
H409 C421 0.959 . S
H410 C424 0.929 . S
H411 C425 0.931 . S
H412 C427 0.930 . S
C413 H401 0.930 . S
C413 C414 1.399 . S
C413 C418 1.399 . S
C414 C413 1.399 . S
C414 C415 1.376 . S
C415 H402 0.930 . S
C415 C414 1.376 . S
C415 C416 1.388 . S
C416 H403 0.930 1_455 S
C416 C415 1.388 . S
C416 C417 1.393 . S
C417 C416 1.393 . S
C417 C418 1.405 . S
C417 C423 1.453 1_455 S
C418 C413 1.399 . S
C418 C417 1.405 . S
C418 C419 1.516 . S
C419 C418 1.516 . S
C419 C420 1.502 . S
C419 C421 1.561 1_455 S
C419 C422 1.526 1_455 S
C420 H404 0.959 . S
C420 H405 0.959 . S
C420 H406 0.961 . S
C420 C419 1.502 . S
C421 H407 0.960 . S
C421 H408 0.961 . S
C421 H409 0.959 . S
C421 C419 1.561 1_655 S
C422 C419 1.526 1_655 S
C422 C423 1.396 . S
C422 C427 1.390 . S
C423 C417 1.453 1_655 S
C423 C422 1.396 . S
C423 C424 1.399 . S
C424 H410 0.929 . S
C424 C423 1.399 . S
C424 C425 1.385 . S
C425 H411 0.931 . S
C425 C424 1.385 . S
C425 C426 1.389 . S
C426 C425 1.389 . S
C426 C427 1.387 . S
C427 H412 0.930 . S
C427 C422 1.390 . S
C427 C426 1.387 . S
H428 C440 0.930 . S
H429 C442 0.930 . S
H430 C443 0.930 . S
H431 C447 0.959 . S
H432 C447 0.959 . S
H433 C447 0.961 . S
H434 C448 0.960 . S
H435 C448 0.961 . S
H436 C448 0.959 . S
H437 C451 0.929 . S
H438 C452 0.931 . S
H439 C454 0.930 . S
C440 H428 0.930 . S
C440 C441 1.399 . S
C440 C445 1.399 . S
C441 C440 1.399 . S
C441 C442 1.376 . S
C442 H429 0.930 . S
C442 C441 1.376 . S
C442 C443 1.388 . S
C443 H430 0.930 . S
C443 C442 1.388 . S
C443 C444 1.390 . S
C444 C443 1.390 . S
C444 C445 1.394 . S
C444 C450 1.465 . S
C445 C440 1.399 . S
C445 C444 1.394 . S
C445 C446 1.516 . S
C446 C445 1.516 . S
C446 C447 1.502 . S
C446 C448 1.561 . S
C446 C449 1.526 . S
C447 H431 0.959 . S
C447 H432 0.959 . S
C447 H433 0.961 . S
C447 C446 1.502 . S
C448 H434 0.960 . S
C448 H435 0.961 . S
C448 H436 0.959 . S
C448 C446 1.561 . S
C449 C446 1.526 . S
C449 C450 1.396 . S
C449 C454 1.390 . S
C450 C444 1.465 . S
C450 C449 1.396 . S
C450 C451 1.399 . S
C451 H437 0.929 . S
C451 C450 1.399 . S
C451 C452 1.385 . S
C452 H438 0.931 . S
C452 C451 1.385 . S
C452 C453 1.389 . S
C453 C452 1.389 . S
C453 C454 1.387 . S
C454 H439 0.930 . S
C454 C449 1.390 . S
C454 C453 1.387 . S
H455 C467 0.930 . S
H456 C469 0.930 . S
H457 C470 0.930 . S
H458 C474 0.959 . S
H459 C474 0.959 . S
H460 C474 0.961 . S
H461 C475 0.960 . S
H462 C475 0.961 . S
H463 C475 0.959 . S
H464 C478 0.929 . S
H465 C479 0.931 . S
H466 C481 0.930 . S
C467 H455 0.930 . S
C467 C468 1.399 . S
C467 C472 1.399 . S
C468 C467 1.399 . S
C468 C469 1.376 . S
C469 H456 0.930 . S
C469 C468 1.376 . S
C469 C470 1.388 . S
C470 H457 0.930 . S
C470 C469 1.388 . S
C470 C471 1.390 . S
C471 C470 1.390 . S
C471 C472 1.394 . S
C471 C477 1.465 . S
C472 C467 1.399 . S
C472 C471 1.394 . S
C472 C473 1.516 . S
C473 C472 1.516 . S
C473 C474 1.502 . S
C473 C475 1.561 . S
C473 C476 1.526 . S
C474 H458 0.959 . S
C474 H459 0.959 . S
C474 H460 0.961 . S
C474 C473 1.502 . S
C475 H461 0.960 . S
C475 H462 0.961 . S
C475 H463 0.959 . S
C475 C473 1.561 . S
C476 C473 1.526 . S
C476 C477 1.396 . S
C476 C481 1.390 . S
C477 C471 1.465 . S
C477 C476 1.396 . S
C477 C478 1.399 . S
C478 H464 0.929 . S
C478 C477 1.399 . S
C478 C479 1.385 . S
C479 H465 0.931 . S
C479 C478 1.385 . S
C479 C480 1.389 . S
C480 C479 1.389 . S
C480 C481 1.387 . S
C481 H466 0.930 . S
C481 C476 1.390 . S
C481 C480 1.387 . S
H482 C494 0.930 . S
H483 C496 0.930 . S
H484 C497 0.930 . S
H485 C501 0.959 . S
H486 C501 0.959 . S
H487 C501 0.961 . S
H488 C502 0.960 . S
H489 C502 0.961 1_655 S
H490 C502 0.959 1_655 S
H491 C505 0.929 . S
H492 C506 0.931 . S
H493 C508 0.930 . S
C494 H482 0.930 . S
C494 C495 1.399 . S
C494 C499 1.399 . S
C495 C494 1.399 . S
C495 C496 1.376 . S
C496 H483 0.930 . S
C496 C495 1.376 . S
C496 C497 1.388 . S
C497 H484 0.930 . S
C497 C496 1.388 . S
C497 C498 1.390 . S
C498 C497 1.390 . S
C498 C499 1.394 . S
C498 C504 1.465 1_455 S
C499 C494 1.399 . S
C499 C498 1.394 . S
C499 C500 1.516 . S
C500 C499 1.516 . S
C500 C501 1.502 . S
C500 C502 1.561 . S
C500 C503 1.526 1_455 S
C501 H485 0.959 . S
C501 H486 0.959 . S
C501 H487 0.961 . S
C501 C500 1.502 . S
C502 H488 0.960 . S
C502 H489 0.961 1_455 S
C502 H490 0.959 1_455 S
C502 C500 1.561 . S
C503 C500 1.526 1_655 S
C503 C504 1.396 . S
C503 C508 1.390 . S
C504 C498 1.465 1_655 S
C504 C503 1.396 . S
C504 C505 1.399 . S
C505 H491 0.929 . S
C505 C504 1.399 . S
C505 C506 1.385 . S
C506 H492 0.931 . S
C506 C505 1.385 . S
C506 C507 1.389 . S
C507 C506 1.389 . S
C507 C508 1.387 . S
C508 H493 0.930 . S
C508 C503 1.390 . S
C508 C507 1.387 . S
H509 C521 0.930 . S
H510 C523 0.930 . S
H511 C524 0.930 . S
H512 C528 0.959 . S
H513 C528 0.959 . S
H514 C528 0.961 . S
H515 C529 0.960 . S
H516 C529 0.961 . S
H517 C529 0.959 . S
H518 C532 0.929 . S
H519 C533 0.931 . S
H520 C535 0.930 . S
C521 H509 0.930 . S
C521 C522 1.399 . S
C521 C526 1.399 . S
C522 C521 1.399 . S
C522 C523 1.376 . S
C523 H510 0.930 . S
C523 C522 1.376 . S
C523 C524 1.388 1_455 S
C524 H511 0.930 . S
C524 C523 1.388 1_655 S
C524 C525 1.390 . S
C525 C524 1.390 . S
C525 C526 1.394 1_655 S
C525 C531 1.465 . S
C526 C521 1.399 . S
C526 C525 1.394 1_455 S
C526 C527 1.516 . S
C527 C526 1.516 . S
C527 C528 1.502 . S
C527 C529 1.561 . S
C527 C530 1.526 1_455 S
C528 H512 0.959 . S
C528 H513 0.959 . S
C528 H514 0.961 . S
C528 C527 1.502 . S
C529 H515 0.960 . S
C529 H516 0.961 . S
C529 H517 0.959 . S
C529 C527 1.561 . S
C530 C527 1.526 1_655 S
C530 C531 1.396 . S
C530 C535 1.390 . S
C531 C525 1.465 . S
C531 C530 1.396 . S
C531 C532 1.399 . S
C532 H518 0.929 . S
C532 C531 1.399 . S
C532 C533 1.385 . S
C533 H519 0.931 . S
C533 C532 1.385 . S
C533 C534 1.389 . S
C534 C533 1.389 . S
C534 C535 1.387 . S
C535 H520 0.930 . S
C535 C530 1.390 . S
C535 C534 1.387 . S
H536 C548 0.930 . S
H537 C550 0.930 . S
H538 C551 0.930 . S
H539 C555 0.959 . S
H540 C555 0.959 1_565 S
H541 C555 0.961 . S
H542 C556 0.960 . S
H543 C556 0.961 . S
H544 C556 0.959 . S
H545 C559 0.929 1_545 S
H546 C560 0.931 . S
H547 C562 0.930 . S
C548 H536 0.930 . S
C548 C549 1.399 . S
C548 C553 1.405 . S
C549 C548 1.399 . S
C549 C550 1.376 . S
C550 H537 0.930 . S
C550 C549 1.376 . S
C550 C551 1.388 1_554 S
C551 H538 0.930 . S
C551 C550 1.388 1_556 S
C551 C552 1.390 . S
C552 C551 1.390 . S
C552 C553 1.397 1_556 S
C552 C558 1.465 1_545 S
C553 C548 1.405 . S
C553 C552 1.397 1_554 S
C553 C554 1.507 1_545 S
C554 C553 1.507 1_565 S
C554 C555 1.502 1_565 S
C554 C556 1.561 . S
C554 C557 1.526 1_554 S
C555 H539 0.959 . S
C555 H540 0.959 1_545 S
C555 H541 0.961 . S
C555 C554 1.502 1_545 S
C556 H542 0.960 . S
C556 H543 0.961 . S
C556 H544 0.959 . S
C556 C554 1.561 . S
C557 C554 1.526 1_556 S
C557 C558 1.396 . S
C557 C562 1.390 . S
C558 C552 1.465 1_565 S
C558 C557 1.396 . S
C558 C559 1.399 . S
C559 H545 0.929 1_565 S
C559 C558 1.399 . S
C559 C560 1.385 . S
C560 H546 0.931 . S
C560 C559 1.385 . S
C560 C561 1.389 . S
C561 C560 1.389 . S
C561 C562 1.387 . S
C562 H547 0.930 . S
C562 C557 1.390 . S
C562 C561 1.387 . S
H563 C575 0.930 . S
H564 C577 0.930 . S
H565 C578 0.930 . S
H566 C582 0.959 . S
H567 C582 0.959 . S
H568 C582 0.961 . S
H569 C583 0.960 . S
H570 C583 0.961 . S
H571 C583 0.959 . S
H572 C586 0.929 . S
H573 C587 0.931 . S
H574 C589 0.930 . S
C575 H563 0.930 . S
C575 C576 1.399 . S
C575 C580 1.399 . S
C576 C575 1.399 . S
C576 C577 1.376 . S
C577 H564 0.930 . S
C577 C576 1.376 . S
C577 C578 1.388 . S
C578 H565 0.930 . S
C578 C577 1.388 . S
C578 C579 1.390 . S
C579 C578 1.390 . S
C579 C580 1.394 . S
C579 C585 1.465 . S
C580 C575 1.399 . S
C580 C579 1.394 . S
C580 C581 1.516 . S
C581 C580 1.516 . S
C581 C582 1.502 . S
C581 C583 1.561 . S
C581 C584 1.526 . S
C582 H566 0.959 . S
C582 H567 0.959 . S
C582 H568 0.961 . S
C582 C581 1.502 . S
C583 H569 0.960 . S
C583 H570 0.961 . S
C583 H571 0.959 . S
C583 C581 1.561 . S
C584 C581 1.526 . S
C584 C585 1.396 . S
C584 C589 1.390 . S
C585 C579 1.465 . S
C585 C584 1.396 . S
C585 C586 1.399 . S
C586 H572 0.929 . S
C586 C585 1.399 . S
C586 C587 1.385 . S
C587 H573 0.931 . S
C587 C586 1.385 . S
C587 C588 1.389 . S
C588 C587 1.389 . S
C588 C589 1.387 . S
C589 H574 0.930 . S
C589 C584 1.390 . S
C589 C588 1.387 . S
H590 C602 0.930 . S
H591 C604 0.930 . S
H592 C605 0.930 1_655 S
H593 C609 0.959 . S
H594 C609 0.959 . S
H595 C609 0.961 . S
H596 C610 0.960 . S
H597 C610 0.961 . S
H598 C610 0.959 . S
H599 C613 0.929 . S
H600 C614 0.931 . S
H601 C616 0.930 . S
C602 H590 0.930 . S
C602 C603 1.399 . S
C602 C607 1.399 . S
C603 C602 1.399 . S
C603 C604 1.376 . S
C604 H591 0.930 . S
C604 C603 1.376 . S
C604 C605 1.388 . S
C605 H592 0.930 1_455 S
C605 C604 1.388 . S
C605 C606 1.390 . S
C606 C605 1.390 . S
C606 C607 1.394 . S
C606 C612 1.465 1_465 S
C607 C602 1.399 . S
C607 C606 1.394 . S
C607 C608 1.516 . S
C608 C607 1.516 . S
C608 C609 1.502 1_565 S
C608 C610 1.561 . S
C608 C611 1.526 1_465 S
C609 H593 0.959 . S
C609 H594 0.959 . S
C609 H595 0.961 . S
C609 C608 1.502 1_545 S
C610 H596 0.960 . S
C610 H597 0.961 . S
C610 H598 0.959 . S
C610 C608 1.561 . S
C611 C608 1.526 1_645 S
C611 C612 1.396 . S
C611 C616 1.390 . S
C612 C606 1.465 1_645 S
C612 C611 1.396 . S
C612 C613 1.399 . S
C613 H599 0.929 . S
C613 C612 1.399 . S
C613 C614 1.385 . S
C614 H600 0.931 . S
C614 C613 1.385 . S
C614 C615 1.389 . S
C615 C614 1.389 . S
C615 C616 1.387 . S
C616 H601 0.930 . S
C616 C611 1.390 . S
C616 C615 1.387 . S
H617 C629 0.930 . S
H618 C631 0.930 . S
H619 C632 0.930 . S
H620 C636 0.959 . S
H621 C636 0.959 . S
H622 C636 0.961 . S
H623 C637 0.960 . S
H624 C637 0.961 . S
H625 C637 0.959 . S
H626 C640 0.929 . S
H627 C641 0.931 . S
H628 C643 0.930 . S
C629 H617 0.930 . S
C629 C630 1.399 . S
C629 C634 1.399 . S
C630 C629 1.399 . S
C630 C631 1.376 . S
C631 H618 0.930 . S
C631 C630 1.376 . S
C631 C632 1.388 . S
C632 H619 0.930 . S
C632 C631 1.388 . S
C632 C633 1.390 . S
C633 C632 1.390 . S
C633 C634 1.394 . S
C633 C639 1.465 . S
C634 C629 1.399 . S
C634 C633 1.394 . S
C634 C635 1.516 . S
C635 C634 1.516 . S
C635 C636 1.502 . S
C635 C637 1.561 . S
C635 C638 1.526 . S
C636 H620 0.959 . S
C636 H621 0.959 . S
C636 H622 0.961 . S
C636 C635 1.502 . S
C637 H623 0.960 . S
C637 H624 0.961 . S
C637 H625 0.959 . S
C637 C635 1.561 . S
C638 C635 1.526 . S
C638 C639 1.396 . S
C638 C643 1.390 . S
C639 C633 1.465 . S
C639 C638 1.396 . S
C639 C640 1.399 . S
C640 H626 0.929 . S
C640 C639 1.399 . S
C640 C641 1.385 . S
C641 H627 0.931 . S
C641 C640 1.385 . S
C641 C642 1.389 . S
C642 C641 1.389 . S
C642 C643 1.387 . S
C643 H628 0.930 . S
C643 C638 1.390 . S
C643 C642 1.387 . S
H644 C656 0.930 . S
H645 C658 0.930 . S
H646 C659 0.930 . S
H647 C663 0.959 . S
H648 C663 0.959 . S
H649 C663 0.961 . S
H650 C664 0.960 . S
H651 C664 0.961 . S
H652 C664 0.959 . S
H653 C667 0.929 . S
H654 C668 0.931 . S
H655 C670 0.930 . S
C656 H644 0.930 . S
C656 C657 1.399 . S
C656 C661 1.399 . S
C657 C656 1.399 . S
C657 C658 1.376 . S
C658 H645 0.930 . S
C658 C657 1.376 . S
C658 C659 1.388 . S
C659 H646 0.930 . S
C659 C658 1.388 . S
C659 C660 1.390 . S
C660 C659 1.390 . S
C660 C661 1.394 . S
C660 C666 1.465 . S
C661 C656 1.399 . S
C661 C660 1.394 . S
C661 C662 1.516 . S
C662 C661 1.516 . S
C662 C663 1.502 . S
C662 C664 1.561 . S
C662 C665 1.526 . S
C663 H647 0.959 . S
C663 H648 0.959 . S
C663 H649 0.961 . S
C663 C662 1.502 . S
C664 H650 0.960 . S
C664 H651 0.961 . S
C664 H652 0.959 . S
C664 C662 1.561 . S
C665 C662 1.526 . S
C665 C666 1.396 . S
C665 C670 1.390 . S
C666 C660 1.465 . S
C666 C665 1.396 . S
C666 C667 1.399 . S
C667 H653 0.929 . S
C667 C666 1.399 . S
C667 C668 1.385 . S
C668 H654 0.931 . S
C668 C667 1.385 . S
C668 C669 1.389 . S
C669 C668 1.389 . S
C669 C670 1.387 . S
C670 H655 0.930 . S
C670 C665 1.390 . S
C670 C669 1.387 . S
H671 C683 0.930 . S
H672 C685 0.930 . S
H673 C686 0.930 . S
H674 C690 0.959 . S
H675 C690 0.959 . S
H676 C690 0.961 . S
H677 C691 0.960 . S
H678 C691 0.961 . S
H679 C691 0.959 . S
H680 C694 0.929 . S
H681 C695 0.931 . S
H682 C697 0.930 . S
C683 H671 0.930 . S
C683 C684 1.399 . S
C683 C688 1.399 . S
C684 C683 1.399 . S
C684 C685 1.376 . S
C685 H672 0.930 . S
C685 C684 1.376 . S
C685 C686 1.388 . S
C686 H673 0.930 . S
C686 C685 1.388 . S
C686 C687 1.390 . S
C687 C686 1.390 . S
C687 C688 1.394 . S
C687 C693 1.465 . S
C688 C683 1.399 . S
C688 C687 1.394 . S
C688 C689 1.516 . S
C689 C688 1.516 . S
C689 C690 1.502 . S
C689 C691 1.561 . S
C689 C692 1.526 . S
C690 H674 0.959 . S
C690 H675 0.959 . S
C690 H676 0.961 . S
C690 C689 1.502 . S
C691 H677 0.960 . S
C691 H678 0.961 . S
C691 H679 0.959 . S
C691 C689 1.561 . S
C692 C689 1.526 . S
C692 C693 1.396 . S
C692 C697 1.390 . S
C693 C687 1.465 . S
C693 C692 1.396 . S
C693 C694 1.399 . S
C694 H680 0.929 . S
C694 C693 1.399 . S
C694 C695 1.385 . S
C695 H681 0.931 . S
C695 C694 1.385 . S
C695 C696 1.389 . S
C696 C695 1.389 . S
C696 C697 1.387 . S
C697 H682 0.930 . S
C697 C692 1.390 . S
C697 C696 1.387 . S
H698 C710 0.930 . S
H699 C712 0.930 . S
H700 C713 0.930 . S
H701 C717 0.959 . S
H702 C717 0.959 . S
H703 C717 0.961 . S
H704 C718 0.960 . S
H705 C718 0.961 1_655 S
H706 C718 0.959 . S
H707 C721 0.929 . S
H708 C722 0.931 . S
H709 C724 0.930 . S
C710 H698 0.930 . S
C710 C711 1.399 . S
C710 C715 1.399 . S
C711 C710 1.399 . S
C711 C712 1.376 . S
C712 H699 0.930 . S
C712 C711 1.376 . S
C712 C713 1.388 . S
C713 H700 0.930 . S
C713 C712 1.388 . S
C713 C714 1.390 . S
C714 C713 1.390 . S
C714 C715 1.394 . S
C714 C720 1.465 1_455 S
C715 C710 1.399 . S
C715 C714 1.394 . S
C715 C716 1.516 1_455 S
C716 C715 1.516 1_655 S
C716 C717 1.502 . S
C716 C718 1.561 1_655 S
C716 C719 1.526 . S
C717 H701 0.959 . S
C717 H702 0.959 . S
C717 H703 0.961 . S
C717 C716 1.502 . S
C718 H704 0.960 . S
C718 H705 0.961 1_455 S
C718 H706 0.959 . S
C718 C716 1.561 1_455 S
C719 C716 1.526 . S
C719 C720 1.396 . S
C719 C724 1.390 . S
C720 C714 1.465 1_655 S
C720 C719 1.396 . S
C720 C721 1.399 . S
C721 H707 0.929 . S
C721 C720 1.399 . S
C721 C722 1.385 . S
C722 H708 0.931 . S
C722 C721 1.385 . S
C722 C723 1.389 . S
C723 C722 1.389 . S
C723 C724 1.387 . S
C724 H709 0.930 . S
C724 C719 1.390 . S
C724 C723 1.387 . S
H725 C737 0.930 . S
H726 C739 0.930 . S
H727 C740 0.930 . S
H728 C744 0.959 . S
H729 C744 0.959 . S
H730 C744 0.961 . S
H731 C745 0.960 . S
H732 C745 0.961 . S
H733 C745 0.925 1_554 S
H734 C748 0.929 . S
H735 C749 0.931 . S
H736 C751 0.930 . S
C737 H725 0.930 . S
C737 C738 1.399 . S
C737 C742 1.399 . S
C738 C737 1.399 . S
C738 C739 1.376 . S
C739 H726 0.930 . S
C739 C738 1.376 . S
C739 C740 1.388 . S
C740 H727 0.930 . S
C740 C739 1.388 . S
C740 C741 1.390 . S
C741 C740 1.390 . S
C741 C742 1.394 . S
C741 C747 1.500 . S
C742 C737 1.399 . S
C742 C741 1.394 . S
C742 C743 1.516 1_554 S
C743 C742 1.516 1_556 S
C743 C744 1.502 . S
C743 C745 1.561 . S
C743 C746 1.526 . S
C744 H728 0.959 . S
C744 H729 0.959 . S
C744 H730 0.961 . S
C744 C743 1.502 . S
C745 H731 0.960 . S
C745 H732 0.961 . S
C745 H733 0.925 1_556 S
C745 C743 1.561 . S
C746 C743 1.526 . S
C746 C747 1.352 1_556 S
C746 C751 1.390 . S
C747 C741 1.500 . S
C747 C746 1.352 1_554 S
C747 C748 1.405 . S
C748 H734 0.929 . S
C748 C747 1.405 . S
C748 C749 1.385 1_554 S
C749 H735 0.931 . S
C749 C748 1.385 1_556 S
C749 C750 1.389 . S
C750 C749 1.389 . S
C750 C751 1.387 . S
C751 H736 0.930 . S
C751 C746 1.390 . S
C751 C750 1.387 . S
H752 C764 0.930 . S
H753 C766 0.930 . S
H754 C767 0.930 . S
H755 C771 0.959 . S
H756 C771 0.959 . S
H757 C771 0.961 . S
H758 C772 0.960 . S
H759 C772 0.961 . S
H760 C772 0.959 . S
H761 C775 0.929 . S
H762 C776 0.931 . S
H763 C778 0.930 . S
C764 H752 0.930 . S
C764 C765 1.399 . S
C764 C769 1.399 . S
C765 C764 1.399 . S
C765 C766 1.376 . S
C766 H753 0.930 . S
C766 C765 1.376 . S
C766 C767 1.388 . S
C767 H754 0.930 . S
C767 C766 1.388 . S
C767 C768 1.390 . S
C768 C767 1.390 . S
C768 C769 1.394 . S
C768 C774 1.465 . S
C769 C764 1.399 . S
C769 C768 1.394 . S
C769 C770 1.516 . S
C770 C769 1.516 . S
C770 C771 1.502 . S
C770 C772 1.561 . S
C770 C773 1.526 . S
C771 H755 0.959 . S
C771 H756 0.959 . S
C771 H757 0.961 . S
C771 C770 1.502 . S
C772 H758 0.960 . S
C772 H759 0.961 . S
C772 H760 0.959 . S
C772 C770 1.561 . S
C773 C770 1.526 . S
C773 C774 1.396 . S
C773 C778 1.390 . S
C774 C768 1.465 . S
C774 C773 1.396 . S
C774 C775 1.399 . S
C775 H761 0.929 . S
C775 C774 1.399 . S
C775 C776 1.385 . S
C776 H762 0.931 . S
C776 C775 1.385 . S
C776 C777 1.389 . S
C777 C776 1.389 . S
C777 C778 1.387 . S
C778 H763 0.930 . S
C778 C773 1.390 . S
C778 C777 1.387 . S
H779 C791 0.930 . S
H780 C793 0.930 . S
H781 C794 0.930 . S
H782 C798 0.959 . S
H783 C798 0.959 . S
H784 C798 0.961 . S
H785 C799 0.960 . S
H786 C799 0.961 . S
H787 C799 0.959 . S
H788 C802 0.929 . S
H789 C803 0.931 . S
H790 C805 0.930 . S
C791 H779 0.930 . S
C791 C792 1.399 . S
C791 C796 1.399 . S
C792 C791 1.399 . S
C792 C793 1.376 . S
C793 H780 0.930 . S
C793 C792 1.376 . S
C793 C794 1.388 . S
C794 H781 0.930 . S
C794 C793 1.388 . S
C794 C795 1.390 . S
C795 C794 1.390 . S
C795 C796 1.394 . S
C795 C801 1.465 . S
C796 C791 1.399 . S
C796 C795 1.394 . S
C796 C797 1.516 . S
C797 C796 1.516 . S
C797 C798 1.502 . S
C797 C799 1.561 . S
C797 C800 1.526 . S
C798 H782 0.959 . S
C798 H783 0.959 . S
C798 H784 0.961 . S
C798 C797 1.502 . S
C799 H785 0.960 . S
C799 H786 0.961 . S
C799 H787 0.959 . S
C799 C797 1.561 . S
C800 C797 1.526 . S
C800 C801 1.396 . S
C800 C805 1.390 . S
C801 C795 1.465 . S
C801 C800 1.396 . S
C801 C802 1.399 . S
C802 H788 0.929 . S
C802 C801 1.399 . S
C802 C803 1.385 . S
C803 H789 0.931 . S
C803 C802 1.385 . S
C803 C804 1.389 . S
C804 C803 1.389 . S
C804 C805 1.387 . S
C805 H790 0.930 . S
C805 C800 1.390 . S
C805 C804 1.387 . S
H806 C818 0.930 . S
H807 C820 0.930 . S
H808 C821 0.930 . S
H809 C825 0.959 . S
H810 C825 0.959 . S
H811 C825 0.961 . S
H812 C826 0.960 . S
H813 C826 0.961 . S
H814 C826 0.959 . S
H815 C829 0.929 . S
H816 C830 0.931 . S
H817 C832 0.930 . S
C818 H806 0.930 . S
C818 C819 1.399 . S
C818 C823 1.399 . S
C819 C818 1.399 . S
C819 C820 1.376 . S
C820 H807 0.930 . S
C820 C819 1.376 . S
C820 C821 1.388 . S
C821 H808 0.930 . S
C821 C820 1.388 . S
C821 C822 1.390 . S
C822 C821 1.390 . S
C822 C823 1.394 . S
C822 C828 1.465 . S
C823 C818 1.399 . S
C823 C822 1.394 . S
C823 C824 1.516 . S
C824 C823 1.516 . S
C824 C825 1.502 . S
C824 C826 1.561 . S
C824 C827 1.526 . S
C825 H809 0.959 . S
C825 H810 0.959 . S
C825 H811 0.961 . S
C825 C824 1.502 . S
C826 H812 0.960 . S
C826 H813 0.961 . S
C826 H814 0.959 . S
C826 C824 1.561 . S
C827 C824 1.526 . S
C827 C828 1.396 . S
C827 C832 1.390 . S
C828 C822 1.465 . S
C828 C827 1.396 . S
C828 C829 1.399 . S
C829 H815 0.929 . S
C829 C828 1.399 . S
C829 C830 1.385 . S
C830 H816 0.931 . S
C830 C829 1.385 . S
C830 C831 1.389 . S
C831 C830 1.389 . S
C831 C832 1.387 . S
C832 H817 0.930 . S
C832 C827 1.390 . S
C832 C831 1.387 . S
H833 C845 0.930 . S
H834 C847 0.930 . S
H835 C848 0.930 . S
H836 C852 0.959 . S
H837 C852 0.959 . S
H838 C852 0.961 . S
H839 C853 0.960 . S
H840 C853 0.961 . S
H841 C853 0.959 . S
H842 C856 0.929 . S
H843 C857 0.931 . S
H844 C859 0.930 . S
C845 H833 0.930 . S
C845 C846 1.399 . S
C845 C850 1.399 . S
C846 C845 1.399 . S
C846 C847 1.376 . S
C847 H834 0.930 . S
C847 C846 1.376 . S
C847 C848 1.388 . S
C848 H835 0.930 . S
C848 C847 1.388 . S
C848 C849 1.390 . S
C849 C848 1.390 . S
C849 C850 1.394 . S
C849 C855 1.465 . S
C850 C845 1.399 . S
C850 C849 1.394 . S
C850 C851 1.516 . S
C851 C850 1.516 . S
C851 C852 1.502 . S
C851 C853 1.561 . S
C851 C854 1.526 . S
C852 H836 0.959 . S
C852 H837 0.959 . S
C852 H838 0.961 . S
C852 C851 1.502 . S
C853 H839 0.960 . S
C853 H840 0.961 . S
C853 H841 0.959 . S
C853 C851 1.561 . S
C854 C851 1.526 . S
C854 C855 1.396 . S
C854 C859 1.390 . S
C855 C849 1.465 . S
C855 C854 1.396 . S
C855 C856 1.399 . S
C856 H842 0.929 . S
C856 C855 1.399 . S
C856 C857 1.385 . S
C857 H843 0.931 . S
C857 C856 1.385 . S
C857 C858 1.389 . S
C858 C857 1.389 . S
C858 C859 1.387 . S
C859 H844 0.930 . S
C859 C854 1.390 . S
C859 C858 1.387 . S
H860 C872 0.930 . S
H861 C874 0.930 . S
H862 C875 0.930 . S
H863 C879 0.959 . S
H864 C879 0.959 . S
H865 C879 0.961 . S
H866 C880 0.960 . S
H867 C880 0.961 . S
H868 C880 0.959 . S
H869 C883 0.929 . S
H870 C884 0.931 . S
H871 C886 0.930 . S
C872 H860 0.930 . S
C872 C873 1.399 . S
C872 C877 1.399 . S
C873 C872 1.399 . S
C873 C874 1.376 . S
C874 H861 0.930 . S
C874 C873 1.376 . S
C874 C875 1.388 . S
C875 H862 0.930 . S
C875 C874 1.388 . S
C875 C876 1.390 . S
C876 C875 1.390 . S
C876 C877 1.394 . S
C876 C882 1.465 . S
C877 C872 1.399 . S
C877 C876 1.394 . S
C877 C878 1.516 . S
C878 C877 1.516 . S
C878 C879 1.502 . S
C878 C880 1.561 . S
C878 C881 1.526 . S
C879 H863 0.959 . S
C879 H864 0.959 . S
C879 H865 0.961 . S
C879 C878 1.502 . S
C880 H866 0.960 . S
C880 H867 0.961 . S
C880 H868 0.959 . S
C880 C878 1.561 . S
C881 C878 1.526 . S
C881 C882 1.396 . S
C881 C886 1.390 . S
C882 C876 1.465 . S
C882 C881 1.396 . S
C882 C883 1.399 . S
C883 H869 0.929 . S
C883 C882 1.399 . S
C883 C884 1.385 . S
C884 H870 0.931 . S
C884 C883 1.385 . S
C884 C885 1.389 . S
C885 C884 1.389 . S
C885 C886 1.387 . S
C886 H871 0.930 . S
C886 C881 1.390 . S
C886 C885 1.387 . S
H887 C899 0.930 . S
H888 C901 0.930 . S
H889 C902 0.930 . S
H890 C906 0.959 . S
H891 C906 0.959 . S
H892 C906 0.961 . S
H893 C907 0.960 . S
H894 C907 0.961 . S
H895 C907 0.959 . S
H896 C910 0.929 . S
H897 C911 0.931 . S
H898 C913 0.930 . S
C899 H887 0.930 . S
C899 C900 1.399 . S
C899 C904 1.399 . S
C900 C899 1.399 . S
C900 C901 1.376 . S
C901 H888 0.930 . S
C901 C900 1.376 . S
C901 C902 1.388 . S
C902 H889 0.930 . S
C902 C901 1.388 . S
C902 C903 1.390 . S
C903 C902 1.390 . S
C903 C904 1.394 . S
C903 C909 1.465 . S
C904 C899 1.399 . S
C904 C903 1.394 . S
C904 C905 1.516 . S
C905 C904 1.516 . S
C905 C906 1.502 . S
C905 C907 1.561 . S
C905 C908 1.526 . S
C906 H890 0.959 . S
C906 H891 0.959 . S
C906 H892 0.961 . S
C906 C905 1.502 . S
C907 H893 0.960 . S
C907 H894 0.961 . S
C907 H895 0.959 . S
C907 C905 1.561 . S
C908 C905 1.526 . S
C908 C909 1.396 . S
C908 C913 1.390 . S
C909 C903 1.465 . S
C909 C908 1.396 . S
C909 C910 1.399 . S
C910 H896 0.929 . S
C910 C909 1.399 . S
C910 C911 1.385 . S
C911 H897 0.931 . S
C911 C910 1.385 . S
C911 C912 1.389 . S
C912 C911 1.389 . S
C912 C913 1.387 . S
C913 H898 0.930 . S
C913 C908 1.390 . S
C913 C912 1.387 . S
H914 C926 0.930 . S
H915 C928 0.930 . S
H916 C929 0.930 . S
H917 C933 0.959 . S
H918 C933 0.959 . S
H919 C933 0.961 . S
H920 C934 0.960 . S
H921 C934 0.961 . S
H922 C934 0.959 . S
H923 C937 0.929 . S
H924 C938 0.931 . S
H925 C940 0.930 . S
C926 H914 0.930 . S
C926 C927 1.399 . S
C926 C931 1.399 . S
C927 C926 1.399 . S
C927 C928 1.376 . S
C928 H915 0.930 . S
C928 C927 1.376 . S
C928 C929 1.388 . S
C929 H916 0.930 . S
C929 C928 1.388 . S
C929 C930 1.390 . S
C930 C929 1.390 . S
C930 C931 1.394 . S
C930 C936 1.465 . S
C931 C926 1.399 . S
C931 C930 1.394 . S
C931 C932 1.516 . S
C932 C931 1.516 . S
C932 C933 1.502 . S
C932 C934 1.561 . S
C932 C935 1.526 . S
C933 H917 0.959 . S
C933 H918 0.959 . S
C933 H919 0.961 . S
C933 C932 1.502 . S
C934 H920 0.960 . S
C934 H921 0.961 . S
C934 H922 0.959 . S
C934 C932 1.561 . S
C935 C932 1.526 . S
C935 C936 1.396 . S
C935 C940 1.390 . S
C936 C930 1.465 . S
C936 C935 1.396 . S
C936 C937 1.399 . S
C937 H923 0.929 . S
C937 C936 1.399 . S
C937 C938 1.385 . S
C938 H924 0.931 . S
C938 C937 1.385 . S
C938 C939 1.389 . S
C939 C938 1.389 . S
C939 C940 1.387 . S
C940 H925 0.930 . S
C940 C935 1.390 . S
C940 C939 1.387 . S
H941 C953 0.930 . S
H942 C955 0.930 . S
H943 C956 0.930 . S
H944 C960 0.959 . S
H945 C960 0.959 . S
H946 C960 0.961 . S
H947 C961 0.960 . S
H948 C961 0.961 . S
H949 C961 0.959 . S
H950 C964 0.929 . S
H951 C965 0.931 . S
H952 C967 0.930 . S
C953 H941 0.930 . S
C953 C954 1.399 . S
C953 C958 1.399 . S
C954 C953 1.399 . S
C954 C955 1.376 . S
C955 H942 0.930 . S
C955 C954 1.376 . S
C955 C956 1.388 . S
C956 H943 0.930 . S
C956 C955 1.388 . S
C956 C957 1.390 . S
C957 C956 1.390 . S
C957 C958 1.394 . S
C957 C963 1.465 . S
C958 C953 1.399 . S
C958 C957 1.394 . S
C958 C959 1.516 . S
C959 C958 1.516 . S
C959 C960 1.502 . S
C959 C961 1.561 . S
C959 C962 1.526 . S
C960 H944 0.959 . S
C960 H945 0.959 . S
C960 H946 0.961 . S
C960 C959 1.502 . S
C961 H947 0.960 . S
C961 H948 0.961 . S
C961 H949 0.959 . S
C961 C959 1.561 . S
C962 C959 1.526 . S
C962 C963 1.396 . S
C962 C967 1.390 . S
C963 C957 1.465 . S
C963 C962 1.396 . S
C963 C964 1.399 . S
C964 H950 0.929 . S
C964 C963 1.399 . S
C964 C965 1.385 . S
C965 H951 0.931 . S
C965 C964 1.385 . S
C965 C966 1.389 . S
C966 C965 1.389 . S
C966 C967 1.387 . S
C967 H952 0.930 . S
C967 C962 1.390 . S
C967 C966 1.387 . S
H968 C980 0.930 . S
H969 C982 0.930 . S
H970 C983 0.930 . S
H971 C987 0.959 . S
H972 C987 0.959 . S
H973 C987 0.961 . S
H974 C988 0.960 . S
H975 C988 0.961 . S
H976 C988 0.959 . S
H977 C991 0.929 . S
H978 C992 0.931 1_545 S
H979 C994 0.930 . S
C980 H968 0.930 . S
C980 C981 1.399 . S
C980 C985 1.399 . S
C981 C980 1.399 . S
C981 C982 1.376 . S
C982 H969 0.930 . S
C982 C981 1.376 . S
C982 C983 1.388 . S
C983 H970 0.930 . S
C983 C982 1.388 . S
C983 C984 1.390 . S
C984 C983 1.390 . S
C984 C985 1.394 . S
C984 C990 1.465 . S
C985 C980 1.399 . S
C985 C984 1.394 . S
C985 C986 1.516 . S
C986 C985 1.516 . S
C986 C987 1.502 . S
C986 C988 1.561 . S
C986 C989 1.526 . S
C987 H971 0.959 . S
C987 H972 0.959 . S
C987 H973 0.961 . S
C987 C986 1.502 . S
C988 H974 0.960 . S
C988 H975 0.961 . S
C988 H976 0.959 . S
C988 C986 1.561 . S
C989 C986 1.526 . S
C989 C990 1.396 . S
C989 C994 1.390 . S
C990 C984 1.465 . S
C990 C989 1.396 . S
C990 C991 1.399 . S
C991 H977 0.929 . S
C991 C990 1.399 . S
C991 C992 1.385 . S
C992 H978 0.931 1_565 S
C992 C991 1.385 . S
C992 C993 1.389 . S
C993 C992 1.389 . S
C993 C994 1.387 . S
C994 H979 0.930 . S
C994 C989 1.390 . S
C994 C993 1.387 . S
H995 C1007 0.930 . S
H996 C1009 0.930 . S
H997 C1010 0.930 1_545 S
H998 C1014 0.959 . S
H999 C1014 0.959 . S
H1000 C1014 0.961 . S
H1001 C1015 0.960 . S
H1002 C1015 0.961 . S
H1003 C1015 0.959 . S
H1004 C1018 0.929 . S
H1005 C1019 0.931 . S
H1006 C1021 0.930 . S
C1007 H995 0.930 . S
C1007 C1008 1.399 . S
C1007 C1012 1.399 . S
C1008 C1007 1.399 . S
C1008 C1009 1.376 . S
C1009 H996 0.930 . S
C1009 C1008 1.376 . S
C1009 C1010 1.388 . S
C1010 H997 0.930 1_565 S
C1010 C1009 1.388 . S
C1010 C1011 1.390 . S
C1011 C1010 1.390 . S
C1011 C1012 1.394 . S
C1011 C1017 1.465 . S
C1012 C1007 1.399 . S
C1012 C1011 1.394 . S
C1012 C1013 1.516 . S
C1013 C1012 1.516 . S
C1013 C1014 1.502 . S
C1013 C1015 1.561 . S
C1013 C1016 1.526 . S
C1014 H998 0.959 . S
C1014 H999 0.959 . S
C1014 H1000 0.961 . S
C1014 C1013 1.502 . S
C1015 H1001 0.960 . S
C1015 H1002 0.961 . S
C1015 H1003 0.959 . S
C1015 C1013 1.561 . S
C1016 C1013 1.526 . S
C1016 C1017 1.396 . S
C1016 C1021 1.390 . S
C1017 C1011 1.465 . S
C1017 C1016 1.396 . S
C1017 C1018 1.399 1_565 S
C1018 H1004 0.929 . S
C1018 C1017 1.399 1_545 S
C1018 C1019 1.385 . S
C1019 H1005 0.931 . S
C1019 C1018 1.385 . S
C1019 C1020 1.389 1_545 S
C1020 C1019 1.389 1_565 S
C1020 C1021 1.387 . S
C1021 H1006 0.930 . S
C1021 C1016 1.390 . S
C1021 C1020 1.387 . S
H1022 C1034 0.930 . S
H1023 C1036 0.930 . S
H1024 C1037 0.930 . S
H1025 C1041 0.959 . S
H1026 C1041 0.959 . S
H1027 C1041 0.961 . S
H1028 C1042 0.960 . S
H1029 C1042 0.961 . S
H1030 C1042 0.959 . S
H1031 C1045 0.929 . S
H1032 C1046 0.931 . S
H1033 C1048 0.930 . S
C1034 H1022 0.930 . S
C1034 C1035 1.399 . S
C1034 C1039 1.399 . S
C1035 C1034 1.399 . S
C1035 C1036 1.376 . S
C1036 H1023 0.930 . S
C1036 C1035 1.376 . S
C1036 C1037 1.388 . S
C1037 H1024 0.930 . S
C1037 C1036 1.388 . S
C1037 C1038 1.390 . S
C1038 C1037 1.390 . S
C1038 C1039 1.394 . S
C1038 C1044 1.465 . S
C1039 C1034 1.399 . S
C1039 C1038 1.394 . S
C1039 C1040 1.516 . S
C1040 C1039 1.516 . S
C1040 C1041 1.502 . S
C1040 C1042 1.561 . S
C1040 C1043 1.526 . S
C1041 H1025 0.959 . S
C1041 H1026 0.959 . S
C1041 H1027 0.961 . S
C1041 C1040 1.502 . S
C1042 H1028 0.960 . S
C1042 H1029 0.961 . S
C1042 H1030 0.959 . S
C1042 C1040 1.561 . S
C1043 C1040 1.526 . S
C1043 C1044 1.396 . S
C1043 C1048 1.390 . S
C1044 C1038 1.465 . S
C1044 C1043 1.396 . S
C1044 C1045 1.399 . S
C1045 H1031 0.929 . S
C1045 C1044 1.399 . S
C1045 C1046 1.385 . S
C1046 H1032 0.931 . S
C1046 C1045 1.385 . S
C1046 C1047 1.389 . S
C1047 C1046 1.389 . S
C1047 C1048 1.387 . S
C1048 H1033 0.930 . S
C1048 C1043 1.390 . S
C1048 C1047 1.387 . S
H1049 C1061 0.930 . S
H1050 C1063 0.930 . S
H1051 C1064 0.930 . S
H1052 C1068 0.959 . S
H1053 C1068 0.959 . S
H1054 C1068 0.961 . S
H1055 C1069 0.960 . S
H1056 C1069 0.961 . S
H1057 C1069 0.959 . S
H1058 C1072 0.929 . S
H1059 C1073 0.931 . S
H1060 C1075 0.930 . S
C1061 H1049 0.930 . S
C1061 C1062 1.399 . S
C1061 C1066 1.399 . S
C1062 C1061 1.399 . S
C1062 C1063 1.376 . S
C1063 H1050 0.930 . S
C1063 C1062 1.376 . S
C1063 C1064 1.388 . S
C1064 H1051 0.930 . S
C1064 C1063 1.388 . S
C1064 C1065 1.390 . S
C1065 C1064 1.390 . S
C1065 C1066 1.394 . S
C1065 C1071 1.465 . S
C1066 C1061 1.399 . S
C1066 C1065 1.394 . S
C1066 C1067 1.516 . S
C1067 C1066 1.516 . S
C1067 C1068 1.502 . S
C1067 C1069 1.561 1_545 S
C1067 C1070 1.526 . S
C1068 H1052 0.959 . S
C1068 H1053 0.959 . S
C1068 H1054 0.961 . S
C1068 C1067 1.502 . S
C1069 H1055 0.960 . S
C1069 H1056 0.961 . S
C1069 H1057 0.959 . S
C1069 C1067 1.561 1_565 S
C1070 C1067 1.526 . S
C1070 C1071 1.396 . S
C1070 C1075 1.390 . S
C1071 C1065 1.465 . S
C1071 C1070 1.396 . S
C1071 C1072 1.399 . S
C1072 H1058 0.929 . S
C1072 C1071 1.399 . S
C1072 C1073 1.385 . S
C1073 H1059 0.931 . S
C1073 C1072 1.385 . S
C1073 C1074 1.389 . S
C1074 C1073 1.389 . S
C1074 C1075 1.387 . S
C1075 H1060 0.930 . S
C1075 C1070 1.390 . S
C1075 C1074 1.387 . S
H1076 C1088 0.930 . S
H1077 C1090 0.930 . S
H1078 C1091 0.930 . S
H1079 C1095 0.959 . S
H1080 C1095 0.959 . S
H1081 C1095 0.961 . S
H1082 C1096 0.960 . S
H1083 C1096 0.961 . S
H1084 C1096 0.959 . S
H1085 C1099 0.929 . S
H1086 C1100 0.931 . S
H1087 C1102 0.930 . S
C1088 H1076 0.930 . S
C1088 C1089 1.399 . S
C1088 C1093 1.399 . S
C1089 C1088 1.399 . S
C1089 C1090 1.376 . S
C1090 H1077 0.930 . S
C1090 C1089 1.376 . S
C1090 C1091 1.388 . S
C1091 H1078 0.930 . S
C1091 C1090 1.388 . S
C1091 C1092 1.390 . S
C1092 C1091 1.390 . S
C1092 C1093 1.394 . S
C1092 C1098 1.465 . S
C1093 C1088 1.399 . S
C1093 C1092 1.394 . S
C1093 C1094 1.516 . S
C1094 C1093 1.516 . S
C1094 C1095 1.502 . S
C1094 C1096 1.561 . S
C1094 C1097 1.526 . S
C1095 H1079 0.959 . S
C1095 H1080 0.959 . S
C1095 H1081 0.961 . S
C1095 C1094 1.502 . S
C1096 H1082 0.960 . S
C1096 H1083 0.961 . S
C1096 H1084 0.959 . S
C1096 C1094 1.561 . S
C1097 C1094 1.526 . S
C1097 C1098 1.396 . S
C1097 C1102 1.390 . S
C1098 C1092 1.465 . S
C1098 C1097 1.396 . S
C1098 C1099 1.399 . S
C1099 H1085 0.929 . S
C1099 C1098 1.399 . S
C1099 C1100 1.385 . S
C1100 H1086 0.931 . S
C1100 C1099 1.385 . S
C1100 C1101 1.389 . S
C1101 C1100 1.389 . S
C1101 C1102 1.387 . S
C1102 H1087 0.930 . S
C1102 C1097 1.390 . S
C1102 C1101 1.387 . S
H1103 C1115 0.930 . S
H1104 C1117 0.930 . S
H1105 C1118 0.930 . S
H1106 C1122 0.959 . S
H1107 C1122 0.959 . S
H1108 C1122 0.961 . S
H1109 C1123 0.960 . S
H1110 C1123 0.961 . S
H1111 C1123 0.959 . S
H1112 C1126 0.929 . S
H1113 C1127 0.931 . S
H1114 C1129 0.930 . S
C1115 H1103 0.930 . S
C1115 C1116 1.399 . S
C1115 C1120 1.399 . S
C1116 C1115 1.399 . S
C1116 C1117 1.376 . S
C1117 H1104 0.930 . S
C1117 C1116 1.376 . S
C1117 C1118 1.388 . S
C1118 H1105 0.930 . S
C1118 C1117 1.388 . S
C1118 C1119 1.390 . S
C1119 C1118 1.390 . S
C1119 C1120 1.394 . S
C1119 C1125 1.465 . S
C1120 C1115 1.399 . S
C1120 C1119 1.394 . S
C1120 C1121 1.516 . S
C1121 C1120 1.516 . S
C1121 C1122 1.502 . S
C1121 C1123 1.561 . S
C1121 C1124 1.526 . S
C1122 H1106 0.959 . S
C1122 H1107 0.959 . S
C1122 H1108 0.961 . S
C1122 C1121 1.502 . S
C1123 H1109 0.960 . S
C1123 H1110 0.961 . S
C1123 H1111 0.959 . S
C1123 C1121 1.561 . S
C1124 C1121 1.526 . S
C1124 C1125 1.396 . S
C1124 C1129 1.390 . S
C1125 C1119 1.465 . S
C1125 C1124 1.396 . S
C1125 C1126 1.399 . S
C1126 H1112 0.929 . S
C1126 C1125 1.399 . S
C1126 C1127 1.385 . S
C1127 H1113 0.931 . S
C1127 C1126 1.385 . S
C1127 C1128 1.389 . S
C1128 C1127 1.389 . S
C1128 C1129 1.387 . S
C1129 H1114 0.930 . S
C1129 C1124 1.390 . S
C1129 C1128 1.387 . S
H1130 C1142 0.930 . S
H1131 C1144 0.930 1_545 S
H1132 C1145 0.930 . S
H1133 C1149 0.959 . S
H1134 C1149 0.959 . S
H1135 C1149 0.961 . S
H1136 C1150 0.960 . S
H1137 C1150 0.961 . S
H1138 C1150 0.959 . S
H1139 C1153 0.929 . S
H1140 C1154 0.931 . S
H1141 C1156 0.930 . S
C1142 H1130 0.930 . S
C1142 C1143 1.399 . S
C1142 C1147 1.399 . S
C1143 C1142 1.399 . S
C1143 C1144 1.376 . S
C1144 H1131 0.930 1_565 S
C1144 C1143 1.376 . S
C1144 C1145 1.388 . S
C1145 H1132 0.930 . S
C1145 C1144 1.388 . S
C1145 C1146 1.390 . S
C1146 C1145 1.390 . S
C1146 C1147 1.394 . S
C1146 C1152 1.465 . S
C1147 C1142 1.399 . S
C1147 C1146 1.394 . S
C1147 C1148 1.516 . S
C1148 C1147 1.516 . S
C1148 C1149 1.502 . S
C1148 C1150 1.561 . S
C1148 C1151 1.526 . S
C1149 H1133 0.959 . S
C1149 H1134 0.959 . S
C1149 H1135 0.961 . S
C1149 C1148 1.502 . S
C1150 H1136 0.960 . S
C1150 H1137 0.961 . S
C1150 H1138 0.959 . S
C1150 C1148 1.561 . S
C1151 C1148 1.526 . S
C1151 C1152 1.396 . S
C1151 C1156 1.390 . S
C1152 C1146 1.465 . S
C1152 C1151 1.396 . S
C1152 C1153 1.399 . S
C1153 H1139 0.929 . S
C1153 C1152 1.399 . S
C1153 C1154 1.385 . S
C1154 H1140 0.931 . S
C1154 C1153 1.385 . S
C1154 C1155 1.389 . S
C1155 C1154 1.389 . S
C1155 C1156 1.387 . S
C1156 H1141 0.930 . S
C1156 C1151 1.390 . S
C1156 C1155 1.387 . S
H1157 C1169 0.930 . S
H1158 C1171 0.930 . S
H1159 C1172 0.930 1_545 S
H1160 C1176 0.959 . S
H1161 C1176 0.959 . S
H1162 C1176 0.961 . S
H1163 C1177 0.960 . S
H1164 C1177 0.961 . S
H1165 C1177 0.959 . S
H1166 C1180 0.929 . S
H1167 C1181 0.931 . S
H1168 C1183 0.930 . S
C1169 H1157 0.930 . S
C1169 C1170 1.399 . S
C1169 C1174 1.399 . S
C1170 C1169 1.399 . S
C1170 C1171 1.376 1_565 S
C1171 H1158 0.930 . S
C1171 C1170 1.376 1_545 S
C1171 C1172 1.388 1_545 S
C1172 H1159 0.930 1_565 S
C1172 C1171 1.388 1_565 S
C1172 C1173 1.390 . S
C1173 C1172 1.390 . S
C1173 C1174 1.394 . S
C1173 C1179 1.465 . S
C1174 C1169 1.399 . S
C1174 C1173 1.394 . S
C1174 C1175 1.516 . S
C1175 C1174 1.516 . S
C1175 C1176 1.502 . S
C1175 C1177 1.561 . S
C1175 C1178 1.526 . S
C1176 H1160 0.959 . S
C1176 H1161 0.959 . S
C1176 H1162 0.961 . S
C1176 C1175 1.502 . S
C1177 H1163 0.960 . S
C1177 H1164 0.961 . S
C1177 H1165 0.959 . S
C1177 C1175 1.561 . S
C1178 C1175 1.526 . S
C1178 C1179 1.396 . S
C1178 C1183 1.390 . S
C1179 C1173 1.465 . S
C1179 C1178 1.396 . S
C1179 C1180 1.399 . S
C1180 H1166 0.929 . S
C1180 C1179 1.399 . S
C1180 C1181 1.385 . S
C1181 H1167 0.931 . S
C1181 C1180 1.385 . S
C1181 C1182 1.389 . S
C1182 C1181 1.389 . S
C1182 C1183 1.387 . S
C1183 H1168 0.930 . S
C1183 C1178 1.390 . S
C1183 C1182 1.387 . S
H1184 C1196 0.930 . S
H1185 C1198 0.918 1_554 S
H1186 C1199 0.930 . S
H1187 C1203 0.959 . S
H1188 C1203 0.959 . S
H1189 C1203 0.961 . S
H1190 C1204 0.960 . S
H1191 C1204 0.961 . S
H1192 C1204 0.959 . S
H1193 C1207 0.929 . S
H1194 C1208 0.931 . S
H1195 C1210 0.930 . S
C1196 H1184 0.930 . S
C1196 C1197 1.399 . S
C1196 C1201 1.399 . S
C1197 C1196 1.399 . S
C1197 C1198 1.376 . S
C1198 H1185 0.918 1_556 S
C1198 C1197 1.376 . S
C1198 C1199 1.388 . S
C1199 H1186 0.930 . S
C1199 C1198 1.388 . S
C1199 C1200 1.390 . S
C1200 C1199 1.390 . S
C1200 C1201 1.394 . S
C1200 C1206 1.465 . S
C1201 C1196 1.399 . S
C1201 C1200 1.394 . S
C1201 C1202 1.516 . S
C1202 C1201 1.516 . S
C1202 C1203 1.502 . S
C1202 C1204 1.561 . S
C1202 C1205 1.526 . S
C1203 H1187 0.959 . S
C1203 H1188 0.959 . S
C1203 H1189 0.961 . S
C1203 C1202 1.502 . S
C1204 H1190 0.960 . S
C1204 H1191 0.961 . S
C1204 H1192 0.959 . S
C1204 C1202 1.561 . S
C1205 C1202 1.526 . S
C1205 C1206 1.396 . S
C1205 C1210 1.390 . S
C1206 C1200 1.465 . S
C1206 C1205 1.396 . S
C1206 C1207 1.399 . S
C1207 H1193 0.929 . S
C1207 C1206 1.399 . S
C1207 C1208 1.385 . S
C1208 H1194 0.931 . S
C1208 C1207 1.385 . S
C1208 C1209 1.389 . S
C1209 C1208 1.389 . S
C1209 C1210 1.387 . S
C1210 H1195 0.930 . S
C1210 C1205 1.390 . S
C1210 C1209 1.387 . S
H1211 C1223 0.930 . S
H1212 C1225 0.930 . S
H1213 C1226 0.930 . S
H1214 C1230 0.959 . S
H1215 C1230 0.959 . S
H1216 C1230 0.961 . S
H1217 C1231 0.960 . S
H1218 C1231 0.961 . S
H1219 C1231 0.959 . S
H1220 C1234 0.929 . S
H1221 C1235 0.931 . S
H1222 C1237 0.930 . S
C1223 H1211 0.930 . S
C1223 C1224 1.399 . S
C1223 C1228 1.399 . S
C1224 C1223 1.399 . S
C1224 C1225 1.376 . S
C1225 H1212 0.930 . S
C1225 C1224 1.376 . S
C1225 C1226 1.388 . S
C1226 H1213 0.930 . S
C1226 C1225 1.388 . S
C1226 C1227 1.390 . S
C1227 C1226 1.390 . S
C1227 C1228 1.394 . S
C1227 C1233 1.465 . S
C1228 C1223 1.399 . S
C1228 C1227 1.394 . S
C1228 C1229 1.516 . S
C1229 C1228 1.516 . S
C1229 C1230 1.502 . S
C1229 C1231 1.561 . S
C1229 C1232 1.526 . S
C1230 H1214 0.959 . S
C1230 H1215 0.959 . S
C1230 H1216 0.961 . S
C1230 C1229 1.502 . S
C1231 H1217 0.960 . S
C1231 H1218 0.961 . S
C1231 H1219 0.959 . S
C1231 C1229 1.561 . S
C1232 C1229 1.526 . S
C1232 C1233 1.396 . S
C1232 C1237 1.390 . S
C1233 C1227 1.465 . S
C1233 C1232 1.396 . S
C1233 C1234 1.399 . S
C1234 H1220 0.929 . S
C1234 C1233 1.399 . S
C1234 C1235 1.385 . S
C1235 H1221 0.931 . S
C1235 C1234 1.385 . S
C1235 C1236 1.389 . S
C1236 C1235 1.389 . S
C1236 C1237 1.387 . S
C1237 H1222 0.930 . S
C1237 C1232 1.390 . S
C1237 C1236 1.387 . S
H1238 C1250 0.930 . S
H1239 C1252 0.930 . S
H1240 C1253 0.930 . S
H1241 C1257 0.959 . S
H1242 C1257 0.959 . S
H1243 C1257 0.961 . S
H1244 C1258 0.960 . S
H1245 C1258 0.961 . S
H1246 C1258 0.959 . S
H1247 C1261 0.929 . S
H1248 C1262 0.931 . S
H1249 C1264 0.930 . S
C1250 H1238 0.930 . S
C1250 C1251 1.399 . S
C1250 C1255 1.399 . S
C1251 C1250 1.399 . S
C1251 C1252 1.376 . S
C1252 H1239 0.930 . S
C1252 C1251 1.376 . S
C1252 C1253 1.388 . S
C1253 H1240 0.930 . S
C1253 C1252 1.388 . S
C1253 C1254 1.390 . S
C1254 C1253 1.390 . S
C1254 C1255 1.394 . S
C1254 C1260 1.465 . S
C1255 C1250 1.399 . S
C1255 C1254 1.394 . S
C1255 C1256 1.516 . S
C1256 C1255 1.516 . S
C1256 C1257 1.502 . S
C1256 C1258 1.561 . S
C1256 C1259 1.526 . S
C1257 H1241 0.959 . S
C1257 H1242 0.959 . S
C1257 H1243 0.961 . S
C1257 C1256 1.502 . S
C1258 H1244 0.960 . S
C1258 H1245 0.961 . S
C1258 H1246 0.959 . S
C1258 C1256 1.561 . S
C1259 C1256 1.526 . S
C1259 C1260 1.396 . S
C1259 C1264 1.390 . S
C1260 C1254 1.465 . S
C1260 C1259 1.396 . S
C1260 C1261 1.399 . S
C1261 H1247 0.929 . S
C1261 C1260 1.399 . S
C1261 C1262 1.385 . S
C1262 H1248 0.931 . S
C1262 C1261 1.385 . S
C1262 C1263 1.389 . S
C1263 C1262 1.389 . S
C1263 C1264 1.387 . S
C1264 H1249 0.930 . S
C1264 C1259 1.390 . S
C1264 C1263 1.387 . S
H1265 C1277 0.930 . S
H1266 C1279 0.930 . S
H1267 C1280 0.930 . S
H1268 C1284 0.959 . S
H1269 C1284 0.959 . S
H1270 C1284 0.961 . S
H1271 C1285 0.960 . S
H1272 C1285 0.961 . S
H1273 C1285 0.959 . S
H1274 C1288 0.929 . S
H1275 C1289 0.931 . S
H1276 C1291 0.930 . S
C1277 H1265 0.930 . S
C1277 C1278 1.399 . S
C1277 C1282 1.399 . S
C1278 C1277 1.399 . S
C1278 C1279 1.376 . S
C1279 H1266 0.930 . S
C1279 C1278 1.376 . S
C1279 C1280 1.388 . S
C1280 H1267 0.930 . S
C1280 C1279 1.388 . S
C1280 C1281 1.390 . S
C1281 C1280 1.390 . S
C1281 C1282 1.394 . S
C1281 C1287 1.465 . S
C1282 C1277 1.399 . S
C1282 C1281 1.394 . S
C1282 C1283 1.516 . S
C1283 C1282 1.516 . S
C1283 C1284 1.502 . S
C1283 C1285 1.561 . S
C1283 C1286 1.526 . S
C1284 H1268 0.959 . S
C1284 H1269 0.959 . S
C1284 H1270 0.961 . S
C1284 C1283 1.502 . S
C1285 H1271 0.960 . S
C1285 H1272 0.961 . S
C1285 H1273 0.959 . S
C1285 C1283 1.561 . S
C1286 C1283 1.526 . S
C1286 C1287 1.396 . S
C1286 C1291 1.390 . S
C1287 C1281 1.465 . S
C1287 C1286 1.396 . S
C1287 C1288 1.399 . S
C1288 H1274 0.929 . S
C1288 C1287 1.399 . S
C1288 C1289 1.385 . S
C1289 H1275 0.931 . S
C1289 C1288 1.385 . S
C1289 C1290 1.389 . S
C1290 C1289 1.389 . S
C1290 C1291 1.387 . S
C1291 H1276 0.930 . S
C1291 C1286 1.390 . S
C1291 C1290 1.387 . S
H1292 C1304 0.930 . S
H1293 C1306 0.930 . S
H1294 C1307 0.930 . S
H1295 C1311 0.959 . S
H1296 C1311 0.959 . S
H1297 C1311 0.961 . S
H1298 C1312 0.960 . S
H1299 C1312 0.961 . S
H1300 C1312 0.959 . S
H1301 C1315 0.929 . S
H1302 C1316 0.931 . S
H1303 C1318 0.939 . S
C1304 H1292 0.930 . S
C1304 C1305 1.399 . S
C1304 C1309 1.399 . S
C1305 C1304 1.399 . S
C1305 C1306 1.376 . S
C1306 H1293 0.930 . S
C1306 C1305 1.376 . S
C1306 C1307 1.388 . S
C1307 H1294 0.930 . S
C1307 C1306 1.388 . S
C1307 C1308 1.390 . S
C1308 C1307 1.390 . S
C1308 C1309 1.394 . S
C1308 C1314 1.465 . S
C1309 C1304 1.399 . S
C1309 C1308 1.394 . S
C1309 C1310 1.516 . S
C1310 C1309 1.516 . S
C1310 C1311 1.502 . S
C1310 C1312 1.561 . S
C1310 C1313 1.526 . S
C1311 H1295 0.959 . S
C1311 H1296 0.959 . S
C1311 H1297 0.961 . S
C1311 C1310 1.502 . S
C1312 H1298 0.960 . S
C1312 H1299 0.961 . S
C1312 H1300 0.959 . S
C1312 C1310 1.561 . S
C1313 C1310 1.526 . S
C1313 C1314 1.396 . S
C1313 C1318 1.390 . S
C1314 C1308 1.465 . S
C1314 C1313 1.396 . S
C1314 C1315 1.399 . S
C1315 H1301 0.929 . S
C1315 C1314 1.399 . S
C1315 C1316 1.385 . S
C1316 H1302 0.931 . S
C1316 C1315 1.385 . S
C1316 C1317 1.389 . S
C1317 C1316 1.389 . S
C1317 C1318 1.387 . S
C1318 H1303 0.939 . S
C1318 C1313 1.390 . S
C1318 C1317 1.387 . S
H1319 C1331 0.930 . S
H1320 C1333 0.930 . S
H1321 C1334 0.930 . S
H1322 C1338 0.959 . S
H1323 C1338 0.959 . S
H1324 C1338 0.961 . S
H1325 C1339 0.960 . S
H1326 C1339 0.961 . S
H1327 C1339 0.959 . S
H1328 C1342 0.929 . S
H1329 C1343 0.931 . S
H1330 C1345 0.930 . S
C1331 H1319 0.930 . S
C1331 C1332 1.399 . S
C1331 C1336 1.399 . S
C1332 C1331 1.399 . S
C1332 C1333 1.376 . S
C1333 H1320 0.930 . S
C1333 C1332 1.376 . S
C1333 C1334 1.388 . S
C1334 H1321 0.930 . S
C1334 C1333 1.388 . S
C1334 C1335 1.390 . S
C1335 C1334 1.390 . S
C1335 C1336 1.394 . S
C1335 C1341 1.465 . S
C1336 C1331 1.399 . S
C1336 C1335 1.394 . S
C1336 C1337 1.516 . S
C1337 C1336 1.516 . S
C1337 C1338 1.502 . S
C1337 C1339 1.561 . S
C1337 C1340 1.526 . S
C1338 H1322 0.959 . S
C1338 H1323 0.959 . S
C1338 H1324 0.961 . S
C1338 C1337 1.502 . S
C1339 H1325 0.960 . S
C1339 H1326 0.961 . S
C1339 H1327 0.959 . S
C1339 C1337 1.561 . S
C1340 C1337 1.526 . S
C1340 C1341 1.396 . S
C1340 C1345 1.390 . S
C1341 C1335 1.465 . S
C1341 C1340 1.396 . S
C1341 C1342 1.399 . S
C1342 H1328 0.929 . S
C1342 C1341 1.399 . S
C1342 C1343 1.385 . S
C1343 H1329 0.931 . S
C1343 C1342 1.385 . S
C1343 C1344 1.389 . S
C1344 C1343 1.389 . S
C1344 C1345 1.387 . S
C1345 H1330 0.930 . S
C1345 C1340 1.390 . S
C1345 C1344 1.387 . S
H1346 C1358 0.930 . S
H1347 C1360 0.930 . S
H1348 C1361 0.930 . S
H1349 C1365 0.959 . S
H1350 C1365 0.959 . S
H1351 C1365 0.961 . S
H1352 C1366 0.960 . S
H1353 C1366 0.961 . S
H1354 C1366 0.959 . S
H1355 C1369 0.929 . S
H1356 C1370 0.931 . S
H1357 C1372 0.930 . S
C1358 H1346 0.930 . S
C1358 C1359 1.399 . S
C1358 C1363 1.399 . S
C1359 C1358 1.399 . S
C1359 C1360 1.376 . S
C1360 H1347 0.930 . S
C1360 C1359 1.376 . S
C1360 C1361 1.388 . S
C1361 H1348 0.930 . S
C1361 C1360 1.388 . S
C1361 C1362 1.390 . S
C1362 C1361 1.390 . S
C1362 C1363 1.394 . S
C1362 C1368 1.465 . S
C1363 C1358 1.399 . S
C1363 C1362 1.394 . S
C1363 C1364 1.516 . S
C1364 C1363 1.516 . S
C1364 C1365 1.502 . S
C1364 C1366 1.561 . S
C1364 C1367 1.526 . S
C1365 H1349 0.959 . S
C1365 H1350 0.959 . S
C1365 H1351 0.961 . S
C1365 C1364 1.502 . S
C1366 H1352 0.960 . S
C1366 H1353 0.961 . S
C1366 H1354 0.959 . S
C1366 C1364 1.561 . S
C1367 C1364 1.526 . S
C1367 C1368 1.396 . S
C1367 C1372 1.390 . S
C1368 C1362 1.465 . S
C1368 C1367 1.396 . S
C1368 C1369 1.399 . S
C1369 H1355 0.929 . S
C1369 C1368 1.399 . S
C1369 C1370 1.385 . S
C1370 H1356 0.931 . S
C1370 C1369 1.385 . S
C1370 C1371 1.389 . S
C1371 C1370 1.389 . S
C1371 C1372 1.387 . S
C1372 H1357 0.930 . S
C1372 C1367 1.390 . S
C1372 C1371 1.387 . S
H1373 C1385 0.930 . S
H1374 C1387 0.930 . S
H1375 C1388 0.930 . S
H1376 C1392 0.959 . S
H1377 C1392 0.959 . S
H1378 C1392 0.961 . S
H1379 C1393 0.960 . S
H1380 C1393 0.961 . S
H1381 C1393 0.959 . S
H1382 C1396 0.929 . S
H1383 C1397 0.931 . S
H1384 C1399 0.930 . S
C1385 H1373 0.930 . S
C1385 C1386 1.399 . S
C1385 C1390 1.399 . S
C1386 C1385 1.399 . S
C1386 C1387 1.376 . S
C1387 H1374 0.930 . S
C1387 C1386 1.376 . S
C1387 C1388 1.388 . S
C1388 H1375 0.930 . S
C1388 C1387 1.388 . S
C1388 C1389 1.390 . S
C1389 C1388 1.390 . S
C1389 C1390 1.394 . S
C1389 C1395 1.465 . S
C1390 C1385 1.399 . S
C1390 C1389 1.394 . S
C1390 C1391 1.516 . S
C1391 C1390 1.516 . S
C1391 C1392 1.502 . S
C1391 C1393 1.561 . S
C1391 C1394 1.526 . S
C1392 H1376 0.959 . S
C1392 H1377 0.959 . S
C1392 H1378 0.961 . S
C1392 C1391 1.502 . S
C1393 H1379 0.960 . S
C1393 H1380 0.961 . S
C1393 H1381 0.959 . S
C1393 C1391 1.561 . S
C1394 C1391 1.526 . S
C1394 C1395 1.396 . S
C1394 C1399 1.390 . S
C1395 C1389 1.465 . S
C1395 C1394 1.396 . S
C1395 C1396 1.399 . S
C1396 H1382 0.929 . S
C1396 C1395 1.399 . S
C1396 C1397 1.385 . S
C1397 H1383 0.931 . S
C1397 C1396 1.385 . S
C1397 C1398 1.389 . S
C1398 C1397 1.389 . S
C1398 C1399 1.387 . S
C1399 H1384 0.930 . S
C1399 C1394 1.390 . S
C1399 C1398 1.387 . S
H1400 C1412 0.930 . S
H1401 C1414 0.930 . S
H1402 C1415 0.930 . S
H1403 C1419 0.959 . S
H1404 C1419 0.959 . S
H1405 C1419 0.961 . S
H1406 C1420 0.960 . S
H1407 C1420 0.961 . S
H1408 C1420 0.959 . S
H1409 C1423 0.929 . S
H1410 C1424 0.931 . S
H1411 C1426 0.930 . S
C1412 H1400 0.930 . S
C1412 C1413 1.399 . S
C1412 C1417 1.399 . S
C1413 C1412 1.399 . S
C1413 C1414 1.376 . S
C1414 H1401 0.930 . S
C1414 C1413 1.376 . S
C1414 C1415 1.388 . S
C1415 H1402 0.930 . S
C1415 C1414 1.388 . S
C1415 C1416 1.390 . S
C1416 C1415 1.390 . S
C1416 C1417 1.394 . S
C1416 C1422 1.465 . S
C1417 C1412 1.399 . S
C1417 C1416 1.394 . S
C1417 C1418 1.516 . S
C1418 C1417 1.516 . S
C1418 C1419 1.502 . S
C1418 C1420 1.561 . S
C1418 C1421 1.526 . S
C1419 H1403 0.959 . S
C1419 H1404 0.959 . S
C1419 H1405 0.961 . S
C1419 C1418 1.502 . S
C1420 H1406 0.960 . S
C1420 H1407 0.961 . S
C1420 H1408 0.959 . S
C1420 C1418 1.561 . S
C1421 C1418 1.526 . S
C1421 C1422 1.396 . S
C1421 C1426 1.390 . S
C1422 C1416 1.465 . S
C1422 C1421 1.396 . S
C1422 C1423 1.399 . S
C1423 H1409 0.929 . S
C1423 C1422 1.399 . S
C1423 C1424 1.385 . S
C1424 H1410 0.931 . S
C1424 C1423 1.385 . S
C1424 C1425 1.389 . S
C1425 C1424 1.389 . S
C1425 C1426 1.387 . S
C1426 H1411 0.930 . S
C1426 C1421 1.390 . S
C1426 C1425 1.387 . S
H1427 C1439 0.930 . S
H1428 C1441 0.930 . S
H1429 C1442 0.930 . S
H1430 C1446 0.959 . S
H1431 C1446 0.959 . S
H1432 C1446 0.961 . S
H1433 C1447 0.960 . S
H1434 C1447 0.961 . S
H1435 C1447 0.959 . S
H1436 C1450 0.929 . S
H1437 C1451 0.931 . S
H1438 C1453 0.930 1_545 S
C1439 H1427 0.930 . S
C1439 C1440 1.399 . S
C1439 C1444 1.399 . S
C1440 C1439 1.399 . S
C1440 C1441 1.376 . S
C1441 H1428 0.930 . S
C1441 C1440 1.376 . S
C1441 C1442 1.388 . S
C1442 H1429 0.930 . S
C1442 C1441 1.388 . S
C1442 C1443 1.390 . S
C1443 C1442 1.390 . S
C1443 C1444 1.394 . S
C1443 C1449 1.465 . S
C1444 C1439 1.399 . S
C1444 C1443 1.394 . S
C1444 C1445 1.516 . S
C1445 C1444 1.516 . S
C1445 C1446 1.502 . S
C1445 C1447 1.561 1_565 S
C1445 C1448 1.526 . S
C1446 H1430 0.959 . S
C1446 H1431 0.959 . S
C1446 H1432 0.961 . S
C1446 C1445 1.502 . S
C1447 H1433 0.960 . S
C1447 H1434 0.961 . S
C1447 H1435 0.959 . S
C1447 C1445 1.561 1_545 S
C1448 C1445 1.526 . S
C1448 C1449 1.396 . S
C1448 C1453 1.390 . S
C1449 C1443 1.465 . S
C1449 C1448 1.396 . S
C1449 C1450 1.399 . S
C1450 H1436 0.929 . S
C1450 C1449 1.399 . S
C1450 C1451 1.385 . S
C1451 H1437 0.931 . S
C1451 C1450 1.385 . S
C1451 C1452 1.389 1_565 S
C1452 C1451 1.389 1_545 S
C1452 C1453 1.387 1_545 S
C1453 H1438 0.930 1_565 S
C1453 C1448 1.390 . S
C1453 C1452 1.387 1_565 S
H1454 C1466 0.930 . S
H1455 C1468 0.930 . S
H1456 C1469 0.930 . S
H1457 C1473 0.959 . S
H1458 C1473 0.959 . S
H1459 C1473 0.961 . S
H1460 C1474 0.960 . S
H1461 C1474 0.961 . S
H1462 C1474 0.959 . S
H1463 C1477 0.929 . S
H1464 C1478 0.931 . S
H1465 C1480 0.930 . S
C1466 H1454 0.930 . S
C1466 C1467 1.399 . S
C1466 C1471 1.399 . S
C1467 C1466 1.399 . S
C1467 C1468 1.376 . S
C1468 H1455 0.930 . S
C1468 C1467 1.376 . S
C1468 C1469 1.388 . S
C1469 H1456 0.930 . S
C1469 C1468 1.388 . S
C1469 C1470 1.390 . S
C1470 C1469 1.390 . S
C1470 C1471 1.394 . S
C1470 C1476 1.465 . S
C1471 C1466 1.399 . S
C1471 C1470 1.394 . S
C1471 C1472 1.516 . S
C1472 C1471 1.516 . S
C1472 C1473 1.502 . S
C1472 C1474 1.561 . S
C1472 C1475 1.526 . S
C1473 H1457 0.959 . S
C1473 H1458 0.959 . S
C1473 H1459 0.961 . S
C1473 C1472 1.502 . S
C1474 H1460 0.960 . S
C1474 H1461 0.961 . S
C1474 H1462 0.959 . S
C1474 C1472 1.561 . S
C1475 C1472 1.526 . S
C1475 C1476 1.396 . S
C1475 C1480 1.390 . S
C1476 C1470 1.465 . S
C1476 C1475 1.396 . S
C1476 C1477 1.399 . S
C1477 H1463 0.929 . S
C1477 C1476 1.399 . S
C1477 C1478 1.385 1_556 S
C1478 H1464 0.931 . S
C1478 C1477 1.385 1_554 S
C1478 C1479 1.389 1_554 S
C1479 C1478 1.389 1_556 S
C1479 C1480 1.387 . S
C1480 H1465 0.930 . S
C1480 C1475 1.390 . S
C1480 C1479 1.387 . S
H1481 C1493 0.930 1_565 S
H1482 C1495 0.935 . S
H1483 C1496 0.930 . S
H1484 C1500 0.959 . S
H1485 C1500 0.959 . S
H1486 C1500 0.961 . S
H1487 C1501 0.960 1_565 S
H1488 C1501 0.961 . S
H1489 C1501 0.959 1_565 S
H1490 C1504 0.929 . S
H1491 C1505 0.931 . S
H1492 C1507 0.930 . S
C1493 H1481 0.930 1_545 S
C1493 C1494 1.399 1_545 S
C1493 C1498 1.399 . S
C1494 C1493 1.399 1_565 S
C1494 C1495 1.376 1_565 S
C1495 H1482 0.935 . S
C1495 C1494 1.376 1_545 S
C1495 C1496 1.388 . S
C1496 H1483 0.930 . S
C1496 C1495 1.388 . S
C1496 C1497 1.390 . S
C1497 C1496 1.390 . S
C1497 C1498 1.394 . S
C1497 C1503 1.465 . S
C1498 C1493 1.399 . S
C1498 C1497 1.394 . S
C1498 C1499 1.516 . S
C1499 C1498 1.516 . S
C1499 C1500 1.502 . S
C1499 C1501 1.561 . S
C1499 C1502 1.526 . S
C1500 H1484 0.959 . S
C1500 H1485 0.959 . S
C1500 H1486 0.961 . S
C1500 C1499 1.502 . S
C1501 H1487 0.960 1_545 S
C1501 H1488 0.961 . S
C1501 H1489 0.959 1_545 S
C1501 C1499 1.561 . S
C1502 C1499 1.526 . S
C1502 C1503 1.396 . S
C1502 C1507 1.390 . S
C1503 C1497 1.465 . S
C1503 C1502 1.396 . S
C1503 C1504 1.399 . S
C1504 H1490 0.929 . S
C1504 C1503 1.399 . S
C1504 C1505 1.385 . S
C1505 H1491 0.931 . S
C1505 C1504 1.385 . S
C1505 C1506 1.389 . S
C1506 C1505 1.389 . S
C1506 C1507 1.387 . S
C1507 H1492 0.930 . S
C1507 C1502 1.390 . S
C1507 C1506 1.387 . S
H1508 C1520 0.930 . S
H1509 C1522 0.930 . S
H1510 C1523 0.930 . S
H1511 C1527 0.959 . S
H1512 C1527 0.959 . S
H1513 C1527 0.961 . S
H1514 C1528 0.960 . S
H1515 C1528 0.961 . S
H1516 C1528 0.959 . S
H1517 C1531 0.929 . S
H1518 C1532 0.931 . S
H1519 C1534 0.930 . S
C1520 H1508 0.930 . S
C1520 C1521 1.399 . S
C1520 C1525 1.399 . S
C1521 C1520 1.399 . S
C1521 C1522 1.376 . S
C1522 H1509 0.930 . S
C1522 C1521 1.376 . S
C1522 C1523 1.388 . S
C1523 H1510 0.930 . S
C1523 C1522 1.388 . S
C1523 C1524 1.390 . S
C1524 C1523 1.390 . S
C1524 C1525 1.394 . S
C1524 C1530 1.465 . S
C1525 C1520 1.399 . S
C1525 C1524 1.394 . S
C1525 C1526 1.516 . S
C1526 C1525 1.516 . S
C1526 C1527 1.502 . S
C1526 C1528 1.561 . S
C1526 C1529 1.526 . S
C1527 H1511 0.959 . S
C1527 H1512 0.959 . S
C1527 H1513 0.961 . S
C1527 C1526 1.502 . S
C1528 H1514 0.960 . S
C1528 H1515 0.961 . S
C1528 H1516 0.959 . S
C1528 C1526 1.561 . S
C1529 C1526 1.526 . S
C1529 C1530 1.396 . S
C1529 C1534 1.390 . S
C1530 C1524 1.465 . S
C1530 C1529 1.396 . S
C1530 C1531 1.399 . S
C1531 H1517 0.929 . S
C1531 C1530 1.399 . S
C1531 C1532 1.385 . S
C1532 H1518 0.931 . S
C1532 C1531 1.385 . S
C1532 C1533 1.389 . S
C1533 C1532 1.389 . S
C1533 C1534 1.387 . S
C1534 H1519 0.930 . S
C1534 C1529 1.390 . S
C1534 C1533 1.387 . S
H1535 C1547 0.930 . S
H1536 C1549 0.930 . S
H1537 C1550 0.930 . S
H1538 C1554 0.959 . S
H1539 C1554 0.959 . S
H1540 C1554 0.961 . S
H1541 C1555 0.960 . S
H1542 C1555 0.961 . S
H1543 C1555 0.959 1_545 S
H1544 C1558 0.929 . S
H1545 C1559 0.931 . S
H1546 C1561 0.930 . S
C1547 H1535 0.930 . S
C1547 C1548 1.399 . S
C1547 C1552 1.399 . S
C1548 C1547 1.399 . S
C1548 C1549 1.376 . S
C1549 H1536 0.930 . S
C1549 C1548 1.376 . S
C1549 C1550 1.388 . S
C1550 H1537 0.930 . S
C1550 C1549 1.388 . S
C1550 C1551 1.390 . S
C1551 C1550 1.390 . S
C1551 C1552 1.394 . S
C1551 C1557 1.465 . S
C1552 C1547 1.399 . S
C1552 C1551 1.394 . S
C1552 C1553 1.516 . S
C1553 C1552 1.516 . S
C1553 C1554 1.502 1_545 S
C1553 C1555 1.561 1_545 S
C1553 C1556 1.526 . S
C1554 H1538 0.959 . S
C1554 H1539 0.959 . S
C1554 H1540 0.961 . S
C1554 C1553 1.502 1_565 S
C1555 H1541 0.960 . S
C1555 H1542 0.961 . S
C1555 H1543 0.959 1_565 S
C1555 C1553 1.561 1_565 S
C1556 C1553 1.526 . S
C1556 C1557 1.396 . S
C1556 C1561 1.390 1_545 S
C1557 C1551 1.465 . S
C1557 C1556 1.396 . S
C1557 C1558 1.399 . S
C1558 H1544 0.929 . S
C1558 C1557 1.399 . S
C1558 C1559 1.385 . S
C1559 H1545 0.931 . S
C1559 C1558 1.385 . S
C1559 C1560 1.389 . S
C1560 C1559 1.389 . S
C1560 C1561 1.387 1_545 S
C1561 H1546 0.930 . S
C1561 C1556 1.390 1_565 S
C1561 C1560 1.387 1_565 S
H1562 C1574 0.930 . S
H1563 C1576 0.930 . S
H1564 C1577 0.930 . S
H1565 C1581 0.959 . S
H1566 C1581 0.959 . S
H1567 C1581 0.961 . S
H1568 C1582 0.960 . S
H1569 C1582 0.961 . S
H1570 C1582 0.959 . S
H1571 C1585 0.929 . S
H1572 C1586 0.931 . S
H1573 C1588 0.935 . S
C1574 H1562 0.930 . S
C1574 C1575 1.399 . S
C1574 C1579 1.399 . S
C1575 C1574 1.399 . S
C1575 C1576 1.376 . S
C1576 H1563 0.930 . S
C1576 C1575 1.376 . S
C1576 C1577 1.388 . S
C1577 H1564 0.930 . S
C1577 C1576 1.388 . S
C1577 C1578 1.390 . S
C1578 C1577 1.390 . S
C1578 C1579 1.394 . S
C1578 C1584 1.465 . S
C1579 C1574 1.399 . S
C1579 C1578 1.394 . S
C1579 C1580 1.516 . S
C1580 C1579 1.516 . S
C1580 C1581 1.502 . S
C1580 C1582 1.561 . S
C1580 C1583 1.526 . S
C1581 H1565 0.959 . S
C1581 H1566 0.959 . S
C1581 H1567 0.961 . S
C1581 C1580 1.502 . S
C1582 H1568 0.960 . S
C1582 H1569 0.961 . S
C1582 H1570 0.959 . S
C1582 C1580 1.561 . S
C1583 C1580 1.526 . S
C1583 C1584 1.396 . S
C1583 C1588 1.390 . S
C1584 C1578 1.465 . S
C1584 C1583 1.396 . S
C1584 C1585 1.399 . S
C1585 H1571 0.929 . S
C1585 C1584 1.399 . S
C1585 C1586 1.385 . S
C1586 H1572 0.931 . S
C1586 C1585 1.385 . S
C1586 C1587 1.389 . S
C1587 C1586 1.389 . S
C1587 C1588 1.387 . S
C1588 H1573 0.935 . S
C1588 C1583 1.390 . S
C1588 C1587 1.387 . S
H1589 C1601 0.930 . S
H1590 C1603 0.930 . S
H1591 C1604 0.930 . S
H1592 C1608 0.959 . S
H1593 C1608 0.959 . S
H1594 C1608 0.961 . S
H1595 C1609 0.960 . S
H1596 C1609 0.961 . S
H1597 C1609 0.959 . S
H1598 C1612 0.929 . S
H1599 C1613 0.931 . S
H1600 C1615 0.930 . S
C1601 H1589 0.930 . S
C1601 C1602 1.399 . S
C1601 C1606 1.399 . S
C1602 C1601 1.399 . S
C1602 C1603 1.376 . S
C1603 H1590 0.930 . S
C1603 C1602 1.376 . S
C1603 C1604 1.388 . S
C1604 H1591 0.930 . S
C1604 C1603 1.388 . S
C1604 C1605 1.390 . S
C1605 C1604 1.390 . S
C1605 C1606 1.394 . S
C1605 C1611 1.465 . S
C1606 C1601 1.399 . S
C1606 C1605 1.394 . S
C1606 C1607 1.516 . S
C1607 C1606 1.516 . S
C1607 C1608 1.502 . S
C1607 C1609 1.561 . S
C1607 C1610 1.526 . S
C1608 H1592 0.959 . S
C1608 H1593 0.959 . S
C1608 H1594 0.961 . S
C1608 C1607 1.502 . S
C1609 H1595 0.960 . S
C1609 H1596 0.961 . S
C1609 H1597 0.959 . S
C1609 C1607 1.561 . S
C1610 C1607 1.526 . S
C1610 C1611 1.396 . S
C1610 C1615 1.390 . S
C1611 C1605 1.465 . S
C1611 C1610 1.396 . S
C1611 C1612 1.399 1_565 S
C1612 H1598 0.929 . S
C1612 C1611 1.399 1_545 S
C1612 C1613 1.385 . S
C1613 H1599 0.931 . S
C1613 C1612 1.385 . S
C1613 C1614 1.389 . S
C1614 C1613 1.389 . S
C1614 C1615 1.387 1_545 S
C1615 H1600 0.930 . S
C1615 C1610 1.390 . S
C1615 C1614 1.387 1_565 S
C333 C18 1.107 . S
C345 C218 1.082 . S
C360 C38 1.098 . S
C372 C238 1.078 . S
C387 C58 1.099 . S
C399 C178 1.079 . S
C414 C198 1.094 . S
C426 C78 1.076 . S
C441 C99 1.168 . S
C453 C299 1.166 . S
C468 C319 1.076 . S
C480 C119 1.078 . S
C495 C259 1.094 . S
C507 C139 1.098 . S
C522 C159 1.083 . S
C534 C279 1.082 . S
C549 C9 1.486 . S
C561 C92 1.504 . S
C576 C29 1.468 . S
C588 C272 1.519 . S
C603 C49 1.481 . S
C615 C132 1.474 . S
C630 C69 1.535 . S
C642 C312 1.449 . S
C657 C112 1.430 . S
C669 C189 1.540 . S
C684 C229 1.456 . S
C696 C152 1.501 . S
C711 C252 1.527 . S
C723 C169 1.436 . S
C738 C209 1.520 . S
C750 C292 1.441 . S
C765 C12 1.148 . S
C777 C158 1.109 . S
C792 C32 1.107 . S
C804 C258 1.128 . S
C819 C52 1.109 . S
C831 C118 1.148 . S
C846 C72 1.139 1_455 S
C858 C298 1.148 . S
C873 C79 1.105 . S
C885 C89 1.117 . S
C900 C109 1.118 . S
C912 C179 1.105 . S
C927 C129 1.105 . S
C939 C39 1.124 . S
C954 C219 1.147 . S
C966 C149 1.150 1_655 S
C981 C172 1.130 . S
C993 C318 1.153 1_565 S
C1008 C98 1.153 . S
C1020 C192 1.116 1_655 S
C1035 C278 1.146 1_545 S
C1047 C212 1.108 . S
C1062 C138 1.111 . S
C1074 C232 1.119 . S
C1089 C249 1.153 . S
C1101 C239 1.141 1_545 S
C1116 C269 1.152 1_455 S
C1128 C19 1.144 . S
C1143 C199 1.147 1_565 S
C1155 C289 1.118 . S
C1170 C309 1.108 . S
C1182 C59 1.134 . S
C1197 C2 1.943 1_556 S
C1209 C184 2.119 . S
C1224 C204 2.127 . S
C1236 C22 1.965 . S
C1251 C42 1.963 . S
C1263 C224 2.126 . S
C1278 C164 2.122 . S
C1290 C62 1.952 . S
C1305 C262 2.134 . S
C1317 C84 1.960 1_554 S
C1332 C282 2.115 . S
C1344 C104 1.936 . S
C1359 C302 2.131 . S
C1371 C124 2.013 . S
C1386 C242 2.113 . S
C1398 C144 1.958 . S
C1413 C24 2.138 . S
C1425 C162 2.001 . S
C1440 C44 2.140 . S
C1452 C182 2.016 . S
C1467 C64 2.114 . S
C1479 C202 1.945 1_556 S
C1494 C222 1.935 . S
C1506 C4 2.114 . S
C1521 C102 2.134 . S
C1533 C244 2.017 . S
C1548 C122 2.116 . S
C1560 C264 1.979 1_545 S
C1575 C142 2.134 . S
C1587 C284 1.961 1_554 S
C1602 C82 2.138 . S
C1614 C304 1.976 . S
