# Generated by pormake.
# Topology umo, (4)-cn, num edge types: 1
# Building blocks:
#     Node 0, Type 0, BuildingBlock: NAWXER_clean_sbu_0, # of connection points: 4
#     Node 1, Type 0, BuildingBlock: NAWXER_clean_sbu_0, # of connection points: 4
#     Node 2, Type 0, BuildingBlock: NAWXER_clean_sbu_0, # of connection points: 4
#     Node 3, Type 0, BuildingBlock: NAWXER_clean_sbu_0, # of connection points: 4
#     Node 4, Type 0, BuildingBlock: NAWXER_clean_sbu_0, # of connection points: 4
#     Node 5, Type 0, BuildingBlock: NAWXER_clean_sbu_0, # of connection points: 4
#     Node 6, Type 0, BuildingBlock: NAWXER_clean_sbu_0, # of connection points: 4
#     Node 7, Type 0, BuildingBlock: NAWXER_clean_sbu_0, # of connection points: 4
#     Node 8, Type 0, BuildingBlock: NAWXER_clean_sbu_0, # of connection points: 4
#     Node 9, Type 0, BuildingBlock: NAWXER_clean_sbu_0, # of connection points: 4
#     Node 10, Type 0, BuildingBlock: NAWXER_clean_sbu_0, # of connection points: 4
#     Node 11, Type 0, BuildingBlock: NAWXER_clean_sbu_0, # of connection points: 4
#     Edge 12, Type (0, 0), BuildingBlock: XIVTED_clean_linker_0, # of connection points: 2
#     Edge 13, Type (0, 0), BuildingBlock: XIVTED_clean_linker_0, # of connection points: 2
#     Edge 14, Type (0, 0), BuildingBlock: XIVTED_clean_linker_0, # of connection points: 2
#     Edge 15, Type (0, 0), BuildingBlock: XIVTED_clean_linker_0, # of connection points: 2
#     Edge 16, Type (0, 0), BuildingBlock: XIVTED_clean_linker_0, # of connection points: 2
#     Edge 17, Type (0, 0), BuildingBlock: XIVTED_clean_linker_0, # of connection points: 2
#     Edge 18, Type (0, 0), BuildingBlock: XIVTED_clean_linker_0, # of connection points: 2
#     Edge 19, Type (0, 0), BuildingBlock: XIVTED_clean_linker_0, # of connection points: 2
#     Edge 20, Type (0, 0), BuildingBlock: XIVTED_clean_linker_0, # of connection points: 2
#     Edge 21, Type (0, 0), BuildingBlock: XIVTED_clean_linker_0, # of connection points: 2
#     Edge 22, Type (0, 0), BuildingBlock: XIVTED_clean_linker_0, # of connection points: 2
#     Edge 23, Type (0, 0), BuildingBlock: XIVTED_clean_linker_0, # of connection points: 2
#     Edge 24, Type (0, 0), BuildingBlock: XIVTED_clean_linker_0, # of connection points: 2
#     Edge 25, Type (0, 0), BuildingBlock: XIVTED_clean_linker_0, # of connection points: 2
#     Edge 26, Type (0, 0), BuildingBlock: XIVTED_clean_linker_0, # of connection points: 2
#     Edge 27, Type (0, 0), BuildingBlock: XIVTED_clean_linker_0, # of connection points: 2
#     Edge 28, Type (0, 0), BuildingBlock: XIVTED_clean_linker_0, # of connection points: 2
#     Edge 29, Type (0, 0), BuildingBlock: XIVTED_clean_linker_0, # of connection points: 2
#     Edge 30, Type (0, 0), BuildingBlock: XIVTED_clean_linker_0, # of connection points: 2
#     Edge 31, Type (0, 0), BuildingBlock: XIVTED_clean_linker_0, # of connection points: 2
#     Edge 32, Type (0, 0), BuildingBlock: XIVTED_clean_linker_0, # of connection points: 2
#     Edge 33, Type (0, 0), BuildingBlock: XIVTED_clean_linker_0, # of connection points: 2
#     Edge 34, Type (0, 0), BuildingBlock: XIVTED_clean_linker_0, # of connection points: 2
#     Edge 35, Type (0, 0), BuildingBlock: XIVTED_clean_linker_0, # of connection points: 2
# Relax obj value: 0.169
# Max RMSD: 0.217
# Mean RMSD: 0.217
data_MOF--net-umo--node1-NAWXER_clean_sbu_0--edge1-XIVTED_clean_linker_0
_symmetry_space_group_name_H-M    P1
_symmetry_Int_Tables_number       1
_symmetry_cell_setting            triclinic
loop_
_symmetry_equiv_pos_as_xyz
'x, y, z'
_cell_length_a     49.89841
_cell_length_b     49.844446
_cell_length_c     37.127387
_cell_angle_alpha  89.989846
_cell_angle_beta   90.007097
_cell_angle_gamma 120.0695
loop_
_atom_site_label
_atom_site_type_symbol
_atom_site_fract_x
_atom_site_fract_y
_atom_site_fract_z
_atom_type_partial_charge
C0 C 0.20239 0.58232 0.40052 0.0
C1 C 0.09518 0.50795 0.37923 0.0
O2 O 0.19525 0.55616 0.41496 0.0
Zn3 Zn 0.15395 0.51071 0.41851 0.0
O4 O 0.18226 0.58515 0.38271 0.0
Zn5 Zn 0.14917 0.54429 0.3898 0.0
O6 O 0.14172 0.54404 0.44687 0.0
O7 O 0.14718 0.50646 0.47032 0.0
O8 O 0.1111 0.5361 0.36984 0.0
O9 O 0.10796 0.49529 0.39715 0.0
O10 O 0.16693 0.48468 0.39415 0.0
O11 O 0.16267 0.51724 0.35764 0.0
C12 C 0.14182 0.52866 0.4745 0.0
C13 C 0.16887 0.49548 0.36264 0.0
C14 C 0.58537 0.1055 0.54777 0.0
C15 C 0.61468 0.2114 0.57283 0.0
O16 O 0.61025 0.1185 0.56674 0.0
Zn17 Zn 0.63908 0.16401 0.59011 0.0
O18 O 0.57252 0.12086 0.53859 0.0
Zn19 Zn 0.60098 0.1589 0.56021 0.0
O20 O 0.64236 0.17424 0.52938 0.0
O21 O 0.67915 0.17958 0.56656 0.0
O22 O 0.59296 0.19196 0.55289 0.0
O23 O 0.63315 0.20409 0.58824 0.0
O24 O 0.63527 0.15575 0.64161 0.0
O25 O 0.59245 0.15001 0.61717 0.0
C26 C 0.67057 0.18162 0.53493 0.0
C27 C 0.60746 0.14982 0.64513 0.0
C28 C 0.48743 0.68246 0.71009 0.0
C29 C 0.45325 0.6141 0.8157 0.0
O30 O 0.46804 0.65416 0.70239 0.0
Zn31 Zn 0.44279 0.61078 0.72984 0.0
O32 O 0.49626 0.68992 0.7425 0.0
Zn33 Zn 0.47211 0.64854 0.76307 0.0
O34 O 0.49292 0.62316 0.74073 0.0
O35 O 0.45687 0.5863 0.70677 0.0
O36 O 0.47354 0.64276 0.81462 0.0
O37 O 0.44071 0.59982 0.78627 0.0
O38 O 0.40096 0.59946 0.72064 0.0
O39 O 0.4254 0.63994 0.75672 0.0
C40 C 0.48419 0.60009 0.71921 0.0
C41 C 0.40078 0.62038 0.73995 0.0
C42 C 0.76205 0.40646 0.90318 0.0
C43 C 0.87004 0.47663 0.87786 0.0
O44 O 0.77153 0.43293 0.91808 0.0
Zn45 Zn 0.81387 0.47728 0.91937 0.0
O46 O 0.78021 0.40198 0.88342 0.0
Zn47 Zn 0.81565 0.44199 0.89002 0.0
O48 O 0.82429 0.4423 0.947 0.0
O49 O 0.82219 0.4817 0.97089 0.0
O50 O 0.85298 0.44853 0.8687 0.0
O51 O 0.85856 0.49019 0.89645 0.0
O52 O 0.80178 0.50427 0.89492 0.0
O53 O 0.80337 0.47016 0.85862 0.0
C54 C 0.82594 0.45841 0.97474 0.0
C55 C 0.79855 0.49283 0.86354 0.0
C56 C 0.39236 0.87741 0.04948 0.0
C57 C 0.3638 0.77145 0.07332 0.0
O58 O 0.36703 0.86391 0.0676 0.0
Zn59 Zn 0.33805 0.81796 0.08979 0.0
O60 O 0.40551 0.86234 0.04033 0.0
Zn61 Zn 0.37692 0.82386 0.06113 0.0
O62 O 0.33554 0.80738 0.02925 0.0
O63 O 0.29851 0.80256 0.06577 0.0
O64 O 0.38658 0.79181 0.05536 0.0
O65 O 0.34412 0.7779 0.08713 0.0
O66 O 0.34053 0.82522 0.14148 0.0
O67 O 0.38412 0.83214 0.11812 0.0
C68 C 0.30722 0.79991 0.03446 0.0
C69 C 0.36841 0.8316 0.1457 0.0
C70 C 0.47669 0.29103 0.20882 0.0
C71 C 0.51108 0.35995 0.31439 0.0
O72 O 0.49622 0.31927 0.20122 0.0
Zn73 Zn 0.52199 0.36248 0.22836 0.0
O74 O 0.46785 0.28357 0.24124 0.0
Zn75 Zn 0.49197 0.32517 0.262 0.0
O76 O 0.47199 0.35086 0.23865 0.0
O77 O 0.50851 0.38733 0.20475 0.0
O78 O 0.49015 0.33149 0.31334 0.0
O79 O 0.52413 0.37392 0.28494 0.0
O80 O 0.56344 0.37212 0.21876 0.0
O81 O 0.53861 0.33361 0.2574 0.0
C82 C 0.48107 0.37382 0.21689 0.0
C83 C 0.56326 0.35204 0.23994 0.0
C84 C 0.48564 0.80564 0.50383 0.0
C85 C 0.45294 0.8325 0.39142 0.0
O86 O 0.46419 0.81229 0.50867 0.0
Zn87 Zn 0.43763 0.82613 0.47622 0.0
O88 O 0.49634 0.80726 0.47235 0.0
Zn89 Zn 0.47073 0.82061 0.44767 0.0
O90 O 0.48675 0.86706 0.46821 0.0
O91 O 0.44627 0.8645 0.4956 0.0
O92 O 0.47493 0.82685 0.39577 0.0
O93 O 0.43779 0.83309 0.419 0.0
O94 O 0.39665 0.79357 0.48362 0.0
O95 O 0.42493 0.77969 0.4514 0.0
C96 C 0.47432 0.8802 0.48589 0.0
C97 C 0.39896 0.77308 0.46588 0.0
C98 C 0.60917 0.45983 0.55013 0.0
C99 C 0.67668 0.49559 0.65693 0.0
O100 O 0.59507 0.44662 0.57944 0.0
Zn101 Zn 0.60586 0.44889 0.63618 0.0
O102 O 0.63745 0.48116 0.55147 0.0
Zn103 Zn 0.64336 0.47956 0.60301 0.0
O104 O 0.63597 0.43334 0.60797 0.0
O105 O 0.59715 0.40765 0.64596 0.0
O106 O 0.68455 0.50445 0.62459 0.0
O107 O 0.64849 0.47558 0.664 0.0
O108 O 0.58007 0.46164 0.65899 0.0
O109 O 0.61662 0.49862 0.62559 0.0
C110 C 0.61778 0.40846 0.62523 0.0
C111 C 0.59332 0.48911 0.64686 0.0
C112 C 0.17425 0.66931 0.83426 0.0
C113 C 0.14209 0.60858 0.72269 0.0
O114 O 0.16618 0.64079 0.83936 0.0
Zn115 Zn 0.14906 0.59943 0.8073 0.0
O116 O 0.17191 0.6783 0.80299 0.0
Zn117 Zn 0.15593 0.63873 0.77875 0.0
O118 O 0.10969 0.61025 0.80039 0.0
O119 O 0.11034 0.57131 0.8278 0.0
O120 O 0.14908 0.63666 0.72699 0.0
O121 O 0.14101 0.59256 0.75024 0.0
O122 O 0.18039 0.58882 0.81326 0.0
O123 O 0.19534 0.63163 0.78167 0.0
C124 C 0.09572 0.58486 0.8184 0.0
C125 C 0.20115 0.61147 0.7955 0.0
C126 C 0.50085 0.10251 0.98566 0.0
C127 C 0.56972 0.21106 0.96107 0.0
O128 O 0.48707 0.11385 0.96725 0.0
Zn129 Zn 0.49941 0.15849 0.94442 0.0
O130 O 0.52894 0.11975 0.99472 0.0
Zn131 Zn 0.53492 0.15707 0.97377 0.0
O132 O 0.50595 0.16817 1.00534 0.0
O133 O 0.47204 0.17003 0.96892 0.0
O134 O 0.57456 0.19306 0.98068 0.0
O135 O 0.54324 0.20119 0.94609 0.0
O136 O 0.49524 0.15034 0.89283 0.0
O137 O 0.53486 0.14877 0.91678 0.0
C138 C 0.48314 0.17274 1.00041 0.0
C139 C 0.51874 0.14699 0.88901 0.0
C140 C 0.37266 0.48645 0.15047 0.0
C141 C 0.35592 0.57228 0.13006 0.0
O142 O 0.3496 0.47837 0.12916 0.0
Zn143 Zn 0.3255 0.50057 0.10702 0.0
O144 O 0.38738 0.51385 0.16267 0.0
Zn145 Zn 0.36386 0.52916 0.13987 0.0
O146 O 0.32059 0.50526 0.1677 0.0
O147 O 0.28419 0.47769 0.12794 0.0
O148 O 0.37663 0.57143 0.14908 0.0
O149 O 0.33573 0.54787 0.11348 0.0
O150 O 0.33073 0.49891 0.05538 0.0
O151 O 0.37421 0.53091 0.08331 0.0
C152 C 0.29207 0.48658 0.16026 0.0
C153 C 0.35952 0.51865 0.05401 0.0
C154 C 0.79586 0.30865 0.32973 0.0
C155 C 0.82529 0.37101 0.21892 0.0
O156 O 0.80254 0.33672 0.33507 0.0
Zn157 Zn 0.81663 0.37778 0.30388 0.0
O158 O 0.79796 0.30004 0.29814 0.0
Zn159 Zn 0.81229 0.33979 0.27422 0.0
O160 O 0.85772 0.36971 0.29697 0.0
O161 O 0.85462 0.40718 0.32488 0.0
O162 O 0.82009 0.34343 0.22262 0.0
O163 O 0.82488 0.386 0.24681 0.0
O164 O 0.78287 0.3847 0.31141 0.0
O165 O 0.77153 0.3444 0.27652 0.0
C166 C 0.87041 0.39481 0.31559 0.0
C167 C 0.76365 0.36248 0.29185 0.0
H168 H 0.21832 0.64271 0.39292 0.0
H169 H 0.39534 0.71916 0.44214 0.0
H170 H 0.25554 0.58437 0.4241 0.0
H171 H 0.33913 0.75888 0.47291 0.0
H172 H 0.34789 0.67107 0.42518 0.0
H173 H 0.26717 0.6882 0.40981 0.0
C174 C 0.2369 0.63948 0.40291 0.0
C175 C 0.23288 0.60976 0.40732 0.0
C176 C 0.34618 0.69034 0.43595 0.0
C177 C 0.28868 0.66166 0.42661 0.0
C178 C 0.37307 0.71767 0.44557 0.0
C179 C 0.37107 0.74297 0.45888 0.0
C180 C 0.31746 0.68888 0.43888 0.0
C181 C 0.34173 0.73992 0.46287 0.0
C182 C 0.26463 0.66541 0.41279 0.0
C183 C 0.25773 0.60694 0.42054 0.0
N184 N 0.31609 0.7135 0.45246 0.0
N185 N 0.28479 0.6327 0.4297 0.0
H186 H 0.60146 0.24587 0.52707 0.0
H187 H 0.60357 0.36086 0.67206 0.0
H188 H 0.63417 0.24521 0.6345 0.0
H189 H 0.63596 0.39248 0.56403 0.0
H190 H 0.6053 0.31332 0.65942 0.0
H191 H 0.60452 0.29556 0.54042 0.0
C192 C 0.60934 0.25628 0.55339 0.0
C193 C 0.61771 0.24173 0.57974 0.0
C194 C 0.61219 0.33087 0.63871 0.0
C195 C 0.62054 0.2976 0.59525 0.0
C196 C 0.61108 0.35777 0.64579 0.0
C197 C 0.61972 0.38045 0.61903 0.0
C198 C 0.62109 0.32649 0.60438 0.0
C199 C 0.62935 0.37555 0.58542 0.0
C200 C 0.61118 0.28452 0.56089 0.0
C201 C 0.6278 0.256 0.61344 0.0
N202 N 0.62938 0.34882 0.57883 0.0
N203 N 0.62855 0.28308 0.62048 0.0
H204 H 0.2145 0.56486 0.79909 0.0
H205 H 0.3941 0.6689 0.76235 0.0
H206 H 0.25568 0.66257 0.77601 0.0
H207 H 0.34184 0.57274 0.73055 0.0
H208 H 0.34538 0.66763 0.77599 0.0
H209 H 0.26355 0.56783 0.78381 0.0
C210 C 0.23396 0.58699 0.79112 0.0
C211 C 0.23113 0.61353 0.78873 0.0
C212 C 0.34471 0.64695 0.76576 0.0
C213 C 0.28703 0.617 0.77136 0.0
C214 C 0.37238 0.64762 0.75805 0.0
C215 C 0.37187 0.62087 0.74534 0.0
C216 C 0.31658 0.61917 0.76147 0.0
C217 C 0.34319 0.5939 0.74014 0.0
C218 C 0.26178 0.58859 0.78214 0.0
C219 C 0.25696 0.64157 0.77802 0.0
N220 N 0.31663 0.59362 0.74864 0.0
N221 N 0.28401 0.64265 0.76987 0.0
H222 H 0.72966 0.39587 0.96547 0.0
H223 H 0.57922 0.24398 0.89938 0.0
H224 H 0.72422 0.35847 0.85917 0.0
H225 H 0.61778 0.24914 1.00493 0.0
H226 H 0.6243 0.29451 0.88465 0.0
H227 H 0.67984 0.3499 0.98046 0.0
C228 C 0.71769 0.37822 0.94514 0.0
C229 C 0.73092 0.38068 0.91112 0.0
C230 C 0.62257 0.28462 0.91112 0.0
C231 C 0.67429 0.32887 0.92784 0.0
C232 C 0.59694 0.25602 0.91961 0.0
C233 C 0.59505 0.24251 0.95333 0.0
C234 C 0.64587 0.29997 0.9369 0.0
C235 C 0.61863 0.25881 0.97855 0.0
C236 C 0.68951 0.35208 0.95377 0.0
C237 C 0.71475 0.35717 0.88577 0.0
N238 N 0.64315 0.28688 0.96986 0.0
N239 N 0.68709 0.33217 0.8946 0.0
H240 H 0.3121 0.71751 0.09294 0.0
H241 H 0.40445 0.63082 0.13979 0.0
H242 H 0.40967 0.75705 0.07089 0.0
H243 H 0.30826 0.58042 0.10813 0.0
H244 H 0.40574 0.67943 0.1259 0.0
H245 H 0.30929 0.66835 0.10862 0.0
C246 C 0.33286 0.71577 0.09128 0.0
C247 C 0.36114 0.74123 0.08053 0.0
C248 C 0.38436 0.65768 0.12215 0.0
C249 C 0.35818 0.6857 0.09903 0.0
C250 C 0.38353 0.63002 0.13032 0.0
C251 C 0.35624 0.60166 0.12492 0.0
C252 C 0.3576 0.6569 0.10914 0.0
C253 C 0.32981 0.60187 0.1124 0.0
C254 C 0.33121 0.68782 0.10017 0.0
C255 C 0.38737 0.73787 0.07879 0.0
N256 N 0.3311 0.62915 0.10499 0.0
N257 N 0.38532 0.71064 0.08829 0.0
H258 H 0.72876 0.37522 0.33752 0.0
H259 H 0.61057 0.36641 0.19283 0.0
H260 H 0.72919 0.34095 0.2309 0.0
H261 H 0.58051 0.3358 0.30172 0.0
H262 H 0.65893 0.36645 0.20557 0.0
H263 H 0.67819 0.37019 0.32453 0.0
C264 C 0.71812 0.36659 0.31146 0.0
C265 C 0.73287 0.35837 0.28522 0.0
C266 C 0.64155 0.35955 0.22647 0.0
C267 C 0.67598 0.35328 0.27012 0.0
C268 C 0.61418 0.35965 0.21932 0.0
C269 C 0.59171 0.35101 0.24629 0.0
C270 C 0.64661 0.35165 0.26105 0.0
C271 C 0.59728 0.34237 0.28018 0.0
C272 C 0.68938 0.36362 0.30417 0.0
C273 C 0.71829 0.34727 0.25187 0.0
N274 N 0.62446 0.34332 0.28681 0.0
N275 N 0.6907 0.34542 0.24502 0.0
H276 H 0.1315 0.55081 0.70488 0.0
H277 H 0.13473 0.57804 0.49207 0.0
H278 H 0.14257 0.63476 0.65714 0.0
H279 H 0.13964 0.50173 0.54007 0.0
H280 H 0.13146 0.59608 0.55211 0.0
H281 H 0.12824 0.52967 0.64474 0.0
C282 C 0.13299 0.56476 0.68177 0.0
C283 C 0.13746 0.59475 0.68618 0.0
C284 C 0.13311 0.57531 0.54954 0.0
C285 C 0.13381 0.57053 0.61698 0.0
C286 C 0.13489 0.56489 0.51521 0.0
C287 C 0.1376 0.53832 0.51091 0.0
C288 C 0.1339 0.55905 0.58 0.0
C289 C 0.13768 0.52234 0.54203 0.0
C290 C 0.13122 0.55265 0.64738 0.0
C291 C 0.13921 0.61161 0.6551 0.0
N292 N 0.13595 0.533 0.57522 0.0
N293 N 0.13748 0.59931 0.62185 0.0
H294 H 0.63172 0.14819 0.71119 0.0
H295 H 0.49176 0.14325 0.823 0.0
H296 H 0.55002 0.1408 0.66165 0.0
H297 H 0.56959 0.14219 0.87227 0.0
H298 H 0.51178 0.1406 0.76365 0.0
H299 H 0.6085 0.14423 0.77045 0.0
C300 C 0.60882 0.14549 0.71271 0.0
C301 C 0.5929 0.14493 0.68128 0.0
C302 C 0.52436 0.14074 0.78748 0.0
C303 C 0.5662 0.14064 0.74919 0.0
C304 C 0.51291 0.14223 0.82141 0.0
C305 C 0.52902 0.14305 0.85278 0.0
C306 C 0.55224 0.14024 0.78482 0.0
C307 C 0.55635 0.14168 0.84892 0.0
C308 C 0.59556 0.14327 0.7466 0.0
C309 C 0.56324 0.1414 0.68505 0.0
N310 N 0.56714 0.14053 0.81567 0.0
N311 N 0.55098 0.13959 0.71829 0.0
H312 H 0.4187 0.56585 0.0421 0.0
H313 H 0.40496 0.55537 0.82716 0.0
H314 H 0.33726 0.49732 0.98581 0.0
H315 H 0.4756 0.63516 0.88393 0.0
H316 H 0.38381 0.52996 0.88482 0.0
H317 H 0.44351 0.58734 0.98429 0.0
C318 C 0.40609 0.55506 0.0176 0.0
C319 C 0.37571 0.52975 0.01892 0.0
C320 C 0.40404 0.55295 0.88467 0.0
C321 C 0.40416 0.55446 0.95244 0.0
C322 C 0.41626 0.56749 0.85173 0.0
C323 C 0.4421 0.59759 0.8506 0.0
C324 C 0.4178 0.56845 0.9169 0.0
C325 C 0.45563 0.61203 0.88343 0.0
C326 C 0.42029 0.56749 0.98456 0.0
C327 C 0.36064 0.51688 0.98617 0.0
N328 N 0.44328 0.59737 0.91521 0.0
N329 N 0.37498 0.52942 0.95429 0.0
H330 H 0.827 0.34667 0.15293 0.0
H331 H 0.8295 0.48544 0.04066 0.0
H332 H 0.83314 0.42802 0.20215 0.0
H333 H 0.83147 0.40794 0.99159 0.0
H334 H 0.83256 0.46572 0.10006 0.0
H335 H 0.83035 0.36956 0.09357 0.0
C336 C 0.82929 0.36942 0.15131 0.0
C337 C 0.82969 0.38534 0.18268 0.0
C338 C 0.83252 0.45315 0.07626 0.0
C339 C 0.8333 0.41166 0.11467 0.0
C340 C 0.83081 0.46444 0.04231 0.0
C341 C 0.83013 0.44833 1.01098 0.0
C342 C 0.83341 0.42544 0.079 0.0
C343 C 0.83187 0.42118 1.01491 0.0
C344 C 0.83117 0.38249 0.11737 0.0
C345 C 0.83268 0.4148 0.1788 0.0
N346 N 0.83324 0.41054 0.04819 0.0
N347 N 0.83418 0.42688 0.14551 0.0
H348 H 0.34303 0.83274 0.21115 0.0
H349 H 0.47951 0.83371 0.32595 0.0
H350 H 0.4254 0.84019 0.16347 0.0
H351 H 0.40383 0.83986 0.37355 0.0
H352 H 0.46045 0.83671 0.26613 0.0
H353 H 0.36523 0.83605 0.27094 0.0
C354 C 0.36586 0.83532 0.2132 0.0
C355 C 0.38228 0.8361 0.18216 0.0
C356 C 0.44815 0.83762 0.28969 0.0
C357 C 0.40777 0.83962 0.25058 0.0
C358 C 0.45904 0.83591 0.32387 0.0
C359 C 0.44325 0.83645 0.35491 0.0
C360 C 0.42112 0.83965 0.28646 0.0
C361 C 0.4168 0.83932 0.35047 0.0
C362 C 0.37853 0.83718 0.24737 0.0
C363 C 0.41181 0.83945 0.18657 0.0
N364 N 0.4065 0.84061 0.31697 0.0
N365 N 0.42347 0.84086 0.22006 0.0
H366 H 0.48835 0.3391 0.38253 0.0
H367 H 0.63046 0.48233 0.48198 0.0
H368 H 0.56014 0.41831 0.32613 0.0
H369 H 0.55112 0.41048 0.53809 0.0
H370 H 0.60475 0.4598 0.4246 0.0
H371 H 0.5105 0.36527 0.43978 0.0
C372 C 0.50859 0.36208 0.38212 0.0
C373 C 0.52239 0.37643 0.34935 0.0
C374 C 0.59287 0.44911 0.44949 0.0
C375 C 0.54813 0.40647 0.41496 0.0
C376 C 0.60756 0.462 0.48229 0.0
C377 C 0.59304 0.4483 0.51502 0.0
C378 C 0.56352 0.42212 0.4493 0.0
C379 C 0.5633 0.4219 0.51362 0.0
C380 C 0.52126 0.37703 0.41486 0.0
C381 C 0.54865 0.40628 0.35064 0.0
N382 N 0.54968 0.40959 0.48141 0.0
N383 N 0.56076 0.42015 0.38281 0.0
H384 H 0.90894 0.37026 0.31411 0.0
H385 H 0.05896 0.53146 0.35829 0.0
H386 H 0.90684 0.45369 0.33983 0.0
H387 H 0.05605 0.4448 0.37917 0.0
H388 H 0.00419 0.50294 0.34312 0.0
H389 H 0.96411 0.39691 0.33036 0.0
C390 C 0.92006 0.39412 0.32314 0.0
C391 C 0.90336 0.40984 0.3256 0.0
C392 C 0.01549 0.49013 0.3511 0.0
C393 C 0.96602 0.44024 0.34375 0.0
C394 C 0.04679 0.50637 0.35961 0.0
C395 C 0.06203 0.49044 0.37006 0.0
C396 C -0.00071 0.45766 0.35257 0.0
C397 C 0.04505 0.45792 0.3714 0.0
C398 C 0.95139 0.40919 0.33252 0.0
C399 C 0.91878 0.44065 0.33761 0.0
N400 N 0.01448 0.44249 0.36253 0.0
N401 N 0.94928 0.45489 0.34598 0.0
H402 H 0.45073 0.91693 0.50384 0.0
H403 H 0.61028 0.06724 0.55124 0.0
H404 H 0.5375 0.91928 0.48689 0.0
H405 H 0.52771 0.06899 0.52037 0.0
H406 H 0.58445 0.01206 0.53475 0.0
H407 H 0.47902 0.97192 0.51787 0.0
C408 C 0.47581 0.92904 0.50315 0.0
C409 C 0.49183 0.91356 0.4942 0.0
C410 C 0.57221 0.02473 0.53147 0.0
C411 C 0.52438 0.97662 0.51037 0.0
C412 C 0.58681 0.05607 0.54099 0.0
C413 C 0.57105 0.07265 0.53729 0.0
C414 C 0.54159 0.01001 0.51883 0.0
C415 C 0.54076 0.05716 0.52369 0.0
C416 C 0.49193 0.96048 0.51099 0.0
C417 C 0.52433 0.93048 0.49354 0.0
N418 N 0.52697 0.02668 0.51524 0.0
N419 N 0.53966 0.96123 0.5018 0.0
H420 H 0.52647 0.59545 0.76137 0.0
H421 H 0.59186 0.5341 0.60654 0.0
H422 H 0.49005 0.58036 0.65327 0.0
H423 H 0.56956 0.49162 0.71174 0.0
H424 H 0.56966 0.56645 0.62442 0.0
H425 H 0.5581 0.57228 0.74397 0.0
C426 C 0.52559 0.58773 0.73389 0.0
C427 C 0.50558 0.5894 0.7087 0.0
C428 C 0.57004 0.55024 0.64357 0.0
C429 C 0.54177 0.56392 0.68871 0.0
C430 C 0.58264 0.53192 0.63349 0.0
C431 C 0.58208 0.51006 0.65765 0.0
C432 C 0.55777 0.54717 0.6783 0.0
C433 C 0.56996 0.50798 0.69226 0.0
C434 C 0.54344 0.57452 0.72409 0.0
C435 C 0.50503 0.57907 0.67346 0.0
N436 N 0.55831 0.52643 0.70167 0.0
N437 N 0.52297 0.56679 0.6644 0.0
H438 H 0.05897 0.61149 0.81732 0.0
H439 H 0.90423 0.45162 0.85363 0.0
H440 H 0.05691 0.52536 0.83902 0.0
H441 H 0.91095 0.5393 0.87923 0.0
H442 H 0.95913 0.4789 0.83851 0.0
H443 H 0.00335 0.58585 0.83128 0.0
C444 C 0.04685 0.58727 0.82499 0.0
C445 C 0.06253 0.57052 0.8271 0.0
C446 C 0.94859 0.49218 0.84745 0.0
C447 C -0.00065 0.54123 0.8425 0.0
C448 C 0.91723 0.47665 0.85593 0.0
C449 C 0.90306 0.49323 0.86785 0.0
C450 C 0.96588 0.52456 0.85044 0.0
C451 C 0.92108 0.52566 0.87036 0.0
C452 C 0.01525 0.57275 0.83303 0.0
C453 C 0.0458 0.53921 0.83723 0.0
N454 N 0.95165 0.54036 0.86159 0.0
N455 N 0.01511 0.52556 0.84432 0.0
H456 H 0.52611 0.06834 1.00935 0.0
H457 H 0.36631 0.91466 0.04984 0.0
H458 H 0.43828 0.06167 0.98541 0.0
H459 H 0.45178 0.91556 0.02816 0.0
H460 H 0.39215 0.97007 0.03459 0.0
H461 H 0.49891 0.01355 0.02544 0.0
C462 C 0.50107 0.05536 1.00759 0.0
C463 C 0.48441 0.06951 0.9959 0.0
C464 C 0.40508 0.95797 0.03313 0.0
C465 C 0.45318 0.00686 1.01444 0.0
C466 C 0.39044 0.92649 0.04192 0.0
C467 C 0.40694 0.91054 0.04018 0.0
C468 C 0.43647 0.97352 0.02326 0.0
C469 C 0.43813 0.9269 0.02969 0.0
C470 C 0.48559 0.02407 0.01663 0.0
C471 C 0.45199 0.05155 0.99408 0.0
N472 N 0.45192 0.95752 0.02185 0.0
N473 N 0.43734 0.02107 1.00341 0.0
H474 H 0.39199 0.47998 0.21638 0.0
H475 H 0.47815 0.39682 0.15165 0.0
H476 H 0.37553 0.44302 0.10849 0.0
H477 H 0.43617 0.37548 0.25709 0.0
H478 H 0.44528 0.41844 0.13482 0.0
H479 H 0.41275 0.44625 0.23264 0.0
C480 C 0.39256 0.46453 0.19626 0.0
C481 C 0.38229 0.46422 0.16106 0.0
C482 C 0.44303 0.40862 0.16144 0.0
C483 C 0.40638 0.42638 0.17917 0.0
C484 C 0.46185 0.39656 0.17113 0.0
C485 C 0.45987 0.38465 0.20583 0.0
C486 C 0.42289 0.40957 0.18703 0.0
C487 C 0.43829 0.38453 0.23007 0.0
C488 C 0.40416 0.44524 0.20558 0.0
C489 C 0.38325 0.44377 0.13591 0.0
N490 N 0.42098 0.39746 0.22045 0.0
N491 N 0.39578 0.42602 0.14525 0.0
H492 H 0.15989 0.49995 0.29088 0.0
H493 H 0.3 0.48051 0.23162 0.0
H494 H 0.20453 0.46783 0.36473 0.0
H495 H 0.23186 0.47362 0.15502 0.0
H496 H 0.26484 0.47462 0.28072 0.0
H497 H 0.18496 0.48944 0.2406 0.0
C498 C 0.17468 0.49031 0.29648 0.0
C499 C 0.18037 0.48501 0.33207 0.0
C500 C 0.25731 0.47383 0.25319 0.0
C501 C 0.20947 0.47338 0.27466 0.0
C502 C 0.27739 0.47727 0.22516 0.0
C503 C 0.26886 0.47774 0.18925 0.0
C504 C 0.22877 0.47164 0.24534 0.0
C505 C 0.23928 0.47333 0.18235 0.0
C506 C 0.18887 0.4842 0.26774 0.0
C507 C 0.19955 0.4723 0.33773 0.0
N508 N 0.22049 0.47107 0.2102 0.0
N509 N 0.21387 0.46744 0.30936 0.0
H510 H 0.8076 0.3211 0.4013 0.0
H511 H 0.65872 0.16943 0.46338 0.0
H512 H 0.75527 0.24592 0.32733 0.0
H513 H 0.73282 0.22392 0.53769 0.0
H514 H 0.69355 0.19668 0.41311 0.0
H515 H 0.78103 0.2861 0.4517 0.0
C516 C 0.79081 0.29707 0.39571 0.0
C517 C 0.7835 0.28642 0.36008 0.0
C518 C 0.70238 0.20233 0.44037 0.0
C519 C 0.75255 0.24641 0.41764 0.0
C520 C 0.6825 0.18685 0.46908 0.0
C521 C 0.69288 0.19455 0.50475 0.0
C522 C 0.73268 0.22628 0.44734 0.0
C523 C 0.72392 0.21723 0.51059 0.0
C524 C 0.77572 0.2771 0.4245 0.0
C525 C 0.76164 0.25506 0.35438 0.0
N526 N 0.74259 0.23274 0.48218 0.0
N527 N 0.74649 0.23628 0.38286 0.0
H528 H 0.50323 0.74357 0.71574 0.0
H529 H 0.51222 0.76901 0.50198 0.0
H530 H 0.49337 0.67443 0.63871 0.0
H531 H 0.48136 0.81497 0.57555 0.0
H532 H 0.52098 0.7434 0.5534 0.0
H533 H 0.51081 0.77899 0.66563 0.0
C534 C 0.50337 0.73613 0.68836 0.0
C535 C 0.49736 0.70598 0.68126 0.0
C536 C 0.51274 0.75948 0.55823 0.0
C537 C 0.50614 0.7462 0.62416 0.0
C538 C 0.50788 0.77419 0.52896 0.0
C539 C 0.49569 0.79383 0.5345 0.0
C540 C 0.5058 0.76484 0.59325 0.0
C541 C 0.49041 0.79966 0.57006 0.0
C542 C 0.5075 0.75623 0.65985 0.0
C543 C 0.49758 0.69739 0.64529 0.0
N544 N 0.49534 0.78511 0.59808 0.0
N545 N 0.50174 0.71733 0.61808 0.0
H546 H 0.76914 0.52705 0.86561 0.0
H547 H 0.66673 0.50319 0.72705 0.0
H548 H 0.80157 0.48264 0.7918 0.0
H549 H 0.73777 0.5107 0.65475 0.0
H550 H 0.70075 0.51119 0.778 0.0
H551 H 0.74378 0.53729 0.81516 0.0
C552 C 0.77123 0.51977 0.83877 0.0
C553 C 0.787 0.50345 0.83304 0.0
C554 C 0.70941 0.5121 0.75104 0.0
C555 C 0.75763 0.51455 0.77536 0.0
C556 C 0.68986 0.50728 0.7219 0.0
C557 C 0.69947 0.50628 0.68665 0.0
C558 C 0.7387 0.51541 0.74502 0.0
C559 C 0.72958 0.51154 0.6815 0.0
C560 C 0.75648 0.52533 0.81004 0.0
C561 C 0.78917 0.49479 0.79759 0.0
N562 N 0.7479 0.51518 0.71046 0.0
N563 N 0.77449 0.50027 0.77017 0.0
H564 H 0.3186 0.80833 0.96222 0.0
H565 H 0.16564 0.65783 0.90648 0.0
H566 H 0.24485 0.75893 0.03879 0.0
H567 H 0.21638 0.73145 0.8301 0.0
H568 H 0.19491 0.69338 0.95554 0.0
H569 H 0.28259 0.77982 0.91322 0.0
C570 C 0.29471 0.79174 0.96867 0.0
C571 C 0.2847 0.7859 1.00462 0.0
C572 C 0.19929 0.70188 0.92809 0.0
C573 C 0.24361 0.75278 0.94878 0.0
C574 C 0.18267 0.6816 0.90009 0.0
C575 C 0.18867 0.6917 0.86417 0.0
C576 C 0.22265 0.73225 0.92008 0.0
C577 C 0.21096 0.72276 0.85742 0.0
C578 C 0.27418 0.77557 0.94071 0.0
C579 C 0.25349 0.76421 1.01145 0.0
N580 N 0.22756 0.7418 0.88508 0.0
N581 N 0.23416 0.74801 0.98382 0.0
H582 H 0.46219 0.23018 0.21349 0.0
H583 H 0.45473 0.20779 0.99905 0.0
H584 H 0.46961 0.29924 0.13784 0.0
H585 H 0.48668 0.16231 0.07187 0.0
H586 H 0.44449 0.23187 0.05099 0.0
H587 H 0.45548 0.19563 0.1627 0.0
C588 C 0.46163 0.23774 0.18629 0.0
C589 C 0.46674 0.26766 0.17976 0.0
C590 C 0.45327 0.2162 0.05553 0.0
C591 C 0.45901 0.22845 0.12185 0.0
C592 C 0.45895 0.20235 0.02596 0.0
C593 C 0.4719 0.18332 0.03116 0.0
C594 C 0.46013 0.21057 0.0905 0.0
C595 C 0.47705 0.17716 0.06664 0.0
C596 C 0.45802 0.21816 0.15736 0.0
C597 C 0.46606 0.27644 0.14398 0.0
N598 N 0.47131 0.19086 0.09494 0.0
N599 N 0.46246 0.25702 0.11637 0.0
loop_
_geom_bond_atom_site_label_1
_geom_bond_atom_site_label_2
_geom_bond_distance
_geom_bond_site_symmetry_2
_ccdc_geom_bond_type
C0 O2 1.247 . S
C0 O4 1.258 . S
C1 O8 1.247 . S
C1 O9 1.258 . S
O2 C0 1.247 . S
O2 Zn3 2.028 . S
Zn3 O2 2.028 . S
Zn3 O7 2.035 . S
Zn3 O9 2.035 . S
Zn3 O10 2.028 . S
O4 C0 1.258 . S
O4 Zn5 2.035 . S
Zn5 O4 2.035 . S
Zn5 O6 2.028 . S
Zn5 O8 2.028 . S
Zn5 O11 2.035 . S
O6 Zn5 2.028 . S
O6 C12 1.247 . S
O7 Zn3 2.035 . S
O7 C12 1.258 . S
O8 C1 1.247 . S
O8 Zn5 2.028 . S
O9 C1 1.258 . S
O9 Zn3 2.035 . S
O10 Zn3 2.028 . S
O10 C13 1.247 . S
O11 Zn5 2.035 . S
O11 C13 1.258 . S
C12 O6 1.247 . S
C12 O7 1.258 . S
C13 O10 1.247 . S
C13 O11 1.258 . S
C14 O16 1.247 . S
C14 O18 1.258 . S
C15 O22 1.247 . S
C15 O23 1.258 . S
O16 C14 1.247 . S
O16 Zn17 2.028 . S
Zn17 O16 2.028 . S
Zn17 O21 2.035 . S
Zn17 O23 2.035 . S
Zn17 O24 2.028 . S
O18 C14 1.258 . S
O18 Zn19 2.035 . S
Zn19 O18 2.035 . S
Zn19 O20 2.028 . S
Zn19 O22 2.028 . S
Zn19 O25 2.035 . S
O20 Zn19 2.028 . S
O20 C26 1.247 . S
O21 Zn17 2.035 . S
O21 C26 1.258 . S
O22 C15 1.247 . S
O22 Zn19 2.028 . S
O23 C15 1.258 . S
O23 Zn17 2.035 . S
O24 Zn17 2.028 . S
O24 C27 1.247 . S
O25 Zn19 2.035 . S
O25 C27 1.258 . S
C26 O20 1.247 . S
C26 O21 1.258 . S
C27 O24 1.247 . S
C27 O25 1.258 . S
C28 O30 1.247 . S
C28 O32 1.258 . S
C29 O36 1.247 . S
C29 O37 1.258 . S
O30 C28 1.247 . S
O30 Zn31 2.028 . S
Zn31 O30 2.028 . S
Zn31 O35 2.035 . S
Zn31 O37 2.035 . S
Zn31 O38 2.028 . S
O32 C28 1.258 . S
O32 Zn33 2.035 . S
Zn33 O32 2.035 . S
Zn33 O34 2.028 . S
Zn33 O36 2.028 . S
Zn33 O39 2.035 . S
O34 Zn33 2.028 . S
O34 C40 1.247 . S
O35 Zn31 2.035 . S
O35 C40 1.258 . S
O36 C29 1.247 . S
O36 Zn33 2.028 . S
O37 C29 1.258 . S
O37 Zn31 2.035 . S
O38 Zn31 2.028 . S
O38 C41 1.247 . S
O39 Zn33 2.035 . S
O39 C41 1.258 . S
C40 O34 1.247 . S
C40 O35 1.258 . S
C41 O38 1.247 . S
C41 O39 1.258 . S
C42 O44 1.247 . S
C42 O46 1.258 . S
C43 O50 1.247 . S
C43 O51 1.258 . S
O44 C42 1.247 . S
O44 Zn45 2.028 . S
Zn45 O44 2.028 . S
Zn45 O49 2.035 . S
Zn45 O51 2.035 . S
Zn45 O52 2.028 . S
O46 C42 1.258 . S
O46 Zn47 2.035 . S
Zn47 O46 2.035 . S
Zn47 O48 2.028 . S
Zn47 O50 2.028 . S
Zn47 O53 2.035 . S
O48 Zn47 2.028 . S
O48 C54 1.247 . S
O49 Zn45 2.035 . S
O49 C54 1.258 . S
O50 C43 1.247 . S
O50 Zn47 2.028 . S
O51 C43 1.258 . S
O51 Zn45 2.035 . S
O52 Zn45 2.028 . S
O52 C55 1.247 . S
O53 Zn47 2.035 . S
O53 C55 1.258 . S
C54 O48 1.247 . S
C54 O49 1.258 . S
C55 O52 1.247 . S
C55 O53 1.258 . S
C56 O58 1.247 . S
C56 O60 1.258 . S
C57 O64 1.247 . S
C57 O65 1.258 . S
O58 C56 1.247 . S
O58 Zn59 2.028 . S
Zn59 O58 2.028 . S
Zn59 O63 2.035 . S
Zn59 O65 2.035 . S
Zn59 O66 2.028 . S
O60 C56 1.258 . S
O60 Zn61 2.035 . S
Zn61 O60 2.035 . S
Zn61 O62 2.028 . S
Zn61 O64 2.028 . S
Zn61 O67 2.035 . S
O62 Zn61 2.028 . S
O62 C68 1.247 . S
O63 Zn59 2.035 . S
O63 C68 1.258 . S
O64 C57 1.247 . S
O64 Zn61 2.028 . S
O65 C57 1.258 . S
O65 Zn59 2.035 . S
O66 Zn59 2.028 . S
O66 C69 1.247 . S
O67 Zn61 2.035 . S
O67 C69 1.258 . S
C68 O62 1.247 . S
C68 O63 1.258 . S
C69 O66 1.247 . S
C69 O67 1.258 . S
C70 O72 1.247 . S
C70 O74 1.258 . S
C71 O78 1.247 . S
C71 O79 1.258 . S
O72 C70 1.247 . S
O72 Zn73 2.028 . S
Zn73 O72 2.028 . S
Zn73 O77 2.035 . S
Zn73 O79 2.035 . S
Zn73 O80 2.028 . S
O74 C70 1.258 . S
O74 Zn75 2.035 . S
Zn75 O74 2.035 . S
Zn75 O76 2.028 . S
Zn75 O78 2.028 . S
Zn75 O81 2.035 . S
O76 Zn75 2.028 . S
O76 C82 1.247 . S
O77 Zn73 2.035 . S
O77 C82 1.258 . S
O78 C71 1.247 . S
O78 Zn75 2.028 . S
O79 C71 1.258 . S
O79 Zn73 2.035 . S
O80 Zn73 2.028 . S
O80 C83 1.247 . S
O81 Zn75 2.035 . S
O81 C83 1.258 . S
C82 O76 1.247 . S
C82 O77 1.258 . S
C83 O80 1.247 . S
C83 O81 1.258 . S
C84 O86 1.247 . S
C84 O88 1.258 . S
C85 O92 1.247 . S
C85 O93 1.258 . S
O86 C84 1.247 . S
O86 Zn87 2.028 . S
Zn87 O86 2.028 . S
Zn87 O91 2.035 . S
Zn87 O93 2.035 . S
Zn87 O94 2.028 . S
O88 C84 1.258 . S
O88 Zn89 2.035 . S
Zn89 O88 2.035 . S
Zn89 O90 2.028 . S
Zn89 O92 2.028 . S
Zn89 O95 2.035 . S
O90 Zn89 2.028 . S
O90 C96 1.247 . S
O91 Zn87 2.035 . S
O91 C96 1.258 . S
O92 C85 1.247 . S
O92 Zn89 2.028 . S
O93 C85 1.258 . S
O93 Zn87 2.035 . S
O94 Zn87 2.028 . S
O94 C97 1.247 . S
O95 Zn89 2.035 . S
O95 C97 1.258 . S
C96 O90 1.247 . S
C96 O91 1.258 . S
C97 O94 1.247 . S
C97 O95 1.258 . S
C98 O100 1.247 . S
C98 O102 1.258 . S
C99 O106 1.247 . S
C99 O107 1.258 . S
O100 C98 1.247 . S
O100 Zn101 2.028 . S
Zn101 O100 2.028 . S
Zn101 O105 2.035 . S
Zn101 O107 2.035 . S
Zn101 O108 2.028 . S
O102 C98 1.258 . S
O102 Zn103 2.035 . S
Zn103 O102 2.035 . S
Zn103 O104 2.028 . S
Zn103 O106 2.028 . S
Zn103 O109 2.035 . S
O104 Zn103 2.028 . S
O104 C110 1.247 . S
O105 Zn101 2.035 . S
O105 C110 1.258 . S
O106 C99 1.247 . S
O106 Zn103 2.028 . S
O107 C99 1.258 . S
O107 Zn101 2.035 . S
O108 Zn101 2.028 . S
O108 C111 1.247 . S
O109 Zn103 2.035 . S
O109 C111 1.258 . S
C110 O104 1.247 . S
C110 O105 1.258 . S
C111 O108 1.247 . S
C111 O109 1.258 . S
C112 O114 1.247 . S
C112 O116 1.258 . S
C113 O120 1.247 . S
C113 O121 1.258 . S
O114 C112 1.247 . S
O114 Zn115 2.028 . S
Zn115 O114 2.028 . S
Zn115 O119 2.035 . S
Zn115 O121 2.035 . S
Zn115 O122 2.028 . S
O116 C112 1.258 . S
O116 Zn117 2.035 . S
Zn117 O116 2.035 . S
Zn117 O118 2.028 . S
Zn117 O120 2.028 . S
Zn117 O123 2.035 . S
O118 Zn117 2.028 . S
O118 C124 1.247 . S
O119 Zn115 2.035 . S
O119 C124 1.258 . S
O120 C113 1.247 . S
O120 Zn117 2.028 . S
O121 C113 1.258 . S
O121 Zn115 2.035 . S
O122 Zn115 2.028 . S
O122 C125 1.247 . S
O123 Zn117 2.035 . S
O123 C125 1.258 . S
C124 O118 1.247 . S
C124 O119 1.258 . S
C125 O122 1.247 . S
C125 O123 1.258 . S
C126 O128 1.247 . S
C126 O130 1.258 . S
C127 O134 1.247 . S
C127 O135 1.258 . S
O128 C126 1.247 . S
O128 Zn129 2.028 . S
Zn129 O128 2.028 . S
Zn129 O133 2.035 . S
Zn129 O135 2.035 . S
Zn129 O136 2.028 . S
O130 C126 1.258 . S
O130 Zn131 2.035 . S
Zn131 O130 2.035 . S
Zn131 O132 2.028 . S
Zn131 O134 2.028 . S
Zn131 O137 2.035 . S
O132 Zn131 2.028 . S
O132 C138 1.247 . S
O133 Zn129 2.035 . S
O133 C138 1.258 . S
O134 C127 1.247 . S
O134 Zn131 2.028 . S
O135 C127 1.258 . S
O135 Zn129 2.035 . S
O136 Zn129 2.028 . S
O136 C139 1.247 . S
O137 Zn131 2.035 . S
O137 C139 1.258 . S
C138 O132 1.247 . S
C138 O133 1.258 . S
C139 O136 1.247 . S
C139 O137 1.258 . S
C140 O142 1.247 . S
C140 O144 1.258 . S
C141 O148 1.247 . S
C141 O149 1.258 . S
O142 C140 1.247 . S
O142 Zn143 2.028 . S
Zn143 O142 2.028 . S
Zn143 O147 2.035 . S
Zn143 O149 2.035 . S
Zn143 O150 2.028 . S
O144 C140 1.258 . S
O144 Zn145 2.035 . S
Zn145 O144 2.035 . S
Zn145 O146 2.028 . S
Zn145 O148 2.028 . S
Zn145 O151 2.035 . S
O146 Zn145 2.028 . S
O146 C152 1.247 . S
O147 Zn143 2.035 . S
O147 C152 1.258 . S
O148 C141 1.247 . S
O148 Zn145 2.028 . S
O149 C141 1.258 . S
O149 Zn143 2.035 . S
O150 Zn143 2.028 . S
O150 C153 1.247 . S
O151 Zn145 2.035 . S
O151 C153 1.258 . S
C152 O146 1.247 . S
C152 O147 1.258 . S
C153 O150 1.247 . S
C153 O151 1.258 . S
C154 O156 1.247 . S
C154 O158 1.258 . S
C155 O162 1.247 . S
C155 O163 1.258 . S
O156 C154 1.247 . S
O156 Zn157 2.028 . S
Zn157 O156 2.028 . S
Zn157 O161 2.035 . S
Zn157 O163 2.035 . S
Zn157 O164 2.028 . S
O158 C154 1.258 . S
O158 Zn159 2.035 . S
Zn159 O158 2.035 . S
Zn159 O160 2.028 . S
Zn159 O162 2.028 . S
Zn159 O165 2.035 . S
O160 Zn159 2.028 . S
O160 C166 1.247 . S
O161 Zn157 2.035 . S
O161 C166 1.258 . S
O162 C155 1.247 . S
O162 Zn159 2.028 . S
O163 C155 1.258 . S
O163 Zn157 2.035 . S
O164 Zn157 2.028 . S
O164 C167 1.247 . S
O165 Zn159 2.035 . S
O165 C167 1.258 . S
C166 O160 1.247 . S
C166 O161 1.258 . S
C167 O164 1.247 . S
C167 O165 1.258 . S
H168 C174 0.930 . S
H169 C178 0.930 . S
H170 C183 0.929 . S
H171 C181 0.929 . S
H172 C176 0.929 . S
H173 C182 0.929 . S
C174 H168 0.930 . S
C174 C175 1.367 . S
C174 C182 1.378 . S
C175 C174 1.367 . S
C175 C183 1.433 . S
C176 H172 0.929 . S
C176 C178 1.378 . S
C176 C180 1.350 . S
C177 C180 1.463 . S
C177 C182 1.350 . S
C177 N185 1.427 . S
C178 H169 0.930 . S
C178 C176 1.378 . S
C178 C179 1.367 . S
C179 C178 1.367 . S
C179 C181 1.433 . S
C180 C176 1.350 . S
C180 C177 1.463 . S
C180 N184 1.427 . S
C181 H171 0.929 . S
C181 C179 1.433 . S
C181 N184 1.384 . S
C182 H173 0.929 . S
C182 C174 1.378 . S
C182 C177 1.350 . S
C183 H170 0.929 . S
C183 C175 1.433 . S
C183 N185 1.384 . S
N184 C180 1.427 . S
N184 C181 1.384 . S
N185 C177 1.427 . S
N185 C183 1.384 . S
H186 C192 0.930 . S
H187 C196 0.930 . S
H188 C201 0.929 . S
H189 C199 0.929 . S
H190 C194 0.929 . S
H191 C200 0.929 . S
C192 H186 0.930 . S
C192 C193 1.367 . S
C192 C200 1.378 . S
C193 C192 1.367 . S
C193 C201 1.433 . S
C194 H190 0.929 . S
C194 C196 1.378 . S
C194 C198 1.350 . S
C195 C198 1.463 . S
C195 C200 1.350 . S
C195 N203 1.427 . S
C196 H187 0.930 . S
C196 C194 1.378 . S
C196 C197 1.367 . S
C197 C196 1.367 . S
C197 C199 1.433 . S
C198 C194 1.350 . S
C198 C195 1.463 . S
C198 N202 1.427 . S
C199 H189 0.929 . S
C199 C197 1.433 . S
C199 N202 1.384 . S
C200 H191 0.929 . S
C200 C192 1.378 . S
C200 C195 1.350 . S
C201 H188 0.929 . S
C201 C193 1.433 . S
C201 N203 1.384 . S
N202 C198 1.427 . S
N202 C199 1.384 . S
N203 C195 1.427 . S
N203 C201 1.384 . S
H204 C210 0.930 . S
H205 C214 0.930 . S
H206 C219 0.929 . S
H207 C217 0.929 . S
H208 C212 0.929 . S
H209 C218 0.929 . S
C210 H204 0.930 . S
C210 C211 1.367 . S
C210 C218 1.378 . S
C211 C210 1.367 . S
C211 C219 1.433 . S
C212 H208 0.929 . S
C212 C214 1.378 . S
C212 C216 1.350 . S
C213 C216 1.463 . S
C213 C218 1.350 . S
C213 N221 1.427 . S
C214 H205 0.930 . S
C214 C212 1.378 . S
C214 C215 1.367 . S
C215 C214 1.367 . S
C215 C217 1.433 . S
C216 C212 1.350 . S
C216 C213 1.463 . S
C216 N220 1.427 . S
C217 H207 0.929 . S
C217 C215 1.433 . S
C217 N220 1.384 . S
C218 H209 0.929 . S
C218 C210 1.378 . S
C218 C213 1.350 . S
C219 H206 0.929 . S
C219 C211 1.433 . S
C219 N221 1.384 . S
N220 C216 1.427 . S
N220 C217 1.384 . S
N221 C213 1.427 . S
N221 C219 1.384 . S
H222 C228 0.930 . S
H223 C232 0.930 . S
H224 C237 0.929 . S
H225 C235 0.929 . S
H226 C230 0.929 . S
H227 C236 0.929 . S
C228 H222 0.930 . S
C228 C229 1.367 . S
C228 C236 1.378 . S
C229 C228 1.367 . S
C229 C237 1.433 . S
C230 H226 0.929 . S
C230 C232 1.378 . S
C230 C234 1.350 . S
C231 C234 1.463 . S
C231 C236 1.350 . S
C231 N239 1.427 . S
C232 H223 0.930 . S
C232 C230 1.378 . S
C232 C233 1.367 . S
C233 C232 1.367 . S
C233 C235 1.433 . S
C234 C230 1.350 . S
C234 C231 1.463 . S
C234 N238 1.427 . S
C235 H225 0.929 . S
C235 C233 1.433 . S
C235 N238 1.384 . S
C236 H227 0.929 . S
C236 C228 1.378 . S
C236 C231 1.350 . S
C237 H224 0.929 . S
C237 C229 1.433 . S
C237 N239 1.384 . S
N238 C234 1.427 . S
N238 C235 1.384 . S
N239 C231 1.427 . S
N239 C237 1.384 . S
H240 C246 0.930 . S
H241 C250 0.930 . S
H242 C255 0.929 . S
H243 C253 0.929 . S
H244 C248 0.929 . S
H245 C254 0.929 . S
C246 H240 0.930 . S
C246 C247 1.367 . S
C246 C254 1.378 . S
C247 C246 1.367 . S
C247 C255 1.433 . S
C248 H244 0.929 . S
C248 C250 1.378 . S
C248 C252 1.350 . S
C249 C252 1.463 . S
C249 C254 1.350 . S
C249 N257 1.427 . S
C250 H241 0.930 . S
C250 C248 1.378 . S
C250 C251 1.367 . S
C251 C250 1.367 . S
C251 C253 1.433 . S
C252 C248 1.350 . S
C252 C249 1.463 . S
C252 N256 1.427 . S
C253 H243 0.929 . S
C253 C251 1.433 . S
C253 N256 1.384 . S
C254 H245 0.929 . S
C254 C246 1.378 . S
C254 C249 1.350 . S
C255 H242 0.929 . S
C255 C247 1.433 . S
C255 N257 1.384 . S
N256 C252 1.427 . S
N256 C253 1.384 . S
N257 C249 1.427 . S
N257 C255 1.384 . S
H258 C264 0.930 . S
H259 C268 0.930 . S
H260 C273 0.929 . S
H261 C271 0.929 . S
H262 C266 0.929 . S
H263 C272 0.929 . S
C264 H258 0.930 . S
C264 C265 1.367 . S
C264 C272 1.378 . S
C265 C264 1.367 . S
C265 C273 1.433 . S
C266 H262 0.929 . S
C266 C268 1.378 . S
C266 C270 1.350 . S
C267 C270 1.463 . S
C267 C272 1.350 . S
C267 N275 1.427 . S
C268 H259 0.930 . S
C268 C266 1.378 . S
C268 C269 1.367 . S
C269 C268 1.367 . S
C269 C271 1.433 . S
C270 C266 1.350 . S
C270 C267 1.463 . S
C270 N274 1.427 . S
C271 H261 0.929 . S
C271 C269 1.433 . S
C271 N274 1.384 . S
C272 H263 0.929 . S
C272 C264 1.378 . S
C272 C267 1.350 . S
C273 H260 0.929 . S
C273 C265 1.433 . S
C273 N275 1.384 . S
N274 C270 1.427 . S
N274 C271 1.384 . S
N275 C267 1.427 . S
N275 C273 1.384 . S
H276 C282 0.930 . S
H277 C286 0.930 . S
H278 C291 0.929 . S
H279 C289 0.929 . S
H280 C284 0.929 . S
H281 C290 0.929 . S
C282 H276 0.930 . S
C282 C283 1.367 . S
C282 C290 1.378 . S
C283 C282 1.367 . S
C283 C291 1.433 . S
C284 H280 0.929 . S
C284 C286 1.378 . S
C284 C288 1.350 . S
C285 C288 1.463 . S
C285 C290 1.350 . S
C285 N293 1.427 . S
C286 H277 0.930 . S
C286 C284 1.378 . S
C286 C287 1.367 . S
C287 C286 1.367 . S
C287 C289 1.433 . S
C288 C284 1.350 . S
C288 C285 1.463 . S
C288 N292 1.427 . S
C289 H279 0.929 . S
C289 C287 1.433 . S
C289 N292 1.384 . S
C290 H281 0.929 . S
C290 C282 1.378 . S
C290 C285 1.350 . S
C291 H278 0.929 . S
C291 C283 1.433 . S
C291 N293 1.384 . S
N292 C288 1.427 . S
N292 C289 1.384 . S
N293 C285 1.427 . S
N293 C291 1.384 . S
H294 C300 0.930 . S
H295 C304 0.930 . S
H296 C309 0.929 . S
H297 C307 0.929 . S
H298 C302 0.929 . S
H299 C308 0.929 . S
C300 H294 0.930 . S
C300 C301 1.367 . S
C300 C308 1.378 . S
C301 C300 1.367 . S
C301 C309 1.433 . S
C302 H298 0.929 . S
C302 C304 1.378 . S
C302 C306 1.350 . S
C303 C306 1.463 . S
C303 C308 1.350 . S
C303 N311 1.427 . S
C304 H295 0.930 . S
C304 C302 1.378 . S
C304 C305 1.367 . S
C305 C304 1.367 . S
C305 C307 1.433 . S
C306 C302 1.350 . S
C306 C303 1.463 . S
C306 N310 1.427 . S
C307 H297 0.929 . S
C307 C305 1.433 . S
C307 N310 1.384 . S
C308 H299 0.929 . S
C308 C300 1.378 . S
C308 C303 1.350 . S
C309 H296 0.929 . S
C309 C301 1.433 . S
C309 N311 1.384 . S
N310 C306 1.427 . S
N310 C307 1.384 . S
N311 C303 1.427 . S
N311 C309 1.384 . S
H312 C318 0.930 1_554 S
H313 C322 0.930 . S
H314 C327 0.929 . S
H315 C325 0.929 . S
H316 C320 0.929 . S
H317 C326 0.929 . S
C318 H312 0.930 1_556 S
C318 C319 1.367 1_556 S
C318 C326 1.378 . S
C319 C318 1.367 1_554 S
C319 C327 1.433 1_554 S
C320 H316 0.929 . S
C320 C322 1.378 . S
C320 C324 1.350 . S
C321 C324 1.463 . S
C321 C326 1.350 . S
C321 N329 1.427 . S
C322 H313 0.930 . S
C322 C320 1.378 . S
C322 C323 1.367 . S
C323 C322 1.367 . S
C323 C325 1.433 . S
C324 C320 1.350 . S
C324 C321 1.463 . S
C324 N328 1.427 . S
C325 H315 0.929 . S
C325 C323 1.433 . S
C325 N328 1.384 . S
C326 H317 0.929 . S
C326 C318 1.378 . S
C326 C321 1.350 . S
C327 H314 0.929 . S
C327 C319 1.433 1_556 S
C327 N329 1.384 . S
N328 C324 1.427 . S
N328 C325 1.384 . S
N329 C321 1.427 . S
N329 C327 1.384 . S
H330 C336 0.930 . S
H331 C340 0.930 . S
H332 C345 0.929 . S
H333 C343 0.929 1_556 S
H334 C338 0.929 . S
H335 C344 0.929 . S
C336 H330 0.930 . S
C336 C337 1.367 . S
C336 C344 1.378 . S
C337 C336 1.367 . S
C337 C345 1.433 . S
C338 H334 0.929 . S
C338 C340 1.378 . S
C338 C342 1.350 . S
C339 C342 1.463 . S
C339 C344 1.350 . S
C339 N347 1.427 . S
C340 H331 0.930 . S
C340 C338 1.378 . S
C340 C341 1.372 . S
C341 C340 1.372 . S
C341 C343 1.436 . S
C342 C338 1.350 . S
C342 C339 1.463 . S
C342 N346 1.427 . S
C343 H333 0.929 1_554 S
C343 C341 1.436 . S
C343 N346 1.384 . S
C344 H335 0.929 . S
C344 C336 1.378 . S
C344 C339 1.350 . S
C345 H332 0.929 . S
C345 C337 1.433 . S
C345 N347 1.384 . S
N346 C342 1.427 . S
N346 C343 1.384 . S
N347 C339 1.427 . S
N347 C345 1.384 . S
H348 C354 0.930 . S
H349 C358 0.930 . S
H350 C363 0.929 . S
H351 C361 0.929 . S
H352 C356 0.929 . S
H353 C362 0.929 . S
C354 H348 0.930 . S
C354 C355 1.367 . S
C354 C362 1.378 . S
C355 C354 1.367 . S
C355 C363 1.433 . S
C356 H352 0.929 . S
C356 C358 1.378 . S
C356 C360 1.350 . S
C357 C360 1.463 . S
C357 C362 1.350 . S
C357 N365 1.427 . S
C358 H349 0.930 . S
C358 C356 1.378 . S
C358 C359 1.367 . S
C359 C358 1.367 . S
C359 C361 1.433 . S
C360 C356 1.350 . S
C360 C357 1.463 . S
C360 N364 1.427 . S
C361 H351 0.929 . S
C361 C359 1.433 . S
C361 N364 1.384 . S
C362 H353 0.929 . S
C362 C354 1.378 . S
C362 C357 1.350 . S
C363 H350 0.929 . S
C363 C355 1.433 . S
C363 N365 1.384 . S
N364 C360 1.427 . S
N364 C361 1.384 . S
N365 C357 1.427 . S
N365 C363 1.384 . S
H366 C372 0.930 . S
H367 C376 0.930 . S
H368 C381 0.929 . S
H369 C379 0.929 . S
H370 C374 0.929 . S
H371 C380 0.929 . S
C372 H366 0.930 . S
C372 C373 1.367 . S
C372 C380 1.378 . S
C373 C372 1.367 . S
C373 C381 1.433 . S
C374 H370 0.929 . S
C374 C376 1.378 . S
C374 C378 1.350 . S
C375 C378 1.463 . S
C375 C380 1.350 . S
C375 N383 1.427 . S
C376 H367 0.930 . S
C376 C374 1.378 . S
C376 C377 1.367 . S
C377 C376 1.367 . S
C377 C379 1.433 . S
C378 C374 1.350 . S
C378 C375 1.463 . S
C378 N382 1.427 . S
C379 H369 0.929 . S
C379 C377 1.433 . S
C379 N382 1.384 . S
C380 H371 0.929 . S
C380 C372 1.378 . S
C380 C375 1.350 . S
C381 H368 0.929 . S
C381 C373 1.433 . S
C381 N383 1.384 . S
N382 C378 1.427 . S
N382 C379 1.384 . S
N383 C375 1.427 . S
N383 C381 1.384 . S
H384 C390 0.930 . S
H385 C394 0.930 . S
H386 C399 0.929 . S
H387 C397 0.929 . S
H388 C392 0.929 . S
H389 C398 0.929 . S
C390 H384 0.930 . S
C390 C391 1.367 . S
C390 C398 1.378 . S
C391 C390 1.367 . S
C391 C399 1.433 . S
C392 H388 0.929 . S
C392 C394 1.378 . S
C392 C396 1.350 . S
C393 C396 1.463 1_655 S
C393 C398 1.350 . S
C393 N401 1.427 . S
C394 H385 0.930 . S
C394 C392 1.378 . S
C394 C395 1.367 . S
C395 C394 1.367 . S
C395 C397 1.433 . S
C396 C392 1.350 . S
C396 C393 1.463 1_455 S
C396 N400 1.427 . S
C397 H387 0.929 . S
C397 C395 1.433 . S
C397 N400 1.384 . S
C398 H389 0.929 . S
C398 C390 1.378 . S
C398 C393 1.350 . S
C399 H386 0.929 . S
C399 C391 1.433 . S
C399 N401 1.384 . S
N400 C396 1.427 . S
N400 C397 1.384 . S
N401 C393 1.427 . S
N401 C399 1.384 . S
H402 C408 0.930 . S
H403 C412 0.930 . S
H404 C417 0.929 . S
H405 C415 0.929 . S
H406 C410 0.916 1_565 S
H407 C416 0.916 1_545 S
C408 H402 0.930 . S
C408 C409 1.367 . S
C408 C416 1.378 . S
C409 C408 1.367 . S
C409 C417 1.433 . S
C410 H406 0.916 1_545 S
C410 C412 1.378 . S
C410 C414 1.350 . S
C411 C414 1.463 1_565 S
C411 C416 1.350 . S
C411 N419 1.427 . S
C412 H403 0.930 . S
C412 C410 1.378 . S
C412 C413 1.367 . S
C413 C412 1.367 . S
C413 C415 1.433 . S
C414 C410 1.350 . S
C414 C411 1.463 1_545 S
C414 N418 1.427 . S
C415 H405 0.929 . S
C415 C413 1.433 . S
C415 N418 1.384 . S
C416 H407 0.916 1_565 S
C416 C408 1.378 . S
C416 C411 1.350 . S
C417 H404 0.929 . S
C417 C409 1.433 . S
C417 N419 1.384 . S
N418 C414 1.427 . S
N418 C415 1.384 . S
N419 C411 1.427 . S
N419 C417 1.384 . S
H420 C426 0.930 . S
H421 C430 0.930 . S
H422 C435 0.929 . S
H423 C433 0.929 . S
H424 C428 0.929 . S
H425 C434 0.929 . S
C426 H420 0.930 . S
C426 C427 1.367 . S
C426 C434 1.378 . S
C427 C426 1.367 . S
C427 C435 1.433 . S
C428 H424 0.929 . S
C428 C430 1.378 . S
C428 C432 1.350 . S
C429 C432 1.463 . S
C429 C434 1.350 . S
C429 N437 1.427 . S
C430 H421 0.930 . S
C430 C428 1.378 . S
C430 C431 1.367 . S
C431 C430 1.367 . S
C431 C433 1.433 . S
C432 C428 1.350 . S
C432 C429 1.463 . S
C432 N436 1.427 . S
C433 H423 0.929 . S
C433 C431 1.433 . S
C433 N436 1.384 . S
C434 H425 0.929 . S
C434 C426 1.378 . S
C434 C429 1.350 . S
C435 H422 0.929 . S
C435 C427 1.433 . S
C435 N437 1.384 . S
N436 C432 1.427 . S
N436 C433 1.384 . S
N437 C429 1.427 . S
N437 C435 1.384 . S
H438 C444 0.930 . S
H439 C448 0.930 . S
H440 C453 0.929 . S
H441 C451 0.929 . S
H442 C446 0.929 . S
H443 C452 0.929 . S
C444 H438 0.930 . S
C444 C445 1.367 . S
C444 C452 1.378 . S
C445 C444 1.367 . S
C445 C453 1.433 . S
C446 H442 0.929 . S
C446 C448 1.378 . S
C446 C450 1.350 . S
C447 C450 1.463 1_455 S
C447 C452 1.350 . S
C447 N455 1.427 . S
C448 H439 0.930 . S
C448 C446 1.378 . S
C448 C449 1.367 . S
C449 C448 1.367 . S
C449 C451 1.433 . S
C450 C446 1.350 . S
C450 C447 1.463 1_655 S
C450 N454 1.427 . S
C451 H441 0.929 . S
C451 C449 1.433 . S
C451 N454 1.384 . S
C452 H443 0.929 . S
C452 C444 1.378 . S
C452 C447 1.350 . S
C453 H440 0.929 . S
C453 C445 1.433 . S
C453 N455 1.384 . S
N454 C450 1.427 . S
N454 C451 1.384 . S
N455 C447 1.427 . S
N455 C453 1.384 . S
H456 C462 0.930 . S
H457 C466 0.930 . S
H458 C471 0.929 . S
H459 C469 0.929 . S
H460 C464 0.929 . S
H461 C470 0.929 . S
C462 H456 0.930 . S
C462 C463 1.367 . S
C462 C470 1.378 . S
C463 C462 1.367 . S
C463 C471 1.433 . S
C464 H460 0.929 . S
C464 C466 1.378 . S
C464 C468 1.350 . S
C465 C468 1.463 1_546 S
C465 C470 1.350 . S
C465 N473 1.427 . S
C466 H457 0.930 . S
C466 C464 1.378 . S
C466 C467 1.367 . S
C467 C466 1.367 . S
C467 C469 1.433 . S
C468 C464 1.350 . S
C468 C465 1.463 1_564 S
C468 N472 1.427 . S
C469 H459 0.929 . S
C469 C467 1.433 . S
C469 N472 1.384 . S
C470 H461 0.929 . S
C470 C462 1.378 . S
C470 C465 1.350 . S
C471 H458 0.929 . S
C471 C463 1.433 . S
C471 N473 1.384 . S
N472 C468 1.427 . S
N472 C469 1.384 . S
N473 C465 1.427 . S
N473 C471 1.384 . S
H474 C480 0.930 . S
H475 C484 0.930 . S
H476 C489 0.929 . S
H477 C487 0.929 . S
H478 C482 0.929 . S
H479 C488 0.929 . S
C480 H474 0.930 . S
C480 C481 1.367 . S
C480 C488 1.378 . S
C481 C480 1.367 . S
C481 C489 1.433 . S
C482 H478 0.929 . S
C482 C484 1.378 . S
C482 C486 1.350 . S
C483 C486 1.463 . S
C483 C488 1.350 . S
C483 N491 1.427 . S
C484 H475 0.930 . S
C484 C482 1.378 . S
C484 C485 1.367 . S
C485 C484 1.367 . S
C485 C487 1.433 . S
C486 C482 1.350 . S
C486 C483 1.463 . S
C486 N490 1.427 . S
C487 H477 0.929 . S
C487 C485 1.433 . S
C487 N490 1.384 . S
C488 H479 0.929 . S
C488 C480 1.378 . S
C488 C483 1.350 . S
C489 H476 0.929 . S
C489 C481 1.433 . S
C489 N491 1.384 . S
N490 C486 1.427 . S
N490 C487 1.384 . S
N491 C483 1.427 . S
N491 C489 1.384 . S
H492 C498 0.930 . S
H493 C502 0.930 . S
H494 C507 0.929 . S
H495 C505 0.929 . S
H496 C500 0.929 . S
H497 C506 0.929 . S
C498 H492 0.930 . S
C498 C499 1.367 . S
C498 C506 1.378 . S
C499 C498 1.367 . S
C499 C507 1.433 . S
C500 H496 0.929 . S
C500 C502 1.378 . S
C500 C504 1.350 . S
C501 C504 1.463 . S
C501 C506 1.350 . S
C501 N509 1.427 . S
C502 H493 0.930 . S
C502 C500 1.378 . S
C502 C503 1.367 . S
C503 C502 1.367 . S
C503 C505 1.433 . S
C504 C500 1.350 . S
C504 C501 1.463 . S
C504 N508 1.427 . S
C505 H495 0.929 . S
C505 C503 1.433 . S
C505 N508 1.384 . S
C506 H497 0.929 . S
C506 C498 1.378 . S
C506 C501 1.350 . S
C507 H494 0.929 . S
C507 C499 1.433 . S
C507 N509 1.384 . S
N508 C504 1.427 . S
N508 C505 1.384 . S
N509 C501 1.427 . S
N509 C507 1.384 . S
H510 C516 0.930 . S
H511 C520 0.930 . S
H512 C525 0.929 . S
H513 C523 0.929 . S
H514 C518 0.929 . S
H515 C524 0.929 . S
C516 H510 0.930 . S
C516 C517 1.367 . S
C516 C524 1.378 . S
C517 C516 1.367 . S
C517 C525 1.433 . S
C518 H514 0.929 . S
C518 C520 1.378 . S
C518 C522 1.350 . S
C519 C522 1.463 . S
C519 C524 1.350 . S
C519 N527 1.427 . S
C520 H511 0.930 . S
C520 C518 1.378 . S
C520 C521 1.367 . S
C521 C520 1.367 . S
C521 C523 1.433 . S
C522 C518 1.350 . S
C522 C519 1.463 . S
C522 N526 1.427 . S
C523 H513 0.929 . S
C523 C521 1.433 . S
C523 N526 1.384 . S
C524 H515 0.929 . S
C524 C516 1.378 . S
C524 C519 1.350 . S
C525 H512 0.929 . S
C525 C517 1.433 . S
C525 N527 1.384 . S
N526 C522 1.427 . S
N526 C523 1.384 . S
N527 C519 1.427 . S
N527 C525 1.384 . S
H528 C534 0.930 . S
H529 C538 0.930 . S
H530 C543 0.929 . S
H531 C541 0.929 . S
H532 C536 0.929 . S
H533 C542 0.929 . S
C534 H528 0.930 . S
C534 C535 1.367 . S
C534 C542 1.378 . S
C535 C534 1.367 . S
C535 C543 1.433 . S
C536 H532 0.929 . S
C536 C538 1.378 . S
C536 C540 1.350 . S
C537 C540 1.463 . S
C537 C542 1.350 . S
C537 N545 1.427 . S
C538 H529 0.930 . S
C538 C536 1.378 . S
C538 C539 1.367 . S
C539 C538 1.367 . S
C539 C541 1.433 . S
C540 C536 1.350 . S
C540 C537 1.463 . S
C540 N544 1.427 . S
C541 H531 0.929 . S
C541 C539 1.433 . S
C541 N544 1.384 . S
C542 H533 0.929 . S
C542 C534 1.378 . S
C542 C537 1.350 . S
C543 H530 0.929 . S
C543 C535 1.433 . S
C543 N545 1.384 . S
N544 C540 1.427 . S
N544 C541 1.384 . S
N545 C537 1.427 . S
N545 C543 1.384 . S
H546 C552 0.930 . S
H547 C556 0.930 . S
H548 C561 0.929 . S
H549 C559 0.929 . S
H550 C554 0.929 . S
H551 C560 0.929 . S
C552 H546 0.930 . S
C552 C553 1.367 . S
C552 C560 1.378 . S
C553 C552 1.367 . S
C553 C561 1.433 . S
C554 H550 0.929 . S
C554 C556 1.378 . S
C554 C558 1.350 . S
C555 C558 1.463 . S
C555 C560 1.350 . S
C555 N563 1.427 . S
C556 H547 0.930 . S
C556 C554 1.378 . S
C556 C557 1.367 . S
C557 C556 1.367 . S
C557 C559 1.433 . S
C558 C554 1.350 . S
C558 C555 1.463 . S
C558 N562 1.427 . S
C559 H549 0.929 . S
C559 C557 1.433 . S
C559 N562 1.384 . S
C560 H551 0.929 . S
C560 C552 1.378 . S
C560 C555 1.350 . S
C561 H548 0.929 . S
C561 C553 1.433 . S
C561 N563 1.384 . S
N562 C558 1.427 . S
N562 C559 1.384 . S
N563 C555 1.427 . S
N563 C561 1.384 . S
H564 C570 0.930 . S
H565 C574 0.930 . S
H566 C579 0.929 1_554 S
H567 C577 0.929 . S
H568 C572 0.929 . S
H569 C578 0.929 . S
C570 H564 0.930 . S
C570 C571 1.367 . S
C570 C578 1.378 . S
C571 C570 1.367 . S
C571 C579 1.433 . S
C572 H568 0.929 . S
C572 C574 1.378 . S
C572 C576 1.350 . S
C573 C576 1.463 . S
C573 C578 1.350 . S
C573 N581 1.427 . S
C574 H565 0.930 . S
C574 C572 1.378 . S
C574 C575 1.367 . S
C575 C574 1.367 . S
C575 C577 1.433 . S
C576 C572 1.350 . S
C576 C573 1.463 . S
C576 N580 1.427 . S
C577 H567 0.929 . S
C577 C575 1.433 . S
C577 N580 1.384 . S
C578 H569 0.929 . S
C578 C570 1.378 . S
C578 C573 1.350 . S
C579 H566 0.929 1_556 S
C579 C571 1.433 . S
C579 N581 1.384 . S
N580 C576 1.427 . S
N580 C577 1.384 . S
N581 C573 1.427 . S
N581 C579 1.384 . S
H582 C588 0.930 . S
H583 C592 0.930 . S
H584 C597 0.929 . S
H585 C595 0.929 . S
H586 C590 0.929 . S
H587 C596 0.929 . S
C588 H582 0.930 . S
C588 C589 1.367 . S
C588 C596 1.378 . S
C589 C588 1.367 . S
C589 C597 1.433 . S
C590 H586 0.929 . S
C590 C592 1.378 . S
C590 C594 1.350 . S
C591 C594 1.463 . S
C591 C596 1.350 . S
C591 N599 1.427 . S
C592 H583 0.930 . S
C592 C590 1.378 . S
C592 C593 1.367 . S
C593 C592 1.367 . S
C593 C595 1.433 . S
C594 C590 1.350 . S
C594 C591 1.463 . S
C594 N598 1.427 . S
C595 H585 0.929 . S
C595 C593 1.433 . S
C595 N598 1.384 . S
C596 H587 0.929 . S
C596 C588 1.378 . S
C596 C591 1.350 . S
C597 H584 0.929 . S
C597 C589 1.433 . S
C597 N599 1.384 . S
N598 C594 1.427 . S
N598 C595 1.384 . S
N599 C591 1.427 . S
N599 C597 1.384 . S
C175 C0 1.471 . S
C179 C97 1.477 . S
C193 C15 1.472 . S
C197 C110 1.476 . S
C211 C125 1.470 . S
C215 C41 1.478 . S
C229 C42 1.477 . S
C233 C127 1.474 . S
C247 C57 1.478 . S
C251 C141 1.471 . S
C265 C167 1.472 . S
C269 C83 1.473 . S
C283 C113 1.559 . S
C287 C12 1.557 . S
C301 C27 1.564 . S
C305 C139 1.553 . S
C319 C153 1.559 . S
C323 C29 1.558 . S
C337 C155 1.554 . S
C341 C54 1.556 1_554 S
C355 C69 1.564 . S
C359 C85 1.554 . S
C373 C71 1.553 . S
C377 C98 1.565 . S
C391 C166 1.849 . S
C395 C1 1.844 . S
C409 C96 1.854 . S
C413 C14 1.856 . S
C427 C40 1.856 . S
C431 C111 1.854 . S
C445 C124 1.851 . S
C449 C43 1.845 . S
C463 C126 1.849 . S
C467 C56 1.853 . S
C481 C140 1.846 . S
C485 C82 1.846 . S
C499 C13 1.598 . S
C503 C152 1.597 . S
C517 C154 1.598 . S
C521 C26 1.599 . S
C535 C28 1.595 . S
C539 C84 1.594 . S
C553 C55 1.597 . S
C557 C99 1.596 . S
C571 C68 1.599 1_556 S
C575 C112 1.599 . S
C589 C70 1.596 . S
C593 C138 1.597 1_554 S
