# Generated by pormake.
# Topology sxc, (6)-cn, num edge types: 1
# Building blocks:
#     Node 0, Type 0, BuildingBlock: LEVNOQ01_clean_sbu_1, # of connection points: 6
#     Node 1, Type 0, BuildingBlock: LEVNOQ01_clean_sbu_1, # of connection points: 6
#     Node 2, Type 0, BuildingBlock: LEVNOQ01_clean_sbu_1, # of connection points: 6
#     Edge 3, Type (0, 0), BuildingBlock: MIFKUJ_clean_linker_0, # of connection points: 2
#     Edge 4, Type (0, 0), BuildingBlock: MIFKUJ_clean_linker_0, # of connection points: 2
#     Edge 5, Type (0, 0), BuildingBlock: MIFKUJ_clean_linker_0, # of connection points: 2
#     Edge 6, Type (0, 0), BuildingBlock: MIFKUJ_clean_linker_0, # of connection points: 2
#     Edge 7, Type (0, 0), BuildingBlock: MIFKUJ_clean_linker_0, # of connection points: 2
#     Edge 8, Type (0, 0), BuildingBlock: MIFKUJ_clean_linker_0, # of connection points: 2
#     Edge 9, Type (0, 0), BuildingBlock: MIFKUJ_clean_linker_0, # of connection points: 2
#     Edge 10, Type (0, 0), BuildingBlock: MIFKUJ_clean_linker_0, # of connection points: 2
#     Edge 11, Type (0, 0), BuildingBlock: MIFKUJ_clean_linker_0, # of connection points: 2
# Relax obj value: 0.100
# Max RMSD: 0.150
# Mean RMSD: 0.143
data_MOF--net-sxc--node1-LEVNOQ01_clean_sbu_1--edge1-MIFKUJ_clean_linker_0
_symmetry_space_group_name_H-M    P1
_symmetry_Int_Tables_number       1
_symmetry_cell_setting            triclinic
loop_
_symmetry_equiv_pos_as_xyz
'x, y, z'
_cell_length_a     19.940821
_cell_length_b     19.856218
_cell_length_c     59.764627
_cell_angle_alpha  100.02885
_cell_angle_beta   90.277377
_cell_angle_gamma 119.26248
loop_
_atom_site_label
_atom_site_type_symbol
_atom_site_fract_x
_atom_site_fract_y
_atom_site_fract_z
_atom_type_partial_charge
O0 O 0.11455 0.98385 0.99632 0.0
Mg1 Mg 0.00372 0.96262 0.98518 0.0
O2 O 0.04262 0.97491 0.02365 0.0
Mg3 Mg 0.0099 0.06773 0.01405 0.0
O4 O 0.00131 0.04949 0.97296 0.0
O5 O -0.01792 0.93573 0.95104 0.0
O6 O 0.97864 0.15798 0.00313 0.0
O7 O 0.13728 0.1529 0.01399 0.0
Mg8 Mg 0.02047 0.18111 0.04241 0.0
O9 O 0.01631 0.09064 0.0552 0.0
O10 O 0.91644 0.17494 0.03111 0.0
O11 O 0.12505 0.25519 0.02908 0.0
O12 O 0.03613 0.20545 0.07649 0.0
C13 C 0.85926 0.90788 0.00823 0.0
C14 C 0.09201 0.95919 0.01439 0.0
C15 C -0.0119 0.00422 0.95296 0.0
C16 C 0.93495 0.18378 0.01128 0.0
C17 C 0.16438 0.2267 0.01923 0.0
C18 C 0.02727 0.13598 0.07512 0.0
O19 O 0.90248 0.884 0.99875 0.0
O20 O 0.8819 0.98091 0.01356 0.0
O21 O 0.22771 0.90757 0.32896 0.0
Mg22 Mg 0.11369 0.88718 0.32145 0.0
O23 O 0.27019 0.03403 0.34135 0.0
Mg24 Mg 0.1504 0.00902 0.34857 0.0
O25 O 0.10685 0.97093 0.30826 0.0
O26 O 0.08591 0.85475 0.28765 0.0
O27 O 0.0295 0.98443 0.35543 0.0
O28 O 0.17396 0.12816 0.33694 0.0
Mg29 Mg 0.18649 0.13242 0.37689 0.0
O30 O 0.19822 0.04824 0.38847 0.0
O31 O 0.07219 0.11034 0.36919 0.0
O32 O 0.2749 0.21292 0.36036 0.0
O33 O 0.21801 0.1618 0.41055 0.0
C34 C 0.06772 0.82077 0.35471 0.0
C35 C 0.28322 0.9773 0.3356 0.0
C36 C 0.08984 0.92201 0.2887 0.0
C37 C 0.01683 0.04146 0.36133 0.0
C38 C 0.22977 0.19863 0.34316 0.0
C39 C 0.21882 0.0964 0.40829 0.0
O40 O 0.02257 0.80864 0.33777 0.0
O41 O 0.12592 0.88992 0.36069 0.0
O42 O -0.00645 -0.00654 0.64636 0.0
Mg43 Mg 0.07499 0.10721 0.63944 0.0
O44 O 0.07108 0.96948 0.66669 0.0
Mg45 Mg 0.17504 0.09532 0.67674 0.0
O46 O 0.1775 0.10904 0.63968 0.0
O47 O 0.12512 0.1221 0.60904 0.0
O48 O 0.27647 0.22373 0.68612 0.0
O49 O 0.26571 0.05448 0.66421 0.0
Mg50 Mg 0.26278 0.08096 0.70449 0.0
O51 O 0.16724 0.08244 0.71584 0.0
O52 O 0.3564 0.18965 0.69922 0.0
O53 O 0.25484 0.97536 0.68656 0.0
O54 O 0.26045 0.08427 0.738 0.0
C55 C 0.06134 0.17997 0.6806 0.0
C56 C 0.0049 0.94811 0.65665 0.0
C57 C 0.17985 0.11669 0.61864 0.0
C58 C 0.34478 0.24102 0.69283 0.0
C59 C 0.28209 0.00409 0.66933 0.0
C60 C 0.19582 0.08369 0.73568 0.0
O61 O 0.08338 0.2052 0.66248 0.0
O62 O 0.08318 0.13465 0.68674 0.0
H63 H 0.03501 0.27434 0.98418 0.0
H64 H 0.06544 0.40736 0.98248 0.0
H65 H 0.8642 0.37397 0.01659 0.0
H66 H 0.83636 0.24179 0.0198 0.0
H67 H 0.02018 0.4917 0.96888 0.0
H68 H 0.90455 0.53199 0.05674 0.0
H69 H 0.87796 0.47272 0.09097 0.0
H70 H 0.04366 0.39645 0.0762 0.0
H71 H 0.07199 0.4562 0.04212 0.0
H72 H -0.00602 0.82646 0.98603 0.0
H73 H 0.97427 0.69525 0.98422 0.0
H74 H 0.15005 0.78432 0.04099 0.0
H75 H 0.16764 0.91784 0.04346 0.0
H76 H 0.03159 0.64685 0.04501 0.0
H77 H 0.19056 0.73496 0.98663 0.0
H78 H 0.23833 0.79949 0.95387 0.0
H79 H 0.02624 0.62887 0.91257 0.0
H80 H 0.97676 0.56386 0.94517 0.0
C81 C -0.00433 0.29417 0.99071 0.0
C82 C 0.93429 0.24849 0.00266 0.0
C83 C 0.0134 0.37062 0.98977 0.0
C84 C 0.96892 0.4017 0.00026 0.0
C85 C 0.90101 0.35202 0.00919 0.0
C86 C 0.8845 0.27622 0.01075 0.0
C87 C -0.00183 0.48757 0.00402 0.0
C88 C 0.0225 0.52549 0.98551 0.0
C89 C 0.00539 0.5327 0.02601 0.0
C90 C -0.01 0.49819 0.0468 0.0
C91 C 0.93567 0.50306 0.0609 0.0
C92 C 0.92022 0.46927 0.08026 0.0
C93 C 0.95899 0.43073 0.08574 0.0
C94 C 0.01359 0.42623 0.07193 0.0
C95 C 0.02941 0.4601 0.0526 0.0
C96 C 0.02789 0.81806 0.99832 0.0
C97 C 0.08216 0.88159 0.01491 0.0
C98 C 0.01722 0.74318 0.9971 0.0
C99 C 0.06203 0.73033 0.01206 0.0
C100 C 0.1155 0.79345 0.02912 0.0
C101 C 0.12559 0.86924 0.03055 0.0
C102 C 0.0504 0.6499 0.00968 0.0
C103 C 0.02975 0.61302 0.02844 0.0
C104 C 0.05029 0.6065 0.98818 0.0
C105 C 0.07984 0.64476 0.96839 0.0
C106 C 0.15394 0.71145 0.97059 0.0
C107 C 0.18134 0.74807 0.95205 0.0
C108 C 0.13531 0.71836 0.93116 0.0
C109 C 0.06184 0.65179 0.92876 0.0
C110 C 0.03415 0.61492 0.94725 0.0
H111 H 0.15659 0.74687 0.91683 0.0
H112 H 0.94677 0.40443 0.10069 0.0
H113 H 0.32697 0.87705 0.34626 0.0
H114 H 0.45869 0.89963 0.35085 0.0
H115 H 0.54747 0.12986 0.33467 0.0
H116 H 0.41549 0.10904 0.33092 0.0
H117 H 0.57298 0.97934 0.30795 0.0
H118 H 0.61359 0.17466 0.37599 0.0
H119 H 0.57756 0.22122 0.41244 0.0
H120 H 0.57431 0.03374 0.43986 0.0
H121 H 0.6089 0.98517 0.40337 0.0
H122 H -0.01455 0.14381 0.34606 0.0
H123 H 0.85831 0.12864 0.33738 0.0
H124 H 0.74941 0.9013 0.35638 0.0
H125 H 0.87706 0.91447 0.36414 0.0
H126 H 0.73663 0.05788 0.38089 0.0
H127 H 0.69039 0.85893 0.31459 0.0
H128 H 0.70112 0.79216 0.27713 0.0
H129 H 0.70037 0.9707 0.24583 0.0
H130 H 0.69206 0.03996 0.28327 0.0
C131 C 0.37467 0.93261 0.3438 0.0
C132 C 0.3619 -0.0087 0.33812 0.0
C133 C 0.44942 0.94557 0.34662 0.0
C134 C 0.5117 0.0166 0.34337 0.0
C135 C 0.49942 0.07531 0.33757 0.0
C136 C 0.42458 0.06322 0.33533 0.0
C137 C 0.58855 0.02519 0.34407 0.0
C138 C 0.61024 -0.00161 0.32373 0.0
C139 C 0.63395 0.04691 0.36494 0.0
C140 C 0.6126 0.07557 0.38683 0.0
C141 C 0.60402 0.14265 0.38966 0.0
C142 C 0.58417 0.1696 0.41036 0.0
C143 C 0.5733 0.13026 0.42842 0.0
C144 C 0.58251 0.06401 0.42583 0.0
C145 C 0.60225 0.03677 0.40515 0.0
C146 C 0.93427 0.09024 0.34817 0.0
C147 C 0.94025 0.03061 0.35607 0.0
C148 C 0.86209 0.0813 0.34291 0.0
C149 C 0.79535 0.01337 0.34589 0.0
C150 C 0.80088 0.95324 0.35354 0.0
C151 C 0.87327 0.96112 0.35818 0.0
C152 C 0.72159 0.01204 0.34465 0.0
C153 C 0.70045 0.04021 0.36497 0.0
C154 C 0.6763 -0.00916 0.32372 0.0
C155 C 0.69234 0.95562 0.30189 0.0
C156 C 0.69504 0.88541 0.29989 0.0
C157 C 0.69977 0.84658 0.27859 0.0
C158 C 0.70089 0.87687 0.25909 0.0
C159 C 0.699 0.94702 0.26093 0.0
C160 C 0.69488 0.98639 0.28221 0.0
H161 H 0.70389 0.84636 0.24259 0.0
H162 H 0.55802 0.15125 0.44445 0.0
H163 H 0.86111 0.92329 0.66255 0.0
H164 H 0.74899 0.80401 0.6696 0.0
H165 H 0.88395 0.6871 0.66549 0.0
H166 H -0.00279 0.80737 0.65846 0.0
H167 H 0.73126 0.59373 0.64101 0.0
H168 H 0.85562 0.74714 0.71542 0.0
H169 H 0.91662 0.86839 0.74525 0.0
H170 H 0.70487 0.87549 0.74495 0.0
H171 H 0.6427 0.75449 0.71489 0.0
H172 H 0.49275 0.27455 0.69 0.0
H173 H 0.60445 0.39914 0.6864 0.0
H174 H 0.46089 0.5062 0.68819 0.0
H175 H 0.34804 0.38089 0.69234 0.0
H176 H 0.61643 0.60546 0.71421 0.0
H177 H 0.4947 0.45687 0.63843 0.0
H178 H 0.43032 0.33042 0.61065 0.0
H179 H 0.63586 0.31256 0.61516 0.0
H180 H 0.70146 0.4391 0.64292 0.0
C181 C 0.86645 0.87161 0.66266 0.0
C182 C 0.93723 0.87382 0.65954 0.0
C183 C 0.80264 0.80387 0.66692 0.0
C184 C 0.80831 0.73691 0.66806 0.0
C185 C 0.87855 0.73827 0.66457 0.0
C186 C 0.94302 0.80675 0.66063 0.0
C187 C 0.74109 0.66651 0.67354 0.0
C188 C 0.70678 0.59613 0.6571 0.0
C189 C 0.70818 0.67023 0.69437 0.0
C190 C 0.74472 0.74215 0.71274 0.0
C191 C 0.82218 0.77482 0.72159 0.0
C192 C 0.85696 0.84346 0.73856 0.0
C193 C 0.81475 0.87979 0.74691 0.0
C194 C 0.73751 0.8473 0.73842 0.0
C195 C 0.70241 0.77859 0.72144 0.0
C196 C 0.48516 0.32507 0.69026 0.0
C197 C 0.41189 0.31829 0.69171 0.0
C198 C 0.54898 0.39607 0.68805 0.0
C199 C 0.54079 0.46169 0.68703 0.0
C200 C 0.46823 0.45614 0.6891 0.0
C201 C 0.40391 0.38459 0.69126 0.0
C202 C 0.60693 0.53316 0.68168 0.0
C203 C 0.64092 0.60351 0.69811 0.0
C204 C 0.63954 0.52971 0.66085 0.0
C205 C 0.60291 0.4573 0.64272 0.0
C206 C 0.52629 0.42618 0.63334 0.0
C207 C 0.48955 0.3545 0.61763 0.0
C208 C 0.52893 0.31347 0.61112 0.0
C209 C 0.60551 0.34457 0.6201 0.0
C210 C 0.64265 0.41647 0.63575 0.0
H211 H 0.49987 0.2575 0.59918 0.0
H212 H 0.84189 0.93297 0.76 0.0
H213 H 0.9454 0.05992 0.69721 0.0
H214 H 0.81023 0.02742 0.69589 0.0
H215 H 0.87223 0.24936 0.67727 0.0
H216 H 0.00764 0.2816 0.67796 0.0
H217 H 0.75081 0.19797 0.7074 0.0
H218 H 0.82493 0.10625 0.63746 0.0
H219 H 0.87735 0.03452 0.61258 0.0
H220 H 0.70072 0.81549 0.62705 0.0
H221 H 0.64919 0.88632 0.65285 0.0
H222 H 0.40133 0.11941 0.65222 0.0
H223 H 0.53474 0.14652 0.65423 0.0
H224 H 0.4629 0.92419 0.67396 0.0
H225 H 0.32906 0.89739 0.67266 0.0
H226 H 0.58797 0.973 0.64399 0.0
H227 H 0.51207 0.06386 0.71333 0.0
H228 H 0.45842 0.13504 0.73785 0.0
H229 H 0.63786 0.35495 0.72473 0.0
H230 H 0.69053 0.2847 0.6992 0.0
C231 C 0.93099 0.1033 0.69368 0.0
C232 C -0.01264 0.17332 0.68753 0.0
C233 C 0.85341 0.08417 0.69272 0.0
C234 C 0.83111 0.13533 0.68605 0.0
C235 C 0.88825 0.20888 0.68232 0.0
C236 C 0.96566 0.22741 0.68283 0.0
C237 C 0.74818 0.10894 0.68054 0.0
C238 C 0.71536 0.14929 0.69342 0.0
C239 C 0.70171 0.04442 0.66249 0.0
C240 C 0.73389 0.00186 0.64741 0.0
C241 C 0.79808 0.04298 0.6357 0.0
C242 C 0.82755 0.00243 0.62138 0.0
C243 C 0.79239 0.92049 0.61823 0.0
C244 C 0.72786 0.87898 0.62949 0.0
C245 C 0.69881 0.91936 0.64409 0.0
C246 C 0.41313 0.07475 0.65617 0.0
C247 C 0.35452 0.00646 0.66255 0.0
C248 C 0.48972 0.09079 0.65749 0.0
C249 C 0.50877 0.03811 0.66472 0.0
C250 C 0.44934 0.96583 0.66852 0.0
C251 C 0.37285 0.95043 0.66767 0.0
C252 C 0.59078 0.06226 0.67078 0.0
C253 C 0.62338 0.02151 0.65801 0.0
C254 C 0.63702 0.12632 0.68896 0.0
C255 C 0.60457 0.16873 0.704 0.0
C256 C 0.53929 0.12722 0.71528 0.0
C257 C 0.50909 0.16745 0.72941 0.0
C258 C 0.54464 0.24946 0.73282 0.0
C259 C 0.61036 0.29139 0.72206 0.0
C260 C 0.6401 0.25133 0.70762 0.0
H261 H 0.52127 0.28054 0.7438 0.0
H262 H 0.81521 0.88918 0.60711 0.0
H263 H 0.82278 0.8127 0.03835 0.0
H264 H 0.6998 0.69117 0.03707 0.0
H265 H 0.60369 0.74522 0.98241 0.0
H266 H 0.72582 0.86889 0.98457 0.0
H267 H 0.49776 0.67556 0.00914 0.0
H268 H 0.68697 0.62797 0.97194 0.0
H269 H 0.81368 0.63555 0.96878 0.0
H270 H 0.77429 0.50549 0.02228 0.0
H271 H 0.648 0.49847 0.02611 0.0
H272 H 0.18762 0.29215 0.98232 0.0
H273 H 0.30935 0.40096 0.97449 0.0
H274 H 0.42694 0.39045 0.03356 0.0
H275 H 0.30541 0.28018 0.04096 0.0
H276 H 0.52051 0.43409 0.9987 0.0
H277 H 0.34298 0.50137 0.03942 0.0
H278 H 0.21758 0.4961 0.04352 0.0
H279 H 0.23681 0.58971 0.9828 0.0
H280 H 0.36197 0.59434 0.97814 0.0
C281 C 0.77413 0.79967 0.02674 0.0
C282 C 0.78223 0.84926 0.01171 0.0
C283 C 0.70464 0.73009 0.02576 0.0
C284 C 0.6439 0.70834 0.00912 0.0
C285 C 0.65033 0.76089 0.9952 0.0
C286 C 0.71946 0.83143 0.99654 0.0
C287 C 0.57556 0.62902 0.00544 0.0
C288 C 0.5026 0.62269 0.00643 0.0
C289 C 0.58246 0.56027 0.00201 0.0
C290 C 0.65801 0.56314 0.99941 0.0
C291 C 0.70543 0.60135 0.98313 0.0
C292 C 0.77724 0.60557 0.98122 0.0
C293 C 0.80201 0.57105 0.99533 0.0
C294 C 0.755 0.5322 0.01136 0.0
C295 C 0.68327 0.52805 0.0134 0.0
C296 C 0.24027 0.31187 0.99311 0.0
C297 C 0.23849 0.27947 0.01226 0.0
C298 C 0.30933 0.37356 0.98866 0.0
C299 C 0.37633 0.4042 0.00371 0.0
C300 C 0.37558 0.36733 0.0218 0.0
C301 C 0.30657 0.30501 0.02609 0.0
C302 C 0.4434 0.48124 0.00288 0.0
C303 C 0.51595 0.48707 0.00099 0.0
C304 C 0.43633 0.54965 0.00541 0.0
C305 C 0.36141 0.54744 0.0083 0.0
C306 C 0.32021 0.5203 0.02685 0.0
C307 C 0.24921 0.51745 0.02928 0.0
C308 C 0.21924 0.54247 0.0134 0.0
C309 C 0.26014 0.57029 0.99505 0.0
C310 C 0.33108 0.57302 0.99251 0.0
H311 H 0.16453 0.54064 0.01537 0.0
H312 H 0.85751 0.5742 0.99382 0.0
H313 H 0.3285 0.35629 0.35814 0.0
H314 H 0.29701 0.46087 0.35906 0.0
H315 H 0.08445 0.29777 0.31636 0.0
H316 H 0.11456 0.19166 0.31565 0.0
H317 H 0.1737 0.47105 0.30956 0.0
H318 H 0.05202 0.30728 0.36458 0.0
H319 H 0.05225 0.23463 0.39406 0.0
H320 H 0.2278 0.45002 0.43634 0.0
H321 H 0.22913 0.52388 0.40693 0.0
H322 H 0.9638 0.66449 0.3395 0.0
H323 H -0.01062 0.55579 0.33828 0.0
H324 H 0.20308 0.71132 0.38127 0.0
H325 H 0.17894 0.82148 0.38228 0.0
H326 H 0.11 0.53938 0.38756 0.0
H327 H 0.23147 0.70258 0.33198 0.0
H328 H 0.22901 0.77439 0.30252 0.0
H329 H 0.05112 0.55837 0.26114 0.0
H330 H 0.05195 0.48537 0.29054 0.0
C331 C 0.27618 0.34286 0.34829 0.0
C332 C 0.2235 0.26505 0.33713 0.0
C333 C 0.25823 0.40286 0.34891 0.0
C334 C 0.18791 0.38668 0.3381 0.0
C335 C 0.13898 0.31131 0.32486 0.0
C336 C 0.1565 0.25077 0.32442 0.0
C337 C 0.1616 0.44534 0.34333 0.0
C338 C 0.15888 0.48529 0.3265 0.0
C339 C 0.14316 0.46459 0.36553 0.0
C340 C 0.14122 0.42093 0.38349 0.0
C341 C 0.09105 0.33905 0.3801 0.0
C342 C 0.09085 0.29766 0.39679 0.0
C343 C 0.14028 0.33762 0.41702 0.0
C344 C 0.18965 0.41914 0.42064 0.0
C345 C 0.19006 0.46083 0.40399 0.0
C346 C 0.01509 0.67539 0.34936 0.0
C347 C 0.07003 0.75225 0.36064 0.0
C348 C 0.02964 0.61302 0.34857 0.0
C349 C 0.09869 0.62594 0.35934 0.0
C350 C 0.14954 0.70034 0.37278 0.0
C351 C 0.13547 0.76322 0.37338 0.0
C352 C 0.1223 0.56524 0.35382 0.0
C353 C 0.12461 0.52498 0.37061 0.0
C354 C 0.1401 0.54554 0.33156 0.0
C355 C 0.14127 0.58867 0.31353 0.0
C356 C 0.19152 0.67048 0.31666 0.0
C357 C 0.19044 0.7114 0.29997 0.0
C358 C 0.1397 0.67103 0.28001 0.0
C359 C 0.0903 0.58957 0.27663 0.0
C360 C 0.09114 0.54836 0.29328 0.0
H361 H 0.13879 0.70284 0.26713 0.0
H362 H 0.14016 0.30546 0.42991 0.0
H363 H 0.12044 0.0673 0.28192 0.0
H364 H 0.11195 0.1038 0.24528 0.0
H365 H 0.02927 0.86378 0.2103 0.0
H366 H 0.0386 0.8272 0.2465 0.0
H367 H 0.139 0.96957 0.18821 0.0
H368 H 0.91349 0.93617 0.22495 0.0
H369 H 0.85612 0.96928 0.25835 0.0
H370 H 0.94768 0.20463 0.24699 0.0
H371 H 0.01238 0.17534 0.21475 0.0
H372 H 0.00148 -0.0094 0.08068 0.0
H373 H 0.00839 0.95065 0.11686 0.0
H374 H 0.06935 0.18316 0.15393 0.0
H375 H 0.06082 0.22262 0.11831 0.0
H376 H 0.96886 0.0788 0.17492 0.0
H377 H 0.20559 0.1256 0.14382 0.0
H378 H 0.28631 0.10925 0.11463 0.0
H379 H 0.18177 0.86333 0.11646 0.0
H380 H 0.09964 0.87804 0.14548 0.0
C381 C 0.09999 0.02231 0.26643 0.0
C382 C 0.07975 0.9443 0.26713 0.0
C383 C 0.09562 0.04329 0.24553 0.0
C384 C 0.06984 0.98633 0.22511 0.0
C385 C 0.04972 0.90865 0.22583 0.0
C386 C 0.05449 0.8878 0.2466 0.0
C387 C 0.06073 0.00619 0.20296 0.0
C388 C 0.10116 -0.00735 0.18519 0.0
C389 C 0.01255 0.03787 0.19928 0.0
C390 C 0.96872 0.05374 0.21754 0.0
C391 C 0.92204 -0.00476 0.22963 0.0
C392 C 0.88827 0.01339 0.24843 0.0
C393 C 0.89715 0.08864 0.25463 0.0
C394 C 0.9407 0.14627 0.24216 0.0
C395 C 0.97674 0.12918 0.22376 0.0
C396 C 0.01614 0.03298 0.09657 0.0
C397 C 0.03069 0.10976 0.09658 0.0
C398 C 0.02029 0.01022 0.11721 0.0
C399 C 0.03994 0.06419 0.13811 0.0
C400 C 0.05374 0.14042 0.13807 0.0
C401 C 0.04913 0.16294 0.11759 0.0
C402 C 0.04749 0.04257 0.16014 0.0
C403 C 0.00651 0.05546 0.17788 0.0
C404 C 0.09628 0.01174 0.16396 0.0
C405 C 0.14582 0.00273 0.14661 0.0
C406 C 0.19939 0.0679 0.13786 0.0
C407 C 0.24546 0.05896 0.12137 0.0
C408 C 0.23897 0.98523 0.11363 0.0
C409 C 0.1866 0.92036 0.12244 0.0
C410 C 0.1403 0.92898 0.13891 0.0
H411 H 0.27467 0.97841 0.10085 0.0
H412 H 0.87057 0.10236 0.26915 0.0
H413 H 0.19363 0.95254 0.41554 0.0
H414 H 0.22454 0.92445 0.45156 0.0
H415 H 0.33096 0.17156 0.48257 0.0
H416 H 0.30133 0.19968 0.44714 0.0
H417 H 0.41059 0.10765 0.49751 0.0
H418 H 0.13698 0.04067 0.48563 0.0
H419 H 0.00603 0.96269 0.46495 0.0
H420 H -0.0022 0.74868 0.47366 0.0
H421 H 0.12911 0.82559 0.49422 0.0
H422 H 0.27933 0.22145 0.59492 0.0
H423 H 0.33299 0.18826 0.56091 0.0
H424 H 0.25145 0.95542 0.57431 0.0
H425 H 0.20068 -0.00975 0.60909 0.0
H426 H 0.17681 0.95952 0.5355 0.0
H427 H 0.43039 0.04331 0.56256 0.0
H428 H 0.56103 0.12328 0.58321 0.0
H429 H 0.6084 0.30879 0.54733 0.0
H430 H 0.47777 0.23058 0.52667 0.0
C431 C 0.22479 0.00079 0.42998 0.0
C432 C 0.24385 0.07809 0.42865 0.0
C433 C 0.24246 0.98473 0.4505 0.0
C434 C 0.27971 0.04591 0.46982 0.0
C435 C 0.3026 0.12342 0.46793 0.0
C436 C 0.28473 0.13929 0.44766 0.0
C437 C 0.28729 0.03069 0.49288 0.0
C438 C 0.35979 0.07467 0.50589 0.0
C439 C 0.22151 0.98465 0.50353 0.0
C440 C 0.14301 0.93862 0.49112 0.0
C441 C 0.10736 0.97694 0.48297 0.0
C442 C 0.03312 0.93299 0.47131 0.0
C443 C -0.00626 0.85076 0.46791 0.0
C444 C 0.02847 0.81235 0.47624 0.0
C445 C 0.10278 0.85606 0.48788 0.0
C446 C 0.27707 0.16492 0.59132 0.0
C447 C 0.23615 0.10832 0.60445 0.0
C448 C 0.30779 0.14586 0.5719 0.0
C449 C 0.2958 0.0691 0.56498 0.0
C450 C 0.26182 0.01508 0.57943 0.0
C451 C 0.23301 0.03505 0.59929 0.0
C452 C 0.2994 0.0416 0.54055 0.0
C453 C 0.22869 -0.01046 0.52717 0.0
C454 C 0.36673 0.08106 0.52969 0.0
C455 C 0.44409 0.13068 0.54295 0.0
C456 C 0.46832 0.10145 0.5592 0.0
C457 C 0.54258 0.14634 0.57084 0.0
C458 C 0.59323 0.2207 0.5664 0.0
C459 C 0.56933 0.25085 0.55059 0.0
C460 C 0.49519 0.20617 0.53888 0.0
H461 H 0.65086 0.25516 0.57532 0.0
H462 H 0.93624 0.81682 0.4589 0.0
H463 H 0.04258 0.00096 0.74254 0.0
H464 H -0.0112 0.00313 0.77951 0.0
H465 H 0.21329 0.18956 0.8116 0.0
H466 H 0.26716 0.18392 0.77534 0.0
H467 H 0.16424 0.07932 0.8337 0.0
H468 H 0.05059 0.21356 0.80331 0.0
H469 H 0.97256 0.23002 0.77489 0.0
H470 H 0.7703 0.02114 0.78535 0.0
H471 H 0.84742 0.00252 0.81353 0.0
H472 H 0.07512 0.15139 0.944 0.0
H473 H 0.08973 0.18421 0.90591 0.0
H474 H 0.90476 0.95026 0.87672 0.0
H475 H 0.89161 0.91648 0.9145 0.0
H476 H 0.92731 0.08885 0.85367 0.0
H477 H 0.0489 0.94431 0.87728 0.0
H478 H 0.12604 0.92572 0.90547 0.0
H479 H 0.3147 0.15919 0.90707 0.0
H480 H 0.23793 0.17946 0.87913 0.0
C481 C 0.07963 0.0429 0.75753 0.0
C482 C 0.15893 0.09145 0.75638 0.0
C483 C 0.04899 0.04456 0.77856 0.0
C484 C 0.09712 0.09651 0.79838 0.0
C485 C 0.1752 0.14844 0.79666 0.0
C486 C 0.20594 0.14524 0.77595 0.0
C487 C 0.06971 0.09192 0.82139 0.0
C488 C 0.11321 0.08308 0.83802 0.0
C489 C 0.00183 0.09435 0.82701 0.0
C490 C 0.955 0.10626 0.8104 0.0
C491 C -0.01042 0.17081 0.79945 0.0
C492 C 0.9455 0.18056 0.78338 0.0
C493 C 0.86655 0.12657 0.77828 0.0
C494 C 0.83145 0.06295 0.78933 0.0
C495 C 0.87534 0.05276 0.80535 0.0
C496 C 0.03577 0.10814 0.92956 0.0
C497 C -0.01682 0.03115 0.93195 0.0
C498 C 0.04383 0.12699 0.90789 0.0
C499 C -0.00173 0.06945 0.88861 0.0
C500 C 0.93983 -0.00452 0.89144 0.0
C501 C 0.93299 0.97609 0.91295 0.0
C502 C 0.02348 0.07897 0.86566 0.0
C503 C 0.97908 0.08702 0.84914 0.0
C504 C 0.09079 0.07624 0.85994 0.0
C505 C 0.13747 0.06371 0.87638 0.0
C506 C 0.1066 -0.00814 0.8838 0.0
C507 C 0.15024 0.98098 0.8997 0.0
C508 C 0.22515 0.04134 0.90811 0.0
C509 C 0.25661 0.11257 0.90058 0.0
C510 C 0.21308 0.12379 0.88472 0.0
H511 H 0.25887 0.03283 0.92042 0.0
H512 H 0.83256 0.13411 0.7658 0.0
loop_
_geom_bond_atom_site_label_1
_geom_bond_atom_site_label_2
_geom_bond_distance
_geom_bond_site_symmetry_2
_ccdc_geom_bond_type
O0 Mg1 1.990 1_455 S
O0 C14 1.253 1_556 S
Mg1 O0 1.990 1_655 S
Mg1 O4 2.180 1_665 S
Mg1 O5 2.117 1_655 S
Mg1 O19 2.030 . S
O2 Mg3 2.072 1_565 S
O2 C14 1.260 . S
Mg3 O2 2.072 1_545 S
Mg3 O4 2.099 1_554 S
Mg3 O6 2.079 . S
Mg3 O7 2.072 . S
Mg3 O9 2.099 . S
Mg3 O20 2.079 1_445 S
O4 Mg1 2.180 1_445 S
O4 Mg3 2.099 1_556 S
O4 C15 1.279 . S
O5 Mg1 2.117 1_455 S
O5 C15 1.250 1_565 S
O6 Mg3 2.079 . S
O6 C16 1.264 . S
O7 Mg3 2.072 . S
O7 C17 1.260 . S
Mg8 O9 2.180 . S
Mg8 O10 2.030 . S
Mg8 O11 1.990 . S
Mg8 O12 2.117 . S
O9 Mg3 2.099 . S
O9 Mg8 2.180 . S
O9 C18 1.279 . S
O10 Mg8 2.030 . S
O10 C16 1.248 . S
O11 Mg8 1.990 . S
O11 C17 1.253 . S
O12 Mg8 2.117 . S
O12 C18 1.250 . S
C13 O19 1.248 1_554 S
C13 O20 1.264 . S
C14 O0 1.253 1_554 S
C14 O2 1.260 . S
C15 O4 1.279 . S
C15 O5 1.250 1_545 S
C16 O6 1.264 . S
C16 O10 1.248 . S
C17 O7 1.260 . S
C17 O11 1.253 . S
C18 O9 1.279 . S
C18 O12 1.250 . S
O19 Mg1 2.030 . S
O19 C13 1.248 1_556 S
O20 Mg3 2.079 1_665 S
O20 C13 1.264 . S
O21 Mg22 1.990 1_545 S
O21 C35 1.253 . S
Mg22 O21 1.990 1_565 S
Mg22 O25 2.180 1_565 S
Mg22 O26 2.117 1_565 S
Mg22 O40 2.030 . S
O23 Mg24 2.072 . S
O23 C35 1.260 . S
Mg24 O23 2.072 . S
Mg24 O25 2.099 . S
Mg24 O27 2.079 1_545 S
Mg24 O28 2.072 . S
Mg24 O30 2.099 . S
Mg24 O41 2.079 1_545 S
O25 Mg22 2.180 1_545 S
O25 Mg24 2.099 . S
O25 C36 1.279 . S
O26 Mg22 2.117 1_545 S
O26 C36 1.250 . S
O27 Mg24 2.079 1_565 S
O27 C37 1.264 1_465 S
O28 Mg24 2.072 . S
O28 C38 1.260 . S
Mg29 O30 2.180 . S
Mg29 O31 2.030 . S
Mg29 O32 1.990 . S
Mg29 O33 2.117 . S
O30 Mg24 2.099 . S
O30 Mg29 2.180 . S
O30 C39 1.279 . S
O31 Mg29 2.030 . S
O31 C37 1.248 1_455 S
O32 Mg29 1.990 . S
O32 C38 1.253 . S
O33 Mg29 2.117 . S
O33 C39 1.250 . S
C34 O40 1.248 . S
C34 O41 1.264 . S
C35 O21 1.253 . S
C35 O23 1.260 . S
C36 O25 1.279 . S
C36 O26 1.250 . S
C37 O27 1.264 1_645 S
C37 O31 1.248 1_655 S
C38 O28 1.260 . S
C38 O32 1.253 . S
C39 O30 1.279 . S
C39 O33 1.250 . S
O40 Mg22 2.030 . S
O40 C34 1.248 . S
O41 Mg24 2.079 1_565 S
O41 C34 1.264 . S
O42 Mg43 1.990 1_565 S
O42 C56 1.253 . S
Mg43 O42 1.990 1_545 S
Mg43 O46 2.180 . S
Mg43 O47 2.117 1_545 S
Mg43 O61 2.030 1_455 S
O44 Mg45 2.072 1_565 S
O44 C56 1.260 . S
Mg45 O44 2.072 1_545 S
Mg45 O46 2.099 . S
Mg45 O48 2.079 . S
Mg45 O49 2.072 . S
Mg45 O51 2.099 . S
Mg45 O62 2.079 . S
O46 Mg43 2.180 . S
O46 Mg45 2.099 . S
O46 C57 1.279 . S
O47 Mg43 2.117 1_565 S
O47 C57 1.250 1_565 S
O48 Mg45 2.079 . S
O48 C58 1.264 . S
O49 Mg45 2.072 . S
O49 C59 1.260 . S
Mg50 O51 2.180 . S
Mg50 O52 2.030 . S
Mg50 O53 1.990 . S
Mg50 O54 2.117 . S
O51 Mg45 2.099 . S
O51 Mg50 2.180 . S
O51 C60 1.279 . S
O52 Mg50 2.030 . S
O52 C58 1.248 . S
O53 Mg50 1.990 . S
O53 C59 1.253 . S
O54 Mg50 2.117 . S
O54 C60 1.250 . S
C55 O61 1.248 1_455 S
C55 O62 1.264 . S
C56 O42 1.253 . S
C56 O44 1.260 . S
C57 O46 1.279 . S
C57 O47 1.250 1_545 S
C58 O48 1.264 . S
C58 O52 1.248 . S
C59 O49 1.260 . S
C59 O53 1.253 . S
C60 O51 1.279 . S
C60 O54 1.250 . S
O61 Mg43 2.030 1_655 S
O61 C55 1.248 1_655 S
O62 Mg45 2.079 . S
O62 C55 1.264 . S
H63 C81 0.951 . S
H64 C83 0.951 . S
H65 C85 0.936 1_556 S
H66 C86 0.944 1_556 S
H67 C88 0.950 . S
H68 C91 0.950 . S
H69 C92 0.950 . S
H70 C94 0.950 . S
H71 C95 0.950 . S
H72 C96 0.930 1_656 S
H73 C98 0.946 1_656 S
H74 C100 0.950 . S
H75 C101 0.950 . S
H76 C103 0.950 . S
H77 C106 0.950 . S
H78 C107 0.950 . S
H79 C109 0.950 . S
H80 C110 0.950 . S
C81 H63 0.951 . S
C81 C82 1.366 . S
C81 C83 1.388 . S
C82 C81 1.366 . S
C82 C86 1.393 1_455 S
C83 H64 0.951 . S
C83 C81 1.388 . S
C83 C84 1.366 . S
C84 C83 1.366 . S
C84 C85 1.425 1_455 S
C84 C87 1.499 . S
C85 H65 0.936 1_554 S
C85 C84 1.425 1_655 S
C85 C86 1.375 . S
C86 H66 0.944 1_554 S
C86 C82 1.393 1_655 S
C86 C85 1.375 . S
C87 C84 1.499 . S
C87 C88 1.373 1_554 S
C87 C89 1.389 . S
C88 H67 0.950 . S
C88 C87 1.373 1_556 S
C88 C104 1.377 . S
C89 C87 1.389 . S
C89 C90 1.524 . S
C89 C103 1.377 . S
C90 C89 1.524 . S
C90 C91 1.397 1_455 S
C90 C95 1.363 . S
C91 H68 0.950 . S
C91 C90 1.397 1_655 S
C91 C92 1.334 . S
C92 H69 0.950 . S
C92 C91 1.334 . S
C92 C93 1.287 1_655 S
C93 C92 1.287 1_455 S
C93 C94 1.524 . S
C93 H112 0.913 . S
C94 H70 0.950 . S
C94 C93 1.524 . S
C94 C95 1.415 . S
C95 H71 0.950 . S
C95 C90 1.363 . S
C95 C94 1.415 . S
C96 H72 0.930 1_454 S
C96 C97 1.382 . S
C96 C98 1.392 . S
C97 C96 1.382 . S
C97 C101 1.385 . S
C98 H73 0.946 1_454 S
C98 C96 1.392 . S
C98 C99 1.372 . S
C99 C98 1.372 . S
C99 C100 1.414 . S
C99 C102 1.499 . S
C100 H74 0.950 . S
C100 C99 1.414 . S
C100 C101 1.374 . S
C101 H75 0.950 . S
C101 C97 1.385 . S
C101 C100 1.374 . S
C102 C99 1.499 . S
C102 C103 1.373 . S
C102 C104 1.389 1_554 S
C103 H76 0.950 . S
C103 C89 1.377 . S
C103 C102 1.373 . S
C104 C88 1.377 . S
C104 C102 1.389 1_556 S
C104 C105 1.524 . S
C105 C104 1.524 . S
C105 C106 1.397 . S
C105 C110 1.363 1_455 S
C106 H77 0.950 . S
C106 C105 1.397 . S
C106 C107 1.334 . S
C107 H78 0.950 . S
C107 C106 1.334 . S
C107 C108 1.287 . S
C108 C107 1.287 . S
C108 C109 1.524 1_455 S
C108 H111 0.999 . S
C109 H79 0.950 . S
C109 C108 1.524 1_655 S
C109 C110 1.415 . S
C110 H80 0.950 . S
C110 C105 1.363 1_655 S
C110 C109 1.415 . S
H111 C108 0.999 . S
H112 C93 0.913 . S
H113 C131 0.951 . S
H114 C133 0.951 . S
H115 C135 0.950 . S
H116 C136 0.950 . S
H117 C138 0.950 1_565 S
H118 C141 0.950 . S
H119 C142 0.950 . S
H120 C144 0.950 . S
H121 C145 0.950 . S
H122 C146 0.951 . S
H123 C148 0.951 . S
H124 C150 0.950 . S
H125 C151 0.950 . S
H126 C153 0.950 . S
H127 C156 0.950 . S
H128 C157 0.950 . S
H129 C159 0.950 . S
H130 C160 0.950 1_545 S
C131 H113 0.951 . S
C131 C132 1.366 . S
C131 C133 1.388 . S
C132 C131 1.366 . S
C132 C136 1.385 . S
C133 H114 0.951 . S
C133 C131 1.388 . S
C133 C134 1.366 . S
C134 C133 1.366 . S
C134 C135 1.414 . S
C134 C137 1.499 . S
C135 H115 0.950 . S
C135 C134 1.414 . S
C135 C136 1.374 . S
C136 H116 0.950 . S
C136 C132 1.385 . S
C136 C135 1.374 . S
C137 C134 1.499 . S
C137 C138 1.373 . S
C137 C139 1.389 . S
C138 H117 0.950 1_545 S
C138 C137 1.373 . S
C138 C154 1.369 1_545 S
C139 C137 1.389 . S
C139 C140 1.524 . S
C139 C153 1.377 . S
C140 C139 1.524 . S
C140 C141 1.397 . S
C140 C145 1.363 . S
C141 H118 0.950 . S
C141 C140 1.397 . S
C141 C142 1.334 . S
C142 H119 0.950 . S
C142 C141 1.334 . S
C142 C143 1.287 . S
C143 C142 1.287 . S
C143 C144 1.524 . S
C143 H162 0.913 . S
C144 H120 0.950 . S
C144 C143 1.524 . S
C144 C145 1.415 . S
C145 H121 0.950 . S
C145 C140 1.363 . S
C145 C144 1.415 . S
C146 H122 0.951 . S
C146 C147 1.366 . S
C146 C148 1.388 . S
C147 C146 1.366 . S
C147 C151 1.385 1_545 S
C148 H123 0.951 . S
C148 C146 1.388 . S
C148 C149 1.366 . S
C149 C148 1.366 . S
C149 C150 1.414 1_545 S
C149 C152 1.499 . S
C150 H124 0.950 . S
C150 C149 1.414 1_565 S
C150 C151 1.374 . S
C151 H125 0.950 . S
C151 C147 1.385 1_565 S
C151 C150 1.374 . S
C152 C149 1.499 . S
C152 C153 1.373 . S
C152 C154 1.391 1_545 S
C153 H126 0.950 . S
C153 C139 1.377 . S
C153 C152 1.373 . S
C154 C138 1.369 1_565 S
C154 C152 1.391 1_565 S
C154 C155 1.530 . S
C155 C154 1.530 . S
C155 C156 1.397 . S
C155 C160 1.363 . S
C156 H127 0.950 . S
C156 C155 1.397 . S
C156 C157 1.334 . S
C157 H128 0.950 . S
C157 C156 1.334 . S
C157 C158 1.287 . S
C158 C157 1.287 . S
C158 C159 1.524 . S
C158 H161 0.999 . S
C159 H129 0.950 . S
C159 C158 1.524 . S
C159 C160 1.415 . S
C160 H130 0.950 1_565 S
C160 C155 1.363 . S
C160 C159 1.415 . S
H161 C158 0.999 . S
H162 C143 0.913 . S
H163 C181 0.951 . S
H164 C183 0.951 . S
H165 C185 0.950 . S
H166 C186 0.950 1_455 S
H167 C188 0.950 . S
H168 C191 0.950 . S
H169 C192 0.950 . S
H170 C194 0.950 . S
H171 C195 0.950 . S
H172 C196 0.951 . S
H173 C198 0.951 . S
H174 C200 0.950 . S
H175 C201 0.950 . S
H176 C203 0.950 . S
H177 C206 0.950 . S
H178 C207 0.950 . S
H179 C209 0.950 . S
H180 C210 0.950 . S
C181 H163 0.951 . S
C181 C182 1.366 . S
C181 C183 1.388 . S
C182 C181 1.366 . S
C182 C186 1.385 . S
C183 H164 0.951 . S
C183 C181 1.388 . S
C183 C184 1.366 . S
C184 C183 1.366 . S
C184 C185 1.414 . S
C184 C187 1.499 . S
C185 H165 0.950 . S
C185 C184 1.414 . S
C185 C186 1.374 . S
C186 H166 0.950 1_655 S
C186 C182 1.385 . S
C186 C185 1.374 . S
C187 C184 1.499 . S
C187 C188 1.373 . S
C187 C189 1.389 . S
C188 H167 0.950 . S
C188 C187 1.373 . S
C188 C204 1.377 . S
C189 C187 1.389 . S
C189 C190 1.524 . S
C189 C203 1.377 . S
C190 C189 1.524 . S
C190 C191 1.397 . S
C190 C195 1.363 . S
C191 H168 0.950 . S
C191 C190 1.397 . S
C191 C192 1.334 . S
C192 H169 0.950 . S
C192 C191 1.334 . S
C192 C193 1.287 . S
C193 C192 1.287 . S
C193 C194 1.524 . S
C193 H212 0.913 . S
C194 H170 0.950 . S
C194 C193 1.524 . S
C194 C195 1.415 . S
C195 H171 0.950 . S
C195 C190 1.363 . S
C195 C194 1.415 . S
C196 H172 0.951 . S
C196 C197 1.366 . S
C196 C198 1.388 . S
C197 C196 1.366 . S
C197 C201 1.385 . S
C198 H173 0.951 . S
C198 C196 1.388 . S
C198 C199 1.366 . S
C199 C198 1.366 . S
C199 C200 1.414 . S
C199 C202 1.499 . S
C200 H174 0.950 . S
C200 C199 1.414 . S
C200 C201 1.374 . S
C201 H175 0.950 . S
C201 C197 1.385 . S
C201 C200 1.374 . S
C202 C199 1.499 . S
C202 C203 1.373 . S
C202 C204 1.389 . S
C203 H176 0.950 . S
C203 C189 1.377 . S
C203 C202 1.373 . S
C204 C188 1.377 . S
C204 C202 1.389 . S
C204 C205 1.524 . S
C205 C204 1.524 . S
C205 C206 1.397 . S
C205 C210 1.363 . S
C206 H177 0.950 . S
C206 C205 1.397 . S
C206 C207 1.334 . S
C207 H178 0.950 . S
C207 C206 1.334 . S
C207 C208 1.287 . S
C208 C207 1.287 . S
C208 C209 1.524 . S
C208 H211 0.999 . S
C209 H179 0.950 . S
C209 C208 1.524 . S
C209 C210 1.415 . S
C210 H180 0.950 . S
C210 C205 1.363 . S
C210 C209 1.415 . S
H211 C208 0.999 . S
H212 C193 0.913 . S
H213 C231 0.951 . S
H214 C233 0.949 1_565 S
H215 C235 0.950 . S
H216 C236 0.950 1_455 S
H217 C238 0.950 . S
H218 C241 0.950 . S
H219 C242 0.950 . S
H220 C244 0.950 . S
H221 C245 0.950 . S
H222 C246 0.951 . S
H223 C248 0.951 . S
H224 C250 0.950 1_565 S
H225 C251 0.950 . S
H226 C253 0.950 . S
H227 C256 0.950 . S
H228 C257 0.950 . S
H229 C259 0.950 . S
H230 C260 0.950 . S
C231 H213 0.951 . S
C231 C232 1.366 . S
C231 C233 1.388 . S
C232 C231 1.366 . S
C232 C236 1.385 . S
C233 H214 0.949 1_545 S
C233 C231 1.388 . S
C233 C234 1.366 . S
C234 C233 1.366 . S
C234 C235 1.414 . S
C234 C237 1.499 . S
C235 H215 0.950 . S
C235 C234 1.414 . S
C235 C236 1.374 . S
C236 H216 0.950 1_655 S
C236 C232 1.385 . S
C236 C235 1.374 . S
C237 C234 1.499 . S
C237 C238 1.373 . S
C237 C239 1.389 . S
C238 H217 0.950 . S
C238 C237 1.373 . S
C238 C254 1.377 . S
C239 C237 1.389 . S
C239 C240 1.524 . S
C239 C253 1.377 . S
C240 C239 1.524 . S
C240 C241 1.397 . S
C240 C245 1.363 1_545 S
C241 H218 0.950 . S
C241 C240 1.397 . S
C241 C242 1.334 . S
C242 H219 0.950 . S
C242 C241 1.334 . S
C242 C243 1.297 . S
C243 C242 1.297 . S
C243 C244 1.517 1_545 S
C243 H262 0.908 1_545 S
C244 H220 0.950 . S
C244 C243 1.517 1_565 S
C244 C245 1.415 . S
C245 H221 0.950 . S
C245 C240 1.363 1_565 S
C245 C244 1.415 . S
C246 H222 0.951 . S
C246 C247 1.366 . S
C246 C248 1.388 . S
C247 C246 1.366 . S
C247 C251 1.385 1_545 S
C248 H223 0.951 . S
C248 C246 1.388 . S
C248 C249 1.366 . S
C249 C248 1.366 . S
C249 C250 1.414 . S
C249 C252 1.499 . S
C250 H224 0.950 1_545 S
C250 C249 1.414 . S
C250 C251 1.374 1_545 S
C251 H225 0.950 . S
C251 C247 1.385 1_565 S
C251 C250 1.374 1_565 S
C252 C249 1.499 . S
C252 C253 1.373 . S
C252 C254 1.389 . S
C253 H226 0.950 . S
C253 C239 1.377 . S
C253 C252 1.373 . S
C254 C238 1.377 . S
C254 C252 1.389 . S
C254 C255 1.524 . S
C255 C254 1.524 . S
C255 C256 1.397 . S
C255 C260 1.363 . S
C256 H227 0.950 . S
C256 C255 1.397 . S
C256 C257 1.334 . S
C257 H228 0.950 . S
C257 C256 1.334 . S
C257 C258 1.287 . S
C258 C257 1.287 . S
C258 C259 1.524 . S
C258 H261 0.999 . S
C259 H229 0.950 . S
C259 C258 1.524 . S
C259 C260 1.415 . S
C260 H230 0.950 . S
C260 C255 1.363 . S
C260 C259 1.415 . S
H261 C258 0.999 . S
H262 C243 0.908 1_565 S
H263 C281 0.951 . S
H264 C283 0.951 . S
H265 C285 0.950 . S
H266 C286 0.950 . S
H267 C288 0.950 . S
H268 C291 0.950 . S
H269 C292 0.950 . S
H270 C294 0.950 . S
H271 C295 0.950 . S
H272 C296 0.951 . S
H273 C298 0.951 . S
H274 C300 0.950 . S
H275 C301 0.950 . S
H276 C303 0.950 . S
H277 C306 0.950 . S
H278 C307 0.950 . S
H279 C309 0.950 . S
H280 C310 0.950 1_556 S
C281 H263 0.951 . S
C281 C282 1.366 . S
C281 C283 1.388 . S
C282 C281 1.366 . S
C282 C286 1.385 1_554 S
C283 H264 0.951 . S
C283 C281 1.388 . S
C283 C284 1.366 . S
C284 C283 1.366 . S
C284 C285 1.414 1_554 S
C284 C287 1.499 . S
C285 H265 0.950 . S
C285 C284 1.414 1_556 S
C285 C286 1.374 . S
C286 H266 0.950 . S
C286 C282 1.385 1_556 S
C286 C285 1.374 . S
C287 C284 1.499 . S
C287 C288 1.373 . S
C287 C289 1.389 . S
C288 H267 0.950 . S
C288 C287 1.373 . S
C288 C304 1.377 . S
C289 C287 1.389 . S
C289 C290 1.524 . S
C289 C303 1.377 . S
C290 C289 1.524 . S
C290 C291 1.397 1_554 S
C290 C295 1.363 . S
C291 H268 0.950 . S
C291 C290 1.397 1_556 S
C291 C292 1.334 . S
C292 H269 0.950 . S
C292 C291 1.334 . S
C292 C293 1.287 . S
C293 C292 1.287 . S
C293 C294 1.524 1_556 S
C293 H312 0.913 . S
C294 H270 0.950 . S
C294 C293 1.524 1_554 S
C294 C295 1.415 . S
C295 H271 0.950 . S
C295 C290 1.363 . S
C295 C294 1.415 . S
C296 H272 0.951 . S
C296 C297 1.366 1_556 S
C296 C298 1.388 . S
C297 C296 1.366 1_554 S
C297 C301 1.385 . S
C298 H273 0.951 . S
C298 C296 1.388 . S
C298 C299 1.366 1_556 S
C299 C298 1.366 1_554 S
C299 C300 1.414 . S
C299 C302 1.499 . S
C300 H274 0.950 . S
C300 C299 1.414 . S
C300 C301 1.374 . S
C301 H275 0.950 . S
C301 C297 1.385 . S
C301 C300 1.374 . S
C302 C299 1.499 . S
C302 C303 1.373 . S
C302 C304 1.389 . S
C303 H276 0.950 . S
C303 C289 1.377 . S
C303 C302 1.373 . S
C304 C288 1.377 . S
C304 C302 1.389 . S
C304 C305 1.524 . S
C305 C304 1.524 . S
C305 C306 1.397 . S
C305 C310 1.363 . S
C306 H277 0.950 . S
C306 C305 1.397 . S
C306 C307 1.334 . S
C307 H278 0.950 . S
C307 C306 1.334 . S
C307 C308 1.287 . S
C308 C307 1.287 . S
C308 C309 1.524 . S
C308 H311 0.999 . S
C309 H279 0.950 . S
C309 C308 1.524 . S
C309 C310 1.415 . S
C310 H280 0.950 1_554 S
C310 C305 1.363 . S
C310 C309 1.415 . S
H311 C308 0.999 . S
H312 C293 0.913 . S
H313 C331 0.951 . S
H314 C333 0.951 . S
H315 C335 0.950 . S
H316 C336 0.950 . S
H317 C338 0.950 . S
H318 C341 0.950 . S
H319 C342 0.950 . S
H320 C344 0.950 . S
H321 C345 0.950 . S
H322 C346 0.951 . S
H323 C348 0.951 . S
H324 C350 0.950 . S
H325 C351 0.950 . S
H326 C353 0.950 . S
H327 C356 0.950 . S
H328 C357 0.950 . S
H329 C359 0.950 . S
H330 C360 0.950 . S
C331 H313 0.951 . S
C331 C332 1.366 . S
C331 C333 1.388 . S
C332 C331 1.366 . S
C332 C336 1.385 . S
C333 H314 0.951 . S
C333 C331 1.388 . S
C333 C334 1.366 . S
C334 C333 1.366 . S
C334 C335 1.414 . S
C334 C337 1.499 . S
C335 H315 0.950 . S
C335 C334 1.414 . S
C335 C336 1.374 . S
C336 H316 0.950 . S
C336 C332 1.385 . S
C336 C335 1.374 . S
C337 C334 1.499 . S
C337 C338 1.373 . S
C337 C339 1.389 . S
C338 H317 0.950 . S
C338 C337 1.373 . S
C338 C354 1.377 . S
C339 C337 1.389 . S
C339 C340 1.524 . S
C339 C353 1.377 . S
C340 C339 1.524 . S
C340 C341 1.397 . S
C340 C345 1.363 . S
C341 H318 0.950 . S
C341 C340 1.397 . S
C341 C342 1.334 . S
C342 H319 0.950 . S
C342 C341 1.334 . S
C342 C343 1.287 . S
C343 C342 1.287 . S
C343 C344 1.524 . S
C343 H362 0.913 . S
C344 H320 0.950 . S
C344 C343 1.524 . S
C344 C345 1.415 . S
C345 H321 0.950 . S
C345 C340 1.363 . S
C345 C344 1.415 . S
C346 H322 0.951 . S
C346 C347 1.366 . S
C346 C348 1.388 . S
C347 C346 1.366 . S
C347 C351 1.385 . S
C348 H323 0.951 . S
C348 C346 1.388 . S
C348 C349 1.366 . S
C349 C348 1.366 . S
C349 C350 1.414 . S
C349 C352 1.499 . S
C350 H324 0.950 . S
C350 C349 1.414 . S
C350 C351 1.374 . S
C351 H325 0.950 . S
C351 C347 1.385 . S
C351 C350 1.374 . S
C352 C349 1.499 . S
C352 C353 1.373 . S
C352 C354 1.389 . S
C353 H326 0.950 . S
C353 C339 1.377 . S
C353 C352 1.373 . S
C354 C338 1.377 . S
C354 C352 1.389 . S
C354 C355 1.524 . S
C355 C354 1.524 . S
C355 C356 1.397 . S
C355 C360 1.363 . S
C356 H327 0.950 . S
C356 C355 1.397 . S
C356 C357 1.334 . S
C357 H328 0.950 . S
C357 C356 1.334 . S
C357 C358 1.287 . S
C358 C357 1.287 . S
C358 C359 1.524 . S
C358 H361 0.999 . S
C359 H329 0.950 . S
C359 C358 1.524 . S
C359 C360 1.415 . S
C360 H330 0.950 . S
C360 C355 1.363 . S
C360 C359 1.415 . S
H361 C358 0.999 . S
H362 C343 0.913 . S
H363 C381 0.951 . S
H364 C383 0.951 . S
H365 C385 0.950 . S
H366 C386 0.950 . S
H367 C388 0.950 . S
H368 C391 0.950 1_565 S
H369 C392 0.950 1_565 S
H370 C394 0.950 . S
H371 C395 0.950 1_455 S
H372 C396 0.947 1_565 S
H373 C398 0.944 1_565 S
H374 C400 0.950 . S
H375 C401 0.950 . S
H376 C403 0.950 . S
H377 C406 0.950 . S
H378 C407 0.950 . S
H379 C409 0.950 . S
H380 C410 0.950 . S
C381 H363 0.951 . S
C381 C382 1.366 . S
C381 C383 1.388 . S
C382 C381 1.366 . S
C382 C386 1.385 1_545 S
C383 H364 0.951 . S
C383 C381 1.388 . S
C383 C384 1.366 . S
C384 C383 1.366 . S
C384 C385 1.414 1_545 S
C384 C387 1.499 . S
C385 H365 0.950 . S
C385 C384 1.414 1_565 S
C385 C386 1.374 . S
C386 H366 0.950 . S
C386 C382 1.385 1_565 S
C386 C385 1.374 . S
C387 C384 1.499 . S
C387 C388 1.373 . S
C387 C389 1.389 . S
C388 H367 0.950 . S
C388 C387 1.373 . S
C388 C404 1.377 . S
C389 C387 1.389 . S
C389 C390 1.524 1_455 S
C389 C403 1.377 . S
C390 C389 1.524 1_655 S
C390 C391 1.397 . S
C390 C395 1.363 . S
C391 H368 0.950 1_545 S
C391 C390 1.397 . S
C391 C392 1.334 . S
C392 H369 0.950 1_545 S
C392 C391 1.334 . S
C392 C393 1.287 . S
C393 C392 1.287 . S
C393 C394 1.524 . S
C393 H412 0.913 . S
C394 H370 0.950 . S
C394 C393 1.524 . S
C394 C395 1.415 . S
C395 H371 0.950 1_655 S
C395 C390 1.363 . S
C395 C394 1.415 . S
C396 H372 0.947 1_545 S
C396 C397 1.371 . S
C396 C398 1.388 . S
C397 C396 1.371 . S
C397 C401 1.385 . S
C398 H373 0.944 1_545 S
C398 C396 1.388 . S
C398 C399 1.371 . S
C399 C398 1.371 . S
C399 C400 1.414 . S
C399 C402 1.499 . S
C400 H374 0.950 . S
C400 C399 1.414 . S
C400 C401 1.374 . S
C401 H375 0.950 . S
C401 C397 1.385 . S
C401 C400 1.374 . S
C402 C399 1.499 . S
C402 C403 1.373 . S
C402 C404 1.389 . S
C403 H376 0.950 . S
C403 C389 1.377 . S
C403 C402 1.373 . S
C404 C388 1.377 . S
C404 C402 1.389 . S
C404 C405 1.524 . S
C405 C404 1.524 . S
C405 C406 1.397 . S
C405 C410 1.363 1_545 S
C406 H377 0.950 . S
C406 C405 1.397 . S
C406 C407 1.334 . S
C407 H378 0.950 . S
C407 C406 1.334 . S
C407 C408 1.287 . S
C408 C407 1.287 . S
C408 C409 1.524 1_545 S
C408 H411 0.999 . S
C409 H379 0.950 . S
C409 C408 1.524 1_565 S
C409 C410 1.415 . S
C410 H380 0.950 . S
C410 C405 1.363 1_565 S
C410 C409 1.415 . S
H411 C408 0.999 . S
H412 C393 0.913 . S
H413 C431 0.951 . S
H414 C433 0.951 . S
H415 C435 0.950 . S
H416 C436 0.950 . S
H417 C438 0.950 . S
H418 C441 0.950 1_545 S
H419 C442 0.950 . S
H420 C444 0.950 . S
H421 C445 0.950 . S
H422 C446 0.951 . S
H423 C448 0.951 . S
H424 C450 0.957 . S
H425 C451 0.950 1_565 S
H426 C453 0.950 1_565 S
H427 C456 0.950 . S
H428 C457 0.950 . S
H429 C459 0.950 . S
H430 C460 0.950 . S
C431 H413 0.951 . S
C431 C432 1.366 1_565 S
C431 C433 1.388 . S
C432 C431 1.366 1_545 S
C432 C436 1.385 . S
C433 H414 0.951 . S
C433 C431 1.388 . S
C433 C434 1.366 1_565 S
C434 C433 1.366 1_545 S
C434 C435 1.414 . S
C434 C437 1.499 . S
C435 H415 0.950 . S
C435 C434 1.414 . S
C435 C436 1.374 . S
C436 H416 0.950 . S
C436 C432 1.385 . S
C436 C435 1.374 . S
C437 C434 1.499 . S
C437 C438 1.373 . S
C437 C439 1.389 . S
C438 H417 0.950 . S
C438 C437 1.373 . S
C438 C454 1.377 . S
C439 C437 1.389 . S
C439 C440 1.524 1_545 S
C439 C453 1.377 . S
C440 C439 1.524 1_565 S
C440 C441 1.397 . S
C440 C445 1.363 . S
C441 H418 0.950 1_565 S
C441 C440 1.397 . S
C441 C442 1.334 1_455 S
C442 H419 0.950 . S
C442 C441 1.334 1_655 S
C442 C443 1.287 . S
C443 C442 1.287 . S
C443 C444 1.524 . S
C443 H462 0.913 . S
C444 H420 0.950 . S
C444 C443 1.524 . S
C444 C445 1.415 1_655 S
C445 H421 0.950 . S
C445 C440 1.363 . S
C445 C444 1.415 1_455 S
C446 H422 0.951 . S
C446 C447 1.366 . S
C446 C448 1.388 . S
C447 C446 1.366 . S
C447 C451 1.385 . S
C448 H423 0.951 . S
C448 C446 1.388 . S
C448 C449 1.366 . S
C449 C448 1.366 . S
C449 C450 1.406 1_545 S
C449 C452 1.499 . S
C450 H424 0.957 . S
C450 C449 1.406 1_565 S
C450 C451 1.375 1_565 S
C451 H425 0.950 1_545 S
C451 C447 1.385 . S
C451 C450 1.375 1_545 S
C452 C449 1.499 . S
C452 C453 1.373 . S
C452 C454 1.389 . S
C453 H426 0.950 1_545 S
C453 C439 1.377 . S
C453 C452 1.373 . S
C454 C438 1.377 . S
C454 C452 1.389 . S
C454 C455 1.524 . S
C455 C454 1.524 . S
C455 C456 1.397 . S
C455 C460 1.363 . S
C456 H427 0.950 . S
C456 C455 1.397 . S
C456 C457 1.334 . S
C457 H428 0.950 . S
C457 C456 1.334 . S
C457 C458 1.287 . S
C458 C457 1.287 . S
C458 C459 1.524 . S
C458 H461 0.999 . S
C459 H429 0.950 . S
C459 C458 1.524 . S
C459 C460 1.415 . S
C460 H430 0.950 . S
C460 C455 1.363 . S
C460 C459 1.415 . S
H461 C458 0.999 . S
H462 C443 0.913 . S
H463 C481 0.951 . S
H464 C483 0.951 . S
H465 C485 0.950 . S
H466 C486 0.950 . S
H467 C488 0.950 . S
H468 C491 0.950 . S
H469 C492 0.950 . S
H470 C494 0.950 . S
H471 C495 0.950 . S
H472 C496 0.951 . S
H473 C498 0.951 . S
H474 C500 0.950 1_655 S
H475 C501 0.950 1_655 S
H476 C503 0.950 . S
H477 C506 0.950 . S
H478 C507 0.950 . S
H479 C509 0.950 . S
H480 C510 0.950 . S
C481 H463 0.951 . S
C481 C482 1.366 . S
C481 C483 1.388 . S
C482 C481 1.366 . S
C482 C486 1.385 . S
C483 H464 0.951 . S
C483 C481 1.388 . S
C483 C484 1.366 . S
C484 C483 1.366 . S
C484 C485 1.414 . S
C484 C487 1.499 . S
C485 H465 0.950 . S
C485 C484 1.414 . S
C485 C486 1.374 . S
C486 H466 0.950 . S
C486 C482 1.385 . S
C486 C485 1.374 . S
C487 C484 1.499 . S
C487 C488 1.373 . S
C487 C489 1.389 . S
C488 H467 0.950 . S
C488 C487 1.373 . S
C488 C504 1.377 . S
C489 C487 1.389 . S
C489 C490 1.524 . S
C489 C503 1.377 . S
C490 C489 1.524 . S
C490 C491 1.397 . S
C490 C495 1.363 1_455 S
C491 H468 0.950 . S
C491 C490 1.397 . S
C491 C492 1.334 . S
C492 H469 0.950 . S
C492 C491 1.334 . S
C492 C493 1.287 1_455 S
C493 C492 1.287 1_655 S
C493 C494 1.524 . S
C493 H512 0.913 . S
C494 H470 0.950 . S
C494 C493 1.524 . S
C494 C495 1.415 . S
C495 H471 0.950 . S
C495 C490 1.363 1_655 S
C495 C494 1.415 . S
C496 H472 0.951 . S
C496 C497 1.366 . S
C496 C498 1.388 . S
C497 C496 1.366 . S
C497 C501 1.385 . S
C498 H473 0.951 . S
C498 C496 1.388 . S
C498 C499 1.366 . S
C499 C498 1.366 . S
C499 C500 1.414 . S
C499 C502 1.499 . S
C500 H474 0.950 1_455 S
C500 C499 1.414 . S
C500 C501 1.374 . S
C501 H475 0.950 1_455 S
C501 C497 1.385 . S
C501 C500 1.374 . S
C502 C499 1.499 . S
C502 C503 1.373 . S
C502 C504 1.389 . S
C503 H476 0.950 . S
C503 C489 1.377 . S
C503 C502 1.373 . S
C504 C488 1.377 . S
C504 C502 1.389 . S
C504 C505 1.524 . S
C505 C504 1.524 . S
C505 C506 1.397 1_545 S
C505 C510 1.363 . S
C506 H477 0.950 . S
C506 C505 1.397 1_565 S
C506 C507 1.334 . S
C507 H478 0.950 . S
C507 C506 1.334 . S
C507 C508 1.287 . S
C508 C507 1.287 . S
C508 C509 1.524 1_565 S
C508 H511 0.999 . S
C509 H479 0.950 . S
C509 C508 1.524 1_545 S
C509 C510 1.415 . S
C510 H480 0.950 . S
C510 C505 1.363 . S
C510 C509 1.415 . S
H511 C508 0.999 . S
H512 C493 0.913 . S
C82 C16 1.080 . S
C97 C14 1.089 . S
C132 C35 1.083 . S
C147 C37 1.077 . S
C182 C56 1.093 1_655 S
C197 C58 1.084 . S
C232 C55 1.079 1_655 S
C247 C59 1.085 . S
C282 C13 1.081 . S
C297 C17 1.089 . S
C332 C38 1.094 . S
C347 C34 1.085 . S
C382 C36 1.325 . S
C397 C18 1.308 . S
C432 C39 1.304 . S
C447 C57 1.303 . S
C482 C60 1.326 . S
C497 C15 1.308 . S
