# Generated by pormake.
# Topology wme, (6)-cn, num edge types: 1
# Building blocks:
#     Node 0, Type 0, BuildingBlock: VOLQOD_clean_sbu_1, # of connection points: 6
#     Node 1, Type 0, BuildingBlock: VOLQOD_clean_sbu_1, # of connection points: 6
#     Node 2, Type 0, BuildingBlock: VOLQOD_clean_sbu_1, # of connection points: 6
#     Node 3, Type 0, BuildingBlock: VOLQOD_clean_sbu_1, # of connection points: 6
#     Node 4, Type 0, BuildingBlock: VOLQOD_clean_sbu_1, # of connection points: 6
#     Node 5, Type 0, BuildingBlock: VOLQOD_clean_sbu_1, # of connection points: 6
#     Node 6, Type 0, BuildingBlock: VOLQOD_clean_sbu_1, # of connection points: 6
#     Node 7, Type 0, BuildingBlock: VOLQOD_clean_sbu_1, # of connection points: 6
#     Node 8, Type 0, BuildingBlock: VOLQOD_clean_sbu_1, # of connection points: 6
#     Node 9, Type 0, BuildingBlock: VOLQOD_clean_sbu_1, # of connection points: 6
#     Node 10, Type 0, BuildingBlock: VOLQOD_clean_sbu_1, # of connection points: 6
#     Node 11, Type 0, BuildingBlock: VOLQOD_clean_sbu_1, # of connection points: 6
#     Edge 12, Type (0, 0), BuildingBlock: XIVTED_clean_linker_0, # of connection points: 2
#     Edge 13, Type (0, 0), BuildingBlock: XIVTED_clean_linker_0, # of connection points: 2
#     Edge 14, Type (0, 0), BuildingBlock: XIVTED_clean_linker_0, # of connection points: 2
#     Edge 15, Type (0, 0), BuildingBlock: XIVTED_clean_linker_0, # of connection points: 2
#     Edge 16, Type (0, 0), BuildingBlock: XIVTED_clean_linker_0, # of connection points: 2
#     Edge 17, Type (0, 0), BuildingBlock: XIVTED_clean_linker_0, # of connection points: 2
#     Edge 18, Type (0, 0), BuildingBlock: XIVTED_clean_linker_0, # of connection points: 2
#     Edge 19, Type (0, 0), BuildingBlock: XIVTED_clean_linker_0, # of connection points: 2
#     Edge 20, Type (0, 0), BuildingBlock: XIVTED_clean_linker_0, # of connection points: 2
#     Edge 21, Type (0, 0), BuildingBlock: XIVTED_clean_linker_0, # of connection points: 2
#     Edge 22, Type (0, 0), BuildingBlock: XIVTED_clean_linker_0, # of connection points: 2
#     Edge 23, Type (0, 0), BuildingBlock: XIVTED_clean_linker_0, # of connection points: 2
#     Edge 24, Type (0, 0), BuildingBlock: XIVTED_clean_linker_0, # of connection points: 2
#     Edge 25, Type (0, 0), BuildingBlock: XIVTED_clean_linker_0, # of connection points: 2
#     Edge 26, Type (0, 0), BuildingBlock: XIVTED_clean_linker_0, # of connection points: 2
#     Edge 27, Type (0, 0), BuildingBlock: XIVTED_clean_linker_0, # of connection points: 2
#     Edge 28, Type (0, 0), BuildingBlock: XIVTED_clean_linker_0, # of connection points: 2
#     Edge 29, Type (0, 0), BuildingBlock: XIVTED_clean_linker_0, # of connection points: 2
#     Edge 30, Type (0, 0), BuildingBlock: XIVTED_clean_linker_0, # of connection points: 2
#     Edge 31, Type (0, 0), BuildingBlock: XIVTED_clean_linker_0, # of connection points: 2
#     Edge 32, Type (0, 0), BuildingBlock: XIVTED_clean_linker_0, # of connection points: 2
#     Edge 33, Type (0, 0), BuildingBlock: XIVTED_clean_linker_0, # of connection points: 2
#     Edge 34, Type (0, 0), BuildingBlock: XIVTED_clean_linker_0, # of connection points: 2
#     Edge 35, Type (0, 0), BuildingBlock: XIVTED_clean_linker_0, # of connection points: 2
#     Edge 36, Type (0, 0), BuildingBlock: XIVTED_clean_linker_0, # of connection points: 2
#     Edge 37, Type (0, 0), BuildingBlock: XIVTED_clean_linker_0, # of connection points: 2
#     Edge 38, Type (0, 0), BuildingBlock: XIVTED_clean_linker_0, # of connection points: 2
#     Edge 39, Type (0, 0), BuildingBlock: XIVTED_clean_linker_0, # of connection points: 2
#     Edge 40, Type (0, 0), BuildingBlock: XIVTED_clean_linker_0, # of connection points: 2
#     Edge 41, Type (0, 0), BuildingBlock: XIVTED_clean_linker_0, # of connection points: 2
#     Edge 42, Type (0, 0), BuildingBlock: XIVTED_clean_linker_0, # of connection points: 2
#     Edge 43, Type (0, 0), BuildingBlock: XIVTED_clean_linker_0, # of connection points: 2
#     Edge 44, Type (0, 0), BuildingBlock: XIVTED_clean_linker_0, # of connection points: 2
#     Edge 45, Type (0, 0), BuildingBlock: XIVTED_clean_linker_0, # of connection points: 2
#     Edge 46, Type (0, 0), BuildingBlock: XIVTED_clean_linker_0, # of connection points: 2
#     Edge 47, Type (0, 0), BuildingBlock: XIVTED_clean_linker_0, # of connection points: 2
# Relax obj value: 0.331
# Max RMSD: 0.236
# Mean RMSD: 0.236
data_MOF--net-wme--node1-VOLQOD_clean_sbu_1--edge1-XIVTED_clean_linker_0
_symmetry_space_group_name_H-M    P1
_symmetry_Int_Tables_number       1
_symmetry_cell_setting            triclinic
loop_
_symmetry_equiv_pos_as_xyz
'x, y, z'
_cell_length_a     31.623084
_cell_length_b     31.576271
_cell_length_c     65.555116
_cell_angle_alpha  89.834109
_cell_angle_beta   90.264341
_cell_angle_gamma 120.26178
loop_
_atom_site_label
_atom_site_type_symbol
_atom_site_fract_x
_atom_site_fract_y
_atom_site_fract_z
_atom_type_partial_charge
O0 O 0.18164 0.37709 0.09313 0.0
Zn1 Zn 0.18776 0.31742 0.09469 0.0
O2 O 0.2353 0.3236 0.11528 0.0
Zn3 Zn 0.2874 0.3174 0.10227 0.0
Zn4 Zn 0.26091 0.38565 0.12899 0.0
Zn5 Zn 0.20334 0.27368 0.1357 0.0
O6 O 0.28972 0.25868 0.11306 0.0
O7 O 0.2248 0.22504 0.13348 0.0
O8 O 0.20307 0.30238 0.06706 0.0
O9 O 0.27284 0.30324 0.07258 0.0
O10 O 0.3526 0.38051 0.10441 0.0
O11 O 0.33091 0.42646 0.12233 0.0
O12 O 0.25497 0.38045 0.15947 0.0
O13 O 0.12016 0.26628 0.10263 0.0
O14 O 0.21823 0.3002 0.16389 0.0
O15 O 0.13048 0.24093 0.13284 0.0
C16 C 0.19526 0.41244 0.10555 0.0
C17 C 0.26022 0.2242 0.12477 0.0
C18 C 0.36286 0.4207 0.11304 0.0
C19 C 0.23854 0.29788 0.06072 0.0
C20 C 0.23755 0.34327 0.17112 0.0
C21 C 0.10272 0.2411 0.11877 0.0
O22 O 0.22448 0.41893 0.12019 0.0
O23 O 0.78403 0.15913 0.58831 0.0
Zn24 Zn 0.85148 0.17261 0.59482 0.0
O25 O 0.88362 0.22677 0.61407 0.0
Zn26 Zn 0.94078 0.28113 0.60132 0.0
Zn27 Zn 0.83902 0.24732 0.62336 0.0
Zn28 Zn 0.90331 0.20492 0.63769 0.0
O29 O 0.00309 0.28733 0.61278 0.0
O30 O 0.97478 0.23196 0.63765 0.0
O31 O 0.88779 0.18727 0.56822 0.0
O32 O 0.94043 0.26712 0.57171 0.0
O33 O 0.94013 0.34461 0.60316 0.0
O34 O 0.8683 0.31853 0.61828 0.0
O35 O 0.82436 0.23586 0.65348 0.0
O36 O 0.84016 0.10996 0.60707 0.0
O37 O 0.88457 0.2238 0.66336 0.0
O38 O 0.87017 0.13147 0.6384 0.0
C39 C 0.75935 0.17806 0.59462 0.0
C40 C 0.01009 0.26431 0.62718 0.0
C41 C 0.90752 0.35258 0.61042 0.0
C42 C 0.92007 0.22838 0.56092 0.0
C43 C 0.84932 0.23072 0.66753 0.0
C44 C 0.84711 0.09879 0.62493 0.0
O45 O 0.77617 0.21225 0.60782 0.0
O46 O 0.59812 0.79666 0.09262 0.0
Zn47 Zn 0.65727 0.86361 0.09395 0.0
O48 O 0.65464 0.90195 0.11685 0.0
Zn49 Zn 0.65795 0.9618 0.10647 0.0
Zn50 Zn 0.59541 0.86283 0.13213 0.0
Zn51 Zn 0.70781 0.91791 0.13549 0.0
O52 O 0.71648 0.02244 0.11828 0.0
O53 O 0.75245 -0.01057 0.13632 0.0
O54 O 0.66644 0.89796 0.06724 0.0
O55 O 0.66886 0.96695 0.07619 0.0
O56 O 0.59364 0.96 0.1112 0.0
O57 O 0.55273 0.89123 0.1293 0.0
O58 O 0.60563 0.85551 0.16187 0.0
O59 O 0.71084 0.84827 0.09792 0.0
O60 O 0.68633 0.89493 0.16388 0.0
O61 O 0.74378 0.88408 0.12744 0.0
C62 C 0.56476 0.77341 0.10573 0.0
C63 C 0.75144 0.02664 0.12951 0.0
C64 C 0.55556 0.92884 0.12083 0.0
C65 C 0.67103 0.93926 0.06267 0.0
C66 C 0.64465 0.86983 0.17214 0.0
C67 C 0.74096 0.85733 0.11245 0.0
O68 O 0.56075 0.79462 0.12144 0.0
O69 O 0.8102 0.62338 0.58808 0.0
Zn70 Zn 0.79815 0.67712 0.59728 0.0
O71 O 0.74823 0.65401 0.61856 0.0
Zn72 Zn 0.69543 0.66519 0.61085 0.0
Zn73 Zn 0.7222 0.58523 0.62343 0.0
Zn74 Zn 0.7773 0.68906 0.64342 0.0
O75 O 0.6984 0.72103 0.62665 0.0
O76 O 0.76071 0.74144 0.64783 0.0
O77 O 0.7787 0.70226 0.57273 0.0
O78 O 0.70407 0.68554 0.58172 0.0
O79 O 0.62909 0.60393 0.6122 0.0
O80 O 0.65206 0.54808 0.61529 0.0
O81 O 0.7282 0.5711 0.65302 0.0
O82 O 0.86376 0.72639 0.60838 0.0
O83 O 0.75587 0.64412 0.6674 0.0
O84 O 0.85042 0.72125 0.64179 0.0
C85 C 0.79183 0.57913 0.59388 0.0
C86 C 0.72791 0.74901 0.64035 0.0
C87 C 0.6194 0.55964 0.61231 0.0
C88 C 0.73837 0.70049 0.5687 0.0
C89 C 0.7397 0.59831 0.66874 0.0
C90 C 0.87953 0.73573 0.62667 0.0
O91 O 0.75825 0.56071 0.60724 0.0
O92 O 0.18177 0.79005 0.09127 0.0
Zn93 Zn 0.11524 0.78307 0.09045 0.0
O94 O 0.07222 0.73906 0.11182 0.0
Zn95 Zn 0.01425 0.68422 0.0993 0.0
Zn96 Zn 0.10734 0.71595 0.12808 0.0
Zn97 Zn 0.05318 0.77403 0.1301 0.0
O98 O 0.95193 0.68048 0.10908 0.0
O99 O -0.01793 0.74767 0.12823 0.0
O100 O 0.08518 0.76303 0.06255 0.0
O101 O 0.01461 0.69545 0.06932 0.0
O102 O 0.01362 0.62034 0.10342 0.0
O103 O 0.07825 0.6449 0.1239 0.0
O104 O 0.10818 0.72862 0.15804 0.0
O105 O 0.1308 0.85174 0.09565 0.0
O106 O 0.06894 0.76992 0.15918 0.0
O107 O 0.08938 0.84537 0.1238 0.0
C108 C 0.20195 0.77785 0.10509 0.0
C109 C 0.94611 0.71022 0.12015 0.0
C110 C 0.04208 0.61149 0.11408 0.0
C111 C 0.04415 0.72737 0.05678 0.0
C112 C 0.09157 0.7514 0.16807 0.0
C113 C 0.11921 0.87118 0.10988 0.0
O114 O 0.17743 0.75052 0.11991 0.0
O115 O 0.35705 0.19068 0.59071 0.0
Zn116 Zn 0.30163 0.12142 0.59474 0.0
O117 O 0.31399 0.08734 0.61669 0.0
Zn118 Zn 0.31104 0.02813 0.60679 0.0
Zn119 Zn 0.37742 0.13155 0.62733 0.0
Zn120 Zn 0.26899 0.07202 0.63846 0.0
O121 O 0.26101 0.96798 0.62224 0.0
O122 O 0.22421 0.00033 0.63993 0.0
O123 O 0.28509 0.08366 0.56855 0.0
O124 O 0.28676 0.01684 0.57801 0.0
O125 O 0.37922 0.03728 0.60478 0.0
O126 O 0.42348 0.11605 0.61374 0.0
O127 O 0.3826 0.13044 0.65788 0.0
O128 O 0.24747 0.13291 0.6027 0.0
O129 O 0.30342 0.09221 0.66502 0.0
O130 O 0.23197 0.10755 0.63488 0.0
C131 C 0.38679 0.21779 0.60449 0.0
C132 C 0.22672 0.96339 0.6339 0.0
C133 C 0.42001 0.07735 0.60617 0.0
C134 C 0.27932 0.04159 0.5646 0.0
C135 C 0.3479 0.11411 0.67074 0.0
C136 C 0.22617 0.12908 0.61959 0.0
O137 O 0.39506 0.19962 0.62027 0.0
O138 O 0.59677 0.79739 0.38879 0.0
Zn139 Zn 0.65394 0.78637 0.38825 0.0
O140 O 0.6452 0.7364 0.36849 0.0
Zn141 Zn 0.64256 0.68103 0.3831 0.0
Zn142 Zn 0.58626 0.7164 0.35313 0.0
Zn143 Zn 0.69789 0.76352 0.34898 0.0
O144 O 0.69898 0.67164 0.37477 0.0
O145 O 0.73882 0.73331 0.35287 0.0
O146 O 0.66828 0.7721 0.41638 0.0
O147 O 0.65227 0.69536 0.41303 0.0
O148 O 0.57616 0.61976 0.37998 0.0
O149 O 0.53909 0.64733 0.35941 0.0
O150 O 0.59569 0.72427 0.32287 0.0
O151 O 0.70772 0.85132 0.37958 0.0
O152 O 0.67526 0.75359 0.32006 0.0
O153 O 0.73761 0.83653 0.35171 0.0
C154 C 0.56358 0.78633 0.37541 0.0
C155 C 0.7349 0.69693 0.36287 0.0
C156 C 0.53878 0.61325 0.36991 0.0
C157 C 0.66402 0.733 0.42392 0.0
C158 C 0.63372 0.73952 0.31196 0.0
C159 C 0.73668 0.86628 0.36448 0.0
O160 O 0.55732 0.75716 0.36087 0.0
O161 O 0.78573 0.61889 0.88833 0.0
Zn162 Zn 0.85265 0.67501 0.88209 0.0
O163 O 0.88419 0.65892 0.8604 0.0
Zn164 Zn 0.94837 0.67144 0.8694 0.0
Zn165 Zn 0.84324 0.59134 0.85293 0.0
Zn166 Zn 0.89131 0.69795 0.83658 0.0
O167 O 0.00212 0.73012 0.85492 0.0
O168 O 0.96054 0.7517 0.8341 0.0
O169 O 0.89241 0.69432 0.90789 0.0
O170 O 0.95763 0.68969 0.89891 0.0
O171 O 0.9547 0.61088 0.86727 0.0
O172 O 0.8776 0.55528 0.85934 0.0
O173 O 0.82745 0.58247 0.82308 0.0
O174 O 0.83787 0.72655 0.87298 0.0
O175 O 0.87109 0.65809 0.81086 0.0
O176 O 0.84948 0.72885 0.83949 0.0
C177 C 0.76113 0.57618 0.88076 0.0
C178 C 0.00075 0.75949 0.84191 0.0
C179 C 0.92117 0.56678 0.86396 0.0
C180 C 0.93341 0.69791 0.91216 0.0
C181 C 0.84327 0.61224 0.80819 0.0
C182 C 0.83334 0.7399 0.85515 0.0
O183 O 0.77932 0.56119 0.86729 0.0
O184 O 0.17223 0.77909 0.38935 0.0
Zn185 Zn 0.17745 0.84482 0.38955 0.0
O186 O 0.21749 0.88625 0.36701 0.0
Zn187 Zn 0.27272 0.94603 0.37797 0.0
Zn188 Zn 0.24051 0.8513 0.35074 0.0
Zn189 Zn 0.17833 0.90158 0.34932 0.0
O190 O 0.27495 0.00624 0.36623 0.0
O191 O 0.20414 0.97295 0.34932 0.0
O192 O 0.20052 0.8779 0.41669 0.0
O193 O 0.26418 0.94981 0.40794 0.0
O194 O 0.33646 0.94676 0.37391 0.0
O195 O 0.31202 0.88086 0.35431 0.0
O196 O 0.22529 0.84881 0.32088 0.0
O197 O 0.10749 0.82662 0.38596 0.0
O198 O 0.17865 0.88244 0.32051 0.0
O199 O 0.10801 0.86461 0.35739 0.0
C200 C 0.1818 0.75803 0.37509 0.0
C201 C 0.24322 0.01021 0.35566 0.0
C202 C 0.34542 0.9179 0.36372 0.0
C203 C 0.23498 0.92066 0.42134 0.0
C204 C 0.19868 0.86183 0.31131 0.0
C205 C 0.08509 0.83583 0.37209 0.0
O206 O 0.20654 0.78167 0.35958 0.0
O207 O 0.36018 0.18606 0.88308 0.0
Zn208 Zn 0.30264 0.19581 0.88058 0.0
O209 O 0.31354 0.24628 0.86048 0.0
Zn210 Zn 0.30805 0.29899 0.87352 0.0
Zn211 Zn 0.37743 0.27184 0.84848 0.0
Zn212 Zn 0.26608 0.21781 0.8387 0.0
O213 O 0.25165 0.30415 0.86184 0.0
O214 O 0.2213 0.24447 0.83878 0.0
O215 O 0.2869 0.21123 0.90812 0.0
O216 O 0.29122 0.28286 0.90288 0.0
O217 O 0.37212 0.36369 0.87271 0.0
O218 O 0.41808 0.34226 0.85482 0.0
O219 O 0.37601 0.26276 0.81824 0.0
O220 O 0.24913 0.12997 0.87151 0.0
O221 O 0.29688 0.2279 0.81145 0.0
O222 O 0.22629 0.14494 0.84161 0.0
C223 C 0.39944 0.20351 0.87283 0.0
C224 C 0.21967 0.2785 0.84842 0.0
C225 C 0.41251 0.37415 0.86433 0.0
C226 C 0.28368 0.24748 0.91454 0.0
C227 C 0.34068 0.24441 0.80561 0.0
C228 C 0.22344 0.1151 0.85533 0.0
O229 O 0.40992 0.2363 0.85932 0.0
O230 O 0.16286 0.36399 0.39154 0.0
Zn231 Zn 0.09942 0.30311 0.38527 0.0
O232 O 0.06547 0.3135 0.36254 0.0
Zn233 Zn 0.00429 0.30733 0.37216 0.0
Zn234 Zn 0.10649 0.37678 0.35029 0.0
Zn235 Zn 0.05234 0.26596 0.34162 0.0
O236 O 0.94614 0.24919 0.35915 0.0
O237 O -0.01835 0.21921 0.33934 0.0
O238 O 0.05836 0.28122 0.4105 0.0
O239 O -0.00279 0.29365 0.40218 0.0
O240 O 0.0025 0.36957 0.36759 0.0
O241 O 0.07236 0.41461 0.35083 0.0
O242 O 0.12597 0.374 0.32132 0.0
O243 O 0.12011 0.25493 0.37806 0.0
O244 O 0.07726 0.29534 0.31453 0.0
O245 O 0.08787 0.23013 0.34728 0.0
C246 C 0.18613 0.40441 0.382 0.0
C247 C 0.94351 0.21707 0.34667 0.0
C248 C 0.03258 0.40857 0.35821 0.0
C249 C 0.01959 0.28177 0.41509 0.0
C250 C 0.10915 0.33822 0.30894 0.0
C251 C 0.11389 0.22986 0.36204 0.0
O252 O 0.16837 0.41315 0.36616 0.0
O253 O 0.79179 0.19531 0.88697 0.0
Zn254 Zn 0.78152 0.12747 0.88521 0.0
O255 O 0.73504 0.08893 0.86356 0.0
Zn256 Zn 0.68064 0.02892 0.87496 0.0
Zn257 Zn 0.71197 0.12813 0.85029 0.0
Zn258 Zn 0.76764 0.07283 0.84294 0.0
O259 O 0.6779 0.96839 0.86292 0.0
O260 O 0.7432 0.00171 0.84275 0.0
O261 O 0.76078 0.09432 0.91251 0.0
O262 O 0.69158 0.02584 0.90488 0.0
O263 O 0.61646 0.02862 0.87211 0.0
O264 O 0.64205 0.10024 0.85642 0.0
O265 O 0.71904 0.13192 0.81984 0.0
O266 O 0.84924 0.14165 0.87845 0.0
O267 O 0.75863 0.09176 0.8151 0.0
O268 O 0.83962 0.10963 0.84753 0.0
C269 C 0.78018 0.21879 0.87455 0.0
C270 C 0.70698 0.96438 0.85071 0.0
C271 C 0.60839 0.06109 0.86449 0.0
C272 C 0.72396 0.05355 0.91776 0.0
C273 C 0.73939 0.11568 0.80808 0.0
C274 C 0.86699 0.1349 0.86223 0.0
O275 O 0.75079 0.19738 0.85981 0.0
H276 H 0.18606 0.93981 0.08354 0.0
H277 H 0.23274 0.16067 0.1565 0.0
H278 H 0.1147 0.92494 0.14136 0.0
H279 H 0.28614 0.18211 0.09472 0.0
H280 H 0.20673 0.07399 0.15388 0.0
H281 H 0.23547 0.02832 0.08925 0.0
C282 C 0.18051 0.95513 0.09734 0.0
C283 C 0.14583 0.92496 0.1119 0.0
C284 C 0.22495 0.09773 0.141 0.0
C285 C 0.20297 0.02562 0.1187 0.0
C286 C 0.24024 0.14725 0.14258 0.0
C287 C 0.26071 0.17809 0.12567 0.0
C288 C 0.22953 0.07898 0.12228 0.0
C289 C 0.27016 0.15925 0.10804 0.0
C290 C 0.20904 0.00551 0.10066 0.0
C291 C 0.14057 0.94671 0.1296 0.0
N292 N 0.25337 0.1104 0.1066 0.0
N293 N 0.16884 -0.00433 0.13248 0.0
H294 H 0.18165 0.13644 0.65405 0.0
H295 H 0.0827 0.29419 0.59874 0.0
H296 H 0.2112 0.18388 0.59121 0.0
H297 H 0.04467 0.23843 0.66018 0.0
H298 H 0.14519 0.27046 0.59845 0.0
H299 H 0.14274 0.18562 0.65853 0.0
C300 C 0.17968 0.15689 0.64115 0.0
C301 C 0.19912 0.15546 0.62214 0.0
C302 C 0.12386 0.26437 0.61216 0.0
C303 C 0.15543 0.21252 0.62728 0.0
C304 C 0.08861 0.27849 0.61242 0.0
C305 C 0.05767 0.26699 0.62931 0.0
C306 C 0.12785 0.23864 0.62888 0.0
C307 C 0.06705 0.24683 0.64665 0.0
C308 C 0.15791 0.18538 0.64378 0.0
C309 C 0.19617 0.18336 0.60607 0.0
N310 N 0.10065 0.2323 0.64584 0.0
N311 N 0.17452 0.21056 0.60898 0.0
H312 H 0.7919 0.10279 0.10245 0.0
H313 H 0.05235 0.19258 0.15303 0.0
H314 H 0.81388 0.05735 0.16175 0.0
H315 H 0.03176 0.23375 0.09247 0.0
H316 H 0.96468 0.15464 0.15887 0.0
H317 H 0.87862 0.16594 0.10172 0.0
C318 C 0.81458 0.10738 0.11564 0.0
C319 C 0.79625 0.07436 0.132 0.0
C320 C 0.97934 0.17216 0.14433 0.0
C321 C 0.89513 0.14507 0.13104 0.0
C322 C 0.02939 0.19341 0.1409 0.0
C323 C 0.04938 0.2157 0.1221 0.0
C324 C 0.94892 0.17286 0.12881 0.0
C325 C 0.01787 0.2164 0.1071 0.0
C326 C 0.86419 0.14295 0.11511 0.0
C327 C 0.82705 0.08165 0.14869 0.0
N328 N 0.96913 0.19494 0.11073 0.0
N329 N 0.87528 0.11562 0.14761 0.0
H330 H 0.67435 0.78583 0.62283 0.0
H331 H 0.86414 0.05844 0.65892 0.0
H332 H 0.78829 0.82025 0.66739 0.0
H333 H 0.77647 0.02038 0.60401 0.0
H334 H 0.82372 0.97123 0.66783 0.0
H335 H 0.69602 0.87161 0.62277 0.0
C336 C 0.70313 0.8111 0.63298 0.0
C337 C 0.73053 0.79611 0.64468 0.0
C338 C 0.81326 0.98219 0.65391 0.0
C339 C 0.75591 0.89433 0.64441 0.0
C340 C 0.83645 0.03181 0.64876 0.0
C341 C 0.82425 0.04658 0.63052 0.0
C342 C 0.77733 0.94738 0.64084 0.0
C343 C 0.78771 0.01063 0.61803 0.0
C344 C 0.71572 0.86017 0.63281 0.0
C345 C 0.76693 0.83044 0.65776 0.0
N346 N 0.76566 0.96272 0.62341 0.0
N347 N 0.77925 0.87826 0.65698 0.0
H348 H 0.87991 0.68789 0.08938 0.0
H349 H 0.79545 0.85511 0.14426 0.0
H350 H 0.90666 0.72958 0.15275 0.0
H351 H 0.74507 0.79593 0.08389 0.0
H352 H 0.83104 0.80322 0.14799 0.0
H353 H 0.82051 0.716 0.08796 0.0
C354 C 0.87163 0.70096 0.10321 0.0
C355 C 0.89853 0.70735 0.12113 0.0
C356 C 0.81211 0.80135 0.13391 0.0
C357 C 0.83249 0.74079 0.11949 0.0
C358 C 0.7923 0.83157 0.13166 0.0
C359 C 0.76759 0.83025 0.11365 0.0
C360 C 0.80785 0.76986 0.11796 0.0
C361 C 0.76419 0.79842 0.09797 0.0
C362 C 0.83831 0.71765 0.10233 0.0
C363 C 0.887 0.72482 0.13858 0.0
N364 N 0.7844 0.7696 0.10045 0.0
N365 N 0.85551 0.74189 0.13723 0.0
H366 H 0.92886 0.77409 0.66257 0.0
H367 H 0.18941 0.88236 0.6095 0.0
H368 H 0.95133 0.75264 0.59936 0.0
H369 H 0.16568 0.9349 0.66654 0.0
H370 H 0.10474 0.81443 0.6104 0.0
H371 H 0.01741 0.81544 0.66809 0.0
C372 C 0.95236 0.77799 0.64987 0.0
C373 C 0.93278 0.76085 0.63037 0.0
C374 C 0.1185 0.84016 0.62297 0.0
C375 C 0.03374 0.8071 0.63669 0.0
C376 C 0.16695 0.87856 0.62259 0.0
C377 C 0.18396 0.91473 0.63774 0.0
C378 C 0.08737 0.83822 0.63864 0.0
C379 C 0.15343 0.90817 0.65435 0.0
C380 C 0.0028 0.80126 0.65307 0.0
C381 C 0.96489 0.76624 0.61455 0.0
N382 N 0.1062 0.87117 0.65417 0.0
N383 N 0.01381 0.78917 0.61803 0.0
H384 H 0.02169 0.77704 0.40194 0.0
H385 H 0.79021 0.7025 0.33053 0.0
H386 H 0.02581 0.82785 0.34031 0.0
H387 H 0.77837 0.68109 0.39568 0.0
H388 H 0.87616 0.72551 0.33255 0.0
H389 H 0.93253 0.72476 0.39891 0.0
C390 C 0.00389 0.77742 0.38784 0.0
C391 C 0.03116 0.80738 0.37144 0.0
C392 C 0.85457 0.71469 0.34638 0.0
C393 C 0.92994 0.74676 0.36772 0.0
C394 C 0.80543 0.70095 0.34517 0.0
C395 C 0.77775 0.69072 0.363 0.0
C396 C 0.87616 0.71906 0.36559 0.0
C397 C 0.79883 0.68899 0.38162 0.0
C398 C 0.95319 0.74728 0.38608 0.0
C399 C 0.00632 0.806 0.35346 0.0
N400 N 0.84743 0.70443 0.38254 0.0
N401 N 0.95719 0.7762 0.3521 0.0
H402 H 0.08659 0.80153 0.86365 0.0
H403 H 0.16234 0.06888 0.82296 0.0
H404 H 0.01419 0.82894 0.81361 0.0
H405 H 0.21784 0.04025 0.8785 0.0
H406 H 0.11737 0.98105 0.81586 0.0
H407 H 0.14722 0.8888 0.86468 0.0
C408 C 0.08411 0.82563 0.85253 0.0
C409 C 0.04459 0.8081 0.83883 0.0
C410 C 0.13949 -0.00594 0.82957 0.0
C411 C 0.11321 0.90796 0.84022 0.0
C412 C 0.16489 0.04416 0.83372 0.0
C413 C 0.19348 0.06194 0.85148 0.0
C414 C 0.14278 0.96153 0.84324 0.0
C415 C 0.19582 0.02819 0.86474 0.0
C416 C 0.11848 0.87556 0.85327 0.0
C417 C 0.04351 0.84104 0.8247 0.0
N418 N 0.17071 0.97959 0.86036 0.0
N419 N 0.07684 0.88957 0.82598 0.0
H420 H 0.11964 0.18349 0.32804 0.0
H421 H 0.2792 0.08632 0.38263 0.0
H422 H 0.1731 0.21985 0.38999 0.0
H423 H 0.21378 0.04128 0.32294 0.0
H424 H 0.25867 0.15148 0.38242 0.0
H425 H 0.16855 0.14469 0.32347 0.0
C426 C 0.14141 0.18304 0.34075 0.0
C427 C 0.14154 0.20415 0.35956 0.0
C428 C 0.24995 0.12811 0.36915 0.0
C429 C 0.19818 0.16017 0.35432 0.0
C430 C 0.26219 0.09139 0.36917 0.0
C431 C 0.24715 0.05808 0.35294 0.0
C432 C 0.22269 0.13107 0.35278 0.0
C433 C 0.2251 0.06586 0.3359 0.0
C434 C 0.16977 0.1613 0.33806 0.0
C435 C 0.17132 0.20334 0.37533 0.0
N436 N 0.2127 0.10107 0.33641 0.0
N437 N 0.19817 0.18126 0.37241 0.0
H438 H 0.17898 0.3089 0.87746 0.0
H439 H 0.91719 0.13699 0.82813 0.0
H440 H 0.15525 0.24876 0.81668 0.0
H441 H 0.93854 0.1966 0.88903 0.0
H442 H 0.00457 0.18741 0.82212 0.0
H443 H 0.09194 0.28213 0.87962 0.0
C444 C 0.15583 0.29168 0.86429 0.0
C445 C 0.17396 0.27989 0.84704 0.0
C446 C -0.00978 0.18962 0.8368 0.0
C447 C 0.07456 0.2481 0.84963 0.0
C448 C 0.94029 0.16037 0.84033 0.0
C449 C 0.92049 0.16205 0.85922 0.0
C450 C 0.02087 0.22061 0.8523 0.0
C451 C 0.95227 0.19368 0.87432 0.0
C452 C 0.106 0.27581 0.86563 0.0
C453 C 0.14242 0.25759 0.83042 0.0
N454 N 0.001 0.22154 0.87056 0.0
N455 N 0.094 0.24148 0.83229 0.0
H456 H 0.86354 0.17723 0.37162 0.0
H457 H 0.79113 0.91262 0.33067 0.0
H458 H 0.91873 0.15116 0.3158 0.0
H459 H 0.74179 0.94019 0.38784 0.0
H460 H 0.8276 -0.00075 0.32211 0.0
H461 H 0.80356 0.08989 0.37361 0.0
C462 C 0.8619 0.15342 0.35939 0.0
C463 C 0.89704 0.17098 0.34387 0.0
C464 C 0.80865 0.98626 0.3365 0.0
C465 C 0.82987 0.07132 0.34637 0.0
C466 C 0.7884 0.93693 0.34152 0.0
C467 C 0.76388 0.91921 0.36011 0.0
C468 C 0.80452 0.01809 0.3502 0.0
C469 C 0.76076 0.95228 0.37342 0.0
C470 C 0.82808 0.10344 0.36067 0.0
C471 C 0.89303 0.13869 0.32834 0.0
N472 N 0.781 0.00017 0.36822 0.0
N473 N 0.86083 0.09008 0.33024 0.0
H474 H 0.82058 0.78024 0.82023 0.0
H475 H 0.67289 0.88771 0.87753 0.0
H476 H 0.78168 0.75704 0.88404 0.0
H477 H 0.73721 0.93444 0.81789 0.0
H478 H 0.69308 0.82239 0.87677 0.0
H479 H 0.77375 0.82209 0.81644 0.0
C480 C 0.80224 0.78393 0.83344 0.0
C481 C 0.80579 0.76586 0.85256 0.0
C482 C 0.70179 0.84631 0.86367 0.0
C483 C 0.75158 0.81298 0.84824 0.0
C484 C 0.68975 0.88317 0.864 0.0
C485 C 0.70431 0.91692 0.84792 0.0
C486 C 0.72833 0.84341 0.84712 0.0
C487 C 0.72621 0.90959 0.83077 0.0
C488 C 0.77527 0.80754 0.83123 0.0
C489 C 0.78068 0.77112 0.86908 0.0
N490 N 0.73831 0.87408 0.83095 0.0
N491 N 0.75487 0.79445 0.86656 0.0
H492 H 0.03076 0.55698 0.08016 0.0
H493 H 0.19845 0.47522 0.13466 0.0
H494 H 0.05129 0.56104 0.14532 0.0
H495 H 0.13197 0.4119 0.07651 0.0
H496 H 0.1458 0.51016 0.13724 0.0
H497 H 0.06249 0.5005 0.07736 0.0
C498 C 0.03973 0.54408 0.09394 0.0
C499 C 0.03931 0.56395 0.11297 0.0
C500 C 0.14255 0.4885 0.12392 0.0
C501 C 0.07692 0.50166 0.10985 0.0
C502 C 0.17325 0.46919 0.12227 0.0
C503 C 0.16965 0.44055 0.10534 0.0
C504 C 0.10839 0.47983 0.10842 0.0
C505 C 0.13595 0.43382 0.08982 0.0
C506 C 0.05845 0.5125 0.09231 0.0
C507 C 0.05179 0.54682 0.13036 0.0
N508 N 0.10659 0.45352 0.09169 0.0
N509 N 0.07121 0.51747 0.12835 0.0
H510 H 0.69084 0.08176 0.58888 0.0
H511 H 0.48162 0.15056 0.58178 0.0
H512 H 0.71289 0.22799 0.58567 0.0
H513 H 0.45756 0.01537 0.60863 0.0
H514 H 0.56216 0.1684 0.57054 0.0
H515 H 0.60227 0.04829 0.58441 0.0
C516 C 0.67707 0.10668 0.58665 0.0
C517 C 0.7086 0.15758 0.58788 0.0
C518 C 0.53911 0.13447 0.57863 0.0
C519 C 0.6087 0.11995 0.58261 0.0
C520 C 0.49332 0.12436 0.58509 0.0
C521 C 0.46395 0.08221 0.59662 0.0
C522 C 0.55607 0.10269 0.5841 0.0
C523 C 0.47984 0.04866 0.60004 0.0
C524 C 0.62678 0.08762 0.5842 0.0
C525 C 0.68945 0.18852 0.58505 0.0
N526 N 0.52569 0.06019 0.5942 0.0
N527 N 0.64061 0.16918 0.58267 0.0
H528 H 0.50404 0.7113 0.13481 0.0
H529 H 0.40973 0.46404 0.07772 0.0
H530 H 0.56201 0.71249 0.07508 0.0
H531 H 0.42157 0.47803 0.14315 0.0
H532 H 0.46721 0.55259 0.07462 0.0
H533 H 0.46863 0.6232 0.13617 0.0
C534 C 0.50884 0.69302 0.12182 0.0
C535 C 0.5362 0.71945 0.10482 0.0
C536 C 0.45861 0.53586 0.08961 0.0
C537 C 0.49623 0.6182 0.10649 0.0
C538 C 0.42648 0.48538 0.09137 0.0
C539 C 0.41097 0.46439 0.11072 0.0
C540 C 0.47421 0.56459 0.10736 0.0
C541 C 0.43266 0.49331 0.12798 0.0
C542 C 0.48924 0.64269 0.12277 0.0
C543 C 0.54116 0.69347 0.08849 0.0
N544 N 0.4624 0.54229 0.12592 0.0
N545 N 0.52113 0.64399 0.08968 0.0
H546 H 0.88687 0.61354 0.58194 0.0
H547 H 0.87714 0.39714 0.63669 0.0
H548 H 0.75033 0.48028 0.59372 0.0
H549 H 0.94266 0.4142 0.57741 0.0
H550 H 0.85707 0.46007 0.62773 0.0
H551 H 0.92955 0.56638 0.58381 0.0
C552 C 0.86566 0.5742 0.58413 0.0
C553 C 0.81513 0.55073 0.58809 0.0
C554 C 0.8771 0.4509 0.61694 0.0
C555 C 0.86346 0.49794 0.59055 0.0
C556 C 0.88875 0.41538 0.62204 0.0
C557 C 0.91091 0.40027 0.60764 0.0
C558 C 0.88751 0.47116 0.59732 0.0
C559 C 0.92544 0.42508 0.58887 0.0
C560 C 0.89009 0.54764 0.5853 0.0
C561 C 0.78941 0.49987 0.59098 0.0
N562 N 0.91239 0.4589 0.58396 0.0
N563 N 0.81406 0.47534 0.59266 0.0
H564 H 0.51553 0.94729 0.08743 0.0
H565 H 0.25738 0.76904 0.13482 0.0
H566 H 0.49104 0.90933 0.15121 0.0
H567 H 0.26938 0.84476 0.0782 0.0
H568 H 0.345 0.81971 0.13964 0.0
H569 H 0.42738 0.91529 0.08299 0.0
C570 C 0.49188 0.93432 0.10066 0.0
C571 C 0.51004 0.93022 0.11966 0.0
C572 C 0.32857 0.82544 0.12616 0.0
C573 C 0.41008 0.89226 0.1146 0.0
C574 C 0.27849 0.79594 0.12324 0.0
C575 C 0.25584 0.80265 0.10609 0.0
C576 C 0.35665 0.86166 0.11174 0.0
C577 C 0.28536 0.83829 0.09164 0.0
C578 C 0.4416 0.91543 0.09807 0.0
C579 C 0.4781 0.91254 0.13628 0.0
N580 N 0.33446 0.86653 0.09477 0.0
N581 N 0.42945 0.89324 0.13328 0.0
H582 H 0.54209 0.51847 0.63811 0.0
H583 H 0.41098 0.27595 0.57029 0.0
H584 H 0.58701 0.5094 0.57713 0.0
H585 H 0.41172 0.28083 0.63608 0.0
H586 H 0.45352 0.36615 0.56963 0.0
H587 H 0.46992 0.43655 0.63392 0.0
C588 C 0.53552 0.49986 0.62358 0.0
C589 C 0.56995 0.51994 0.60794 0.0
C590 C 0.44359 0.34719 0.58415 0.0
C591 C 0.48927 0.42674 0.60321 0.0
C592 C 0.41966 0.296 0.58453 0.0
C593 C 0.40922 0.27131 0.60326 0.0
C594 C 0.45602 0.37328 0.60263 0.0
C595 C 0.42043 0.29866 0.62131 0.0
C596 C 0.49479 0.45315 0.62123 0.0
C597 C 0.56081 0.49457 0.58948 0.0
N598 N 0.4435 0.34819 0.62055 0.0
N599 N 0.52157 0.44871 0.58769 0.0
H600 H 0.39539 0.90967 0.33227 0.0
H601 H 0.55962 0.84681 0.40469 0.0
H602 H 0.40282 0.93315 0.39724 0.0
H603 H 0.50723 0.78801 0.34443 0.0
H604 H 0.51924 0.89575 0.40136 0.0
H605 H 0.4591 0.88813 0.33522 0.0
C606 C 0.41173 0.91176 0.34708 0.0
C607 C 0.39377 0.9225 0.36457 0.0
C608 C 0.51692 0.87215 0.38893 0.0
C609 C 0.4647 0.89583 0.36824 0.0
C610 C 0.53949 0.84397 0.39086 0.0
C611 C 0.53633 0.81286 0.3749 0.0
C612 C 0.49194 0.86962 0.37081 0.0
C613 C 0.51025 0.81095 0.35724 0.0
C614 C 0.4476 0.89895 0.34881 0.0
C615 C 0.41594 0.92491 0.38343 0.0
N616 N 0.48926 0.83899 0.35568 0.0
N617 N 0.44967 0.91038 0.38489 0.0
H618 H 0.69826 0.48312 0.86807 0.0
H619 H 0.44441 0.42505 0.90016 0.0
H620 H 0.70256 0.6035 0.90115 0.0
H621 H 0.48255 0.42785 0.83691 0.0
H622 H 0.53154 0.48138 0.90814 0.0
H623 H 0.60965 0.44468 0.86565 0.0
C624 C 0.68059 0.50101 0.87523 0.0
C625 C 0.70797 0.54712 0.88444 0.0
C626 C 0.52023 0.47099 0.89245 0.0
C627 C 0.60685 0.50328 0.88159 0.0
C628 C 0.47073 0.43944 0.88785 0.0
C629 C 0.45685 0.42151 0.8679 0.0
C630 C 0.55494 0.4835 0.87696 0.0
C631 C 0.49214 0.44049 0.8525 0.0
C632 C 0.63016 0.47923 0.87368 0.0
C633 C 0.68278 0.56814 0.89372 0.0
N634 N 0.5399 0.46942 0.85744 0.0
N635 N 0.63324 0.54623 0.89186 0.0
H636 H 0.11815 0.69229 0.4033 0.0
H637 H 0.04511 0.46987 0.32709 0.0
H638 H 0.18334 0.70084 0.34449 0.0
H639 H 0.01285 0.44711 0.39133 0.0
H640 H 0.07331 0.55674 0.33147 0.0
H641 H 0.06399 0.60388 0.39815 0.0
C642 C 0.12158 0.6756 0.38946 0.0
C643 C 0.15547 0.70406 0.37432 0.0
C644 C 0.05893 0.53261 0.34455 0.0
C645 C 0.09261 0.60399 0.3681 0.0
C646 C 0.0421 0.48301 0.34197 0.0
C647 C 0.02745 0.45194 0.35894 0.0
C648 C 0.06187 0.55103 0.36429 0.0
C649 C 0.02415 0.47033 0.37792 0.0
C650 C 0.09025 0.6254 0.38645 0.0
C651 C 0.15799 0.68056 0.35663 0.0
N652 N 0.04269 0.51931 0.38026 0.0
N653 N 0.12677 0.63203 0.35398 0.0
H654 H 0.55532 0.04892 0.89894 0.0
H655 H 0.473 0.2172 0.84744 0.0
H656 H 0.55613 0.06895 0.83387 0.0
H657 H 0.39222 0.13379 0.90024 0.0
H658 H 0.51185 0.16794 0.84546 0.0
H659 H 0.49683 0.07831 0.90232 0.0
C660 C 0.54127 0.05718 0.88533 0.0
C661 C 0.56045 0.05703 0.86611 0.0
C662 C 0.48554 0.16033 0.85748 0.0
C663 C 0.49617 0.09207 0.8699 0.0
C664 C 0.46385 0.18895 0.85882 0.0
C665 C 0.42904 0.17946 0.87397 0.0
C666 C 0.47308 0.12234 0.87154 0.0
C667 C 0.41878 0.14218 0.88827 0.0
C668 C 0.50854 0.07448 0.88728 0.0
C669 C 0.54217 0.06893 0.84893 0.0
N670 N 0.4409 0.11487 0.88676 0.0
N671 N 0.51184 0.08708 0.85126 0.0
H672 H 0.24337 0.49783 0.36854 0.0
H673 H 0.50227 0.55657 0.40432 0.0
H674 H 0.24783 0.38653 0.40545 0.0
H675 H 0.46622 0.57115 0.34209 0.0
H676 H 0.41422 0.50317 0.4114 0.0
H677 H 0.33239 0.5424 0.36732 0.0
C678 C 0.26306 0.48331 0.37679 0.0
C679 C 0.23821 0.43782 0.38666 0.0
C680 C 0.42609 0.51725 0.39613 0.0
C681 C 0.33969 0.48832 0.3851 0.0
C682 C 0.47605 0.54703 0.392 0.0
C683 C 0.4911 0.56872 0.37267 0.0
C684 C 0.39204 0.51037 0.38086 0.0
C685 C 0.45591 0.55574 0.35727 0.0
C686 C 0.31373 0.5085 0.37592 0.0
C687 C 0.26572 0.42124 0.39744 0.0
N688 N 0.40787 0.52832 0.36182 0.0
N689 N 0.31542 0.44625 0.39613 0.0
H690 H 0.92931 0.51394 0.8338 0.0
H691 H 0.83683 0.27996 0.90561 0.0
H692 H 0.92777 0.52548 0.89919 0.0
H693 H 0.78938 0.28045 0.84375 0.0
H694 H 0.89069 0.36948 0.90355 0.0
H695 H 0.90511 0.4276 0.83729 0.0
C696 C 0.92623 0.49871 0.84893 0.0
C697 C 0.93048 0.52631 0.86624 0.0
C698 C 0.86845 0.34963 0.8905 0.0
C699 C 0.90033 0.42768 0.87035 0.0
C700 C 0.83743 0.29885 0.89171 0.0
C701 C 0.8081 0.27281 0.87491 0.0
C702 C 0.87077 0.37397 0.87223 0.0
C703 C 0.81069 0.29895 0.85718 0.0
C704 C 0.91159 0.44938 0.85093 0.0
C705 C 0.92511 0.50503 0.88554 0.0
N706 N 0.84163 0.34797 0.8563 0.0
N707 N 0.90907 0.45632 0.88712 0.0
H708 H 0.17544 0.42372 0.2894 0.0
H709 H 0.21472 0.27476 0.20079 0.0
H710 H 0.09421 0.26617 0.28236 0.0
H711 H 0.24897 0.42429 0.19159 0.0
H712 H 0.18916 0.27785 0.2354 0.0
H713 H 0.21704 0.43004 0.25691 0.0
C714 C 0.1661 0.39062 0.281 0.0
C715 C 0.13118 0.34437 0.28858 0.0
C716 C 0.20272 0.31017 0.22587 0.0
C717 C 0.17935 0.35135 0.25209 0.0
C718 C 0.21759 0.30854 0.20615 0.0
C719 C 0.23298 0.34897 0.19316 0.0
C720 C 0.20311 0.35243 0.23267 0.0
C721 C 0.2368 0.3921 0.20107 0.0
C722 C 0.18998 0.39428 0.2626 0.0
C723 C 0.12063 0.30265 0.27715 0.0
N724 N 0.22119 0.39253 0.22033 0.0
N725 N 0.14484 0.30717 0.2596 0.0
H726 H 0.90212 0.23475 0.70094 0.0
H727 H 0.70269 0.16486 0.7861 0.0
H728 H 0.7616 0.21498 0.68305 0.0
H729 H 0.79577 0.1017 0.78092 0.0
H730 H 0.72864 0.20017 0.75172 0.0
H731 H 0.87117 0.20843 0.73527 0.0
C732 C 0.86494 0.2256 0.7043 0.0
C733 C 0.83399 0.22593 0.689 0.0
C734 C 0.74275 0.17814 0.75821 0.0
C735 C 0.79852 0.19563 0.72825 0.0
C736 C 0.72797 0.15789 0.77769 0.0
C737 C 0.74743 0.13062 0.78646 0.0
C738 C 0.77787 0.17181 0.74788 0.0
C739 C 0.77996 0.12263 0.77491 0.0
C740 C 0.84731 0.21038 0.72386 0.0
C741 C 0.78644 0.21468 0.69439 0.0
N742 N 0.79466 0.14375 0.75636 0.0
N743 N 0.76974 0.19927 0.71365 0.0
H744 H 0.72065 0.88695 0.19729 0.0
H745 H 0.55382 0.72476 0.28951 0.0
H746 H 0.5626 0.81121 0.19488 0.0
H747 H 0.70863 0.777 0.28448 0.0
H748 H 0.55494 0.75562 0.25514 0.0
H749 H 0.71604 0.84966 0.23029 0.0
C750 C 0.6849 0.86283 0.20378 0.0
C751 C 0.64192 0.85215 0.19324 0.0
C752 C 0.58848 0.75977 0.26151 0.0
C753 C 0.63643 0.80872 0.23105 0.0
C754 C 0.58785 0.7419 0.28108 0.0
C755 C 0.63133 0.74876 0.29 0.0
C756 C 0.63294 0.78489 0.25091 0.0
C757 C 0.67429 0.77123 0.27833 0.0
C758 C 0.68231 0.84118 0.22258 0.0
C759 C 0.59668 0.82051 0.20246 0.0
N760 N 0.67409 0.78896 0.2595 0.0
N761 N 0.5951 0.79981 0.22086 0.0
H762 H 0.78487 0.5473 0.67847 0.0
H763 H 0.89604 0.63661 0.77308 0.0
H764 H 0.70188 0.60811 0.70432 0.0
H765 H 0.74981 0.54813 0.79666 0.0
H766 H 0.86306 0.61429 0.73826 0.0
H767 H 0.80758 0.53573 0.71316 0.0
C768 C 0.76989 0.55632 0.69148 0.0
C769 C 0.74168 0.57875 0.68876 0.0
C770 C 0.83854 0.59884 0.75114 0.0
C771 C 0.76685 0.56536 0.72789 0.0
C772 C 0.85717 0.61179 0.77087 0.0
C773 C 0.82543 0.59401 0.78756 0.0
C774 C 0.78783 0.56943 0.74823 0.0
C775 C 0.7753 0.5622 0.78406 0.0
C776 C 0.78309 0.55006 0.71112 0.0
C777 C 0.72379 0.59078 0.70596 0.0
N778 N 0.75769 0.552 0.76467 0.0
N779 N 0.73691 0.58412 0.72491 0.0
H780 H 0.14889 0.72823 0.19179 0.0
H781 H 0.14503 0.88586 0.28614 0.0
H782 H 0.06249 0.79912 0.19407 0.0
H783 H 0.22335 0.80651 0.28726 0.0
H784 H 0.11698 0.85606 0.25177 0.0
H785 H 0.17674 0.75577 0.22667 0.0
C786 C 0.13529 0.74903 0.19969 0.0
C787 C 0.10351 0.76163 0.18994 0.0
C788 C 0.14041 0.84521 0.25948 0.0
C789 C 0.13577 0.79376 0.22965 0.0
C790 C 0.15671 0.86247 0.2791 0.0
C791 C 0.18647 0.84852 0.28965 0.0
C792 C 0.15391 0.81373 0.25026 0.0
C793 C 0.20046 0.81821 0.27969 0.0
C794 C 0.15144 0.76497 0.21955 0.0
C795 C 0.08717 0.78873 0.20091 0.0
N796 N 0.18386 0.80162 0.26054 0.0
N797 N 0.10374 0.80412 0.22011 0.0
H798 H 0.42825 0.2694 0.78695 0.0
H799 H 0.28909 0.06633 0.70275 0.0
H800 H 0.27178 0.19226 0.7768 0.0
H801 H 0.42866 0.19284 0.68782 0.0
H802 H 0.29339 0.10114 0.7363 0.0
H803 H 0.43794 0.23487 0.75487 0.0
C804 C 0.39611 0.24597 0.77788 0.0
C805 C 0.34904 0.23333 0.78467 0.0
C806 C 0.32344 0.12091 0.72578 0.0
C807 C 0.35995 0.19285 0.74878 0.0
C808 C 0.32124 0.10091 0.70674 0.0
C809 C 0.35807 0.12732 0.6924 0.0
C810 C 0.3627 0.16754 0.73052 0.0
C811 C 0.39933 0.1716 0.69845 0.0
C812 C 0.40174 0.22612 0.75974 0.0
C813 C 0.30872 0.20284 0.77232 0.0
N814 N 0.40024 0.19098 0.71708 0.0
N815 N 0.31508 0.1831 0.75516 0.0
H816 H 0.29266 0.1974 0.94678 0.0
H817 H 0.19025 0.30964 0.02848 0.0
H818 H 0.24714 0.30145 0.93109 0.0
H819 H 0.29011 0.2588 0.04403 0.0
H820 H 0.196 0.29217 -0.00743 0.0
H821 H 0.27668 0.20494 0.98271 0.0
C822 C 0.27894 0.22149 0.95088 0.0
C823 C 0.27163 0.24922 0.93603 0.0
C824 C 0.21646 0.28475 0.0039 0.0
C825 C 0.25307 0.25763 0.97683 0.0
C826 C 0.21312 0.29455 0.02435 0.0
C827 C 0.24011 0.28605 0.03917 0.0
C828 C 0.24638 0.26567 -0.00162 0.0
C829 C 0.26916 0.26643 0.03303 0.0
C830 C 0.27004 0.22589 0.97134 0.0
C831 C 0.25381 0.27988 0.94213 0.0
N832 N 0.27151 0.25683 0.01305 0.0
N833 N 0.24511 0.28328 0.96211 0.0
H834 H 0.96514 0.31311 0.435 0.0
H835 H 0.92094 0.15901 0.53612 0.0
H836 H 0.03149 0.22342 0.44271 0.0
H837 H 0.94683 0.30694 0.53644 0.0
H838 H 0.94268 0.16854 0.49967 0.0
H839 H 0.93776 0.29655 0.47046 0.0
C840 C 0.97353 0.28957 0.44411 0.0
C841 C 0.0009 0.26987 0.43605 0.0
C842 C 0.94346 0.19869 0.50785 0.0
C843 C 0.96925 0.25045 0.47629 0.0
C844 C 0.931 0.19328 0.52849 0.0
C845 C 0.9325 0.2324 0.53919 0.0
C846 C 0.95594 0.2429 0.49795 0.0
C847 C 0.94575 0.27612 0.52874 0.0
C848 C 0.9581 0.28035 0.46428 0.0
C849 C 0.01089 0.23968 0.44849 0.0
N850 N 0.9566 0.28007 0.50862 0.0
N851 N -0.00514 0.23066 0.46808 0.0
H852 H 0.65503 0.88359 0.02853 0.0
H853 H 0.76829 0.10974 0.95155 0.0
H854 H 0.70677 0.03236 0.04809 0.0
H855 H 0.66682 0.96112 0.93277 0.0
H856 H 0.75653 0.08209 0.98711 0.0
H857 H 0.66955 0.91175 -0.00687 0.0
C858 C 0.66953 0.92218 0.02538 0.0
C859 C 0.67955 0.95568 0.04125 0.0
C860 C 0.73689 0.05566 0.97516 0.0
C861 C 0.69655 0.98805 0.00089 0.0
C862 C 0.74373 0.07132 0.9549 0.0
C863 C 0.71834 0.03768 0.93922 0.0
C864 C 0.70509 0.00597 0.97966 0.0
C865 C 0.68686 0.98835 0.9444 0.0
C866 C 0.67764 0.93815 0.0052 0.0
C867 C 0.69822 0.00525 0.0363 0.0
N868 N 0.68126 0.97394 0.96419 0.0
N869 N 0.70634 0.02001 0.01652 0.0
H870 H 0.80484 0.75972 0.53981 0.0
H871 H 0.61865 0.65454 0.44918 0.0
H872 H 0.64993 0.66562 0.5504 0.0
H873 H 0.73177 0.807 0.44787 0.0
H874 H 0.63708 0.65084 0.48523 0.0
H875 H 0.78629 0.77192 0.50448 0.0
C876 C 0.76707 0.74196 0.53474 0.0
C877 C 0.72884 0.71163 0.54796 0.0
C878 C 0.65763 0.68512 0.47703 0.0
C879 C 0.70784 0.72455 0.50793 0.0
C880 C 0.64732 0.68719 0.45654 0.0
C881 C 0.67368 0.73117 0.44571 0.0
C882 C 0.69542 0.7269 0.48652 0.0
C883 C 0.71045 0.77256 0.45586 0.0
C884 C 0.7566 0.74909 0.51472 0.0
C885 C 0.68049 0.68949 0.54073 0.0
N886 N 0.72079 0.76932 0.47575 0.0
N887 N 0.6714 0.6958 0.52109 0.0
H888 H 0.02708 0.73126 0.92534 0.0
H889 H 0.95161 0.675 0.04145 0.0
H890 H 0.88211 0.68852 0.94694 0.0
H891 H 0.1013 0.77331 0.02341 0.0
H892 H 0.92566 0.67233 0.00619 0.0
H893 H 0.05552 0.74135 0.96072 0.0
C894 C 0.00134 0.72435 0.93752 0.0
C895 C 0.9521 0.70879 0.93324 0.0
C896 C 0.96416 0.69459 0.00997 0.0
C897 C -0.01576 0.71962 0.97355 0.0
C898 C 0.9791 0.69582 0.03004 0.0
C899 C 0.02875 0.72433 0.03534 0.0
C900 C -0.00085 0.72145 -0.00499 0.0
C901 C 0.06266 0.75091 0.01996 0.0
C902 C 0.01764 0.73023 0.95766 0.0
C903 C 0.92037 0.70062 0.94957 0.0
N904 N 0.04725 0.74857 0.0004 0.0
N905 N 0.93688 0.70558 0.96905 0.0
H906 H 0.28662 0.01496 0.43495 0.0
H907 H 0.24282 0.94683 0.55236 0.0
H908 H 0.19408 0.86614 0.45585 0.0
H909 H 0.28711 0.09162 0.52939 0.0
H910 H 0.22895 0.91627 0.51735 0.0
H911 H 0.29285 0.04375 0.46988 0.0
C912 C 0.26778 0.98829 0.4469 0.0
C913 C 0.23992 0.93802 0.44251 0.0
C914 C 0.24127 0.95461 0.52002 0.0
C915 C 0.24685 0.97084 0.48247 0.0
C916 C 0.24932 0.97212 0.53995 0.0
C917 C 0.26644 0.02191 0.54374 0.0
C918 C 0.25116 0.98729 0.50379 0.0
C919 C 0.27391 0.05297 0.52714 0.0
C920 C 0.27105 0.00482 0.4668 0.0
C921 C 0.21593 0.9052 0.45858 0.0
N922 N 0.26673 0.03523 0.50783 0.0
N923 N 0.2202 0.92219 0.47793 0.0
loop_
_geom_bond_atom_site_label_1
_geom_bond_atom_site_label_2
_geom_bond_distance
_geom_bond_site_symmetry_2
_ccdc_geom_bond_type
O0 Zn1 1.953 . S
O0 C16 1.225 . S
Zn1 O0 1.953 . S
Zn1 O2 1.949 . S
Zn1 O8 1.919 . S
Zn1 O13 1.924 . S
O2 Zn1 1.949 . S
O2 Zn3 1.923 . S
O2 Zn4 1.950 . S
O2 Zn5 1.945 . S
Zn3 O2 1.923 . S
Zn3 O6 1.933 . S
Zn3 O9 1.941 . S
Zn3 O10 1.965 . S
Zn4 O2 1.950 . S
Zn4 O11 1.938 . S
Zn4 O12 1.906 . S
Zn4 O22 1.953 . S
Zn5 O2 1.945 . S
Zn5 O7 1.932 . S
Zn5 O14 1.977 . S
Zn5 O15 1.910 . S
O6 Zn3 1.933 . S
O6 C17 1.226 . S
O7 Zn5 1.932 . S
O7 C17 1.307 . S
O8 Zn1 1.919 . S
O8 C19 1.253 . S
O9 Zn3 1.941 . S
O9 C19 1.283 . S
O10 Zn3 1.965 . S
O10 C18 1.303 . S
O11 Zn4 1.938 . S
O11 C18 1.247 . S
O12 Zn4 1.906 . S
O12 C20 1.304 . S
O13 Zn1 1.924 . S
O13 C21 1.311 . S
O14 Zn5 1.977 . S
O14 C20 1.272 . S
O15 Zn5 1.910 . S
O15 C21 1.231 . S
C16 O0 1.225 . S
C16 O22 1.298 . S
C17 O6 1.226 . S
C17 O7 1.307 . S
C18 O10 1.303 . S
C18 O11 1.247 . S
C19 O8 1.253 . S
C19 O9 1.283 . S
C20 O12 1.304 . S
C20 O14 1.272 . S
C21 O13 1.311 . S
C21 O15 1.231 . S
O22 Zn4 1.953 . S
O22 C16 1.298 . S
O23 Zn24 1.953 . S
O23 C39 1.225 . S
Zn24 O23 1.953 . S
Zn24 O25 1.949 . S
Zn24 O31 1.919 . S
Zn24 O36 1.924 . S
O25 Zn24 1.949 . S
O25 Zn26 1.923 . S
O25 Zn27 1.950 . S
O25 Zn28 1.945 . S
Zn26 O25 1.923 . S
Zn26 O29 1.933 . S
Zn26 O32 1.941 . S
Zn26 O33 1.965 . S
Zn27 O25 1.950 . S
Zn27 O34 1.938 . S
Zn27 O35 1.906 . S
Zn27 O45 1.953 . S
Zn28 O25 1.945 . S
Zn28 O30 1.932 . S
Zn28 O37 1.977 . S
Zn28 O38 1.910 . S
O29 Zn26 1.933 . S
O29 C40 1.226 1_655 S
O30 Zn28 1.932 . S
O30 C40 1.307 1_655 S
O31 Zn24 1.919 . S
O31 C42 1.253 . S
O32 Zn26 1.941 . S
O32 C42 1.283 . S
O33 Zn26 1.965 . S
O33 C41 1.303 . S
O34 Zn27 1.938 . S
O34 C41 1.247 . S
O35 Zn27 1.906 . S
O35 C43 1.304 . S
O36 Zn24 1.924 . S
O36 C44 1.311 . S
O37 Zn28 1.977 . S
O37 C43 1.272 . S
O38 Zn28 1.910 . S
O38 C44 1.231 . S
C39 O23 1.225 . S
C39 O45 1.298 . S
C40 O29 1.226 1_455 S
C40 O30 1.307 1_455 S
C41 O33 1.303 . S
C41 O34 1.247 . S
C42 O31 1.253 . S
C42 O32 1.283 . S
C43 O35 1.304 . S
C43 O37 1.272 . S
C44 O36 1.311 . S
C44 O38 1.231 . S
O45 Zn27 1.953 . S
O45 C39 1.298 . S
O46 Zn47 1.953 . S
O46 C62 1.225 . S
Zn47 O46 1.953 . S
Zn47 O48 1.949 . S
Zn47 O54 1.919 . S
Zn47 O59 1.924 . S
O48 Zn47 1.949 . S
O48 Zn49 1.923 . S
O48 Zn50 1.950 . S
O48 Zn51 1.945 . S
Zn49 O48 1.923 . S
Zn49 O52 1.933 . S
Zn49 O55 1.941 . S
Zn49 O56 1.965 . S
Zn50 O48 1.950 . S
Zn50 O57 1.938 . S
Zn50 O58 1.906 . S
Zn50 O68 1.953 . S
Zn51 O48 1.945 . S
Zn51 O53 1.932 . S
Zn51 O60 1.977 . S
Zn51 O61 1.910 . S
O52 Zn49 1.933 . S
O52 C63 1.226 1_565 S
O53 Zn51 1.932 . S
O53 C63 1.307 1_565 S
O54 Zn47 1.919 . S
O54 C65 1.253 . S
O55 Zn49 1.941 . S
O55 C65 1.283 . S
O56 Zn49 1.965 . S
O56 C64 1.303 . S
O57 Zn50 1.938 . S
O57 C64 1.247 . S
O58 Zn50 1.906 . S
O58 C66 1.304 . S
O59 Zn47 1.924 . S
O59 C67 1.311 . S
O60 Zn51 1.977 . S
O60 C66 1.272 . S
O61 Zn51 1.910 . S
O61 C67 1.231 . S
C62 O46 1.225 . S
C62 O68 1.298 . S
C63 O52 1.226 1_545 S
C63 O53 1.307 1_545 S
C64 O56 1.303 . S
C64 O57 1.247 . S
C65 O54 1.253 . S
C65 O55 1.283 . S
C66 O58 1.304 . S
C66 O60 1.272 . S
C67 O59 1.311 . S
C67 O61 1.231 . S
O68 Zn50 1.953 . S
O68 C62 1.298 . S
O69 Zn70 1.953 . S
O69 C85 1.225 . S
Zn70 O69 1.953 . S
Zn70 O71 1.949 . S
Zn70 O77 1.919 . S
Zn70 O82 1.924 . S
O71 Zn70 1.949 . S
O71 Zn72 1.923 . S
O71 Zn73 1.950 . S
O71 Zn74 1.945 . S
Zn72 O71 1.923 . S
Zn72 O75 1.933 . S
Zn72 O78 1.941 . S
Zn72 O79 1.965 . S
Zn73 O71 1.950 . S
Zn73 O80 1.938 . S
Zn73 O81 1.906 . S
Zn73 O91 1.953 . S
Zn74 O71 1.945 . S
Zn74 O76 1.932 . S
Zn74 O83 1.977 . S
Zn74 O84 1.910 . S
O75 Zn72 1.933 . S
O75 C86 1.226 . S
O76 Zn74 1.932 . S
O76 C86 1.307 . S
O77 Zn70 1.919 . S
O77 C88 1.253 . S
O78 Zn72 1.941 . S
O78 C88 1.283 . S
O79 Zn72 1.965 . S
O79 C87 1.303 . S
O80 Zn73 1.938 . S
O80 C87 1.247 . S
O81 Zn73 1.906 . S
O81 C89 1.304 . S
O82 Zn70 1.924 . S
O82 C90 1.311 . S
O83 Zn74 1.977 . S
O83 C89 1.272 . S
O84 Zn74 1.910 . S
O84 C90 1.231 . S
C85 O69 1.225 . S
C85 O91 1.298 . S
C86 O75 1.226 . S
C86 O76 1.307 . S
C87 O79 1.303 . S
C87 O80 1.247 . S
C88 O77 1.253 . S
C88 O78 1.283 . S
C89 O81 1.304 . S
C89 O83 1.272 . S
C90 O82 1.311 . S
C90 O84 1.231 . S
O91 Zn73 1.953 . S
O91 C85 1.298 . S
O92 Zn93 1.953 . S
O92 C108 1.225 . S
Zn93 O92 1.953 . S
Zn93 O94 1.949 . S
Zn93 O100 1.919 . S
Zn93 O105 1.924 . S
O94 Zn93 1.949 . S
O94 Zn95 1.923 . S
O94 Zn96 1.950 . S
O94 Zn97 1.945 . S
Zn95 O94 1.923 . S
Zn95 O98 1.933 . S
Zn95 O101 1.941 . S
Zn95 O102 1.965 . S
Zn96 O94 1.950 . S
Zn96 O103 1.938 . S
Zn96 O104 1.906 . S
Zn96 O114 1.953 . S
Zn97 O94 1.945 . S
Zn97 O99 1.932 . S
Zn97 O106 1.977 . S
Zn97 O107 1.910 . S
O98 Zn95 1.933 . S
O98 C109 1.226 1_455 S
O99 Zn97 1.932 . S
O99 C109 1.307 1_455 S
O100 Zn93 1.919 . S
O100 C111 1.253 . S
O101 Zn95 1.941 . S
O101 C111 1.283 . S
O102 Zn95 1.965 . S
O102 C110 1.303 . S
O103 Zn96 1.938 . S
O103 C110 1.247 . S
O104 Zn96 1.906 . S
O104 C112 1.304 . S
O105 Zn93 1.924 . S
O105 C113 1.311 . S
O106 Zn97 1.977 . S
O106 C112 1.272 . S
O107 Zn97 1.910 . S
O107 C113 1.231 . S
C108 O92 1.225 . S
C108 O114 1.298 . S
C109 O98 1.226 1_655 S
C109 O99 1.307 1_655 S
C110 O102 1.303 . S
C110 O103 1.247 . S
C111 O100 1.253 . S
C111 O101 1.283 . S
C112 O104 1.304 . S
C112 O106 1.272 . S
C113 O105 1.311 . S
C113 O107 1.231 . S
O114 Zn96 1.953 . S
O114 C108 1.298 . S
O115 Zn116 1.953 . S
O115 C131 1.225 . S
Zn116 O115 1.953 . S
Zn116 O117 1.949 . S
Zn116 O123 1.919 . S
Zn116 O128 1.924 . S
O117 Zn116 1.949 . S
O117 Zn118 1.923 . S
O117 Zn119 1.950 . S
O117 Zn120 1.945 . S
Zn118 O117 1.923 . S
Zn118 O121 1.933 . S
Zn118 O124 1.941 . S
Zn118 O125 1.965 . S
Zn119 O117 1.950 . S
Zn119 O126 1.938 . S
Zn119 O127 1.906 . S
Zn119 O137 1.953 . S
Zn120 O117 1.945 . S
Zn120 O122 1.932 . S
Zn120 O129 1.977 . S
Zn120 O130 1.910 . S
O121 Zn118 1.933 . S
O121 C132 1.226 1_545 S
O122 Zn120 1.932 . S
O122 C132 1.307 1_545 S
O123 Zn116 1.919 . S
O123 C134 1.253 . S
O124 Zn118 1.941 . S
O124 C134 1.283 . S
O125 Zn118 1.965 . S
O125 C133 1.303 . S
O126 Zn119 1.938 . S
O126 C133 1.247 . S
O127 Zn119 1.906 . S
O127 C135 1.304 . S
O128 Zn116 1.924 . S
O128 C136 1.311 . S
O129 Zn120 1.977 . S
O129 C135 1.272 . S
O130 Zn120 1.910 . S
O130 C136 1.231 . S
C131 O115 1.225 . S
C131 O137 1.298 . S
C132 O121 1.226 1_565 S
C132 O122 1.307 1_565 S
C133 O125 1.303 . S
C133 O126 1.247 . S
C134 O123 1.253 . S
C134 O124 1.283 . S
C135 O127 1.304 . S
C135 O129 1.272 . S
C136 O128 1.311 . S
C136 O130 1.231 . S
O137 Zn119 1.953 . S
O137 C131 1.298 . S
O138 Zn139 1.953 . S
O138 C154 1.225 . S
Zn139 O138 1.953 . S
Zn139 O140 1.949 . S
Zn139 O146 1.919 . S
Zn139 O151 1.924 . S
O140 Zn139 1.949 . S
O140 Zn141 1.923 . S
O140 Zn142 1.950 . S
O140 Zn143 1.945 . S
Zn141 O140 1.923 . S
Zn141 O144 1.933 . S
Zn141 O147 1.941 . S
Zn141 O148 1.965 . S
Zn142 O140 1.950 . S
Zn142 O149 1.938 . S
Zn142 O150 1.906 . S
Zn142 O160 1.953 . S
Zn143 O140 1.945 . S
Zn143 O145 1.932 . S
Zn143 O152 1.977 . S
Zn143 O153 1.910 . S
O144 Zn141 1.933 . S
O144 C155 1.226 . S
O145 Zn143 1.932 . S
O145 C155 1.307 . S
O146 Zn139 1.919 . S
O146 C157 1.253 . S
O147 Zn141 1.941 . S
O147 C157 1.283 . S
O148 Zn141 1.965 . S
O148 C156 1.303 . S
O149 Zn142 1.938 . S
O149 C156 1.247 . S
O150 Zn142 1.906 . S
O150 C158 1.304 . S
O151 Zn139 1.924 . S
O151 C159 1.311 . S
O152 Zn143 1.977 . S
O152 C158 1.272 . S
O153 Zn143 1.910 . S
O153 C159 1.231 . S
C154 O138 1.225 . S
C154 O160 1.298 . S
C155 O144 1.226 . S
C155 O145 1.307 . S
C156 O148 1.303 . S
C156 O149 1.247 . S
C157 O146 1.253 . S
C157 O147 1.283 . S
C158 O150 1.304 . S
C158 O152 1.272 . S
C159 O151 1.311 . S
C159 O153 1.231 . S
O160 Zn142 1.953 . S
O160 C154 1.298 . S
O161 Zn162 1.953 . S
O161 C177 1.225 . S
Zn162 O161 1.953 . S
Zn162 O163 1.949 . S
Zn162 O169 1.919 . S
Zn162 O174 1.924 . S
O163 Zn162 1.949 . S
O163 Zn164 1.923 . S
O163 Zn165 1.950 . S
O163 Zn166 1.945 . S
Zn164 O163 1.923 . S
Zn164 O167 1.933 . S
Zn164 O170 1.941 . S
Zn164 O171 1.965 . S
Zn165 O163 1.950 . S
Zn165 O172 1.938 . S
Zn165 O173 1.906 . S
Zn165 O183 1.953 . S
Zn166 O163 1.945 . S
Zn166 O168 1.932 . S
Zn166 O175 1.977 . S
Zn166 O176 1.910 . S
O167 Zn164 1.933 . S
O167 C178 1.226 1_655 S
O168 Zn166 1.932 . S
O168 C178 1.307 1_655 S
O169 Zn162 1.919 . S
O169 C180 1.253 . S
O170 Zn164 1.941 . S
O170 C180 1.283 . S
O171 Zn164 1.965 . S
O171 C179 1.303 . S
O172 Zn165 1.938 . S
O172 C179 1.247 . S
O173 Zn165 1.906 . S
O173 C181 1.304 . S
O174 Zn162 1.924 . S
O174 C182 1.311 . S
O175 Zn166 1.977 . S
O175 C181 1.272 . S
O176 Zn166 1.910 . S
O176 C182 1.231 . S
C177 O161 1.225 . S
C177 O183 1.298 . S
C178 O167 1.226 1_455 S
C178 O168 1.307 1_455 S
C179 O171 1.303 . S
C179 O172 1.247 . S
C180 O169 1.253 . S
C180 O170 1.283 . S
C181 O173 1.304 . S
C181 O175 1.272 . S
C182 O174 1.311 . S
C182 O176 1.231 . S
O183 Zn165 1.953 . S
O183 C177 1.298 . S
O184 Zn185 1.953 . S
O184 C200 1.225 . S
Zn185 O184 1.953 . S
Zn185 O186 1.949 . S
Zn185 O192 1.919 . S
Zn185 O197 1.924 . S
O186 Zn185 1.949 . S
O186 Zn187 1.923 . S
O186 Zn188 1.950 . S
O186 Zn189 1.945 . S
Zn187 O186 1.923 . S
Zn187 O190 1.933 . S
Zn187 O193 1.941 . S
Zn187 O194 1.965 . S
Zn188 O186 1.950 . S
Zn188 O195 1.938 . S
Zn188 O196 1.906 . S
Zn188 O206 1.953 . S
Zn189 O186 1.945 . S
Zn189 O191 1.932 . S
Zn189 O198 1.977 . S
Zn189 O199 1.910 . S
O190 Zn187 1.933 . S
O190 C201 1.226 1_565 S
O191 Zn189 1.932 . S
O191 C201 1.307 1_565 S
O192 Zn185 1.919 . S
O192 C203 1.253 . S
O193 Zn187 1.941 . S
O193 C203 1.283 . S
O194 Zn187 1.965 . S
O194 C202 1.303 . S
O195 Zn188 1.938 . S
O195 C202 1.247 . S
O196 Zn188 1.906 . S
O196 C204 1.304 . S
O197 Zn185 1.924 . S
O197 C205 1.311 . S
O198 Zn189 1.977 . S
O198 C204 1.272 . S
O199 Zn189 1.910 . S
O199 C205 1.231 . S
C200 O184 1.225 . S
C200 O206 1.298 . S
C201 O190 1.226 1_545 S
C201 O191 1.307 1_545 S
C202 O194 1.303 . S
C202 O195 1.247 . S
C203 O192 1.253 . S
C203 O193 1.283 . S
C204 O196 1.304 . S
C204 O198 1.272 . S
C205 O197 1.311 . S
C205 O199 1.231 . S
O206 Zn188 1.953 . S
O206 C200 1.298 . S
O207 Zn208 1.953 . S
O207 C223 1.225 . S
Zn208 O207 1.953 . S
Zn208 O209 1.949 . S
Zn208 O215 1.919 . S
Zn208 O220 1.924 . S
O209 Zn208 1.949 . S
O209 Zn210 1.923 . S
O209 Zn211 1.950 . S
O209 Zn212 1.945 . S
Zn210 O209 1.923 . S
Zn210 O213 1.933 . S
Zn210 O216 1.941 . S
Zn210 O217 1.965 . S
Zn211 O209 1.950 . S
Zn211 O218 1.938 . S
Zn211 O219 1.906 . S
Zn211 O229 1.953 . S
Zn212 O209 1.945 . S
Zn212 O214 1.932 . S
Zn212 O221 1.977 . S
Zn212 O222 1.910 . S
O213 Zn210 1.933 . S
O213 C224 1.226 . S
O214 Zn212 1.932 . S
O214 C224 1.307 . S
O215 Zn208 1.919 . S
O215 C226 1.253 . S
O216 Zn210 1.941 . S
O216 C226 1.283 . S
O217 Zn210 1.965 . S
O217 C225 1.303 . S
O218 Zn211 1.938 . S
O218 C225 1.247 . S
O219 Zn211 1.906 . S
O219 C227 1.304 . S
O220 Zn208 1.924 . S
O220 C228 1.311 . S
O221 Zn212 1.977 . S
O221 C227 1.272 . S
O222 Zn212 1.910 . S
O222 C228 1.231 . S
C223 O207 1.225 . S
C223 O229 1.298 . S
C224 O213 1.226 . S
C224 O214 1.307 . S
C225 O217 1.303 . S
C225 O218 1.247 . S
C226 O215 1.253 . S
C226 O216 1.283 . S
C227 O219 1.304 . S
C227 O221 1.272 . S
C228 O220 1.311 . S
C228 O222 1.231 . S
O229 Zn211 1.953 . S
O229 C223 1.298 . S
O230 Zn231 1.953 . S
O230 C246 1.225 . S
Zn231 O230 1.953 . S
Zn231 O232 1.949 . S
Zn231 O238 1.919 . S
Zn231 O243 1.924 . S
O232 Zn231 1.949 . S
O232 Zn233 1.923 . S
O232 Zn234 1.950 . S
O232 Zn235 1.945 . S
Zn233 O232 1.923 . S
Zn233 O236 1.933 . S
Zn233 O239 1.941 . S
Zn233 O240 1.965 . S
Zn234 O232 1.950 . S
Zn234 O241 1.938 . S
Zn234 O242 1.906 . S
Zn234 O252 1.953 . S
Zn235 O232 1.945 . S
Zn235 O237 1.932 . S
Zn235 O244 1.977 . S
Zn235 O245 1.910 . S
O236 Zn233 1.933 . S
O236 C247 1.226 1_455 S
O237 Zn235 1.932 . S
O237 C247 1.307 1_455 S
O238 Zn231 1.919 . S
O238 C249 1.253 . S
O239 Zn233 1.941 . S
O239 C249 1.283 . S
O240 Zn233 1.965 . S
O240 C248 1.303 . S
O241 Zn234 1.938 . S
O241 C248 1.247 . S
O242 Zn234 1.906 . S
O242 C250 1.304 . S
O243 Zn231 1.924 . S
O243 C251 1.311 . S
O244 Zn235 1.977 . S
O244 C250 1.272 . S
O245 Zn235 1.910 . S
O245 C251 1.231 . S
C246 O230 1.225 . S
C246 O252 1.298 . S
C247 O236 1.226 1_655 S
C247 O237 1.307 1_655 S
C248 O240 1.303 . S
C248 O241 1.247 . S
C249 O238 1.253 . S
C249 O239 1.283 . S
C250 O242 1.304 . S
C250 O244 1.272 . S
C251 O243 1.311 . S
C251 O245 1.231 . S
O252 Zn234 1.953 . S
O252 C246 1.298 . S
O253 Zn254 1.953 . S
O253 C269 1.225 . S
Zn254 O253 1.953 . S
Zn254 O255 1.949 . S
Zn254 O261 1.919 . S
Zn254 O266 1.924 . S
O255 Zn254 1.949 . S
O255 Zn256 1.923 . S
O255 Zn257 1.950 . S
O255 Zn258 1.945 . S
Zn256 O255 1.923 . S
Zn256 O259 1.933 . S
Zn256 O262 1.941 . S
Zn256 O263 1.965 . S
Zn257 O255 1.950 . S
Zn257 O264 1.938 . S
Zn257 O265 1.906 . S
Zn257 O275 1.953 . S
Zn258 O255 1.945 . S
Zn258 O260 1.932 . S
Zn258 O267 1.977 . S
Zn258 O268 1.910 . S
O259 Zn256 1.933 . S
O259 C270 1.226 1_545 S
O260 Zn258 1.932 . S
O260 C270 1.307 1_545 S
O261 Zn254 1.919 . S
O261 C272 1.253 . S
O262 Zn256 1.941 . S
O262 C272 1.283 . S
O263 Zn256 1.965 . S
O263 C271 1.303 . S
O264 Zn257 1.938 . S
O264 C271 1.247 . S
O265 Zn257 1.906 . S
O265 C273 1.304 . S
O266 Zn254 1.924 . S
O266 C274 1.311 . S
O267 Zn258 1.977 . S
O267 C273 1.272 . S
O268 Zn258 1.910 . S
O268 C274 1.231 . S
C269 O253 1.225 . S
C269 O275 1.298 . S
C270 O259 1.226 1_565 S
C270 O260 1.307 1_565 S
C271 O263 1.303 . S
C271 O264 1.247 . S
C272 O261 1.253 . S
C272 O262 1.283 . S
C273 O265 1.304 . S
C273 O267 1.272 . S
C274 O266 1.311 . S
C274 O268 1.231 . S
O275 Zn257 1.953 . S
O275 C269 1.298 . S
H276 C282 0.930 . S
H277 C286 0.930 . S
H278 C291 0.929 . S
H279 C289 0.929 . S
H280 C284 0.929 . S
H281 C290 0.929 . S
C282 H276 0.930 . S
C282 C283 1.367 . S
C282 C290 1.378 1_565 S
C283 C282 1.367 . S
C283 C291 1.433 . S
C284 H280 0.929 . S
C284 C286 1.378 . S
C284 C288 1.350 . S
C285 C288 1.463 . S
C285 C290 1.350 . S
C285 N293 1.427 . S
C286 H277 0.930 . S
C286 C284 1.378 . S
C286 C287 1.367 . S
C287 C286 1.367 . S
C287 C289 1.433 . S
C288 C284 1.350 . S
C288 C285 1.463 . S
C288 N292 1.427 . S
C289 H279 0.929 . S
C289 C287 1.433 . S
C289 N292 1.384 . S
C290 H281 0.929 . S
C290 C282 1.378 1_545 S
C290 C285 1.350 . S
C291 H278 0.929 . S
C291 C283 1.433 . S
C291 N293 1.384 1_565 S
N292 C288 1.427 . S
N292 C289 1.384 . S
N293 C285 1.427 . S
N293 C291 1.384 1_545 S
H294 C300 0.930 . S
H295 C304 0.930 1_655 S
H296 C309 0.929 . S
H297 C307 0.929 . S
H298 C302 0.929 . S
H299 C308 0.929 . S
C300 H294 0.930 . S
C300 C301 1.367 . S
C300 C308 1.378 . S
C301 C300 1.367 . S
C301 C309 1.433 . S
C302 H298 0.929 . S
C302 C304 1.378 . S
C302 C306 1.350 . S
C303 C306 1.463 . S
C303 C308 1.350 . S
C303 N311 1.427 . S
C304 H295 0.930 1_455 S
C304 C302 1.378 . S
C304 C305 1.367 . S
C305 C304 1.367 . S
C305 C307 1.433 . S
C306 C302 1.350 . S
C306 C303 1.463 . S
C306 N310 1.427 . S
C307 H297 0.929 . S
C307 C305 1.433 . S
C307 N310 1.384 . S
C308 H299 0.929 . S
C308 C300 1.378 . S
C308 C303 1.350 . S
C309 H296 0.929 . S
C309 C301 1.433 . S
C309 N311 1.384 . S
N310 C306 1.427 . S
N310 C307 1.384 . S
N311 C303 1.427 . S
N311 C309 1.384 . S
H312 C318 0.930 . S
H313 C322 0.930 . S
H314 C327 0.929 . S
H315 C325 0.929 . S
H316 C320 0.929 . S
H317 C326 0.929 . S
C318 H312 0.930 . S
C318 C319 1.367 . S
C318 C326 1.378 . S
C319 C318 1.367 . S
C319 C327 1.433 . S
C320 H316 0.929 . S
C320 C322 1.378 1_655 S
C320 C324 1.350 . S
C321 C324 1.463 . S
C321 C326 1.350 . S
C321 N329 1.427 . S
C322 H313 0.930 . S
C322 C320 1.378 1_455 S
C322 C323 1.367 . S
C323 C322 1.367 . S
C323 C325 1.433 . S
C324 C320 1.350 . S
C324 C321 1.463 . S
C324 N328 1.427 . S
C325 H315 0.929 . S
C325 C323 1.433 . S
C325 N328 1.384 1_455 S
C326 H317 0.929 . S
C326 C318 1.378 . S
C326 C321 1.350 . S
C327 H314 0.929 . S
C327 C319 1.433 . S
C327 N329 1.384 . S
N328 C324 1.427 . S
N328 C325 1.384 1_655 S
N329 C321 1.427 . S
N329 C327 1.384 . S
H330 C336 0.930 . S
H331 C340 0.930 . S
H332 C345 0.929 . S
H333 C343 0.929 . S
H334 C338 0.929 . S
H335 C344 0.929 . S
C336 H330 0.930 . S
C336 C337 1.367 . S
C336 C344 1.378 . S
C337 C336 1.367 . S
C337 C345 1.433 . S
C338 H334 0.929 . S
C338 C340 1.378 1_565 S
C338 C342 1.350 . S
C339 C342 1.463 . S
C339 C344 1.350 . S
C339 N347 1.427 . S
C340 H331 0.930 . S
C340 C338 1.378 1_545 S
C340 C341 1.367 . S
C341 C340 1.367 . S
C341 C343 1.433 . S
C342 C338 1.350 . S
C342 C339 1.463 . S
C342 N346 1.427 . S
C343 H333 0.929 . S
C343 C341 1.433 . S
C343 N346 1.384 1_545 S
C344 H335 0.929 . S
C344 C336 1.378 . S
C344 C339 1.350 . S
C345 H332 0.929 . S
C345 C337 1.433 . S
C345 N347 1.384 . S
N346 C342 1.427 . S
N346 C343 1.384 1_565 S
N347 C339 1.427 . S
N347 C345 1.384 . S
H348 C354 0.930 . S
H349 C358 0.930 . S
H350 C363 0.929 . S
H351 C361 0.929 . S
H352 C356 0.929 . S
H353 C362 0.929 . S
C354 H348 0.930 . S
C354 C355 1.367 . S
C354 C362 1.378 . S
C355 C354 1.367 . S
C355 C363 1.433 . S
C356 H352 0.929 . S
C356 C358 1.378 . S
C356 C360 1.350 . S
C357 C360 1.463 . S
C357 C362 1.350 . S
C357 N365 1.427 . S
C358 H349 0.930 . S
C358 C356 1.378 . S
C358 C359 1.367 . S
C359 C358 1.367 . S
C359 C361 1.433 . S
C360 C356 1.350 . S
C360 C357 1.463 . S
C360 N364 1.427 . S
C361 H351 0.929 . S
C361 C359 1.433 . S
C361 N364 1.384 . S
C362 H353 0.929 . S
C362 C354 1.378 . S
C362 C357 1.350 . S
C363 H350 0.929 . S
C363 C355 1.433 . S
C363 N365 1.384 . S
N364 C360 1.427 . S
N364 C361 1.384 . S
N365 C357 1.427 . S
N365 C363 1.384 . S
H366 C372 0.930 . S
H367 C376 0.930 . S
H368 C381 0.929 1_655 S
H369 C379 0.929 . S
H370 C374 0.929 . S
H371 C380 0.929 . S
C372 H366 0.930 . S
C372 C373 1.367 . S
C372 C380 1.378 1_655 S
C373 C372 1.367 . S
C373 C381 1.433 1_655 S
C374 H370 0.929 . S
C374 C376 1.378 . S
C374 C378 1.350 . S
C375 C378 1.463 . S
C375 C380 1.350 . S
C375 N383 1.427 . S
C376 H367 0.930 . S
C376 C374 1.378 . S
C376 C377 1.367 . S
C377 C376 1.367 . S
C377 C379 1.433 . S
C378 C374 1.350 . S
C378 C375 1.463 . S
C378 N382 1.427 . S
C379 H369 0.929 . S
C379 C377 1.433 . S
C379 N382 1.384 . S
C380 H371 0.929 . S
C380 C372 1.378 1_455 S
C380 C375 1.350 . S
C381 H368 0.929 1_455 S
C381 C373 1.433 1_455 S
C381 N383 1.384 . S
N382 C378 1.427 . S
N382 C379 1.384 . S
N383 C375 1.427 . S
N383 C381 1.384 . S
H384 C390 0.930 . S
H385 C394 0.930 . S
H386 C399 0.929 . S
H387 C397 0.929 . S
H388 C392 0.929 . S
H389 C398 0.929 . S
C390 H384 0.930 . S
C390 C391 1.367 . S
C390 C398 1.378 1_455 S
C391 C390 1.367 . S
C391 C399 1.433 . S
C392 H388 0.929 . S
C392 C394 1.378 . S
C392 C396 1.350 . S
C393 C396 1.463 . S
C393 C398 1.350 . S
C393 N401 1.427 . S
C394 H385 0.930 . S
C394 C392 1.378 . S
C394 C395 1.367 . S
C395 C394 1.367 . S
C395 C397 1.433 . S
C396 C392 1.350 . S
C396 C393 1.463 . S
C396 N400 1.427 . S
C397 H387 0.929 . S
C397 C395 1.433 . S
C397 N400 1.384 . S
C398 H389 0.929 . S
C398 C390 1.378 1_655 S
C398 C393 1.350 . S
C399 H386 0.929 . S
C399 C391 1.433 . S
C399 N401 1.384 1_455 S
N400 C396 1.427 . S
N400 C397 1.384 . S
N401 C393 1.427 . S
N401 C399 1.384 1_655 S
H402 C408 0.930 . S
H403 C412 0.930 . S
H404 C417 0.929 . S
H405 C415 0.929 1_545 S
H406 C410 0.929 . S
H407 C416 0.929 . S
C408 H402 0.930 . S
C408 C409 1.367 . S
C408 C416 1.378 . S
C409 C408 1.367 . S
C409 C417 1.433 . S
C410 H406 0.929 . S
C410 C412 1.378 1_565 S
C410 C414 1.350 . S
C411 C414 1.463 . S
C411 C416 1.350 . S
C411 N419 1.427 . S
C412 H403 0.930 . S
C412 C410 1.378 1_545 S
C412 C413 1.367 . S
C413 C412 1.367 . S
C413 C415 1.433 1_545 S
C414 C410 1.350 . S
C414 C411 1.463 . S
C414 N418 1.427 . S
C415 H405 0.929 1_565 S
C415 C413 1.433 1_565 S
C415 N418 1.384 . S
C416 H407 0.929 . S
C416 C408 1.378 . S
C416 C411 1.350 . S
C417 H404 0.929 . S
C417 C409 1.433 . S
C417 N419 1.384 . S
N418 C414 1.427 . S
N418 C415 1.384 . S
N419 C411 1.427 . S
N419 C417 1.384 . S
H420 C426 0.930 . S
H421 C430 0.930 . S
H422 C435 0.929 . S
H423 C433 0.929 . S
H424 C428 0.929 . S
H425 C434 0.929 . S
C426 H420 0.930 . S
C426 C427 1.367 . S
C426 C434 1.378 . S
C427 C426 1.367 . S
C427 C435 1.433 . S
C428 H424 0.929 . S
C428 C430 1.378 . S
C428 C432 1.350 . S
C429 C432 1.463 . S
C429 C434 1.350 . S
C429 N437 1.427 . S
C430 H421 0.930 . S
C430 C428 1.378 . S
C430 C431 1.367 . S
C431 C430 1.367 . S
C431 C433 1.433 . S
C432 C428 1.350 . S
C432 C429 1.463 . S
C432 N436 1.427 . S
C433 H423 0.929 . S
C433 C431 1.433 . S
C433 N436 1.384 . S
C434 H425 0.929 . S
C434 C426 1.378 . S
C434 C429 1.350 . S
C435 H422 0.929 . S
C435 C427 1.433 . S
C435 N437 1.384 . S
N436 C432 1.427 . S
N436 C433 1.384 . S
N437 C429 1.427 . S
N437 C435 1.384 . S
H438 C444 0.930 . S
H439 C448 0.941 . S
H440 C453 0.929 . S
H441 C451 0.929 . S
H442 C446 0.929 . S
H443 C452 0.929 . S
C444 H438 0.930 . S
C444 C445 1.367 . S
C444 C452 1.378 . S
C445 C444 1.367 . S
C445 C453 1.433 . S
C446 H442 0.929 . S
C446 C448 1.362 1_455 S
C446 C450 1.350 . S
C447 C450 1.463 . S
C447 C452 1.350 . S
C447 N455 1.427 . S
C448 H439 0.941 . S
C448 C446 1.362 1_655 S
C448 C449 1.372 . S
C449 C448 1.372 . S
C449 C451 1.433 . S
C450 C446 1.350 . S
C450 C447 1.463 . S
C450 N454 1.427 . S
C451 H441 0.929 . S
C451 C449 1.433 . S
C451 N454 1.384 1_655 S
C452 H443 0.929 . S
C452 C444 1.378 . S
C452 C447 1.350 . S
C453 H440 0.929 . S
C453 C445 1.433 . S
C453 N455 1.384 . S
N454 C450 1.427 . S
N454 C451 1.384 1_455 S
N455 C447 1.427 . S
N455 C453 1.384 . S
H456 C462 0.930 . S
H457 C466 0.930 . S
H458 C471 0.929 . S
H459 C469 0.929 . S
H460 C464 0.929 . S
H461 C470 0.929 . S
C462 H456 0.930 . S
C462 C463 1.367 . S
C462 C470 1.378 . S
C463 C462 1.367 . S
C463 C471 1.433 . S
C464 H460 0.929 . S
C464 C466 1.378 1_545 S
C464 C468 1.350 . S
C465 C468 1.463 . S
C465 C470 1.350 . S
C465 N473 1.427 . S
C466 H457 0.930 . S
C466 C464 1.378 1_565 S
C466 C467 1.367 . S
C467 C466 1.367 . S
C467 C469 1.433 . S
C468 C464 1.350 . S
C468 C465 1.463 . S
C468 N472 1.427 . S
C469 H459 0.929 . S
C469 C467 1.433 . S
C469 N472 1.384 1_565 S
C470 H461 0.929 . S
C470 C462 1.378 . S
C470 C465 1.350 . S
C471 H458 0.929 . S
C471 C463 1.433 . S
C471 N473 1.384 . S
N472 C468 1.427 . S
N472 C469 1.384 1_545 S
N473 C465 1.427 . S
N473 C471 1.384 . S
H474 C480 0.930 . S
H475 C484 0.930 . S
H476 C489 0.929 . S
H477 C487 0.929 . S
H478 C482 0.929 . S
H479 C488 0.929 . S
C480 H474 0.930 . S
C480 C481 1.367 . S
C480 C488 1.378 . S
C481 C480 1.367 . S
C481 C489 1.433 . S
C482 H478 0.929 . S
C482 C484 1.378 . S
C482 C486 1.350 . S
C483 C486 1.463 . S
C483 C488 1.350 . S
C483 N491 1.427 . S
C484 H475 0.930 . S
C484 C482 1.378 . S
C484 C485 1.367 . S
C485 C484 1.367 . S
C485 C487 1.433 . S
C486 C482 1.350 . S
C486 C483 1.463 . S
C486 N490 1.427 . S
C487 H477 0.929 . S
C487 C485 1.433 . S
C487 N490 1.384 . S
C488 H479 0.929 . S
C488 C480 1.378 . S
C488 C483 1.350 . S
C489 H476 0.929 . S
C489 C481 1.433 . S
C489 N491 1.384 . S
N490 C486 1.427 . S
N490 C487 1.384 . S
N491 C483 1.427 . S
N491 C489 1.384 . S
H492 C498 0.930 . S
H493 C502 0.930 . S
H494 C507 0.929 . S
H495 C505 0.929 . S
H496 C500 0.929 . S
H497 C506 0.929 . S
C498 H492 0.930 . S
C498 C499 1.367 . S
C498 C506 1.378 . S
C499 C498 1.367 . S
C499 C507 1.433 . S
C500 H496 0.929 . S
C500 C502 1.378 . S
C500 C504 1.350 . S
C501 C504 1.463 . S
C501 C506 1.350 . S
C501 N509 1.427 . S
C502 H493 0.930 . S
C502 C500 1.378 . S
C502 C503 1.367 . S
C503 C502 1.367 . S
C503 C505 1.433 . S
C504 C500 1.350 . S
C504 C501 1.463 . S
C504 N508 1.427 . S
C505 H495 0.929 . S
C505 C503 1.433 . S
C505 N508 1.384 . S
C506 H497 0.929 . S
C506 C498 1.378 . S
C506 C501 1.350 . S
C507 H494 0.929 . S
C507 C499 1.433 . S
C507 N509 1.384 . S
N508 C504 1.427 . S
N508 C505 1.384 . S
N509 C501 1.427 . S
N509 C507 1.384 . S
H510 C516 0.930 . S
H511 C520 0.930 . S
H512 C525 0.929 . S
H513 C523 0.929 . S
H514 C518 0.929 . S
H515 C524 0.929 . S
C516 H510 0.930 . S
C516 C517 1.367 . S
C516 C524 1.378 . S
C517 C516 1.367 . S
C517 C525 1.433 . S
C518 H514 0.929 . S
C518 C520 1.378 . S
C518 C522 1.350 . S
C519 C522 1.463 . S
C519 C524 1.350 . S
C519 N527 1.427 . S
C520 H511 0.930 . S
C520 C518 1.378 . S
C520 C521 1.367 . S
C521 C520 1.367 . S
C521 C523 1.433 . S
C522 C518 1.350 . S
C522 C519 1.463 . S
C522 N526 1.427 . S
C523 H513 0.929 . S
C523 C521 1.433 . S
C523 N526 1.384 . S
C524 H515 0.929 . S
C524 C516 1.378 . S
C524 C519 1.350 . S
C525 H512 0.929 . S
C525 C517 1.433 . S
C525 N527 1.384 . S
N526 C522 1.427 . S
N526 C523 1.384 . S
N527 C519 1.427 . S
N527 C525 1.384 . S
H528 C534 0.930 . S
H529 C538 0.930 . S
H530 C543 0.929 . S
H531 C541 0.929 . S
H532 C536 0.929 . S
H533 C542 0.929 . S
C534 H528 0.930 . S
C534 C535 1.367 . S
C534 C542 1.378 . S
C535 C534 1.367 . S
C535 C543 1.433 . S
C536 H532 0.929 . S
C536 C538 1.378 . S
C536 C540 1.350 . S
C537 C540 1.463 . S
C537 C542 1.350 . S
C537 N545 1.427 . S
C538 H529 0.930 . S
C538 C536 1.378 . S
C538 C539 1.367 . S
C539 C538 1.367 . S
C539 C541 1.433 . S
C540 C536 1.350 . S
C540 C537 1.463 . S
C540 N544 1.427 . S
C541 H531 0.929 . S
C541 C539 1.433 . S
C541 N544 1.384 . S
C542 H533 0.929 . S
C542 C534 1.378 . S
C542 C537 1.350 . S
C543 H530 0.929 . S
C543 C535 1.433 . S
C543 N545 1.384 . S
N544 C540 1.427 . S
N544 C541 1.384 . S
N545 C537 1.427 . S
N545 C543 1.384 . S
H546 C552 0.930 . S
H547 C556 0.930 . S
H548 C561 0.929 . S
H549 C559 0.929 . S
H550 C554 0.929 . S
H551 C560 0.929 . S
C552 H546 0.930 . S
C552 C553 1.367 . S
C552 C560 1.378 . S
C553 C552 1.367 . S
C553 C561 1.433 . S
C554 H550 0.929 . S
C554 C556 1.378 . S
C554 C558 1.350 . S
C555 C558 1.463 . S
C555 C560 1.350 . S
C555 N563 1.427 . S
C556 H547 0.930 . S
C556 C554 1.378 . S
C556 C557 1.367 . S
C557 C556 1.367 . S
C557 C559 1.433 . S
C558 C554 1.350 . S
C558 C555 1.463 . S
C558 N562 1.427 . S
C559 H549 0.929 . S
C559 C557 1.433 . S
C559 N562 1.384 . S
C560 H551 0.929 . S
C560 C552 1.378 . S
C560 C555 1.350 . S
C561 H548 0.929 . S
C561 C553 1.433 . S
C561 N563 1.384 . S
N562 C558 1.427 . S
N562 C559 1.384 . S
N563 C555 1.427 . S
N563 C561 1.384 . S
H564 C570 0.930 . S
H565 C574 0.930 . S
H566 C579 0.929 . S
H567 C577 0.929 . S
H568 C572 0.929 . S
H569 C578 0.929 . S
C570 H564 0.930 . S
C570 C571 1.367 . S
C570 C578 1.378 . S
C571 C570 1.367 . S
C571 C579 1.433 . S
C572 H568 0.929 . S
C572 C574 1.378 . S
C572 C576 1.350 . S
C573 C576 1.463 . S
C573 C578 1.350 . S
C573 N581 1.427 . S
C574 H565 0.930 . S
C574 C572 1.378 . S
C574 C575 1.367 . S
C575 C574 1.367 . S
C575 C577 1.433 . S
C576 C572 1.350 . S
C576 C573 1.463 . S
C576 N580 1.427 . S
C577 H567 0.929 . S
C577 C575 1.433 . S
C577 N580 1.384 . S
C578 H569 0.929 . S
C578 C570 1.378 . S
C578 C573 1.350 . S
C579 H566 0.929 . S
C579 C571 1.433 . S
C579 N581 1.384 . S
N580 C576 1.427 . S
N580 C577 1.384 . S
N581 C573 1.427 . S
N581 C579 1.384 . S
H582 C588 0.930 . S
H583 C592 0.930 . S
H584 C597 0.929 . S
H585 C595 0.929 . S
H586 C590 0.929 . S
H587 C596 0.929 . S
C588 H582 0.930 . S
C588 C589 1.367 . S
C588 C596 1.378 . S
C589 C588 1.367 . S
C589 C597 1.433 . S
C590 H586 0.929 . S
C590 C592 1.378 . S
C590 C594 1.350 . S
C591 C594 1.463 . S
C591 C596 1.350 . S
C591 N599 1.427 . S
C592 H583 0.930 . S
C592 C590 1.378 . S
C592 C593 1.367 . S
C593 C592 1.367 . S
C593 C595 1.433 . S
C594 C590 1.350 . S
C594 C591 1.463 . S
C594 N598 1.427 . S
C595 H585 0.929 . S
C595 C593 1.433 . S
C595 N598 1.384 . S
C596 H587 0.929 . S
C596 C588 1.378 . S
C596 C591 1.350 . S
C597 H584 0.929 . S
C597 C589 1.433 . S
C597 N599 1.384 . S
N598 C594 1.427 . S
N598 C595 1.384 . S
N599 C591 1.427 . S
N599 C597 1.384 . S
H600 C606 0.930 . S
H601 C610 0.930 . S
H602 C615 0.929 . S
H603 C613 0.929 . S
H604 C608 0.929 . S
H605 C614 0.929 . S
C606 H600 0.930 . S
C606 C607 1.367 . S
C606 C614 1.378 . S
C607 C606 1.367 . S
C607 C615 1.433 . S
C608 H604 0.929 . S
C608 C610 1.378 . S
C608 C612 1.350 . S
C609 C612 1.463 . S
C609 C614 1.350 . S
C609 N617 1.427 . S
C610 H601 0.930 . S
C610 C608 1.378 . S
C610 C611 1.367 . S
C611 C610 1.367 . S
C611 C613 1.433 . S
C612 C608 1.350 . S
C612 C609 1.463 . S
C612 N616 1.427 . S
C613 H603 0.929 . S
C613 C611 1.433 . S
C613 N616 1.384 . S
C614 H605 0.929 . S
C614 C606 1.378 . S
C614 C609 1.350 . S
C615 H602 0.929 . S
C615 C607 1.433 . S
C615 N617 1.384 . S
N616 C612 1.427 . S
N616 C613 1.384 . S
N617 C609 1.427 . S
N617 C615 1.384 . S
H618 C624 0.930 . S
H619 C628 0.930 . S
H620 C633 0.929 . S
H621 C631 0.929 . S
H622 C626 0.929 . S
H623 C632 0.929 . S
C624 H618 0.930 . S
C624 C625 1.367 . S
C624 C632 1.378 . S
C625 C624 1.367 . S
C625 C633 1.433 . S
C626 H622 0.929 . S
C626 C628 1.378 . S
C626 C630 1.350 . S
C627 C630 1.463 . S
C627 C632 1.350 . S
C627 N635 1.427 . S
C628 H619 0.930 . S
C628 C626 1.378 . S
C628 C629 1.367 . S
C629 C628 1.367 . S
C629 C631 1.433 . S
C630 C626 1.350 . S
C630 C627 1.463 . S
C630 N634 1.427 . S
C631 H621 0.929 . S
C631 C629 1.433 . S
C631 N634 1.384 . S
C632 H623 0.929 . S
C632 C624 1.378 . S
C632 C627 1.350 . S
C633 H620 0.929 . S
C633 C625 1.433 . S
C633 N635 1.384 . S
N634 C630 1.427 . S
N634 C631 1.384 . S
N635 C627 1.427 . S
N635 C633 1.384 . S
H636 C642 0.930 . S
H637 C646 0.930 . S
H638 C651 0.929 . S
H639 C649 0.929 . S
H640 C644 0.929 . S
H641 C650 0.929 . S
C642 H636 0.930 . S
C642 C643 1.367 . S
C642 C650 1.378 . S
C643 C642 1.367 . S
C643 C651 1.433 . S
C644 H640 0.929 . S
C644 C646 1.378 . S
C644 C648 1.350 . S
C645 C648 1.463 . S
C645 C650 1.350 . S
C645 N653 1.427 . S
C646 H637 0.930 . S
C646 C644 1.378 . S
C646 C647 1.367 . S
C647 C646 1.367 . S
C647 C649 1.433 . S
C648 C644 1.350 . S
C648 C645 1.463 . S
C648 N652 1.427 . S
C649 H639 0.929 . S
C649 C647 1.433 . S
C649 N652 1.384 . S
C650 H641 0.929 . S
C650 C642 1.378 . S
C650 C645 1.350 . S
C651 H638 0.929 . S
C651 C643 1.433 . S
C651 N653 1.384 . S
N652 C648 1.427 . S
N652 C649 1.384 . S
N653 C645 1.427 . S
N653 C651 1.384 . S
H654 C660 0.930 . S
H655 C664 0.930 . S
H656 C669 0.929 . S
H657 C667 0.929 . S
H658 C662 0.929 . S
H659 C668 0.929 . S
C660 H654 0.930 . S
C660 C661 1.367 . S
C660 C668 1.378 . S
C661 C660 1.367 . S
C661 C669 1.433 . S
C662 H658 0.929 . S
C662 C664 1.378 . S
C662 C666 1.350 . S
C663 C666 1.463 . S
C663 C668 1.350 . S
C663 N671 1.427 . S
C664 H655 0.930 . S
C664 C662 1.378 . S
C664 C665 1.367 . S
C665 C664 1.367 . S
C665 C667 1.433 . S
C666 C662 1.350 . S
C666 C663 1.463 . S
C666 N670 1.427 . S
C667 H657 0.929 . S
C667 C665 1.433 . S
C667 N670 1.384 . S
C668 H659 0.929 . S
C668 C660 1.378 . S
C668 C663 1.350 . S
C669 H656 0.929 . S
C669 C661 1.433 . S
C669 N671 1.384 . S
N670 C666 1.427 . S
N670 C667 1.384 . S
N671 C663 1.427 . S
N671 C669 1.384 . S
H672 C678 0.930 . S
H673 C682 0.930 . S
H674 C687 0.929 . S
H675 C685 0.929 . S
H676 C680 0.929 . S
H677 C686 0.929 . S
C678 H672 0.930 . S
C678 C679 1.367 . S
C678 C686 1.378 . S
C679 C678 1.367 . S
C679 C687 1.433 . S
C680 H676 0.929 . S
C680 C682 1.378 . S
C680 C684 1.350 . S
C681 C684 1.463 . S
C681 C686 1.350 . S
C681 N689 1.427 . S
C682 H673 0.930 . S
C682 C680 1.378 . S
C682 C683 1.367 . S
C683 C682 1.367 . S
C683 C685 1.433 . S
C684 C680 1.350 . S
C684 C681 1.463 . S
C684 N688 1.427 . S
C685 H675 0.929 . S
C685 C683 1.433 . S
C685 N688 1.384 . S
C686 H677 0.929 . S
C686 C678 1.378 . S
C686 C681 1.350 . S
C687 H674 0.929 . S
C687 C679 1.433 . S
C687 N689 1.384 . S
N688 C684 1.427 . S
N688 C685 1.384 . S
N689 C681 1.427 . S
N689 C687 1.384 . S
H690 C696 0.930 . S
H691 C700 0.930 . S
H692 C705 0.929 . S
H693 C703 0.929 . S
H694 C698 0.929 . S
H695 C704 0.929 . S
C696 H690 0.930 . S
C696 C697 1.367 . S
C696 C704 1.378 . S
C697 C696 1.367 . S
C697 C705 1.433 . S
C698 H694 0.929 . S
C698 C700 1.378 . S
C698 C702 1.350 . S
C699 C702 1.463 . S
C699 C704 1.350 . S
C699 N707 1.427 . S
C700 H691 0.930 . S
C700 C698 1.378 . S
C700 C701 1.367 . S
C701 C700 1.367 . S
C701 C703 1.433 . S
C702 C698 1.350 . S
C702 C699 1.463 . S
C702 N706 1.427 . S
C703 H693 0.929 . S
C703 C701 1.433 . S
C703 N706 1.384 . S
C704 H695 0.929 . S
C704 C696 1.378 . S
C704 C699 1.350 . S
C705 H692 0.929 . S
C705 C697 1.433 . S
C705 N707 1.384 . S
N706 C702 1.427 . S
N706 C703 1.384 . S
N707 C699 1.427 . S
N707 C705 1.384 . S
H708 C714 0.930 . S
H709 C718 0.930 . S
H710 C723 0.929 . S
H711 C721 0.929 . S
H712 C716 0.929 . S
H713 C722 0.929 . S
C714 H708 0.930 . S
C714 C715 1.367 . S
C714 C722 1.378 . S
C715 C714 1.367 . S
C715 C723 1.433 . S
C716 H712 0.929 . S
C716 C718 1.378 . S
C716 C720 1.350 . S
C717 C720 1.463 . S
C717 C722 1.350 . S
C717 N725 1.427 . S
C718 H709 0.930 . S
C718 C716 1.378 . S
C718 C719 1.367 . S
C719 C718 1.367 . S
C719 C721 1.433 . S
C720 C716 1.350 . S
C720 C717 1.463 . S
C720 N724 1.427 . S
C721 H711 0.929 . S
C721 C719 1.433 . S
C721 N724 1.384 . S
C722 H713 0.929 . S
C722 C714 1.378 . S
C722 C717 1.350 . S
C723 H710 0.929 . S
C723 C715 1.433 . S
C723 N725 1.384 . S
N724 C720 1.427 . S
N724 C721 1.384 . S
N725 C717 1.427 . S
N725 C723 1.384 . S
H726 C732 0.930 . S
H727 C736 0.930 . S
H728 C741 0.929 . S
H729 C739 0.929 . S
H730 C734 0.929 . S
H731 C740 0.929 . S
C732 H726 0.930 . S
C732 C733 1.367 . S
C732 C740 1.378 . S
C733 C732 1.367 . S
C733 C741 1.433 . S
C734 H730 0.929 . S
C734 C736 1.378 . S
C734 C738 1.350 . S
C735 C738 1.463 . S
C735 C740 1.350 . S
C735 N743 1.427 . S
C736 H727 0.930 . S
C736 C734 1.378 . S
C736 C737 1.367 . S
C737 C736 1.367 . S
C737 C739 1.433 . S
C738 C734 1.350 . S
C738 C735 1.463 . S
C738 N742 1.427 . S
C739 H729 0.929 . S
C739 C737 1.433 . S
C739 N742 1.384 . S
C740 H731 0.929 . S
C740 C732 1.378 . S
C740 C735 1.350 . S
C741 H728 0.929 . S
C741 C733 1.433 . S
C741 N743 1.384 . S
N742 C738 1.427 . S
N742 C739 1.384 . S
N743 C735 1.427 . S
N743 C741 1.384 . S
H744 C750 0.930 . S
H745 C754 0.930 . S
H746 C759 0.929 . S
H747 C757 0.929 . S
H748 C752 0.929 . S
H749 C758 0.929 . S
C750 H744 0.930 . S
C750 C751 1.367 . S
C750 C758 1.378 . S
C751 C750 1.367 . S
C751 C759 1.433 . S
C752 H748 0.929 . S
C752 C754 1.378 . S
C752 C756 1.350 . S
C753 C756 1.463 . S
C753 C758 1.350 . S
C753 N761 1.427 . S
C754 H745 0.930 . S
C754 C752 1.378 . S
C754 C755 1.367 . S
C755 C754 1.367 . S
C755 C757 1.433 . S
C756 C752 1.350 . S
C756 C753 1.463 . S
C756 N760 1.427 . S
C757 H747 0.929 . S
C757 C755 1.433 . S
C757 N760 1.384 . S
C758 H749 0.929 . S
C758 C750 1.378 . S
C758 C753 1.350 . S
C759 H746 0.929 . S
C759 C751 1.433 . S
C759 N761 1.384 . S
N760 C756 1.427 . S
N760 C757 1.384 . S
N761 C753 1.427 . S
N761 C759 1.384 . S
H762 C768 0.930 . S
H763 C772 0.930 . S
H764 C777 0.929 . S
H765 C775 0.929 . S
H766 C770 0.929 . S
H767 C776 0.929 . S
C768 H762 0.930 . S
C768 C769 1.367 . S
C768 C776 1.378 . S
C769 C768 1.367 . S
C769 C777 1.433 . S
C770 H766 0.929 . S
C770 C772 1.378 . S
C770 C774 1.350 . S
C771 C774 1.463 . S
C771 C776 1.350 . S
C771 N779 1.427 . S
C772 H763 0.930 . S
C772 C770 1.378 . S
C772 C773 1.367 . S
C773 C772 1.367 . S
C773 C775 1.433 . S
C774 C770 1.350 . S
C774 C771 1.463 . S
C774 N778 1.427 . S
C775 H765 0.929 . S
C775 C773 1.433 . S
C775 N778 1.384 . S
C776 H767 0.929 . S
C776 C768 1.378 . S
C776 C771 1.350 . S
C777 H764 0.929 . S
C777 C769 1.433 . S
C777 N779 1.384 . S
N778 C774 1.427 . S
N778 C775 1.384 . S
N779 C771 1.427 . S
N779 C777 1.384 . S
H780 C786 0.930 . S
H781 C790 0.930 . S
H782 C795 0.929 . S
H783 C793 0.929 . S
H784 C788 0.929 . S
H785 C794 0.929 . S
C786 H780 0.930 . S
C786 C787 1.367 . S
C786 C794 1.378 . S
C787 C786 1.367 . S
C787 C795 1.433 . S
C788 H784 0.929 . S
C788 C790 1.378 . S
C788 C792 1.350 . S
C789 C792 1.463 . S
C789 C794 1.350 . S
C789 N797 1.427 . S
C790 H781 0.930 . S
C790 C788 1.378 . S
C790 C791 1.367 . S
C791 C790 1.367 . S
C791 C793 1.433 . S
C792 C788 1.350 . S
C792 C789 1.463 . S
C792 N796 1.427 . S
C793 H783 0.929 . S
C793 C791 1.433 . S
C793 N796 1.384 . S
C794 H785 0.929 . S
C794 C786 1.378 . S
C794 C789 1.350 . S
C795 H782 0.929 . S
C795 C787 1.433 . S
C795 N797 1.384 . S
N796 C792 1.427 . S
N796 C793 1.384 . S
N797 C789 1.427 . S
N797 C795 1.384 . S
H798 C804 0.930 . S
H799 C808 0.930 . S
H800 C813 0.929 . S
H801 C811 0.929 . S
H802 C806 0.929 . S
H803 C812 0.929 . S
C804 H798 0.930 . S
C804 C805 1.367 . S
C804 C812 1.378 . S
C805 C804 1.367 . S
C805 C813 1.433 . S
C806 H802 0.929 . S
C806 C808 1.378 . S
C806 C810 1.350 . S
C807 C810 1.463 . S
C807 C812 1.350 . S
C807 N815 1.427 . S
C808 H799 0.930 . S
C808 C806 1.378 . S
C808 C809 1.367 . S
C809 C808 1.367 . S
C809 C811 1.433 . S
C810 C806 1.350 . S
C810 C807 1.463 . S
C810 N814 1.427 . S
C811 H801 0.929 . S
C811 C809 1.433 . S
C811 N814 1.384 . S
C812 H803 0.929 . S
C812 C804 1.378 . S
C812 C807 1.350 . S
C813 H800 0.929 . S
C813 C805 1.433 . S
C813 N815 1.384 . S
N814 C810 1.427 . S
N814 C811 1.384 . S
N815 C807 1.427 . S
N815 C813 1.384 . S
H816 C822 0.930 . S
H817 C826 0.930 . S
H818 C831 0.929 . S
H819 C829 0.929 . S
H820 C824 0.913 1_556 S
H821 C830 0.913 1_554 S
C822 H816 0.930 . S
C822 C823 1.367 . S
C822 C830 1.378 . S
C823 C822 1.367 . S
C823 C831 1.433 . S
C824 H820 0.913 1_554 S
C824 C826 1.378 . S
C824 C828 1.350 . S
C825 C828 1.463 1_556 S
C825 C830 1.350 . S
C825 N833 1.427 . S
C826 H817 0.930 . S
C826 C824 1.378 . S
C826 C827 1.367 . S
C827 C826 1.367 . S
C827 C829 1.433 . S
C828 C824 1.350 . S
C828 C825 1.463 1_554 S
C828 N832 1.427 . S
C829 H819 0.929 . S
C829 C827 1.433 . S
C829 N832 1.384 . S
C830 H821 0.913 1_556 S
C830 C822 1.378 . S
C830 C825 1.350 . S
C831 H818 0.929 . S
C831 C823 1.433 . S
C831 N833 1.384 . S
N832 C828 1.427 . S
N832 C829 1.384 . S
N833 C825 1.427 . S
N833 C831 1.384 . S
H834 C840 0.930 . S
H835 C844 0.930 . S
H836 C849 0.929 . S
H837 C847 0.929 . S
H838 C842 0.929 . S
H839 C848 0.929 . S
C840 H834 0.930 . S
C840 C841 1.367 . S
C840 C848 1.378 . S
C841 C840 1.367 . S
C841 C849 1.433 . S
C842 H838 0.929 . S
C842 C844 1.378 . S
C842 C846 1.350 . S
C843 C846 1.463 1_455 S
C843 C848 1.350 . S
C843 N851 1.427 . S
C844 H835 0.930 . S
C844 C842 1.378 . S
C844 C845 1.367 . S
C845 C844 1.367 . S
C845 C847 1.433 . S
C846 C842 1.350 . S
C846 C843 1.463 1_655 S
C846 N850 1.427 . S
C847 H837 0.929 . S
C847 C845 1.433 . S
C847 N850 1.384 . S
C848 H839 0.929 . S
C848 C840 1.378 . S
C848 C843 1.350 . S
C849 H836 0.929 . S
C849 C841 1.433 . S
C849 N851 1.384 . S
N850 C846 1.427 . S
N850 C847 1.384 . S
N851 C843 1.427 . S
N851 C849 1.384 . S
H852 C858 0.930 . S
H853 C862 0.930 . S
H854 C867 0.929 . S
H855 C865 0.929 . S
H856 C860 0.907 1_554 S
H857 C866 0.907 1_556 S
C858 H852 0.930 . S
C858 C859 1.367 . S
C858 C866 1.378 . S
C859 C858 1.367 . S
C859 C867 1.433 . S
C860 H856 0.907 1_556 S
C860 C862 1.378 . S
C860 C864 1.350 . S
C861 C864 1.463 1_564 S
C861 C866 1.350 . S
C861 N869 1.427 1_565 S
C862 H853 0.930 . S
C862 C860 1.378 . S
C862 C863 1.367 . S
C863 C862 1.367 . S
C863 C865 1.433 . S
C864 C860 1.350 . S
C864 C861 1.463 1_546 S
C864 N868 1.427 1_545 S
C865 H855 0.929 . S
C865 C863 1.433 . S
C865 N868 1.384 1_545 S
C866 H857 0.907 1_554 S
C866 C858 1.378 . S
C866 C861 1.350 . S
C867 H854 0.929 . S
C867 C859 1.433 . S
C867 N869 1.384 1_565 S
N868 C864 1.427 1_565 S
N868 C865 1.384 1_565 S
N869 C861 1.427 1_545 S
N869 C867 1.384 1_545 S
H870 C876 0.930 . S
H871 C880 0.930 . S
H872 C885 0.929 . S
H873 C883 0.929 . S
H874 C878 0.929 . S
H875 C884 0.929 . S
C876 H870 0.930 . S
C876 C877 1.367 . S
C876 C884 1.378 . S
C877 C876 1.367 . S
C877 C885 1.433 . S
C878 H874 0.929 . S
C878 C880 1.378 . S
C878 C882 1.350 . S
C879 C882 1.463 . S
C879 C884 1.350 . S
C879 N887 1.427 . S
C880 H871 0.930 . S
C880 C878 1.378 . S
C880 C881 1.367 . S
C881 C880 1.367 . S
C881 C883 1.433 . S
C882 C878 1.350 . S
C882 C879 1.463 . S
C882 N886 1.427 . S
C883 H873 0.929 . S
C883 C881 1.433 . S
C883 N886 1.384 . S
C884 H875 0.929 . S
C884 C876 1.378 . S
C884 C879 1.350 . S
C885 H872 0.929 . S
C885 C877 1.433 . S
C885 N887 1.384 . S
N886 C882 1.427 . S
N886 C883 1.384 . S
N887 C879 1.427 . S
N887 C885 1.384 . S
H888 C894 0.930 . S
H889 C898 0.930 . S
H890 C903 0.929 . S
H891 C901 0.929 . S
H892 C896 0.928 1_655 S
H893 C902 0.928 1_455 S
C894 H888 0.930 . S
C894 C895 1.367 . S
C894 C902 1.378 . S
C895 C894 1.367 . S
C895 C903 1.433 . S
C896 H892 0.928 1_455 S
C896 C898 1.378 . S
C896 C900 1.350 . S
C897 C900 1.463 1_656 S
C897 C902 1.350 . S
C897 N905 1.427 . S
C898 H889 0.930 . S
C898 C896 1.378 . S
C898 C899 1.367 . S
C899 C898 1.367 . S
C899 C901 1.433 . S
C900 C896 1.350 . S
C900 C897 1.463 1_454 S
C900 N904 1.427 . S
C901 H891 0.929 . S
C901 C899 1.433 . S
C901 N904 1.384 . S
C902 H893 0.928 1_655 S
C902 C894 1.378 . S
C902 C897 1.350 . S
C903 H890 0.929 . S
C903 C895 1.433 . S
C903 N905 1.384 . S
N904 C900 1.427 . S
N904 C901 1.384 . S
N905 C897 1.427 . S
N905 C903 1.384 . S
H906 C912 0.930 . S
H907 C916 0.930 . S
H908 C921 0.929 . S
H909 C919 0.929 . S
H910 C914 0.929 . S
H911 C920 0.929 . S
C912 H906 0.930 . S
C912 C913 1.367 . S
C912 C920 1.378 1_565 S
C913 C912 1.367 . S
C913 C921 1.433 . S
C914 H910 0.929 . S
C914 C916 1.378 1_565 S
C914 C918 1.350 1_565 S
C915 C918 1.463 1_565 S
C915 C920 1.350 1_565 S
C915 N923 1.427 . S
C916 H907 0.930 . S
C916 C914 1.378 1_545 S
C916 C917 1.367 . S
C917 C916 1.367 . S
C917 C919 1.433 . S
C918 C914 1.350 1_545 S
C918 C915 1.463 1_545 S
C918 N922 1.427 . S
C919 H909 0.929 . S
C919 C917 1.433 . S
C919 N922 1.384 . S
C920 H911 0.929 . S
C920 C912 1.378 1_545 S
C920 C915 1.350 1_545 S
C921 H908 0.929 . S
C921 C913 1.433 . S
C921 N923 1.384 . S
N922 C918 1.427 . S
N922 C919 1.384 . S
N923 C915 1.427 . S
N923 C921 1.384 . S
C283 C113 0.819 . S
C287 C17 0.834 . S
C301 C136 0.831 . S
C305 C40 0.816 . S
C319 C63 0.818 . S
C323 C21 0.825 . S
C337 C86 0.821 . S
C341 C44 0.820 . S
C355 C109 0.830 . S
C359 C67 0.810 . S
C373 C90 0.811 . S
C377 C132 0.828 . S
C391 C205 0.817 . S
C395 C155 0.835 . S
C409 C178 0.830 . S
C413 C228 0.809 . S
C427 C251 0.823 . S
C431 C201 0.819 . S
C445 C224 0.816 . S
C449 C274 0.832 . S
C463 C247 0.822 . S
C467 C159 0.818 . S
C481 C182 0.826 . S
C485 C270 0.817 . S
C499 C110 1.132 . S
C503 C16 1.127 . S
C517 C39 1.131 . S
C521 C133 1.128 . S
C535 C62 1.127 . S
C539 C18 1.133 . S
C553 C85 1.134 . S
C557 C41 1.125 . S
C571 C64 1.133 . S
C575 C108 1.127 . S
C589 C87 1.126 . S
C593 C131 1.132 . S
C607 C202 1.126 . S
C611 C154 1.132 . S
C625 C177 1.128 . S
C629 C225 1.132 . S
C643 C200 1.134 . S
C647 C248 1.125 . S
C661 C271 1.133 . S
C665 C223 1.126 . S
C679 C246 1.126 . S
C683 C156 1.133 . S
C697 C179 1.125 . S
C701 C269 1.133 . S
C715 C250 1.497 . S
C719 C20 1.498 . S
C733 C43 1.500 . S
C737 C273 1.498 . S
C751 C66 1.508 . S
C755 C158 1.506 . S
C769 C89 1.498 . S
C773 C181 1.499 . S
C787 C112 1.503 . S
C791 C204 1.506 . S
C805 C227 1.504 . S
C809 C135 1.506 . S
C823 C226 1.514 . S
C827 C19 1.518 . S
C841 C249 1.513 . S
C845 C42 1.519 . S
C859 C65 1.514 . S
C863 C272 1.518 . S
C877 C88 1.519 . S
C881 C157 1.513 . S
C895 C180 1.519 . S
C899 C111 1.514 . S
C913 C203 1.519 . S
C917 C134 1.515 . S
