# Generated by pormake.
# Topology gis, (4)-cn, num edge types: 1
# Building blocks:
#     Node 0, Type 0, BuildingBlock: NAHDIM_clean_sbu_0, # of connection points: 4
#     Node 1, Type 0, BuildingBlock: NAHDIM_clean_sbu_0, # of connection points: 4
#     Node 2, Type 0, BuildingBlock: NAHDIM_clean_sbu_0, # of connection points: 4
#     Node 3, Type 0, BuildingBlock: NAHDIM_clean_sbu_0, # of connection points: 4
#     Node 4, Type 0, BuildingBlock: NAHDIM_clean_sbu_0, # of connection points: 4
#     Node 5, Type 0, BuildingBlock: NAHDIM_clean_sbu_0, # of connection points: 4
#     Node 6, Type 0, BuildingBlock: NAHDIM_clean_sbu_0, # of connection points: 4
#     Node 7, Type 0, BuildingBlock: NAHDIM_clean_sbu_0, # of connection points: 4
#     Node 8, Type 0, BuildingBlock: NAHDIM_clean_sbu_0, # of connection points: 4
#     Node 9, Type 0, BuildingBlock: NAHDIM_clean_sbu_0, # of connection points: 4
#     Node 10, Type 0, BuildingBlock: NAHDIM_clean_sbu_0, # of connection points: 4
#     Node 11, Type 0, BuildingBlock: NAHDIM_clean_sbu_0, # of connection points: 4
#     Node 12, Type 0, BuildingBlock: NAHDIM_clean_sbu_0, # of connection points: 4
#     Node 13, Type 0, BuildingBlock: NAHDIM_clean_sbu_0, # of connection points: 4
#     Node 14, Type 0, BuildingBlock: NAHDIM_clean_sbu_0, # of connection points: 4
#     Node 15, Type 0, BuildingBlock: NAHDIM_clean_sbu_0, # of connection points: 4
#     Edge 16, Type (0, 0), BuildingBlock: CIFDUS_clean_linker_0, # of connection points: 2
#     Edge 17, Type (0, 0), BuildingBlock: CIFDUS_clean_linker_0, # of connection points: 2
#     Edge 18, Type (0, 0), BuildingBlock: CIFDUS_clean_linker_0, # of connection points: 2
#     Edge 19, Type (0, 0), BuildingBlock: CIFDUS_clean_linker_0, # of connection points: 2
#     Edge 20, Type (0, 0), BuildingBlock: CIFDUS_clean_linker_0, # of connection points: 2
#     Edge 21, Type (0, 0), BuildingBlock: CIFDUS_clean_linker_0, # of connection points: 2
#     Edge 22, Type (0, 0), BuildingBlock: CIFDUS_clean_linker_0, # of connection points: 2
#     Edge 23, Type (0, 0), BuildingBlock: CIFDUS_clean_linker_0, # of connection points: 2
#     Edge 24, Type (0, 0), BuildingBlock: CIFDUS_clean_linker_0, # of connection points: 2
#     Edge 25, Type (0, 0), BuildingBlock: CIFDUS_clean_linker_0, # of connection points: 2
#     Edge 26, Type (0, 0), BuildingBlock: CIFDUS_clean_linker_0, # of connection points: 2
#     Edge 27, Type (0, 0), BuildingBlock: CIFDUS_clean_linker_0, # of connection points: 2
#     Edge 28, Type (0, 0), BuildingBlock: CIFDUS_clean_linker_0, # of connection points: 2
#     Edge 29, Type (0, 0), BuildingBlock: CIFDUS_clean_linker_0, # of connection points: 2
#     Edge 30, Type (0, 0), BuildingBlock: CIFDUS_clean_linker_0, # of connection points: 2
#     Edge 31, Type (0, 0), BuildingBlock: CIFDUS_clean_linker_0, # of connection points: 2
#     Edge 32, Type (0, 0), BuildingBlock: CIFDUS_clean_linker_0, # of connection points: 2
#     Edge 33, Type (0, 0), BuildingBlock: CIFDUS_clean_linker_0, # of connection points: 2
#     Edge 34, Type (0, 0), BuildingBlock: CIFDUS_clean_linker_0, # of connection points: 2
#     Edge 35, Type (0, 0), BuildingBlock: CIFDUS_clean_linker_0, # of connection points: 2
#     Edge 36, Type (0, 0), BuildingBlock: CIFDUS_clean_linker_0, # of connection points: 2
#     Edge 37, Type (0, 0), BuildingBlock: CIFDUS_clean_linker_0, # of connection points: 2
#     Edge 38, Type (0, 0), BuildingBlock: CIFDUS_clean_linker_0, # of connection points: 2
#     Edge 39, Type (0, 0), BuildingBlock: CIFDUS_clean_linker_0, # of connection points: 2
#     Edge 40, Type (0, 0), BuildingBlock: CIFDUS_clean_linker_0, # of connection points: 2
#     Edge 41, Type (0, 0), BuildingBlock: CIFDUS_clean_linker_0, # of connection points: 2
#     Edge 42, Type (0, 0), BuildingBlock: CIFDUS_clean_linker_0, # of connection points: 2
#     Edge 43, Type (0, 0), BuildingBlock: CIFDUS_clean_linker_0, # of connection points: 2
#     Edge 44, Type (0, 0), BuildingBlock: CIFDUS_clean_linker_0, # of connection points: 2
#     Edge 45, Type (0, 0), BuildingBlock: CIFDUS_clean_linker_0, # of connection points: 2
#     Edge 46, Type (0, 0), BuildingBlock: CIFDUS_clean_linker_0, # of connection points: 2
#     Edge 47, Type (0, 0), BuildingBlock: CIFDUS_clean_linker_0, # of connection points: 2
# Relax obj value: 0.161
# Max RMSD: 0.165
# Mean RMSD: 0.149
data_MOF--net-gis--node1-NAHDIM_clean_sbu_0--edge1-CIFDUS_clean_linker_0
_symmetry_space_group_name_H-M    P1
_symmetry_Int_Tables_number       1
_symmetry_cell_setting            triclinic
loop_
_symmetry_equiv_pos_as_xyz
'x, y, z'
_cell_length_a     43.150591
_cell_length_b     40.044049
_cell_length_c     41.768059
_cell_angle_alpha  91.99922
_cell_angle_beta   91.221258
_cell_angle_gamma 90.073938
loop_
_atom_site_label
_atom_site_type_symbol
_atom_site_fract_x
_atom_site_fract_y
_atom_site_fract_z
_atom_type_partial_charge
C0 C 0.20133 0.56719 0.17563 0.0
O1 O 0.21252 0.55801 0.14768 0.0
O2 O 0.16425 0.57445 0.09809 0.0
Zn3 Zn 0.15496 0.60183 0.13796 0.0
O4 O 0.16762 0.64956 0.13327 0.0
C5 C 0.09491 0.57264 0.14419 0.0
O6 O 0.11073 0.54481 0.14037 0.0
O7 O 0.17692 0.58482 0.17669 0.0
C8 C 0.15241 0.66825 0.11472 0.0
O9 O 0.12871 0.65567 0.09808 0.0
C10 C 0.18289 0.58386 0.07703 0.0
O11 O 0.19811 0.61209 0.08179 0.0
O12 O 0.10918 0.60041 0.14449 0.0
C13 C 0.68795 0.91748 0.33572 0.0
O14 O 0.70438 0.91474 0.36235 0.0
O15 O 0.65141 0.92441 0.41316 0.0
Zn16 Zn 0.64002 0.89419 0.37528 0.0
O17 O 0.65443 0.84698 0.38052 0.0
C18 C 0.57943 0.91885 0.35842 0.0
O19 O 0.59505 0.94616 0.35283 0.0
O20 O 0.6592 0.9108 0.33573 0.0
C21 C 0.63914 0.82675 0.39684 0.0
O22 O 0.61468 0.83769 0.41219 0.0
C23 C 0.66568 0.91522 0.43828 0.0
O24 O 0.67415 0.88388 0.44048 0.0
O25 O 0.59386 0.89357 0.36858 0.0
C26 C 0.32123 0.4697 0.59603 0.0
O27 O 0.32508 0.48764 0.62277 0.0
O28 O 0.30929 0.42449 0.67103 0.0
Zn29 Zn 0.34059 0.41737 0.63647 0.0
O30 O 0.38256 0.43693 0.64787 0.0
C31 C 0.32666 0.34584 0.62646 0.0
O32 O 0.29788 0.35386 0.63285 0.0
O33 O 0.3257 0.43838 0.59633 0.0
C34 C 0.4018 0.42004 0.6641 0.0
O35 O 0.3927 0.39168 0.67576 0.0
C36 C 0.31633 0.43057 0.70034 0.0
O37 O 0.34564 0.43286 0.70925 0.0
O38 O 0.34727 0.36851 0.62685 0.0
C39 C 0.80502 0.02678 0.93456 0.0
O40 O 0.79881 0.00885 0.90826 0.0
O41 O 0.80048 0.05825 0.85382 0.0
Zn42 Zn 0.82872 0.07385 0.89035 0.0
O43 O 0.87243 0.05927 0.88252 0.0
C44 C 0.80673 0.14135 0.8819 0.0
O45 O 0.78228 0.12602 0.86913 0.0
O46 O 0.81653 0.05579 0.93239 0.0
C47 C 0.88783 0.07194 0.86038 0.0
O48 O 0.87433 0.09373 0.84188 0.0
C49 C 0.80755 0.03552 0.83326 0.0
O50 O 0.83394 0.01956 0.83653 0.0
O51 O 0.82885 0.1241 0.89315 0.0
C52 C 0.20338 0.42644 0.84846 0.0
O53 O 0.21016 0.41606 0.87727 0.0
O54 O 0.15003 0.44028 0.91485 0.0
Zn55 Zn 0.14272 0.41788 0.87151 0.0
O56 O 0.14457 0.36828 0.87534 0.0
C57 C 0.08586 0.45573 0.86037 0.0
O58 O 0.10077 0.48057 0.87522 0.0
O59 O 0.17511 0.43039 0.84032 0.0
C60 C 0.12569 0.35327 0.89281 0.0
O61 O 0.10586 0.3709 0.90981 0.0
C62 C 0.16372 0.46829 0.91865 0.0
O63 O 0.17391 0.48335 0.89347 0.0
O64 O 0.09971 0.42812 0.85542 0.0
C65 C 0.7954 0.91862 0.18419 0.0
O66 O 0.77902 0.91585 0.15735 0.0
O67 O 0.82977 0.9231 0.10568 0.0
Zn68 Zn 0.8448 0.89717 0.14339 0.0
O69 O 0.83596 0.84826 0.13579 0.0
C70 C 0.90638 0.92634 0.13914 0.0
O71 O 0.89193 0.95011 0.12392 0.0
O72 O 0.82426 0.91262 0.18374 0.0
C73 C 0.85001 0.83195 0.11388 0.0
O74 O 0.86959 0.84774 0.09604 0.0
C75 C 0.80983 0.91143 0.0854 0.0
O76 O 0.79776 0.88178 0.0894 0.0
O77 O 0.89086 0.90214 0.14947 0.0
C78 C 0.32395 0.52816 0.41687 0.0
O79 O 0.32622 0.50971 0.39039 0.0
O80 O 0.31886 0.56655 0.33909 0.0
Zn81 Zn 0.3474 0.57767 0.37651 0.0
O82 O 0.38955 0.55827 0.36925 0.0
C83 C 0.33073 0.64752 0.37347 0.0
O84 O 0.30462 0.63532 0.36123 0.0
O85 O 0.33104 0.55893 0.41653 0.0
C86 C 0.40727 0.57055 0.34878 0.0
O87 O 0.3973 0.59561 0.3319 0.0
C88 C 0.32504 0.54551 0.31665 0.0
O89 O 0.35129 0.52898 0.31762 0.0
O90 O 0.35195 0.62756 0.38208 0.0
C91 C 0.69601 0.04909 0.68029 0.0
O92 O 0.70754 0.034 0.65478 0.0
O93 O 0.66954 0.05358 0.59786 0.0
Zn94 Zn 0.65429 0.08196 0.635 0.0
O95 O 0.66428 0.13061 0.62909 0.0
C96 C 0.59668 0.04643 0.631 0.0
O97 O 0.6154 0.02104 0.6259 0.0
O98 O 0.67352 0.0692 0.67702 0.0
C99 C 0.64423 0.15131 0.6192 0.0
O100 O 0.61608 0.14071 0.61172 0.0
C101 C 0.6634 0.06345 0.56986 0.0
O102 O 0.64977 0.09249 0.56668 0.0
O103 O 0.60815 0.07539 0.63635 0.0
C104 C 0.80625 0.43369 0.80101 0.0
O105 O 0.81138 0.46025 0.81973 0.0
O106 O 0.83584 0.42643 0.88454 0.0
Zn107 Zn 0.84488 0.3963 0.84652 0.0
O108 O 0.83652 0.34894 0.8579 0.0
C109 C 0.90394 0.42859 0.83974 0.0
O110 O 0.8882 0.45525 0.84874 0.0
O111 O 0.81831 0.40591 0.80805 0.0
C112 C 0.85454 0.33349 0.8767 0.0
O113 O 0.87895 0.34907 0.88928 0.0
C114 C 0.80938 0.43672 0.89325 0.0
O115 O 0.78452 0.42795 0.87627 0.0
O116 O 0.88996 0.4007 0.83633 0.0
C117 C 0.29781 0.05477 0.64361 0.0
O118 O 0.28375 0.06275 0.61672 0.0
O119 O 0.33873 0.0524 0.56836 0.0
Zn120 Zn 0.34869 0.07801 0.60949 0.0
O121 O 0.33349 0.12548 0.6072 0.0
C122 C 0.4121 0.05342 0.61484 0.0
O123 O 0.39993 0.02458 0.60527 0.0
O124 O 0.32706 0.05777 0.64598 0.0
C125 C 0.35206 0.14928 0.60214 0.0
O126 O 0.38129 0.14247 0.5967 0.0
C127 C 0.34759 0.06353 0.54196 0.0
O128 O 0.3632 0.09173 0.54214 0.0
O129 O 0.39461 0.0787 0.61834 0.0
C130 C 0.71051 0.56261 0.3149 0.0
O131 O 0.721 0.57302 0.34328 0.0
O132 O 0.65679 0.53929 0.38205 0.0
Zn133 Zn 0.65195 0.5702 0.34542 0.0
O134 O 0.65796 0.61767 0.36159 0.0
C135 C 0.58903 0.54573 0.33708 0.0
O136 O 0.59892 0.52192 0.35556 0.0
O137 O 0.6815 0.55906 0.31028 0.0
C138 C 0.63949 0.6283 0.38294 0.0
O139 O 0.61906 0.60753 0.39407 0.0
C140 C 0.67373 0.5461 0.40665 0.0
O141 O 0.69051 0.57352 0.40772 0.0
O142 O 0.60803 0.56778 0.32847 0.0
C143 C 0.17077 0.98086 0.04457 0.0
O144 O 0.17959 -0.00024 0.06947 0.0
O145 O 0.17846 0.94868 0.12645 0.0
Zn146 Zn 0.1475 0.93526 0.09158 0.0
O147 O 0.10459 0.95068 0.10231 0.0
C148 C 0.16491 0.86576 0.09985 0.0
O149 O 0.1882 0.87851 0.11698 0.0
O150 O 0.15789 0.95294 0.04897 0.0
C151 C 0.08952 0.93493 0.12279 0.0
O152 O 0.10327 0.91057 0.13784 0.0
C153 C 0.17275 0.96978 0.14899 0.0
O154 O 0.14605 0.98551 0.14892 0.0
O155 O 0.14555 0.88519 0.08679 0.0
C156 C 0.79947 0.54868 0.15008 0.0
O157 O 0.78791 0.54396 0.12093 0.0
O158 O 0.84756 0.54207 0.07839 0.0
Zn159 Zn 0.85364 0.57215 0.1174 0.0
O160 O 0.8452 0.61994 0.1076 0.0
C161 C 0.91267 0.5417 0.13105 0.0
O162 O 0.89741 0.51395 0.12381 0.0
O163 O 0.82706 0.55944 0.15388 0.0
C164 C 0.86127 0.63465 0.08719 0.0
O165 O 0.88205 0.61747 0.07105 0.0
C166 C 0.82747 0.54567 0.05611 0.0
O167 O 0.80748 0.57033 0.05822 0.0
O168 O 0.89837 0.5694 0.13074 0.0
C169 C 0.18077 0.06227 0.78688 0.0
O170 O 0.19502 0.05921 0.81473 0.0
O171 O 0.14767 0.06862 0.86476 0.0
Zn172 Zn 0.13249 0.09183 0.82544 0.0
O173 O 0.14066 0.14096 0.83153 0.0
C174 C 0.07034 0.06726 0.8365 0.0
O175 O 0.08434 0.04901 0.85795 0.0
O176 O 0.15378 0.07485 0.78593 0.0
C177 C 0.12635 0.15708 0.85338 0.0
O178 O 0.1069 0.14102 0.87115 0.0
C179 C 0.16806 0.08148 0.8839 0.0
O180 O 0.1808 0.11017 0.8773 0.0
O181 O 0.08637 0.08628 0.81961 0.0
C182 C 0.66909 0.46371 0.57746 0.0
O183 O 0.68747 0.46852 0.60266 0.0
O184 O 0.66835 0.42777 0.65327 0.0
Zn185 Zn 0.63588 0.41968 0.61883 0.0
O186 O 0.59403 0.43275 0.63517 0.0
C187 C 0.6549 0.34994 0.61431 0.0
O188 O 0.68115 0.36136 0.6269 0.0
O189 O 0.64587 0.4443 0.5791 0.0
C190 C 0.58495 0.41761 0.65953 0.0
O191 O 0.60402 0.39673 0.6734 0.0
C192 C 0.66908 0.45308 0.67249 0.0
O193 O 0.64748 0.47602 0.67023 0.0
O194 O 0.63323 0.37035 0.60814 0.0
C195 C 0.29351 0.94592 0.29285 0.0
O196 O 0.28355 0.95949 0.3198 0.0
O197 O 0.32783 0.94226 0.37194 0.0
Zn198 Zn 0.33716 0.91145 0.33433 0.0
O199 O 0.32427 0.86415 0.3422 0.0
C200 C 0.39751 0.94002 0.32732 0.0
O201 O 0.38142 0.96775 0.32557 0.0
O202 O 0.31619 0.92573 0.29363 0.0
C203 C 0.34155 0.84528 0.35865 0.0
O204 O 0.36744 0.85742 0.37149 0.0
C205 C 0.31361 0.93352 0.39664 0.0
O206 O 0.30203 0.90322 0.39739 0.0
O207 O 0.38329 0.91247 0.32981 0.0
H208 H 0.19888 0.81755 0.12851 0.0
H209 H 0.11979 0.83178 0.06538 0.0
H210 H 0.10982 0.7718 0.06332 0.0
H211 H 0.12216 0.71562 0.08115 0.0
H212 H 0.20067 0.70139 0.14501 0.0
H213 H 0.21227 0.76103 0.1449 0.0
C214 C 0.17957 0.80753 0.11414 0.0
C215 C 0.16006 0.82918 0.09725 0.0
C216 C 0.17377 0.77301 0.11324 0.0
C217 C 0.13515 0.81573 0.07872 0.0
C218 C 0.12938 0.78141 0.07753 0.0
C219 C 0.14192 0.7255 0.0949 0.0
C220 C 0.1604 0.70407 0.11317 0.0
C221 C 0.14834 0.75986 0.09496 0.0
C222 C 0.18596 0.71733 0.13082 0.0
C223 C 0.19262 0.75146 0.1308 0.0
H224 H 0.4364 0.88919 0.34157 0.0
H225 H 0.43554 0.99346 0.31854 0.0
H226 H 0.49187 0.99599 0.32558 0.0
H227 H 0.54116 0.96897 0.33984 0.0
H228 H 0.54142 0.865 0.3641 0.0
H229 H 0.48548 0.8621 0.35507 0.0
C230 C 0.44851 0.91244 0.33783 0.0
C231 C 0.43176 0.94108 0.32952 0.0
C232 C 0.48079 0.91385 0.34234 0.0
C233 C 0.44786 0.97103 0.32497 0.0
C234 C 0.48007 0.97252 0.32904 0.0
C235 C 0.529 0.94566 0.34309 0.0
C236 C 0.5455 0.91729 0.3527 0.0
C237 C 0.49674 0.94416 0.33801 0.0
C238 C 0.52933 0.88728 0.35682 0.0
C239 C 0.49732 0.88555 0.35161 0.0
H240 H 0.28975 0.29036 0.62615 0.0
H241 H 0.38375 0.32234 0.61074 0.0
H242 H 0.39936 0.26467 0.60039 0.0
H243 H 0.38699 0.20512 0.59737 0.0
H244 H 0.29346 0.17235 0.61359 0.0
H245 H 0.27704 0.23036 0.62171 0.0
C246 C 0.31362 0.28472 0.62041 0.0
C247 C 0.33552 0.3107 0.61935 0.0
C248 C 0.32257 0.25135 0.61461 0.0
C249 C 0.36637 0.3029 0.61184 0.0
C250 C 0.37537 0.26988 0.60589 0.0
C251 C 0.36295 0.21061 0.60247 0.0
C252 C 0.34154 0.1844 0.60494 0.0
C253 C 0.35374 0.24392 0.60744 0.0
C254 C 0.31047 0.19204 0.61159 0.0
C255 C 0.30105 0.22521 0.6163 0.0
H256 H 0.02921 0.03422 0.87244 0.0
H257 H 0.03446 0.1029 0.79528 0.0
H258 H 0.97821 0.10873 0.79454 0.0
H259 H 0.9279 0.09722 0.81805 0.0
H260 H 0.92273 0.02937 0.89589 0.0
H261 H 0.97854 0.02022 0.8939 0.0
C262 C 0.01806 0.05023 0.85525 0.0
C263 C 0.03609 0.06827 0.83413 0.0
C264 C 0.9857 0.05378 0.85516 0.0
C265 C 0.0212 0.08883 0.81195 0.0
C266 C 0.989 0.09224 0.81152 0.0
C267 C 0.93892 0.08021 0.83442 0.0
C268 C 0.92117 0.06424 0.85724 0.0
C269 C 0.97108 0.07529 0.83338 0.0
C270 C 0.93584 0.04216 0.87817 0.0
C271 C 0.96779 0.03692 0.87709 0.0
H272 H 0.15876 0.31058 0.855 0.0
H273 H 0.0889 0.313 0.92754 0.0
H274 H 0.08372 0.25229 0.92248 0.0
H275 H 0.09742 0.19889 0.89579 0.0
H276 H 0.16648 0.19693 0.82243 0.0
H277 H 0.17353 0.2572 0.82954 0.0
C278 C 0.14255 0.29786 0.86991 0.0
C279 C 0.12418 0.31635 0.89154 0.0
C280 C 0.1394 0.26305 0.86659 0.0
C281 C 0.10328 0.2994 0.91063 0.0
C282 C 0.10025 0.26468 0.90771 0.0
C283 C 0.1141 0.2116 0.88144 0.0
C284 C 0.13127 0.19343 0.8585 0.0
C285 C 0.11792 0.24631 0.88549 0.0
C286 C 0.15285 0.21031 0.84015 0.0
C287 C 0.15693 0.24479 0.84421 0.0
H288 H 0.94721 0.96917 0.11321 0.0
H289 H 0.94243 0.88323 0.17259 0.0
H290 H -0.00118 0.88017 0.17496 0.0
H291 H 0.04927 0.89937 0.15725 0.0
H292 H 0.05434 0.98411 0.09644 0.0
H293 H -0.00191 0.99034 0.09789 0.0
C294 C 0.9585 0.94995 0.12691 0.0
C295 C 0.94058 0.92632 0.14248 0.0
C296 C 0.991 0.94804 0.12786 0.0
C297 C 0.95562 0.90161 0.16017 0.0
C298 C 0.9879 0.89982 0.16156 0.0
C299 C 0.03816 0.91945 0.1446 0.0
C300 C 0.05599 0.94107 0.1266 0.0
C301 C 0.00579 0.92254 0.14506 0.0
C302 C 0.04115 0.96698 0.11036 0.0
C303 C 0.00897 0.97053 0.11111 0.0
H304 H 0.29276 0.69654 0.35204 0.0
H305 H 0.38105 0.68063 0.39967 0.0
H306 H 0.3914 0.74056 0.40073 0.0
H307 H 0.3765 0.79716 0.38608 0.0
H308 H 0.28877 0.81303 0.33736 0.0
H309 H 0.27709 0.75346 0.33898 0.0
C310 C 0.31419 0.70617 0.36284 0.0
C311 C 0.33612 0.68406 0.37563 0.0
C312 C 0.32016 0.74067 0.36311 0.0
C313 C 0.36378 0.69703 0.38953 0.0
C314 C 0.36975 0.73133 0.39015 0.0
C315 C 0.35471 0.78767 0.37601 0.0
C316 C 0.33363 0.80954 0.36151 0.0
C317 C 0.34827 0.75333 0.3767 0.0
C318 C 0.30551 0.79675 0.34857 0.0
C319 C 0.29879 0.76266 0.34945 0.0
H320 H 0.55212 0.09354 0.63988 0.0
H321 H 0.56481 0.98861 0.61662 0.0
H322 H 0.50882 0.9813 0.61022 0.0
H323 H 0.45629 0.00503 0.60975 0.0
H324 H 0.44398 0.11009 0.63287 0.0
H325 H 0.49975 0.11688 0.64082 0.0
C326 C 0.54267 0.06902 0.63355 0.0
C327 C 0.56267 0.04171 0.62867 0.0
C328 C 0.51048 0.06499 0.62978 0.0
C329 C 0.54997 0.0101 0.62052 0.0
C330 C 0.51793 0.00588 0.6168 0.0
C331 C 0.46578 0.02939 0.61663 0.0
C332 C 0.44593 0.05699 0.62059 0.0
C333 C 0.49797 0.0332 0.62113 0.0
C334 C 0.45867 0.08837 0.62958 0.0
C335 C 0.49061 0.09233 0.63414 0.0
H336 H 0.85353 0.18031 0.907 0.0
H337 H 0.76652 0.18506 0.85435 0.0
H338 H 0.77313 0.24515 0.84921 0.0
H339 H 0.80469 0.29578 0.85742 0.0
H340 H 0.89176 0.2911 0.90996 0.0
H341 H 0.8839 0.23151 0.91748 0.0
C342 C 0.8359 0.19449 0.89456 0.0
C343 C 0.80966 0.17812 0.88091 0.0
C344 C 0.83989 0.22903 0.89155 0.0
C345 C 0.78698 0.19696 0.86503 0.0
C346 C 0.79076 0.23134 0.86201 0.0
C347 C 0.82192 0.28179 0.87064 0.0
C348 C 0.84889 0.29786 0.8829 0.0
C349 C 0.81731 0.24754 0.87481 0.0
C350 C 0.87083 0.27937 0.90018 0.0
C351 C 0.86638 0.24526 0.90446 0.0
H352 H 0.67689 0.67803 0.36313 0.0
H353 H 0.60021 0.65917 0.42481 0.0
H354 H 0.59502 0.71892 0.43667 0.0
H355 H 0.60941 0.77668 0.42612 0.0
H356 H 0.68554 0.79567 0.36379 0.0
H357 H 0.69392 0.73574 0.35592 0.0
C358 C 0.65924 0.68694 0.37942 0.0
C359 C 0.63876 0.66415 0.39275 0.0
C360 C 0.65615 0.7214 0.38594 0.0
C361 C 0.61617 0.67615 0.41401 0.0
C362 C 0.61313 0.71035 0.42079 0.0
C363 C 0.62806 0.76776 0.41109 0.0
C364 C 0.64657 0.79067 0.39531 0.0
C365 C 0.63256 0.73324 0.40636 0.0
C366 C 0.67078 0.77861 0.37609 0.0
C367 C 0.67557 0.74431 0.3715 0.0
H368 H 0.82487 0.67752 0.12135 0.0
H369 H 0.89373 0.67441 0.04781 0.0
H370 H 0.89487 0.73539 0.04818 0.0
H371 H 0.8791 0.78945 0.07214 0.0
H372 H 0.81119 0.79222 0.14665 0.0
H373 H 0.80688 0.73148 0.143 0.0
C374 C 0.83991 0.69012 0.10514 0.0
C375 C 0.85937 0.67138 0.08477 0.0
C376 C 0.84081 0.72516 0.10581 0.0
C377 C 0.87861 0.68819 0.06386 0.0
C378 C 0.87935 0.72308 0.0641 0.0
C379 C 0.86317 0.77681 0.08742 0.0
C380 C 0.84572 0.79538 0.10983 0.0
C381 C 0.86101 0.74181 0.08544 0.0
C382 C 0.82508 0.77857 0.12932 0.0
C383 C 0.82258 0.7438 0.12728 0.0
H384 H 0.69445 0.29948 0.62887 0.0
H385 H 0.60276 0.31852 0.59031 0.0
H386 H 0.59194 0.25871 0.58718 0.0
H387 H 0.60741 0.20125 0.59789 0.0
H388 H 0.69887 0.18207 0.63692 0.0
H389 H 0.71083 0.24167 0.63721 0.0
C390 C 0.67218 0.29057 0.61954 0.0
C391 C 0.64943 0.31353 0.61002 0.0
C392 C 0.66597 0.2561 0.61803 0.0
C393 C 0.62071 0.30146 0.59792 0.0
C394 C 0.61444 0.26723 0.59616 0.0
C395 C 0.63003 0.21004 0.60632 0.0
C396 C 0.6521 0.1872 0.61756 0.0
C397 C 0.63673 0.24436 0.60657 0.0
C398 C 0.68136 0.19908 0.62822 0.0
C399 C 0.68824 0.23319 0.62844 0.0
H400 H 0.04813 0.40722 0.83441 0.0
H401 H 0.04776 0.50949 0.87078 0.0
H402 H 0.99131 0.51098 0.86503 0.0
H403 H 0.9419 0.4817 0.85398 0.0
H404 H 0.94268 0.3788 0.81938 0.0
H405 H -0.00082 0.37927 0.81999 0.0
C406 C 0.0358 0.43001 0.84077 0.0
C407 C 0.05218 0.45811 0.85328 0.0
C408 C 0.00336 0.43052 0.83793 0.0
C409 C 0.03575 0.48743 0.86124 0.0
C410 C 0.00344 0.48828 0.85804 0.0
C411 C 0.95441 0.45948 0.84622 0.0
C412 C 0.93804 0.43018 0.83692 0.0
C413 C 0.98697 0.45973 0.84708 0.0
C414 C 0.95465 0.40164 0.82687 0.0
C415 C 0.98699 0.40185 0.82724 0.0
H416 H 0.54165 0.5113 0.36225 0.0
H417 H 0.561 0.59073 0.29825 0.0
H418 H 0.50583 0.60362 0.29412 0.0
H419 H 0.45284 0.59579 0.31267 0.0
H420 H 0.43394 0.51774 0.37835 0.0
H421 H 0.48819 0.50081 0.37767 0.0
C422 C 0.5338 0.53111 0.34701 0.0
C423 C 0.55546 0.5502 0.33083 0.0
C424 C 0.50213 0.53888 0.34529 0.0
C425 C 0.54484 0.57577 0.31115 0.0
C426 C 0.51329 0.58324 0.30884 0.0
C427 C 0.4605 0.57485 0.32658 0.0
C428 C 0.43942 0.55832 0.3458 0.0
C429 C 0.49184 0.56553 0.32646 0.0
C430 C 0.44973 0.53112 0.36356 0.0
C431 C 0.48076 0.52139 0.3632 0.0
H432 H 0.53966 0.45816 0.63639 0.0
H433 H 0.55647 0.38082 0.70411 0.0
H434 H 0.50115 0.37736 0.71413 0.0
H435 H 0.44772 0.39175 0.69924 0.0
H436 H 0.43063 0.46867 0.6312 0.0
H437 H 0.48631 0.47713 0.62615 0.0
C438 C 0.53127 0.44087 0.65366 0.0
C439 C 0.55215 0.41942 0.66907 0.0
C440 C 0.49934 0.43876 0.65914 0.0
C441 C 0.54092 0.39745 0.69168 0.0
C442 C 0.50924 0.39536 0.69739 0.0
C443 C 0.45615 0.4107 0.68364 0.0
C444 C 0.43504 0.42916 0.66527 0.0
C445 C 0.48818 0.41519 0.68056 0.0
C446 C 0.44635 0.45394 0.64549 0.0
C447 C 0.47823 0.45871 0.64246 0.0
H448 H 0.05703 0.51817 0.13968 0.0
H449 H 0.05593 0.62567 0.15241 0.0
H450 H -0.00056 0.62521 0.15145 0.0
H451 H 0.95052 0.59483 0.14403 0.0
H452 H 0.9512 0.48747 0.13021 0.0
H453 H 0.00774 0.48739 0.13484 0.0
C454 C 0.04445 0.54148 0.14248 0.0
C455 C 0.06072 0.57191 0.14589 0.0
C456 C 0.01191 0.54111 0.14163 0.0
C457 C 0.04403 0.60188 0.14959 0.0
C458 C 0.01169 0.60167 0.14903 0.0
C459 C 0.96297 0.57135 0.14227 0.0
C460 C 0.94664 0.54123 0.13658 0.0
C461 C -0.00458 0.5715 0.1446 0.0
C462 C 0.96319 0.51104 0.13449 0.0
C463 C -0.00447 0.51097 0.13706 0.0
H464 H 0.15696 0.52354 0.06137 0.0
H465 H 0.21384 0.60107 0.02357 0.0
H466 H 0.21385 0.57149 0.97143 0.0
H467 H 0.19547 0.52508 0.93589 0.0
H468 H 0.13861 0.4477 0.97403 0.0
H469 H 0.14094 0.4758 0.02675 0.0
C470 C 0.16954 0.53391 0.04181 0.0
C471 C 0.18518 0.5646 0.04632 0.0
C472 C 0.16933 0.51689 0.01189 0.0
C473 C 0.20155 0.57752 0.02075 0.0
C474 C 0.2015 0.56067 0.99089 0.0
C475 C 0.18368 0.51429 0.95576 0.0
C476 C 0.1667 0.48448 0.95093 0.0
C477 C 0.18509 0.53059 0.98607 0.0
C478 C 0.15178 0.47068 0.97702 0.0
C479 C 0.15306 0.48675 0.0072 0.0
H480 H 0.74957 0.92532 0.3261 0.0
H481 H 0.66061 0.92405 0.27671 0.0
H482 H 0.68615 0.92753 0.2254 0.0
H483 H 0.7337 0.92551 0.19433 0.0
H484 H 0.82264 0.9251 0.2437 0.0
H485 H 0.79708 0.92803 0.29521 0.0
C486 C 0.73573 0.92622 0.30417 0.0
C487 C 0.70326 0.92399 0.30524 0.0
C488 C 0.75055 0.92769 0.27469 0.0
C489 C 0.68568 0.92542 0.27657 0.0
C490 C 0.70026 0.92735 0.24718 0.0
C491 C 0.74752 0.92646 0.21633 0.0
C492 C 0.78 0.92465 0.21513 0.0
C493 C 0.73268 0.92764 0.24591 0.0
C494 C 0.79757 0.92615 0.24391 0.0
C495 C 0.78298 0.92778 0.27341 0.0
H496 H 0.31246 0.43961 0.53727 0.0
H497 H 0.3182 0.53661 0.58556 0.0
H498 H 0.31651 0.5635 0.534 0.0
H499 H 0.31863 0.55917 0.47541 0.0
H500 H 0.31415 0.46205 0.4272 0.0
H501 H 0.30981 0.43556 0.47864 0.0
C502 C 0.313 0.46666 0.53657 0.0
C503 C 0.3159 0.48605 0.56522 0.0
C504 C 0.31245 0.48193 0.50687 0.0
C505 C 0.3162 0.52106 0.56387 0.0
C506 C 0.31533 0.53648 0.53439 0.0
C507 C 0.31636 0.53223 0.47609 0.0
C508 C 0.31716 0.5126 0.44752 0.0
C509 C 0.31428 0.51711 0.50575 0.0
C510 C 0.31385 0.47775 0.44884 0.0
C511 C 0.31144 0.46255 0.47825 0.0
H512 H 0.74695 0.01214 0.69567 0.0
H513 H 0.67856 0.07852 0.73691 0.0
H514 H 0.70583 0.07798 0.78852 0.0
H515 H 0.75105 0.06236 0.82084 0.0
H516 H 0.82003 -0.00342 0.77996 0.0
H517 H 0.79035 0.99294 0.72949 0.0
C518 C 0.73783 0.02621 0.71602 0.0
C519 C 0.71093 0.04563 0.71225 0.0
C520 C 0.75379 0.02605 0.7457 0.0
C521 C 0.69934 0.06354 0.73898 0.0
C522 C 0.71494 0.0633 0.76856 0.0
C523 C 0.75949 0.04695 0.80101 0.0
C524 C 0.78789 0.03006 0.80409 0.0
C525 C 0.74251 0.04522 0.77201 0.0
C526 C 0.7983 0.00996 0.77823 0.0
C527 C 0.78139 0.00795 0.7493 0.0
H528 H 0.85264 0.44524 0.94044 0.0
H529 H 0.76077 0.47638 0.91178 0.0
H530 H 0.75809 0.51312 0.95979 0.0
H531 H 0.78246 0.53693 0.00961 0.0
H532 H 0.87372 0.50348 0.03828 0.0
H533 H 0.87595 0.46708 0.99051 0.0
C534 C 0.832 0.46009 0.94463 0.0
C535 C 0.80703 0.45828 0.92251 0.0
C536 C 0.83052 0.48074 0.97229 0.0
C537 C 0.78032 0.47734 0.9285 0.0
C538 C 0.7788 0.49839 0.95588 0.0
C539 C 0.80279 0.52164 0.00537 0.0
C540 C 0.82791 0.52303 0.02743 0.0
C541 C 0.80385 0.50038 0.9779 0.0
C542 C 0.85401 0.50286 0.02176 0.0
C543 C 0.85537 0.48207 -0.0056 0.0
H544 H 0.24114 0.04445 0.78017 0.0
H545 H 0.15728 0.06402 0.72578 0.0
H546 H 0.18577 0.0594 0.67605 0.0
H547 H 0.23523 0.05581 0.64861 0.0
H548 H 0.31953 0.03853 0.70303 0.0
H549 H 0.29 0.03577 0.75207 0.0
C550 C 0.229 0.04726 0.75742 0.0
C551 C 0.19723 0.05503 0.75675 0.0
C552 C 0.24562 0.04518 0.72891 0.0
C553 C 0.18182 0.05839 0.72703 0.0
C554 C 0.19808 0.05578 0.69855 0.0
C555 C 0.24714 0.05095 0.6711 0.0
C556 C 0.27958 0.04784 0.6722 0.0
C557 C 0.23013 0.05011 0.69929 0.0
C558 C 0.29459 0.04133 0.70154 0.0
C559 C 0.27773 0.03983 0.72963 0.0
H560 H 0.70556 0.55407 0.46336 0.0
H561 H 0.63702 0.49146 0.41393 0.0
H562 H 0.63007 0.46009 0.46222 0.0
H563 H 0.64162 0.452 0.51906 0.0
H564 H 0.71032 0.5142 0.56863 0.0
H565 H 0.719 0.54412 0.51965 0.0
C566 C 0.68928 0.53341 0.46306 0.0
C567 C 0.67174 0.52529 0.4351 0.0
C568 C 0.68524 0.51552 0.49099 0.0
C569 C 0.65081 0.49833 0.43512 0.0
C570 C 0.64673 0.4804 0.46277 0.0
C571 C 0.65853 0.47207 0.51917 0.0
C572 C 0.6751 0.48102 0.54753 0.0
C573 C 0.66349 0.48908 0.49094 0.0
C574 C 0.69717 0.50685 0.54715 0.0
C575 C 0.70215 0.524 0.51915 0.0
H576 H 0.24241 0.98447 0.28288 0.0
H577 H 0.30677 0.91913 0.23377 0.0
H578 H 0.2763 0.92299 0.18427 0.0
H579 H 0.22944 0.94126 0.156 0.0
H580 H 0.16448 0.00597 0.20493 0.0
H581 H 0.19735 0.00626 0.25326 0.0
C582 C 0.24995 0.97134 0.26129 0.0
C583 C 0.27667 0.95125 0.2622 0.0
C584 C 0.23216 0.97342 0.23286 0.0
C585 C 0.28619 0.93459 0.23388 0.0
C586 C 0.26876 0.93673 0.20552 0.0
C587 C 0.22257 0.95573 0.17711 0.0
C588 C 0.19436 0.97329 0.17691 0.0
C589 C 0.24139 0.95551 0.20491 0.0
C590 C 0.186 0.9921 0.20443 0.0
C591 C 0.20475 0.9922 0.23214 0.0
H592 H 0.68193 -0.00166 0.56859 0.0
H593 H 0.65351 0.07786 0.50725 0.0
H594 H 0.65356 0.03928 0.46084 0.0
H595 H 0.6577 0.98235 0.43833 0.0
H596 H 0.68548 0.90235 0.4993 0.0
H597 H 0.68983 0.94183 0.54515 0.0
C598 C 0.67614 0.00733 0.54501 0.0
C599 C 0.66744 0.04088 0.54148 0.0
C600 C 0.67584 0.98489 0.51839 0.0
C601 C 0.66008 0.05212 0.51073 0.0
C602 C 0.66003 0.03006 0.48414 0.0
C603 C 0.66488 0.97353 0.4616 0.0
C604 C 0.6709 0.93939 0.46545 0.0
C605 C 0.66718 0.99627 0.48782 0.0
C606 C 0.68057 0.92848 0.49569 0.0
C607 C 0.68301 0.95103 0.52194 0.0
H608 H 0.32323 0.43197 0.76521 0.0
H609 H 0.25396 0.43507 0.68924 0.0
H610 H 0.21296 0.43641 0.72859 0.0
H611 H 0.19668 0.4338 0.78429 0.0
H612 H 0.2658 0.42835 0.86016 0.0
H613 H 0.30695 0.4311 0.8211 0.0
C614 C 0.29918 0.4332 0.75725 0.0
C615 C 0.29169 0.43329 0.72433 0.0
C616 C 0.27568 0.43347 0.77998 0.0
C617 C 0.26038 0.43479 0.71444 0.0
C618 C 0.2369 0.43558 0.73692 0.0
C619 C 0.22074 0.43354 0.79233 0.0
C620 C 0.22816 0.43078 0.82507 0.0
C621 C 0.24427 0.43451 0.76971 0.0
C622 C 0.25946 0.43032 0.83507 0.0
C623 C 0.28301 0.43186 0.81275 0.0
H624 H 0.782 0.96564 0.94808 0.0
H625 H 0.82388 0.05417 -0.00752 0.0
H626 H 0.82723 0.02687 0.04365 0.0
H627 H 0.82241 0.97641 0.07466 0.0
H628 H 0.78038 0.88785 0.03066 0.0
H629 H 0.77279 0.91673 0.98055 0.0
C630 C 0.79154 0.9791 0.96902 0.0
C631 C 0.80303 0.01174 0.9663 0.0
C632 C 0.7936 0.96319 -0.00159 0.0
C633 C 0.81502 0.02895 -0.00622 0.0
C634 C 0.81707 0.01332 0.02309 0.0
C635 C 0.81137 0.9635 0.05418 0.0
C636 C 0.80234 0.92993 0.05625 0.0
C637 C 0.80712 0.98021 0.02548 0.0
C638 C 0.78767 0.91368 0.02966 0.0
C639 C 0.78339 0.93014 0.00096 0.0
H640 H 0.25607 0.53397 0.18236 0.0
H641 H 0.18574 0.58619 0.23645 0.0
H642 H 0.21706 0.5819 0.28527 0.0
H643 H 0.26598 0.56757 0.31177 0.0
H644 H 0.33671 0.51554 0.2583 0.0
H645 H 0.30349 0.51526 0.21014 0.0
C646 C 0.24744 0.54408 0.20488 0.0
C647 C 0.21878 0.56076 0.20561 0.0
C648 C 0.26569 0.54177 0.23295 0.0
C649 C 0.20783 0.57347 0.23508 0.0
C650 C 0.22575 0.5711 0.26306 0.0
C651 C 0.27407 0.55594 0.28965 0.0
C652 C 0.30389 0.54199 0.28849 0.0
C653 C 0.25498 0.556 0.26211 0.0
C654 C 0.31386 0.52658 0.25978 0.0
C655 C 0.29493 0.5265 0.23221 0.0
H656 H 0.31497 0.00555 0.53329 0.0
H657 H 0.36621 0.07869 0.48215 0.0
H658 H 0.35826 0.046 0.43229 0.0
H659 H 0.33918 0.99542 0.40377 0.0
H660 H 0.2886 0.92169 0.45482 0.0
H661 H 0.2936 0.95613 0.50409 0.0
C662 C 0.32429 0.01444 0.51122 0.0
C663 C 0.34137 0.04442 0.51154 0.0
C664 C 0.31974 0.99545 0.48261 0.0
C665 C 0.3531 0.05564 0.48267 0.0
C666 C 0.34857 0.03696 0.45411 0.0
C667 C 0.32897 0.98696 0.42558 0.0
C668 C 0.3137 0.95589 0.42561 0.0
C669 C 0.33226 0.00665 0.45388 0.0
C670 C 0.30055 0.94544 0.4541 0.0
C671 C 0.30348 0.96507 0.48233 0.0
H672 H 0.81579 0.55943 0.21277 0.0
H673 H 0.73848 0.5302 0.15061 0.0
H674 H 0.70449 0.52997 0.19659 0.0
H675 H 0.69602 0.54179 0.25374 0.0
H676 H 0.77322 0.57204 0.31564 0.0
H677 H 0.80797 0.56797 0.27036 0.0
C678 C 0.79157 0.55271 0.20926 0.0
C679 C 0.77966 0.54514 0.17823 0.0
C680 C 0.77209 0.553 0.23571 0.0
C681 C 0.74825 0.5363 0.17419 0.0
C682 C 0.72876 0.53623 0.20047 0.0
C683 C 0.72049 0.54727 0.25741 0.0
C684 C 0.73193 0.5575 0.288 0.0
C685 C 0.74032 0.54515 0.23123 0.0
C686 C 0.76374 0.56428 0.29234 0.0
C687 C 0.78365 0.562 0.26644 0.0
H688 H 0.19512 0.0398 0.02581 0.0
H689 H 0.14972 0.94965 0.9893 0.0
H690 H 0.14671 0.9721 0.93596 0.0
H691 H 0.15327 0.01875 0.90052 0.0
H692 H 0.19876 0.10898 0.93633 0.0
H693 H 0.20564 0.08492 0.98896 0.0
C694 C 0.18485 0.02494 0.00613 0.0
C695 C 0.17234 0.99328 0.0117 0.0
C696 C 0.18304 0.03804 0.97538 0.0
C697 C 0.15935 0.97422 0.98582 0.0
C698 C 0.15754 0.98704 0.95525 0.0
C699 C 0.16491 0.03307 0.91976 0.0
C700 C 0.17517 0.06571 0.91463 0.0
C701 C 0.16871 0.01916 0.94991 0.0
C702 C 0.19056 0.0838 0.93968 0.0
C703 C 0.19442 0.07011 0.96982 0.0
H704 H 0.71657 0.41028 0.68191 0.0
H705 H 0.67773 0.50289 0.71857 0.0
H706 H 0.71819 0.50639 0.7605 0.0
H707 H 0.76324 0.48156 0.7882 0.0
H708 H 0.8005 0.3881 0.75159 0.0
H709 H 0.76209 0.38674 0.70801 0.0
C710 C 0.71694 0.43134 0.69897 0.0
C711 C 0.69404 0.45617 0.69721 0.0
C712 C 0.74001 0.43306 0.72304 0.0
C713 C 0.69502 0.48334 0.71946 0.0
C714 C 0.71815 0.48537 0.74344 0.0
C715 C 0.76314 0.46112 0.77046 0.0
C716 C 0.7846 0.43491 0.77321 0.0
C717 C 0.7406 0.46017 0.74565 0.0
C718 C 0.7841 0.40848 0.75015 0.0
C719 C 0.76214 0.40764 0.72522 0.0
loop_
_geom_bond_atom_site_label_1
_geom_bond_atom_site_label_2
_geom_bond_distance
_geom_bond_site_symmetry_2
_ccdc_geom_bond_type
C0 O1 1.160 . S
C0 O7 1.185 . S
O1 C0 1.160 . S
O2 Zn3 1.899 . S
O2 C10 1.284 . S
Zn3 O2 1.899 . S
Zn3 O4 2.032 . S
Zn3 O7 2.086 . S
Zn3 O12 1.977 . S
O4 Zn3 2.032 . S
O4 C8 1.278 . S
C5 O6 1.203 . S
C5 O12 1.267 . S
O6 C5 1.203 . S
O7 C0 1.185 . S
O7 Zn3 2.086 . S
C8 O4 1.278 . S
C8 O9 1.211 . S
O9 C8 1.211 . S
C10 O2 1.284 . S
C10 O11 1.273 . S
O11 C10 1.273 . S
O12 Zn3 1.977 . S
O12 C5 1.267 . S
C13 O14 1.160 . S
C13 O20 1.185 . S
O14 C13 1.160 . S
O15 Zn16 1.899 . S
O15 C23 1.284 . S
Zn16 O15 1.899 . S
Zn16 O17 2.032 . S
Zn16 O20 2.086 . S
Zn16 O25 1.977 . S
O17 Zn16 2.032 . S
O17 C21 1.278 . S
C18 O19 1.203 . S
C18 O25 1.267 . S
O19 C18 1.203 . S
O20 C13 1.185 . S
O20 Zn16 2.086 . S
C21 O17 1.278 . S
C21 O22 1.211 . S
O22 C21 1.211 . S
C23 O15 1.284 . S
C23 O24 1.273 . S
O24 C23 1.273 . S
O25 Zn16 1.977 . S
O25 C18 1.267 . S
C26 O27 1.160 . S
C26 O33 1.185 . S
O27 C26 1.160 . S
O28 Zn29 1.899 . S
O28 C36 1.284 . S
Zn29 O28 1.899 . S
Zn29 O30 2.032 . S
Zn29 O33 2.086 . S
Zn29 O38 1.977 . S
O30 Zn29 2.032 . S
O30 C34 1.278 . S
C31 O32 1.203 . S
C31 O38 1.267 . S
O32 C31 1.203 . S
O33 C26 1.185 . S
O33 Zn29 2.086 . S
C34 O30 1.278 . S
C34 O35 1.211 . S
O35 C34 1.211 . S
C36 O28 1.284 . S
C36 O37 1.273 . S
O37 C36 1.273 . S
O38 Zn29 1.977 . S
O38 C31 1.267 . S
C39 O40 1.160 . S
C39 O46 1.185 . S
O40 C39 1.160 . S
O41 Zn42 1.899 . S
O41 C49 1.284 . S
Zn42 O41 1.899 . S
Zn42 O43 2.032 . S
Zn42 O46 2.086 . S
Zn42 O51 1.977 . S
O43 Zn42 2.032 . S
O43 C47 1.278 . S
C44 O45 1.203 . S
C44 O51 1.267 . S
O45 C44 1.203 . S
O46 C39 1.185 . S
O46 Zn42 2.086 . S
C47 O43 1.278 . S
C47 O48 1.211 . S
O48 C47 1.211 . S
C49 O41 1.284 . S
C49 O50 1.273 . S
O50 C49 1.273 . S
O51 Zn42 1.977 . S
O51 C44 1.267 . S
C52 O53 1.160 . S
C52 O59 1.185 . S
O53 C52 1.160 . S
O54 Zn55 1.899 . S
O54 C62 1.284 . S
Zn55 O54 1.899 . S
Zn55 O56 2.032 . S
Zn55 O59 2.086 . S
Zn55 O64 1.977 . S
O56 Zn55 2.032 . S
O56 C60 1.278 . S
C57 O58 1.203 . S
C57 O64 1.267 . S
O58 C57 1.203 . S
O59 C52 1.185 . S
O59 Zn55 2.086 . S
C60 O56 1.278 . S
C60 O61 1.211 . S
O61 C60 1.211 . S
C62 O54 1.284 . S
C62 O63 1.273 . S
O63 C62 1.273 . S
O64 Zn55 1.977 . S
O64 C57 1.267 . S
C65 O66 1.160 . S
C65 O72 1.185 . S
O66 C65 1.160 . S
O67 Zn68 1.899 . S
O67 C75 1.284 . S
Zn68 O67 1.899 . S
Zn68 O69 2.032 . S
Zn68 O72 2.086 . S
Zn68 O77 1.977 . S
O69 Zn68 2.032 . S
O69 C73 1.278 . S
C70 O71 1.203 . S
C70 O77 1.267 . S
O71 C70 1.203 . S
O72 C65 1.185 . S
O72 Zn68 2.086 . S
C73 O69 1.278 . S
C73 O74 1.211 . S
O74 C73 1.211 . S
C75 O67 1.284 . S
C75 O76 1.273 . S
O76 C75 1.273 . S
O77 Zn68 1.977 . S
O77 C70 1.267 . S
C78 O79 1.160 . S
C78 O85 1.185 . S
O79 C78 1.160 . S
O80 Zn81 1.899 . S
O80 C88 1.284 . S
Zn81 O80 1.899 . S
Zn81 O82 2.032 . S
Zn81 O85 2.086 . S
Zn81 O90 1.977 . S
O82 Zn81 2.032 . S
O82 C86 1.278 . S
C83 O84 1.203 . S
C83 O90 1.267 . S
O84 C83 1.203 . S
O85 C78 1.185 . S
O85 Zn81 2.086 . S
C86 O82 1.278 . S
C86 O87 1.211 . S
O87 C86 1.211 . S
C88 O80 1.284 . S
C88 O89 1.273 . S
O89 C88 1.273 . S
O90 Zn81 1.977 . S
O90 C83 1.267 . S
C91 O92 1.160 . S
C91 O98 1.185 . S
O92 C91 1.160 . S
O93 Zn94 1.899 . S
O93 C101 1.284 . S
Zn94 O93 1.899 . S
Zn94 O95 2.032 . S
Zn94 O98 2.086 . S
Zn94 O103 1.977 . S
O95 Zn94 2.032 . S
O95 C99 1.278 . S
C96 O97 1.203 . S
C96 O103 1.267 . S
O97 C96 1.203 . S
O98 C91 1.185 . S
O98 Zn94 2.086 . S
C99 O95 1.278 . S
C99 O100 1.211 . S
O100 C99 1.211 . S
C101 O93 1.284 . S
C101 O102 1.273 . S
O102 C101 1.273 . S
O103 Zn94 1.977 . S
O103 C96 1.267 . S
C104 O105 1.160 . S
C104 O111 1.185 . S
O105 C104 1.160 . S
O106 Zn107 1.899 . S
O106 C114 1.284 . S
Zn107 O106 1.899 . S
Zn107 O108 2.032 . S
Zn107 O111 2.086 . S
Zn107 O116 1.977 . S
O108 Zn107 2.032 . S
O108 C112 1.278 . S
C109 O110 1.203 . S
C109 O116 1.267 . S
O110 C109 1.203 . S
O111 C104 1.185 . S
O111 Zn107 2.086 . S
C112 O108 1.278 . S
C112 O113 1.211 . S
O113 C112 1.211 . S
C114 O106 1.284 . S
C114 O115 1.273 . S
O115 C114 1.273 . S
O116 Zn107 1.977 . S
O116 C109 1.267 . S
C117 O118 1.160 . S
C117 O124 1.185 . S
O118 C117 1.160 . S
O119 Zn120 1.899 . S
O119 C127 1.284 . S
Zn120 O119 1.899 . S
Zn120 O121 2.032 . S
Zn120 O124 2.086 . S
Zn120 O129 1.977 . S
O121 Zn120 2.032 . S
O121 C125 1.278 . S
C122 O123 1.203 . S
C122 O129 1.267 . S
O123 C122 1.203 . S
O124 C117 1.185 . S
O124 Zn120 2.086 . S
C125 O121 1.278 . S
C125 O126 1.211 . S
O126 C125 1.211 . S
C127 O119 1.284 . S
C127 O128 1.273 . S
O128 C127 1.273 . S
O129 Zn120 1.977 . S
O129 C122 1.267 . S
C130 O131 1.160 . S
C130 O137 1.185 . S
O131 C130 1.160 . S
O132 Zn133 1.899 . S
O132 C140 1.284 . S
Zn133 O132 1.899 . S
Zn133 O134 2.032 . S
Zn133 O137 2.086 . S
Zn133 O142 1.977 . S
O134 Zn133 2.032 . S
O134 C138 1.278 . S
C135 O136 1.203 . S
C135 O142 1.267 . S
O136 C135 1.203 . S
O137 C130 1.185 . S
O137 Zn133 2.086 . S
C138 O134 1.278 . S
C138 O139 1.211 . S
O139 C138 1.211 . S
C140 O132 1.284 . S
C140 O141 1.273 . S
O141 C140 1.273 . S
O142 Zn133 1.977 . S
O142 C135 1.267 . S
C143 O144 1.160 . S
C143 O150 1.185 . S
O144 C143 1.160 . S
O145 Zn146 1.899 . S
O145 C153 1.284 . S
Zn146 O145 1.899 . S
Zn146 O147 2.032 . S
Zn146 O150 2.086 . S
Zn146 O155 1.977 . S
O147 Zn146 2.032 . S
O147 C151 1.278 . S
C148 O149 1.203 . S
C148 O155 1.267 . S
O149 C148 1.203 . S
O150 C143 1.185 . S
O150 Zn146 2.086 . S
C151 O147 1.278 . S
C151 O152 1.211 . S
O152 C151 1.211 . S
C153 O145 1.284 . S
C153 O154 1.273 . S
O154 C153 1.273 . S
O155 Zn146 1.977 . S
O155 C148 1.267 . S
C156 O157 1.160 . S
C156 O163 1.185 . S
O157 C156 1.160 . S
O158 Zn159 1.899 . S
O158 C166 1.284 . S
Zn159 O158 1.899 . S
Zn159 O160 2.032 . S
Zn159 O163 2.086 . S
Zn159 O168 1.977 . S
O160 Zn159 2.032 . S
O160 C164 1.278 . S
C161 O162 1.203 . S
C161 O168 1.267 . S
O162 C161 1.203 . S
O163 C156 1.185 . S
O163 Zn159 2.086 . S
C164 O160 1.278 . S
C164 O165 1.211 . S
O165 C164 1.211 . S
C166 O158 1.284 . S
C166 O167 1.273 . S
O167 C166 1.273 . S
O168 Zn159 1.977 . S
O168 C161 1.267 . S
C169 O170 1.160 . S
C169 O176 1.185 . S
O170 C169 1.160 . S
O171 Zn172 1.899 . S
O171 C179 1.284 . S
Zn172 O171 1.899 . S
Zn172 O173 2.032 . S
Zn172 O176 2.086 . S
Zn172 O181 1.977 . S
O173 Zn172 2.032 . S
O173 C177 1.278 . S
C174 O175 1.203 . S
C174 O181 1.267 . S
O175 C174 1.203 . S
O176 C169 1.185 . S
O176 Zn172 2.086 . S
C177 O173 1.278 . S
C177 O178 1.211 . S
O178 C177 1.211 . S
C179 O171 1.284 . S
C179 O180 1.273 . S
O180 C179 1.273 . S
O181 Zn172 1.977 . S
O181 C174 1.267 . S
C182 O183 1.160 . S
C182 O189 1.185 . S
O183 C182 1.160 . S
O184 Zn185 1.899 . S
O184 C192 1.284 . S
Zn185 O184 1.899 . S
Zn185 O186 2.032 . S
Zn185 O189 2.086 . S
Zn185 O194 1.977 . S
O186 Zn185 2.032 . S
O186 C190 1.278 . S
C187 O188 1.203 . S
C187 O194 1.267 . S
O188 C187 1.203 . S
O189 C182 1.185 . S
O189 Zn185 2.086 . S
C190 O186 1.278 . S
C190 O191 1.211 . S
O191 C190 1.211 . S
C192 O184 1.284 . S
C192 O193 1.273 . S
O193 C192 1.273 . S
O194 Zn185 1.977 . S
O194 C187 1.267 . S
C195 O196 1.160 . S
C195 O202 1.185 . S
O196 C195 1.160 . S
O197 Zn198 1.899 . S
O197 C205 1.284 . S
Zn198 O197 1.899 . S
Zn198 O199 2.032 . S
Zn198 O202 2.086 . S
Zn198 O207 1.977 . S
O199 Zn198 2.032 . S
O199 C203 1.278 . S
C200 O201 1.203 . S
C200 O207 1.267 . S
O201 C200 1.203 . S
O202 C195 1.185 . S
O202 Zn198 2.086 . S
C203 O199 1.278 . S
C203 O204 1.211 . S
O204 C203 1.211 . S
C205 O197 1.284 . S
C205 O206 1.273 . S
O206 C205 1.273 . S
O207 Zn198 1.977 . S
O207 C200 1.267 . S
H208 C214 0.930 . S
H209 C217 0.930 . S
H210 C218 0.930 . S
H211 C219 0.930 . S
H212 C222 0.930 . S
H213 C223 0.930 . S
C214 H208 0.930 . S
C214 C215 1.355 . S
C214 C216 1.415 . S
C215 C214 1.355 . S
C215 C217 1.419 . S
C216 C214 1.415 . S
C216 C221 1.425 . S
C216 C223 1.409 . S
C217 H209 0.930 . S
C217 C215 1.419 . S
C217 C218 1.362 . S
C218 H210 0.930 . S
C218 C217 1.362 . S
C218 C221 1.409 . S
C219 H211 0.930 . S
C219 C220 1.355 . S
C219 C221 1.415 . S
C220 C219 1.355 . S
C220 C222 1.419 . S
C221 C216 1.425 . S
C221 C218 1.409 . S
C221 C219 1.415 . S
C222 H212 0.930 . S
C222 C220 1.419 . S
C222 C223 1.362 . S
C223 H213 0.930 . S
C223 C216 1.409 . S
C223 C222 1.362 . S
H224 C230 0.930 . S
H225 C233 0.930 . S
H226 C234 0.930 . S
H227 C235 0.930 . S
H228 C238 0.930 . S
H229 C239 0.930 . S
C230 H224 0.930 . S
C230 C231 1.355 . S
C230 C232 1.415 . S
C231 C230 1.355 . S
C231 C233 1.419 . S
C232 C230 1.415 . S
C232 C237 1.425 . S
C232 C239 1.409 . S
C233 H225 0.930 . S
C233 C231 1.419 . S
C233 C234 1.362 . S
C234 H226 0.930 . S
C234 C233 1.362 . S
C234 C237 1.409 . S
C235 H227 0.930 . S
C235 C236 1.355 . S
C235 C237 1.415 . S
C236 C235 1.355 . S
C236 C238 1.419 . S
C237 C232 1.425 . S
C237 C234 1.409 . S
C237 C235 1.415 . S
C238 H228 0.930 . S
C238 C236 1.419 . S
C238 C239 1.362 . S
C239 H229 0.930 . S
C239 C232 1.409 . S
C239 C238 1.362 . S
H240 C246 0.930 . S
H241 C249 0.930 . S
H242 C250 0.930 . S
H243 C251 0.930 . S
H244 C254 0.930 . S
H245 C255 0.930 . S
C246 H240 0.930 . S
C246 C247 1.355 . S
C246 C248 1.415 . S
C247 C246 1.355 . S
C247 C249 1.419 . S
C248 C246 1.415 . S
C248 C253 1.425 . S
C248 C255 1.409 . S
C249 H241 0.930 . S
C249 C247 1.419 . S
C249 C250 1.362 . S
C250 H242 0.930 . S
C250 C249 1.362 . S
C250 C253 1.409 . S
C251 H243 0.930 . S
C251 C252 1.355 . S
C251 C253 1.415 . S
C252 C251 1.355 . S
C252 C254 1.419 . S
C253 C248 1.425 . S
C253 C250 1.409 . S
C253 C251 1.415 . S
C254 H244 0.930 . S
C254 C252 1.419 . S
C254 C255 1.362 . S
C255 H245 0.930 . S
C255 C248 1.409 . S
C255 C254 1.362 . S
H256 C262 0.930 . S
H257 C265 0.930 . S
H258 C266 0.930 1_655 S
H259 C267 0.930 . S
H260 C270 0.930 . S
H261 C271 0.930 . S
C262 H256 0.930 . S
C262 C263 1.355 . S
C262 C264 1.415 1_455 S
C263 C262 1.355 . S
C263 C265 1.419 . S
C264 C262 1.415 1_655 S
C264 C269 1.425 . S
C264 C271 1.409 . S
C265 H257 0.930 . S
C265 C263 1.419 . S
C265 C266 1.362 . S
C266 H258 0.930 1_455 S
C266 C265 1.362 . S
C266 C269 1.409 1_455 S
C267 H259 0.930 . S
C267 C268 1.355 . S
C267 C269 1.415 . S
C268 C267 1.355 . S
C268 C270 1.419 . S
C269 C264 1.425 . S
C269 C266 1.409 1_655 S
C269 C267 1.415 . S
C270 H260 0.930 . S
C270 C268 1.419 . S
C270 C271 1.362 . S
C271 H261 0.930 . S
C271 C264 1.409 . S
C271 C270 1.362 . S
H272 C278 0.930 . S
H273 C281 0.930 . S
H274 C282 0.930 . S
H275 C283 0.930 . S
H276 C286 0.930 . S
H277 C287 0.930 . S
C278 H272 0.930 . S
C278 C279 1.355 . S
C278 C280 1.415 . S
C279 C278 1.355 . S
C279 C281 1.419 . S
C280 C278 1.415 . S
C280 C285 1.425 . S
C280 C287 1.409 . S
C281 H273 0.930 . S
C281 C279 1.419 . S
C281 C282 1.362 . S
C282 H274 0.930 . S
C282 C281 1.362 . S
C282 C285 1.409 . S
C283 H275 0.930 . S
C283 C284 1.355 . S
C283 C285 1.415 . S
C284 C283 1.355 . S
C284 C286 1.419 . S
C285 C280 1.425 . S
C285 C282 1.409 . S
C285 C283 1.415 . S
C286 H276 0.930 . S
C286 C284 1.419 . S
C286 C287 1.362 . S
C287 H277 0.930 . S
C287 C280 1.409 . S
C287 C286 1.362 . S
H288 C294 0.930 . S
H289 C297 0.930 . S
H290 C298 0.930 1_455 S
H291 C299 0.930 . S
H292 C302 0.930 . S
H293 C303 0.930 . S
C294 H288 0.930 . S
C294 C295 1.355 . S
C294 C296 1.415 1_655 S
C295 C294 1.355 . S
C295 C297 1.419 . S
C296 C294 1.415 1_455 S
C296 C301 1.425 . S
C296 C303 1.409 . S
C297 H289 0.930 . S
C297 C295 1.419 . S
C297 C298 1.362 . S
C298 H290 0.930 1_655 S
C298 C297 1.362 . S
C298 C301 1.409 1_655 S
C299 H291 0.930 . S
C299 C300 1.355 . S
C299 C301 1.415 . S
C300 C299 1.355 . S
C300 C302 1.419 . S
C301 C296 1.425 . S
C301 C298 1.409 1_455 S
C301 C299 1.415 . S
C302 H292 0.930 . S
C302 C300 1.419 . S
C302 C303 1.362 . S
C303 H293 0.930 . S
C303 C296 1.409 . S
C303 C302 1.362 . S
H304 C310 0.930 . S
H305 C313 0.930 . S
H306 C314 0.930 . S
H307 C315 0.930 . S
H308 C318 0.930 . S
H309 C319 0.930 . S
C310 H304 0.930 . S
C310 C311 1.355 . S
C310 C312 1.415 . S
C311 C310 1.355 . S
C311 C313 1.419 . S
C312 C310 1.415 . S
C312 C317 1.425 . S
C312 C319 1.409 . S
C313 H305 0.930 . S
C313 C311 1.419 . S
C313 C314 1.362 . S
C314 H306 0.930 . S
C314 C313 1.362 . S
C314 C317 1.409 . S
C315 H307 0.930 . S
C315 C316 1.355 . S
C315 C317 1.415 . S
C316 C315 1.355 . S
C316 C318 1.419 . S
C317 C312 1.425 . S
C317 C314 1.409 . S
C317 C315 1.415 . S
C318 H308 0.930 . S
C318 C316 1.419 . S
C318 C319 1.362 . S
C319 H309 0.930 . S
C319 C312 1.409 . S
C319 C318 1.362 . S
H320 C326 0.930 . S
H321 C329 0.930 . S
H322 C330 0.930 . S
H323 C331 0.930 . S
H324 C334 0.930 . S
H325 C335 0.930 . S
C326 H320 0.930 . S
C326 C327 1.355 . S
C326 C328 1.415 . S
C327 C326 1.355 . S
C327 C329 1.419 . S
C328 C326 1.415 . S
C328 C333 1.425 . S
C328 C335 1.409 . S
C329 H321 0.930 . S
C329 C327 1.419 . S
C329 C330 1.362 . S
C330 H322 0.930 . S
C330 C329 1.362 . S
C330 C333 1.409 . S
C331 H323 0.930 . S
C331 C332 1.355 . S
C331 C333 1.415 . S
C332 C331 1.355 . S
C332 C334 1.419 . S
C333 C328 1.425 . S
C333 C330 1.409 . S
C333 C331 1.415 . S
C334 H324 0.930 . S
C334 C332 1.419 . S
C334 C335 1.362 . S
C335 H325 0.930 . S
C335 C328 1.409 . S
C335 C334 1.362 . S
H336 C342 0.930 . S
H337 C345 0.930 . S
H338 C346 0.930 . S
H339 C347 0.930 . S
H340 C350 0.930 . S
H341 C351 0.930 . S
C342 H336 0.930 . S
C342 C343 1.355 . S
C342 C344 1.415 . S
C343 C342 1.355 . S
C343 C345 1.419 . S
C344 C342 1.415 . S
C344 C349 1.425 . S
C344 C351 1.409 . S
C345 H337 0.930 . S
C345 C343 1.419 . S
C345 C346 1.362 . S
C346 H338 0.930 . S
C346 C345 1.362 . S
C346 C349 1.409 . S
C347 H339 0.930 . S
C347 C348 1.355 . S
C347 C349 1.415 . S
C348 C347 1.355 . S
C348 C350 1.419 . S
C349 C344 1.425 . S
C349 C346 1.409 . S
C349 C347 1.415 . S
C350 H340 0.930 . S
C350 C348 1.419 . S
C350 C351 1.362 . S
C351 H341 0.930 . S
C351 C344 1.409 . S
C351 C350 1.362 . S
H352 C358 0.930 . S
H353 C361 0.930 . S
H354 C362 0.930 . S
H355 C363 0.930 . S
H356 C366 0.930 . S
H357 C367 0.930 . S
C358 H352 0.930 . S
C358 C359 1.355 . S
C358 C360 1.415 . S
C359 C358 1.355 . S
C359 C361 1.419 . S
C360 C358 1.415 . S
C360 C365 1.425 . S
C360 C367 1.409 . S
C361 H353 0.930 . S
C361 C359 1.419 . S
C361 C362 1.362 . S
C362 H354 0.930 . S
C362 C361 1.362 . S
C362 C365 1.409 . S
C363 H355 0.930 . S
C363 C364 1.355 . S
C363 C365 1.415 . S
C364 C363 1.355 . S
C364 C366 1.419 . S
C365 C360 1.425 . S
C365 C362 1.409 . S
C365 C363 1.415 . S
C366 H356 0.930 . S
C366 C364 1.419 . S
C366 C367 1.362 . S
C367 H357 0.930 . S
C367 C360 1.409 . S
C367 C366 1.362 . S
H368 C374 0.930 . S
H369 C377 0.930 . S
H370 C378 0.930 . S
H371 C379 0.930 . S
H372 C382 0.930 . S
H373 C383 0.930 . S
C374 H368 0.930 . S
C374 C375 1.355 . S
C374 C376 1.415 . S
C375 C374 1.355 . S
C375 C377 1.419 . S
C376 C374 1.415 . S
C376 C381 1.425 . S
C376 C383 1.409 . S
C377 H369 0.930 . S
C377 C375 1.419 . S
C377 C378 1.362 . S
C378 H370 0.930 . S
C378 C377 1.362 . S
C378 C381 1.409 . S
C379 H371 0.930 . S
C379 C380 1.355 . S
C379 C381 1.415 . S
C380 C379 1.355 . S
C380 C382 1.419 . S
C381 C376 1.425 . S
C381 C378 1.409 . S
C381 C379 1.415 . S
C382 H372 0.930 . S
C382 C380 1.419 . S
C382 C383 1.362 . S
C383 H373 0.930 . S
C383 C376 1.409 . S
C383 C382 1.362 . S
H384 C390 0.930 . S
H385 C393 0.930 . S
H386 C394 0.930 . S
H387 C395 0.930 . S
H388 C398 0.930 . S
H389 C399 0.930 . S
C390 H384 0.930 . S
C390 C391 1.355 . S
C390 C392 1.415 . S
C391 C390 1.355 . S
C391 C393 1.419 . S
C392 C390 1.415 . S
C392 C397 1.425 . S
C392 C399 1.409 . S
C393 H385 0.930 . S
C393 C391 1.419 . S
C393 C394 1.362 . S
C394 H386 0.930 . S
C394 C393 1.362 . S
C394 C397 1.409 . S
C395 H387 0.930 . S
C395 C396 1.355 . S
C395 C397 1.415 . S
C396 C395 1.355 . S
C396 C398 1.419 . S
C397 C392 1.425 . S
C397 C394 1.409 . S
C397 C395 1.415 . S
C398 H388 0.930 . S
C398 C396 1.419 . S
C398 C399 1.362 . S
C399 H389 0.930 . S
C399 C392 1.409 . S
C399 C398 1.362 . S
H400 C406 0.930 . S
H401 C409 0.930 . S
H402 C410 0.930 . S
H403 C411 0.930 . S
H404 C414 0.930 . S
H405 C415 0.930 . S
C406 H400 0.930 . S
C406 C407 1.355 . S
C406 C408 1.415 . S
C407 C406 1.355 . S
C407 C409 1.419 . S
C408 C406 1.415 . S
C408 C413 1.425 1_455 S
C408 C415 1.409 1_455 S
C409 H401 0.930 . S
C409 C407 1.419 . S
C409 C410 1.362 . S
C410 H402 0.930 . S
C410 C409 1.362 . S
C410 C413 1.409 1_455 S
C411 H403 0.930 . S
C411 C412 1.355 . S
C411 C413 1.415 . S
C412 C411 1.355 . S
C412 C414 1.419 . S
C413 C408 1.425 1_655 S
C413 C410 1.409 1_655 S
C413 C411 1.415 . S
C414 H404 0.930 . S
C414 C412 1.419 . S
C414 C415 1.362 . S
C415 H405 0.930 . S
C415 C408 1.409 1_655 S
C415 C414 1.362 . S
H416 C422 0.930 . S
H417 C425 0.930 . S
H418 C426 0.930 . S
H419 C427 0.930 . S
H420 C430 0.930 . S
H421 C431 0.930 . S
C422 H416 0.930 . S
C422 C423 1.355 . S
C422 C424 1.415 . S
C423 C422 1.355 . S
C423 C425 1.419 . S
C424 C422 1.415 . S
C424 C429 1.425 . S
C424 C431 1.409 . S
C425 H417 0.930 . S
C425 C423 1.419 . S
C425 C426 1.362 . S
C426 H418 0.930 . S
C426 C425 1.362 . S
C426 C429 1.409 . S
C427 H419 0.930 . S
C427 C428 1.355 . S
C427 C429 1.415 . S
C428 C427 1.355 . S
C428 C430 1.419 . S
C429 C424 1.425 . S
C429 C426 1.409 . S
C429 C427 1.415 . S
C430 H420 0.930 . S
C430 C428 1.419 . S
C430 C431 1.362 . S
C431 H421 0.930 . S
C431 C424 1.409 . S
C431 C430 1.362 . S
H432 C438 0.930 . S
H433 C441 0.930 . S
H434 C442 0.930 . S
H435 C443 0.930 . S
H436 C446 0.930 . S
H437 C447 0.930 . S
C438 H432 0.930 . S
C438 C439 1.355 . S
C438 C440 1.415 . S
C439 C438 1.355 . S
C439 C441 1.419 . S
C440 C438 1.415 . S
C440 C445 1.425 . S
C440 C447 1.409 . S
C441 H433 0.930 . S
C441 C439 1.419 . S
C441 C442 1.362 . S
C442 H434 0.930 . S
C442 C441 1.362 . S
C442 C445 1.409 . S
C443 H435 0.930 . S
C443 C444 1.355 . S
C443 C445 1.415 . S
C444 C443 1.355 . S
C444 C446 1.419 . S
C445 C440 1.425 . S
C445 C442 1.409 . S
C445 C443 1.415 . S
C446 H436 0.930 . S
C446 C444 1.419 . S
C446 C447 1.362 . S
C447 H437 0.930 . S
C447 C440 1.409 . S
C447 C446 1.362 . S
H448 C454 0.930 . S
H449 C457 0.930 . S
H450 C458 0.930 . S
H451 C459 0.930 . S
H452 C462 0.930 . S
H453 C463 0.930 . S
C454 H448 0.930 . S
C454 C455 1.355 . S
C454 C456 1.415 . S
C455 C454 1.355 . S
C455 C457 1.419 . S
C456 C454 1.415 . S
C456 C461 1.425 1_455 S
C456 C463 1.409 1_455 S
C457 H449 0.930 . S
C457 C455 1.419 . S
C457 C458 1.362 . S
C458 H450 0.930 . S
C458 C457 1.362 . S
C458 C461 1.409 1_455 S
C459 H451 0.930 . S
C459 C460 1.355 . S
C459 C461 1.415 . S
C460 C459 1.355 . S
C460 C462 1.419 . S
C461 C456 1.425 1_655 S
C461 C458 1.409 1_655 S
C461 C459 1.415 . S
C462 H452 0.930 . S
C462 C460 1.419 . S
C462 C463 1.362 . S
C463 H453 0.930 . S
C463 C456 1.409 1_655 S
C463 C462 1.362 . S
H464 C470 0.930 . S
H465 C473 0.930 . S
H466 C474 0.930 . S
H467 C475 0.930 . S
H468 C478 0.930 . S
H469 C479 0.930 . S
C470 H464 0.930 . S
C470 C471 1.355 . S
C470 C472 1.415 . S
C471 C470 1.355 . S
C471 C473 1.419 . S
C472 C470 1.415 . S
C472 C477 1.425 1_554 S
C472 C479 1.409 1_554 S
C473 H465 0.930 . S
C473 C471 1.419 . S
C473 C474 1.362 . S
C474 H466 0.930 . S
C474 C473 1.362 . S
C474 C477 1.409 1_554 S
C475 H467 0.930 . S
C475 C476 1.355 . S
C475 C477 1.415 . S
C476 C475 1.355 . S
C476 C478 1.419 . S
C477 C472 1.425 1_556 S
C477 C474 1.409 1_556 S
C477 C475 1.415 . S
C478 H468 0.930 . S
C478 C476 1.419 . S
C478 C479 1.362 . S
C479 H469 0.930 . S
C479 C472 1.409 1_556 S
C479 C478 1.362 . S
H480 C486 0.930 . S
H481 C489 0.930 . S
H482 C490 0.930 . S
H483 C491 0.930 . S
H484 C494 0.930 . S
H485 C495 0.930 . S
C486 H480 0.930 . S
C486 C487 1.355 . S
C486 C488 1.415 . S
C487 C486 1.355 . S
C487 C489 1.419 . S
C488 C486 1.415 . S
C488 C493 1.425 . S
C488 C495 1.409 . S
C489 H481 0.930 . S
C489 C487 1.419 . S
C489 C490 1.362 . S
C490 H482 0.930 . S
C490 C489 1.362 . S
C490 C493 1.409 . S
C491 H483 0.930 . S
C491 C492 1.355 . S
C491 C493 1.415 . S
C492 C491 1.355 . S
C492 C494 1.419 . S
C493 C488 1.425 . S
C493 C490 1.409 . S
C493 C491 1.415 . S
C494 H484 0.930 . S
C494 C492 1.419 . S
C494 C495 1.362 . S
C495 H485 0.930 . S
C495 C488 1.409 . S
C495 C494 1.362 . S
H496 C502 0.930 . S
H497 C505 0.930 . S
H498 C506 0.930 . S
H499 C507 0.930 . S
H500 C510 0.930 . S
H501 C511 0.930 . S
C502 H496 0.930 . S
C502 C503 1.355 . S
C502 C504 1.415 . S
C503 C502 1.355 . S
C503 C505 1.419 . S
C504 C502 1.415 . S
C504 C509 1.425 . S
C504 C511 1.409 . S
C505 H497 0.930 . S
C505 C503 1.419 . S
C505 C506 1.362 . S
C506 H498 0.930 . S
C506 C505 1.362 . S
C506 C509 1.409 . S
C507 H499 0.930 . S
C507 C508 1.355 . S
C507 C509 1.415 . S
C508 C507 1.355 . S
C508 C510 1.419 . S
C509 C504 1.425 . S
C509 C506 1.409 . S
C509 C507 1.415 . S
C510 H500 0.930 . S
C510 C508 1.419 . S
C510 C511 1.362 . S
C511 H501 0.930 . S
C511 C504 1.409 . S
C511 C510 1.362 . S
H512 C518 0.930 . S
H513 C521 0.930 . S
H514 C522 0.930 . S
H515 C523 0.930 . S
H516 C526 0.930 . S
H517 C527 0.930 . S
C518 H512 0.930 . S
C518 C519 1.355 . S
C518 C520 1.415 . S
C519 C518 1.355 . S
C519 C521 1.419 . S
C520 C518 1.415 . S
C520 C525 1.425 . S
C520 C527 1.409 . S
C521 H513 0.930 . S
C521 C519 1.419 . S
C521 C522 1.362 . S
C522 H514 0.930 . S
C522 C521 1.362 . S
C522 C525 1.409 . S
C523 H515 0.930 . S
C523 C524 1.355 . S
C523 C525 1.415 . S
C524 C523 1.355 . S
C524 C526 1.419 . S
C525 C520 1.425 . S
C525 C522 1.409 . S
C525 C523 1.415 . S
C526 H516 0.930 . S
C526 C524 1.419 . S
C526 C527 1.362 . S
C527 H517 0.930 . S
C527 C520 1.409 . S
C527 C526 1.362 . S
H528 C534 0.930 . S
H529 C537 0.930 . S
H530 C538 0.930 . S
H531 C539 0.930 . S
H532 C542 0.930 . S
H533 C543 0.930 1_556 S
C534 H528 0.930 . S
C534 C535 1.355 . S
C534 C536 1.415 . S
C535 C534 1.355 . S
C535 C537 1.419 . S
C536 C534 1.415 . S
C536 C541 1.414 1_556 S
C536 C543 1.409 1_556 S
C537 H529 0.930 . S
C537 C535 1.419 . S
C537 C538 1.362 . S
C538 H530 0.930 . S
C538 C537 1.362 . S
C538 C541 1.396 1_556 S
C539 H531 0.930 . S
C539 C540 1.355 . S
C539 C541 1.440 . S
C540 C539 1.355 . S
C540 C542 1.419 . S
C541 C536 1.414 1_554 S
C541 C538 1.396 1_554 S
C541 C539 1.440 . S
C542 H532 0.930 . S
C542 C540 1.419 . S
C542 C543 1.362 . S
C543 H533 0.930 1_554 S
C543 C536 1.409 1_554 S
C543 C542 1.362 . S
H544 C550 0.930 . S
H545 C553 0.930 . S
H546 C554 0.930 . S
H547 C555 0.930 . S
H548 C558 0.930 . S
H549 C559 0.930 . S
C550 H544 0.930 . S
C550 C551 1.355 . S
C550 C552 1.415 . S
C551 C550 1.355 . S
C551 C553 1.419 . S
C552 C550 1.415 . S
C552 C557 1.425 . S
C552 C559 1.409 . S
C553 H545 0.930 . S
C553 C551 1.419 . S
C553 C554 1.362 . S
C554 H546 0.930 . S
C554 C553 1.362 . S
C554 C557 1.409 . S
C555 H547 0.930 . S
C555 C556 1.355 . S
C555 C557 1.415 . S
C556 C555 1.355 . S
C556 C558 1.419 . S
C557 C552 1.425 . S
C557 C554 1.409 . S
C557 C555 1.415 . S
C558 H548 0.930 . S
C558 C556 1.419 . S
C558 C559 1.362 . S
C559 H549 0.930 . S
C559 C552 1.409 . S
C559 C558 1.362 . S
H560 C566 0.930 . S
H561 C569 0.930 . S
H562 C570 0.930 . S
H563 C571 0.930 . S
H564 C574 0.930 . S
H565 C575 0.930 . S
C566 H560 0.930 . S
C566 C567 1.355 . S
C566 C568 1.415 . S
C567 C566 1.355 . S
C567 C569 1.419 . S
C568 C566 1.415 . S
C568 C573 1.425 . S
C568 C575 1.409 . S
C569 H561 0.930 . S
C569 C567 1.419 . S
C569 C570 1.362 . S
C570 H562 0.930 . S
C570 C569 1.362 . S
C570 C573 1.409 . S
C571 H563 0.930 . S
C571 C572 1.355 . S
C571 C573 1.415 . S
C572 C571 1.355 . S
C572 C574 1.419 . S
C573 C568 1.425 . S
C573 C570 1.409 . S
C573 C571 1.415 . S
C574 H564 0.930 . S
C574 C572 1.419 . S
C574 C575 1.362 . S
C575 H565 0.930 . S
C575 C568 1.409 . S
C575 C574 1.362 . S
H576 C582 0.930 . S
H577 C585 0.930 . S
H578 C586 0.930 . S
H579 C587 0.930 . S
H580 C590 0.930 . S
H581 C591 0.930 . S
C582 H576 0.930 . S
C582 C583 1.355 . S
C582 C584 1.415 . S
C583 C582 1.355 . S
C583 C585 1.419 . S
C584 C582 1.415 . S
C584 C589 1.425 . S
C584 C591 1.409 . S
C585 H577 0.930 . S
C585 C583 1.419 . S
C585 C586 1.362 . S
C586 H578 0.930 . S
C586 C585 1.362 . S
C586 C589 1.409 . S
C587 H579 0.930 . S
C587 C588 1.355 . S
C587 C589 1.415 . S
C588 C587 1.355 . S
C588 C590 1.419 . S
C589 C584 1.425 . S
C589 C586 1.409 . S
C589 C587 1.415 . S
C590 H580 0.930 . S
C590 C588 1.419 . S
C590 C591 1.362 . S
C591 H581 0.930 . S
C591 C584 1.409 . S
C591 C590 1.362 . S
H592 C598 0.930 . S
H593 C601 0.930 . S
H594 C602 0.930 . S
H595 C603 0.930 . S
H596 C606 0.930 . S
H597 C607 0.930 . S
C598 H592 0.930 . S
C598 C599 1.355 . S
C598 C600 1.415 1_545 S
C599 C598 1.355 . S
C599 C601 1.419 . S
C600 C598 1.415 1_565 S
C600 C605 1.425 . S
C600 C607 1.409 . S
C601 H593 0.930 . S
C601 C599 1.419 . S
C601 C602 1.362 . S
C602 H594 0.930 . S
C602 C601 1.362 . S
C602 C605 1.409 1_545 S
C603 H595 0.930 . S
C603 C604 1.355 . S
C603 C605 1.415 . S
C604 C603 1.355 . S
C604 C606 1.419 . S
C605 C600 1.425 . S
C605 C602 1.409 1_565 S
C605 C603 1.415 . S
C606 H596 0.930 . S
C606 C604 1.419 . S
C606 C607 1.362 . S
C607 H597 0.930 . S
C607 C600 1.409 . S
C607 C606 1.362 . S
H608 C614 0.930 . S
H609 C617 0.930 . S
H610 C618 0.930 . S
H611 C619 0.930 . S
H612 C622 0.930 . S
H613 C623 0.930 . S
C614 H608 0.930 . S
C614 C615 1.355 . S
C614 C616 1.415 . S
C615 C614 1.355 . S
C615 C617 1.419 . S
C616 C614 1.415 . S
C616 C621 1.425 . S
C616 C623 1.409 . S
C617 H609 0.930 . S
C617 C615 1.419 . S
C617 C618 1.362 . S
C618 H610 0.930 . S
C618 C617 1.362 . S
C618 C621 1.409 . S
C619 H611 0.930 . S
C619 C620 1.355 . S
C619 C621 1.415 . S
C620 C619 1.355 . S
C620 C622 1.419 . S
C621 C616 1.425 . S
C621 C618 1.409 . S
C621 C619 1.415 . S
C622 H612 0.930 . S
C622 C620 1.419 . S
C622 C623 1.362 . S
C623 H613 0.930 . S
C623 C616 1.409 . S
C623 C622 1.362 . S
H624 C630 0.930 1_565 S
H625 C633 0.930 . S
H626 C634 0.930 . S
H627 C635 0.930 1_545 S
H628 C638 0.930 . S
H629 C639 0.930 1_556 S
C630 H624 0.930 1_545 S
C630 C631 1.355 . S
C630 C632 1.415 1_545 S
C631 C630 1.355 . S
C631 C633 1.419 . S
C632 C630 1.415 1_565 S
C632 C637 1.425 1_566 S
C632 C639 1.409 1_556 S
C633 H625 0.930 . S
C633 C631 1.419 . S
C633 C634 1.362 1_556 S
C634 H626 0.930 . S
C634 C633 1.362 1_554 S
C634 C637 1.409 . S
C635 H627 0.930 1_565 S
C635 C636 1.355 . S
C635 C637 1.415 1_565 S
C636 C635 1.355 . S
C636 C638 1.419 . S
C637 C632 1.425 1_544 S
C637 C634 1.409 . S
C637 C635 1.415 1_545 S
C638 H628 0.930 . S
C638 C636 1.419 . S
C638 C639 1.362 . S
C639 H629 0.930 1_554 S
C639 C632 1.409 1_554 S
C639 C638 1.362 . S
H640 C646 0.930 . S
H641 C649 0.930 . S
H642 C650 0.930 . S
H643 C651 0.930 . S
H644 C654 0.930 . S
H645 C655 0.930 . S
C646 H640 0.930 . S
C646 C647 1.355 . S
C646 C648 1.415 . S
C647 C646 1.355 . S
C647 C649 1.419 . S
C648 C646 1.415 . S
C648 C653 1.425 . S
C648 C655 1.409 . S
C649 H641 0.930 . S
C649 C647 1.419 . S
C649 C650 1.362 . S
C650 H642 0.930 . S
C650 C649 1.362 . S
C650 C653 1.409 . S
C651 H643 0.930 . S
C651 C652 1.355 . S
C651 C653 1.415 . S
C652 C651 1.355 . S
C652 C654 1.419 . S
C653 C648 1.425 . S
C653 C650 1.409 . S
C653 C651 1.415 . S
C654 H644 0.930 . S
C654 C652 1.419 . S
C654 C655 1.362 . S
C655 H645 0.930 . S
C655 C648 1.409 . S
C655 C654 1.362 . S
H656 C662 0.930 . S
H657 C665 0.930 . S
H658 C666 0.930 . S
H659 C667 0.930 . S
H660 C670 0.930 . S
H661 C671 0.930 . S
C662 H656 0.930 . S
C662 C663 1.355 . S
C662 C664 1.415 1_545 S
C663 C662 1.355 . S
C663 C665 1.419 . S
C664 C662 1.415 1_565 S
C664 C669 1.425 1_565 S
C664 C671 1.409 . S
C665 H657 0.930 . S
C665 C663 1.419 . S
C665 C666 1.362 . S
C666 H658 0.930 . S
C666 C665 1.362 . S
C666 C669 1.409 . S
C667 H659 0.930 . S
C667 C668 1.355 . S
C667 C669 1.415 1_565 S
C668 C667 1.355 . S
C668 C670 1.419 . S
C669 C664 1.425 1_545 S
C669 C666 1.409 . S
C669 C667 1.415 1_545 S
C670 H660 0.930 . S
C670 C668 1.419 . S
C670 C671 1.362 . S
C671 H661 0.930 . S
C671 C664 1.409 . S
C671 C670 1.362 . S
H672 C678 0.930 . S
H673 C681 0.930 . S
H674 C682 0.930 . S
H675 C683 0.930 . S
H676 C686 0.930 . S
H677 C687 0.930 . S
C678 H672 0.930 . S
C678 C679 1.355 . S
C678 C680 1.415 . S
C679 C678 1.355 . S
C679 C681 1.419 . S
C680 C678 1.415 . S
C680 C685 1.425 . S
C680 C687 1.409 . S
C681 H673 0.930 . S
C681 C679 1.419 . S
C681 C682 1.362 . S
C682 H674 0.930 . S
C682 C681 1.362 . S
C682 C685 1.409 . S
C683 H675 0.930 . S
C683 C684 1.355 . S
C683 C685 1.415 . S
C684 C683 1.355 . S
C684 C686 1.419 . S
C685 C680 1.425 . S
C685 C682 1.409 . S
C685 C683 1.415 . S
C686 H676 0.930 . S
C686 C684 1.419 . S
C686 C687 1.362 . S
C687 H677 0.930 . S
C687 C680 1.409 . S
C687 C686 1.362 . S
H688 C694 0.930 . S
H689 C697 0.930 . S
H690 C698 0.944 . S
H691 C699 0.930 . S
H692 C702 0.930 . S
H693 C703 0.930 . S
C694 H688 0.930 . S
C694 C695 1.355 . S
C694 C696 1.415 1_564 S
C695 C694 1.355 . S
C695 C697 1.419 . S
C696 C694 1.415 1_546 S
C696 C701 1.425 . S
C696 C703 1.409 . S
C697 H689 0.930 . S
C697 C695 1.419 . S
C697 C698 1.332 1_554 S
C698 H690 0.944 . S
C698 C697 1.332 1_556 S
C698 C701 1.427 1_565 S
C699 H691 0.930 . S
C699 C700 1.355 . S
C699 C701 1.415 . S
C700 C699 1.355 . S
C700 C702 1.419 . S
C701 C696 1.425 . S
C701 C698 1.427 1_545 S
C701 C699 1.415 . S
C702 H692 0.930 . S
C702 C700 1.419 . S
C702 C703 1.362 . S
C703 H693 0.930 . S
C703 C696 1.409 . S
C703 C702 1.362 . S
H704 C710 0.930 . S
H705 C713 0.930 . S
H706 C714 0.930 . S
H707 C715 0.930 . S
H708 C718 0.930 . S
H709 C719 0.930 . S
C710 H704 0.930 . S
C710 C711 1.355 . S
C710 C712 1.415 . S
C711 C710 1.355 . S
C711 C713 1.419 . S
C712 C710 1.415 . S
C712 C717 1.425 . S
C712 C719 1.409 . S
C713 H705 0.930 . S
C713 C711 1.419 . S
C713 C714 1.362 . S
C714 H706 0.930 . S
C714 C713 1.362 . S
C714 C717 1.409 . S
C715 H707 0.930 . S
C715 C716 1.355 . S
C715 C717 1.415 . S
C716 C715 1.355 . S
C716 C718 1.419 . S
C717 C712 1.425 . S
C717 C714 1.409 . S
C717 C715 1.415 . S
C718 H708 0.930 . S
C718 C716 1.419 . S
C718 C719 1.362 . S
C719 H709 0.930 . S
C719 C712 1.409 . S
C719 C718 1.362 . S
C215 C148 1.404 . S
C220 C8 1.437 . S
C231 C200 1.330 . S
C236 C18 1.400 . S
C247 C31 1.351 . S
C252 C125 1.397 . S
C263 C174 1.379 . S
C268 C47 1.380 . S
C279 C60 1.428 . S
C284 C177 1.435 . S
C295 C70 1.359 . S
C300 C151 1.389 . S
C311 C83 1.331 . S
C316 C203 1.386 . S
C327 C96 1.311 . S
C332 C122 1.375 . S
C343 C44 1.410 . S
C348 C112 1.382 . S
C359 C138 1.458 . S
C364 C21 1.384 . S
C375 C164 1.387 . S
C380 C73 1.464 . S
C391 C187 1.473 . S
C396 C99 1.430 . S
C407 C57 1.430 . S
C412 C109 1.414 . S
C423 C135 1.329 . S
C428 C86 1.389 . S
C439 C190 1.424 . S
C444 C34 1.411 . S
C455 C5 1.353 . S
C460 C161 1.393 . S
C471 C10 1.220 . S
C476 C62 1.193 . S
C487 C13 1.224 . S
C492 C65 1.226 . S
C503 C26 1.173 . S
C508 C78 1.185 . S
C519 C91 1.198 . S
C524 C49 1.154 . S
C535 C114 1.171 . S
C540 C166 1.153 . S
C551 C169 1.161 . S
C556 C117 1.161 . S
C567 C140 1.330 . S
C572 C182 1.297 . S
C583 C195 1.204 . S
C588 C153 1.160 . S
C599 C101 1.137 . S
C604 C23 1.168 . S
C615 C36 1.282 . S
C620 C52 1.239 . S
C631 C39 1.254 . S
C636 C75 1.216 . S
C647 C0 1.160 . S
C652 C88 1.129 . S
C663 C127 1.138 . S
C668 C205 1.163 . S
C679 C156 1.214 . S
C684 C130 1.218 . S
C695 C143 1.223 . S
C700 C179 1.227 . S
C711 C192 1.198 . S
C716 C104 1.231 . S
