# Generated by pormake.
# Topology twf-e, (6)-cn, num edge types: 1
# Building blocks:
#     Node 0, Type 0, BuildingBlock: KUMBOL_clean_sbu_1, # of connection points: 6
#     Node 1, Type 0, BuildingBlock: KUMBOL_clean_sbu_1, # of connection points: 6
#     Node 2, Type 0, BuildingBlock: KUMBOL_clean_sbu_1, # of connection points: 6
#     Node 3, Type 0, BuildingBlock: KUMBOL_clean_sbu_1, # of connection points: 6
#     Node 4, Type 0, BuildingBlock: KUMBOL_clean_sbu_1, # of connection points: 6
#     Node 5, Type 0, BuildingBlock: KUMBOL_clean_sbu_1, # of connection points: 6
#     Node 6, Type 0, BuildingBlock: KUMBOL_clean_sbu_1, # of connection points: 6
#     Node 7, Type 0, BuildingBlock: KUMBOL_clean_sbu_1, # of connection points: 6
#     Node 8, Type 0, BuildingBlock: KUMBOL_clean_sbu_1, # of connection points: 6
#     Node 9, Type 0, BuildingBlock: KUMBOL_clean_sbu_1, # of connection points: 6
#     Node 10, Type 0, BuildingBlock: KUMBOL_clean_sbu_1, # of connection points: 6
#     Node 11, Type 0, BuildingBlock: KUMBOL_clean_sbu_1, # of connection points: 6
#     Node 12, Type 0, BuildingBlock: KUMBOL_clean_sbu_1, # of connection points: 6
#     Node 13, Type 0, BuildingBlock: KUMBOL_clean_sbu_1, # of connection points: 6
#     Node 14, Type 0, BuildingBlock: KUMBOL_clean_sbu_1, # of connection points: 6
#     Node 15, Type 0, BuildingBlock: KUMBOL_clean_sbu_1, # of connection points: 6
#     Node 16, Type 0, BuildingBlock: KUMBOL_clean_sbu_1, # of connection points: 6
#     Node 17, Type 0, BuildingBlock: KUMBOL_clean_sbu_1, # of connection points: 6
#     Node 18, Type 0, BuildingBlock: KUMBOL_clean_sbu_1, # of connection points: 6
#     Node 19, Type 0, BuildingBlock: KUMBOL_clean_sbu_1, # of connection points: 6
#     Node 20, Type 0, BuildingBlock: KUMBOL_clean_sbu_1, # of connection points: 6
#     Node 21, Type 0, BuildingBlock: KUMBOL_clean_sbu_1, # of connection points: 6
#     Node 22, Type 0, BuildingBlock: KUMBOL_clean_sbu_1, # of connection points: 6
#     Node 23, Type 0, BuildingBlock: KUMBOL_clean_sbu_1, # of connection points: 6
#     Node 24, Type 0, BuildingBlock: KUMBOL_clean_sbu_1, # of connection points: 6
#     Node 25, Type 0, BuildingBlock: KUMBOL_clean_sbu_1, # of connection points: 6
#     Node 26, Type 0, BuildingBlock: KUMBOL_clean_sbu_1, # of connection points: 6
#     Node 27, Type 0, BuildingBlock: KUMBOL_clean_sbu_1, # of connection points: 6
#     Node 28, Type 0, BuildingBlock: KUMBOL_clean_sbu_1, # of connection points: 6
#     Node 29, Type 0, BuildingBlock: KUMBOL_clean_sbu_1, # of connection points: 6
#     Node 30, Type 0, BuildingBlock: KUMBOL_clean_sbu_1, # of connection points: 6
#     Node 31, Type 0, BuildingBlock: KUMBOL_clean_sbu_1, # of connection points: 6
#     Node 32, Type 0, BuildingBlock: KUMBOL_clean_sbu_1, # of connection points: 6
#     Node 33, Type 0, BuildingBlock: KUMBOL_clean_sbu_1, # of connection points: 6
#     Node 34, Type 0, BuildingBlock: KUMBOL_clean_sbu_1, # of connection points: 6
#     Node 35, Type 0, BuildingBlock: KUMBOL_clean_sbu_1, # of connection points: 6
#     Node 36, Type 0, BuildingBlock: KUMBOL_clean_sbu_1, # of connection points: 6
#     Node 37, Type 0, BuildingBlock: KUMBOL_clean_sbu_1, # of connection points: 6
#     Node 38, Type 0, BuildingBlock: KUMBOL_clean_sbu_1, # of connection points: 6
#     Node 39, Type 0, BuildingBlock: KUMBOL_clean_sbu_1, # of connection points: 6
#     Node 40, Type 0, BuildingBlock: KUMBOL_clean_sbu_1, # of connection points: 6
#     Node 41, Type 0, BuildingBlock: KUMBOL_clean_sbu_1, # of connection points: 6
#     Node 42, Type 0, BuildingBlock: KUMBOL_clean_sbu_1, # of connection points: 6
#     Node 43, Type 0, BuildingBlock: KUMBOL_clean_sbu_1, # of connection points: 6
#     Node 44, Type 0, BuildingBlock: KUMBOL_clean_sbu_1, # of connection points: 6
#     Node 45, Type 0, BuildingBlock: KUMBOL_clean_sbu_1, # of connection points: 6
#     Node 46, Type 0, BuildingBlock: KUMBOL_clean_sbu_1, # of connection points: 6
#     Node 47, Type 0, BuildingBlock: KUMBOL_clean_sbu_1, # of connection points: 6
#     Edge 48, Type (0, 0), BuildingBlock: UVAHIK_clean_linker_0, # of connection points: 2
#     Edge 49, Type (0, 0), BuildingBlock: UVAHIK_clean_linker_0, # of connection points: 2
#     Edge 50, Type (0, 0), BuildingBlock: UVAHIK_clean_linker_0, # of connection points: 2
#     Edge 51, Type (0, 0), BuildingBlock: UVAHIK_clean_linker_0, # of connection points: 2
#     Edge 52, Type (0, 0), BuildingBlock: UVAHIK_clean_linker_0, # of connection points: 2
#     Edge 53, Type (0, 0), BuildingBlock: UVAHIK_clean_linker_0, # of connection points: 2
#     Edge 54, Type (0, 0), BuildingBlock: UVAHIK_clean_linker_0, # of connection points: 2
#     Edge 55, Type (0, 0), BuildingBlock: UVAHIK_clean_linker_0, # of connection points: 2
#     Edge 56, Type (0, 0), BuildingBlock: UVAHIK_clean_linker_0, # of connection points: 2
#     Edge 57, Type (0, 0), BuildingBlock: UVAHIK_clean_linker_0, # of connection points: 2
#     Edge 58, Type (0, 0), BuildingBlock: UVAHIK_clean_linker_0, # of connection points: 2
#     Edge 59, Type (0, 0), BuildingBlock: UVAHIK_clean_linker_0, # of connection points: 2
#     Edge 60, Type (0, 0), BuildingBlock: UVAHIK_clean_linker_0, # of connection points: 2
#     Edge 61, Type (0, 0), BuildingBlock: UVAHIK_clean_linker_0, # of connection points: 2
#     Edge 62, Type (0, 0), BuildingBlock: UVAHIK_clean_linker_0, # of connection points: 2
#     Edge 63, Type (0, 0), BuildingBlock: UVAHIK_clean_linker_0, # of connection points: 2
#     Edge 64, Type (0, 0), BuildingBlock: UVAHIK_clean_linker_0, # of connection points: 2
#     Edge 65, Type (0, 0), BuildingBlock: UVAHIK_clean_linker_0, # of connection points: 2
#     Edge 66, Type (0, 0), BuildingBlock: UVAHIK_clean_linker_0, # of connection points: 2
#     Edge 67, Type (0, 0), BuildingBlock: UVAHIK_clean_linker_0, # of connection points: 2
#     Edge 68, Type (0, 0), BuildingBlock: UVAHIK_clean_linker_0, # of connection points: 2
#     Edge 69, Type (0, 0), BuildingBlock: UVAHIK_clean_linker_0, # of connection points: 2
#     Edge 70, Type (0, 0), BuildingBlock: UVAHIK_clean_linker_0, # of connection points: 2
#     Edge 71, Type (0, 0), BuildingBlock: UVAHIK_clean_linker_0, # of connection points: 2
#     Edge 72, Type (0, 0), BuildingBlock: UVAHIK_clean_linker_0, # of connection points: 2
#     Edge 73, Type (0, 0), BuildingBlock: UVAHIK_clean_linker_0, # of connection points: 2
#     Edge 74, Type (0, 0), BuildingBlock: UVAHIK_clean_linker_0, # of connection points: 2
#     Edge 75, Type (0, 0), BuildingBlock: UVAHIK_clean_linker_0, # of connection points: 2
#     Edge 76, Type (0, 0), BuildingBlock: UVAHIK_clean_linker_0, # of connection points: 2
#     Edge 77, Type (0, 0), BuildingBlock: UVAHIK_clean_linker_0, # of connection points: 2
#     Edge 78, Type (0, 0), BuildingBlock: UVAHIK_clean_linker_0, # of connection points: 2
#     Edge 79, Type (0, 0), BuildingBlock: UVAHIK_clean_linker_0, # of connection points: 2
#     Edge 80, Type (0, 0), BuildingBlock: UVAHIK_clean_linker_0, # of connection points: 2
#     Edge 81, Type (0, 0), BuildingBlock: UVAHIK_clean_linker_0, # of connection points: 2
#     Edge 82, Type (0, 0), BuildingBlock: UVAHIK_clean_linker_0, # of connection points: 2
#     Edge 83, Type (0, 0), BuildingBlock: UVAHIK_clean_linker_0, # of connection points: 2
#     Edge 84, Type (0, 0), BuildingBlock: UVAHIK_clean_linker_0, # of connection points: 2
#     Edge 85, Type (0, 0), BuildingBlock: UVAHIK_clean_linker_0, # of connection points: 2
#     Edge 86, Type (0, 0), BuildingBlock: UVAHIK_clean_linker_0, # of connection points: 2
#     Edge 87, Type (0, 0), BuildingBlock: UVAHIK_clean_linker_0, # of connection points: 2
#     Edge 88, Type (0, 0), BuildingBlock: UVAHIK_clean_linker_0, # of connection points: 2
#     Edge 89, Type (0, 0), BuildingBlock: UVAHIK_clean_linker_0, # of connection points: 2
#     Edge 90, Type (0, 0), BuildingBlock: UVAHIK_clean_linker_0, # of connection points: 2
#     Edge 91, Type (0, 0), BuildingBlock: UVAHIK_clean_linker_0, # of connection points: 2
#     Edge 92, Type (0, 0), BuildingBlock: UVAHIK_clean_linker_0, # of connection points: 2
#     Edge 93, Type (0, 0), BuildingBlock: UVAHIK_clean_linker_0, # of connection points: 2
#     Edge 94, Type (0, 0), BuildingBlock: UVAHIK_clean_linker_0, # of connection points: 2
#     Edge 95, Type (0, 0), BuildingBlock: UVAHIK_clean_linker_0, # of connection points: 2
#     Edge 96, Type (0, 0), BuildingBlock: UVAHIK_clean_linker_0, # of connection points: 2
#     Edge 97, Type (0, 0), BuildingBlock: UVAHIK_clean_linker_0, # of connection points: 2
#     Edge 98, Type (0, 0), BuildingBlock: UVAHIK_clean_linker_0, # of connection points: 2
#     Edge 99, Type (0, 0), BuildingBlock: UVAHIK_clean_linker_0, # of connection points: 2
#     Edge 100, Type (0, 0), BuildingBlock: UVAHIK_clean_linker_0, # of connection points: 2
#     Edge 101, Type (0, 0), BuildingBlock: UVAHIK_clean_linker_0, # of connection points: 2
#     Edge 102, Type (0, 0), BuildingBlock: UVAHIK_clean_linker_0, # of connection points: 2
#     Edge 103, Type (0, 0), BuildingBlock: UVAHIK_clean_linker_0, # of connection points: 2
#     Edge 104, Type (0, 0), BuildingBlock: UVAHIK_clean_linker_0, # of connection points: 2
#     Edge 105, Type (0, 0), BuildingBlock: UVAHIK_clean_linker_0, # of connection points: 2
#     Edge 106, Type (0, 0), BuildingBlock: UVAHIK_clean_linker_0, # of connection points: 2
#     Edge 107, Type (0, 0), BuildingBlock: UVAHIK_clean_linker_0, # of connection points: 2
#     Edge 108, Type (0, 0), BuildingBlock: UVAHIK_clean_linker_0, # of connection points: 2
#     Edge 109, Type (0, 0), BuildingBlock: UVAHIK_clean_linker_0, # of connection points: 2
#     Edge 110, Type (0, 0), BuildingBlock: UVAHIK_clean_linker_0, # of connection points: 2
#     Edge 111, Type (0, 0), BuildingBlock: UVAHIK_clean_linker_0, # of connection points: 2
#     Edge 112, Type (0, 0), BuildingBlock: UVAHIK_clean_linker_0, # of connection points: 2
#     Edge 113, Type (0, 0), BuildingBlock: UVAHIK_clean_linker_0, # of connection points: 2
#     Edge 114, Type (0, 0), BuildingBlock: UVAHIK_clean_linker_0, # of connection points: 2
#     Edge 115, Type (0, 0), BuildingBlock: UVAHIK_clean_linker_0, # of connection points: 2
#     Edge 116, Type (0, 0), BuildingBlock: UVAHIK_clean_linker_0, # of connection points: 2
#     Edge 117, Type (0, 0), BuildingBlock: UVAHIK_clean_linker_0, # of connection points: 2
#     Edge 118, Type (0, 0), BuildingBlock: UVAHIK_clean_linker_0, # of connection points: 2
#     Edge 119, Type (0, 0), BuildingBlock: UVAHIK_clean_linker_0, # of connection points: 2
#     Edge 120, Type (0, 0), BuildingBlock: UVAHIK_clean_linker_0, # of connection points: 2
#     Edge 121, Type (0, 0), BuildingBlock: UVAHIK_clean_linker_0, # of connection points: 2
#     Edge 122, Type (0, 0), BuildingBlock: UVAHIK_clean_linker_0, # of connection points: 2
#     Edge 123, Type (0, 0), BuildingBlock: UVAHIK_clean_linker_0, # of connection points: 2
#     Edge 124, Type (0, 0), BuildingBlock: UVAHIK_clean_linker_0, # of connection points: 2
#     Edge 125, Type (0, 0), BuildingBlock: UVAHIK_clean_linker_0, # of connection points: 2
#     Edge 126, Type (0, 0), BuildingBlock: UVAHIK_clean_linker_0, # of connection points: 2
#     Edge 127, Type (0, 0), BuildingBlock: UVAHIK_clean_linker_0, # of connection points: 2
#     Edge 128, Type (0, 0), BuildingBlock: UVAHIK_clean_linker_0, # of connection points: 2
#     Edge 129, Type (0, 0), BuildingBlock: UVAHIK_clean_linker_0, # of connection points: 2
#     Edge 130, Type (0, 0), BuildingBlock: UVAHIK_clean_linker_0, # of connection points: 2
#     Edge 131, Type (0, 0), BuildingBlock: UVAHIK_clean_linker_0, # of connection points: 2
#     Edge 132, Type (0, 0), BuildingBlock: UVAHIK_clean_linker_0, # of connection points: 2
#     Edge 133, Type (0, 0), BuildingBlock: UVAHIK_clean_linker_0, # of connection points: 2
#     Edge 134, Type (0, 0), BuildingBlock: UVAHIK_clean_linker_0, # of connection points: 2
#     Edge 135, Type (0, 0), BuildingBlock: UVAHIK_clean_linker_0, # of connection points: 2
#     Edge 136, Type (0, 0), BuildingBlock: UVAHIK_clean_linker_0, # of connection points: 2
#     Edge 137, Type (0, 0), BuildingBlock: UVAHIK_clean_linker_0, # of connection points: 2
#     Edge 138, Type (0, 0), BuildingBlock: UVAHIK_clean_linker_0, # of connection points: 2
#     Edge 139, Type (0, 0), BuildingBlock: UVAHIK_clean_linker_0, # of connection points: 2
#     Edge 140, Type (0, 0), BuildingBlock: UVAHIK_clean_linker_0, # of connection points: 2
#     Edge 141, Type (0, 0), BuildingBlock: UVAHIK_clean_linker_0, # of connection points: 2
#     Edge 142, Type (0, 0), BuildingBlock: UVAHIK_clean_linker_0, # of connection points: 2
#     Edge 143, Type (0, 0), BuildingBlock: UVAHIK_clean_linker_0, # of connection points: 2
#     Edge 144, Type (0, 0), BuildingBlock: UVAHIK_clean_linker_0, # of connection points: 2
#     Edge 145, Type (0, 0), BuildingBlock: UVAHIK_clean_linker_0, # of connection points: 2
#     Edge 146, Type (0, 0), BuildingBlock: UVAHIK_clean_linker_0, # of connection points: 2
#     Edge 147, Type (0, 0), BuildingBlock: UVAHIK_clean_linker_0, # of connection points: 2
#     Edge 148, Type (0, 0), BuildingBlock: UVAHIK_clean_linker_0, # of connection points: 2
#     Edge 149, Type (0, 0), BuildingBlock: UVAHIK_clean_linker_0, # of connection points: 2
#     Edge 150, Type (0, 0), BuildingBlock: UVAHIK_clean_linker_0, # of connection points: 2
#     Edge 151, Type (0, 0), BuildingBlock: UVAHIK_clean_linker_0, # of connection points: 2
#     Edge 152, Type (0, 0), BuildingBlock: UVAHIK_clean_linker_0, # of connection points: 2
#     Edge 153, Type (0, 0), BuildingBlock: UVAHIK_clean_linker_0, # of connection points: 2
#     Edge 154, Type (0, 0), BuildingBlock: UVAHIK_clean_linker_0, # of connection points: 2
#     Edge 155, Type (0, 0), BuildingBlock: UVAHIK_clean_linker_0, # of connection points: 2
#     Edge 156, Type (0, 0), BuildingBlock: UVAHIK_clean_linker_0, # of connection points: 2
#     Edge 157, Type (0, 0), BuildingBlock: UVAHIK_clean_linker_0, # of connection points: 2
#     Edge 158, Type (0, 0), BuildingBlock: UVAHIK_clean_linker_0, # of connection points: 2
#     Edge 159, Type (0, 0), BuildingBlock: UVAHIK_clean_linker_0, # of connection points: 2
#     Edge 160, Type (0, 0), BuildingBlock: UVAHIK_clean_linker_0, # of connection points: 2
#     Edge 161, Type (0, 0), BuildingBlock: UVAHIK_clean_linker_0, # of connection points: 2
#     Edge 162, Type (0, 0), BuildingBlock: UVAHIK_clean_linker_0, # of connection points: 2
#     Edge 163, Type (0, 0), BuildingBlock: UVAHIK_clean_linker_0, # of connection points: 2
#     Edge 164, Type (0, 0), BuildingBlock: UVAHIK_clean_linker_0, # of connection points: 2
#     Edge 165, Type (0, 0), BuildingBlock: UVAHIK_clean_linker_0, # of connection points: 2
#     Edge 166, Type (0, 0), BuildingBlock: UVAHIK_clean_linker_0, # of connection points: 2
#     Edge 167, Type (0, 0), BuildingBlock: UVAHIK_clean_linker_0, # of connection points: 2
#     Edge 168, Type (0, 0), BuildingBlock: UVAHIK_clean_linker_0, # of connection points: 2
#     Edge 169, Type (0, 0), BuildingBlock: UVAHIK_clean_linker_0, # of connection points: 2
#     Edge 170, Type (0, 0), BuildingBlock: UVAHIK_clean_linker_0, # of connection points: 2
#     Edge 171, Type (0, 0), BuildingBlock: UVAHIK_clean_linker_0, # of connection points: 2
#     Edge 172, Type (0, 0), BuildingBlock: UVAHIK_clean_linker_0, # of connection points: 2
#     Edge 173, Type (0, 0), BuildingBlock: UVAHIK_clean_linker_0, # of connection points: 2
#     Edge 174, Type (0, 0), BuildingBlock: UVAHIK_clean_linker_0, # of connection points: 2
#     Edge 175, Type (0, 0), BuildingBlock: UVAHIK_clean_linker_0, # of connection points: 2
#     Edge 176, Type (0, 0), BuildingBlock: UVAHIK_clean_linker_0, # of connection points: 2
#     Edge 177, Type (0, 0), BuildingBlock: UVAHIK_clean_linker_0, # of connection points: 2
#     Edge 178, Type (0, 0), BuildingBlock: UVAHIK_clean_linker_0, # of connection points: 2
#     Edge 179, Type (0, 0), BuildingBlock: UVAHIK_clean_linker_0, # of connection points: 2
#     Edge 180, Type (0, 0), BuildingBlock: UVAHIK_clean_linker_0, # of connection points: 2
#     Edge 181, Type (0, 0), BuildingBlock: UVAHIK_clean_linker_0, # of connection points: 2
#     Edge 182, Type (0, 0), BuildingBlock: UVAHIK_clean_linker_0, # of connection points: 2
#     Edge 183, Type (0, 0), BuildingBlock: UVAHIK_clean_linker_0, # of connection points: 2
#     Edge 184, Type (0, 0), BuildingBlock: UVAHIK_clean_linker_0, # of connection points: 2
#     Edge 185, Type (0, 0), BuildingBlock: UVAHIK_clean_linker_0, # of connection points: 2
#     Edge 186, Type (0, 0), BuildingBlock: UVAHIK_clean_linker_0, # of connection points: 2
#     Edge 187, Type (0, 0), BuildingBlock: UVAHIK_clean_linker_0, # of connection points: 2
#     Edge 188, Type (0, 0), BuildingBlock: UVAHIK_clean_linker_0, # of connection points: 2
#     Edge 189, Type (0, 0), BuildingBlock: UVAHIK_clean_linker_0, # of connection points: 2
#     Edge 190, Type (0, 0), BuildingBlock: UVAHIK_clean_linker_0, # of connection points: 2
#     Edge 191, Type (0, 0), BuildingBlock: UVAHIK_clean_linker_0, # of connection points: 2
# Relax obj value: 0.718
# Max RMSD: 0.287
# Mean RMSD: 0.254
data_MOF--net-twf-e--node1-KUMBOL_clean_sbu_1--edge1-UVAHIK_clean_linker_0
_symmetry_space_group_name_H-M    P1
_symmetry_Int_Tables_number       1
_symmetry_cell_setting            triclinic
loop_
_symmetry_equiv_pos_as_xyz
'x, y, z'
_cell_length_a     83.520438
_cell_length_b     83.697363
_cell_length_c     83.756667
_cell_angle_alpha  93.177315
_cell_angle_beta   89.692039
_cell_angle_gamma 93.954599
loop_
_atom_site_label
_atom_site_type_symbol
_atom_site_fract_x
_atom_site_fract_y
_atom_site_fract_z
_atom_type_partial_charge
C0 C 1.00846 0.23514 0.4126 0.0
C1 C 0.99871 0.22158 0.43589 0.0
C2 C 1.00898 0.23336 0.4289 0.0
C3 C 0.98821 0.21147 0.4262 0.0
C4 C 0.99758 0.22535 0.40285 0.0
C5 C 0.98758 0.21341 0.40972 0.0
N6 N 0.01883 0.24626 0.40623 0.0
C7 C 0.01809 0.24902 0.39029 0.0
C8 C 0.99728 0.22767 0.38645 0.0
C9 C 1.00747 0.23967 0.38018 0.0
Gd10 Gd 0.08021 0.24667 0.41523 0.0
Gd11 Gd 0.03693 0.26104 0.42403 0.0
N12 N 0.01935 0.24328 0.43793 0.0
C13 C 0.99916 0.22044 0.45247 0.0
C14 C 0.01894 0.24293 0.4542 0.0
C15 C 1.00912 0.23136 0.46168 0.0
H16 H 0.02589 0.25175 0.46155 0.0
H17 H 1.0091 0.23099 0.47458 0.0
H18 H 0.10111 0.27336 0.39417 0.0
H19 H 0.02585 0.25821 0.38519 0.0
H20 H 0.12945 0.28163 0.38899 0.0
H21 H 0.99153 0.21152 0.45829 0.0
H22 H 0.9804 0.20223 0.43135 0.0
H23 H 0.08072 0.21767 0.44119 0.0
H24 H 0.98918 0.22033 0.37856 0.0
H25 H 1.00721 0.24169 0.36753 0.0
H26 H 0.15863 0.25192 0.42507 0.0
H27 H 0.97935 0.2056 0.4024 0.0
H28 H 0.12877 0.21553 0.45788 0.0
H29 H 0.10019 0.20563 0.45812 0.0
N30 N 0.09768 0.23555 0.43293 0.0
C31 C 0.11338 0.2409 0.43237 0.0
C32 C 0.09302 0.22257 0.44151 0.0
C33 C 0.12015 0.22128 0.4509 0.0
C34 C 0.10405 0.21562 0.45102 0.0
C35 C 0.12509 0.23367 0.44106 0.0
H36 H 0.15058 0.23272 0.44526 0.0
N37 N 0.10632 0.25859 0.41308 0.0
C38 C 0.1179 0.25255 0.42183 0.0
C39 C 0.13843 0.26704 0.40688 0.0
C40 C 0.13428 0.25653 0.41889 0.0
C41 C 0.11029 0.269 0.40148 0.0
C42 C 0.12637 0.2735 0.39831 0.0
O43 O 0.04251 0.23911 0.40902 0.0
O44 O 0.06041 0.22936 0.42455 0.0
O45 O 0.07187 0.22947 0.39589 0.0
O46 O 0.09716 0.23328 0.40093 0.0
O47 O 0.05057 0.25714 0.44843 0.0
O48 O 0.07653 0.24928 0.44338 0.0
O49 O 0.07905 0.27339 0.41623 0.0
O50 O 0.05864 0.275 0.43414 0.0
O51 O 0.01933 0.27486 0.43687 0.0
O52 O 0.02766 0.28155 0.41359 0.0
O53 O 0.07195 0.26374 0.39511 0.0
O54 O 0.04657 0.27219 0.40117 0.0
C55 C 0.0469 0.22709 0.41674 0.0
C56 C 0.06481 0.25282 0.45384 0.0
C57 C 0.08809 0.20679 0.39261 0.0
C58 C 0.10469 0.18377 0.38748 0.0
C59 C 0.07725 0.17975 0.39724 0.0
C60 C 0.07543 0.19616 0.39729 0.0
C61 C 0.0917 0.1736 0.39244 0.0
C62 C 0.1028 0.2005 0.38772 0.0
C63 C 0.08614 0.22439 0.39318 0.0
C64 C 0.14598 0.24926 0.42739 0.0
C65 C 0.1414 0.23823 0.43881 0.0
H66 H 0.15089 0.27027 0.40417 0.0
C67 C 0.06979 0.28194 0.42546 0.0
C68 C 0.05925 0.27211 0.3916 0.0
C69 C 0.02711 0.3023 0.43313 0.0
C70 C 0.04 0.31887 0.45494 0.0
C71 C 0.03925 0.32887 0.42833 0.0
C72 C 0.03096 0.3146 0.42269 0.0
C73 C 0.04374 0.33107 0.44442 0.0
C74 C 0.0316 0.30463 0.44919 0.0
C75 C 0.02088 0.28627 0.42683 0.0
H76 H 0.0674 0.17174 0.40105 0.0
H77 H 0.06411 0.20049 0.40111 0.0
H78 H 0.09275 0.16081 0.3929 0.0
H79 H 0.11265 0.20857 0.38402 0.0
H80 H 0.04226 0.33823 0.4202 0.0
H81 H 0.02796 0.31298 0.41011 0.0
H82 H 0.04999 0.34225 0.44866 0.0
H83 H 0.02847 0.2953 0.45736 0.0
C84 C 0.86483 0.98117 0.40738 0.0
C85 C 0.87498 0.96449 0.42728 0.0
C86 C 0.86656 0.97777 0.4233 0.0
C87 C 0.88136 0.9546 0.4151 0.0
C88 C 0.87119 0.97122 0.39511 0.0
C89 C 0.87938 0.95789 0.39906 0.0
N90 N 0.8577 0.99471 0.40395 0.0
C91 C 0.85565 0.99836 0.38838 0.0
C92 C 0.86951 0.97518 0.37922 0.0
C93 C 0.86164 0.98876 0.37586 0.0
Gd94 Gd 0.87245 0.05072 0.42761 0.0
Gd95 Gd 0.84742 1.00963 0.42598 0.0
N96 N 0.86032 0.9876 0.43488 0.0
C97 C 0.87689 0.9616 0.4434 0.0
C98 C 0.86138 0.98423 0.45057 0.0
C99 C 0.87005 0.97151 0.45509 0.0
H100 H 0.85522 0.99102 0.45964 0.0
H101 H 0.8712 0.96913 0.46758 0.0
H102 H 0.85161 0.07753 0.4101 0.0
H103 H 0.84962 1.00874 0.38545 0.0
H104 H 0.84206 0.10446 0.41639 0.0
H105 H 0.88342 0.95164 0.44695 0.0
H106 H 0.88791 0.9444 0.41796 0.0
H107 H 0.90276 0.04711 0.4528 0.0
H108 H 0.87428 0.96786 0.36948 0.0
H109 H 0.86021 0.99188 0.3636 0.0
H110 H 0.86524 0.12024 0.4677 0.0
H111 H 0.88445 0.9502 0.3898 0.0
H112 H 0.90387 0.08657 0.48773 0.0
H113 H 0.91465 0.06129 0.4771 0.0
N114 N 0.88494 0.06376 0.45034 0.0
C115 C 0.87948 0.07805 0.45545 0.0
C116 C 0.89791 0.05806 0.45748 0.0
C117 C 0.89851 0.08031 0.4772 0.0
C118 C 0.90466 0.06606 0.47121 0.0
C119 C 0.88601 0.08669 0.4691 0.0
H120 H 0.88513 0.10845 0.48428 0.0
N121 N 0.86352 0.07657 0.43236 0.0
C122 C 0.86832 0.08466 0.44616 0.0
C123 C 0.85342 0.10712 0.43952 0.0
C124 C 0.86334 0.10013 0.45019 0.0
C125 C 0.8547 0.08371 0.42144 0.0
C126 C 0.84932 0.09898 0.42494 0.0
O127 O 0.87236 1.01295 0.41469 0.0
O128 O 0.88587 0.02831 0.43321 0.0
O129 O 0.89003 0.04641 0.4087 0.0
O130 O 0.88839 0.07033 0.41944 0.0
O131 O 0.85388 0.01785 0.45301 0.0
O132 O 0.86844 0.04272 0.45421 0.0
O133 O 0.84593 0.05108 0.42694 0.0
O134 O 0.83777 0.02975 0.4413 0.0
O135 O 0.83076 0.99067 0.43418 0.0
O136 O 0.82472 1.0039 0.41389 0.0
O137 O 0.8541 0.04774 0.40483 0.0
O138 O 0.83756 0.02442 0.40627 0.0
C139 C 0.88515 1.01523 0.42375 0.0
C140 C 0.86157 0.03014 0.46163 0.0
C141 C 0.91439 0.06388 0.4107 0.0
C142 C 0.93935 0.08169 0.40949 0.0
C143 C 0.94047 0.05305 0.41314 0.0
C144 C 0.92378 0.05086 0.41272 0.0
C145 C 0.94816 0.06821 0.41153 0.0
C146 C 0.92229 0.07942 0.40924 0.0
C147 C 0.89649 0.06119 0.40985 0.0
C148 C 0.86905 0.1084 0.4643 0.0
C149 C 0.88037 0.10169 0.47374 0.0
H150 H 0.84935 0.119 0.44215 0.0
C151 C 0.83659 0.04461 0.43763 0.0
C152 C 0.84165 0.03775 0.39894 0.0
C153 C 0.80376 0.99744 0.43142 0.0
C154 C 0.78746 1.00516 0.45448 0.0
C155 C 0.77519 1.00029 0.42833 0.0
C156 C 0.79006 0.99681 0.4217 0.0
C157 C 0.7738 1.00419 0.44473 0.0
C158 C 0.80241 1.00202 0.44767 0.0
C159 C 0.81947 0.99401 0.42443 0.0
H160 H 0.94753 0.04289 0.41474 0.0
H161 H 0.91825 0.03891 0.41397 0.0
H162 H 0.96114 0.06939 0.4121 0.0
H163 H 0.91522 0.08959 0.40762 0.0
H164 H 0.76465 0.9996 0.42079 0.0
H165 H 0.79088 0.99359 0.40903 0.0
H166 H 0.7621 1.00611 0.44984 0.0
H167 H 0.81293 1.00241 0.45527 0.0
C168 C 0.06451 0.8759 0.43323 0.0
C169 C 0.08487 0.85774 0.42564 0.0
C170 C 0.06975 0.86374 0.42326 0.0
C171 C 0.09412 0.86352 0.43895 0.0
C172 C 0.07417 0.88253 0.44601 0.0
C173 C 0.08877 0.87592 0.44914 0.0
N174 N 0.05051 0.88208 0.42961 0.0
C175 C 0.04604 0.89582 0.43749 0.0
C176 C 0.06912 0.89597 0.45484 0.0
C177 C 0.05514 0.90282 0.45036 0.0
Gd178 Gd 0.99244 0.84825 0.41 0.0
Gd179 Gd 0.03472 0.86828 0.40929 0.0
N180 N 0.06061 0.85877 0.4104 0.0
C181 C 0.09049 0.84664 0.4142 0.0
C182 C 0.06649 0.84875 0.3987 0.0
C183 C 0.08138 0.84238 0.4005 0.0
H184 H 0.05973 0.84552 0.38798 0.0
H185 H 0.08583 0.83423 0.3913 0.0
H186 H 0.97679 0.85812 0.44658 0.0
H187 H 0.03524 0.90116 0.43413 0.0
H188 H 0.9561 0.87495 0.4577 0.0
H189 H 0.10206 0.84176 0.41554 0.0
H190 H 0.10567 0.85891 0.44113 0.0
H191 H 0.99168 0.85233 0.37027 0.0
H192 H 0.07618 0.90144 0.46476 0.0
H193 H 0.05135 0.91346 0.45683 0.0
H194 H 0.93147 0.89462 0.41183 0.0
H195 H 0.09627 0.88068 0.45905 0.0
H196 H 0.95255 0.88054 0.36007 0.0
H197 H 0.9752 0.86489 0.35076 0.0
N198 N 0.97859 0.86094 0.39048 0.0
C199 C 0.96572 0.8689 0.39581 0.0
C200 C 0.98179 0.85907 0.37448 0.0
C201 C 0.95963 0.87492 0.36869 0.0
C202 C 0.97246 0.86616 0.36339 0.0
C203 C 0.95613 0.87641 0.38505 0.0
H204 H 0.93626 0.89148 0.38288 0.0
N205 N 0.97247 0.86323 0.42237 0.0
C206 C 0.96288 0.87045 0.41222 0.0
C207 C 0.94827 0.88162 0.4347 0.0
C208 C 0.95054 0.87985 0.41815 0.0
C209 C 0.96993 0.86452 0.4385 0.0
C210 C 0.95796 0.87387 0.44489 0.0
O211 O 0.0338 0.84166 0.40947 0.0
O212 O 1.0107 0.83648 0.42345 0.0
O213 O 0.97126 0.83449 0.41812 0.0
O214 O 0.98364 0.82648 0.39674 0.0
O215 O 0.03135 0.84765 0.38804 0.0
O216 O 1.00563 0.83564 0.38847 0.0
O217 O 0.99742 0.87328 0.40096 0.0
O218 O 1.0143 0.88356 0.41956 0.0
O219 O 0.05214 0.88395 0.39744 0.0
O220 O 0.0272 0.88234 0.38986 0.0
O221 O 1.00258 0.85321 0.43709 0.0
O222 O 0.02785 0.86687 0.43635 0.0
C223 C 0.02534 0.83324 0.41951 0.0
C224 C 0.02016 0.83664 0.38176 0.0
C225 C 0.97312 0.80664 0.41298 0.0
C226 C 0.97861 0.78919 0.43438 0.0
C227 C 0.96863 0.77781 0.40869 0.0
C228 C 0.96815 0.7932 0.40308 0.0
C229 C 0.97368 0.77577 0.42432 0.0
C230 C 0.97878 0.80453 0.42831 0.0
C231 C 0.97273 0.82287 0.40729 0.0
C232 C 0.94096 0.88733 0.40745 0.0
C233 C 0.94368 0.88553 0.39096 0.0
H234 H 0.939 0.88885 0.43971 0.0
C235 C 1.0012 0.88515 0.41133 0.0
C236 C 1.01561 0.86058 0.44486 0.0
C237 C 0.04224 0.9076 0.38902 0.0
C238 C 0.05627 0.93276 0.38169 0.0
C239 C 0.03312 0.93309 0.39941 0.0
C240 C 0.03165 0.91637 0.3985 0.0
C241 C 0.04532 0.94126 0.39108 0.0
C242 C 0.05462 0.91587 0.3807 0.0
C243 C 0.04139 0.88991 0.38874 0.0
H244 H 0.96465 0.76745 0.40107 0.0
H245 H 0.96387 0.79462 0.39109 0.0
H246 H 0.97315 0.76383 0.42874 0.0
H247 H 0.98228 0.81509 0.43591 0.0
H248 H 0.02493 0.93973 0.40683 0.0
H249 H 0.02242 0.91038 0.40544 0.0
H250 H 0.04646 0.95424 0.39234 0.0
H251 H 0.06303 0.90915 0.37361 0.0
C252 C 0.26644 0.13779 0.39178 0.0
C253 C 0.253 0.15341 0.41243 0.0
C254 C 0.26303 0.14108 0.40775 0.0
C255 C 0.24645 0.16243 0.40075 0.0
C256 C 0.26041 0.1473 0.38006 0.0
C257 C 0.25022 0.15945 0.38461 0.0
N258 N 0.27574 0.12542 0.38773 0.0
C259 C 0.28085 0.1233 0.37225 0.0
C260 C 0.26491 0.14445 0.36414 0.0
C261 C 0.27544 0.13263 0.36029 0.0
Gd262 Gd 0.25524 0.06549 0.40093 0.0
Gd263 Gd 0.28208 0.10909 0.40906 0.0
N264 N 0.26913 0.13181 0.4187 0.0
C265 C 0.24968 0.15617 0.4287 0.0
C266 C 0.26632 0.13475 0.43462 0.0
C267 C 0.25653 0.1469 0.43986 0.0
H268 H 0.27145 0.12758 0.44332 0.0
H269 H 0.25414 0.14901 0.45249 0.0
H270 H 0.26871 0.04397 0.36885 0.0
H271 H 0.28926 0.11469 0.36875 0.0
H272 H 0.27579 1.01632 0.36231 0.0
H273 H 0.24194 0.16544 0.43277 0.0
H274 H 0.23857 0.17183 0.40409 0.0
H275 H 0.22883 0.06345 0.43137 0.0
H276 H 0.26065 0.15156 0.35482 0.0
H277 H 0.27945 0.13069 0.34807 0.0
H278 H 0.25674 0.98746 0.40728 0.0
H279 H 0.2453 0.16667 0.37573 0.0
H280 H 0.22585 1.01542 0.44659 0.0
H281 H 0.21763 0.04326 0.44943 0.0
N282 N 0.24402 0.04747 0.41902 0.0
C283 C 0.24763 0.03199 0.41634 0.0
C284 C 0.23274 0.0514 0.43016 0.0
C285 C 0.23094 0.02429 0.43872 0.0
C286 C 0.22626 0.03997 0.44036 0.0
C287 C 0.24145 0.02002 0.42637 0.0
H288 H 0.2408 0.99477 0.43099 0.0
N289 N 0.26049 0.03927 0.39226 0.0
C290 C 0.25628 0.0278 0.40268 0.0
C291 C 0.26704 1.00762 0.38468 0.0
C292 C 0.25943 1.01164 0.39914 0.0
C293 C 0.26687 0.03521 0.3777 0.0
C294 C 0.27053 0.01942 0.37381 0.0
O295 O 0.25559 0.10868 0.40865 0.0
O296 O 0.25407 0.08937 0.38891 0.0
O297 O 0.23683 0.05309 0.38512 0.0
O298 O 0.23162 0.07388 0.40043 0.0
O299 O 0.2727 0.09932 0.43357 0.0
O300 O 0.25587 0.07576 0.42847 0.0
O301 O 0.27843 0.05826 0.41142 0.0
O302 O 0.2788 0.08335 0.40934 0.0
O303 O 0.29923 0.12396 0.42388 0.0
O304 O 0.30749 0.10887 0.40412 0.0
O305 O 0.27492 0.07005 0.38041 0.0
O306 O 0.28988 0.09465 0.38599 0.0
C307 C 0.24786 0.10173 0.39651 0.0
C308 C 0.26284 0.08727 0.43876 0.0
C309 C 0.20948 0.05578 0.39382 0.0
C310 C 0.18491 0.04022 0.38536 0.0
C311 C 0.18527 0.05664 0.41013 0.0
C312 C 0.20125 0.06161 0.40746 0.0
C313 C 0.17711 0.04608 0.39912 0.0
C314 C 0.20119 0.04492 0.38277 0.0
C315 C 0.22589 0.06259 0.39028 0.0
C316 C 0.25431 0.99991 0.40976 0.0
C317 C 0.24526 1.00407 0.42329 0.0
H318 H 0.26968 0.99535 0.38154 0.0
C319 C 0.28682 0.07163 0.41392 0.0
C320 C 0.28697 0.08102 0.37694 0.0
C321 C 0.32316 0.13276 0.4108 0.0
C322 C 0.33892 0.15684 0.42007 0.0
C323 C 0.33966 0.14779 0.39209 0.0
C324 C 0.32885 0.13475 0.39517 0.0
C325 C 0.34447 0.15905 0.40446 0.0
C326 C 0.32867 0.14342 0.42308 0.0
C327 C 0.31142 0.11993 0.41511 0.0
H328 H 0.17911 0.06122 0.42064 0.0
H329 H 0.20696 0.07036 0.41596 0.0
H330 H 0.16462 0.04246 0.40134 0.0
H331 H 0.20716 0.04057 0.37203 0.0
H332 H 0.3439 0.14945 0.38002 0.0
H333 H 0.32483 0.12645 0.38538 0.0
H334 H 0.35203 0.16961 0.40181 0.0
H335 H 0.32386 0.14184 0.435 0.0
C336 C 0.99554 0.87723 0.65083 0.0
C337 C 0.97423 0.86048 0.66244 0.0
C338 C 0.99069 0.86459 0.66009 0.0
C339 C 0.96278 0.86938 0.65538 0.0
C340 C 0.98408 0.88576 0.64317 0.0
C341 C 0.96767 0.88169 0.64542 0.0
N342 N 1.0114 0.8819 0.65028 0.0
C343 C 0.01657 0.89514 0.64232 0.0
C344 C 0.98942 0.89873 0.63424 0.0
C345 C 1.00576 0.90344 0.63383 0.0
Gd346 Gd 0.07137 0.85471 0.65855 0.0
Gd347 Gd 0.02834 0.86914 0.66719 0.0
N348 N 1.00206 0.85719 0.66787 0.0
C349 C 0.96978 0.84783 0.67214 0.0
C350 C 0.99777 0.84512 0.67771 0.0
C351 C 0.98162 0.83999 0.67965 0.0
H352 H 1.0067 0.83973 0.6845 0.0
H353 H 0.97831 0.83036 0.68739 0.0
H354 H 0.08153 0.86549 0.62106 0.0
H355 H 0.02907 0.89937 0.64249 0.0
H356 H 0.09732 0.88723 0.60851 0.0
H357 H 0.95725 0.84417 0.67407 0.0
H358 H 0.9501 0.86683 0.65753 0.0
H359 H 0.08349 0.8563 0.69701 0.0
H360 H 0.98099 0.9055 0.62807 0.0
H361 H 1.00998 0.91374 0.62733 0.0
H362 H 0.12676 0.91475 0.65193 0.0
H363 H 0.95867 0.8883 0.63989 0.0
H364 H 0.11983 0.89444 0.70404 0.0
H365 H 0.10237 0.87246 0.71472 0.0
N366 N 0.08982 0.86906 0.67629 0.0
C367 C 0.0999 0.88053 0.67005 0.0
C368 C 0.09099 0.86578 0.69206 0.0
C369 C 0.11163 0.88727 0.69611 0.0
C370 C 0.10175 0.87492 0.70219 0.0
C371 C 0.11087 0.89015 0.67985 0.0
H372 H 0.12875 0.91022 0.68059 0.0
N373 N 0.08843 0.87316 0.64478 0.0
C374 C 0.0989 0.88291 0.65389 0.0
C375 C 0.10771 0.89706 0.6307 0.0
C376 C 0.10872 0.8952 0.64713 0.0
C377 C 0.0884 0.87418 0.62857 0.0
C378 C 0.09771 0.88631 0.62134 0.0
O379 O 0.02989 0.84255 0.66589 0.0
O380 O 0.05023 0.84002 0.64791 0.0
O381 O 0.09014 0.84192 0.64639 0.0
O382 O 0.07994 0.8335 0.66836 0.0
O383 O 0.03593 0.85158 0.68704 0.0
O384 O 0.06167 0.84384 0.68159 0.0
O385 O 0.066 0.87649 0.67389 0.0
O386 O 0.04838 0.88617 0.65804 0.0
O387 O 0.03684 0.88574 0.68691 0.0
O388 O 1.0115 0.88198 0.68219 0.0
O389 O 0.05752 0.85839 0.63416 0.0
O390 O 0.03176 0.86685 0.63907 0.0
C391 C 0.0384 0.83365 0.65622 0.0
C392 C 0.04876 0.84357 0.69086 0.0
C393 C 0.08128 0.81442 0.64742 0.0
C394 C 0.06652 0.80144 0.62462 0.0
C395 C 0.06763 0.78798 0.64947 0.0
C396 C 0.077 0.80106 0.65637 0.0
C397 C 0.06235 0.78814 0.63364 0.0
C398 C 0.07624 0.81428 0.63154 0.0
C399 C 0.0876 0.82969 0.65535 0.0
C400 C 0.1193 0.90513 0.6569 0.0
C401 C 0.12047 0.90253 0.6732 0.0
H402 H 0.11493 0.90642 0.62506 0.0
C403 C 0.06163 0.88856 0.66624 0.0
C404 C 0.04339 0.86297 0.62867 0.0
C405 C 0.02078 0.90844 0.69043 0.0
C406 C 1.00421 0.93153 0.6948 0.0
C407 C 0.032 0.93543 0.68609 0.0
C408 C 0.0337 0.91903 0.68628 0.0
C409 C 0.01742 0.94164 0.69022 0.0
C410 C 1.00595 0.9148 0.69472 0.0
C411 C 0.02262 0.89083 0.68984 0.0
H412 H 0.06428 0.77779 0.65648 0.0
H413 H 0.08036 0.80103 0.66885 0.0
H414 H 0.05515 0.77793 0.62845 0.0
H415 H 0.07979 0.82443 0.62451 0.0
H416 H 0.04204 0.94338 0.68262 0.0
H417 H 0.04515 0.91466 0.68306 0.0
H418 H 0.01646 0.95443 0.68959 0.0
H419 H 0.9959 0.90679 0.69805 0.0
C420 C 0.22439 0.03667 0.63013 0.0
C421 C 0.23866 1.01386 0.63725 0.0
C422 C 0.23475 0.02988 0.64017 0.0
C423 C 0.23289 1.0052 0.62337 0.0
C424 C 0.21769 0.02769 0.61677 0.0
C425 C 0.22243 1.01211 0.61313 0.0
N426 N 0.21969 0.05152 0.63434 0.0
C427 C 0.20718 0.05747 0.62663 0.0
C428 C 0.20583 0.03432 0.60798 0.0
C429 C 0.20035 0.04915 0.61311 0.0
Gd430 Gd 0.25762 0.10569 0.65739 0.0
Gd431 Gd 0.23253 0.06501 0.6567 0.0
N432 N 0.23964 0.0384 0.65371 0.0
C433 C 0.2475 1.00679 0.64879 0.0
C434 C 0.24733 0.03128 0.66548 0.0
C435 C 0.25157 1.01544 0.66312 0.0
H436 H 0.25042 0.0379 0.67659 0.0
H437 H 0.25795 1.00992 0.67234 0.0
H438 H 0.24189 0.12037 0.62377 0.0
H439 H 0.20286 0.0689 0.63063 0.0
H440 H 0.227 0.14303 0.6169 0.0
H441 H 0.25069 0.99448 0.64704 0.0
H442 H 0.23591 0.99293 0.62081 0.0
H443 H 0.25738 0.10723 0.6984 0.0
H444 H 0.20039 0.02781 0.59762 0.0
H445 H 0.19081 0.05414 0.60671 0.0
H446 H 0.21906 0.17197 0.6667 0.0
H447 H 0.21756 1.00507 0.60281 0.0
H448 H 0.23565 0.14965 0.71458 0.0
H449 H 0.24889 0.12513 0.72025 0.0
N450 N 0.24888 0.12104 0.67986 0.0
C451 C 0.24187 0.1347 0.67646 0.0
C452 C 0.25163 0.11773 0.6954 0.0
C453 C 0.23944 0.14182 0.70475 0.0
C454 C 0.24684 0.12796 0.708 0.0
C455 C 0.23682 0.14534 0.68889 0.0
H456 H 0.22495 0.16714 0.69461 0.0
N457 N 0.243 0.12678 0.64871 0.0
C458 C 0.23867 0.13752 0.66055 0.0
C459 C 0.22612 0.15293 0.64107 0.0
C460 C 0.23018 0.15092 0.65695 0.0
C461 C 0.23879 0.12867 0.63323 0.0
C462 C 0.23032 0.14168 0.6292 0.0
O463 O 0.2591 0.06371 0.65647 0.0
O464 O 0.26735 0.08538 0.64241 0.0
O465 O 0.27163 0.12745 0.65206 0.0
O466 O 0.28283 0.1092 0.66425 0.0
O467 O 0.25147 0.068 0.67883 0.0
O468 O 0.2675 0.09161 0.67735 0.0
O469 O 0.23302 0.10262 0.6694 0.0
O470 O 0.21948 0.08749 0.65078 0.0
O471 O 0.21543 0.07074 0.67573 0.0
O472 O 0.21611 0.04638 0.66582 0.0
O473 O 0.25153 0.09662 0.63056 0.0
O474 O 0.23666 0.07194 0.62986 0.0
C475 C 0.26862 0.07047 0.64601 0.0
C476 C 0.26379 0.07817 0.68453 0.0
C477 C 0.29778 0.12272 0.64464 0.0
C478 C 0.30026 0.12559 0.61625 0.0
C479 C 0.32167 0.13639 0.6341 0.0
C480 C 0.31243 0.13162 0.64726 0.0
C481 C 0.31524 0.13413 0.61861 0.0
C482 C 0.29336 0.11755 0.62907 0.0
C483 C 0.2851 0.12237 0.65682 0.0
C484 C 0.22555 0.16165 0.6693 0.0
C485 C 0.22889 0.1589 0.6852 0.0
H486 H 0.21949 0.16297 0.63788 0.0
C487 C 0.22015 0.10043 0.66043 0.0
C488 C 0.24377 0.08418 0.62217 0.0
C489 C 0.19062 0.05385 0.67474 0.0
C490 C 0.16561 0.03619 0.67572 0.0
C491 C 0.16463 0.06509 0.67362 0.0
C492 C 0.18134 0.06711 0.67371 0.0
C493 C 0.15685 0.04987 0.67463 0.0
C494 C 0.18263 0.03831 0.67563 0.0
C495 C 0.20852 0.05615 0.67521 0.0
H496 H 0.33301 0.14325 0.63605 0.0
H497 H 0.31626 0.13554 0.65927 0.0
H498 H 0.32122 0.14016 0.6089 0.0
H499 H 0.28217 0.11033 0.62722 0.0
H500 H 0.15762 0.07541 0.67276 0.0
H501 H 0.18696 0.0791 0.67296 0.0
H502 H 0.14385 0.04881 0.67435 0.0
H503 H 0.18964 0.02798 0.67654 0.0
C504 C 0.14143 0.24386 0.68517 0.0
C505 C 0.15689 0.23456 0.66231 0.0
C506 C 0.14483 0.24393 0.66888 0.0
C507 C 0.16563 0.22542 0.67231 0.0
C508 C 0.15032 0.23487 0.69528 0.0
C509 C 0.16247 0.22572 0.68877 0.0
N510 N 0.129 0.2521 0.69101 0.0
C511 C 0.12542 0.25268 0.70697 0.0
C512 C 0.14646 0.23507 0.71159 0.0
C513 C 0.13399 0.24406 0.71746 0.0
Gd514 Gd 0.07097 0.24799 0.67193 0.0
Gd515 Gd 0.11685 0.26771 0.67284 0.0
N516 N 0.13629 0.25301 0.65948 0.0
C517 C 0.15985 0.23467 0.64585 0.0
C518 C 0.13964 0.25374 0.64356 0.0
C519 C 0.15126 0.24438 0.63647 0.0
H520 H 0.13364 0.26175 0.63631 0.0
H521 H 0.15373 0.24483 0.6238 0.0
H522 H 0.0464 0.27105 0.69394 0.0
H523 H 0.11587 0.25971 0.71154 0.0
H524 H 0.02213 0.28535 0.68997 0.0
H525 H 0.16891 0.22752 0.64032 0.0
H526 H 0.17491 0.21813 0.66745 0.0
H527 H 0.06854 0.21606 0.64616 0.0
H528 H 0.153 0.22831 0.71973 0.0
H529 H 0.131 0.24437 0.73005 0.0
H530 H 1.00322 0.26519 0.63827 0.0
H531 H 0.16933 0.21861 0.69632 0.0
H532 H 0.02909 0.2203 0.61456 0.0
H533 H 0.05216 0.20567 0.62287 0.0
N534 N 0.05522 0.23662 0.65056 0.0
C535 C 0.04218 0.24434 0.64671 0.0
C536 C 0.05855 0.22256 0.64257 0.0
C537 C 0.03631 0.22496 0.62471 0.0
C538 C 0.04929 0.21664 0.62939 0.0
C539 C 0.03241 0.23882 0.6336 0.0
H540 H 1.01113 0.24294 0.62011 0.0
N541 N 0.04666 0.26054 0.67025 0.0
C542 C 0.0378 0.25685 0.65686 0.0
C543 C 0.01815 0.27516 0.66602 0.0
C544 C 0.0234 0.26418 0.65427 0.0
C545 C 0.04063 0.26981 0.68246 0.0
C546 C 0.02658 0.27764 0.68038 0.0
O547 O 0.1084 0.24252 0.67984 0.0
O548 O 0.09011 0.23068 0.66284 0.0
O549 O 0.05332 0.23323 0.68474 0.0
O550 O 0.07849 0.23268 0.69034 0.0
O551 O 0.10645 0.26146 0.64549 0.0
O552 O 0.0797 0.24981 0.64549 0.0
O553 O 0.08819 0.26778 0.67048 0.0
O554 O 0.10357 0.28608 0.66122 0.0
O555 O 0.138 0.28265 0.66654 0.0
O556 O 0.12833 0.28428 0.69058 0.0
O557 O 0.07429 0.27005 0.69196 0.0
O558 O 0.10159 0.27886 0.69477 0.0
C559 C 0.10456 0.23068 0.66925 0.0
C560 C 0.0929 0.25513 0.63752 0.0
C561 C 0.06209 0.20831 0.69139 0.0
C562 C 0.04712 0.18352 0.69853 0.0
C563 C 0.06976 0.18252 0.68021 0.0
C564 C 0.07212 0.19918 0.68157 0.0
C565 C 0.05738 0.17472 0.68861 0.0
C566 C 0.04952 0.2004 0.69981 0.0
C567 C 0.06408 0.22604 0.6923 0.0
C568 C 1.01421 0.25955 0.64057 0.0
C569 C 0.01869 0.24686 0.63025 0.0
H570 H 1.00714 0.28104 0.66452 0.0
C571 C 0.08896 0.28128 0.66346 0.0
C572 C 0.08614 0.2796 0.69958 0.0
C573 C 0.13722 0.30842 0.68008 0.0
C574 C 0.13437 0.33217 0.66518 0.0
C575 C 0.13598 0.3346 0.69405 0.0
C576 C 0.13735 0.31803 0.6944 0.0
C577 C 0.13476 0.34175 0.67943 0.0
C578 C 0.13539 0.31556 0.66564 0.0
C579 C 0.13797 0.29091 0.68028 0.0
H580 H 0.07749 0.17563 0.67249 0.0
H581 H 0.08169 0.20482 0.67478 0.0
H582 H 0.05563 0.16179 0.68706 0.0
H583 H 0.04164 0.20736 0.70732 0.0
H584 H 0.13623 0.34195 0.70511 0.0
H585 H 0.13846 0.31273 0.70582 0.0
H586 H 0.13454 0.35465 0.67919 0.0
H587 H 0.13552 0.30829 0.65451 0.0
C588 C 0.85445 0.08059 0.65845 0.0
C589 C 0.8342 0.09924 0.66505 0.0
C590 C 0.84102 0.08457 0.6672 0.0
C591 C 0.84116 0.10983 0.65412 0.0
C592 C 0.86163 0.09126 0.64763 0.0
C593 C 0.85485 0.10586 0.64544 0.0
N594 N 0.86077 0.06646 0.66086 0.0
C595 C 0.87481 0.06263 0.65366 0.0
C596 C 0.87562 0.08707 0.63959 0.0
C597 C 0.88232 0.07274 0.64273 0.0
Gd598 Gd 0.82854 1.00365 0.67873 0.0
Gd599 Gd 0.84872 0.05096 0.68052 0.0
N600 N 0.83466 0.0741 0.67778 0.0
C601 C 0.82062 0.10287 0.67401 0.0
C602 C 0.82135 0.07758 0.68649 0.0
C603 C 0.81415 0.09197 0.68473 0.0
H604 H 0.81606 0.06938 0.69477 0.0
H605 H 0.80362 0.09467 0.69169 0.0
H606 H 0.83724 0.98785 0.64147 0.0
H607 H 0.8801 0.05163 0.65621 0.0
H608 H 0.85752 0.97129 0.62899 0.0
H609 H 0.81503 0.11404 0.67274 0.0
H610 H 0.83609 0.12118 0.65236 0.0
H611 H 0.83083 0.99927 0.71794 0.0
H612 H 0.8815 0.09494 0.63119 0.0
H613 H 0.89328 0.06951 0.63681 0.0
H614 H 0.8844 0.95127 0.67332 0.0
H615 H 0.86018 0.11422 0.63718 0.0
H616 H 0.86587 0.96564 0.72604 0.0
H617 H 0.84568 0.98382 0.73652 0.0
N618 N 0.84285 0.99029 0.69724 0.0
C619 C 0.85339 0.9799 0.69116 0.0
C620 C 0.83973 0.99151 0.71326 0.0
C621 C 0.85938 0.97239 0.71784 0.0
C622 C 0.84804 0.98269 0.72381 0.0
C623 C 0.86214 0.97083 0.70134 0.0
H624 H 0.88012 0.95349 0.7024 0.0
N625 N 0.84592 0.98633 0.66517 0.0
C626 C 0.85537 0.97827 0.6747 0.0
C627 C 0.86776 0.96589 0.65143 0.0
C628 C 0.86655 0.96785 0.66807 0.0
C629 C 0.84603 0.98319 0.64898 0.0
C630 C 0.85725 0.97337 0.64186 0.0
O631 O 0.82849 0.03384 0.67692 0.0
O632 O 0.81017 0.01743 0.66732 0.0
O633 O 0.81723 0.98007 0.67236 0.0
O634 O 0.80727 0.99485 0.69137 0.0
O635 O 0.82893 0.04657 0.70082 0.0
O636 O 0.81965 0.01918 0.70099 0.0
O637 O 0.85053 1.01516 0.6913 0.0
O638 O 0.86436 0.03063 0.67427 0.0
O639 O 0.86413 0.07009 0.69238 0.0
O640 O 0.86444 0.04613 0.70026 0.0
O641 O 0.83505 1.01389 0.65266 0.0
O642 O 0.84948 0.03944 0.65421 0.0
C643 C 0.81468 0.03231 0.66973 0.0
C644 C 0.81987 0.03438 0.7072 0.0
C645 C 0.78914 0.98009 0.67445 0.0
C646 C 0.77288 0.98131 0.65064 0.0
C647 C 0.76047 0.97326 0.67548 0.0
C648 C 0.77545 0.97512 0.68309 0.0
C649 C 0.7592 0.97602 0.6592 0.0
C650 C 0.78764 0.98367 0.65852 0.0
C651 C 0.80503 0.98211 0.68188 0.0
C652 C 0.87574 0.95929 0.67821 0.0
C653 C 0.87334 0.96058 0.69477 0.0
H654 H 0.87628 0.95809 0.64589 0.0
C655 C 0.86356 0.01798 0.68282 0.0
C656 C 0.84311 0.02642 0.64559 0.0
C657 C 0.88941 0.06158 0.6993 0.0
C658 C 0.91588 0.07458 0.70605 0.0
C659 C 0.91343 0.05239 0.68611 0.0
C660 C 0.89689 0.05127 0.68821 0.0
C661 C 0.92289 0.06391 0.69497 0.0
C662 C 0.89903 0.07347 0.70812 0.0
C663 C 0.87164 0.06043 0.70085 0.0
H664 H 0.74993 0.96921 0.6821 0.0
H665 H 0.77636 0.9726 0.69559 0.0
H666 H 0.74776 0.97361 0.6532 0.0
H667 H 0.79833 0.98732 0.65187 0.0
H668 H 0.91893 0.04439 0.67744 0.0
H669 H 0.89005 0.04244 0.68089 0.0
H670 H 0.93573 0.06473 0.6929 0.0
H671 H 0.89348 0.08177 0.71648 0.0
C672 C 0.42174 0.99314 0.21868 0.0
C673 C 0.44251 0.97765 0.20644 0.0
C674 C 0.43791 0.9913 0.21551 0.0
C675 C 0.43079 0.96583 0.20092 0.0
C676 C 0.40993 0.98135 0.21298 0.0
C677 C 0.41456 0.96764 0.20424 0.0
N678 N 0.41751 1.00699 0.22636 0.0
C679 C 0.40168 1.0094 0.22927 0.0
C680 C 0.39375 0.98392 0.21575 0.0
C681 C 0.38963 0.99801 0.22392 0.0
Gd682 Gd 0.43589 0.06341 0.21257 0.0
Gd683 Gd 0.43896 0.02483 0.2357 0.0
N684 N 0.44904 1.00307 0.22075 0.0
C685 C 0.45878 0.97635 0.20296 0.0
C686 C 0.46496 1.00162 0.21769 0.0
C687 C 0.47004 0.98836 0.20865 0.0
H688 H 0.47394 1.01041 0.22236 0.0
H689 H 0.48267 0.98736 0.20619 0.0
H690 H 0.41814 0.09042 0.23656 0.0
H691 H 0.39809 0.02011 0.23555 0.0
H692 H 0.42343 0.11837 0.24718 0.0
H693 H 0.46277 0.9661 0.19596 0.0
H694 H 0.43415 0.9553 0.19393 0.0
H695 H 0.4593 0.05947 0.18034 0.0
H696 H 0.38435 0.97518 0.21148 0.0
H697 H 0.37714 1.00012 0.22609 0.0
H698 H 0.47144 0.13673 0.22004 0.0
H699 H 0.40565 0.95851 0.19972 0.0
H700 H 0.49102 0.10177 0.17814 0.0
H701 H 0.48166 0.07466 0.16723 0.0
N702 N 0.45656 0.07751 0.19884 0.0
C703 C 0.461 0.09265 0.20453 0.0
C704 C 0.46339 0.07124 0.18525 0.0
C705 C 0.48131 0.0951 0.18401 0.0
C706 C 0.47603 0.07982 0.17779 0.0
C707 C 0.47357 0.10185 0.19736 0.0
H708 H 0.48729 0.12484 0.19812 0.0
N709 N 0.43938 0.09041 0.22241 0.0
C710 C 0.45214 0.09931 0.2168 0.0
C711 C 0.44526 0.12218 0.23369 0.0
C712 C 0.45551 0.11541 0.22232 0.0
C713 C 0.42878 0.09726 0.23275 0.0
C714 C 0.43169 0.11312 0.23874 0.0
O715 O 0.42672 0.02428 0.21119 0.0
O716 O 0.4431 0.04078 0.19773 0.0
O717 O 0.41672 0.05499 0.19588 0.0
O718 O 0.42372 0.08037 0.19919 0.0
O719 O 0.46488 0.03567 0.22929 0.0
O720 O 0.46349 0.05872 0.21507 0.0
O721 O 0.43517 0.06622 0.23876 0.0
O722 O 0.45202 0.04773 0.24557 0.0
O723 O 0.45141 1.00933 0.2508 0.0
O724 O 0.42866 0.01799 0.2583 0.0
O725 O 0.41427 0.05957 0.23184 0.0
O726 O 0.41828 0.03805 0.2473 0.0
C727 C 0.43496 0.02679 0.19809 0.0
C728 C 0.47223 0.04786 0.22165 0.0
C729 C 0.41465 0.0716 0.17356 0.0
C730 C 0.40916 0.08864 0.15143 0.0
C731 C 0.42166 0.0633 0.14639 0.0
C732 C 0.42116 0.0605 0.16264 0.0
C733 C 0.41586 0.07722 0.14083 0.0
C734 C 0.40855 0.08559 0.16788 0.0
C735 C 0.41506 0.06938 0.19096 0.0
C736 C 0.46856 0.12439 0.21585 0.0
C737 C 0.47758 0.11762 0.20336 0.0
H738 H 0.44741 0.13451 0.23823 0.0
C739 C 0.44627 0.06179 0.24784 0.0
C740 C 0.40962 0.05012 0.24398 0.0
C741 C 0.44848 0.0191 0.27778 0.0
C742 C 0.46849 0.03785 0.29132 0.0
C743 C 0.44438 0.02838 0.30537 0.0
C744 C 0.43917 0.01912 0.29176 0.0
C745 C 0.45888 0.03777 0.30516 0.0
C746 C 0.46318 0.02834 0.27771 0.0
C747 C 0.44159 1.01169 0.26273 0.0
H748 H 0.42686 0.05475 0.13805 0.0
H749 H 0.4261 0.0498 0.16668 0.0
H750 H 0.41708 0.07919 0.1282 0.0
H751 H 0.40349 0.0941 0.17637 0.0
H752 H 0.43702 0.0285 0.31605 0.0
H753 H 0.42762 1.01238 0.29197 0.0
H754 H 0.46245 0.04509 0.31578 0.0
H755 H 0.47041 0.02822 0.26694 0.0
C756 C 0.0958 0.44184 0.22894 0.0
C757 C 0.11694 0.43278 0.24503 0.0
C758 C 0.10074 0.43203 0.24022 0.0
C759 C 0.12792 0.44425 0.23872 0.0
C760 C 0.10686 0.45285 0.22189 0.0
C761 C 0.12288 0.45432 0.22717 0.0
N762 N 0.08049 0.4394 0.22367 0.0
C763 C 0.07572 0.44686 0.21054 0.0
C764 C 0.10169 0.46139 0.20921 0.0
C765 C 0.0861 0.45822 0.20337 0.0
Gd766 Gd 0.02076 0.42389 0.25555 0.0
Gd767 Gd 0.0634 0.41985 0.23586 0.0
N768 N 0.08991 0.4208 0.24551 0.0
C769 C 0.12171 0.42153 0.25549 0.0
C770 C 0.09459 0.40951 0.25536 0.0
C771 C 0.11049 0.40974 0.26056 0.0
H772 H 0.08606 0.40023 0.2592 0.0
H773 H 0.11408 0.40076 0.26837 0.0
H774 H 1.00615 0.45949 0.24931 0.0
H775 H 0.06375 0.44422 0.20581 0.0
H776 H 0.98621 0.47016 0.23184 0.0
H777 H 0.13407 0.42159 0.25937 0.0
H778 H 0.14041 0.44509 0.2423 0.0
H779 H 1.01189 0.38371 0.25546 0.0
H780 H 0.1098 0.46998 0.20348 0.0
H781 H 0.08211 0.46438 0.19324 0.0
H782 H 0.95724 0.42308 0.2087 0.0
H783 H 0.13156 0.46277 0.22199 0.0
H784 H 0.97107 0.37204 0.2256 0.0
H785 H 0.99222 0.36369 0.24327 0.0
N786 N 1.00229 0.40356 0.24476 0.0
C787 C 0.99025 0.40846 0.23579 0.0
C788 C 1.0028 0.38771 0.24786 0.0
C789 C 0.97964 0.381 0.23105 0.0
C790 C 0.99159 0.37623 0.24097 0.0
C791 C 0.97881 0.39728 0.2284 0.0
H792 H 0.95831 0.39424 0.2125 0.0
N793 N 1.0002 0.43519 0.24186 0.0
C794 C 0.98947 0.42472 0.23391 0.0
C795 C 0.97665 0.44676 0.22311 0.0
C796 C 0.97744 0.43022 0.22425 0.0
C797 C 0.99869 0.4513 0.24175 0.0
C798 C 0.98714 0.45735 0.23213 0.0
O799 O 0.06136 0.42162 0.26242 0.0
O800 O 0.04162 0.43874 0.26575 0.0
O801 O 1.00274 0.43323 0.27171 0.0
O802 O 0.0186 0.4151 0.2794 0.0
O803 O 0.05676 0.39934 0.2539 0.0
O804 O 0.0321 0.40239 0.26591 0.0
O805 O 0.02428 0.40938 0.23252 0.0
O806 O 0.04191 0.42667 0.22162 0.0
O807 O 0.07582 0.39914 0.22742 0.0
O808 O 0.05727 0.40696 0.21291 0.0
O809 O 0.03237 0.44928 0.24731 0.0
O810 O 0.05868 0.4474 0.23784 0.0
C811 C 0.05499 0.43334 0.27045 0.0
C812 C 0.04521 0.39444 0.26415 0.0
C813 C 0.9993 0.4245 0.29865 0.0
C814 C 1.00118 0.43918 0.32439 0.0
C815 C 0.99425 0.41059 0.32309 0.0
C816 C 0.99572 0.41022 0.30637 0.0
C817 C 0.9974 0.42503 0.33219 0.0
C818 C 1.001 0.43894 0.30766 0.0
C819 C 1.00708 0.42429 0.28303 0.0
C820 C 0.96644 0.41909 0.21631 0.0
C821 C 0.96703 0.40267 0.2185 0.0
H822 H 0.96765 0.45146 0.21574 0.0
C823 C 0.02853 0.41763 0.22029 0.0
C824 C 0.04614 0.45625 0.2413 0.0
C825 C 0.07958 0.39589 0.20002 0.0
C826 C 0.09143 0.37961 0.17877 0.0
C827 C 0.10351 0.40612 0.18626 0.0
C828 C 0.09172 0.40803 0.19784 0.0
C829 C 0.10344 0.39195 0.1768 0.0
C830 C 0.07933 0.38165 0.19027 0.0
C831 C 0.06866 0.39729 0.21375 0.0
H832 H 0.99165 0.39953 0.32901 0.0
H833 H 0.99497 0.39877 0.29961 0.0
H834 H 0.99741 0.42507 0.34512 0.0
H835 H 1.00443 0.44988 0.3017 0.0
H836 H 0.1129 0.41552 0.18483 0.0
H837 H 0.09247 0.41878 0.20543 0.0
H838 H 0.11285 0.39054 0.16798 0.0
H839 H 0.07024 0.37203 0.19204 0.0
C840 C 0.70709 0.12167 0.2408 0.0
C841 C 0.68677 0.13502 0.22696 0.0
C842 C 0.69107 0.12283 0.23678 0.0
C843 C 0.69871 0.14585 0.22114 0.0
C844 C 0.71904 0.13282 0.23528 0.0
C845 C 0.71477 0.14482 0.22539 0.0
N846 N 0.71105 0.10941 0.24972 0.0
C847 C 0.72662 0.10832 0.25435 0.0
C848 C 0.73501 0.13142 0.23961 0.0
C849 C 0.73878 0.1192 0.24928 0.0
Gd850 Gd 0.69233 0.04973 0.23627 0.0
Gd851 Gd 0.68942 0.09189 0.25745 0.0
N852 N 0.67969 0.11222 0.24259 0.0
C853 C 0.67057 0.13612 0.22339 0.0
C854 C 0.66379 0.11402 0.24006 0.0
C855 C 0.65901 0.12573 0.23018 0.0
H856 H 0.65468 0.10679 0.24593 0.0
H857 H 0.64639 0.12689 0.228 0.0
H858 H 0.71175 0.02656 0.25911 0.0
H859 H 0.72997 0.09909 0.26183 0.0
H860 H 0.70971 0.99909 0.26839 0.0
H861 H 0.66682 0.14524 0.2158 0.0
H862 H 0.69562 0.15517 0.21347 0.0
H863 H 0.66896 0.0486 0.20429 0.0
H864 H 0.7445 0.13973 0.23559 0.0
H865 H 0.75108 0.1181 0.25282 0.0
H866 H 0.6631 0.97413 0.24127 0.0
H867 H 0.72382 0.15334 0.22088 0.0
H868 H 0.64024 1.00405 0.20083 0.0
H869 H 0.64781 0.03074 0.1906 0.0
N870 N 0.67259 0.03255 0.22252 0.0
C871 C 0.669 0.01778 0.22785 0.0
C872 C 0.66559 0.03701 0.20888 0.0
C873 C 0.64931 1.01194 0.20699 0.0
C874 C 0.65362 0.02695 0.20113 0.0
C875 C 0.65735 1.007 0.22027 0.0
H876 H 0.64589 0.98293 0.22007 0.0
N877 N 0.69056 0.02333 0.24506 0.0
C878 C 0.67851 1.01291 0.2396 0.0
C879 C 0.68807 0.99209 0.25515 0.0
C880 C 0.67687 0.99701 0.2444 0.0
C881 C 0.70184 0.01844 0.25512 0.0
C882 C 0.70074 1.00283 0.26039 0.0
O883 O 0.70436 0.0884 0.23493 0.0
O884 O 0.68646 0.07151 0.22248 0.0
O885 O 0.71535 0.0406 0.22985 0.0
O886 O 0.70292 0.05283 0.21257 0.0
O887 O 0.66371 0.08107 0.24738 0.0
O888 O 0.6649 0.05478 0.23679 0.0
O889 O 0.69014 0.05248 0.26269 0.0
O890 O 0.67316 0.0721 0.26616 0.0
O891 O 0.68169 0.11302 0.27123 0.0
O892 O 0.69289 0.0938 0.28275 0.0
O893 O 0.71284 0.05559 0.25633 0.0
O894 O 0.71034 0.0802 0.26969 0.0
C895 C 0.6964 0.08423 0.22181 0.0
C896 C 0.65634 0.06748 0.24044 0.0
C897 C 0.71681 0.03052 0.20348 0.0
C898 C 0.7322 1.01662 0.18297 0.0
C899 C 0.70811 1.00341 0.1939 0.0
C900 C 0.70606 0.01692 0.20388 0.0
C901 C 0.72112 1.00321 0.18352 0.0
C902 C 0.72988 0.03045 0.19283 0.0
C903 C 0.71479 0.0441 0.21504 0.0
C904 C 0.66465 0.98638 0.23768 0.0
C905 C 0.65486 0.99139 0.22563 0.0
H906 H 0.68735 0.97994 0.25906 0.0
C907 C 0.67761 0.05809 0.26958 0.0
C908 C 0.71798 0.0668 0.26778 0.0
C909 C 0.6926 0.11836 0.29767 0.0
C910 C 0.68487 0.12747 0.32434 0.0
C911 C 0.71299 0.12566 0.31779 0.0
C912 C 0.70881 0.11991 0.3022 0.0
C913 C 0.70098 0.12894 0.32908 0.0
C914 C 0.68096 0.12316 0.3084 0.0
C915 C 0.6866 0.10756 0.28448 0.0
H916 H 0.69968 0.99302 0.19434 0.0
H917 H 0.69624 1.01659 0.21214 0.0
H918 H 0.72247 0.99256 0.1758 0.0
H919 H 0.73836 0.04084 0.19252 0.0
H920 H 0.72546 0.12657 0.3214 0.0
H921 H 0.71801 0.11585 0.29406 0.0
H922 H 0.70418 0.13206 0.34142 0.0
H923 H 0.6684 0.12134 0.30494 0.0
C924 C 0.02409 0.65116 0.20536 0.0
C925 C 0.99927 0.65714 0.2188 0.0
C926 C 1.01588 0.66039 0.21635 0.0
C927 C 0.99123 0.64396 0.21048 0.0
C928 C 1.01591 0.63843 0.19633 0.0
C929 C 0.99953 0.63462 0.19924 0.0
N930 N 0.03983 0.65538 0.20269 0.0
C931 C 0.04773 0.64823 0.19017 0.0
C932 C 0.02428 0.63033 0.18423 0.0
C933 C 0.04019 0.63542 0.18098 0.0
Gd934 Gd 0.08794 0.67392 0.2451 0.0
Gd935 Gd 0.05182 0.67671 0.21917 0.0
N936 N 0.02392 0.67332 0.22373 0.0
C937 C 0.99114 0.66761 0.22906 0.0
C938 C 1.01589 0.68399 0.23315 0.0
C939 C 0.99946 0.68121 0.2361 0.0
H940 H 0.02217 0.69465 0.23849 0.0
H941 H 0.99323 0.6896 0.24375 0.0
H942 H 0.11631 0.64733 0.23962 0.0
H943 H 0.06002 0.65208 0.18758 0.0
H944 H 0.14551 0.64806 0.23445 0.0
H945 H 0.97839 0.66555 0.23125 0.0
H946 H 0.9785 0.64119 0.21228 0.0
H947 H 0.07546 0.7073 0.22733 0.0
H948 H 0.01844 0.62049 0.17701 0.0
H949 H 0.04664 0.62951 0.17136 0.0
H950 H 0.15988 0.70286 0.22398 0.0
H951 H 0.99308 0.62479 0.19253 0.0
H952 H 0.1171 0.73643 0.21588 0.0
H953 H 0.0876 0.73202 0.21719 0.0
N954 N 0.09742 0.69755 0.23268 0.0
C955 C 0.11373 0.69946 0.23136 0.0
C956 C 0.08818 0.70889 0.22717 0.0
C957 C 0.11176 0.72551 0.22061 0.0
C958 C 0.09512 0.72304 0.22128 0.0
C959 C 0.12128 0.71352 0.22532 0.0
H960 H 0.14398 0.72566 0.21895 0.0
N961 N 0.11506 0.67254 0.23817 0.0
C962 C 0.12283 0.68662 0.23438 0.0
C963 C 0.14776 0.67358 0.23178 0.0
C964 C 0.13947 0.68752 0.23119 0.0
C965 C 0.12285 0.65866 0.2376 0.0
C966 C 0.13933 0.65902 0.23463 0.0
O967 O 0.04641 0.67692 0.24504 0.0
O968 O 0.06509 0.6606 0.252 0.0
O969 O 0.10171 0.66133 0.26168 0.0
O970 O 0.09262 0.68378 0.26943 0.0
O971 O 0.05208 0.69699 0.2414 0.0
O972 O 0.07565 0.69657 0.25569 0.0
O973 O 0.09656 0.66888 0.2193 0.0
O974 O 0.07523 0.67432 0.2036 0.0
O975 O 0.06103 0.69632 0.20508 0.0
O976 O 0.03564 0.689 0.20461 0.0
O977 O 0.07887 0.64745 0.23704 0.0
O978 O 0.05622 0.64893 0.2213 0.0
C979 C 0.05083 0.66574 0.25375 0.0
C980 C 0.0618 0.7032 0.25357 0.0
C981 C 0.09021 0.66301 0.28721 0.0
C982 C 0.07183 0.6412 0.29637 0.0
C983 C 0.08428 0.66143 0.3154 0.0
C984 C 0.09235 0.6691 0.30298 0.0
C985 C 0.07424 0.64752 0.3122 0.0
C986 C 0.07966 0.64942 0.28402 0.0
C987 C 0.09857 0.67081 0.27385 0.0
C988 C 0.14709 0.70191 0.22631 0.0
C989 C 0.13801 0.71487 0.2234 0.0
H990 H 0.1605 0.67376 0.22925 0.0
C991 C 0.09056 0.67101 0.20504 0.0
C992 C 0.06684 0.64007 0.22824 0.0
C993 C 0.04666 0.69901 0.18098 0.0
C994 C 0.03225 0.70553 0.15702 0.0
C995 C 0.05803 0.69358 0.15468 0.0
C996 C 0.05899 0.69328 0.17126 0.0
C997 C 0.04476 0.69954 0.14758 0.0
C998 C 0.0334 0.70526 0.17381 0.0
C999 C 0.04713 0.69805 0.19852 0.0
H1000 H 0.08606 0.6661 0.32762 0.0
H1001 H 0.10025 0.67971 0.30568 0.0
H1002 H 0.06886 0.64153 0.32221 0.0
H1003 H 0.07785 0.64513 0.27176 0.0
H1004 H 0.06751 0.68896 0.14727 0.0
H1005 H 0.06932 0.68846 0.17645 0.0
H1006 H 0.04417 0.69907 0.13466 0.0
H1007 H 0.02397 0.70982 0.18136 0.0
C1008 C 0.43758 0.10152 0.84987 0.0
C1009 C 0.42577 0.12128 0.83463 0.0
C1010 C 0.42599 0.10547 0.83963 0.0
C1011 C 0.43825 0.13267 0.83928 0.0
C1012 C 0.44967 0.11307 0.85541 0.0
C1013 C 0.45023 0.12855 0.84966 0.0
N1014 N 0.43601 0.08677 0.85571 0.0
C1015 C 0.44573 0.08302 0.86786 0.0
C1016 C 0.46027 0.10894 0.86713 0.0
C1017 C 0.45816 0.09389 0.87354 0.0
Gd1018 Gd 0.41496 0.02542 0.82518 0.0
Gd1019 Gd 0.41548 0.0682 0.84534 0.0
N1020 N 0.41378 0.09435 0.83623 0.0
C1021 C 0.41252 0.12539 0.826 0.0
C1022 C 0.40035 0.09867 0.82878 0.0
C1023 C 0.39961 0.11409 0.82332 0.0
H1024 H 0.38986 0.09053 0.82754 0.0
H1025 H 0.38893 0.11734 0.81736 0.0
H1026 H 0.44927 1.00849 0.83433 0.0
H1027 H 0.44405 0.07143 0.87297 0.0
H1028 H 0.45775 0.9883 0.85211 0.0
H1029 H 0.41179 0.13743 0.82205 0.0
H1030 H 0.43837 0.14484 0.83548 0.0
H1031 H 0.37461 0.02396 0.82778 0.0
H1032 H 0.46972 0.11746 0.87171 0.0
H1033 H 0.46601 0.09069 0.88291 0.0
H1034 H 0.40863 0.96601 0.87415 0.0
H1035 H 0.45946 0.13759 0.85367 0.0
H1036 H 0.35938 0.98669 0.85848 0.0
H1037 H 0.3529 1.00823 0.84102 0.0
N1038 N 0.39333 1.01174 0.83791 0.0
C1039 C 0.3971 0.99937 0.84675 0.0
C1040 C 0.37763 1.01459 0.83532 0.0
C1041 C 0.36898 0.99348 0.85259 0.0
C1042 C 0.36528 1.00568 0.8428 0.0
C1043 C 0.38502 0.99014 0.85462 0.0
H1044 H 0.38022 0.97099 0.87072 0.0
N1045 N 0.42456 1.00551 0.8407 0.0
C1046 C 0.41317 0.99645 0.8485 0.0
C1047 C 0.43374 0.98168 0.85996 0.0
C1048 C 0.41749 0.98434 0.8584 0.0
C1049 C 0.44035 1.00234 0.84153 0.0
C1050 C 0.44519 0.9906 0.85135 0.0
O1051 O 0.41698 0.06688 0.8189 0.0
O1052 O 0.43041 0.04435 0.81333 0.0
O1053 O 0.42304 1.00491 0.81106 0.0
O1054 O 0.40191 1.01621 0.80402 0.0
O1055 O 0.39424 0.06327 0.82585 0.0
O1056 O 0.39568 0.0385 0.8124 0.0
O1057 O 0.40315 0.03184 0.84899 0.0
O1058 O 0.42344 0.04719 0.85878 0.0
O1059 O 0.39102 0.06539 0.85517 0.0
O1060 O 0.41067 0.07495 0.87001 0.0
O1061 O 0.44212 0.03494 0.83166 0.0
O1062 O 0.44192 0.06096 0.84307 0.0
C1063 C 0.42757 0.05919 0.81069 0.0
C1064 C 0.38868 0.05221 0.81442 0.0
C1065 C 0.41754 1.00587 0.78339 0.0
C1066 C 0.43846 1.0116 0.76383 0.0
C1067 C 0.41215 1.0006 0.75505 0.0
C1068 C 0.40696 1.00049 0.77097 0.0
C1069 C 0.42797 1.00588 0.75147 0.0
C1070 C 0.43308 1.01179 0.77972 0.0
C1071 C 0.41215 1.00571 0.80008 0.0
C1072 C 0.4055 0.97527 0.86642 0.0
C1073 C 0.38932 0.9781 0.86446 0.0
H1074 H 0.43754 0.97256 0.86753 0.0
C1075 C 0.4127 0.03557 0.86106 0.0
C1076 C 0.45002 0.04834 0.83835 0.0
C1077 C 0.38675 0.08683 0.8745 0.0
C1078 C 0.3686 0.09978 0.89336 0.0
C1079 C 0.38665 0.11589 0.87679 0.0
C1080 C 0.39277 0.10206 0.87015 0.0
C1081 C 0.37474 0.11482 0.88835 0.0
C1082 C 0.3746 0.0857 0.88618 0.0
C1083 C 0.39523 0.07269 0.86882 0.0
H1084 H 0.404 0.99629 0.74552 0.0
H1085 H 0.39476 0.99615 0.77359 0.0
H1086 H 0.43207 1.00529 0.73917 0.0
H1087 H 0.44129 1.01592 0.78931 0.0
H1088 H 0.39169 0.12752 0.8735 0.0
H1089 H 0.4029 0.10341 0.86232 0.0
H1090 H 0.37103 0.12593 0.89397 0.0
H1091 H 0.37039 0.07402 0.8901 0.0
C1092 C 0.99619 0.42059 0.85604 0.0
C1093 C 0.97181 0.43472 0.85956 0.0
C1094 C 0.98756 0.43387 0.85351 0.0
C1095 C 0.9645 0.42173 0.86737 0.0
C1096 C 0.98896 0.40779 0.86449 0.0
C1097 C 0.97303 0.4083 0.86979 0.0
N1098 N 1.01189 0.42072 0.85138 0.0
C1099 C 0.02084 0.40845 0.85531 0.0
C1100 C 0.99809 0.39506 0.86791 0.0
C1101 C 1.01414 0.39549 0.86344 0.0
Gd1102 Gd 0.05652 0.43916 0.86239 0.0
Gd1103 Gd 0.0211 0.44328 0.83679 0.0
N1104 N 0.99505 0.44657 0.84645 0.0
C1105 C 0.96406 0.44888 0.85818 0.0
C1106 C 0.98776 0.46065 0.84567 0.0
C1107 C 0.97215 0.46196 0.85138 0.0
H1108 H 0.99413 0.47105 0.84095 0.0
H1109 H 0.96644 0.47312 0.8507 0.0
H1110 H 0.0869 0.42114 0.84453 0.0
H1111 H 0.03328 0.40854 0.85281 0.0
H1112 H 0.11631 0.42547 0.8418 0.0
H1113 H 0.95201 0.44999 0.86277 0.0
H1114 H 0.95238 0.42215 0.87198 0.0
H1115 H 0.04628 0.46391 0.89306 0.0
H1116 H 0.99298 0.38507 0.8744 0.0
H1117 H 0.02147 0.38592 0.86644 0.0
H1118 H 0.12973 0.47299 0.87508 0.0
H1119 H 0.96735 0.39853 0.8762 0.0
H1120 H 0.08769 0.4945 0.90702 0.0
H1121 H 0.05893 0.48615 0.91038 0.0
N1122 N 0.06747 0.4604 0.87953 0.0
C1123 C 0.08349 0.46422 0.87812 0.0
C1124 C 0.05881 0.46759 0.89145 0.0
C1125 C 0.08218 0.48488 0.8993 0.0
C1126 C 0.06594 0.48016 0.90126 0.0
C1127 C 0.09126 0.47665 0.88787 0.0
H1128 H 0.11407 0.48961 0.89366 0.0
N1129 N 0.0846 0.44223 0.85951 0.0
C1130 C 0.09233 0.45489 0.86769 0.0
C1131 C 0.11779 0.44715 0.85699 0.0
C1132 C 0.10914 0.45771 0.86666 0.0
C1133 C 0.09304 0.43155 0.85052 0.0
C1134 C 0.10971 0.43391 0.84902 0.0
O1135 O 1.01568 0.45363 0.86215 0.0
O1136 O 0.03203 0.43909 0.87642 0.0
O1137 O 0.04722 0.41954 0.8765 0.0
O1138 O 0.07251 0.42696 0.87731 0.0
O1139 O 0.03176 0.46931 0.84255 0.0
O1140 O 0.05305 0.46721 0.85984 0.0
O1141 O 0.06356 0.4394 0.83694 0.0
O1142 O 0.04438 0.45456 0.8278 0.0
O1143 O 1.00897 0.45721 0.82007 0.0
O1144 O 1.0111 0.43226 0.81444 0.0
O1145 O 0.0566 0.4193 0.83997 0.0
O1146 O 0.03328 0.42082 0.82554 0.0
C1147 C 0.01899 0.44729 0.87572 0.0
C1148 C 0.04351 0.47634 0.85175 0.0
C1149 C 0.06123 0.41717 0.90093 0.0
C1150 C 0.0752 0.41088 0.92527 0.0
C1151 C 0.04929 0.4226 0.92698 0.0
C1152 C 0.04882 0.4231 0.91039 0.0
C1153 C 0.06236 0.41662 0.93439 0.0
C1154 C 0.07438 0.41102 0.90843 0.0
C1155 C 0.06101 0.41794 0.88333 0.0
C1156 C 0.11684 0.47057 0.87577 0.0
C1157 C 0.10791 0.48003 0.88635 0.0
H1158 H 0.13072 0.44887 0.85594 0.0
C1159 C 0.05894 0.44977 0.82729 0.0
C1160 C 0.04693 0.41378 0.82755 0.0
C1161 C 0.01837 0.45024 0.79431 0.0
C1162 C 0.03575 0.47075 0.78161 0.0
C1163 C 0.03707 0.44253 0.77338 0.0
C1164 C 0.02523 0.43832 0.78455 0.0
C1165 C 0.04254 0.45859 0.7721 0.0
C1166 C 0.02313 0.4664 0.79208 0.0
C1167 C 1.00889 0.44605 0.80874 0.0
H1168 H 0.03965 0.42722 0.93416 0.0
H1169 H 0.03889 0.42835 0.905 0.0
H1170 H 0.06262 0.41706 0.94733 0.0
H1171 H 0.08402 0.40654 0.90112 0.0
H1172 H 0.04249 0.43324 0.76613 0.0
H1173 H 0.02191 0.42574 0.78597 0.0
H1174 H 0.05234 0.46139 0.76399 0.0
H1175 H 0.01744 0.47564 0.79917 0.0
C1176 C 0.64329 0.02557 0.8753 0.0
C1177 C 0.64908 1.00284 0.85758 0.0
C1178 C 0.65242 0.01891 0.86325 0.0
C1179 C 0.63575 0.99393 0.86362 0.0
C1180 C 0.63042 1.01643 0.88205 0.0
C1181 C 0.62643 1.00072 0.87585 0.0
N1182 N 0.64774 0.04063 0.8812 0.0
C1183 C 0.64057 0.04687 0.89462 0.0
C1184 C 0.62237 0.02315 0.89521 0.0
C1185 C 0.62762 0.03835 0.90166 0.0
Gd1186 Gd 0.66812 0.09447 0.84682 0.0
Gd1187 Gd 0.6689 0.05463 0.86801 0.0
N1188 N 0.6654 0.02775 0.85802 0.0
C1189 C 0.65963 0.99604 0.84653 0.0
C1190 C 0.67623 0.02089 0.84797 0.0
C1191 C 0.67342 1.00503 0.84193 0.0
H1192 H 0.68699 0.0277 0.84445 0.0
H1193 H 0.68191 0.99976 0.83374 0.0
H1194 H 0.63248 0.10831 0.85921 0.0
H1195 H 0.64461 0.05857 0.89972 0.0
H1196 H 0.62317 0.13043 0.87638 0.0
H1197 H 0.65752 0.98373 0.84191 0.0
H1198 H 0.63288 0.98163 0.8593 0.0
H1199 H 0.70865 0.09878 0.84869 0.0
H1200 H 0.61242 1.01653 0.90075 0.0
H1201 H 0.62174 0.04349 0.91208 0.0
H1202 H 0.67128 0.16135 0.8927 0.0
H1203 H 0.61648 0.99355 0.88076 0.0
H1204 H 0.72172 0.14225 0.87593 0.0
H1205 H 0.72942 0.11818 0.86008 0.0
N1206 N 0.6891 0.11148 0.85813 0.0
C1207 C 0.68459 0.12491 0.86636 0.0
C1208 C 0.70499 0.10917 0.85553 0.0
C1209 C 0.71246 0.13381 0.87083 0.0
C1210 C 0.71687 0.1202 0.86196 0.0
C1211 C 0.69619 0.1363 0.87316 0.0
H1212 H 0.69998 0.15833 0.88788 0.0
N1213 N 0.65734 0.11533 0.86248 0.0
C1214 C 0.66829 0.12668 0.86891 0.0
C1215 C 0.64695 0.14102 0.88136 0.0
C1216 C 0.66335 0.13982 0.87855 0.0
C1217 C 0.64129 0.11673 0.86485 0.0
C1218 C 0.63589 0.12946 0.87444 0.0
O1219 O 0.6691 0.05262 0.84147 0.0
O1220 O 0.65442 0.07316 0.83476 0.0
O1221 O 0.65846 0.11243 0.83247 0.0
O1222 O 0.68011 0.1014 0.82504 0.0
O1223 O 0.69044 0.05766 0.84894 0.0
O1224 O 0.68869 0.08093 0.83551 0.0
O1225 O 0.67973 0.09305 0.87137 0.0
O1226 O 0.66199 0.07701 0.88361 0.0
O1227 O 0.68874 0.06253 0.88404 0.0
O1228 O 0.68016 0.03742 0.88187 0.0
O1229 O 0.64156 0.08335 0.85109 0.0
O1230 O 0.64181 0.05994 0.86496 0.0
C1231 C 0.65889 0.05859 0.83217 0.0
C1232 C 0.69609 0.06778 0.83782 0.0
C1233 C 0.66136 0.10397 0.80527 0.0
C1234 C 0.64048 0.08737 0.79077 0.0
C1235 C 0.66427 0.0976 0.77681 0.0
C1236 C 0.67022 0.10526 0.79107 0.0
C1237 C 0.64947 0.08862 0.77663 0.0
C1238 C 0.64664 0.09491 0.805 0.0
C1239 C 0.66843 0.10967 0.82074 0.0
C1240 C 0.67489 0.15122 0.88524 0.0
C1241 C 0.69124 0.14952 0.88248 0.0
H1242 H 0.6427 0.15087 0.88879 0.0
C1243 C 0.67086 0.09063 0.88407 0.0
C1244 C 0.63365 0.07097 0.85809 0.0
C1245 C 0.69079 0.04664 0.90692 0.0
C1246 C 0.69646 0.0303 0.92949 0.0
C1247 C 0.68768 0.05737 0.93416 0.0
C1248 C 0.68683 0.05915 0.91774 0.0
C1249 C 0.6924 0.04312 0.94 0.0
C1250 C 0.69559 0.03221 0.91286 0.0
C1251 C 0.68968 0.04821 0.88944 0.0
H1252 H 0.67117 0.09858 0.7659 0.0
H1253 H 0.68187 0.11182 0.79112 0.0
H1254 H 0.64491 0.08299 0.76546 0.0
H1255 H 0.63996 0.09345 0.81603 0.0
H1256 H 0.6845 0.06705 0.94243 0.0
H1257 H 0.68297 0.07028 0.91353 0.0
H1258 H 0.69252 0.04205 0.95283 0.0
H1259 H 0.6987 0.02254 0.90453 0.0
C1260 C 0.11414 0.70971 0.84769 0.0
C1261 C 0.12862 0.68879 0.85878 0.0
C1262 C 0.11616 0.69353 0.84914 0.0
C1263 C 0.13885 0.7005 0.86694 0.0
C1264 C 0.1246 0.72151 0.85561 0.0
C1265 C 0.13692 0.7168 0.86527 0.0
N1266 N 0.1015 0.71393 0.83905 0.0
C1267 C 0.09942 0.72973 0.83683 0.0
C1268 C 0.12215 0.7377 0.85384 0.0
C1269 C 0.10957 0.74181 0.84432 0.0
Gd1270 Gd 0.04424 0.69548 0.84771 0.0
Gd1271 Gd 0.08566 0.69271 0.82611 0.0
N1272 N 0.10603 0.68244 0.84114 0.0
C1273 C 0.13053 0.67242 0.85982 0.0
C1274 C 0.10851 0.6665 0.84138 0.0
C1275 C 0.12056 0.66124 0.85092 0.0
H1276 H 0.10155 0.65775 0.83396 0.0
H1277 H 0.12231 0.64856 0.85121 0.0
H1278 H 0.02365 0.72207 0.82914 0.0
H1279 H 0.08983 0.73308 0.82943 0.0
H1280 H 0.99707 0.72434 0.81761 0.0
H1281 H 0.13991 0.6683 0.86714 0.0
H1282 H 0.1484 0.69706 0.87447 0.0
H1283 H 0.03949 0.66715 0.87387 0.0
H1284 H 0.12991 0.7471 0.85975 0.0
H1285 H 0.10769 0.75429 0.84274 0.0
H1286 H 0.96686 0.67675 0.83279 0.0
H1287 H 0.14495 0.72569 0.87159 0.0
H1288 H 0.99207 0.64432 0.86939 0.0
H1289 H 0.01888 0.64653 0.8821 0.0
N1290 N 0.02473 0.67596 0.85621 0.0
C1291 C 1.00994 0.67532 0.84961 0.0
C1292 C 0.02786 0.66612 0.86814 0.0
C1293 C 1.00114 0.65322 0.86561 0.0
C1294 C 0.01622 0.65448 0.87286 0.0
C1295 C 0.99771 0.66396 0.85407 0.0
H1296 H 0.97277 0.6555 0.85063 0.0
N1297 N 0.01847 0.69858 0.83704 0.0
C1298 C 1.00668 0.68709 0.83959 0.0
C1299 C 0.98769 0.70138 0.8252 0.0
C1300 C 0.991 0.68808 0.83371 0.0
C1301 C 1.01494 0.71211 0.82971 0.0
C1302 C 0.99967 0.71361 0.82347 0.0
O1303 O 0.08158 0.70523 0.85044 0.0
O1304 O 0.06527 0.6863 0.8601 0.0
O1305 O 0.05 0.71885 0.86049 0.0
O1306 O 0.03476 0.70062 0.87123 0.0
O1307 O 0.07548 0.66644 0.83139 0.0
O1308 O 0.05116 0.66846 0.84496 0.0
O1309 O 0.04247 0.69452 0.82159 0.0
O1310 O 0.06376 0.67965 0.81447 0.0
O1311 O 0.10202 0.68131 0.80934 0.0
O1312 O 0.0966 0.70587 0.80695 0.0
O1313 O 0.05076 0.71728 0.8305 0.0
O1314 O 0.0725 0.71186 0.81428 0.0
C1315 C 0.0777 0.69629 0.8623 0.0
C1316 C 0.06269 0.65948 0.83879 0.0
C1317 C 0.02791 0.7267 0.87684 0.0
C1318 C 0.01754 0.74728 0.89524 0.0
C1319 C 0.99997 0.73296 0.87539 0.0
C1320 C 1.01252 0.72402 0.8701 0.0
C1321 C 1.00239 0.74445 0.88787 0.0
C1322 C 0.03039 0.73837 0.88954 0.0
C1323 C 0.04027 0.71548 0.87229 0.0
C1324 C 0.97895 0.67627 0.83729 0.0
C1325 C 0.98231 0.6642 0.84746 0.0
H1326 H 0.97578 0.70268 0.82061 0.0
C1327 C 0.04956 0.68477 0.81173 0.0
C1328 C 0.06061 0.72094 0.81812 0.0
C1329 C 0.09924 0.69071 0.78308 0.0
C1330 C 0.08765 0.67365 0.76088 0.0
C1331 C 0.09799 0.70082 0.75646 0.0
C1332 C 0.10222 0.70313 0.77261 0.0
C1333 C 0.09089 0.68607 0.75053 0.0
C1334 C 0.09177 0.67613 0.77716 0.0
C1335 C 0.103 0.69353 0.80025 0.0
H1336 H 0.98814 0.7305 0.87022 0.0
H1337 H 1.00987 0.71439 0.86133 0.0
H1338 H 0.99208 0.75054 0.89226 0.0
H1339 H 0.04201 0.74004 0.89531 0.0
H1340 H 0.1004 0.71045 0.74848 0.0
H1341 H 0.10773 0.71464 0.77696 0.0
H1342 H 0.08809 0.68429 0.73792 0.0
H1343 H 0.08956 0.66646 0.78516 0.0
C1344 C 0.23224 0.43072 0.08873 0.0
C1345 C 0.20761 0.44438 0.09074 0.0
C1346 C 0.21843 0.43519 0.08184 0.0
C1347 C 0.21153 0.44991 0.10646 0.0
C1348 C 0.23581 0.43543 0.10479 0.0
C1349 C 0.22563 0.44544 0.11348 0.0
N1350 N 0.24156 0.42076 0.08008 0.0
C1351 C 0.25442 0.41465 0.08692 0.0
C1352 C 0.24916 0.42946 0.11178 0.0
C1353 C 0.2585 0.41901 0.10282 0.0
Gd1354 Gd 0.25134 0.41512 1.01043 0.0
Gd1355 Gd 0.23465 0.41503 0.05312 0.0
N1356 N 0.21492 0.42932 0.06682 0.0
C1357 C 0.19288 0.44711 0.08385 0.0
C1358 C 0.20008 0.43099 0.06049 0.0
C1359 C 0.18898 0.44009 0.06876 0.0
H1360 H 0.19647 0.42502 0.04923 0.0
H1361 H 0.17734 0.44147 0.06359 0.0
H1362 H 0.29096 0.4107 1.01444 0.0
H1363 H 0.26154 0.40637 0.08018 0.0
H1364 H 0.31065 0.3913 1.00561 0.0
H1365 H 0.1842 0.45402 0.09033 0.0
H1366 H 0.20349 0.45716 0.11344 0.0
H1367 H 0.21769 0.40381 0.98761 0.0
H1368 H 0.25209 0.43245 0.12419 0.0
H1369 H 0.26875 0.41419 0.10821 0.0
H1370 H 0.28015 0.35119 0.97371 0.0
H1371 H 0.2283 0.44937 0.12578 0.0
H1372 H 0.22469 0.35789 0.96488 0.0
H1373 H 0.20727 0.38005 0.97129 0.0
N1374 N 0.24009 0.39429 0.99253 0.0
C1375 C 0.25033 0.38286 0.98796 0.0
C1376 C 0.22514 0.39383 0.98571 0.0
C1377 C 0.22919 0.3681 0.97248 0.0
C1378 C 0.2193 0.38055 0.97611 0.0
C1379 C 0.24505 0.3694 0.97792 0.0
H1380 H 0.25189 0.34744 0.9656 0.0
N1381 N 0.27139 0.39795 1.00228 0.0
C1382 C 0.26641 0.38497 0.99254 0.0
C1383 C 0.29343 0.37614 0.99186 0.0
C1384 C 0.27736 0.37367 0.98719 0.0
C1385 C 0.28715 0.40053 1.0066 0.0
C1386 C 0.2983 0.38953 1.00169 0.0
O1387 O 0.23838 0.44172 0.04698 0.0
O1388 O 0.24382 0.44118 0.01972 0.0
O1389 O 0.24885 0.41878 0.98494 0.0
O1390 O 0.26358 0.43549 0.99971 0.0
O1391 O 0.21977 0.42422 0.03352 0.0
O1392 O 0.22649 0.40559 1.01555 0.0
O1393 O 0.26139 0.39454 0.02443 0.0
O1394 O 0.25501 0.39695 0.05149 0.0
O1395 O 0.22591 0.39172 0.04211 0.0
O1396 O 0.21673 0.4004 0.0652 0.0
O1397 O 0.27003 0.42546 0.02749 0.0
O1398 O 0.26145 0.4203 0.05341 0.0
C1399 C 0.24131 0.44952 0.0337 0.0
C1400 C 0.2158 0.41468 0.02127 0.0
C1401 C 0.2736 0.42809 0.97424 0.0
C1402 C 0.30239 0.42524 0.9706 0.0
C1403 C 0.28409 0.42085 0.94799 0.0
C1404 C 0.27109 0.42416 0.95793 0.0
C1405 C 0.29965 0.42129 0.95426 0.0
C1406 C 0.28925 0.42889 0.98034 0.0
C1407 C 0.25998 0.43033 0.98518 0.0
C1408 C 0.27194 0.36007 0.97769 0.0
C1409 C 0.25582 0.3579 0.97314 0.0
H1410 H 0.30212 0.36764 0.98813 0.0
C1411 C 0.26267 0.38973 0.03926 0.0
C1412 C 0.2724 0.42492 0.04286 0.0
C1413 C 0.21339 0.37266 0.05959 0.0
C1414 C 0.19469 0.35327 0.07216 0.0
C1415 C 0.22304 0.34835 0.06927 0.0
C1416 C 0.22604 0.36294 0.06206 0.0
C1417 C 0.20754 0.34358 0.07444 0.0
C1418 C 0.19779 0.36758 0.06426 0.0
C1419 C 0.21596 0.38896 0.05394 0.0
H1420 H 0.2821 0.41785 0.93539 0.0
H1421 H 0.25909 0.42349 0.95296 0.0
H1422 H 0.30947 0.41861 0.9463 0.0
H1423 H 0.29125 0.43263 0.99279 0.0
H1424 H 0.23285 0.3409 0.0713 0.0
H1425 H 0.2382 0.36676 0.05874 0.0
H1426 H 0.20579 0.33262 0.08068 0.0
H1427 H 0.1881 0.37519 0.06214 0.0
C1428 C 0.23793 0.68021 0.11136 0.0
C1429 C 0.22686 0.65669 0.12421 0.0
C1430 C 0.23575 0.66368 0.1117 0.0
C1431 C 0.22021 0.66657 0.13625 0.0
C1432 C 0.23173 0.69018 0.12368 0.0
C1433 C 0.22278 0.68327 0.13607 0.0
N1434 N 0.24586 0.68657 0.09875 0.0
C1435 C 0.24897 0.70278 0.09825 0.0
C1436 C 0.23449 0.70682 0.12302 0.0
C1437 C 0.24324 0.71314 0.11029 0.0
Gd1438 Gd 0.2348 0.67095 0.0389 0.0
Gd1439 Gd 0.25599 0.66843 0.0795 0.0
N1440 N 0.24255 0.65446 0.1 0.0
C1441 C 0.22512 0.63997 0.12441 0.0
C1442 C 0.24185 0.63818 0.10087 0.0
C1443 C 0.23284 0.63068 0.1128 0.0
H1444 H 0.24852 0.63084 0.09272 0.0
H1445 H 0.2321 0.61775 0.11319 0.0
H1446 H 0.25948 0.68863 1.0128 0.0
H1447 H 0.2557 0.70778 0.08846 0.0
H1448 H 0.26982 0.68323 0.98543 0.0
H1449 H 0.21828 0.63414 0.13374 0.0
H1450 H 0.21328 0.6614 0.1459 0.0
H1451 H 0.20141 0.64633 0.04189 0.0
H1452 H 0.22994 0.71489 0.13226 0.0
H1453 H 0.24555 0.72598 0.10973 0.0
H1454 H 0.24139 0.63371 0.96752 0.0
H1455 H 0.21774 0.69074 0.14553 0.0
H1456 H 0.19842 0.61372 1.00066 0.0
H1457 H 0.18752 0.62343 0.02667 0.0
N1458 N 0.22044 0.64916 0.02504 0.0
C1459 C 0.22605 0.6446 1.01036 0.0
C1460 C 0.20634 0.64218 0.0306 0.0
C1461 C 0.20463 0.62372 1.00734 0.0
C1462 C 0.19842 0.62918 0.022 0.0
C1463 C 0.21842 0.63164 1.00117 0.0
H1464 H 0.21884 0.61743 0.97875 0.0
N1465 N 0.24472 0.66691 1.01276 0.0
C1466 C 0.2387 0.65372 1.00406 0.0
C1467 C 0.25578 0.66075 0.98179 0.0
C1468 C 0.24414 0.6502 0.98837 0.0
C1469 C 0.25534 0.67775 1.00607 0.0
C1470 C 0.26117 0.67475 0.99058 0.0
O1471 O 0.23185 0.67993 0.07882 0.0
O1472 O 0.21851 0.66378 0.06072 0.0
O1473 O 0.22271 0.68166 0.01959 0.0
O1474 O 0.21715 0.6887 0.04406 0.0
O1475 O 0.24891 0.64208 0.06791 0.0
O1476 O 0.23588 0.64337 0.04361 0.0
O1477 O 0.26166 0.67114 0.0382 0.0
O1478 O 0.26619 0.65519 0.05843 0.0
O1479 O 0.27318 0.65834 0.09492 0.0
O1480 O 0.27778 0.68222 0.08668 0.0
O1481 O 0.25478 0.69376 0.04367 0.0
O1482 O 0.26787 0.6907 0.06745 0.0
C1483 C 0.21849 0.67152 0.07491 0.0
C1484 C 0.24149 0.63457 0.05498 0.0
C1485 C 0.19558 0.68614 0.02478 0.0
C1486 C 0.17288 0.68725 1.00601 0.0
C1487 C 0.16932 0.67364 0.03095 0.0
C1488 C 0.1853 0.67753 0.03504 0.0
C1489 C 0.16318 0.6784 0.01666 0.0
C1490 C 0.18931 0.69088 1.01008 0.0
C1491 C 0.21296 0.68911 0.029 0.0
C1492 C 0.23726 0.63672 0.97952 0.0
C1493 C 0.22441 0.62746 0.98592 0.0
H1494 H 0.26024 0.65851 0.96977 0.0
C1495 C 0.26928 0.65968 0.044 0.0
C1496 C 0.26633 0.69911 0.05461 0.0
C1497 C 0.29919 0.66584 0.08466 0.0
C1498 C 0.31601 0.64562 0.07303 0.0
C1499 C 0.32305 0.67364 0.06926 0.0
C1500 C 0.30964 0.6778 0.07825 0.0
C1501 C 0.32635 0.65756 0.06675 0.0
C1502 C 0.3025 0.64979 0.08191 0.0
C1503 C 0.284 0.67 0.09247 0.0
H1504 H 0.16162 0.66681 0.03891 0.0
H1505 H 0.18967 0.67354 0.0462 0.0
H1506 H 0.15072 0.67496 1.01387 0.0
H1507 H 0.19711 0.69744 1.00198 0.0
H1508 H 0.33097 0.68292 0.06435 0.0
H1509 H 0.30732 0.69034 0.07997 0.0
H1510 H 0.337 0.65445 0.06018 0.0
H1511 H 0.29471 0.64043 0.08693 0.0
C1512 C 0.40962 0.24532 0.10643 0.0
C1513 C 0.43084 0.23266 0.11981 0.0
C1514 C 0.42591 0.24345 0.10873 0.0
C1515 C 0.41932 0.22365 0.12842 0.0
C1516 C 0.39807 0.23634 0.11533 0.0
C1517 C 0.403 0.22547 0.12617 0.0
N1518 N 0.40509 0.2556 0.09541 0.0
C1519 C 0.38911 0.25808 0.09382 0.0
C1520 C 0.38183 0.23845 0.11307 0.0
C1521 C 0.37737 0.24948 0.10242 0.0
Gd1522 Gd 0.41955 0.24757 0.03821 0.0
Gd1523 Gd 0.42699 0.26822 0.08107 0.0
N1524 N 0.43694 0.25189 0.09992 0.0
C1525 C 0.44727 0.23112 0.12185 0.0
C1526 C 0.45296 0.25093 0.10234 0.0
C1527 C 0.45837 0.24042 0.11319 0.0
H1528 H 0.46163 0.25827 0.09592 0.0
H1529 H 0.4711 0.2395 0.11489 0.0
H1530 H 0.38063 0.2493 0.02746 0.0
H1531 H 0.38484 0.26671 0.08623 0.0
H1532 H 0.36519 0.25566 1.00399 0.0
H1533 H 0.4515 0.22291 0.13019 0.0
H1534 H 0.42291 0.21522 0.13686 0.0
H1535 H 0.45252 0.23216 0.02324 0.0
H1536 H 0.37264 0.23177 0.11965 0.0
H1537 H 0.36481 0.25147 0.10087 0.0
H1538 H 0.40395 0.25736 0.96178 0.0
H1539 H 0.39425 0.21841 0.13292 0.0
H1540 H 0.45607 0.24086 0.97356 0.0
H1541 H 0.46762 0.23096 0.99799 0.0
N1542 N 0.43359 0.24467 1.01392 0.0
C1543 C 0.42662 0.24921 1.00052 0.0
C1544 C 0.44775 0.23742 1.01296 0.0
C1545 C 0.44967 0.24199 0.98481 0.0
C1546 C 0.45622 0.23639 0.99855 0.0
C1547 C 0.43441 0.24791 0.98555 0.0
H1548 H 0.43199 0.25025 0.96009 0.0
N1549 N 0.4034 0.25218 0.01585 0.0
C1550 C 0.41091 0.25312 1.00151 0.0
C1551 C 0.38589 0.25756 0.98862 0.0
C1552 C 0.40238 0.25578 0.98749 0.0
C1553 C 0.387 0.25198 0.01654 0.0
C1554 C 0.3781 0.25526 1.00316 0.0
O1555 O 0.42994 0.24247 0.07439 0.0
O1556 O 0.40715 0.24147 0.06124 0.0
O1557 O 0.40431 0.22627 0.03169 0.0
O1558 O 0.42768 0.2239 0.04239 0.0
O1559 O 0.45243 0.26458 0.0696 0.0
O1560 O 0.44747 0.25077 0.04489 0.0
O1561 O 0.43476 0.27085 0.03904 0.0
O1562 O 0.42473 0.2844 0.06112 0.0
O1563 O 0.44189 0.28971 0.08849 0.0
O1564 O 0.42304 0.28043 0.10403 0.0
O1565 O 0.39932 0.26521 0.04402 0.0
O1566 O 0.40368 0.27664 0.06965 0.0
C1567 C 0.41643 0.23456 0.07082 0.0
C1568 C 0.45791 0.25716 0.0562 0.0
C1569 C 0.41433 0.20018 0.02942 0.0
C1570 C 0.39901 0.17609 0.0186 0.0
C1571 C 0.42704 0.17499 0.02585 0.0
C1572 C 0.42786 0.19125 0.03065 0.0
C1573 C 0.41271 0.16741 0.01997 0.0
C1574 C 0.39992 0.19253 0.0232 0.0
C1575 C 0.41433 0.21655 0.03694 0.0
C1576 C 0.41028 0.25533 0.97266 0.0
C1577 C 0.42629 0.2514 0.9717 0.0
H1578 H 0.37893 0.25969 0.97816 0.0
C1579 C 0.43165 0.28416 0.04715 0.0
C1580 C 0.39478 0.2747 0.05634 0.0
C1581 C 0.42324 0.30766 0.09883 0.0
C1582 C 0.42436 0.33681 0.0997 0.0
C1583 C 0.39861 0.32154 0.09811 0.0
C1584 C 0.40638 0.30728 0.09852 0.0
C1585 C 0.40754 0.33632 0.09917 0.0
C1586 C 0.43199 0.32227 0.09805 0.0
C1587 C 0.43184 0.29295 0.10002 0.0
H1588 H 0.43749 0.16817 0.02691 0.0
H1589 H 0.43897 0.19671 0.0357 0.0
H1590 H 0.41236 0.15477 0.01633 0.0
H1591 H 0.38926 0.19915 0.02252 0.0
H1592 H 0.38563 0.32116 0.09803 0.0
H1593 H 0.39922 0.29604 0.09888 0.0
H1594 H 0.40137 0.34727 0.10076 0.0
H1595 H 0.44491 0.32219 0.09817 0.0
C1596 C 0.88357 0.47565 0.06605 0.0
C1597 C 0.86657 0.47339 0.08951 0.0
C1598 C 0.8708 0.46802 0.07389 0.0
C1599 C 0.87492 0.48698 0.09682 0.0
C1600 C 0.89253 0.48877 0.07368 0.0
C1601 C 0.8879 0.49462 0.08895 0.0
N1602 N 0.88762 0.46982 0.05117 0.0
C1603 C 0.90143 0.47558 0.04398 0.0
C1604 C 0.90608 0.49539 0.06589 0.0
C1605 C 0.91067 0.48862 0.05109 0.0
Gd1606 Gd 0.85064 0.45205 1.00172 0.0
Gd1607 Gd 0.87155 0.44746 0.04049 0.0
N1608 N 0.8633 0.45462 0.0667 0.0
C1609 C 0.85449 0.46459 0.09756 0.0
C1610 C 0.85216 0.44549 0.07485 0.0
C1611 C 0.84744 0.45043 0.09029 0.0
H1612 H 0.84683 0.43439 0.06936 0.0
H1613 H 0.8384 0.4433 0.09657 0.0
H1614 H 0.85878 0.48044 0.97551 0.0
H1615 H 0.905 0.47042 0.03252 0.0
H1616 H 0.87047 0.48245 0.94851 0.0
H1617 H 0.85088 0.46834 0.10956 0.0
H1618 H 0.87174 0.49137 0.10875 0.0
H1619 H 0.86774 0.41943 0.0166 0.0
H1620 H 0.91328 0.50547 0.07137 0.0
H1621 H 0.92135 0.49343 0.04516 0.0
H1622 H 0.88962 0.43061 0.93605 0.0
H1623 H 0.89451 0.50482 0.09492 0.0
H1624 H 0.88938 0.39415 0.97781 0.0
H1625 H 0.88126 0.39617 1.00618 0.0
N1626 N 0.86569 0.42975 0.99418 0.0
C1627 C 0.87098 0.42936 0.97873 0.0
C1628 C 0.86989 0.41828 1.00406 0.0
C1629 C 0.88273 0.40415 0.98222 0.0
C1630 C 0.87813 0.40522 0.99822 0.0
C1631 C 0.87963 0.41652 0.97239 0.0
H1632 H 0.89227 0.407 0.9517 0.0
N1633 N 0.86261 0.45562 0.97669 0.0
C1634 C 0.86945 0.4427 0.96976 0.0
C1635 C 0.87648 0.4578 0.9466 0.0
C1636 C 0.87655 0.44347 0.95446 0.0
C1637 C 0.86333 0.46992 0.96946 0.0
C1638 C 0.87007 0.47116 0.95425 0.0
O1639 O 0.84483 0.44726 0.04243 0.0
O1640 O 0.83993 0.46408 0.02316 0.0
O1641 O 0.83566 0.4647 0.98633 0.0
O1642 O 0.82833 0.44065 0.99184 0.0
O1643 O 0.84962 0.42619 0.037 0.0
O1644 O 0.83855 0.42856 1.01204 0.0
O1645 O 0.8769 0.46139 0.9994 0.0
O1646 O 0.88828 0.44618 0.01749 0.0
O1647 O 0.88187 0.43757 0.06148 0.0
O1648 O 0.88897 0.42907 0.0381 0.0
O1649 O 0.85632 0.47844 1.01245 0.0
O1650 O 0.87078 0.47552 0.03554 0.0
C1651 C 0.83702 0.45888 0.03731 0.0
C1652 C 0.83873 0.42063 0.02545 0.0
C1653 C 0.80858 0.45954 0.99351 0.0
C1654 C 0.79387 0.48176 1.0047 0.0
C1655 C 0.78312 0.45444 1.0073 0.0
C1656 C 0.79646 0.44873 0.99911 0.0
C1657 C 0.7818 0.47095 1.01011 0.0
C1658 C 0.80696 0.47603 0.99619 0.0
C1659 C 0.82377 0.45396 0.98673 0.0
C1660 C 0.88424 0.43028 0.94784 0.0
C1661 C 0.88574 0.41683 0.95676 0.0
H1662 H 0.88191 0.45886 0.9349 0.0
C1663 C 0.88951 0.45432 1.00417 0.0
C1664 C 0.86461 0.48515 0.02508 0.0
C1665 C 0.90923 0.4322 0.05864 0.0
C1666 C 0.93131 0.43044 0.07811 0.0
C1667 C 0.93589 0.44442 0.05351 0.0
C1668 C 0.92004 0.44077 0.04884 0.0
C1669 C 0.94146 0.43936 0.0679 0.0
C1670 C 0.91493 0.42713 0.07351 0.0
C1671 C 0.89205 0.42936 0.05344 0.0
H1672 H 0.7739 0.44604 1.01165 0.0
H1673 H 0.79744 0.4359 0.99747 0.0
H1674 H 0.77154 0.47524 0.01658 0.0
H1675 H 0.81613 0.4846 0.99193 0.0
H1676 H 0.94397 0.45123 0.04587 0.0
H1677 H 0.91621 0.44481 0.03751 0.0
H1678 H 0.95387 0.44252 0.0711 0.0
H1679 H 0.90678 0.4205 0.08124 0.0
C1680 C 0.66969 0.87393 0.08105 0.0
C1681 C 0.68666 0.8611 0.099 0.0
C1682 C 0.683 0.86566 0.08355 0.0
C1683 C 0.67625 0.86457 0.11176 0.0
C1684 C 0.65955 0.87812 0.09389 0.0
C1685 C 0.66265 0.873 0.10919 0.0
N1686 N 0.66745 0.87909 0.06627 0.0
C1687 C 0.65607 0.88962 0.06374 0.0
C1688 C 0.64711 0.88799 0.0911 0.0
C1689 C 0.64553 0.89399 0.076 0.0
Gd1690 Gd 0.68005 0.85047 0.99961 0.0
Gd1691 Gd 0.68549 0.87188 0.04594 0.0
N1692 N 0.69307 0.86323 0.07106 0.0
C1693 C 0.70099 0.85383 0.10127 0.0
C1694 C 0.7077 0.85746 0.07357 0.0
C1695 C 0.7117 0.85225 0.08853 0.0
H1696 H 0.71662 0.85725 0.06428 0.0
H1697 H 0.72319 0.84738 0.0903 0.0
H1698 H 0.6424 0.85597 0.98729 0.0
H1699 H 0.65504 0.89451 0.05213 0.0
H1700 H 0.62885 0.87533 0.97179 0.0
H1701 H 0.70421 0.85004 0.11292 0.0
H1702 H 0.67882 0.86115 0.12372 0.0
H1703 H 0.71923 0.85408 0.98936 0.0
H1704 H 0.63906 0.89152 0.10065 0.0
H1705 H 0.6363 0.90207 0.07382 0.0
H1706 H 0.6721 0.90569 0.94729 0.0
H1707 H 0.65493 0.87597 0.11921 0.0
H1708 H 0.72533 0.88965 0.95472 0.0
H1709 H 0.73678 0.86985 0.97145 0.0
N1710 N 0.69796 0.86482 0.98291 0.0
C1711 C 0.69137 0.87532 0.97351 0.0
C1712 C 0.71407 0.86269 0.98216 0.0
C1713 C 0.71753 0.88268 0.9625 0.0
C1714 C 0.72405 0.87155 0.97195 0.0
C1715 C 0.70103 0.88469 0.96319 0.0
H1716 H 0.70124 0.90325 0.94615 0.0
N1717 N 0.66575 0.86677 0.98353 0.0
C1718 C 0.67487 0.87661 0.97414 0.0
C1719 C 0.65098 0.88739 0.96421 0.0
C1720 C 0.66772 0.88736 0.9644 0.0
C1721 C 0.64948 0.86546 0.98186 0.0
C1722 C 0.64181 0.87609 0.97265 0.0
O1723 O 0.67941 0.85219 0.02911 0.0
O1724 O 0.67622 0.8302 1.01575 0.0
O1725 O 0.66703 0.82933 0.98859 0.0
O1726 O 0.68941 0.83851 0.97839 0.0
O1727 O 0.70603 0.8542 0.03846 0.0
O1728 O 0.70375 0.84335 1.01181 0.0
O1729 O 0.69515 0.87241 1.00864 0.0
O1730 O 0.67869 0.88561 0.02487 0.0
O1731 O 0.70868 0.88574 0.04991 0.0
O1732 O 0.68802 0.89698 0.04176 0.0
O1733 O 0.655 0.85733 1.01285 0.0
O1734 O 0.65786 0.86559 0.04041 0.0
C1735 C 0.67704 0.83674 0.02982 0.0
C1736 C 0.71151 0.8451 0.02591 0.0
C1737 C 0.68583 0.8107 0.98039 0.0
C1738 C 0.68282 0.78234 0.97254 0.0
C1739 C 0.70777 0.79369 0.98433 0.0
C1740 C 0.70156 0.80886 0.9855 0.0
C1741 C 0.6986 0.78048 0.97732 0.0
C1742 C 0.67638 0.79733 0.97514 0.0
C1743 C 0.67912 0.82635 0.97926 0.0
C1744 C 0.67739 0.89725 0.95469 0.0
C1745 C 0.69399 0.89582 0.95399 0.0
H1746 H 0.64502 0.89548 0.95693 0.0
C1747 C 0.6876 0.88532 1.01199 0.0
C1748 C 0.64849 0.86175 0.02737 0.0
C1749 C 0.70587 0.91351 0.05765 0.0
C1750 C 0.7241 0.93516 0.06885 0.0
C1751 C 0.69541 0.93612 0.07294 0.0
C1752 C 0.69287 0.92145 0.06439 0.0
C1753 C 0.71092 0.94299 0.07509 0.0
C1754 C 0.72161 0.92037 0.06009 0.0
C1755 C 0.70272 0.89919 0.04669 0.0
H1756 H 0.71997 0.79236 0.98807 0.0
H1757 H 0.70911 0.81913 0.98992 0.0
H1758 H 0.70393 0.76913 0.97513 0.0
H1759 H 0.66433 0.79915 0.97144 0.0
H1760 H 0.68532 0.94221 0.07785 0.0
H1761 H 0.68061 0.91657 0.06276 0.0
H1762 H 0.71269 0.95438 0.08187 0.0
H1763 H 0.73175 0.91445 0.05501 0.0
C1764 C 0.85323 0.73939 0.09274 0.0
C1765 C 0.82444 0.74186 0.0951 0.0
C1766 C 0.83749 0.73298 0.09002 0.0
C1767 C 0.82729 0.7571 0.10281 0.0
C1768 C 0.85602 0.75432 0.10133 0.0
C1769 C 0.84301 0.76329 0.10596 0.0
N1770 N 0.86572 0.7305 0.08816 0.0
C1771 C 0.8807 0.73456 0.09427 0.0
C1772 C 0.87175 0.75949 0.10572 0.0
C1773 C 0.88408 0.74933 0.10258 0.0
Gd1774 Gd 0.87238 0.70446 0.03048 0.0
Gd1775 Gd 0.85838 0.7064 0.07323 0.0
N1776 N 0.83496 0.71814 0.0824 0.0
C1777 C 0.80885 0.73527 0.09208 0.0
C1778 C 0.81972 0.71153 0.07988 0.0
C1779 C 0.8065 0.72008 0.08444 0.0
H1780 H 0.81756 0.69981 0.07412 0.0
H1781 H 0.79446 0.715 0.08197 0.0
H1782 H 0.91044 0.69476 0.0353 0.0
H1783 H 0.89002 0.7263 0.09302 0.0
H1784 H 0.92992 0.67818 0.02166 0.0
H1785 H 0.79853 0.74182 0.0956 0.0
H1786 H 0.81739 0.76412 0.10662 0.0
H1787 H 0.84483 0.71077 1.00338 0.0
H1788 H 0.87436 0.77086 0.11233 0.0
H1789 H 0.89611 0.75271 0.10687 0.0
H1790 H 0.90428 0.66045 0.97208 0.0
H1791 H 0.84497 0.77487 0.11236 0.0
H1792 H 0.85592 0.68462 0.95981 0.0
H1793 H 0.83893 0.70308 0.975 0.0
N1794 N 0.86515 0.6969 1.00403 0.0
C1795 C 0.8748 0.68695 0.99576 0.0
C1796 C 0.85225 0.70257 0.99687 0.0
C1797 C 0.85838 0.68765 0.9723 0.0
C1798 C 0.84877 0.69814 0.98086 0.0
C1799 C 0.87154 0.68182 0.97974 0.0
H1800 H 0.87951 0.66755 0.95918 0.0
N1801 N 0.89215 0.68957 0.0177 0.0
C1802 C 0.88873 0.68304 1.0029 0.0
C1803 C 0.91454 0.67158 1.00146 0.0
C1804 C 0.89977 0.67378 0.99437 0.0
C1805 C 0.90698 0.68836 0.02422 0.0
C1806 C 0.91827 0.67917 0.01635 0.0
O1807 O 0.84631 0.72566 0.05915 0.0
O1808 O 0.85113 0.72172 0.03194 0.0
O1809 O 0.88093 0.72874 0.03904 0.0
O1810 O 0.88967 0.71823 0.01658 0.0
O1811 O 0.83946 0.69255 0.05844 0.0
O1812 O 0.84583 0.69818 0.03197 0.0
O1813 O 0.87114 0.67814 0.03747 0.0
O1814 O 0.85981 0.67886 0.06291 0.0
O1815 O 0.85519 0.70617 0.09877 0.0
O1816 O 0.86938 0.68858 0.08707 0.0
O1817 O 0.88705 0.69685 0.05103 0.0
O1818 O 0.88169 0.71798 0.06602 0.0
C1819 C 0.84388 0.72946 0.04415 0.0
C1820 C 0.83603 0.69278 0.0432 0.0
C1821 C 0.89445 0.74626 0.02074 0.0
C1822 C 0.91453 0.76451 1.00853 0.0
C1823 C 0.887 0.77195 1.01232 0.0
C1824 C 0.88279 0.75729 0.01905 0.0
C1825 C 0.90273 0.77554 1.00703 0.0
C1826 C 0.91025 0.75004 1.01574 0.0
C1827 C 0.89083 0.73037 0.02703 0.0
C1828 C 0.89605 0.66773 0.97877 0.0
C1829 C 0.88196 0.67179 0.97144 0.0
H1830 H 0.92339 0.66465 0.99527 0.0
C1831 C 0.86524 0.67039 0.04989 0.0
C1832 C 0.89218 0.70833 0.0611 0.0
C1833 C 0.85079 0.68109 0.10712 0.0
C1834 C 0.82236 0.67327 0.1046 0.0
C1835 C 0.8351 0.67527 0.13074 0.0
C1836 C 0.8498 0.68003 0.12372 0.0
C1837 C 0.82128 0.6724 0.12128 0.0
C1838 C 0.83743 0.67637 0.0977 0.0
C1839 C 0.86196 0.69291 0.1002 0.0
H1840 H 0.87798 0.78045 1.01093 0.0
H1841 H 0.87052 0.75453 0.02276 0.0
H1842 H 0.90549 0.78672 1.00137 0.0
H1843 H 0.9192 0.74147 0.01731 0.0
H1844 H 0.83421 0.67478 0.1436 0.0
H1845 H 0.85993 0.6841 0.13127 0.0
H1846 H 0.8098 0.66983 0.12699 0.0
H1847 H 0.83827 0.67815 0.08504 0.0
C1848 C 0.44832 0.87838 1.00373 0.0
C1849 C 0.4391 0.85775 0.98379 0.0
C1850 C 0.43801 0.86523 0.99921 0.0
C1851 C 0.45049 0.8639 0.97291 0.0
C1852 C 0.45952 0.88483 0.99276 0.0
C1853 C 0.46063 0.87744 0.97736 0.0
N1854 N 0.44714 0.88508 0.01877 0.0
C1855 C 0.45561 0.8992 0.02309 0.0
C1856 C 0.46904 0.8987 0.99748 0.0
C1857 C 0.46692 0.90604 1.01266 0.0
Gd1858 Gd 0.43163 0.85561 0.07962 0.0
Gd1859 Gd 0.42666 0.87407 0.03492 0.0
N1860 N 0.42712 0.85957 1.01005 0.0
C1861 C 0.42873 0.84429 0.9798 0.0
C1862 C 0.41695 0.8465 1.00619 0.0
C1863 C 0.41763 0.83864 0.99105 0.0
H1864 H 0.40826 0.84204 1.01468 0.0
H1865 H 0.40956 0.82825 0.98805 0.0
H1866 H 0.46993 0.87201 0.08781 0.0
H1867 H 0.45374 0.90506 0.03472 0.0
H1868 H 0.48271 0.89283 0.10584 0.0
H1869 H 0.4292 0.83818 0.96807 0.0
H1870 H 0.45148 0.85832 0.961 0.0
H1871 H 0.39248 0.8546 0.08904 0.0
H1872 H 0.47776 0.90404 0.98939 0.0
H1873 H 0.47388 0.91701 0.01628 0.0
H1874 H 0.44015 0.91016 0.13955 0.0
H1875 H 0.46921 0.88217 0.96877 0.0
H1876 H 0.38699 0.88689 0.12971 0.0
H1877 H 0.3752 0.86702 0.10939 0.0
N1878 N 0.41385 0.86772 0.09734 0.0
C1879 C 0.42069 0.87833 0.10863 0.0
C1880 C 0.39779 0.86342 0.09765 0.0
C1881 C 0.39467 0.88151 0.12076 0.0
C1882 C 0.38795 0.87036 0.10926 0.0
C1883 C 0.41119 0.88562 0.12057 0.0
H1884 H 0.41124 0.90276 0.14094 0.0
N1885 N 0.44614 0.87508 0.09638 0.0
C1886 C 0.43717 0.88234 0.10795 0.0
C1887 C 0.46079 0.89796 0.11806 0.0
C1888 C 0.44431 0.89395 0.1191 0.0
C1889 C 0.4624 0.87846 0.09589 0.0
C1890 C 0.46986 0.89011 0.10646 0.0
O1891 O 0.42954 0.85347 0.04849 0.0
O1892 O 0.4395 0.83644 0.06219 0.0
O1893 O 0.44257 0.84702 0.10065 0.0
O1894 O 0.42184 0.83377 0.09001 0.0
O1895 O 0.40508 0.85305 0.04129 0.0
O1896 O 0.40795 0.84377 0.06726 0.0
O1897 O 0.41959 0.87864 0.07437 0.0
O1898 O 0.43366 0.89248 0.05596 0.0
O1899 O 0.41334 0.88448 0.01598 0.0
O1900 O 0.41138 0.89393 0.0403 0.0
O1901 O 0.45673 0.86051 0.0657 0.0
O1902 O 0.4544 0.87381 0.04169 0.0
C1903 C 0.4365 0.83997 0.04792 0.0
C1904 C 0.39989 0.84309 0.05331 0.0
C1905 C 0.4436 0.81936 0.09627 0.0
C1906 C 0.46744 0.80861 0.08408 0.0
C1907 C 0.44779 0.79117 0.09762 0.0
C1908 C 0.43854 0.80419 0.10134 0.0
C1909 C 0.46227 0.79336 0.08921 0.0
C1910 C 0.4576 0.82125 0.08711 0.0
C1911 C 0.43417 0.83331 0.09933 0.0
C1912 C 0.43484 0.90121 0.13095 0.0
C1913 C 0.41837 0.89698 0.13176 0.0
H1914 H 0.46666 0.90691 0.12631 0.0
C1915 C 0.4278 0.89202 0.07067 0.0
C1916 C 0.46351 0.86735 0.0527 0.0
C1917 C 0.41385 0.91323 0.01955 0.0
C1918 C 0.41487 0.93438 0.99945 0.0
C1919 C 0.42771 0.93949 0.02548 0.0
C1920 C 0.42279 0.92414 0.02998 0.0
C1921 C 0.42378 0.94455 1.01053 0.0
C1922 C 0.41001 0.91844 1.00399 0.0
C1923 C 0.4092 0.89656 0.02517 0.0
H1924 H 0.44397 0.77943 0.10163 0.0
H1925 H 0.42751 0.80244 0.10808 0.0
H1926 H 0.46967 0.78329 0.08742 0.0
H1927 H 0.46116 0.8329 0.08273 0.0
H1928 H 0.43464 0.9476 0.03373 0.0
H1929 H 0.42616 0.92083 0.04175 0.0
H1930 H 0.42782 0.95661 1.00756 0.0
H1931 H 0.40317 0.91033 0.99566 0.0
C1932 C 0.68569 0.24096 0.97297 0.0
C1933 C 0.6629 0.22376 0.96304 0.0
C1934 C 0.66959 0.23555 0.97428 0.0
C1935 C 0.67232 0.21792 0.95038 0.0
C1936 C 0.69521 0.23494 0.96033 0.0
C1937 C 0.6884 0.22354 0.94899 0.0
N1938 N 0.69226 0.25152 0.98444 0.0
C1939 C 0.708 0.25702 0.98367 0.0
C1940 C 0.71142 0.24033 0.95962 0.0
C1941 C 0.71783 0.25142 0.97134 0.0
Gd1942 Gd 0.67938 0.24595 0.04579 0.0
Gd1943 Gd 0.67449 0.26168 1.00342 0.0
N1944 N 0.66072 0.24128 0.98681 0.0
C1945 C 0.64699 0.2179 0.96497 0.0
C1946 C 0.64505 0.23558 0.98855 0.0
C1947 C 0.63807 0.2238 0.97779 0.0
H1948 H 0.6375 0.23987 0.99798 0.0
H1949 H 0.62573 0.21933 0.97937 0.0
H1950 H 0.69923 0.27202 0.07124 0.0
H1951 H 0.71306 0.26577 0.99248 0.0
H1952 H 0.69554 0.2846 0.09837 0.0
H1953 H 0.6415 0.20875 0.95668 0.0
H1954 H 0.66734 0.20887 0.94169 0.0
H1955 H 0.65326 0.21346 0.04314 0.0
H1956 H 0.7191 0.23597 0.95011 0.0
H1957 H 0.73034 0.25572 0.97083 0.0
H1958 H 0.64571 0.25958 0.11639 0.0
H1959 H 0.69555 0.21877 0.93924 0.0
H1960 H 0.62255 0.21486 0.08421 0.0
H1961 H 0.63065 0.20153 0.05861 0.0
N1962 N 0.65737 0.23379 0.0594 0.0
C1963 C 0.65383 0.24067 0.07396 0.0
C1964 C 0.64976 0.21942 0.05424 0.0
C1965 C 0.63241 0.22021 0.07741 0.0
C1966 C 0.63695 0.21263 0.06298 0.0
C1967 C 0.64109 0.23421 0.08325 0.0
H1968 H 0.62802 0.23686 0.10556 0.0
N1969 N 0.67693 0.25819 0.07145 0.0
C1970 C 0.66383 0.2534 0.08009 0.0
C1971 C 0.67267 0.27175 0.10207 0.0
C1972 C 0.6613 0.26011 0.09563 0.0
C1973 C 0.68851 0.26886 0.07798 0.0
C1974 C 0.68647 0.27595 0.09331 0.0
O1975 O 0.68837 0.23952 1.00671 0.0
O1976 O 0.67216 0.22784 0.02436 0.0
O1977 O 0.68956 0.23535 0.06656 0.0
O1978 O 0.69647 0.2271 0.04307 0.0
O1979 O 0.64884 0.25823 0.01598 0.0
O1980 O 0.65151 0.24751 0.04078 0.0
O1981 O 0.67971 0.27294 0.04596 0.0
O1982 O 0.664 0.27495 0.02406 0.0
O1983 O 0.66306 0.2709 0.98308 0.0
O1984 O 0.68242 0.28506 0.99508 0.0
O1985 O 0.70142 0.26599 0.03942 0.0
O1986 O 0.69709 0.27576 1.01442 0.0
C1987 C 0.68052 0.22635 1.01101 0.0
C1988 C 0.64205 0.2524 0.02935 0.0
C1989 C 0.69243 0.20715 0.0632 0.0
C1990 C 0.69201 0.18498 0.08235 0.0
C1991 C 0.67887 0.18102 0.05626 0.0
C1992 C 0.6836 0.1966 0.0524 0.0
C1993 C 0.68295 0.17533 0.0709 0.0
C1994 C 0.69653 0.20126 0.07847 0.0
C1995 C 0.69646 0.22422 0.05834 0.0
C1996 C 0.64797 0.25445 0.1045 0.0
C1997 C 0.63789 0.24151 0.09833 0.0
H1998 H 0.67118 0.27716 0.11399 0.0
C1999 C 0.6699 0.28087 0.03771 0.0
C2000 C 0.70588 0.2763 0.02768 0.0
C2001 C 0.65975 0.29845 0.98829 0.0
C2002 C 0.63257 0.30712 0.99105 0.0
C2003 C 0.65524 0.32521 0.9995 0.0
C2004 C 0.66578 0.31353 0.99474 0.0
C2005 C 0.63865 0.32198 0.99784 0.0
C2006 C 0.64316 0.29551 0.98634 0.0
C2007 C 0.67028 0.28512 0.98542 0.0
H2008 H 0.6719 0.17322 0.04776 0.0
H2009 H 0.68011 0.20044 0.04086 0.0
H2010 H 0.67883 0.16313 0.07331 0.0
H2011 H 0.70331 0.20913 0.08704 0.0
H2012 H 0.65994 0.3367 1.00468 0.0
H2013 H 0.67856 0.3161 0.99654 0.0
H2014 H 0.63063 0.33112 1.00158 0.0
H2015 H 0.63829 0.2839 0.98155 0.0
C2016 C 0.50641 0.73601 0.91463 0.0
C2017 C 0.49732 0.72094 0.9372 0.0
C2018 C 0.50741 0.7332 0.93071 0.0
C2019 C 0.48627 0.7117 0.92731 0.0
C2020 C 0.49512 0.72697 0.9047 0.0
C2021 C 0.48504 0.71484 0.91114 0.0
N2022 N 0.5169 0.74721 0.90856 0.0
C2023 C 0.51609 0.75061 0.89279 0.0
C2024 C 0.49454 0.73011 0.88849 0.0
C2025 C 0.50503 0.74205 0.88254 0.0
Gd2026 Gd 0.57804 0.74679 0.91743 0.0
Gd2027 Gd 0.53512 0.76131 0.9266 0.0
N2028 N 0.51824 0.74237 0.93998 0.0
C2029 C 0.49855 0.71837 0.95347 0.0
C2030 C 0.51866 0.74052 0.95609 0.0
C2031 C 0.50911 0.72835 0.96298 0.0
H2032 H 0.52605 0.74851 0.96388 0.0
H2033 H 0.50977 0.7268 0.9757 0.0
H2034 H 0.59913 0.77356 0.89667 0.0
H2035 H 0.52405 0.75981 0.88796 0.0
H2036 H 0.62751 0.78162 0.89145 0.0
H2037 H 0.49112 0.709 0.95887 0.0
H2038 H 0.47852 0.70219 0.93208 0.0
H2039 H 0.57832 0.71733 0.94296 0.0
H2040 H 0.4861 0.72337 0.88048 0.0
H2041 H 0.50463 0.74465 0.87003 0.0
H2042 H 0.65655 0.75082 0.92666 0.0
H2043 H 0.47638 0.70772 0.90368 0.0
H2044 H 0.62647 0.71394 0.95878 0.0
H2045 H 0.59775 0.7046 0.95931 0.0
N2046 N 0.59549 0.73498 0.93464 0.0
C2047 C 0.61125 0.7401 0.934 0.0
C2048 C 0.5907 0.72198 0.94312 0.0
C2049 C 0.61789 0.71998 0.95204 0.0
C2050 C 0.6017 0.71463 0.95232 0.0
C2051 C 0.62292 0.73249 0.94239 0.0
H2052 H 0.6484 0.73105 0.94628 0.0
N2053 N 0.60428 0.75838 0.91527 0.0
C2054 C 0.61584 0.75196 0.92373 0.0
C2055 C 0.63642 0.76665 0.90905 0.0
C2056 C 0.63223 0.75585 0.92077 0.0
C2057 C 0.6083 0.76896 0.90383 0.0
C2058 C 0.62439 0.77334 0.90063 0.0
O2059 O 0.54037 0.73935 0.91138 0.0
O2060 O 0.55835 0.72937 0.92664 0.0
O2061 O 0.56923 0.73033 0.89768 0.0
O2062 O 0.5946 0.73357 0.90259 0.0
O2063 O 0.54898 0.75792 0.95084 0.0
O2064 O 0.57456 0.7492 0.94565 0.0
O2065 O 0.57737 0.77347 0.91877 0.0
O2066 O 0.55673 0.77593 0.93648 0.0
O2067 O 0.51868 0.77548 0.94078 0.0
O2068 O 0.52311 0.7802 0.91608 0.0
O2069 O 0.56984 0.76411 0.89754 0.0
O2070 O 0.54497 0.77337 0.90426 0.0
C2071 C 0.54486 0.72715 0.91879 0.0
C2072 C 0.56307 0.75324 0.95618 0.0
C2073 C 0.58514 0.70761 0.89301 0.0
C2074 C 0.60219 0.68491 0.88849 0.0
C2075 C 0.57363 0.68025 0.89411 0.0
C2076 C 0.57186 0.6967 0.89501 0.0
C2077 C 0.58862 0.67439 0.891 0.0
C2078 C 0.60029 0.70161 0.88956 0.0
C2079 C 0.58339 0.72519 0.89458 0.0
C2080 C 0.6439 0.7482 0.92896 0.0
C2081 C 0.63925 0.73686 0.94007 0.0
H2082 H 0.64889 0.76981 0.9063 0.0
C2083 C 0.5684 0.78231 0.92799 0.0
C2084 C 0.5574 0.77296 0.8944 0.0
C2085 C 0.52548 0.80236 0.93387 0.0
C2086 C 0.54256 0.81991 0.95193 0.0
C2087 C 0.53842 0.82714 0.92465 0.0
C2088 C 0.52836 0.81324 0.92179 0.0
C2089 C 0.54559 0.83045 0.93962 0.0
C2090 C 0.53237 0.80599 0.94891 0.0
C2091 C 0.51841 0.786 0.92983 0.0
H2092 H 0.56332 0.67198 0.89595 0.0
H2093 H 0.56009 0.70084 0.89735 0.0
H2094 H 0.58957 0.66155 0.89084 0.0
H2095 H 0.61052 0.70997 0.88765 0.0
H2096 H 0.54077 0.83529 0.9152 0.0
H2097 H 0.52336 0.81066 0.90994 0.0
H2098 H 0.55328 0.84132 0.94165 0.0
H2099 H 0.52976 0.79787 0.95836 0.0
C2100 C 0.36697 0.47969 0.90776 0.0
C2101 C 0.37735 0.4629 0.92742 0.0
C2102 C 0.36883 0.47619 0.92361 0.0
C2103 C 0.38331 0.45287 0.91513 0.0
C2104 C 0.37322 0.46979 0.89537 0.0
C2105 C 0.38116 0.45624 0.89914 0.0
N2106 N 0.3602 0.4935 0.90453 0.0
C2107 C 0.35887 0.4977 0.88905 0.0
C2108 C 0.37191 0.47413 0.87958 0.0
C2109 C 0.36474 0.48816 0.87642 0.0
Gd2110 Gd 0.37353 0.54916 0.92969 0.0
Gd2111 Gd 0.34925 0.5078 0.92672 0.0
N2112 N 0.36309 0.48621 0.93531 0.0
C2113 C 0.38006 0.46034 0.9435 0.0
C2114 C 0.36538 0.48342 0.95097 0.0
C2115 C 0.3742 0.47077 0.95531 0.0
H2116 H 0.36025 0.49073 0.96019 0.0
H2117 H 0.37626 0.46892 0.9678 0.0
H2118 H 0.35251 0.57603 0.91243 0.0
H2119 H 0.35368 0.50857 0.88627 0.0
H2120 H 0.34247 0.60266 0.91908 0.0
H2121 H 0.38674 0.45042 0.94691 0.0
H2122 H 0.38985 0.44263 0.91787 0.0
H2123 H 0.40363 0.54553 0.9551 0.0
H2124 H 0.37664 0.46688 0.86976 0.0
H2125 H 0.36381 0.49171 0.86425 0.0
H2126 H 0.36503 0.61792 0.97077 0.0
H2127 H 0.38609 0.44856 0.88979 0.0
H2128 H 0.40391 0.58442 0.99063 0.0
H2129 H 0.41511 0.55945 0.97971 0.0
N2130 N 0.38564 0.56201 0.95271 0.0
C2131 C 0.37995 0.57615 0.95799 0.0
C2132 C 0.39861 0.55635 0.95989 0.0
C2133 C 0.39873 0.57827 0.97995 0.0
C2134 C 0.40512 0.5642 0.9738 0.0
C2135 C 0.38624 0.58463 0.97183 0.0
H2136 H 0.38492 0.60612 0.98734 0.0
N2137 N 0.36425 0.57484 0.93475 0.0
C2138 C 0.36881 0.58277 0.9487 0.0
C2139 C 0.35363 0.60511 0.94231 0.0
C2140 C 0.36357 0.5981 0.95293 0.0
C2141 C 0.3554 0.58203 0.92389 0.0
C2142 C 0.34976 0.59715 0.92759 0.0
O2143 O 0.37443 0.51158 0.91608 0.0
O2144 O 0.38728 0.52683 0.93511 0.0
O2145 O 0.39133 0.54521 0.91089 0.0
O2146 O 0.38928 0.56901 0.92174 0.0
O2147 O 0.3545 0.51606 0.95409 0.0
O2148 O 0.36925 0.54079 0.95608 0.0
O2149 O 0.347 0.54907 0.92844 0.0
O2150 O 0.3387 0.52741 0.9422 0.0
O2151 O 0.33332 0.48794 0.93427 0.0
O2152 O 0.32674 0.50152 0.91441 0.0
O2153 O 0.35515 0.54653 0.90698 0.0
O2154 O 0.33959 0.52243 0.90675 0.0
C2155 C 0.38703 0.51393 0.92539 0.0
C2156 C 0.36209 0.52814 0.96313 0.0
C2157 C 0.41548 0.56272 0.91392 0.0
C2158 C 0.44062 0.58026 0.91283 0.0
C2159 C 0.44098 0.55263 0.92078 0.0
C2160 C 0.42442 0.55029 0.91884 0.0
C2161 C 0.44897 0.56736 0.91787 0.0
C2162 C 0.42366 0.57782 0.91102 0.0
C2163 C 0.39766 0.56002 0.91227 0.0
C2164 C 0.36903 0.6062 0.96722 0.0
C2165 C 0.38036 0.59948 0.97666 0.0
H2166 H 0.34936 0.61688 0.94509 0.0
C2167 C 0.33752 0.54239 0.93886 0.0
C2168 C 0.34334 0.53629 0.90025 0.0
C2169 C 0.30591 0.49295 0.93122 0.0
C2170 C 0.28901 0.5008 0.95379 0.0
C2171 C 0.2769 0.49152 0.92839 0.0
C2172 C 0.29213 0.48944 0.92183 0.0
C2173 C 0.27529 0.49693 0.94441 0.0
C2174 C 0.30426 0.499 0.947 0.0
C2175 C 0.32197 0.49087 0.92441 0.0
H2176 H 0.44769 0.54295 0.9247 0.0
H2177 H 0.41861 0.53872 0.92135 0.0
H2178 H 0.4618 0.5687 0.91987 0.0
H2179 H 0.41688 0.58752 0.90724 0.0
H2180 H 0.2663 0.48862 0.92113 0.0
H2181 H 0.29315 0.48503 0.90948 0.0
H2182 H 0.26343 0.49782 0.94954 0.0
H2183 H 0.31492 0.50164 0.95429 0.0
C2184 C 0.57119 0.38351 0.93027 0.0
C2185 C 0.59397 0.36868 0.92189 0.0
C2186 C 0.57757 0.3715 0.9208 0.0
C2187 C 0.60366 0.3777 0.93325 0.0
C2188 C 0.58097 0.393 0.9413 0.0
C2189 C 0.59716 0.38981 0.94297 0.0
N2190 N 0.55563 0.3865 0.92801 0.0
C2191 C 0.54929 0.39934 0.9359 0.0
C2192 C 0.57431 0.40569 0.94997 0.0
C2193 C 0.55844 0.40897 0.94713 0.0
Gd2194 Gd 0.49673 0.34793 0.91153 0.0
Gd2195 Gd 0.54082 0.36901 0.90967 0.0
N2196 N 0.56794 0.36324 0.90979 0.0
C2197 C 0.60022 0.35724 0.91122 0.0
C2198 C 0.5741 0.35254 0.89892 0.0
C2199 C 0.59027 0.34925 0.89956 0.0
H2200 H 0.56652 0.34642 0.88981 0.0
H2201 H 0.59504 0.34062 0.89103 0.0
H2202 H 0.481 0.3572 0.94792 0.0
H2203 H 0.53712 0.40216 0.93375 0.0
H2204 H 0.45949 0.37293 0.95925 0.0
H2205 H 0.61277 0.35475 0.91163 0.0
H2206 H 0.61626 0.37563 0.93437 0.0
H2207 H 0.49386 0.34963 0.87181 0.0
H2208 H 0.58141 0.41325 0.95858 0.0
H2209 H 0.55327 0.41896 0.95354 0.0
H2210 H 0.43238 0.38989 0.91344 0.0
H2211 H 0.60484 0.39691 0.95144 0.0
H2212 H 0.45261 0.37485 0.86149 0.0
H2213 H 0.47595 0.36018 0.85219 0.0
N2214 N 0.48075 0.35815 0.89201 0.0
C2215 C 0.46767 0.36567 0.89735 0.0
C2216 C 0.48364 0.35586 0.876 0.0
C2217 C 0.46031 0.37006 0.87015 0.0
C2218 C 0.47352 0.36184 0.86486 0.0
C2219 C 0.45728 0.37213 0.88657 0.0
H2220 H 0.43645 0.38592 0.88441 0.0
N2221 N 0.47572 0.36152 0.92377 0.0
C2222 C 0.46533 0.36777 0.91373 0.0
C2223 C 0.45066 0.37863 0.93629 0.0
C2224 C 0.45257 0.37656 0.91972 0.0
C2225 C 0.47347 0.36295 0.93993 0.0
C2226 C 0.46108 0.37168 0.94642 0.0
O2227 O 0.5458 0.34373 0.91579 0.0
O2228 O 0.52155 0.34811 0.9158 0.0
O2229 O 0.48281 0.32961 0.92405 0.0
O2230 O 0.48824 0.32596 0.89876 0.0
O2231 O 0.5369 0.34747 0.88898 0.0
O2232 O 0.51066 0.33572 0.88996 0.0
O2233 O 0.49936 0.37281 0.90204 0.0
O2234 O 0.51893 0.38389 0.91854 0.0
O2235 O 0.55629 0.38478 0.8959 0.0
O2236 O 0.53113 0.38021 0.88922 0.0
O2237 O 0.50735 0.35451 0.93815 0.0
O2238 O 0.53283 0.36846 0.93696 0.0
C2239 C 0.53167 0.33762 0.91864 0.0
C2240 C 0.52537 0.33639 0.88325 0.0
C2241 C 0.48697 0.30322 0.91406 0.0
C2242 C 0.48189 0.27946 0.92905 0.0
C2243 C 0.50405 0.28091 0.91035 0.0
C2244 C 0.49998 0.29618 0.90637 0.0
C2245 C 0.49515 0.27258 0.92189 0.0
C2246 C 0.47797 0.29472 0.92504 0.0
C2247 C 0.48255 0.31954 0.91153 0.0
C2248 C 0.4422 0.38306 0.90903 0.0
C2249 C 0.44449 0.38077 0.8925 0.0
H2250 H 0.44107 0.38539 0.94137 0.0
C2251 C 0.50491 0.38509 0.91125 0.0
C2252 C 0.52055 0.362 0.94558 0.0
C2253 C 0.54429 0.40616 0.88489 0.0
C2254 C 0.55887 0.43164 0.87894 0.0
C2255 C 0.5311 0.43108 0.88809 0.0
C2256 C 0.53067 0.41445 0.88886 0.0
C2257 C 0.54509 0.43965 0.88331 0.0
C2258 C 0.55825 0.4148 0.87969 0.0
C2259 C 0.54467 0.38872 0.88689 0.0
H2260 H 0.51429 0.27567 0.90472 0.0
H2261 H 0.50721 0.30258 0.8977 0.0
H2262 H 0.49862 0.26102 0.92528 0.0
H2263 H 0.46808 0.30034 0.93106 0.0
H2264 H 0.52059 0.4374 0.89142 0.0
H2265 H 0.51975 0.40816 0.89269 0.0
H2266 H 0.54514 0.45259 0.88336 0.0
H2267 H 0.56866 0.40833 0.87633 0.0
C2268 C 0.75466 0.63585 0.89128 0.0
C2269 C 0.74249 0.64896 0.91432 0.0
C2270 C 0.75312 0.63797 0.90769 0.0
C2271 C 0.73305 0.65726 0.90418 0.0
C2272 C 0.74589 0.64483 0.88103 0.0
C2273 C 0.73484 0.65529 0.88756 0.0
N2274 N 0.76487 0.62508 0.88531 0.0
C2275 C 0.76811 0.62386 0.86929 0.0
C2276 C 0.74849 0.64297 0.86453 0.0
C2277 C 0.75982 0.63261 0.85865 0.0
Gd2278 Gd 0.75985 0.5663 0.9024 0.0
Gd2279 Gd 0.77827 0.61065 0.90393 0.0
N2280 N 0.76257 0.62988 0.91714 0.0
C2281 C 0.74204 0.65164 0.93094 0.0
C2282 C 0.76328 0.63371 0.9332 0.0
C2283 C 0.75275 0.64425 0.94039 0.0
H2284 H 0.77219 0.62896 0.94051 0.0
H2285 H 0.75311 0.64689 0.95319 0.0
H2286 H 0.78593 0.54197 0.88553 0.0
H2287 H 0.77685 0.61587 0.86467 0.0
H2288 H 0.79673 0.51595 0.89028 0.0
H2289 H 0.734 0.65992 0.93651 0.0
H2290 H 0.72465 0.66555 0.90907 0.0
H2291 H 0.72692 0.56831 0.92497 0.0
H2292 H 0.74198 0.64963 0.85626 0.0
H2293 H 0.76215 0.63132 0.84594 0.0
H2294 H 0.76725 0.4976 0.93596 0.0
H2295 H 0.72774 0.66203 0.87988 0.0
H2296 H 0.7238 0.52827 0.95478 0.0
H2297 H 0.7129 0.5531 0.94598 0.0
N2298 N 0.74576 0.55252 0.92233 0.0
C2299 C 0.7515 0.53859 0.92645 0.0
C2300 C 0.73173 0.55749 0.92874 0.0
C2301 C 0.73002 0.53495 0.94563 0.0
C2302 C 0.7238 0.54893 0.94066 0.0
C2303 C 0.74388 0.52945 0.9383 0.0
H2304 H 0.74437 0.50772 0.95116 0.0
N2305 N 0.77046 0.54152 0.90577 0.0
C2306 C 0.76432 0.53292 0.9179 0.0
C2307 C 0.78202 0.51194 0.9111 0.0
C2308 C 0.76997 0.51791 0.92096 0.0
C2309 C 0.7816 0.53541 0.8956 0.0
C2310 C 0.78771 0.52064 0.89823 0.0
O2311 O 0.75694 0.60119 0.88968 0.0
O2312 O 0.74565 0.58777 0.90919 0.0
O2313 O 0.74561 0.56994 0.88124 0.0
O2314 O 0.74368 0.54702 0.89192 0.0
O2315 O 0.77198 0.60207 0.93048 0.0
O2316 O 0.75975 0.57608 0.9291 0.0
O2317 O 0.78689 0.56894 0.90445 0.0
O2318 O 0.78942 0.59318 0.91843 0.0
O2319 O 0.79219 0.63298 0.9098 0.0
O2320 O 0.80133 0.61549 0.89275 0.0
O2321 O 0.77887 0.56992 0.88162 0.0
O2322 O 0.78873 0.59661 0.88238 0.0
C2323 C 0.74436 0.5982 0.89839 0.0
C2324 C 0.76469 0.58938 0.93777 0.0
C2325 C 0.71969 0.55624 0.88216 0.0
C2326 C 0.69292 0.54425 0.8749 0.0
C2327 C 0.69578 0.56859 0.8921 0.0
C2328 C 0.71236 0.568 0.89164 0.0
C2329 C 0.68609 0.55685 0.88376 0.0
C2330 C 0.70985 0.54414 0.87393 0.0
C2331 C 0.73747 0.55609 0.88181 0.0
C2332 C 0.76299 0.5091 0.93333 0.0
C2333 C 0.74996 0.51486 0.94198 0.0
H2334 H 0.78666 0.50043 0.91302 0.0
C2335 C 0.79549 0.57994 0.91309 0.0
C2336 C 0.78826 0.58187 0.87565 0.0
C2337 C 0.82042 0.63306 0.90664 0.0
C2338 C 0.83801 0.65108 0.92333 0.0
C2339 C 0.84825 0.62729 0.91027 0.0
C2340 C 0.83314 0.62316 0.90345 0.0
C2341 C 0.85062 0.64103 0.92056 0.0
C2342 C 0.82322 0.64724 0.9159 0.0
C2343 C 0.80411 0.62923 0.90051 0.0
H2344 H 0.69041 0.57788 0.8994 0.0
H2345 H 0.71938 0.57649 0.89913 0.0
H2346 H 0.67319 0.55717 0.88498 0.0
H2347 H 0.7153 0.53454 0.86713 0.0
H2348 H 0.85795 0.61953 0.90804 0.0
H2349 H 0.83138 0.61222 0.89596 0.0
H2350 H 0.86197 0.64353 0.92669 0.0
H2351 H 0.81332 0.65475 0.91844 0.0
C2352 C 0.49683 0.37552 0.15144 0.0
C2353 C 0.4762 0.35962 0.165 0.0
C2354 C 0.49252 0.36376 0.16191 0.0
C2355 C 0.46433 0.36672 0.15657 0.0
C2356 C 0.48495 0.38273 0.14294 0.0
C2357 C 0.4687 0.37794 0.14525 0.0
N2358 N 0.51248 0.38098 0.15074 0.0
C2359 C 0.51695 0.39405 0.14223 0.0
C2360 C 0.48968 0.39527 0.13321 0.0
C2361 C 0.50575 0.40105 0.13297 0.0
Gd2362 Gd 0.57318 0.35516 0.15905 0.0
Gd2363 Gd 0.53032 0.36969 0.16796 0.0
N2364 N 0.50426 0.35771 0.17044 0.0
C2365 C 0.47228 0.34906 0.17703 0.0
C2366 C 0.5005 0.34724 0.18204 0.0
C2367 C 0.48449 0.34263 0.18539 0.0
H2368 H 0.5098 0.34288 0.18921 0.0
H2369 H 0.48158 0.33445 0.19471 0.0
H2370 H 0.58175 0.36888 0.12192 0.0
H2371 H 0.52923 0.39901 0.14243 0.0
H2372 H 0.5982 0.3906 0.11041 0.0
H2373 H 0.45987 0.34576 0.17992 0.0
H2374 H 0.45174 0.36384 0.15893 0.0
H2375 H 0.58345 0.35679 0.19787 0.0
H2376 H 0.48093 0.40103 0.1264 0.0
H2377 H 0.50945 0.41114 0.12595 0.0
H2378 H 0.62954 0.41448 0.15426 0.0
H2379 H 0.45939 0.38338 0.13891 0.0
H2380 H 0.62144 0.39316 0.20574 0.0
H2381 H 0.60274 0.37192 0.21601 0.0
N2382 N 0.5908 0.36949 0.17741 0.0
C2383 C 0.60141 0.38064 0.17139 0.0
C2384 C 0.59146 0.36602 0.19316 0.0
C2385 C 0.61304 0.38646 0.19765 0.0
C2386 C 0.60245 0.37455 0.20351 0.0
C2387 C 0.61264 0.38963 0.18143 0.0
H2388 H 0.63142 0.40883 0.18265 0.0
N2389 N 0.58968 0.37454 0.14588 0.0
C2390 C 0.60054 0.38354 0.15528 0.0
C2391 C 0.60952 0.3986 0.13271 0.0
C2392 C 0.6107 0.39584 0.14894 0.0
C2393 C 0.58921 0.37666 0.12982 0.0
C2394 C 0.59885 0.38886 0.12309 0.0
O2395 O 0.53107 0.343 0.16643 0.0
O2396 O 0.55195 0.34012 0.14889 0.0
O2397 O 0.59173 0.34315 0.14566 0.0
O2398 O 0.58459 0.33561 0.16903 0.0
O2399 O 0.53868 0.35265 0.18802 0.0
O2400 O 0.56314 0.34259 0.18099 0.0
O2401 O 0.56761 0.37717 0.17401 0.0
O2402 O 0.54983 0.38693 0.15839 0.0
O2403 O 0.53902 0.38632 0.18764 0.0
O2404 O 0.51371 0.38326 0.18242 0.0
O2405 O 0.55942 0.35794 0.1347 0.0
O2406 O 0.5342 0.3676 0.13979 0.0
C2407 C 0.53966 0.33408 0.15686 0.0
C2408 C 0.55083 0.34336 0.19097 0.0
C2409 C 0.58699 0.31545 0.14961 0.0
C2410 C 0.56945 0.29797 0.13173 0.0
C2411 C 0.58298 0.28723 0.15426 0.0
C2412 C 0.59029 0.30236 0.15841 0.0
C2413 C 0.57255 0.28503 0.14119 0.0
C2414 C 0.57656 0.31321 0.13655 0.0
C2415 C 0.59176 0.3318 0.15574 0.0
C2416 C 0.62173 0.40495 0.15893 0.0
C2417 C 0.62282 0.40174 0.17509 0.0
H2418 H 0.61701 0.408 0.12742 0.0
C2419 C 0.56324 0.38924 0.16632 0.0
C2420 C 0.54557 0.3631 0.12933 0.0
C2421 C 0.52332 0.4093 0.19158 0.0
C2422 C 0.50655 0.43229 0.1956 0.0
C2423 C 0.53495 0.43644 0.18903 0.0
C2424 C 0.53658 0.41999 0.18882 0.0
C2425 C 0.52009 0.44255 0.19224 0.0
C2426 C 0.50832 0.41556 0.19519 0.0
C2427 C 0.52488 0.39167 0.19045 0.0
H2428 H 0.58537 0.27716 0.16124 0.0
H2429 H 0.59799 0.30396 0.16883 0.0
H2430 H 0.56733 0.27304 0.13854 0.0
H2431 H 0.57428 0.32365 0.1302 0.0
H2432 H 0.54524 0.44451 0.18656 0.0
H2433 H 0.54823 0.41568 0.18642 0.0
H2434 H 0.51924 0.45536 0.1918 0.0
H2435 H 0.49811 0.40738 0.19769 0.0
C2436 C 0.72491 0.53886 0.12721 0.0
C2437 C 0.74086 0.51657 0.13222 0.0
C2438 C 0.73609 0.5321 0.13634 0.0
C2439 C 0.73489 0.50837 0.11816 0.0
C2440 C 0.71812 0.53032 0.11364 0.0
C2441 C 0.72353 0.51524 0.10888 0.0
N2442 N 0.71973 0.55326 0.13239 0.0
C2443 C 0.70675 0.55913 0.12543 0.0
C2444 C 0.70563 0.53687 0.1057 0.0
C2445 C 0.69973 0.55122 0.11179 0.0
Gd2446 Gd 0.7576 0.6073 0.15595 0.0
Gd2447 Gd 0.7328 0.56621 0.15487 0.0
N2448 N 0.74118 0.54015 0.15007 0.0
C2449 C 0.75086 0.50947 0.14273 0.0
C2450 C 0.75006 0.5329 0.16085 0.0
C2451 C 0.75524 0.51757 0.15725 0.0
H2452 H 0.75337 0.53905 0.17215 0.0
H2453 H 0.76258 0.512 0.16568 0.0
H2454 H 0.74678 0.62347 0.12108 0.0
H2455 H 0.70213 0.57018 0.13017 0.0
H2456 H 0.7324 0.64595 0.11302 0.0
H2457 H 0.75478 0.49755 0.14002 0.0
H2458 H 0.73853 0.4965 0.11469 0.0
H2459 H 0.7552 0.60947 0.19687 0.0
H2460 H 0.70008 0.53069 0.09522 0.0
H2461 H 0.68975 0.55613 0.10603 0.0
H2462 H 0.71849 0.67348 0.16208 0.0
H2463 H 0.71859 0.50855 0.09839 0.0
H2464 H 0.73243 0.65182 0.21123 0.0
H2465 H 0.7456 0.62759 0.218 0.0
N2466 N 0.74792 0.62312 0.17769 0.0
C2467 C 0.74093 0.6366 0.1737 0.0
C2468 C 0.74982 0.62002 0.19343 0.0
C2469 C 0.73687 0.64397 0.20174 0.0
C2470 C 0.74425 0.63029 0.20561 0.0
C2471 C 0.73507 0.64726 0.18568 0.0
H2472 H 0.7225 0.66882 0.19039 0.0
N2473 N 0.74421 0.62872 0.14616 0.0
C2474 C 0.73875 0.63928 0.15759 0.0
C2475 C 0.72818 0.65492 0.13711 0.0
C2476 C 0.73056 0.65263 0.15329 0.0
C2477 C 0.74216 0.63121 0.13032 0.0
C2478 C 0.73405 0.64419 0.12559 0.0
O2479 O 0.75936 0.56563 0.15561 0.0
O2480 O 0.76672 0.58683 0.14087 0.0
O2481 O 0.77255 0.62851 0.15055 0.0
O2482 O 0.78273 0.60995 0.16318 0.0
O2483 O 0.75181 0.56916 0.17687 0.0
O2484 O 0.76672 0.59366 0.17685 0.0
O2485 O 0.73312 0.60399 0.16805 0.0
O2486 O 0.71952 0.58882 0.14948 0.0
O2487 O 0.71551 0.5711 0.17389 0.0
O2488 O 0.71708 0.5469 0.16386 0.0
O2489 O 0.75085 0.59833 0.12915 0.0
O2490 O 0.7367 0.57331 0.12817 0.0
C2491 C 0.76887 0.57239 0.14523 0.0
C2492 C 0.76339 0.57975 0.1834 0.0
C2493 C 0.79859 0.62263 0.14366 0.0
C2494 C 0.80237 0.62083 0.11485 0.0
C2495 C 0.8226 0.63509 0.13227 0.0
C2496 C 0.81286 0.63225 0.14561 0.0
C2497 C 0.817 0.63023 0.11685 0.0
C2498 C 0.79496 0.61509 0.12872 0.0
C2499 C 0.78568 0.62299 0.15563 0.0
C2500 C 0.72484 0.66323 0.16522 0.0
C2501 C 0.72715 0.6606 0.18134 0.0
H2502 H 0.72189 0.66497 0.13337 0.0
C2503 C 0.7202 0.60175 0.15918 0.0
C2504 C 0.74327 0.58588 0.12065 0.0
C2505 C 0.69112 0.554 0.17137 0.0
C2506 C 0.6659 0.53669 0.1722 0.0
C2507 C 0.66581 0.56432 0.16425 0.0
C2508 C 0.68236 0.56652 0.16636 0.0
C2509 C 0.65768 0.54963 0.16707 0.0
C2510 C 0.68281 0.53898 0.1742 0.0
C2511 C 0.70892 0.55639 0.17302 0.0
H2512 H 0.8338 0.64228 0.13374 0.0
H2513 H 0.81615 0.63793 0.15717 0.0
H2514 H 0.82366 0.63472 0.10675 0.0
H2515 H 0.78472 0.60659 0.12788 0.0
H2516 H 0.65923 0.57405 0.16025 0.0
H2517 H 0.6883 0.57804 0.16389 0.0
H2518 H 0.64487 0.54835 0.16493 0.0
H2519 H 0.68948 0.52923 0.17803 0.0
C2520 C 0.63992 0.74857 0.18951 0.0
C2521 C 0.65575 0.7388 0.1671 0.0
C2522 C 0.64307 0.74767 0.17315 0.0
C2523 C 0.66529 0.7311 0.17766 0.0
C2524 C 0.64957 0.74097 0.20015 0.0
C2525 C 0.66228 0.73228 0.19414 0.0
N2526 N 0.62683 0.75612 0.19492 0.0
C2527 C 0.62351 0.75763 0.21091 0.0
C2528 C 0.6459 0.74201 0.2165 0.0
C2529 C 0.63288 0.75045 0.2219 0.0
Gd2530 Gd 0.57083 0.74955 0.17572 0.0
Gd2531 Gd 0.61271 0.76874 0.17559 0.0
N2532 N 0.6336 0.7552 0.16315 0.0
C2533 C 0.65846 0.73788 0.15059 0.0
C2534 C 0.6366 0.75483 0.14709 0.0
C2535 C 0.64892 0.74601 0.14057 0.0
H2536 H 0.6298 0.76154 0.13924 0.0
H2537 H 0.65115 0.74563 0.12782 0.0
H2538 H 0.54567 0.77476 0.19367 0.0
H2539 H 0.61344 0.76409 0.21516 0.0
H2540 H 0.51927 0.78478 0.18885 0.0
H2541 H 0.66801 0.73108 0.14548 0.0
H2542 H 0.67503 0.72419 0.1732 0.0
H2543 H 0.57152 0.71496 0.15352 0.0
H2544 H 0.65301 0.73631 0.22504 0.0
H2545 H 0.63003 0.7514 0.23452 0.0
H2546 H 0.49955 0.75363 0.14232 0.0
H2547 H 0.66973 0.72624 0.20212 0.0
H2548 H 0.53044 0.71035 0.12293 0.0
H2549 H 0.55587 0.70025 0.13189 0.0
N2550 N 0.5556 0.73375 0.15631 0.0
C2551 C 0.54134 0.73901 0.15209 0.0
C2552 C 0.5606 0.71967 0.1496 0.0
C2553 C 0.53737 0.71697 0.13233 0.0
C2554 C 0.5517 0.71122 0.13737 0.0
C2555 C 0.53185 0.73086 0.13993 0.0
H2556 H 0.50954 0.73052 0.12676 0.0
N2557 N 0.54487 0.75858 0.17308 0.0
C2558 C 0.53578 0.75192 0.16078 0.0
C2559 C 0.51467 0.7694 0.16767 0.0
C2560 C 0.52048 0.75717 0.15765 0.0
C2561 C 0.53886 0.76988 0.18344 0.0
C2562 C 0.52381 0.7756 0.18078 0.0
O2563 O 0.60805 0.74369 0.18448 0.0
O2564 O 0.59131 0.73408 0.16558 0.0
O2565 O 0.55348 0.73435 0.18822 0.0
O2566 O 0.57847 0.73638 0.19575 0.0
O2567 O 0.60305 0.76351 0.14819 0.0
O2568 O 0.57752 0.75044 0.14863 0.0
O2569 O 0.57184 0.77637 0.17447 0.0
O2570 O 0.5954 0.78044 0.16102 0.0
O2571 O 0.63433 0.78311 0.16986 0.0
O2572 O 0.61881 0.79116 0.18903 0.0
O2573 O 0.57337 0.77006 0.19706 0.0
O2574 O 0.59935 0.78123 0.19707 0.0
C2575 C 0.60424 0.73204 0.17392 0.0
C2576 C 0.58998 0.75637 0.14022 0.0
C2577 C 0.56342 0.71111 0.19799 0.0
C2578 C 0.54768 0.68603 0.20307 0.0
C2579 C 0.57527 0.68553 0.1936 0.0
C2580 C 0.57652 0.70222 0.19349 0.0
C2581 C 0.56098 0.67747 0.19827 0.0
C2582 C 0.54904 0.70293 0.20286 0.0
C2583 C 0.5643 0.7288 0.19718 0.0
C2584 C 0.51127 0.74967 0.14502 0.0
C2585 C 0.51695 0.73652 0.13616 0.0
H2586 H 0.50298 0.77379 0.16569 0.0
C2587 C 0.58129 0.78497 0.16527 0.0
C2588 C 0.58472 0.78074 0.20351 0.0
C2589 C 0.62849 0.81036 0.17178 0.0
C2590 C 0.62517 0.82428 0.14738 0.0
C2591 C 0.62425 0.83878 0.17329 0.0
C2592 C 0.62687 0.82471 0.18091 0.0
C2593 C 0.62361 0.83865 0.15656 0.0
C2594 C 0.62707 0.8102 0.15523 0.0
C2595 C 0.63037 0.79518 0.17929 0.0
H2596 H 0.58539 0.67879 0.18992 0.0
H2597 H 0.58769 0.7081 0.18979 0.0
H2598 H 0.56029 0.66449 0.19786 0.0
H2599 H 0.53896 0.70977 0.2065 0.0
H2600 H 0.62316 0.84988 0.18034 0.0
H2601 H 0.62756 0.825 0.19384 0.0
H2602 H 0.62258 0.84981 0.1508 0.0
H2603 H 0.62847 0.79907 0.14829 0.0
C2604 C 0.34721 0.57591 0.15588 0.0
C2605 C 0.32751 0.59455 0.16421 0.0
C2606 C 0.33517 0.58031 0.16626 0.0
C2607 C 0.33127 0.60354 0.15085 0.0
C2608 C 0.35194 0.58556 0.14317 0.0
C2609 C 0.34349 0.59906 0.14035 0.0
N2610 N 0.35543 0.56315 0.15926 0.0
C2611 C 0.36949 0.56029 0.15154 0.0
C2612 C 0.36557 0.58186 0.13427 0.0
C2613 C 0.37461 0.56939 0.13872 0.0
Gd2614 Gd 0.32993 0.49997 0.1819 0.0
Gd2615 Gd 0.3463 0.54843 0.18086 0.0
N2616 N 0.3322 0.57161 0.17929 0.0
C2617 C 0.31696 0.59979 0.17612 0.0
C2618 C 0.32305 0.57743 0.19153 0.0
C2619 C 0.31499 0.59136 0.19 0.0
H2620 H 0.32202 0.5715 0.20255 0.0
H2621 H 0.30748 0.59573 0.19963 0.0
H2622 H 0.33521 0.48159 0.1454 0.0
H2623 H 0.37652 0.5507 0.15507 0.0
H2624 H 0.35456 0.46429 0.13209 0.0
H2625 H 0.31088 0.61071 0.17505 0.0
H2626 H 0.32531 0.61437 0.14894 0.0
H2627 H 0.33723 0.49993 0.22094 0.0
H2628 H 0.3696 0.58897 0.1244 0.0
H2629 H 0.38549 0.56679 0.13231 0.0
H2630 H 0.38772 0.44979 0.17484 0.0
H2631 H 0.34678 0.60649 0.1305 0.0
H2632 H 0.37509 0.46905 0.22808 0.0
H2633 H 0.35519 0.48728 0.23915 0.0
N2634 N 0.34715 0.48922 0.19987 0.0
C2635 C 0.35745 0.47869 0.1936 0.0
C2636 C 0.34592 0.49202 0.21603 0.0
C2637 C 0.36719 0.4745 0.22007 0.0
C2638 C 0.35602 0.48484 0.22636 0.0
C2639 C 0.36797 0.47125 0.20351 0.0
H2640 H 0.38736 0.45535 0.20398 0.0
N2641 N 0.34653 0.4821 0.16815 0.0
C2642 C 0.35745 0.47538 0.1772 0.0
C2643 C 0.36756 0.46125 0.15374 0.0
C2644 C 0.36828 0.4648 0.17025 0.0
C2645 C 0.34492 0.47761 0.15227 0.0
C2646 C 0.35566 0.46749 0.14476 0.0
O2647 O 0.32651 0.53002 0.17896 0.0
O2648 O 0.3109 0.51107 0.16872 0.0
O2649 O 0.31872 0.47592 0.17771 0.0
O2650 O 0.31102 0.49114 0.19756 0.0
O2651 O 0.32644 0.54376 0.2011 0.0
O2652 O 0.32009 0.51596 0.20354 0.0
O2653 O 0.3514 0.51413 0.19225 0.0
O2654 O 0.36342 0.5295 0.17416 0.0
O2655 O 0.36234 0.54485 0.20078 0.0
O2656 O 0.3626 0.56796 0.1908 0.0
O2657 O 0.33588 0.50907 0.155 0.0
O2658 O 0.34583 0.53638 0.15494 0.0
C2659 C 0.31358 0.52635 0.17047 0.0
C2660 C 0.31881 0.53139 0.20864 0.0
C2661 C 0.29124 0.47494 0.18424 0.0
C2662 C 0.27092 0.4762 0.16387 0.0
C2663 C 0.26343 0.4668 0.18991 0.0
C2664 C 0.27947 0.46917 0.19488 0.0
C2665 C 0.25917 0.47001 0.17429 0.0
C2666 C 0.2868 0.47878 0.16904 0.0
C2667 C 0.30805 0.47789 0.18897 0.0
C2668 C 0.37922 0.45784 0.17999 0.0
C2669 C 0.37899 0.46096 0.19659 0.0
H2670 H 0.37575 0.45328 0.14791 0.0
C2671 C 0.36355 0.51688 0.18265 0.0
C2672 C 0.34174 0.52219 0.14711 0.0
C2673 C 0.38766 0.55992 0.19955 0.0
C2674 C 0.41397 0.57326 0.20669 0.0
C2675 C 0.41227 0.54864 0.1899 0.0
C2676 C 0.39562 0.54842 0.19028 0.0
C2677 C 0.42141 0.56089 0.19809 0.0
C2678 C 0.39699 0.57262 0.20755 0.0
C2679 C 0.36978 0.55901 0.20031 0.0
H2680 H 0.25439 0.46213 0.19804 0.0
H2681 H 0.28269 0.46647 0.2069 0.0
H2682 H 0.24693 0.46734 0.17025 0.0
H2683 H 0.29598 0.48295 0.16073 0.0
H2684 H 0.41811 0.5395 0.18282 0.0
H2685 H 0.38913 0.53942 0.18296 0.0
H2686 H 0.43436 0.56112 0.19701 0.0
H2687 H 0.39111 0.58203 0.2142 0.0
C2688 C 0.91901 0.50282 0.71703 0.0
C2689 C 0.93186 0.47762 0.71426 0.0
C2690 C 0.93193 0.49378 0.72005 0.0
C2691 C 0.91834 0.47039 0.70619 0.0
C2692 C 0.90577 0.49572 0.70812 0.0
C2693 C 0.90532 0.47941 0.70315 0.0
N2694 N 0.92009 0.51881 0.72139 0.0
C2695 C 0.90879 0.52828 0.71604 0.0
C2696 C 0.89369 0.50535 0.70375 0.0
C2697 C 0.89538 0.52176 0.70748 0.0
Gd2698 Gd 0.9385 0.56411 0.71373 0.0
Gd2699 Gd 0.94302 0.52755 0.73729 0.0
N2700 N 0.94516 0.50117 0.72731 0.0
C2701 C 0.94567 0.46935 0.71616 0.0
C2702 C 0.95889 0.49338 0.72862 0.0
C2703 C 0.9593 0.47733 0.72319 0.0
H2704 H 0.96959 0.49959 0.73372 0.0
H2705 H 0.97017 0.47116 0.72432 0.0
H2706 H 0.92329 0.5944 0.73547 0.0
H2707 H 0.91016 0.54094 0.7177 0.0
H2708 H 0.931 0.6227 0.74369 0.0
H2709 H 0.94609 0.45695 0.71181 0.0
H2710 H 0.91804 0.45796 0.70178 0.0
H2711 H 0.96118 0.55539 0.68179 0.0
H2712 H 0.8834 0.50035 0.69688 0.0
H2713 H 0.8865 0.52949 0.70349 0.0
H2714 H 0.98064 0.63408 0.71607 0.0
H2715 H 0.89519 0.4738 0.69643 0.0
H2716 H 0.9967 0.59437 0.67685 0.0
H2717 H 0.98475 0.56758 0.66761 0.0
N2718 N 0.96042 0.57485 0.6991 0.0
C2719 C 0.96609 0.59005 0.70364 0.0
C2720 C 0.96639 0.56709 0.68582 0.0
C2721 C 0.98644 0.58907 0.6831 0.0
C2722 C 0.9797 0.57394 0.67783 0.0
C2723 C 0.97943 0.59748 0.69594 0.0
H2724 H 0.99531 0.61906 0.69528 0.0
N2725 N 0.94431 0.59136 0.72148 0.0
C2726 C 0.95786 0.59851 0.71533 0.0
C2727 C 0.95309 0.62328 0.73027 0.0
C2728 C 0.96271 0.61463 0.71966 0.0
C2729 C 0.93444 0.59997 0.73119 0.0
C2730 C 0.93872 0.61601 0.73579 0.0
O2731 O 0.95147 0.52219 0.71171 0.0
O2732 O 0.93733 0.53979 0.69824 0.0
O2733 O 0.91876 0.55837 0.69701 0.0
O2734 O 0.92795 0.58292 0.70113 0.0
O2735 O 0.969 0.53738 0.73175 0.0
O2736 O 0.96631 0.5594 0.71647 0.0
O2737 O 0.93788 0.56851 0.73988 0.0
O2738 O 0.9551 0.5508 0.74745 0.0
O2739 O 0.95715 0.51634 0.75472 0.0
O2740 O 0.93182 0.51748 0.75839 0.0
O2741 O 0.9185 0.56268 0.73486 0.0
O2742 O 0.92022 0.53878 0.74725 0.0
C2743 C 0.94472 0.52617 0.69842 0.0
C2744 C 0.97566 0.54934 0.72351 0.0
C2745 C 0.91756 0.57576 0.67541 0.0
C2746 C 0.9109 0.59249 0.65346 0.0
C2747 C 0.92174 0.56646 0.64784 0.0
C2748 C 0.92263 0.56413 0.66414 0.0
C2749 C 0.9159 0.58045 0.64253 0.0
C2750 C 0.91184 0.59007 0.67001 0.0
C2751 C 0.91823 0.5731 0.69274 0.0
C2752 C 0.97658 0.62178 0.71274 0.0
C2753 C 0.98493 0.61322 0.7009 0.0
H2754 H 0.95641 0.6357 0.73389 0.0
C2755 C 0.94916 0.56478 0.74918 0.0
C2756 C 0.91289 0.55215 0.74573 0.0
C2757 C 0.9483 0.52337 0.78092 0.0
C2758 C 0.96372 0.54305 0.7985 0.0
C2759 C 0.94014 0.52825 0.80857 0.0
C2760 C 0.93772 0.52017 0.7936 0.0
C2761 C 0.95319 0.53951 0.8111 0.0
C2762 C 0.96111 0.53504 0.78342 0.0
C2763 C 0.94545 0.51521 0.76494 0.0
H2764 H 0.92568 0.5574 0.63926 0.0
H2765 H 0.92734 0.55322 0.66792 0.0
H2766 H 0.91564 0.58198 0.62978 0.0
H2767 H 0.90801 0.59917 0.67863 0.0
H2768 H 0.93196 0.52565 0.8183 0.0
H2769 H 0.92758 0.51146 0.7919 0.0
H2770 H 0.95511 0.54538 0.82285 0.0
H2771 H 0.96941 0.53764 0.77375 0.0
C2772 C 0.59647 0.94126 0.73109 0.0
C2773 C 0.61651 0.93367 0.74941 0.0
C2774 C 0.60071 0.93217 0.74336 0.0
C2775 C 0.6277 0.94512 0.74337 0.0
C2776 C 0.6078 0.9523 0.72446 0.0
C2777 C 0.62334 0.95445 0.73092 0.0
N2778 N 0.58152 0.93851 0.72495 0.0
C2779 C 0.57735 0.94583 0.71154 0.0
C2780 C 0.60332 0.96045 0.71123 0.0
C2781 C 0.58807 0.95704 0.70462 0.0
Gd2782 Gd 0.52089 0.92341 0.75589 0.0
Gd2783 Gd 0.56346 0.92058 0.73792 0.0
N2784 N 0.58965 0.92106 0.74862 0.0
C2785 C 0.62071 0.92324 0.76093 0.0
C2786 C 0.59395 0.91036 0.75931 0.0
C2787 C 0.60943 0.91139 0.76573 0.0
H2788 H 0.58553 0.90099 0.76306 0.0
H2789 H 0.61265 0.90298 0.77434 0.0
H2790 H 0.50422 0.95761 0.74806 0.0
H2791 H 0.56566 0.94321 0.70621 0.0
H2792 H 0.48321 0.96624 0.73053 0.0
H2793 H 0.63273 0.92395 0.76584 0.0
H2794 H 0.63985 0.94655 0.74795 0.0
H2795 H 0.52079 0.88321 0.74947 0.0
H2796 H 0.61165 0.96904 0.70578 0.0
H2797 H 0.58458 0.963 0.69417 0.0
H2798 H 0.46029 0.91721 0.70511 0.0
H2799 H 0.63219 0.96296 0.72608 0.0
H2800 H 0.48246 0.86803 0.71729 0.0
H2801 H 0.50501 0.86158 0.73427 0.0
N2802 N 0.50746 0.90184 0.74106 0.0
C2803 C 0.49459 0.90557 0.73243 0.0
C2804 C 0.51094 0.8862 0.7422 0.0
C2805 C 0.48923 0.87759 0.72409 0.0
C2806 C 0.50201 0.8739 0.7336 0.0
C2807 C 0.48538 0.89356 0.7234 0.0
H2808 H 0.46582 0.88885 0.70654 0.0
N2809 N 0.50058 0.93297 0.74051 0.0
C2810 C 0.49136 0.92162 0.7318 0.0
C2811 C 0.47622 0.94225 0.72128 0.0
C2812 C 0.47897 0.92599 0.72189 0.0
C2813 C 0.49755 0.94877 0.74042 0.0
C2814 C 0.48547 0.95367 0.73068 0.0
O2815 O 0.56303 0.92356 0.76435 0.0
O2816 O 0.54082 0.93784 0.76896 0.0
O2817 O 0.50328 0.93404 0.77179 0.0
O2818 O 0.50836 0.90922 0.77336 0.0
O2819 O 0.55787 0.90063 0.75684 0.0
O2820 O 0.53333 0.90422 0.76896 0.0
O2821 O 0.52619 0.91316 0.73125 0.0
O2822 O 0.54459 0.93073 0.72244 0.0
O2823 O 0.55243 0.89929 0.72519 0.0
O2824 O 0.57745 0.90685 0.72094 0.0
O2825 O 0.53151 0.94974 0.75021 0.0
O2826 O 0.55708 0.94763 0.73895 0.0
C2827 C 0.55519 0.93398 0.77281 0.0
C2828 C 0.54649 0.89629 0.76752 0.0
C2829 C 0.50423 0.92314 0.79752 0.0
C2830 C 0.51513 0.9387 0.82087 0.0
C2831 C 0.50336 0.91174 0.82364 0.0
C2832 C 0.50003 0.91034 0.80724 0.0
C2833 C 0.51067 0.92601 0.83054 0.0
C2834 C 0.51208 0.9371 0.80438 0.0
C2835 C 0.50156 0.92129 0.78014 0.0
C2836 C 0.46981 0.91406 0.71283 0.0
C2837 C 0.47294 0.89789 0.71366 0.0
H2838 H 0.46688 0.94609 0.71374 0.0
C2839 C 0.53061 0.92303 0.72038 0.0
C2840 C 0.54502 0.95662 0.74374 0.0
C2841 C 0.56291 0.89432 0.69922 0.0
C2842 C 0.56855 0.87897 0.67449 0.0
C2843 C 0.5531 0.9025 0.67391 0.0
C2844 C 0.55509 0.90519 0.69037 0.0
C2845 C 0.5598 0.88947 0.66597 0.0
C2846 C 0.56961 0.88122 0.69124 0.0
C2847 C 0.56523 0.89707 0.71655 0.0
H2848 H 0.50001 0.90186 0.83106 0.0
H2849 H 0.49429 0.89923 0.80211 0.0
H2850 H 0.51257 0.92725 0.84334 0.0
H2851 H 0.51535 0.94706 0.79698 0.0
H2852 H 0.54692 0.91089 0.66721 0.0
H2853 H 0.55092 0.91596 0.69605 0.0
H2854 H 0.55895 0.88823 0.65305 0.0
H2855 H 0.57622 0.87317 0.698 0.0
C2856 C 0.21274 0.61817 0.73831 0.0
C2857 C 0.19318 0.63413 0.72653 0.0
C2858 C 0.19683 0.62161 0.73622 0.0
C2859 C 0.20565 0.64325 0.71926 0.0
C2860 C 0.22528 0.62732 0.73103 0.0
C2861 C 0.22165 0.63992 0.72159 0.0
N2862 N 0.21586 0.60519 0.74661 0.0
C2863 C 0.23131 0.6015 0.74911 0.0
C2864 C 0.24109 0.62325 0.73311 0.0
C2865 C 0.24411 0.61034 0.74225 0.0
Gd2866 Gd 0.19373 0.55 0.73814 0.0
Gd2867 Gd 0.19357 0.59216 0.75883 0.0
N2868 N 0.18493 0.61247 0.74326 0.0
C2869 C 0.17708 0.63706 0.7243 0.0
C2870 C 0.16924 0.61571 0.74159 0.0
C2871 C 0.16508 0.62787 0.73194 0.0
H2872 H 0.15984 0.60926 0.74793 0.0
H2873 H 0.15261 0.63027 0.73054 0.0
H2874 H 0.21523 0.52833 0.76255 0.0
H2875 H 0.23381 0.59163 0.75621 0.0
H2876 H 0.21414 0.50167 0.77293 0.0
H2877 H 0.1738 0.64648 0.71684 0.0
H2878 H 0.20305 0.65287 0.71175 0.0
H2879 H 0.16735 0.54718 0.70844 0.0
H2880 H 0.25104 0.62998 0.72768 0.0
H2881 H 0.2563 0.60719 0.74402 0.0
H2882 H 0.16807 0.47403 0.74763 0.0
H2883 H 0.23112 0.64701 0.71582 0.0
H2884 H 0.14112 0.50133 0.70793 0.0
H2885 H 0.14605 0.52805 0.69689 0.0
N2886 N 0.17388 0.53173 0.72627 0.0
C2887 C 0.17177 0.51695 0.73201 0.0
C2888 C 0.16517 0.53559 0.71343 0.0
C2889 C 0.15036 0.50974 0.71312 0.0
C2890 C 0.15314 0.52478 0.70683 0.0
C2891 C 0.15994 0.50553 0.72566 0.0
H2892 H 0.14936 0.48125 0.72703 0.0
N2893 N 0.19394 0.52409 0.74849 0.0
C2894 C 0.18221 0.51295 0.7435 0.0
C2895 C 0.19271 0.49334 0.76002 0.0
C2896 C 0.18121 0.49732 0.74914 0.0
C2897 C 0.20544 0.52001 0.75882 0.0
C2898 C 0.20497 0.5047 0.76476 0.0
O2899 O 0.20453 0.58661 0.73436 0.0
O2900 O 0.18515 0.57024 0.72386 0.0
O2901 O 0.21685 0.55686 0.72693 0.0
O2902 O 0.20086 0.53772 0.71637 0.0
O2903 O 0.16652 0.58297 0.75247 0.0
O2904 O 0.16727 0.558 0.7388 0.0
O2905 O 0.1915 0.55071 0.76454 0.0
O2906 O 0.17777 0.57304 0.77005 0.0
O2907 O 0.18479 0.61224 0.77309 0.0
O2908 O 0.20675 0.60207 0.77966 0.0
O2909 O 0.21548 0.555 0.75701 0.0
O2910 O 0.21183 0.57833 0.77232 0.0
C2911 C 0.1949 0.58287 0.72231 0.0
C2912 C 0.1589 0.57017 0.74452 0.0
C2913 C 0.22785 0.53499 0.71187 0.0
C2914 C 0.24408 0.52234 0.69087 0.0
C2915 C 0.23901 0.50965 0.71616 0.0
C2916 C 0.23017 0.52233 0.72165 0.0
C2917 C 0.24562 0.50945 0.70085 0.0
C2918 C 0.23524 0.53525 0.69676 0.0
C2919 C 0.21481 0.54552 0.71558 0.0
C2920 C 0.16908 0.48605 0.74338 0.0
C2921 C 0.15843 0.49016 0.73166 0.0
H2922 H 0.19243 0.48144 0.76456 0.0
C2923 C 0.18069 0.55822 0.77262 0.0
C2924 C 0.21983 0.5653 0.76953 0.0
C2925 C 0.1909 0.61129 0.80069 0.0
C2926 C 0.1703 0.60523 0.82052 0.0
C2927 C 0.1971 0.61482 0.82904 0.0
C2928 C 0.20192 0.61559 0.81305 0.0
C2929 C 0.18123 0.60989 0.83282 0.0
C2930 C 0.17526 0.60583 0.80453 0.0
C2931 C 0.19596 0.61191 0.78389 0.0
H2932 H 0.24018 0.49959 0.72356 0.0
H2933 H 0.22437 0.52179 0.73315 0.0
H2934 H 0.2514 0.4988 0.69677 0.0
H2935 H 0.23334 0.54522 0.68946 0.0
H2936 H 0.20562 0.61827 0.83851 0.0
H2937 H 0.21421 0.61955 0.81031 0.0
H2938 H 0.17747 0.60984 0.84521 0.0
H2939 H 0.16668 0.60248 0.79503 0.0
C2940 C 0.51894 0.1505 0.7146 0.0
C2941 C 0.49761 0.16198 0.73001 0.0
C2942 C 0.51375 0.16248 0.72484 0.0
C2943 C 0.48728 0.14845 0.7259 0.0
C2944 C 0.50831 0.1374 0.70946 0.0
C2945 C 0.49264 0.13613 0.71565 0.0
N2946 N 0.53385 0.1526 0.70827 0.0
C2947 C 0.53849 0.14253 0.69588 0.0
C2948 C 0.51344 0.12649 0.69757 0.0
C2949 C 0.52851 0.12922 0.69056 0.0
Gd2950 Gd 0.58813 0.17454 0.74446 0.0
Gd2951 Gd 0.55061 0.17494 0.71829 0.0
N2952 N 0.52385 0.17569 0.72783 0.0
C2953 C 0.49204 0.17556 0.73815 0.0
C2954 C 0.51806 0.18938 0.73469 0.0
C2955 C 0.50222 0.18943 0.74018 0.0
H2956 H 0.52549 0.20041 0.7357 0.0
H2957 H 0.49782 0.20027 0.74573 0.0
H2958 H 0.606 0.14083 0.73206 0.0
H2959 H 0.55017 0.14462 0.69043 0.0
H2960 H 0.63189 0.13378 0.72073 0.0
H2961 H 0.4797 0.17572 0.74217 0.0
H2962 H 0.47491 0.14776 0.72993 0.0
H2963 H 0.58773 0.21515 0.74078 0.0
H2964 H 0.50563 0.11629 0.69329 0.0
H2965 H 0.53243 0.12111 0.68105 0.0
H2966 H 0.6616 0.18429 0.71577 0.0
H2967 H 0.48435 0.12609 0.71198 0.0
H2968 H 0.63454 0.23216 0.72665 0.0
H2969 H 0.60679 0.23735 0.73462 0.0
N2970 N 0.60434 0.19707 0.73689 0.0
C2971 C 0.61959 0.19393 0.73242 0.0
C2972 C 0.59975 0.21247 0.7377 0.0
C2973 C 0.62624 0.22224 0.72963 0.0
C2974 C 0.61058 0.22522 0.73407 0.0
C2975 C 0.63087 0.20647 0.72854 0.0
H2976 H 0.65496 0.21234 0.71999 0.0
N2977 N 0.61192 0.16604 0.73284 0.0
C2978 C 0.62335 0.17798 0.73002 0.0
C2979 C 0.64152 0.1583 0.72043 0.0
C2980 C 0.63846 0.17437 0.72373 0.0
C2981 C 0.61483 0.15033 0.72955 0.0
C2982 C 0.62962 0.14625 0.72327 0.0
O2983 O 0.54544 0.17581 0.7442 0.0
O2984 O 0.56539 0.16112 0.75214 0.0
O2985 O 0.60423 0.16351 0.7602 0.0
O2986 O 0.59301 0.18491 0.76843 0.0
O2987 O 0.55353 0.19811 0.73777 0.0
O2988 O 0.5736 0.19472 0.75595 0.0
O2989 O 0.59131 0.18381 0.71901 0.0
O2990 O 0.57384 0.16726 0.70511 0.0
O2991 O 0.55103 0.19799 0.70657 0.0
O2992 O 0.54191 0.17633 0.69418 0.0
O2993 O 0.57934 0.14768 0.73708 0.0
O2994 O 0.55618 0.14798 0.72199 0.0
C2995 C 0.55073 0.16554 0.75353 0.0
C2996 C 0.56144 0.20292 0.75167 0.0
C2997 C 0.59292 0.16422 0.78602 0.0
C2998 C 0.57486 0.14235 0.79545 0.0
C2999 C 0.58648 0.16326 0.81419 0.0
C3000 C 0.59459 0.17077 0.8017 0.0
C3001 C 0.57676 0.14912 0.81115 0.0
C3002 C 0.58285 0.15026 0.78298 0.0
C3003 C 0.60037 0.17259 0.77255 0.0
C3004 C 0.64991 0.18687 0.72052 0.0
C3005 C 0.64614 0.20286 0.72295 0.0
H3006 H 0.65296 0.15507 0.71553 0.0
C3007 C 0.58808 0.1751 0.70574 0.0
C3008 C 0.56719 0.13973 0.72891 0.0
C3009 C 0.52837 0.19882 0.68886 0.0
C3010 C 0.51325 0.21376 0.67034 0.0
C3011 C 0.49918 0.1984 0.6904 0.0
C3012 C 0.51363 0.19312 0.69528 0.0
C3013 C 0.49897 0.2088 0.67814 0.0
C3014 C 0.5281 0.20892 0.67588 0.0
C3015 C 0.54331 0.19177 0.69394 0.0
H3016 H 0.58786 0.16833 0.82632 0.0
H3017 H 0.60201 0.18174 0.80424 0.0
H3018 H 0.57114 0.14332 0.82118 0.0
H3019 H 0.58127 0.14555 0.77078 0.0
H3020 H 0.48802 0.19374 0.69557 0.0
H3021 H 0.51302 0.18374 0.70334 0.0
H3022 H 0.48741 0.21193 0.6739 0.0
H3023 H 0.53913 0.2123 0.66968 0.0
C3024 C 0.93532 0.59956 0.35511 0.0
C3025 C 0.92964 0.62045 0.33758 0.0
C3026 C 0.92699 0.6046 0.34241 0.0
C3027 C 0.94144 0.63085 0.3453 0.0
C3028 C 0.94668 0.61013 0.36341 0.0
C3029 C 0.94997 0.62569 0.3582 0.0
N3030 N 0.93153 0.58461 0.35997 0.0
C3031 C 0.93804 0.57975 0.37369 0.0
C3032 C 0.95399 0.60491 0.377 0.0
C3033 C 0.94949 0.58972 0.38226 0.0
Gd3034 Gd 0.91526 0.52594 0.32378 0.0
Gd3035 Gd 0.9132 0.56788 0.34419 0.0
N3036 N 0.91549 0.59431 0.33551 0.0
C3037 C 0.91995 0.62552 0.32554 0.0
C3038 C 0.90548 0.59947 0.32433 0.0
C3039 C 0.90766 0.61504 0.31905 0.0
H3040 H 0.89585 0.59162 0.31925 0.0
H3041 H 0.89983 0.61895 0.31 0.0
H3042 H 0.94897 0.50986 0.33566 0.0
H3043 H 0.93464 0.56809 0.37797 0.0
H3044 H 0.95627 0.48845 0.35264 0.0
H3045 H 0.92156 0.6376 0.32151 0.0
H3046 H 0.94375 0.64302 0.34167 0.0
H3047 H 0.87476 0.52616 0.32636 0.0
H3048 H 0.96278 0.61266 0.38372 0.0
H3049 H 0.9548 0.58568 0.39296 0.0
H3050 H 0.90575 0.46345 0.36855 0.0
H3051 H 0.95875 0.63395 0.36434 0.0
H3052 H 0.85766 0.48593 0.35233 0.0
H3053 H 0.85234 0.50957 0.33727 0.0
N3054 N 0.89283 0.51216 0.33514 0.0
C3055 C 0.896 0.49883 0.34289 0.0
C3056 C 0.87735 0.51585 0.33277 0.0
C3057 C 0.86761 0.49306 0.34738 0.0
C3058 C 0.86456 0.50645 0.33896 0.0
C3059 C 0.88345 0.48914 0.34952 0.0
H3060 H 0.87764 0.46875 0.36383 0.0
N3061 N 0.92384 0.50546 0.3391 0.0
C3062 C 0.91195 0.49571 0.34535 0.0
C3063 C 0.93174 0.48054 0.35755 0.0
C3064 C 0.91562 0.48299 0.35476 0.0
C3065 C 0.93958 0.50279 0.34138 0.0
C3066 C 0.94376 0.49044 0.35078 0.0
O3067 O 0.91649 0.56736 0.31784 0.0
O3068 O 0.93082 0.54529 0.313 0.0
O3069 O 0.92536 0.50635 0.30987 0.0
O3070 O 0.90344 0.5159 0.30223 0.0
O3071 O 0.89341 0.5635 0.32354 0.0
O3072 O 0.89601 0.53879 0.31036 0.0
O3073 O 0.90418 0.53009 0.34824 0.0
O3074 O 0.92202 0.54804 0.35923 0.0
O3075 O 0.89179 0.55757 0.35576 0.0
O3076 O 0.89931 0.58284 0.36007 0.0
O3077 O 0.94175 0.53641 0.33152 0.0
O3078 O 0.94022 0.56186 0.34423 0.0
C3079 C 0.92743 0.55983 0.30993 0.0
C3080 C 0.88859 0.55233 0.31201 0.0
C3081 C 0.92021 0.50646 0.28198 0.0
C3082 C 0.9416 0.51075 0.26254 0.0
C3083 C 0.91488 0.50134 0.2536 0.0
C3084 C 0.90953 0.50165 0.26947 0.0
C3085 C 0.93096 0.5056 0.25012 0.0
C3086 C 0.93611 0.51137 0.2784 0.0
C3087 C 0.91461 0.50628 0.29863 0.0
C3088 C 0.90314 0.47326 0.36127 0.0
C3089 C 0.88711 0.47626 0.35857 0.0
H3090 H 0.93504 0.47097 0.36482 0.0
C3091 C 0.91351 0.53445 0.36035 0.0
C3092 C 0.94895 0.54972 0.33913 0.0
C3093 C 0.88725 0.56974 0.38149 0.0
C3094 C 0.87381 0.57889 0.40594 0.0
C3095 C 0.89634 0.56203 0.40722 0.0
C3096 C 0.89796 0.56192 0.39066 0.0
C3097 C 0.88446 0.57055 0.41487 0.0
C3098 C 0.87508 0.57802 0.38914 0.0
C3099 C 0.88961 0.57087 0.36418 0.0
H3100 H 0.90662 0.49744 0.24402 0.0
H3101 H 0.89711 0.498 0.27199 0.0
H3102 H 0.93514 0.50468 0.23786 0.0
H3103 H 0.94446 0.515 0.28801 0.0
H3104 H 0.90471 0.55599 0.41421 0.0
H3105 H 0.90784 0.55613 0.38516 0.0
H3106 H 0.88416 0.57119 0.42781 0.0
H3107 H 0.86699 0.58424 0.38197 0.0
C3108 C 0.4898 0.92464 0.35295 0.0
C3109 C 0.47279 0.94527 0.36326 0.0
C3110 C 0.48732 0.94084 0.3562 0.0
C3111 C 0.46069 0.93339 0.36652 0.0
C3112 C 0.47782 0.91269 0.35666 0.0
C3113 C 0.46319 0.91717 0.3632 0.0
N3114 N 0.50447 0.92056 0.34754 0.0
C3115 C 0.50767 0.90483 0.34499 0.0
C3116 C 0.48113 0.89656 0.35426 0.0
C3117 C 0.49613 0.89263 0.34845 0.0
Gd3118 Gd 0.55858 0.94123 0.36808 0.0
Gd3119 Gd 0.52195 0.94214 0.34043 0.0
N3120 N 0.49938 0.95215 0.35327 0.0
C3121 C 0.47094 0.9615 0.36718 0.0
C3122 C 0.49757 0.96802 0.35701 0.0
C3123 C 0.48339 0.9729 0.36408 0.0
H3124 H 0.5068 0.97711 0.35438 0.0
H3125 H 0.48202 0.98548 0.36704 0.0
H3126 H 0.58418 0.91537 0.35376 0.0
H3127 H 0.51907 0.90154 0.34035 0.0
H3128 H 0.61242 0.91499 0.34495 0.0
H3129 H 0.45998 0.96536 0.37268 0.0
H3130 H 0.44945 0.93661 0.37189 0.0
H3131 H 0.5586 0.97206 0.39546 0.0
H3132 H 0.47226 0.88705 0.35704 0.0
H3133 H 0.4988 0.88019 0.34659 0.0
H3134 H 0.63438 0.96873 0.35747 0.0
H3135 H 0.45385 0.90815 0.3661 0.0
H3136 H 0.60235 1.0015 0.39159 0.0
H3137 H 0.5757 0.9963 0.40404 0.0
N3138 N 0.57495 0.9642 0.37759 0.0
C3139 C 0.58986 0.96646 0.37129 0.0
C3140 C 0.57019 0.97432 0.38988 0.0
C3141 C 0.59477 0.99104 0.38756 0.0
C3142 C 0.57979 0.98808 0.39471 0.0
C3143 C 0.60022 0.97987 0.37609 0.0
H3144 H 0.62415 0.99129 0.37368 0.0
N3145 N 0.58581 0.94033 0.3604 0.0
C3146 C 0.59558 0.95388 0.36231 0.0
C3147 C 0.61783 0.94015 0.35093 0.0
C3148 C 0.61187 0.95421 0.3577 0.0
C3149 C 0.59182 0.92633 0.35469 0.0
C3150 C 0.60782 0.92606 0.3497 0.0
O3151 O 0.51881 0.93176 0.36552 0.0
O3152 O 0.53499 0.94877 0.38013 0.0
O3153 O 0.56353 0.91871 0.37899 0.0
O3154 O 0.56076 0.93963 0.39388 0.0
O3155 O 0.5319 0.96887 0.34617 0.0
O3156 O 0.55304 0.96823 0.36396 0.0
O3157 O 0.56522 0.94047 0.34248 0.0
O3158 O 0.54531 0.95439 0.33248 0.0
O3159 O 0.50603 0.9532 0.32456 0.0
O3160 O 0.51583 0.93076 0.31715 0.0
O3161 O 0.55442 0.91741 0.34949 0.0
O3162 O 0.53728 0.92266 0.32914 0.0
C3163 C 0.52112 0.9405 0.37896 0.0
C3164 C 0.54315 0.97663 0.35563 0.0
C3165 C 0.58121 0.92357 0.40137 0.0
C3166 C 0.59886 0.91129 0.41986 0.0
C3167 C 0.60901 0.93397 0.40514 0.0
C3168 C 0.59399 0.93477 0.39838 0.0
C3169 C 0.61148 0.92225 0.41572 0.0
C3170 C 0.58359 0.91184 0.41258 0.0
C3171 C 0.56554 0.92526 0.39331 0.0
C3172 C 0.62189 0.96814 0.36109 0.0
C3173 C 0.61606 0.981 0.3703 0.0
H3174 H 0.63028 0.93986 0.3473 0.0
C3175 C 0.55999 0.94973 0.33201 0.0
C3176 C 0.54809 0.91353 0.33462 0.0
C3177 C 0.51538 0.94994 0.29807 0.0
C3178 C 0.53269 0.97055 0.28565 0.0
C3179 C 0.52 0.94815 0.26947 0.0
C3180 C 0.5127 0.94197 0.28309 0.0
C3181 C 0.52985 0.96239 0.27068 0.0
C3182 C 0.52564 0.96393 0.29929 0.0
C3183 C 0.50869 0.94305 0.31264 0.0
H3184 H 0.61865 0.94274 0.40248 0.0
H3185 H 0.59229 0.94454 0.39115 0.0
H3186 H 0.62319 0.92216 0.42122 0.0
H3187 H 0.57375 0.90348 0.41573 0.0
H3188 H 0.51786 0.94199 0.25789 0.0
H3189 H 0.50512 0.93094 0.28196 0.0
H3190 H 0.5348 0.96719 0.25984 0.0
H3191 H 0.52804 0.96969 0.311 0.0
C3192 C 0.14255 0.52455 0.37722 0.0
C3193 C 0.14829 0.50148 0.35991 0.0
C3194 C 0.15153 0.5177 0.36513 0.0
C3195 C 0.13533 0.49253 0.36657 0.0
C3196 C 0.12996 0.51543 0.38445 0.0
C3197 C 0.12617 0.49949 0.37882 0.0
N3198 N 0.14683 0.53982 0.3826 0.0
C3199 C 0.13961 0.54641 0.39583 0.0
C3200 C 0.12193 0.52244 0.39746 0.0
C3201 C 0.12691 0.53793 0.40329 0.0
Gd3202 Gd 0.16752 0.59332 0.34758 0.0
Gd3203 Gd 0.16783 0.55359 0.36898 0.0
N3204 N 0.16421 0.52658 0.35932 0.0
C3205 C 0.15855 0.49461 0.34862 0.0
C3206 C 0.17476 0.51967 0.34898 0.0
C3207 C 0.17196 0.50369 0.34329 0.0
H3208 H 0.18531 0.52649 0.34497 0.0
H3209 H 0.18022 0.49838 0.33488 0.0
H3210 H 0.13289 0.60821 0.36124 0.0
H3211 H 0.14347 0.55831 0.40053 0.0
H3212 H 0.12483 0.63144 0.37772 0.0
H3213 H 0.15649 0.48219 0.34431 0.0
H3214 H 0.13258 0.48009 0.36265 0.0
H3215 H 0.20817 0.59522 0.3497 0.0
H3216 H 0.11219 0.51585 0.40335 0.0
H3217 H 0.12102 0.54333 0.41358 0.0
H3218 H 0.17431 0.66137 0.39135 0.0
H3219 H 0.11648 0.49232 0.38416 0.0
H3220 H 0.22346 0.63926 0.37488 0.0
H3221 H 0.22985 0.61408 0.36014 0.0
N3222 N 0.18938 0.6093 0.35859 0.0
C3223 C 0.18559 0.62328 0.36632 0.0
C3224 C 0.20506 0.60608 0.35609 0.0
C3225 C 0.2138 0.63103 0.37022 0.0
C3226 C 0.21746 0.6168 0.36198 0.0
C3227 C 0.19774 0.63441 0.37254 0.0
H3228 H 0.20269 0.6569 0.38623 0.0
N3229 N 0.15795 0.61469 0.36332 0.0
C3230 C 0.16946 0.62587 0.36904 0.0
C3231 C 0.14903 0.64148 0.38146 0.0
C3232 C 0.16526 0.63956 0.37827 0.0
C3233 C 0.14209 0.61665 0.36619 0.0
C3234 C 0.13742 0.62998 0.37541 0.0
O3235 O 0.16761 0.55088 0.34253 0.0
O3236 O 0.15389 0.57209 0.33538 0.0
O3237 O 0.15712 0.61076 0.3331 0.0
O3238 O 0.17993 0.60158 0.32654 0.0
O3239 O 0.18934 0.55635 0.34988 0.0
O3240 O 0.18725 0.5791 0.33568 0.0
O3241 O 0.17882 0.59191 0.37224 0.0
O3242 O 0.16094 0.57603 0.38446 0.0
O3243 O 0.18793 0.56154 0.3847 0.0
O3244 O 0.1791 0.53649 0.38297 0.0
O3245 O 0.14084 0.58283 0.35206 0.0
O3246 O 0.14081 0.55917 0.36563 0.0
C3247 C 0.15816 0.55743 0.33288 0.0
C3248 C 0.1947 0.56606 0.33832 0.0
C3249 C 0.16261 0.6049 0.30567 0.0
C3250 C 0.14383 0.5896 0.28764 0.0
C3251 C 0.16811 0.60271 0.27715 0.0
C3252 C 0.17253 0.60853 0.2926 0.0
C3253 C 0.15377 0.59326 0.27463 0.0
C3254 C 0.14833 0.59532 0.3031 0.0
C3255 C 0.16808 0.60948 0.32202 0.0
C3256 C 0.17735 0.65078 0.38425 0.0
C3257 C 0.19352 0.64825 0.38133 0.0
H3258 H 0.14534 0.65179 0.38859 0.0
C3259 C 0.16986 0.58961 0.38488 0.0
C3260 C 0.1328 0.57039 0.35885 0.0
C3261 C 0.19051 0.54582 0.40767 0.0
C3262 C 0.19679 0.52963 0.43022 0.0
C3263 C 0.18844 0.55688 0.43492 0.0
C3264 C 0.18707 0.55851 0.41851 0.0
C3265 C 0.19319 0.54263 0.44074 0.0
C3266 C 0.19538 0.53139 0.4136 0.0
C3267 C 0.18889 0.54726 0.39021 0.0
H3268 H 0.17579 0.60557 0.26711 0.0
H3269 H 0.18378 0.61564 0.29439 0.0
H3270 H 0.15026 0.58915 0.26258 0.0
H3271 H 0.14062 0.59231 0.31312 0.0
H3272 H 0.18566 0.5667 0.4432 0.0
H3273 H 0.18322 0.56964 0.41434 0.0
H3274 H 0.1937 0.54172 0.45357 0.0
H3275 H 0.19814 0.52161 0.40523 0.0
C3276 C 0.61485 0.21028 0.34766 0.0
C3277 C 0.62936 0.19004 0.35992 0.0
C3278 C 0.61701 0.19425 0.34985 0.0
C3279 C 0.63946 0.20213 0.36768 0.0
C3280 C 0.62506 0.22246 0.35532 0.0
C3281 C 0.63735 0.21829 0.36534 0.0
N3282 N 0.60231 0.21397 0.33858 0.0
C3283 C 0.60019 0.22959 0.33558 0.0
C3284 C 0.62246 0.23848 0.35288 0.0
C3285 C 0.61006 0.24204 0.34285 0.0
Gd3286 Gd 0.54504 0.19589 0.34759 0.0
Gd3287 Gd 0.58654 0.19208 0.32666 0.0
N3288 N 0.6069 0.18279 0.34236 0.0
C3289 C 0.63116 0.1738 0.36197 0.0
C3290 C 0.6091 0.16694 0.34379 0.0
C3291 C 0.62102 0.16221 0.35381 0.0
H3292 H 0.6019 0.1579 0.33701 0.0
H3293 H 0.62249 0.1496 0.35512 0.0
H3294 H 0.52602 0.22268 0.32722 0.0
H3295 H 0.5908 0.23254 0.32775 0.0
H3296 H 0.50006 0.22518 0.31462 0.0
H3297 H 0.64043 0.17008 0.36968 0.0
H3298 H 0.64894 0.19911 0.37552 0.0
H3299 H 0.53818 0.16819 0.37428 0.0
H3300 H 0.63001 0.24817 0.35859 0.0
H3301 H 0.6081 0.25439 0.34071 0.0
H3302 H 0.46838 0.17808 0.32876 0.0
H3303 H 0.64523 0.22748 0.37142 0.0
H3304 H 0.49087 0.14578 0.36724 0.0
H3305 H 0.51682 0.14792 0.3816 0.0
N3306 N 0.52468 0.17693 0.35556 0.0
C3307 C 0.51032 0.1764 0.34811 0.0
C3308 C 0.52691 0.16723 0.36787 0.0
C3309 C 0.50026 0.15456 0.36389 0.0
C3310 C 0.51485 0.15578 0.37207 0.0
C3311 C 0.4977 0.16519 0.35199 0.0
H3312 H 0.47294 0.15691 0.34716 0.0
N3313 N 0.51993 0.19944 0.33566 0.0
C3314 C 0.50784 0.18811 0.33774 0.0
C3315 C 0.48991 0.20247 0.32214 0.0
C3316 C 0.49255 0.18921 0.33097 0.0
C3317 C 0.51705 0.21291 0.32787 0.0
C3318 C 0.50215 0.21452 0.32085 0.0
O3319 O 0.58224 0.20566 0.35031 0.0
O3320 O 0.56594 0.18708 0.3605 0.0
O3321 O 0.5501 0.21951 0.36006 0.0
O3322 O 0.53547 0.20101 0.37108 0.0
O3323 O 0.57587 0.16608 0.33315 0.0
O3324 O 0.55146 0.16879 0.34635 0.0
O3325 O 0.54434 0.19384 0.32123 0.0
O3326 O 0.56513 0.17797 0.31584 0.0
O3327 O 0.60433 0.18081 0.31156 0.0
O3328 O 0.5955 0.20332 0.30542 0.0
O3329 O 0.55271 0.2178 0.33105 0.0
O3330 O 0.57319 0.21063 0.31398 0.0
C3331 C 0.57841 0.19705 0.36242 0.0
C3332 C 0.56294 0.15949 0.34078 0.0
C3333 C 0.52778 0.22682 0.37623 0.0
C3334 C 0.51668 0.24703 0.39449 0.0
C3335 C 0.49961 0.23208 0.37461 0.0
C3336 C 0.51253 0.22367 0.36931 0.0
C3337 C 0.5016 0.24359 0.38713 0.0
C3338 C 0.52985 0.23856 0.38888 0.0
C3339 C 0.54051 0.21601 0.37191 0.0
C3340 C 0.48016 0.17754 0.33397 0.0
C3341 C 0.48275 0.1655 0.34446 0.0
H3342 H 0.4783 0.20385 0.31688 0.0
C3343 C 0.55107 0.18291 0.31241 0.0
C3344 C 0.56198 0.22047 0.31805 0.0
C3345 C 0.5999 0.18505 0.28404 0.0
C3346 C 0.59108 0.16303 0.26511 0.0
C3347 C 0.59785 0.1895 0.25568 0.0
C3348 C 0.60143 0.19534 0.27135 0.0
C3349 C 0.59293 0.17331 0.25249 0.0
C3350 C 0.59437 0.16904 0.28084 0.0
C3351 C 0.60349 0.19121 0.30058 0.0
H3352 H 0.48786 0.22923 0.36937 0.0
H3353 H 0.5103 0.21409 0.36036 0.0
H3354 H 0.49105 0.2493 0.3915 0.0
H3355 H 0.54145 0.24066 0.39465 0.0
H3356 H 0.5992 0.19749 0.24596 0.0
H3357 H 0.60542 0.20786 0.27355 0.0
H3358 H 0.59084 0.16877 0.24027 0.0
H3359 H 0.59323 0.16097 0.29054 0.0
C3360 C 0.72808 0.93368 0.58681 0.0
C3361 C 0.70514 0.94918 0.58223 0.0
C3362 C 0.71671 0.93875 0.57652 0.0
C3363 C 0.70511 0.95434 0.59847 0.0
C3364 C 0.72815 0.93892 0.60309 0.0
C3365 C 0.7166 0.94925 0.60886 0.0
N3366 N 0.73892 0.92344 0.58098 0.0
C3367 C 0.75018 0.91798 0.59062 0.0
C3368 C 0.73971 0.93344 0.61311 0.0
C3369 C 0.75083 0.92301 0.60684 0.0
Gd3370 Gd 0.75622 0.91786 0.509 0.0
Gd3371 Gd 0.7352 0.91399 0.55453 0.0
N3372 N 0.71703 0.93357 0.5609 0.0
C3373 C 0.69394 0.9541 0.57145 0.0
C3374 C 0.70632 0.93856 0.55027 0.0
C3375 C 0.69464 0.94887 0.55537 0.0
H3376 H 0.70737 0.93519 0.53772 0.0
H3377 H 0.68625 0.95285 0.54687 0.0
H3378 H 0.79441 0.91346 0.51897 0.0
H3379 H 0.7584 0.9095 0.58585 0.0
H3380 H 0.81472 0.89367 0.51487 0.0
H3381 H 0.68485 0.96208 0.57539 0.0
H3382 H 0.69627 0.96229 0.6031 0.0
H3383 H 0.73014 0.90962 0.47671 0.0
H3384 H 0.74008 0.9371 0.62572 0.0
H3385 H 0.75974 0.91866 0.61454 0.0
H3386 H 0.78988 0.85373 0.47814 0.0
H3387 H 0.71642 0.95335 0.62136 0.0
H3388 H 0.73928 0.86353 0.45606 0.0
H3389 H 0.7231 0.88714 0.45765 0.0
N3390 N 0.74856 0.89788 0.48837 0.0
C3391 C 0.75888 0.88598 0.48618 0.0
C3392 C 0.7368 0.89903 0.47713 0.0
C3393 C 0.74213 0.87317 0.46499 0.0
C3394 C 0.73295 0.88643 0.46587 0.0
C3395 C 0.75572 0.87317 0.47463 0.0
H3396 H 0.76427 0.85128 0.46368 0.0
N3397 N 0.77663 0.9 0.50503 0.0
C3398 C 0.77348 0.88736 0.49428 0.0
C3399 C 0.79985 0.87819 0.49881 0.0
C3400 C 0.78499 0.87599 0.49109 0.0
C3401 C 0.79152 0.90274 0.51169 0.0
C3402 C 0.80315 0.89168 0.50909 0.0
O3403 O 0.73827 0.94098 0.54744 0.0
O3404 O 0.74616 0.9423 0.52029 0.0
O3405 O 0.75683 0.92905 0.48613 0.0
O3406 O 0.77733 0.93219 0.50179 0.0
O3407 O 0.731 0.91408 0.52909 0.0
O3408 O 0.72976 0.91369 0.50419 0.0
O3409 O 0.76121 0.8947 0.52323 0.0
O3410 O 0.75423 0.89484 0.55058 0.0
O3411 O 0.71687 0.89593 0.54632 0.0
O3412 O 0.72221 0.89916 0.57158 0.0
O3413 O 0.76379 0.92932 0.5329 0.0
O3414 O 0.76218 0.9161 0.55575 0.0
C3415 C 0.74125 0.94942 0.53434 0.0
C3416 C 0.72175 0.91052 0.51676 0.0
C3417 C 0.78238 0.92489 0.47483 0.0
C3418 C 0.809 0.91653 0.46755 0.0
C3419 C 0.78589 0.90628 0.45186 0.0
C3420 C 0.77588 0.91522 0.46183 0.0
C3421 C 0.80246 0.90695 0.45465 0.0
C3422 C 0.7989 0.92558 0.47735 0.0
C3423 C 0.77221 0.93251 0.48717 0.0
C3424 C 0.78132 0.86274 0.48043 0.0
C3425 C 0.76669 0.86129 0.47229 0.0
H3426 H 0.80893 0.86965 0.49678 0.0
C3427 C 0.76157 0.88832 0.53769 0.0
C3428 C 0.77095 0.92257 0.54434 0.0
C3429 C 0.71008 0.87398 0.56218 0.0
C3430 C 0.69095 0.85237 0.5699 0.0
C3431 C 0.71718 0.84636 0.55934 0.0
C3432 C 0.72116 0.86272 0.55767 0.0
C3433 C 0.70219 0.84118 0.56546 0.0
C3434 C 0.6951 0.86877 0.56826 0.0
C3435 C 0.71349 0.89125 0.56055 0.0
H3436 H 0.78077 0.89883 0.44195 0.0
H3437 H 0.7631 0.91429 0.45954 0.0
H3438 H 0.81012 0.90024 0.4467 0.0
H3439 H 0.804 0.93325 0.48715 0.0
H3440 H 0.72575 0.83767 0.55588 0.0
H3441 H 0.73278 0.86655 0.5529 0.0
H3442 H 0.69935 0.82848 0.56663 0.0
H3443 H 0.68674 0.87762 0.57199 0.0
C3444 C 0.73829 0.18063 0.61298 0.0
C3445 C 0.72508 0.15794 0.62569 0.0
C3446 C 0.73478 0.16422 0.61335 0.0
C3447 C 0.71894 0.16839 0.63753 0.0
C3448 C 0.73251 0.19113 0.6251 0.0
C3449 C 0.72278 0.18492 0.63733 0.0
N3450 N 0.74698 0.18637 0.60051 0.0
C3451 C 0.75118 0.20242 0.6 0.0
C3452 C 0.73643 0.2076 0.62441 0.0
C3453 C 0.74589 0.21324 0.61186 0.0
Gd3454 Gd 0.73424 0.17056 0.54083 0.0
Gd3455 Gd 0.75579 0.16719 0.58141 0.0
N3456 N 0.74106 0.15439 0.60183 0.0
C3457 C 0.72206 0.14131 0.62594 0.0
C3458 C 0.73929 0.13815 0.60292 0.0
C3459 C 0.72943 0.13136 0.61465 0.0
H3460 H 0.74591 0.13036 0.59521 0.0
H3461 H 0.72781 0.11846 0.61517 0.0
H3462 H 0.75979 0.18791 0.51514 0.0
H3463 H 0.75847 0.20703 0.59044 0.0
H3464 H 0.77119 0.18191 0.48831 0.0
H3465 H 0.71456 0.13603 0.63513 0.0
H3466 H 0.7114 0.16377 0.64703 0.0
H3467 H 0.7004 0.14666 0.54278 0.0
H3468 H 0.73223 0.21605 0.63349 0.0
H3469 H 0.74908 0.22595 0.61128 0.0
H3470 H 0.74346 0.13197 0.47053 0.0
H3471 H 0.71807 0.19282 0.64663 0.0
H3472 H 0.69894 0.11295 0.50231 0.0
H3473 H 0.68694 0.12342 0.52753 0.0
N3474 N 0.72017 0.14879 0.52673 0.0
C3475 C 0.72635 0.14389 0.5124 0.0
C3476 C 0.70573 0.14213 0.53181 0.0
C3477 C 0.70493 0.12308 0.509 0.0
C3478 C 0.6981 0.12897 0.52321 0.0
C3479 C 0.71904 0.13078 0.50322 0.0
H3480 H 0.72035 0.11602 0.48121 0.0
N3481 N 0.74503 0.16617 0.51507 0.0
C3482 C 0.73932 0.15282 0.50643 0.0
C3483 C 0.75729 0.15935 0.48469 0.0
C3484 C 0.74538 0.14894 0.49106 0.0
C3485 C 0.75589 0.17689 0.50851 0.0
C3486 C 0.76233 0.17355 0.49332 0.0
O3487 O 0.73214 0.17968 0.58077 0.0
O3488 O 0.71794 0.16403 0.56279 0.0
O3489 O 0.71656 0.18836 0.54535 0.0
O3490 O 0.7227 0.18111 0.52108 0.0
O3491 O 0.74733 0.14112 0.57011 0.0
O3492 O 0.73457 0.14296 0.54575 0.0
O3493 O 0.76103 0.17097 0.54066 0.0
O3494 O 0.76502 0.15377 0.5598 0.0
O3495 O 0.77061 0.15687 0.5989 0.0
O3496 O 0.7799 0.17742 0.58643 0.0
O3497 O 0.75412 0.19325 0.54618 0.0
O3498 O 0.76783 0.18957 0.56955 0.0
C3499 C 0.71844 0.17171 0.57703 0.0
C3500 C 0.73961 0.13393 0.55722 0.0
C3501 C 0.69552 0.18605 0.5255 0.0
C3502 C 0.67357 0.1872 0.50592 0.0
C3503 C 0.66843 0.17571 0.53173 0.0
C3504 C 0.68449 0.17877 0.53603 0.0
C3505 C 0.66301 0.17991 0.51692 0.0
C3506 C 0.69 0.19008 0.51024 0.0
C3507 C 0.71279 0.18871 0.53017 0.0
C3508 C 0.73883 0.13527 0.48228 0.0
C3509 C 0.72567 0.1262 0.48835 0.0
H3510 H 0.76224 0.15683 0.47291 0.0
C3511 C 0.76832 0.15896 0.54564 0.0
C3512 C 0.76589 0.19831 0.55697 0.0
C3513 C 0.79714 0.15692 0.58857 0.0
C3514 C 0.80715 0.13278 0.57535 0.0
C3515 C 0.8241 0.15756 0.57747 0.0
C3516 C 0.81185 0.16533 0.58551 0.0
C3517 C 0.82179 0.14137 0.57238 0.0
C3518 C 0.79496 0.14067 0.58355 0.0
C3519 C 0.7834 0.16554 0.59482 0.0
H3520 H 0.6601 0.17001 0.53996 0.0
H3521 H 0.68828 0.17528 0.54761 0.0
H3522 H 0.65046 0.17725 0.51398 0.0
H3523 H 0.69838 0.19557 0.50191 0.0
H3524 H 0.83538 0.16415 0.57507 0.0
H3525 H 0.81372 0.17798 0.589 0.0
H3526 H 0.83142 0.13556 0.5662 0.0
H3527 H 0.7837 0.13409 0.58613 0.0
C3528 C 0.91213 0.7479 0.60427 0.0
C3529 C 0.93394 0.73554 0.61686 0.0
C3530 C 0.92852 0.74634 0.60604 0.0
C3531 C 0.92279 0.72618 0.6256 0.0
C3532 C 0.90099 0.73923 0.61388 0.0
C3533 C 0.90638 0.72816 0.62425 0.0
N3534 N 0.90709 0.75815 0.59356 0.0
C3535 C 0.8913 0.76168 0.59353 0.0
C3536 C 0.88473 0.74202 0.61293 0.0
C3537 C 0.87995 0.75356 0.60298 0.0
Gd3538 Gd 0.91914 0.74559 0.53889 0.0
Gd3539 Gd 0.92775 0.76987 0.57739 0.0
N3540 N 0.93916 0.75545 0.59737 0.0
C3541 C 0.95046 0.73462 0.61879 0.0
C3542 C 0.95522 0.75562 0.60031 0.0
C3543 C 0.96113 0.74495 0.61075 0.0
H3544 H 0.96355 0.76394 0.59465 0.0
H3545 H 0.97392 0.74476 0.61265 0.0
H3546 H 0.88423 0.75197 0.52108 0.0
H3547 H 0.8871 0.77102 0.58674 0.0
H3548 H 0.87513 0.76018 0.49509 0.0
H3549 H 0.95508 0.72637 0.62686 0.0
H3550 H 0.92675 0.71767 0.63376 0.0
H3551 H 0.9506 0.72304 0.53084 0.0
H3552 H 0.87586 0.73568 0.62017 0.0
H3553 H 0.86748 0.75634 0.60267 0.0
H3554 H 0.92121 0.75551 0.46105 0.0
H3555 H 0.89795 0.7212 0.63144 0.0
H3556 H 0.9648 0.729 0.4822 0.0
H3557 H 0.96903 0.71754 0.50835 0.0
N3558 N 0.93657 0.73816 0.51779 0.0
C3559 C 0.93322 0.74322 0.50317 0.0
C3560 C 0.94867 0.72816 0.51948 0.0
C3561 C 0.95674 0.73152 0.49206 0.0
C3562 C 0.95913 0.72499 0.50677 0.0
C3563 C 0.94336 0.74035 0.48996 0.0
H3564 H 0.94705 0.7437 0.46468 0.0
N3565 N 0.90846 0.74997 0.51365 0.0
C3566 C 0.91864 0.7495 0.50105 0.0
C3567 C 0.89818 0.75807 0.48378 0.0
C3568 C 0.91385 0.75357 0.48576 0.0
C3569 C 0.89279 0.75306 0.51148 0.0
C3570 C 0.88749 0.75745 0.49663 0.0
O3571 O 0.92145 0.74525 0.56624 0.0
O3572 O 0.9213 0.74497 0.56571 0.0
O3573 O 0.89773 0.72852 0.53736 0.0
O3574 O 0.92108 0.72054 0.5421 0.0
O3575 O 0.95307 0.76287 0.56819 0.0
O3576 O 0.94763 0.75098 0.54273 0.0
O3577 O 0.91832 0.77154 0.53462 0.0
O3578 O 0.93591 0.78038 0.55437 0.0
O3579 O 0.93925 0.79385 0.58022 0.0
O3580 O 0.92422 0.78454 0.59913 0.0
O3581 O 0.8969 0.76109 0.54544 0.0
O3582 O 0.90447 0.77846 0.56701 0.0
C3583 C 0.92897 0.73335 0.57165 0.0
C3584 C 0.95832 0.75633 0.55428 0.0
C3585 C 0.90215 0.70027 0.53256 0.0
C3586 C 0.88374 0.68003 0.51903 0.0
C3587 C 0.90941 0.67265 0.52883 0.0
C3588 C 0.91297 0.68836 0.53462 0.0
C3589 C 0.89495 0.66849 0.52107 0.0
C3590 C 0.88743 0.69602 0.52477 0.0
C3591 C 0.90597 0.71638 0.54027 0.0
C3592 C 0.92454 0.7522 0.47284 0.0
C3593 C 0.93927 0.74551 0.47492 0.0
H3594 H 0.89401 0.76127 0.47223 0.0
C3595 C 0.9265 0.78324 0.54258 0.0
C3596 C 0.89391 0.7735 0.55568 0.0
C3597 C 0.92154 0.81121 0.5931 0.0
C3598 C 0.91431 0.83599 0.60695 0.0
C3599 C 0.90453 0.82903 0.58012 0.0
C3600 C 0.91276 0.815 0.57974 0.0
C3601 C 0.90561 0.83975 0.59356 0.0
C3602 C 0.92154 0.82126 0.60678 0.0
C3603 C 0.93118 0.7972 0.59314 0.0
H3604 H 0.9179 0.66365 0.53037 0.0
H3605 H 0.92419 0.69112 0.54095 0.0
H3606 H 0.89269 0.65623 0.51635 0.0
H3607 H 0.87886 0.70498 0.52335 0.0
H3608 H 0.89791 0.83192 0.5697 0.0
H3609 H 0.91238 0.80731 0.569 0.0
H3610 H 0.90038 0.85121 0.59323 0.0
H3611 H 0.92861 0.81816 0.6168 0.0
C3612 C 0.38072 0.97284 0.57014 0.0
C3613 C 0.36245 0.96664 0.59183 0.0
C3614 C 0.36809 0.96343 0.57617 0.0
C3615 C 0.36895 0.98016 0.60088 0.0
C3616 C 0.38801 0.98581 0.57954 0.0
C3617 C 0.3817 0.98975 0.59472 0.0
N3618 N 0.38669 0.96846 0.55556 0.0
C3619 C 0.40094 0.97548 0.5504 0.0
C3620 C 0.40183 0.99395 0.57368 0.0
C3621 C 0.40849 0.98857 0.55918 0.0
Gd3622 Gd 0.35176 0.94935 0.50071 0.0
Gd3623 Gd 0.37287 0.94662 0.54136 0.0
N3624 N 0.36241 0.95023 0.56728 0.0
C3625 C 0.35102 0.95571 0.59821 0.0
C3626 C 0.35193 0.9391 0.57372 0.0
C3627 C 0.34597 0.94173 0.58922 0.0
H3628 H 0.3481 0.92822 0.56684 0.0
H3629 H 0.33752 0.93297 0.59422 0.0
H3630 H 0.35998 0.98688 0.4874 0.0
H3631 H 0.40617 0.97128 0.53925 0.0
H3632 H 0.37747 0.99966 0.46754 0.0
H3633 H 0.34646 0.95768 0.61024 0.0
H3634 H 0.36463 0.98294 0.61286 0.0
H3635 H 0.34974 0.90972 0.4906 0.0
H3636 H 0.40778 1.00399 0.58052 0.0
H3637 H 0.41947 0.99445 0.5548 0.0
H3638 H 0.39632 0.95557 0.43559 0.0
H3639 H 0.387 0.9998 0.60205 0.0
H3640 H 0.37698 0.90248 0.44784 0.0
H3641 H 0.35992 0.89158 0.46944 0.0
N3642 N 0.3611 0.93085 0.48133 0.0
C3643 C 0.36987 0.93717 0.46918 0.0
C3644 C 0.35715 0.91472 0.4813 0.0
C3645 C 0.37247 0.91057 0.45708 0.0
C3646 C 0.36288 0.90436 0.46928 0.0
C3647 C 0.37604 0.92714 0.45687 0.0
H3648 H 0.39072 0.92635 0.43547 0.0
N3649 N 0.36602 0.96316 0.48068 0.0
C3650 C 0.37283 0.95372 0.46914 0.0
C3651 C 0.38447 0.97725 0.45676 0.0
C3652 C 0.38229 0.96054 0.45691 0.0
C3653 C 0.36696 0.97943 0.47966 0.0
C3654 C 0.37652 0.98673 0.46802 0.0
O3655 O 0.34596 0.94655 0.5414 0.0
O3656 O 0.34239 0.96322 0.52161 0.0
O3657 O 0.33752 0.95606 0.48087 0.0
O3658 O 0.3265 0.9413 0.49879 0.0
O3659 O 0.35287 0.92388 0.53634 0.0
O3660 O 0.34024 0.92647 0.51212 0.0
O3661 O 0.37521 0.93665 0.50188 0.0
O3662 O 0.3891 0.95309 0.51936 0.0
O3663 O 0.39076 0.92898 0.53673 0.0
O3664 O 0.38496 0.93635 0.56102 0.0
O3665 O 0.35971 0.97579 0.51221 0.0
O3666 O 0.37204 0.97434 0.53682 0.0
C3667 C 0.33867 0.95834 0.53575 0.0
C3668 C 0.34156 0.91831 0.52521 0.0
C3669 C 0.31275 0.96292 0.49128 0.0
C3670 C 0.30905 0.99077 0.49937 0.0
C3671 C 0.28591 0.97202 0.49415 0.0
C3672 C 0.29609 0.95973 0.49028 0.0
C3673 C 0.29234 0.98759 0.49846 0.0
C3674 C 0.31897 0.97815 0.49669 0.0
C3675 C 0.32411 0.95071 0.48733 0.0
C3676 C 0.38893 0.95054 0.44499 0.0
C3677 C 0.3857 0.9339 0.44489 0.0
H3678 H 0.39173 0.98293 0.44763 0.0
C3679 C 0.38883 0.94486 0.50541 0.0
C3680 C 0.36695 0.98329 0.5253 0.0
C3681 C 0.41224 0.93137 0.5563 0.0
C3682 C 0.43463 0.93058 0.57563 0.0
C3683 C 0.43952 0.94009 0.54891 0.0
C3684 C 0.4233 0.93748 0.5451 0.0
C3685 C 0.44513 0.93664 0.5639 0.0
C3686 C 0.41799 0.92813 0.57178 0.0
C3687 C 0.3948 0.92877 0.55185 0.0
H3688 H 0.27304 0.96962 0.49327 0.0
H3689 H 0.29103 0.94786 0.4865 0.0
H3690 H 0.28437 0.9972 0.50029 0.0
H3691 H 0.33184 0.98054 0.49784 0.0
H3692 H 0.44786 0.94483 0.54013 0.0
H3693 H 0.41942 0.94033 0.53334 0.0
H3694 H 0.45783 0.93889 0.56639 0.0
H3695 H 0.40964 0.9235 0.58063 0.0
C3696 C 0.18194 0.36796 0.58136 0.0
C3697 C 0.20721 0.3627 0.59321 0.0
C3698 C 0.19778 0.36479 0.57963 0.0
C3699 C 0.20008 0.36298 0.60844 0.0
C3700 C 0.17492 0.36927 0.59672 0.0
C3701 C 0.18399 0.36645 0.61021 0.0
N3702 N 0.17393 0.37159 0.56821 0.0
C3703 C 0.15919 0.37767 0.56973 0.0
C3704 C 0.15932 0.37426 0.59813 0.0
C3705 C 0.15153 0.37875 0.58458 0.0
Gd3706 Gd 0.18058 0.35094 0.49975 0.0
Gd3707 Gd 0.18698 0.36945 0.54322 0.0
N3708 N 0.20441 0.36571 0.56488 0.0
C3709 C 0.22373 0.36159 0.59122 0.0
C3710 C 0.22079 0.36648 0.56329 0.0
C3711 C 0.2306 0.36386 0.57623 0.0
H3712 H 0.22637 0.36898 0.55193 0.0
H3713 H 0.24348 0.3639 0.5747 0.0
H3714 H 0.14652 0.36169 0.48446 0.0
H3715 H 0.15343 0.38222 0.55962 0.0
H3716 H 0.13772 0.3812 0.46588 0.0
H3717 H 0.23138 0.35993 0.60132 0.0
H3718 H 0.2071 0.36132 0.61899 0.0
H3719 H 0.22297 0.35334 0.49681 0.0
H3720 H 0.1535 0.3754 0.60969 0.0
H3721 H 0.13977 0.38341 0.58559 0.0
H3722 H 0.18668 0.40579 0.44581 0.0
H3723 H 0.17882 0.36741 0.62208 0.0
H3724 H 0.23628 0.38854 0.46399 0.0
H3725 H 0.24346 0.36872 0.48292 0.0
N3726 N 0.20301 0.36433 0.48685 0.0
C3727 C 0.19887 0.37482 0.47585 0.0
C3728 C 0.21894 0.36195 0.48906 0.0
C3729 C 0.22688 0.38177 0.47019 0.0
C3730 C 0.23096 0.37066 0.48092 0.0
C3731 C 0.21073 0.38392 0.46745 0.0
H3732 H 0.21518 0.40207 0.45021 0.0
N3733 N 0.17135 0.36804 0.48125 0.0
C3734 C 0.18268 0.37676 0.47308 0.0
C3735 C 0.1618 0.38965 0.45979 0.0
C3736 C 0.17814 0.38793 0.4622 0.0
C3737 C 0.15541 0.36918 0.47846 0.0
C3738 C 0.15039 0.38013 0.46785 0.0
O3739 O 0.17175 0.34611 0.54138 0.0
O3740 O 0.18194 0.33375 0.51873 0.0
O3741 O 0.16551 0.33018 0.49077 0.0
O3742 O 0.18552 0.33949 0.47664 0.0
O3743 O 0.20655 0.35104 0.53804 0.0
O3744 O 0.20355 0.34171 0.51154 0.0
O3745 O 0.17625 0.37626 0.50713 0.0
O3746 O 0.19886 0.37662 0.52029 0.0
O3747 O 0.20293 0.39091 0.54623 0.0
O3748 O 0.1776 0.39303 0.5419 0.0
O3749 O 0.15478 0.354 0.5108 0.0
O3750 O 0.15913 0.36641 0.53623 0.0
C3751 C 0.17394 0.33328 0.53205 0.0
C3752 C 0.21171 0.34244 0.52537 0.0
C3753 C 0.18404 0.312 0.48085 0.0
C3754 C 0.18179 0.28286 0.47896 0.0
C3755 C 0.20792 0.29707 0.48248 0.0
C3756 C 0.2008 0.31171 0.48221 0.0
C3757 C 0.1985 0.28263 0.48033 0.0
C3758 C 0.1747 0.29767 0.48063 0.0
C3759 C 0.17609 0.32707 0.47971 0.0
C3760 C 0.18996 0.39709 0.45411 0.0
C3761 C 0.20619 0.39501 0.45665 0.0
H3762 H 0.15786 0.39817 0.45161 0.0
C3763 C 0.18937 0.38432 0.51161 0.0
C3764 C 0.14894 0.36063 0.52445 0.0
C3765 C 0.19211 0.41446 0.55696 0.0
C3766 C 0.20747 0.4372 0.57017 0.0
C3767 C 0.17893 0.4328 0.57536 0.0
C3768 C 0.1782 0.41922 0.56487 0.0
C3769 C 0.19347 0.44177 0.57798 0.0
C3770 C 0.20679 0.42355 0.55967 0.0
C3771 C 0.19148 0.40059 0.5453 0.0
H3772 H 0.22084 0.29694 0.48335 0.0
H3773 H 0.20839 0.32274 0.48274 0.0
H3774 H 0.20427 0.27146 0.4787 0.0
H3775 H 0.16186 0.29826 0.47974 0.0
H3776 H 0.16818 0.43643 0.5814 0.0
H3777 H 0.16674 0.41257 0.5629 0.0
H3778 H 0.19382 0.45231 0.58613 0.0
H3779 H 0.21759 0.42013 0.55351 0.0
C3780 C 0.35666 0.23719 0.59387 0.0
C3781 C 0.32825 0.24193 0.59602 0.0
C3782 C 0.34059 0.23228 0.5905 0.0
C3783 C 0.33214 0.25651 0.60467 0.0
C3784 C 0.36039 0.25138 0.60345 0.0
C3785 C 0.34813 0.2612 0.60839 0.0
N3786 N 0.36842 0.22737 0.58919 0.0
C3787 C 0.38329 0.22967 0.59604 0.0
C3788 C 0.37624 0.25487 0.60856 0.0
C3789 C 0.38763 0.24372 0.60524 0.0
Gd3790 Gd 0.37425 0.20372 0.53008 0.0
Gd3791 Gd 0.3595 0.20461 0.57291 0.0
N3792 N 0.33701 0.21805 0.58201 0.0
C3793 C 0.31232 0.23682 0.59244 0.0
C3794 C 0.32141 0.21292 0.57883 0.0
C3795 C 0.30892 0.22232 0.58375 0.0
H3796 H 0.31847 0.20186 0.57208 0.0
H3797 H 0.29665 0.21846 0.5807 0.0
H3798 H 0.41115 0.19068 0.53417 0.0
H3799 H 0.3918 0.22056 0.59452 0.0
H3800 H 0.42991 0.17446 0.51913 0.0
H3801 H 0.30256 0.24403 0.59624 0.0
H3802 H 0.3228 0.26412 0.6088 0.0
H3803 H 0.34718 0.21353 0.5038 0.0
H3804 H 0.37956 0.26564 0.61591 0.0
H3805 H 0.39964 0.24576 0.61006 0.0
H3806 H 0.40502 0.16404 0.46783 0.0
H3807 H 0.35085 0.27224 0.61554 0.0
H3808 H 0.35904 0.19305 0.45775 0.0
H3809 H 0.34192 0.20976 0.47488 0.0
N3810 N 0.36707 0.19896 0.5031 0.0
C3811 C 0.37646 0.18954 0.49387 0.0
C3812 C 0.35458 0.20595 0.49654 0.0
C3813 C 0.3611 0.19421 0.47052 0.0
C3814 C 0.3515 0.20379 0.48015 0.0
C3815 C 0.37354 0.18662 0.47738 0.0
H3816 H 0.38136 0.17434 0.45552 0.0
N3817 N 0.39316 0.18864 0.51605 0.0
C3818 C 0.38984 0.18399 0.50065 0.0
C3819 C 0.41487 0.17109 0.49825 0.0
C3820 C 0.40055 0.17503 0.49131 0.0
C3821 C 0.40762 0.18573 0.52252 0.0
C3822 C 0.41854 0.17675 0.51386 0.0
O3823 O 0.34683 0.22357 0.55884 0.0
O3824 O 0.35326 0.22123 0.53183 0.0
O3825 O 0.3821 0.22791 0.53959 0.0
O3826 O 0.39294 0.2176 0.51808 0.0
O3827 O 0.34027 0.19228 0.55757 0.0
O3828 O 0.34772 0.1967 0.53104 0.0
O3829 O 0.37256 0.17711 0.53635 0.0
O3830 O 0.36218 0.17747 0.56218 0.0
O3831 O 0.35644 0.20412 0.59853 0.0
O3832 O 0.36597 0.184 0.58594 0.0
O3833 O 0.38919 0.19595 0.55044 0.0
O3834 O 0.38309 0.21617 0.56652 0.0
C3835 C 0.34521 0.22816 0.54396 0.0
C3836 C 0.3375 0.19179 0.54216 0.0
C3837 C 0.39615 0.24567 0.5218 0.0
C3838 C 0.41568 0.26419 0.50913 0.0
C3839 C 0.38783 0.27071 0.51248 0.0
C3840 C 0.38409 0.25619 0.51963 0.0
C3841 C 0.40347 0.27468 0.50718 0.0
C3842 C 0.41187 0.24986 0.51679 0.0
C3843 C 0.39293 0.22983 0.5284 0.0
C3844 C 0.39705 0.17106 0.47516 0.0
C3845 C 0.3836 0.17694 0.46816 0.0
H3846 H 0.42346 0.16434 0.49146 0.0
C3847 C 0.36717 0.16919 0.54888 0.0
C3848 C 0.39388 0.20705 0.56116 0.0
C3849 C 0.34636 0.17989 0.6059 0.0
C3850 C 0.31743 0.17611 0.6027 0.0
C3851 C 0.32946 0.17568 0.62905 0.0
C3852 C 0.34475 0.17857 0.62242 0.0
C3853 C 0.31579 0.17481 0.6193 0.0
C3854 C 0.33285 0.17762 0.59617 0.0
C3855 C 0.3598 0.1894 0.59932 0.0
H3856 H 0.37849 0.27879 0.51073 0.0
H3857 H 0.37186 0.25311 0.52328 0.0
H3858 H 0.40586 0.28572 0.50116 0.0
H3859 H 0.42113 0.24169 0.51866 0.0
H3860 H 0.32815 0.17492 0.64185 0.0
H3861 H 0.35505 0.18086 0.63021 0.0
H3862 H 0.30403 0.17338 0.62475 0.0
H3863 H 0.33435 0.17955 0.58359 0.0
C3864 C 0.9531 0.38265 0.51056 0.0
C3865 C 0.94849 0.36588 0.48619 0.0
C3866 C 0.94429 0.3703 0.50207 0.0
C3867 C 0.96203 0.3736 0.47919 0.0
C3868 C 0.96616 0.391 0.50325 0.0
C3869 C 0.9708 0.38617 0.48767 0.0
N3870 N 0.94846 0.38694 0.52574 0.0
C3871 C 0.95521 0.40059 0.53348 0.0
C3872 C 0.97389 0.40425 0.51164 0.0
C3873 C 0.96823 0.40921 0.52671 0.0
Gd3874 Gd 0.93179 0.35293 0.57407 0.0
Gd3875 Gd 0.92565 0.37229 0.53539 0.0
N3876 N 0.93091 0.36344 0.50892 0.0
C3877 C 0.93864 0.35424 0.4776 0.0
C3878 C 0.92083 0.35263 0.50035 0.0
C3879 C 0.92465 0.34774 0.48464 0.0
H3880 H 0.90984 0.3478 0.50568 0.0
H3881 H 0.91676 0.33903 0.47796 0.0
H3882 H 0.96467 0.3598 0.59667 0.0
H3883 H 0.95081 0.40452 0.54508 0.0
H3884 H 0.97193 0.37217 0.62344 0.0
H3885 H 0.94149 0.35053 0.46537 0.0
H3886 H 0.96552 0.37028 0.46704 0.0
H3887 H 0.89746 0.37081 0.56355 0.0
H3888 H 0.98395 0.41099 0.50641 0.0
H3889 H 0.97383 0.41972 0.53307 0.0
H3890 H 0.92347 0.39407 0.64257 0.0
H3891 H 0.98092 0.39232 0.48194 0.0
H3892 H 0.88024 0.39485 0.60572 0.0
H3893 H 0.87691 0.38599 0.57726 0.0
N3894 N 0.91159 0.36912 0.58444 0.0
C3895 C 0.91415 0.37475 0.59992 0.0
C3896 C 0.89872 0.37365 0.57618 0.0
C3897 C 0.88911 0.38765 0.59991 0.0
C3898 C 0.88717 0.38265 0.58384 0.0
C3899 C 0.90292 0.38415 0.60801 0.0
H3900 H 0.89756 0.39761 0.63002 0.0
N3901 N 0.94013 0.36485 0.59875 0.0
C3902 C 0.92883 0.37264 0.6072 0.0
C3903 C 0.94806 0.37939 0.62848 0.0
C3904 C 0.93251 0.38 0.62244 0.0
C3905 C 0.95562 0.36521 0.60405 0.0
C3906 C 0.95974 0.37221 0.61912 0.0
O3907 O 0.92375 0.34535 0.53226 0.0
O3908 O 0.94147 0.3416 0.55182 0.0
O3909 O 0.93905 0.33854 0.59325 0.0
O3910 O 0.92195 0.32836 0.57596 0.0
O3911 O 0.90409 0.35101 0.53947 0.0
O3912 O 0.90641 0.34338 0.56545 0.0
O3913 O 0.94255 0.37877 0.57516 0.0
O3914 O 0.9251 0.3893 0.55868 0.0
O3915 O 0.91574 0.38292 0.51443 0.0
O3916 O 0.90867 0.39119 0.53776 0.0
O3917 O 0.95791 0.35662 0.56333 0.0
O3918 O 0.95401 0.37016 0.54036 0.0
C3919 C 0.93352 0.33627 0.53908 0.0
C3920 C 0.89864 0.34165 0.55161 0.0
C3921 C 0.94185 0.31237 0.58347 0.0
C3922 C 0.96894 0.30605 0.57691 0.0
C3923 C 0.94961 0.28537 0.58603 0.0
C3924 C 0.93805 0.2967 0.5879 0.0
C3925 C 0.96522 0.29014 0.58112 0.0
C3926 C 0.95651 0.31622 0.5762 0.0
C3927 C 0.93161 0.32547 0.58731 0.0
C3928 C 0.9209 0.38849 0.63079 0.0
C3929 C 0.90614 0.39051 0.62363 0.0
H3930 H 0.95133 0.38499 0.64009 0.0
C3931 C 0.93491 0.39117 0.57121 0.0
C3932 C 0.96415 0.3641 0.55067 0.0
C3933 C 0.91368 0.41125 0.51807 0.0
C3934 C 0.91527 0.43378 0.49942 0.0
C3935 C 0.92805 0.43681 0.52571 0.0
C3936 C 0.92255 0.42134 0.52924 0.0
C3937 C 0.92454 0.4429 0.51111 0.0
C3938 C 0.9101 0.41757 0.5029 0.0
C3939 C 0.90901 0.3942 0.52255 0.0
H3940 H 0.94684 0.27324 0.58955 0.0
H3941 H 0.92647 0.29338 0.59308 0.0
H3942 H 0.97447 0.28176 0.5818 0.0
H3943 H 0.95899 0.32814 0.57207 0.0
H3944 H 0.93511 0.44421 0.53445 0.0
H3945 H 0.92551 0.41723 0.54082 0.0
H3946 H 0.92923 0.45499 0.50895 0.0
H3947 H 0.9032 0.41009 0.49409 0.0
C3948 C 0.18645 0.74155 0.47411 0.0
C3949 C 0.16246 0.72838 0.4618 0.0
C3950 C 0.16989 0.73849 0.47409 0.0
C3951 C 0.17186 0.72143 0.4497 0.0
C3952 C 0.19588 0.73487 0.46175 0.0
C3953 C 0.18851 0.72477 0.4496 0.0
N3954 N 0.19339 0.7508 0.4864 0.0
C3955 C 0.20957 0.75465 0.48649 0.0
C3956 C 0.2125 0.7384 0.46206 0.0
C3957 C 0.21935 0.74839 0.47444 0.0
Gd3958 Gd 0.18084 0.74363 0.54668 0.0
Gd3959 Gd 0.17586 0.76195 0.50531 0.0
N3960 N 0.16104 0.74558 0.48584 0.0
C3961 C 0.14576 0.72574 0.46186 0.0
C3962 C 0.14465 0.74383 0.48523 0.0
C3963 C 0.13682 0.73366 0.47352 0.0
H3964 H 0.13742 0.75061 0.4933 0.0
H3965 H 0.12384 0.73221 0.47331 0.0
H3966 H 0.19921 0.77037 0.57285 0.0
H3967 H 0.21505 0.76243 0.4959 0.0
H3968 H 0.19436 0.78257 0.59986 0.0
H3969 H 0.13963 0.71801 0.45269 0.0
H3970 H 0.16635 0.71361 0.44024 0.0
H3971 H 0.15518 0.71083 0.54266 0.0
H3972 H 0.22014 0.7335 0.45278 0.0
H3973 H 0.23218 0.75131 0.47469 0.0
H3974 H 0.14601 0.75422 0.61729 0.0
H3975 H 0.19558 0.71943 0.4401 0.0
H3976 H 0.12403 0.71017 0.58338 0.0
H3977 H 0.13245 0.69811 0.55729 0.0
N3978 N 0.15905 0.73046 0.55982 0.0
C3979 C 0.15538 0.73655 0.57466 0.0
C3980 C 0.15152 0.71632 0.55393 0.0
C3981 C 0.13397 0.71587 0.57695 0.0
C3982 C 0.13867 0.70903 0.56223 0.0
C3983 C 0.14255 0.72962 0.5835 0.0
H3984 H 0.12909 0.73129 0.60567 0.0
N3985 N 0.1779 0.75492 0.57278 0.0
C3986 C 0.16506 0.74923 0.5813 0.0
C3987 C 0.17247 0.768 0.60342 0.0
C3988 C 0.16196 0.75565 0.59684 0.0
C3989 C 0.18865 0.76639 0.57944 0.0
C3990 C 0.18598 0.77326 0.59474 0.0
O3991 O 0.18847 0.73874 0.50718 0.0
O3992 O 0.17267 0.72654 0.52485 0.0
O3993 O 0.19776 0.72485 0.54288 0.0
O3994 O 0.19156 0.73262 0.56685 0.0
O3995 O 0.15011 0.75671 0.51742 0.0
O3996 O 0.15285 0.74578 0.54215 0.0
O3997 O 0.18246 0.77034 0.54745 0.0
O3998 O 0.1653 0.77395 0.52711 0.0
O3999 O 0.16599 0.775 0.48641 0.0
O4000 O 0.18671 0.78521 0.49965 0.0
O4001 O 0.20331 0.76375 0.54079 0.0
O4002 O 0.19888 0.77473 0.51644 0.0
C4003 C 0.18022 0.72563 0.51102 0.0
C4004 C 0.14332 0.75068 0.53071 0.0
C4005 C 0.19498 0.70452 0.56275 0.0
C4006 C 0.19445 0.68288 0.58231 0.0
C4007 C 0.18635 0.6769 0.55455 0.0
C4008 C 0.18933 0.69291 0.55099 0.0
C4009 C 0.18893 0.67195 0.56988 0.0
C4010 C 0.19735 0.6994 0.57868 0.0
C4011 C 0.19825 0.72171 0.55807 0.0
C4012 C 0.14868 0.74935 0.60539 0.0
C4013 C 0.13902 0.73632 0.59876 0.0
H4014 H 0.17048 0.77329 0.6153 0.0
C4015 C 0.17234 0.77892 0.54055 0.0
C4016 C 0.20791 0.77449 0.5294 0.0
C4017 C 0.16667 0.8021 0.49508 0.0
C4018 C 0.14284 0.81262 0.50735 0.0
C4019 C 0.16382 0.83065 0.49642 0.0
C4020 C 0.17255 0.81755 0.4916 0.0
C4021 C 0.14887 0.82822 0.50387 0.0
C4022 C 0.15264 0.79996 0.50404 0.0
C4023 C 0.17512 0.78794 0.49015 0.0
H4024 H 0.18203 0.66819 0.54525 0.0
H4025 H 0.18717 0.69615 0.53889 0.0
H4026 H 0.1865 0.65937 0.57208 0.0
H4027 H 0.20167 0.70809 0.588 0.0
H4028 H 0.16828 0.84264 0.49371 0.0
H4029 H 0.18377 0.81946 0.48522 0.0
H4030 H 0.14186 0.8385 0.50606 0.0
H4031 H 0.14898 0.78808 0.50764 0.0
C4032 C 0.10358 0.25923 0.60741 0.0
C4033 C 0.09118 0.25479 0.61844 0.0
C4034 C 0.10117 0.25895 0.59018 0.0
C4035 C 0.06759 0.25225 0.55612 0.0
H4036 H 0.10341 0.25656 0.52696 0.0
C4037 C 0.05626 0.25622 0.48456 0.0
C4038 C 0.0681 0.25295 0.47267 0.0
C4039 C 0.05915 0.25626 0.5016 0.0
C4040 C 0.09299 0.25523 0.5346 0.0
H4041 H 0.06592 0.24689 0.61795 0.0
H4042 H 0.06189 0.24618 0.58926 0.0
H4043 H 0.10804 0.25691 0.55577 0.0
H4044 H 0.09308 0.24749 0.47141 0.0
H4045 H 0.0981 0.24778 0.50029 0.0
H4046 H 0.05254 0.25047 0.53499 0.0
C4047 C 0.07378 0.24998 0.59361 0.0
C4048 C 0.09573 0.25555 0.55173 0.0
C4049 C 0.07621 0.25024 0.61069 0.0
C4050 C 0.08323 0.24999 0.47942 0.0
C4051 C 0.0862 0.25024 0.4965 0.0
C4052 C 0.06485 0.25202 0.53903 0.0
C4053 C 0.0861 0.25433 0.58243 0.0
C4054 C 0.08316 0.25406 0.56337 0.0
C4055 C 0.07426 0.2533 0.50844 0.0
C4056 C 0.0774 0.2535 0.52741 0.0
H4057 H 0.11538 0.26303 0.61206 0.0
H4058 H 0.11137 0.26263 0.58294 0.0
H4059 H 0.05709 0.25109 0.56367 0.0
H4060 H 0.04447 0.25893 0.48076 0.0
H4061 H 0.04928 0.25896 0.50946 0.0
C4062 C 0.83898 1.01393 0.6156 0.0
C4063 C 0.84498 0.02651 0.62662 0.0
C4064 C 0.8409 1.01443 0.59841 0.0
C4065 C 0.85696 0.04233 0.56379 0.0
H4066 H 0.84597 1.00468 0.53624 0.0
C4067 C 0.86052 0.04459 0.49083 0.0
C4068 C 0.86095 0.03036 0.48066 0.0
C4069 C 0.85886 0.04443 0.50809 0.0
C4070 C 0.84935 1.01551 0.54343 0.0
H4071 H 0.85757 0.04998 0.62618 0.0
H4072 H 0.86097 0.05085 0.59741 0.0
H4073 H 0.84279 1.00363 0.56505 0.0
H4074 H 0.86126 1.00482 0.48267 0.0
H4075 H 0.85834 1.0044 0.51163 0.0
H4076 H 0.8636 0.05415 0.54206 0.0
C4077 C 0.8547 0.04024 0.60179 0.0
C4078 C 0.84732 1.01492 0.56056 0.0
C4079 C 0.85281 0.0397 0.61891 0.0
C4080 C 0.86031 1.01614 0.48925 0.0
C4081 C 0.85863 1.01594 0.5064 0.0
C4082 C 0.85893 0.04292 0.54664 0.0
C4083 C 0.84889 0.02763 0.59067 0.0
C4084 C 0.85106 0.0283 0.57161 0.0
C4085 C 0.85757 0.03002 0.51664 0.0
C4086 C 0.85529 0.02952 0.53565 0.0
H4087 H 0.83255 1.00351 0.62019 0.0
H4088 H 0.83581 1.00425 0.59121 0.0
H4089 H 0.86009 0.05326 0.57089 0.0
H4090 H 0.86112 0.05606 0.48541 0.0
H4091 H 0.85833 0.05586 0.51469 0.0
C4092 C 0.02503 0.86582 0.603 0.0
C4093 C 0.04017 0.86296 0.60981 0.0
C4094 C 0.02214 0.86563 0.58589 0.0
C4095 C 0.04375 0.86378 0.54337 0.0
H4096 H 1.00065 0.85916 0.5264 0.0
C4097 C 0.03239 0.86629 0.47165 0.0
C4098 C 0.01767 0.8608 0.46388 0.0
C4099 C 0.03483 0.86655 0.48876 0.0
C4100 C 1.01294 0.86042 0.53052 0.0
H4101 H 0.06392 0.85745 0.60178 0.0
H4102 H 0.05926 0.85755 0.57308 0.0
H4103 H 1.0051 0.85965 0.55527 0.0
H4104 H 0.99396 0.851 0.47017 0.0
H4105 H 0.99796 0.85152 0.49928 0.0
H4106 H 0.05164 0.86449 0.51872 0.0
C4107 C 0.04929 0.86 0.5809 0.0
C4108 C 1.01558 0.86083 0.54768 0.0
C4109 C 0.0521 0.85999 0.59795 0.0
C4110 C 1.00554 0.85551 0.47486 0.0
C4111 C 1.00794 0.85587 0.49208 0.0
C4112 C 0.04111 0.86349 0.52626 0.0
C4113 C 0.03416 0.86273 0.57398 0.0
C4114 C 0.03113 0.86248 0.55496 0.0
C4115 C 0.02273 0.86139 0.49988 0.0
C4116 C 0.02558 0.86175 0.51894 0.0
H4117 H 1.01513 0.8682 0.61098 0.0
H4118 H 1.01023 0.86798 0.58206 0.0
H4119 H 0.05605 0.86523 0.54746 0.0
H4120 H 0.04242 0.87044 0.46438 0.0
H4121 H 0.04649 0.87108 0.49321 0.0
C4122 C 0.2416 0.0694 0.593 0.0
C4123 C 0.2446 0.08351 0.60319 0.0
C4124 C 0.24315 0.06931 0.57571 0.0
C4125 C 0.25617 0.0974 0.5403 0.0
H4126 H 0.24333 0.06007 0.51303 0.0
C4127 C 0.26625 0.09884 0.46867 0.0
C4128 C 0.26011 0.08649 0.4575 0.0
C4129 C 0.26415 0.09827 0.48574 0.0
C4130 C 0.24705 0.07086 0.5201 0.0
H4131 H 0.25109 0.10844 0.6015 0.0
H4132 H 0.2534 0.10875 0.57261 0.0
H4133 H 0.24006 0.05938 0.54188 0.0
H4134 H 0.24703 0.06329 0.45751 0.0
H4135 H 0.24312 0.06232 0.48632 0.0
H4136 H 0.26295 0.10899 0.5187 0.0
C4137 C 0.25032 0.09736 0.57761 0.0
C4138 C 0.24519 0.07041 0.53727 0.0
C4139 C 0.24893 0.09733 0.59472 0.0
C4140 C 0.25181 0.07341 0.46492 0.0
C4141 C 0.24969 0.0728 0.48203 0.0
C4142 C 0.25799 0.09786 0.5232 0.0
C4143 C 0.24769 0.08336 0.56723 0.0
C4144 C 0.24966 0.08367 0.54819 0.0
C4145 C 0.25576 0.08523 0.49327 0.0
C4146 C 0.25356 0.08462 0.51225 0.0
H4147 H 0.23825 0.05818 0.59838 0.0
H4148 H 0.24085 0.05794 0.56908 0.0
H4149 H 0.26014 0.10817 0.54728 0.0
H4150 H 0.27294 0.1092 0.46423 0.0
H4151 H 0.26946 0.1083 0.49299 0.0
C4152 C 0.62714 0.07844 0.24194 0.0
C4153 C 0.63738 0.06579 0.23821 0.0
C4154 C 0.60993 0.07679 0.23988 0.0
C4155 C 0.57331 0.04523 0.23056 0.0
H4156 H 0.54895 0.0827 0.22832 0.0
C4157 C 0.50075 0.03859 0.22878 0.0
C4158 C 0.49124 0.05023 0.22247 0.0
C4159 C 0.51796 0.04056 0.2301 0.0
C4160 C 0.55527 0.07188 0.22879 0.0
H4161 H 0.63558 0.04086 0.22957 0.0
H4162 H 0.60647 0.038 0.22601 0.0
H4163 H 0.57811 0.08569 0.23156 0.0
H4164 H 0.49415 0.07392 0.21321 0.0
H4165 H 0.52354 0.07753 0.21582 0.0
H4166 H 0.55056 0.03142 0.22755 0.0
C4167 C 0.61166 0.04953 0.23056 0.0
C4168 C 0.5725 0.07364 0.23087 0.0
C4169 C 0.62888 0.05124 0.23252 0.0
C4170 C 0.50039 0.06429 0.21791 0.0
C4171 C 0.51767 0.06643 0.21956 0.0
C4172 C 0.55613 0.04348 0.22849 0.0
C4173 C 0.60138 0.06226 0.23408 0.0
C4174 C 0.58232 0.06039 0.23184 0.0
C4175 C 0.52723 0.05459 0.22566 0.0
C4176 C 0.5463 0.0567 0.22758 0.0
H4177 H 0.63238 0.08987 0.24666 0.0
H4178 H 0.6033 0.08713 0.24318 0.0
H4179 H 0.5795 0.03438 0.23133 0.0
H4180 H 0.49487 0.0277 0.23297 0.0
H4181 H 0.52396 0.03098 0.23516 0.0
C4182 C 0.07658 0.61145 0.23328 0.0
C4183 C 0.0643 0.62108 0.22831 0.0
C4184 C 0.07447 0.59427 0.23415 0.0
C4185 C 0.0424 0.55736 0.23331 0.0
H4186 H 0.07976 0.53255 0.23263 0.0
C4187 C 0.0353 0.48543 0.24202 0.0
C4188 C 0.04806 0.47513 0.23951 0.0
C4189 C 0.03708 0.50259 0.24057 0.0
C4190 C 0.06891 0.53887 0.23282 0.0
H4191 H 0.03944 0.61841 0.2208 0.0
H4192 H 0.03569 0.5891 0.22249 0.0
H4193 H 0.08277 0.56138 0.23004 0.0
H4194 H 0.07324 0.47669 0.23305 0.0
H4195 H 0.07629 0.50563 0.2302 0.0
H4196 H 0.02851 0.53488 0.23602 0.0
C4197 C 0.04734 0.59483 0.22562 0.0
C4198 C 0.07072 0.55603 0.23141 0.0
C4199 C 0.04955 0.61207 0.22448 0.0
C4200 C 0.0628 0.48347 0.23522 0.0
C4201 C 0.06459 0.50063 0.23366 0.0
C4202 C 0.04058 0.54018 0.2348 0.0
C4203 C 0.05976 0.58515 0.23043 0.0
C4204 C 0.05757 0.5661 0.23167 0.0
C4205 C 0.05181 0.51104 0.2363 0.0
C4206 C 0.05376 0.5301 0.23464 0.0
H4207 H 0.08814 0.61727 0.23664 0.0
H4208 H 0.08457 0.58819 0.23822 0.0
H4209 H 0.03163 0.56385 0.23374 0.0
H4210 H 0.02362 0.48024 0.24511 0.0
H4211 H 0.02658 0.50919 0.24298 0.0
C4212 C 0.60563 0.05472 0.86182 0.0
C4213 C 0.61475 0.06848 0.85656 0.0
C4214 C 0.58842 0.05235 0.86005 0.0
C4215 C 0.54995 0.07404 0.84873 0.0
H4216 H 0.52846 0.03177 0.84993 0.0
C4217 C 0.47762 0.06539 0.8413 0.0
C4218 C 0.46893 0.0501 0.84017 0.0
C4219 C 0.49478 0.06748 0.84336 0.0
C4220 C 0.53383 0.04385 0.84951 0.0
H4221 H 0.61128 0.09022 0.84455 0.0
H4222 H 0.58215 0.08633 0.84163 0.0
H4223 H 0.55744 0.03538 0.853 0.0
H4224 H 0.47318 0.025 0.84134 0.0
H4225 H 0.50209 0.02858 0.84617 0.0
H4226 H 0.52658 0.08258 0.84492 0.0
C4227 C 0.58814 0.07727 0.84755 0.0
C4228 C 0.55104 0.04598 0.85143 0.0
C4229 C 0.60533 0.07956 0.84922 0.0
C4230 C 0.47876 0.03706 0.84168 0.0
C4231 C 0.49589 0.03919 0.84431 0.0
C4232 C 0.53277 0.07193 0.84679 0.0
C4233 C 0.5789 0.0636 0.85294 0.0
C4234 C 0.55987 0.06117 0.85108 0.0
C4235 C 0.50478 0.05445 0.84487 0.0
C4236 C 0.52385 0.05674 0.8471 0.0
H4237 H 0.61183 0.04553 0.86734 0.0
H4238 H 0.58259 0.04156 0.86454 0.0
H4239 H 0.55542 0.08611 0.84839 0.0
H4240 H 0.4711 0.07605 0.84044 0.0
H4241 H 0.50005 0.07964 0.84393 0.0
C4242 C 0.07319 0.63025 0.83516 0.0
C4243 C 0.06102 0.6406 0.84012 0.0
C4244 C 0.07172 0.61311 0.8367 0.0
C4245 C 0.041 0.57697 0.84611 0.0
H4246 H 0.07865 0.55253 0.84637 0.0
C4247 C 0.03434 0.50465 0.8454 0.0
C4248 C 0.04626 0.49526 0.85155 0.0
C4249 C 0.03639 0.52176 0.84434 0.0
C4250 C 0.0678 0.55888 0.84642 0.0
H4251 H 0.03713 0.63911 0.85028 0.0
H4252 H 0.03458 0.61015 0.853 0.0
H4253 H 0.08146 0.58161 0.84402 0.0
H4254 H 0.07037 0.49827 0.86114 0.0
H4255 H 0.07402 0.52763 0.85917 0.0
H4256 H 0.02733 0.55432 0.84853 0.0
C4257 C 0.04558 0.61519 0.84787 0.0
C4258 C 0.06944 0.57604 0.84489 0.0
C4259 C 0.04713 0.63232 0.84645 0.0
C4260 C 0.06058 0.50443 0.85646 0.0
C4261 C 0.06274 0.52166 0.85517 0.0
C4262 C 0.03936 0.55983 0.84747 0.0
C4263 C 0.05784 0.60481 0.84311 0.0
C4264 C 0.0561 0.58585 0.84471 0.0
C4265 C 0.05066 0.53106 0.84911 0.0
C4266 C 0.05267 0.55002 0.84771 0.0
H4267 H 0.0841 0.63536 0.82993 0.0
H4268 H 0.08164 0.60635 0.83253 0.0
H4269 H 0.0301 0.58321 0.84594 0.0
H4270 H 0.02309 0.49869 0.84126 0.0
H4271 H 0.0266 0.52766 0.83934 0.0
C4272 C 0.24724 0.60531 0.06366 0.0
C4273 C 0.24106 0.61545 0.05236 0.0
C4274 C 0.24699 0.58804 0.06133 0.0
C4275 C 0.2393 0.55141 0.02968 0.0
H4276 H 0.24278 0.52597 0.06645 0.0
C4277 C 0.24367 0.47863 0.02191 0.0
C4278 C 0.24083 0.4685 0.03491 0.0
C4279 C 0.24348 0.49596 0.0236 0.0
C4280 C 0.24169 0.53249 0.05577 0.0
H4281 H 0.23025 0.61335 0.02883 0.0
H4282 H 0.22988 0.58404 0.02475 0.0
H4283 H 0.24262 0.55499 0.0699 0.0
H4284 H 0.23539 0.47044 0.06024 0.0
H4285 H 0.23497 0.49952 0.06311 0.0
H4286 H 0.23827 0.5288 1.01556 0.0
C4287 C 0.23487 0.58943 0.03583 0.0
C4288 C 0.24177 0.54976 0.05781 0.0
C4289 C 0.23497 0.60673 0.03827 0.0
C4290 C 0.23774 0.47711 0.04966 0.0
C4291 C 0.23759 0.49434 0.05136 0.0
C4292 C 0.23933 0.5341 0.02761 0.0
C4293 C 0.24078 0.57925 0.04733 0.0
C4294 C 0.24059 0.56007 0.04489 0.0
C4295 C 0.24051 0.50463 0.03845 0.0
C4296 C 0.24051 0.52381 0.04058 0.0
H4297 H 0.2526 0.6107 0.07453 0.0
H4298 H 0.2521 0.5816 0.07068 0.0
H4299 H 0.23843 0.55804 0.01903 0.0
H4300 H 0.24618 0.47317 1.01023 0.0
H4301 H 0.24595 0.50257 1.01303 0.0
C4302 C 0.61224 0.25751 0.02041 0.0
C4303 C 0.62306 0.25265 0.03208 0.0
C4304 C 0.59505 0.25777 0.02287 0.0
C4305 C 0.56011 0.25122 0.05506 0.0
H4306 H 0.53215 0.25846 0.01999 0.0
C4307 C 0.48846 0.25957 0.06588 0.0
C4308 C 0.47684 0.25639 0.05345 0.0
C4309 C 0.50561 0.2588 0.06341 0.0
C4310 C 0.53946 0.25641 0.0302 0.0
H4311 H 0.62229 0.2446 0.05617 0.0
H4312 H 0.59334 0.24479 0.06036 0.0
H4313 H 0.56102 0.25777 1.01568 0.0
H4314 H 0.47622 0.25016 0.02802 0.0
H4315 H 0.50514 0.24894 0.02376 0.0
H4316 H 0.53848 0.25003 0.06962 0.0
C4317 C 0.59795 0.24847 0.04896 0.0
C4318 C 0.55664 0.25609 0.02767 0.0
C4319 C 0.61513 0.24823 0.04648 0.0
C4320 C 0.48395 0.25256 0.03829 0.0
C4321 C 0.50109 0.252 0.03575 0.0
C4322 C 0.54297 0.25188 0.05768 0.0
C4323 C 0.587 0.25323 0.03726 0.0
C4324 C 0.56787 0.25354 0.04 0.0
C4325 C 0.51276 0.25506 0.0482 0.0
C4326 C 0.5318 0.25447 0.04536 0.0
H4327 H 0.61708 0.26124 1.00909 0.0
H4328 H 0.58809 0.26178 1.0132 0.0
H4329 H 0.56733 0.2488 0.06518 0.0
H4330 H 0.48433 0.26267 0.07784 0.0
H4331 H 0.51334 0.26148 0.07367 0.0
C4332 C 0.86965 0.64294 0.03401 0.0
C4333 C 0.86506 0.65129 0.04847 0.0
C4334 C 0.86974 0.62571 0.03199 0.0
C4335 C 0.86558 0.58523 0.05455 0.0
H4336 H 0.86552 0.5654 1.01176 0.0
C4337 C 0.87027 0.51259 0.04291 0.0
C4338 C 0.8654 0.50424 0.02821 0.0
C4339 C 0.87031 0.52989 0.04564 0.0
C4340 C 0.86546 0.57031 0.02397 0.0
H4341 H 0.85699 0.64604 0.07233 0.0
H4342 H 0.85721 0.61658 0.06901 0.0
H4343 H 0.8652 0.59439 0.01581 0.0
H4344 H 0.85642 0.50954 1.00502 0.0
H4345 H 0.85662 0.53867 1.0095 0.0
H4346 H 0.8658 0.56102 0.06267 0.0
C4347 C 0.86085 0.62347 0.05889 0.0
C4348 C 0.86543 0.58757 0.02639 0.0
C4349 C 0.86064 0.64082 0.06087 0.0
C4350 C 0.86052 0.51472 0.01653 0.0
C4351 C 0.8607 0.53198 0.01919 0.0
C4352 C 0.86576 0.56793 0.05213 0.0
C4353 C 0.86534 0.61509 0.0443 0.0
C4354 C 0.86544 0.5959 0.04178 0.0
C4355 C 0.86558 0.54043 0.03387 0.0
C4356 C 0.86562 0.55962 0.03671 0.0
H4357 H 0.87329 0.64983 0.02386 0.0
H4358 H 0.87357 0.62078 0.02051 0.0
H4359 H 0.86572 0.59023 0.06674 0.0
H4360 H 0.87391 0.50571 0.05263 0.0
H4361 H 0.87427 0.53498 0.05722 0.0
C4362 C 0.61798 0.86034 0.01682 0.0
C4363 C 0.62939 0.86227 0.02958 0.0
C4364 C 0.60077 0.86105 0.01907 0.0
C4365 C 0.56624 0.86301 0.05206 0.0
H4366 H 0.5386 0.86866 0.01631 0.0
C4367 C 0.49347 0.86231 0.0615 0.0
C4368 C 0.48257 0.86708 0.04987 0.0
C4369 C 0.51065 0.86193 0.059 0.0
C4370 C 0.54575 0.86691 0.02668 0.0
H4371 H 0.62941 0.86641 0.05534 0.0
H4372 H 0.60048 0.86767 0.05919 0.0
H4373 H 0.56747 0.86743 1.01228 0.0
H4374 H 0.48332 0.87479 0.02559 0.0
H4375 H 0.51233 0.87395 0.0212 0.0
H4376 H 0.54459 0.86243 0.06645 0.0
C4377 C 0.6047 0.86551 0.04709 0.0
C4378 C 0.56295 0.8662 0.0243 0.0
C4379 C 0.62189 0.86489 0.04481 0.0
C4380 C 0.4905 0.87117 0.03531 0.0
C4381 C 0.5077 0.87059 0.0327 0.0
C4382 C 0.54903 0.86349 0.05439 0.0
C4383 C 0.59324 0.86363 0.03433 0.0
C4384 C 0.57409 0.86427 0.03689 0.0
C4385 C 0.51869 0.86601 0.04448 0.0
C4386 C 0.53787 0.86546 0.04182 0.0
H4387 H 0.62226 0.85826 1.00478 0.0
H4388 H 0.59332 0.85933 1.00852 0.0
H4389 H 0.5734 0.86144 0.0625 0.0
H4390 H 0.48874 0.85881 0.07289 0.0
H4391 H 0.51764 0.85822 0.06876 0.0
C4392 C 0.58085 0.74894 0.98195 0.0
C4393 C 0.5663 0.7534 0.97504 0.0
C4394 C 0.58365 0.74918 0.99907 0.0
C4395 C 0.56246 0.75459 0.04158 0.0
H4396 H 0.60537 0.75412 0.05852 0.0
C4397 C 0.5732 0.75129 0.11336 0.0
C4398 C 0.58811 0.75604 0.12115 0.0
C4399 C 0.57086 0.75099 0.09623 0.0
C4400 C 0.59315 0.75433 0.0544 0.0
H4401 H 0.54354 0.76206 0.98285 0.0
H4402 H 0.54809 0.76223 1.01164 0.0
H4403 H 0.60103 0.75357 0.0296 0.0
H4404 H 0.61234 0.76426 0.11481 0.0
H4405 H 0.60852 0.7635 0.08563 0.0
H4406 H 0.55455 0.75536 0.06631 0.0
C4407 C 0.5576 0.75828 1.00389 0.0
C4408 C 0.59055 0.75389 0.03722 0.0
C4409 C 0.55487 0.75817 0.98681 0.0
C4410 C 0.60057 0.76041 0.11013 0.0
C4411 C 0.59828 0.75991 0.09288 0.0
C4412 C 0.56504 0.75488 0.05872 0.0
C4413 C 0.57212 0.75381 1.01091 0.0
C4414 C 0.57508 0.75407 0.02996 0.0
C4415 C 0.58327 0.75524 0.08509 0.0
C4416 C 0.58051 0.75483 0.06601 0.0
H4417 H 0.59034 0.74519 0.97403 0.0
H4418 H 0.59507 0.74548 1.00297 0.0
H4419 H 0.5502 0.75462 0.03751 0.0
H4420 H 0.56293 0.74777 0.12064 0.0
H4421 H 0.55903 0.74712 0.09174 0.0
C4422 C 0.36001 0.54206 0.99255 0.0
C4423 C 0.36112 0.52805 0.98217 0.0
C4424 C 0.35811 0.54158 1.00978 0.0
C4425 C 0.34978 0.51167 0.04471 0.0
H4426 H 0.35739 0.54968 0.07257 0.0
C4427 C 0.34107 0.50821 0.11724 0.0
C4428 C 0.34358 0.52193 0.12807 0.0
C4429 C 0.34311 0.50883 0.10002 0.0
C4430 C 0.35505 0.53866 0.06539 0.0
H4431 H 0.36279 0.50266 0.98397 0.0
H4432 H 0.35904 0.50158 1.01272 0.0
H4433 H 0.36106 0.55112 0.04389 0.0
H4434 H 0.35008 0.54729 0.12716 0.0
H4435 H 0.35346 0.5485 0.09862 0.0
H4436 H 0.34376 0.49918 0.06613 0.0
C4437 C 0.35898 0.51319 1.0077 0.0
C4438 C 0.35719 0.53957 0.04828 0.0
C4439 C 0.361 0.51375 0.9906 0.0
C4440 C 0.34811 0.53619 0.12011 0.0
C4441 C 0.35008 0.53687 0.10305 0.0
C4442 C 0.34758 0.51076 0.06181 0.0
C4443 C 0.35721 0.52702 0.01813 0.0
C4444 C 0.35472 0.52612 0.03711 0.0
C4445 C 0.34777 0.52324 0.09208 0.0
C4446 C 0.35014 0.5242 0.07304 0.0
H4447 H 0.36029 0.55362 0.98731 0.0
H4448 H 0.3571 0.55286 0.01651 0.0
H4449 H 0.34731 0.50073 0.0374 0.0
H4450 H 0.3375 0.49676 0.12202 0.0
H4451 H 0.34096 0.49769 0.09296 0.0
C4452 C 0.50988 0.35826 0.97551 0.0
C4453 C 0.52247 0.36247 0.9646 0.0
C4454 C 0.51204 0.35862 0.99273 0.0
C4455 C 0.54488 0.362 0.02699 0.0
H4456 H 0.50877 0.36534 0.05575 0.0
C4457 C 0.55382 0.35778 0.09884 0.0
C4458 C 0.54254 0.36312 0.11049 0.0
C4459 C 0.55132 0.35788 0.08175 0.0
C4460 C 0.51927 0.36443 0.04823 0.0
H4461 H 0.54776 0.37024 0.96518 0.0
H4462 H 0.5515 0.37055 0.99416 0.0
H4463 H 0.50483 0.36526 0.02682 0.0
H4464 H 0.51905 0.37261 0.11133 0.0
H4465 H 0.51473 0.37277 0.08236 0.0
H4466 H 0.55934 0.36121 0.0483 0.0
C4467 C 0.53964 0.36699 0.98956 0.0
C4468 C 0.51691 0.36425 0.03107 0.0
C4469 C 0.53742 0.36689 0.97242 0.0
C4470 C 0.52839 0.36839 0.10349 0.0
C4471 C 0.52584 0.36841 0.08636 0.0
C4472 C 0.54722 0.36202 0.04412 0.0
C4473 C 0.52706 0.3629 1.00057 0.0
C4474 C 0.5296 0.36305 0.01961 0.0
C4475 C 0.53723 0.36321 0.07464 0.0
C4476 C 0.53454 0.36324 0.05561 0.0
H4477 H 0.49809 0.35463 0.97078 0.0
H4478 H 0.5017 0.35519 0.99991 0.0
H4479 H 0.55535 0.36093 0.01946 0.0
H4480 H 0.56484 0.3533 0.10291 0.0
H4481 H 0.56067 0.35344 0.07409 0.0
C4482 C 0.76545 0.60292 0.96749 0.0
C4483 C 0.76256 0.58928 0.95667 0.0
C4484 C 0.76312 0.60243 0.9846 0.0
C4485 C 0.7551 0.57305 0.01964 0.0
H4486 H 0.74907 0.61186 0.04555 0.0
C4487 C 0.75169 0.57314 0.09243 0.0
C4488 C 0.74404 0.58521 0.10172 0.0
C4489 C 0.75357 0.57333 0.07526 0.0
C4490 C 0.75062 0.60069 0.03878 0.0
H4491 H 0.75492 0.56404 0.95728 0.0
H4492 H 0.75105 0.56314 0.98612 0.0
H4493 H 0.753 0.61295 0.01666 0.0
H4494 H 0.731 0.60617 0.09846 0.0
H4495 H 0.73414 0.60659 0.06926 0.0
H4496 H 0.75278 0.56081 0.0418 0.0
C4497 C 0.75517 0.57454 0.98153 0.0
C4498 C 0.75309 0.60135 0.02171 0.0
C4499 C 0.75734 0.57508 0.96446 0.0
C4500 C 0.73747 0.59683 0.09239 0.0
C4501 C 0.73935 0.59706 0.07523 0.0
C4502 C 0.75282 0.57242 0.03673 0.0
C4503 C 0.75789 0.58819 0.99241 0.0
C4504 C 0.75536 0.58754 1.01134 0.0
C4505 C 0.74778 0.58552 0.06593 0.0
C4506 C 0.7504 0.5862 0.04706 0.0
H4507 H 0.76955 0.61424 0.96279 0.0
H4508 H 0.7657 0.61345 0.99176 0.0
H4509 H 0.75687 0.56188 1.01296 0.0
H4510 H 0.7566 0.56351 0.0985 0.0
H4511 H 0.75997 0.56388 0.06934 0.0
C4512 C 1.00319 0.56724 0.72239 0.0
C4513 C 0.99454 0.55213 0.72395 0.0
C4514 C 0.0204 0.56957 0.72441 0.0
C4515 C 0.05941 0.54614 0.73047 0.0
H4516 H 0.08049 0.58855 0.73697 0.0
C4517 C 0.13161 0.55438 0.7361 0.0
C4518 C 0.14001 0.56873 0.74239 0.0
C4519 C 0.11448 0.55272 0.73389 0.0
C4520 C 0.07513 0.57645 0.73527 0.0
H4521 H 0.99881 0.52764 0.72861 0.0
H4522 H 0.02776 0.53123 0.73107 0.0
H4523 H 0.05149 0.58525 0.73315 0.0
H4524 H 0.1351 0.59263 0.75146 0.0
H4525 H 0.10591 0.5899 0.74765 0.0
H4526 H 0.08286 0.53727 0.73293 0.0
C4527 C 0.02154 0.54174 0.72875 0.0
C4528 C 0.05797 0.5745 0.73286 0.0
C4529 C 1.0044 0.53954 0.72721 0.0
C4530 C 0.12981 0.5813 0.74646 0.0
C4531 C 0.11261 0.57968 0.74418 0.0
C4532 C 0.0765 0.54808 0.73287 0.0
C4533 C 0.03034 0.55689 0.72779 0.0
C4534 C 0.04932 0.55924 0.73032 0.0
C4535 C 0.10417 0.56529 0.73781 0.0
C4536 C 0.08519 0.56331 0.73533 0.0
H4537 H 0.99658 0.57754 0.72005 0.0
H4538 H 0.02585 0.58153 0.72321 0.0
H4539 H 0.05421 0.53401 0.72859 0.0
H4540 H 0.13832 0.54409 0.73287 0.0
H4541 H 0.10943 0.54134 0.72883 0.0
C4542 C 0.56201 0.98353 0.7379 0.0
C4543 C 0.54705 0.97539 0.74178 0.0
C4544 C 0.56402 1.00061 0.73613 0.0
C4545 C 0.54038 0.04006 0.73472 0.0
H4546 H 0.58296 0.06118 0.73386 0.0
C4547 C 0.55015 0.11177 0.72527 0.0
C4548 C 0.56479 0.12079 0.72941 0.0
C4549 C 0.54789 0.09458 0.72634 0.0
C4550 C 0.5708 0.05587 0.73407 0.0
H4551 H 0.52239 0.98052 0.74616 0.0
H4552 H 0.52566 1.00949 0.74314 0.0
H4553 H 0.5795 0.03244 0.73672 0.0
H4554 H 0.58836 0.11706 0.73852 0.0
H4555 H 0.58471 0.08801 0.74012 0.0
H4556 H 0.5317 0.06362 0.73236 0.0
C4557 C 0.5362 1.00278 0.74157 0.0
C4558 C 0.56874 0.03876 0.73563 0.0
C4559 C 0.53424 0.9857 0.74346 0.0
C4560 C 0.57691 0.11123 0.73482 0.0
C4561 C 0.57474 0.09405 0.73571 0.0
C4562 C 0.54244 0.05719 0.73311 0.0
C4563 C 0.55121 1.01107 0.73794 0.0
C4564 C 0.55344 0.03003 0.73608 0.0
C4565 C 0.56012 0.08492 0.73156 0.0
C4566 C 0.55776 0.0659 0.73281 0.0
H4567 H 0.57246 0.97663 0.73625 0.0
H4568 H 0.57589 1.00551 0.7331 0.0
H4569 H 0.52822 0.03474 0.73478 0.0
H4570 H 0.54012 0.11807 0.72136 0.0
H4571 H 0.53632 0.08889 0.72286 0.0
C4572 C 0.97638 0.56696 0.34404 0.0
C4573 C 0.96781 0.5517 0.34151 0.0
C4574 C 0.99358 0.56898 0.34605 0.0
C4575 C 0.0327 0.54484 0.34986 0.0
H4576 H 0.05466 0.58701 0.35011 0.0
C4577 C 0.10458 0.5543 0.36194 0.0
C4578 C 0.11387 0.56823 0.35734 0.0
C4579 C 0.08735 0.55223 0.36012 0.0
C4580 C 0.04908 0.57496 0.35003 0.0
H4581 H 0.97233 0.52654 0.34027 0.0
H4582 H 1.00112 0.52989 0.34534 0.0
H4583 H 0.0257 0.58387 0.34698 0.0
H4584 H 0.11066 0.59073 0.34662 0.0
H4585 H 0.0815 0.58736 0.34364 0.0
H4586 H 0.05623 0.53596 0.35262 0.0
C4587 C 0.99487 0.54062 0.34441 0.0
C4588 C 0.03185 0.57309 0.34831 0.0
C4589 C 0.97778 0.53861 0.34174 0.0
C4590 C 0.10458 0.57985 0.35068 0.0
C4591 C 0.08737 0.57786 0.34898 0.0
C4592 C 0.04993 0.54672 0.35159 0.0
C4593 C 1.00369 0.55586 0.34617 0.0
C4594 C 0.02281 0.55795 0.34818 0.0
C4595 C 0.07797 0.56398 0.35363 0.0
C4596 C 0.05891 0.56186 0.35174 0.0
H4597 H 0.96974 0.57764 0.34428 0.0
H4598 H 0.99882 0.58112 0.34772 0.0
H4599 H 0.02724 0.53277 0.34989 0.0
H4600 H 0.11066 0.54473 0.36697 0.0
H4601 H 0.0814 0.54127 0.36408 0.0
C4602 C 0.54671 0.1326 0.34878 0.0
C4603 C 0.56092 0.14071 0.34287 0.0
C4604 C 0.5451 0.11551 0.35075 0.0
C4605 C 0.56501 0.07506 0.33967 0.0
H4606 H 0.53468 0.0568 0.36985 0.0
C4607 C 0.5502 1.00332 0.34096 0.0
C4608 C 0.54593 0.99555 0.35521 0.0
C4609 C 0.55272 0.02045 0.3402 0.0
C4610 C 0.54334 0.06142 0.36131 0.0
H4611 H 0.58444 0.13558 0.33495 0.0
H4612 H 0.58187 0.10644 0.33754 0.0
H4613 H 0.53739 0.08591 0.36709 0.0
H4614 H 0.5409 1.00157 0.38011 0.0
H4615 H 0.54412 0.03104 0.37863 0.0
H4616 H 0.57117 0.05062 0.33416 0.0
C4617 C 0.57164 0.1132 0.34074 0.0
C4618 C 0.54484 0.07855 0.35956 0.0
C4619 C 0.57325 0.1303 0.33908 0.0
C4620 C 0.54412 1.00642 0.36872 0.0
C4621 C 0.54597 0.0237 0.36782 0.0
C4622 C 0.56341 0.05796 0.34133 0.0
C4623 C 0.55748 0.10503 0.34671 0.0
C4624 C 0.55574 0.08613 0.34865 0.0
C4625 C 0.55039 0.03142 0.35347 0.0
C4626 C 0.55243 0.05037 0.35213 0.0
H4627 H 0.53655 0.13946 0.35182 0.0
H4628 H 0.53379 0.11049 0.35526 0.0
H4629 H 0.57359 0.07956 0.331 0.0
H4630 H 0.55178 0.9961 0.33013 0.0
H4631 H 0.55628 0.02515 0.32887 0.0
C4632 C 0.74356 0.97868 0.52337 0.0
C4633 C 0.74022 0.96828 0.53605 0.0
C4634 C 0.74307 0.99592 0.52528 0.0
C4635 C 0.73923 0.03183 0.55761 0.0
H4636 H 0.73768 0.05764 0.52088 0.0
C4637 C 0.74115 0.10431 0.56695 0.0
C4638 C 0.73856 0.11482 0.55455 0.0
C4639 C 0.74072 0.08708 0.56456 0.0
C4640 C 0.73806 0.05099 0.53155 0.0
H4641 H 0.73355 0.96958 0.5611 0.0
H4642 H 0.7326 0.99864 0.56437 0.0
H4643 H 0.73796 0.02856 0.51727 0.0
H4644 H 0.73379 0.11341 0.52911 0.0
H4645 H 0.73343 0.08417 0.52485 0.0
H4646 H 0.73917 0.05404 0.57193 0.0
C4647 C 0.73584 0.9937 0.5527 0.0
C4648 C 0.73835 0.03372 0.52939 0.0
C4649 C 0.73628 0.9765 0.55077 0.0
C4650 C 0.73569 0.10649 0.53937 0.0
C4651 C 0.73561 0.08919 0.53687 0.0
C4652 C 0.73896 0.04904 0.55976 0.0
C4653 C 0.73926 1.00424 0.54007 0.0
C4654 C 0.73894 0.02334 0.54234 0.0
C4655 C 0.73819 0.07865 0.54939 0.0
C4656 C 0.73837 0.0595 0.54685 0.0
H4657 H 0.74674 0.9735 0.51176 0.0
H4658 H 0.74598 1.00274 0.51494 0.0
H4659 H 0.73986 0.02521 0.56828 0.0
H4660 H 0.74365 0.1093 0.57885 0.0
H4661 H 0.74289 0.08046 0.57495 0.0
C4662 C 0.11329 0.7546 0.52129 0.0
C4663 C 0.1242 0.75075 0.53336 0.0
C4664 C 0.09609 0.75485 0.52352 0.0
C4665 C 0.06082 0.75188 0.55571 0.0
H4666 H 0.03335 0.7537 0.51896 0.0
C4667 C 0.98865 0.75802 0.5643 0.0
C4668 C 0.97725 0.7553 0.55161 0.0
C4669 C 1.00582 0.75722 0.56219 0.0
C4670 C 0.04045 0.75313 0.52964 0.0
H4671 H 0.12331 0.74432 0.55805 0.0
H4672 H 0.09418 0.74485 0.56198 0.0
H4673 H 0.06223 0.7527 0.5155 0.0
H4674 H 0.97709 0.74973 0.52608 0.0
H4675 H 1.00612 0.74825 0.52239 0.0
H4676 H 0.03899 0.75221 0.56984 0.0
C4677 C 0.09891 0.74771 0.55036 0.0
C4678 C 0.05769 0.75265 0.5276 0.0
C4679 C 0.11617 0.74729 0.54804 0.0
C4680 C 0.98465 0.75178 0.53653 0.0
C4681 C 1.00188 0.75107 0.53436 0.0
C4682 C 0.04358 0.75243 0.55776 0.0
C4683 C 0.08798 0.7515 0.53817 0.0
C4684 C 0.06878 0.75199 0.54052 0.0
C4685 C 1.01334 0.75375 0.54711 0.0
C4686 C 0.03251 0.75307 0.54483 0.0
H4687 H 0.11798 0.75754 0.50974 0.0
H4688 H 0.08914 0.75794 0.51344 0.0
H4689 H 0.06795 0.75151 0.56641 0.0
H4690 H 0.98433 0.76082 0.57624 0.0
H4691 H 1.01322 0.7596 0.5727 0.0
C4692 C 0.37199 1.01102 0.54284 0.0
C4693 C 0.36749 1.0025 0.52807 0.0
C4694 C 0.37205 0.02835 0.54544 0.0
C4695 C 0.36587 0.06867 0.52342 0.0
H4696 H 0.37079 0.08934 0.56567 0.0
C4697 C 0.37002 0.14159 0.53247 0.0
C4698 C 0.36703 0.15007 0.54735 0.0
C4699 C 0.37007 0.12432 0.53049 0.0
C4700 C 0.36927 0.08413 0.55362 0.0
H4701 H 0.35931 1.00788 0.50465 0.0
H4702 H 0.36014 0.03691 0.50871 0.0
H4703 H 0.37091 0.06016 0.56189 0.0
H4704 H 0.36185 0.14499 0.57197 0.0
H4705 H 0.36211 0.11556 0.56872 0.0
H4706 H 0.36411 0.09257 0.51513 0.0
C4707 C 0.36342 0.03028 0.5187 0.0
C4708 C 0.36946 0.06679 0.55135 0.0
C4709 C 0.36309 1.01299 0.51621 0.0
C4710 C 0.3642 0.13969 0.56018 0.0
C4711 C 0.36443 0.12233 0.55823 0.0
C4712 C 0.36574 0.08596 0.52567 0.0
C4713 C 0.36775 0.03888 0.53346 0.0
C4714 C 0.36772 0.05817 0.53611 0.0
C4715 C 0.3673 0.1138 0.54326 0.0
C4716 C 0.36742 0.09457 0.54088 0.0
H4717 H 0.37539 1.00421 0.55273 0.0
H4718 H 0.37568 0.03345 0.55711 0.0
H4719 H 0.36462 0.06364 0.51132 0.0
H4720 H 0.37236 0.1484 0.52198 0.0
H4721 H 0.37256 0.11927 0.51865 0.0
C4722 C 0.11848 0.35816 0.5143 0.0
C4723 C 0.12992 0.36121 0.52693 0.0
C4724 C 0.10126 0.35876 0.51655 0.0
C4725 C 0.06698 0.36245 0.5496 0.0
H4726 H 0.03881 0.36467 0.51349 0.0
C4727 C 0.99425 0.36039 0.55935 0.0
C4728 C 0.98317 0.3644 0.54753 0.0
C4729 C 1.01142 0.36013 0.55678 0.0
C4730 C 0.04613 0.36405 0.524 0.0
H4731 H 0.13006 0.36704 0.55243 0.0
H4732 H 0.10116 0.36819 0.55627 0.0
H4733 H 0.06774 0.364 0.50945 0.0
H4734 H 0.98358 0.37132 0.52302 0.0
H4735 H 1.01267 0.37117 0.51862 0.0
H4736 H 0.04546 0.36251 0.56417 0.0
C4737 C 0.10533 0.36528 0.54429 0.0
C4738 C 0.06334 0.36357 0.52159 0.0
C4739 C 0.12253 0.36478 0.54201 0.0
C4740 C 0.99091 0.36824 0.53283 0.0
C4741 C 1.00814 0.368 0.53022 0.0
C4742 C 0.04978 0.36278 0.552 0.0
C4743 C 0.09381 0.3623 0.53168 0.0
C4744 C 0.07466 0.36278 0.53428 0.0
C4745 C 0.01928 0.36394 0.54209 0.0
C4746 C 0.03845 0.3636 0.53933 0.0
H4747 H 0.12283 0.35528 0.50237 0.0
H4748 H 0.09375 0.35617 0.50612 0.0
H4749 H 0.07428 0.36175 0.56012 0.0
H4750 H 0.98961 0.35752 0.57098 0.0
H4751 H 0.01852 0.35671 0.56662 0.0
C4752 C 0.04548 0.2923 0.3746 0.0
C4753 C 0.0592 0.2837 0.37743 0.0
C4754 C 0.04476 0.30349 0.36238 0.0
C4755 C 0.06986 0.32601 0.32942 0.0
H4756 H 0.0283 0.3404 0.31944 0.0
C4757 C 0.06179 0.37243 0.277 0.0
C4758 C 0.04767 0.38093 0.27606 0.0
C4759 C 0.06375 0.36064 0.28868 0.0
C4760 C 0.04023 0.33698 0.32191 0.0
H4761 H 0.08326 0.28123 0.36834 0.0
H4762 H 0.08203 0.30028 0.34705 0.0
H4763 H 0.03058 0.32119 0.33939 0.0
H4764 H 0.02466 0.38278 0.28783 0.0
H4765 H 0.02798 0.36326 0.30756 0.0
H4766 H 0.07936 0.34186 0.31153 0.0
C4767 C 0.07155 0.29845 0.35452 0.0
C4768 C 0.04161 0.32551 0.33382 0.0
C4769 C 0.07229 0.28717 0.36694 0.0
C4770 C 0.03575 0.3768 0.28758 0.0
C4771 C 0.03771 0.36516 0.29919 0.0
C4772 C 0.06847 0.33755 0.3174 0.0
C4773 C 0.05769 0.30708 0.35173 0.0
C4774 C 0.05646 0.31957 0.33824 0.0
C4775 C 0.05174 0.35652 0.30027 0.0
C4776 C 0.05357 0.34361 0.31323 0.0
H4777 H 0.03496 0.29052 0.38206 0.0
H4778 H 0.03379 0.3095 0.36165 0.0
H4779 H 0.08171 0.32232 0.33185 0.0
H4780 H 0.07151 0.3749 0.26871 0.0
H4781 H 0.07484 0.3547 0.28843 0.0
C4782 C 0.82994 0.05655 0.37716 0.0
C4783 C 0.83015 0.04165 0.38467 0.0
C4784 C 0.81855 0.05941 0.3647 0.0
C4785 C 0.78432 0.03773 0.33646 0.0
H4786 H 0.77717 0.08059 0.3246 0.0
C4787 C 0.73833 0.0487 0.28207 0.0
C4788 C 0.73155 0.06371 0.2804 0.0
C4789 C 0.7501 0.04612 0.29421 0.0
C4790 C 0.77865 0.06837 0.32754 0.0
H4791 H 0.81713 0.01829 0.38356 0.0
H4792 H 0.79816 0.02304 0.36281 0.0
H4793 H 0.79667 0.07644 0.34534 0.0
H4794 H 0.73317 0.08772 0.2916 0.0
H4795 H 0.75314 0.08348 0.31188 0.0
H4796 H 0.76627 0.02965 0.31873 0.0
C4797 C 0.80684 0.03279 0.36621 0.0
C4798 C 0.79033 0.0659 0.33976 0.0
C4799 C 0.81807 0.02999 0.3786 0.0
C4800 C 0.73765 0.0759 0.29182 0.0
C4801 C 0.7495 0.07339 0.30379 0.0
C4802 C 0.77272 0.04019 0.32418 0.0
C4803 C 0.80645 0.04761 0.35862 0.0
C4804 C 0.7937 0.05046 0.34488 0.0
C4805 C 0.75626 0.05836 0.30564 0.0
C4806 C 0.76927 0.05562 0.31915 0.0
H4807 H 0.83856 0.06623 0.38101 0.0
H4808 H 0.81942 0.0711 0.35976 0.0
H4809 H 0.78593 0.02547 0.33917 0.0
H4810 H 0.73446 0.03866 0.27401 0.0
H4811 H 0.75446 0.03426 0.29441 0.0
C4812 C 0.04002 0.82203 0.36115 0.0
C4813 C 0.0244 0.82354 0.36789 0.0
C4814 C 0.04375 0.80965 0.34908 0.0
C4815 C 0.02446 0.77364 0.32036 0.0
H4816 H 0.06858 0.76616 0.3103 0.0
C4817 C 0.04135 0.72338 0.26745 0.0
C4818 C 0.05695 0.71738 0.26599 0.0
C4819 C 0.03729 0.73587 0.27931 0.0
C4820 C 0.05603 0.76767 0.31269 0.0
H4821 H 1.00061 0.81162 0.36564 0.0
H4822 H 1.00677 0.79086 0.34525 0.0
H4823 H 0.06231 0.78692 0.33043 0.0
H4824 H 0.08019 0.72129 0.27738 0.0
H4825 H 0.0735 0.74233 0.29715 0.0
H4826 H 0.01822 0.75429 0.30262 0.0
C4827 C 0.01652 0.79929 0.34919 0.0
C4828 C 0.05229 0.78014 0.32461 0.0
C4829 C 1.01284 0.8116 0.36131 0.0
C4830 C 0.06804 0.72503 0.2774 0.0
C4831 C 0.06406 0.73756 0.2891 0.0
C4832 C 0.02821 0.76121 0.30836 0.0
C4833 C 0.03219 0.79762 0.34248 0.0
C4834 C 0.03631 0.78377 0.32911 0.0
C4835 C 0.04848 0.74362 0.29072 0.0
C4836 C 0.0442 0.75754 0.30394 0.0
H4837 H 0.04969 0.83049 0.36524 0.0
H4838 H 0.056 0.80973 0.34487 0.0
H4839 H 1.01191 0.77528 0.32263 0.0
H4840 H 0.032 0.71828 0.25943 0.0
H4841 H 0.02511 0.73949 0.27934 0.0
C4842 C 0.38785 0.06863 0.25742 0.0
C4843 C 0.39598 0.05419 0.25638 0.0
C4844 C 0.37607 0.07193 0.26971 0.0
C4845 C 0.35076 0.05166 0.30398 0.0
H4846 H 0.33955 0.09474 0.31593 0.0
C4847 C 0.29873 0.06346 0.35279 0.0
C4848 C 0.29872 0.07805 0.36236 0.0
C4849 C 0.31002 0.06088 0.33999 0.0
C4850 C 0.34241 0.08251 0.31303 0.0
H4851 H 0.39713 0.03221 0.26871 0.0
H4852 H 0.37751 0.03774 0.28931 0.0
H4853 H 0.35919 0.09014 0.29465 0.0
H4854 H 0.31218 0.10118 0.3649 0.0
H4855 H 0.33086 0.09703 0.34285 0.0
H4856 H 0.33412 0.04402 0.32237 0.0
C4857 C 0.37977 0.04667 0.28058 0.0
C4858 C 0.35388 0.07978 0.30039 0.0
C4859 C 0.39146 0.04344 0.26846 0.0
C4860 C 0.31092 0.08983 0.35806 0.0
C4861 C 0.322 0.08737 0.3451 0.0
C4862 C 0.33925 0.05436 0.3165 0.0
C4863 C 0.37153 0.06101 0.28178 0.0
C4864 C 0.35862 0.06423 0.2954 0.0
C4865 C 0.3221 0.07275 0.33558 0.0
C4866 C 0.33463 0.06988 0.3216 0.0
H4867 H 0.39068 0.07758 0.2488 0.0
H4868 H 0.37043 0.08317 0.26957 0.0
H4869 H 0.35329 0.03936 0.30099 0.0
H4870 H 0.29009 0.05374 0.35524 0.0
H4871 H 0.30907 0.04938 0.33338 0.0
C4872 C 0.07027 0.73913 0.79529 0.0
C4873 C 0.05812 0.73479 0.80654 0.0
C4874 C 0.06857 0.75088 0.78376 0.0
C4875 C 0.03801 0.77717 0.76387 0.0
H4876 H 0.07663 0.79676 0.74564 0.0
C4877 C 0.03511 0.82794 0.71477 0.0
C4878 C 0.04863 0.83199 0.70503 0.0
C4879 C 0.0356 0.81668 0.7272 0.0
C4880 C 0.06545 0.79148 0.75013 0.0
H4881 H 0.03413 0.74084 0.81339 0.0
H4882 H 0.0311 0.76095 0.79357 0.0
H4883 H 0.07848 0.77746 0.76574 0.0
H4884 H 0.07339 0.82628 0.70173 0.0
H4885 H 0.07421 0.80732 0.72232 0.0
H4886 H 0.02501 0.79142 0.74819 0.0
C4887 C 0.04223 0.75507 0.79363 0.0
C4888 C 0.06657 0.78 0.76209 0.0
C4889 C 0.04402 0.7433 0.80537 0.0
C4890 C 0.06255 0.82402 0.70862 0.0
C4891 C 0.06305 0.81287 0.72091 0.0
C4892 C 0.03688 0.78868 0.75179 0.0
C4893 C 0.0545 0.75935 0.78236 0.0
C4894 C 0.05294 0.77226 0.76941 0.0
C4895 C 0.04966 0.80868 0.73078 0.0
C4896 C 0.05059 0.79624 0.74433 0.0
H4897 H 0.08142 0.73327 0.79523 0.0
H4898 H 0.07848 0.75301 0.77563 0.0
H4899 H 0.02695 0.7719 0.76867 0.0
H4900 H 0.02397 0.83339 0.71273 0.0
H4901 H 0.02479 0.81438 0.73408 0.0
C4902 C 0.36963 0.07065 0.79891 0.0
C4903 C 0.37499 0.05533 0.80206 0.0
C4904 C 0.35772 0.07296 0.78689 0.0
C4905 C 0.32621 0.04979 0.75708 0.0
H4906 H 0.32238 0.09161 0.74086 0.0
C4907 C 0.27525 0.0602 0.70702 0.0
C4908 C 0.27548 0.07458 0.69864 0.0
C4909 C 0.28675 0.0577 0.71946 0.0
C4910 C 0.32297 0.07963 0.74488 0.0
H4911 H 0.37074 0.03045 0.79368 0.0
H4912 H 0.35057 0.03426 0.77356 0.0
H4913 H 0.34226 0.08795 0.76112 0.0
H4914 H 0.28934 0.09744 0.69803 0.0
H4915 H 0.30854 0.09325 0.71857 0.0
H4916 H 0.30702 0.04143 0.74072 0.0
C4917 C 0.35542 0.04481 0.78039 0.0
C4918 C 0.33471 0.07752 0.75706 0.0
C4919 C 0.36739 0.04256 0.79225 0.0
C4920 C 0.28807 0.08612 0.70372 0.0
C4921 C 0.29945 0.08365 0.71601 0.0
C4922 C 0.31443 0.05191 0.74491 0.0
C4923 C 0.35005 0.06011 0.77708 0.0
C4924 C 0.33692 0.06249 0.76371 0.0
C4925 C 0.2994 0.06937 0.72452 0.0
C4926 C 0.31228 0.06693 0.73817 0.0
H4927 H 0.37483 0.08114 0.80557 0.0
H4928 H 0.35448 0.08508 0.78544 0.0
H4929 H 0.3267 0.0379 0.76139 0.0
H4930 H 0.26617 0.05068 0.70395 0.0
H4931 H 0.28552 0.04641 0.72516 0.0
C4932 C 0.06572 0.39117 0.81545 0.0
C4933 C 0.05152 0.39972 0.81493 0.0
C4934 C 0.06952 0.37856 0.80364 0.0
C4935 C 0.05277 0.35346 0.76434 0.0
H4936 H 0.09311 0.33361 0.76531 0.0
C4937 C 0.0663 0.29807 0.71643 0.0
C4938 C 0.08202 0.29289 0.71327 0.0
C4939 C 0.06284 0.31055 0.72844 0.0
C4940 C 0.08169 0.33883 0.76444 0.0
H4941 H 0.03055 0.40041 0.8 0.0
H4942 H 0.03686 0.37943 0.78015 0.0
H4943 H 0.08726 0.35475 0.7853 0.0
H4944 H 0.10632 0.29848 0.72174 0.0
H4945 H 0.10052 0.31941 0.74217 0.0
H4946 H 0.04723 0.33761 0.74345 0.0
C4947 C 0.04535 0.3821 0.78977 0.0
C4948 C 0.07815 0.35136 0.7764 0.0
C4949 C 0.04158 0.39461 0.80154 0.0
C4950 C 0.09396 0.30139 0.72326 0.0
C4951 C 0.0905 0.31377 0.73538 0.0
C4952 C 0.05627 0.34091 0.75244 0.0
C4953 C 0.05949 0.37337 0.79018 0.0
C4954 C 0.06351 0.35936 0.77696 0.0
C4955 C 0.07476 0.31903 0.73854 0.0
C4956 C 0.07091 0.33296 0.75186 0.0
H4957 H 0.07411 0.3942 0.82513 0.0
H4958 H 0.08056 0.37285 0.80527 0.0
H4959 H 0.04126 0.35849 0.76345 0.0
H4960 H 0.05639 0.29263 0.70939 0.0
H4961 H 0.05047 0.31343 0.72977 0.0
C4962 C 0.79795 0.02535 0.72789 0.0
C4963 C 0.80801 0.0378 0.7214 0.0
C4964 C 0.78653 0.02819 0.74041 0.0
C4965 C 0.76631 0.0624 0.76551 0.0
H4966 H 0.74718 0.02722 0.78871 0.0
C4967 C 0.71472 0.07447 0.81376 0.0
C4968 C 0.70961 0.06353 0.82546 0.0
C4969 C 0.72642 0.07107 0.80173 0.0
C4970 C 0.75227 0.03744 0.78262 0.0
H4971 H 0.81311 0.06349 0.72421 0.0
H4972 H 0.79385 0.06843 0.7457 0.0
H4973 H 0.76713 0.02228 0.76808 0.0
H4974 H 0.71385 0.03971 0.83258 0.0
H4975 H 0.73418 0.03387 0.81211 0.0
H4976 H 0.75191 0.07764 0.78026 0.0
C4977 C 0.79446 0.0562 0.74102 0.0
C4978 C 0.76395 0.03451 0.77029 0.0
C4979 C 0.8059 0.05334 0.72845 0.0
C4980 C 0.71715 0.04878 0.82421 0.0
C4981 C 0.729 0.04535 0.81209 0.0
C4982 C 0.75472 0.06533 0.77785 0.0
C4983 C 0.78424 0.04375 0.74749 0.0
C4984 C 0.77145 0.04688 0.76118 0.0
C4985 C 0.73413 0.05642 0.80035 0.0
C4986 C 0.74712 0.053 0.7869 0.0
H4987 H 0.79873 1.01313 0.72316 0.0
H4988 H 0.77928 0.01793 0.7443 0.0
H4989 H 0.77112 0.07262 0.75925 0.0
H4990 H 0.7095 0.08595 0.81372 0.0
H4991 H 0.72911 0.08017 0.79329 0.0
C4992 C 0.37212 0.28709 0.04014 0.0
C4993 C 0.38009 0.28527 0.0548 0.0
C4994 C 0.35922 0.29745 0.03878 0.0
C4995 C 0.3353 0.32993 0.06299 0.0
H4996 H 0.31051 0.32863 0.02414 0.0
C4997 C 0.28244 0.37495 0.0569 0.0
C4998 C 0.27468 0.37662 0.04211 0.0
C4999 C 0.29446 0.36366 0.05873 0.0
C5000 C 0.31712 0.32959 0.03523 0.0
H5001 H 0.37929 0.29361 0.07965 0.0
H5002 H 0.35754 0.31107 0.07756 0.0
H5003 H 0.33147 0.31053 0.02655 0.0
H5004 H 0.27331 0.36581 0.01818 0.0
H5005 H 0.29401 0.34727 0.02079 0.0
H5006 H 0.32091 0.34894 0.0717 0.0
C5007 C 0.36121 0.30476 0.06671 0.0
C5008 C 0.32962 0.31881 0.03664 0.0
C5009 C 0.37407 0.29442 0.06801 0.0
C5010 C 0.27924 0.36579 0.02957 0.0
C5011 C 0.29128 0.35465 0.03129 0.0
C5012 C 0.32279 0.3407 0.06159 0.0
C5013 C 0.35329 0.30683 0.05201 0.0
C5014 C 0.33931 0.31856 0.05055 0.0
C5015 C 0.29958 0.35318 0.04591 0.0
C5016 C 0.31318 0.34107 0.04761 0.0
H5017 H 0.37608 0.28074 0.02942 0.0
H5018 H 0.35415 0.29817 0.02703 0.0
H5019 H 0.34197 0.33087 0.07405 0.0
H5020 H 0.27945 0.38263 0.06715 0.0
H5021 H 0.29972 0.36335 0.07045 0.0
C5022 C 0.3809 0.81931 0.06488 0.0
C5023 C 0.38528 0.82905 0.05173 0.0
C5024 C 0.36854 0.80613 0.0644 0.0
C5025 C 0.33498 0.78059 0.03713 0.0
H5026 H 0.32768 0.75707 0.07515 0.0
C5027 C 0.28172 0.72413 0.03929 0.0
C5028 C 0.27926 0.71446 0.05286 0.0
C5029 C 0.29402 0.73755 0.03854 0.0
C5030 C 0.32911 0.76312 0.06412 0.0
H5031 H 0.37805 0.83036 0.02705 0.0
H5032 H 0.35695 0.80807 0.02619 0.0
H5033 H 0.34809 0.7791 0.07491 0.0
H5034 H 0.28974 0.7133 0.07634 0.0
H5035 H 0.31007 0.73539 0.07512 0.0
H5036 H 0.31585 0.7644 0.02639 0.0
C5037 C 0.36326 0.81072 0.03736 0.0
C5038 C 0.3414 0.77642 0.06398 0.0
C5039 C 0.37578 0.82404 0.03784 0.0
C5040 C 0.29038 0.71965 0.06543 0.0
C5041 C 0.30254 0.73294 0.06471 0.0
C5042 C 0.32261 0.76723 0.03728 0.0
C5043 C 0.35895 0.80097 0.05066 0.0
C5044 C 0.34509 0.786 0.05052 0.0
C5045 C 0.30514 0.74274 0.05126 0.0
C5046 C 0.31894 0.75771 0.05082 0.0
H5047 H 0.38727 0.8218 0.07606 0.0
H5048 H 0.36665 0.79991 0.07528 0.0
H5049 H 0.33651 0.78675 0.02616 0.0
H5050 H 0.27413 0.72131 0.02895 0.0
H5051 H 0.29469 0.74393 0.02765 0.0
C5052 C 0.81453 0.40027 1.01448 0.0
C5053 C 0.82562 0.40544 0.02706 0.0
C5054 C 0.80245 0.38689 1.01518 0.0
C5055 C 0.783 0.35227 0.04258 0.0
H5056 H 0.75676 0.3407 1.00539 0.0
C5057 C 0.73055 0.29502 0.04247 0.0
C5058 C 0.7204 0.29041 0.02895 0.0
C5059 C 0.74299 0.30838 0.04276 0.0
C5060 C 0.76367 0.34331 0.0162 0.0
H5061 H 0.83086 0.39853 0.05092 0.0
H5062 H 0.81043 0.37585 0.0522 0.0
H5063 H 0.77701 0.36289 1.00501 0.0
H5064 H 0.71713 0.29836 1.00506 0.0
H5065 H 0.73768 0.32035 1.00552 0.0
H5066 H 0.7695 0.33254 0.05372 0.0
C5067 C 0.81104 0.38226 0.04133 0.0
C5068 C 0.77586 0.35668 0.01597 0.0
C5069 C 0.82323 0.39573 0.0406 0.0
C5070 C 0.72405 0.30056 0.01595 0.0
C5071 C 0.73636 0.31377 0.01623 0.0
C5072 C 0.77074 0.33884 0.04282 0.0
C5073 C 0.79995 0.37704 0.02861 0.0
C5074 C 0.78628 0.36199 0.02911 0.0
C5075 C 0.74659 0.31854 0.02962 0.0
C5076 C 0.76035 0.33356 0.02961 0.0
H5077 H 0.8151 0.40674 1.00363 0.0
H5078 H 0.79492 0.3844 1.00478 0.0
H5079 H 0.78998 0.355 0.05333 0.0
H5080 H 0.72886 0.28833 0.05311 0.0
H5081 H 0.74985 0.31069 0.05366 0.0
C5082 C 0.82657 0.75296 0.05394 0.0
C5083 C 0.83139 0.74226 0.04135 0.0
C5084 C 0.81449 0.7641 0.05217 0.0
C5085 C 0.78673 0.78204 0.02083 0.0
H5086 H 0.7678 0.80138 0.05872 0.0
C5087 C 0.7348 0.82816 1.01465 0.0
C5088 C 0.72624 0.83458 0.02796 0.0
C5089 C 0.74751 0.8176 0.01614 0.0
C5090 C 0.77263 0.79631 0.04774 0.0
H5091 H 0.82649 0.73613 0.01634 0.0
H5092 H 0.80583 0.75518 1.01312 0.0
H5093 H 0.78841 0.78282 0.06118 0.0
H5094 H 0.72542 0.8337 0.05371 0.0
H5095 H 0.74711 0.81614 0.05644 0.0
H5096 H 0.77075 0.79527 1.00736 0.0
C5097 C 0.81136 0.75506 0.02474 0.0
C5098 C 0.78501 0.78536 0.04921 0.0
C5099 C 0.82351 0.74384 0.02658 0.0
C5100 C 0.7315 0.82975 0.04295 0.0
C5101 C 0.74424 0.81919 0.04449 0.0
C5102 C 0.7743 0.79296 0.01935 0.0
C5103 C 0.80621 0.76556 0.03755 0.0
C5104 C 0.7926 0.77772 0.03583 0.0
C5105 C 0.75277 0.81254 0.03113 0.0
C5106 C 0.76664 0.80058 0.03274 0.0
H5107 H 0.83239 0.75297 0.0654 0.0
H5108 H 0.81187 0.77174 0.06254 0.0
H5109 H 0.79179 0.77707 1.0099 0.0
H5110 H 0.73176 0.83137 1.00278 0.0
H5111 H 0.75316 0.81347 1.0052 0.0
C5112 C 0.57014 0.78692 0.86899 0.0
C5113 C 0.55759 0.78477 0.8804 0.0
C5114 C 0.5697 0.79833 0.85667 0.0
C5115 C 0.54565 0.83415 0.84322 0.0
H5116 H 0.57182 0.83169 0.80509 0.0
C5117 C 0.53738 0.8801 0.79207 0.0
C5118 C 0.54881 0.88305 0.77975 0.0
C5119 C 0.53898 0.86833 0.80362 0.0
C5120 C 0.56435 0.83291 0.81561 0.0
H5121 H 0.53455 0.79384 0.88661 0.0
H5122 H 0.53372 0.8128 0.86598 0.0
H5123 H 0.57365 0.81191 0.82532 0.0
H5124 H 0.57129 0.87465 0.77082 0.0
H5125 H 0.57419 0.8545 0.7907 0.0
H5126 H 0.53648 0.85509 0.83387 0.0
C5127 C 0.54426 0.80604 0.86638 0.0
C5128 C 0.56544 0.82123 0.82754 0.0
C5129 C 0.54468 0.79472 0.87852 0.0
C5130 C 0.56204 0.87321 0.77983 0.0
C5131 C 0.56366 0.86133 0.79148 0.0
C5132 C 0.54458 0.84575 0.83137 0.0
C5133 C 0.55675 0.80846 0.85498 0.0
C5134 C 0.55602 0.82132 0.84181 0.0
C5135 C 0.5522 0.85846 0.80393 0.0
C5136 C 0.55378 0.84561 0.81699 0.0
H5137 H 0.58045 0.77982 0.86958 0.0
H5138 H 0.57981 0.7993 0.84858 0.0
H5139 H 0.53829 0.83561 0.85377 0.0
H5140 H 0.5269 0.88702 0.7929 0.0
H5141 H 0.52943 0.86697 0.81229 0.0
C5142 C 0.2359 0.57211 0.79628 0.0
C5143 C 0.2332 0.56193 0.78219 0.0
C5144 C 0.24764 0.56959 0.80828 0.0
C5145 C 0.28178 0.54142 0.81994 0.0
H5146 H 0.28521 0.56986 0.85794 0.0
C5147 C 0.3262 0.52846 0.87431 0.0
C5148 C 0.33225 0.54051 0.88588 0.0
C5149 C 0.31502 0.53128 0.86187 0.0
C5150 C 0.2848 0.56167 0.84748 0.0
H5151 H 0.24226 0.54052 0.77079 0.0
H5152 H 0.26229 0.5361 0.79115 0.0
H5153 H 0.26553 0.57383 0.83751 0.0
H5154 H 0.32939 0.5655 0.8926 0.0
H5155 H 0.31 0.57033 0.87159 0.0
H5156 H 0.30112 0.52926 0.83008 0.0
C5157 C 0.25522 0.54636 0.79317 0.0
C5158 C 0.27306 0.56396 0.83531 0.0
C5159 C 0.24337 0.54891 0.7811 0.0
C5160 C 0.32585 0.55569 0.88411 0.0
C5161 C 0.31428 0.55844 0.87183 0.0
C5162 C 0.29346 0.53907 0.83217 0.0
C5163 C 0.25791 0.5566 0.80738 0.0
C5164 C 0.27096 0.55396 0.82091 0.0
C5165 C 0.30837 0.54634 0.8601 0.0
C5166 C 0.29553 0.54909 0.84652 0.0
H5167 H 0.22874 0.58234 0.79824 0.0
H5168 H 0.2485 0.57817 0.81839 0.0
H5169 H 0.28142 0.53313 0.80957 0.0
H5170 H 0.33006 0.51644 0.87485 0.0
H5171 H 0.31126 0.52121 0.8538 0.0
C5172 C 0.5426 0.22613 0.76384 0.0
C5173 C 0.55679 0.21744 0.764 0.0
C5174 C 0.53895 0.23863 0.77599 0.0
C5175 C 0.55726 0.26476 0.81417 0.0
H5176 H 0.51503 0.28057 0.81865 0.0
C5177 C 0.54472 0.31994 0.86342 0.0
C5178 C 0.52903 0.32326 0.86908 0.0
C5179 C 0.54779 0.30759 0.85102 0.0
C5180 C 0.52705 0.27654 0.81796 0.0
H5181 H 0.57788 0.21667 0.77884 0.0
H5182 H 0.57189 0.23748 0.79893 0.0
H5183 H 0.52031 0.25975 0.79791 0.0
H5184 H 0.50437 0.31455 0.86447 0.0
H5185 H 0.50948 0.294 0.84337 0.0
H5186 H 0.56404 0.2815 0.83415 0.0
C5187 C 0.5633 0.23496 0.78937 0.0
C5188 C 0.53021 0.26421 0.80555 0.0
C5189 C 0.56684 0.22251 0.77741 0.0
C5190 C 0.51673 0.31311 0.86105 0.0
C5191 C 0.51977 0.30094 0.84851 0.0
C5192 C 0.55415 0.27715 0.82646 0.0
C5193 C 0.54918 0.24372 0.78939 0.0
C5194 C 0.5455 0.25761 0.80303 0.0
C5195 C 0.53547 0.29745 0.84288 0.0
C5196 C 0.53888 0.28369 0.82906 0.0
H5197 H 0.53402 0.22322 0.75431 0.0
H5198 H 0.52787 0.2444 0.77468 0.0
H5199 H 0.56934 0.26091 0.81347 0.0
H5200 H 0.55494 0.32685 0.86875 0.0
H5201 H 0.56017 0.30616 0.84775 0.0
C5202 C 0.81133 0.59105 0.85644 0.0
C5203 C 0.80022 0.57873 0.86155 0.0
C5204 C 0.82282 0.58851 0.84397 0.0
C5205 C 0.84026 0.55513 0.81537 0.0
H5206 H 0.86461 0.59123 0.79813 0.0
C5207 C 0.89308 0.54411 0.76839 0.0
C5208 C 0.89925 0.55591 0.758 0.0
C5209 C 0.88118 0.54711 0.78031 0.0
C5210 C 0.858 0.5808 0.80251 0.0
H5211 H 0.79324 0.55363 0.85636 0.0
H5212 H 0.81253 0.54922 0.83479 0.0
H5213 H 0.84452 0.59569 0.81865 0.0
H5214 H 0.89689 0.58075 0.75309 0.0
H5215 H 0.87627 0.58597 0.77346 0.0
H5216 H 0.85338 0.54029 0.79889 0.0
C5217 C 0.81276 0.56109 0.84057 0.0
C5218 C 0.84623 0.58339 0.81479 0.0
C5219 C 0.80131 0.56364 0.85318 0.0
C5220 C 0.89267 0.57107 0.76042 0.0
C5221 C 0.8807 0.57412 0.77247 0.0
C5222 C 0.85195 0.55255 0.80307 0.0
C5223 C 0.82407 0.57342 0.83549 0.0
C5224 C 0.8369 0.57064 0.8218 0.0
C5225 C 0.87447 0.56221 0.78288 0.0
C5226 C 0.86138 0.56525 0.79619 0.0
H5227 H 0.81136 0.60293 0.86226 0.0
H5228 H 0.8309 0.59863 0.84125 0.0
H5229 H 0.83395 0.54461 0.81987 0.0
H5230 H 0.89757 0.53227 0.76742 0.0
H5231 H 0.87752 0.53738 0.78776 0.0
C5232 C 0.54871 0.24648 0.30846 0.0
C5233 C 0.55937 0.234 0.30614 0.0
C5234 C 0.54693 0.2584 0.29683 0.0
C5235 C 0.55924 0.26884 0.25289 0.0
H5236 H 0.54074 0.30921 0.26335 0.0
C5237 C 0.56127 0.31917 0.20498 0.0
C5238 C 0.55036 0.33148 0.2049 0.0
C5239 C 0.56156 0.30798 0.21725 0.0
C5240 C 0.5459 0.29802 0.25991 0.0
H5241 H 0.57646 0.22535 0.28867 0.0
H5242 H 0.5737 0.24533 0.26941 0.0
H5243 H 0.54263 0.28957 0.28381 0.0
H5244 H 0.531 0.34083 0.21907 0.0
H5245 H 0.53153 0.32162 0.24038 0.0
H5246 H 0.56243 0.27705 0.2291 0.0
C5247 C 0.56628 0.24613 0.27999 0.0
C5248 C 0.54702 0.28645 0.27195 0.0
C5249 C 0.56804 0.23437 0.29148 0.0
C5250 C 0.53968 0.3318 0.2182 0.0
C5251 C 0.54007 0.32058 0.2307 0.0
C5252 C 0.55818 0.28035 0.24096 0.0
C5253 C 0.55562 0.25863 0.28205 0.0
C5254 C 0.55388 0.27141 0.26895 0.0
C5255 C 0.551 0.30814 0.23062 0.0
C5256 C 0.55161 0.29548 0.24395 0.0
H5257 H 0.54169 0.24717 0.31934 0.0
H5258 H 0.53848 0.2674 0.29951 0.0
H5259 H 0.5642 0.25765 0.24915 0.0
H5260 H 0.56983 0.318 0.1953 0.0
H5261 H 0.57049 0.29923 0.21619 0.0
C5262 C 0.77985 0.56029 0.20036 0.0
C5263 C 0.77477 0.5758 0.19755 0.0
C5264 C 0.7916 0.55757 0.21244 0.0
C5265 C 0.81506 0.57821 0.2498 0.0
H5266 H 0.84066 0.54153 0.2458 0.0
C5267 C 0.86624 0.5692 0.29953 0.0
C5268 C 0.87525 0.55535 0.29932 0.0
C5269 C 0.85422 0.57156 0.28765 0.0
C5270 C 0.83379 0.55195 0.2476 0.0
H5271 H 0.77938 0.60049 0.20642 0.0
H5272 H 0.79858 0.59586 0.22714 0.0
H5273 H 0.82055 0.54534 0.22572 0.0
H5274 H 0.87753 0.53319 0.28514 0.0
H5275 H 0.85736 0.53704 0.2652 0.0
H5276 H 0.82812 0.58487 0.27164 0.0
C5277 C 0.79362 0.58551 0.22007 0.0
C5278 C 0.82182 0.55415 0.23566 0.0
C5279 C 0.78225 0.58824 0.20784 0.0
C5280 C 0.87127 0.54411 0.28631 0.0
C5281 C 0.85933 0.54644 0.27447 0.0
C5282 C 0.82695 0.57597 0.2618 0.0
C5283 C 0.79895 0.5701 0.22286 0.0
C5284 C 0.81196 0.56741 0.23619 0.0
C5285 C 0.8502 0.56027 0.27452 0.0
C5286 C 0.83693 0.56275 0.26126 0.0
H5287 H 0.7751 0.55013 0.19287 0.0
H5288 H 0.79483 0.54539 0.2136 0.0
H5289 H 0.80807 0.58858 0.25149 0.0
H5290 H 0.86843 0.57841 0.309 0.0
H5291 H 0.84812 0.58252 0.28892 0.0
C5292 C 0.56841 0.792 0.22922 0.0
C5293 C 0.58084 0.7939 0.2175 0.0
C5294 C 0.56542 0.80409 0.24191 0.0
C5295 C 0.57351 0.84993 0.25564 0.0
H5296 H 0.55763 0.83829 0.29718 0.0
C5297 C 0.55221 0.90069 0.30538 0.0
C5298 C 0.55343 0.89934 0.32231 0.0
C5299 C 0.55596 0.88825 0.29348 0.0
C5300 C 0.56208 0.84215 0.28576 0.0
H5301 H 0.59942 0.81181 0.21122 0.0
H5302 H 0.59393 0.83245 0.23215 0.0
H5303 H 0.5625 0.8174 0.27614 0.0
H5304 H 0.55998 0.88178 0.33871 0.0
H5305 H 0.56584 0.86025 0.31841 0.0
H5306 H 0.57267 0.87465 0.26502 0.0
C5307 C 0.58647 0.82135 0.23186 0.0
C5308 C 0.56487 0.82979 0.27328 0.0
C5309 C 0.58975 0.80911 0.21952 0.0
C5310 C 0.55874 0.88413 0.32622 0.0
C5311 C 0.56209 0.8714 0.31421 0.0
C5312 C 0.57031 0.86227 0.26794 0.0
C5313 C 0.57423 0.81943 0.24378 0.0
C5314 C 0.57083 0.83307 0.25762 0.0
C5315 C 0.56088 0.87289 0.29722 0.0
C5316 C 0.56451 0.85903 0.28367 0.0
H5317 H 0.56093 0.7809 0.22877 0.0
H5318 H 0.5558 0.80138 0.25025 0.0
H5319 H 0.57795 0.85383 0.24423 0.0
H5320 H 0.54828 0.91173 0.30108 0.0
H5321 H 0.55455 0.89072 0.28104 0.0
C5322 C 0.30358 0.55038 0.22876 0.0
C5323 C 0.30674 0.53475 0.22267 0.0
C5324 C 0.29205 0.55325 0.24118 0.0
C5325 C 0.26341 0.53194 0.2722 0.0
H5326 H 0.2485 0.57443 0.27891 0.0
C5327 C 0.2162 0.54712 0.32547 0.0
C5328 C 0.20808 0.56152 0.32595 0.0
C5329 C 0.22803 0.54348 0.31341 0.0
C5330 C 0.25211 0.5623 0.27746 0.0
H5331 H 0.29928 0.50985 0.2261 0.0
H5332 H 0.27961 0.51466 0.24713 0.0
H5333 H 0.26765 0.56909 0.25806 0.0
H5334 H 0.20687 0.58305 0.3129 0.0
H5335 H 0.22636 0.5769 0.29258 0.0
H5336 H 0.24742 0.5251 0.29142 0.0
C5337 C 0.2861 0.52502 0.24247 0.0
C5338 C 0.2637 0.5592 0.2652 0.0
C5339 C 0.29763 0.52217 0.23004 0.0
C5340 C 0.21256 0.57187 0.31355 0.0
C5341 C 0.2242 0.56825 0.30157 0.0
C5342 C 0.25169 0.53502 0.28446 0.0
C5343 C 0.28275 0.5407 0.24851 0.0
C5344 C 0.26989 0.54393 0.26205 0.0
C5345 C 0.23254 0.55397 0.30096 0.0
C5346 C 0.24552 0.55036 0.2876 0.0
H5347 H 0.31008 0.56064 0.22399 0.0
H5348 H 0.29066 0.5656 0.24508 0.0
H5349 H 0.26744 0.51994 0.27089 0.0
H5350 H 0.2134 0.5385 0.33442 0.0
H5351 H 0.23371 0.53231 0.31404 0.0
C5352 C 0.777 0.86329 0.52773 0.0
C5353 C 0.77313 0.87463 0.5401 0.0
C5354 C 0.78896 0.85194 0.52943 0.0
C5355 C 0.81912 0.83647 0.56039 0.0
H5356 H 0.834 0.81222 0.52328 0.0
C5357 C 0.87529 0.79588 0.56558 0.0
C5358 C 0.87892 0.78367 0.55389 0.0
C5359 C 0.86237 0.80609 0.56399 0.0
C5360 C 0.83014 0.81864 0.53401 0.0
H5361 H 0.77861 0.88092 0.56496 0.0
H5362 H 0.79908 0.862 0.56797 0.0
H5363 H 0.81282 0.83029 0.52059 0.0
H5364 H 0.87026 0.77333 0.53103 0.0
H5365 H 0.84797 0.79047 0.52836 0.0
H5366 H 0.83644 0.82477 0.5738 0.0
C5367 C 0.79329 0.86182 0.55647 0.0
C5368 C 0.81759 0.82938 0.53244 0.0
C5369 C 0.78127 0.87308 0.55472 0.0
C5370 C 0.8684 0.78227 0.54052 0.0
C5371 C 0.85537 0.7925 0.53891 0.0
C5372 C 0.83168 0.82576 0.56195 0.0
C5373 C 0.79789 0.85092 0.5438 0.0
C5374 C 0.81155 0.83883 0.54555 0.0
C5375 C 0.85188 0.80491 0.55056 0.0
C5376 C 0.83779 0.81645 0.54882 0.0
H5377 H 0.77054 0.86299 0.51658 0.0
H5378 H 0.79104 0.84391 0.51921 0.0
H5379 H 0.81538 0.84283 0.57119 0.0
H5380 H 0.88257 0.79771 0.57624 0.0
H5381 H 0.86092 0.81521 0.57343 0.0
C5382 C 0.87457 0.32228 0.53678 0.0
C5383 C 0.88404 0.32771 0.55053 0.0
C5384 C 0.86209 0.309 0.53674 0.0
C5385 C 0.84066 0.27554 0.56441 0.0
H5386 H 0.81461 0.26283 0.52732 0.0
C5387 C 0.79035 0.21854 0.56717 0.0
C5388 C 0.77875 0.21357 0.555 0.0
C5389 C 0.80243 0.23183 0.56612 0.0
C5390 C 0.82152 0.26588 0.53807 0.0
H5391 H 0.88613 0.32137 0.57515 0.0
H5392 H 0.86555 0.2995 0.57511 0.0
H5393 H 0.83518 0.28517 0.52643 0.0
H5394 H 0.77261 0.22061 0.53142 0.0
H5395 H 0.79309 0.24319 0.52955 0.0
H5396 H 0.82715 0.25643 0.5761 0.0
C5397 C 0.86742 0.30533 0.56401 0.0
C5398 C 0.83382 0.27921 0.53753 0.0
C5399 C 0.87974 0.31849 0.56405 0.0
C5400 C 0.78062 0.22333 0.54146 0.0
C5401 C 0.79285 0.2367 0.54037 0.0
C5402 C 0.82844 0.26227 0.56494 0.0
C5403 C 0.85786 0.29975 0.55039 0.0
C5404 C 0.84409 0.28483 0.55071 0.0
C5405 C 0.80443 0.24173 0.55269 0.0
C5406 C 0.81812 0.25664 0.55183 0.0
H5407 H 0.87684 0.32823 0.52577 0.0
H5408 H 0.85577 0.30597 0.52564 0.0
H5409 H 0.84752 0.27842 0.5752 0.0
H5410 H 0.7902 0.21199 0.57796 0.0
H5411 H 0.8104 0.23416 0.57621 0.0
C5412 C 0.22542 0.79946 0.51821 0.0
C5413 C 0.22261 0.78848 0.53071 0.0
C5414 C 0.23779 0.8126 0.5184 0.0
C5415 C 0.27483 0.83543 0.54317 0.0
H5416 H 0.27695 0.86296 0.50763 0.0
C5417 C 0.32714 0.89264 0.54028 0.0
C5418 C 0.3286 0.903 0.52715 0.0
C5419 C 0.31492 0.87919 0.54126 0.0
C5420 C 0.27705 0.85572 0.51791 0.0
H5421 H 0.23284 0.78485 0.55385 0.0
H5422 H 0.25402 0.80707 0.55418 0.0
H5423 H 0.25659 0.84092 0.50835 0.0
H5424 H 0.31628 0.90549 0.50482 0.0
H5425 H 0.29605 0.8833 0.50642 0.0
H5426 H 0.29541 0.85045 0.55268 0.0
C5427 C 0.24635 0.80548 0.54378 0.0
C5428 C 0.26478 0.84242 0.51834 0.0
C5429 C 0.23377 0.7922 0.54361 0.0
C5430 C 0.31651 0.89851 0.5153 0.0
C5431 C 0.30437 0.88521 0.51628 0.0
C5432 C 0.28717 0.84879 0.54273 0.0
C5433 C 0.24905 0.81647 0.53115 0.0
C5434 C 0.26291 0.83143 0.53096 0.0
C5435 C 0.3028 0.87469 0.52927 0.0
C5436 C 0.28902 0.85972 0.53003 0.0
H5437 H 0.21776 0.79801 0.50779 0.0
H5438 H 0.23837 0.81982 0.5081 0.0
H5439 H 0.27479 0.82811 0.55341 0.0
H5440 H 0.33555 0.89487 0.55007 0.0
H5441 H 0.31508 0.87224 0.55175 0.0
C5442 C 0.23314 0.32328 0.51373 0.0
C5443 C 0.22629 0.33167 0.52701 0.0
C5444 C 0.24609 0.313 0.51518 0.0
C5445 C 0.27351 0.29456 0.54677 0.0
H5446 H 0.29317 0.27565 0.50907 0.0
C5447 C 0.32684 0.25075 0.55381 0.0
C5448 C 0.33275 0.24097 0.54103 0.0
C5449 C 0.31476 0.26184 0.5519 0.0
C5450 C 0.28801 0.28054 0.51997 0.0
H5451 H 0.22904 0.33501 0.55267 0.0
H5452 H 0.25126 0.31801 0.55525 0.0
H5453 H 0.272 0.29367 0.5064 0.0
H5454 H 0.33002 0.23669 0.51545 0.0
H5455 H 0.30943 0.2557 0.51194 0.0
H5456 H 0.28942 0.28145 0.56036 0.0
C5457 C 0.2466 0.31898 0.54337 0.0
C5458 C 0.27541 0.29126 0.5184 0.0
C5459 C 0.23356 0.32918 0.54189 0.0
C5460 C 0.32607 0.24357 0.52589 0.0
C5461 C 0.31394 0.25477 0.52389 0.0
C5462 C 0.28608 0.28386 0.54834 0.0
C5463 C 0.25338 0.31031 0.53009 0.0
C5464 C 0.26753 0.2987 0.53175 0.0
C5465 C 0.30759 0.26425 0.53689 0.0
C5466 C 0.29387 0.27629 0.53502 0.0
H5467 H 0.22851 0.32466 0.50192 0.0
H5468 H 0.25021 0.30707 0.5043 0.0
H5469 H 0.26841 0.29941 0.55772 0.0
H5470 H 0.33179 0.25005 0.56556 0.0
H5471 H 0.31125 0.26863 0.56252 0.0
C5472 C 0.11976 0.16156 0.37413 0.0
C5473 C 0.1201 0.17658 0.38266 0.0
C5474 C 0.13373 0.15337 0.37183 0.0
C5475 C 0.17843 0.15727 0.37425 0.0
H5476 H 0.17357 0.11276 0.3853 0.0
C5477 C 0.22592 0.10565 0.37633 0.0
C5478 C 0.23262 0.10848 0.39171 0.0
C5479 C 0.21212 0.11327 0.37211 0.0
C5480 C 0.17505 0.12506 0.38183 0.0
H5481 H 0.13586 0.19522 0.39441 0.0
H5482 H 0.16034 0.18103 0.3902 0.0
H5483 H 0.14985 0.12817 0.38354 0.0
H5484 H 0.22969 0.1212 0.41476 0.0
H5485 H 0.20593 0.13428 0.40734 0.0
H5486 H 0.20381 0.1542 0.37339 0.0
C5487 C 0.14914 0.17552 0.38539 0.0
C5488 C 0.16148 0.13394 0.38084 0.0
C5489 C 0.13509 0.1837 0.38779 0.0
C5490 C 0.22502 0.1188 0.40276 0.0
C5491 C 0.21138 0.12634 0.39856 0.0
C5492 C 0.19201 0.14835 0.37523 0.0
C5493 C 0.14855 0.16 0.37784 0.0
C5494 C 0.16298 0.15026 0.37732 0.0
C5495 C 0.20486 0.12379 0.3832 0.0
C5496 C 0.19045 0.13224 0.37924 0.0
H5497 H 0.10854 0.15585 0.36958 0.0
H5498 H 0.13284 0.14165 0.36562 0.0
H5499 H 0.18006 0.16973 0.37136 0.0
H5500 H 0.23151 0.09785 0.36753 0.0
H5501 H 0.20723 0.11111 0.36017 0.0
C5502 C 0.03005 0.20605 0.40052 0.0
C5503 C 0.03755 0.21114 0.41511 0.0
C5504 C 0.0197 0.19207 0.39918 0.0
C5505 C 0.9943 0.16434 0.42429 0.0
H5506 H 0.98963 0.13862 0.3845 0.0
C5507 C 0.94446 0.1117 0.41662 0.0
C5508 C 0.94848 0.09774 0.40776 0.0
C5509 C 0.95466 0.12591 0.41673 0.0
C5510 C 0.99077 0.14551 0.39581 0.0
H5511 H 0.04069 0.20493 0.43954 0.0
H5512 H 0.02272 0.18045 0.4373 0.0
H5513 H 1.00965 0.16111 0.38664 0.0
H5514 H 0.96603 0.08837 0.39122 0.0
H5515 H 0.98369 0.11262 0.3916 0.0
H5516 H 0.97578 0.1484 0.43364 0.0
C5517 C 0.02455 0.18744 0.42688 0.0
C5518 C 1.00224 0.15867 0.39698 0.0
C5519 C 0.03505 0.2014 0.42816 0.0
C5520 C 0.96256 0.09874 0.39839 0.0
C5521 C 0.97271 0.11285 0.39849 0.0
C5522 C 0.98287 0.15112 0.42316 0.0
C5523 C 0.01642 0.18267 0.41244 0.0
C5524 C 1.00428 0.16834 0.41126 0.0
C5525 C 0.96919 0.12665 0.40792 0.0
C5526 C 0.98091 0.14137 0.40891 0.0
H5527 H 0.03185 0.21317 0.39017 0.0
H5528 H 1.01373 0.18908 0.38787 0.0
H5529 H 0.99516 0.17155 0.43544 0.0
H5530 H 0.93378 0.11145 0.42401 0.0
H5531 H 0.95121 0.13627 0.4239 0.0
C5532 C 0.98837 0.90843 0.42773 0.0
C5533 C 0.99104 0.89994 0.41297 0.0
C5534 C 0.97772 0.92114 0.42912 0.0
C5535 C 0.94489 0.94097 0.40577 0.0
H5536 H 0.9479 0.97284 0.44106 0.0
C5537 C 0.90249 0.9953 0.40813 0.0
C5538 C 0.89856 1.00338 0.42275 0.0
C5539 C 0.91394 0.98342 0.40713 0.0
C5540 C 0.94655 0.96407 0.4311 0.0
H5541 H 0.98486 0.89953 0.38793 0.0
H5542 H 0.96699 0.92135 0.39011 0.0
H5543 H 0.96672 0.95185 0.43909 0.0
H5544 H 0.90455 1.00497 0.44788 0.0
H5545 H 0.9241 0.98437 0.44634 0.0
H5546 H 0.9247 0.95304 0.39783 0.0
C5547 C 0.97252 0.91801 0.40096 0.0
C5548 C 0.95761 0.95173 0.42994 0.0
C5549 C 0.98304 0.9053 0.39963 0.0
C5550 C 0.90707 0.99925 0.43632 0.0
C5551 C 0.91847 0.98723 0.43536 0.0
C5552 C 0.93386 0.95328 0.40693 0.0
C5553 C 0.96926 0.92624 0.41579 0.0
C5554 C 0.9572 0.93976 0.4172 0.0
C5555 C 0.92218 0.97877 0.42074 0.0
C5556 C 0.93431 0.9653 0.4196 0.0
H5557 H 0.99413 0.9049 0.4384 0.0
H5558 H 0.9759 0.9267 0.44089 0.0
H5559 H 0.94341 0.93216 0.39587 0.0
H5560 H 0.89659 0.99815 0.39727 0.0
H5561 H 0.91629 0.97793 0.39544 0.0
C5562 C 0.1622 0.03455 0.36646 0.0
C5563 C 0.17555 0.02913 0.37411 0.0
C5564 C 0.1502 0.0236 0.36017 0.0
C5565 C 0.13774 0.9798 0.3538 0.0
H5566 H 0.09735 0.99373 0.3706 0.0
C5567 C 0.08559 0.93711 0.37517 0.0
C5568 C 0.0698 0.9417 0.37378 0.0
C5569 C 0.09856 0.94699 0.36995 0.0
C5570 C 0.1084 0.98969 0.36548 0.0
H5571 H 0.18765 1.00826 0.38003 0.0
H5572 H 0.16658 0.98901 0.36934 0.0
H5573 H 0.12041 1.01277 0.36989 0.0
H5574 H 0.05513 0.95947 0.36457 0.0
H5575 H 0.07771 0.97664 0.35537 0.0
H5576 H 0.12567 0.9564 0.35022 0.0
C5577 C 0.1654 1.00165 0.36789 0.0
C5578 C 0.12169 1.00067 0.36502 0.0
C5579 C 0.17751 1.01264 0.37403 0.0
C5580 C 0.06719 0.95578 0.36608 0.0
C5581 C 0.08012 0.96561 0.36081 0.0
C5582 C 0.12438 0.96875 0.35432 0.0
C5583 C 0.15119 1.00704 0.36171 0.0
C5584 C 0.13664 0.99582 0.35952 0.0
C5585 C 0.09597 0.96163 0.3632 0.0
C5586 C 0.10965 0.97351 0.36049 0.0
H5587 H 0.16048 0.04727 0.36645 0.0
H5588 H 0.13962 0.02815 0.35512 0.0
H5589 H 0.14902 0.97571 0.34933 0.0
H5590 H 0.08799 0.92638 0.38113 0.0
H5591 H 0.11062 0.94363 0.37209 0.0
C5592 C 0.16075 1.00644 0.66753 0.0
C5593 C 0.15656 0.02005 0.67684 0.0
C5594 C 0.15086 0.99205 0.66716 0.0
C5595 C 0.11581 0.97101 0.6882 0.0
H5596 H 0.11107 0.94613 0.64791 0.0
C5597 C 0.07859 0.90941 0.68255 0.0
C5598 C 0.07075 0.90459 0.66808 0.0
C5599 C 0.0885 0.92366 0.68406 0.0
C5600 C 0.11204 0.953 0.65924 0.0
H5601 H 0.13904 0.02863 0.69387 0.0
H5602 H 0.12186 1.00402 0.69303 0.0
H5603 H 0.12978 0.96979 0.64994 0.0
H5604 H 0.06643 0.91158 0.64411 0.0
H5605 H 0.08363 0.93655 0.64666 0.0
H5606 H 0.09769 0.95455 0.69736 0.0
C5607 C 0.13276 1.00424 0.68598 0.0
C5608 C 0.12307 0.96651 0.66049 0.0
C5609 C 0.1426 0.01854 0.68634 0.0
C5610 C 0.07241 0.91486 0.65537 0.0
C5611 C 0.08246 0.92911 0.65682 0.0
C5612 C 0.10473 0.95755 0.68692 0.0
C5613 C 0.13649 0.99078 0.67616 0.0
C5614 C 0.12515 0.97583 0.67499 0.0
C5615 C 0.09094 0.93362 0.67111 0.0
C5616 C 0.1026 0.94829 0.67241 0.0
H5617 H 0.17137 1.00708 0.66004 0.0
H5618 H 0.15444 0.98195 0.65967 0.0
H5619 H 0.11708 0.97758 0.69967 0.0
H5620 H 0.07737 0.9019 0.69267 0.0
H5621 H 0.09478 0.92648 0.69524 0.0
C5622 C 0.12139 0.20989 0.68168 0.0
C5623 C 0.11448 0.21577 0.668 0.0
C5624 C 0.13198 0.19723 0.68069 0.0
C5625 C 0.15621 0.17121 0.65049 0.0
H5626 H 0.16543 0.1491 0.68837 0.0
C5627 C 0.19785 0.11571 0.64764 0.0
C5628 C 0.20697 0.11252 0.66115 0.0
C5629 C 0.18653 0.12779 0.64823 0.0
C5630 C 0.16332 0.15513 0.67756 0.0
H5631 H 0.11316 0.2117 0.64234 0.0
H5632 H 0.13096 0.18959 0.64049 0.0
H5633 H 0.1465 0.16977 0.68978 0.0
H5634 H 0.21026 0.11968 0.68617 0.0
H5635 H 0.19104 0.14041 0.68726 0.0
H5636 H 0.173 0.15627 0.6383 0.0
C5637 C 0.12873 0.19504 0.65222 0.0
C5638 C 0.15218 0.16733 0.67837 0.0
C5639 C 0.11815 0.20779 0.65325 0.0
C5640 C 0.2038 0.12168 0.67537 0.0
C5641 C 0.19246 0.13366 0.67601 0.0
C5642 C 0.16729 0.15891 0.64967 0.0
C5643 C 0.13622 0.18945 0.66591 0.0
C5644 C 0.14825 0.17588 0.66489 0.0
C5645 C 0.18351 0.13722 0.66244 0.0
C5646 C 0.17127 0.1505 0.6632 0.0
H5647 H 0.11884 0.21535 0.69335 0.0
H5648 H 0.13715 0.19397 0.69174 0.0
H5649 H 0.15417 0.17723 0.63967 0.0
H5650 H 0.19973 0.10909 0.63639 0.0
H5651 H 0.18003 0.12959 0.63741 0.0
C5652 C 0.03609 0.16049 0.71407 0.0
C5653 C 0.03363 0.17487 0.70683 0.0
C5654 C 0.02311 0.15087 0.71954 0.0
C5655 C 0.97896 0.14877 0.72743 0.0
H5656 H 0.98185 0.1044 0.71248 0.0
C5657 C 0.92457 0.10343 0.71278 0.0
C5658 C 0.92657 0.08711 0.71454 0.0
C5659 C 0.93708 0.11499 0.7168 0.0
C5660 C 0.98089 0.11665 0.71709 0.0
H5661 H 1.01569 0.19099 0.70067 0.0
H5662 H 0.99293 0.1741 0.71008 0.0
H5663 H 1.00503 0.12317 0.7104 0.0
H5664 H 0.94239 0.07019 0.72342 0.0
H5665 H 0.96402 0.09027 0.7307 0.0
H5666 H 0.95446 0.14216 0.7335 0.0
C5667 C 1.00493 0.1703 0.71165 0.0
C5668 C 0.99425 0.12746 0.71589 0.0
C5669 C 0.01797 0.17998 0.70622 0.0
C5670 C 0.94061 0.0827 0.72182 0.0
C5671 C 0.95303 0.09419 0.72587 0.0
C5672 C 0.96551 0.13789 0.7286 0.0
C5673 C 1.00731 0.15534 0.71784 0.0
C5674 C 0.99343 0.14372 0.72082 0.0
C5675 C 0.95175 0.11035 0.72265 0.0
C5676 C 0.96628 0.12174 0.72324 0.0
H5677 H 0.04806 0.1564 0.71502 0.0
H5678 H 0.02542 0.13963 0.72462 0.0
H5679 H 0.97797 0.16117 0.7315 0.0
H5680 H 0.91391 0.10712 0.7071 0.0
H5681 H 0.9357 0.12733 0.71415 0.0
C5682 C 0.98899 0.95394 0.70735 0.0
C5683 C 0.98875 0.93883 0.69901 0.0
C5684 C 0.97517 0.96244 0.70867 0.0
C5685 C 0.93125 0.96066 0.7057 0.0
H5686 H 0.938 1.00229 0.68756 0.0
C5687 C 0.88132 1.0058 0.70234 0.0
C5688 C 0.87866 1.01065 0.68681 0.0
C5689 C 0.8949 0.99764 0.70577 0.0
C5690 C 0.93594 0.99074 0.69272 0.0
H5691 H 0.97322 0.92023 0.68685 0.0
H5692 H 0.94887 0.93497 0.68962 0.0
H5693 H 0.96079 0.98597 0.69105 0.0
H5694 H 0.8888 1.01197 0.66307 0.0
H5695 H 0.91283 0.99819 0.66916 0.0
H5696 H 0.90643 0.96564 0.70762 0.0
C5697 C 0.95996 0.94029 0.69486 0.0
C5698 C 0.94898 0.98142 0.6948 0.0
C5699 C 0.9739 0.93182 0.69332 0.0
C5700 C 0.89042 1.00817 0.67507 0.0
C5701 C 0.90417 1.0003 0.67858 0.0
C5702 C 0.91824 0.97019 0.70399 0.0
C5703 C 0.96062 0.95596 0.70198 0.0
C5704 C 0.94676 0.96616 0.70103 0.0
C5705 C 0.90637 0.99461 0.69386 0.0
C5706 C 0.92038 0.98517 0.69713 0.0
H5707 H 1.00007 0.95953 0.71235 0.0
H5708 H 0.97598 0.97435 0.71451 0.0
H5709 H 0.92919 0.949 0.71063 0.0
H5710 H 0.87271 1.008 0.71178 0.0
H5711 H 0.89638 0.99363 0.71772 0.0
C5712 C 0.39774 0.10427 0.12959 0.0
C5713 C 0.40381 0.10395 0.14524 0.0
C5714 C 0.39515 0.1188 0.1228 0.0
C5715 C 0.40896 0.16213 0.1281 0.0
H5716 H 0.38232 0.16538 0.09079 0.0
C5717 C 0.42434 0.21054 0.08432 0.0
C5718 C 0.41212 0.21888 0.07783 0.0
C5719 C 0.42072 0.19692 0.09287 0.0
C5720 C 0.38968 0.16477 0.10131 0.0
H5721 H 0.41039 0.11903 0.16644 0.0
H5722 H 0.40487 0.1441 0.15506 0.0
H5723 H 0.37918 0.14148 0.10631 0.0
H5724 H 0.38643 0.21889 0.0745 0.0
H5725 H 0.37998 0.19484 0.0896 0.0
H5726 H 0.41922 0.18546 0.12333 0.0
C5727 C 0.40291 0.13314 0.14765 0.0
C5728 C 0.38805 0.15093 0.11014 0.0
C5729 C 0.40583 0.11861 0.15434 0.0
C5730 C 0.39611 0.21271 0.07937 0.0
C5731 C 0.39244 0.19897 0.08805 0.0
C5732 C 0.41045 0.17594 0.11941 0.0
C5733 C 0.3982 0.13356 0.13152 0.0
C5734 C 0.39803 0.14917 0.12342 0.0
C5735 C 0.40472 0.19116 0.09528 0.0
C5736 C 0.40128 0.17725 0.10557 0.0
H5737 H 0.39543 0.09328 0.1223 0.0
H5738 H 0.39152 0.11838 0.11039 0.0
H5739 H 0.41702 0.16143 0.13806 0.0
H5740 H 0.43681 0.21482 0.08317 0.0
H5741 H 0.43055 0.191 0.09779 0.0
C5742 C 0.01939 0.4303 0.19543 0.0
C5743 C 0.01832 0.41736 0.20551 0.0
C5744 C 1.00946 0.43039 0.18189 0.0
C5745 C 0.97085 0.41267 0.16405 0.0
H5746 H 0.98868 0.42878 0.1248 0.0
C5747 C 0.93203 0.42785 0.10847 0.0
C5748 C 0.93863 0.42488 0.09315 0.0
C5749 C 0.94083 0.42539 0.12244 0.0
C5750 C 0.98343 0.42414 0.13559 0.0
H5751 H 1.00658 0.39384 0.20842 0.0
H5752 H 0.98886 0.3942 0.1852 0.0
H5753 H 1.00593 0.42754 0.148 0.0
H5754 H 0.95924 0.41572 0.08079 0.0
H5755 H 0.97431 0.41146 0.10476 0.0
H5756 H 0.94827 0.40937 0.15154 0.0
C5757 C 0.99721 0.40446 0.18791 0.0
C5758 C 0.99337 0.42358 0.14904 0.0
C5759 C 1.00733 0.40428 0.20132 0.0
C5760 C 0.95381 0.41844 0.09231 0.0
C5761 C 0.96256 0.41608 0.10614 0.0
C5762 C 0.96082 0.41343 0.15061 0.0
C5763 C 0.99805 0.41756 0.17798 0.0
C5764 C 0.98729 0.41785 0.16353 0.0
C5765 C 0.9565 0.41997 0.12148 0.0
C5766 C 0.96696 0.41913 0.1361 0.0
H5767 H 0.02777 0.44054 0.19815 0.0
H5768 H 1.01053 0.44073 0.17465 0.0
H5769 H 0.96564 0.40828 0.17498 0.0
H5770 H 0.92045 0.43288 0.10966 0.0
H5771 H 0.93566 0.42849 0.13399 0.0
C5772 C 0.74755 0.02648 0.15936 0.0
C5773 C 0.74573 1.01575 0.17161 0.0
C5774 C 0.75644 0.02247 0.14568 0.0
C5775 C 0.77801 0.98815 0.12602 0.0
H5776 H 0.74774 0.99386 0.09232 0.0
C5777 C 0.74764 0.9387 0.08662 0.0
C5778 C 0.74019 0.94264 0.07255 0.0
C5779 C 0.75816 0.94998 0.09479 0.0
C5780 C 0.75672 0.99237 0.1013 0.0
H5781 H 0.7536 0.99382 0.18049 0.0
H5782 H 0.76845 0.98648 0.15671 0.0
H5783 H 0.74845 1.01179 0.1157 0.0
H5784 H 0.73947 0.96024 0.05468 0.0
H5785 H 0.75826 0.97982 0.06866 0.0
H5786 H 0.78492 0.96748 0.11203 0.0
C5787 C 0.76332 0.99802 0.15733 0.0
C5788 C 0.75717 1.0028 0.11486 0.0
C5789 C 0.75464 1.00213 0.17101 0.0
C5790 C 0.74519 0.95696 0.0655 0.0
C5791 C 0.75581 0.9682 0.07359 0.0
C5792 C 0.77738 0.97752 0.11249 0.0
C5793 C 0.76336 1.00755 0.144 0.0
C5794 C 0.76709 1.00024 0.12786 0.0
C5795 C 0.7613 0.96534 0.08895 0.0
C5796 C 0.76608 0.97902 0.10039 0.0
H5797 H 0.74089 0.03716 0.15966 0.0
H5798 H 0.75669 0.03041 0.13589 0.0
H5799 H 0.78619 0.98609 0.13556 0.0
H5800 H 0.74378 0.92777 0.09233 0.0
H5801 H 0.76212 0.94735 0.10659 0.0
C5802 C 0.11911 0.67308 0.19244 0.0
C5803 C 0.10228 0.67052 0.19028 0.0
C5804 C 0.13037 0.67319 0.17957 0.0
C5805 C 0.13672 0.66123 0.1347 0.0
H5806 H 0.1765 0.68727 0.141 0.0
C5807 C 0.19174 0.6584 0.08701 0.0
C5808 C 0.2037 0.6713 0.08651 0.0
C5809 C 0.17898 0.65814 0.09869 0.0
C5810 C 0.16554 0.6799 0.13862 0.0
H5811 H 0.08486 0.66529 0.17129 0.0
H5812 H 0.1043 0.66506 0.14895 0.0
H5813 H 0.1559 0.68751 0.16151 0.0
H5814 H 0.20999 0.69459 0.09802 0.0
H5815 H 0.18862 0.6942 0.11788 0.0
H5816 H 0.14645 0.65374 0.11164 0.0
C5817 C 0.10888 0.66738 0.16098 0.0
C5818 C 0.15347 0.67988 0.15083 0.0
C5819 C 0.09748 0.66763 0.17402 0.0
C5820 C 0.20168 0.68408 0.09801 0.0
C5821 C 0.18909 0.68382 0.10966 0.0
C5822 C 0.14891 0.66116 0.12245 0.0
C5823 C 0.12578 0.67034 0.16332 0.0
C5824 C 0.13862 0.67052 0.14943 0.0
C5825 C 0.17732 0.67078 0.11064 0.0
C5826 C 0.16381 0.67055 0.12394 0.0
H5827 H 0.12382 0.6751 0.20432 0.0
H5828 H 0.14295 0.67526 0.18258 0.0
H5829 H 0.12581 0.65367 0.13264 0.0
H5830 H 0.1924 0.64821 0.07855 0.0
H5831 H 0.17057 0.64771 0.09847 0.0
C5832 C 0.39791 0.01869 0.88153 0.0
C5833 C 0.41249 0.02553 0.87559 0.0
C5834 C 0.39753 1.0084 0.89437 0.0
C5835 C 0.42363 0.98269 0.91799 0.0
H5836 H 0.38735 0.98158 0.94697 0.0
C5837 C 0.41788 0.93652 0.96909 0.0
C5838 C 0.41091 0.94152 0.98374 0.0
C5839 C 0.41734 0.94585 0.95544 0.0
C5840 C 0.39772 0.98167 0.93917 0.0
H5841 H 0.43819 0.02699 0.8791 0.0
H5842 H 0.43763 1.00922 0.90149 0.0
H5843 H 0.38849 0.99991 0.92545 0.0
H5844 H 0.3977 0.96038 0.9951 0.0
H5845 H 0.39663 0.97633 0.97179 0.0
H5846 H 0.43307 0.96475 0.93204 0.0
C5847 C 0.42636 1.01158 0.89608 0.0
C5848 C 0.39827 0.9922 0.9265 0.0
C5849 C 0.4267 0.02201 0.88328 0.0
C5850 C 0.40293 0.95586 0.98402 0.0
C5851 C 0.40236 0.96513 0.97048 0.0
C5852 C 0.42309 0.97214 0.9307 0.0
C5853 C 0.41175 1.00445 0.90189 0.0
C5854 C 0.41125 0.99303 0.9156 0.0
C5855 C 0.40983 0.96057 0.9559 0.0
C5856 C 0.41015 0.97142 0.94168 0.0
H5857 H 0.38669 0.02114 0.87605 0.0
H5858 H 0.38598 1.0032 0.89809 0.0
H5859 H 0.43378 0.98259 0.90991 0.0
H5860 H 0.42447 0.92581 0.96838 0.0
H5861 H 0.42308 0.94158 0.94456 0.0
C5862 C 0.19327 0.39669 1.00972 0.0
C5863 C 0.19918 0.41217 1.0152 0.0
C5864 C 0.17923 0.39446 1.00061 0.0
C5865 C 0.15586 0.41707 0.9736 0.0
H5866 H 0.12476 0.38054 0.97444 0.0
C5867 C 0.10522 0.41007 0.92753 0.0
C5868 C 0.08979 0.40601 0.9335 0.0
C5869 C 0.11888 0.40791 0.93655 0.0
C5870 C 0.1333 0.39085 0.97407 0.0
H5871 H 0.19439 0.43724 0.01672 0.0
H5872 H 0.16956 0.43339 1.0011 0.0
H5873 H 0.14666 0.38342 0.99384 0.0
H5874 H 0.07684 0.39495 0.95303 0.0
H5875 H 0.10048 0.392 0.96907 0.0
H5876 H 0.14238 0.4249 0.95434 0.0
C5877 C 0.17603 0.423 1.00345 0.0
C5878 C 0.14593 0.39244 0.98513 0.0
C5879 C 0.1901 0.42522 1.01258 0.0
C5880 C 0.08848 0.39867 0.94823 0.0
C5881 C 0.10212 0.39674 0.95736 0.0
C5882 C 0.14326 0.41553 0.96263 0.0
C5883 C 0.17076 0.40768 0.99685 0.0
C5884 C 0.15725 0.40571 0.98517 0.0
C5885 C 0.11748 0.40189 0.95191 0.0
C5886 C 0.13168 0.4025 0.96277 0.0
H5887 H 0.2 0.38637 1.01173 0.0
H5888 H 0.17557 0.3825 0.99578 0.0
H5889 H 0.16457 0.42722 0.97299 0.0
H5890 H 0.1068 0.41572 0.91626 0.0
H5891 H 0.13052 0.41156 0.93171 0.0
C5892 C 0.69213 0.20759 0.98887 0.0
C5893 C 0.67955 0.21096 0.99967 0.0
C5894 C 0.69102 0.19436 0.97732 0.0
C5895 C 0.66451 0.15592 0.96314 0.0
H5896 H 0.69307 0.15706 0.92665 0.0
C5897 C 0.65819 0.10606 0.90842 0.0
C5898 C 0.67163 0.10289 0.89866 0.0
C5899 C 0.65885 0.11855 0.92088 0.0
C5900 C 0.68502 0.15616 0.93677 0.0
H5901 H 0.65578 0.2018 1.00642 0.0
H5902 H 0.65362 0.17918 0.98647 0.0
H5903 H 0.69465 0.17893 0.94688 0.0
H5904 H 0.6967 0.11037 0.89573 0.0
H5905 H 0.69797 0.13156 0.91698 0.0
H5906 H 0.65471 0.13315 0.95267 0.0
C5907 C 0.66467 0.1867 0.98686 0.0
C5908 C 0.68595 0.16904 0.94873 0.0
C5909 C 0.66589 0.19992 0.99856 0.0
C5910 C 0.68589 0.11243 0.9025 0.0
C5911 C 0.68658 0.12486 0.91488 0.0
C5912 C 0.66352 0.14304 0.95109 0.0
C5913 C 0.67715 0.18354 0.97565 0.0
C5914 C 0.67584 0.16939 0.96246 0.0
C5915 C 0.67303 0.12856 0.92437 0.0
C5916 C 0.67382 0.14265 0.93753 0.0
H5917 H 0.70302 0.21542 0.98919 0.0
H5918 H 0.7013 0.19276 0.96967 0.0
H5919 H 0.65639 0.15504 0.97319 0.0
H5920 H 0.6469 0.09919 0.90611 0.0
H5921 H 0.64796 0.12058 0.92752 0.0
C5922 C 1.00969 0.77156 0.91126 0.0
C5923 C 0.01876 0.75804 0.90999 0.0
C5924 C 1.00553 0.77819 0.92621 0.0
C5925 C 1.00024 0.76261 0.9668 0.0
H5926 H 0.97228 0.79771 0.96995 0.0
C5927 C 0.93865 0.75462 0.99419 0.0
C5928 C 0.93097 0.76742 1.00176 0.0
C5929 C 0.95381 0.75707 0.9874 0.0
C5930 C 0.98025 0.78803 0.96956 0.0
H5931 H 0.03345 0.74304 0.92327 0.0
H5932 H 0.02764 0.75565 0.94927 0.0
H5933 H 0.99403 0.79819 0.95068 0.0
H5934 H 0.93351 0.79292 1.00827 0.0
H5935 H 0.9601 0.79727 0.99614 0.0
H5936 H 0.98672 0.75278 0.98607 0.0
C5937 C 0.02239 0.76026 0.93883 0.0
C5938 C 0.99263 0.7881 0.95822 0.0
C5939 C 0.02608 0.75321 0.92382 0.0
C5940 C 0.939 0.7828 1.00242 0.0
C5941 C 0.95426 0.78529 0.99552 0.0
C5942 C 0.98822 0.76279 0.97842 0.0
C5943 C 1.01085 0.77183 0.94034 0.0
C5944 C 1.00197 0.77475 0.95576 0.0
C5945 C 0.96183 0.77242 0.98788 0.0
C5946 C 0.97731 0.77486 0.97912 0.0
H5947 H 1.0044 0.77601 0.90074 0.0
H5948 H 0.99687 0.78722 0.92643 0.0
H5949 H 1.00711 0.75213 0.96576 0.0
H5950 H 0.93275 0.74268 0.99302 0.0
H5951 H 0.95896 0.74694 0.9812 0.0
C5952 C 0.17229 0.33324 0.0802 0.0
C5953 C 0.17845 0.34925 0.07907 0.0
C5954 C 0.1575 0.32973 0.08769 0.0
C5955 C 0.12073 0.34854 0.10245 0.0
H5956 H 0.12283 0.32076 0.13776 0.0
C5957 C 0.08234 0.36179 0.1554 0.0
C5958 C 0.09231 0.3647 0.16878 0.0
C5959 C 0.08701 0.35169 0.14259 0.0
C5960 C 0.1219 0.32841 0.12785 0.0
H5961 H 0.17362 0.37406 0.08517 0.0
H5962 H 0.148 0.36798 0.09764 0.0
H5963 H 0.14343 0.32038 0.11705 0.0
H5964 H 0.11363 0.35795 0.18047 0.0
H5965 H 0.12199 0.34068 0.15832 0.0
H5966 H 0.10031 0.35787 0.11391 0.0
C5967 C 0.15442 0.35811 0.09252 0.0
C5968 C 0.13365 0.32808 0.11588 0.0
C5969 C 0.16921 0.3616 0.08528 0.0
C5970 C 0.10579 0.35582 0.17019 0.0
C5971 C 0.11053 0.34584 0.15741 0.0
C5972 C 0.10911 0.34901 0.11446 0.0
C5973 C 0.14846 0.34216 0.09401 0.0
C5974 C 0.13372 0.33889 0.10363 0.0
C5975 C 0.10185 0.34464 0.14297 0.0
C5976 C 0.11017 0.33973 0.12788 0.0
H5977 H 0.17892 0.32339 0.07541 0.0
H5978 H 0.1532 0.31732 0.08869 0.0
H5979 H 0.12026 0.35673 0.09291 0.0
H5980 H 0.07186 0.36856 0.15414 0.0
H5981 H 0.07979 0.35065 0.13184 0.0
C5982 C 0.14965 0.69777 0.99159 0.0
C5983 C 0.16524 0.69227 0.99093 0.0
C5984 C 0.141 0.69986 0.97765 0.0
C5985 C 0.14338 0.70382 0.93354 0.0
H5986 H 0.09929 0.68598 0.93461 0.0
C5987 C 0.09693 0.71083 0.88239 0.0
C5988 C 0.0874 0.69695 0.87736 0.0
C5989 C 0.10677 0.71107 0.89602 0.0
C5990 C 0.11157 0.691 0.93403 0.0
H5991 H 0.18426 0.68575 0.97466 0.0
H5992 H 0.16918 0.68968 0.95015 0.0
H5993 H 0.11622 0.6854 0.95815 0.0
H5994 H 0.08011 0.67271 0.88341 0.0
H5995 H 0.09685 0.67321 0.90734 0.0
H5996 H 0.13859 0.70938 0.90929 0.0
C5997 C 0.16363 0.69221 0.96164 0.0
C5998 C 0.1213 0.6908 0.94764 0.0
C5999 C 0.17232 0.69 0.97572 0.0
C6000 C 0.08738 0.68357 0.88681 0.0
C6001 C 0.09701 0.68387 0.90057 0.0
C6002 C 0.13354 0.70421 0.91993 0.0
C6003 C 0.14761 0.69666 0.96241 0.0
C6004 C 0.13739 0.69715 0.94765 0.0
C6005 C 0.10703 0.69755 0.9053 0.0
C6006 C 0.1175 0.69768 0.91993 0.0
H6007 H 0.14387 0.70003 1.00302 0.0
H6008 H 0.12892 0.70373 0.97883 0.0
H6009 H 0.15564 0.70891 0.93306 0.0
H6010 H 0.09677 0.72156 0.87577 0.0
H6011 H 0.11404 0.72193 0.8994 0.0
C6012 C 0.37828 0.15309 0.01798 0.0
C6013 C 0.38403 0.16777 1.01204 0.0
C6014 C 0.36684 0.14314 1.00945 0.0
C6015 C 0.34124 0.1381 0.97309 0.0
H6016 H 0.36647 0.10157 0.96407 0.0
C6017 C 0.3473 0.11175 0.91036 0.0
C6018 C 0.35781 0.09949 0.90757 0.0
C6019 C 0.34217 0.11579 0.92583 0.0
C6020 C 0.35869 0.11121 0.96647 0.0
H6021 H 0.38103 0.18447 0.99363 0.0
H6022 H 0.36127 0.1669 0.97844 0.0
H6023 H 0.37213 0.1186 0.98744 0.0
H6024 H 0.36793 0.07937 0.91816 0.0
H6025 H 0.35728 0.08505 0.94464 0.0
H6026 H 0.3277 0.13071 0.95214 0.0
C6027 C 0.36544 0.16313 0.98977 0.0
C6028 C 0.36209 0.12115 0.98007 0.0
C6029 C 0.37683 0.17316 0.9984 0.0
C6030 C 0.36028 0.08925 0.91992 0.0
C6031 C 0.35447 0.09284 0.93531 0.0
C6032 C 0.33744 0.12781 0.95967 0.0
C6033 C 0.36109 0.14763 0.99473 0.0
C6034 C 0.35406 0.13518 0.98304 0.0
C6035 C 0.34683 0.10718 0.93882 0.0
C6036 C 0.34688 0.11481 0.9555 0.0
H6037 H 0.38342 0.14883 0.02867 0.0
H6038 H 0.3635 0.13137 1.01366 0.0
H6039 H 0.33467 0.14872 0.97527 0.0
H6040 H 0.34443 0.11937 0.90089 0.0
H6041 H 0.33594 0.12665 0.92752 0.0
C6042 C 0.9958 0.46034 0.89158 0.0
C6043 C 1.00666 0.44806 0.88982 0.0
C6044 C 0.98406 0.46094 0.90411 0.0
C6045 C 0.96463 0.43676 0.9392 0.0
H6046 H 0.94309 0.47572 0.94781 0.0
C6047 C 0.91611 0.44247 0.99295 0.0
C6048 C 0.90425 0.45382 0.99257 0.0
C6049 C 0.92872 0.44162 0.98118 0.0
C6050 C 0.94862 0.46449 0.9457 0.0
H6051 H 1.0121 0.42607 0.90036 0.0
H6052 H 0.99263 0.4273 0.92214 0.0
H6053 H 0.96341 0.47463 0.92722 0.0
H6054 H 0.89745 0.47333 0.97873 0.0
H6055 H 0.91848 0.47178 0.95872 0.0
H6056 H 0.9498 0.42677 0.95797 0.0
C6057 C 0.99305 0.43681 0.91391 0.0
C6058 C 0.96068 0.46384 0.93349 0.0
C6059 C 1.00478 0.43622 0.90132 0.0
C6060 C 0.90599 0.46432 0.97984 0.0
C6061 C 0.91848 0.46348 0.96815 0.0
C6062 C 0.95256 0.43744 0.9515 0.0
C6063 C 0.98219 0.44923 0.91585 0.0
C6064 C 0.96912 0.44992 0.9296 0.0
C6065 C 0.93035 0.4521 0.96828 0.0
C6066 C 0.94397 0.45131 0.95514 0.0
H6067 H 0.99632 0.46968 0.88311 0.0
H6068 H 0.97625 0.4707 0.90426 0.0
H6069 H 0.97025 0.42558 0.93718 0.0
H6070 H 0.91553 0.43395 1.00224 0.0
H6071 H 0.93729 0.43264 0.98235 0.0
C6072 C 0.69521 0.99992 0.92922 0.0
C6073 C 0.70095 1.01494 0.93613 0.0
C6074 C 0.69751 0.98574 0.93689 0.0
C6075 C 0.70132 0.97275 0.97753 0.0
H6076 H 0.70991 0.9314 0.95734 0.0
C6077 C 0.68087 0.91241 1.0039 0.0
C6078 C 0.69201 0.90062 1.0043 0.0
C6079 C 0.68452 0.92654 0.99603 0.0
C6080 C 0.70761 0.9429 0.96315 0.0
H6081 H 0.71503 0.0265 0.95577 0.0
H6082 H 0.7187 1.00192 0.96919 0.0
H6083 H 0.71227 0.95545 0.9417 0.0
H6084 H 0.71623 0.89503 0.9979 0.0
H6085 H 0.72235 0.91946 0.98343 0.0
H6086 H 0.69605 0.96019 0.99877 0.0
C6087 C 0.71216 1.00113 0.95801 0.0
C6088 C 0.70887 0.95664 0.95418 0.0
C6089 C 0.70999 1.01525 0.95032 0.0
C6090 C 0.70718 0.90362 0.99727 0.0
C6091 C 0.71073 0.91764 0.98909 0.0
C6092 C 0.69978 0.95902 0.98637 0.0
C6093 C 0.70552 0.98626 0.95167 0.0
C6094 C 0.70556 0.97171 0.96124 0.0
C6095 C 0.69936 0.92919 0.98829 0.0
C6096 C 0.70266 0.94391 0.97924 0.0
H6097 H 0.68818 0.99916 0.91835 0.0
H6098 H 0.69221 0.97447 0.93169 0.0
H6099 H 0.69856 0.98413 0.98333 0.0
H6100 H 0.66916 0.91054 1.00937 0.0
H6101 H 0.67552 0.93523 0.99564 0.0
C6102 C 1.00231 0.70769 0.15552 0.0
C6103 C 0.01773 0.71102 0.14917 0.0
C6104 C 0.98862 0.71061 0.14688 0.0
C6105 C 0.97449 0.72837 0.10958 0.0
H6106 H 0.94152 0.69359 0.11145 0.0
C6107 C 0.91524 0.72507 0.07316 0.0
C6108 C 0.90838 0.70981 0.06817 0.0
C6109 C 0.92903 0.72667 0.08263 0.0
C6110 C 0.9507 0.70329 0.1106 0.0
H6111 H 0.0307 0.72171 0.12944 0.0
H6112 H 1.00701 0.72585 0.11403 0.0
H6113 H 0.96386 0.69499 0.12984 0.0
H6114 H 0.91131 0.68434 0.0678 0.0
H6115 H 0.93581 0.68704 0.08391 0.0
H6116 H 0.96156 0.73615 0.08973 0.0
C6117 C 1.00538 0.72112 0.12574 0.0
C6118 C 0.96341 0.70432 0.12144 0.0
C6119 C 0.01905 0.71846 0.1345 0.0
C6120 C 0.91629 0.69621 0.07164 0.0
C6121 C 0.93018 0.6978 0.08105 0.0
C6122 C 0.96181 0.72724 0.0986 0.0
C6123 C 0.98997 0.71667 0.13154 0.0
C6124 C 0.97561 0.71675 0.12099 0.0
C6125 C 0.93639 0.71301 0.08713 0.0
C6126 C 0.94988 0.71453 0.09883 0.0
H6127 H 1.00071 0.70202 0.16678 0.0
H6128 H 0.97696 0.70752 0.15201 0.0
H6129 H 0.9835 0.73826 0.10898 0.0
H6130 H 0.90944 0.73578 0.0704 0.0
H6131 H 0.93342 0.73857 0.08704 0.0
C6132 C 0.42059 1.00346 0.18105 0.0
C6133 C 0.4342 1.01427 0.18375 0.0
C6134 C 0.42003 0.99109 0.16862 0.0
C6135 C 0.44235 0.97508 0.13076 0.0
H6136 H 0.41305 0.93774 0.13522 0.0
C6137 C 0.44224 0.91784 0.08415 0.0
C6138 C 0.42835 0.90721 0.08217 0.0
C6139 C 0.44309 0.93101 0.09586 0.0
C6140 C 0.42123 0.94807 0.13339 0.0
H6141 H 0.45785 0.02029 0.1743 0.0
H6142 H 0.45707 0.99898 0.15293 0.0
H6143 H 0.41429 0.95929 0.15586 0.0
H6144 H 0.40409 0.90342 0.09094 0.0
H6145 H 0.40532 0.92605 0.11072 0.0
H6146 H 0.44941 0.96363 0.10831 0.0
C6147 C 0.44656 0.99993 0.16044 0.0
C6148 C 0.42196 0.96077 0.14553 0.0
C6149 C 0.44708 1.01237 0.17291 0.0
C6150 C 0.41516 0.91092 0.09205 0.0
C6151 C 0.41595 0.92408 0.10366 0.0
C6152 C 0.44165 0.96232 0.11861 0.0
C6153 C 0.43306 0.98871 0.15797 0.0
C6154 C 0.43248 0.97478 0.14464 0.0
C6155 C 0.43003 0.93444 0.1062 0.0
C6156 C 0.431 0.9484 0.11946 0.0
H6157 H 0.41014 1.00458 0.18861 0.0
H6158 H 0.40908 0.98345 0.16738 0.0
H6159 H 0.45059 0.98537 0.12899 0.0
H6160 H 0.45276 0.91567 0.07696 0.0
H6161 H 0.45429 0.93826 0.09702 0.0
C6162 C 0.69319 0.1836 0.11323 0.0
C6163 C 0.69627 0.17702 0.0977 0.0
C6164 C 0.69423 0.17434 0.12696 0.0
C6165 C 0.69229 0.13102 0.13832 0.0
H6166 H 0.7079 0.14775 0.17981 0.0
C6167 C 0.68442 0.09373 0.19612 0.0
C6168 C 0.69702 0.09465 0.20738 0.0
C6169 C 0.68471 0.10381 0.18302 0.0
C6170 C 0.70352 0.14277 0.16832 0.0
H6171 H 0.70398 0.15554 0.08511 0.0
H6172 H 0.70567 0.13977 0.10849 0.0
H6173 H 0.70805 0.1654 0.15731 0.0
H6174 H 0.7204 0.10645 0.21256 0.0
H6175 H 0.72065 0.12438 0.19036 0.0
H6176 H 0.68761 0.10848 0.14926 0.0
C6177 C 0.7021 0.15194 0.11022 0.0
C6178 C 0.70348 0.15303 0.15534 0.0
C6179 C 0.70123 0.16116 0.09667 0.0
C6180 C 0.71015 0.10573 0.20466 0.0
C6181 C 0.71032 0.11602 0.19175 0.0
C6182 C 0.69206 0.12088 0.15132 0.0
C6183 C 0.69824 0.15811 0.12567 0.0
C6184 C 0.69798 0.14736 0.13997 0.0
C6185 C 0.69757 0.11537 0.18064 0.0
C6186 C 0.69774 0.12646 0.16663 0.0
H6187 H 0.68919 0.19563 0.11473 0.0
H6188 H 0.69119 0.17973 0.13853 0.0
H6189 H 0.68776 0.12601 0.12689 0.0
H6190 H 0.67413 0.08533 0.19753 0.0
H6191 H 0.6746 0.10274 0.17491 0.0
C6192 C 0.63239 0.68594 0.89197 0.0
C6193 C 0.61821 0.67823 0.88544 0.0
C6194 C 0.64692 0.67847 0.89094 0.0
C6195 C 0.66638 0.64229 0.87265 0.0
H6196 H 0.69249 0.6485 0.91087 0.0
C6197 C 0.72532 0.61033 0.88035 0.0
C6198 C 0.72937 0.60621 0.89579 0.0
C6199 C 0.71201 0.61918 0.87791 0.0
C6200 C 0.68524 0.64643 0.90018 0.0
H6201 H 0.60878 0.6572 0.87125 0.0
H6202 H 0.63359 0.64388 0.87033 0.0
H6203 H 0.66965 0.66442 0.90804 0.0
H6204 H 0.72207 0.6071 0.9206 0.0
H6205 H 0.69857 0.62224 0.91639 0.0
H6206 H 0.68155 0.62362 0.86526 0.0
C6207 C 0.63369 0.65576 0.87614 0.0
C6208 C 0.67225 0.65587 0.89837 0.0
C6209 C 0.61927 0.66333 0.87693 0.0
C6210 C 0.71933 0.61031 0.90862 0.0
C6211 C 0.70597 0.61914 0.90619 0.0
C6212 C 0.67927 0.63269 0.87457 0.0
C6213 C 0.64767 0.66297 0.88356 0.0
C6214 C 0.66246 0.65385 0.88467 0.0
C6215 C 0.70232 0.62403 0.89085 0.0
C6216 C 0.68877 0.63448 0.88848 0.0
H6217 H 0.63217 0.69743 0.89854 0.0
H6218 H 0.65748 0.68472 0.89635 0.0
H6219 H 0.65941 0.6405 0.86176 0.0
H6220 H 0.73274 0.60708 0.8702 0.0
H6221 H 0.70972 0.62273 0.86594 0.0
C6222 C 0.46562 0.59584 0.90327 0.0
C6223 C 0.45006 0.59593 0.90994 0.0
C6224 C 0.47573 0.60992 0.90285 0.0
C6225 C 0.47759 0.65445 0.90516 0.0
H6226 H 0.52087 0.65103 0.92061 0.0
C6227 C 0.52699 0.70701 0.90244 0.0
C6228 C 0.53592 0.71101 0.9165 0.0
C6229 C 0.51703 0.69279 0.9008 0.0
C6230 C 0.50884 0.65225 0.91629 0.0
H6231 H 0.43271 0.61159 0.92032 0.0
H6232 H 0.45025 0.63634 0.91915 0.0
H6233 H 0.50199 0.62732 0.91888 0.0
H6234 H 0.54225 0.70243 0.93935 0.0
H6235 H 0.52504 0.6774 0.93642 0.0
H6236 H 0.48455 0.67933 0.90236 0.0
C6237 C 0.45467 0.62514 0.9145 0.0
C6238 C 0.498 0.63859 0.91518 0.0
C6239 C 0.44456 0.61092 0.91511 0.0
C6240 C 0.53544 0.69982 0.92843 0.0
C6241 C 0.52554 0.68547 0.92674 0.0
C6242 C 0.48855 0.66806 0.90598 0.0
C6243 C 0.47061 0.62476 0.90882 0.0
C6244 C 0.48216 0.63947 0.9097 0.0
C6245 C 0.51585 0.68192 0.91305 0.0
C6246 C 0.50432 0.66722 0.9117 0.0
H6247 H 0.47023 0.58471 0.89867 0.0
H6248 H 0.48771 0.60914 0.89799 0.0
H6249 H 0.46558 0.65563 0.90077 0.0
H6250 H 0.52744 0.7151 0.89278 0.0
H6251 H 0.5101 0.69038 0.88993 0.0
C6252 C 0.40987 0.49878 0.9377 0.0
C6253 C 0.4007 0.50232 0.92434 0.0
C6254 C 0.42154 0.487 0.93667 0.0
C6255 C 0.44352 0.459 0.906 0.0
H6256 H 0.45853 0.44063 0.94407 0.0
C6257 C 0.48413 0.40336 0.90088 0.0
C6258 C 0.49466 0.39986 0.91322 0.0
C6259 C 0.47346 0.4159 0.90251 0.0
C6260 C 0.45473 0.44558 0.93317 0.0
H6261 H 0.39787 0.49618 0.89909 0.0
H6262 H 0.41723 0.47583 0.89726 0.0
H6263 H 0.43934 0.46128 0.94631 0.0
H6264 H 0.50196 0.40808 0.93718 0.0
H6265 H 0.48375 0.43002 0.94002 0.0
H6266 H 0.45882 0.44329 0.89287 0.0
C6267 C 0.41579 0.48203 0.90877 0.0
C6268 C 0.44345 0.45774 0.93446 0.0
C6269 C 0.40424 0.49382 0.90983 0.0
C6270 C 0.49422 0.41007 0.92727 0.0
C6271 C 0.48345 0.42273 0.92895 0.0
C6272 C 0.45469 0.44682 0.90472 0.0
C6273 C 0.42484 0.47806 0.92216 0.0
C6274 C 0.43736 0.46488 0.9209 0.0
C6275 C 0.47263 0.42601 0.91661 0.0
C6276 C 0.46066 0.43961 0.91823 0.0
H6277 H 0.40777 0.5049 0.94918 0.0
H6278 H 0.42801 0.48502 0.94744 0.0
H6279 H 0.43996 0.46391 0.89501 0.0
H6280 H 0.48405 0.39622 0.8897 0.0
H6281 H 0.46556 0.41736 0.89259 0.0
C6282 C 0.58908 0.43617 0.87873 0.0
C6283 C 0.57397 0.44094 0.8743 0.0
C6284 C 0.60311 0.44552 0.87543 0.0
C6285 C 0.61939 0.48035 0.85259 0.0
H6286 H 0.65094 0.4844 0.8866 0.0
C6287 C 0.66734 0.5334 0.86146 0.0
C6288 C 0.6821 0.53059 0.86844 0.0
C6289 C 0.65542 0.52095 0.859 0.0
C6290 C 0.64244 0.4832 0.87681 0.0
H6291 H 0.56205 0.45898 0.86204 0.0
H6292 H 0.58633 0.47565 0.8571 0.0
H6293 H 0.62767 0.46567 0.8886 0.0
H6294 H 0.6964 0.51223 0.87706 0.0
H6295 H 0.67577 0.49039 0.87235 0.0
H6296 H 0.63403 0.49846 0.84115 0.0
C6297 C 0.5874 0.46453 0.86289 0.0
C6298 C 0.62903 0.47241 0.87795 0.0
C6299 C 0.57338 0.45506 0.86599 0.0
C6300 C 0.68519 0.51479 0.87161 0.0
C6301 C 0.67327 0.50232 0.86913 0.0
C6302 C 0.63281 0.49126 0.8515 0.0
C6303 C 0.60245 0.46004 0.86782 0.0
C6304 C 0.61723 0.47089 0.86593 0.0
C6305 C 0.65802 0.50538 0.86341 0.0
C6306 C 0.64445 0.49288 0.86366 0.0
H6307 H 0.59012 0.42548 0.88524 0.0
H6308 H 0.61449 0.44146 0.8791 0.0
H6309 H 0.6107 0.47938 0.84298 0.0
H6310 H 0.66467 0.54544 0.85872 0.0
H6311 H 0.64384 0.52378 0.8546 0.0
C6312 C 0.57261 0.41638 0.15637 0.0
C6313 C 0.5721 0.40537 0.16847 0.0
C6314 C 0.58231 0.43083 0.15802 0.0
C6315 C 0.61878 0.44879 0.17907 0.0
H6316 H 0.60494 0.48921 0.16572 0.0
C6317 C 0.66214 0.50609 0.16993 0.0
C6318 C 0.65646 0.52104 0.17495 0.0
C6319 C 0.65215 0.49183 0.17054 0.0
C6320 C 0.60901 0.47803 0.16956 0.0
H6321 H 0.58024 0.40167 0.1924 0.0
H6322 H 0.59727 0.42659 0.19519 0.0
H6323 H 0.58634 0.4653 0.16399 0.0
H6324 H 0.6361 0.5322 0.18591 0.0
H6325 H 0.61881 0.50764 0.18661 0.0
H6326 H 0.64154 0.46151 0.18444 0.0
C6327 C 0.59053 0.42395 0.18424 0.0
C6328 C 0.59835 0.46427 0.16844 0.0
C6329 C 0.58076 0.40962 0.18262 0.0
C6330 C 0.64083 0.52108 0.18143 0.0
C6331 C 0.63085 0.50694 0.18187 0.0
C6332 C 0.62955 0.4625 0.17992 0.0
C6333 C 0.59173 0.43463 0.17183 0.0
C6334 C 0.60305 0.44942 0.17318 0.0
C6335 C 0.63618 0.49214 0.17607 0.0
C6336 C 0.62482 0.47736 0.17521 0.0
H6337 H 0.56597 0.41356 0.14538 0.0
H6338 H 0.58287 0.43877 0.14824 0.0
H6339 H 0.62288 0.43759 0.18279 0.0
H6340 H 0.67405 0.50548 0.16485 0.0
H6341 H 0.6567 0.48065 0.16601 0.0
C6342 C 0.61669 0.70875 0.15701 0.0
C6343 C 0.61454 0.71735 0.17182 0.0
C6344 C 0.62733 0.69603 0.15529 0.0
C6345 C 0.65284 0.66886 0.17991 0.0
H6346 H 0.6714 0.65737 0.13881 0.0
C6347 C 0.70369 0.62242 0.17478 0.0
C6348 C 0.70689 0.61373 0.16029 0.0
C6349 C 0.69236 0.6344 0.17587 0.0
C6350 C 0.66634 0.66011 0.15047 0.0
H6351 H 0.62184 0.71804 0.19657 0.0
H6352 H 0.64023 0.69678 0.1937 0.0
H6353 H 0.6526 0.67841 0.14113 0.0
H6354 H 0.69961 0.61113 0.1355 0.0
H6355 H 0.67982 0.63155 0.1373 0.0
H6356 H 0.66646 0.65061 0.18928 0.0
C6357 C 0.63377 0.69955 0.18317 0.0
C6358 C 0.65529 0.67247 0.15184 0.0
C6359 C 0.62319 0.71217 0.18484 0.0
C6360 C 0.69773 0.61737 0.14695 0.0
C6361 C 0.68635 0.62943 0.14801 0.0
C6362 C 0.66386 0.65656 0.17855 0.0
C6363 C 0.63634 0.69105 0.16832 0.0
C6364 C 0.6482 0.67734 0.16663 0.0
C6365 C 0.68333 0.63843 0.16251 0.0
C6366 C 0.67107 0.65177 0.16381 0.0
H6367 H 0.61039 0.71208 0.14657 0.0
H6368 H 0.62835 0.69003 0.1436 0.0
H6369 H 0.64778 0.67147 0.19159 0.0
H6370 H 0.71017 0.62006 0.18546 0.0
H6371 H 0.69103 0.64077 0.18733 0.0
C6372 C 0.43883 0.585 0.2208 0.0
C6373 C 0.42429 0.58731 0.21312 0.0
C6374 C 0.45057 0.59764 0.22313 0.0
C6375 C 0.46393 0.63487 0.20429 0.0
H6376 H 0.49458 0.63985 0.2391 0.0
C6377 C 0.51744 0.68205 0.20297 0.0
C6378 C 0.53238 0.67717 0.20774 0.0
C6379 C 0.50325 0.67282 0.20606 0.0
C6380 C 0.48619 0.63857 0.22923 0.0
H6381 H 0.41017 0.60501 0.20304 0.0
H6382 H 0.43048 0.62724 0.2075 0.0
H6383 H 0.47126 0.62076 0.24075 0.0
H6384 H 0.54389 0.65918 0.22045 0.0
H6385 H 0.51935 0.64284 0.22526 0.0
H6386 H 0.47901 0.65219 0.19249 0.0
C6387 C 0.43296 0.61553 0.2114 0.0
C6388 C 0.47278 0.62764 0.23021 0.0
C6389 C 0.4212 0.60286 0.20906 0.0
C6390 C 0.53266 0.66317 0.21628 0.0
C6391 C 0.5185 0.65388 0.21926 0.0
C6392 C 0.47733 0.64573 0.20329 0.0
C6393 C 0.44803 0.61293 0.21787 0.0
C6394 C 0.46154 0.62555 0.21768 0.0
C6395 C 0.50362 0.6584 0.21392 0.0
C6396 C 0.48874 0.64764 0.21566 0.0
H6397 H 0.44151 0.57315 0.22415 0.0
H6398 H 0.46201 0.59514 0.22812 0.0
H6399 H 0.45576 0.63333 0.19424 0.0
H6400 H 0.51672 0.69272 0.19633 0.0
H6401 H 0.49199 0.67687 0.20203 0.0
C6402 C 0.38407 0.50782 0.2012 0.0
C6403 C 0.37894 0.50973 0.18552 0.0
C6404 C 0.39781 0.49973 0.20403 0.0
C6405 C 0.42358 0.47035 0.18331 0.0
H6406 H 0.45059 0.47923 0.22064 0.0
C6407 C 0.47625 0.43127 0.19315 0.0
C6408 C 0.49068 0.43925 0.19876 0.0
C6409 C 0.46182 0.43889 0.19411 0.0
C6410 C 0.44329 0.47661 0.21005 0.0
H6411 H 0.38492 0.50616 0.16051 0.0
H6412 H 0.40916 0.49234 0.1653 0.0
H6413 H 0.42857 0.496 0.21621 0.0
H6414 H 0.50066 0.46102 0.2114 0.0
H6415 H 0.47603 0.47459 0.21204 0.0
H6416 H 0.43872 0.45164 0.17659 0.0
C6417 C 0.40224 0.49645 0.1755 0.0
C6418 C 0.43046 0.48616 0.20761 0.0
C6419 C 0.38846 0.50451 0.1727 0.0
C6420 C 0.48998 0.45463 0.20637 0.0
C6421 C 0.47565 0.46237 0.20703 0.0
C6422 C 0.43652 0.46099 0.18561 0.0
C6423 C 0.40684 0.49347 0.1912 0.0
C6424 C 0.42051 0.48329 0.19408 0.0
C6425 C 0.46141 0.45484 0.20043 0.0
C6426 C 0.44672 0.46402 0.19893 0.0
H6427 H 0.37715 0.51216 0.21131 0.0
H6428 H 0.40084 0.49775 0.21628 0.0
H6429 H 0.41601 0.4674 0.17298 0.0
H6430 H 0.47616 0.4194 0.1873 0.0
H6431 H 0.45105 0.43239 0.18942 0.0
C6432 C 0.91134 0.62277 0.65338 0.0
C6433 C 0.90532 0.60757 0.6472 0.0
C6434 C 0.90853 0.63666 0.6454 0.0
C6435 C 0.90217 0.64763 0.60422 0.0
H6436 H 0.89864 0.69057 0.62318 0.0
C6437 C 0.93058 0.70552 0.57931 0.0
C6438 C 0.92082 0.71808 0.57671 0.0
C6439 C 0.92447 0.69178 0.58661 0.0
C6440 C 0.89934 0.67861 0.6177 0.0
H6441 H 0.89019 0.59531 0.62877 0.0
H6442 H 0.88533 0.61939 0.61494 0.0
H6443 H 0.89532 0.6674 0.64001 0.0
H6444 H 0.8966 0.72578 0.57904 0.0
H6445 H 0.88605 0.70193 0.59282 0.0
H6446 H 0.90715 0.65888 0.58216 0.0
C6447 C 0.89255 0.62059 0.6257 0.0
C6448 C 0.89761 0.66536 0.62735 0.0
C6449 C 0.89534 0.60677 0.63364 0.0
C6450 C 0.90446 0.71632 0.58097 0.0
C6451 C 0.89844 0.70272 0.58887 0.0
C6452 C 0.90414 0.66084 0.59469 0.0
C6453 C 0.89964 0.63565 0.63107 0.0
C6454 C 0.89935 0.64971 0.62078 0.0
C6455 C 0.90851 0.69043 0.59194 0.0
C6456 C 0.90309 0.67648 0.60136 0.0
H6457 H 0.91906 0.62383 0.66378 0.0
H6458 H 0.91419 0.64804 0.64989 0.0
H6459 H 0.90377 0.63582 0.59874 0.0
H6460 H 0.94319 0.70655 0.57614 0.0
H6461 H 0.93247 0.68249 0.58879 0.0
C6462 C 0.43647 0.93384 0.60614 0.0
C6463 C 0.44176 0.92696 0.59148 0.0
C6464 C 0.44524 0.93267 0.62041 0.0
C6465 C 0.47874 0.91082 0.63818 0.0
H6466 H 0.48198 0.94744 0.66863 0.0
C6467 C 0.51334 0.90917 0.69842 0.0
C6468 C 0.52124 0.92333 0.70514 0.0
C6469 C 0.50357 0.90936 0.68481 0.0
C6470 C 0.4814 0.93712 0.66022 0.0
H6471 H 0.46013 0.91281 0.58072 0.0
H6472 H 0.47522 0.91078 0.60515 0.0
H6473 H 0.46479 0.94779 0.64521 0.0
H6474 H 0.5256 0.94876 0.70224 0.0
H6475 H 0.50878 0.94917 0.67832 0.0
H6476 H 0.49572 0.90035 0.65285 0.0
C6477 C 0.46431 0.91705 0.60589 0.0
C6478 C 0.47124 0.93721 0.6468 0.0
C6479 C 0.45563 0.91828 0.59172 0.0
C6480 C 0.51959 0.93764 0.69746 0.0
C6481 C 0.50975 0.93787 0.68381 0.0
C6482 C 0.4889 0.91074 0.65155 0.0
C6483 C 0.45953 0.92449 0.6205 0.0
C6484 C 0.46976 0.92409 0.63543 0.0
C6485 C 0.5014 0.92374 0.67729 0.0
C6486 C 0.4905 0.92391 0.66285 0.0
H6487 H 0.42596 0.94074 0.60646 0.0
H6488 H 0.44088 0.93837 0.63135 0.0
H6489 H 0.47793 0.90032 0.63 0.0
H6490 H 0.51463 0.89786 0.70378 0.0
H6491 H 0.49739 0.89819 0.68045 0.0
C6492 C 0.23253 0.44349 0.58581 0.0
C6493 C 0.22258 0.44701 0.57324 0.0
C6494 C 0.24363 0.45528 0.5924 0.0
C6495 C 0.24046 0.49667 0.60113 0.0
H6496 H 0.27907 0.49396 0.62582 0.0
C6497 C 0.24306 0.52919 0.66172 0.0
C6498 C 0.25021 0.52126 0.67396 0.0
C6499 C 0.24676 0.5257 0.64566 0.0
C6500 C 0.2681 0.49491 0.61927 0.0
H6501 H 0.21753 0.46462 0.55636 0.0
H6502 H 0.23698 0.48527 0.5678 0.0
H6503 H 0.27334 0.47506 0.60314 0.0
H6504 H 0.26913 0.50548 0.67846 0.0
H6505 H 0.2737 0.49769 0.65106 0.0
H6506 H 0.23385 0.51486 0.61774 0.0
C6507 C 0.23624 0.4735 0.57263 0.0
C6508 C 0.26502 0.48418 0.60602 0.0
C6509 C 0.22513 0.46173 0.56609 0.0
C6510 C 0.26239 0.51105 0.66955 0.0
C6511 C 0.26542 0.50687 0.6535 0.0
C6512 C 0.2432 0.50698 0.61459 0.0
C6513 C 0.24473 0.47076 0.58655 0.0
C6514 C 0.25078 0.48452 0.59728 0.0
C6515 C 0.25694 0.51342 0.64121 0.0
C6516 C 0.25661 0.50572 0.62451 0.0
H6517 H 0.23066 0.4322 0.59151 0.0
H6518 H 0.24994 0.45283 0.60317 0.0
H6519 H 0.2293 0.49723 0.59471 0.0
H6520 H 0.23387 0.53745 0.66422 0.0
H6521 H 0.24079 0.53209 0.63683 0.0
C6522 C 0.59963 0.16258 0.67875 0.0
C6523 C 0.60052 0.17444 0.69161 0.0
C6524 C 0.61155 0.16194 0.66624 0.0
C6525 C 0.65285 0.18304 0.65247 0.0
H6526 H 0.64804 0.15266 0.61609 0.0
C6527 C 0.70182 0.18488 0.59998 0.0
C6528 C 0.70383 0.17179 0.58884 0.0
C6529 C 0.68927 0.18491 0.6117 0.0
C6530 C 0.64994 0.1613 0.6261 0.0
H6531 H 0.61515 0.19551 0.69981 0.0
H6532 H 0.63537 0.19445 0.67915 0.0
H6533 H 0.62742 0.15317 0.63672 0.0
H6534 H 0.69272 0.14839 0.58174 0.0
H6535 H 0.67115 0.14828 0.60184 0.0
H6536 H 0.6754 0.19103 0.64207 0.0
C6537 C 0.62577 0.18514 0.67846 0.0
C6538 C 0.63771 0.16164 0.63831 0.0
C6539 C 0.61389 0.18576 0.69083 0.0
C6540 C 0.69202 0.15883 0.58988 0.0
C6541 C 0.67939 0.15881 0.60169 0.0
C6542 C 0.66501 0.1827 0.64032 0.0
C6543 C 0.62524 0.17316 0.66562 0.0
C6544 C 0.63862 0.17258 0.65204 0.0
C6545 C 0.67762 0.17181 0.61323 0.0
C6546 C 0.66409 0.17189 0.62658 0.0
H6547 H 0.58971 0.15353 0.67839 0.0
H6548 H 0.60989 0.15238 0.65708 0.0
H6549 H 0.65501 0.1917 0.66238 0.0
H6550 H 0.7101 0.19539 0.59965 0.0
H6551 H 0.6888 0.19555 0.61954 0.0
C6552 C 0.91405 0.43558 0.46865 0.0
C6553 C 0.91148 0.4422 0.48426 0.0
C6554 C 0.91343 0.44506 0.45507 0.0
C6555 C 0.91806 0.48832 0.44412 0.0
H6556 H 0.89986 0.47316 0.40317 0.0
C6557 C 0.92624 0.52507 0.38577 0.0
C6558 C 0.91302 0.52498 0.37534 0.0
C6559 C 0.92588 0.5152 0.39905 0.0
C6560 C 0.905 0.47768 0.41452 0.0
H6561 H 0.90504 0.46402 0.49719 0.0
H6562 H 0.90419 0.48021 0.47404 0.0
H6563 H 0.89913 0.45526 0.42545 0.0
H6564 H 0.88848 0.5154 0.37203 0.0
H6565 H 0.88808 0.49779 0.39438 0.0
H6566 H 0.92406 0.51067 0.4332 0.0
C6567 C 0.90702 0.46781 0.47215 0.0
C6568 C 0.90469 0.46728 0.42735 0.0
C6569 C 0.90742 0.45837 0.48555 0.0
C6570 C 0.89922 0.51525 0.37917 0.0
C6571 C 0.89894 0.50518 0.39218 0.0
C6572 C 0.91864 0.4986 0.43123 0.0
C6573 C 0.91038 0.46155 0.45663 0.0
C6574 C 0.91109 0.47241 0.4425 0.0
C6575 C 0.91232 0.50476 0.40233 0.0
C6576 C 0.91202 0.49357 0.41616 0.0
H6577 H 0.91732 0.4233 0.46698 0.0
H6578 H 0.91603 0.43963 0.4434 0.0
H6579 H 0.92328 0.49286 0.45542 0.0
H6580 H 0.93704 0.53251 0.38346 0.0
H6581 H 0.93644 0.51544 0.40651 0.0
C6582 C 0.61468 0.89019 0.43049 0.0
C6583 C 0.60232 0.90066 0.43283 0.0
C6584 C 0.62351 0.88567 0.44347 0.0
C6585 C 0.63591 0.90357 0.48305 0.0
H6586 H 0.66133 0.86659 0.48342 0.0
C6587 C 0.6917 0.90592 0.52339 0.0
C6588 C 0.70554 0.9016 0.51502 0.0
C6589 C 0.67631 0.90147 0.51712 0.0
C6590 C 0.65436 0.87703 0.48355 0.0
H6591 H 0.58847 0.91328 0.4507 0.0
H6592 H 0.60338 0.90486 0.47349 0.0
H6593 H 0.63867 0.86633 0.46514 0.0
H6594 H 0.71364 0.88617 0.49546 0.0
H6595 H 0.68738 0.87884 0.48438 0.0
H6596 H 0.65195 0.91459 0.50087 0.0
C6597 C 0.60657 0.90045 0.46158 0.0
C6598 C 0.6413 0.87687 0.47303 0.0
C6599 C 0.59776 0.905 0.44855 0.0
C6600 C 0.70338 0.89059 0.50174 0.0
C6601 C 0.68814 0.88614 0.49547 0.0
C6602 C 0.64895 0.90374 0.49354 0.0
C6603 C 0.62019 0.89152 0.45915 0.0
C6604 C 0.63216 0.89033 0.47227 0.0
C6605 C 0.67439 0.89229 0.50251 0.0
C6606 C 0.65872 0.8907 0.49362 0.0
H6607 H 0.61865 0.88692 0.41848 0.0
H6608 H 0.63388 0.87885 0.44098 0.0
H6609 H 0.6294 0.9143 0.48274 0.0
H6610 H 0.69252 0.91325 0.53431 0.0
H6611 H 0.66595 0.90581 0.52337 0.0
C6612 C 0.1848 0.61178 0.40285 0.0
C6613 C 0.17066 0.60194 0.39938 0.0
C6614 C 0.18548 0.62434 0.41507 0.0
C6615 C 0.16327 0.64198 0.45188 0.0
H6616 H 0.19242 0.67912 0.44591 0.0
C6617 C 0.16533 0.69943 0.4985 0.0
C6618 C 0.17898 0.71049 0.4994 0.0
C6619 C 0.164 0.68618 0.48686 0.0
C6620 C 0.18431 0.66887 0.44822 0.0
H6621 H 0.14616 0.59774 0.40739 0.0
H6622 H 0.14726 0.61928 0.42868 0.0
H6623 H 0.19078 0.65703 0.42584 0.0
H6624 H 0.20234 0.71492 0.4887 0.0
H6625 H 0.20028 0.69238 0.469 0.0
H6626 H 0.15681 0.65383 0.47431 0.0
C6627 C 0.15802 0.61745 0.42177 0.0
C6628 C 0.18334 0.6559 0.43639 0.0
C6629 C 0.15734 0.60488 0.4094 0.0
C6630 C 0.1914 0.70717 0.48841 0.0
C6631 C 0.19013 0.69399 0.47684 0.0
C6632 C 0.1643 0.65496 0.46381 0.0
C6633 C 0.17206 0.62778 0.42483 0.0
C6634 C 0.17285 0.64196 0.43781 0.0
C6635 C 0.17632 0.68309 0.47548 0.0
C6636 C 0.17493 0.66886 0.46244 0.0
H6637 H 0.19555 0.60984 0.39593 0.0
H6638 H 0.19677 0.63133 0.41688 0.0
H6639 H 0.15505 0.63173 0.45395 0.0
H6640 H 0.15537 0.70123 0.50659 0.0
H6641 H 0.15302 0.67854 0.48668 0.0
C6642 C 0.52564 0.25404 0.42281 0.0
C6643 C 0.51767 0.25809 0.40903 0.0
C6644 C 0.52221 0.26149 0.43771 0.0
C6645 C 0.49208 0.28893 0.45706 0.0
H6646 H 0.48837 0.25468 0.48633 0.0
C6647 C 0.43946 0.28312 0.5023 0.0
C6648 C 0.43205 0.26747 0.50228 0.0
C6649 C 0.45457 0.28597 0.49518 0.0
C6650 C 0.48925 0.26439 0.47828 0.0
H6651 H 0.50229 0.27512 0.39963 0.0
H6652 H 0.4952 0.28692 0.42518 0.0
H6653 H 0.50824 0.25401 0.46551 0.0
H6654 H 0.43481 0.24264 0.49444 0.0
H6655 H 0.46074 0.24752 0.48222 0.0
H6656 H 0.47164 0.29815 0.46895 0.0
C6657 C 0.5042 0.27824 0.425 0.0
C6658 C 0.50097 0.26421 0.46635 0.0
C6659 C 0.50808 0.27123 0.41014 0.0
C6660 C 0.44023 0.25479 0.49513 0.0
C6661 C 0.45524 0.25761 0.48811 0.0
C6662 C 0.48 0.28882 0.46872 0.0
C6663 C 0.51028 0.27266 0.43919 0.0
C6664 C 0.50187 0.27589 0.45481 0.0
C6665 C 0.4626 0.27322 0.48791 0.0
C6666 C 0.47783 0.27597 0.47879 0.0
H6667 H 0.53342 0.2442 0.42238 0.0
H6668 H 0.52801 0.25749 0.44814 0.0
H6669 H 0.49287 0.29872 0.44913 0.0
H6670 H 0.4336 0.29317 0.50782 0.0
H6671 H 0.4599 0.29814 0.49528 0.0
C6672 C 0.59477 0.86694 0.66998 0.0
C6673 C 0.57859 0.8675 0.66567 0.0
C6674 C 0.60545 0.85958 0.6596 0.0
C6675 C 0.61236 0.8346 0.62367 0.0
H6676 H 0.64209 0.87014 0.61291 0.0
C6677 C 0.67417 0.83637 0.58917 0.0
C6678 C 0.6752 0.84737 0.57703 0.0
C6679 C 0.66011 0.83435 0.59821 0.0
C6680 C 0.63383 0.86013 0.61577 0.0
H6681 H 0.56053 0.85916 0.64806 0.0
H6682 H 0.57941 0.84637 0.62976 0.0
H6683 H 0.62252 0.87398 0.63419 0.0
H6684 H 0.66173 0.86336 0.5636 0.0
H6685 H 0.63745 0.86023 0.5798 0.0
H6686 H 0.62416 0.82071 0.60526 0.0
C6687 C 0.58372 0.85166 0.64117 0.0
C6688 C 0.62277 0.86228 0.62801 0.0
C6689 C 0.57299 0.8591 0.65155 0.0
C6690 C 0.66143 0.8551 0.57312 0.0
C6691 C 0.64749 0.85319 0.58224 0.0
C6692 C 0.62376 0.83235 0.61153 0.0
C6693 C 0.60014 0.85262 0.64479 0.0
C6694 C 0.61199 0.84956 0.6321 0.0
C6695 C 0.64698 0.84333 0.59524 0.0
C6696 C 0.63447 0.84518 0.6075 0.0
H6697 H 0.59953 0.87338 0.68069 0.0
H6698 H 0.6181 0.86041 0.6626 0.0
H6699 H 0.60402 0.82471 0.62661 0.0
H6700 H 0.68457 0.83027 0.59248 0.0
H6701 H 0.65997 0.82683 0.60834 0.0
C6702 C 0.59729 0.21133 0.38282 0.0
C6703 C 0.58897 0.19711 0.37679 0.0
C6704 C 0.60753 0.21131 0.3961 0.0
C6705 C 0.63045 0.18408 0.42015 0.0
H6706 H 0.63147 0.21941 0.4521 0.0
C6707 C 0.67337 0.18647 0.47543 0.0
C6708 C 0.66681 0.19157 0.49022 0.0
C6709 C 0.66523 0.18832 0.46097 0.0
C6710 C 0.63135 0.20937 0.44337 0.0
H6711 H 0.58475 0.17173 0.38019 0.0
H6712 H 0.60253 0.17162 0.40332 0.0
H6713 H 0.61428 0.21979 0.42874 0.0
H6714 H 0.64694 0.20344 0.50115 0.0
H6715 H 0.63289 0.20662 0.47632 0.0
H6716 H 0.64718 0.17344 0.43501 0.0
C6717 C 0.60134 0.18283 0.39771 0.0
C6718 C 0.62156 0.20968 0.42979 0.0
C6719 C 0.59098 0.1829 0.38452 0.0
C6720 C 0.65235 0.19928 0.49003 0.0
C6721 C 0.64429 0.2012 0.47567 0.0
C6722 C 0.64028 0.18378 0.43373 0.0
C6723 C 0.60982 0.19703 0.40374 0.0
C6724 C 0.62079 0.19696 0.41801 0.0
C6725 C 0.65036 0.19546 0.46088 0.0
C6726 C 0.64079 0.19634 0.4457 0.0
H6727 H 0.59588 0.22251 0.37723 0.0
H6728 H 0.61389 0.22248 0.40021 0.0
H6729 H 0.63043 0.17415 0.41129 0.0
H6730 H 0.68442 0.1804 0.47508 0.0
H6731 H 0.6705 0.18395 0.44987 0.0
C6732 C 0.85625 0.58645 0.4293 0.0
C6733 C 0.86282 0.58991 0.41428 0.0
C6734 C 0.84906 0.59827 0.43871 0.0
C6735 C 0.85407 0.64194 0.44386 0.0
H6736 H 0.82694 0.6346 0.48077 0.0
C6737 C 0.86104 0.66005 0.51164 0.0
C6738 C 0.86899 0.67518 0.50971 0.0
C6739 C 0.85131 0.65273 0.49949 0.0
C6740 C 0.8344 0.63694 0.47043 0.0
H6741 H 0.86523 0.60809 0.39669 0.0
H6742 H 0.85183 0.62817 0.4126 0.0
H6743 H 0.82664 0.61443 0.45853 0.0
H6744 H 0.87055 0.69578 0.49508 0.0
H6745 H 0.85294 0.68329 0.47414 0.0
H6746 H 0.86269 0.66378 0.45594 0.0
C6747 C 0.85286 0.61655 0.41743 0.0
C6748 C 0.83427 0.62535 0.4577 0.0
C6749 C 0.86037 0.60488 0.40817 0.0
C6750 C 0.86482 0.68398 0.49676 0.0
C6751 C 0.85485 0.67674 0.48469 0.0
C6752 C 0.85417 0.65347 0.45648 0.0
C6753 C 0.848 0.61373 0.43319 0.0
C6754 C 0.84472 0.62738 0.44462 0.0
C6755 C 0.84918 0.66053 0.48528 0.0
C6756 C 0.84498 0.65078 0.47031 0.0
H6757 H 0.85745 0.57489 0.43419 0.0
H6758 H 0.84546 0.59557 0.45076 0.0
H6759 H 0.86248 0.64395 0.43418 0.0
H6760 H 0.86366 0.6532 0.5218 0.0
H6761 H 0.84705 0.64032 0.50055 0.0
C6762 C 0.40562 0.9314 0.48276 0.0
C6763 C 0.40346 0.94466 0.49364 0.0
C6764 C 0.41826 0.93123 0.47115 0.0
C6765 C 0.45746 0.955 0.45665 0.0
H6766 H 0.45359 0.92339 0.42126 0.0
C6767 C 0.50809 0.95373 0.40463 0.0
C6768 C 0.5082 0.94109 0.39259 0.0
C6769 C 0.49592 0.95443 0.41683 0.0
C6770 C 0.45539 0.93236 0.43096 0.0
H6771 H 0.41438 0.96823 0.50039 0.0
H6772 H 0.43607 0.96812 0.48048 0.0
H6773 H 0.43287 0.92421 0.4413 0.0
H6774 H 0.49514 0.91871 0.38548 0.0
H6775 H 0.47442 0.91979 0.40584 0.0
H6776 H 0.47997 0.96325 0.44612 0.0
C6777 C 0.42791 0.95754 0.48075 0.0
C6778 C 0.44305 0.93282 0.44292 0.0
C6779 C 0.4152 0.95766 0.49245 0.0
C6780 C 0.49557 0.92902 0.39385 0.0
C6781 C 0.48341 0.92969 0.40598 0.0
C6782 C 0.46986 0.95454 0.44464 0.0
C6783 C 0.42986 0.94435 0.46949 0.0
C6784 C 0.44355 0.94409 0.45632 0.0
C6785 C 0.48297 0.94246 0.41797 0.0
C6786 C 0.46938 0.94315 0.43128 0.0
H6787 H 0.39737 0.92088 0.4832 0.0
H6788 H 0.41884 0.92046 0.46351 0.0
H6789 H 0.45906 0.96399 0.46639 0.0
H6790 H 0.51742 0.96337 0.40455 0.0
H6791 H 0.49678 0.96466 0.4253 0.0
C6792 C 0.19567 0.49921 0.43012 0.0
C6793 C 0.20142 0.5143 0.43689 0.0
C6794 C 0.19821 0.48507 0.43779 0.0
C6795 C 0.21059 0.4562 0.45495 0.0
H6796 H 0.19769 0.45929 0.49954 0.0
C6797 C 0.20998 0.40575 0.5028 0.0
C6798 C 0.19386 0.40014 0.50494 0.0
C6799 C 0.21375 0.41977 0.4946 0.0
C6800 C 0.2016 0.45832 0.48718 0.0
H6801 H 0.21576 0.52597 0.45629 0.0
H6802 H 0.21973 0.5015 0.46977 0.0
H6803 H 0.19959 0.48334 0.48413 0.0
H6804 H 0.16918 0.40524 0.50088 0.0
H6805 H 0.17578 0.42993 0.4873 0.0
H6806 H 0.21226 0.43103 0.45811 0.0
C6807 C 0.21304 0.50063 0.45867 0.0
C6808 C 0.2027 0.47207 0.47834 0.0
C6809 C 0.21067 0.51469 0.45095 0.0
C6810 C 0.18169 0.40921 0.4994 0.0
C6811 C 0.18545 0.42331 0.49158 0.0
C6812 C 0.20976 0.44246 0.46392 0.0
C6813 C 0.20645 0.48569 0.45246 0.0
C6814 C 0.20689 0.47116 0.46203 0.0
C6815 C 0.20147 0.4286 0.48886 0.0
C6816 C 0.20496 0.44337 0.48004 0.0
H6817 H 0.1885 0.49835 0.41934 0.0
H6818 H 0.19296 0.47375 0.43269 0.0
H6819 H 0.21392 0.4551 0.44244 0.0
H6820 H 0.21961 0.39896 0.50684 0.0
H6821 H 0.22621 0.42367 0.49267 0.0
C6822 C 0.42151 0.19832 0.56658 0.0
C6823 C 0.41078 0.21045 0.56639 0.0
C6824 C 0.43648 0.20127 0.57408 0.0
C6825 C 0.46351 0.23395 0.59561 0.0
H6826 H 0.47812 0.19732 0.61623 0.0
C6827 C 0.50114 0.23364 0.65384 0.0
C6828 C 0.51143 0.22109 0.6548 0.0
C6829 C 0.49274 0.2355 0.63973 0.0
C6830 C 0.4744 0.20764 0.61033 0.0
H6831 H 0.40793 0.23561 0.57252 0.0
H6832 H 0.43306 0.24037 0.58672 0.0
H6833 H 0.45542 0.19367 0.59841 0.0
H6834 H 0.52285 0.20232 0.64116 0.0
H6835 H 0.50846 0.20579 0.61642 0.0
H6836 H 0.48195 0.24803 0.60897 0.0
C6837 C 0.43042 0.22866 0.58085 0.0
C6838 C 0.46133 0.20556 0.59994 0.0
C6839 C 0.41577 0.22584 0.57287 0.0
C6840 C 0.51506 0.21212 0.64076 0.0
C6841 C 0.50663 0.21395 0.62666 0.0
C6842 C 0.4764 0.23609 0.60639 0.0
C6843 C 0.44088 0.21629 0.58201 0.0
C6844 C 0.4556 0.21864 0.59235 0.0
C6845 C 0.49458 0.22487 0.62638 0.0
C6846 C 0.482 0.22291 0.6138 0.0
H6847 H 0.41808 0.18637 0.5616 0.0
H6848 H 0.44436 0.19155 0.57402 0.0
H6849 H 0.45976 0.24438 0.58996 0.0
H6850 H 0.4981 0.24069 0.66454 0.0
H6851 H 0.48356 0.24405 0.63987 0.0
C6852 C 0.9469 0.40804 0.59559 0.0
C6853 C 0.93567 0.4063 0.58288 0.0
C6854 C 0.94725 0.42106 0.60728 0.0
C6855 C 0.93222 0.46307 0.61743 0.0
H6856 H 0.94752 0.4555 0.65967 0.0
C6857 C 0.93303 0.51415 0.67106 0.0
C6858 C 0.94368 0.51358 0.68411 0.0
C6859 C 0.93158 0.50169 0.6586 0.0
C6860 C 0.94345 0.45824 0.64796 0.0
H6861 H 0.91609 0.41819 0.57296 0.0
H6862 H 0.91684 0.44093 0.59299 0.0
H6863 H 0.94594 0.4339 0.63915 0.0
H6864 H 0.9613 0.49876 0.69341 0.0
H6865 H 0.95906 0.47775 0.67227 0.0
H6866 H 0.92971 0.4875 0.62638 0.0
C6867 C 0.92548 0.43199 0.59401 0.0
C6868 C 0.9425 0.44551 0.6359 0.0
C6869 C 0.92503 0.41876 0.58233 0.0
C6870 C 0.95286 0.49997 0.68387 0.0
C6871 C 0.95141 0.48758 0.67152 0.0
C6872 C 0.93324 0.4759 0.62954 0.0
C6873 C 0.93652 0.43346 0.60701 0.0
C6874 C 0.937 0.44748 0.62017 0.0
C6875 C 0.94065 0.48788 0.65849 0.0
C6876 C 0.93905 0.47395 0.64521 0.0
H6877 H 0.95557 0.39914 0.59664 0.0
H6878 H 0.95628 0.42141 0.61653 0.0
H6879 H 0.92795 0.46558 0.60572 0.0
H6880 H 0.92546 0.5241 0.67061 0.0
H6881 H 0.92298 0.50283 0.64919 0.0
C6882 C 0.20955 0.60077 0.7025 0.0
C6883 C 0.19521 0.59272 0.70759 0.0
C6884 C 0.20986 0.61094 0.68955 0.0
C6885 C 0.18276 0.63305 0.66294 0.0
H6886 H 0.22176 0.63947 0.63828 0.0
C6887 C 0.18776 0.67954 0.61201 0.0
C6888 C 0.19721 0.67596 0.59845 0.0
C6889 C 0.18794 0.67024 0.62573 0.0
C6890 C 0.21062 0.63785 0.64482 0.0
H6891 H 0.16991 0.58878 0.70221 0.0
H6892 H 0.17038 0.60607 0.67948 0.0
H6893 H 0.22081 0.62123 0.65981 0.0
H6894 H 0.21445 0.65969 0.58914 0.0
H6895 H 0.21489 0.64382 0.61254 0.0
H6896 H 0.17243 0.64929 0.6475 0.0
C6897 C 0.18149 0.60496 0.68578 0.0
C6898 C 0.21014 0.62739 0.65756 0.0
C6899 C 0.18121 0.59479 0.6988 0.0
C6900 C 0.2072 0.6631 0.59937 0.0
C6901 C 0.20742 0.65388 0.61298 0.0
C6902 C 0.18322 0.64349 0.65013 0.0
C6903 C 0.19582 0.61343 0.68089 0.0
C6904 C 0.19621 0.62469 0.66699 0.0
C6905 C 0.19758 0.65698 0.62643 0.0
C6906 C 0.19716 0.64614 0.64069 0.0
H6907 H 0.22066 0.59932 0.70869 0.0
H6908 H 0.2212 0.61715 0.68663 0.0
H6909 H 0.17178 0.63171 0.66979 0.0
H6910 H 0.17963 0.68905 0.61176 0.0
H6911 H 0.18029 0.6734 0.63571 0.0
C6912 C 0.07551 0.30457 0.44521 0.0
C6913 C 0.07526 0.29866 0.42929 0.0
C6914 C 0.08648 0.31721 0.44992 0.0
C6915 C 0.12481 0.31038 0.43092 0.0
H6916 H 0.13183 0.30164 0.47506 0.0
C6917 C 0.17389 0.27178 0.45352 0.0
C6918 C 0.17237 0.26978 0.46999 0.0
C6919 C 0.16177 0.27935 0.44609 0.0
C6920 C 0.12979 0.3037 0.46261 0.0
H6921 H 0.08239 0.3041 0.40515 0.0
H6922 H 0.10165 0.32611 0.4138 0.0
H6923 H 0.11343 0.32143 0.46883 0.0
H6924 H 0.15495 0.2629 0.48794 0.0
H6925 H 0.13245 0.27288 0.47392 0.0
H6926 H 0.14203 0.29355 0.42491 0.0
C6927 C 0.09414 0.32047 0.42276 0.0
C6928 C 0.11936 0.31531 0.459 0.0
C6929 C 0.08323 0.3078 0.41774 0.0
C6930 C 0.15674 0.26638 0.47576 0.0
C6931 C 0.14399 0.27272 0.46797 0.0
C6932 C 0.13555 0.29914 0.43459 0.0
C6933 C 0.09863 0.32185 0.43901 0.0
C6934 C 0.11522 0.31742 0.44299 0.0
C6935 C 0.14719 0.28142 0.4542 0.0
C6936 C 0.13707 0.2946 0.45031 0.0
H6937 H 0.06901 0.29808 0.45423 0.0
H6938 H 0.08772 0.3201 0.46261 0.0
H6939 H 0.12308 0.31218 0.41839 0.0
H6940 H 0.18569 0.27242 0.44805 0.0
H6941 H 0.1646 0.28496 0.435 0.0
C6942 C 0.78356 0.15373 0.5201 0.0
C6943 C 0.77585 0.14813 0.53383 0.0
C6944 C 0.78938 0.14284 0.50854 0.0
C6945 C 0.78622 0.09892 0.49688 0.0
H6946 H 0.82506 0.1093 0.47295 0.0
C6947 C 0.82424 0.05245 0.46373 0.0
C6948 C 0.82708 0.05532 0.44759 0.0
C6949 C 0.81726 0.06393 0.47369 0.0
C6950 C 0.81417 0.10635 0.47959 0.0
H6951 H 0.76817 0.127 0.546 0.0
H6952 H 0.77985 0.10832 0.52748 0.0
H6953 H 0.81447 0.12966 0.49137 0.0
H6954 H 0.82401 0.07173 0.42889 0.0
H6955 H 0.81247 0.09216 0.44652 0.0
H6956 H 0.78652 0.07534 0.48565 0.0
C6957 C 0.78079 0.12089 0.52491 0.0
C6958 C 0.80802 0.118 0.49 0.0
C6959 C 0.77452 0.13167 0.53596 0.0
C6960 C 0.82233 0.0695 0.44141 0.0
C6961 C 0.81571 0.08111 0.45142 0.0
C6962 C 0.79261 0.08721 0.48682 0.0
C6963 C 0.788 0.12624 0.51085 0.0
C6964 C 0.79405 0.11437 0.4989 0.0
C6965 C 0.81329 0.07845 0.46762 0.0
C6966 C 0.80662 0.09085 0.47818 0.0
H6967 H 0.78499 0.16644 0.51828 0.0
H6968 H 0.79474 0.14743 0.49778 0.0
H6969 H 0.77515 0.09579 0.5031 0.0
H6970 H 0.82796 0.04166 0.46878 0.0
H6971 H 0.81544 0.06172 0.48622 0.0
C6972 C 0.96642 0.78078 0.45967 0.0
C6973 C 0.97964 0.7882 0.45195 0.0
C6974 C 0.9604 0.78823 0.47349 0.0
C6975 C 0.9641 0.82456 0.50118 0.0
H6976 H 0.91868 0.82262 0.49169 0.0
C6977 C 0.9349 0.8125 0.54496 0.0
C6978 C 0.92454 0.79984 0.5386 0.0
C6979 C 0.93477 0.82756 0.53861 0.0
C6980 C 0.9313 0.82356 0.49465 0.0
H6981 H 1.00014 0.80498 0.45546 0.0
H6982 H 0.98913 0.81905 0.47878 0.0
H6983 H 0.93642 0.80863 0.47407 0.0
H6984 H 0.90273 0.79445 0.52469 0.0
H6985 H 0.90357 0.82064 0.51332 0.0
H6986 H 0.95916 0.83968 0.52153 0.0
C6987 C 0.98292 0.80802 0.47405 0.0
C6988 C 0.94148 0.8152 0.48458 0.0
C6989 C 0.98928 0.79999 0.4607 0.0
C6990 C 0.91206 0.80346 0.5285 0.0
C6991 C 0.91242 0.8186 0.52224 0.0
C6992 C 0.95386 0.83301 0.51123 0.0
C6993 C 0.96752 0.80311 0.47939 0.0
C6994 C 0.95768 0.81438 0.48864 0.0
C6995 C 0.92659 0.82873 0.5241 0.0
C6996 C 0.937 0.83046 0.50948 0.0
H6997 H 0.95912 0.77105 0.45373 0.0
H6998 H 0.94904 0.78351 0.47822 0.0
H6999 H 0.97678 0.82509 0.50398 0.0
H7000 H 0.94368 0.81062 0.554 0.0
H7001 H 0.94376 0.83674 0.54277 0.0
C7002 C 0.30586 0.08751 0.43233 0.0
C7003 C 0.30171 0.07323 0.42347 0.0
C7004 C 0.31717 0.08839 0.4444 0.0
C7005 C 0.34423 0.06739 0.46809 0.0
H7006 H 0.30829 0.06269 0.49732 0.0
C7007 C 0.32857 1.01082 0.48853 0.0
C7008 C 0.3166 1.00726 0.49983 0.0
C7009 C 0.33488 0.02635 0.48715 0.0
C7010 C 0.31886 0.06461 0.48996 0.0
H7011 H 0.30747 0.04851 0.41934 0.0
H7012 H 0.32703 0.04959 0.44119 0.0
H7013 H 0.30601 0.07826 0.47426 0.0
H7014 H 0.30259 0.01702 0.5194 0.0
H7015 H 0.31366 0.04478 0.51691 0.0
H7016 H 0.35678 0.05311 0.48342 0.0
C7017 C 0.32174 0.06053 0.43827 0.0
C7018 C 0.31747 0.07348 0.47655 0.0
C7019 C 0.31038 0.05982 0.42597 0.0
C7020 C 0.31169 0.01955 0.51045 0.0
C7021 C 0.31813 0.03535 0.5091 0.0
C7022 C 0.34588 0.05917 0.48195 0.0
C7023 C 0.32439 0.07463 0.44817 0.0
C7024 C 0.32945 0.07326 0.46471 0.0
C7025 C 0.32934 0.03901 0.49694 0.0
C7026 C 0.33225 0.05553 0.49146 0.0
H7027 H 0.29924 0.09763 0.4313 0.0
H7028 H 0.31873 0.09927 0.45205 0.0
H7029 H 0.35374 0.0675 0.45924 0.0
H7030 H 0.33249 1.00169 0.47998 0.0
H7031 H 0.34316 0.02841 0.47738 0.0
C7032 C 0.06918 0.78955 0.59736 0.0
C7033 C 0.06297 0.80161 0.60736 0.0
C7034 C 0.07709 0.79379 0.58336 0.0
C7035 C 0.09951 0.81271 0.55881 0.0
H7036 H 0.13077 0.82449 0.59245 0.0
C7037 C 0.16336 0.80645 0.54463 0.0
C7038 C 0.16482 0.79123 0.55036 0.0
C7039 C 0.15247 0.81655 0.55182 0.0
C7040 C 0.12216 0.82202 0.58284 0.0
H7041 H 0.05536 0.82597 0.60814 0.0
H7042 H 0.06964 0.83323 0.58429 0.0
H7043 H 0.10205 0.82374 0.59859 0.0
H7044 H 0.1566 0.77482 0.56807 0.0
H7045 H 0.13853 0.79252 0.5812 0.0
H7046 H 0.11959 0.80817 0.54401 0.0
C7047 C 0.06866 0.82077 0.58719 0.0
C7048 C 0.10579 0.82156 0.58629 0.0
C7049 C 0.06042 0.81645 0.60093 0.0
C7050 C 0.1565 0.78679 0.56413 0.0
C7051 C 0.14603 0.79698 0.57158 0.0
C7052 C 0.11583 0.81321 0.55542 0.0
C7053 C 0.07863 0.80998 0.57966 0.0
C7054 C 0.09448 0.81614 0.57442 0.0
C7055 C 0.14317 0.81145 0.56483 0.0
C7056 C 0.12722 0.8173 0.56745 0.0
H7057 H 0.07084 0.77783 0.60174 0.0
H7058 H 0.08452 0.78517 0.57736 0.0
H7059 H 0.09099 0.80801 0.54973 0.0
H7060 H 0.16967 0.80998 0.53391 0.0
H7061 H 0.15011 0.82754 0.54626 0.0
C7062 C 0.27349 0.1325 0.60725 0.0
C7063 C 0.28932 0.12922 0.60317 0.0
C7064 C 0.26284 0.13692 0.59598 0.0
C7065 C 0.26243 0.15139 0.55401 0.0
H7066 H 0.24459 0.18545 0.57933 0.0
C7067 C 0.30409 0.1724 0.57603 0.0
C7068 C 0.30357 0.17802 0.5921 0.0
C7069 C 0.29217 0.17556 0.56542 0.0
C7070 C 0.24965 0.17593 0.57207 0.0
H7071 H 0.30654 0.12878 0.58382 0.0
H7072 H 0.28825 0.13778 0.56407 0.0
H7073 H 0.2416 0.15851 0.58837 0.0
H7074 H 0.29051 0.19248 0.60927 0.0
H7075 H 0.26845 0.1962 0.59128 0.0
H7076 H 0.26939 0.16998 0.53822 0.0
C7077 C 0.28362 0.13579 0.57593 0.0
C7078 C 0.24799 0.16028 0.57729 0.0
C7079 C 0.29432 0.13084 0.5873 0.0
C7080 C 0.29087 0.18723 0.59718 0.0
C7081 C 0.27843 0.18976 0.58665 0.0
C7082 C 0.26328 0.16731 0.54929 0.0
C7083 C 0.26771 0.13926 0.58024 0.0
C7084 C 0.25762 0.14862 0.56988 0.0
C7085 C 0.2783 0.18301 0.57076 0.0
C7086 C 0.26265 0.17928 0.5618 0.0
H7087 H 0.26927 0.13213 0.61944 0.0
H7088 H 0.2508 0.13887 0.59996 0.0
H7089 H 0.2679 0.14228 0.54655 0.0
H7090 H 0.3137 0.16535 0.57152 0.0
H7091 H 0.29322 0.17053 0.55336 0.0
C7092 C 0.07837 0.29052 0.63894 0.0
C7093 C 0.0762 0.28807 0.65518 0.0
C7094 C 0.06808 0.29958 0.63112 0.0
C7095 C 0.0284 0.31221 0.63184 0.0
H7096 H 0.04602 0.33514 0.59581 0.0
C7097 C 0.9879 0.32886 0.58619 0.0
C7098 C 0.98552 0.31356 0.57819 0.0
C7099 C 1.00255 0.33391 0.59297 0.0
C7100 C 0.04102 0.3291 0.60601 0.0
H7101 H 0.06294 0.29445 0.67657 0.0
H7102 H 0.04419 0.31022 0.66264 0.0
H7103 H 0.06373 0.32894 0.61755 0.0
H7104 H 0.99757 0.29299 0.56862 0.0
H7105 H 0.02314 0.30148 0.58161 0.0
H7106 H 1.00583 0.31188 0.62001 0.0
C7107 C 0.05361 0.3046 0.65593 0.0
C7108 C 0.051 0.32559 0.61838 0.0
C7109 C 0.06396 0.29529 0.66376 0.0
C7110 C 0.99887 0.30459 0.57503 0.0
C7111 C 1.01357 0.3096 0.58216 0.0
C7112 C 0.01841 0.31604 0.61968 0.0
C7113 C 0.05585 0.307 0.63958 0.0
C7114 C 0.04491 0.31605 0.63067 0.0
C7115 C 1.01487 0.32358 0.59226 0.0
C7116 C 0.02491 0.3236 0.60633 0.0
H7117 H 0.08842 0.28597 0.63236 0.0
H7118 H 0.06981 0.30086 0.61841 0.0
H7119 H 0.02346 0.30484 0.64116 0.0
H7120 H 0.97808 0.33622 0.58921 0.0
H7121 H 1.00339 0.34466 0.60087 0.0
C7122 C 0.77107 0.96541 0.62534 0.0
C7123 C 0.77347 0.98065 0.63306 0.0
C7124 C 0.78075 0.96121 0.61242 0.0
C7125 C 0.81088 0.97455 0.58326 0.0
H7126 H 0.8257 0.9329 0.59099 0.0
C7127 C 0.79625 0.93917 0.53989 0.0
C7128 C 0.78817 0.92616 0.54699 0.0
C7129 C 0.81138 0.94487 0.54544 0.0
C7130 C 0.82181 0.94456 0.5885 0.0
H7131 H 0.78482 1.00455 0.63125 0.0
H7132 H 0.80165 0.99727 0.60846 0.0
H7133 H 0.81017 0.94659 0.61125 0.0
H7134 H 0.79113 0.90635 0.56195 0.0
H7135 H 0.81741 0.91623 0.57146 0.0
H7136 H 0.82246 0.97263 0.56072 0.0
C7137 C 0.79283 0.98839 0.61272 0.0
C7138 C 0.81275 0.95233 0.60015 0.0
C7139 C 0.78296 0.99263 0.62555 0.0
C7140 C 0.79665 0.91713 0.55719 0.0
C7141 C 0.81184 0.92288 0.56256 0.0
C7142 C 0.81998 0.96665 0.57165 0.0
C7143 C 0.79271 0.97231 0.60705 0.0
C7144 C 0.80578 0.96657 0.59682 0.0
C7145 C 0.81765 0.93861 0.55918 0.0
C7146 C 0.82253 0.95021 0.57294 0.0
H7147 H 0.76374 0.95602 0.63081 0.0
H7148 H 0.77992 0.94888 0.60764 0.0
H7149 H 0.80668 0.98614 0.5809 0.0
H7150 H 0.79041 0.94571 0.53105 0.0
H7151 H 0.81655 0.95585 0.54084 0.0
C7152 C 0.47128 0.07799 0.25347 0.0
C7153 C 0.45506 0.07466 0.25688 0.0
C7154 C 0.47926 0.09177 0.26001 0.0
C7155 C 0.48046 0.13081 0.26846 0.0
H7156 H 0.51023 0.12474 0.30269 0.0
C7157 C 0.52578 0.17897 0.29722 0.0
C7158 C 0.54064 0.17336 0.30122 0.0
C7159 C 0.51378 0.16837 0.29076 0.0
C7160 C 0.50196 0.12655 0.29313 0.0
H7161 H 0.43384 0.08346 0.26845 0.0
H7162 H 0.44809 0.10809 0.2801 0.0
H7163 H 0.48983 0.10345 0.29514 0.0
H7164 H 0.55546 0.15303 0.29981 0.0
H7165 H 0.53467 0.13463 0.28761 0.0
H7166 H 0.49324 0.15355 0.26578 0.0
C7167 C 0.45458 0.0996 0.2728 0.0
C7168 C 0.49021 0.1146 0.2891 0.0
C7169 C 0.44662 0.08559 0.26638 0.0
C7170 C 0.54407 0.15759 0.29686 0.0
C7171 C 0.53215 0.14705 0.29013 0.0
C7172 C 0.49228 0.14282 0.27249 0.0
C7173 C 0.4709 0.10255 0.26962 0.0
C7174 C 0.47978 0.11658 0.27651 0.0
C7175 C 0.51672 0.15222 0.28794 0.0
C7176 C 0.50342 0.14043 0.28445 0.0
H7177 H 0.47776 0.07016 0.24556 0.0
H7178 H 0.49191 0.09414 0.25743 0.0
H7179 H 0.47257 0.13217 0.25847 0.0
H7180 H 0.52302 0.19123 0.3002 0.0
H7181 H 0.50193 0.17254 0.28907 0.0
C7182 C 0.99614 0.46599 0.33501 0.0
C7183 C 1.00725 0.45432 0.33264 0.0
C7184 C 0.9999 0.48141 0.32994 0.0
C7185 C 0.01977 0.4914 0.29415 0.0
H7186 H 0.99306 0.52714 0.30089 0.0
C7187 C 0.96722 0.52739 0.26551 0.0
C7188 C 0.959 0.51301 0.25991 0.0
C7189 C 0.9831 0.5274 0.27063 0.0
C7190 C 1.0011 0.51767 0.29855 0.0
H7191 H 0.03218 0.45045 0.32774 0.0
H7192 H 0.03877 0.47727 0.31875 0.0
H7193 H 1.00381 0.51494 0.32349 0.0
H7194 H 0.96136 0.48808 0.25275 0.0
H7195 H 0.98866 0.48779 0.26205 0.0
H7196 H 1.01562 0.49292 0.26917 0.0
C7197 C 0.02705 0.47459 0.32395 0.0
C7198 C 1.00726 0.51069 0.31172 0.0
C7199 C 0.02333 0.45928 0.32939 0.0
C7200 C 0.96753 0.49931 0.25702 0.0
C7201 C 0.98329 0.49921 0.26242 0.0
C7202 C 1.01362 0.49839 0.28091 0.0
C7203 C 1.01483 0.48514 0.32259 0.0
C7204 C 1.01543 0.49668 0.30973 0.0
C7205 C 0.99068 0.51289 0.2707 0.0
C7206 C 1.00301 0.51066 0.28304 0.0
H7207 H 0.98374 0.46249 0.33774 0.0
H7208 H 0.99022 0.48932 0.32939 0.0
H7209 H 0.02609 0.48061 0.29208 0.0
H7210 H 0.96081 0.53812 0.26773 0.0
H7211 H 0.98865 0.53828 0.2764 0.0
C7212 C 0.65027 0.05034 0.27924 0.0
C7213 C 0.66641 0.04696 0.27748 0.0
C7214 C 0.63917 0.03878 0.28465 0.0
C7215 C 0.63462 1.00293 0.30683 0.0
H7216 H 0.59624 0.99373 0.28107 0.0
C7217 C 0.58768 0.95282 0.32099 0.0
C7218 C 0.57191 0.95766 0.32172 0.0
C7219 C 0.59979 0.96248 0.31421 0.0
C7220 C 0.60688 0.99624 0.28838 0.0
H7221 H 0.68392 0.02952 0.28106 0.0
H7222 H 0.66435 1.0091 0.29027 0.0
H7223 H 0.61657 1.01402 0.27303 0.0
H7224 H 0.55609 0.97506 0.31417 0.0
H7225 H 0.5772 0.9924 0.30297 0.0
H7226 H 0.62474 0.98549 0.32245 0.0
C7227 C 0.66036 0.02065 0.28739 0.0
C7228 C 0.61842 1.00781 0.28382 0.0
C7229 C 0.67147 0.03223 0.282 0.0
C7230 C 0.56818 0.9714 0.31418 0.0
C7231 C 0.58024 0.98118 0.30759 0.0
C7232 C 0.623 0.99143 0.31148 0.0
C7233 C 0.64413 0.02379 0.28846 0.0
C7234 C 0.63226 1.0113 0.2931 0.0
C7235 C 0.59618 0.97696 0.30789 0.0
C7236 C 0.60901 0.98811 0.30233 0.0
H7237 H 0.64608 0.06166 0.27589 0.0
H7238 H 0.62667 0.04143 0.28565 0.0
H7239 H 0.64522 1.00561 0.31416 0.0
H7240 H 0.59076 0.94188 0.32609 0.0
H7241 H 0.61198 0.95883 0.31425 0.0
C7242 C 0.05088 0.61904 0.30326 0.0
C7243 C 0.06267 0.62535 0.29277 0.0
C7244 C 0.04518 0.60286 0.30154 0.0
C7245 C 0.05527 0.56553 0.27727 0.0
H7246 H 0.08076 0.56425 0.31535 0.0
C7247 C 0.12535 0.56479 0.28346 0.0
C7248 C 0.12778 0.58158 0.28531 0.0
C7249 C 0.10974 0.55744 0.28417 0.0
C7250 C 0.07341 0.56373 0.30469 0.0
H7251 H 0.07578 0.61952 0.27081 0.0
H7252 H 0.0651 0.59284 0.26721 0.0
H7253 H 0.05603 0.57746 0.31662 0.0
H7254 H 0.11628 0.60388 0.28869 0.0
H7255 H 0.08932 0.59115 0.29023 0.0
H7256 H 0.07462 0.55483 0.26475 0.0
C7257 C 0.06041 0.59991 0.27713 0.0
C7258 C 0.05903 0.57135 0.3054 0.0
C7259 C 0.06673 0.61564 0.27928 0.0
C7260 C 0.1146 0.59092 0.2872 0.0
C7261 C 0.09923 0.58363 0.28813 0.0
C7262 C 0.06998 0.55843 0.27637 0.0
C7263 C 0.05085 0.59279 0.28904 0.0
C7264 C 0.05199 0.57527 0.29102 0.0
C7265 C 0.09669 0.56684 0.28712 0.0
C7266 C 0.0802 0.55998 0.28968 0.0
H7267 H 0.04677 0.62624 0.3134 0.0
H7268 H 0.03751 0.59789 0.31076 0.0
H7269 H 0.04906 0.56708 0.26622 0.0
H7270 H 0.13549 0.55742 0.28213 0.0
H7271 H 0.10792 0.54455 0.28299 0.0
C7272 C 0.46489 1.00175 0.75737 0.0
C7273 C 0.45575 1.01485 0.76115 0.0
C7274 C 0.48065 1.00194 0.76281 0.0
C7275 C 0.51238 1.00254 0.77946 0.0
H7276 H 0.50352 1.01309 0.82394 0.0
C7277 C 0.53436 0.96237 0.82179 0.0
C7278 C 0.52013 0.95484 0.82757 0.0
C7279 C 0.53459 0.97834 0.81772 0.0
C7280 C 0.50663 1.0106 0.81162 0.0
H7281 H 0.45647 0.03943 0.77059 0.0
H7282 H 0.4842 0.03997 0.77988 0.0
H7283 H 0.48907 0.02555 0.80354 0.0
H7284 H 0.49673 0.95873 0.83752 0.0
H7285 H 0.49692 0.98625 0.8303 0.0
H7286 H 0.52864 0.98625 0.78757 0.0
C7287 C 0.47915 0.02939 0.77319 0.0
C7288 C 0.49835 0.01772 0.79979 0.0
C7289 C 0.46336 0.02915 0.76777 0.0
C7290 C 0.50775 0.9643 0.83285 0.0
C7291 C 0.50787 0.98016 0.82854 0.0
C7292 C 0.52076 0.99551 0.79129 0.0
C7293 C 0.48741 1.0153 0.77204 0.0
C7294 C 0.50034 1.01289 0.78358 0.0
C7295 C 0.52059 0.98665 0.81927 0.0
C7296 C 0.51712 0.99865 0.80756 0.0
H7297 H 0.45922 0.99058 0.75231 0.0
H7298 H 0.48663 0.99085 0.76159 0.0
H7299 H 0.51411 0.9986 0.76715 0.0
H7300 H 0.5442 0.95527 0.81798 0.0
H7301 H 0.54478 0.98343 0.81132 0.0
C7302 C 0.06838 0.47398 0.81364 0.0
C7303 C 0.07129 0.45867 0.81831 0.0
C7304 C 0.08069 0.48382 0.80756 0.0
C7305 C 0.12308 0.49216 0.81182 0.0
H7306 H 0.11845 0.51827 0.77546 0.0
C7307 C 0.17351 0.53339 0.78636 0.0
C7308 C 0.16926 0.5484 0.78175 0.0
C7309 C 0.16181 0.52227 0.7915 0.0
C7310 C 0.11977 0.51114 0.78573 0.0
H7311 H 0.08914 0.44116 0.81964 0.0
H7312 H 0.11108 0.45874 0.8096 0.0
H7313 H 0.09749 0.49756 0.78119 0.0
H7314 H 0.14981 0.56414 0.78002 0.0
H7315 H 0.1293 0.54466 0.78938 0.0
H7316 H 0.14526 0.50589 0.81648 0.0
C7317 C 0.09913 0.46301 0.81051 0.0
C7318 C 0.10792 0.49928 0.78889 0.0
C7319 C 0.08665 0.45303 0.81628 0.0
C7320 C 0.15337 0.55263 0.78353 0.0
C7321 C 0.14164 0.54147 0.78867 0.0
C7322 C 0.13494 0.50403 0.80865 0.0
C7323 C 0.09622 0.47855 0.80636 0.0
C7324 C 0.10945 0.48983 0.80202 0.0
C7325 C 0.14576 0.52609 0.79222 0.0
C7326 C 0.13325 0.51369 0.7957 0.0
H7327 H 0.05685 0.47872 0.81572 0.0
H7328 H 0.07827 0.49589 0.8047 0.0
H7329 H 0.1243 0.48515 0.82219 0.0
H7330 H 0.18575 0.52995 0.78525 0.0
H7331 H 0.1652 0.51042 0.79412 0.0
C7332 C 0.61204 0.08712 0.79902 0.0
C7333 C 0.62421 0.07922 0.791 0.0
C7334 C 0.59682 0.07968 0.80038 0.0
C7335 C 0.56836 0.05767 0.77837 0.0
H7336 H 0.54975 0.07762 0.81598 0.0
C7337 C 0.571 0.11597 0.77979 0.0
C7338 C 0.56583 0.12647 0.79213 0.0
C7339 C 0.56428 0.10037 0.7778 0.0
C7340 C 0.55397 0.07135 0.80532 0.0
H7341 H 0.63001 0.05733 0.77784 0.0
H7342 H 0.60259 0.04436 0.77958 0.0
H7343 H 0.57179 0.06078 0.81865 0.0
H7344 H 0.54812 0.12895 0.81104 0.0
H7345 H 0.53728 0.10103 0.80839 0.0
H7346 H 0.55107 0.06909 0.7651 0.0
C7347 C 0.60521 0.05618 0.78525 0.0
C7348 C 0.56676 0.06161 0.80688 0.0
C7349 C 0.62074 0.06368 0.78404 0.0
C7350 C 0.55285 0.12109 0.80174 0.0
C7351 C 0.54637 0.10516 0.80002 0.0
C7352 C 0.55488 0.06659 0.77694 0.0
C7353 C 0.59315 0.06409 0.79363 0.0
C7354 C 0.57604 0.05799 0.79326 0.0
C7355 C 0.55251 0.09435 0.78844 0.0
C7356 C 0.55061 0.07662 0.79011 0.0
H7357 H 0.61424 0.09924 0.80415 0.0
H7358 H 0.5877 0.08654 0.80624 0.0
H7359 H 0.57456 0.05384 0.76761 0.0
H7360 H 0.58108 0.11929 0.77222 0.0
H7361 H 0.56975 0.09261 0.76892 0.0
C7362 C 0.04147 0.66148 0.79364 0.0
C7363 C 0.03962 0.67738 0.79884 0.0
C7364 C 0.03003 0.65341 0.78369 0.0
C7365 C 0.99014 0.64722 0.78316 0.0
H7366 H 0.99563 0.6227 0.74311 0.0
C7367 C 0.94996 0.59076 0.76433 0.0
C7368 C 0.95824 0.5783 0.75706 0.0
C7369 C 0.95783 0.60577 0.76741 0.0
C7370 C 0.99389 0.62954 0.75426 0.0
H7371 H 0.02483 0.69767 0.79759 0.0
H7372 H 1.00415 0.68301 0.78097 0.0
H7373 H 1.01418 0.64582 0.75009 0.0
H7374 H 0.98129 0.57097 0.74877 0.0
H7375 H 0.99523 0.59703 0.75432 0.0
H7376 H 0.97111 0.63 0.78833 0.0
C7377 C 1.01481 0.67715 0.784 0.0
C7378 C 1.00429 0.64282 0.75807 0.0
C7379 C 0.02652 0.68537 0.79356 0.0
C7380 C 0.97466 0.58055 0.754 0.0
C7381 C 0.98253 0.59552 0.75702 0.0
C7382 C 0.97992 0.63375 0.77952 0.0
C7383 C 0.01645 0.66109 0.77931 0.0
C7384 C 1.00283 0.65122 0.77282 0.0
C7385 C 0.97403 0.60839 0.76318 0.0
C7386 C 0.98229 0.62436 0.76542 0.0
H7387 H 0.05123 0.65501 0.79799 0.0
H7388 H 0.03114 0.64082 0.78043 0.0
H7389 H 0.98911 0.65354 0.79474 0.0
H7390 H 0.93716 0.58919 0.76656 0.0
H7391 H 0.95103 0.6155 0.77223 0.0
C7392 C 0.29408 0.42284 0.06248 0.0
C7393 C 0.28862 0.42944 0.0487 0.0
C7394 C 0.30659 0.43083 0.07119 0.0
C7395 C 0.30429 0.47208 0.07765 0.0
H7396 H 0.31243 0.45736 0.11961 0.0
C7397 C 0.26896 0.46164 0.13819 0.0
C7398 C 0.26852 0.47653 0.14659 0.0
C7399 C 0.27789 0.4604 0.12417 0.0
C7400 C 0.31037 0.46183 0.10795 0.0
H7401 H 0.29442 0.44665 0.03075 0.0
H7402 H 0.31556 0.46121 0.04668 0.0
H7403 H 0.32659 0.44617 0.09652 0.0
H7404 H 0.27386 0.50214 0.14545 0.0
H7405 H 0.28855 0.50002 0.12009 0.0
H7406 H 0.28702 0.4867 0.08901 0.0
C7407 C 0.31036 0.44997 0.05077 0.0
C7408 C 0.31863 0.45561 0.09477 0.0
C7409 C 0.29796 0.44186 0.04186 0.0
C7410 C 0.27403 0.49053 0.13907 0.0
C7411 C 0.28281 0.4893 0.12487 0.0
C7412 C 0.29616 0.4784 0.09083 0.0
C7413 C 0.31285 0.44597 0.06659 0.0
C7414 C 0.314 0.45908 0.07931 0.0
C7415 C 0.28584 0.47411 0.11817 0.0
C7416 C 0.29809 0.47215 0.10573 0.0
H7417 H 0.28768 0.41253 0.06737 0.0
H7418 H 0.30891 0.42664 0.0829 0.0
H7419 H 0.30076 0.47562 0.06602 0.0
H7420 H 0.2649 0.45074 0.14383 0.0
H7421 H 0.27975 0.44859 0.11879 0.0
C7422 C 0.28338 0.65324 0.0181 0.0
C7423 C 0.27779 0.64867 0.03312 0.0
C7424 C 0.28988 0.64202 1.00737 0.0
C7425 C 0.30982 0.60461 1.00567 0.0
H7426 H 0.29154 0.59705 0.96326 0.0
C7427 C 0.32568 0.55041 0.9652 0.0
C7428 C 0.32795 0.55299 0.94894 0.0
C7429 C 0.31904 0.56206 0.97527 0.0
C7430 C 0.29696 0.59915 0.97497 0.0
H7431 H 0.27529 0.62892 0.04893 0.0
H7432 H 0.28704 0.60966 0.03052 0.0
H7433 H 0.28217 0.61854 0.98104 0.0
H7434 H 0.32428 0.56912 0.93016 0.0
H7435 H 0.31357 0.58983 0.94776 0.0
H7436 H 0.32484 0.58554 0.99964 0.0
C7437 C 0.2862 0.62182 0.02693 0.0
C7438 C 0.29158 0.61145 0.98511 0.0
C7439 C 0.27948 0.6329 0.03747 0.0
C7440 C 0.32287 0.56701 0.94275 0.0
C7441 C 0.31654 0.57877 0.95281 0.0
C7442 C 0.31537 0.59248 0.99547 0.0
C7443 C 0.29131 0.62623 1.01176 0.0
C7444 C 0.29786 0.61415 1.00058 0.0
C7445 C 0.31476 0.57655 0.96924 0.0
C7446 C 0.30888 0.58949 0.98005 0.0
H7447 H 0.28279 0.66544 1.01468 0.0
H7448 H 0.29393 0.6457 0.99573 0.0
H7449 H 0.3149 0.60658 0.01756 0.0
H7450 H 0.32957 0.5397 0.97025 0.0
H7451 H 0.31751 0.55979 0.98781 0.0
C7452 C 0.41783 0.3057 0.03507 0.0
C7453 C 0.43216 0.29879 0.03855 0.0
C7454 C 0.41738 0.31586 0.02246 0.0
C7455 C 0.44331 0.3258 0.98738 0.0
H7456 H 0.42056 0.28624 0.97173 0.0
C7457 C 0.47816 0.27855 0.9574 0.0
C7458 C 0.47269 0.27262 0.94228 0.0
C7459 C 0.46795 0.28713 0.9673 0.0
C7460 C 0.42697 0.29732 0.97583 0.0
H7461 H 0.4577 0.29941 0.03449 0.0
H7462 H 0.45728 0.31746 1.01304 0.0
H7463 H 0.40949 0.30185 0.99368 0.0
H7464 H 0.4515 0.2654 0.92828 0.0
H7465 H 0.43339 0.27986 0.94581 0.0
H7466 H 0.46178 0.32008 0.97063 0.0
C7467 C 0.44615 0.31491 0.01938 0.0
C7468 C 0.42044 0.30664 0.98819 0.0
C7469 C 0.44649 0.30434 0.03156 0.0
C7470 C 0.45604 0.27057 0.93966 0.0
C7471 C 0.44577 0.27933 0.9494 0.0
C7472 C 0.45005 0.31632 0.97524 0.0
C7473 C 0.4313 0.31902 1.01336 0.0
C7474 C 0.42998 0.31938 0.99576 0.0
C7475 C 0.45207 0.28886 0.96249 0.0
C7476 C 0.44267 0.30115 0.97072 0.0
H7477 H 0.40669 0.30184 0.04075 0.0
H7478 H 0.40583 0.31914 0.01836 0.0
H7479 H 0.45039 0.3362 0.99238 0.0
H7480 H 0.49089 0.27959 0.96002 0.0
H7481 H 0.47284 0.29357 0.97796 0.0
C7482 C 0.80619 0.50774 1.01535 0.0
C7483 C 0.79336 0.49924 1.0072 0.0
C7484 C 0.81102 0.5233 1.01151 0.0
C7485 C 0.80342 0.55637 0.98611 0.0
H7486 H 0.8421 0.5446 0.96365 0.0
C7487 C 0.8124 0.55912 0.92271 0.0
C7488 C 0.80964 0.57534 0.92162 0.0
C7489 C 0.82008 0.55428 0.93618 0.0
C7490 C 0.83174 0.54842 0.97029 0.0
H7491 H 0.77394 0.50092 0.99056 0.0
H7492 H 0.78205 0.52837 0.98404 0.0
H7493 H 0.83228 0.5294 0.9862 0.0
H7494 H 0.81648 0.59956 0.93102 0.0
H7495 H 0.82901 0.59099 0.95493 0.0
H7496 H 0.80215 0.57452 0.96935 0.0
C7497 C 0.78848 0.52302 0.99336 0.0
C7498 C 0.82607 0.53977 0.98316 0.0
C7499 C 0.78377 0.50733 0.99711 0.0
C7500 C 0.81779 0.58687 0.93205 0.0
C7501 C 0.82518 0.58203 0.94565 0.0
C7502 C 0.8093 0.56526 0.97352 0.0
C7503 C 0.80287 0.53056 0.99959 0.0
C7504 C 0.81137 0.5431 0.99051 0.0
C7505 C 0.82481 0.56569 0.9485 0.0
C7506 C 0.82297 0.56073 0.96496 0.0
H7507 H 0.81373 0.50162 0.02304 0.0
H7508 H 0.82212 0.52891 0.01646 0.0
H7509 H 0.792 0.559 0.9915 0.0
H7510 H 0.80681 0.55002 0.91449 0.0
H7511 H 0.8199 0.54157 0.93807 0.0
C7512 C 0.6581 0.76689 0.9659 0.0
C7513 C 0.67397 0.77091 0.9612 0.0
C7514 C 0.64576 0.77452 0.95881 0.0
C7515 C 0.63651 0.8034 0.92851 0.0
H7516 H 0.6176 0.82437 0.9656 0.0
C7517 C 0.58033 0.80825 0.91914 0.0
C7518 C 0.57439 0.79887 0.93151 0.0
C7519 C 0.59186 0.82084 0.92261 0.0
C7520 C 0.62254 0.81856 0.955 0.0
H7521 H 0.68835 0.77698 0.94064 0.0
H7522 H 0.66734 0.79057 0.92815 0.0
H7523 H 0.63672 0.80453 0.96914 0.0
H7524 H 0.57301 0.79712 0.957 0.0
H7525 H 0.59171 0.81968 0.96303 0.0
H7526 H 0.6215 0.81617 0.91427 0.0
C7527 C 0.66429 0.78359 0.93837 0.0
C7528 C 0.6335 0.80705 0.95707 0.0
C7529 C 0.67628 0.77542 0.94538 0.0
C7530 C 0.57743 0.80419 0.94732 0.0
C7531 C 0.58858 0.81706 0.95061 0.0
C7532 C 0.62483 0.81424 0.92643 0.0
C7533 C 0.64947 0.78471 0.94624 0.0
C7534 C 0.63955 0.79837 0.94379 0.0
C7535 C 0.59856 0.82253 0.93808 0.0
C7536 C 0.61618 0.82038 0.93972 0.0
H7537 H 0.65576 0.76175 0.97734 0.0
H7538 H 0.63405 0.77419 0.96444 0.0
H7539 H 0.64226 0.79819 0.91809 0.0
H7540 H 0.57748 0.80477 0.90677 0.0
H7541 H 0.59773 0.82665 0.91272 0.0
C7542 C 0.8088 0.66755 0.07833 0.0
C7543 C 0.80807 0.67362 0.09422 0.0
C7544 C 0.79675 0.66993 0.06759 0.0
C7545 C 0.75445 0.66821 0.07284 0.0
H7546 H 0.77437 0.63904 0.0431 0.0
C7547 C 0.77579 0.6186 0.10063 0.0
C7548 C 0.79267 0.62055 0.09969 0.0
C7549 C 0.7661 0.62374 0.08888 0.0
C7550 C 0.76827 0.64682 0.05153 0.0
H7551 H 0.79428 0.68771 0.11107 0.0
H7552 H 0.772 0.69006 0.09282 0.0
H7553 H 0.77518 0.66781 0.039 0.0
H7554 H 0.81219 0.6265 0.08332 0.0
H7555 H 0.79511 0.63484 0.06241 0.0
H7556 H 0.74708 0.64827 0.08636 0.0
C7557 C 0.78229 0.68396 0.08843 0.0
C7558 C 0.76874 0.66338 0.04924 0.0
C7559 C 0.79486 0.68221 0.0991 0.0
C7560 C 0.79933 0.62531 0.08506 0.0
C7561 C 0.7894 0.62998 0.07287 0.0
C7562 C 0.7532 0.65183 0.07559 0.0
C7563 C 0.78265 0.67717 0.0726 0.0
C7564 C 0.76732 0.67347 0.06318 0.0
C7565 C 0.77264 0.63038 0.07523 0.0
C7566 C 0.76304 0.64152 0.0665 0.0
H7567 H 0.8188 0.66092 0.07404 0.0
H7568 H 0.79808 0.66464 0.05567 0.0
H7569 H 0.74923 0.67639 0.08153 0.0
H7570 H 0.76962 0.61489 0.11117 0.0
H7571 H 0.75349 0.62417 0.09142 0.0
C7572 C 0.49248 0.82666 0.08367 0.0
C7573 C 0.48409 0.81219 0.0783 0.0
C7574 C 0.50911 0.82808 0.08345 0.0
C7575 C 0.54337 0.82438 0.09229 0.0
H7576 H 0.53724 0.78824 0.11928 0.0
C7577 C 0.58323 0.80327 0.14302 0.0
C7578 C 0.57439 0.79709 0.15588 0.0
C7579 C 0.57548 0.80998 0.13066 0.0
C7580 C 0.5391 0.79838 0.11181 0.0
H7581 H 0.48649 0.78942 0.06515 0.0
H7582 H 0.51581 0.79155 0.06583 0.0
H7583 H 0.52084 0.78904 0.09575 0.0
H7584 H 0.55127 0.79628 0.16775 0.0
H7585 H 0.53753 0.80783 0.14599 0.0
H7586 H 0.56137 0.83385 0.1092 0.0
C7587 C 0.5094 0.80178 0.0701 0.0
C7588 C 0.53005 0.79864 0.09804 0.0
C7589 C 0.49263 0.8004 0.07008 0.0
C7590 C 0.55821 0.80028 0.15762 0.0
C7591 C 0.55041 0.80701 0.14526 0.0
C7592 C 0.55269 0.82398 0.10608 0.0
C7593 C 0.51759 0.81481 0.0786 0.0
C7594 C 0.53152 0.81198 0.08852 0.0
C7595 C 0.55883 0.81071 0.13122 0.0
C7596 C 0.54998 0.81131 0.11625 0.0
H7597 H 0.48656 0.83615 0.09009 0.0
H7598 H 0.51504 0.83841 0.08989 0.0
H7599 H 0.54459 0.83486 0.08523 0.0
H7600 H 0.5958 0.80136 0.1417 0.0
H7601 H 0.58218 0.81287 0.11996 0.0
C7602 C 0.64947 0.30058 0.03647 0.0
C7603 C 0.66033 0.29303 0.04583 0.0
C7604 C 0.63455 0.30403 0.04265 0.0
C7605 C 0.60925 0.28394 0.07159 0.0
H7606 H 0.57694 0.31187 0.05919 0.0
C7607 C 0.55976 0.27995 0.108 0.0
C7608 C 0.56151 0.29541 0.1156 0.0
C7609 C 0.5622 0.27806 0.09155 0.0
C7610 C 0.58577 0.30384 0.06264 0.0
H7611 H 0.66639 0.28828 0.07007 0.0
H7612 H 0.6406 0.2948 0.08118 0.0
H7613 H 0.60473 0.3173 0.05097 0.0
H7614 H 0.55908 0.32059 0.11049 0.0
H7615 H 0.56455 0.31727 0.08284 0.0
H7616 H 0.59104 0.27094 0.08396 0.0
C7617 C 0.64301 0.29672 0.06868 0.0
C7618 C 0.60172 0.30704 0.058 0.0
C7619 C 0.65786 0.29304 0.06237 0.0
C7620 C 0.56002 0.30845 0.10576 0.0
C7621 C 0.56275 0.30651 0.0894 0.0
C7622 C 0.59347 0.28086 0.07635 0.0
C7623 C 0.63069 0.30051 0.05842 0.0
C7624 C 0.61371 0.29749 0.06305 0.0
C7625 C 0.56694 0.29155 0.08293 0.0
C7626 C 0.58158 0.29125 0.07271 0.0
H7627 H 0.65137 0.30134 0.02375 0.0
H7628 H 0.62552 0.3074 0.03451 0.0
H7629 H 0.61804 0.27579 0.07491 0.0
H7630 H 0.55887 0.26922 0.11459 0.0
H7631 H 0.56362 0.26609 0.08654 0.0
C7632 C 0.02996 0.81316 0.63511 0.0
C7633 C 0.03087 0.8178 0.6514 0.0
C7634 C 0.01599 0.80497 0.6291 0.0
C7635 C 0.97308 0.80616 0.63937 0.0
H7636 H 0.98122 0.84985 0.62646 0.0
C7637 C 0.92054 0.84371 0.63469 0.0
C7638 C 0.92039 0.84852 0.61889 0.0
C7639 C 0.93515 0.83978 0.64101 0.0
C7640 C 0.97858 0.83765 0.62982 0.0
H7641 H 0.02083 0.81317 0.67473 0.0
H7642 H 0.99593 0.80039 0.6641 0.0
H7643 H 1.00317 0.83295 0.62819 0.0
H7644 H 0.93437 0.86222 0.60201 0.0
H7645 H 0.95974 0.85545 0.61226 0.0
H7646 H 0.9484 0.81108 0.6412 0.0
C7647 C 1.00571 0.80281 0.65583 0.0
C7648 C 0.9912 0.82779 0.63061 0.0
C7649 C 0.01991 0.81043 0.66195 0.0
C7650 C 0.9344 0.8567 0.61342 0.0
C7651 C 0.94908 0.85243 0.61915 0.0
C7652 C 0.96033 0.81605 0.63844 0.0
C7653 C 1.00272 0.80326 0.63939 0.0
C7654 C 0.98862 0.81194 0.63541 0.0
C7655 C 0.94929 0.84214 0.63191 0.0
C7656 C 0.96298 0.832 0.63386 0.0
H7657 H 0.03829 0.81849 0.62679 0.0
H7658 H 1.0142 0.80435 0.61627 0.0
H7659 H 0.97088 0.79415 0.64347 0.0
H7660 H 0.90954 0.83894 0.64011 0.0
H7661 H 0.93505 0.83316 0.65175 0.0
C7662 C 0.28796 0.06626 0.62342 0.0
C7663 C 0.27897 0.06021 0.63623 0.0
C7664 C 0.29609 0.05589 0.61309 0.0
C7665 C 0.30859 1.0139 0.60855 0.0
H7666 H 0.30555 0.02109 0.56347 0.0
C7667 C 0.32464 0.96477 0.5616 0.0
C7668 C 0.33043 0.96943 0.54673 0.0
C7669 C 0.31866 0.97606 0.57257 0.0
C7670 C 0.30691 0.01889 0.57597 0.0
H7671 H 0.27272 0.03887 0.64896 0.0
H7672 H 0.28519 0.02072 0.63033 0.0
H7673 H 0.29665 0.0409 0.5828 0.0
H7674 H 0.33333 0.98938 0.53117 0.0
H7675 H 0.32428 1.00901 0.5503 0.0
H7676 H 0.31915 0.99212 0.6019 0.0
C7677 C 0.28649 0.03342 0.62837 0.0
C7678 C 0.3017 0.03038 0.58712 0.0
C7679 C 0.27892 0.04382 0.63891 0.0
C7680 C 0.32931 0.98537 0.54268 0.0
C7681 C 0.32382 0.99672 0.55373 0.0
C7682 C 0.31405 1.00252 0.59742 0.0
C7683 C 0.29508 0.03927 0.61524 0.0
C7684 C 0.3022 0.02789 0.60352 0.0
C7685 C 0.31855 0.99234 0.56895 0.0
C7686 C 0.31307 1.00469 0.58091 0.0
H7687 H 0.28844 0.07889 0.62114 0.0
H7688 H 0.30293 0.06085 0.60329 0.0
H7689 H 0.30943 1.01172 0.62113 0.0
H7690 H 0.32467 0.95241 0.56472 0.0
H7691 H 0.31412 0.97191 0.58384 0.0
C7692 C 0.15267 0.3431 0.64563 0.0
C7693 C 0.13666 0.33886 0.6495 0.0
C7694 C 0.15895 0.33724 0.63122 0.0
C7695 C 0.14887 0.30262 0.60281 0.0
H7696 H 0.18574 0.32016 0.57987 0.0
C7697 C 0.156 0.31237 0.54349 0.0
C7698 C 0.17141 0.3178 0.53892 0.0
C7699 C 0.15419 0.30107 0.55505 0.0
C7700 C 0.17584 0.31463 0.58647 0.0
H7701 H 0.11359 0.32971 0.63999 0.0
H7702 H 0.12416 0.32105 0.61402 0.0
H7703 H 0.1761 0.33489 0.60282 0.0
H7704 H 0.19669 0.31356 0.53962 0.0
H7705 H 0.19355 0.29514 0.5611 0.0
H7706 H 0.14777 0.28301 0.58519 0.0
C7707 C 0.13227 0.32729 0.62268 0.0
C7708 C 0.17009 0.32338 0.59955 0.0
C7709 C 0.12609 0.33283 0.63729 0.0
C7710 C 0.18471 0.30981 0.54354 0.0
C7711 C 0.18286 0.2989 0.55551 0.0
C7712 C 0.15448 0.29392 0.58948 0.0
C7713 C 0.14898 0.32804 0.62023 0.0
C7714 C 0.15603 0.31794 0.60732 0.0
C7715 C 0.16788 0.29688 0.56314 0.0
C7716 C 0.16734 0.30043 0.58055 0.0
H7717 H 0.16097 0.348 0.65484 0.0
H7718 H 0.17184 0.33833 0.62967 0.0
H7719 H 0.13848 0.29765 0.6091 0.0
H7720 H 0.14558 0.31804 0.53946 0.0
H7721 H 0.14231 0.29883 0.56005 0.0
C7722 C 0.78984 0.04216 0.65988 0.0
C7723 C 0.8066 0.04434 0.66158 0.0
C7724 C 0.78215 0.04983 0.64806 0.0
C7725 C 0.7821 0.08008 0.62093 0.0
H7726 H 0.79362 0.05208 0.58464 0.0
C7727 C 0.8163 0.10509 0.57637 0.0
C7728 C 0.80475 0.11528 0.57162 0.0
C7729 C 0.8115 0.08938 0.57999 0.0
C7730 C 0.78977 0.05977 0.59455 0.0
H7731 H 0.82815 0.05657 0.65281 0.0
H7732 H 0.81477 0.07114 0.63343 0.0
H7733 H 0.79053 0.04143 0.61127 0.0
H7734 H 0.7802 0.11599 0.56398 0.0
H7735 H 0.77229 0.08875 0.56951 0.0
H7736 H 0.78266 0.09875 0.60462 0.0
C7737 C 0.80761 0.06348 0.64115 0.0
C7738 C 0.78786 0.05373 0.60967 0.0
C7739 C 0.81531 0.05533 0.65245 0.0
C7740 C 0.78941 0.10853 0.5673 0.0
C7741 C 0.7848 0.0928 0.57052 0.0
C7742 C 0.78354 0.086 0.60581 0.0
C7743 C 0.7912 0.06001 0.63831 0.0
C7744 C 0.78512 0.06415 0.62299 0.0
C7745 C 0.79519 0.08407 0.57897 0.0
C7746 C 0.78838 0.0761 0.59278 0.0
H7747 H 0.78294 0.03345 0.6667 0.0
H7748 H 0.7695 0.04692 0.64578 0.0
H7749 H 0.78042 0.08831 0.63117 0.0
H7750 H 0.82831 0.10982 0.57962 0.0
H7751 H 0.81981 0.08263 0.58635 0.0
C7752 C 0.03547 0.33386 0.4806 0.0
C7753 C 0.0427 0.32123 0.47234 0.0
C7754 C 0.02963 0.33181 0.49605 0.0
C7755 C 1.00769 0.29777 0.50566 0.0
H7756 H 0.99037 0.3258 0.53876 0.0
C7757 C 0.94828 0.32618 0.51565 0.0
C7758 C 0.94031 0.32296 0.52997 0.0
C7759 C 0.96205 0.31846 0.51156 0.0
C7760 C 0.9953 0.31752 0.52992 0.0
H7761 H 0.05292 0.29835 0.47499 0.0
H7762 H 0.04306 0.29503 0.50176 0.0
H7763 H 0.01846 0.3303 0.53064 0.0
H7764 H 0.93811 0.30697 0.54936 0.0
H7765 H 0.963 0.29409 0.54277 0.0
H7766 H 0.98391 0.28653 0.50333 0.0
C7767 C 0.04161 0.30633 0.49638 0.0
C7768 C 1.0113 0.32012 0.52532 0.0
C7769 C 0.04731 0.3083 0.48093 0.0
C7770 C 0.94448 0.30989 0.5385 0.0
C7771 C 0.9586 0.30252 0.53476 0.0
C7772 C 0.99163 0.29541 0.51003 0.0
C7773 C 0.03109 0.31713 0.50315 0.0
C7774 C 0.01733 0.31083 0.51254 0.0
C7775 C 0.96797 0.30768 0.52191 0.0
C7776 C 0.98522 0.30578 0.5216 0.0
H7777 H 0.03195 0.34405 0.47435 0.0
H7778 H 0.02168 0.34045 0.50112 0.0
H7779 H 1.01194 0.2906 0.49554 0.0
H7780 H 0.94558 0.33628 0.50897 0.0
H7781 H 0.96923 0.32257 0.50157 0.0
C7782 C 0.79736 1.0165 0.48078 0.0
C7783 C 0.78632 1.00605 0.47207 0.0
C7784 C 0.80493 1.01113 0.49412 0.0
C7785 C 0.82977 0.98785 0.49497 0.0
H7786 H 0.81749 0.94703 0.51217 0.0
C7787 C 0.83187 0.91724 0.48565 0.0
C7788 C 0.82641 0.91951 0.47014 0.0
C7789 C 0.83834 0.93051 0.49497 0.0
C7790 C 0.82175 0.95861 0.50813 0.0
H7791 H 0.77101 0.98422 0.47288 0.0
H7792 H 0.78404 0.97478 0.49579 0.0
H7793 H 0.80078 0.96929 0.51737 0.0
H7794 H 0.82993 0.93435 0.45004 0.0
H7795 H 0.8409 0.95726 0.46569 0.0
H7796 H 0.85041 0.97709 0.48534 0.0
C7797 C 0.78746 0.98685 0.49243 0.0
C7798 C 0.81192 0.97136 0.5109 0.0
C7799 C 0.77984 0.99229 0.47919 0.0
C7800 C 0.83319 0.93269 0.46232 0.0
C7801 C 0.8395 0.94603 0.47151 0.0
C7802 C 0.83999 0.9754 0.49291 0.0
C7803 C 0.80158 0.99523 0.49845 0.0
C7804 C 0.81502 0.9856 0.50302 0.0
C7805 C 0.83986 0.94563 0.48833 0.0
C7806 C 0.83516 0.96011 0.4979 0.0
H7807 H 0.80211 0.02746 0.47573 0.0
H7808 H 0.81525 0.01823 0.49907 0.0
H7809 H 0.8324 0.99837 0.48827 0.0
H7810 H 0.82779 0.90658 0.49161 0.0
H7811 H 0.83933 0.92953 0.50776 0.0
C7812 C 0.02759 0.821 0.44528 0.0
C7813 C 0.03382 0.82337 0.42996 0.0
C7814 C 0.03661 0.81429 0.45659 0.0
C7815 C 0.0595 0.79577 0.47648 0.0
H7816 H 0.09288 0.82932 0.48631 0.0
C7817 C 0.11797 0.79392 0.50605 0.0
C7818 C 0.12558 0.80894 0.51119 0.0
C7819 C 0.10149 0.79216 0.50402 0.0
C7820 C 0.08332 0.82007 0.48399 0.0
H7821 H 0.05412 0.82018 0.41413 0.0
H7822 H 0.07062 0.80941 0.4346 0.0
H7823 H 0.07704 0.83028 0.46231 0.0
H7824 H 0.12108 0.83241 0.52208 0.0
H7825 H 0.09228 0.82944 0.51757 0.0
H7826 H 0.06629 0.78526 0.49801 0.0
C7827 C 0.05838 0.81208 0.43743 0.0
C7828 C 0.07467 0.82037 0.47 0.0
C7829 C 0.04907 0.81837 0.42588 0.0
C7830 C 0.11589 0.82106 0.51702 0.0
C7831 C 0.0993 0.81919 0.51499 0.0
C7832 C 0.0684 0.7953 0.49045 0.0
C7833 C 0.05221 0.81037 0.4529 0.0
C7834 C 0.0628 0.80821 0.46617 0.0
C7835 C 0.09249 0.80551 0.50647 0.0
C7836 C 0.08035 0.80751 0.49432 0.0
H7837 H 0.01628 0.82556 0.44899 0.0
H7838 H 0.03196 0.8136 0.46866 0.0
H7839 H 0.05007 0.7865 0.47368 0.0
H7840 H 0.12453 0.78406 0.50131 0.0
H7841 H 0.09649 0.78137 0.49761 0.0
C7842 C 0.31026 0.19943 0.53655 0.0
C7843 C 0.32115 0.18747 0.53706 0.0
C7844 C 0.29715 0.19721 0.52622 0.0
C7845 C 0.28962 0.17132 0.48848 0.0
H7846 H 0.31328 0.20883 0.47289 0.0
C7847 C 0.34213 0.16476 0.44845 0.0
C7848 C 0.34 0.16961 0.43285 0.0
C7849 C 0.33179 0.16976 0.46052 0.0
C7850 C 0.3065 0.19834 0.47699 0.0
H7851 H 0.3255 0.16287 0.53051 0.0
H7852 H 0.30294 0.15885 0.51256 0.0
H7853 H 0.30027 0.21065 0.49865 0.0
H7854 H 0.32934 0.187 0.41874 0.0
H7855 H 0.31268 0.1973 0.44056 0.0
H7856 H 0.29798 0.1586 0.46751 0.0
C7857 C 0.30425 0.17013 0.51953 0.0
C7858 C 0.29869 0.19935 0.49172 0.0
C7859 C 0.3174 0.17237 0.52971 0.0
C7860 C 0.33092 0.18283 0.43061 0.0
C7861 C 0.32102 0.18837 0.44291 0.0
C7862 C 0.29787 0.17017 0.47399 0.0
C7863 C 0.29565 0.18341 0.5158 0.0
C7864 C 0.29224 0.18524 0.49859 0.0
C7865 C 0.32043 0.18079 0.4574 0.0
C7866 C 0.30753 0.18337 0.46901 0.0
H7867 H 0.3128 0.21105 0.54269 0.0
H7868 H 0.29009 0.20733 0.5244 0.0
H7869 H 0.28377 0.16051 0.49296 0.0
H7870 H 0.34942 0.15485 0.45053 0.0
H7871 H 0.33198 0.1643 0.47195 0.0
C7872 C 0.6562 0.03279 0.81663 0.0
C7873 C 0.64945 0.04707 0.82177 0.0
C7874 C 0.64634 0.01929 0.81222 0.0
C7875 C 0.60567 1.00309 0.82048 0.0
H7876 H 0.61488 0.9708 0.7873 0.0
C7877 C 0.56047 0.95984 0.78798 0.0
C7878 C 0.56438 0.94399 0.78474 0.0
C7879 C 0.57133 0.97064 0.79604 0.0
C7880 C 0.61245 0.97957 0.79687 0.0
H7881 H 0.62751 0.05945 0.82382 0.0
H7882 H 0.61016 0.03594 0.81534 0.0
H7883 H 0.63304 0.99473 0.79122 0.0
H7884 H 0.58183 0.92648 0.78847 0.0
H7885 H 0.60092 0.94563 0.80261 0.0
H7886 H 0.58448 0.98827 0.82534 0.0
C7887 C 0.62302 0.03494 0.81562 0.0
C7888 C 0.62272 0.99327 0.79902 0.0
C7889 C 0.63293 0.04843 0.82021 0.0
C7890 C 0.57864 0.93872 0.79079 0.0
C7891 C 0.5895 0.94956 0.79889 0.0
C7892 C 0.5953 0.98947 0.81818 0.0
C7893 C 0.62963 0.02009 0.81247 0.0
C7894 C 0.61917 1.00531 0.81056 0.0
C7895 C 0.58602 0.96564 0.80114 0.0
C7896 C 0.5985 0.97786 0.80614 0.0
H7897 H 0.66902 0.03169 0.81736 0.0
H7898 H 0.65175 1.00802 0.80975 0.0
H7899 H 0.60296 1.012 0.8298 0.0
H7900 H 0.54966 0.96423 0.78325 0.0
H7901 H 0.56881 0.98318 0.79719 0.0
C7902 C 0.07073 0.6487 0.76406 0.0
C7903 C 0.08211 0.65726 0.75495 0.0
C7904 C 0.07287 0.63279 0.7671 0.0
C7905 C 0.11215 0.61766 0.77129 0.0
H7906 H 0.09009 0.59453 0.80476 0.0
C7907 C 0.14385 0.61503 0.82661 0.0
C7908 C 0.15307 0.60184 0.82345 0.0
C7909 C 0.12853 0.61497 0.82001 0.0
C7910 C 0.09629 0.60087 0.79537 0.0
H7911 H 0.10078 0.65485 0.73716 0.0
H7912 H 0.10328 0.6265 0.74082 0.0
H7913 H 0.07469 0.60334 0.78233 0.0
H7914 H 0.15266 0.57722 0.81404 0.0
H7915 H 0.12594 0.57715 0.80248 0.0
H7916 H 0.13361 0.61543 0.78443 0.0
C7917 C 0.09388 0.63243 0.74726 0.0
C7918 C 0.08757 0.60589 0.7825 0.0
C7919 C 0.09228 0.64865 0.74489 0.0
C7920 C 0.14567 0.5875 0.81661 0.0
C7921 C 0.13038 0.58746 0.80998 0.0
C7922 C 0.12075 0.61256 0.78394 0.0
C7923 C 0.08616 0.62536 0.76043 0.0
C7924 C 0.09529 0.61512 0.77069 0.0
C7925 C 0.12245 0.60168 0.81036 0.0
C7926 C 0.11283 0.60481 0.79639 0.0
H7927 H 0.06227 0.65513 0.77118 0.0
H7928 H 0.06588 0.62762 0.77668 0.0
H7929 H 0.11881 0.62477 0.76276 0.0
H7930 H 0.14936 0.62623 0.83178 0.0
H7931 H 0.1226 0.62611 0.82034 0.0
C7932 C 0.45393 0.0631 0.79721 0.0
C7933 C 0.43891 0.06874 0.80119 0.0
C7934 C 0.46583 0.07336 0.79094 0.0
C7935 C 0.47341 0.1116 0.7722 0.0
H7936 H 0.51432 0.11247 0.79402 0.0
C7937 C 0.52367 0.16104 0.76537 0.0
C7938 C 0.5387 0.15533 0.76152 0.0
C7939 C 0.5112 0.15053 0.77023 0.0
C7940 C 0.50301 0.11219 0.78776 0.0
H7941 H 0.4242 0.08917 0.80102 0.0
H7942 H 0.44512 0.10713 0.79031 0.0
H7943 H 0.49277 0.09301 0.80107 0.0
H7944 H 0.55271 0.13446 0.76014 0.0
H7945 H 0.53105 0.11614 0.76895 0.0
H7946 H 0.48372 0.1309 0.75897 0.0
C7947 C 0.4476 0.09477 0.79184 0.0
C7948 C 0.49074 0.10108 0.79171 0.0
C7949 C 0.43568 0.08451 0.79803 0.0
C7950 C 0.54133 0.13919 0.7633 0.0
C7951 C 0.52894 0.12871 0.76824 0.0
C7952 C 0.48572 0.12272 0.76823 0.0
C7953 C 0.46284 0.08935 0.7886 0.0
C7954 C 0.4759 0.10069 0.78392 0.0
C7955 C 0.51376 0.13428 0.77151 0.0
C7956 C 0.50059 0.123 0.77598 0.0
H7957 H 0.45677 0.05104 0.79969 0.0
H7958 H 0.47752 0.06896 0.78838 0.0
H7959 H 0.46202 0.11142 0.76605 0.0
H7960 H 0.52144 0.1735 0.7642 0.0
H7961 H 0.49957 0.15504 0.77284 0.0
C7962 C 0.04773 0.4947 0.76728 0.0
C7963 C 0.04214 0.48785 0.78143 0.0
C7964 C 0.05165 0.51127 0.76707 0.0
C7965 C 0.05106 0.54903 0.79395 0.0
H7966 H 0.01671 0.55618 0.76499 0.0
C7967 C 0.99035 0.54913 0.81143 0.0
C7968 C 0.97856 0.55358 0.80105 0.0
C7969 C 1.00639 0.55444 0.80918 0.0
C7970 C 0.02667 0.55501 0.77298 0.0
H7971 H 0.03787 0.49313 0.80677 0.0
H7972 H 0.0447 0.52118 0.80646 0.0
H7973 H 0.03487 0.5359 0.75806 0.0
H7974 H 0.9734 0.56948 0.78287 0.0
H7975 H 1.00165 0.57829 0.77812 0.0
H7976 H 0.04092 0.56627 0.81018 0.0
C7977 C 0.04622 0.51406 0.79543 0.0
C7978 C 0.03727 0.54329 0.76886 0.0
C7979 C 0.04199 0.49774 0.79555 0.0
C7980 C 0.98258 0.56551 0.79036 0.0
C7981 C 0.99863 0.57068 0.78788 0.0
C7982 C 0.04021 0.56054 0.79827 0.0
C7983 C 0.05021 0.52126 0.78105 0.0
C7984 C 0.04805 0.5387 0.78027 0.0
C7985 C 1.01081 0.56402 0.79631 0.0
C7986 C 0.02668 0.56196 0.78868 0.0
H7987 H 0.04804 0.48752 0.75615 0.0
H7988 H 0.0547 0.51642 0.75577 0.0
H7989 H 0.05987 0.54632 0.80267 0.0
H7990 H 0.98751 0.54005 0.81993 0.0
H7991 H 1.0154 0.54912 0.81603 0.0
C7992 C 0.66083 0.13931 0.33425 0.0
C7993 C 0.67127 0.12705 0.33555 0.0
C7994 C 0.64465 0.13531 0.3309 0.0
C7995 C 0.62552 0.10338 0.30632 0.0
H7996 H 0.59175 0.13278 0.30833 0.0
C7997 C 0.60235 0.13737 0.2585 0.0
C7998 C 0.58863 0.14549 0.26245 0.0
C7999 C 0.60566 0.12395 0.26679 0.0
C8000 C 0.60053 0.12384 0.30789 0.0
H8001 H 0.67249 0.10191 0.33977 0.0
H8002 H 0.64415 0.0949 0.33436 0.0
H8003 H 0.6105 0.13265 0.33045 0.0
H8004 H 0.56538 0.14344 0.27376 0.0
H8005 H 0.57106 0.1201 0.28837 0.0
H8006 H 0.61657 0.09561 0.28296 0.0
C8007 C 0.64849 0.10741 0.33483 0.0
C8008 C 0.61136 0.124 0.3205 0.0
C8009 C 0.66465 0.11153 0.33836 0.0
C8010 C 0.5763 0.13759 0.27108 0.0
C8011 C 0.5796 0.12422 0.27946 0.0
C8012 C 0.61462 0.10316 0.29362 0.0
C8013 C 0.63876 0.1191 0.32961 0.0
C8014 C 0.62448 0.11453 0.31947 0.0
C8015 C 0.59518 0.11878 0.27897 0.0
C8016 C 0.6025 0.11402 0.29394 0.0
H8017 H 0.66561 0.15143 0.33236 0.0
H8018 H 0.63749 0.1447 0.32708 0.0
H8019 H 0.63567 0.09603 0.30504 0.0
H8020 H 0.61189 0.14307 0.25155 0.0
H8021 H 0.61761 0.11973 0.26575 0.0
C8022 C 0.04033 0.63928 0.26228 0.0
C8023 C 0.03826 0.65562 0.26105 0.0
C8024 C 0.02762 0.62902 0.26686 0.0
C8025 C 0.98816 0.62794 0.28596 0.0
H8026 H 0.9829 0.58644 0.26274 0.0
C8027 C 0.93407 0.58432 0.29537 0.0
C8028 C 0.93829 0.56927 0.29987 0.0
C8029 C 0.94551 0.59485 0.28885 0.0
C8030 C 0.98429 0.59801 0.26926 0.0
H8031 H 0.02167 0.67434 0.26425 0.0
H8032 H 0.99904 0.65621 0.27157 0.0
H8033 H 1.00475 0.60557 0.25558 0.0
H8034 H 0.9573 0.5528 0.29993 0.0
H8035 H 0.97728 0.5712 0.28819 0.0
H8036 H 0.96762 0.62031 0.29958 0.0
C8037 C 1.01059 0.65139 0.26929 0.0
C8038 C 0.99677 0.60887 0.26527 0.0
C8039 C 0.02344 0.66171 0.26498 0.0
C8040 C 0.95373 0.56435 0.29655 0.0
C8041 C 0.96516 0.57485 0.28988 0.0
C8042 C 0.97559 0.61712 0.28984 0.0
C8043 C 1.01256 0.63493 0.27001 0.0
C8044 C 0.99892 0.62382 0.27375 0.0
C8045 C 0.9612 0.59031 0.28649 0.0
C8046 C 0.97371 0.60206 0.2816 0.0
H8047 H 0.05154 0.63428 0.25903 0.0
H8048 H 0.02951 0.61641 0.26762 0.0
H8049 H 0.9897 0.63932 0.29277 0.0
H8050 H 0.92211 0.5882 0.29745 0.0
H8051 H 0.94224 0.60669 0.28606 0.0
C8052 C 0.48979 0.05428 0.27699 0.0
C8053 C 0.48422 0.04739 0.29106 0.0
C8054 C 0.50554 0.06083 0.27574 0.0
C8055 C 0.54516 0.05871 0.29722 0.0
H8056 H 0.55016 0.03159 0.25897 0.0
C8057 C 0.55426 0.9909 0.27646 0.0
C8058 C 0.54167 0.9866 0.28701 0.0
C8059 C 0.56079 1.00681 0.27647 0.0
C8060 C 0.54975 0.03969 0.26947 0.0
H8061 H 0.49063 0.04328 0.31546 0.0
H8062 H 0.5182 0.05319 0.31305 0.0
H8063 H 0.53093 0.05141 0.25943 0.0
H8064 H 0.52693 0.99571 0.30651 0.0
H8065 H 0.53807 0.0227 0.30652 0.0
H8066 H 0.56275 0.04513 0.30769 0.0
C8067 C 0.5104 0.05439 0.30298 0.0
C8068 C 0.53833 0.0511 0.26987 0.0
C8069 C 0.49444 0.04843 0.30437 0.0
C8070 C 0.53677 0.99825 0.29838 0.0
C8071 C 0.5434 1.01391 0.29854 0.0
C8072 C 0.55662 0.04725 0.29677 0.0
C8073 C 0.51653 0.05959 0.28823 0.0
C8074 C 0.53404 0.05859 0.28462 0.0
C8075 C 0.55501 0.01859 0.2872 0.0
C8076 C 0.55666 0.03581 0.28382 0.0
H8077 H 0.48227 0.0536 0.26654 0.0
H8078 H 0.50945 0.06532 0.26439 0.0
H8079 H 0.54321 0.06542 0.30841 0.0
H8080 H 0.55864 0.98216 0.26779 0.0
H8081 H 0.56955 1.01012 0.26744 0.0
C8082 C 0.0598 0.45792 0.28795 0.0
C8083 C 0.0652 0.44343 0.28154 0.0
C8084 C 0.07071 0.46954 0.29471 0.0
C8085 C 0.11177 0.47915 0.3083 0.0
H8086 H 0.10717 0.5177 0.28554 0.0
C8087 C 0.15706 0.53298 0.31513 0.0
C8088 C 0.14965 0.54659 0.32121 0.0
C8089 C 0.14783 0.52005 0.30819 0.0
C8090 C 0.10854 0.50704 0.29196 0.0
H8091 H 0.08544 0.4285 0.27978 0.0
H8092 H 0.10471 0.44918 0.2908 0.0
H8093 H 0.08789 0.49485 0.28098 0.0
H8094 H 0.1273 0.55822 0.32364 0.0
H8095 H 0.11107 0.53548 0.31162 0.0
H8096 H 0.13235 0.49156 0.31946 0.0
C8097 C 0.09213 0.45158 0.29048 0.0
C8098 C 0.09751 0.49406 0.28948 0.0
C8099 C 0.08116 0.43987 0.28394 0.0
C8100 C 0.13323 0.54785 0.31892 0.0
C8101 C 0.12398 0.53487 0.31208 0.0
C8102 C 0.12282 0.49222 0.31084 0.0
C8103 C 0.08705 0.46674 0.29507 0.0
C8104 C 0.09887 0.4802 0.29789 0.0
C8105 C 0.13119 0.52075 0.3072 0.0
C8106 C 0.12105 0.50631 0.30286 0.0
H8107 H 0.04743 0.46077 0.2867 0.0
H8108 H 0.06657 0.48112 0.29861 0.0
H8109 H 0.11303 0.46842 0.31473 0.0
H8110 H 0.16981 0.53193 0.31674 0.0
H8111 H 0.15354 0.50923 0.30439 0.0
C8112 C 0.80888 0.70052 0.03773 0.0
C8113 C 0.81964 0.68843 0.03828 0.0
C8114 C 0.79628 0.69885 0.02677 0.0
C8115 C 0.78524 0.67284 0.99009 0.0
H8116 H 0.81221 0.70673 0.97185 0.0
C8117 C 0.8358 0.65654 0.9519 0.0
C8118 C 0.83781 0.66292 0.93686 0.0
C8119 C 0.82524 0.66321 0.96286 0.0
C8120 C 0.80451 0.69723 0.97666 0.0
H8121 H 0.82446 0.66425 0.03052 0.0
H8122 H 0.8025 0.66095 1.0118 0.0
H8123 H 0.80049 0.71126 0.99801 0.0
H8124 H 0.83326 0.68296 0.92265 0.0
H8125 H 0.81544 0.69527 0.9424 0.0
H8126 H 0.79141 0.65806 0.96962 0.0
C8127 C 0.80352 0.67189 0.01936 0.0
C8128 C 0.79739 0.69989 0.99158 0.0
C8129 C 0.81626 0.6737 0.03003 0.0
C8130 C 0.83181 0.67787 0.93423 0.0
C8131 C 0.82125 0.68462 0.94527 0.0
C8132 C 0.79274 0.66999 0.9754 0.0
C8133 C 0.79469 0.68518 0.01621 0.0
C8134 C 0.78991 0.68684 0.99939 0.0
C8135 C 0.81697 0.67657 0.95905 0.0
C8136 C 0.80389 0.68164 0.96963 0.0
H8137 H 0.81135 0.71196 0.04424 0.0
H8138 H 0.78946 0.70914 0.0249 0.0
H8139 H 0.77869 0.66287 0.99547 0.0
H8140 H 0.8404 0.64511 0.95426 0.0
H8141 H 0.82277 0.65732 0.97389 0.0
C8142 C 0.82178 0.46357 0.06282 0.0
C8143 C 0.82873 0.46933 0.0488 0.0
C8144 C 0.81534 0.47421 0.07419 0.0
C8145 C 0.79778 0.51261 0.07801 0.0
H8146 H 0.81433 0.51666 0.12131 0.0
C8147 C 0.78354 0.5657 0.12007 0.0
C8148 C 0.77916 0.56204 0.1357 0.0
C8149 C 0.79042 0.55427 0.10999 0.0
C8150 C 0.80943 0.51553 0.10933 0.0
H8151 H 0.83409 0.49058 0.03551 0.0
H8152 H 0.82247 0.50887 0.05488 0.0
H8153 H 0.82323 0.49551 0.10272 0.0
H8154 H 0.78042 0.54463 0.15376 0.0
H8155 H 0.79153 0.52432 0.13599 0.0
H8156 H 0.78385 0.53239 0.08447 0.0
C8157 C 0.82209 0.49624 0.0572 0.0
C8158 C 0.81449 0.50343 0.09877 0.0
C8159 C 0.82869 0.48572 0.04609 0.0
C8160 C 0.78304 0.54742 0.14152 0.0
C8161 C 0.78967 0.5359 0.13142 0.0
C8162 C 0.79257 0.52456 0.08858 0.0
C8163 C 0.81544 0.49059 0.07134 0.0
C8164 C 0.80884 0.50207 0.08301 0.0
C8165 C 0.79302 0.53906 0.11542 0.0
C8166 C 0.79852 0.52628 0.10429 0.0
H8167 H 0.82136 0.45093 0.065 0.0
H8168 H 0.81017 0.46967 0.08507 0.0
H8169 H 0.79326 0.51166 0.06586 0.0
H8170 H 0.78091 0.57703 0.11536 0.0
H8171 H 0.7933 0.5572 0.09782 0.0
C8172 C 0.67663 0.83248 0.05863 0.0
C8173 C 0.68135 0.82774 0.04329 0.0
C8174 C 0.68148 0.82427 0.07148 0.0
C8175 C 0.67708 0.78847 0.08054 0.0
H8176 H 0.68511 0.81503 0.11913 0.0
C8177 C 0.62552 0.8098 0.1208 0.0
C8178 C 0.62948 0.82397 0.13024 0.0
C8179 C 0.63751 0.80248 0.11205 0.0
C8180 C 0.68256 0.80754 0.10836 0.0
H8181 H 0.69471 0.81086 0.02883 0.0
H8182 H 0.70225 0.79563 0.05145 0.0
H8183 H 0.70583 0.81342 0.0988 0.0
H8184 H 0.64648 0.84468 0.13276 0.0
H8185 H 0.66636 0.8332 0.11541 0.0
H8186 H 0.65276 0.78518 0.08799 0.0
C8187 C 0.6956 0.8062 0.05362 0.0
C8188 C 0.69474 0.80604 0.09703 0.0
C8189 C 0.69091 0.81463 0.04076 0.0
C8190 C 0.6434 0.83325 0.12642 0.0
C8191 C 0.65513 0.82631 0.11706 0.0
C8192 C 0.66448 0.79064 0.09124 0.0
C8193 C 0.69074 0.81084 0.06907 0.0
C8194 C 0.69054 0.79945 0.08176 0.0
C8195 C 0.65295 0.81018 0.1113 0.0
C8196 C 0.66671 0.80196 0.10422 0.0
H8197 H 0.66886 0.84224 0.06059 0.0
H8198 H 0.67694 0.82775 0.0832 0.0
H8199 H 0.67433 0.78189 0.06926 0.0
H8200 H 0.61443 0.80275 0.12272 0.0
H8201 H 0.63492 0.79036 0.10713 0.0
C8202 C 0.3086 0.61693 0.06734 0.0
C8203 C 0.32009 0.62892 0.0729 0.0
C8204 C 0.30714 0.60235 0.07458 0.0
C8205 C 0.3238 0.57914 0.10599 0.0
H8206 H 0.27947 0.57548 0.12069 0.0
C8207 C 0.30291 0.55201 0.16367 0.0
C8208 C 0.30677 0.53645 0.15918 0.0
C8209 C 0.29941 0.56237 0.15191 0.0
C8210 C 0.29182 0.57651 0.11662 0.0
H8211 H 0.34078 0.63442 0.08813 0.0
H8212 H 0.33839 0.60899 0.10078 0.0
H8213 H 0.28717 0.59339 0.09931 0.0
H8214 H 0.30653 0.51804 0.13984 0.0
H8215 H 0.30073 0.53614 0.11929 0.0
H8216 H 0.32845 0.5629 0.12385 0.0
C8217 C 0.3304 0.61071 0.09098 0.0
C8218 C 0.29621 0.58644 0.10429 0.0
C8219 C 0.33189 0.62524 0.08364 0.0
C8220 C 0.3043 0.53034 0.1434 0.0
C8221 C 0.30072 0.54054 0.13171 0.0
C8222 C 0.31941 0.56938 0.11832 0.0
C8223 C 0.31721 0.59979 0.08739 0.0
C8224 C 0.31226 0.58779 0.09889 0.0
C8225 C 0.29946 0.55681 0.13582 0.0
C8226 C 0.30346 0.56799 0.12357 0.0
H8227 H 0.29944 0.61961 0.05907 0.0
H8228 H 0.29713 0.59388 0.07136 0.0
H8229 H 0.33623 0.5801 0.10219 0.0
H8230 H 0.30322 0.55618 0.1761 0.0
H8231 H 0.29808 0.5749 0.15518 0.0
C8232 C 0.43193 0.34948 0.12464 0.0
C8233 C 0.43357 0.3505 0.10803 0.0
C8234 C 0.44392 0.34222 0.13258 0.0
C8235 C 0.47518 0.31653 0.11689 0.0
H8236 H 0.48222 0.30972 0.16144 0.0
C8237 C 0.53101 0.31399 0.13559 0.0
C8238 C 0.53231 0.31827 0.15188 0.0
C8239 C 0.51839 0.30344 0.13012 0.0
C8240 C 0.48026 0.31095 0.14883 0.0
H8241 H 0.45115 0.35669 0.09 0.0
H8242 H 0.47346 0.34716 0.10469 0.0
H8243 H 0.46317 0.32814 0.15423 0.0
H8244 H 0.5245 0.31196 0.17556 0.0
H8245 H 0.50219 0.29377 0.16584 0.0
H8246 H 0.49099 0.29811 0.11124 0.0
C8247 C 0.4619 0.34771 0.11054 0.0
C8248 C 0.46961 0.32214 0.14479 0.0
C8249 C 0.44925 0.35376 0.10233 0.0
C8250 C 0.52315 0.30936 0.1628 0.0
C8251 C 0.51042 0.2989 0.15717 0.0
C8252 C 0.48528 0.30477 0.12087 0.0
C8253 C 0.45848 0.33957 0.12462 0.0
C8254 C 0.46819 0.32622 0.12891 0.0
C8255 C 0.50609 0.29891 0.14092 0.0
C8256 C 0.48953 0.30325 0.13693 0.0
H8257 H 0.4201 0.34918 0.13004 0.0
H8258 H 0.44094 0.33709 0.14387 0.0
H8259 H 0.4732 0.31824 0.10435 0.0
H8260 H 0.53794 0.32067 0.127 0.0
H8261 H 0.51665 0.3022 0.11732 0.0
C8262 C 0.3314 0.43523 0.96897 0.0
C8263 C 0.31885 0.42763 0.97751 0.0
C8264 C 0.34375 0.44408 0.9774 0.0
C8265 C 0.33058 0.46741 1.01407 0.0
H8266 H 0.33122 0.49656 0.97996 0.0
C8267 C 0.29833 0.51619 0.97842 0.0
C8268 C 0.28813 0.5038 0.9713 0.0
C8269 C 0.30697 0.51338 0.99211 0.0
C8270 C 0.33125 0.48895 0.99002 0.0
H8271 H 0.31288 0.41907 1.00089 0.0
H8272 H 0.33391 0.43459 1.01495 0.0
H8273 H 0.34888 0.47536 0.97889 0.0
H8274 H 0.27505 0.48115 0.97527 0.0
H8275 H 0.2897 0.4764 0.99922 0.0
H8276 H 0.31176 0.48083 0.02463 0.0
C8277 C 0.33365 0.43487 1.00206 0.0
C8278 C 0.34139 0.47646 0.98927 0.0
C8279 C 0.3214 0.42575 0.9939 0.0
C8280 C 0.28319 0.49073 0.98034 0.0
C8281 C 0.29164 0.48803 0.99418 0.0
C8282 C 0.32035 0.48003 1.01494 0.0
C8283 C 0.34202 0.44717 0.99408 0.0
C8284 C 0.33968 0.46421 1.00008 0.0
C8285 C 0.30518 0.49822 0.99859 0.0
C8286 C 0.31983 0.4902 1.00226 0.0
H8287 H 0.33079 0.43606 0.95614 0.0
H8288 H 0.35238 0.451 0.97056 0.0
H8289 H 0.32971 0.45908 0.02343 0.0
H8290 H 0.30185 0.5266 0.97181 0.0
H8291 H 0.3171 0.52163 0.99553 0.0
C8292 C 0.60394 0.30534 1.0006 0.0
C8293 C 0.61527 0.30331 0.98833 0.0
C8294 C 0.58777 0.30035 0.99793 0.0
C8295 C 0.56089 0.2769 0.96832 0.0
H8296 H 0.53515 0.31353 0.97333 0.0
C8297 C 0.53954 0.31001 0.92088 0.0
C8298 C 0.52832 0.32142 0.92425 0.0
C8299 C 0.54094 0.29757 0.93105 0.0
C8300 C 0.54169 0.30278 0.97224 0.0
H8301 H 0.61872 0.29493 0.96369 0.0
H8302 H 0.59079 0.28661 0.95893 0.0
H8303 H 0.55847 0.3124 0.98995 0.0
H8304 H 0.50779 0.3268 0.93902 0.0
H8305 H 0.51037 0.30551 0.95673 0.0
H8306 H 0.5453 0.26847 0.94899 0.0
C8307 C 0.59426 0.2914 0.97078 0.0
C8308 C 0.55518 0.30219 0.98184 0.0
C8309 C 0.61024 0.2964 0.97341 0.0
C8310 C 0.51678 0.31858 0.93618 0.0
C8311 C 0.51815 0.30615 0.94636 0.0
C8312 C 0.54749 0.27758 0.95857 0.0
C8313 C 0.58283 0.29325 0.98298 0.0
C8314 C 0.56568 0.29001 0.97887 0.0
C8315 C 0.53133 0.29669 0.94488 0.0
C8316 C 0.53873 0.29131 0.95946 0.0
H8317 H 0.60759 0.31057 1.01223 0.0
H8318 H 0.57914 0.30214 1.00745 0.0
H8319 H 0.56861 0.26712 0.96616 0.0
H8320 H 0.54843 0.31178 0.91155 0.0
H8321 H 0.55114 0.29032 0.92941 0.0
C8322 C 0.4534 0.84092 0.02338 0.0
C8323 C 0.44522 0.83204 0.0348 0.0
C8324 C 0.46603 0.83481 1.01484 0.0
C8325 C 0.49969 0.81874 0.0256 0.0
H8326 H 0.51075 0.81875 0.98064 0.0
C8327 C 0.55034 0.81188 0.97891 0.0
C8328 C 0.54768 0.8242 0.9686 0.0
C8329 C 0.54478 0.813 0.99459 0.0
C8330 C 0.50778 0.81863 0.99325 0.0
H8331 H 0.4431 0.80899 0.04556 0.0
H8332 H 0.46636 0.79864 0.03153 0.0
H8333 H 0.48265 0.81491 0.98846 0.0
H8334 H 0.5421 0.84907 0.96793 0.0
H8335 H 0.53164 0.85048 0.99477 0.0
H8336 H 0.5249 0.82373 0.0303 0.0
C8337 C 0.46237 0.81019 0.02867 0.0
C8338 C 0.49182 0.81613 0.99764 0.0
C8339 C 0.44913 0.81615 0.03664 0.0
C8340 C 0.54382 0.83915 0.97538 0.0
C8341 C 0.53805 0.84011 0.99103 0.0
C8342 C 0.51577 0.82139 0.02118 0.0
C8343 C 0.47124 0.81988 0.01827 0.0
C8344 C 0.48765 0.81669 1.01381 0.0
C8345 C 0.53606 0.82607 0.99948 0.0
C8346 C 0.51973 0.82193 1.00499 0.0
H8347 H 0.45169 0.85322 0.02248 0.0
H8348 H 0.47299 0.84263 1.0071 0.0
H8349 H 0.49652 0.8196 0.03817 0.0
H8350 H 0.55354 0.80024 0.97425 0.0
H8351 H 0.54385 0.8022 1.00121 0.0
loop_
_geom_bond_atom_site_label_1
_geom_bond_atom_site_label_2
_geom_bond_distance
_geom_bond_site_symmetry_2
_ccdc_geom_bond_type
C0 C2 1.422 . S
C0 C4 1.415 . S
C0 N6 1.369 1_655 S
C1 C2 1.421 . S
C1 C3 1.417 . S
C1 C13 1.422 . S
C2 C0 1.422 . S
C2 C1 1.421 . S
C2 N12 1.359 1_655 S
C3 C1 1.417 . S
C3 C5 1.329 . S
C3 H22 0.930 . S
C4 C0 1.415 . S
C4 C5 1.437 . S
C4 C8 1.413 . S
C5 C3 1.329 . S
C5 C4 1.437 . S
C5 H27 0.929 . S
N6 C0 1.369 1_455 S
N6 C7 1.338 . S
N6 Gd11 2.622 . S
C7 N6 1.338 . S
C7 C9 1.378 1_455 S
C7 H19 0.929 . S
C8 C4 1.413 . S
C8 C9 1.348 . S
C8 H24 0.931 . S
C9 C7 1.378 1_655 S
C9 C8 1.348 . S
C9 H25 0.930 . S
Gd10 N30 2.622 . S
Gd10 N37 2.570 . S
Gd10 O44 2.353 . S
Gd10 O45 2.468 . S
Gd10 O46 2.427 . S
Gd10 O48 2.388 . S
Gd10 O49 2.386 . S
Gd10 O53 2.307 . S
Gd10 C63 2.805 . S
Gd11 N6 2.622 . S
Gd11 N12 2.570 . S
Gd11 O43 2.386 . S
Gd11 O47 2.307 . S
Gd11 O50 2.353 . S
Gd11 O51 2.468 . S
Gd11 O52 2.427 . S
Gd11 O54 2.388 . S
Gd11 C75 2.805 . S
N12 C2 1.359 1_455 S
N12 Gd11 2.570 . S
N12 C14 1.347 . S
C13 C1 1.422 . S
C13 C15 1.321 . S
C13 H21 0.931 . S
C14 N12 1.347 . S
C14 C15 1.363 1_455 S
C14 H16 0.956 . S
C15 C13 1.321 . S
C15 C14 1.363 1_655 S
C15 H17 0.930 . S
H16 C14 0.956 . S
H17 C15 0.930 . S
H18 C41 0.931 . S
H19 C7 0.929 . S
H20 C42 0.930 . S
H21 C13 0.931 . S
H22 C3 0.930 . S
H23 C32 0.929 . S
H24 C8 0.931 . S
H25 C9 0.930 . S
H26 C64 0.930 . S
H27 C5 0.929 . S
H28 C33 0.931 . S
H29 C34 0.930 . S
N30 Gd10 2.622 . S
N30 C31 1.369 . S
N30 C32 1.338 . S
C31 N30 1.369 . S
C31 C35 1.415 . S
C31 C38 1.422 . S
C32 H23 0.929 . S
C32 N30 1.338 . S
C32 C34 1.378 . S
C33 H28 0.931 . S
C33 C34 1.348 . S
C33 C35 1.413 . S
C34 H29 0.930 . S
C34 C32 1.378 . S
C34 C33 1.348 . S
C35 C31 1.415 . S
C35 C33 1.413 . S
C35 C65 1.437 . S
H36 C65 0.929 . S
N37 Gd10 2.570 . S
N37 C38 1.359 . S
N37 C41 1.343 . S
C38 C31 1.422 . S
C38 N37 1.359 . S
C38 C40 1.421 . S
C39 C40 1.422 . S
C39 C42 1.321 . S
C39 H66 0.931 . S
C40 C38 1.421 . S
C40 C39 1.422 . S
C40 C64 1.417 . S
C41 H18 0.931 . S
C41 N37 1.343 . S
C41 C42 1.390 . S
C42 H20 0.930 . S
C42 C39 1.321 . S
C42 C41 1.390 . S
O43 Gd11 2.386 . S
O43 C55 1.265 . S
O44 Gd10 2.353 . S
O44 C55 1.242 . S
O45 Gd10 2.468 . S
O45 C63 1.263 . S
O46 Gd10 2.427 . S
O46 C63 1.252 . S
O47 Gd11 2.307 . S
O47 C56 1.261 . S
O48 Gd10 2.388 . S
O48 C56 1.252 . S
O49 Gd10 2.386 . S
O49 C67 1.265 . S
O50 Gd11 2.353 . S
O50 C67 1.242 . S
O51 Gd11 2.468 . S
O51 C75 1.263 . S
O52 Gd11 2.427 . S
O52 C75 1.252 . S
O53 Gd10 2.307 . S
O53 C68 1.261 . S
O54 Gd11 2.388 . S
O54 C68 1.252 . S
C55 O43 1.265 . S
C55 O44 1.242 . S
C56 O47 1.261 . S
C56 O48 1.252 . S
C57 C60 1.394 . S
C57 C62 1.370 . S
C57 C63 1.500 . S
C58 C61 1.383 . S
C58 C62 1.395 . S
C59 C60 1.396 . S
C59 C61 1.365 . S
C59 H76 0.929 . S
C60 C57 1.394 . S
C60 C59 1.396 . S
C60 H77 0.930 . S
C61 C58 1.383 . S
C61 C59 1.365 . S
C61 H78 0.931 . S
C62 C57 1.370 . S
C62 C58 1.395 . S
C62 H79 0.930 . S
C63 Gd10 2.805 . S
C63 O45 1.263 . S
C63 O46 1.252 . S
C63 C57 1.500 . S
C64 H26 0.930 . S
C64 C40 1.417 . S
C64 C65 1.329 . S
C65 C35 1.437 . S
C65 H36 0.929 . S
C65 C64 1.329 . S
H66 C39 0.931 . S
C67 O49 1.265 . S
C67 O50 1.242 . S
C68 O53 1.261 . S
C68 O54 1.252 . S
C69 C72 1.394 . S
C69 C74 1.370 . S
C69 C75 1.500 . S
C70 C73 1.367 1_455 S
C70 C74 1.395 . S
C71 C72 1.411 . S
C71 C73 1.361 1_455 S
C71 H80 0.917 1_455 S
C72 C69 1.394 . S
C72 C71 1.411 . S
C72 H81 0.930 . S
C73 C70 1.367 1_655 S
C73 C71 1.361 1_655 S
C73 H82 0.953 . S
C74 C69 1.370 . S
C74 C70 1.395 . S
C74 H83 0.930 . S
C75 Gd11 2.805 . S
C75 O51 1.263 . S
C75 O52 1.252 . S
C75 C69 1.500 . S
H76 C59 0.929 . S
H77 C60 0.930 . S
H78 C61 0.931 . S
H79 C62 0.930 . S
H80 C71 0.917 1_655 S
H81 C72 0.930 . S
H82 C73 0.953 . S
H83 C74 0.930 . S
C84 C86 1.422 . S
C84 C88 1.415 . S
C84 N90 1.369 . S
C85 C86 1.421 . S
C85 C87 1.417 . S
C85 C97 1.422 . S
C86 C84 1.422 . S
C86 C85 1.421 . S
C86 N96 1.359 . S
C87 C85 1.417 . S
C87 C89 1.329 . S
C87 H106 0.930 . S
C88 C84 1.415 . S
C88 C89 1.437 . S
C88 C92 1.413 . S
C89 C87 1.329 . S
C89 C88 1.437 . S
C89 H111 0.929 . S
N90 C84 1.369 . S
N90 C91 1.338 . S
N90 Gd95 2.622 1_565 S
C91 N90 1.338 . S
C91 C93 1.378 . S
C91 H103 0.929 . S
C92 C88 1.413 . S
C92 C93 1.348 . S
C92 H108 0.931 . S
C93 C91 1.378 . S
C93 C92 1.348 . S
C93 H109 0.930 . S
Gd94 N114 2.622 . S
Gd94 N121 2.570 . S
Gd94 O128 2.353 . S
Gd94 O129 2.468 . S
Gd94 O130 2.427 . S
Gd94 O132 2.388 . S
Gd94 O133 2.386 . S
Gd94 O137 2.307 . S
Gd94 C147 2.805 . S
Gd95 N90 2.622 1_545 S
Gd95 N96 2.570 1_545 S
Gd95 O127 2.389 . S
Gd95 O131 2.307 . S
Gd95 O134 2.353 . S
Gd95 O135 2.468 1_545 S
Gd95 O136 2.427 1_545 S
Gd95 O138 2.388 . S
Gd95 C159 2.805 1_545 S
N96 C86 1.359 . S
N96 Gd95 2.570 1_565 S
N96 C98 1.343 . S
C97 C85 1.422 . S
C97 C99 1.321 . S
C97 H105 0.931 . S
C98 N96 1.343 . S
C98 C99 1.390 . S
C98 H100 0.931 . S
C99 C97 1.321 . S
C99 C98 1.390 . S
C99 H101 0.930 . S
H100 C98 0.931 . S
H101 C99 0.930 . S
H102 C125 0.931 . S
H103 C91 0.929 . S
H104 C126 0.930 . S
H105 C97 0.931 . S
H106 C87 0.930 . S
H107 C116 0.929 . S
H108 C92 0.931 . S
H109 C93 0.930 . S
H110 C148 0.930 . S
H111 C89 0.929 . S
H112 C117 0.931 . S
H113 C118 0.930 . S
N114 Gd94 2.622 . S
N114 C115 1.369 . S
N114 C116 1.338 . S
C115 N114 1.369 . S
C115 C119 1.415 . S
C115 C122 1.422 . S
C116 H107 0.929 . S
C116 N114 1.338 . S
C116 C118 1.378 . S
C117 H112 0.931 . S
C117 C118 1.348 . S
C117 C119 1.413 . S
C118 H113 0.930 . S
C118 C116 1.378 . S
C118 C117 1.348 . S
C119 C115 1.415 . S
C119 C117 1.413 . S
C119 C149 1.437 . S
H120 C149 0.929 . S
N121 Gd94 2.570 . S
N121 C122 1.359 . S
N121 C125 1.343 . S
C122 C115 1.422 . S
C122 N121 1.359 . S
C122 C124 1.421 . S
C123 C124 1.422 . S
C123 C126 1.321 . S
C123 H150 0.931 . S
C124 C122 1.421 . S
C124 C123 1.422 . S
C124 C148 1.417 . S
C125 H102 0.931 . S
C125 N121 1.343 . S
C125 C126 1.390 . S
C126 H104 0.930 . S
C126 C123 1.321 . S
C126 C125 1.390 . S
O127 Gd95 2.389 . S
O127 C139 1.282 . S
O128 Gd94 2.353 . S
O128 C139 1.242 . S
O129 Gd94 2.468 . S
O129 C147 1.263 . S
O130 Gd94 2.427 . S
O130 C147 1.252 . S
O131 Gd95 2.307 . S
O131 C140 1.261 . S
O132 Gd94 2.388 . S
O132 C140 1.252 . S
O133 Gd94 2.386 . S
O133 C151 1.265 . S
O134 Gd95 2.353 . S
O134 C151 1.242 . S
O135 Gd95 2.468 1_565 S
O135 C159 1.263 . S
O136 Gd95 2.427 1_565 S
O136 C159 1.252 . S
O137 Gd94 2.307 . S
O137 C152 1.261 . S
O138 Gd95 2.388 . S
O138 C152 1.252 . S
C139 O127 1.282 . S
C139 O128 1.242 . S
C140 O131 1.261 . S
C140 O132 1.252 . S
C141 C144 1.394 . S
C141 C146 1.370 . S
C141 C147 1.500 . S
C142 C145 1.383 . S
C142 C146 1.395 . S
C143 C144 1.396 . S
C143 C145 1.365 . S
C143 H160 0.929 . S
C144 C141 1.394 . S
C144 C143 1.396 . S
C144 H161 0.930 . S
C145 C142 1.383 . S
C145 C143 1.365 . S
C145 H162 0.931 . S
C146 C141 1.370 . S
C146 C142 1.395 . S
C146 H163 0.930 . S
C147 Gd94 2.805 . S
C147 O129 1.263 . S
C147 O130 1.252 . S
C147 C141 1.500 . S
C148 H110 0.930 . S
C148 C124 1.417 . S
C148 C149 1.329 . S
C149 C119 1.437 . S
C149 H120 0.929 . S
C149 C148 1.329 . S
H150 C123 0.931 . S
C151 O133 1.265 . S
C151 O134 1.242 . S
C152 O137 1.261 . S
C152 O138 1.252 . S
C153 C156 1.394 . S
C153 C158 1.370 . S
C153 C159 1.500 . S
C154 C157 1.383 . S
C154 C158 1.395 . S
C155 C156 1.396 . S
C155 C157 1.365 . S
C155 H164 0.929 . S
C156 C153 1.394 . S
C156 C155 1.396 . S
C156 H165 0.930 . S
C157 C154 1.383 . S
C157 C155 1.365 . S
C157 H166 0.931 . S
C158 C153 1.370 . S
C158 C154 1.395 . S
C158 H167 0.930 . S
C159 Gd95 2.805 1_565 S
C159 O135 1.263 . S
C159 O136 1.252 . S
C159 C153 1.500 . S
H160 C143 0.929 . S
H161 C144 0.930 . S
H162 C145 0.931 . S
H163 C146 0.930 . S
H164 C155 0.929 . S
H165 C156 0.930 . S
H166 C157 0.931 . S
H167 C158 0.930 . S
C168 C170 1.422 . S
C168 C172 1.415 . S
C168 N174 1.369 . S
C169 C170 1.421 . S
C169 C171 1.417 . S
C169 C181 1.422 . S
C170 C168 1.422 . S
C170 C169 1.421 . S
C170 N180 1.359 . S
C171 C169 1.417 . S
C171 C173 1.329 . S
C171 H190 0.930 . S
C172 C168 1.415 . S
C172 C173 1.437 . S
C172 C176 1.413 . S
C173 C171 1.329 . S
C173 C172 1.437 . S
C173 H195 0.929 . S
N174 C168 1.369 . S
N174 C175 1.338 . S
N174 Gd179 2.622 . S
C175 N174 1.338 . S
C175 C177 1.378 . S
C175 H187 0.929 . S
C176 C172 1.413 . S
C176 C177 1.348 . S
C176 H192 0.931 . S
C177 C175 1.378 . S
C177 C176 1.348 . S
C177 H193 0.930 . S
Gd178 N198 2.622 . S
Gd178 N205 2.570 . S
Gd178 O212 2.353 1_655 S
Gd178 O213 2.468 . S
Gd178 O214 2.427 . S
Gd178 O216 2.388 . S
Gd178 O217 2.386 . S
Gd178 O221 2.307 . S
Gd178 C231 2.805 . S
Gd179 N174 2.622 . S
Gd179 N180 2.570 . S
Gd179 O211 2.386 . S
Gd179 O215 2.307 . S
Gd179 O218 2.314 1_455 S
Gd179 O219 2.468 . S
Gd179 O220 2.427 . S
Gd179 O222 2.388 . S
Gd179 C243 2.805 . S
N180 C170 1.359 . S
N180 Gd179 2.570 . S
N180 C182 1.343 . S
C181 C169 1.422 . S
C181 C183 1.321 . S
C181 H189 0.931 . S
C182 N180 1.343 . S
C182 C183 1.390 . S
C182 H184 0.931 . S
C183 C181 1.321 . S
C183 C182 1.390 . S
C183 H185 0.930 . S
H184 C182 0.931 . S
H185 C183 0.930 . S
H186 C209 0.931 . S
H187 C175 0.929 . S
H188 C210 0.930 . S
H189 C181 0.931 . S
H190 C171 0.930 . S
H191 C200 0.929 . S
H192 C176 0.931 . S
H193 C177 0.930 . S
H194 C232 0.930 . S
H195 C173 0.929 . S
H196 C201 0.931 . S
H197 C202 0.930 . S
N198 Gd178 2.622 . S
N198 C199 1.369 . S
N198 C200 1.338 . S
C199 N198 1.369 . S
C199 C203 1.415 . S
C199 C206 1.422 . S
C200 H191 0.929 . S
C200 N198 1.338 . S
C200 C202 1.378 . S
C201 H196 0.931 . S
C201 C202 1.348 . S
C201 C203 1.413 . S
C202 H197 0.930 . S
C202 C200 1.378 . S
C202 C201 1.348 . S
C203 C199 1.415 . S
C203 C201 1.413 . S
C203 C233 1.437 . S
H204 C233 0.929 . S
N205 Gd178 2.570 . S
N205 C206 1.359 . S
N205 C209 1.343 . S
C206 C199 1.422 . S
C206 N205 1.359 . S
C206 C208 1.421 . S
C207 C208 1.422 . S
C207 C210 1.321 . S
C207 H234 0.931 . S
C208 C206 1.421 . S
C208 C207 1.422 . S
C208 C232 1.417 . S
C209 H186 0.931 . S
C209 N205 1.343 . S
C209 C210 1.390 . S
C210 H188 0.930 . S
C210 C207 1.321 . S
C210 C209 1.390 . S
O211 Gd179 2.386 . S
O211 C223 1.265 . S
O212 Gd178 2.353 1_455 S
O212 C223 1.242 . S
O213 Gd178 2.468 . S
O213 C231 1.263 . S
O214 Gd178 2.427 . S
O214 C231 1.252 . S
O215 Gd179 2.307 . S
O215 C224 1.261 . S
O216 Gd178 2.388 . S
O216 C224 1.252 1_655 S
O217 Gd178 2.386 . S
O217 C235 1.265 . S
O218 Gd179 2.314 1_655 S
O218 C235 1.286 . S
O219 Gd179 2.468 . S
O219 C243 1.263 . S
O220 Gd179 2.427 . S
O220 C243 1.252 . S
O221 Gd178 2.307 . S
O221 C236 1.261 . S
O222 Gd179 2.388 . S
O222 C236 1.252 1_455 S
C223 O211 1.265 . S
C223 O212 1.242 . S
C224 O215 1.261 . S
C224 O216 1.252 1_455 S
C225 C228 1.394 . S
C225 C230 1.370 . S
C225 C231 1.500 . S
C226 C229 1.383 . S
C226 C230 1.395 . S
C227 C228 1.396 . S
C227 C229 1.365 . S
C227 H244 0.929 . S
C228 C225 1.394 . S
C228 C227 1.396 . S
C228 H245 0.930 . S
C229 C226 1.383 . S
C229 C227 1.365 . S
C229 H246 0.931 . S
C230 C225 1.370 . S
C230 C226 1.395 . S
C230 H247 0.930 . S
C231 Gd178 2.805 . S
C231 O213 1.263 . S
C231 O214 1.252 . S
C231 C225 1.500 . S
C232 H194 0.930 . S
C232 C208 1.417 . S
C232 C233 1.329 . S
C233 C203 1.437 . S
C233 H204 0.929 . S
C233 C232 1.329 . S
H234 C207 0.931 . S
C235 O217 1.265 . S
C235 O218 1.286 . S
C236 O221 1.261 . S
C236 O222 1.252 1_655 S
C237 C240 1.394 . S
C237 C242 1.370 . S
C237 C243 1.500 . S
C238 C241 1.383 . S
C238 C242 1.395 . S
C239 C240 1.396 . S
C239 C241 1.365 . S
C239 H248 0.929 . S
C240 C237 1.394 . S
C240 C239 1.396 . S
C240 H249 0.930 . S
C241 C238 1.383 . S
C241 C239 1.365 . S
C241 H250 0.931 . S
C242 C237 1.370 . S
C242 C238 1.395 . S
C242 H251 0.930 . S
C243 Gd179 2.805 . S
C243 O219 1.263 . S
C243 O220 1.252 . S
C243 C237 1.500 . S
H244 C227 0.929 . S
H245 C228 0.930 . S
H246 C229 0.931 . S
H247 C230 0.930 . S
H248 C239 0.929 . S
H249 C240 0.930 . S
H250 C241 0.931 . S
H251 C242 0.930 . S
C252 C254 1.422 . S
C252 C256 1.415 . S
C252 N258 1.369 . S
C253 C254 1.421 . S
C253 C255 1.417 . S
C253 C265 1.422 . S
C254 C252 1.422 . S
C254 C253 1.421 . S
C254 N264 1.359 . S
C255 C253 1.417 . S
C255 C257 1.329 . S
C255 H274 0.930 . S
C256 C252 1.415 . S
C256 C257 1.437 . S
C256 C260 1.413 . S
C257 C255 1.329 . S
C257 C256 1.437 . S
C257 H279 0.929 . S
N258 C252 1.369 . S
N258 C259 1.338 . S
N258 Gd263 2.622 . S
C259 N258 1.338 . S
C259 C261 1.378 . S
C259 H271 0.929 . S
C260 C256 1.413 . S
C260 C261 1.348 . S
C260 H276 0.931 . S
C261 C259 1.378 . S
C261 C260 1.348 . S
C261 H277 0.930 . S
Gd262 N282 2.622 . S
Gd262 N289 2.570 . S
Gd262 O296 2.353 . S
Gd262 O297 2.468 . S
Gd262 O298 2.427 . S
Gd262 O300 2.388 . S
Gd262 O301 2.386 . S
Gd262 O305 2.307 . S
Gd262 C315 2.805 . S
Gd263 N258 2.622 . S
Gd263 N264 2.570 . S
Gd263 O295 2.386 . S
Gd263 O299 2.307 . S
Gd263 O302 2.353 . S
Gd263 O303 2.468 . S
Gd263 O304 2.427 . S
Gd263 O306 2.388 . S
Gd263 C327 2.805 . S
N264 C254 1.359 . S
N264 Gd263 2.570 . S
N264 C266 1.343 . S
C265 C253 1.422 . S
C265 C267 1.321 . S
C265 H273 0.931 . S
C266 N264 1.343 . S
C266 C267 1.390 . S
C266 H268 0.931 . S
C267 C265 1.321 . S
C267 C266 1.390 . S
C267 H269 0.930 . S
H268 C266 0.931 . S
H269 C267 0.930 . S
H270 C293 0.931 . S
H271 C259 0.929 . S
H272 C294 0.930 . S
H273 C265 0.931 . S
H274 C255 0.930 . S
H275 C284 0.929 . S
H276 C260 0.931 . S
H277 C261 0.930 . S
H278 C316 0.930 1_565 S
H279 C257 0.929 . S
H280 C285 0.931 . S
H281 C286 0.930 . S
N282 Gd262 2.622 . S
N282 C283 1.369 . S
N282 C284 1.338 . S
C283 N282 1.369 . S
C283 C287 1.415 . S
C283 C290 1.422 . S
C284 H275 0.929 . S
C284 N282 1.338 . S
C284 C286 1.378 . S
C285 H280 0.931 . S
C285 C286 1.348 . S
C285 C287 1.413 . S
C286 H281 0.930 . S
C286 C284 1.378 . S
C286 C285 1.348 . S
C287 C283 1.415 . S
C287 C285 1.413 . S
C287 C317 1.437 . S
H288 C317 0.929 1_565 S
N289 Gd262 2.570 . S
N289 C290 1.359 . S
N289 C293 1.343 . S
C290 C283 1.422 . S
C290 N289 1.359 . S
C290 C292 1.421 . S
C291 C292 1.422 . S
C291 C294 1.321 . S
C291 H318 0.931 . S
C292 C290 1.421 . S
C292 C291 1.422 . S
C292 C316 1.417 . S
C293 H270 0.931 . S
C293 N289 1.343 . S
C293 C294 1.390 . S
C294 H272 0.930 . S
C294 C291 1.321 . S
C294 C293 1.390 . S
O295 Gd263 2.386 . S
O295 C307 1.265 . S
O296 Gd262 2.353 . S
O296 C307 1.242 . S
O297 Gd262 2.468 . S
O297 C315 1.263 . S
O298 Gd262 2.427 . S
O298 C315 1.252 . S
O299 Gd263 2.307 . S
O299 C308 1.261 . S
O300 Gd262 2.388 . S
O300 C308 1.252 . S
O301 Gd262 2.386 . S
O301 C319 1.265 . S
O302 Gd263 2.353 . S
O302 C319 1.242 . S
O303 Gd263 2.468 . S
O303 C327 1.263 . S
O304 Gd263 2.427 . S
O304 C327 1.252 . S
O305 Gd262 2.307 . S
O305 C320 1.261 . S
O306 Gd263 2.388 . S
O306 C320 1.252 . S
C307 O295 1.265 . S
C307 O296 1.242 . S
C308 O299 1.261 . S
C308 O300 1.252 . S
C309 C312 1.394 . S
C309 C314 1.370 . S
C309 C315 1.500 . S
C310 C313 1.383 . S
C310 C314 1.395 . S
C311 C312 1.396 . S
C311 C313 1.365 . S
C311 H328 0.929 . S
C312 C309 1.394 . S
C312 C311 1.396 . S
C312 H329 0.930 . S
C313 C310 1.383 . S
C313 C311 1.365 . S
C313 H330 0.931 . S
C314 C309 1.370 . S
C314 C310 1.395 . S
C314 H331 0.930 . S
C315 Gd262 2.805 . S
C315 O297 1.263 . S
C315 O298 1.252 . S
C315 C309 1.500 . S
C316 H278 0.930 1_545 S
C316 C292 1.417 . S
C316 C317 1.329 . S
C317 C287 1.437 . S
C317 H288 0.929 1_545 S
C317 C316 1.329 . S
H318 C291 0.931 . S
C319 O301 1.265 . S
C319 O302 1.242 . S
C320 O305 1.261 . S
C320 O306 1.252 . S
C321 C324 1.394 . S
C321 C326 1.370 . S
C321 C327 1.500 . S
C322 C325 1.383 . S
C322 C326 1.395 . S
C323 C324 1.396 . S
C323 C325 1.365 . S
C323 H332 0.929 . S
C324 C321 1.394 . S
C324 C323 1.396 . S
C324 H333 0.930 . S
C325 C322 1.383 . S
C325 C323 1.365 . S
C325 H334 0.931 . S
C326 C321 1.370 . S
C326 C322 1.395 . S
C326 H335 0.930 . S
C327 Gd263 2.805 . S
C327 O303 1.263 . S
C327 O304 1.252 . S
C327 C321 1.500 . S
H328 C311 0.929 . S
H329 C312 0.930 . S
H330 C313 0.931 . S
H331 C314 0.930 . S
H332 C323 0.929 . S
H333 C324 0.930 . S
H334 C325 0.931 . S
H335 C326 0.930 . S
C336 C338 1.422 . S
C336 C340 1.415 . S
C336 N342 1.369 . S
C337 C338 1.421 . S
C337 C339 1.417 . S
C337 C349 1.422 . S
C338 C336 1.422 . S
C338 C337 1.421 . S
C338 N348 1.359 . S
C339 C337 1.417 . S
C339 C341 1.329 . S
C339 H358 0.930 . S
C340 C336 1.415 . S
C340 C341 1.437 . S
C340 C344 1.413 . S
C341 C339 1.329 . S
C341 C340 1.437 . S
C341 H363 0.929 . S
N342 C336 1.369 . S
N342 C343 1.338 . S
N342 Gd347 2.622 1_655 S
C343 N342 1.338 . S
C343 C345 1.378 . S
C343 H355 0.929 . S
C344 C340 1.413 . S
C344 C345 1.348 . S
C344 H360 0.931 . S
C345 C343 1.378 . S
C345 C344 1.348 . S
C345 H361 0.930 . S
Gd346 N366 2.622 . S
Gd346 N373 2.570 . S
Gd346 O380 2.353 . S
Gd346 O381 2.468 . S
Gd346 O382 2.427 . S
Gd346 O384 2.388 . S
Gd346 O385 2.386 . S
Gd346 O389 2.307 . S
Gd346 C399 2.805 . S
Gd347 N342 2.622 1_455 S
Gd347 N348 2.570 1_455 S
Gd347 O379 2.386 . S
Gd347 O383 2.307 . S
Gd347 O386 2.353 . S
Gd347 O387 2.468 1_455 S
Gd347 O388 2.427 1_455 S
Gd347 O390 2.388 . S
Gd347 C411 2.805 1_455 S
N348 C338 1.359 . S
N348 Gd347 2.570 1_655 S
N348 C350 1.343 . S
C349 C337 1.422 . S
C349 C351 1.321 . S
C349 H357 0.931 . S
C350 N348 1.343 . S
C350 C351 1.390 . S
C350 H352 0.931 . S
C351 C349 1.321 . S
C351 C350 1.390 . S
C351 H353 0.930 . S
H352 C350 0.931 . S
H353 C351 0.930 . S
H354 C377 0.931 . S
H355 C343 0.929 . S
H356 C378 0.930 . S
H357 C349 0.931 . S
H358 C339 0.930 . S
H359 C368 0.929 . S
H360 C344 0.931 . S
H361 C345 0.930 . S
H362 C400 0.930 . S
H363 C341 0.929 . S
H364 C369 0.931 . S
H365 C370 0.930 . S
N366 Gd346 2.622 . S
N366 C367 1.369 . S
N366 C368 1.338 . S
C367 N366 1.369 . S
C367 C371 1.415 . S
C367 C374 1.422 . S
C368 H359 0.929 . S
C368 N366 1.338 . S
C368 C370 1.378 . S
C369 H364 0.931 . S
C369 C370 1.348 . S
C369 C371 1.413 . S
C370 H365 0.930 . S
C370 C368 1.378 . S
C370 C369 1.348 . S
C371 C367 1.415 . S
C371 C369 1.413 . S
C371 C401 1.437 . S
H372 C401 0.929 . S
N373 Gd346 2.570 . S
N373 C374 1.359 . S
N373 C377 1.343 . S
C374 C367 1.422 . S
C374 N373 1.359 . S
C374 C376 1.421 . S
C375 C376 1.422 . S
C375 C378 1.321 . S
C375 H402 0.931 . S
C376 C374 1.421 . S
C376 C375 1.422 . S
C376 C400 1.417 . S
C377 H354 0.931 . S
C377 N373 1.343 . S
C377 C378 1.390 . S
C378 H356 0.930 . S
C378 C375 1.321 . S
C378 C377 1.390 . S
O379 Gd347 2.386 . S
O379 C391 1.265 . S
O380 Gd346 2.353 . S
O380 C391 1.242 . S
O381 Gd346 2.468 . S
O381 C399 1.263 . S
O382 Gd346 2.427 . S
O382 C399 1.252 . S
O383 Gd347 2.307 . S
O383 C392 1.261 . S
O384 Gd346 2.388 . S
O384 C392 1.252 . S
O385 Gd346 2.386 . S
O385 C403 1.265 . S
O386 Gd347 2.353 . S
O386 C403 1.242 . S
O387 Gd347 2.468 1_655 S
O387 C411 1.263 . S
O388 Gd347 2.427 1_655 S
O388 C411 1.252 . S
O389 Gd346 2.307 . S
O389 C404 1.261 . S
O390 Gd347 2.388 . S
O390 C404 1.252 . S
C391 O379 1.265 . S
C391 O380 1.242 . S
C392 O383 1.261 . S
C392 O384 1.252 . S
C393 C396 1.394 . S
C393 C398 1.370 . S
C393 C399 1.500 . S
C394 C397 1.383 . S
C394 C398 1.395 . S
C395 C396 1.396 . S
C395 C397 1.365 . S
C395 H412 0.929 . S
C396 C393 1.394 . S
C396 C395 1.396 . S
C396 H413 0.930 . S
C397 C394 1.383 . S
C397 C395 1.365 . S
C397 H414 0.931 . S
C398 C393 1.370 . S
C398 C394 1.395 . S
C398 H415 0.930 . S
C399 Gd346 2.805 . S
C399 O381 1.263 . S
C399 O382 1.252 . S
C399 C393 1.500 . S
C400 H362 0.930 . S
C400 C376 1.417 . S
C400 C401 1.329 . S
C401 C371 1.437 . S
C401 H372 0.929 . S
C401 C400 1.329 . S
H402 C375 0.931 . S
C403 O385 1.265 . S
C403 O386 1.242 . S
C404 O389 1.261 . S
C404 O390 1.252 . S
C405 C408 1.394 . S
C405 C410 1.370 . S
C405 C411 1.500 . S
C406 C409 1.383 . S
C406 C410 1.395 . S
C407 C408 1.396 . S
C407 C409 1.365 . S
C407 H416 0.929 . S
C408 C405 1.394 . S
C408 C407 1.396 . S
C408 H417 0.930 . S
C409 C406 1.383 . S
C409 C407 1.365 . S
C409 H418 0.931 . S
C410 C405 1.370 . S
C410 C406 1.395 . S
C410 H419 0.930 . S
C411 Gd347 2.805 1_655 S
C411 O387 1.263 . S
C411 O388 1.252 . S
C411 C405 1.500 . S
H412 C395 0.929 . S
H413 C396 0.930 . S
H414 C397 0.931 . S
H415 C398 0.930 . S
H416 C407 0.929 . S
H417 C408 0.930 . S
H418 C409 0.931 . S
H419 C410 0.930 . S
C420 C422 1.422 . S
C420 C424 1.415 1_545 S
C420 N426 1.369 . S
C421 C422 1.421 1_565 S
C421 C423 1.417 . S
C421 C433 1.422 . S
C422 C420 1.422 . S
C422 C421 1.421 1_545 S
C422 N432 1.359 . S
C423 C421 1.417 . S
C423 C425 1.329 . S
C423 H442 0.930 . S
C424 C420 1.415 1_565 S
C424 C425 1.437 . S
C424 C428 1.413 1_565 S
C425 C423 1.329 . S
C425 C424 1.437 . S
C425 H447 0.929 . S
N426 C420 1.369 . S
N426 C427 1.338 . S
N426 Gd431 2.622 . S
C427 N426 1.338 . S
C427 C429 1.378 . S
C427 H439 0.929 . S
C428 C424 1.413 1_545 S
C428 C429 1.348 . S
C428 H444 0.931 1_545 S
C429 C427 1.378 . S
C429 C428 1.348 . S
C429 H445 0.930 . S
Gd430 N450 2.622 . S
Gd430 N457 2.570 . S
Gd430 O464 2.353 . S
Gd430 O465 2.468 . S
Gd430 O466 2.427 . S
Gd430 O468 2.388 . S
Gd430 O469 2.386 . S
Gd430 O473 2.307 . S
Gd430 C483 2.805 . S
Gd431 N426 2.622 . S
Gd431 N432 2.570 . S
Gd431 O463 2.386 . S
Gd431 O467 2.307 . S
Gd431 O470 2.353 . S
Gd431 O471 2.468 . S
Gd431 O472 2.427 . S
Gd431 O474 2.388 . S
Gd431 C495 2.805 . S
N432 C422 1.359 . S
N432 Gd431 2.570 . S
N432 C434 1.343 . S
C433 C421 1.422 . S
C433 C435 1.321 . S
C433 H441 0.931 . S
C434 N432 1.343 . S
C434 C435 1.390 1_545 S
C434 H436 0.931 . S
C435 C433 1.321 . S
C435 C434 1.390 1_565 S
C435 H437 0.930 . S
H436 C434 0.931 . S
H437 C435 0.930 . S
H438 C461 0.931 . S
H439 C427 0.929 . S
H440 C462 0.930 . S
H441 C433 0.931 . S
H442 C423 0.930 . S
H443 C452 0.929 . S
H444 C428 0.931 1_565 S
H445 C429 0.930 . S
H446 C484 0.930 . S
H447 C425 0.929 . S
H448 C453 0.931 . S
H449 C454 0.930 . S
N450 Gd430 2.622 . S
N450 C451 1.369 . S
N450 C452 1.338 . S
C451 N450 1.369 . S
C451 C455 1.415 . S
C451 C458 1.422 . S
C452 H443 0.929 . S
C452 N450 1.338 . S
C452 C454 1.378 . S
C453 H448 0.931 . S
C453 C454 1.348 . S
C453 C455 1.413 . S
C454 H449 0.930 . S
C454 C452 1.378 . S
C454 C453 1.348 . S
C455 C451 1.415 . S
C455 C453 1.413 . S
C455 C485 1.437 . S
H456 C485 0.929 . S
N457 Gd430 2.570 . S
N457 C458 1.359 . S
N457 C461 1.343 . S
C458 C451 1.422 . S
C458 N457 1.359 . S
C458 C460 1.421 . S
C459 C460 1.422 . S
C459 C462 1.321 . S
C459 H486 0.931 . S
C460 C458 1.421 . S
C460 C459 1.422 . S
C460 C484 1.417 . S
C461 H438 0.931 . S
C461 N457 1.343 . S
C461 C462 1.390 . S
C462 H440 0.930 . S
C462 C459 1.321 . S
C462 C461 1.390 . S
O463 Gd431 2.386 . S
O463 C475 1.265 . S
O464 Gd430 2.353 . S
O464 C475 1.242 . S
O465 Gd430 2.468 . S
O465 C483 1.263 . S
O466 Gd430 2.427 . S
O466 C483 1.252 . S
O467 Gd431 2.307 . S
O467 C476 1.261 . S
O468 Gd430 2.388 . S
O468 C476 1.252 . S
O469 Gd430 2.386 . S
O469 C487 1.265 . S
O470 Gd431 2.353 . S
O470 C487 1.242 . S
O471 Gd431 2.468 . S
O471 C495 1.263 . S
O472 Gd431 2.427 . S
O472 C495 1.252 . S
O473 Gd430 2.307 . S
O473 C488 1.261 . S
O474 Gd431 2.388 . S
O474 C488 1.252 . S
C475 O463 1.265 . S
C475 O464 1.242 . S
C476 O467 1.261 . S
C476 O468 1.252 . S
C477 C480 1.394 . S
C477 C482 1.370 . S
C477 C483 1.500 . S
C478 C481 1.383 . S
C478 C482 1.395 . S
C479 C480 1.396 . S
C479 C481 1.365 . S
C479 H496 0.929 . S
C480 C477 1.394 . S
C480 C479 1.396 . S
C480 H497 0.930 . S
C481 C478 1.383 . S
C481 C479 1.365 . S
C481 H498 0.931 . S
C482 C477 1.370 . S
C482 C478 1.395 . S
C482 H499 0.930 . S
C483 Gd430 2.805 . S
C483 O465 1.263 . S
C483 O466 1.252 . S
C483 C477 1.500 . S
C484 H446 0.930 . S
C484 C460 1.417 . S
C484 C485 1.329 . S
C485 C455 1.437 . S
C485 H456 0.929 . S
C485 C484 1.329 . S
H486 C459 0.931 . S
C487 O469 1.265 . S
C487 O470 1.242 . S
C488 O473 1.261 . S
C488 O474 1.252 . S
C489 C492 1.394 . S
C489 C494 1.370 . S
C489 C495 1.500 . S
C490 C493 1.383 . S
C490 C494 1.395 . S
C491 C492 1.396 . S
C491 C493 1.365 . S
C491 H500 0.929 . S
C492 C489 1.394 . S
C492 C491 1.396 . S
C492 H501 0.930 . S
C493 C490 1.383 . S
C493 C491 1.365 . S
C493 H502 0.935 1_545 S
C494 C489 1.370 . S
C494 C490 1.395 . S
C494 H503 0.930 . S
C495 Gd431 2.805 . S
C495 O471 1.263 . S
C495 O472 1.252 . S
C495 C489 1.500 . S
H496 C479 0.929 . S
H497 C480 0.930 . S
H498 C481 0.931 . S
H499 C482 0.930 . S
H500 C491 0.929 . S
H501 C492 0.930 . S
H502 C493 0.935 1_565 S
H503 C494 0.930 . S
C504 C506 1.422 . S
C504 C508 1.415 . S
C504 N510 1.369 . S
C505 C506 1.421 . S
C505 C507 1.417 . S
C505 C517 1.422 . S
C506 C504 1.422 . S
C506 C505 1.421 . S
C506 N516 1.359 . S
C507 C505 1.417 . S
C507 C509 1.329 . S
C507 H526 0.930 . S
C508 C504 1.415 . S
C508 C509 1.437 . S
C508 C512 1.413 . S
C509 C507 1.329 . S
C509 C508 1.437 . S
C509 H531 0.929 . S
N510 C504 1.369 . S
N510 C511 1.338 . S
N510 Gd515 2.622 . S
C511 N510 1.338 . S
C511 C513 1.378 . S
C511 H523 0.929 . S
C512 C508 1.413 . S
C512 C513 1.348 . S
C512 H528 0.931 . S
C513 C511 1.378 . S
C513 C512 1.348 . S
C513 H529 0.930 . S
Gd514 N534 2.622 . S
Gd514 N541 2.570 . S
Gd514 O548 2.353 . S
Gd514 O549 2.468 . S
Gd514 O550 2.427 . S
Gd514 O552 2.388 . S
Gd514 O553 2.386 . S
Gd514 O557 2.307 . S
Gd514 C567 2.805 . S
Gd515 N510 2.622 . S
Gd515 N516 2.570 . S
Gd515 O547 2.386 . S
Gd515 O551 2.307 . S
Gd515 O554 2.353 . S
Gd515 O555 2.468 . S
Gd515 O556 2.427 . S
Gd515 O558 2.388 . S
Gd515 C579 2.805 . S
N516 C506 1.359 . S
N516 Gd515 2.570 . S
N516 C518 1.343 . S
C517 C505 1.422 . S
C517 C519 1.321 . S
C517 H525 0.931 . S
C518 N516 1.343 . S
C518 C519 1.390 . S
C518 H520 0.931 . S
C519 C517 1.321 . S
C519 C518 1.390 . S
C519 H521 0.930 . S
H520 C518 0.931 . S
H521 C519 0.930 . S
H522 C545 0.931 . S
H523 C511 0.929 . S
H524 C546 0.930 . S
H525 C517 0.931 . S
H526 C507 0.930 . S
H527 C536 0.929 . S
H528 C512 0.931 . S
H529 C513 0.930 . S
H530 C568 0.930 . S
H531 C509 0.929 . S
H532 C537 0.931 . S
H533 C538 0.930 . S
N534 Gd514 2.622 . S
N534 C535 1.369 . S
N534 C536 1.338 . S
C535 N534 1.369 . S
C535 C539 1.415 . S
C535 C542 1.422 . S
C536 H527 0.929 . S
C536 N534 1.338 . S
C536 C538 1.378 . S
C537 H532 0.931 . S
C537 C538 1.348 . S
C537 C539 1.413 . S
C538 H533 0.930 . S
C538 C536 1.378 . S
C538 C537 1.348 . S
C539 C535 1.415 . S
C539 C537 1.413 . S
C539 C569 1.437 1_455 S
H540 C569 0.929 . S
N541 Gd514 2.570 . S
N541 C542 1.359 . S
N541 C545 1.343 . S
C542 C535 1.422 . S
C542 N541 1.359 . S
C542 C544 1.421 . S
C543 C544 1.431 . S
C543 C546 1.361 . S
C543 H570 0.884 1_455 S
C544 C542 1.421 . S
C544 C543 1.431 . S
C544 C568 1.417 1_455 S
C545 H522 0.931 . S
C545 N541 1.343 . S
C545 C546 1.390 . S
C546 H524 0.930 . S
C546 C543 1.361 . S
C546 C545 1.390 . S
O547 Gd515 2.386 . S
O547 C559 1.265 . S
O548 Gd514 2.353 . S
O548 C559 1.242 . S
O549 Gd514 2.468 . S
O549 C567 1.263 . S
O550 Gd514 2.427 . S
O550 C567 1.252 . S
O551 Gd515 2.307 . S
O551 C560 1.261 . S
O552 Gd514 2.388 . S
O552 C560 1.252 . S
O553 Gd514 2.386 . S
O553 C571 1.265 . S
O554 Gd515 2.353 . S
O554 C571 1.242 . S
O555 Gd515 2.468 . S
O555 C579 1.263 . S
O556 Gd515 2.427 . S
O556 C579 1.252 . S
O557 Gd514 2.307 . S
O557 C572 1.261 . S
O558 Gd515 2.388 . S
O558 C572 1.252 . S
C559 O547 1.265 . S
C559 O548 1.242 . S
C560 O551 1.261 . S
C560 O552 1.252 . S
C561 C564 1.394 . S
C561 C566 1.370 . S
C561 C567 1.500 . S
C562 C565 1.383 . S
C562 C566 1.395 . S
C563 C564 1.396 . S
C563 C565 1.365 . S
C563 H580 0.929 . S
C564 C561 1.394 . S
C564 C563 1.396 . S
C564 H581 0.930 . S
C565 C562 1.383 . S
C565 C563 1.365 . S
C565 H582 0.931 . S
C566 C561 1.370 . S
C566 C562 1.395 . S
C566 H583 0.930 . S
C567 Gd514 2.805 . S
C567 O549 1.263 . S
C567 O550 1.252 . S
C567 C561 1.500 . S
C568 H530 0.930 . S
C568 C544 1.417 1_655 S
C568 C569 1.329 . S
C569 C539 1.437 1_655 S
C569 H540 0.929 . S
C569 C568 1.329 . S
H570 C543 0.884 1_655 S
C571 O553 1.265 . S
C571 O554 1.242 . S
C572 O557 1.261 . S
C572 O558 1.252 . S
C573 C576 1.394 . S
C573 C578 1.370 . S
C573 C579 1.500 . S
C574 C577 1.383 . S
C574 C578 1.395 . S
C575 C576 1.396 . S
C575 C577 1.365 . S
C575 H584 0.929 . S
C576 C573 1.394 . S
C576 C575 1.396 . S
C576 H585 0.930 . S
C577 C574 1.383 . S
C577 C575 1.365 . S
C577 H586 0.931 . S
C578 C573 1.370 . S
C578 C574 1.395 . S
C578 H587 0.930 . S
C579 Gd515 2.805 . S
C579 O555 1.263 . S
C579 O556 1.252 . S
C579 C573 1.500 . S
H580 C563 0.929 . S
H581 C564 0.930 . S
H582 C565 0.931 . S
H583 C566 0.930 . S
H584 C575 0.929 . S
H585 C576 0.930 . S
H586 C577 0.931 . S
H587 C578 0.930 . S
C588 C590 1.422 . S
C588 C592 1.415 . S
C588 N594 1.369 . S
C589 C590 1.421 . S
C589 C591 1.417 . S
C589 C601 1.422 . S
C590 C588 1.422 . S
C590 C589 1.421 . S
C590 N600 1.359 . S
C591 C589 1.417 . S
C591 C593 1.329 . S
C591 H610 0.930 . S
C592 C588 1.415 . S
C592 C593 1.437 . S
C592 C596 1.413 . S
C593 C591 1.329 . S
C593 C592 1.437 . S
C593 H615 0.929 . S
N594 C588 1.369 . S
N594 C595 1.338 . S
N594 Gd599 2.622 . S
C595 N594 1.338 . S
C595 C597 1.378 . S
C595 H607 0.929 . S
C596 C592 1.413 . S
C596 C597 1.348 . S
C596 H612 0.931 . S
C597 C595 1.378 . S
C597 C596 1.348 . S
C597 H613 0.930 . S
Gd598 N618 2.622 . S
Gd598 N625 2.570 . S
Gd598 O632 2.344 1_565 S
Gd598 O633 2.468 . S
Gd598 O634 2.427 . S
Gd598 O636 2.388 . S
Gd598 O637 2.386 . S
Gd598 O641 2.307 . S
Gd598 C651 2.805 . S
Gd599 N594 2.622 . S
Gd599 N600 2.570 . S
Gd599 O631 2.386 . S
Gd599 O635 2.307 . S
Gd599 O638 2.358 1_545 S
Gd599 O639 2.468 . S
Gd599 O640 2.427 . S
Gd599 O642 2.388 . S
Gd599 C663 2.805 . S
N600 C590 1.359 . S
N600 Gd599 2.570 . S
N600 C602 1.343 . S
C601 C589 1.422 . S
C601 C603 1.321 . S
C601 H609 0.931 . S
C602 N600 1.343 . S
C602 C603 1.390 . S
C602 H604 0.931 . S
C603 C601 1.321 . S
C603 C602 1.390 . S
C603 H605 0.930 . S
H604 C602 0.931 . S
H605 C603 0.930 . S
H606 C629 0.931 . S
H607 C595 0.929 . S
H608 C630 0.930 . S
H609 C601 0.931 . S
H610 C591 0.930 . S
H611 C620 0.929 . S
H612 C596 0.931 . S
H613 C597 0.930 . S
H614 C652 0.930 . S
H615 C593 0.929 . S
H616 C621 0.931 . S
H617 C622 0.930 . S
N618 Gd598 2.622 . S
N618 C619 1.369 . S
N618 C620 1.338 . S
C619 N618 1.369 . S
C619 C623 1.415 . S
C619 C626 1.422 . S
C620 H611 0.929 . S
C620 N618 1.338 . S
C620 C622 1.378 . S
C621 H616 0.931 . S
C621 C622 1.348 . S
C621 C623 1.413 . S
C622 H617 0.930 . S
C622 C620 1.378 . S
C622 C621 1.348 . S
C623 C619 1.415 . S
C623 C621 1.413 . S
C623 C653 1.437 . S
H624 C653 0.929 . S
N625 Gd598 2.570 . S
N625 C626 1.359 . S
N625 C629 1.343 . S
C626 C619 1.422 . S
C626 N625 1.359 . S
C626 C628 1.421 . S
C627 C628 1.422 . S
C627 C630 1.321 . S
C627 H654 0.931 . S
C628 C626 1.421 . S
C628 C627 1.422 . S
C628 C652 1.417 . S
C629 H606 0.931 . S
C629 N625 1.343 . S
C629 C630 1.390 . S
C630 H608 0.930 . S
C630 C627 1.321 . S
C630 C629 1.390 . S
O631 Gd599 2.386 . S
O631 C643 1.265 . S
O632 Gd598 2.344 1_545 S
O632 C643 1.252 . S
O633 Gd598 2.468 . S
O633 C651 1.263 . S
O634 Gd598 2.427 . S
O634 C651 1.252 . S
O635 Gd599 2.307 . S
O635 C644 1.261 . S
O636 Gd598 2.388 . S
O636 C644 1.252 1_565 S
O637 Gd598 2.386 . S
O637 C655 1.265 . S
O638 Gd599 2.358 1_565 S
O638 C655 1.236 . S
O639 Gd599 2.468 . S
O639 C663 1.263 . S
O640 Gd599 2.427 . S
O640 C663 1.252 . S
O641 Gd598 2.307 . S
O641 C656 1.261 . S
O642 Gd599 2.388 . S
O642 C656 1.252 1_545 S
C643 O631 1.265 . S
C643 O632 1.252 . S
C644 O635 1.261 . S
C644 O636 1.252 1_545 S
C645 C648 1.394 . S
C645 C650 1.370 . S
C645 C651 1.500 . S
C646 C649 1.383 . S
C646 C650 1.395 . S
C647 C648 1.396 . S
C647 C649 1.365 . S
C647 H664 0.929 . S
C648 C645 1.394 . S
C648 C647 1.396 . S
C648 H665 0.930 . S
C649 C646 1.383 . S
C649 C647 1.365 . S
C649 H666 0.931 . S
C650 C645 1.370 . S
C650 C646 1.395 . S
C650 H667 0.930 . S
C651 Gd598 2.805 . S
C651 O633 1.263 . S
C651 O634 1.252 . S
C651 C645 1.500 . S
C652 H614 0.930 . S
C652 C628 1.417 . S
C652 C653 1.329 . S
C653 C623 1.437 . S
C653 H624 0.929 . S
C653 C652 1.329 . S
H654 C627 0.931 . S
C655 O637 1.265 . S
C655 O638 1.236 . S
C656 O641 1.261 . S
C656 O642 1.252 1_565 S
C657 C660 1.394 . S
C657 C662 1.370 . S
C657 C663 1.500 . S
C658 C661 1.383 . S
C658 C662 1.395 . S
C659 C660 1.396 . S
C659 C661 1.365 . S
C659 H668 0.929 . S
C660 C657 1.394 . S
C660 C659 1.396 . S
C660 H669 0.930 . S
C661 C658 1.383 . S
C661 C659 1.365 . S
C661 H670 0.931 . S
C662 C657 1.370 . S
C662 C658 1.395 . S
C662 H671 0.930 . S
C663 Gd599 2.805 . S
C663 O639 1.263 . S
C663 O640 1.252 . S
C663 C657 1.500 . S
H664 C647 0.929 . S
H665 C648 0.930 . S
H666 C649 0.931 . S
H667 C650 0.930 . S
H668 C659 0.929 . S
H669 C660 0.930 . S
H670 C661 0.931 . S
H671 C662 0.930 . S
C672 C674 1.422 . S
C672 C676 1.415 . S
C672 N678 1.369 1_565 S
C673 C674 1.421 . S
C673 C675 1.417 . S
C673 C685 1.422 . S
C674 C672 1.422 . S
C674 C673 1.421 . S
C674 N684 1.359 1_565 S
C675 C673 1.417 . S
C675 C677 1.329 . S
C675 H694 0.930 . S
C676 C672 1.415 . S
C676 C677 1.437 . S
C676 C680 1.413 . S
C677 C675 1.329 . S
C677 C676 1.437 . S
C677 H699 0.929 . S
N678 C672 1.369 1_545 S
N678 C679 1.338 . S
N678 Gd683 2.622 . S
C679 N678 1.338 . S
C679 C681 1.378 . S
C679 H691 0.929 . S
C680 C676 1.413 . S
C680 C681 1.348 1_565 S
C680 H696 0.931 . S
C681 C679 1.378 . S
C681 C680 1.348 1_545 S
C681 H697 0.930 . S
Gd682 N702 2.622 . S
Gd682 N709 2.570 . S
Gd682 O716 2.353 . S
Gd682 O717 2.468 . S
Gd682 O718 2.427 . S
Gd682 O720 2.388 . S
Gd682 O721 2.386 . S
Gd682 O725 2.307 . S
Gd682 C735 2.805 . S
Gd683 N678 2.622 . S
Gd683 N684 2.570 . S
Gd683 O715 2.386 . S
Gd683 O719 2.307 . S
Gd683 O722 2.353 . S
Gd683 O723 2.468 . S
Gd683 O724 2.427 . S
Gd683 O726 2.388 . S
Gd683 C747 2.805 . S
N684 C674 1.359 1_545 S
N684 Gd683 2.570 . S
N684 C686 1.343 . S
C685 C673 1.422 . S
C685 C687 1.321 . S
C685 H693 0.931 . S
C686 N684 1.343 . S
C686 C687 1.390 1_545 S
C686 H688 0.931 . S
C687 C685 1.321 . S
C687 C686 1.390 1_565 S
C687 H689 0.930 . S
H688 C686 0.931 . S
H689 C687 0.930 . S
H690 C713 0.931 . S
H691 C679 0.929 . S
H692 C714 0.930 . S
H693 C685 0.931 . S
H694 C675 0.930 . S
H695 C704 0.929 . S
H696 C680 0.931 . S
H697 C681 0.930 . S
H698 C736 0.930 . S
H699 C677 0.929 . S
H700 C705 0.931 . S
H701 C706 0.930 . S
N702 Gd682 2.622 . S
N702 C703 1.369 . S
N702 C704 1.338 . S
C703 N702 1.369 . S
C703 C707 1.415 . S
C703 C710 1.422 . S
C704 H695 0.929 . S
C704 N702 1.338 . S
C704 C706 1.378 . S
C705 H700 0.931 . S
C705 C706 1.348 . S
C705 C707 1.413 . S
C706 H701 0.930 . S
C706 C704 1.378 . S
C706 C705 1.348 . S
C707 C703 1.415 . S
C707 C705 1.413 . S
C707 C737 1.437 . S
H708 C737 0.929 . S
N709 Gd682 2.570 . S
N709 C710 1.359 . S
N709 C713 1.343 . S
C710 C703 1.422 . S
C710 N709 1.359 . S
C710 C712 1.421 . S
C711 C712 1.422 . S
C711 C714 1.321 . S
C711 H738 0.931 . S
C712 C710 1.421 . S
C712 C711 1.422 . S
C712 C736 1.417 . S
C713 H690 0.931 . S
C713 N709 1.343 . S
C713 C714 1.390 . S
C714 H692 0.930 . S
C714 C711 1.321 . S
C714 C713 1.390 . S
O715 Gd683 2.386 . S
O715 C727 1.265 . S
O716 Gd682 2.353 . S
O716 C727 1.242 . S
O717 Gd682 2.468 . S
O717 C735 1.263 . S
O718 Gd682 2.427 . S
O718 C735 1.252 . S
O719 Gd683 2.307 . S
O719 C728 1.261 . S
O720 Gd682 2.388 . S
O720 C728 1.252 . S
O721 Gd682 2.386 . S
O721 C739 1.265 . S
O722 Gd683 2.353 . S
O722 C739 1.242 . S
O723 Gd683 2.468 . S
O723 C747 1.263 . S
O724 Gd683 2.427 . S
O724 C747 1.252 . S
O725 Gd682 2.307 . S
O725 C740 1.261 . S
O726 Gd683 2.388 . S
O726 C740 1.252 . S
C727 O715 1.265 . S
C727 O716 1.242 . S
C728 O719 1.261 . S
C728 O720 1.252 . S
C729 C732 1.394 . S
C729 C734 1.370 . S
C729 C735 1.500 . S
C730 C733 1.383 . S
C730 C734 1.395 . S
C731 C732 1.396 . S
C731 C733 1.365 . S
C731 H748 0.929 . S
C732 C729 1.394 . S
C732 C731 1.396 . S
C732 H749 0.930 . S
C733 C730 1.383 . S
C733 C731 1.365 . S
C733 H750 0.931 . S
C734 C729 1.370 . S
C734 C730 1.395 . S
C734 H751 0.930 . S
C735 Gd682 2.805 . S
C735 O717 1.263 . S
C735 O718 1.252 . S
C735 C729 1.500 . S
C736 H698 0.930 . S
C736 C712 1.417 . S
C736 C737 1.329 . S
C737 C707 1.437 . S
C737 H708 0.929 . S
C737 C736 1.329 . S
H738 C711 0.931 . S
C739 O721 1.265 . S
C739 O722 1.242 . S
C740 O725 1.261 . S
C740 O726 1.252 . S
C741 C744 1.394 . S
C741 C746 1.370 . S
C741 C747 1.500 . S
C742 C745 1.383 . S
C742 C746 1.395 . S
C743 C744 1.396 . S
C743 C745 1.365 . S
C743 H752 0.929 . S
C744 C741 1.394 . S
C744 C743 1.396 . S
C744 H753 0.930 . S
C745 C742 1.383 . S
C745 C743 1.365 . S
C745 H754 0.931 . S
C746 C741 1.370 . S
C746 C742 1.395 . S
C746 H755 0.930 . S
C747 Gd683 2.805 . S
C747 O723 1.263 . S
C747 O724 1.252 . S
C747 C741 1.500 . S
H748 C731 0.929 . S
H749 C732 0.930 . S
H750 C733 0.931 . S
H751 C734 0.930 . S
H752 C743 0.929 . S
H753 C744 0.930 . S
H754 C745 0.931 . S
H755 C746 0.930 . S
C756 C758 1.422 . S
C756 C760 1.415 . S
C756 N762 1.369 . S
C757 C758 1.421 . S
C757 C759 1.417 . S
C757 C769 1.422 . S
C758 C756 1.422 . S
C758 C757 1.421 . S
C758 N768 1.359 . S
C759 C757 1.417 . S
C759 C761 1.329 . S
C759 H778 0.930 . S
C760 C756 1.415 . S
C760 C761 1.437 . S
C760 C764 1.413 . S
C761 C759 1.329 . S
C761 C760 1.437 . S
C761 H783 0.929 . S
N762 C756 1.369 . S
N762 C763 1.338 . S
N762 Gd767 2.622 . S
C763 N762 1.338 . S
C763 C765 1.378 . S
C763 H775 0.929 . S
C764 C760 1.413 . S
C764 C765 1.348 . S
C764 H780 0.931 . S
C765 C763 1.378 . S
C765 C764 1.348 . S
C765 H781 0.930 . S
Gd766 N786 2.622 1_455 S
Gd766 N793 2.570 1_455 S
Gd766 O800 2.353 . S
Gd766 O801 2.489 . S
Gd766 O802 2.416 1_455 S
Gd766 O804 2.388 . S
Gd766 O805 2.386 . S
Gd766 O809 2.307 . S
Gd766 C819 2.805 1_455 S
Gd767 N762 2.622 . S
Gd767 N768 2.570 . S
Gd767 O799 2.386 . S
Gd767 O803 2.307 . S
Gd767 O806 2.353 . S
Gd767 O807 2.468 . S
Gd767 O808 2.427 . S
Gd767 O810 2.388 . S
Gd767 C831 2.805 . S
N768 C758 1.359 . S
N768 Gd767 2.570 . S
N768 C770 1.343 . S
C769 C757 1.422 . S
C769 C771 1.321 . S
C769 H777 0.931 . S
C770 N768 1.343 . S
C770 C771 1.390 . S
C770 H772 0.931 . S
C771 C769 1.321 . S
C771 C770 1.390 . S
C771 H773 0.930 . S
H772 C770 0.931 . S
H773 C771 0.930 . S
H774 C797 0.931 . S
H775 C763 0.929 . S
H776 C798 0.930 . S
H777 C769 0.931 . S
H778 C759 0.930 . S
H779 C788 0.929 . S
H780 C764 0.931 . S
H781 C765 0.930 . S
H782 C820 0.930 . S
H783 C761 0.929 . S
H784 C789 0.931 . S
H785 C790 0.930 . S
N786 Gd766 2.622 1_655 S
N786 C787 1.369 . S
N786 C788 1.338 . S
C787 N786 1.369 . S
C787 C791 1.415 . S
C787 C794 1.422 . S
C788 H779 0.929 . S
C788 N786 1.338 . S
C788 C790 1.378 . S
C789 H784 0.931 . S
C789 C790 1.348 . S
C789 C791 1.413 . S
C790 H785 0.930 . S
C790 C788 1.378 . S
C790 C789 1.348 . S
C791 C787 1.415 . S
C791 C789 1.413 . S
C791 C821 1.437 . S
H792 C821 0.929 . S
N793 Gd766 2.570 1_655 S
N793 C794 1.359 . S
N793 C797 1.343 . S
C794 C787 1.422 . S
C794 N793 1.359 . S
C794 C796 1.421 . S
C795 C796 1.422 . S
C795 C798 1.321 . S
C795 H822 0.931 . S
C796 C794 1.421 . S
C796 C795 1.422 . S
C796 C820 1.417 . S
C797 H774 0.931 . S
C797 N793 1.343 . S
C797 C798 1.390 . S
C798 H776 0.930 . S
C798 C795 1.321 . S
C798 C797 1.390 . S
O799 Gd767 2.386 . S
O799 C811 1.265 . S
O800 Gd766 2.353 . S
O800 C811 1.242 . S
O801 Gd766 2.489 . S
O801 C819 1.254 1_455 S
O802 Gd766 2.416 1_655 S
O802 C819 1.260 . S
O803 Gd767 2.307 . S
O803 C812 1.261 . S
O804 Gd766 2.388 . S
O804 C812 1.252 . S
O805 Gd766 2.386 . S
O805 C823 1.265 . S
O806 Gd767 2.353 . S
O806 C823 1.242 . S
O807 Gd767 2.468 . S
O807 C831 1.263 . S
O808 Gd767 2.427 . S
O808 C831 1.252 . S
O809 Gd766 2.307 . S
O809 C824 1.261 . S
O810 Gd767 2.388 . S
O810 C824 1.252 . S
C811 O799 1.265 . S
C811 O800 1.242 . S
C812 O803 1.261 . S
C812 O804 1.252 . S
C813 C816 1.394 . S
C813 C818 1.370 . S
C813 C819 1.500 . S
C814 C817 1.383 . S
C814 C818 1.395 . S
C815 C816 1.396 . S
C815 C817 1.365 . S
C815 H832 0.929 . S
C816 C813 1.394 . S
C816 C815 1.396 . S
C816 H833 0.930 . S
C817 C814 1.383 . S
C817 C815 1.365 . S
C817 H834 0.931 . S
C818 C813 1.370 . S
C818 C814 1.395 . S
C818 H835 0.930 . S
C819 Gd766 2.805 1_655 S
C819 O801 1.254 1_655 S
C819 O802 1.260 . S
C819 C813 1.500 . S
C820 H782 0.930 . S
C820 C796 1.417 . S
C820 C821 1.329 . S
C821 C791 1.437 . S
C821 H792 0.929 . S
C821 C820 1.329 . S
H822 C795 0.931 . S
C823 O805 1.265 . S
C823 O806 1.242 . S
C824 O809 1.261 . S
C824 O810 1.252 . S
C825 C828 1.394 . S
C825 C830 1.370 . S
C825 C831 1.500 . S
C826 C829 1.383 . S
C826 C830 1.395 . S
C827 C828 1.396 . S
C827 C829 1.365 . S
C827 H836 0.929 . S
C828 C825 1.394 . S
C828 C827 1.396 . S
C828 H837 0.930 . S
C829 C826 1.383 . S
C829 C827 1.365 . S
C829 H838 0.931 . S
C830 C825 1.370 . S
C830 C826 1.395 . S
C830 H839 0.930 . S
C831 Gd767 2.805 . S
C831 O807 1.263 . S
C831 O808 1.252 . S
C831 C825 1.500 . S
H832 C815 0.929 . S
H833 C816 0.930 . S
H834 C817 0.931 . S
H835 C818 0.930 . S
H836 C827 0.929 . S
H837 C828 0.930 . S
H838 C829 0.931 . S
H839 C830 0.930 . S
C840 C842 1.422 . S
C840 C844 1.415 . S
C840 N846 1.369 . S
C841 C842 1.421 . S
C841 C843 1.417 . S
C841 C853 1.422 . S
C842 C840 1.422 . S
C842 C841 1.421 . S
C842 N852 1.359 . S
C843 C841 1.417 . S
C843 C845 1.329 . S
C843 H862 0.930 . S
C844 C840 1.415 . S
C844 C845 1.437 . S
C844 C848 1.413 . S
C845 C843 1.329 . S
C845 C844 1.437 . S
C845 H867 0.929 . S
N846 C840 1.369 . S
N846 C847 1.338 . S
N846 Gd851 2.622 . S
C847 N846 1.338 . S
C847 C849 1.378 . S
C847 H859 0.929 . S
C848 C844 1.413 . S
C848 C849 1.348 . S
C848 H864 0.931 . S
C849 C847 1.378 . S
C849 C848 1.348 . S
C849 H865 0.930 . S
Gd850 N870 2.622 . S
Gd850 N877 2.570 . S
Gd850 O884 2.353 . S
Gd850 O885 2.468 . S
Gd850 O886 2.427 . S
Gd850 O888 2.388 . S
Gd850 O889 2.386 . S
Gd850 O893 2.307 . S
Gd850 C903 2.805 . S
Gd851 N846 2.622 . S
Gd851 N852 2.570 . S
Gd851 O883 2.386 . S
Gd851 O887 2.307 . S
Gd851 O890 2.353 . S
Gd851 O891 2.468 . S
Gd851 O892 2.427 . S
Gd851 O894 2.388 . S
Gd851 C915 2.805 . S
N852 C842 1.359 . S
N852 Gd851 2.570 . S
N852 C854 1.343 . S
C853 C841 1.422 . S
C853 C855 1.321 . S
C853 H861 0.931 . S
C854 N852 1.343 . S
C854 C855 1.390 . S
C854 H856 0.931 . S
C855 C853 1.321 . S
C855 C854 1.390 . S
C855 H857 0.930 . S
H856 C854 0.931 . S
H857 C855 0.930 . S
H858 C881 0.931 . S
H859 C847 0.929 . S
H860 C882 0.930 . S
H861 C853 0.931 . S
H862 C843 0.930 . S
H863 C872 0.929 . S
H864 C848 0.931 . S
H865 C849 0.930 . S
H866 C904 0.930 . S
H867 C845 0.929 . S
H868 C873 0.931 . S
H869 C874 0.930 . S
N870 Gd850 2.622 . S
N870 C871 1.369 1_545 S
N870 C872 1.338 . S
C871 N870 1.369 1_565 S
C871 C875 1.415 . S
C871 C878 1.422 . S
C872 H863 0.929 . S
C872 N870 1.338 . S
C872 C874 1.378 . S
C873 H868 0.931 . S
C873 C874 1.348 1_565 S
C873 C875 1.413 . S
C874 H869 0.930 . S
C874 C872 1.378 . S
C874 C873 1.348 1_545 S
C875 C871 1.415 . S
C875 C873 1.413 . S
C875 C905 1.437 . S
H876 C905 0.929 . S
N877 Gd850 2.570 . S
N877 C878 1.359 1_545 S
N877 C881 1.343 . S
C878 C871 1.422 . S
C878 N877 1.359 1_565 S
C878 C880 1.421 . S
C879 C880 1.422 . S
C879 C882 1.321 . S
C879 H906 0.931 . S
C880 C878 1.421 . S
C880 C879 1.422 . S
C880 C904 1.417 . S
C881 H858 0.931 . S
C881 N877 1.343 . S
C881 C882 1.390 1_545 S
C882 H860 0.930 . S
C882 C879 1.321 . S
C882 C881 1.390 1_565 S
O883 Gd851 2.386 . S
O883 C895 1.265 . S
O884 Gd850 2.353 . S
O884 C895 1.242 . S
O885 Gd850 2.468 . S
O885 C903 1.263 . S
O886 Gd850 2.427 . S
O886 C903 1.252 . S
O887 Gd851 2.307 . S
O887 C896 1.261 . S
O888 Gd850 2.388 . S
O888 C896 1.252 . S
O889 Gd850 2.386 . S
O889 C907 1.265 . S
O890 Gd851 2.353 . S
O890 C907 1.242 . S
O891 Gd851 2.468 . S
O891 C915 1.263 . S
O892 Gd851 2.427 . S
O892 C915 1.252 . S
O893 Gd850 2.307 . S
O893 C908 1.261 . S
O894 Gd851 2.388 . S
O894 C908 1.252 . S
C895 O883 1.265 . S
C895 O884 1.242 . S
C896 O887 1.261 . S
C896 O888 1.252 . S
C897 C900 1.394 . S
C897 C902 1.370 . S
C897 C903 1.500 . S
C898 C901 1.383 1_545 S
C898 C902 1.395 . S
C899 C900 1.396 1_565 S
C899 C901 1.365 . S
C899 H916 0.929 . S
C900 C897 1.394 . S
C900 C899 1.396 1_545 S
C900 H917 0.930 . S
C901 C898 1.383 1_565 S
C901 C899 1.365 . S
C901 H918 0.931 . S
C902 C897 1.370 . S
C902 C898 1.395 . S
C902 H919 0.930 . S
C903 Gd850 2.805 . S
C903 O885 1.263 . S
C903 O886 1.252 . S
C903 C897 1.500 . S
C904 H866 0.930 . S
C904 C880 1.417 . S
C904 C905 1.329 . S
C905 C875 1.437 . S
C905 H876 0.929 . S
C905 C904 1.329 . S
H906 C879 0.931 . S
C907 O889 1.265 . S
C907 O890 1.242 . S
C908 O893 1.261 . S
C908 O894 1.252 . S
C909 C912 1.394 . S
C909 C914 1.370 . S
C909 C915 1.500 . S
C910 C913 1.383 . S
C910 C914 1.395 . S
C911 C912 1.396 . S
C911 C913 1.365 . S
C911 H920 0.929 . S
C912 C909 1.394 . S
C912 C911 1.396 . S
C912 H921 0.930 . S
C913 C910 1.383 . S
C913 C911 1.365 . S
C913 H922 0.931 . S
C914 C909 1.370 . S
C914 C910 1.395 . S
C914 H923 0.930 . S
C915 Gd851 2.805 . S
C915 O891 1.263 . S
C915 O892 1.252 . S
C915 C909 1.500 . S
H916 C899 0.929 . S
H917 C900 0.930 . S
H918 C901 0.931 . S
H919 C902 0.930 . S
H920 C911 0.929 . S
H921 C912 0.930 . S
H922 C913 0.931 . S
H923 C914 0.930 . S
C924 C926 1.422 . S
C924 C928 1.415 . S
C924 N930 1.369 . S
C925 C926 1.421 . S
C925 C927 1.417 . S
C925 C937 1.422 . S
C926 C924 1.422 . S
C926 C925 1.421 . S
C926 N936 1.359 . S
C927 C925 1.417 . S
C927 C929 1.329 . S
C927 H946 0.930 . S
C928 C924 1.415 . S
C928 C929 1.437 . S
C928 C932 1.413 . S
C929 C927 1.329 . S
C929 C928 1.437 . S
C929 H951 0.929 . S
N930 C924 1.369 . S
N930 C931 1.338 . S
N930 Gd935 2.622 1_655 S
C931 N930 1.338 . S
C931 C933 1.378 . S
C931 H943 0.929 . S
C932 C928 1.413 . S
C932 C933 1.348 . S
C932 H948 0.931 . S
C933 C931 1.378 . S
C933 C932 1.348 . S
C933 H949 0.930 . S
Gd934 N954 2.622 . S
Gd934 N961 2.570 . S
Gd934 O968 2.353 . S
Gd934 O969 2.468 . S
Gd934 O970 2.427 . S
Gd934 O972 2.388 . S
Gd934 O973 2.386 . S
Gd934 O977 2.307 . S
Gd934 C987 2.805 . S
Gd935 N930 2.622 1_455 S
Gd935 N936 2.570 1_455 S
Gd935 O967 2.386 . S
Gd935 O971 2.307 . S
Gd935 O974 2.353 . S
Gd935 O975 2.453 1_455 S
Gd935 O976 2.427 1_455 S
Gd935 O978 2.388 . S
Gd935 C999 2.805 1_455 S
N936 C926 1.359 . S
N936 Gd935 2.570 1_655 S
N936 C938 1.343 . S
C937 C925 1.422 . S
C937 C939 1.321 . S
C937 H945 0.931 . S
C938 N936 1.343 . S
C938 C939 1.390 . S
C938 H940 0.931 . S
C939 C937 1.321 . S
C939 C938 1.390 . S
C939 H941 0.930 . S
H940 C938 0.931 . S
H941 C939 0.930 . S
H942 C965 0.931 . S
H943 C931 0.929 . S
H944 C966 0.930 . S
H945 C937 0.931 . S
H946 C927 0.930 . S
H947 C956 0.929 . S
H948 C932 0.931 . S
H949 C933 0.930 . S
H950 C988 0.930 . S
H951 C929 0.929 . S
H952 C957 0.931 . S
H953 C958 0.930 . S
N954 Gd934 2.622 . S
N954 C955 1.369 . S
N954 C956 1.338 . S
C955 N954 1.369 . S
C955 C959 1.415 . S
C955 C962 1.422 . S
C956 H947 0.929 . S
C956 N954 1.338 . S
C956 C958 1.378 . S
C957 H952 0.931 . S
C957 C958 1.348 . S
C957 C959 1.413 . S
C958 H953 0.930 . S
C958 C956 1.378 . S
C958 C957 1.348 . S
C959 C955 1.415 . S
C959 C957 1.413 . S
C959 C989 1.437 . S
H960 C989 0.929 . S
N961 Gd934 2.570 . S
N961 C962 1.359 . S
N961 C965 1.343 . S
C962 C955 1.422 . S
C962 N961 1.359 . S
C962 C964 1.421 . S
C963 C964 1.422 . S
C963 C966 1.321 . S
C963 H990 0.931 . S
C964 C962 1.421 . S
C964 C963 1.422 . S
C964 C988 1.417 . S
C965 H942 0.931 . S
C965 N961 1.343 . S
C965 C966 1.390 . S
C966 H944 0.930 . S
C966 C963 1.321 . S
C966 C965 1.390 . S
O967 Gd935 2.386 . S
O967 C979 1.265 . S
O968 Gd934 2.353 . S
O968 C979 1.242 . S
O969 Gd934 2.468 . S
O969 C987 1.263 . S
O970 Gd934 2.427 . S
O970 C987 1.252 . S
O971 Gd935 2.307 . S
O971 C980 1.261 . S
O972 Gd934 2.388 . S
O972 C980 1.252 . S
O973 Gd934 2.386 . S
O973 C991 1.265 . S
O974 Gd935 2.353 . S
O974 C991 1.242 . S
O975 Gd935 2.453 1_655 S
O975 C999 1.271 . S
O976 Gd935 2.427 1_655 S
O976 C999 1.252 . S
O977 Gd934 2.307 . S
O977 C992 1.261 . S
O978 Gd935 2.388 . S
O978 C992 1.252 . S
C979 O967 1.265 . S
C979 O968 1.242 . S
C980 O971 1.261 . S
C980 O972 1.252 . S
C981 C984 1.394 . S
C981 C986 1.370 . S
C981 C987 1.500 . S
C982 C985 1.383 . S
C982 C986 1.395 . S
C983 C984 1.396 . S
C983 C985 1.365 . S
C983 H1000 0.929 . S
C984 C981 1.394 . S
C984 C983 1.396 . S
C984 H1001 0.930 . S
C985 C982 1.383 . S
C985 C983 1.365 . S
C985 H1002 0.931 . S
C986 C981 1.370 . S
C986 C982 1.395 . S
C986 H1003 0.930 . S
C987 Gd934 2.805 . S
C987 O969 1.263 . S
C987 O970 1.252 . S
C987 C981 1.500 . S
C988 H950 0.930 . S
C988 C964 1.417 . S
C988 C989 1.329 . S
C989 C959 1.437 . S
C989 H960 0.929 . S
C989 C988 1.329 . S
H990 C963 0.931 . S
C991 O973 1.265 . S
C991 O974 1.242 . S
C992 O977 1.261 . S
C992 O978 1.252 . S
C993 C996 1.394 . S
C993 C998 1.370 . S
C993 C999 1.500 . S
C994 C997 1.383 . S
C994 C998 1.395 . S
C995 C996 1.396 . S
C995 C997 1.365 . S
C995 H1004 0.929 . S
C996 C993 1.394 . S
C996 C995 1.396 . S
C996 H1005 0.930 . S
C997 C994 1.383 . S
C997 C995 1.365 . S
C997 H1006 0.931 . S
C998 C993 1.370 . S
C998 C994 1.395 . S
C998 H1007 0.930 . S
C999 Gd935 2.805 1_655 S
C999 O975 1.271 . S
C999 O976 1.252 . S
C999 C993 1.500 . S
H1000 C983 0.929 . S
H1001 C984 0.930 . S
H1002 C985 0.931 . S
H1003 C986 0.930 . S
H1004 C995 0.929 . S
H1005 C996 0.930 . S
H1006 C997 0.931 . S
H1007 C998 0.930 . S
C1008 C1010 1.422 . S
C1008 C1012 1.415 . S
C1008 N1014 1.369 . S
C1009 C1010 1.421 . S
C1009 C1011 1.417 . S
C1009 C1021 1.422 . S
C1010 C1008 1.422 . S
C1010 C1009 1.421 . S
C1010 N1020 1.359 . S
C1011 C1009 1.417 . S
C1011 C1013 1.329 . S
C1011 H1030 0.930 . S
C1012 C1008 1.415 . S
C1012 C1013 1.437 . S
C1012 C1016 1.413 . S
C1013 C1011 1.329 . S
C1013 C1012 1.437 . S
C1013 H1035 0.929 . S
N1014 C1008 1.369 . S
N1014 C1015 1.338 . S
N1014 Gd1019 2.622 . S
C1015 N1014 1.338 . S
C1015 C1017 1.378 . S
C1015 H1027 0.929 . S
C1016 C1012 1.413 . S
C1016 C1017 1.348 . S
C1016 H1032 0.931 . S
C1017 C1015 1.378 . S
C1017 C1016 1.348 . S
C1017 H1033 0.930 . S
Gd1018 N1038 2.622 1_545 S
Gd1018 N1045 2.570 1_545 S
Gd1018 O1052 2.353 . S
Gd1018 O1053 2.496 . S
Gd1018 O1054 2.430 . S
Gd1018 O1056 2.388 . S
Gd1018 O1057 2.386 . S
Gd1018 O1061 2.307 . S
Gd1018 C1071 2.805 1_545 S
Gd1019 N1014 2.622 . S
Gd1019 N1020 2.570 . S
Gd1019 O1051 2.386 . S
Gd1019 O1055 2.307 . S
Gd1019 O1058 2.353 . S
Gd1019 O1059 2.468 . S
Gd1019 O1060 2.427 . S
Gd1019 O1062 2.388 . S
Gd1019 C1083 2.805 . S
N1020 C1010 1.359 . S
N1020 Gd1019 2.570 . S
N1020 C1022 1.343 . S
C1021 C1009 1.422 . S
C1021 C1023 1.321 . S
C1021 H1029 0.931 . S
C1022 N1020 1.343 . S
C1022 C1023 1.390 . S
C1022 H1024 0.931 . S
C1023 C1021 1.321 . S
C1023 C1022 1.390 . S
C1023 H1025 0.930 . S
H1024 C1022 0.931 . S
H1025 C1023 0.930 . S
H1026 C1049 0.931 . S
H1027 C1015 0.929 . S
H1028 C1050 0.930 . S
H1029 C1021 0.931 . S
H1030 C1011 0.930 . S
H1031 C1040 0.900 1_545 S
H1032 C1016 0.931 . S
H1033 C1017 0.930 . S
H1034 C1072 0.930 . S
H1035 C1013 0.929 . S
H1036 C1041 0.931 . S
H1037 C1042 0.930 . S
N1038 Gd1018 2.622 1_565 S
N1038 C1039 1.369 . S
N1038 C1040 1.338 . S
C1039 N1038 1.369 . S
C1039 C1043 1.415 . S
C1039 C1046 1.422 . S
C1040 H1031 0.900 1_565 S
C1040 N1038 1.338 . S
C1040 C1042 1.378 . S
C1041 H1036 0.931 . S
C1041 C1042 1.348 . S
C1041 C1043 1.413 . S
C1042 H1037 0.930 . S
C1042 C1040 1.378 . S
C1042 C1041 1.348 . S
C1043 C1039 1.415 . S
C1043 C1041 1.413 . S
C1043 C1073 1.437 . S
H1044 C1073 0.929 . S
N1045 Gd1018 2.570 1_565 S
N1045 C1046 1.359 . S
N1045 C1049 1.343 . S
C1046 C1039 1.422 . S
C1046 N1045 1.359 . S
C1046 C1048 1.421 . S
C1047 C1048 1.422 . S
C1047 C1050 1.321 . S
C1047 H1074 0.931 . S
C1048 C1046 1.421 . S
C1048 C1047 1.422 . S
C1048 C1072 1.417 . S
C1049 H1026 0.931 . S
C1049 N1045 1.343 . S
C1049 C1050 1.390 . S
C1050 H1028 0.930 . S
C1050 C1047 1.321 . S
C1050 C1049 1.390 . S
O1051 Gd1019 2.386 . S
O1051 C1063 1.265 . S
O1052 Gd1018 2.353 . S
O1052 C1063 1.242 . S
O1053 Gd1018 2.496 . S
O1053 C1071 1.255 1_545 S
O1054 Gd1018 2.430 . S
O1054 C1071 1.250 1_545 S
O1055 Gd1019 2.307 . S
O1055 C1064 1.261 . S
O1056 Gd1018 2.388 . S
O1056 C1064 1.252 . S
O1057 Gd1018 2.386 . S
O1057 C1075 1.265 . S
O1058 Gd1019 2.353 . S
O1058 C1075 1.242 . S
O1059 Gd1019 2.468 . S
O1059 C1083 1.263 . S
O1060 Gd1019 2.427 . S
O1060 C1083 1.252 . S
O1061 Gd1018 2.307 . S
O1061 C1076 1.261 . S
O1062 Gd1019 2.388 . S
O1062 C1076 1.252 . S
C1063 O1051 1.265 . S
C1063 O1052 1.242 . S
C1064 O1055 1.261 . S
C1064 O1056 1.252 . S
C1065 C1068 1.394 . S
C1065 C1070 1.370 . S
C1065 C1071 1.500 . S
C1066 C1069 1.383 . S
C1066 C1070 1.395 . S
C1067 C1068 1.396 . S
C1067 C1069 1.365 . S
C1067 H1084 0.929 . S
C1068 C1065 1.394 . S
C1068 C1067 1.396 . S
C1068 H1085 0.930 . S
C1069 C1066 1.383 . S
C1069 C1067 1.365 . S
C1069 H1086 0.931 . S
C1070 C1065 1.370 . S
C1070 C1066 1.395 . S
C1070 H1087 0.930 . S
C1071 Gd1018 2.805 1_565 S
C1071 O1053 1.255 1_565 S
C1071 O1054 1.250 1_565 S
C1071 C1065 1.500 . S
C1072 H1034 0.930 . S
C1072 C1048 1.417 . S
C1072 C1073 1.329 . S
C1073 C1043 1.437 . S
C1073 H1044 0.929 . S
C1073 C1072 1.329 . S
H1074 C1047 0.931 . S
C1075 O1057 1.265 . S
C1075 O1058 1.242 . S
C1076 O1061 1.261 . S
C1076 O1062 1.252 . S
C1077 C1080 1.394 . S
C1077 C1082 1.370 . S
C1077 C1083 1.500 . S
C1078 C1081 1.383 . S
C1078 C1082 1.395 . S
C1079 C1080 1.396 . S
C1079 C1081 1.365 . S
C1079 H1088 0.929 . S
C1080 C1077 1.394 . S
C1080 C1079 1.396 . S
C1080 H1089 0.930 . S
C1081 C1078 1.383 . S
C1081 C1079 1.365 . S
C1081 H1090 0.931 . S
C1082 C1077 1.370 . S
C1082 C1078 1.395 . S
C1082 H1091 0.930 . S
C1083 Gd1019 2.805 . S
C1083 O1059 1.263 . S
C1083 O1060 1.252 . S
C1083 C1077 1.500 . S
H1084 C1067 0.929 . S
H1085 C1068 0.930 . S
H1086 C1069 0.931 . S
H1087 C1070 0.930 . S
H1088 C1079 0.929 . S
H1089 C1080 0.930 . S
H1090 C1081 0.931 . S
H1091 C1082 0.930 . S
C1092 C1094 1.422 . S
C1092 C1096 1.415 . S
C1092 N1098 1.369 1_655 S
C1093 C1094 1.421 . S
C1093 C1095 1.417 . S
C1093 C1105 1.422 . S
C1094 C1092 1.422 . S
C1094 C1093 1.421 . S
C1094 N1104 1.359 1_655 S
C1095 C1093 1.417 . S
C1095 C1097 1.329 . S
C1095 H1114 0.930 . S
C1096 C1092 1.415 . S
C1096 C1097 1.437 . S
C1096 C1100 1.413 . S
C1097 C1095 1.329 . S
C1097 C1096 1.437 . S
C1097 H1119 0.929 . S
N1098 C1092 1.369 1_455 S
N1098 C1099 1.338 . S
N1098 Gd1103 2.622 . S
C1099 N1098 1.338 . S
C1099 C1101 1.378 1_455 S
C1099 H1111 0.929 . S
C1100 C1096 1.413 . S
C1100 C1101 1.348 . S
C1100 H1116 0.931 . S
C1101 C1099 1.378 1_655 S
C1101 C1100 1.348 . S
C1101 H1117 0.942 . S
Gd1102 N1122 2.622 . S
Gd1102 N1129 2.570 . S
Gd1102 O1136 2.353 . S
Gd1102 O1137 2.468 . S
Gd1102 O1138 2.427 . S
Gd1102 O1140 2.388 . S
Gd1102 O1141 2.386 . S
Gd1102 O1145 2.307 . S
Gd1102 C1155 2.805 . S
Gd1103 N1098 2.622 . S
Gd1103 N1104 2.570 . S
Gd1103 O1135 2.386 . S
Gd1103 O1139 2.307 . S
Gd1103 O1142 2.353 . S
Gd1103 O1143 2.468 . S
Gd1103 O1144 2.427 . S
Gd1103 O1146 2.388 . S
Gd1103 C1167 2.805 . S
N1104 C1094 1.359 1_455 S
N1104 Gd1103 2.570 . S
N1104 C1106 1.343 1_455 S
C1105 C1093 1.422 . S
C1105 C1107 1.321 . S
C1105 H1113 0.931 . S
C1106 N1104 1.343 1_655 S
C1106 C1107 1.390 . S
C1106 H1108 0.931 1_655 S
C1107 C1105 1.321 . S
C1107 C1106 1.390 . S
C1107 H1109 0.930 . S
H1108 C1106 0.931 1_455 S
H1109 C1107 0.930 . S
H1110 C1133 0.931 . S
H1111 C1099 0.929 . S
H1112 C1134 0.930 . S
H1113 C1105 0.931 . S
H1114 C1095 0.930 . S
H1115 C1124 0.929 . S
H1116 C1100 0.931 . S
H1117 C1101 0.942 . S
H1118 C1156 0.930 . S
H1119 C1097 0.929 . S
H1120 C1125 0.931 . S
H1121 C1126 0.930 . S
N1122 Gd1102 2.622 . S
N1122 C1123 1.369 . S
N1122 C1124 1.338 . S
C1123 N1122 1.369 . S
C1123 C1127 1.415 . S
C1123 C1130 1.422 . S
C1124 H1115 0.929 . S
C1124 N1122 1.338 . S
C1124 C1126 1.378 . S
C1125 H1120 0.931 . S
C1125 C1126 1.348 . S
C1125 C1127 1.413 . S
C1126 H1121 0.930 . S
C1126 C1124 1.378 . S
C1126 C1125 1.348 . S
C1127 C1123 1.415 . S
C1127 C1125 1.413 . S
C1127 C1157 1.437 . S
H1128 C1157 0.929 . S
N1129 Gd1102 2.570 . S
N1129 C1130 1.359 . S
N1129 C1133 1.343 . S
C1130 C1123 1.422 . S
C1130 N1129 1.359 . S
C1130 C1132 1.421 . S
C1131 C1132 1.422 . S
C1131 C1134 1.321 . S
C1131 H1158 0.931 . S
C1132 C1130 1.421 . S
C1132 C1131 1.422 . S
C1132 C1156 1.417 . S
C1133 H1110 0.931 . S
C1133 N1129 1.343 . S
C1133 C1134 1.390 . S
C1134 H1112 0.930 . S
C1134 C1131 1.321 . S
C1134 C1133 1.390 . S
O1135 Gd1103 2.386 . S
O1135 C1147 1.265 . S
O1136 Gd1102 2.353 . S
O1136 C1147 1.242 . S
O1137 Gd1102 2.468 . S
O1137 C1155 1.263 . S
O1138 Gd1102 2.427 . S
O1138 C1155 1.252 . S
O1139 Gd1103 2.307 . S
O1139 C1148 1.261 . S
O1140 Gd1102 2.388 . S
O1140 C1148 1.252 . S
O1141 Gd1102 2.386 . S
O1141 C1159 1.265 . S
O1142 Gd1103 2.353 . S
O1142 C1159 1.242 . S
O1143 Gd1103 2.468 . S
O1143 C1167 1.263 . S
O1144 Gd1103 2.427 . S
O1144 C1167 1.252 . S
O1145 Gd1102 2.307 . S
O1145 C1160 1.261 . S
O1146 Gd1103 2.388 . S
O1146 C1160 1.252 . S
C1147 O1135 1.265 . S
C1147 O1136 1.242 . S
C1148 O1139 1.261 . S
C1148 O1140 1.252 . S
C1149 C1152 1.394 . S
C1149 C1154 1.370 . S
C1149 C1155 1.500 . S
C1150 C1153 1.383 . S
C1150 C1154 1.395 . S
C1151 C1152 1.396 . S
C1151 C1153 1.365 . S
C1151 H1168 0.929 . S
C1152 C1149 1.394 . S
C1152 C1151 1.396 . S
C1152 H1169 0.930 . S
C1153 C1150 1.383 . S
C1153 C1151 1.365 . S
C1153 H1170 0.931 . S
C1154 C1149 1.370 . S
C1154 C1150 1.395 . S
C1154 H1171 0.930 . S
C1155 Gd1102 2.805 . S
C1155 O1137 1.263 . S
C1155 O1138 1.252 . S
C1155 C1149 1.500 . S
C1156 H1118 0.930 . S
C1156 C1132 1.417 . S
C1156 C1157 1.329 . S
C1157 C1127 1.437 . S
C1157 H1128 0.929 . S
C1157 C1156 1.329 . S
H1158 C1131 0.931 . S
C1159 O1141 1.265 . S
C1159 O1142 1.242 . S
C1160 O1145 1.261 . S
C1160 O1146 1.252 . S
C1161 C1164 1.394 . S
C1161 C1166 1.370 . S
C1161 C1167 1.500 . S
C1162 C1165 1.383 . S
C1162 C1166 1.395 . S
C1163 C1164 1.396 . S
C1163 C1165 1.365 . S
C1163 H1172 0.931 . S
C1164 C1161 1.394 . S
C1164 C1163 1.396 . S
C1164 H1173 0.930 . S
C1165 C1162 1.383 . S
C1165 C1163 1.365 . S
C1165 H1174 0.931 1_455 S
C1166 C1161 1.370 . S
C1166 C1162 1.395 . S
C1166 H1175 0.930 . S
C1167 Gd1103 2.805 . S
C1167 O1143 1.263 . S
C1167 O1144 1.252 . S
C1167 C1161 1.500 . S
H1168 C1151 0.929 . S
H1169 C1152 0.930 . S
H1170 C1153 0.931 . S
H1171 C1154 0.930 . S
H1172 C1163 0.931 . S
H1173 C1164 0.930 . S
H1174 C1165 0.931 1_655 S
H1175 C1166 0.930 . S
C1176 C1178 1.422 . S
C1176 C1180 1.415 . S
C1176 N1182 1.369 . S
C1177 C1178 1.421 . S
C1177 C1179 1.417 . S
C1177 C1189 1.422 . S
C1178 C1176 1.422 . S
C1178 C1177 1.421 . S
C1178 N1188 1.359 . S
C1179 C1177 1.417 . S
C1179 C1181 1.329 . S
C1179 H1198 0.930 . S
C1180 C1176 1.415 . S
C1180 C1181 1.437 . S
C1180 C1184 1.413 . S
C1181 C1179 1.329 . S
C1181 C1180 1.437 . S
C1181 H1203 0.929 . S
N1182 C1176 1.369 . S
N1182 C1183 1.338 . S
N1182 Gd1187 2.622 1_565 S
C1183 N1182 1.338 . S
C1183 C1185 1.378 . S
C1183 H1195 0.929 1_565 S
C1184 C1180 1.413 . S
C1184 C1185 1.348 . S
C1184 H1200 0.931 . S
C1185 C1183 1.378 . S
C1185 C1184 1.348 . S
C1185 H1201 0.930 . S
Gd1186 N1206 2.622 . S
Gd1186 N1213 2.570 . S
Gd1186 O1220 2.353 . S
Gd1186 O1221 2.468 . S
Gd1186 O1222 2.427 . S
Gd1186 O1224 2.388 . S
Gd1186 O1225 2.386 . S
Gd1186 O1229 2.307 . S
Gd1186 C1239 2.805 . S
Gd1187 N1182 2.622 1_545 S
Gd1187 N1188 2.570 1_545 S
Gd1187 O1219 2.386 . S
Gd1187 O1223 2.307 . S
Gd1187 O1226 2.353 . S
Gd1187 O1227 2.468 . S
Gd1187 O1228 2.427 . S
Gd1187 O1230 2.388 . S
Gd1187 C1251 2.835 . S
N1188 C1178 1.359 . S
N1188 Gd1187 2.570 1_565 S
N1188 C1190 1.343 . S
C1189 C1177 1.422 . S
C1189 C1191 1.321 . S
C1189 H1197 0.931 . S
C1190 N1188 1.343 . S
C1190 C1191 1.390 . S
C1190 H1192 0.931 . S
C1191 C1189 1.321 . S
C1191 C1190 1.390 . S
C1191 H1193 0.930 . S
H1192 C1190 0.931 . S
H1193 C1191 0.930 . S
H1194 C1217 0.931 . S
H1195 C1183 0.929 1_545 S
H1196 C1218 0.930 . S
H1197 C1189 0.931 . S
H1198 C1179 0.930 . S
H1199 C1208 0.929 . S
H1200 C1184 0.931 . S
H1201 C1185 0.930 . S
H1202 C1240 0.930 . S
H1203 C1181 0.929 . S
H1204 C1209 0.931 . S
H1205 C1210 0.930 . S
N1206 Gd1186 2.622 . S
N1206 C1207 1.369 . S
N1206 C1208 1.338 . S
C1207 N1206 1.369 . S
C1207 C1211 1.415 . S
C1207 C1214 1.422 . S
C1208 H1199 0.929 . S
C1208 N1206 1.338 . S
C1208 C1210 1.378 . S
C1209 H1204 0.931 . S
C1209 C1210 1.348 . S
C1209 C1211 1.413 . S
C1210 H1205 0.930 . S
C1210 C1208 1.378 . S
C1210 C1209 1.348 . S
C1211 C1207 1.415 . S
C1211 C1209 1.413 . S
C1211 C1241 1.437 . S
H1212 C1241 0.929 . S
N1213 Gd1186 2.570 . S
N1213 C1214 1.359 . S
N1213 C1217 1.343 . S
C1214 C1207 1.422 . S
C1214 N1213 1.359 . S
C1214 C1216 1.421 . S
C1215 C1216 1.422 . S
C1215 C1218 1.321 . S
C1215 H1242 0.931 . S
C1216 C1214 1.421 . S
C1216 C1215 1.422 . S
C1216 C1240 1.417 . S
C1217 H1194 0.931 . S
C1217 N1213 1.343 . S
C1217 C1218 1.390 . S
C1218 H1196 0.930 . S
C1218 C1215 1.321 . S
C1218 C1217 1.390 . S
O1219 Gd1187 2.386 . S
O1219 C1231 1.265 . S
O1220 Gd1186 2.353 . S
O1220 C1231 1.242 . S
O1221 Gd1186 2.468 . S
O1221 C1239 1.263 . S
O1222 Gd1186 2.427 . S
O1222 C1239 1.252 . S
O1223 Gd1187 2.307 . S
O1223 C1232 1.261 . S
O1224 Gd1186 2.388 . S
O1224 C1232 1.252 . S
O1225 Gd1186 2.386 . S
O1225 C1243 1.265 . S
O1226 Gd1187 2.353 . S
O1226 C1243 1.242 . S
O1227 Gd1187 2.468 . S
O1227 C1251 1.278 . S
O1228 Gd1187 2.427 . S
O1228 C1251 1.273 . S
O1229 Gd1186 2.307 . S
O1229 C1244 1.261 . S
O1230 Gd1187 2.388 . S
O1230 C1244 1.252 . S
C1231 O1219 1.265 . S
C1231 O1220 1.242 . S
C1232 O1223 1.261 . S
C1232 O1224 1.252 . S
C1233 C1236 1.394 . S
C1233 C1238 1.370 . S
C1233 C1239 1.500 . S
C1234 C1237 1.383 . S
C1234 C1238 1.395 . S
C1235 C1236 1.396 . S
C1235 C1237 1.365 . S
C1235 H1252 0.929 . S
C1236 C1233 1.394 . S
C1236 C1235 1.396 . S
C1236 H1253 0.930 . S
C1237 C1234 1.383 . S
C1237 C1235 1.365 . S
C1237 H1254 0.931 . S
C1238 C1233 1.370 . S
C1238 C1234 1.395 . S
C1238 H1255 0.930 . S
C1239 Gd1186 2.805 . S
C1239 O1221 1.263 . S
C1239 O1222 1.252 . S
C1239 C1233 1.500 . S
C1240 H1202 0.930 . S
C1240 C1216 1.417 . S
C1240 C1241 1.329 . S
C1241 C1211 1.437 . S
C1241 H1212 0.929 . S
C1241 C1240 1.329 . S
H1242 C1215 0.931 . S
C1243 O1225 1.265 . S
C1243 O1226 1.242 . S
C1244 O1229 1.261 . S
C1244 O1230 1.252 . S
C1245 C1248 1.394 . S
C1245 C1250 1.370 . S
C1245 C1251 1.472 1_565 S
C1246 C1249 1.383 . S
C1246 C1250 1.395 . S
C1247 C1248 1.396 . S
C1247 C1249 1.365 . S
C1247 H1256 0.929 . S
C1248 C1245 1.394 . S
C1248 C1247 1.396 . S
C1248 H1257 0.930 . S
C1249 C1246 1.383 . S
C1249 C1247 1.365 . S
C1249 H1258 0.931 . S
C1250 C1245 1.370 . S
C1250 C1246 1.395 . S
C1250 H1259 0.930 . S
C1251 Gd1187 2.835 . S
C1251 O1227 1.278 . S
C1251 O1228 1.273 . S
C1251 C1245 1.472 1_545 S
H1252 C1235 0.929 . S
H1253 C1236 0.930 . S
H1254 C1237 0.931 . S
H1255 C1238 0.930 . S
H1256 C1247 0.929 . S
H1257 C1248 0.930 . S
H1258 C1249 0.931 . S
H1259 C1250 0.930 . S
C1260 C1262 1.422 . S
C1260 C1264 1.415 . S
C1260 N1266 1.369 . S
C1261 C1262 1.421 . S
C1261 C1263 1.417 . S
C1261 C1273 1.422 . S
C1262 C1260 1.422 . S
C1262 C1261 1.421 . S
C1262 N1272 1.359 . S
C1263 C1261 1.417 . S
C1263 C1265 1.329 . S
C1263 H1282 0.930 . S
C1264 C1260 1.415 . S
C1264 C1265 1.437 . S
C1264 C1268 1.413 . S
C1265 C1263 1.329 . S
C1265 C1264 1.437 . S
C1265 H1287 0.929 . S
N1266 C1260 1.369 . S
N1266 C1267 1.338 . S
N1266 Gd1271 2.622 . S
C1267 N1266 1.338 . S
C1267 C1269 1.378 . S
C1267 H1279 0.929 . S
C1268 C1264 1.413 . S
C1268 C1269 1.348 . S
C1268 H1284 0.931 . S
C1269 C1267 1.378 . S
C1269 C1268 1.348 . S
C1269 H1285 0.930 . S
Gd1270 N1290 2.622 . S
Gd1270 N1297 2.570 1_455 S
Gd1270 O1304 2.353 . S
Gd1270 O1305 2.468 . S
Gd1270 O1306 2.427 . S
Gd1270 O1308 2.388 . S
Gd1270 O1309 2.386 . S
Gd1270 O1313 2.307 . S
Gd1270 C1323 2.805 . S
Gd1271 N1266 2.622 . S
Gd1271 N1272 2.570 . S
Gd1271 O1303 2.386 . S
Gd1271 O1307 2.307 . S
Gd1271 O1310 2.353 . S
Gd1271 O1311 2.468 . S
Gd1271 O1312 2.427 . S
Gd1271 O1314 2.388 . S
Gd1271 C1335 2.805 . S
N1272 C1262 1.359 . S
N1272 Gd1271 2.570 . S
N1272 C1274 1.343 . S
C1273 C1261 1.422 . S
C1273 C1275 1.321 . S
C1273 H1281 0.931 . S
C1274 N1272 1.343 . S
C1274 C1275 1.390 . S
C1274 H1276 0.931 . S
C1275 C1273 1.321 . S
C1275 C1274 1.390 . S
C1275 H1277 0.930 . S
H1276 C1274 0.931 . S
H1277 C1275 0.930 . S
H1278 C1301 0.931 1_455 S
H1279 C1267 0.929 . S
H1280 C1302 0.930 . S
H1281 C1273 0.931 . S
H1282 C1263 0.930 . S
H1283 C1292 0.929 . S
H1284 C1268 0.931 . S
H1285 C1269 0.930 . S
H1286 C1324 0.930 . S
H1287 C1265 0.929 . S
H1288 C1293 0.931 . S
H1289 C1294 0.930 . S
N1290 Gd1270 2.622 . S
N1290 C1291 1.369 1_455 S
N1290 C1292 1.338 . S
C1291 N1290 1.369 1_655 S
C1291 C1295 1.415 . S
C1291 C1298 1.422 . S
C1292 H1283 0.929 . S
C1292 N1290 1.338 . S
C1292 C1294 1.378 1_455 S
C1293 H1288 0.931 . S
C1293 C1294 1.348 . S
C1293 C1295 1.413 . S
C1294 H1289 0.930 . S
C1294 C1292 1.378 1_655 S
C1294 C1293 1.348 . S
C1295 C1291 1.415 . S
C1295 C1293 1.413 . S
C1295 C1325 1.437 . S
H1296 C1325 0.929 . S
N1297 Gd1270 2.570 1_655 S
N1297 C1298 1.359 . S
N1297 C1301 1.343 . S
C1298 C1291 1.422 . S
C1298 N1297 1.359 . S
C1298 C1300 1.421 . S
C1299 C1300 1.422 . S
C1299 C1302 1.321 . S
C1299 H1326 0.931 . S
C1300 C1298 1.421 . S
C1300 C1299 1.422 . S
C1300 C1324 1.417 . S
C1301 H1278 0.931 1_655 S
C1301 N1297 1.343 . S
C1301 C1302 1.390 . S
C1302 H1280 0.930 . S
C1302 C1299 1.321 . S
C1302 C1301 1.390 . S
O1303 Gd1271 2.386 . S
O1303 C1315 1.265 . S
O1304 Gd1270 2.353 . S
O1304 C1315 1.242 . S
O1305 Gd1270 2.468 . S
O1305 C1323 1.263 . S
O1306 Gd1270 2.427 . S
O1306 C1323 1.252 . S
O1307 Gd1271 2.307 . S
O1307 C1316 1.261 . S
O1308 Gd1270 2.388 . S
O1308 C1316 1.252 . S
O1309 Gd1270 2.386 . S
O1309 C1327 1.265 . S
O1310 Gd1271 2.353 . S
O1310 C1327 1.242 . S
O1311 Gd1271 2.468 . S
O1311 C1335 1.263 . S
O1312 Gd1271 2.427 . S
O1312 C1335 1.252 . S
O1313 Gd1270 2.307 . S
O1313 C1328 1.261 . S
O1314 Gd1271 2.388 . S
O1314 C1328 1.252 . S
C1315 O1303 1.265 . S
C1315 O1304 1.242 . S
C1316 O1307 1.261 . S
C1316 O1308 1.252 . S
C1317 C1320 1.378 1_455 S
C1317 C1322 1.370 . S
C1317 C1323 1.500 . S
C1318 C1321 1.383 . S
C1318 C1322 1.395 1_655 S
C1319 C1320 1.424 . S
C1319 C1321 1.365 . S
C1319 H1336 0.929 . S
C1320 C1317 1.378 1_655 S
C1320 C1319 1.424 . S
C1320 H1337 0.920 1_655 S
C1321 C1318 1.383 . S
C1321 C1319 1.365 . S
C1321 H1338 0.931 . S
C1322 C1317 1.370 . S
C1322 C1318 1.395 1_455 S
C1322 H1339 0.930 . S
C1323 Gd1270 2.805 . S
C1323 O1305 1.263 . S
C1323 O1306 1.252 . S
C1323 C1317 1.500 . S
C1324 H1286 0.930 . S
C1324 C1300 1.417 . S
C1324 C1325 1.329 . S
C1325 C1295 1.437 . S
C1325 H1296 0.929 . S
C1325 C1324 1.329 . S
H1326 C1299 0.931 . S
C1327 O1309 1.265 . S
C1327 O1310 1.242 . S
C1328 O1313 1.261 . S
C1328 O1314 1.252 . S
C1329 C1332 1.394 . S
C1329 C1334 1.370 . S
C1329 C1335 1.500 . S
C1330 C1333 1.383 . S
C1330 C1334 1.395 . S
C1331 C1332 1.396 . S
C1331 C1333 1.365 . S
C1331 H1340 0.929 . S
C1332 C1329 1.394 . S
C1332 C1331 1.396 . S
C1332 H1341 0.930 . S
C1333 C1330 1.383 . S
C1333 C1331 1.365 . S
C1333 H1342 0.931 . S
C1334 C1329 1.370 . S
C1334 C1330 1.395 . S
C1334 H1343 0.930 . S
C1335 Gd1271 2.805 . S
C1335 O1311 1.263 . S
C1335 O1312 1.252 . S
C1335 C1329 1.500 . S
H1336 C1319 0.929 . S
H1337 C1320 0.920 1_455 S
H1338 C1321 0.931 . S
H1339 C1322 0.930 . S
H1340 C1331 0.929 . S
H1341 C1332 0.930 . S
H1342 C1333 0.931 . S
H1343 C1334 0.930 . S
C1344 C1346 1.422 . S
C1344 C1348 1.415 . S
C1344 N1350 1.369 . S
C1345 C1346 1.421 . S
C1345 C1347 1.417 . S
C1345 C1357 1.422 . S
C1346 C1344 1.422 . S
C1346 C1345 1.421 . S
C1346 N1356 1.359 . S
C1347 C1345 1.417 . S
C1347 C1349 1.329 . S
C1347 H1366 0.930 . S
C1348 C1344 1.415 . S
C1348 C1349 1.437 . S
C1348 C1352 1.413 . S
C1349 C1347 1.329 . S
C1349 C1348 1.437 . S
C1349 H1371 0.929 . S
N1350 C1344 1.369 . S
N1350 C1351 1.338 . S
N1350 Gd1355 2.622 . S
C1351 N1350 1.338 . S
C1351 C1353 1.378 . S
C1351 H1363 0.929 . S
C1352 C1348 1.413 . S
C1352 C1353 1.348 . S
C1352 H1368 0.931 . S
C1353 C1351 1.378 . S
C1353 C1352 1.348 . S
C1353 H1369 0.930 . S
Gd1354 N1374 2.622 . S
Gd1354 N1381 2.570 . S
Gd1354 O1388 2.345 1_556 S
Gd1354 O1389 2.468 . S
Gd1354 O1390 2.427 . S
Gd1354 O1392 2.388 . S
Gd1354 O1393 2.386 1_556 S
Gd1354 O1397 2.307 1_556 S
Gd1354 C1407 2.805 . S
Gd1355 N1350 2.622 . S
Gd1355 N1356 2.570 . S
Gd1355 O1387 2.386 . S
Gd1355 O1391 2.307 . S
Gd1355 O1394 2.353 . S
Gd1355 O1395 2.468 . S
Gd1355 O1396 2.427 . S
Gd1355 O1398 2.388 . S
Gd1355 C1419 2.805 . S
N1356 C1346 1.359 . S
N1356 Gd1355 2.570 . S
N1356 C1358 1.343 . S
C1357 C1345 1.422 . S
C1357 C1359 1.321 . S
C1357 H1365 0.931 . S
C1358 N1356 1.343 . S
C1358 C1359 1.390 . S
C1358 H1360 0.931 . S
C1359 C1357 1.321 . S
C1359 C1358 1.390 . S
C1359 H1361 0.930 . S
H1360 C1358 0.931 . S
H1361 C1359 0.930 . S
H1362 C1385 0.931 . S
H1363 C1351 0.929 . S
H1364 C1386 0.930 . S
H1365 C1357 0.931 . S
H1366 C1347 0.930 . S
H1367 C1376 0.929 . S
H1368 C1352 0.931 . S
H1369 C1353 0.930 . S
H1370 C1408 0.930 . S
H1371 C1349 0.929 . S
H1372 C1377 0.931 . S
H1373 C1378 0.930 . S
N1374 Gd1354 2.622 . S
N1374 C1375 1.369 . S
N1374 C1376 1.338 . S
C1375 N1374 1.369 . S
C1375 C1379 1.415 . S
C1375 C1382 1.422 . S
C1376 H1367 0.929 . S
C1376 N1374 1.338 . S
C1376 C1378 1.378 . S
C1377 H1372 0.931 . S
C1377 C1378 1.348 . S
C1377 C1379 1.413 . S
C1378 H1373 0.930 . S
C1378 C1376 1.378 . S
C1378 C1377 1.348 . S
C1379 C1375 1.415 . S
C1379 C1377 1.413 . S
C1379 C1409 1.437 . S
H1380 C1409 0.929 . S
N1381 Gd1354 2.570 . S
N1381 C1382 1.359 . S
N1381 C1385 1.343 1_556 S
C1382 C1375 1.422 . S
C1382 N1381 1.359 . S
C1382 C1384 1.421 . S
C1383 C1384 1.422 . S
C1383 C1386 1.321 1_556 S
C1383 H1410 0.931 . S
C1384 C1382 1.421 . S
C1384 C1383 1.422 . S
C1384 C1408 1.417 . S
C1385 H1362 0.931 . S
C1385 N1381 1.343 1_554 S
C1385 C1386 1.390 . S
C1386 H1364 0.930 . S
C1386 C1383 1.321 1_554 S
C1386 C1385 1.390 . S
O1387 Gd1355 2.386 . S
O1387 C1399 1.265 . S
O1388 Gd1354 2.345 1_554 S
O1388 C1399 1.270 . S
O1389 Gd1354 2.468 . S
O1389 C1407 1.263 . S
O1390 Gd1354 2.427 . S
O1390 C1407 1.252 . S
O1391 Gd1355 2.307 . S
O1391 C1400 1.261 1_554 S
O1392 Gd1354 2.388 . S
O1392 C1400 1.252 . S
O1393 Gd1354 2.386 1_554 S
O1393 C1411 1.265 . S
O1394 Gd1355 2.353 . S
O1394 C1411 1.242 . S
O1395 Gd1355 2.468 . S
O1395 C1419 1.263 . S
O1396 Gd1355 2.427 . S
O1396 C1419 1.252 . S
O1397 Gd1354 2.307 1_554 S
O1397 C1412 1.261 . S
O1398 Gd1355 2.388 . S
O1398 C1412 1.252 . S
C1399 O1387 1.265 . S
C1399 O1388 1.270 . S
C1400 O1391 1.261 1_556 S
C1400 O1392 1.252 . S
C1401 C1404 1.394 . S
C1401 C1406 1.370 . S
C1401 C1407 1.500 . S
C1402 C1405 1.383 . S
C1402 C1406 1.395 . S
C1403 C1404 1.396 . S
C1403 C1405 1.365 . S
C1403 H1420 0.929 . S
C1404 C1401 1.394 . S
C1404 C1403 1.396 . S
C1404 H1421 0.930 . S
C1405 C1402 1.383 . S
C1405 C1403 1.365 . S
C1405 H1422 0.931 . S
C1406 C1401 1.370 . S
C1406 C1402 1.395 . S
C1406 H1423 0.930 . S
C1407 Gd1354 2.805 . S
C1407 O1389 1.263 . S
C1407 O1390 1.252 . S
C1407 C1401 1.500 . S
C1408 H1370 0.930 . S
C1408 C1384 1.417 . S
C1408 C1409 1.329 . S
C1409 C1379 1.437 . S
C1409 H1380 0.929 . S
C1409 C1408 1.329 . S
H1410 C1383 0.931 . S
C1411 O1393 1.265 . S
C1411 O1394 1.242 . S
C1412 O1397 1.261 . S
C1412 O1398 1.252 . S
C1413 C1416 1.394 . S
C1413 C1418 1.370 . S
C1413 C1419 1.500 . S
C1414 C1417 1.383 . S
C1414 C1418 1.395 . S
C1415 C1416 1.396 . S
C1415 C1417 1.365 . S
C1415 H1424 0.929 . S
C1416 C1413 1.394 . S
C1416 C1415 1.396 . S
C1416 H1425 0.930 . S
C1417 C1414 1.383 . S
C1417 C1415 1.365 . S
C1417 H1426 0.931 . S
C1418 C1413 1.370 . S
C1418 C1414 1.395 . S
C1418 H1427 0.930 . S
C1419 Gd1355 2.805 . S
C1419 O1395 1.263 . S
C1419 O1396 1.252 . S
C1419 C1413 1.500 . S
H1420 C1403 0.929 . S
H1421 C1404 0.930 . S
H1422 C1405 0.931 . S
H1423 C1406 0.930 . S
H1424 C1415 0.929 . S
H1425 C1416 0.930 . S
H1426 C1417 0.931 . S
H1427 C1418 0.930 . S
C1428 C1430 1.422 . S
C1428 C1432 1.415 . S
C1428 N1434 1.369 . S
C1429 C1430 1.421 . S
C1429 C1431 1.417 . S
C1429 C1441 1.422 . S
C1430 C1428 1.422 . S
C1430 C1429 1.421 . S
C1430 N1440 1.359 . S
C1431 C1429 1.417 . S
C1431 C1433 1.329 . S
C1431 H1450 0.930 . S
C1432 C1428 1.415 . S
C1432 C1433 1.437 . S
C1432 C1436 1.413 . S
C1433 C1431 1.329 . S
C1433 C1432 1.437 . S
C1433 H1455 0.929 . S
N1434 C1428 1.369 . S
N1434 C1435 1.338 . S
N1434 Gd1439 2.622 . S
C1435 N1434 1.338 . S
C1435 C1437 1.378 . S
C1435 H1447 0.929 . S
C1436 C1432 1.413 . S
C1436 C1437 1.348 . S
C1436 H1452 0.931 . S
C1437 C1435 1.378 . S
C1437 C1436 1.348 . S
C1437 H1453 0.930 . S
Gd1438 N1458 2.622 1_554 S
Gd1438 N1465 2.570 1_554 S
Gd1438 O1472 2.353 . S
Gd1438 O1473 2.468 1_554 S
Gd1438 O1474 2.427 1_554 S
Gd1438 O1476 2.388 . S
Gd1438 O1477 2.386 . S
Gd1438 O1481 2.307 . S
Gd1438 C1491 2.805 1_554 S
Gd1439 N1434 2.622 . S
Gd1439 N1440 2.570 . S
Gd1439 O1471 2.386 . S
Gd1439 O1475 2.307 . S
Gd1439 O1478 2.353 . S
Gd1439 O1479 2.468 . S
Gd1439 O1480 2.427 . S
Gd1439 O1482 2.388 . S
Gd1439 C1503 2.805 . S
N1440 C1430 1.359 . S
N1440 Gd1439 2.570 . S
N1440 C1442 1.343 . S
C1441 C1429 1.422 . S
C1441 C1443 1.321 . S
C1441 H1449 0.931 . S
C1442 N1440 1.343 . S
C1442 C1443 1.390 . S
C1442 H1444 0.931 . S
C1443 C1441 1.321 . S
C1443 C1442 1.390 . S
C1443 H1445 0.930 . S
H1444 C1442 0.931 . S
H1445 C1443 0.930 . S
H1446 C1469 0.931 . S
H1447 C1435 0.929 . S
H1448 C1470 0.930 . S
H1449 C1441 0.931 . S
H1450 C1431 0.930 . S
H1451 C1460 0.929 . S
H1452 C1436 0.931 . S
H1453 C1437 0.930 . S
H1454 C1492 0.930 . S
H1455 C1433 0.929 . S
H1456 C1461 0.931 . S
H1457 C1462 0.930 . S
N1458 Gd1438 2.622 1_556 S
N1458 C1459 1.369 . S
N1458 C1460 1.338 . S
C1459 N1458 1.369 . S
C1459 C1463 1.415 . S
C1459 C1466 1.422 . S
C1460 H1451 0.929 . S
C1460 N1458 1.338 . S
C1460 C1462 1.378 . S
C1461 H1456 0.931 . S
C1461 C1462 1.348 . S
C1461 C1463 1.413 . S
C1462 H1457 0.930 . S
C1462 C1460 1.378 . S
C1462 C1461 1.348 . S
C1463 C1459 1.415 . S
C1463 C1461 1.413 . S
C1463 C1493 1.437 . S
H1464 C1493 0.929 . S
N1465 Gd1438 2.570 1_556 S
N1465 C1466 1.359 . S
N1465 C1469 1.343 . S
C1466 C1459 1.422 . S
C1466 N1465 1.359 . S
C1466 C1468 1.421 . S
C1467 C1468 1.422 . S
C1467 C1470 1.321 . S
C1467 H1494 0.931 . S
C1468 C1466 1.421 . S
C1468 C1467 1.422 . S
C1468 C1492 1.417 . S
C1469 H1446 0.931 . S
C1469 N1465 1.343 . S
C1469 C1470 1.390 . S
C1470 H1448 0.930 . S
C1470 C1467 1.321 . S
C1470 C1469 1.390 . S
O1471 Gd1439 2.386 . S
O1471 C1483 1.265 . S
O1472 Gd1438 2.353 . S
O1472 C1483 1.242 . S
O1473 Gd1438 2.468 1_556 S
O1473 C1491 1.263 . S
O1474 Gd1438 2.427 1_556 S
O1474 C1491 1.252 . S
O1475 Gd1439 2.307 . S
O1475 C1484 1.261 . S
O1476 Gd1438 2.388 . S
O1476 C1484 1.252 . S
O1477 Gd1438 2.386 . S
O1477 C1495 1.265 . S
O1478 Gd1439 2.353 . S
O1478 C1495 1.242 . S
O1479 Gd1439 2.468 . S
O1479 C1503 1.263 . S
O1480 Gd1439 2.427 . S
O1480 C1503 1.252 . S
O1481 Gd1438 2.307 . S
O1481 C1496 1.261 . S
O1482 Gd1439 2.388 . S
O1482 C1496 1.252 . S
C1483 O1471 1.265 . S
C1483 O1472 1.242 . S
C1484 O1475 1.261 . S
C1484 O1476 1.252 . S
C1485 C1488 1.394 . S
C1485 C1490 1.370 . S
C1485 C1491 1.500 . S
C1486 C1489 1.383 . S
C1486 C1490 1.395 . S
C1487 C1488 1.396 . S
C1487 C1489 1.365 . S
C1487 H1504 0.929 . S
C1488 C1485 1.394 . S
C1488 C1487 1.396 . S
C1488 H1505 0.930 . S
C1489 C1486 1.383 . S
C1489 C1487 1.365 . S
C1489 H1506 0.931 . S
C1490 C1485 1.370 . S
C1490 C1486 1.395 . S
C1490 H1507 0.930 . S
C1491 Gd1438 2.805 1_556 S
C1491 O1473 1.263 . S
C1491 O1474 1.252 . S
C1491 C1485 1.500 . S
C1492 H1454 0.930 . S
C1492 C1468 1.417 . S
C1492 C1493 1.329 . S
C1493 C1463 1.437 . S
C1493 H1464 0.929 . S
C1493 C1492 1.329 . S
H1494 C1467 0.931 . S
C1495 O1477 1.265 . S
C1495 O1478 1.242 . S
C1496 O1481 1.261 . S
C1496 O1482 1.252 . S
C1497 C1500 1.394 . S
C1497 C1502 1.370 . S
C1497 C1503 1.500 . S
C1498 C1501 1.383 . S
C1498 C1502 1.395 . S
C1499 C1500 1.396 . S
C1499 C1501 1.365 . S
C1499 H1508 0.929 . S
C1500 C1497 1.394 . S
C1500 C1499 1.396 . S
C1500 H1509 0.930 . S
C1501 C1498 1.383 . S
C1501 C1499 1.365 . S
C1501 H1510 0.931 . S
C1502 C1497 1.370 . S
C1502 C1498 1.395 . S
C1502 H1511 0.930 . S
C1503 Gd1439 2.805 . S
C1503 O1479 1.263 . S
C1503 O1480 1.252 . S
C1503 C1497 1.500 . S
H1504 C1487 0.929 . S
H1505 C1488 0.930 . S
H1506 C1489 0.931 . S
H1507 C1490 0.930 . S
H1508 C1499 0.929 . S
H1509 C1500 0.930 . S
H1510 C1501 0.931 . S
H1511 C1502 0.930 . S
C1512 C1514 1.422 . S
C1512 C1516 1.415 . S
C1512 N1518 1.369 . S
C1513 C1514 1.421 . S
C1513 C1515 1.417 . S
C1513 C1525 1.422 . S
C1514 C1512 1.422 . S
C1514 C1513 1.421 . S
C1514 N1524 1.359 . S
C1515 C1513 1.417 . S
C1515 C1517 1.329 . S
C1515 H1534 0.930 . S
C1516 C1512 1.415 . S
C1516 C1517 1.437 . S
C1516 C1520 1.413 . S
C1517 C1515 1.329 . S
C1517 C1516 1.437 . S
C1517 H1539 0.929 . S
N1518 C1512 1.369 . S
N1518 C1519 1.338 . S
N1518 Gd1523 2.622 . S
C1519 N1518 1.338 . S
C1519 C1521 1.378 . S
C1519 H1531 0.929 . S
C1520 C1516 1.413 . S
C1520 C1521 1.348 . S
C1520 H1536 0.931 . S
C1521 C1519 1.378 . S
C1521 C1520 1.348 . S
C1521 H1537 0.930 . S
Gd1522 N1542 2.622 . S
Gd1522 N1549 2.570 . S
Gd1522 O1556 2.353 . S
Gd1522 O1557 2.468 . S
Gd1522 O1558 2.427 . S
Gd1522 O1560 2.388 . S
Gd1522 O1561 2.386 . S
Gd1522 O1565 2.307 . S
Gd1522 C1575 2.805 . S
Gd1523 N1518 2.622 . S
Gd1523 N1524 2.570 . S
Gd1523 O1555 2.386 . S
Gd1523 O1559 2.307 . S
Gd1523 O1562 2.353 . S
Gd1523 O1563 2.468 . S
Gd1523 O1564 2.427 . S
Gd1523 O1566 2.388 . S
Gd1523 C1587 2.805 . S
N1524 C1514 1.359 . S
N1524 Gd1523 2.570 . S
N1524 C1526 1.343 . S
C1525 C1513 1.422 . S
C1525 C1527 1.321 . S
C1525 H1533 0.931 . S
C1526 N1524 1.343 . S
C1526 C1527 1.390 . S
C1526 H1528 0.931 . S
C1527 C1525 1.321 . S
C1527 C1526 1.390 . S
C1527 H1529 0.930 . S
H1528 C1526 0.931 . S
H1529 C1527 0.930 . S
H1530 C1553 0.967 . S
H1531 C1519 0.929 . S
H1532 C1554 0.930 . S
H1533 C1525 0.931 . S
H1534 C1515 0.930 . S
H1535 C1544 0.929 . S
H1536 C1520 0.931 . S
H1537 C1521 0.930 . S
H1538 C1576 0.930 . S
H1539 C1517 0.929 . S
H1540 C1545 0.931 . S
H1541 C1546 0.919 1_554 S
N1542 Gd1522 2.622 . S
N1542 C1543 1.369 1_554 S
N1542 C1544 1.338 . S
C1543 N1542 1.369 1_556 S
C1543 C1547 1.415 . S
C1543 C1550 1.422 . S
C1544 H1535 0.929 . S
C1544 N1542 1.338 . S
C1544 C1546 1.334 1_554 S
C1545 H1540 0.931 . S
C1545 C1546 1.406 . S
C1545 C1547 1.413 . S
C1546 H1541 0.919 1_556 S
C1546 C1544 1.334 1_556 S
C1546 C1545 1.406 . S
C1547 C1543 1.415 . S
C1547 C1545 1.413 . S
C1547 C1577 1.437 . S
H1548 C1577 0.929 . S
N1549 Gd1522 2.570 . S
N1549 C1550 1.359 1_554 S
N1549 C1553 1.353 . S
C1550 C1543 1.422 . S
C1550 N1549 1.359 1_556 S
C1550 C1552 1.421 . S
C1551 C1552 1.422 . S
C1551 C1554 1.321 . S
C1551 H1578 0.931 . S
C1552 C1550 1.421 . S
C1552 C1551 1.422 . S
C1552 C1576 1.417 . S
C1553 H1530 0.967 . S
C1553 N1549 1.353 . S
C1553 C1554 1.348 1_554 S
C1554 H1532 0.930 . S
C1554 C1551 1.321 . S
C1554 C1553 1.348 1_556 S
O1555 Gd1523 2.386 . S
O1555 C1567 1.265 . S
O1556 Gd1522 2.353 . S
O1556 C1567 1.242 . S
O1557 Gd1522 2.468 . S
O1557 C1575 1.263 . S
O1558 Gd1522 2.427 . S
O1558 C1575 1.252 . S
O1559 Gd1523 2.307 . S
O1559 C1568 1.261 . S
O1560 Gd1522 2.388 . S
O1560 C1568 1.252 . S
O1561 Gd1522 2.386 . S
O1561 C1579 1.265 . S
O1562 Gd1523 2.353 . S
O1562 C1579 1.242 . S
O1563 Gd1523 2.468 . S
O1563 C1587 1.263 . S
O1564 Gd1523 2.427 . S
O1564 C1587 1.252 . S
O1565 Gd1522 2.307 . S
O1565 C1580 1.261 . S
O1566 Gd1523 2.388 . S
O1566 C1580 1.252 . S
C1567 O1555 1.265 . S
C1567 O1556 1.242 . S
C1568 O1559 1.261 . S
C1568 O1560 1.252 . S
C1569 C1572 1.394 . S
C1569 C1574 1.370 . S
C1569 C1575 1.500 . S
C1570 C1573 1.383 1_554 S
C1570 C1574 1.395 . S
C1571 C1572 1.396 1_556 S
C1571 C1573 1.365 . S
C1571 H1588 0.929 . S
C1572 C1569 1.394 . S
C1572 C1571 1.396 1_554 S
C1572 H1589 0.930 . S
C1573 C1570 1.383 1_556 S
C1573 C1571 1.365 . S
C1573 H1590 0.931 . S
C1574 C1569 1.370 . S
C1574 C1570 1.395 . S
C1574 H1591 0.930 . S
C1575 Gd1522 2.805 . S
C1575 O1557 1.263 . S
C1575 O1558 1.252 . S
C1575 C1569 1.500 . S
C1576 H1538 0.930 . S
C1576 C1552 1.417 . S
C1576 C1577 1.329 . S
C1577 C1547 1.437 . S
C1577 H1548 0.929 . S
C1577 C1576 1.329 . S
H1578 C1551 0.931 . S
C1579 O1561 1.265 . S
C1579 O1562 1.242 . S
C1580 O1565 1.261 . S
C1580 O1566 1.252 . S
C1581 C1584 1.394 . S
C1581 C1586 1.370 . S
C1581 C1587 1.500 . S
C1582 C1585 1.383 . S
C1582 C1586 1.395 . S
C1583 C1584 1.396 . S
C1583 C1585 1.365 . S
C1583 H1592 0.929 . S
C1584 C1581 1.394 . S
C1584 C1583 1.396 . S
C1584 H1593 0.930 . S
C1585 C1582 1.383 . S
C1585 C1583 1.365 . S
C1585 H1594 0.931 . S
C1586 C1581 1.370 . S
C1586 C1582 1.395 . S
C1586 H1595 0.930 . S
C1587 Gd1523 2.805 . S
C1587 O1563 1.263 . S
C1587 O1564 1.252 . S
C1587 C1581 1.500 . S
H1588 C1571 0.929 . S
H1589 C1572 0.930 . S
H1590 C1573 0.931 . S
H1591 C1574 0.930 . S
H1592 C1583 0.929 . S
H1593 C1584 0.930 . S
H1594 C1585 0.931 . S
H1595 C1586 0.930 . S
C1596 C1598 1.422 . S
C1596 C1600 1.415 . S
C1596 N1602 1.369 . S
C1597 C1598 1.421 . S
C1597 C1599 1.417 . S
C1597 C1609 1.422 . S
C1598 C1596 1.422 . S
C1598 C1597 1.421 . S
C1598 N1608 1.359 . S
C1599 C1597 1.417 . S
C1599 C1601 1.329 . S
C1599 H1618 0.930 . S
C1600 C1596 1.415 . S
C1600 C1601 1.437 . S
C1600 C1604 1.413 . S
C1601 C1599 1.329 . S
C1601 C1600 1.437 . S
C1601 H1623 0.929 . S
N1602 C1596 1.369 . S
N1602 C1603 1.338 . S
N1602 Gd1607 2.622 . S
C1603 N1602 1.338 . S
C1603 C1605 1.378 . S
C1603 H1615 0.929 . S
C1604 C1600 1.413 . S
C1604 C1605 1.348 . S
C1604 H1620 0.931 . S
C1605 C1603 1.378 . S
C1605 C1604 1.348 . S
C1605 H1621 0.930 . S
Gd1606 N1626 2.622 1_554 S
Gd1606 N1633 2.570 1_554 S
Gd1606 O1640 2.353 . S
Gd1606 O1641 2.468 1_554 S
Gd1606 O1642 2.427 1_554 S
Gd1606 O1644 2.388 . S
Gd1606 O1645 2.386 . S
Gd1606 O1649 2.307 . S
Gd1606 C1659 2.805 1_554 S
Gd1607 N1602 2.622 . S
Gd1607 N1608 2.570 . S
Gd1607 O1639 2.386 . S
Gd1607 O1643 2.307 . S
Gd1607 O1646 2.353 . S
Gd1607 O1647 2.468 . S
Gd1607 O1648 2.427 . S
Gd1607 O1650 2.388 . S
Gd1607 C1671 2.805 . S
N1608 C1598 1.359 . S
N1608 Gd1607 2.570 . S
N1608 C1610 1.343 . S
C1609 C1597 1.422 . S
C1609 C1611 1.321 . S
C1609 H1617 0.931 . S
C1610 N1608 1.343 . S
C1610 C1611 1.390 . S
C1610 H1612 0.931 . S
C1611 C1609 1.321 . S
C1611 C1610 1.390 . S
C1611 H1613 0.930 . S
H1612 C1610 0.931 . S
H1613 C1611 0.930 . S
H1614 C1637 0.931 . S
H1615 C1603 0.929 . S
H1616 C1638 0.930 . S
H1617 C1609 0.931 . S
H1618 C1599 0.930 . S
H1619 C1628 0.929 . S
H1620 C1604 0.931 . S
H1621 C1605 0.930 . S
H1622 C1660 0.930 . S
H1623 C1601 0.929 . S
H1624 C1629 0.931 . S
H1625 C1630 0.930 . S
N1626 Gd1606 2.622 1_556 S
N1626 C1627 1.369 . S
N1626 C1628 1.338 . S
C1627 N1626 1.369 . S
C1627 C1631 1.415 . S
C1627 C1634 1.422 . S
C1628 H1619 0.929 . S
C1628 N1626 1.338 . S
C1628 C1630 1.378 . S
C1629 H1624 0.931 . S
C1629 C1630 1.348 . S
C1629 C1631 1.413 . S
C1630 H1625 0.930 . S
C1630 C1628 1.378 . S
C1630 C1629 1.348 . S
C1631 C1627 1.415 . S
C1631 C1629 1.413 . S
C1631 C1661 1.437 . S
H1632 C1661 0.929 . S
N1633 Gd1606 2.570 1_556 S
N1633 C1634 1.359 . S
N1633 C1637 1.343 . S
C1634 C1627 1.422 . S
C1634 N1633 1.359 . S
C1634 C1636 1.421 . S
C1635 C1636 1.422 . S
C1635 C1638 1.321 . S
C1635 H1662 0.931 . S
C1636 C1634 1.421 . S
C1636 C1635 1.422 . S
C1636 C1660 1.417 . S
C1637 H1614 0.931 . S
C1637 N1633 1.343 . S
C1637 C1638 1.390 . S
C1638 H1616 0.930 . S
C1638 C1635 1.321 . S
C1638 C1637 1.390 . S
O1639 Gd1607 2.386 . S
O1639 C1651 1.265 . S
O1640 Gd1606 2.353 . S
O1640 C1651 1.242 . S
O1641 Gd1606 2.468 1_556 S
O1641 C1659 1.263 . S
O1642 Gd1606 2.427 1_556 S
O1642 C1659 1.252 . S
O1643 Gd1607 2.307 . S
O1643 C1652 1.261 . S
O1644 Gd1606 2.388 . S
O1644 C1652 1.252 . S
O1645 Gd1606 2.386 . S
O1645 C1663 1.265 . S
O1646 Gd1607 2.353 . S
O1646 C1663 1.242 . S
O1647 Gd1607 2.468 . S
O1647 C1671 1.263 . S
O1648 Gd1607 2.427 . S
O1648 C1671 1.252 . S
O1649 Gd1606 2.307 . S
O1649 C1664 1.261 . S
O1650 Gd1607 2.388 . S
O1650 C1664 1.252 . S
C1651 O1639 1.265 . S
C1651 O1640 1.242 . S
C1652 O1643 1.261 . S
C1652 O1644 1.252 . S
C1653 C1656 1.394 . S
C1653 C1658 1.370 . S
C1653 C1659 1.500 . S
C1654 C1657 1.383 . S
C1654 C1658 1.395 . S
C1655 C1656 1.396 . S
C1655 C1657 1.365 . S
C1655 H1672 0.929 . S
C1656 C1653 1.394 . S
C1656 C1655 1.396 . S
C1656 H1673 0.930 . S
C1657 C1654 1.383 . S
C1657 C1655 1.365 . S
C1657 H1674 0.931 . S
C1658 C1653 1.370 . S
C1658 C1654 1.395 . S
C1658 H1675 0.930 . S
C1659 Gd1606 2.805 1_556 S
C1659 O1641 1.263 . S
C1659 O1642 1.252 . S
C1659 C1653 1.500 . S
C1660 H1622 0.930 . S
C1660 C1636 1.417 . S
C1660 C1661 1.329 . S
C1661 C1631 1.437 . S
C1661 H1632 0.929 . S
C1661 C1660 1.329 . S
H1662 C1635 0.931 . S
C1663 O1645 1.265 . S
C1663 O1646 1.242 . S
C1664 O1649 1.261 . S
C1664 O1650 1.252 . S
C1665 C1668 1.394 . S
C1665 C1670 1.370 . S
C1665 C1671 1.500 . S
C1666 C1669 1.383 . S
C1666 C1670 1.395 . S
C1667 C1668 1.396 . S
C1667 C1669 1.365 . S
C1667 H1676 0.929 . S
C1668 C1665 1.394 . S
C1668 C1667 1.396 . S
C1668 H1677 0.930 . S
C1669 C1666 1.383 . S
C1669 C1667 1.365 . S
C1669 H1678 0.931 . S
C1670 C1665 1.370 . S
C1670 C1666 1.395 . S
C1670 H1679 0.930 . S
C1671 Gd1607 2.805 . S
C1671 O1647 1.263 . S
C1671 O1648 1.252 . S
C1671 C1665 1.500 . S
H1672 C1655 0.929 . S
H1673 C1656 0.930 . S
H1674 C1657 0.931 . S
H1675 C1658 0.930 . S
H1676 C1667 0.929 . S
H1677 C1668 0.930 . S
H1678 C1669 0.931 . S
H1679 C1670 0.930 . S
C1680 C1682 1.422 . S
C1680 C1684 1.415 . S
C1680 N1686 1.369 . S
C1681 C1682 1.421 . S
C1681 C1683 1.417 . S
C1681 C1693 1.422 . S
C1682 C1680 1.422 . S
C1682 C1681 1.421 . S
C1682 N1692 1.359 . S
C1683 C1681 1.417 . S
C1683 C1685 1.329 . S
C1683 H1702 0.930 . S
C1684 C1680 1.415 . S
C1684 C1685 1.437 . S
C1684 C1688 1.413 . S
C1685 C1683 1.329 . S
C1685 C1684 1.437 . S
C1685 H1707 0.929 . S
N1686 C1680 1.369 . S
N1686 C1687 1.338 . S
N1686 Gd1691 2.622 . S
C1687 N1686 1.338 . S
C1687 C1689 1.378 . S
C1687 H1699 0.929 . S
C1688 C1684 1.413 . S
C1688 C1689 1.348 . S
C1688 H1704 0.931 . S
C1689 C1687 1.378 . S
C1689 C1688 1.348 . S
C1689 H1705 0.930 . S
Gd1690 N1710 2.622 . S
Gd1690 N1717 2.570 . S
Gd1690 O1724 2.353 1_556 S
Gd1690 O1725 2.468 . S
Gd1690 O1726 2.427 . S
Gd1690 O1728 2.388 . S
Gd1690 O1729 2.386 . S
Gd1690 O1733 2.307 . S
Gd1690 C1743 2.805 . S
Gd1691 N1686 2.622 . S
Gd1691 N1692 2.570 . S
Gd1691 O1723 2.386 . S
Gd1691 O1727 2.307 . S
Gd1691 O1730 2.353 1_554 S
Gd1691 O1731 2.468 . S
Gd1691 O1732 2.427 . S
Gd1691 O1734 2.388 . S
Gd1691 C1755 2.805 . S
N1692 C1682 1.359 . S
N1692 Gd1691 2.570 . S
N1692 C1694 1.343 . S
C1693 C1681 1.422 . S
C1693 C1695 1.321 . S
C1693 H1701 0.931 . S
C1694 N1692 1.343 . S
C1694 C1695 1.390 . S
C1694 H1696 0.931 . S
C1695 C1693 1.321 . S
C1695 C1694 1.390 . S
C1695 H1697 0.930 . S
H1696 C1694 0.931 . S
H1697 C1695 0.930 . S
H1698 C1721 0.931 . S
H1699 C1687 0.929 . S
H1700 C1722 0.930 . S
H1701 C1693 0.931 . S
H1702 C1683 0.930 . S
H1703 C1712 0.929 . S
H1704 C1688 0.931 . S
H1705 C1689 0.930 . S
H1706 C1744 0.930 . S
H1707 C1685 0.929 . S
H1708 C1713 0.931 . S
H1709 C1714 0.930 . S
N1710 Gd1690 2.622 . S
N1710 C1711 1.369 . S
N1710 C1712 1.338 . S
C1711 N1710 1.369 . S
C1711 C1715 1.415 . S
C1711 C1718 1.422 . S
C1712 H1703 0.929 . S
C1712 N1710 1.338 . S
C1712 C1714 1.378 . S
C1713 H1708 0.931 . S
C1713 C1714 1.348 . S
C1713 C1715 1.413 . S
C1714 H1709 0.930 . S
C1714 C1712 1.378 . S
C1714 C1713 1.348 . S
C1715 C1711 1.415 . S
C1715 C1713 1.413 . S
C1715 C1745 1.437 . S
H1716 C1745 0.929 . S
N1717 Gd1690 2.570 . S
N1717 C1718 1.359 . S
N1717 C1721 1.343 . S
C1718 C1711 1.422 . S
C1718 N1717 1.359 . S
C1718 C1720 1.421 . S
C1719 C1720 1.422 . S
C1719 C1722 1.321 . S
C1719 H1746 0.931 . S
C1720 C1718 1.421 . S
C1720 C1719 1.422 . S
C1720 C1744 1.417 . S
C1721 H1698 0.931 . S
C1721 N1717 1.343 . S
C1721 C1722 1.390 . S
C1722 H1700 0.930 . S
C1722 C1719 1.321 . S
C1722 C1721 1.390 . S
O1723 Gd1691 2.386 . S
O1723 C1735 1.265 . S
O1724 Gd1690 2.353 1_554 S
O1724 C1735 1.242 . S
O1725 Gd1690 2.468 . S
O1725 C1743 1.263 . S
O1726 Gd1690 2.427 . S
O1726 C1743 1.252 . S
O1727 Gd1691 2.307 . S
O1727 C1736 1.261 . S
O1728 Gd1690 2.388 . S
O1728 C1736 1.252 1_556 S
O1729 Gd1690 2.386 . S
O1729 C1747 1.265 . S
O1730 Gd1691 2.353 1_556 S
O1730 C1747 1.242 . S
O1731 Gd1691 2.468 . S
O1731 C1755 1.263 . S
O1732 Gd1691 2.427 . S
O1732 C1755 1.252 . S
O1733 Gd1690 2.307 . S
O1733 C1748 1.261 . S
O1734 Gd1691 2.388 . S
O1734 C1748 1.252 1_554 S
C1735 O1723 1.265 . S
C1735 O1724 1.242 . S
C1736 O1727 1.261 . S
C1736 O1728 1.252 1_554 S
C1737 C1740 1.394 . S
C1737 C1742 1.370 . S
C1737 C1743 1.500 . S
C1738 C1741 1.383 . S
C1738 C1742 1.395 . S
C1739 C1740 1.396 . S
C1739 C1741 1.365 . S
C1739 H1756 0.929 . S
C1740 C1737 1.394 . S
C1740 C1739 1.396 . S
C1740 H1757 0.930 . S
C1741 C1738 1.383 . S
C1741 C1739 1.365 . S
C1741 H1758 0.931 . S
C1742 C1737 1.370 . S
C1742 C1738 1.395 . S
C1742 H1759 0.930 . S
C1743 Gd1690 2.805 . S
C1743 O1725 1.263 . S
C1743 O1726 1.252 . S
C1743 C1737 1.500 . S
C1744 H1706 0.930 . S
C1744 C1720 1.417 . S
C1744 C1745 1.329 . S
C1745 C1715 1.437 . S
C1745 H1716 0.929 . S
C1745 C1744 1.329 . S
H1746 C1719 0.931 . S
C1747 O1729 1.265 . S
C1747 O1730 1.242 . S
C1748 O1733 1.261 . S
C1748 O1734 1.252 1_556 S
C1749 C1752 1.394 . S
C1749 C1754 1.370 . S
C1749 C1755 1.500 . S
C1750 C1753 1.383 . S
C1750 C1754 1.395 . S
C1751 C1752 1.396 . S
C1751 C1753 1.365 . S
C1751 H1760 0.929 . S
C1752 C1749 1.394 . S
C1752 C1751 1.396 . S
C1752 H1761 0.930 . S
C1753 C1750 1.383 . S
C1753 C1751 1.365 . S
C1753 H1762 0.931 . S
C1754 C1749 1.370 . S
C1754 C1750 1.395 . S
C1754 H1763 0.930 . S
C1755 Gd1691 2.805 . S
C1755 O1731 1.263 . S
C1755 O1732 1.252 . S
C1755 C1749 1.500 . S
H1756 C1739 0.929 . S
H1757 C1740 0.930 . S
H1758 C1741 0.931 . S
H1759 C1742 0.930 . S
H1760 C1751 0.929 . S
H1761 C1752 0.930 . S
H1762 C1753 0.931 . S
H1763 C1754 0.930 . S
C1764 C1766 1.422 . S
C1764 C1768 1.415 . S
C1764 N1770 1.369 . S
C1765 C1766 1.421 . S
C1765 C1767 1.417 . S
C1765 C1777 1.422 . S
C1766 C1764 1.422 . S
C1766 C1765 1.421 . S
C1766 N1776 1.359 . S
C1767 C1765 1.417 . S
C1767 C1769 1.329 . S
C1767 H1786 0.930 . S
C1768 C1764 1.415 . S
C1768 C1769 1.437 . S
C1768 C1772 1.413 . S
C1769 C1767 1.329 . S
C1769 C1768 1.437 . S
C1769 H1791 0.929 . S
N1770 C1764 1.369 . S
N1770 C1771 1.338 . S
N1770 Gd1775 2.622 . S
C1771 N1770 1.338 . S
C1771 C1773 1.378 . S
C1771 H1783 0.929 . S
C1772 C1768 1.413 . S
C1772 C1773 1.348 . S
C1772 H1788 0.931 . S
C1773 C1771 1.378 . S
C1773 C1772 1.348 . S
C1773 H1789 0.930 . S
Gd1774 N1794 2.622 1_554 S
Gd1774 N1801 2.570 . S
Gd1774 O1808 2.353 . S
Gd1774 O1809 2.468 . S
Gd1774 O1810 2.427 1_554 S
Gd1774 O1812 2.388 . S
Gd1774 O1813 2.386 . S
Gd1774 O1817 2.307 . S
Gd1774 C1827 2.805 1_554 S
Gd1775 N1770 2.622 . S
Gd1775 N1776 2.570 . S
Gd1775 O1807 2.386 . S
Gd1775 O1811 2.307 . S
Gd1775 O1814 2.353 . S
Gd1775 O1815 2.468 . S
Gd1775 O1816 2.427 . S
Gd1775 O1818 2.388 . S
Gd1775 C1839 2.805 . S
N1776 C1766 1.359 . S
N1776 Gd1775 2.570 . S
N1776 C1778 1.343 . S
C1777 C1765 1.422 . S
C1777 C1779 1.321 . S
C1777 H1785 0.931 . S
C1778 N1776 1.343 . S
C1778 C1779 1.390 . S
C1778 H1780 0.931 . S
C1779 C1777 1.321 . S
C1779 C1778 1.390 . S
C1779 H1781 0.930 . S
H1780 C1778 0.931 . S
H1781 C1779 0.930 . S
H1782 C1805 0.931 . S
H1783 C1771 0.929 . S
H1784 C1806 0.930 . S
H1785 C1777 0.931 . S
H1786 C1767 0.930 . S
H1787 C1796 0.929 . S
H1788 C1772 0.931 . S
H1789 C1773 0.930 . S
H1790 C1828 0.930 . S
H1791 C1769 0.929 . S
H1792 C1797 0.931 . S
H1793 C1798 0.930 . S
N1794 Gd1774 2.622 1_556 S
N1794 C1795 1.369 . S
N1794 C1796 1.338 . S
C1795 N1794 1.369 . S
C1795 C1799 1.415 . S
C1795 C1802 1.422 1_556 S
C1796 H1787 0.929 . S
C1796 N1794 1.338 . S
C1796 C1798 1.378 . S
C1797 H1792 0.931 . S
C1797 C1798 1.348 . S
C1797 C1799 1.413 . S
C1798 H1793 0.930 . S
C1798 C1796 1.378 . S
C1798 C1797 1.348 . S
C1799 C1795 1.415 . S
C1799 C1797 1.413 . S
C1799 C1829 1.437 . S
H1800 C1829 0.929 . S
N1801 Gd1774 2.570 . S
N1801 C1802 1.359 . S
N1801 C1805 1.343 . S
C1802 C1795 1.422 1_554 S
C1802 N1801 1.359 . S
C1802 C1804 1.421 . S
C1803 C1804 1.422 . S
C1803 C1806 1.321 . S
C1803 H1830 0.931 . S
C1804 C1802 1.421 . S
C1804 C1803 1.422 . S
C1804 C1828 1.417 1_554 S
C1805 H1782 0.931 . S
C1805 N1801 1.343 . S
C1805 C1806 1.390 . S
C1806 H1784 0.930 . S
C1806 C1803 1.321 . S
C1806 C1805 1.390 . S
O1807 Gd1775 2.386 . S
O1807 C1819 1.265 . S
O1808 Gd1774 2.353 . S
O1808 C1819 1.242 . S
O1809 Gd1774 2.468 . S
O1809 C1827 1.263 1_554 S
O1810 Gd1774 2.427 1_556 S
O1810 C1827 1.252 . S
O1811 Gd1775 2.307 . S
O1811 C1820 1.261 . S
O1812 Gd1774 2.388 . S
O1812 C1820 1.252 . S
O1813 Gd1774 2.386 . S
O1813 C1831 1.265 . S
O1814 Gd1775 2.353 . S
O1814 C1831 1.242 . S
O1815 Gd1775 2.468 . S
O1815 C1839 1.263 . S
O1816 Gd1775 2.427 . S
O1816 C1839 1.252 . S
O1817 Gd1774 2.307 . S
O1817 C1832 1.261 . S
O1818 Gd1775 2.388 . S
O1818 C1832 1.252 . S
C1819 O1807 1.265 . S
C1819 O1808 1.242 . S
C1820 O1811 1.261 . S
C1820 O1812 1.252 . S
C1821 C1824 1.394 . S
C1821 C1826 1.370 . S
C1821 C1827 1.500 . S
C1822 C1825 1.383 . S
C1822 C1826 1.395 . S
C1823 C1824 1.396 . S
C1823 C1825 1.365 . S
C1823 H1840 0.929 . S
C1824 C1821 1.394 . S
C1824 C1823 1.396 . S
C1824 H1841 0.930 . S
C1825 C1822 1.383 . S
C1825 C1823 1.365 . S
C1825 H1842 0.931 . S
C1826 C1821 1.370 . S
C1826 C1822 1.395 . S
C1826 H1843 0.930 1_556 S
C1827 Gd1774 2.805 1_556 S
C1827 O1809 1.263 1_556 S
C1827 O1810 1.252 . S
C1827 C1821 1.500 . S
C1828 H1790 0.930 . S
C1828 C1804 1.417 1_556 S
C1828 C1829 1.329 . S
C1829 C1799 1.437 . S
C1829 H1800 0.929 . S
C1829 C1828 1.329 . S
H1830 C1803 0.931 . S
C1831 O1813 1.265 . S
C1831 O1814 1.242 . S
C1832 O1817 1.261 . S
C1832 O1818 1.252 . S
C1833 C1836 1.394 . S
C1833 C1838 1.370 . S
C1833 C1839 1.500 . S
C1834 C1837 1.383 . S
C1834 C1838 1.395 . S
C1835 C1836 1.396 . S
C1835 C1837 1.365 . S
C1835 H1844 0.929 . S
C1836 C1833 1.394 . S
C1836 C1835 1.396 . S
C1836 H1845 0.930 . S
C1837 C1834 1.383 . S
C1837 C1835 1.365 . S
C1837 H1846 0.931 . S
C1838 C1833 1.370 . S
C1838 C1834 1.395 . S
C1838 H1847 0.930 . S
C1839 Gd1775 2.805 . S
C1839 O1815 1.263 . S
C1839 O1816 1.252 . S
C1839 C1833 1.500 . S
H1840 C1823 0.929 . S
H1841 C1824 0.930 . S
H1842 C1825 0.931 . S
H1843 C1826 0.930 1_554 S
H1844 C1835 0.929 . S
H1845 C1836 0.930 . S
H1846 C1837 0.931 . S
H1847 C1838 0.930 . S
C1848 C1850 1.422 . S
C1848 C1852 1.415 . S
C1848 N1854 1.369 . S
C1849 C1850 1.421 . S
C1849 C1851 1.417 . S
C1849 C1861 1.422 . S
C1850 C1848 1.422 . S
C1850 C1849 1.421 . S
C1850 N1860 1.359 . S
C1851 C1849 1.417 . S
C1851 C1853 1.329 . S
C1851 H1870 0.930 . S
C1852 C1848 1.415 . S
C1852 C1853 1.437 . S
C1852 C1856 1.413 . S
C1853 C1851 1.329 . S
C1853 C1852 1.437 . S
C1853 H1875 0.929 . S
N1854 C1848 1.369 . S
N1854 C1855 1.338 . S
N1854 Gd1859 2.622 1_556 S
C1855 N1854 1.338 . S
C1855 C1857 1.378 . S
C1855 H1867 0.933 . S
C1856 C1852 1.413 . S
C1856 C1857 1.348 . S
C1856 H1872 0.931 . S
C1857 C1855 1.378 . S
C1857 C1856 1.348 . S
C1857 H1873 0.930 . S
Gd1858 N1878 2.622 . S
Gd1858 N1885 2.570 . S
Gd1858 O1892 2.353 . S
Gd1858 O1893 2.468 . S
Gd1858 O1894 2.427 . S
Gd1858 O1896 2.388 . S
Gd1858 O1897 2.386 . S
Gd1858 O1901 2.307 . S
Gd1858 C1911 2.805 . S
Gd1859 N1854 2.622 1_554 S
Gd1859 N1860 2.570 1_554 S
Gd1859 O1891 2.386 . S
Gd1859 O1895 2.307 . S
Gd1859 O1898 2.353 . S
Gd1859 O1899 2.468 . S
Gd1859 O1900 2.427 . S
Gd1859 O1902 2.388 . S
Gd1859 C1923 2.803 1_554 S
N1860 C1850 1.359 . S
N1860 Gd1859 2.570 1_556 S
N1860 C1862 1.343 . S
C1861 C1849 1.422 . S
C1861 C1863 1.321 . S
C1861 H1869 0.931 . S
C1862 N1860 1.343 . S
C1862 C1863 1.390 . S
C1862 H1864 0.931 . S
C1863 C1861 1.321 . S
C1863 C1862 1.390 . S
C1863 H1865 0.930 . S
H1864 C1862 0.931 . S
H1865 C1863 0.930 . S
H1866 C1889 0.931 . S
H1867 C1855 0.933 . S
H1868 C1890 0.930 . S
H1869 C1861 0.931 . S
H1870 C1851 0.930 . S
H1871 C1880 0.929 . S
H1872 C1856 0.931 . S
H1873 C1857 0.930 . S
H1874 C1912 0.930 . S
H1875 C1853 0.929 . S
H1876 C1881 0.931 . S
H1877 C1882 0.930 . S
N1878 Gd1858 2.622 . S
N1878 C1879 1.369 . S
N1878 C1880 1.338 . S
C1879 N1878 1.369 . S
C1879 C1883 1.415 . S
C1879 C1886 1.422 . S
C1880 H1871 0.929 . S
C1880 N1878 1.338 . S
C1880 C1882 1.378 . S
C1881 H1876 0.931 . S
C1881 C1882 1.348 . S
C1881 C1883 1.413 . S
C1882 H1877 0.930 . S
C1882 C1880 1.378 . S
C1882 C1881 1.348 . S
C1883 C1879 1.415 . S
C1883 C1881 1.413 . S
C1883 C1913 1.437 . S
H1884 C1913 0.929 . S
N1885 Gd1858 2.570 . S
N1885 C1886 1.359 . S
N1885 C1889 1.343 . S
C1886 C1879 1.422 . S
C1886 N1885 1.359 . S
C1886 C1888 1.421 . S
C1887 C1888 1.422 . S
C1887 C1890 1.321 . S
C1887 H1914 0.931 . S
C1888 C1886 1.421 . S
C1888 C1887 1.422 . S
C1888 C1912 1.417 . S
C1889 H1866 0.931 . S
C1889 N1885 1.343 . S
C1889 C1890 1.390 . S
C1890 H1868 0.930 . S
C1890 C1887 1.321 . S
C1890 C1889 1.390 . S
O1891 Gd1859 2.386 . S
O1891 C1903 1.265 . S
O1892 Gd1858 2.353 . S
O1892 C1903 1.242 . S
O1893 Gd1858 2.468 . S
O1893 C1911 1.263 . S
O1894 Gd1858 2.427 . S
O1894 C1911 1.252 . S
O1895 Gd1859 2.307 . S
O1895 C1904 1.261 . S
O1896 Gd1858 2.388 . S
O1896 C1904 1.252 . S
O1897 Gd1858 2.386 . S
O1897 C1915 1.265 . S
O1898 Gd1859 2.353 . S
O1898 C1915 1.242 . S
O1899 Gd1859 2.468 . S
O1899 C1923 1.262 1_554 S
O1900 Gd1859 2.427 . S
O1900 C1923 1.252 1_554 S
O1901 Gd1858 2.307 . S
O1901 C1916 1.261 . S
O1902 Gd1859 2.388 . S
O1902 C1916 1.252 . S
C1903 O1891 1.265 . S
C1903 O1892 1.242 . S
C1904 O1895 1.261 . S
C1904 O1896 1.252 . S
C1905 C1908 1.394 . S
C1905 C1910 1.370 . S
C1905 C1911 1.500 . S
C1906 C1909 1.383 . S
C1906 C1910 1.395 . S
C1907 C1908 1.396 . S
C1907 C1909 1.365 . S
C1907 H1924 0.929 . S
C1908 C1905 1.394 . S
C1908 C1907 1.396 . S
C1908 H1925 0.930 . S
C1909 C1906 1.383 . S
C1909 C1907 1.365 . S
C1909 H1926 0.931 . S
C1910 C1905 1.370 . S
C1910 C1906 1.395 . S
C1910 H1927 0.930 . S
C1911 Gd1858 2.805 . S
C1911 O1893 1.263 . S
C1911 O1894 1.252 . S
C1911 C1905 1.500 . S
C1912 H1874 0.930 . S
C1912 C1888 1.417 . S
C1912 C1913 1.329 . S
C1913 C1883 1.437 . S
C1913 H1884 0.929 . S
C1913 C1912 1.329 . S
H1914 C1887 0.931 . S
C1915 O1897 1.265 . S
C1915 O1898 1.242 . S
C1916 O1901 1.261 . S
C1916 O1902 1.252 . S
C1917 C1920 1.394 . S
C1917 C1922 1.370 . S
C1917 C1923 1.502 . S
C1918 C1921 1.383 . S
C1918 C1922 1.395 . S
C1919 C1920 1.396 . S
C1919 C1921 1.365 . S
C1919 H1928 0.929 . S
C1920 C1917 1.394 . S
C1920 C1919 1.396 . S
C1920 H1929 0.930 . S
C1921 C1918 1.383 . S
C1921 C1919 1.365 . S
C1921 H1930 0.931 . S
C1922 C1917 1.370 . S
C1922 C1918 1.395 . S
C1922 H1931 0.930 . S
C1923 Gd1859 2.803 1_556 S
C1923 O1899 1.262 1_556 S
C1923 O1900 1.252 1_556 S
C1923 C1917 1.502 . S
H1924 C1907 0.929 . S
H1925 C1908 0.930 . S
H1926 C1909 0.931 . S
H1927 C1910 0.930 . S
H1928 C1919 0.929 . S
H1929 C1920 0.930 . S
H1930 C1921 0.931 . S
H1931 C1922 0.930 . S
C1932 C1934 1.422 . S
C1932 C1936 1.415 . S
C1932 N1938 1.369 . S
C1933 C1934 1.421 . S
C1933 C1935 1.417 . S
C1933 C1945 1.422 . S
C1934 C1932 1.422 . S
C1934 C1933 1.421 . S
C1934 N1944 1.359 . S
C1935 C1933 1.417 . S
C1935 C1937 1.329 . S
C1935 H1954 0.930 . S
C1936 C1932 1.415 . S
C1936 C1937 1.437 . S
C1936 C1940 1.413 . S
C1937 C1935 1.329 . S
C1937 C1936 1.437 . S
C1937 H1959 0.929 . S
N1938 C1932 1.369 . S
N1938 C1939 1.338 . S
N1938 Gd1943 2.622 . S
C1939 N1938 1.338 . S
C1939 C1941 1.378 . S
C1939 H1951 0.929 . S
C1940 C1936 1.413 . S
C1940 C1941 1.348 . S
C1940 H1956 0.931 . S
C1941 C1939 1.378 . S
C1941 C1940 1.348 . S
C1941 H1957 0.930 . S
Gd1942 N1962 2.622 . S
Gd1942 N1969 2.570 . S
Gd1942 O1976 2.353 . S
Gd1942 O1977 2.468 . S
Gd1942 O1978 2.427 . S
Gd1942 O1980 2.388 . S
Gd1942 O1981 2.386 . S
Gd1942 O1985 2.307 . S
Gd1942 C1995 2.805 . S
Gd1943 N1938 2.622 . S
Gd1943 N1944 2.570 . S
Gd1943 O1975 2.386 . S
Gd1943 O1979 2.307 1_556 S
Gd1943 O1982 2.353 1_556 S
Gd1943 O1983 2.468 . S
Gd1943 O1984 2.427 . S
Gd1943 O1986 2.388 1_556 S
Gd1943 C2007 2.805 . S
N1944 C1934 1.359 . S
N1944 Gd1943 2.570 . S
N1944 C1946 1.343 . S
C1945 C1933 1.422 . S
C1945 C1947 1.321 . S
C1945 H1953 0.931 . S
C1946 N1944 1.343 . S
C1946 C1947 1.390 . S
C1946 H1948 0.931 . S
C1947 C1945 1.321 . S
C1947 C1946 1.390 . S
C1947 H1949 0.930 . S
H1948 C1946 0.931 . S
H1949 C1947 0.930 . S
H1950 C1973 0.931 . S
H1951 C1939 0.929 . S
H1952 C1974 0.930 . S
H1953 C1945 0.931 . S
H1954 C1935 0.930 . S
H1955 C1964 0.929 . S
H1956 C1940 0.931 . S
H1957 C1941 0.930 . S
H1958 C1996 0.930 . S
H1959 C1937 0.929 . S
H1960 C1965 0.931 . S
H1961 C1966 0.930 . S
N1962 Gd1942 2.622 . S
N1962 C1963 1.369 . S
N1962 C1964 1.338 . S
C1963 N1962 1.369 . S
C1963 C1967 1.415 . S
C1963 C1970 1.422 . S
C1964 H1955 0.929 . S
C1964 N1962 1.338 . S
C1964 C1966 1.378 . S
C1965 H1960 0.931 . S
C1965 C1966 1.348 . S
C1965 C1967 1.413 . S
C1966 H1961 0.930 . S
C1966 C1964 1.378 . S
C1966 C1965 1.348 . S
C1967 C1963 1.415 . S
C1967 C1965 1.413 . S
C1967 C1997 1.437 . S
H1968 C1997 0.929 . S
N1969 Gd1942 2.570 . S
N1969 C1970 1.359 . S
N1969 C1973 1.343 . S
C1970 C1963 1.422 . S
C1970 N1969 1.359 . S
C1970 C1972 1.421 . S
C1971 C1972 1.422 . S
C1971 C1974 1.321 . S
C1971 H1998 0.931 . S
C1972 C1970 1.421 . S
C1972 C1971 1.422 . S
C1972 C1996 1.417 . S
C1973 H1950 0.931 . S
C1973 N1969 1.343 . S
C1973 C1974 1.390 . S
C1974 H1952 0.930 . S
C1974 C1971 1.321 . S
C1974 C1973 1.390 . S
O1975 Gd1943 2.386 . S
O1975 C1987 1.265 1_556 S
O1976 Gd1942 2.353 . S
O1976 C1987 1.242 . S
O1977 Gd1942 2.468 . S
O1977 C1995 1.263 . S
O1978 Gd1942 2.427 . S
O1978 C1995 1.252 . S
O1979 Gd1943 2.307 1_554 S
O1979 C1988 1.261 . S
O1980 Gd1942 2.388 . S
O1980 C1988 1.252 . S
O1981 Gd1942 2.386 . S
O1981 C1999 1.265 . S
O1982 Gd1943 2.353 1_554 S
O1982 C1999 1.242 . S
O1983 Gd1943 2.468 . S
O1983 C2007 1.263 . S
O1984 Gd1943 2.427 . S
O1984 C2007 1.252 . S
O1985 Gd1942 2.307 . S
O1985 C2000 1.261 . S
O1986 Gd1943 2.388 1_554 S
O1986 C2000 1.252 . S
C1987 O1975 1.265 1_554 S
C1987 O1976 1.242 . S
C1988 O1979 1.261 . S
C1988 O1980 1.252 . S
C1989 C1992 1.394 . S
C1989 C1994 1.370 . S
C1989 C1995 1.500 . S
C1990 C1993 1.383 . S
C1990 C1994 1.395 . S
C1991 C1992 1.396 . S
C1991 C1993 1.365 . S
C1991 H2008 0.929 . S
C1992 C1989 1.394 . S
C1992 C1991 1.396 . S
C1992 H2009 0.930 . S
C1993 C1990 1.383 . S
C1993 C1991 1.365 . S
C1993 H2010 0.931 . S
C1994 C1989 1.370 . S
C1994 C1990 1.395 . S
C1994 H2011 0.930 . S
C1995 Gd1942 2.805 . S
C1995 O1977 1.263 . S
C1995 O1978 1.252 . S
C1995 C1989 1.500 . S
C1996 H1958 0.930 . S
C1996 C1972 1.417 . S
C1996 C1997 1.329 . S
C1997 C1967 1.437 . S
C1997 H1968 0.929 . S
C1997 C1996 1.329 . S
H1998 C1971 0.931 . S
C1999 O1981 1.265 . S
C1999 O1982 1.242 . S
C2000 O1985 1.261 . S
C2000 O1986 1.252 . S
C2001 C2004 1.394 . S
C2001 C2006 1.370 . S
C2001 C2007 1.500 . S
C2002 C2005 1.383 . S
C2002 C2006 1.395 . S
C2003 C2004 1.396 . S
C2003 C2005 1.365 . S
C2003 H2012 0.929 . S
C2004 C2001 1.394 . S
C2004 C2003 1.396 . S
C2004 H2013 0.930 . S
C2005 C2002 1.383 . S
C2005 C2003 1.365 . S
C2005 H2014 0.931 . S
C2006 C2001 1.370 . S
C2006 C2002 1.395 . S
C2006 H2015 0.930 . S
C2007 Gd1943 2.805 . S
C2007 O1983 1.263 . S
C2007 O1984 1.252 . S
C2007 C2001 1.500 . S
H2008 C1991 0.929 . S
H2009 C1992 0.930 . S
H2010 C1993 0.931 . S
H2011 C1994 0.930 . S
H2012 C2003 0.929 . S
H2013 C2004 0.930 . S
H2014 C2005 0.931 . S
H2015 C2006 0.930 . S
C2016 C2018 1.422 . S
C2016 C2020 1.415 . S
C2016 N2022 1.369 . S
C2017 C2018 1.421 . S
C2017 C2019 1.417 . S
C2017 C2029 1.422 . S
C2018 C2016 1.422 . S
C2018 C2017 1.421 . S
C2018 N2028 1.359 . S
C2019 C2017 1.417 . S
C2019 C2021 1.329 . S
C2019 H2038 0.930 . S
C2020 C2016 1.415 . S
C2020 C2021 1.437 . S
C2020 C2024 1.413 . S
C2021 C2019 1.329 . S
C2021 C2020 1.437 . S
C2021 H2043 0.929 . S
N2022 C2016 1.369 . S
N2022 C2023 1.338 . S
N2022 Gd2027 2.622 . S
C2023 N2022 1.338 . S
C2023 C2025 1.378 . S
C2023 H2035 0.929 . S
C2024 C2020 1.413 . S
C2024 C2025 1.348 . S
C2024 H2040 0.931 . S
C2025 C2023 1.378 . S
C2025 C2024 1.348 . S
C2025 H2041 0.930 . S
Gd2026 N2046 2.622 . S
Gd2026 N2053 2.570 . S
Gd2026 O2060 2.353 . S
Gd2026 O2061 2.468 . S
Gd2026 O2062 2.427 . S
Gd2026 O2064 2.388 . S
Gd2026 O2065 2.386 . S
Gd2026 O2069 2.307 . S
Gd2026 C2079 2.805 . S
Gd2027 N2022 2.622 . S
Gd2027 N2028 2.570 . S
Gd2027 O2059 2.386 . S
Gd2027 O2063 2.307 . S
Gd2027 O2066 2.353 . S
Gd2027 O2067 2.468 . S
Gd2027 O2068 2.427 . S
Gd2027 O2070 2.388 . S
Gd2027 C2091 2.805 . S
N2028 C2018 1.359 . S
N2028 Gd2027 2.570 . S
N2028 C2030 1.343 . S
C2029 C2017 1.422 . S
C2029 C2031 1.321 . S
C2029 H2037 0.931 . S
C2030 N2028 1.343 . S
C2030 C2031 1.390 . S
C2030 H2032 0.931 . S
C2031 C2029 1.321 . S
C2031 C2030 1.390 . S
C2031 H2033 0.930 . S
H2032 C2030 0.931 . S
H2033 C2031 0.930 . S
H2034 C2057 0.931 . S
H2035 C2023 0.929 . S
H2036 C2058 0.930 . S
H2037 C2029 0.931 . S
H2038 C2019 0.930 . S
H2039 C2048 0.929 . S
H2040 C2024 0.931 . S
H2041 C2025 0.930 . S
H2042 C2080 0.930 . S
H2043 C2021 0.929 . S
H2044 C2049 0.931 . S
H2045 C2050 0.930 . S
N2046 Gd2026 2.622 . S
N2046 C2047 1.369 . S
N2046 C2048 1.338 . S
C2047 N2046 1.369 . S
C2047 C2051 1.415 . S
C2047 C2054 1.422 . S
C2048 H2039 0.929 . S
C2048 N2046 1.338 . S
C2048 C2050 1.378 . S
C2049 H2044 0.931 . S
C2049 C2050 1.348 . S
C2049 C2051 1.413 . S
C2050 H2045 0.930 . S
C2050 C2048 1.378 . S
C2050 C2049 1.348 . S
C2051 C2047 1.415 . S
C2051 C2049 1.413 . S
C2051 C2081 1.437 . S
H2052 C2081 0.929 . S
N2053 Gd2026 2.570 . S
N2053 C2054 1.359 . S
N2053 C2057 1.343 . S
C2054 C2047 1.422 . S
C2054 N2053 1.359 . S
C2054 C2056 1.421 . S
C2055 C2056 1.422 . S
C2055 C2058 1.321 . S
C2055 H2082 0.931 . S
C2056 C2054 1.421 . S
C2056 C2055 1.422 . S
C2056 C2080 1.417 . S
C2057 H2034 0.931 . S
C2057 N2053 1.343 . S
C2057 C2058 1.390 . S
C2058 H2036 0.930 . S
C2058 C2055 1.321 . S
C2058 C2057 1.390 . S
O2059 Gd2027 2.386 . S
O2059 C2071 1.265 . S
O2060 Gd2026 2.353 . S
O2060 C2071 1.242 . S
O2061 Gd2026 2.468 . S
O2061 C2079 1.263 . S
O2062 Gd2026 2.427 . S
O2062 C2079 1.252 . S
O2063 Gd2027 2.307 . S
O2063 C2072 1.261 . S
O2064 Gd2026 2.388 . S
O2064 C2072 1.252 . S
O2065 Gd2026 2.386 . S
O2065 C2083 1.265 . S
O2066 Gd2027 2.353 . S
O2066 C2083 1.242 . S
O2067 Gd2027 2.468 . S
O2067 C2091 1.263 . S
O2068 Gd2027 2.427 . S
O2068 C2091 1.252 . S
O2069 Gd2026 2.307 . S
O2069 C2084 1.261 . S
O2070 Gd2027 2.388 . S
O2070 C2084 1.252 . S
C2071 O2059 1.265 . S
C2071 O2060 1.242 . S
C2072 O2063 1.261 . S
C2072 O2064 1.252 . S
C2073 C2076 1.394 . S
C2073 C2078 1.370 . S
C2073 C2079 1.500 . S
C2074 C2077 1.383 . S
C2074 C2078 1.395 . S
C2075 C2076 1.396 . S
C2075 C2077 1.365 . S
C2075 H2092 0.929 . S
C2076 C2073 1.394 . S
C2076 C2075 1.396 . S
C2076 H2093 0.930 . S
C2077 C2074 1.383 . S
C2077 C2075 1.365 . S
C2077 H2094 0.931 . S
C2078 C2073 1.370 . S
C2078 C2074 1.395 . S
C2078 H2095 0.930 . S
C2079 Gd2026 2.805 . S
C2079 O2061 1.263 . S
C2079 O2062 1.252 . S
C2079 C2073 1.500 . S
C2080 H2042 0.930 . S
C2080 C2056 1.417 . S
C2080 C2081 1.329 . S
C2081 C2051 1.437 . S
C2081 H2052 0.929 . S
C2081 C2080 1.329 . S
H2082 C2055 0.931 . S
C2083 O2065 1.265 . S
C2083 O2066 1.242 . S
C2084 O2069 1.261 . S
C2084 O2070 1.252 . S
C2085 C2088 1.394 . S
C2085 C2090 1.370 . S
C2085 C2091 1.500 . S
C2086 C2089 1.383 . S
C2086 C2090 1.395 . S
C2087 C2088 1.396 . S
C2087 C2089 1.365 . S
C2087 H2096 0.929 . S
C2088 C2085 1.394 . S
C2088 C2087 1.396 . S
C2088 H2097 0.930 . S
C2089 C2086 1.383 . S
C2089 C2087 1.365 . S
C2089 H2098 0.931 . S
C2090 C2085 1.370 . S
C2090 C2086 1.395 . S
C2090 H2099 0.930 . S
C2091 Gd2027 2.805 . S
C2091 O2067 1.263 . S
C2091 O2068 1.252 . S
C2091 C2085 1.500 . S
H2092 C2075 0.929 . S
H2093 C2076 0.930 . S
H2094 C2077 0.931 . S
H2095 C2078 0.930 . S
H2096 C2087 0.929 . S
H2097 C2088 0.930 . S
H2098 C2089 0.931 . S
H2099 C2090 0.930 . S
C2100 C2102 1.422 . S
C2100 C2104 1.415 . S
C2100 N2106 1.369 . S
C2101 C2102 1.421 . S
C2101 C2103 1.417 . S
C2101 C2113 1.422 . S
C2102 C2100 1.422 . S
C2102 C2101 1.421 . S
C2102 N2112 1.359 . S
C2103 C2101 1.417 . S
C2103 C2105 1.329 . S
C2103 H2122 0.930 . S
C2104 C2100 1.415 . S
C2104 C2105 1.437 . S
C2104 C2108 1.413 . S
C2105 C2103 1.329 . S
C2105 C2104 1.437 . S
C2105 H2127 0.929 . S
N2106 C2100 1.369 . S
N2106 C2107 1.338 . S
N2106 Gd2111 2.622 . S
C2107 N2106 1.338 . S
C2107 C2109 1.378 . S
C2107 H2119 0.929 . S
C2108 C2104 1.413 . S
C2108 C2109 1.348 . S
C2108 H2124 0.931 . S
C2109 C2107 1.378 . S
C2109 C2108 1.348 . S
C2109 H2125 0.930 . S
Gd2110 N2130 2.622 . S
Gd2110 N2137 2.570 . S
Gd2110 O2144 2.353 . S
Gd2110 O2145 2.468 . S
Gd2110 O2146 2.427 . S
Gd2110 O2148 2.388 . S
Gd2110 O2149 2.386 . S
Gd2110 O2153 2.307 . S
Gd2110 C2163 2.805 . S
Gd2111 N2106 2.622 . S
Gd2111 N2112 2.570 . S
Gd2111 O2143 2.386 . S
Gd2111 O2147 2.307 . S
Gd2111 O2150 2.353 . S
Gd2111 O2151 2.468 . S
Gd2111 O2152 2.427 . S
Gd2111 O2154 2.388 . S
Gd2111 C2175 2.805 . S
N2112 C2102 1.359 . S
N2112 Gd2111 2.570 . S
N2112 C2114 1.343 . S
C2113 C2101 1.422 . S
C2113 C2115 1.321 . S
C2113 H2121 0.931 . S
C2114 N2112 1.343 . S
C2114 C2115 1.390 . S
C2114 H2116 0.931 . S
C2115 C2113 1.321 . S
C2115 C2114 1.390 . S
C2115 H2117 0.930 . S
H2116 C2114 0.931 . S
H2117 C2115 0.930 . S
H2118 C2141 0.931 . S
H2119 C2107 0.929 . S
H2120 C2142 0.930 . S
H2121 C2113 0.931 . S
H2122 C2103 0.930 . S
H2123 C2132 0.929 . S
H2124 C2108 0.931 . S
H2125 C2109 0.930 . S
H2126 C2164 0.930 . S
H2127 C2105 0.929 . S
H2128 C2133 0.931 . S
H2129 C2134 0.930 . S
N2130 Gd2110 2.622 . S
N2130 C2131 1.369 . S
N2130 C2132 1.338 . S
C2131 N2130 1.369 . S
C2131 C2135 1.415 . S
C2131 C2138 1.422 . S
C2132 H2123 0.929 . S
C2132 N2130 1.338 . S
C2132 C2134 1.378 . S
C2133 H2128 0.931 . S
C2133 C2134 1.348 . S
C2133 C2135 1.413 . S
C2134 H2129 0.930 . S
C2134 C2132 1.378 . S
C2134 C2133 1.348 . S
C2135 C2131 1.415 . S
C2135 C2133 1.413 . S
C2135 C2165 1.437 . S
H2136 C2165 0.929 . S
N2137 Gd2110 2.570 . S
N2137 C2138 1.359 . S
N2137 C2141 1.343 . S
C2138 C2131 1.422 . S
C2138 N2137 1.359 . S
C2138 C2140 1.421 . S
C2139 C2140 1.422 . S
C2139 C2142 1.321 . S
C2139 H2166 0.931 . S
C2140 C2138 1.421 . S
C2140 C2139 1.422 . S
C2140 C2164 1.417 . S
C2141 H2118 0.931 . S
C2141 N2137 1.343 . S
C2141 C2142 1.390 . S
C2142 H2120 0.930 . S
C2142 C2139 1.321 . S
C2142 C2141 1.390 . S
O2143 Gd2111 2.386 . S
O2143 C2155 1.265 . S
O2144 Gd2110 2.353 . S
O2144 C2155 1.242 . S
O2145 Gd2110 2.468 . S
O2145 C2163 1.263 . S
O2146 Gd2110 2.427 . S
O2146 C2163 1.252 . S
O2147 Gd2111 2.307 . S
O2147 C2156 1.261 . S
O2148 Gd2110 2.388 . S
O2148 C2156 1.252 . S
O2149 Gd2110 2.386 . S
O2149 C2167 1.265 . S
O2150 Gd2111 2.353 . S
O2150 C2167 1.242 . S
O2151 Gd2111 2.468 . S
O2151 C2175 1.263 . S
O2152 Gd2111 2.427 . S
O2152 C2175 1.252 . S
O2153 Gd2110 2.307 . S
O2153 C2168 1.261 . S
O2154 Gd2111 2.388 . S
O2154 C2168 1.252 . S
C2155 O2143 1.265 . S
C2155 O2144 1.242 . S
C2156 O2147 1.261 . S
C2156 O2148 1.252 . S
C2157 C2160 1.394 . S
C2157 C2162 1.370 . S
C2157 C2163 1.500 . S
C2158 C2161 1.383 . S
C2158 C2162 1.395 . S
C2159 C2160 1.396 . S
C2159 C2161 1.365 . S
C2159 H2176 0.929 . S
C2160 C2157 1.394 . S
C2160 C2159 1.396 . S
C2160 H2177 0.930 . S
C2161 C2158 1.383 . S
C2161 C2159 1.365 . S
C2161 H2178 0.931 . S
C2162 C2157 1.370 . S
C2162 C2158 1.395 . S
C2162 H2179 0.930 . S
C2163 Gd2110 2.805 . S
C2163 O2145 1.263 . S
C2163 O2146 1.252 . S
C2163 C2157 1.500 . S
C2164 H2126 0.930 . S
C2164 C2140 1.417 . S
C2164 C2165 1.329 . S
C2165 C2135 1.437 . S
C2165 H2136 0.929 . S
C2165 C2164 1.329 . S
H2166 C2139 0.931 . S
C2167 O2149 1.265 . S
C2167 O2150 1.242 . S
C2168 O2153 1.261 . S
C2168 O2154 1.252 . S
C2169 C2172 1.394 . S
C2169 C2174 1.370 . S
C2169 C2175 1.500 . S
C2170 C2173 1.383 . S
C2170 C2174 1.395 . S
C2171 C2172 1.396 . S
C2171 C2173 1.365 . S
C2171 H2180 0.929 . S
C2172 C2169 1.394 . S
C2172 C2171 1.396 . S
C2172 H2181 0.930 . S
C2173 C2170 1.383 . S
C2173 C2171 1.365 . S
C2173 H2182 0.931 . S
C2174 C2169 1.370 . S
C2174 C2170 1.395 . S
C2174 H2183 0.930 . S
C2175 Gd2111 2.805 . S
C2175 O2151 1.263 . S
C2175 O2152 1.252 . S
C2175 C2169 1.500 . S
H2176 C2159 0.929 . S
H2177 C2160 0.930 . S
H2178 C2161 0.931 . S
H2179 C2162 0.930 . S
H2180 C2171 0.929 . S
H2181 C2172 0.930 . S
H2182 C2173 0.931 . S
H2183 C2174 0.930 . S
C2184 C2186 1.422 . S
C2184 C2188 1.415 . S
C2184 N2190 1.369 . S
C2185 C2186 1.421 . S
C2185 C2187 1.417 . S
C2185 C2197 1.422 . S
C2186 C2184 1.422 . S
C2186 C2185 1.421 . S
C2186 N2196 1.359 . S
C2187 C2185 1.417 . S
C2187 C2189 1.329 . S
C2187 H2206 0.930 . S
C2188 C2184 1.415 . S
C2188 C2189 1.437 . S
C2188 C2192 1.413 . S
C2189 C2187 1.329 . S
C2189 C2188 1.437 . S
C2189 H2211 0.929 . S
N2190 C2184 1.369 . S
N2190 C2191 1.338 . S
N2190 Gd2195 2.622 . S
C2191 N2190 1.338 . S
C2191 C2193 1.378 . S
C2191 H2203 0.929 . S
C2192 C2188 1.413 . S
C2192 C2193 1.348 . S
C2192 H2208 0.931 . S
C2193 C2191 1.378 . S
C2193 C2192 1.348 . S
C2193 H2209 0.930 . S
Gd2194 N2214 2.622 . S
Gd2194 N2221 2.570 . S
Gd2194 O2228 2.353 . S
Gd2194 O2229 2.468 . S
Gd2194 O2230 2.427 . S
Gd2194 O2232 2.388 . S
Gd2194 O2233 2.386 . S
Gd2194 O2237 2.307 . S
Gd2194 C2247 2.805 . S
Gd2195 N2190 2.622 . S
Gd2195 N2196 2.570 . S
Gd2195 O2227 2.386 . S
Gd2195 O2231 2.307 . S
Gd2195 O2234 2.353 . S
Gd2195 O2235 2.468 . S
Gd2195 O2236 2.427 . S
Gd2195 O2238 2.388 . S
Gd2195 C2259 2.805 . S
N2196 C2186 1.359 . S
N2196 Gd2195 2.570 . S
N2196 C2198 1.343 . S
C2197 C2185 1.422 . S
C2197 C2199 1.321 . S
C2197 H2205 0.931 . S
C2198 N2196 1.343 . S
C2198 C2199 1.390 . S
C2198 H2200 0.931 . S
C2199 C2197 1.321 . S
C2199 C2198 1.390 . S
C2199 H2201 0.930 . S
H2200 C2198 0.931 . S
H2201 C2199 0.930 . S
H2202 C2225 0.931 . S
H2203 C2191 0.929 . S
H2204 C2226 0.930 . S
H2205 C2197 0.931 . S
H2206 C2187 0.930 . S
H2207 C2216 0.929 . S
H2208 C2192 0.931 . S
H2209 C2193 0.930 . S
H2210 C2248 0.930 . S
H2211 C2189 0.929 . S
H2212 C2217 0.931 . S
H2213 C2218 0.930 . S
N2214 Gd2194 2.622 . S
N2214 C2215 1.369 . S
N2214 C2216 1.338 . S
C2215 N2214 1.369 . S
C2215 C2219 1.415 . S
C2215 C2222 1.422 . S
C2216 H2207 0.929 . S
C2216 N2214 1.338 . S
C2216 C2218 1.378 . S
C2217 H2212 0.931 . S
C2217 C2218 1.348 . S
C2217 C2219 1.413 . S
C2218 H2213 0.930 . S
C2218 C2216 1.378 . S
C2218 C2217 1.348 . S
C2219 C2215 1.415 . S
C2219 C2217 1.413 . S
C2219 C2249 1.437 . S
H2220 C2249 0.929 . S
N2221 Gd2194 2.570 . S
N2221 C2222 1.359 . S
N2221 C2225 1.343 . S
C2222 C2215 1.422 . S
C2222 N2221 1.359 . S
C2222 C2224 1.421 . S
C2223 C2224 1.422 . S
C2223 C2226 1.321 . S
C2223 H2250 0.931 . S
C2224 C2222 1.421 . S
C2224 C2223 1.422 . S
C2224 C2248 1.417 . S
C2225 H2202 0.931 . S
C2225 N2221 1.343 . S
C2225 C2226 1.390 . S
C2226 H2204 0.930 . S
C2226 C2223 1.321 . S
C2226 C2225 1.390 . S
O2227 Gd2195 2.386 . S
O2227 C2239 1.265 . S
O2228 Gd2194 2.353 . S
O2228 C2239 1.242 . S
O2229 Gd2194 2.468 . S
O2229 C2247 1.263 . S
O2230 Gd2194 2.427 . S
O2230 C2247 1.252 . S
O2231 Gd2195 2.307 . S
O2231 C2240 1.261 . S
O2232 Gd2194 2.388 . S
O2232 C2240 1.252 . S
O2233 Gd2194 2.386 . S
O2233 C2251 1.265 . S
O2234 Gd2195 2.353 . S
O2234 C2251 1.242 . S
O2235 Gd2195 2.468 . S
O2235 C2259 1.263 . S
O2236 Gd2195 2.427 . S
O2236 C2259 1.252 . S
O2237 Gd2194 2.307 . S
O2237 C2252 1.261 . S
O2238 Gd2195 2.388 . S
O2238 C2252 1.252 . S
C2239 O2227 1.265 . S
C2239 O2228 1.242 . S
C2240 O2231 1.261 . S
C2240 O2232 1.252 . S
C2241 C2244 1.394 . S
C2241 C2246 1.370 . S
C2241 C2247 1.500 . S
C2242 C2245 1.383 . S
C2242 C2246 1.395 . S
C2243 C2244 1.396 . S
C2243 C2245 1.365 . S
C2243 H2260 0.929 . S
C2244 C2241 1.394 . S
C2244 C2243 1.396 . S
C2244 H2261 0.930 . S
C2245 C2242 1.383 . S
C2245 C2243 1.365 . S
C2245 H2262 0.931 . S
C2246 C2241 1.370 . S
C2246 C2242 1.395 . S
C2246 H2263 0.930 . S
C2247 Gd2194 2.805 . S
C2247 O2229 1.263 . S
C2247 O2230 1.252 . S
C2247 C2241 1.500 . S
C2248 H2210 0.930 . S
C2248 C2224 1.417 . S
C2248 C2249 1.329 . S
C2249 C2219 1.437 . S
C2249 H2220 0.929 . S
C2249 C2248 1.329 . S
H2250 C2223 0.931 . S
C2251 O2233 1.265 . S
C2251 O2234 1.242 . S
C2252 O2237 1.261 . S
C2252 O2238 1.252 . S
C2253 C2256 1.394 . S
C2253 C2258 1.370 . S
C2253 C2259 1.500 . S
C2254 C2257 1.383 . S
C2254 C2258 1.395 . S
C2255 C2256 1.396 . S
C2255 C2257 1.365 . S
C2255 H2264 0.929 . S
C2256 C2253 1.394 . S
C2256 C2255 1.396 . S
C2256 H2265 0.930 . S
C2257 C2254 1.383 . S
C2257 C2255 1.365 . S
C2257 H2266 0.931 . S
C2258 C2253 1.370 . S
C2258 C2254 1.395 . S
C2258 H2267 0.930 . S
C2259 Gd2195 2.805 . S
C2259 O2235 1.263 . S
C2259 O2236 1.252 . S
C2259 C2253 1.500 . S
H2260 C2243 0.929 . S
H2261 C2244 0.930 . S
H2262 C2245 0.931 . S
H2263 C2246 0.930 . S
H2264 C2255 0.929 . S
H2265 C2256 0.930 . S
H2266 C2257 0.931 . S
H2267 C2258 0.930 . S
C2268 C2270 1.422 . S
C2268 C2272 1.415 . S
C2268 N2274 1.369 . S
C2269 C2270 1.421 . S
C2269 C2271 1.417 . S
C2269 C2281 1.422 . S
C2270 C2268 1.422 . S
C2270 C2269 1.421 . S
C2270 N2280 1.359 . S
C2271 C2269 1.417 . S
C2271 C2273 1.329 . S
C2271 H2290 0.930 . S
C2272 C2268 1.415 . S
C2272 C2273 1.437 . S
C2272 C2276 1.413 . S
C2273 C2271 1.329 . S
C2273 C2272 1.437 . S
C2273 H2295 0.929 . S
N2274 C2268 1.369 . S
N2274 C2275 1.338 . S
N2274 Gd2279 2.622 . S
C2275 N2274 1.338 . S
C2275 C2277 1.378 . S
C2275 H2287 0.929 . S
C2276 C2272 1.413 . S
C2276 C2277 1.348 . S
C2276 H2292 0.931 . S
C2277 C2275 1.378 . S
C2277 C2276 1.348 . S
C2277 H2293 0.930 . S
Gd2278 N2298 2.622 . S
Gd2278 N2305 2.570 . S
Gd2278 O2312 2.353 . S
Gd2278 O2313 2.468 . S
Gd2278 O2314 2.427 . S
Gd2278 O2316 2.388 . S
Gd2278 O2317 2.386 . S
Gd2278 O2321 2.307 . S
Gd2278 C2331 2.805 . S
Gd2279 N2274 2.622 . S
Gd2279 N2280 2.570 . S
Gd2279 O2311 2.386 . S
Gd2279 O2315 2.307 . S
Gd2279 O2318 2.353 . S
Gd2279 O2319 2.468 . S
Gd2279 O2320 2.427 . S
Gd2279 O2322 2.388 . S
Gd2279 C2343 2.805 . S
N2280 C2270 1.359 . S
N2280 Gd2279 2.570 . S
N2280 C2282 1.343 . S
C2281 C2269 1.422 . S
C2281 C2283 1.321 . S
C2281 H2289 0.931 . S
C2282 N2280 1.343 . S
C2282 C2283 1.390 . S
C2282 H2284 0.931 . S
C2283 C2281 1.321 . S
C2283 C2282 1.390 . S
C2283 H2285 0.930 . S
H2284 C2282 0.931 . S
H2285 C2283 0.930 . S
H2286 C2309 0.931 . S
H2287 C2275 0.929 . S
H2288 C2310 0.930 . S
H2289 C2281 0.931 . S
H2290 C2271 0.930 . S
H2291 C2300 0.929 . S
H2292 C2276 0.931 . S
H2293 C2277 0.930 . S
H2294 C2332 0.930 . S
H2295 C2273 0.929 . S
H2296 C2301 0.931 . S
H2297 C2302 0.930 . S
N2298 Gd2278 2.622 . S
N2298 C2299 1.369 . S
N2298 C2300 1.338 . S
C2299 N2298 1.369 . S
C2299 C2303 1.415 . S
C2299 C2306 1.422 . S
C2300 H2291 0.929 . S
C2300 N2298 1.338 . S
C2300 C2302 1.378 . S
C2301 H2296 0.931 . S
C2301 C2302 1.348 . S
C2301 C2303 1.413 . S
C2302 H2297 0.930 . S
C2302 C2300 1.378 . S
C2302 C2301 1.348 . S
C2303 C2299 1.415 . S
C2303 C2301 1.413 . S
C2303 C2333 1.437 . S
H2304 C2333 0.929 . S
N2305 Gd2278 2.570 . S
N2305 C2306 1.359 . S
N2305 C2309 1.343 . S
C2306 C2299 1.422 . S
C2306 N2305 1.359 . S
C2306 C2308 1.421 . S
C2307 C2308 1.422 . S
C2307 C2310 1.321 . S
C2307 H2334 0.931 . S
C2308 C2306 1.421 . S
C2308 C2307 1.422 . S
C2308 C2332 1.417 . S
C2309 H2286 0.931 . S
C2309 N2305 1.343 . S
C2309 C2310 1.390 . S
C2310 H2288 0.930 . S
C2310 C2307 1.321 . S
C2310 C2309 1.390 . S
O2311 Gd2279 2.386 . S
O2311 C2323 1.265 . S
O2312 Gd2278 2.353 . S
O2312 C2323 1.242 . S
O2313 Gd2278 2.468 . S
O2313 C2331 1.263 . S
O2314 Gd2278 2.427 . S
O2314 C2331 1.252 . S
O2315 Gd2279 2.307 . S
O2315 C2324 1.261 . S
O2316 Gd2278 2.388 . S
O2316 C2324 1.252 . S
O2317 Gd2278 2.386 . S
O2317 C2335 1.265 . S
O2318 Gd2279 2.353 . S
O2318 C2335 1.242 . S
O2319 Gd2279 2.468 . S
O2319 C2343 1.263 . S
O2320 Gd2279 2.427 . S
O2320 C2343 1.252 . S
O2321 Gd2278 2.307 . S
O2321 C2336 1.261 . S
O2322 Gd2279 2.388 . S
O2322 C2336 1.252 . S
C2323 O2311 1.265 . S
C2323 O2312 1.242 . S
C2324 O2315 1.261 . S
C2324 O2316 1.252 . S
C2325 C2328 1.394 . S
C2325 C2330 1.370 . S
C2325 C2331 1.500 . S
C2326 C2329 1.383 . S
C2326 C2330 1.395 . S
C2327 C2328 1.396 . S
C2327 C2329 1.365 . S
C2327 H2344 0.929 . S
C2328 C2325 1.394 . S
C2328 C2327 1.396 . S
C2328 H2345 0.930 . S
C2329 C2326 1.383 . S
C2329 C2327 1.365 . S
C2329 H2346 0.931 . S
C2330 C2325 1.370 . S
C2330 C2326 1.395 . S
C2330 H2347 0.930 . S
C2331 Gd2278 2.805 . S
C2331 O2313 1.263 . S
C2331 O2314 1.252 . S
C2331 C2325 1.500 . S
C2332 H2294 0.930 . S
C2332 C2308 1.417 . S
C2332 C2333 1.329 . S
C2333 C2303 1.437 . S
C2333 H2304 0.929 . S
C2333 C2332 1.329 . S
H2334 C2307 0.931 . S
C2335 O2317 1.265 . S
C2335 O2318 1.242 . S
C2336 O2321 1.261 . S
C2336 O2322 1.252 . S
C2337 C2340 1.394 . S
C2337 C2342 1.370 . S
C2337 C2343 1.500 . S
C2338 C2341 1.383 . S
C2338 C2342 1.395 . S
C2339 C2340 1.396 . S
C2339 C2341 1.365 . S
C2339 H2348 0.929 . S
C2340 C2337 1.394 . S
C2340 C2339 1.396 . S
C2340 H2349 0.930 . S
C2341 C2338 1.383 . S
C2341 C2339 1.365 . S
C2341 H2350 0.931 . S
C2342 C2337 1.370 . S
C2342 C2338 1.395 . S
C2342 H2351 0.930 . S
C2343 Gd2279 2.805 . S
C2343 O2319 1.263 . S
C2343 O2320 1.252 . S
C2343 C2337 1.500 . S
H2344 C2327 0.929 . S
H2345 C2328 0.930 . S
H2346 C2329 0.931 . S
H2347 C2330 0.930 . S
H2348 C2339 0.929 . S
H2349 C2340 0.930 . S
H2350 C2341 0.931 . S
H2351 C2342 0.930 . S
C2352 C2354 1.422 . S
C2352 C2356 1.415 . S
C2352 N2358 1.369 . S
C2353 C2354 1.421 . S
C2353 C2355 1.417 . S
C2353 C2365 1.422 . S
C2354 C2352 1.422 . S
C2354 C2353 1.421 . S
C2354 N2364 1.359 . S
C2355 C2353 1.417 . S
C2355 C2357 1.329 . S
C2355 H2374 0.930 . S
C2356 C2352 1.415 . S
C2356 C2357 1.437 . S
C2356 C2360 1.413 . S
C2357 C2355 1.329 . S
C2357 C2356 1.437 . S
C2357 H2379 0.929 . S
N2358 C2352 1.369 . S
N2358 C2359 1.338 . S
N2358 Gd2363 2.622 . S
C2359 N2358 1.338 . S
C2359 C2361 1.378 . S
C2359 H2371 0.929 . S
C2360 C2356 1.413 . S
C2360 C2361 1.348 . S
C2360 H2376 0.931 . S
C2361 C2359 1.378 . S
C2361 C2360 1.348 . S
C2361 H2377 0.930 . S
Gd2362 N2382 2.622 . S
Gd2362 N2389 2.570 . S
Gd2362 O2396 2.353 . S
Gd2362 O2397 2.468 . S
Gd2362 O2398 2.427 . S
Gd2362 O2400 2.388 . S
Gd2362 O2401 2.386 . S
Gd2362 O2405 2.307 . S
Gd2362 C2415 2.805 . S
Gd2363 N2358 2.622 . S
Gd2363 N2364 2.570 . S
Gd2363 O2395 2.386 . S
Gd2363 O2399 2.307 . S
Gd2363 O2402 2.353 . S
Gd2363 O2403 2.468 . S
Gd2363 O2404 2.427 . S
Gd2363 O2406 2.388 . S
Gd2363 C2427 2.805 . S
N2364 C2354 1.359 . S
N2364 Gd2363 2.570 . S
N2364 C2366 1.343 . S
C2365 C2353 1.422 . S
C2365 C2367 1.321 . S
C2365 H2373 0.931 . S
C2366 N2364 1.343 . S
C2366 C2367 1.390 . S
C2366 H2368 0.931 . S
C2367 C2365 1.321 . S
C2367 C2366 1.390 . S
C2367 H2369 0.930 . S
H2368 C2366 0.931 . S
H2369 C2367 0.930 . S
H2370 C2393 0.931 . S
H2371 C2359 0.929 . S
H2372 C2394 0.930 . S
H2373 C2365 0.931 . S
H2374 C2355 0.930 . S
H2375 C2384 0.929 . S
H2376 C2360 0.931 . S
H2377 C2361 0.930 . S
H2378 C2416 0.930 . S
H2379 C2357 0.929 . S
H2380 C2385 0.931 . S
H2381 C2386 0.930 . S
N2382 Gd2362 2.622 . S
N2382 C2383 1.369 . S
N2382 C2384 1.338 . S
C2383 N2382 1.369 . S
C2383 C2387 1.415 . S
C2383 C2390 1.422 . S
C2384 H2375 0.929 . S
C2384 N2382 1.338 . S
C2384 C2386 1.378 . S
C2385 H2380 0.931 . S
C2385 C2386 1.348 . S
C2385 C2387 1.413 . S
C2386 H2381 0.930 . S
C2386 C2384 1.378 . S
C2386 C2385 1.348 . S
C2387 C2383 1.415 . S
C2387 C2385 1.413 . S
C2387 C2417 1.437 . S
H2388 C2417 0.929 . S
N2389 Gd2362 2.570 . S
N2389 C2390 1.359 . S
N2389 C2393 1.343 . S
C2390 C2383 1.422 . S
C2390 N2389 1.359 . S
C2390 C2392 1.421 . S
C2391 C2392 1.422 . S
C2391 C2394 1.321 . S
C2391 H2418 0.931 . S
C2392 C2390 1.421 . S
C2392 C2391 1.422 . S
C2392 C2416 1.417 . S
C2393 H2370 0.931 . S
C2393 N2389 1.343 . S
C2393 C2394 1.390 . S
C2394 H2372 0.930 . S
C2394 C2391 1.321 . S
C2394 C2393 1.390 . S
O2395 Gd2363 2.386 . S
O2395 C2407 1.265 . S
O2396 Gd2362 2.353 . S
O2396 C2407 1.242 . S
O2397 Gd2362 2.468 . S
O2397 C2415 1.263 . S
O2398 Gd2362 2.427 . S
O2398 C2415 1.252 . S
O2399 Gd2363 2.307 . S
O2399 C2408 1.261 . S
O2400 Gd2362 2.388 . S
O2400 C2408 1.252 . S
O2401 Gd2362 2.386 . S
O2401 C2419 1.265 . S
O2402 Gd2363 2.353 . S
O2402 C2419 1.242 . S
O2403 Gd2363 2.468 . S
O2403 C2427 1.263 . S
O2404 Gd2363 2.427 . S
O2404 C2427 1.252 . S
O2405 Gd2362 2.307 . S
O2405 C2420 1.261 . S
O2406 Gd2363 2.388 . S
O2406 C2420 1.252 . S
C2407 O2395 1.265 . S
C2407 O2396 1.242 . S
C2408 O2399 1.261 . S
C2408 O2400 1.252 . S
C2409 C2412 1.394 . S
C2409 C2414 1.370 . S
C2409 C2415 1.500 . S
C2410 C2413 1.383 . S
C2410 C2414 1.395 . S
C2411 C2412 1.396 . S
C2411 C2413 1.365 . S
C2411 H2428 0.929 . S
C2412 C2409 1.394 . S
C2412 C2411 1.396 . S
C2412 H2429 0.930 . S
C2413 C2410 1.383 . S
C2413 C2411 1.365 . S
C2413 H2430 0.931 . S
C2414 C2409 1.370 . S
C2414 C2410 1.395 . S
C2414 H2431 0.930 . S
C2415 Gd2362 2.805 . S
C2415 O2397 1.263 . S
C2415 O2398 1.252 . S
C2415 C2409 1.500 . S
C2416 H2378 0.930 . S
C2416 C2392 1.417 . S
C2416 C2417 1.329 . S
C2417 C2387 1.437 . S
C2417 H2388 0.929 . S
C2417 C2416 1.329 . S
H2418 C2391 0.931 . S
C2419 O2401 1.265 . S
C2419 O2402 1.242 . S
C2420 O2405 1.261 . S
C2420 O2406 1.252 . S
C2421 C2424 1.394 . S
C2421 C2426 1.370 . S
C2421 C2427 1.500 . S
C2422 C2425 1.383 . S
C2422 C2426 1.395 . S
C2423 C2424 1.396 . S
C2423 C2425 1.365 . S
C2423 H2432 0.929 . S
C2424 C2421 1.394 . S
C2424 C2423 1.396 . S
C2424 H2433 0.930 . S
C2425 C2422 1.383 . S
C2425 C2423 1.365 . S
C2425 H2434 0.931 . S
C2426 C2421 1.370 . S
C2426 C2422 1.395 . S
C2426 H2435 0.930 . S
C2427 Gd2363 2.805 . S
C2427 O2403 1.263 . S
C2427 O2404 1.252 . S
C2427 C2421 1.500 . S
H2428 C2411 0.929 . S
H2429 C2412 0.930 . S
H2430 C2413 0.931 . S
H2431 C2414 0.930 . S
H2432 C2423 0.929 . S
H2433 C2424 0.930 . S
H2434 C2425 0.931 . S
H2435 C2426 0.930 . S
C2436 C2438 1.422 . S
C2436 C2440 1.415 . S
C2436 N2442 1.369 . S
C2437 C2438 1.421 . S
C2437 C2439 1.417 . S
C2437 C2449 1.422 . S
C2438 C2436 1.422 . S
C2438 C2437 1.421 . S
C2438 N2448 1.359 . S
C2439 C2437 1.417 . S
C2439 C2441 1.329 . S
C2439 H2458 0.930 . S
C2440 C2436 1.415 . S
C2440 C2441 1.437 . S
C2440 C2444 1.413 . S
C2441 C2439 1.329 . S
C2441 C2440 1.437 . S
C2441 H2463 0.929 . S
N2442 C2436 1.369 . S
N2442 C2443 1.338 . S
N2442 Gd2447 2.622 . S
C2443 N2442 1.338 . S
C2443 C2445 1.378 . S
C2443 H2455 0.929 . S
C2444 C2440 1.413 . S
C2444 C2445 1.348 . S
C2444 H2460 0.931 . S
C2445 C2443 1.378 . S
C2445 C2444 1.348 . S
C2445 H2461 0.930 . S
Gd2446 N2466 2.622 . S
Gd2446 N2473 2.570 . S
Gd2446 O2480 2.353 . S
Gd2446 O2481 2.468 . S
Gd2446 O2482 2.427 . S
Gd2446 O2484 2.388 . S
Gd2446 O2485 2.386 . S
Gd2446 O2489 2.307 . S
Gd2446 C2499 2.805 . S
Gd2447 N2442 2.622 . S
Gd2447 N2448 2.570 . S
Gd2447 O2479 2.386 . S
Gd2447 O2483 2.307 . S
Gd2447 O2486 2.353 . S
Gd2447 O2487 2.468 . S
Gd2447 O2488 2.427 . S
Gd2447 O2490 2.388 . S
Gd2447 C2511 2.805 . S
N2448 C2438 1.359 . S
N2448 Gd2447 2.570 . S
N2448 C2450 1.343 . S
C2449 C2437 1.422 . S
C2449 C2451 1.321 . S
C2449 H2457 0.931 . S
C2450 N2448 1.343 . S
C2450 C2451 1.390 . S
C2450 H2452 0.931 . S
C2451 C2449 1.321 . S
C2451 C2450 1.390 . S
C2451 H2453 0.930 . S
H2452 C2450 0.931 . S
H2453 C2451 0.930 . S
H2454 C2477 0.931 . S
H2455 C2443 0.929 . S
H2456 C2478 0.930 . S
H2457 C2449 0.931 . S
H2458 C2439 0.930 . S
H2459 C2468 0.929 . S
H2460 C2444 0.931 . S
H2461 C2445 0.930 . S
H2462 C2500 0.930 . S
H2463 C2441 0.929 . S
H2464 C2469 0.931 . S
H2465 C2470 0.930 . S
N2466 Gd2446 2.622 . S
N2466 C2467 1.369 . S
N2466 C2468 1.338 . S
C2467 N2466 1.369 . S
C2467 C2471 1.415 . S
C2467 C2474 1.422 . S
C2468 H2459 0.929 . S
C2468 N2466 1.338 . S
C2468 C2470 1.378 . S
C2469 H2464 0.931 . S
C2469 C2470 1.348 . S
C2469 C2471 1.413 . S
C2470 H2465 0.930 . S
C2470 C2468 1.378 . S
C2470 C2469 1.348 . S
C2471 C2467 1.415 . S
C2471 C2469 1.413 . S
C2471 C2501 1.437 . S
H2472 C2501 0.929 . S
N2473 Gd2446 2.570 . S
N2473 C2474 1.359 . S
N2473 C2477 1.343 . S
C2474 C2467 1.422 . S
C2474 N2473 1.359 . S
C2474 C2476 1.421 . S
C2475 C2476 1.422 . S
C2475 C2478 1.321 . S
C2475 H2502 0.931 . S
C2476 C2474 1.421 . S
C2476 C2475 1.422 . S
C2476 C2500 1.417 . S
C2477 H2454 0.931 . S
C2477 N2473 1.343 . S
C2477 C2478 1.390 . S
C2478 H2456 0.930 . S
C2478 C2475 1.321 . S
C2478 C2477 1.390 . S
O2479 Gd2447 2.386 . S
O2479 C2491 1.265 . S
O2480 Gd2446 2.353 . S
O2480 C2491 1.242 . S
O2481 Gd2446 2.468 . S
O2481 C2499 1.263 . S
O2482 Gd2446 2.427 . S
O2482 C2499 1.252 . S
O2483 Gd2447 2.307 . S
O2483 C2492 1.261 . S
O2484 Gd2446 2.388 . S
O2484 C2492 1.252 . S
O2485 Gd2446 2.386 . S
O2485 C2503 1.265 . S
O2486 Gd2447 2.353 . S
O2486 C2503 1.242 . S
O2487 Gd2447 2.468 . S
O2487 C2511 1.263 . S
O2488 Gd2447 2.427 . S
O2488 C2511 1.252 . S
O2489 Gd2446 2.307 . S
O2489 C2504 1.261 . S
O2490 Gd2447 2.388 . S
O2490 C2504 1.252 . S
C2491 O2479 1.265 . S
C2491 O2480 1.242 . S
C2492 O2483 1.261 . S
C2492 O2484 1.252 . S
C2493 C2496 1.394 . S
C2493 C2498 1.370 . S
C2493 C2499 1.500 . S
C2494 C2497 1.383 . S
C2494 C2498 1.395 . S
C2495 C2496 1.396 . S
C2495 C2497 1.365 . S
C2495 H2512 0.929 . S
C2496 C2493 1.394 . S
C2496 C2495 1.396 . S
C2496 H2513 0.930 . S
C2497 C2494 1.383 . S
C2497 C2495 1.365 . S
C2497 H2514 0.931 . S
C2498 C2493 1.370 . S
C2498 C2494 1.395 . S
C2498 H2515 0.930 . S
C2499 Gd2446 2.805 . S
C2499 O2481 1.263 . S
C2499 O2482 1.252 . S
C2499 C2493 1.500 . S
C2500 H2462 0.930 . S
C2500 C2476 1.417 . S
C2500 C2501 1.329 . S
C2501 C2471 1.437 . S
C2501 H2472 0.929 . S
C2501 C2500 1.329 . S
H2502 C2475 0.931 . S
C2503 O2485 1.265 . S
C2503 O2486 1.242 . S
C2504 O2489 1.261 . S
C2504 O2490 1.252 . S
C2505 C2508 1.394 . S
C2505 C2510 1.370 . S
C2505 C2511 1.500 . S
C2506 C2509 1.383 . S
C2506 C2510 1.395 . S
C2507 C2508 1.396 . S
C2507 C2509 1.365 . S
C2507 H2516 0.929 . S
C2508 C2505 1.394 . S
C2508 C2507 1.396 . S
C2508 H2517 0.930 . S
C2509 C2506 1.383 . S
C2509 C2507 1.365 . S
C2509 H2518 0.931 . S
C2510 C2505 1.370 . S
C2510 C2506 1.395 . S
C2510 H2519 0.930 . S
C2511 Gd2447 2.805 . S
C2511 O2487 1.263 . S
C2511 O2488 1.252 . S
C2511 C2505 1.500 . S
H2512 C2495 0.929 . S
H2513 C2496 0.930 . S
H2514 C2497 0.931 . S
H2515 C2498 0.930 . S
H2516 C2507 0.929 . S
H2517 C2508 0.930 . S
H2518 C2509 0.931 . S
H2519 C2510 0.930 . S
C2520 C2522 1.422 . S
C2520 C2524 1.415 . S
C2520 N2526 1.369 . S
C2521 C2522 1.421 . S
C2521 C2523 1.417 . S
C2521 C2533 1.422 . S
C2522 C2520 1.422 . S
C2522 C2521 1.421 . S
C2522 N2532 1.359 . S
C2523 C2521 1.417 . S
C2523 C2525 1.329 . S
C2523 H2542 0.930 . S
C2524 C2520 1.415 . S
C2524 C2525 1.437 . S
C2524 C2528 1.413 . S
C2525 C2523 1.329 . S
C2525 C2524 1.437 . S
C2525 H2547 0.929 . S
N2526 C2520 1.369 . S
N2526 C2527 1.338 . S
N2526 Gd2531 2.622 . S
C2527 N2526 1.338 . S
C2527 C2529 1.378 . S
C2527 H2539 0.929 . S
C2528 C2524 1.413 . S
C2528 C2529 1.348 . S
C2528 H2544 0.931 . S
C2529 C2527 1.378 . S
C2529 C2528 1.348 . S
C2529 H2545 0.930 . S
Gd2530 N2550 2.622 . S
Gd2530 N2557 2.570 . S
Gd2530 O2564 2.353 . S
Gd2530 O2565 2.468 . S
Gd2530 O2566 2.427 . S
Gd2530 O2568 2.388 . S
Gd2530 O2569 2.386 . S
Gd2530 O2573 2.307 . S
Gd2530 C2583 2.805 . S
Gd2531 N2526 2.622 . S
Gd2531 N2532 2.570 . S
Gd2531 O2563 2.386 . S
Gd2531 O2567 2.307 . S
Gd2531 O2570 2.353 . S
Gd2531 O2571 2.468 . S
Gd2531 O2572 2.427 . S
Gd2531 O2574 2.388 . S
Gd2531 C2595 2.805 . S
N2532 C2522 1.359 . S
N2532 Gd2531 2.570 . S
N2532 C2534 1.343 . S
C2533 C2521 1.422 . S
C2533 C2535 1.321 . S
C2533 H2541 0.931 . S
C2534 N2532 1.343 . S
C2534 C2535 1.390 . S
C2534 H2536 0.931 . S
C2535 C2533 1.321 . S
C2535 C2534 1.390 . S
C2535 H2537 0.930 . S
H2536 C2534 0.931 . S
H2537 C2535 0.930 . S
H2538 C2561 0.931 . S
H2539 C2527 0.929 . S
H2540 C2562 0.930 . S
H2541 C2533 0.931 . S
H2542 C2523 0.930 . S
H2543 C2552 0.929 . S
H2544 C2528 0.931 . S
H2545 C2529 0.930 . S
H2546 C2584 0.930 . S
H2547 C2525 0.929 . S
H2548 C2553 0.931 . S
H2549 C2554 0.930 . S
N2550 Gd2530 2.622 . S
N2550 C2551 1.369 . S
N2550 C2552 1.338 . S
C2551 N2550 1.369 . S
C2551 C2555 1.415 . S
C2551 C2558 1.422 . S
C2552 H2543 0.929 . S
C2552 N2550 1.338 . S
C2552 C2554 1.378 . S
C2553 H2548 0.931 . S
C2553 C2554 1.348 . S
C2553 C2555 1.413 . S
C2554 H2549 0.930 . S
C2554 C2552 1.378 . S
C2554 C2553 1.348 . S
C2555 C2551 1.415 . S
C2555 C2553 1.413 . S
C2555 C2585 1.437 . S
H2556 C2585 0.929 . S
N2557 Gd2530 2.570 . S
N2557 C2558 1.359 . S
N2557 C2561 1.343 . S
C2558 C2551 1.422 . S
C2558 N2557 1.359 . S
C2558 C2560 1.421 . S
C2559 C2560 1.422 . S
C2559 C2562 1.321 . S
C2559 H2586 0.931 . S
C2560 C2558 1.421 . S
C2560 C2559 1.422 . S
C2560 C2584 1.417 . S
C2561 H2538 0.931 . S
C2561 N2557 1.343 . S
C2561 C2562 1.390 . S
C2562 H2540 0.930 . S
C2562 C2559 1.321 . S
C2562 C2561 1.390 . S
O2563 Gd2531 2.386 . S
O2563 C2575 1.265 . S
O2564 Gd2530 2.353 . S
O2564 C2575 1.242 . S
O2565 Gd2530 2.468 . S
O2565 C2583 1.263 . S
O2566 Gd2530 2.427 . S
O2566 C2583 1.252 . S
O2567 Gd2531 2.307 . S
O2567 C2576 1.261 . S
O2568 Gd2530 2.388 . S
O2568 C2576 1.252 . S
O2569 Gd2530 2.386 . S
O2569 C2587 1.265 . S
O2570 Gd2531 2.353 . S
O2570 C2587 1.242 . S
O2571 Gd2531 2.468 . S
O2571 C2595 1.263 . S
O2572 Gd2531 2.427 . S
O2572 C2595 1.252 . S
O2573 Gd2530 2.307 . S
O2573 C2588 1.261 . S
O2574 Gd2531 2.388 . S
O2574 C2588 1.252 . S
C2575 O2563 1.265 . S
C2575 O2564 1.242 . S
C2576 O2567 1.261 . S
C2576 O2568 1.252 . S
C2577 C2580 1.394 . S
C2577 C2582 1.370 . S
C2577 C2583 1.500 . S
C2578 C2581 1.383 . S
C2578 C2582 1.395 . S
C2579 C2580 1.396 . S
C2579 C2581 1.365 . S
C2579 H2596 0.929 . S
C2580 C2577 1.394 . S
C2580 C2579 1.396 . S
C2580 H2597 0.930 . S
C2581 C2578 1.383 . S
C2581 C2579 1.365 . S
C2581 H2598 0.931 . S
C2582 C2577 1.370 . S
C2582 C2578 1.395 . S
C2582 H2599 0.930 . S
C2583 Gd2530 2.805 . S
C2583 O2565 1.263 . S
C2583 O2566 1.252 . S
C2583 C2577 1.500 . S
C2584 H2546 0.930 . S
C2584 C2560 1.417 . S
C2584 C2585 1.329 . S
C2585 C2555 1.437 . S
C2585 H2556 0.929 . S
C2585 C2584 1.329 . S
H2586 C2559 0.931 . S
C2587 O2569 1.265 . S
C2587 O2570 1.242 . S
C2588 O2573 1.261 . S
C2588 O2574 1.252 . S
C2589 C2592 1.394 . S
C2589 C2594 1.370 . S
C2589 C2595 1.500 . S
C2590 C2593 1.383 . S
C2590 C2594 1.395 . S
C2591 C2592 1.396 . S
C2591 C2593 1.365 . S
C2591 H2600 0.929 . S
C2592 C2589 1.394 . S
C2592 C2591 1.396 . S
C2592 H2601 0.930 . S
C2593 C2590 1.383 . S
C2593 C2591 1.365 . S
C2593 H2602 0.931 . S
C2594 C2589 1.370 . S
C2594 C2590 1.395 . S
C2594 H2603 0.930 . S
C2595 Gd2531 2.805 . S
C2595 O2571 1.263 . S
C2595 O2572 1.252 . S
C2595 C2589 1.500 . S
H2596 C2579 0.929 . S
H2597 C2580 0.930 . S
H2598 C2581 0.931 . S
H2599 C2582 0.930 . S
H2600 C2591 0.929 . S
H2601 C2592 0.930 . S
H2602 C2593 0.931 . S
H2603 C2594 0.930 . S
C2604 C2606 1.422 . S
C2604 C2608 1.415 . S
C2604 N2610 1.369 . S
C2605 C2606 1.421 . S
C2605 C2607 1.417 . S
C2605 C2617 1.422 . S
C2606 C2604 1.422 . S
C2606 C2605 1.421 . S
C2606 N2616 1.359 . S
C2607 C2605 1.417 . S
C2607 C2609 1.329 . S
C2607 H2626 0.930 . S
C2608 C2604 1.415 . S
C2608 C2609 1.437 . S
C2608 C2612 1.413 . S
C2609 C2607 1.329 . S
C2609 C2608 1.437 . S
C2609 H2631 0.929 . S
N2610 C2604 1.369 . S
N2610 C2611 1.338 . S
N2610 Gd2615 2.622 . S
C2611 N2610 1.338 . S
C2611 C2613 1.378 . S
C2611 H2623 0.929 . S
C2612 C2608 1.413 . S
C2612 C2613 1.348 . S
C2612 H2628 0.931 . S
C2613 C2611 1.378 . S
C2613 C2612 1.348 . S
C2613 H2629 0.930 . S
Gd2614 N2634 2.622 . S
Gd2614 N2641 2.570 . S
Gd2614 O2648 2.353 . S
Gd2614 O2649 2.468 . S
Gd2614 O2650 2.427 . S
Gd2614 O2652 2.388 . S
Gd2614 O2653 2.386 . S
Gd2614 O2657 2.307 . S
Gd2614 C2667 2.805 . S
Gd2615 N2610 2.622 . S
Gd2615 N2616 2.570 . S
Gd2615 O2647 2.386 . S
Gd2615 O2651 2.307 . S
Gd2615 O2654 2.353 . S
Gd2615 O2655 2.468 . S
Gd2615 O2656 2.427 . S
Gd2615 O2658 2.388 . S
Gd2615 C2679 2.805 . S
N2616 C2606 1.359 . S
N2616 Gd2615 2.570 . S
N2616 C2618 1.343 . S
C2617 C2605 1.422 . S
C2617 C2619 1.321 . S
C2617 H2625 0.931 . S
C2618 N2616 1.343 . S
C2618 C2619 1.390 . S
C2618 H2620 0.931 . S
C2619 C2617 1.321 . S
C2619 C2618 1.390 . S
C2619 H2621 0.930 . S
H2620 C2618 0.931 . S
H2621 C2619 0.930 . S
H2622 C2645 0.931 . S
H2623 C2611 0.929 . S
H2624 C2646 0.930 . S
H2625 C2617 0.931 . S
H2626 C2607 0.930 . S
H2627 C2636 0.929 . S
H2628 C2612 0.931 . S
H2629 C2613 0.930 . S
H2630 C2668 0.930 . S
H2631 C2609 0.929 . S
H2632 C2637 0.931 . S
H2633 C2638 0.930 . S
N2634 Gd2614 2.622 . S
N2634 C2635 1.369 . S
N2634 C2636 1.338 . S
C2635 N2634 1.369 . S
C2635 C2639 1.415 . S
C2635 C2642 1.422 . S
C2636 H2627 0.929 . S
C2636 N2634 1.338 . S
C2636 C2638 1.378 . S
C2637 H2632 0.931 . S
C2637 C2638 1.348 . S
C2637 C2639 1.413 . S
C2638 H2633 0.930 . S
C2638 C2636 1.378 . S
C2638 C2637 1.348 . S
C2639 C2635 1.415 . S
C2639 C2637 1.413 . S
C2639 C2669 1.437 . S
H2640 C2669 0.929 . S
N2641 Gd2614 2.570 . S
N2641 C2642 1.359 . S
N2641 C2645 1.343 . S
C2642 C2635 1.422 . S
C2642 N2641 1.359 . S
C2642 C2644 1.421 . S
C2643 C2644 1.422 . S
C2643 C2646 1.321 . S
C2643 H2670 0.931 . S
C2644 C2642 1.421 . S
C2644 C2643 1.422 . S
C2644 C2668 1.417 . S
C2645 H2622 0.931 . S
C2645 N2641 1.343 . S
C2645 C2646 1.390 . S
C2646 H2624 0.930 . S
C2646 C2643 1.321 . S
C2646 C2645 1.390 . S
O2647 Gd2615 2.386 . S
O2647 C2659 1.265 . S
O2648 Gd2614 2.353 . S
O2648 C2659 1.242 . S
O2649 Gd2614 2.468 . S
O2649 C2667 1.263 . S
O2650 Gd2614 2.427 . S
O2650 C2667 1.252 . S
O2651 Gd2615 2.307 . S
O2651 C2660 1.261 . S
O2652 Gd2614 2.388 . S
O2652 C2660 1.252 . S
O2653 Gd2614 2.386 . S
O2653 C2671 1.265 . S
O2654 Gd2615 2.353 . S
O2654 C2671 1.242 . S
O2655 Gd2615 2.468 . S
O2655 C2679 1.263 . S
O2656 Gd2615 2.427 . S
O2656 C2679 1.252 . S
O2657 Gd2614 2.307 . S
O2657 C2672 1.261 . S
O2658 Gd2615 2.388 . S
O2658 C2672 1.252 . S
C2659 O2647 1.265 . S
C2659 O2648 1.242 . S
C2660 O2651 1.261 . S
C2660 O2652 1.252 . S
C2661 C2664 1.394 . S
C2661 C2666 1.370 . S
C2661 C2667 1.500 . S
C2662 C2665 1.383 . S
C2662 C2666 1.395 . S
C2663 C2664 1.396 . S
C2663 C2665 1.365 . S
C2663 H2680 0.929 . S
C2664 C2661 1.394 . S
C2664 C2663 1.396 . S
C2664 H2681 0.930 . S
C2665 C2662 1.383 . S
C2665 C2663 1.365 . S
C2665 H2682 0.931 . S
C2666 C2661 1.370 . S
C2666 C2662 1.395 . S
C2666 H2683 0.930 . S
C2667 Gd2614 2.805 . S
C2667 O2649 1.263 . S
C2667 O2650 1.252 . S
C2667 C2661 1.500 . S
C2668 H2630 0.930 . S
C2668 C2644 1.417 . S
C2668 C2669 1.329 . S
C2669 C2639 1.437 . S
C2669 H2640 0.929 . S
C2669 C2668 1.329 . S
H2670 C2643 0.931 . S
C2671 O2653 1.265 . S
C2671 O2654 1.242 . S
C2672 O2657 1.261 . S
C2672 O2658 1.252 . S
C2673 C2676 1.394 . S
C2673 C2678 1.370 . S
C2673 C2679 1.500 . S
C2674 C2677 1.383 . S
C2674 C2678 1.395 . S
C2675 C2676 1.396 . S
C2675 C2677 1.365 . S
C2675 H2684 0.929 . S
C2676 C2673 1.394 . S
C2676 C2675 1.396 . S
C2676 H2685 0.930 . S
C2677 C2674 1.383 . S
C2677 C2675 1.365 . S
C2677 H2686 0.931 . S
C2678 C2673 1.370 . S
C2678 C2674 1.395 . S
C2678 H2687 0.930 . S
C2679 Gd2615 2.805 . S
C2679 O2655 1.263 . S
C2679 O2656 1.252 . S
C2679 C2673 1.500 . S
H2680 C2663 0.929 . S
H2681 C2664 0.930 . S
H2682 C2665 0.931 . S
H2683 C2666 0.930 . S
H2684 C2675 0.929 . S
H2685 C2676 0.930 . S
H2686 C2677 0.931 . S
H2687 C2678 0.930 . S
C2688 C2690 1.422 . S
C2688 C2692 1.415 . S
C2688 N2694 1.369 . S
C2689 C2690 1.421 . S
C2689 C2691 1.417 . S
C2689 C2701 1.422 . S
C2690 C2688 1.422 . S
C2690 C2689 1.421 . S
C2690 N2700 1.359 . S
C2691 C2689 1.417 . S
C2691 C2693 1.329 . S
C2691 H2710 0.930 . S
C2692 C2688 1.415 . S
C2692 C2693 1.437 . S
C2692 C2696 1.413 . S
C2693 C2691 1.329 . S
C2693 C2692 1.437 . S
C2693 H2715 0.929 . S
N2694 C2688 1.369 . S
N2694 C2695 1.338 . S
N2694 Gd2699 2.622 . S
C2695 N2694 1.338 . S
C2695 C2697 1.378 . S
C2695 H2707 0.929 . S
C2696 C2692 1.413 . S
C2696 C2697 1.348 . S
C2696 H2712 0.931 . S
C2697 C2695 1.378 . S
C2697 C2696 1.348 . S
C2697 H2713 0.930 . S
Gd2698 N2718 2.622 . S
Gd2698 N2725 2.570 . S
Gd2698 O2732 2.353 . S
Gd2698 O2733 2.468 . S
Gd2698 O2734 2.427 . S
Gd2698 O2736 2.388 . S
Gd2698 O2737 2.386 . S
Gd2698 O2741 2.307 . S
Gd2698 C2751 2.805 . S
Gd2699 N2694 2.622 . S
Gd2699 N2700 2.570 . S
Gd2699 O2731 2.386 . S
Gd2699 O2735 2.307 . S
Gd2699 O2738 2.353 . S
Gd2699 O2739 2.468 . S
Gd2699 O2740 2.427 . S
Gd2699 O2742 2.388 . S
Gd2699 C2763 2.805 . S
N2700 C2690 1.359 . S
N2700 Gd2699 2.570 . S
N2700 C2702 1.343 . S
C2701 C2689 1.422 . S
C2701 C2703 1.321 . S
C2701 H2709 0.931 . S
C2702 N2700 1.343 . S
C2702 C2703 1.390 . S
C2702 H2704 0.931 . S
C2703 C2701 1.321 . S
C2703 C2702 1.390 . S
C2703 H2705 0.930 . S
H2704 C2702 0.931 . S
H2705 C2703 0.930 . S
H2706 C2729 0.931 . S
H2707 C2695 0.929 . S
H2708 C2730 0.930 . S
H2709 C2701 0.931 . S
H2710 C2691 0.930 . S
H2711 C2720 0.929 . S
H2712 C2696 0.931 . S
H2713 C2697 0.930 . S
H2714 C2752 0.930 . S
H2715 C2693 0.929 . S
H2716 C2721 0.931 . S
H2717 C2722 0.930 . S
N2718 Gd2698 2.622 . S
N2718 C2719 1.369 . S
N2718 C2720 1.338 . S
C2719 N2718 1.369 . S
C2719 C2723 1.415 . S
C2719 C2726 1.422 . S
C2720 H2711 0.929 . S
C2720 N2718 1.338 . S
C2720 C2722 1.378 . S
C2721 H2716 0.931 . S
C2721 C2722 1.348 . S
C2721 C2723 1.413 . S
C2722 H2717 0.930 . S
C2722 C2720 1.378 . S
C2722 C2721 1.348 . S
C2723 C2719 1.415 . S
C2723 C2721 1.413 . S
C2723 C2753 1.437 . S
H2724 C2753 0.929 . S
N2725 Gd2698 2.570 . S
N2725 C2726 1.359 . S
N2725 C2729 1.343 . S
C2726 C2719 1.422 . S
C2726 N2725 1.359 . S
C2726 C2728 1.421 . S
C2727 C2728 1.422 . S
C2727 C2730 1.321 . S
C2727 H2754 0.931 . S
C2728 C2726 1.421 . S
C2728 C2727 1.422 . S
C2728 C2752 1.417 . S
C2729 H2706 0.931 . S
C2729 N2725 1.343 . S
C2729 C2730 1.390 . S
C2730 H2708 0.930 . S
C2730 C2727 1.321 . S
C2730 C2729 1.390 . S
O2731 Gd2699 2.386 . S
O2731 C2743 1.265 . S
O2732 Gd2698 2.353 . S
O2732 C2743 1.242 . S
O2733 Gd2698 2.468 . S
O2733 C2751 1.263 . S
O2734 Gd2698 2.427 . S
O2734 C2751 1.252 . S
O2735 Gd2699 2.307 . S
O2735 C2744 1.261 . S
O2736 Gd2698 2.388 . S
O2736 C2744 1.252 . S
O2737 Gd2698 2.386 . S
O2737 C2755 1.265 . S
O2738 Gd2699 2.353 . S
O2738 C2755 1.242 . S
O2739 Gd2699 2.468 . S
O2739 C2763 1.263 . S
O2740 Gd2699 2.427 . S
O2740 C2763 1.252 . S
O2741 Gd2698 2.307 . S
O2741 C2756 1.261 . S
O2742 Gd2699 2.388 . S
O2742 C2756 1.252 . S
C2743 O2731 1.265 . S
C2743 O2732 1.242 . S
C2744 O2735 1.261 . S
C2744 O2736 1.252 . S
C2745 C2748 1.394 . S
C2745 C2750 1.370 . S
C2745 C2751 1.500 . S
C2746 C2749 1.383 . S
C2746 C2750 1.395 . S
C2747 C2748 1.396 . S
C2747 C2749 1.365 . S
C2747 H2764 0.929 . S
C2748 C2745 1.394 . S
C2748 C2747 1.396 . S
C2748 H2765 0.930 . S
C2749 C2746 1.383 . S
C2749 C2747 1.365 . S
C2749 H2766 0.931 . S
C2750 C2745 1.370 . S
C2750 C2746 1.395 . S
C2750 H2767 0.930 . S
C2751 Gd2698 2.805 . S
C2751 O2733 1.263 . S
C2751 O2734 1.252 . S
C2751 C2745 1.500 . S
C2752 H2714 0.930 . S
C2752 C2728 1.417 . S
C2752 C2753 1.329 . S
C2753 C2723 1.437 . S
C2753 H2724 0.929 . S
C2753 C2752 1.329 . S
H2754 C2727 0.931 . S
C2755 O2737 1.265 . S
C2755 O2738 1.242 . S
C2756 O2741 1.261 . S
C2756 O2742 1.252 . S
C2757 C2760 1.394 . S
C2757 C2762 1.370 . S
C2757 C2763 1.500 . S
C2758 C2761 1.383 . S
C2758 C2762 1.395 . S
C2759 C2760 1.396 . S
C2759 C2761 1.365 . S
C2759 H2768 0.929 . S
C2760 C2757 1.394 . S
C2760 C2759 1.396 . S
C2760 H2769 0.930 . S
C2761 C2758 1.383 . S
C2761 C2759 1.365 . S
C2761 H2770 0.931 . S
C2762 C2757 1.370 . S
C2762 C2758 1.395 . S
C2762 H2771 0.930 . S
C2763 Gd2699 2.805 . S
C2763 O2739 1.263 . S
C2763 O2740 1.252 . S
C2763 C2757 1.500 . S
H2764 C2747 0.929 . S
H2765 C2748 0.930 . S
H2766 C2749 0.931 . S
H2767 C2750 0.930 . S
H2768 C2759 0.929 . S
H2769 C2760 0.930 . S
H2770 C2761 0.931 . S
H2771 C2762 0.930 . S
C2772 C2774 1.422 . S
C2772 C2776 1.415 . S
C2772 N2778 1.369 . S
C2773 C2774 1.421 . S
C2773 C2775 1.417 . S
C2773 C2785 1.422 . S
C2774 C2772 1.422 . S
C2774 C2773 1.421 . S
C2774 N2784 1.359 . S
C2775 C2773 1.417 . S
C2775 C2777 1.329 . S
C2775 H2794 0.930 . S
C2776 C2772 1.415 . S
C2776 C2777 1.437 . S
C2776 C2780 1.413 . S
C2777 C2775 1.329 . S
C2777 C2776 1.437 . S
C2777 H2799 0.929 . S
N2778 C2772 1.369 . S
N2778 C2779 1.338 . S
N2778 Gd2783 2.622 . S
C2779 N2778 1.338 . S
C2779 C2781 1.378 . S
C2779 H2791 0.929 . S
C2780 C2776 1.413 . S
C2780 C2781 1.348 . S
C2780 H2796 0.931 . S
C2781 C2779 1.378 . S
C2781 C2780 1.348 . S
C2781 H2797 0.930 . S
Gd2782 N2802 2.622 . S
Gd2782 N2809 2.570 . S
Gd2782 O2816 2.353 . S
Gd2782 O2817 2.468 . S
Gd2782 O2818 2.427 . S
Gd2782 O2820 2.388 . S
Gd2782 O2821 2.386 . S
Gd2782 O2825 2.307 . S
Gd2782 C2835 2.805 . S
Gd2783 N2778 2.622 . S
Gd2783 N2784 2.570 . S
Gd2783 O2815 2.386 . S
Gd2783 O2819 2.307 . S
Gd2783 O2822 2.353 . S
Gd2783 O2823 2.468 . S
Gd2783 O2824 2.427 . S
Gd2783 O2826 2.388 . S
Gd2783 C2847 2.805 . S
N2784 C2774 1.359 . S
N2784 Gd2783 2.570 . S
N2784 C2786 1.343 . S
C2785 C2773 1.422 . S
C2785 C2787 1.321 . S
C2785 H2793 0.931 . S
C2786 N2784 1.343 . S
C2786 C2787 1.390 . S
C2786 H2788 0.931 . S
C2787 C2785 1.321 . S
C2787 C2786 1.390 . S
C2787 H2789 0.930 . S
H2788 C2786 0.931 . S
H2789 C2787 0.930 . S
H2790 C2813 0.931 . S
H2791 C2779 0.929 . S
H2792 C2814 0.930 . S
H2793 C2785 0.931 . S
H2794 C2775 0.930 . S
H2795 C2804 0.929 . S
H2796 C2780 0.931 . S
H2797 C2781 0.930 . S
H2798 C2836 0.930 . S
H2799 C2777 0.929 . S
H2800 C2805 0.931 . S
H2801 C2806 0.930 . S
N2802 Gd2782 2.622 . S
N2802 C2803 1.369 . S
N2802 C2804 1.338 . S
C2803 N2802 1.369 . S
C2803 C2807 1.415 . S
C2803 C2810 1.422 . S
C2804 H2795 0.929 . S
C2804 N2802 1.338 . S
C2804 C2806 1.378 . S
C2805 H2800 0.931 . S
C2805 C2806 1.348 . S
C2805 C2807 1.413 . S
C2806 H2801 0.930 . S
C2806 C2804 1.378 . S
C2806 C2805 1.348 . S
C2807 C2803 1.415 . S
C2807 C2805 1.413 . S
C2807 C2837 1.437 . S
H2808 C2837 0.929 . S
N2809 Gd2782 2.570 . S
N2809 C2810 1.359 . S
N2809 C2813 1.343 . S
C2810 C2803 1.422 . S
C2810 N2809 1.359 . S
C2810 C2812 1.421 . S
C2811 C2812 1.422 . S
C2811 C2814 1.321 . S
C2811 H2838 0.931 . S
C2812 C2810 1.421 . S
C2812 C2811 1.422 . S
C2812 C2836 1.417 . S
C2813 H2790 0.931 . S
C2813 N2809 1.343 . S
C2813 C2814 1.390 . S
C2814 H2792 0.930 . S
C2814 C2811 1.321 . S
C2814 C2813 1.390 . S
O2815 Gd2783 2.386 . S
O2815 C2827 1.265 . S
O2816 Gd2782 2.353 . S
O2816 C2827 1.242 . S
O2817 Gd2782 2.468 . S
O2817 C2835 1.263 . S
O2818 Gd2782 2.427 . S
O2818 C2835 1.252 . S
O2819 Gd2783 2.307 . S
O2819 C2828 1.261 . S
O2820 Gd2782 2.388 . S
O2820 C2828 1.252 . S
O2821 Gd2782 2.386 . S
O2821 C2839 1.265 . S
O2822 Gd2783 2.353 . S
O2822 C2839 1.242 . S
O2823 Gd2783 2.468 . S
O2823 C2847 1.263 . S
O2824 Gd2783 2.427 . S
O2824 C2847 1.252 . S
O2825 Gd2782 2.307 . S
O2825 C2840 1.261 . S
O2826 Gd2783 2.388 . S
O2826 C2840 1.252 . S
C2827 O2815 1.265 . S
C2827 O2816 1.242 . S
C2828 O2819 1.261 . S
C2828 O2820 1.252 . S
C2829 C2832 1.394 . S
C2829 C2834 1.370 . S
C2829 C2835 1.500 . S
C2830 C2833 1.383 . S
C2830 C2834 1.395 . S
C2831 C2832 1.396 . S
C2831 C2833 1.365 . S
C2831 H2848 0.929 . S
C2832 C2829 1.394 . S
C2832 C2831 1.396 . S
C2832 H2849 0.930 . S
C2833 C2830 1.383 . S
C2833 C2831 1.365 . S
C2833 H2850 0.931 . S
C2834 C2829 1.370 . S
C2834 C2830 1.395 . S
C2834 H2851 0.930 . S
C2835 Gd2782 2.805 . S
C2835 O2817 1.263 . S
C2835 O2818 1.252 . S
C2835 C2829 1.500 . S
C2836 H2798 0.930 . S
C2836 C2812 1.417 . S
C2836 C2837 1.329 . S
C2837 C2807 1.437 . S
C2837 H2808 0.929 . S
C2837 C2836 1.329 . S
H2838 C2811 0.931 . S
C2839 O2821 1.265 . S
C2839 O2822 1.242 . S
C2840 O2825 1.261 . S
C2840 O2826 1.252 . S
C2841 C2844 1.394 . S
C2841 C2846 1.370 . S
C2841 C2847 1.500 . S
C2842 C2845 1.383 . S
C2842 C2846 1.395 . S
C2843 C2844 1.396 . S
C2843 C2845 1.365 . S
C2843 H2852 0.929 . S
C2844 C2841 1.394 . S
C2844 C2843 1.396 . S
C2844 H2853 0.930 . S
C2845 C2842 1.383 . S
C2845 C2843 1.365 . S
C2845 H2854 0.931 . S
C2846 C2841 1.370 . S
C2846 C2842 1.395 . S
C2846 H2855 0.930 . S
C2847 Gd2783 2.805 . S
C2847 O2823 1.263 . S
C2847 O2824 1.252 . S
C2847 C2841 1.500 . S
H2848 C2831 0.929 . S
H2849 C2832 0.930 . S
H2850 C2833 0.931 . S
H2851 C2834 0.930 . S
H2852 C2843 0.929 . S
H2853 C2844 0.930 . S
H2854 C2845 0.931 . S
H2855 C2846 0.930 . S
C2856 C2858 1.422 . S
C2856 C2860 1.415 . S
C2856 N2862 1.369 . S
C2857 C2858 1.421 . S
C2857 C2859 1.417 . S
C2857 C2869 1.422 . S
C2858 C2856 1.422 . S
C2858 C2857 1.421 . S
C2858 N2868 1.359 . S
C2859 C2857 1.417 . S
C2859 C2861 1.329 . S
C2859 H2878 0.930 . S
C2860 C2856 1.415 . S
C2860 C2861 1.437 . S
C2860 C2864 1.413 . S
C2861 C2859 1.329 . S
C2861 C2860 1.437 . S
C2861 H2883 0.929 . S
N2862 C2856 1.369 . S
N2862 C2863 1.338 . S
N2862 Gd2867 2.622 . S
C2863 N2862 1.338 . S
C2863 C2865 1.378 . S
C2863 H2875 0.929 . S
C2864 C2860 1.413 . S
C2864 C2865 1.348 . S
C2864 H2880 0.931 . S
C2865 C2863 1.378 . S
C2865 C2864 1.348 . S
C2865 H2881 0.930 . S
Gd2866 N2886 2.622 . S
Gd2866 N2893 2.570 . S
Gd2866 O2900 2.353 . S
Gd2866 O2901 2.468 . S
Gd2866 O2902 2.427 . S
Gd2866 O2904 2.388 . S
Gd2866 O2905 2.386 . S
Gd2866 O2909 2.307 . S
Gd2866 C2919 2.805 . S
Gd2867 N2862 2.622 . S
Gd2867 N2868 2.570 . S
Gd2867 O2899 2.386 . S
Gd2867 O2903 2.307 . S
Gd2867 O2906 2.353 . S
Gd2867 O2907 2.468 . S
Gd2867 O2908 2.427 . S
Gd2867 O2910 2.388 . S
Gd2867 C2931 2.805 . S
N2868 C2858 1.359 . S
N2868 Gd2867 2.570 . S
N2868 C2870 1.343 . S
C2869 C2857 1.422 . S
C2869 C2871 1.321 . S
C2869 H2877 0.931 . S
C2870 N2868 1.343 . S
C2870 C2871 1.390 . S
C2870 H2872 0.931 . S
C2871 C2869 1.321 . S
C2871 C2870 1.390 . S
C2871 H2873 0.930 . S
H2872 C2870 0.931 . S
H2873 C2871 0.930 . S
H2874 C2897 0.931 . S
H2875 C2863 0.929 . S
H2876 C2898 0.930 . S
H2877 C2869 0.931 . S
H2878 C2859 0.930 . S
H2879 C2888 0.929 . S
H2880 C2864 0.931 . S
H2881 C2865 0.930 . S
H2882 C2920 0.930 . S
H2883 C2861 0.929 . S
H2884 C2889 0.931 . S
H2885 C2890 0.930 . S
N2886 Gd2866 2.622 . S
N2886 C2887 1.369 . S
N2886 C2888 1.338 . S
C2887 N2886 1.369 . S
C2887 C2891 1.415 . S
C2887 C2894 1.422 . S
C2888 H2879 0.929 . S
C2888 N2886 1.338 . S
C2888 C2890 1.378 . S
C2889 H2884 0.931 . S
C2889 C2890 1.348 . S
C2889 C2891 1.413 . S
C2890 H2885 0.930 . S
C2890 C2888 1.378 . S
C2890 C2889 1.348 . S
C2891 C2887 1.415 . S
C2891 C2889 1.413 . S
C2891 C2921 1.437 . S
H2892 C2921 0.929 . S
N2893 Gd2866 2.570 . S
N2893 C2894 1.359 . S
N2893 C2897 1.343 . S
C2894 C2887 1.422 . S
C2894 N2893 1.359 . S
C2894 C2896 1.421 . S
C2895 C2896 1.422 . S
C2895 C2898 1.321 . S
C2895 H2922 0.931 . S
C2896 C2894 1.421 . S
C2896 C2895 1.422 . S
C2896 C2920 1.417 . S
C2897 H2874 0.931 . S
C2897 N2893 1.343 . S
C2897 C2898 1.390 . S
C2898 H2876 0.930 . S
C2898 C2895 1.321 . S
C2898 C2897 1.390 . S
O2899 Gd2867 2.386 . S
O2899 C2911 1.265 . S
O2900 Gd2866 2.353 . S
O2900 C2911 1.242 . S
O2901 Gd2866 2.468 . S
O2901 C2919 1.263 . S
O2902 Gd2866 2.427 . S
O2902 C2919 1.252 . S
O2903 Gd2867 2.307 . S
O2903 C2912 1.261 . S
O2904 Gd2866 2.388 . S
O2904 C2912 1.252 . S
O2905 Gd2866 2.386 . S
O2905 C2923 1.265 . S
O2906 Gd2867 2.353 . S
O2906 C2923 1.242 . S
O2907 Gd2867 2.468 . S
O2907 C2931 1.263 . S
O2908 Gd2867 2.427 . S
O2908 C2931 1.252 . S
O2909 Gd2866 2.307 . S
O2909 C2924 1.261 . S
O2910 Gd2867 2.388 . S
O2910 C2924 1.252 . S
C2911 O2899 1.265 . S
C2911 O2900 1.242 . S
C2912 O2903 1.261 . S
C2912 O2904 1.252 . S
C2913 C2916 1.394 . S
C2913 C2918 1.370 . S
C2913 C2919 1.500 . S
C2914 C2917 1.383 . S
C2914 C2918 1.395 . S
C2915 C2916 1.396 . S
C2915 C2917 1.365 . S
C2915 H2932 0.929 . S
C2916 C2913 1.394 . S
C2916 C2915 1.396 . S
C2916 H2933 0.930 . S
C2917 C2914 1.383 . S
C2917 C2915 1.365 . S
C2917 H2934 0.931 . S
C2918 C2913 1.370 . S
C2918 C2914 1.395 . S
C2918 H2935 0.930 . S
C2919 Gd2866 2.805 . S
C2919 O2901 1.263 . S
C2919 O2902 1.252 . S
C2919 C2913 1.500 . S
C2920 H2882 0.930 . S
C2920 C2896 1.417 . S
C2920 C2921 1.329 . S
C2921 C2891 1.437 . S
C2921 H2892 0.929 . S
C2921 C2920 1.329 . S
H2922 C2895 0.931 . S
C2923 O2905 1.265 . S
C2923 O2906 1.242 . S
C2924 O2909 1.261 . S
C2924 O2910 1.252 . S
C2925 C2928 1.394 . S
C2925 C2930 1.370 . S
C2925 C2931 1.500 . S
C2926 C2929 1.383 . S
C2926 C2930 1.395 . S
C2927 C2928 1.396 . S
C2927 C2929 1.365 . S
C2927 H2936 0.929 . S
C2928 C2925 1.394 . S
C2928 C2927 1.396 . S
C2928 H2937 0.930 . S
C2929 C2926 1.383 . S
C2929 C2927 1.365 . S
C2929 H2938 0.931 . S
C2930 C2925 1.370 . S
C2930 C2926 1.395 . S
C2930 H2939 0.930 . S
C2931 Gd2867 2.805 . S
C2931 O2907 1.263 . S
C2931 O2908 1.252 . S
C2931 C2925 1.500 . S
H2932 C2915 0.929 . S
H2933 C2916 0.930 . S
H2934 C2917 0.931 . S
H2935 C2918 0.930 . S
H2936 C2927 0.929 . S
H2937 C2928 0.930 . S
H2938 C2929 0.931 . S
H2939 C2930 0.930 . S
C2940 C2942 1.422 . S
C2940 C2944 1.415 . S
C2940 N2946 1.369 . S
C2941 C2942 1.421 . S
C2941 C2943 1.417 . S
C2941 C2953 1.422 . S
C2942 C2940 1.422 . S
C2942 C2941 1.421 . S
C2942 N2952 1.359 . S
C2943 C2941 1.417 . S
C2943 C2945 1.329 . S
C2943 H2962 0.930 . S
C2944 C2940 1.415 . S
C2944 C2945 1.437 . S
C2944 C2948 1.413 . S
C2945 C2943 1.329 . S
C2945 C2944 1.437 . S
C2945 H2967 0.929 . S
N2946 C2940 1.369 . S
N2946 C2947 1.338 . S
N2946 Gd2951 2.622 . S
C2947 N2946 1.338 . S
C2947 C2949 1.378 . S
C2947 H2959 0.929 . S
C2948 C2944 1.413 . S
C2948 C2949 1.348 . S
C2948 H2964 0.931 . S
C2949 C2947 1.378 . S
C2949 C2948 1.348 . S
C2949 H2965 0.930 . S
Gd2950 N2970 2.622 . S
Gd2950 N2977 2.570 . S
Gd2950 O2984 2.353 . S
Gd2950 O2985 2.468 . S
Gd2950 O2986 2.427 . S
Gd2950 O2988 2.388 . S
Gd2950 O2989 2.386 . S
Gd2950 O2993 2.307 . S
Gd2950 C3003 2.805 . S
Gd2951 N2946 2.622 . S
Gd2951 N2952 2.570 . S
Gd2951 O2983 2.386 . S
Gd2951 O2987 2.307 . S
Gd2951 O2990 2.353 . S
Gd2951 O2991 2.468 . S
Gd2951 O2992 2.427 . S
Gd2951 O2994 2.388 . S
Gd2951 C3015 2.805 . S
N2952 C2942 1.359 . S
N2952 Gd2951 2.570 . S
N2952 C2954 1.343 . S
C2953 C2941 1.422 . S
C2953 C2955 1.321 . S
C2953 H2961 0.931 . S
C2954 N2952 1.343 . S
C2954 C2955 1.390 . S
C2954 H2956 0.931 . S
C2955 C2953 1.321 . S
C2955 C2954 1.390 . S
C2955 H2957 0.930 . S
H2956 C2954 0.931 . S
H2957 C2955 0.930 . S
H2958 C2981 0.931 . S
H2959 C2947 0.929 . S
H2960 C2982 0.930 . S
H2961 C2953 0.931 . S
H2962 C2943 0.930 . S
H2963 C2972 0.929 . S
H2964 C2948 0.931 . S
H2965 C2949 0.930 . S
H2966 C3004 0.930 . S
H2967 C2945 0.929 . S
H2968 C2973 0.931 . S
H2969 C2974 0.930 . S
N2970 Gd2950 2.622 . S
N2970 C2971 1.369 . S
N2970 C2972 1.338 . S
C2971 N2970 1.369 . S
C2971 C2975 1.415 . S
C2971 C2978 1.422 . S
C2972 H2963 0.929 . S
C2972 N2970 1.338 . S
C2972 C2974 1.378 . S
C2973 H2968 0.931 . S
C2973 C2974 1.348 . S
C2973 C2975 1.413 . S
C2974 H2969 0.930 . S
C2974 C2972 1.378 . S
C2974 C2973 1.348 . S
C2975 C2971 1.415 . S
C2975 C2973 1.413 . S
C2975 C3005 1.437 . S
H2976 C3005 0.929 . S
N2977 Gd2950 2.570 . S
N2977 C2978 1.359 . S
N2977 C2981 1.343 . S
C2978 C2971 1.422 . S
C2978 N2977 1.359 . S
C2978 C2980 1.421 . S
C2979 C2980 1.422 . S
C2979 C2982 1.321 . S
C2979 H3006 0.931 . S
C2980 C2978 1.421 . S
C2980 C2979 1.422 . S
C2980 C3004 1.417 . S
C2981 H2958 0.931 . S
C2981 N2977 1.343 . S
C2981 C2982 1.390 . S
C2982 H2960 0.930 . S
C2982 C2979 1.321 . S
C2982 C2981 1.390 . S
O2983 Gd2951 2.386 . S
O2983 C2995 1.265 . S
O2984 Gd2950 2.353 . S
O2984 C2995 1.242 . S
O2985 Gd2950 2.468 . S
O2985 C3003 1.263 . S
O2986 Gd2950 2.427 . S
O2986 C3003 1.252 . S
O2987 Gd2951 2.307 . S
O2987 C2996 1.261 . S
O2988 Gd2950 2.388 . S
O2988 C2996 1.252 . S
O2989 Gd2950 2.386 . S
O2989 C3007 1.265 . S
O2990 Gd2951 2.353 . S
O2990 C3007 1.242 . S
O2991 Gd2951 2.468 . S
O2991 C3015 1.263 . S
O2992 Gd2951 2.427 . S
O2992 C3015 1.252 . S
O2993 Gd2950 2.307 . S
O2993 C3008 1.261 . S
O2994 Gd2951 2.388 . S
O2994 C3008 1.252 . S
C2995 O2983 1.265 . S
C2995 O2984 1.242 . S
C2996 O2987 1.261 . S
C2996 O2988 1.252 . S
C2997 C3000 1.394 . S
C2997 C3002 1.370 . S
C2997 C3003 1.500 . S
C2998 C3001 1.383 . S
C2998 C3002 1.395 . S
C2999 C3000 1.396 . S
C2999 C3001 1.365 . S
C2999 H3016 0.929 . S
C3000 C2997 1.394 . S
C3000 C2999 1.396 . S
C3000 H3017 0.930 . S
C3001 C2998 1.383 . S
C3001 C2999 1.365 . S
C3001 H3018 0.931 . S
C3002 C2997 1.370 . S
C3002 C2998 1.395 . S
C3002 H3019 0.930 . S
C3003 Gd2950 2.805 . S
C3003 O2985 1.263 . S
C3003 O2986 1.252 . S
C3003 C2997 1.500 . S
C3004 H2966 0.930 . S
C3004 C2980 1.417 . S
C3004 C3005 1.329 . S
C3005 C2975 1.437 . S
C3005 H2976 0.929 . S
C3005 C3004 1.329 . S
H3006 C2979 0.931 . S
C3007 O2989 1.265 . S
C3007 O2990 1.242 . S
C3008 O2993 1.261 . S
C3008 O2994 1.252 . S
C3009 C3012 1.394 . S
C3009 C3014 1.370 . S
C3009 C3015 1.500 . S
C3010 C3013 1.383 . S
C3010 C3014 1.395 . S
C3011 C3012 1.396 . S
C3011 C3013 1.365 . S
C3011 H3020 0.929 . S
C3012 C3009 1.394 . S
C3012 C3011 1.396 . S
C3012 H3021 0.930 . S
C3013 C3010 1.383 . S
C3013 C3011 1.365 . S
C3013 H3022 0.931 . S
C3014 C3009 1.370 . S
C3014 C3010 1.395 . S
C3014 H3023 0.930 . S
C3015 Gd2951 2.805 . S
C3015 O2991 1.263 . S
C3015 O2992 1.252 . S
C3015 C3009 1.500 . S
H3016 C2999 0.929 . S
H3017 C3000 0.930 . S
H3018 C3001 0.931 . S
H3019 C3002 0.930 . S
H3020 C3011 0.929 . S
H3021 C3012 0.930 . S
H3022 C3013 0.931 . S
H3023 C3014 0.930 . S
C3024 C3026 1.422 . S
C3024 C3028 1.415 . S
C3024 N3030 1.369 . S
C3025 C3026 1.421 . S
C3025 C3027 1.417 . S
C3025 C3037 1.422 . S
C3026 C3024 1.422 . S
C3026 C3025 1.421 . S
C3026 N3036 1.359 . S
C3027 C3025 1.417 . S
C3027 C3029 1.329 . S
C3027 H3046 0.930 . S
C3028 C3024 1.415 . S
C3028 C3029 1.437 . S
C3028 C3032 1.413 . S
C3029 C3027 1.329 . S
C3029 C3028 1.437 . S
C3029 H3051 0.929 . S
N3030 C3024 1.369 . S
N3030 C3031 1.338 . S
N3030 Gd3035 2.622 . S
C3031 N3030 1.338 . S
C3031 C3033 1.378 . S
C3031 H3043 0.929 . S
C3032 C3028 1.413 . S
C3032 C3033 1.348 . S
C3032 H3048 0.931 . S
C3033 C3031 1.378 . S
C3033 C3032 1.348 . S
C3033 H3049 0.930 . S
Gd3034 N3054 2.622 . S
Gd3034 N3061 2.570 . S
Gd3034 O3068 2.353 . S
Gd3034 O3069 2.468 . S
Gd3034 O3070 2.427 . S
Gd3034 O3072 2.388 . S
Gd3034 O3073 2.386 . S
Gd3034 O3077 2.307 . S
Gd3034 C3087 2.805 . S
Gd3035 N3030 2.622 . S
Gd3035 N3036 2.570 . S
Gd3035 O3067 2.386 . S
Gd3035 O3071 2.307 . S
Gd3035 O3074 2.353 . S
Gd3035 O3075 2.468 . S
Gd3035 O3076 2.427 . S
Gd3035 O3078 2.388 . S
Gd3035 C3099 2.805 . S
N3036 C3026 1.359 . S
N3036 Gd3035 2.570 . S
N3036 C3038 1.343 . S
C3037 C3025 1.422 . S
C3037 C3039 1.321 . S
C3037 H3045 0.931 . S
C3038 N3036 1.343 . S
C3038 C3039 1.390 . S
C3038 H3040 0.931 . S
C3039 C3037 1.321 . S
C3039 C3038 1.390 . S
C3039 H3041 0.930 . S
H3040 C3038 0.931 . S
H3041 C3039 0.930 . S
H3042 C3065 0.931 . S
H3043 C3031 0.929 . S
H3044 C3066 0.930 . S
H3045 C3037 0.931 . S
H3046 C3027 0.930 . S
H3047 C3056 0.929 . S
H3048 C3032 0.931 . S
H3049 C3033 0.930 . S
H3050 C3088 0.930 . S
H3051 C3029 0.929 . S
H3052 C3057 0.931 . S
H3053 C3058 0.930 . S
N3054 Gd3034 2.622 . S
N3054 C3055 1.369 . S
N3054 C3056 1.338 . S
C3055 N3054 1.369 . S
C3055 C3059 1.415 . S
C3055 C3062 1.422 . S
C3056 H3047 0.929 . S
C3056 N3054 1.338 . S
C3056 C3058 1.378 . S
C3057 H3052 0.931 . S
C3057 C3058 1.348 . S
C3057 C3059 1.413 . S
C3058 H3053 0.930 . S
C3058 C3056 1.378 . S
C3058 C3057 1.348 . S
C3059 C3055 1.415 . S
C3059 C3057 1.413 . S
C3059 C3089 1.437 . S
H3060 C3089 0.929 . S
N3061 Gd3034 2.570 . S
N3061 C3062 1.359 . S
N3061 C3065 1.343 . S
C3062 C3055 1.422 . S
C3062 N3061 1.359 . S
C3062 C3064 1.421 . S
C3063 C3064 1.422 . S
C3063 C3066 1.321 . S
C3063 H3090 0.931 . S
C3064 C3062 1.421 . S
C3064 C3063 1.422 . S
C3064 C3088 1.417 . S
C3065 H3042 0.931 . S
C3065 N3061 1.343 . S
C3065 C3066 1.390 . S
C3066 H3044 0.930 . S
C3066 C3063 1.321 . S
C3066 C3065 1.390 . S
O3067 Gd3035 2.386 . S
O3067 C3079 1.265 . S
O3068 Gd3034 2.353 . S
O3068 C3079 1.242 . S
O3069 Gd3034 2.468 . S
O3069 C3087 1.263 . S
O3070 Gd3034 2.427 . S
O3070 C3087 1.252 . S
O3071 Gd3035 2.307 . S
O3071 C3080 1.261 . S
O3072 Gd3034 2.388 . S
O3072 C3080 1.252 . S
O3073 Gd3034 2.386 . S
O3073 C3091 1.265 . S
O3074 Gd3035 2.353 . S
O3074 C3091 1.242 . S
O3075 Gd3035 2.468 . S
O3075 C3099 1.263 . S
O3076 Gd3035 2.427 . S
O3076 C3099 1.252 . S
O3077 Gd3034 2.307 . S
O3077 C3092 1.261 . S
O3078 Gd3035 2.388 . S
O3078 C3092 1.252 . S
C3079 O3067 1.265 . S
C3079 O3068 1.242 . S
C3080 O3071 1.261 . S
C3080 O3072 1.252 . S
C3081 C3084 1.394 . S
C3081 C3086 1.370 . S
C3081 C3087 1.500 . S
C3082 C3085 1.383 . S
C3082 C3086 1.395 . S
C3083 C3084 1.396 . S
C3083 C3085 1.365 . S
C3083 H3100 0.929 . S
C3084 C3081 1.394 . S
C3084 C3083 1.396 . S
C3084 H3101 0.930 . S
C3085 C3082 1.383 . S
C3085 C3083 1.365 . S
C3085 H3102 0.931 . S
C3086 C3081 1.370 . S
C3086 C3082 1.395 . S
C3086 H3103 0.930 . S
C3087 Gd3034 2.805 . S
C3087 O3069 1.263 . S
C3087 O3070 1.252 . S
C3087 C3081 1.500 . S
C3088 H3050 0.930 . S
C3088 C3064 1.417 . S
C3088 C3089 1.329 . S
C3089 C3059 1.437 . S
C3089 H3060 0.929 . S
C3089 C3088 1.329 . S
H3090 C3063 0.931 . S
C3091 O3073 1.265 . S
C3091 O3074 1.242 . S
C3092 O3077 1.261 . S
C3092 O3078 1.252 . S
C3093 C3096 1.394 . S
C3093 C3098 1.370 . S
C3093 C3099 1.500 . S
C3094 C3097 1.383 . S
C3094 C3098 1.395 . S
C3095 C3096 1.396 . S
C3095 C3097 1.365 . S
C3095 H3104 0.929 . S
C3096 C3093 1.394 . S
C3096 C3095 1.396 . S
C3096 H3105 0.930 . S
C3097 C3094 1.383 . S
C3097 C3095 1.365 . S
C3097 H3106 0.931 . S
C3098 C3093 1.370 . S
C3098 C3094 1.395 . S
C3098 H3107 0.930 . S
C3099 Gd3035 2.805 . S
C3099 O3075 1.263 . S
C3099 O3076 1.252 . S
C3099 C3093 1.500 . S
H3100 C3083 0.929 . S
H3101 C3084 0.930 . S
H3102 C3085 0.931 . S
H3103 C3086 0.930 . S
H3104 C3095 0.929 . S
H3105 C3096 0.930 . S
H3106 C3097 0.931 . S
H3107 C3098 0.930 . S
C3108 C3110 1.422 . S
C3108 C3112 1.415 . S
C3108 N3114 1.369 . S
C3109 C3110 1.421 . S
C3109 C3111 1.417 . S
C3109 C3121 1.422 . S
C3110 C3108 1.422 . S
C3110 C3109 1.421 . S
C3110 N3120 1.359 . S
C3111 C3109 1.417 . S
C3111 C3113 1.329 . S
C3111 H3130 0.930 . S
C3112 C3108 1.415 . S
C3112 C3113 1.437 . S
C3112 C3116 1.413 . S
C3113 C3111 1.329 . S
C3113 C3112 1.437 . S
C3113 H3135 0.929 . S
N3114 C3108 1.369 . S
N3114 C3115 1.338 . S
N3114 Gd3119 2.622 . S
C3115 N3114 1.338 . S
C3115 C3117 1.378 . S
C3115 H3127 0.929 . S
C3116 C3112 1.413 . S
C3116 C3117 1.348 . S
C3116 H3132 0.931 . S
C3117 C3115 1.378 . S
C3117 C3116 1.348 . S
C3117 H3133 0.930 . S
Gd3118 N3138 2.622 . S
Gd3118 N3145 2.570 . S
Gd3118 O3152 2.353 . S
Gd3118 O3153 2.468 . S
Gd3118 O3154 2.427 . S
Gd3118 O3156 2.388 . S
Gd3118 O3157 2.386 . S
Gd3118 O3161 2.307 . S
Gd3118 C3171 2.805 . S
Gd3119 N3114 2.622 . S
Gd3119 N3120 2.570 . S
Gd3119 O3151 2.386 . S
Gd3119 O3155 2.307 . S
Gd3119 O3158 2.353 . S
Gd3119 O3159 2.468 . S
Gd3119 O3160 2.427 . S
Gd3119 O3162 2.388 . S
Gd3119 C3183 2.805 . S
N3120 C3110 1.359 . S
N3120 Gd3119 2.570 . S
N3120 C3122 1.343 . S
C3121 C3109 1.422 . S
C3121 C3123 1.321 . S
C3121 H3129 0.931 . S
C3122 N3120 1.343 . S
C3122 C3123 1.390 . S
C3122 H3124 0.931 . S
C3123 C3121 1.321 . S
C3123 C3122 1.390 . S
C3123 H3125 0.930 . S
H3124 C3122 0.931 . S
H3125 C3123 0.930 . S
H3126 C3149 0.931 . S
H3127 C3115 0.929 . S
H3128 C3150 0.930 . S
H3129 C3121 0.931 . S
H3130 C3111 0.930 . S
H3131 C3140 0.929 . S
H3132 C3116 0.931 . S
H3133 C3117 0.930 . S
H3134 C3172 0.930 . S
H3135 C3113 0.929 . S
H3136 C3141 0.931 . S
H3137 C3142 0.930 . S
N3138 Gd3118 2.622 . S
N3138 C3139 1.369 . S
N3138 C3140 1.338 . S
C3139 N3138 1.369 . S
C3139 C3143 1.415 . S
C3139 C3146 1.422 . S
C3140 H3131 0.929 . S
C3140 N3138 1.338 . S
C3140 C3142 1.378 . S
C3141 H3136 0.931 . S
C3141 C3142 1.348 . S
C3141 C3143 1.413 . S
C3142 H3137 0.930 . S
C3142 C3140 1.378 . S
C3142 C3141 1.348 . S
C3143 C3139 1.415 . S
C3143 C3141 1.413 . S
C3143 C3173 1.437 . S
H3144 C3173 0.929 . S
N3145 Gd3118 2.570 . S
N3145 C3146 1.359 . S
N3145 C3149 1.343 . S
C3146 C3139 1.422 . S
C3146 N3145 1.359 . S
C3146 C3148 1.421 . S
C3147 C3148 1.422 . S
C3147 C3150 1.321 . S
C3147 H3174 0.931 . S
C3148 C3146 1.421 . S
C3148 C3147 1.422 . S
C3148 C3172 1.417 . S
C3149 H3126 0.931 . S
C3149 N3145 1.343 . S
C3149 C3150 1.390 . S
C3150 H3128 0.930 . S
C3150 C3147 1.321 . S
C3150 C3149 1.390 . S
O3151 Gd3119 2.386 . S
O3151 C3163 1.265 . S
O3152 Gd3118 2.353 . S
O3152 C3163 1.242 . S
O3153 Gd3118 2.468 . S
O3153 C3171 1.263 . S
O3154 Gd3118 2.427 . S
O3154 C3171 1.252 . S
O3155 Gd3119 2.307 . S
O3155 C3164 1.261 . S
O3156 Gd3118 2.388 . S
O3156 C3164 1.252 . S
O3157 Gd3118 2.386 . S
O3157 C3175 1.265 . S
O3158 Gd3119 2.353 . S
O3158 C3175 1.242 . S
O3159 Gd3119 2.468 . S
O3159 C3183 1.263 . S
O3160 Gd3119 2.427 . S
O3160 C3183 1.252 . S
O3161 Gd3118 2.307 . S
O3161 C3176 1.261 . S
O3162 Gd3119 2.388 . S
O3162 C3176 1.252 . S
C3163 O3151 1.265 . S
C3163 O3152 1.242 . S
C3164 O3155 1.261 . S
C3164 O3156 1.252 . S
C3165 C3168 1.394 . S
C3165 C3170 1.370 . S
C3165 C3171 1.500 . S
C3166 C3169 1.383 . S
C3166 C3170 1.395 . S
C3167 C3168 1.396 . S
C3167 C3169 1.365 . S
C3167 H3184 0.929 . S
C3168 C3165 1.394 . S
C3168 C3167 1.396 . S
C3168 H3185 0.930 . S
C3169 C3166 1.383 . S
C3169 C3167 1.365 . S
C3169 H3186 0.931 . S
C3170 C3165 1.370 . S
C3170 C3166 1.395 . S
C3170 H3187 0.930 . S
C3171 Gd3118 2.805 . S
C3171 O3153 1.263 . S
C3171 O3154 1.252 . S
C3171 C3165 1.500 . S
C3172 H3134 0.930 . S
C3172 C3148 1.417 . S
C3172 C3173 1.329 . S
C3173 C3143 1.437 . S
C3173 H3144 0.929 . S
C3173 C3172 1.329 . S
H3174 C3147 0.931 . S
C3175 O3157 1.265 . S
C3175 O3158 1.242 . S
C3176 O3161 1.261 . S
C3176 O3162 1.252 . S
C3177 C3180 1.394 . S
C3177 C3182 1.370 . S
C3177 C3183 1.500 . S
C3178 C3181 1.383 . S
C3178 C3182 1.395 . S
C3179 C3180 1.396 . S
C3179 C3181 1.365 . S
C3179 H3188 0.929 . S
C3180 C3177 1.394 . S
C3180 C3179 1.396 . S
C3180 H3189 0.930 . S
C3181 C3178 1.383 . S
C3181 C3179 1.365 . S
C3181 H3190 0.931 . S
C3182 C3177 1.370 . S
C3182 C3178 1.395 . S
C3182 H3191 0.930 . S
C3183 Gd3119 2.805 . S
C3183 O3159 1.263 . S
C3183 O3160 1.252 . S
C3183 C3177 1.500 . S
H3184 C3167 0.929 . S
H3185 C3168 0.930 . S
H3186 C3169 0.931 . S
H3187 C3170 0.930 . S
H3188 C3179 0.929 . S
H3189 C3180 0.930 . S
H3190 C3181 0.931 . S
H3191 C3182 0.930 . S
C3192 C3194 1.422 . S
C3192 C3196 1.415 . S
C3192 N3198 1.369 . S
C3193 C3194 1.421 . S
C3193 C3195 1.417 . S
C3193 C3205 1.422 . S
C3194 C3192 1.422 . S
C3194 C3193 1.421 . S
C3194 N3204 1.359 . S
C3195 C3193 1.417 . S
C3195 C3197 1.329 . S
C3195 H3214 0.930 . S
C3196 C3192 1.415 . S
C3196 C3197 1.437 . S
C3196 C3200 1.413 . S
C3197 C3195 1.329 . S
C3197 C3196 1.437 . S
C3197 H3219 0.929 . S
N3198 C3192 1.369 . S
N3198 C3199 1.338 . S
N3198 Gd3203 2.622 . S
C3199 N3198 1.338 . S
C3199 C3201 1.378 . S
C3199 H3211 0.929 . S
C3200 C3196 1.413 . S
C3200 C3201 1.348 . S
C3200 H3216 0.931 . S
C3201 C3199 1.378 . S
C3201 C3200 1.348 . S
C3201 H3217 0.930 . S
Gd3202 N3222 2.622 . S
Gd3202 N3229 2.570 . S
Gd3202 O3236 2.353 . S
Gd3202 O3237 2.468 . S
Gd3202 O3238 2.427 . S
Gd3202 O3240 2.388 . S
Gd3202 O3241 2.386 . S
Gd3202 O3245 2.307 . S
Gd3202 C3255 2.805 . S
Gd3203 N3198 2.622 . S
Gd3203 N3204 2.570 . S
Gd3203 O3235 2.386 . S
Gd3203 O3239 2.307 . S
Gd3203 O3242 2.353 . S
Gd3203 O3243 2.468 . S
Gd3203 O3244 2.427 . S
Gd3203 O3246 2.388 . S
Gd3203 C3267 2.805 . S
N3204 C3194 1.359 . S
N3204 Gd3203 2.570 . S
N3204 C3206 1.343 . S
C3205 C3193 1.422 . S
C3205 C3207 1.321 . S
C3205 H3213 0.931 . S
C3206 N3204 1.343 . S
C3206 C3207 1.390 . S
C3206 H3208 0.931 . S
C3207 C3205 1.321 . S
C3207 C3206 1.390 . S
C3207 H3209 0.930 . S
H3208 C3206 0.931 . S
H3209 C3207 0.930 . S
H3210 C3233 0.931 . S
H3211 C3199 0.929 . S
H3212 C3234 0.930 . S
H3213 C3205 0.931 . S
H3214 C3195 0.930 . S
H3215 C3224 0.929 . S
H3216 C3200 0.931 . S
H3217 C3201 0.930 . S
H3218 C3256 0.930 . S
H3219 C3197 0.929 . S
H3220 C3225 0.931 . S
H3221 C3226 0.930 . S
N3222 Gd3202 2.622 . S
N3222 C3223 1.369 . S
N3222 C3224 1.338 . S
C3223 N3222 1.369 . S
C3223 C3227 1.415 . S
C3223 C3230 1.422 . S
C3224 H3215 0.929 . S
C3224 N3222 1.338 . S
C3224 C3226 1.378 . S
C3225 H3220 0.931 . S
C3225 C3226 1.348 . S
C3225 C3227 1.413 . S
C3226 H3221 0.930 . S
C3226 C3224 1.378 . S
C3226 C3225 1.348 . S
C3227 C3223 1.415 . S
C3227 C3225 1.413 . S
C3227 C3257 1.437 . S
H3228 C3257 0.929 . S
N3229 Gd3202 2.570 . S
N3229 C3230 1.359 . S
N3229 C3233 1.343 . S
C3230 C3223 1.422 . S
C3230 N3229 1.359 . S
C3230 C3232 1.421 . S
C3231 C3232 1.422 . S
C3231 C3234 1.321 . S
C3231 H3258 0.931 . S
C3232 C3230 1.421 . S
C3232 C3231 1.422 . S
C3232 C3256 1.417 . S
C3233 H3210 0.931 . S
C3233 N3229 1.343 . S
C3233 C3234 1.390 . S
C3234 H3212 0.930 . S
C3234 C3231 1.321 . S
C3234 C3233 1.390 . S
O3235 Gd3203 2.386 . S
O3235 C3247 1.265 . S
O3236 Gd3202 2.353 . S
O3236 C3247 1.242 . S
O3237 Gd3202 2.468 . S
O3237 C3255 1.263 . S
O3238 Gd3202 2.427 . S
O3238 C3255 1.252 . S
O3239 Gd3203 2.307 . S
O3239 C3248 1.261 . S
O3240 Gd3202 2.388 . S
O3240 C3248 1.252 . S
O3241 Gd3202 2.386 . S
O3241 C3259 1.265 . S
O3242 Gd3203 2.353 . S
O3242 C3259 1.242 . S
O3243 Gd3203 2.468 . S
O3243 C3267 1.263 . S
O3244 Gd3203 2.427 . S
O3244 C3267 1.252 . S
O3245 Gd3202 2.307 . S
O3245 C3260 1.261 . S
O3246 Gd3203 2.388 . S
O3246 C3260 1.252 . S
C3247 O3235 1.265 . S
C3247 O3236 1.242 . S
C3248 O3239 1.261 . S
C3248 O3240 1.252 . S
C3249 C3252 1.394 . S
C3249 C3254 1.370 . S
C3249 C3255 1.500 . S
C3250 C3253 1.383 . S
C3250 C3254 1.395 . S
C3251 C3252 1.396 . S
C3251 C3253 1.365 . S
C3251 H3268 0.929 . S
C3252 C3249 1.394 . S
C3252 C3251 1.396 . S
C3252 H3269 0.930 . S
C3253 C3250 1.383 . S
C3253 C3251 1.365 . S
C3253 H3270 0.931 . S
C3254 C3249 1.370 . S
C3254 C3250 1.395 . S
C3254 H3271 0.930 . S
C3255 Gd3202 2.805 . S
C3255 O3237 1.263 . S
C3255 O3238 1.252 . S
C3255 C3249 1.500 . S
C3256 H3218 0.930 . S
C3256 C3232 1.417 . S
C3256 C3257 1.329 . S
C3257 C3227 1.437 . S
C3257 H3228 0.929 . S
C3257 C3256 1.329 . S
H3258 C3231 0.931 . S
C3259 O3241 1.265 . S
C3259 O3242 1.242 . S
C3260 O3245 1.261 . S
C3260 O3246 1.252 . S
C3261 C3264 1.394 . S
C3261 C3266 1.370 . S
C3261 C3267 1.500 . S
C3262 C3265 1.383 . S
C3262 C3266 1.395 . S
C3263 C3264 1.396 . S
C3263 C3265 1.365 . S
C3263 H3272 0.929 . S
C3264 C3261 1.394 . S
C3264 C3263 1.396 . S
C3264 H3273 0.930 . S
C3265 C3262 1.383 . S
C3265 C3263 1.365 . S
C3265 H3274 0.931 . S
C3266 C3261 1.370 . S
C3266 C3262 1.395 . S
C3266 H3275 0.930 . S
C3267 Gd3203 2.805 . S
C3267 O3243 1.263 . S
C3267 O3244 1.252 . S
C3267 C3261 1.500 . S
H3268 C3251 0.929 . S
H3269 C3252 0.930 . S
H3270 C3253 0.931 . S
H3271 C3254 0.930 . S
H3272 C3263 0.929 . S
H3273 C3264 0.930 . S
H3274 C3265 0.931 . S
H3275 C3266 0.930 . S
C3276 C3278 1.422 . S
C3276 C3280 1.415 . S
C3276 N3282 1.369 . S
C3277 C3278 1.421 . S
C3277 C3279 1.417 . S
C3277 C3289 1.422 . S
C3278 C3276 1.422 . S
C3278 C3277 1.421 . S
C3278 N3288 1.359 . S
C3279 C3277 1.417 . S
C3279 C3281 1.329 . S
C3279 H3298 0.930 . S
C3280 C3276 1.415 . S
C3280 C3281 1.437 . S
C3280 C3284 1.413 . S
C3281 C3279 1.329 . S
C3281 C3280 1.437 . S
C3281 H3303 0.929 . S
N3282 C3276 1.369 . S
N3282 C3283 1.338 . S
N3282 Gd3287 2.622 . S
C3283 N3282 1.338 . S
C3283 C3285 1.378 . S
C3283 H3295 0.929 . S
C3284 C3280 1.413 . S
C3284 C3285 1.348 . S
C3284 H3300 0.931 . S
C3285 C3283 1.378 . S
C3285 C3284 1.348 . S
C3285 H3301 0.930 . S
Gd3286 N3306 2.622 . S
Gd3286 N3313 2.570 . S
Gd3286 O3320 2.353 . S
Gd3286 O3321 2.468 . S
Gd3286 O3322 2.427 . S
Gd3286 O3324 2.388 . S
Gd3286 O3325 2.386 . S
Gd3286 O3329 2.307 . S
Gd3286 C3339 2.805 . S
Gd3287 N3282 2.622 . S
Gd3287 N3288 2.570 . S
Gd3287 O3319 2.386 . S
Gd3287 O3323 2.307 . S
Gd3287 O3326 2.353 . S
Gd3287 O3327 2.468 . S
Gd3287 O3328 2.427 . S
Gd3287 O3330 2.388 . S
Gd3287 C3351 2.805 . S
N3288 C3278 1.359 . S
N3288 Gd3287 2.570 . S
N3288 C3290 1.343 . S
C3289 C3277 1.422 . S
C3289 C3291 1.321 . S
C3289 H3297 0.931 . S
C3290 N3288 1.343 . S
C3290 C3291 1.390 . S
C3290 H3292 0.931 . S
C3291 C3289 1.321 . S
C3291 C3290 1.390 . S
C3291 H3293 0.930 . S
H3292 C3290 0.931 . S
H3293 C3291 0.930 . S
H3294 C3317 0.931 . S
H3295 C3283 0.929 . S
H3296 C3318 0.930 . S
H3297 C3289 0.931 . S
H3298 C3279 0.930 . S
H3299 C3308 0.929 . S
H3300 C3284 0.931 . S
H3301 C3285 0.930 . S
H3302 C3340 0.930 . S
H3303 C3281 0.929 . S
H3304 C3309 0.931 . S
H3305 C3310 0.930 . S
N3306 Gd3286 2.622 . S
N3306 C3307 1.369 . S
N3306 C3308 1.338 . S
C3307 N3306 1.369 . S
C3307 C3311 1.415 . S
C3307 C3314 1.422 . S
C3308 H3299 0.929 . S
C3308 N3306 1.338 . S
C3308 C3310 1.378 . S
C3309 H3304 0.931 . S
C3309 C3310 1.348 . S
C3309 C3311 1.413 . S
C3310 H3305 0.930 . S
C3310 C3308 1.378 . S
C3310 C3309 1.348 . S
C3311 C3307 1.415 . S
C3311 C3309 1.413 . S
C3311 C3341 1.437 . S
H3312 C3341 0.929 . S
N3313 Gd3286 2.570 . S
N3313 C3314 1.359 . S
N3313 C3317 1.343 . S
C3314 C3307 1.422 . S
C3314 N3313 1.359 . S
C3314 C3316 1.421 . S
C3315 C3316 1.422 . S
C3315 C3318 1.321 . S
C3315 H3342 0.931 . S
C3316 C3314 1.421 . S
C3316 C3315 1.422 . S
C3316 C3340 1.417 . S
C3317 H3294 0.931 . S
C3317 N3313 1.343 . S
C3317 C3318 1.390 . S
C3318 H3296 0.930 . S
C3318 C3315 1.321 . S
C3318 C3317 1.390 . S
O3319 Gd3287 2.386 . S
O3319 C3331 1.265 . S
O3320 Gd3286 2.353 . S
O3320 C3331 1.242 . S
O3321 Gd3286 2.468 . S
O3321 C3339 1.263 . S
O3322 Gd3286 2.427 . S
O3322 C3339 1.252 . S
O3323 Gd3287 2.307 . S
O3323 C3332 1.261 . S
O3324 Gd3286 2.388 . S
O3324 C3332 1.252 . S
O3325 Gd3286 2.386 . S
O3325 C3343 1.265 . S
O3326 Gd3287 2.353 . S
O3326 C3343 1.242 . S
O3327 Gd3287 2.468 . S
O3327 C3351 1.263 . S
O3328 Gd3287 2.427 . S
O3328 C3351 1.252 . S
O3329 Gd3286 2.307 . S
O3329 C3344 1.261 . S
O3330 Gd3287 2.388 . S
O3330 C3344 1.252 . S
C3331 O3319 1.265 . S
C3331 O3320 1.242 . S
C3332 O3323 1.261 . S
C3332 O3324 1.252 . S
C3333 C3336 1.394 . S
C3333 C3338 1.370 . S
C3333 C3339 1.500 . S
C3334 C3337 1.383 . S
C3334 C3338 1.395 . S
C3335 C3336 1.396 . S
C3335 C3337 1.365 . S
C3335 H3352 0.929 . S
C3336 C3333 1.394 . S
C3336 C3335 1.396 . S
C3336 H3353 0.930 . S
C3337 C3334 1.383 . S
C3337 C3335 1.365 . S
C3337 H3354 0.931 . S
C3338 C3333 1.370 . S
C3338 C3334 1.395 . S
C3338 H3355 0.930 . S
C3339 Gd3286 2.805 . S
C3339 O3321 1.263 . S
C3339 O3322 1.252 . S
C3339 C3333 1.500 . S
C3340 H3302 0.930 . S
C3340 C3316 1.417 . S
C3340 C3341 1.329 . S
C3341 C3311 1.437 . S
C3341 H3312 0.929 . S
C3341 C3340 1.329 . S
H3342 C3315 0.931 . S
C3343 O3325 1.265 . S
C3343 O3326 1.242 . S
C3344 O3329 1.261 . S
C3344 O3330 1.252 . S
C3345 C3348 1.394 . S
C3345 C3350 1.370 . S
C3345 C3351 1.500 . S
C3346 C3349 1.383 . S
C3346 C3350 1.395 . S
C3347 C3348 1.396 . S
C3347 C3349 1.365 . S
C3347 H3356 0.929 . S
C3348 C3345 1.394 . S
C3348 C3347 1.396 . S
C3348 H3357 0.930 . S
C3349 C3346 1.383 . S
C3349 C3347 1.365 . S
C3349 H3358 0.931 . S
C3350 C3345 1.370 . S
C3350 C3346 1.395 . S
C3350 H3359 0.930 . S
C3351 Gd3287 2.805 . S
C3351 O3327 1.263 . S
C3351 O3328 1.252 . S
C3351 C3345 1.500 . S
H3352 C3335 0.929 . S
H3353 C3336 0.930 . S
H3354 C3337 0.931 . S
H3355 C3338 0.930 . S
H3356 C3347 0.929 . S
H3357 C3348 0.930 . S
H3358 C3349 0.931 . S
H3359 C3350 0.930 . S
C3360 C3362 1.422 . S
C3360 C3364 1.415 . S
C3360 N3366 1.369 . S
C3361 C3362 1.421 . S
C3361 C3363 1.417 . S
C3361 C3373 1.422 . S
C3362 C3360 1.422 . S
C3362 C3361 1.421 . S
C3362 N3372 1.359 . S
C3363 C3361 1.417 . S
C3363 C3365 1.329 . S
C3363 H3382 0.930 . S
C3364 C3360 1.415 . S
C3364 C3365 1.437 . S
C3364 C3368 1.413 . S
C3365 C3363 1.329 . S
C3365 C3364 1.437 . S
C3365 H3387 0.929 . S
N3366 C3360 1.369 . S
N3366 C3367 1.338 . S
N3366 Gd3371 2.622 . S
C3367 N3366 1.338 . S
C3367 C3369 1.378 . S
C3367 H3379 0.929 . S
C3368 C3364 1.413 . S
C3368 C3369 1.348 . S
C3368 H3384 0.931 . S
C3369 C3367 1.378 . S
C3369 C3368 1.348 . S
C3369 H3385 0.930 . S
Gd3370 N3390 2.622 . S
Gd3370 N3397 2.570 . S
Gd3370 O3404 2.353 . S
Gd3370 O3405 2.468 . S
Gd3370 O3406 2.427 . S
Gd3370 O3408 2.388 . S
Gd3370 O3409 2.386 . S
Gd3370 O3413 2.307 . S
Gd3370 C3423 2.805 . S
Gd3371 N3366 2.622 . S
Gd3371 N3372 2.570 . S
Gd3371 O3403 2.386 . S
Gd3371 O3407 2.307 . S
Gd3371 O3410 2.353 . S
Gd3371 O3411 2.468 . S
Gd3371 O3412 2.427 . S
Gd3371 O3414 2.388 . S
Gd3371 C3435 2.805 . S
N3372 C3362 1.359 . S
N3372 Gd3371 2.570 . S
N3372 C3374 1.343 . S
C3373 C3361 1.422 . S
C3373 C3375 1.321 . S
C3373 H3381 0.931 . S
C3374 N3372 1.343 . S
C3374 C3375 1.390 . S
C3374 H3376 0.931 . S
C3375 C3373 1.321 . S
C3375 C3374 1.390 . S
C3375 H3377 0.930 . S
H3376 C3374 0.931 . S
H3377 C3375 0.930 . S
H3378 C3401 0.931 . S
H3379 C3367 0.929 . S
H3380 C3402 0.930 . S
H3381 C3373 0.931 . S
H3382 C3363 0.930 . S
H3383 C3392 0.929 . S
H3384 C3368 0.931 . S
H3385 C3369 0.930 . S
H3386 C3424 0.930 . S
H3387 C3365 0.929 . S
H3388 C3393 0.931 . S
H3389 C3394 0.930 . S
N3390 Gd3370 2.622 . S
N3390 C3391 1.369 . S
N3390 C3392 1.338 . S
C3391 N3390 1.369 . S
C3391 C3395 1.415 . S
C3391 C3398 1.422 . S
C3392 H3383 0.929 . S
C3392 N3390 1.338 . S
C3392 C3394 1.378 . S
C3393 H3388 0.931 . S
C3393 C3394 1.348 . S
C3393 C3395 1.413 . S
C3394 H3389 0.930 . S
C3394 C3392 1.378 . S
C3394 C3393 1.348 . S
C3395 C3391 1.415 . S
C3395 C3393 1.413 . S
C3395 C3425 1.437 . S
H3396 C3425 0.929 . S
N3397 Gd3370 2.570 . S
N3397 C3398 1.359 . S
N3397 C3401 1.343 . S
C3398 C3391 1.422 . S
C3398 N3397 1.359 . S
C3398 C3400 1.421 . S
C3399 C3400 1.422 . S
C3399 C3402 1.321 . S
C3399 H3426 0.931 . S
C3400 C3398 1.421 . S
C3400 C3399 1.422 . S
C3400 C3424 1.417 . S
C3401 H3378 0.931 . S
C3401 N3397 1.343 . S
C3401 C3402 1.390 . S
C3402 H3380 0.930 . S
C3402 C3399 1.321 . S
C3402 C3401 1.390 . S
O3403 Gd3371 2.386 . S
O3403 C3415 1.265 . S
O3404 Gd3370 2.353 . S
O3404 C3415 1.242 . S
O3405 Gd3370 2.468 . S
O3405 C3423 1.263 . S
O3406 Gd3370 2.427 . S
O3406 C3423 1.252 . S
O3407 Gd3371 2.307 . S
O3407 C3416 1.261 . S
O3408 Gd3370 2.388 . S
O3408 C3416 1.252 . S
O3409 Gd3370 2.386 . S
O3409 C3427 1.265 . S
O3410 Gd3371 2.353 . S
O3410 C3427 1.242 . S
O3411 Gd3371 2.468 . S
O3411 C3435 1.263 . S
O3412 Gd3371 2.427 . S
O3412 C3435 1.252 . S
O3413 Gd3370 2.307 . S
O3413 C3428 1.261 . S
O3414 Gd3371 2.388 . S
O3414 C3428 1.252 . S
C3415 O3403 1.265 . S
C3415 O3404 1.242 . S
C3416 O3407 1.261 . S
C3416 O3408 1.252 . S
C3417 C3420 1.394 . S
C3417 C3422 1.370 . S
C3417 C3423 1.500 . S
C3418 C3421 1.383 . S
C3418 C3422 1.395 . S
C3419 C3420 1.396 . S
C3419 C3421 1.365 . S
C3419 H3436 0.929 . S
C3420 C3417 1.394 . S
C3420 C3419 1.396 . S
C3420 H3437 0.930 . S
C3421 C3418 1.383 . S
C3421 C3419 1.365 . S
C3421 H3438 0.931 . S
C3422 C3417 1.370 . S
C3422 C3418 1.395 . S
C3422 H3439 0.930 . S
C3423 Gd3370 2.805 . S
C3423 O3405 1.263 . S
C3423 O3406 1.252 . S
C3423 C3417 1.500 . S
C3424 H3386 0.930 . S
C3424 C3400 1.417 . S
C3424 C3425 1.329 . S
C3425 C3395 1.437 . S
C3425 H3396 0.929 . S
C3425 C3424 1.329 . S
H3426 C3399 0.931 . S
C3427 O3409 1.265 . S
C3427 O3410 1.242 . S
C3428 O3413 1.261 . S
C3428 O3414 1.252 . S
C3429 C3432 1.394 . S
C3429 C3434 1.370 . S
C3429 C3435 1.500 . S
C3430 C3433 1.383 . S
C3430 C3434 1.395 . S
C3431 C3432 1.396 . S
C3431 C3433 1.365 . S
C3431 H3440 0.929 . S
C3432 C3429 1.394 . S
C3432 C3431 1.396 . S
C3432 H3441 0.930 . S
C3433 C3430 1.383 . S
C3433 C3431 1.365 . S
C3433 H3442 0.931 . S
C3434 C3429 1.370 . S
C3434 C3430 1.395 . S
C3434 H3443 0.930 . S
C3435 Gd3371 2.805 . S
C3435 O3411 1.263 . S
C3435 O3412 1.252 . S
C3435 C3429 1.500 . S
H3436 C3419 0.929 . S
H3437 C3420 0.930 . S
H3438 C3421 0.931 . S
H3439 C3422 0.930 . S
H3440 C3431 0.929 . S
H3441 C3432 0.930 . S
H3442 C3433 0.931 . S
H3443 C3434 0.930 . S
C3444 C3446 1.422 . S
C3444 C3448 1.415 . S
C3444 N3450 1.369 . S
C3445 C3446 1.421 . S
C3445 C3447 1.417 . S
C3445 C3457 1.422 . S
C3446 C3444 1.422 . S
C3446 C3445 1.421 . S
C3446 N3456 1.359 . S
C3447 C3445 1.417 . S
C3447 C3449 1.329 . S
C3447 H3466 0.930 . S
C3448 C3444 1.415 . S
C3448 C3449 1.437 . S
C3448 C3452 1.413 . S
C3449 C3447 1.329 . S
C3449 C3448 1.437 . S
C3449 H3471 0.929 . S
N3450 C3444 1.369 . S
N3450 C3451 1.338 . S
N3450 Gd3455 2.622 . S
C3451 N3450 1.338 . S
C3451 C3453 1.378 . S
C3451 H3463 0.929 . S
C3452 C3448 1.413 . S
C3452 C3453 1.348 . S
C3452 H3468 0.931 . S
C3453 C3451 1.378 . S
C3453 C3452 1.348 . S
C3453 H3469 0.930 . S
Gd3454 N3474 2.622 . S
Gd3454 N3481 2.570 . S
Gd3454 O3488 2.353 . S
Gd3454 O3489 2.468 . S
Gd3454 O3490 2.427 . S
Gd3454 O3492 2.388 . S
Gd3454 O3493 2.386 . S
Gd3454 O3497 2.307 . S
Gd3454 C3507 2.805 . S
Gd3455 N3450 2.622 . S
Gd3455 N3456 2.570 . S
Gd3455 O3487 2.386 . S
Gd3455 O3491 2.307 . S
Gd3455 O3494 2.353 . S
Gd3455 O3495 2.468 . S
Gd3455 O3496 2.427 . S
Gd3455 O3498 2.388 . S
Gd3455 C3519 2.805 . S
N3456 C3446 1.359 . S
N3456 Gd3455 2.570 . S
N3456 C3458 1.343 . S
C3457 C3445 1.422 . S
C3457 C3459 1.321 . S
C3457 H3465 0.931 . S
C3458 N3456 1.343 . S
C3458 C3459 1.390 . S
C3458 H3460 0.931 . S
C3459 C3457 1.321 . S
C3459 C3458 1.390 . S
C3459 H3461 0.930 . S
H3460 C3458 0.931 . S
H3461 C3459 0.930 . S
H3462 C3485 0.931 . S
H3463 C3451 0.929 . S
H3464 C3486 0.930 . S
H3465 C3457 0.931 . S
H3466 C3447 0.930 . S
H3467 C3476 0.929 . S
H3468 C3452 0.931 . S
H3469 C3453 0.930 . S
H3470 C3508 0.930 . S
H3471 C3449 0.929 . S
H3472 C3477 0.931 . S
H3473 C3478 0.930 . S
N3474 Gd3454 2.622 . S
N3474 C3475 1.369 . S
N3474 C3476 1.338 . S
C3475 N3474 1.369 . S
C3475 C3479 1.415 . S
C3475 C3482 1.422 . S
C3476 H3467 0.929 . S
C3476 N3474 1.338 . S
C3476 C3478 1.378 . S
C3477 H3472 0.931 . S
C3477 C3478 1.348 . S
C3477 C3479 1.413 . S
C3478 H3473 0.930 . S
C3478 C3476 1.378 . S
C3478 C3477 1.348 . S
C3479 C3475 1.415 . S
C3479 C3477 1.413 . S
C3479 C3509 1.437 . S
H3480 C3509 0.929 . S
N3481 Gd3454 2.570 . S
N3481 C3482 1.359 . S
N3481 C3485 1.343 . S
C3482 C3475 1.422 . S
C3482 N3481 1.359 . S
C3482 C3484 1.421 . S
C3483 C3484 1.422 . S
C3483 C3486 1.321 . S
C3483 H3510 0.931 . S
C3484 C3482 1.421 . S
C3484 C3483 1.422 . S
C3484 C3508 1.417 . S
C3485 H3462 0.931 . S
C3485 N3481 1.343 . S
C3485 C3486 1.390 . S
C3486 H3464 0.930 . S
C3486 C3483 1.321 . S
C3486 C3485 1.390 . S
O3487 Gd3455 2.386 . S
O3487 C3499 1.265 . S
O3488 Gd3454 2.353 . S
O3488 C3499 1.242 . S
O3489 Gd3454 2.468 . S
O3489 C3507 1.263 . S
O3490 Gd3454 2.427 . S
O3490 C3507 1.252 . S
O3491 Gd3455 2.307 . S
O3491 C3500 1.261 . S
O3492 Gd3454 2.388 . S
O3492 C3500 1.252 . S
O3493 Gd3454 2.386 . S
O3493 C3511 1.265 . S
O3494 Gd3455 2.353 . S
O3494 C3511 1.242 . S
O3495 Gd3455 2.468 . S
O3495 C3519 1.263 . S
O3496 Gd3455 2.427 . S
O3496 C3519 1.252 . S
O3497 Gd3454 2.307 . S
O3497 C3512 1.261 . S
O3498 Gd3455 2.388 . S
O3498 C3512 1.252 . S
C3499 O3487 1.265 . S
C3499 O3488 1.242 . S
C3500 O3491 1.261 . S
C3500 O3492 1.252 . S
C3501 C3504 1.394 . S
C3501 C3506 1.370 . S
C3501 C3507 1.500 . S
C3502 C3505 1.383 . S
C3502 C3506 1.395 . S
C3503 C3504 1.396 . S
C3503 C3505 1.365 . S
C3503 H3520 0.929 . S
C3504 C3501 1.394 . S
C3504 C3503 1.396 . S
C3504 H3521 0.930 . S
C3505 C3502 1.383 . S
C3505 C3503 1.365 . S
C3505 H3522 0.931 . S
C3506 C3501 1.370 . S
C3506 C3502 1.395 . S
C3506 H3523 0.930 . S
C3507 Gd3454 2.805 . S
C3507 O3489 1.263 . S
C3507 O3490 1.252 . S
C3507 C3501 1.500 . S
C3508 H3470 0.930 . S
C3508 C3484 1.417 . S
C3508 C3509 1.329 . S
C3509 C3479 1.437 . S
C3509 H3480 0.929 . S
C3509 C3508 1.329 . S
H3510 C3483 0.931 . S
C3511 O3493 1.265 . S
C3511 O3494 1.242 . S
C3512 O3497 1.261 . S
C3512 O3498 1.252 . S
C3513 C3516 1.394 . S
C3513 C3518 1.370 . S
C3513 C3519 1.500 . S
C3514 C3517 1.383 . S
C3514 C3518 1.395 . S
C3515 C3516 1.396 . S
C3515 C3517 1.365 . S
C3515 H3524 0.929 . S
C3516 C3513 1.394 . S
C3516 C3515 1.396 . S
C3516 H3525 0.930 . S
C3517 C3514 1.383 . S
C3517 C3515 1.365 . S
C3517 H3526 0.931 . S
C3518 C3513 1.370 . S
C3518 C3514 1.395 . S
C3518 H3527 0.930 . S
C3519 Gd3455 2.805 . S
C3519 O3495 1.263 . S
C3519 O3496 1.252 . S
C3519 C3513 1.500 . S
H3520 C3503 0.929 . S
H3521 C3504 0.930 . S
H3522 C3505 0.931 . S
H3523 C3506 0.930 . S
H3524 C3515 0.929 . S
H3525 C3516 0.930 . S
H3526 C3517 0.931 . S
H3527 C3518 0.930 . S
C3528 C3530 1.422 . S
C3528 C3532 1.415 . S
C3528 N3534 1.369 . S
C3529 C3530 1.421 . S
C3529 C3531 1.417 . S
C3529 C3541 1.422 . S
C3530 C3528 1.422 . S
C3530 C3529 1.421 . S
C3530 N3540 1.359 . S
C3531 C3529 1.417 . S
C3531 C3533 1.329 . S
C3531 H3550 0.930 . S
C3532 C3528 1.415 . S
C3532 C3533 1.437 . S
C3532 C3536 1.413 . S
C3533 C3531 1.329 . S
C3533 C3532 1.437 . S
C3533 H3555 0.929 . S
N3534 C3528 1.369 . S
N3534 C3535 1.338 . S
N3534 Gd3539 2.622 . S
C3535 N3534 1.338 . S
C3535 C3537 1.378 . S
C3535 H3547 0.929 . S
C3536 C3532 1.413 . S
C3536 C3537 1.348 . S
C3536 H3552 0.931 . S
C3537 C3535 1.378 . S
C3537 C3536 1.348 . S
C3537 H3553 0.930 . S
Gd3538 N3558 2.622 . S
Gd3538 N3565 2.570 . S
Gd3538 O3572 2.353 . S
Gd3538 O3573 2.468 . S
Gd3538 O3574 2.427 . S
Gd3538 O3576 2.388 . S
Gd3538 O3577 2.386 . S
Gd3538 O3581 2.307 . S
Gd3538 C3591 2.805 . S
Gd3539 N3534 2.622 . S
Gd3539 N3540 2.570 . S
Gd3539 O3571 2.386 . S
Gd3539 O3575 2.307 . S
Gd3539 O3578 2.353 . S
Gd3539 O3579 2.468 . S
Gd3539 O3580 2.427 . S
Gd3539 O3582 2.388 . S
Gd3539 C3603 2.805 . S
N3540 C3530 1.359 . S
N3540 Gd3539 2.570 . S
N3540 C3542 1.343 . S
C3541 C3529 1.422 . S
C3541 C3543 1.321 . S
C3541 H3549 0.931 . S
C3542 N3540 1.343 . S
C3542 C3543 1.390 . S
C3542 H3544 0.931 . S
C3543 C3541 1.321 . S
C3543 C3542 1.390 . S
C3543 H3545 0.930 . S
H3544 C3542 0.931 . S
H3545 C3543 0.930 . S
H3546 C3569 0.931 . S
H3547 C3535 0.929 . S
H3548 C3570 0.930 . S
H3549 C3541 0.931 . S
H3550 C3531 0.930 . S
H3551 C3560 0.929 . S
H3552 C3536 0.931 . S
H3553 C3537 0.930 . S
H3554 C3592 0.930 . S
H3555 C3533 0.929 . S
H3556 C3561 0.931 . S
H3557 C3562 0.930 . S
N3558 Gd3538 2.622 . S
N3558 C3559 1.369 . S
N3558 C3560 1.338 . S
C3559 N3558 1.369 . S
C3559 C3563 1.415 . S
C3559 C3566 1.422 . S
C3560 H3551 0.929 . S
C3560 N3558 1.338 . S
C3560 C3562 1.378 . S
C3561 H3556 0.931 . S
C3561 C3562 1.348 . S
C3561 C3563 1.413 . S
C3562 H3557 0.930 . S
C3562 C3560 1.378 . S
C3562 C3561 1.348 . S
C3563 C3559 1.415 . S
C3563 C3561 1.413 . S
C3563 C3593 1.437 . S
H3564 C3593 0.929 . S
N3565 Gd3538 2.570 . S
N3565 C3566 1.359 . S
N3565 C3569 1.343 . S
C3566 C3559 1.422 . S
C3566 N3565 1.359 . S
C3566 C3568 1.421 . S
C3567 C3568 1.422 . S
C3567 C3570 1.321 . S
C3567 H3594 0.931 . S
C3568 C3566 1.421 . S
C3568 C3567 1.422 . S
C3568 C3592 1.417 . S
C3569 H3546 0.931 . S
C3569 N3565 1.343 . S
C3569 C3570 1.390 . S
C3570 H3548 0.930 . S
C3570 C3567 1.321 . S
C3570 C3569 1.390 . S
O3571 Gd3539 2.386 . S
O3571 C3583 1.265 . S
O3572 Gd3538 2.353 . S
O3572 C3583 1.242 . S
O3573 Gd3538 2.468 . S
O3573 C3591 1.263 . S
O3574 Gd3538 2.427 . S
O3574 C3591 1.252 . S
O3575 Gd3539 2.307 . S
O3575 C3584 1.261 . S
O3576 Gd3538 2.388 . S
O3576 C3584 1.252 . S
O3577 Gd3538 2.386 . S
O3577 C3595 1.265 . S
O3578 Gd3539 2.353 . S
O3578 C3595 1.242 . S
O3579 Gd3539 2.468 . S
O3579 C3603 1.263 . S
O3580 Gd3539 2.427 . S
O3580 C3603 1.252 . S
O3581 Gd3538 2.307 . S
O3581 C3596 1.261 . S
O3582 Gd3539 2.388 . S
O3582 C3596 1.252 . S
C3583 O3571 1.265 . S
C3583 O3572 1.242 . S
C3584 O3575 1.261 . S
C3584 O3576 1.252 . S
C3585 C3588 1.394 . S
C3585 C3590 1.370 . S
C3585 C3591 1.500 . S
C3586 C3589 1.383 . S
C3586 C3590 1.395 . S
C3587 C3588 1.396 . S
C3587 C3589 1.365 . S
C3587 H3604 0.929 . S
C3588 C3585 1.394 . S
C3588 C3587 1.396 . S
C3588 H3605 0.930 . S
C3589 C3586 1.383 . S
C3589 C3587 1.365 . S
C3589 H3606 0.931 . S
C3590 C3585 1.370 . S
C3590 C3586 1.395 . S
C3590 H3607 0.930 . S
C3591 Gd3538 2.805 . S
C3591 O3573 1.263 . S
C3591 O3574 1.252 . S
C3591 C3585 1.500 . S
C3592 H3554 0.930 . S
C3592 C3568 1.417 . S
C3592 C3593 1.329 . S
C3593 C3563 1.437 . S
C3593 H3564 0.929 . S
C3593 C3592 1.329 . S
H3594 C3567 0.931 . S
C3595 O3577 1.265 . S
C3595 O3578 1.242 . S
C3596 O3581 1.261 . S
C3596 O3582 1.252 . S
C3597 C3600 1.394 . S
C3597 C3602 1.370 . S
C3597 C3603 1.500 . S
C3598 C3601 1.383 . S
C3598 C3602 1.395 . S
C3599 C3600 1.396 . S
C3599 C3601 1.365 . S
C3599 H3608 0.929 . S
C3600 C3597 1.394 . S
C3600 C3599 1.396 . S
C3600 H3609 0.930 . S
C3601 C3598 1.383 . S
C3601 C3599 1.365 . S
C3601 H3610 0.931 . S
C3602 C3597 1.370 . S
C3602 C3598 1.395 . S
C3602 H3611 0.930 . S
C3603 Gd3539 2.805 . S
C3603 O3579 1.263 . S
C3603 O3580 1.252 . S
C3603 C3597 1.500 . S
H3604 C3587 0.929 . S
H3605 C3588 0.930 . S
H3606 C3589 0.931 . S
H3607 C3590 0.930 . S
H3608 C3599 0.929 . S
H3609 C3600 0.930 . S
H3610 C3601 0.931 . S
H3611 C3602 0.930 . S
C3612 C3614 1.422 . S
C3612 C3616 1.415 . S
C3612 N3618 1.369 . S
C3613 C3614 1.421 . S
C3613 C3615 1.417 . S
C3613 C3625 1.422 . S
C3614 C3612 1.422 . S
C3614 C3613 1.421 . S
C3614 N3624 1.359 . S
C3615 C3613 1.417 . S
C3615 C3617 1.329 . S
C3615 H3634 0.930 . S
C3616 C3612 1.415 . S
C3616 C3617 1.437 . S
C3616 C3620 1.413 . S
C3617 C3615 1.329 . S
C3617 C3616 1.437 . S
C3617 H3639 0.929 . S
N3618 C3612 1.369 . S
N3618 C3619 1.338 . S
N3618 Gd3623 2.622 . S
C3619 N3618 1.338 . S
C3619 C3621 1.378 . S
C3619 H3631 0.929 . S
C3620 C3616 1.413 . S
C3620 C3621 1.348 . S
C3620 H3636 0.931 . S
C3621 C3619 1.378 . S
C3621 C3620 1.348 . S
C3621 H3637 0.930 . S
Gd3622 N3642 2.622 . S
Gd3622 N3649 2.570 . S
Gd3622 O3656 2.353 . S
Gd3622 O3657 2.468 . S
Gd3622 O3658 2.427 . S
Gd3622 O3660 2.388 . S
Gd3622 O3661 2.386 . S
Gd3622 O3665 2.307 . S
Gd3622 C3675 2.805 . S
Gd3623 N3618 2.622 . S
Gd3623 N3624 2.570 . S
Gd3623 O3655 2.386 . S
Gd3623 O3659 2.307 . S
Gd3623 O3662 2.353 . S
Gd3623 O3663 2.468 . S
Gd3623 O3664 2.427 . S
Gd3623 O3666 2.388 . S
Gd3623 C3687 2.805 . S
N3624 C3614 1.359 . S
N3624 Gd3623 2.570 . S
N3624 C3626 1.343 . S
C3625 C3613 1.422 . S
C3625 C3627 1.321 . S
C3625 H3633 0.931 . S
C3626 N3624 1.343 . S
C3626 C3627 1.390 . S
C3626 H3628 0.931 . S
C3627 C3625 1.321 . S
C3627 C3626 1.390 . S
C3627 H3629 0.930 . S
H3628 C3626 0.931 . S
H3629 C3627 0.930 . S
H3630 C3653 0.931 . S
H3631 C3619 0.929 . S
H3632 C3654 0.930 . S
H3633 C3625 0.931 . S
H3634 C3615 0.930 . S
H3635 C3644 0.929 . S
H3636 C3620 0.931 . S
H3637 C3621 0.930 . S
H3638 C3676 0.930 . S
H3639 C3617 0.929 . S
H3640 C3645 0.931 . S
H3641 C3646 0.930 . S
N3642 Gd3622 2.622 . S
N3642 C3643 1.369 . S
N3642 C3644 1.338 . S
C3643 N3642 1.369 . S
C3643 C3647 1.415 . S
C3643 C3650 1.422 . S
C3644 H3635 0.929 . S
C3644 N3642 1.338 . S
C3644 C3646 1.378 . S
C3645 H3640 0.931 . S
C3645 C3646 1.348 . S
C3645 C3647 1.413 . S
C3646 H3641 0.930 . S
C3646 C3644 1.378 . S
C3646 C3645 1.348 . S
C3647 C3643 1.415 . S
C3647 C3645 1.413 . S
C3647 C3677 1.437 . S
H3648 C3677 0.929 . S
N3649 Gd3622 2.570 . S
N3649 C3650 1.359 . S
N3649 C3653 1.343 . S
C3650 C3643 1.422 . S
C3650 N3649 1.359 . S
C3650 C3652 1.421 . S
C3651 C3652 1.422 . S
C3651 C3654 1.321 . S
C3651 H3678 0.931 . S
C3652 C3650 1.421 . S
C3652 C3651 1.422 . S
C3652 C3676 1.417 . S
C3653 H3630 0.931 . S
C3653 N3649 1.343 . S
C3653 C3654 1.390 . S
C3654 H3632 0.930 . S
C3654 C3651 1.321 . S
C3654 C3653 1.390 . S
O3655 Gd3623 2.386 . S
O3655 C3667 1.265 . S
O3656 Gd3622 2.353 . S
O3656 C3667 1.242 . S
O3657 Gd3622 2.468 . S
O3657 C3675 1.263 . S
O3658 Gd3622 2.427 . S
O3658 C3675 1.252 . S
O3659 Gd3623 2.307 . S
O3659 C3668 1.261 . S
O3660 Gd3622 2.388 . S
O3660 C3668 1.252 . S
O3661 Gd3622 2.386 . S
O3661 C3679 1.265 . S
O3662 Gd3623 2.353 . S
O3662 C3679 1.242 . S
O3663 Gd3623 2.468 . S
O3663 C3687 1.263 . S
O3664 Gd3623 2.427 . S
O3664 C3687 1.252 . S
O3665 Gd3622 2.307 . S
O3665 C3680 1.261 . S
O3666 Gd3623 2.388 . S
O3666 C3680 1.252 . S
C3667 O3655 1.265 . S
C3667 O3656 1.242 . S
C3668 O3659 1.261 . S
C3668 O3660 1.252 . S
C3669 C3672 1.394 . S
C3669 C3674 1.370 . S
C3669 C3675 1.500 . S
C3670 C3673 1.383 . S
C3670 C3674 1.395 . S
C3671 C3672 1.396 . S
C3671 C3673 1.365 . S
C3671 H3688 0.929 . S
C3672 C3669 1.394 . S
C3672 C3671 1.396 . S
C3672 H3689 0.930 . S
C3673 C3670 1.383 . S
C3673 C3671 1.365 . S
C3673 H3690 0.931 . S
C3674 C3669 1.370 . S
C3674 C3670 1.395 . S
C3674 H3691 0.930 . S
C3675 Gd3622 2.805 . S
C3675 O3657 1.263 . S
C3675 O3658 1.252 . S
C3675 C3669 1.500 . S
C3676 H3638 0.930 . S
C3676 C3652 1.417 . S
C3676 C3677 1.329 . S
C3677 C3647 1.437 . S
C3677 H3648 0.929 . S
C3677 C3676 1.329 . S
H3678 C3651 0.931 . S
C3679 O3661 1.265 . S
C3679 O3662 1.242 . S
C3680 O3665 1.261 . S
C3680 O3666 1.252 . S
C3681 C3684 1.394 . S
C3681 C3686 1.370 . S
C3681 C3687 1.500 . S
C3682 C3685 1.383 . S
C3682 C3686 1.395 . S
C3683 C3684 1.396 . S
C3683 C3685 1.365 . S
C3683 H3692 0.929 . S
C3684 C3681 1.394 . S
C3684 C3683 1.396 . S
C3684 H3693 0.930 . S
C3685 C3682 1.383 . S
C3685 C3683 1.365 . S
C3685 H3694 0.931 . S
C3686 C3681 1.370 . S
C3686 C3682 1.395 . S
C3686 H3695 0.930 . S
C3687 Gd3623 2.805 . S
C3687 O3663 1.263 . S
C3687 O3664 1.252 . S
C3687 C3681 1.500 . S
H3688 C3671 0.929 . S
H3689 C3672 0.930 . S
H3690 C3673 0.931 . S
H3691 C3674 0.930 . S
H3692 C3683 0.929 . S
H3693 C3684 0.930 . S
H3694 C3685 0.931 . S
H3695 C3686 0.930 . S
C3696 C3698 1.422 . S
C3696 C3700 1.415 . S
C3696 N3702 1.369 . S
C3697 C3698 1.421 . S
C3697 C3699 1.417 . S
C3697 C3709 1.422 . S
C3698 C3696 1.422 . S
C3698 C3697 1.421 . S
C3698 N3708 1.359 . S
C3699 C3697 1.417 . S
C3699 C3701 1.329 . S
C3699 H3718 0.930 . S
C3700 C3696 1.415 . S
C3700 C3701 1.437 . S
C3700 C3704 1.413 . S
C3701 C3699 1.329 . S
C3701 C3700 1.437 . S
C3701 H3723 0.929 . S
N3702 C3696 1.369 . S
N3702 C3703 1.338 . S
N3702 Gd3707 2.622 . S
C3703 N3702 1.338 . S
C3703 C3705 1.378 . S
C3703 H3715 0.929 . S
C3704 C3700 1.413 . S
C3704 C3705 1.348 . S
C3704 H3720 0.931 . S
C3705 C3703 1.378 . S
C3705 C3704 1.348 . S
C3705 H3721 0.930 . S
Gd3706 N3726 2.622 . S
Gd3706 N3733 2.570 . S
Gd3706 O3740 2.353 . S
Gd3706 O3741 2.468 . S
Gd3706 O3742 2.427 . S
Gd3706 O3744 2.388 . S
Gd3706 O3745 2.386 . S
Gd3706 O3749 2.307 . S
Gd3706 C3759 2.805 . S
Gd3707 N3702 2.622 . S
Gd3707 N3708 2.570 . S
Gd3707 O3739 2.386 . S
Gd3707 O3743 2.307 . S
Gd3707 O3746 2.353 . S
Gd3707 O3747 2.468 . S
Gd3707 O3748 2.427 . S
Gd3707 O3750 2.388 . S
Gd3707 C3771 2.805 . S
N3708 C3698 1.359 . S
N3708 Gd3707 2.570 . S
N3708 C3710 1.343 . S
C3709 C3697 1.422 . S
C3709 C3711 1.321 . S
C3709 H3717 0.931 . S
C3710 N3708 1.343 . S
C3710 C3711 1.390 . S
C3710 H3712 0.931 . S
C3711 C3709 1.321 . S
C3711 C3710 1.390 . S
C3711 H3713 0.930 . S
H3712 C3710 0.931 . S
H3713 C3711 0.930 . S
H3714 C3737 0.931 . S
H3715 C3703 0.929 . S
H3716 C3738 0.930 . S
H3717 C3709 0.931 . S
H3718 C3699 0.930 . S
H3719 C3728 0.929 . S
H3720 C3704 0.931 . S
H3721 C3705 0.930 . S
H3722 C3760 0.930 . S
H3723 C3701 0.929 . S
H3724 C3729 0.931 . S
H3725 C3730 0.930 . S
N3726 Gd3706 2.622 . S
N3726 C3727 1.369 . S
N3726 C3728 1.338 . S
C3727 N3726 1.369 . S
C3727 C3731 1.415 . S
C3727 C3734 1.422 . S
C3728 H3719 0.929 . S
C3728 N3726 1.338 . S
C3728 C3730 1.378 . S
C3729 H3724 0.931 . S
C3729 C3730 1.348 . S
C3729 C3731 1.413 . S
C3730 H3725 0.930 . S
C3730 C3728 1.378 . S
C3730 C3729 1.348 . S
C3731 C3727 1.415 . S
C3731 C3729 1.413 . S
C3731 C3761 1.437 . S
H3732 C3761 0.929 . S
N3733 Gd3706 2.570 . S
N3733 C3734 1.359 . S
N3733 C3737 1.343 . S
C3734 C3727 1.422 . S
C3734 N3733 1.359 . S
C3734 C3736 1.421 . S
C3735 C3736 1.422 . S
C3735 C3738 1.321 . S
C3735 H3762 0.931 . S
C3736 C3734 1.421 . S
C3736 C3735 1.422 . S
C3736 C3760 1.417 . S
C3737 H3714 0.931 . S
C3737 N3733 1.343 . S
C3737 C3738 1.390 . S
C3738 H3716 0.930 . S
C3738 C3735 1.321 . S
C3738 C3737 1.390 . S
O3739 Gd3707 2.386 . S
O3739 C3751 1.265 . S
O3740 Gd3706 2.353 . S
O3740 C3751 1.242 . S
O3741 Gd3706 2.468 . S
O3741 C3759 1.263 . S
O3742 Gd3706 2.427 . S
O3742 C3759 1.252 . S
O3743 Gd3707 2.307 . S
O3743 C3752 1.261 . S
O3744 Gd3706 2.388 . S
O3744 C3752 1.252 . S
O3745 Gd3706 2.386 . S
O3745 C3763 1.265 . S
O3746 Gd3707 2.353 . S
O3746 C3763 1.242 . S
O3747 Gd3707 2.468 . S
O3747 C3771 1.263 . S
O3748 Gd3707 2.427 . S
O3748 C3771 1.252 . S
O3749 Gd3706 2.307 . S
O3749 C3764 1.261 . S
O3750 Gd3707 2.388 . S
O3750 C3764 1.252 . S
C3751 O3739 1.265 . S
C3751 O3740 1.242 . S
C3752 O3743 1.261 . S
C3752 O3744 1.252 . S
C3753 C3756 1.394 . S
C3753 C3758 1.370 . S
C3753 C3759 1.500 . S
C3754 C3757 1.383 . S
C3754 C3758 1.395 . S
C3755 C3756 1.396 . S
C3755 C3757 1.365 . S
C3755 H3772 0.929 . S
C3756 C3753 1.394 . S
C3756 C3755 1.396 . S
C3756 H3773 0.930 . S
C3757 C3754 1.383 . S
C3757 C3755 1.365 . S
C3757 H3774 0.931 . S
C3758 C3753 1.370 . S
C3758 C3754 1.395 . S
C3758 H3775 0.930 . S
C3759 Gd3706 2.805 . S
C3759 O3741 1.263 . S
C3759 O3742 1.252 . S
C3759 C3753 1.500 . S
C3760 H3722 0.930 . S
C3760 C3736 1.417 . S
C3760 C3761 1.329 . S
C3761 C3731 1.437 . S
C3761 H3732 0.929 . S
C3761 C3760 1.329 . S
H3762 C3735 0.931 . S
C3763 O3745 1.265 . S
C3763 O3746 1.242 . S
C3764 O3749 1.261 . S
C3764 O3750 1.252 . S
C3765 C3768 1.394 . S
C3765 C3770 1.370 . S
C3765 C3771 1.500 . S
C3766 C3769 1.383 . S
C3766 C3770 1.395 . S
C3767 C3768 1.396 . S
C3767 C3769 1.365 . S
C3767 H3776 0.929 . S
C3768 C3765 1.394 . S
C3768 C3767 1.396 . S
C3768 H3777 0.930 . S
C3769 C3766 1.383 . S
C3769 C3767 1.365 . S
C3769 H3778 0.931 . S
C3770 C3765 1.370 . S
C3770 C3766 1.395 . S
C3770 H3779 0.930 . S
C3771 Gd3707 2.805 . S
C3771 O3747 1.263 . S
C3771 O3748 1.252 . S
C3771 C3765 1.500 . S
H3772 C3755 0.929 . S
H3773 C3756 0.930 . S
H3774 C3757 0.931 . S
H3775 C3758 0.930 . S
H3776 C3767 0.929 . S
H3777 C3768 0.930 . S
H3778 C3769 0.931 . S
H3779 C3770 0.930 . S
C3780 C3782 1.422 . S
C3780 C3784 1.415 . S
C3780 N3786 1.369 . S
C3781 C3782 1.421 . S
C3781 C3783 1.417 . S
C3781 C3793 1.422 . S
C3782 C3780 1.422 . S
C3782 C3781 1.421 . S
C3782 N3792 1.359 . S
C3783 C3781 1.417 . S
C3783 C3785 1.329 . S
C3783 H3802 0.930 . S
C3784 C3780 1.415 . S
C3784 C3785 1.437 . S
C3784 C3788 1.413 . S
C3785 C3783 1.329 . S
C3785 C3784 1.437 . S
C3785 H3807 0.929 . S
N3786 C3780 1.369 . S
N3786 C3787 1.338 . S
N3786 Gd3791 2.622 . S
C3787 N3786 1.338 . S
C3787 C3789 1.378 . S
C3787 H3799 0.929 . S
C3788 C3784 1.413 . S
C3788 C3789 1.348 . S
C3788 H3804 0.931 . S
C3789 C3787 1.378 . S
C3789 C3788 1.348 . S
C3789 H3805 0.930 . S
Gd3790 N3810 2.622 . S
Gd3790 N3817 2.570 . S
Gd3790 O3824 2.353 . S
Gd3790 O3825 2.468 . S
Gd3790 O3826 2.427 . S
Gd3790 O3828 2.388 . S
Gd3790 O3829 2.386 . S
Gd3790 O3833 2.307 . S
Gd3790 C3843 2.805 . S
Gd3791 N3786 2.622 . S
Gd3791 N3792 2.570 . S
Gd3791 O3823 2.386 . S
Gd3791 O3827 2.307 . S
Gd3791 O3830 2.353 . S
Gd3791 O3831 2.468 . S
Gd3791 O3832 2.427 . S
Gd3791 O3834 2.388 . S
Gd3791 C3855 2.805 . S
N3792 C3782 1.359 . S
N3792 Gd3791 2.570 . S
N3792 C3794 1.343 . S
C3793 C3781 1.422 . S
C3793 C3795 1.321 . S
C3793 H3801 0.931 . S
C3794 N3792 1.343 . S
C3794 C3795 1.390 . S
C3794 H3796 0.931 . S
C3795 C3793 1.321 . S
C3795 C3794 1.390 . S
C3795 H3797 0.930 . S
H3796 C3794 0.931 . S
H3797 C3795 0.930 . S
H3798 C3821 0.931 . S
H3799 C3787 0.929 . S
H3800 C3822 0.930 . S
H3801 C3793 0.931 . S
H3802 C3783 0.930 . S
H3803 C3812 0.929 . S
H3804 C3788 0.931 . S
H3805 C3789 0.930 . S
H3806 C3844 0.930 . S
H3807 C3785 0.929 . S
H3808 C3813 0.931 . S
H3809 C3814 0.930 . S
N3810 Gd3790 2.622 . S
N3810 C3811 1.369 . S
N3810 C3812 1.338 . S
C3811 N3810 1.369 . S
C3811 C3815 1.415 . S
C3811 C3818 1.422 . S
C3812 H3803 0.929 . S
C3812 N3810 1.338 . S
C3812 C3814 1.378 . S
C3813 H3808 0.931 . S
C3813 C3814 1.348 . S
C3813 C3815 1.413 . S
C3814 H3809 0.930 . S
C3814 C3812 1.378 . S
C3814 C3813 1.348 . S
C3815 C3811 1.415 . S
C3815 C3813 1.413 . S
C3815 C3845 1.437 . S
H3816 C3845 0.929 . S
N3817 Gd3790 2.570 . S
N3817 C3818 1.359 . S
N3817 C3821 1.343 . S
C3818 C3811 1.422 . S
C3818 N3817 1.359 . S
C3818 C3820 1.421 . S
C3819 C3820 1.422 . S
C3819 C3822 1.321 . S
C3819 H3846 0.931 . S
C3820 C3818 1.421 . S
C3820 C3819 1.422 . S
C3820 C3844 1.417 . S
C3821 H3798 0.931 . S
C3821 N3817 1.343 . S
C3821 C3822 1.390 . S
C3822 H3800 0.930 . S
C3822 C3819 1.321 . S
C3822 C3821 1.390 . S
O3823 Gd3791 2.386 . S
O3823 C3835 1.265 . S
O3824 Gd3790 2.353 . S
O3824 C3835 1.242 . S
O3825 Gd3790 2.468 . S
O3825 C3843 1.263 . S
O3826 Gd3790 2.427 . S
O3826 C3843 1.252 . S
O3827 Gd3791 2.307 . S
O3827 C3836 1.261 . S
O3828 Gd3790 2.388 . S
O3828 C3836 1.252 . S
O3829 Gd3790 2.386 . S
O3829 C3847 1.265 . S
O3830 Gd3791 2.353 . S
O3830 C3847 1.242 . S
O3831 Gd3791 2.468 . S
O3831 C3855 1.263 . S
O3832 Gd3791 2.427 . S
O3832 C3855 1.252 . S
O3833 Gd3790 2.307 . S
O3833 C3848 1.261 . S
O3834 Gd3791 2.388 . S
O3834 C3848 1.252 . S
C3835 O3823 1.265 . S
C3835 O3824 1.242 . S
C3836 O3827 1.261 . S
C3836 O3828 1.252 . S
C3837 C3840 1.394 . S
C3837 C3842 1.370 . S
C3837 C3843 1.500 . S
C3838 C3841 1.383 . S
C3838 C3842 1.395 . S
C3839 C3840 1.396 . S
C3839 C3841 1.365 . S
C3839 H3856 0.929 . S
C3840 C3837 1.394 . S
C3840 C3839 1.396 . S
C3840 H3857 0.930 . S
C3841 C3838 1.383 . S
C3841 C3839 1.365 . S
C3841 H3858 0.931 . S
C3842 C3837 1.370 . S
C3842 C3838 1.395 . S
C3842 H3859 0.930 . S
C3843 Gd3790 2.805 . S
C3843 O3825 1.263 . S
C3843 O3826 1.252 . S
C3843 C3837 1.500 . S
C3844 H3806 0.930 . S
C3844 C3820 1.417 . S
C3844 C3845 1.329 . S
C3845 C3815 1.437 . S
C3845 H3816 0.929 . S
C3845 C3844 1.329 . S
H3846 C3819 0.931 . S
C3847 O3829 1.265 . S
C3847 O3830 1.242 . S
C3848 O3833 1.261 . S
C3848 O3834 1.252 . S
C3849 C3852 1.394 . S
C3849 C3854 1.370 . S
C3849 C3855 1.500 . S
C3850 C3853 1.383 . S
C3850 C3854 1.395 . S
C3851 C3852 1.396 . S
C3851 C3853 1.365 . S
C3851 H3860 0.929 . S
C3852 C3849 1.394 . S
C3852 C3851 1.396 . S
C3852 H3861 0.930 . S
C3853 C3850 1.383 . S
C3853 C3851 1.365 . S
C3853 H3862 0.931 . S
C3854 C3849 1.370 . S
C3854 C3850 1.395 . S
C3854 H3863 0.930 . S
C3855 Gd3791 2.805 . S
C3855 O3831 1.263 . S
C3855 O3832 1.252 . S
C3855 C3849 1.500 . S
H3856 C3839 0.929 . S
H3857 C3840 0.930 . S
H3858 C3841 0.931 . S
H3859 C3842 0.930 . S
H3860 C3851 0.929 . S
H3861 C3852 0.930 . S
H3862 C3853 0.931 . S
H3863 C3854 0.930 . S
C3864 C3866 1.422 . S
C3864 C3868 1.415 . S
C3864 N3870 1.369 . S
C3865 C3866 1.421 . S
C3865 C3867 1.417 . S
C3865 C3877 1.422 . S
C3866 C3864 1.422 . S
C3866 C3865 1.421 . S
C3866 N3876 1.359 . S
C3867 C3865 1.417 . S
C3867 C3869 1.329 . S
C3867 H3886 0.930 . S
C3868 C3864 1.415 . S
C3868 C3869 1.437 . S
C3868 C3872 1.413 . S
C3869 C3867 1.329 . S
C3869 C3868 1.437 . S
C3869 H3891 0.929 . S
N3870 C3864 1.369 . S
N3870 C3871 1.338 . S
N3870 Gd3875 2.622 . S
C3871 N3870 1.338 . S
C3871 C3873 1.378 . S
C3871 H3883 0.929 . S
C3872 C3868 1.413 . S
C3872 C3873 1.348 . S
C3872 H3888 0.931 . S
C3873 C3871 1.378 . S
C3873 C3872 1.348 . S
C3873 H3889 0.930 . S
Gd3874 N3894 2.622 . S
Gd3874 N3901 2.570 . S
Gd3874 O3908 2.353 . S
Gd3874 O3909 2.468 . S
Gd3874 O3910 2.427 . S
Gd3874 O3912 2.388 . S
Gd3874 O3913 2.386 . S
Gd3874 O3917 2.307 . S
Gd3874 C3927 2.805 . S
Gd3875 N3870 2.622 . S
Gd3875 N3876 2.570 . S
Gd3875 O3907 2.386 . S
Gd3875 O3911 2.307 . S
Gd3875 O3914 2.353 . S
Gd3875 O3915 2.468 . S
Gd3875 O3916 2.427 . S
Gd3875 O3918 2.388 . S
Gd3875 C3939 2.805 . S
N3876 C3866 1.359 . S
N3876 Gd3875 2.570 . S
N3876 C3878 1.343 . S
C3877 C3865 1.422 . S
C3877 C3879 1.321 . S
C3877 H3885 0.931 . S
C3878 N3876 1.343 . S
C3878 C3879 1.390 . S
C3878 H3880 0.931 . S
C3879 C3877 1.321 . S
C3879 C3878 1.390 . S
C3879 H3881 0.930 . S
H3880 C3878 0.931 . S
H3881 C3879 0.930 . S
H3882 C3905 0.931 . S
H3883 C3871 0.929 . S
H3884 C3906 0.930 . S
H3885 C3877 0.931 . S
H3886 C3867 0.930 . S
H3887 C3896 0.929 . S
H3888 C3872 0.931 . S
H3889 C3873 0.930 . S
H3890 C3928 0.930 . S
H3891 C3869 0.929 . S
H3892 C3897 0.931 . S
H3893 C3898 0.930 . S
N3894 Gd3874 2.622 . S
N3894 C3895 1.369 . S
N3894 C3896 1.338 . S
C3895 N3894 1.369 . S
C3895 C3899 1.415 . S
C3895 C3902 1.422 . S
C3896 H3887 0.929 . S
C3896 N3894 1.338 . S
C3896 C3898 1.378 . S
C3897 H3892 0.931 . S
C3897 C3898 1.348 . S
C3897 C3899 1.413 . S
C3898 H3893 0.930 . S
C3898 C3896 1.378 . S
C3898 C3897 1.348 . S
C3899 C3895 1.415 . S
C3899 C3897 1.413 . S
C3899 C3929 1.437 . S
H3900 C3929 0.929 . S
N3901 Gd3874 2.570 . S
N3901 C3902 1.359 . S
N3901 C3905 1.343 . S
C3902 C3895 1.422 . S
C3902 N3901 1.359 . S
C3902 C3904 1.421 . S
C3903 C3904 1.422 . S
C3903 C3906 1.321 . S
C3903 H3930 0.931 . S
C3904 C3902 1.421 . S
C3904 C3903 1.422 . S
C3904 C3928 1.417 . S
C3905 H3882 0.931 . S
C3905 N3901 1.343 . S
C3905 C3906 1.390 . S
C3906 H3884 0.930 . S
C3906 C3903 1.321 . S
C3906 C3905 1.390 . S
O3907 Gd3875 2.386 . S
O3907 C3919 1.265 . S
O3908 Gd3874 2.353 . S
O3908 C3919 1.242 . S
O3909 Gd3874 2.468 . S
O3909 C3927 1.263 . S
O3910 Gd3874 2.427 . S
O3910 C3927 1.252 . S
O3911 Gd3875 2.307 . S
O3911 C3920 1.261 . S
O3912 Gd3874 2.388 . S
O3912 C3920 1.252 . S
O3913 Gd3874 2.386 . S
O3913 C3931 1.265 . S
O3914 Gd3875 2.353 . S
O3914 C3931 1.242 . S
O3915 Gd3875 2.468 . S
O3915 C3939 1.263 . S
O3916 Gd3875 2.427 . S
O3916 C3939 1.252 . S
O3917 Gd3874 2.307 . S
O3917 C3932 1.261 . S
O3918 Gd3875 2.388 . S
O3918 C3932 1.252 . S
C3919 O3907 1.265 . S
C3919 O3908 1.242 . S
C3920 O3911 1.261 . S
C3920 O3912 1.252 . S
C3921 C3924 1.394 . S
C3921 C3926 1.370 . S
C3921 C3927 1.500 . S
C3922 C3925 1.383 . S
C3922 C3926 1.395 . S
C3923 C3924 1.396 . S
C3923 C3925 1.365 . S
C3923 H3940 0.929 . S
C3924 C3921 1.394 . S
C3924 C3923 1.396 . S
C3924 H3941 0.930 . S
C3925 C3922 1.383 . S
C3925 C3923 1.365 . S
C3925 H3942 0.931 . S
C3926 C3921 1.370 . S
C3926 C3922 1.395 . S
C3926 H3943 0.930 . S
C3927 Gd3874 2.805 . S
C3927 O3909 1.263 . S
C3927 O3910 1.252 . S
C3927 C3921 1.500 . S
C3928 H3890 0.930 . S
C3928 C3904 1.417 . S
C3928 C3929 1.329 . S
C3929 C3899 1.437 . S
C3929 H3900 0.929 . S
C3929 C3928 1.329 . S
H3930 C3903 0.931 . S
C3931 O3913 1.265 . S
C3931 O3914 1.242 . S
C3932 O3917 1.261 . S
C3932 O3918 1.252 . S
C3933 C3936 1.394 . S
C3933 C3938 1.370 . S
C3933 C3939 1.500 . S
C3934 C3937 1.383 . S
C3934 C3938 1.395 . S
C3935 C3936 1.396 . S
C3935 C3937 1.365 . S
C3935 H3944 0.929 . S
C3936 C3933 1.394 . S
C3936 C3935 1.396 . S
C3936 H3945 0.930 . S
C3937 C3934 1.383 . S
C3937 C3935 1.365 . S
C3937 H3946 0.931 . S
C3938 C3933 1.370 . S
C3938 C3934 1.395 . S
C3938 H3947 0.930 . S
C3939 Gd3875 2.805 . S
C3939 O3915 1.263 . S
C3939 O3916 1.252 . S
C3939 C3933 1.500 . S
H3940 C3923 0.929 . S
H3941 C3924 0.930 . S
H3942 C3925 0.931 . S
H3943 C3926 0.930 . S
H3944 C3935 0.929 . S
H3945 C3936 0.930 . S
H3946 C3937 0.931 . S
H3947 C3938 0.930 . S
C3948 C3950 1.422 . S
C3948 C3952 1.415 . S
C3948 N3954 1.369 . S
C3949 C3950 1.421 . S
C3949 C3951 1.417 . S
C3949 C3961 1.422 . S
C3950 C3948 1.422 . S
C3950 C3949 1.421 . S
C3950 N3960 1.359 . S
C3951 C3949 1.417 . S
C3951 C3953 1.329 . S
C3951 H3970 0.930 . S
C3952 C3948 1.415 . S
C3952 C3953 1.437 . S
C3952 C3956 1.413 . S
C3953 C3951 1.329 . S
C3953 C3952 1.437 . S
C3953 H3975 0.929 . S
N3954 C3948 1.369 . S
N3954 C3955 1.338 . S
N3954 Gd3959 2.622 . S
C3955 N3954 1.338 . S
C3955 C3957 1.378 . S
C3955 H3967 0.929 . S
C3956 C3952 1.413 . S
C3956 C3957 1.348 . S
C3956 H3972 0.931 . S
C3957 C3955 1.378 . S
C3957 C3956 1.348 . S
C3957 H3973 0.930 . S
Gd3958 N3978 2.622 . S
Gd3958 N3985 2.570 . S
Gd3958 O3992 2.353 . S
Gd3958 O3993 2.468 . S
Gd3958 O3994 2.427 . S
Gd3958 O3996 2.388 . S
Gd3958 O3997 2.386 . S
Gd3958 O4001 2.307 . S
Gd3958 C4011 2.805 . S
Gd3959 N3954 2.622 . S
Gd3959 N3960 2.570 . S
Gd3959 O3991 2.386 . S
Gd3959 O3995 2.307 . S
Gd3959 O3998 2.353 . S
Gd3959 O3999 2.468 . S
Gd3959 O4000 2.427 . S
Gd3959 O4002 2.388 . S
Gd3959 C4023 2.805 . S
N3960 C3950 1.359 . S
N3960 Gd3959 2.570 . S
N3960 C3962 1.343 . S
C3961 C3949 1.422 . S
C3961 C3963 1.321 . S
C3961 H3969 0.931 . S
C3962 N3960 1.343 . S
C3962 C3963 1.390 . S
C3962 H3964 0.931 . S
C3963 C3961 1.321 . S
C3963 C3962 1.390 . S
C3963 H3965 0.930 . S
H3964 C3962 0.931 . S
H3965 C3963 0.930 . S
H3966 C3989 0.931 . S
H3967 C3955 0.929 . S
H3968 C3990 0.930 . S
H3969 C3961 0.931 . S
H3970 C3951 0.930 . S
H3971 C3980 0.929 . S
H3972 C3956 0.931 . S
H3973 C3957 0.930 . S
H3974 C4012 0.930 . S
H3975 C3953 0.929 . S
H3976 C3981 0.931 . S
H3977 C3982 0.930 . S
N3978 Gd3958 2.622 . S
N3978 C3979 1.369 . S
N3978 C3980 1.338 . S
C3979 N3978 1.369 . S
C3979 C3983 1.415 . S
C3979 C3986 1.422 . S
C3980 H3971 0.929 . S
C3980 N3978 1.338 . S
C3980 C3982 1.378 . S
C3981 H3976 0.931 . S
C3981 C3982 1.348 . S
C3981 C3983 1.413 . S
C3982 H3977 0.930 . S
C3982 C3980 1.378 . S
C3982 C3981 1.348 . S
C3983 C3979 1.415 . S
C3983 C3981 1.413 . S
C3983 C4013 1.437 . S
H3984 C4013 0.929 . S
N3985 Gd3958 2.570 . S
N3985 C3986 1.359 . S
N3985 C3989 1.343 . S
C3986 C3979 1.422 . S
C3986 N3985 1.359 . S
C3986 C3988 1.421 . S
C3987 C3988 1.422 . S
C3987 C3990 1.321 . S
C3987 H4014 0.931 . S
C3988 C3986 1.421 . S
C3988 C3987 1.422 . S
C3988 C4012 1.417 . S
C3989 H3966 0.931 . S
C3989 N3985 1.343 . S
C3989 C3990 1.390 . S
C3990 H3968 0.930 . S
C3990 C3987 1.321 . S
C3990 C3989 1.390 . S
O3991 Gd3959 2.386 . S
O3991 C4003 1.265 . S
O3992 Gd3958 2.353 . S
O3992 C4003 1.242 . S
O3993 Gd3958 2.468 . S
O3993 C4011 1.263 . S
O3994 Gd3958 2.427 . S
O3994 C4011 1.252 . S
O3995 Gd3959 2.307 . S
O3995 C4004 1.261 . S
O3996 Gd3958 2.388 . S
O3996 C4004 1.252 . S
O3997 Gd3958 2.386 . S
O3997 C4015 1.265 . S
O3998 Gd3959 2.353 . S
O3998 C4015 1.242 . S
O3999 Gd3959 2.468 . S
O3999 C4023 1.263 . S
O4000 Gd3959 2.427 . S
O4000 C4023 1.252 . S
O4001 Gd3958 2.307 . S
O4001 C4016 1.261 . S
O4002 Gd3959 2.388 . S
O4002 C4016 1.252 . S
C4003 O3991 1.265 . S
C4003 O3992 1.242 . S
C4004 O3995 1.261 . S
C4004 O3996 1.252 . S
C4005 C4008 1.394 . S
C4005 C4010 1.370 . S
C4005 C4011 1.500 . S
C4006 C4009 1.383 . S
C4006 C4010 1.395 . S
C4007 C4008 1.396 . S
C4007 C4009 1.365 . S
C4007 H4024 0.929 . S
C4008 C4005 1.394 . S
C4008 C4007 1.396 . S
C4008 H4025 0.930 . S
C4009 C4006 1.383 . S
C4009 C4007 1.365 . S
C4009 H4026 0.931 . S
C4010 C4005 1.370 . S
C4010 C4006 1.395 . S
C4010 H4027 0.930 . S
C4011 Gd3958 2.805 . S
C4011 O3993 1.263 . S
C4011 O3994 1.252 . S
C4011 C4005 1.500 . S
C4012 H3974 0.930 . S
C4012 C3988 1.417 . S
C4012 C4013 1.329 . S
C4013 C3983 1.437 . S
C4013 H3984 0.929 . S
C4013 C4012 1.329 . S
H4014 C3987 0.931 . S
C4015 O3997 1.265 . S
C4015 O3998 1.242 . S
C4016 O4001 1.261 . S
C4016 O4002 1.252 . S
C4017 C4020 1.394 . S
C4017 C4022 1.370 . S
C4017 C4023 1.500 . S
C4018 C4021 1.383 . S
C4018 C4022 1.395 . S
C4019 C4020 1.396 . S
C4019 C4021 1.365 . S
C4019 H4028 0.929 . S
C4020 C4017 1.394 . S
C4020 C4019 1.396 . S
C4020 H4029 0.930 . S
C4021 C4018 1.383 . S
C4021 C4019 1.365 . S
C4021 H4030 0.931 . S
C4022 C4017 1.370 . S
C4022 C4018 1.395 . S
C4022 H4031 0.930 . S
C4023 Gd3959 2.805 . S
C4023 O3999 1.263 . S
C4023 O4000 1.252 . S
C4023 C4017 1.500 . S
H4024 C4007 0.929 . S
H4025 C4008 0.930 . S
H4026 C4009 0.931 . S
H4027 C4010 0.930 . S
H4028 C4019 0.929 . S
H4029 C4020 0.930 . S
H4030 C4021 0.931 . S
H4031 C4022 0.930 . S
C4032 C4033 1.349 . S
C4032 C4034 1.327 . S
C4032 H4057 0.950 . S
C4033 C4032 1.349 . S
C4033 C4049 1.349 . S
C4034 C4032 1.327 . S
C4034 C4053 1.429 . S
C4034 H4058 0.950 . S
C4035 C4052 1.574 . S
C4035 C4054 1.368 . S
C4035 H4059 0.949 . S
H4036 C4040 0.949 . S
C4037 C4038 1.349 . S
C4037 C4039 1.327 . S
C4037 H4060 0.950 . S
C4038 C4037 1.349 . S
C4038 C4050 1.349 . S
C4039 C4037 1.327 . S
C4039 C4055 1.429 . S
C4039 H4061 0.950 . S
C4040 H4036 0.949 . S
C4040 C4048 1.574 . S
C4040 C4056 1.368 . S
H4041 C4049 0.950 . S
H4042 C4047 0.950 . S
H4043 C4048 0.949 . S
H4044 C4050 0.950 . S
H4045 C4051 0.950 . S
H4046 C4052 0.949 . S
C4047 H4042 0.950 . S
C4047 C4049 1.327 . S
C4047 C4053 1.429 . S
C4048 C4040 1.574 . S
C4048 H4043 0.949 . S
C4048 C4054 1.368 . S
C4049 C4033 1.349 . S
C4049 H4041 0.950 . S
C4049 C4047 1.327 . S
C4050 C4038 1.349 . S
C4050 H4044 0.950 . S
C4050 C4051 1.327 . S
C4051 H4045 0.950 . S
C4051 C4050 1.327 . S
C4051 C4055 1.429 . S
C4052 C4035 1.574 . S
C4052 H4046 0.949 . S
C4052 C4056 1.368 . S
C4053 C4034 1.429 . S
C4053 C4047 1.429 . S
C4053 C4054 1.523 . S
C4054 C4035 1.368 . S
C4054 C4048 1.368 . S
C4054 C4053 1.523 . S
C4055 C4039 1.429 . S
C4055 C4051 1.429 . S
C4055 C4056 1.523 . S
C4056 C4040 1.368 . S
C4056 C4052 1.368 . S
C4056 C4055 1.523 . S
H4057 C4032 0.950 . S
H4058 C4034 0.950 . S
H4059 C4035 0.949 . S
H4060 C4037 0.950 . S
H4061 C4039 0.950 . S
C4062 C4063 1.349 . S
C4062 C4064 1.327 . S
C4062 H4087 0.950 . S
C4063 C4062 1.349 . S
C4063 C4079 1.349 1_565 S
C4064 C4062 1.327 . S
C4064 C4083 1.425 . S
C4064 H4088 0.950 . S
C4065 C4082 1.574 . S
C4065 C4084 1.368 . S
C4065 H4089 0.949 . S
H4066 C4070 0.949 . S
C4067 C4068 1.349 . S
C4067 C4069 1.327 . S
C4067 H4090 0.950 . S
C4068 C4067 1.349 . S
C4068 C4080 1.349 1_545 S
C4069 C4067 1.327 . S
C4069 C4085 1.429 . S
C4069 H4091 0.950 . S
C4070 H4066 0.949 . S
C4070 C4078 1.574 . S
C4070 C4086 1.368 1_565 S
H4071 C4079 0.950 . S
H4072 C4077 0.950 . S
H4073 C4078 0.949 . S
H4074 C4080 0.950 . S
H4075 C4081 0.950 . S
H4076 C4082 0.949 . S
C4077 H4072 0.950 . S
C4077 C4079 1.327 . S
C4077 C4083 1.431 1_545 S
C4078 C4070 1.574 . S
C4078 H4073 0.949 . S
C4078 C4084 1.368 1_565 S
C4079 C4063 1.349 1_545 S
C4079 H4071 0.950 . S
C4079 C4077 1.327 . S
C4080 C4068 1.349 1_565 S
C4080 H4074 0.950 . S
C4080 C4081 1.327 . S
C4081 H4075 0.950 . S
C4081 C4080 1.327 . S
C4081 C4085 1.429 1_565 S
C4082 C4065 1.574 . S
C4082 H4076 0.949 . S
C4082 C4086 1.368 . S
C4083 C4064 1.425 . S
C4083 C4077 1.431 1_565 S
C4083 C4084 1.524 1_565 S
C4084 C4065 1.368 . S
C4084 C4078 1.368 1_545 S
C4084 C4083 1.524 1_545 S
C4085 C4069 1.429 . S
C4085 C4081 1.429 1_545 S
C4085 C4086 1.523 . S
C4086 C4070 1.368 1_545 S
C4086 C4082 1.368 . S
C4086 C4085 1.523 . S
H4087 C4062 0.950 . S
H4088 C4064 0.950 . S
H4089 C4065 0.949 . S
H4090 C4067 0.950 . S
H4091 C4069 0.950 . S
C4092 C4093 1.349 . S
C4092 C4094 1.327 . S
C4092 H4117 0.950 . S
C4093 C4092 1.349 . S
C4093 C4109 1.349 . S
C4094 C4092 1.327 . S
C4094 C4113 1.429 . S
C4094 H4118 0.950 . S
C4095 C4112 1.574 . S
C4095 C4114 1.368 . S
C4095 H4119 0.949 . S
H4096 C4100 0.949 1_655 S
C4097 C4098 1.349 . S
C4097 C4099 1.327 . S
C4097 H4120 0.950 . S
C4098 C4097 1.349 . S
C4098 C4110 1.349 1_455 S
C4099 C4097 1.327 . S
C4099 C4115 1.429 . S
C4099 H4121 0.950 . S
C4100 H4096 0.949 1_455 S
C4100 C4108 1.574 . S
C4100 C4116 1.368 . S
H4101 C4109 0.950 . S
H4102 C4107 0.950 . S
H4103 C4108 0.961 . S
H4104 C4110 0.950 . S
H4105 C4111 0.950 . S
H4106 C4112 0.949 . S
C4107 H4102 0.950 . S
C4107 C4109 1.327 . S
C4107 C4113 1.429 . S
C4108 C4100 1.574 . S
C4108 H4103 0.961 . S
C4108 C4114 1.368 . S
C4109 C4093 1.349 . S
C4109 H4101 0.950 . S
C4109 C4107 1.327 . S
C4110 C4098 1.349 1_655 S
C4110 H4104 0.950 . S
C4110 C4111 1.327 . S
C4111 H4105 0.950 . S
C4111 C4110 1.327 . S
C4111 C4115 1.429 1_655 S
C4112 C4095 1.574 . S
C4112 H4106 0.949 . S
C4112 C4116 1.368 . S
C4113 C4094 1.429 . S
C4113 C4107 1.429 . S
C4113 C4114 1.523 . S
C4114 C4095 1.368 . S
C4114 C4108 1.368 . S
C4114 C4113 1.523 . S
C4115 C4099 1.429 . S
C4115 C4111 1.429 1_455 S
C4115 C4116 1.523 . S
C4116 C4100 1.368 . S
C4116 C4112 1.368 . S
C4116 C4115 1.523 . S
H4117 C4092 0.950 . S
H4118 C4094 0.950 . S
H4119 C4095 0.949 . S
H4120 C4097 0.950 . S
H4121 C4099 0.950 . S
C4122 C4123 1.349 . S
C4122 C4124 1.327 . S
C4122 H4147 0.950 . S
C4123 C4122 1.349 . S
C4123 C4139 1.349 . S
C4124 C4122 1.327 . S
C4124 C4143 1.429 . S
C4124 H4148 0.950 . S
C4125 C4142 1.574 . S
C4125 C4144 1.368 . S
C4125 H4149 0.949 . S
H4126 C4130 0.949 . S
C4127 C4128 1.349 . S
C4127 C4129 1.327 . S
C4127 H4150 0.950 . S
C4128 C4127 1.349 . S
C4128 C4140 1.349 . S
C4129 C4127 1.327 . S
C4129 C4145 1.429 . S
C4129 H4151 0.950 . S
C4130 H4126 0.949 . S
C4130 C4138 1.574 . S
C4130 C4146 1.368 . S
H4131 C4139 0.950 . S
H4132 C4137 0.950 . S
H4133 C4138 0.949 . S
H4134 C4140 0.950 . S
H4135 C4141 0.950 . S
H4136 C4142 0.949 . S
C4137 H4132 0.950 . S
C4137 C4139 1.327 . S
C4137 C4143 1.429 . S
C4138 C4130 1.574 . S
C4138 H4133 0.949 . S
C4138 C4144 1.368 . S
C4139 C4123 1.349 . S
C4139 H4131 0.950 . S
C4139 C4137 1.327 . S
C4140 C4128 1.349 . S
C4140 H4134 0.950 . S
C4140 C4141 1.327 . S
C4141 H4135 0.950 . S
C4141 C4140 1.327 . S
C4141 C4145 1.429 . S
C4142 C4125 1.574 . S
C4142 H4136 0.949 . S
C4142 C4146 1.368 . S
C4143 C4124 1.429 . S
C4143 C4137 1.429 . S
C4143 C4144 1.523 . S
C4144 C4125 1.368 . S
C4144 C4138 1.368 . S
C4144 C4143 1.523 . S
C4145 C4129 1.429 . S
C4145 C4141 1.429 . S
C4145 C4146 1.523 . S
C4146 C4130 1.368 . S
C4146 C4142 1.368 . S
C4146 C4145 1.523 . S
H4147 C4122 0.950 . S
H4148 C4124 0.950 . S
H4149 C4125 0.949 . S
H4150 C4127 0.950 . S
H4151 C4129 0.950 . S
C4152 C4153 1.349 . S
C4152 C4154 1.327 . S
C4152 H4177 0.950 . S
C4153 C4152 1.349 . S
C4153 C4169 1.349 . S
C4154 C4152 1.327 . S
C4154 C4173 1.429 . S
C4154 H4178 0.950 . S
C4155 C4172 1.574 . S
C4155 C4174 1.368 . S
C4155 H4179 0.949 . S
H4156 C4160 0.949 . S
C4157 C4158 1.349 . S
C4157 C4159 1.327 . S
C4157 H4180 0.950 . S
C4158 C4157 1.349 . S
C4158 C4170 1.349 . S
C4159 C4157 1.327 . S
C4159 C4175 1.429 . S
C4159 H4181 0.950 . S
C4160 H4156 0.949 . S
C4160 C4168 1.574 . S
C4160 C4176 1.368 . S
H4161 C4169 0.950 . S
H4162 C4167 0.950 . S
H4163 C4168 0.949 . S
H4164 C4170 0.950 . S
H4165 C4171 0.950 . S
H4166 C4172 0.949 . S
C4167 H4162 0.950 . S
C4167 C4169 1.327 . S
C4167 C4173 1.429 . S
C4168 C4160 1.574 . S
C4168 H4163 0.949 . S
C4168 C4174 1.368 . S
C4169 C4153 1.349 . S
C4169 H4161 0.950 . S
C4169 C4167 1.327 . S
C4170 C4158 1.349 . S
C4170 H4164 0.950 . S
C4170 C4171 1.327 . S
C4171 H4165 0.950 . S
C4171 C4170 1.327 . S
C4171 C4175 1.429 . S
C4172 C4155 1.574 . S
C4172 H4166 0.949 . S
C4172 C4176 1.368 . S
C4173 C4154 1.429 . S
C4173 C4167 1.429 . S
C4173 C4174 1.523 . S
C4174 C4155 1.368 . S
C4174 C4168 1.368 . S
C4174 C4173 1.523 . S
C4175 C4159 1.429 . S
C4175 C4171 1.429 . S
C4175 C4176 1.523 . S
C4176 C4160 1.368 . S
C4176 C4172 1.368 . S
C4176 C4175 1.523 . S
H4177 C4152 0.950 . S
H4178 C4154 0.950 . S
H4179 C4155 0.949 . S
H4180 C4157 0.950 . S
H4181 C4159 0.950 . S
C4182 C4183 1.349 . S
C4182 C4184 1.327 . S
C4182 H4207 0.950 . S
C4183 C4182 1.349 . S
C4183 C4199 1.349 . S
C4184 C4182 1.327 . S
C4184 C4203 1.429 . S
C4184 H4208 0.950 . S
C4185 C4202 1.574 . S
C4185 C4204 1.368 . S
C4185 H4209 0.949 . S
H4186 C4190 0.949 . S
C4187 C4188 1.349 . S
C4187 C4189 1.327 . S
C4187 H4210 0.950 . S
C4188 C4187 1.349 . S
C4188 C4200 1.349 . S
C4189 C4187 1.327 . S
C4189 C4205 1.429 . S
C4189 H4211 0.950 . S
C4190 H4186 0.949 . S
C4190 C4198 1.574 . S
C4190 C4206 1.368 . S
H4191 C4199 0.950 . S
H4192 C4197 0.950 . S
H4193 C4198 0.949 . S
H4194 C4200 0.950 . S
H4195 C4201 0.950 . S
H4196 C4202 0.949 . S
C4197 H4192 0.950 . S
C4197 C4199 1.327 . S
C4197 C4203 1.429 . S
C4198 C4190 1.574 . S
C4198 H4193 0.949 . S
C4198 C4204 1.368 . S
C4199 C4183 1.349 . S
C4199 H4191 0.950 . S
C4199 C4197 1.327 . S
C4200 C4188 1.349 . S
C4200 H4194 0.950 . S
C4200 C4201 1.327 . S
C4201 H4195 0.950 . S
C4201 C4200 1.327 . S
C4201 C4205 1.429 . S
C4202 C4185 1.574 . S
C4202 H4196 0.949 . S
C4202 C4206 1.368 . S
C4203 C4184 1.429 . S
C4203 C4197 1.429 . S
C4203 C4204 1.523 . S
C4204 C4185 1.368 . S
C4204 C4198 1.368 . S
C4204 C4203 1.523 . S
C4205 C4189 1.429 . S
C4205 C4201 1.429 . S
C4205 C4206 1.523 . S
C4206 C4190 1.368 . S
C4206 C4202 1.368 . S
C4206 C4205 1.523 . S
H4207 C4182 0.950 . S
H4208 C4184 0.950 . S
H4209 C4185 0.949 . S
H4210 C4187 0.950 . S
H4211 C4189 0.950 . S
C4212 C4213 1.349 . S
C4212 C4214 1.327 . S
C4212 H4237 0.950 . S
C4213 C4212 1.349 . S
C4213 C4229 1.349 . S
C4214 C4212 1.327 . S
C4214 C4233 1.429 . S
C4214 H4238 0.950 . S
C4215 C4232 1.574 . S
C4215 C4234 1.368 . S
C4215 H4239 0.949 . S
H4216 C4220 0.949 . S
C4217 C4218 1.349 . S
C4217 C4219 1.327 . S
C4217 H4240 0.950 . S
C4218 C4217 1.349 . S
C4218 C4230 1.349 . S
C4219 C4217 1.327 . S
C4219 C4235 1.429 . S
C4219 H4241 0.950 . S
C4220 H4216 0.949 . S
C4220 C4228 1.574 . S
C4220 C4236 1.368 . S
H4221 C4229 0.950 . S
H4222 C4227 0.950 . S
H4223 C4228 0.949 . S
H4224 C4230 0.950 . S
H4225 C4231 0.950 . S
H4226 C4232 0.949 . S
C4227 H4222 0.950 . S
C4227 C4229 1.327 . S
C4227 C4233 1.429 . S
C4228 C4220 1.574 . S
C4228 H4223 0.949 . S
C4228 C4234 1.368 . S
C4229 C4213 1.349 . S
C4229 H4221 0.950 . S
C4229 C4227 1.327 . S
C4230 C4218 1.349 . S
C4230 H4224 0.950 . S
C4230 C4231 1.327 . S
C4231 H4225 0.950 . S
C4231 C4230 1.327 . S
C4231 C4235 1.429 . S
C4232 C4215 1.574 . S
C4232 H4226 0.949 . S
C4232 C4236 1.368 . S
C4233 C4214 1.429 . S
C4233 C4227 1.429 . S
C4233 C4234 1.523 . S
C4234 C4215 1.368 . S
C4234 C4228 1.368 . S
C4234 C4233 1.523 . S
C4235 C4219 1.429 . S
C4235 C4231 1.429 . S
C4235 C4236 1.523 . S
C4236 C4220 1.368 . S
C4236 C4232 1.368 . S
C4236 C4235 1.523 . S
H4237 C4212 0.950 . S
H4238 C4214 0.950 . S
H4239 C4215 0.949 . S
H4240 C4217 0.950 . S
H4241 C4219 0.950 . S
C4242 C4243 1.349 . S
C4242 C4244 1.327 . S
C4242 H4267 0.950 . S
C4243 C4242 1.349 . S
C4243 C4259 1.349 . S
C4244 C4242 1.327 . S
C4244 C4263 1.429 . S
C4244 H4268 0.950 . S
C4245 C4262 1.574 . S
C4245 C4264 1.368 . S
C4245 H4269 0.949 . S
H4246 C4250 0.949 . S
C4247 C4248 1.349 . S
C4247 C4249 1.327 . S
C4247 H4270 0.950 . S
C4248 C4247 1.349 . S
C4248 C4260 1.349 . S
C4249 C4247 1.327 . S
C4249 C4265 1.429 . S
C4249 H4271 0.950 . S
C4250 H4246 0.949 . S
C4250 C4258 1.574 . S
C4250 C4266 1.368 . S
H4251 C4259 0.950 . S
H4252 C4257 0.950 . S
H4253 C4258 0.949 . S
H4254 C4260 0.950 . S
H4255 C4261 0.950 . S
H4256 C4262 0.949 . S
C4257 H4252 0.950 . S
C4257 C4259 1.327 . S
C4257 C4263 1.429 . S
C4258 C4250 1.574 . S
C4258 H4253 0.949 . S
C4258 C4264 1.368 . S
C4259 C4243 1.349 . S
C4259 H4251 0.950 . S
C4259 C4257 1.327 . S
C4260 C4248 1.349 . S
C4260 H4254 0.950 . S
C4260 C4261 1.327 . S
C4261 H4255 0.950 . S
C4261 C4260 1.327 . S
C4261 C4265 1.429 . S
C4262 C4245 1.574 . S
C4262 H4256 0.949 . S
C4262 C4266 1.368 . S
C4263 C4244 1.429 . S
C4263 C4257 1.429 . S
C4263 C4264 1.523 . S
C4264 C4245 1.368 . S
C4264 C4258 1.368 . S
C4264 C4263 1.523 . S
C4265 C4249 1.429 . S
C4265 C4261 1.429 . S
C4265 C4266 1.523 . S
C4266 C4250 1.368 . S
C4266 C4262 1.368 . S
C4266 C4265 1.523 . S
H4267 C4242 0.950 . S
H4268 C4244 0.950 . S
H4269 C4245 0.949 . S
H4270 C4247 0.950 . S
H4271 C4249 0.950 . S
C4272 C4273 1.349 . S
C4272 C4274 1.327 . S
C4272 H4297 0.950 . S
C4273 C4272 1.349 . S
C4273 C4289 1.349 . S
C4274 C4272 1.327 . S
C4274 C4293 1.429 . S
C4274 H4298 0.950 . S
C4275 C4292 1.574 . S
C4275 C4294 1.368 . S
C4275 H4299 0.949 . S
H4276 C4280 0.949 . S
C4277 C4278 1.349 . S
C4277 C4279 1.327 . S
C4277 H4300 0.950 1_554 S
C4278 C4277 1.349 . S
C4278 C4290 1.349 . S
C4279 C4277 1.327 . S
C4279 C4295 1.429 . S
C4279 H4301 0.950 1_554 S
C4280 H4276 0.949 . S
C4280 C4288 1.574 . S
C4280 C4296 1.368 . S
H4281 C4289 0.950 . S
H4282 C4287 0.950 . S
H4283 C4288 0.949 . S
H4284 C4290 0.950 . S
H4285 C4291 0.950 . S
H4286 C4292 0.949 1_556 S
C4287 H4282 0.950 . S
C4287 C4289 1.327 . S
C4287 C4293 1.429 . S
C4288 C4280 1.574 . S
C4288 H4283 0.949 . S
C4288 C4294 1.368 . S
C4289 C4273 1.349 . S
C4289 H4281 0.950 . S
C4289 C4287 1.327 . S
C4290 C4278 1.349 . S
C4290 H4284 0.950 . S
C4290 C4291 1.327 . S
C4291 H4285 0.950 . S
C4291 C4290 1.327 . S
C4291 C4295 1.429 . S
C4292 C4275 1.574 . S
C4292 H4286 0.949 1_554 S
C4292 C4296 1.368 . S
C4293 C4274 1.429 . S
C4293 C4287 1.429 . S
C4293 C4294 1.523 . S
C4294 C4275 1.368 . S
C4294 C4288 1.368 . S
C4294 C4293 1.523 . S
C4295 C4279 1.429 . S
C4295 C4291 1.429 . S
C4295 C4296 1.523 . S
C4296 C4280 1.368 . S
C4296 C4292 1.368 . S
C4296 C4295 1.523 . S
H4297 C4272 0.950 . S
H4298 C4274 0.950 . S
H4299 C4275 0.949 . S
H4300 C4277 0.950 1_556 S
H4301 C4279 0.950 1_556 S
C4302 C4303 1.349 . S
C4302 C4304 1.327 . S
C4302 H4327 0.950 . S
C4303 C4302 1.349 . S
C4303 C4319 1.349 . S
C4304 C4302 1.327 . S
C4304 C4323 1.429 . S
C4304 H4328 0.950 . S
C4305 C4322 1.574 . S
C4305 C4324 1.368 . S
C4305 H4329 0.949 . S
H4306 C4310 0.949 . S
C4307 C4308 1.349 . S
C4307 C4309 1.327 . S
C4307 H4330 0.950 . S
C4308 C4307 1.349 . S
C4308 C4320 1.349 . S
C4309 C4307 1.327 . S
C4309 C4325 1.429 . S
C4309 H4331 0.950 . S
C4310 H4306 0.949 . S
C4310 C4318 1.574 . S
C4310 C4326 1.368 . S
H4311 C4319 0.950 . S
H4312 C4317 0.950 . S
H4313 C4318 0.949 . S
H4314 C4320 0.950 . S
H4315 C4321 0.950 . S
H4316 C4322 0.949 . S
C4317 H4312 0.950 . S
C4317 C4319 1.327 . S
C4317 C4323 1.429 . S
C4318 C4310 1.574 . S
C4318 H4313 0.949 . S
C4318 C4324 1.368 . S
C4319 C4303 1.349 . S
C4319 H4311 0.950 . S
C4319 C4317 1.327 . S
C4320 C4308 1.349 . S
C4320 H4314 0.950 . S
C4320 C4321 1.327 . S
C4321 H4315 0.950 . S
C4321 C4320 1.327 . S
C4321 C4325 1.429 . S
C4322 C4305 1.574 . S
C4322 H4316 0.949 . S
C4322 C4326 1.368 . S
C4323 C4304 1.429 . S
C4323 C4317 1.429 . S
C4323 C4324 1.523 . S
C4324 C4305 1.368 . S
C4324 C4318 1.368 . S
C4324 C4323 1.523 . S
C4325 C4309 1.429 . S
C4325 C4321 1.429 . S
C4325 C4326 1.523 . S
C4326 C4310 1.368 . S
C4326 C4322 1.368 . S
C4326 C4325 1.523 . S
H4327 C4302 0.950 . S
H4328 C4304 0.950 . S
H4329 C4305 0.949 . S
H4330 C4307 0.950 . S
H4331 C4309 0.950 . S
C4332 C4333 1.349 . S
C4332 C4334 1.327 . S
C4332 H4357 0.950 . S
C4333 C4332 1.349 . S
C4333 C4349 1.349 . S
C4334 C4332 1.327 . S
C4334 C4353 1.429 . S
C4334 H4358 0.950 . S
C4335 C4352 1.574 . S
C4335 C4354 1.368 . S
C4335 H4359 0.949 . S
H4336 C4340 0.949 . S
C4337 C4338 1.349 . S
C4337 C4339 1.327 . S
C4337 H4360 0.950 . S
C4338 C4337 1.349 . S
C4338 C4350 1.349 . S
C4339 C4337 1.327 . S
C4339 C4355 1.429 . S
C4339 H4361 0.950 . S
C4340 H4336 0.949 . S
C4340 C4348 1.574 . S
C4340 C4356 1.368 . S
H4341 C4349 0.950 . S
H4342 C4347 0.950 . S
H4343 C4348 0.949 . S
H4344 C4350 0.950 . S
H4345 C4351 0.950 . S
H4346 C4352 0.949 . S
C4347 H4342 0.950 . S
C4347 C4349 1.327 . S
C4347 C4353 1.429 . S
C4348 C4340 1.574 . S
C4348 H4343 0.949 . S
C4348 C4354 1.368 . S
C4349 C4333 1.349 . S
C4349 H4341 0.950 . S
C4349 C4347 1.327 . S
C4350 C4338 1.349 . S
C4350 H4344 0.950 . S
C4350 C4351 1.327 . S
C4351 H4345 0.950 . S
C4351 C4350 1.327 . S
C4351 C4355 1.429 . S
C4352 C4335 1.574 . S
C4352 H4346 0.949 . S
C4352 C4356 1.368 . S
C4353 C4334 1.429 . S
C4353 C4347 1.429 . S
C4353 C4354 1.523 . S
C4354 C4335 1.368 . S
C4354 C4348 1.368 . S
C4354 C4353 1.523 . S
C4355 C4339 1.429 . S
C4355 C4351 1.429 . S
C4355 C4356 1.523 . S
C4356 C4340 1.368 . S
C4356 C4352 1.368 . S
C4356 C4355 1.523 . S
H4357 C4332 0.950 . S
H4358 C4334 0.950 . S
H4359 C4335 0.949 . S
H4360 C4337 0.950 . S
H4361 C4339 0.950 . S
C4362 C4363 1.349 1_556 S
C4362 C4364 1.327 . S
C4362 H4387 0.950 . S
C4363 C4362 1.349 1_554 S
C4363 C4379 1.349 . S
C4364 C4362 1.327 . S
C4364 C4383 1.429 1_556 S
C4364 H4388 0.950 . S
C4365 C4382 1.574 . S
C4365 C4384 1.368 . S
C4365 H4389 0.949 . S
H4366 C4370 0.949 . S
C4367 C4368 1.349 . S
C4367 C4369 1.327 . S
C4367 H4390 0.950 . S
C4368 C4367 1.349 . S
C4368 C4380 1.349 . S
C4369 C4367 1.327 . S
C4369 C4385 1.429 . S
C4369 H4391 0.950 . S
C4370 H4366 0.949 . S
C4370 C4378 1.574 . S
C4370 C4386 1.368 . S
H4371 C4379 0.950 . S
H4372 C4377 0.950 . S
H4373 C4378 0.949 1_556 S
H4374 C4380 0.950 . S
H4375 C4381 0.950 . S
H4376 C4382 0.949 . S
C4377 H4372 0.950 . S
C4377 C4379 1.327 . S
C4377 C4383 1.429 . S
C4378 C4370 1.574 . S
C4378 H4373 0.949 1_554 S
C4378 C4384 1.368 . S
C4379 C4363 1.349 . S
C4379 H4371 0.950 . S
C4379 C4377 1.327 . S
C4380 C4368 1.349 . S
C4380 H4374 0.950 . S
C4380 C4381 1.327 . S
C4381 H4375 0.950 . S
C4381 C4380 1.327 . S
C4381 C4385 1.429 . S
C4382 C4365 1.574 . S
C4382 H4376 0.949 . S
C4382 C4386 1.368 . S
C4383 C4364 1.429 1_554 S
C4383 C4377 1.429 . S
C4383 C4384 1.523 . S
C4384 C4365 1.368 . S
C4384 C4378 1.368 . S
C4384 C4383 1.523 . S
C4385 C4369 1.429 . S
C4385 C4381 1.429 . S
C4385 C4386 1.523 . S
C4386 C4370 1.368 . S
C4386 C4382 1.368 . S
C4386 C4385 1.523 . S
H4387 C4362 0.950 . S
H4388 C4364 0.950 . S
H4389 C4365 0.949 . S
H4390 C4367 0.950 . S
H4391 C4369 0.950 . S
C4392 C4393 1.349 . S
C4392 C4394 1.327 . S
C4392 H4417 0.950 . S
C4393 C4392 1.349 . S
C4393 C4409 1.349 . S
C4394 C4392 1.327 . S
C4394 C4413 1.429 . S
C4394 H4418 0.950 . S
C4395 C4412 1.574 . S
C4395 C4414 1.368 . S
C4395 H4419 0.949 . S
H4396 C4400 0.949 . S
C4397 C4398 1.349 . S
C4397 C4399 1.327 . S
C4397 H4420 0.950 . S
C4398 C4397 1.349 . S
C4398 C4410 1.349 . S
C4399 C4397 1.327 . S
C4399 C4415 1.429 . S
C4399 H4421 0.950 . S
C4400 H4396 0.949 . S
C4400 C4408 1.574 . S
C4400 C4416 1.368 . S
H4401 C4409 0.950 . S
H4402 C4407 0.950 . S
H4403 C4408 0.949 . S
H4404 C4410 0.950 . S
H4405 C4411 0.950 . S
H4406 C4412 0.949 . S
C4407 H4402 0.950 . S
C4407 C4409 1.327 . S
C4407 C4413 1.429 . S
C4408 C4400 1.574 . S
C4408 H4403 0.949 . S
C4408 C4414 1.368 . S
C4409 C4393 1.349 . S
C4409 H4401 0.950 . S
C4409 C4407 1.327 . S
C4410 C4398 1.349 . S
C4410 H4404 0.950 . S
C4410 C4411 1.327 . S
C4411 H4405 0.950 . S
C4411 C4410 1.327 . S
C4411 C4415 1.429 . S
C4412 C4395 1.574 . S
C4412 H4406 0.949 . S
C4412 C4416 1.368 . S
C4413 C4394 1.429 . S
C4413 C4407 1.429 . S
C4413 C4414 1.523 1_556 S
C4414 C4395 1.368 . S
C4414 C4408 1.368 . S
C4414 C4413 1.523 1_554 S
C4415 C4399 1.429 . S
C4415 C4411 1.429 . S
C4415 C4416 1.523 . S
C4416 C4400 1.368 . S
C4416 C4412 1.368 . S
C4416 C4415 1.523 . S
H4417 C4392 0.950 . S
H4418 C4394 0.950 . S
H4419 C4395 0.949 . S
H4420 C4397 0.950 . S
H4421 C4399 0.950 . S
C4422 C4423 1.349 . S
C4422 C4424 1.327 . S
C4422 H4447 0.950 . S
C4423 C4422 1.349 . S
C4423 C4439 1.349 . S
C4424 C4422 1.327 . S
C4424 C4443 1.443 . S
C4424 H4448 0.950 . S
C4425 C4442 1.574 . S
C4425 C4444 1.368 . S
C4425 H4449 0.949 . S
H4426 C4430 0.949 . S
C4427 C4428 1.349 . S
C4427 C4429 1.327 . S
C4427 H4450 0.950 . S
C4428 C4427 1.349 . S
C4428 C4440 1.349 . S
C4429 C4427 1.327 . S
C4429 C4445 1.429 . S
C4429 H4451 0.950 . S
C4430 H4426 0.949 . S
C4430 C4438 1.574 . S
C4430 C4446 1.368 . S
H4431 C4439 0.950 . S
H4432 C4437 0.950 . S
H4433 C4438 0.949 . S
H4434 C4440 0.950 . S
H4435 C4441 0.950 . S
H4436 C4442 0.949 . S
C4437 H4432 0.950 . S
C4437 C4439 1.327 . S
C4437 C4443 1.444 . S
C4438 C4430 1.574 . S
C4438 H4433 0.949 . S
C4438 C4444 1.368 . S
C4439 C4423 1.349 . S
C4439 H4431 0.950 . S
C4439 C4437 1.327 . S
C4440 C4428 1.349 . S
C4440 H4434 0.950 . S
C4440 C4441 1.327 . S
C4441 H4435 0.950 . S
C4441 C4440 1.327 . S
C4441 C4445 1.429 . S
C4442 C4425 1.574 . S
C4442 H4436 0.949 . S
C4442 C4446 1.368 . S
C4443 C4424 1.443 . S
C4443 C4437 1.444 . S
C4443 C4444 1.495 1_556 S
C4444 C4425 1.368 . S
C4444 C4438 1.368 . S
C4444 C4443 1.495 1_554 S
C4445 C4429 1.429 . S
C4445 C4441 1.429 . S
C4445 C4446 1.523 . S
C4446 C4430 1.368 . S
C4446 C4442 1.368 . S
C4446 C4445 1.523 . S
H4447 C4422 0.950 . S
H4448 C4424 0.950 . S
H4449 C4425 0.949 . S
H4450 C4427 0.950 . S
H4451 C4429 0.950 . S
C4452 C4453 1.349 . S
C4452 C4454 1.327 . S
C4452 H4477 0.950 . S
C4453 C4452 1.349 . S
C4453 C4469 1.349 . S
C4454 C4452 1.327 . S
C4454 C4473 1.429 . S
C4454 H4478 0.950 . S
C4455 C4472 1.574 . S
C4455 C4474 1.368 . S
C4455 H4479 0.949 . S
H4456 C4460 0.949 . S
C4457 C4458 1.349 . S
C4457 C4459 1.327 . S
C4457 H4480 0.950 . S
C4458 C4457 1.349 . S
C4458 C4470 1.349 . S
C4459 C4457 1.327 . S
C4459 C4475 1.429 . S
C4459 H4481 0.950 . S
C4460 H4456 0.949 . S
C4460 C4468 1.574 . S
C4460 C4476 1.368 . S
H4461 C4469 0.950 . S
H4462 C4467 0.950 . S
H4463 C4468 0.949 . S
H4464 C4470 0.950 . S
H4465 C4471 0.950 . S
H4466 C4472 0.949 . S
C4467 H4462 0.950 . S
C4467 C4469 1.327 . S
C4467 C4473 1.429 . S
C4468 C4460 1.574 . S
C4468 H4463 0.949 . S
C4468 C4474 1.368 . S
C4469 C4453 1.349 . S
C4469 H4461 0.950 . S
C4469 C4467 1.327 . S
C4470 C4458 1.349 . S
C4470 H4464 0.950 . S
C4470 C4471 1.327 . S
C4471 H4465 0.950 . S
C4471 C4470 1.327 . S
C4471 C4475 1.429 . S
C4472 C4455 1.574 . S
C4472 H4466 0.949 . S
C4472 C4476 1.368 . S
C4473 C4454 1.429 . S
C4473 C4467 1.429 . S
C4473 C4474 1.523 1_556 S
C4474 C4455 1.368 . S
C4474 C4468 1.368 . S
C4474 C4473 1.523 1_554 S
C4475 C4459 1.429 . S
C4475 C4471 1.429 . S
C4475 C4476 1.523 . S
C4476 C4460 1.368 . S
C4476 C4472 1.368 . S
C4476 C4475 1.523 . S
H4477 C4452 0.950 . S
H4478 C4454 0.950 . S
H4479 C4455 0.949 . S
H4480 C4457 0.950 . S
H4481 C4459 0.950 . S
C4482 C4483 1.349 . S
C4482 C4484 1.327 . S
C4482 H4507 0.950 . S
C4483 C4482 1.349 . S
C4483 C4499 1.349 . S
C4484 C4482 1.327 . S
C4484 C4503 1.429 . S
C4484 H4508 0.950 . S
C4485 C4502 1.574 . S
C4485 C4504 1.368 . S
C4485 H4509 0.949 . S
H4486 C4490 0.949 . S
C4487 C4488 1.349 . S
C4487 C4489 1.327 . S
C4487 H4510 0.950 . S
C4488 C4487 1.349 . S
C4488 C4500 1.349 . S
C4489 C4487 1.327 . S
C4489 C4505 1.429 . S
C4489 H4511 0.950 . S
C4490 H4486 0.949 . S
C4490 C4498 1.574 . S
C4490 C4506 1.368 . S
H4491 C4499 0.950 . S
H4492 C4497 0.950 . S
H4493 C4498 0.949 . S
H4494 C4500 0.950 . S
H4495 C4501 0.950 . S
H4496 C4502 0.949 . S
C4497 H4492 0.950 . S
C4497 C4499 1.327 . S
C4497 C4503 1.429 . S
C4498 C4490 1.574 . S
C4498 H4493 0.949 . S
C4498 C4504 1.368 . S
C4499 C4483 1.349 . S
C4499 H4491 0.950 . S
C4499 C4497 1.327 . S
C4500 C4488 1.349 . S
C4500 H4494 0.950 . S
C4500 C4501 1.327 . S
C4501 H4495 0.950 . S
C4501 C4500 1.327 . S
C4501 C4505 1.429 . S
C4502 C4485 1.574 . S
C4502 H4496 0.949 . S
C4502 C4506 1.368 . S
C4503 C4484 1.429 . S
C4503 C4497 1.429 . S
C4503 C4504 1.523 1_556 S
C4504 C4485 1.368 . S
C4504 C4498 1.368 . S
C4504 C4503 1.523 1_554 S
C4505 C4489 1.429 . S
C4505 C4501 1.429 . S
C4505 C4506 1.523 . S
C4506 C4490 1.368 . S
C4506 C4502 1.368 . S
C4506 C4505 1.523 . S
H4507 C4482 0.950 . S
H4508 C4484 0.950 . S
H4509 C4485 0.949 . S
H4510 C4487 0.950 . S
H4511 C4489 0.950 . S
C4512 C4513 1.349 . S
C4512 C4514 1.327 1_655 S
C4512 H4537 0.950 . S
C4513 C4512 1.349 . S
C4513 C4529 1.349 . S
C4514 C4512 1.327 1_455 S
C4514 C4533 1.429 . S
C4514 H4538 0.950 . S
C4515 C4532 1.574 . S
C4515 C4534 1.368 . S
C4515 H4539 0.949 . S
H4516 C4520 0.949 . S
C4517 C4518 1.349 . S
C4517 C4519 1.327 . S
C4517 H4540 0.950 . S
C4518 C4517 1.349 . S
C4518 C4530 1.349 . S
C4519 C4517 1.327 . S
C4519 C4535 1.429 . S
C4519 H4541 0.950 . S
C4520 H4516 0.949 . S
C4520 C4528 1.574 . S
C4520 C4536 1.368 . S
H4521 C4529 0.950 . S
H4522 C4527 0.950 . S
H4523 C4528 0.949 . S
H4524 C4530 0.950 . S
H4525 C4531 0.950 . S
H4526 C4532 0.949 . S
C4527 H4522 0.950 . S
C4527 C4529 1.327 1_455 S
C4527 C4533 1.429 . S
C4528 C4520 1.574 . S
C4528 H4523 0.949 . S
C4528 C4534 1.368 . S
C4529 C4513 1.349 . S
C4529 H4521 0.950 . S
C4529 C4527 1.327 1_655 S
C4530 C4518 1.349 . S
C4530 H4524 0.950 . S
C4530 C4531 1.327 . S
C4531 H4525 0.950 . S
C4531 C4530 1.327 . S
C4531 C4535 1.429 . S
C4532 C4515 1.574 . S
C4532 H4526 0.949 . S
C4532 C4536 1.368 . S
C4533 C4514 1.429 . S
C4533 C4527 1.429 . S
C4533 C4534 1.523 . S
C4534 C4515 1.368 . S
C4534 C4528 1.368 . S
C4534 C4533 1.523 . S
C4535 C4519 1.429 . S
C4535 C4531 1.429 . S
C4535 C4536 1.523 . S
C4536 C4520 1.368 . S
C4536 C4532 1.368 . S
C4536 C4535 1.523 . S
H4537 C4512 0.950 . S
H4538 C4514 0.950 . S
H4539 C4515 0.949 . S
H4540 C4517 0.950 . S
H4541 C4519 0.950 . S
C4542 C4543 1.349 . S
C4542 C4544 1.327 . S
C4542 H4567 0.950 . S
C4543 C4542 1.349 . S
C4543 C4559 1.349 . S
C4544 C4542 1.327 . S
C4544 C4563 1.429 . S
C4544 H4568 0.950 . S
C4545 C4562 1.574 . S
C4545 C4564 1.368 . S
C4545 H4569 0.949 . S
H4546 C4550 0.949 . S
C4547 C4548 1.349 . S
C4547 C4549 1.327 . S
C4547 H4570 0.950 . S
C4548 C4547 1.349 . S
C4548 C4560 1.349 . S
C4549 C4547 1.327 . S
C4549 C4565 1.429 . S
C4549 H4571 0.950 . S
C4550 H4546 0.949 . S
C4550 C4558 1.574 . S
C4550 C4566 1.368 . S
H4551 C4559 0.950 . S
H4552 C4557 0.950 . S
H4553 C4558 0.949 . S
H4554 C4560 0.950 . S
H4555 C4561 0.950 . S
H4556 C4562 0.949 . S
C4557 H4552 0.950 . S
C4557 C4559 1.327 . S
C4557 C4563 1.429 . S
C4558 C4550 1.574 . S
C4558 H4553 0.949 . S
C4558 C4564 1.368 . S
C4559 C4543 1.349 . S
C4559 H4551 0.950 . S
C4559 C4557 1.327 . S
C4560 C4548 1.349 . S
C4560 H4554 0.950 . S
C4560 C4561 1.327 . S
C4561 H4555 0.950 . S
C4561 C4560 1.327 . S
C4561 C4565 1.429 . S
C4562 C4545 1.574 . S
C4562 H4556 0.949 . S
C4562 C4566 1.368 . S
C4563 C4544 1.429 . S
C4563 C4557 1.429 . S
C4563 C4564 1.523 1_565 S
C4564 C4545 1.368 . S
C4564 C4558 1.368 . S
C4564 C4563 1.523 1_545 S
C4565 C4549 1.429 . S
C4565 C4561 1.429 . S
C4565 C4566 1.523 . S
C4566 C4550 1.368 . S
C4566 C4562 1.368 . S
C4566 C4565 1.523 . S
H4567 C4542 0.950 . S
H4568 C4544 0.950 . S
H4569 C4545 0.949 . S
H4570 C4547 0.950 . S
H4571 C4549 0.950 . S
C4572 C4573 1.349 . S
C4572 C4574 1.327 . S
C4572 H4597 0.950 . S
C4573 C4572 1.349 . S
C4573 C4589 1.349 . S
C4574 C4572 1.327 . S
C4574 C4593 1.429 . S
C4574 H4598 0.950 . S
C4575 C4592 1.574 . S
C4575 C4594 1.368 . S
C4575 H4599 0.949 . S
H4576 C4580 0.949 . S
C4577 C4578 1.349 . S
C4577 C4579 1.327 . S
C4577 H4600 0.950 . S
C4578 C4577 1.349 . S
C4578 C4590 1.349 . S
C4579 C4577 1.327 . S
C4579 C4595 1.429 . S
C4579 H4601 0.950 . S
C4580 H4576 0.949 . S
C4580 C4588 1.574 . S
C4580 C4596 1.368 . S
H4581 C4589 0.950 . S
H4582 C4587 0.950 . S
H4583 C4588 0.949 . S
H4584 C4590 0.950 . S
H4585 C4591 0.950 . S
H4586 C4592 0.949 . S
C4587 H4582 0.950 . S
C4587 C4589 1.327 . S
C4587 C4593 1.429 . S
C4588 C4580 1.574 . S
C4588 H4583 0.949 . S
C4588 C4594 1.368 . S
C4589 C4573 1.349 . S
C4589 H4581 0.950 . S
C4589 C4587 1.327 . S
C4590 C4578 1.349 . S
C4590 H4584 0.950 . S
C4590 C4591 1.327 . S
C4591 H4585 0.950 . S
C4591 C4590 1.327 . S
C4591 C4595 1.429 . S
C4592 C4575 1.574 . S
C4592 H4586 0.949 . S
C4592 C4596 1.368 . S
C4593 C4574 1.429 . S
C4593 C4587 1.429 . S
C4593 C4594 1.523 1_655 S
C4594 C4575 1.368 . S
C4594 C4588 1.368 . S
C4594 C4593 1.523 1_455 S
C4595 C4579 1.429 . S
C4595 C4591 1.429 . S
C4595 C4596 1.523 . S
C4596 C4580 1.368 . S
C4596 C4592 1.368 . S
C4596 C4595 1.523 . S
H4597 C4572 0.950 . S
H4598 C4574 0.950 . S
H4599 C4575 0.949 . S
H4600 C4577 0.950 . S
H4601 C4579 0.950 . S
C4602 C4603 1.349 . S
C4602 C4604 1.327 . S
C4602 H4627 0.950 . S
C4603 C4602 1.349 . S
C4603 C4619 1.349 . S
C4604 C4602 1.327 . S
C4604 C4623 1.429 . S
C4604 H4628 0.950 . S
C4605 C4622 1.574 . S
C4605 C4624 1.368 . S
C4605 H4629 0.949 . S
H4606 C4610 0.949 . S
C4607 C4608 1.338 1_545 S
C4607 C4609 1.353 . S
C4607 H4630 0.935 1_545 S
C4608 C4607 1.338 1_565 S
C4608 C4620 1.349 1_565 S
C4609 C4607 1.353 . S
C4609 C4625 1.429 . S
C4609 H4631 0.950 . S
C4610 H4606 0.949 . S
C4610 C4618 1.574 . S
C4610 C4626 1.368 . S
H4611 C4619 0.950 . S
H4612 C4617 0.950 . S
H4613 C4618 0.949 . S
H4614 C4620 0.950 1_565 S
H4615 C4621 0.950 . S
H4616 C4622 0.949 . S
C4617 H4612 0.950 . S
C4617 C4619 1.327 . S
C4617 C4623 1.429 . S
C4618 C4610 1.574 . S
C4618 H4613 0.949 . S
C4618 C4624 1.368 . S
C4619 C4603 1.349 . S
C4619 H4611 0.950 . S
C4619 C4617 1.327 . S
C4620 C4608 1.349 1_545 S
C4620 H4614 0.950 1_545 S
C4620 C4621 1.327 . S
C4621 H4615 0.950 . S
C4621 C4620 1.327 . S
C4621 C4625 1.429 . S
C4622 C4605 1.574 . S
C4622 H4616 0.949 . S
C4622 C4626 1.368 . S
C4623 C4604 1.429 . S
C4623 C4617 1.429 . S
C4623 C4624 1.523 . S
C4624 C4605 1.368 . S
C4624 C4618 1.368 . S
C4624 C4623 1.523 . S
C4625 C4609 1.429 . S
C4625 C4621 1.429 . S
C4625 C4626 1.523 . S
C4626 C4610 1.368 . S
C4626 C4622 1.368 . S
C4626 C4625 1.523 . S
H4627 C4602 0.950 . S
H4628 C4604 0.950 . S
H4629 C4605 0.949 . S
H4630 C4607 0.935 1_565 S
H4631 C4609 0.950 . S
C4632 C4633 1.349 . S
C4632 C4634 1.327 . S
C4632 H4657 0.950 . S
C4633 C4632 1.349 . S
C4633 C4649 1.349 . S
C4634 C4632 1.327 . S
C4634 C4653 1.429 . S
C4634 H4658 0.950 . S
C4635 C4652 1.574 1_565 S
C4635 C4654 1.368 . S
C4635 H4659 0.949 . S
H4636 C4640 0.949 . S
C4637 C4638 1.349 . S
C4637 C4639 1.327 . S
C4637 H4660 0.950 . S
C4638 C4637 1.349 . S
C4638 C4650 1.349 . S
C4639 C4637 1.327 . S
C4639 C4655 1.429 . S
C4639 H4661 0.950 . S
C4640 H4636 0.949 . S
C4640 C4648 1.574 1_545 S
C4640 C4656 1.368 . S
H4641 C4649 0.950 . S
H4642 C4647 0.950 . S
H4643 C4648 0.949 . S
H4644 C4650 0.950 . S
H4645 C4651 0.950 . S
H4646 C4652 0.949 . S
C4647 H4642 0.950 . S
C4647 C4649 1.327 . S
C4647 C4653 1.429 . S
C4648 C4640 1.574 1_565 S
C4648 H4643 0.949 . S
C4648 C4654 1.368 . S
C4649 C4633 1.349 . S
C4649 H4641 0.950 . S
C4649 C4647 1.327 . S
C4650 C4638 1.349 . S
C4650 H4644 0.950 . S
C4650 C4651 1.327 . S
C4651 H4645 0.950 . S
C4651 C4650 1.327 . S
C4651 C4655 1.429 . S
C4652 C4635 1.574 1_545 S
C4652 H4646 0.949 . S
C4652 C4656 1.368 . S
C4653 C4634 1.429 . S
C4653 C4647 1.429 . S
C4653 C4654 1.523 . S
C4654 C4635 1.368 . S
C4654 C4648 1.368 . S
C4654 C4653 1.523 . S
C4655 C4639 1.429 . S
C4655 C4651 1.429 . S
C4655 C4656 1.523 . S
C4656 C4640 1.368 . S
C4656 C4652 1.368 . S
C4656 C4655 1.523 . S
H4657 C4632 0.950 . S
H4658 C4634 0.950 . S
H4659 C4635 0.949 . S
H4660 C4637 0.950 . S
H4661 C4639 0.950 . S
C4662 C4663 1.349 . S
C4662 C4664 1.327 . S
C4662 H4687 0.950 . S
C4663 C4662 1.349 . S
C4663 C4679 1.349 . S
C4664 C4662 1.327 . S
C4664 C4683 1.429 . S
C4664 H4688 0.950 . S
C4665 C4682 1.574 . S
C4665 C4684 1.368 . S
C4665 H4689 0.949 . S
H4666 C4670 0.949 1_655 S
C4667 C4668 1.349 . S
C4667 C4669 1.327 . S
C4667 H4690 0.950 . S
C4668 C4667 1.349 . S
C4668 C4680 1.349 . S
C4669 C4667 1.327 . S
C4669 C4685 1.429 . S
C4669 H4691 0.950 . S
C4670 H4666 0.949 1_455 S
C4670 C4678 1.574 . S
C4670 C4686 1.369 . S
H4671 C4679 0.950 . S
H4672 C4677 0.950 . S
H4673 C4678 0.949 . S
H4674 C4680 0.950 . S
H4675 C4681 0.950 . S
H4676 C4682 0.949 . S
C4677 H4672 0.950 . S
C4677 C4679 1.327 . S
C4677 C4683 1.429 . S
C4678 C4670 1.574 . S
C4678 H4673 0.949 . S
C4678 C4684 1.368 . S
C4679 C4663 1.349 . S
C4679 H4671 0.950 . S
C4679 C4677 1.327 . S
C4680 C4668 1.349 . S
C4680 H4674 0.950 . S
C4680 C4681 1.327 . S
C4681 H4675 0.950 . S
C4681 C4680 1.327 . S
C4681 C4685 1.429 . S
C4682 C4665 1.574 . S
C4682 H4676 0.949 . S
C4682 C4686 1.369 . S
C4683 C4664 1.429 . S
C4683 C4677 1.429 . S
C4683 C4684 1.523 . S
C4684 C4665 1.368 . S
C4684 C4678 1.368 . S
C4684 C4683 1.523 . S
C4685 C4669 1.429 . S
C4685 C4681 1.429 . S
C4685 C4686 1.522 1_655 S
C4686 C4670 1.369 . S
C4686 C4682 1.369 . S
C4686 C4685 1.522 1_455 S
H4687 C4662 0.950 . S
H4688 C4664 0.950 . S
H4689 C4665 0.949 . S
H4690 C4667 0.950 . S
H4691 C4669 0.950 . S
C4692 C4693 1.349 . S
C4692 C4694 1.327 . S
C4692 H4717 0.950 . S
C4693 C4692 1.349 . S
C4693 C4709 1.349 . S
C4694 C4692 1.327 . S
C4694 C4713 1.429 . S
C4694 H4718 0.950 . S
C4695 C4712 1.574 . S
C4695 C4714 1.368 . S
C4695 H4719 0.949 . S
H4696 C4700 0.949 . S
C4697 C4698 1.349 . S
C4697 C4699 1.327 . S
C4697 H4720 0.950 . S
C4698 C4697 1.349 . S
C4698 C4710 1.349 . S
C4699 C4697 1.327 . S
C4699 C4715 1.429 . S
C4699 H4721 0.950 . S
C4700 H4696 0.949 . S
C4700 C4708 1.574 . S
C4700 C4716 1.368 . S
H4701 C4709 0.950 . S
H4702 C4707 0.950 . S
H4703 C4708 0.949 . S
H4704 C4710 0.950 . S
H4705 C4711 0.950 . S
H4706 C4712 0.949 . S
C4707 H4702 0.950 . S
C4707 C4709 1.327 . S
C4707 C4713 1.429 . S
C4708 C4700 1.574 . S
C4708 H4703 0.949 . S
C4708 C4714 1.368 . S
C4709 C4693 1.349 . S
C4709 H4701 0.950 . S
C4709 C4707 1.327 . S
C4710 C4698 1.349 . S
C4710 H4704 0.950 . S
C4710 C4711 1.327 . S
C4711 H4705 0.950 . S
C4711 C4710 1.327 . S
C4711 C4715 1.429 . S
C4712 C4695 1.574 . S
C4712 H4706 0.949 . S
C4712 C4716 1.368 . S
C4713 C4694 1.429 . S
C4713 C4707 1.429 . S
C4713 C4714 1.523 . S
C4714 C4695 1.368 . S
C4714 C4708 1.368 . S
C4714 C4713 1.523 . S
C4715 C4699 1.429 . S
C4715 C4711 1.429 . S
C4715 C4716 1.523 . S
C4716 C4700 1.368 . S
C4716 C4712 1.368 . S
C4716 C4715 1.523 . S
H4717 C4692 0.950 . S
H4718 C4694 0.950 . S
H4719 C4695 0.949 . S
H4720 C4697 0.950 . S
H4721 C4699 0.950 . S
C4722 C4723 1.349 . S
C4722 C4724 1.327 . S
C4722 H4747 0.950 . S
C4723 C4722 1.349 . S
C4723 C4739 1.349 . S
C4724 C4722 1.327 . S
C4724 C4743 1.429 . S
C4724 H4748 0.950 . S
C4725 C4742 1.574 . S
C4725 C4744 1.368 . S
C4725 H4749 0.949 . S
H4726 C4730 0.949 . S
C4727 C4728 1.349 1_455 S
C4727 C4729 1.327 . S
C4727 H4750 0.964 . S
C4728 C4727 1.349 1_655 S
C4728 C4740 1.349 1_655 S
C4729 C4727 1.327 . S
C4729 C4745 1.429 . S
C4729 H4751 0.950 . S
C4730 H4726 0.949 . S
C4730 C4738 1.574 . S
C4730 C4746 1.368 . S
H4731 C4739 0.950 . S
H4732 C4737 0.950 . S
H4733 C4738 0.949 . S
H4734 C4740 0.950 1_655 S
H4735 C4741 0.950 . S
H4736 C4742 0.949 . S
C4737 H4732 0.950 . S
C4737 C4739 1.327 . S
C4737 C4743 1.429 . S
C4738 C4730 1.574 . S
C4738 H4733 0.949 . S
C4738 C4744 1.368 . S
C4739 C4723 1.349 . S
C4739 H4731 0.950 . S
C4739 C4737 1.327 . S
C4740 C4728 1.349 1_455 S
C4740 H4734 0.950 1_455 S
C4740 C4741 1.327 . S
C4741 H4735 0.950 . S
C4741 C4740 1.327 . S
C4741 C4745 1.429 . S
C4742 C4725 1.574 . S
C4742 H4736 0.949 . S
C4742 C4746 1.368 . S
C4743 C4724 1.429 . S
C4743 C4737 1.429 . S
C4743 C4744 1.523 . S
C4744 C4725 1.368 . S
C4744 C4738 1.368 . S
C4744 C4743 1.523 . S
C4745 C4729 1.429 . S
C4745 C4741 1.429 . S
C4745 C4746 1.523 . S
C4746 C4730 1.368 . S
C4746 C4742 1.368 . S
C4746 C4745 1.523 . S
H4747 C4722 0.950 . S
H4748 C4724 0.950 . S
H4749 C4725 0.949 . S
H4750 C4727 0.964 . S
H4751 C4729 0.950 . S
C4752 C4753 1.349 . S
C4752 C4754 1.327 . S
C4752 H4777 0.950 . S
C4753 C4752 1.349 . S
C4753 C4769 1.349 . S
C4754 C4752 1.327 . S
C4754 C4773 1.429 . S
C4754 H4778 0.950 . S
C4755 C4772 1.574 . S
C4755 C4774 1.368 . S
C4755 H4779 0.949 . S
H4756 C4760 0.949 . S
C4757 C4758 1.349 . S
C4757 C4759 1.327 . S
C4757 H4780 0.950 . S
C4758 C4757 1.349 . S
C4758 C4770 1.349 . S
C4759 C4757 1.327 . S
C4759 C4775 1.429 . S
C4759 H4781 0.950 . S
C4760 H4756 0.949 . S
C4760 C4768 1.574 . S
C4760 C4776 1.368 . S
H4761 C4769 0.950 . S
H4762 C4767 0.950 . S
H4763 C4768 0.949 . S
H4764 C4770 0.950 . S
H4765 C4771 0.950 . S
H4766 C4772 0.949 . S
C4767 H4762 0.950 . S
C4767 C4769 1.327 . S
C4767 C4773 1.429 . S
C4768 C4760 1.574 . S
C4768 H4763 0.949 . S
C4768 C4774 1.368 . S
C4769 C4753 1.349 . S
C4769 H4761 0.950 . S
C4769 C4767 1.327 . S
C4770 C4758 1.349 . S
C4770 H4764 0.950 . S
C4770 C4771 1.327 . S
C4771 H4765 0.950 . S
C4771 C4770 1.327 . S
C4771 C4775 1.429 . S
C4772 C4755 1.574 . S
C4772 H4766 0.949 . S
C4772 C4776 1.368 . S
C4773 C4754 1.429 . S
C4773 C4767 1.429 . S
C4773 C4774 1.523 . S
C4774 C4755 1.368 . S
C4774 C4768 1.368 . S
C4774 C4773 1.523 . S
C4775 C4759 1.429 . S
C4775 C4771 1.429 . S
C4775 C4776 1.523 . S
C4776 C4760 1.368 . S
C4776 C4772 1.368 . S
C4776 C4775 1.523 . S
H4777 C4752 0.950 . S
H4778 C4754 0.950 . S
H4779 C4755 0.949 . S
H4780 C4757 0.950 . S
H4781 C4759 0.950 . S
C4782 C4783 1.349 . S
C4782 C4784 1.327 . S
C4782 H4807 0.950 . S
C4783 C4782 1.349 . S
C4783 C4799 1.349 . S
C4784 C4782 1.327 . S
C4784 C4803 1.429 . S
C4784 H4808 0.950 . S
C4785 C4802 1.574 . S
C4785 C4804 1.368 . S
C4785 H4809 0.949 . S
H4786 C4790 0.949 . S
C4787 C4788 1.349 . S
C4787 C4789 1.327 . S
C4787 H4810 0.950 . S
C4788 C4787 1.349 . S
C4788 C4800 1.349 . S
C4789 C4787 1.327 . S
C4789 C4805 1.429 . S
C4789 H4811 0.950 . S
C4790 H4786 0.949 . S
C4790 C4798 1.574 . S
C4790 C4806 1.368 . S
H4791 C4799 0.950 . S
H4792 C4797 0.950 . S
H4793 C4798 0.949 . S
H4794 C4800 0.950 . S
H4795 C4801 0.950 . S
H4796 C4802 0.949 . S
C4797 H4792 0.950 . S
C4797 C4799 1.327 . S
C4797 C4803 1.429 . S
C4798 C4790 1.574 . S
C4798 H4793 0.949 . S
C4798 C4804 1.368 . S
C4799 C4783 1.349 . S
C4799 H4791 0.950 . S
C4799 C4797 1.327 . S
C4800 C4788 1.349 . S
C4800 H4794 0.950 . S
C4800 C4801 1.327 . S
C4801 H4795 0.950 . S
C4801 C4800 1.327 . S
C4801 C4805 1.429 . S
C4802 C4785 1.574 . S
C4802 H4796 0.949 . S
C4802 C4806 1.368 . S
C4803 C4784 1.429 . S
C4803 C4797 1.429 . S
C4803 C4804 1.523 . S
C4804 C4785 1.368 . S
C4804 C4798 1.368 . S
C4804 C4803 1.523 . S
C4805 C4789 1.429 . S
C4805 C4801 1.429 . S
C4805 C4806 1.523 . S
C4806 C4790 1.368 . S
C4806 C4802 1.368 . S
C4806 C4805 1.523 . S
H4807 C4782 0.950 . S
H4808 C4784 0.950 . S
H4809 C4785 0.949 . S
H4810 C4787 0.950 . S
H4811 C4789 0.950 . S
C4812 C4813 1.349 . S
C4812 C4814 1.327 . S
C4812 H4837 0.950 . S
C4813 C4812 1.349 . S
C4813 C4829 1.310 1_455 S
C4814 C4812 1.327 . S
C4814 C4833 1.429 . S
C4814 H4838 0.950 . S
C4815 C4832 1.574 . S
C4815 C4834 1.368 . S
C4815 H4839 0.949 1_455 S
H4816 C4820 0.949 . S
C4817 C4818 1.349 . S
C4817 C4819 1.327 . S
C4817 H4840 0.950 . S
C4818 C4817 1.349 . S
C4818 C4830 1.349 . S
C4819 C4817 1.327 . S
C4819 C4835 1.429 . S
C4819 H4841 0.950 1_455 S
C4820 H4816 0.949 . S
C4820 C4828 1.574 . S
C4820 C4836 1.368 . S
H4821 C4829 1.002 . S
H4822 C4827 0.954 1_655 S
H4823 C4828 0.949 . S
H4824 C4830 0.950 . S
H4825 C4831 0.950 . S
H4826 C4832 0.949 1_655 S
C4827 H4822 0.954 1_455 S
C4827 C4829 1.321 1_455 S
C4827 C4833 1.423 . S
C4828 C4820 1.574 . S
C4828 H4823 0.949 . S
C4828 C4834 1.368 . S
C4829 C4813 1.310 1_655 S
C4829 H4821 1.002 . S
C4829 C4827 1.321 1_655 S
C4830 C4818 1.349 . S
C4830 H4824 0.950 . S
C4830 C4831 1.327 . S
C4831 H4825 0.950 . S
C4831 C4830 1.327 . S
C4831 C4835 1.429 . S
C4832 C4815 1.574 . S
C4832 H4826 0.949 1_455 S
C4832 C4836 1.368 . S
C4833 C4814 1.429 . S
C4833 C4827 1.423 . S
C4833 C4834 1.523 . S
C4834 C4815 1.368 . S
C4834 C4828 1.368 . S
C4834 C4833 1.523 . S
C4835 C4819 1.429 . S
C4835 C4831 1.429 . S
C4835 C4836 1.523 . S
C4836 C4820 1.368 . S
C4836 C4832 1.368 . S
C4836 C4835 1.523 . S
H4837 C4812 0.950 . S
H4838 C4814 0.950 . S
H4839 C4815 0.949 1_655 S
H4840 C4817 0.950 . S
H4841 C4819 0.950 1_655 S
C4842 C4843 1.349 . S
C4842 C4844 1.327 . S
C4842 H4867 0.950 . S
C4843 C4842 1.349 . S
C4843 C4859 1.349 . S
C4844 C4842 1.327 . S
C4844 C4863 1.429 . S
C4844 H4868 0.950 . S
C4845 C4862 1.574 . S
C4845 C4864 1.368 . S
C4845 H4869 0.949 . S
H4846 C4850 0.949 . S
C4847 C4848 1.349 . S
C4847 C4849 1.327 . S
C4847 H4870 0.950 . S
C4848 C4847 1.349 . S
C4848 C4860 1.349 . S
C4849 C4847 1.327 . S
C4849 C4865 1.429 . S
C4849 H4871 0.950 . S
C4850 H4846 0.949 . S
C4850 C4858 1.574 . S
C4850 C4866 1.368 . S
H4851 C4859 0.950 . S
H4852 C4857 0.950 . S
H4853 C4858 0.949 . S
H4854 C4860 0.950 . S
H4855 C4861 0.950 . S
H4856 C4862 0.949 . S
C4857 H4852 0.950 . S
C4857 C4859 1.327 . S
C4857 C4863 1.429 . S
C4858 C4850 1.574 . S
C4858 H4853 0.949 . S
C4858 C4864 1.368 . S
C4859 C4843 1.349 . S
C4859 H4851 0.950 . S
C4859 C4857 1.327 . S
C4860 C4848 1.349 . S
C4860 H4854 0.950 . S
C4860 C4861 1.327 . S
C4861 H4855 0.950 . S
C4861 C4860 1.327 . S
C4861 C4865 1.429 . S
C4862 C4845 1.574 . S
C4862 H4856 0.949 . S
C4862 C4866 1.368 . S
C4863 C4844 1.429 . S
C4863 C4857 1.429 . S
C4863 C4864 1.523 . S
C4864 C4845 1.368 . S
C4864 C4858 1.368 . S
C4864 C4863 1.523 . S
C4865 C4849 1.429 . S
C4865 C4861 1.429 . S
C4865 C4866 1.523 . S
C4866 C4850 1.368 . S
C4866 C4862 1.368 . S
C4866 C4865 1.523 . S
H4867 C4842 0.950 . S
H4868 C4844 0.950 . S
H4869 C4845 0.949 . S
H4870 C4847 0.950 . S
H4871 C4849 0.950 . S
C4872 C4873 1.349 . S
C4872 C4874 1.327 . S
C4872 H4897 0.950 . S
C4873 C4872 1.349 . S
C4873 C4889 1.349 . S
C4874 C4872 1.327 . S
C4874 C4893 1.429 . S
C4874 H4898 0.950 . S
C4875 C4892 1.574 . S
C4875 C4894 1.368 . S
C4875 H4899 0.949 . S
H4876 C4880 0.949 . S
C4877 C4878 1.349 . S
C4877 C4879 1.327 . S
C4877 H4900 0.950 . S
C4878 C4877 1.349 . S
C4878 C4890 1.349 . S
C4879 C4877 1.327 . S
C4879 C4895 1.429 . S
C4879 H4901 0.950 . S
C4880 H4876 0.949 . S
C4880 C4888 1.574 . S
C4880 C4896 1.368 . S
H4881 C4889 0.950 . S
H4882 C4887 0.950 . S
H4883 C4888 0.949 . S
H4884 C4890 0.950 . S
H4885 C4891 0.950 . S
H4886 C4892 0.949 . S
C4887 H4882 0.950 . S
C4887 C4889 1.327 . S
C4887 C4893 1.429 . S
C4888 C4880 1.574 . S
C4888 H4883 0.949 . S
C4888 C4894 1.368 . S
C4889 C4873 1.349 . S
C4889 H4881 0.950 . S
C4889 C4887 1.327 . S
C4890 C4878 1.349 . S
C4890 H4884 0.950 . S
C4890 C4891 1.327 . S
C4891 H4885 0.950 . S
C4891 C4890 1.327 . S
C4891 C4895 1.429 . S
C4892 C4875 1.574 . S
C4892 H4886 0.949 . S
C4892 C4896 1.368 . S
C4893 C4874 1.429 . S
C4893 C4887 1.429 . S
C4893 C4894 1.523 . S
C4894 C4875 1.368 . S
C4894 C4888 1.368 . S
C4894 C4893 1.523 . S
C4895 C4879 1.429 . S
C4895 C4891 1.429 . S
C4895 C4896 1.523 . S
C4896 C4880 1.368 . S
C4896 C4892 1.368 . S
C4896 C4895 1.523 . S
H4897 C4872 0.950 . S
H4898 C4874 0.950 . S
H4899 C4875 0.949 . S
H4900 C4877 0.950 . S
H4901 C4879 0.950 . S
C4902 C4903 1.349 . S
C4902 C4904 1.327 . S
C4902 H4927 0.950 . S
C4903 C4902 1.349 . S
C4903 C4919 1.349 . S
C4904 C4902 1.327 . S
C4904 C4923 1.429 . S
C4904 H4928 0.950 . S
C4905 C4922 1.574 . S
C4905 C4924 1.368 . S
C4905 H4929 0.949 . S
H4906 C4910 0.949 . S
C4907 C4908 1.349 . S
C4907 C4909 1.327 . S
C4907 H4930 0.950 . S
C4908 C4907 1.349 . S
C4908 C4920 1.349 . S
C4909 C4907 1.327 . S
C4909 C4925 1.429 . S
C4909 H4931 0.950 . S
C4910 H4906 0.949 . S
C4910 C4918 1.574 . S
C4910 C4926 1.368 . S
H4911 C4919 0.950 . S
H4912 C4917 0.950 . S
H4913 C4918 0.949 . S
H4914 C4920 0.950 . S
H4915 C4921 0.950 . S
H4916 C4922 0.949 . S
C4917 H4912 0.950 . S
C4917 C4919 1.327 . S
C4917 C4923 1.429 . S
C4918 C4910 1.574 . S
C4918 H4913 0.949 . S
C4918 C4924 1.368 . S
C4919 C4903 1.349 . S
C4919 H4911 0.950 . S
C4919 C4917 1.327 . S
C4920 C4908 1.349 . S
C4920 H4914 0.950 . S
C4920 C4921 1.327 . S
C4921 H4915 0.950 . S
C4921 C4920 1.327 . S
C4921 C4925 1.429 . S
C4922 C4905 1.574 . S
C4922 H4916 0.949 . S
C4922 C4926 1.368 . S
C4923 C4904 1.429 . S
C4923 C4917 1.429 . S
C4923 C4924 1.523 . S
C4924 C4905 1.368 . S
C4924 C4918 1.368 . S
C4924 C4923 1.523 . S
C4925 C4909 1.429 . S
C4925 C4921 1.429 . S
C4925 C4926 1.523 . S
C4926 C4910 1.368 . S
C4926 C4922 1.368 . S
C4926 C4925 1.523 . S
H4927 C4902 0.950 . S
H4928 C4904 0.950 . S
H4929 C4905 0.949 . S
H4930 C4907 0.950 . S
H4931 C4909 0.950 . S
C4932 C4933 1.349 . S
C4932 C4934 1.327 . S
C4932 H4957 0.950 . S
C4933 C4932 1.349 . S
C4933 C4949 1.349 . S
C4934 C4932 1.327 . S
C4934 C4953 1.429 . S
C4934 H4958 0.950 . S
C4935 C4952 1.574 . S
C4935 C4954 1.368 . S
C4935 H4959 0.949 . S
H4936 C4940 0.949 . S
C4937 C4938 1.349 . S
C4937 C4939 1.327 . S
C4937 H4960 0.950 . S
C4938 C4937 1.349 . S
C4938 C4950 1.349 . S
C4939 C4937 1.327 . S
C4939 C4955 1.429 . S
C4939 H4961 0.950 . S
C4940 H4936 0.949 . S
C4940 C4948 1.574 . S
C4940 C4956 1.368 . S
H4941 C4949 0.950 . S
H4942 C4947 0.950 . S
H4943 C4948 0.949 . S
H4944 C4950 0.950 . S
H4945 C4951 0.950 . S
H4946 C4952 0.949 . S
C4947 H4942 0.950 . S
C4947 C4949 1.327 . S
C4947 C4953 1.429 . S
C4948 C4940 1.574 . S
C4948 H4943 0.949 . S
C4948 C4954 1.368 . S
C4949 C4933 1.349 . S
C4949 H4941 0.950 . S
C4949 C4947 1.327 . S
C4950 C4938 1.349 . S
C4950 H4944 0.950 . S
C4950 C4951 1.327 . S
C4951 H4945 0.950 . S
C4951 C4950 1.327 . S
C4951 C4955 1.429 . S
C4952 C4935 1.574 . S
C4952 H4946 0.949 . S
C4952 C4956 1.368 . S
C4953 C4934 1.429 . S
C4953 C4947 1.429 . S
C4953 C4954 1.523 . S
C4954 C4935 1.368 . S
C4954 C4948 1.368 . S
C4954 C4953 1.523 . S
C4955 C4939 1.429 . S
C4955 C4951 1.429 . S
C4955 C4956 1.523 . S
C4956 C4940 1.368 . S
C4956 C4952 1.368 . S
C4956 C4955 1.523 . S
H4957 C4932 0.950 . S
H4958 C4934 0.950 . S
H4959 C4935 0.949 . S
H4960 C4937 0.950 . S
H4961 C4939 0.950 . S
C4962 C4963 1.308 1_565 S
C4962 C4964 1.323 1_565 S
C4962 H4987 0.997 . S
C4963 C4962 1.308 1_545 S
C4963 C4979 1.349 . S
C4964 C4962 1.323 1_545 S
C4964 C4983 1.443 . S
C4964 H4988 0.936 1_545 S
C4965 C4982 1.574 . S
C4965 C4984 1.368 . S
C4965 H4989 0.949 . S
H4966 C4970 0.949 1_565 S
C4967 C4968 1.349 . S
C4967 C4969 1.327 . S
C4967 H4990 0.950 . S
C4968 C4967 1.349 . S
C4968 C4980 1.349 . S
C4969 C4967 1.327 . S
C4969 C4985 1.429 . S
C4969 H4991 0.950 . S
C4970 H4966 0.949 1_545 S
C4970 C4978 1.574 . S
C4970 C4986 1.368 . S
H4971 C4979 0.950 . S
H4972 C4977 0.950 . S
H4973 C4978 0.949 1_565 S
H4974 C4980 0.950 . S
H4975 C4981 0.950 1_565 S
H4976 C4982 0.949 . S
C4977 H4972 0.950 . S
C4977 C4979 1.327 . S
C4977 C4983 1.429 . S
C4978 C4970 1.574 . S
C4978 H4973 0.949 1_545 S
C4978 C4984 1.368 . S
C4979 C4963 1.349 . S
C4979 H4971 0.950 . S
C4979 C4977 1.327 . S
C4980 C4968 1.349 . S
C4980 H4974 0.950 . S
C4980 C4981 1.327 . S
C4981 H4975 0.950 1_545 S
C4981 C4980 1.327 . S
C4981 C4985 1.429 . S
C4982 C4965 1.574 . S
C4982 H4976 0.949 . S
C4982 C4986 1.368 . S
C4983 C4964 1.443 . S
C4983 C4977 1.429 . S
C4983 C4984 1.523 . S
C4984 C4965 1.368 . S
C4984 C4978 1.368 . S
C4984 C4983 1.523 . S
C4985 C4969 1.429 . S
C4985 C4981 1.429 . S
C4985 C4986 1.523 . S
C4986 C4970 1.368 . S
C4986 C4982 1.368 . S
C4986 C4985 1.523 . S
H4987 C4962 0.997 . S
H4988 C4964 0.936 1_565 S
H4989 C4965 0.949 . S
H4990 C4967 0.950 . S
H4991 C4969 0.950 . S
C4992 C4993 1.349 . S
C4992 C4994 1.327 . S
C4992 H5017 0.950 . S
C4993 C4992 1.349 . S
C4993 C5009 1.349 . S
C4994 C4992 1.327 . S
C4994 C5013 1.429 . S
C4994 H5018 0.950 . S
C4995 C5012 1.574 . S
C4995 C5014 1.368 . S
C4995 H5019 0.949 . S
H4996 C5000 0.949 . S
C4997 C4998 1.349 . S
C4997 C4999 1.327 . S
C4997 H5020 0.950 . S
C4998 C4997 1.349 . S
C4998 C5010 1.349 . S
C4999 C4997 1.327 . S
C4999 C5015 1.429 . S
C4999 H5021 0.950 . S
C5000 H4996 0.949 . S
C5000 C5008 1.574 . S
C5000 C5016 1.368 . S
H5001 C5009 0.950 . S
H5002 C5007 0.950 . S
H5003 C5008 0.949 . S
H5004 C5010 0.950 . S
H5005 C5011 0.950 . S
H5006 C5012 0.949 . S
C5007 H5002 0.950 . S
C5007 C5009 1.327 . S
C5007 C5013 1.429 . S
C5008 C5000 1.574 . S
C5008 H5003 0.949 . S
C5008 C5014 1.368 . S
C5009 C4993 1.349 . S
C5009 H5001 0.950 . S
C5009 C5007 1.327 . S
C5010 C4998 1.349 . S
C5010 H5004 0.950 . S
C5010 C5011 1.327 . S
C5011 H5005 0.950 . S
C5011 C5010 1.327 . S
C5011 C5015 1.429 . S
C5012 C4995 1.574 . S
C5012 H5006 0.949 . S
C5012 C5016 1.368 . S
C5013 C4994 1.429 . S
C5013 C5007 1.429 . S
C5013 C5014 1.523 . S
C5014 C4995 1.368 . S
C5014 C5008 1.368 . S
C5014 C5013 1.523 . S
C5015 C4999 1.429 . S
C5015 C5011 1.429 . S
C5015 C5016 1.523 . S
C5016 C5000 1.368 . S
C5016 C5012 1.368 . S
C5016 C5015 1.523 . S
H5017 C4992 0.950 . S
H5018 C4994 0.950 . S
H5019 C4995 0.949 . S
H5020 C4997 0.950 . S
H5021 C4999 0.950 . S
C5022 C5023 1.349 . S
C5022 C5024 1.327 . S
C5022 H5047 0.950 . S
C5023 C5022 1.349 . S
C5023 C5039 1.349 . S
C5024 C5022 1.327 . S
C5024 C5043 1.429 . S
C5024 H5048 0.950 . S
C5025 C5042 1.574 . S
C5025 C5044 1.368 . S
C5025 H5049 0.949 . S
H5026 C5030 0.949 . S
C5027 C5028 1.349 . S
C5027 C5029 1.327 . S
C5027 H5050 0.950 . S
C5028 C5027 1.349 . S
C5028 C5040 1.349 . S
C5029 C5027 1.327 . S
C5029 C5045 1.429 . S
C5029 H5051 0.950 . S
C5030 H5026 0.949 . S
C5030 C5038 1.574 . S
C5030 C5046 1.368 . S
H5031 C5039 0.950 . S
H5032 C5037 0.950 . S
H5033 C5038 0.949 . S
H5034 C5040 0.950 . S
H5035 C5041 0.950 . S
H5036 C5042 0.949 . S
C5037 H5032 0.950 . S
C5037 C5039 1.327 . S
C5037 C5043 1.429 . S
C5038 C5030 1.574 . S
C5038 H5033 0.949 . S
C5038 C5044 1.368 . S
C5039 C5023 1.349 . S
C5039 H5031 0.950 . S
C5039 C5037 1.327 . S
C5040 C5028 1.349 . S
C5040 H5034 0.950 . S
C5040 C5041 1.327 . S
C5041 H5035 0.950 . S
C5041 C5040 1.327 . S
C5041 C5045 1.429 . S
C5042 C5025 1.574 . S
C5042 H5036 0.949 . S
C5042 C5046 1.368 . S
C5043 C5024 1.429 . S
C5043 C5037 1.429 . S
C5043 C5044 1.523 . S
C5044 C5025 1.368 . S
C5044 C5038 1.368 . S
C5044 C5043 1.523 . S
C5045 C5029 1.429 . S
C5045 C5041 1.429 . S
C5045 C5046 1.523 . S
C5046 C5030 1.368 . S
C5046 C5042 1.368 . S
C5046 C5045 1.523 . S
H5047 C5022 0.950 . S
H5048 C5024 0.950 . S
H5049 C5025 0.949 . S
H5050 C5027 0.950 . S
H5051 C5029 0.950 . S
C5052 C5053 1.349 . S
C5052 C5054 1.327 . S
C5052 H5077 0.950 . S
C5053 C5052 1.349 . S
C5053 C5069 1.349 . S
C5054 C5052 1.327 . S
C5054 C5073 1.429 . S
C5054 H5078 0.950 . S
C5055 C5072 1.574 . S
C5055 C5074 1.368 . S
C5055 H5079 0.949 . S
H5056 C5060 0.949 . S
C5057 C5058 1.349 . S
C5057 C5059 1.327 . S
C5057 H5080 0.950 . S
C5058 C5057 1.349 . S
C5058 C5070 1.349 . S
C5059 C5057 1.327 . S
C5059 C5075 1.429 . S
C5059 H5081 0.950 . S
C5060 H5056 0.949 . S
C5060 C5068 1.574 . S
C5060 C5076 1.368 . S
H5061 C5069 0.950 . S
H5062 C5067 0.950 . S
H5063 C5068 0.949 . S
H5064 C5070 0.950 . S
H5065 C5071 0.950 . S
H5066 C5072 0.949 . S
C5067 H5062 0.950 . S
C5067 C5069 1.327 . S
C5067 C5073 1.429 . S
C5068 C5060 1.574 . S
C5068 H5063 0.949 . S
C5068 C5074 1.368 . S
C5069 C5053 1.349 . S
C5069 H5061 0.950 . S
C5069 C5067 1.327 . S
C5070 C5058 1.349 . S
C5070 H5064 0.950 . S
C5070 C5071 1.327 . S
C5071 H5065 0.950 . S
C5071 C5070 1.327 . S
C5071 C5075 1.429 . S
C5072 C5055 1.574 . S
C5072 H5066 0.949 . S
C5072 C5076 1.368 . S
C5073 C5054 1.429 . S
C5073 C5067 1.429 . S
C5073 C5074 1.523 . S
C5074 C5055 1.368 . S
C5074 C5068 1.368 . S
C5074 C5073 1.523 . S
C5075 C5059 1.429 . S
C5075 C5071 1.429 . S
C5075 C5076 1.523 . S
C5076 C5060 1.368 . S
C5076 C5072 1.368 . S
C5076 C5075 1.523 . S
H5077 C5052 0.950 . S
H5078 C5054 0.950 . S
H5079 C5055 0.949 . S
H5080 C5057 0.950 . S
H5081 C5059 0.950 . S
C5082 C5083 1.349 . S
C5082 C5084 1.327 . S
C5082 H5107 0.950 . S
C5083 C5082 1.349 . S
C5083 C5099 1.349 . S
C5084 C5082 1.327 . S
C5084 C5103 1.429 . S
C5084 H5108 0.950 . S
C5085 C5102 1.574 . S
C5085 C5104 1.368 . S
C5085 H5109 0.949 1_554 S
H5086 C5090 0.949 . S
C5087 C5088 1.349 1_556 S
C5087 C5089 1.327 . S
C5087 H5110 0.950 . S
C5088 C5087 1.349 1_554 S
C5088 C5100 1.349 . S
C5089 C5087 1.327 . S
C5089 C5105 1.429 1_556 S
C5089 H5111 0.950 . S
C5090 H5086 0.949 . S
C5090 C5098 1.574 . S
C5090 C5106 1.368 . S
H5091 C5099 0.950 . S
H5092 C5097 0.950 . S
H5093 C5098 0.949 . S
H5094 C5100 0.950 . S
H5095 C5101 0.950 . S
H5096 C5102 0.949 1_556 S
C5097 H5092 0.950 . S
C5097 C5099 1.327 . S
C5097 C5103 1.429 . S
C5098 C5090 1.574 . S
C5098 H5093 0.949 . S
C5098 C5104 1.368 . S
C5099 C5083 1.349 . S
C5099 H5091 0.950 . S
C5099 C5097 1.327 . S
C5100 C5088 1.349 . S
C5100 H5094 0.950 . S
C5100 C5101 1.327 . S
C5101 H5095 0.950 . S
C5101 C5100 1.327 . S
C5101 C5105 1.429 . S
C5102 C5085 1.574 . S
C5102 H5096 0.949 1_554 S
C5102 C5106 1.368 . S
C5103 C5084 1.429 . S
C5103 C5097 1.429 . S
C5103 C5104 1.523 . S
C5104 C5085 1.368 . S
C5104 C5098 1.368 . S
C5104 C5103 1.523 . S
C5105 C5089 1.429 1_554 S
C5105 C5101 1.429 . S
C5105 C5106 1.523 . S
C5106 C5090 1.368 . S
C5106 C5102 1.368 . S
C5106 C5105 1.523 . S
H5107 C5082 0.950 . S
H5108 C5084 0.950 . S
H5109 C5085 0.949 1_556 S
H5110 C5087 0.950 . S
H5111 C5089 0.950 . S
C5112 C5113 1.349 . S
C5112 C5114 1.327 . S
C5112 H5137 0.950 . S
C5113 C5112 1.349 . S
C5113 C5129 1.349 . S
C5114 C5112 1.327 . S
C5114 C5133 1.429 . S
C5114 H5138 0.950 . S
C5115 C5132 1.574 . S
C5115 C5134 1.368 . S
C5115 H5139 0.949 . S
H5116 C5120 0.949 . S
C5117 C5118 1.349 . S
C5117 C5119 1.327 . S
C5117 H5140 0.950 . S
C5118 C5117 1.349 . S
C5118 C5130 1.349 . S
C5119 C5117 1.327 . S
C5119 C5135 1.429 . S
C5119 H5141 0.950 . S
C5120 H5116 0.949 . S
C5120 C5128 1.574 . S
C5120 C5136 1.368 . S
H5121 C5129 0.950 . S
H5122 C5127 0.950 . S
H5123 C5128 0.949 . S
H5124 C5130 0.950 . S
H5125 C5131 0.950 . S
H5126 C5132 0.949 . S
C5127 H5122 0.950 . S
C5127 C5129 1.327 . S
C5127 C5133 1.429 . S
C5128 C5120 1.574 . S
C5128 H5123 0.949 . S
C5128 C5134 1.368 . S
C5129 C5113 1.349 . S
C5129 H5121 0.950 . S
C5129 C5127 1.327 . S
C5130 C5118 1.349 . S
C5130 H5124 0.950 . S
C5130 C5131 1.327 . S
C5131 H5125 0.950 . S
C5131 C5130 1.327 . S
C5131 C5135 1.429 . S
C5132 C5115 1.574 . S
C5132 H5126 0.949 . S
C5132 C5136 1.368 . S
C5133 C5114 1.429 . S
C5133 C5127 1.429 . S
C5133 C5134 1.523 . S
C5134 C5115 1.368 . S
C5134 C5128 1.368 . S
C5134 C5133 1.523 . S
C5135 C5119 1.429 . S
C5135 C5131 1.429 . S
C5135 C5136 1.523 . S
C5136 C5120 1.368 . S
C5136 C5132 1.368 . S
C5136 C5135 1.523 . S
H5137 C5112 0.950 . S
H5138 C5114 0.950 . S
H5139 C5115 0.949 . S
H5140 C5117 0.950 . S
H5141 C5119 0.950 . S
C5142 C5143 1.349 . S
C5142 C5144 1.327 . S
C5142 H5167 0.950 . S
C5143 C5142 1.349 . S
C5143 C5159 1.349 . S
C5144 C5142 1.327 . S
C5144 C5163 1.429 . S
C5144 H5168 0.950 . S
C5145 C5162 1.574 . S
C5145 C5164 1.368 . S
C5145 H5169 0.949 . S
H5146 C5150 0.949 . S
C5147 C5148 1.349 . S
C5147 C5149 1.327 . S
C5147 H5170 0.950 . S
C5148 C5147 1.349 . S
C5148 C5160 1.349 . S
C5149 C5147 1.327 . S
C5149 C5165 1.429 . S
C5149 H5171 0.950 . S
C5150 H5146 0.949 . S
C5150 C5158 1.574 . S
C5150 C5166 1.368 . S
H5151 C5159 0.950 . S
H5152 C5157 0.950 . S
H5153 C5158 0.949 . S
H5154 C5160 0.950 . S
H5155 C5161 0.950 . S
H5156 C5162 0.949 . S
C5157 H5152 0.950 . S
C5157 C5159 1.327 . S
C5157 C5163 1.429 . S
C5158 C5150 1.574 . S
C5158 H5153 0.949 . S
C5158 C5164 1.368 . S
C5159 C5143 1.349 . S
C5159 H5151 0.950 . S
C5159 C5157 1.327 . S
C5160 C5148 1.349 . S
C5160 H5154 0.950 . S
C5160 C5161 1.327 . S
C5161 H5155 0.950 . S
C5161 C5160 1.327 . S
C5161 C5165 1.429 . S
C5162 C5145 1.574 . S
C5162 H5156 0.949 . S
C5162 C5166 1.368 . S
C5163 C5144 1.429 . S
C5163 C5157 1.429 . S
C5163 C5164 1.523 . S
C5164 C5145 1.368 . S
C5164 C5158 1.368 . S
C5164 C5163 1.523 . S
C5165 C5149 1.429 . S
C5165 C5161 1.429 . S
C5165 C5166 1.523 . S
C5166 C5150 1.368 . S
C5166 C5162 1.368 . S
C5166 C5165 1.523 . S
H5167 C5142 0.950 . S
H5168 C5144 0.950 . S
H5169 C5145 0.949 . S
H5170 C5147 0.950 . S
H5171 C5149 0.950 . S
C5172 C5173 1.349 . S
C5172 C5174 1.327 . S
C5172 H5197 0.950 . S
C5173 C5172 1.349 . S
C5173 C5189 1.349 . S
C5174 C5172 1.327 . S
C5174 C5193 1.429 . S
C5174 H5198 0.950 . S
C5175 C5192 1.574 . S
C5175 C5194 1.368 . S
C5175 H5199 0.949 . S
H5176 C5180 0.949 . S
C5177 C5178 1.349 . S
C5177 C5179 1.327 . S
C5177 H5200 0.950 . S
C5178 C5177 1.349 . S
C5178 C5190 1.349 . S
C5179 C5177 1.327 . S
C5179 C5195 1.429 . S
C5179 H5201 0.950 . S
C5180 H5176 0.949 . S
C5180 C5188 1.574 . S
C5180 C5196 1.368 . S
H5181 C5189 0.950 . S
H5182 C5187 0.950 . S
H5183 C5188 0.949 . S
H5184 C5190 0.950 . S
H5185 C5191 0.950 . S
H5186 C5192 0.949 . S
C5187 H5182 0.950 . S
C5187 C5189 1.327 . S
C5187 C5193 1.429 . S
C5188 C5180 1.574 . S
C5188 H5183 0.949 . S
C5188 C5194 1.368 . S
C5189 C5173 1.349 . S
C5189 H5181 0.950 . S
C5189 C5187 1.327 . S
C5190 C5178 1.349 . S
C5190 H5184 0.950 . S
C5190 C5191 1.327 . S
C5191 H5185 0.950 . S
C5191 C5190 1.327 . S
C5191 C5195 1.429 . S
C5192 C5175 1.574 . S
C5192 H5186 0.949 . S
C5192 C5196 1.368 . S
C5193 C5174 1.429 . S
C5193 C5187 1.429 . S
C5193 C5194 1.523 . S
C5194 C5175 1.368 . S
C5194 C5188 1.368 . S
C5194 C5193 1.523 . S
C5195 C5179 1.429 . S
C5195 C5191 1.429 . S
C5195 C5196 1.523 . S
C5196 C5180 1.368 . S
C5196 C5192 1.368 . S
C5196 C5195 1.523 . S
H5197 C5172 0.950 . S
H5198 C5174 0.950 . S
H5199 C5175 0.949 . S
H5200 C5177 0.950 . S
H5201 C5179 0.950 . S
C5202 C5203 1.349 . S
C5202 C5204 1.327 . S
C5202 H5227 0.950 . S
C5203 C5202 1.349 . S
C5203 C5219 1.349 . S
C5204 C5202 1.327 . S
C5204 C5223 1.429 . S
C5204 H5228 0.950 . S
C5205 C5222 1.574 . S
C5205 C5224 1.368 . S
C5205 H5229 0.949 . S
H5206 C5210 0.949 . S
C5207 C5208 1.349 . S
C5207 C5209 1.327 . S
C5207 H5230 0.950 . S
C5208 C5207 1.349 . S
C5208 C5220 1.349 . S
C5209 C5207 1.327 . S
C5209 C5225 1.429 . S
C5209 H5231 0.950 . S
C5210 H5206 0.949 . S
C5210 C5218 1.574 . S
C5210 C5226 1.368 . S
H5211 C5219 0.950 . S
H5212 C5217 0.950 . S
H5213 C5218 0.949 . S
H5214 C5220 0.950 . S
H5215 C5221 0.950 . S
H5216 C5222 0.949 . S
C5217 H5212 0.950 . S
C5217 C5219 1.327 . S
C5217 C5223 1.429 . S
C5218 C5210 1.574 . S
C5218 H5213 0.949 . S
C5218 C5224 1.368 . S
C5219 C5203 1.349 . S
C5219 H5211 0.950 . S
C5219 C5217 1.327 . S
C5220 C5208 1.349 . S
C5220 H5214 0.950 . S
C5220 C5221 1.327 . S
C5221 H5215 0.950 . S
C5221 C5220 1.327 . S
C5221 C5225 1.429 . S
C5222 C5205 1.574 . S
C5222 H5216 0.949 . S
C5222 C5226 1.368 . S
C5223 C5204 1.429 . S
C5223 C5217 1.429 . S
C5223 C5224 1.523 . S
C5224 C5205 1.368 . S
C5224 C5218 1.368 . S
C5224 C5223 1.523 . S
C5225 C5209 1.429 . S
C5225 C5221 1.429 . S
C5225 C5226 1.523 . S
C5226 C5210 1.368 . S
C5226 C5222 1.368 . S
C5226 C5225 1.523 . S
H5227 C5202 0.950 . S
H5228 C5204 0.950 . S
H5229 C5205 0.949 . S
H5230 C5207 0.950 . S
H5231 C5209 0.950 . S
C5232 C5233 1.349 . S
C5232 C5234 1.327 . S
C5232 H5257 0.950 . S
C5233 C5232 1.349 . S
C5233 C5249 1.349 . S
C5234 C5232 1.327 . S
C5234 C5253 1.429 . S
C5234 H5258 0.950 . S
C5235 C5252 1.574 . S
C5235 C5254 1.368 . S
C5235 H5259 0.949 . S
H5236 C5240 0.949 . S
C5237 C5238 1.349 . S
C5237 C5239 1.327 . S
C5237 H5260 0.950 . S
C5238 C5237 1.349 . S
C5238 C5250 1.349 . S
C5239 C5237 1.327 . S
C5239 C5255 1.429 . S
C5239 H5261 0.950 . S
C5240 H5236 0.949 . S
C5240 C5248 1.574 . S
C5240 C5256 1.368 . S
H5241 C5249 0.950 . S
H5242 C5247 0.950 . S
H5243 C5248 0.949 . S
H5244 C5250 0.950 . S
H5245 C5251 0.950 . S
H5246 C5252 0.949 . S
C5247 H5242 0.950 . S
C5247 C5249 1.327 . S
C5247 C5253 1.429 . S
C5248 C5240 1.574 . S
C5248 H5243 0.949 . S
C5248 C5254 1.368 . S
C5249 C5233 1.349 . S
C5249 H5241 0.950 . S
C5249 C5247 1.327 . S
C5250 C5238 1.349 . S
C5250 H5244 0.950 . S
C5250 C5251 1.327 . S
C5251 H5245 0.950 . S
C5251 C5250 1.327 . S
C5251 C5255 1.429 . S
C5252 C5235 1.574 . S
C5252 H5246 0.949 . S
C5252 C5256 1.368 . S
C5253 C5234 1.429 . S
C5253 C5247 1.429 . S
C5253 C5254 1.523 . S
C5254 C5235 1.368 . S
C5254 C5248 1.368 . S
C5254 C5253 1.523 . S
C5255 C5239 1.429 . S
C5255 C5251 1.429 . S
C5255 C5256 1.523 . S
C5256 C5240 1.368 . S
C5256 C5252 1.368 . S
C5256 C5255 1.523 . S
H5257 C5232 0.950 . S
H5258 C5234 0.950 . S
H5259 C5235 0.949 . S
H5260 C5237 0.950 . S
H5261 C5239 0.950 . S
C5262 C5263 1.349 . S
C5262 C5264 1.327 . S
C5262 H5287 0.950 . S
C5263 C5262 1.349 . S
C5263 C5279 1.349 . S
C5264 C5262 1.327 . S
C5264 C5283 1.429 . S
C5264 H5288 0.950 . S
C5265 C5282 1.574 . S
C5265 C5284 1.368 . S
C5265 H5289 0.949 . S
H5266 C5270 0.949 . S
C5267 C5268 1.349 . S
C5267 C5269 1.327 . S
C5267 H5290 0.950 . S
C5268 C5267 1.349 . S
C5268 C5280 1.349 . S
C5269 C5267 1.327 . S
C5269 C5285 1.429 . S
C5269 H5291 0.950 . S
C5270 H5266 0.949 . S
C5270 C5278 1.574 . S
C5270 C5286 1.368 . S
H5271 C5279 0.950 . S
H5272 C5277 0.950 . S
H5273 C5278 0.949 . S
H5274 C5280 0.950 . S
H5275 C5281 0.950 . S
H5276 C5282 0.949 . S
C5277 H5272 0.950 . S
C5277 C5279 1.327 . S
C5277 C5283 1.429 . S
C5278 C5270 1.574 . S
C5278 H5273 0.949 . S
C5278 C5284 1.368 . S
C5279 C5263 1.349 . S
C5279 H5271 0.950 . S
C5279 C5277 1.327 . S
C5280 C5268 1.349 . S
C5280 H5274 0.950 . S
C5280 C5281 1.327 . S
C5281 H5275 0.950 . S
C5281 C5280 1.327 . S
C5281 C5285 1.429 . S
C5282 C5265 1.574 . S
C5282 H5276 0.949 . S
C5282 C5286 1.368 . S
C5283 C5264 1.429 . S
C5283 C5277 1.429 . S
C5283 C5284 1.523 . S
C5284 C5265 1.368 . S
C5284 C5278 1.368 . S
C5284 C5283 1.523 . S
C5285 C5269 1.429 . S
C5285 C5281 1.429 . S
C5285 C5286 1.523 . S
C5286 C5270 1.368 . S
C5286 C5282 1.368 . S
C5286 C5285 1.523 . S
H5287 C5262 0.950 . S
H5288 C5264 0.950 . S
H5289 C5265 0.949 . S
H5290 C5267 0.950 . S
H5291 C5269 0.950 . S
C5292 C5293 1.349 . S
C5292 C5294 1.327 . S
C5292 H5317 0.950 . S
C5293 C5292 1.349 . S
C5293 C5309 1.349 . S
C5294 C5292 1.327 . S
C5294 C5313 1.429 . S
C5294 H5318 0.950 . S
C5295 C5312 1.574 . S
C5295 C5314 1.368 . S
C5295 H5319 0.949 . S
H5296 C5300 0.949 . S
C5297 C5298 1.349 . S
C5297 C5299 1.327 . S
C5297 H5320 0.950 . S
C5298 C5297 1.349 . S
C5298 C5310 1.349 . S
C5299 C5297 1.327 . S
C5299 C5315 1.429 . S
C5299 H5321 0.950 . S
C5300 H5296 0.949 . S
C5300 C5308 1.574 . S
C5300 C5316 1.368 . S
H5301 C5309 0.950 . S
H5302 C5307 0.950 . S
H5303 C5308 0.949 . S
H5304 C5310 0.950 . S
H5305 C5311 0.950 . S
H5306 C5312 0.949 . S
C5307 H5302 0.950 . S
C5307 C5309 1.327 . S
C5307 C5313 1.429 . S
C5308 C5300 1.574 . S
C5308 H5303 0.949 . S
C5308 C5314 1.368 . S
C5309 C5293 1.349 . S
C5309 H5301 0.950 . S
C5309 C5307 1.327 . S
C5310 C5298 1.349 . S
C5310 H5304 0.950 . S
C5310 C5311 1.327 . S
C5311 H5305 0.950 . S
C5311 C5310 1.327 . S
C5311 C5315 1.429 . S
C5312 C5295 1.574 . S
C5312 H5306 0.949 . S
C5312 C5316 1.368 . S
C5313 C5294 1.429 . S
C5313 C5307 1.429 . S
C5313 C5314 1.523 . S
C5314 C5295 1.368 . S
C5314 C5308 1.368 . S
C5314 C5313 1.523 . S
C5315 C5299 1.429 . S
C5315 C5311 1.429 . S
C5315 C5316 1.523 . S
C5316 C5300 1.368 . S
C5316 C5312 1.368 . S
C5316 C5315 1.523 . S
H5317 C5292 0.950 . S
H5318 C5294 0.950 . S
H5319 C5295 0.949 . S
H5320 C5297 0.950 . S
H5321 C5299 0.950 . S
C5322 C5323 1.349 . S
C5322 C5324 1.327 . S
C5322 H5347 0.950 . S
C5323 C5322 1.349 . S
C5323 C5339 1.349 . S
C5324 C5322 1.327 . S
C5324 C5343 1.429 . S
C5324 H5348 0.950 . S
C5325 C5342 1.574 . S
C5325 C5344 1.368 . S
C5325 H5349 0.949 . S
H5326 C5330 0.949 . S
C5327 C5328 1.349 . S
C5327 C5329 1.327 . S
C5327 H5350 0.950 . S
C5328 C5327 1.349 . S
C5328 C5340 1.349 . S
C5329 C5327 1.327 . S
C5329 C5345 1.429 . S
C5329 H5351 0.950 . S
C5330 H5326 0.949 . S
C5330 C5338 1.574 . S
C5330 C5346 1.368 . S
H5331 C5339 0.950 . S
H5332 C5337 0.950 . S
H5333 C5338 0.949 . S
H5334 C5340 0.950 . S
H5335 C5341 0.950 . S
H5336 C5342 0.949 . S
C5337 H5332 0.950 . S
C5337 C5339 1.327 . S
C5337 C5343 1.429 . S
C5338 C5330 1.574 . S
C5338 H5333 0.949 . S
C5338 C5344 1.368 . S
C5339 C5323 1.349 . S
C5339 H5331 0.950 . S
C5339 C5337 1.327 . S
C5340 C5328 1.349 . S
C5340 H5334 0.950 . S
C5340 C5341 1.327 . S
C5341 H5335 0.950 . S
C5341 C5340 1.327 . S
C5341 C5345 1.429 . S
C5342 C5325 1.574 . S
C5342 H5336 0.949 . S
C5342 C5346 1.368 . S
C5343 C5324 1.429 . S
C5343 C5337 1.429 . S
C5343 C5344 1.523 . S
C5344 C5325 1.368 . S
C5344 C5338 1.368 . S
C5344 C5343 1.523 . S
C5345 C5329 1.429 . S
C5345 C5341 1.429 . S
C5345 C5346 1.523 . S
C5346 C5330 1.368 . S
C5346 C5342 1.368 . S
C5346 C5345 1.523 . S
H5347 C5322 0.950 . S
H5348 C5324 0.950 . S
H5349 C5325 0.949 . S
H5350 C5327 0.950 . S
H5351 C5329 0.950 . S
C5352 C5353 1.349 . S
C5352 C5354 1.327 . S
C5352 H5377 0.950 . S
C5353 C5352 1.349 . S
C5353 C5369 1.349 . S
C5354 C5352 1.327 . S
C5354 C5373 1.429 . S
C5354 H5378 0.950 . S
C5355 C5372 1.574 . S
C5355 C5374 1.368 . S
C5355 H5379 0.949 . S
H5356 C5360 0.949 . S
C5357 C5358 1.349 . S
C5357 C5359 1.327 . S
C5357 H5380 0.950 . S
C5358 C5357 1.349 . S
C5358 C5370 1.349 . S
C5359 C5357 1.327 . S
C5359 C5375 1.429 . S
C5359 H5381 0.950 . S
C5360 H5356 0.949 . S
C5360 C5368 1.574 . S
C5360 C5376 1.368 . S
H5361 C5369 0.950 . S
H5362 C5367 0.950 . S
H5363 C5368 0.949 . S
H5364 C5370 0.950 . S
H5365 C5371 0.950 . S
H5366 C5372 0.949 . S
C5367 H5362 0.950 . S
C5367 C5369 1.327 . S
C5367 C5373 1.429 . S
C5368 C5360 1.574 . S
C5368 H5363 0.949 . S
C5368 C5374 1.368 . S
C5369 C5353 1.349 . S
C5369 H5361 0.950 . S
C5369 C5367 1.327 . S
C5370 C5358 1.349 . S
C5370 H5364 0.950 . S
C5370 C5371 1.327 . S
C5371 H5365 0.950 . S
C5371 C5370 1.327 . S
C5371 C5375 1.429 . S
C5372 C5355 1.574 . S
C5372 H5366 0.949 . S
C5372 C5376 1.368 . S
C5373 C5354 1.429 . S
C5373 C5367 1.429 . S
C5373 C5374 1.523 . S
C5374 C5355 1.368 . S
C5374 C5368 1.368 . S
C5374 C5373 1.523 . S
C5375 C5359 1.429 . S
C5375 C5371 1.429 . S
C5375 C5376 1.523 . S
C5376 C5360 1.368 . S
C5376 C5372 1.368 . S
C5376 C5375 1.523 . S
H5377 C5352 0.950 . S
H5378 C5354 0.950 . S
H5379 C5355 0.949 . S
H5380 C5357 0.950 . S
H5381 C5359 0.950 . S
C5382 C5383 1.349 . S
C5382 C5384 1.327 . S
C5382 H5407 0.950 . S
C5383 C5382 1.349 . S
C5383 C5399 1.349 . S
C5384 C5382 1.327 . S
C5384 C5403 1.429 . S
C5384 H5408 0.950 . S
C5385 C5402 1.574 . S
C5385 C5404 1.368 . S
C5385 H5409 0.949 . S
H5386 C5390 0.949 . S
C5387 C5388 1.349 . S
C5387 C5389 1.327 . S
C5387 H5410 0.950 . S
C5388 C5387 1.349 . S
C5388 C5400 1.349 . S
C5389 C5387 1.327 . S
C5389 C5405 1.429 . S
C5389 H5411 0.950 . S
C5390 H5386 0.949 . S
C5390 C5398 1.574 . S
C5390 C5406 1.368 . S
H5391 C5399 0.950 . S
H5392 C5397 0.950 . S
H5393 C5398 0.949 . S
H5394 C5400 0.950 . S
H5395 C5401 0.950 . S
H5396 C5402 0.949 . S
C5397 H5392 0.950 . S
C5397 C5399 1.327 . S
C5397 C5403 1.429 . S
C5398 C5390 1.574 . S
C5398 H5393 0.949 . S
C5398 C5404 1.368 . S
C5399 C5383 1.349 . S
C5399 H5391 0.950 . S
C5399 C5397 1.327 . S
C5400 C5388 1.349 . S
C5400 H5394 0.950 . S
C5400 C5401 1.327 . S
C5401 H5395 0.950 . S
C5401 C5400 1.327 . S
C5401 C5405 1.429 . S
C5402 C5385 1.574 . S
C5402 H5396 0.949 . S
C5402 C5406 1.368 . S
C5403 C5384 1.429 . S
C5403 C5397 1.429 . S
C5403 C5404 1.523 . S
C5404 C5385 1.368 . S
C5404 C5398 1.368 . S
C5404 C5403 1.523 . S
C5405 C5389 1.429 . S
C5405 C5401 1.429 . S
C5405 C5406 1.523 . S
C5406 C5390 1.368 . S
C5406 C5402 1.368 . S
C5406 C5405 1.523 . S
H5407 C5382 0.950 . S
H5408 C5384 0.950 . S
H5409 C5385 0.949 . S
H5410 C5387 0.950 . S
H5411 C5389 0.950 . S
C5412 C5413 1.349 . S
C5412 C5414 1.327 . S
C5412 H5437 0.950 . S
C5413 C5412 1.349 . S
C5413 C5429 1.349 . S
C5414 C5412 1.327 . S
C5414 C5433 1.429 . S
C5414 H5438 0.950 . S
C5415 C5432 1.574 . S
C5415 C5434 1.368 . S
C5415 H5439 0.949 . S
H5416 C5420 0.949 . S
C5417 C5418 1.349 . S
C5417 C5419 1.327 . S
C5417 H5440 0.950 . S
C5418 C5417 1.349 . S
C5418 C5430 1.349 . S
C5419 C5417 1.327 . S
C5419 C5435 1.429 . S
C5419 H5441 0.950 . S
C5420 H5416 0.949 . S
C5420 C5428 1.574 . S
C5420 C5436 1.368 . S
H5421 C5429 0.950 . S
H5422 C5427 0.950 . S
H5423 C5428 0.949 . S
H5424 C5430 0.950 . S
H5425 C5431 0.950 . S
H5426 C5432 0.949 . S
C5427 H5422 0.950 . S
C5427 C5429 1.327 . S
C5427 C5433 1.429 . S
C5428 C5420 1.574 . S
C5428 H5423 0.949 . S
C5428 C5434 1.368 . S
C5429 C5413 1.349 . S
C5429 H5421 0.950 . S
C5429 C5427 1.327 . S
C5430 C5418 1.349 . S
C5430 H5424 0.950 . S
C5430 C5431 1.327 . S
C5431 H5425 0.950 . S
C5431 C5430 1.327 . S
C5431 C5435 1.429 . S
C5432 C5415 1.574 . S
C5432 H5426 0.949 . S
C5432 C5436 1.368 . S
C5433 C5414 1.429 . S
C5433 C5427 1.429 . S
C5433 C5434 1.523 . S
C5434 C5415 1.368 . S
C5434 C5428 1.368 . S
C5434 C5433 1.523 . S
C5435 C5419 1.429 . S
C5435 C5431 1.429 . S
C5435 C5436 1.523 . S
C5436 C5420 1.368 . S
C5436 C5432 1.368 . S
C5436 C5435 1.523 . S
H5437 C5412 0.950 . S
H5438 C5414 0.950 . S
H5439 C5415 0.949 . S
H5440 C5417 0.950 . S
H5441 C5419 0.950 . S
C5442 C5443 1.349 . S
C5442 C5444 1.327 . S
C5442 H5467 0.950 . S
C5443 C5442 1.349 . S
C5443 C5459 1.349 . S
C5444 C5442 1.327 . S
C5444 C5463 1.429 . S
C5444 H5468 0.950 . S
C5445 C5462 1.574 . S
C5445 C5464 1.368 . S
C5445 H5469 0.949 . S
H5446 C5450 0.949 . S
C5447 C5448 1.349 . S
C5447 C5449 1.327 . S
C5447 H5470 0.950 . S
C5448 C5447 1.349 . S
C5448 C5460 1.349 . S
C5449 C5447 1.327 . S
C5449 C5465 1.429 . S
C5449 H5471 0.950 . S
C5450 H5446 0.949 . S
C5450 C5458 1.574 . S
C5450 C5466 1.368 . S
H5451 C5459 0.950 . S
H5452 C5457 0.950 . S
H5453 C5458 0.949 . S
H5454 C5460 0.950 . S
H5455 C5461 0.950 . S
H5456 C5462 0.949 . S
C5457 H5452 0.950 . S
C5457 C5459 1.327 . S
C5457 C5463 1.429 . S
C5458 C5450 1.574 . S
C5458 H5453 0.949 . S
C5458 C5464 1.368 . S
C5459 C5443 1.349 . S
C5459 H5451 0.950 . S
C5459 C5457 1.327 . S
C5460 C5448 1.349 . S
C5460 H5454 0.950 . S
C5460 C5461 1.327 . S
C5461 H5455 0.950 . S
C5461 C5460 1.327 . S
C5461 C5465 1.429 . S
C5462 C5445 1.574 . S
C5462 H5456 0.949 . S
C5462 C5466 1.368 . S
C5463 C5444 1.429 . S
C5463 C5457 1.429 . S
C5463 C5464 1.523 . S
C5464 C5445 1.368 . S
C5464 C5458 1.368 . S
C5464 C5463 1.523 . S
C5465 C5449 1.429 . S
C5465 C5461 1.429 . S
C5465 C5466 1.523 . S
C5466 C5450 1.368 . S
C5466 C5462 1.368 . S
C5466 C5465 1.523 . S
H5467 C5442 0.950 . S
H5468 C5444 0.950 . S
H5469 C5445 0.949 . S
H5470 C5447 0.950 . S
H5471 C5449 0.950 . S
C5472 C5473 1.349 . S
C5472 C5474 1.327 . S
C5472 H5497 0.950 . S
C5473 C5472 1.349 . S
C5473 C5489 1.349 . S
C5474 C5472 1.327 . S
C5474 C5493 1.429 . S
C5474 H5498 0.950 . S
C5475 C5492 1.574 . S
C5475 C5494 1.368 . S
C5475 H5499 0.949 . S
H5476 C5480 0.949 . S
C5477 C5478 1.349 . S
C5477 C5479 1.327 . S
C5477 H5500 0.950 . S
C5478 C5477 1.349 . S
C5478 C5490 1.349 . S
C5479 C5477 1.327 . S
C5479 C5495 1.429 . S
C5479 H5501 0.950 . S
C5480 H5476 0.949 . S
C5480 C5488 1.574 . S
C5480 C5496 1.368 . S
H5481 C5489 0.950 . S
H5482 C5487 0.950 . S
H5483 C5488 0.949 . S
H5484 C5490 0.950 . S
H5485 C5491 0.950 . S
H5486 C5492 0.949 . S
C5487 H5482 0.950 . S
C5487 C5489 1.327 . S
C5487 C5493 1.429 . S
C5488 C5480 1.574 . S
C5488 H5483 0.949 . S
C5488 C5494 1.368 . S
C5489 C5473 1.349 . S
C5489 H5481 0.950 . S
C5489 C5487 1.327 . S
C5490 C5478 1.349 . S
C5490 H5484 0.950 . S
C5490 C5491 1.327 . S
C5491 H5485 0.950 . S
C5491 C5490 1.327 . S
C5491 C5495 1.429 . S
C5492 C5475 1.574 . S
C5492 H5486 0.949 . S
C5492 C5496 1.368 . S
C5493 C5474 1.429 . S
C5493 C5487 1.429 . S
C5493 C5494 1.523 . S
C5494 C5475 1.368 . S
C5494 C5488 1.368 . S
C5494 C5493 1.523 . S
C5495 C5479 1.429 . S
C5495 C5491 1.429 . S
C5495 C5496 1.523 . S
C5496 C5480 1.368 . S
C5496 C5492 1.368 . S
C5496 C5495 1.523 . S
H5497 C5472 0.950 . S
H5498 C5474 0.950 . S
H5499 C5475 0.949 . S
H5500 C5477 0.950 . S
H5501 C5479 0.950 . S
C5502 C5503 1.349 . S
C5502 C5504 1.327 . S
C5502 H5527 0.950 . S
C5503 C5502 1.349 . S
C5503 C5519 1.349 . S
C5504 C5502 1.327 . S
C5504 C5523 1.429 . S
C5504 H5528 0.950 . S
C5505 C5522 1.574 . S
C5505 C5524 1.368 . S
C5505 H5529 0.949 . S
H5506 C5510 0.949 . S
C5507 C5508 1.349 . S
C5507 C5509 1.327 . S
C5507 H5530 0.950 . S
C5508 C5507 1.349 . S
C5508 C5520 1.349 . S
C5509 C5507 1.327 . S
C5509 C5525 1.429 . S
C5509 H5531 0.950 . S
C5510 H5506 0.949 . S
C5510 C5518 1.534 1_655 S
C5510 C5526 1.368 . S
H5511 C5519 0.950 . S
H5512 C5517 0.950 1_655 S
H5513 C5518 1.007 . S
H5514 C5520 0.950 . S
H5515 C5521 0.950 . S
H5516 C5522 0.949 . S
C5517 H5512 0.950 1_455 S
C5517 C5519 1.327 . S
C5517 C5523 1.429 . S
C5518 C5510 1.534 1_455 S
C5518 H5513 1.007 . S
C5518 C5524 1.346 1_455 S
C5519 C5503 1.349 . S
C5519 H5511 0.950 . S
C5519 C5517 1.327 . S
C5520 C5508 1.349 . S
C5520 H5514 0.950 . S
C5520 C5521 1.327 . S
C5521 H5515 0.950 . S
C5521 C5520 1.327 . S
C5521 C5525 1.429 . S
C5522 C5505 1.574 . S
C5522 H5516 0.949 . S
C5522 C5526 1.368 . S
C5523 C5504 1.429 . S
C5523 C5517 1.429 . S
C5523 C5524 1.523 1_455 S
C5524 C5505 1.368 . S
C5524 C5518 1.346 1_655 S
C5524 C5523 1.523 1_655 S
C5525 C5509 1.429 . S
C5525 C5521 1.429 . S
C5525 C5526 1.523 . S
C5526 C5510 1.368 . S
C5526 C5522 1.368 . S
C5526 C5525 1.523 . S
H5527 C5502 0.950 . S
H5528 C5504 0.950 . S
H5529 C5505 0.949 . S
H5530 C5507 0.950 . S
H5531 C5509 0.950 . S
C5532 C5533 1.349 . S
C5532 C5534 1.327 . S
C5532 H5557 0.950 . S
C5533 C5532 1.349 . S
C5533 C5549 1.349 . S
C5534 C5532 1.327 . S
C5534 C5553 1.429 . S
C5534 H5558 0.950 . S
C5535 C5552 1.574 . S
C5535 C5554 1.368 . S
C5535 H5559 0.949 . S
H5536 C5540 0.949 . S
C5537 C5538 1.317 1_565 S
C5537 C5539 1.327 . S
C5537 H5560 0.950 . S
C5538 C5537 1.317 1_545 S
C5538 C5550 1.344 1_545 S
C5539 C5537 1.327 . S
C5539 C5555 1.429 . S
C5539 H5561 0.950 . S
C5540 H5536 0.949 . S
C5540 C5548 1.574 . S
C5540 C5556 1.368 . S
H5541 C5549 0.950 . S
H5542 C5547 0.950 . S
H5543 C5548 0.949 . S
H5544 C5550 0.953 1_545 S
H5545 C5551 0.950 . S
H5546 C5552 0.949 . S
C5547 H5542 0.950 . S
C5547 C5549 1.327 . S
C5547 C5553 1.429 . S
C5548 C5540 1.574 . S
C5548 H5543 0.949 . S
C5548 C5554 1.368 . S
C5549 C5533 1.349 . S
C5549 H5541 0.950 . S
C5549 C5547 1.327 . S
C5550 C5538 1.344 1_565 S
C5550 H5544 0.953 1_565 S
C5550 C5551 1.323 . S
C5551 H5545 0.950 . S
C5551 C5550 1.323 . S
C5551 C5555 1.429 . S
C5552 C5535 1.574 . S
C5552 H5546 0.949 . S
C5552 C5556 1.368 . S
C5553 C5534 1.429 . S
C5553 C5547 1.429 . S
C5553 C5554 1.523 . S
C5554 C5535 1.368 . S
C5554 C5548 1.368 . S
C5554 C5553 1.523 . S
C5555 C5539 1.429 . S
C5555 C5551 1.429 . S
C5555 C5556 1.523 . S
C5556 C5540 1.368 . S
C5556 C5552 1.368 . S
C5556 C5555 1.523 . S
H5557 C5532 0.950 . S
H5558 C5534 0.950 . S
H5559 C5535 0.949 . S
H5560 C5537 0.950 . S
H5561 C5539 0.950 . S
C5562 C5563 1.349 . S
C5562 C5564 1.327 . S
C5562 H5587 0.950 . S
C5563 C5562 1.349 . S
C5563 C5579 1.349 . S
C5564 C5562 1.327 . S
C5564 C5583 1.429 . S
C5564 H5588 0.950 . S
C5565 C5582 1.574 . S
C5565 C5584 1.368 . S
C5565 H5589 0.949 . S
H5566 C5570 0.949 . S
C5567 C5568 1.349 . S
C5567 C5569 1.327 . S
C5567 H5590 0.950 . S
C5568 C5567 1.349 . S
C5568 C5580 1.349 . S
C5569 C5567 1.327 . S
C5569 C5585 1.429 . S
C5569 H5591 0.950 . S
C5570 H5566 0.949 . S
C5570 C5578 1.574 . S
C5570 C5586 1.368 . S
H5571 C5579 0.950 . S
H5572 C5577 0.950 1_565 S
H5573 C5578 0.949 1_545 S
H5574 C5580 0.950 . S
H5575 C5581 0.950 . S
H5576 C5582 0.949 . S
C5577 H5572 0.950 1_545 S
C5577 C5579 1.327 . S
C5577 C5583 1.429 . S
C5578 C5570 1.574 . S
C5578 H5573 0.949 1_565 S
C5578 C5584 1.368 . S
C5579 C5563 1.349 . S
C5579 H5571 0.950 . S
C5579 C5577 1.327 . S
C5580 C5568 1.349 . S
C5580 H5574 0.950 . S
C5580 C5581 1.327 . S
C5581 H5575 0.950 . S
C5581 C5580 1.327 . S
C5581 C5585 1.429 . S
C5582 C5565 1.574 . S
C5582 H5576 0.949 . S
C5582 C5586 1.368 . S
C5583 C5564 1.429 . S
C5583 C5577 1.429 . S
C5583 C5584 1.523 1_545 S
C5584 C5565 1.368 . S
C5584 C5578 1.368 . S
C5584 C5583 1.523 1_565 S
C5585 C5569 1.429 . S
C5585 C5581 1.429 . S
C5585 C5586 1.523 . S
C5586 C5570 1.368 . S
C5586 C5582 1.368 . S
C5586 C5585 1.523 . S
H5587 C5562 0.950 . S
H5588 C5564 0.950 . S
H5589 C5565 0.949 . S
H5590 C5567 0.950 . S
H5591 C5569 0.950 . S
C5592 C5593 1.367 . S
C5592 C5594 1.299 1_545 S
C5592 H5617 0.961 . S
C5593 C5592 1.367 . S
C5593 C5609 1.349 . S
C5594 C5592 1.299 1_565 S
C5594 C5613 1.429 . S
C5594 H5618 0.950 . S
C5595 C5612 1.574 . S
C5595 C5614 1.368 . S
C5595 H5619 0.949 . S
H5596 C5600 0.949 . S
C5597 C5598 1.349 . S
C5597 C5599 1.327 . S
C5597 H5620 0.950 . S
C5598 C5597 1.349 . S
C5598 C5610 1.349 . S
C5599 C5597 1.327 . S
C5599 C5615 1.429 . S
C5599 H5621 0.950 . S
C5600 H5596 0.949 . S
C5600 C5608 1.574 . S
C5600 C5616 1.368 . S
H5601 C5609 0.950 . S
H5602 C5607 0.950 . S
H5603 C5608 0.949 . S
H5604 C5610 0.950 . S
H5605 C5611 0.950 . S
H5606 C5612 0.949 . S
C5607 H5602 0.950 . S
C5607 C5609 1.327 1_565 S
C5607 C5613 1.429 . S
C5608 C5600 1.574 . S
C5608 H5603 0.949 . S
C5608 C5614 1.368 . S
C5609 C5593 1.349 . S
C5609 H5601 0.950 . S
C5609 C5607 1.327 1_545 S
C5610 C5598 1.349 . S
C5610 H5604 0.950 . S
C5610 C5611 1.327 . S
C5611 H5605 0.950 . S
C5611 C5610 1.327 . S
C5611 C5615 1.429 . S
C5612 C5595 1.574 . S
C5612 H5606 0.949 . S
C5612 C5616 1.368 . S
C5613 C5594 1.429 . S
C5613 C5607 1.429 . S
C5613 C5614 1.523 . S
C5614 C5595 1.368 . S
C5614 C5608 1.368 . S
C5614 C5613 1.523 . S
C5615 C5599 1.429 . S
C5615 C5611 1.429 . S
C5615 C5616 1.523 . S
C5616 C5600 1.368 . S
C5616 C5612 1.368 . S
C5616 C5615 1.523 . S
H5617 C5592 0.961 . S
H5618 C5594 0.950 . S
H5619 C5595 0.949 . S
H5620 C5597 0.950 . S
H5621 C5599 0.950 . S
C5622 C5623 1.349 . S
C5622 C5624 1.327 . S
C5622 H5647 0.950 . S
C5623 C5622 1.349 . S
C5623 C5639 1.349 . S
C5624 C5622 1.327 . S
C5624 C5643 1.429 . S
C5624 H5648 0.950 . S
C5625 C5642 1.574 . S
C5625 C5644 1.368 . S
C5625 H5649 0.949 . S
H5626 C5630 0.949 . S
C5627 C5628 1.349 . S
C5627 C5629 1.327 . S
C5627 H5650 0.950 . S
C5628 C5627 1.349 . S
C5628 C5640 1.349 . S
C5629 C5627 1.327 . S
C5629 C5645 1.429 . S
C5629 H5651 0.950 . S
C5630 H5626 0.949 . S
C5630 C5638 1.574 . S
C5630 C5646 1.368 . S
H5631 C5639 0.950 . S
H5632 C5637 0.950 . S
H5633 C5638 0.949 . S
H5634 C5640 0.950 . S
H5635 C5641 0.950 . S
H5636 C5642 0.949 . S
C5637 H5632 0.950 . S
C5637 C5639 1.327 . S
C5637 C5643 1.429 . S
C5638 C5630 1.574 . S
C5638 H5633 0.949 . S
C5638 C5644 1.368 . S
C5639 C5623 1.349 . S
C5639 H5631 0.950 . S
C5639 C5637 1.327 . S
C5640 C5628 1.349 . S
C5640 H5634 0.950 . S
C5640 C5641 1.327 . S
C5641 H5635 0.950 . S
C5641 C5640 1.327 . S
C5641 C5645 1.429 . S
C5642 C5625 1.574 . S
C5642 H5636 0.949 . S
C5642 C5646 1.368 . S
C5643 C5624 1.429 . S
C5643 C5637 1.429 . S
C5643 C5644 1.523 . S
C5644 C5625 1.368 . S
C5644 C5638 1.368 . S
C5644 C5643 1.523 . S
C5645 C5629 1.429 . S
C5645 C5641 1.429 . S
C5645 C5646 1.523 . S
C5646 C5630 1.368 . S
C5646 C5642 1.368 . S
C5646 C5645 1.523 . S
H5647 C5622 0.950 . S
H5648 C5624 0.950 . S
H5649 C5625 0.949 . S
H5650 C5627 0.950 . S
H5651 C5629 0.950 . S
C5652 C5653 1.349 . S
C5652 C5654 1.327 . S
C5652 H5677 0.950 . S
C5653 C5652 1.349 . S
C5653 C5669 1.349 . S
C5654 C5652 1.327 . S
C5654 C5673 1.429 1_455 S
C5654 H5678 0.950 . S
C5655 C5672 1.574 . S
C5655 C5674 1.368 . S
C5655 H5679 0.949 . S
H5656 C5660 0.949 . S
C5657 C5658 1.349 . S
C5657 C5659 1.327 . S
C5657 H5680 0.950 . S
C5658 C5657 1.349 . S
C5658 C5670 1.349 . S
C5659 C5657 1.327 . S
C5659 C5675 1.429 . S
C5659 H5681 0.950 . S
C5660 H5656 0.949 . S
C5660 C5668 1.574 . S
C5660 C5676 1.368 . S
H5661 C5669 0.950 . S
H5662 C5667 0.991 . S
H5663 C5668 0.949 . S
H5664 C5670 0.950 . S
H5665 C5671 0.950 . S
H5666 C5672 0.949 . S
C5667 H5662 0.991 . S
C5667 C5669 1.283 1_655 S
C5667 C5673 1.436 . S
C5668 C5660 1.574 . S
C5668 H5663 0.949 . S
C5668 C5674 1.368 . S
C5669 C5653 1.349 . S
C5669 H5661 0.950 . S
C5669 C5667 1.283 1_455 S
C5670 C5658 1.349 . S
C5670 H5664 0.950 . S
C5670 C5671 1.327 . S
C5671 H5665 0.950 . S
C5671 C5670 1.327 . S
C5671 C5675 1.429 . S
C5672 C5655 1.574 . S
C5672 H5666 0.949 . S
C5672 C5676 1.368 . S
C5673 C5654 1.429 1_655 S
C5673 C5667 1.436 . S
C5673 C5674 1.523 . S
C5674 C5655 1.368 . S
C5674 C5668 1.368 . S
C5674 C5673 1.523 . S
C5675 C5659 1.429 . S
C5675 C5671 1.429 . S
C5675 C5676 1.523 . S
C5676 C5660 1.368 . S
C5676 C5672 1.368 . S
C5676 C5675 1.523 . S
H5677 C5652 0.950 . S
H5678 C5654 0.950 . S
H5679 C5655 0.949 . S
H5680 C5657 0.950 . S
H5681 C5659 0.950 . S
C5682 C5683 1.349 . S
C5682 C5684 1.327 . S
C5682 H5707 0.950 . S
C5683 C5682 1.349 . S
C5683 C5699 1.349 . S
C5684 C5682 1.327 . S
C5684 C5703 1.429 . S
C5684 H5708 0.950 . S
C5685 C5702 1.574 . S
C5685 C5704 1.368 . S
C5685 H5709 0.949 . S
H5686 C5690 0.949 . S
C5687 C5688 1.349 . S
C5687 C5689 1.327 . S
C5687 H5710 0.950 . S
C5688 C5687 1.349 . S
C5688 C5700 1.349 . S
C5689 C5687 1.327 . S
C5689 C5705 1.429 . S
C5689 H5711 0.950 . S
C5690 H5686 0.949 . S
C5690 C5698 1.574 . S
C5690 C5706 1.368 . S
H5691 C5699 0.950 . S
H5692 C5697 0.950 . S
H5693 C5698 0.949 . S
H5694 C5700 0.950 . S
H5695 C5701 0.950 . S
H5696 C5702 0.949 . S
C5697 H5692 0.950 . S
C5697 C5699 1.327 . S
C5697 C5703 1.429 . S
C5698 C5690 1.574 . S
C5698 H5693 0.949 . S
C5698 C5704 1.368 . S
C5699 C5683 1.349 . S
C5699 H5691 0.950 . S
C5699 C5697 1.327 . S
C5700 C5688 1.349 . S
C5700 H5694 0.950 . S
C5700 C5701 1.327 . S
C5701 H5695 0.950 . S
C5701 C5700 1.327 . S
C5701 C5705 1.429 . S
C5702 C5685 1.574 . S
C5702 H5696 0.949 . S
C5702 C5706 1.368 . S
C5703 C5684 1.429 . S
C5703 C5697 1.429 . S
C5703 C5704 1.523 . S
C5704 C5685 1.368 . S
C5704 C5698 1.368 . S
C5704 C5703 1.523 . S
C5705 C5689 1.429 . S
C5705 C5701 1.429 . S
C5705 C5706 1.523 . S
C5706 C5690 1.368 . S
C5706 C5702 1.368 . S
C5706 C5705 1.523 . S
H5707 C5682 0.950 . S
H5708 C5684 0.950 . S
H5709 C5685 0.949 . S
H5710 C5687 0.950 . S
H5711 C5689 0.950 . S
C5712 C5713 1.349 . S
C5712 C5714 1.327 . S
C5712 H5737 0.950 . S
C5713 C5712 1.349 . S
C5713 C5729 1.349 . S
C5714 C5712 1.327 . S
C5714 C5733 1.429 . S
C5714 H5738 0.950 . S
C5715 C5732 1.574 . S
C5715 C5734 1.368 . S
C5715 H5739 0.949 . S
H5716 C5720 0.949 . S
C5717 C5718 1.349 . S
C5717 C5719 1.327 . S
C5717 H5740 0.950 . S
C5718 C5717 1.349 . S
C5718 C5730 1.349 . S
C5719 C5717 1.327 . S
C5719 C5735 1.429 . S
C5719 H5741 0.950 . S
C5720 H5716 0.949 . S
C5720 C5728 1.574 . S
C5720 C5736 1.368 . S
H5721 C5729 0.950 . S
H5722 C5727 0.950 . S
H5723 C5728 0.949 . S
H5724 C5730 0.950 . S
H5725 C5731 0.950 . S
H5726 C5732 0.949 . S
C5727 H5722 0.950 . S
C5727 C5729 1.327 . S
C5727 C5733 1.429 . S
C5728 C5720 1.574 . S
C5728 H5723 0.949 . S
C5728 C5734 1.368 . S
C5729 C5713 1.349 . S
C5729 H5721 0.950 . S
C5729 C5727 1.327 . S
C5730 C5718 1.349 . S
C5730 H5724 0.950 . S
C5730 C5731 1.327 . S
C5731 H5725 0.950 . S
C5731 C5730 1.327 . S
C5731 C5735 1.429 . S
C5732 C5715 1.574 . S
C5732 H5726 0.949 . S
C5732 C5736 1.368 . S
C5733 C5714 1.429 . S
C5733 C5727 1.429 . S
C5733 C5734 1.523 . S
C5734 C5715 1.368 . S
C5734 C5728 1.368 . S
C5734 C5733 1.523 . S
C5735 C5719 1.429 . S
C5735 C5731 1.429 . S
C5735 C5736 1.523 . S
C5736 C5720 1.368 . S
C5736 C5732 1.368 . S
C5736 C5735 1.523 . S
H5737 C5712 0.950 . S
H5738 C5714 0.950 . S
H5739 C5715 0.949 . S
H5740 C5717 0.950 . S
H5741 C5719 0.950 . S
C5742 C5743 1.349 . S
C5742 C5744 1.327 . S
C5742 H5767 0.950 . S
C5743 C5742 1.349 . S
C5743 C5759 1.349 1_455 S
C5744 C5742 1.327 . S
C5744 C5763 1.429 1_455 S
C5744 H5768 0.950 . S
C5745 C5762 1.574 . S
C5745 C5764 1.368 . S
C5745 H5769 0.949 . S
H5746 C5750 0.949 . S
C5747 C5748 1.349 . S
C5747 C5749 1.327 . S
C5747 H5770 0.950 . S
C5748 C5747 1.349 . S
C5748 C5760 1.349 . S
C5749 C5747 1.327 . S
C5749 C5765 1.429 . S
C5749 H5771 0.950 . S
C5750 H5746 0.949 . S
C5750 C5758 1.574 . S
C5750 C5766 1.368 . S
H5751 C5759 0.950 . S
H5752 C5757 0.950 . S
H5753 C5758 0.949 . S
H5754 C5760 0.950 . S
H5755 C5761 0.950 . S
H5756 C5762 0.949 . S
C5757 H5752 0.950 . S
C5757 C5759 1.327 . S
C5757 C5763 1.429 . S
C5758 C5750 1.574 . S
C5758 H5753 0.949 . S
C5758 C5764 1.368 . S
C5759 C5743 1.349 1_655 S
C5759 H5751 0.950 . S
C5759 C5757 1.327 . S
C5760 C5748 1.349 . S
C5760 H5754 0.950 . S
C5760 C5761 1.327 . S
C5761 H5755 0.950 . S
C5761 C5760 1.327 . S
C5761 C5765 1.429 . S
C5762 C5745 1.574 . S
C5762 H5756 0.949 . S
C5762 C5766 1.368 . S
C5763 C5744 1.429 1_655 S
C5763 C5757 1.429 . S
C5763 C5764 1.523 . S
C5764 C5745 1.368 . S
C5764 C5758 1.368 . S
C5764 C5763 1.523 . S
C5765 C5749 1.429 . S
C5765 C5761 1.429 . S
C5765 C5766 1.523 . S
C5766 C5750 1.368 . S
C5766 C5762 1.368 . S
C5766 C5765 1.523 . S
H5767 C5742 0.950 . S
H5768 C5744 0.950 . S
H5769 C5745 0.949 . S
H5770 C5747 0.950 . S
H5771 C5749 0.950 . S
C5772 C5773 1.349 . S
C5772 C5774 1.327 . S
C5772 H5797 0.950 . S
C5773 C5772 1.349 . S
C5773 C5789 1.349 1_545 S
C5774 C5772 1.327 . S
C5774 C5793 1.429 1_545 S
C5774 H5798 0.950 . S
C5775 C5792 1.574 . S
C5775 C5794 1.368 . S
C5775 H5799 0.949 . S
H5776 C5780 0.949 . S
C5777 C5778 1.349 . S
C5777 C5779 1.327 . S
C5777 H5800 0.950 . S
C5778 C5777 1.349 . S
C5778 C5790 1.349 . S
C5779 C5777 1.327 . S
C5779 C5795 1.429 . S
C5779 H5801 0.950 . S
C5780 H5776 0.949 . S
C5780 C5788 1.574 . S
C5780 C5796 1.368 . S
H5781 C5789 0.950 . S
H5782 C5787 0.950 . S
H5783 C5788 0.949 . S
H5784 C5790 0.950 . S
H5785 C5791 0.950 . S
H5786 C5792 0.949 . S
C5787 H5782 0.950 . S
C5787 C5789 1.327 . S
C5787 C5793 1.429 . S
C5788 C5780 1.574 . S
C5788 H5783 0.949 . S
C5788 C5794 1.368 . S
C5789 C5773 1.349 1_565 S
C5789 H5781 0.950 . S
C5789 C5787 1.327 . S
C5790 C5778 1.349 . S
C5790 H5784 0.950 . S
C5790 C5791 1.327 . S
C5791 H5785 0.950 . S
C5791 C5790 1.327 . S
C5791 C5795 1.429 . S
C5792 C5775 1.574 . S
C5792 H5786 0.949 . S
C5792 C5796 1.368 . S
C5793 C5774 1.429 1_565 S
C5793 C5787 1.429 . S
C5793 C5794 1.523 . S
C5794 C5775 1.368 . S
C5794 C5788 1.368 . S
C5794 C5793 1.523 . S
C5795 C5779 1.429 . S
C5795 C5791 1.429 . S
C5795 C5796 1.523 . S
C5796 C5780 1.368 . S
C5796 C5792 1.368 . S
C5796 C5795 1.523 . S
H5797 C5772 0.950 . S
H5798 C5774 0.950 . S
H5799 C5775 0.949 . S
H5800 C5777 0.950 . S
H5801 C5779 0.950 . S
C5802 C5803 1.349 . S
C5802 C5804 1.327 . S
C5802 H5827 0.950 . S
C5803 C5802 1.349 . S
C5803 C5819 1.349 . S
C5804 C5802 1.327 . S
C5804 C5823 1.429 . S
C5804 H5828 0.950 . S
C5805 C5822 1.574 . S
C5805 C5824 1.368 . S
C5805 H5829 0.949 . S
H5806 C5810 0.949 . S
C5807 C5808 1.349 . S
C5807 C5809 1.327 . S
C5807 H5830 0.950 . S
C5808 C5807 1.349 . S
C5808 C5820 1.349 . S
C5809 C5807 1.327 . S
C5809 C5825 1.429 . S
C5809 H5831 0.950 . S
C5810 H5806 0.949 . S
C5810 C5818 1.574 . S
C5810 C5826 1.368 . S
H5811 C5819 0.950 . S
H5812 C5817 0.950 . S
H5813 C5818 0.949 . S
H5814 C5820 0.950 . S
H5815 C5821 0.950 . S
H5816 C5822 0.949 . S
C5817 H5812 0.950 . S
C5817 C5819 1.327 . S
C5817 C5823 1.429 . S
C5818 C5810 1.574 . S
C5818 H5813 0.949 . S
C5818 C5824 1.368 . S
C5819 C5803 1.349 . S
C5819 H5811 0.950 . S
C5819 C5817 1.327 . S
C5820 C5808 1.349 . S
C5820 H5814 0.950 . S
C5820 C5821 1.327 . S
C5821 H5815 0.950 . S
C5821 C5820 1.327 . S
C5821 C5825 1.429 . S
C5822 C5805 1.574 . S
C5822 H5816 0.949 . S
C5822 C5826 1.368 . S
C5823 C5804 1.429 . S
C5823 C5817 1.429 . S
C5823 C5824 1.523 . S
C5824 C5805 1.368 . S
C5824 C5818 1.368 . S
C5824 C5823 1.523 . S
C5825 C5809 1.429 . S
C5825 C5821 1.429 . S
C5825 C5826 1.523 . S
C5826 C5810 1.368 . S
C5826 C5822 1.368 . S
C5826 C5825 1.523 . S
H5827 C5802 0.950 . S
H5828 C5804 0.950 . S
H5829 C5805 0.949 . S
H5830 C5807 0.950 . S
H5831 C5809 0.950 . S
C5832 C5833 1.349 . S
C5832 C5834 1.327 . S
C5832 H5857 0.950 . S
C5833 C5832 1.349 . S
C5833 C5849 1.349 1_545 S
C5834 C5832 1.327 . S
C5834 C5853 1.429 1_545 S
C5834 H5858 0.950 . S
C5835 C5852 1.574 . S
C5835 C5854 1.368 . S
C5835 H5859 0.949 . S
H5836 C5840 0.949 . S
C5837 C5838 1.349 . S
C5837 C5839 1.327 . S
C5837 H5860 0.950 . S
C5838 C5837 1.349 . S
C5838 C5850 1.349 . S
C5839 C5837 1.327 . S
C5839 C5855 1.429 . S
C5839 H5861 0.950 . S
C5840 H5836 0.949 . S
C5840 C5848 1.574 . S
C5840 C5856 1.368 . S
H5841 C5849 0.950 . S
H5842 C5847 0.950 . S
H5843 C5848 0.949 . S
H5844 C5850 0.950 . S
H5845 C5851 0.950 . S
H5846 C5852 0.949 . S
C5847 H5842 0.950 . S
C5847 C5849 1.327 . S
C5847 C5853 1.429 . S
C5848 C5840 1.574 . S
C5848 H5843 0.949 . S
C5848 C5854 1.368 . S
C5849 C5833 1.349 1_565 S
C5849 H5841 0.950 . S
C5849 C5847 1.327 . S
C5850 C5838 1.349 . S
C5850 H5844 0.950 . S
C5850 C5851 1.327 . S
C5851 H5845 0.950 . S
C5851 C5850 1.327 . S
C5851 C5855 1.429 . S
C5852 C5835 1.574 . S
C5852 H5846 0.949 . S
C5852 C5856 1.368 . S
C5853 C5834 1.429 1_565 S
C5853 C5847 1.429 . S
C5853 C5854 1.523 . S
C5854 C5835 1.368 . S
C5854 C5848 1.368 . S
C5854 C5853 1.523 . S
C5855 C5839 1.429 . S
C5855 C5851 1.429 . S
C5855 C5856 1.523 . S
C5856 C5840 1.368 . S
C5856 C5852 1.368 . S
C5856 C5855 1.523 . S
H5857 C5832 0.950 . S
H5858 C5834 0.950 . S
H5859 C5835 0.949 . S
H5860 C5837 0.950 . S
H5861 C5839 0.950 . S
C5862 C5863 1.348 . S
C5862 C5864 1.327 . S
C5862 H5887 0.950 1_556 S
C5863 C5862 1.348 . S
C5863 C5879 1.345 . S
C5864 C5862 1.327 . S
C5864 C5883 1.429 . S
C5864 H5888 0.950 . S
C5865 C5882 1.574 . S
C5865 C5884 1.368 . S
C5865 H5889 0.949 . S
H5866 C5870 0.949 . S
C5867 C5868 1.349 . S
C5867 C5869 1.327 . S
C5867 H5890 0.950 . S
C5868 C5867 1.349 . S
C5868 C5880 1.349 . S
C5869 C5867 1.327 . S
C5869 C5885 1.429 . S
C5869 H5891 0.950 . S
C5870 H5866 0.949 . S
C5870 C5878 1.574 . S
C5870 C5886 1.368 . S
H5871 C5879 0.950 . S
H5872 C5877 0.950 . S
H5873 C5878 0.949 . S
H5874 C5880 0.950 . S
H5875 C5881 0.950 . S
H5876 C5882 0.949 . S
C5877 H5872 0.950 . S
C5877 C5879 1.327 . S
C5877 C5883 1.429 . S
C5878 C5870 1.574 . S
C5878 H5873 0.949 . S
C5878 C5884 1.368 . S
C5879 C5863 1.345 . S
C5879 H5871 0.950 . S
C5879 C5877 1.327 . S
C5880 C5868 1.349 . S
C5880 H5874 0.950 . S
C5880 C5881 1.327 . S
C5881 H5875 0.950 . S
C5881 C5880 1.327 . S
C5881 C5885 1.429 . S
C5882 C5865 1.574 . S
C5882 H5876 0.949 . S
C5882 C5886 1.368 . S
C5883 C5864 1.429 . S
C5883 C5877 1.429 . S
C5883 C5884 1.523 . S
C5884 C5865 1.368 . S
C5884 C5878 1.368 . S
C5884 C5883 1.523 . S
C5885 C5869 1.429 . S
C5885 C5881 1.429 . S
C5885 C5886 1.523 . S
C5886 C5870 1.368 . S
C5886 C5882 1.368 . S
C5886 C5885 1.523 . S
H5887 C5862 0.950 1_554 S
H5888 C5864 0.950 . S
H5889 C5865 0.949 . S
H5890 C5867 0.950 . S
H5891 C5869 0.950 . S
C5892 C5893 1.349 . S
C5892 C5894 1.327 . S
C5892 H5917 0.950 . S
C5893 C5892 1.349 . S
C5893 C5909 1.349 . S
C5894 C5892 1.327 . S
C5894 C5913 1.429 . S
C5894 H5918 0.950 . S
C5895 C5912 1.574 . S
C5895 C5914 1.368 . S
C5895 H5919 0.949 . S
H5896 C5900 0.949 . S
C5897 C5898 1.349 . S
C5897 C5899 1.327 . S
C5897 H5920 0.950 . S
C5898 C5897 1.349 . S
C5898 C5910 1.349 . S
C5899 C5897 1.327 . S
C5899 C5915 1.429 . S
C5899 H5921 0.950 . S
C5900 H5896 0.949 . S
C5900 C5908 1.574 . S
C5900 C5916 1.368 . S
H5901 C5909 0.950 . S
H5902 C5907 0.950 . S
H5903 C5908 0.949 . S
H5904 C5910 0.950 . S
H5905 C5911 0.950 . S
H5906 C5912 0.949 . S
C5907 H5902 0.950 . S
C5907 C5909 1.327 . S
C5907 C5913 1.429 . S
C5908 C5900 1.574 . S
C5908 H5903 0.949 . S
C5908 C5914 1.368 . S
C5909 C5893 1.349 . S
C5909 H5901 0.950 . S
C5909 C5907 1.327 . S
C5910 C5898 1.349 . S
C5910 H5904 0.950 . S
C5910 C5911 1.327 . S
C5911 H5905 0.950 . S
C5911 C5910 1.327 . S
C5911 C5915 1.429 . S
C5912 C5895 1.574 . S
C5912 H5906 0.949 . S
C5912 C5916 1.368 . S
C5913 C5894 1.429 . S
C5913 C5907 1.429 . S
C5913 C5914 1.523 . S
C5914 C5895 1.368 . S
C5914 C5908 1.368 . S
C5914 C5913 1.523 . S
C5915 C5899 1.429 . S
C5915 C5911 1.429 . S
C5915 C5916 1.523 . S
C5916 C5900 1.368 . S
C5916 C5912 1.368 . S
C5916 C5915 1.523 . S
H5917 C5892 0.950 . S
H5918 C5894 0.950 . S
H5919 C5895 0.949 . S
H5920 C5897 0.950 . S
H5921 C5899 0.950 . S
C5922 C5923 1.349 1_655 S
C5922 C5924 1.327 . S
C5922 H5947 0.950 . S
C5923 C5922 1.349 1_455 S
C5923 C5939 1.349 . S
C5924 C5922 1.327 . S
C5924 C5943 1.429 . S
C5924 H5948 0.950 . S
C5925 C5942 1.574 . S
C5925 C5944 1.368 . S
C5925 H5949 0.949 . S
H5926 C5930 0.949 . S
C5927 C5928 1.349 . S
C5927 C5929 1.327 1_554 S
C5927 H5950 0.950 . S
C5928 C5927 1.349 . S
C5928 C5940 1.349 1_554 S
C5929 C5927 1.327 1_556 S
C5929 C5945 1.429 . S
C5929 H5951 0.950 . S
C5930 H5926 0.949 . S
C5930 C5938 1.574 . S
C5930 C5946 1.368 . S
H5931 C5939 0.950 . S
H5932 C5937 0.947 1_455 S
H5933 C5938 0.949 . S
H5934 C5940 0.950 . S
H5935 C5941 0.950 . S
H5936 C5942 0.949 . S
C5937 H5932 0.947 1_655 S
C5937 C5939 1.327 1_655 S
C5937 C5943 1.429 . S
C5938 C5930 1.574 . S
C5938 H5933 0.949 . S
C5938 C5944 1.368 . S
C5939 C5923 1.349 . S
C5939 H5931 0.950 . S
C5939 C5937 1.327 1_455 S
C5940 C5928 1.349 1_556 S
C5940 H5934 0.950 . S
C5940 C5941 1.327 . S
C5941 H5935 0.950 . S
C5941 C5940 1.327 . S
C5941 C5945 1.429 . S
C5942 C5925 1.574 . S
C5942 H5936 0.949 . S
C5942 C5946 1.368 . S
C5943 C5924 1.429 . S
C5943 C5937 1.429 . S
C5943 C5944 1.523 . S
C5944 C5925 1.368 . S
C5944 C5938 1.368 . S
C5944 C5943 1.523 . S
C5945 C5929 1.429 . S
C5945 C5941 1.429 . S
C5945 C5946 1.523 . S
C5946 C5930 1.368 . S
C5946 C5942 1.368 . S
C5946 C5945 1.523 . S
H5947 C5922 0.950 . S
H5948 C5924 0.950 . S
H5949 C5925 0.949 . S
H5950 C5927 0.950 . S
H5951 C5929 0.950 . S
C5952 C5953 1.349 . S
C5952 C5954 1.327 . S
C5952 H5977 0.950 . S
C5953 C5952 1.349 . S
C5953 C5969 1.349 . S
C5954 C5952 1.327 . S
C5954 C5973 1.429 . S
C5954 H5978 0.950 . S
C5955 C5972 1.574 . S
C5955 C5974 1.368 . S
C5955 H5979 0.949 . S
H5956 C5960 0.949 . S
C5957 C5958 1.349 . S
C5957 C5959 1.327 . S
C5957 H5980 0.950 . S
C5958 C5957 1.349 . S
C5958 C5970 1.349 . S
C5959 C5957 1.327 . S
C5959 C5975 1.429 . S
C5959 H5981 0.950 . S
C5960 H5956 0.949 . S
C5960 C5968 1.574 . S
C5960 C5976 1.368 . S
H5961 C5969 0.950 . S
H5962 C5967 0.950 . S
H5963 C5968 0.949 . S
H5964 C5970 0.950 . S
H5965 C5971 0.950 . S
H5966 C5972 0.949 . S
C5967 H5962 0.950 . S
C5967 C5969 1.327 . S
C5967 C5973 1.429 . S
C5968 C5960 1.574 . S
C5968 H5963 0.949 . S
C5968 C5974 1.368 . S
C5969 C5953 1.349 . S
C5969 H5961 0.950 . S
C5969 C5967 1.327 . S
C5970 C5958 1.349 . S
C5970 H5964 0.950 . S
C5970 C5971 1.327 . S
C5971 H5965 0.950 . S
C5971 C5970 1.327 . S
C5971 C5975 1.429 . S
C5972 C5955 1.574 . S
C5972 H5966 0.949 . S
C5972 C5976 1.368 . S
C5973 C5954 1.429 . S
C5973 C5967 1.429 . S
C5973 C5974 1.523 . S
C5974 C5955 1.368 . S
C5974 C5968 1.368 . S
C5974 C5973 1.523 . S
C5975 C5959 1.429 . S
C5975 C5971 1.429 . S
C5975 C5976 1.523 . S
C5976 C5960 1.368 . S
C5976 C5972 1.368 . S
C5976 C5975 1.523 . S
H5977 C5952 0.950 . S
H5978 C5954 0.950 . S
H5979 C5955 0.949 . S
H5980 C5957 0.950 . S
H5981 C5959 0.950 . S
C5982 C5983 1.349 . S
C5982 C5984 1.327 . S
C5982 H6007 0.950 . S
C5983 C5982 1.349 . S
C5983 C5999 1.349 . S
C5984 C5982 1.327 . S
C5984 C6003 1.429 . S
C5984 H6008 0.950 . S
C5985 C6002 1.574 . S
C5985 C6004 1.368 . S
C5985 H6009 0.949 . S
H5986 C5990 0.949 . S
C5987 C5988 1.349 . S
C5987 C5989 1.327 . S
C5987 H6010 0.950 . S
C5988 C5987 1.349 . S
C5988 C6000 1.349 . S
C5989 C5987 1.327 . S
C5989 C6005 1.429 . S
C5989 H6011 0.950 . S
C5990 H5986 0.949 . S
C5990 C5998 1.574 . S
C5990 C6006 1.368 . S
H5991 C5999 0.950 . S
H5992 C5997 0.950 . S
H5993 C5998 0.949 . S
H5994 C6000 0.950 . S
H5995 C6001 0.950 . S
H5996 C6002 0.949 . S
C5997 H5992 0.950 . S
C5997 C5999 1.327 . S
C5997 C6003 1.429 . S
C5998 C5990 1.574 . S
C5998 H5993 0.949 . S
C5998 C6004 1.368 . S
C5999 C5983 1.349 . S
C5999 H5991 0.950 . S
C5999 C5997 1.327 . S
C6000 C5988 1.349 . S
C6000 H5994 0.950 . S
C6000 C6001 1.327 . S
C6001 H5995 0.950 . S
C6001 C6000 1.327 . S
C6001 C6005 1.429 . S
C6002 C5985 1.574 . S
C6002 H5996 0.949 . S
C6002 C6006 1.368 . S
C6003 C5984 1.429 . S
C6003 C5997 1.429 . S
C6003 C6004 1.523 . S
C6004 C5985 1.368 . S
C6004 C5998 1.368 . S
C6004 C6003 1.523 . S
C6005 C5989 1.429 . S
C6005 C6001 1.429 . S
C6005 C6006 1.523 . S
C6006 C5990 1.368 . S
C6006 C6002 1.368 . S
C6006 C6005 1.523 . S
H6007 C5982 0.950 . S
H6008 C5984 0.950 . S
H6009 C5985 0.949 . S
H6010 C5987 0.950 . S
H6011 C5989 0.950 . S
C6012 C6013 1.349 . S
C6012 C6014 1.298 1_554 S
C6012 H6037 0.950 . S
C6013 C6012 1.349 . S
C6013 C6029 1.349 1_554 S
C6014 C6012 1.298 1_556 S
C6014 C6033 1.462 . S
C6014 H6038 0.946 1_556 S
C6015 C6032 1.574 . S
C6015 C6034 1.368 . S
C6015 H6039 0.949 . S
H6016 C6020 0.949 . S
C6017 C6018 1.349 . S
C6017 C6019 1.327 . S
C6017 H6040 0.950 . S
C6018 C6017 1.349 . S
C6018 C6030 1.349 . S
C6019 C6017 1.327 . S
C6019 C6035 1.429 . S
C6019 H6041 0.950 . S
C6020 H6016 0.949 . S
C6020 C6028 1.574 . S
C6020 C6036 1.368 . S
H6021 C6029 0.950 . S
H6022 C6027 0.950 . S
H6023 C6028 0.949 . S
H6024 C6030 0.950 . S
H6025 C6031 0.950 . S
H6026 C6032 0.949 . S
C6027 H6022 0.950 . S
C6027 C6029 1.327 . S
C6027 C6033 1.429 . S
C6028 C6020 1.574 . S
C6028 H6023 0.949 . S
C6028 C6034 1.368 . S
C6029 C6013 1.349 1_556 S
C6029 H6021 0.950 . S
C6029 C6027 1.327 . S
C6030 C6018 1.349 . S
C6030 H6024 0.950 . S
C6030 C6031 1.327 . S
C6031 H6025 0.950 . S
C6031 C6030 1.327 . S
C6031 C6035 1.429 . S
C6032 C6015 1.574 . S
C6032 H6026 0.949 . S
C6032 C6036 1.368 . S
C6033 C6014 1.462 . S
C6033 C6027 1.429 . S
C6033 C6034 1.523 . S
C6034 C6015 1.368 . S
C6034 C6028 1.368 . S
C6034 C6033 1.523 . S
C6035 C6019 1.429 . S
C6035 C6031 1.429 . S
C6035 C6036 1.523 . S
C6036 C6020 1.368 . S
C6036 C6032 1.368 . S
C6036 C6035 1.523 . S
H6037 C6012 0.950 . S
H6038 C6014 0.946 1_554 S
H6039 C6015 0.949 . S
H6040 C6017 0.950 . S
H6041 C6019 0.950 . S
C6042 C6043 1.370 . S
C6042 C6044 1.303 1_455 S
C6042 H6067 0.954 . S
C6043 C6042 1.370 . S
C6043 C6059 1.349 . S
C6044 C6042 1.303 1_655 S
C6044 C6063 1.429 . S
C6044 H6068 0.950 . S
C6045 C6062 1.574 . S
C6045 C6064 1.368 . S
C6045 H6069 0.949 . S
H6046 C6050 0.949 . S
C6047 C6048 1.349 . S
C6047 C6049 1.327 . S
C6047 H6070 0.950 . S
C6048 C6047 1.349 . S
C6048 C6060 1.349 . S
C6049 C6047 1.327 . S
C6049 C6065 1.429 . S
C6049 H6071 0.950 . S
C6050 H6046 0.949 . S
C6050 C6058 1.574 . S
C6050 C6066 1.368 . S
H6051 C6059 0.950 . S
H6052 C6057 0.950 . S
H6053 C6058 0.949 . S
H6054 C6060 0.950 . S
H6055 C6061 0.950 . S
H6056 C6062 0.949 . S
C6057 H6052 0.950 . S
C6057 C6059 1.327 1_655 S
C6057 C6063 1.429 . S
C6058 C6050 1.574 . S
C6058 H6053 0.949 . S
C6058 C6064 1.368 . S
C6059 C6043 1.349 . S
C6059 H6051 0.950 . S
C6059 C6057 1.327 1_455 S
C6060 C6048 1.349 . S
C6060 H6054 0.950 . S
C6060 C6061 1.327 . S
C6061 H6055 0.950 . S
C6061 C6060 1.327 . S
C6061 C6065 1.429 . S
C6062 C6045 1.574 . S
C6062 H6056 0.949 . S
C6062 C6066 1.368 . S
C6063 C6044 1.429 . S
C6063 C6057 1.429 . S
C6063 C6064 1.523 . S
C6064 C6045 1.368 . S
C6064 C6058 1.368 . S
C6064 C6063 1.523 . S
C6065 C6049 1.429 . S
C6065 C6061 1.429 . S
C6065 C6066 1.523 . S
C6066 C6050 1.368 . S
C6066 C6062 1.368 . S
C6066 C6065 1.523 . S
H6067 C6042 0.954 . S
H6068 C6044 0.950 . S
H6069 C6045 0.949 . S
H6070 C6047 0.950 . S
H6071 C6049 0.950 . S
C6072 C6073 1.349 . S
C6072 C6074 1.327 . S
C6072 H6097 0.950 . S
C6073 C6072 1.349 . S
C6073 C6089 1.349 . S
C6074 C6072 1.327 . S
C6074 C6093 1.429 . S
C6074 H6098 0.950 . S
C6075 C6092 1.574 . S
C6075 C6094 1.368 . S
C6075 H6099 0.949 . S
H6076 C6080 0.949 . S
C6077 C6078 1.349 . S
C6077 C6079 1.327 . S
C6077 H6100 0.950 . S
C6078 C6077 1.349 . S
C6078 C6090 1.349 . S
C6079 C6077 1.327 . S
C6079 C6095 1.429 . S
C6079 H6101 0.950 . S
C6080 H6076 0.949 . S
C6080 C6088 1.574 . S
C6080 C6096 1.368 . S
H6081 C6089 0.950 1_545 S
H6082 C6087 0.950 . S
H6083 C6088 0.949 . S
H6084 C6090 0.950 . S
H6085 C6091 0.950 . S
H6086 C6092 0.949 . S
C6087 H6082 0.950 . S
C6087 C6089 1.327 . S
C6087 C6093 1.429 . S
C6088 C6080 1.574 . S
C6088 H6083 0.949 . S
C6088 C6094 1.368 . S
C6089 C6073 1.349 . S
C6089 H6081 0.950 1_565 S
C6089 C6087 1.327 . S
C6090 C6078 1.349 . S
C6090 H6084 0.950 . S
C6090 C6091 1.327 . S
C6091 H6085 0.950 . S
C6091 C6090 1.327 . S
C6091 C6095 1.429 . S
C6092 C6075 1.574 . S
C6092 H6086 0.949 . S
C6092 C6096 1.368 . S
C6093 C6074 1.429 . S
C6093 C6087 1.429 . S
C6093 C6094 1.523 . S
C6094 C6075 1.368 . S
C6094 C6088 1.368 . S
C6094 C6093 1.523 . S
C6095 C6079 1.429 . S
C6095 C6091 1.429 . S
C6095 C6096 1.523 . S
C6096 C6080 1.368 . S
C6096 C6092 1.368 . S
C6096 C6095 1.523 . S
H6097 C6072 0.950 . S
H6098 C6074 0.950 . S
H6099 C6075 0.949 . S
H6100 C6077 0.950 . S
H6101 C6079 0.950 . S
C6102 C6103 1.349 . S
C6102 C6104 1.327 . S
C6102 H6127 0.950 . S
C6103 C6102 1.349 . S
C6103 C6119 1.349 . S
C6104 C6102 1.327 . S
C6104 C6123 1.429 . S
C6104 H6128 0.950 . S
C6105 C6122 1.574 . S
C6105 C6124 1.368 . S
C6105 H6129 0.949 . S
H6106 C6110 0.949 . S
C6107 C6108 1.349 . S
C6107 C6109 1.327 . S
C6107 H6130 0.950 . S
C6108 C6107 1.349 . S
C6108 C6120 1.349 . S
C6109 C6107 1.327 . S
C6109 C6125 1.429 . S
C6109 H6131 0.950 . S
C6110 H6106 0.949 . S
C6110 C6118 1.574 . S
C6110 C6126 1.368 . S
H6111 C6119 0.950 1_455 S
H6112 C6117 0.950 . S
H6113 C6118 0.949 . S
H6114 C6120 0.950 . S
H6115 C6121 0.950 . S
H6116 C6122 0.949 . S
C6117 H6112 0.950 . S
C6117 C6119 1.327 . S
C6117 C6123 1.429 . S
C6118 C6110 1.574 . S
C6118 H6113 0.949 . S
C6118 C6124 1.368 . S
C6119 C6103 1.349 . S
C6119 H6111 0.950 1_655 S
C6119 C6117 1.327 . S
C6120 C6108 1.349 . S
C6120 H6114 0.950 . S
C6120 C6121 1.327 . S
C6121 H6115 0.950 . S
C6121 C6120 1.327 . S
C6121 C6125 1.429 . S
C6122 C6105 1.574 . S
C6122 H6116 0.949 . S
C6122 C6126 1.368 . S
C6123 C6104 1.429 . S
C6123 C6117 1.429 . S
C6123 C6124 1.523 . S
C6124 C6105 1.368 . S
C6124 C6118 1.368 . S
C6124 C6123 1.523 . S
C6125 C6109 1.429 . S
C6125 C6121 1.429 . S
C6125 C6126 1.523 . S
C6126 C6110 1.368 . S
C6126 C6122 1.368 . S
C6126 C6125 1.523 . S
H6127 C6102 0.950 . S
H6128 C6104 0.950 . S
H6129 C6105 0.949 . S
H6130 C6107 0.950 . S
H6131 C6109 0.950 . S
C6132 C6133 1.349 . S
C6132 C6134 1.327 1_545 S
C6132 H6157 0.950 . S
C6133 C6132 1.349 . S
C6133 C6149 1.349 . S
C6134 C6132 1.327 1_565 S
C6134 C6153 1.429 . S
C6134 H6158 0.950 . S
C6135 C6152 1.574 . S
C6135 C6154 1.368 . S
C6135 H6159 0.949 . S
H6136 C6140 0.949 . S
C6137 C6138 1.349 . S
C6137 C6139 1.327 . S
C6137 H6160 0.950 . S
C6138 C6137 1.349 . S
C6138 C6150 1.349 . S
C6139 C6137 1.327 . S
C6139 C6155 1.429 . S
C6139 H6161 0.950 . S
C6140 H6136 0.949 . S
C6140 C6148 1.574 . S
C6140 C6156 1.368 . S
H6141 C6149 0.950 . S
H6142 C6147 0.950 . S
H6143 C6148 0.949 . S
H6144 C6150 0.950 . S
H6145 C6151 0.950 . S
H6146 C6152 0.949 . S
C6147 H6142 0.950 . S
C6147 C6149 1.327 . S
C6147 C6153 1.429 1_545 S
C6148 C6140 1.574 . S
C6148 H6143 0.949 . S
C6148 C6154 1.368 . S
C6149 C6133 1.349 . S
C6149 H6141 0.950 . S
C6149 C6147 1.327 . S
C6150 C6138 1.349 . S
C6150 H6144 0.950 . S
C6150 C6151 1.327 . S
C6151 H6145 0.950 . S
C6151 C6150 1.327 . S
C6151 C6155 1.429 . S
C6152 C6135 1.574 . S
C6152 H6146 0.949 . S
C6152 C6156 1.368 . S
C6153 C6134 1.429 . S
C6153 C6147 1.429 1_565 S
C6153 C6154 1.523 . S
C6154 C6135 1.368 . S
C6154 C6148 1.368 . S
C6154 C6153 1.523 . S
C6155 C6139 1.429 . S
C6155 C6151 1.429 . S
C6155 C6156 1.523 . S
C6156 C6140 1.368 . S
C6156 C6152 1.368 . S
C6156 C6155 1.523 . S
H6157 C6132 0.950 . S
H6158 C6134 0.950 . S
H6159 C6135 0.949 . S
H6160 C6137 0.950 . S
H6161 C6139 0.950 . S
C6162 C6163 1.349 . S
C6162 C6164 1.327 . S
C6162 H6187 0.950 . S
C6163 C6162 1.349 . S
C6163 C6179 1.349 . S
C6164 C6162 1.327 . S
C6164 C6183 1.429 . S
C6164 H6188 0.950 . S
C6165 C6182 1.574 . S
C6165 C6184 1.368 . S
C6165 H6189 0.949 . S
H6166 C6170 0.949 . S
C6167 C6168 1.349 . S
C6167 C6169 1.327 . S
C6167 H6190 0.950 . S
C6168 C6167 1.349 . S
C6168 C6180 1.349 . S
C6169 C6167 1.327 . S
C6169 C6185 1.429 . S
C6169 H6191 0.950 . S
C6170 H6166 0.949 . S
C6170 C6178 1.574 . S
C6170 C6186 1.368 . S
H6171 C6179 0.950 . S
H6172 C6177 0.950 . S
H6173 C6178 0.949 . S
H6174 C6180 0.950 . S
H6175 C6181 0.950 . S
H6176 C6182 0.949 . S
C6177 H6172 0.950 . S
C6177 C6179 1.327 . S
C6177 C6183 1.429 . S
C6178 C6170 1.574 . S
C6178 H6173 0.949 . S
C6178 C6184 1.368 . S
C6179 C6163 1.349 . S
C6179 H6171 0.950 . S
C6179 C6177 1.327 . S
C6180 C6168 1.349 . S
C6180 H6174 0.950 . S
C6180 C6181 1.327 . S
C6181 H6175 0.950 . S
C6181 C6180 1.327 . S
C6181 C6185 1.429 . S
C6182 C6165 1.574 . S
C6182 H6176 0.949 . S
C6182 C6186 1.368 . S
C6183 C6164 1.429 . S
C6183 C6177 1.429 . S
C6183 C6184 1.523 . S
C6184 C6165 1.368 . S
C6184 C6178 1.368 . S
C6184 C6183 1.523 . S
C6185 C6169 1.429 . S
C6185 C6181 1.429 . S
C6185 C6186 1.523 . S
C6186 C6170 1.368 . S
C6186 C6182 1.368 . S
C6186 C6185 1.523 . S
H6187 C6162 0.950 . S
H6188 C6164 0.950 . S
H6189 C6165 0.949 . S
H6190 C6167 0.950 . S
H6191 C6169 0.950 . S
C6192 C6193 1.349 . S
C6192 C6194 1.327 . S
C6192 H6217 0.950 . S
C6193 C6192 1.349 . S
C6193 C6209 1.349 . S
C6194 C6192 1.327 . S
C6194 C6213 1.429 . S
C6194 H6218 0.950 . S
C6195 C6212 1.574 . S
C6195 C6214 1.368 . S
C6195 H6219 0.949 . S
H6196 C6200 0.949 . S
C6197 C6198 1.349 . S
C6197 C6199 1.327 . S
C6197 H6220 0.950 . S
C6198 C6197 1.349 . S
C6198 C6210 1.349 . S
C6199 C6197 1.327 . S
C6199 C6215 1.429 . S
C6199 H6221 0.950 . S
C6200 H6196 0.949 . S
C6200 C6208 1.574 . S
C6200 C6216 1.368 . S
H6201 C6209 0.950 . S
H6202 C6207 0.950 . S
H6203 C6208 0.949 . S
H6204 C6210 0.950 . S
H6205 C6211 0.950 . S
H6206 C6212 0.949 . S
C6207 H6202 0.950 . S
C6207 C6209 1.327 . S
C6207 C6213 1.429 . S
C6208 C6200 1.574 . S
C6208 H6203 0.949 . S
C6208 C6214 1.368 . S
C6209 C6193 1.349 . S
C6209 H6201 0.950 . S
C6209 C6207 1.327 . S
C6210 C6198 1.349 . S
C6210 H6204 0.950 . S
C6210 C6211 1.327 . S
C6211 H6205 0.950 . S
C6211 C6210 1.327 . S
C6211 C6215 1.429 . S
C6212 C6195 1.574 . S
C6212 H6206 0.949 . S
C6212 C6216 1.368 . S
C6213 C6194 1.429 . S
C6213 C6207 1.429 . S
C6213 C6214 1.523 . S
C6214 C6195 1.368 . S
C6214 C6208 1.368 . S
C6214 C6213 1.523 . S
C6215 C6199 1.429 . S
C6215 C6211 1.429 . S
C6215 C6216 1.523 . S
C6216 C6200 1.368 . S
C6216 C6212 1.368 . S
C6216 C6215 1.523 . S
H6217 C6192 0.950 . S
H6218 C6194 0.950 . S
H6219 C6195 0.949 . S
H6220 C6197 0.950 . S
H6221 C6199 0.950 . S
C6222 C6223 1.349 . S
C6222 C6224 1.327 . S
C6222 H6247 0.950 . S
C6223 C6222 1.349 . S
C6223 C6239 1.349 . S
C6224 C6222 1.327 . S
C6224 C6243 1.429 . S
C6224 H6248 0.950 . S
C6225 C6242 1.574 . S
C6225 C6244 1.368 . S
C6225 H6249 0.949 . S
H6226 C6230 0.949 . S
C6227 C6228 1.349 . S
C6227 C6229 1.327 . S
C6227 H6250 0.950 . S
C6228 C6227 1.349 . S
C6228 C6240 1.349 . S
C6229 C6227 1.327 . S
C6229 C6245 1.429 . S
C6229 H6251 0.950 . S
C6230 H6226 0.949 . S
C6230 C6238 1.574 . S
C6230 C6246 1.368 . S
H6231 C6239 0.950 . S
H6232 C6237 0.950 . S
H6233 C6238 0.949 . S
H6234 C6240 0.950 . S
H6235 C6241 0.950 . S
H6236 C6242 0.949 . S
C6237 H6232 0.950 . S
C6237 C6239 1.327 . S
C6237 C6243 1.429 . S
C6238 C6230 1.574 . S
C6238 H6233 0.949 . S
C6238 C6244 1.368 . S
C6239 C6223 1.349 . S
C6239 H6231 0.950 . S
C6239 C6237 1.327 . S
C6240 C6228 1.349 . S
C6240 H6234 0.950 . S
C6240 C6241 1.327 . S
C6241 H6235 0.950 . S
C6241 C6240 1.327 . S
C6241 C6245 1.429 . S
C6242 C6225 1.574 . S
C6242 H6236 0.949 . S
C6242 C6246 1.368 . S
C6243 C6224 1.429 . S
C6243 C6237 1.429 . S
C6243 C6244 1.523 . S
C6244 C6225 1.368 . S
C6244 C6238 1.368 . S
C6244 C6243 1.523 . S
C6245 C6229 1.429 . S
C6245 C6241 1.429 . S
C6245 C6246 1.523 . S
C6246 C6230 1.368 . S
C6246 C6242 1.368 . S
C6246 C6245 1.523 . S
H6247 C6222 0.950 . S
H6248 C6224 0.950 . S
H6249 C6225 0.949 . S
H6250 C6227 0.950 . S
H6251 C6229 0.950 . S
C6252 C6253 1.349 . S
C6252 C6254 1.327 . S
C6252 H6277 0.950 . S
C6253 C6252 1.349 . S
C6253 C6269 1.349 . S
C6254 C6252 1.327 . S
C6254 C6273 1.429 . S
C6254 H6278 0.950 . S
C6255 C6272 1.574 . S
C6255 C6274 1.368 . S
C6255 H6279 0.949 . S
H6256 C6260 0.949 . S
C6257 C6258 1.349 . S
C6257 C6259 1.327 . S
C6257 H6280 0.950 . S
C6258 C6257 1.349 . S
C6258 C6270 1.349 . S
C6259 C6257 1.327 . S
C6259 C6275 1.429 . S
C6259 H6281 0.950 . S
C6260 H6256 0.949 . S
C6260 C6268 1.574 . S
C6260 C6276 1.368 . S
H6261 C6269 0.950 . S
H6262 C6267 0.950 . S
H6263 C6268 0.949 . S
H6264 C6270 0.950 . S
H6265 C6271 0.950 . S
H6266 C6272 0.949 . S
C6267 H6262 0.950 . S
C6267 C6269 1.327 . S
C6267 C6273 1.429 . S
C6268 C6260 1.574 . S
C6268 H6263 0.949 . S
C6268 C6274 1.368 . S
C6269 C6253 1.349 . S
C6269 H6261 0.950 . S
C6269 C6267 1.327 . S
C6270 C6258 1.349 . S
C6270 H6264 0.950 . S
C6270 C6271 1.327 . S
C6271 H6265 0.950 . S
C6271 C6270 1.327 . S
C6271 C6275 1.429 . S
C6272 C6255 1.574 . S
C6272 H6266 0.949 . S
C6272 C6276 1.368 . S
C6273 C6254 1.429 . S
C6273 C6267 1.429 . S
C6273 C6274 1.523 . S
C6274 C6255 1.368 . S
C6274 C6268 1.368 . S
C6274 C6273 1.523 . S
C6275 C6259 1.429 . S
C6275 C6271 1.429 . S
C6275 C6276 1.523 . S
C6276 C6260 1.368 . S
C6276 C6272 1.368 . S
C6276 C6275 1.523 . S
H6277 C6252 0.950 . S
H6278 C6254 0.950 . S
H6279 C6255 0.949 . S
H6280 C6257 0.950 . S
H6281 C6259 0.950 . S
C6282 C6283 1.349 . S
C6282 C6284 1.327 . S
C6282 H6307 0.950 . S
C6283 C6282 1.349 . S
C6283 C6299 1.349 . S
C6284 C6282 1.327 . S
C6284 C6303 1.429 . S
C6284 H6308 0.950 . S
C6285 C6302 1.574 . S
C6285 C6304 1.368 . S
C6285 H6309 0.949 . S
H6286 C6290 0.949 . S
C6287 C6288 1.349 . S
C6287 C6289 1.327 . S
C6287 H6310 0.950 . S
C6288 C6287 1.349 . S
C6288 C6300 1.349 . S
C6289 C6287 1.327 . S
C6289 C6305 1.429 . S
C6289 H6311 0.950 . S
C6290 H6286 0.949 . S
C6290 C6298 1.574 . S
C6290 C6306 1.368 . S
H6291 C6299 0.950 . S
H6292 C6297 0.950 . S
H6293 C6298 0.949 . S
H6294 C6300 0.950 . S
H6295 C6301 0.950 . S
H6296 C6302 0.949 . S
C6297 H6292 0.950 . S
C6297 C6299 1.327 . S
C6297 C6303 1.429 . S
C6298 C6290 1.574 . S
C6298 H6293 0.949 . S
C6298 C6304 1.368 . S
C6299 C6283 1.349 . S
C6299 H6291 0.950 . S
C6299 C6297 1.327 . S
C6300 C6288 1.349 . S
C6300 H6294 0.950 . S
C6300 C6301 1.327 . S
C6301 H6295 0.950 . S
C6301 C6300 1.327 . S
C6301 C6305 1.429 . S
C6302 C6285 1.574 . S
C6302 H6296 0.949 . S
C6302 C6306 1.368 . S
C6303 C6284 1.429 . S
C6303 C6297 1.429 . S
C6303 C6304 1.523 . S
C6304 C6285 1.368 . S
C6304 C6298 1.368 . S
C6304 C6303 1.523 . S
C6305 C6289 1.429 . S
C6305 C6301 1.429 . S
C6305 C6306 1.523 . S
C6306 C6290 1.368 . S
C6306 C6302 1.368 . S
C6306 C6305 1.523 . S
H6307 C6282 0.950 . S
H6308 C6284 0.950 . S
H6309 C6285 0.949 . S
H6310 C6287 0.950 . S
H6311 C6289 0.950 . S
C6312 C6313 1.349 . S
C6312 C6314 1.327 . S
C6312 H6337 0.950 . S
C6313 C6312 1.349 . S
C6313 C6329 1.349 . S
C6314 C6312 1.327 . S
C6314 C6333 1.429 . S
C6314 H6338 0.950 . S
C6315 C6332 1.574 . S
C6315 C6334 1.368 . S
C6315 H6339 0.949 . S
H6316 C6320 0.949 . S
C6317 C6318 1.349 . S
C6317 C6319 1.327 . S
C6317 H6340 0.950 . S
C6318 C6317 1.349 . S
C6318 C6330 1.349 . S
C6319 C6317 1.327 . S
C6319 C6335 1.429 . S
C6319 H6341 0.950 . S
C6320 H6316 0.949 . S
C6320 C6328 1.574 . S
C6320 C6336 1.368 . S
H6321 C6329 0.950 . S
H6322 C6327 0.950 . S
H6323 C6328 0.949 . S
H6324 C6330 0.950 . S
H6325 C6331 0.950 . S
H6326 C6332 0.949 . S
C6327 H6322 0.950 . S
C6327 C6329 1.327 . S
C6327 C6333 1.429 . S
C6328 C6320 1.574 . S
C6328 H6323 0.949 . S
C6328 C6334 1.368 . S
C6329 C6313 1.349 . S
C6329 H6321 0.950 . S
C6329 C6327 1.327 . S
C6330 C6318 1.349 . S
C6330 H6324 0.950 . S
C6330 C6331 1.327 . S
C6331 H6325 0.950 . S
C6331 C6330 1.327 . S
C6331 C6335 1.429 . S
C6332 C6315 1.574 . S
C6332 H6326 0.949 . S
C6332 C6336 1.368 . S
C6333 C6314 1.429 . S
C6333 C6327 1.429 . S
C6333 C6334 1.523 . S
C6334 C6315 1.368 . S
C6334 C6328 1.368 . S
C6334 C6333 1.523 . S
C6335 C6319 1.429 . S
C6335 C6331 1.429 . S
C6335 C6336 1.523 . S
C6336 C6320 1.368 . S
C6336 C6332 1.368 . S
C6336 C6335 1.523 . S
H6337 C6312 0.950 . S
H6338 C6314 0.950 . S
H6339 C6315 0.949 . S
H6340 C6317 0.950 . S
H6341 C6319 0.950 . S
C6342 C6343 1.349 . S
C6342 C6344 1.327 . S
C6342 H6367 0.950 . S
C6343 C6342 1.349 . S
C6343 C6359 1.349 . S
C6344 C6342 1.327 . S
C6344 C6363 1.429 . S
C6344 H6368 0.950 . S
C6345 C6362 1.574 . S
C6345 C6364 1.368 . S
C6345 H6369 0.949 . S
H6346 C6350 0.949 . S
C6347 C6348 1.349 . S
C6347 C6349 1.327 . S
C6347 H6370 0.950 . S
C6348 C6347 1.349 . S
C6348 C6360 1.349 . S
C6349 C6347 1.327 . S
C6349 C6365 1.429 . S
C6349 H6371 0.950 . S
C6350 H6346 0.949 . S
C6350 C6358 1.574 . S
C6350 C6366 1.368 . S
H6351 C6359 0.950 . S
H6352 C6357 0.950 . S
H6353 C6358 0.949 . S
H6354 C6360 0.950 . S
H6355 C6361 0.950 . S
H6356 C6362 0.949 . S
C6357 H6352 0.950 . S
C6357 C6359 1.327 . S
C6357 C6363 1.429 . S
C6358 C6350 1.574 . S
C6358 H6353 0.949 . S
C6358 C6364 1.368 . S
C6359 C6343 1.349 . S
C6359 H6351 0.950 . S
C6359 C6357 1.327 . S
C6360 C6348 1.349 . S
C6360 H6354 0.950 . S
C6360 C6361 1.327 . S
C6361 H6355 0.950 . S
C6361 C6360 1.327 . S
C6361 C6365 1.429 . S
C6362 C6345 1.574 . S
C6362 H6356 0.949 . S
C6362 C6366 1.368 . S
C6363 C6344 1.429 . S
C6363 C6357 1.429 . S
C6363 C6364 1.523 . S
C6364 C6345 1.368 . S
C6364 C6358 1.368 . S
C6364 C6363 1.523 . S
C6365 C6349 1.429 . S
C6365 C6361 1.429 . S
C6365 C6366 1.523 . S
C6366 C6350 1.368 . S
C6366 C6362 1.368 . S
C6366 C6365 1.523 . S
H6367 C6342 0.950 . S
H6368 C6344 0.950 . S
H6369 C6345 0.949 . S
H6370 C6347 0.950 . S
H6371 C6349 0.950 . S
C6372 C6373 1.349 . S
C6372 C6374 1.327 . S
C6372 H6397 0.950 . S
C6373 C6372 1.349 . S
C6373 C6389 1.349 . S
C6374 C6372 1.327 . S
C6374 C6393 1.429 . S
C6374 H6398 0.950 . S
C6375 C6392 1.574 . S
C6375 C6394 1.368 . S
C6375 H6399 0.949 . S
H6376 C6380 0.949 . S
C6377 C6378 1.349 . S
C6377 C6379 1.327 . S
C6377 H6400 0.950 . S
C6378 C6377 1.349 . S
C6378 C6390 1.349 . S
C6379 C6377 1.327 . S
C6379 C6395 1.429 . S
C6379 H6401 0.950 . S
C6380 H6376 0.949 . S
C6380 C6388 1.574 . S
C6380 C6396 1.368 . S
H6381 C6389 0.950 . S
H6382 C6387 0.950 . S
H6383 C6388 0.949 . S
H6384 C6390 0.950 . S
H6385 C6391 0.950 . S
H6386 C6392 0.949 . S
C6387 H6382 0.950 . S
C6387 C6389 1.327 . S
C6387 C6393 1.429 . S
C6388 C6380 1.574 . S
C6388 H6383 0.949 . S
C6388 C6394 1.368 . S
C6389 C6373 1.349 . S
C6389 H6381 0.950 . S
C6389 C6387 1.327 . S
C6390 C6378 1.349 . S
C6390 H6384 0.950 . S
C6390 C6391 1.327 . S
C6391 H6385 0.950 . S
C6391 C6390 1.327 . S
C6391 C6395 1.429 . S
C6392 C6375 1.574 . S
C6392 H6386 0.949 . S
C6392 C6396 1.368 . S
C6393 C6374 1.429 . S
C6393 C6387 1.429 . S
C6393 C6394 1.523 . S
C6394 C6375 1.368 . S
C6394 C6388 1.368 . S
C6394 C6393 1.523 . S
C6395 C6379 1.429 . S
C6395 C6391 1.429 . S
C6395 C6396 1.523 . S
C6396 C6380 1.368 . S
C6396 C6392 1.368 . S
C6396 C6395 1.523 . S
H6397 C6372 0.950 . S
H6398 C6374 0.950 . S
H6399 C6375 0.949 . S
H6400 C6377 0.950 . S
H6401 C6379 0.950 . S
C6402 C6403 1.349 . S
C6402 C6404 1.327 . S
C6402 H6427 0.950 . S
C6403 C6402 1.349 . S
C6403 C6419 1.349 . S
C6404 C6402 1.327 . S
C6404 C6423 1.429 . S
C6404 H6428 0.950 . S
C6405 C6422 1.574 . S
C6405 C6424 1.368 . S
C6405 H6429 0.949 . S
H6406 C6410 0.949 . S
C6407 C6408 1.349 . S
C6407 C6409 1.327 . S
C6407 H6430 0.950 . S
C6408 C6407 1.349 . S
C6408 C6420 1.349 . S
C6409 C6407 1.327 . S
C6409 C6425 1.429 . S
C6409 H6431 0.950 . S
C6410 H6406 0.949 . S
C6410 C6418 1.574 . S
C6410 C6426 1.368 . S
H6411 C6419 0.950 . S
H6412 C6417 0.950 . S
H6413 C6418 0.949 . S
H6414 C6420 0.950 . S
H6415 C6421 0.950 . S
H6416 C6422 0.949 . S
C6417 H6412 0.950 . S
C6417 C6419 1.327 . S
C6417 C6423 1.429 . S
C6418 C6410 1.574 . S
C6418 H6413 0.949 . S
C6418 C6424 1.368 . S
C6419 C6403 1.349 . S
C6419 H6411 0.950 . S
C6419 C6417 1.327 . S
C6420 C6408 1.349 . S
C6420 H6414 0.950 . S
C6420 C6421 1.327 . S
C6421 H6415 0.950 . S
C6421 C6420 1.327 . S
C6421 C6425 1.429 . S
C6422 C6405 1.574 . S
C6422 H6416 0.949 . S
C6422 C6426 1.368 . S
C6423 C6404 1.429 . S
C6423 C6417 1.429 . S
C6423 C6424 1.523 . S
C6424 C6405 1.368 . S
C6424 C6418 1.368 . S
C6424 C6423 1.523 . S
C6425 C6409 1.429 . S
C6425 C6421 1.429 . S
C6425 C6426 1.523 . S
C6426 C6410 1.368 . S
C6426 C6422 1.368 . S
C6426 C6425 1.523 . S
H6427 C6402 0.950 . S
H6428 C6404 0.950 . S
H6429 C6405 0.949 . S
H6430 C6407 0.950 . S
H6431 C6409 0.950 . S
C6432 C6433 1.349 . S
C6432 C6434 1.327 . S
C6432 H6457 0.950 . S
C6433 C6432 1.349 . S
C6433 C6449 1.349 . S
C6434 C6432 1.327 . S
C6434 C6453 1.429 . S
C6434 H6458 0.950 . S
C6435 C6452 1.574 . S
C6435 C6454 1.368 . S
C6435 H6459 0.949 . S
H6436 C6440 0.949 . S
C6437 C6438 1.349 . S
C6437 C6439 1.327 . S
C6437 H6460 0.950 . S
C6438 C6437 1.349 . S
C6438 C6450 1.349 . S
C6439 C6437 1.327 . S
C6439 C6455 1.429 . S
C6439 H6461 0.950 . S
C6440 H6436 0.949 . S
C6440 C6448 1.574 . S
C6440 C6456 1.368 . S
H6441 C6449 0.950 . S
H6442 C6447 0.950 . S
H6443 C6448 0.949 . S
H6444 C6450 0.950 . S
H6445 C6451 0.950 . S
H6446 C6452 0.949 . S
C6447 H6442 0.950 . S
C6447 C6449 1.327 . S
C6447 C6453 1.429 . S
C6448 C6440 1.574 . S
C6448 H6443 0.949 . S
C6448 C6454 1.368 . S
C6449 C6433 1.349 . S
C6449 H6441 0.950 . S
C6449 C6447 1.327 . S
C6450 C6438 1.349 . S
C6450 H6444 0.950 . S
C6450 C6451 1.327 . S
C6451 H6445 0.950 . S
C6451 C6450 1.327 . S
C6451 C6455 1.429 . S
C6452 C6435 1.574 . S
C6452 H6446 0.949 . S
C6452 C6456 1.368 . S
C6453 C6434 1.429 . S
C6453 C6447 1.429 . S
C6453 C6454 1.523 . S
C6454 C6435 1.368 . S
C6454 C6448 1.368 . S
C6454 C6453 1.523 . S
C6455 C6439 1.429 . S
C6455 C6451 1.429 . S
C6455 C6456 1.523 . S
C6456 C6440 1.368 . S
C6456 C6452 1.368 . S
C6456 C6455 1.523 . S
H6457 C6432 0.950 . S
H6458 C6434 0.950 . S
H6459 C6435 0.949 . S
H6460 C6437 0.950 . S
H6461 C6439 0.950 . S
C6462 C6463 1.349 . S
C6462 C6464 1.327 . S
C6462 H6487 0.950 . S
C6463 C6462 1.349 . S
C6463 C6479 1.349 . S
C6464 C6462 1.327 . S
C6464 C6483 1.429 . S
C6464 H6488 0.950 . S
C6465 C6482 1.574 . S
C6465 C6484 1.368 . S
C6465 H6489 0.949 . S
H6466 C6470 0.949 . S
C6467 C6468 1.349 . S
C6467 C6469 1.327 . S
C6467 H6490 0.950 . S
C6468 C6467 1.349 . S
C6468 C6480 1.349 . S
C6469 C6467 1.327 . S
C6469 C6485 1.429 . S
C6469 H6491 0.950 . S
C6470 H6466 0.949 . S
C6470 C6478 1.574 . S
C6470 C6486 1.368 . S
H6471 C6479 0.950 . S
H6472 C6477 0.950 . S
H6473 C6478 0.949 . S
H6474 C6480 0.950 . S
H6475 C6481 0.950 . S
H6476 C6482 0.949 . S
C6477 H6472 0.950 . S
C6477 C6479 1.327 . S
C6477 C6483 1.429 . S
C6478 C6470 1.574 . S
C6478 H6473 0.949 . S
C6478 C6484 1.368 . S
C6479 C6463 1.349 . S
C6479 H6471 0.950 . S
C6479 C6477 1.327 . S
C6480 C6468 1.349 . S
C6480 H6474 0.950 . S
C6480 C6481 1.327 . S
C6481 H6475 0.950 . S
C6481 C6480 1.327 . S
C6481 C6485 1.429 . S
C6482 C6465 1.574 . S
C6482 H6476 0.949 . S
C6482 C6486 1.368 . S
C6483 C6464 1.429 . S
C6483 C6477 1.429 . S
C6483 C6484 1.523 . S
C6484 C6465 1.368 . S
C6484 C6478 1.368 . S
C6484 C6483 1.523 . S
C6485 C6469 1.429 . S
C6485 C6481 1.429 . S
C6485 C6486 1.523 . S
C6486 C6470 1.368 . S
C6486 C6482 1.368 . S
C6486 C6485 1.523 . S
H6487 C6462 0.950 . S
H6488 C6464 0.950 . S
H6489 C6465 0.949 . S
H6490 C6467 0.950 . S
H6491 C6469 0.950 . S
C6492 C6493 1.349 . S
C6492 C6494 1.327 . S
C6492 H6517 0.950 . S
C6493 C6492 1.349 . S
C6493 C6509 1.349 . S
C6494 C6492 1.327 . S
C6494 C6513 1.429 . S
C6494 H6518 0.950 . S
C6495 C6512 1.574 . S
C6495 C6514 1.368 . S
C6495 H6519 0.949 . S
H6496 C6500 0.949 . S
C6497 C6498 1.349 . S
C6497 C6499 1.327 . S
C6497 H6520 0.950 . S
C6498 C6497 1.349 . S
C6498 C6510 1.349 . S
C6499 C6497 1.327 . S
C6499 C6515 1.429 . S
C6499 H6521 0.950 . S
C6500 H6496 0.949 . S
C6500 C6508 1.574 . S
C6500 C6516 1.368 . S
H6501 C6509 0.950 . S
H6502 C6507 0.950 . S
H6503 C6508 0.949 . S
H6504 C6510 0.950 . S
H6505 C6511 0.950 . S
H6506 C6512 0.949 . S
C6507 H6502 0.950 . S
C6507 C6509 1.327 . S
C6507 C6513 1.429 . S
C6508 C6500 1.574 . S
C6508 H6503 0.949 . S
C6508 C6514 1.368 . S
C6509 C6493 1.349 . S
C6509 H6501 0.950 . S
C6509 C6507 1.327 . S
C6510 C6498 1.349 . S
C6510 H6504 0.950 . S
C6510 C6511 1.327 . S
C6511 H6505 0.950 . S
C6511 C6510 1.327 . S
C6511 C6515 1.429 . S
C6512 C6495 1.574 . S
C6512 H6506 0.949 . S
C6512 C6516 1.368 . S
C6513 C6494 1.429 . S
C6513 C6507 1.429 . S
C6513 C6514 1.523 . S
C6514 C6495 1.368 . S
C6514 C6508 1.368 . S
C6514 C6513 1.523 . S
C6515 C6499 1.429 . S
C6515 C6511 1.429 . S
C6515 C6516 1.523 . S
C6516 C6500 1.368 . S
C6516 C6512 1.368 . S
C6516 C6515 1.523 . S
H6517 C6492 0.950 . S
H6518 C6494 0.950 . S
H6519 C6495 0.949 . S
H6520 C6497 0.950 . S
H6521 C6499 0.950 . S
C6522 C6523 1.349 . S
C6522 C6524 1.327 . S
C6522 H6547 0.950 . S
C6523 C6522 1.349 . S
C6523 C6539 1.349 . S
C6524 C6522 1.327 . S
C6524 C6543 1.429 . S
C6524 H6548 0.950 . S
C6525 C6542 1.574 . S
C6525 C6544 1.368 . S
C6525 H6549 0.949 . S
H6526 C6530 0.949 . S
C6527 C6528 1.349 . S
C6527 C6529 1.327 . S
C6527 H6550 0.950 . S
C6528 C6527 1.349 . S
C6528 C6540 1.349 . S
C6529 C6527 1.327 . S
C6529 C6545 1.429 . S
C6529 H6551 0.950 . S
C6530 H6526 0.949 . S
C6530 C6538 1.574 . S
C6530 C6546 1.368 . S
H6531 C6539 0.950 . S
H6532 C6537 0.950 . S
H6533 C6538 0.949 . S
H6534 C6540 0.950 . S
H6535 C6541 0.950 . S
H6536 C6542 0.949 . S
C6537 H6532 0.950 . S
C6537 C6539 1.327 . S
C6537 C6543 1.429 . S
C6538 C6530 1.574 . S
C6538 H6533 0.949 . S
C6538 C6544 1.368 . S
C6539 C6523 1.349 . S
C6539 H6531 0.950 . S
C6539 C6537 1.327 . S
C6540 C6528 1.349 . S
C6540 H6534 0.950 . S
C6540 C6541 1.327 . S
C6541 H6535 0.950 . S
C6541 C6540 1.327 . S
C6541 C6545 1.429 . S
C6542 C6525 1.574 . S
C6542 H6536 0.949 . S
C6542 C6546 1.368 . S
C6543 C6524 1.429 . S
C6543 C6537 1.429 . S
C6543 C6544 1.523 . S
C6544 C6525 1.368 . S
C6544 C6538 1.368 . S
C6544 C6543 1.523 . S
C6545 C6529 1.429 . S
C6545 C6541 1.429 . S
C6545 C6546 1.523 . S
C6546 C6530 1.368 . S
C6546 C6542 1.368 . S
C6546 C6545 1.523 . S
H6547 C6522 0.950 . S
H6548 C6524 0.950 . S
H6549 C6525 0.949 . S
H6550 C6527 0.950 . S
H6551 C6529 0.950 . S
C6552 C6553 1.349 . S
C6552 C6554 1.327 . S
C6552 H6577 0.950 . S
C6553 C6552 1.349 . S
C6553 C6569 1.349 . S
C6554 C6552 1.327 . S
C6554 C6573 1.429 . S
C6554 H6578 0.950 . S
C6555 C6572 1.574 . S
C6555 C6574 1.368 . S
C6555 H6579 0.949 . S
H6556 C6560 0.949 . S
C6557 C6558 1.349 . S
C6557 C6559 1.327 . S
C6557 H6580 0.950 . S
C6558 C6557 1.349 . S
C6558 C6570 1.349 . S
C6559 C6557 1.327 . S
C6559 C6575 1.429 . S
C6559 H6581 0.950 . S
C6560 H6556 0.949 . S
C6560 C6568 1.574 . S
C6560 C6576 1.368 . S
H6561 C6569 0.950 . S
H6562 C6567 0.950 . S
H6563 C6568 0.949 . S
H6564 C6570 0.950 . S
H6565 C6571 0.950 . S
H6566 C6572 0.949 . S
C6567 H6562 0.950 . S
C6567 C6569 1.327 . S
C6567 C6573 1.429 . S
C6568 C6560 1.574 . S
C6568 H6563 0.949 . S
C6568 C6574 1.368 . S
C6569 C6553 1.349 . S
C6569 H6561 0.950 . S
C6569 C6567 1.327 . S
C6570 C6558 1.349 . S
C6570 H6564 0.950 . S
C6570 C6571 1.327 . S
C6571 H6565 0.950 . S
C6571 C6570 1.327 . S
C6571 C6575 1.429 . S
C6572 C6555 1.574 . S
C6572 H6566 0.949 . S
C6572 C6576 1.368 . S
C6573 C6554 1.429 . S
C6573 C6567 1.429 . S
C6573 C6574 1.523 . S
C6574 C6555 1.368 . S
C6574 C6568 1.368 . S
C6574 C6573 1.523 . S
C6575 C6559 1.429 . S
C6575 C6571 1.429 . S
C6575 C6576 1.523 . S
C6576 C6560 1.368 . S
C6576 C6572 1.368 . S
C6576 C6575 1.523 . S
H6577 C6552 0.950 . S
H6578 C6554 0.950 . S
H6579 C6555 0.949 . S
H6580 C6557 0.950 . S
H6581 C6559 0.950 . S
C6582 C6583 1.349 . S
C6582 C6584 1.327 . S
C6582 H6607 0.950 . S
C6583 C6582 1.349 . S
C6583 C6599 1.349 . S
C6584 C6582 1.327 . S
C6584 C6603 1.429 . S
C6584 H6608 0.950 . S
C6585 C6602 1.574 . S
C6585 C6604 1.368 . S
C6585 H6609 0.949 . S
H6586 C6590 0.949 . S
C6587 C6588 1.349 . S
C6587 C6589 1.327 . S
C6587 H6610 0.950 . S
C6588 C6587 1.349 . S
C6588 C6600 1.349 . S
C6589 C6587 1.327 . S
C6589 C6605 1.429 . S
C6589 H6611 0.950 . S
C6590 H6586 0.949 . S
C6590 C6598 1.574 . S
C6590 C6606 1.368 . S
H6591 C6599 0.950 . S
H6592 C6597 0.950 . S
H6593 C6598 0.949 . S
H6594 C6600 0.950 . S
H6595 C6601 0.950 . S
H6596 C6602 0.949 . S
C6597 H6592 0.950 . S
C6597 C6599 1.327 . S
C6597 C6603 1.429 . S
C6598 C6590 1.574 . S
C6598 H6593 0.949 . S
C6598 C6604 1.368 . S
C6599 C6583 1.349 . S
C6599 H6591 0.950 . S
C6599 C6597 1.327 . S
C6600 C6588 1.349 . S
C6600 H6594 0.950 . S
C6600 C6601 1.327 . S
C6601 H6595 0.950 . S
C6601 C6600 1.327 . S
C6601 C6605 1.429 . S
C6602 C6585 1.574 . S
C6602 H6596 0.949 . S
C6602 C6606 1.368 . S
C6603 C6584 1.429 . S
C6603 C6597 1.429 . S
C6603 C6604 1.523 . S
C6604 C6585 1.368 . S
C6604 C6598 1.368 . S
C6604 C6603 1.523 . S
C6605 C6589 1.429 . S
C6605 C6601 1.429 . S
C6605 C6606 1.523 . S
C6606 C6590 1.368 . S
C6606 C6602 1.368 . S
C6606 C6605 1.523 . S
H6607 C6582 0.950 . S
H6608 C6584 0.950 . S
H6609 C6585 0.949 . S
H6610 C6587 0.950 . S
H6611 C6589 0.950 . S
C6612 C6613 1.349 . S
C6612 C6614 1.327 . S
C6612 H6637 0.950 . S
C6613 C6612 1.349 . S
C6613 C6629 1.349 . S
C6614 C6612 1.327 . S
C6614 C6633 1.429 . S
C6614 H6638 0.950 . S
C6615 C6632 1.574 . S
C6615 C6634 1.368 . S
C6615 H6639 0.949 . S
H6616 C6620 0.949 . S
C6617 C6618 1.349 . S
C6617 C6619 1.327 . S
C6617 H6640 0.950 . S
C6618 C6617 1.349 . S
C6618 C6630 1.349 . S
C6619 C6617 1.327 . S
C6619 C6635 1.429 . S
C6619 H6641 0.950 . S
C6620 H6616 0.949 . S
C6620 C6628 1.574 . S
C6620 C6636 1.368 . S
H6621 C6629 0.950 . S
H6622 C6627 0.950 . S
H6623 C6628 0.949 . S
H6624 C6630 0.950 . S
H6625 C6631 0.950 . S
H6626 C6632 0.949 . S
C6627 H6622 0.950 . S
C6627 C6629 1.327 . S
C6627 C6633 1.429 . S
C6628 C6620 1.574 . S
C6628 H6623 0.949 . S
C6628 C6634 1.368 . S
C6629 C6613 1.349 . S
C6629 H6621 0.950 . S
C6629 C6627 1.327 . S
C6630 C6618 1.349 . S
C6630 H6624 0.950 . S
C6630 C6631 1.327 . S
C6631 H6625 0.950 . S
C6631 C6630 1.327 . S
C6631 C6635 1.429 . S
C6632 C6615 1.574 . S
C6632 H6626 0.949 . S
C6632 C6636 1.368 . S
C6633 C6614 1.429 . S
C6633 C6627 1.429 . S
C6633 C6634 1.523 . S
C6634 C6615 1.368 . S
C6634 C6628 1.368 . S
C6634 C6633 1.523 . S
C6635 C6619 1.429 . S
C6635 C6631 1.429 . S
C6635 C6636 1.523 . S
C6636 C6620 1.368 . S
C6636 C6632 1.368 . S
C6636 C6635 1.523 . S
H6637 C6612 0.950 . S
H6638 C6614 0.950 . S
H6639 C6615 0.949 . S
H6640 C6617 0.950 . S
H6641 C6619 0.950 . S
C6642 C6643 1.349 . S
C6642 C6644 1.327 . S
C6642 H6667 0.950 . S
C6643 C6642 1.349 . S
C6643 C6659 1.349 . S
C6644 C6642 1.327 . S
C6644 C6663 1.429 . S
C6644 H6668 0.950 . S
C6645 C6662 1.574 . S
C6645 C6664 1.368 . S
C6645 H6669 0.949 . S
H6646 C6650 0.949 . S
C6647 C6648 1.349 . S
C6647 C6649 1.327 . S
C6647 H6670 0.950 . S
C6648 C6647 1.349 . S
C6648 C6660 1.349 . S
C6649 C6647 1.327 . S
C6649 C6665 1.429 . S
C6649 H6671 0.950 . S
C6650 H6646 0.949 . S
C6650 C6658 1.574 . S
C6650 C6666 1.368 . S
H6651 C6659 0.950 . S
H6652 C6657 0.950 . S
H6653 C6658 0.949 . S
H6654 C6660 0.950 . S
H6655 C6661 0.950 . S
H6656 C6662 0.949 . S
C6657 H6652 0.950 . S
C6657 C6659 1.327 . S
C6657 C6663 1.429 . S
C6658 C6650 1.574 . S
C6658 H6653 0.949 . S
C6658 C6664 1.368 . S
C6659 C6643 1.349 . S
C6659 H6651 0.950 . S
C6659 C6657 1.327 . S
C6660 C6648 1.349 . S
C6660 H6654 0.950 . S
C6660 C6661 1.327 . S
C6661 H6655 0.950 . S
C6661 C6660 1.327 . S
C6661 C6665 1.429 . S
C6662 C6645 1.574 . S
C6662 H6656 0.949 . S
C6662 C6666 1.368 . S
C6663 C6644 1.429 . S
C6663 C6657 1.429 . S
C6663 C6664 1.523 . S
C6664 C6645 1.368 . S
C6664 C6658 1.368 . S
C6664 C6663 1.523 . S
C6665 C6649 1.429 . S
C6665 C6661 1.429 . S
C6665 C6666 1.523 . S
C6666 C6650 1.368 . S
C6666 C6662 1.368 . S
C6666 C6665 1.523 . S
H6667 C6642 0.950 . S
H6668 C6644 0.950 . S
H6669 C6645 0.949 . S
H6670 C6647 0.950 . S
H6671 C6649 0.950 . S
C6672 C6673 1.349 . S
C6672 C6674 1.327 . S
C6672 H6697 0.950 . S
C6673 C6672 1.349 . S
C6673 C6689 1.349 . S
C6674 C6672 1.327 . S
C6674 C6693 1.429 . S
C6674 H6698 0.950 . S
C6675 C6692 1.574 . S
C6675 C6694 1.368 . S
C6675 H6699 0.949 . S
H6676 C6680 0.949 . S
C6677 C6678 1.349 . S
C6677 C6679 1.327 . S
C6677 H6700 0.950 . S
C6678 C6677 1.349 . S
C6678 C6690 1.349 . S
C6679 C6677 1.327 . S
C6679 C6695 1.429 . S
C6679 H6701 0.950 . S
C6680 H6676 0.949 . S
C6680 C6688 1.574 . S
C6680 C6696 1.368 . S
H6681 C6689 0.950 . S
H6682 C6687 0.950 . S
H6683 C6688 0.949 . S
H6684 C6690 0.950 . S
H6685 C6691 0.950 . S
H6686 C6692 0.949 . S
C6687 H6682 0.950 . S
C6687 C6689 1.327 . S
C6687 C6693 1.429 . S
C6688 C6680 1.574 . S
C6688 H6683 0.949 . S
C6688 C6694 1.368 . S
C6689 C6673 1.349 . S
C6689 H6681 0.950 . S
C6689 C6687 1.327 . S
C6690 C6678 1.349 . S
C6690 H6684 0.950 . S
C6690 C6691 1.327 . S
C6691 H6685 0.950 . S
C6691 C6690 1.327 . S
C6691 C6695 1.429 . S
C6692 C6675 1.574 . S
C6692 H6686 0.949 . S
C6692 C6696 1.368 . S
C6693 C6674 1.429 . S
C6693 C6687 1.429 . S
C6693 C6694 1.523 . S
C6694 C6675 1.368 . S
C6694 C6688 1.368 . S
C6694 C6693 1.523 . S
C6695 C6679 1.429 . S
C6695 C6691 1.429 . S
C6695 C6696 1.523 . S
C6696 C6680 1.368 . S
C6696 C6692 1.368 . S
C6696 C6695 1.523 . S
H6697 C6672 0.950 . S
H6698 C6674 0.950 . S
H6699 C6675 0.949 . S
H6700 C6677 0.950 . S
H6701 C6679 0.950 . S
C6702 C6703 1.349 . S
C6702 C6704 1.327 . S
C6702 H6727 0.950 . S
C6703 C6702 1.349 . S
C6703 C6719 1.349 . S
C6704 C6702 1.327 . S
C6704 C6723 1.429 . S
C6704 H6728 0.950 . S
C6705 C6722 1.574 . S
C6705 C6724 1.368 . S
C6705 H6729 0.949 . S
H6706 C6710 0.949 . S
C6707 C6708 1.349 . S
C6707 C6709 1.327 . S
C6707 H6730 0.950 . S
C6708 C6707 1.349 . S
C6708 C6720 1.349 . S
C6709 C6707 1.327 . S
C6709 C6725 1.429 . S
C6709 H6731 0.950 . S
C6710 H6706 0.949 . S
C6710 C6718 1.574 . S
C6710 C6726 1.368 . S
H6711 C6719 0.950 . S
H6712 C6717 0.950 . S
H6713 C6718 0.949 . S
H6714 C6720 0.950 . S
H6715 C6721 0.950 . S
H6716 C6722 0.949 . S
C6717 H6712 0.950 . S
C6717 C6719 1.327 . S
C6717 C6723 1.429 . S
C6718 C6710 1.574 . S
C6718 H6713 0.949 . S
C6718 C6724 1.368 . S
C6719 C6703 1.349 . S
C6719 H6711 0.950 . S
C6719 C6717 1.327 . S
C6720 C6708 1.349 . S
C6720 H6714 0.950 . S
C6720 C6721 1.327 . S
C6721 H6715 0.950 . S
C6721 C6720 1.327 . S
C6721 C6725 1.429 . S
C6722 C6705 1.574 . S
C6722 H6716 0.949 . S
C6722 C6726 1.368 . S
C6723 C6704 1.429 . S
C6723 C6717 1.429 . S
C6723 C6724 1.523 . S
C6724 C6705 1.368 . S
C6724 C6718 1.368 . S
C6724 C6723 1.523 . S
C6725 C6709 1.429 . S
C6725 C6721 1.429 . S
C6725 C6726 1.523 . S
C6726 C6710 1.368 . S
C6726 C6722 1.368 . S
C6726 C6725 1.523 . S
H6727 C6702 0.950 . S
H6728 C6704 0.950 . S
H6729 C6705 0.949 . S
H6730 C6707 0.950 . S
H6731 C6709 0.950 . S
C6732 C6733 1.349 . S
C6732 C6734 1.327 . S
C6732 H6757 0.950 . S
C6733 C6732 1.349 . S
C6733 C6749 1.349 . S
C6734 C6732 1.327 . S
C6734 C6753 1.429 . S
C6734 H6758 0.950 . S
C6735 C6752 1.574 . S
C6735 C6754 1.368 . S
C6735 H6759 0.949 . S
H6736 C6740 0.949 . S
C6737 C6738 1.349 . S
C6737 C6739 1.327 . S
C6737 H6760 0.950 . S
C6738 C6737 1.349 . S
C6738 C6750 1.349 . S
C6739 C6737 1.327 . S
C6739 C6755 1.429 . S
C6739 H6761 0.950 . S
C6740 H6736 0.949 . S
C6740 C6748 1.574 . S
C6740 C6756 1.368 . S
H6741 C6749 0.950 . S
H6742 C6747 0.950 . S
H6743 C6748 0.949 . S
H6744 C6750 0.950 . S
H6745 C6751 0.950 . S
H6746 C6752 0.949 . S
C6747 H6742 0.950 . S
C6747 C6749 1.327 . S
C6747 C6753 1.429 . S
C6748 C6740 1.574 . S
C6748 H6743 0.949 . S
C6748 C6754 1.368 . S
C6749 C6733 1.349 . S
C6749 H6741 0.950 . S
C6749 C6747 1.327 . S
C6750 C6738 1.349 . S
C6750 H6744 0.950 . S
C6750 C6751 1.327 . S
C6751 H6745 0.950 . S
C6751 C6750 1.327 . S
C6751 C6755 1.429 . S
C6752 C6735 1.574 . S
C6752 H6746 0.949 . S
C6752 C6756 1.368 . S
C6753 C6734 1.429 . S
C6753 C6747 1.429 . S
C6753 C6754 1.523 . S
C6754 C6735 1.368 . S
C6754 C6748 1.368 . S
C6754 C6753 1.523 . S
C6755 C6739 1.429 . S
C6755 C6751 1.429 . S
C6755 C6756 1.523 . S
C6756 C6740 1.368 . S
C6756 C6752 1.368 . S
C6756 C6755 1.523 . S
H6757 C6732 0.950 . S
H6758 C6734 0.950 . S
H6759 C6735 0.949 . S
H6760 C6737 0.950 . S
H6761 C6739 0.950 . S
C6762 C6763 1.349 . S
C6762 C6764 1.327 . S
C6762 H6787 0.950 . S
C6763 C6762 1.349 . S
C6763 C6779 1.349 . S
C6764 C6762 1.327 . S
C6764 C6783 1.429 . S
C6764 H6788 0.950 . S
C6765 C6782 1.574 . S
C6765 C6784 1.368 . S
C6765 H6789 0.949 . S
H6766 C6770 0.949 . S
C6767 C6768 1.349 . S
C6767 C6769 1.327 . S
C6767 H6790 0.950 . S
C6768 C6767 1.349 . S
C6768 C6780 1.349 . S
C6769 C6767 1.327 . S
C6769 C6785 1.429 . S
C6769 H6791 0.950 . S
C6770 H6766 0.949 . S
C6770 C6778 1.574 . S
C6770 C6786 1.368 . S
H6771 C6779 0.950 . S
H6772 C6777 0.950 . S
H6773 C6778 0.949 . S
H6774 C6780 0.950 . S
H6775 C6781 0.950 . S
H6776 C6782 0.949 . S
C6777 H6772 0.950 . S
C6777 C6779 1.327 . S
C6777 C6783 1.429 . S
C6778 C6770 1.574 . S
C6778 H6773 0.949 . S
C6778 C6784 1.368 . S
C6779 C6763 1.349 . S
C6779 H6771 0.950 . S
C6779 C6777 1.327 . S
C6780 C6768 1.349 . S
C6780 H6774 0.950 . S
C6780 C6781 1.327 . S
C6781 H6775 0.950 . S
C6781 C6780 1.327 . S
C6781 C6785 1.429 . S
C6782 C6765 1.574 . S
C6782 H6776 0.949 . S
C6782 C6786 1.368 . S
C6783 C6764 1.429 . S
C6783 C6777 1.429 . S
C6783 C6784 1.523 . S
C6784 C6765 1.368 . S
C6784 C6778 1.368 . S
C6784 C6783 1.523 . S
C6785 C6769 1.429 . S
C6785 C6781 1.429 . S
C6785 C6786 1.523 . S
C6786 C6770 1.368 . S
C6786 C6782 1.368 . S
C6786 C6785 1.523 . S
H6787 C6762 0.950 . S
H6788 C6764 0.950 . S
H6789 C6765 0.949 . S
H6790 C6767 0.950 . S
H6791 C6769 0.950 . S
C6792 C6793 1.349 . S
C6792 C6794 1.327 . S
C6792 H6817 0.950 . S
C6793 C6792 1.349 . S
C6793 C6809 1.349 . S
C6794 C6792 1.327 . S
C6794 C6813 1.429 . S
C6794 H6818 0.950 . S
C6795 C6812 1.574 . S
C6795 C6814 1.368 . S
C6795 H6819 0.949 . S
H6796 C6800 0.949 . S
C6797 C6798 1.349 . S
C6797 C6799 1.327 . S
C6797 H6820 0.950 . S
C6798 C6797 1.349 . S
C6798 C6810 1.349 . S
C6799 C6797 1.327 . S
C6799 C6815 1.429 . S
C6799 H6821 0.950 . S
C6800 H6796 0.949 . S
C6800 C6808 1.574 . S
C6800 C6816 1.368 . S
H6801 C6809 0.950 . S
H6802 C6807 0.950 . S
H6803 C6808 0.949 . S
H6804 C6810 0.950 . S
H6805 C6811 0.950 . S
H6806 C6812 0.949 . S
C6807 H6802 0.950 . S
C6807 C6809 1.327 . S
C6807 C6813 1.429 . S
C6808 C6800 1.574 . S
C6808 H6803 0.949 . S
C6808 C6814 1.368 . S
C6809 C6793 1.349 . S
C6809 H6801 0.950 . S
C6809 C6807 1.327 . S
C6810 C6798 1.349 . S
C6810 H6804 0.950 . S
C6810 C6811 1.327 . S
C6811 H6805 0.950 . S
C6811 C6810 1.327 . S
C6811 C6815 1.429 . S
C6812 C6795 1.574 . S
C6812 H6806 0.949 . S
C6812 C6816 1.368 . S
C6813 C6794 1.429 . S
C6813 C6807 1.429 . S
C6813 C6814 1.523 . S
C6814 C6795 1.368 . S
C6814 C6808 1.368 . S
C6814 C6813 1.523 . S
C6815 C6799 1.429 . S
C6815 C6811 1.429 . S
C6815 C6816 1.523 . S
C6816 C6800 1.368 . S
C6816 C6812 1.368 . S
C6816 C6815 1.523 . S
H6817 C6792 0.950 . S
H6818 C6794 0.950 . S
H6819 C6795 0.949 . S
H6820 C6797 0.950 . S
H6821 C6799 0.950 . S
C6822 C6823 1.349 . S
C6822 C6824 1.327 . S
C6822 H6847 0.950 . S
C6823 C6822 1.349 . S
C6823 C6839 1.349 . S
C6824 C6822 1.327 . S
C6824 C6843 1.429 . S
C6824 H6848 0.950 . S
C6825 C6842 1.574 . S
C6825 C6844 1.368 . S
C6825 H6849 0.949 . S
H6826 C6830 0.949 . S
C6827 C6828 1.349 . S
C6827 C6829 1.327 . S
C6827 H6850 0.950 . S
C6828 C6827 1.349 . S
C6828 C6840 1.349 . S
C6829 C6827 1.327 . S
C6829 C6845 1.429 . S
C6829 H6851 0.950 . S
C6830 H6826 0.949 . S
C6830 C6838 1.574 . S
C6830 C6846 1.368 . S
H6831 C6839 0.950 . S
H6832 C6837 0.950 . S
H6833 C6838 0.949 . S
H6834 C6840 0.950 . S
H6835 C6841 0.950 . S
H6836 C6842 0.949 . S
C6837 H6832 0.950 . S
C6837 C6839 1.327 . S
C6837 C6843 1.429 . S
C6838 C6830 1.574 . S
C6838 H6833 0.949 . S
C6838 C6844 1.368 . S
C6839 C6823 1.349 . S
C6839 H6831 0.950 . S
C6839 C6837 1.327 . S
C6840 C6828 1.349 . S
C6840 H6834 0.950 . S
C6840 C6841 1.327 . S
C6841 H6835 0.950 . S
C6841 C6840 1.327 . S
C6841 C6845 1.429 . S
C6842 C6825 1.574 . S
C6842 H6836 0.949 . S
C6842 C6846 1.368 . S
C6843 C6824 1.429 . S
C6843 C6837 1.429 . S
C6843 C6844 1.523 . S
C6844 C6825 1.368 . S
C6844 C6838 1.368 . S
C6844 C6843 1.523 . S
C6845 C6829 1.429 . S
C6845 C6841 1.429 . S
C6845 C6846 1.523 . S
C6846 C6830 1.368 . S
C6846 C6842 1.368 . S
C6846 C6845 1.523 . S
H6847 C6822 0.950 . S
H6848 C6824 0.950 . S
H6849 C6825 0.949 . S
H6850 C6827 0.950 . S
H6851 C6829 0.950 . S
C6852 C6853 1.349 . S
C6852 C6854 1.327 . S
C6852 H6877 0.950 . S
C6853 C6852 1.349 . S
C6853 C6869 1.349 . S
C6854 C6852 1.327 . S
C6854 C6873 1.429 . S
C6854 H6878 0.950 . S
C6855 C6872 1.574 . S
C6855 C6874 1.368 . S
C6855 H6879 0.949 . S
H6856 C6860 0.949 . S
C6857 C6858 1.349 . S
C6857 C6859 1.327 . S
C6857 H6880 0.950 . S
C6858 C6857 1.349 . S
C6858 C6870 1.349 . S
C6859 C6857 1.327 . S
C6859 C6875 1.429 . S
C6859 H6881 0.950 . S
C6860 H6856 0.949 . S
C6860 C6868 1.574 . S
C6860 C6876 1.368 . S
H6861 C6869 0.950 . S
H6862 C6867 0.950 . S
H6863 C6868 0.949 . S
H6864 C6870 0.950 . S
H6865 C6871 0.950 . S
H6866 C6872 0.949 . S
C6867 H6862 0.950 . S
C6867 C6869 1.327 . S
C6867 C6873 1.429 . S
C6868 C6860 1.574 . S
C6868 H6863 0.949 . S
C6868 C6874 1.368 . S
C6869 C6853 1.349 . S
C6869 H6861 0.950 . S
C6869 C6867 1.327 . S
C6870 C6858 1.349 . S
C6870 H6864 0.950 . S
C6870 C6871 1.327 . S
C6871 H6865 0.950 . S
C6871 C6870 1.327 . S
C6871 C6875 1.429 . S
C6872 C6855 1.574 . S
C6872 H6866 0.949 . S
C6872 C6876 1.368 . S
C6873 C6854 1.429 . S
C6873 C6867 1.429 . S
C6873 C6874 1.523 . S
C6874 C6855 1.368 . S
C6874 C6868 1.368 . S
C6874 C6873 1.523 . S
C6875 C6859 1.429 . S
C6875 C6871 1.429 . S
C6875 C6876 1.523 . S
C6876 C6860 1.368 . S
C6876 C6872 1.368 . S
C6876 C6875 1.523 . S
H6877 C6852 0.950 . S
H6878 C6854 0.950 . S
H6879 C6855 0.949 . S
H6880 C6857 0.950 . S
H6881 C6859 0.950 . S
C6882 C6883 1.349 . S
C6882 C6884 1.327 . S
C6882 H6907 0.950 . S
C6883 C6882 1.349 . S
C6883 C6899 1.349 . S
C6884 C6882 1.327 . S
C6884 C6903 1.429 . S
C6884 H6908 0.950 . S
C6885 C6902 1.574 . S
C6885 C6904 1.368 . S
C6885 H6909 0.949 . S
H6886 C6890 0.949 . S
C6887 C6888 1.349 . S
C6887 C6889 1.327 . S
C6887 H6910 0.950 . S
C6888 C6887 1.349 . S
C6888 C6900 1.349 . S
C6889 C6887 1.327 . S
C6889 C6905 1.429 . S
C6889 H6911 0.950 . S
C6890 H6886 0.949 . S
C6890 C6898 1.574 . S
C6890 C6906 1.368 . S
H6891 C6899 0.950 . S
H6892 C6897 0.950 . S
H6893 C6898 0.949 . S
H6894 C6900 0.950 . S
H6895 C6901 0.950 . S
H6896 C6902 0.949 . S
C6897 H6892 0.950 . S
C6897 C6899 1.327 . S
C6897 C6903 1.429 . S
C6898 C6890 1.574 . S
C6898 H6893 0.949 . S
C6898 C6904 1.368 . S
C6899 C6883 1.349 . S
C6899 H6891 0.950 . S
C6899 C6897 1.327 . S
C6900 C6888 1.349 . S
C6900 H6894 0.950 . S
C6900 C6901 1.327 . S
C6901 H6895 0.950 . S
C6901 C6900 1.327 . S
C6901 C6905 1.429 . S
C6902 C6885 1.574 . S
C6902 H6896 0.949 . S
C6902 C6906 1.368 . S
C6903 C6884 1.429 . S
C6903 C6897 1.429 . S
C6903 C6904 1.523 . S
C6904 C6885 1.368 . S
C6904 C6898 1.368 . S
C6904 C6903 1.523 . S
C6905 C6889 1.429 . S
C6905 C6901 1.429 . S
C6905 C6906 1.523 . S
C6906 C6890 1.368 . S
C6906 C6902 1.368 . S
C6906 C6905 1.523 . S
H6907 C6882 0.950 . S
H6908 C6884 0.950 . S
H6909 C6885 0.949 . S
H6910 C6887 0.950 . S
H6911 C6889 0.950 . S
C6912 C6913 1.349 . S
C6912 C6914 1.327 . S
C6912 H6937 0.950 . S
C6913 C6912 1.349 . S
C6913 C6929 1.349 . S
C6914 C6912 1.327 . S
C6914 C6933 1.429 . S
C6914 H6938 0.950 . S
C6915 C6932 1.574 . S
C6915 C6934 1.368 . S
C6915 H6939 0.949 . S
H6916 C6920 0.949 . S
C6917 C6918 1.349 . S
C6917 C6919 1.327 . S
C6917 H6940 0.950 . S
C6918 C6917 1.349 . S
C6918 C6930 1.349 . S
C6919 C6917 1.327 . S
C6919 C6935 1.429 . S
C6919 H6941 0.950 . S
C6920 H6916 0.949 . S
C6920 C6928 1.574 . S
C6920 C6936 1.368 . S
H6921 C6929 0.950 . S
H6922 C6927 0.950 . S
H6923 C6928 0.949 . S
H6924 C6930 0.950 . S
H6925 C6931 0.950 . S
H6926 C6932 0.949 . S
C6927 H6922 0.950 . S
C6927 C6929 1.327 . S
C6927 C6933 1.429 . S
C6928 C6920 1.574 . S
C6928 H6923 0.949 . S
C6928 C6934 1.368 . S
C6929 C6913 1.349 . S
C6929 H6921 0.950 . S
C6929 C6927 1.327 . S
C6930 C6918 1.349 . S
C6930 H6924 0.950 . S
C6930 C6931 1.327 . S
C6931 H6925 0.950 . S
C6931 C6930 1.327 . S
C6931 C6935 1.429 . S
C6932 C6915 1.574 . S
C6932 H6926 0.949 . S
C6932 C6936 1.368 . S
C6933 C6914 1.429 . S
C6933 C6927 1.429 . S
C6933 C6934 1.523 . S
C6934 C6915 1.368 . S
C6934 C6928 1.368 . S
C6934 C6933 1.523 . S
C6935 C6919 1.429 . S
C6935 C6931 1.429 . S
C6935 C6936 1.523 . S
C6936 C6920 1.368 . S
C6936 C6932 1.368 . S
C6936 C6935 1.523 . S
H6937 C6912 0.950 . S
H6938 C6914 0.950 . S
H6939 C6915 0.949 . S
H6940 C6917 0.950 . S
H6941 C6919 0.950 . S
C6942 C6943 1.349 . S
C6942 C6944 1.327 . S
C6942 H6967 0.950 . S
C6943 C6942 1.349 . S
C6943 C6959 1.349 . S
C6944 C6942 1.327 . S
C6944 C6963 1.429 . S
C6944 H6968 0.950 . S
C6945 C6962 1.574 . S
C6945 C6964 1.368 . S
C6945 H6969 0.949 . S
H6946 C6950 0.949 . S
C6947 C6948 1.349 . S
C6947 C6949 1.327 . S
C6947 H6970 0.950 . S
C6948 C6947 1.349 . S
C6948 C6960 1.349 . S
C6949 C6947 1.327 . S
C6949 C6965 1.429 . S
C6949 H6971 0.950 . S
C6950 H6946 0.949 . S
C6950 C6958 1.574 . S
C6950 C6966 1.368 . S
H6951 C6959 0.950 . S
H6952 C6957 0.950 . S
H6953 C6958 0.949 . S
H6954 C6960 0.950 . S
H6955 C6961 0.950 . S
H6956 C6962 0.949 . S
C6957 H6952 0.950 . S
C6957 C6959 1.327 . S
C6957 C6963 1.429 . S
C6958 C6950 1.574 . S
C6958 H6953 0.949 . S
C6958 C6964 1.368 . S
C6959 C6943 1.349 . S
C6959 H6951 0.950 . S
C6959 C6957 1.327 . S
C6960 C6948 1.349 . S
C6960 H6954 0.950 . S
C6960 C6961 1.327 . S
C6961 H6955 0.950 . S
C6961 C6960 1.327 . S
C6961 C6965 1.429 . S
C6962 C6945 1.574 . S
C6962 H6956 0.949 . S
C6962 C6966 1.368 . S
C6963 C6944 1.429 . S
C6963 C6957 1.429 . S
C6963 C6964 1.523 . S
C6964 C6945 1.368 . S
C6964 C6958 1.368 . S
C6964 C6963 1.523 . S
C6965 C6949 1.429 . S
C6965 C6961 1.429 . S
C6965 C6966 1.523 . S
C6966 C6950 1.368 . S
C6966 C6962 1.368 . S
C6966 C6965 1.523 . S
H6967 C6942 0.950 . S
H6968 C6944 0.950 . S
H6969 C6945 0.949 . S
H6970 C6947 0.950 . S
H6971 C6949 0.950 . S
C6972 C6973 1.349 . S
C6972 C6974 1.327 . S
C6972 H6997 0.950 . S
C6973 C6972 1.349 . S
C6973 C6989 1.349 . S
C6974 C6972 1.327 . S
C6974 C6993 1.429 . S
C6974 H6998 0.950 . S
C6975 C6992 1.574 . S
C6975 C6994 1.368 . S
C6975 H6999 0.949 . S
H6976 C6980 0.949 . S
C6977 C6978 1.349 . S
C6977 C6979 1.327 . S
C6977 H7000 0.950 . S
C6978 C6977 1.349 . S
C6978 C6990 1.349 . S
C6979 C6977 1.327 . S
C6979 C6995 1.429 . S
C6979 H7001 0.950 . S
C6980 H6976 0.949 . S
C6980 C6988 1.574 . S
C6980 C6996 1.368 . S
H6981 C6989 0.950 . S
H6982 C6987 0.950 . S
H6983 C6988 0.949 . S
H6984 C6990 0.950 . S
H6985 C6991 0.950 . S
H6986 C6992 0.949 . S
C6987 H6982 0.950 . S
C6987 C6989 1.327 . S
C6987 C6993 1.429 . S
C6988 C6980 1.574 . S
C6988 H6983 0.949 . S
C6988 C6994 1.368 . S
C6989 C6973 1.349 . S
C6989 H6981 0.950 . S
C6989 C6987 1.327 . S
C6990 C6978 1.349 . S
C6990 H6984 0.950 . S
C6990 C6991 1.327 . S
C6991 H6985 0.950 . S
C6991 C6990 1.327 . S
C6991 C6995 1.429 . S
C6992 C6975 1.574 . S
C6992 H6986 0.949 . S
C6992 C6996 1.368 . S
C6993 C6974 1.429 . S
C6993 C6987 1.429 . S
C6993 C6994 1.523 . S
C6994 C6975 1.368 . S
C6994 C6988 1.368 . S
C6994 C6993 1.523 . S
C6995 C6979 1.429 . S
C6995 C6991 1.429 . S
C6995 C6996 1.523 . S
C6996 C6980 1.368 . S
C6996 C6992 1.368 . S
C6996 C6995 1.523 . S
H6997 C6972 0.950 . S
H6998 C6974 0.950 . S
H6999 C6975 0.949 . S
H7000 C6977 0.950 . S
H7001 C6979 0.950 . S
C7002 C7003 1.349 . S
C7002 C7004 1.327 . S
C7002 H7027 0.950 . S
C7003 C7002 1.349 . S
C7003 C7019 1.349 . S
C7004 C7002 1.327 . S
C7004 C7023 1.429 . S
C7004 H7028 0.950 . S
C7005 C7022 1.574 . S
C7005 C7024 1.368 . S
C7005 H7029 0.949 . S
H7006 C7010 0.949 . S
C7007 C7008 1.349 . S
C7007 C7009 1.327 1_565 S
C7007 H7030 0.950 . S
C7008 C7007 1.349 . S
C7008 C7020 1.349 . S
C7009 C7007 1.327 1_545 S
C7009 C7025 1.429 . S
C7009 H7031 0.950 . S
C7010 H7006 0.949 . S
C7010 C7018 1.574 . S
C7010 C7026 1.368 . S
H7011 C7019 0.950 . S
H7012 C7017 0.950 . S
H7013 C7018 0.949 . S
H7014 C7020 0.950 . S
H7015 C7021 0.950 . S
H7016 C7022 0.949 . S
C7017 H7012 0.950 . S
C7017 C7019 1.327 . S
C7017 C7023 1.429 . S
C7018 C7010 1.574 . S
C7018 H7013 0.949 . S
C7018 C7024 1.368 . S
C7019 C7003 1.349 . S
C7019 H7011 0.950 . S
C7019 C7017 1.327 . S
C7020 C7008 1.349 . S
C7020 H7014 0.950 . S
C7020 C7021 1.327 1_565 S
C7021 H7015 0.950 . S
C7021 C7020 1.327 1_545 S
C7021 C7025 1.429 . S
C7022 C7005 1.574 . S
C7022 H7016 0.949 . S
C7022 C7026 1.368 . S
C7023 C7004 1.429 . S
C7023 C7017 1.429 . S
C7023 C7024 1.523 . S
C7024 C7005 1.368 . S
C7024 C7018 1.368 . S
C7024 C7023 1.523 . S
C7025 C7009 1.429 . S
C7025 C7021 1.429 . S
C7025 C7026 1.523 . S
C7026 C7010 1.368 . S
C7026 C7022 1.368 . S
C7026 C7025 1.523 . S
H7027 C7002 0.950 . S
H7028 C7004 0.950 . S
H7029 C7005 0.949 . S
H7030 C7007 0.950 . S
H7031 C7009 0.950 . S
C7032 C7033 1.349 . S
C7032 C7034 1.327 . S
C7032 H7057 0.950 . S
C7033 C7032 1.349 . S
C7033 C7049 1.349 . S
C7034 C7032 1.327 . S
C7034 C7053 1.429 . S
C7034 H7058 0.950 . S
C7035 C7052 1.574 . S
C7035 C7054 1.368 . S
C7035 H7059 0.949 . S
H7036 C7040 0.949 . S
C7037 C7038 1.349 . S
C7037 C7039 1.327 . S
C7037 H7060 0.950 . S
C7038 C7037 1.349 . S
C7038 C7050 1.349 . S
C7039 C7037 1.327 . S
C7039 C7055 1.429 . S
C7039 H7061 0.950 . S
C7040 H7036 0.949 . S
C7040 C7048 1.574 . S
C7040 C7056 1.368 . S
H7041 C7049 0.950 . S
H7042 C7047 0.950 . S
H7043 C7048 0.949 . S
H7044 C7050 0.950 . S
H7045 C7051 0.950 . S
H7046 C7052 0.949 . S
C7047 H7042 0.950 . S
C7047 C7049 1.327 . S
C7047 C7053 1.429 . S
C7048 C7040 1.574 . S
C7048 H7043 0.949 . S
C7048 C7054 1.368 . S
C7049 C7033 1.349 . S
C7049 H7041 0.950 . S
C7049 C7047 1.327 . S
C7050 C7038 1.349 . S
C7050 H7044 0.950 . S
C7050 C7051 1.327 . S
C7051 H7045 0.950 . S
C7051 C7050 1.327 . S
C7051 C7055 1.429 . S
C7052 C7035 1.574 . S
C7052 H7046 0.949 . S
C7052 C7056 1.368 . S
C7053 C7034 1.429 . S
C7053 C7047 1.429 . S
C7053 C7054 1.523 . S
C7054 C7035 1.368 . S
C7054 C7048 1.368 . S
C7054 C7053 1.523 . S
C7055 C7039 1.429 . S
C7055 C7051 1.429 . S
C7055 C7056 1.523 . S
C7056 C7040 1.368 . S
C7056 C7052 1.368 . S
C7056 C7055 1.523 . S
H7057 C7032 0.950 . S
H7058 C7034 0.950 . S
H7059 C7035 0.949 . S
H7060 C7037 0.950 . S
H7061 C7039 0.950 . S
C7062 C7063 1.349 . S
C7062 C7064 1.327 . S
C7062 H7087 0.950 . S
C7063 C7062 1.349 . S
C7063 C7079 1.349 . S
C7064 C7062 1.327 . S
C7064 C7083 1.429 . S
C7064 H7088 0.950 . S
C7065 C7082 1.574 . S
C7065 C7084 1.368 . S
C7065 H7089 0.949 . S
H7066 C7070 0.949 . S
C7067 C7068 1.349 . S
C7067 C7069 1.327 . S
C7067 H7090 0.950 . S
C7068 C7067 1.349 . S
C7068 C7080 1.349 . S
C7069 C7067 1.327 . S
C7069 C7085 1.429 . S
C7069 H7091 0.950 . S
C7070 H7066 0.949 . S
C7070 C7078 1.574 . S
C7070 C7086 1.368 . S
H7071 C7079 0.950 . S
H7072 C7077 0.950 . S
H7073 C7078 0.949 . S
H7074 C7080 0.950 . S
H7075 C7081 0.950 . S
H7076 C7082 0.949 . S
C7077 H7072 0.950 . S
C7077 C7079 1.327 . S
C7077 C7083 1.429 . S
C7078 C7070 1.574 . S
C7078 H7073 0.949 . S
C7078 C7084 1.368 . S
C7079 C7063 1.349 . S
C7079 H7071 0.950 . S
C7079 C7077 1.327 . S
C7080 C7068 1.349 . S
C7080 H7074 0.950 . S
C7080 C7081 1.327 . S
C7081 H7075 0.950 . S
C7081 C7080 1.327 . S
C7081 C7085 1.429 . S
C7082 C7065 1.574 . S
C7082 H7076 0.949 . S
C7082 C7086 1.368 . S
C7083 C7064 1.429 . S
C7083 C7077 1.429 . S
C7083 C7084 1.523 . S
C7084 C7065 1.368 . S
C7084 C7078 1.368 . S
C7084 C7083 1.523 . S
C7085 C7069 1.429 . S
C7085 C7081 1.429 . S
C7085 C7086 1.523 . S
C7086 C7070 1.368 . S
C7086 C7082 1.368 . S
C7086 C7085 1.523 . S
H7087 C7062 0.950 . S
H7088 C7064 0.950 . S
H7089 C7065 0.949 . S
H7090 C7067 0.950 . S
H7091 C7069 0.950 . S
C7092 C7093 1.349 . S
C7092 C7094 1.327 . S
C7092 H7117 0.950 . S
C7093 C7092 1.349 . S
C7093 C7109 1.349 . S
C7094 C7092 1.327 . S
C7094 C7113 1.429 . S
C7094 H7118 0.950 . S
C7095 C7112 1.574 1_455 S
C7095 C7114 1.368 . S
C7095 H7119 0.949 . S
H7096 C7100 0.949 . S
C7097 C7098 1.349 . S
C7097 C7099 1.327 . S
C7097 H7120 0.950 . S
C7098 C7097 1.349 . S
C7098 C7110 1.349 . S
C7099 C7097 1.327 . S
C7099 C7115 1.429 . S
C7099 H7121 0.950 . S
C7100 H7096 0.949 . S
C7100 C7108 1.574 . S
C7100 C7116 1.368 . S
H7101 C7109 0.950 . S
H7102 C7107 0.950 . S
H7103 C7108 0.949 . S
H7104 C7110 0.950 . S
H7105 C7111 1.002 . S
H7106 C7112 0.949 . S
C7107 H7102 0.950 . S
C7107 C7109 1.327 . S
C7107 C7113 1.429 . S
C7108 C7100 1.574 . S
C7108 H7103 0.949 . S
C7108 C7114 1.368 . S
C7109 C7093 1.349 . S
C7109 H7101 0.950 . S
C7109 C7107 1.327 . S
C7110 C7098 1.349 . S
C7110 H7104 0.950 . S
C7110 C7111 1.291 1_655 S
C7111 H7105 1.002 . S
C7111 C7110 1.291 1_455 S
C7111 C7115 1.415 1_455 S
C7112 C7095 1.574 1_655 S
C7112 H7106 0.949 . S
C7112 C7116 1.368 1_655 S
C7113 C7094 1.429 . S
C7113 C7107 1.429 . S
C7113 C7114 1.523 . S
C7114 C7095 1.368 . S
C7114 C7108 1.368 . S
C7114 C7113 1.523 . S
C7115 C7099 1.429 . S
C7115 C7111 1.415 1_655 S
C7115 C7116 1.523 1_655 S
C7116 C7100 1.368 . S
C7116 C7112 1.368 1_455 S
C7116 C7115 1.523 1_455 S
H7117 C7092 0.950 . S
H7118 C7094 0.950 . S
H7119 C7095 0.949 . S
H7120 C7097 0.950 . S
H7121 C7099 0.950 . S
C7122 C7123 1.349 . S
C7122 C7124 1.327 . S
C7122 H7147 0.950 . S
C7123 C7122 1.349 . S
C7123 C7139 1.349 . S
C7124 C7122 1.327 . S
C7124 C7143 1.429 . S
C7124 H7148 0.950 . S
C7125 C7142 1.574 . S
C7125 C7144 1.368 . S
C7125 H7149 0.949 . S
H7126 C7130 0.949 . S
C7127 C7128 1.349 . S
C7127 C7129 1.327 . S
C7127 H7150 0.950 . S
C7128 C7127 1.349 . S
C7128 C7140 1.349 . S
C7129 C7127 1.327 . S
C7129 C7145 1.429 . S
C7129 H7151 0.950 . S
C7130 H7126 0.949 . S
C7130 C7138 1.574 . S
C7130 C7146 1.368 . S
H7131 C7139 0.950 . S
H7132 C7137 0.950 . S
H7133 C7138 0.949 . S
H7134 C7140 0.950 . S
H7135 C7141 0.950 . S
H7136 C7142 0.949 . S
C7137 H7132 0.950 . S
C7137 C7139 1.327 . S
C7137 C7143 1.429 . S
C7138 C7130 1.574 . S
C7138 H7133 0.949 . S
C7138 C7144 1.368 . S
C7139 C7123 1.349 . S
C7139 H7131 0.950 . S
C7139 C7137 1.327 . S
C7140 C7128 1.349 . S
C7140 H7134 0.950 . S
C7140 C7141 1.327 . S
C7141 H7135 0.950 . S
C7141 C7140 1.327 . S
C7141 C7145 1.429 . S
C7142 C7125 1.574 . S
C7142 H7136 0.949 . S
C7142 C7146 1.368 . S
C7143 C7124 1.429 . S
C7143 C7137 1.429 . S
C7143 C7144 1.523 . S
C7144 C7125 1.368 . S
C7144 C7138 1.368 . S
C7144 C7143 1.523 . S
C7145 C7129 1.429 . S
C7145 C7141 1.429 . S
C7145 C7146 1.523 . S
C7146 C7130 1.368 . S
C7146 C7142 1.368 . S
C7146 C7145 1.523 . S
H7147 C7122 0.950 . S
H7148 C7124 0.950 . S
H7149 C7125 0.949 . S
H7150 C7127 0.950 . S
H7151 C7129 0.950 . S
C7152 C7153 1.349 . S
C7152 C7154 1.327 . S
C7152 H7177 0.950 . S
C7153 C7152 1.349 . S
C7153 C7169 1.349 . S
C7154 C7152 1.327 . S
C7154 C7173 1.429 . S
C7154 H7178 0.950 . S
C7155 C7172 1.574 . S
C7155 C7174 1.368 . S
C7155 H7179 0.949 . S
H7156 C7160 0.949 . S
C7157 C7158 1.349 . S
C7157 C7159 1.327 . S
C7157 H7180 0.950 . S
C7158 C7157 1.349 . S
C7158 C7170 1.349 . S
C7159 C7157 1.327 . S
C7159 C7175 1.429 . S
C7159 H7181 0.950 . S
C7160 H7156 0.949 . S
C7160 C7168 1.574 . S
C7160 C7176 1.368 . S
H7161 C7169 0.950 . S
H7162 C7167 0.950 . S
H7163 C7168 0.949 . S
H7164 C7170 0.950 . S
H7165 C7171 0.950 . S
H7166 C7172 0.949 . S
C7167 H7162 0.950 . S
C7167 C7169 1.327 . S
C7167 C7173 1.429 . S
C7168 C7160 1.574 . S
C7168 H7163 0.949 . S
C7168 C7174 1.368 . S
C7169 C7153 1.349 . S
C7169 H7161 0.950 . S
C7169 C7167 1.327 . S
C7170 C7158 1.349 . S
C7170 H7164 0.950 . S
C7170 C7171 1.327 . S
C7171 H7165 0.950 . S
C7171 C7170 1.327 . S
C7171 C7175 1.429 . S
C7172 C7155 1.574 . S
C7172 H7166 0.949 . S
C7172 C7176 1.368 . S
C7173 C7154 1.429 . S
C7173 C7167 1.429 . S
C7173 C7174 1.523 . S
C7174 C7155 1.368 . S
C7174 C7168 1.368 . S
C7174 C7173 1.523 . S
C7175 C7159 1.429 . S
C7175 C7171 1.429 . S
C7175 C7176 1.523 . S
C7176 C7160 1.368 . S
C7176 C7172 1.368 . S
C7176 C7175 1.523 . S
H7177 C7152 0.950 . S
H7178 C7154 0.950 . S
H7179 C7155 0.949 . S
H7180 C7157 0.950 . S
H7181 C7159 0.950 . S
C7182 C7183 1.349 1_655 S
C7182 C7184 1.327 . S
C7182 H7207 0.950 . S
C7183 C7182 1.349 1_455 S
C7183 C7199 1.346 1_455 S
C7184 C7182 1.327 . S
C7184 C7203 1.429 . S
C7184 H7208 0.950 . S
C7185 C7202 1.574 . S
C7185 C7204 1.368 . S
C7185 H7209 0.949 . S
H7186 C7190 0.949 . S
C7187 C7188 1.349 . S
C7187 C7189 1.327 . S
C7187 H7210 0.950 . S
C7188 C7187 1.349 . S
C7188 C7200 1.349 . S
C7189 C7187 1.327 . S
C7189 C7205 1.429 . S
C7189 H7211 0.950 . S
C7190 H7186 0.949 . S
C7190 C7198 1.574 . S
C7190 C7206 1.368 . S
H7191 C7199 0.943 1_455 S
H7192 C7197 0.950 . S
H7193 C7198 0.949 . S
H7194 C7200 0.950 . S
H7195 C7201 0.950 . S
H7196 C7202 0.949 . S
C7197 H7192 0.950 . S
C7197 C7199 1.337 . S
C7197 C7203 1.429 . S
C7198 C7190 1.574 . S
C7198 H7193 0.949 . S
C7198 C7204 1.368 . S
C7199 C7183 1.346 1_655 S
C7199 H7191 0.943 1_655 S
C7199 C7197 1.337 . S
C7200 C7188 1.349 . S
C7200 H7194 0.950 . S
C7200 C7201 1.327 . S
C7201 H7195 0.950 . S
C7201 C7200 1.327 . S
C7201 C7205 1.429 . S
C7202 C7185 1.574 . S
C7202 H7196 0.949 . S
C7202 C7206 1.368 . S
C7203 C7184 1.429 . S
C7203 C7197 1.429 . S
C7203 C7204 1.523 . S
C7204 C7185 1.368 . S
C7204 C7198 1.368 . S
C7204 C7203 1.523 . S
C7205 C7189 1.429 . S
C7205 C7201 1.429 . S
C7205 C7206 1.523 . S
C7206 C7190 1.368 . S
C7206 C7202 1.368 . S
C7206 C7205 1.523 . S
H7207 C7182 0.950 . S
H7208 C7184 0.950 . S
H7209 C7185 0.949 . S
H7210 C7187 0.950 . S
H7211 C7189 0.950 . S
C7212 C7213 1.349 . S
C7212 C7214 1.327 . S
C7212 H7237 0.950 . S
C7213 C7212 1.349 . S
C7213 C7229 1.349 . S
C7214 C7212 1.327 . S
C7214 C7233 1.475 . S
C7214 H7238 0.950 . S
C7215 C7232 1.574 . S
C7215 C7234 1.368 . S
C7215 H7239 0.949 . S
H7216 C7220 0.949 . S
C7217 C7218 1.349 . S
C7217 C7219 1.327 . S
C7217 H7240 0.950 . S
C7218 C7217 1.349 . S
C7218 C7230 1.349 . S
C7219 C7217 1.327 . S
C7219 C7235 1.429 . S
C7219 H7241 0.950 . S
C7220 H7216 0.949 . S
C7220 C7228 1.574 . S
C7220 C7236 1.368 . S
H7221 C7229 0.950 . S
H7222 C7227 0.950 1_565 S
H7223 C7228 0.949 . S
H7224 C7230 0.950 . S
H7225 C7231 0.950 . S
H7226 C7232 0.949 . S
C7227 H7222 0.950 1_545 S
C7227 C7229 1.327 . S
C7227 C7233 1.428 . S
C7228 C7220 1.574 . S
C7228 H7223 0.949 . S
C7228 C7234 1.368 . S
C7229 C7213 1.349 . S
C7229 H7221 0.950 . S
C7229 C7227 1.327 . S
C7230 C7218 1.349 . S
C7230 H7224 0.950 . S
C7230 C7231 1.327 . S
C7231 H7225 0.950 . S
C7231 C7230 1.327 . S
C7231 C7235 1.429 . S
C7232 C7215 1.574 . S
C7232 H7226 0.949 . S
C7232 C7236 1.368 . S
C7233 C7214 1.475 . S
C7233 C7227 1.428 . S
C7233 C7234 1.484 1_545 S
C7234 C7215 1.368 . S
C7234 C7228 1.368 . S
C7234 C7233 1.484 1_565 S
C7235 C7219 1.429 . S
C7235 C7231 1.429 . S
C7235 C7236 1.523 . S
C7236 C7220 1.368 . S
C7236 C7232 1.368 . S
C7236 C7235 1.523 . S
H7237 C7212 0.950 . S
H7238 C7214 0.950 . S
H7239 C7215 0.949 . S
H7240 C7217 0.950 . S
H7241 C7219 0.950 . S
C7242 C7243 1.349 . S
C7242 C7244 1.327 . S
C7242 H7267 0.950 . S
C7243 C7242 1.349 . S
C7243 C7259 1.349 . S
C7244 C7242 1.327 . S
C7244 C7263 1.429 . S
C7244 H7268 0.950 . S
C7245 C7262 1.574 . S
C7245 C7264 1.368 . S
C7245 H7269 0.949 . S
H7246 C7250 0.949 . S
C7247 C7248 1.349 . S
C7247 C7249 1.327 . S
C7247 H7270 0.950 . S
C7248 C7247 1.349 . S
C7248 C7260 1.349 . S
C7249 C7247 1.327 . S
C7249 C7265 1.429 . S
C7249 H7271 0.950 . S
C7250 H7246 0.949 . S
C7250 C7258 1.574 . S
C7250 C7266 1.368 . S
H7251 C7259 0.950 . S
H7252 C7257 0.950 . S
H7253 C7258 0.949 . S
H7254 C7260 0.950 . S
H7255 C7261 0.950 . S
H7256 C7262 0.949 . S
C7257 H7252 0.950 . S
C7257 C7259 1.327 . S
C7257 C7263 1.429 . S
C7258 C7250 1.574 . S
C7258 H7253 0.949 . S
C7258 C7264 1.368 . S
C7259 C7243 1.349 . S
C7259 H7251 0.950 . S
C7259 C7257 1.327 . S
C7260 C7248 1.349 . S
C7260 H7254 0.950 . S
C7260 C7261 1.327 . S
C7261 H7255 0.950 . S
C7261 C7260 1.327 . S
C7261 C7265 1.429 . S
C7262 C7245 1.574 . S
C7262 H7256 0.949 . S
C7262 C7266 1.368 . S
C7263 C7244 1.429 . S
C7263 C7257 1.429 . S
C7263 C7264 1.523 . S
C7264 C7245 1.368 . S
C7264 C7258 1.368 . S
C7264 C7263 1.523 . S
C7265 C7249 1.429 . S
C7265 C7261 1.429 . S
C7265 C7266 1.523 . S
C7266 C7250 1.368 . S
C7266 C7262 1.368 . S
C7266 C7265 1.523 . S
H7267 C7242 0.950 . S
H7268 C7244 0.950 . S
H7269 C7245 0.949 . S
H7270 C7247 0.950 . S
H7271 C7249 0.950 . S
C7272 C7273 1.349 . S
C7272 C7274 1.327 . S
C7272 H7297 0.950 . S
C7273 C7272 1.349 . S
C7273 C7289 1.349 . S
C7274 C7272 1.327 . S
C7274 C7293 1.429 . S
C7274 H7298 0.950 . S
C7275 C7292 1.574 . S
C7275 C7294 1.368 . S
C7275 H7299 0.949 . S
H7276 C7280 0.949 . S
C7277 C7278 1.349 . S
C7277 C7279 1.327 . S
C7277 H7300 0.950 . S
C7278 C7277 1.349 . S
C7278 C7290 1.349 . S
C7279 C7277 1.327 . S
C7279 C7295 1.429 . S
C7279 H7301 0.950 . S
C7280 H7276 0.949 . S
C7280 C7288 1.574 . S
C7280 C7296 1.368 . S
H7281 C7289 0.950 1_545 S
H7282 C7287 0.950 . S
H7283 C7288 0.949 . S
H7284 C7290 0.950 . S
H7285 C7291 0.950 . S
H7286 C7292 0.949 . S
C7287 H7282 0.950 . S
C7287 C7289 1.327 . S
C7287 C7293 1.429 . S
C7288 C7280 1.574 . S
C7288 H7283 0.949 . S
C7288 C7294 1.368 . S
C7289 C7273 1.349 . S
C7289 H7281 0.950 1_565 S
C7289 C7287 1.327 . S
C7290 C7278 1.349 . S
C7290 H7284 0.950 . S
C7290 C7291 1.327 . S
C7291 H7285 0.950 . S
C7291 C7290 1.327 . S
C7291 C7295 1.429 . S
C7292 C7275 1.574 . S
C7292 H7286 0.949 . S
C7292 C7296 1.368 . S
C7293 C7274 1.429 . S
C7293 C7287 1.429 . S
C7293 C7294 1.523 . S
C7294 C7275 1.368 . S
C7294 C7288 1.368 . S
C7294 C7293 1.523 . S
C7295 C7279 1.429 . S
C7295 C7291 1.429 . S
C7295 C7296 1.523 . S
C7296 C7280 1.368 . S
C7296 C7292 1.368 . S
C7296 C7295 1.523 . S
H7297 C7272 0.950 . S
H7298 C7274 0.950 . S
H7299 C7275 0.949 . S
H7300 C7277 0.950 . S
H7301 C7279 0.950 . S
C7302 C7303 1.349 . S
C7302 C7304 1.327 . S
C7302 H7327 0.950 . S
C7303 C7302 1.349 . S
C7303 C7319 1.349 . S
C7304 C7302 1.327 . S
C7304 C7323 1.429 . S
C7304 H7328 0.950 . S
C7305 C7322 1.574 . S
C7305 C7324 1.368 . S
C7305 H7329 0.949 . S
H7306 C7310 0.949 . S
C7307 C7308 1.349 . S
C7307 C7309 1.327 . S
C7307 H7330 0.950 . S
C7308 C7307 1.349 . S
C7308 C7320 1.349 . S
C7309 C7307 1.327 . S
C7309 C7325 1.429 . S
C7309 H7331 0.950 . S
C7310 H7306 0.949 . S
C7310 C7318 1.574 . S
C7310 C7326 1.368 . S
H7311 C7319 0.950 . S
H7312 C7317 0.950 . S
H7313 C7318 0.949 . S
H7314 C7320 0.950 . S
H7315 C7321 0.950 . S
H7316 C7322 0.949 . S
C7317 H7312 0.950 . S
C7317 C7319 1.327 . S
C7317 C7323 1.429 . S
C7318 C7310 1.574 . S
C7318 H7313 0.949 . S
C7318 C7324 1.368 . S
C7319 C7303 1.349 . S
C7319 H7311 0.950 . S
C7319 C7317 1.327 . S
C7320 C7308 1.349 . S
C7320 H7314 0.950 . S
C7320 C7321 1.327 . S
C7321 H7315 0.950 . S
C7321 C7320 1.327 . S
C7321 C7325 1.429 . S
C7322 C7305 1.574 . S
C7322 H7316 0.949 . S
C7322 C7326 1.368 . S
C7323 C7304 1.429 . S
C7323 C7317 1.429 . S
C7323 C7324 1.523 . S
C7324 C7305 1.368 . S
C7324 C7318 1.368 . S
C7324 C7323 1.523 . S
C7325 C7309 1.429 . S
C7325 C7321 1.429 . S
C7325 C7326 1.523 . S
C7326 C7310 1.368 . S
C7326 C7322 1.368 . S
C7326 C7325 1.523 . S
H7327 C7302 0.950 . S
H7328 C7304 0.950 . S
H7329 C7305 0.949 . S
H7330 C7307 0.950 . S
H7331 C7309 0.950 . S
C7332 C7333 1.349 . S
C7332 C7334 1.327 . S
C7332 H7357 0.950 . S
C7333 C7332 1.349 . S
C7333 C7349 1.349 . S
C7334 C7332 1.327 . S
C7334 C7353 1.429 . S
C7334 H7358 0.950 . S
C7335 C7352 1.574 . S
C7335 C7354 1.368 . S
C7335 H7359 0.949 . S
H7336 C7340 0.949 . S
C7337 C7338 1.349 . S
C7337 C7339 1.327 . S
C7337 H7360 0.950 . S
C7338 C7337 1.349 . S
C7338 C7350 1.349 . S
C7339 C7337 1.327 . S
C7339 C7355 1.429 . S
C7339 H7361 0.950 . S
C7340 H7336 0.949 . S
C7340 C7348 1.574 . S
C7340 C7356 1.368 . S
H7341 C7349 0.950 . S
H7342 C7347 0.950 . S
H7343 C7348 0.949 . S
H7344 C7350 0.950 . S
H7345 C7351 0.950 . S
H7346 C7352 0.949 . S
C7347 H7342 0.950 . S
C7347 C7349 1.327 . S
C7347 C7353 1.429 . S
C7348 C7340 1.574 . S
C7348 H7343 0.949 . S
C7348 C7354 1.368 . S
C7349 C7333 1.349 . S
C7349 H7341 0.950 . S
C7349 C7347 1.327 . S
C7350 C7338 1.349 . S
C7350 H7344 0.950 . S
C7350 C7351 1.327 . S
C7351 H7345 0.950 . S
C7351 C7350 1.327 . S
C7351 C7355 1.429 . S
C7352 C7335 1.574 . S
C7352 H7346 0.949 . S
C7352 C7356 1.368 . S
C7353 C7334 1.429 . S
C7353 C7347 1.429 . S
C7353 C7354 1.523 . S
C7354 C7335 1.368 . S
C7354 C7348 1.368 . S
C7354 C7353 1.523 . S
C7355 C7339 1.429 . S
C7355 C7351 1.429 . S
C7355 C7356 1.523 . S
C7356 C7340 1.368 . S
C7356 C7352 1.368 . S
C7356 C7355 1.523 . S
H7357 C7332 0.950 . S
H7358 C7334 0.950 . S
H7359 C7335 0.949 . S
H7360 C7337 0.950 . S
H7361 C7339 0.950 . S
C7362 C7363 1.349 . S
C7362 C7364 1.327 . S
C7362 H7387 0.950 . S
C7363 C7362 1.349 . S
C7363 C7379 1.389 . S
C7364 C7362 1.327 . S
C7364 C7383 1.429 1_455 S
C7364 H7388 0.950 . S
C7365 C7382 1.574 . S
C7365 C7384 1.368 . S
C7365 H7389 0.949 . S
H7366 C7370 0.949 . S
C7367 C7368 1.349 . S
C7367 C7369 1.327 . S
C7367 H7390 0.950 . S
C7368 C7367 1.349 . S
C7368 C7380 1.349 . S
C7369 C7367 1.327 . S
C7369 C7385 1.429 . S
C7369 H7391 0.950 . S
C7370 H7366 0.949 . S
C7370 C7378 1.574 . S
C7370 C7386 1.368 . S
H7371 C7379 0.937 1_655 S
H7372 C7377 0.950 . S
H7373 C7378 0.921 1_455 S
H7374 C7380 0.950 . S
H7375 C7381 0.950 . S
H7376 C7382 0.949 . S
C7377 H7372 0.950 . S
C7377 C7379 1.302 1_655 S
C7377 C7383 1.429 . S
C7378 C7370 1.574 . S
C7378 H7373 0.921 1_655 S
C7378 C7384 1.368 . S
C7379 C7363 1.389 . S
C7379 H7371 0.937 1_455 S
C7379 C7377 1.302 1_455 S
C7380 C7368 1.349 . S
C7380 H7374 0.950 . S
C7380 C7381 1.327 . S
C7381 H7375 0.950 . S
C7381 C7380 1.327 . S
C7381 C7385 1.429 . S
C7382 C7365 1.574 . S
C7382 H7376 0.949 . S
C7382 C7386 1.368 . S
C7383 C7364 1.429 1_655 S
C7383 C7377 1.429 . S
C7383 C7384 1.523 . S
C7384 C7365 1.368 . S
C7384 C7378 1.368 . S
C7384 C7383 1.523 . S
C7385 C7369 1.429 . S
C7385 C7381 1.429 . S
C7385 C7386 1.523 . S
C7386 C7370 1.368 . S
C7386 C7382 1.368 . S
C7386 C7385 1.523 . S
H7387 C7362 0.950 . S
H7388 C7364 0.950 . S
H7389 C7365 0.949 . S
H7390 C7367 0.950 . S
H7391 C7369 0.950 . S
C7392 C7393 1.349 . S
C7392 C7394 1.327 . S
C7392 H7417 0.950 . S
C7393 C7392 1.349 . S
C7393 C7409 1.349 . S
C7394 C7392 1.327 . S
C7394 C7413 1.429 . S
C7394 H7418 0.950 . S
C7395 C7412 1.574 . S
C7395 C7414 1.368 . S
C7395 H7419 0.949 . S
H7396 C7400 0.949 . S
C7397 C7398 1.349 . S
C7397 C7399 1.327 . S
C7397 H7420 0.950 . S
C7398 C7397 1.349 . S
C7398 C7410 1.349 . S
C7399 C7397 1.327 . S
C7399 C7415 1.429 . S
C7399 H7421 0.950 . S
C7400 H7396 0.949 . S
C7400 C7408 1.574 . S
C7400 C7416 1.368 . S
H7401 C7409 0.950 . S
H7402 C7407 0.950 . S
H7403 C7408 0.949 . S
H7404 C7410 0.950 . S
H7405 C7411 0.950 . S
H7406 C7412 0.949 . S
C7407 H7402 0.950 . S
C7407 C7409 1.327 . S
C7407 C7413 1.429 . S
C7408 C7400 1.574 . S
C7408 H7403 0.949 . S
C7408 C7414 1.368 . S
C7409 C7393 1.349 . S
C7409 H7401 0.950 . S
C7409 C7407 1.327 . S
C7410 C7398 1.349 . S
C7410 H7404 0.950 . S
C7410 C7411 1.327 . S
C7411 H7405 0.950 . S
C7411 C7410 1.327 . S
C7411 C7415 1.429 . S
C7412 C7395 1.574 . S
C7412 H7406 0.949 . S
C7412 C7416 1.368 . S
C7413 C7394 1.429 . S
C7413 C7407 1.429 . S
C7413 C7414 1.523 . S
C7414 C7395 1.368 . S
C7414 C7408 1.368 . S
C7414 C7413 1.523 . S
C7415 C7399 1.429 . S
C7415 C7411 1.429 . S
C7415 C7416 1.523 . S
C7416 C7400 1.368 . S
C7416 C7412 1.368 . S
C7416 C7415 1.523 . S
H7417 C7392 0.950 . S
H7418 C7394 0.950 . S
H7419 C7395 0.949 . S
H7420 C7397 0.950 . S
H7421 C7399 0.950 . S
C7422 C7423 1.349 . S
C7422 C7424 1.327 . S
C7422 H7447 0.950 . S
C7423 C7422 1.349 . S
C7423 C7439 1.348 1_556 S
C7424 C7422 1.327 . S
C7424 C7443 1.429 . S
C7424 H7448 0.950 . S
C7425 C7442 1.574 . S
C7425 C7444 1.368 . S
C7425 H7449 0.949 . S
H7426 C7430 0.949 . S
C7427 C7428 1.349 . S
C7427 C7429 1.327 . S
C7427 H7450 0.950 . S
C7428 C7427 1.349 . S
C7428 C7440 1.349 . S
C7429 C7427 1.327 . S
C7429 C7445 1.429 . S
C7429 H7451 0.950 . S
C7430 H7426 0.949 . S
C7430 C7438 1.574 . S
C7430 C7446 1.368 . S
H7431 C7439 0.952 . S
H7432 C7437 0.950 . S
H7433 C7438 0.949 . S
H7434 C7440 0.950 . S
H7435 C7441 0.950 . S
H7436 C7442 0.949 . S
C7437 H7432 0.950 . S
C7437 C7439 1.326 1_556 S
C7437 C7443 1.429 . S
C7438 C7430 1.574 . S
C7438 H7433 0.949 . S
C7438 C7444 1.368 . S
C7439 C7423 1.348 1_554 S
C7439 H7431 0.952 . S
C7439 C7437 1.326 1_554 S
C7440 C7428 1.349 . S
C7440 H7434 0.950 . S
C7440 C7441 1.327 . S
C7441 H7435 0.950 . S
C7441 C7440 1.327 . S
C7441 C7445 1.429 . S
C7442 C7425 1.574 . S
C7442 H7436 0.949 . S
C7442 C7446 1.368 . S
C7443 C7424 1.429 . S
C7443 C7437 1.429 . S
C7443 C7444 1.523 . S
C7444 C7425 1.368 . S
C7444 C7438 1.368 . S
C7444 C7443 1.523 . S
C7445 C7429 1.429 . S
C7445 C7441 1.429 . S
C7445 C7446 1.523 . S
C7446 C7430 1.368 . S
C7446 C7442 1.368 . S
C7446 C7445 1.523 . S
H7447 C7422 0.950 . S
H7448 C7424 0.950 . S
H7449 C7425 0.949 . S
H7450 C7427 0.950 . S
H7451 C7429 0.950 . S
C7452 C7453 1.349 . S
C7452 C7454 1.327 . S
C7452 H7477 0.950 . S
C7453 C7452 1.349 . S
C7453 C7469 1.349 . S
C7454 C7452 1.327 . S
C7454 C7473 1.429 . S
C7454 H7478 0.950 1_554 S
C7455 C7472 1.574 1_554 S
C7455 C7474 1.368 1_554 S
C7455 H7479 0.949 . S
H7456 C7460 0.949 . S
C7457 C7458 1.349 . S
C7457 C7459 1.327 . S
C7457 H7480 0.950 . S
C7458 C7457 1.349 . S
C7458 C7470 1.349 . S
C7459 C7457 1.327 . S
C7459 C7475 1.429 . S
C7459 H7481 0.950 . S
C7460 H7456 0.949 . S
C7460 C7468 1.574 . S
C7460 C7476 1.368 . S
H7461 C7469 0.950 . S
H7462 C7467 0.950 . S
H7463 C7468 0.949 . S
H7464 C7470 0.950 . S
H7465 C7471 0.950 . S
H7466 C7472 0.949 . S
C7467 H7462 0.950 . S
C7467 C7469 1.327 . S
C7467 C7473 1.429 . S
C7468 C7460 1.574 . S
C7468 H7463 0.949 . S
C7468 C7474 1.368 . S
C7469 C7453 1.349 . S
C7469 H7461 0.950 . S
C7469 C7467 1.327 . S
C7470 C7458 1.349 . S
C7470 H7464 0.950 . S
C7470 C7471 1.327 . S
C7471 H7465 0.950 . S
C7471 C7470 1.327 . S
C7471 C7475 1.429 . S
C7472 C7455 1.574 1_556 S
C7472 H7466 0.949 . S
C7472 C7476 1.368 . S
C7473 C7454 1.429 . S
C7473 C7467 1.429 . S
C7473 C7474 1.523 1_554 S
C7474 C7455 1.368 1_556 S
C7474 C7468 1.368 . S
C7474 C7473 1.523 1_556 S
C7475 C7459 1.429 . S
C7475 C7471 1.429 . S
C7475 C7476 1.523 . S
C7476 C7460 1.368 . S
C7476 C7472 1.368 . S
C7476 C7475 1.523 . S
H7477 C7452 0.950 . S
H7478 C7454 0.950 1_556 S
H7479 C7455 0.949 . S
H7480 C7457 0.950 . S
H7481 C7459 0.950 . S
C7482 C7483 1.349 . S
C7482 C7484 1.327 . S
C7482 H7507 0.950 . S
C7483 C7482 1.349 . S
C7483 C7499 1.349 . S
C7484 C7482 1.327 . S
C7484 C7503 1.429 . S
C7484 H7508 0.950 . S
C7485 C7502 1.574 . S
C7485 C7504 1.368 . S
C7485 H7509 0.949 . S
H7486 C7490 0.949 . S
C7487 C7488 1.349 . S
C7487 C7489 1.327 . S
C7487 H7510 0.950 . S
C7488 C7487 1.349 . S
C7488 C7500 1.349 . S
C7489 C7487 1.327 . S
C7489 C7505 1.429 . S
C7489 H7511 0.950 . S
C7490 H7486 0.949 . S
C7490 C7498 1.574 . S
C7490 C7506 1.368 . S
H7491 C7499 0.950 . S
H7492 C7497 0.950 . S
H7493 C7498 0.949 . S
H7494 C7500 0.950 . S
H7495 C7501 0.950 . S
H7496 C7502 0.949 . S
C7497 H7492 0.950 . S
C7497 C7499 1.327 . S
C7497 C7503 1.429 . S
C7498 C7490 1.574 . S
C7498 H7493 0.949 . S
C7498 C7504 1.368 . S
C7499 C7483 1.349 . S
C7499 H7491 0.950 . S
C7499 C7497 1.327 . S
C7500 C7488 1.349 . S
C7500 H7494 0.950 . S
C7500 C7501 1.327 . S
C7501 H7495 0.950 . S
C7501 C7500 1.327 . S
C7501 C7505 1.429 . S
C7502 C7485 1.574 . S
C7502 H7496 0.949 . S
C7502 C7506 1.368 . S
C7503 C7484 1.429 . S
C7503 C7497 1.429 . S
C7503 C7504 1.523 . S
C7504 C7485 1.368 . S
C7504 C7498 1.368 . S
C7504 C7503 1.523 . S
C7505 C7489 1.429 . S
C7505 C7501 1.429 . S
C7505 C7506 1.523 . S
C7506 C7490 1.368 . S
C7506 C7502 1.368 . S
C7506 C7505 1.523 . S
H7507 C7482 0.950 . S
H7508 C7484 0.950 . S
H7509 C7485 0.949 . S
H7510 C7487 0.950 . S
H7511 C7489 0.950 . S
C7512 C7513 1.349 . S
C7512 C7514 1.327 . S
C7512 H7537 0.950 . S
C7513 C7512 1.349 . S
C7513 C7529 1.349 . S
C7514 C7512 1.327 . S
C7514 C7533 1.429 . S
C7514 H7538 0.950 . S
C7515 C7532 1.574 . S
C7515 C7534 1.368 . S
C7515 H7539 0.949 . S
H7516 C7520 0.949 . S
C7517 C7518 1.349 . S
C7517 C7519 1.327 . S
C7517 H7540 0.950 . S
C7518 C7517 1.349 . S
C7518 C7530 1.349 . S
C7519 C7517 1.327 . S
C7519 C7535 1.429 . S
C7519 H7541 0.950 . S
C7520 H7516 0.949 . S
C7520 C7528 1.574 . S
C7520 C7536 1.368 . S
H7521 C7529 0.950 . S
H7522 C7527 0.950 . S
H7523 C7528 0.949 . S
H7524 C7530 0.950 . S
H7525 C7531 0.950 . S
H7526 C7532 0.949 . S
C7527 H7522 0.950 . S
C7527 C7529 1.327 . S
C7527 C7533 1.429 . S
C7528 C7520 1.574 . S
C7528 H7523 0.949 . S
C7528 C7534 1.368 . S
C7529 C7513 1.349 . S
C7529 H7521 0.950 . S
C7529 C7527 1.327 . S
C7530 C7518 1.349 . S
C7530 H7524 0.950 . S
C7530 C7531 1.327 . S
C7531 H7525 0.950 . S
C7531 C7530 1.327 . S
C7531 C7535 1.429 . S
C7532 C7515 1.574 . S
C7532 H7526 0.949 . S
C7532 C7536 1.368 . S
C7533 C7514 1.429 . S
C7533 C7527 1.429 . S
C7533 C7534 1.523 . S
C7534 C7515 1.368 . S
C7534 C7528 1.368 . S
C7534 C7533 1.523 . S
C7535 C7519 1.429 . S
C7535 C7531 1.429 . S
C7535 C7536 1.523 . S
C7536 C7520 1.368 . S
C7536 C7532 1.368 . S
C7536 C7535 1.523 . S
H7537 C7512 0.950 . S
H7538 C7514 0.950 . S
H7539 C7515 0.949 . S
H7540 C7517 0.950 . S
H7541 C7519 0.950 . S
C7542 C7543 1.349 . S
C7542 C7544 1.327 . S
C7542 H7567 0.950 . S
C7543 C7542 1.349 . S
C7543 C7559 1.349 . S
C7544 C7542 1.327 . S
C7544 C7563 1.429 . S
C7544 H7568 0.950 . S
C7545 C7562 1.574 . S
C7545 C7564 1.368 . S
C7545 H7569 0.949 . S
H7546 C7550 0.949 . S
C7547 C7548 1.349 . S
C7547 C7549 1.327 . S
C7547 H7570 0.950 . S
C7548 C7547 1.349 . S
C7548 C7560 1.349 . S
C7549 C7547 1.327 . S
C7549 C7565 1.429 . S
C7549 H7571 0.950 . S
C7550 H7546 0.949 . S
C7550 C7558 1.574 . S
C7550 C7566 1.368 . S
H7551 C7559 0.950 . S
H7552 C7557 0.950 . S
H7553 C7558 0.949 . S
H7554 C7560 0.950 . S
H7555 C7561 0.950 . S
H7556 C7562 0.949 . S
C7557 H7552 0.950 . S
C7557 C7559 1.327 . S
C7557 C7563 1.429 . S
C7558 C7550 1.574 . S
C7558 H7553 0.949 . S
C7558 C7564 1.368 . S
C7559 C7543 1.349 . S
C7559 H7551 0.950 . S
C7559 C7557 1.327 . S
C7560 C7548 1.349 . S
C7560 H7554 0.950 . S
C7560 C7561 1.327 . S
C7561 H7555 0.950 . S
C7561 C7560 1.327 . S
C7561 C7565 1.429 . S
C7562 C7545 1.574 . S
C7562 H7556 0.949 . S
C7562 C7566 1.368 . S
C7563 C7544 1.429 . S
C7563 C7557 1.429 . S
C7563 C7564 1.523 . S
C7564 C7545 1.368 . S
C7564 C7558 1.368 . S
C7564 C7563 1.523 . S
C7565 C7549 1.429 . S
C7565 C7561 1.429 . S
C7565 C7566 1.523 . S
C7566 C7550 1.368 . S
C7566 C7562 1.368 . S
C7566 C7565 1.523 . S
H7567 C7542 0.950 . S
H7568 C7544 0.950 . S
H7569 C7545 0.949 . S
H7570 C7547 0.950 . S
H7571 C7549 0.950 . S
C7572 C7573 1.349 . S
C7572 C7574 1.327 . S
C7572 H7597 0.950 . S
C7573 C7572 1.349 . S
C7573 C7589 1.349 . S
C7574 C7572 1.327 . S
C7574 C7593 1.429 . S
C7574 H7598 0.950 . S
C7575 C7592 1.574 . S
C7575 C7594 1.368 . S
C7575 H7599 0.949 . S
H7576 C7580 0.949 . S
C7577 C7578 1.349 . S
C7577 C7579 1.327 . S
C7577 H7600 0.950 . S
C7578 C7577 1.349 . S
C7578 C7590 1.349 . S
C7579 C7577 1.327 . S
C7579 C7595 1.429 . S
C7579 H7601 0.950 . S
C7580 H7576 0.949 . S
C7580 C7588 1.574 . S
C7580 C7596 1.368 . S
H7581 C7589 0.950 . S
H7582 C7587 0.950 . S
H7583 C7588 0.949 . S
H7584 C7590 0.950 . S
H7585 C7591 0.950 . S
H7586 C7592 0.949 . S
C7587 H7582 0.950 . S
C7587 C7589 1.327 . S
C7587 C7593 1.429 . S
C7588 C7580 1.574 . S
C7588 H7583 0.949 . S
C7588 C7594 1.368 . S
C7589 C7573 1.349 . S
C7589 H7581 0.950 . S
C7589 C7587 1.327 . S
C7590 C7578 1.349 . S
C7590 H7584 0.950 . S
C7590 C7591 1.327 . S
C7591 H7585 0.950 . S
C7591 C7590 1.327 . S
C7591 C7595 1.429 . S
C7592 C7575 1.574 . S
C7592 H7586 0.949 . S
C7592 C7596 1.368 . S
C7593 C7574 1.429 . S
C7593 C7587 1.429 . S
C7593 C7594 1.523 . S
C7594 C7575 1.368 . S
C7594 C7588 1.368 . S
C7594 C7593 1.523 . S
C7595 C7579 1.429 . S
C7595 C7591 1.429 . S
C7595 C7596 1.523 . S
C7596 C7580 1.368 . S
C7596 C7592 1.368 . S
C7596 C7595 1.523 . S
H7597 C7572 0.950 . S
H7598 C7574 0.950 . S
H7599 C7575 0.949 . S
H7600 C7577 0.950 . S
H7601 C7579 0.950 . S
C7602 C7603 1.349 . S
C7602 C7604 1.327 . S
C7602 H7627 0.950 . S
C7603 C7602 1.349 . S
C7603 C7619 1.349 . S
C7604 C7602 1.327 . S
C7604 C7623 1.429 . S
C7604 H7628 0.950 . S
C7605 C7622 1.574 . S
C7605 C7624 1.368 . S
C7605 H7629 0.949 . S
H7606 C7610 0.949 . S
C7607 C7608 1.349 . S
C7607 C7609 1.327 . S
C7607 H7630 0.950 . S
C7608 C7607 1.349 . S
C7608 C7620 1.349 . S
C7609 C7607 1.327 . S
C7609 C7625 1.429 . S
C7609 H7631 0.950 . S
C7610 H7606 0.949 . S
C7610 C7618 1.574 . S
C7610 C7626 1.368 . S
H7611 C7619 0.950 . S
H7612 C7617 0.950 . S
H7613 C7618 0.949 . S
H7614 C7620 0.950 . S
H7615 C7621 0.950 . S
H7616 C7622 0.949 . S
C7617 H7612 0.950 . S
C7617 C7619 1.327 . S
C7617 C7623 1.429 . S
C7618 C7610 1.574 . S
C7618 H7613 0.949 . S
C7618 C7624 1.368 . S
C7619 C7603 1.349 . S
C7619 H7611 0.950 . S
C7619 C7617 1.327 . S
C7620 C7608 1.349 . S
C7620 H7614 0.950 . S
C7620 C7621 1.327 . S
C7621 H7615 0.950 . S
C7621 C7620 1.327 . S
C7621 C7625 1.429 . S
C7622 C7605 1.574 . S
C7622 H7616 0.949 . S
C7622 C7626 1.368 . S
C7623 C7604 1.429 . S
C7623 C7617 1.429 . S
C7623 C7624 1.523 . S
C7624 C7605 1.368 . S
C7624 C7618 1.368 . S
C7624 C7623 1.523 . S
C7625 C7609 1.429 . S
C7625 C7621 1.429 . S
C7625 C7626 1.523 . S
C7626 C7610 1.368 . S
C7626 C7622 1.368 . S
C7626 C7625 1.523 . S
H7627 C7602 0.950 . S
H7628 C7604 0.950 . S
H7629 C7605 0.949 . S
H7630 C7607 0.950 . S
H7631 C7609 0.950 . S
C7632 C7633 1.349 . S
C7632 C7634 1.327 . S
C7632 H7657 0.950 . S
C7633 C7632 1.349 . S
C7633 C7649 1.349 . S
C7634 C7632 1.327 . S
C7634 C7653 1.429 1_455 S
C7634 H7658 0.950 . S
C7635 C7652 1.574 . S
C7635 C7654 1.368 . S
C7635 H7659 0.949 . S
H7636 C7640 0.949 . S
C7637 C7638 1.349 . S
C7637 C7639 1.327 . S
C7637 H7660 0.950 . S
C7638 C7637 1.349 . S
C7638 C7650 1.349 . S
C7639 C7637 1.327 . S
C7639 C7655 1.429 . S
C7639 H7661 0.950 . S
C7640 H7636 0.949 . S
C7640 C7648 1.574 . S
C7640 C7656 1.368 . S
H7641 C7649 0.955 . S
H7642 C7647 0.950 . S
H7643 C7648 0.949 . S
H7644 C7650 0.950 . S
H7645 C7651 0.950 . S
H7646 C7652 0.949 . S
C7647 H7642 0.950 . S
C7647 C7649 1.327 1_655 S
C7647 C7653 1.429 . S
C7648 C7640 1.574 . S
C7648 H7643 0.949 . S
C7648 C7654 1.368 . S
C7649 C7633 1.349 . S
C7649 H7641 0.955 . S
C7649 C7647 1.327 1_455 S
C7650 C7638 1.349 . S
C7650 H7644 0.950 . S
C7650 C7651 1.327 . S
C7651 H7645 0.950 . S
C7651 C7650 1.327 . S
C7651 C7655 1.429 . S
C7652 C7635 1.574 . S
C7652 H7646 0.949 . S
C7652 C7656 1.368 . S
C7653 C7634 1.429 1_655 S
C7653 C7647 1.429 . S
C7653 C7654 1.523 . S
C7654 C7635 1.368 . S
C7654 C7648 1.368 . S
C7654 C7653 1.523 . S
C7655 C7639 1.429 . S
C7655 C7651 1.429 . S
C7655 C7656 1.523 . S
C7656 C7640 1.368 . S
C7656 C7652 1.368 . S
C7656 C7655 1.523 . S
H7657 C7632 0.950 . S
H7658 C7634 0.950 . S
H7659 C7635 0.949 . S
H7660 C7637 0.950 . S
H7661 C7639 0.950 . S
C7662 C7663 1.349 . S
C7662 C7664 1.327 . S
C7662 H7687 0.950 . S
C7663 C7662 1.349 . S
C7663 C7679 1.349 . S
C7664 C7662 1.327 . S
C7664 C7683 1.429 . S
C7664 H7688 0.950 . S
C7665 C7682 1.574 . S
C7665 C7684 1.368 1_565 S
C7665 H7689 0.949 . S
H7666 C7670 0.949 . S
C7667 C7668 1.349 . S
C7667 C7669 1.327 . S
C7667 H7690 0.950 . S
C7668 C7667 1.349 . S
C7668 C7680 1.349 . S
C7669 C7667 1.327 . S
C7669 C7685 1.429 . S
C7669 H7691 0.950 . S
C7670 H7666 0.949 . S
C7670 C7678 1.574 . S
C7670 C7686 1.368 1_545 S
H7671 C7679 0.950 . S
H7672 C7677 0.916 1_565 S
H7673 C7678 0.949 . S
H7674 C7680 0.950 . S
H7675 C7681 0.950 . S
H7676 C7682 0.949 . S
C7677 H7672 0.916 1_545 S
C7677 C7679 1.327 . S
C7677 C7683 1.429 . S
C7678 C7670 1.574 . S
C7678 H7673 0.949 . S
C7678 C7684 1.368 . S
C7679 C7663 1.349 . S
C7679 H7671 0.950 . S
C7679 C7677 1.327 . S
C7680 C7668 1.349 . S
C7680 H7674 0.950 . S
C7680 C7681 1.327 . S
C7681 H7675 0.950 . S
C7681 C7680 1.327 . S
C7681 C7685 1.429 . S
C7682 C7665 1.574 . S
C7682 H7676 0.949 . S
C7682 C7686 1.368 . S
C7683 C7664 1.429 . S
C7683 C7677 1.429 . S
C7683 C7684 1.523 . S
C7684 C7665 1.368 1_545 S
C7684 C7678 1.368 . S
C7684 C7683 1.523 . S
C7685 C7669 1.429 . S
C7685 C7681 1.429 . S
C7685 C7686 1.523 . S
C7686 C7670 1.368 1_565 S
C7686 C7682 1.368 . S
C7686 C7685 1.523 . S
H7687 C7662 0.950 . S
H7688 C7664 0.950 . S
H7689 C7665 0.949 . S
H7690 C7667 0.950 . S
H7691 C7669 0.950 . S
C7692 C7693 1.349 . S
C7692 C7694 1.327 . S
C7692 H7717 0.950 . S
C7693 C7692 1.349 . S
C7693 C7709 1.349 . S
C7694 C7692 1.327 . S
C7694 C7713 1.429 . S
C7694 H7718 0.950 . S
C7695 C7712 1.574 . S
C7695 C7714 1.368 . S
C7695 H7719 0.949 . S
H7696 C7700 0.949 . S
C7697 C7698 1.349 . S
C7697 C7699 1.327 . S
C7697 H7720 0.950 . S
C7698 C7697 1.349 . S
C7698 C7710 1.349 . S
C7699 C7697 1.327 . S
C7699 C7715 1.429 . S
C7699 H7721 0.950 . S
C7700 H7696 0.949 . S
C7700 C7708 1.574 . S
C7700 C7716 1.368 . S
H7701 C7709 0.950 . S
H7702 C7707 0.950 . S
H7703 C7708 0.949 . S
H7704 C7710 0.950 . S
H7705 C7711 0.950 . S
H7706 C7712 0.949 . S
C7707 H7702 0.950 . S
C7707 C7709 1.327 . S
C7707 C7713 1.429 . S
C7708 C7700 1.574 . S
C7708 H7703 0.949 . S
C7708 C7714 1.368 . S
C7709 C7693 1.349 . S
C7709 H7701 0.950 . S
C7709 C7707 1.327 . S
C7710 C7698 1.349 . S
C7710 H7704 0.950 . S
C7710 C7711 1.327 . S
C7711 H7705 0.950 . S
C7711 C7710 1.327 . S
C7711 C7715 1.429 . S
C7712 C7695 1.574 . S
C7712 H7706 0.949 . S
C7712 C7716 1.368 . S
C7713 C7694 1.429 . S
C7713 C7707 1.429 . S
C7713 C7714 1.523 . S
C7714 C7695 1.368 . S
C7714 C7708 1.368 . S
C7714 C7713 1.523 . S
C7715 C7699 1.429 . S
C7715 C7711 1.429 . S
C7715 C7716 1.523 . S
C7716 C7700 1.368 . S
C7716 C7712 1.368 . S
C7716 C7715 1.523 . S
H7717 C7692 0.950 . S
H7718 C7694 0.950 . S
H7719 C7695 0.949 . S
H7720 C7697 0.950 . S
H7721 C7699 0.950 . S
C7722 C7723 1.349 . S
C7722 C7724 1.327 . S
C7722 H7747 0.950 . S
C7723 C7722 1.349 . S
C7723 C7739 1.349 . S
C7724 C7722 1.327 . S
C7724 C7743 1.429 . S
C7724 H7748 0.950 . S
C7725 C7742 1.574 . S
C7725 C7744 1.368 . S
C7725 H7749 0.949 . S
H7726 C7730 0.949 . S
C7727 C7728 1.349 . S
C7727 C7729 1.327 . S
C7727 H7750 0.950 . S
C7728 C7727 1.349 . S
C7728 C7740 1.349 . S
C7729 C7727 1.327 . S
C7729 C7745 1.429 . S
C7729 H7751 0.950 . S
C7730 H7726 0.949 . S
C7730 C7738 1.574 . S
C7730 C7746 1.368 . S
H7731 C7739 0.950 . S
H7732 C7737 0.950 . S
H7733 C7738 0.949 . S
H7734 C7740 0.950 . S
H7735 C7741 0.950 . S
H7736 C7742 0.949 . S
C7737 H7732 0.950 . S
C7737 C7739 1.327 . S
C7737 C7743 1.429 . S
C7738 C7730 1.574 . S
C7738 H7733 0.949 . S
C7738 C7744 1.368 . S
C7739 C7723 1.349 . S
C7739 H7731 0.950 . S
C7739 C7737 1.327 . S
C7740 C7728 1.349 . S
C7740 H7734 0.950 . S
C7740 C7741 1.327 . S
C7741 H7735 0.950 . S
C7741 C7740 1.327 . S
C7741 C7745 1.429 . S
C7742 C7725 1.574 . S
C7742 H7736 0.949 . S
C7742 C7746 1.368 . S
C7743 C7724 1.429 . S
C7743 C7737 1.429 . S
C7743 C7744 1.523 . S
C7744 C7725 1.368 . S
C7744 C7738 1.368 . S
C7744 C7743 1.523 . S
C7745 C7729 1.429 . S
C7745 C7741 1.429 . S
C7745 C7746 1.523 . S
C7746 C7730 1.368 . S
C7746 C7742 1.368 . S
C7746 C7745 1.523 . S
H7747 C7722 0.950 . S
H7748 C7724 0.950 . S
H7749 C7725 0.949 . S
H7750 C7727 0.950 . S
H7751 C7729 0.950 . S
C7752 C7753 1.349 . S
C7752 C7754 1.327 . S
C7752 H7777 0.950 . S
C7753 C7752 1.349 . S
C7753 C7769 1.349 1_455 S
C7754 C7752 1.327 . S
C7754 C7773 1.429 1_455 S
C7754 H7778 0.950 . S
C7755 C7772 1.574 . S
C7755 C7774 1.368 . S
C7755 H7779 0.949 . S
H7756 C7760 0.949 . S
C7757 C7758 1.349 . S
C7757 C7759 1.327 . S
C7757 H7780 0.950 . S
C7758 C7757 1.349 . S
C7758 C7770 1.349 . S
C7759 C7757 1.327 . S
C7759 C7775 1.429 . S
C7759 H7781 0.950 . S
C7760 H7756 0.949 . S
C7760 C7768 1.574 . S
C7760 C7776 1.368 . S
H7761 C7769 0.950 . S
H7762 C7767 0.950 . S
H7763 C7768 0.949 . S
H7764 C7770 0.950 . S
H7765 C7771 0.950 . S
H7766 C7772 0.949 . S
C7767 H7762 0.950 . S
C7767 C7769 1.327 . S
C7767 C7773 1.429 . S
C7768 C7760 1.574 . S
C7768 H7763 0.949 . S
C7768 C7774 1.368 . S
C7769 C7753 1.349 1_655 S
C7769 H7761 0.950 . S
C7769 C7767 1.327 . S
C7770 C7758 1.349 . S
C7770 H7764 0.950 . S
C7770 C7771 1.327 . S
C7771 H7765 0.950 . S
C7771 C7770 1.327 . S
C7771 C7775 1.429 . S
C7772 C7755 1.574 . S
C7772 H7766 0.949 . S
C7772 C7776 1.368 . S
C7773 C7754 1.429 1_655 S
C7773 C7767 1.429 . S
C7773 C7774 1.523 . S
C7774 C7755 1.368 . S
C7774 C7768 1.368 . S
C7774 C7773 1.523 . S
C7775 C7759 1.429 . S
C7775 C7771 1.429 . S
C7775 C7776 1.523 . S
C7776 C7760 1.368 . S
C7776 C7772 1.368 . S
C7776 C7775 1.523 . S
H7777 C7752 0.950 . S
H7778 C7754 0.950 . S
H7779 C7755 0.949 . S
H7780 C7757 0.950 . S
H7781 C7759 0.950 . S
C7782 C7783 1.349 . S
C7782 C7784 1.327 . S
C7782 H7807 0.950 . S
C7783 C7782 1.349 . S
C7783 C7799 1.349 . S
C7784 C7782 1.327 . S
C7784 C7803 1.429 . S
C7784 H7808 0.950 . S
C7785 C7802 1.574 . S
C7785 C7804 1.368 . S
C7785 H7809 0.949 . S
H7786 C7790 0.949 . S
C7787 C7788 1.349 . S
C7787 C7789 1.327 . S
C7787 H7810 0.950 . S
C7788 C7787 1.349 . S
C7788 C7800 1.349 . S
C7789 C7787 1.327 . S
C7789 C7805 1.429 . S
C7789 H7811 0.950 . S
C7790 H7786 0.949 . S
C7790 C7798 1.574 . S
C7790 C7806 1.368 . S
H7791 C7799 0.950 . S
H7792 C7797 0.950 . S
H7793 C7798 0.949 . S
H7794 C7800 0.950 . S
H7795 C7801 0.950 . S
H7796 C7802 0.949 . S
C7797 H7792 0.950 . S
C7797 C7799 1.327 . S
C7797 C7803 1.429 . S
C7798 C7790 1.574 . S
C7798 H7793 0.949 . S
C7798 C7804 1.368 . S
C7799 C7783 1.349 . S
C7799 H7791 0.950 . S
C7799 C7797 1.327 . S
C7800 C7788 1.349 . S
C7800 H7794 0.950 . S
C7800 C7801 1.327 . S
C7801 H7795 0.950 . S
C7801 C7800 1.327 . S
C7801 C7805 1.429 . S
C7802 C7785 1.574 . S
C7802 H7796 0.949 . S
C7802 C7806 1.368 . S
C7803 C7784 1.429 . S
C7803 C7797 1.429 . S
C7803 C7804 1.523 . S
C7804 C7785 1.368 . S
C7804 C7798 1.368 . S
C7804 C7803 1.523 . S
C7805 C7789 1.429 . S
C7805 C7801 1.429 . S
C7805 C7806 1.523 . S
C7806 C7790 1.368 . S
C7806 C7802 1.368 . S
C7806 C7805 1.523 . S
H7807 C7782 0.950 . S
H7808 C7784 0.950 . S
H7809 C7785 0.949 . S
H7810 C7787 0.950 . S
H7811 C7789 0.950 . S
C7812 C7813 1.349 . S
C7812 C7814 1.327 . S
C7812 H7837 0.950 . S
C7813 C7812 1.349 . S
C7813 C7829 1.349 . S
C7814 C7812 1.327 . S
C7814 C7833 1.429 . S
C7814 H7838 0.950 . S
C7815 C7832 1.574 . S
C7815 C7834 1.368 . S
C7815 H7839 0.949 . S
H7816 C7820 0.949 . S
C7817 C7818 1.349 . S
C7817 C7819 1.327 . S
C7817 H7840 0.950 . S
C7818 C7817 1.349 . S
C7818 C7830 1.349 . S
C7819 C7817 1.327 . S
C7819 C7835 1.429 . S
C7819 H7841 0.950 . S
C7820 H7816 0.949 . S
C7820 C7828 1.574 . S
C7820 C7836 1.368 . S
H7821 C7829 0.950 . S
H7822 C7827 0.950 . S
H7823 C7828 0.949 . S
H7824 C7830 0.950 . S
H7825 C7831 0.950 . S
H7826 C7832 0.949 . S
C7827 H7822 0.950 . S
C7827 C7829 1.327 . S
C7827 C7833 1.429 . S
C7828 C7820 1.574 . S
C7828 H7823 0.949 . S
C7828 C7834 1.368 . S
C7829 C7813 1.349 . S
C7829 H7821 0.950 . S
C7829 C7827 1.327 . S
C7830 C7818 1.349 . S
C7830 H7824 0.950 . S
C7830 C7831 1.327 . S
C7831 H7825 0.950 . S
C7831 C7830 1.327 . S
C7831 C7835 1.429 . S
C7832 C7815 1.574 . S
C7832 H7826 0.949 . S
C7832 C7836 1.368 . S
C7833 C7814 1.429 . S
C7833 C7827 1.429 . S
C7833 C7834 1.523 . S
C7834 C7815 1.368 . S
C7834 C7828 1.368 . S
C7834 C7833 1.523 . S
C7835 C7819 1.429 . S
C7835 C7831 1.429 . S
C7835 C7836 1.523 . S
C7836 C7820 1.368 . S
C7836 C7832 1.368 . S
C7836 C7835 1.523 . S
H7837 C7812 0.950 . S
H7838 C7814 0.950 . S
H7839 C7815 0.949 . S
H7840 C7817 0.950 . S
H7841 C7819 0.950 . S
C7842 C7843 1.349 . S
C7842 C7844 1.327 . S
C7842 H7867 0.950 . S
C7843 C7842 1.349 . S
C7843 C7859 1.349 . S
C7844 C7842 1.327 . S
C7844 C7863 1.429 . S
C7844 H7868 0.950 . S
C7845 C7862 1.574 . S
C7845 C7864 1.368 . S
C7845 H7869 0.949 . S
H7846 C7850 0.949 . S
C7847 C7848 1.349 . S
C7847 C7849 1.327 . S
C7847 H7870 0.950 . S
C7848 C7847 1.349 . S
C7848 C7860 1.349 . S
C7849 C7847 1.327 . S
C7849 C7865 1.429 . S
C7849 H7871 0.950 . S
C7850 H7846 0.949 . S
C7850 C7858 1.574 . S
C7850 C7866 1.368 . S
H7851 C7859 0.950 . S
H7852 C7857 0.950 . S
H7853 C7858 0.949 . S
H7854 C7860 0.950 . S
H7855 C7861 0.950 . S
H7856 C7862 0.949 . S
C7857 H7852 0.950 . S
C7857 C7859 1.327 . S
C7857 C7863 1.429 . S
C7858 C7850 1.574 . S
C7858 H7853 0.949 . S
C7858 C7864 1.368 . S
C7859 C7843 1.349 . S
C7859 H7851 0.950 . S
C7859 C7857 1.327 . S
C7860 C7848 1.349 . S
C7860 H7854 0.950 . S
C7860 C7861 1.327 . S
C7861 H7855 0.950 . S
C7861 C7860 1.327 . S
C7861 C7865 1.429 . S
C7862 C7845 1.574 . S
C7862 H7856 0.949 . S
C7862 C7866 1.368 . S
C7863 C7844 1.429 . S
C7863 C7857 1.429 . S
C7863 C7864 1.523 . S
C7864 C7845 1.368 . S
C7864 C7858 1.368 . S
C7864 C7863 1.523 . S
C7865 C7849 1.429 . S
C7865 C7861 1.429 . S
C7865 C7866 1.523 . S
C7866 C7850 1.368 . S
C7866 C7862 1.368 . S
C7866 C7865 1.523 . S
H7867 C7842 0.950 . S
H7868 C7844 0.950 . S
H7869 C7845 0.949 . S
H7870 C7847 0.950 . S
H7871 C7849 0.950 . S
C7872 C7873 1.349 . S
C7872 C7874 1.327 . S
C7872 H7897 0.950 . S
C7873 C7872 1.349 . S
C7873 C7889 1.349 . S
C7874 C7872 1.327 . S
C7874 C7893 1.429 . S
C7874 H7898 0.950 . S
C7875 C7892 1.574 . S
C7875 C7894 1.368 . S
C7875 H7899 0.949 . S
H7876 C7880 0.949 . S
C7877 C7878 1.349 . S
C7877 C7879 1.327 . S
C7877 H7900 0.950 . S
C7878 C7877 1.349 . S
C7878 C7890 1.349 . S
C7879 C7877 1.327 . S
C7879 C7895 1.429 . S
C7879 H7901 0.950 . S
C7880 H7876 0.949 . S
C7880 C7888 1.574 . S
C7880 C7896 1.368 . S
H7881 C7889 0.950 1_545 S
H7882 C7887 0.950 . S
H7883 C7888 0.949 . S
H7884 C7890 0.950 . S
H7885 C7891 0.950 . S
H7886 C7892 0.949 . S
C7887 H7882 0.950 . S
C7887 C7889 1.327 . S
C7887 C7893 1.429 . S
C7888 C7880 1.574 . S
C7888 H7883 0.949 . S
C7888 C7894 1.368 . S
C7889 C7873 1.349 . S
C7889 H7881 0.950 1_565 S
C7889 C7887 1.327 . S
C7890 C7878 1.349 . S
C7890 H7884 0.950 . S
C7890 C7891 1.327 . S
C7891 H7885 0.950 . S
C7891 C7890 1.327 . S
C7891 C7895 1.429 . S
C7892 C7875 1.574 . S
C7892 H7886 0.949 . S
C7892 C7896 1.368 . S
C7893 C7874 1.429 . S
C7893 C7887 1.429 . S
C7893 C7894 1.523 . S
C7894 C7875 1.368 . S
C7894 C7888 1.368 . S
C7894 C7893 1.523 . S
C7895 C7879 1.429 . S
C7895 C7891 1.429 . S
C7895 C7896 1.523 . S
C7896 C7880 1.368 . S
C7896 C7892 1.368 . S
C7896 C7895 1.523 . S
H7897 C7872 0.950 . S
H7898 C7874 0.950 . S
H7899 C7875 0.949 . S
H7900 C7877 0.950 . S
H7901 C7879 0.950 . S
C7902 C7903 1.349 . S
C7902 C7904 1.327 . S
C7902 H7927 0.950 . S
C7903 C7902 1.349 . S
C7903 C7919 1.349 . S
C7904 C7902 1.327 . S
C7904 C7923 1.429 . S
C7904 H7928 0.950 . S
C7905 C7922 1.574 . S
C7905 C7924 1.368 . S
C7905 H7929 0.949 . S
H7906 C7910 0.949 . S
C7907 C7908 1.349 . S
C7907 C7909 1.327 . S
C7907 H7930 0.950 . S
C7908 C7907 1.349 . S
C7908 C7920 1.349 . S
C7909 C7907 1.327 . S
C7909 C7925 1.429 . S
C7909 H7931 0.950 . S
C7910 H7906 0.949 . S
C7910 C7918 1.574 . S
C7910 C7926 1.368 . S
H7911 C7919 0.950 . S
H7912 C7917 0.950 . S
H7913 C7918 0.949 . S
H7914 C7920 0.950 . S
H7915 C7921 0.950 . S
H7916 C7922 0.949 . S
C7917 H7912 0.950 . S
C7917 C7919 1.327 . S
C7917 C7923 1.429 . S
C7918 C7910 1.574 . S
C7918 H7913 0.949 . S
C7918 C7924 1.368 . S
C7919 C7903 1.349 . S
C7919 H7911 0.950 . S
C7919 C7917 1.327 . S
C7920 C7908 1.349 . S
C7920 H7914 0.950 . S
C7920 C7921 1.327 . S
C7921 H7915 0.950 . S
C7921 C7920 1.327 . S
C7921 C7925 1.429 . S
C7922 C7905 1.574 . S
C7922 H7916 0.949 . S
C7922 C7926 1.368 . S
C7923 C7904 1.429 . S
C7923 C7917 1.429 . S
C7923 C7924 1.523 . S
C7924 C7905 1.368 . S
C7924 C7918 1.368 . S
C7924 C7923 1.523 . S
C7925 C7909 1.429 . S
C7925 C7921 1.429 . S
C7925 C7926 1.523 . S
C7926 C7910 1.368 . S
C7926 C7922 1.368 . S
C7926 C7925 1.523 . S
H7927 C7902 0.950 . S
H7928 C7904 0.950 . S
H7929 C7905 0.949 . S
H7930 C7907 0.950 . S
H7931 C7909 0.950 . S
C7932 C7933 1.349 . S
C7932 C7934 1.327 . S
C7932 H7957 0.950 . S
C7933 C7932 1.349 . S
C7933 C7949 1.349 . S
C7934 C7932 1.327 . S
C7934 C7953 1.429 . S
C7934 H7958 0.950 . S
C7935 C7952 1.574 . S
C7935 C7954 1.368 . S
C7935 H7959 0.949 . S
H7936 C7940 0.949 . S
C7937 C7938 1.349 . S
C7937 C7939 1.327 . S
C7937 H7960 0.950 . S
C7938 C7937 1.349 . S
C7938 C7950 1.349 . S
C7939 C7937 1.327 . S
C7939 C7955 1.429 . S
C7939 H7961 0.950 . S
C7940 H7936 0.949 . S
C7940 C7948 1.574 . S
C7940 C7956 1.368 . S
H7941 C7949 0.950 . S
H7942 C7947 0.950 . S
H7943 C7948 0.949 . S
H7944 C7950 0.950 . S
H7945 C7951 0.950 . S
H7946 C7952 0.949 . S
C7947 H7942 0.950 . S
C7947 C7949 1.327 . S
C7947 C7953 1.429 . S
C7948 C7940 1.574 . S
C7948 H7943 0.949 . S
C7948 C7954 1.368 . S
C7949 C7933 1.349 . S
C7949 H7941 0.950 . S
C7949 C7947 1.327 . S
C7950 C7938 1.349 . S
C7950 H7944 0.950 . S
C7950 C7951 1.327 . S
C7951 H7945 0.950 . S
C7951 C7950 1.327 . S
C7951 C7955 1.429 . S
C7952 C7935 1.574 . S
C7952 H7946 0.949 . S
C7952 C7956 1.368 . S
C7953 C7934 1.429 . S
C7953 C7947 1.429 . S
C7953 C7954 1.523 . S
C7954 C7935 1.368 . S
C7954 C7948 1.368 . S
C7954 C7953 1.523 . S
C7955 C7939 1.429 . S
C7955 C7951 1.429 . S
C7955 C7956 1.523 . S
C7956 C7940 1.368 . S
C7956 C7952 1.368 . S
C7956 C7955 1.523 . S
H7957 C7932 0.950 . S
H7958 C7934 0.950 . S
H7959 C7935 0.949 . S
H7960 C7937 0.950 . S
H7961 C7939 0.950 . S
C7962 C7963 1.349 . S
C7962 C7964 1.327 . S
C7962 H7987 0.950 . S
C7963 C7962 1.349 . S
C7963 C7979 1.349 . S
C7964 C7962 1.327 . S
C7964 C7983 1.429 . S
C7964 H7988 0.950 1_455 S
C7965 C7982 1.574 . S
C7965 C7984 1.368 . S
C7965 H7989 0.949 1_655 S
H7966 C7970 0.949 . S
C7967 C7968 1.349 . S
C7967 C7969 1.327 . S
C7967 H7990 0.950 . S
C7968 C7967 1.349 . S
C7968 C7980 1.349 . S
C7969 C7967 1.327 . S
C7969 C7985 1.429 . S
C7969 H7991 0.950 . S
C7970 H7966 0.949 . S
C7970 C7978 1.574 . S
C7970 C7986 1.368 . S
H7971 C7979 0.950 . S
H7972 C7977 0.950 . S
H7973 C7978 0.949 . S
H7974 C7980 0.950 . S
H7975 C7981 0.950 . S
H7976 C7982 0.949 . S
C7977 H7972 0.950 . S
C7977 C7979 1.327 . S
C7977 C7983 1.429 . S
C7978 C7970 1.574 . S
C7978 H7973 0.949 . S
C7978 C7984 1.368 . S
C7979 C7963 1.349 . S
C7979 H7971 0.950 . S
C7979 C7977 1.327 . S
C7980 C7968 1.349 . S
C7980 H7974 0.950 . S
C7980 C7981 1.327 . S
C7981 H7975 0.950 . S
C7981 C7980 1.327 . S
C7981 C7985 1.429 . S
C7982 C7965 1.574 . S
C7982 H7976 0.949 . S
C7982 C7986 1.368 . S
C7983 C7964 1.429 . S
C7983 C7977 1.429 . S
C7983 C7984 1.523 1_455 S
C7984 C7965 1.368 . S
C7984 C7978 1.368 . S
C7984 C7983 1.523 1_655 S
C7985 C7969 1.429 . S
C7985 C7981 1.429 . S
C7985 C7986 1.523 . S
C7986 C7970 1.368 . S
C7986 C7982 1.368 . S
C7986 C7985 1.523 . S
H7987 C7962 0.950 . S
H7988 C7964 0.950 1_655 S
H7989 C7965 0.949 1_455 S
H7990 C7967 0.950 . S
H7991 C7969 0.950 . S
C7992 C7993 1.349 . S
C7992 C7994 1.327 . S
C7992 H8017 0.950 . S
C7993 C7992 1.349 . S
C7993 C8009 1.349 . S
C7994 C7992 1.327 . S
C7994 C8013 1.429 . S
C7994 H8018 0.950 . S
C7995 C8012 1.574 . S
C7995 C8014 1.368 . S
C7995 H8019 0.949 . S
H7996 C8000 0.949 . S
C7997 C7998 1.349 . S
C7997 C7999 1.327 . S
C7997 H8020 0.950 . S
C7998 C7997 1.349 . S
C7998 C8010 1.349 . S
C7999 C7997 1.327 . S
C7999 C8015 1.429 . S
C7999 H8021 0.950 . S
C8000 H7996 0.949 . S
C8000 C8008 1.574 . S
C8000 C8016 1.368 . S
H8001 C8009 0.950 . S
H8002 C8007 0.950 . S
H8003 C8008 0.949 . S
H8004 C8010 0.950 . S
H8005 C8011 0.950 . S
H8006 C8012 0.949 . S
C8007 H8002 0.950 . S
C8007 C8009 1.327 . S
C8007 C8013 1.429 . S
C8008 C8000 1.574 . S
C8008 H8003 0.949 . S
C8008 C8014 1.368 . S
C8009 C7993 1.349 . S
C8009 H8001 0.950 . S
C8009 C8007 1.327 . S
C8010 C7998 1.349 . S
C8010 H8004 0.950 . S
C8010 C8011 1.327 . S
C8011 H8005 0.950 . S
C8011 C8010 1.327 . S
C8011 C8015 1.429 . S
C8012 C7995 1.574 . S
C8012 H8006 0.949 . S
C8012 C8016 1.368 . S
C8013 C7994 1.429 . S
C8013 C8007 1.429 . S
C8013 C8014 1.523 . S
C8014 C7995 1.368 . S
C8014 C8008 1.368 . S
C8014 C8013 1.523 . S
C8015 C7999 1.429 . S
C8015 C8011 1.429 . S
C8015 C8016 1.523 . S
C8016 C8000 1.368 . S
C8016 C8012 1.368 . S
C8016 C8015 1.523 . S
H8017 C7992 0.950 . S
H8018 C7994 0.950 . S
H8019 C7995 0.949 . S
H8020 C7997 0.950 . S
H8021 C7999 0.950 . S
C8022 C8023 1.349 . S
C8022 C8024 1.327 . S
C8022 H8047 0.950 . S
C8023 C8022 1.349 . S
C8023 C8039 1.349 . S
C8024 C8022 1.327 . S
C8024 C8043 1.429 . S
C8024 H8048 0.950 . S
C8025 C8042 1.574 . S
C8025 C8044 1.368 . S
C8025 H8049 0.949 . S
H8026 C8030 0.949 . S
C8027 C8028 1.349 . S
C8027 C8029 1.327 . S
C8027 H8050 0.950 . S
C8028 C8027 1.349 . S
C8028 C8040 1.349 . S
C8029 C8027 1.327 . S
C8029 C8045 1.429 . S
C8029 H8051 0.950 . S
C8030 H8026 0.949 . S
C8030 C8038 1.574 . S
C8030 C8046 1.368 . S
H8031 C8039 0.950 . S
H8032 C8037 0.950 . S
H8033 C8038 0.949 . S
H8034 C8040 0.950 . S
H8035 C8041 0.950 . S
H8036 C8042 0.949 . S
C8037 H8032 0.950 . S
C8037 C8039 1.327 . S
C8037 C8043 1.429 . S
C8038 C8030 1.574 . S
C8038 H8033 0.949 . S
C8038 C8044 1.368 . S
C8039 C8023 1.349 . S
C8039 H8031 0.950 . S
C8039 C8037 1.327 . S
C8040 C8028 1.349 . S
C8040 H8034 0.950 . S
C8040 C8041 1.327 . S
C8041 H8035 0.950 . S
C8041 C8040 1.327 . S
C8041 C8045 1.429 . S
C8042 C8025 1.574 . S
C8042 H8036 0.949 . S
C8042 C8046 1.368 . S
C8043 C8024 1.429 . S
C8043 C8037 1.429 . S
C8043 C8044 1.523 . S
C8044 C8025 1.368 . S
C8044 C8038 1.368 . S
C8044 C8043 1.523 . S
C8045 C8029 1.429 . S
C8045 C8041 1.429 . S
C8045 C8046 1.523 . S
C8046 C8030 1.368 . S
C8046 C8042 1.368 . S
C8046 C8045 1.523 . S
H8047 C8022 0.950 . S
H8048 C8024 0.950 . S
H8049 C8025 0.949 . S
H8050 C8027 0.950 . S
H8051 C8029 0.950 . S
C8052 C8053 1.349 . S
C8052 C8054 1.327 . S
C8052 H8077 0.950 . S
C8053 C8052 1.349 . S
C8053 C8069 1.349 . S
C8054 C8052 1.327 . S
C8054 C8073 1.429 . S
C8054 H8078 0.950 1_545 S
C8055 C8072 1.574 1_545 S
C8055 C8074 1.368 1_545 S
C8055 H8079 0.949 . S
H8056 C8060 0.949 . S
C8057 C8058 1.349 . S
C8057 C8059 1.327 . S
C8057 H8080 0.950 . S
C8058 C8057 1.349 . S
C8058 C8070 1.349 . S
C8059 C8057 1.327 . S
C8059 C8075 1.429 . S
C8059 H8081 0.950 . S
C8060 H8056 0.949 . S
C8060 C8068 1.574 . S
C8060 C8076 1.368 . S
H8061 C8069 0.950 . S
H8062 C8067 0.950 . S
H8063 C8068 0.949 . S
H8064 C8070 0.950 . S
H8065 C8071 0.950 . S
H8066 C8072 0.949 . S
C8067 H8062 0.950 . S
C8067 C8069 1.327 . S
C8067 C8073 1.429 . S
C8068 C8060 1.574 . S
C8068 H8063 0.949 . S
C8068 C8074 1.368 . S
C8069 C8053 1.349 . S
C8069 H8061 0.950 . S
C8069 C8067 1.327 . S
C8070 C8058 1.349 . S
C8070 H8064 0.950 . S
C8070 C8071 1.327 . S
C8071 H8065 0.950 . S
C8071 C8070 1.327 . S
C8071 C8075 1.429 . S
C8072 C8055 1.574 1_565 S
C8072 H8066 0.949 . S
C8072 C8076 1.368 . S
C8073 C8054 1.429 . S
C8073 C8067 1.429 . S
C8073 C8074 1.523 1_545 S
C8074 C8055 1.368 1_565 S
C8074 C8068 1.368 . S
C8074 C8073 1.523 1_565 S
C8075 C8059 1.429 . S
C8075 C8071 1.429 . S
C8075 C8076 1.523 . S
C8076 C8060 1.368 . S
C8076 C8072 1.368 . S
C8076 C8075 1.523 . S
H8077 C8052 0.950 . S
H8078 C8054 0.950 1_565 S
H8079 C8055 0.949 . S
H8080 C8057 0.950 . S
H8081 C8059 0.950 . S
C8082 C8083 1.349 . S
C8082 C8084 1.327 . S
C8082 H8107 0.950 . S
C8083 C8082 1.349 . S
C8083 C8099 1.349 . S
C8084 C8082 1.327 . S
C8084 C8103 1.429 . S
C8084 H8108 0.950 . S
C8085 C8102 1.574 . S
C8085 C8104 1.368 . S
C8085 H8109 0.949 . S
H8086 C8090 0.949 . S
C8087 C8088 1.349 . S
C8087 C8089 1.327 . S
C8087 H8110 0.950 . S
C8088 C8087 1.349 . S
C8088 C8100 1.349 . S
C8089 C8087 1.327 . S
C8089 C8105 1.429 . S
C8089 H8111 0.950 . S
C8090 H8086 0.949 . S
C8090 C8098 1.574 . S
C8090 C8106 1.368 . S
H8091 C8099 0.950 . S
H8092 C8097 0.950 . S
H8093 C8098 0.949 . S
H8094 C8100 0.950 . S
H8095 C8101 0.950 . S
H8096 C8102 0.949 . S
C8097 H8092 0.950 . S
C8097 C8099 1.327 . S
C8097 C8103 1.429 . S
C8098 C8090 1.574 . S
C8098 H8093 0.949 . S
C8098 C8104 1.368 . S
C8099 C8083 1.349 . S
C8099 H8091 0.950 . S
C8099 C8097 1.327 . S
C8100 C8088 1.349 . S
C8100 H8094 0.950 . S
C8100 C8101 1.327 . S
C8101 H8095 0.950 . S
C8101 C8100 1.327 . S
C8101 C8105 1.429 . S
C8102 C8085 1.574 . S
C8102 H8096 0.949 . S
C8102 C8106 1.368 . S
C8103 C8084 1.429 . S
C8103 C8097 1.429 . S
C8103 C8104 1.523 . S
C8104 C8085 1.368 . S
C8104 C8098 1.368 . S
C8104 C8103 1.523 . S
C8105 C8089 1.429 . S
C8105 C8101 1.429 . S
C8105 C8106 1.523 . S
C8106 C8090 1.368 . S
C8106 C8102 1.368 . S
C8106 C8105 1.523 . S
H8107 C8082 0.950 . S
H8108 C8084 0.950 . S
H8109 C8085 0.949 . S
H8110 C8087 0.950 . S
H8111 C8089 0.950 . S
C8112 C8113 1.349 . S
C8112 C8114 1.327 1_554 S
C8112 H8137 0.950 . S
C8113 C8112 1.349 . S
C8113 C8129 1.349 . S
C8114 C8112 1.327 1_556 S
C8114 C8133 1.429 . S
C8114 H8138 0.950 . S
C8115 C8132 1.574 . S
C8115 C8134 1.368 . S
C8115 H8139 1.015 . S
H8116 C8120 0.949 . S
C8117 C8118 1.349 . S
C8117 C8119 1.327 . S
C8117 H8140 0.950 . S
C8118 C8117 1.349 . S
C8118 C8130 1.349 . S
C8119 C8117 1.327 . S
C8119 C8135 1.429 . S
C8119 H8141 0.950 . S
C8120 H8116 0.949 . S
C8120 C8128 1.574 . S
C8120 C8136 1.368 . S
H8121 C8129 0.950 . S
H8122 C8127 0.950 . S
H8123 C8128 0.949 . S
H8124 C8130 0.950 . S
H8125 C8131 0.950 . S
H8126 C8132 0.949 . S
C8127 H8122 0.950 . S
C8127 C8129 1.327 . S
C8127 C8133 1.429 1_554 S
C8128 C8120 1.574 . S
C8128 H8123 0.949 . S
C8128 C8134 1.368 . S
C8129 C8113 1.349 . S
C8129 H8121 0.950 . S
C8129 C8127 1.327 . S
C8130 C8118 1.349 . S
C8130 H8124 0.950 . S
C8130 C8131 1.327 . S
C8131 H8125 0.950 . S
C8131 C8130 1.327 . S
C8131 C8135 1.429 . S
C8132 C8115 1.574 . S
C8132 H8126 0.949 . S
C8132 C8136 1.368 . S
C8133 C8114 1.429 . S
C8133 C8127 1.429 1_556 S
C8133 C8134 1.523 . S
C8134 C8115 1.368 . S
C8134 C8128 1.368 . S
C8134 C8133 1.523 . S
C8135 C8119 1.429 . S
C8135 C8131 1.429 . S
C8135 C8136 1.523 . S
C8136 C8120 1.368 . S
C8136 C8132 1.368 . S
C8136 C8135 1.523 . S
H8137 C8112 0.950 . S
H8138 C8114 0.950 . S
H8139 C8115 1.015 . S
H8140 C8117 0.950 . S
H8141 C8119 0.950 . S
C8142 C8143 1.349 . S
C8142 C8144 1.327 . S
C8142 H8167 0.950 . S
C8143 C8142 1.349 . S
C8143 C8159 1.349 . S
C8144 C8142 1.327 . S
C8144 C8163 1.429 . S
C8144 H8168 0.950 . S
C8145 C8162 1.574 . S
C8145 C8164 1.368 . S
C8145 H8169 0.949 . S
H8146 C8150 0.949 . S
C8147 C8148 1.349 . S
C8147 C8149 1.327 . S
C8147 H8170 0.950 . S
C8148 C8147 1.349 . S
C8148 C8160 1.349 . S
C8149 C8147 1.327 . S
C8149 C8165 1.429 . S
C8149 H8171 0.950 . S
C8150 H8146 0.949 . S
C8150 C8158 1.574 . S
C8150 C8166 1.368 . S
H8151 C8159 0.950 . S
H8152 C8157 0.950 . S
H8153 C8158 0.949 . S
H8154 C8160 0.950 . S
H8155 C8161 0.950 . S
H8156 C8162 0.949 . S
C8157 H8152 0.950 . S
C8157 C8159 1.327 . S
C8157 C8163 1.429 . S
C8158 C8150 1.574 . S
C8158 H8153 0.949 . S
C8158 C8164 1.368 . S
C8159 C8143 1.349 . S
C8159 H8151 0.950 . S
C8159 C8157 1.327 . S
C8160 C8148 1.349 . S
C8160 H8154 0.950 . S
C8160 C8161 1.327 . S
C8161 H8155 0.950 . S
C8161 C8160 1.327 . S
C8161 C8165 1.429 . S
C8162 C8145 1.574 . S
C8162 H8156 0.949 . S
C8162 C8166 1.368 . S
C8163 C8144 1.429 . S
C8163 C8157 1.429 . S
C8163 C8164 1.523 . S
C8164 C8145 1.368 . S
C8164 C8158 1.368 . S
C8164 C8163 1.523 . S
C8165 C8149 1.429 . S
C8165 C8161 1.429 . S
C8165 C8166 1.523 . S
C8166 C8150 1.368 . S
C8166 C8162 1.368 . S
C8166 C8165 1.523 . S
H8167 C8142 0.950 . S
H8168 C8144 0.950 . S
H8169 C8145 0.949 . S
H8170 C8147 0.950 . S
H8171 C8149 0.950 . S
C8172 C8173 1.349 . S
C8172 C8174 1.327 . S
C8172 H8197 0.950 . S
C8173 C8172 1.349 . S
C8173 C8189 1.349 . S
C8174 C8172 1.327 . S
C8174 C8193 1.429 . S
C8174 H8198 0.950 . S
C8175 C8192 1.574 . S
C8175 C8194 1.368 . S
C8175 H8199 0.949 . S
H8176 C8180 0.949 . S
C8177 C8178 1.349 . S
C8177 C8179 1.327 . S
C8177 H8200 0.950 . S
C8178 C8177 1.349 . S
C8178 C8190 1.349 . S
C8179 C8177 1.327 . S
C8179 C8195 1.429 . S
C8179 H8201 0.950 . S
C8180 H8176 0.949 . S
C8180 C8188 1.574 . S
C8180 C8196 1.368 . S
H8181 C8189 0.950 . S
H8182 C8187 0.950 . S
H8183 C8188 0.949 . S
H8184 C8190 0.950 . S
H8185 C8191 0.950 . S
H8186 C8192 0.949 . S
C8187 H8182 0.950 . S
C8187 C8189 1.327 . S
C8187 C8193 1.429 . S
C8188 C8180 1.574 . S
C8188 H8183 0.949 . S
C8188 C8194 1.368 . S
C8189 C8173 1.349 . S
C8189 H8181 0.950 . S
C8189 C8187 1.327 . S
C8190 C8178 1.349 . S
C8190 H8184 0.950 . S
C8190 C8191 1.327 . S
C8191 H8185 0.950 . S
C8191 C8190 1.327 . S
C8191 C8195 1.429 . S
C8192 C8175 1.574 . S
C8192 H8186 0.949 . S
C8192 C8196 1.368 . S
C8193 C8174 1.429 . S
C8193 C8187 1.429 . S
C8193 C8194 1.523 . S
C8194 C8175 1.368 . S
C8194 C8188 1.368 . S
C8194 C8193 1.523 . S
C8195 C8179 1.429 . S
C8195 C8191 1.429 . S
C8195 C8196 1.523 . S
C8196 C8180 1.368 . S
C8196 C8192 1.368 . S
C8196 C8195 1.523 . S
H8197 C8172 0.950 . S
H8198 C8174 0.950 . S
H8199 C8175 0.949 . S
H8200 C8177 0.950 . S
H8201 C8179 0.950 . S
C8202 C8203 1.349 . S
C8202 C8204 1.327 . S
C8202 H8227 0.950 . S
C8203 C8202 1.349 . S
C8203 C8219 1.349 . S
C8204 C8202 1.327 . S
C8204 C8223 1.429 . S
C8204 H8228 0.950 . S
C8205 C8222 1.574 . S
C8205 C8224 1.368 . S
C8205 H8229 0.949 . S
H8206 C8210 0.949 . S
C8207 C8208 1.349 . S
C8207 C8209 1.327 . S
C8207 H8230 0.950 . S
C8208 C8207 1.349 . S
C8208 C8220 1.349 . S
C8209 C8207 1.327 . S
C8209 C8225 1.429 . S
C8209 H8231 0.950 . S
C8210 H8206 0.949 . S
C8210 C8218 1.574 . S
C8210 C8226 1.368 . S
H8211 C8219 0.950 . S
H8212 C8217 0.950 . S
H8213 C8218 0.949 . S
H8214 C8220 0.950 . S
H8215 C8221 0.950 . S
H8216 C8222 0.949 . S
C8217 H8212 0.950 . S
C8217 C8219 1.327 . S
C8217 C8223 1.429 . S
C8218 C8210 1.574 . S
C8218 H8213 0.949 . S
C8218 C8224 1.368 . S
C8219 C8203 1.349 . S
C8219 H8211 0.950 . S
C8219 C8217 1.327 . S
C8220 C8208 1.349 . S
C8220 H8214 0.950 . S
C8220 C8221 1.327 . S
C8221 H8215 0.950 . S
C8221 C8220 1.327 . S
C8221 C8225 1.429 . S
C8222 C8205 1.574 . S
C8222 H8216 0.949 . S
C8222 C8226 1.368 . S
C8223 C8204 1.429 . S
C8223 C8217 1.429 . S
C8223 C8224 1.523 . S
C8224 C8205 1.368 . S
C8224 C8218 1.368 . S
C8224 C8223 1.523 . S
C8225 C8209 1.429 . S
C8225 C8221 1.429 . S
C8225 C8226 1.523 . S
C8226 C8210 1.368 . S
C8226 C8222 1.368 . S
C8226 C8225 1.523 . S
H8227 C8202 0.950 . S
H8228 C8204 0.950 . S
H8229 C8205 0.949 . S
H8230 C8207 0.950 . S
H8231 C8209 0.950 . S
C8232 C8233 1.349 . S
C8232 C8234 1.327 . S
C8232 H8257 0.950 . S
C8233 C8232 1.349 . S
C8233 C8249 1.349 . S
C8234 C8232 1.327 . S
C8234 C8253 1.429 . S
C8234 H8258 0.950 . S
C8235 C8252 1.574 . S
C8235 C8254 1.368 . S
C8235 H8259 0.949 . S
H8236 C8240 0.949 . S
C8237 C8238 1.349 . S
C8237 C8239 1.327 . S
C8237 H8260 0.950 . S
C8238 C8237 1.349 . S
C8238 C8250 1.349 . S
C8239 C8237 1.327 . S
C8239 C8255 1.429 . S
C8239 H8261 0.950 . S
C8240 H8236 0.949 . S
C8240 C8248 1.574 . S
C8240 C8256 1.368 . S
H8241 C8249 0.950 . S
H8242 C8247 0.950 . S
H8243 C8248 0.949 . S
H8244 C8250 0.950 . S
H8245 C8251 0.950 . S
H8246 C8252 0.949 . S
C8247 H8242 0.950 . S
C8247 C8249 1.327 . S
C8247 C8253 1.429 . S
C8248 C8240 1.574 . S
C8248 H8243 0.949 . S
C8248 C8254 1.368 . S
C8249 C8233 1.349 . S
C8249 H8241 0.950 . S
C8249 C8247 1.327 . S
C8250 C8238 1.349 . S
C8250 H8244 0.950 . S
C8250 C8251 1.327 . S
C8251 H8245 0.950 . S
C8251 C8250 1.327 . S
C8251 C8255 1.429 . S
C8252 C8235 1.574 . S
C8252 H8246 0.949 . S
C8252 C8256 1.368 . S
C8253 C8234 1.429 . S
C8253 C8247 1.429 . S
C8253 C8254 1.523 . S
C8254 C8235 1.368 . S
C8254 C8248 1.368 . S
C8254 C8253 1.523 . S
C8255 C8239 1.429 . S
C8255 C8251 1.429 . S
C8255 C8256 1.523 . S
C8256 C8240 1.368 . S
C8256 C8252 1.368 . S
C8256 C8255 1.523 . S
H8257 C8232 0.950 . S
H8258 C8234 0.950 . S
H8259 C8235 0.949 . S
H8260 C8237 0.950 . S
H8261 C8239 0.950 . S
C8262 C8263 1.349 . S
C8262 C8264 1.327 . S
C8262 H8287 0.950 . S
C8263 C8262 1.349 . S
C8263 C8279 1.349 . S
C8264 C8262 1.327 . S
C8264 C8283 1.429 . S
C8264 H8288 0.950 . S
C8265 C8282 1.574 . S
C8265 C8284 1.368 . S
C8265 H8289 0.949 . S
H8266 C8270 0.949 . S
C8267 C8268 1.349 . S
C8267 C8269 1.327 . S
C8267 H8290 0.950 . S
C8268 C8267 1.349 . S
C8268 C8280 1.349 . S
C8269 C8267 1.327 . S
C8269 C8285 1.429 . S
C8269 H8291 0.950 . S
C8270 H8266 0.949 . S
C8270 C8278 1.574 . S
C8270 C8286 1.368 . S
H8271 C8279 0.950 . S
H8272 C8277 0.950 . S
H8273 C8278 0.949 . S
H8274 C8280 0.950 . S
H8275 C8281 0.950 . S
H8276 C8282 0.949 . S
C8277 H8272 0.950 . S
C8277 C8279 1.327 . S
C8277 C8283 1.429 . S
C8278 C8270 1.574 . S
C8278 H8273 0.949 . S
C8278 C8284 1.368 . S
C8279 C8263 1.349 . S
C8279 H8271 0.950 . S
C8279 C8277 1.327 . S
C8280 C8268 1.349 . S
C8280 H8274 0.950 . S
C8280 C8281 1.327 . S
C8281 H8275 0.950 . S
C8281 C8280 1.327 . S
C8281 C8285 1.429 . S
C8282 C8265 1.574 . S
C8282 H8276 0.949 . S
C8282 C8286 1.368 . S
C8283 C8264 1.429 . S
C8283 C8277 1.429 . S
C8283 C8284 1.523 . S
C8284 C8265 1.368 . S
C8284 C8278 1.368 . S
C8284 C8283 1.523 . S
C8285 C8269 1.429 . S
C8285 C8281 1.429 . S
C8285 C8286 1.523 . S
C8286 C8270 1.368 . S
C8286 C8282 1.368 . S
C8286 C8285 1.523 . S
H8287 C8262 0.950 . S
H8288 C8264 0.950 . S
H8289 C8265 0.949 . S
H8290 C8267 0.950 . S
H8291 C8269 0.950 . S
C8292 C8293 1.349 . S
C8292 C8294 1.327 . S
C8292 H8317 0.950 . S
C8293 C8292 1.349 . S
C8293 C8309 1.349 . S
C8294 C8292 1.327 . S
C8294 C8313 1.429 . S
C8294 H8318 0.950 . S
C8295 C8312 1.574 . S
C8295 C8314 1.368 . S
C8295 H8319 0.949 . S
H8296 C8300 0.949 . S
C8297 C8298 1.349 . S
C8297 C8299 1.327 . S
C8297 H8320 0.950 . S
C8298 C8297 1.349 . S
C8298 C8310 1.349 . S
C8299 C8297 1.327 . S
C8299 C8315 1.429 . S
C8299 H8321 0.950 . S
C8300 H8296 0.949 . S
C8300 C8308 1.574 . S
C8300 C8316 1.368 . S
H8301 C8309 0.950 . S
H8302 C8307 0.950 . S
H8303 C8308 0.949 . S
H8304 C8310 0.950 . S
H8305 C8311 0.950 . S
H8306 C8312 0.949 . S
C8307 H8302 0.950 . S
C8307 C8309 1.327 . S
C8307 C8313 1.429 . S
C8308 C8300 1.574 . S
C8308 H8303 0.949 . S
C8308 C8314 1.368 . S
C8309 C8293 1.349 . S
C8309 H8301 0.950 . S
C8309 C8307 1.327 . S
C8310 C8298 1.349 . S
C8310 H8304 0.950 . S
C8310 C8311 1.327 . S
C8311 H8305 0.950 . S
C8311 C8310 1.327 . S
C8311 C8315 1.429 . S
C8312 C8295 1.574 . S
C8312 H8306 0.949 . S
C8312 C8316 1.368 . S
C8313 C8294 1.429 . S
C8313 C8307 1.429 . S
C8313 C8314 1.523 . S
C8314 C8295 1.368 . S
C8314 C8308 1.368 . S
C8314 C8313 1.523 . S
C8315 C8299 1.429 . S
C8315 C8311 1.429 . S
C8315 C8316 1.523 . S
C8316 C8300 1.368 . S
C8316 C8312 1.368 . S
C8316 C8315 1.523 . S
H8317 C8292 0.950 . S
H8318 C8294 0.950 . S
H8319 C8295 0.949 . S
H8320 C8297 0.950 . S
H8321 C8299 0.950 . S
C8322 C8323 1.349 . S
C8322 C8324 1.327 1_554 S
C8322 H8347 0.950 1_554 S
C8323 C8322 1.349 . S
C8323 C8339 1.349 . S
C8324 C8322 1.327 1_556 S
C8324 C8343 1.429 . S
C8324 H8348 0.950 . S
C8325 C8342 1.574 . S
C8325 C8344 1.368 . S
C8325 H8349 0.973 . S
H8326 C8330 0.949 . S
C8327 C8328 1.349 . S
C8327 C8329 1.327 . S
C8327 H8350 0.950 . S
C8328 C8327 1.349 . S
C8328 C8340 1.349 . S
C8329 C8327 1.327 . S
C8329 C8345 1.429 . S
C8329 H8351 0.950 . S
C8330 H8326 0.949 . S
C8330 C8338 1.574 . S
C8330 C8346 1.368 . S
H8331 C8339 0.950 . S
H8332 C8337 0.950 . S
H8333 C8338 0.949 . S
H8334 C8340 0.950 . S
H8335 C8341 0.950 . S
H8336 C8342 0.949 . S
C8337 H8332 0.950 . S
C8337 C8339 1.327 . S
C8337 C8343 1.429 1_554 S
C8338 C8330 1.574 . S
C8338 H8333 0.949 . S
C8338 C8344 1.368 . S
C8339 C8323 1.349 . S
C8339 H8331 0.950 . S
C8339 C8337 1.327 . S
C8340 C8328 1.349 . S
C8340 H8334 0.950 . S
C8340 C8341 1.327 . S
C8341 H8335 0.950 . S
C8341 C8340 1.327 . S
C8341 C8345 1.429 . S
C8342 C8325 1.574 . S
C8342 H8336 0.949 . S
C8342 C8346 1.368 . S
C8343 C8324 1.429 . S
C8343 C8337 1.429 1_556 S
C8343 C8344 1.523 . S
C8344 C8325 1.368 . S
C8344 C8338 1.368 . S
C8344 C8343 1.523 . S
C8345 C8329 1.429 . S
C8345 C8341 1.429 . S
C8345 C8346 1.523 . S
C8346 C8330 1.368 . S
C8346 C8342 1.368 . S
C8346 C8345 1.523 . S
H8347 C8322 0.950 1_556 S
H8348 C8324 0.950 . S
H8349 C8325 0.973 . S
H8350 C8327 0.950 . S
H8351 C8329 0.950 . S
C4033 C560 4.062 . S
C4038 C56 4.072 . S
C4063 C656 4.141 . S
C4068 C140 4.180 . S
C4093 C404 4.072 . S
C4098 C236 4.062 1_455 S
C4123 C488 4.180 . S
C4128 C308 4.141 . S
C4153 C896 4.181 . S
C4158 C728 4.193 . S
C4183 C992 4.140 . S
C4188 C824 4.125 . S
C4213 C1244 4.193 . S
C4218 C1076 4.180 . S
C4243 C1316 4.125 . S
C4248 C1148 4.140 . S
C4273 C1484 4.223 . S
C4278 C1399 4.189 . S
C4303 C1988 4.207 . S
C4308 C1568 4.182 . S
C4333 C1831 4.188 . S
C4338 C1664 4.222 . S
C4363 C1748 4.182 1_554 S
C4368 C1916 4.206 . S
C4393 C2072 4.072 . S
C4398 C2576 4.062 . S
C4423 C2156 4.180 . S
C4428 C2672 4.141 . S
C4453 C2252 4.062 . S
C4458 C2420 4.072 . S
C4483 C2324 4.141 . S
C4488 C2504 4.180 . S
C4513 C2744 4.193 . S
C4518 C2912 4.180 . S
C4543 C2840 4.125 . S
C4548 C3008 4.140 . S
C4573 C3092 4.180 . S
C4578 C3260 4.193 . S
C4603 C3332 4.125 . S
C4608 C3164 4.140 . S
C4633 C3415 4.188 . S
C4638 C3500 4.222 . S
C4663 C4004 4.207 . S
C4668 C3584 4.182 . S
C4693 C3680 4.222 1_545 S
C4698 C3847 4.188 . S
C4723 C3764 4.182 . S
C4728 C3932 4.207 . S
C4753 C68 3.160 . S
C4758 C812 3.169 . S
C4783 C152 3.324 . S
C4788 C908 3.290 . S
C4813 C224 3.913 . S
C4818 C980 3.918 . S
C4843 C740 3.639 . S
C4848 C320 3.639 . S
C4873 C1328 3.169 . S
C4878 C392 3.161 . S
C4903 C1064 3.290 . S
C4908 C476 3.323 . S
C4933 C1160 3.919 . S
C4938 C572 3.913 . S
C4963 C644 3.640 . S
C4968 C1232 3.639 . S
C4993 C1580 2.274 . S
C4998 C1411 2.343 . S
C5023 C1904 4.751 . S
C5028 C1496 4.799 . S
C5053 C1652 4.799 . S
C5058 C2000 4.751 . S
C5083 C1819 2.343 . S
C5088 C1736 2.272 . S
C5113 C2084 3.160 . S
C5118 C2828 3.169 . S
C5143 C2924 3.290 . S
C5148 C2168 3.323 . S
C5173 C2996 3.919 . S
C5178 C2240 3.913 . S
C5203 C2336 3.639 . S
C5208 C2756 3.639 . S
C5233 C3344 3.169 . S
C5238 C2408 3.160 . S
C5263 C2492 3.324 . S
C5268 C3080 3.290 . S
C5293 C2588 3.913 . S
C5298 C3176 3.918 . S
C5323 C2660 3.640 . S
C5328 C3248 3.639 . S
C5353 C3427 2.342 . S
C5358 C3596 2.274 . S
C5383 C3920 4.751 . S
C5388 C3512 4.799 . S
C5413 C4016 4.751 . S
C5418 C3668 4.799 . S
C5443 C3752 2.274 . S
C5448 C3835 2.343 . S
C5473 C58 1.041 . S
C5478 C307 0.235 . S
C5503 C55 0.635 . S
C5508 C142 0.748 . S
C5533 C235 1.011 . S
C5538 C139 1.030 . S
C5563 C310 0.776 . S
C5568 C238 0.805 . S
C5593 C490 0.748 . S
C5598 C403 0.634 . S
C5623 C559 1.011 . S
C5628 C487 0.999 . S
C5653 C562 0.805 . S
C5658 C658 0.775 . S
C5683 C406 1.041 . S
C5688 C655 0.239 . S
C5713 C730 1.168 . S
C5718 C1567 0.320 . S
C5743 C823 0.774 . S
C5748 C1666 0.756 . S
C5773 C898 1.259 . S
C5778 C1750 1.381 . S
C5803 C991 2.643 . S
C5808 C1483 2.665 . S
C5833 C1075 1.136 . S
C5838 C1918 0.878 . S
C5863 C1400 0.730 . S
C5868 C1150 1.036 . S
C5893 C1987 2.153 1_556 S
C5898 C1243 2.125 . S
C5923 C1318 1.489 1_455 S
C5928 C1822 1.786 1_554 S
C5953 C1414 1.786 . S
C5958 C826 1.488 . S
C5983 C1486 0.756 . S
C5988 C1315 0.774 . S
C6013 C1570 1.376 . S
C6018 C1078 1.259 . S
C6043 C1147 2.643 . S
C6048 C1663 2.665 1_556 S
C6073 C1246 1.168 . S
C6078 C1747 0.317 . S
C6103 C994 1.036 . S
C6108 C1832 0.734 . S
C6133 C727 2.125 . S
C6138 C1915 2.153 . S
C6163 C1990 0.878 . S
C6168 C895 1.136 . S
C6193 C2074 1.041 . S
C6198 C2323 0.236 . S
C6223 C2158 0.748 . S
C6228 C2071 0.634 . S
C6253 C2155 0.999 . S
C6258 C2251 1.011 . S
C6283 C2254 0.805 . S
C6288 C2326 0.776 . S
C6313 C2419 0.635 . S
C6318 C2506 0.748 . S
C6343 C2575 1.011 . S
C6348 C2503 0.999 . S
C6373 C2674 0.776 . S
C6378 C2578 0.805 . S
C6403 C2671 0.235 . S
C6408 C2422 1.041 . S
C6433 C2746 1.168 . S
C6438 C3583 0.320 . S
C6463 C3682 0.756 . S
C6468 C2839 0.774 . S
C6493 C3766 1.376 . S
C6498 C2914 1.259 . S
C6523 C3007 2.643 . S
C6528 C3499 2.665 . S
C6553 C3934 0.878 . S
C6558 C3091 1.136 . S
C6583 C3166 1.036 . S
C6588 C3416 0.734 . S
C6613 C3259 2.124 . S
C6618 C4003 2.153 . S
C6643 C3334 1.489 . S
C6648 C3838 1.786 . S
C6673 C2842 1.489 . S
C6678 C3430 1.786 . S
C6703 C3331 0.775 . S
C6708 C3502 0.757 . S
C6733 C3094 1.259 . S
C6738 C3586 1.376 . S
C6763 C3679 2.665 . S
C6768 C3163 2.643 . S
C6793 C3262 1.168 . S
C6798 C3763 0.320 . S
C6823 C3848 0.734 . S
C6828 C3010 1.036 . S
C6853 C3931 2.153 . S
C6858 C2743 2.125 . S
C6883 C2911 1.136 . S
C6888 C4006 0.878 . S
C6913 C67 0.815 . S
C6918 C3754 0.700 . S
C6943 C3511 2.391 . S
C6948 C151 2.390 . S
C6973 C226 0.433 . S
C6978 C3595 0.483 . S
C7003 C319 0.647 . S
C7008 C3670 0.659 . S
C7033 C394 0.550 . S
C7038 C4015 0.429 . S
C7063 C478 2.203 . S
C7068 C3850 2.408 . S
C7093 C571 0.659 . S
C7098 C3922 0.679 . S
C7123 C646 0.429 . S
C7128 C3428 0.440 . S
C7153 C739 2.140 . S
C7158 C3343 2.113 . S
C7183 C814 2.017 1_455 S
C7188 C3082 1.875 . S
C7213 C907 2.655 . S
C7218 C3175 2.673 . S
C7243 C982 2.146 . S
C7248 C3250 2.156 . S
C7273 C1066 1.875 . S
C7278 C2830 2.017 . S
C7303 C1159 2.673 . S
C7308 C2923 2.655 . S
C7333 C1234 2.156 . S
C7338 C2998 2.146 . S
C7363 C1327 2.113 . S
C7368 C2755 2.140 . S
C7393 C1412 0.441 . S
C7398 C2662 0.429 . S
C7423 C1495 2.391 1_556 S
C7428 C2167 2.390 . S
C7453 C1579 0.483 . S
C7458 C2242 0.433 . S
C7483 C1654 0.659 . S
C7488 C2335 0.647 . S
C7513 C1738 0.700 . S
C7518 C2083 0.809 . S
C7543 C1834 2.408 . S
C7548 C2494 2.203 . S
C7573 C1906 0.679 . S
C7578 C2587 0.659 . S
C7603 C1999 0.429 . S
C7608 C2410 0.550 . S
C7633 C391 0.815 . S
C7638 C3598 0.700 . S
C7663 C475 2.390 . S
C7668 C3667 2.391 . S
C7693 C574 0.433 . S
C7698 C3751 0.483 . S
C7723 C643 0.647 . S
C7728 C3514 0.655 . S
C7753 C70 0.550 . S
C7758 C3919 0.429 . S
C7783 C154 2.203 . S
C7788 C3418 2.408 . S
C7813 C223 0.659 . S
C7818 C4018 0.679 . S
C7843 C3836 0.441 . S
C7848 C322 0.429 . S
C7873 C1231 2.140 1_565 S
C7878 C2827 2.113 . S
C7903 C1330 2.017 . S
C7908 C2926 1.875 . S
C7933 C1063 2.655 . S
C7938 C2995 2.673 . S
C7963 C1162 2.146 . S
C7968 C2758 2.156 . S
C7993 C910 1.874 . S
C7998 C3346 2.017 . S
C8023 C979 2.673 1_655 S
C8028 C3079 2.655 . S
C8053 C742 2.156 . S
C8058 C3178 2.146 . S
C8083 C811 2.113 . S
C8088 C3247 2.140 . S
C8113 C1820 0.441 . S
C8118 C2338 0.429 . S
C8143 C1651 2.391 . S
C8148 C2491 2.390 . S
C8173 C1735 0.483 . S
C8178 C2590 0.426 . S
C8203 C1498 0.660 . S
C8208 C2659 0.647 . S
C8233 C1582 0.700 . S
C8238 C2407 0.815 . S
C8263 C1402 2.408 . S
C8268 C2170 2.203 . S
C8293 C2002 0.679 . S
C8298 C2239 0.659 . S
C8323 C1903 0.429 . S
C8328 C2086 0.550 . S
