# Generated by pormake.
# Topology lcv-a, (4)-cn, num edge types: 1
# Building blocks:
#     Node 0, Type 0, BuildingBlock: KUFVIS_clean_sbu_0, # of connection points: 4
#     Node 1, Type 0, BuildingBlock: KUFVIS_clean_sbu_0, # of connection points: 4
#     Node 2, Type 0, BuildingBlock: KUFVIS_clean_sbu_0, # of connection points: 4
#     Node 3, Type 0, BuildingBlock: KUFVIS_clean_sbu_0, # of connection points: 4
#     Node 4, Type 0, BuildingBlock: KUFVIS_clean_sbu_0, # of connection points: 4
#     Node 5, Type 0, BuildingBlock: KUFVIS_clean_sbu_0, # of connection points: 4
#     Node 6, Type 0, BuildingBlock: KUFVIS_clean_sbu_0, # of connection points: 4
#     Node 7, Type 0, BuildingBlock: KUFVIS_clean_sbu_0, # of connection points: 4
#     Node 8, Type 0, BuildingBlock: KUFVIS_clean_sbu_0, # of connection points: 4
#     Node 9, Type 0, BuildingBlock: KUFVIS_clean_sbu_0, # of connection points: 4
#     Node 10, Type 0, BuildingBlock: KUFVIS_clean_sbu_0, # of connection points: 4
#     Node 11, Type 0, BuildingBlock: KUFVIS_clean_sbu_0, # of connection points: 4
#     Node 12, Type 0, BuildingBlock: KUFVIS_clean_sbu_0, # of connection points: 4
#     Node 13, Type 0, BuildingBlock: KUFVIS_clean_sbu_0, # of connection points: 4
#     Node 14, Type 0, BuildingBlock: KUFVIS_clean_sbu_0, # of connection points: 4
#     Node 15, Type 0, BuildingBlock: KUFVIS_clean_sbu_0, # of connection points: 4
#     Node 16, Type 0, BuildingBlock: KUFVIS_clean_sbu_0, # of connection points: 4
#     Node 17, Type 0, BuildingBlock: KUFVIS_clean_sbu_0, # of connection points: 4
#     Node 18, Type 0, BuildingBlock: KUFVIS_clean_sbu_0, # of connection points: 4
#     Node 19, Type 0, BuildingBlock: KUFVIS_clean_sbu_0, # of connection points: 4
#     Node 20, Type 0, BuildingBlock: KUFVIS_clean_sbu_0, # of connection points: 4
#     Node 21, Type 0, BuildingBlock: KUFVIS_clean_sbu_0, # of connection points: 4
#     Node 22, Type 0, BuildingBlock: KUFVIS_clean_sbu_0, # of connection points: 4
#     Node 23, Type 0, BuildingBlock: KUFVIS_clean_sbu_0, # of connection points: 4
#     Node 24, Type 0, BuildingBlock: KUFVIS_clean_sbu_0, # of connection points: 4
#     Node 25, Type 0, BuildingBlock: KUFVIS_clean_sbu_0, # of connection points: 4
#     Node 26, Type 0, BuildingBlock: KUFVIS_clean_sbu_0, # of connection points: 4
#     Node 27, Type 0, BuildingBlock: KUFVIS_clean_sbu_0, # of connection points: 4
#     Node 28, Type 0, BuildingBlock: KUFVIS_clean_sbu_0, # of connection points: 4
#     Node 29, Type 0, BuildingBlock: KUFVIS_clean_sbu_0, # of connection points: 4
#     Node 30, Type 0, BuildingBlock: KUFVIS_clean_sbu_0, # of connection points: 4
#     Node 31, Type 0, BuildingBlock: KUFVIS_clean_sbu_0, # of connection points: 4
#     Node 32, Type 0, BuildingBlock: KUFVIS_clean_sbu_0, # of connection points: 4
#     Node 33, Type 0, BuildingBlock: KUFVIS_clean_sbu_0, # of connection points: 4
#     Node 34, Type 0, BuildingBlock: KUFVIS_clean_sbu_0, # of connection points: 4
#     Node 35, Type 0, BuildingBlock: KUFVIS_clean_sbu_0, # of connection points: 4
#     Node 36, Type 0, BuildingBlock: KUFVIS_clean_sbu_0, # of connection points: 4
#     Node 37, Type 0, BuildingBlock: KUFVIS_clean_sbu_0, # of connection points: 4
#     Node 38, Type 0, BuildingBlock: KUFVIS_clean_sbu_0, # of connection points: 4
#     Node 39, Type 0, BuildingBlock: KUFVIS_clean_sbu_0, # of connection points: 4
#     Node 40, Type 0, BuildingBlock: KUFVIS_clean_sbu_0, # of connection points: 4
#     Node 41, Type 0, BuildingBlock: KUFVIS_clean_sbu_0, # of connection points: 4
#     Node 42, Type 0, BuildingBlock: KUFVIS_clean_sbu_0, # of connection points: 4
#     Node 43, Type 0, BuildingBlock: KUFVIS_clean_sbu_0, # of connection points: 4
#     Node 44, Type 0, BuildingBlock: KUFVIS_clean_sbu_0, # of connection points: 4
#     Node 45, Type 0, BuildingBlock: KUFVIS_clean_sbu_0, # of connection points: 4
#     Node 46, Type 0, BuildingBlock: KUFVIS_clean_sbu_0, # of connection points: 4
#     Node 47, Type 0, BuildingBlock: KUFVIS_clean_sbu_0, # of connection points: 4
#     Edge 48, Type (0, 0), BuildingBlock: UVAHIK_clean_linker_0, # of connection points: 2
#     Edge 49, Type (0, 0), BuildingBlock: UVAHIK_clean_linker_0, # of connection points: 2
#     Edge 50, Type (0, 0), BuildingBlock: UVAHIK_clean_linker_0, # of connection points: 2
#     Edge 51, Type (0, 0), BuildingBlock: UVAHIK_clean_linker_0, # of connection points: 2
#     Edge 52, Type (0, 0), BuildingBlock: UVAHIK_clean_linker_0, # of connection points: 2
#     Edge 53, Type (0, 0), BuildingBlock: UVAHIK_clean_linker_0, # of connection points: 2
#     Edge 54, Type (0, 0), BuildingBlock: UVAHIK_clean_linker_0, # of connection points: 2
#     Edge 55, Type (0, 0), BuildingBlock: UVAHIK_clean_linker_0, # of connection points: 2
#     Edge 56, Type (0, 0), BuildingBlock: UVAHIK_clean_linker_0, # of connection points: 2
#     Edge 57, Type (0, 0), BuildingBlock: UVAHIK_clean_linker_0, # of connection points: 2
#     Edge 58, Type (0, 0), BuildingBlock: UVAHIK_clean_linker_0, # of connection points: 2
#     Edge 59, Type (0, 0), BuildingBlock: UVAHIK_clean_linker_0, # of connection points: 2
#     Edge 60, Type (0, 0), BuildingBlock: UVAHIK_clean_linker_0, # of connection points: 2
#     Edge 61, Type (0, 0), BuildingBlock: UVAHIK_clean_linker_0, # of connection points: 2
#     Edge 62, Type (0, 0), BuildingBlock: UVAHIK_clean_linker_0, # of connection points: 2
#     Edge 63, Type (0, 0), BuildingBlock: UVAHIK_clean_linker_0, # of connection points: 2
#     Edge 64, Type (0, 0), BuildingBlock: UVAHIK_clean_linker_0, # of connection points: 2
#     Edge 65, Type (0, 0), BuildingBlock: UVAHIK_clean_linker_0, # of connection points: 2
#     Edge 66, Type (0, 0), BuildingBlock: UVAHIK_clean_linker_0, # of connection points: 2
#     Edge 67, Type (0, 0), BuildingBlock: UVAHIK_clean_linker_0, # of connection points: 2
#     Edge 68, Type (0, 0), BuildingBlock: UVAHIK_clean_linker_0, # of connection points: 2
#     Edge 69, Type (0, 0), BuildingBlock: UVAHIK_clean_linker_0, # of connection points: 2
#     Edge 70, Type (0, 0), BuildingBlock: UVAHIK_clean_linker_0, # of connection points: 2
#     Edge 71, Type (0, 0), BuildingBlock: UVAHIK_clean_linker_0, # of connection points: 2
#     Edge 72, Type (0, 0), BuildingBlock: UVAHIK_clean_linker_0, # of connection points: 2
#     Edge 73, Type (0, 0), BuildingBlock: UVAHIK_clean_linker_0, # of connection points: 2
#     Edge 74, Type (0, 0), BuildingBlock: UVAHIK_clean_linker_0, # of connection points: 2
#     Edge 75, Type (0, 0), BuildingBlock: UVAHIK_clean_linker_0, # of connection points: 2
#     Edge 76, Type (0, 0), BuildingBlock: UVAHIK_clean_linker_0, # of connection points: 2
#     Edge 77, Type (0, 0), BuildingBlock: UVAHIK_clean_linker_0, # of connection points: 2
#     Edge 78, Type (0, 0), BuildingBlock: UVAHIK_clean_linker_0, # of connection points: 2
#     Edge 79, Type (0, 0), BuildingBlock: UVAHIK_clean_linker_0, # of connection points: 2
#     Edge 80, Type (0, 0), BuildingBlock: UVAHIK_clean_linker_0, # of connection points: 2
#     Edge 81, Type (0, 0), BuildingBlock: UVAHIK_clean_linker_0, # of connection points: 2
#     Edge 82, Type (0, 0), BuildingBlock: UVAHIK_clean_linker_0, # of connection points: 2
#     Edge 83, Type (0, 0), BuildingBlock: UVAHIK_clean_linker_0, # of connection points: 2
#     Edge 84, Type (0, 0), BuildingBlock: UVAHIK_clean_linker_0, # of connection points: 2
#     Edge 85, Type (0, 0), BuildingBlock: UVAHIK_clean_linker_0, # of connection points: 2
#     Edge 86, Type (0, 0), BuildingBlock: UVAHIK_clean_linker_0, # of connection points: 2
#     Edge 87, Type (0, 0), BuildingBlock: UVAHIK_clean_linker_0, # of connection points: 2
#     Edge 88, Type (0, 0), BuildingBlock: UVAHIK_clean_linker_0, # of connection points: 2
#     Edge 89, Type (0, 0), BuildingBlock: UVAHIK_clean_linker_0, # of connection points: 2
#     Edge 90, Type (0, 0), BuildingBlock: UVAHIK_clean_linker_0, # of connection points: 2
#     Edge 91, Type (0, 0), BuildingBlock: UVAHIK_clean_linker_0, # of connection points: 2
#     Edge 92, Type (0, 0), BuildingBlock: UVAHIK_clean_linker_0, # of connection points: 2
#     Edge 93, Type (0, 0), BuildingBlock: UVAHIK_clean_linker_0, # of connection points: 2
#     Edge 94, Type (0, 0), BuildingBlock: UVAHIK_clean_linker_0, # of connection points: 2
#     Edge 95, Type (0, 0), BuildingBlock: UVAHIK_clean_linker_0, # of connection points: 2
#     Edge 96, Type (0, 0), BuildingBlock: UVAHIK_clean_linker_0, # of connection points: 2
#     Edge 97, Type (0, 0), BuildingBlock: UVAHIK_clean_linker_0, # of connection points: 2
#     Edge 98, Type (0, 0), BuildingBlock: UVAHIK_clean_linker_0, # of connection points: 2
#     Edge 99, Type (0, 0), BuildingBlock: UVAHIK_clean_linker_0, # of connection points: 2
#     Edge 100, Type (0, 0), BuildingBlock: UVAHIK_clean_linker_0, # of connection points: 2
#     Edge 101, Type (0, 0), BuildingBlock: UVAHIK_clean_linker_0, # of connection points: 2
#     Edge 102, Type (0, 0), BuildingBlock: UVAHIK_clean_linker_0, # of connection points: 2
#     Edge 103, Type (0, 0), BuildingBlock: UVAHIK_clean_linker_0, # of connection points: 2
#     Edge 104, Type (0, 0), BuildingBlock: UVAHIK_clean_linker_0, # of connection points: 2
#     Edge 105, Type (0, 0), BuildingBlock: UVAHIK_clean_linker_0, # of connection points: 2
#     Edge 106, Type (0, 0), BuildingBlock: UVAHIK_clean_linker_0, # of connection points: 2
#     Edge 107, Type (0, 0), BuildingBlock: UVAHIK_clean_linker_0, # of connection points: 2
#     Edge 108, Type (0, 0), BuildingBlock: UVAHIK_clean_linker_0, # of connection points: 2
#     Edge 109, Type (0, 0), BuildingBlock: UVAHIK_clean_linker_0, # of connection points: 2
#     Edge 110, Type (0, 0), BuildingBlock: UVAHIK_clean_linker_0, # of connection points: 2
#     Edge 111, Type (0, 0), BuildingBlock: UVAHIK_clean_linker_0, # of connection points: 2
#     Edge 112, Type (0, 0), BuildingBlock: UVAHIK_clean_linker_0, # of connection points: 2
#     Edge 113, Type (0, 0), BuildingBlock: UVAHIK_clean_linker_0, # of connection points: 2
#     Edge 114, Type (0, 0), BuildingBlock: UVAHIK_clean_linker_0, # of connection points: 2
#     Edge 115, Type (0, 0), BuildingBlock: UVAHIK_clean_linker_0, # of connection points: 2
#     Edge 116, Type (0, 0), BuildingBlock: UVAHIK_clean_linker_0, # of connection points: 2
#     Edge 117, Type (0, 0), BuildingBlock: UVAHIK_clean_linker_0, # of connection points: 2
#     Edge 118, Type (0, 0), BuildingBlock: UVAHIK_clean_linker_0, # of connection points: 2
#     Edge 119, Type (0, 0), BuildingBlock: UVAHIK_clean_linker_0, # of connection points: 2
#     Edge 120, Type (0, 0), BuildingBlock: UVAHIK_clean_linker_0, # of connection points: 2
#     Edge 121, Type (0, 0), BuildingBlock: UVAHIK_clean_linker_0, # of connection points: 2
#     Edge 122, Type (0, 0), BuildingBlock: UVAHIK_clean_linker_0, # of connection points: 2
#     Edge 123, Type (0, 0), BuildingBlock: UVAHIK_clean_linker_0, # of connection points: 2
#     Edge 124, Type (0, 0), BuildingBlock: UVAHIK_clean_linker_0, # of connection points: 2
#     Edge 125, Type (0, 0), BuildingBlock: UVAHIK_clean_linker_0, # of connection points: 2
#     Edge 126, Type (0, 0), BuildingBlock: UVAHIK_clean_linker_0, # of connection points: 2
#     Edge 127, Type (0, 0), BuildingBlock: UVAHIK_clean_linker_0, # of connection points: 2
#     Edge 128, Type (0, 0), BuildingBlock: UVAHIK_clean_linker_0, # of connection points: 2
#     Edge 129, Type (0, 0), BuildingBlock: UVAHIK_clean_linker_0, # of connection points: 2
#     Edge 130, Type (0, 0), BuildingBlock: UVAHIK_clean_linker_0, # of connection points: 2
#     Edge 131, Type (0, 0), BuildingBlock: UVAHIK_clean_linker_0, # of connection points: 2
#     Edge 132, Type (0, 0), BuildingBlock: UVAHIK_clean_linker_0, # of connection points: 2
#     Edge 133, Type (0, 0), BuildingBlock: UVAHIK_clean_linker_0, # of connection points: 2
#     Edge 134, Type (0, 0), BuildingBlock: UVAHIK_clean_linker_0, # of connection points: 2
#     Edge 135, Type (0, 0), BuildingBlock: UVAHIK_clean_linker_0, # of connection points: 2
#     Edge 136, Type (0, 0), BuildingBlock: UVAHIK_clean_linker_0, # of connection points: 2
#     Edge 137, Type (0, 0), BuildingBlock: UVAHIK_clean_linker_0, # of connection points: 2
#     Edge 138, Type (0, 0), BuildingBlock: UVAHIK_clean_linker_0, # of connection points: 2
#     Edge 139, Type (0, 0), BuildingBlock: UVAHIK_clean_linker_0, # of connection points: 2
#     Edge 140, Type (0, 0), BuildingBlock: UVAHIK_clean_linker_0, # of connection points: 2
#     Edge 141, Type (0, 0), BuildingBlock: UVAHIK_clean_linker_0, # of connection points: 2
#     Edge 142, Type (0, 0), BuildingBlock: UVAHIK_clean_linker_0, # of connection points: 2
#     Edge 143, Type (0, 0), BuildingBlock: UVAHIK_clean_linker_0, # of connection points: 2
# Relax obj value: 0.867
# Max RMSD: 0.356
# Mean RMSD: 0.303
data_MOF--net-lcv-a--node1-KUFVIS_clean_sbu_0--edge1-UVAHIK_clean_linker_0
_symmetry_space_group_name_H-M    P1
_symmetry_Int_Tables_number       1
_symmetry_cell_setting            triclinic
loop_
_symmetry_equiv_pos_as_xyz
'x, y, z'
_cell_length_a     107.58632
_cell_length_b     107.56535
_cell_length_c     107.58311
_cell_angle_alpha  89.620189
_cell_angle_beta   89.612259
_cell_angle_gamma 89.611349
loop_
_atom_site_label
_atom_site_type_symbol
_atom_site_fract_x
_atom_site_fract_y
_atom_site_fract_z
_atom_type_partial_charge
Mn0 Mn -0.00027 0.24822 0.29495 0.0
Mn1 Mn 0.98025 0.22451 0.28964 0.0
C2 C 0.97881 0.2524 0.29243 0.0
C3 C 0.01047 0.25995 0.30933 0.0
C4 C 0.99765 0.23536 0.27005 0.0
O5 O 0.01002 0.2328 0.29913 0.0
O6 O 0.99507 0.2183 0.29865 0.0
C7 C 0.97285 0.21828 0.31545 0.0
N8 N 0.96968 0.22151 0.30363 0.0
C9 C 0.9479 0.21942 0.30831 0.0
C10 C 0.95092 0.21603 0.32054 0.0
C11 C 0.96344 0.21554 0.32414 0.0
C12 C 0.95766 0.22224 0.30012 0.0
H13 H 0.98248 0.21774 0.31819 0.0
C14 C 0.00613 0.2218 0.30113 0.0
O15 O 0.01423 0.25924 0.29786 0.0
O16 O 0.00066 0.2537 0.31244 0.0
N17 N 0.96537 0.22902 0.281 0.0
C18 C 0.96401 0.2329 0.26899 0.0
C19 C 0.95202 0.23423 0.26403 0.0
C20 C 0.94159 0.23124 0.27135 0.0
C21 C 0.94324 0.22702 0.28359 0.0
C22 C 0.95538 0.22609 0.2881 0.0
H23 H 0.97199 0.23497 0.26323 0.0
O24 O 0.9869 0.26122 0.29142 0.0
O25 O 0.98314 0.24147 0.29539 0.0
O26 O 0.00143 0.24466 0.27626 0.0
O27 O 0.99053 0.22696 0.27453 0.0
C28 C 0.9333 0.22369 0.2915 0.0
C29 C 0.93561 0.22006 0.3039 0.0
H30 H 0.94369 0.21379 0.32723 0.0
H31 H 0.96584 0.21294 0.33357 0.0
H32 H 0.95083 0.23744 0.25456 0.0
H33 H 0.93235 0.23224 0.2675 0.0
H34 H 0.92382 0.22405 0.28819 0.0
H35 H 0.92787 0.21777 0.30996 0.0
Mn36 Mn 0.00699 0.78916 0.41422 0.0
Mn37 Mn 0.03637 0.7866 0.40344 0.0
C38 C 0.01438 0.76986 0.40829 0.0
C39 C 0.99401 0.79044 0.43149 0.0
C40 C 0.01491 0.79688 0.38821 0.0
O41 O 0.01498 0.80553 0.41911 0.0
O42 O 0.03493 0.80117 0.41454 0.0
C43 C 0.04892 0.78075 0.4272 0.0
N44 N 0.04652 0.77786 0.41515 0.0
C45 C 0.05905 0.75929 0.4165 0.0
C46 C 0.06159 0.76204 0.42895 0.0
C47 C 0.05653 0.77283 0.43431 0.0
C48 C 0.05138 0.76752 0.40989 0.0
H49 H 0.04497 0.78899 0.43139 0.0
C50 C 0.02654 0.80797 0.41962 0.0
O51 O 0.99061 0.79503 0.42082 0.0
O52 O 0.00478 0.78502 0.43201 0.0
N53 N 0.03928 0.7727 0.39272 0.0
C54 C 0.03503 0.77076 0.38099 0.0
C55 C 0.03921 0.76034 0.37432 0.0
C56 C 0.04778 0.75206 0.37974 0.0
C57 C 0.05209 0.75428 0.39179 0.0
C58 C 0.04772 0.76491 0.39792 0.0
H59 H 0.02852 0.77711 0.37671 0.0
O60 O 0.00253 0.77181 0.4095 0.0
O61 O 0.02154 0.77913 0.41103 0.0
O62 O 0.00618 0.79447 0.39594 0.0
O63 O 0.02645 0.79536 0.39062 0.0
C64 C 0.06023 0.74614 0.3981 0.0
C65 C 0.06358 0.74856 0.4105 0.0
H66 H 0.06741 0.75592 0.43448 0.0
H67 H 0.0585 0.77504 0.44389 0.0
H68 H 0.03584 0.75869 0.36503 0.0
H69 H 0.05088 0.74396 0.37462 0.0
H70 H 0.06363 0.73778 0.39366 0.0
H71 H 0.06951 0.74201 0.41538 0.0
Mn72 Mn 0.56583 0.76961 0.75643 0.0
Mn73 Mn 0.55615 0.79689 0.74377 0.0
C74 C 0.57888 0.78026 0.7431 0.0
C75 C 0.5744 0.75834 0.7728 0.0
C76 C 0.54836 0.7717 0.73427 0.0
O77 O 0.55085 0.77422 0.76712 0.0
O78 O 0.54647 0.79304 0.75902 0.0
C79 C 0.56386 0.81386 0.76385 0.0
N80 N 0.56431 0.81043 0.75169 0.0
C81 C 0.57722 0.8279 0.7464 0.0
C82 C 0.57688 0.83162 0.75887 0.0
C83 C 0.57018 0.82456 0.76763 0.0
C84 C 0.57075 0.81715 0.74319 0.0
H85 H 0.55868 0.8085 0.77062 0.0
C86 C 0.54477 0.78443 0.7671 0.0
O87 O 0.56705 0.75323 0.76483 0.0
O88 O 0.57669 0.7701 0.77134 0.0
N89 N 0.56473 0.80214 0.72899 0.0
C90 C 0.56395 0.79745 0.71728 0.0
C91 C 0.5699 0.80362 0.70737 0.0
C92 C 0.57645 0.81463 0.70956 0.0
C93 C 0.57701 0.81936 0.72165 0.0
C94 C 0.57079 0.81288 0.73114 0.0
H95 H 0.5588 0.78909 0.71547 0.0
O96 O 0.58072 0.76855 0.74544 0.0
O97 O 0.56972 0.78564 0.74903 0.0
O98 O 0.55491 0.76514 0.74167 0.0
O99 O 0.54757 0.78354 0.73476 0.0
C100 C 0.58353 0.83023 0.72466 0.0
C101 C 0.5837 0.83446 0.73704 0.0
H102 H 0.58168 0.83991 0.76181 0.0
H103 H 0.56984 0.8274 0.77726 0.0
H104 H 0.5694 0.79992 0.69806 0.0
H105 H 0.58101 0.81938 0.7019 0.0
H106 H 0.58846 0.83541 0.71752 0.0
H107 H 0.58873 0.84284 0.73923 0.0
Mn108 Mn 0.53511 0.33696 0.01988 0.0
Mn109 Mn 0.52054 0.36084 0.00579 0.0
C110 C 0.54652 0.34973 0.00689 0.0
C111 C 0.54431 0.32944 0.03784 0.0
C112 C 0.51813 0.33388 0.99789 0.0
O113 O 0.51843 0.33829 0.02878 0.0
O114 O 0.51164 0.35672 0.02148 0.0
C115 C 0.52498 0.38092 0.02385 0.0
N116 N 0.52583 0.37647 0.01206 0.0
C117 C 0.53352 0.39601 0.00434 0.0
C118 C 0.5327 0.40084 0.0164 0.0
C119 C 0.5285 0.39323 0.02621 0.0
C120 C 0.5301 0.38362 0.00261 0.0
H121 H 0.52156 0.37514 0.03136 0.0
C122 C 0.51083 0.34743 0.02894 0.0
O123 O 0.53955 0.32188 0.02982 0.0
O124 O 0.54372 0.34124 0.03539 0.0
N125 N 0.52799 0.36598 0.99044 0.0
C126 C 0.52882 0.35969 0.97951 0.0
C127 C 0.53329 0.36582 0.96885 0.0
C128 C 0.53644 0.37846 0.96941 0.0
C129 C 0.5353 0.38479 0.98072 0.0
C130 C 0.53111 0.3781 0.99112 0.0
H131 H 0.52616 0.35007 0.97893 0.0
O132 O 0.55085 0.33894 0.01022 0.0
O133 O 0.53588 0.35298 0.01178 0.0
O134 O 0.5267 0.3293 0.00471 0.0
O135 O 0.51453 0.34521 0.99841 0.0
C136 C 0.5382 0.39745 0.98212 0.0
C137 C 0.5375 0.40301 0.99396 0.0
H138 H 0.53528 0.41037 0.01823 0.0
H139 H 0.52785 0.39689 0.03554 0.0
H140 H 0.53422 0.36077 0.96024 0.0
H141 H 0.53981 0.38317 0.96113 0.0
H142 H 0.54117 0.40296 0.97419 0.0
H143 H 0.54002 0.41268 0.99496 0.0
Mn144 Mn 0.11064 0.66007 0.36638 0.0
Mn145 Mn 0.11284 0.69138 0.36652 0.0
C146 C 0.09399 0.67167 0.37345 0.0
C147 C 0.10696 0.64194 0.35544 0.0
C148 C 0.1247 0.67456 0.3859 0.0
O149 O 0.12563 0.66351 0.35536 0.0
O150 O 0.12467 0.68438 0.35412 0.0
C151 C 0.10334 0.69656 0.34122 0.0
N152 N 0.10269 0.69842 0.35372 0.0
C153 C 0.08532 0.71244 0.3514 0.0
C154 C 0.08582 0.71069 0.33851 0.0
C155 C 0.09488 0.70273 0.3334 0.0
C156 C 0.09405 0.7061 0.35873 0.0
H157 H 0.11024 0.6904 0.33725 0.0
C158 C 0.12917 0.67386 0.35081 0.0
O159 O 0.11394 0.64193 0.36524 0.0
O160 O 0.10206 0.65248 0.35206 0.0
N161 N 0.1018 0.69964 0.37788 0.0
C162 C 0.1021 0.6998 0.39055 0.0
C163 C 0.09367 0.70737 0.3971 0.0
C164 C 0.08508 0.71478 0.39058 0.0
C165 C 0.08501 0.71456 0.37755 0.0
C166 C 0.09374 0.70695 0.37152 0.0
H167 H 0.10872 0.6942 0.39563 0.0
O168 O 0.09488 0.65993 0.37619 0.0
O169 O 0.10266 0.6762 0.36625 0.0
O170 O 0.12019 0.66436 0.3821 0.0
O171 O 0.12327 0.68498 0.38027 0.0
C172 C 0.07636 0.72128 0.37033 0.0
C173 C 0.07641 0.72009 0.35728 0.0
H174 H 0.0793 0.71542 0.33244 0.0
H175 H 0.09535 0.70137 0.32345 0.0
H176 H 0.09377 0.70748 0.40715 0.0
H177 H 0.07849 0.72046 0.39569 0.0
H178 H 0.06942 0.72715 0.37471 0.0
H179 H 0.06955 0.7251 0.35185 0.0
Mn180 Mn 0.65217 0.87227 0.64371 0.0
Mn181 Mn 0.62137 0.87345 0.64909 0.0
C182 C 0.64372 0.8598 0.65909 0.0
C183 C 0.66788 0.86402 0.63135 0.0
C184 C 0.63947 0.89291 0.65817 0.0
O185 O 0.64541 0.8816 0.62866 0.0
O186 O 0.62497 0.87876 0.63178 0.0
C187 C 0.61411 0.85338 0.63194 0.0
N188 N 0.61411 0.85829 0.64359 0.0
C189 C 0.60319 0.84061 0.65189 0.0
C190 C 0.60304 0.83539 0.63999 0.0
C191 C 0.60852 0.8418 0.62997 0.0
C192 C 0.60894 0.85215 0.6533 0.0
H193 H 0.61837 0.85823 0.62422 0.0
C194 C 0.63419 0.88206 0.62497 0.0
O195 O 0.66957 0.87433 0.63735 0.0
O196 O 0.65727 0.85858 0.63271 0.0
N197 N 0.61637 0.86828 0.66545 0.0
C198 C 0.61736 0.87454 0.67638 0.0
C199 C 0.61196 0.86956 0.68723 0.0
C200 C 0.6055 0.85828 0.68674 0.0
C201 C 0.60444 0.85211 0.67536 0.0
C202 C 0.60987 0.85758 0.66482 0.0
H203 H 0.62215 0.88329 0.67683 0.0
O204 O 0.6556 0.86172 0.65872 0.0
O205 O 0.63731 0.8648 0.65017 0.0
O206 O 0.64952 0.88739 0.65487 0.0
O207 O 0.62857 0.88909 0.65544 0.0
C208 C 0.59826 0.84069 0.67409 0.0
C209 C 0.59785 0.83483 0.66241 0.0
H210 H 0.59867 0.8265 0.63842 0.0
H211 H 0.6084 0.83786 0.62074 0.0
H212 H 0.61276 0.87443 0.69596 0.0
H213 H 0.60141 0.85443 0.69514 0.0
H214 H 0.59393 0.83626 0.68207 0.0
H215 H 0.59326 0.82594 0.66159 0.0
Mn216 Mn 0.53214 0.39988 0.88298 0.0
Mn217 Mn 0.54002 0.37136 0.89375 0.0
C218 C 0.54359 0.39815 0.901 0.0
C219 C 0.53592 0.41706 0.87034 0.0
C220 C 0.51426 0.38269 0.89683 0.0
O221 O 0.5287 0.38861 0.86821 0.0
O222 O 0.53629 0.37058 0.87578 0.0
C223 C 0.56366 0.36779 0.87996 0.0
N224 N 0.55726 0.3681 0.89091 0.0
C225 C 0.57517 0.36106 0.90228 0.0
C226 C 0.58197 0.36064 0.89112 0.0
C227 C 0.57621 0.3641 0.87992 0.0
C228 C 0.56277 0.36502 0.90176 0.0
H229 H 0.55919 0.37027 0.87132 0.0
C230 C 0.53162 0.37716 0.86701 0.0
O231 O 0.5248 0.41447 0.87426 0.0
O232 O 0.54476 0.40934 0.87331 0.0
N233 N 0.54391 0.3704 0.91101 0.0
C234 C 0.53617 0.37179 0.92098 0.0
C235 C 0.54056 0.36902 0.93293 0.0
C236 C 0.55272 0.36445 0.93449 0.0
C237 C 0.56046 0.36291 0.92406 0.0
C238 C 0.55565 0.36607 0.9124 0.0
H239 H 0.52673 0.37502 0.91983 0.0
O240 O 0.53756 0.4083 0.89841 0.0
O241 O 0.54313 0.38934 0.89275 0.0
O242 O 0.51673 0.39328 0.89207 0.0
O243 O 0.52212 0.37375 0.89739 0.0
C244 C 0.57277 0.3584 0.92475 0.0
C245 C 0.58018 0.35764 0.9139 0.0
H246 H 0.59162 0.35767 0.89104 0.0
H247 H 0.5814 0.36381 0.87127 0.0
H248 H 0.53452 0.37034 0.94087 0.0
H249 H 0.55602 0.36222 0.94374 0.0
H250 H 0.57669 0.35563 0.9336 0.0
H251 H 0.58969 0.35437 0.91458 0.0
Mn252 Mn 0.87111 0.23256 0.21025 0.0
Mn253 Mn 0.8986 0.24709 0.20913 0.0
C254 C 0.8787 0.24098 0.22835 0.0
C255 C 0.85009 0.2342 0.20553 0.0
C256 C 0.89566 0.21896 0.20883 0.0
O257 O 0.87511 0.23448 0.1918 0.0
O258 O 0.89056 0.24837 0.19264 0.0
C259 C 0.89021 0.27304 0.2051 0.0
N260 N 0.89682 0.26453 0.2118 0.0
C261 C 0.90569 0.2805 0.22442 0.0
C262 C 0.89902 0.28947 0.21764 0.0
C263 C 0.89116 0.28571 0.208 0.0
C264 C 0.90413 0.268 0.22131 0.0
H265 H 0.88434 0.27018 0.19754 0.0
C266 C 0.88242 0.24226 0.18667 0.0
O267 O 0.85564 0.22343 0.20586 0.0
O268 O 0.85664 0.24381 0.20844 0.0
N269 N 0.90771 0.24684 0.22436 0.0
C270 C 0.91339 0.23702 0.23012 0.0
C271 C 0.92145 0.23918 0.24008 0.0
C272 C 0.92391 0.25141 0.24377 0.0
C273 C 0.91819 0.26138 0.23753 0.0
C274 C 0.91004 0.25865 0.22785 0.0
H275 H 0.91186 0.22762 0.22711 0.0
O276 O 0.86956 0.23316 0.22878 0.0
O277 O 0.88258 0.24416 0.21732 0.0
O278 O 0.88409 0.21854 0.21158 0.0
O279 O 0.90148 0.22907 0.20655 0.0
C280 C 0.92037 0.27392 0.24043 0.0
C281 C 0.91396 0.28347 0.23404 0.0
H282 H 0.89987 0.29926 0.21973 0.0
H283 H 0.88597 0.29257 0.20273 0.0
H284 H 0.92591 0.23143 0.24476 0.0
H285 H 0.93023 0.25305 0.25138 0.0
H286 H 0.92685 0.27633 0.24767 0.0
H287 H 0.91553 0.29307 0.23654 0.0
Mn288 Mn 0.28513 0.99854 0.25264 0.0
Mn289 Mn 0.27793 0.9823 0.22749 0.0
C290 C 0.28033 0.97762 0.25495 0.0
C291 C 0.30077 0.00675 0.26476 0.0
C292 C 0.26102 0.00164 0.23931 0.0
O293 O 0.29024 0.00951 0.23782 0.0
O294 O 0.29019 0.9951 0.22274 0.0
C295 C 0.30174 0.96973 0.22145 0.0
N296 N 0.28939 0.96911 0.22424 0.0
C297 C 0.28917 0.94705 0.22081 0.0
C298 C 0.30189 0.94742 0.21789 0.0
C299 C 0.30822 0.9588 0.21832 0.0
C300 C 0.28329 0.95818 0.22418 0.0
H301 H 0.30655 0.9785 0.22155 0.0
C302 C 0.29296 0.00588 0.22683 0.0
O303 O 0.28973 0.01172 0.26466 0.0
O304 O 0.3027 0.99713 0.25779 0.0
N305 N 0.26609 0.96954 0.23096 0.0
C306 C 0.25393 0.97065 0.23448 0.0
C307 C 0.24634 0.96009 0.23476 0.0
C308 C 0.25124 0.94856 0.23109 0.0
C309 C 0.26374 0.94768 0.22744 0.0
C310 C 0.27093 0.95844 0.22763 0.0
H311 H 0.24995 0.97951 0.23694 0.0
O312 O 0.28033 0.98484 0.26457 0.0
O313 O 0.28364 0.98281 0.24456 0.0
O314 O 0.2668 0.00257 0.24955 0.0
O315 O 0.26526 0.99553 0.23003 0.0
C316 C 0.26926 0.93658 0.22334 0.0
C317 C 0.28203 0.93615 0.22028 0.0
H318 H 0.30687 0.93904 0.21528 0.0
H319 H 0.31803 0.95916 0.21608 0.0
H320 H 0.2367 0.96089 0.23757 0.0
H321 H 0.24531 0.94046 0.2311 0.0
H322 H 0.26359 0.92846 0.2223 0.0
H323 H 0.2862 0.92745 0.21734 0.0
Mn324 Mn 0.32853 0.025 0.53369 0.0
Mn325 Mn 0.34322 0.00138 0.51973 0.0
C326 C 0.33871 0.01032 0.54585 0.0
C327 C 0.3293 0.04559 0.53994 0.0
C328 C 0.31515 0.0038 0.52208 0.0
O329 O 0.32928 0.02987 0.51524 0.0
O330 O 0.34371 0.0161 0.50863 0.0
C331 C 0.36912 0.01044 0.51851 0.0
N332 N 0.36078 0.00167 0.52218 0.0
C333 C 0.37706 0.98827 0.52979 0.0
C334 C 0.38585 0.99714 0.52606 0.0
C335 C 0.38186 0.00831 0.52048 0.0
C336 C 0.3645 0.99102 0.52779 0.0
H337 H 0.36607 0.01895 0.51406 0.0
C338 C 0.33689 0.02577 0.50703 0.0
O339 O 0.31873 0.04024 0.53783 0.0
O340 O 0.3393 0.03907 0.53807 0.0
N341 N 0.34344 0.98651 0.52957 0.0
C342 C 0.33376 0.9791 0.53301 0.0
C343 C 0.33614 0.9678 0.53916 0.0
C344 C 0.34844 0.96408 0.5414 0.0
C345 C 0.35827 0.97166 0.53745 0.0
C346 C 0.35532 0.98295 0.53162 0.0
H347 H 0.32428 0.98175 0.53112 0.0
O348 O 0.33062 0.01779 0.55086 0.0
O349 O 0.34087 0.01207 0.5341 0.0
O350 O 0.31485 0.01251 0.53005 0.0
O351 O 0.32512 -3e-05 0.51678 0.0
C352 C 0.37086 0.96846 0.5391 0.0
C353 C 0.38026 0.9768 0.53536 0.0
H354 H 0.39569 0.99548 0.52746 0.0
H355 H 0.38858 0.0152 0.5176 0.0
H356 H 0.32851 0.96195 0.54212 0.0
H357 H 0.35022 0.95547 0.54629 0.0
H358 H 0.3734 0.95967 0.54338 0.0
H359 H 0.38991 0.97434 0.53689 0.0
Mn360 Mn 0.2943 0.1017 0.75717 0.0
Mn361 Mn 0.31681 0.0909 0.73784 0.0
C362 C 0.31492 0.10356 0.76259 0.0
C363 C 0.28064 0.11727 0.76364 0.0
C364 C 0.30176 0.0743 0.75503 0.0
O365 O 0.28512 0.09976 0.74084 0.0
O366 O 0.30114 0.09382 0.72865 0.0
C367 C 0.31968 0.11313 0.72169 0.0
N368 N 0.32474 0.1045 0.72952 0.0
C369 C 0.34515 0.11318 0.72677 0.0
C370 C 0.34015 0.12214 0.71867 0.0
C371 C 0.32736 0.12212 0.71614 0.0
C372 C 0.33704 0.10445 0.73204 0.0
H373 H 0.30986 0.11316 0.71968 0.0
C374 C 0.28976 0.09705 0.73026 0.0
O375 O 0.27857 0.10563 0.76608 0.0
O376 O 0.2905 0.11984 0.75711 0.0
N377 N 0.33268 0.08786 0.74533 0.0
C378 C 0.33605 0.07864 0.75342 0.0
C379 C 0.34858 0.07732 0.75681 0.0
C380 C 0.35753 0.08538 0.75178 0.0
C381 C 0.35387 0.09471 0.74339 0.0
C382 C 0.34127 0.09552 0.74026 0.0
H383 H 0.32926 0.07233 0.75725 0.0
O384 O 0.30625 0.10411 0.771 0.0
O385 O 0.31133 0.1022 0.75116 0.0
O386 O 0.29522 0.08289 0.75998 0.0
O387 O 0.30957 0.07625 0.74625 0.0
C388 C 0.36223 0.10331 0.73809 0.0
C389 C 0.35786 0.11257 0.72982 0.0
H390 H 0.34605 0.12906 0.71432 0.0
H391 H 0.32343 0.12898 0.70989 0.0
H392 H 0.35133 0.07008 0.76329 0.0
H393 H 0.36718 0.08434 0.75443 0.0
H394 H 0.37202 0.10291 0.74034 0.0
H395 H 0.36437 0.11914 0.72583 0.0
Mn396 Mn 0.21786 0.11434 0.99106 0.0
Mn397 Mn 0.19581 0.13041 0.97551 0.0
C398 C 0.20051 0.12147 0.00179 0.0
C399 C 0.2266 0.09535 0.99678 0.0
C400 C 0.22023 0.14162 0.9838 0.0
O401 O 0.22224 0.11131 0.97283 0.0
O402 O 0.20538 0.11982 0.96392 0.0
C403 C 0.18005 0.10935 0.96793 0.0
N404 N 0.18125 0.12058 0.97354 0.0
C405 C 0.15915 0.1224 0.97655 0.0
C406 C 0.15764 0.11087 0.97077 0.0
C407 C 0.16815 0.10426 0.96654 0.0
C408 C 0.17126 0.12683 0.97796 0.0
H409 H 0.1881 0.10436 0.96448 0.0
C410 C 0.21545 0.11347 0.9634 0.0
O411 O 0.2332 0.10541 0.99627 0.0
O412 O 0.21497 0.09631 0.99378 0.0
N413 N 0.1855 0.14122 0.98518 0.0
C414 C 0.18859 0.15218 0.99059 0.0
C415 C 0.17918 0.15993 0.99532 0.0
C416 C 0.16666 0.15657 0.99405 0.0
C417 C 0.16369 0.14535 0.98824 0.0
C418 C 0.17349 0.13789 0.98392 0.0
H419 H 0.19815 0.15503 0.99128 0.0
O420 O 0.21043 0.11803 0.00771 0.0
O421 O 0.20077 0.12006 0.98978 0.0
O422 O 0.22422 0.13221 0.98988 0.0
O423 O 0.21028 0.14151 0.97736 0.0
C424 C 0.1514 0.14133 0.98644 0.0
C425 C 0.14913 0.12976 0.9808 0.0
H426 H 0.14847 0.107 0.96951 0.0
H427 H 0.16707 0.09535 0.96207 0.0
H428 H 0.18164 0.16851 -0.00018 0.0
H429 H 0.1594 0.16264 0.99759 0.0
H430 H 0.14361 0.147 0.98948 0.0
H431 H 0.13965 0.12667 0.97968 0.0
Mn432 Mn 0.22446 0.01518 0.11397 0.0
Mn433 Mn 0.2135 0.02335 0.14217 0.0
C434 C 0.20323 0.0178 0.11678 0.0
C435 C 0.23322 0.02157 0.09524 0.0
C436 C 0.22211 0.99709 0.13564 0.0
O437 O 0.23998 0.02056 0.12324 0.0
O438 O 0.23099 0.02876 0.14028 0.0
C439 C 0.21397 0.0507 0.13897 0.0
N440 N 0.20767 0.04015 0.14197 0.0
C441 C 0.1895 0.0519 0.14786 0.0
C442 C 0.19583 0.06292 0.14498 0.0
C443 C 0.20808 0.06231 0.1404 0.0
C444 C 0.19577 0.04061 0.14601 0.0
H445 H 0.2234 0.05025 0.13551 0.0
C446 C 0.24041 0.02681 0.13325 0.0
O447 O 0.23478 0.01026 0.09928 0.0
O448 O 0.2266 0.02903 0.10205 0.0
N449 N 0.19661 0.01899 0.14559 0.0
C450 C 0.19164 0.0075 0.14747 0.0
C451 C 0.17929 0.00647 0.15164 0.0
C452 C 0.17231 0.01725 0.15422 0.0
C453 C 0.17771 0.02895 0.15251 0.0
C454 C 0.18996 0.02941 0.14808 0.0
H455 H 0.19705 0.99919 0.1458 0.0
O456 O 0.20753 0.01182 0.10723 0.0
O457 O 0.21148 0.0225 0.12414 0.0
O458 O 0.22396 0.99897 0.12404 0.0
O459 O 0.219 0.00573 0.14321 0.0
C460 C 0.17143 0.0402 0.15503 0.0
C461 C 0.17724 0.05167 0.15252 0.0
H462 H 0.19136 0.07189 0.1462 0.0
H463 H 0.21301 0.07076 0.13808 0.0
H464 H 0.17522 0.99739 0.15294 0.0
H465 H 0.16279 0.01647 0.15745 0.0
H466 H 0.16204 0.04014 0.15874 0.0
H467 H 0.1722 0.06025 0.15423 0.0
Mn468 Mn 0.35364 0.95625 0.38242 0.0
Mn469 Mn 0.33289 0.9464 0.40653 0.0
C470 C 0.3406 0.93872 0.37889 0.0
C471 C 0.35348 0.97124 0.36679 0.0
C472 C 0.36005 0.94435 0.40186 0.0
O473 O 0.3514 0.97007 0.39572 0.0
O474 O 0.33246 0.9648 0.40392 0.0
C475 C 0.31597 0.95722 0.42534 0.0
N476 N 0.32219 0.94719 0.42071 0.0
C477 C 0.31605 0.93453 0.43816 0.0
C478 C 0.30954 0.94472 0.44312 0.0
C479 C 0.30942 0.95609 0.43662 0.0
C480 C 0.32211 0.93613 0.42671 0.0
H481 H 0.31609 0.96604 0.42048 0.0
C482 C 0.34133 0.97262 0.40184 0.0
O483 O 0.36387 0.9671 0.37133 0.0
O484 O 0.34329 0.9665 0.37114 0.0
N485 N 0.33418 0.92888 0.41014 0.0
C486 C 0.34111 0.91993 0.40436 0.0
C487 C 0.3421 0.90802 0.40968 0.0
C488 C 0.33629 0.90547 0.42111 0.0
C489 C 0.32943 0.91483 0.42706 0.0
C490 C 0.32851 0.92647 0.42117 0.0
H491 H 0.34628 0.9219 0.39599 0.0
O492 O 0.34975 0.94128 0.37132 0.0
O493 O 0.34068 0.94517 0.38918 0.0
O494 O 0.3674 0.94718 0.39319 0.0
O495 O 0.34884 0.94627 0.3988 0.0
C496 C 0.32356 0.91307 0.43868 0.0
C497 C 0.31683 0.9229 0.4442 0.0
H498 H 0.30461 0.94391 0.4519 0.0
H499 H 0.30444 0.964 0.44038 0.0
H500 H 0.34758 0.9009 0.40511 0.0
H501 H 0.33722 0.89632 0.42527 0.0
H502 H 0.3241 0.90417 0.44341 0.0
H503 H 0.31226 0.9214 0.45308 0.0
Mn504 Mn 0.37348 0.11414 0.65928 0.0
Mn505 Mn 0.37237 0.11491 0.69062 0.0
C506 C 0.38142 0.09754 0.6705 0.0
C507 C 0.36341 0.11056 0.64067 0.0
C508 C 0.39131 0.129 0.67505 0.0
O509 O 0.36127 0.12816 0.66297 0.0
O510 O 0.35916 0.12579 0.68364 0.0
C511 C 0.34795 0.10289 0.69463 0.0
N512 N 0.36039 0.10334 0.69685 0.0
C513 C 0.3592 0.08577 0.71077 0.0
C514 C 0.34637 0.08518 0.7087 0.0
C515 C 0.34073 0.09375 0.70056 0.0
C516 C 0.36593 0.09506 0.70456 0.0
H517 H 0.34357 0.1095 0.68843 0.0
C518 C 0.35587 0.13062 0.67324 0.0
O519 O 0.37265 0.11824 0.64127 0.0
O520 O 0.36015 0.10486 0.65084 0.0
N521 N 0.38446 0.10464 0.69884 0.0
C522 C 0.39701 0.10617 0.69952 0.0
C523 C 0.40404 0.09835 0.7073 0.0
C524 C 0.3981 0.08913 0.71442 0.0
C525 C 0.38518 0.08775 0.71362 0.0
C526 C 0.37865 0.09588 0.70578 0.0
H527 H 0.40164 0.11334 0.69422 0.0
O528 O 0.38448 0.0991 0.65891 0.0
O529 O 0.37344 0.10546 0.67506 0.0
O530 O 0.38822 0.12466 0.66453 0.0
O531 O 0.38531 0.1268 0.68512 0.0
C532 C 0.37857 0.07852 0.7202 0.0
C533 C 0.3656 0.07748 0.71871 0.0
H534 H 0.34075 0.07821 0.71333 0.0
H535 H 0.33082 0.09338 0.69894 0.0
H536 H 0.41401 0.09947 0.70786 0.0
H537 H 0.40355 0.08313 0.72043 0.0
H538 H 0.38339 0.07208 0.72627 0.0
H539 H 0.36063 0.07027 0.72371 0.0
Mn540 Mn 0.22501 0.20602 0.87016 0.0
Mn541 Mn 0.2297 0.20042 0.90044 0.0
C542 C 0.23396 0.22134 0.88217 0.0
C543 C 0.23216 0.20249 0.85003 0.0
C544 C 0.20435 0.20557 0.88911 0.0
O545 O 0.22284 0.18721 0.87223 0.0
O546 O 0.23112 0.1846 0.89127 0.0
C547 C 0.25595 0.19202 0.90079 0.0
N548 N 0.24687 0.19997 0.90475 0.0
C549 C 0.26059 0.20924 0.91956 0.0
C550 C 0.2701 0.20115 0.91566 0.0
C551 C 0.26779 0.19257 0.90617 0.0
C552 C 0.24906 0.20843 0.91369 0.0
H553 H 0.25412 0.18526 0.89366 0.0
C554 C 0.2273 0.18041 0.88089 0.0
O555 O 0.22045 0.20465 0.85226 0.0
O556 O 0.23967 0.20301 0.85938 0.0
N557 N 0.22872 0.21508 0.91037 0.0
C558 C 0.21872 0.22259 0.91268 0.0
C559 C 0.21954 0.2318 0.92179 0.0
C560 C 0.23053 0.23308 0.92858 0.0
C561 C 0.24075 0.22535 0.92597 0.0
C562 C 0.23943 0.21639 0.91671 0.0
H563 H 0.21012 0.22146 0.90777 0.0
O564 O 0.22931 0.22414 0.87139 0.0
O565 O 0.2336 0.20969 0.88527 0.0
O566 O 0.20811 0.20928 0.87845 0.0
O567 O 0.21159 0.20086 0.89728 0.0
C568 C 0.25213 0.22604 0.93232 0.0
C569 C 0.26207 0.21804 0.92906 0.0
H570 H 0.27921 0.20145 0.91988 0.0
H571 H 0.27508 0.18629 0.90311 0.0
H572 H 0.21161 0.23774 0.92376 0.0
H573 H 0.23093 0.23992 0.93587 0.0
H574 H 0.25341 0.2328 0.9396 0.0
H575 H 0.27084 0.2188 0.93388 0.0
Mn576 Mn 0.2514 0.29553 -0.00019 0.0
Mn577 Mn 0.23046 0.28521 0.97924 0.0
C578 C 0.25817 0.29042 0.98002 0.0
C579 C 0.26064 0.31241 0.00936 0.0
C580 C 0.24086 0.26952 0.00041 0.0
O581 O 0.23463 0.29965 0.0078 0.0
O582 O 0.22209 0.29596 0.99163 0.0
C583 C 0.22315 0.30881 0.96694 0.0
N584 N 0.22742 0.2969 0.96618 0.0
C585 C 0.22675 0.29748 0.94384 0.0
C586 C 0.22228 0.30974 0.94437 0.0
C587 C 0.22055 0.31546 0.95597 0.0
C588 C 0.22924 0.29136 0.95508 0.0
H589 H 0.22171 0.31317 0.97586 0.0
C590 C 0.2241 0.30028 0.00248 0.0
O591 O 0.26036 0.30155 0.01473 0.0
O592 O 0.25535 0.31346 0.99861 0.0
N593 N 0.2371 0.27468 0.96653 0.0
C594 C 0.2425 0.26323 0.96761 0.0
C595 C 0.2454 0.25647 0.95684 0.0
C596 C 0.24249 0.26144 0.94511 0.0
C597 C 0.23679 0.27316 0.94422 0.0
C598 C 0.23424 0.27952 0.95527 0.0
H599 H 0.24459 0.25928 0.9766 0.0
O600 O 0.26602 0.29147 0.98903 0.0
O601 O 0.24659 0.2929 0.98271 0.0
O602 O 0.24928 0.27698 0.00394 0.0
O603 O 0.23288 0.27221 0.99206 0.0
C604 C 0.2339 0.27895 0.93281 0.0
C605 C 0.22896 0.29113 0.93261 0.0
H606 H 0.22024 0.31489 0.93593 0.0
H607 H 0.21714 0.32493 0.95646 0.0
H608 H 0.24984 0.24745 0.95759 0.0
H609 H 0.2449 0.25632 0.93681 0.0
H610 H 0.23567 0.2742 0.92412 0.0
H611 H 0.22703 0.29558 0.92377 0.0
Mn612 Mn 0.76486 0.29293 0.0998 0.0
Mn613 Mn 0.74432 0.3133 0.08733 0.0
C614 C 0.76793 0.31407 0.10195 0.0
C615 C 0.77087 0.27975 0.11594 0.0
C616 C 0.76409 0.29986 0.07223 0.0
O617 O 0.7498 0.28212 0.09643 0.0
O618 O 0.73641 0.29691 0.08999 0.0
C619 C 0.72669 0.315 0.10853 0.0
N620 N 0.73449 0.32063 0.10025 0.0
C621 C 0.72947 0.34083 0.10843 0.0
C622 C 0.72139 0.33524 0.11705 0.0
C623 C 0.72001 0.32227 0.1171 0.0
C624 C 0.73595 0.3331 0.10017 0.0
H625 H 0.72556 0.30503 0.10861 0.0
C626 C 0.73896 0.28572 0.09325 0.0
O627 O 0.77484 0.2781 0.10465 0.0
O628 O 0.76334 0.28904 0.11785 0.0
N629 N 0.75055 0.32972 0.08446 0.0
C630 C 0.75878 0.3337 0.07562 0.0
C631 C 0.76106 0.34648 0.07422 0.0
C632 C 0.75474 0.35506 0.08179 0.0
C633 C 0.7462 0.35077 0.09071 0.0
C634 C 0.74429 0.33793 0.09167 0.0
H635 H 0.76356 0.32719 0.06965 0.0
O636 O 0.7771 0.30631 0.10342 0.0
O637 O 0.75717 0.30923 0.0996 0.0
O638 O 0.76921 0.29417 0.08131 0.0
O639 O 0.75431 0.30657 0.0734 0.0
C640 C 0.73946 0.35874 0.09864 0.0
C641 C 0.73126 0.35378 0.10763 0.0
H642 H 0.71615 0.34083 0.12362 0.0
H643 H 0.71378 0.31787 0.12369 0.0
H644 H 0.76763 0.34971 0.06727 0.0
H645 H 0.7565 0.36491 0.08067 0.0
H646 H 0.74057 0.36873 0.09794 0.0
H647 H 0.72624 0.36001 0.11377 0.0
Mn648 Mn 0.01827 0.53426 0.33423 0.0
Mn649 Mn 0.00307 0.5199 0.35746 0.0
C650 C 0.00495 0.54588 0.34651 0.0
C651 C 0.03685 0.54301 0.32782 0.0
C652 C 0.99647 0.51747 0.33011 0.0
O653 O 0.02664 0.51727 0.33578 0.0
O654 O 0.01905 0.51112 0.35434 0.0
C655 C 0.0199 0.52462 0.37851 0.0
N656 N 0.00838 0.52536 0.37339 0.0
C657 C 0.99951 0.53315 0.39239 0.0
C658 C 0.01127 0.53245 0.39792 0.0
C659 C 0.02153 0.52826 0.39091 0.0
C660 C 0.99852 0.52964 0.37994 0.0
H661 H 0.02775 0.52122 0.37319 0.0
C662 C 0.02662 0.51 0.34518 0.0
O663 O 0.02913 0.53866 0.31972 0.0
O664 O 0.03375 0.54234 0.33945 0.0
N665 N 0.98739 0.52733 0.36164 0.0
C666 C 0.97682 0.52801 0.35476 0.0
C667 C 0.96579 0.53243 0.36026 0.0
C668 C 0.96563 0.53572 0.37288 0.0
C669 C 0.97658 0.53473 0.37982 0.0
C670 C 0.98736 0.53056 0.37376 0.0
H671 H 0.97677 0.52522 0.34516 0.0
O672 O 0.0089 0.55025 0.33594 0.0
O673 O 0.00946 0.53512 0.34983 0.0
O674 O 0.00328 0.52623 0.32588 0.0
O675 O 0.99666 0.51374 0.34143 0.0
C676 C 0.97723 0.53769 0.39253 0.0
C677 C 0.98872 0.53711 0.39877 0.0
H678 H 0.01253 0.53511 0.40752 0.0
H679 H 0.03063 0.5277 0.3951 0.0
H680 H 0.95742 0.53316 0.3548 0.0
H681 H 0.95708 0.53905 0.37712 0.0
H682 H 0.96898 0.54063 0.39756 0.0
H683 H 0.98915 0.5397 0.40847 0.0
Mn684 Mn 0.76751 0.75834 0.58304 0.0
Mn685 Mn 0.79723 0.74882 0.58435 0.0
C686 C 0.77367 0.74559 0.5993 0.0
C687 C 0.75353 0.77442 0.58682 0.0
C688 C 0.77817 0.73845 0.56654 0.0
O689 O 0.7766 0.76935 0.5704 0.0
O690 O 0.79632 0.76537 0.5762 0.0
C691 C 0.80772 0.76752 0.60134 0.0
N692 N 0.80559 0.75542 0.59844 0.0
C693 C 0.81736 0.74827 0.61607 0.0
C694 C 0.81974 0.76065 0.6192 0.0
C695 C 0.81482 0.77032 0.61185 0.0
C696 C 0.81004 0.74605 0.60561 0.0
H697 H 0.80404 0.77495 0.59567 0.0
C698 C 0.78816 0.77181 0.57037 0.0
O699 O 0.75137 0.76617 0.57833 0.0
O700 O 0.76365 0.77314 0.59318 0.0
N701 N 0.79953 0.73291 0.59224 0.0
C702 C 0.79629 0.72143 0.58809 0.0
C703 C 0.80033 0.71077 0.59453 0.0
C704 C 0.80789 0.71196 0.60503 0.0
C705 C 0.81133 0.72383 0.60899 0.0
C706 C 0.80693 0.73413 0.60226 0.0
H707 H 0.79075 0.72035 0.57989 0.0
O708 O 0.76194 0.74711 0.59696 0.0
O709 O 0.78127 0.75199 0.59247 0.0
O710 O 0.76853 0.74348 0.57137 0.0
O711 O 0.78928 0.74117 0.5697 0.0
C712 C 0.81902 0.72582 0.61932 0.0
C713 C 0.82197 0.73803 0.6229 0.0
H714 H 0.8253 0.76285 0.62724 0.0
H715 H 0.81658 0.77991 0.61423 0.0
H716 H 0.79771 0.70164 0.59133 0.0
H717 H 0.81104 0.70371 0.60994 0.0
H718 H 0.8226 0.71803 0.62466 0.0
H719 H 0.82775 0.73945 0.63097 0.0
Mn720 Mn 0.21978 0.86985 0.22606 0.0
Mn721 Mn 0.22583 0.89982 0.23173 0.0
C722 C 0.23971 0.87416 0.23315 0.0
C723 C 0.21047 0.8515 0.23267 0.0
C724 C 0.2213 0.88904 0.20607 0.0
O725 O 0.20293 0.87859 0.2273 0.0
O726 O 0.20809 0.89682 0.23595 0.0
C727 C 0.22153 0.90186 0.25892 0.0
N728 N 0.22925 0.90388 0.24896 0.0
C729 C 0.24618 0.90891 0.266 0.0
C730 C 0.23718 0.90702 0.27497 0.0
C731 C 0.22511 0.90383 0.27138 0.0
C732 C 0.24062 0.90856 0.25048 0.0
H733 H 0.21228 0.89838 0.25748 0.0
C734 C 0.20004 0.88877 0.23266 0.0
O735 O 0.21148 0.85428 0.22095 0.0
O736 O 0.21525 0.8592 0.24053 0.0
N737 N 0.24289 0.90358 0.22709 0.0
C738 C 0.24852 0.90099 0.21595 0.0
C739 C 0.26144 0.90183 0.21381 0.0
C740 C 0.27001 0.90462 0.22305 0.0
C741 C 0.26579 0.9075 0.2348 0.0
C742 C 0.24941 0.90802 0.23656 0.0
H743 H 0.24316 0.89777 0.20833 0.0
O744 O 0.23733 0.86411 0.22701 0.0
O745 O 0.23014 0.88175 0.2348 0.0
O746 O 0.22273 0.87763 0.20883 0.0
O747 O 0.22154 0.89764 0.2141 0.0
C748 C 0.27607 0.90726 0.24781 0.0
C749 C 0.2626 0.9082 0.26955 0.0
H750 H 0.23961 0.90713 0.28471 0.0
H751 H 0.21833 0.90204 0.27865 0.0
H752 H 0.26499 0.89949 0.20468 0.0
H753 H 0.27988 0.904 0.22114 0.0
H754 H 0.28605 0.90633 0.24602 0.0
H755 H 0.26544 0.90774 0.27927 0.0
Mn756 Mn 0.26562 0.87715 0.46047 0.0
Mn757 Mn 0.29245 0.89128 0.45087 0.0
C758 C 0.27269 0.87641 0.4392 0.0
C759 C 0.25157 0.85984 0.46165 0.0
C760 C 0.2781 0.89735 0.47491 0.0
O761 O 0.28009 0.86602 0.46628 0.0
O762 O 0.29738 0.87572 0.45945 0.0
C763 C 0.30554 0.87497 0.43298 0.0
N764 N 0.29946 0.88583 0.43545 0.0
C765 C 0.30656 0.89487 0.41619 0.0
C766 C 0.31308 0.88387 0.41358 0.0
C767 C 0.3124 0.8738 0.42191 0.0
C768 C 0.29991 0.8955 0.42738 0.0
H769 H 0.30526 0.86732 0.43948 0.0
C770 C 0.29187 0.86677 0.46502 0.0
O771 O 0.25394 0.86683 0.4709 0.0
O772 O 0.25754 0.86248 0.45145 0.0
N773 N 0.28847 0.90634 0.44222 0.0
C774 C 0.28206 0.91647 0.44638 0.0
C775 C 0.28114 0.92708 0.43876 0.0
C776 C 0.28697 0.92722 0.42703 0.0
C777 C 0.29352 0.91668 0.42298 0.0
C778 C 0.29385 0.90627 0.43085 0.0
H779 H 0.27775 0.91649 0.45547 0.0
O780 O 0.26517 0.86808 0.44361 0.0
O781 O 0.27586 0.88471 0.4471 0.0
O782 O 0.26927 0.88964 0.47399 0.0
O783 O 0.28683 0.89838 0.46689 0.0
C784 C 0.30004 0.91621 0.41161 0.0
C785 C 0.30671 0.90538 0.40832 0.0
H786 H 0.31871 0.88306 0.40523 0.0
H787 H 0.31735 0.86524 0.41991 0.0
H788 H 0.27612 0.93521 0.44199 0.0
H789 H 0.28647 0.93552 0.42129 0.0
H790 H 0.30027 0.92426 0.40554 0.0
H791 H 0.31216 0.90531 0.39985 0.0
Mn792 Mn 0.97776 0.38641 0.33844 0.0
Mn793 Mn 0.97549 0.40637 0.31434 0.0
C794 C 0.96237 0.38337 0.32394 0.0
C795 C 0.98759 0.36918 0.34691 0.0
C796 C 0.96673 0.41232 0.34056 0.0
O797 O 0.9939 0.39611 0.33882 0.0
O798 O 0.99281 0.40631 0.32056 0.0
C799 C 0.99153 0.39352 0.29596 0.0
N800 N 0.98036 0.39866 0.29913 0.0
C801 C 0.97247 0.39578 0.2785 0.0
C802 C 0.98389 0.39047 0.27498 0.0
C803 C 0.99343 0.38926 0.28377 0.0
C804 C 0.97104 0.39963 0.29082 0.0
H805 H 0.99893 0.39276 0.30266 0.0
C806 C 0.99867 0.40294 0.33034 0.0
O807 O 0.98245 0.37746 0.35405 0.0
O808 O 0.98702 0.37089 0.335 0.0
N809 N 0.9593 0.40757 0.30721 0.0
C810 C 0.9487 0.41246 0.31224 0.0
C811 C 0.93816 0.41401 0.30477 0.0
C812 C 0.9387 0.41087 0.29213 0.0
C813 C 0.94979 0.40607 0.2871 0.0
C814 C 0.95992 0.40449 0.29507 0.0
H815 H 0.94828 0.41517 0.32188 0.0
O816 O 0.96178 0.37794 0.33473 0.0
O817 O 0.97224 0.39 0.32176 0.0
O818 O 0.9682 0.40148 0.34526 0.0
O819 O 0.97 0.41522 0.32948 0.0
C820 C 0.95121 0.40281 0.27451 0.0
C821 C 0.96247 0.39749 0.27025 0.0
H822 H 0.98545 0.3873 0.26555 0.0
H823 H 0.00227 0.38517 0.28113 0.0
H824 H 0.9297 0.41775 0.30877 0.0
H825 H 0.93056 0.41215 0.28637 0.0
H826 H 0.94364 0.4042 0.26805 0.0
H827 H 0.96335 0.39477 0.2606 0.0
Mn828 Mn 0.64615 0.65881 0.86722 0.0
Mn829 Mn 0.64895 0.62798 0.87232 0.0
C830 C 0.6606 0.64751 0.85599 0.0
C831 C 0.63553 0.67468 0.85694 0.0
C832 C 0.6597 0.6476 0.88934 0.0
O833 O 0.63051 0.65453 0.877 0.0
O834 O 0.63201 0.63368 0.87717 0.0
C835 C 0.63078 0.61894 0.85393 0.0
N836 N 0.64259 0.61907 0.85842 0.0
C837 C 0.64967 0.6051 0.84245 0.0
C838 C 0.63759 0.60484 0.83765 0.0
C839 C 0.6281 0.61175 0.84345 0.0
C840 C 0.65178 0.61238 0.85296 0.0
H841 H 0.62345 0.62431 0.85827 0.0
C842 C 0.62592 0.6438 0.87894 0.0
O843 O 0.64149 0.67687 0.86717 0.0
O844 O 0.63583 0.66341 0.85281 0.0
N845 N 0.66482 0.62117 0.86764 0.0
C846 C 0.67603 0.62253 0.87328 0.0
C847 C 0.68645 0.61602 0.86874 0.0
C848 C 0.68524 0.60811 0.85849 0.0
C849 C 0.67359 0.60674 0.85292 0.0
C850 C 0.6635 0.61334 0.85795 0.0
H851 H 0.67706 0.62854 0.88119 0.0
O852 O 0.66145 0.65951 0.85659 0.0
O853 O 0.65112 0.64257 0.86163 0.0
O854 O 0.65694 0.65711 0.88272 0.0
O855 O 0.65617 0.63656 0.88681 0.0
C856 C 0.67164 0.59919 0.84247 0.0
C857 C 0.65972 0.59851 0.83714 0.0
H858 H 0.6355 0.59932 0.82955 0.0
H859 H 0.61874 0.61154 0.83983 0.0
H860 H 0.69541 0.61711 0.87311 0.0
H861 H 0.69332 0.6032 0.85493 0.0
H862 H 0.67927 0.594 0.83836 0.0
H863 H 0.65838 0.59283 0.82898 0.0
Mn864 Mn 0.55203 0.89379 0.76187 0.0
Mn865 Mn 0.56809 0.86913 0.75059 0.0
C866 C 0.55067 0.88886 0.7411 0.0
C867 C 0.53435 0.90229 0.77115 0.0
C868 C 0.57984 0.89408 0.75586 0.0
O869 O 0.55647 0.88409 0.77753 0.0
O870 O 0.56588 0.86748 0.76887 0.0
C871 C 0.55001 0.84908 0.75588 0.0
N872 N 0.55712 0.85556 0.74759 0.0
C873 C 0.55103 0.84223 0.73085 0.0
C874 C 0.5437 0.83537 0.73922 0.0
C875 C 0.54318 0.83883 0.75178 0.0
C876 C 0.55767 0.85232 0.73548 0.0
H877 H 0.54965 0.85162 0.76557 0.0
C878 C 0.56159 0.87339 0.7783 0.0
O879 O 0.54506 0.90774 0.77183 0.0
O880 O 0.53403 0.89169 0.76547 0.0
N881 N 0.57073 0.86933 0.73295 0.0
C882 C 0.57816 0.87695 0.72602 0.0
C883 C 0.5796 0.8748 0.71323 0.0
C884 C 0.57351 0.86476 0.7077 0.0
C885 C 0.56602 0.85696 0.71503 0.0
C886 C 0.56496 0.85955 0.72774 0.0
H887 H 0.58296 0.88463 0.73021 0.0
O888 O 0.54789 0.89996 0.74489 0.0
O889 O 0.55401 0.88085 0.74958 0.0
O890 O 0.56996 0.89964 0.75945 0.0
O891 O 0.58018 0.88259 0.75295 0.0
C892 C 0.55949 0.84679 0.71019 0.0
C893 C 0.55199 0.83943 0.71809 0.0
H894 H 0.53846 0.82742 0.73611 0.0
H895 H 0.53758 0.83355 0.75831 0.0
H896 H 0.58542 0.88084 0.70764 0.0
H897 H 0.57462 0.86315 0.69782 0.0
H898 H 0.56014 0.84457 0.7004 0.0
H899 H 0.54701 0.83164 0.71427 0.0
Mn900 Mn 0.38668 0.33988 0.98214 0.0
Mn901 Mn 0.40771 0.31701 0.97849 0.0
C902 C 0.3835 0.32538 0.96674 0.0
C903 C 0.36976 0.34706 0.99356 0.0
C904 C 0.41175 0.3438 0.97018 0.0
O905 O 0.39753 0.34072 0.99755 0.0
O906 O 0.40756 0.32237 0.99609 0.0
C907 C 0.39643 0.29714 0.99391 0.0
N908 N 0.40111 0.30112 0.9828 0.0
C909 C 0.39954 0.28068 0.97408 0.0
C910 C 0.39474 0.27631 0.98544 0.0
C911 C 0.39309 0.28461 0.99537 0.0
C912 C 0.40246 0.2933 0.97311 0.0
H913 H 0.39533 0.30346 0.0016 0.0
C914 C 0.40432 0.3321 0.0021 0.0
O915 O 0.37702 0.35479 0.98774 0.0
O916 O 0.37226 0.3353 0.99259 0.0
N917 N 0.40892 0.31071 0.96192 0.0
C918 C 0.4131 0.31652 0.95141 0.0
C919 C 0.41484 0.30962 0.9405 0.0
C920 C 0.41266 0.29676 0.94059 0.0
C921 C 0.4086 0.29095 0.95158 0.0
C922 C 0.40673 0.29835 0.96208 0.0
H923 H 0.41509 0.32633 0.95133 0.0
O924 O 0.37731 0.33576 0.96674 0.0
O925 O 0.3909 0.32356 0.9761 0.0
O926 O 0.4006 0.34768 0.97168 0.0
O927 O 0.41548 0.33297 0.97351 0.0
C928 C 0.40635 0.27809 0.95254 0.0
C929 C 0.40163 0.27299 0.96371 0.0
H930 H 0.39229 0.26663 0.98664 0.0
H931 H 0.38937 0.28132 0.00415 0.0
H932 H 0.41799 0.31421 0.93209 0.0
H933 H 0.4141 0.29144 0.93218 0.0
H934 H 0.40803 0.27207 0.94467 0.0
H935 H 0.39965 0.26314 0.96423 0.0
Mn936 Mn 0.01489 0.1155 0.23057 0.0
Mn937 Mn 0.02525 0.14352 0.22139 0.0
C938 C 0.01776 0.11933 0.20958 0.0
C939 C 0.02006 0.09591 0.23819 0.0
C940 C 0.9987 0.13858 0.23006 0.0
O941 O 0.02096 0.12349 0.24655 0.0
O942 O 0.03115 0.1399 0.23846 0.0
C943 C 0.05234 0.13858 0.22049 0.0
N944 N 0.04175 0.14257 0.21481 0.0
C945 C 0.05314 0.14894 0.19658 0.0
C946 C 0.06419 0.14499 0.20225 0.0
C947 C 0.06377 0.13969 0.21422 0.0
C948 C 0.04201 0.1474 0.2032 0.0
H949 H 0.05205 0.13463 0.22974 0.0
C950 C 0.0284 0.13261 0.24749 0.0
O951 O 0.00902 0.10056 0.24004 0.0
O952 O 0.02792 0.10262 0.23197 0.0
N953 N 0.02044 0.14834 0.20494 0.0
C954 C 0.0089 0.15111 0.20052 0.0
C955 C 0.00765 0.15604 0.18847 0.0
C956 C 0.01829 0.15841 0.18121 0.0
C957 C 0.03007 0.15571 0.18604 0.0
C958 C 0.03073 0.15056 0.198 0.0
H959 H 0.0007 0.14958 0.20614 0.0
O960 O 0.0111 0.11 0.2133 0.0
O961 O 0.02294 0.12582 0.21825 0.0
O962 O 0.99942 0.12674 0.23062 0.0
O963 O 0.00803 0.14556 0.22774 0.0
C964 C 0.04121 0.15794 0.17946 0.0
C965 C 0.05272 0.15439 0.18464 0.0
H966 H 0.07304 0.14595 0.19749 0.0
H967 H 0.07226 0.13658 0.21865 0.0
H968 H 0.99851 0.15812 0.18483 0.0
H969 H 0.01732 0.16226 0.17194 0.0
H970 H 0.04101 0.16218 0.17031 0.0
H971 H 0.06119 0.15588 0.17936 0.0
Mn972 Mn 0.12251 0.77911 0.46585 0.0
Mn973 Mn 0.09522 0.77028 0.45352 0.0
C974 C 0.12134 0.77367 0.44519 0.0
C975 C 0.13735 0.79387 0.47048 0.0
C976 C 0.11152 0.75302 0.46868 0.0
O977 O 0.11007 0.78586 0.47845 0.0
O978 O 0.09257 0.7788 0.46964 0.0
C979 C 0.08447 0.79532 0.44887 0.0
N980 N 0.08842 0.7841 0.44449 0.0
C981 C 0.08238 0.78963 0.42365 0.0
C982 C 0.07824 0.80122 0.42797 0.0
C983 C 0.07932 0.80408 0.44063 0.0
C984 C 0.08749 0.78129 0.4323 0.0
H985 H 0.08517 0.79759 0.45859 0.0
C986 C 0.09829 0.78468 0.47818 0.0
O987 O 0.13683 0.78339 0.47651 0.0
O988 O 0.12877 0.79607 0.46232 0.0
N989 N 0.0963 0.76219 0.43772 0.0
C990 C 0.0997 0.75023 0.43521 0.0
C991 C 0.09885 0.74578 0.423 0.0
C992 C 0.09436 0.75361 0.41352 0.0
C993 C 0.09055 0.76575 0.41639 0.0
C994 C 0.09158 0.76966 0.42873 0.0
H995 H 0.10309 0.74412 0.44245 0.0
O996 O 0.13186 0.77299 0.45098 0.0
O997 O 0.11181 0.77749 0.45162 0.0
O998 O 0.11957 0.76116 0.47147 0.0
O999 O 0.10191 0.75546 0.46217 0.0
C1000 C 0.08552 0.77402 0.40752 0.0
C1001 C 0.08145 0.78596 0.41114 0.0
H1002 H 0.07417 0.80797 0.42165 0.0
H1003 H 0.07616 0.813 0.44405 0.0
H1004 H 0.10165 0.73634 0.4209 0.0
H1005 H 0.09372 0.75014 0.40412 0.0
H1006 H 0.08459 0.77124 0.39791 0.0
H1007 H 0.0775 0.79219 0.40426 0.0
Mn1008 Mn 0.45592 0.26758 0.8682 0.0
Mn1009 Mn 0.44172 0.29564 0.87006 0.0
C1010 C 0.43719 0.26924 0.87873 0.0
C1011 C 0.46008 0.2493 0.85753 0.0
C1012 C 0.46363 0.28797 0.8861 0.0
O1013 O 0.46521 0.27806 0.85532 0.0
O1014 O 0.45349 0.29544 0.85583 0.0
C1015 C 0.42731 0.29463 0.84676 0.0
N1016 N 0.42771 0.29629 0.85928 0.0
C1017 C 0.40606 0.30193 0.86004 0.0
C1018 C 0.4054 0.30033 0.84714 0.0
C1019 C 0.41605 0.29658 0.84048 0.0
C1020 C 0.41747 0.29961 0.86581 0.0
H1021 H 0.43553 0.29192 0.84161 0.0
C1022 C 0.46232 0.28885 0.85127 0.0
O1023 O 0.46777 0.25358 0.86567 0.0
O1024 O 0.45015 0.25585 0.85529 0.0
N1025 N 0.42997 0.29767 0.88329 0.0
C1026 C 0.43214 0.29856 0.89572 0.0
C1027 C 0.42244 0.30218 0.90373 0.0
C1028 C 0.41071 0.30519 0.89886 0.0
C1029 C 0.40874 0.30436 0.88602 0.0
C1030 C 0.41872 0.30056 0.87851 0.0
H1031 H 0.44122 0.29659 0.89949 0.0
O1032 O 0.44444 0.25972 0.88045 0.0
O1033 O 0.44083 0.27736 0.87045 0.0
O1034 O 0.46455 0.27681 0.88225 0.0
O1035 O 0.45587 0.29588 0.88173 0.0
C1036 C 0.39728 0.30721 0.88035 0.0
C1037 C 0.39589 0.30582 0.8674 0.0
H1038 H 0.39676 0.30197 0.84224 0.0
H1039 H 0.41561 0.29531 0.83052 0.0
H1040 H 0.42408 0.30279 0.9136 0.0
H1041 H 0.40331 0.30813 0.90508 0.0
H1042 H 0.38944 0.31036 0.88588 0.0
H1043 H 0.38698 0.30783 0.86319 0.0
Mn1044 Mn 0.98893 0.21112 0.11339 0.0
Mn1045 Mn 0.97228 0.18889 0.1281 0.0
C1046 C 0.99865 0.19274 0.11895 0.0
C1047 C 0.99505 0.22086 0.09503 0.0
C1048 C 0.98227 0.21175 0.14102 0.0
O1049 O 0.97104 0.21679 0.11101 0.0
O1050 O 0.96098 0.20034 0.11902 0.0
C1051 C 0.9628 0.17591 0.10597 0.0
N1052 N 0.96893 0.17558 0.117 0.0
C1053 C 0.97075 0.15331 0.11631 0.0
C1054 C 0.96443 0.15338 0.10495 0.0
C1055 C 0.96052 0.16474 0.09971 0.0
C1056 C 0.97299 0.16474 0.12197 0.0
H1057 H 0.95963 0.18463 0.10202 0.0
C1058 C 0.96111 0.21083 0.11336 0.0
O1059 O 0.99499 0.22672 0.10555 0.0
O1060 O 0.9913 0.20942 0.09516 0.0
N1061 N 0.98158 0.17691 0.13747 0.0
C1062 C 0.98759 0.17847 0.14846 0.0
C1063 C 0.99204 0.16802 0.15496 0.0
C1064 C 0.98999 0.15605 0.15029 0.0
C1065 C 0.98361 0.15466 0.13907 0.0
C1066 C 0.9795 0.16543 0.13293 0.0
H1067 H 0.98891 0.18761 0.15229 0.0
O1068 O 0.0051 0.20254 0.11625 0.0
O1069 O 0.98663 0.19377 0.11778 0.0
O1070 O 0.98825 0.21622 0.13175 0.0
O1071 O 0.97554 0.20203 0.1404 0.0
C1072 C 0.98105 0.14301 0.13377 0.0
C1073 C 0.9748 0.14234 0.12231 0.0
H1074 H 0.96251 0.14477 0.10018 0.0
H1075 H 0.95564 0.16488 0.09095 0.0
H1076 H 0.99687 0.16919 0.16365 0.0
H1077 H 0.99332 0.14801 0.15543 0.0
H1078 H 0.98394 0.1345 0.13839 0.0
H1079 H 0.97306 0.13334 0.11825 0.0
Mn1080 Mn 0.10066 0.76302 0.29256 0.0
Mn1081 Mn 0.09049 0.74073 0.31234 0.0
C1082 C 0.10125 0.7663 0.3137 0.0
C1083 C 0.11665 0.77132 0.28053 0.0
C1084 C 0.07328 0.75804 0.29804 0.0
O1085 O 0.1001 0.74765 0.28166 0.0
O1086 O 0.09524 0.73328 0.29617 0.0
C1087 C 0.1138 0.72621 0.31539 0.0
N1088 N 0.10443 0.73315 0.32044 0.0
C1089 C 0.11277 0.73044 0.341 0.0
C1090 C 0.12249 0.72327 0.33601 0.0
C1091 C 0.12301 0.72114 0.32315 0.0
C1092 C 0.10386 0.73526 0.33281 0.0
H1093 H 0.11425 0.7245 0.30552 0.0
C1094 C 0.09859 0.7364 0.28514 0.0
O1095 O 0.10507 0.77371 0.27802 0.0
O1096 O 0.11887 0.764 0.28988 0.0
N1097 N 0.0859 0.74666 0.32852 0.0
C1098 C 0.07547 0.75305 0.33201 0.0
C1099 C 0.07336 0.7556 0.34464 0.0
C1100 C 0.08192 0.75145 0.35358 0.0
C1101 C 0.09244 0.74467 0.34982 0.0
C1102 C 0.09399 0.7423 0.3371 0.0
H1103 H 0.06878 0.75618 0.32522 0.0
O1104 O 0.10175 0.77564 0.30605 0.0
O1105 O 0.10073 0.75534 0.30876 0.0
O1106 O 0.08172 0.7646 0.29287 0.0
O1107 O 0.07556 0.74844 0.30476 0.0
C1108 C 0.10134 0.73997 0.35821 0.0
C1109 C 0.11151 0.73289 0.3538 0.0
H1110 H 0.12957 0.71928 0.34197 0.0
H1111 H 0.13045 0.71557 0.31924 0.0
H1112 H 0.06515 0.76073 0.34749 0.0
H1113 H 0.08027 0.75344 0.36332 0.0
H1114 H 0.10038 0.74166 0.36809 0.0
H1115 H 0.11823 0.72926 0.36036 0.0
Mn1116 Mn 0.54669 0.82414 0.60365 0.0
Mn1117 Mn 0.57182 0.82873 0.62169 0.0
C1118 C 0.54453 0.83411 0.62246 0.0
C1119 C 0.53284 0.82973 0.58813 0.0
C1120 C 0.55816 0.80435 0.62082 0.0
O1121 O 0.56088 0.82178 0.59133 0.0
O1122 O 0.57681 0.82428 0.60447 0.0
C1123 C 0.58183 0.85101 0.60884 0.0
N1124 N 0.57745 0.84543 0.61939 0.0
C1125 C 0.58237 0.86337 0.6316 0.0
C1126 C 0.58692 0.8693 0.62087 0.0
C1127 C 0.58659 0.86311 0.60943 0.0
C1128 C 0.57757 0.85137 0.63041 0.0
H1129 H 0.5818 0.84626 0.60004 0.0
C1130 C 0.57246 0.82222 0.59363 0.0
O1131 O 0.53445 0.81822 0.59144 0.0
O1132 O 0.53973 0.83799 0.59346 0.0
N1133 N 0.56867 0.83338 0.63858 0.0
C1134 C 0.56444 0.8262 0.64818 0.0
C1135 C 0.56408 0.83109 0.66025 0.0
C1136 C 0.56841 0.84316 0.6624 0.0
C1137 C 0.57311 0.85023 0.65246 0.0
C1138 C 0.573 0.84497 0.64059 0.0
H1139 H 0.56132 0.81682 0.64664 0.0
O1140 O 0.53512 0.82866 0.61741 0.0
O1141 O 0.55502 0.83374 0.61633 0.0
O1142 O 0.55054 0.80763 0.61239 0.0
O1143 O 0.56656 0.81149 0.62498 0.0
C1144 C 0.57819 0.86217 0.65391 0.0
C1145 C 0.5827 0.86878 0.64348 0.0
H1146 H 0.59077 0.87856 0.62133 0.0
H1147 H 0.59012 0.86759 0.60111 0.0
H1148 H 0.5606 0.82551 0.66791 0.0
H1149 H 0.56826 0.84684 0.67175 0.0
H1150 H 0.57876 0.86632 0.66303 0.0
H1151 H 0.58657 0.87795 0.64473 0.0
Mn1152 Mn 0.75643 0.55346 0.89699 0.0
Mn1153 Mn 0.74895 0.56854 0.87048 0.0
C1154 C 0.73619 0.55313 0.89002 0.0
C1155 C 0.76404 0.53564 0.90672 0.0
C1156 C 0.75305 0.58152 0.89506 0.0
O1157 O 0.77321 0.55645 0.88872 0.0
O1158 O 0.76695 0.56438 0.87036 0.0
C1159 C 0.75367 0.54848 0.85227 0.0
N1160 N 0.74572 0.55682 0.85762 0.0
C1161 C 0.72905 0.55057 0.84429 0.0
C1162 C 0.73707 0.54196 0.83861 0.0
C1163 C 0.74943 0.5409 0.84263 0.0
C1164 C 0.73381 0.55791 0.85383 0.0
H1165 H 0.76319 0.54764 0.8553 0.0
C1166 C 0.77538 0.56009 0.87762 0.0
O1167 O 0.76466 0.54643 0.91203 0.0
O1168 O 0.75912 0.53528 0.89576 0.0
N1169 N 0.73166 0.5728 0.86932 0.0
C1170 C 0.72507 0.58152 0.87578 0.0
C1171 C 0.71253 0.58371 0.87287 0.0
C1172 C 0.70692 0.57699 0.8633 0.0
C1173 C 0.71392 0.56816 0.8567 0.0
C1174 C 0.7264 0.56643 0.85995 0.0
H1175 H 0.72932 0.58678 0.8831 0.0
O1176 O 0.73862 0.55061 0.90156 0.0
O1177 O 0.74569 0.55555 0.88291 0.0
O1178 O 0.7546 0.57177 0.90169 0.0
O1179 O 0.75171 0.58135 0.88327 0.0
C1180 C 0.70898 0.561 0.84702 0.0
C1181 C 0.71653 0.55218 0.84085 0.0
H1182 H 0.73384 0.53613 0.83113 0.0
H1183 H 0.75568 0.5343 0.83827 0.0
H1184 H 0.70721 0.59057 0.87798 0.0
H1185 H 0.69724 0.57866 0.86111 0.0
H1186 H 0.69939 0.56221 0.84424 0.0
H1187 H 0.71262 0.54671 0.83343 0.0
Mn1188 Mn 0.77775 0.46688 0.11681 0.0
Mn1189 Mn 0.76705 0.45287 0.09092 0.0
C1190 C 0.7747 0.44567 0.11668 0.0
C1191 C 0.79332 0.47393 0.12982 0.0
C1192 C 0.75046 0.46681 0.10888 0.0
O1193 O 0.78126 0.47987 0.10341 0.0
O1194 O 0.77375 0.46958 0.08693 0.0
C1195 C 0.79067 0.44996 0.07686 0.0
N1196 N 0.78047 0.4448 0.08236 0.0
C1197 C 0.78628 0.42443 0.07509 0.0
C1198 C 0.79684 0.42954 0.06937 0.0
C1199 C 0.79904 0.44236 0.07026 0.0
C1200 C 0.77823 0.43248 0.08148 0.0
H1201 H 0.79238 0.45982 0.07742 0.0
C1202 C 0.77898 0.47902 0.09182 0.0
O1203 O 0.78214 0.47849 0.13027 0.0
O1204 O 0.79569 0.46583 0.1212 0.0
N1205 N 0.7605 0.4365 0.09336 0.0
C1206 C 0.74976 0.43304 0.09917 0.0
C1207 C 0.74623 0.42049 0.09915 0.0
C1208 C 0.7537 0.41165 0.09305 0.0
C1209 C 0.7646 0.41545 0.08696 0.0
C1210 C 0.76762 0.4281 0.08724 0.0
H1211 H 0.74394 0.43979 0.10384 0.0
O1212 O 0.77469 0.45174 0.12706 0.0
O1213 O 0.77653 0.45213 0.10656 0.0
O1214 O 0.75904 0.47018 0.11619 0.0
O1215 O 0.75245 0.46051 0.09907 0.0
C1216 C 0.7726 0.40718 0.08063 0.0
C1217 C 0.78341 0.41167 0.07467 0.0
H1218 H 0.80329 0.42372 0.06423 0.0
H1219 H 0.80713 0.44638 0.0658 0.0
H1220 H 0.73776 0.41764 0.10382 0.0
H1221 H 0.75096 0.40197 0.09307 0.0
H1222 H 0.7705 0.39736 0.08024 0.0
H1223 H 0.78944 0.40524 0.06976 0.0
Mn1224 Mn 0.87887 0.53393 0.39318 0.0
Mn1225 Mn 0.88988 0.54262 0.36499 0.0
C1226 C 0.89696 0.54537 0.39198 0.0
C1227 C 0.86583 0.53715 0.41017 0.0
C1228 C 0.89283 0.51654 0.37564 0.0
O1229 O 0.8643 0.53071 0.38164 0.0
O1230 O 0.87182 0.53928 0.36402 0.0
C1231 C 0.87647 0.5666 0.36231 0.0
N1232 N 0.88731 0.56 0.36229 0.0
C1233 C 0.89893 0.57794 0.35578 0.0
C1234 C 0.88788 0.58494 0.35565 0.0
C1235 C 0.87662 0.57926 0.35903 0.0
C1236 C 0.89823 0.56543 0.35935 0.0
H1237 H 0.86778 0.56221 0.36476 0.0
C1238 C 0.86308 0.53432 0.3704 0.0
O1239 O 0.8699 0.52613 0.40736 0.0
O1240 O 0.86898 0.54625 0.40282 0.0
N1241 N 0.90722 0.54628 0.36415 0.0
C1242 C 0.91709 0.53833 0.36517 0.0
C1243 C 0.92908 0.5426 0.36236 0.0
C1244 C 0.93079 0.55487 0.35817 0.0
C1245 C 0.92048 0.56283 0.35702 0.0
C1246 C 0.90877 0.55811 0.36014 0.0
H1247 H 0.91582 0.5288 0.3681 0.0
O1248 O 0.89416 0.53916 0.40197 0.0
O1249 O 0.88882 0.54516 0.38306 0.0
O1250 O 0.88811 0.51879 0.38629 0.0
O1251 O 0.89328 0.52457 0.36684 0.0
C1252 C 0.92133 0.57526 0.35289 0.0
C1253 C 0.9106 0.58286 0.35244 0.0
H1254 H 0.88794 0.59467 0.353 0.0
H1255 H 0.86805 0.5846 0.35898 0.0
H1256 H 0.93696 0.53639 0.36331 0.0
H1257 H 0.94006 0.55807 0.35589 0.0
H1258 H 0.93023 0.57912 0.35018 0.0
H1259 H 0.91142 0.59246 0.34948 0.0
Mn1260 Mn 0.86165 0.6539 0.6799 0.0
Mn1261 Mn 0.85896 0.66377 0.64811 0.0
C1262 C 0.84624 0.66871 0.67417 0.0
C1263 C 0.85403 0.63749 0.69179 0.0
C1264 C 0.87638 0.66945 0.66913 0.0
O1265 O 0.87118 0.64141 0.66871 0.0
O1266 O 0.86317 0.6457 0.64939 0.0
C1267 C 0.85622 0.65288 0.62318 0.0
N1268 N 0.85568 0.66297 0.63074 0.0
C1269 C 0.84884 0.67613 0.61394 0.0
C1270 C 0.84933 0.66588 0.60595 0.0
C1271 C 0.85305 0.65421 0.61059 0.0
C1272 C 0.85211 0.67424 0.62639 0.0
H1273 H 0.85901 0.64388 0.62674 0.0
C1274 C 0.86888 0.6386 0.65731 0.0
O1275 O 0.86394 0.6434 0.69518 0.0
O1276 O 0.84862 0.64121 0.68173 0.0
N1277 N 0.85541 0.68128 0.64655 0.0
C1278 C 0.85641 0.69051 0.65512 0.0
C1279 C 0.85312 0.70275 0.65189 0.0
C1280 C 0.84911 0.70549 0.63979 0.0
C1281 C 0.84865 0.69599 0.63096 0.0
C1282 C 0.85196 0.68392 0.63474 0.0
H1283 H 0.85956 0.68856 0.66443 0.0
O1284 O 0.84878 0.66671 0.68582 0.0
O1285 O 0.85406 0.6635 0.66638 0.0
O1286 O 0.87691 0.66624 0.68039 0.0
O1287 O 0.86669 0.66523 0.66405 0.0
C1288 C 0.84519 0.69807 0.61851 0.0
C1289 C 0.84527 0.68815 0.61001 0.0
H1290 H 0.84689 0.66687 0.59624 0.0
H1291 H 0.85345 0.64625 0.60449 0.0
H1292 H 0.85369 0.71007 0.65871 0.0
H1293 H 0.8466 0.71496 0.63732 0.0
H1294 H 0.84256 0.70729 0.61534 0.0
H1295 H 0.84266 0.68988 0.60044 0.0
Mn1296 Mn 0.75015 0.55709 0.76972 0.0
Mn1297 Mn 0.73625 0.5494 0.79692 0.0
C1298 C 0.73666 0.57102 0.77889 0.0
C1299 C 0.76751 0.5646 0.75928 0.0
C1300 C 0.72777 0.54001 0.77188 0.0
O1301 O 0.7602 0.5422 0.77574 0.0
O1302 O 0.75169 0.53942 0.79469 0.0
C1303 C 0.75548 0.55875 0.81403 0.0
N1304 N 0.74349 0.5588 0.81003 0.0
C1305 C 0.73762 0.57408 0.82526 0.0
C1306 C 0.74988 0.57414 0.82958 0.0
C1307 C 0.75885 0.56644 0.82393 0.0
C1308 C 0.7348 0.56618 0.81539 0.0
H1309 H 0.76243 0.55288 0.8097 0.0
C1310 C 0.7599 0.537 0.78639 0.0
O1311 O 0.7597 0.55728 0.75385 0.0
O1312 O 0.76519 0.56755 0.77074 0.0
N1313 N 0.72126 0.55842 0.80058 0.0
C1314 C 0.70975 0.55701 0.79558 0.0
C1315 C 0.6996 0.56359 0.8006 0.0
C1316 C 0.70137 0.57151 0.81075 0.0
C1317 C 0.71327 0.57282 0.81575 0.0
C1318 C 0.72297 0.56578 0.81056 0.0
H1319 H 0.70826 0.55082 0.78789 0.0
O1320 O 0.73959 0.57218 0.76723 0.0
O1321 O 0.74209 0.56203 0.78497 0.0
O1322 O 0.73539 0.54622 0.7652 0.0
O1323 O 0.72796 0.53975 0.78377 0.0
C1324 C 0.7159 0.58085 0.82568 0.0
C1325 C 0.72808 0.58154 0.83038 0.0
H1326 H 0.75251 0.58003 0.83724 0.0
H1327 H 0.76833 0.56642 0.82723 0.0
H1328 H 0.69043 0.56251 0.79671 0.0
H1329 H 0.6935 0.57649 0.81467 0.0
H1330 H 0.7086 0.58651 0.82979 0.0
H1331 H 0.72998 0.58772 0.83803 0.0
Mn1332 Mn 0.78645 0.4165 0.00169 0.0
Mn1333 Mn 0.78681 0.41068 0.03256 0.0
C1334 C 0.76886 0.40886 0.0114 0.0
C1335 C 0.78403 0.43079 0.9856 0.0
C1336 C 0.7986 0.39366 0.01338 0.0
O1337 O 0.80179 0.42574 0.00756 0.0
O1338 O 0.79974 0.42301 0.02821 0.0
C1339 C 0.77893 0.43542 0.04178 0.0
N1340 N 0.77706 0.42293 0.04107 0.0
C1341 C 0.75908 0.42427 0.05443 0.0
C1342 C 0.76081 0.43714 0.05531 0.0
C1343 C 0.77078 0.44274 0.04896 0.0
C1344 C 0.76748 0.41746 0.04713 0.0
H1345 H 0.78661 0.43977 0.03697 0.0
C1346 C 0.805 0.42796 0.01871 0.0
O1347 O 0.79063 0.42075 0.98409 0.0
O1348 O 0.77884 0.43245 0.99638 0.0
N1349 N 0.77456 0.39905 0.03819 0.0
C1350 C 0.77432 0.38648 0.03663 0.0
C1351 C 0.76507 0.37945 0.04263 0.0
C1352 C 0.75627 0.38537 0.0503 0.0
C1353 C 0.75682 0.39827 0.05194 0.0
C1354 C 0.76627 0.4048 0.04575 0.0
H1355 H 0.78114 0.38183 0.03088 0.0
O1356 O 0.77015 0.40799 0.99943 0.0
O1357 O 0.77771 0.41446 0.01724 0.0
O1358 O 0.79504 0.39959 0.00372 0.0
O1359 O 0.79672 0.39741 0.02448 0.0
C1360 C 0.74837 0.40491 0.05948 0.0
C1361 C 0.74941 0.41792 0.06061 0.0
H1362 H 0.75461 0.4428 0.06091 0.0
H1363 H 0.77223 0.45266 0.04966 0.0
H1364 H 0.76476 0.36949 0.04138 0.0
H1365 H 0.74914 0.37992 0.0549 0.0
H1366 H 0.74101 0.40011 0.06442 0.0
H1367 H 0.74282 0.42293 0.06639 0.0
Mn1368 Mn 0.86717 0.45518 0.26307 0.0
Mn1369 Mn 0.86817 0.44141 0.29139 0.0
C1370 C 0.87654 0.43587 0.26503 0.0
C1371 C 0.85667 0.46004 0.24482 0.0
C1372 C 0.88553 0.46214 0.28335 0.0
O1373 O 0.85488 0.46537 0.27337 0.0
O1374 O 0.85472 0.45403 0.29096 0.0
C1375 C 0.84402 0.42844 0.29068 0.0
N1376 N 0.85655 0.4281 0.2923 0.0
C1377 C 0.85598 0.40657 0.2984 0.0
C1378 C 0.84305 0.40667 0.29682 0.0
C1379 C 0.83706 0.41763 0.29285 0.0
C1380 C 0.86244 0.41755 0.29584 0.0
H1381 H 0.83938 0.43692 0.28782 0.0
C1382 C 0.85066 0.46299 0.28422 0.0
O1383 O 0.8655 0.467 0.24897 0.0
O1384 O 0.85377 0.45029 0.25141 0.0
N1385 N 0.88066 0.42892 0.29369 0.0
C1386 C 0.89319 0.43037 0.29463 0.0
C1387 C 0.90057 0.42031 0.29857 0.0
C1388 C 0.89499 0.409 0.30188 0.0
C1389 C 0.88207 0.40774 0.30093 0.0
C1390 C 0.87519 0.41805 0.29682 0.0
H1391 H 0.89751 0.43915 0.29245 0.0
O1392 O 0.87863 0.44284 0.25537 0.0
O1393 O 0.86849 0.44012 0.27311 0.0
O1394 O 0.88177 0.46303 0.27217 0.0
O1395 O 0.88068 0.45481 0.2914 0.0
C1396 C 0.87571 0.39669 0.30395 0.0
C1397 C 0.8627 0.39605 0.30252 0.0
H1398 H 0.83763 0.39839 0.29863 0.0
H1399 H 0.82708 0.41779 0.29161 0.0
H1400 H 0.91052 0.42135 0.29918 0.0
H1401 H 0.90073 0.40135 0.30514 0.0
H1402 H 0.88076 0.38859 0.30727 0.0
H1403 H 0.85795 0.38746 0.3047 0.0
Mn1404 Mn 0.84001 0.60584 0.53843 0.0
Mn1405 Mn 0.8533 0.626 0.55814 0.0
C1406 C 0.84868 0.62397 0.53059 0.0
C1407 C 0.8412 0.58822 0.5261 0.0
C1408 C 0.82541 0.62323 0.55513 0.0
O1409 O 0.84202 0.59572 0.55451 0.0
O1410 O 0.85419 0.60895 0.56504 0.0
C1411 C 0.8795 0.61741 0.55696 0.0
N1412 N 0.87093 0.62674 0.55612 0.0
C1413 C 0.88694 0.64208 0.55353 0.0
C1414 C 0.89594 0.63265 0.55452 0.0
C1415 C 0.8922 0.62025 0.55614 0.0
C1416 C 0.87442 0.63867 0.55432 0.0
H1417 H 0.87663 0.60789 0.55822 0.0
C1418 C 0.84912 0.59833 0.56357 0.0
O1419 O 0.83066 0.59221 0.5305 0.0
O1420 O 0.85112 0.59419 0.5293 0.0
N1421 N 0.85328 0.64302 0.55273 0.0
C1422 C 0.84344 0.65088 0.55099 0.0
C1423 C 0.84557 0.66361 0.54898 0.0
C1424 C 0.85777 0.66816 0.54894 0.0
C1425 C 0.86775 0.65991 0.55067 0.0
C1426 C 0.86506 0.64733 0.55269 0.0
H1427 H 0.83403 0.64752 0.55125 0.0
O1428 O 0.84076 0.61777 0.52409 0.0
O1429 O 0.85161 0.61921 0.54132 0.0
O1430 O 0.8257 0.61588 0.54592 0.0
O1431 O 0.83513 0.62646 0.56103 0.0
C1432 C 0.88028 0.66363 0.55028 0.0
C1433 C 0.88987 0.65471 0.55161 0.0
H1434 H 0.90575 0.6348 0.55391 0.0
H1435 H 0.89909 0.6129 0.55681 0.0
H1436 H 0.83781 0.66991 0.54759 0.0
H1437 H 0.85936 0.67799 0.54748 0.0
H1438 H 0.88264 0.67329 0.54871 0.0
H1439 H 0.89947 0.65765 0.55102 0.0
Mn1440 Mn 0.90307 0.75999 0.55104 0.0
Mn1441 Mn 0.87471 0.75064 0.56062 0.0
C1442 C 0.8965 0.74008 0.54668 0.0
C1443 C 0.91541 0.76983 0.5362 0.0
C1444 C 0.89673 0.7532 0.57783 0.0
O1445 O 0.8941 0.77629 0.55486 0.0
O1446 O 0.87487 0.769 0.55902 0.0
C1447 C 0.85943 0.75795 0.53895 0.0
N1448 N 0.86363 0.74901 0.54694 0.0
C1449 C 0.85066 0.73357 0.5376 0.0
C1450 C 0.84617 0.74261 0.52928 0.0
C1451 C 0.85062 0.75484 0.52994 0.0
C1452 C 0.85946 0.7372 0.54635 0.0
H1453 H 0.86276 0.76739 0.53948 0.0
C1454 C 0.88257 0.77788 0.55723 0.0
O1455 O 0.91894 0.76886 0.5477 0.0
O1456 O 0.9047 0.76518 0.53341 0.0
N1457 N 0.87337 0.73298 0.56233 0.0
C1458 C 0.87922 0.7252 0.57048 0.0
C1459 C 0.87623 0.71251 0.57066 0.0
C1460 C 0.86713 0.70798 0.56259 0.0
C1461 C 0.86116 0.71618 0.55435 0.0
C1462 C 0.86461 0.72871 0.55451 0.0
H1463 H 0.88615 0.72863 0.57678 0.0
O1464 O 0.90826 0.7427 0.54655 0.0
O1465 O 0.88897 0.7492 0.54928 0.0
O1466 O 0.90491 0.75574 0.56959 0.0
O1467 O 0.88524 0.75175 0.57544 0.0
C1468 C 0.85201 0.7124 0.54591 0.0
C1469 C 0.84681 0.72107 0.53749 0.0
H1470 H 0.83936 0.74025 0.52233 0.0
H1471 H 0.84721 0.76187 0.52354 0.0
H1472 H 0.88089 0.70624 0.57705 0.0
H1473 H 0.86485 0.69819 0.56275 0.0
H1474 H 0.84906 0.7028 0.54566 0.0
H1475 H 0.83995 0.71799 0.53088 0.0
Mn1476 Mn 0.3965 0.88294 0.54343 0.0
Mn1477 Mn 0.36668 0.89052 0.54989 0.0
C1478 C 0.39247 0.90105 0.55413 0.0
C1479 C 0.41444 0.87166 0.54765 0.0
C1480 C 0.37867 0.894 0.52451 0.0
O1481 O 0.38686 0.86724 0.53946 0.0
O1482 O 0.36807 0.87237 0.54714 0.0
C1483 C 0.36429 0.87774 0.57422 0.0
N1484 N 0.36335 0.88828 0.56721 0.0
C1485 C 0.35521 0.89987 0.58452 0.0
C1486 C 0.35604 0.88913 0.59195 0.0
C1487 C 0.36066 0.87803 0.58679 0.0
C1488 C 0.35913 0.89904 0.57213 0.0
H1489 H 0.36775 0.86919 0.57024 0.0
C1490 C 0.37562 0.86461 0.54216 0.0
O1491 O 0.41183 0.87547 0.53651 0.0
O1492 O 0.40642 0.87415 0.5564 0.0
N1493 N 0.36345 0.90774 0.55273 0.0
C1494 C 0.36332 0.91725 0.54431 0.0
C1495 C 0.35889 0.92897 0.54792 0.0
C1496 C 0.35432 0.93074 0.56005 0.0
C1497 C 0.35437 0.92077 0.56851 0.0
C1498 C 0.35895 0.9093 0.56438 0.0
H1499 H 0.36656 0.9159 0.5349 0.0
O1500 O 0.40321 0.89911 0.54894 0.0
O1501 O 0.38455 0.89193 0.5536 0.0
O1502 O 0.38968 0.89115 0.52777 0.0
O1503 O 0.36925 0.89337 0.5318 0.0
C1504 C 0.3501 0.92175 0.58088 0.0
C1505 C 0.35063 0.91134 0.58892 0.0
H1506 H 0.35316 0.88929 0.60161 0.0
H1507 H 0.36135 0.86971 0.59246 0.0
H1508 H 0.35894 0.93656 0.54128 0.0
H1509 H 0.35081 0.93978 0.56278 0.0
H1510 H 0.34645 0.93049 0.58434 0.0
H1511 H 0.34745 0.91225 0.59844 0.0
Mn1512 Mn 0.46653 0.11771 0.78437 0.0
Mn1513 Mn 0.45503 0.09139 0.77197 0.0
C1514 C 0.44574 0.1165 0.77939 0.0
C1515 C 0.47147 0.13063 0.8008 0.0
C1516 C 0.46908 0.11053 0.75695 0.0
O1517 O 0.47984 0.10496 0.78886 0.0
O1518 O 0.47146 0.08824 0.77971 0.0
C1519 C 0.45153 0.07657 0.79505 0.0
N1520 N 0.44669 0.08201 0.78466 0.0
C1521 C 0.42656 0.07327 0.78892 0.0
C1522 C 0.43134 0.06758 0.79966 0.0
C1523 C 0.44388 0.06926 0.80274 0.0
C1524 C 0.43464 0.08045 0.78161 0.0
H1525 H 0.46118 0.0777 0.79742 0.0
C1526 C 0.48 0.09346 0.78605 0.0
O1527 O 0.47699 0.13161 0.79009 0.0
O1528 O 0.46356 0.12164 0.8022 0.0
N1529 N 0.43902 0.09297 0.76441 0.0
C1530 C 0.4359 0.09875 0.75355 0.0
C1531 C 0.42363 0.09807 0.74924 0.0
C1532 C 0.41474 0.09129 0.75602 0.0
C1533 C 0.41824 0.08515 0.767 0.0
C1534 C 0.43058 0.08622 0.77088 0.0
H1535 H 0.44271 0.10392 0.74824 0.0
O1536 O 0.45118 0.1272 0.78008 0.0
O1537 O 0.45257 0.10671 0.78166 0.0
O1538 O 0.47155 0.11763 0.76601 0.0
O1539 O 0.46305 0.10043 0.75813 0.0
C1540 C 0.41 0.07785 0.77414 0.0
C1541 C 0.41414 0.07196 0.78512 0.0
H1542 H 0.42548 0.06187 0.80556 0.0
H1543 H 0.44766 0.06487 0.81097 0.0
H1544 H 0.42104 0.10273 0.74068 0.0
H1545 H 0.4053 0.09075 0.75264 0.0
H1546 H 0.40048 0.07661 0.77121 0.0
H1547 H 0.40771 0.06635 0.7905 0.0
Mn1548 Mn 0.11294 0.23418 0.00833 0.0
Mn1549 Mn 0.14366 0.23074 0.01282 0.0
C1550 C 0.1211 0.21445 0.0117 0.0
C1551 C 0.0936 0.23877 0.01692 0.0
C1552 C 0.132 0.23607 0.98759 0.0
O1553 O 0.1189 0.25181 0.01181 0.0
O1554 O 0.13835 0.24749 0.01834 0.0
C1555 C 0.14485 0.23166 0.04029 0.0
N1556 N 0.1473 0.22564 0.02944 0.0
C1557 C 0.15828 0.2093 0.04019 0.0
C1558 C 0.15595 0.21535 0.05148 0.0
C1559 C 0.14913 0.22655 0.05153 0.0
C1560 C 0.15367 0.21477 0.02931 0.0
H1561 H 0.13971 0.24031 0.04034 0.0
C1562 C 0.12909 0.25487 0.01691 0.0
O1563 O 0.09573 0.24042 0.00512 0.0
O1564 O 0.10267 0.23449 0.0236 0.0
N1565 N 0.15001 0.21483 0.00801 0.0
C1566 C 0.15091 0.20983 0.99643 0.0
C1567 C 0.15704 0.19839 0.99483 0.0
C1568 C 0.1624 0.19236 0.00511 0.0
C1569 C 0.16153 0.19776 0.01689 0.0
C1570 C 0.15517 0.20909 0.01795 0.0
H1571 H 0.14697 0.2145 0.98846 0.0
O1572 O 0.11019 0.21583 0.0068 0.0
O1573 O 0.12671 0.22462 0.01475 0.0
O1574 O 0.12067 0.23479 0.99089 0.0
O1575 O 0.14103 0.23572 0.99526 0.0
C1576 C 0.16667 0.19231 0.02764 0.0
C1577 C 0.16497 0.19802 0.03931 0.0
H1578 H 0.15928 0.21147 0.06016 0.0
H1579 H 0.14726 0.23126 0.06021 0.0
H1580 H 0.15771 0.19427 0.9857 0.0
H1581 H 0.16709 0.18356 0.00388 0.0
H1582 H 0.17179 0.18362 0.02707 0.0
H1583 H 0.16875 0.19361 0.04755 0.0
Mn1584 Mn 0.59963 0.54596 0.82326 0.0
Mn1585 Mn 0.61935 0.57025 0.82581 0.0
C1586 C 0.61886 0.54306 0.83219 0.0
C1587 C 0.58359 0.53315 0.82999 0.0
C1588 C 0.61569 0.55613 0.80193 0.0
O1589 O 0.58806 0.56084 0.82133 0.0
O1590 O 0.60202 0.57625 0.82323 0.0
C1591 C 0.6099 0.58137 0.84922 0.0
N1592 N 0.61941 0.57622 0.84254 0.0
C1593 C 0.63391 0.58013 0.85898 0.0
C1594 C 0.62428 0.58547 0.86602 0.0
C1595 C 0.61222 0.58608 0.86112 0.0
C1596 C 0.63105 0.57561 0.84717 0.0
H1597 H 0.60064 0.58198 0.84547 0.0
C1598 C 0.59092 0.5723 0.82179 0.0
O1599 O 0.5864 0.53439 0.81832 0.0
O1600 O 0.5898 0.53979 0.83784 0.0
N1601 N 0.63644 0.56594 0.82858 0.0
C1602 C 0.64478 0.56067 0.82057 0.0
C1603 C 0.65728 0.55945 0.82406 0.0
C1604 C 0.66113 0.56377 0.8357 0.0
C1605 C 0.65242 0.56925 0.84375 0.0
C1606 C 0.64009 0.57029 0.83974 0.0
H1607 H 0.64192 0.55742 0.81156 0.0
O1608 O 0.613 0.53378 0.82735 0.0
O1609 O 0.61334 0.55387 0.83173 0.0
O1610 O 0.60748 0.54876 0.80617 0.0
O1611 O 0.62047 0.56474 0.80839 0.0
C1612 C 0.6555 0.57371 0.85561 0.0
C1613 C 0.64626 0.57918 0.86321 0.0
H1614 H 0.62603 0.58917 0.87518 0.0
H1615 H 0.60474 0.59024 0.86647 0.0
H1616 H 0.66395 0.55522 0.81779 0.0
H1617 H 0.67079 0.56283 0.83835 0.0
H1618 H 0.66496 0.57303 0.85896 0.0
H1619 H 0.64875 0.58264 0.87229 0.0
Mn1620 Mn 0.66104 0.36325 0.10778 0.0
Mn1621 Mn 0.69225 0.36462 0.1094 0.0
C1622 C 0.67201 0.37185 0.09137 0.0
C1623 C 0.64363 0.35135 0.1039 0.0
C1624 C 0.67483 0.38244 0.12283 0.0
O1625 O 0.66528 0.35174 0.12223 0.0
O1626 O 0.68603 0.35086 0.12007 0.0
C1627 C 0.69812 0.34064 0.09722 0.0
N1628 N 0.69958 0.35318 0.0979 0.0
C1629 C 0.71382 0.35311 0.08054 0.0
C1630 C 0.71258 0.34017 0.07976 0.0
C1631 C 0.70465 0.33392 0.08809 0.0
C1632 C 0.707 0.35932 0.08977 0.0
H1633 H 0.69207 0.33579 0.10364 0.0
C1634 C 0.67582 0.34699 0.12482 0.0
O1635 O 0.64304 0.3609 0.11121 0.0
O1636 O 0.65426 0.34889 0.09868 0.0
N1637 N 0.69984 0.37734 0.09941 0.0
C1638 C 0.69984 0.38987 0.10124 0.0
C1639 C 0.70754 0.39745 0.09387 0.0
C1640 C 0.71526 0.39208 0.08477 0.0
C1641 C 0.7151 0.37919 0.08302 0.0
C1642 C 0.70736 0.37208 0.09076 0.0
H1643 H 0.69415 0.39407 0.10837 0.0
O1644 O 0.66015 0.37384 0.09245 0.0
O1645 O 0.67696 0.36446 0.09959 0.0
O1646 O 0.66473 0.37861 0.11808 0.0
O1647 O 0.68537 0.37708 0.12115 0.0
C1648 C 0.72228 0.37311 0.07386 0.0
C1649 C 0.72153 0.3601 0.07253 0.0
H1650 H 0.71769 0.33495 0.07281 0.0
H1651 H 0.70366 0.32393 0.08755 0.0
H1652 H 0.70762 0.4074 0.09527 0.0
H1653 H 0.72127 0.39795 0.07919 0.0
H1654 H 0.72829 0.37838 0.06769 0.0
H1655 H 0.727 0.35555 0.06537 0.0
Mn1656 Mn 0.41876 0.00298 0.78368 0.0
Mn1657 Mn 0.41333 0.03394 0.78361 0.0
C1658 C 0.41312 0.01284 0.76539 0.0
C1659 C 0.43293 0.98659 0.78288 0.0
C1660 C 0.39495 0.01498 0.79347 0.0
O1661 O 0.42636 0.0087 0.79998 0.0
O1662 O 0.42418 0.0294 0.79772 0.0
C1663 C 0.43881 0.04293 0.77836 0.0
N1664 N 0.42659 0.04232 0.77519 0.0
C1665 C 0.42982 0.05596 0.75767 0.0
C1666 C 0.44243 0.05673 0.76074 0.0
C1667 C 0.44695 0.05017 0.77112 0.0
C1668 C 0.42216 0.04855 0.76519 0.0
H1669 H 0.4423 0.038 0.78639 0.0
C1670 C 0.42834 0.01981 0.80348 0.0
O1671 O 0.42219 0.98534 0.78831 0.0
O1672 O 0.43537 0.9973 0.77786 0.0
N1673 N 0.40304 0.03982 0.77033 0.0
C1674 C 0.39052 0.03859 0.76896 0.0
C1675 C 0.38448 0.04491 0.75924 0.0
C1676 C 0.39132 0.05261 0.75117 0.0
C1677 C 0.40414 0.05393 0.75291 0.0
C1678 C 0.40966 0.04739 0.76274 0.0
H1679 H 0.38516 0.03287 0.77525 0.0
O1680 O 0.41202 0.00087 0.76654 0.0
O1681 O 0.41784 0.0186 0.77481 0.0
O1682 O 0.40107 0.00526 0.79042 0.0
O1683 O 0.39905 0.02604 0.79211 0.0
C1684 C 0.41162 0.0616 0.74535 0.0
C1685 C 0.42449 0.06246 0.7476 0.0
H1686 H 0.44871 0.06242 0.75526 0.0
H1687 H 0.45665 0.0508 0.77361 0.0
H1688 H 0.37456 0.04391 0.75803 0.0
H1689 H 0.38662 0.05747 0.7437 0.0
H1690 H 0.40757 0.06687 0.73776 0.0
H1691 H 0.43015 0.06837 0.74169 0.0
Mn1692 Mn 0.1067 0.99088 0.20906 0.0
Mn1693 Mn 0.1214 0.97335 0.18757 0.0
C1694 C 0.11076 0.9995 0.18971 0.0
C1695 C 0.08847 0.99612 0.21951 0.0
C1696 C 0.13457 0.986 0.20895 0.0
O1697 O 0.10645 0.97345 0.21646 0.0
O1698 O 0.11322 0.96246 0.20005 0.0
C1699 C 0.09926 0.96213 0.17608 0.0
N1700 N 0.11005 0.9686 0.17493 0.0
C1701 C 0.10853 0.96889 0.15264 0.0
C1702 C 0.09741 0.9622 0.15356 0.0
C1703 C 0.09271 0.95889 0.16534 0.0
C1704 C 0.11448 0.97211 0.16368 0.0
H1705 H 0.09572 0.95945 0.18512 0.0
C1706 C 0.10879 0.9632 0.21106 0.0
O1707 O 0.09927 0.99746 0.22462 0.0
O1708 O 0.08823 0.99159 0.20836 0.0
N1709 N 0.13003 0.98208 0.17466 0.0
C1710 C 0.141 0.98828 0.17541 0.0
C1711 C 0.14717 0.99191 0.16447 0.0
C1712 C 0.14218 0.98892 0.15286 0.0
C1713 C 0.13096 0.98239 0.1523 0.0
C1714 C 0.12523 0.979 0.16352 0.0
H1715 H 0.14511 0.99031 0.18428 0.0
O1716 O 0.1077 0.00648 0.19904 0.0
O1717 O 0.11056 0.98754 0.19176 0.0
O1718 O 0.1252 0.99207 0.21306 0.0
O1719 O 0.13392 0.97816 0.20007 0.0
C1720 C 0.12532 0.97896 0.14105 0.0
C1721 C 0.11402 0.97238 0.14123 0.0
H1722 H 0.09242 0.95954 0.14529 0.0
H1723 H 0.08413 0.95374 0.16613 0.0
H1724 H 0.15588 0.99679 0.16504 0.0
H1725 H 0.1471 0.99159 0.14445 0.0
H1726 H 0.12957 0.98137 0.13221 0.0
H1727 H 0.1097 0.96992 0.13252 0.0
C1728 C 0.02786 0.21371 0.30425 0.0
C1729 C 0.01496 0.21212 0.30547 0.0
C1730 C 0.03589 0.20347 0.3053 0.0
C1731 C 0.03567 0.16852 0.30909 0.0
H1732 H 0.05164 0.17064 0.27682 0.0
C1733 C 0.02591 0.13567 0.27032 0.0
C1734 C 0.03355 0.13568 0.25972 0.0
C1735 C 0.02966 0.14187 0.28103 0.0
C1736 C 0.04762 0.1697 0.28602 0.0
H1737 H 0.00056 0.19902 0.31072 0.0
H1738 H 0.01429 0.18129 0.31208 0.0
H1739 H 0.04748 0.18931 0.28813 0.0
H1740 H 0.05177 0.14039 0.2525 0.0
H1741 H 0.05856 0.15071 0.27134 0.0
H1742 H 0.03484 0.14884 0.30627 0.0
C1743 C 0.0184 0.1903 0.31035 0.0
C1744 C 0.04522 0.18057 0.29261 0.0
C1745 C 0.01043 0.2005 0.30936 0.0
C1746 C 0.04561 0.14051 0.2605 0.0
C1747 C 0.04948 0.14643 0.27129 0.0
C1748 C 0.03803 0.1576 0.30245 0.0
C1749 C 0.03112 0.19148 0.30748 0.0
C1750 C 0.03827 0.1802 0.30371 0.0
C1751 C 0.0412 0.14801 0.28133 0.0
C1752 C 0.04313 0.15821 0.29039 0.0
H1753 H 0.03168 0.22262 0.30152 0.0
H1754 H 0.04569 0.20478 0.30339 0.0
H1755 H 0.03071 0.16787 0.31786 0.0
H1756 H 0.01658 0.13196 0.26994 0.0
H1757 H 0.02299 0.14288 0.28853 0.0
C1758 C 0.07786 0.7898 0.48759 0.0
C1759 C 0.09041 0.79289 0.48594 0.0
C1760 C 0.06883 0.79913 0.48818 0.0
C1761 C 0.06763 0.82933 0.47242 0.0
H1762 H 0.03318 0.8193 0.47266 0.0
C1763 C 0.04339 0.82083 0.42858 0.0
C1764 C 0.03079 0.81754 0.42846 0.0
C1765 C 0.04857 0.82608 0.43913 0.0
C1766 C 0.04263 0.82267 0.47258 0.0
H1767 H 0.10364 0.80795 0.48674 0.0
H1768 H 0.08794 0.82426 0.48843 0.0
H1769 H 0.04653 0.81296 0.4895 0.0
H1770 H 0.01331 0.81911 0.43853 0.0
H1771 H 0.0223 0.82862 0.45685 0.0
H1772 H 0.06369 0.83921 0.45562 0.0
C1773 C 0.08493 0.81468 0.48844 0.0
C1774 C 0.05041 0.81881 0.48225 0.0
C1775 C 0.09399 0.80529 0.4877 0.0
C1776 C 0.02312 0.82133 0.4384 0.0
C1777 C 0.02832 0.82667 0.44899 0.0
C1778 C 0.05975 0.83358 0.46302 0.0
C1779 C 0.07223 0.81175 0.48724 0.0
C1780 C 0.06331 0.82083 0.48148 0.0
C1781 C 0.04128 0.82821 0.44987 0.0
C1782 C 0.04753 0.8291 0.46222 0.0
H1783 H 0.07486 0.78026 0.48657 0.0
H1784 H 0.05924 0.79627 0.48758 0.0
H1785 H 0.07738 0.83157 0.47157 0.0
H1786 H 0.04953 0.81827 0.42098 0.0
H1787 H 0.05855 0.82718 0.43919 0.0
C1788 C 0.52925 0.79801 0.77755 0.0
C1789 C 0.53751 0.78789 0.77828 0.0
C1790 C 0.52691 0.80529 0.78798 0.0
C1791 C 0.54774 0.81407 0.8128 0.0
H1792 H 0.52754 0.84352 0.80779 0.0
C1793 C 0.56755 0.85535 0.79161 0.0
C1794 C 0.56056 0.8663 0.7901 0.0
C1795 C 0.56373 0.84623 0.80003 0.0
C1796 C 0.53327 0.83545 0.80978 0.0
H1797 H 0.54751 0.77579 0.79099 0.0
H1798 H 0.54309 0.78826 0.80932 0.0
H1799 H 0.51842 0.82327 0.8052 0.0
H1800 H 0.54529 0.8772 0.79768 0.0
H1801 H 0.53871 0.86133 0.81257 0.0
H1802 H 0.56261 0.82627 0.81729 0.0
C1803 C 0.53892 0.791 0.80058 0.0
C1804 C 0.52802 0.82374 0.8081 0.0
C1805 C 0.54134 0.78373 0.79007 0.0
C1806 C 0.55078 0.86876 0.79849 0.0
C1807 C 0.54694 0.85959 0.80698 0.0
C1808 C 0.55286 0.82576 0.81491 0.0
C1809 C 0.5328 0.80257 0.79936 0.0
C1810 C 0.53565 0.81305 0.80795 0.0
C1811 C 0.55278 0.84784 0.80715 0.0
C1812 C 0.54613 0.83658 0.81185 0.0
H1813 H 0.52588 0.80125 0.76862 0.0
H1814 H 0.52189 0.81391 0.78651 0.0
H1815 H 0.55391 0.80611 0.81335 0.0
H1816 H 0.57527 0.85326 0.78544 0.0
H1817 H 0.56862 0.83741 0.79982 0.0
C1818 C 0.41241 0.32336 0.02198 0.0
C1819 C 0.40979 0.33377 0.01448 0.0
C1820 C 0.42026 0.32442 0.03218 0.0
C1821 C 0.44111 0.34695 0.04859 0.0
H1822 H 0.46539 0.32111 0.04167 0.0
C1823 C 0.49087 0.3564 0.03698 0.0
C1824 C 0.49976 0.34676 0.03716 0.0
C1825 C 0.47909 0.35462 0.04213 0.0
C1826 C 0.45872 0.32827 0.04417 0.0
H1827 H 0.41215 0.35365 0.01246 0.0
H1828 H 0.42639 0.35544 0.02977 0.0
H1829 H 0.44412 0.31802 0.03606 0.0
H1830 H 0.50387 0.3284 0.04461 0.0
H1831 H 0.48331 0.32534 0.05373 0.0
H1832 H 0.45619 0.35759 0.05576 0.0
C1833 C 0.4222 0.34649 0.0281 0.0
C1834 C 0.44636 0.32649 0.04091 0.0
C1835 C 0.41409 0.34547 0.01808 0.0
C1836 C 0.49714 0.33591 0.04403 0.0
C1837 C 0.48535 0.33415 0.04926 0.0
C1838 C 0.45354 0.34875 0.05185 0.0
C1839 C 0.42597 0.33582 0.03481 0.0
C1840 C 0.43757 0.33614 0.04227 0.0
C1841 C 0.47595 0.34316 0.04764 0.0
C1842 C 0.46262 0.33977 0.04884 0.0
H1843 H 0.40896 0.31426 0.01952 0.0
H1844 H 0.42263 0.31609 0.03739 0.0
H1845 H 0.4345 0.35442 0.05015 0.0
H1846 H 0.49265 0.36502 0.03202 0.0
H1847 H 0.47214 0.3618 0.04067 0.0
C1848 C 0.14526 0.68282 0.33662 0.0
C1849 C 0.13638 0.67368 0.33914 0.0
C1850 C 0.14882 0.68541 0.32435 0.0
C1851 C 0.13674 0.67965 0.29147 0.0
H1852 H 0.13976 0.71545 0.29107 0.0
C1853 C 0.10065 0.71408 0.2798 0.0
C1854 C 0.10425 0.72642 0.27757 0.0
C1855 C 0.10938 0.70447 0.27889 0.0
C1856 C 0.13918 0.7054 0.29073 0.0
H1857 H 0.12532 0.65911 0.33113 0.0
H1858 H 0.13049 0.66412 0.31 0.0
H1859 H 0.14865 0.70391 0.30774 0.0
H1860 H 0.11888 0.73804 0.26995 0.0
H1861 H 0.13414 0.7213 0.2686 0.0
H1862 H 0.12572 0.68177 0.275 0.0
C1863 C 0.13524 0.66923 0.31712 0.0
C1864 C 0.14431 0.6986 0.30051 0.0
C1865 C 0.13218 0.66626 0.32941 0.0
C1866 C 0.11586 0.72863 0.27192 0.0
C1867 C 0.12466 0.71903 0.27116 0.0
C1868 C 0.13123 0.68654 0.28185 0.0
C1869 C 0.14287 0.67953 0.3143 0.0
C1870 C 0.14218 0.68571 0.3017 0.0
C1871 C 0.12182 0.70716 0.27588 0.0
C1872 C 0.13165 0.69957 0.28194 0.0
H1873 H 0.14881 0.68852 0.34405 0.0
H1874 H 0.15548 0.69275 0.32286 0.0
H1875 H 0.13568 0.66967 0.29132 0.0
H1876 H 0.09168 0.71209 0.28397 0.0
H1877 H 0.10684 0.69538 0.28245 0.0
C1878 C 0.61948 0.88556 0.60754 0.0
C1879 C 0.63176 0.88385 0.61155 0.0
C1880 C 0.61612 0.88232 0.59551 0.0
C1881 C 0.6269 0.85769 0.5747 0.0
H1882 H 0.59234 0.86163 0.56581 0.0
C1883 C 0.59407 0.82151 0.58557 0.0
C1884 C 0.58141 0.82352 0.58322 0.0
C1885 C 0.60303 0.82832 0.57911 0.0
C1886 C 0.60212 0.86031 0.56772 0.0
H1887 H 0.65057 0.87968 0.60541 0.0
H1888 H 0.64477 0.87439 0.58428 0.0
H1889 H 0.60383 0.8794 0.5727 0.0
H1890 H 0.56833 0.83198 0.57042 0.0
H1891 H 0.584 0.84348 0.55875 0.0
H1892 H 0.62522 0.83863 0.56959 0.0
C1893 C 0.63759 0.87767 0.59057 0.0
C1894 C 0.6087 0.87059 0.57193 0.0
C1895 C 0.64096 0.88087 0.60269 0.0
C1896 C 0.57803 0.83044 0.57263 0.0
C1897 C 0.58704 0.83721 0.56605 0.0
C1898 C 0.62045 0.84751 0.57003 0.0
C1899 C 0.62497 0.87729 0.58718 0.0
C1900 C 0.62066 0.86903 0.57695 0.0
C1901 C 0.59947 0.83724 0.57011 0.0
C1902 C 0.60756 0.84835 0.56802 0.0
H1903 H 0.61221 0.88814 0.61406 0.0
H1904 H 0.60631 0.88245 0.59339 0.0
H1905 H 0.63626 0.85606 0.57796 0.0
H1906 H 0.59696 0.81599 0.59352 0.0
H1907 H 0.61246 0.82771 0.58248 0.0
C1908 C 0.51886 0.37504 0.84765 0.0
C1909 C 0.52823 0.37048 0.85553 0.0
C1910 C 0.51336 0.36718 0.83896 0.0
C1911 C 0.51377 0.33406 0.82741 0.0
H1912 H 0.47859 0.33678 0.8348 0.0
C1913 C 0.46537 0.30433 0.83425 0.0
C1914 C 0.4704 0.29508 0.84205 0.0
C1915 C 0.47308 0.31308 0.82854 0.0
C1916 C 0.48831 0.3359 0.83225 0.0
H1917 H 0.5404 0.35473 0.85922 0.0
H1918 H 0.53066 0.34105 0.84458 0.0
H1919 H 0.49171 0.35447 0.83786 0.0
H1920 H 0.48749 0.28678 0.84878 0.0
H1921 H 0.50095 0.30225 0.83916 0.0
H1922 H 0.51032 0.31502 0.82282 0.0
C1923 C 0.52747 0.35061 0.84492 0.0
C1924 C 0.49591 0.34617 0.834 0.0
C1925 C 0.53299 0.35845 0.8535 0.0
C1926 C 0.48337 0.29382 0.84282 0.0
C1927 C 0.49109 0.3027 0.83725 0.0
C1928 C 0.50614 0.32371 0.82575 0.0
C1929 C 0.51708 0.35462 0.83808 0.0
C1930 C 0.50885 0.34519 0.83231 0.0
C1931 C 0.48595 0.31289 0.83073 0.0
C1932 C 0.49342 0.32435 0.8288 0.0
H1933 H 0.51511 0.38433 0.84884 0.0
H1934 H 0.50561 0.3707 0.83358 0.0
H1935 H 0.52365 0.33307 0.82567 0.0
H1936 H 0.45539 0.30538 0.83334 0.0
H1937 H 0.46886 0.32061 0.8233 0.0
C1938 C 0.88617 0.2547 0.16739 0.0
C1939 C 0.88257 0.24346 0.17301 0.0
C1940 C 0.88937 0.25508 0.1548 0.0
C1941 C 0.90848 0.24947 0.13542 0.0
H1942 H 0.90095 0.22385 0.11153 0.0
C1943 C 0.94813 0.22965 0.10821 0.0
C1944 C 0.94895 0.21685 0.11083 0.0
C1945 C 0.93671 0.23587 0.10919 0.0
C1946 C 0.90311 0.23119 0.11799 0.0
H1947 H 0.8782 0.22415 0.1697 0.0
H1948 H 0.8844 0.22459 0.14796 0.0
H1949 H 0.88516 0.23018 0.12666 0.0
H1950 H 0.93816 0.20024 0.11459 0.0
H1951 H 0.9185 0.21104 0.11668 0.0
H1952 H 0.92662 0.24992 0.1275 0.0
C1953 C 0.88449 0.23323 0.15305 0.0
C1954 C 0.89407 0.23479 0.12669 0.0
C1955 C 0.881 0.23293 0.16558 0.0
C1956 C 0.93792 0.21017 0.11283 0.0
C1957 C 0.92655 0.21638 0.11386 0.0
C1958 C 0.91745 0.24591 0.12674 0.0
C1959 C 0.88943 0.24415 0.1477 0.0
C1960 C 0.89696 0.24337 0.13605 0.0
C1961 C 0.92595 0.22941 0.11287 0.0
C1962 C 0.91518 0.23612 0.11849 0.0
H1963 H 0.8872 0.26302 0.1729 0.0
H1964 H 0.89272 0.26375 0.1509 0.0
H1965 H 0.91116 0.25608 0.14243 0.0
H1966 H 0.95642 0.23504 0.10639 0.0
H1967 H 0.9365 0.24588 0.10805 0.0
C1968 C 0.26289 0.02385 0.13814 0.0
C1969 C 0.2524 0.03162 0.13758 0.0
C1970 C 0.27311 0.02725 0.14531 0.0
C1971 C 0.2767 0.0445 0.17392 0.0
H1972 H 0.30957 0.02963 0.1728 0.0
C1973 C 0.29558 0.02761 0.21872 0.0
C1974 C 0.29795 0.01482 0.21759 0.0
C1975 C 0.2963 0.03536 0.20822 0.0
C1976 C 0.30047 0.03397 0.17327 0.0
H1977 H 0.24492 0.04967 0.14254 0.0
H1978 H 0.26292 0.05585 0.15457 0.0
H1979 H 0.29803 0.0327 0.15354 0.0
H1980 H 0.30514 0.00054 0.2053 0.0
H1981 H 0.30593 0.01372 0.18712 0.0
H1982 H 0.27847 0.0448 0.19354 0.0
C1983 C 0.26314 0.04694 0.14994 0.0
C1984 C 0.29386 0.03572 0.16221 0.0
C1985 C 0.25284 0.04342 0.14302 0.0
C1986 C 0.30289 0.01032 0.20636 0.0
C1987 C 0.30349 0.01798 0.19589 0.0
C1988 C 0.28323 0.04267 0.18491 0.0
C1989 C 0.27303 0.03856 0.15187 0.0
C1990 C 0.28159 0.04029 0.16253 0.0
C1991 C 0.29922 0.03036 0.19646 0.0
C1992 C 0.29484 0.03657 0.18484 0.0
H1993 H 0.26274 0.01469 0.13401 0.0
H1994 H 0.28052 0.02051 0.14661 0.0
H1995 H 0.26728 0.04802 0.17461 0.0
H1996 H 0.29199 0.03142 0.22733 0.0
H1997 H 0.2934 0.04498 0.20911 0.0
C1998 C 0.3476 0.03005 0.48697 0.0
C1999 C 0.33685 0.03111 0.49437 0.0
C2000 C 0.34682 0.03083 0.47406 0.0
C2001 C 0.32428 0.02047 0.45211 0.0
H2002 H 0.35111 0.0264 0.42864 0.0
C2003 C 0.32804 0.99017 0.4093 0.0
C2004 C 0.33993 0.98503 0.40747 0.0
C2005 C 0.32642 0.00077 0.41657 0.0
C2006 C 0.3435 0.0247 0.43505 0.0
H2007 H 0.31717 0.03545 0.49426 0.0
H2008 H 0.31577 0.03683 0.47161 0.0
H2009 H 0.35045 0.03776 0.44823 0.0
H2010 H 0.35955 0.98739 0.41104 0.0
H2011 H 0.35674 0.00554 0.42418 0.0
H2012 H 0.31782 0.00675 0.4396 0.0
C2013 C 0.32479 0.03526 0.47579 0.0
C2014 C 0.34308 0.03128 0.44623 0.0
C2015 C 0.32559 0.03456 0.48876 0.0
C2016 C 0.35028 0.99118 0.4123 0.0
C2017 C 0.34864 0.00166 0.41978 0.0
C2018 C 0.32474 0.01386 0.44101 0.0
C2019 C 0.33524 0.03259 0.4683 0.0
C2020 C 0.33378 0.02879 0.45514 0.0
C2021 C 0.33663 0.00629 0.42242 0.0
C2022 C 0.33467 0.01545 0.43259 0.0
H2023 H 0.35643 0.0275 0.49109 0.0
H2024 H 0.35507 0.02871 0.46863 0.0
H2025 H 0.31706 0.01816 0.45879 0.0
H2026 H 0.31992 0.98573 0.40548 0.0
H2027 H 0.31707 0.00426 0.41809 0.0
C2028 C 0.33646 0.13716 0.66218 0.0
C2029 C 0.3438 0.1373 0.67296 0.0
C2030 C 0.32361 0.1392 0.66301 0.0
C2031 C 0.29815 0.1435 0.68707 0.0
H2032 H 0.28642 0.11312 0.67223 0.0
C2033 C 0.27541 0.11144 0.71901 0.0
C2034 C 0.28293 0.1007 0.71891 0.0
C2035 C 0.27422 0.11869 0.70822 0.0
C2036 C 0.28943 0.12169 0.67645 0.0
H2037 H 0.34384 0.14183 0.69254 0.0
H2038 H 0.32176 0.14533 0.69404 0.0
H2039 H 0.30347 0.12414 0.66264 0.0
H2040 H 0.29258 0.08762 0.70701 0.0
H2041 H 0.2908 0.10009 0.6885 0.0
H2042 H 0.28542 0.14008 0.70185 0.0
C2043 C 0.32562 0.14346 0.68493 0.0
C2044 C 0.29918 0.12819 0.67081 0.0
C2045 C 0.3384 0.14138 0.68412 0.0
C2046 C 0.28702 0.09605 0.70743 0.0
C2047 C 0.28592 0.10331 0.6967 0.0
C2048 C 0.28868 0.13679 0.69292 0.0
C2049 C 0.31791 0.14139 0.67461 0.0
C2050 C 0.3045 0.13847 0.67678 0.0
C2051 C 0.28066 0.11534 0.69728 0.0
C2052 C 0.28516 0.12507 0.68835 0.0
H2053 H 0.34037 0.13422 0.65336 0.0
H2054 H 0.31806 0.13797 0.65476 0.0
H2055 H 0.3015 0.15181 0.69154 0.0
H2056 H 0.27187 0.11514 0.72769 0.0
H2057 H 0.26953 0.1276 0.70889 0.0
C2058 C 0.23233 0.10789 0.94812 0.0
C2059 C 0.21966 0.1096 0.95089 0.0
C2060 C 0.2364 0.10772 0.93572 0.0
C2061 C 0.2246 0.11228 0.90289 0.0
H2062 H 0.24915 0.13841 0.90324 0.0
C2063 C 0.2181 0.15938 0.88122 0.0
C2064 C 0.22844 0.16697 0.87916 0.0
C2065 C 0.21978 0.14682 0.88421 0.0
C2066 C 0.24253 0.1309 0.90269 0.0
H2067 H 0.20118 0.11042 0.94297 0.0
H2068 H 0.20815 0.1106 0.92168 0.0
H2069 H 0.24754 0.12453 0.92071 0.0
H2070 H 0.24844 0.16737 0.87711 0.0
H2071 H 0.2514 0.14534 0.88199 0.0
H2072 H 0.21879 0.11973 0.8853 0.0
C2073 C 0.2151 0.10936 0.92882 0.0
C2074 C 0.24161 0.12282 0.91283 0.0
C2075 C 0.21106 0.10945 0.94113 0.0
C2076 C 0.24034 0.1616 0.87865 0.0
C2077 C 0.24202 0.14903 0.8815 0.0
C2078 C 0.22542 0.12051 0.89279 0.0
C2079 C 0.22787 0.10936 0.92594 0.0
C2080 C 0.23199 0.11404 0.9135 0.0
C2081 C 0.23184 0.14173 0.88521 0.0
C2082 C 0.23382 0.13044 0.89301 0.0
H2083 H 0.23918 0.10774 0.95546 0.0
H2084 H 0.2463 0.1073 0.93385 0.0
H2085 H 0.21739 0.1053 0.90287 0.0
H2086 H 0.20886 0.16342 0.8818 0.0
H2087 H 0.21172 0.14152 0.88708 0.0
C2088 C 0.13355 0.26978 0.03363 0.0
C2089 C 0.13086 0.26766 0.02109 0.0
C2090 C 0.13969 0.28059 0.03713 0.0
C2091 C 0.15569 0.30882 0.02404 0.0
H2092 H 0.18417 0.29292 0.03941 0.0
C2093 C 0.20267 0.30914 0.00258 0.0
C2094 C 0.21327 0.30548 0.00925 0.0
C2095 C 0.19145 0.31138 0.0087 0.0
C2096 C 0.17631 0.29786 0.03546 0.0
H2097 H 0.13114 0.27551 0.00256 0.0
H2098 H 0.14221 0.2942 0.00848 0.0
H2099 H 0.16395 0.28397 0.04209 0.0
H2100 H 0.22085 0.3029 0.02771 0.0
H2101 H 0.20115 0.30686 0.03851 0.0
H2102 H 0.16843 0.3222 0.01662 0.0
C2103 C 0.13938 0.2878 0.01576 0.0
C2104 C 0.16457 0.29266 0.037 0.0
C2105 C 0.13306 0.27706 0.0123 0.0
C2106 C 0.21278 0.30551 0.02231 0.0
C2107 C 0.20148 0.30776 0.02848 0.0
C2108 C 0.16747 0.31409 0.02256 0.0
C2109 C 0.14356 0.28924 0.02806 0.0
C2110 C 0.1543 0.2975 0.03049 0.0
C2111 C 0.19053 0.31 0.02168 0.0
C2112 C 0.17805 0.30803 0.02739 0.0
H2113 H 0.13187 0.26262 0.04055 0.0
H2114 H 0.14249 0.28156 0.04672 0.0
H2115 H 0.14789 0.31299 0.01921 0.0
H2116 H 0.20282 0.30948 0.99251 0.0
H2117 H 0.18329 0.31303 0.00308 0.0
C2118 C 0.66609 0.32676 0.13092 0.0
C2119 C 0.67621 0.33494 0.13153 0.0
C2120 C 0.66787 0.314 0.13298 0.0
C2121 C 0.69375 0.29055 0.13817 0.0
H2122 H 0.68103 0.27768 0.10729 0.0
C2123 C 0.72855 0.27044 0.10729 0.0
C2124 C 0.72818 0.27784 0.09647 0.0
C2125 C 0.71766 0.2684 0.11419 0.0
C2126 C 0.68469 0.28103 0.116 0.0
H2127 H 0.69549 0.33657 0.1369 0.0
H2128 H 0.69863 0.31465 0.14045 0.0
H2129 H 0.66972 0.29391 0.11794 0.0
H2130 H 0.71597 0.2863 0.08289 0.0
H2131 H 0.69728 0.28308 0.09476 0.0
H2132 H 0.70961 0.27905 0.1353 0.0
C2133 C 0.68933 0.31777 0.1382 0.0
C2134 C 0.67805 0.2903 0.12228 0.0
C2135 C 0.68757 0.33045 0.1361 0.0
C2136 C 0.71657 0.28087 0.09139 0.0
C2137 C 0.70574 0.27894 0.0983 0.0
C2138 C 0.70059 0.28159 0.13167 0.0
C2139 C 0.67979 0.30924 0.13565 0.0
C2140 C 0.68318 0.29606 0.13277 0.0
C2141 C 0.70635 0.27387 0.11042 0.0
C2142 C 0.69676 0.27771 0.11981 0.0
H2143 H 0.65713 0.32995 0.1276 0.0
H2144 H 0.66017 0.3078 0.13139 0.0
H2145 H 0.69762 0.29423 0.14665 0.0
H2146 H 0.73736 0.2677 0.11133 0.0
H2147 H 0.71842 0.26385 0.12316 0.0
C2148 C 0.01655 0.41592 0.32316 0.0
C2149 C 0.01105 0.40848 0.33244 0.0
C2150 C 0.02642 0.4237 0.32599 0.0
C2151 C 0.0465 0.44123 0.33389 0.0
H2152 H 0.03326 0.45885 0.36236 0.0
C2153 C 0.03827 0.49319 0.35626 0.0
C2154 C 0.03468 0.49885 0.34504 0.0
C2155 C 0.04304 0.48109 0.35635 0.0
C2156 C 0.0375 0.45403 0.3546 0.0
H2157 H 0.01283 0.402 0.35151 0.0
H2158 H 0.03016 0.41556 0.35642 0.0
H2159 H 0.02788 0.43746 0.3594 0.0
H2160 H 0.03456 0.49692 0.32502 0.0
H2161 H 0.04226 0.47568 0.32514 0.0
H2162 H 0.0554 0.45826 0.32867 0.0
C2163 C 0.0266 0.41561 0.34702 0.0
C2164 C 0.03438 0.44162 0.35289 0.0
C2165 C 0.01667 0.40782 0.3442 0.0
C2166 C 0.03719 0.49274 0.33381 0.0
C2167 C 0.04171 0.48054 0.3339 0.0
C2168 C 0.04967 0.45369 0.33562 0.0
C2169 C 0.03105 0.4242 0.33817 0.0
C2170 C 0.03812 0.43533 0.34207 0.0
C2171 C 0.04398 0.47431 0.34524 0.0
C2172 C 0.04449 0.46047 0.34555 0.0
H2173 H 0.01264 0.41645 0.31391 0.0
H2174 H 0.02956 0.43017 0.3189 0.0
H2175 H 0.04981 0.43652 0.32562 0.0
H2176 H 0.03667 0.49782 0.36505 0.0
H2177 H 0.04507 0.47672 0.36521 0.0
C2178 C 0.86908 0.79479 0.56506 0.0
C2179 C 0.87705 0.79029 0.55575 0.0
C2180 C 0.85964 0.80322 0.56206 0.0
C2181 C 0.83895 0.80214 0.53762 0.0
H2182 H 0.81965 0.82274 0.56003 0.0
C2183 C 0.79263 0.78444 0.55127 0.0
C2184 C 0.79256 0.78321 0.56425 0.0
C2185 C 0.80011 0.79347 0.54555 0.0
C2186 C 0.82485 0.81705 0.55353 0.0
H2187 H 0.88249 0.79205 0.53643 0.0
H2188 H 0.86565 0.80646 0.53106 0.0
H2189 H 0.84218 0.82495 0.55912 0.0
H2190 H 0.79867 0.79127 0.58148 0.0
H2191 H 0.81185 0.80657 0.57179 0.0
H2192 H 0.82215 0.79292 0.53334 0.0
C2193 C 0.86685 0.80375 0.5407 0.0
C2194 C 0.83776 0.81845 0.55292 0.0
C2195 C 0.87651 0.79553 0.54378 0.0
C2196 C 0.79879 0.79194 0.57143 0.0
C2197 C 0.80625 0.80089 0.56578 0.0
C2198 C 0.82612 0.80053 0.53846 0.0
C2199 C 0.85781 0.80693 0.54964 0.0
C2200 C 0.84499 0.81021 0.54579 0.0
C2201 C 0.80772 0.80123 0.55276 0.0
C2202 C 0.81911 0.8071 0.54739 0.0
H2203 H 0.86929 0.79076 0.57431 0.0
H2204 H 0.85279 0.80541 0.56916 0.0
H2205 H 0.84424 0.79571 0.53192 0.0
H2206 H 0.78777 0.7778 0.54558 0.0
H2207 H 0.80072 0.79366 0.5355 0.0
C2208 C 0.11456 0.95163 0.23016 0.0
C2209 C 0.10892 0.95164 0.21845 0.0
C2210 C 0.11944 0.94061 0.23511 0.0
C2211 C 0.133 0.91253 0.22127 0.0
H2212 H 0.14629 0.90868 0.25447 0.0
C2213 C 0.17745 0.88443 0.22914 0.0
C2214 C 0.1867 0.89165 0.23473 0.0
C2215 C 0.16496 0.888 0.22989 0.0
C2216 C 0.14255 0.90954 0.24518 0.0
H2217 H 0.10202 0.94003 0.2037 0.0
H2218 H 0.10969 0.92064 0.21275 0.0
H2219 H 0.12763 0.92134 0.25124 0.0
H2220 H 0.18993 0.90775 0.24631 0.0
H2221 H 0.16817 0.914 0.24751 0.0
H2222 H 0.14811 0.90111 0.21516 0.0
C2223 C 0.11106 0.92918 0.21781 0.0
C2224 C 0.13189 0.91682 0.2433 0.0
C2225 C 0.10651 0.94026 0.21269 0.0
C2226 C 0.18308 0.90205 0.24176 0.0
C2227 C 0.17058 0.90556 0.24259 0.0
C2228 C 0.1435 0.90513 0.22318 0.0
C2229 C 0.11853 0.92938 0.22852 0.0
C2230 C 0.12736 0.91895 0.23121 0.0
C2231 C 0.16144 0.89879 0.23634 0.0
C2232 C 0.14873 0.90404 0.23505 0.0
H2233 H 0.11656 0.96031 0.23478 0.0
H2234 H 0.12505 0.94126 0.24338 0.0
H2235 H 0.13003 0.91399 0.21178 0.0
H2236 H 0.17989 0.87629 0.22374 0.0
H2237 H 0.15809 0.88256 0.22505 0.0
C2238 C 0.37574 0.84721 0.52685 0.0
C2239 C 0.37013 0.85313 0.53708 0.0
C2240 C 0.36856 0.84006 0.51883 0.0
C2241 C 0.33561 0.83068 0.51219 0.0
H2242 H 0.34204 0.8495 0.48205 0.0
C2243 C 0.31079 0.85323 0.46535 0.0
C2244 C 0.29978 0.8573 0.47112 0.0
C2245 C 0.31946 0.84614 0.47193 0.0
C2246 C 0.3401 0.8438 0.49015 0.0
H2247 H 0.35333 0.85415 0.54831 0.0
H2248 H 0.34084 0.84206 0.53429 0.0
H2249 H 0.35818 0.84719 0.49716 0.0
H2250 H 0.28875 0.85647 0.488 0.0
H2251 H 0.3042 0.84478 0.49981 0.0
H2252 H 0.31718 0.82795 0.50532 0.0
C2253 C 0.35067 0.84293 0.53227 0.0
C2254 C 0.34949 0.84244 0.49891 0.0
C2255 C 0.35785 0.85 0.5403 0.0
C2256 C 0.29719 0.85343 0.48333 0.0
C2257 C 0.30604 0.84663 0.49007 0.0
C2258 C 0.32618 0.83197 0.50334 0.0
C2259 C 0.35569 0.83881 0.5209 0.0
C2260 C 0.34718 0.83646 0.51034 0.0
C2261 C 0.31755 0.84337 0.4846 0.0
C2262 C 0.32813 0.83912 0.49249 0.0
H2263 H 0.38526 0.8492 0.52423 0.0
H2264 H 0.3728 0.83665 0.51034 0.0
H2265 H 0.33359 0.82584 0.52082 0.0
H2266 H 0.31295 0.8559 0.45588 0.0
H2267 H 0.328 0.84345 0.46726 0.0
C2268 C 0.60697 0.63121 0.88319 0.0
C2269 C 0.61224 0.64274 0.88004 0.0
C2270 C 0.59518 0.62812 0.87885 0.0
C2271 C 0.58323 0.63292 0.84923 0.0
H2272 H 0.56017 0.6072 0.85905 0.0
C2273 C 0.58086 0.5928 0.8178 0.0
C2274 C 0.58102 0.58144 0.82421 0.0
C2275 C 0.57563 0.60336 0.82334 0.0
C2276 C 0.56666 0.61424 0.85604 0.0
H2277 H 0.60835 0.66092 0.872 0.0
H2278 H 0.58793 0.6554 0.86427 0.0
H2279 H 0.56836 0.62115 0.87464 0.0
H2280 H 0.57453 0.57172 0.84062 0.0
H2281 H 0.5665 0.58991 0.85072 0.0
H2282 H 0.58315 0.62542 0.83119 0.0
C2283 C 0.59291 0.64873 0.86999 0.0
C2284 C 0.57114 0.62242 0.86502 0.0
C2285 C 0.60465 0.65188 0.87445 0.0
C2286 C 0.5745 0.58042 0.83548 0.0
C2287 C 0.56988 0.59106 0.84132 0.0
C2288 C 0.57914 0.62453 0.84037 0.0
C2289 C 0.58858 0.63649 0.87123 0.0
C2290 C 0.58009 0.63132 0.8618 0.0
C2291 C 0.57139 0.60292 0.83581 0.0
C2292 C 0.57157 0.61437 0.84381 0.0
H2293 H 0.61251 0.62404 0.88766 0.0
H2294 H 0.59208 0.61862 0.88002 0.0
H2295 H 0.59011 0.6397 0.8464 0.0
H2296 H 0.58571 0.59375 0.80898 0.0
H2297 H 0.57611 0.61202 0.81822 0.0
C2298 C 0.79087 0.56209 0.86045 0.0
C2299 C 0.78727 0.55641 0.87169 0.0
C2300 C 0.79812 0.55556 0.85186 0.0
C2301 C 0.79432 0.52504 0.84259 0.0
H2302 H 0.81267 0.53617 0.81363 0.0
C2303 C 0.77019 0.51986 0.7982 0.0
C2304 C 0.77114 0.5305 0.79071 0.0
C2305 C 0.77979 0.51668 0.80635 0.0
C2306 C 0.80732 0.53294 0.82153 0.0
H2307 H 0.79032 0.54042 0.88372 0.0
H2308 H 0.8027 0.52893 0.86857 0.0
H2309 H 0.81712 0.54505 0.8338 0.0
H2310 H 0.78337 0.54518 0.78453 0.0
H2311 H 0.79944 0.54051 0.79916 0.0
H2312 H 0.78335 0.51427 0.83069 0.0
C2313 C 0.79994 0.5384 0.86639 0.0
C2314 C 0.81014 0.53788 0.83318 0.0
C2315 C 0.79283 0.54501 0.87508 0.0
C2316 C 0.7824 0.53694 0.7903 0.0
C2317 C 0.79171 0.53418 0.79887 0.0
C2318 C 0.79121 0.52045 0.83096 0.0
C2319 C 0.80169 0.54319 0.85433 0.0
C2320 C 0.80301 0.53463 0.84365 0.0
C2321 C 0.79005 0.52467 0.80785 0.0
C2322 C 0.79686 0.5252 0.82005 0.0
H2323 H 0.78686 0.57094 0.85767 0.0
H2324 H 0.79935 0.55954 0.84266 0.0
H2325 H 0.78869 0.52224 0.8505 0.0
H2326 H 0.76164 0.51459 0.79848 0.0
H2327 H 0.77846 0.50863 0.81225 0.0
C2328 C 0.81853 0.43972 0.03302 0.0
C2329 C 0.81345 0.43845 0.02113 0.0
C2330 C 0.82231 0.45131 0.03721 0.0
C2331 C 0.82611 0.4766 0.04695 0.0
H2332 H 0.79793 0.49691 0.03737 0.0
C2333 C 0.7967 0.49248 0.08527 0.0
C2334 C 0.78475 0.48789 0.083 0.0
C2335 C 0.80452 0.49567 0.07529 0.0
C2336 C 0.80586 0.49138 0.04024 0.0
H2337 H 0.81036 0.44788 0.00353 0.0
H2338 H 0.81732 0.46812 0.01071 0.0
H2339 H 0.80635 0.482 0.02289 0.0
H2340 H 0.77069 0.48557 0.06893 0.0
H2341 H 0.78406 0.49067 0.05176 0.0
H2342 H 0.82445 0.48452 0.0649 0.0
C2343 C 0.81793 0.46026 0.01701 0.0
C2344 C 0.81091 0.4829 0.03177 0.0
C2345 C 0.81406 0.4486 0.01283 0.0
C2346 C 0.78 0.48876 0.07092 0.0
C2347 C 0.7878 0.49179 0.06098 0.0
C2348 C 0.82074 0.4847 0.05558 0.0
C2349 C 0.82115 0.46195 0.02956 0.0
C2350 C 0.82024 0.47446 0.03553 0.0
C2351 C 0.80054 0.49407 0.06294 0.0
C2352 C 0.80966 0.49116 0.05274 0.0
H2353 H 0.81839 0.43202 0.03958 0.0
H2354 H 0.82475 0.452 0.04691 0.0
H2355 H 0.83388 0.47086 0.04989 0.0
H2356 H 0.80055 0.49216 0.09455 0.0
H2357 H 0.81406 0.49805 0.07726 0.0
C2358 C 0.84766 0.53938 0.35399 0.0
C2359 C 0.85159 0.53146 0.36364 0.0
C2360 C 0.83941 0.53515 0.34502 0.0
C2361 C 0.82204 0.50706 0.33436 0.0
H2362 H 0.8413 0.51303 0.30438 0.0
C2363 C 0.83681 0.46892 0.30195 0.0
C2364 C 0.8417 0.47171 0.29011 0.0
C2365 C 0.83111 0.47814 0.30907 0.0
C2366 C 0.83543 0.51142 0.31243 0.0
H2367 H 0.84891 0.51349 0.37237 0.0
H2368 H 0.83489 0.50588 0.35651 0.0
H2369 H 0.8435 0.52672 0.32174 0.0
H2370 H 0.84272 0.48589 0.27572 0.0
H2371 H 0.83245 0.50196 0.28806 0.0
H2372 H 0.81455 0.49123 0.32513 0.0
C2373 C 0.83794 0.51544 0.3559 0.0
C2374 C 0.83672 0.51935 0.32252 0.0
C2375 C 0.84603 0.51977 0.36501 0.0
C2376 C 0.8393 0.4835 0.28492 0.0
C2377 C 0.83346 0.49273 0.29203 0.0
C2378 C 0.82066 0.49914 0.32419 0.0
C2379 C 0.8352 0.52281 0.34538 0.0
C2380 C 0.83064 0.51683 0.33386 0.0
C2381 C 0.83004 0.49038 0.30449 0.0
C2382 C 0.82798 0.50076 0.31339 0.0
H2383 H 0.85168 0.54853 0.35284 0.0
H2384 H 0.83722 0.54118 0.33723 0.0
H2385 H 0.817 0.50503 0.34287 0.0
H2386 H 0.83821 0.45985 0.30616 0.0
H2387 H 0.82863 0.47587 0.31858 0.0
C2388 C 0.86387 0.58776 0.57754 0.0
C2389 C 0.85163 0.58909 0.57339 0.0
C2390 C 0.86627 0.58338 0.58949 0.0
C2391 C 0.84945 0.58676 0.61891 0.0
H2392 H 0.88358 0.5847 0.63006 0.0
C2393 C 0.86533 0.61591 0.65942 0.0
C2394 C 0.87132 0.6258 0.65329 0.0
C2395 C 0.86427 0.60438 0.65358 0.0
C2396 C 0.87392 0.58495 0.62727 0.0
H2397 H 0.83238 0.58504 0.57753 0.0
H2398 H 0.83653 0.57684 0.59838 0.0
H2399 H 0.87752 0.57403 0.61112 0.0
H2400 H 0.88186 0.63123 0.63699 0.0
H2401 H 0.88058 0.61092 0.62706 0.0
H2402 H 0.846 0.59797 0.63491 0.0
C2403 C 0.84432 0.57966 0.59263 0.0
C2404 C 0.87044 0.579 0.61632 0.0
C2405 C 0.84192 0.58418 0.58061 0.0
C2406 C 0.87734 0.62367 0.64191 0.0
C2407 C 0.87663 0.61206 0.63628 0.0
C2408 C 0.85283 0.59233 0.63005 0.0
C2409 C 0.85642 0.58026 0.5976 0.0
C2410 C 0.85848 0.58094 0.61133 0.0
C2411 C 0.86954 0.60253 0.64176 0.0
C2412 C 0.8653 0.59233 0.63374 0.0
H2413 H 0.87154 0.59131 0.57204 0.0
H2414 H 0.87576 0.58396 0.59269 0.0
H2415 H 0.8401 0.58844 0.61564 0.0
H2416 H 0.86047 0.61745 0.66813 0.0
H2417 H 0.8586 0.59722 0.65787 0.0
C2418 C 0.49173 0.08714 0.80501 0.0
C2419 C 0.48864 0.08493 0.79255 0.0
C2420 C 0.49425 0.07712 0.81303 0.0
C2421 C 0.49066 0.04198 0.81335 0.0
H2422 H 0.46642 0.05082 0.83855 0.0
C2423 C 0.44772 0.01391 0.81495 0.0
C2424 C 0.43762 0.02209 0.81328 0.0
C2425 C 0.45867 0.01811 0.82051 0.0
C2426 C 0.47318 0.0481 0.83155 0.0
H2427 H 0.48851 0.07104 0.77811 0.0
H2428 H 0.4925 0.0538 0.79177 0.0
H2429 H 0.48086 0.06623 0.83121 0.0
H2430 H 0.43022 0.04024 0.81799 0.0
H2431 H 0.44897 0.04759 0.82731 0.0
H2432 H 0.48169 0.02445 0.81233 0.0
C2433 C 0.49288 0.06299 0.79574 0.0
C2434 C 0.48172 0.05697 0.82743 0.0
C2435 C 0.49052 0.07297 0.78776 0.0
C2436 C 0.43796 0.03381 0.81891 0.0
C2437 C 0.44883 0.03799 0.82439 0.0
C2438 C 0.48177 0.03328 0.8171 0.0
C2439 C 0.49348 0.0648 0.80871 0.0
C2440 C 0.48965 0.05442 0.81725 0.0
C2441 C 0.45968 0.03056 0.82436 0.0
C2442 C 0.47207 0.03674 0.82527 0.0
H2443 H 0.49064 0.09633 0.80895 0.0
H2444 H 0.49537 0.079 0.82283 0.0
H2445 H 0.49725 0.03933 0.80618 0.0
H2446 H 0.44768 0.00474 0.81086 0.0
H2447 H 0.46664 0.01192 0.82075 0.0
C2448 C 0.95694 0.25274 0.30031 0.0
C2449 C 0.96557 0.25525 0.29083 0.0
C2450 C 0.94433 0.25556 0.29862 0.0
C2451 C 0.92238 0.27098 0.27604 0.0
H2452 H 0.90187 0.24259 0.28401 0.0
C2453 C 0.88406 0.25824 0.24269 0.0
C2454 C 0.88412 0.24554 0.23989 0.0
C2455 C 0.88969 0.26245 0.25356 0.0
C2456 C 0.90744 0.25062 0.28165 0.0
H2457 H 0.96826 0.26356 0.27268 0.0
H2458 H 0.94636 0.26785 0.26932 0.0
H2459 H 0.92114 0.24561 0.29502 0.0
H2460 H 0.88896 0.22715 0.24649 0.0
H2461 H 0.89957 0.23432 0.26484 0.0
H2462 H 0.90872 0.27608 0.26275 0.0
C2463 C 0.9491 0.26398 0.27821 0.0
C2464 C 0.91854 0.25237 0.28803 0.0
C2465 C 0.96166 0.26133 0.28 0.0
C2466 C 0.88904 0.23702 0.24843 0.0
C2467 C 0.89494 0.2412 0.2591 0.0
C2468 C 0.91119 0.26933 0.26979 0.0
C2469 C 0.9402 0.26094 0.28739 0.0
C2470 C 0.92673 0.26186 0.28438 0.0
C2471 C 0.89567 0.25402 0.2617 0.0
C2472 C 0.90428 0.2584 0.27157 0.0
H2473 H 0.95992 0.24847 0.30895 0.0
H2474 H 0.93783 0.25325 0.30599 0.0
H2475 H 0.92807 0.27891 0.27358 0.0
H2476 H 0.87988 0.2649 0.23635 0.0
H2477 H 0.88969 0.27234 0.25531 0.0
C2478 C 0.07577 0.68498 0.36833 0.0
C2479 C 0.08284 0.67866 0.3772 0.0
C2480 C 0.06553 0.69217 0.37197 0.0
C2481 C 0.05109 0.70551 0.40158 0.0
H2482 H 0.03244 0.72402 0.37702 0.0
C2483 C 0.02737 0.75167 0.41417 0.0
C2484 C 0.0191 0.75728 0.40587 0.0
C2485 C 0.03253 0.74004 0.41156 0.0
C2486 C 0.03721 0.7188 0.38418 0.0
H2487 H 0.08368 0.67285 0.39642 0.0
H2488 H 0.06558 0.68458 0.40284 0.0
H2489 H 0.04475 0.7068 0.37059 0.0
H2490 H 0.00801 0.75454 0.38946 0.0
H2491 H 0.01643 0.73397 0.38506 0.0
H2492 H 0.04241 0.71677 0.4153 0.0
C2493 C 0.0683 0.68524 0.3932 0.0
C2494 C 0.04477 0.7089 0.38037 0.0
C2495 C 0.07869 0.67828 0.38953 0.0
C2496 C 0.01487 0.75055 0.39567 0.0
C2497 C 0.01985 0.73879 0.39312 0.0
C2498 C 0.04304 0.71498 0.40545 0.0
C2499 C 0.0619 0.69295 0.38462 0.0
C2500 C 0.05228 0.70232 0.38891 0.0
C2501 C 0.02925 0.73358 0.40068 0.0
C2502 C 0.03631 0.72215 0.39679 0.0
H2503 H 0.07841 0.68473 0.3586 0.0
H2504 H 0.06106 0.6975 0.36475 0.0
H2505 H 0.05657 0.7011 0.40873 0.0
H2506 H 0.03023 0.75651 0.42247 0.0
H2507 H 0.0396 0.73661 0.4178 0.0
C2508 C 0.59379 0.79742 0.73907 0.0
C2509 C 0.58752 0.78688 0.73489 0.0
C2510 C 0.60186 0.8038 0.7311 0.0
C2511 C 0.60701 0.80854 0.69753 0.0
H2512 H 0.63602 0.82655 0.70838 0.0
C2513 C 0.63422 0.83929 0.66323 0.0
C2514 C 0.63863 0.85059 0.66776 0.0
C2515 C 0.62972 0.83025 0.67142 0.0
C2516 C 0.62786 0.82169 0.70521 0.0
H2517 H 0.58569 0.77382 0.71983 0.0
H2518 H 0.59982 0.7849 0.70583 0.0
H2519 H 0.62524 0.81284 0.72291 0.0
H2520 H 0.64262 0.86119 0.68422 0.0
H2521 H 0.63401 0.8458 0.69862 0.0
H2522 H 0.60947 0.8173 0.67993 0.0
C2523 C 0.5982 0.78856 0.71506 0.0
C2524 C 0.6217 0.8138 0.71355 0.0
C2525 C 0.59016 0.78219 0.72304 0.0
C2526 C 0.639 0.85258 0.68059 0.0
C2527 C 0.63423 0.84367 0.6888 0.0
C2528 C 0.61316 0.81639 0.68921 0.0
C2529 C 0.60387 0.79964 0.71886 0.0
C2530 C 0.61109 0.80727 0.70985 0.0
C2531 C 0.6294 0.83241 0.68432 0.0
C2532 C 0.62353 0.82327 0.69298 0.0
H2533 H 0.5922 0.80087 0.74839 0.0
H2534 H 0.60604 0.81231 0.73434 0.0
H2535 H 0.59878 0.8038 0.69437 0.0
H2536 H 0.63427 0.83746 0.65333 0.0
H2537 H 0.62643 0.8216 0.6676 0.0
C2538 C 0.55739 0.35233 0.98677 0.0
C2539 C 0.55365 0.35742 0.99813 0.0
C2540 C 0.56382 0.35953 0.97809 0.0
C2541 C 0.56698 0.39261 0.9697 0.0
H2542 H 0.58029 0.37674 0.94034 0.0
C2543 C 0.54498 0.4008 0.92374 0.0
C2544 C 0.55073 0.39737 0.91257 0.0
C2545 C 0.55141 0.39989 0.9349 0.0
C2546 C 0.57659 0.3814 0.94842 0.0
H2547 H 0.55509 0.3733 0.01022 0.0
H2548 H 0.56668 0.38597 0.9952 0.0
H2549 H 0.58169 0.36619 0.96023 0.0
H2550 H 0.56809 0.39192 0.90388 0.0
H2551 H 0.57954 0.39033 0.92347 0.0
H2552 H 0.56139 0.40757 0.95777 0.0
C2553 C 0.56416 0.37662 0.99264 0.0
C2554 C 0.57737 0.3753 0.95989 0.0
C2555 C 0.55746 0.36942 0.00124 0.0
C2556 C 0.56337 0.39409 0.91252 0.0
C2557 C 0.56991 0.3933 0.92372 0.0
C2558 C 0.56603 0.39861 0.9582 0.0
C2559 C 0.56704 0.37193 0.98073 0.0
C2560 C 0.5713 0.38026 0.9704 0.0
C2561 C 0.5639 0.39584 0.93512 0.0
C2562 C 0.56964 0.39244 0.94726 0.0
H2563 H 0.55477 0.34295 0.98434 0.0
H2564 H 0.56555 0.35552 0.96905 0.0
H2565 H 0.56306 0.39721 0.97772 0.0
H2566 H 0.53529 0.40363 0.92391 0.0
H2567 H 0.5463 0.4017 0.9434 0.0
C2568 C 0.26297 0.87346 0.23707 0.0
C2569 C 0.25065 0.87344 0.24167 0.0
C2570 C 0.2731 0.87407 0.24541 0.0
C2571 C 0.28277 0.89865 0.26726 0.0
H2572 H 0.2543 0.9262 0.24848 0.0
C2573 C 0.28837 0.95587 0.25389 0.0
C2574 C 0.27854 0.96414 0.25642 0.0
C2575 C 0.28685 0.94306 0.25569 0.0
C2576 C 0.26041 0.91919 0.25267 0.0
H2577 H 0.23985 0.86949 0.25833 0.0
H2578 H 0.25757 0.87117 0.27251 0.0
H2579 H 0.25865 0.90268 0.25237 0.0
H2580 H 0.25964 0.96576 0.26322 0.0
H2581 H 0.25671 0.94323 0.26567 0.0
H2582 H 0.29162 0.91875 0.27155 0.0
C2583 C 0.2594 0.8714 0.2626 0.0
C2584 C 0.25972 0.89612 0.25332 0.0
C2585 C 0.24906 0.87099 0.2545 0.0
C2586 C 0.26727 0.95949 0.26105 0.0
C2587 C 0.26563 0.94667 0.26251 0.0
C2588 C 0.28363 0.91471 0.26711 0.0
C2589 C 0.27078 0.87634 0.25818 0.0
C2590 C 0.27148 0.88982 0.26074 0.0
C2591 C 0.27542 0.93837 0.25987 0.0
C2592 C 0.27324 0.92487 0.26027 0.0
H2593 H 0.26472 0.87394 0.22715 0.0
H2594 H 0.28222 0.87598 0.24156 0.0
H2595 H 0.2904 0.8937 0.27158 0.0
H2596 H 0.29721 0.95932 0.2505 0.0
H2597 H 0.29444 0.9368 0.25339 0.0
C2598 C 0.38606 0.91518 0.57158 0.0
C2599 C 0.38973 0.91344 0.55917 0.0
C2600 C 0.38368 0.92721 0.57604 0.0
C2601 C 0.38706 0.96083 0.5672 0.0
H2602 H 0.35461 0.9643 0.58249 0.0
C2603 C 0.35883 0.00369 0.555 0.0
C2604 C 0.34607 0.00179 0.55359 0.0
C2605 C 0.36602 0.99525 0.56183 0.0
C2606 C 0.36362 0.9636 0.57803 0.0
H2607 H 0.39494 0.92268 0.54203 0.0
H2608 H 0.3905 0.94345 0.5495 0.0
H2609 H 0.36491 0.94426 0.58255 0.0
H2610 H 0.33047 0.99049 0.55911 0.0
H2611 H 0.34289 0.97505 0.56985 0.0
H2612 H 0.38577 0.97974 0.56197 0.0
C2613 C 0.38946 0.93575 0.55595 0.0
C2614 C 0.36965 0.95203 0.57829 0.0
C2615 C 0.39185 0.92382 0.55157 0.0
C2616 C 0.3404 0.9919 0.55985 0.0
C2617 C 0.34763 0.98314 0.56625 0.0
C2618 C 0.38104 0.97235 0.56687 0.0
C2619 C 0.38515 0.93763 0.56818 0.0
C2620 C 0.38095 0.95031 0.57191 0.0
C2621 C 0.36069 0.98439 0.56699 0.0
C2622 C 0.3687 0.97366 0.57125 0.0
H2623 H 0.38485 0.90726 0.57773 0.0
H2624 H 0.38047 0.92832 0.58554 0.0
H2625 H 0.39609 0.95997 0.56276 0.0
H2626 H 0.36328 0.01161 0.55062 0.0
H2627 H 0.37582 0.99716 0.56262 0.0
C2628 C 0.33432 0.11563 0.75965 0.0
C2629 C 0.32779 0.10626 0.76593 0.0
C2630 C 0.34672 0.11795 0.76254 0.0
C2631 C 0.37362 0.10202 0.7771 0.0
H2632 H 0.38919 0.13418 0.7728 0.0
C2633 C 0.42578 0.12305 0.76972 0.0
C2634 C 0.43214 0.11602 0.77868 0.0
C2635 C 0.41281 0.12273 0.7692 0.0
C2636 C 0.38497 0.12513 0.77397 0.0
H2637 H 0.32833 0.09299 0.78109 0.0
H2638 H 0.34994 0.09711 0.7864 0.0
H2639 H 0.36674 0.13235 0.77055 0.0
H2640 H 0.43015 0.10414 0.79487 0.0
H2641 H 0.40747 0.10356 0.79406 0.0
H2642 H 0.39174 0.09489 0.78084 0.0
C2643 C 0.34578 0.1023 0.77883 0.0
C2644 C 0.37211 0.12406 0.77265 0.0
C2645 C 0.3334 0.09997 0.77587 0.0
C2646 C 0.42539 0.10925 0.78758 0.0
C2647 C 0.41244 0.10896 0.78713 0.0
C2648 C 0.38642 0.10313 0.77859 0.0
C2649 C 0.35272 0.11105 0.77195 0.0
C2650 C 0.36628 0.11246 0.77407 0.0
C2651 C 0.406 0.11556 0.77783 0.0
C2652 C 0.39228 0.11464 0.77688 0.0
H2653 H 0.32993 0.12094 0.75227 0.0
H2654 H 0.35172 0.12474 0.75701 0.0
H2655 H 0.36956 0.09288 0.77802 0.0
H2656 H 0.43086 0.12854 0.76293 0.0
H2657 H 0.40814 0.12784 0.76187 0.0
C2658 C 0.19169 0.1371 0.01619 0.0
C2659 C 0.18991 0.12673 0.00867 0.0
C2660 C 0.18155 0.14292 0.02191 0.0
C2661 C 0.1473 0.1455 0.01731 0.0
H2662 H 0.15286 0.17339 0.03901 0.0
C2663 C 0.1268 0.1928 0.00601 0.0
C2664 C 0.12571 0.20201 0.01507 0.0
C2665 C 0.13146 0.18105 0.00913 0.0
C2666 C 0.15106 0.16568 0.0329 0.0
H2667 H 0.1767 0.113 0.0027 0.0
H2668 H 0.159 0.12259 0.01328 0.0
H2669 H 0.16738 0.15618 0.03903 0.0
H2670 H 0.12726 0.20598 0.03467 0.0
H2671 H 0.13508 0.18532 0.04031 0.0
H2672 H 0.13098 0.15509 0.01116 0.0
C2673 C 0.16799 0.12692 0.01415 0.0
C2674 C 0.15952 0.15577 0.03283 0.0
C2675 C 0.17812 0.12134 0.00808 0.0
C2676 C 0.12845 0.19907 0.02748 0.0
C2677 C 0.1329 0.18723 0.03067 0.0
C2678 C 0.1389 0.15546 0.01731 0.0
C2679 C 0.16941 0.1382 0.02063 0.0
C2680 C 0.15839 0.14609 0.02416 0.0
C2681 C 0.13474 0.17812 0.02149 0.0
C2682 C 0.14126 0.16614 0.02432 0.0
H2683 H 0.20081 0.14122 0.01697 0.0
H2684 H 0.18328 0.15159 0.02659 0.0
H2685 H 0.14549 0.13794 0.01105 0.0
H2686 H 0.12453 0.19486 0.99641 0.0
H2687 H 0.13297 0.17446 0.00169 0.0
C2688 C 0.12485 0.01388 0.17867 0.0
C2689 C 0.11511 0.00536 0.17812 0.0
C2690 C 0.12952 0.01932 0.16783 0.0
C2691 C 0.13245 0.01233 0.13465 0.0
H2692 H 0.15373 0.041 0.13698 0.0
C2693 C 0.18212 0.00896 0.11891 0.0
C2694 C 0.18976 0.01941 0.11845 0.0
C2695 C 0.1694 0.01029 0.12119 0.0
C2696 C 0.14792 0.03293 0.13604 0.0
H2697 H 0.10149 0.99692 0.1662 0.0
H2698 H 0.10956 0.00654 0.14704 0.0
H2699 H 0.13674 0.03854 0.15154 0.0
H2700 H 0.19014 0.0395 0.11819 0.0
H2701 H 0.1678 0.042 0.12161 0.0
H2702 H 0.14382 0.0065 0.11939 0.0
C2703 C 0.11393 0.00872 0.15579 0.0
C2704 C 0.13809 0.03153 0.14447 0.0
C2705 C 0.10934 0.00314 0.1667 0.0
C2706 C 0.18439 0.0313 0.11903 0.0
C2707 C 0.17158 0.03268 0.12098 0.0
C2708 C 0.14237 0.01365 0.1263 0.0
C2709 C 0.12433 0.01662 0.15617 0.0
C2710 C 0.13103 0.02058 0.14463 0.0
C2711 C 0.16393 0.02217 0.12262 0.0
C2712 C 0.151 0.02332 0.12773 0.0
H2713 H 0.12926 0.01589 0.18745 0.0
H2714 H 0.13767 0.0251 0.16861 0.0
H2715 H 0.12677 0.00413 0.13397 0.0
H2716 H 0.1861 0.99971 0.11821 0.0
H2717 H 0.16409 0.00189 0.12259 0.0
C2718 C 0.33369 0.91848 0.36972 0.0
C2719 C 0.33102 0.9294 0.37633 0.0
C2720 C 0.32455 0.90934 0.36841 0.0
C2721 C 0.29066 0.90341 0.37465 0.0
H2722 H 0.30317 0.87386 0.39113 0.0
C2723 C 0.27189 0.88939 0.42017 0.0
C2724 C 0.27465 0.87793 0.42573 0.0
C2725 C 0.27496 0.89159 0.40776 0.0
C2726 C 0.29937 0.88186 0.38631 0.0
H2727 H 0.31665 0.93987 0.38586 0.0
H2728 H 0.3007 0.92439 0.38317 0.0
H2729 H 0.31733 0.88687 0.37941 0.0
H2730 H 0.28119 0.85917 0.42248 0.0
H2731 H 0.28678 0.86299 0.40061 0.0
H2732 H 0.27295 0.89903 0.38259 0.0
C2733 C 0.30977 0.9226 0.37914 0.0
C2734 C 0.30755 0.88932 0.37943 0.0
C2735 C 0.31896 0.93145 0.38084 0.0
C2736 C 0.27931 0.86821 0.41838 0.0
C2737 C 0.28248 0.87042 0.40589 0.0
C2738 C 0.28253 0.89602 0.3816 0.0
C2739 C 0.31252 0.91121 0.37333 0.0
C2740 C 0.30349 0.90085 0.37469 0.0
C2741 C 0.28081 0.88232 0.40055 0.0
C2742 C 0.28715 0.88599 0.3887 0.0
H2743 H 0.34296 0.91676 0.36611 0.0
H2744 H 0.32697 0.90067 0.3639 0.0
H2745 H 0.28713 0.91194 0.37054 0.0
H2746 H 0.26793 0.8969 0.42561 0.0
H2747 H 0.27363 0.90094 0.4042 0.0
C2748 C 0.37714 0.07832 0.6827 0.0
C2749 C 0.38574 0.08648 0.67729 0.0
C2750 C 0.38124 0.06804 0.68958 0.0
C2751 C 0.40877 0.05803 0.70738 0.0
H2752 H 0.38968 0.02793 0.71194 0.0
C2753 C 0.42112 0.02435 0.74699 0.0
C2754 C 0.41112 0.01885 0.75329 0.0
C2755 C 0.41929 0.03023 0.73552 0.0
C2756 C 0.39508 0.03633 0.71092 0.0
H2757 H 0.4052 0.08968 0.67341 0.0
H2758 H 0.41249 0.07165 0.68534 0.0
H2759 H 0.38401 0.04257 0.6956 0.0
H2760 H 0.39164 0.01426 0.75238 0.0
H2761 H 0.38809 0.02534 0.73289 0.0
H2762 H 0.41979 0.05202 0.72258 0.0
C2763 C 0.40258 0.07339 0.68475 0.0
C2764 C 0.39182 0.04473 0.70148 0.0
C2765 C 0.39845 0.08368 0.67789 0.0
C2766 C 0.39942 0.01868 0.74771 0.0
C2767 C 0.39747 0.02489 0.73643 0.0
C2768 C 0.41204 0.04964 0.71675 0.0
C2769 C 0.39404 0.06566 0.69101 0.0
C2770 C 0.39841 0.05587 0.69984 0.0
C2771 C 0.40734 0.03098 0.73025 0.0
C2772 C 0.40497 0.03888 0.719 0.0
H2773 H 0.36725 0.0801 0.68191 0.0
H2774 H 0.37437 0.06237 0.69428 0.0
H2775 H 0.41406 0.06652 0.70649 0.0
H2776 H 0.43033 0.02419 0.751 0.0
H2777 H 0.42726 0.03436 0.73096 0.0
C2778 C 0.23563 0.24188 0.8926 0.0
C2779 C 0.24107 0.23054 0.88917 0.0
C2780 C 0.24242 0.25049 0.89944 0.0
C2781 C 0.26835 0.25134 0.92121 0.0
H2782 H 0.26198 0.2867 0.91972 0.0
C2783 C 0.27131 0.27742 0.96612 0.0
C2784 C 0.26266 0.28708 0.96755 0.0
C2785 C 0.27465 0.27333 0.95427 0.0
C2786 C 0.26374 0.27684 0.92057 0.0
H2787 H 0.25804 0.21965 0.88903 0.0
H2788 H 0.26999 0.23467 0.9009 0.0
H2789 H 0.25502 0.2736 0.90303 0.0
H2790 H 0.25295 0.30191 0.95806 0.0
H2791 H 0.25771 0.29442 0.93749 0.0
H2792 H 0.27595 0.25389 0.93895 0.0
C2793 C 0.26041 0.23684 0.89869 0.0
C2794 C 0.25981 0.26932 0.9108 0.0
C2795 C 0.25358 0.22821 0.89196 0.0
C2796 C 0.25885 0.29377 0.95707 0.0
C2797 C 0.2619 0.28952 0.94518 0.0
C2798 C 0.27185 0.25872 0.93117 0.0
C2799 C 0.25485 0.248 0.90271 0.0
C2800 C 0.26145 0.25638 0.91137 0.0
C2801 C 0.26909 0.27857 0.94355 0.0
C2802 C 0.2689 0.27154 0.93145 0.0
H2803 H 0.22602 0.24389 0.89036 0.0
H2804 H 0.23777 0.25888 0.90255 0.0
H2805 H 0.27023 0.24148 0.92176 0.0
H2806 H 0.27504 0.27262 0.97418 0.0
H2807 H 0.28114 0.26566 0.95374 0.0
C2808 C 0.77871 0.33429 0.09912 0.0
C2809 C 0.7695 0.32722 0.10503 0.0
C2810 C 0.78014 0.34683 0.10206 0.0
C2811 C 0.78507 0.37199 0.11345 0.0
H2812 H 0.75481 0.39112 0.11834 0.0
C2813 C 0.78416 0.42553 0.11037 0.0
C2814 C 0.77496 0.43205 0.11696 0.0
C2815 C 0.78433 0.41255 0.11048 0.0
C2816 C 0.76341 0.38595 0.11726 0.0
H2817 H 0.75537 0.32711 0.11942 0.0
H2818 H 0.75797 0.34896 0.12483 0.0
H2819 H 0.75373 0.3688 0.11654 0.0
H2820 H 0.75969 0.43042 0.13002 0.0
H2821 H 0.76013 0.40774 0.13059 0.0
H2822 H 0.79485 0.38914 0.11484 0.0
C2823 C 0.76376 0.34507 0.11754 0.0
C2824 C 0.76276 0.37308 0.11603 0.0
C2825 C 0.76225 0.33258 0.11447 0.0
C2826 C 0.76658 0.4255 0.12451 0.0
C2827 C 0.76681 0.41252 0.12475 0.0
C2828 C 0.78578 0.38486 0.115 0.0
C2829 C 0.77258 0.35242 0.11123 0.0
C2830 C 0.77352 0.36596 0.11376 0.0
C2831 C 0.77548 0.40585 0.11747 0.0
C2832 C 0.77493 0.39205 0.11671 0.0
H2833 H 0.78454 0.3302 0.09195 0.0
H2834 H 0.78692 0.35222 0.0969 0.0
H2835 H 0.7936 0.36676 0.11206 0.0
H2836 H 0.79105 0.43048 0.10491 0.0
H2837 H 0.79112 0.40783 0.1047 0.0
C2838 C 0.98479 0.55682 0.3484 0.0
C2839 C 0.99596 0.55307 0.35386 0.0
C2840 C 0.97591 0.56332 0.3553 0.0
C2841 C 0.96646 0.56677 0.38805 0.0
H2842 H 0.93787 0.58061 0.37124 0.0
C2843 C 0.91971 0.54592 0.39472 0.0
C2844 C 0.90875 0.55213 0.39138 0.0
C2845 C 0.93109 0.55199 0.39403 0.0
C2846 C 0.94574 0.57679 0.37615 0.0
H2847 H 0.00753 0.55449 0.37014 0.0
H2848 H 0.99216 0.5662 0.38227 0.0
H2849 H 0.95811 0.58151 0.36127 0.0
H2850 H 0.90069 0.56989 0.38624 0.0
H2851 H 0.92071 0.58067 0.38494 0.0
H2852 H 0.95393 0.56147 0.40263 0.0
C2853 C 0.98989 0.56365 0.37285 0.0
C2854 C 0.9574 0.57727 0.3704 0.0
C2855 C 0.99869 0.55689 0.36596 0.0
C2856 C 0.90916 0.56482 0.38835 0.0
C2857 C 0.92059 0.57098 0.38773 0.0
C2858 C 0.95475 0.56609 0.39369 0.0
C2859 C 0.97817 0.56659 0.36776 0.0
C2860 C 0.96763 0.57103 0.37571 0.0
C2861 C 0.93175 0.56454 0.39027 0.0
C2862 C 0.9441 0.56994 0.38719 0.0
H2863 H 0.98265 0.55417 0.33895 0.0
H2864 H 0.967 0.56508 0.351 0.0
H2865 H 0.97424 0.56271 0.39291 0.0
H2866 H 0.91954 0.53618 0.39734 0.0
H2867 H 0.93941 0.54657 0.39581 0.0
C2868 C 0.83178 0.68681 0.67686 0.0
C2869 C 0.83579 0.67648 0.66998 0.0
C2870 C 0.82252 0.69468 0.67215 0.0
C2871 C 0.79681 0.69662 0.65012 0.0
H2872 H 0.80741 0.73045 0.64412 0.0
C2873 C 0.77584 0.7255 0.61059 0.0
C2874 C 0.7777 0.73834 0.61011 0.0
C2875 C 0.78051 0.71852 0.62052 0.0
C2876 C 0.80403 0.72116 0.64586 0.0
H2877 H 0.83297 0.6658 0.65325 0.0
H2878 H 0.81664 0.67941 0.64512 0.0
H2879 H 0.82006 0.7168 0.65678 0.0
H2880 H 0.78443 0.75431 0.62003 0.0
H2881 H 0.79174 0.74239 0.63787 0.0
H2882 H 0.78081 0.70082 0.63927 0.0
C2883 C 0.82067 0.68148 0.65407 0.0
C2884 C 0.81138 0.71333 0.65318 0.0
C2885 C 0.83004 0.67377 0.65867 0.0
C2886 C 0.78326 0.74431 0.62013 0.0
C2887 C 0.78753 0.73741 0.6303 0.0
C2888 C 0.78936 0.7045 0.64293 0.0
C2889 C 0.81696 0.6921 0.66068 0.0
C2890 C 0.80805 0.70088 0.65498 0.0
C2891 C 0.78667 0.72433 0.63045 0.0
C2892 C 0.79317 0.71673 0.64015 0.0
H2893 H 0.83613 0.68904 0.68561 0.0
H2894 H 0.81981 0.70286 0.67735 0.0
H2895 H 0.79397 0.68708 0.65159 0.0
H2896 H 0.77138 0.7208 0.60296 0.0
H2897 H 0.77977 0.70852 0.61999 0.0
C2898 C 0.955 0.3765 0.30313 0.0
C2899 C 0.95243 0.38141 0.31491 0.0
C2900 C 0.94538 0.3748 0.29461 0.0
C2901 C 0.91052 0.37846 0.29143 0.0
H2902 H 0.92014 0.39401 0.26033 0.0
C2903 C 0.87737 0.4128 0.26845 0.0
C2904 C 0.88345 0.42413 0.2664 0.0
C2905 C 0.88429 0.4018 0.26995 0.0
C2906 C 0.91723 0.38955 0.26892 0.0
H2907 H 0.93793 0.38727 0.3276 0.0
H2908 H 0.92129 0.38514 0.31271 0.0
H2909 H 0.93564 0.38329 0.27269 0.0
H2910 H 0.9012 0.43284 0.26301 0.0
H2911 H 0.9133 0.41402 0.26611 0.0
H2912 H 0.89212 0.38481 0.28765 0.0
C2913 C 0.93053 0.38226 0.3099 0.0
C2914 C 0.92617 0.38341 0.27608 0.0
C2915 C 0.9401 0.38373 0.31842 0.0
C2916 C 0.89637 0.42421 0.26486 0.0
C2917 C 0.90327 0.41333 0.26643 0.0
C2918 C 0.90153 0.3844 0.28415 0.0
C2919 C 0.93304 0.37804 0.29774 0.0
C2920 C 0.92317 0.37911 0.28809 0.0
C2921 C 0.89738 0.402 0.26931 0.0
C2922 C 0.9051 0.39124 0.27356 0.0
H2923 H 0.96446 0.37418 0.30045 0.0
H2924 H 0.94771 0.3713 0.28547 0.0
H2925 H 0.90768 0.37442 0.30024 0.0
H2926 H 0.86733 0.4125 0.26916 0.0
H2927 H 0.87942 0.39325 0.27201 0.0
C2928 C 0.73396 0.58768 0.79451 0.0
C2929 C 0.72902 0.5806 0.78488 0.0
C2930 C 0.72666 0.59671 0.80036 0.0
C2931 C 0.69372 0.60362 0.8065 0.0
H2932 H 0.70681 0.63368 0.82092 0.0
C2933 C 0.66282 0.63517 0.83678 0.0
C2934 C 0.66835 0.64068 0.84709 0.0
C2935 C 0.67014 0.62916 0.82788 0.0
C2936 C 0.70304 0.62523 0.81712 0.0
H2937 H 0.71329 0.57811 0.77278 0.0
H2938 H 0.70036 0.59385 0.78306 0.0
H2939 H 0.71991 0.62123 0.80722 0.0
H2940 H 0.68569 0.64497 0.85605 0.0
H2941 H 0.69856 0.63381 0.84095 0.0
H2942 H 0.67703 0.60728 0.81659 0.0
C2943 C 0.70972 0.59224 0.78637 0.0
C2944 C 0.71055 0.61812 0.8092 0.0
C2945 C 0.71707 0.58326 0.78049 0.0
C2946 C 0.68129 0.64053 0.84823 0.0
C2947 C 0.68863 0.63428 0.83948 0.0
C2948 C 0.68628 0.61061 0.81452 0.0
C2949 C 0.71432 0.59884 0.7966 0.0
C2950 C 0.70603 0.60712 0.80396 0.0
C2951 C 0.68314 0.62847 0.82919 0.0
C2952 C 0.69088 0.62142 0.82009 0.0
H2953 H 0.74336 0.58601 0.79771 0.0
H2954 H 0.7305 0.60157 0.80822 0.0
H2955 H 0.68991 0.59521 0.80264 0.0
H2956 H 0.65283 0.63557 0.83557 0.0
H2957 H 0.66557 0.62511 0.81996 0.0
C2958 C 0.53634 0.83683 0.64392 0.0
C2959 C 0.54258 0.84174 0.63355 0.0
C2960 C 0.53484 0.84395 0.65465 0.0
C2961 C 0.5294 0.86188 0.67558 0.0
H2962 H 0.55883 0.88035 0.68436 0.0
C2963 C 0.55173 0.89274 0.71834 0.0
C2964 C 0.54782 0.8853 0.72832 0.0
C2965 C 0.54907 0.88928 0.70616 0.0
C2966 C 0.55038 0.8755 0.68203 0.0
H2967 H 0.55078 0.85825 0.62549 0.0
H2968 H 0.54796 0.87088 0.64412 0.0
H2969 H 0.5571 0.87175 0.66381 0.0
H2970 H 0.53689 0.86934 0.73374 0.0
H2971 H 0.53278 0.86282 0.71253 0.0
H2972 H 0.52248 0.866 0.69378 0.0
C2973 C 0.54471 0.86137 0.64426 0.0
C2974 C 0.54946 0.87041 0.67021 0.0
C2975 C 0.54637 0.85417 0.63361 0.0
C2976 C 0.54044 0.87489 0.72608 0.0
C2977 C 0.53787 0.87133 0.71393 0.0
C2978 C 0.53018 0.86721 0.68736 0.0
C2979 C 0.53926 0.85623 0.65504 0.0
C2980 C 0.53919 0.86317 0.66696 0.0
C2981 C 0.54239 0.87834 0.70378 0.0
C2982 C 0.54083 0.87382 0.69085 0.0
H2983 H 0.53312 0.82731 0.64392 0.0
H2984 H 0.53071 0.83962 0.66278 0.0
H2985 H 0.52118 0.85664 0.67328 0.0
H2986 H 0.55708 0.90107 0.71994 0.0
H2987 H 0.55237 0.89513 0.69862 0.0
C2988 C 0.38357 0.32032 0.94436 0.0
C2989 C 0.38177 0.31645 0.95666 0.0
C2990 C 0.38245 0.31188 0.93466 0.0
C2991 C 0.38542 0.27813 0.92972 0.0
H2992 H 0.38596 0.29028 0.89585 0.0
C2993 C 0.42611 0.26869 0.89891 0.0
C2994 C 0.42563 0.27026 0.886 0.0
C2995 C 0.41537 0.26993 0.90611 0.0
C2996 C 0.38583 0.28665 0.90522 0.0
H2997 H 0.37579 0.30135 0.96857 0.0
H2998 H 0.37343 0.28652 0.95162 0.0
H2999 H 0.37521 0.30218 0.91171 0.0
H3000 H 0.4135 0.27272 0.87022 0.0
H3001 H 0.39451 0.27494 0.88282 0.0
H3002 H 0.39661 0.26294 0.92331 0.0
C3003 C 0.3763 0.29589 0.94938 0.0
C3004 C 0.37968 0.29353 0.91438 0.0
C3005 C 0.37769 0.30434 0.95912 0.0
C3006 C 0.41409 0.272 0.88024 0.0
C3007 C 0.40324 0.27314 0.88745 0.0
C3008 C 0.39177 0.27138 0.9206 0.0
C3009 C 0.37909 0.29942 0.93702 0.0
C3010 C 0.38058 0.29 0.92697 0.0
C3011 C 0.40381 0.27246 0.90052 0.0
C3012 C 0.3931 0.27627 0.90852 0.0
H3013 H 0.38648 0.32974 0.94229 0.0
H3014 H 0.38497 0.31504 0.92542 0.0
H3015 H 0.38553 0.27456 0.93911 0.0
H3016 H 0.43492 0.26708 0.9035 0.0
H3017 H 0.41632 0.26958 0.91611 0.0
C3018 C 0.00348 0.17007 0.11687 0.0
C3019 C 0.00509 0.18138 0.12302 0.0
C3020 C 0.00961 0.15933 0.12108 0.0
C3021 C 0.03253 0.14832 0.14528 0.0
H3022 H 0.00807 0.1225 0.15014 0.0
C3023 C 0.00933 0.12286 0.18852 0.0
C3024 C 0.01965 0.12157 0.19625 0.0
C3025 C 0.01094 0.12533 0.17589 0.0
C3026 C 0.01509 0.12957 0.14886 0.0
H3027 H 0.01514 0.19081 0.13746 0.0
H3028 H 0.02527 0.17219 0.14529 0.0
H3029 H 0.00585 0.13706 0.13304 0.0
H3030 H 0.0397 0.12026 0.19687 0.0
H3031 H 0.04265 0.12434 0.17464 0.0
H3032 H 0.04177 0.14085 0.16112 0.0
C3033 C 0.01956 0.17139 0.13709 0.0
C3034 C 0.01382 0.13795 0.13898 0.0
C3035 C 0.01358 0.18208 0.13277 0.0
C3036 C 0.03163 0.12172 0.19106 0.0
C3037 C 0.03328 0.12399 0.17833 0.0
C3038 C 0.03392 0.13981 0.15504 0.0
C3039 C 0.01744 0.15978 0.13152 0.0
C3040 C 0.02176 0.14823 0.13795 0.0
C3041 C 0.02295 0.12619 0.17062 0.0
C3042 C 0.02445 0.13125 0.15775 0.0
H3043 H 0.9973 0.1695 0.10898 0.0
H3044 H 0.0079 0.15064 0.1164 0.0
H3045 H 0.03933 0.15563 0.14423 0.0
H3046 H 0.0 0.12252 0.19237 0.0
H3047 H 0.00271 0.12724 0.17045 0.0
C3048 C 0.11781 0.78438 0.42516 0.0
C3049 C 0.1212 0.77356 0.43161 0.0
C3050 C 0.11733 0.78444 0.41222 0.0
C3051 C 0.12347 0.76411 0.38417 0.0
H3052 H 0.10145 0.7884 0.36917 0.0
C3053 C 0.09629 0.77493 0.33453 0.0
C3054 C 0.10423 0.7681 0.32679 0.0
C3055 C 0.09907 0.77622 0.34712 0.0
C3056 C 0.10743 0.78131 0.3731 0.0
H3057 H 0.1276 0.75459 0.42989 0.0
H3058 H 0.12555 0.75408 0.40746 0.0
H3059 H 0.10445 0.78861 0.39112 0.0
H3060 H 0.12187 0.7585 0.32543 0.0
H3061 H 0.12741 0.76166 0.34697 0.0
H3062 H 0.12519 0.75584 0.36639 0.0
C3063 C 0.12372 0.7628 0.41206 0.0
C3064 C 0.1095 0.78167 0.38588 0.0
C3065 C 0.12473 0.76296 0.425 0.0
C3066 C 0.11545 0.76345 0.33145 0.0
C3067 C 0.1185 0.76517 0.34388 0.0
C3068 C 0.12093 0.76338 0.37149 0.0
C3069 C 0.11976 0.7735 0.40542 0.0
C3070 C 0.11766 0.77314 0.39166 0.0
C3071 C 0.11019 0.77124 0.35207 0.0
C3072 C 0.11294 0.77204 0.36568 0.0
H3073 H 0.11548 0.79281 0.43016 0.0
H3074 H 0.11492 0.7931 0.40768 0.0
H3075 H 0.13004 0.75748 0.38796 0.0
H3076 H 0.08768 0.77877 0.33097 0.0
H3077 H 0.0922 0.78075 0.35293 0.0
C3078 C 0.71315 0.55562 0.89 0.0
C3079 C 0.72393 0.55018 0.88502 0.0
C3080 C 0.7015 0.55252 0.8853 0.0
C3081 C 0.68709 0.53936 0.85732 0.0
H3082 H 0.6576 0.53833 0.87813 0.0
C3083 C 0.63963 0.53317 0.83487 0.0
C3084 C 0.63008 0.54075 0.83953 0.0
C3085 C 0.6506 0.53158 0.84158 0.0
C3086 C 0.66571 0.53874 0.87214 0.0
H3087 H 0.73114 0.53647 0.87218 0.0
H3088 H 0.71081 0.53085 0.86408 0.0
H3089 H 0.67786 0.54126 0.8876 0.0
H3090 H 0.62355 0.55113 0.85546 0.0
H3091 H 0.64286 0.54902 0.86694 0.0
H3092 H 0.67511 0.53755 0.84181 0.0
C3093 C 0.71129 0.53787 0.87122 0.0
C3094 C 0.67734 0.5404 0.87759 0.0
C3095 C 0.72291 0.54108 0.87582 0.0
C3096 C 0.63109 0.54571 0.85148 0.0
C3097 C 0.64209 0.54426 0.85815 0.0
C3098 C 0.67549 0.53798 0.85185 0.0
C3099 C 0.70044 0.54368 0.87577 0.0
C3100 C 0.68815 0.54095 0.87021 0.0
C3101 C 0.65219 0.53756 0.85308 0.0
C3102 C 0.6646 0.5378 0.85915 0.0
H3103 H 0.71379 0.56249 0.89728 0.0
H3104 H 0.69336 0.55728 0.88893 0.0
H3105 H 0.69518 0.53961 0.85132 0.0
H3106 H 0.63879 0.52886 0.82585 0.0
H3107 H 0.65793 0.52592 0.83758 0.0
C3108 C 0.68489 0.36847 0.07246 0.0
C3109 C 0.67883 0.37668 0.08056 0.0
C3110 C 0.69193 0.37305 0.06252 0.0
C3111 C 0.70922 0.40131 0.05418 0.0
H3112 H 0.71623 0.383 0.02403 0.0
C3113 C 0.7499 0.41571 0.02265 0.0
C3114 C 0.75686 0.40609 0.01725 0.0
C3115 C 0.7384 0.41325 0.02817 0.0
C3116 C 0.71452 0.38816 0.03247 0.0
H3117 H 0.67396 0.39589 0.08398 0.0
H3118 H 0.68623 0.40403 0.06655 0.0
H3119 H 0.69909 0.37664 0.03742 0.0
H3120 H 0.75718 0.3866 0.01257 0.0
H3121 H 0.73753 0.38197 0.02302 0.0
H3122 H 0.72472 0.4126 0.04959 0.0
C3123 C 0.68597 0.39407 0.06806 0.0
C3124 C 0.70462 0.38453 0.04014 0.0
C3125 C 0.67893 0.38945 0.078 0.0
C3126 C 0.75198 0.39408 0.01691 0.0
C3127 C 0.74063 0.39151 0.02275 0.0
C3128 C 0.71915 0.40487 0.0466 0.0
C3129 C 0.6929 0.38595 0.06044 0.0
C3130 C 0.70209 0.39085 0.05128 0.0
C3131 C 0.73373 0.40104 0.02861 0.0
C3132 C 0.7222 0.39813 0.03582 0.0
H3133 H 0.68452 0.35852 0.07408 0.0
H3134 H 0.69715 0.36649 0.05692 0.0
H3135 H 0.70759 0.40644 0.06266 0.0
H3136 H 0.7534 0.42513 0.02262 0.0
H3137 H 0.73328 0.42093 0.0322 0.0
C3138 C 0.88368 0.72877 0.53141 0.0
C3139 C 0.89225 0.72843 0.54117 0.0
C3140 C 0.8799 0.71779 0.52577 0.0
C3141 C 0.88823 0.6847 0.52144 0.0
H3142 H 0.85263 0.68001 0.52094 0.0
C3143 C 0.84744 0.6444 0.5197 0.0
C3144 C 0.8546 0.63511 0.52539 0.0
C3145 C 0.85291 0.65563 0.51615 0.0
C3146 C 0.86261 0.68104 0.52051 0.0
H3147 H 0.90434 0.71663 0.55214 0.0
H3148 H 0.89762 0.69727 0.5424 0.0
H3149 H 0.86081 0.70019 0.52521 0.0
H3150 H 0.87327 0.62902 0.52961 0.0
H3151 H 0.88276 0.64871 0.5245 0.0
H3152 H 0.89016 0.66574 0.51616 0.0
C3153 C 0.89377 0.70602 0.53913 0.0
C3154 C 0.8673 0.69274 0.52324 0.0
C3155 C 0.89751 0.71703 0.54479 0.0
C3156 C 0.86749 0.63646 0.52595 0.0
C3157 C 0.87295 0.64776 0.52269 0.0
C3158 C 0.88355 0.67306 0.51826 0.0
C3159 C 0.88484 0.70629 0.52963 0.0
C3160 C 0.88012 0.69453 0.5244 0.0
C3161 C 0.8656 0.65785 0.51849 0.0
C3162 C 0.87064 0.67082 0.51847 0.0
H3163 H 0.8799 0.73755 0.52814 0.0
H3164 H 0.87311 0.7183 0.5184 0.0
H3165 H 0.8982 0.68594 0.52187 0.0
H3166 H 0.83751 0.64324 0.51859 0.0
H3167 H 0.84698 0.66272 0.51212 0.0
C3168 C 0.99919 0.24504 0.24888 0.0
C3169 C 0.0005 0.23457 0.25664 0.0
C3170 C 0.99892 0.24367 0.23593 0.0
C3171 C 0.99119 0.21933 0.21317 0.0
H3172 H 0.00137 0.24389 0.18868 0.0
C3173 C 0.97517 0.2151 0.16291 0.0
C3174 C 0.98397 0.2173 0.15346 0.0
C3175 C 0.97753 0.2186 0.17514 0.0
C3176 C 0.99855 0.2369 0.1954 0.0
H3177 H 0.00366 0.21468 0.25704 0.0
H3178 H 0.00389 0.21235 0.23455 0.0
H3179 H 0.00646 0.24689 0.21058 0.0
H3180 H 0.00194 0.2254 0.14935 0.0
H3181 H 0.00622 0.23126 0.17079 0.0
H3182 H 0.98361 0.20913 0.19812 0.0
C3183 C 0.00252 0.22155 0.23836 0.0
C3184 C 0.00138 0.23867 0.20797 0.0
C3185 C 0.00254 0.22289 0.25125 0.0
C3186 C 0.99494 0.22364 0.15641 0.0
C3187 C 0.99739 0.22701 0.16872 0.0
C3188 C 0.98845 0.21752 0.20067 0.0
C3189 C 0.00011 0.23182 0.23053 0.0
C3190 C 0.99771 0.2299 0.21703 0.0
C3191 C 0.98885 0.2242 0.17829 0.0
C3192 C 0.99197 0.22632 0.1916 0.0
H3193 H 0.99745 0.25413 0.25284 0.0
H3194 H 0.997 0.25179 0.23024 0.0
H3195 H 0.98796 0.21247 0.21983 0.0
H3196 H 0.96656 0.21038 0.16093 0.0
H3197 H 0.97057 0.21662 0.18218 0.0
C3198 C 0.05884 0.77612 0.29931 0.0
C3199 C 0.06052 0.76319 0.29863 0.0
C3200 C 0.04785 0.78112 0.3042 0.0
C3201 C 0.02411 0.77073 0.32686 0.0
H3202 H 0.01668 0.80605 0.32683 0.0
C3203 C 0.00247 0.79162 0.36961 0.0
C3204 C 0.01179 0.79888 0.375 0.0
C3205 C 0.00267 0.78935 0.35682 0.0
C3206 C 0.01844 0.79612 0.32679 0.0
H3207 H 0.05137 0.74543 0.30073 0.0
H3208 H 0.03183 0.75415 0.30836 0.0
H3209 H 0.02743 0.79685 0.30902 0.0
H3210 H 0.02744 0.81089 0.37113 0.0
H3211 H 0.02755 0.80723 0.34881 0.0
H3212 H 0.0154 0.77009 0.34473 0.0
C3213 C 0.03924 0.76047 0.30588 0.0
C3214 C 0.02474 0.79084 0.31666 0.0
C3215 C 0.05039 0.75544 0.30133 0.0
C3216 C 0.02016 0.80525 0.36721 0.0
C3217 C 0.0202 0.80316 0.35441 0.0
C3218 C 0.01758 0.77595 0.33679 0.0
C3219 C 0.03816 0.77331 0.30826 0.0
C3220 C 0.02834 0.7782 0.3169 0.0
C3221 C 0.01201 0.79452 0.34925 0.0
C3222 C 0.01526 0.7888 0.33716 0.0
H3223 H 0.06648 0.78236 0.29734 0.0
H3224 H 0.04756 0.79103 0.30583 0.0
H3225 H 0.02674 0.76104 0.32763 0.0
H3226 H 0.99596 0.78653 0.37539 0.0
H3227 H 0.99623 0.78268 0.35304 0.0
C3228 C 0.53281 0.76973 0.71731 0.0
C3229 C 0.544 0.76591 0.72276 0.0
C3230 C 0.53067 0.76753 0.7047 0.0
C3231 C 0.54698 0.75583 0.67548 0.0
H3232 H 0.53191 0.78573 0.66192 0.0
C3233 C 0.54357 0.78777 0.62796 0.0
C3234 C 0.55567 0.79268 0.62775 0.0
C3235 C 0.54001 0.77937 0.63725 0.0
C3236 C 0.53593 0.77718 0.6655 0.0
H3237 H 0.5613 0.75598 0.7197 0.0
H3238 H 0.55814 0.75297 0.69778 0.0
H3239 H 0.52844 0.78047 0.68343 0.0
H3240 H 0.57392 0.79138 0.63611 0.0
H3241 H 0.56773 0.77645 0.65216 0.0
H3242 H 0.55567 0.75364 0.65756 0.0
C3243 C 0.55063 0.75716 0.70305 0.0
C3244 C 0.53388 0.77404 0.67792 0.0
C3245 C 0.55251 0.7589 0.71574 0.0
C3246 C 0.56452 0.78784 0.63607 0.0
C3247 C 0.561 0.77924 0.64521 0.0
C3248 C 0.54936 0.75923 0.66311 0.0
C3249 C 0.54 0.7621 0.69716 0.0
C3250 C 0.53977 0.76358 0.6833 0.0
C3251 C 0.54856 0.7755 0.64629 0.0
C3252 C 0.54412 0.77014 0.65816 0.0
H3253 H 0.52607 0.7751 0.72259 0.0
H3254 H 0.52207 0.77093 0.70075 0.0
H3255 H 0.55135 0.74745 0.67903 0.0
H3256 H 0.5365 0.79129 0.6217 0.0
H3257 H 0.53036 0.77662 0.63795 0.0
C3258 C 0.52012 0.31869 0.98048 0.0
C3259 C 0.5126 0.32621 0.98809 0.0
C3260 C 0.51526 0.31342 0.96969 0.0
C3261 C 0.50193 0.29993 0.94885 0.0
H3262 H 0.4774 0.32032 0.93193 0.0
C3263 C 0.47524 0.28289 0.90561 0.0
C3264 C 0.47124 0.29174 0.89683 0.0
C3265 C 0.48109 0.28662 0.91654 0.0
C3266 C 0.48439 0.31456 0.93638 0.0
H3267 H 0.49399 0.33342 0.99097 0.0
H3268 H 0.4853 0.32367 0.97267 0.0
H3269 H 0.48584 0.32724 0.95143 0.0
H3270 H 0.47087 0.31139 0.89225 0.0
H3271 H 0.48157 0.31787 0.91094 0.0
H3272 H 0.50089 0.28757 0.93339 0.0
C3273 C 0.49507 0.32225 0.9746 0.0
C3274 C 0.48906 0.31842 0.94777 0.0
C3275 C 0.49999 0.32771 0.98519 0.0
C3276 C 0.47373 0.30435 0.89891 0.0
C3277 C 0.47977 0.30806 0.90971 0.0
C3278 C 0.49737 0.29615 0.93732 0.0
C3279 C 0.50274 0.31542 0.96643 0.0
C3280 C 0.49781 0.31112 0.95425 0.0
C3281 C 0.48324 0.29929 0.91884 0.0
C3282 C 0.48849 0.3034 0.93094 0.0
H3283 H 0.52993 0.31753 0.98244 0.0
H3284 H 0.5215 0.30832 0.96362 0.0
H3285 H 0.50859 0.29401 0.95357 0.0
H3286 H 0.47336 0.2731 0.90432 0.0
H3287 H 0.48346 0.27957 0.92337 0.0
C3288 C 0.10665 0.73037 0.4669 0.0
C3289 C 0.11496 0.73974 0.47043 0.0
C3290 C 0.11112 0.71863 0.46354 0.0
C3291 C 0.13663 0.71012 0.44535 0.0
H3292 H 0.12342 0.67674 0.44641 0.0
C3293 C 0.14004 0.68172 0.40154 0.0
C3294 C 0.12928 0.67509 0.39871 0.0
C3295 C 0.14234 0.68532 0.41378 0.0
C3296 C 0.12717 0.68604 0.44588 0.0
H3297 H 0.13415 0.74338 0.47533 0.0
H3298 H 0.14189 0.72301 0.46921 0.0
H3299 H 0.11873 0.6911 0.46332 0.0
H3300 H 0.11286 0.66635 0.40636 0.0
H3301 H 0.11618 0.67336 0.42733 0.0
H3302 H 0.14377 0.70599 0.42746 0.0
C3303 C 0.13197 0.7248 0.46895 0.0
C3304 C 0.12461 0.69417 0.4557 0.0
C3305 C 0.12749 0.73649 0.47245 0.0
C3306 C 0.12133 0.67133 0.40838 0.0
C3307 C 0.12331 0.67538 0.4205 0.0
C3308 C 0.13885 0.70218 0.43539 0.0
C3309 C 0.12395 0.71611 0.46364 0.0
C3310 C 0.129 0.70641 0.4553 0.0
C3311 C 0.13352 0.68301 0.42329 0.0
C3312 C 0.13372 0.69016 0.43521 0.0
H3313 H 0.09691 0.73249 0.46543 0.0
H3314 H 0.10474 0.71207 0.45948 0.0
H3315 H 0.13999 0.71958 0.4447 0.0
H3316 H 0.14632 0.68467 0.3942 0.0
H3317 H 0.15063 0.69063 0.41555 0.0
C3318 C 0.63158 0.91228 0.66815 0.0
C3319 C 0.64009 0.90236 0.66798 0.0
C3320 C 0.62895 0.91848 0.67926 0.0
C3321 C 0.63513 0.91673 0.71397 0.0
H3322 H 0.59925 0.9199 0.71502 0.0
C3323 C 0.60228 0.89577 0.75002 0.0
C3324 C 0.59078 0.90163 0.75232 0.0
C3325 C 0.61125 0.90156 0.74258 0.0
C3326 C 0.60931 0.91939 0.71495 0.0
H3327 H 0.65336 0.89185 0.6789 0.0
H3328 H 0.6483 0.90193 0.69829 0.0
H3329 H 0.6098 0.92009 0.69527 0.0
H3330 H 0.58037 0.91884 0.75003 0.0
H3331 H 0.59598 0.92884 0.7369 0.0
H3332 H 0.63418 0.9146 0.73383 0.0
C3333 C 0.64389 0.90543 0.68996 0.0
C3334 C 0.61547 0.91955 0.70351 0.0
C3335 C 0.64684 0.89958 0.67876 0.0
C3336 C 0.58911 0.91403 0.7484 0.0
C3337 C 0.59802 0.91976 0.74083 0.0
C3338 C 0.62889 0.91627 0.72544 0.0
C3339 C 0.63432 0.91443 0.69053 0.0
C3340 C 0.62843 0.91763 0.70277 0.0
C3341 C 0.60883 0.91327 0.73723 0.0
C3342 C 0.61587 0.91711 0.72597 0.0
H3343 H 0.6263 0.91464 0.65991 0.0
H3344 H 0.62196 0.92576 0.67914 0.0
H3345 H 0.64513 0.91565 0.7139 0.0
H3346 H 0.6039 0.88626 0.75301 0.0
H3347 H 0.61948 0.89632 0.73996 0.0
C3348 C 0.41712 0.35853 0.95288 0.0
C3349 C 0.42076 0.35165 0.9634 0.0
C3350 C 0.42607 0.36419 0.94525 0.0
C3351 C 0.45802 0.3756 0.94388 0.0
H3352 H 0.45884 0.36367 0.90992 0.0
C3353 C 0.49525 0.39087 0.90772 0.0
C3354 C 0.50193 0.38079 0.9027 0.0
C3355 C 0.48422 0.38888 0.9144 0.0
C3356 C 0.45864 0.36717 0.91934 0.0
H3357 H 0.43646 0.34582 0.97458 0.0
H3358 H 0.45202 0.3561 0.96152 0.0
H3359 H 0.44142 0.35811 0.92363 0.0
H3360 H 0.50204 0.36078 0.9003 0.0
H3361 H 0.4826 0.35737 0.91166 0.0
H3362 H 0.47534 0.3845 0.93966 0.0
C3363 C 0.4423 0.357 0.95909 0.0
C3364 C 0.44866 0.36407 0.92714 0.0
C3365 C 0.43341 0.3511 0.96654 0.0
C3366 C 0.49711 0.36874 0.90408 0.0
C3367 C 0.48597 0.36678 0.91052 0.0
C3368 C 0.46787 0.37891 0.93601 0.0
C3369 C 0.43875 0.36332 0.94821 0.0
C3370 C 0.4484 0.36804 0.93955 0.0
C3371 C 0.47954 0.37681 0.91593 0.0
C3372 C 0.4684 0.3745 0.92376 0.0
H3373 H 0.40744 0.35896 0.95018 0.0
H3374 H 0.42312 0.36902 0.9369 0.0
H3375 H 0.45802 0.37875 0.95343 0.0
H3376 H 0.49877 0.40026 0.90689 0.0
H3377 H 0.47941 0.39676 0.91848 0.0
C3378 C 0.91357 0.20622 0.20144 0.0
C3379 C 0.90328 0.20751 0.20943 0.0
C3380 C 0.92249 0.197 0.20359 0.0
C3381 C 0.9444 0.1853 0.21614 0.0
H3382 H 0.93904 0.15231 0.22978 0.0
C3383 C 0.98555 0.15726 0.23444 0.0
C3384 C 0.98637 0.14474 0.23088 0.0
C3385 C 0.97446 0.16391 0.23307 0.0
C3386 C 0.94068 0.16148 0.22592 0.0
H3387 H 0.89389 0.19977 0.22554 0.0
H3388 H 0.90969 0.18376 0.22952 0.0
H3389 H 0.92118 0.16512 0.22358 0.0
H3390 H 0.976 0.12917 0.22373 0.0
H3391 H 0.95662 0.14088 0.22106 0.0
H3392 H 0.96379 0.1817 0.21809 0.0
C3393 C 0.91074 0.18974 0.22144 0.0
C3394 C 0.93045 0.16886 0.22245 0.0
C3395 C 0.90167 0.19888 0.21916 0.0
C3396 C 0.97563 0.1388 0.22662 0.0
C3397 C 0.96452 0.14552 0.22509 0.0
C3398 C 0.95456 0.17797 0.21954 0.0
C3399 C 0.92151 0.18901 0.21394 0.0
C3400 C 0.9322 0.18085 0.21747 0.0
C3401 C 0.96394 0.15827 0.22791 0.0
C3402 C 0.95288 0.16599 0.22453 0.0
H3403 H 0.91498 0.2127 0.19381 0.0
H3404 H 0.93045 0.19648 0.19738 0.0
H3405 H 0.94615 0.19458 0.21258 0.0
H3406 H 0.99363 0.16206 0.2379 0.0
H3407 H 0.97426 0.17361 0.2357 0.0
C3408 C 0.14899 0.99933 0.22135 0.0
C3409 C 0.14702 0.98869 0.2141 0.0
C3410 C 0.16098 0.00252 0.2251 0.0
C3411 C 0.1938 0.99714 0.21611 0.0
H3412 H 0.20121 0.01108 0.24835 0.0
C3413 C 0.24355 0.01032 0.22692 0.0
C3414 C 0.24804 0.00603 0.23839 0.0
C3415 C 0.23079 0.01107 0.22478 0.0
C3416 C 0.19929 0.00719 0.23931 0.0
H3417 H 0.15608 0.97275 0.20563 0.0
H3418 H 0.17685 0.97811 0.21239 0.0
H3419 H 0.17982 0.00555 0.24333 0.0
H3420 H 0.2428 1e-05 0.25693 0.0
H3421 H 0.22048 0.00094 0.25312 0.0
H3422 H 0.2132 0.99816 0.2122 0.0
C3423 C 0.16919 0.98421 0.2149 0.0
C3424 C 0.18701 0.00411 0.2364 0.0
C3425 C 0.15725 0.98107 0.21109 0.0
C3426 C 0.23956 0.00349 0.24804 0.0
C3427 C 0.22675 0.004 0.24582 0.0
C3428 C 0.20602 0.00013 0.21903 0.0
C3429 C 0.17126 0.99511 0.22171 0.0
C3430 C 0.18416 0.99888 0.22481 0.0
C3431 C 0.22224 0.00723 0.23396 0.0
C3432 C 0.20898 0.00512 0.23069 0.0
H3433 H 0.14133 0.00545 0.2238 0.0
H3434 H 0.16224 0.01101 0.23027 0.0
H3435 H 0.19194 0.99337 0.20701 0.0
H3436 H 0.24992 0.0124 0.21936 0.0
H3437 H 0.22765 0.01401 0.21567 0.0
C3438 C 0.30139 0.9923 0.50787 0.0
C3439 C 0.30393 0.99643 0.51991 0.0
C3440 C 0.29318 0.98252 0.50604 0.0
C3441 C 0.28694 0.95385 0.52105 0.0
H3442 H 0.26547 0.94857 0.49279 0.0
C3443 C 0.28874 0.91163 0.48947 0.0
C3444 C 0.27766 0.90657 0.48499 0.0
C3445 C 0.28842 0.92189 0.49732 0.0
C3446 C 0.27121 0.94991 0.50091 0.0
H3447 H 0.29935 0.99426 0.53943 0.0
H3448 H 0.2852 0.97679 0.53626 0.0
H3449 H 0.26994 0.96977 0.49947 0.0
H3450 H 0.25755 0.90789 0.4856 0.0
H3451 H 0.25703 0.92619 0.49908 0.0
H3452 H 0.2891 0.93404 0.52179 0.0
C3453 C 0.28938 0.9813 0.52824 0.0
C3454 C 0.27379 0.96202 0.50469 0.0
C3455 C 0.29739 0.99131 0.53004 0.0
C3456 C 0.26623 0.91156 0.48902 0.0
C3457 C 0.26592 0.92203 0.49666 0.0
C3458 C 0.28452 0.94176 0.51715 0.0
C3459 C 0.28761 0.97651 0.51626 0.0
C3460 C 0.28208 0.9641 0.51448 0.0
C3461 C 0.27703 0.92744 0.50064 0.0
C3462 C 0.27703 0.93972 0.50674 0.0
H3463 H 0.30641 0.99608 0.49995 0.0
H3464 H 0.2921 0.97894 0.49672 0.0
H3465 H 0.29347 0.95519 0.52854 0.0
H3466 H 0.29768 0.90796 0.4865 0.0
H3467 H 0.29713 0.92597 0.50014 0.0
C3468 C 0.30864 0.05205 0.7557 0.0
C3469 C 0.30254 0.06209 0.76147 0.0
C3470 C 0.31359 0.04233 0.76284 0.0
C3471 C 0.32968 0.04173 0.79121 0.0
H3472 H 0.33564 0.00691 0.78427 0.0
C3473 C 0.37594 0.02121 0.8053 0.0
C3474 C 0.38159 0.01382 0.79617 0.0
C3475 C 0.36307 0.02313 0.80528 0.0
C3476 C 0.33417 0.01665 0.78632 0.0
H3477 H 0.29532 0.0689 0.77907 0.0
H3478 H 0.30416 0.05205 0.79148 0.0
H3479 H 0.31756 0.01744 0.77532 0.0
H3480 H 0.37829 0.00197 0.78039 0.0
H3481 H 0.35616 0.00591 0.77972 0.0
H3482 H 0.34675 0.04164 0.80093 0.0
C3483 C 0.30513 0.05173 0.78146 0.0
C3484 C 0.3237 0.02261 0.78129 0.0
C3485 C 0.30003 0.06136 0.77431 0.0
C3486 C 0.37411 0.00758 0.78764 0.0
C3487 C 0.36132 0.00987 0.7873 0.0
C3488 C 0.34026 0.03591 0.79594 0.0
C3489 C 0.3126 0.04256 0.77586 0.0
C3490 C 0.3216 0.03531 0.78339 0.0
C3491 C 0.35568 0.01822 0.79571 0.0
C3492 C 0.34298 0.02339 0.79317 0.0
H3493 H 0.31063 0.05227 0.74581 0.0
H3494 H 0.31933 0.03538 0.75827 0.0
H3495 H 0.32841 0.0516 0.79283 0.0
H3496 H 0.38155 0.02608 0.812 0.0
H3497 H 0.35909 0.02916 0.81228 0.0
C3498 C 0.25177 0.24918 0.00293 0.0
C3499 C 0.24104 0.25647 0.00465 0.0
C3500 C 0.25098 0.23617 0.00291 0.0
C3501 C 0.2471 0.20794 0.00484 0.0
H3502 H 0.21737 0.19787 0.98752 0.0
C3503 C 0.23293 0.15635 0.99643 0.0
C3504 C 0.22633 0.15381 0.98549 0.0
C3505 C 0.23633 0.16856 0.99927 0.0
C3506 C 0.2258 0.2005 0.99224 0.0
H3507 H 0.22138 0.25607 0.00893 0.0
H3508 H 0.22008 0.23347 0.00968 0.0
H3509 H 0.22001 0.21944 0.99296 0.0
H3510 H 0.21913 0.1619 0.96848 0.0
H3511 H 0.22541 0.18301 0.9732 0.0
H3512 H 0.253 0.18886 0.00364 0.0
C3513 C 0.22903 0.23767 0.00782 0.0
C3514 C 0.22722 0.21289 0.99561 0.0
C3515 C 0.22978 0.25062 0.00758 0.0
C3516 C 0.22407 0.16356 0.97704 0.0
C3517 C 0.22758 0.17569 0.97981 0.0
C3518 C 0.24569 0.19546 0.00141 0.0
C3519 C 0.23945 0.23029 0.00475 0.0
C3520 C 0.23787 0.21682 0.00195 0.0
C3521 C 0.23329 0.17844 0.99119 0.0
C3522 C 0.23506 0.19162 0.99495 0.0
H3523 H 0.26052 0.2535 0.00044 0.0
H3524 H 0.25919 0.23081 0.00049 0.0
H3525 H 0.25541 0.21062 0.00974 0.0
H3526 H 0.23475 0.14906 0.00318 0.0
H3527 H 0.2407 0.17032 0.00812 0.0
C3528 C 0.22224 0.982 0.15348 0.0
C3529 C 0.22286 0.98418 0.14059 0.0
C3530 C 0.22176 0.96991 0.15822 0.0
C3531 C 0.22725 0.93671 0.15086 0.0
H3532 H 0.20498 0.93216 0.17895 0.0
C3533 C 0.23022 0.89573 0.18576 0.0
C3534 C 0.21971 0.89316 0.19312 0.0
C3535 C 0.22958 0.90472 0.1763 0.0
C3536 C 0.21106 0.9331 0.17094 0.0
H3537 H 0.22386 0.9752 0.1226 0.0
H3538 H 0.22288 0.95402 0.13093 0.0
H3539 H 0.20626 0.95228 0.16894 0.0
H3540 H 0.20001 0.89657 0.19536 0.0
H3541 H 0.19862 0.91147 0.17827 0.0
H3542 H 0.23197 0.91739 0.15289 0.0
C3543 C 0.22287 0.96173 0.13735 0.0
C3544 C 0.21197 0.94478 0.16534 0.0
C3545 C 0.2234 0.97388 0.13258 0.0
C3546 C 0.20823 0.89837 0.18977 0.0
C3547 C 0.20752 0.90711 0.18014 0.0
C3548 C 0.2263 0.92493 0.15646 0.0
C3549 C 0.22178 0.95962 0.15023 0.0
C3550 C 0.22028 0.94684 0.15542 0.0
C3551 C 0.21836 0.9111 0.17393 0.0
C3552 C 0.21832 0.92302 0.16672 0.0
H3553 H 0.22193 0.98967 0.15997 0.0
H3554 H 0.22125 0.96864 0.16821 0.0
H3555 H 0.23374 0.93798 0.14322 0.0
H3556 H 0.23918 0.89177 0.18813 0.0
H3557 H 0.23813 0.90744 0.1717 0.0
C3558 C 0.35645 0.94326 0.42452 0.0
C3559 C 0.36348 0.93953 0.41417 0.0
C3560 C 0.35832 0.93771 0.43608 0.0
C3561 C 0.38049 0.91797 0.45394 0.0
H3562 H 0.35186 0.91461 0.47575 0.0
C3563 C 0.38621 0.90514 0.50555 0.0
C3564 C 0.3768 0.89844 0.51166 0.0
C3565 C 0.38454 0.90942 0.4934 0.0
C3566 C 0.35995 0.91525 0.46976 0.0
H3567 H 0.37805 0.92723 0.40763 0.0
H3568 H 0.38122 0.91717 0.42787 0.0
H3569 H 0.34914 0.92281 0.45493 0.0
H3570 H 0.35837 0.89074 0.50981 0.0
H3571 H 0.35565 0.89764 0.48836 0.0
H3572 H 0.39119 0.90975 0.4685 0.0
C3573 C 0.37443 0.92461 0.42716 0.0
C3574 C 0.35842 0.92021 0.45784 0.0
C3575 C 0.37266 0.93035 0.41557 0.0
C3576 C 0.36573 0.89599 0.50534 0.0
C3577 C 0.36416 0.90002 0.49306 0.0
C3578 C 0.38198 0.91276 0.46578 0.0
C3579 C 0.36716 0.92812 0.43754 0.0
C3580 C 0.36871 0.92192 0.44987 0.0
C3581 C 0.37353 0.90686 0.48693 0.0
C3582 C 0.37178 0.91156 0.47396 0.0
H3583 H 0.34935 0.9504 0.42362 0.0
H3584 H 0.35278 0.94095 0.44386 0.0
H3585 H 0.38865 0.91917 0.44813 0.0
H3586 H 0.39479 0.90729 0.51027 0.0
H3587 H 0.39185 0.91493 0.4892 0.0
C3588 C 0.47219 0.10744 0.73412 0.0
C3589 C 0.47072 0.11549 0.74423 0.0
C3590 C 0.4698 0.11165 0.72203 0.0
C3591 C 0.45678 0.13961 0.70446 0.0
H3592 H 0.43772 0.11369 0.68879 0.0
C3593 C 0.4068 0.14132 0.68689 0.0
C3594 C 0.40385 0.13438 0.67631 0.0
C3595 C 0.41916 0.14247 0.6906 0.0
C3596 C 0.44323 0.12102 0.69282 0.0
H3597 H 0.46675 0.1345 0.74957 0.0
H3598 H 0.46176 0.14159 0.72893 0.0
H3599 H 0.45288 0.10812 0.70422 0.0
H3600 H 0.41163 0.12453 0.66048 0.0
H3601 H 0.43313 0.12624 0.66721 0.0
H3602 H 0.44568 0.15253 0.6939 0.0
C3603 C 0.46517 0.13217 0.72995 0.0
C3604 C 0.45206 0.11784 0.70172 0.0
C3605 C 0.46802 0.12807 0.74194 0.0
C3606 C 0.41357 0.12996 0.66868 0.0
C3607 C 0.42591 0.1309 0.67252 0.0
C3608 C 0.44762 0.14281 0.6958 0.0
C3609 C 0.46528 0.12382 0.7199 0.0
C3610 C 0.45858 0.1271 0.70815 0.0
C3611 C 0.42871 0.13654 0.68388 0.0
C3612 C 0.44048 0.13353 0.69026 0.0
H3613 H 0.47443 0.09772 0.73563 0.0
H3614 H 0.47063 0.10505 0.71452 0.0
H3615 H 0.46189 0.14703 0.70878 0.0
H3616 H 0.39951 0.14487 0.69292 0.0
H3617 H 0.42108 0.14681 0.69944 0.0
C3618 C 0.14718 0.24037 0.9704 0.0
C3619 C 0.13519 0.23676 0.97416 0.0
C3620 C 0.15103 0.23909 0.95806 0.0
C3621 C 0.14544 0.21911 0.93149 0.0
H3622 H 0.17026 0.2403 0.91611 0.0
C3623 C 0.186 0.20084 0.90247 0.0
C3624 C 0.1915 0.20833 0.89325 0.0
C3625 C 0.17556 0.20499 0.90902 0.0
C3626 C 0.16313 0.23438 0.92007 0.0
H3627 H 0.11758 0.22964 0.96767 0.0
H3628 H 0.12435 0.22739 0.94604 0.0
H3629 H 0.15855 0.24773 0.93407 0.0
H3630 H 0.18983 0.22565 0.88298 0.0
H3631 H 0.17149 0.23297 0.89449 0.0
H3632 H 0.15037 0.20558 0.91775 0.0
C3633 C 0.13079 0.23114 0.95272 0.0
C3634 C 0.15652 0.23859 0.93047 0.0
C3635 C 0.12689 0.23251 0.9651 0.0
C3636 C 0.18572 0.21963 0.88998 0.0
C3637 C 0.17531 0.22388 0.89666 0.0
C3638 C 0.15207 0.21489 0.92108 0.0
C3639 C 0.14302 0.23411 0.94913 0.0
C3640 C 0.14797 0.23081 0.93661 0.0
C3641 C 0.17043 0.21681 0.90659 0.0
C3642 C 0.16136 0.22228 0.91557 0.0
H3643 H 0.15381 0.24373 0.97711 0.0
H3644 H 0.16056 0.24134 0.95569 0.0
H3645 H 0.13896 0.21285 0.93599 0.0
H3646 H 0.19026 0.19208 0.90518 0.0
H3647 H 0.17214 0.19933 0.91666 0.0
C3648 C 0.79476 0.37249 0.00558 0.0
C3649 C 0.80251 0.3806 0.01204 0.0
C3650 C 0.79535 0.3597 0.00786 0.0
C3651 C 0.79593 0.33264 0.015 0.0
H3652 H 0.8018 0.32798 0.05022 0.0
C3653 C 0.78409 0.29918 0.06028 0.0
C3654 C 0.77111 0.30093 0.06037 0.0
C3655 C 0.79136 0.30437 0.0508 0.0
C3656 C 0.80039 0.32894 0.04029 0.0
H3657 H 0.81806 0.38175 0.02458 0.0
H3658 H 0.82001 0.35936 0.02763 0.0
H3659 H 0.80922 0.34649 0.04006 0.0
H3660 H 0.7555 0.30777 0.04959 0.0
H3661 H 0.76819 0.31669 0.03302 0.0
H3662 H 0.78578 0.31551 0.01589 0.0
C3663 C 0.81286 0.3628 0.02145 0.0
C3664 C 0.80472 0.33963 0.03435 0.0
C3665 C 0.81194 0.37565 0.01955 0.0
C3666 C 0.76548 0.30639 0.04989 0.0
C3667 C 0.77275 0.31146 0.04034 0.0
C3668 C 0.79129 0.32206 0.02107 0.0
C3669 C 0.80395 0.35473 0.01642 0.0
C3670 C 0.80211 0.34195 0.02173 0.0
C3671 C 0.78578 0.31121 0.04115 0.0
C3672 C 0.79312 0.32035 0.03387 0.0
H3673 H 0.7873 0.37611 -0.00015 0.0
H3674 H 0.78825 0.35399 0.00376 0.0
H3675 H 0.79405 0.3338 0.0052 0.0
H3676 H 0.78876 0.29495 0.06815 0.0
H3677 H 0.8014 0.30397 0.05157 0.0
C3678 C 0.89879 0.47168 0.29973 0.0
C3679 C 0.89652 0.4694 0.28711 0.0
C3680 C 0.90966 0.47761 0.3034 0.0
C3681 C 0.9369 0.49568 0.2915 0.0
H3682 H 0.95148 0.48382 0.32224 0.0
C3683 C 0.98468 0.49904 0.32313 0.0
C3684 C 0.98708 0.5118 0.32206 0.0
C3685 C 0.97433 0.49389 0.31742 0.0
C3686 C 0.9477 0.48714 0.31352 0.0
H3687 H 0.90382 0.47173 0.26841 0.0
H3688 H 0.923 0.48168 0.27481 0.0
H3689 H 0.93213 0.47508 0.31527 0.0
H3690 H 0.98083 0.52917 0.31389 0.0
H3691 H 0.96242 0.5203 0.30425 0.0
H3692 H 0.95284 0.50737 0.28953 0.0
C3693 C 0.91625 0.4792 0.28189 0.0
C3694 C 0.93639 0.48228 0.30963 0.0
C3695 C 0.90525 0.47344 0.27821 0.0
C3696 C 0.97925 0.51926 0.3147 0.0
C3697 C 0.9687 0.51415 0.30919 0.0
C3698 C 0.94834 0.50044 0.29532 0.0
C3699 C 0.91869 0.4812 0.29456 0.0
C3700 C 0.93077 0.48651 0.29861 0.0
C3701 C 0.9659 0.50145 0.3108 0.0
C3702 C 0.9539 0.49623 0.30639 0.0
H3703 H 0.89218 0.4688 0.30681 0.0
H3704 H 0.91102 0.47928 0.31321 0.0
H3705 H 0.93282 0.49928 0.28303 0.0
H3706 H 0.99064 0.4931 0.32871 0.0
H3707 H 0.97275 0.48402 0.31854 0.0
C3708 C 0.80557 0.63291 0.54779 0.0
C3709 C 0.81394 0.63052 0.55753 0.0
C3710 C 0.79754 0.64319 0.5483 0.0
C3711 C 0.80035 0.67396 0.56054 0.0
H3712 H 0.76717 0.68043 0.54804 0.0
C3713 C 0.76765 0.71835 0.56251 0.0
C3714 C 0.77678 0.72706 0.55911 0.0
C3715 C 0.76935 0.70575 0.55973 0.0
C3716 C 0.77646 0.6787 0.55149 0.0
H3717 H 0.81907 0.63582 0.57621 0.0
H3718 H 0.80497 0.65359 0.57716 0.0
H3719 H 0.77458 0.65882 0.55053 0.0
H3720 H 0.79368 0.72983 0.54843 0.0
H3721 H 0.79649 0.70795 0.54335 0.0
H3722 H 0.80241 0.69363 0.56147 0.0
C3723 C 0.80485 0.64774 0.569 0.0
C3724 C 0.78066 0.66639 0.55295 0.0
C3725 C 0.81289 0.63753 0.56847 0.0
C3726 C 0.78658 0.72329 0.55128 0.0
C3727 C 0.78823 0.71076 0.54845 0.0
C3728 C 0.79625 0.68614 0.55893 0.0
C3729 C 0.79774 0.65115 0.55859 0.0
C3730 C 0.79264 0.66394 0.55758 0.0
C3731 C 0.78013 0.70179 0.55343 0.0
C3732 C 0.78431 0.68867 0.55434 0.0
H3733 H 0.80611 0.62768 0.53923 0.0
H3734 H 0.79212 0.64558 0.54017 0.0
H3735 H 0.80971 0.67239 0.56389 0.0
H3736 H 0.76002 0.72097 0.56859 0.0
H3737 H 0.76295 0.69902 0.56365 0.0
C3738 C 0.94934 0.41882 0.35468 0.0
C3739 C 0.95999 0.42191 0.34772 0.0
C3740 C 0.94171 0.4282 0.35959 0.0
C3741 C 0.94046 0.46059 0.36925 0.0
H3742 H 0.90679 0.46137 0.35652 0.0
C3743 C 0.90379 0.49755 0.38372 0.0
C3744 C 0.89891 0.50433 0.37361 0.0
C3745 C 0.91064 0.48665 0.38173 0.0
C3746 C 0.91613 0.4612 0.36021 0.0
H3747 H 0.97139 0.43708 0.34098 0.0
H3748 H 0.95833 0.45344 0.35001 0.0
H3749 H 0.92047 0.44367 0.35176 0.0
H3750 H 0.89702 0.50473 0.35356 0.0
H3751 H 0.9087 0.48543 0.35015 0.0
H3752 H 0.93616 0.47815 0.37763 0.0
C3753 C 0.9558 0.44381 0.35151 0.0
C3754 C 0.92391 0.45107 0.35756 0.0
C3755 C 0.96325 0.43447 0.34634 0.0
C3756 C 0.90066 0.49972 0.36152 0.0
C3757 C 0.90729 0.48867 0.35957 0.0
C3758 C 0.9326 0.47059 0.37211 0.0
C3759 C 0.9448 0.44077 0.35789 0.0
C3760 C 0.9362 0.45078 0.36189 0.0
C3761 C 0.91252 0.48216 0.36964 0.0
C3762 C 0.92044 0.47107 0.36744 0.0
H3763 H 0.94654 0.40921 0.35572 0.0
H3764 H 0.93326 0.42567 0.36449 0.0
H3765 H 0.94992 0.46058 0.37264 0.0
H3766 H 0.90269 0.50091 0.39313 0.0
H3767 H 0.91456 0.48176 0.38964 0.0
C3768 C 0.74218 0.59324 0.91175 0.0
C3769 C 0.75012 0.59334 0.90135 0.0
C3770 C 0.73584 0.60404 0.91529 0.0
C3771 C 0.72455 0.63234 0.89926 0.0
H3772 H 0.70503 0.63512 0.92955 0.0
C3773 C 0.67904 0.65766 0.89685 0.0
C3774 C 0.66972 0.64871 0.89864 0.0
C3775 C 0.69085 0.6558 0.90191 0.0
C3776 C 0.71056 0.63464 0.92111 0.0
H3777 H 0.75903 0.60507 0.88758 0.0
H3778 H 0.74878 0.62416 0.89435 0.0
H3779 H 0.72413 0.6227 0.92952 0.0
H3780 H 0.6648 0.63197 0.90882 0.0
H3781 H 0.68531 0.62882 0.91773 0.0
H3782 H 0.71084 0.64395 0.89078 0.0
C3783 C 0.7468 0.61563 0.89935 0.0
C3784 C 0.72145 0.62741 0.92103 0.0
C3785 C 0.75284 0.60473 0.89555 0.0
C3786 C 0.67184 0.63896 0.90715 0.0
C3787 C 0.6836 0.63717 0.91231 0.0
C3788 C 0.71386 0.63974 0.89943 0.0
C3789 C 0.73753 0.61526 0.90867 0.0
C3790 C 0.72821 0.62558 0.9099 0.0
C3791 C 0.69345 0.64507 0.90897 0.0
C3792 C 0.70641 0.64045 0.91016 0.0
H3793 H 0.73983 0.58456 0.91634 0.0
H3794 H 0.72881 0.60321 0.92248 0.0
H3795 H 0.72925 0.63116 0.89042 0.0
H3796 H 0.67771 0.66533 0.8904 0.0
H3797 H 0.69825 0.66212 0.89933 0.0
C3798 C 0.73487 0.46469 0.12576 0.0
C3799 C 0.7375 0.46766 0.11331 0.0
C3800 C 0.72297 0.46092 0.1293 0.0
C3801 C 0.69664 0.44577 0.11349 0.0
H3802 H 0.68803 0.43792 0.14769 0.0
C3803 C 0.66673 0.40418 0.12359 0.0
C3804 C 0.67496 0.39506 0.12821 0.0
C3805 C 0.66947 0.41679 0.12483 0.0
C3806 C 0.69014 0.44024 0.1381 0.0
H3807 H 0.72945 0.47095 0.09521 0.0
H3808 H 0.70838 0.46557 0.10158 0.0
H3809 H 0.70156 0.45554 0.14315 0.0
H3810 H 0.69149 0.39199 0.13925 0.0
H3811 H 0.69606 0.41402 0.14169 0.0
H3812 H 0.68526 0.43041 0.10852 0.0
C3813 C 0.71563 0.46521 0.1085 0.0
C3814 C 0.69804 0.45023 0.13545 0.0
C3815 C 0.72767 0.46852 0.10484 0.0
C3816 C 0.68501 0.3988 0.13555 0.0
C3817 C 0.6876 0.41142 0.13699 0.0
C3818 C 0.68847 0.43609 0.11612 0.0
C3819 C 0.71333 0.46036 0.12051 0.0
C3820 C 0.70206 0.45263 0.12315 0.0
C3821 C 0.6803 0.42046 0.13096 0.0
C3822 C 0.68568 0.43283 0.12846 0.0
H3823 H 0.74229 0.4639 0.13249 0.0
H3824 H 0.7218 0.45733 0.13864 0.0
H3825 H 0.69945 0.44702 0.1039 0.0
H3826 H 0.65892 0.40163 0.11786 0.0
H3827 H 0.66373 0.42361 0.12008 0.0
C3828 C 0.88544 0.67772 0.64964 0.0
C3829 C 0.88471 0.67818 0.66266 0.0
C3830 C 0.89045 0.68761 0.64291 0.0
C3831 C 0.90933 0.71302 0.6384 0.0
H3832 H 0.8807 0.72976 0.62412 0.0
C3833 C 0.90997 0.74108 0.5925 0.0
C3834 C 0.90058 0.74999 0.59057 0.0
C3835 C 0.91084 0.73486 0.60395 0.0
C3836 C 0.88884 0.72548 0.62823 0.0
H3837 H 0.88944 0.68883 0.67895 0.0
H3838 H 0.89834 0.70631 0.66702 0.0
H3839 H 0.87766 0.71318 0.63922 0.0
H3840 H 0.88574 0.76047 0.59934 0.0
H3841 H 0.88765 0.75014 0.61947 0.0
H3842 H 0.92055 0.72501 0.62696 0.0
C3843 C 0.89507 0.6982 0.66213 0.0
C3844 C 0.88706 0.71592 0.63683 0.0
C3845 C 0.89004 0.68823 0.66892 0.0
C3846 C 0.89302 0.75359 0.60061 0.0
C3847 C 0.89405 0.74756 0.61209 0.0
C3848 C 0.91115 0.72265 0.62972 0.0
C3849 C 0.89489 0.69809 0.64908 0.0
C3850 C 0.89725 0.70945 0.64176 0.0
C3851 C 0.90242 0.73757 0.61365 0.0
C3852 C 0.9009 0.72881 0.62433 0.0
H3853 H 0.8814 0.67006 0.64462 0.0
H3854 H 0.89015 0.68741 0.63285 0.0
H3855 H 0.91729 0.70803 0.64207 0.0
H3856 H 0.91581 0.73805 0.58484 0.0
H3857 H 0.91738 0.7272 0.60477 0.0
C3858 C 0.63056 0.56106 0.7846 0.0
C3859 C 0.62192 0.55287 0.79005 0.0
C3860 C 0.63948 0.55662 0.77619 0.0
C3861 C 0.65714 0.54278 0.75733 0.0
H3862 H 0.67604 0.52264 0.78054 0.0
C3863 C 0.71032 0.5249 0.77051 0.0
C3864 C 0.71633 0.53555 0.766 0.0
C3865 C 0.69771 0.52307 0.76811 0.0
C3866 C 0.67092 0.52782 0.77359 0.0
H3867 H 0.61491 0.53398 0.7897 0.0
H3868 H 0.63073 0.52626 0.77535 0.0
H3869 H 0.6546 0.52742 0.78499 0.0
H3870 H 0.71423 0.55208 0.7546 0.0
H3871 H 0.69232 0.54951 0.75119 0.0
H3872 H 0.6734 0.54319 0.74584 0.0
C3873 C 0.6305 0.53608 0.77752 0.0
C3874 C 0.65854 0.53063 0.77626 0.0
C3875 C 0.62144 0.54055 0.78575 0.0
C3876 C 0.70985 0.5437 0.7581 0.0
C3877 C 0.69715 0.54217 0.75613 0.0
C3878 C 0.66947 0.53962 0.75442 0.0
C3879 C 0.63997 0.54394 0.77322 0.0
C3880 C 0.65173 0.53858 0.76846 0.0
C3881 C 0.69069 0.53222 0.76174 0.0
C3882 C 0.67679 0.53267 0.76287 0.0
H3883 H 0.63113 0.57061 0.78764 0.0
H3884 H 0.64675 0.56283 0.77303 0.0
H3885 H 0.65201 0.54889 0.75115 0.0
H3886 H 0.71517 0.51843 0.77656 0.0
H3887 H 0.69332 0.51492 0.77206 0.0
C3888 C 0.02096 0.27994 0.31388 0.0
C3889 C 0.01598 0.26869 0.31818 0.0
C3890 C 0.02306 0.28963 0.32217 0.0
C3891 C 0.02613 0.31011 0.34062 0.0
H3892 H 0.9978 0.31167 0.36299 0.0
C3893 C 0.00604 0.35725 0.35415 0.0
C3894 C 0.99325 0.3578 0.35182 0.0
C3895 C 0.01199 0.34573 0.35564 0.0
C3896 C 0.00582 0.31139 0.35686 0.0
H3897 H 0.01089 0.25804 0.33456 0.0
H3898 H 0.01527 0.27465 0.34915 0.0
H3899 H 0.00386 0.29196 0.35413 0.0
H3900 H 0.97646 0.34715 0.34976 0.0
H3901 H 0.98667 0.3271 0.35214 0.0
H3902 H 0.02711 0.32984 0.34226 0.0
C3903 C 0.01694 0.27631 0.33935 0.0
C3904 C 0.00947 0.29999 0.35187 0.0
C3905 C 0.01452 0.26675 0.33101 0.0
C3906 C 0.98632 0.34687 0.35177 0.0
C3907 C 0.99222 0.33538 0.3532 0.0
C3908 C 0.0223 0.32157 0.34541 0.0
C3909 C 0.02046 0.28815 0.33497 0.0
C3910 C 0.0192 0.29931 0.34307 0.0
C3911 C 0.00521 0.33462 0.35465 0.0
C3912 C 0.01161 0.32243 0.35296 0.0
H3913 H 0.02216 0.28166 0.30402 0.0
H3914 H 0.02569 0.29855 0.31832 0.0
H3915 H 0.03398 0.3099 0.33426 0.0
H3916 H 0.01153 0.36566 0.35405 0.0
H3917 H 0.02197 0.3455 0.35689 0.0
C3918 C 0.9915 0.78983 0.45447 0.0
C3919 C 0.98612 0.79132 0.44271 0.0
C3920 C 0.98412 0.78988 0.46517 0.0
C3921 C 0.95234 0.79705 0.4772 0.0
H3922 H 0.96127 0.77232 0.50204 0.0
C3923 C 0.9187 0.77763 0.51454 0.0
C3924 C 0.92342 0.7754 0.52651 0.0
C3925 C 0.92652 0.78175 0.50498 0.0
C3926 C 0.95876 0.77941 0.49529 0.0
H3927 H 0.96887 0.79439 0.43286 0.0
H3928 H 0.95583 0.794 0.45154 0.0
H3929 H 0.97452 0.77523 0.48392 0.0
H3930 H 0.93986 0.77625 0.53801 0.0
H3931 H 0.95357 0.78334 0.52122 0.0
H3932 H 0.93623 0.80077 0.48847 0.0
C3933 C 0.9658 0.79308 0.45255 0.0
C3934 C 0.96637 0.78111 0.48489 0.0
C3935 C 0.97324 0.79322 0.44183 0.0
C3936 C 0.93598 0.77784 0.52886 0.0
C3937 C 0.94383 0.78185 0.51926 0.0
C3938 C 0.94464 0.79525 0.48758 0.0
C3939 C 0.97114 0.79119 0.46434 0.0
C3940 C 0.96323 0.7899 0.47566 0.0
C3941 C 0.93921 0.78362 0.50718 0.0
C3942 C 0.94775 0.78635 0.49668 0.0
H3943 H 0.00145 0.78856 0.45544 0.0
H3944 H 0.9886 0.78874 0.47409 0.0
H3945 H 0.94973 0.80402 0.47038 0.0
H3946 H 0.90903 0.77589 0.51247 0.0
H3947 H 0.92273 0.78294 0.49574 0.0
C3948 C 0.62053 0.68093 0.84059 0.0
C3949 C 0.62874 0.68444 0.85 0.0
C3950 C 0.61474 0.68987 0.83319 0.0
C3951 C 0.60629 0.723 0.83054 0.0
H3952 H 0.60503 0.71493 0.79547 0.0
C3953 C 0.58809 0.75644 0.79153 0.0
C3954 C 0.58022 0.75091 0.7828 0.0
C3955 C 0.59414 0.74915 0.8005 0.0
C3956 C 0.60524 0.71728 0.80525 0.0
H3957 H 0.63696 0.70009 0.85941 0.0
H3958 H 0.62686 0.71588 0.84624 0.0
H3959 H 0.6155 0.70085 0.80979 0.0
H3960 H 0.57221 0.73348 0.77687 0.0
H3961 H 0.58275 0.72083 0.79243 0.0
H3962 H 0.59598 0.73952 0.82582 0.0
C3963 C 0.6249 0.70615 0.84468 0.0
C3964 C 0.61122 0.70922 0.81346 0.0
C3965 C 0.63069 0.69714 0.85219 0.0
C3966 C 0.57827 0.73802 0.7834 0.0
C3967 C 0.58435 0.73076 0.79228 0.0
C3968 C 0.60032 0.73115 0.82225 0.0
C3969 C 0.61707 0.70256 0.83493 0.0
C3970 C 0.61157 0.71182 0.82624 0.0
C3971 C 0.59249 0.7362 0.80079 0.0
C3972 C 0.59953 0.72821 0.80957 0.0
H3973 H 0.61867 0.67122 0.8388 0.0
H3974 H 0.60849 0.6868 0.82599 0.0
H3975 H 0.6064 0.72524 0.84033 0.0
H3976 H 0.58973 0.76636 0.79131 0.0
H3977 H 0.60039 0.75357 0.80694 0.0
C3978 C 0.63404 0.33202 0.09572 0.0
C3979 C 0.63266 0.34363 0.10147 0.0
C3980 C 0.62361 0.32513 0.09249 0.0
C3981 C 0.58888 0.32433 0.09523 0.0
H3982 H 0.59124 0.31385 0.06088 0.0
C3983 C 0.55213 0.33297 0.05913 0.0
C3984 C 0.5509 0.325 0.04896 0.0
C3985 C 0.56035 0.33006 0.06867 0.0
C3986 C 0.59043 0.31634 0.0706 0.0
H3987 H 0.61937 0.35689 0.10893 0.0
H3988 H 0.60117 0.34519 0.10285 0.0
H3989 H 0.61 0.31874 0.07208 0.0
H3990 H 0.55641 0.30724 0.04122 0.0
H3991 H 0.57116 0.30226 0.05784 0.0
H3992 H 0.56913 0.32293 0.09325 0.0
C3993 C 0.61026 0.34118 0.1011 0.0
C3994 C 0.60123 0.31918 0.07705 0.0
C3995 C 0.6207 0.34798 0.10447 0.0
C3996 C 0.55725 0.31355 0.04897 0.0
C3997 C 0.56567 0.31072 0.05845 0.0
C3998 C 0.57806 0.32159 0.08872 0.0
C3999 C 0.61158 0.32981 0.09479 0.0
C4000 C 0.60053 0.32383 0.08923 0.0
C4001 C 0.56764 0.31919 0.06812 0.0
C4002 C 0.57872 0.31818 0.07614 0.0
H4003 H 0.64318 0.32834 0.0935 0.0
H4004 H 0.62497 0.31632 0.08785 0.0
H4005 H 0.58805 0.32755 0.10471 0.0
H4006 H 0.54722 0.3418 0.05939 0.0
H4007 H 0.56174 0.33685 0.07591 0.0
C4008 C 0.04831 0.55972 0.31668 0.0
C4009 C 0.04849 0.54909 0.32427 0.0
C4010 C 0.05853 0.56769 0.31645 0.0
C4011 C 0.0826 0.57627 0.3386 0.0
H4012 H 0.09051 0.60128 0.31375 0.0
C4013 C 0.11003 0.61914 0.35222 0.0
C4014 C 0.10434 0.63038 0.34866 0.0
C4015 C 0.10664 0.60801 0.34661 0.0
C4016 C 0.08844 0.59431 0.32075 0.0
H4017 H 0.05973 0.53752 0.33634 0.0
H4018 H 0.07787 0.55095 0.33533 0.0
H4019 H 0.07858 0.58297 0.30785 0.0
H4020 H 0.09122 0.63893 0.33593 0.0
H4021 H 0.08507 0.61948 0.32637 0.0
H4022 H 0.09191 0.58772 0.3516 0.0
C4023 C 0.06974 0.55351 0.32999 0.0
C4024 C 0.08161 0.58383 0.31738 0.0
C4025 C 0.05942 0.54576 0.33049 0.0
C4026 C 0.09571 0.63039 0.33893 0.0
C4027 C 0.09227 0.61925 0.33335 0.0
C4028 C 0.08944 0.58665 0.34192 0.0
C4029 C 0.06911 0.56498 0.32366 0.0
C4030 C 0.0783 0.57487 0.32637 0.0
C4031 C 0.09745 0.6079 0.33738 0.0
C4032 C 0.09212 0.59598 0.33315 0.0
H4033 H 0.03988 0.56247 0.31191 0.0
H4034 H 0.05767 0.57644 0.31149 0.0
H4035 H 0.08003 0.56976 0.34588 0.0
H4036 H 0.11685 0.61887 0.35957 0.0
H4037 H 0.11093 0.59943 0.34978 0.0
C4038 C 0.73376 0.78614 0.58269 0.0
C4039 C 0.74506 0.78502 0.58906 0.0
C4040 C 0.72576 0.79615 0.58506 0.0
C4041 C 0.72434 0.82759 0.59886 0.0
H4042 H 0.68985 0.81937 0.60515 0.0
C4043 C 0.69011 0.85896 0.62643 0.0
C4044 C 0.67747 0.85832 0.62341 0.0
C4045 C 0.69879 0.85154 0.62011 0.0
C4046 C 0.69938 0.82193 0.60318 0.0
H4047 H 0.757 0.79364 0.60268 0.0
H4048 H 0.74301 0.81099 0.60686 0.0
H4049 H 0.70409 0.80335 0.59794 0.0
H4050 H 0.66408 0.8505 0.61075 0.0
H4051 H 0.67921 0.83797 0.59944 0.0
H4052 H 0.71963 0.84616 0.60434 0.0
C4053 C 0.74037 0.80423 0.59996 0.0
C4054 C 0.70755 0.81271 0.59905 0.0
C4055 C 0.74832 0.79421 0.59765 0.0
C4056 C 0.67377 0.85097 0.61339 0.0
C4057 C 0.68243 0.84374 0.60696 0.0
C4058 C 0.71613 0.83686 0.60294 0.0
C4059 C 0.72896 0.80526 0.59378 0.0
C4060 C 0.72014 0.81539 0.59702 0.0
C4061 C 0.69495 0.84352 0.61059 0.0
C4062 C 0.70358 0.83409 0.60529 0.0
H4063 H 0.73104 0.77923 0.57597 0.0
H4064 H 0.71705 0.79676 0.58009 0.0
H4065 H 0.73399 0.82994 0.59723 0.0
H4066 H 0.69314 0.86456 0.63415 0.0
H4067 H 0.70836 0.85156 0.62316 0.0
C4068 C 0.52961 0.43845 0.86355 0.0
C4069 C 0.53863 0.42894 0.86396 0.0
C4070 C 0.53265 0.45025 0.85902 0.0
C4071 C 0.5451 0.47576 0.85807 0.0
H4072 H 0.56511 0.48021 0.82829 0.0
C4073 C 0.57399 0.51977 0.8466 0.0
C4074 C 0.57479 0.52343 0.83406 0.0
C4075 C 0.56746 0.50905 0.84999 0.0
C4076 C 0.55939 0.47915 0.83655 0.0
H4077 H 0.55774 0.42417 0.85946 0.0
H4078 H 0.563 0.44474 0.85137 0.0
H4079 H 0.55787 0.4595 0.83399 0.0
H4080 H 0.56855 0.51934 0.8154 0.0
H4081 H 0.55712 0.50075 0.82133 0.0
H4082 H 0.54684 0.49542 0.86074 0.0
C4083 C 0.55359 0.44307 0.85459 0.0
C4084 C 0.55535 0.46728 0.83987 0.0
C4085 C 0.55059 0.43131 0.85925 0.0
C4086 C 0.56823 0.51669 0.82512 0.0
C4087 C 0.56173 0.506 0.8285 0.0
C4088 C 0.54924 0.48765 0.85481 0.0
C4089 C 0.54472 0.45272 0.85466 0.0
C4090 C 0.54826 0.46544 0.85071 0.0
C4091 C 0.56164 0.50183 0.84089 0.0
C4092 C 0.55649 0.48944 0.84406 0.0
H4093 H 0.52031 0.43691 0.86715 0.0
H4094 H 0.5256 0.45749 0.85905 0.0
H4095 H 0.53973 0.47458 0.86655 0.0
H4096 H 0.57896 0.52478 0.85369 0.0
H4097 H 0.56757 0.50603 0.85961 0.0
C4098 C 0.83104 0.22591 0.19514 0.0
C4099 C 0.83744 0.23587 0.20046 0.0
C4100 C 0.82022 0.22809 0.18826 0.0
C4101 C 0.79765 0.25331 0.17899 0.0
H4102 H 0.79813 0.23605 0.1475 0.0
C4103 C 0.769 0.27183 0.13781 0.0
C4104 C 0.77516 0.27173 0.12626 0.0
C4105 C 0.77365 0.26491 0.14782 0.0
C4106 C 0.79787 0.24101 0.15623 0.0
H4107 H 0.83704 0.25578 0.20353 0.0
H4108 H 0.81862 0.25962 0.19137 0.0
H4109 H 0.81148 0.22888 0.16418 0.0
H4110 H 0.79079 0.26406 0.11601 0.0
H4111 H 0.79922 0.2525 0.13348 0.0
H4112 H 0.78493 0.26613 0.17069 0.0
C4113 C 0.82167 0.25008 0.19258 0.0
C4114 C 0.80539 0.23674 0.16592 0.0
C4115 C 0.83236 0.24789 0.19951 0.0
C4116 C 0.78582 0.26429 0.1248 0.0
C4117 C 0.79059 0.25755 0.13484 0.0
C4118 C 0.79031 0.25772 0.16923 0.0
C4119 C 0.81567 0.24029 0.18651 0.0
C4120 C 0.80575 0.24313 0.17728 0.0
C4121 C 0.78469 0.25791 0.14656 0.0
C4122 C 0.79069 0.25191 0.15755 0.0
H4123 H 0.83469 0.21652 0.19578 0.0
H4124 H 0.81571 0.22028 0.18392 0.0
H4125 H 0.79741 0.25827 0.18772 0.0
H4126 H 0.76066 0.27737 0.13915 0.0
H4127 H 0.76869 0.26523 0.15661 0.0
C4128 C 0.34214 0.98783 0.3553 0.0
C4129 C 0.35308 0.98089 0.35703 0.0
C4130 C 0.34107 0.99603 0.34529 0.0
C4131 C 0.34181 0.01491 0.32426 0.0
H4132 H 0.3459 0.99508 0.29458 0.0
C4133 C 0.30725 0.01606 0.28481 0.0
C4134 C 0.31049 0.01098 0.27326 0.0
C4135 C 0.31622 0.0173 0.29403 0.0
C4136 C 0.34501 0.00106 0.3026 0.0
H4137 H 0.37178 0.97756 0.35016 0.0
H4138 H 0.36975 0.99168 0.33226 0.0
H4139 H 0.35555 0.98832 0.31368 0.0
H4140 H 0.32579 0.00474 0.26164 0.0
H4141 H 0.34159 0.00751 0.27748 0.0
H4142 H 0.3308 0.02739 0.31327 0.0
C4143 C 0.36208 0.99085 0.33878 0.0
C4144 C 0.35057 0.99712 0.31361 0.0
C4145 C 0.36322 0.98278 0.34897 0.0
C4146 C 0.32303 0.00845 0.27059 0.0
C4147 C 0.33206 0.00998 0.2797 0.0
C4148 C 0.33637 0.01897 0.31317 0.0
C4149 C 0.35087 0.99731 0.33669 0.0
C4150 C 0.34843 0.00361 0.32468 0.0
C4151 C 0.32865 0.0137 0.29177 0.0
C4152 C 0.33728 0.01168 0.30238 0.0
H4153 H 0.33423 0.98665 0.36148 0.0
H4154 H 0.33226 0.00074 0.34383 0.0
H4155 H 0.34017 0.02018 0.33266 0.0
H4156 H 0.29762 0.0181 0.28707 0.0
H4157 H 0.31315 0.02011 0.30319 0.0
C4158 C 0.34177 0.06302 0.54819 0.0
C4159 C 0.33006 0.05802 0.54561 0.0
C4160 C 0.34283 0.07335 0.55582 0.0
C4161 C 0.32581 0.08714 0.58189 0.0
H4162 H 0.35587 0.10672 0.58312 0.0
C4163 C 0.34914 0.09798 0.62774 0.0
C4164 C 0.35686 0.10835 0.6289 0.0
C4165 C 0.34341 0.09545 0.61646 0.0
C4166 C 0.34724 0.1016 0.58291 0.0
H4167 H 0.31019 0.06068 0.54788 0.0
H4168 H 0.312 0.07901 0.56103 0.0
H4169 H 0.34995 0.09706 0.56377 0.0
H4170 H 0.36415 0.1246 0.61941 0.0
H4171 H 0.35383 0.12041 0.59976 0.0
H4172 H 0.32304 0.09178 0.60098 0.0
C4173 C 0.3204 0.07471 0.55744 0.0
C4174 C 0.34393 0.0959 0.5718 0.0
C4175 C 0.31935 0.06425 0.54985 0.0
C4176 C 0.35837 0.11643 0.61871 0.0
C4177 C 0.35247 0.11401 0.60745 0.0
C4178 C 0.32898 0.09305 0.59292 0.0
C4179 C 0.33218 0.07903 0.56098 0.0
C4180 C 0.3336 0.08797 0.57137 0.0
C4181 C 0.34509 0.10335 0.60611 0.0
C4182 C 0.34013 0.09974 0.59377 0.0
H4183 H 0.35021 0.05849 0.54497 0.0
H4184 H 0.35207 0.07624 0.55838 0.0
H4185 H 0.31775 0.08117 0.58197 0.0
H4186 H 0.34782 0.09158 0.63545 0.0
H4187 H 0.33806 0.087 0.61578 0.0
C4188 C 0.24919 0.19445 0.83647 0.0
C4189 C 0.23661 0.19775 0.83791 0.0
C4190 C 0.25311 0.18743 0.82632 0.0
C4191 C 0.25351 0.16293 0.81246 0.0
H4192 H 0.24953 0.16854 0.77705 0.0
C4193 C 0.26363 0.12417 0.77794 0.0
C4194 C 0.27282 0.12719 0.76911 0.0
C4195 C 0.25761 0.13351 0.78466 0.0
C4196 C 0.25062 0.16688 0.78692 0.0
H4197 H 0.21846 0.19723 0.82927 0.0
H4198 H 0.22543 0.185 0.81133 0.0
H4199 H 0.24265 0.18459 0.79188 0.0
H4200 H 0.28223 0.14239 0.75971 0.0
H4201 H 0.27156 0.15875 0.77145 0.0
H4202 H 0.26136 0.14529 0.80769 0.0
C4203 C 0.23218 0.18783 0.81816 0.0
C4204 C 0.24669 0.17601 0.79536 0.0
C4205 C 0.22821 0.1948 0.82842 0.0
C4206 C 0.27523 0.13978 0.76651 0.0
C4207 C 0.2691 0.14915 0.77317 0.0
C4208 C 0.2572 0.15377 0.8041 0.0
C4209 C 0.24456 0.18366 0.81733 0.0
C4210 C 0.24828 0.17414 0.80818 0.0
C4211 C 0.26055 0.14606 0.7826 0.0
C4212 C 0.25588 0.15567 0.79126 0.0
H4213 H 0.25593 0.19666 0.84355 0.0
H4214 H 0.26273 0.18441 0.82579 0.0
H4215 H 0.25471 0.16123 0.82232 0.0
H4216 H 0.2615 0.11457 0.78011 0.0
H4217 H 0.25096 0.13091 0.79182 0.0
C4218 C 0.24176 0.01759 0.07384 0.0
C4219 C 0.23847 0.02594 0.08332 0.0
C4220 C 0.24532 0.02208 0.06208 0.0
C4221 C 0.25454 0.05097 0.04527 0.0
H4222 H 0.23364 0.03878 0.01887 0.0
C4223 C 0.22387 0.07392 0.0053 0.0
C4224 C 0.23182 0.0836 0.00169 0.0
C4225 C 0.22844 0.06377 0.01205 0.0
C4226 C 0.23963 0.04225 0.02609 0.0
H4227 H 0.23707 0.0454 0.08827 0.0
H4228 H 0.24324 0.05317 0.06799 0.0
H4229 H 0.23547 0.0269 0.03815 0.0
H4230 H 0.251 0.08964 0.0011 0.0
H4231 H 0.25907 0.07174 0.01259 0.0
H4232 H 0.25777 0.06688 0.03386 0.0
C4233 C 0.24315 0.0432 0.0695 0.0
C4234 C 0.24081 0.03535 0.03709 0.0
C4235 C 0.23947 0.03875 0.08111 0.0
C4236 C 0.24461 0.08241 0.00397 0.0
C4237 C 0.24922 0.07216 0.01058 0.0
C4238 C 0.25327 0.05792 0.03436 0.0
C4239 C 0.24585 0.03495 0.05977 0.0
C4240 C 0.24769 0.04003 0.04705 0.0
C4241 C 0.2411 0.06301 0.01522 0.0
C4242 C 0.24523 0.05399 0.02492 0.0
H4243 H 0.24107 0.00765 0.07533 0.0
H4244 H 0.24736 0.01551 0.05474 0.0
H4245 H 0.26012 0.05467 0.05271 0.0
H4246 H 0.21397 0.07455 0.00363 0.0
H4247 H 0.22183 0.05703 0.01553 0.0
C4248 C 0.27749 0.32034 0.02293 0.0
C4249 C 0.268 0.32273 0.01436 0.0
C4250 C 0.28646 0.32935 0.02525 0.0
C4251 C 0.30116 0.35385 0.00701 0.0
H4252 H 0.32432 0.35243 0.03442 0.0
C4253 C 0.35233 0.36212 0.99761 0.0
C4254 C 0.35881 0.35118 0.00075 0.0
C4255 C 0.34067 0.36458 0.00297 0.0
C4256 C 0.31786 0.35315 0.02676 0.0
H4257 H 0.25939 0.3369 0.0028 0.0
H4258 H 0.27481 0.35276 0.00713 0.0
H4259 H 0.30286 0.34583 0.03768 0.0
H4260 H 0.35896 0.33497 0.01282 0.0
H4261 H 0.33881 0.33923 0.02214 0.0
H4262 H 0.31629 0.36036 0.9959 0.0
C4263 C 0.27564 0.34381 0.01172 0.0
C4264 C 0.30559 0.34931 0.0286 0.0
C4265 C 0.26678 0.33473 0.00927 0.0
C4266 C 0.35406 0.34339 0.01012 0.0
C4267 C 0.34257 0.34593 0.01558 0.0
C4268 C 0.31337 0.35776 0.00521 0.0
C4269 C 0.28601 0.34097 0.01914 0.0
C4270 C 0.29734 0.34882 0.01853 0.0
C4271 C 0.33548 0.35624 0.01168 0.0
C4272 C 0.32205 0.35665 0.01484 0.0
H4273 H 0.27862 0.31119 0.02705 0.0
H4274 H 0.29432 0.32675 0.03097 0.0
H4275 H 0.29515 0.35361 0.99899 0.0
H4276 H 0.35586 0.3683 0.99044 0.0
H4277 H 0.33543 0.37262 -0.00019 0.0
C4278 C 0.13921 0.77299 0.27525 0.0
C4279 C 0.12694 0.77717 0.27354 0.0
C4280 C 0.14911 0.7792 0.26959 0.0
C4281 C 0.15693 0.80294 0.24546 0.0
H4282 H 0.18584 0.80793 0.26613 0.0
C4283 C 0.19828 0.8323 0.22828 0.0
C4284 C 0.20313 0.8407 0.23691 0.0
C4285 C 0.19014 0.82295 0.23214 0.0
C4286 C 0.17783 0.80666 0.26024 0.0
H4287 H 0.11536 0.79087 0.26425 0.0
H4288 H 0.13265 0.80194 0.25461 0.0
H4289 H 0.16902 0.79485 0.27363 0.0
H4290 H 0.20357 0.84565 0.2564 0.0
H4291 H 0.1892 0.82956 0.26311 0.0
H4292 H 0.16544 0.81532 0.23238 0.0
C4293 C 0.13465 0.79372 0.26013 0.0
C4294 C 0.16824 0.79901 0.26447 0.0
C4295 C 0.12472 0.78742 0.26571 0.0
C4296 C 0.20003 0.83928 0.24953 0.0
C4297 C 0.19183 0.83 0.25339 0.0
C4298 C 0.16649 0.81067 0.24127 0.0
C4299 C 0.14698 0.78981 0.26218 0.0
C4300 C 0.15759 0.79718 0.25721 0.0
C4301 C 0.1866 0.82186 0.24471 0.0
C4302 C 0.17698 0.81277 0.24869 0.0
H4303 H 0.14119 0.76502 0.28114 0.0
H4304 H 0.15846 0.77576 0.27115 0.0
H4305 H 0.14895 0.80161 0.23955 0.0
H4306 H 0.20055 0.83312 0.21848 0.0
H4307 H 0.18647 0.8167 0.22524 0.0
C4308 C 0.15098 0.81041 0.46172 0.0
C4309 C 0.14829 0.80198 0.47139 0.0
C4310 C 0.16244 0.81639 0.46121 0.0
C4311 C 0.18884 0.82669 0.47882 0.0
H4312 H 0.20797 0.82067 0.44872 0.0
C4313 C 0.23833 0.84544 0.47399 0.0
C4314 C 0.24171 0.85046 0.4624 0.0
C4315 C 0.22766 0.83822 0.47521 0.0
C4316 C 0.20272 0.8226 0.45712 0.0
H4317 H 0.15513 0.7938 0.48852 0.0
H4318 H 0.17508 0.80466 0.48783 0.0
H4319 H 0.18723 0.8119 0.45097 0.0
H4320 H 0.23701 0.85154 0.44289 0.0
H4321 H 0.21807 0.83939 0.44503 0.0
H4322 H 0.20395 0.83785 0.48482 0.0
C4323 C 0.16835 0.80643 0.48058 0.0
C4324 C 0.19087 0.81753 0.4584 0.0
C4325 C 0.15696 0.80025 0.48097 0.0
C4326 C 0.23462 0.84767 0.45192 0.0
C4327 C 0.22377 0.84068 0.45317 0.0
C4328 C 0.2006 0.83197 0.47744 0.0
C4329 C 0.1713 0.81423 0.47049 0.0
C4330 C 0.18384 0.81957 0.46924 0.0
C4331 C 0.21998 0.83614 0.46491 0.0
C4332 C 0.2077 0.83001 0.46656 0.0
H4333 H 0.1445 0.8119 0.45417 0.0
H4334 H 0.1645 0.82248 0.45341 0.0
H4335 H 0.18353 0.82843 0.48723 0.0
H4336 H 0.24375 0.84738 0.48219 0.0
H4337 H 0.22529 0.83456 0.48431 0.0
C4338 C 0.52334 0.91956 0.78228 0.0
C4339 C 0.52283 0.90848 0.77546 0.0
C4340 C 0.51249 0.92635 0.78479 0.0
C4341 C 0.48287 0.933 0.7706 0.0
H4342 H 0.47444 0.94916 0.8017 0.0
C4343 C 0.45196 0.97668 0.7739 0.0
C4344 C 0.44215 0.97637 0.78258 0.0
C4345 C 0.46087 0.9672 0.7737 0.0
C4346 C 0.47664 0.94461 0.793 0.0
H4347 H 0.51049 0.89548 0.7665 0.0
H4348 H 0.49159 0.90744 0.77074 0.0
H4349 H 0.49182 0.93427 0.80092 0.0
H4350 H 0.434 0.966 0.79791 0.0
H4351 H 0.44987 0.94951 0.79773 0.0
H4352 H 0.46805 0.94367 0.76256 0.0
C4353 C 0.50038 0.91086 0.77412 0.0
C4354 C 0.48659 0.93616 0.79254 0.0
C4355 C 0.5112 0.904 0.77175 0.0
C4356 C 0.44144 0.96643 0.79108 0.0
C4357 C 0.45052 0.95705 0.79103 0.0
C4358 C 0.47309 0.94157 0.77101 0.0
C4359 C 0.50097 0.92224 0.7804 0.0
C4360 C 0.48984 0.93037 0.7813 0.0
C4361 C 0.46028 0.95735 0.7823 0.0
C4362 C 0.46998 0.94755 0.78217 0.0
H4363 H 0.53217 0.92323 0.78529 0.0
H4364 H 0.5132 0.93513 0.78959 0.0
H4365 H 0.48527 0.92876 0.76179 0.0
H4366 H 0.45273 0.98423 0.76724 0.0
H4367 H 0.46837 0.96768 0.76695 0.0
C4368 C 0.06701 0.00492 0.21868 0.0
C4369 C 0.07711 0.00068 0.22574 0.0
C4370 C 0.05732 0.01155 0.22432 0.0
C4371 C 0.03707 0.02572 0.23751 0.0
H4372 H 0.05107 0.04927 0.26055 0.0
C4373 C 0.01487 0.07408 0.24476 0.0
C4374 C 0.0237 0.08341 0.24255 0.0
C4375 C 0.01874 0.06181 0.24712 0.0
C4376 C 0.04694 0.0427 0.25423 0.0
H4377 H 0.08437 0.9987 0.24438 0.0
H4378 H 0.06715 0.00967 0.25437 0.0
H4379 H 0.06244 0.03045 0.25573 0.0
H4380 H 0.0434 0.08751 0.24194 0.0
H4381 H 0.05011 0.06639 0.246 0.0
H4382 H 0.02219 0.0388 0.23507 0.0
C4383 C 0.06694 0.00845 0.24439 0.0
C4384 C 0.0534 0.03176 0.25155 0.0
C4385 C 0.07678 0.0021 0.2387 0.0
C4386 C 0.03638 0.08049 0.24352 0.0
C4387 C 0.04022 0.06836 0.24599 0.0
C4388 C 0.0307 0.0368 0.24005 0.0
C4389 C 0.05741 0.01385 0.2372 0.0
C4390 C 0.04891 0.02345 0.2426 0.0
C4391 C 0.03149 0.05881 0.24751 0.0
C4392 C 0.03596 0.04572 0.24787 0.0
H4393 H 0.06704 0.00393 0.20866 0.0
H4394 H 0.05029 0.01562 0.21838 0.0
H4395 H 0.0331 0.01935 0.2309 0.0
H4396 H 0.00502 0.07612 0.24406 0.0
H4397 H 0.0118 0.05464 0.24829 0.0
C4398 C 0.48251 0.14896 0.80943 0.0
C4399 C 0.47256 0.14057 0.81009 0.0
C4400 C 0.48218 0.15994 0.8163 0.0
C4401 C 0.46103 0.18321 0.82383 0.0
H4402 H 0.48238 0.1949 0.85009 0.0
C4403 C 0.45197 0.23033 0.84726 0.0
C4404 C 0.4621 0.23705 0.85175 0.0
C4405 C 0.45365 0.2183 0.84274 0.0
C4406 C 0.47646 0.19189 0.84261 0.0
H4407 H 0.45482 0.13672 0.81895 0.0
H4408 H 0.45412 0.15614 0.83068 0.0
H4409 H 0.48516 0.17384 0.84204 0.0
H4410 H 0.48199 0.23667 0.85473 0.0
H4411 H 0.4851 0.21594 0.84618 0.0
H4412 H 0.45272 0.20125 0.82374 0.0
C4413 C 0.46221 0.15407 0.82499 0.0
C4414 C 0.478 0.17979 0.83813 0.0
C4415 C 0.46266 0.14297 0.81833 0.0
C4416 C 0.47401 0.23165 0.85135 0.0
C4417 C 0.47575 0.21971 0.84657 0.0
C4418 C 0.45966 0.19536 0.82808 0.0
C4419 C 0.4718 0.16276 0.82374 0.0
C4420 C 0.47021 0.17537 0.82879 0.0
C4421 C 0.46557 0.21279 0.84234 0.0
C4422 C 0.46729 0.19988 0.83761 0.0
H4423 H 0.49025 0.14734 0.80314 0.0
H4424 H 0.48963 0.16659 0.81519 0.0
H4425 H 0.45506 0.17999 0.81646 0.0
H4426 H 0.44266 0.23421 0.84761 0.0
H4427 H 0.44552 0.21324 0.83985 0.0
C4428 C 0.08012 0.24083 0.03565 0.0
C4429 C 0.08137 0.24138 0.02266 0.0
C4430 C 0.06855 0.24246 0.04127 0.0
C4431 C 0.04413 0.25086 0.05183 0.0
H4432 H 0.01765 0.23037 0.03913 0.0
C4433 C 0.00304 0.2393 0.08326 0.0
C4434 C 0.00032 0.22656 0.08367 0.0
C4435 C 0.00989 0.24427 0.07335 0.0
C4436 C 0.02492 0.23619 0.04278 0.0
H4437 H 0.07154 0.24441 0.00537 0.0
H4438 H 0.05112 0.24721 0.01529 0.0
H4439 H 0.03637 0.23355 0.02665 0.0
H4440 H 0.00184 0.20919 0.07365 0.0
H4441 H 0.01418 0.21767 0.05671 0.0
H4442 H 0.03331 0.25267 0.06837 0.0
C4443 C 0.05916 0.24549 0.02107 0.0
C4444 C 0.03559 0.23814 0.03555 0.0
C4445 C 0.07083 0.24392 0.01541 0.0
C4446 C 0.00383 0.21905 0.07361 0.0
C4447 C 0.01084 0.22397 0.0638 0.0
C4448 C 0.03355 0.24882 0.05909 0.0
C4449 C 0.0579 0.24466 0.03407 0.0
C4450 C 0.04554 0.24503 0.04026 0.0
C4451 C 0.01436 0.23655 0.06378 0.0
C4452 C 0.02405 0.24101 0.0549 0.0
H4453 H 0.08806 0.23891 0.04151 0.0
H4454 H 0.0679 0.2415 0.05129 0.0
H4455 H 0.05154 0.25643 0.0556 0.0
H4456 H 0.00028 0.24535 0.09082 0.0
H4457 H 0.01216 0.25406 0.07349 0.0
C4458 C 0.43521 0.86392 0.54065 0.0
C4459 C 0.42643 0.86548 0.55026 0.0
C4460 C 0.44699 0.85908 0.54317 0.0
C4461 C 0.47332 0.85748 0.55315 0.0
H4462 H 0.47809 0.82944 0.57547 0.0
C4463 C 0.51941 0.84595 0.57811 0.0
C4464 C 0.52246 0.83335 0.57995 0.0
C4465 C 0.50824 0.84931 0.57241 0.0
C4466 C 0.47691 0.83718 0.56909 0.0
H4467 H 0.42295 0.86285 0.56997 0.0
H4468 H 0.44359 0.85433 0.57439 0.0
H4469 H 0.45707 0.83593 0.56992 0.0
H4470 H 0.51671 0.81441 0.57639 0.0
H4471 H 0.49728 0.8203 0.56638 0.0
H4472 H 0.49318 0.85881 0.55245 0.0
C4473 C 0.44131 0.85683 0.5649 0.0
C4474 C 0.46488 0.84098 0.56603 0.0
C4475 C 0.42953 0.86174 0.56238 0.0
C4476 C 0.51457 0.8242 0.57521 0.0
C4477 C 0.5034 0.82756 0.56954 0.0
C4478 C 0.48537 0.85373 0.55627 0.0
C4479 C 0.45022 0.85563 0.55534 0.0
C4480 C 0.46297 0.85123 0.55812 0.0
C4481 C 0.49994 0.84012 0.56847 0.0
C4482 C 0.48727 0.8436 0.56434 0.0
H4483 H 0.4331 0.86667 0.53119 0.0
H4484 H 0.45362 0.8581 0.53561 0.0
H4485 H 0.47212 0.86549 0.54711 0.0
H4486 H 0.52532 0.85321 0.58166 0.0
H4487 H 0.50579 0.85907 0.57175 0.0
C4488 C 0.77273 0.44876 0.97622 0.0
C4489 C 0.7826 0.44017 0.97566 0.0
C4490 C 0.77155 0.45805 0.96721 0.0
C4491 C 0.78929 0.47745 0.94637 0.0
H4492 H 0.75754 0.48383 0.93059 0.0
C4493 C 0.77447 0.52457 0.92441 0.0
C4494 C 0.7682 0.52412 0.91301 0.0
C4495 C 0.77759 0.51358 0.93071 0.0
C4496 C 0.7665 0.48209 0.93482 0.0
H4497 H 0.79898 0.43451 0.96524 0.0
H4498 H 0.79707 0.45108 0.94954 0.0
H4499 H 0.76009 0.46557 0.94398 0.0
H4500 H 0.76065 0.51184 0.89906 0.0
H4501 H 0.76592 0.49271 0.91017 0.0
H4502 H 0.79555 0.49425 0.93755 0.0
C4503 C 0.7902 0.45047 0.95693 0.0
C4504 C 0.76793 0.4717 0.94252 0.0
C4505 C 0.79125 0.44099 0.96585 0.0
C4506 C 0.76544 0.5125 0.90786 0.0
C4507 C 0.76842 0.50154 0.91421 0.0
C4508 C 0.7878 0.48797 0.93881 0.0
C4509 C 0.78034 0.45907 0.95756 0.0
C4510 C 0.77928 0.46937 0.94847 0.0
C4511 C 0.77436 0.50198 0.92577 0.0
C4512 C 0.77635 0.49044 0.93307 0.0
H4513 H 0.76592 0.44833 0.98367 0.0
H4514 H 0.76393 0.46464 0.96794 0.0
H4515 H 0.79811 0.47587 0.95094 0.0
H4516 H 0.77676 0.53339 0.92857 0.0
H4517 H 0.78209 0.51416 0.93966 0.0
C4518 C 0.85498 0.47256 0.22525 0.0
C4519 C 0.85049 0.46294 0.23293 0.0
C4520 C 0.84944 0.47509 0.21379 0.0
C4521 C 0.8204 0.47134 0.1966 0.0
H4522 H 0.84108 0.47587 0.16725 0.0
C4523 C 0.81323 0.46929 0.14091 0.0
C4524 C 0.80218 0.47627 0.13997 0.0
C4525 C 0.82017 0.46945 0.15185 0.0
C4526 C 0.83521 0.47465 0.17537 0.0
H4527 H 0.83659 0.44852 0.2347 0.0
H4528 H 0.82684 0.45302 0.2147 0.0
H4529 H 0.8508 0.47209 0.18744 0.0
H4530 H 0.79031 0.48969 0.14935 0.0
H4531 H 0.80247 0.49003 0.16837 0.0
H4532 H 0.80482 0.47365 0.18456 0.0
C4533 C 0.83464 0.45861 0.21757 0.0
C4534 C 0.84075 0.47257 0.18693 0.0
C4535 C 0.84025 0.456 0.22899 0.0
C4536 C 0.79873 0.48413 0.14981 0.0
C4537 C 0.80564 0.48426 0.16074 0.0
C4538 C 0.81487 0.47352 0.18509 0.0
C4539 C 0.83922 0.46814 0.20983 0.0
C4540 C 0.83339 0.47077 0.19764 0.0
C4541 C 0.81617 0.47658 0.16205 0.0
C4542 C 0.8222 0.47512 0.17433 0.0
H4543 H 0.86287 0.47807 0.22802 0.0
H4544 H 0.85309 0.48257 0.20808 0.0
H4545 H 0.8145 0.47009 0.20471 0.0
H4546 H 0.81612 0.46313 0.13349 0.0
H4547 H 0.82824 0.46342 0.1526 0.0
C4548 C 0.85506 0.5515 0.42497 0.0
C4549 C 0.85907 0.53944 0.42193 0.0
C4550 C 0.85039 0.55405 0.43683 0.0
C4551 C 0.83699 0.55631 0.46164 0.0
H4552 H 0.85837 0.54423 0.48805 0.0
C4553 C 0.85322 0.57457 0.51161 0.0
C4554 C 0.84174 0.57832 0.51667 0.0
C4555 C 0.85367 0.56689 0.5012 0.0
C4556 C 0.85226 0.54759 0.4808 0.0
H4557 H 0.86065 0.52044 0.42868 0.0
H4558 H 0.85248 0.52493 0.4494 0.0
H4559 H 0.86144 0.53666 0.46692 0.0
H4560 H 0.82175 0.57627 0.51536 0.0
H4561 H 0.82255 0.56284 0.49716 0.0
H4562 H 0.82824 0.56773 0.47538 0.0
C4563 C 0.85307 0.53241 0.44264 0.0
C4564 C 0.85393 0.54318 0.46871 0.0
C4565 C 0.85768 0.52984 0.43076 0.0
C4566 C 0.83074 0.5736 0.51162 0.0
C4567 C 0.83119 0.56596 0.50117 0.0
C4568 C 0.83528 0.56068 0.47373 0.0
C4569 C 0.84967 0.5446 0.4459 0.0
C4570 C 0.84655 0.54777 0.45895 0.0
C4571 C 0.84264 0.56285 0.49562 0.0
C4572 C 0.84314 0.55664 0.48336 0.0
H4573 H 0.856 0.55908 0.41836 0.0
H4574 H 0.84796 0.56356 0.43908 0.0
H4575 H 0.83109 0.55992 0.45432 0.0
H4576 H 0.86186 0.57803 0.51532 0.0
H4577 H 0.86264 0.56475 0.49709 0.0
C4578 C 0.8418 0.61812 0.69272 0.0
C4579 C 0.84874 0.6271 0.69896 0.0
C4580 C 0.83507 0.60927 0.69936 0.0
C4581 C 0.82903 0.59577 0.7307 0.0
H4582 H 0.79584 0.59205 0.71739 0.0
C4583 C 0.78689 0.57727 0.75887 0.0
C4584 C 0.77847 0.56959 0.75266 0.0
C4585 C 0.79684 0.58263 0.75244 0.0
C4586 C 0.80513 0.59281 0.72113 0.0
H4587 H 0.85473 0.63351 0.71697 0.0
H4588 H 0.84251 0.61823 0.72873 0.0
H4589 H 0.811 0.60431 0.70605 0.0
H4590 H 0.77413 0.56107 0.73502 0.0
H4591 H 0.7915 0.57045 0.72379 0.0
H4592 H 0.82283 0.58452 0.74605 0.0
C4593 C 0.84247 0.61788 0.71868 0.0
C4594 C 0.81386 0.59983 0.71462 0.0
C4595 C 0.84944 0.62665 0.71198 0.0
C4596 C 0.78041 0.56703 0.74002 0.0
C4597 C 0.79034 0.57242 0.73359 0.0
C4598 C 0.82022 0.58876 0.73728 0.0
C4599 C 0.83488 0.60937 0.71242 0.0
C4600 C 0.82591 0.60141 0.71931 0.0
C4601 C 0.79852 0.58045 0.73968 0.0
C4602 C 0.80818 0.58725 0.73255 0.0
H4603 H 0.84127 0.61815 0.68267 0.0
H4604 H 0.82963 0.60261 0.69424 0.0
H4605 H 0.83825 0.59675 0.73452 0.0
H4606 H 0.78567 0.57936 0.76863 0.0
H4607 H 0.80293 0.58887 0.75735 0.0
loop_
_geom_bond_atom_site_label_1
_geom_bond_atom_site_label_2
_geom_bond_distance
_geom_bond_site_symmetry_2
_ccdc_geom_bond_type
Mn0 O5 2.095 . S
Mn0 O15 2.162 . S
Mn0 O16 2.297 . S
Mn0 O24 2.385 1_455 S
Mn0 O25 2.209 1_455 S
Mn0 O26 2.094 . S
Mn1 O6 2.121 . S
Mn1 N8 2.257 1_455 S
Mn1 N17 2.282 1_455 S
Mn1 O25 2.215 1_455 S
Mn1 O27 2.117 . S
C2 O24 1.234 . S
C2 O25 1.283 . S
C3 O15 1.281 . S
C3 O16 1.236 . S
C4 O26 1.240 . S
C4 O27 1.264 . S
O5 Mn0 2.095 . S
O5 C14 1.250 . S
O6 Mn1 2.121 . S
O6 C14 1.258 . S
C7 N8 1.326 . S
C7 C11 1.460 . S
C7 H13 0.929 . S
N8 Mn1 2.257 1_655 S
N8 C7 1.326 . S
N8 C12 1.362 . S
C9 C10 1.258 . S
C9 C12 1.431 . S
C9 C29 1.449 . S
C10 C9 1.258 . S
C10 C11 1.477 . S
C10 H30 0.931 . S
C11 C7 1.460 . S
C11 C10 1.477 . S
C11 H31 0.930 . S
C12 N8 1.362 . S
C12 C9 1.431 . S
C12 C22 1.476 . S
H13 C7 0.929 . S
C14 O5 1.250 . S
C14 O6 1.258 . S
O15 Mn0 2.162 . S
O15 C3 1.281 . S
O16 Mn0 2.297 . S
O16 C3 1.236 . S
N17 Mn1 2.282 1_655 S
N17 C18 1.328 . S
N17 C22 1.318 . S
C18 N17 1.328 . S
C18 C19 1.457 . S
C18 H23 0.929 . S
C19 C18 1.457 . S
C19 C20 1.291 . S
C19 H32 0.931 . S
C20 C19 1.291 . S
C20 C21 1.373 . S
C20 H33 0.929 . S
C21 C20 1.373 . S
C21 C22 1.396 . S
C21 C28 1.403 . S
C22 C12 1.476 . S
C22 N17 1.318 . S
C22 C21 1.396 . S
H23 C18 0.929 . S
O24 Mn0 2.385 1_655 S
O24 C2 1.234 . S
O25 Mn0 2.209 1_655 S
O25 Mn1 2.215 1_655 S
O25 C2 1.283 . S
O26 Mn0 2.094 . S
O26 C4 1.240 . S
O27 Mn1 2.117 . S
O27 C4 1.264 . S
C28 C21 1.403 . S
C28 C29 1.399 . S
C28 H34 0.929 . S
C29 C9 1.449 . S
C29 C28 1.399 . S
C29 H35 0.930 . S
H30 C10 0.931 . S
H31 C11 0.930 . S
H32 C19 0.931 . S
H33 C20 0.929 . S
H34 C28 0.929 . S
H35 C29 0.930 . S
Mn36 O41 2.095 1_655 S
Mn36 O51 2.162 . S
Mn36 O52 2.297 . S
Mn36 O60 2.385 . S
Mn36 O61 2.209 1_655 S
Mn36 O62 2.094 . S
Mn37 O42 2.121 . S
Mn37 N44 2.257 . S
Mn37 N53 2.282 . S
Mn37 O61 2.215 . S
Mn37 O63 2.117 . S
C38 O60 1.248 . S
C38 O61 1.274 1_655 S
C39 O51 1.281 . S
C39 O52 1.236 . S
C40 O62 1.240 1_455 S
C40 O63 1.264 . S
O41 Mn36 2.095 1_455 S
O41 C50 1.250 . S
O42 Mn37 2.121 . S
O42 C50 1.258 . S
C43 N44 1.326 . S
C43 C47 1.460 . S
C43 H49 0.929 . S
N44 Mn37 2.257 . S
N44 C43 1.326 . S
N44 C48 1.362 . S
C45 C46 1.258 . S
C45 C48 1.431 . S
C45 C65 1.449 . S
C46 C45 1.258 . S
C46 C47 1.477 . S
C46 H66 0.931 . S
C47 C43 1.460 . S
C47 C46 1.477 . S
C47 H67 0.930 . S
C48 N44 1.362 . S
C48 C45 1.431 . S
C48 C58 1.476 . S
H49 C43 0.929 . S
C50 O41 1.250 . S
C50 O42 1.258 . S
O51 Mn36 2.162 . S
O51 C39 1.281 . S
O52 Mn36 2.297 . S
O52 C39 1.236 . S
N53 Mn37 2.282 . S
N53 C54 1.328 . S
N53 C58 1.318 . S
C54 N53 1.328 . S
C54 C55 1.457 . S
C54 H59 0.929 . S
C55 C54 1.457 . S
C55 C56 1.291 . S
C55 H68 0.931 . S
C56 C55 1.291 . S
C56 C57 1.373 . S
C56 H69 0.929 . S
C57 C56 1.373 . S
C57 C58 1.396 . S
C57 C64 1.403 . S
C58 C48 1.476 . S
C58 N53 1.318 . S
C58 C57 1.396 . S
H59 C54 0.929 . S
O60 Mn36 2.385 . S
O60 C38 1.248 . S
O61 Mn36 2.209 1_455 S
O61 Mn37 2.215 . S
O61 C38 1.274 1_455 S
O62 Mn36 2.094 . S
O62 C40 1.240 1_655 S
O63 Mn37 2.117 . S
O63 C40 1.264 . S
C64 C57 1.403 . S
C64 C65 1.399 . S
C64 H70 0.929 . S
C65 C45 1.449 . S
C65 C64 1.399 . S
C65 H71 0.930 . S
H66 C46 0.931 . S
H67 C47 0.930 . S
H68 C55 0.931 . S
H69 C56 0.929 . S
H70 C64 0.929 . S
H71 C65 0.930 . S
Mn72 O77 2.095 . S
Mn72 O87 2.162 . S
Mn72 O88 2.297 . S
Mn72 O96 2.385 . S
Mn72 O97 2.209 . S
Mn72 O98 2.094 . S
Mn73 O78 2.121 . S
Mn73 N80 2.257 . S
Mn73 N89 2.282 . S
Mn73 O97 2.215 . S
Mn73 O99 2.117 . S
C74 O96 1.234 . S
C74 O97 1.283 . S
C75 O87 1.281 . S
C75 O88 1.236 . S
C76 O98 1.240 . S
C76 O99 1.264 . S
O77 Mn72 2.095 . S
O77 C86 1.250 . S
O78 Mn73 2.121 . S
O78 C86 1.258 . S
C79 N80 1.326 . S
C79 C83 1.460 . S
C79 H85 0.929 . S
N80 Mn73 2.257 . S
N80 C79 1.326 . S
N80 C84 1.362 . S
C81 C82 1.258 . S
C81 C84 1.431 . S
C81 C101 1.449 . S
C82 C81 1.258 . S
C82 C83 1.477 . S
C82 H102 0.931 . S
C83 C79 1.460 . S
C83 C82 1.477 . S
C83 H103 0.930 . S
C84 N80 1.362 . S
C84 C81 1.431 . S
C84 C94 1.476 . S
H85 C79 0.929 . S
C86 O77 1.250 . S
C86 O78 1.258 . S
O87 Mn72 2.162 . S
O87 C75 1.281 . S
O88 Mn72 2.297 . S
O88 C75 1.236 . S
N89 Mn73 2.282 . S
N89 C90 1.328 . S
N89 C94 1.318 . S
C90 N89 1.328 . S
C90 C91 1.457 . S
C90 H95 0.929 . S
C91 C90 1.457 . S
C91 C92 1.291 . S
C91 H104 0.931 . S
C92 C91 1.291 . S
C92 C93 1.373 . S
C92 H105 0.929 . S
C93 C92 1.373 . S
C93 C94 1.396 . S
C93 C100 1.403 . S
C94 C84 1.476 . S
C94 N89 1.318 . S
C94 C93 1.396 . S
H95 C90 0.929 . S
O96 Mn72 2.385 . S
O96 C74 1.234 . S
O97 Mn72 2.209 . S
O97 Mn73 2.215 . S
O97 C74 1.283 . S
O98 Mn72 2.094 . S
O98 C76 1.240 . S
O99 Mn73 2.117 . S
O99 C76 1.264 . S
C100 C93 1.403 . S
C100 C101 1.399 . S
C100 H106 0.929 . S
C101 C81 1.449 . S
C101 C100 1.399 . S
C101 H107 0.930 . S
H102 C82 0.931 . S
H103 C83 0.930 . S
H104 C91 0.931 . S
H105 C92 0.929 . S
H106 C100 0.929 . S
H107 C101 0.930 . S
Mn108 O113 2.095 . S
Mn108 O123 2.162 . S
Mn108 O124 2.297 . S
Mn108 O132 2.385 1_554 S
Mn108 O133 2.209 1_554 S
Mn108 O134 2.094 1_554 S
Mn109 O114 2.121 . S
Mn109 N116 2.257 . S
Mn109 N125 2.282 . S
Mn109 O133 2.215 . S
Mn109 O135 2.117 . S
C110 O132 1.234 . S
C110 O133 1.283 . S
C111 O123 1.281 . S
C111 O124 1.236 . S
C112 O134 1.240 . S
C112 O135 1.264 . S
O113 Mn108 2.095 . S
O113 C122 1.250 . S
O114 Mn109 2.121 . S
O114 C122 1.258 1_556 S
C115 N116 1.326 . S
C115 C119 1.460 . S
C115 H121 0.929 . S
N116 Mn109 2.257 . S
N116 C115 1.326 . S
N116 C120 1.362 . S
C117 C118 1.258 . S
C117 C120 1.431 . S
C117 C137 1.449 . S
C118 C117 1.258 . S
C118 C119 1.477 . S
C118 H138 0.931 . S
C119 C115 1.460 . S
C119 C118 1.477 . S
C119 H139 0.930 . S
C120 N116 1.362 . S
C120 C117 1.431 . S
C120 C130 1.476 . S
H121 C115 0.929 . S
C122 O113 1.250 . S
C122 O114 1.258 1_554 S
O123 Mn108 2.162 . S
O123 C111 1.281 . S
O124 Mn108 2.297 . S
O124 C111 1.236 . S
N125 Mn109 2.282 . S
N125 C126 1.328 . S
N125 C130 1.318 . S
C126 N125 1.328 . S
C126 C127 1.457 . S
C126 H131 0.929 . S
C127 C126 1.457 . S
C127 C128 1.291 . S
C127 H140 0.931 . S
C128 C127 1.291 . S
C128 C129 1.373 . S
C128 H141 0.929 . S
C129 C128 1.373 . S
C129 C130 1.396 . S
C129 C136 1.403 . S
C130 C120 1.476 . S
C130 N125 1.318 . S
C130 C129 1.396 . S
H131 C126 0.929 . S
O132 Mn108 2.385 1_556 S
O132 C110 1.234 . S
O133 Mn108 2.209 1_556 S
O133 Mn109 2.215 . S
O133 C110 1.283 . S
O134 Mn108 2.094 1_556 S
O134 C112 1.240 . S
O135 Mn109 2.117 . S
O135 C112 1.264 . S
C136 C129 1.403 . S
C136 C137 1.399 . S
C136 H142 0.929 . S
C137 C117 1.449 . S
C137 C136 1.399 . S
C137 H143 0.930 . S
H138 C118 0.931 . S
H139 C119 0.930 . S
H140 C127 0.931 . S
H141 C128 0.929 . S
H142 C136 0.929 . S
H143 C137 0.930 . S
Mn144 O149 2.095 . S
Mn144 O159 2.162 . S
Mn144 O160 2.297 . S
Mn144 O168 2.385 . S
Mn144 O169 2.209 . S
Mn144 O170 2.094 . S
Mn145 O150 2.121 . S
Mn145 N152 2.257 . S
Mn145 N161 2.282 . S
Mn145 O169 2.215 . S
Mn145 O171 2.117 . S
C146 O168 1.234 . S
C146 O169 1.283 . S
C147 O159 1.281 . S
C147 O160 1.236 . S
C148 O170 1.240 . S
C148 O171 1.264 . S
O149 Mn144 2.095 . S
O149 C158 1.250 . S
O150 Mn145 2.121 . S
O150 C158 1.258 . S
C151 N152 1.326 . S
C151 C155 1.460 . S
C151 H157 0.929 . S
N152 Mn145 2.257 . S
N152 C151 1.326 . S
N152 C156 1.362 . S
C153 C154 1.258 . S
C153 C156 1.431 . S
C153 C173 1.449 . S
C154 C153 1.258 . S
C154 C155 1.477 . S
C154 H174 0.931 . S
C155 C151 1.460 . S
C155 C154 1.477 . S
C155 H175 0.930 . S
C156 N152 1.362 . S
C156 C153 1.431 . S
C156 C166 1.476 . S
H157 C151 0.929 . S
C158 O149 1.250 . S
C158 O150 1.258 . S
O159 Mn144 2.162 . S
O159 C147 1.281 . S
O160 Mn144 2.297 . S
O160 C147 1.236 . S
N161 Mn145 2.282 . S
N161 C162 1.328 . S
N161 C166 1.318 . S
C162 N161 1.328 . S
C162 C163 1.457 . S
C162 H167 0.929 . S
C163 C162 1.457 . S
C163 C164 1.291 . S
C163 H176 0.931 . S
C164 C163 1.291 . S
C164 C165 1.373 . S
C164 H177 0.929 . S
C165 C164 1.373 . S
C165 C166 1.396 . S
C165 C172 1.403 . S
C166 C156 1.476 . S
C166 N161 1.318 . S
C166 C165 1.396 . S
H167 C162 0.929 . S
O168 Mn144 2.385 . S
O168 C146 1.234 . S
O169 Mn144 2.209 . S
O169 Mn145 2.215 . S
O169 C146 1.283 . S
O170 Mn144 2.094 . S
O170 C148 1.240 . S
O171 Mn145 2.117 . S
O171 C148 1.264 . S
C172 C165 1.403 . S
C172 C173 1.399 . S
C172 H178 0.929 . S
C173 C153 1.449 . S
C173 C172 1.399 . S
C173 H179 0.930 . S
H174 C154 0.931 . S
H175 C155 0.930 . S
H176 C163 0.931 . S
H177 C164 0.929 . S
H178 C172 0.929 . S
H179 C173 0.930 . S
Mn180 O185 2.095 . S
Mn180 O195 2.162 . S
Mn180 O196 2.297 . S
Mn180 O204 2.385 . S
Mn180 O205 2.209 . S
Mn180 O206 2.094 . S
Mn181 O186 2.121 . S
Mn181 N188 2.257 . S
Mn181 N197 2.282 . S
Mn181 O205 2.215 . S
Mn181 O207 2.117 . S
C182 O204 1.234 . S
C182 O205 1.283 . S
C183 O195 1.281 . S
C183 O196 1.236 . S
C184 O206 1.240 . S
C184 O207 1.264 . S
O185 Mn180 2.095 . S
O185 C194 1.250 . S
O186 Mn181 2.121 . S
O186 C194 1.258 . S
C187 N188 1.326 . S
C187 C191 1.460 . S
C187 H193 0.929 . S
N188 Mn181 2.257 . S
N188 C187 1.326 . S
N188 C192 1.362 . S
C189 C190 1.258 . S
C189 C192 1.431 . S
C189 C209 1.449 . S
C190 C189 1.258 . S
C190 C191 1.477 . S
C190 H210 0.931 . S
C191 C187 1.460 . S
C191 C190 1.477 . S
C191 H211 0.930 . S
C192 N188 1.362 . S
C192 C189 1.431 . S
C192 C202 1.476 . S
H193 C187 0.929 . S
C194 O185 1.250 . S
C194 O186 1.258 . S
O195 Mn180 2.162 . S
O195 C183 1.281 . S
O196 Mn180 2.297 . S
O196 C183 1.236 . S
N197 Mn181 2.282 . S
N197 C198 1.328 . S
N197 C202 1.318 . S
C198 N197 1.328 . S
C198 C199 1.457 . S
C198 H203 0.929 . S
C199 C198 1.457 . S
C199 C200 1.291 . S
C199 H212 0.931 . S
C200 C199 1.291 . S
C200 C201 1.373 . S
C200 H213 0.929 . S
C201 C200 1.373 . S
C201 C202 1.396 . S
C201 C208 1.403 . S
C202 C192 1.476 . S
C202 N197 1.318 . S
C202 C201 1.396 . S
H203 C198 0.929 . S
O204 Mn180 2.385 . S
O204 C182 1.234 . S
O205 Mn180 2.209 . S
O205 Mn181 2.215 . S
O205 C182 1.283 . S
O206 Mn180 2.094 . S
O206 C184 1.240 . S
O207 Mn181 2.117 . S
O207 C184 1.264 . S
C208 C201 1.403 . S
C208 C209 1.399 . S
C208 H214 0.929 . S
C209 C189 1.449 . S
C209 C208 1.399 . S
C209 H215 0.930 . S
H210 C190 0.931 . S
H211 C191 0.930 . S
H212 C199 0.931 . S
H213 C200 0.929 . S
H214 C208 0.929 . S
H215 C209 0.930 . S
Mn216 O221 2.095 . S
Mn216 O231 2.162 . S
Mn216 O232 2.297 . S
Mn216 O240 2.385 . S
Mn216 O241 2.209 . S
Mn216 O242 2.094 . S
Mn217 O222 2.121 . S
Mn217 N224 2.257 . S
Mn217 N233 2.282 . S
Mn217 O241 2.215 . S
Mn217 O243 2.117 . S
C218 O240 1.234 . S
C218 O241 1.283 . S
C219 O231 1.281 . S
C219 O232 1.236 . S
C220 O242 1.240 . S
C220 O243 1.264 . S
O221 Mn216 2.095 . S
O221 C230 1.250 . S
O222 Mn217 2.121 . S
O222 C230 1.258 . S
C223 N224 1.326 . S
C223 C227 1.460 . S
C223 H229 0.929 . S
N224 Mn217 2.257 . S
N224 C223 1.326 . S
N224 C228 1.362 . S
C225 C226 1.258 . S
C225 C228 1.431 . S
C225 C245 1.449 . S
C226 C225 1.258 . S
C226 C227 1.477 . S
C226 H246 0.931 . S
C227 C223 1.460 . S
C227 C226 1.477 . S
C227 H247 0.930 . S
C228 N224 1.362 . S
C228 C225 1.431 . S
C228 C238 1.476 . S
H229 C223 0.929 . S
C230 O221 1.250 . S
C230 O222 1.258 . S
O231 Mn216 2.162 . S
O231 C219 1.281 . S
O232 Mn216 2.297 . S
O232 C219 1.236 . S
N233 Mn217 2.282 . S
N233 C234 1.328 . S
N233 C238 1.318 . S
C234 N233 1.328 . S
C234 C235 1.457 . S
C234 H239 0.929 . S
C235 C234 1.457 . S
C235 C236 1.291 . S
C235 H248 0.931 . S
C236 C235 1.291 . S
C236 C237 1.373 . S
C236 H249 0.929 . S
C237 C236 1.373 . S
C237 C238 1.396 . S
C237 C244 1.403 . S
C238 C228 1.476 . S
C238 N233 1.318 . S
C238 C237 1.396 . S
H239 C234 0.929 . S
O240 Mn216 2.385 . S
O240 C218 1.234 . S
O241 Mn216 2.209 . S
O241 Mn217 2.215 . S
O241 C218 1.283 . S
O242 Mn216 2.094 . S
O242 C220 1.240 . S
O243 Mn217 2.117 . S
O243 C220 1.264 . S
C244 C237 1.403 . S
C244 C245 1.399 . S
C244 H250 0.929 . S
C245 C225 1.449 . S
C245 C244 1.399 . S
C245 H251 0.930 . S
H246 C226 0.931 . S
H247 C227 0.930 . S
H248 C235 0.931 . S
H249 C236 0.929 . S
H250 C244 0.929 . S
H251 C245 0.930 . S
Mn252 O257 2.095 . S
Mn252 O267 2.162 . S
Mn252 O268 2.297 . S
Mn252 O276 2.385 . S
Mn252 O277 2.209 . S
Mn252 O278 2.094 . S
Mn253 O258 2.121 . S
Mn253 N260 2.257 . S
Mn253 N269 2.282 . S
Mn253 O277 2.215 . S
Mn253 O279 2.117 . S
C254 O276 1.234 . S
C254 O277 1.283 . S
C255 O267 1.281 . S
C255 O268 1.236 . S
C256 O278 1.240 . S
C256 O279 1.264 . S
O257 Mn252 2.095 . S
O257 C266 1.250 . S
O258 Mn253 2.121 . S
O258 C266 1.258 . S
C259 N260 1.326 . S
C259 C263 1.460 . S
C259 H265 0.929 . S
N260 Mn253 2.257 . S
N260 C259 1.326 . S
N260 C264 1.362 . S
C261 C262 1.258 . S
C261 C264 1.431 . S
C261 C281 1.449 . S
C262 C261 1.258 . S
C262 C263 1.477 . S
C262 H282 0.931 . S
C263 C259 1.460 . S
C263 C262 1.477 . S
C263 H283 0.930 . S
C264 N260 1.362 . S
C264 C261 1.431 . S
C264 C274 1.476 . S
H265 C259 0.929 . S
C266 O257 1.250 . S
C266 O258 1.258 . S
O267 Mn252 2.162 . S
O267 C255 1.281 . S
O268 Mn252 2.297 . S
O268 C255 1.236 . S
N269 Mn253 2.282 . S
N269 C270 1.328 . S
N269 C274 1.318 . S
C270 N269 1.328 . S
C270 C271 1.457 . S
C270 H275 0.929 . S
C271 C270 1.457 . S
C271 C272 1.291 . S
C271 H284 0.931 . S
C272 C271 1.291 . S
C272 C273 1.373 . S
C272 H285 0.929 . S
C273 C272 1.373 . S
C273 C274 1.396 . S
C273 C280 1.403 . S
C274 C264 1.476 . S
C274 N269 1.318 . S
C274 C273 1.396 . S
H275 C270 0.929 . S
O276 Mn252 2.385 . S
O276 C254 1.234 . S
O277 Mn252 2.209 . S
O277 Mn253 2.215 . S
O277 C254 1.283 . S
O278 Mn252 2.094 . S
O278 C256 1.240 . S
O279 Mn253 2.117 . S
O279 C256 1.264 . S
C280 C273 1.403 . S
C280 C281 1.399 . S
C280 H286 0.929 . S
C281 C261 1.449 . S
C281 C280 1.399 . S
C281 H287 0.930 . S
H282 C262 0.931 . S
H283 C263 0.930 . S
H284 C271 0.931 . S
H285 C272 0.929 . S
H286 C280 0.929 . S
H287 C281 0.930 . S
Mn288 O293 2.095 . S
Mn288 O303 2.162 . S
Mn288 O304 2.297 . S
Mn288 O312 2.385 1_545 S
Mn288 O313 2.209 1_545 S
Mn288 O314 2.094 . S
Mn289 O294 2.121 . S
Mn289 N296 2.257 1_545 S
Mn289 N305 2.282 1_545 S
Mn289 O313 2.215 1_545 S
Mn289 O315 2.117 . S
C290 O312 1.234 . S
C290 O313 1.283 . S
C291 O303 1.281 . S
C291 O304 1.236 . S
C292 O314 1.240 . S
C292 O315 1.264 . S
O293 Mn288 2.095 . S
O293 C302 1.250 . S
O294 Mn289 2.121 . S
O294 C302 1.258 . S
C295 N296 1.326 . S
C295 C299 1.460 . S
C295 H301 0.929 . S
N296 Mn289 2.257 1_565 S
N296 C295 1.326 . S
N296 C300 1.362 . S
C297 C298 1.258 . S
C297 C300 1.431 . S
C297 C317 1.449 . S
C298 C297 1.258 . S
C298 C299 1.477 . S
C298 H318 0.931 . S
C299 C295 1.460 . S
C299 C298 1.477 . S
C299 H319 0.930 . S
C300 N296 1.362 . S
C300 C297 1.431 . S
C300 C310 1.476 . S
H301 C295 0.929 . S
C302 O293 1.250 . S
C302 O294 1.258 . S
O303 Mn288 2.162 . S
O303 C291 1.281 . S
O304 Mn288 2.297 . S
O304 C291 1.236 . S
N305 Mn289 2.282 1_565 S
N305 C306 1.328 . S
N305 C310 1.318 . S
C306 N305 1.328 . S
C306 C307 1.457 . S
C306 H311 0.929 . S
C307 C306 1.457 . S
C307 C308 1.291 . S
C307 H320 0.931 . S
C308 C307 1.291 . S
C308 C309 1.373 . S
C308 H321 0.929 . S
C309 C308 1.373 . S
C309 C310 1.396 . S
C309 C316 1.403 . S
C310 C300 1.476 . S
C310 N305 1.318 . S
C310 C309 1.396 . S
H311 C306 0.929 . S
O312 Mn288 2.385 1_565 S
O312 C290 1.234 . S
O313 Mn288 2.209 1_565 S
O313 Mn289 2.215 1_565 S
O313 C290 1.283 . S
O314 Mn288 2.094 . S
O314 C292 1.240 . S
O315 Mn289 2.117 . S
O315 C292 1.264 . S
C316 C309 1.403 . S
C316 C317 1.399 . S
C316 H322 0.929 . S
C317 C297 1.449 . S
C317 C316 1.399 . S
C317 H323 0.930 . S
H318 C298 0.931 . S
H319 C299 0.930 . S
H320 C307 0.931 . S
H321 C308 0.929 . S
H322 C316 0.929 . S
H323 C317 0.930 . S
Mn324 O329 2.095 . S
Mn324 O339 2.162 . S
Mn324 O340 2.297 . S
Mn324 O348 2.385 1_545 S
Mn324 O349 2.209 1_545 S
Mn324 O350 2.094 1_545 S
Mn325 O330 2.121 . S
Mn325 N332 2.257 . S
Mn325 N341 2.282 . S
Mn325 O349 2.215 . S
Mn325 O351 2.117 . S
C326 O348 1.234 . S
C326 O349 1.283 . S
C327 O339 1.281 . S
C327 O340 1.236 . S
C328 O350 1.240 . S
C328 O351 1.264 . S
O329 Mn324 2.095 . S
O329 C338 1.250 . S
O330 Mn325 2.121 . S
O330 C338 1.258 1_565 S
C331 N332 1.326 . S
C331 C335 1.460 . S
C331 H337 0.929 . S
N332 Mn325 2.257 . S
N332 C331 1.326 . S
N332 C336 1.362 . S
C333 C334 1.258 . S
C333 C336 1.431 . S
C333 C353 1.449 . S
C334 C333 1.258 . S
C334 C335 1.477 . S
C334 H354 0.931 . S
C335 C331 1.460 . S
C335 C334 1.477 . S
C335 H355 0.930 . S
C336 N332 1.362 . S
C336 C333 1.431 . S
C336 C346 1.476 . S
H337 C331 0.929 . S
C338 O329 1.250 . S
C338 O330 1.258 1_545 S
O339 Mn324 2.162 . S
O339 C327 1.281 . S
O340 Mn324 2.297 . S
O340 C327 1.236 . S
N341 Mn325 2.282 . S
N341 C342 1.328 . S
N341 C346 1.318 . S
C342 N341 1.328 . S
C342 C343 1.457 . S
C342 H347 0.929 . S
C343 C342 1.457 . S
C343 C344 1.291 . S
C343 H356 0.931 . S
C344 C343 1.291 . S
C344 C345 1.373 . S
C344 H357 0.929 . S
C345 C344 1.373 . S
C345 C346 1.396 . S
C345 C352 1.403 . S
C346 C336 1.476 . S
C346 N341 1.318 . S
C346 C345 1.396 . S
H347 C342 0.929 . S
O348 Mn324 2.385 1_565 S
O348 C326 1.234 . S
O349 Mn324 2.209 1_565 S
O349 Mn325 2.215 . S
O349 C326 1.283 . S
O350 Mn324 2.094 1_565 S
O350 C328 1.240 . S
O351 Mn325 2.117 . S
O351 C328 1.264 . S
C352 C345 1.403 . S
C352 C353 1.399 . S
C352 H358 0.929 . S
C353 C333 1.449 . S
C353 C352 1.399 . S
C353 H359 0.930 . S
H354 C334 0.931 . S
H355 C335 0.930 . S
H356 C343 0.931 . S
H357 C344 0.929 . S
H358 C352 0.929 . S
H359 C353 0.930 . S
Mn360 O365 2.095 . S
Mn360 O375 2.162 . S
Mn360 O376 2.297 . S
Mn360 O384 2.385 . S
Mn360 O385 2.209 . S
Mn360 O386 2.094 . S
Mn361 O366 2.121 . S
Mn361 N368 2.257 . S
Mn361 N377 2.282 . S
Mn361 O385 2.215 . S
Mn361 O387 2.117 . S
C362 O384 1.234 . S
C362 O385 1.283 . S
C363 O375 1.281 . S
C363 O376 1.236 . S
C364 O386 1.240 . S
C364 O387 1.264 . S
O365 Mn360 2.095 . S
O365 C374 1.250 . S
O366 Mn361 2.121 . S
O366 C374 1.258 . S
C367 N368 1.326 . S
C367 C371 1.460 . S
C367 H373 0.929 . S
N368 Mn361 2.257 . S
N368 C367 1.326 . S
N368 C372 1.362 . S
C369 C370 1.258 . S
C369 C372 1.431 . S
C369 C389 1.449 . S
C370 C369 1.258 . S
C370 C371 1.477 . S
C370 H390 0.931 . S
C371 C367 1.460 . S
C371 C370 1.477 . S
C371 H391 0.930 . S
C372 N368 1.362 . S
C372 C369 1.431 . S
C372 C382 1.476 . S
H373 C367 0.929 . S
C374 O365 1.250 . S
C374 O366 1.258 . S
O375 Mn360 2.162 . S
O375 C363 1.281 . S
O376 Mn360 2.297 . S
O376 C363 1.236 . S
N377 Mn361 2.282 . S
N377 C378 1.328 . S
N377 C382 1.318 . S
C378 N377 1.328 . S
C378 C379 1.457 . S
C378 H383 0.929 . S
C379 C378 1.457 . S
C379 C380 1.291 . S
C379 H392 0.931 . S
C380 C379 1.291 . S
C380 C381 1.373 . S
C380 H393 0.929 . S
C381 C380 1.373 . S
C381 C382 1.396 . S
C381 C388 1.403 . S
C382 C372 1.476 . S
C382 N377 1.318 . S
C382 C381 1.396 . S
H383 C378 0.929 . S
O384 Mn360 2.385 . S
O384 C362 1.234 . S
O385 Mn360 2.209 . S
O385 Mn361 2.215 . S
O385 C362 1.283 . S
O386 Mn360 2.094 . S
O386 C364 1.240 . S
O387 Mn361 2.117 . S
O387 C364 1.264 . S
C388 C381 1.403 . S
C388 C389 1.399 . S
C388 H394 0.929 . S
C389 C369 1.449 . S
C389 C388 1.399 . S
C389 H395 0.930 . S
H390 C370 0.931 . S
H391 C371 0.930 . S
H392 C379 0.931 . S
H393 C380 0.929 . S
H394 C388 0.929 . S
H395 C389 0.930 . S
Mn396 O401 2.095 1_554 S
Mn396 O411 2.162 . S
Mn396 O412 2.297 . S
Mn396 O420 2.385 . S
Mn396 O421 2.209 1_554 S
Mn396 O422 2.094 . S
Mn397 O402 2.121 . S
Mn397 N404 2.257 . S
Mn397 N413 2.282 . S
Mn397 O421 2.215 . S
Mn397 O423 2.117 . S
C398 O420 1.234 . S
C398 O421 1.283 1_554 S
C399 O411 1.281 . S
C399 O412 1.236 . S
C400 O422 1.240 . S
C400 O423 1.264 1_554 S
O401 Mn396 2.095 1_556 S
O401 C410 1.250 . S
O402 Mn397 2.121 . S
O402 C410 1.258 . S
C403 N404 1.326 . S
C403 C407 1.460 . S
C403 H409 0.929 . S
N404 Mn397 2.257 . S
N404 C403 1.326 . S
N404 C408 1.362 . S
C405 C406 1.258 . S
C405 C408 1.431 . S
C405 C425 1.449 . S
C406 C405 1.258 . S
C406 C407 1.477 . S
C406 H426 0.931 . S
C407 C403 1.460 . S
C407 C406 1.477 . S
C407 H427 0.930 . S
C408 N404 1.362 . S
C408 C405 1.431 . S
C408 C418 1.476 . S
H409 C403 0.929 . S
C410 O401 1.250 . S
C410 O402 1.258 . S
O411 Mn396 2.162 . S
O411 C399 1.281 . S
O412 Mn396 2.297 . S
O412 C399 1.236 . S
N413 Mn397 2.282 . S
N413 C414 1.328 1_556 S
N413 C418 1.318 . S
C414 N413 1.328 1_554 S
C414 C415 1.457 . S
C414 H419 0.929 . S
C415 C414 1.457 . S
C415 C416 1.291 . S
C415 H428 0.931 . S
C416 C415 1.291 . S
C416 C417 1.373 1_554 S
C416 H429 0.929 . S
C417 C416 1.373 1_556 S
C417 C418 1.396 . S
C417 C424 1.403 . S
C418 C408 1.476 . S
C418 N413 1.318 . S
C418 C417 1.396 . S
H419 C414 0.929 . S
O420 Mn396 2.385 . S
O420 C398 1.234 . S
O421 Mn396 2.209 1_556 S
O421 Mn397 2.215 . S
O421 C398 1.283 1_556 S
O422 Mn396 2.094 . S
O422 C400 1.240 . S
O423 Mn397 2.117 . S
O423 C400 1.264 1_556 S
C424 C417 1.403 . S
C424 C425 1.399 . S
C424 H430 0.929 . S
C425 C405 1.449 . S
C425 C424 1.399 . S
C425 H431 0.930 . S
H426 C406 0.931 . S
H427 C407 0.930 . S
H428 C415 0.931 . S
H429 C416 0.929 . S
H430 C424 0.929 . S
H431 C425 0.930 . S
Mn432 O437 2.095 . S
Mn432 O447 2.162 . S
Mn432 O448 2.297 . S
Mn432 O456 2.385 . S
Mn432 O457 2.209 . S
Mn432 O458 2.094 1_545 S
Mn433 O438 2.121 . S
Mn433 N440 2.257 . S
Mn433 N449 2.282 1_545 S
Mn433 O457 2.215 . S
Mn433 O459 2.117 1_545 S
C434 O456 1.234 . S
C434 O457 1.283 . S
C435 O447 1.281 . S
C435 O448 1.236 . S
C436 O458 1.240 . S
C436 O459 1.264 . S
O437 Mn432 2.095 . S
O437 C446 1.250 . S
O438 Mn433 2.121 . S
O438 C446 1.258 . S
C439 N440 1.326 . S
C439 C443 1.460 . S
C439 H445 0.929 . S
N440 Mn433 2.257 . S
N440 C439 1.326 . S
N440 C444 1.362 . S
C441 C442 1.258 . S
C441 C444 1.431 . S
C441 C461 1.449 . S
C442 C441 1.258 . S
C442 C443 1.477 . S
C442 H462 0.931 . S
C443 C439 1.460 . S
C443 C442 1.477 . S
C443 H463 0.930 . S
C444 N440 1.362 . S
C444 C441 1.431 . S
C444 C454 1.476 . S
H445 C439 0.929 . S
C446 O437 1.250 . S
C446 O438 1.258 . S
O447 Mn432 2.162 . S
O447 C435 1.281 . S
O448 Mn432 2.297 . S
O448 C435 1.236 . S
N449 Mn433 2.282 1_565 S
N449 C450 1.328 . S
N449 C454 1.318 1_565 S
C450 N449 1.328 . S
C450 C451 1.457 . S
C450 H455 0.929 . S
C451 C450 1.457 . S
C451 C452 1.291 . S
C451 H464 0.931 . S
C452 C451 1.291 . S
C452 C453 1.373 . S
C452 H465 0.929 . S
C453 C452 1.373 . S
C453 C454 1.396 1_565 S
C453 C460 1.403 1_565 S
C454 C444 1.476 . S
C454 N449 1.318 1_545 S
C454 C453 1.396 1_545 S
H455 C450 0.929 . S
O456 Mn432 2.385 . S
O456 C434 1.234 . S
O457 Mn432 2.209 . S
O457 Mn433 2.215 . S
O457 C434 1.283 . S
O458 Mn432 2.094 1_565 S
O458 C436 1.240 . S
O459 Mn433 2.117 1_565 S
O459 C436 1.264 . S
C460 C453 1.403 1_545 S
C460 C461 1.399 . S
C460 H466 0.929 1_545 S
C461 C441 1.449 . S
C461 C460 1.399 . S
C461 H467 0.930 . S
H462 C442 0.931 . S
H463 C443 0.930 . S
H464 C451 0.931 . S
H465 C452 0.929 . S
H466 C460 0.929 1_565 S
H467 C461 0.930 . S
Mn468 O473 2.095 . S
Mn468 O483 2.162 . S
Mn468 O484 2.297 . S
Mn468 O492 2.385 . S
Mn468 O493 2.209 . S
Mn468 O494 2.094 . S
Mn469 O474 2.121 . S
Mn469 N476 2.257 . S
Mn469 N485 2.282 . S
Mn469 O493 2.215 . S
Mn469 O495 2.117 . S
C470 O492 1.234 . S
C470 O493 1.283 . S
C471 O483 1.281 . S
C471 O484 1.236 . S
C472 O494 1.240 . S
C472 O495 1.264 . S
O473 Mn468 2.095 . S
O473 C482 1.250 . S
O474 Mn469 2.121 . S
O474 C482 1.258 . S
C475 N476 1.326 . S
C475 C479 1.460 . S
C475 H481 0.929 . S
N476 Mn469 2.257 . S
N476 C475 1.326 . S
N476 C480 1.362 . S
C477 C478 1.258 . S
C477 C480 1.431 . S
C477 C497 1.449 . S
C478 C477 1.258 . S
C478 C479 1.477 . S
C478 H498 0.931 . S
C479 C475 1.460 . S
C479 C478 1.477 . S
C479 H499 0.930 . S
C480 N476 1.362 . S
C480 C477 1.431 . S
C480 C490 1.476 . S
H481 C475 0.929 . S
C482 O473 1.250 . S
C482 O474 1.258 . S
O483 Mn468 2.162 . S
O483 C471 1.281 . S
O484 Mn468 2.297 . S
O484 C471 1.236 . S
N485 Mn469 2.282 . S
N485 C486 1.328 . S
N485 C490 1.318 . S
C486 N485 1.328 . S
C486 C487 1.457 . S
C486 H491 0.929 . S
C487 C486 1.457 . S
C487 C488 1.291 . S
C487 H500 0.931 . S
C488 C487 1.291 . S
C488 C489 1.373 . S
C488 H501 0.929 . S
C489 C488 1.373 . S
C489 C490 1.396 . S
C489 C496 1.403 . S
C490 C480 1.476 . S
C490 N485 1.318 . S
C490 C489 1.396 . S
H491 C486 0.929 . S
O492 Mn468 2.385 . S
O492 C470 1.234 . S
O493 Mn468 2.209 . S
O493 Mn469 2.215 . S
O493 C470 1.283 . S
O494 Mn468 2.094 . S
O494 C472 1.240 . S
O495 Mn469 2.117 . S
O495 C472 1.264 . S
C496 C489 1.403 . S
C496 C497 1.399 . S
C496 H502 0.929 . S
C497 C477 1.449 . S
C497 C496 1.399 . S
C497 H503 0.930 . S
H498 C478 0.931 . S
H499 C479 0.930 . S
H500 C487 0.931 . S
H501 C488 0.929 . S
H502 C496 0.929 . S
H503 C497 0.930 . S
Mn504 O509 2.095 . S
Mn504 O519 2.162 . S
Mn504 O520 2.297 . S
Mn504 O528 2.385 . S
Mn504 O529 2.209 . S
Mn504 O530 2.094 . S
Mn505 O510 2.121 . S
Mn505 N512 2.257 . S
Mn505 N521 2.282 . S
Mn505 O529 2.215 . S
Mn505 O531 2.117 . S
C506 O528 1.234 . S
C506 O529 1.283 . S
C507 O519 1.281 . S
C507 O520 1.236 . S
C508 O530 1.240 . S
C508 O531 1.264 . S
O509 Mn504 2.095 . S
O509 C518 1.250 . S
O510 Mn505 2.121 . S
O510 C518 1.258 . S
C511 N512 1.326 . S
C511 C515 1.460 . S
C511 H517 0.929 . S
N512 Mn505 2.257 . S
N512 C511 1.326 . S
N512 C516 1.362 . S
C513 C514 1.258 . S
C513 C516 1.431 . S
C513 C533 1.449 . S
C514 C513 1.258 . S
C514 C515 1.477 . S
C514 H534 0.931 . S
C515 C511 1.460 . S
C515 C514 1.477 . S
C515 H535 0.930 . S
C516 N512 1.362 . S
C516 C513 1.431 . S
C516 C526 1.476 . S
H517 C511 0.929 . S
C518 O509 1.250 . S
C518 O510 1.258 . S
O519 Mn504 2.162 . S
O519 C507 1.281 . S
O520 Mn504 2.297 . S
O520 C507 1.236 . S
N521 Mn505 2.282 . S
N521 C522 1.328 . S
N521 C526 1.318 . S
C522 N521 1.328 . S
C522 C523 1.457 . S
C522 H527 0.929 . S
C523 C522 1.457 . S
C523 C524 1.291 . S
C523 H536 0.931 . S
C524 C523 1.291 . S
C524 C525 1.373 . S
C524 H537 0.929 . S
C525 C524 1.373 . S
C525 C526 1.396 . S
C525 C532 1.403 . S
C526 C516 1.476 . S
C526 N521 1.318 . S
C526 C525 1.396 . S
H527 C522 0.929 . S
O528 Mn504 2.385 . S
O528 C506 1.234 . S
O529 Mn504 2.209 . S
O529 Mn505 2.215 . S
O529 C506 1.283 . S
O530 Mn504 2.094 . S
O530 C508 1.240 . S
O531 Mn505 2.117 . S
O531 C508 1.264 . S
C532 C525 1.403 . S
C532 C533 1.399 . S
C532 H538 0.929 . S
C533 C513 1.449 . S
C533 C532 1.399 . S
C533 H539 0.930 . S
H534 C514 0.931 . S
H535 C515 0.930 . S
H536 C523 0.931 . S
H537 C524 0.929 . S
H538 C532 0.929 . S
H539 C533 0.930 . S
Mn540 O545 2.095 . S
Mn540 O555 2.162 . S
Mn540 O556 2.297 . S
Mn540 O564 2.385 . S
Mn540 O565 2.209 . S
Mn540 O566 2.094 . S
Mn541 O546 2.121 . S
Mn541 N548 2.257 . S
Mn541 N557 2.282 . S
Mn541 O565 2.215 . S
Mn541 O567 2.117 . S
C542 O564 1.234 . S
C542 O565 1.283 . S
C543 O555 1.281 . S
C543 O556 1.236 . S
C544 O566 1.240 . S
C544 O567 1.264 . S
O545 Mn540 2.095 . S
O545 C554 1.250 . S
O546 Mn541 2.121 . S
O546 C554 1.258 . S
C547 N548 1.326 . S
C547 C551 1.460 . S
C547 H553 0.929 . S
N548 Mn541 2.257 . S
N548 C547 1.326 . S
N548 C552 1.362 . S
C549 C550 1.258 . S
C549 C552 1.431 . S
C549 C569 1.449 . S
C550 C549 1.258 . S
C550 C551 1.477 . S
C550 H570 0.931 . S
C551 C547 1.460 . S
C551 C550 1.477 . S
C551 H571 0.930 . S
C552 N548 1.362 . S
C552 C549 1.431 . S
C552 C562 1.476 . S
H553 C547 0.929 . S
C554 O545 1.250 . S
C554 O546 1.258 . S
O555 Mn540 2.162 . S
O555 C543 1.281 . S
O556 Mn540 2.297 . S
O556 C543 1.236 . S
N557 Mn541 2.282 . S
N557 C558 1.328 . S
N557 C562 1.318 . S
C558 N557 1.328 . S
C558 C559 1.457 . S
C558 H563 0.929 . S
C559 C558 1.457 . S
C559 C560 1.291 . S
C559 H572 0.931 . S
C560 C559 1.291 . S
C560 C561 1.373 . S
C560 H573 0.929 . S
C561 C560 1.373 . S
C561 C562 1.396 . S
C561 C568 1.403 . S
C562 C552 1.476 . S
C562 N557 1.318 . S
C562 C561 1.396 . S
H563 C558 0.929 . S
O564 Mn540 2.385 . S
O564 C542 1.234 . S
O565 Mn540 2.209 . S
O565 Mn541 2.215 . S
O565 C542 1.283 . S
O566 Mn540 2.094 . S
O566 C544 1.240 . S
O567 Mn541 2.117 . S
O567 C544 1.264 . S
C568 C561 1.403 . S
C568 C569 1.399 . S
C568 H574 0.929 . S
C569 C549 1.449 . S
C569 C568 1.399 . S
C569 H575 0.930 . S
H570 C550 0.931 . S
H571 C551 0.930 . S
H572 C559 0.931 . S
H573 C560 0.929 . S
H574 C568 0.929 . S
H575 C569 0.930 . S
Mn576 O581 2.095 . S
Mn576 O591 2.162 . S
Mn576 O592 2.297 . S
Mn576 O600 2.385 1_554 S
Mn576 O601 2.209 1_554 S
Mn576 O602 2.094 . S
Mn577 O582 2.121 . S
Mn577 N584 2.257 1_554 S
Mn577 N593 2.282 1_554 S
Mn577 O601 2.215 1_554 S
Mn577 O603 2.117 . S
C578 O600 1.234 . S
C578 O601 1.283 . S
C579 O591 1.281 . S
C579 O592 1.236 . S
C580 O602 1.240 . S
C580 O603 1.264 . S
O581 Mn576 2.095 . S
O581 C590 1.250 . S
O582 Mn577 2.121 . S
O582 C590 1.258 . S
C583 N584 1.326 . S
C583 C587 1.460 . S
C583 H589 0.929 . S
N584 Mn577 2.257 1_556 S
N584 C583 1.326 . S
N584 C588 1.362 . S
C585 C586 1.258 . S
C585 C588 1.431 . S
C585 C605 1.449 . S
C586 C585 1.258 . S
C586 C587 1.477 . S
C586 H606 0.931 . S
C587 C583 1.460 . S
C587 C586 1.477 . S
C587 H607 0.930 . S
C588 N584 1.362 . S
C588 C585 1.431 . S
C588 C598 1.476 . S
H589 C583 0.929 . S
C590 O581 1.250 . S
C590 O582 1.258 . S
O591 Mn576 2.162 . S
O591 C579 1.281 . S
O592 Mn576 2.297 . S
O592 C579 1.236 . S
N593 Mn577 2.282 1_556 S
N593 C594 1.328 . S
N593 C598 1.318 . S
C594 N593 1.328 . S
C594 C595 1.457 . S
C594 H599 0.929 . S
C595 C594 1.457 . S
C595 C596 1.291 . S
C595 H608 0.931 . S
C596 C595 1.291 . S
C596 C597 1.373 . S
C596 H609 0.929 . S
C597 C596 1.373 . S
C597 C598 1.396 . S
C597 C604 1.403 . S
C598 C588 1.476 . S
C598 N593 1.318 . S
C598 C597 1.396 . S
H599 C594 0.929 . S
O600 Mn576 2.385 1_556 S
O600 C578 1.234 . S
O601 Mn576 2.209 1_556 S
O601 Mn577 2.215 1_556 S
O601 C578 1.283 . S
O602 Mn576 2.094 . S
O602 C580 1.240 . S
O603 Mn577 2.117 . S
O603 C580 1.264 . S
C604 C597 1.403 . S
C604 C605 1.399 . S
C604 H610 0.929 . S
C605 C585 1.449 . S
C605 C604 1.399 . S
C605 H611 0.930 . S
H606 C586 0.931 . S
H607 C587 0.930 . S
H608 C595 0.931 . S
H609 C596 0.929 . S
H610 C604 0.929 . S
H611 C605 0.930 . S
Mn612 O617 2.095 . S
Mn612 O627 2.162 . S
Mn612 O628 2.297 . S
Mn612 O636 2.385 . S
Mn612 O637 2.209 . S
Mn612 O638 2.094 . S
Mn613 O618 2.121 . S
Mn613 N620 2.257 . S
Mn613 N629 2.282 . S
Mn613 O637 2.215 . S
Mn613 O639 2.117 . S
C614 O636 1.234 . S
C614 O637 1.283 . S
C615 O627 1.281 . S
C615 O628 1.236 . S
C616 O638 1.240 . S
C616 O639 1.264 . S
O617 Mn612 2.095 . S
O617 C626 1.250 . S
O618 Mn613 2.121 . S
O618 C626 1.258 . S
C619 N620 1.326 . S
C619 C623 1.460 . S
C619 H625 0.929 . S
N620 Mn613 2.257 . S
N620 C619 1.326 . S
N620 C624 1.362 . S
C621 C622 1.258 . S
C621 C624 1.431 . S
C621 C641 1.449 . S
C622 C621 1.258 . S
C622 C623 1.477 . S
C622 H642 0.931 . S
C623 C619 1.460 . S
C623 C622 1.477 . S
C623 H643 0.930 . S
C624 N620 1.362 . S
C624 C621 1.431 . S
C624 C634 1.476 . S
H625 C619 0.929 . S
C626 O617 1.250 . S
C626 O618 1.258 . S
O627 Mn612 2.162 . S
O627 C615 1.281 . S
O628 Mn612 2.297 . S
O628 C615 1.236 . S
N629 Mn613 2.282 . S
N629 C630 1.328 . S
N629 C634 1.318 . S
C630 N629 1.328 . S
C630 C631 1.457 . S
C630 H635 0.929 . S
C631 C630 1.457 . S
C631 C632 1.291 . S
C631 H644 0.931 . S
C632 C631 1.291 . S
C632 C633 1.373 . S
C632 H645 0.929 . S
C633 C632 1.373 . S
C633 C634 1.396 . S
C633 C640 1.403 . S
C634 C624 1.476 . S
C634 N629 1.318 . S
C634 C633 1.396 . S
H635 C630 0.929 . S
O636 Mn612 2.385 . S
O636 C614 1.234 . S
O637 Mn612 2.209 . S
O637 Mn613 2.215 . S
O637 C614 1.283 . S
O638 Mn612 2.094 . S
O638 C616 1.240 . S
O639 Mn613 2.117 . S
O639 C616 1.264 . S
C640 C633 1.403 . S
C640 C641 1.399 . S
C640 H646 0.929 . S
C641 C621 1.449 . S
C641 C640 1.399 . S
C641 H647 0.930 . S
H642 C622 0.931 . S
H643 C623 0.930 . S
H644 C631 0.931 . S
H645 C632 0.929 . S
H646 C640 0.929 . S
H647 C641 0.930 . S
Mn648 O653 2.095 . S
Mn648 O663 2.162 . S
Mn648 O664 2.297 . S
Mn648 O672 2.385 1_455 S
Mn648 O673 2.209 1_455 S
Mn648 O674 2.094 1_455 S
Mn649 O654 2.121 . S
Mn649 N656 2.257 . S
Mn649 N665 2.282 . S
Mn649 O673 2.215 . S
Mn649 O675 2.117 . S
C650 O672 1.234 . S
C650 O673 1.283 . S
C651 O663 1.281 . S
C651 O664 1.236 . S
C652 O674 1.240 . S
C652 O675 1.264 . S
O653 Mn648 2.095 . S
O653 C662 1.250 . S
O654 Mn649 2.121 . S
O654 C662 1.258 1_655 S
C655 N656 1.326 . S
C655 C659 1.460 . S
C655 H661 0.929 . S
N656 Mn649 2.257 . S
N656 C655 1.326 . S
N656 C660 1.362 . S
C657 C658 1.258 . S
C657 C660 1.431 . S
C657 C677 1.449 . S
C658 C657 1.258 . S
C658 C659 1.477 . S
C658 H678 0.931 . S
C659 C655 1.460 . S
C659 C658 1.477 . S
C659 H679 0.930 . S
C660 N656 1.362 . S
C660 C657 1.431 . S
C660 C670 1.476 . S
H661 C655 0.929 . S
C662 O653 1.250 . S
C662 O654 1.258 1_455 S
O663 Mn648 2.162 . S
O663 C651 1.281 . S
O664 Mn648 2.297 . S
O664 C651 1.236 . S
N665 Mn649 2.282 . S
N665 C666 1.328 . S
N665 C670 1.318 . S
C666 N665 1.328 . S
C666 C667 1.457 . S
C666 H671 0.929 . S
C667 C666 1.457 . S
C667 C668 1.291 . S
C667 H680 0.931 . S
C668 C667 1.291 . S
C668 C669 1.373 . S
C668 H681 0.929 . S
C669 C668 1.373 . S
C669 C670 1.396 . S
C669 C676 1.403 . S
C670 C660 1.476 . S
C670 N665 1.318 . S
C670 C669 1.396 . S
H671 C666 0.929 . S
O672 Mn648 2.385 1_655 S
O672 C650 1.234 . S
O673 Mn648 2.209 1_655 S
O673 Mn649 2.215 . S
O673 C650 1.283 . S
O674 Mn648 2.094 1_655 S
O674 C652 1.240 . S
O675 Mn649 2.117 . S
O675 C652 1.264 . S
C676 C669 1.403 . S
C676 C677 1.399 . S
C676 H682 0.929 . S
C677 C657 1.449 . S
C677 C676 1.399 . S
C677 H683 0.930 . S
H678 C658 0.931 . S
H679 C659 0.930 . S
H680 C667 0.931 . S
H681 C668 0.929 . S
H682 C676 0.929 . S
H683 C677 0.930 . S
Mn684 O689 2.095 . S
Mn684 O699 2.162 . S
Mn684 O700 2.297 . S
Mn684 O708 2.385 . S
Mn684 O709 2.209 . S
Mn684 O710 2.094 . S
Mn685 O690 2.121 . S
Mn685 N692 2.257 . S
Mn685 N701 2.282 . S
Mn685 O709 2.215 . S
Mn685 O711 2.117 . S
C686 O708 1.234 . S
C686 O709 1.283 . S
C687 O699 1.281 . S
C687 O700 1.236 . S
C688 O710 1.240 . S
C688 O711 1.264 . S
O689 Mn684 2.095 . S
O689 C698 1.250 . S
O690 Mn685 2.121 . S
O690 C698 1.258 . S
C691 N692 1.326 . S
C691 C695 1.460 . S
C691 H697 0.929 . S
N692 Mn685 2.257 . S
N692 C691 1.326 . S
N692 C696 1.362 . S
C693 C694 1.258 . S
C693 C696 1.431 . S
C693 C713 1.449 . S
C694 C693 1.258 . S
C694 C695 1.477 . S
C694 H714 0.931 . S
C695 C691 1.460 . S
C695 C694 1.477 . S
C695 H715 0.930 . S
C696 N692 1.362 . S
C696 C693 1.431 . S
C696 C706 1.476 . S
H697 C691 0.929 . S
C698 O689 1.250 . S
C698 O690 1.258 . S
O699 Mn684 2.162 . S
O699 C687 1.281 . S
O700 Mn684 2.297 . S
O700 C687 1.236 . S
N701 Mn685 2.282 . S
N701 C702 1.328 . S
N701 C706 1.318 . S
C702 N701 1.328 . S
C702 C703 1.457 . S
C702 H707 0.929 . S
C703 C702 1.457 . S
C703 C704 1.291 . S
C703 H716 0.931 . S
C704 C703 1.291 . S
C704 C705 1.373 . S
C704 H717 0.929 . S
C705 C704 1.373 . S
C705 C706 1.396 . S
C705 C712 1.403 . S
C706 C696 1.476 . S
C706 N701 1.318 . S
C706 C705 1.396 . S
H707 C702 0.929 . S
O708 Mn684 2.385 . S
O708 C686 1.234 . S
O709 Mn684 2.209 . S
O709 Mn685 2.215 . S
O709 C686 1.283 . S
O710 Mn684 2.094 . S
O710 C688 1.240 . S
O711 Mn685 2.117 . S
O711 C688 1.264 . S
C712 C705 1.403 . S
C712 C713 1.399 . S
C712 H718 0.929 . S
C713 C693 1.449 . S
C713 C712 1.399 . S
C713 H719 0.930 . S
H714 C694 0.931 . S
H715 C695 0.930 . S
H716 C703 0.931 . S
H717 C704 0.929 . S
H718 C712 0.929 . S
H719 C713 0.930 . S
Mn720 O725 2.095 . S
Mn720 O735 2.162 . S
Mn720 O736 2.297 . S
Mn720 O744 2.385 . S
Mn720 O745 2.209 . S
Mn720 O746 2.094 . S
Mn721 O726 2.121 . S
Mn721 N728 2.257 . S
Mn721 N737 2.282 . S
Mn721 O745 2.215 . S
Mn721 O747 2.117 . S
C722 O744 1.234 . S
C722 O745 1.283 . S
C723 O735 1.281 . S
C723 O736 1.236 . S
C724 O746 1.240 . S
C724 O747 1.264 . S
O725 Mn720 2.095 . S
O725 C734 1.250 . S
O726 Mn721 2.121 . S
O726 C734 1.258 . S
C727 N728 1.326 . S
C727 C731 1.460 . S
C727 H733 0.929 . S
N728 Mn721 2.257 . S
N728 C727 1.326 . S
N728 C732 1.362 . S
C729 C730 1.258 . S
C729 C732 1.431 . S
C729 C749 1.449 . S
C730 C729 1.258 . S
C730 C731 1.477 . S
C730 H750 0.931 . S
C731 C727 1.460 . S
C731 C730 1.477 . S
C731 H751 0.930 . S
C732 N728 1.362 . S
C732 C729 1.431 . S
C732 C742 1.476 . S
H733 C727 0.929 . S
C734 O725 1.250 . S
C734 O726 1.258 . S
O735 Mn720 2.162 . S
O735 C723 1.281 . S
O736 Mn720 2.297 . S
O736 C723 1.236 . S
N737 Mn721 2.282 . S
N737 C738 1.328 . S
N737 C742 1.318 . S
C738 N737 1.328 . S
C738 C739 1.457 . S
C738 H743 0.929 . S
C739 C738 1.457 . S
C739 C740 1.291 . S
C739 H752 0.931 . S
C740 C739 1.291 . S
C740 C741 1.373 . S
C740 H753 0.929 . S
C741 C740 1.373 . S
C741 C742 1.396 . S
C741 C748 1.403 . S
C742 C732 1.476 . S
C742 N737 1.318 . S
C742 C741 1.396 . S
H743 C738 0.929 . S
O744 Mn720 2.385 . S
O744 C722 1.234 . S
O745 Mn720 2.209 . S
O745 Mn721 2.215 . S
O745 C722 1.283 . S
O746 Mn720 2.094 . S
O746 C724 1.240 . S
O747 Mn721 2.117 . S
O747 C724 1.264 . S
C748 C741 1.403 . S
C748 C749 1.399 . S
C748 H754 0.929 . S
C749 C729 1.449 . S
C749 C748 1.399 . S
C749 H755 0.930 . S
H750 C730 0.931 . S
H751 C731 0.930 . S
H752 C739 0.931 . S
H753 C740 0.929 . S
H754 C748 0.929 . S
H755 C749 0.930 . S
Mn756 O761 2.095 . S
Mn756 O771 2.162 . S
Mn756 O772 2.297 . S
Mn756 O780 2.385 . S
Mn756 O781 2.209 . S
Mn756 O782 2.094 . S
Mn757 O762 2.121 . S
Mn757 N764 2.257 . S
Mn757 N773 2.282 . S
Mn757 O781 2.215 . S
Mn757 O783 2.117 . S
C758 O780 1.234 . S
C758 O781 1.283 . S
C759 O771 1.281 . S
C759 O772 1.236 . S
C760 O782 1.240 . S
C760 O783 1.264 . S
O761 Mn756 2.095 . S
O761 C770 1.250 . S
O762 Mn757 2.121 . S
O762 C770 1.258 . S
C763 N764 1.326 . S
C763 C767 1.460 . S
C763 H769 0.929 . S
N764 Mn757 2.257 . S
N764 C763 1.326 . S
N764 C768 1.362 . S
C765 C766 1.258 . S
C765 C768 1.431 . S
C765 C785 1.449 . S
C766 C765 1.258 . S
C766 C767 1.477 . S
C766 H786 0.931 . S
C767 C763 1.460 . S
C767 C766 1.477 . S
C767 H787 0.930 . S
C768 N764 1.362 . S
C768 C765 1.431 . S
C768 C778 1.476 . S
H769 C763 0.929 . S
C770 O761 1.250 . S
C770 O762 1.258 . S
O771 Mn756 2.162 . S
O771 C759 1.281 . S
O772 Mn756 2.297 . S
O772 C759 1.236 . S
N773 Mn757 2.282 . S
N773 C774 1.328 . S
N773 C778 1.318 . S
C774 N773 1.328 . S
C774 C775 1.457 . S
C774 H779 0.929 . S
C775 C774 1.457 . S
C775 C776 1.291 . S
C775 H788 0.931 . S
C776 C775 1.291 . S
C776 C777 1.373 . S
C776 H789 0.929 . S
C777 C776 1.373 . S
C777 C778 1.396 . S
C777 C784 1.403 . S
C778 C768 1.476 . S
C778 N773 1.318 . S
C778 C777 1.396 . S
H779 C774 0.929 . S
O780 Mn756 2.385 . S
O780 C758 1.234 . S
O781 Mn756 2.209 . S
O781 Mn757 2.215 . S
O781 C758 1.283 . S
O782 Mn756 2.094 . S
O782 C760 1.240 . S
O783 Mn757 2.117 . S
O783 C760 1.264 . S
C784 C777 1.403 . S
C784 C785 1.399 . S
C784 H790 0.929 . S
C785 C765 1.449 . S
C785 C784 1.399 . S
C785 H791 0.930 . S
H786 C766 0.931 . S
H787 C767 0.930 . S
H788 C775 0.931 . S
H789 C776 0.929 . S
H790 C784 0.929 . S
H791 C785 0.930 . S
Mn792 O797 2.095 . S
Mn792 O807 2.162 . S
Mn792 O808 2.297 . S
Mn792 O816 2.385 . S
Mn792 O817 2.209 . S
Mn792 O818 2.094 . S
Mn793 O798 2.121 . S
Mn793 N800 2.257 . S
Mn793 N809 2.282 . S
Mn793 O817 2.215 . S
Mn793 O819 2.117 . S
C794 O816 1.234 . S
C794 O817 1.283 . S
C795 O807 1.281 . S
C795 O808 1.236 . S
C796 O818 1.240 . S
C796 O819 1.264 . S
O797 Mn792 2.095 . S
O797 C806 1.250 . S
O798 Mn793 2.121 . S
O798 C806 1.258 . S
C799 N800 1.326 . S
C799 C803 1.460 . S
C799 H805 0.929 . S
N800 Mn793 2.257 . S
N800 C799 1.326 . S
N800 C804 1.362 . S
C801 C802 1.258 . S
C801 C804 1.431 . S
C801 C821 1.449 . S
C802 C801 1.258 . S
C802 C803 1.477 . S
C802 H822 0.931 . S
C803 C799 1.460 . S
C803 C802 1.477 . S
C803 H823 0.930 . S
C804 N800 1.362 . S
C804 C801 1.431 . S
C804 C814 1.476 . S
H805 C799 0.929 . S
C806 O797 1.250 . S
C806 O798 1.258 . S
O807 Mn792 2.162 . S
O807 C795 1.281 . S
O808 Mn792 2.297 . S
O808 C795 1.236 . S
N809 Mn793 2.282 . S
N809 C810 1.328 . S
N809 C814 1.318 . S
C810 N809 1.328 . S
C810 C811 1.457 . S
C810 H815 0.929 . S
C811 C810 1.457 . S
C811 C812 1.291 . S
C811 H824 0.931 . S
C812 C811 1.291 . S
C812 C813 1.373 . S
C812 H825 0.929 . S
C813 C812 1.373 . S
C813 C814 1.396 . S
C813 C820 1.403 . S
C814 C804 1.476 . S
C814 N809 1.318 . S
C814 C813 1.396 . S
H815 C810 0.929 . S
O816 Mn792 2.385 . S
O816 C794 1.234 . S
O817 Mn792 2.209 . S
O817 Mn793 2.215 . S
O817 C794 1.283 . S
O818 Mn792 2.094 . S
O818 C796 1.240 . S
O819 Mn793 2.117 . S
O819 C796 1.264 . S
C820 C813 1.403 . S
C820 C821 1.399 . S
C820 H826 0.929 . S
C821 C801 1.449 . S
C821 C820 1.399 . S
C821 H827 0.930 . S
H822 C802 0.931 . S
H823 C803 0.930 . S
H824 C811 0.931 . S
H825 C812 0.929 . S
H826 C820 0.929 . S
H827 C821 0.930 . S
Mn828 O833 2.095 . S
Mn828 O843 2.162 . S
Mn828 O844 2.297 . S
Mn828 O852 2.385 . S
Mn828 O853 2.209 . S
Mn828 O854 2.094 . S
Mn829 O834 2.121 . S
Mn829 N836 2.257 . S
Mn829 N845 2.282 . S
Mn829 O853 2.215 . S
Mn829 O855 2.117 . S
C830 O852 1.234 . S
C830 O853 1.283 . S
C831 O843 1.281 . S
C831 O844 1.236 . S
C832 O854 1.240 . S
C832 O855 1.264 . S
O833 Mn828 2.095 . S
O833 C842 1.250 . S
O834 Mn829 2.121 . S
O834 C842 1.258 . S
C835 N836 1.326 . S
C835 C839 1.460 . S
C835 H841 0.929 . S
N836 Mn829 2.257 . S
N836 C835 1.326 . S
N836 C840 1.362 . S
C837 C838 1.258 . S
C837 C840 1.431 . S
C837 C857 1.449 . S
C838 C837 1.258 . S
C838 C839 1.477 . S
C838 H858 0.931 . S
C839 C835 1.460 . S
C839 C838 1.477 . S
C839 H859 0.930 . S
C840 N836 1.362 . S
C840 C837 1.431 . S
C840 C850 1.476 . S
H841 C835 0.929 . S
C842 O833 1.250 . S
C842 O834 1.258 . S
O843 Mn828 2.162 . S
O843 C831 1.281 . S
O844 Mn828 2.297 . S
O844 C831 1.236 . S
N845 Mn829 2.282 . S
N845 C846 1.328 . S
N845 C850 1.318 . S
C846 N845 1.328 . S
C846 C847 1.457 . S
C846 H851 0.929 . S
C847 C846 1.457 . S
C847 C848 1.291 . S
C847 H860 0.931 . S
C848 C847 1.291 . S
C848 C849 1.373 . S
C848 H861 0.929 . S
C849 C848 1.373 . S
C849 C850 1.396 . S
C849 C856 1.403 . S
C850 C840 1.476 . S
C850 N845 1.318 . S
C850 C849 1.396 . S
H851 C846 0.929 . S
O852 Mn828 2.385 . S
O852 C830 1.234 . S
O853 Mn828 2.209 . S
O853 Mn829 2.215 . S
O853 C830 1.283 . S
O854 Mn828 2.094 . S
O854 C832 1.240 . S
O855 Mn829 2.117 . S
O855 C832 1.264 . S
C856 C849 1.403 . S
C856 C857 1.399 . S
C856 H862 0.929 . S
C857 C837 1.449 . S
C857 C856 1.399 . S
C857 H863 0.930 . S
H858 C838 0.931 . S
H859 C839 0.930 . S
H860 C847 0.931 . S
H861 C848 0.929 . S
H862 C856 0.929 . S
H863 C857 0.930 . S
Mn864 O869 2.095 . S
Mn864 O879 2.162 . S
Mn864 O880 2.297 . S
Mn864 O888 2.385 . S
Mn864 O889 2.209 . S
Mn864 O890 2.094 . S
Mn865 O870 2.121 . S
Mn865 N872 2.257 . S
Mn865 N881 2.282 . S
Mn865 O889 2.215 . S
Mn865 O891 2.117 . S
C866 O888 1.234 . S
C866 O889 1.283 . S
C867 O879 1.281 . S
C867 O880 1.236 . S
C868 O890 1.240 . S
C868 O891 1.264 . S
O869 Mn864 2.095 . S
O869 C878 1.250 . S
O870 Mn865 2.121 . S
O870 C878 1.258 . S
C871 N872 1.326 . S
C871 C875 1.460 . S
C871 H877 0.929 . S
N872 Mn865 2.257 . S
N872 C871 1.326 . S
N872 C876 1.362 . S
C873 C874 1.258 . S
C873 C876 1.431 . S
C873 C893 1.449 . S
C874 C873 1.258 . S
C874 C875 1.477 . S
C874 H894 0.931 . S
C875 C871 1.460 . S
C875 C874 1.477 . S
C875 H895 0.930 . S
C876 N872 1.362 . S
C876 C873 1.431 . S
C876 C886 1.476 . S
H877 C871 0.929 . S
C878 O869 1.250 . S
C878 O870 1.258 . S
O879 Mn864 2.162 . S
O879 C867 1.281 . S
O880 Mn864 2.297 . S
O880 C867 1.236 . S
N881 Mn865 2.282 . S
N881 C882 1.328 . S
N881 C886 1.318 . S
C882 N881 1.328 . S
C882 C883 1.457 . S
C882 H887 0.929 . S
C883 C882 1.457 . S
C883 C884 1.291 . S
C883 H896 0.931 . S
C884 C883 1.291 . S
C884 C885 1.373 . S
C884 H897 0.929 . S
C885 C884 1.373 . S
C885 C886 1.396 . S
C885 C892 1.403 . S
C886 C876 1.476 . S
C886 N881 1.318 . S
C886 C885 1.396 . S
H887 C882 0.929 . S
O888 Mn864 2.385 . S
O888 C866 1.234 . S
O889 Mn864 2.209 . S
O889 Mn865 2.215 . S
O889 C866 1.283 . S
O890 Mn864 2.094 . S
O890 C868 1.240 . S
O891 Mn865 2.117 . S
O891 C868 1.264 . S
C892 C885 1.403 . S
C892 C893 1.399 . S
C892 H898 0.929 . S
C893 C873 1.449 . S
C893 C892 1.399 . S
C893 H899 0.930 . S
H894 C874 0.931 . S
H895 C875 0.930 . S
H896 C883 0.931 . S
H897 C884 0.929 . S
H898 C892 0.929 . S
H899 C893 0.930 . S
Mn900 O905 2.095 . S
Mn900 O915 2.162 . S
Mn900 O916 2.297 . S
Mn900 O924 2.385 . S
Mn900 O925 2.209 . S
Mn900 O926 2.094 . S
Mn901 O906 2.121 . S
Mn901 N908 2.257 . S
Mn901 N917 2.282 . S
Mn901 O925 2.215 . S
Mn901 O927 2.117 . S
C902 O924 1.234 . S
C902 O925 1.283 . S
C903 O915 1.281 . S
C903 O916 1.236 . S
C904 O926 1.240 . S
C904 O927 1.264 . S
O905 Mn900 2.095 . S
O905 C914 1.250 . S
O906 Mn901 2.121 . S
O906 C914 1.258 . S
C907 N908 1.326 . S
C907 C911 1.460 . S
C907 H913 0.929 . S
N908 Mn901 2.257 . S
N908 C907 1.326 . S
N908 C912 1.362 . S
C909 C910 1.258 . S
C909 C912 1.431 . S
C909 C929 1.449 . S
C910 C909 1.258 . S
C910 C911 1.477 . S
C910 H930 0.931 . S
C911 C907 1.460 . S
C911 C910 1.477 . S
C911 H931 0.930 . S
C912 N908 1.362 . S
C912 C909 1.431 . S
C912 C922 1.476 . S
H913 C907 0.929 . S
C914 O905 1.250 . S
C914 O906 1.258 . S
O915 Mn900 2.162 . S
O915 C903 1.281 . S
O916 Mn900 2.297 . S
O916 C903 1.236 . S
N917 Mn901 2.282 . S
N917 C918 1.328 . S
N917 C922 1.318 . S
C918 N917 1.328 . S
C918 C919 1.457 . S
C918 H923 0.929 . S
C919 C918 1.457 . S
C919 C920 1.291 . S
C919 H932 0.931 . S
C920 C919 1.291 . S
C920 C921 1.373 . S
C920 H933 0.929 . S
C921 C920 1.373 . S
C921 C922 1.396 . S
C921 C928 1.403 . S
C922 C912 1.476 . S
C922 N917 1.318 . S
C922 C921 1.396 . S
H923 C918 0.929 . S
O924 Mn900 2.385 . S
O924 C902 1.234 . S
O925 Mn900 2.209 . S
O925 Mn901 2.215 . S
O925 C902 1.283 . S
O926 Mn900 2.094 . S
O926 C904 1.240 . S
O927 Mn901 2.117 . S
O927 C904 1.264 . S
C928 C921 1.403 . S
C928 C929 1.399 . S
C928 H934 0.929 . S
C929 C909 1.449 . S
C929 C928 1.399 . S
C929 H935 0.930 . S
H930 C910 0.931 . S
H931 C911 0.930 . S
H932 C919 0.931 . S
H933 C920 0.929 . S
H934 C928 0.929 . S
H935 C929 0.930 . S
Mn936 O941 2.095 . S
Mn936 O951 2.162 . S
Mn936 O952 2.297 . S
Mn936 O960 2.385 . S
Mn936 O961 2.209 . S
Mn936 O962 2.094 1_455 S
Mn937 O942 2.121 . S
Mn937 N944 2.257 . S
Mn937 N953 2.282 1_455 S
Mn937 O961 2.215 . S
Mn937 O963 2.117 1_455 S
C938 O960 1.234 . S
C938 O961 1.283 . S
C939 O951 1.281 . S
C939 O952 1.236 . S
C940 O962 1.240 . S
C940 O963 1.264 . S
O941 Mn936 2.095 . S
O941 C950 1.250 . S
O942 Mn937 2.121 . S
O942 C950 1.258 . S
C943 N944 1.326 . S
C943 C947 1.460 . S
C943 H949 0.929 . S
N944 Mn937 2.257 . S
N944 C943 1.326 . S
N944 C948 1.362 . S
C945 C946 1.258 . S
C945 C948 1.431 . S
C945 C965 1.449 . S
C946 C945 1.258 . S
C946 C947 1.477 . S
C946 H966 0.931 . S
C947 C943 1.460 . S
C947 C946 1.477 . S
C947 H967 0.930 . S
C948 N944 1.362 . S
C948 C945 1.431 . S
C948 C958 1.476 . S
H949 C943 0.929 . S
C950 O941 1.250 . S
C950 O942 1.258 . S
O951 Mn936 2.162 . S
O951 C939 1.281 . S
O952 Mn936 2.297 . S
O952 C939 1.236 . S
N953 Mn937 2.282 1_655 S
N953 C954 1.328 . S
N953 C958 1.318 1_655 S
C954 N953 1.328 . S
C954 C955 1.457 . S
C954 H959 0.929 . S
C955 C954 1.457 . S
C955 C956 1.291 . S
C955 H968 0.931 . S
C956 C955 1.291 . S
C956 C957 1.373 . S
C956 H969 0.929 . S
C957 C956 1.373 . S
C957 C958 1.396 1_655 S
C957 C964 1.403 1_655 S
C958 C948 1.476 . S
C958 N953 1.318 1_455 S
C958 C957 1.396 1_455 S
H959 C954 0.929 . S
O960 Mn936 2.385 . S
O960 C938 1.234 . S
O961 Mn936 2.209 . S
O961 Mn937 2.215 . S
O961 C938 1.283 . S
O962 Mn936 2.094 1_655 S
O962 C940 1.240 . S
O963 Mn937 2.117 1_655 S
O963 C940 1.264 . S
C964 C957 1.403 1_455 S
C964 C965 1.399 . S
C964 H970 0.929 1_455 S
C965 C945 1.449 . S
C965 C964 1.399 . S
C965 H971 0.930 . S
H966 C946 0.931 . S
H967 C947 0.930 . S
H968 C955 0.931 . S
H969 C956 0.929 . S
H970 C964 0.929 1_655 S
H971 C965 0.930 . S
Mn972 O977 2.095 . S
Mn972 O987 2.162 . S
Mn972 O988 2.297 . S
Mn972 O996 2.385 . S
Mn972 O997 2.209 . S
Mn972 O998 2.094 . S
Mn973 O978 2.121 . S
Mn973 N980 2.257 . S
Mn973 N989 2.282 . S
Mn973 O997 2.215 . S
Mn973 O999 2.117 . S
C974 O996 1.234 . S
C974 O997 1.283 . S
C975 O987 1.281 . S
C975 O988 1.236 . S
C976 O998 1.240 . S
C976 O999 1.264 . S
O977 Mn972 2.095 . S
O977 C986 1.250 . S
O978 Mn973 2.121 . S
O978 C986 1.258 . S
C979 N980 1.326 . S
C979 C983 1.460 . S
C979 H985 0.929 . S
N980 Mn973 2.257 . S
N980 C979 1.326 . S
N980 C984 1.362 . S
C981 C982 1.258 . S
C981 C984 1.431 . S
C981 C1001 1.449 . S
C982 C981 1.258 . S
C982 C983 1.477 . S
C982 H1002 0.931 . S
C983 C979 1.460 . S
C983 C982 1.477 . S
C983 H1003 0.930 . S
C984 N980 1.362 . S
C984 C981 1.431 . S
C984 C994 1.476 . S
H985 C979 0.929 . S
C986 O977 1.250 . S
C986 O978 1.258 . S
O987 Mn972 2.162 . S
O987 C975 1.281 . S
O988 Mn972 2.297 . S
O988 C975 1.236 . S
N989 Mn973 2.282 . S
N989 C990 1.328 . S
N989 C994 1.318 . S
C990 N989 1.328 . S
C990 C991 1.457 . S
C990 H995 0.929 . S
C991 C990 1.457 . S
C991 C992 1.291 . S
C991 H1004 0.931 . S
C992 C991 1.291 . S
C992 C993 1.373 . S
C992 H1005 0.929 . S
C993 C992 1.373 . S
C993 C994 1.396 . S
C993 C1000 1.403 . S
C994 C984 1.476 . S
C994 N989 1.318 . S
C994 C993 1.396 . S
H995 C990 0.929 . S
O996 Mn972 2.385 . S
O996 C974 1.234 . S
O997 Mn972 2.209 . S
O997 Mn973 2.215 . S
O997 C974 1.283 . S
O998 Mn972 2.094 . S
O998 C976 1.240 . S
O999 Mn973 2.117 . S
O999 C976 1.264 . S
C1000 C993 1.403 . S
C1000 C1001 1.399 . S
C1000 H1006 0.929 . S
C1001 C981 1.449 . S
C1001 C1000 1.399 . S
C1001 H1007 0.930 . S
H1002 C982 0.931 . S
H1003 C983 0.930 . S
H1004 C991 0.931 . S
H1005 C992 0.929 . S
H1006 C1000 0.929 . S
H1007 C1001 0.930 . S
Mn1008 O1013 2.095 . S
Mn1008 O1023 2.162 . S
Mn1008 O1024 2.297 . S
Mn1008 O1032 2.385 . S
Mn1008 O1033 2.209 . S
Mn1008 O1034 2.094 . S
Mn1009 O1014 2.121 . S
Mn1009 N1016 2.257 . S
Mn1009 N1025 2.282 . S
Mn1009 O1033 2.215 . S
Mn1009 O1035 2.117 . S
C1010 O1032 1.234 . S
C1010 O1033 1.283 . S
C1011 O1023 1.281 . S
C1011 O1024 1.236 . S
C1012 O1034 1.240 . S
C1012 O1035 1.264 . S
O1013 Mn1008 2.095 . S
O1013 C1022 1.250 . S
O1014 Mn1009 2.121 . S
O1014 C1022 1.258 . S
C1015 N1016 1.326 . S
C1015 C1019 1.460 . S
C1015 H1021 0.929 . S
N1016 Mn1009 2.257 . S
N1016 C1015 1.326 . S
N1016 C1020 1.362 . S
C1017 C1018 1.258 . S
C1017 C1020 1.431 . S
C1017 C1037 1.449 . S
C1018 C1017 1.258 . S
C1018 C1019 1.477 . S
C1018 H1038 0.931 . S
C1019 C1015 1.460 . S
C1019 C1018 1.477 . S
C1019 H1039 0.930 . S
C1020 N1016 1.362 . S
C1020 C1017 1.431 . S
C1020 C1030 1.476 . S
H1021 C1015 0.929 . S
C1022 O1013 1.250 . S
C1022 O1014 1.258 . S
O1023 Mn1008 2.162 . S
O1023 C1011 1.281 . S
O1024 Mn1008 2.297 . S
O1024 C1011 1.236 . S
N1025 Mn1009 2.282 . S
N1025 C1026 1.328 . S
N1025 C1030 1.318 . S
C1026 N1025 1.328 . S
C1026 C1027 1.457 . S
C1026 H1031 0.929 . S
C1027 C1026 1.457 . S
C1027 C1028 1.291 . S
C1027 H1040 0.931 . S
C1028 C1027 1.291 . S
C1028 C1029 1.373 . S
C1028 H1041 0.929 . S
C1029 C1028 1.373 . S
C1029 C1030 1.396 . S
C1029 C1036 1.403 . S
C1030 C1020 1.476 . S
C1030 N1025 1.318 . S
C1030 C1029 1.396 . S
H1031 C1026 0.929 . S
O1032 Mn1008 2.385 . S
O1032 C1010 1.234 . S
O1033 Mn1008 2.209 . S
O1033 Mn1009 2.215 . S
O1033 C1010 1.283 . S
O1034 Mn1008 2.094 . S
O1034 C1012 1.240 . S
O1035 Mn1009 2.117 . S
O1035 C1012 1.264 . S
C1036 C1029 1.403 . S
C1036 C1037 1.399 . S
C1036 H1042 0.929 . S
C1037 C1017 1.449 . S
C1037 C1036 1.399 . S
C1037 H1043 0.930 . S
H1038 C1018 0.931 . S
H1039 C1019 0.930 . S
H1040 C1027 0.931 . S
H1041 C1028 0.929 . S
H1042 C1036 0.929 . S
H1043 C1037 0.930 . S
Mn1044 O1049 2.095 1_455 S
Mn1044 O1059 2.162 . S
Mn1044 O1060 2.297 . S
Mn1044 O1068 2.385 . S
Mn1044 O1069 2.209 1_455 S
Mn1044 O1070 2.094 . S
Mn1045 O1050 2.121 . S
Mn1045 N1052 2.257 . S
Mn1045 N1061 2.282 . S
Mn1045 O1069 2.215 . S
Mn1045 O1071 2.117 . S
C1046 O1068 1.234 . S
C1046 O1069 1.283 1_455 S
C1047 O1059 1.281 . S
C1047 O1060 1.236 . S
C1048 O1070 1.240 . S
C1048 O1071 1.264 1_455 S
O1049 Mn1044 2.095 1_655 S
O1049 C1058 1.250 . S
O1050 Mn1045 2.121 . S
O1050 C1058 1.258 . S
C1051 N1052 1.326 . S
C1051 C1055 1.460 . S
C1051 H1057 0.929 . S
N1052 Mn1045 2.257 . S
N1052 C1051 1.326 . S
N1052 C1056 1.362 . S
C1053 C1054 1.258 . S
C1053 C1056 1.431 . S
C1053 C1073 1.449 . S
C1054 C1053 1.258 . S
C1054 C1055 1.477 . S
C1054 H1074 0.931 . S
C1055 C1051 1.460 . S
C1055 C1054 1.477 . S
C1055 H1075 0.930 . S
C1056 N1052 1.362 . S
C1056 C1053 1.431 . S
C1056 C1066 1.476 . S
H1057 C1051 0.929 . S
C1058 O1049 1.250 . S
C1058 O1050 1.258 . S
O1059 Mn1044 2.162 . S
O1059 C1047 1.281 . S
O1060 Mn1044 2.297 . S
O1060 C1047 1.236 . S
N1061 Mn1045 2.282 . S
N1061 C1062 1.328 1_655 S
N1061 C1066 1.318 . S
C1062 N1061 1.328 1_455 S
C1062 C1063 1.457 . S
C1062 H1067 0.929 . S
C1063 C1062 1.457 . S
C1063 C1064 1.291 . S
C1063 H1076 0.931 . S
C1064 C1063 1.291 . S
C1064 C1065 1.373 1_455 S
C1064 H1077 0.929 . S
C1065 C1064 1.373 1_655 S
C1065 C1066 1.396 . S
C1065 C1072 1.403 . S
C1066 C1056 1.476 . S
C1066 N1061 1.318 . S
C1066 C1065 1.396 . S
H1067 C1062 0.929 . S
O1068 Mn1044 2.385 . S
O1068 C1046 1.234 . S
O1069 Mn1044 2.209 1_655 S
O1069 Mn1045 2.215 . S
O1069 C1046 1.283 1_655 S
O1070 Mn1044 2.094 . S
O1070 C1048 1.240 . S
O1071 Mn1045 2.117 . S
O1071 C1048 1.264 1_655 S
C1072 C1065 1.403 . S
C1072 C1073 1.399 . S
C1072 H1078 0.929 . S
C1073 C1053 1.449 . S
C1073 C1072 1.399 . S
C1073 H1079 0.930 . S
H1074 C1054 0.931 . S
H1075 C1055 0.930 . S
H1076 C1063 0.931 . S
H1077 C1064 0.929 . S
H1078 C1072 0.929 . S
H1079 C1073 0.930 . S
Mn1080 O1085 2.095 . S
Mn1080 O1095 2.162 . S
Mn1080 O1096 2.297 . S
Mn1080 O1104 2.385 . S
Mn1080 O1105 2.209 . S
Mn1080 O1106 2.094 . S
Mn1081 O1086 2.121 . S
Mn1081 N1088 2.257 . S
Mn1081 N1097 2.282 . S
Mn1081 O1105 2.215 . S
Mn1081 O1107 2.117 . S
C1082 O1104 1.234 . S
C1082 O1105 1.283 . S
C1083 O1095 1.281 . S
C1083 O1096 1.236 . S
C1084 O1106 1.240 . S
C1084 O1107 1.264 . S
O1085 Mn1080 2.095 . S
O1085 C1094 1.250 . S
O1086 Mn1081 2.121 . S
O1086 C1094 1.258 . S
C1087 N1088 1.326 . S
C1087 C1091 1.460 . S
C1087 H1093 0.929 . S
N1088 Mn1081 2.257 . S
N1088 C1087 1.326 . S
N1088 C1092 1.362 . S
C1089 C1090 1.258 . S
C1089 C1092 1.431 . S
C1089 C1109 1.449 . S
C1090 C1089 1.258 . S
C1090 C1091 1.477 . S
C1090 H1110 0.931 . S
C1091 C1087 1.460 . S
C1091 C1090 1.477 . S
C1091 H1111 0.930 . S
C1092 N1088 1.362 . S
C1092 C1089 1.431 . S
C1092 C1102 1.476 . S
H1093 C1087 0.929 . S
C1094 O1085 1.250 . S
C1094 O1086 1.258 . S
O1095 Mn1080 2.162 . S
O1095 C1083 1.281 . S
O1096 Mn1080 2.297 . S
O1096 C1083 1.236 . S
N1097 Mn1081 2.282 . S
N1097 C1098 1.328 . S
N1097 C1102 1.318 . S
C1098 N1097 1.328 . S
C1098 C1099 1.457 . S
C1098 H1103 0.929 . S
C1099 C1098 1.457 . S
C1099 C1100 1.291 . S
C1099 H1112 0.931 . S
C1100 C1099 1.291 . S
C1100 C1101 1.373 . S
C1100 H1113 0.929 . S
C1101 C1100 1.373 . S
C1101 C1102 1.396 . S
C1101 C1108 1.403 . S
C1102 C1092 1.476 . S
C1102 N1097 1.318 . S
C1102 C1101 1.396 . S
H1103 C1098 0.929 . S
O1104 Mn1080 2.385 . S
O1104 C1082 1.234 . S
O1105 Mn1080 2.209 . S
O1105 Mn1081 2.215 . S
O1105 C1082 1.283 . S
O1106 Mn1080 2.094 . S
O1106 C1084 1.240 . S
O1107 Mn1081 2.117 . S
O1107 C1084 1.264 . S
C1108 C1101 1.403 . S
C1108 C1109 1.399 . S
C1108 H1114 0.929 . S
C1109 C1089 1.449 . S
C1109 C1108 1.399 . S
C1109 H1115 0.930 . S
H1110 C1090 0.931 . S
H1111 C1091 0.930 . S
H1112 C1099 0.931 . S
H1113 C1100 0.929 . S
H1114 C1108 0.929 . S
H1115 C1109 0.930 . S
Mn1116 O1121 2.095 . S
Mn1116 O1131 2.162 . S
Mn1116 O1132 2.297 . S
Mn1116 O1140 2.385 . S
Mn1116 O1141 2.209 . S
Mn1116 O1142 2.094 . S
Mn1117 O1122 2.121 . S
Mn1117 N1124 2.257 . S
Mn1117 N1133 2.282 . S
Mn1117 O1141 2.215 . S
Mn1117 O1143 2.117 . S
C1118 O1140 1.234 . S
C1118 O1141 1.283 . S
C1119 O1131 1.281 . S
C1119 O1132 1.236 . S
C1120 O1142 1.240 . S
C1120 O1143 1.264 . S
O1121 Mn1116 2.095 . S
O1121 C1130 1.250 . S
O1122 Mn1117 2.121 . S
O1122 C1130 1.258 . S
C1123 N1124 1.326 . S
C1123 C1127 1.460 . S
C1123 H1129 0.929 . S
N1124 Mn1117 2.257 . S
N1124 C1123 1.326 . S
N1124 C1128 1.362 . S
C1125 C1126 1.258 . S
C1125 C1128 1.431 . S
C1125 C1145 1.449 . S
C1126 C1125 1.258 . S
C1126 C1127 1.477 . S
C1126 H1146 0.931 . S
C1127 C1123 1.460 . S
C1127 C1126 1.477 . S
C1127 H1147 0.930 . S
C1128 N1124 1.362 . S
C1128 C1125 1.431 . S
C1128 C1138 1.476 . S
H1129 C1123 0.929 . S
C1130 O1121 1.250 . S
C1130 O1122 1.258 . S
O1131 Mn1116 2.162 . S
O1131 C1119 1.281 . S
O1132 Mn1116 2.297 . S
O1132 C1119 1.236 . S
N1133 Mn1117 2.282 . S
N1133 C1134 1.328 . S
N1133 C1138 1.318 . S
C1134 N1133 1.328 . S
C1134 C1135 1.457 . S
C1134 H1139 0.929 . S
C1135 C1134 1.457 . S
C1135 C1136 1.291 . S
C1135 H1148 0.931 . S
C1136 C1135 1.291 . S
C1136 C1137 1.373 . S
C1136 H1149 0.929 . S
C1137 C1136 1.373 . S
C1137 C1138 1.396 . S
C1137 C1144 1.403 . S
C1138 C1128 1.476 . S
C1138 N1133 1.318 . S
C1138 C1137 1.396 . S
H1139 C1134 0.929 . S
O1140 Mn1116 2.385 . S
O1140 C1118 1.234 . S
O1141 Mn1116 2.209 . S
O1141 Mn1117 2.215 . S
O1141 C1118 1.283 . S
O1142 Mn1116 2.094 . S
O1142 C1120 1.240 . S
O1143 Mn1117 2.117 . S
O1143 C1120 1.264 . S
C1144 C1137 1.403 . S
C1144 C1145 1.399 . S
C1144 H1150 0.929 . S
C1145 C1125 1.449 . S
C1145 C1144 1.399 . S
C1145 H1151 0.930 . S
H1146 C1126 0.931 . S
H1147 C1127 0.930 . S
H1148 C1135 0.931 . S
H1149 C1136 0.929 . S
H1150 C1144 0.929 . S
H1151 C1145 0.930 . S
Mn1152 O1157 2.095 . S
Mn1152 O1167 2.162 . S
Mn1152 O1168 2.297 . S
Mn1152 O1176 2.385 . S
Mn1152 O1177 2.209 . S
Mn1152 O1178 2.094 . S
Mn1153 O1158 2.121 . S
Mn1153 N1160 2.257 . S
Mn1153 N1169 2.282 . S
Mn1153 O1177 2.215 . S
Mn1153 O1179 2.117 . S
C1154 O1176 1.234 . S
C1154 O1177 1.283 . S
C1155 O1167 1.281 . S
C1155 O1168 1.236 . S
C1156 O1178 1.240 . S
C1156 O1179 1.264 . S
O1157 Mn1152 2.095 . S
O1157 C1166 1.250 . S
O1158 Mn1153 2.121 . S
O1158 C1166 1.258 . S
C1159 N1160 1.326 . S
C1159 C1163 1.460 . S
C1159 H1165 0.929 . S
N1160 Mn1153 2.257 . S
N1160 C1159 1.326 . S
N1160 C1164 1.362 . S
C1161 C1162 1.258 . S
C1161 C1164 1.431 . S
C1161 C1181 1.449 . S
C1162 C1161 1.258 . S
C1162 C1163 1.477 . S
C1162 H1182 0.931 . S
C1163 C1159 1.460 . S
C1163 C1162 1.477 . S
C1163 H1183 0.930 . S
C1164 N1160 1.362 . S
C1164 C1161 1.431 . S
C1164 C1174 1.476 . S
H1165 C1159 0.929 . S
C1166 O1157 1.250 . S
C1166 O1158 1.258 . S
O1167 Mn1152 2.162 . S
O1167 C1155 1.281 . S
O1168 Mn1152 2.297 . S
O1168 C1155 1.236 . S
N1169 Mn1153 2.282 . S
N1169 C1170 1.328 . S
N1169 C1174 1.318 . S
C1170 N1169 1.328 . S
C1170 C1171 1.457 . S
C1170 H1175 0.929 . S
C1171 C1170 1.457 . S
C1171 C1172 1.291 . S
C1171 H1184 0.931 . S
C1172 C1171 1.291 . S
C1172 C1173 1.373 . S
C1172 H1185 0.929 . S
C1173 C1172 1.373 . S
C1173 C1174 1.396 . S
C1173 C1180 1.403 . S
C1174 C1164 1.476 . S
C1174 N1169 1.318 . S
C1174 C1173 1.396 . S
H1175 C1170 0.929 . S
O1176 Mn1152 2.385 . S
O1176 C1154 1.234 . S
O1177 Mn1152 2.209 . S
O1177 Mn1153 2.215 . S
O1177 C1154 1.283 . S
O1178 Mn1152 2.094 . S
O1178 C1156 1.240 . S
O1179 Mn1153 2.117 . S
O1179 C1156 1.264 . S
C1180 C1173 1.403 . S
C1180 C1181 1.399 . S
C1180 H1186 0.929 . S
C1181 C1161 1.449 . S
C1181 C1180 1.399 . S
C1181 H1187 0.930 . S
H1182 C1162 0.931 . S
H1183 C1163 0.930 . S
H1184 C1171 0.931 . S
H1185 C1172 0.929 . S
H1186 C1180 0.929 . S
H1187 C1181 0.930 . S
Mn1188 O1193 2.095 . S
Mn1188 O1203 2.162 . S
Mn1188 O1204 2.297 . S
Mn1188 O1212 2.385 . S
Mn1188 O1213 2.209 . S
Mn1188 O1214 2.094 . S
Mn1189 O1194 2.121 . S
Mn1189 N1196 2.257 . S
Mn1189 N1205 2.282 . S
Mn1189 O1213 2.215 . S
Mn1189 O1215 2.117 . S
C1190 O1212 1.234 . S
C1190 O1213 1.283 . S
C1191 O1203 1.281 . S
C1191 O1204 1.236 . S
C1192 O1214 1.240 . S
C1192 O1215 1.264 . S
O1193 Mn1188 2.095 . S
O1193 C1202 1.250 . S
O1194 Mn1189 2.121 . S
O1194 C1202 1.258 . S
C1195 N1196 1.326 . S
C1195 C1199 1.460 . S
C1195 H1201 0.929 . S
N1196 Mn1189 2.257 . S
N1196 C1195 1.326 . S
N1196 C1200 1.362 . S
C1197 C1198 1.258 . S
C1197 C1200 1.431 . S
C1197 C1217 1.449 . S
C1198 C1197 1.258 . S
C1198 C1199 1.477 . S
C1198 H1218 0.931 . S
C1199 C1195 1.460 . S
C1199 C1198 1.477 . S
C1199 H1219 0.930 . S
C1200 N1196 1.362 . S
C1200 C1197 1.431 . S
C1200 C1210 1.476 . S
H1201 C1195 0.929 . S
C1202 O1193 1.250 . S
C1202 O1194 1.258 . S
O1203 Mn1188 2.162 . S
O1203 C1191 1.281 . S
O1204 Mn1188 2.297 . S
O1204 C1191 1.236 . S
N1205 Mn1189 2.282 . S
N1205 C1206 1.328 . S
N1205 C1210 1.318 . S
C1206 N1205 1.328 . S
C1206 C1207 1.457 . S
C1206 H1211 0.929 . S
C1207 C1206 1.457 . S
C1207 C1208 1.291 . S
C1207 H1220 0.931 . S
C1208 C1207 1.291 . S
C1208 C1209 1.373 . S
C1208 H1221 0.929 . S
C1209 C1208 1.373 . S
C1209 C1210 1.396 . S
C1209 C1216 1.403 . S
C1210 C1200 1.476 . S
C1210 N1205 1.318 . S
C1210 C1209 1.396 . S
H1211 C1206 0.929 . S
O1212 Mn1188 2.385 . S
O1212 C1190 1.234 . S
O1213 Mn1188 2.209 . S
O1213 Mn1189 2.215 . S
O1213 C1190 1.283 . S
O1214 Mn1188 2.094 . S
O1214 C1192 1.240 . S
O1215 Mn1189 2.117 . S
O1215 C1192 1.264 . S
C1216 C1209 1.403 . S
C1216 C1217 1.399 . S
C1216 H1222 0.929 . S
C1217 C1197 1.449 . S
C1217 C1216 1.399 . S
C1217 H1223 0.930 . S
H1218 C1198 0.931 . S
H1219 C1199 0.930 . S
H1220 C1207 0.931 . S
H1221 C1208 0.929 . S
H1222 C1216 0.929 . S
H1223 C1217 0.930 . S
Mn1224 O1229 2.095 . S
Mn1224 O1239 2.162 . S
Mn1224 O1240 2.297 . S
Mn1224 O1248 2.385 . S
Mn1224 O1249 2.209 . S
Mn1224 O1250 2.094 . S
Mn1225 O1230 2.121 . S
Mn1225 N1232 2.257 . S
Mn1225 N1241 2.282 . S
Mn1225 O1249 2.215 . S
Mn1225 O1251 2.117 . S
C1226 O1248 1.234 . S
C1226 O1249 1.283 . S
C1227 O1239 1.281 . S
C1227 O1240 1.236 . S
C1228 O1250 1.240 . S
C1228 O1251 1.264 . S
O1229 Mn1224 2.095 . S
O1229 C1238 1.250 . S
O1230 Mn1225 2.121 . S
O1230 C1238 1.258 . S
C1231 N1232 1.326 . S
C1231 C1235 1.460 . S
C1231 H1237 0.929 . S
N1232 Mn1225 2.257 . S
N1232 C1231 1.326 . S
N1232 C1236 1.362 . S
C1233 C1234 1.258 . S
C1233 C1236 1.431 . S
C1233 C1253 1.449 . S
C1234 C1233 1.258 . S
C1234 C1235 1.477 . S
C1234 H1254 0.931 . S
C1235 C1231 1.460 . S
C1235 C1234 1.477 . S
C1235 H1255 0.930 . S
C1236 N1232 1.362 . S
C1236 C1233 1.431 . S
C1236 C1246 1.476 . S
H1237 C1231 0.929 . S
C1238 O1229 1.250 . S
C1238 O1230 1.258 . S
O1239 Mn1224 2.162 . S
O1239 C1227 1.281 . S
O1240 Mn1224 2.297 . S
O1240 C1227 1.236 . S
N1241 Mn1225 2.282 . S
N1241 C1242 1.328 . S
N1241 C1246 1.318 . S
C1242 N1241 1.328 . S
C1242 C1243 1.457 . S
C1242 H1247 0.929 . S
C1243 C1242 1.457 . S
C1243 C1244 1.291 . S
C1243 H1256 0.931 . S
C1244 C1243 1.291 . S
C1244 C1245 1.373 . S
C1244 H1257 0.929 . S
C1245 C1244 1.373 . S
C1245 C1246 1.396 . S
C1245 C1252 1.403 . S
C1246 C1236 1.476 . S
C1246 N1241 1.318 . S
C1246 C1245 1.396 . S
H1247 C1242 0.929 . S
O1248 Mn1224 2.385 . S
O1248 C1226 1.234 . S
O1249 Mn1224 2.209 . S
O1249 Mn1225 2.215 . S
O1249 C1226 1.283 . S
O1250 Mn1224 2.094 . S
O1250 C1228 1.240 . S
O1251 Mn1225 2.117 . S
O1251 C1228 1.264 . S
C1252 C1245 1.403 . S
C1252 C1253 1.399 . S
C1252 H1258 0.929 . S
C1253 C1233 1.449 . S
C1253 C1252 1.399 . S
C1253 H1259 0.930 . S
H1254 C1234 0.931 . S
H1255 C1235 0.930 . S
H1256 C1243 0.931 . S
H1257 C1244 0.929 . S
H1258 C1252 0.929 . S
H1259 C1253 0.930 . S
Mn1260 O1265 2.095 . S
Mn1260 O1275 2.162 . S
Mn1260 O1276 2.297 . S
Mn1260 O1284 2.385 . S
Mn1260 O1285 2.209 . S
Mn1260 O1286 2.094 . S
Mn1261 O1266 2.121 . S
Mn1261 N1268 2.257 . S
Mn1261 N1277 2.282 . S
Mn1261 O1285 2.215 . S
Mn1261 O1287 2.117 . S
C1262 O1284 1.234 . S
C1262 O1285 1.283 . S
C1263 O1275 1.281 . S
C1263 O1276 1.236 . S
C1264 O1286 1.240 . S
C1264 O1287 1.264 . S
O1265 Mn1260 2.095 . S
O1265 C1274 1.250 . S
O1266 Mn1261 2.121 . S
O1266 C1274 1.258 . S
C1267 N1268 1.326 . S
C1267 C1271 1.460 . S
C1267 H1273 0.929 . S
N1268 Mn1261 2.257 . S
N1268 C1267 1.326 . S
N1268 C1272 1.362 . S
C1269 C1270 1.258 . S
C1269 C1272 1.431 . S
C1269 C1289 1.449 . S
C1270 C1269 1.258 . S
C1270 C1271 1.477 . S
C1270 H1290 0.931 . S
C1271 C1267 1.460 . S
C1271 C1270 1.477 . S
C1271 H1291 0.930 . S
C1272 N1268 1.362 . S
C1272 C1269 1.431 . S
C1272 C1282 1.476 . S
H1273 C1267 0.929 . S
C1274 O1265 1.250 . S
C1274 O1266 1.258 . S
O1275 Mn1260 2.162 . S
O1275 C1263 1.281 . S
O1276 Mn1260 2.297 . S
O1276 C1263 1.236 . S
N1277 Mn1261 2.282 . S
N1277 C1278 1.328 . S
N1277 C1282 1.318 . S
C1278 N1277 1.328 . S
C1278 C1279 1.457 . S
C1278 H1283 0.929 . S
C1279 C1278 1.457 . S
C1279 C1280 1.291 . S
C1279 H1292 0.931 . S
C1280 C1279 1.291 . S
C1280 C1281 1.373 . S
C1280 H1293 0.929 . S
C1281 C1280 1.373 . S
C1281 C1282 1.396 . S
C1281 C1288 1.403 . S
C1282 C1272 1.476 . S
C1282 N1277 1.318 . S
C1282 C1281 1.396 . S
H1283 C1278 0.929 . S
O1284 Mn1260 2.385 . S
O1284 C1262 1.234 . S
O1285 Mn1260 2.209 . S
O1285 Mn1261 2.215 . S
O1285 C1262 1.283 . S
O1286 Mn1260 2.094 . S
O1286 C1264 1.240 . S
O1287 Mn1261 2.117 . S
O1287 C1264 1.264 . S
C1288 C1281 1.403 . S
C1288 C1289 1.399 . S
C1288 H1294 0.929 . S
C1289 C1269 1.449 . S
C1289 C1288 1.399 . S
C1289 H1295 0.930 . S
H1290 C1270 0.931 . S
H1291 C1271 0.930 . S
H1292 C1279 0.931 . S
H1293 C1280 0.929 . S
H1294 C1288 0.929 . S
H1295 C1289 0.930 . S
Mn1296 O1301 2.095 . S
Mn1296 O1311 2.162 . S
Mn1296 O1312 2.297 . S
Mn1296 O1320 2.385 . S
Mn1296 O1321 2.209 . S
Mn1296 O1322 2.094 . S
Mn1297 O1302 2.121 . S
Mn1297 N1304 2.257 . S
Mn1297 N1313 2.282 . S
Mn1297 O1321 2.215 . S
Mn1297 O1323 2.117 . S
C1298 O1320 1.234 . S
C1298 O1321 1.283 . S
C1299 O1311 1.281 . S
C1299 O1312 1.236 . S
C1300 O1322 1.240 . S
C1300 O1323 1.264 . S
O1301 Mn1296 2.095 . S
O1301 C1310 1.250 . S
O1302 Mn1297 2.121 . S
O1302 C1310 1.258 . S
C1303 N1304 1.326 . S
C1303 C1307 1.460 . S
C1303 H1309 0.929 . S
N1304 Mn1297 2.257 . S
N1304 C1303 1.326 . S
N1304 C1308 1.362 . S
C1305 C1306 1.258 . S
C1305 C1308 1.431 . S
C1305 C1325 1.449 . S
C1306 C1305 1.258 . S
C1306 C1307 1.477 . S
C1306 H1326 0.931 . S
C1307 C1303 1.460 . S
C1307 C1306 1.477 . S
C1307 H1327 0.930 . S
C1308 N1304 1.362 . S
C1308 C1305 1.431 . S
C1308 C1318 1.476 . S
H1309 C1303 0.929 . S
C1310 O1301 1.250 . S
C1310 O1302 1.258 . S
O1311 Mn1296 2.162 . S
O1311 C1299 1.281 . S
O1312 Mn1296 2.297 . S
O1312 C1299 1.236 . S
N1313 Mn1297 2.282 . S
N1313 C1314 1.328 . S
N1313 C1318 1.318 . S
C1314 N1313 1.328 . S
C1314 C1315 1.457 . S
C1314 H1319 0.929 . S
C1315 C1314 1.457 . S
C1315 C1316 1.291 . S
C1315 H1328 0.931 . S
C1316 C1315 1.291 . S
C1316 C1317 1.373 . S
C1316 H1329 0.929 . S
C1317 C1316 1.373 . S
C1317 C1318 1.396 . S
C1317 C1324 1.403 . S
C1318 C1308 1.476 . S
C1318 N1313 1.318 . S
C1318 C1317 1.396 . S
H1319 C1314 0.929 . S
O1320 Mn1296 2.385 . S
O1320 C1298 1.234 . S
O1321 Mn1296 2.209 . S
O1321 Mn1297 2.215 . S
O1321 C1298 1.283 . S
O1322 Mn1296 2.094 . S
O1322 C1300 1.240 . S
O1323 Mn1297 2.117 . S
O1323 C1300 1.264 . S
C1324 C1317 1.403 . S
C1324 C1325 1.399 . S
C1324 H1330 0.929 . S
C1325 C1305 1.449 . S
C1325 C1324 1.399 . S
C1325 H1331 0.930 . S
H1326 C1306 0.931 . S
H1327 C1307 0.930 . S
H1328 C1315 0.931 . S
H1329 C1316 0.929 . S
H1330 C1324 0.929 . S
H1331 C1325 0.930 . S
Mn1332 O1337 2.095 1_556 S
Mn1332 O1347 2.162 . S
Mn1332 O1348 2.297 . S
Mn1332 O1356 2.385 . S
Mn1332 O1357 2.209 1_556 S
Mn1332 O1358 2.094 . S
Mn1333 O1338 2.121 . S
Mn1333 N1340 2.257 . S
Mn1333 N1349 2.282 . S
Mn1333 O1357 2.215 . S
Mn1333 O1359 2.117 . S
C1334 O1356 1.249 . S
C1334 O1357 1.273 1_556 S
C1335 O1347 1.281 . S
C1335 O1348 1.236 . S
C1336 O1358 1.240 1_554 S
C1336 O1359 1.264 . S
O1337 Mn1332 2.095 1_554 S
O1337 C1346 1.250 . S
O1338 Mn1333 2.121 . S
O1338 C1346 1.258 . S
C1339 N1340 1.326 . S
C1339 C1343 1.460 . S
C1339 H1345 0.929 . S
N1340 Mn1333 2.257 . S
N1340 C1339 1.326 . S
N1340 C1344 1.362 . S
C1341 C1342 1.258 . S
C1341 C1344 1.431 . S
C1341 C1361 1.449 . S
C1342 C1341 1.258 . S
C1342 C1343 1.477 . S
C1342 H1362 0.931 . S
C1343 C1339 1.460 . S
C1343 C1342 1.477 . S
C1343 H1363 0.930 . S
C1344 N1340 1.362 . S
C1344 C1341 1.431 . S
C1344 C1354 1.476 . S
H1345 C1339 0.929 . S
C1346 O1337 1.250 . S
C1346 O1338 1.258 . S
O1347 Mn1332 2.162 . S
O1347 C1335 1.281 . S
O1348 Mn1332 2.297 . S
O1348 C1335 1.236 . S
N1349 Mn1333 2.282 . S
N1349 C1350 1.328 . S
N1349 C1354 1.318 . S
C1350 N1349 1.328 . S
C1350 C1351 1.457 . S
C1350 H1355 0.929 . S
C1351 C1350 1.457 . S
C1351 C1352 1.291 . S
C1351 H1364 0.931 . S
C1352 C1351 1.291 . S
C1352 C1353 1.373 . S
C1352 H1365 0.929 . S
C1353 C1352 1.373 . S
C1353 C1354 1.396 . S
C1353 C1360 1.403 . S
C1354 C1344 1.476 . S
C1354 N1349 1.318 . S
C1354 C1353 1.396 . S
H1355 C1350 0.929 . S
O1356 Mn1332 2.385 . S
O1356 C1334 1.249 . S
O1357 Mn1332 2.209 1_554 S
O1357 Mn1333 2.215 . S
O1357 C1334 1.273 1_554 S
O1358 Mn1332 2.094 . S
O1358 C1336 1.240 1_556 S
O1359 Mn1333 2.117 . S
O1359 C1336 1.264 . S
C1360 C1353 1.403 . S
C1360 C1361 1.399 . S
C1360 H1366 0.929 . S
C1361 C1341 1.449 . S
C1361 C1360 1.399 . S
C1361 H1367 0.930 . S
H1362 C1342 0.931 . S
H1363 C1343 0.930 . S
H1364 C1351 0.931 . S
H1365 C1352 0.929 . S
H1366 C1360 0.929 . S
H1367 C1361 0.930 . S
Mn1368 O1373 2.095 . S
Mn1368 O1383 2.162 . S
Mn1368 O1384 2.297 . S
Mn1368 O1392 2.385 . S
Mn1368 O1393 2.209 . S
Mn1368 O1394 2.094 . S
Mn1369 O1374 2.121 . S
Mn1369 N1376 2.257 . S
Mn1369 N1385 2.282 . S
Mn1369 O1393 2.215 . S
Mn1369 O1395 2.117 . S
C1370 O1392 1.234 . S
C1370 O1393 1.283 . S
C1371 O1383 1.281 . S
C1371 O1384 1.236 . S
C1372 O1394 1.240 . S
C1372 O1395 1.264 . S
O1373 Mn1368 2.095 . S
O1373 C1382 1.250 . S
O1374 Mn1369 2.121 . S
O1374 C1382 1.258 . S
C1375 N1376 1.326 . S
C1375 C1379 1.460 . S
C1375 H1381 0.929 . S
N1376 Mn1369 2.257 . S
N1376 C1375 1.326 . S
N1376 C1380 1.362 . S
C1377 C1378 1.258 . S
C1377 C1380 1.431 . S
C1377 C1397 1.449 . S
C1378 C1377 1.258 . S
C1378 C1379 1.477 . S
C1378 H1398 0.931 . S
C1379 C1375 1.460 . S
C1379 C1378 1.477 . S
C1379 H1399 0.930 . S
C1380 N1376 1.362 . S
C1380 C1377 1.431 . S
C1380 C1390 1.476 . S
H1381 C1375 0.929 . S
C1382 O1373 1.250 . S
C1382 O1374 1.258 . S
O1383 Mn1368 2.162 . S
O1383 C1371 1.281 . S
O1384 Mn1368 2.297 . S
O1384 C1371 1.236 . S
N1385 Mn1369 2.282 . S
N1385 C1386 1.328 . S
N1385 C1390 1.318 . S
C1386 N1385 1.328 . S
C1386 C1387 1.457 . S
C1386 H1391 0.929 . S
C1387 C1386 1.457 . S
C1387 C1388 1.291 . S
C1387 H1400 0.931 . S
C1388 C1387 1.291 . S
C1388 C1389 1.373 . S
C1388 H1401 0.929 . S
C1389 C1388 1.373 . S
C1389 C1390 1.396 . S
C1389 C1396 1.403 . S
C1390 C1380 1.476 . S
C1390 N1385 1.318 . S
C1390 C1389 1.396 . S
H1391 C1386 0.929 . S
O1392 Mn1368 2.385 . S
O1392 C1370 1.234 . S
O1393 Mn1368 2.209 . S
O1393 Mn1369 2.215 . S
O1393 C1370 1.283 . S
O1394 Mn1368 2.094 . S
O1394 C1372 1.240 . S
O1395 Mn1369 2.117 . S
O1395 C1372 1.264 . S
C1396 C1389 1.403 . S
C1396 C1397 1.399 . S
C1396 H1402 0.929 . S
C1397 C1377 1.449 . S
C1397 C1396 1.399 . S
C1397 H1403 0.930 . S
H1398 C1378 0.931 . S
H1399 C1379 0.930 . S
H1400 C1387 0.931 . S
H1401 C1388 0.929 . S
H1402 C1396 0.929 . S
H1403 C1397 0.930 . S
Mn1404 O1409 2.095 . S
Mn1404 O1419 2.162 . S
Mn1404 O1420 2.297 . S
Mn1404 O1428 2.385 . S
Mn1404 O1429 2.209 . S
Mn1404 O1430 2.094 . S
Mn1405 O1410 2.121 . S
Mn1405 N1412 2.257 . S
Mn1405 N1421 2.282 . S
Mn1405 O1429 2.215 . S
Mn1405 O1431 2.117 . S
C1406 O1428 1.234 . S
C1406 O1429 1.283 . S
C1407 O1419 1.281 . S
C1407 O1420 1.236 . S
C1408 O1430 1.240 . S
C1408 O1431 1.264 . S
O1409 Mn1404 2.095 . S
O1409 C1418 1.250 . S
O1410 Mn1405 2.121 . S
O1410 C1418 1.258 . S
C1411 N1412 1.326 . S
C1411 C1415 1.460 . S
C1411 H1417 0.929 . S
N1412 Mn1405 2.257 . S
N1412 C1411 1.326 . S
N1412 C1416 1.362 . S
C1413 C1414 1.258 . S
C1413 C1416 1.431 . S
C1413 C1433 1.449 . S
C1414 C1413 1.258 . S
C1414 C1415 1.477 . S
C1414 H1434 0.931 . S
C1415 C1411 1.460 . S
C1415 C1414 1.477 . S
C1415 H1435 0.930 . S
C1416 N1412 1.362 . S
C1416 C1413 1.431 . S
C1416 C1426 1.476 . S
H1417 C1411 0.929 . S
C1418 O1409 1.250 . S
C1418 O1410 1.258 . S
O1419 Mn1404 2.162 . S
O1419 C1407 1.281 . S
O1420 Mn1404 2.297 . S
O1420 C1407 1.236 . S
N1421 Mn1405 2.282 . S
N1421 C1422 1.328 . S
N1421 C1426 1.318 . S
C1422 N1421 1.328 . S
C1422 C1423 1.457 . S
C1422 H1427 0.929 . S
C1423 C1422 1.457 . S
C1423 C1424 1.291 . S
C1423 H1436 0.931 . S
C1424 C1423 1.291 . S
C1424 C1425 1.373 . S
C1424 H1437 0.929 . S
C1425 C1424 1.373 . S
C1425 C1426 1.396 . S
C1425 C1432 1.403 . S
C1426 C1416 1.476 . S
C1426 N1421 1.318 . S
C1426 C1425 1.396 . S
H1427 C1422 0.929 . S
O1428 Mn1404 2.385 . S
O1428 C1406 1.234 . S
O1429 Mn1404 2.209 . S
O1429 Mn1405 2.215 . S
O1429 C1406 1.283 . S
O1430 Mn1404 2.094 . S
O1430 C1408 1.240 . S
O1431 Mn1405 2.117 . S
O1431 C1408 1.264 . S
C1432 C1425 1.403 . S
C1432 C1433 1.399 . S
C1432 H1438 0.929 . S
C1433 C1413 1.449 . S
C1433 C1432 1.399 . S
C1433 H1439 0.930 . S
H1434 C1414 0.931 . S
H1435 C1415 0.930 . S
H1436 C1423 0.931 . S
H1437 C1424 0.929 . S
H1438 C1432 0.929 . S
H1439 C1433 0.930 . S
Mn1440 O1445 2.095 . S
Mn1440 O1455 2.162 . S
Mn1440 O1456 2.297 . S
Mn1440 O1464 2.385 . S
Mn1440 O1465 2.209 . S
Mn1440 O1466 2.094 . S
Mn1441 O1446 2.121 . S
Mn1441 N1448 2.257 . S
Mn1441 N1457 2.282 . S
Mn1441 O1465 2.215 . S
Mn1441 O1467 2.117 . S
C1442 O1464 1.234 . S
C1442 O1465 1.283 . S
C1443 O1455 1.281 . S
C1443 O1456 1.236 . S
C1444 O1466 1.240 . S
C1444 O1467 1.264 . S
O1445 Mn1440 2.095 . S
O1445 C1454 1.250 . S
O1446 Mn1441 2.121 . S
O1446 C1454 1.258 . S
C1447 N1448 1.326 . S
C1447 C1451 1.460 . S
C1447 H1453 0.929 . S
N1448 Mn1441 2.257 . S
N1448 C1447 1.326 . S
N1448 C1452 1.362 . S
C1449 C1450 1.258 . S
C1449 C1452 1.431 . S
C1449 C1469 1.449 . S
C1450 C1449 1.258 . S
C1450 C1451 1.477 . S
C1450 H1470 0.931 . S
C1451 C1447 1.460 . S
C1451 C1450 1.477 . S
C1451 H1471 0.930 . S
C1452 N1448 1.362 . S
C1452 C1449 1.431 . S
C1452 C1462 1.476 . S
H1453 C1447 0.929 . S
C1454 O1445 1.250 . S
C1454 O1446 1.258 . S
O1455 Mn1440 2.162 . S
O1455 C1443 1.281 . S
O1456 Mn1440 2.297 . S
O1456 C1443 1.236 . S
N1457 Mn1441 2.282 . S
N1457 C1458 1.328 . S
N1457 C1462 1.318 . S
C1458 N1457 1.328 . S
C1458 C1459 1.457 . S
C1458 H1463 0.929 . S
C1459 C1458 1.457 . S
C1459 C1460 1.291 . S
C1459 H1472 0.931 . S
C1460 C1459 1.291 . S
C1460 C1461 1.373 . S
C1460 H1473 0.929 . S
C1461 C1460 1.373 . S
C1461 C1462 1.396 . S
C1461 C1468 1.403 . S
C1462 C1452 1.476 . S
C1462 N1457 1.318 . S
C1462 C1461 1.396 . S
H1463 C1458 0.929 . S
O1464 Mn1440 2.385 . S
O1464 C1442 1.234 . S
O1465 Mn1440 2.209 . S
O1465 Mn1441 2.215 . S
O1465 C1442 1.283 . S
O1466 Mn1440 2.094 . S
O1466 C1444 1.240 . S
O1467 Mn1441 2.117 . S
O1467 C1444 1.264 . S
C1468 C1461 1.403 . S
C1468 C1469 1.399 . S
C1468 H1474 0.929 . S
C1469 C1449 1.449 . S
C1469 C1468 1.399 . S
C1469 H1475 0.930 . S
H1470 C1450 0.931 . S
H1471 C1451 0.930 . S
H1472 C1459 0.931 . S
H1473 C1460 0.929 . S
H1474 C1468 0.929 . S
H1475 C1469 0.930 . S
Mn1476 O1481 2.095 . S
Mn1476 O1491 2.162 . S
Mn1476 O1492 2.297 . S
Mn1476 O1500 2.385 . S
Mn1476 O1501 2.209 . S
Mn1476 O1502 2.094 . S
Mn1477 O1482 2.121 . S
Mn1477 N1484 2.257 . S
Mn1477 N1493 2.282 . S
Mn1477 O1501 2.215 . S
Mn1477 O1503 2.117 . S
C1478 O1500 1.234 . S
C1478 O1501 1.283 . S
C1479 O1491 1.281 . S
C1479 O1492 1.236 . S
C1480 O1502 1.240 . S
C1480 O1503 1.264 . S
O1481 Mn1476 2.095 . S
O1481 C1490 1.250 . S
O1482 Mn1477 2.121 . S
O1482 C1490 1.258 . S
C1483 N1484 1.326 . S
C1483 C1487 1.460 . S
C1483 H1489 0.929 . S
N1484 Mn1477 2.257 . S
N1484 C1483 1.326 . S
N1484 C1488 1.362 . S
C1485 C1486 1.258 . S
C1485 C1488 1.431 . S
C1485 C1505 1.449 . S
C1486 C1485 1.258 . S
C1486 C1487 1.477 . S
C1486 H1506 0.931 . S
C1487 C1483 1.460 . S
C1487 C1486 1.477 . S
C1487 H1507 0.930 . S
C1488 N1484 1.362 . S
C1488 C1485 1.431 . S
C1488 C1498 1.476 . S
H1489 C1483 0.929 . S
C1490 O1481 1.250 . S
C1490 O1482 1.258 . S
O1491 Mn1476 2.162 . S
O1491 C1479 1.281 . S
O1492 Mn1476 2.297 . S
O1492 C1479 1.236 . S
N1493 Mn1477 2.282 . S
N1493 C1494 1.328 . S
N1493 C1498 1.318 . S
C1494 N1493 1.328 . S
C1494 C1495 1.457 . S
C1494 H1499 0.929 . S
C1495 C1494 1.457 . S
C1495 C1496 1.291 . S
C1495 H1508 0.931 . S
C1496 C1495 1.291 . S
C1496 C1497 1.373 . S
C1496 H1509 0.929 . S
C1497 C1496 1.373 . S
C1497 C1498 1.396 . S
C1497 C1504 1.403 . S
C1498 C1488 1.476 . S
C1498 N1493 1.318 . S
C1498 C1497 1.396 . S
H1499 C1494 0.929 . S
O1500 Mn1476 2.385 . S
O1500 C1478 1.234 . S
O1501 Mn1476 2.209 . S
O1501 Mn1477 2.215 . S
O1501 C1478 1.283 . S
O1502 Mn1476 2.094 . S
O1502 C1480 1.240 . S
O1503 Mn1477 2.117 . S
O1503 C1480 1.264 . S
C1504 C1497 1.403 . S
C1504 C1505 1.399 . S
C1504 H1510 0.929 . S
C1505 C1485 1.449 . S
C1505 C1504 1.399 . S
C1505 H1511 0.930 . S
H1506 C1486 0.931 . S
H1507 C1487 0.930 . S
H1508 C1495 0.931 . S
H1509 C1496 0.929 . S
H1510 C1504 0.929 . S
H1511 C1505 0.930 . S
Mn1512 O1517 2.095 . S
Mn1512 O1527 2.162 . S
Mn1512 O1528 2.297 . S
Mn1512 O1536 2.385 . S
Mn1512 O1537 2.209 . S
Mn1512 O1538 2.094 . S
Mn1513 O1518 2.121 . S
Mn1513 N1520 2.257 . S
Mn1513 N1529 2.282 . S
Mn1513 O1537 2.215 . S
Mn1513 O1539 2.117 . S
C1514 O1536 1.234 . S
C1514 O1537 1.283 . S
C1515 O1527 1.281 . S
C1515 O1528 1.236 . S
C1516 O1538 1.240 . S
C1516 O1539 1.264 . S
O1517 Mn1512 2.095 . S
O1517 C1526 1.250 . S
O1518 Mn1513 2.121 . S
O1518 C1526 1.258 . S
C1519 N1520 1.326 . S
C1519 C1523 1.460 . S
C1519 H1525 0.929 . S
N1520 Mn1513 2.257 . S
N1520 C1519 1.326 . S
N1520 C1524 1.362 . S
C1521 C1522 1.258 . S
C1521 C1524 1.431 . S
C1521 C1541 1.449 . S
C1522 C1521 1.258 . S
C1522 C1523 1.477 . S
C1522 H1542 0.931 . S
C1523 C1519 1.460 . S
C1523 C1522 1.477 . S
C1523 H1543 0.930 . S
C1524 N1520 1.362 . S
C1524 C1521 1.431 . S
C1524 C1534 1.476 . S
H1525 C1519 0.929 . S
C1526 O1517 1.250 . S
C1526 O1518 1.258 . S
O1527 Mn1512 2.162 . S
O1527 C1515 1.281 . S
O1528 Mn1512 2.297 . S
O1528 C1515 1.236 . S
N1529 Mn1513 2.282 . S
N1529 C1530 1.328 . S
N1529 C1534 1.318 . S
C1530 N1529 1.328 . S
C1530 C1531 1.457 . S
C1530 H1535 0.929 . S
C1531 C1530 1.457 . S
C1531 C1532 1.291 . S
C1531 H1544 0.931 . S
C1532 C1531 1.291 . S
C1532 C1533 1.373 . S
C1532 H1545 0.929 . S
C1533 C1532 1.373 . S
C1533 C1534 1.396 . S
C1533 C1540 1.403 . S
C1534 C1524 1.476 . S
C1534 N1529 1.318 . S
C1534 C1533 1.396 . S
H1535 C1530 0.929 . S
O1536 Mn1512 2.385 . S
O1536 C1514 1.234 . S
O1537 Mn1512 2.209 . S
O1537 Mn1513 2.215 . S
O1537 C1514 1.283 . S
O1538 Mn1512 2.094 . S
O1538 C1516 1.240 . S
O1539 Mn1513 2.117 . S
O1539 C1516 1.264 . S
C1540 C1533 1.403 . S
C1540 C1541 1.399 . S
C1540 H1546 0.929 . S
C1541 C1521 1.449 . S
C1541 C1540 1.399 . S
C1541 H1547 0.930 . S
H1542 C1522 0.931 . S
H1543 C1523 0.930 . S
H1544 C1531 0.931 . S
H1545 C1532 0.929 . S
H1546 C1540 0.929 . S
H1547 C1541 0.930 . S
Mn1548 O1553 2.095 . S
Mn1548 O1563 2.162 . S
Mn1548 O1564 2.297 . S
Mn1548 O1572 2.385 . S
Mn1548 O1573 2.209 . S
Mn1548 O1574 2.094 1_554 S
Mn1549 O1554 2.121 . S
Mn1549 N1556 2.257 . S
Mn1549 N1565 2.282 1_554 S
Mn1549 O1573 2.215 . S
Mn1549 O1575 2.117 1_554 S
C1550 O1572 1.234 . S
C1550 O1573 1.283 . S
C1551 O1563 1.281 . S
C1551 O1564 1.236 . S
C1552 O1574 1.240 . S
C1552 O1575 1.264 . S
O1553 Mn1548 2.095 . S
O1553 C1562 1.250 . S
O1554 Mn1549 2.121 . S
O1554 C1562 1.258 . S
C1555 N1556 1.326 . S
C1555 C1559 1.460 . S
C1555 H1561 0.929 . S
N1556 Mn1549 2.257 . S
N1556 C1555 1.326 . S
N1556 C1560 1.362 . S
C1557 C1558 1.258 . S
C1557 C1560 1.431 . S
C1557 C1577 1.449 . S
C1558 C1557 1.258 . S
C1558 C1559 1.477 . S
C1558 H1578 0.931 . S
C1559 C1555 1.460 . S
C1559 C1558 1.477 . S
C1559 H1579 0.930 . S
C1560 N1556 1.362 . S
C1560 C1557 1.431 . S
C1560 C1570 1.476 . S
H1561 C1555 0.929 . S
C1562 O1553 1.250 . S
C1562 O1554 1.258 . S
O1563 Mn1548 2.162 . S
O1563 C1551 1.281 . S
O1564 Mn1548 2.297 . S
O1564 C1551 1.236 . S
N1565 Mn1549 2.282 1_556 S
N1565 C1566 1.328 . S
N1565 C1570 1.318 1_556 S
C1566 N1565 1.328 . S
C1566 C1567 1.457 . S
C1566 H1571 0.929 . S
C1567 C1566 1.457 . S
C1567 C1568 1.291 . S
C1567 H1580 0.931 . S
C1568 C1567 1.291 . S
C1568 C1569 1.373 . S
C1568 H1581 0.929 . S
C1569 C1568 1.373 . S
C1569 C1570 1.396 1_556 S
C1569 C1576 1.403 1_556 S
C1570 C1560 1.476 . S
C1570 N1565 1.318 1_554 S
C1570 C1569 1.396 1_554 S
H1571 C1566 0.929 . S
O1572 Mn1548 2.385 . S
O1572 C1550 1.234 . S
O1573 Mn1548 2.209 . S
O1573 Mn1549 2.215 . S
O1573 C1550 1.283 . S
O1574 Mn1548 2.094 1_556 S
O1574 C1552 1.240 . S
O1575 Mn1549 2.117 1_556 S
O1575 C1552 1.264 . S
C1576 C1569 1.403 1_554 S
C1576 C1577 1.399 . S
C1576 H1582 0.929 1_554 S
C1577 C1557 1.449 . S
C1577 C1576 1.399 . S
C1577 H1583 0.930 . S
H1578 C1558 0.931 . S
H1579 C1559 0.930 . S
H1580 C1567 0.931 . S
H1581 C1568 0.929 . S
H1582 C1576 0.929 1_556 S
H1583 C1577 0.930 . S
Mn1584 O1589 2.095 . S
Mn1584 O1599 2.162 . S
Mn1584 O1600 2.297 . S
Mn1584 O1608 2.385 . S
Mn1584 O1609 2.209 . S
Mn1584 O1610 2.094 . S
Mn1585 O1590 2.121 . S
Mn1585 N1592 2.257 . S
Mn1585 N1601 2.282 . S
Mn1585 O1609 2.215 . S
Mn1585 O1611 2.117 . S
C1586 O1608 1.234 . S
C1586 O1609 1.283 . S
C1587 O1599 1.281 . S
C1587 O1600 1.236 . S
C1588 O1610 1.240 . S
C1588 O1611 1.264 . S
O1589 Mn1584 2.095 . S
O1589 C1598 1.250 . S
O1590 Mn1585 2.121 . S
O1590 C1598 1.258 . S
C1591 N1592 1.326 . S
C1591 C1595 1.460 . S
C1591 H1597 0.929 . S
N1592 Mn1585 2.257 . S
N1592 C1591 1.326 . S
N1592 C1596 1.362 . S
C1593 C1594 1.258 . S
C1593 C1596 1.431 . S
C1593 C1613 1.449 . S
C1594 C1593 1.258 . S
C1594 C1595 1.477 . S
C1594 H1614 0.931 . S
C1595 C1591 1.460 . S
C1595 C1594 1.477 . S
C1595 H1615 0.930 . S
C1596 N1592 1.362 . S
C1596 C1593 1.431 . S
C1596 C1606 1.476 . S
H1597 C1591 0.929 . S
C1598 O1589 1.250 . S
C1598 O1590 1.258 . S
O1599 Mn1584 2.162 . S
O1599 C1587 1.281 . S
O1600 Mn1584 2.297 . S
O1600 C1587 1.236 . S
N1601 Mn1585 2.282 . S
N1601 C1602 1.328 . S
N1601 C1606 1.318 . S
C1602 N1601 1.328 . S
C1602 C1603 1.457 . S
C1602 H1607 0.929 . S
C1603 C1602 1.457 . S
C1603 C1604 1.291 . S
C1603 H1616 0.931 . S
C1604 C1603 1.291 . S
C1604 C1605 1.373 . S
C1604 H1617 0.929 . S
C1605 C1604 1.373 . S
C1605 C1606 1.396 . S
C1605 C1612 1.403 . S
C1606 C1596 1.476 . S
C1606 N1601 1.318 . S
C1606 C1605 1.396 . S
H1607 C1602 0.929 . S
O1608 Mn1584 2.385 . S
O1608 C1586 1.234 . S
O1609 Mn1584 2.209 . S
O1609 Mn1585 2.215 . S
O1609 C1586 1.283 . S
O1610 Mn1584 2.094 . S
O1610 C1588 1.240 . S
O1611 Mn1585 2.117 . S
O1611 C1588 1.264 . S
C1612 C1605 1.403 . S
C1612 C1613 1.399 . S
C1612 H1618 0.929 . S
C1613 C1593 1.449 . S
C1613 C1612 1.399 . S
C1613 H1619 0.930 . S
H1614 C1594 0.931 . S
H1615 C1595 0.930 . S
H1616 C1603 0.931 . S
H1617 C1604 0.929 . S
H1618 C1612 0.929 . S
H1619 C1613 0.930 . S
Mn1620 O1625 2.095 . S
Mn1620 O1635 2.162 . S
Mn1620 O1636 2.297 . S
Mn1620 O1644 2.385 . S
Mn1620 O1645 2.209 . S
Mn1620 O1646 2.094 . S
Mn1621 O1626 2.121 . S
Mn1621 N1628 2.257 . S
Mn1621 N1637 2.282 . S
Mn1621 O1645 2.215 . S
Mn1621 O1647 2.117 . S
C1622 O1644 1.234 . S
C1622 O1645 1.283 . S
C1623 O1635 1.281 . S
C1623 O1636 1.236 . S
C1624 O1646 1.240 . S
C1624 O1647 1.264 . S
O1625 Mn1620 2.095 . S
O1625 C1634 1.250 . S
O1626 Mn1621 2.121 . S
O1626 C1634 1.258 . S
C1627 N1628 1.326 . S
C1627 C1631 1.460 . S
C1627 H1633 0.929 . S
N1628 Mn1621 2.257 . S
N1628 C1627 1.326 . S
N1628 C1632 1.362 . S
C1629 C1630 1.258 . S
C1629 C1632 1.431 . S
C1629 C1649 1.449 . S
C1630 C1629 1.258 . S
C1630 C1631 1.477 . S
C1630 H1650 0.931 . S
C1631 C1627 1.460 . S
C1631 C1630 1.477 . S
C1631 H1651 0.930 . S
C1632 N1628 1.362 . S
C1632 C1629 1.431 . S
C1632 C1642 1.476 . S
H1633 C1627 0.929 . S
C1634 O1625 1.250 . S
C1634 O1626 1.258 . S
O1635 Mn1620 2.162 . S
O1635 C1623 1.281 . S
O1636 Mn1620 2.297 . S
O1636 C1623 1.236 . S
N1637 Mn1621 2.282 . S
N1637 C1638 1.328 . S
N1637 C1642 1.318 . S
C1638 N1637 1.328 . S
C1638 C1639 1.457 . S
C1638 H1643 0.929 . S
C1639 C1638 1.457 . S
C1639 C1640 1.291 . S
C1639 H1652 0.931 . S
C1640 C1639 1.291 . S
C1640 C1641 1.373 . S
C1640 H1653 0.929 . S
C1641 C1640 1.373 . S
C1641 C1642 1.396 . S
C1641 C1648 1.403 . S
C1642 C1632 1.476 . S
C1642 N1637 1.318 . S
C1642 C1641 1.396 . S
H1643 C1638 0.929 . S
O1644 Mn1620 2.385 . S
O1644 C1622 1.234 . S
O1645 Mn1620 2.209 . S
O1645 Mn1621 2.215 . S
O1645 C1622 1.283 . S
O1646 Mn1620 2.094 . S
O1646 C1624 1.240 . S
O1647 Mn1621 2.117 . S
O1647 C1624 1.264 . S
C1648 C1641 1.403 . S
C1648 C1649 1.399 . S
C1648 H1654 0.929 . S
C1649 C1629 1.449 . S
C1649 C1648 1.399 . S
C1649 H1655 0.930 . S
H1650 C1630 0.931 . S
H1651 C1631 0.930 . S
H1652 C1639 0.931 . S
H1653 C1640 0.929 . S
H1654 C1648 0.929 . S
H1655 C1649 0.930 . S
Mn1656 O1661 2.095 1_565 S
Mn1656 O1671 2.162 . S
Mn1656 O1672 2.297 . S
Mn1656 O1680 2.385 . S
Mn1656 O1681 2.209 1_565 S
Mn1656 O1682 2.094 . S
Mn1657 O1662 2.121 . S
Mn1657 N1664 2.257 . S
Mn1657 N1673 2.282 . S
Mn1657 O1681 2.215 . S
Mn1657 O1683 2.117 . S
C1658 O1680 1.248 . S
C1658 O1681 1.274 1_565 S
C1659 O1671 1.281 . S
C1659 O1672 1.236 . S
C1660 O1682 1.240 1_545 S
C1660 O1683 1.264 . S
O1661 Mn1656 2.095 1_545 S
O1661 C1670 1.250 . S
O1662 Mn1657 2.121 . S
O1662 C1670 1.258 . S
C1663 N1664 1.326 . S
C1663 C1667 1.460 . S
C1663 H1669 0.929 . S
N1664 Mn1657 2.257 . S
N1664 C1663 1.326 . S
N1664 C1668 1.362 . S
C1665 C1666 1.258 . S
C1665 C1668 1.431 . S
C1665 C1685 1.449 . S
C1666 C1665 1.258 . S
C1666 C1667 1.477 . S
C1666 H1686 0.931 . S
C1667 C1663 1.460 . S
C1667 C1666 1.477 . S
C1667 H1687 0.930 . S
C1668 N1664 1.362 . S
C1668 C1665 1.431 . S
C1668 C1678 1.476 . S
H1669 C1663 0.929 . S
C1670 O1661 1.250 . S
C1670 O1662 1.258 . S
O1671 Mn1656 2.162 . S
O1671 C1659 1.281 . S
O1672 Mn1656 2.297 . S
O1672 C1659 1.236 . S
N1673 Mn1657 2.282 . S
N1673 C1674 1.328 . S
N1673 C1678 1.318 . S
C1674 N1673 1.328 . S
C1674 C1675 1.457 . S
C1674 H1679 0.929 . S
C1675 C1674 1.457 . S
C1675 C1676 1.291 . S
C1675 H1688 0.931 . S
C1676 C1675 1.291 . S
C1676 C1677 1.373 . S
C1676 H1689 0.929 . S
C1677 C1676 1.373 . S
C1677 C1678 1.396 . S
C1677 C1684 1.403 . S
C1678 C1668 1.476 . S
C1678 N1673 1.318 . S
C1678 C1677 1.396 . S
H1679 C1674 0.929 . S
O1680 Mn1656 2.385 . S
O1680 C1658 1.248 . S
O1681 Mn1656 2.209 1_545 S
O1681 Mn1657 2.215 . S
O1681 C1658 1.274 1_545 S
O1682 Mn1656 2.094 . S
O1682 C1660 1.240 1_565 S
O1683 Mn1657 2.117 . S
O1683 C1660 1.264 . S
C1684 C1677 1.403 . S
C1684 C1685 1.399 . S
C1684 H1690 0.929 . S
C1685 C1665 1.449 . S
C1685 C1684 1.399 . S
C1685 H1691 0.930 . S
H1686 C1666 0.931 . S
H1687 C1667 0.930 . S
H1688 C1675 0.931 . S
H1689 C1676 0.929 . S
H1690 C1684 0.929 . S
H1691 C1685 0.930 . S
Mn1692 O1697 2.095 1_545 S
Mn1692 O1707 2.162 . S
Mn1692 O1708 2.297 . S
Mn1692 O1716 2.385 . S
Mn1692 O1717 2.209 1_545 S
Mn1692 O1718 2.094 . S
Mn1693 O1698 2.121 . S
Mn1693 N1700 2.257 . S
Mn1693 N1709 2.282 . S
Mn1693 O1717 2.215 . S
Mn1693 O1719 2.117 . S
C1694 O1716 1.234 . S
C1694 O1717 1.283 1_545 S
C1695 O1707 1.281 . S
C1695 O1708 1.236 . S
C1696 O1718 1.240 . S
C1696 O1719 1.264 1_545 S
O1697 Mn1692 2.095 1_565 S
O1697 C1706 1.250 . S
O1698 Mn1693 2.121 . S
O1698 C1706 1.258 . S
C1699 N1700 1.326 . S
C1699 C1703 1.460 . S
C1699 H1705 0.929 . S
N1700 Mn1693 2.257 . S
N1700 C1699 1.326 . S
N1700 C1704 1.362 . S
C1701 C1702 1.258 . S
C1701 C1704 1.431 . S
C1701 C1721 1.449 . S
C1702 C1701 1.258 . S
C1702 C1703 1.477 . S
C1702 H1722 0.931 . S
C1703 C1699 1.460 . S
C1703 C1702 1.477 . S
C1703 H1723 0.930 . S
C1704 N1700 1.362 . S
C1704 C1701 1.431 . S
C1704 C1714 1.476 . S
H1705 C1699 0.929 . S
C1706 O1697 1.250 . S
C1706 O1698 1.258 . S
O1707 Mn1692 2.162 . S
O1707 C1695 1.281 . S
O1708 Mn1692 2.297 . S
O1708 C1695 1.236 . S
N1709 Mn1693 2.282 . S
N1709 C1710 1.328 1_565 S
N1709 C1714 1.318 . S
C1710 N1709 1.328 1_545 S
C1710 C1711 1.457 . S
C1710 H1715 0.929 . S
C1711 C1710 1.457 . S
C1711 C1712 1.291 . S
C1711 H1724 0.931 . S
C1712 C1711 1.291 . S
C1712 C1713 1.373 1_545 S
C1712 H1725 0.929 . S
C1713 C1712 1.373 1_565 S
C1713 C1714 1.396 . S
C1713 C1720 1.403 . S
C1714 C1704 1.476 . S
C1714 N1709 1.318 . S
C1714 C1713 1.396 . S
H1715 C1710 0.929 . S
O1716 Mn1692 2.385 . S
O1716 C1694 1.234 . S
O1717 Mn1692 2.209 1_565 S
O1717 Mn1693 2.215 . S
O1717 C1694 1.283 1_565 S
O1718 Mn1692 2.094 . S
O1718 C1696 1.240 . S
O1719 Mn1693 2.117 . S
O1719 C1696 1.264 1_565 S
C1720 C1713 1.403 . S
C1720 C1721 1.399 . S
C1720 H1726 0.929 . S
C1721 C1701 1.449 . S
C1721 C1720 1.399 . S
C1721 H1727 0.930 . S
H1722 C1702 0.931 . S
H1723 C1703 0.930 . S
H1724 C1711 0.931 . S
H1725 C1712 0.929 . S
H1726 C1720 0.929 . S
H1727 C1721 0.930 . S
C1728 C1729 1.349 . S
C1728 C1730 1.327 . S
C1728 H1753 0.950 . S
C1729 C1728 1.349 . S
C1729 C1745 1.349 . S
C1730 C1728 1.327 . S
C1730 C1749 1.429 . S
C1730 H1754 0.950 . S
C1731 C1748 1.574 . S
C1731 C1750 1.368 . S
C1731 H1755 0.949 . S
H1732 C1736 0.949 . S
C1733 C1734 1.349 . S
C1733 C1735 1.327 . S
C1733 H1756 0.950 . S
C1734 C1733 1.349 . S
C1734 C1746 1.349 . S
C1735 C1733 1.327 . S
C1735 C1751 1.429 . S
C1735 H1757 0.950 . S
C1736 H1732 0.949 . S
C1736 C1744 1.574 . S
C1736 C1752 1.368 . S
H1737 C1745 0.950 . S
H1738 C1743 0.950 . S
H1739 C1744 0.949 . S
H1740 C1746 0.950 . S
H1741 C1747 0.950 . S
H1742 C1748 0.949 . S
C1743 H1738 0.950 . S
C1743 C1745 1.327 . S
C1743 C1749 1.429 . S
C1744 C1736 1.574 . S
C1744 H1739 0.949 . S
C1744 C1750 1.368 . S
C1745 C1729 1.349 . S
C1745 H1737 0.950 . S
C1745 C1743 1.327 . S
C1746 C1734 1.349 . S
C1746 H1740 0.950 . S
C1746 C1747 1.327 . S
C1747 H1741 0.950 . S
C1747 C1746 1.327 . S
C1747 C1751 1.429 . S
C1748 C1731 1.574 . S
C1748 H1742 0.949 . S
C1748 C1752 1.368 . S
C1749 C1730 1.429 . S
C1749 C1743 1.429 . S
C1749 C1750 1.523 . S
C1750 C1731 1.368 . S
C1750 C1744 1.368 . S
C1750 C1749 1.523 . S
C1751 C1735 1.429 . S
C1751 C1747 1.429 . S
C1751 C1752 1.523 . S
C1752 C1736 1.368 . S
C1752 C1748 1.368 . S
C1752 C1751 1.523 . S
H1753 C1728 0.950 . S
H1754 C1730 0.950 . S
H1755 C1731 0.949 . S
H1756 C1733 0.950 . S
H1757 C1735 0.950 . S
C1758 C1759 1.349 . S
C1758 C1760 1.327 . S
C1758 H1783 0.950 . S
C1759 C1758 1.349 . S
C1759 C1775 1.349 . S
C1760 C1758 1.327 . S
C1760 C1779 1.429 . S
C1760 H1784 0.950 . S
C1761 C1778 1.574 . S
C1761 C1780 1.368 . S
C1761 H1785 0.949 . S
H1762 C1766 0.949 . S
C1763 C1764 1.349 . S
C1763 C1765 1.327 . S
C1763 H1786 0.950 . S
C1764 C1763 1.349 . S
C1764 C1776 1.349 . S
C1765 C1763 1.327 . S
C1765 C1781 1.429 . S
C1765 H1787 0.950 . S
C1766 H1762 0.949 . S
C1766 C1774 1.574 . S
C1766 C1782 1.368 . S
H1767 C1775 0.950 . S
H1768 C1773 0.950 . S
H1769 C1774 0.949 . S
H1770 C1776 0.950 . S
H1771 C1777 0.950 . S
H1772 C1778 0.949 . S
C1773 H1768 0.950 . S
C1773 C1775 1.327 . S
C1773 C1779 1.429 . S
C1774 C1766 1.574 . S
C1774 H1769 0.949 . S
C1774 C1780 1.368 . S
C1775 C1759 1.349 . S
C1775 H1767 0.950 . S
C1775 C1773 1.327 . S
C1776 C1764 1.349 . S
C1776 H1770 0.950 . S
C1776 C1777 1.327 . S
C1777 H1771 0.950 . S
C1777 C1776 1.327 . S
C1777 C1781 1.429 . S
C1778 C1761 1.574 . S
C1778 H1772 0.949 . S
C1778 C1782 1.368 . S
C1779 C1760 1.429 . S
C1779 C1773 1.429 . S
C1779 C1780 1.523 . S
C1780 C1761 1.368 . S
C1780 C1774 1.368 . S
C1780 C1779 1.523 . S
C1781 C1765 1.429 . S
C1781 C1777 1.429 . S
C1781 C1782 1.523 . S
C1782 C1766 1.368 . S
C1782 C1778 1.368 . S
C1782 C1781 1.523 . S
H1783 C1758 0.950 . S
H1784 C1760 0.950 . S
H1785 C1761 0.949 . S
H1786 C1763 0.950 . S
H1787 C1765 0.950 . S
C1788 C1789 1.349 . S
C1788 C1790 1.327 . S
C1788 H1813 0.950 . S
C1789 C1788 1.349 . S
C1789 C1805 1.349 . S
C1790 C1788 1.327 . S
C1790 C1809 1.429 . S
C1790 H1814 0.950 . S
C1791 C1808 1.574 . S
C1791 C1810 1.368 . S
C1791 H1815 0.949 . S
H1792 C1796 0.949 . S
C1793 C1794 1.349 . S
C1793 C1795 1.327 . S
C1793 H1816 0.950 . S
C1794 C1793 1.349 . S
C1794 C1806 1.349 . S
C1795 C1793 1.327 . S
C1795 C1811 1.429 . S
C1795 H1817 0.950 . S
C1796 H1792 0.949 . S
C1796 C1804 1.574 . S
C1796 C1812 1.368 . S
H1797 C1805 0.950 . S
H1798 C1803 0.950 . S
H1799 C1804 0.949 . S
H1800 C1806 0.950 . S
H1801 C1807 0.950 . S
H1802 C1808 0.949 . S
C1803 H1798 0.950 . S
C1803 C1805 1.327 . S
C1803 C1809 1.429 . S
C1804 C1796 1.574 . S
C1804 H1799 0.949 . S
C1804 C1810 1.368 . S
C1805 C1789 1.349 . S
C1805 H1797 0.950 . S
C1805 C1803 1.327 . S
C1806 C1794 1.349 . S
C1806 H1800 0.950 . S
C1806 C1807 1.327 . S
C1807 H1801 0.950 . S
C1807 C1806 1.327 . S
C1807 C1811 1.429 . S
C1808 C1791 1.574 . S
C1808 H1802 0.949 . S
C1808 C1812 1.368 . S
C1809 C1790 1.429 . S
C1809 C1803 1.429 . S
C1809 C1810 1.523 . S
C1810 C1791 1.368 . S
C1810 C1804 1.368 . S
C1810 C1809 1.523 . S
C1811 C1795 1.429 . S
C1811 C1807 1.429 . S
C1811 C1812 1.523 . S
C1812 C1796 1.368 . S
C1812 C1808 1.368 . S
C1812 C1811 1.523 . S
H1813 C1788 0.950 . S
H1814 C1790 0.950 . S
H1815 C1791 0.949 . S
H1816 C1793 0.950 . S
H1817 C1795 0.950 . S
C1818 C1819 1.349 . S
C1818 C1820 1.327 . S
C1818 H1843 0.950 . S
C1819 C1818 1.349 . S
C1819 C1835 1.349 1_556 S
C1820 C1818 1.327 . S
C1820 C1839 1.429 . S
C1820 H1844 0.950 . S
C1821 C1838 1.574 . S
C1821 C1840 1.316 1_554 S
C1821 H1845 0.949 . S
H1822 C1826 0.949 . S
C1823 C1824 1.349 . S
C1823 C1825 1.327 . S
C1823 H1846 0.950 . S
C1824 C1823 1.349 . S
C1824 C1836 1.349 . S
C1825 C1823 1.327 . S
C1825 C1841 1.429 . S
C1825 H1847 0.950 . S
C1826 H1822 0.949 . S
C1826 C1834 1.574 . S
C1826 C1842 1.368 1_556 S
H1827 C1835 0.950 . S
H1828 C1833 0.950 . S
H1829 C1834 0.949 . S
H1830 C1836 0.950 1_556 S
H1831 C1837 0.965 . S
H1832 C1838 0.949 . S
C1833 H1828 0.950 . S
C1833 C1835 1.327 . S
C1833 C1839 1.429 1_554 S
C1834 C1826 1.574 . S
C1834 H1829 0.949 . S
C1834 C1840 1.411 . S
C1835 C1819 1.349 1_554 S
C1835 H1827 0.950 . S
C1835 C1833 1.327 . S
C1836 C1824 1.349 . S
C1836 H1830 0.950 1_554 S
C1836 C1837 1.323 1_554 S
C1837 H1831 0.965 . S
C1837 C1836 1.323 1_556 S
C1837 C1841 1.418 1_556 S
C1838 C1821 1.574 . S
C1838 H1832 0.949 . S
C1838 C1842 1.368 . S
C1839 C1820 1.429 . S
C1839 C1833 1.429 1_556 S
C1839 C1840 1.537 . S
C1840 C1821 1.316 1_556 S
C1840 C1834 1.411 . S
C1840 C1839 1.537 . S
C1841 C1825 1.429 . S
C1841 C1837 1.418 1_554 S
C1841 C1842 1.523 . S
C1842 C1826 1.368 1_554 S
C1842 C1838 1.368 . S
C1842 C1841 1.523 . S
H1843 C1818 0.950 . S
H1844 C1820 0.950 . S
H1845 C1821 0.949 . S
H1846 C1823 0.950 . S
H1847 C1825 0.950 . S
C1848 C1849 1.349 . S
C1848 C1850 1.327 . S
C1848 H1873 0.950 . S
C1849 C1848 1.349 . S
C1849 C1865 1.349 . S
C1850 C1848 1.327 . S
C1850 C1869 1.429 . S
C1850 H1874 0.950 . S
C1851 C1868 1.574 . S
C1851 C1870 1.368 . S
C1851 H1875 0.949 . S
H1852 C1856 0.949 . S
C1853 C1854 1.349 . S
C1853 C1855 1.327 . S
C1853 H1876 0.950 . S
C1854 C1853 1.349 . S
C1854 C1866 1.349 . S
C1855 C1853 1.327 . S
C1855 C1871 1.429 . S
C1855 H1877 0.950 . S
C1856 H1852 0.949 . S
C1856 C1864 1.574 . S
C1856 C1872 1.368 . S
H1857 C1865 0.950 . S
H1858 C1863 0.950 . S
H1859 C1864 0.949 . S
H1860 C1866 0.950 . S
H1861 C1867 0.950 . S
H1862 C1868 0.949 . S
C1863 H1858 0.950 . S
C1863 C1865 1.327 . S
C1863 C1869 1.429 . S
C1864 C1856 1.574 . S
C1864 H1859 0.949 . S
C1864 C1870 1.368 . S
C1865 C1849 1.349 . S
C1865 H1857 0.950 . S
C1865 C1863 1.327 . S
C1866 C1854 1.349 . S
C1866 H1860 0.950 . S
C1866 C1867 1.327 . S
C1867 H1861 0.950 . S
C1867 C1866 1.327 . S
C1867 C1871 1.429 . S
C1868 C1851 1.574 . S
C1868 H1862 0.949 . S
C1868 C1872 1.368 . S
C1869 C1850 1.429 . S
C1869 C1863 1.429 . S
C1869 C1870 1.523 . S
C1870 C1851 1.368 . S
C1870 C1864 1.368 . S
C1870 C1869 1.523 . S
C1871 C1855 1.429 . S
C1871 C1867 1.429 . S
C1871 C1872 1.523 . S
C1872 C1856 1.368 . S
C1872 C1868 1.368 . S
C1872 C1871 1.523 . S
H1873 C1848 0.950 . S
H1874 C1850 0.950 . S
H1875 C1851 0.949 . S
H1876 C1853 0.950 . S
H1877 C1855 0.950 . S
C1878 C1879 1.349 . S
C1878 C1880 1.327 . S
C1878 H1903 0.950 . S
C1879 C1878 1.349 . S
C1879 C1895 1.349 . S
C1880 C1878 1.327 . S
C1880 C1899 1.429 . S
C1880 H1904 0.950 . S
C1881 C1898 1.574 . S
C1881 C1900 1.368 . S
C1881 H1905 0.949 . S
H1882 C1886 0.949 . S
C1883 C1884 1.349 . S
C1883 C1885 1.327 . S
C1883 H1906 0.950 . S
C1884 C1883 1.349 . S
C1884 C1896 1.349 . S
C1885 C1883 1.327 . S
C1885 C1901 1.429 . S
C1885 H1907 0.950 . S
C1886 H1882 0.949 . S
C1886 C1894 1.574 . S
C1886 C1902 1.368 . S
H1887 C1895 0.950 . S
H1888 C1893 0.950 . S
H1889 C1894 0.949 . S
H1890 C1896 0.950 . S
H1891 C1897 0.950 . S
H1892 C1898 0.949 . S
C1893 H1888 0.950 . S
C1893 C1895 1.327 . S
C1893 C1899 1.429 . S
C1894 C1886 1.574 . S
C1894 H1889 0.949 . S
C1894 C1900 1.368 . S
C1895 C1879 1.349 . S
C1895 H1887 0.950 . S
C1895 C1893 1.327 . S
C1896 C1884 1.349 . S
C1896 H1890 0.950 . S
C1896 C1897 1.327 . S
C1897 H1891 0.950 . S
C1897 C1896 1.327 . S
C1897 C1901 1.429 . S
C1898 C1881 1.574 . S
C1898 H1892 0.949 . S
C1898 C1902 1.368 . S
C1899 C1880 1.429 . S
C1899 C1893 1.429 . S
C1899 C1900 1.523 . S
C1900 C1881 1.368 . S
C1900 C1894 1.368 . S
C1900 C1899 1.523 . S
C1901 C1885 1.429 . S
C1901 C1897 1.429 . S
C1901 C1902 1.523 . S
C1902 C1886 1.368 . S
C1902 C1898 1.368 . S
C1902 C1901 1.523 . S
H1903 C1878 0.950 . S
H1904 C1880 0.950 . S
H1905 C1881 0.949 . S
H1906 C1883 0.950 . S
H1907 C1885 0.950 . S
C1908 C1909 1.349 . S
C1908 C1910 1.327 . S
C1908 H1933 0.950 . S
C1909 C1908 1.349 . S
C1909 C1925 1.349 . S
C1910 C1908 1.327 . S
C1910 C1929 1.429 . S
C1910 H1934 0.950 . S
C1911 C1928 1.574 . S
C1911 C1930 1.368 . S
C1911 H1935 0.949 . S
H1912 C1916 0.949 . S
C1913 C1914 1.349 . S
C1913 C1915 1.327 . S
C1913 H1936 0.950 . S
C1914 C1913 1.349 . S
C1914 C1926 1.349 . S
C1915 C1913 1.327 . S
C1915 C1931 1.429 . S
C1915 H1937 0.950 . S
C1916 H1912 0.949 . S
C1916 C1924 1.574 . S
C1916 C1932 1.368 . S
H1917 C1925 0.950 . S
H1918 C1923 0.950 . S
H1919 C1924 0.949 . S
H1920 C1926 0.950 . S
H1921 C1927 0.950 . S
H1922 C1928 0.949 . S
C1923 H1918 0.950 . S
C1923 C1925 1.327 . S
C1923 C1929 1.429 . S
C1924 C1916 1.574 . S
C1924 H1919 0.949 . S
C1924 C1930 1.368 . S
C1925 C1909 1.349 . S
C1925 H1917 0.950 . S
C1925 C1923 1.327 . S
C1926 C1914 1.349 . S
C1926 H1920 0.950 . S
C1926 C1927 1.327 . S
C1927 H1921 0.950 . S
C1927 C1926 1.327 . S
C1927 C1931 1.429 . S
C1928 C1911 1.574 . S
C1928 H1922 0.949 . S
C1928 C1932 1.368 . S
C1929 C1910 1.429 . S
C1929 C1923 1.429 . S
C1929 C1930 1.523 . S
C1930 C1911 1.368 . S
C1930 C1924 1.368 . S
C1930 C1929 1.523 . S
C1931 C1915 1.429 . S
C1931 C1927 1.429 . S
C1931 C1932 1.523 . S
C1932 C1916 1.368 . S
C1932 C1928 1.368 . S
C1932 C1931 1.523 . S
H1933 C1908 0.950 . S
H1934 C1910 0.950 . S
H1935 C1911 0.949 . S
H1936 C1913 0.950 . S
H1937 C1915 0.950 . S
C1938 C1939 1.349 . S
C1938 C1940 1.327 . S
C1938 H1963 0.950 . S
C1939 C1938 1.349 . S
C1939 C1955 1.349 . S
C1940 C1938 1.327 . S
C1940 C1959 1.429 . S
C1940 H1964 0.950 . S
C1941 C1958 1.574 . S
C1941 C1960 1.368 . S
C1941 H1965 0.949 . S
H1942 C1946 0.949 . S
C1943 C1944 1.349 . S
C1943 C1945 1.327 . S
C1943 H1966 0.950 . S
C1944 C1943 1.349 . S
C1944 C1956 1.349 . S
C1945 C1943 1.327 . S
C1945 C1961 1.429 . S
C1945 H1967 0.950 . S
C1946 H1942 0.949 . S
C1946 C1954 1.574 . S
C1946 C1962 1.368 . S
H1947 C1955 0.950 . S
H1948 C1953 0.950 . S
H1949 C1954 0.949 . S
H1950 C1956 0.950 . S
H1951 C1957 0.950 . S
H1952 C1958 0.949 . S
C1953 H1948 0.950 . S
C1953 C1955 1.327 . S
C1953 C1959 1.429 . S
C1954 C1946 1.574 . S
C1954 H1949 0.949 . S
C1954 C1960 1.368 . S
C1955 C1939 1.349 . S
C1955 H1947 0.950 . S
C1955 C1953 1.327 . S
C1956 C1944 1.349 . S
C1956 H1950 0.950 . S
C1956 C1957 1.327 . S
C1957 H1951 0.950 . S
C1957 C1956 1.327 . S
C1957 C1961 1.429 . S
C1958 C1941 1.574 . S
C1958 H1952 0.949 . S
C1958 C1962 1.368 . S
C1959 C1940 1.429 . S
C1959 C1953 1.429 . S
C1959 C1960 1.523 . S
C1960 C1941 1.368 . S
C1960 C1954 1.368 . S
C1960 C1959 1.523 . S
C1961 C1945 1.429 . S
C1961 C1957 1.429 . S
C1961 C1962 1.523 . S
C1962 C1946 1.368 . S
C1962 C1958 1.368 . S
C1962 C1961 1.523 . S
H1963 C1938 0.950 . S
H1964 C1940 0.950 . S
H1965 C1941 0.949 . S
H1966 C1943 0.950 . S
H1967 C1945 0.950 . S
C1968 C1969 1.349 . S
C1968 C1970 1.327 . S
C1968 H1993 0.950 . S
C1969 C1968 1.349 . S
C1969 C1985 1.349 . S
C1970 C1968 1.327 . S
C1970 C1989 1.429 . S
C1970 H1994 0.950 . S
C1971 C1988 1.574 . S
C1971 C1990 1.368 . S
C1971 H1995 0.949 . S
H1972 C1976 0.949 . S
C1973 C1974 1.349 . S
C1973 C1975 1.327 . S
C1973 H1996 0.950 . S
C1974 C1973 1.349 . S
C1974 C1986 1.349 . S
C1975 C1973 1.327 . S
C1975 C1991 1.429 . S
C1975 H1997 0.950 . S
C1976 H1972 0.949 . S
C1976 C1984 1.574 . S
C1976 C1992 1.368 . S
H1977 C1985 0.950 . S
H1978 C1983 0.950 . S
H1979 C1984 0.949 . S
H1980 C1986 0.950 . S
H1981 C1987 0.950 . S
H1982 C1988 0.949 . S
C1983 H1978 0.950 . S
C1983 C1985 1.327 . S
C1983 C1989 1.429 . S
C1984 C1976 1.574 . S
C1984 H1979 0.949 . S
C1984 C1990 1.368 . S
C1985 C1969 1.349 . S
C1985 H1977 0.950 . S
C1985 C1983 1.327 . S
C1986 C1974 1.349 . S
C1986 H1980 0.950 . S
C1986 C1987 1.327 . S
C1987 H1981 0.950 . S
C1987 C1986 1.327 . S
C1987 C1991 1.429 . S
C1988 C1971 1.574 . S
C1988 H1982 0.949 . S
C1988 C1992 1.368 . S
C1989 C1970 1.429 . S
C1989 C1983 1.429 . S
C1989 C1990 1.523 . S
C1990 C1971 1.368 . S
C1990 C1984 1.368 . S
C1990 C1989 1.523 . S
C1991 C1975 1.429 . S
C1991 C1987 1.429 . S
C1991 C1992 1.523 . S
C1992 C1976 1.368 . S
C1992 C1988 1.368 . S
C1992 C1991 1.523 . S
H1993 C1968 0.950 . S
H1994 C1970 0.950 . S
H1995 C1971 0.949 . S
H1996 C1973 0.950 . S
H1997 C1975 0.950 . S
C1998 C1999 1.349 . S
C1998 C2000 1.327 . S
C1998 H2023 0.950 . S
C1999 C1998 1.349 . S
C1999 C2015 1.349 . S
C2000 C1998 1.327 . S
C2000 C2019 1.429 . S
C2000 H2024 0.950 . S
C2001 C2018 1.574 . S
C2001 C2020 1.368 1_565 S
C2001 H2025 0.949 . S
H2002 C2006 0.949 . S
C2003 C2004 1.349 . S
C2003 C2005 1.327 . S
C2003 H2026 0.950 . S
C2004 C2003 1.349 . S
C2004 C2016 1.344 . S
C2005 C2003 1.327 . S
C2005 C2021 1.429 . S
C2005 H2027 0.950 . S
C2006 H2002 0.949 . S
C2006 C2014 1.574 . S
C2006 C2022 1.315 1_545 S
H2007 C2015 0.927 1_565 S
H2008 C2013 0.950 1_565 S
H2009 C2014 0.949 . S
H2010 C2016 0.953 1_545 S
H2011 C2017 0.950 . S
H2012 C2018 0.949 . S
C2013 H2008 0.950 1_545 S
C2013 C2015 1.327 . S
C2013 C2019 1.429 . S
C2014 C2006 1.574 . S
C2014 H2009 0.949 . S
C2014 C2020 1.368 . S
C2015 C1999 1.349 . S
C2015 H2007 0.927 1_545 S
C2015 C2013 1.327 . S
C2016 C2004 1.344 . S
C2016 H2010 0.953 1_565 S
C2016 C2017 1.329 1_565 S
C2017 H2011 0.950 . S
C2017 C2016 1.329 1_545 S
C2017 C2021 1.429 1_545 S
C2018 C2001 1.574 . S
C2018 H2012 0.949 . S
C2018 C2022 1.411 . S
C2019 C2000 1.429 . S
C2019 C2013 1.429 . S
C2019 C2020 1.523 . S
C2020 C2001 1.368 1_545 S
C2020 C2014 1.368 . S
C2020 C2019 1.523 . S
C2021 C2005 1.429 . S
C2021 C2017 1.429 1_565 S
C2021 C2022 1.540 . S
C2022 C2006 1.315 1_565 S
C2022 C2018 1.411 . S
C2022 C2021 1.540 . S
H2023 C1998 0.950 . S
H2024 C2000 0.950 . S
H2025 C2001 0.949 . S
H2026 C2003 0.950 . S
H2027 C2005 0.950 . S
C2028 C2029 1.349 . S
C2028 C2030 1.327 . S
C2028 H2053 0.950 . S
C2029 C2028 1.349 . S
C2029 C2045 1.349 . S
C2030 C2028 1.327 . S
C2030 C2049 1.429 . S
C2030 H2054 0.950 . S
C2031 C2048 1.574 . S
C2031 C2050 1.368 . S
C2031 H2055 0.949 . S
H2032 C2036 0.949 . S
C2033 C2034 1.349 . S
C2033 C2035 1.327 . S
C2033 H2056 0.950 . S
C2034 C2033 1.349 . S
C2034 C2046 1.349 . S
C2035 C2033 1.327 . S
C2035 C2051 1.429 . S
C2035 H2057 0.950 . S
C2036 H2032 0.949 . S
C2036 C2044 1.574 . S
C2036 C2052 1.368 . S
H2037 C2045 0.950 . S
H2038 C2043 0.950 . S
H2039 C2044 0.949 . S
H2040 C2046 0.950 . S
H2041 C2047 0.950 . S
H2042 C2048 0.949 . S
C2043 H2038 0.950 . S
C2043 C2045 1.327 . S
C2043 C2049 1.429 . S
C2044 C2036 1.574 . S
C2044 H2039 0.949 . S
C2044 C2050 1.368 . S
C2045 C2029 1.349 . S
C2045 H2037 0.950 . S
C2045 C2043 1.327 . S
C2046 C2034 1.349 . S
C2046 H2040 0.950 . S
C2046 C2047 1.327 . S
C2047 H2041 0.950 . S
C2047 C2046 1.327 . S
C2047 C2051 1.429 . S
C2048 C2031 1.574 . S
C2048 H2042 0.949 . S
C2048 C2052 1.368 . S
C2049 C2030 1.429 . S
C2049 C2043 1.429 . S
C2049 C2050 1.523 . S
C2050 C2031 1.368 . S
C2050 C2044 1.368 . S
C2050 C2049 1.523 . S
C2051 C2035 1.429 . S
C2051 C2047 1.429 . S
C2051 C2052 1.523 . S
C2052 C2036 1.368 . S
C2052 C2048 1.368 . S
C2052 C2051 1.523 . S
H2053 C2028 0.950 . S
H2054 C2030 0.950 . S
H2055 C2031 0.949 . S
H2056 C2033 0.950 . S
H2057 C2035 0.950 . S
C2058 C2059 1.349 . S
C2058 C2060 1.327 . S
C2058 H2083 0.950 . S
C2059 C2058 1.349 . S
C2059 C2075 1.349 . S
C2060 C2058 1.327 . S
C2060 C2079 1.429 . S
C2060 H2084 0.950 . S
C2061 C2078 1.574 . S
C2061 C2080 1.368 . S
C2061 H2085 0.949 . S
H2062 C2066 0.949 . S
C2063 C2064 1.349 . S
C2063 C2065 1.327 . S
C2063 H2086 0.950 . S
C2064 C2063 1.349 . S
C2064 C2076 1.349 . S
C2065 C2063 1.327 . S
C2065 C2081 1.429 . S
C2065 H2087 0.950 . S
C2066 H2062 0.949 . S
C2066 C2074 1.574 . S
C2066 C2082 1.368 . S
H2067 C2075 0.950 . S
H2068 C2073 0.950 . S
H2069 C2074 0.949 . S
H2070 C2076 0.950 . S
H2071 C2077 0.950 . S
H2072 C2078 0.949 . S
C2073 H2068 0.950 . S
C2073 C2075 1.327 . S
C2073 C2079 1.429 . S
C2074 C2066 1.574 . S
C2074 H2069 0.949 . S
C2074 C2080 1.368 . S
C2075 C2059 1.349 . S
C2075 H2067 0.950 . S
C2075 C2073 1.327 . S
C2076 C2064 1.349 . S
C2076 H2070 0.950 . S
C2076 C2077 1.327 . S
C2077 H2071 0.950 . S
C2077 C2076 1.327 . S
C2077 C2081 1.429 . S
C2078 C2061 1.574 . S
C2078 H2072 0.949 . S
C2078 C2082 1.368 . S
C2079 C2060 1.429 . S
C2079 C2073 1.429 . S
C2079 C2080 1.523 . S
C2080 C2061 1.368 . S
C2080 C2074 1.368 . S
C2080 C2079 1.523 . S
C2081 C2065 1.429 . S
C2081 C2077 1.429 . S
C2081 C2082 1.523 . S
C2082 C2066 1.368 . S
C2082 C2078 1.368 . S
C2082 C2081 1.523 . S
H2083 C2058 0.950 . S
H2084 C2060 0.950 . S
H2085 C2061 0.949 . S
H2086 C2063 0.950 . S
H2087 C2065 0.950 . S
C2088 C2089 1.349 . S
C2088 C2090 1.327 . S
C2088 H2113 0.950 . S
C2089 C2088 1.349 . S
C2089 C2105 1.349 . S
C2090 C2088 1.327 . S
C2090 C2109 1.429 . S
C2090 H2114 0.950 . S
C2091 C2108 1.574 . S
C2091 C2110 1.368 . S
C2091 H2115 0.949 . S
H2092 C2096 0.949 . S
C2093 C2094 1.349 . S
C2093 C2095 1.327 . S
C2093 H2116 0.950 . S
C2094 C2093 1.349 . S
C2094 C2106 1.349 . S
C2095 C2093 1.327 . S
C2095 C2111 1.429 . S
C2095 H2117 0.950 . S
C2096 H2092 0.949 . S
C2096 C2104 1.574 . S
C2096 C2112 1.368 . S
H2097 C2105 0.950 . S
H2098 C2103 0.950 . S
H2099 C2104 0.949 . S
H2100 C2106 0.950 . S
H2101 C2107 0.950 . S
H2102 C2108 0.949 . S
C2103 H2098 0.950 . S
C2103 C2105 1.327 . S
C2103 C2109 1.429 . S
C2104 C2096 1.574 . S
C2104 H2099 0.949 . S
C2104 C2110 1.368 . S
C2105 C2089 1.349 . S
C2105 H2097 0.950 . S
C2105 C2103 1.327 . S
C2106 C2094 1.349 . S
C2106 H2100 0.950 . S
C2106 C2107 1.327 . S
C2107 H2101 0.950 . S
C2107 C2106 1.327 . S
C2107 C2111 1.429 . S
C2108 C2091 1.574 . S
C2108 H2102 0.949 . S
C2108 C2112 1.368 . S
C2109 C2090 1.429 . S
C2109 C2103 1.429 . S
C2109 C2110 1.523 . S
C2110 C2091 1.368 . S
C2110 C2104 1.368 . S
C2110 C2109 1.523 . S
C2111 C2095 1.429 . S
C2111 C2107 1.429 . S
C2111 C2112 1.523 . S
C2112 C2096 1.368 . S
C2112 C2108 1.368 . S
C2112 C2111 1.523 . S
H2113 C2088 0.950 . S
H2114 C2090 0.950 . S
H2115 C2091 0.949 . S
H2116 C2093 0.950 . S
H2117 C2095 0.950 . S
C2118 C2119 1.349 . S
C2118 C2120 1.327 . S
C2118 H2143 0.950 . S
C2119 C2118 1.349 . S
C2119 C2135 1.349 . S
C2120 C2118 1.327 . S
C2120 C2139 1.429 . S
C2120 H2144 0.950 . S
C2121 C2138 1.574 . S
C2121 C2140 1.368 . S
C2121 H2145 0.949 . S
H2122 C2126 0.949 . S
C2123 C2124 1.349 . S
C2123 C2125 1.327 . S
C2123 H2146 0.950 . S
C2124 C2123 1.349 . S
C2124 C2136 1.349 . S
C2125 C2123 1.327 . S
C2125 C2141 1.429 . S
C2125 H2147 0.950 . S
C2126 H2122 0.949 . S
C2126 C2134 1.574 . S
C2126 C2142 1.368 . S
H2127 C2135 0.950 . S
H2128 C2133 0.950 . S
H2129 C2134 0.949 . S
H2130 C2136 0.950 . S
H2131 C2137 0.950 . S
H2132 C2138 0.949 . S
C2133 H2128 0.950 . S
C2133 C2135 1.327 . S
C2133 C2139 1.429 . S
C2134 C2126 1.574 . S
C2134 H2129 0.949 . S
C2134 C2140 1.368 . S
C2135 C2119 1.349 . S
C2135 H2127 0.950 . S
C2135 C2133 1.327 . S
C2136 C2124 1.349 . S
C2136 H2130 0.950 . S
C2136 C2137 1.327 . S
C2137 H2131 0.950 . S
C2137 C2136 1.327 . S
C2137 C2141 1.429 . S
C2138 C2121 1.574 . S
C2138 H2132 0.949 . S
C2138 C2142 1.368 . S
C2139 C2120 1.429 . S
C2139 C2133 1.429 . S
C2139 C2140 1.523 . S
C2140 C2121 1.368 . S
C2140 C2134 1.368 . S
C2140 C2139 1.523 . S
C2141 C2125 1.429 . S
C2141 C2137 1.429 . S
C2141 C2142 1.523 . S
C2142 C2126 1.368 . S
C2142 C2138 1.368 . S
C2142 C2141 1.523 . S
H2143 C2118 0.950 . S
H2144 C2120 0.950 . S
H2145 C2121 0.949 . S
H2146 C2123 0.950 . S
H2147 C2125 0.950 . S
C2148 C2149 1.349 . S
C2148 C2150 1.327 . S
C2148 H2173 0.950 . S
C2149 C2148 1.349 . S
C2149 C2165 1.349 1_655 S
C2150 C2148 1.327 . S
C2150 C2169 1.429 . S
C2150 H2174 0.950 . S
C2151 C2168 1.574 . S
C2151 C2170 1.316 1_455 S
C2151 H2175 0.949 . S
H2152 C2156 0.949 . S
C2153 C2154 1.349 . S
C2153 C2155 1.327 . S
C2153 H2176 0.950 . S
C2154 C2153 1.349 . S
C2154 C2166 1.349 . S
C2155 C2153 1.327 . S
C2155 C2171 1.429 . S
C2155 H2177 0.950 . S
C2156 H2152 0.949 . S
C2156 C2164 1.574 . S
C2156 C2172 1.368 1_655 S
H2157 C2165 0.950 . S
H2158 C2163 0.950 . S
H2159 C2164 0.949 . S
H2160 C2166 0.950 1_655 S
H2161 C2167 0.972 . S
H2162 C2168 0.949 . S
C2163 H2158 0.950 . S
C2163 C2165 1.327 . S
C2163 C2169 1.429 1_455 S
C2164 C2156 1.574 . S
C2164 H2159 0.949 . S
C2164 C2170 1.411 . S
C2165 C2149 1.349 1_455 S
C2165 H2157 0.950 . S
C2165 C2163 1.327 . S
C2166 C2154 1.349 . S
C2166 H2160 0.950 1_455 S
C2166 C2167 1.321 1_455 S
C2167 H2161 0.972 . S
C2167 C2166 1.321 1_655 S
C2167 C2171 1.413 1_655 S
C2168 C2151 1.574 . S
C2168 H2162 0.949 . S
C2168 C2172 1.368 . S
C2169 C2150 1.429 . S
C2169 C2163 1.429 1_655 S
C2169 C2170 1.537 . S
C2170 C2151 1.316 1_655 S
C2170 C2164 1.411 . S
C2170 C2169 1.537 . S
C2171 C2155 1.429 . S
C2171 C2167 1.413 1_455 S
C2171 C2172 1.523 . S
C2172 C2156 1.368 1_455 S
C2172 C2168 1.368 . S
C2172 C2171 1.523 . S
H2173 C2148 0.950 . S
H2174 C2150 0.950 . S
H2175 C2151 0.949 . S
H2176 C2153 0.950 . S
H2177 C2155 0.950 . S
C2178 C2179 1.349 . S
C2178 C2180 1.327 . S
C2178 H2203 0.950 . S
C2179 C2178 1.349 . S
C2179 C2195 1.349 . S
C2180 C2178 1.327 . S
C2180 C2199 1.429 . S
C2180 H2204 0.950 . S
C2181 C2198 1.574 . S
C2181 C2200 1.368 . S
C2181 H2205 0.949 . S
H2182 C2186 0.949 . S
C2183 C2184 1.349 . S
C2183 C2185 1.327 . S
C2183 H2206 0.950 . S
C2184 C2183 1.349 . S
C2184 C2196 1.349 . S
C2185 C2183 1.327 . S
C2185 C2201 1.429 . S
C2185 H2207 0.950 . S
C2186 H2182 0.949 . S
C2186 C2194 1.574 . S
C2186 C2202 1.368 . S
H2187 C2195 0.950 . S
H2188 C2193 0.950 . S
H2189 C2194 0.949 . S
H2190 C2196 0.950 . S
H2191 C2197 0.950 . S
H2192 C2198 0.949 . S
C2193 H2188 0.950 . S
C2193 C2195 1.327 . S
C2193 C2199 1.429 . S
C2194 C2186 1.574 . S
C2194 H2189 0.949 . S
C2194 C2200 1.368 . S
C2195 C2179 1.349 . S
C2195 H2187 0.950 . S
C2195 C2193 1.327 . S
C2196 C2184 1.349 . S
C2196 H2190 0.950 . S
C2196 C2197 1.327 . S
C2197 H2191 0.950 . S
C2197 C2196 1.327 . S
C2197 C2201 1.429 . S
C2198 C2181 1.574 . S
C2198 H2192 0.949 . S
C2198 C2202 1.368 . S
C2199 C2180 1.429 . S
C2199 C2193 1.429 . S
C2199 C2200 1.523 . S
C2200 C2181 1.368 . S
C2200 C2194 1.368 . S
C2200 C2199 1.523 . S
C2201 C2185 1.429 . S
C2201 C2197 1.429 . S
C2201 C2202 1.523 . S
C2202 C2186 1.368 . S
C2202 C2198 1.368 . S
C2202 C2201 1.523 . S
H2203 C2178 0.950 . S
H2204 C2180 0.950 . S
H2205 C2181 0.949 . S
H2206 C2183 0.950 . S
H2207 C2185 0.950 . S
C2208 C2209 1.349 . S
C2208 C2210 1.327 . S
C2208 H2233 0.950 . S
C2209 C2208 1.349 . S
C2209 C2225 1.349 . S
C2210 C2208 1.327 . S
C2210 C2229 1.429 . S
C2210 H2234 0.950 . S
C2211 C2228 1.574 . S
C2211 C2230 1.368 . S
C2211 H2235 0.949 . S
H2212 C2216 0.949 . S
C2213 C2214 1.349 . S
C2213 C2215 1.327 . S
C2213 H2236 0.950 . S
C2214 C2213 1.349 . S
C2214 C2226 1.349 . S
C2215 C2213 1.327 . S
C2215 C2231 1.429 . S
C2215 H2237 0.950 . S
C2216 H2212 0.949 . S
C2216 C2224 1.574 . S
C2216 C2232 1.368 . S
H2217 C2225 0.950 . S
H2218 C2223 0.950 . S
H2219 C2224 0.949 . S
H2220 C2226 0.950 . S
H2221 C2227 0.950 . S
H2222 C2228 0.949 . S
C2223 H2218 0.950 . S
C2223 C2225 1.327 . S
C2223 C2229 1.429 . S
C2224 C2216 1.574 . S
C2224 H2219 0.949 . S
C2224 C2230 1.368 . S
C2225 C2209 1.349 . S
C2225 H2217 0.950 . S
C2225 C2223 1.327 . S
C2226 C2214 1.349 . S
C2226 H2220 0.950 . S
C2226 C2227 1.327 . S
C2227 H2221 0.950 . S
C2227 C2226 1.327 . S
C2227 C2231 1.429 . S
C2228 C2211 1.574 . S
C2228 H2222 0.949 . S
C2228 C2232 1.368 . S
C2229 C2210 1.429 . S
C2229 C2223 1.429 . S
C2229 C2230 1.523 . S
C2230 C2211 1.368 . S
C2230 C2224 1.368 . S
C2230 C2229 1.523 . S
C2231 C2215 1.429 . S
C2231 C2227 1.429 . S
C2231 C2232 1.523 . S
C2232 C2216 1.368 . S
C2232 C2228 1.368 . S
C2232 C2231 1.523 . S
H2233 C2208 0.950 . S
H2234 C2210 0.950 . S
H2235 C2211 0.949 . S
H2236 C2213 0.950 . S
H2237 C2215 0.950 . S
C2238 C2239 1.349 . S
C2238 C2240 1.327 . S
C2238 H2263 0.950 . S
C2239 C2238 1.349 . S
C2239 C2255 1.349 . S
C2240 C2238 1.327 . S
C2240 C2259 1.429 . S
C2240 H2264 0.950 . S
C2241 C2258 1.574 . S
C2241 C2260 1.368 . S
C2241 H2265 0.949 . S
H2242 C2246 0.949 . S
C2243 C2244 1.349 . S
C2243 C2245 1.327 . S
C2243 H2266 0.950 . S
C2244 C2243 1.349 . S
C2244 C2256 1.349 . S
C2245 C2243 1.327 . S
C2245 C2261 1.429 . S
C2245 H2267 0.950 . S
C2246 H2242 0.949 . S
C2246 C2254 1.574 . S
C2246 C2262 1.368 . S
H2247 C2255 0.950 . S
H2248 C2253 0.950 . S
H2249 C2254 0.949 . S
H2250 C2256 0.950 . S
H2251 C2257 0.950 . S
H2252 C2258 0.949 . S
C2253 H2248 0.950 . S
C2253 C2255 1.327 . S
C2253 C2259 1.429 . S
C2254 C2246 1.574 . S
C2254 H2249 0.949 . S
C2254 C2260 1.368 . S
C2255 C2239 1.349 . S
C2255 H2247 0.950 . S
C2255 C2253 1.327 . S
C2256 C2244 1.349 . S
C2256 H2250 0.950 . S
C2256 C2257 1.327 . S
C2257 H2251 0.950 . S
C2257 C2256 1.327 . S
C2257 C2261 1.429 . S
C2258 C2241 1.574 . S
C2258 H2252 0.949 . S
C2258 C2262 1.368 . S
C2259 C2240 1.429 . S
C2259 C2253 1.429 . S
C2259 C2260 1.523 . S
C2260 C2241 1.368 . S
C2260 C2254 1.368 . S
C2260 C2259 1.523 . S
C2261 C2245 1.429 . S
C2261 C2257 1.429 . S
C2261 C2262 1.523 . S
C2262 C2246 1.368 . S
C2262 C2258 1.368 . S
C2262 C2261 1.523 . S
H2263 C2238 0.950 . S
H2264 C2240 0.950 . S
H2265 C2241 0.949 . S
H2266 C2243 0.950 . S
H2267 C2245 0.950 . S
C2268 C2269 1.349 . S
C2268 C2270 1.327 . S
C2268 H2293 0.950 . S
C2269 C2268 1.349 . S
C2269 C2285 1.349 . S
C2270 C2268 1.327 . S
C2270 C2289 1.429 . S
C2270 H2294 0.950 . S
C2271 C2288 1.574 . S
C2271 C2290 1.368 . S
C2271 H2295 0.949 . S
H2272 C2276 0.949 . S
C2273 C2274 1.349 . S
C2273 C2275 1.327 . S
C2273 H2296 0.950 . S
C2274 C2273 1.349 . S
C2274 C2286 1.349 . S
C2275 C2273 1.327 . S
C2275 C2291 1.429 . S
C2275 H2297 0.950 . S
C2276 H2272 0.949 . S
C2276 C2284 1.574 . S
C2276 C2292 1.368 . S
H2277 C2285 0.950 . S
H2278 C2283 0.950 . S
H2279 C2284 0.949 . S
H2280 C2286 0.950 . S
H2281 C2287 0.950 . S
H2282 C2288 0.949 . S
C2283 H2278 0.950 . S
C2283 C2285 1.327 . S
C2283 C2289 1.429 . S
C2284 C2276 1.574 . S
C2284 H2279 0.949 . S
C2284 C2290 1.368 . S
C2285 C2269 1.349 . S
C2285 H2277 0.950 . S
C2285 C2283 1.327 . S
C2286 C2274 1.349 . S
C2286 H2280 0.950 . S
C2286 C2287 1.327 . S
C2287 H2281 0.950 . S
C2287 C2286 1.327 . S
C2287 C2291 1.429 . S
C2288 C2271 1.574 . S
C2288 H2282 0.949 . S
C2288 C2292 1.368 . S
C2289 C2270 1.429 . S
C2289 C2283 1.429 . S
C2289 C2290 1.523 . S
C2290 C2271 1.368 . S
C2290 C2284 1.368 . S
C2290 C2289 1.523 . S
C2291 C2275 1.429 . S
C2291 C2287 1.429 . S
C2291 C2292 1.523 . S
C2292 C2276 1.368 . S
C2292 C2288 1.368 . S
C2292 C2291 1.523 . S
H2293 C2268 0.950 . S
H2294 C2270 0.950 . S
H2295 C2271 0.949 . S
H2296 C2273 0.950 . S
H2297 C2275 0.950 . S
C2298 C2299 1.349 . S
C2298 C2300 1.327 . S
C2298 H2323 0.950 . S
C2299 C2298 1.349 . S
C2299 C2315 1.349 . S
C2300 C2298 1.327 . S
C2300 C2319 1.429 . S
C2300 H2324 0.950 . S
C2301 C2318 1.574 . S
C2301 C2320 1.368 . S
C2301 H2325 0.949 . S
H2302 C2306 0.949 . S
C2303 C2304 1.349 . S
C2303 C2305 1.327 . S
C2303 H2326 0.950 . S
C2304 C2303 1.349 . S
C2304 C2316 1.349 . S
C2305 C2303 1.327 . S
C2305 C2321 1.429 . S
C2305 H2327 0.950 . S
C2306 H2302 0.949 . S
C2306 C2314 1.574 . S
C2306 C2322 1.368 . S
H2307 C2315 0.950 . S
H2308 C2313 0.950 . S
H2309 C2314 0.949 . S
H2310 C2316 0.950 . S
H2311 C2317 0.950 . S
H2312 C2318 0.949 . S
C2313 H2308 0.950 . S
C2313 C2315 1.327 . S
C2313 C2319 1.429 . S
C2314 C2306 1.574 . S
C2314 H2309 0.949 . S
C2314 C2320 1.368 . S
C2315 C2299 1.349 . S
C2315 H2307 0.950 . S
C2315 C2313 1.327 . S
C2316 C2304 1.349 . S
C2316 H2310 0.950 . S
C2316 C2317 1.327 . S
C2317 H2311 0.950 . S
C2317 C2316 1.327 . S
C2317 C2321 1.429 . S
C2318 C2301 1.574 . S
C2318 H2312 0.949 . S
C2318 C2322 1.368 . S
C2319 C2300 1.429 . S
C2319 C2313 1.429 . S
C2319 C2320 1.523 . S
C2320 C2301 1.368 . S
C2320 C2314 1.368 . S
C2320 C2319 1.523 . S
C2321 C2305 1.429 . S
C2321 C2317 1.429 . S
C2321 C2322 1.523 . S
C2322 C2306 1.368 . S
C2322 C2318 1.368 . S
C2322 C2321 1.523 . S
H2323 C2298 0.950 . S
H2324 C2300 0.950 . S
H2325 C2301 0.949 . S
H2326 C2303 0.950 . S
H2327 C2305 0.950 . S
C2328 C2329 1.349 . S
C2328 C2330 1.327 . S
C2328 H2353 0.950 . S
C2329 C2328 1.349 . S
C2329 C2345 1.349 . S
C2330 C2328 1.327 . S
C2330 C2349 1.429 . S
C2330 H2354 0.950 . S
C2331 C2348 1.574 . S
C2331 C2350 1.368 . S
C2331 H2355 0.949 . S
H2332 C2336 0.949 . S
C2333 C2334 1.349 . S
C2333 C2335 1.327 . S
C2333 H2356 0.950 . S
C2334 C2333 1.349 . S
C2334 C2346 1.349 . S
C2335 C2333 1.327 . S
C2335 C2351 1.429 . S
C2335 H2357 0.950 . S
C2336 H2332 0.949 . S
C2336 C2344 1.574 . S
C2336 C2352 1.368 . S
H2337 C2345 0.950 . S
H2338 C2343 0.950 . S
H2339 C2344 0.949 . S
H2340 C2346 0.950 . S
H2341 C2347 0.950 . S
H2342 C2348 0.949 . S
C2343 H2338 0.950 . S
C2343 C2345 1.327 . S
C2343 C2349 1.429 . S
C2344 C2336 1.574 . S
C2344 H2339 0.949 . S
C2344 C2350 1.368 . S
C2345 C2329 1.349 . S
C2345 H2337 0.950 . S
C2345 C2343 1.327 . S
C2346 C2334 1.349 . S
C2346 H2340 0.950 . S
C2346 C2347 1.327 . S
C2347 H2341 0.950 . S
C2347 C2346 1.327 . S
C2347 C2351 1.429 . S
C2348 C2331 1.574 . S
C2348 H2342 0.949 . S
C2348 C2352 1.368 . S
C2349 C2330 1.429 . S
C2349 C2343 1.429 . S
C2349 C2350 1.523 . S
C2350 C2331 1.368 . S
C2350 C2344 1.368 . S
C2350 C2349 1.523 . S
C2351 C2335 1.429 . S
C2351 C2347 1.429 . S
C2351 C2352 1.523 . S
C2352 C2336 1.368 . S
C2352 C2348 1.368 . S
C2352 C2351 1.523 . S
H2353 C2328 0.950 . S
H2354 C2330 0.950 . S
H2355 C2331 0.949 . S
H2356 C2333 0.950 . S
H2357 C2335 0.950 . S
C2358 C2359 1.349 . S
C2358 C2360 1.327 . S
C2358 H2383 0.950 . S
C2359 C2358 1.349 . S
C2359 C2375 1.349 . S
C2360 C2358 1.327 . S
C2360 C2379 1.429 . S
C2360 H2384 0.950 . S
C2361 C2378 1.574 . S
C2361 C2380 1.368 . S
C2361 H2385 0.949 . S
H2362 C2366 0.949 . S
C2363 C2364 1.349 . S
C2363 C2365 1.327 . S
C2363 H2386 0.950 . S
C2364 C2363 1.349 . S
C2364 C2376 1.349 . S
C2365 C2363 1.327 . S
C2365 C2381 1.429 . S
C2365 H2387 0.950 . S
C2366 H2362 0.949 . S
C2366 C2374 1.574 . S
C2366 C2382 1.368 . S
H2367 C2375 0.950 . S
H2368 C2373 0.950 . S
H2369 C2374 0.949 . S
H2370 C2376 0.950 . S
H2371 C2377 0.950 . S
H2372 C2378 0.949 . S
C2373 H2368 0.950 . S
C2373 C2375 1.327 . S
C2373 C2379 1.429 . S
C2374 C2366 1.574 . S
C2374 H2369 0.949 . S
C2374 C2380 1.368 . S
C2375 C2359 1.349 . S
C2375 H2367 0.950 . S
C2375 C2373 1.327 . S
C2376 C2364 1.349 . S
C2376 H2370 0.950 . S
C2376 C2377 1.327 . S
C2377 H2371 0.950 . S
C2377 C2376 1.327 . S
C2377 C2381 1.429 . S
C2378 C2361 1.574 . S
C2378 H2372 0.949 . S
C2378 C2382 1.368 . S
C2379 C2360 1.429 . S
C2379 C2373 1.429 . S
C2379 C2380 1.523 . S
C2380 C2361 1.368 . S
C2380 C2374 1.368 . S
C2380 C2379 1.523 . S
C2381 C2365 1.429 . S
C2381 C2377 1.429 . S
C2381 C2382 1.523 . S
C2382 C2366 1.368 . S
C2382 C2378 1.368 . S
C2382 C2381 1.523 . S
H2383 C2358 0.950 . S
H2384 C2360 0.950 . S
H2385 C2361 0.949 . S
H2386 C2363 0.950 . S
H2387 C2365 0.950 . S
C2388 C2389 1.349 . S
C2388 C2390 1.327 . S
C2388 H2413 0.950 . S
C2389 C2388 1.349 . S
C2389 C2405 1.349 . S
C2390 C2388 1.327 . S
C2390 C2409 1.429 . S
C2390 H2414 0.950 . S
C2391 C2408 1.574 . S
C2391 C2410 1.368 . S
C2391 H2415 0.949 . S
H2392 C2396 0.949 . S
C2393 C2394 1.349 . S
C2393 C2395 1.327 . S
C2393 H2416 0.950 . S
C2394 C2393 1.349 . S
C2394 C2406 1.349 . S
C2395 C2393 1.327 . S
C2395 C2411 1.429 . S
C2395 H2417 0.950 . S
C2396 H2392 0.949 . S
C2396 C2404 1.574 . S
C2396 C2412 1.368 . S
H2397 C2405 0.950 . S
H2398 C2403 0.950 . S
H2399 C2404 0.949 . S
H2400 C2406 0.950 . S
H2401 C2407 0.950 . S
H2402 C2408 0.949 . S
C2403 H2398 0.950 . S
C2403 C2405 1.327 . S
C2403 C2409 1.429 . S
C2404 C2396 1.574 . S
C2404 H2399 0.949 . S
C2404 C2410 1.368 . S
C2405 C2389 1.349 . S
C2405 H2397 0.950 . S
C2405 C2403 1.327 . S
C2406 C2394 1.349 . S
C2406 H2400 0.950 . S
C2406 C2407 1.327 . S
C2407 H2401 0.950 . S
C2407 C2406 1.327 . S
C2407 C2411 1.429 . S
C2408 C2391 1.574 . S
C2408 H2402 0.949 . S
C2408 C2412 1.368 . S
C2409 C2390 1.429 . S
C2409 C2403 1.429 . S
C2409 C2410 1.523 . S
C2410 C2391 1.368 . S
C2410 C2404 1.368 . S
C2410 C2409 1.523 . S
C2411 C2395 1.429 . S
C2411 C2407 1.429 . S
C2411 C2412 1.523 . S
C2412 C2396 1.368 . S
C2412 C2408 1.368 . S
C2412 C2411 1.523 . S
H2413 C2388 0.950 . S
H2414 C2390 0.950 . S
H2415 C2391 0.949 . S
H2416 C2393 0.950 . S
H2417 C2395 0.950 . S
C2418 C2419 1.349 . S
C2418 C2420 1.327 . S
C2418 H2443 0.950 . S
C2419 C2418 1.349 . S
C2419 C2435 1.349 . S
C2420 C2418 1.327 . S
C2420 C2439 1.429 . S
C2420 H2444 0.950 . S
C2421 C2438 1.574 . S
C2421 C2440 1.368 . S
C2421 H2445 0.949 . S
H2422 C2426 0.949 . S
C2423 C2424 1.349 . S
C2423 C2425 1.327 . S
C2423 H2446 0.950 . S
C2424 C2423 1.349 . S
C2424 C2436 1.349 . S
C2425 C2423 1.327 . S
C2425 C2441 1.429 . S
C2425 H2447 0.950 . S
C2426 H2422 0.949 . S
C2426 C2434 1.574 . S
C2426 C2442 1.368 . S
H2427 C2435 0.950 . S
H2428 C2433 0.950 . S
H2429 C2434 0.949 . S
H2430 C2436 0.950 . S
H2431 C2437 0.950 . S
H2432 C2438 0.949 . S
C2433 H2428 0.950 . S
C2433 C2435 1.327 . S
C2433 C2439 1.429 . S
C2434 C2426 1.574 . S
C2434 H2429 0.949 . S
C2434 C2440 1.368 . S
C2435 C2419 1.349 . S
C2435 H2427 0.950 . S
C2435 C2433 1.327 . S
C2436 C2424 1.349 . S
C2436 H2430 0.950 . S
C2436 C2437 1.327 . S
C2437 H2431 0.950 . S
C2437 C2436 1.327 . S
C2437 C2441 1.429 . S
C2438 C2421 1.574 . S
C2438 H2432 0.949 . S
C2438 C2442 1.368 . S
C2439 C2420 1.429 . S
C2439 C2433 1.429 . S
C2439 C2440 1.523 . S
C2440 C2421 1.368 . S
C2440 C2434 1.368 . S
C2440 C2439 1.523 . S
C2441 C2425 1.429 . S
C2441 C2437 1.429 . S
C2441 C2442 1.523 . S
C2442 C2426 1.368 . S
C2442 C2438 1.368 . S
C2442 C2441 1.523 . S
H2443 C2418 0.950 . S
H2444 C2420 0.950 . S
H2445 C2421 0.949 . S
H2446 C2423 0.950 . S
H2447 C2425 0.950 . S
C2448 C2449 1.349 . S
C2448 C2450 1.327 . S
C2448 H2473 0.950 . S
C2449 C2448 1.349 . S
C2449 C2465 1.349 . S
C2450 C2448 1.327 . S
C2450 C2469 1.429 . S
C2450 H2474 0.950 . S
C2451 C2468 1.574 . S
C2451 C2470 1.368 . S
C2451 H2475 0.949 . S
H2452 C2456 0.949 . S
C2453 C2454 1.349 . S
C2453 C2455 1.327 . S
C2453 H2476 0.950 . S
C2454 C2453 1.349 . S
C2454 C2466 1.349 . S
C2455 C2453 1.327 . S
C2455 C2471 1.429 . S
C2455 H2477 0.950 . S
C2456 H2452 0.949 . S
C2456 C2464 1.574 . S
C2456 C2472 1.368 . S
H2457 C2465 0.950 . S
H2458 C2463 0.950 . S
H2459 C2464 0.949 . S
H2460 C2466 0.950 . S
H2461 C2467 0.950 . S
H2462 C2468 0.949 . S
C2463 H2458 0.950 . S
C2463 C2465 1.327 . S
C2463 C2469 1.429 . S
C2464 C2456 1.574 . S
C2464 H2459 0.949 . S
C2464 C2470 1.368 . S
C2465 C2449 1.349 . S
C2465 H2457 0.950 . S
C2465 C2463 1.327 . S
C2466 C2454 1.349 . S
C2466 H2460 0.950 . S
C2466 C2467 1.327 . S
C2467 H2461 0.950 . S
C2467 C2466 1.327 . S
C2467 C2471 1.429 . S
C2468 C2451 1.574 . S
C2468 H2462 0.949 . S
C2468 C2472 1.368 . S
C2469 C2450 1.429 . S
C2469 C2463 1.429 . S
C2469 C2470 1.523 . S
C2470 C2451 1.368 . S
C2470 C2464 1.368 . S
C2470 C2469 1.523 . S
C2471 C2455 1.429 . S
C2471 C2467 1.429 . S
C2471 C2472 1.523 . S
C2472 C2456 1.368 . S
C2472 C2468 1.368 . S
C2472 C2471 1.523 . S
H2473 C2448 0.950 . S
H2474 C2450 0.950 . S
H2475 C2451 0.949 . S
H2476 C2453 0.950 . S
H2477 C2455 0.950 . S
C2478 C2479 1.349 . S
C2478 C2480 1.327 . S
C2478 H2503 0.950 . S
C2479 C2478 1.349 . S
C2479 C2495 1.349 . S
C2480 C2478 1.327 . S
C2480 C2499 1.429 . S
C2480 H2504 0.950 . S
C2481 C2498 1.574 . S
C2481 C2500 1.368 . S
C2481 H2505 0.949 . S
H2482 C2486 0.949 . S
C2483 C2484 1.349 1_455 S
C2483 C2485 1.327 . S
C2483 H2506 0.950 . S
C2484 C2483 1.349 1_655 S
C2484 C2496 1.349 . S
C2485 C2483 1.327 . S
C2485 C2501 1.429 . S
C2485 H2507 0.950 . S
C2486 H2482 0.949 . S
C2486 C2494 1.574 . S
C2486 C2502 1.368 . S
H2487 C2495 0.950 . S
H2488 C2493 0.950 . S
H2489 C2494 0.949 . S
H2490 C2496 0.950 . S
H2491 C2497 0.950 . S
H2492 C2498 0.949 . S
C2493 H2488 0.950 . S
C2493 C2495 1.327 . S
C2493 C2499 1.429 . S
C2494 C2486 1.574 . S
C2494 H2489 0.949 . S
C2494 C2500 1.368 . S
C2495 C2479 1.349 . S
C2495 H2487 0.950 . S
C2495 C2493 1.327 . S
C2496 C2484 1.349 . S
C2496 H2490 0.950 . S
C2496 C2497 1.327 1_655 S
C2497 H2491 0.950 . S
C2497 C2496 1.327 1_455 S
C2497 C2501 1.429 . S
C2498 C2481 1.574 . S
C2498 H2492 0.949 . S
C2498 C2502 1.368 . S
C2499 C2480 1.429 . S
C2499 C2493 1.429 . S
C2499 C2500 1.523 . S
C2500 C2481 1.368 . S
C2500 C2494 1.368 . S
C2500 C2499 1.523 . S
C2501 C2485 1.429 . S
C2501 C2497 1.429 . S
C2501 C2502 1.523 . S
C2502 C2486 1.368 . S
C2502 C2498 1.368 . S
C2502 C2501 1.523 . S
H2503 C2478 0.950 . S
H2504 C2480 0.950 . S
H2505 C2481 0.949 . S
H2506 C2483 0.950 . S
H2507 C2485 0.950 . S
C2508 C2509 1.349 . S
C2508 C2510 1.327 . S
C2508 H2533 0.950 . S
C2509 C2508 1.349 . S
C2509 C2525 1.349 . S
C2510 C2508 1.327 . S
C2510 C2529 1.429 . S
C2510 H2534 0.950 . S
C2511 C2528 1.574 . S
C2511 C2530 1.368 . S
C2511 H2535 0.949 . S
H2512 C2516 0.949 . S
C2513 C2514 1.349 . S
C2513 C2515 1.327 . S
C2513 H2536 0.950 . S
C2514 C2513 1.349 . S
C2514 C2526 1.349 . S
C2515 C2513 1.327 . S
C2515 C2531 1.429 . S
C2515 H2537 0.950 . S
C2516 H2512 0.949 . S
C2516 C2524 1.574 . S
C2516 C2532 1.368 . S
H2517 C2525 0.950 . S
H2518 C2523 0.950 . S
H2519 C2524 0.949 . S
H2520 C2526 0.950 . S
H2521 C2527 0.950 . S
H2522 C2528 0.949 . S
C2523 H2518 0.950 . S
C2523 C2525 1.327 . S
C2523 C2529 1.429 . S
C2524 C2516 1.574 . S
C2524 H2519 0.949 . S
C2524 C2530 1.368 . S
C2525 C2509 1.349 . S
C2525 H2517 0.950 . S
C2525 C2523 1.327 . S
C2526 C2514 1.349 . S
C2526 H2520 0.950 . S
C2526 C2527 1.327 . S
C2527 H2521 0.950 . S
C2527 C2526 1.327 . S
C2527 C2531 1.429 . S
C2528 C2511 1.574 . S
C2528 H2522 0.949 . S
C2528 C2532 1.368 . S
C2529 C2510 1.429 . S
C2529 C2523 1.429 . S
C2529 C2530 1.523 . S
C2530 C2511 1.368 . S
C2530 C2524 1.368 . S
C2530 C2529 1.523 . S
C2531 C2515 1.429 . S
C2531 C2527 1.429 . S
C2531 C2532 1.523 . S
C2532 C2516 1.368 . S
C2532 C2528 1.368 . S
C2532 C2531 1.523 . S
H2533 C2508 0.950 . S
H2534 C2510 0.950 . S
H2535 C2511 0.949 . S
H2536 C2513 0.950 . S
H2537 C2515 0.950 . S
C2538 C2539 1.349 . S
C2538 C2540 1.327 . S
C2538 H2563 0.950 . S
C2539 C2538 1.349 . S
C2539 C2555 1.349 . S
C2540 C2538 1.327 . S
C2540 C2559 1.429 . S
C2540 H2564 0.950 . S
C2541 C2558 1.574 . S
C2541 C2560 1.368 . S
C2541 H2565 0.949 . S
H2542 C2546 0.949 . S
C2543 C2544 1.349 . S
C2543 C2545 1.327 . S
C2543 H2566 0.950 . S
C2544 C2543 1.349 . S
C2544 C2556 1.349 . S
C2545 C2543 1.327 . S
C2545 C2561 1.429 . S
C2545 H2567 0.950 . S
C2546 H2542 0.949 . S
C2546 C2554 1.574 . S
C2546 C2562 1.368 . S
H2547 C2555 0.950 . S
H2548 C2553 0.950 . S
H2549 C2554 0.949 . S
H2550 C2556 0.950 . S
H2551 C2557 0.950 . S
H2552 C2558 0.949 . S
C2553 H2548 0.950 . S
C2553 C2555 1.327 . S
C2553 C2559 1.429 . S
C2554 C2546 1.574 . S
C2554 H2549 0.949 . S
C2554 C2560 1.368 . S
C2555 C2539 1.349 . S
C2555 H2547 0.950 . S
C2555 C2553 1.327 . S
C2556 C2544 1.349 . S
C2556 H2550 0.950 . S
C2556 C2557 1.327 . S
C2557 H2551 0.950 . S
C2557 C2556 1.327 . S
C2557 C2561 1.429 . S
C2558 C2541 1.574 . S
C2558 H2552 0.949 . S
C2558 C2562 1.368 . S
C2559 C2540 1.429 . S
C2559 C2553 1.429 . S
C2559 C2560 1.523 . S
C2560 C2541 1.368 . S
C2560 C2554 1.368 . S
C2560 C2559 1.523 . S
C2561 C2545 1.429 . S
C2561 C2557 1.429 . S
C2561 C2562 1.523 . S
C2562 C2546 1.368 . S
C2562 C2558 1.368 . S
C2562 C2561 1.523 . S
H2563 C2538 0.950 . S
H2564 C2540 0.950 . S
H2565 C2541 0.949 . S
H2566 C2543 0.950 . S
H2567 C2545 0.950 . S
C2568 C2569 1.349 . S
C2568 C2570 1.327 . S
C2568 H2593 0.950 . S
C2569 C2568 1.349 . S
C2569 C2585 1.349 . S
C2570 C2568 1.327 . S
C2570 C2589 1.429 . S
C2570 H2594 0.950 . S
C2571 C2588 1.574 . S
C2571 C2590 1.368 . S
C2571 H2595 0.949 . S
H2572 C2576 0.949 . S
C2573 C2574 1.349 . S
C2573 C2575 1.327 . S
C2573 H2596 0.950 . S
C2574 C2573 1.349 . S
C2574 C2586 1.349 . S
C2575 C2573 1.327 . S
C2575 C2591 1.429 . S
C2575 H2597 0.950 . S
C2576 H2572 0.949 . S
C2576 C2584 1.574 . S
C2576 C2592 1.368 . S
H2577 C2585 0.950 . S
H2578 C2583 0.950 . S
H2579 C2584 0.949 . S
H2580 C2586 0.950 . S
H2581 C2587 0.950 . S
H2582 C2588 0.949 . S
C2583 H2578 0.950 . S
C2583 C2585 1.327 . S
C2583 C2589 1.429 . S
C2584 C2576 1.574 . S
C2584 H2579 0.949 . S
C2584 C2590 1.368 . S
C2585 C2569 1.349 . S
C2585 H2577 0.950 . S
C2585 C2583 1.327 . S
C2586 C2574 1.349 . S
C2586 H2580 0.950 . S
C2586 C2587 1.327 . S
C2587 H2581 0.950 . S
C2587 C2586 1.327 . S
C2587 C2591 1.429 . S
C2588 C2571 1.574 . S
C2588 H2582 0.949 . S
C2588 C2592 1.368 . S
C2589 C2570 1.429 . S
C2589 C2583 1.429 . S
C2589 C2590 1.523 . S
C2590 C2571 1.368 . S
C2590 C2584 1.368 . S
C2590 C2589 1.523 . S
C2591 C2575 1.429 . S
C2591 C2587 1.429 . S
C2591 C2592 1.523 . S
C2592 C2576 1.368 . S
C2592 C2588 1.368 . S
C2592 C2591 1.523 . S
H2593 C2568 0.950 . S
H2594 C2570 0.950 . S
H2595 C2571 0.949 . S
H2596 C2573 0.950 . S
H2597 C2575 0.950 . S
C2598 C2599 1.349 . S
C2598 C2600 1.327 . S
C2598 H2623 0.950 . S
C2599 C2598 1.349 . S
C2599 C2615 1.349 . S
C2600 C2598 1.327 . S
C2600 C2619 1.429 . S
C2600 H2624 0.950 . S
C2601 C2618 1.574 . S
C2601 C2620 1.368 . S
C2601 H2625 0.949 . S
H2602 C2606 0.949 . S
C2603 C2604 1.349 . S
C2603 C2605 1.327 . S
C2603 H2626 0.950 . S
C2604 C2603 1.349 . S
C2604 C2616 1.349 . S
C2605 C2603 1.327 . S
C2605 C2621 1.429 . S
C2605 H2627 0.950 . S
C2606 H2602 0.949 . S
C2606 C2614 1.574 . S
C2606 C2622 1.368 . S
H2607 C2615 0.950 . S
H2608 C2613 0.950 . S
H2609 C2614 0.949 . S
H2610 C2616 0.950 . S
H2611 C2617 0.950 . S
H2612 C2618 0.949 . S
C2613 H2608 0.950 . S
C2613 C2615 1.327 . S
C2613 C2619 1.429 . S
C2614 C2606 1.574 . S
C2614 H2609 0.949 . S
C2614 C2620 1.368 . S
C2615 C2599 1.349 . S
C2615 H2607 0.950 . S
C2615 C2613 1.327 . S
C2616 C2604 1.349 . S
C2616 H2610 0.950 . S
C2616 C2617 1.327 . S
C2617 H2611 0.950 . S
C2617 C2616 1.327 . S
C2617 C2621 1.429 . S
C2618 C2601 1.574 . S
C2618 H2612 0.949 . S
C2618 C2622 1.368 . S
C2619 C2600 1.429 . S
C2619 C2613 1.429 . S
C2619 C2620 1.523 . S
C2620 C2601 1.368 . S
C2620 C2614 1.368 . S
C2620 C2619 1.523 . S
C2621 C2605 1.429 . S
C2621 C2617 1.429 . S
C2621 C2622 1.523 . S
C2622 C2606 1.368 . S
C2622 C2618 1.368 . S
C2622 C2621 1.523 . S
H2623 C2598 0.950 . S
H2624 C2600 0.950 . S
H2625 C2601 0.949 . S
H2626 C2603 0.950 . S
H2627 C2605 0.950 . S
C2628 C2629 1.349 . S
C2628 C2630 1.327 . S
C2628 H2653 0.950 . S
C2629 C2628 1.349 . S
C2629 C2645 1.349 . S
C2630 C2628 1.327 . S
C2630 C2649 1.429 . S
C2630 H2654 0.950 . S
C2631 C2648 1.574 . S
C2631 C2650 1.368 . S
C2631 H2655 0.949 . S
H2632 C2636 0.949 . S
C2633 C2634 1.349 . S
C2633 C2635 1.327 . S
C2633 H2656 0.950 . S
C2634 C2633 1.349 . S
C2634 C2646 1.349 . S
C2635 C2633 1.327 . S
C2635 C2651 1.429 . S
C2635 H2657 0.950 . S
C2636 H2632 0.949 . S
C2636 C2644 1.574 . S
C2636 C2652 1.368 . S
H2637 C2645 0.950 . S
H2638 C2643 0.950 . S
H2639 C2644 0.949 . S
H2640 C2646 0.950 . S
H2641 C2647 0.950 . S
H2642 C2648 0.949 . S
C2643 H2638 0.950 . S
C2643 C2645 1.327 . S
C2643 C2649 1.429 . S
C2644 C2636 1.574 . S
C2644 H2639 0.949 . S
C2644 C2650 1.368 . S
C2645 C2629 1.349 . S
C2645 H2637 0.950 . S
C2645 C2643 1.327 . S
C2646 C2634 1.349 . S
C2646 H2640 0.950 . S
C2646 C2647 1.327 . S
C2647 H2641 0.950 . S
C2647 C2646 1.327 . S
C2647 C2651 1.429 . S
C2648 C2631 1.574 . S
C2648 H2642 0.949 . S
C2648 C2652 1.368 . S
C2649 C2630 1.429 . S
C2649 C2643 1.429 . S
C2649 C2650 1.523 . S
C2650 C2631 1.368 . S
C2650 C2644 1.368 . S
C2650 C2649 1.523 . S
C2651 C2635 1.429 . S
C2651 C2647 1.429 . S
C2651 C2652 1.523 . S
C2652 C2636 1.368 . S
C2652 C2648 1.368 . S
C2652 C2651 1.523 . S
H2653 C2628 0.950 . S
H2654 C2630 0.950 . S
H2655 C2631 0.949 . S
H2656 C2633 0.950 . S
H2657 C2635 0.950 . S
C2658 C2659 1.349 . S
C2658 C2660 1.327 . S
C2658 H2683 0.950 . S
C2659 C2658 1.349 . S
C2659 C2675 1.375 . S
C2660 C2658 1.327 . S
C2660 C2679 1.429 . S
C2660 H2684 0.950 . S
C2661 C2678 1.574 . S
C2661 C2680 1.368 . S
C2661 H2685 0.949 1_554 S
H2662 C2666 0.949 . S
C2663 C2664 1.349 . S
C2663 C2665 1.327 . S
C2663 H2686 1.001 . S
C2664 C2663 1.349 . S
C2664 C2676 1.349 . S
C2665 C2663 1.327 . S
C2665 C2681 1.429 . S
C2665 H2687 0.950 1_554 S
C2666 H2662 0.949 . S
C2666 C2674 1.574 . S
C2666 C2682 1.368 . S
H2667 C2675 0.922 1_556 S
H2668 C2673 0.950 1_556 S
H2669 C2674 0.949 . S
H2670 C2676 0.950 . S
H2671 C2677 0.950 . S
H2672 C2678 0.949 1_556 S
C2673 H2668 0.950 1_554 S
C2673 C2675 1.330 . S
C2673 C2679 1.429 . S
C2674 C2666 1.574 . S
C2674 H2669 0.949 . S
C2674 C2680 1.368 . S
C2675 C2659 1.375 . S
C2675 H2667 0.922 1_554 S
C2675 C2673 1.330 . S
C2676 C2664 1.349 . S
C2676 H2670 0.950 . S
C2676 C2677 1.327 . S
C2677 H2671 0.950 . S
C2677 C2676 1.327 . S
C2677 C2681 1.429 . S
C2678 C2661 1.574 . S
C2678 H2672 0.949 1_554 S
C2678 C2682 1.368 . S
C2679 C2660 1.429 . S
C2679 C2673 1.429 . S
C2679 C2680 1.523 . S
C2680 C2661 1.368 . S
C2680 C2674 1.368 . S
C2680 C2679 1.523 . S
C2681 C2665 1.429 . S
C2681 C2677 1.429 . S
C2681 C2682 1.523 . S
C2682 C2666 1.368 . S
C2682 C2678 1.368 . S
C2682 C2681 1.523 . S
H2683 C2658 0.950 . S
H2684 C2660 0.950 . S
H2685 C2661 0.949 1_556 S
H2686 C2663 1.001 . S
H2687 C2665 0.950 1_556 S
C2688 C2689 1.349 . S
C2688 C2690 1.327 . S
C2688 H2713 0.950 . S
C2689 C2688 1.349 . S
C2689 C2705 1.349 . S
C2690 C2688 1.327 . S
C2690 C2709 1.429 . S
C2690 H2714 0.950 . S
C2691 C2708 1.574 . S
C2691 C2710 1.368 . S
C2691 H2715 0.949 . S
H2692 C2696 0.949 . S
C2693 C2694 1.349 . S
C2693 C2695 1.327 . S
C2693 H2716 0.950 . S
C2694 C2693 1.349 . S
C2694 C2706 1.349 . S
C2695 C2693 1.327 . S
C2695 C2711 1.429 . S
C2695 H2717 0.950 . S
C2696 H2692 0.949 . S
C2696 C2704 1.574 . S
C2696 C2712 1.368 . S
H2697 C2705 0.950 . S
H2698 C2703 0.950 . S
H2699 C2704 0.949 . S
H2700 C2706 0.950 . S
H2701 C2707 0.950 . S
H2702 C2708 0.949 . S
C2703 H2698 0.950 . S
C2703 C2705 1.327 . S
C2703 C2709 1.429 . S
C2704 C2696 1.574 . S
C2704 H2699 0.949 . S
C2704 C2710 1.368 . S
C2705 C2689 1.349 . S
C2705 H2697 0.950 . S
C2705 C2703 1.327 . S
C2706 C2694 1.349 . S
C2706 H2700 0.950 . S
C2706 C2707 1.327 . S
C2707 H2701 0.950 . S
C2707 C2706 1.327 . S
C2707 C2711 1.429 . S
C2708 C2691 1.574 . S
C2708 H2702 0.949 . S
C2708 C2712 1.368 . S
C2709 C2690 1.429 . S
C2709 C2703 1.429 . S
C2709 C2710 1.523 . S
C2710 C2691 1.368 . S
C2710 C2704 1.368 . S
C2710 C2709 1.523 . S
C2711 C2695 1.429 . S
C2711 C2707 1.429 . S
C2711 C2712 1.523 . S
C2712 C2696 1.368 . S
C2712 C2708 1.368 . S
C2712 C2711 1.523 . S
H2713 C2688 0.950 . S
H2714 C2690 0.950 . S
H2715 C2691 0.949 . S
H2716 C2693 0.950 . S
H2717 C2695 0.950 . S
C2718 C2719 1.349 . S
C2718 C2720 1.327 . S
C2718 H2743 0.950 . S
C2719 C2718 1.349 . S
C2719 C2735 1.349 . S
C2720 C2718 1.327 . S
C2720 C2739 1.429 . S
C2720 H2744 0.950 . S
C2721 C2738 1.574 . S
C2721 C2740 1.368 . S
C2721 H2745 0.949 . S
H2722 C2726 0.949 . S
C2723 C2724 1.349 . S
C2723 C2725 1.327 . S
C2723 H2746 0.950 . S
C2724 C2723 1.349 . S
C2724 C2736 1.349 . S
C2725 C2723 1.327 . S
C2725 C2741 1.429 . S
C2725 H2747 0.950 . S
C2726 H2722 0.949 . S
C2726 C2734 1.574 . S
C2726 C2742 1.368 . S
H2727 C2735 0.950 . S
H2728 C2733 0.950 . S
H2729 C2734 0.949 . S
H2730 C2736 0.950 . S
H2731 C2737 0.950 . S
H2732 C2738 0.949 . S
C2733 H2728 0.950 . S
C2733 C2735 1.327 . S
C2733 C2739 1.429 . S
C2734 C2726 1.574 . S
C2734 H2729 0.949 . S
C2734 C2740 1.368 . S
C2735 C2719 1.349 . S
C2735 H2727 0.950 . S
C2735 C2733 1.327 . S
C2736 C2724 1.349 . S
C2736 H2730 0.950 . S
C2736 C2737 1.327 . S
C2737 H2731 0.950 . S
C2737 C2736 1.327 . S
C2737 C2741 1.429 . S
C2738 C2721 1.574 . S
C2738 H2732 0.949 . S
C2738 C2742 1.368 . S
C2739 C2720 1.429 . S
C2739 C2733 1.429 . S
C2739 C2740 1.523 . S
C2740 C2721 1.368 . S
C2740 C2734 1.368 . S
C2740 C2739 1.523 . S
C2741 C2725 1.429 . S
C2741 C2737 1.429 . S
C2741 C2742 1.523 . S
C2742 C2726 1.368 . S
C2742 C2738 1.368 . S
C2742 C2741 1.523 . S
H2743 C2718 0.950 . S
H2744 C2720 0.950 . S
H2745 C2721 0.949 . S
H2746 C2723 0.950 . S
H2747 C2725 0.950 . S
C2748 C2749 1.349 . S
C2748 C2750 1.327 . S
C2748 H2773 0.950 . S
C2749 C2748 1.349 . S
C2749 C2765 1.349 . S
C2750 C2748 1.327 . S
C2750 C2769 1.429 . S
C2750 H2774 0.950 . S
C2751 C2768 1.574 . S
C2751 C2770 1.368 . S
C2751 H2775 0.949 . S
H2752 C2756 0.949 . S
C2753 C2754 1.349 . S
C2753 C2755 1.328 1_565 S
C2753 H2776 0.949 . S
C2754 C2753 1.349 . S
C2754 C2766 1.349 1_565 S
C2755 C2753 1.328 1_545 S
C2755 C2771 1.429 . S
C2755 H2777 0.950 . S
C2756 H2752 0.949 . S
C2756 C2764 1.574 . S
C2756 C2772 1.368 . S
H2757 C2765 0.950 . S
H2758 C2763 0.950 . S
H2759 C2764 0.949 . S
H2760 C2766 0.950 . S
H2761 C2767 0.950 . S
H2762 C2768 0.949 . S
C2763 H2758 0.950 . S
C2763 C2765 1.327 . S
C2763 C2769 1.429 . S
C2764 C2756 1.574 . S
C2764 H2759 0.949 . S
C2764 C2770 1.368 . S
C2765 C2749 1.349 . S
C2765 H2757 0.950 . S
C2765 C2763 1.327 . S
C2766 C2754 1.349 1_545 S
C2766 H2760 0.950 . S
C2766 C2767 1.327 . S
C2767 H2761 0.950 . S
C2767 C2766 1.327 . S
C2767 C2771 1.429 . S
C2768 C2751 1.574 . S
C2768 H2762 0.949 . S
C2768 C2772 1.368 . S
C2769 C2750 1.429 . S
C2769 C2763 1.429 . S
C2769 C2770 1.523 . S
C2770 C2751 1.368 . S
C2770 C2764 1.368 . S
C2770 C2769 1.523 . S
C2771 C2755 1.429 . S
C2771 C2767 1.429 . S
C2771 C2772 1.523 . S
C2772 C2756 1.368 . S
C2772 C2768 1.368 . S
C2772 C2771 1.523 . S
H2773 C2748 0.950 . S
H2774 C2750 0.950 . S
H2775 C2751 0.949 . S
H2776 C2753 0.949 . S
H2777 C2755 0.950 . S
C2778 C2779 1.349 . S
C2778 C2780 1.327 . S
C2778 H2803 0.950 . S
C2779 C2778 1.349 . S
C2779 C2795 1.349 . S
C2780 C2778 1.327 . S
C2780 C2799 1.429 . S
C2780 H2804 0.950 . S
C2781 C2798 1.574 . S
C2781 C2800 1.368 . S
C2781 H2805 0.949 . S
H2782 C2786 0.949 . S
C2783 C2784 1.349 . S
C2783 C2785 1.327 . S
C2783 H2806 0.950 . S
C2784 C2783 1.349 . S
C2784 C2796 1.349 . S
C2785 C2783 1.327 . S
C2785 C2801 1.429 . S
C2785 H2807 0.950 . S
C2786 H2782 0.949 . S
C2786 C2794 1.574 . S
C2786 C2802 1.368 . S
H2787 C2795 0.950 . S
H2788 C2793 0.950 . S
H2789 C2794 0.949 . S
H2790 C2796 0.950 . S
H2791 C2797 0.950 . S
H2792 C2798 0.949 . S
C2793 H2788 0.950 . S
C2793 C2795 1.327 . S
C2793 C2799 1.429 . S
C2794 C2786 1.574 . S
C2794 H2789 0.949 . S
C2794 C2800 1.368 . S
C2795 C2779 1.349 . S
C2795 H2787 0.950 . S
C2795 C2793 1.327 . S
C2796 C2784 1.349 . S
C2796 H2790 0.950 . S
C2796 C2797 1.327 . S
C2797 H2791 0.950 . S
C2797 C2796 1.327 . S
C2797 C2801 1.429 . S
C2798 C2781 1.574 . S
C2798 H2792 0.949 . S
C2798 C2802 1.368 . S
C2799 C2780 1.429 . S
C2799 C2793 1.429 . S
C2799 C2800 1.523 . S
C2800 C2781 1.368 . S
C2800 C2794 1.368 . S
C2800 C2799 1.523 . S
C2801 C2785 1.429 . S
C2801 C2797 1.429 . S
C2801 C2802 1.523 . S
C2802 C2786 1.368 . S
C2802 C2798 1.368 . S
C2802 C2801 1.523 . S
H2803 C2778 0.950 . S
H2804 C2780 0.950 . S
H2805 C2781 0.949 . S
H2806 C2783 0.950 . S
H2807 C2785 0.950 . S
C2808 C2809 1.349 . S
C2808 C2810 1.327 . S
C2808 H2833 0.950 . S
C2809 C2808 1.349 . S
C2809 C2825 1.349 . S
C2810 C2808 1.327 . S
C2810 C2829 1.429 . S
C2810 H2834 0.950 . S
C2811 C2828 1.574 . S
C2811 C2830 1.368 . S
C2811 H2835 0.949 . S
H2812 C2816 0.949 . S
C2813 C2814 1.349 . S
C2813 C2815 1.327 . S
C2813 H2836 0.950 . S
C2814 C2813 1.349 . S
C2814 C2826 1.349 . S
C2815 C2813 1.327 . S
C2815 C2831 1.429 . S
C2815 H2837 0.950 . S
C2816 H2812 0.949 . S
C2816 C2824 1.574 . S
C2816 C2832 1.368 . S
H2817 C2825 0.950 . S
H2818 C2823 0.950 . S
H2819 C2824 0.949 . S
H2820 C2826 0.950 . S
H2821 C2827 0.950 . S
H2822 C2828 0.949 . S
C2823 H2818 0.950 . S
C2823 C2825 1.327 . S
C2823 C2829 1.429 . S
C2824 C2816 1.574 . S
C2824 H2819 0.949 . S
C2824 C2830 1.368 . S
C2825 C2809 1.349 . S
C2825 H2817 0.950 . S
C2825 C2823 1.327 . S
C2826 C2814 1.349 . S
C2826 H2820 0.950 . S
C2826 C2827 1.327 . S
C2827 H2821 0.950 . S
C2827 C2826 1.327 . S
C2827 C2831 1.429 . S
C2828 C2811 1.574 . S
C2828 H2822 0.949 . S
C2828 C2832 1.368 . S
C2829 C2810 1.429 . S
C2829 C2823 1.429 . S
C2829 C2830 1.523 . S
C2830 C2811 1.368 . S
C2830 C2824 1.368 . S
C2830 C2829 1.523 . S
C2831 C2815 1.429 . S
C2831 C2827 1.429 . S
C2831 C2832 1.523 . S
C2832 C2816 1.368 . S
C2832 C2828 1.368 . S
C2832 C2831 1.523 . S
H2833 C2808 0.950 . S
H2834 C2810 0.950 . S
H2835 C2811 0.949 . S
H2836 C2813 0.950 . S
H2837 C2815 0.950 . S
C2838 C2839 1.349 . S
C2838 C2840 1.327 . S
C2838 H2863 0.950 . S
C2839 C2838 1.349 . S
C2839 C2855 1.349 . S
C2840 C2838 1.327 . S
C2840 C2859 1.429 . S
C2840 H2864 0.950 . S
C2841 C2858 1.574 . S
C2841 C2860 1.368 . S
C2841 H2865 0.949 . S
H2842 C2846 0.949 . S
C2843 C2844 1.349 . S
C2843 C2845 1.327 . S
C2843 H2866 0.950 . S
C2844 C2843 1.349 . S
C2844 C2856 1.349 . S
C2845 C2843 1.327 . S
C2845 C2861 1.429 . S
C2845 H2867 0.950 . S
C2846 H2842 0.949 . S
C2846 C2854 1.574 . S
C2846 C2862 1.368 . S
H2847 C2855 0.950 . S
H2848 C2853 0.950 . S
H2849 C2854 0.949 . S
H2850 C2856 0.950 . S
H2851 C2857 0.950 . S
H2852 C2858 0.949 . S
C2853 H2848 0.950 . S
C2853 C2855 1.327 . S
C2853 C2859 1.429 . S
C2854 C2846 1.574 . S
C2854 H2849 0.949 . S
C2854 C2860 1.368 . S
C2855 C2839 1.349 . S
C2855 H2847 0.950 . S
C2855 C2853 1.327 . S
C2856 C2844 1.349 . S
C2856 H2850 0.950 . S
C2856 C2857 1.327 . S
C2857 H2851 0.950 . S
C2857 C2856 1.327 . S
C2857 C2861 1.429 . S
C2858 C2841 1.574 . S
C2858 H2852 0.949 . S
C2858 C2862 1.368 . S
C2859 C2840 1.429 . S
C2859 C2853 1.429 . S
C2859 C2860 1.523 . S
C2860 C2841 1.368 . S
C2860 C2854 1.368 . S
C2860 C2859 1.523 . S
C2861 C2845 1.429 . S
C2861 C2857 1.429 . S
C2861 C2862 1.523 . S
C2862 C2846 1.368 . S
C2862 C2858 1.368 . S
C2862 C2861 1.523 . S
H2863 C2838 0.950 . S
H2864 C2840 0.950 . S
H2865 C2841 0.949 . S
H2866 C2843 0.950 . S
H2867 C2845 0.950 . S
C2868 C2869 1.349 . S
C2868 C2870 1.327 . S
C2868 H2893 0.950 . S
C2869 C2868 1.349 . S
C2869 C2885 1.349 . S
C2870 C2868 1.327 . S
C2870 C2889 1.429 . S
C2870 H2894 0.950 . S
C2871 C2888 1.574 . S
C2871 C2890 1.368 . S
C2871 H2895 0.949 . S
H2872 C2876 0.949 . S
C2873 C2874 1.349 . S
C2873 C2875 1.327 . S
C2873 H2896 0.950 . S
C2874 C2873 1.349 . S
C2874 C2886 1.349 . S
C2875 C2873 1.327 . S
C2875 C2891 1.429 . S
C2875 H2897 0.950 . S
C2876 H2872 0.949 . S
C2876 C2884 1.574 . S
C2876 C2892 1.368 . S
H2877 C2885 0.950 . S
H2878 C2883 0.950 . S
H2879 C2884 0.949 . S
H2880 C2886 0.950 . S
H2881 C2887 0.950 . S
H2882 C2888 0.949 . S
C2883 H2878 0.950 . S
C2883 C2885 1.327 . S
C2883 C2889 1.429 . S
C2884 C2876 1.574 . S
C2884 H2879 0.949 . S
C2884 C2890 1.368 . S
C2885 C2869 1.349 . S
C2885 H2877 0.950 . S
C2885 C2883 1.327 . S
C2886 C2874 1.349 . S
C2886 H2880 0.950 . S
C2886 C2887 1.327 . S
C2887 H2881 0.950 . S
C2887 C2886 1.327 . S
C2887 C2891 1.429 . S
C2888 C2871 1.574 . S
C2888 H2882 0.949 . S
C2888 C2892 1.368 . S
C2889 C2870 1.429 . S
C2889 C2883 1.429 . S
C2889 C2890 1.523 . S
C2890 C2871 1.368 . S
C2890 C2884 1.368 . S
C2890 C2889 1.523 . S
C2891 C2875 1.429 . S
C2891 C2887 1.429 . S
C2891 C2892 1.523 . S
C2892 C2876 1.368 . S
C2892 C2888 1.368 . S
C2892 C2891 1.523 . S
H2893 C2868 0.950 . S
H2894 C2870 0.950 . S
H2895 C2871 0.949 . S
H2896 C2873 0.950 . S
H2897 C2875 0.950 . S
C2898 C2899 1.349 . S
C2898 C2900 1.327 . S
C2898 H2923 0.950 . S
C2899 C2898 1.349 . S
C2899 C2915 1.349 . S
C2900 C2898 1.327 . S
C2900 C2919 1.429 . S
C2900 H2924 0.950 . S
C2901 C2918 1.574 . S
C2901 C2920 1.368 . S
C2901 H2925 0.949 . S
H2902 C2906 0.949 . S
C2903 C2904 1.349 . S
C2903 C2905 1.327 . S
C2903 H2926 0.950 . S
C2904 C2903 1.349 . S
C2904 C2916 1.349 . S
C2905 C2903 1.327 . S
C2905 C2921 1.429 . S
C2905 H2927 0.950 . S
C2906 H2902 0.949 . S
C2906 C2914 1.574 . S
C2906 C2922 1.368 . S
H2907 C2915 0.950 . S
H2908 C2913 0.950 . S
H2909 C2914 0.949 . S
H2910 C2916 0.950 . S
H2911 C2917 0.950 . S
H2912 C2918 0.949 . S
C2913 H2908 0.950 . S
C2913 C2915 1.327 . S
C2913 C2919 1.429 . S
C2914 C2906 1.574 . S
C2914 H2909 0.949 . S
C2914 C2920 1.368 . S
C2915 C2899 1.349 . S
C2915 H2907 0.950 . S
C2915 C2913 1.327 . S
C2916 C2904 1.349 . S
C2916 H2910 0.950 . S
C2916 C2917 1.327 . S
C2917 H2911 0.950 . S
C2917 C2916 1.327 . S
C2917 C2921 1.429 . S
C2918 C2901 1.574 . S
C2918 H2912 0.949 . S
C2918 C2922 1.368 . S
C2919 C2900 1.429 . S
C2919 C2913 1.429 . S
C2919 C2920 1.523 . S
C2920 C2901 1.368 . S
C2920 C2914 1.368 . S
C2920 C2919 1.523 . S
C2921 C2905 1.429 . S
C2921 C2917 1.429 . S
C2921 C2922 1.523 . S
C2922 C2906 1.368 . S
C2922 C2918 1.368 . S
C2922 C2921 1.523 . S
H2923 C2898 0.950 . S
H2924 C2900 0.950 . S
H2925 C2901 0.949 . S
H2926 C2903 0.950 . S
H2927 C2905 0.950 . S
C2928 C2929 1.349 . S
C2928 C2930 1.327 . S
C2928 H2953 0.950 . S
C2929 C2928 1.349 . S
C2929 C2945 1.349 . S
C2930 C2928 1.327 . S
C2930 C2949 1.429 . S
C2930 H2954 0.950 . S
C2931 C2948 1.574 . S
C2931 C2950 1.368 . S
C2931 H2955 0.949 . S
H2932 C2936 0.949 . S
C2933 C2934 1.349 . S
C2933 C2935 1.327 . S
C2933 H2956 0.950 . S
C2934 C2933 1.349 . S
C2934 C2946 1.349 . S
C2935 C2933 1.327 . S
C2935 C2951 1.429 . S
C2935 H2957 0.950 . S
C2936 H2932 0.949 . S
C2936 C2944 1.574 . S
C2936 C2952 1.368 . S
H2937 C2945 0.950 . S
H2938 C2943 0.950 . S
H2939 C2944 0.949 . S
H2940 C2946 0.950 . S
H2941 C2947 0.950 . S
H2942 C2948 0.949 . S
C2943 H2938 0.950 . S
C2943 C2945 1.327 . S
C2943 C2949 1.429 . S
C2944 C2936 1.574 . S
C2944 H2939 0.949 . S
C2944 C2950 1.368 . S
C2945 C2929 1.349 . S
C2945 H2937 0.950 . S
C2945 C2943 1.327 . S
C2946 C2934 1.349 . S
C2946 H2940 0.950 . S
C2946 C2947 1.327 . S
C2947 H2941 0.950 . S
C2947 C2946 1.327 . S
C2947 C2951 1.429 . S
C2948 C2931 1.574 . S
C2948 H2942 0.949 . S
C2948 C2952 1.368 . S
C2949 C2930 1.429 . S
C2949 C2943 1.429 . S
C2949 C2950 1.523 . S
C2950 C2931 1.368 . S
C2950 C2944 1.368 . S
C2950 C2949 1.523 . S
C2951 C2935 1.429 . S
C2951 C2947 1.429 . S
C2951 C2952 1.523 . S
C2952 C2936 1.368 . S
C2952 C2948 1.368 . S
C2952 C2951 1.523 . S
H2953 C2928 0.950 . S
H2954 C2930 0.950 . S
H2955 C2931 0.949 . S
H2956 C2933 0.950 . S
H2957 C2935 0.950 . S
C2958 C2959 1.349 . S
C2958 C2960 1.327 . S
C2958 H2983 0.950 . S
C2959 C2958 1.349 . S
C2959 C2975 1.349 . S
C2960 C2958 1.327 . S
C2960 C2979 1.429 . S
C2960 H2984 0.950 . S
C2961 C2978 1.574 . S
C2961 C2980 1.368 . S
C2961 H2985 0.949 . S
H2962 C2966 0.949 . S
C2963 C2964 1.349 . S
C2963 C2965 1.327 . S
C2963 H2986 0.950 . S
C2964 C2963 1.349 . S
C2964 C2976 1.349 . S
C2965 C2963 1.327 . S
C2965 C2981 1.429 . S
C2965 H2987 0.950 . S
C2966 H2962 0.949 . S
C2966 C2974 1.574 . S
C2966 C2982 1.368 . S
H2967 C2975 0.950 . S
H2968 C2973 0.950 . S
H2969 C2974 0.949 . S
H2970 C2976 0.950 . S
H2971 C2977 0.950 . S
H2972 C2978 0.949 . S
C2973 H2968 0.950 . S
C2973 C2975 1.327 . S
C2973 C2979 1.429 . S
C2974 C2966 1.574 . S
C2974 H2969 0.949 . S
C2974 C2980 1.368 . S
C2975 C2959 1.349 . S
C2975 H2967 0.950 . S
C2975 C2973 1.327 . S
C2976 C2964 1.349 . S
C2976 H2970 0.950 . S
C2976 C2977 1.327 . S
C2977 H2971 0.950 . S
C2977 C2976 1.327 . S
C2977 C2981 1.429 . S
C2978 C2961 1.574 . S
C2978 H2972 0.949 . S
C2978 C2982 1.368 . S
C2979 C2960 1.429 . S
C2979 C2973 1.429 . S
C2979 C2980 1.523 . S
C2980 C2961 1.368 . S
C2980 C2974 1.368 . S
C2980 C2979 1.523 . S
C2981 C2965 1.429 . S
C2981 C2977 1.429 . S
C2981 C2982 1.523 . S
C2982 C2966 1.368 . S
C2982 C2978 1.368 . S
C2982 C2981 1.523 . S
H2983 C2958 0.950 . S
H2984 C2960 0.950 . S
H2985 C2961 0.949 . S
H2986 C2963 0.950 . S
H2987 C2965 0.950 . S
C2988 C2989 1.349 . S
C2988 C2990 1.327 . S
C2988 H3013 0.950 . S
C2989 C2988 1.349 . S
C2989 C3005 1.349 . S
C2990 C2988 1.327 . S
C2990 C3009 1.429 . S
C2990 H3014 0.950 . S
C2991 C3008 1.574 . S
C2991 C3010 1.368 . S
C2991 H3015 0.949 . S
H2992 C2996 0.949 . S
C2993 C2994 1.349 . S
C2993 C2995 1.327 . S
C2993 H3016 0.950 . S
C2994 C2993 1.349 . S
C2994 C3006 1.349 . S
C2995 C2993 1.327 . S
C2995 C3011 1.429 . S
C2995 H3017 0.950 . S
C2996 H2992 0.949 . S
C2996 C3004 1.574 . S
C2996 C3012 1.368 . S
H2997 C3005 0.950 . S
H2998 C3003 0.950 . S
H2999 C3004 0.949 . S
H3000 C3006 0.950 . S
H3001 C3007 0.950 . S
H3002 C3008 0.949 . S
C3003 H2998 0.950 . S
C3003 C3005 1.327 . S
C3003 C3009 1.429 . S
C3004 C2996 1.574 . S
C3004 H2999 0.949 . S
C3004 C3010 1.368 . S
C3005 C2989 1.349 . S
C3005 H2997 0.950 . S
C3005 C3003 1.327 . S
C3006 C2994 1.349 . S
C3006 H3000 0.950 . S
C3006 C3007 1.327 . S
C3007 H3001 0.950 . S
C3007 C3006 1.327 . S
C3007 C3011 1.429 . S
C3008 C2991 1.574 . S
C3008 H3002 0.949 . S
C3008 C3012 1.368 . S
C3009 C2990 1.429 . S
C3009 C3003 1.429 . S
C3009 C3010 1.523 . S
C3010 C2991 1.368 . S
C3010 C3004 1.368 . S
C3010 C3009 1.523 . S
C3011 C2995 1.429 . S
C3011 C3007 1.429 . S
C3011 C3012 1.523 . S
C3012 C2996 1.368 . S
C3012 C3008 1.368 . S
C3012 C3011 1.523 . S
H3013 C2988 0.950 . S
H3014 C2990 0.950 . S
H3015 C2991 0.949 . S
H3016 C2993 0.950 . S
H3017 C2995 0.950 . S
C3018 C3019 1.349 . S
C3018 C3020 1.327 . S
C3018 H3043 0.950 . S
C3019 C3018 1.349 . S
C3019 C3035 1.349 . S
C3020 C3018 1.327 . S
C3020 C3039 1.429 . S
C3020 H3044 0.950 . S
C3021 C3038 1.574 . S
C3021 C3040 1.368 . S
C3021 H3045 0.949 . S
H3022 C3026 0.949 . S
C3023 C3024 1.349 . S
C3023 C3025 1.327 . S
C3023 H3046 0.950 . S
C3024 C3023 1.349 . S
C3024 C3036 1.349 . S
C3025 C3023 1.327 . S
C3025 C3041 1.429 . S
C3025 H3047 0.950 . S
C3026 H3022 0.949 . S
C3026 C3034 1.574 . S
C3026 C3042 1.368 . S
H3027 C3035 0.908 1_655 S
H3028 C3033 0.957 . S
H3029 C3034 0.949 . S
H3030 C3036 0.950 . S
H3031 C3037 0.950 . S
H3032 C3038 0.949 . S
C3033 H3028 0.957 . S
C3033 C3035 1.327 . S
C3033 C3039 1.429 . S
C3034 C3026 1.574 . S
C3034 H3029 0.949 . S
C3034 C3040 1.368 . S
C3035 C3019 1.349 . S
C3035 H3027 0.908 1_455 S
C3035 C3033 1.327 . S
C3036 C3024 1.349 . S
C3036 H3030 0.950 . S
C3036 C3037 1.327 . S
C3037 H3031 0.950 . S
C3037 C3036 1.327 . S
C3037 C3041 1.429 . S
C3038 C3021 1.574 . S
C3038 H3032 0.949 . S
C3038 C3042 1.368 . S
C3039 C3020 1.429 . S
C3039 C3033 1.429 . S
C3039 C3040 1.523 . S
C3040 C3021 1.368 . S
C3040 C3034 1.368 . S
C3040 C3039 1.523 . S
C3041 C3025 1.429 . S
C3041 C3037 1.429 . S
C3041 C3042 1.523 . S
C3042 C3026 1.368 . S
C3042 C3038 1.368 . S
C3042 C3041 1.523 . S
H3043 C3018 0.950 . S
H3044 C3020 0.950 . S
H3045 C3021 0.949 . S
H3046 C3023 0.950 . S
H3047 C3025 0.950 . S
C3048 C3049 1.349 . S
C3048 C3050 1.327 . S
C3048 H3073 0.950 . S
C3049 C3048 1.349 . S
C3049 C3065 1.349 . S
C3050 C3048 1.327 . S
C3050 C3069 1.429 . S
C3050 H3074 0.950 . S
C3051 C3068 1.574 . S
C3051 C3070 1.368 . S
C3051 H3075 0.949 . S
H3052 C3056 0.949 . S
C3053 C3054 1.349 . S
C3053 C3055 1.327 . S
C3053 H3076 0.950 . S
C3054 C3053 1.349 . S
C3054 C3066 1.349 . S
C3055 C3053 1.327 . S
C3055 C3071 1.429 . S
C3055 H3077 0.950 . S
C3056 H3052 0.949 . S
C3056 C3064 1.574 . S
C3056 C3072 1.368 . S
H3057 C3065 0.950 . S
H3058 C3063 0.950 . S
H3059 C3064 0.949 . S
H3060 C3066 0.950 . S
H3061 C3067 0.950 . S
H3062 C3068 0.949 . S
C3063 H3058 0.950 . S
C3063 C3065 1.327 . S
C3063 C3069 1.429 . S
C3064 C3056 1.574 . S
C3064 H3059 0.949 . S
C3064 C3070 1.368 . S
C3065 C3049 1.349 . S
C3065 H3057 0.950 . S
C3065 C3063 1.327 . S
C3066 C3054 1.349 . S
C3066 H3060 0.950 . S
C3066 C3067 1.327 . S
C3067 H3061 0.950 . S
C3067 C3066 1.327 . S
C3067 C3071 1.429 . S
C3068 C3051 1.574 . S
C3068 H3062 0.949 . S
C3068 C3072 1.368 . S
C3069 C3050 1.429 . S
C3069 C3063 1.429 . S
C3069 C3070 1.523 . S
C3070 C3051 1.368 . S
C3070 C3064 1.368 . S
C3070 C3069 1.523 . S
C3071 C3055 1.429 . S
C3071 C3067 1.429 . S
C3071 C3072 1.523 . S
C3072 C3056 1.368 . S
C3072 C3068 1.368 . S
C3072 C3071 1.523 . S
H3073 C3048 0.950 . S
H3074 C3050 0.950 . S
H3075 C3051 0.949 . S
H3076 C3053 0.950 . S
H3077 C3055 0.950 . S
C3078 C3079 1.349 . S
C3078 C3080 1.327 . S
C3078 H3103 0.950 . S
C3079 C3078 1.349 . S
C3079 C3095 1.349 . S
C3080 C3078 1.327 . S
C3080 C3099 1.429 . S
C3080 H3104 0.950 . S
C3081 C3098 1.574 . S
C3081 C3100 1.368 . S
C3081 H3105 0.949 . S
H3082 C3086 0.949 . S
C3083 C3084 1.349 . S
C3083 C3085 1.327 . S
C3083 H3106 0.950 . S
C3084 C3083 1.349 . S
C3084 C3096 1.349 . S
C3085 C3083 1.327 . S
C3085 C3101 1.429 . S
C3085 H3107 0.950 . S
C3086 H3082 0.949 . S
C3086 C3094 1.574 . S
C3086 C3102 1.368 . S
H3087 C3095 0.950 . S
H3088 C3093 0.950 . S
H3089 C3094 0.949 . S
H3090 C3096 0.950 . S
H3091 C3097 0.950 . S
H3092 C3098 0.949 . S
C3093 H3088 0.950 . S
C3093 C3095 1.327 . S
C3093 C3099 1.429 . S
C3094 C3086 1.574 . S
C3094 H3089 0.949 . S
C3094 C3100 1.368 . S
C3095 C3079 1.349 . S
C3095 H3087 0.950 . S
C3095 C3093 1.327 . S
C3096 C3084 1.349 . S
C3096 H3090 0.950 . S
C3096 C3097 1.327 . S
C3097 H3091 0.950 . S
C3097 C3096 1.327 . S
C3097 C3101 1.429 . S
C3098 C3081 1.574 . S
C3098 H3092 0.949 . S
C3098 C3102 1.368 . S
C3099 C3080 1.429 . S
C3099 C3093 1.429 . S
C3099 C3100 1.523 . S
C3100 C3081 1.368 . S
C3100 C3094 1.368 . S
C3100 C3099 1.523 . S
C3101 C3085 1.429 . S
C3101 C3097 1.429 . S
C3101 C3102 1.523 . S
C3102 C3086 1.368 . S
C3102 C3098 1.368 . S
C3102 C3101 1.523 . S
H3103 C3078 0.950 . S
H3104 C3080 0.950 . S
H3105 C3081 0.949 . S
H3106 C3083 0.950 . S
H3107 C3085 0.950 . S
C3108 C3109 1.349 . S
C3108 C3110 1.327 . S
C3108 H3133 0.950 . S
C3109 C3108 1.349 . S
C3109 C3125 1.349 . S
C3110 C3108 1.327 . S
C3110 C3129 1.429 . S
C3110 H3134 0.950 . S
C3111 C3128 1.574 . S
C3111 C3130 1.368 . S
C3111 H3135 0.949 . S
H3112 C3116 0.949 . S
C3113 C3114 1.349 1_554 S
C3113 C3115 1.327 . S
C3113 H3136 0.950 . S
C3114 C3113 1.349 1_556 S
C3114 C3126 1.349 . S
C3115 C3113 1.327 . S
C3115 C3131 1.429 . S
C3115 H3137 0.950 . S
C3116 H3112 0.949 . S
C3116 C3124 1.574 . S
C3116 C3132 1.368 . S
H3117 C3125 0.950 . S
H3118 C3123 0.950 . S
H3119 C3124 0.949 . S
H3120 C3126 0.950 . S
H3121 C3127 0.950 . S
H3122 C3128 0.949 . S
C3123 H3118 0.950 . S
C3123 C3125 1.327 . S
C3123 C3129 1.429 . S
C3124 C3116 1.574 . S
C3124 H3119 0.949 . S
C3124 C3130 1.368 . S
C3125 C3109 1.349 . S
C3125 H3117 0.950 . S
C3125 C3123 1.327 . S
C3126 C3114 1.349 . S
C3126 H3120 0.950 . S
C3126 C3127 1.327 1_556 S
C3127 H3121 0.950 . S
C3127 C3126 1.327 1_554 S
C3127 C3131 1.429 . S
C3128 C3111 1.574 . S
C3128 H3122 0.949 . S
C3128 C3132 1.368 . S
C3129 C3110 1.429 . S
C3129 C3123 1.429 . S
C3129 C3130 1.523 . S
C3130 C3111 1.368 . S
C3130 C3124 1.368 . S
C3130 C3129 1.523 . S
C3131 C3115 1.429 . S
C3131 C3127 1.429 . S
C3131 C3132 1.523 . S
C3132 C3116 1.368 . S
C3132 C3128 1.368 . S
C3132 C3131 1.523 . S
H3133 C3108 0.950 . S
H3134 C3110 0.950 . S
H3135 C3111 0.949 . S
H3136 C3113 0.950 . S
H3137 C3115 0.950 . S
C3138 C3139 1.349 . S
C3138 C3140 1.327 . S
C3138 H3163 0.950 . S
C3139 C3138 1.349 . S
C3139 C3155 1.349 . S
C3140 C3138 1.327 . S
C3140 C3159 1.429 . S
C3140 H3164 0.950 . S
C3141 C3158 1.574 . S
C3141 C3160 1.368 . S
C3141 H3165 0.949 . S
H3142 C3146 0.949 . S
C3143 C3144 1.349 . S
C3143 C3145 1.327 . S
C3143 H3166 0.950 . S
C3144 C3143 1.349 . S
C3144 C3156 1.349 . S
C3145 C3143 1.327 . S
C3145 C3161 1.429 . S
C3145 H3167 0.950 . S
C3146 H3142 0.949 . S
C3146 C3154 1.574 . S
C3146 C3162 1.368 . S
H3147 C3155 0.950 . S
H3148 C3153 0.950 . S
H3149 C3154 0.949 . S
H3150 C3156 0.950 . S
H3151 C3157 0.950 . S
H3152 C3158 0.949 . S
C3153 H3148 0.950 . S
C3153 C3155 1.327 . S
C3153 C3159 1.429 . S
C3154 C3146 1.574 . S
C3154 H3149 0.949 . S
C3154 C3160 1.368 . S
C3155 C3139 1.349 . S
C3155 H3147 0.950 . S
C3155 C3153 1.327 . S
C3156 C3144 1.349 . S
C3156 H3150 0.950 . S
C3156 C3157 1.327 . S
C3157 H3151 0.950 . S
C3157 C3156 1.327 . S
C3157 C3161 1.429 . S
C3158 C3141 1.574 . S
C3158 H3152 0.949 . S
C3158 C3162 1.368 . S
C3159 C3140 1.429 . S
C3159 C3153 1.429 . S
C3159 C3160 1.523 . S
C3160 C3141 1.368 . S
C3160 C3154 1.368 . S
C3160 C3159 1.523 . S
C3161 C3145 1.429 . S
C3161 C3157 1.429 . S
C3161 C3162 1.523 . S
C3162 C3146 1.368 . S
C3162 C3158 1.368 . S
C3162 C3161 1.523 . S
H3163 C3138 0.950 . S
H3164 C3140 0.950 . S
H3165 C3141 0.949 . S
H3166 C3143 0.950 . S
H3167 C3145 0.950 . S
C3168 C3169 1.349 . S
C3168 C3170 1.327 . S
C3168 H3193 0.950 . S
C3169 C3168 1.349 . S
C3169 C3185 1.349 . S
C3170 C3168 1.327 . S
C3170 C3189 1.429 . S
C3170 H3194 0.950 . S
C3171 C3188 1.574 . S
C3171 C3190 1.368 . S
C3171 H3195 0.949 . S
H3172 C3176 0.949 . S
C3173 C3174 1.348 . S
C3173 C3175 1.326 . S
C3173 H3196 0.952 1_455 S
C3174 C3173 1.348 . S
C3174 C3186 1.349 . S
C3175 C3173 1.326 . S
C3175 C3191 1.429 . S
C3175 H3197 0.960 . S
C3176 H3172 0.949 . S
C3176 C3184 1.574 . S
C3176 C3192 1.368 . S
H3177 C3185 0.950 . S
H3178 C3183 0.950 . S
H3179 C3184 0.949 . S
H3180 C3186 0.950 . S
H3181 C3187 0.950 . S
H3182 C3188 0.949 . S
C3183 H3178 0.950 . S
C3183 C3185 1.327 . S
C3183 C3189 1.429 . S
C3184 C3176 1.574 . S
C3184 H3179 0.949 . S
C3184 C3190 1.368 . S
C3185 C3169 1.349 . S
C3185 H3177 0.950 . S
C3185 C3183 1.327 . S
C3186 C3174 1.349 . S
C3186 H3180 0.950 . S
C3186 C3187 1.327 . S
C3187 H3181 0.950 . S
C3187 C3186 1.327 . S
C3187 C3191 1.429 . S
C3188 C3171 1.574 . S
C3188 H3182 0.949 . S
C3188 C3192 1.368 . S
C3189 C3170 1.429 . S
C3189 C3183 1.429 . S
C3189 C3190 1.523 . S
C3190 C3171 1.368 . S
C3190 C3184 1.368 . S
C3190 C3189 1.523 . S
C3191 C3175 1.429 . S
C3191 C3187 1.429 . S
C3191 C3192 1.523 . S
C3192 C3176 1.368 . S
C3192 C3188 1.368 . S
C3192 C3191 1.523 . S
H3193 C3168 0.950 . S
H3194 C3170 0.950 . S
H3195 C3171 0.949 . S
H3196 C3173 0.952 1_655 S
H3197 C3175 0.960 . S
C3198 C3199 1.349 . S
C3198 C3200 1.327 . S
C3198 H3223 0.950 . S
C3199 C3198 1.349 . S
C3199 C3215 1.349 . S
C3200 C3198 1.327 . S
C3200 C3219 1.429 . S
C3200 H3224 0.950 . S
C3201 C3218 1.574 . S
C3201 C3220 1.368 . S
C3201 H3225 0.949 . S
H3202 C3206 0.949 . S
C3203 C3204 1.402 . S
C3203 C3205 1.327 . S
C3203 H3226 0.950 . S
C3204 C3203 1.402 . S
C3204 C3216 1.356 . S
C3205 C3203 1.327 . S
C3205 C3221 1.429 . S
C3205 H3227 0.950 . S
C3206 H3202 0.949 . S
C3206 C3214 1.574 . S
C3206 C3222 1.368 . S
H3207 C3215 0.950 . S
H3208 C3213 0.950 . S
H3209 C3214 0.949 . S
H3210 C3216 0.950 1_655 S
H3211 C3217 0.950 . S
H3212 C3218 0.949 . S
C3213 H3208 0.950 . S
C3213 C3215 1.327 . S
C3213 C3219 1.429 . S
C3214 C3206 1.574 . S
C3214 H3209 0.949 . S
C3214 C3220 1.368 . S
C3215 C3199 1.349 . S
C3215 H3207 0.950 . S
C3215 C3213 1.327 . S
C3216 C3204 1.356 . S
C3216 H3210 0.950 1_455 S
C3216 C3217 1.327 . S
C3217 H3211 0.950 . S
C3217 C3216 1.327 . S
C3217 C3221 1.429 . S
C3218 C3201 1.574 . S
C3218 H3212 0.949 . S
C3218 C3222 1.368 . S
C3219 C3200 1.429 . S
C3219 C3213 1.429 . S
C3219 C3220 1.523 . S
C3220 C3201 1.368 . S
C3220 C3214 1.368 . S
C3220 C3219 1.523 . S
C3221 C3205 1.429 . S
C3221 C3217 1.429 . S
C3221 C3222 1.523 . S
C3222 C3206 1.368 . S
C3222 C3218 1.368 . S
C3222 C3221 1.523 . S
H3223 C3198 0.950 . S
H3224 C3200 0.950 . S
H3225 C3201 0.949 . S
H3226 C3203 0.950 . S
H3227 C3205 0.950 . S
C3228 C3229 1.349 . S
C3228 C3230 1.327 . S
C3228 H3253 0.950 . S
C3229 C3228 1.349 . S
C3229 C3245 1.349 . S
C3230 C3228 1.327 . S
C3230 C3249 1.429 . S
C3230 H3254 0.950 . S
C3231 C3248 1.574 . S
C3231 C3250 1.368 . S
C3231 H3255 0.949 . S
H3232 C3236 0.949 . S
C3233 C3234 1.349 . S
C3233 C3235 1.327 . S
C3233 H3256 0.950 . S
C3234 C3233 1.349 . S
C3234 C3246 1.349 . S
C3235 C3233 1.327 . S
C3235 C3251 1.429 . S
C3235 H3257 0.950 . S
C3236 H3232 0.949 . S
C3236 C3244 1.574 . S
C3236 C3252 1.368 . S
H3237 C3245 0.950 . S
H3238 C3243 0.950 . S
H3239 C3244 0.949 . S
H3240 C3246 0.950 . S
H3241 C3247 0.950 . S
H3242 C3248 0.949 . S
C3243 H3238 0.950 . S
C3243 C3245 1.327 . S
C3243 C3249 1.429 . S
C3244 C3236 1.574 . S
C3244 H3239 0.949 . S
C3244 C3250 1.368 . S
C3245 C3229 1.349 . S
C3245 H3237 0.950 . S
C3245 C3243 1.327 . S
C3246 C3234 1.349 . S
C3246 H3240 0.950 . S
C3246 C3247 1.327 . S
C3247 H3241 0.950 . S
C3247 C3246 1.327 . S
C3247 C3251 1.429 . S
C3248 C3231 1.574 . S
C3248 H3242 0.949 . S
C3248 C3252 1.368 . S
C3249 C3230 1.429 . S
C3249 C3243 1.429 . S
C3249 C3250 1.523 . S
C3250 C3231 1.368 . S
C3250 C3244 1.368 . S
C3250 C3249 1.523 . S
C3251 C3235 1.429 . S
C3251 C3247 1.429 . S
C3251 C3252 1.523 . S
C3252 C3236 1.368 . S
C3252 C3248 1.368 . S
C3252 C3251 1.523 . S
H3253 C3228 0.950 . S
H3254 C3230 0.950 . S
H3255 C3231 0.949 . S
H3256 C3233 0.950 . S
H3257 C3235 0.950 . S
C3258 C3259 1.349 . S
C3258 C3260 1.327 . S
C3258 H3283 0.950 . S
C3259 C3258 1.349 . S
C3259 C3275 1.349 . S
C3260 C3258 1.327 . S
C3260 C3279 1.429 . S
C3260 H3284 0.950 . S
C3261 C3278 1.574 . S
C3261 C3280 1.368 . S
C3261 H3285 0.949 . S
H3262 C3266 0.949 . S
C3263 C3264 1.349 . S
C3263 C3265 1.327 . S
C3263 H3286 0.950 . S
C3264 C3263 1.349 . S
C3264 C3276 1.349 . S
C3265 C3263 1.327 . S
C3265 C3281 1.429 . S
C3265 H3287 0.950 . S
C3266 H3262 0.949 . S
C3266 C3274 1.574 . S
C3266 C3282 1.368 . S
H3267 C3275 0.950 . S
H3268 C3273 0.950 . S
H3269 C3274 0.949 . S
H3270 C3276 0.950 . S
H3271 C3277 0.950 . S
H3272 C3278 0.949 . S
C3273 H3268 0.950 . S
C3273 C3275 1.327 . S
C3273 C3279 1.429 . S
C3274 C3266 1.574 . S
C3274 H3269 0.949 . S
C3274 C3280 1.368 . S
C3275 C3259 1.349 . S
C3275 H3267 0.950 . S
C3275 C3273 1.327 . S
C3276 C3264 1.349 . S
C3276 H3270 0.950 . S
C3276 C3277 1.327 . S
C3277 H3271 0.950 . S
C3277 C3276 1.327 . S
C3277 C3281 1.429 . S
C3278 C3261 1.574 . S
C3278 H3272 0.949 . S
C3278 C3282 1.368 . S
C3279 C3260 1.429 . S
C3279 C3273 1.429 . S
C3279 C3280 1.523 . S
C3280 C3261 1.368 . S
C3280 C3274 1.368 . S
C3280 C3279 1.523 . S
C3281 C3265 1.429 . S
C3281 C3277 1.429 . S
C3281 C3282 1.523 . S
C3282 C3266 1.368 . S
C3282 C3278 1.368 . S
C3282 C3281 1.523 . S
H3283 C3258 0.950 . S
H3284 C3260 0.950 . S
H3285 C3261 0.949 . S
H3286 C3263 0.950 . S
H3287 C3265 0.950 . S
C3288 C3289 1.349 . S
C3288 C3290 1.327 . S
C3288 H3313 0.950 . S
C3289 C3288 1.349 . S
C3289 C3305 1.349 . S
C3290 C3288 1.327 . S
C3290 C3309 1.429 . S
C3290 H3314 0.950 . S
C3291 C3308 1.574 . S
C3291 C3310 1.368 . S
C3291 H3315 0.949 . S
H3292 C3296 0.949 . S
C3293 C3294 1.349 . S
C3293 C3295 1.327 . S
C3293 H3316 0.950 . S
C3294 C3293 1.349 . S
C3294 C3306 1.349 . S
C3295 C3293 1.327 . S
C3295 C3311 1.429 . S
C3295 H3317 0.950 . S
C3296 H3292 0.949 . S
C3296 C3304 1.574 . S
C3296 C3312 1.368 . S
H3297 C3305 0.950 . S
H3298 C3303 0.950 . S
H3299 C3304 0.949 . S
H3300 C3306 0.950 . S
H3301 C3307 0.950 . S
H3302 C3308 0.949 . S
C3303 H3298 0.950 . S
C3303 C3305 1.327 . S
C3303 C3309 1.429 . S
C3304 C3296 1.574 . S
C3304 H3299 0.949 . S
C3304 C3310 1.368 . S
C3305 C3289 1.349 . S
C3305 H3297 0.950 . S
C3305 C3303 1.327 . S
C3306 C3294 1.349 . S
C3306 H3300 0.950 . S
C3306 C3307 1.327 . S
C3307 H3301 0.950 . S
C3307 C3306 1.327 . S
C3307 C3311 1.429 . S
C3308 C3291 1.574 . S
C3308 H3302 0.949 . S
C3308 C3312 1.368 . S
C3309 C3290 1.429 . S
C3309 C3303 1.429 . S
C3309 C3310 1.523 . S
C3310 C3291 1.368 . S
C3310 C3304 1.368 . S
C3310 C3309 1.523 . S
C3311 C3295 1.429 . S
C3311 C3307 1.429 . S
C3311 C3312 1.523 . S
C3312 C3296 1.368 . S
C3312 C3308 1.368 . S
C3312 C3311 1.523 . S
H3313 C3288 0.950 . S
H3314 C3290 0.950 . S
H3315 C3291 0.949 . S
H3316 C3293 0.950 . S
H3317 C3295 0.950 . S
C3318 C3319 1.349 . S
C3318 C3320 1.327 . S
C3318 H3343 0.950 . S
C3319 C3318 1.349 . S
C3319 C3335 1.349 . S
C3320 C3318 1.327 . S
C3320 C3339 1.429 . S
C3320 H3344 0.950 . S
C3321 C3338 1.574 . S
C3321 C3340 1.368 . S
C3321 H3345 0.949 . S
H3322 C3326 0.949 . S
C3323 C3324 1.349 . S
C3323 C3325 1.327 . S
C3323 H3346 0.950 . S
C3324 C3323 1.349 . S
C3324 C3336 1.349 . S
C3325 C3323 1.327 . S
C3325 C3341 1.429 . S
C3325 H3347 0.950 . S
C3326 H3322 0.949 . S
C3326 C3334 1.574 . S
C3326 C3342 1.368 . S
H3327 C3335 0.950 . S
H3328 C3333 0.950 . S
H3329 C3334 0.949 . S
H3330 C3336 0.950 . S
H3331 C3337 0.950 . S
H3332 C3338 0.949 . S
C3333 H3328 0.950 . S
C3333 C3335 1.327 . S
C3333 C3339 1.429 . S
C3334 C3326 1.574 . S
C3334 H3329 0.949 . S
C3334 C3340 1.368 . S
C3335 C3319 1.349 . S
C3335 H3327 0.950 . S
C3335 C3333 1.327 . S
C3336 C3324 1.349 . S
C3336 H3330 0.950 . S
C3336 C3337 1.327 . S
C3337 H3331 0.950 . S
C3337 C3336 1.327 . S
C3337 C3341 1.429 . S
C3338 C3321 1.574 . S
C3338 H3332 0.949 . S
C3338 C3342 1.368 . S
C3339 C3320 1.429 . S
C3339 C3333 1.429 . S
C3339 C3340 1.523 . S
C3340 C3321 1.368 . S
C3340 C3334 1.368 . S
C3340 C3339 1.523 . S
C3341 C3325 1.429 . S
C3341 C3337 1.429 . S
C3341 C3342 1.523 . S
C3342 C3326 1.368 . S
C3342 C3338 1.368 . S
C3342 C3341 1.523 . S
H3343 C3318 0.950 . S
H3344 C3320 0.950 . S
H3345 C3321 0.949 . S
H3346 C3323 0.950 . S
H3347 C3325 0.950 . S
C3348 C3349 1.349 . S
C3348 C3350 1.327 . S
C3348 H3373 0.950 . S
C3349 C3348 1.349 . S
C3349 C3365 1.349 . S
C3350 C3348 1.327 . S
C3350 C3369 1.429 . S
C3350 H3374 0.950 . S
C3351 C3368 1.574 . S
C3351 C3370 1.368 . S
C3351 H3375 0.949 . S
H3352 C3356 0.949 . S
C3353 C3354 1.349 . S
C3353 C3355 1.327 . S
C3353 H3376 0.950 . S
C3354 C3353 1.349 . S
C3354 C3366 1.349 . S
C3355 C3353 1.327 . S
C3355 C3371 1.429 . S
C3355 H3377 0.950 . S
C3356 H3352 0.949 . S
C3356 C3364 1.574 . S
C3356 C3372 1.368 . S
H3357 C3365 0.950 . S
H3358 C3363 0.950 . S
H3359 C3364 0.949 . S
H3360 C3366 0.950 . S
H3361 C3367 0.950 . S
H3362 C3368 0.949 . S
C3363 H3358 0.950 . S
C3363 C3365 1.327 . S
C3363 C3369 1.429 . S
C3364 C3356 1.574 . S
C3364 H3359 0.949 . S
C3364 C3370 1.368 . S
C3365 C3349 1.349 . S
C3365 H3357 0.950 . S
C3365 C3363 1.327 . S
C3366 C3354 1.349 . S
C3366 H3360 0.950 . S
C3366 C3367 1.327 . S
C3367 H3361 0.950 . S
C3367 C3366 1.327 . S
C3367 C3371 1.429 . S
C3368 C3351 1.574 . S
C3368 H3362 0.949 . S
C3368 C3372 1.368 . S
C3369 C3350 1.429 . S
C3369 C3363 1.429 . S
C3369 C3370 1.523 . S
C3370 C3351 1.368 . S
C3370 C3364 1.368 . S
C3370 C3369 1.523 . S
C3371 C3355 1.429 . S
C3371 C3367 1.429 . S
C3371 C3372 1.523 . S
C3372 C3356 1.368 . S
C3372 C3368 1.368 . S
C3372 C3371 1.523 . S
H3373 C3348 0.950 . S
H3374 C3350 0.950 . S
H3375 C3351 0.949 . S
H3376 C3353 0.950 . S
H3377 C3355 0.950 . S
C3378 C3379 1.349 . S
C3378 C3380 1.327 . S
C3378 H3403 0.950 . S
C3379 C3378 1.349 . S
C3379 C3395 1.349 . S
C3380 C3378 1.327 . S
C3380 C3399 1.429 . S
C3380 H3404 0.950 . S
C3381 C3398 1.574 . S
C3381 C3400 1.368 . S
C3381 H3405 0.949 . S
H3382 C3386 0.949 . S
C3383 C3384 1.349 . S
C3383 C3385 1.327 . S
C3383 H3406 0.950 . S
C3384 C3383 1.349 . S
C3384 C3396 1.349 . S
C3385 C3383 1.327 . S
C3385 C3401 1.429 . S
C3385 H3407 0.950 . S
C3386 H3382 0.949 . S
C3386 C3394 1.574 . S
C3386 C3402 1.368 . S
H3387 C3395 0.950 . S
H3388 C3393 0.950 . S
H3389 C3394 0.949 . S
H3390 C3396 0.950 . S
H3391 C3397 0.950 . S
H3392 C3398 0.949 . S
C3393 H3388 0.950 . S
C3393 C3395 1.327 . S
C3393 C3399 1.429 . S
C3394 C3386 1.574 . S
C3394 H3389 0.949 . S
C3394 C3400 1.368 . S
C3395 C3379 1.349 . S
C3395 H3387 0.950 . S
C3395 C3393 1.327 . S
C3396 C3384 1.349 . S
C3396 H3390 0.950 . S
C3396 C3397 1.327 . S
C3397 H3391 0.950 . S
C3397 C3396 1.327 . S
C3397 C3401 1.429 . S
C3398 C3381 1.574 . S
C3398 H3392 0.949 . S
C3398 C3402 1.368 . S
C3399 C3380 1.429 . S
C3399 C3393 1.429 . S
C3399 C3400 1.523 . S
C3400 C3381 1.368 . S
C3400 C3394 1.368 . S
C3400 C3399 1.523 . S
C3401 C3385 1.429 . S
C3401 C3397 1.429 . S
C3401 C3402 1.523 . S
C3402 C3386 1.368 . S
C3402 C3398 1.368 . S
C3402 C3401 1.523 . S
H3403 C3378 0.950 . S
H3404 C3380 0.950 . S
H3405 C3381 0.949 . S
H3406 C3383 0.950 . S
H3407 C3385 0.950 . S
C3408 C3409 1.349 . S
C3408 C3410 1.327 . S
C3408 H3433 0.950 . S
C3409 C3408 1.349 . S
C3409 C3425 1.349 . S
C3410 C3408 1.327 . S
C3410 C3429 1.429 . S
C3410 H3434 0.950 . S
C3411 C3428 1.574 . S
C3411 C3430 1.368 . S
C3411 H3435 0.949 . S
H3412 C3416 0.949 . S
C3413 C3414 1.349 . S
C3413 C3415 1.327 . S
C3413 H3436 0.950 . S
C3414 C3413 1.349 . S
C3414 C3426 1.349 . S
C3415 C3413 1.327 . S
C3415 C3431 1.429 . S
C3415 H3437 0.950 . S
C3416 H3412 0.949 . S
C3416 C3424 1.574 . S
C3416 C3432 1.368 . S
H3417 C3425 0.950 1_565 S
H3418 C3423 0.950 . S
H3419 C3424 0.949 . S
H3420 C3426 0.950 . S
H3421 C3427 0.950 . S
H3422 C3428 0.949 . S
C3423 H3418 0.950 . S
C3423 C3425 1.327 . S
C3423 C3429 1.429 . S
C3424 C3416 1.574 . S
C3424 H3419 0.949 . S
C3424 C3430 1.368 . S
C3425 C3409 1.349 . S
C3425 H3417 0.950 1_545 S
C3425 C3423 1.327 . S
C3426 C3414 1.349 . S
C3426 H3420 0.950 . S
C3426 C3427 1.327 . S
C3427 H3421 0.950 . S
C3427 C3426 1.327 . S
C3427 C3431 1.429 . S
C3428 C3411 1.574 . S
C3428 H3422 0.949 . S
C3428 C3432 1.368 . S
C3429 C3410 1.429 . S
C3429 C3423 1.429 . S
C3429 C3430 1.523 . S
C3430 C3411 1.368 . S
C3430 C3424 1.368 . S
C3430 C3429 1.523 . S
C3431 C3415 1.429 . S
C3431 C3427 1.429 . S
C3431 C3432 1.523 . S
C3432 C3416 1.368 . S
C3432 C3428 1.368 . S
C3432 C3431 1.523 . S
H3433 C3408 0.950 . S
H3434 C3410 0.950 . S
H3435 C3411 0.949 . S
H3436 C3413 0.950 . S
H3437 C3415 0.950 . S
C3438 C3439 1.349 . S
C3438 C3440 1.327 . S
C3438 H3463 0.950 . S
C3439 C3438 1.349 . S
C3439 C3455 1.349 . S
C3440 C3438 1.327 . S
C3440 C3459 1.429 . S
C3440 H3464 0.950 . S
C3441 C3458 1.574 . S
C3441 C3460 1.368 . S
C3441 H3465 0.949 . S
H3442 C3446 0.949 . S
C3443 C3444 1.349 . S
C3443 C3445 1.327 . S
C3443 H3466 0.950 . S
C3444 C3443 1.349 . S
C3444 C3456 1.349 . S
C3445 C3443 1.327 . S
C3445 C3461 1.429 . S
C3445 H3467 0.950 . S
C3446 H3442 0.949 . S
C3446 C3454 1.574 . S
C3446 C3462 1.368 . S
H3447 C3455 0.950 . S
H3448 C3453 0.950 . S
H3449 C3454 0.949 . S
H3450 C3456 0.950 . S
H3451 C3457 0.950 . S
H3452 C3458 0.949 . S
C3453 H3448 0.950 . S
C3453 C3455 1.327 . S
C3453 C3459 1.429 . S
C3454 C3446 1.574 . S
C3454 H3449 0.949 . S
C3454 C3460 1.368 . S
C3455 C3439 1.349 . S
C3455 H3447 0.950 . S
C3455 C3453 1.327 . S
C3456 C3444 1.349 . S
C3456 H3450 0.950 . S
C3456 C3457 1.327 . S
C3457 H3451 0.950 . S
C3457 C3456 1.327 . S
C3457 C3461 1.429 . S
C3458 C3441 1.574 . S
C3458 H3452 0.949 . S
C3458 C3462 1.368 . S
C3459 C3440 1.429 . S
C3459 C3453 1.429 . S
C3459 C3460 1.523 . S
C3460 C3441 1.368 . S
C3460 C3454 1.368 . S
C3460 C3459 1.523 . S
C3461 C3445 1.429 . S
C3461 C3457 1.429 . S
C3461 C3462 1.523 . S
C3462 C3446 1.368 . S
C3462 C3458 1.368 . S
C3462 C3461 1.523 . S
H3463 C3438 0.950 . S
H3464 C3440 0.950 . S
H3465 C3441 0.949 . S
H3466 C3443 0.950 . S
H3467 C3445 0.950 . S
C3468 C3469 1.349 . S
C3468 C3470 1.327 . S
C3468 H3493 0.950 . S
C3469 C3468 1.349 . S
C3469 C3485 1.349 . S
C3470 C3468 1.327 . S
C3470 C3489 1.429 . S
C3470 H3494 0.950 . S
C3471 C3488 1.574 . S
C3471 C3490 1.368 . S
C3471 H3495 0.949 . S
H3472 C3476 0.949 . S
C3473 C3474 1.412 . S
C3473 C3475 1.327 . S
C3473 H3496 0.950 . S
C3474 C3473 1.412 . S
C3474 C3486 1.346 . S
C3475 C3473 1.327 . S
C3475 C3491 1.429 . S
C3475 H3497 0.950 . S
C3476 H3472 0.949 . S
C3476 C3484 1.574 . S
C3476 C3492 1.368 . S
H3477 C3485 0.950 . S
H3478 C3483 0.950 . S
H3479 C3484 0.949 . S
H3480 C3486 0.955 1_565 S
H3481 C3487 0.950 . S
H3482 C3488 0.949 . S
C3483 H3478 0.950 . S
C3483 C3485 1.327 . S
C3483 C3489 1.429 . S
C3484 C3476 1.574 . S
C3484 H3479 0.949 . S
C3484 C3490 1.368 . S
C3485 C3469 1.349 . S
C3485 H3477 0.950 . S
C3485 C3483 1.327 . S
C3486 C3474 1.346 . S
C3486 H3480 0.955 1_545 S
C3486 C3487 1.322 . S
C3487 H3481 0.950 . S
C3487 C3486 1.322 . S
C3487 C3491 1.429 . S
C3488 C3471 1.574 . S
C3488 H3482 0.949 . S
C3488 C3492 1.368 . S
C3489 C3470 1.429 . S
C3489 C3483 1.429 . S
C3489 C3490 1.523 . S
C3490 C3471 1.368 . S
C3490 C3484 1.368 . S
C3490 C3489 1.523 . S
C3491 C3475 1.429 . S
C3491 C3487 1.429 . S
C3491 C3492 1.523 . S
C3492 C3476 1.368 . S
C3492 C3488 1.368 . S
C3492 C3491 1.523 . S
H3493 C3468 0.950 . S
H3494 C3470 0.950 . S
H3495 C3471 0.949 . S
H3496 C3473 0.950 . S
H3497 C3475 0.950 . S
C3498 C3499 1.349 . S
C3498 C3500 1.327 . S
C3498 H3523 0.950 . S
C3499 C3498 1.349 . S
C3499 C3515 1.349 . S
C3500 C3498 1.327 . S
C3500 C3519 1.429 . S
C3500 H3524 0.950 . S
C3501 C3518 1.574 . S
C3501 C3520 1.368 . S
C3501 H3525 0.949 . S
H3502 C3506 0.949 1_556 S
C3503 C3504 1.349 . S
C3503 C3505 1.327 . S
C3503 H3526 0.950 . S
C3504 C3503 1.349 . S
C3504 C3516 1.349 1_554 S
C3505 C3503 1.327 . S
C3505 C3521 1.429 . S
C3505 H3527 0.950 . S
C3506 H3502 0.949 1_554 S
C3506 C3514 1.574 . S
C3506 C3522 1.368 . S
H3507 C3515 0.950 . S
H3508 C3513 0.950 . S
H3509 C3514 0.970 . S
H3510 C3516 0.950 . S
H3511 C3517 0.950 . S
H3512 C3518 0.949 . S
C3513 H3508 0.950 . S
C3513 C3515 1.327 . S
C3513 C3519 1.429 . S
C3514 C3506 1.574 . S
C3514 H3509 0.970 . S
C3514 C3520 1.368 . S
C3515 C3499 1.349 . S
C3515 H3507 0.950 . S
C3515 C3513 1.327 . S
C3516 C3504 1.349 1_556 S
C3516 H3510 0.950 . S
C3516 C3517 1.327 . S
C3517 H3511 0.950 . S
C3517 C3516 1.327 . S
C3517 C3521 1.429 1_556 S
C3518 C3501 1.574 . S
C3518 H3512 0.949 . S
C3518 C3522 1.368 . S
C3519 C3500 1.429 . S
C3519 C3513 1.429 . S
C3519 C3520 1.523 . S
C3520 C3501 1.368 . S
C3520 C3514 1.368 . S
C3520 C3519 1.523 . S
C3521 C3505 1.429 . S
C3521 C3517 1.429 1_554 S
C3521 C3522 1.523 . S
C3522 C3506 1.368 . S
C3522 C3518 1.368 . S
C3522 C3521 1.523 . S
H3523 C3498 0.950 . S
H3524 C3500 0.950 . S
H3525 C3501 0.949 . S
H3526 C3503 0.950 . S
H3527 C3505 0.950 . S
C3528 C3529 1.349 . S
C3528 C3530 1.327 . S
C3528 H3553 0.950 . S
C3529 C3528 1.349 . S
C3529 C3545 1.349 . S
C3530 C3528 1.327 . S
C3530 C3549 1.429 . S
C3530 H3554 0.950 . S
C3531 C3548 1.574 . S
C3531 C3550 1.368 . S
C3531 H3555 0.949 . S
H3532 C3536 0.949 . S
C3533 C3534 1.349 . S
C3533 C3535 1.327 . S
C3533 H3556 0.950 . S
C3534 C3533 1.349 . S
C3534 C3546 1.349 . S
C3535 C3533 1.327 . S
C3535 C3551 1.429 . S
C3535 H3557 0.950 . S
C3536 H3532 0.949 . S
C3536 C3544 1.574 . S
C3536 C3552 1.368 . S
H3537 C3545 0.950 . S
H3538 C3543 0.950 . S
H3539 C3544 0.949 . S
H3540 C3546 0.950 . S
H3541 C3547 0.950 . S
H3542 C3548 0.949 . S
C3543 H3538 0.950 . S
C3543 C3545 1.327 . S
C3543 C3549 1.429 . S
C3544 C3536 1.574 . S
C3544 H3539 0.949 . S
C3544 C3550 1.368 . S
C3545 C3529 1.349 . S
C3545 H3537 0.950 . S
C3545 C3543 1.327 . S
C3546 C3534 1.349 . S
C3546 H3540 0.950 . S
C3546 C3547 1.327 . S
C3547 H3541 0.950 . S
C3547 C3546 1.327 . S
C3547 C3551 1.429 . S
C3548 C3531 1.574 . S
C3548 H3542 0.949 . S
C3548 C3552 1.368 . S
C3549 C3530 1.429 . S
C3549 C3543 1.429 . S
C3549 C3550 1.523 . S
C3550 C3531 1.368 . S
C3550 C3544 1.368 . S
C3550 C3549 1.523 . S
C3551 C3535 1.429 . S
C3551 C3547 1.429 . S
C3551 C3552 1.523 . S
C3552 C3536 1.368 . S
C3552 C3548 1.368 . S
C3552 C3551 1.523 . S
H3553 C3528 0.950 . S
H3554 C3530 0.950 . S
H3555 C3531 0.949 . S
H3556 C3533 0.950 . S
H3557 C3535 0.950 . S
C3558 C3559 1.349 . S
C3558 C3560 1.327 . S
C3558 H3583 0.950 . S
C3559 C3558 1.349 . S
C3559 C3575 1.349 . S
C3560 C3558 1.327 . S
C3560 C3579 1.429 . S
C3560 H3584 0.950 . S
C3561 C3578 1.574 . S
C3561 C3580 1.368 . S
C3561 H3585 0.949 . S
H3562 C3566 0.949 . S
C3563 C3564 1.349 . S
C3563 C3565 1.327 . S
C3563 H3586 0.950 . S
C3564 C3563 1.349 . S
C3564 C3576 1.349 . S
C3565 C3563 1.327 . S
C3565 C3581 1.429 . S
C3565 H3587 0.950 . S
C3566 H3562 0.949 . S
C3566 C3574 1.574 . S
C3566 C3582 1.368 . S
H3567 C3575 0.950 . S
H3568 C3573 0.950 . S
H3569 C3574 0.949 . S
H3570 C3576 0.950 . S
H3571 C3577 0.950 . S
H3572 C3578 0.949 . S
C3573 H3568 0.950 . S
C3573 C3575 1.327 . S
C3573 C3579 1.429 . S
C3574 C3566 1.574 . S
C3574 H3569 0.949 . S
C3574 C3580 1.368 . S
C3575 C3559 1.349 . S
C3575 H3567 0.950 . S
C3575 C3573 1.327 . S
C3576 C3564 1.349 . S
C3576 H3570 0.950 . S
C3576 C3577 1.327 . S
C3577 H3571 0.950 . S
C3577 C3576 1.327 . S
C3577 C3581 1.429 . S
C3578 C3561 1.574 . S
C3578 H3572 0.949 . S
C3578 C3582 1.368 . S
C3579 C3560 1.429 . S
C3579 C3573 1.429 . S
C3579 C3580 1.523 . S
C3580 C3561 1.368 . S
C3580 C3574 1.368 . S
C3580 C3579 1.523 . S
C3581 C3565 1.429 . S
C3581 C3577 1.429 . S
C3581 C3582 1.523 . S
C3582 C3566 1.368 . S
C3582 C3578 1.368 . S
C3582 C3581 1.523 . S
H3583 C3558 0.950 . S
H3584 C3560 0.950 . S
H3585 C3561 0.949 . S
H3586 C3563 0.950 . S
H3587 C3565 0.950 . S
C3588 C3589 1.349 . S
C3588 C3590 1.327 . S
C3588 H3613 0.950 . S
C3589 C3588 1.349 . S
C3589 C3605 1.349 . S
C3590 C3588 1.327 . S
C3590 C3609 1.429 . S
C3590 H3614 0.950 . S
C3591 C3608 1.574 . S
C3591 C3610 1.368 . S
C3591 H3615 0.949 . S
H3592 C3596 0.949 . S
C3593 C3594 1.349 . S
C3593 C3595 1.327 . S
C3593 H3616 0.950 . S
C3594 C3593 1.349 . S
C3594 C3606 1.349 . S
C3595 C3593 1.327 . S
C3595 C3611 1.429 . S
C3595 H3617 0.950 . S
C3596 H3592 0.949 . S
C3596 C3604 1.574 . S
C3596 C3612 1.368 . S
H3597 C3605 0.950 . S
H3598 C3603 0.950 . S
H3599 C3604 0.949 . S
H3600 C3606 0.950 . S
H3601 C3607 0.950 . S
H3602 C3608 0.949 . S
C3603 H3598 0.950 . S
C3603 C3605 1.327 . S
C3603 C3609 1.429 . S
C3604 C3596 1.574 . S
C3604 H3599 0.949 . S
C3604 C3610 1.368 . S
C3605 C3589 1.349 . S
C3605 H3597 0.950 . S
C3605 C3603 1.327 . S
C3606 C3594 1.349 . S
C3606 H3600 0.950 . S
C3606 C3607 1.327 . S
C3607 H3601 0.950 . S
C3607 C3606 1.327 . S
C3607 C3611 1.429 . S
C3608 C3591 1.574 . S
C3608 H3602 0.949 . S
C3608 C3612 1.368 . S
C3609 C3590 1.429 . S
C3609 C3603 1.429 . S
C3609 C3610 1.523 . S
C3610 C3591 1.368 . S
C3610 C3604 1.368 . S
C3610 C3609 1.523 . S
C3611 C3595 1.429 . S
C3611 C3607 1.429 . S
C3611 C3612 1.523 . S
C3612 C3596 1.368 . S
C3612 C3608 1.368 . S
C3612 C3611 1.523 . S
H3613 C3588 0.950 . S
H3614 C3590 0.950 . S
H3615 C3591 0.949 . S
H3616 C3593 0.950 . S
H3617 C3595 0.950 . S
C3618 C3619 1.349 . S
C3618 C3620 1.327 . S
C3618 H3643 0.950 . S
C3619 C3618 1.349 . S
C3619 C3635 1.349 . S
C3620 C3618 1.327 . S
C3620 C3639 1.429 . S
C3620 H3644 0.950 . S
C3621 C3638 1.574 . S
C3621 C3640 1.368 . S
C3621 H3645 0.949 . S
H3622 C3626 0.949 . S
C3623 C3624 1.349 . S
C3623 C3625 1.327 . S
C3623 H3646 0.950 . S
C3624 C3623 1.349 . S
C3624 C3636 1.349 . S
C3625 C3623 1.327 . S
C3625 C3641 1.429 . S
C3625 H3647 0.950 . S
C3626 H3622 0.949 . S
C3626 C3634 1.574 . S
C3626 C3642 1.368 . S
H3627 C3635 0.950 . S
H3628 C3633 0.950 . S
H3629 C3634 0.949 . S
H3630 C3636 0.950 . S
H3631 C3637 0.950 . S
H3632 C3638 0.949 . S
C3633 H3628 0.950 . S
C3633 C3635 1.327 . S
C3633 C3639 1.429 . S
C3634 C3626 1.574 . S
C3634 H3629 0.949 . S
C3634 C3640 1.368 . S
C3635 C3619 1.349 . S
C3635 H3627 0.950 . S
C3635 C3633 1.327 . S
C3636 C3624 1.349 . S
C3636 H3630 0.950 . S
C3636 C3637 1.327 . S
C3637 H3631 0.950 . S
C3637 C3636 1.327 . S
C3637 C3641 1.429 . S
C3638 C3621 1.574 . S
C3638 H3632 0.949 . S
C3638 C3642 1.368 . S
C3639 C3620 1.429 . S
C3639 C3633 1.429 . S
C3639 C3640 1.523 . S
C3640 C3621 1.368 . S
C3640 C3634 1.368 . S
C3640 C3639 1.523 . S
C3641 C3625 1.429 . S
C3641 C3637 1.429 . S
C3641 C3642 1.523 . S
C3642 C3626 1.368 . S
C3642 C3638 1.368 . S
C3642 C3641 1.523 . S
H3643 C3618 0.950 . S
H3644 C3620 0.950 . S
H3645 C3621 0.949 . S
H3646 C3623 0.950 . S
H3647 C3625 0.950 . S
C3648 C3649 1.405 . S
C3648 C3650 1.327 . S
C3648 H3673 0.950 . S
C3649 C3648 1.405 . S
C3649 C3665 1.353 . S
C3650 C3648 1.327 . S
C3650 C3669 1.429 . S
C3650 H3674 0.950 . S
C3651 C3668 1.574 . S
C3651 C3670 1.368 . S
C3651 H3675 0.949 . S
H3652 C3656 0.949 . S
C3653 C3654 1.349 . S
C3653 C3655 1.327 . S
C3653 H3676 0.950 . S
C3654 C3653 1.349 . S
C3654 C3666 1.349 . S
C3655 C3653 1.327 . S
C3655 C3671 1.429 . S
C3655 H3677 0.950 . S
C3656 H3652 0.949 . S
C3656 C3664 1.574 . S
C3656 C3672 1.368 . S
H3657 C3665 0.950 1_556 S
H3658 C3663 0.950 . S
H3659 C3664 0.949 . S
H3660 C3666 0.950 . S
H3661 C3667 0.950 . S
H3662 C3668 0.949 . S
C3663 H3658 0.950 . S
C3663 C3665 1.327 . S
C3663 C3669 1.429 . S
C3664 C3656 1.574 . S
C3664 H3659 0.949 . S
C3664 C3670 1.368 . S
C3665 C3649 1.353 . S
C3665 H3657 0.950 1_554 S
C3665 C3663 1.327 . S
C3666 C3654 1.349 . S
C3666 H3660 0.950 . S
C3666 C3667 1.327 . S
C3667 H3661 0.950 . S
C3667 C3666 1.327 . S
C3667 C3671 1.429 . S
C3668 C3651 1.574 . S
C3668 H3662 0.949 . S
C3668 C3672 1.368 . S
C3669 C3650 1.429 . S
C3669 C3663 1.429 . S
C3669 C3670 1.523 . S
C3670 C3651 1.368 . S
C3670 C3664 1.368 . S
C3670 C3669 1.523 . S
C3671 C3655 1.429 . S
C3671 C3667 1.429 . S
C3671 C3672 1.523 . S
C3672 C3656 1.368 . S
C3672 C3668 1.368 . S
C3672 C3671 1.523 . S
H3673 C3648 0.950 . S
H3674 C3650 0.950 . S
H3675 C3651 0.949 . S
H3676 C3653 0.950 . S
H3677 C3655 0.950 . S
C3678 C3679 1.349 . S
C3678 C3680 1.327 . S
C3678 H3703 0.950 . S
C3679 C3678 1.349 . S
C3679 C3695 1.349 . S
C3680 C3678 1.327 . S
C3680 C3699 1.429 . S
C3680 H3704 0.950 . S
C3681 C3698 1.574 . S
C3681 C3700 1.368 . S
C3681 H3705 0.949 . S
H3682 C3686 0.949 . S
C3683 C3684 1.349 . S
C3683 C3685 1.327 . S
C3683 H3706 0.950 . S
C3684 C3683 1.349 . S
C3684 C3696 1.349 . S
C3685 C3683 1.327 . S
C3685 C3701 1.429 . S
C3685 H3707 0.950 . S
C3686 H3682 0.949 . S
C3686 C3694 1.574 . S
C3686 C3702 1.368 . S
H3687 C3695 0.950 . S
H3688 C3693 0.950 . S
H3689 C3694 0.949 . S
H3690 C3696 0.950 . S
H3691 C3697 0.950 . S
H3692 C3698 0.949 . S
C3693 H3688 0.950 . S
C3693 C3695 1.327 . S
C3693 C3699 1.429 . S
C3694 C3686 1.574 . S
C3694 H3689 0.949 . S
C3694 C3700 1.368 . S
C3695 C3679 1.349 . S
C3695 H3687 0.950 . S
C3695 C3693 1.327 . S
C3696 C3684 1.349 . S
C3696 H3690 0.950 . S
C3696 C3697 1.327 . S
C3697 H3691 0.950 . S
C3697 C3696 1.327 . S
C3697 C3701 1.429 . S
C3698 C3681 1.574 . S
C3698 H3692 0.949 . S
C3698 C3702 1.368 . S
C3699 C3680 1.429 . S
C3699 C3693 1.429 . S
C3699 C3700 1.523 . S
C3700 C3681 1.368 . S
C3700 C3694 1.368 . S
C3700 C3699 1.523 . S
C3701 C3685 1.429 . S
C3701 C3697 1.429 . S
C3701 C3702 1.523 . S
C3702 C3686 1.368 . S
C3702 C3698 1.368 . S
C3702 C3701 1.523 . S
H3703 C3678 0.950 . S
H3704 C3680 0.950 . S
H3705 C3681 0.949 . S
H3706 C3683 0.950 . S
H3707 C3685 0.950 . S
C3708 C3709 1.349 . S
C3708 C3710 1.327 . S
C3708 H3733 0.950 . S
C3709 C3708 1.349 . S
C3709 C3725 1.349 . S
C3710 C3708 1.327 . S
C3710 C3729 1.429 . S
C3710 H3734 0.950 . S
C3711 C3728 1.574 . S
C3711 C3730 1.368 . S
C3711 H3735 0.949 . S
H3712 C3716 0.949 . S
C3713 C3714 1.349 . S
C3713 C3715 1.327 . S
C3713 H3736 0.950 . S
C3714 C3713 1.349 . S
C3714 C3726 1.349 . S
C3715 C3713 1.327 . S
C3715 C3731 1.429 . S
C3715 H3737 0.950 . S
C3716 H3712 0.949 . S
C3716 C3724 1.574 . S
C3716 C3732 1.368 . S
H3717 C3725 0.950 . S
H3718 C3723 0.950 . S
H3719 C3724 0.949 . S
H3720 C3726 0.950 . S
H3721 C3727 0.950 . S
H3722 C3728 0.949 . S
C3723 H3718 0.950 . S
C3723 C3725 1.327 . S
C3723 C3729 1.429 . S
C3724 C3716 1.574 . S
C3724 H3719 0.949 . S
C3724 C3730 1.368 . S
C3725 C3709 1.349 . S
C3725 H3717 0.950 . S
C3725 C3723 1.327 . S
C3726 C3714 1.349 . S
C3726 H3720 0.950 . S
C3726 C3727 1.327 . S
C3727 H3721 0.950 . S
C3727 C3726 1.327 . S
C3727 C3731 1.429 . S
C3728 C3711 1.574 . S
C3728 H3722 0.949 . S
C3728 C3732 1.368 . S
C3729 C3710 1.429 . S
C3729 C3723 1.429 . S
C3729 C3730 1.523 . S
C3730 C3711 1.368 . S
C3730 C3724 1.368 . S
C3730 C3729 1.523 . S
C3731 C3715 1.429 . S
C3731 C3727 1.429 . S
C3731 C3732 1.523 . S
C3732 C3716 1.368 . S
C3732 C3728 1.368 . S
C3732 C3731 1.523 . S
H3733 C3708 0.950 . S
H3734 C3710 0.950 . S
H3735 C3711 0.949 . S
H3736 C3713 0.950 . S
H3737 C3715 0.950 . S
C3738 C3739 1.349 . S
C3738 C3740 1.327 . S
C3738 H3763 0.950 . S
C3739 C3738 1.349 . S
C3739 C3755 1.349 . S
C3740 C3738 1.327 . S
C3740 C3759 1.429 . S
C3740 H3764 0.950 . S
C3741 C3758 1.574 . S
C3741 C3760 1.368 . S
C3741 H3765 0.949 . S
H3742 C3746 0.949 . S
C3743 C3744 1.349 . S
C3743 C3745 1.327 . S
C3743 H3766 0.950 . S
C3744 C3743 1.349 . S
C3744 C3756 1.349 . S
C3745 C3743 1.327 . S
C3745 C3761 1.429 . S
C3745 H3767 0.950 . S
C3746 H3742 0.949 . S
C3746 C3754 1.574 . S
C3746 C3762 1.368 . S
H3747 C3755 0.950 . S
H3748 C3753 0.950 . S
H3749 C3754 0.949 . S
H3750 C3756 0.950 . S
H3751 C3757 0.950 . S
H3752 C3758 0.949 . S
C3753 H3748 0.950 . S
C3753 C3755 1.327 . S
C3753 C3759 1.429 . S
C3754 C3746 1.574 . S
C3754 H3749 0.949 . S
C3754 C3760 1.368 . S
C3755 C3739 1.349 . S
C3755 H3747 0.950 . S
C3755 C3753 1.327 . S
C3756 C3744 1.349 . S
C3756 H3750 0.950 . S
C3756 C3757 1.327 . S
C3757 H3751 0.950 . S
C3757 C3756 1.327 . S
C3757 C3761 1.429 . S
C3758 C3741 1.574 . S
C3758 H3752 0.949 . S
C3758 C3762 1.368 . S
C3759 C3740 1.429 . S
C3759 C3753 1.429 . S
C3759 C3760 1.523 . S
C3760 C3741 1.368 . S
C3760 C3754 1.368 . S
C3760 C3759 1.523 . S
C3761 C3745 1.429 . S
C3761 C3757 1.429 . S
C3761 C3762 1.523 . S
C3762 C3746 1.368 . S
C3762 C3758 1.368 . S
C3762 C3761 1.523 . S
H3763 C3738 0.950 . S
H3764 C3740 0.950 . S
H3765 C3741 0.949 . S
H3766 C3743 0.950 . S
H3767 C3745 0.950 . S
C3768 C3769 1.349 . S
C3768 C3770 1.327 . S
C3768 H3793 0.950 . S
C3769 C3768 1.349 . S
C3769 C3785 1.349 . S
C3770 C3768 1.327 . S
C3770 C3789 1.429 . S
C3770 H3794 0.950 . S
C3771 C3788 1.574 . S
C3771 C3790 1.368 . S
C3771 H3795 0.949 . S
H3772 C3776 0.949 . S
C3773 C3774 1.349 . S
C3773 C3775 1.327 . S
C3773 H3796 0.950 . S
C3774 C3773 1.349 . S
C3774 C3786 1.349 . S
C3775 C3773 1.327 . S
C3775 C3791 1.429 . S
C3775 H3797 0.950 . S
C3776 H3772 0.949 . S
C3776 C3784 1.574 . S
C3776 C3792 1.368 . S
H3777 C3785 0.950 . S
H3778 C3783 0.950 . S
H3779 C3784 0.949 . S
H3780 C3786 0.950 . S
H3781 C3787 0.950 . S
H3782 C3788 0.949 . S
C3783 H3778 0.950 . S
C3783 C3785 1.327 . S
C3783 C3789 1.429 . S
C3784 C3776 1.574 . S
C3784 H3779 0.949 . S
C3784 C3790 1.368 . S
C3785 C3769 1.349 . S
C3785 H3777 0.950 . S
C3785 C3783 1.327 . S
C3786 C3774 1.349 . S
C3786 H3780 0.950 . S
C3786 C3787 1.327 . S
C3787 H3781 0.950 . S
C3787 C3786 1.327 . S
C3787 C3791 1.429 . S
C3788 C3771 1.574 . S
C3788 H3782 0.949 . S
C3788 C3792 1.368 . S
C3789 C3770 1.429 . S
C3789 C3783 1.429 . S
C3789 C3790 1.523 . S
C3790 C3771 1.368 . S
C3790 C3784 1.368 . S
C3790 C3789 1.523 . S
C3791 C3775 1.429 . S
C3791 C3787 1.429 . S
C3791 C3792 1.523 . S
C3792 C3776 1.368 . S
C3792 C3788 1.368 . S
C3792 C3791 1.523 . S
H3793 C3768 0.950 . S
H3794 C3770 0.950 . S
H3795 C3771 0.949 . S
H3796 C3773 0.950 . S
H3797 C3775 0.950 . S
C3798 C3799 1.349 . S
C3798 C3800 1.327 . S
C3798 H3823 0.950 . S
C3799 C3798 1.349 . S
C3799 C3815 1.349 . S
C3800 C3798 1.327 . S
C3800 C3819 1.429 . S
C3800 H3824 0.950 . S
C3801 C3818 1.574 . S
C3801 C3820 1.368 . S
C3801 H3825 0.949 . S
H3802 C3806 0.949 . S
C3803 C3804 1.349 . S
C3803 C3805 1.327 . S
C3803 H3826 0.950 . S
C3804 C3803 1.349 . S
C3804 C3816 1.349 . S
C3805 C3803 1.327 . S
C3805 C3821 1.429 . S
C3805 H3827 0.950 . S
C3806 H3802 0.949 . S
C3806 C3814 1.574 . S
C3806 C3822 1.368 . S
H3807 C3815 0.950 . S
H3808 C3813 0.950 . S
H3809 C3814 0.949 . S
H3810 C3816 0.950 . S
H3811 C3817 0.950 . S
H3812 C3818 0.949 . S
C3813 H3808 0.950 . S
C3813 C3815 1.327 . S
C3813 C3819 1.429 . S
C3814 C3806 1.574 . S
C3814 H3809 0.949 . S
C3814 C3820 1.368 . S
C3815 C3799 1.349 . S
C3815 H3807 0.950 . S
C3815 C3813 1.327 . S
C3816 C3804 1.349 . S
C3816 H3810 0.950 . S
C3816 C3817 1.327 . S
C3817 H3811 0.950 . S
C3817 C3816 1.327 . S
C3817 C3821 1.429 . S
C3818 C3801 1.574 . S
C3818 H3812 0.949 . S
C3818 C3822 1.368 . S
C3819 C3800 1.429 . S
C3819 C3813 1.429 . S
C3819 C3820 1.523 . S
C3820 C3801 1.368 . S
C3820 C3814 1.368 . S
C3820 C3819 1.523 . S
C3821 C3805 1.429 . S
C3821 C3817 1.429 . S
C3821 C3822 1.523 . S
C3822 C3806 1.368 . S
C3822 C3818 1.368 . S
C3822 C3821 1.523 . S
H3823 C3798 0.950 . S
H3824 C3800 0.950 . S
H3825 C3801 0.949 . S
H3826 C3803 0.950 . S
H3827 C3805 0.950 . S
C3828 C3829 1.349 . S
C3828 C3830 1.327 . S
C3828 H3853 0.950 . S
C3829 C3828 1.349 . S
C3829 C3845 1.349 . S
C3830 C3828 1.327 . S
C3830 C3849 1.429 . S
C3830 H3854 0.950 . S
C3831 C3848 1.574 . S
C3831 C3850 1.368 . S
C3831 H3855 0.949 . S
H3832 C3836 0.949 . S
C3833 C3834 1.349 . S
C3833 C3835 1.327 . S
C3833 H3856 0.950 . S
C3834 C3833 1.349 . S
C3834 C3846 1.349 . S
C3835 C3833 1.327 . S
C3835 C3851 1.429 . S
C3835 H3857 0.950 . S
C3836 H3832 0.949 . S
C3836 C3844 1.574 . S
C3836 C3852 1.368 . S
H3837 C3845 0.950 . S
H3838 C3843 0.950 . S
H3839 C3844 0.949 . S
H3840 C3846 0.950 . S
H3841 C3847 0.950 . S
H3842 C3848 0.949 . S
C3843 H3838 0.950 . S
C3843 C3845 1.327 . S
C3843 C3849 1.429 . S
C3844 C3836 1.574 . S
C3844 H3839 0.949 . S
C3844 C3850 1.368 . S
C3845 C3829 1.349 . S
C3845 H3837 0.950 . S
C3845 C3843 1.327 . S
C3846 C3834 1.349 . S
C3846 H3840 0.950 . S
C3846 C3847 1.327 . S
C3847 H3841 0.950 . S
C3847 C3846 1.327 . S
C3847 C3851 1.429 . S
C3848 C3831 1.574 . S
C3848 H3842 0.949 . S
C3848 C3852 1.368 . S
C3849 C3830 1.429 . S
C3849 C3843 1.429 . S
C3849 C3850 1.523 . S
C3850 C3831 1.368 . S
C3850 C3844 1.368 . S
C3850 C3849 1.523 . S
C3851 C3835 1.429 . S
C3851 C3847 1.429 . S
C3851 C3852 1.523 . S
C3852 C3836 1.368 . S
C3852 C3848 1.368 . S
C3852 C3851 1.523 . S
H3853 C3828 0.950 . S
H3854 C3830 0.950 . S
H3855 C3831 0.949 . S
H3856 C3833 0.950 . S
H3857 C3835 0.950 . S
C3858 C3859 1.349 . S
C3858 C3860 1.327 . S
C3858 H3883 0.950 . S
C3859 C3858 1.349 . S
C3859 C3875 1.349 . S
C3860 C3858 1.327 . S
C3860 C3879 1.429 . S
C3860 H3884 0.950 . S
C3861 C3878 1.574 . S
C3861 C3880 1.368 . S
C3861 H3885 0.949 . S
H3862 C3866 0.949 . S
C3863 C3864 1.349 . S
C3863 C3865 1.327 . S
C3863 H3886 0.950 . S
C3864 C3863 1.349 . S
C3864 C3876 1.349 . S
C3865 C3863 1.327 . S
C3865 C3881 1.429 . S
C3865 H3887 0.950 . S
C3866 H3862 0.949 . S
C3866 C3874 1.574 . S
C3866 C3882 1.368 . S
H3867 C3875 0.950 . S
H3868 C3873 0.950 . S
H3869 C3874 0.949 . S
H3870 C3876 0.950 . S
H3871 C3877 0.950 . S
H3872 C3878 0.949 . S
C3873 H3868 0.950 . S
C3873 C3875 1.327 . S
C3873 C3879 1.429 . S
C3874 C3866 1.574 . S
C3874 H3869 0.949 . S
C3874 C3880 1.368 . S
C3875 C3859 1.349 . S
C3875 H3867 0.950 . S
C3875 C3873 1.327 . S
C3876 C3864 1.349 . S
C3876 H3870 0.950 . S
C3876 C3877 1.327 . S
C3877 H3871 0.950 . S
C3877 C3876 1.327 . S
C3877 C3881 1.429 . S
C3878 C3861 1.574 . S
C3878 H3872 0.949 . S
C3878 C3882 1.368 . S
C3879 C3860 1.429 . S
C3879 C3873 1.429 . S
C3879 C3880 1.523 . S
C3880 C3861 1.368 . S
C3880 C3874 1.368 . S
C3880 C3879 1.523 . S
C3881 C3865 1.429 . S
C3881 C3877 1.429 . S
C3881 C3882 1.523 . S
C3882 C3866 1.368 . S
C3882 C3878 1.368 . S
C3882 C3881 1.523 . S
H3883 C3858 0.950 . S
H3884 C3860 0.950 . S
H3885 C3861 0.949 . S
H3886 C3863 0.950 . S
H3887 C3865 0.950 . S
C3888 C3889 1.349 . S
C3888 C3890 1.342 . S
C3888 H3913 0.947 1_455 S
C3889 C3888 1.349 . S
C3889 C3905 1.349 . S
C3890 C3888 1.342 . S
C3890 C3909 1.453 . S
C3890 H3914 0.911 1_455 S
C3891 C3908 1.574 . S
C3891 C3910 1.368 . S
C3891 H3915 0.949 . S
H3892 C3896 0.949 . S
C3893 C3894 1.349 . S
C3893 C3895 1.327 . S
C3893 H3916 0.950 . S
C3894 C3893 1.349 . S
C3894 C3906 1.349 . S
C3895 C3893 1.327 . S
C3895 C3911 1.429 . S
C3895 H3917 0.950 1_655 S
C3896 H3892 0.949 . S
C3896 C3904 1.574 . S
C3896 C3912 1.368 . S
H3897 C3905 0.950 . S
H3898 C3903 0.950 . S
H3899 C3904 0.949 . S
H3900 C3906 0.950 . S
H3901 C3907 0.950 . S
H3902 C3908 0.949 . S
C3903 H3898 0.950 . S
C3903 C3905 1.327 . S
C3903 C3909 1.429 . S
C3904 C3896 1.574 . S
C3904 H3899 0.949 . S
C3904 C3910 1.368 1_655 S
C3905 C3889 1.349 . S
C3905 H3897 0.950 . S
C3905 C3903 1.327 . S
C3906 C3894 1.349 . S
C3906 H3900 0.950 . S
C3906 C3907 1.327 . S
C3907 H3901 0.950 . S
C3907 C3906 1.327 . S
C3907 C3911 1.429 . S
C3908 C3891 1.574 . S
C3908 H3902 0.949 . S
C3908 C3912 1.368 1_455 S
C3909 C3890 1.453 . S
C3909 C3903 1.429 . S
C3909 C3910 1.523 . S
C3910 C3891 1.368 . S
C3910 C3904 1.368 1_455 S
C3910 C3909 1.523 . S
C3911 C3895 1.429 . S
C3911 C3907 1.429 . S
C3911 C3912 1.523 . S
C3912 C3896 1.368 . S
C3912 C3908 1.368 1_655 S
C3912 C3911 1.523 . S
H3913 C3888 0.947 1_655 S
H3914 C3890 0.911 1_655 S
H3915 C3891 0.949 . S
H3916 C3893 0.950 . S
H3917 C3895 0.950 1_455 S
C3918 C3919 1.349 . S
C3918 C3920 1.327 . S
C3918 H3943 0.950 . S
C3919 C3918 1.349 . S
C3919 C3935 1.349 . S
C3920 C3918 1.327 . S
C3920 C3939 1.429 . S
C3920 H3944 0.950 . S
C3921 C3938 1.574 . S
C3921 C3940 1.368 . S
C3921 H3945 0.949 . S
H3922 C3926 0.949 . S
C3923 C3924 1.349 . S
C3923 C3925 1.327 . S
C3923 H3946 0.950 . S
C3924 C3923 1.349 . S
C3924 C3936 1.349 . S
C3925 C3923 1.327 . S
C3925 C3941 1.429 . S
C3925 H3947 0.950 . S
C3926 H3922 0.949 . S
C3926 C3934 1.574 . S
C3926 C3942 1.368 . S
H3927 C3935 0.950 . S
H3928 C3933 0.950 . S
H3929 C3934 0.949 . S
H3930 C3936 0.950 . S
H3931 C3937 0.950 . S
H3932 C3938 0.949 . S
C3933 H3928 0.950 . S
C3933 C3935 1.327 . S
C3933 C3939 1.429 . S
C3934 C3926 1.574 . S
C3934 H3929 0.949 . S
C3934 C3940 1.368 . S
C3935 C3919 1.349 . S
C3935 H3927 0.950 . S
C3935 C3933 1.327 . S
C3936 C3924 1.349 . S
C3936 H3930 0.950 . S
C3936 C3937 1.327 . S
C3937 H3931 0.950 . S
C3937 C3936 1.327 . S
C3937 C3941 1.429 . S
C3938 C3921 1.574 . S
C3938 H3932 0.949 . S
C3938 C3942 1.368 . S
C3939 C3920 1.429 . S
C3939 C3933 1.429 . S
C3939 C3940 1.523 . S
C3940 C3921 1.368 . S
C3940 C3934 1.368 . S
C3940 C3939 1.523 . S
C3941 C3925 1.429 . S
C3941 C3937 1.429 . S
C3941 C3942 1.523 . S
C3942 C3926 1.368 . S
C3942 C3938 1.368 . S
C3942 C3941 1.523 . S
H3943 C3918 0.950 . S
H3944 C3920 0.950 . S
H3945 C3921 0.949 . S
H3946 C3923 0.950 . S
H3947 C3925 0.950 . S
C3948 C3949 1.349 . S
C3948 C3950 1.327 . S
C3948 H3973 0.950 . S
C3949 C3948 1.349 . S
C3949 C3965 1.349 . S
C3950 C3948 1.327 . S
C3950 C3969 1.429 . S
C3950 H3974 0.950 . S
C3951 C3968 1.574 . S
C3951 C3970 1.368 . S
C3951 H3975 0.949 . S
H3952 C3956 0.949 . S
C3953 C3954 1.349 . S
C3953 C3955 1.327 . S
C3953 H3976 0.950 . S
C3954 C3953 1.349 . S
C3954 C3966 1.349 . S
C3955 C3953 1.327 . S
C3955 C3971 1.429 . S
C3955 H3977 0.950 . S
C3956 H3952 0.949 . S
C3956 C3964 1.574 . S
C3956 C3972 1.368 . S
H3957 C3965 0.950 . S
H3958 C3963 0.950 . S
H3959 C3964 0.949 . S
H3960 C3966 0.950 . S
H3961 C3967 0.950 . S
H3962 C3968 0.949 . S
C3963 H3958 0.950 . S
C3963 C3965 1.327 . S
C3963 C3969 1.429 . S
C3964 C3956 1.574 . S
C3964 H3959 0.949 . S
C3964 C3970 1.368 . S
C3965 C3949 1.349 . S
C3965 H3957 0.950 . S
C3965 C3963 1.327 . S
C3966 C3954 1.349 . S
C3966 H3960 0.950 . S
C3966 C3967 1.327 . S
C3967 H3961 0.950 . S
C3967 C3966 1.327 . S
C3967 C3971 1.429 . S
C3968 C3951 1.574 . S
C3968 H3962 0.949 . S
C3968 C3972 1.368 . S
C3969 C3950 1.429 . S
C3969 C3963 1.429 . S
C3969 C3970 1.523 . S
C3970 C3951 1.368 . S
C3970 C3964 1.368 . S
C3970 C3969 1.523 . S
C3971 C3955 1.429 . S
C3971 C3967 1.429 . S
C3971 C3972 1.523 . S
C3972 C3956 1.368 . S
C3972 C3968 1.368 . S
C3972 C3971 1.523 . S
H3973 C3948 0.950 . S
H3974 C3950 0.950 . S
H3975 C3951 0.949 . S
H3976 C3953 0.950 . S
H3977 C3955 0.950 . S
C3978 C3979 1.349 . S
C3978 C3980 1.327 . S
C3978 H4003 0.950 . S
C3979 C3978 1.349 . S
C3979 C3995 1.349 . S
C3980 C3978 1.327 . S
C3980 C3999 1.429 . S
C3980 H4004 0.950 . S
C3981 C3998 1.574 . S
C3981 C4000 1.368 . S
C3981 H4005 0.949 . S
H3982 C3986 0.949 . S
C3983 C3984 1.349 . S
C3983 C3985 1.327 . S
C3983 H4006 0.950 . S
C3984 C3983 1.349 . S
C3984 C3996 1.349 . S
C3985 C3983 1.327 . S
C3985 C4001 1.429 . S
C3985 H4007 0.950 . S
C3986 H3982 0.949 . S
C3986 C3994 1.574 . S
C3986 C4002 1.368 . S
H3987 C3995 0.950 . S
H3988 C3993 0.950 . S
H3989 C3994 0.949 . S
H3990 C3996 0.950 . S
H3991 C3997 0.950 . S
H3992 C3998 0.949 . S
C3993 H3988 0.950 . S
C3993 C3995 1.327 . S
C3993 C3999 1.429 . S
C3994 C3986 1.574 . S
C3994 H3989 0.949 . S
C3994 C4000 1.368 . S
C3995 C3979 1.349 . S
C3995 H3987 0.950 . S
C3995 C3993 1.327 . S
C3996 C3984 1.349 . S
C3996 H3990 0.950 . S
C3996 C3997 1.327 . S
C3997 H3991 0.950 . S
C3997 C3996 1.327 . S
C3997 C4001 1.429 . S
C3998 C3981 1.574 . S
C3998 H3992 0.949 . S
C3998 C4002 1.368 . S
C3999 C3980 1.429 . S
C3999 C3993 1.429 . S
C3999 C4000 1.523 . S
C4000 C3981 1.368 . S
C4000 C3994 1.368 . S
C4000 C3999 1.523 . S
C4001 C3985 1.429 . S
C4001 C3997 1.429 . S
C4001 C4002 1.523 . S
C4002 C3986 1.368 . S
C4002 C3998 1.368 . S
C4002 C4001 1.523 . S
H4003 C3978 0.950 . S
H4004 C3980 0.950 . S
H4005 C3981 0.949 . S
H4006 C3983 0.950 . S
H4007 C3985 0.950 . S
C4008 C4009 1.349 . S
C4008 C4010 1.327 . S
C4008 H4033 0.950 . S
C4009 C4008 1.349 . S
C4009 C4025 1.349 . S
C4010 C4008 1.327 . S
C4010 C4029 1.429 . S
C4010 H4034 0.950 . S
C4011 C4028 1.574 . S
C4011 C4030 1.368 . S
C4011 H4035 0.949 . S
H4012 C4016 0.949 . S
C4013 C4014 1.349 . S
C4013 C4015 1.327 . S
C4013 H4036 0.950 . S
C4014 C4013 1.349 . S
C4014 C4026 1.349 . S
C4015 C4013 1.327 . S
C4015 C4031 1.429 . S
C4015 H4037 0.950 . S
C4016 H4012 0.949 . S
C4016 C4024 1.574 . S
C4016 C4032 1.368 . S
H4017 C4025 0.950 . S
H4018 C4023 0.950 . S
H4019 C4024 0.949 . S
H4020 C4026 0.950 . S
H4021 C4027 0.950 . S
H4022 C4028 0.949 . S
C4023 H4018 0.950 . S
C4023 C4025 1.327 . S
C4023 C4029 1.429 . S
C4024 C4016 1.574 . S
C4024 H4019 0.949 . S
C4024 C4030 1.368 . S
C4025 C4009 1.349 . S
C4025 H4017 0.950 . S
C4025 C4023 1.327 . S
C4026 C4014 1.349 . S
C4026 H4020 0.950 . S
C4026 C4027 1.327 . S
C4027 H4021 0.950 . S
C4027 C4026 1.327 . S
C4027 C4031 1.429 . S
C4028 C4011 1.574 . S
C4028 H4022 0.949 . S
C4028 C4032 1.368 . S
C4029 C4010 1.429 . S
C4029 C4023 1.429 . S
C4029 C4030 1.523 . S
C4030 C4011 1.368 . S
C4030 C4024 1.368 . S
C4030 C4029 1.523 . S
C4031 C4015 1.429 . S
C4031 C4027 1.429 . S
C4031 C4032 1.523 . S
C4032 C4016 1.368 . S
C4032 C4028 1.368 . S
C4032 C4031 1.523 . S
H4033 C4008 0.950 . S
H4034 C4010 0.950 . S
H4035 C4011 0.949 . S
H4036 C4013 0.950 . S
H4037 C4015 0.950 . S
C4038 C4039 1.349 . S
C4038 C4040 1.327 . S
C4038 H4063 0.950 . S
C4039 C4038 1.349 . S
C4039 C4055 1.349 . S
C4040 C4038 1.327 . S
C4040 C4059 1.429 . S
C4040 H4064 0.950 . S
C4041 C4058 1.574 . S
C4041 C4060 1.368 . S
C4041 H4065 0.949 . S
H4042 C4046 0.949 . S
C4043 C4044 1.349 . S
C4043 C4045 1.327 . S
C4043 H4066 0.950 . S
C4044 C4043 1.349 . S
C4044 C4056 1.349 . S
C4045 C4043 1.327 . S
C4045 C4061 1.429 . S
C4045 H4067 0.950 . S
C4046 H4042 0.949 . S
C4046 C4054 1.574 . S
C4046 C4062 1.368 . S
H4047 C4055 0.950 . S
H4048 C4053 0.950 . S
H4049 C4054 0.949 . S
H4050 C4056 0.950 . S
H4051 C4057 0.950 . S
H4052 C4058 0.949 . S
C4053 H4048 0.950 . S
C4053 C4055 1.327 . S
C4053 C4059 1.429 . S
C4054 C4046 1.574 . S
C4054 H4049 0.949 . S
C4054 C4060 1.368 . S
C4055 C4039 1.349 . S
C4055 H4047 0.950 . S
C4055 C4053 1.327 . S
C4056 C4044 1.349 . S
C4056 H4050 0.950 . S
C4056 C4057 1.327 . S
C4057 H4051 0.950 . S
C4057 C4056 1.327 . S
C4057 C4061 1.429 . S
C4058 C4041 1.574 . S
C4058 H4052 0.949 . S
C4058 C4062 1.368 . S
C4059 C4040 1.429 . S
C4059 C4053 1.429 . S
C4059 C4060 1.523 . S
C4060 C4041 1.368 . S
C4060 C4054 1.368 . S
C4060 C4059 1.523 . S
C4061 C4045 1.429 . S
C4061 C4057 1.429 . S
C4061 C4062 1.523 . S
C4062 C4046 1.368 . S
C4062 C4058 1.368 . S
C4062 C4061 1.523 . S
H4063 C4038 0.950 . S
H4064 C4040 0.950 . S
H4065 C4041 0.949 . S
H4066 C4043 0.950 . S
H4067 C4045 0.950 . S
C4068 C4069 1.349 . S
C4068 C4070 1.327 . S
C4068 H4093 0.950 . S
C4069 C4068 1.349 . S
C4069 C4085 1.349 . S
C4070 C4068 1.327 . S
C4070 C4089 1.429 . S
C4070 H4094 0.950 . S
C4071 C4088 1.574 . S
C4071 C4090 1.368 . S
C4071 H4095 0.949 . S
H4072 C4076 0.949 . S
C4073 C4074 1.349 . S
C4073 C4075 1.327 . S
C4073 H4096 0.950 . S
C4074 C4073 1.349 . S
C4074 C4086 1.349 . S
C4075 C4073 1.327 . S
C4075 C4091 1.429 . S
C4075 H4097 0.950 . S
C4076 H4072 0.949 . S
C4076 C4084 1.574 . S
C4076 C4092 1.368 . S
H4077 C4085 0.950 . S
H4078 C4083 0.950 . S
H4079 C4084 0.949 . S
H4080 C4086 0.950 . S
H4081 C4087 0.950 . S
H4082 C4088 0.949 . S
C4083 H4078 0.950 . S
C4083 C4085 1.327 . S
C4083 C4089 1.429 . S
C4084 C4076 1.574 . S
C4084 H4079 0.949 . S
C4084 C4090 1.368 . S
C4085 C4069 1.349 . S
C4085 H4077 0.950 . S
C4085 C4083 1.327 . S
C4086 C4074 1.349 . S
C4086 H4080 0.950 . S
C4086 C4087 1.327 . S
C4087 H4081 0.950 . S
C4087 C4086 1.327 . S
C4087 C4091 1.429 . S
C4088 C4071 1.574 . S
C4088 H4082 0.949 . S
C4088 C4092 1.368 . S
C4089 C4070 1.429 . S
C4089 C4083 1.429 . S
C4089 C4090 1.523 . S
C4090 C4071 1.368 . S
C4090 C4084 1.368 . S
C4090 C4089 1.523 . S
C4091 C4075 1.429 . S
C4091 C4087 1.429 . S
C4091 C4092 1.523 . S
C4092 C4076 1.368 . S
C4092 C4088 1.368 . S
C4092 C4091 1.523 . S
H4093 C4068 0.950 . S
H4094 C4070 0.950 . S
H4095 C4071 0.949 . S
H4096 C4073 0.950 . S
H4097 C4075 0.950 . S
C4098 C4099 1.349 . S
C4098 C4100 1.327 . S
C4098 H4123 0.950 . S
C4099 C4098 1.349 . S
C4099 C4115 1.349 . S
C4100 C4098 1.327 . S
C4100 C4119 1.429 . S
C4100 H4124 0.950 . S
C4101 C4118 1.574 . S
C4101 C4120 1.368 . S
C4101 H4125 0.949 . S
H4102 C4106 0.949 . S
C4103 C4104 1.349 . S
C4103 C4105 1.327 . S
C4103 H4126 0.950 . S
C4104 C4103 1.349 . S
C4104 C4116 1.349 . S
C4105 C4103 1.327 . S
C4105 C4121 1.429 . S
C4105 H4127 0.950 . S
C4106 H4102 0.949 . S
C4106 C4114 1.574 . S
C4106 C4122 1.368 . S
H4107 C4115 0.950 . S
H4108 C4113 0.950 . S
H4109 C4114 0.949 . S
H4110 C4116 0.950 . S
H4111 C4117 0.950 . S
H4112 C4118 0.949 . S
C4113 H4108 0.950 . S
C4113 C4115 1.327 . S
C4113 C4119 1.429 . S
C4114 C4106 1.574 . S
C4114 H4109 0.949 . S
C4114 C4120 1.368 . S
C4115 C4099 1.349 . S
C4115 H4107 0.950 . S
C4115 C4113 1.327 . S
C4116 C4104 1.349 . S
C4116 H4110 0.950 . S
C4116 C4117 1.327 . S
C4117 H4111 0.950 . S
C4117 C4116 1.327 . S
C4117 C4121 1.429 . S
C4118 C4101 1.574 . S
C4118 H4112 0.949 . S
C4118 C4122 1.368 . S
C4119 C4100 1.429 . S
C4119 C4113 1.429 . S
C4119 C4120 1.523 . S
C4120 C4101 1.368 . S
C4120 C4114 1.368 . S
C4120 C4119 1.523 . S
C4121 C4105 1.429 . S
C4121 C4117 1.429 . S
C4121 C4122 1.523 . S
C4122 C4106 1.368 . S
C4122 C4118 1.368 . S
C4122 C4121 1.523 . S
H4123 C4098 0.950 . S
H4124 C4100 0.950 . S
H4125 C4101 0.949 . S
H4126 C4103 0.950 . S
H4127 C4105 0.950 . S
C4128 C4129 1.349 . S
C4128 C4130 1.327 . S
C4128 H4153 0.950 . S
C4129 C4128 1.349 . S
C4129 C4145 1.349 . S
C4130 C4128 1.327 . S
C4130 C4149 1.429 . S
C4130 H4154 0.950 . S
C4131 C4148 1.574 . S
C4131 C4150 1.368 1_545 S
C4131 H4155 0.949 . S
H4132 C4136 0.949 . S
C4133 C4134 1.349 . S
C4133 C4135 1.327 . S
C4133 H4156 0.950 . S
C4134 C4133 1.349 . S
C4134 C4146 1.349 . S
C4135 C4133 1.327 . S
C4135 C4151 1.429 . S
C4135 H4157 0.950 . S
C4136 H4132 0.949 . S
C4136 C4144 1.574 . S
C4136 C4152 1.368 1_565 S
H4137 C4145 0.950 1_545 S
H4138 C4143 0.995 . S
H4139 C4144 0.949 . S
H4140 C4146 0.950 1_565 S
H4141 C4147 0.950 . S
H4142 C4148 0.949 . S
C4143 H4138 0.995 . S
C4143 C4145 1.314 1_545 S
C4143 C4149 1.399 1_545 S
C4144 C4136 1.574 . S
C4144 H4139 0.949 . S
C4144 C4150 1.368 . S
C4145 C4129 1.349 . S
C4145 H4137 0.950 1_565 S
C4145 C4143 1.314 1_565 S
C4146 C4134 1.349 . S
C4146 H4140 0.950 1_545 S
C4146 C4147 1.327 1_545 S
C4147 H4141 0.950 . S
C4147 C4146 1.327 1_565 S
C4147 C4151 1.429 1_565 S
C4148 C4131 1.574 . S
C4148 H4142 0.949 . S
C4148 C4152 1.368 . S
C4149 C4130 1.429 . S
C4149 C4143 1.399 1_565 S
C4149 C4150 1.523 . S
C4150 C4131 1.368 1_565 S
C4150 C4144 1.368 . S
C4150 C4149 1.523 . S
C4151 C4135 1.429 . S
C4151 C4147 1.429 1_545 S
C4151 C4152 1.523 . S
C4152 C4136 1.368 1_545 S
C4152 C4148 1.368 . S
C4152 C4151 1.523 . S
H4153 C4128 0.950 . S
H4154 C4130 0.950 . S
H4155 C4131 0.949 . S
H4156 C4133 0.950 . S
H4157 C4135 0.950 . S
C4158 C4159 1.349 . S
C4158 C4160 1.327 . S
C4158 H4183 0.950 . S
C4159 C4158 1.349 . S
C4159 C4175 1.349 . S
C4160 C4158 1.327 . S
C4160 C4179 1.429 . S
C4160 H4184 0.950 . S
C4161 C4178 1.574 . S
C4161 C4180 1.368 . S
C4161 H4185 0.949 . S
H4162 C4166 0.949 . S
C4163 C4164 1.349 . S
C4163 C4165 1.327 . S
C4163 H4186 0.950 . S
C4164 C4163 1.349 . S
C4164 C4176 1.349 . S
C4165 C4163 1.327 . S
C4165 C4181 1.429 . S
C4165 H4187 0.950 . S
C4166 H4162 0.949 . S
C4166 C4174 1.574 . S
C4166 C4182 1.368 . S
H4167 C4175 0.950 . S
H4168 C4173 0.950 . S
H4169 C4174 0.949 . S
H4170 C4176 0.950 . S
H4171 C4177 0.950 . S
H4172 C4178 0.949 . S
C4173 H4168 0.950 . S
C4173 C4175 1.327 . S
C4173 C4179 1.429 . S
C4174 C4166 1.574 . S
C4174 H4169 0.949 . S
C4174 C4180 1.368 . S
C4175 C4159 1.349 . S
C4175 H4167 0.950 . S
C4175 C4173 1.327 . S
C4176 C4164 1.349 . S
C4176 H4170 0.950 . S
C4176 C4177 1.327 . S
C4177 H4171 0.950 . S
C4177 C4176 1.327 . S
C4177 C4181 1.429 . S
C4178 C4161 1.574 . S
C4178 H4172 0.949 . S
C4178 C4182 1.368 . S
C4179 C4160 1.429 . S
C4179 C4173 1.429 . S
C4179 C4180 1.523 . S
C4180 C4161 1.368 . S
C4180 C4174 1.368 . S
C4180 C4179 1.523 . S
C4181 C4165 1.429 . S
C4181 C4177 1.429 . S
C4181 C4182 1.523 . S
C4182 C4166 1.368 . S
C4182 C4178 1.368 . S
C4182 C4181 1.523 . S
H4183 C4158 0.950 . S
H4184 C4160 0.950 . S
H4185 C4161 0.949 . S
H4186 C4163 0.950 . S
H4187 C4165 0.950 . S
C4188 C4189 1.349 . S
C4188 C4190 1.327 . S
C4188 H4213 0.950 . S
C4189 C4188 1.349 . S
C4189 C4205 1.349 . S
C4190 C4188 1.327 . S
C4190 C4209 1.429 . S
C4190 H4214 0.950 . S
C4191 C4208 1.574 . S
C4191 C4210 1.368 . S
C4191 H4215 0.949 . S
H4192 C4196 0.949 . S
C4193 C4194 1.349 . S
C4193 C4195 1.327 . S
C4193 H4216 0.950 . S
C4194 C4193 1.349 . S
C4194 C4206 1.349 . S
C4195 C4193 1.327 . S
C4195 C4211 1.429 . S
C4195 H4217 0.950 . S
C4196 H4192 0.949 . S
C4196 C4204 1.574 . S
C4196 C4212 1.368 . S
H4197 C4205 0.950 . S
H4198 C4203 0.950 . S
H4199 C4204 0.949 . S
H4200 C4206 0.950 . S
H4201 C4207 0.950 . S
H4202 C4208 0.949 . S
C4203 H4198 0.950 . S
C4203 C4205 1.327 . S
C4203 C4209 1.429 . S
C4204 C4196 1.574 . S
C4204 H4199 0.949 . S
C4204 C4210 1.368 . S
C4205 C4189 1.349 . S
C4205 H4197 0.950 . S
C4205 C4203 1.327 . S
C4206 C4194 1.349 . S
C4206 H4200 0.950 . S
C4206 C4207 1.327 . S
C4207 H4201 0.950 . S
C4207 C4206 1.327 . S
C4207 C4211 1.429 . S
C4208 C4191 1.574 . S
C4208 H4202 0.949 . S
C4208 C4212 1.368 . S
C4209 C4190 1.429 . S
C4209 C4203 1.429 . S
C4209 C4210 1.523 . S
C4210 C4191 1.368 . S
C4210 C4204 1.368 . S
C4210 C4209 1.523 . S
C4211 C4195 1.429 . S
C4211 C4207 1.429 . S
C4211 C4212 1.523 . S
C4212 C4196 1.368 . S
C4212 C4208 1.368 . S
C4212 C4211 1.523 . S
H4213 C4188 0.950 . S
H4214 C4190 0.950 . S
H4215 C4191 0.949 . S
H4216 C4193 0.950 . S
H4217 C4195 0.950 . S
C4218 C4219 1.349 . S
C4218 C4220 1.327 . S
C4218 H4243 0.950 . S
C4219 C4218 1.349 . S
C4219 C4235 1.349 . S
C4220 C4218 1.327 . S
C4220 C4239 1.429 . S
C4220 H4244 0.950 . S
C4221 C4238 1.574 . S
C4221 C4240 1.368 . S
C4221 H4245 0.949 . S
H4222 C4226 0.949 . S
C4223 C4224 1.349 . S
C4223 C4225 1.327 . S
C4223 H4246 0.950 . S
C4224 C4223 1.349 . S
C4224 C4236 1.349 . S
C4225 C4223 1.327 . S
C4225 C4241 1.429 . S
C4225 H4247 0.950 . S
C4226 H4222 0.949 . S
C4226 C4234 1.574 . S
C4226 C4242 1.368 . S
H4227 C4235 0.950 . S
H4228 C4233 0.950 . S
H4229 C4234 0.949 . S
H4230 C4236 0.950 . S
H4231 C4237 0.950 . S
H4232 C4238 0.949 . S
C4233 H4228 0.950 . S
C4233 C4235 1.327 . S
C4233 C4239 1.429 . S
C4234 C4226 1.574 . S
C4234 H4229 0.949 . S
C4234 C4240 1.368 . S
C4235 C4219 1.349 . S
C4235 H4227 0.950 . S
C4235 C4233 1.327 . S
C4236 C4224 1.349 . S
C4236 H4230 0.950 . S
C4236 C4237 1.327 . S
C4237 H4231 0.950 . S
C4237 C4236 1.327 . S
C4237 C4241 1.429 . S
C4238 C4221 1.574 . S
C4238 H4232 0.949 . S
C4238 C4242 1.368 . S
C4239 C4220 1.429 . S
C4239 C4233 1.429 . S
C4239 C4240 1.523 . S
C4240 C4221 1.368 . S
C4240 C4234 1.368 . S
C4240 C4239 1.523 . S
C4241 C4225 1.429 . S
C4241 C4237 1.429 . S
C4241 C4242 1.523 . S
C4242 C4226 1.368 . S
C4242 C4238 1.368 . S
C4242 C4241 1.523 . S
H4243 C4218 0.950 . S
H4244 C4220 0.950 . S
H4245 C4221 0.949 . S
H4246 C4223 0.950 . S
H4247 C4225 0.950 . S
C4248 C4249 1.349 . S
C4248 C4250 1.327 . S
C4248 H4273 0.950 . S
C4249 C4248 1.349 . S
C4249 C4265 1.349 . S
C4250 C4248 1.327 . S
C4250 C4269 1.429 . S
C4250 H4274 0.950 . S
C4251 C4268 1.574 . S
C4251 C4270 1.368 1_556 S
C4251 H4275 0.949 . S
H4252 C4256 0.949 . S
C4253 C4254 1.349 . S
C4253 C4255 1.327 . S
C4253 H4276 0.950 . S
C4254 C4253 1.349 . S
C4254 C4266 1.349 . S
C4255 C4253 1.327 . S
C4255 C4271 1.429 . S
C4255 H4277 0.950 . S
C4256 H4252 0.949 . S
C4256 C4264 1.574 . S
C4256 C4272 1.368 1_554 S
H4257 C4265 0.950 1_556 S
H4258 C4263 0.950 . S
H4259 C4264 0.949 . S
H4260 C4266 0.950 1_554 S
H4261 C4267 1.002 . S
H4262 C4268 0.949 . S
C4263 H4258 0.950 . S
C4263 C4265 1.327 1_556 S
C4263 C4269 1.429 1_556 S
C4264 C4256 1.574 . S
C4264 H4259 0.949 . S
C4264 C4270 1.368 . S
C4265 C4249 1.349 . S
C4265 H4257 0.950 1_554 S
C4265 C4263 1.327 1_554 S
C4266 C4254 1.349 . S
C4266 H4260 0.950 1_556 S
C4266 C4267 1.312 1_556 S
C4267 H4261 1.002 . S
C4267 C4266 1.312 1_554 S
C4267 C4271 1.394 1_554 S
C4268 C4251 1.574 . S
C4268 H4262 0.949 . S
C4268 C4272 1.368 . S
C4269 C4250 1.429 . S
C4269 C4263 1.429 1_554 S
C4269 C4270 1.523 . S
C4270 C4251 1.368 1_554 S
C4270 C4264 1.368 . S
C4270 C4269 1.523 . S
C4271 C4255 1.429 . S
C4271 C4267 1.394 1_556 S
C4271 C4272 1.523 . S
C4272 C4256 1.368 1_556 S
C4272 C4268 1.368 . S
C4272 C4271 1.523 . S
H4273 C4248 0.950 . S
H4274 C4250 0.950 . S
H4275 C4251 0.949 . S
H4276 C4253 0.950 . S
H4277 C4255 0.950 . S
C4278 C4279 1.349 . S
C4278 C4280 1.327 . S
C4278 H4303 0.950 . S
C4279 C4278 1.349 . S
C4279 C4295 1.349 . S
C4280 C4278 1.327 . S
C4280 C4299 1.429 . S
C4280 H4304 0.950 . S
C4281 C4298 1.574 . S
C4281 C4300 1.368 . S
C4281 H4305 0.949 . S
H4282 C4286 0.949 . S
C4283 C4284 1.349 . S
C4283 C4285 1.327 . S
C4283 H4306 0.950 . S
C4284 C4283 1.349 . S
C4284 C4296 1.349 . S
C4285 C4283 1.327 . S
C4285 C4301 1.429 . S
C4285 H4307 0.950 . S
C4286 H4282 0.949 . S
C4286 C4294 1.574 . S
C4286 C4302 1.368 . S
H4287 C4295 0.950 . S
H4288 C4293 0.950 . S
H4289 C4294 0.949 . S
H4290 C4296 0.950 . S
H4291 C4297 0.950 . S
H4292 C4298 0.949 . S
C4293 H4288 0.950 . S
C4293 C4295 1.327 . S
C4293 C4299 1.429 . S
C4294 C4286 1.574 . S
C4294 H4289 0.949 . S
C4294 C4300 1.368 . S
C4295 C4279 1.349 . S
C4295 H4287 0.950 . S
C4295 C4293 1.327 . S
C4296 C4284 1.349 . S
C4296 H4290 0.950 . S
C4296 C4297 1.327 . S
C4297 H4291 0.950 . S
C4297 C4296 1.327 . S
C4297 C4301 1.429 . S
C4298 C4281 1.574 . S
C4298 H4292 0.949 . S
C4298 C4302 1.368 . S
C4299 C4280 1.429 . S
C4299 C4293 1.429 . S
C4299 C4300 1.523 . S
C4300 C4281 1.368 . S
C4300 C4294 1.368 . S
C4300 C4299 1.523 . S
C4301 C4285 1.429 . S
C4301 C4297 1.429 . S
C4301 C4302 1.523 . S
C4302 C4286 1.368 . S
C4302 C4298 1.368 . S
C4302 C4301 1.523 . S
H4303 C4278 0.950 . S
H4304 C4280 0.950 . S
H4305 C4281 0.949 . S
H4306 C4283 0.950 . S
H4307 C4285 0.950 . S
C4308 C4309 1.349 . S
C4308 C4310 1.327 . S
C4308 H4333 0.950 . S
C4309 C4308 1.349 . S
C4309 C4325 1.349 . S
C4310 C4308 1.327 . S
C4310 C4329 1.429 . S
C4310 H4334 0.950 . S
C4311 C4328 1.574 . S
C4311 C4330 1.368 . S
C4311 H4335 0.949 . S
H4312 C4316 0.949 . S
C4313 C4314 1.349 . S
C4313 C4315 1.327 . S
C4313 H4336 0.950 . S
C4314 C4313 1.349 . S
C4314 C4326 1.349 . S
C4315 C4313 1.327 . S
C4315 C4331 1.429 . S
C4315 H4337 0.950 . S
C4316 H4312 0.949 . S
C4316 C4324 1.574 . S
C4316 C4332 1.368 . S
H4317 C4325 0.950 . S
H4318 C4323 0.950 . S
H4319 C4324 0.949 . S
H4320 C4326 0.950 . S
H4321 C4327 0.950 . S
H4322 C4328 0.949 . S
C4323 H4318 0.950 . S
C4323 C4325 1.327 . S
C4323 C4329 1.429 . S
C4324 C4316 1.574 . S
C4324 H4319 0.949 . S
C4324 C4330 1.368 . S
C4325 C4309 1.349 . S
C4325 H4317 0.950 . S
C4325 C4323 1.327 . S
C4326 C4314 1.349 . S
C4326 H4320 0.950 . S
C4326 C4327 1.327 . S
C4327 H4321 0.950 . S
C4327 C4326 1.327 . S
C4327 C4331 1.429 . S
C4328 C4311 1.574 . S
C4328 H4322 0.949 . S
C4328 C4332 1.368 . S
C4329 C4310 1.429 . S
C4329 C4323 1.429 . S
C4329 C4330 1.523 . S
C4330 C4311 1.368 . S
C4330 C4324 1.368 . S
C4330 C4329 1.523 . S
C4331 C4315 1.429 . S
C4331 C4327 1.429 . S
C4331 C4332 1.523 . S
C4332 C4316 1.368 . S
C4332 C4328 1.368 . S
C4332 C4331 1.523 . S
H4333 C4308 0.950 . S
H4334 C4310 0.950 . S
H4335 C4311 0.949 . S
H4336 C4313 0.950 . S
H4337 C4315 0.950 . S
C4338 C4339 1.349 . S
C4338 C4340 1.327 . S
C4338 H4363 0.950 . S
C4339 C4338 1.349 . S
C4339 C4355 1.349 . S
C4340 C4338 1.327 . S
C4340 C4359 1.429 . S
C4340 H4364 0.950 . S
C4341 C4358 1.574 . S
C4341 C4360 1.368 . S
C4341 H4365 0.949 . S
H4342 C4346 0.949 . S
C4343 C4344 1.349 . S
C4343 C4345 1.327 . S
C4343 H4366 0.950 . S
C4344 C4343 1.349 . S
C4344 C4356 1.349 . S
C4345 C4343 1.327 . S
C4345 C4361 1.429 . S
C4345 H4367 0.950 . S
C4346 H4342 0.949 . S
C4346 C4354 1.574 . S
C4346 C4362 1.368 . S
H4347 C4355 0.950 . S
H4348 C4353 0.950 . S
H4349 C4354 0.949 . S
H4350 C4356 0.950 . S
H4351 C4357 0.950 . S
H4352 C4358 0.949 . S
C4353 H4348 0.950 . S
C4353 C4355 1.327 . S
C4353 C4359 1.429 . S
C4354 C4346 1.574 . S
C4354 H4349 0.949 . S
C4354 C4360 1.368 . S
C4355 C4339 1.349 . S
C4355 H4347 0.950 . S
C4355 C4353 1.327 . S
C4356 C4344 1.349 . S
C4356 H4350 0.950 . S
C4356 C4357 1.327 . S
C4357 H4351 0.950 . S
C4357 C4356 1.327 . S
C4357 C4361 1.429 . S
C4358 C4341 1.574 . S
C4358 H4352 0.949 . S
C4358 C4362 1.368 . S
C4359 C4340 1.429 . S
C4359 C4353 1.429 . S
C4359 C4360 1.523 . S
C4360 C4341 1.368 . S
C4360 C4354 1.368 . S
C4360 C4359 1.523 . S
C4361 C4345 1.429 . S
C4361 C4357 1.429 . S
C4361 C4362 1.523 . S
C4362 C4346 1.368 . S
C4362 C4358 1.368 . S
C4362 C4361 1.523 . S
H4363 C4338 0.950 . S
H4364 C4340 0.950 . S
H4365 C4341 0.949 . S
H4366 C4343 0.950 . S
H4367 C4345 0.950 . S
C4368 C4369 1.349 . S
C4368 C4370 1.327 . S
C4368 H4393 0.950 . S
C4369 C4368 1.349 . S
C4369 C4385 1.349 . S
C4370 C4368 1.327 . S
C4370 C4389 1.429 . S
C4370 H4394 0.950 . S
C4371 C4388 1.574 . S
C4371 C4390 1.368 . S
C4371 H4395 0.949 . S
H4372 C4376 0.949 . S
C4373 C4374 1.349 . S
C4373 C4375 1.327 . S
C4373 H4396 0.950 . S
C4374 C4373 1.349 . S
C4374 C4386 1.349 . S
C4375 C4373 1.327 . S
C4375 C4391 1.429 . S
C4375 H4397 0.950 . S
C4376 H4372 0.949 . S
C4376 C4384 1.574 . S
C4376 C4392 1.368 . S
H4377 C4385 0.950 . S
H4378 C4383 0.950 . S
H4379 C4384 0.949 . S
H4380 C4386 0.950 . S
H4381 C4387 0.950 . S
H4382 C4388 0.949 . S
C4383 H4378 0.950 . S
C4383 C4385 1.327 . S
C4383 C4389 1.429 . S
C4384 C4376 1.574 . S
C4384 H4379 0.949 . S
C4384 C4390 1.368 . S
C4385 C4369 1.349 . S
C4385 H4377 0.950 . S
C4385 C4383 1.327 . S
C4386 C4374 1.349 . S
C4386 H4380 0.950 . S
C4386 C4387 1.327 . S
C4387 H4381 0.950 . S
C4387 C4386 1.327 . S
C4387 C4391 1.429 . S
C4388 C4371 1.574 . S
C4388 H4382 0.949 . S
C4388 C4392 1.368 . S
C4389 C4370 1.429 . S
C4389 C4383 1.429 . S
C4389 C4390 1.523 . S
C4390 C4371 1.368 . S
C4390 C4384 1.368 . S
C4390 C4389 1.523 . S
C4391 C4375 1.429 . S
C4391 C4387 1.429 . S
C4391 C4392 1.523 . S
C4392 C4376 1.368 . S
C4392 C4388 1.368 . S
C4392 C4391 1.523 . S
H4393 C4368 0.950 . S
H4394 C4370 0.950 . S
H4395 C4371 0.949 . S
H4396 C4373 0.950 . S
H4397 C4375 0.950 . S
C4398 C4399 1.349 . S
C4398 C4400 1.327 . S
C4398 H4423 0.950 . S
C4399 C4398 1.349 . S
C4399 C4415 1.349 . S
C4400 C4398 1.327 . S
C4400 C4419 1.429 . S
C4400 H4424 0.950 . S
C4401 C4418 1.574 . S
C4401 C4420 1.368 . S
C4401 H4425 0.949 . S
H4402 C4406 0.949 . S
C4403 C4404 1.349 . S
C4403 C4405 1.327 . S
C4403 H4426 0.950 . S
C4404 C4403 1.349 . S
C4404 C4416 1.349 . S
C4405 C4403 1.327 . S
C4405 C4421 1.429 . S
C4405 H4427 0.950 . S
C4406 H4402 0.949 . S
C4406 C4414 1.574 . S
C4406 C4422 1.368 . S
H4407 C4415 0.950 . S
H4408 C4413 0.950 . S
H4409 C4414 0.949 . S
H4410 C4416 0.950 . S
H4411 C4417 0.950 . S
H4412 C4418 0.949 . S
C4413 H4408 0.950 . S
C4413 C4415 1.327 . S
C4413 C4419 1.429 . S
C4414 C4406 1.574 . S
C4414 H4409 0.949 . S
C4414 C4420 1.368 . S
C4415 C4399 1.349 . S
C4415 H4407 0.950 . S
C4415 C4413 1.327 . S
C4416 C4404 1.349 . S
C4416 H4410 0.950 . S
C4416 C4417 1.327 . S
C4417 H4411 0.950 . S
C4417 C4416 1.327 . S
C4417 C4421 1.429 . S
C4418 C4401 1.574 . S
C4418 H4412 0.949 . S
C4418 C4422 1.368 . S
C4419 C4400 1.429 . S
C4419 C4413 1.429 . S
C4419 C4420 1.523 . S
C4420 C4401 1.368 . S
C4420 C4414 1.368 . S
C4420 C4419 1.523 . S
C4421 C4405 1.429 . S
C4421 C4417 1.429 . S
C4421 C4422 1.523 . S
C4422 C4406 1.368 . S
C4422 C4418 1.368 . S
C4422 C4421 1.523 . S
H4423 C4398 0.950 . S
H4424 C4400 0.950 . S
H4425 C4401 0.949 . S
H4426 C4403 0.950 . S
H4427 C4405 0.950 . S
C4428 C4429 1.349 . S
C4428 C4430 1.327 . S
C4428 H4453 0.950 . S
C4429 C4428 1.349 . S
C4429 C4445 1.349 . S
C4430 C4428 1.327 . S
C4430 C4449 1.429 . S
C4430 H4454 0.950 . S
C4431 C4448 1.574 . S
C4431 C4450 1.368 . S
C4431 H4455 0.949 . S
H4432 C4436 0.949 . S
C4433 C4434 1.349 . S
C4433 C4435 1.327 . S
C4433 H4456 0.950 . S
C4434 C4433 1.349 . S
C4434 C4446 1.349 . S
C4435 C4433 1.327 . S
C4435 C4451 1.429 . S
C4435 H4457 0.950 . S
C4436 H4432 0.949 . S
C4436 C4444 1.574 . S
C4436 C4452 1.368 . S
H4437 C4445 0.950 . S
H4438 C4443 0.950 . S
H4439 C4444 0.949 . S
H4440 C4446 0.950 . S
H4441 C4447 0.950 . S
H4442 C4448 0.949 . S
C4443 H4438 0.950 . S
C4443 C4445 1.327 . S
C4443 C4449 1.429 . S
C4444 C4436 1.574 . S
C4444 H4439 0.949 . S
C4444 C4450 1.368 . S
C4445 C4429 1.349 . S
C4445 H4437 0.950 . S
C4445 C4443 1.327 . S
C4446 C4434 1.349 . S
C4446 H4440 0.950 . S
C4446 C4447 1.327 . S
C4447 H4441 0.950 . S
C4447 C4446 1.327 . S
C4447 C4451 1.429 . S
C4448 C4431 1.574 . S
C4448 H4442 0.949 . S
C4448 C4452 1.368 . S
C4449 C4430 1.429 . S
C4449 C4443 1.429 . S
C4449 C4450 1.523 . S
C4450 C4431 1.368 . S
C4450 C4444 1.368 . S
C4450 C4449 1.523 . S
C4451 C4435 1.429 . S
C4451 C4447 1.429 . S
C4451 C4452 1.523 . S
C4452 C4436 1.368 . S
C4452 C4448 1.368 . S
C4452 C4451 1.523 . S
H4453 C4428 0.950 . S
H4454 C4430 0.950 . S
H4455 C4431 0.949 . S
H4456 C4433 0.950 . S
H4457 C4435 0.950 . S
C4458 C4459 1.349 . S
C4458 C4460 1.327 . S
C4458 H4483 0.950 . S
C4459 C4458 1.349 . S
C4459 C4475 1.349 . S
C4460 C4458 1.327 . S
C4460 C4479 1.429 . S
C4460 H4484 0.950 . S
C4461 C4478 1.574 . S
C4461 C4480 1.368 . S
C4461 H4485 0.949 . S
H4462 C4466 0.949 . S
C4463 C4464 1.349 . S
C4463 C4465 1.327 . S
C4463 H4486 0.950 . S
C4464 C4463 1.349 . S
C4464 C4476 1.349 . S
C4465 C4463 1.327 . S
C4465 C4481 1.429 . S
C4465 H4487 0.950 . S
C4466 H4462 0.949 . S
C4466 C4474 1.574 . S
C4466 C4482 1.368 . S
H4467 C4475 0.950 . S
H4468 C4473 0.950 . S
H4469 C4474 0.949 . S
H4470 C4476 0.950 . S
H4471 C4477 0.950 . S
H4472 C4478 0.949 . S
C4473 H4468 0.950 . S
C4473 C4475 1.327 . S
C4473 C4479 1.429 . S
C4474 C4466 1.574 . S
C4474 H4469 0.949 . S
C4474 C4480 1.368 . S
C4475 C4459 1.349 . S
C4475 H4467 0.950 . S
C4475 C4473 1.327 . S
C4476 C4464 1.349 . S
C4476 H4470 0.950 . S
C4476 C4477 1.327 . S
C4477 H4471 0.950 . S
C4477 C4476 1.327 . S
C4477 C4481 1.429 . S
C4478 C4461 1.574 . S
C4478 H4472 0.949 . S
C4478 C4482 1.368 . S
C4479 C4460 1.429 . S
C4479 C4473 1.429 . S
C4479 C4480 1.523 . S
C4480 C4461 1.368 . S
C4480 C4474 1.368 . S
C4480 C4479 1.523 . S
C4481 C4465 1.429 . S
C4481 C4477 1.429 . S
C4481 C4482 1.523 . S
C4482 C4466 1.368 . S
C4482 C4478 1.368 . S
C4482 C4481 1.523 . S
H4483 C4458 0.950 . S
H4484 C4460 0.950 . S
H4485 C4461 0.949 . S
H4486 C4463 0.950 . S
H4487 C4465 0.950 . S
C4488 C4489 1.349 . S
C4488 C4490 1.327 . S
C4488 H4513 0.950 . S
C4489 C4488 1.349 . S
C4489 C4505 1.349 . S
C4490 C4488 1.327 . S
C4490 C4509 1.429 . S
C4490 H4514 0.950 . S
C4491 C4508 1.574 . S
C4491 C4510 1.368 . S
C4491 H4515 0.949 . S
H4492 C4496 0.949 . S
C4493 C4494 1.349 . S
C4493 C4495 1.327 . S
C4493 H4516 0.950 . S
C4494 C4493 1.349 . S
C4494 C4506 1.349 . S
C4495 C4493 1.327 . S
C4495 C4511 1.429 . S
C4495 H4517 0.950 . S
C4496 H4492 0.949 . S
C4496 C4504 1.574 . S
C4496 C4512 1.368 . S
H4497 C4505 0.950 . S
H4498 C4503 0.950 . S
H4499 C4504 0.949 . S
H4500 C4506 0.950 . S
H4501 C4507 0.950 . S
H4502 C4508 0.949 . S
C4503 H4498 0.950 . S
C4503 C4505 1.327 . S
C4503 C4509 1.429 . S
C4504 C4496 1.574 . S
C4504 H4499 0.949 . S
C4504 C4510 1.368 . S
C4505 C4489 1.349 . S
C4505 H4497 0.950 . S
C4505 C4503 1.327 . S
C4506 C4494 1.349 . S
C4506 H4500 0.950 . S
C4506 C4507 1.327 . S
C4507 H4501 0.950 . S
C4507 C4506 1.327 . S
C4507 C4511 1.429 . S
C4508 C4491 1.574 . S
C4508 H4502 0.949 . S
C4508 C4512 1.368 . S
C4509 C4490 1.429 . S
C4509 C4503 1.429 . S
C4509 C4510 1.523 . S
C4510 C4491 1.368 . S
C4510 C4504 1.368 . S
C4510 C4509 1.523 . S
C4511 C4495 1.429 . S
C4511 C4507 1.429 . S
C4511 C4512 1.523 . S
C4512 C4496 1.368 . S
C4512 C4508 1.368 . S
C4512 C4511 1.523 . S
H4513 C4488 0.950 . S
H4514 C4490 0.950 . S
H4515 C4491 0.949 . S
H4516 C4493 0.950 . S
H4517 C4495 0.950 . S
C4518 C4519 1.349 . S
C4518 C4520 1.327 . S
C4518 H4543 0.950 . S
C4519 C4518 1.349 . S
C4519 C4535 1.349 . S
C4520 C4518 1.327 . S
C4520 C4539 1.429 . S
C4520 H4544 0.950 . S
C4521 C4538 1.574 . S
C4521 C4540 1.368 . S
C4521 H4545 0.949 . S
H4522 C4526 0.949 . S
C4523 C4524 1.349 . S
C4523 C4525 1.327 . S
C4523 H4546 0.950 . S
C4524 C4523 1.349 . S
C4524 C4536 1.349 . S
C4525 C4523 1.327 . S
C4525 C4541 1.429 . S
C4525 H4547 0.950 . S
C4526 H4522 0.949 . S
C4526 C4534 1.574 . S
C4526 C4542 1.368 . S
H4527 C4535 0.950 . S
H4528 C4533 0.950 . S
H4529 C4534 0.949 . S
H4530 C4536 0.950 . S
H4531 C4537 0.950 . S
H4532 C4538 0.949 . S
C4533 H4528 0.950 . S
C4533 C4535 1.327 . S
C4533 C4539 1.429 . S
C4534 C4526 1.574 . S
C4534 H4529 0.949 . S
C4534 C4540 1.368 . S
C4535 C4519 1.349 . S
C4535 H4527 0.950 . S
C4535 C4533 1.327 . S
C4536 C4524 1.349 . S
C4536 H4530 0.950 . S
C4536 C4537 1.327 . S
C4537 H4531 0.950 . S
C4537 C4536 1.327 . S
C4537 C4541 1.429 . S
C4538 C4521 1.574 . S
C4538 H4532 0.949 . S
C4538 C4542 1.368 . S
C4539 C4520 1.429 . S
C4539 C4533 1.429 . S
C4539 C4540 1.523 . S
C4540 C4521 1.368 . S
C4540 C4534 1.368 . S
C4540 C4539 1.523 . S
C4541 C4525 1.429 . S
C4541 C4537 1.429 . S
C4541 C4542 1.523 . S
C4542 C4526 1.368 . S
C4542 C4538 1.368 . S
C4542 C4541 1.523 . S
H4543 C4518 0.950 . S
H4544 C4520 0.950 . S
H4545 C4521 0.949 . S
H4546 C4523 0.950 . S
H4547 C4525 0.950 . S
C4548 C4549 1.349 . S
C4548 C4550 1.327 . S
C4548 H4573 0.950 . S
C4549 C4548 1.349 . S
C4549 C4565 1.349 . S
C4550 C4548 1.327 . S
C4550 C4569 1.429 . S
C4550 H4574 0.950 . S
C4551 C4568 1.574 . S
C4551 C4570 1.368 . S
C4551 H4575 0.949 . S
H4552 C4556 0.949 . S
C4553 C4554 1.349 . S
C4553 C4555 1.327 . S
C4553 H4576 0.950 . S
C4554 C4553 1.349 . S
C4554 C4566 1.349 . S
C4555 C4553 1.327 . S
C4555 C4571 1.429 . S
C4555 H4577 0.950 . S
C4556 H4552 0.949 . S
C4556 C4564 1.574 . S
C4556 C4572 1.368 . S
H4557 C4565 0.950 . S
H4558 C4563 0.950 . S
H4559 C4564 0.949 . S
H4560 C4566 0.950 . S
H4561 C4567 0.950 . S
H4562 C4568 0.949 . S
C4563 H4558 0.950 . S
C4563 C4565 1.327 . S
C4563 C4569 1.429 . S
C4564 C4556 1.574 . S
C4564 H4559 0.949 . S
C4564 C4570 1.368 . S
C4565 C4549 1.349 . S
C4565 H4557 0.950 . S
C4565 C4563 1.327 . S
C4566 C4554 1.349 . S
C4566 H4560 0.950 . S
C4566 C4567 1.327 . S
C4567 H4561 0.950 . S
C4567 C4566 1.327 . S
C4567 C4571 1.429 . S
C4568 C4551 1.574 . S
C4568 H4562 0.949 . S
C4568 C4572 1.368 . S
C4569 C4550 1.429 . S
C4569 C4563 1.429 . S
C4569 C4570 1.523 . S
C4570 C4551 1.368 . S
C4570 C4564 1.368 . S
C4570 C4569 1.523 . S
C4571 C4555 1.429 . S
C4571 C4567 1.429 . S
C4571 C4572 1.523 . S
C4572 C4556 1.368 . S
C4572 C4568 1.368 . S
C4572 C4571 1.523 . S
H4573 C4548 0.950 . S
H4574 C4550 0.950 . S
H4575 C4551 0.949 . S
H4576 C4553 0.950 . S
H4577 C4555 0.950 . S
C4578 C4579 1.349 . S
C4578 C4580 1.327 . S
C4578 H4603 0.950 . S
C4579 C4578 1.349 . S
C4579 C4595 1.349 . S
C4580 C4578 1.327 . S
C4580 C4599 1.429 . S
C4580 H4604 0.950 . S
C4581 C4598 1.574 . S
C4581 C4600 1.368 . S
C4581 H4605 0.949 . S
H4582 C4586 0.949 . S
C4583 C4584 1.349 . S
C4583 C4585 1.327 . S
C4583 H4606 0.950 . S
C4584 C4583 1.349 . S
C4584 C4596 1.349 . S
C4585 C4583 1.327 . S
C4585 C4601 1.429 . S
C4585 H4607 0.950 . S
C4586 H4582 0.949 . S
C4586 C4594 1.574 . S
C4586 C4602 1.368 . S
H4587 C4595 0.950 . S
H4588 C4593 0.950 . S
H4589 C4594 0.949 . S
H4590 C4596 0.950 . S
H4591 C4597 0.950 . S
H4592 C4598 0.949 . S
C4593 H4588 0.950 . S
C4593 C4595 1.327 . S
C4593 C4599 1.429 . S
C4594 C4586 1.574 . S
C4594 H4589 0.949 . S
C4594 C4600 1.368 . S
C4595 C4579 1.349 . S
C4595 H4587 0.950 . S
C4595 C4593 1.327 . S
C4596 C4584 1.349 . S
C4596 H4590 0.950 . S
C4596 C4597 1.327 . S
C4597 H4591 0.950 . S
C4597 C4596 1.327 . S
C4597 C4601 1.429 . S
C4598 C4581 1.574 . S
C4598 H4592 0.949 . S
C4598 C4602 1.368 . S
C4599 C4580 1.429 . S
C4599 C4593 1.429 . S
C4599 C4600 1.523 . S
C4600 C4581 1.368 . S
C4600 C4594 1.368 . S
C4600 C4599 1.523 . S
C4601 C4585 1.429 . S
C4601 C4597 1.429 . S
C4601 C4602 1.523 . S
C4602 C4586 1.368 . S
C4602 C4598 1.368 . S
C4602 C4601 1.523 . S
H4603 C4578 0.950 . S
H4604 C4580 0.950 . S
H4605 C4581 0.949 . S
H4606 C4583 0.950 . S
H4607 C4585 0.950 . S
C1729 C14 0.801 . S
C1734 C950 0.841 . S
C1759 C986 0.886 . S
C1764 C50 0.588 . S
C1789 C86 0.689 . S
C1794 C878 0.774 . S
C1819 C914 0.786 . S
C1824 C122 0.881 . S
C1849 C158 0.603 . S
C1854 C1094 0.862 . S
C1879 C194 0.711 . S
C1884 C1130 1.029 . S
C1909 C230 1.087 . S
C1914 C1022 1.036 . S
C1939 C266 0.561 . S
C1944 C1058 0.892 . S
C1969 C446 0.841 . S
C1974 C302 0.801 . S
C1999 C338 0.871 . S
C2004 C482 0.779 . S
C2029 C518 0.603 . S
C2034 C374 0.862 . S
C2059 C410 0.890 . S
C2064 C554 0.554 . S
C2089 C1562 0.841 . S
C2094 C590 0.801 . S
C2119 C1634 0.603 . S
C2124 C626 0.862 . S
C2149 C806 0.786 . S
C2154 C662 0.881 . S
C2179 C1454 0.774 . S
C2184 C698 0.689 . S
C2209 C1706 0.890 . S
C2214 C734 0.554 . S
C2239 C1490 1.087 . S
C2244 C770 1.036 . S
C2269 C842 0.711 . S
C2274 C1598 1.029 . S
C2299 C1166 0.774 . S
C2304 C1310 0.689 . S
C2329 C1346 0.588 . S
C2334 C1202 0.886 . S
C2359 C1238 1.087 . S
C2364 C1382 1.036 . S
C2389 C1418 1.029 . S
C2394 C1274 0.711 . S
C2419 C1526 0.886 . S
C2424 C1670 0.588 . S
C2449 C2 0.338 . S
C2454 C254 0.596 . S
C2479 C146 0.273 . S
C2484 C38 0.294 . S
C2509 C74 0.270 . S
C2514 C182 0.235 . S
C2539 C110 0.541 . S
C2544 C218 0.897 . S
C2569 C722 0.596 . S
C2574 C290 0.338 . S
C2599 C1478 0.890 . S
C2604 C326 0.552 . S
C2629 C362 0.506 . S
C2634 C1514 0.553 . S
C2659 C398 0.670 . S
C2664 C1550 0.218 . S
C2689 C1694 0.670 . S
C2694 C434 0.218 . S
C2719 C470 0.355 . S
C2724 C758 0.787 . S
C2749 C506 0.273 . S
C2754 C1658 0.295 . S
C2779 C542 0.596 . S
C2784 C578 0.338 . S
C2809 C614 0.506 . S
C2814 C1190 0.553 . S
C2839 C650 0.541 . S
C2844 C1226 0.897 . S
C2869 C1262 0.235 . S
C2874 C686 0.270 . S
C2899 C794 0.355 . S
C2904 C1370 0.787 . S
C2929 C1298 0.270 . S
C2934 C830 0.235 . S
C2959 C1118 0.514 . S
C2964 C866 0.228 . S
C2989 C902 0.355 . S
C2994 C1010 0.787 . S
C3019 C1046 0.670 . S
C3024 C938 0.218 . S
C3049 C974 0.553 . S
C3054 C1082 0.506 . S
C3079 C1154 0.228 . S
C3084 C1586 0.514 . S
C3109 C1622 0.273 . S
C3114 C1334 0.296 . S
C3139 C1442 0.228 . S
C3144 C1406 0.514 . S
C3169 C4 0.630 . S
C3174 C1048 0.294 . S
C3199 C1084 0.658 . S
C3204 C40 0.723 . S
C3229 C76 0.730 . S
C3234 C1120 0.696 . S
C3259 C112 0.812 . S
C3264 C1012 0.884 . S
C3289 C976 0.700 . S
C3294 C148 0.728 . S
C3319 C184 0.804 . S
C3324 C868 0.806 . S
C3349 C904 0.907 . S
C3354 C220 1.081 . S
C3379 C256 0.706 . S
C3384 C940 0.704 . S
C3409 C1696 0.295 . S
C3414 C292 0.638 . S
C3439 C328 0.812 . S
C3444 C760 0.884 . S
C3469 C364 0.658 . S
C3474 C1660 0.723 . S
C3499 C580 0.630 . S
C3504 C400 0.293 . S
C3529 C436 0.704 . S
C3534 C724 0.706 . S
C3559 C472 0.907 . S
C3564 C1480 1.081 . S
C3589 C1516 0.699 . S
C3594 C508 0.728 . S
C3619 C1552 0.704 . S
C3624 C544 0.706 . S
C3649 C1336 0.723 . S
C3654 C616 0.658 . S
C3679 C1372 0.893 . S
C3684 C652 0.806 . S
C3709 C1408 0.696 . S
C3714 C688 0.730 . S
C3739 C796 0.907 . S
C3744 C1228 1.081 . S
C3769 C1156 0.807 . S
C3774 C832 0.804 . S
C3799 C1192 0.699 . S
C3804 C1624 0.728 . S
C3829 C1264 0.804 . S
C3834 C1444 0.806 . S
C3859 C1588 0.696 . S
C3864 C1300 0.730 . S
C3889 C3 1.355 . S
C3894 C795 1.322 . S
C3919 C39 1.388 . S
C3924 C1443 1.395 . S
C3949 C831 1.411 . S
C3954 C75 1.405 . S
C3979 C1623 1.502 . S
C3984 C111 1.502 . S
C4009 C651 1.496 . S
C4014 C147 1.507 . S
C4039 C687 1.405 . S
C4044 C183 1.411 . S
C4069 C219 1.354 . S
C4074 C1587 1.345 . S
C4099 C255 1.167 . S
C4104 C615 1.157 . S
C4129 C471 1.323 . S
C4134 C291 1.356 . S
C4159 C327 1.496 . S
C4164 C507 1.507 . S
C4189 C543 1.166 . S
C4194 C363 1.156 . S
C4219 C435 1.512 . S
C4224 C399 1.451 . S
C4249 C579 1.356 . S
C4254 C903 1.323 . S
C4279 C1083 1.157 . S
C4284 C723 1.167 . S
C4309 C975 1.469 . S
C4314 C759 1.463 . S
C4339 C867 1.395 . S
C4344 C1659 1.388 . S
C4369 C1695 1.458 . S
C4374 C939 1.504 . S
C4399 C1515 1.469 . S
C4404 C1011 1.464 . S
C4429 C1551 1.512 . S
C4434 C1047 1.451 . S
C4459 C1479 1.353 . S
C4464 C1119 1.344 . S
C4489 C1335 1.388 . S
C4494 C1155 1.395 . S
C4519 C1371 1.464 . S
C4524 C1191 1.469 . S
C4549 C1227 1.354 . S
C4554 C1407 1.345 . S
C4579 C1263 1.411 . S
C4584 C1299 1.405 . S
