# Generated by pormake.
# Topology ato, (4)-cn, num edge types: 1
# Building blocks:
#     Node 0, Type 0, BuildingBlock: GALJAG_clean_sbu_0, # of connection points: 4
#     Node 1, Type 0, BuildingBlock: GALJAG_clean_sbu_0, # of connection points: 4
#     Node 2, Type 0, BuildingBlock: GALJAG_clean_sbu_0, # of connection points: 4
#     Node 3, Type 0, BuildingBlock: GALJAG_clean_sbu_0, # of connection points: 4
#     Node 4, Type 0, BuildingBlock: GALJAG_clean_sbu_0, # of connection points: 4
#     Node 5, Type 0, BuildingBlock: GALJAG_clean_sbu_0, # of connection points: 4
#     Node 6, Type 0, BuildingBlock: GALJAG_clean_sbu_0, # of connection points: 4
#     Node 7, Type 0, BuildingBlock: GALJAG_clean_sbu_0, # of connection points: 4
#     Node 8, Type 0, BuildingBlock: GALJAG_clean_sbu_0, # of connection points: 4
#     Node 9, Type 0, BuildingBlock: GALJAG_clean_sbu_0, # of connection points: 4
#     Node 10, Type 0, BuildingBlock: GALJAG_clean_sbu_0, # of connection points: 4
#     Node 11, Type 0, BuildingBlock: GALJAG_clean_sbu_0, # of connection points: 4
#     Node 12, Type 0, BuildingBlock: GALJAG_clean_sbu_0, # of connection points: 4
#     Node 13, Type 0, BuildingBlock: GALJAG_clean_sbu_0, # of connection points: 4
#     Node 14, Type 0, BuildingBlock: GALJAG_clean_sbu_0, # of connection points: 4
#     Node 15, Type 0, BuildingBlock: GALJAG_clean_sbu_0, # of connection points: 4
#     Node 16, Type 0, BuildingBlock: GALJAG_clean_sbu_0, # of connection points: 4
#     Node 17, Type 0, BuildingBlock: GALJAG_clean_sbu_0, # of connection points: 4
#     Node 18, Type 0, BuildingBlock: GALJAG_clean_sbu_0, # of connection points: 4
#     Node 19, Type 0, BuildingBlock: GALJAG_clean_sbu_0, # of connection points: 4
#     Node 20, Type 0, BuildingBlock: GALJAG_clean_sbu_0, # of connection points: 4
#     Node 21, Type 0, BuildingBlock: GALJAG_clean_sbu_0, # of connection points: 4
#     Node 22, Type 0, BuildingBlock: GALJAG_clean_sbu_0, # of connection points: 4
#     Node 23, Type 0, BuildingBlock: GALJAG_clean_sbu_0, # of connection points: 4
#     Node 24, Type 0, BuildingBlock: GALJAG_clean_sbu_0, # of connection points: 4
#     Node 25, Type 0, BuildingBlock: GALJAG_clean_sbu_0, # of connection points: 4
#     Node 26, Type 0, BuildingBlock: GALJAG_clean_sbu_0, # of connection points: 4
#     Node 27, Type 0, BuildingBlock: GALJAG_clean_sbu_0, # of connection points: 4
#     Node 28, Type 0, BuildingBlock: GALJAG_clean_sbu_0, # of connection points: 4
#     Node 29, Type 0, BuildingBlock: GALJAG_clean_sbu_0, # of connection points: 4
#     Node 30, Type 0, BuildingBlock: GALJAG_clean_sbu_0, # of connection points: 4
#     Node 31, Type 0, BuildingBlock: GALJAG_clean_sbu_0, # of connection points: 4
#     Node 32, Type 0, BuildingBlock: GALJAG_clean_sbu_0, # of connection points: 4
#     Node 33, Type 0, BuildingBlock: GALJAG_clean_sbu_0, # of connection points: 4
#     Node 34, Type 0, BuildingBlock: GALJAG_clean_sbu_0, # of connection points: 4
#     Node 35, Type 0, BuildingBlock: GALJAG_clean_sbu_0, # of connection points: 4
#     Edge 36, Type (0, 0), None
#     Edge 37, Type (0, 0), None
#     Edge 38, Type (0, 0), None
#     Edge 39, Type (0, 0), None
#     Edge 40, Type (0, 0), None
#     Edge 41, Type (0, 0), None
#     Edge 42, Type (0, 0), None
#     Edge 43, Type (0, 0), None
#     Edge 44, Type (0, 0), None
#     Edge 45, Type (0, 0), None
#     Edge 46, Type (0, 0), None
#     Edge 47, Type (0, 0), None
#     Edge 48, Type (0, 0), None
#     Edge 49, Type (0, 0), None
#     Edge 50, Type (0, 0), None
#     Edge 51, Type (0, 0), None
#     Edge 52, Type (0, 0), None
#     Edge 53, Type (0, 0), None
#     Edge 54, Type (0, 0), None
#     Edge 55, Type (0, 0), None
#     Edge 56, Type (0, 0), None
#     Edge 57, Type (0, 0), None
#     Edge 58, Type (0, 0), None
#     Edge 59, Type (0, 0), None
#     Edge 60, Type (0, 0), None
#     Edge 61, Type (0, 0), None
#     Edge 62, Type (0, 0), None
#     Edge 63, Type (0, 0), None
#     Edge 64, Type (0, 0), None
#     Edge 65, Type (0, 0), None
#     Edge 66, Type (0, 0), None
#     Edge 67, Type (0, 0), None
#     Edge 68, Type (0, 0), None
#     Edge 69, Type (0, 0), None
#     Edge 70, Type (0, 0), None
#     Edge 71, Type (0, 0), None
#     Edge 72, Type (0, 0), None
#     Edge 73, Type (0, 0), None
#     Edge 74, Type (0, 0), None
#     Edge 75, Type (0, 0), None
#     Edge 76, Type (0, 0), None
#     Edge 77, Type (0, 0), None
#     Edge 78, Type (0, 0), None
#     Edge 79, Type (0, 0), None
#     Edge 80, Type (0, 0), None
#     Edge 81, Type (0, 0), None
#     Edge 82, Type (0, 0), None
#     Edge 83, Type (0, 0), None
#     Edge 84, Type (0, 0), None
#     Edge 85, Type (0, 0), None
#     Edge 86, Type (0, 0), None
#     Edge 87, Type (0, 0), None
#     Edge 88, Type (0, 0), None
#     Edge 89, Type (0, 0), None
#     Edge 90, Type (0, 0), None
#     Edge 91, Type (0, 0), None
#     Edge 92, Type (0, 0), None
#     Edge 93, Type (0, 0), None
#     Edge 94, Type (0, 0), None
#     Edge 95, Type (0, 0), None
#     Edge 96, Type (0, 0), None
#     Edge 97, Type (0, 0), None
#     Edge 98, Type (0, 0), None
#     Edge 99, Type (0, 0), None
#     Edge 100, Type (0, 0), None
#     Edge 101, Type (0, 0), None
#     Edge 102, Type (0, 0), None
#     Edge 103, Type (0, 0), None
#     Edge 104, Type (0, 0), None
#     Edge 105, Type (0, 0), None
#     Edge 106, Type (0, 0), None
#     Edge 107, Type (0, 0), None
# Relax obj value: 0.074
# Max RMSD: 0.099
# Mean RMSD: 0.099
data_MOF--net-ato--node1-GALJAG_clean_sbu_0--edge1-none
_symmetry_space_group_name_H-M    P1
_symmetry_Int_Tables_number       1
_symmetry_cell_setting            triclinic
loop_
_symmetry_equiv_pos_as_xyz
'x, y, z'
_cell_length_a     47.924346
_cell_length_b     47.924559
_cell_length_c     10.008049
_cell_angle_alpha  89.987898
_cell_angle_beta   90.030788
_cell_angle_gamma 120.00206
loop_
_atom_site_label
_atom_site_type_symbol
_atom_site_fract_x
_atom_site_fract_y
_atom_site_fract_z
_atom_type_partial_charge
In0 In 0.26414 0.06328 0.22623 0.0
O1 O 0.27014 0.03242 0.38498 0.0
O2 O 0.22494 0.03055 0.37518 0.0
C3 C 0.32723 0.09788 0.16383 0.0
C4 C 0.23918 0.01938 0.03197 0.0
C5 C 0.25325 0.11317 0.2476 0.0
O6 O 0.31754 0.09081 0.28312 0.0
O7 O 0.30531 0.0879 0.07682 0.0
O8 O 0.24487 0.09505 0.14651 0.0
O9 O 0.2659 0.10545 0.34043 0.0
C10 C 0.24168 0.01994 0.42794 0.0
O11 O 0.22385 0.03237 0.07794 0.0
O12 O 0.26653 0.02882 0.08231 0.0
In13 In 0.95507 0.20451 0.22618 0.0
O14 O 0.98595 0.24138 0.38483 0.0
O15 O 0.98779 0.19804 0.37534 0.0
C16 C 0.92047 0.23301 0.1638 0.0
C17 C 0.99897 0.22346 0.03199 0.0
C18 C 0.90519 0.14372 0.24751 0.0
O19 O 0.92755 0.23037 0.28309 0.0
O20 O 0.93043 0.22107 0.07678 0.0
O21 O 0.92329 0.15349 0.14641 0.0
O22 O 0.91292 0.16408 0.34036 0.0
C23 C 0.99842 0.2254 0.42798 0.0
O24 O 0.98601 0.19515 0.07812 0.0
O25 O 0.9895 0.24135 0.08213 0.0
In26 In 0.81383 0.75422 0.22635 0.0
O27 O 0.82318 0.79452 0.07823 0.0
O28 O 0.77698 0.7518 0.08216 0.0
C29 C 0.87461 0.76512 0.24758 0.0
C30 C 0.79293 0.77667 0.42801 0.0
C31 C 0.78532 0.69111 0.16402 0.0
O32 O 0.86483 0.77347 0.14652 0.0
O33 O 0.85428 0.75249 0.34046 0.0
O34 O 0.788 0.70083 0.28332 0.0
O35 O 0.79722 0.71302 0.07699 0.0
C36 C 0.79487 0.77917 0.03202 0.0
O37 O 0.77695 0.74822 0.38488 0.0
O38 O 0.82029 0.7934 0.37545 0.0
In39 In 0.06695 0.26045 0.73251 0.0
O40 O 0.03603 0.22016 0.88067 0.0
O41 O 0.03251 0.26285 0.87647 0.0
C42 C 0.11684 0.24956 0.71112 0.0
C43 C 0.0236 0.238 0.53072 0.0
C44 C 0.10155 0.32356 0.7949 0.0
O45 O 0.09874 0.24121 0.81223 0.0
O46 O 0.1091 0.26219 0.61829 0.0
O47 O 0.09447 0.31384 0.67561 0.0
O48 O 0.0916 0.30165 0.88191 0.0
C49 C 0.02306 0.2355 0.92671 0.0
O50 O 0.03609 0.26645 0.57378 0.0
O51 O 0.03422 0.22126 0.58345 0.0
In52 In 0.75788 0.81015 0.73231 0.0
O53 O 0.75188 0.77329 0.57365 0.0
O54 O 0.79707 0.81662 0.58334 0.0
C55 C 0.69478 0.78165 0.79468 0.0
C56 C 0.78283 0.79121 0.92664 0.0
C57 C 0.76877 0.87093 0.711 0.0
O58 O 0.70447 0.7843 0.67538 0.0
O59 O 0.7167 0.79358 0.88169 0.0
O60 O 0.77715 0.86117 0.81207 0.0
O61 O 0.75612 0.85058 0.61815 0.0
C62 C 0.78033 0.78926 0.53065 0.0
O63 O 0.79817 0.81952 0.88058 0.0
O64 O 0.75548 0.7733 0.87633 0.0
In65 In 0.20818 0.9514 0.73234 0.0
O66 O 0.24506 0.98228 0.57382 0.0
O67 O 0.20172 0.98411 0.58316 0.0
C68 C 0.23669 0.91679 0.79467 0.0
C69 C 0.22713 0.99529 0.92662 0.0
C70 C 0.1474 0.90151 0.71108 0.0
O71 O 0.23402 0.92385 0.67538 0.0
O72 O 0.22478 0.92679 0.8817 0.0
O73 O 0.15718 0.91964 0.81215 0.0
O74 O 0.16773 0.90923 0.6182 0.0
C75 C 0.22909 0.99475 0.53062 0.0
O76 O 0.19883 0.98235 0.88037 0.0
O77 O 0.24502 0.98581 0.87654 0.0
In78 In 0.75788 0.95139 0.7324 0.0
O79 O 0.79816 0.9823 0.88069 0.0
O80 O 0.75548 0.98585 0.87632 0.0
C81 C 0.76875 0.90149 0.71106 0.0
C82 C 0.78033 0.99473 0.53068 0.0
C83 C 0.69478 0.91679 0.7948 0.0
O84 O 0.77714 0.91962 0.81212 0.0
O85 O 0.75611 0.90922 0.6182 0.0
O86 O 0.70447 0.92386 0.67551 0.0
O87 O 0.7167 0.92677 0.88181 0.0
C88 C 0.78283 0.99529 0.92666 0.0
O89 O 0.75188 0.98224 0.57365 0.0
O90 O 0.79707 0.98412 0.58345 0.0
In91 In 0.06694 0.81016 0.73245 0.0
O92 O 0.03606 0.77329 0.5738 0.0
O93 O 0.03422 0.81663 0.58329 0.0
C94 C 0.10154 0.78165 0.79483 0.0
C95 C 0.02304 0.79121 0.92664 0.0
C96 C 0.11683 0.87094 0.71114 0.0
O97 O 0.09446 0.7843 0.67554 0.0
O98 O 0.09158 0.79359 0.88185 0.0
O99 O 0.09872 0.86118 0.81223 0.0
O100 O 0.10909 0.85059 0.61826 0.0
C101 C 0.0236 0.78926 0.53065 0.0
O102 O 0.036 0.81952 0.88051 0.0
O103 O 0.03251 0.77332 0.8765 0.0
In104 In 0.20819 0.26045 0.73228 0.0
O105 O 0.24506 0.26645 0.57375 0.0
O106 O 0.20172 0.22127 0.58317 0.0
C107 C 0.23669 0.32356 0.7946 0.0
C108 C 0.22714 0.2355 0.92661 0.0
C109 C 0.14741 0.24956 0.71108 0.0
O110 O 0.23402 0.31384 0.67531 0.0
O111 O 0.22479 0.30165 0.88164 0.0
O112 O 0.15719 0.2412 0.81212 0.0
O113 O 0.16774 0.26218 0.61816 0.0
C114 C 0.22908 0.238 0.53062 0.0
O115 O 0.19883 0.22015 0.8804 0.0
O116 O 0.24503 0.26287 0.87646 0.0
In117 In 0.95506 0.75422 0.22612 0.0
O118 O 0.98598 0.79451 0.07796 0.0
O119 O 0.9895 0.75181 0.08216 0.0
C120 C 0.90517 0.7651 0.24749 0.0
C121 C 0.99841 0.77667 0.4279 0.0
C122 C 0.92046 0.69111 0.16373 0.0
O123 O 0.92328 0.77346 0.14639 0.0
O124 O 0.91291 0.75248 0.34035 0.0
O125 O 0.92755 0.70082 0.28302 0.0
O126 O 0.93041 0.71302 0.07672 0.0
C127 C 0.99896 0.77917 0.03192 0.0
O128 O 0.98593 0.74822 0.38485 0.0
O129 O 0.98779 0.79341 0.37518 0.0
In130 In 0.26413 0.20451 0.22632 0.0
O131 O 0.27013 0.24138 0.38498 0.0
O132 O 0.22494 0.19805 0.37529 0.0
C133 C 0.32723 0.23302 0.16395 0.0
C134 C 0.23918 0.22346 0.03199 0.0
C135 C 0.25326 0.14374 0.2476 0.0
O136 O 0.31754 0.23037 0.28325 0.0
O137 O 0.30531 0.22109 0.07694 0.0
O138 O 0.24487 0.1535 0.14655 0.0
O139 O 0.26589 0.16409 0.34048 0.0
C140 C 0.24168 0.22541 0.42798 0.0
O141 O 0.22384 0.19515 0.07805 0.0
O142 O 0.26653 0.24137 0.0823 0.0
In143 In 0.81383 0.06327 0.22629 0.0
O144 O 0.82318 0.03231 0.07826 0.0
O145 O 0.77699 0.02885 0.08209 0.0
C146 C 0.87461 0.11316 0.24752 0.0
C147 C 0.79293 0.01992 0.428 0.0
C148 C 0.78533 0.09787 0.16396 0.0
O149 O 0.86483 0.09503 0.14647 0.0
O150 O 0.85428 0.10544 0.34043 0.0
O151 O 0.788 0.09082 0.28325 0.0
O152 O 0.79723 0.08788 0.07693 0.0
C153 C 0.79488 0.01937 0.03201 0.0
O154 O 0.77695 0.03238 0.38481 0.0
O155 O 0.8203 0.03056 0.37547 0.0
In156 In 0.9308 0.39662 0.55956 0.0
O157 O 0.89052 0.3657 0.41128 0.0
O158 O 0.9332 0.36215 0.41564 0.0
C159 C 0.91991 0.4465 0.58093 0.0
C160 C 0.90835 0.35327 0.76128 0.0
C161 C 0.9939 0.43121 0.49716 0.0
O162 O 0.91154 0.42838 0.47985 0.0
O163 O 0.93256 0.43878 0.67376 0.0
O164 O 0.98421 0.42415 0.61646 0.0
O165 O 0.97198 0.42124 0.41016 0.0
C166 C 0.90585 0.35271 0.3653 0.0
O167 O 0.93681 0.36576 0.71832 0.0
O168 O 0.89161 0.36388 0.70851 0.0
In169 In 0.62174 0.53784 0.55951 0.0
O170 O 0.65267 0.52848 0.41145 0.0
O171 O 0.65617 0.57469 0.41546 0.0
C172 C 0.57185 0.47706 0.58084 0.0
C173 C 0.66508 0.55874 0.76131 0.0
C174 C 0.58713 0.56635 0.49713 0.0
O175 O 0.58995 0.48682 0.47974 0.0
O176 O 0.57959 0.49742 0.67369 0.0
O177 O 0.59421 0.5637 0.61642 0.0
O178 O 0.59709 0.55441 0.41011 0.0
C179 C 0.66563 0.55679 0.36532 0.0
O180 O 0.65261 0.57472 0.71815 0.0
O181 O 0.65445 0.53138 0.70867 0.0
In182 In 0.4805 0.08755 0.55968 0.0
O183 O 0.44362 0.08156 0.71822 0.0
O184 O 0.48697 0.12673 0.70879 0.0
C185 C 0.45199 0.02445 0.49736 0.0
C186 C 0.46155 0.1125 0.36535 0.0
C187 C 0.54128 0.09845 0.58091 0.0
O188 O 0.45467 0.03416 0.61666 0.0
O189 O 0.46389 0.04635 0.41033 0.0
O190 O 0.5315 0.10681 0.47985 0.0
O191 O 0.52095 0.08582 0.6738 0.0
C192 C 0.4596 0.11 0.76135 0.0
O193 O 0.48985 0.12785 0.41157 0.0
O194 O 0.44365 0.08513 0.4155 0.0
In195 In 0.73362 0.59378 0.06584 0.0
O196 O 0.70269 0.55349 0.214 0.0
O197 O 0.69917 0.59619 0.20979 0.0
C198 C 0.7835 0.58289 0.04445 0.0
C199 C 0.69027 0.57133 0.86405 0.0
C200 C 0.76821 0.65689 0.12824 0.0
O201 O 0.7654 0.57454 0.14556 0.0
O202 O 0.77576 0.59552 0.95162 0.0
O203 O 0.76113 0.64718 0.00894 0.0
O204 O 0.75826 0.63498 0.21524 0.0
C205 C 0.68972 0.56883 0.26004 0.0
O206 O 0.70275 0.59978 0.90711 0.0
O207 O 0.70088 0.55459 0.91678 0.0
In208 In 0.42455 0.14349 0.06564 0.0
O209 O 0.41855 0.10662 0.90698 0.0
O210 O 0.46374 0.14995 0.91668 0.0
C211 C 0.36145 0.11498 0.12802 0.0
C212 C 0.4495 0.12454 0.25997 0.0
C213 C 0.43544 0.20427 0.04434 0.0
O214 O 0.37115 0.11763 0.00872 0.0
O215 O 0.38337 0.12691 0.21503 0.0
O216 O 0.44382 0.19451 0.1454 0.0
O217 O 0.42279 0.18391 0.95149 0.0
C218 C 0.447 0.12259 0.86399 0.0
O219 O 0.46484 0.15285 0.21391 0.0
O220 O 0.42215 0.10663 0.20967 0.0
In221 In 0.87485 0.28473 0.06567 0.0
O222 O 0.8655 0.31569 0.21371 0.0
O223 O 0.91169 0.31915 0.20988 0.0
C224 C 0.81407 0.23485 0.04442 0.0
C225 C 0.89576 0.32808 0.86396 0.0
C226 C 0.90336 0.25013 0.12801 0.0
O227 O 0.82385 0.25297 0.14549 0.0
O228 O 0.83441 0.24256 0.95154 0.0
O229 O 0.90069 0.25718 0.00871 0.0
O230 O 0.89145 0.26012 0.21504 0.0
C231 C 0.8938 0.32863 0.25996 0.0
O232 O 0.91174 0.31562 0.90715 0.0
O233 O 0.86839 0.31744 0.91649 0.0
In234 In 0.42455 0.28472 0.06573 0.0
O235 O 0.41855 0.31557 0.90698 0.0
O236 O 0.46374 0.31745 0.91678 0.0
C237 C 0.36145 0.25013 0.12814 0.0
C238 C 0.4495 0.32862 0.25999 0.0
C239 C 0.43543 0.23483 0.04439 0.0
O240 O 0.37114 0.25719 0.00884 0.0
O241 O 0.38337 0.2601 0.21514 0.0
O242 O 0.44381 0.25296 0.14545 0.0
O243 O 0.42279 0.24255 0.95153 0.0
C244 C 0.447 0.32806 0.86401 0.0
O245 O 0.46483 0.31564 0.21402 0.0
O246 O 0.42215 0.31918 0.20965 0.0
In247 In 0.73361 0.1435 0.06578 0.0
O248 O 0.70274 0.10662 0.90713 0.0
O249 O 0.70089 0.14996 0.91662 0.0
C250 C 0.76821 0.11498 0.12817 0.0
C251 C 0.68972 0.12455 0.25997 0.0
C252 C 0.78351 0.20427 0.04447 0.0
O253 O 0.76114 0.11763 0.00888 0.0
O254 O 0.75825 0.12693 0.21518 0.0
O255 O 0.7654 0.19451 0.14556 0.0
O256 O 0.77576 0.18392 0.95159 0.0
C257 C 0.69027 0.1226 0.86398 0.0
O258 O 0.70267 0.15285 0.21384 0.0
O259 O 0.69918 0.10665 0.20983 0.0
In260 In 0.87485 0.59378 0.06562 0.0
O261 O 0.8655 0.55348 0.21373 0.0
O262 O 0.91169 0.5962 0.2098 0.0
C263 C 0.81407 0.5829 0.04441 0.0
C264 C 0.89575 0.57133 0.86395 0.0
C265 C 0.90336 0.65689 0.12794 0.0
O266 O 0.82385 0.57453 0.14545 0.0
O267 O 0.8344 0.59551 0.9515 0.0
O268 O 0.90068 0.64717 0.00865 0.0
O269 O 0.89145 0.63498 0.21497 0.0
C270 C 0.8938 0.56883 0.25995 0.0
O271 O 0.91172 0.59978 0.90709 0.0
O272 O 0.86838 0.5546 0.91651 0.0
In273 In 0.62173 0.08755 0.55945 0.0
O274 O 0.6526 0.08155 0.71818 0.0
O275 O 0.65447 0.12674 0.70851 0.0
C276 C 0.58713 0.02445 0.49706 0.0
C277 C 0.66563 0.1125 0.36525 0.0
C278 C 0.57184 0.09843 0.58082 0.0
O279 O 0.59422 0.03416 0.61635 0.0
O280 O 0.59708 0.04636 0.41005 0.0
O281 O 0.58995 0.1068 0.47973 0.0
O282 O 0.57959 0.08581 0.67368 0.0
C283 C 0.66508 0.11 0.76123 0.0
O284 O 0.65266 0.12784 0.41129 0.0
O285 O 0.65617 0.08515 0.41549 0.0
In286 In 0.93079 0.53785 0.55965 0.0
O287 O 0.8905 0.52848 0.41139 0.0
O288 O 0.9332 0.5747 0.41563 0.0
C289 C 0.91992 0.47707 0.58094 0.0
C290 C 0.90834 0.55874 0.76131 0.0
C291 C 0.99389 0.56635 0.49728 0.0
O292 O 0.91153 0.48683 0.47989 0.0
O293 O 0.93256 0.49742 0.67381 0.0
O294 O 0.9842 0.5637 0.61658 0.0
O295 O 0.97197 0.55442 0.41027 0.0
C296 C 0.90584 0.55679 0.36533 0.0
O297 O 0.93679 0.57471 0.71832 0.0
O298 O 0.8916 0.53138 0.70862 0.0
In299 In 0.4805 0.3966 0.55962 0.0
O300 O 0.44362 0.36571 0.71814 0.0
O301 O 0.48697 0.36389 0.7088 0.0
C302 C 0.45199 0.4312 0.49729 0.0
C303 C 0.46155 0.35271 0.36533 0.0
C304 C 0.54127 0.4465 0.58085 0.0
O305 O 0.45466 0.42415 0.61658 0.0
O306 O 0.4639 0.42121 0.41026 0.0
O307 O 0.5315 0.42836 0.4798 0.0
O308 O 0.52094 0.43877 0.67376 0.0
C309 C 0.4596 0.35325 0.76133 0.0
O310 O 0.48985 0.36565 0.41159 0.0
O311 O 0.44366 0.36219 0.41542 0.0
In312 In 0.59746 0.72995 0.8929 0.0
O313 O 0.55718 0.69903 0.74461 0.0
O314 O 0.59986 0.69549 0.74898 0.0
C315 C 0.58657 0.77983 0.91427 0.0
C316 C 0.57501 0.68661 0.09462 0.0
C317 C 0.66056 0.76454 0.83049 0.0
O318 O 0.5782 0.76171 0.81318 0.0
O319 O 0.59923 0.77212 0.00709 0.0
O320 O 0.65087 0.75748 0.94979 0.0
O321 O 0.63864 0.75457 0.74349 0.0
C322 C 0.57251 0.68605 0.69864 0.0
O323 O 0.60347 0.69909 0.05165 0.0
O324 O 0.55827 0.69721 0.04185 0.0
In325 In 0.2884 0.87117 0.89284 0.0
O326 O 0.31927 0.90805 0.0515 0.0
O327 O 0.32112 0.86471 0.042 0.0
C328 C 0.2538 0.89968 0.83046 0.0
C329 C 0.3323 0.89012 0.69866 0.0
C330 C 0.23851 0.81039 0.91418 0.0
O331 O 0.26088 0.89704 0.94975 0.0
O332 O 0.26376 0.88774 0.74345 0.0
O333 O 0.25662 0.82015 0.81308 0.0
O334 O 0.24625 0.83075 0.00703 0.0
C335 C 0.33174 0.89207 0.09465 0.0
O336 O 0.31934 0.86182 0.74479 0.0
O337 O 0.32283 0.90802 0.7488 0.0
In338 In 0.14716 0.42089 0.89301 0.0
O339 O 0.11029 0.41489 0.05154 0.0
O340 O 0.15363 0.46007 0.04212 0.0
C341 C 0.11866 0.35778 0.83069 0.0
C342 C 0.12821 0.44583 0.69868 0.0
C343 C 0.20795 0.43178 0.91424 0.0
O344 O 0.12133 0.36749 0.94998 0.0
O345 O 0.13056 0.37969 0.74366 0.0
O346 O 0.19817 0.44014 0.81319 0.0
O347 O 0.18761 0.41916 0.00713 0.0
C348 C 0.12627 0.44333 0.09468 0.0
O349 O 0.15652 0.46119 0.7449 0.0
O350 O 0.11032 0.41847 0.74883 0.0
In351 In 0.40028 0.92712 0.39918 0.0
O352 O 0.36936 0.88683 0.54734 0.0
O353 O 0.36584 0.92952 0.54313 0.0
C354 C 0.45016 0.91622 0.37778 0.0
C355 C 0.35693 0.90467 0.19739 0.0
C356 C 0.43488 0.99022 0.46157 0.0
O357 O 0.43206 0.90787 0.47889 0.0
O358 O 0.44243 0.92886 0.28495 0.0
O359 O 0.4278 0.98051 0.34228 0.0
O360 O 0.42493 0.96831 0.54858 0.0
C361 C 0.35638 0.90217 0.59337 0.0
O362 O 0.36941 0.93312 0.24045 0.0
O363 O 0.36755 0.88792 0.25012 0.0
In364 In 0.09122 0.47682 0.39897 0.0
O365 O 0.13151 0.48619 0.54724 0.0
O366 O 0.08882 0.43997 0.543 0.0
C367 C 0.10211 0.5376 0.37767 0.0
C368 C 0.11367 0.45593 0.19731 0.0
C369 C 0.02812 0.44831 0.46135 0.0
O370 O 0.11048 0.52784 0.47873 0.0
O371 O 0.08946 0.51724 0.28482 0.0
O372 O 0.03781 0.45097 0.34205 0.0
O373 O 0.05004 0.46025 0.54836 0.0
C374 C 0.11617 0.45787 0.5933 0.0
O375 O 0.08522 0.43996 0.24031 0.0
O376 O 0.13041 0.48329 0.25001 0.0
In377 In 0.54152 0.61807 0.39901 0.0
O378 O 0.53217 0.64902 0.54704 0.0
O379 O 0.57836 0.65248 0.54321 0.0
C380 C 0.48073 0.56818 0.37775 0.0
C381 C 0.56242 0.66141 0.1973 0.0
C382 C 0.57003 0.58347 0.46134 0.0
O383 O 0.49051 0.5863 0.47882 0.0
O384 O 0.50107 0.5759 0.28487 0.0
O385 O 0.56735 0.59052 0.34205 0.0
O386 O 0.55811 0.59345 0.54837 0.0
C387 C 0.56047 0.66196 0.59329 0.0
O388 O 0.5784 0.64895 0.24049 0.0
O389 O 0.53505 0.65078 0.24983 0.0
In390 In 0.09121 0.61805 0.39906 0.0
O391 O 0.08521 0.64891 0.24031 0.0
O392 O 0.1304 0.65079 0.25011 0.0
C393 C 0.02811 0.58346 0.46147 0.0
C394 C 0.11616 0.66196 0.59332 0.0
C395 C 0.10209 0.56816 0.37772 0.0
O396 O 0.0378 0.59052 0.34217 0.0
O397 O 0.05004 0.59343 0.54847 0.0
O398 O 0.11047 0.58629 0.47879 0.0
O399 O 0.08945 0.57588 0.28486 0.0
C400 C 0.11366 0.66139 0.19735 0.0
O401 O 0.13149 0.64897 0.54735 0.0
O402 O 0.08882 0.65252 0.54298 0.0
In403 In 0.40028 0.47683 0.39912 0.0
O404 O 0.3694 0.43995 0.24047 0.0
O405 O 0.36756 0.48329 0.24996 0.0
C406 C 0.43487 0.44832 0.4615 0.0
C407 C 0.35638 0.45788 0.59331 0.0
C408 C 0.45017 0.5376 0.37781 0.0
O409 O 0.4278 0.45096 0.34221 0.0
O410 O 0.42492 0.46026 0.54852 0.0
O411 O 0.43206 0.52784 0.47889 0.0
O412 O 0.44243 0.51725 0.28493 0.0
C413 C 0.35693 0.45593 0.19732 0.0
O414 O 0.36934 0.48618 0.54717 0.0
O415 O 0.36585 0.43998 0.54316 0.0
In416 In 0.54151 0.92711 0.39895 0.0
O417 O 0.57839 0.93311 0.24041 0.0
O418 O 0.53505 0.88793 0.24984 0.0
C419 C 0.57003 0.99022 0.46127 0.0
C420 C 0.56047 0.90217 0.59328 0.0
C421 C 0.48074 0.91623 0.37774 0.0
O422 O 0.56735 0.98051 0.34198 0.0
O423 O 0.55812 0.96832 0.5483 0.0
O424 O 0.49051 0.90786 0.47878 0.0
O425 O 0.50107 0.92885 0.28483 0.0
C426 C 0.56241 0.90467 0.19728 0.0
O427 O 0.53216 0.88681 0.54706 0.0
O428 O 0.57836 0.92953 0.54313 0.0
In429 In 0.2884 0.42088 0.89279 0.0
O430 O 0.31926 0.41488 0.05152 0.0
O431 O 0.32113 0.46008 0.04185 0.0
C432 C 0.2538 0.35778 0.83039 0.0
C433 C 0.33229 0.44583 0.69859 0.0
C434 C 0.23851 0.43176 0.91415 0.0
O435 O 0.26088 0.36749 0.94968 0.0
O436 O 0.26375 0.37969 0.74339 0.0
O437 O 0.25661 0.44013 0.81306 0.0
O438 O 0.24625 0.41914 0.00701 0.0
C439 C 0.33174 0.44333 0.09457 0.0
O440 O 0.31932 0.46117 0.74463 0.0
O441 O 0.32284 0.41848 0.74883 0.0
In442 In 0.59746 0.87118 0.89298 0.0
O443 O 0.55717 0.86182 0.74472 0.0
O444 O 0.59986 0.90803 0.74896 0.0
C445 C 0.58658 0.81041 0.91427 0.0
C446 C 0.57501 0.89207 0.09464 0.0
C447 C 0.66056 0.89969 0.83061 0.0
O448 O 0.5782 0.82016 0.81322 0.0
O449 O 0.59922 0.83076 0.00714 0.0
O450 O 0.65087 0.89704 0.94991 0.0
O451 O 0.63864 0.88776 0.7436 0.0
C452 C 0.57251 0.89013 0.69866 0.0
O453 O 0.60346 0.90804 0.05164 0.0
O454 O 0.55827 0.86471 0.04195 0.0
In455 In 0.14716 0.72993 0.89296 0.0
O456 O 0.11028 0.69905 0.05147 0.0
O457 O 0.15363 0.69723 0.04214 0.0
C458 C 0.11865 0.76453 0.83062 0.0
C459 C 0.12821 0.68604 0.69867 0.0
C460 C 0.20794 0.77983 0.91419 0.0
O461 O 0.12132 0.75748 0.94991 0.0
O462 O 0.13056 0.75455 0.74359 0.0
O463 O 0.19816 0.7617 0.81313 0.0
O464 O 0.18761 0.7721 0.00709 0.0
C465 C 0.12626 0.68659 0.09467 0.0
O466 O 0.15651 0.69898 0.74492 0.0
O467 O 0.11032 0.69552 0.74875 0.0
loop_
_geom_bond_atom_site_label_1
_geom_bond_atom_site_label_2
_geom_bond_distance
_geom_bond_site_symmetry_2
_ccdc_geom_bond_type
In0 O1 2.294 . S
In0 O2 2.326 . S
In0 O6 2.266 . S
In0 O7 2.326 . S
In0 O8 2.266 . S
In0 O9 2.326 . S
In0 O11 2.294 . S
In0 O12 2.326 . S
O1 In0 2.294 . S
O1 C10 1.240 . S
O2 In0 2.326 . S
O2 C10 1.252 . S
C3 O6 1.252 . S
C3 O7 1.260 . S
C4 O11 1.240 . S
C4 O12 1.252 . S
C5 O8 1.252 . S
C5 O9 1.260 . S
O6 In0 2.266 . S
O6 C3 1.252 . S
O7 In0 2.326 . S
O7 C3 1.260 . S
O8 In0 2.266 . S
O8 C5 1.252 . S
O9 In0 2.326 . S
O9 C5 1.260 . S
C10 O1 1.240 . S
C10 O2 1.252 . S
O11 In0 2.294 . S
O11 C4 1.240 . S
O12 In0 2.326 . S
O12 C4 1.252 . S
In13 O14 2.294 . S
In13 O15 2.326 . S
In13 O19 2.266 . S
In13 O20 2.326 . S
In13 O21 2.266 . S
In13 O22 2.326 . S
In13 O24 2.294 . S
In13 O25 2.326 . S
O14 In13 2.294 . S
O14 C23 1.240 . S
O15 In13 2.326 . S
O15 C23 1.252 . S
C16 O19 1.252 . S
C16 O20 1.260 . S
C17 O24 1.240 . S
C17 O25 1.252 . S
C18 O21 1.252 . S
C18 O22 1.260 . S
O19 In13 2.266 . S
O19 C16 1.252 . S
O20 In13 2.326 . S
O20 C16 1.260 . S
O21 In13 2.266 . S
O21 C18 1.252 . S
O22 In13 2.326 . S
O22 C18 1.260 . S
C23 O14 1.240 . S
C23 O15 1.252 . S
O24 In13 2.294 . S
O24 C17 1.240 . S
O25 In13 2.326 . S
O25 C17 1.252 . S
In26 O27 2.294 . S
In26 O28 2.326 . S
In26 O32 2.266 . S
In26 O33 2.326 . S
In26 O34 2.266 . S
In26 O35 2.326 . S
In26 O37 2.294 . S
In26 O38 2.326 . S
O27 In26 2.294 . S
O27 C36 1.240 . S
O28 In26 2.326 . S
O28 C36 1.252 . S
C29 O32 1.252 . S
C29 O33 1.260 . S
C30 O37 1.240 . S
C30 O38 1.252 . S
C31 O34 1.252 . S
C31 O35 1.260 . S
O32 In26 2.266 . S
O32 C29 1.252 . S
O33 In26 2.326 . S
O33 C29 1.260 . S
O34 In26 2.266 . S
O34 C31 1.252 . S
O35 In26 2.326 . S
O35 C31 1.260 . S
C36 O27 1.240 . S
C36 O28 1.252 . S
O37 In26 2.294 . S
O37 C30 1.240 . S
O38 In26 2.326 . S
O38 C30 1.252 . S
In39 O40 2.294 . S
In39 O41 2.326 . S
In39 O45 2.266 . S
In39 O46 2.326 . S
In39 O47 2.266 . S
In39 O48 2.326 . S
In39 O50 2.294 . S
In39 O51 2.326 . S
O40 In39 2.294 . S
O40 C49 1.240 . S
O41 In39 2.326 . S
O41 C49 1.252 . S
C42 O45 1.252 . S
C42 O46 1.260 . S
C43 O50 1.240 . S
C43 O51 1.252 . S
C44 O47 1.252 . S
C44 O48 1.260 . S
O45 In39 2.266 . S
O45 C42 1.252 . S
O46 In39 2.326 . S
O46 C42 1.260 . S
O47 In39 2.266 . S
O47 C44 1.252 . S
O48 In39 2.326 . S
O48 C44 1.260 . S
C49 O40 1.240 . S
C49 O41 1.252 . S
O50 In39 2.294 . S
O50 C43 1.240 . S
O51 In39 2.326 . S
O51 C43 1.252 . S
In52 O53 2.294 . S
In52 O54 2.326 . S
In52 O58 2.266 . S
In52 O59 2.326 . S
In52 O60 2.266 . S
In52 O61 2.326 . S
In52 O63 2.294 . S
In52 O64 2.326 . S
O53 In52 2.294 . S
O53 C62 1.240 . S
O54 In52 2.326 . S
O54 C62 1.252 . S
C55 O58 1.252 . S
C55 O59 1.260 . S
C56 O63 1.240 . S
C56 O64 1.252 . S
C57 O60 1.252 . S
C57 O61 1.260 . S
O58 In52 2.266 . S
O58 C55 1.252 . S
O59 In52 2.326 . S
O59 C55 1.260 . S
O60 In52 2.266 . S
O60 C57 1.252 . S
O61 In52 2.326 . S
O61 C57 1.260 . S
C62 O53 1.240 . S
C62 O54 1.252 . S
O63 In52 2.294 . S
O63 C56 1.240 . S
O64 In52 2.326 . S
O64 C56 1.252 . S
In65 O66 2.294 . S
In65 O67 2.326 . S
In65 O71 2.266 . S
In65 O72 2.326 . S
In65 O73 2.266 . S
In65 O74 2.326 . S
In65 O76 2.294 . S
In65 O77 2.326 . S
O66 In65 2.294 . S
O66 C75 1.240 . S
O67 In65 2.326 . S
O67 C75 1.252 . S
C68 O71 1.252 . S
C68 O72 1.260 . S
C69 O76 1.240 . S
C69 O77 1.252 . S
C70 O73 1.252 . S
C70 O74 1.260 . S
O71 In65 2.266 . S
O71 C68 1.252 . S
O72 In65 2.326 . S
O72 C68 1.260 . S
O73 In65 2.266 . S
O73 C70 1.252 . S
O74 In65 2.326 . S
O74 C70 1.260 . S
C75 O66 1.240 . S
C75 O67 1.252 . S
O76 In65 2.294 . S
O76 C69 1.240 . S
O77 In65 2.326 . S
O77 C69 1.252 . S
In78 O79 2.294 . S
In78 O80 2.326 . S
In78 O84 2.266 . S
In78 O85 2.326 . S
In78 O86 2.266 . S
In78 O87 2.326 . S
In78 O89 2.294 . S
In78 O90 2.326 . S
O79 In78 2.294 . S
O79 C88 1.240 . S
O80 In78 2.326 . S
O80 C88 1.252 . S
C81 O84 1.252 . S
C81 O85 1.260 . S
C82 O89 1.240 . S
C82 O90 1.252 . S
C83 O86 1.252 . S
C83 O87 1.260 . S
O84 In78 2.266 . S
O84 C81 1.252 . S
O85 In78 2.326 . S
O85 C81 1.260 . S
O86 In78 2.266 . S
O86 C83 1.252 . S
O87 In78 2.326 . S
O87 C83 1.260 . S
C88 O79 1.240 . S
C88 O80 1.252 . S
O89 In78 2.294 . S
O89 C82 1.240 . S
O90 In78 2.326 . S
O90 C82 1.252 . S
In91 O92 2.294 . S
In91 O93 2.326 . S
In91 O97 2.266 . S
In91 O98 2.326 . S
In91 O99 2.266 . S
In91 O100 2.326 . S
In91 O102 2.294 . S
In91 O103 2.326 . S
O92 In91 2.294 . S
O92 C101 1.240 . S
O93 In91 2.326 . S
O93 C101 1.252 . S
C94 O97 1.252 . S
C94 O98 1.260 . S
C95 O102 1.240 . S
C95 O103 1.252 . S
C96 O99 1.252 . S
C96 O100 1.260 . S
O97 In91 2.266 . S
O97 C94 1.252 . S
O98 In91 2.326 . S
O98 C94 1.260 . S
O99 In91 2.266 . S
O99 C96 1.252 . S
O100 In91 2.326 . S
O100 C96 1.260 . S
C101 O92 1.240 . S
C101 O93 1.252 . S
O102 In91 2.294 . S
O102 C95 1.240 . S
O103 In91 2.326 . S
O103 C95 1.252 . S
In104 O105 2.294 . S
In104 O106 2.326 . S
In104 O110 2.266 . S
In104 O111 2.326 . S
In104 O112 2.266 . S
In104 O113 2.326 . S
In104 O115 2.294 . S
In104 O116 2.326 . S
O105 In104 2.294 . S
O105 C114 1.240 . S
O106 In104 2.326 . S
O106 C114 1.252 . S
C107 O110 1.252 . S
C107 O111 1.260 . S
C108 O115 1.240 . S
C108 O116 1.252 . S
C109 O112 1.252 . S
C109 O113 1.260 . S
O110 In104 2.266 . S
O110 C107 1.252 . S
O111 In104 2.326 . S
O111 C107 1.260 . S
O112 In104 2.266 . S
O112 C109 1.252 . S
O113 In104 2.326 . S
O113 C109 1.260 . S
C114 O105 1.240 . S
C114 O106 1.252 . S
O115 In104 2.294 . S
O115 C108 1.240 . S
O116 In104 2.326 . S
O116 C108 1.252 . S
In117 O118 2.294 . S
In117 O119 2.326 . S
In117 O123 2.266 . S
In117 O124 2.326 . S
In117 O125 2.266 . S
In117 O126 2.326 . S
In117 O128 2.294 . S
In117 O129 2.326 . S
O118 In117 2.294 . S
O118 C127 1.240 . S
O119 In117 2.326 . S
O119 C127 1.252 . S
C120 O123 1.252 . S
C120 O124 1.260 . S
C121 O128 1.240 . S
C121 O129 1.252 . S
C122 O125 1.252 . S
C122 O126 1.260 . S
O123 In117 2.266 . S
O123 C120 1.252 . S
O124 In117 2.326 . S
O124 C120 1.260 . S
O125 In117 2.266 . S
O125 C122 1.252 . S
O126 In117 2.326 . S
O126 C122 1.260 . S
C127 O118 1.240 . S
C127 O119 1.252 . S
O128 In117 2.294 . S
O128 C121 1.240 . S
O129 In117 2.326 . S
O129 C121 1.252 . S
In130 O131 2.294 . S
In130 O132 2.326 . S
In130 O136 2.266 . S
In130 O137 2.326 . S
In130 O138 2.266 . S
In130 O139 2.326 . S
In130 O141 2.294 . S
In130 O142 2.326 . S
O131 In130 2.294 . S
O131 C140 1.240 . S
O132 In130 2.326 . S
O132 C140 1.252 . S
C133 O136 1.252 . S
C133 O137 1.260 . S
C134 O141 1.240 . S
C134 O142 1.252 . S
C135 O138 1.252 . S
C135 O139 1.260 . S
O136 In130 2.266 . S
O136 C133 1.252 . S
O137 In130 2.326 . S
O137 C133 1.260 . S
O138 In130 2.266 . S
O138 C135 1.252 . S
O139 In130 2.326 . S
O139 C135 1.260 . S
C140 O131 1.240 . S
C140 O132 1.252 . S
O141 In130 2.294 . S
O141 C134 1.240 . S
O142 In130 2.326 . S
O142 C134 1.252 . S
In143 O144 2.294 . S
In143 O145 2.326 . S
In143 O149 2.266 . S
In143 O150 2.326 . S
In143 O151 2.266 . S
In143 O152 2.326 . S
In143 O154 2.294 . S
In143 O155 2.326 . S
O144 In143 2.294 . S
O144 C153 1.240 . S
O145 In143 2.326 . S
O145 C153 1.252 . S
C146 O149 1.252 . S
C146 O150 1.260 . S
C147 O154 1.240 . S
C147 O155 1.252 . S
C148 O151 1.252 . S
C148 O152 1.260 . S
O149 In143 2.266 . S
O149 C146 1.252 . S
O150 In143 2.326 . S
O150 C146 1.260 . S
O151 In143 2.266 . S
O151 C148 1.252 . S
O152 In143 2.326 . S
O152 C148 1.260 . S
C153 O144 1.240 . S
C153 O145 1.252 . S
O154 In143 2.294 . S
O154 C147 1.240 . S
O155 In143 2.326 . S
O155 C147 1.252 . S
In156 O157 2.294 . S
In156 O158 2.326 . S
In156 O162 2.266 . S
In156 O163 2.326 . S
In156 O164 2.266 . S
In156 O165 2.326 . S
In156 O167 2.294 . S
In156 O168 2.326 . S
O157 In156 2.294 . S
O157 C166 1.240 . S
O158 In156 2.326 . S
O158 C166 1.252 . S
C159 O162 1.252 . S
C159 O163 1.260 . S
C160 O167 1.240 . S
C160 O168 1.252 . S
C161 O164 1.252 . S
C161 O165 1.260 . S
O162 In156 2.266 . S
O162 C159 1.252 . S
O163 In156 2.326 . S
O163 C159 1.260 . S
O164 In156 2.266 . S
O164 C161 1.252 . S
O165 In156 2.326 . S
O165 C161 1.260 . S
C166 O157 1.240 . S
C166 O158 1.252 . S
O167 In156 2.294 . S
O167 C160 1.240 . S
O168 In156 2.326 . S
O168 C160 1.252 . S
In169 O170 2.294 . S
In169 O171 2.326 . S
In169 O175 2.266 . S
In169 O176 2.326 . S
In169 O177 2.266 . S
In169 O178 2.326 . S
In169 O180 2.294 . S
In169 O181 2.326 . S
O170 In169 2.294 . S
O170 C179 1.240 . S
O171 In169 2.326 . S
O171 C179 1.252 . S
C172 O175 1.252 . S
C172 O176 1.260 . S
C173 O180 1.240 . S
C173 O181 1.252 . S
C174 O177 1.252 . S
C174 O178 1.260 . S
O175 In169 2.266 . S
O175 C172 1.252 . S
O176 In169 2.326 . S
O176 C172 1.260 . S
O177 In169 2.266 . S
O177 C174 1.252 . S
O178 In169 2.326 . S
O178 C174 1.260 . S
C179 O170 1.240 . S
C179 O171 1.252 . S
O180 In169 2.294 . S
O180 C173 1.240 . S
O181 In169 2.326 . S
O181 C173 1.252 . S
In182 O183 2.294 . S
In182 O184 2.326 . S
In182 O188 2.266 . S
In182 O189 2.326 . S
In182 O190 2.266 . S
In182 O191 2.326 . S
In182 O193 2.294 . S
In182 O194 2.326 . S
O183 In182 2.294 . S
O183 C192 1.240 . S
O184 In182 2.326 . S
O184 C192 1.252 . S
C185 O188 1.252 . S
C185 O189 1.260 . S
C186 O193 1.240 . S
C186 O194 1.252 . S
C187 O190 1.252 . S
C187 O191 1.260 . S
O188 In182 2.266 . S
O188 C185 1.252 . S
O189 In182 2.326 . S
O189 C185 1.260 . S
O190 In182 2.266 . S
O190 C187 1.252 . S
O191 In182 2.326 . S
O191 C187 1.260 . S
C192 O183 1.240 . S
C192 O184 1.252 . S
O193 In182 2.294 . S
O193 C186 1.240 . S
O194 In182 2.326 . S
O194 C186 1.252 . S
In195 O196 2.294 . S
In195 O197 2.326 . S
In195 O201 2.266 . S
In195 O202 2.326 1_554 S
In195 O203 2.266 . S
In195 O204 2.326 . S
In195 O206 2.294 1_554 S
In195 O207 2.326 1_554 S
O196 In195 2.294 . S
O196 C205 1.240 . S
O197 In195 2.326 . S
O197 C205 1.252 . S
C198 O201 1.252 . S
C198 O202 1.260 1_554 S
C199 O206 1.240 . S
C199 O207 1.252 . S
C200 O203 1.252 . S
C200 O204 1.260 . S
O201 In195 2.266 . S
O201 C198 1.252 . S
O202 In195 2.326 1_556 S
O202 C198 1.260 1_556 S
O203 In195 2.266 . S
O203 C200 1.252 . S
O204 In195 2.326 . S
O204 C200 1.260 . S
C205 O196 1.240 . S
C205 O197 1.252 . S
O206 In195 2.294 1_556 S
O206 C199 1.240 . S
O207 In195 2.326 1_556 S
O207 C199 1.252 . S
In208 O209 2.294 1_554 S
In208 O210 2.326 1_554 S
In208 O214 2.266 . S
In208 O215 2.326 . S
In208 O216 2.266 . S
In208 O217 2.326 1_554 S
In208 O219 2.294 . S
In208 O220 2.326 . S
O209 In208 2.294 1_556 S
O209 C218 1.240 . S
O210 In208 2.326 1_556 S
O210 C218 1.252 . S
C211 O214 1.252 . S
C211 O215 1.260 . S
C212 O219 1.240 . S
C212 O220 1.252 . S
C213 O216 1.252 . S
C213 O217 1.260 1_554 S
O214 In208 2.266 . S
O214 C211 1.252 . S
O215 In208 2.326 . S
O215 C211 1.260 . S
O216 In208 2.266 . S
O216 C213 1.252 . S
O217 In208 2.326 1_556 S
O217 C213 1.260 1_556 S
C218 O209 1.240 . S
C218 O210 1.252 . S
O219 In208 2.294 . S
O219 C212 1.240 . S
O220 In208 2.326 . S
O220 C212 1.252 . S
In221 O222 2.294 . S
In221 O223 2.326 . S
In221 O227 2.266 . S
In221 O228 2.326 1_554 S
In221 O229 2.266 . S
In221 O230 2.326 . S
In221 O232 2.294 1_554 S
In221 O233 2.326 1_554 S
O222 In221 2.294 . S
O222 C231 1.240 . S
O223 In221 2.326 . S
O223 C231 1.252 . S
C224 O227 1.252 . S
C224 O228 1.260 1_554 S
C225 O232 1.240 . S
C225 O233 1.252 . S
C226 O229 1.252 . S
C226 O230 1.260 . S
O227 In221 2.266 . S
O227 C224 1.252 . S
O228 In221 2.326 1_556 S
O228 C224 1.260 1_556 S
O229 In221 2.266 . S
O229 C226 1.252 . S
O230 In221 2.326 . S
O230 C226 1.260 . S
C231 O222 1.240 . S
C231 O223 1.252 . S
O232 In221 2.294 1_556 S
O232 C225 1.240 . S
O233 In221 2.326 1_556 S
O233 C225 1.252 . S
In234 O235 2.294 1_554 S
In234 O236 2.326 1_554 S
In234 O240 2.266 . S
In234 O241 2.326 . S
In234 O242 2.266 . S
In234 O243 2.326 1_554 S
In234 O245 2.294 . S
In234 O246 2.326 . S
O235 In234 2.294 1_556 S
O235 C244 1.240 . S
O236 In234 2.326 1_556 S
O236 C244 1.252 . S
C237 O240 1.252 . S
C237 O241 1.260 . S
C238 O245 1.240 . S
C238 O246 1.252 . S
C239 O242 1.252 . S
C239 O243 1.260 1_554 S
O240 In234 2.266 . S
O240 C237 1.252 . S
O241 In234 2.326 . S
O241 C237 1.260 . S
O242 In234 2.266 . S
O242 C239 1.252 . S
O243 In234 2.326 1_556 S
O243 C239 1.260 1_556 S
C244 O235 1.240 . S
C244 O236 1.252 . S
O245 In234 2.294 . S
O245 C238 1.240 . S
O246 In234 2.326 . S
O246 C238 1.252 . S
In247 O248 2.294 1_554 S
In247 O249 2.326 1_554 S
In247 O253 2.266 . S
In247 O254 2.326 . S
In247 O255 2.266 . S
In247 O256 2.326 1_554 S
In247 O258 2.294 . S
In247 O259 2.326 . S
O248 In247 2.294 1_556 S
O248 C257 1.240 . S
O249 In247 2.326 1_556 S
O249 C257 1.252 . S
C250 O253 1.252 . S
C250 O254 1.260 . S
C251 O258 1.240 . S
C251 O259 1.252 . S
C252 O255 1.252 . S
C252 O256 1.260 1_554 S
O253 In247 2.266 . S
O253 C250 1.252 . S
O254 In247 2.326 . S
O254 C250 1.260 . S
O255 In247 2.266 . S
O255 C252 1.252 . S
O256 In247 2.326 1_556 S
O256 C252 1.260 1_556 S
C257 O248 1.240 . S
C257 O249 1.252 . S
O258 In247 2.294 . S
O258 C251 1.240 . S
O259 In247 2.326 . S
O259 C251 1.252 . S
In260 O261 2.294 . S
In260 O262 2.326 . S
In260 O266 2.266 . S
In260 O267 2.326 1_554 S
In260 O268 2.266 . S
In260 O269 2.326 . S
In260 O271 2.294 1_554 S
In260 O272 2.326 1_554 S
O261 In260 2.294 . S
O261 C270 1.240 . S
O262 In260 2.326 . S
O262 C270 1.252 . S
C263 O266 1.252 . S
C263 O267 1.260 1_554 S
C264 O271 1.240 . S
C264 O272 1.252 . S
C265 O268 1.252 . S
C265 O269 1.260 . S
O266 In260 2.266 . S
O266 C263 1.252 . S
O267 In260 2.326 1_556 S
O267 C263 1.260 1_556 S
O268 In260 2.266 . S
O268 C265 1.252 . S
O269 In260 2.326 . S
O269 C265 1.260 . S
C270 O261 1.240 . S
C270 O262 1.252 . S
O271 In260 2.294 1_556 S
O271 C264 1.240 . S
O272 In260 2.326 1_556 S
O272 C264 1.252 . S
In273 O274 2.294 . S
In273 O275 2.326 . S
In273 O279 2.266 . S
In273 O280 2.326 . S
In273 O281 2.266 . S
In273 O282 2.326 . S
In273 O284 2.294 . S
In273 O285 2.326 . S
O274 In273 2.294 . S
O274 C283 1.240 . S
O275 In273 2.326 . S
O275 C283 1.252 . S
C276 O279 1.252 . S
C276 O280 1.260 . S
C277 O284 1.240 . S
C277 O285 1.252 . S
C278 O281 1.252 . S
C278 O282 1.260 . S
O279 In273 2.266 . S
O279 C276 1.252 . S
O280 In273 2.326 . S
O280 C276 1.260 . S
O281 In273 2.266 . S
O281 C278 1.252 . S
O282 In273 2.326 . S
O282 C278 1.260 . S
C283 O274 1.240 . S
C283 O275 1.252 . S
O284 In273 2.294 . S
O284 C277 1.240 . S
O285 In273 2.326 . S
O285 C277 1.252 . S
In286 O287 2.294 . S
In286 O288 2.326 . S
In286 O292 2.266 . S
In286 O293 2.326 . S
In286 O294 2.266 . S
In286 O295 2.326 . S
In286 O297 2.294 . S
In286 O298 2.326 . S
O287 In286 2.294 . S
O287 C296 1.240 . S
O288 In286 2.326 . S
O288 C296 1.252 . S
C289 O292 1.252 . S
C289 O293 1.260 . S
C290 O297 1.240 . S
C290 O298 1.252 . S
C291 O294 1.252 . S
C291 O295 1.260 . S
O292 In286 2.266 . S
O292 C289 1.252 . S
O293 In286 2.326 . S
O293 C289 1.260 . S
O294 In286 2.266 . S
O294 C291 1.252 . S
O295 In286 2.326 . S
O295 C291 1.260 . S
C296 O287 1.240 . S
C296 O288 1.252 . S
O297 In286 2.294 . S
O297 C290 1.240 . S
O298 In286 2.326 . S
O298 C290 1.252 . S
In299 O300 2.294 . S
In299 O301 2.326 . S
In299 O305 2.266 . S
In299 O306 2.326 . S
In299 O307 2.266 . S
In299 O308 2.326 . S
In299 O310 2.294 . S
In299 O311 2.326 . S
O300 In299 2.294 . S
O300 C309 1.240 . S
O301 In299 2.326 . S
O301 C309 1.252 . S
C302 O305 1.252 . S
C302 O306 1.260 . S
C303 O310 1.240 . S
C303 O311 1.252 . S
C304 O307 1.252 . S
C304 O308 1.260 . S
O305 In299 2.266 . S
O305 C302 1.252 . S
O306 In299 2.326 . S
O306 C302 1.260 . S
O307 In299 2.266 . S
O307 C304 1.252 . S
O308 In299 2.326 . S
O308 C304 1.260 . S
C309 O300 1.240 . S
C309 O301 1.252 . S
O310 In299 2.294 . S
O310 C303 1.240 . S
O311 In299 2.326 . S
O311 C303 1.252 . S
In312 O313 2.294 . S
In312 O314 2.326 . S
In312 O318 2.266 . S
In312 O319 2.326 1_556 S
In312 O320 2.266 . S
In312 O321 2.326 . S
In312 O323 2.294 1_556 S
In312 O324 2.326 1_556 S
O313 In312 2.294 . S
O313 C322 1.240 . S
O314 In312 2.326 . S
O314 C322 1.252 . S
C315 O318 1.252 . S
C315 O319 1.260 1_556 S
C316 O323 1.240 . S
C316 O324 1.252 . S
C317 O320 1.252 . S
C317 O321 1.260 . S
O318 In312 2.266 . S
O318 C315 1.252 . S
O319 In312 2.326 1_554 S
O319 C315 1.260 1_554 S
O320 In312 2.266 . S
O320 C317 1.252 . S
O321 In312 2.326 . S
O321 C317 1.260 . S
C322 O313 1.240 . S
C322 O314 1.252 . S
O323 In312 2.294 1_554 S
O323 C316 1.240 . S
O324 In312 2.326 1_554 S
O324 C316 1.252 . S
In325 O326 2.294 1_556 S
In325 O327 2.326 1_556 S
In325 O331 2.266 . S
In325 O332 2.326 . S
In325 O333 2.266 . S
In325 O334 2.326 1_556 S
In325 O336 2.294 . S
In325 O337 2.326 . S
O326 In325 2.294 1_554 S
O326 C335 1.240 . S
O327 In325 2.326 1_554 S
O327 C335 1.252 . S
C328 O331 1.252 . S
C328 O332 1.260 . S
C329 O336 1.240 . S
C329 O337 1.252 . S
C330 O333 1.252 . S
C330 O334 1.260 1_556 S
O331 In325 2.266 . S
O331 C328 1.252 . S
O332 In325 2.326 . S
O332 C328 1.260 . S
O333 In325 2.266 . S
O333 C330 1.252 . S
O334 In325 2.326 1_554 S
O334 C330 1.260 1_554 S
C335 O326 1.240 . S
C335 O327 1.252 . S
O336 In325 2.294 . S
O336 C329 1.240 . S
O337 In325 2.326 . S
O337 C329 1.252 . S
In338 O339 2.294 1_556 S
In338 O340 2.326 1_556 S
In338 O344 2.266 . S
In338 O345 2.326 . S
In338 O346 2.266 . S
In338 O347 2.326 1_556 S
In338 O349 2.294 . S
In338 O350 2.326 . S
O339 In338 2.294 1_554 S
O339 C348 1.240 . S
O340 In338 2.326 1_554 S
O340 C348 1.252 . S
C341 O344 1.252 . S
C341 O345 1.260 . S
C342 O349 1.240 . S
C342 O350 1.252 . S
C343 O346 1.252 . S
C343 O347 1.260 1_556 S
O344 In338 2.266 . S
O344 C341 1.252 . S
O345 In338 2.326 . S
O345 C341 1.260 . S
O346 In338 2.266 . S
O346 C343 1.252 . S
O347 In338 2.326 1_554 S
O347 C343 1.260 1_554 S
C348 O339 1.240 . S
C348 O340 1.252 . S
O349 In338 2.294 . S
O349 C342 1.240 . S
O350 In338 2.326 . S
O350 C342 1.252 . S
In351 O352 2.294 . S
In351 O353 2.326 . S
In351 O357 2.266 . S
In351 O358 2.326 . S
In351 O359 2.266 . S
In351 O360 2.326 . S
In351 O362 2.294 . S
In351 O363 2.326 . S
O352 In351 2.294 . S
O352 C361 1.240 . S
O353 In351 2.326 . S
O353 C361 1.252 . S
C354 O357 1.252 . S
C354 O358 1.260 . S
C355 O362 1.240 . S
C355 O363 1.252 . S
C356 O359 1.252 . S
C356 O360 1.260 . S
O357 In351 2.266 . S
O357 C354 1.252 . S
O358 In351 2.326 . S
O358 C354 1.260 . S
O359 In351 2.266 . S
O359 C356 1.252 . S
O360 In351 2.326 . S
O360 C356 1.260 . S
C361 O352 1.240 . S
C361 O353 1.252 . S
O362 In351 2.294 . S
O362 C355 1.240 . S
O363 In351 2.326 . S
O363 C355 1.252 . S
In364 O365 2.294 . S
In364 O366 2.326 . S
In364 O370 2.266 . S
In364 O371 2.326 . S
In364 O372 2.266 . S
In364 O373 2.326 . S
In364 O375 2.294 . S
In364 O376 2.326 . S
O365 In364 2.294 . S
O365 C374 1.240 . S
O366 In364 2.326 . S
O366 C374 1.252 . S
C367 O370 1.252 . S
C367 O371 1.260 . S
C368 O375 1.240 . S
C368 O376 1.252 . S
C369 O372 1.252 . S
C369 O373 1.260 . S
O370 In364 2.266 . S
O370 C367 1.252 . S
O371 In364 2.326 . S
O371 C367 1.260 . S
O372 In364 2.266 . S
O372 C369 1.252 . S
O373 In364 2.326 . S
O373 C369 1.260 . S
C374 O365 1.240 . S
C374 O366 1.252 . S
O375 In364 2.294 . S
O375 C368 1.240 . S
O376 In364 2.326 . S
O376 C368 1.252 . S
In377 O378 2.294 . S
In377 O379 2.326 . S
In377 O383 2.266 . S
In377 O384 2.326 . S
In377 O385 2.266 . S
In377 O386 2.326 . S
In377 O388 2.294 . S
In377 O389 2.326 . S
O378 In377 2.294 . S
O378 C387 1.240 . S
O379 In377 2.326 . S
O379 C387 1.252 . S
C380 O383 1.252 . S
C380 O384 1.260 . S
C381 O388 1.240 . S
C381 O389 1.252 . S
C382 O385 1.252 . S
C382 O386 1.260 . S
O383 In377 2.266 . S
O383 C380 1.252 . S
O384 In377 2.326 . S
O384 C380 1.260 . S
O385 In377 2.266 . S
O385 C382 1.252 . S
O386 In377 2.326 . S
O386 C382 1.260 . S
C387 O378 1.240 . S
C387 O379 1.252 . S
O388 In377 2.294 . S
O388 C381 1.240 . S
O389 In377 2.326 . S
O389 C381 1.252 . S
In390 O391 2.294 . S
In390 O392 2.326 . S
In390 O396 2.266 . S
In390 O397 2.326 . S
In390 O398 2.266 . S
In390 O399 2.326 . S
In390 O401 2.294 . S
In390 O402 2.326 . S
O391 In390 2.294 . S
O391 C400 1.240 . S
O392 In390 2.326 . S
O392 C400 1.252 . S
C393 O396 1.252 . S
C393 O397 1.260 . S
C394 O401 1.240 . S
C394 O402 1.252 . S
C395 O398 1.252 . S
C395 O399 1.260 . S
O396 In390 2.266 . S
O396 C393 1.252 . S
O397 In390 2.326 . S
O397 C393 1.260 . S
O398 In390 2.266 . S
O398 C395 1.252 . S
O399 In390 2.326 . S
O399 C395 1.260 . S
C400 O391 1.240 . S
C400 O392 1.252 . S
O401 In390 2.294 . S
O401 C394 1.240 . S
O402 In390 2.326 . S
O402 C394 1.252 . S
In403 O404 2.294 . S
In403 O405 2.326 . S
In403 O409 2.266 . S
In403 O410 2.326 . S
In403 O411 2.266 . S
In403 O412 2.326 . S
In403 O414 2.294 . S
In403 O415 2.326 . S
O404 In403 2.294 . S
O404 C413 1.240 . S
O405 In403 2.326 . S
O405 C413 1.252 . S
C406 O409 1.252 . S
C406 O410 1.260 . S
C407 O414 1.240 . S
C407 O415 1.252 . S
C408 O411 1.252 . S
C408 O412 1.260 . S
O409 In403 2.266 . S
O409 C406 1.252 . S
O410 In403 2.326 . S
O410 C406 1.260 . S
O411 In403 2.266 . S
O411 C408 1.252 . S
O412 In403 2.326 . S
O412 C408 1.260 . S
C413 O404 1.240 . S
C413 O405 1.252 . S
O414 In403 2.294 . S
O414 C407 1.240 . S
O415 In403 2.326 . S
O415 C407 1.252 . S
In416 O417 2.294 . S
In416 O418 2.326 . S
In416 O422 2.266 . S
In416 O423 2.326 . S
In416 O424 2.266 . S
In416 O425 2.326 . S
In416 O427 2.294 . S
In416 O428 2.326 . S
O417 In416 2.294 . S
O417 C426 1.240 . S
O418 In416 2.326 . S
O418 C426 1.252 . S
C419 O422 1.252 . S
C419 O423 1.260 . S
C420 O427 1.240 . S
C420 O428 1.252 . S
C421 O424 1.252 . S
C421 O425 1.260 . S
O422 In416 2.266 . S
O422 C419 1.252 . S
O423 In416 2.326 . S
O423 C419 1.260 . S
O424 In416 2.266 . S
O424 C421 1.252 . S
O425 In416 2.326 . S
O425 C421 1.260 . S
C426 O417 1.240 . S
C426 O418 1.252 . S
O427 In416 2.294 . S
O427 C420 1.240 . S
O428 In416 2.326 . S
O428 C420 1.252 . S
In429 O430 2.294 1_556 S
In429 O431 2.326 1_556 S
In429 O435 2.266 . S
In429 O436 2.326 . S
In429 O437 2.266 . S
In429 O438 2.326 1_556 S
In429 O440 2.294 . S
In429 O441 2.326 . S
O430 In429 2.294 1_554 S
O430 C439 1.240 . S
O431 In429 2.326 1_554 S
O431 C439 1.252 . S
C432 O435 1.252 . S
C432 O436 1.260 . S
C433 O440 1.240 . S
C433 O441 1.252 . S
C434 O437 1.252 . S
C434 O438 1.260 1_556 S
O435 In429 2.266 . S
O435 C432 1.252 . S
O436 In429 2.326 . S
O436 C432 1.260 . S
O437 In429 2.266 . S
O437 C434 1.252 . S
O438 In429 2.326 1_554 S
O438 C434 1.260 1_554 S
C439 O430 1.240 . S
C439 O431 1.252 . S
O440 In429 2.294 . S
O440 C433 1.240 . S
O441 In429 2.326 . S
O441 C433 1.252 . S
In442 O443 2.294 . S
In442 O444 2.326 . S
In442 O448 2.266 . S
In442 O449 2.326 1_556 S
In442 O450 2.266 . S
In442 O451 2.326 . S
In442 O453 2.294 1_556 S
In442 O454 2.326 1_556 S
O443 In442 2.294 . S
O443 C452 1.240 . S
O444 In442 2.326 . S
O444 C452 1.252 . S
C445 O448 1.252 . S
C445 O449 1.260 1_556 S
C446 O453 1.240 . S
C446 O454 1.252 . S
C447 O450 1.252 . S
C447 O451 1.260 . S
O448 In442 2.266 . S
O448 C445 1.252 . S
O449 In442 2.326 1_554 S
O449 C445 1.260 1_554 S
O450 In442 2.266 . S
O450 C447 1.252 . S
O451 In442 2.326 . S
O451 C447 1.260 . S
C452 O443 1.240 . S
C452 O444 1.252 . S
O453 In442 2.294 1_554 S
O453 C446 1.240 . S
O454 In442 2.326 1_554 S
O454 C446 1.252 . S
In455 O456 2.294 1_556 S
In455 O457 2.326 1_556 S
In455 O461 2.266 . S
In455 O462 2.326 . S
In455 O463 2.266 . S
In455 O464 2.326 1_556 S
In455 O466 2.294 . S
In455 O467 2.326 . S
O456 In455 2.294 1_554 S
O456 C465 1.240 . S
O457 In455 2.326 1_554 S
O457 C465 1.252 . S
C458 O461 1.252 . S
C458 O462 1.260 . S
C459 O466 1.240 . S
C459 O467 1.252 . S
C460 O463 1.252 . S
C460 O464 1.260 1_556 S
O461 In455 2.266 . S
O461 C458 1.252 . S
O462 In455 2.326 . S
O462 C458 1.260 . S
O463 In455 2.266 . S
O463 C460 1.252 . S
O464 In455 2.326 1_554 S
O464 C460 1.260 1_554 S
C465 O456 1.240 . S
C465 O457 1.252 . S
O466 In455 2.294 . S
O466 C459 1.240 . S
O467 In455 2.326 . S
O467 C459 1.252 . S
C75 C10 1.701 1_565 S
C43 C23 1.701 1_455 S
C30 C62 1.701 . S
C82 C147 1.701 1_565 S
C101 C121 1.701 1_455 S
C140 C114 1.701 . S
C160 C225 1.701 . S
C173 C199 1.701 . S
C192 C218 1.701 . S
C309 C244 1.701 . S
C257 C283 1.701 . S
C290 C264 1.701 . S
C381 C316 1.701 . S
C355 C335 1.701 . S
C368 C348 1.700 . S
C400 C465 1.701 . S
C413 C439 1.701 . S
C426 C446 1.700 . S
C69 C4 1.571 1_566 S
C17 C49 1.571 1_654 S
C56 C36 1.572 1_556 S
C88 C153 1.571 1_566 S
C95 C127 1.571 1_456 S
C134 C108 1.572 1_554 S
C166 C231 1.571 . S
C205 C179 1.571 . S
C212 C186 1.572 . S
C238 C303 1.571 . S
C251 C277 1.571 . S
C296 C270 1.572 . S
C387 C322 1.571 . S
C329 C361 1.571 . S
C342 C374 1.572 . S
C459 C394 1.571 . S
C433 C407 1.571 . S
C452 C420 1.572 . S
C211 C3 1.752 . S
C226 C16 1.752 . S
C200 C31 1.752 . S
C44 C341 1.752 . S
C55 C317 1.752 . S
C68 C328 1.752 . S
C83 C447 1.752 . S
C94 C458 1.752 . S
C107 C432 1.752 . S
C122 C265 1.752 . S
C237 C133 1.752 . S
C250 C148 1.752 . S
C369 C161 1.752 1_455 S
C174 C382 1.752 . S
C185 C356 1.752 1_545 S
C276 C419 1.752 1_545 S
C291 C393 1.752 1_655 S
C406 C302 1.752 . S
C5 C135 1.382 . S
C146 C18 1.382 . S
C120 C29 1.382 . S
C42 C109 1.382 . S
C57 C81 1.382 . S
C70 C96 1.382 . S
C159 C289 1.382 . S
C304 C172 1.382 . S
C278 C187 1.382 . S
C198 C263 1.382 . S
C213 C239 1.382 . S
C252 C224 1.382 . S
C315 C445 1.382 . S
C460 C330 1.382 . S
C343 C434 1.382 . S
C354 C421 1.382 . S
C395 C367 1.382 . S
C380 C408 1.382 . S
