# Generated by pormake.
# Topology lon, (4)-cn, num edge types: 1
# Building blocks:
#     Node 0, Type 0, BuildingBlock: QUQFOY_clean_sbu_1, # of connection points: 4
#     Node 1, Type 0, BuildingBlock: QUQFOY_clean_sbu_1, # of connection points: 4
#     Node 2, Type 0, BuildingBlock: QUQFOY_clean_sbu_1, # of connection points: 4
#     Node 3, Type 0, BuildingBlock: QUQFOY_clean_sbu_1, # of connection points: 4
#     Edge 4, Type (0, 0), BuildingBlock: ZUJKAS_clean_linker_0, # of connection points: 2
#     Edge 5, Type (0, 0), BuildingBlock: ZUJKAS_clean_linker_0, # of connection points: 2
#     Edge 6, Type (0, 0), BuildingBlock: ZUJKAS_clean_linker_0, # of connection points: 2
#     Edge 7, Type (0, 0), BuildingBlock: ZUJKAS_clean_linker_0, # of connection points: 2
#     Edge 8, Type (0, 0), BuildingBlock: ZUJKAS_clean_linker_0, # of connection points: 2
#     Edge 9, Type (0, 0), BuildingBlock: ZUJKAS_clean_linker_0, # of connection points: 2
#     Edge 10, Type (0, 0), BuildingBlock: ZUJKAS_clean_linker_0, # of connection points: 2
#     Edge 11, Type (0, 0), BuildingBlock: ZUJKAS_clean_linker_0, # of connection points: 2
# Relax obj value: 0.208
# Max RMSD: 0.253
# Mean RMSD: 0.241
data_MOF--net-lon--node1-QUQFOY_clean_sbu_1--edge1-ZUJKAS_clean_linker_0
_symmetry_space_group_name_H-M    P1
_symmetry_Int_Tables_number       1
_symmetry_cell_setting            triclinic
loop_
_symmetry_equiv_pos_as_xyz
'x, y, z'
_cell_length_a     28.43556
_cell_length_b     33.414921
_cell_length_c     58.050087
_cell_angle_alpha  96.47418
_cell_angle_beta   89.971137
_cell_angle_gamma 115.1277
loop_
_atom_site_label
_atom_site_type_symbol
_atom_site_fract_x
_atom_site_fract_y
_atom_site_fract_z
_atom_type_partial_charge
O0 O 0.2733 0.63747 0.07574 0.0
Cd1 Cd 0.34399 0.65945 0.09368 0.0
Cd2 Cd 0.37577 0.71118 0.05427 0.0
O3 O 0.29734 0.67597 0.04589 0.0
O4 O 0.32301 0.62705 0.12146 0.0
O5 O 0.3618 0.70034 0.12411 0.0
C6 C 0.3415 0.66486 0.13431 0.0
C7 C 0.41363 0.78326 0.04323 0.0
C8 C 0.26237 0.64734 0.05657 0.0
C9 C 0.42189 0.64639 0.06167 0.0
O10 O 0.41995 0.67574 0.05006 0.0
O11 O 0.39538 0.6361 0.07948 0.0
O12 O 0.39811 0.74825 0.02824 0.0
O13 O 0.40796 0.77762 0.06486 0.0
O14 O 0.62815 0.2355 0.56451 0.0
Cd15 Cd 0.67083 0.29983 0.57985 0.0
Cd16 Cd 0.60621 0.31711 0.55141 0.0
O17 O 0.56904 0.24874 0.54648 0.0
O18 O 0.70304 0.29451 0.60907 0.0
O19 O 0.64461 0.32195 0.60838 0.0
C20 C 0.67441 0.31056 0.62027 0.0
C21 C 0.55365 0.35502 0.55073 0.0
C22 C 0.58615 0.22158 0.55213 0.0
C23 C 0.72131 0.35612 0.5428 0.0
O24 O 0.67541 0.34772 0.53577 0.0
O25 O 0.72909 0.34222 0.56129 0.0
O26 O 0.55926 0.33209 0.5325 0.0
O27 O 0.57719 0.35583 0.56991 0.0
O28 O 0.38706 0.75128 0.43742 0.0
Cd29 Cd 0.36488 0.68636 0.42291 0.0
Cd30 Cd 0.28363 0.67074 0.45144 0.0
O31 O 0.31464 0.73911 0.45521 0.0
O32 O 0.40112 0.68973 0.3934 0.0
O33 O 0.31547 0.66324 0.39479 0.0
C34 C 0.35608 0.67362 0.38255 0.0
C35 C 0.19331 0.63298 0.45255 0.0
C36 C 0.35891 0.76585 0.44936 0.0
C37 C 0.35968 0.63206 0.46082 0.0
O38 O 0.32248 0.64105 0.46773 0.0
O39 O 0.38093 0.64481 0.44208 0.0
O40 O 0.22207 0.65691 0.47051 0.0
O41 O 0.21572 0.63111 0.43338 0.0
O42 O 0.63247 0.35713 0.92714 0.0
Cd43 Cd 0.68156 0.33476 0.90975 0.0
Cd44 Cd 0.66183 0.28455 0.94951 0.0
O45 O 0.61789 0.3194 0.9573 0.0
O46 O 0.69261 0.36528 0.88131 0.0
O47 O 0.65857 0.29215 0.8799 0.0
C48 C 0.67349 0.32684 0.86904 0.0
C49 C 0.62834 0.21281 0.96096 0.0
C50 C 0.61145 0.34765 0.94632 0.0
C51 C 0.77248 0.34962 0.94211 0.0
O52 O 0.74127 0.32054 0.95388 0.0
O53 O 0.75626 0.35916 0.92405 0.0
O54 O 0.6472 0.24808 0.97579 0.0
O55 O 0.62848 0.21801 0.93925 0.0
H56 H 0.29262 0.59561 0.15925 0.0
H57 H 0.29129 0.59717 0.20132 0.0
H58 H 0.38567 0.7391 0.20959 0.0
H59 H 0.38637 0.73798 0.16725 0.0
H60 H 0.37368 0.62179 0.2319 0.0
H61 H 0.26915 0.72767 0.25297 0.0
H62 H 0.2707 0.7033 0.22376 0.0
H63 H 0.32547 0.75265 0.23645 0.0
C64 C 0.31282 0.6273 0.16997 0.0
C65 C 0.33961 0.66673 0.15989 0.0
C66 C 0.312 0.62809 0.19404 0.0
C67 C 0.33788 0.66828 0.20862 0.0
C68 C 0.36453 0.70783 0.19867 0.0
H69 H 0.43502 0.69438 0.35284 0.0
H70 H 0.42907 0.69162 0.31072 0.0
C71 C 0.36516 0.70711 0.17449 0.0
C72 C 0.3388 0.66801 0.23416 0.0
H73 H 0.30679 0.71058 0.28486 0.0
C74 C 0.3589 0.64111 0.24347 0.0
C75 C 0.31885 0.69273 0.2492 0.0
C76 C 0.29435 0.72041 0.24012 0.0
C77 C 0.3603 0.63874 0.26742 0.0
C78 C 0.34201 0.66463 0.28254 0.0
C79 C 0.32111 0.69099 0.27324 0.0
C80 C 0.34515 0.66543 0.3081 0.0
C81 C 0.38068 0.60802 0.27626 0.0
C82 C 0.29994 0.6523 0.32069 0.0
C83 C 0.30319 0.65402 0.34488 0.0
C84 C 0.35179 0.6692 0.35688 0.0
C85 C 0.39692 0.68221 0.34415 0.0
C86 C 0.39362 0.6805 0.32004 0.0
H87 H 0.37914 0.58168 0.26236 0.0
H88 H 0.42189 0.62761 0.28258 0.0
H89 H 0.35816 0.59182 0.2909 0.0
H90 H 0.26215 0.64073 0.3118 0.0
H91 H 0.26774 0.64399 0.35418 0.0
H92 H 0.61899 0.34277 0.64938 0.0
H93 H 0.61758 0.34562 0.69176 0.0
H94 H 0.72702 0.28742 0.69134 0.0
H95 H 0.72937 0.28513 0.64921 0.0
H96 H 0.58935 0.27577 0.71884 0.0
H97 H 0.79472 0.39724 0.73923 0.0
H98 H 0.76277 0.38807 0.711 0.0
H99 H 0.7874 0.34986 0.71908 0.0
C100 C 0.6431 0.33096 0.65835 0.0
C101 C 0.67458 0.31404 0.64593 0.0
C102 C 0.6421 0.33246 0.68254 0.0
C103 C 0.67271 0.31726 0.69472 0.0
C104 C 0.70391 0.30016 0.68235 0.0
H105 H 0.64227 0.25163 0.8373 0.0
H106 H 0.63976 0.24775 0.79481 0.0
C107 C 0.70504 0.29875 0.65823 0.0
C108 C 0.67143 0.31851 0.72033 0.0
H109 H 0.74834 0.36018 0.77031 0.0
C110 C 0.62402 0.29436 0.73014 0.0
C111 C 0.71666 0.34306 0.73501 0.0
C112 C 0.76819 0.37138 0.7256 0.0
C113 C 0.62076 0.29369 0.75427 0.0
C114 C 0.6663 0.31727 0.76888 0.0
C115 C 0.71356 0.34176 0.75905 0.0
C116 C 0.66572 0.31869 0.79451 0.0
C117 C 0.56848 0.26851 0.76393 0.0
C118 C 0.68184 0.35983 0.8084 0.0
C119 C 0.68373 0.36217 0.83255 0.0
C120 C 0.66965 0.32338 0.84339 0.0
C121 C 0.65312 0.28206 0.82947 0.0
C122 C 0.65138 0.27977 0.80521 0.0
H123 H 0.53598 0.26145 0.75117 0.0
H124 H 0.5658 0.23619 0.76837 0.0
H125 H 0.56346 0.28746 0.77998 0.0
H126 H 0.69317 0.39027 0.80053 0.0
H127 H 0.69659 0.39455 0.84272 0.0
H128 H 0.42965 0.57735 0.0801 0.0
H129 H 0.46367 0.52636 0.06169 0.0
H130 H 0.51126 0.60398 0.00437 0.0
H131 H 0.47713 0.65505 0.0225 0.0
H132 H 0.44545 0.51156 0.99198 0.0
H133 H 0.61304 0.53898 0.05108 0.0
H134 H 0.5534 0.53019 0.06487 0.0
H135 H 0.58622 0.5792 0.05078 0.0
C136 C 0.44834 0.58419 0.06382 0.0
C137 C 0.45034 0.62016 0.05271 0.0
C138 C 0.46789 0.55504 0.05336 0.0
C139 C 0.49003 0.56154 0.03173 0.0
C140 C 0.49428 0.59849 0.0211 0.0
H141 H 0.59807 0.41591 0.92991 0.0
H142 H 0.56438 0.46516 0.95049 0.0
C143 C 0.47485 0.62769 0.03154 0.0
C144 C 0.50444 0.52772 0.01918 0.0
H145 H 0.58709 0.47818 0.02124 0.0
C146 C 0.47654 0.50431 0.9983 0.0
C147 C 0.54457 0.51814 0.02767 0.0
C148 C 0.57641 0.54311 0.04974 0.0
C149 C 0.48757 0.47129 0.98568 0.0
C150 C 0.52826 0.46213 0.99396 0.0
C151 C 0.55583 0.48525 0.01497 0.0
C152 C 0.54424 0.42989 0.9807 0.0
C153 C 0.45505 0.44605 0.96379 0.0
C154 C 0.54408 0.3937 0.99087 0.0
C155 C 0.56361 0.36555 0.9792 0.0
C156 C 0.58398 0.37331 0.9572 0.0
C157 C 0.58244 0.40878 0.94676 0.0
C158 C 0.56302 0.43693 0.95847 0.0
H159 H 0.41676 0.44756 0.96358 0.0
H160 H 0.47576 0.46118 0.94857 0.0
H161 H 0.44835 0.41056 0.96185 0.0
H162 H 0.52983 0.3878 0.00805 0.0
H163 H 0.56425 0.33861 0.98777 0.0
H164 H 0.12475 0.56244 0.42269 0.0
H165 H 0.03459 0.5128 0.42987 0.0
H166 H 0.0462 0.59373 0.49489 0.0
H167 H 0.13528 0.64322 0.48782 0.0
H168 H 0.00732 0.46464 0.46735 0.0
H169 H 0.90463 0.5727 0.46791 0.0
H170 H 0.96658 0.58634 0.45503 0.0
H171 H 0.96366 0.59903 0.48584 0.0
C172 C 0.10752 0.57015 0.43822 0.0
C173 C 0.13705 0.6066 0.45473 0.0
C174 C 0.05617 0.54175 0.44232 0.0
C175 C 0.03355 0.54992 0.46278 0.0
C176 C 0.06243 0.58731 0.47876 0.0
H177 H 0.82545 0.38504 0.55333 0.0
H178 H 0.89799 0.42835 0.53064 0.0
C179 C 0.11357 0.6154 0.47477 0.0
C180 C 0.98217 0.51727 0.469 0.0
H181 H 0.86759 0.51045 0.49032 0.0
C182 C 0.97625 0.47429 0.47192 0.0
C183 C 0.94145 0.52969 0.47467 0.0
C184 C 0.94416 0.57433 0.47046 0.0
C185 C 0.93205 0.44439 0.48179 0.0
C186 C 0.89339 0.45826 0.48931 0.0
C187 C 0.89773 0.50014 0.48495 0.0
C188 C 0.84934 0.43076 0.50263 0.0
C189 C 0.92762 0.39852 0.4844 0.0
C190 C 0.79801 0.41879 0.49473 0.0
C191 C 0.75651 0.39452 0.50779 0.0
C192 C 0.76556 0.38185 0.52907 0.0
C193 C 0.8171 0.39401 0.53697 0.0
C194 C 0.85859 0.41845 0.52392 0.0
H195 H 0.95054 0.3883 0.47148 0.0
H196 H 0.94326 0.3988 0.50196 0.0
H197 H 0.88649 0.37329 0.48235 0.0
H198 H 0.79005 0.42826 0.47844 0.0
H199 H 0.71732 0.38572 0.50116 0.0
H200 H 0.6219 0.19385 0.00557 0.0
H201 H 0.5867 0.12079 0.01922 0.0
H202 H 0.55082 0.05754 0.94847 0.0
H203 H 0.58652 0.13088 0.93453 0.0
H204 H 0.48496 0.05253 0.01108 0.0
H205 H 0.6334 -0.00259 0.97702 0.0
H206 H 0.64334 0.05485 0.9796 0.0
H207 H 0.60292 0.0157 0.95602 0.0
C208 C 0.60675 0.16447 0.99284 0.0
C209 C 0.60716 0.16819 0.96893 0.0
C210 C 0.58658 0.12273 0.00071 0.0
C211 C 0.56671 0.08381 0.98487 0.0
C212 C 0.5668 0.08724 0.96097 0.0
H213 H 0.42621 0.80307 0.99876 0.0
H214 H 0.46298 0.87642 0.98548 0.0
C215 C 0.58696 0.12912 0.95304 0.0
C216 C 0.54485 0.03977 0.99356 0.0
H217 H 0.56141 0.94448 0.99396 0.0
C218 C 0.50169 0.0289 0.00741 0.0
C219 C 0.56691 0.00915 0.98876 0.0
C220 C 0.61447 0.01983 0.9747 0.0
C221 C 0.47931 0.98778 0.01624 0.0
C222 C 0.50139 0.95714 0.01147 0.0
C223 C 0.54464 0.96809 0.99765 0.0
C224 C 0.47921 0.91288 0.01996 0.0
C225 C 0.43145 0.97707 0.0301 0.0
C226 C 0.47658 0.90898 0.04384 0.0
C227 C 0.45528 0.8669 0.05155 0.0
C228 C 0.43668 0.82809 0.03549 0.0
C229 C 0.44007 0.83225 0.01162 0.0
C230 C 0.46116 0.87418 0.00397 0.0
H231 H 0.41208 -0.00102 0.02729 0.0
H232 H 0.40297 0.94184 0.02547 0.0
H233 H 0.4428 0.98212 0.04885 0.0
H234 H 0.49126 0.93846 0.0565 0.0
H235 H 0.45351 0.8648 0.07003 0.0
H236 H 0.55497 0.42458 0.58127 0.0
H237 H 0.51443 0.47456 0.57465 0.0
H238 H 0.44625 0.39574 0.50905 0.0
H239 H 0.48589 0.34596 0.51554 0.0
H240 H 0.53592 0.52409 0.53763 0.0
H241 H 0.32529 0.41604 0.53628 0.0
H242 H 0.37337 0.40198 0.54905 0.0
H243 H 0.35818 0.39001 0.51821 0.0
C244 C 0.53027 0.4174 0.56573 0.0
C245 C 0.52371 0.38149 0.54888 0.0
C246 C 0.5073 0.44598 0.56195 0.0
C247 C 0.47683 0.4385 0.54149 0.0
C248 C 0.46864 0.4016 0.52518 0.0
H249 H 0.43542 0.60336 0.45101 0.0
H250 H 0.46436 0.56052 0.47419 0.0
C251 C 0.49173 0.37336 0.52884 0.0
C252 C 0.4582 0.47145 0.5356 0.0
H253 H 0.3509 0.47872 0.51409 0.0
C254 C 0.4953 0.51454 0.53296 0.0
C255 C 0.40518 0.45917 0.5298 0.0
C256 C 0.36319 0.41439 0.53372 0.0
C257 C 0.48121 0.54465 0.52316 0.0
C258 C 0.42887 0.53089 0.51544 0.0
C259 C 0.39122 0.48894 0.5196 0.0
C260 C 0.41273 0.55842 0.50193 0.0
C261 C 0.52268 0.59058 0.52077 0.0
C262 C 0.3732 0.57048 0.50954 0.0
C263 C 0.35618 0.59453 0.49621 0.0
C264 C 0.37821 0.60682 0.47493 0.0
C265 C 0.41782 0.59465 0.46735 0.0
C266 C 0.43471 0.57048 0.48068 0.0
H267 H 0.55545 0.60067 0.53386 0.0
H268 H 0.53854 0.59049 0.5033 0.0
H269 H 0.5067 0.61579 0.52275 0.0
H270 H 0.35544 0.56118 0.5258 0.0
H271 H 0.32559 0.60334 0.5026 0.0
H272 H 0.18001 0.57912 0.07255 0.0
H273 H 0.09766 0.53001 0.05147 0.0
H274 H 0.14263 0.60778 0.99412 0.0
H275 H 0.22556 0.65684 0.0149 0.0
H276 H 0.01788 0.54663 0.03283 0.0
H277 H 0.1124 0.48147 0.96403 0.0
H278 H 0.14652 0.51333 0.9909 0.0
H279 H 0.1354 0.54097 0.9681 0.0
C280 C 0.17227 0.58616 0.05556 0.0
C281 C 0.20967 0.62167 0.04532 0.0
C282 C 0.1252 0.55798 0.04353 0.0
C283 C 0.11469 0.56472 0.02106 0.0
C284 C 0.15064 0.60144 0.01124 0.0
H285 H 0.84884 0.41878 0.92357 0.0
H286 H 0.93362 0.47035 0.94201 0.0
C287 C 0.19782 0.62963 0.02324 0.0
C288 C 0.06649 0.53267 0.0078 0.0
H289 H 0.02117 0.45608 0.95945 0.0
C290 C 0.01855 0.52681 0.0168 0.0
C291 C 0.06767 0.50688 0.9869 0.0
C292 C 0.1182 0.51056 0.97695 0.0
C293 C 0.97158 0.49598 0.00536 0.0
C294 C 0.97277 0.46993 0.98459 0.0
C295 C 0.02062 0.47611 0.97542 0.0
C296 C 0.92441 0.436 0.97229 0.0
C297 C 0.92098 0.49182 0.01542 0.0
C298 C 0.89236 0.39872 0.98284 0.0
C299 C 0.84401 0.36914 0.97237 0.0
C300 C 0.82693 0.37636 0.95114 0.0
C301 C 0.86064 0.41234 0.93997 0.0
C302 C 0.90906 0.44189 0.95047 0.0
H303 H 0.92654 0.52088 0.02833 0.0
H304 H 0.89237 0.48865 0.00151 0.0
H305 H 0.90429 0.46142 0.0243 0.0
H306 H 0.90411 0.39327 0.99951 0.0
H307 H 0.81926 0.34162 0.98139 0.0
H308 H 0.61514 0.15476 0.55761 0.0
H309 H 0.57309 0.07733 0.53961 0.0
H310 H 0.45275 0.10288 0.50823 0.0
H311 H 0.49469 0.18045 0.52587 0.0
H312 H 0.47185 0.01102 0.54294 0.0
H313 H 0.51036 0.05283 0.45279 0.0
H314 H 0.54246 0.09244 0.47796 0.0
H315 H 0.47683 0.08064 0.46916 0.0
C316 C 0.57958 0.14389 0.54699 0.0
C317 C 0.55854 0.17389 0.543 0.0
C318 C 0.55566 0.09968 0.53673 0.0
C319 C 0.51047 0.08478 0.52228 0.0
C320 C 0.48826 0.1141 0.51894 0.0
H321 H 0.3076 0.80845 0.47375 0.0
H322 H 0.34308 0.88641 0.49072 0.0
C323 C 0.51216 0.15832 0.52915 0.0
C324 C 0.48689 0.03862 0.51051 0.0
H325 H 0.45784 0.97719 0.45706 0.0
C326 C 0.46872 0.00354 0.52417 0.0
C327 C 0.48357 0.02919 0.48604 0.0
C328 C 0.50473 0.06569 0.47058 0.0
C329 C 0.4468 0.95904 0.51398 0.0
C330 C 0.44233 0.94961 0.48949 0.0
C331 C 0.46093 0.98469 0.47583 0.0
C332 C 0.41972 0.90341 0.47778 0.0
C333 C 0.42964 0.92253 0.52948 0.0
C334 C 0.45055 0.88778 0.4641 0.0
C335 C 0.43034 0.84332 0.45421 0.0
C336 C 0.3789 0.81383 0.45784 0.0
C337 C 0.34753 0.83017 0.4708 0.0
C338 C 0.36776 0.87463 0.48062 0.0
H339 H 0.44699 0.93524 0.54745 0.0
H340 H 0.3867 0.90811 0.53034 0.0
H341 H 0.44046 0.89542 0.5225 0.0
H342 H 0.4907 0.9097 0.46161 0.0
H343 H 0.45546 0.83185 0.44426 0.0
loop_
_geom_bond_atom_site_label_1
_geom_bond_atom_site_label_2
_geom_bond_distance
_geom_bond_site_symmetry_2
_ccdc_geom_bond_type
O0 Cd1 2.223 . S
O0 C8 1.315 . S
Cd1 O0 2.223 . S
Cd1 O4 2.297 . S
Cd1 O5 2.439 . S
Cd1 O11 2.240 . S
Cd2 O3 2.240 . S
Cd2 O10 2.223 . S
Cd2 O12 2.297 . S
Cd2 O13 2.439 . S
O3 Cd2 2.240 . S
O3 C8 1.279 . S
O4 Cd1 2.297 . S
O4 C6 1.247 . S
O5 Cd1 2.439 . S
O5 C6 1.208 . S
C6 O4 1.247 . S
C6 O5 1.208 . S
C7 O12 1.247 . S
C7 O13 1.208 . S
C8 O0 1.315 . S
C8 O3 1.279 . S
C9 O10 1.315 . S
C9 O11 1.279 . S
O10 Cd2 2.223 . S
O10 C9 1.315 . S
O11 Cd1 2.240 . S
O11 C9 1.279 . S
O12 Cd2 2.297 . S
O12 C7 1.247 . S
O13 Cd2 2.439 . S
O13 C7 1.208 . S
O14 Cd15 2.223 . S
O14 C22 1.315 . S
Cd15 O14 2.223 . S
Cd15 O18 2.297 . S
Cd15 O19 2.439 . S
Cd15 O25 2.240 . S
Cd16 O17 2.240 . S
Cd16 O24 2.223 . S
Cd16 O26 2.297 . S
Cd16 O27 2.439 . S
O17 Cd16 2.240 . S
O17 C22 1.279 . S
O18 Cd15 2.297 . S
O18 C20 1.247 . S
O19 Cd15 2.439 . S
O19 C20 1.208 . S
C20 O18 1.247 . S
C20 O19 1.208 . S
C21 O26 1.247 . S
C21 O27 1.208 . S
C22 O14 1.315 . S
C22 O17 1.279 . S
C23 O24 1.315 . S
C23 O25 1.279 . S
O24 Cd16 2.223 . S
O24 C23 1.315 . S
O25 Cd15 2.240 . S
O25 C23 1.279 . S
O26 Cd16 2.297 . S
O26 C21 1.247 . S
O27 Cd16 2.439 . S
O27 C21 1.208 . S
O28 Cd29 2.223 . S
O28 C36 1.315 . S
Cd29 O28 2.223 . S
Cd29 O32 2.297 . S
Cd29 O33 2.439 . S
Cd29 O39 2.240 . S
Cd30 O31 2.240 . S
Cd30 O38 2.223 . S
Cd30 O40 2.297 . S
Cd30 O41 2.439 . S
O31 Cd30 2.240 . S
O31 C36 1.279 . S
O32 Cd29 2.297 . S
O32 C34 1.247 . S
O33 Cd29 2.439 . S
O33 C34 1.208 . S
C34 O32 1.247 . S
C34 O33 1.208 . S
C35 O40 1.247 . S
C35 O41 1.208 . S
C36 O28 1.315 . S
C36 O31 1.279 . S
C37 O38 1.315 . S
C37 O39 1.279 . S
O38 Cd30 2.223 . S
O38 C37 1.315 . S
O39 Cd29 2.240 . S
O39 C37 1.279 . S
O40 Cd30 2.297 . S
O40 C35 1.247 . S
O41 Cd30 2.439 . S
O41 C35 1.208 . S
O42 Cd43 2.223 . S
O42 C50 1.315 . S
Cd43 O42 2.223 . S
Cd43 O46 2.297 . S
Cd43 O47 2.439 . S
Cd43 O53 2.240 . S
Cd44 O45 2.240 . S
Cd44 O52 2.223 . S
Cd44 O54 2.297 . S
Cd44 O55 2.439 . S
O45 Cd44 2.240 . S
O45 C50 1.279 . S
O46 Cd43 2.297 . S
O46 C48 1.247 . S
O47 Cd43 2.439 . S
O47 C48 1.208 . S
C48 O46 1.247 . S
C48 O47 1.208 . S
C49 O54 1.247 . S
C49 O55 1.208 . S
C50 O42 1.315 . S
C50 O45 1.279 . S
C51 O52 1.315 . S
C51 O53 1.279 . S
O52 Cd44 2.223 . S
O52 C51 1.315 . S
O53 Cd43 2.240 . S
O53 C51 1.279 . S
O54 Cd44 2.297 . S
O54 C49 1.247 . S
O55 Cd44 2.439 . S
O55 C49 1.208 . S
H56 C64 0.929 . S
H57 C66 0.930 . S
H58 C68 0.930 . S
H59 C71 0.929 . S
H60 C74 0.930 . S
H61 C76 0.960 . S
H62 C76 0.960 . S
H63 C76 0.960 . S
C64 H56 0.929 . S
C64 C65 1.377 . S
C64 C66 1.384 . S
C65 C64 1.377 . S
C65 C71 1.390 . S
C66 H57 0.930 . S
C66 C64 1.384 . S
C66 C67 1.372 . S
C67 C66 1.372 . S
C67 C68 1.400 . S
C67 C72 1.490 . S
C68 H58 0.930 . S
C68 C67 1.400 . S
C68 C71 1.386 . S
H69 C85 0.930 . S
H70 C86 0.931 . S
C71 H59 0.929 . S
C71 C65 1.390 . S
C71 C68 1.386 . S
C72 C67 1.490 . S
C72 C74 1.395 . S
C72 C75 1.403 . S
H73 C79 0.930 . S
C74 H60 0.930 . S
C74 C72 1.395 . S
C74 C77 1.403 . S
C75 C72 1.403 . S
C75 C76 1.524 . S
C75 C79 1.400 . S
C76 H61 0.960 . S
C76 H62 0.960 . S
C76 H63 0.960 . S
C76 C75 1.524 . S
C77 C74 1.403 . S
C77 C78 1.392 . S
C77 C81 1.495 . S
C78 C77 1.392 . S
C78 C79 1.385 . S
C78 C80 1.478 . S
C79 H73 0.930 . S
C79 C75 1.400 . S
C79 C78 1.385 . S
C80 C78 1.478 . S
C80 C82 1.381 . S
C80 C86 1.383 . S
C81 C77 1.495 . S
C81 H87 0.959 . S
C81 H88 0.961 . S
C81 H89 0.960 . S
C82 C80 1.381 . S
C82 C83 1.394 . S
C82 H90 0.930 . S
C83 C82 1.394 . S
C83 C84 1.383 . S
C83 H91 0.929 . S
C84 C83 1.383 . S
C84 C85 1.377 . S
C85 H69 0.930 . S
C85 C84 1.377 . S
C85 C86 1.379 . S
C86 H70 0.931 . S
C86 C80 1.383 . S
C86 C85 1.379 . S
H87 C81 0.959 . S
H88 C81 0.961 . S
H89 C81 0.960 . S
H90 C82 0.930 . S
H91 C83 0.929 . S
H92 C100 0.929 . S
H93 C102 0.930 . S
H94 C104 0.930 . S
H95 C107 0.929 . S
H96 C110 0.930 . S
H97 C112 0.960 . S
H98 C112 0.960 . S
H99 C112 0.960 . S
C100 H92 0.929 . S
C100 C101 1.377 . S
C100 C102 1.384 . S
C101 C100 1.377 . S
C101 C107 1.390 . S
C102 H93 0.930 . S
C102 C100 1.384 . S
C102 C103 1.372 . S
C103 C102 1.372 . S
C103 C104 1.400 . S
C103 C108 1.490 . S
C104 H94 0.930 . S
C104 C103 1.400 . S
C104 C107 1.386 . S
H105 C121 0.930 . S
H106 C122 0.931 . S
C107 H95 0.929 . S
C107 C101 1.390 . S
C107 C104 1.386 . S
C108 C103 1.490 . S
C108 C110 1.395 . S
C108 C111 1.403 . S
H109 C115 0.930 . S
C110 H96 0.930 . S
C110 C108 1.395 . S
C110 C113 1.403 . S
C111 C108 1.403 . S
C111 C112 1.524 . S
C111 C115 1.400 . S
C112 H97 0.960 . S
C112 H98 0.960 . S
C112 H99 0.960 . S
C112 C111 1.524 . S
C113 C110 1.403 . S
C113 C114 1.392 . S
C113 C117 1.495 . S
C114 C113 1.392 . S
C114 C115 1.385 . S
C114 C116 1.478 . S
C115 H109 0.930 . S
C115 C111 1.400 . S
C115 C114 1.385 . S
C116 C114 1.478 . S
C116 C118 1.381 . S
C116 C122 1.383 . S
C117 C113 1.495 . S
C117 H123 0.959 . S
C117 H124 0.961 . S
C117 H125 0.960 . S
C118 C116 1.381 . S
C118 C119 1.394 . S
C118 H126 0.930 . S
C119 C118 1.394 . S
C119 C120 1.383 . S
C119 H127 0.929 . S
C120 C119 1.383 . S
C120 C121 1.377 . S
C121 H105 0.930 . S
C121 C120 1.377 . S
C121 C122 1.379 . S
C122 H106 0.931 . S
C122 C116 1.383 . S
C122 C121 1.379 . S
H123 C117 0.959 . S
H124 C117 0.961 . S
H125 C117 0.960 . S
H126 C118 0.930 . S
H127 C119 0.929 . S
H128 C136 0.929 . S
H129 C138 0.930 . S
H130 C140 0.930 . S
H131 C143 0.929 . S
H132 C146 0.930 . S
H133 C148 0.960 . S
H134 C148 0.960 . S
H135 C148 0.960 . S
C136 H128 0.929 . S
C136 C137 1.377 . S
C136 C138 1.384 . S
C137 C136 1.377 . S
C137 C143 1.390 . S
C138 H129 0.930 . S
C138 C136 1.384 . S
C138 C139 1.372 . S
C139 C138 1.372 . S
C139 C140 1.400 . S
C139 C144 1.506 . S
C140 H130 0.930 . S
C140 C139 1.400 . S
C140 C143 1.386 . S
H141 C157 0.930 . S
H142 C158 0.931 . S
C143 H131 0.929 . S
C143 C137 1.390 . S
C143 C140 1.386 . S
C144 C139 1.506 . S
C144 C146 1.358 1_554 S
C144 C147 1.424 . S
H145 C151 0.931 1_554 S
C146 H132 0.930 . S
C146 C144 1.358 1_556 S
C146 C149 1.403 . S
C147 C144 1.424 . S
C147 C148 1.524 . S
C147 C151 1.400 1_554 S
C148 H133 0.960 . S
C148 H134 0.960 . S
C148 H135 0.960 . S
C148 C147 1.524 . S
C149 C146 1.403 . S
C149 C150 1.392 . S
C149 C153 1.495 . S
C150 C149 1.392 . S
C150 C151 1.384 . S
C150 C152 1.478 . S
C151 H145 0.931 1_556 S
C151 C147 1.400 1_556 S
C151 C150 1.384 . S
C152 C150 1.478 . S
C152 C154 1.381 . S
C152 C158 1.383 . S
C153 C149 1.495 . S
C153 H159 0.959 . S
C153 H160 0.961 . S
C153 H161 0.960 . S
C154 C152 1.381 . S
C154 C155 1.394 . S
C154 H162 0.930 . S
C155 C154 1.394 . S
C155 C156 1.383 . S
C155 H163 0.929 . S
C156 C155 1.383 . S
C156 C157 1.377 . S
C157 H141 0.930 . S
C157 C156 1.377 . S
C157 C158 1.379 . S
C158 H142 0.931 . S
C158 C152 1.383 . S
C158 C157 1.379 . S
H159 C153 0.959 . S
H160 C153 0.961 . S
H161 C153 0.960 . S
H162 C154 0.930 . S
H163 C155 0.929 . S
H164 C172 0.929 . S
H165 C174 0.930 . S
H166 C176 0.930 . S
H167 C179 0.929 . S
H168 C182 0.930 . S
H169 C184 0.960 . S
H170 C184 0.960 . S
H171 C184 0.960 . S
C172 H164 0.929 . S
C172 C173 1.377 . S
C172 C174 1.384 . S
C173 C172 1.377 . S
C173 C179 1.390 . S
C174 H165 0.930 . S
C174 C172 1.384 . S
C174 C175 1.372 . S
C175 C174 1.372 . S
C175 C176 1.400 . S
C175 C180 1.490 1_455 S
C176 H166 0.930 . S
C176 C175 1.400 . S
C176 C179 1.386 . S
H177 C193 0.930 . S
H178 C194 0.931 . S
C179 H167 0.929 . S
C179 C173 1.390 . S
C179 C176 1.386 . S
C180 C175 1.490 1_655 S
C180 C182 1.395 . S
C180 C183 1.403 . S
H181 C187 0.930 . S
C182 H168 0.930 . S
C182 C180 1.395 . S
C182 C185 1.403 . S
C183 C180 1.403 . S
C183 C184 1.524 . S
C183 C187 1.400 . S
C184 H169 0.960 . S
C184 H170 0.960 . S
C184 H171 0.960 . S
C184 C183 1.524 . S
C185 C182 1.403 . S
C185 C186 1.392 . S
C185 C189 1.495 . S
C186 C185 1.392 . S
C186 C187 1.385 . S
C186 C188 1.478 . S
C187 H181 0.930 . S
C187 C183 1.400 . S
C187 C186 1.385 . S
C188 C186 1.478 . S
C188 C190 1.381 . S
C188 C194 1.383 . S
C189 C185 1.495 . S
C189 H195 0.959 . S
C189 H196 0.961 . S
C189 H197 0.960 . S
C190 C188 1.381 . S
C190 C191 1.394 . S
C190 H198 0.930 . S
C191 C190 1.394 . S
C191 C192 1.383 . S
C191 H199 0.929 . S
C192 C191 1.383 . S
C192 C193 1.377 . S
C193 H177 0.930 . S
C193 C192 1.377 . S
C193 C194 1.379 . S
C194 H178 0.931 . S
C194 C188 1.383 . S
C194 C193 1.379 . S
H195 C189 0.959 . S
H196 C189 0.961 . S
H197 C189 0.960 . S
H198 C190 0.930 . S
H199 C191 0.929 . S
H200 C208 0.929 . S
H201 C210 0.930 . S
H202 C212 0.930 . S
H203 C215 0.929 . S
H204 C218 0.930 . S
H205 C220 0.960 . S
H206 C220 0.960 . S
H207 C220 0.973 . S
C208 H200 0.929 . S
C208 C209 1.377 . S
C208 C210 1.384 . S
C209 C208 1.377 . S
C209 C215 1.390 . S
C210 H201 0.930 . S
C210 C208 1.384 . S
C210 C211 1.372 . S
C211 C210 1.372 . S
C211 C212 1.400 . S
C211 C216 1.490 . S
C212 H202 0.930 . S
C212 C211 1.400 . S
C212 C215 1.386 . S
H213 C229 0.930 . S
H214 C230 0.931 . S
C215 H203 0.929 . S
C215 C209 1.390 . S
C215 C212 1.386 . S
C216 C211 1.490 . S
C216 C218 1.395 1_556 S
C216 C219 1.403 1_545 S
H217 C223 0.930 . S
C218 H204 0.930 . S
C218 C216 1.395 1_554 S
C218 C221 1.403 . S
C219 C216 1.403 1_565 S
C219 C220 1.524 . S
C219 C223 1.400 . S
C220 H205 0.960 . S
C220 H206 0.960 . S
C220 H207 0.973 . S
C220 C219 1.524 . S
C221 C218 1.403 . S
C221 C222 1.392 1_545 S
C221 C225 1.495 . S
C222 C221 1.392 1_565 S
C222 C223 1.385 1_554 S
C222 C224 1.478 . S
C223 H217 0.930 . S
C223 C219 1.400 . S
C223 C222 1.385 1_556 S
C224 C222 1.478 . S
C224 C226 1.381 . S
C224 C230 1.383 . S
C225 C221 1.495 . S
C225 H231 0.959 . S
C225 H232 0.961 . S
C225 H233 0.960 . S
C226 C224 1.381 . S
C226 C227 1.394 . S
C226 H234 0.930 . S
C227 C226 1.394 . S
C227 C228 1.383 . S
C227 H235 0.929 . S
C228 C227 1.383 . S
C228 C229 1.377 . S
C229 H213 0.930 . S
C229 C228 1.377 . S
C229 C230 1.379 . S
C230 H214 0.931 . S
C230 C224 1.383 . S
C230 C229 1.379 . S
H231 C225 0.959 . S
H232 C225 0.961 . S
H233 C225 0.960 . S
H234 C226 0.930 . S
H235 C227 0.929 . S
H236 C244 0.929 . S
H237 C246 0.930 . S
H238 C248 0.930 . S
H239 C251 0.929 . S
H240 C254 0.930 . S
H241 C256 0.960 . S
H242 C256 0.960 . S
H243 C256 0.960 . S
C244 H236 0.929 . S
C244 C245 1.377 . S
C244 C246 1.384 . S
C245 C244 1.377 . S
C245 C251 1.390 . S
C246 H237 0.930 . S
C246 C244 1.384 . S
C246 C247 1.372 . S
C247 C246 1.372 . S
C247 C248 1.400 . S
C247 C252 1.490 . S
C248 H238 0.930 . S
C248 C247 1.400 . S
C248 C251 1.386 . S
H249 C265 0.930 . S
H250 C266 0.931 . S
C251 H239 0.929 . S
C251 C245 1.390 . S
C251 C248 1.386 . S
C252 C247 1.490 . S
C252 C254 1.395 . S
C252 C255 1.403 . S
H253 C259 0.930 . S
C254 H240 0.930 . S
C254 C252 1.395 . S
C254 C257 1.403 . S
C255 C252 1.403 . S
C255 C256 1.524 . S
C255 C259 1.400 . S
C256 H241 0.960 . S
C256 H242 0.960 . S
C256 H243 0.960 . S
C256 C255 1.524 . S
C257 C254 1.403 . S
C257 C258 1.392 . S
C257 C261 1.495 . S
C258 C257 1.392 . S
C258 C259 1.385 . S
C258 C260 1.478 . S
C259 H253 0.930 . S
C259 C255 1.400 . S
C259 C258 1.385 . S
C260 C258 1.478 . S
C260 C262 1.381 . S
C260 C266 1.383 . S
C261 C257 1.495 . S
C261 H267 0.959 . S
C261 H268 0.961 . S
C261 H269 0.960 . S
C262 C260 1.381 . S
C262 C263 1.394 . S
C262 H270 0.930 . S
C263 C262 1.394 . S
C263 C264 1.383 . S
C263 H271 0.929 . S
C264 C263 1.383 . S
C264 C265 1.377 . S
C265 H249 0.930 . S
C265 C264 1.377 . S
C265 C266 1.379 . S
C266 H250 0.931 . S
C266 C260 1.383 . S
C266 C265 1.379 . S
H267 C261 0.959 . S
H268 C261 0.961 . S
H269 C261 0.960 . S
H270 C262 0.930 . S
H271 C263 0.929 . S
H272 C280 0.929 . S
H273 C282 0.930 . S
H274 C284 0.932 1_556 S
H275 C287 0.929 . S
H276 C290 0.930 . S
H277 C292 0.960 1_556 S
H278 C292 0.960 . S
H279 C292 0.960 1_556 S
C280 H272 0.929 . S
C280 C281 1.377 . S
C280 C282 1.384 . S
C281 C280 1.377 . S
C281 C287 1.390 . S
C282 H273 0.930 . S
C282 C280 1.384 . S
C282 C283 1.372 . S
C283 C282 1.372 . S
C283 C284 1.400 . S
C283 C288 1.490 . S
C284 H274 0.932 1_554 S
C284 C283 1.400 . S
C284 C287 1.386 . S
H285 C301 0.930 . S
H286 C302 0.931 . S
C287 H275 0.929 . S
C287 C281 1.390 . S
C287 C284 1.386 . S
C288 C283 1.490 . S
C288 C290 1.395 . S
C288 C291 1.403 . S
H289 C295 0.951 . S
C290 H276 0.930 . S
C290 C288 1.395 . S
C290 C293 1.403 1_455 S
C291 C288 1.403 . S
C291 C292 1.524 . S
C291 C295 1.386 1_554 S
C292 H277 0.960 1_554 S
C292 H278 0.960 . S
C292 H279 0.960 1_554 S
C292 C291 1.524 . S
C293 C290 1.403 1_655 S
C293 C294 1.392 . S
C293 C297 1.495 . S
C294 C293 1.392 . S
C294 C295 1.382 1_654 S
C294 C296 1.478 1_554 S
C295 H289 0.951 . S
C295 C291 1.386 1_556 S
C295 C294 1.382 1_456 S
C296 C294 1.478 1_556 S
C296 C298 1.381 1_556 S
C296 C302 1.383 . S
C297 C293 1.495 . S
C297 H303 0.959 . S
C297 H304 0.961 . S
C297 H305 0.960 . S
C298 C296 1.381 1_554 S
C298 C299 1.394 1_554 S
C298 H306 0.930 . S
C299 C298 1.394 1_556 S
C299 C300 1.383 . S
C299 H307 0.929 1_556 S
C300 C299 1.383 . S
C300 C301 1.377 . S
C301 H285 0.930 . S
C301 C300 1.377 . S
C301 C302 1.379 . S
C302 H286 0.931 . S
C302 C296 1.383 . S
C302 C301 1.379 . S
H303 C297 0.959 . S
H304 C297 0.961 . S
H305 C297 0.960 . S
H306 C298 0.930 . S
H307 C299 0.929 1_554 S
H308 C316 0.929 . S
H309 C318 0.930 . S
H310 C320 0.930 . S
H311 C323 0.929 . S
H312 C326 0.930 . S
H313 C328 0.960 . S
H314 C328 0.960 . S
H315 C328 0.960 . S
C316 H308 0.929 . S
C316 C317 1.377 . S
C316 C318 1.384 . S
C317 C316 1.377 . S
C317 C323 1.390 . S
C318 H309 0.930 . S
C318 C316 1.384 . S
C318 C319 1.372 . S
C319 C318 1.372 . S
C319 C320 1.400 . S
C319 C324 1.490 . S
C320 H310 0.930 . S
C320 C319 1.400 . S
C320 C323 1.386 . S
H321 C337 0.930 . S
H322 C338 0.931 . S
C323 H311 0.929 . S
C323 C317 1.390 . S
C323 C320 1.386 . S
C324 C319 1.490 . S
C324 C326 1.395 . S
C324 C327 1.403 . S
H325 C331 0.930 . S
C326 H312 0.930 . S
C326 C324 1.395 . S
C326 C329 1.403 1_545 S
C327 C324 1.403 . S
C327 C328 1.524 . S
C327 C331 1.400 1_545 S
C328 H313 0.960 . S
C328 H314 0.960 . S
C328 H315 0.960 . S
C328 C327 1.524 . S
C329 C326 1.403 1_565 S
C329 C330 1.392 . S
C329 C333 1.495 . S
C330 C329 1.392 . S
C330 C331 1.385 . S
C330 C332 1.478 . S
C331 H325 0.930 . S
C331 C327 1.400 1_565 S
C331 C330 1.385 . S
C332 C330 1.478 . S
C332 C334 1.381 . S
C332 C338 1.383 . S
C333 C329 1.495 . S
C333 H339 0.959 . S
C333 H340 0.961 . S
C333 H341 0.960 . S
C334 C332 1.381 . S
C334 C335 1.394 . S
C334 H342 0.930 . S
C335 C334 1.394 . S
C335 C336 1.383 . S
C335 H343 0.929 . S
C336 C335 1.383 . S
C336 C337 1.377 . S
C337 H321 0.930 . S
C337 C336 1.377 . S
C337 C338 1.379 . S
C338 H322 0.931 . S
C338 C332 1.383 . S
C338 C337 1.379 . S
H339 C333 0.959 . S
H340 C333 0.961 . S
H341 C333 0.960 . S
H342 C334 0.930 . S
H343 C335 0.929 . S
C65 C6 1.527 . S
C84 C34 1.499 . S
C101 C20 1.522 . S
C120 C48 1.528 . S
C137 C9 1.711 . S
C156 C50 1.697 . S
C173 C35 1.437 . S
C192 C23 1.481 . S
C209 C49 1.346 . S
C228 C7 1.361 . S
C245 C21 1.433 . S
C264 C37 1.474 . S
C281 C8 1.706 . S
C300 C51 1.708 . S
C317 C22 1.891 . S
C336 C36 1.894 . S
