# Generated by pormake.
# Topology wkj, (6)-cn, num edge types: 1
# Building blocks:
#     Node 0, Type 0, BuildingBlock: BETGAK_clean_sbu_0, # of connection points: 6
#     Node 1, Type 0, BuildingBlock: BETGAK_clean_sbu_0, # of connection points: 6
#     Node 2, Type 0, BuildingBlock: BETGAK_clean_sbu_0, # of connection points: 6
#     Node 3, Type 0, BuildingBlock: BETGAK_clean_sbu_0, # of connection points: 6
#     Node 4, Type 0, BuildingBlock: BETGAK_clean_sbu_0, # of connection points: 6
#     Node 5, Type 0, BuildingBlock: BETGAK_clean_sbu_0, # of connection points: 6
#     Node 6, Type 0, BuildingBlock: BETGAK_clean_sbu_0, # of connection points: 6
#     Node 7, Type 0, BuildingBlock: BETGAK_clean_sbu_0, # of connection points: 6
#     Node 8, Type 0, BuildingBlock: BETGAK_clean_sbu_0, # of connection points: 6
#     Node 9, Type 0, BuildingBlock: BETGAK_clean_sbu_0, # of connection points: 6
#     Node 10, Type 0, BuildingBlock: BETGAK_clean_sbu_0, # of connection points: 6
#     Node 11, Type 0, BuildingBlock: BETGAK_clean_sbu_0, # of connection points: 6
#     Edge 12, Type (0, 0), BuildingBlock: TEMPAE_clean_linker_10, # of connection points: 2
#     Edge 13, Type (0, 0), BuildingBlock: TEMPAE_clean_linker_10, # of connection points: 2
#     Edge 14, Type (0, 0), BuildingBlock: TEMPAE_clean_linker_10, # of connection points: 2
#     Edge 15, Type (0, 0), BuildingBlock: TEMPAE_clean_linker_10, # of connection points: 2
#     Edge 16, Type (0, 0), BuildingBlock: TEMPAE_clean_linker_10, # of connection points: 2
#     Edge 17, Type (0, 0), BuildingBlock: TEMPAE_clean_linker_10, # of connection points: 2
#     Edge 18, Type (0, 0), BuildingBlock: TEMPAE_clean_linker_10, # of connection points: 2
#     Edge 19, Type (0, 0), BuildingBlock: TEMPAE_clean_linker_10, # of connection points: 2
#     Edge 20, Type (0, 0), BuildingBlock: TEMPAE_clean_linker_10, # of connection points: 2
#     Edge 21, Type (0, 0), BuildingBlock: TEMPAE_clean_linker_10, # of connection points: 2
#     Edge 22, Type (0, 0), BuildingBlock: TEMPAE_clean_linker_10, # of connection points: 2
#     Edge 23, Type (0, 0), BuildingBlock: TEMPAE_clean_linker_10, # of connection points: 2
#     Edge 24, Type (0, 0), BuildingBlock: TEMPAE_clean_linker_10, # of connection points: 2
#     Edge 25, Type (0, 0), BuildingBlock: TEMPAE_clean_linker_10, # of connection points: 2
#     Edge 26, Type (0, 0), BuildingBlock: TEMPAE_clean_linker_10, # of connection points: 2
#     Edge 27, Type (0, 0), BuildingBlock: TEMPAE_clean_linker_10, # of connection points: 2
#     Edge 28, Type (0, 0), BuildingBlock: TEMPAE_clean_linker_10, # of connection points: 2
#     Edge 29, Type (0, 0), BuildingBlock: TEMPAE_clean_linker_10, # of connection points: 2
#     Edge 30, Type (0, 0), BuildingBlock: TEMPAE_clean_linker_10, # of connection points: 2
#     Edge 31, Type (0, 0), BuildingBlock: TEMPAE_clean_linker_10, # of connection points: 2
#     Edge 32, Type (0, 0), BuildingBlock: TEMPAE_clean_linker_10, # of connection points: 2
#     Edge 33, Type (0, 0), BuildingBlock: TEMPAE_clean_linker_10, # of connection points: 2
#     Edge 34, Type (0, 0), BuildingBlock: TEMPAE_clean_linker_10, # of connection points: 2
#     Edge 35, Type (0, 0), BuildingBlock: TEMPAE_clean_linker_10, # of connection points: 2
#     Edge 36, Type (0, 0), BuildingBlock: TEMPAE_clean_linker_10, # of connection points: 2
#     Edge 37, Type (0, 0), BuildingBlock: TEMPAE_clean_linker_10, # of connection points: 2
#     Edge 38, Type (0, 0), BuildingBlock: TEMPAE_clean_linker_10, # of connection points: 2
#     Edge 39, Type (0, 0), BuildingBlock: TEMPAE_clean_linker_10, # of connection points: 2
#     Edge 40, Type (0, 0), BuildingBlock: TEMPAE_clean_linker_10, # of connection points: 2
#     Edge 41, Type (0, 0), BuildingBlock: TEMPAE_clean_linker_10, # of connection points: 2
#     Edge 42, Type (0, 0), BuildingBlock: TEMPAE_clean_linker_10, # of connection points: 2
#     Edge 43, Type (0, 0), BuildingBlock: TEMPAE_clean_linker_10, # of connection points: 2
#     Edge 44, Type (0, 0), BuildingBlock: TEMPAE_clean_linker_10, # of connection points: 2
#     Edge 45, Type (0, 0), BuildingBlock: TEMPAE_clean_linker_10, # of connection points: 2
#     Edge 46, Type (0, 0), BuildingBlock: TEMPAE_clean_linker_10, # of connection points: 2
#     Edge 47, Type (0, 0), BuildingBlock: TEMPAE_clean_linker_10, # of connection points: 2
# Relax obj value: 0.776
# Max RMSD: 0.176
# Mean RMSD: 0.176
data_MOF--net-wkj--node1-BETGAK_clean_sbu_0--edge1-TEMPAE_clean_linker_10
_symmetry_space_group_name_H-M    P1
_symmetry_Int_Tables_number       1
_symmetry_cell_setting            triclinic
loop_
_symmetry_equiv_pos_as_xyz
'x, y, z'
_cell_length_a     49.507129
_cell_length_b     49.51903
_cell_length_c     31.234173
_cell_angle_alpha  89.796057
_cell_angle_beta   89.934355
_cell_angle_gamma 120.16659
loop_
_atom_site_label
_atom_site_type_symbol
_atom_site_fract_x
_atom_site_fract_y
_atom_site_fract_z
_atom_type_partial_charge
La0 La 0.46003 0.08743 0.36941 0.0
La1 La 0.51429 0.09256 0.35292 0.0
C2 C 0.40261 0.07042 0.37571 0.0
C3 C 0.37715 0.05523 0.40683 0.0
C4 C 0.35498 0.06487 0.41013 0.0
C5 C 0.33102 0.05119 0.44054 0.0
C6 C 0.32882 0.02742 0.46745 0.0
C7 C 0.35081 0.01749 0.46337 0.0
C8 C 0.37485 0.03136 0.43347 0.0
C9 C 0.49778 0.14638 0.34378 0.0
C10 C 0.50646 0.10389 0.4556 0.0
C11 C 0.57232 0.1172 0.34115 0.0
C12 C 0.59274 0.13515 0.30511 0.0
C13 C 0.58621 0.12316 0.26335 0.0
C14 C 0.60076 0.14283 0.22847 0.0
C15 C 0.62174 0.17486 0.23467 0.0
C16 C 0.63033 0.18623 0.27647 0.0
C17 C 0.61595 0.16644 0.31148 0.0
C18 C 0.47346 0.03715 0.39044 0.0
C19 C 0.46947 0.05825 0.27462 0.0
O20 O 0.42517 0.09814 0.38566 0.0
O21 O 0.41322 0.05324 0.3598 0.0
O22 O 0.48045 0.13737 0.37737 0.0
O23 O 0.49553 0.12174 0.32628 0.0
O24 O 0.47682 0.09371 0.44136 0.0
O25 O 0.5261 0.10682 0.42389 0.0
O26 O 0.55247 0.08754 0.33481 0.0
O27 O 0.5592 0.13109 0.36048 0.0
O28 O 0.49259 0.04074 0.35956 0.0
O29 O 0.47904 0.06389 0.39871 0.0
O30 O 0.49935 0.07439 0.28569 0.0
O31 O 0.44993 0.05906 0.30459 0.0
H32 H 0.35655 0.08334 0.38969 0.0
H33 H 0.3146 0.05947 0.44357 0.0
H34 H 0.35024 -0.00014 0.48462 0.0
H35 H 0.39192 0.02381 0.43173 0.0
H36 H 0.56856 0.0991 0.25736 0.0
H37 H 0.59428 0.13335 0.19648 0.0
H38 H 0.64646 0.21079 0.28209 0.0
H39 H 0.62135 0.17612 0.34346 0.0
La40 La 0.38082 0.47278 0.70794 0.0
La41 La 0.41856 0.53556 0.68507 0.0
C42 C 0.34634 0.41772 0.73515 0.0
C43 C 0.339 0.3968 0.77226 0.0
C44 C 0.35505 0.3805 0.77903 0.0
C45 C 0.34629 0.35895 0.81248 0.0
C46 C 0.32096 0.35291 0.83908 0.0
C47 C 0.30456 0.36874 0.83185 0.0
C48 C 0.31349 0.39049 0.7987 0.0
C49 C 0.34907 0.49574 0.6646 0.0
C50 C 0.4086 0.52359 0.78972 0.0
C51 C 0.43478 0.58846 0.65309 0.0
C52 C 0.42637 0.60029 0.61515 0.0
C53 C 0.4231 0.58653 0.57494 0.0
C54 C 0.41285 0.59657 0.54006 0.0
C55 C 0.40545 0.6204 0.5447 0.0
C56 C 0.40877 0.6342 0.58495 0.0
C57 C 0.41933 0.62431 0.61987 0.0
C58 C 0.45154 0.51656 0.72745 0.0
C59 C 0.41079 0.48149 0.61252 0.0
O60 O 0.33949 0.43988 0.73833 0.0
O61 O 0.37279 0.4271 0.71508 0.0
O62 O 0.34893 0.47019 0.65664 0.0
O63 O 0.36858 0.50874 0.69475 0.0
O64 O 0.39383 0.49345 0.77675 0.0
O65 O 0.41821 0.54492 0.75771 0.0
O66 O 0.45007 0.57355 0.6469 0.0
O67 O 0.41233 0.57432 0.68116 0.0
O68 O 0.45832 0.5454 0.72474 0.0
O69 O 0.42988 0.50053 0.70108 0.0
O70 O 0.41762 0.51134 0.61995 0.0
O71 O 0.39827 0.46205 0.64606 0.0
H72 H 0.3743 0.38429 0.75848 0.0
H73 H 0.35919 0.34686 0.81744 0.0
H74 H 0.28516 0.36469 0.85228 0.0
H75 H 0.3002 0.40215 0.79354 0.0
H76 H 0.42782 0.56759 0.57059 0.0
H77 H 0.40983 0.58499 0.5096 0.0
H78 H 0.40313 0.6525 0.58939 0.0
H79 H 0.42142 0.63498 0.65084 0.0
La80 La 0.91381 0.39204 1.0269 0.0
La81 La 0.88398 0.42139 1.00276 0.0
C82 C 0.94675 0.3665 1.03604 0.0
C83 C 0.97816 0.374 1.04914 0.0
C84 C 0.98108 0.35219 1.07414 0.0
C85 C 0.00996 0.35938 1.09078 0.0
C86 C 0.03675 0.38859 1.08248 0.0
C87 C 0.03406 0.40962 1.05473 0.0
C88 C 0.0049 0.40247 1.03842 0.0
C89 C 0.85319 0.35099 1.00523 0.0
C90 C 0.89245 0.41679 1.10996 0.0
C91 C 0.83575 0.4262 0.99412 0.0
C92 C 0.80516 0.40883 0.97283 0.0
C93 C 0.7941 0.42483 0.94797 0.0
C94 C 0.76609 0.40826 0.92546 0.0
C95 C 0.74882 0.37543 0.92741 0.0
C96 C 0.75867 0.35967 0.955 0.0
C97 C 0.78657 0.37622 0.97749 0.0
C98 C 0.93805 0.46544 1.02975 0.0
C99 C 0.93376 0.42526 0.93177 0.0
O100 O 0.92884 0.36744 1.0659 0.0
O101 O 0.94437 0.3788 1.00035 0.0
O102 O 0.86713 0.35028 1.03949 0.0
O103 O 0.87294 0.37504 0.98498 0.0
O104 O 0.91155 0.40655 1.09639 0.0
O105 O 0.8778 0.42242 1.07745 0.0
O106 O 0.86064 0.44126 0.96997 0.0
O107 O 0.84022 0.41125 1.02518 0.0
O108 O 0.9233 0.4682 0.99726 0.0
O109 O 0.92372 0.43763 1.04294 0.0
O110 O 0.90654 0.42491 0.93667 0.0
O111 O 0.94336 0.41727 0.96727 0.0
H112 H 0.96069 0.33002 1.08244 0.0
H113 H 0.01061 0.34272 1.11268 0.0
H114 H 0.05417 0.43215 1.04723 0.0
H115 H 0.00311 0.41955 1.0187 0.0
H116 H 0.80776 0.45 0.94458 0.0
H117 H 0.75931 0.42094 0.90379 0.0
H118 H 0.74594 0.33438 0.95679 0.0
H119 H 0.79412 0.36334 0.99729 0.0
La120 La 0.5312 0.90269 0.36409 0.0
La121 La 0.47266 0.88994 0.3504 0.0
C122 C 0.58465 0.91678 0.39174 0.0
C123 C 0.59471 0.90567 0.4285 0.0
C124 C 0.57548 0.87552 0.44522 0.0
C125 C 0.58244 0.86716 0.48466 0.0
C126 C 0.60838 0.88905 0.50826 0.0
C127 C 0.62882 0.91837 0.48955 0.0
C128 C 0.62201 0.92655 0.44999 0.0
C129 C 0.49916 0.84629 0.3269 0.0
C130 C 0.48114 0.88073 0.44954 0.0
C131 C 0.41795 0.86208 0.32109 0.0
C132 C 0.39368 0.82922 0.32642 0.0
C133 C 0.36831 0.81617 0.29842 0.0
C134 C 0.35297 0.78417 0.29006 0.0
C135 C 0.36401 0.7654 0.30821 0.0
C136 C 0.38494 0.77747 0.34273 0.0
C137 C 0.40009 0.80945 0.35139 0.0
C138 C 0.50681 0.94523 0.38627 0.0
C139 C 0.52253 0.93371 0.27435 0.0
O140 O 0.57008 0.89644 0.36179 0.0
O141 O 0.57051 0.9322 0.40121 0.0
O142 O 0.5254 0.86952 0.3143 0.0
O143 O 0.48951 0.8564 0.3579 0.0
O144 O 0.51056 0.89115 0.43438 0.0
O145 O 0.46008 0.87479 0.41922 0.0
O146 O 0.4424 0.86586 0.29986 0.0
O147 O 0.42589 0.87938 0.35533 0.0
O148 O 0.47745 0.92661 0.39319 0.0
O149 O 0.51543 0.93409 0.35691 0.0
O150 O 0.49278 0.9189 0.28846 0.0
O151 O 0.54288 0.93146 0.30089 0.0
H152 H 0.55419 0.85903 0.42896 0.0
H153 H 0.56643 0.84433 0.4979 0.0
H154 H 0.64872 0.93613 0.50693 0.0
H155 H 0.63701 0.94992 0.43752 0.0
H156 H 0.36283 0.83105 0.27921 0.0
H157 H 0.33638 0.77556 0.26397 0.0
H158 H 0.39346 0.76346 0.35785 0.0
H159 H 0.41952 0.81915 0.37353 0.0
La160 La 0.60747 0.50731 0.70418 0.0
La161 La 0.56998 0.44391 0.67743 0.0
C162 C 0.63476 0.56564 0.71546 0.0
C163 C 0.63081 0.58979 0.7367 0.0
C164 C 0.65636 0.6137 0.75826 0.0
C165 C 0.65341 0.63674 0.77958 0.0
C166 C 0.62476 0.63621 0.77972 0.0
C167 C 0.59946 0.61287 0.75667 0.0
C168 C 0.6025 0.58988 0.73512 0.0
C169 C 0.64244 0.48164 0.68035 0.0
C170 C 0.57447 0.45733 0.78522 0.0
C171 C 0.5608 0.38973 0.66458 0.0
C172 C 0.57613 0.37784 0.63635 0.0
C173 C 0.56134 0.34626 0.6249 0.0
C174 C 0.57574 0.33591 0.59583 0.0
C175 C 0.6052 0.35706 0.57824 0.0
C176 C 0.62062 0.38825 0.59221 0.0
C177 C 0.60606 0.39852 0.6205 0.0
C178 C 0.53571 0.46717 0.70387 0.0
C179 C 0.57672 0.49556 0.60605 0.0
O180 O 0.6388 0.54659 0.74009 0.0
O181 O 0.6162 0.55121 0.68345 0.0
O182 O 0.64717 0.49938 0.71281 0.0
O183 O 0.61817 0.47866 0.66195 0.0
O184 O 0.58848 0.48764 0.77234 0.0
O185 O 0.56719 0.43662 0.75251 0.0
O186 O 0.54459 0.40072 0.64579 0.0
O187 O 0.57896 0.4084 0.69457 0.0
O188 O 0.52503 0.44318 0.67841 0.0
O189 O 0.56205 0.47289 0.71565 0.0
O190 O 0.57028 0.46585 0.61205 0.0
O191 O 0.58869 0.51451 0.64013 0.0
H192 H 0.67848 0.61418 0.75937 0.0
H193 H 0.67313 0.65404 0.79777 0.0
H194 H 0.57713 0.61193 0.75629 0.0
H195 H 0.58265 0.57202 0.71784 0.0
H196 H 0.5383 0.32991 0.63723 0.0
H197 H 0.56323 0.31181 0.58544 0.0
H198 H 0.64293 0.40546 0.57871 0.0
H199 H 0.61768 0.42295 0.62884 0.0
La200 La 0.0921 0.61809 1.02273 0.0
La201 La 0.10294 0.57033 1.00933 0.0
C202 C 0.08024 0.65925 1.04917 0.0
C203 C 0.09273 0.68136 1.08457 0.0
C204 C 0.12064 0.68759 1.10459 0.0
C205 C 0.1291 0.70328 0.14364 0.0
C206 C 0.10953 0.71256 0.1633 0.0
C207 C 0.08309 0.7087 0.14101 0.0
C208 C 0.07473 0.69311 1.10196 0.0
C209 C 0.14747 0.64025 0.98303 0.0
C210 C 0.10883 0.58665 1.10944 0.0
C211 C 0.12825 0.53996 0.98321 0.0
C212 C 0.15668 0.55066 0.95752 0.0
C213 C 0.16265 0.52939 0.9362 0.0
C214 C 0.18938 0.54027 0.91057 0.0
C215 C 0.21042 0.57257 0.9061 0.0
C216 C 0.2049 0.59363 0.92915 0.0
C217 C 0.17825 0.58277 0.95445 0.0
C218 C 0.04721 0.55252 1.04372 0.0
C219 C 0.06342 0.58174 0.93164 0.0
O220 O 0.09973 0.66376 1.0183 0.0
O221 O 0.06461 0.62999 1.06068 0.0
O222 O 0.1249 0.64455 0.97178 0.0
O223 O 0.13733 0.62069 1.01434 0.0
O224 O 0.10355 0.60915 1.09316 0.0
O225 O 0.10938 0.56732 1.08046 0.0
O226 O 0.10465 0.53958 0.96409 0.0
O227 O 0.13317 0.55306 1.02057 0.0
O228 O 0.06403 0.54012 1.05337 0.0
O229 O 0.0607 0.57109 1.01382 0.0
O230 O 0.08208 0.57009 0.94227 0.0
O231 O 0.06114 0.59964 0.96234 0.0
H232 H 0.13483 0.67861 1.09141 0.0
H233 H 0.14963 0.70604 0.15996 0.0
H234 H 0.06718 0.71506 0.1555 0.0
H235 H 0.05307 0.68834 1.08688 0.0
H236 H 0.14637 0.50452 0.93858 0.0
H237 H 0.19307 0.52354 0.89307 0.0
H238 H 0.2202 0.61863 0.92572 0.0
H239 H 0.17411 0.59955 0.97092 0.0
La240 La 0.90523 0.52691 0.53561 0.0
La241 La 0.88623 0.46431 0.55095 0.0
C242 C 0.92488 0.58225 0.51023 0.0
C243 C 0.94465 0.60245 0.47563 0.0
C244 C 0.96163 0.6348 0.48201 0.0
C245 C 0.98373 0.65425 0.45181 0.0
C246 C 0.98898 0.6415 0.41481 0.0
C247 C 0.97111 0.60911 0.40792 0.0
C248 C 0.94913 0.58971 0.43816 0.0
C249 C 0.84947 0.49819 0.57689 0.0
C250 C 0.88863 0.47957 0.44942 0.0
C251 C 0.85274 0.40869 0.57596 0.0
C252 C 0.82632 0.39493 0.60637 0.0
C253 C 0.83112 0.40225 0.64998 0.0
C254 C 0.80581 0.39493 0.67666 0.0
C255 C 0.77519 0.38053 0.66028 0.0
C256 C 0.77012 0.37125 0.61735 0.0
C257 C 0.79552 0.3783 0.59063 0.0
C258 C 0.94251 0.49607 0.51589 0.0
C259 C 0.92733 0.51479 0.62904 0.0
O260 O 0.89795 0.5585 0.49934 0.0
O261 O 0.93922 0.5744 0.53823 0.0
O262 O 0.87298 0.5254 0.58457 0.0
O263 O 0.85806 0.48697 0.54643 0.0
O264 O 0.90101 0.50898 0.46503 0.0
O265 O 0.87905 0.45706 0.4791 0.0
O266 O 0.88079 0.42744 0.59099 0.0
O267 O 0.84721 0.42023 0.54176 0.0
O268 O 0.92343 0.46673 0.50844 0.0
O269 O 0.93059 0.50423 0.54442 0.0
O270 O 0.90691 0.48468 0.61833 0.0
O271 O 0.93239 0.53596 0.59835 0.0
H272 H 0.9585 0.64489 0.511 0.0
H273 H 0.99696 0.67915 0.45764 0.0
H274 H 0.97503 0.59859 0.38002 0.0
H275 H 0.93658 0.56475 0.43297 0.0
H276 H 0.85445 0.41482 0.66324 0.0
H277 H 0.81033 0.40127 0.71014 0.0
H278 H 0.74679 0.35979 0.60405 0.0
H279 H 0.7912 0.37228 0.55703 0.0
La280 La 0.38071 0.89948 0.87433 0.0
La281 La 0.42572 0.88329 0.892 0.0
C282 C 0.34214 0.91543 0.84967 0.0
C283 C 0.33574 0.9297 0.81317 0.0
C284 C 0.34819 0.93039 0.77268 0.0
C285 C 0.34133 0.94387 0.73827 0.0
C286 C 0.32221 0.95715 0.74404 0.0
C287 C 0.31022 0.95675 0.78494 0.0
C288 C 0.31693 0.94305 0.81925 0.0
C289 C 0.35523 0.84483 0.91811 0.0
C290 C 0.41189 0.8808 0.78976 0.0
C291 C 0.45104 0.85413 0.92212 0.0
C292 C 0.44473 0.83447 0.96063 0.0
C293 C 0.45244 0.84773 1.00158 0.0
C294 C 0.44125 0.82871 1.03784 0.0
C295 C 0.42187 0.79614 1.03389 0.0
C296 C 0.41617 0.78271 0.99307 0.0
C297 C 0.42767 0.80172 0.95676 0.0
C298 C 0.44843 0.93736 0.85148 0.0
C299 C 0.41422 0.92485 0.96775 0.0
O300 O 0.3385 0.8877 0.84381 0.0
O301 O 0.36749 0.93357 0.87091 0.0
O302 O 0.35188 0.86844 0.92617 0.0
O303 O 0.37484 0.85331 0.88725 0.0
O304 O 0.39433 0.89312 0.80399 0.0
O305 O 0.4253 0.87282 0.82079 0.0
O306 O 0.46231 0.88415 0.92754 0.0
O307 O 0.42854 0.84264 0.89401 0.0
O308 O 0.45902 0.91837 0.84616 0.0
O309 O 0.4289 0.92686 0.88128 0.0
O310 O 0.42543 0.90557 0.95799 0.0
O311 O 0.397 0.9277 0.93668 0.0
H312 H 0.36299 0.92037 0.76763 0.0
H313 H 0.3506 0.94344 0.70701 0.0
H314 H 0.29583 0.96717 0.79046 0.0
H315 H 0.30744 0.94288 0.8506 0.0
H316 H 0.46592 0.87281 1.00571 0.0
H317 H 0.4468 0.83964 1.06905 0.0
H318 H 0.40143 0.75772 0.98903 0.0
H319 H 0.42174 0.79087 0.9255 0.0
La320 La 0.45377 0.36122 0.21198 0.0
La321 La 0.50886 0.41276 0.22599 0.0
C322 C 0.39661 0.31956 0.20768 0.0
C323 C 0.37262 0.30235 0.17557 0.0
C324 C 0.3806 0.29672 0.13489 0.0
C325 C 0.3578 0.28323 1.10334 0.0
C326 C 0.32682 0.27556 1.11192 0.0
C327 C 0.31863 0.27972 0.1534 0.0
C328 C 0.34143 0.29296 0.18509 0.0
C329 C 0.49393 0.34314 0.23715 0.0
C330 C 0.4995 0.39059 0.12438 0.0
C331 C 0.56721 0.44708 0.23352 0.0
C332 C 0.58958 0.45013 0.26653 0.0
C333 C 0.58101 0.44637 0.30983 0.0
C334 C 0.59894 0.44171 0.34004 0.0
C335 C 0.62567 0.44051 0.32751 0.0
C336 C 0.63527 0.44625 0.2845 0.0
C337 C 0.61734 0.45111 0.25422 0.0
C338 C 0.46637 0.42451 0.18927 0.0
C339 C 0.46392 0.40209 0.30493 0.0
O340 O 0.41946 0.31375 0.20984 0.0
O341 O 0.40664 0.34942 0.20997 0.0
O342 O 0.47565 0.33302 0.2045 0.0
O343 O 0.49083 0.36534 0.2537 0.0
O344 O 0.47035 0.36985 0.13965 0.0
O345 O 0.51908 0.40903 0.1549 0.0
O346 O 0.5473 0.4562 0.24326 0.0
O347 O 0.5536 0.4199 0.21472 0.0
O348 O 0.4864 0.44189 0.21813 0.0
O349 O 0.47251 0.40362 0.18185 0.0
O350 O 0.49371 0.41698 0.29265 0.0
O351 O 0.44432 0.38009 0.27671 0.0
H352 H 0.40462 0.30396 0.12697 0.0
H353 H 0.36492 0.28099 1.07134 0.0
H354 H 0.295 0.27425 0.16061 0.0
H355 H 0.33499 0.29713 0.21651 0.0
H356 H 0.55943 0.44501 0.32001 0.0
H357 H 0.59049 0.43681 0.37276 0.0
H358 H 0.65579 0.44561 0.274 0.0
H359 H 0.6241 0.45368 0.22078 0.0
La360 La 0.0938 0.48219 0.53762 0.0
La361 La 0.1231 0.54413 0.55775 0.0
C362 C 0.07137 0.42914 0.50397 0.0
C363 C 0.06713 0.41906 0.4592 0.0
C364 C 0.07899 0.39997 0.44597 0.0
C365 C 0.08221 0.39583 0.4025 0.0
C366 C 0.07318 0.41041 0.37175 0.0
C367 C 0.05988 0.42828 0.38492 0.0
C368 C 0.05707 0.43279 0.4284 0.0
C369 C 0.14755 0.5008 0.58236 0.0
C370 C 0.11671 0.5313 0.45308 0.0
C371 C 0.16619 0.59995 0.57102 0.0
C372 C 0.19642 0.61421 0.59281 0.0
C373 C 0.21365 0.64658 0.59901 0.0
C374 C 0.24067 0.65964 0.62409 0.0
C375 C 0.25076 0.64042 0.64305 0.0
C376 C 0.23471 0.6083 0.63362 0.0
C377 C 0.20758 0.59531 0.60913 0.0
C378 C 0.06643 0.52764 0.53312 0.0
C379 C 0.07473 0.49433 0.6308 0.0
O380 O 0.10065 0.44665 0.51435 0.0
O381 O 0.05402 0.4401 0.51895 0.0
O382 O 0.12053 0.47697 0.59101 0.0
O383 O 0.14313 0.51463 0.55134 0.0
O384 O 0.10543 0.50173 0.46758 0.0
O385 O 0.12445 0.55263 0.48443 0.0
O386 O 0.14164 0.58476 0.59542 0.0
O387 O 0.16418 0.58399 0.53702 0.0
O388 O 0.08048 0.54591 0.56505 0.0
O389 O 0.08337 0.51722 0.51983 0.0
O390 O 0.10191 0.52152 0.62417 0.0
O391 O 0.06405 0.47579 0.5965 0.0
H392 H 0.08731 0.38961 0.4693 0.0
H393 H 0.09227 0.38177 0.39286 0.0
H394 H 0.05294 0.43985 0.36155 0.0
H395 H 0.04848 0.44817 0.43778 0.0
H396 H 0.20541 0.6615 0.58623 0.0
H397 H 0.25249 0.6844 0.63102 0.0
H398 H 0.24139 0.59268 0.64835 0.0
H399 H 0.19432 0.57028 0.60485 0.0
La400 La 0.61059 0.09156 0.87887 0.0
La401 La 0.57682 0.11967 0.90021 0.0
C402 C 0.63951 0.06528 0.85175 0.0
C403 C 0.63652 0.04307 0.81901 0.0
C404 C 0.65612 0.03033 0.82094 0.0
C405 C 0.65176 0.00668 0.79285 0.0
C406 C 0.62772 0.99553 0.76245 0.0
C407 C 0.60823 0.0086 0.76038 0.0
C408 C 0.61255 0.03219 0.78866 0.0
C409 C 0.64716 0.14744 0.9197 0.0
C410 C 0.58092 0.11153 0.79522 0.0
C411 C 0.56016 0.15924 0.91747 0.0
C412 C 0.57673 0.19323 0.92273 0.0
C413 C 0.56711 0.20564 0.95565 0.0
C414 C 0.58879 0.23356 0.975 0.0
C415 C 0.62033 0.24842 0.96227 0.0
C416 C 0.6277 0.23998 0.92291 0.0
C417 C 0.60613 0.21187 0.90369 0.0
C418 C 0.53816 0.06106 0.87882 0.0
C419 C 0.57893 0.07138 0.97258 0.0
O420 O 0.64553 0.09297 0.83891 0.0
O421 O 0.61788 0.05362 0.88134 0.0
O422 O 0.64518 0.12105 0.92781 0.0
O423 O 0.62707 0.14161 0.89059 0.0
O424 O 0.59592 0.09648 0.80911 0.0
O425 O 0.57254 0.1244 0.82689 0.0
O426 O 0.56727 0.1446 0.94605 0.0
O427 O 0.55952 0.14863 0.87923 0.0
O428 O 0.53271 0.07576 0.90866 0.0
O429 O 0.56477 0.07941 0.86467 0.0
O430 O 0.57784 0.09789 0.96627 0.0
O431 O 0.58714 0.0615 0.93785 0.0
H432 H 0.6745 0.03835 0.84465 0.0
H433 H 0.66732 0.99728 0.79468 0.0
H434 H 0.58938 0.00023 0.73737 0.0
H435 H 0.59693 0.04153 0.78743 0.0
H436 H 0.54426 0.19177 0.97026 0.0
H437 H 0.58211 0.2399 1.00471 0.0
H438 H 0.65156 0.25178 0.91163 0.0
H439 H 0.61377 0.20297 0.87755 0.0
La440 La 0.5294 0.61589 0.21413 0.0
La441 La 0.46981 0.57068 0.23099 0.0
C442 C 0.58311 0.65409 0.18469 0.0
C443 C 0.5945 0.67188 0.14477 0.0
C444 C 0.6262 0.68601 0.13412 0.0
C445 C 0.63653 0.69941 1.09366 0.0
C446 C 0.61512 0.69839 1.06316 0.0
C447 C 0.5837 0.68611 1.07523 0.0
C448 C 0.57352 0.67309 1.11581 0.0
C449 C 0.49942 0.64078 0.25552 0.0
C450 C 0.47752 0.58849 0.13133 0.0
C451 C 0.4158 0.5444 0.26353 0.0
C452 C 0.39154 0.55323 0.26388 0.0
C453 C 0.36025 0.53081 0.27147 0.0
C454 C 0.33877 0.54022 0.28229 0.0
C455 C 0.34875 0.5722 0.28754 0.0
C456 C 0.37908 0.59431 0.27346 0.0
C457 C 0.40019 0.58484 0.26166 0.0
C458 C 0.5016 0.54811 0.19191 0.0
C459 C 0.52109 0.57677 0.30449 0.0
O460 O 0.56697 0.6619 0.20931 0.0
O461 O 0.56977 0.62385 0.18094 0.0
O462 O 0.52585 0.64336 0.26594 0.0
O463 O 0.48853 0.6213 0.22433 0.0
O464 O 0.50729 0.60697 0.14527 0.0
O465 O 0.45673 0.57381 0.16248 0.0
O466 O 0.44125 0.5634 0.28426 0.0
O467 O 0.42204 0.53646 0.22671 0.0
O468 O 0.472 0.53721 0.18819 0.0
O469 O 0.51157 0.5682 0.22092 0.0
O470 O 0.49088 0.56343 0.2929 0.0
O471 O 0.54147 0.59786 0.27601 0.0
H472 H 0.64273 0.68557 0.15642 0.0
H473 H 0.66095 0.7091 1.08547 0.0
H474 H 0.56651 0.68459 1.05245 0.0
H475 H 0.54903 0.66278 0.12384 0.0
H476 H 0.35292 0.50619 0.27203 0.0
H477 H 0.31522 0.5224 0.29078 0.0
H478 H 0.38801 0.61916 0.2763 0.0
H479 H 0.42412 0.60246 0.25469 0.0
C480 C 0.49591 0.18102 0.28227 0.0
C481 C 0.50504 0.17774 0.32386 0.0
C482 C 0.4963 0.20898 0.2687 0.0
C483 C 0.50611 0.23499 0.29692 0.0
C484 C 0.51649 0.23206 0.33822 0.0
C485 C 0.51552 0.20391 0.351 0.0
C486 C 0.48492 0.21019 0.22443 0.0
C487 C 0.52771 0.25845 0.3699 0.0
C488 C 0.52693 0.31749 0.25206 0.0
C489 C 0.49988 0.31935 0.26046 0.0
C490 C 0.52953 0.29095 0.26417 0.0
C491 C 0.5042 0.26441 0.28448 0.0
C492 C 0.47698 0.2664 0.29348 0.0
C493 C 0.47516 0.29332 0.2814 0.0
C494 C 0.55933 0.29101 0.25399 0.0
C495 C 0.44908 0.23941 0.31478 0.0
H496 H 0.4869 0.16115 0.26096 0.0
H497 H 0.52216 0.20198 0.38344 0.0
H498 H 0.46321 0.21145 0.22681 0.0
H499 H 0.50253 0.23154 0.20737 0.0
H500 H 0.48001 0.18943 0.2051 0.0
H501 H 0.53756 0.25401 0.39925 0.0
H502 H 0.54584 0.28062 0.35504 0.0
H503 H 0.50798 0.2618 0.37934 0.0
H504 H 0.54588 0.33651 0.23451 0.0
H505 H 0.45356 0.2934 0.28672 0.0
H506 H 0.55446 0.2722 0.23079 0.0
H507 H 0.56871 0.28609 0.28339 0.0
H508 H 0.57753 0.31366 0.24024 0.0
H509 H 0.44022 0.21828 0.29453 0.0
H510 H 0.4298 0.24433 0.32037 0.0
H511 H 0.456 0.23394 0.34595 0.0
C512 C 0.30164 0.48273 0.61836 0.0
C513 C 0.32187 0.50055 0.65181 0.0
C514 C 0.27477 0.48458 0.60688 0.0
C515 C 0.2668 0.50458 0.62934 0.0
C516 C 0.28731 0.52292 0.66295 0.0
C517 C 0.31445 0.52097 0.6734 0.0
C518 C 0.25444 0.46448 0.57082 0.0
C519 C 0.28051 0.54461 0.68837 0.0
C520 C 0.20733 0.52437 0.57568 0.0
C521 C 0.17859 0.50325 0.59535 0.0
C522 C 0.23596 0.5257 0.587 0.0
C523 C 0.23658 0.50513 0.6186 0.0
C524 C 0.20764 0.48402 0.63878 0.0
C525 C 0.17948 0.48339 0.62714 0.0
C526 C 0.26569 0.54912 0.56473 0.0
C527 C 0.20632 0.46167 0.67276 0.0
H528 H 0.30671 0.46685 0.60105 0.0
H529 H 0.32948 0.53497 0.69926 0.0
H530 H 0.23067 0.44797 0.58315 0.0
H531 H 0.25201 0.47928 0.54613 0.0
H532 H 0.264 0.45085 0.5554 0.0
H533 H 0.29478 0.55264 0.71791 0.0
H534 H 0.28573 0.56529 0.66846 0.0
H535 H 0.25546 0.53297 0.69749 0.0
H536 H 0.20746 0.5399 0.55103 0.0
H537 H 0.15784 0.4669 0.64291 0.0
H538 H 0.27572 0.53681 0.54699 0.0
H539 H 0.28324 0.5643 0.58874 0.0
H540 H 0.26183 0.56409 0.54191 0.0
H541 H 0.21386 0.44587 0.65898 0.0
H542 H 0.18251 0.44725 0.68647 0.0
H543 H 0.22272 0.47483 0.69905 0.0
C544 C 0.81979 0.30939 0.94868 0.0
C545 C 0.82259 0.32336 0.98897 0.0
C546 C 0.79178 0.28166 0.93594 0.0
C547 C 0.7647 0.26779 0.96285 0.0
C548 C 0.76731 0.2829 1.00267 0.0
C549 C 0.79601 0.30933 1.01561 0.0
C550 C 0.79151 0.26669 0.8939 0.0
C551 C 0.73941 0.27159 1.03159 0.0
C552 C 0.68285 0.20799 0.91361 0.0
C553 C 0.67681 0.17884 0.92998 0.0
C554 C 0.71085 0.23669 0.92368 0.0
C555 C 0.7344 0.23708 0.95057 0.0
C556 C 0.72861 0.20758 0.96626 0.0
C557 C 0.70032 0.17947 0.95634 0.0
C558 C 0.7147 0.26682 0.9062 0.0
C559 C 0.75268 0.20551 0.99344 0.0
H560 H 0.83999 0.31938 0.92769 0.0
H561 H 0.79744 0.31966 1.04667 0.0
H562 H 0.785 0.24198 0.89934 0.0
H563 H 0.77366 0.26661 0.87239 0.0
H564 H 0.81453 0.279 0.87743 0.0
H565 H 0.74442 0.28628 1.06056 0.0
H566 H 0.72033 0.27191 1.01354 0.0
H567 H 0.73129 0.24725 1.04179 0.0
H568 H 0.66557 0.2085 0.89297 0.0
H569 H 0.69674 0.15757 0.96929 0.0
H570 H 0.73931 0.28343 0.89748 0.0
H571 H 0.7078 0.27801 0.93131 0.0
H572 H 0.69992 0.26284 0.87754 0.0
H573 H 0.77582 0.21776 0.97731 0.0
H574 H 0.74644 0.18097 0.99991 0.0
H575 H 0.75509 0.21728 1.02451 0.0
C576 C 0.51118 0.68898 0.29916 0.0
C577 C 0.4925 0.66688 0.26781 0.0
C578 C 0.5083 0.7154 0.30987 0.0
C579 C 0.48577 0.72085 0.28953 0.0
C580 C 0.46569 0.69777 0.25925 0.0
C581 C 0.46953 0.67171 0.24842 0.0
C582 C 0.53025 0.73815 0.3426 0.0
C583 C 0.44042 0.70077 0.237 0.0
C584 C 0.47169 0.78572 0.34065 0.0
C585 C 0.49176 0.81273 0.31658 0.0
C586 C 0.46838 0.75571 0.33143 0.0
C587 C 0.48565 0.75185 0.29746 0.0
C588 C 0.50514 0.77894 0.27263 0.0
C589 C 0.50781 0.8083 0.28224 0.0
C590 C 0.44687 0.72822 0.3591 0.0
C591 C 0.52368 0.77703 0.23559 0.0
H592 H 0.52897 0.68606 0.31511 0.0
H593 H 0.45477 0.65543 0.22412 0.0
H594 H 0.54536 0.76121 0.32719 0.0
H595 H 0.51673 0.74157 0.36824 0.0
H596 H 0.54543 0.73018 0.35747 0.0
H597 H 0.4212 0.67769 0.22623 0.0
H598 H 0.43048 0.71154 0.25818 0.0
H599 H 0.4506 0.71574 0.20827 0.0
H600 H 0.45898 0.78802 0.36731 0.0
H601 H 0.52327 0.82834 0.2627 0.0
H602 H 0.46079 0.72481 0.38411 0.0
H603 H 0.43489 0.70649 0.33998 0.0
H604 H 0.42902 0.73198 0.37522 0.0
H605 H 0.54037 0.76996 0.24739 0.0
H606 H 0.53699 0.7996 0.21816 0.0
H607 H 0.50773 0.75893 0.21272 0.0
C608 C 0.68927 0.47393 0.6887 0.0
C609 C 0.66871 0.47762 0.66128 0.0
C610 C 0.71594 0.47311 0.67328 0.0
C611 C 0.72368 0.47709 0.62892 0.0
C612 C 0.70257 0.48009 0.60084 0.0
C613 C 0.67547 0.48001 0.61709 0.0
C614 C 0.73647 0.46886 0.70501 0.0
C615 C 0.7093 0.48464 0.5535 0.0
C616 C 0.81207 0.51601 0.60189 0.0
C617 C 0.81632 0.49134 0.58763 0.0
C618 C 0.78247 0.51168 0.61397 0.0
C619 C 0.7553 0.48158 0.61307 0.0
C620 C 0.75918 0.45633 0.59863 0.0
C621 C 0.7893 0.46146 0.58593 0.0
C622 C 0.78046 0.53972 0.62824 0.0
C623 C 0.73161 0.42357 0.59774 0.0
H624 H 0.68464 0.47197 0.72283 0.0
H625 H 0.66021 0.48304 0.59522 0.0
H626 H 0.74164 0.45074 0.69362 0.0
H627 H 0.75908 0.491 0.70794 0.0
H628 H 0.72553 0.46202 0.73725 0.0
H629 H 0.69041 0.48541 0.5354 0.0
H630 H 0.73152 0.50682 0.54779 0.0
H631 H 0.71238 0.46547 0.54075 0.0
H632 H 0.83223 0.53932 0.60364 0.0
H633 H 0.79175 0.44192 0.57567 0.0
H634 H 0.77299 0.53681 0.66226 0.0
H635 H 0.76263 0.54168 0.60913 0.0
H636 H 0.80311 0.56187 0.62497 0.0
H637 H 0.72511 0.41472 0.63104 0.0
H638 H 0.73684 0.40741 0.57977 0.0
H639 H 0.71106 0.42327 0.58309 0.0
C640 C 0.32342 0.78436 0.90836 0.0
C641 C 0.32874 0.81176 0.92947 0.0
C642 C 0.29647 0.75448 0.91739 0.0
C643 C 0.27364 0.75124 0.94826 0.0
C644 C 0.27956 0.77874 0.97033 0.0
C645 C 0.30657 0.80804 0.96093 0.0
C646 C 0.29201 0.72634 0.89302 0.0
C647 C 0.25659 0.77754 1.00316 0.0
C648 C 0.18618 0.68701 0.9389 0.0
C649 C 0.18114 0.66586 0.97265 0.0
C650 C 0.21581 0.71368 0.93007 0.0
C651 C 0.2424 0.72028 0.95503 0.0
C652 C 0.23794 0.69836 0.98818 0.0
C653 C 0.20767 0.67176 0.99668 0.0
C654 C 0.21828 0.73561 0.89461 0.0
C655 C 0.26512 0.70346 1.01557 0.0
H656 H 0.33993 0.78632 0.88402 0.0
H657 H 0.30992 0.82854 0.97792 0.0
H658 H 0.28817 0.7074 0.91566 0.0
H659 H 0.27086 0.71727 0.87274 0.0
H660 H 0.31235 0.7318 0.87221 0.0
H661 H 0.265 0.80033 1.01932 0.0
H662 H 0.23397 0.77075 0.98744 0.0
H663 H 0.25206 0.75957 1.02782 0.0
H664 H 0.16639 0.68317 0.9196 0.0
H665 H 0.20471 0.65608 1.02285 0.0
H666 H 0.23701 0.73927 0.87177 0.0
H667 H 0.2247 0.75873 0.90826 0.0
H668 H 0.19608 0.72676 0.87664 0.0
H669 H 0.28536 0.70811 0.99511 0.0
H670 H 0.25918 0.68306 1.03657 0.0
H671 H 0.27251 0.72429 1.03599 0.0
C672 C 0.64396 0.27836 1.0294 0.0
C673 C 0.64334 0.2583 0.99738 0.0
C674 C 0.65126 0.27488 1.0718 0.0
C675 C 0.65675 0.25014 1.0819 0.0
C676 C 0.66109 0.23346 1.04858 0.0
C677 C 0.65512 0.23839 1.00649 0.0
C678 C 0.64821 0.29428 1.10644 0.0
C679 C 0.6664 0.20648 1.05761 0.0
C680 C 0.66226 0.22062 0.19198 0.0
C681 C 0.63124 0.1966 0.1978 0.0
C682 C 0.67095 0.24012 0.15565 0.0
C683 C 0.64803 0.23517 0.12473 0.0
C684 C 0.61639 0.21204 0.1319 0.0
C685 C 0.60846 0.19323 0.1684 0.0
C686 C 0.7048 0.26469 0.14951 0.0
C687 C 0.591 0.20587 1.09991 0.0
H688 H 0.63515 0.29399 1.02242 0.0
H689 H 0.65472 0.22275 0.98203 0.0
H690 H 0.62416 0.28161 0.11981 0.0
H691 H 0.66477 0.29851 0.13296 0.0
H692 H 0.65251 0.31707 1.09362 0.0
H693 H 0.6756 0.20041 1.02904 0.0
H694 H 0.68291 0.21185 1.08449 0.0
H695 H 0.64385 0.18563 1.06677 0.0
H696 H 0.67988 0.22351 0.21501 0.0
H697 H 0.58427 0.17541 0.17366 0.0
H698 H 0.7074 0.28497 0.13082 0.0
H699 H 0.71687 0.25438 0.13182 0.0
H700 H 0.71672 0.27307 0.18081 0.0
H701 H 0.59042 0.22761 1.09345 0.0
H702 H 0.56747 0.18772 1.11125 0.0
H703 H 0.59583 0.19797 1.06911 0.0
C704 C 0.3392 0.61342 0.3193 0.0
C705 C 0.33271 0.58228 0.31888 0.0
C706 C 0.34199 0.62853 0.35844 0.0
C707 C 0.33831 0.61193 0.39695 0.0
C708 C 0.32307 0.57891 0.39563 0.0
C709 C 0.32024 0.56434 0.35628 0.0
C710 C 0.35336 0.66303 0.35831 0.0
C711 C 0.31524 0.55946 0.43601 0.0
C712 C 0.40657 0.63248 0.4673 0.0
C713 C 0.39285 0.62918 0.50754 0.0
C714 C 0.3906 0.63155 0.42997 0.0
C715 C 0.36013 0.6275 0.43319 0.0
C716 C 0.34872 0.62978 0.47382 0.0
C717 C 0.36504 0.63008 0.51083 0.0
C718 C 0.40499 0.63101 0.38746 0.0
C719 C 0.31826 0.6294 0.47885 0.0
H720 H 0.34625 0.6271 0.29 0.0
H721 H 0.31301 0.53977 0.35658 0.0
H722 H 0.35239 0.67173 0.39066 0.0
H723 H 0.37771 0.67605 0.34615 0.0
H724 H 0.33894 0.66804 0.33601 0.0
H725 H 0.30115 0.53403 0.42936 0.0
H726 H 0.3371 0.56407 0.45224 0.0
H727 H 0.30188 0.56567 0.4584 0.0
H728 H 0.42881 0.63325 0.46494 0.0
H729 H 0.35475 0.62859 0.54204 0.0
H730 H 0.40456 0.64813 0.36498 0.0
H731 H 0.39146 0.60746 0.37302 0.0
H732 H 0.42963 0.63666 0.39073 0.0
H733 H 0.30899 0.63226 0.44788 0.0
H734 H 0.32155 0.64848 0.50066 0.0
H735 H 0.3007 0.60715 0.49412 0.0
C736 C 0.7039 0.36503 0.87955 0.0
C737 C 0.72705 0.35832 0.89227 0.0
C738 C 0.69264 0.35909 0.83732 0.0
C739 C 0.70663 0.34844 0.80731 0.0
C740 C 0.72536 0.33618 0.82252 0.0
C741 C 0.73514 0.34118 0.86505 0.0
C742 C 0.66845 0.36744 0.82419 0.0
C743 C 0.73942 0.32238 0.79295 0.0
C744 C 0.72142 0.34676 0.69149 0.0
C745 C 0.74926 0.37563 0.68892 0.0
C746 C 0.70211 0.33927 0.72783 0.0
C747 C 0.71217 0.36043 0.76253 0.0
C748 C 0.7366 0.39168 0.75567 0.0
C749 C 0.75449 0.39893 0.71838 0.0
C750 C 0.67297 0.30763 0.73057 0.0
C751 C 0.74712 0.41644 0.78987 0.0
H752 H 0.69659 0.37721 0.90126 0.0
H753 H 0.75271 0.33557 0.87512 0.0
H754 H 0.67689 0.3924 0.83116 0.0
H755 H 0.66213 0.36274 0.78984 0.0
H756 H 0.64703 0.35358 0.84375 0.0
H757 H 0.75268 0.31327 0.81059 0.0
H758 H 0.72077 0.30279 0.77467 0.0
H759 H 0.75562 0.34038 0.76987 0.0
H760 H 0.7161 0.32911 0.66738 0.0
H761 H 0.77474 0.42207 0.71447 0.0
H762 H 0.66001 0.30408 0.76106 0.0
H763 H 0.67893 0.28896 0.72677 0.0
H764 H 0.65732 0.30515 0.70357 0.0
H765 H 0.72729 0.41929 0.80012 0.0
H766 H 0.76612 0.43956 0.77854 0.0
H767 H 0.75581 0.40951 0.81817 0.0
C768 C 0.39314 0.78844 1.10212 0.0
C769 C 0.40579 0.77692 1.07214 0.0
C770 C 0.38066 0.77283 0.14072 0.0
C771 C 0.38009 0.74439 0.14928 0.0
C772 C 0.3901 0.73105 1.11744 0.0
C773 C 0.40319 0.74768 1.07921 0.0
C774 C 0.37024 0.78817 0.17348 0.0
C775 C 0.38892 0.70034 0.12463 0.0
C776 C 0.39516 0.74952 0.26554 0.0
C777 C 0.36526 0.74217 0.2796 0.0
C778 C 0.40042 0.74649 0.22233 0.0
C779 C 0.37468 0.73278 0.19411 0.0
C780 C 0.34398 0.71741 0.21106 0.0
C781 C 0.33947 0.72282 0.25393 0.0
C782 C 0.43363 0.76443 0.20591 0.0
C783 C 0.31597 0.70019 0.18245 0.0
H784 H 0.39386 0.81035 1.09591 0.0
H785 H 0.41248 0.73838 1.05576 0.0
H786 H 0.34571 0.77197 0.18316 0.0
H787 H 0.38501 0.79405 0.20251 0.0
H788 H 0.37178 0.81 0.16122 0.0
H789 H 0.38645 0.68819 1.0938 0.0
H790 H 0.41104 0.70469 0.13965 0.0
H791 H 0.36933 0.6847 0.14614 0.0
H792 H 0.41528 0.76356 0.28554 0.0
H793 H 0.31614 0.71592 0.26515 0.0
H794 H 0.43874 0.78786 0.19483 0.0
H795 H 0.43731 0.75253 0.17849 0.0
H796 H 0.45058 0.76784 0.23139 0.0
H797 H 0.2956 0.68208 0.20075 0.0
H798 H 0.32114 0.68901 0.15539 0.0
H799 H 0.30944 0.7169 0.16899 0.0
C800 C 0.64279 0.43792 0.40143 0.0
C801 C 0.64031 0.42905 0.35854 0.0
C802 C 0.64585 0.42003 0.43369 0.0
C803 C 0.64775 0.39324 0.42244 0.0
C804 C 0.65057 0.38738 0.37884 0.0
C805 C 0.6463 0.40512 0.3472 0.0
C806 C 0.64303 0.42778 0.47969 0.0
C807 C 0.65532 0.36091 0.36506 0.0
C808 C 0.64875 0.36393 0.53042 0.0
C809 C 0.61651 0.34975 0.53841 0.0
C810 C 0.66038 0.3733 0.48872 0.0
C811 C 0.63913 0.36857 0.45548 0.0
C812 C 0.60687 0.34733 0.46199 0.0
C813 C 0.59584 0.33798 0.5038 0.0
C814 C 0.69516 0.39263 0.4818 0.0
C815 C 0.58341 0.33923 0.42645 0.0
H816 H 0.63938 0.45721 0.41005 0.0
H817 H 0.64508 0.39843 0.31394 0.0
H818 H 0.62076 0.40911 0.49364 0.0
H819 H 0.6624 0.42922 0.49907 0.0
H820 H 0.64338 0.4503 0.4827 0.0
H821 H 0.63339 0.34204 0.3509 0.0
H822 H 0.67348 0.36916 0.3396 0.0
H823 H 0.66247 0.35114 0.39188 0.0
H824 H 0.66489 0.37156 0.55708 0.0
H825 H 0.57085 0.32583 0.5095 0.0
H826 H 0.70335 0.41732 0.49007 0.0
H827 H 0.70149 0.3917 0.44793 0.0
H828 H 0.70759 0.38436 0.50294 0.0
H829 H 0.58154 0.36005 0.41807 0.0
H830 H 0.55983 0.31996 0.43573 0.0
H831 H 0.59107 0.33208 0.39743 0.0
C832 C 0.22591 0.57291 0.83067 0.0
C833 C 0.23456 0.58482 0.87203 0.0
C834 C 0.2439 0.5896 0.79526 0.0
C835 C 0.27157 0.61886 0.80154 0.0
C836 C 0.28273 0.62863 0.84358 0.0
C837 C 0.26379 0.61168 0.87851 0.0
C838 C 0.23112 0.5774 0.75111 0.0
C839 C 0.31335 0.65797 0.85221 0.0
C840 C 0.29214 0.64002 0.68867 0.0
C841 C 0.27149 0.65115 0.68091 0.0
C842 C 0.29898 0.63566 0.73091 0.0
C843 C 0.2835 0.64109 0.7649 0.0
C844 C 0.26896 0.65901 0.75715 0.0
C845 C 0.2633 0.66408 0.71487 0.0
C846 C 0.31902 0.62128 0.73928 0.0
C847 C 0.2543 0.66773 0.79292 0.0
H848 H 0.20345 0.55209 0.82547 0.0
H849 H 0.27103 0.62051 0.91069 0.0
H850 H 0.22438 0.59322 0.73521 0.0
H851 H 0.24913 0.57654 0.73106 0.0
H852 H 0.21027 0.55358 0.75209 0.0
H853 H 0.32661 0.65316 0.87678 0.0
H854 H 0.32808 0.66745 0.82309 0.0
H855 H 0.30881 0.67601 0.86569 0.0
H856 H 0.29985 0.6314 0.66223 0.0
H857 H 0.24824 0.67374 0.70909 0.0
H858 H 0.30511 0.59832 0.75541 0.0
H859 H 0.33814 0.63645 0.76149 0.0
H860 H 0.32933 0.61819 0.70939 0.0
H861 H 0.23302 0.6465 0.8047 0.0
H862 H 0.24756 0.68497 0.78233 0.0
H863 H 0.27074 0.67777 0.82005 0.0
C864 C 0.43554 0.93925 1.05003 0.0
C865 C 0.42126 0.94404 1.0131 0.0
C866 C 0.44156 0.95622 1.09088 0.0
C867 C 0.43457 0.98108 1.09858 0.0
C868 C 0.41995 0.98583 1.06128 0.0
C869 C 0.41381 0.96813 1.02108 0.0
C870 C 0.45631 0.94682 0.12549 0.0
C871 C 0.41007 0.01001 1.0631 0.0
C872 C 0.43379 0.00725 0.22423 0.0
C873 C 0.45864 0.03895 0.22913 0.0
C874 C 0.42575 0.98921 0.184 0.0
C875 C 0.44222 0.00147 0.14364 0.0
C876 C 0.46625 0.03411 0.148 0.0
C877 C 0.47418 0.05127 0.18889 0.0
C878 C 0.39871 0.95621 0.18565 0.0
C879 C 0.48538 0.05174 1.1094 0.0
H880 H 0.44214 0.92151 1.04745 0.0
H881 H 0.40289 0.97365 0.9951 0.0
H882 H 0.45461 0.95523 0.15753 0.0
H883 H 0.4453 0.92099 0.12684 0.0
H884 H 0.48128 0.95632 1.11744 0.0
H885 H 0.38928 0.00323 1.0427 0.0
H886 H 0.40457 0.01374 1.09625 0.0
H887 H 0.42934 0.03247 1.05056 0.0
H888 H 0.42043 0.99568 0.25275 0.0
H889 H 0.49328 0.07521 0.18896 0.0
H890 H 0.40709 0.94056 0.19753 0.0
H891 H 0.38788 0.94786 0.15377 0.0
H892 H 0.38051 0.95425 0.20834 0.0
H893 H 0.50994 0.06832 1.11861 0.0
H894 H 0.4756 0.06571 1.09572 0.0
H895 H 0.48544 0.03604 1.0842 0.0
C896 C 0.47509 0.42828 0.3836 0.0
C897 C 0.45342 0.41118 0.35021 0.0
C898 C 0.46737 0.43774 0.4243 0.0
C899 C 0.43652 0.43204 0.43564 0.0
C900 C 0.41419 0.41421 0.40219 0.0
C901 C 0.42253 0.40448 0.36183 0.0
C902 C 0.49413 0.45519 0.45436 0.0
C903 C 0.38036 0.40447 0.4085 0.0
C904 C 0.42458 0.4447 0.56349 0.0
C905 C 0.41708 0.4691 0.56682 0.0
C906 C 0.43008 0.43272 0.52325 0.0
C907 C 0.42829 0.44406 0.48099 0.0
C908 C 0.4189 0.46757 0.48413 0.0
C909 C 0.4145 0.47977 0.52506 0.0
C910 C 0.43735 0.40669 0.5271 0.0
C911 C 0.41216 0.48009 0.444 0.0
H912 H 0.49919 0.43455 0.3782 0.0
H913 H 0.40418 0.39155 0.3388 0.0
H914 H 0.48782 0.46186 0.48489 0.0
H915 H 0.50548 0.4412 0.46128 0.0
H916 H 0.51133 0.4767 0.43768 0.0
H917 H 0.36497 0.38103 0.39452 0.0
H918 H 0.37421 0.40389 0.4428 0.0
H919 H 0.37547 0.42123 0.39143 0.0
H920 H 0.42654 0.43458 0.59331 0.0
H921 H 0.40792 0.49758 0.52389 0.0
H922 H 0.43159 0.39253 0.49752 0.0
H923 H 0.42427 0.39096 0.55429 0.0
H924 H 0.46261 0.41681 0.53386 0.0
H925 H 0.42143 0.50562 0.44676 0.0
H926 H 0.38646 0.46885 0.44019 0.0
H927 H 0.42193 0.47558 0.41474 0.0
C928 C 0.02569 0.48223 0.68067 0.0
C929 C 0.05532 0.48447 0.67576 0.0
C930 C 0.00685 0.47264 0.71996 0.0
C931 C 0.01551 0.46304 0.7593 0.0
C932 C 0.04488 0.46336 0.75326 0.0
C933 C 0.06396 0.47452 0.71389 0.0
C934 C 0.97712 0.47342 0.71746 0.0
C935 C 0.05627 0.44985 0.7872 0.0
C936 C 0.98698 0.45687 0.88552 0.0
C937 C 0.95421 0.43506 0.8875 0.0
C938 C 0.00621 0.46601 0.84641 0.0
C939 C 0.9944 0.4527 0.80427 0.0
C940 C 0.9614 0.42893 0.80707 0.0
C941 C 0.94244 0.42178 0.84634 0.0
C942 C 0.04004 0.4901 0.85247 0.0
C943 C 0.94519 0.40853 0.7691 0.0
H944 H 0.01682 0.48853 0.65297 0.0
H945 H 0.08565 0.47416 0.71272 0.0
H946 H 0.95969 0.4531 0.69875 0.0
H947 H 0.96756 0.47306 0.74942 0.0
H948 H 0.98137 0.49467 0.69984 0.0
H949 H 0.06433 0.4348 0.77225 0.0
H950 H 0.07681 0.46909 0.80348 0.0
H951 H 0.038 0.43565 0.8112 0.0
H952 H -0.00183 0.46771 0.91544 0.0
H953 H 0.91794 0.40409 0.8448 0.0
H954 H 0.05176 0.50168 0.82227 0.0
H955 H 0.05231 0.47863 0.86659 0.0
H956 H 0.04247 0.508 0.87583 0.0
H957 H 0.92849 0.41501 0.75557 0.0
H958 H 0.93118 0.38373 0.77946 0.0
H959 H 0.96168 0.41012 0.74383 0.0
C960 C 0.5558 0.95765 0.20061 0.0
C961 C 0.53289 0.95501 0.23106 0.0
C962 C 0.56407 0.97634 0.16089 0.0
C963 C 0.55012 0.99484 0.14819 0.0
C964 C 0.5282 0.9932 0.18027 0.0
C965 C 0.51969 0.97365 0.21882 0.0
C966 C 0.58875 0.97622 0.13285 0.0
C967 C 0.51321 0.01267 0.17488 0.0
C968 C 0.57758 0.06604 1.05956 0.0
C969 C 0.57111 0.05223 1.0179 0.0
C970 C 0.57222 0.04879 1.10014 0.0
C971 C 0.5578 0.01497 1.10298 0.0
C972 C 0.55058 0.00097 1.06075 0.0
C973 C 0.55777 0.01905 1.02074 0.0
C974 C 0.58369 0.06828 0.14004 0.0
C975 C 0.53453 0.966 1.0562 0.0
H976 H 0.56736 0.94447 0.20733 0.0
H977 H 0.50256 0.97362 0.24048 0.0
H978 H 0.60069 0.99739 1.11231 0.0
H979 H 0.60657 0.97462 0.15254 0.0
H980 H 0.57768 0.95533 1.112 0.0
H981 H 0.49072 0.00223 0.19246 0.0
H982 H 0.52847 0.03604 0.1889 0.0
H983 H 0.50945 0.01534 0.14057 0.0
H984 H 0.5882 0.09121 1.06084 0.0
H985 H 0.55203 0.00641 0.99078 0.0
H986 H 0.58459 0.05502 0.16815 0.0
H987 H 0.56823 0.07791 0.14736 0.0
H988 H 0.60746 0.08857 0.13453 0.0
H989 H 0.55149 0.95963 1.04334 0.0
H990 H 0.51521 0.95791 1.03267 0.0
H991 H 0.52484 0.95327 1.08671 0.0
C992 C 0.56278 0.53276 0.55883 0.0
C993 C 0.57026 0.50836 0.5612 0.0
C994 C 0.55686 0.54489 0.51913 0.0
C995 C 0.5581 0.53354 0.47685 0.0
C996 C 0.56751 0.51007 0.47899 0.0
C997 C 0.5724 0.49778 0.51941 0.0
C998 C 0.54974 0.57098 0.52351 0.0
C999 C 0.5735 0.49755 0.43834 0.0
C1000 C 0.51007 0.54942 0.3823 0.0
C1001 C 0.53147 0.56662 0.34857 0.0
C1002 C 0.51824 0.53974 0.42237 0.0
C1003 C 0.54927 0.54555 0.43235 0.0
C1004 C 0.57128 0.56348 0.39853 0.0
C1005 C 0.56246 0.57331 0.35883 0.0
C1006 C 0.49187 0.52215 0.45329 0.0
C1007 C 0.6052 0.57327 0.40373 0.0
H1008 H 0.56118 0.5427 0.58891 0.0
H1009 H 0.57891 0.47993 0.51781 0.0
H1010 H 0.55542 0.58535 0.49396 0.0
H1011 H 0.52453 0.5609 0.53074 0.0
H1012 H 0.56298 0.58649 0.55057 0.0
H1013 H 0.59911 0.509 0.43312 0.0
H1014 H 0.56455 0.47207 0.44133 0.0
H1015 H 0.56291 0.50179 0.40973 0.0
H1016 H 0.48596 0.54334 0.37773 0.0
H1017 H 0.58053 0.58645 0.33531 0.0
H1018 H 0.48073 0.53619 0.46104 0.0
H1019 H 0.49859 0.51531 0.48339 0.0
H1020 H 0.47433 0.50073 0.43704 0.0
H1021 H 0.62039 0.59682 0.38963 0.0
H1022 H 0.60997 0.55668 0.3861 0.0
H1023 H 0.61174 0.57363 0.43778 0.0
C1024 C 0.01447 0.57274 0.88251 0.0
C1025 C 0.04341 0.57306 0.88718 0.0
C1026 C 0.99582 0.5646 0.84309 0.0
C1027 C 0.00458 0.5556 0.80357 0.0
C1028 C 0.03447 0.55699 0.80777 0.0
C1029 C 0.05249 0.56508 0.84779 0.0
C1030 C 0.96665 0.56688 0.8447 0.0
C1031 C 0.04889 0.55107 0.76906 0.0
C1032 C 0.93532 0.5087 0.71426 0.0
C1033 C 0.94609 0.52531 0.67448 0.0
C1034 C 0.95278 0.51822 0.75487 0.0
C1035 C 0.98365 0.54567 0.75917 0.0
C1036 C 0.99374 0.56326 0.7194 0.0
C1037 C 0.97574 0.55318 0.6795 0.0
C1038 C 0.93753 0.49747 0.79326 0.0
C1039 C 0.02363 0.59427 0.71793 0.0
H1040 H 0.0058 0.57891 0.91049 0.0
H1041 H 0.07457 0.56547 0.84776 0.0
H1042 H 0.95771 0.56771 0.81247 0.0
H1043 H 0.94829 0.54647 0.86259 0.0
H1044 H 0.97111 0.58811 0.86252 0.0
H1045 H 0.06455 0.54202 0.77796 0.0
H1046 H 0.031 0.53471 0.74644 0.0
H1047 H 0.06371 0.57354 0.75222 0.0
H1048 H 0.91269 0.48754 0.71399 0.0
H1049 H 0.98553 0.56779 0.65135 0.0
H1050 H 0.92247 0.50497 0.80948 0.0
H1051 H 0.95494 0.4985 0.81654 0.0
H1052 H 0.92221 0.47277 0.78352 0.0
H1053 H 0.0197 0.61179 0.70109 0.0
H1054 H 0.04126 0.59185 0.69897 0.0
H1055 H 0.03318 0.60343 0.75013 0.0
C1056 C 0.46073 0.98468 0.42162 0.0
C1057 C 0.46643 0.01521 0.42672 0.0
C1058 C 0.46624 0.97053 0.45717 0.0
C1059 C 0.48603 0.99041 0.48966 0.0
C1060 C 0.47964 0.01365 0.50153 0.0
C1061 C 0.46964 0.02641 0.46929 0.0
C1062 C 0.44741 0.93602 0.46503 0.0
C1063 C 0.48848 0.02777 0.5452 0.0
C1064 C 0.52924 0.96083 0.45935 0.0
C1065 C 0.52715 0.96959 0.41693 0.0
C1066 C 0.52728 0.97805 0.49363 0.0
C1067 C 0.52004 0.00112 0.48393 0.0
C1068 C 0.53371 0.01772 0.44551 0.0
C1069 C 0.53388 0.00036 0.41003 0.0
C1070 C 0.52601 0.96804 0.53917 0.0
C1071 C 0.5453 0.05203 0.44166 0.0
H1072 H 0.45165 0.97222 0.39187 0.0
H1073 H 0.46719 0.04618 0.47688 0.0
H1074 H 0.43261 0.92332 0.43715 0.0
H1075 H 0.46303 0.92693 0.47358 0.0
H1076 H 0.43193 0.93153 0.49313 0.0
H1077 H 0.47132 0.03431 0.55659 0.0
H1078 H 0.48942 0.0112 0.56843 0.0
H1079 H 0.51198 0.04891 0.54368 0.0
H1080 H 0.52943 0.93974 0.46625 0.0
H1081 H 0.53651 0.00965 0.37786 0.0
H1082 H 0.50139 0.95127 0.54784 0.0
H1083 H 0.53439 0.98838 0.56095 0.0
H1084 H 0.5406 0.95708 0.54358 0.0
H1085 H 0.53792 0.05747 0.41101 0.0
H1086 H 0.57122 0.06473 0.44138 0.0
H1087 H 0.53762 0.06082 0.46894 0.0
C1088 C 0.47605 0.5259 0.8 0.0
C1089 C 0.45762 0.50468 0.76755 0.0
C1090 C 0.48119 0.51424 0.8385 0.0
C1091 C 0.47429 0.48292 0.83846 0.0
C1092 C 0.44527 0.46327 0.81858 0.0
C1093 C 0.44003 0.47288 0.77866 0.0
C1094 C 0.49683 0.53531 0.87604 0.0
C1095 C 0.42057 0.43362 0.83907 0.0
C1096 C 0.49916 0.44395 0.76408 0.0
C1097 C 0.51735 0.4701 0.73791 0.0
C1098 C 0.49198 0.44786 0.80631 0.0
C1099 C 0.50015 0.47816 0.8207 0.0
C1100 C 0.52544 0.50342 0.79875 0.0
C1101 C 0.53082 0.4998 0.75599 0.0
C1102 C 0.47715 0.42007 0.83592 0.0
C1103 C 0.54879 0.53308 0.82069 0.0
H1104 H 0.48544 0.5508 0.79614 0.0
H1105 H 0.42099 0.45664 0.75878 0.0
H1106 H 0.50385 0.52382 0.9007 0.0
H1107 H 0.51717 0.55781 0.86563 0.0
H1108 H 0.48051 0.54157 0.89074 0.0
H1109 H 0.41562 0.41348 0.8185 0.0
H1110 H 0.42743 0.43033 0.87165 0.0
H1111 H 0.39851 0.43425 0.84142 0.0
H1112 H 0.49303 0.42081 0.7531 0.0
H1113 H 0.54916 0.51959 0.73874 0.0
H1114 H 0.45494 0.40141 0.82218 0.0
H1115 H 0.47335 0.42643 0.86851 0.0
H1116 H 0.49265 0.41 0.83863 0.0
H1117 H 0.54559 0.55268 0.80995 0.0
H1118 H 0.57289 0.53938 0.8111 0.0
H1119 H 0.54715 0.53054 0.85601 0.0
C1120 C 0.92808 0.50209 1.07189 0.0
C1121 C 0.94642 0.48803 1.0646 0.0
C1122 C 0.93232 0.51939 1.10938 0.0
C1123 C 0.95879 0.52717 0.13465 0.0
C1124 C 0.9669 0.50341 0.13634 0.0
C1125 C 0.96379 0.48652 1.09901 0.0
C1126 C 0.9106 0.53129 0.12025 0.0
C1127 C 0.98056 0.49732 0.1757 0.0
C1128 C 0.03301 0.55958 1.11849 0.0
C1129 C 0.02773 0.55797 1.07409 0.0
C1130 C 0.01424 0.56549 0.14635 0.0
C1131 C 0.98567 0.56047 0.12981 0.0
C1132 C 0.98889 0.5729 1.08789 0.0
C1133 C 0.00745 0.56785 1.05866 0.0
C1134 C 0.02165 0.5714 0.19322 0.0
C1135 C 0.97105 0.58834 1.07326 0.0
H1136 H 0.90962 0.49838 1.04988 0.0
H1137 H 0.97311 0.47085 1.09783 0.0
H1138 H 0.92054 0.54958 0.14534 0.0
H1139 H 0.90479 0.54034 1.09122 0.0
H1140 H 0.88839 0.51149 0.13261 0.0
H1141 H 0.97068 0.47188 0.18031 0.0
H1142 H 0.00602 0.50708 0.17135 0.0
H1143 H 0.97595 0.50724 0.20474 0.0
H1144 H 0.05088 0.55602 0.13136 0.0
H1145 H 0.00673 0.57241 1.02482 0.0
H1146 H 0.03332 0.55871 0.20524 0.0
H1147 H 0.00036 0.56501 0.21246 0.0
H1148 H 0.03825 0.59671 0.19768 0.0
H1149 H 0.9599 0.59335 1.10056 0.0
H1150 H 0.95311 0.57326 1.0496 0.0
H1151 H 0.98719 0.6106 1.05662 0.0
C1152 C 0.04124 0.52067 0.46314 0.0
C1153 C 0.05561 0.53995 0.49853 0.0
C1154 C 0.03772 0.53365 0.42523 0.0
C1155 C 0.04074 0.5637 0.42706 0.0
C1156 C 0.06499 0.58458 0.45412 0.0
C1157 C 0.07011 0.57264 0.49224 0.0
C1158 C 0.03098 0.51553 0.38429 0.0
C1159 C 0.08412 0.61883 0.44341 0.0
C1160 C 0.98376 0.54981 0.49948 0.0
C1161 C 0.965 0.51903 0.48531 0.0
C1162 C 0.00434 0.57295 0.47123 0.0
C1163 C 0.01019 0.56359 0.43099 0.0
C1164 C 0.98402 0.53741 0.41315 0.0
C1165 C 0.96387 0.51316 0.44109 0.0
C1166 C 0.02082 0.60638 0.48577 0.0
C1167 C 0.97959 0.53452 0.36548 0.0
H1168 H 0.03573 0.49651 0.46365 0.0
H1169 H 0.08683 0.58867 0.5152 0.0
H1170 H 0.00634 0.49621 0.38419 0.0
H1171 H 0.03579 0.53078 0.35584 0.0
H1172 H 0.04572 0.50452 0.38219 0.0
H1173 H 0.10773 0.62423 0.43292 0.0
H1174 H 0.07347 0.62543 0.41705 0.0
H1175 H 0.08753 0.63334 0.47211 0.0
H1176 H 0.9821 0.55599 0.53225 0.0
H1177 H 0.94708 0.49059 0.4284 0.0
H1178 H 0.03124 0.62281 0.45843 0.0
H1179 H 0.03898 0.6102 0.5096 0.0
H1180 H 0.0042 0.6115 0.50267 0.0
H1181 H 0.0018 0.54946 0.34803 0.0
H1182 H 0.96367 0.54324 0.35667 0.0
H1183 H 0.96874 0.50984 0.355 0.0
C1184 C 0.45418 0.95536 0.77448 0.0
C1185 C 0.44713 0.9575 0.81771 0.0
C1186 C 0.45261 0.97563 0.74394 0.0
C1187 C 0.45261 0.00219 0.75959 0.0
C1188 C 0.43279 0.99548 0.79559 0.0
C1189 C 0.43378 0.97596 0.82726 0.0
C1190 C 0.4562 0.97248 0.69685 0.0
C1191 C 0.41388 0.0111 0.80282 0.0
C1192 C 0.4997 0.06182 0.8295 0.0
C1193 C 0.51574 0.04673 0.84417 0.0
C1194 C 0.4863 0.05543 0.78853 0.0
C1195 C 0.48484 0.03035 0.7654 0.0
C1196 C 0.50957 0.0243 0.77367 0.0
C1197 C 0.52189 0.02916 0.8149 0.0
C1198 C 0.47339 0.07474 0.7702 0.0
C1199 C 0.52354 0.01359 0.73951 0.0
H1200 H 0.46099 0.93869 0.76477 0.0
H1201 H 0.42409 0.9751 0.85866 0.0
H1202 H 0.469 0.99562 0.68076 0.0
H1203 H 0.4677 0.95859 0.6903 0.0
H1204 H 0.43256 0.96056 0.68272 0.0
H1205 H 0.42466 0.0287 0.82859 0.0
H1206 H 0.41179 0.02221 0.77305 0.0
H1207 H 0.39013 0.99365 0.81418 0.0
H1208 H 0.49971 0.08019 0.8483 0.0
H1209 H 0.53909 0.0224 0.8225 0.0
H1210 H 0.45879 0.07804 0.79423 0.0
H1211 H 0.45987 0.06433 0.74047 0.0
H1212 H 0.49312 0.09834 0.76231 0.0
H1213 H 0.54923 0.02513 0.74354 0.0
H1214 H 0.51866 0.01919 0.7071 0.0
H1215 H 0.51459 0.98817 0.74256 0.0
C1216 C 0.52076 0.55402 1.1165 0.0
C1217 C 0.5203 0.54355 0.15881 0.0
C1218 C 0.51565 0.53395 1.08193 0.0
C1219 C 0.50857 0.50355 1.09138 0.0
C1220 C 0.52384 0.50084 0.12818 0.0
C1221 C 0.52628 0.51899 0.16406 0.0
C1222 C 0.51078 0.5421 1.03745 0.0
C1223 C 0.53552 0.47823 0.1301 0.0
C1224 C 0.45142 0.46212 0.15753 0.0
C1225 C 0.45711 0.4373 0.15297 0.0
C1226 C 0.45577 0.48078 0.12121 0.0
C1227 C 0.47446 0.47983 1.08765 0.0
C1228 C 0.46785 0.44982 1.07712 0.0
C1229 C 0.45908 0.42803 1.11067 0.0
C1230 C 0.43893 0.4986 1.11583 0.0
C1231 C 0.47555 0.44329 1.03336 0.0
H1232 H 0.52211 0.57586 1.11004 0.0
H1233 H 0.53034 0.51258 0.19562 0.0
H1234 H 0.51544 0.52845 1.01338 0.0
H1235 H 0.4861 0.53611 1.03389 0.0
H1236 H 0.52638 0.5674 1.03124 0.0
H1237 H 0.53107 0.46698 0.162 0.0
H1238 H 0.52532 0.46051 1.10458 0.0
H1239 H 0.56123 0.49135 0.1254 0.0
H1240 H 0.44378 0.46663 0.18782 0.0
H1241 H 0.45715 0.40582 1.10427 0.0
H1242 H 0.45591 0.5234 1.10938 0.0
H1243 H 0.42438 0.4963 0.14422 0.0
H1244 H 0.42361 0.48973 1.08728 0.0
H1245 H 0.47432 0.45913 1.00914 0.0
H1246 H 0.4592 0.41867 1.02438 0.0
H1247 H 0.49971 0.44742 1.03332 0.0
C1248 C 0.28406 0.96535 0.70124 0.0
C1249 C 0.31453 0.97083 0.70716 0.0
C1250 C 0.27603 0.97558 0.66398 0.0
C1251 C 0.29885 0.99083 0.6317 0.0
C1252 C 0.33006 0.99791 0.63869 0.0
C1253 C 0.33752 0.98816 0.67659 0.0
C1254 C 0.24283 0.96856 0.65877 0.0
C1255 C 0.35541 0.01437 0.60528 0.0
C1256 C 0.29197 0.98381 0.51421 0.0
C1257 C 0.30689 0.01565 0.50391 0.0
C1258 C 0.28371 0.97392 0.5566 0.0
C1259 C 0.29038 0.99657 0.58859 0.0
C1260 C 0.29888 0.0274 0.57664 0.0
C1261 C 0.3075 0.03684 0.53406 0.0
C1262 C 0.2731 0.94039 0.56787 0.0
C1263 C 0.30369 0.05149 0.60972 0.0
H1264 H 0.26613 0.95202 0.72487 0.0
H1265 H 0.36131 0.99335 0.68177 0.0
H1266 H 0.24096 0.98465 0.63573 0.0
H1267 H 0.2282 0.9443 0.64708 0.0
H1268 H 0.23301 0.97011 0.69007 0.0
H1269 H 0.35824 0.03752 0.59749 0.0
H1270 H 0.37838 0.01798 0.61603 0.0
H1271 H 0.34889 0.0005 0.57537 0.0
H1272 H 0.29049 0.96729 0.4903 0.0
H1273 H 0.3183 0.06142 0.52589 0.0
H1274 H 0.2545 0.9316 0.59262 0.0
H1275 H 0.29311 0.93889 0.58114 0.0
H1276 H 0.26416 0.92496 0.53943 0.0
H1277 H 0.28656 0.04082 0.63629 0.0
H1278 H 0.30155 0.07087 0.59531 0.0
H1279 H 0.32749 0.06151 0.6234 0.0
C1280 C 0.29423 0.29053 1.06966 0.0
C1281 C 0.30574 0.27008 1.07555 0.0
C1282 C 0.28638 0.29581 1.02873 0.0
C1283 C 0.28996 0.27997 0.99354 0.0
C1284 C 0.29561 0.25504 1.00075 0.0
C1285 C 0.30392 0.25058 1.04192 0.0
C1286 C 0.2794 0.32192 1.02248 0.0
C1287 C 0.29743 0.23624 0.96417 0.0
C1288 C 0.28176 0.30874 0.88436 0.0
C1289 C 0.31286 0.33164 0.87604 0.0
C1290 C 0.2738 0.29024 0.92148 0.0
C1291 C 0.2975 0.29554 0.95117 0.0
C1292 C 0.3291 0.31808 0.9421 0.0
C1293 C 0.33635 0.33568 0.90445 0.0
C1294 C 0.24 0.26609 0.92933 0.0
C1295 C 0.35522 0.32472 0.973 0.0
H1296 H 0.29524 0.30538 1.09577 0.0
H1297 H 0.31203 0.23414 1.04683 0.0
H1298 H 0.2607 0.31542 0.99844 0.0
H1299 H 0.27212 0.32805 1.05288 0.0
H1300 H 0.30069 0.343 1.01044 0.0
H1301 H 0.29392 0.21339 0.97545 0.0
H1302 H 0.2797 0.23214 0.93942 0.0
H1303 H 0.32085 0.24937 0.94896 0.0
H1304 H 0.26362 0.30551 0.86203 0.0
H1305 H 0.36034 0.35362 0.8981 0.0
H1306 H 0.22841 0.27713 0.94646 0.0
H1307 H 0.2375 0.24629 0.94908 0.0
H1308 H 0.22745 0.25683 0.89862 0.0
H1309 H 0.3509 0.33269 1.00409 0.0
H1310 H 0.37844 0.34293 0.9608 0.0
H1311 H 0.35614 0.30312 0.97916 0.0
C1312 C 0.07154 0.37651 0.12673 0.0
C1313 C 0.06478 0.3988 1.10986 0.0
C1314 C 0.08485 0.38066 0.16747 0.0
C1315 C 0.09231 0.40806 0.19038 0.0
C1316 C 0.09326 0.43358 0.16863 0.0
C1317 C 0.07893 0.42856 0.12854 0.0
C1318 C 0.0857 0.35369 0.18859 0.0
C1319 C 0.10419 0.46428 0.1909 0.0
C1320 C 0.05302 0.39691 0.29781 0.0
C1321 C 0.07818 0.40763 0.32591 0.0
C1322 C 0.05736 0.39574 0.25381 0.0
C1323 C 0.08786 0.40609 0.23748 0.0
C1324 C 0.11331 0.41629 0.26597 0.0
C1325 C 0.1081 0.41682 0.31008 0.0
C1326 C 0.0293 0.38437 0.2248 0.0
C1327 C 0.1462 0.42797 0.2503 0.0
H1328 H 0.06257 0.35414 1.11098 0.0
H1329 H 0.07521 0.44664 1.11519 0.0
H1330 H 0.10561 0.36209 0.21111 0.0
H1331 H 0.0638 0.33964 0.20714 0.0
H1332 H 0.08747 0.33821 0.16447 0.0
H1333 H 0.10585 0.48267 0.16876 0.0
H1334 H 0.08756 0.46087 0.21695 0.0
H1335 H 0.12734 0.47236 0.20577 0.0
H1336 H 0.02991 0.38965 0.31037 0.0
H1337 H 0.12761 0.42539 0.33208 0.0
H1338 H 0.02723 0.36534 0.20392 0.0
H1339 H 0.03211 0.40376 0.20384 0.0
H1340 H 0.00712 0.37547 0.24302 0.0
H1341 H 0.14679 0.41747 0.21925 0.0
H1342 H 0.15979 0.42303 0.27417 0.0
H1343 H 0.15803 0.45368 0.24598 0.0
C1344 C 0.62023 0.97503 0.68844 0.0
C1345 C 0.62368 0.97106 0.73199 0.0
C1346 C 0.61759 0.95292 0.65859 0.0
C1347 C 0.61815 0.92593 0.67278 0.0
C1348 C 0.62097 0.92141 0.71691 0.0
C1349 C 0.62406 0.94431 0.74606 0.0
C1350 C 0.6144 0.95869 0.61174 0.0
C1351 C 0.62141 0.893 0.7336 0.0
C1352 C 0.58361 0.87348 0.58039 0.0
C1353 C 0.6106 0.88474 0.55492 0.0
C1354 C 0.58591 0.8822 0.6234 0.0
C1355 C 0.61567 0.90307 0.64033 0.0
C1356 C 0.6428 0.90895 0.61757 0.0
C1357 C 0.63991 0.89932 0.5749 0.0
C1358 C 0.55654 0.87328 0.64857 0.0
C1359 C 0.67497 0.92971 0.63564 0.0
H1360 H 0.6203 0.99589 0.67756 0.0
H1361 H 0.62656 0.94117 0.7799 0.0
H1362 H 0.59194 0.93964 0.59915 0.0
H1363 H 0.61508 0.98121 0.60624 0.0
H1364 H 0.63352 0.95891 0.5929 0.0
H1365 H 0.61221 0.88732 0.76687 0.0
H1366 H 0.60761 0.87221 0.71322 0.0
H1367 H 0.6459 0.89796 0.73415 0.0
H1368 H 0.5607 0.86136 0.5658 0.0
H1369 H 0.66081 0.90665 0.55585 0.0
H1370 H 0.5542 0.89419 0.65329 0.0
H1371 H 0.55806 0.86463 0.6808 0.0
H1372 H 0.53526 0.85506 0.63222 0.0
H1373 H 0.68103 0.95448 0.63254 0.0
H1374 H 0.69295 0.92678 0.61832 0.0
H1375 H 0.67565 0.92467 0.67011 0.0
C1376 C 0.61112 0.71804 0.99049 0.0
C1377 C 0.62391 0.70454 1.0173 0.0
C1378 C 0.61278 0.7164 0.94576 0.0
C1379 C 0.62713 0.70051 0.92787 0.0
C1380 C 0.64285 0.68978 0.95477 0.0
C1381 C 0.64109 0.69201 0.99913 0.0
C1382 C 0.59689 0.7293 0.91815 0.0
C1383 C 0.65869 0.67284 0.93709 0.0
C1384 C 0.59507 0.64347 0.83798 0.0
C1385 C 0.62033 0.65682 0.80945 0.0
C1386 C 0.59513 0.65942 0.87481 0.0
C1387 C 0.62099 0.68944 0.883 0.0
C1388 C 0.64426 0.70475 0.85127 0.0
C1389 C 0.64384 0.68807 0.81483 0.0
C1390 C 0.56954 0.64234 0.90746 0.0
C1391 C 0.67132 0.73736 0.85783 0.0
H1392 H 0.59835 0.72836 1.00441 0.0
H1393 H 0.65088 0.68135 1.01951 0.0
H1394 H 0.60857 0.73725 0.88654 0.0
H1395 H 0.57233 0.71079 0.91261 0.0
H1396 H 0.59654 0.74913 0.93414 0.0
H1397 H 0.67203 0.6684 0.96197 0.0
H1398 H 0.64084 0.65004 0.92369 0.0
H1399 H 0.67496 0.68654 0.91081 0.0
H1400 H 0.57679 0.61935 0.83394 0.0
H1401 H 0.66304 0.69871 0.79214 0.0
H1402 H 0.56129 0.65781 0.92017 0.0
H1403 H 0.57878 0.63502 0.93475 0.0
H1404 H 0.54928 0.62119 0.89377 0.0
H1405 H 0.66392 0.7519 0.87571 0.0
H1406 H 0.68179 0.74891 0.82676 0.0
H1407 H 0.68968 0.73626 0.87679 0.0
C1408 C 0.11411 0.69772 0.23764 0.0
C1409 C 0.11164 0.71871 0.20988 0.0
C1410 C 0.10238 0.69323 0.27941 0.0
C1411 C 0.08798 0.71014 0.29321 0.0
C1412 C 0.0911 0.73549 0.26836 0.0
C1413 C 0.10291 0.73948 0.22658 0.0
C1414 C 0.10069 0.66678 0.30566 0.0
C1415 C 0.07764 0.75523 0.28323 0.0
C1416 C 0.00815 0.65684 0.34015 0.0
C1417 C 0.01382 0.66154 0.38408 0.0
C1418 C 0.03204 0.6733 0.31042 0.0
C1419 C 0.06236 0.69541 0.32504 0.0
C1420 C 0.06795 0.70134 0.36933 0.0
C1421 C 0.04358 0.68408 0.39847 0.0
C1422 C 0.02496 0.66611 0.26335 0.0
C1423 C 0.09976 0.72472 0.38633 0.0
H1424 H 0.12129 0.68184 0.22533 0.0
H1425 H 0.10201 0.7565 0.20559 0.0
H1426 H 0.10358 0.67247 0.34024 0.0
H1427 H 0.07745 0.64557 0.30117 0.0
H1428 H 0.11888 0.66125 0.29554 0.0
H1429 H 0.08855 0.77804 0.26614 0.0
H1430 H 0.05218 0.74275 0.27663 0.0
H1431 H 0.0809 0.75944 0.31821 0.0
H1432 H 0.98503 0.6398 0.32901 0.0
H1433 H 0.04814 0.68751 0.43254 0.0
H1434 H 0.03941 0.65676 0.25008 0.0
H1435 H 0.03084 0.68774 0.24535 0.0
H1436 H -1e-05 0.64871 0.25753 0.0
H1437 H 0.11355 0.71294 0.39134 0.0
H1438 H 0.09784 0.73419 0.41767 0.0
H1439 H 0.11283 0.74444 0.36371 0.0
C1440 C 0.54831 0.1167 0.51938 0.0
C1441 C 0.51696 0.10673 0.50605 0.0
C1442 C 0.55867 0.11842 0.56396 0.0
C1443 C 0.53784 0.10891 0.60072 0.0
C1444 C 0.50599 0.09877 0.58744 0.0
C1445 C 0.49656 0.09846 0.54247 0.0
C1446 C 0.59312 0.13137 0.57055 0.0
C1447 C 0.48042 0.08684 0.62064 0.0
C1448 C 0.57281 0.09263 0.71184 0.0
C1449 C 0.57054 0.11124 0.7452 0.0
C1450 C 0.56213 0.09109 0.66737 0.0
C1451 C 0.54903 0.10959 0.65104 0.0
C1452 C 0.54736 0.12896 0.68458 0.0
C1453 C 0.55712 0.12905 0.72917 0.0
C1454 C 0.56498 0.0686 0.63797 0.0
C1455 C 0.53543 0.15081 0.67419 0.0
H1456 H 0.56569 0.12363 0.49426 0.0
H1457 H 0.4722 0.09039 0.53594 0.0
H1458 H 0.60055 0.13876 0.604 0.0
H1459 H 0.5991 0.11333 0.56157 0.0
H1460 H 0.60677 0.15176 0.54909 0.0
H1461 H 0.45838 0.06725 0.60772 0.0
H1462 H 0.4866 0.07872 0.65022 0.0
H1463 H 0.47568 0.10583 0.62898 0.0
H1464 H 0.58286 0.07837 0.72056 0.0
H1465 H 0.55436 0.14397 0.75189 0.0
H1466 H 0.5889 0.08017 0.62426 0.0
H1467 H 0.54786 0.06079 0.6114 0.0
H1468 H 0.56166 0.04771 0.65582 0.0
H1469 H 0.54916 0.17322 0.69154 0.0
H1470 H 0.51088 0.14018 0.68539 0.0
H1471 H 0.53641 0.15595 0.63945 0.0
C1472 C 0.43034 0.5648 0.85615 0.0
C1473 C 0.41722 0.53358 0.84019 0.0
C1474 C 0.43887 0.57424 0.9011 0.0
C1475 C 0.43641 0.55302 0.93519 0.0
C1476 C 0.42338 0.52136 0.91899 0.0
C1477 C 0.41389 0.51246 0.8741 0.0
C1478 C 0.45023 0.60796 0.91123 0.0
C1479 C 0.42073 0.4959 0.94828 0.0
C1480 C 0.48776 0.59442 1.04466 0.0
C1481 C 0.46719 0.58158 1.08075 0.0
C1482 C 0.47869 0.5858 0.99955 0.0
C1483 C 0.44711 0.56345 0.98571 0.0
C1484 C 0.42605 0.55141 1.02219 0.0
C1485 C 0.43598 0.55998 1.06691 0.0
C1486 C 0.50437 0.60101 0.96683 0.0
C1487 C 0.39181 0.52906 1.01505 0.0
H1488 H 0.43382 0.58266 0.83307 0.0
H1489 H 0.40454 0.48824 0.86535 0.0
H1490 H 0.44893 0.61201 0.94588 0.0
H1491 H 0.47478 0.62237 0.90018 0.0
H1492 H 0.43628 0.61621 0.89349 0.0
H1493 H 0.42748 0.48059 0.931 0.0
H1494 H 0.43557 0.50514 0.97717 0.0
H1495 H 0.396 0.48107 0.95833 0.0
H1496 H 0.51199 0.61113 1.05154 0.0
H1497 H 0.41845 0.549 1.09178 0.0
H1498 H 0.50838 0.6247 0.95962 0.0
H1499 H 0.4988 0.58753 0.93671 0.0
H1500 H 0.52661 0.60402 0.97965 0.0
H1501 H 0.37749 0.53417 1.03739 0.0
H1502 H 0.3867 0.50497 1.02219 0.0
H1503 H 0.3844 0.52996 0.98183 0.0
C1504 C 0.87116 0.43699 0.17543 0.0
C1505 C 0.89108 0.42602 0.15964 0.0
C1506 C 0.86984 0.44536 0.22016 0.0
C1507 C 0.8898 0.44469 0.25362 0.0
C1508 C 0.91039 0.43418 0.23752 0.0
C1509 C 0.91021 0.42471 0.19297 0.0
C1510 C 0.8458 0.45445 0.2307 0.0
C1511 C 0.93363 0.43302 0.26742 0.0
C1512 C 0.89939 0.49335 0.36425 0.0
C1513 C 0.88801 0.4712 0.39877 0.0
C1514 C 0.90034 0.4855 0.31902 0.0
C1515 C 0.88887 0.45394 0.30397 0.0
C1516 C 0.8767 0.43147 0.33868 0.0
C1517 C 0.87683 0.44009 0.38359 0.0
C1518 C 0.91471 0.51182 0.28694 0.0
C1519 C 0.86292 0.39725 0.3292 0.0
H1520 H 0.85569 0.43875 0.15253 0.0
H1521 H 0.92613 0.41666 0.18408 0.0
H1522 H 0.84236 0.45552 0.2656 0.0
H1523 H 0.85305 0.4776 0.21616 0.0
H1524 H 0.82302 0.43751 0.2162 0.0
H1525 H 0.95462 0.43643 0.24977 0.0
H1526 H 0.94122 0.45103 0.29278 0.0
H1527 H 0.92268 0.4097 0.28294 0.0
H1528 H 0.90828 0.51756 0.37261 0.0
H1529 H 0.86775 0.42161 0.4074 0.0
H1530 H 0.89653 0.51001 0.26457 0.0
H1531 H 0.93272 0.51019 0.26769 0.0
H1532 H 0.92553 0.53511 0.30236 0.0
H1533 H 0.84264 0.38293 0.35053 0.0
H1534 H 0.88072 0.39045 0.33578 0.0
H1535 H 0.85519 0.39149 0.29548 0.0
C1536 C 0.43933 0.86288 0.51467 0.0
C1537 C 0.47117 0.87776 0.50026 0.0
C1538 C 0.42912 0.86117 0.55933 0.0
C1539 C 0.45035 0.8765 0.59468 0.0
C1540 C 0.48265 0.89129 0.58043 0.0
C1541 C 0.49219 0.89099 0.53565 0.0
C1542 C 0.39457 0.84115 0.56763 0.0
C1543 C 0.508 0.90938 0.61261 0.0
C1544 C 0.41348 0.89294 0.70364 0.0
C1545 C 0.41987 0.87856 0.73917 0.0
C1546 C 0.42293 0.89262 0.6588 0.0
C1547 C 0.43937 0.87678 0.64481 0.0
C1548 C 0.44445 0.86093 0.68041 0.0
C1549 C 0.43578 0.86267 0.72498 0.0
C1550 C 0.41604 0.9108 0.62614 0.0
C1551 C 0.45821 0.84031 0.67246 0.0
H1552 H 0.42147 0.85159 0.49046 0.0
H1553 H 0.51687 0.90244 0.52822 0.0
H1554 H 0.38842 0.83829 0.60214 0.0
H1555 H 0.38201 0.85143 0.55101 0.0
H1556 H 0.38599 0.81763 0.55367 0.0
H1557 H 0.53175 0.91894 0.59875 0.0
H1558 H 0.50545 0.92894 0.62516 0.0
H1559 H 0.50584 0.89441 0.6402 0.0
H1560 H 0.40142 0.90554 0.71096 0.0
H1561 H 0.44136 0.8506 0.74929 0.0
H1562 H 0.40493 0.89667 0.59735 0.0
H1563 H 0.43832 0.93144 0.61561 0.0
H1564 H 0.40026 0.91872 0.63893 0.0
H1565 H 0.44291 0.81695 0.68703 0.0
H1566 H 0.48119 0.85032 0.68869 0.0
H1567 H 0.46121 0.83713 0.63801 0.0
C1568 C 0.55373 0.41623 0.85221 0.0
C1569 C 0.56331 0.44659 0.83483 0.0
C1570 C 0.54371 0.40651 0.89682 0.0
C1571 C 0.54111 0.42641 0.92864 0.0
C1572 C 0.54998 0.45687 0.91075 0.0
C1573 C 0.56114 0.46629 0.86652 0.0
C1574 C 0.53594 0.374 0.90931 0.0
C1575 C 0.54723 0.48052 0.9377 0.0
C1576 C 0.48953 0.38373 1.03768 0.0
C1577 C 0.50966 0.39772 1.07376 0.0
C1578 C 0.49876 0.39248 0.9925 0.0
C1579 C 0.53003 0.41597 0.97893 0.0
C1580 C 0.55057 0.42941 1.01533 0.0
C1581 C 0.54049 0.42072 1.06002 0.0
C1582 C 0.47367 0.37638 0.95933 0.0
C1583 C 0.58424 0.4538 1.0078 0.0
H1584 H 0.55438 0.39946 0.83069 0.0
H1585 H 0.56768 0.48975 0.85651 0.0
H1586 H 0.53882 0.3718 0.94414 0.0
H1587 H 0.51132 0.35742 0.90056 0.0
H1588 H 0.55087 0.36697 0.89156 0.0
H1589 H 0.5366 0.4918 0.91871 0.0
H1590 H 0.53296 0.47023 0.96697 0.0
H1591 H 0.57096 0.49918 0.94709 0.0
H1592 H 0.46556 0.36611 1.04457 0.0
H1593 H 0.55757 0.4327 1.08494 0.0
H1594 H 0.47129 0.35339 0.95193 0.0
H1595 H 0.47897 0.39014 0.92925 0.0
H1596 H 0.45074 0.3719 0.97179 0.0
H1597 H 0.59943 0.45313 1.03345 0.0
H1598 H 0.58649 0.47723 1.00845 0.0
H1599 H 0.59293 0.45079 0.97643 0.0
C1600 C 0.11814 0.52221 0.36752 0.0
C1601 C 0.11658 0.53986 0.40263 0.0
C1602 C 0.1182 0.53014 0.32206 0.0
C1603 C 0.11451 0.55598 0.30716 0.0
C1604 C 0.11158 0.57299 0.34287 0.0
C1605 C 0.11392 0.56579 0.38788 0.0
C1606 C 0.12268 0.50992 0.29027 0.0
C1607 C 0.10447 0.59876 0.33483 0.0
C1608 C 0.13166 0.60184 0.19089 0.0
C1609 C 0.11044 0.57989 0.16048 0.0
C1610 C 0.13407 0.59452 0.23604 0.0
C1611 C 0.11316 0.56454 0.25625 0.0
C1612 C 0.09065 0.54295 0.22589 0.0
C1613 C 0.09104 0.54994 0.18017 0.0
C1614 C 0.16028 0.61992 0.26149 0.0
C1615 C 0.06408 0.51206 0.24115 0.0
H1616 H 0.12013 0.50196 0.37542 0.0
H1617 H 0.11251 0.58046 0.4122 0.0
H1618 H 0.12997 0.52098 0.25822 0.0
H1619 H 0.14053 0.50437 0.30198 0.0
H1620 H 0.10046 0.48738 0.28737 0.0
H1621 H 0.08546 0.596 0.35648 0.0
H1622 H 0.12543 0.62153 0.34245 0.0
H1623 H 0.09707 0.59926 0.30151 0.0
H1624 H 0.14781 0.62509 0.17903 0.0
H1625 H 0.07451 0.53133 0.15976 0.0
H1626 H 0.16599 0.61086 0.29054 0.0
H1627 H 0.15363 0.63735 0.27108 0.0
H1628 H 0.18168 0.63239 0.24145 0.0
H1629 H 0.06739 0.49295 0.22906 0.0
H1630 H 0.04176 0.5083 0.22751 0.0
H1631 H 0.06159 0.51028 0.27648 0.0
loop_
_geom_bond_atom_site_label_1
_geom_bond_atom_site_label_2
_geom_bond_distance
_geom_bond_site_symmetry_2
_ccdc_geom_bond_type
La0 C2 2.928 . S
La0 O20 2.521 . S
La0 O21 2.628 . S
La0 O22 2.554 . S
La0 O23 2.757 . S
La0 O24 2.470 . S
La0 O29 2.482 . S
La0 O31 2.503 . S
La1 C11 2.928 . S
La1 O23 2.482 . S
La1 O25 2.503 . S
La1 O26 2.521 . S
La1 O27 2.628 . S
La1 O28 2.554 . S
La1 O29 2.757 . S
La1 O30 2.470 . S
C2 La0 2.928 . S
C2 C3 1.503 . S
C2 O20 1.261 . S
C2 O21 1.243 . S
C3 C2 1.503 . S
C3 C4 1.394 . S
C3 C8 1.373 . S
C4 C3 1.394 . S
C4 C5 1.380 . S
C4 H32 0.930 . S
C5 C4 1.380 . S
C5 C6 1.376 . S
C5 H33 0.930 . S
C6 C5 1.376 . S
C6 C7 1.370 . S
C7 C6 1.370 . S
C7 C8 1.396 . S
C7 H34 0.929 . S
C8 C3 1.373 . S
C8 C7 1.396 . S
C8 H35 0.929 . S
C9 O22 1.240 . S
C9 O23 1.289 . S
C10 O24 1.258 . S
C10 O25 1.256 . S
C11 La1 2.928 . S
C11 C12 1.503 . S
C11 O26 1.261 . S
C11 O27 1.243 . S
C12 C11 1.503 . S
C12 C13 1.394 . S
C12 C17 1.373 . S
C13 C12 1.394 . S
C13 C14 1.380 . S
C13 H36 0.930 . S
C14 C13 1.380 . S
C14 C15 1.376 . S
C14 H37 0.930 . S
C15 C14 1.376 . S
C15 C16 1.370 . S
C16 C15 1.370 . S
C16 C17 1.396 . S
C16 H38 0.929 . S
C17 C12 1.373 . S
C17 C16 1.396 . S
C17 H39 0.929 . S
C18 O28 1.240 . S
C18 O29 1.289 . S
C19 O30 1.258 . S
C19 O31 1.256 . S
O20 La0 2.521 . S
O20 C2 1.261 . S
O21 La0 2.628 . S
O21 C2 1.243 . S
O22 La0 2.554 . S
O22 C9 1.240 . S
O23 La0 2.757 . S
O23 La1 2.482 . S
O23 C9 1.289 . S
O24 La0 2.470 . S
O24 C10 1.258 . S
O25 La1 2.503 . S
O25 C10 1.256 . S
O26 La1 2.521 . S
O26 C11 1.261 . S
O27 La1 2.628 . S
O27 C11 1.243 . S
O28 La1 2.554 . S
O28 C18 1.240 . S
O29 La0 2.482 . S
O29 La1 2.757 . S
O29 C18 1.289 . S
O30 La1 2.470 . S
O30 C19 1.258 . S
O31 La0 2.503 . S
O31 C19 1.256 . S
H32 C4 0.930 . S
H33 C5 0.930 . S
H34 C7 0.929 . S
H35 C8 0.929 . S
H36 C13 0.930 . S
H37 C14 0.930 . S
H38 C16 0.929 . S
H39 C17 0.929 . S
La40 C42 2.928 . S
La40 O60 2.521 . S
La40 O61 2.628 . S
La40 O62 2.554 . S
La40 O63 2.757 . S
La40 O64 2.470 . S
La40 O69 2.482 . S
La40 O71 2.503 . S
La41 C51 2.928 . S
La41 O63 2.482 . S
La41 O65 2.503 . S
La41 O66 2.521 . S
La41 O67 2.628 . S
La41 O68 2.554 . S
La41 O69 2.757 . S
La41 O70 2.470 . S
C42 La40 2.928 . S
C42 C43 1.503 . S
C42 O60 1.261 . S
C42 O61 1.243 . S
C43 C42 1.503 . S
C43 C44 1.394 . S
C43 C48 1.373 . S
C44 C43 1.394 . S
C44 C45 1.380 . S
C44 H72 0.930 . S
C45 C44 1.380 . S
C45 C46 1.376 . S
C45 H73 0.930 . S
C46 C45 1.376 . S
C46 C47 1.370 . S
C47 C46 1.370 . S
C47 C48 1.396 . S
C47 H74 0.929 . S
C48 C43 1.373 . S
C48 C47 1.396 . S
C48 H75 0.929 . S
C49 O62 1.240 . S
C49 O63 1.289 . S
C50 O64 1.258 . S
C50 O65 1.256 . S
C51 La41 2.928 . S
C51 C52 1.503 . S
C51 O66 1.261 . S
C51 O67 1.243 . S
C52 C51 1.503 . S
C52 C53 1.394 . S
C52 C57 1.373 . S
C53 C52 1.394 . S
C53 C54 1.380 . S
C53 H76 0.930 . S
C54 C53 1.380 . S
C54 C55 1.376 . S
C54 H77 0.930 . S
C55 C54 1.376 . S
C55 C56 1.370 . S
C56 C55 1.370 . S
C56 C57 1.396 . S
C56 H78 0.929 . S
C57 C52 1.373 . S
C57 C56 1.396 . S
C57 H79 0.929 . S
C58 O68 1.240 . S
C58 O69 1.289 . S
C59 O70 1.258 . S
C59 O71 1.256 . S
O60 La40 2.521 . S
O60 C42 1.261 . S
O61 La40 2.628 . S
O61 C42 1.243 . S
O62 La40 2.554 . S
O62 C49 1.240 . S
O63 La40 2.757 . S
O63 La41 2.482 . S
O63 C49 1.289 . S
O64 La40 2.470 . S
O64 C50 1.258 . S
O65 La41 2.503 . S
O65 C50 1.256 . S
O66 La41 2.521 . S
O66 C51 1.261 . S
O67 La41 2.628 . S
O67 C51 1.243 . S
O68 La41 2.554 . S
O68 C58 1.240 . S
O69 La40 2.482 . S
O69 La41 2.757 . S
O69 C58 1.289 . S
O70 La41 2.470 . S
O70 C59 1.258 . S
O71 La40 2.503 . S
O71 C59 1.256 . S
H72 C44 0.930 . S
H73 C45 0.930 . S
H74 C47 0.929 . S
H75 C48 0.929 . S
H76 C53 0.930 . S
H77 C54 0.930 . S
H78 C56 0.929 . S
H79 C57 0.929 . S
La80 C82 2.928 1_556 S
La80 O100 2.521 . S
La80 O101 2.628 . S
La80 O102 2.554 . S
La80 O103 2.757 . S
La80 O104 2.470 . S
La80 O109 2.482 . S
La80 O111 2.503 . S
La81 C91 2.928 . S
La81 O103 2.482 . S
La81 O105 2.503 . S
La81 O106 2.521 . S
La81 O107 2.628 . S
La81 O108 2.554 . S
La81 O109 2.757 . S
La81 O110 2.470 . S
C82 La80 2.928 1_554 S
C82 C83 1.503 . S
C82 O100 1.261 1_554 S
C82 O101 1.243 1_554 S
C83 C82 1.503 . S
C83 C84 1.394 . S
C83 C88 1.373 . S
C84 C83 1.394 . S
C84 C85 1.380 . S
C84 H112 0.930 . S
C85 C84 1.380 . S
C85 C86 1.376 . S
C85 H113 0.930 . S
C86 C85 1.376 . S
C86 C87 1.370 . S
C87 C86 1.370 . S
C87 C88 1.396 . S
C87 H114 0.929 . S
C88 C83 1.373 . S
C88 C87 1.396 . S
C88 H115 0.929 . S
C89 O102 1.240 . S
C89 O103 1.289 . S
C90 O104 1.258 . S
C90 O105 1.256 . S
C91 La81 2.928 . S
C91 C92 1.503 . S
C91 O106 1.261 . S
C91 O107 1.243 . S
C92 C91 1.503 . S
C92 C93 1.394 . S
C92 C97 1.373 . S
C93 C92 1.394 . S
C93 C94 1.380 . S
C93 H116 0.930 . S
C94 C93 1.380 . S
C94 C95 1.376 . S
C94 H117 0.930 . S
C95 C94 1.376 . S
C95 C96 1.370 . S
C96 C95 1.370 . S
C96 C97 1.396 . S
C96 H118 0.929 . S
C97 C92 1.373 . S
C97 C96 1.396 . S
C97 H119 0.929 . S
C98 O108 1.240 . S
C98 O109 1.289 . S
C99 O110 1.258 . S
C99 O111 1.256 . S
O100 La80 2.521 . S
O100 C82 1.261 1_556 S
O101 La80 2.628 . S
O101 C82 1.243 1_556 S
O102 La80 2.554 . S
O102 C89 1.240 . S
O103 La80 2.757 . S
O103 La81 2.482 . S
O103 C89 1.289 . S
O104 La80 2.470 . S
O104 C90 1.258 . S
O105 La81 2.503 . S
O105 C90 1.256 . S
O106 La81 2.521 . S
O106 C91 1.261 . S
O107 La81 2.628 . S
O107 C91 1.243 . S
O108 La81 2.554 . S
O108 C98 1.240 . S
O109 La80 2.482 . S
O109 La81 2.757 . S
O109 C98 1.289 . S
O110 La81 2.470 . S
O110 C99 1.258 . S
O111 La80 2.503 . S
O111 C99 1.256 . S
H112 C84 0.930 . S
H113 C85 0.930 . S
H114 C87 0.929 . S
H115 C88 0.929 . S
H116 C93 0.930 . S
H117 C94 0.930 . S
H118 C96 0.929 . S
H119 C97 0.929 . S
La120 C122 2.928 . S
La120 O140 2.521 . S
La120 O141 2.628 . S
La120 O142 2.554 . S
La120 O143 2.757 . S
La120 O144 2.470 . S
La120 O149 2.482 . S
La120 O151 2.503 . S
La121 C131 2.928 . S
La121 O143 2.482 . S
La121 O145 2.503 . S
La121 O146 2.521 . S
La121 O147 2.628 . S
La121 O148 2.554 . S
La121 O149 2.757 . S
La121 O150 2.470 . S
C122 La120 2.928 . S
C122 C123 1.503 . S
C122 O140 1.261 . S
C122 O141 1.243 . S
C123 C122 1.503 . S
C123 C124 1.394 . S
C123 C128 1.373 . S
C124 C123 1.394 . S
C124 C125 1.380 . S
C124 H152 0.930 . S
C125 C124 1.380 . S
C125 C126 1.376 . S
C125 H153 0.930 . S
C126 C125 1.376 . S
C126 C127 1.370 . S
C127 C126 1.370 . S
C127 C128 1.396 . S
C127 H154 0.929 . S
C128 C123 1.373 . S
C128 C127 1.396 . S
C128 H155 0.929 . S
C129 O142 1.240 . S
C129 O143 1.289 . S
C130 O144 1.258 . S
C130 O145 1.256 . S
C131 La121 2.928 . S
C131 C132 1.503 . S
C131 O146 1.261 . S
C131 O147 1.243 . S
C132 C131 1.503 . S
C132 C133 1.394 . S
C132 C137 1.373 . S
C133 C132 1.394 . S
C133 C134 1.380 . S
C133 H156 0.930 . S
C134 C133 1.380 . S
C134 C135 1.376 . S
C134 H157 0.930 . S
C135 C134 1.376 . S
C135 C136 1.370 . S
C136 C135 1.370 . S
C136 C137 1.396 . S
C136 H158 0.929 . S
C137 C132 1.373 . S
C137 C136 1.396 . S
C137 H159 0.929 . S
C138 O148 1.240 . S
C138 O149 1.289 . S
C139 O150 1.258 . S
C139 O151 1.256 . S
O140 La120 2.521 . S
O140 C122 1.261 . S
O141 La120 2.628 . S
O141 C122 1.243 . S
O142 La120 2.554 . S
O142 C129 1.240 . S
O143 La120 2.757 . S
O143 La121 2.482 . S
O143 C129 1.289 . S
O144 La120 2.470 . S
O144 C130 1.258 . S
O145 La121 2.503 . S
O145 C130 1.256 . S
O146 La121 2.521 . S
O146 C131 1.261 . S
O147 La121 2.628 . S
O147 C131 1.243 . S
O148 La121 2.554 . S
O148 C138 1.240 . S
O149 La120 2.482 . S
O149 La121 2.757 . S
O149 C138 1.289 . S
O150 La121 2.470 . S
O150 C139 1.258 . S
O151 La120 2.503 . S
O151 C139 1.256 . S
H152 C124 0.930 . S
H153 C125 0.930 . S
H154 C127 0.929 . S
H155 C128 0.929 . S
H156 C133 0.930 . S
H157 C134 0.930 . S
H158 C136 0.929 . S
H159 C137 0.929 . S
La160 C162 2.928 . S
La160 O180 2.521 . S
La160 O181 2.628 . S
La160 O182 2.554 . S
La160 O183 2.757 . S
La160 O184 2.470 . S
La160 O189 2.482 . S
La160 O191 2.503 . S
La161 C171 2.928 . S
La161 O183 2.482 . S
La161 O185 2.503 . S
La161 O186 2.521 . S
La161 O187 2.628 . S
La161 O188 2.554 . S
La161 O189 2.757 . S
La161 O190 2.470 . S
C162 La160 2.928 . S
C162 C163 1.503 . S
C162 O180 1.261 . S
C162 O181 1.243 . S
C163 C162 1.503 . S
C163 C164 1.394 . S
C163 C168 1.373 . S
C164 C163 1.394 . S
C164 C165 1.380 . S
C164 H192 0.930 . S
C165 C164 1.380 . S
C165 C166 1.376 . S
C165 H193 0.930 . S
C166 C165 1.376 . S
C166 C167 1.370 . S
C167 C166 1.370 . S
C167 C168 1.396 . S
C167 H194 0.929 . S
C168 C163 1.373 . S
C168 C167 1.396 . S
C168 H195 0.929 . S
C169 O182 1.240 . S
C169 O183 1.289 . S
C170 O184 1.258 . S
C170 O185 1.256 . S
C171 La161 2.928 . S
C171 C172 1.503 . S
C171 O186 1.261 . S
C171 O187 1.243 . S
C172 C171 1.503 . S
C172 C173 1.394 . S
C172 C177 1.373 . S
C173 C172 1.394 . S
C173 C174 1.380 . S
C173 H196 0.930 . S
C174 C173 1.380 . S
C174 C175 1.376 . S
C174 H197 0.930 . S
C175 C174 1.376 . S
C175 C176 1.370 . S
C176 C175 1.370 . S
C176 C177 1.396 . S
C176 H198 0.929 . S
C177 C172 1.373 . S
C177 C176 1.396 . S
C177 H199 0.929 . S
C178 O188 1.240 . S
C178 O189 1.289 . S
C179 O190 1.258 . S
C179 O191 1.256 . S
O180 La160 2.521 . S
O180 C162 1.261 . S
O181 La160 2.628 . S
O181 C162 1.243 . S
O182 La160 2.554 . S
O182 C169 1.240 . S
O183 La160 2.757 . S
O183 La161 2.482 . S
O183 C169 1.289 . S
O184 La160 2.470 . S
O184 C170 1.258 . S
O185 La161 2.503 . S
O185 C170 1.256 . S
O186 La161 2.521 . S
O186 C171 1.261 . S
O187 La161 2.628 . S
O187 C171 1.243 . S
O188 La161 2.554 . S
O188 C178 1.240 . S
O189 La160 2.482 . S
O189 La161 2.757 . S
O189 C178 1.289 . S
O190 La161 2.470 . S
O190 C179 1.258 . S
O191 La160 2.503 . S
O191 C179 1.256 . S
H192 C164 0.930 . S
H193 C165 0.930 . S
H194 C167 0.929 . S
H195 C168 0.929 . S
H196 C173 0.930 . S
H197 C174 0.930 . S
H198 C176 0.929 . S
H199 C177 0.929 . S
La200 C202 2.928 1_556 S
La200 O220 2.521 . S
La200 O221 2.628 . S
La200 O222 2.554 . S
La200 O223 2.757 . S
La200 O224 2.470 . S
La200 O229 2.482 . S
La200 O231 2.503 . S
La201 C211 2.928 . S
La201 O223 2.482 . S
La201 O225 2.503 . S
La201 O226 2.521 . S
La201 O227 2.628 . S
La201 O228 2.554 . S
La201 O229 2.757 . S
La201 O230 2.470 . S
C202 La200 2.928 1_554 S
C202 C203 1.503 . S
C202 O220 1.261 1_554 S
C202 O221 1.243 1_554 S
C203 C202 1.503 . S
C203 C204 1.394 . S
C203 C208 1.373 . S
C204 C203 1.394 . S
C204 C205 1.380 . S
C204 H232 0.930 . S
C205 C204 1.380 . S
C205 C206 1.376 . S
C205 H233 0.930 . S
C206 C205 1.376 . S
C206 C207 1.370 . S
C207 C206 1.370 . S
C207 C208 1.396 . S
C207 H234 0.929 . S
C208 C203 1.373 . S
C208 C207 1.396 . S
C208 H235 0.929 . S
C209 O222 1.240 . S
C209 O223 1.289 . S
C210 O224 1.258 . S
C210 O225 1.256 . S
C211 La201 2.928 . S
C211 C212 1.503 . S
C211 O226 1.261 . S
C211 O227 1.243 . S
C212 C211 1.503 . S
C212 C213 1.394 . S
C212 C217 1.373 . S
C213 C212 1.394 . S
C213 C214 1.380 . S
C213 H236 0.930 . S
C214 C213 1.380 . S
C214 C215 1.376 . S
C214 H237 0.930 . S
C215 C214 1.376 . S
C215 C216 1.370 . S
C216 C215 1.370 . S
C216 C217 1.396 . S
C216 H238 0.929 . S
C217 C212 1.373 . S
C217 C216 1.396 . S
C217 H239 0.929 . S
C218 O228 1.240 . S
C218 O229 1.289 . S
C219 O230 1.258 . S
C219 O231 1.256 . S
O220 La200 2.521 . S
O220 C202 1.261 1_556 S
O221 La200 2.628 . S
O221 C202 1.243 1_556 S
O222 La200 2.554 . S
O222 C209 1.240 . S
O223 La200 2.757 . S
O223 La201 2.482 . S
O223 C209 1.289 . S
O224 La200 2.470 . S
O224 C210 1.258 . S
O225 La201 2.503 . S
O225 C210 1.256 . S
O226 La201 2.521 . S
O226 C211 1.261 . S
O227 La201 2.628 . S
O227 C211 1.243 . S
O228 La201 2.554 . S
O228 C218 1.240 . S
O229 La200 2.482 . S
O229 La201 2.757 . S
O229 C218 1.289 . S
O230 La201 2.470 . S
O230 C219 1.258 . S
O231 La200 2.503 . S
O231 C219 1.256 . S
H232 C204 0.930 . S
H233 C205 0.930 . S
H234 C207 0.929 . S
H235 C208 0.929 . S
H236 C213 0.930 . S
H237 C214 0.930 . S
H238 C216 0.929 . S
H239 C217 0.929 . S
La240 C242 2.928 . S
La240 O260 2.521 . S
La240 O261 2.628 . S
La240 O262 2.554 . S
La240 O263 2.757 . S
La240 O264 2.470 . S
La240 O269 2.482 . S
La240 O271 2.503 . S
La241 C251 2.928 . S
La241 O263 2.482 . S
La241 O265 2.503 . S
La241 O266 2.521 . S
La241 O267 2.628 . S
La241 O268 2.554 . S
La241 O269 2.757 . S
La241 O270 2.470 . S
C242 La240 2.928 . S
C242 C243 1.503 . S
C242 O260 1.261 . S
C242 O261 1.243 . S
C243 C242 1.503 . S
C243 C244 1.394 . S
C243 C248 1.373 . S
C244 C243 1.394 . S
C244 C245 1.380 . S
C244 H272 0.930 . S
C245 C244 1.380 . S
C245 C246 1.376 . S
C245 H273 0.930 . S
C246 C245 1.376 . S
C246 C247 1.370 . S
C247 C246 1.370 . S
C247 C248 1.396 . S
C247 H274 0.929 . S
C248 C243 1.373 . S
C248 C247 1.396 . S
C248 H275 0.929 . S
C249 O262 1.240 . S
C249 O263 1.289 . S
C250 O264 1.258 . S
C250 O265 1.256 . S
C251 La241 2.928 . S
C251 C252 1.503 . S
C251 O266 1.261 . S
C251 O267 1.243 . S
C252 C251 1.503 . S
C252 C253 1.394 . S
C252 C257 1.373 . S
C253 C252 1.394 . S
C253 C254 1.380 . S
C253 H276 0.930 . S
C254 C253 1.380 . S
C254 C255 1.376 . S
C254 H277 0.930 . S
C255 C254 1.376 . S
C255 C256 1.370 . S
C256 C255 1.370 . S
C256 C257 1.396 . S
C256 H278 0.929 . S
C257 C252 1.373 . S
C257 C256 1.396 . S
C257 H279 0.929 . S
C258 O268 1.240 . S
C258 O269 1.289 . S
C259 O270 1.258 . S
C259 O271 1.256 . S
O260 La240 2.521 . S
O260 C242 1.261 . S
O261 La240 2.628 . S
O261 C242 1.243 . S
O262 La240 2.554 . S
O262 C249 1.240 . S
O263 La240 2.757 . S
O263 La241 2.482 . S
O263 C249 1.289 . S
O264 La240 2.470 . S
O264 C250 1.258 . S
O265 La241 2.503 . S
O265 C250 1.256 . S
O266 La241 2.521 . S
O266 C251 1.261 . S
O267 La241 2.628 . S
O267 C251 1.243 . S
O268 La241 2.554 . S
O268 C258 1.240 . S
O269 La240 2.482 . S
O269 La241 2.757 . S
O269 C258 1.289 . S
O270 La241 2.470 . S
O270 C259 1.258 . S
O271 La240 2.503 . S
O271 C259 1.256 . S
H272 C244 0.930 . S
H273 C245 0.930 . S
H274 C247 0.929 . S
H275 C248 0.929 . S
H276 C253 0.930 . S
H277 C254 0.930 . S
H278 C256 0.929 . S
H279 C257 0.929 . S
La280 C282 2.928 . S
La280 O300 2.521 . S
La280 O301 2.628 . S
La280 O302 2.554 . S
La280 O303 2.757 . S
La280 O304 2.470 . S
La280 O309 2.482 . S
La280 O311 2.503 . S
La281 C291 2.928 . S
La281 O303 2.482 . S
La281 O305 2.503 . S
La281 O306 2.521 . S
La281 O307 2.628 . S
La281 O308 2.554 . S
La281 O309 2.757 . S
La281 O310 2.470 . S
C282 La280 2.928 . S
C282 C283 1.503 . S
C282 O300 1.261 . S
C282 O301 1.243 . S
C283 C282 1.503 . S
C283 C284 1.394 . S
C283 C288 1.373 . S
C284 C283 1.394 . S
C284 C285 1.380 . S
C284 H312 0.930 . S
C285 C284 1.380 . S
C285 C286 1.376 . S
C285 H313 0.930 . S
C286 C285 1.376 . S
C286 C287 1.370 . S
C287 C286 1.370 . S
C287 C288 1.396 . S
C287 H314 0.929 . S
C288 C283 1.373 . S
C288 C287 1.396 . S
C288 H315 0.929 . S
C289 O302 1.240 . S
C289 O303 1.289 . S
C290 O304 1.258 . S
C290 O305 1.256 . S
C291 La281 2.928 . S
C291 C292 1.503 . S
C291 O306 1.261 . S
C291 O307 1.243 . S
C292 C291 1.503 . S
C292 C293 1.394 . S
C292 C297 1.373 . S
C293 C292 1.394 . S
C293 C294 1.380 . S
C293 H316 0.930 . S
C294 C293 1.380 . S
C294 C295 1.376 . S
C294 H317 0.930 . S
C295 C294 1.376 . S
C295 C296 1.370 . S
C296 C295 1.370 . S
C296 C297 1.396 . S
C296 H318 0.929 . S
C297 C292 1.373 . S
C297 C296 1.396 . S
C297 H319 0.929 . S
C298 O308 1.240 . S
C298 O309 1.289 . S
C299 O310 1.258 . S
C299 O311 1.256 . S
O300 La280 2.521 . S
O300 C282 1.261 . S
O301 La280 2.628 . S
O301 C282 1.243 . S
O302 La280 2.554 . S
O302 C289 1.240 . S
O303 La280 2.757 . S
O303 La281 2.482 . S
O303 C289 1.289 . S
O304 La280 2.470 . S
O304 C290 1.258 . S
O305 La281 2.503 . S
O305 C290 1.256 . S
O306 La281 2.521 . S
O306 C291 1.261 . S
O307 La281 2.628 . S
O307 C291 1.243 . S
O308 La281 2.554 . S
O308 C298 1.240 . S
O309 La280 2.482 . S
O309 La281 2.757 . S
O309 C298 1.289 . S
O310 La281 2.470 . S
O310 C299 1.258 . S
O311 La280 2.503 . S
O311 C299 1.256 . S
H312 C284 0.930 . S
H313 C285 0.930 . S
H314 C287 0.929 . S
H315 C288 0.929 . S
H316 C293 0.930 . S
H317 C294 0.930 . S
H318 C296 0.929 . S
H319 C297 0.929 . S
La320 C322 2.928 1_554 S
La320 O340 2.521 . S
La320 O341 2.628 . S
La320 O342 2.554 . S
La320 O343 2.757 . S
La320 O344 2.470 . S
La320 O349 2.482 . S
La320 O351 2.503 . S
La321 C331 2.928 . S
La321 O343 2.482 . S
La321 O345 2.503 . S
La321 O346 2.521 . S
La321 O347 2.628 . S
La321 O348 2.554 . S
La321 O349 2.757 . S
La321 O350 2.470 . S
C322 La320 2.928 1_556 S
C322 C323 1.503 . S
C322 O340 1.261 1_556 S
C322 O341 1.243 1_556 S
C323 C322 1.503 . S
C323 C324 1.394 . S
C323 C328 1.373 . S
C324 C323 1.394 . S
C324 C325 1.380 . S
C324 H352 0.930 . S
C325 C324 1.380 . S
C325 C326 1.376 . S
C325 H353 0.930 . S
C326 C325 1.376 . S
C326 C327 1.370 . S
C327 C326 1.370 . S
C327 C328 1.396 . S
C327 H354 0.929 . S
C328 C323 1.373 . S
C328 C327 1.396 . S
C328 H355 0.929 . S
C329 O342 1.240 . S
C329 O343 1.289 . S
C330 O344 1.258 . S
C330 O345 1.256 . S
C331 La321 2.928 . S
C331 C332 1.503 . S
C331 O346 1.261 . S
C331 O347 1.243 . S
C332 C331 1.503 . S
C332 C333 1.394 . S
C332 C337 1.373 . S
C333 C332 1.394 . S
C333 C334 1.380 . S
C333 H356 0.930 . S
C334 C333 1.380 . S
C334 C335 1.376 . S
C334 H357 0.930 . S
C335 C334 1.376 . S
C335 C336 1.370 . S
C336 C335 1.370 . S
C336 C337 1.396 . S
C336 H358 0.929 . S
C337 C332 1.373 . S
C337 C336 1.396 . S
C337 H359 0.929 . S
C338 O348 1.240 . S
C338 O349 1.289 . S
C339 O350 1.258 . S
C339 O351 1.256 . S
O340 La320 2.521 . S
O340 C322 1.261 1_554 S
O341 La320 2.628 . S
O341 C322 1.243 1_554 S
O342 La320 2.554 . S
O342 C329 1.240 . S
O343 La320 2.757 . S
O343 La321 2.482 . S
O343 C329 1.289 . S
O344 La320 2.470 . S
O344 C330 1.258 . S
O345 La321 2.503 . S
O345 C330 1.256 . S
O346 La321 2.521 . S
O346 C331 1.261 . S
O347 La321 2.628 . S
O347 C331 1.243 . S
O348 La321 2.554 . S
O348 C338 1.240 . S
O349 La320 2.482 . S
O349 La321 2.757 . S
O349 C338 1.289 . S
O350 La321 2.470 . S
O350 C339 1.258 . S
O351 La320 2.503 . S
O351 C339 1.256 . S
H352 C324 0.930 . S
H353 C325 0.930 . S
H354 C327 0.929 . S
H355 C328 0.929 . S
H356 C333 0.930 . S
H357 C334 0.930 . S
H358 C336 0.929 . S
H359 C337 0.929 . S
La360 C362 2.928 . S
La360 O380 2.521 . S
La360 O381 2.628 . S
La360 O382 2.554 . S
La360 O383 2.757 . S
La360 O384 2.470 . S
La360 O389 2.482 . S
La360 O391 2.503 . S
La361 C371 2.928 . S
La361 O383 2.482 . S
La361 O385 2.503 . S
La361 O386 2.521 . S
La361 O387 2.628 . S
La361 O388 2.554 . S
La361 O389 2.757 . S
La361 O390 2.470 . S
C362 La360 2.928 . S
C362 C363 1.503 . S
C362 O380 1.261 . S
C362 O381 1.243 . S
C363 C362 1.503 . S
C363 C364 1.394 . S
C363 C368 1.373 . S
C364 C363 1.394 . S
C364 C365 1.380 . S
C364 H392 0.930 . S
C365 C364 1.380 . S
C365 C366 1.376 . S
C365 H393 0.930 . S
C366 C365 1.376 . S
C366 C367 1.370 . S
C367 C366 1.370 . S
C367 C368 1.396 . S
C367 H394 0.929 . S
C368 C363 1.373 . S
C368 C367 1.396 . S
C368 H395 0.929 . S
C369 O382 1.240 . S
C369 O383 1.289 . S
C370 O384 1.258 . S
C370 O385 1.256 . S
C371 La361 2.928 . S
C371 C372 1.503 . S
C371 O386 1.261 . S
C371 O387 1.243 . S
C372 C371 1.503 . S
C372 C373 1.394 . S
C372 C377 1.373 . S
C373 C372 1.394 . S
C373 C374 1.380 . S
C373 H396 0.930 . S
C374 C373 1.380 . S
C374 C375 1.376 . S
C374 H397 0.930 . S
C375 C374 1.376 . S
C375 C376 1.370 . S
C376 C375 1.370 . S
C376 C377 1.396 . S
C376 H398 0.929 . S
C377 C372 1.373 . S
C377 C376 1.396 . S
C377 H399 0.929 . S
C378 O388 1.240 . S
C378 O389 1.289 . S
C379 O390 1.258 . S
C379 O391 1.256 . S
O380 La360 2.521 . S
O380 C362 1.261 . S
O381 La360 2.628 . S
O381 C362 1.243 . S
O382 La360 2.554 . S
O382 C369 1.240 . S
O383 La360 2.757 . S
O383 La361 2.482 . S
O383 C369 1.289 . S
O384 La360 2.470 . S
O384 C370 1.258 . S
O385 La361 2.503 . S
O385 C370 1.256 . S
O386 La361 2.521 . S
O386 C371 1.261 . S
O387 La361 2.628 . S
O387 C371 1.243 . S
O388 La361 2.554 . S
O388 C378 1.240 . S
O389 La360 2.482 . S
O389 La361 2.757 . S
O389 C378 1.289 . S
O390 La361 2.470 . S
O390 C379 1.258 . S
O391 La360 2.503 . S
O391 C379 1.256 . S
H392 C364 0.930 . S
H393 C365 0.930 . S
H394 C367 0.929 . S
H395 C368 0.929 . S
H396 C373 0.930 . S
H397 C374 0.930 . S
H398 C376 0.929 . S
H399 C377 0.929 . S
La400 C402 2.928 . S
La400 O420 2.521 . S
La400 O421 2.628 . S
La400 O422 2.554 . S
La400 O423 2.757 . S
La400 O424 2.470 . S
La400 O429 2.482 . S
La400 O431 2.503 . S
La401 C411 2.928 . S
La401 O423 2.482 . S
La401 O425 2.503 . S
La401 O426 2.521 . S
La401 O427 2.628 . S
La401 O428 2.554 . S
La401 O429 2.757 . S
La401 O430 2.470 . S
C402 La400 2.928 . S
C402 C403 1.503 . S
C402 O420 1.261 . S
C402 O421 1.243 . S
C403 C402 1.503 . S
C403 C404 1.394 . S
C403 C408 1.373 . S
C404 C403 1.394 . S
C404 C405 1.380 . S
C404 H432 0.930 . S
C405 C404 1.380 . S
C405 C406 1.376 . S
C405 H433 0.930 . S
C406 C405 1.376 . S
C406 C407 1.370 . S
C407 C406 1.370 . S
C407 C408 1.396 . S
C407 H434 0.929 . S
C408 C403 1.373 . S
C408 C407 1.396 . S
C408 H435 0.929 . S
C409 O422 1.240 . S
C409 O423 1.289 . S
C410 O424 1.258 . S
C410 O425 1.256 . S
C411 La401 2.928 . S
C411 C412 1.503 . S
C411 O426 1.261 . S
C411 O427 1.243 . S
C412 C411 1.503 . S
C412 C413 1.394 . S
C412 C417 1.373 . S
C413 C412 1.394 . S
C413 C414 1.380 . S
C413 H436 0.930 . S
C414 C413 1.380 . S
C414 C415 1.376 . S
C414 H437 0.930 . S
C415 C414 1.376 . S
C415 C416 1.370 . S
C416 C415 1.370 . S
C416 C417 1.396 . S
C416 H438 0.929 . S
C417 C412 1.373 . S
C417 C416 1.396 . S
C417 H439 0.929 . S
C418 O428 1.240 . S
C418 O429 1.289 . S
C419 O430 1.258 . S
C419 O431 1.256 . S
O420 La400 2.521 . S
O420 C402 1.261 . S
O421 La400 2.628 . S
O421 C402 1.243 . S
O422 La400 2.554 . S
O422 C409 1.240 . S
O423 La400 2.757 . S
O423 La401 2.482 . S
O423 C409 1.289 . S
O424 La400 2.470 . S
O424 C410 1.258 . S
O425 La401 2.503 . S
O425 C410 1.256 . S
O426 La401 2.521 . S
O426 C411 1.261 . S
O427 La401 2.628 . S
O427 C411 1.243 . S
O428 La401 2.554 . S
O428 C418 1.240 . S
O429 La400 2.482 . S
O429 La401 2.757 . S
O429 C418 1.289 . S
O430 La401 2.470 . S
O430 C419 1.258 . S
O431 La400 2.503 . S
O431 C419 1.256 . S
H432 C404 0.930 . S
H433 C405 0.930 . S
H434 C407 0.929 . S
H435 C408 0.929 . S
H436 C413 0.930 . S
H437 C414 0.930 . S
H438 C416 0.929 . S
H439 C417 0.929 . S
La440 C442 2.928 1_554 S
La440 O460 2.521 . S
La440 O461 2.628 . S
La440 O462 2.554 . S
La440 O463 2.757 . S
La440 O464 2.470 . S
La440 O469 2.482 . S
La440 O471 2.503 . S
La441 C451 2.928 . S
La441 O463 2.482 . S
La441 O465 2.503 . S
La441 O466 2.521 . S
La441 O467 2.628 . S
La441 O468 2.554 . S
La441 O469 2.757 . S
La441 O470 2.470 . S
C442 La440 2.928 1_556 S
C442 C443 1.503 . S
C442 O460 1.261 1_556 S
C442 O461 1.243 1_556 S
C443 C442 1.503 . S
C443 C444 1.394 . S
C443 C448 1.373 . S
C444 C443 1.394 . S
C444 C445 1.380 . S
C444 H472 0.930 . S
C445 C444 1.380 . S
C445 C446 1.376 . S
C445 H473 0.930 . S
C446 C445 1.376 . S
C446 C447 1.370 . S
C447 C446 1.370 . S
C447 C448 1.396 . S
C447 H474 0.929 . S
C448 C443 1.373 . S
C448 C447 1.396 . S
C448 H475 0.929 . S
C449 O462 1.240 . S
C449 O463 1.289 . S
C450 O464 1.258 . S
C450 O465 1.256 . S
C451 La441 2.928 . S
C451 C452 1.503 . S
C451 O466 1.261 . S
C451 O467 1.243 . S
C452 C451 1.503 . S
C452 C453 1.394 . S
C452 C457 1.373 . S
C453 C452 1.394 . S
C453 C454 1.380 . S
C453 H476 0.930 . S
C454 C453 1.380 . S
C454 C455 1.376 . S
C454 H477 0.930 . S
C455 C454 1.376 . S
C455 C456 1.370 . S
C456 C455 1.370 . S
C456 C457 1.396 . S
C456 H478 0.929 . S
C457 C452 1.373 . S
C457 C456 1.396 . S
C457 H479 0.929 . S
C458 O468 1.240 . S
C458 O469 1.289 . S
C459 O470 1.258 . S
C459 O471 1.256 . S
O460 La440 2.521 . S
O460 C442 1.261 1_554 S
O461 La440 2.628 . S
O461 C442 1.243 1_554 S
O462 La440 2.554 . S
O462 C449 1.240 . S
O463 La440 2.757 . S
O463 La441 2.482 . S
O463 C449 1.289 . S
O464 La440 2.470 . S
O464 C450 1.258 . S
O465 La441 2.503 . S
O465 C450 1.256 . S
O466 La441 2.521 . S
O466 C451 1.261 . S
O467 La441 2.628 . S
O467 C451 1.243 . S
O468 La441 2.554 . S
O468 C458 1.240 . S
O469 La440 2.482 . S
O469 La441 2.757 . S
O469 C458 1.289 . S
O470 La441 2.470 . S
O470 C459 1.258 . S
O471 La440 2.503 . S
O471 C459 1.256 . S
H472 C444 0.930 . S
H473 C445 0.930 . S
H474 C447 0.929 . S
H475 C448 0.929 . S
H476 C453 0.930 . S
H477 C454 0.930 . S
H478 C456 0.929 . S
H479 C457 0.929 . S
C480 C481 1.391 . S
C480 C482 1.394 . S
C480 H496 0.931 . S
C481 C480 1.391 . S
C481 C485 1.376 . S
C482 C480 1.394 . S
C482 C483 1.369 . S
C482 C486 1.531 . S
C483 C482 1.369 . S
C483 C484 1.410 . S
C483 C491 1.503 . S
C484 C483 1.410 . S
C484 C485 1.392 . S
C484 C487 1.511 . S
C485 C481 1.376 . S
C485 C484 1.392 . S
C485 H497 0.929 . S
C486 C482 1.531 . S
C486 H498 0.960 . S
C486 H499 0.962 . S
C486 H500 0.960 . S
C487 C484 1.511 . S
C487 H501 0.961 . S
C487 H502 0.961 . S
C487 H503 0.961 . S
C488 C489 1.370 . S
C488 C490 1.363 . S
C488 H504 0.931 . S
C489 C488 1.370 . S
C489 C493 1.408 . S
C490 C488 1.363 . S
C490 C491 1.370 . S
C490 C494 1.524 . S
C491 C483 1.503 . S
C491 C490 1.370 . S
C491 C492 1.403 . S
C492 C491 1.403 . S
C492 C493 1.404 . S
C492 C495 1.539 . S
C493 C489 1.408 . S
C493 C492 1.404 . S
C493 H505 0.930 . S
C494 C490 1.524 . S
C494 H506 0.956 . S
C494 H507 0.961 . S
C494 H508 0.961 . S
C495 C492 1.539 . S
C495 H509 0.958 . S
C495 H510 0.961 . S
C495 H511 0.960 . S
H496 C480 0.931 . S
H497 C485 0.929 . S
H498 C486 0.960 . S
H499 C486 0.962 . S
H500 C486 0.960 . S
H501 C487 0.961 . S
H502 C487 0.961 . S
H503 C487 0.961 . S
H504 C488 0.931 . S
H505 C493 0.930 . S
H506 C494 0.956 . S
H507 C494 0.961 . S
H508 C494 0.961 . S
H509 C495 0.958 . S
H510 C495 0.961 . S
H511 C495 0.960 . S
C512 C513 1.391 . S
C512 C514 1.394 . S
C512 H528 0.931 . S
C513 C512 1.391 . S
C513 C517 1.376 . S
C514 C512 1.394 . S
C514 C515 1.369 . S
C514 C518 1.531 . S
C515 C514 1.369 . S
C515 C516 1.410 . S
C515 C523 1.503 . S
C516 C515 1.410 . S
C516 C517 1.392 . S
C516 C519 1.511 . S
C517 C513 1.376 . S
C517 C516 1.392 . S
C517 H529 0.929 . S
C518 C514 1.531 . S
C518 H530 0.960 . S
C518 H531 0.962 . S
C518 H532 0.960 . S
C519 C516 1.511 . S
C519 H533 0.961 . S
C519 H534 0.961 . S
C519 H535 0.961 . S
C520 C521 1.370 . S
C520 C522 1.363 . S
C520 H536 0.931 . S
C521 C520 1.370 . S
C521 C525 1.408 . S
C522 C520 1.363 . S
C522 C523 1.370 . S
C522 C526 1.524 . S
C523 C515 1.503 . S
C523 C522 1.370 . S
C523 C524 1.403 . S
C524 C523 1.403 . S
C524 C525 1.404 . S
C524 C527 1.539 . S
C525 C521 1.408 . S
C525 C524 1.404 . S
C525 H537 0.930 . S
C526 C522 1.524 . S
C526 H538 0.956 . S
C526 H539 0.961 . S
C526 H540 0.961 . S
C527 C524 1.539 . S
C527 H541 0.958 . S
C527 H542 0.961 . S
C527 H543 0.960 . S
H528 C512 0.931 . S
H529 C517 0.929 . S
H530 C518 0.960 . S
H531 C518 0.962 . S
H532 C518 0.960 . S
H533 C519 0.961 . S
H534 C519 0.961 . S
H535 C519 0.961 . S
H536 C520 0.931 . S
H537 C525 0.930 . S
H538 C526 0.956 . S
H539 C526 0.961 . S
H540 C526 0.961 . S
H541 C527 0.958 . S
H542 C527 0.961 . S
H543 C527 0.960 . S
C544 C545 1.391 . S
C544 C546 1.394 . S
C544 H560 0.931 . S
C545 C544 1.391 . S
C545 C549 1.376 . S
C546 C544 1.394 . S
C546 C547 1.369 . S
C546 C550 1.531 . S
C547 C546 1.369 . S
C547 C548 1.410 . S
C547 C555 1.503 . S
C548 C547 1.410 . S
C548 C549 1.392 . S
C548 C551 1.511 . S
C549 C545 1.376 . S
C549 C548 1.392 . S
C549 H561 0.929 . S
C550 C546 1.531 . S
C550 H562 0.960 . S
C550 H563 0.962 . S
C550 H564 0.960 . S
C551 C548 1.511 . S
C551 H565 0.961 . S
C551 H566 0.961 . S
C551 H567 0.961 . S
C552 C553 1.370 . S
C552 C554 1.363 . S
C552 H568 0.931 . S
C553 C552 1.370 . S
C553 C557 1.408 . S
C554 C552 1.363 . S
C554 C555 1.370 . S
C554 C558 1.524 . S
C555 C547 1.503 . S
C555 C554 1.370 . S
C555 C556 1.403 . S
C556 C555 1.403 . S
C556 C557 1.404 . S
C556 C559 1.539 . S
C557 C553 1.408 . S
C557 C556 1.404 . S
C557 H569 0.930 . S
C558 C554 1.524 . S
C558 H570 0.956 . S
C558 H571 0.961 . S
C558 H572 0.961 . S
C559 C556 1.539 . S
C559 H573 0.958 . S
C559 H574 0.961 . S
C559 H575 0.960 . S
H560 C544 0.931 . S
H561 C549 0.929 . S
H562 C550 0.960 . S
H563 C550 0.962 . S
H564 C550 0.960 . S
H565 C551 0.961 . S
H566 C551 0.961 . S
H567 C551 0.961 . S
H568 C552 0.931 . S
H569 C557 0.930 . S
H570 C558 0.956 . S
H571 C558 0.961 . S
H572 C558 0.961 . S
H573 C559 0.958 . S
H574 C559 0.961 . S
H575 C559 0.960 . S
C576 C577 1.391 . S
C576 C578 1.394 . S
C576 H592 0.931 . S
C577 C576 1.391 . S
C577 C581 1.376 . S
C578 C576 1.394 . S
C578 C579 1.369 . S
C578 C582 1.531 . S
C579 C578 1.369 . S
C579 C580 1.410 . S
C579 C587 1.503 . S
C580 C579 1.410 . S
C580 C581 1.392 . S
C580 C583 1.511 . S
C581 C577 1.376 . S
C581 C580 1.392 . S
C581 H593 0.929 . S
C582 C578 1.531 . S
C582 H594 0.960 . S
C582 H595 0.962 . S
C582 H596 0.960 . S
C583 C580 1.511 . S
C583 H597 0.961 . S
C583 H598 0.961 . S
C583 H599 0.961 . S
C584 C585 1.370 . S
C584 C586 1.363 . S
C584 H600 0.931 . S
C585 C584 1.370 . S
C585 C589 1.408 . S
C586 C584 1.363 . S
C586 C587 1.370 . S
C586 C590 1.524 . S
C587 C579 1.503 . S
C587 C586 1.370 . S
C587 C588 1.403 . S
C588 C587 1.403 . S
C588 C589 1.404 . S
C588 C591 1.539 . S
C589 C585 1.408 . S
C589 C588 1.404 . S
C589 H601 0.930 . S
C590 C586 1.524 . S
C590 H602 0.956 . S
C590 H603 0.961 . S
C590 H604 0.961 . S
C591 C588 1.539 . S
C591 H605 0.958 . S
C591 H606 0.961 . S
C591 H607 0.960 . S
H592 C576 0.931 . S
H593 C581 0.929 . S
H594 C582 0.960 . S
H595 C582 0.962 . S
H596 C582 0.960 . S
H597 C583 0.961 . S
H598 C583 0.961 . S
H599 C583 0.961 . S
H600 C584 0.931 . S
H601 C589 0.930 . S
H602 C590 0.956 . S
H603 C590 0.961 . S
H604 C590 0.961 . S
H605 C591 0.958 . S
H606 C591 0.961 . S
H607 C591 0.960 . S
C608 C609 1.391 . S
C608 C610 1.394 . S
C608 H624 0.931 . S
C609 C608 1.391 . S
C609 C613 1.376 . S
C610 C608 1.394 . S
C610 C611 1.369 . S
C610 C614 1.531 . S
C611 C610 1.369 . S
C611 C612 1.410 . S
C611 C619 1.503 . S
C612 C611 1.410 . S
C612 C613 1.392 . S
C612 C615 1.511 . S
C613 C609 1.376 . S
C613 C612 1.392 . S
C613 H625 0.929 . S
C614 C610 1.531 . S
C614 H626 0.960 . S
C614 H627 0.962 . S
C614 H628 0.960 . S
C615 C612 1.511 . S
C615 H629 0.961 . S
C615 H630 0.961 . S
C615 H631 0.961 . S
C616 C617 1.370 . S
C616 C618 1.363 . S
C616 H632 0.931 . S
C617 C616 1.370 . S
C617 C621 1.408 . S
C618 C616 1.363 . S
C618 C619 1.370 . S
C618 C622 1.524 . S
C619 C611 1.503 . S
C619 C618 1.370 . S
C619 C620 1.403 . S
C620 C619 1.403 . S
C620 C621 1.404 . S
C620 C623 1.539 . S
C621 C617 1.408 . S
C621 C620 1.404 . S
C621 H633 0.930 . S
C622 C618 1.524 . S
C622 H634 0.956 . S
C622 H635 0.961 . S
C622 H636 0.961 . S
C623 C620 1.539 . S
C623 H637 0.958 . S
C623 H638 0.961 . S
C623 H639 0.960 . S
H624 C608 0.931 . S
H625 C613 0.929 . S
H626 C614 0.960 . S
H627 C614 0.962 . S
H628 C614 0.960 . S
H629 C615 0.961 . S
H630 C615 0.961 . S
H631 C615 0.961 . S
H632 C616 0.931 . S
H633 C621 0.930 . S
H634 C622 0.956 . S
H635 C622 0.961 . S
H636 C622 0.961 . S
H637 C623 0.958 . S
H638 C623 0.961 . S
H639 C623 0.960 . S
C640 C641 1.391 . S
C640 C642 1.394 . S
C640 H656 0.931 . S
C641 C640 1.391 . S
C641 C645 1.376 . S
C642 C640 1.394 . S
C642 C643 1.369 . S
C642 C646 1.531 . S
C643 C642 1.369 . S
C643 C644 1.410 . S
C643 C651 1.503 . S
C644 C643 1.410 . S
C644 C645 1.392 . S
C644 C647 1.511 . S
C645 C641 1.376 . S
C645 C644 1.392 . S
C645 H657 0.929 . S
C646 C642 1.531 . S
C646 H658 0.960 . S
C646 H659 0.962 . S
C646 H660 0.960 . S
C647 C644 1.511 . S
C647 H661 0.961 . S
C647 H662 0.961 . S
C647 H663 0.961 . S
C648 C649 1.370 . S
C648 C650 1.363 . S
C648 H664 0.931 . S
C649 C648 1.370 . S
C649 C653 1.408 . S
C650 C648 1.363 . S
C650 C651 1.370 . S
C650 C654 1.524 . S
C651 C643 1.503 . S
C651 C650 1.370 . S
C651 C652 1.403 . S
C652 C651 1.403 . S
C652 C653 1.404 . S
C652 C655 1.539 . S
C653 C649 1.408 . S
C653 C652 1.404 . S
C653 H665 0.930 . S
C654 C650 1.524 . S
C654 H666 0.956 . S
C654 H667 0.961 . S
C654 H668 0.961 . S
C655 C652 1.539 . S
C655 H669 0.958 . S
C655 H670 0.961 . S
C655 H671 0.960 . S
H656 C640 0.931 . S
H657 C645 0.929 . S
H658 C646 0.960 . S
H659 C646 0.962 . S
H660 C646 0.960 . S
H661 C647 0.961 . S
H662 C647 0.961 . S
H663 C647 0.961 . S
H664 C648 0.931 . S
H665 C653 0.930 . S
H666 C654 0.956 . S
H667 C654 0.961 . S
H668 C654 0.961 . S
H669 C655 0.958 . S
H670 C655 0.961 . S
H671 C655 0.960 . S
C672 C673 1.391 . S
C672 C674 1.394 . S
C672 H688 0.931 . S
C673 C672 1.391 . S
C673 C677 1.376 . S
C674 C672 1.394 . S
C674 C675 1.369 . S
C674 C678 1.531 . S
C675 C674 1.369 . S
C675 C676 1.410 . S
C675 C683 1.503 1_556 S
C676 C675 1.410 . S
C676 C677 1.392 . S
C676 C679 1.511 1_556 S
C677 C673 1.376 . S
C677 C676 1.392 . S
C677 H689 0.929 . S
C678 C674 1.531 . S
C678 H690 0.960 . S
C678 H691 0.962 . S
C678 H692 0.960 . S
C679 C676 1.511 1_554 S
C679 H693 0.961 . S
C679 H694 0.961 . S
C679 H695 0.961 . S
C680 C681 1.370 . S
C680 C682 1.363 . S
C680 H696 0.931 . S
C681 C680 1.370 . S
C681 C685 1.408 . S
C682 C680 1.363 . S
C682 C683 1.370 . S
C682 C686 1.524 . S
C683 C675 1.503 1_554 S
C683 C682 1.370 . S
C683 C684 1.403 . S
C684 C683 1.403 . S
C684 C685 1.404 . S
C684 C687 1.539 . S
C685 C681 1.408 . S
C685 C684 1.404 . S
C685 H697 0.930 . S
C686 C682 1.524 . S
C686 H698 0.956 1_554 S
C686 H699 0.961 . S
C686 H700 0.961 . S
C687 C684 1.539 . S
C687 H701 0.958 1_554 S
C687 H702 0.961 . S
C687 H703 0.960 . S
H688 C672 0.931 . S
H689 C677 0.929 . S
H690 C678 0.960 . S
H691 C678 0.962 . S
H692 C678 0.960 . S
H693 C679 0.961 . S
H694 C679 0.961 . S
H695 C679 0.961 . S
H696 C680 0.931 . S
H697 C685 0.930 . S
H698 C686 0.956 1_556 S
H699 C686 0.961 . S
H700 C686 0.961 . S
H701 C687 0.958 1_556 S
H702 C687 0.961 . S
H703 C687 0.960 . S
C704 C705 1.391 . S
C704 C706 1.394 . S
C704 H720 0.931 . S
C705 C704 1.391 . S
C705 C709 1.376 . S
C706 C704 1.394 . S
C706 C707 1.369 . S
C706 C710 1.531 . S
C707 C706 1.369 . S
C707 C708 1.410 . S
C707 C715 1.503 . S
C708 C707 1.410 . S
C708 C709 1.392 . S
C708 C711 1.511 . S
C709 C705 1.376 . S
C709 C708 1.392 . S
C709 H721 0.929 . S
C710 C706 1.531 . S
C710 H722 0.960 . S
C710 H723 0.962 . S
C710 H724 0.960 . S
C711 C708 1.511 . S
C711 H725 0.961 . S
C711 H726 0.961 . S
C711 H727 0.961 . S
C712 C713 1.370 . S
C712 C714 1.363 . S
C712 H728 0.931 . S
C713 C712 1.370 . S
C713 C717 1.408 . S
C714 C712 1.363 . S
C714 C715 1.370 . S
C714 C718 1.524 . S
C715 C707 1.503 . S
C715 C714 1.370 . S
C715 C716 1.403 . S
C716 C715 1.403 . S
C716 C717 1.404 . S
C716 C719 1.539 . S
C717 C713 1.408 . S
C717 C716 1.404 . S
C717 H729 0.930 . S
C718 C714 1.524 . S
C718 H730 0.956 . S
C718 H731 0.961 . S
C718 H732 0.961 . S
C719 C716 1.539 . S
C719 H733 0.958 . S
C719 H734 0.961 . S
C719 H735 0.960 . S
H720 C704 0.931 . S
H721 C709 0.929 . S
H722 C710 0.960 . S
H723 C710 0.962 . S
H724 C710 0.960 . S
H725 C711 0.961 . S
H726 C711 0.961 . S
H727 C711 0.961 . S
H728 C712 0.931 . S
H729 C717 0.930 . S
H730 C718 0.956 . S
H731 C718 0.961 . S
H732 C718 0.961 . S
H733 C719 0.958 . S
H734 C719 0.961 . S
H735 C719 0.960 . S
C736 C737 1.391 . S
C736 C738 1.394 . S
C736 H752 0.931 . S
C737 C736 1.391 . S
C737 C741 1.376 . S
C738 C736 1.394 . S
C738 C739 1.369 . S
C738 C742 1.531 . S
C739 C738 1.369 . S
C739 C740 1.410 . S
C739 C747 1.503 . S
C740 C739 1.410 . S
C740 C741 1.392 . S
C740 C743 1.511 . S
C741 C737 1.376 . S
C741 C740 1.392 . S
C741 H753 0.929 . S
C742 C738 1.531 . S
C742 H754 0.960 . S
C742 H755 0.962 . S
C742 H756 0.960 . S
C743 C740 1.511 . S
C743 H757 0.961 . S
C743 H758 0.961 . S
C743 H759 0.961 . S
C744 C745 1.370 . S
C744 C746 1.363 . S
C744 H760 0.931 . S
C745 C744 1.370 . S
C745 C749 1.408 . S
C746 C744 1.363 . S
C746 C747 1.370 . S
C746 C750 1.524 . S
C747 C739 1.503 . S
C747 C746 1.370 . S
C747 C748 1.403 . S
C748 C747 1.403 . S
C748 C749 1.404 . S
C748 C751 1.539 . S
C749 C745 1.408 . S
C749 C748 1.404 . S
C749 H761 0.930 . S
C750 C746 1.524 . S
C750 H762 0.956 . S
C750 H763 0.961 . S
C750 H764 0.961 . S
C751 C748 1.539 . S
C751 H765 0.958 . S
C751 H766 0.961 . S
C751 H767 0.960 . S
H752 C736 0.931 . S
H753 C741 0.929 . S
H754 C742 0.960 . S
H755 C742 0.962 . S
H756 C742 0.960 . S
H757 C743 0.961 . S
H758 C743 0.961 . S
H759 C743 0.961 . S
H760 C744 0.931 . S
H761 C749 0.930 . S
H762 C750 0.956 . S
H763 C750 0.961 . S
H764 C750 0.961 . S
H765 C751 0.958 . S
H766 C751 0.961 . S
H767 C751 0.960 . S
C768 C769 1.391 . S
C768 C770 1.394 . S
C768 H784 0.931 . S
C769 C768 1.391 . S
C769 C773 1.376 . S
C770 C768 1.394 . S
C770 C771 1.369 . S
C770 C774 1.531 1_556 S
C771 C770 1.369 . S
C771 C772 1.410 . S
C771 C779 1.503 1_556 S
C772 C771 1.410 . S
C772 C773 1.392 . S
C772 C775 1.511 . S
C773 C769 1.376 . S
C773 C772 1.392 . S
C773 H785 0.929 . S
C774 C770 1.531 1_554 S
C774 H786 0.960 . S
C774 H787 0.962 . S
C774 H788 0.960 . S
C775 C772 1.511 . S
C775 H789 0.961 . S
C775 H790 0.961 . S
C775 H791 0.961 . S
C776 C777 1.370 . S
C776 C778 1.363 . S
C776 H792 0.931 . S
C777 C776 1.370 . S
C777 C781 1.408 . S
C778 C776 1.363 . S
C778 C779 1.370 . S
C778 C782 1.524 1_554 S
C779 C771 1.503 1_554 S
C779 C778 1.370 . S
C779 C780 1.403 . S
C780 C779 1.403 . S
C780 C781 1.404 . S
C780 C783 1.539 . S
C781 C777 1.408 . S
C781 C780 1.404 . S
C781 H793 0.930 . S
C782 C778 1.524 1_556 S
C782 H794 0.956 . S
C782 H795 0.961 . S
C782 H796 0.961 . S
C783 C780 1.539 . S
C783 H797 0.958 . S
C783 H798 0.961 . S
C783 H799 0.960 . S
H784 C768 0.931 . S
H785 C773 0.929 . S
H786 C774 0.960 . S
H787 C774 0.962 . S
H788 C774 0.960 . S
H789 C775 0.961 . S
H790 C775 0.961 . S
H791 C775 0.961 . S
H792 C776 0.931 . S
H793 C781 0.930 . S
H794 C782 0.956 . S
H795 C782 0.961 . S
H796 C782 0.961 . S
H797 C783 0.958 . S
H798 C783 0.961 . S
H799 C783 0.960 . S
C800 C801 1.391 . S
C800 C802 1.394 . S
C800 H816 0.931 . S
C801 C800 1.391 . S
C801 C805 1.376 . S
C802 C800 1.394 . S
C802 C803 1.369 . S
C802 C806 1.531 . S
C803 C802 1.369 . S
C803 C804 1.410 . S
C803 C811 1.503 . S
C804 C803 1.410 . S
C804 C805 1.392 . S
C804 C807 1.511 . S
C805 C801 1.376 . S
C805 C804 1.392 . S
C805 H817 0.929 . S
C806 C802 1.531 . S
C806 H818 0.960 . S
C806 H819 0.962 . S
C806 H820 0.960 . S
C807 C804 1.511 . S
C807 H821 0.961 . S
C807 H822 0.961 . S
C807 H823 0.961 . S
C808 C809 1.370 . S
C808 C810 1.363 . S
C808 H824 0.931 . S
C809 C808 1.370 . S
C809 C813 1.408 . S
C810 C808 1.363 . S
C810 C811 1.370 . S
C810 C814 1.524 . S
C811 C803 1.503 . S
C811 C810 1.370 . S
C811 C812 1.403 . S
C812 C811 1.403 . S
C812 C813 1.404 . S
C812 C815 1.539 . S
C813 C809 1.408 . S
C813 C812 1.404 . S
C813 H825 0.930 . S
C814 C810 1.524 . S
C814 H826 0.956 . S
C814 H827 0.961 . S
C814 H828 0.961 . S
C815 C812 1.539 . S
C815 H829 0.958 . S
C815 H830 0.961 . S
C815 H831 0.960 . S
H816 C800 0.931 . S
H817 C805 0.929 . S
H818 C806 0.960 . S
H819 C806 0.962 . S
H820 C806 0.960 . S
H821 C807 0.961 . S
H822 C807 0.961 . S
H823 C807 0.961 . S
H824 C808 0.931 . S
H825 C813 0.930 . S
H826 C814 0.956 . S
H827 C814 0.961 . S
H828 C814 0.961 . S
H829 C815 0.958 . S
H830 C815 0.961 . S
H831 C815 0.960 . S
C832 C833 1.391 . S
C832 C834 1.394 . S
C832 H848 0.931 . S
C833 C832 1.391 . S
C833 C837 1.376 . S
C834 C832 1.394 . S
C834 C835 1.369 . S
C834 C838 1.531 . S
C835 C834 1.369 . S
C835 C836 1.410 . S
C835 C843 1.503 . S
C836 C835 1.410 . S
C836 C837 1.392 . S
C836 C839 1.511 . S
C837 C833 1.376 . S
C837 C836 1.392 . S
C837 H849 0.929 . S
C838 C834 1.531 . S
C838 H850 0.960 . S
C838 H851 0.962 . S
C838 H852 0.960 . S
C839 C836 1.511 . S
C839 H853 0.961 . S
C839 H854 0.961 . S
C839 H855 0.961 . S
C840 C841 1.370 . S
C840 C842 1.363 . S
C840 H856 0.931 . S
C841 C840 1.370 . S
C841 C845 1.408 . S
C842 C840 1.363 . S
C842 C843 1.370 . S
C842 C846 1.524 . S
C843 C835 1.503 . S
C843 C842 1.370 . S
C843 C844 1.403 . S
C844 C843 1.403 . S
C844 C845 1.404 . S
C844 C847 1.539 . S
C845 C841 1.408 . S
C845 C844 1.404 . S
C845 H857 0.930 . S
C846 C842 1.524 . S
C846 H858 0.956 . S
C846 H859 0.961 . S
C846 H860 0.961 . S
C847 C844 1.539 . S
C847 H861 0.958 . S
C847 H862 0.961 . S
C847 H863 0.960 . S
H848 C832 0.931 . S
H849 C837 0.929 . S
H850 C838 0.960 . S
H851 C838 0.962 . S
H852 C838 0.960 . S
H853 C839 0.961 . S
H854 C839 0.961 . S
H855 C839 0.961 . S
H856 C840 0.931 . S
H857 C845 0.930 . S
H858 C846 0.956 . S
H859 C846 0.961 . S
H860 C846 0.961 . S
H861 C847 0.958 . S
H862 C847 0.961 . S
H863 C847 0.960 . S
C864 C865 1.391 . S
C864 C866 1.394 1_565 S
C864 H880 0.931 . S
C865 C864 1.391 . S
C865 C869 1.376 . S
C866 C864 1.394 1_545 S
C866 C867 1.369 1_545 S
C866 C870 1.531 . S
C867 C866 1.369 1_565 S
C867 C868 1.410 . S
C867 C875 1.503 1_566 S
C868 C867 1.410 . S
C868 C869 1.392 . S
C868 C871 1.488 1_556 S
C869 C865 1.376 . S
C869 C868 1.392 . S
C869 H881 0.929 . S
C870 C866 1.531 . S
C870 H882 0.960 . S
C870 H883 0.962 . S
C870 H884 0.960 . S
C871 C868 1.488 1_554 S
C871 H885 0.958 1_554 S
C871 H886 0.993 . S
C871 H887 0.956 1_554 S
C872 C873 1.370 . S
C872 C874 1.363 1_545 S
C872 H888 0.931 . S
C873 C872 1.370 . S
C873 C877 1.408 . S
C874 C872 1.363 1_565 S
C874 C875 1.370 1_565 S
C874 C878 1.525 . S
C875 C867 1.503 1_544 S
C875 C874 1.370 1_545 S
C875 C876 1.403 . S
C876 C875 1.403 . S
C876 C877 1.404 . S
C876 C879 1.539 1_554 S
C877 C873 1.408 . S
C877 C876 1.404 . S
C877 H889 0.930 . S
C878 C874 1.525 . S
C878 H890 0.956 . S
C878 H891 0.961 . S
C878 H892 0.961 . S
C879 C876 1.539 1_556 S
C879 H893 0.958 . S
C879 H894 0.961 1_556 S
C879 H895 0.960 . S
H880 C864 0.931 . S
H881 C869 0.929 . S
H882 C870 0.960 . S
H883 C870 0.962 . S
H884 C870 0.960 . S
H885 C871 0.958 1_556 S
H886 C871 0.993 . S
H887 C871 0.956 1_556 S
H888 C872 0.931 . S
H889 C877 0.930 . S
H890 C878 0.956 . S
H891 C878 0.961 . S
H892 C878 0.961 . S
H893 C879 0.958 . S
H894 C879 0.961 1_554 S
H895 C879 0.960 . S
C896 C897 1.391 . S
C896 C898 1.394 . S
C896 H912 0.931 . S
C897 C896 1.391 . S
C897 C901 1.376 . S
C898 C896 1.394 . S
C898 C899 1.369 . S
C898 C902 1.531 . S
C899 C898 1.369 . S
C899 C900 1.410 . S
C899 C907 1.503 . S
C900 C899 1.410 . S
C900 C901 1.392 . S
C900 C903 1.511 . S
C901 C897 1.376 . S
C901 C900 1.392 . S
C901 H913 0.929 . S
C902 C898 1.531 . S
C902 H914 0.960 . S
C902 H915 0.962 . S
C902 H916 0.960 . S
C903 C900 1.511 . S
C903 H917 0.961 . S
C903 H918 0.961 . S
C903 H919 0.961 . S
C904 C905 1.370 . S
C904 C906 1.363 . S
C904 H920 0.931 . S
C905 C904 1.370 . S
C905 C909 1.408 . S
C906 C904 1.363 . S
C906 C907 1.370 . S
C906 C910 1.524 . S
C907 C899 1.503 . S
C907 C906 1.370 . S
C907 C908 1.403 . S
C908 C907 1.403 . S
C908 C909 1.404 . S
C908 C911 1.539 . S
C909 C905 1.408 . S
C909 C908 1.404 . S
C909 H921 0.930 . S
C910 C906 1.524 . S
C910 H922 0.956 . S
C910 H923 0.961 . S
C910 H924 0.961 . S
C911 C908 1.539 . S
C911 H925 0.958 . S
C911 H926 0.961 . S
C911 H927 0.960 . S
H912 C896 0.931 . S
H913 C901 0.929 . S
H914 C902 0.960 . S
H915 C902 0.962 . S
H916 C902 0.960 . S
H917 C903 0.961 . S
H918 C903 0.961 . S
H919 C903 0.961 . S
H920 C904 0.931 . S
H921 C909 0.930 . S
H922 C910 0.956 . S
H923 C910 0.961 . S
H924 C910 0.961 . S
H925 C911 0.958 . S
H926 C911 0.961 . S
H927 C911 0.960 . S
C928 C929 1.391 . S
C928 C930 1.394 1_455 S
C928 H944 0.931 1_455 S
C929 C928 1.391 . S
C929 C933 1.376 . S
C930 C928 1.394 1_655 S
C930 C931 1.369 1_655 S
C930 C934 1.531 . S
C931 C930 1.369 1_455 S
C931 C932 1.410 . S
C931 C939 1.503 1_455 S
C932 C931 1.410 . S
C932 C933 1.392 . S
C932 C935 1.511 . S
C933 C929 1.376 . S
C933 C932 1.392 . S
C933 H945 0.929 . S
C934 C930 1.531 . S
C934 H946 0.960 . S
C934 H947 0.962 . S
C934 H948 0.960 . S
C935 C932 1.511 . S
C935 H949 0.961 . S
C935 H950 0.961 . S
C935 H951 0.961 . S
C936 C937 1.370 . S
C936 C938 1.363 . S
C936 H952 0.931 . S
C937 C936 1.370 . S
C937 C941 1.408 . S
C938 C936 1.363 . S
C938 C939 1.370 . S
C938 C942 1.524 1_655 S
C939 C931 1.503 1_655 S
C939 C938 1.370 . S
C939 C940 1.403 . S
C940 C939 1.403 . S
C940 C941 1.404 . S
C940 C943 1.539 . S
C941 C937 1.408 . S
C941 C940 1.404 . S
C941 H953 0.930 . S
C942 C938 1.524 1_455 S
C942 H954 0.956 . S
C942 H955 0.961 . S
C942 H956 0.961 . S
C943 C940 1.539 . S
C943 H957 0.958 . S
C943 H958 0.961 . S
C943 H959 0.960 . S
H944 C928 0.931 1_655 S
H945 C933 0.929 . S
H946 C934 0.960 . S
H947 C934 0.962 . S
H948 C934 0.960 . S
H949 C935 0.961 . S
H950 C935 0.961 . S
H951 C935 0.961 . S
H952 C936 0.931 . S
H953 C941 0.930 . S
H954 C942 0.956 . S
H955 C942 0.961 . S
H956 C942 0.961 . S
H957 C943 0.958 . S
H958 C943 0.961 . S
H959 C943 0.960 . S
C960 C961 1.391 . S
C960 C962 1.394 . S
C960 H976 0.931 . S
C961 C960 1.391 . S
C961 C965 1.376 . S
C962 C960 1.394 . S
C962 C963 1.369 . S
C962 C966 1.531 1_554 S
C963 C962 1.369 . S
C963 C964 1.410 . S
C963 C971 1.503 1_564 S
C964 C963 1.410 . S
C964 C965 1.392 . S
C964 C967 1.511 1_565 S
C965 C961 1.376 . S
C965 C964 1.392 . S
C965 H977 0.929 . S
C966 C962 1.531 1_556 S
C966 H978 0.960 . S
C966 H979 0.962 . S
C966 H980 0.960 . S
C967 C964 1.511 1_545 S
C967 H981 0.961 . S
C967 H982 0.961 . S
C967 H983 0.961 . S
C968 C969 1.370 . S
C968 C970 1.363 . S
C968 H984 0.931 . S
C969 C968 1.370 . S
C969 C973 1.408 . S
C970 C968 1.363 . S
C970 C971 1.370 . S
C970 C974 1.524 1_556 S
C971 C963 1.503 1_546 S
C971 C970 1.370 . S
C971 C972 1.403 1_545 S
C972 C971 1.403 1_565 S
C972 C973 1.404 1_565 S
C972 C975 1.539 . S
C973 C969 1.408 . S
C973 C972 1.404 1_545 S
C973 H985 0.930 . S
C974 C970 1.524 1_554 S
C974 H986 0.956 . S
C974 H987 0.961 . S
C974 H988 0.961 . S
C975 C972 1.539 . S
C975 H989 0.958 . S
C975 H990 0.961 . S
C975 H991 0.960 . S
H976 C960 0.931 . S
H977 C965 0.929 . S
H978 C966 0.960 . S
H979 C966 0.962 . S
H980 C966 0.960 . S
H981 C967 0.961 . S
H982 C967 0.961 . S
H983 C967 0.961 . S
H984 C968 0.931 . S
H985 C973 0.930 . S
H986 C974 0.956 . S
H987 C974 0.961 . S
H988 C974 0.961 . S
H989 C975 0.958 . S
H990 C975 0.961 . S
H991 C975 0.960 . S
C992 C993 1.391 . S
C992 C994 1.394 . S
C992 H1008 0.931 . S
C993 C992 1.391 . S
C993 C997 1.376 . S
C994 C992 1.394 . S
C994 C995 1.369 . S
C994 C998 1.531 . S
C995 C994 1.369 . S
C995 C996 1.410 . S
C995 C1003 1.503 . S
C996 C995 1.410 . S
C996 C997 1.392 . S
C996 C999 1.511 . S
C997 C993 1.376 . S
C997 C996 1.392 . S
C997 H1009 0.929 . S
C998 C994 1.531 . S
C998 H1010 0.960 . S
C998 H1011 0.962 . S
C998 H1012 0.960 . S
C999 C996 1.511 . S
C999 H1013 0.961 . S
C999 H1014 0.961 . S
C999 H1015 0.961 . S
C1000 C1001 1.370 . S
C1000 C1002 1.363 . S
C1000 H1016 0.931 . S
C1001 C1000 1.370 . S
C1001 C1005 1.408 . S
C1002 C1000 1.363 . S
C1002 C1003 1.370 . S
C1002 C1006 1.524 . S
C1003 C995 1.503 . S
C1003 C1002 1.370 . S
C1003 C1004 1.403 . S
C1004 C1003 1.403 . S
C1004 C1005 1.404 . S
C1004 C1007 1.539 . S
C1005 C1001 1.408 . S
C1005 C1004 1.404 . S
C1005 H1017 0.930 . S
C1006 C1002 1.524 . S
C1006 H1018 0.956 . S
C1006 H1019 0.961 . S
C1006 H1020 0.961 . S
C1007 C1004 1.539 . S
C1007 H1021 0.958 . S
C1007 H1022 0.961 . S
C1007 H1023 0.960 . S
H1008 C992 0.931 . S
H1009 C997 0.929 . S
H1010 C998 0.960 . S
H1011 C998 0.962 . S
H1012 C998 0.960 . S
H1013 C999 0.961 . S
H1014 C999 0.961 . S
H1015 C999 0.961 . S
H1016 C1000 0.931 . S
H1017 C1005 0.930 . S
H1018 C1006 0.956 . S
H1019 C1006 0.961 . S
H1020 C1006 0.961 . S
H1021 C1007 0.958 . S
H1022 C1007 0.961 . S
H1023 C1007 0.960 . S
C1024 C1025 1.391 . S
C1024 C1026 1.394 . S
C1024 H1040 0.931 . S
C1025 C1024 1.391 . S
C1025 C1029 1.376 . S
C1026 C1024 1.394 . S
C1026 C1027 1.369 . S
C1026 C1030 1.531 1_455 S
C1027 C1026 1.369 . S
C1027 C1028 1.410 . S
C1027 C1035 1.503 1_455 S
C1028 C1027 1.410 . S
C1028 C1029 1.392 . S
C1028 C1031 1.511 . S
C1029 C1025 1.376 . S
C1029 C1028 1.392 . S
C1029 H1041 0.929 . S
C1030 C1026 1.531 1_655 S
C1030 H1042 0.960 . S
C1030 H1043 0.962 . S
C1030 H1044 0.960 . S
C1031 C1028 1.511 . S
C1031 H1045 0.961 . S
C1031 H1046 0.961 . S
C1031 H1047 0.961 . S
C1032 C1033 1.370 . S
C1032 C1034 1.363 . S
C1032 H1048 0.931 . S
C1033 C1032 1.370 . S
C1033 C1037 1.408 . S
C1034 C1032 1.363 . S
C1034 C1035 1.370 . S
C1034 C1038 1.524 . S
C1035 C1027 1.503 1_655 S
C1035 C1034 1.370 . S
C1035 C1036 1.403 1_655 S
C1036 C1035 1.403 1_455 S
C1036 C1037 1.404 1_455 S
C1036 C1039 1.539 . S
C1037 C1033 1.408 . S
C1037 C1036 1.404 1_655 S
C1037 H1049 0.930 . S
C1038 C1034 1.524 . S
C1038 H1050 0.956 . S
C1038 H1051 0.961 . S
C1038 H1052 0.961 . S
C1039 C1036 1.539 . S
C1039 H1053 0.958 . S
C1039 H1054 0.961 . S
C1039 H1055 0.960 . S
H1040 C1024 0.931 . S
H1041 C1029 0.929 . S
H1042 C1030 0.960 . S
H1043 C1030 0.962 . S
H1044 C1030 0.960 . S
H1045 C1031 0.961 . S
H1046 C1031 0.961 . S
H1047 C1031 0.961 . S
H1048 C1032 0.931 . S
H1049 C1037 0.930 . S
H1050 C1038 0.956 . S
H1051 C1038 0.961 . S
H1052 C1038 0.961 . S
H1053 C1039 0.958 . S
H1054 C1039 0.961 . S
H1055 C1039 0.960 . S
C1056 C1057 1.391 . S
C1056 C1058 1.396 1_545 S
C1056 H1072 0.931 . S
C1057 C1056 1.391 . S
C1057 C1061 1.376 . S
C1058 C1056 1.396 1_565 S
C1058 C1059 1.368 1_565 S
C1058 C1062 1.529 . S
C1059 C1058 1.368 1_545 S
C1059 C1060 1.410 . S
C1059 C1067 1.503 1_545 S
C1060 C1059 1.410 . S
C1060 C1061 1.392 . S
C1060 C1063 1.511 . S
C1061 C1057 1.376 . S
C1061 C1060 1.392 . S
C1061 H1073 0.929 . S
C1062 C1058 1.529 . S
C1062 H1074 0.960 . S
C1062 H1075 0.962 . S
C1062 H1076 0.960 . S
C1063 C1060 1.511 . S
C1063 H1077 0.961 . S
C1063 H1078 0.961 . S
C1063 H1079 0.961 . S
C1064 C1065 1.370 . S
C1064 C1066 1.363 . S
C1064 H1080 0.931 . S
C1065 C1064 1.370 . S
C1065 C1069 1.408 . S
C1066 C1064 1.363 . S
C1066 C1067 1.370 . S
C1066 C1070 1.524 1_565 S
C1067 C1059 1.503 1_565 S
C1067 C1066 1.370 . S
C1067 C1068 1.403 . S
C1068 C1067 1.403 . S
C1068 C1069 1.404 . S
C1068 C1071 1.539 . S
C1069 C1065 1.408 . S
C1069 C1068 1.404 . S
C1069 H1081 0.930 . S
C1070 C1066 1.524 1_545 S
C1070 H1082 0.956 1_545 S
C1070 H1083 0.961 . S
C1070 H1084 0.972 . S
C1071 C1068 1.539 . S
C1071 H1085 0.958 . S
C1071 H1086 0.961 . S
C1071 H1087 0.960 . S
H1072 C1056 0.931 . S
H1073 C1061 0.929 . S
H1074 C1062 0.960 . S
H1075 C1062 0.962 . S
H1076 C1062 0.960 . S
H1077 C1063 0.961 . S
H1078 C1063 0.961 . S
H1079 C1063 0.961 . S
H1080 C1064 0.931 . S
H1081 C1069 0.930 . S
H1082 C1070 0.956 1_565 S
H1083 C1070 0.961 . S
H1084 C1070 0.972 . S
H1085 C1071 0.958 . S
H1086 C1071 0.961 . S
H1087 C1071 0.960 . S
C1088 C1089 1.391 . S
C1088 C1090 1.394 . S
C1088 H1104 0.931 . S
C1089 C1088 1.391 . S
C1089 C1093 1.376 . S
C1090 C1088 1.394 . S
C1090 C1091 1.369 . S
C1090 C1094 1.531 . S
C1091 C1090 1.369 . S
C1091 C1092 1.410 . S
C1091 C1099 1.503 . S
C1092 C1091 1.410 . S
C1092 C1093 1.392 . S
C1092 C1095 1.511 . S
C1093 C1089 1.376 . S
C1093 C1092 1.392 . S
C1093 H1105 0.929 . S
C1094 C1090 1.531 . S
C1094 H1106 0.960 . S
C1094 H1107 0.962 . S
C1094 H1108 0.960 . S
C1095 C1092 1.511 . S
C1095 H1109 0.961 . S
C1095 H1110 0.961 . S
C1095 H1111 0.961 . S
C1096 C1097 1.370 . S
C1096 C1098 1.363 . S
C1096 H1112 0.931 . S
C1097 C1096 1.370 . S
C1097 C1101 1.408 . S
C1098 C1096 1.363 . S
C1098 C1099 1.370 . S
C1098 C1102 1.524 . S
C1099 C1091 1.503 . S
C1099 C1098 1.370 . S
C1099 C1100 1.403 . S
C1100 C1099 1.403 . S
C1100 C1101 1.404 . S
C1100 C1103 1.539 . S
C1101 C1097 1.408 . S
C1101 C1100 1.404 . S
C1101 H1113 0.930 . S
C1102 C1098 1.524 . S
C1102 H1114 0.956 . S
C1102 H1115 0.961 . S
C1102 H1116 0.961 . S
C1103 C1100 1.539 . S
C1103 H1117 0.958 . S
C1103 H1118 0.961 . S
C1103 H1119 0.960 . S
H1104 C1088 0.931 . S
H1105 C1093 0.929 . S
H1106 C1094 0.960 . S
H1107 C1094 0.962 . S
H1108 C1094 0.960 . S
H1109 C1095 0.961 . S
H1110 C1095 0.961 . S
H1111 C1095 0.961 . S
H1112 C1096 0.931 . S
H1113 C1101 0.930 . S
H1114 C1102 0.956 . S
H1115 C1102 0.961 . S
H1116 C1102 0.961 . S
H1117 C1103 0.958 . S
H1118 C1103 0.961 . S
H1119 C1103 0.960 . S
C1120 C1121 1.391 . S
C1120 C1122 1.395 . S
C1120 H1136 0.931 . S
C1121 C1120 1.391 . S
C1121 C1125 1.376 . S
C1122 C1120 1.395 . S
C1122 C1123 1.375 . S
C1122 C1126 1.522 1_655 S
C1123 C1122 1.375 . S
C1123 C1124 1.410 . S
C1123 C1131 1.503 1_655 S
C1124 C1123 1.410 . S
C1124 C1125 1.392 . S
C1124 C1127 1.511 . S
C1125 C1121 1.376 . S
C1125 C1124 1.392 . S
C1125 H1137 0.929 . S
C1126 C1122 1.522 1_455 S
C1126 H1138 0.960 . S
C1126 H1139 0.962 . S
C1126 H1140 0.960 . S
C1127 C1124 1.511 . S
C1127 H1141 0.961 . S
C1127 H1142 0.961 . S
C1127 H1143 0.961 . S
C1128 C1129 1.370 . S
C1128 C1130 1.363 . S
C1128 H1144 0.931 . S
C1129 C1128 1.370 . S
C1129 C1133 1.408 . S
C1130 C1128 1.363 . S
C1130 C1131 1.370 . S
C1130 C1134 1.524 . S
C1131 C1123 1.503 1_455 S
C1131 C1130 1.370 . S
C1131 C1132 1.403 . S
C1132 C1131 1.403 . S
C1132 C1133 1.404 . S
C1132 C1135 1.539 . S
C1133 C1129 1.408 . S
C1133 C1132 1.404 . S
C1133 H1145 0.930 . S
C1134 C1130 1.524 . S
C1134 H1146 0.956 . S
C1134 H1147 0.961 1_455 S
C1134 H1148 0.958 . S
C1135 C1132 1.539 . S
C1135 H1149 0.958 . S
C1135 H1150 0.961 . S
C1135 H1151 0.960 1_455 S
H1136 C1120 0.931 . S
H1137 C1125 0.929 . S
H1138 C1126 0.960 . S
H1139 C1126 0.962 . S
H1140 C1126 0.960 . S
H1141 C1127 0.961 . S
H1142 C1127 0.961 . S
H1143 C1127 0.961 . S
H1144 C1128 0.931 . S
H1145 C1133 0.930 . S
H1146 C1134 0.956 . S
H1147 C1134 0.961 1_655 S
H1148 C1134 0.958 . S
H1149 C1135 0.958 . S
H1150 C1135 0.961 . S
H1151 C1135 0.960 1_655 S
C1152 C1153 1.391 . S
C1152 C1154 1.394 . S
C1152 H1168 0.931 . S
C1153 C1152 1.391 . S
C1153 C1157 1.376 . S
C1154 C1152 1.394 . S
C1154 C1155 1.369 . S
C1154 C1158 1.531 . S
C1155 C1154 1.369 . S
C1155 C1156 1.414 1_455 S
C1155 C1163 1.503 1_455 S
C1156 C1155 1.414 1_655 S
C1156 C1157 1.371 1_655 S
C1156 C1159 1.528 . S
C1157 C1153 1.376 . S
C1157 C1156 1.371 1_455 S
C1157 H1169 0.929 . S
C1158 C1154 1.531 . S
C1158 H1170 0.960 . S
C1158 H1171 0.962 . S
C1158 H1172 0.960 . S
C1159 C1156 1.528 . S
C1159 H1173 0.961 . S
C1159 H1174 0.961 . S
C1159 H1175 0.961 . S
C1160 C1161 1.370 . S
C1160 C1162 1.363 . S
C1160 H1176 0.931 . S
C1161 C1160 1.370 . S
C1161 C1165 1.408 . S
C1162 C1160 1.363 . S
C1162 C1163 1.370 . S
C1162 C1166 1.505 1_655 S
C1163 C1155 1.503 1_655 S
C1163 C1162 1.370 . S
C1163 C1164 1.403 . S
C1164 C1163 1.403 . S
C1164 C1165 1.404 . S
C1164 C1167 1.539 . S
C1165 C1161 1.408 . S
C1165 C1164 1.404 . S
C1165 H1177 0.930 . S
C1166 C1162 1.505 1_455 S
C1166 H1178 0.982 . S
C1166 H1179 0.973 1_455 S
C1166 H1180 0.942 1_455 S
C1167 C1164 1.539 . S
C1167 H1181 0.958 . S
C1167 H1182 0.961 . S
C1167 H1183 0.960 . S
H1168 C1152 0.931 . S
H1169 C1157 0.929 . S
H1170 C1158 0.960 . S
H1171 C1158 0.962 . S
H1172 C1158 0.960 . S
H1173 C1159 0.961 . S
H1174 C1159 0.961 . S
H1175 C1159 0.961 . S
H1176 C1160 0.931 . S
H1177 C1165 0.930 . S
H1178 C1166 0.982 . S
H1179 C1166 0.973 1_655 S
H1180 C1166 0.942 1_655 S
H1181 C1167 0.958 . S
H1182 C1167 0.961 . S
H1183 C1167 0.960 . S
C1184 C1185 1.391 . S
C1184 C1186 1.394 . S
C1184 H1200 0.931 . S
C1185 C1184 1.391 . S
C1185 C1189 1.376 . S
C1186 C1184 1.394 . S
C1186 C1187 1.369 . S
C1186 C1190 1.531 . S
C1187 C1186 1.369 . S
C1187 C1188 1.410 . S
C1187 C1195 1.503 1_565 S
C1188 C1187 1.410 . S
C1188 C1189 1.392 . S
C1188 C1191 1.511 1_565 S
C1189 C1185 1.376 . S
C1189 C1188 1.392 . S
C1189 H1201 0.929 . S
C1190 C1186 1.531 . S
C1190 H1202 0.960 . S
C1190 H1203 0.962 . S
C1190 H1204 0.960 . S
C1191 C1188 1.511 1_545 S
C1191 H1205 0.961 . S
C1191 H1206 0.961 . S
C1191 H1207 0.961 . S
C1192 C1193 1.370 . S
C1192 C1194 1.363 . S
C1192 H1208 0.931 . S
C1193 C1192 1.370 . S
C1193 C1197 1.408 . S
C1194 C1192 1.363 . S
C1194 C1195 1.370 . S
C1194 C1198 1.524 1_545 S
C1195 C1187 1.503 1_545 S
C1195 C1194 1.370 . S
C1195 C1196 1.403 . S
C1196 C1195 1.403 . S
C1196 C1197 1.404 . S
C1196 C1199 1.539 . S
C1197 C1193 1.408 . S
C1197 C1196 1.404 . S
C1197 H1209 0.930 . S
C1198 C1194 1.524 1_565 S
C1198 H1210 0.956 . S
C1198 H1211 0.961 . S
C1198 H1212 0.961 . S
C1199 C1196 1.539 . S
C1199 H1213 0.958 . S
C1199 H1214 0.961 . S
C1199 H1215 0.960 . S
H1200 C1184 0.931 . S
H1201 C1189 0.929 . S
H1202 C1190 0.960 . S
H1203 C1190 0.962 . S
H1204 C1190 0.960 . S
H1205 C1191 0.961 . S
H1206 C1191 0.961 . S
H1207 C1191 0.961 . S
H1208 C1192 0.931 . S
H1209 C1197 0.930 . S
H1210 C1198 0.956 . S
H1211 C1198 0.961 . S
H1212 C1198 0.961 . S
H1213 C1199 0.958 . S
H1214 C1199 0.961 . S
H1215 C1199 0.960 . S
C1216 C1217 1.391 . S
C1216 C1218 1.394 . S
C1216 H1232 0.931 . S
C1217 C1216 1.391 . S
C1217 C1221 1.376 . S
C1218 C1216 1.394 . S
C1218 C1219 1.369 . S
C1218 C1222 1.531 . S
C1219 C1218 1.369 . S
C1219 C1220 1.410 . S
C1219 C1227 1.503 . S
C1220 C1219 1.410 . S
C1220 C1221 1.392 . S
C1220 C1223 1.511 . S
C1221 C1217 1.376 . S
C1221 C1220 1.392 . S
C1221 H1233 0.929 . S
C1222 C1218 1.531 . S
C1222 H1234 0.960 . S
C1222 H1235 0.962 . S
C1222 H1236 0.960 . S
C1223 C1220 1.511 . S
C1223 H1237 0.961 . S
C1223 H1238 0.961 . S
C1223 H1239 0.961 . S
C1224 C1225 1.370 . S
C1224 C1226 1.363 . S
C1224 H1240 0.931 . S
C1225 C1224 1.370 . S
C1225 C1229 1.408 . S
C1226 C1224 1.363 . S
C1226 C1227 1.370 . S
C1226 C1230 1.524 . S
C1227 C1219 1.503 . S
C1227 C1226 1.370 . S
C1227 C1228 1.403 . S
C1228 C1227 1.403 . S
C1228 C1229 1.404 . S
C1228 C1231 1.539 . S
C1229 C1225 1.408 . S
C1229 C1228 1.404 . S
C1229 H1241 0.930 . S
C1230 C1226 1.524 . S
C1230 H1242 0.956 . S
C1230 H1243 0.961 . S
C1230 H1244 0.961 . S
C1231 C1228 1.539 . S
C1231 H1245 0.958 . S
C1231 H1246 0.961 . S
C1231 H1247 0.960 . S
H1232 C1216 0.931 . S
H1233 C1221 0.929 . S
H1234 C1222 0.960 . S
H1235 C1222 0.962 . S
H1236 C1222 0.960 . S
H1237 C1223 0.961 . S
H1238 C1223 0.961 . S
H1239 C1223 0.961 . S
H1240 C1224 0.931 . S
H1241 C1229 0.930 . S
H1242 C1230 0.956 . S
H1243 C1230 0.961 . S
H1244 C1230 0.961 . S
H1245 C1231 0.958 . S
H1246 C1231 0.961 . S
H1247 C1231 0.960 . S
C1248 C1249 1.391 . S
C1248 C1250 1.394 . S
C1248 H1264 0.931 . S
C1249 C1248 1.391 . S
C1249 C1253 1.376 . S
C1250 C1248 1.394 . S
C1250 C1251 1.369 . S
C1250 C1254 1.531 . S
C1251 C1250 1.369 . S
C1251 C1252 1.410 . S
C1251 C1259 1.503 1_565 S
C1252 C1251 1.410 . S
C1252 C1253 1.392 . S
C1252 C1255 1.511 1_565 S
C1253 C1249 1.376 . S
C1253 C1252 1.392 . S
C1253 H1265 0.929 . S
C1254 C1250 1.531 . S
C1254 H1266 0.961 . S
C1254 H1267 0.962 . S
C1254 H1268 0.960 . S
C1255 C1252 1.511 1_545 S
C1255 H1269 0.961 1_545 S
C1255 H1270 0.961 . S
C1255 H1271 0.961 . S
C1256 C1257 1.370 . S
C1256 C1258 1.363 . S
C1256 H1272 0.931 . S
C1257 C1256 1.370 . S
C1257 C1261 1.408 . S
C1258 C1256 1.363 . S
C1258 C1259 1.370 . S
C1258 C1262 1.524 1_545 S
C1259 C1251 1.503 1_545 S
C1259 C1258 1.370 . S
C1259 C1260 1.403 . S
C1260 C1259 1.403 . S
C1260 C1261 1.404 . S
C1260 C1263 1.539 . S
C1261 C1257 1.408 . S
C1261 C1260 1.404 . S
C1261 H1273 0.930 . S
C1262 C1258 1.524 1_565 S
C1262 H1274 0.956 . S
C1262 H1275 0.961 . S
C1262 H1276 0.961 . S
C1263 C1260 1.539 . S
C1263 H1277 0.958 . S
C1263 H1278 0.961 . S
C1263 H1279 0.960 . S
H1264 C1248 0.931 . S
H1265 C1253 0.929 . S
H1266 C1254 0.961 . S
H1267 C1254 0.962 . S
H1268 C1254 0.960 . S
H1269 C1255 0.961 1_565 S
H1270 C1255 0.961 . S
H1271 C1255 0.961 . S
H1272 C1256 0.931 . S
H1273 C1261 0.930 . S
H1274 C1262 0.956 . S
H1275 C1262 0.961 . S
H1276 C1262 0.961 . S
H1277 C1263 0.958 . S
H1278 C1263 0.961 . S
H1279 C1263 0.960 . S
C1280 C1281 1.391 . S
C1280 C1282 1.394 . S
C1280 H1296 0.931 . S
C1281 C1280 1.391 . S
C1281 C1285 1.376 . S
C1282 C1280 1.394 . S
C1282 C1283 1.369 . S
C1282 C1286 1.531 . S
C1283 C1282 1.369 . S
C1283 C1284 1.410 . S
C1283 C1291 1.503 . S
C1284 C1283 1.410 . S
C1284 C1285 1.392 . S
C1284 C1287 1.511 . S
C1285 C1281 1.376 . S
C1285 C1284 1.392 . S
C1285 H1297 0.929 . S
C1286 C1282 1.531 . S
C1286 H1298 0.960 . S
C1286 H1299 0.962 . S
C1286 H1300 0.960 . S
C1287 C1284 1.511 . S
C1287 H1301 0.961 . S
C1287 H1302 0.961 . S
C1287 H1303 0.961 . S
C1288 C1289 1.370 . S
C1288 C1290 1.363 . S
C1288 H1304 0.931 . S
C1289 C1288 1.370 . S
C1289 C1293 1.408 . S
C1290 C1288 1.363 . S
C1290 C1291 1.370 . S
C1290 C1294 1.524 . S
C1291 C1283 1.503 . S
C1291 C1290 1.370 . S
C1291 C1292 1.403 . S
C1292 C1291 1.403 . S
C1292 C1293 1.404 . S
C1292 C1295 1.539 . S
C1293 C1289 1.408 . S
C1293 C1292 1.404 . S
C1293 H1305 0.930 . S
C1294 C1290 1.524 . S
C1294 H1306 0.956 . S
C1294 H1307 0.961 . S
C1294 H1308 0.961 . S
C1295 C1292 1.539 . S
C1295 H1309 0.958 . S
C1295 H1310 0.961 . S
C1295 H1311 0.960 . S
H1296 C1280 0.931 . S
H1297 C1285 0.929 . S
H1298 C1286 0.960 . S
H1299 C1286 0.962 . S
H1300 C1286 0.960 . S
H1301 C1287 0.961 . S
H1302 C1287 0.961 . S
H1303 C1287 0.961 . S
H1304 C1288 0.931 . S
H1305 C1293 0.930 . S
H1306 C1294 0.956 . S
H1307 C1294 0.961 . S
H1308 C1294 0.961 . S
H1309 C1295 0.958 . S
H1310 C1295 0.961 . S
H1311 C1295 0.960 . S
C1312 C1313 1.391 . S
C1312 C1314 1.394 . S
C1312 H1328 0.931 . S
C1313 C1312 1.391 . S
C1313 C1317 1.376 . S
C1314 C1312 1.394 . S
C1314 C1315 1.369 . S
C1314 C1318 1.531 . S
C1315 C1314 1.369 . S
C1315 C1316 1.410 . S
C1315 C1323 1.503 1_655 S
C1316 C1315 1.410 . S
C1316 C1317 1.392 . S
C1316 C1319 1.511 1_655 S
C1317 C1313 1.376 . S
C1317 C1316 1.392 . S
C1317 H1329 0.929 . S
C1318 C1314 1.531 . S
C1318 H1330 0.960 1_655 S
C1318 H1331 0.962 . S
C1318 H1332 0.960 . S
C1319 C1316 1.511 1_455 S
C1319 H1333 0.961 1_455 S
C1319 H1334 0.961 . S
C1319 H1335 0.961 . S
C1320 C1321 1.370 . S
C1320 C1322 1.363 . S
C1320 H1336 0.931 . S
C1321 C1320 1.370 . S
C1321 C1325 1.408 . S
C1322 C1320 1.363 . S
C1322 C1323 1.370 . S
C1322 C1326 1.524 1_455 S
C1323 C1315 1.503 1_455 S
C1323 C1322 1.370 . S
C1323 C1324 1.403 . S
C1324 C1323 1.403 . S
C1324 C1325 1.404 . S
C1324 C1327 1.539 . S
C1325 C1321 1.408 . S
C1325 C1324 1.404 . S
C1325 H1337 0.930 . S
C1326 C1322 1.524 1_655 S
C1326 H1338 0.956 . S
C1326 H1339 0.961 . S
C1326 H1340 0.961 . S
C1327 C1324 1.539 . S
C1327 H1341 0.958 . S
C1327 H1342 0.961 . S
C1327 H1343 0.960 . S
H1328 C1312 0.931 . S
H1329 C1317 0.929 . S
H1330 C1318 0.960 1_455 S
H1331 C1318 0.962 . S
H1332 C1318 0.960 . S
H1333 C1319 0.961 1_655 S
H1334 C1319 0.961 . S
H1335 C1319 0.961 . S
H1336 C1320 0.931 . S
H1337 C1325 0.930 . S
H1338 C1326 0.956 . S
H1339 C1326 0.961 . S
H1340 C1326 0.961 . S
H1341 C1327 0.958 . S
H1342 C1327 0.961 . S
H1343 C1327 0.960 . S
C1344 C1345 1.391 . S
C1344 C1346 1.394 . S
C1344 H1360 0.931 . S
C1345 C1344 1.391 . S
C1345 C1349 1.376 . S
C1346 C1344 1.394 . S
C1346 C1347 1.369 . S
C1346 C1350 1.531 . S
C1347 C1346 1.369 . S
C1347 C1348 1.410 . S
C1347 C1355 1.503 1_545 S
C1348 C1347 1.410 . S
C1348 C1349 1.392 . S
C1348 C1351 1.511 1_545 S
C1349 C1345 1.376 . S
C1349 C1348 1.392 . S
C1349 H1361 0.929 . S
C1350 C1346 1.531 . S
C1350 H1362 0.960 . S
C1350 H1363 0.962 . S
C1350 H1364 0.960 . S
C1351 C1348 1.511 1_565 S
C1351 H1365 0.961 . S
C1351 H1366 0.961 . S
C1351 H1367 0.961 1_565 S
C1352 C1353 1.370 . S
C1352 C1354 1.363 . S
C1352 H1368 0.931 . S
C1353 C1352 1.370 . S
C1353 C1357 1.408 . S
C1354 C1352 1.363 . S
C1354 C1355 1.370 . S
C1354 C1358 1.524 . S
C1355 C1347 1.503 1_565 S
C1355 C1354 1.370 . S
C1355 C1356 1.403 . S
C1356 C1355 1.403 . S
C1356 C1357 1.404 . S
C1356 C1359 1.539 1_565 S
C1357 C1353 1.408 . S
C1357 C1356 1.404 . S
C1357 H1369 0.930 . S
C1358 C1354 1.524 . S
C1358 H1370 0.956 . S
C1358 H1371 0.961 . S
C1358 H1372 0.961 . S
C1359 C1356 1.539 1_545 S
C1359 H1373 0.958 . S
C1359 H1374 0.961 . S
C1359 H1375 0.960 . S
H1360 C1344 0.931 . S
H1361 C1349 0.929 . S
H1362 C1350 0.960 . S
H1363 C1350 0.962 . S
H1364 C1350 0.960 . S
H1365 C1351 0.961 . S
H1366 C1351 0.961 . S
H1367 C1351 0.961 1_545 S
H1368 C1352 0.931 . S
H1369 C1357 0.930 . S
H1370 C1358 0.956 . S
H1371 C1358 0.961 . S
H1372 C1358 0.961 . S
H1373 C1359 0.958 . S
H1374 C1359 0.961 . S
H1375 C1359 0.960 . S
C1376 C1377 1.391 . S
C1376 C1378 1.394 . S
C1376 H1392 0.931 . S
C1377 C1376 1.391 . S
C1377 C1381 1.376 . S
C1378 C1376 1.394 . S
C1378 C1379 1.369 . S
C1378 C1382 1.531 . S
C1379 C1378 1.369 . S
C1379 C1380 1.410 . S
C1379 C1387 1.503 . S
C1380 C1379 1.410 . S
C1380 C1381 1.392 . S
C1380 C1383 1.511 . S
C1381 C1377 1.376 . S
C1381 C1380 1.392 . S
C1381 H1393 0.929 . S
C1382 C1378 1.531 . S
C1382 H1394 0.960 . S
C1382 H1395 0.962 . S
C1382 H1396 0.960 . S
C1383 C1380 1.511 . S
C1383 H1397 0.961 . S
C1383 H1398 0.961 . S
C1383 H1399 0.961 . S
C1384 C1385 1.370 . S
C1384 C1386 1.363 . S
C1384 H1400 0.931 . S
C1385 C1384 1.370 . S
C1385 C1389 1.408 . S
C1386 C1384 1.363 . S
C1386 C1387 1.370 . S
C1386 C1390 1.524 . S
C1387 C1379 1.503 . S
C1387 C1386 1.370 . S
C1387 C1388 1.403 . S
C1388 C1387 1.403 . S
C1388 C1389 1.404 . S
C1388 C1391 1.539 . S
C1389 C1385 1.408 . S
C1389 C1388 1.404 . S
C1389 H1401 0.930 . S
C1390 C1386 1.524 . S
C1390 H1402 0.956 . S
C1390 H1403 0.961 . S
C1390 H1404 0.961 . S
C1391 C1388 1.539 . S
C1391 H1405 0.958 . S
C1391 H1406 0.961 . S
C1391 H1407 0.960 . S
H1392 C1376 0.931 . S
H1393 C1381 0.929 . S
H1394 C1382 0.960 . S
H1395 C1382 0.962 . S
H1396 C1382 0.960 . S
H1397 C1383 0.961 . S
H1398 C1383 0.961 . S
H1399 C1383 0.961 . S
H1400 C1384 0.931 . S
H1401 C1389 0.930 . S
H1402 C1390 0.956 . S
H1403 C1390 0.961 . S
H1404 C1390 0.961 . S
H1405 C1391 0.958 . S
H1406 C1391 0.961 . S
H1407 C1391 0.960 . S
C1408 C1409 1.391 . S
C1408 C1410 1.394 . S
C1408 H1424 0.931 . S
C1409 C1408 1.391 . S
C1409 C1413 1.376 . S
C1410 C1408 1.394 . S
C1410 C1411 1.369 . S
C1410 C1414 1.531 1_455 S
C1411 C1410 1.369 . S
C1411 C1412 1.410 . S
C1411 C1419 1.503 1_455 S
C1412 C1411 1.410 . S
C1412 C1413 1.392 . S
C1412 C1415 1.511 . S
C1413 C1409 1.376 . S
C1413 C1412 1.392 . S
C1413 H1425 0.929 . S
C1414 C1410 1.531 1_655 S
C1414 H1426 0.960 . S
C1414 H1427 0.962 . S
C1414 H1428 0.960 1_655 S
C1415 C1412 1.511 . S
C1415 H1429 0.961 . S
C1415 H1430 0.961 . S
C1415 H1431 0.961 . S
C1416 C1417 1.370 . S
C1416 C1418 1.363 . S
C1416 H1432 0.931 . S
C1417 C1416 1.370 . S
C1417 C1421 1.408 . S
C1418 C1416 1.363 . S
C1418 C1419 1.370 . S
C1418 C1422 1.524 . S
C1419 C1411 1.503 1_655 S
C1419 C1418 1.370 . S
C1419 C1420 1.403 . S
C1420 C1419 1.403 . S
C1420 C1421 1.404 . S
C1420 C1423 1.539 1_655 S
C1421 C1417 1.408 . S
C1421 C1420 1.404 . S
C1421 H1433 0.930 . S
C1422 C1418 1.524 . S
C1422 H1434 0.956 . S
C1422 H1435 0.961 . S
C1422 H1436 0.961 . S
C1423 C1420 1.539 1_455 S
C1423 H1437 0.958 . S
C1423 H1438 0.961 . S
C1423 H1439 0.960 . S
H1424 C1408 0.931 . S
H1425 C1413 0.929 . S
H1426 C1414 0.960 . S
H1427 C1414 0.962 . S
H1428 C1414 0.960 1_455 S
H1429 C1415 0.961 . S
H1430 C1415 0.961 . S
H1431 C1415 0.961 . S
H1432 C1416 0.931 . S
H1433 C1421 0.930 . S
H1434 C1422 0.956 . S
H1435 C1422 0.961 . S
H1436 C1422 0.961 . S
H1437 C1423 0.958 . S
H1438 C1423 0.961 . S
H1439 C1423 0.960 . S
C1440 C1441 1.391 . S
C1440 C1442 1.394 . S
C1440 H1456 0.931 . S
C1441 C1440 1.391 . S
C1441 C1445 1.376 . S
C1442 C1440 1.394 . S
C1442 C1443 1.369 . S
C1442 C1446 1.531 . S
C1443 C1442 1.369 . S
C1443 C1444 1.410 . S
C1443 C1451 1.503 . S
C1444 C1443 1.410 . S
C1444 C1445 1.392 . S
C1444 C1447 1.511 . S
C1445 C1441 1.376 . S
C1445 C1444 1.392 . S
C1445 H1457 0.929 . S
C1446 C1442 1.531 . S
C1446 H1458 0.960 . S
C1446 H1459 0.962 . S
C1446 H1460 0.960 . S
C1447 C1444 1.511 . S
C1447 H1461 0.961 . S
C1447 H1462 0.961 . S
C1447 H1463 0.961 . S
C1448 C1449 1.370 . S
C1448 C1450 1.363 . S
C1448 H1464 0.931 . S
C1449 C1448 1.370 . S
C1449 C1453 1.408 . S
C1450 C1448 1.363 . S
C1450 C1451 1.370 . S
C1450 C1454 1.524 . S
C1451 C1443 1.503 . S
C1451 C1450 1.370 . S
C1451 C1452 1.403 . S
C1452 C1451 1.403 . S
C1452 C1453 1.404 . S
C1452 C1455 1.539 . S
C1453 C1449 1.408 . S
C1453 C1452 1.404 . S
C1453 H1465 0.930 . S
C1454 C1450 1.524 . S
C1454 H1466 0.956 . S
C1454 H1467 0.961 . S
C1454 H1468 0.961 . S
C1455 C1452 1.539 . S
C1455 H1469 0.958 . S
C1455 H1470 0.961 . S
C1455 H1471 0.960 . S
H1456 C1440 0.931 . S
H1457 C1445 0.929 . S
H1458 C1446 0.960 . S
H1459 C1446 0.962 . S
H1460 C1446 0.960 . S
H1461 C1447 0.961 . S
H1462 C1447 0.961 . S
H1463 C1447 0.961 . S
H1464 C1448 0.931 . S
H1465 C1453 0.930 . S
H1466 C1454 0.956 . S
H1467 C1454 0.961 . S
H1468 C1454 0.961 . S
H1469 C1455 0.958 . S
H1470 C1455 0.961 . S
H1471 C1455 0.960 . S
C1472 C1473 1.391 . S
C1472 C1474 1.394 . S
C1472 H1488 0.931 . S
C1473 C1472 1.391 . S
C1473 C1477 1.376 . S
C1474 C1472 1.394 . S
C1474 C1475 1.369 . S
C1474 C1478 1.531 . S
C1475 C1474 1.369 . S
C1475 C1476 1.410 . S
C1475 C1483 1.503 . S
C1476 C1475 1.410 . S
C1476 C1477 1.392 . S
C1476 C1479 1.511 . S
C1477 C1473 1.376 . S
C1477 C1476 1.392 . S
C1477 H1489 0.929 . S
C1478 C1474 1.531 . S
C1478 H1490 0.960 . S
C1478 H1491 0.962 . S
C1478 H1492 0.960 . S
C1479 C1476 1.511 . S
C1479 H1493 0.961 . S
C1479 H1494 0.961 . S
C1479 H1495 0.961 . S
C1480 C1481 1.370 . S
C1480 C1482 1.363 . S
C1480 H1496 0.931 . S
C1481 C1480 1.370 . S
C1481 C1485 1.408 . S
C1482 C1480 1.363 . S
C1482 C1483 1.370 . S
C1482 C1486 1.524 . S
C1483 C1475 1.503 . S
C1483 C1482 1.370 . S
C1483 C1484 1.403 . S
C1484 C1483 1.403 . S
C1484 C1485 1.404 . S
C1484 C1487 1.539 . S
C1485 C1481 1.408 . S
C1485 C1484 1.404 . S
C1485 H1497 0.930 . S
C1486 C1482 1.524 . S
C1486 H1498 0.956 . S
C1486 H1499 0.961 . S
C1486 H1500 0.961 . S
C1487 C1484 1.539 . S
C1487 H1501 0.958 . S
C1487 H1502 0.961 . S
C1487 H1503 0.960 . S
H1488 C1472 0.931 . S
H1489 C1477 0.929 . S
H1490 C1478 0.960 . S
H1491 C1478 0.962 . S
H1492 C1478 0.960 . S
H1493 C1479 0.961 . S
H1494 C1479 0.961 . S
H1495 C1479 0.961 . S
H1496 C1480 0.931 . S
H1497 C1485 0.930 . S
H1498 C1486 0.956 . S
H1499 C1486 0.961 . S
H1500 C1486 0.961 . S
H1501 C1487 0.958 . S
H1502 C1487 0.961 . S
H1503 C1487 0.960 . S
C1504 C1505 1.391 . S
C1504 C1506 1.394 . S
C1504 H1520 0.931 . S
C1505 C1504 1.391 . S
C1505 C1509 1.376 . S
C1506 C1504 1.394 . S
C1506 C1507 1.369 . S
C1506 C1510 1.531 . S
C1507 C1506 1.369 . S
C1507 C1508 1.410 . S
C1507 C1515 1.503 . S
C1508 C1507 1.410 . S
C1508 C1509 1.392 . S
C1508 C1511 1.511 . S
C1509 C1505 1.376 . S
C1509 C1508 1.392 . S
C1509 H1521 0.929 . S
C1510 C1506 1.531 . S
C1510 H1522 0.960 . S
C1510 H1523 0.962 . S
C1510 H1524 0.960 . S
C1511 C1508 1.511 . S
C1511 H1525 0.961 . S
C1511 H1526 0.961 . S
C1511 H1527 0.961 . S
C1512 C1513 1.370 . S
C1512 C1514 1.363 . S
C1512 H1528 0.931 . S
C1513 C1512 1.370 . S
C1513 C1517 1.408 . S
C1514 C1512 1.363 . S
C1514 C1515 1.370 . S
C1514 C1518 1.524 . S
C1515 C1507 1.503 . S
C1515 C1514 1.370 . S
C1515 C1516 1.403 . S
C1516 C1515 1.403 . S
C1516 C1517 1.404 . S
C1516 C1519 1.539 . S
C1517 C1513 1.408 . S
C1517 C1516 1.404 . S
C1517 H1529 0.930 . S
C1518 C1514 1.524 . S
C1518 H1530 0.956 . S
C1518 H1531 0.961 . S
C1518 H1532 0.961 . S
C1519 C1516 1.539 . S
C1519 H1533 0.958 . S
C1519 H1534 0.961 . S
C1519 H1535 0.960 . S
H1520 C1504 0.931 . S
H1521 C1509 0.929 . S
H1522 C1510 0.960 . S
H1523 C1510 0.962 . S
H1524 C1510 0.960 . S
H1525 C1511 0.961 . S
H1526 C1511 0.961 . S
H1527 C1511 0.961 . S
H1528 C1512 0.931 . S
H1529 C1517 0.930 . S
H1530 C1518 0.956 . S
H1531 C1518 0.961 . S
H1532 C1518 0.961 . S
H1533 C1519 0.958 . S
H1534 C1519 0.961 . S
H1535 C1519 0.960 . S
C1536 C1537 1.391 . S
C1536 C1538 1.394 . S
C1536 H1552 0.931 . S
C1537 C1536 1.391 . S
C1537 C1541 1.376 . S
C1538 C1536 1.394 . S
C1538 C1539 1.369 . S
C1538 C1542 1.531 . S
C1539 C1538 1.369 . S
C1539 C1540 1.410 . S
C1539 C1547 1.503 . S
C1540 C1539 1.410 . S
C1540 C1541 1.392 . S
C1540 C1543 1.511 . S
C1541 C1537 1.376 . S
C1541 C1540 1.392 . S
C1541 H1553 0.929 . S
C1542 C1538 1.531 . S
C1542 H1554 0.960 . S
C1542 H1555 0.962 . S
C1542 H1556 0.960 . S
C1543 C1540 1.511 . S
C1543 H1557 0.961 . S
C1543 H1558 0.961 . S
C1543 H1559 0.961 . S
C1544 C1545 1.370 . S
C1544 C1546 1.363 . S
C1544 H1560 0.931 . S
C1545 C1544 1.370 . S
C1545 C1549 1.408 . S
C1546 C1544 1.363 . S
C1546 C1547 1.370 . S
C1546 C1550 1.524 . S
C1547 C1539 1.503 . S
C1547 C1546 1.370 . S
C1547 C1548 1.403 . S
C1548 C1547 1.403 . S
C1548 C1549 1.404 . S
C1548 C1551 1.539 . S
C1549 C1545 1.408 . S
C1549 C1548 1.404 . S
C1549 H1561 0.930 . S
C1550 C1546 1.524 . S
C1550 H1562 0.956 . S
C1550 H1563 0.961 . S
C1550 H1564 0.961 . S
C1551 C1548 1.539 . S
C1551 H1565 0.958 . S
C1551 H1566 0.961 . S
C1551 H1567 0.960 . S
H1552 C1536 0.931 . S
H1553 C1541 0.929 . S
H1554 C1542 0.960 . S
H1555 C1542 0.962 . S
H1556 C1542 0.960 . S
H1557 C1543 0.961 . S
H1558 C1543 0.961 . S
H1559 C1543 0.961 . S
H1560 C1544 0.931 . S
H1561 C1549 0.930 . S
H1562 C1550 0.956 . S
H1563 C1550 0.961 . S
H1564 C1550 0.961 . S
H1565 C1551 0.958 . S
H1566 C1551 0.961 . S
H1567 C1551 0.960 . S
C1568 C1569 1.391 . S
C1568 C1570 1.394 . S
C1568 H1584 0.931 . S
C1569 C1568 1.391 . S
C1569 C1573 1.376 . S
C1570 C1568 1.394 . S
C1570 C1571 1.369 . S
C1570 C1574 1.531 . S
C1571 C1570 1.369 . S
C1571 C1572 1.410 . S
C1571 C1579 1.503 . S
C1572 C1571 1.410 . S
C1572 C1573 1.392 . S
C1572 C1575 1.511 . S
C1573 C1569 1.376 . S
C1573 C1572 1.392 . S
C1573 H1585 0.929 . S
C1574 C1570 1.531 . S
C1574 H1586 0.960 . S
C1574 H1587 0.962 . S
C1574 H1588 0.960 . S
C1575 C1572 1.511 . S
C1575 H1589 0.961 . S
C1575 H1590 0.961 . S
C1575 H1591 0.961 . S
C1576 C1577 1.370 . S
C1576 C1578 1.363 . S
C1576 H1592 0.931 . S
C1577 C1576 1.370 . S
C1577 C1581 1.408 . S
C1578 C1576 1.363 . S
C1578 C1579 1.370 . S
C1578 C1582 1.524 . S
C1579 C1571 1.503 . S
C1579 C1578 1.370 . S
C1579 C1580 1.403 . S
C1580 C1579 1.403 . S
C1580 C1581 1.404 . S
C1580 C1583 1.539 . S
C1581 C1577 1.408 . S
C1581 C1580 1.404 . S
C1581 H1593 0.930 . S
C1582 C1578 1.524 . S
C1582 H1594 0.956 . S
C1582 H1595 0.961 . S
C1582 H1596 0.961 . S
C1583 C1580 1.539 . S
C1583 H1597 0.958 . S
C1583 H1598 0.961 . S
C1583 H1599 0.960 . S
H1584 C1568 0.931 . S
H1585 C1573 0.929 . S
H1586 C1574 0.960 . S
H1587 C1574 0.962 . S
H1588 C1574 0.960 . S
H1589 C1575 0.961 . S
H1590 C1575 0.961 . S
H1591 C1575 0.961 . S
H1592 C1576 0.931 . S
H1593 C1581 0.930 . S
H1594 C1582 0.956 . S
H1595 C1582 0.961 . S
H1596 C1582 0.961 . S
H1597 C1583 0.958 . S
H1598 C1583 0.961 . S
H1599 C1583 0.960 . S
C1600 C1601 1.391 . S
C1600 C1602 1.394 . S
C1600 H1616 0.931 . S
C1601 C1600 1.391 . S
C1601 C1605 1.376 . S
C1602 C1600 1.394 . S
C1602 C1603 1.369 . S
C1602 C1606 1.531 . S
C1603 C1602 1.369 . S
C1603 C1604 1.410 . S
C1603 C1611 1.503 . S
C1604 C1603 1.410 . S
C1604 C1605 1.392 . S
C1604 C1607 1.511 . S
C1605 C1601 1.376 . S
C1605 C1604 1.392 . S
C1605 H1617 0.929 . S
C1606 C1602 1.531 . S
C1606 H1618 0.960 . S
C1606 H1619 0.962 . S
C1606 H1620 0.960 . S
C1607 C1604 1.511 . S
C1607 H1621 0.961 . S
C1607 H1622 0.961 . S
C1607 H1623 0.961 . S
C1608 C1609 1.370 . S
C1608 C1610 1.363 . S
C1608 H1624 0.931 . S
C1609 C1608 1.370 . S
C1609 C1613 1.408 . S
C1610 C1608 1.363 . S
C1610 C1611 1.370 . S
C1610 C1614 1.524 . S
C1611 C1603 1.503 . S
C1611 C1610 1.370 . S
C1611 C1612 1.403 . S
C1612 C1611 1.403 . S
C1612 C1613 1.404 . S
C1612 C1615 1.539 . S
C1613 C1609 1.408 . S
C1613 C1612 1.404 . S
C1613 H1625 0.930 . S
C1614 C1610 1.524 . S
C1614 H1626 0.956 . S
C1614 H1627 0.961 . S
C1614 H1628 0.961 . S
C1615 C1612 1.539 . S
C1615 H1629 0.958 . S
C1615 H1630 0.961 . S
C1615 H1631 0.960 . S
H1616 C1600 0.931 . S
H1617 C1605 0.929 . S
H1618 C1606 0.960 . S
H1619 C1606 0.962 . S
H1620 C1606 0.960 . S
H1621 C1607 0.961 . S
H1622 C1607 0.961 . S
H1623 C1607 0.961 . S
H1624 C1608 0.931 . S
H1625 C1613 0.930 . S
H1626 C1614 0.956 . S
H1627 C1614 0.961 . S
H1628 C1614 0.961 . S
H1629 C1615 0.958 . S
H1630 C1615 0.961 . S
H1631 C1615 0.960 . S
C481 C9 1.057 . S
C489 C329 1.060 . S
C513 C49 1.073 . S
C521 C369 1.059 . S
C545 C89 1.069 . S
C553 C409 1.058 . S
C577 C449 1.059 . S
C585 C129 1.059 . S
C609 C169 1.106 . S
C617 C249 1.081 . S
C641 C289 1.034 . S
C649 C209 1.072 . S
C673 C415 1.559 . S
C681 C15 1.555 . S
C705 C455 1.546 . S
C713 C55 1.568 . S
C737 C95 1.546 . S
C745 C255 1.567 . S
C769 C295 1.598 . S
C777 C135 1.565 . S
C801 C335 1.555 . S
C809 C175 1.557 . S
C833 C215 1.586 . S
C841 C375 1.551 . S
C865 C299 4.275 . S
C873 C19 4.287 . S
C897 C339 4.266 . S
C905 C59 4.285 . S
C929 C379 4.279 . S
C937 C99 4.287 . S
C961 C139 4.276 . S
C969 C419 4.278 . S
C993 C179 4.286 . S
C1001 C459 4.284 . S
C1025 C219 4.287 . S
C1033 C259 4.282 . S
C1057 C18 0.520 . S
C1065 C138 0.511 . S
C1089 C58 0.621 . S
C1097 C178 0.491 . S
C1121 C98 0.493 . S
C1129 C218 0.521 . S
C1153 C378 0.619 . S
C1161 C258 0.546 . S
C1185 C298 0.648 . S
C1193 C418 0.512 . S
C1217 C458 0.618 . S
C1225 C338 0.491 . S
C1249 C286 0.709 . S
C1257 C6 0.777 . S
C1281 C326 0.823 . S
C1289 C46 0.752 . S
C1313 C86 0.705 . S
C1321 C366 0.777 . S
C1345 C406 0.833 . S
C1353 C126 0.738 . S
C1377 C446 0.834 . S
C1385 C166 0.734 . S
C1409 C206 0.794 . S
C1417 C246 0.712 . S
C1441 C10 4.795 . S
C1449 C410 4.801 . S
C1473 C50 4.796 . S
C1481 C450 4.801 1_556 S
C1505 C90 4.795 1_554 S
C1513 C250 4.800 . S
C1537 C130 4.796 . S
C1545 C290 4.801 . S
C1569 C170 4.796 . S
C1577 C330 4.801 1_556 S
C1601 C370 4.794 . S
C1609 C210 4.800 1_554 S
