# Generated by pormake.
# Topology umx, (4)-cn, num edge types: 1
# Building blocks:
#     Node 0, Type 0, BuildingBlock: MUDLON_clean_sbu_0, # of connection points: 4
#     Node 1, Type 0, BuildingBlock: MUDLON_clean_sbu_0, # of connection points: 4
#     Node 2, Type 0, BuildingBlock: MUDLON_clean_sbu_0, # of connection points: 4
#     Node 3, Type 0, BuildingBlock: MUDLON_clean_sbu_0, # of connection points: 4
#     Node 4, Type 0, BuildingBlock: MUDLON_clean_sbu_0, # of connection points: 4
#     Node 5, Type 0, BuildingBlock: MUDLON_clean_sbu_0, # of connection points: 4
#     Node 6, Type 0, BuildingBlock: MUDLON_clean_sbu_0, # of connection points: 4
#     Node 7, Type 0, BuildingBlock: MUDLON_clean_sbu_0, # of connection points: 4
#     Edge 8, Type (0, 0), BuildingBlock: CIFDUS_clean_linker_0, # of connection points: 2
#     Edge 9, Type (0, 0), BuildingBlock: CIFDUS_clean_linker_0, # of connection points: 2
#     Edge 10, Type (0, 0), BuildingBlock: CIFDUS_clean_linker_0, # of connection points: 2
#     Edge 11, Type (0, 0), BuildingBlock: CIFDUS_clean_linker_0, # of connection points: 2
#     Edge 12, Type (0, 0), BuildingBlock: CIFDUS_clean_linker_0, # of connection points: 2
#     Edge 13, Type (0, 0), BuildingBlock: CIFDUS_clean_linker_0, # of connection points: 2
#     Edge 14, Type (0, 0), BuildingBlock: CIFDUS_clean_linker_0, # of connection points: 2
#     Edge 15, Type (0, 0), BuildingBlock: CIFDUS_clean_linker_0, # of connection points: 2
#     Edge 16, Type (0, 0), BuildingBlock: CIFDUS_clean_linker_0, # of connection points: 2
#     Edge 17, Type (0, 0), BuildingBlock: CIFDUS_clean_linker_0, # of connection points: 2
#     Edge 18, Type (0, 0), BuildingBlock: CIFDUS_clean_linker_0, # of connection points: 2
#     Edge 19, Type (0, 0), BuildingBlock: CIFDUS_clean_linker_0, # of connection points: 2
#     Edge 20, Type (0, 0), BuildingBlock: CIFDUS_clean_linker_0, # of connection points: 2
#     Edge 21, Type (0, 0), BuildingBlock: CIFDUS_clean_linker_0, # of connection points: 2
#     Edge 22, Type (0, 0), BuildingBlock: CIFDUS_clean_linker_0, # of connection points: 2
#     Edge 23, Type (0, 0), BuildingBlock: CIFDUS_clean_linker_0, # of connection points: 2
# Relax obj value: 0.023
# Max RMSD: 0.223
# Mean RMSD: 0.222
data_MOF--net-umx--node1-MUDLON_clean_sbu_0--edge1-CIFDUS_clean_linker_0
_symmetry_space_group_name_H-M    P1
_symmetry_Int_Tables_number       1
_symmetry_cell_setting            triclinic
loop_
_symmetry_equiv_pos_as_xyz
'x, y, z'
_cell_length_a     35.77957
_cell_length_b     35.748871
_cell_length_c     26.362385
_cell_angle_alpha  90.192285
_cell_angle_beta   90.007194
_cell_angle_gamma 89.679738
loop_
_atom_site_label
_atom_site_type_symbol
_atom_site_fract_x
_atom_site_fract_y
_atom_site_fract_z
_atom_type_partial_charge
Mg0 Mg 0.17602 0.46093 0.03718 0.0
C1 C 0.09762 0.48576 0.03879 0.0
O2 O 0.11622 0.51729 0.04181 0.0
C3 C 0.24157 0.41336 0.03025 0.0
O4 O 0.25417 0.44782 0.03167 0.0
C5 C 0.18954 0.46195 0.14752 0.0
O6 O 0.18243 0.42669 0.13738 0.0
O7 O 0.18987 0.48518 0.11096 0.0
O8 O 0.11586 0.45517 0.0361 0.0
O9 O 0.19037 0.49343 0.96999 0.0
C10 C 0.19216 0.47507 0.92852 0.0
O11 O 0.1869 0.43874 0.92973 0.0
O12 O 0.20646 0.4084 0.03183 0.0
Mg13 Mg 0.54676 0.17875 0.51988 0.0
C14 C 0.53445 0.21025 0.41641 0.0
O15 O 0.57106 0.21161 0.41909 0.0
C16 C 0.53417 0.18729 0.6301 0.0
O17 O 0.5594 0.16044 0.6288 0.0
C18 C 0.62216 0.2142 0.54499 0.0
O19 O 0.60657 0.21916 0.58959 0.0
O20 O 0.60447 0.19648 0.5108 0.0
O21 O 0.51616 0.19841 0.45438 0.0
O22 O 0.53968 0.11869 0.52276 0.0
C23 C 0.50626 0.10715 0.52708 0.0
O24 O 0.47898 0.13187 0.52936 0.0
O25 O 0.52289 0.20143 0.58868 0.0
Mg26 Mg 0.79866 0.53908 0.04718 0.0
C27 C 0.87701 0.52128 0.04368 0.0
O28 O 0.85917 0.48929 0.04111 0.0
C29 C 0.76616 0.62158 0.04779 0.0
O30 O 0.80044 0.63454 0.0484 0.0
C31 C 0.77327 0.52666 0.15533 0.0
O32 O 0.75868 0.55966 0.14568 0.0
O33 O 0.78991 0.50911 0.11949 0.0
O34 O 0.85786 0.5513 0.04689 0.0
O35 O 0.78948 0.51219 0.9728 0.0
C36 C 0.78901 0.53568 0.93637 0.0
O37 O 0.79253 0.57135 0.94747 0.0
O38 O 0.76063 0.5865 0.04737 0.0
Mg39 Mg 0.4652 0.81033 0.5442 0.0
C40 C 0.47609 0.78932 0.4372 0.0
O41 O 0.4396 0.79315 0.44009 0.0
C42 C 0.47676 0.79454 0.65265 0.0
O43 O 0.44024 0.79796 0.64989 0.0
C44 C 0.42172 0.74378 0.55011 0.0
O45 O 0.45711 0.73385 0.55256 0.0
O46 O 0.41389 0.77837 0.54597 0.0
O47 O 0.49542 0.79341 0.47721 0.0
O48 O 0.4629 0.87088 0.54084 0.0
C49 C 0.49587 0.88395 0.53837 0.0
O50 O 0.52412 0.86028 0.53834 0.0
O51 O 0.4959 0.79734 0.61229 0.0
Mg52 Mg 0.18187 0.55953 0.5324 0.0
C53 C 0.19592 0.55811 0.42189 0.0
O54 O 0.1911 0.59382 0.43202 0.0
C55 C 0.1958 0.54537 0.64119 0.0
O56 O 0.18826 0.58136 0.63967 0.0
C57 C 0.2471 0.60591 0.54196 0.0
O58 O 0.25915 0.57112 0.54335 0.0
O59 O 0.21219 0.61171 0.5375 0.0
O60 O 0.19484 0.5349 0.45844 0.0
O61 O 0.12167 0.56439 0.53512 0.0
C62 C 0.10602 0.53256 0.53655 0.0
O63 O 0.12727 0.50245 0.5361 0.0
O64 O 0.19661 0.52708 0.59961 0.0
Mg65 Mg 0.45684 0.20322 0.02379 0.0
C66 C 0.4664 0.22282 0.13088 0.0
O67 O 0.4305 0.21561 0.1276 0.0
C68 C 0.47105 0.22107 0.91507 0.0
O69 O 0.43454 0.22499 0.91657 0.0
C70 C 0.41398 0.27054 1.02034 0.0
O71 O 0.44954 0.27956 1.02011 0.0
O72 O 0.40559 0.23601 1.0213 0.0
O73 O 0.48615 0.22115 0.0909 0.0
O74 O 0.45591 0.14267 0.02928 0.0
C75 C 0.48945 0.13052 0.03013 0.0
O76 O 0.51671 0.15497 0.02794 0.0
O77 O 0.48856 0.21392 0.95584 0.0
Mg78 Mg 0.81522 0.44346 0.54671 0.0
C79 C 0.89043 0.47662 0.54601 0.0
O80 O 0.86855 0.50622 0.54403 0.0
C81 C 0.77861 0.36811 0.51876 0.0
O82 O 0.7774 0.38182 0.47265 0.0
C83 C 0.819 0.45152 0.43559 0.0
O84 O 0.84544 0.4275 0.44772 0.0
O85 O 0.79926 0.46551 0.4714 0.0
O86 O 0.87563 0.44441 0.54785 0.0
O87 O 0.79873 0.46977 0.61926 0.0
C88 C 0.80636 0.44818 0.65644 0.0
O89 O 0.8218 0.41556 0.64634 0.0
O90 O 0.79399 0.38691 0.55394 0.0
Mg91 Mg 0.55066 0.8368 0.04598 0.0
C92 C 0.54253 0.81046 0.15214 0.0
O93 O 0.57864 0.81679 0.15022 0.0
C94 C 0.54297 0.81283 0.93877 0.0
O95 O 0.57876 0.82069 0.94092 0.0
C96 C 0.60623 0.77853 0.04497 0.0
O97 O 0.57342 0.76216 0.04394 0.0
O98 O 0.60712 0.81407 0.04596 0.0
O99 O 0.52288 0.81609 0.11275 0.0
O100 O 0.54394 0.89706 0.04571 0.0
C101 C 0.51002 0.90799 0.047 0.0
O102 O 0.48356 0.88269 0.04901 0.0
O103 O 0.52328 0.81641 0.97858 0.0
H104 H 0.19804 0.5331 0.18435 0.0
H105 H 0.19198 0.41777 0.23148 0.0
H106 H 0.19552 0.43686 0.32012 0.0
H107 H 0.19695 0.48647 0.38496 0.0
H108 H 0.2023 0.60185 0.33791 0.0
H109 H 0.20268 0.58254 0.24918 0.0
C110 C 0.19779 0.51213 0.21397 0.0
C111 C 0.1945 0.47408 0.20105 0.0
C112 C 0.19958 0.52329 0.26521 0.0
C113 C 0.19428 0.44731 0.24011 0.0
C114 C 0.19629 0.45817 0.29099 0.0
C115 C 0.19855 0.50737 0.35533 0.0
C116 C 0.19936 0.54556 0.36829 0.0
C117 C 0.19844 0.49612 0.30408 0.0
C118 C 0.20143 0.57224 0.32923 0.0
C119 C 0.20162 0.56125 0.27831 0.0
H120 H 0.5663 0.18031 0.72237 0.0
H121 H 0.46824 0.22392 0.6473 0.0
H122 H 0.44112 0.24118 0.72932 0.0
H123 H 0.44351 0.23956 0.82244 0.0
H124 H 0.54228 0.19681 0.89704 0.0
H125 H 0.57115 0.1841 0.81497 0.0
C126 C 0.53906 0.19374 0.72399 0.0
C127 C 0.51904 0.20037 0.67906 0.0
C128 C 0.52382 0.20379 0.7711 0.0
C129 C 0.4841 0.21841 0.68151 0.0
C130 C 0.46857 0.22821 0.72834 0.0
C131 C 0.47152 0.22786 0.82074 0.0
C132 C 0.49051 0.21874 0.86576 0.0
C133 C 0.48792 0.22043 0.77341 0.0
C134 C 0.52697 0.204 0.86296 0.0
C135 C 0.54346 0.19652 0.81603 0.0
H136 H 0.7684 0.5009 0.3932 0.0
H137 H 0.85536 0.42165 0.35434 0.0
H138 H 0.8472 0.43544 0.26482 0.0
H139 H 0.8174 0.47177 0.19672 0.0
H140 H 0.73143 0.55212 0.23482 0.0
H141 H 0.73695 0.5359 0.32435 0.0
C142 C 0.78547 0.48659 0.36515 0.0
C143 C 0.81258 0.4604 0.38098 0.0
C144 C 0.7808 0.49477 0.31308 0.0
C145 C 0.83436 0.44211 0.34375 0.0
C146 C 0.82971 0.4499 0.29222 0.0
C147 C 0.79949 0.48535 0.22449 0.0
C148 C 0.77404 0.51312 0.20876 0.0
C149 C 0.80323 0.47636 0.27634 0.0
C150 C 0.75135 0.53066 0.24561 0.0
C151 C 0.75454 0.52148 0.29703 0.0
H152 H 0.57732 0.80377 0.84778 0.0
H153 H 0.46895 0.80068 0.91973 0.0
H154 H 0.4392 0.79144 0.83739 0.0
H155 H 0.44354 0.78942 0.74475 0.0
H156 H 0.55175 0.79398 0.67257 0.0
H157 H 0.582 0.79707 0.75546 0.0
C158 C 0.54721 0.80076 0.84555 0.0
C159 C 0.52536 0.80336 0.88976 0.0
C160 C 0.53025 0.79587 0.79808 0.0
C161 C 0.48642 0.79904 0.88624 0.0
C162 C 0.46936 0.79382 0.83916 0.0
C163 C 0.47377 0.79073 0.7471 0.0
C164 C 0.49532 0.79191 0.70255 0.0
C165 C 0.49094 0.793 0.79478 0.0
C166 C 0.53448 0.79326 0.70629 0.0
C167 C 0.55181 0.79513 0.75367 0.0
H168 H 0.78943 0.51742 0.69694 0.0
H169 H 0.80863 0.40217 0.73814 0.0
H170 H 0.80291 0.41808 0.82757 0.0
H171 H 0.79583 0.46519 0.89535 0.0
H172 H 0.77791 0.5807 0.8546 0.0
H173 H 0.77951 0.56421 0.76491 0.0
C174 C 0.79198 0.49577 0.72546 0.0
C175 C 0.79968 0.4587 0.71048 0.0
C176 C 0.78906 0.50515 0.77745 0.0
C177 C 0.80301 0.43105 0.74824 0.0
C178 C 0.79971 0.44007 0.79967 0.0
C179 C 0.79188 0.48668 0.86688 0.0
C180 C 0.78693 0.52414 0.88205 0.0
C181 C 0.79326 0.47711 0.81489 0.0
C182 C 0.78201 0.5516 0.84433 0.0
C183 C 0.78292 0.54224 0.79278 0.0
H184 H 0.57669 0.79793 0.24243 0.0
H185 H 0.46818 0.80005 0.17068 0.0
H186 H 0.43824 0.78971 0.25256 0.0
H187 H 0.4426 0.78582 0.34505 0.0
H188 H 0.55099 0.78568 0.41715 0.0
H189 H 0.58125 0.789 0.33433 0.0
C190 C 0.5465 0.7958 0.24458 0.0
C191 C 0.52469 0.80025 0.20062 0.0
C192 C 0.52944 0.79033 0.29182 0.0
C193 C 0.48563 0.79703 0.20401 0.0
C194 C 0.46846 0.79116 0.25083 0.0
C195 C 0.47287 0.78605 0.34269 0.0
C196 C 0.49448 0.78596 0.38724 0.0
C197 C 0.49006 0.78864 0.29508 0.0
C198 C 0.53367 0.78598 0.38345 0.0
C199 C 0.55101 0.788 0.33612 0.0
H200 H 0.19995 0.44263 0.8356 0.0
H201 H 0.19522 0.55038 0.90986 0.0
H202 H 0.1981 0.58145 0.82749 0.0
H203 H 0.19829 0.57797 0.73444 0.0
H204 H 0.20239 0.47024 0.6601 0.0
H205 H 0.20369 0.43923 0.74263 0.0
C206 C 0.19978 0.47294 0.83391 0.0
C207 C 0.19707 0.49412 0.87899 0.0
C208 C 0.20121 0.49061 0.78638 0.0
C209 C 0.19718 0.53335 0.87589 0.0
C210 C 0.19875 0.55115 0.82875 0.0
C211 C 0.19972 0.54769 0.73617 0.0
C212 C 0.19997 0.52647 0.69098 0.0
C213 C 0.20019 0.53005 0.78375 0.0
C214 C 0.2021 0.48728 0.69414 0.0
C215 C 0.20274 0.46952 0.74137 0.0
H216 H 0.56657 0.22785 0.32651 0.0
H217 H 0.45933 0.2102 0.39741 0.0
H218 H 0.42844 0.21626 0.31525 0.0
H219 H 0.43252 0.22094 0.2228 0.0
H220 H 0.54004 0.236 0.15155 0.0
H221 H 0.57016 0.23693 0.23464 0.0
C222 C 0.53639 0.22574 0.32416 0.0
C223 C 0.51533 0.21819 0.36795 0.0
C224 C 0.51889 0.22857 0.27675 0.0
C225 C 0.47623 0.21572 0.36422 0.0
C226 C 0.45855 0.21913 0.31725 0.0
C227 C 0.4625 0.22485 0.2254 0.0
C228 C 0.48405 0.22801 0.18103 0.0
C229 C 0.4797 0.22467 0.27316 0.0
C230 C 0.52283 0.23327 0.18512 0.0
C231 C 0.54009 0.23373 0.2326 0.0
H232 H 0.92327 0.46128 0.03717 0.0
H233 H 0.92379 0.58177 0.04875 0.0
H234 H 0.9922 0.58128 0.04806 0.0
H235 H 0.05165 0.5465 0.04448 0.0
H236 H 0.05053 0.42597 0.03302 0.0
H237 H 0.98231 0.42669 0.03335 0.0
C238 C 0.93825 0.48752 0.03953 0.0
C239 C 0.91839 0.52154 0.04304 0.0
C240 C 0.97743 0.487 0.03915 0.0
C241 C 0.93836 0.5552 0.04604 0.0
C242 C 0.97747 0.55493 0.04565 0.0
C243 C 0.03652 0.52036 0.04203 0.0
C244 C 0.05624 0.4862 0.03876 0.0
C245 C 0.99727 0.52097 0.04227 0.0
C246 C 0.03612 0.45263 0.0356 0.0
C247 C 0.9971 0.45302 0.03578 0.0
H248 H 0.44524 0.94168 0.53991 0.0
H249 H 0.56347 0.91765 0.53056 0.0
H250 H 0.57703 0.98412 0.52617 0.0
H251 H 0.55578 0.04921 0.52511 0.0
H252 H 0.4378 0.07408 0.53468 0.0
H253 H 0.42385 0.00739 0.53884 0.0
C254 C 0.47393 0.95101 0.53688 0.0
C255 C 0.50321 0.92462 0.53558 0.0
C256 C 0.48169 0.98952 0.53442 0.0
C257 C 0.54029 0.93725 0.53168 0.0
C258 C 0.54816 0.97533 0.52915 0.0
C259 C 0.527 0.04009 0.52808 0.0
C260 C 0.49794 0.06665 0.52955 0.0
C261 C 0.51913 1.00172 0.53051 0.0
C262 C 0.46079 0.05427 0.53347 0.0
C263 C 0.45274 0.01609 0.53585 0.0
H264 H 0.06641 0.46836 0.54164 0.0
H265 H 0.05319 0.5884 0.53602 0.0
H266 H 0.98523 0.58156 0.5388 0.0
H267 H 0.92977 0.54142 0.54233 0.0
H268 H 0.94349 0.42139 0.54791 0.0
H269 H 0.01128 0.42841 0.54568 0.0
C270 C 0.04874 0.49311 0.54103 0.0
C271 C 0.06489 0.52886 0.53856 0.0
C272 C 0.00982 0.48897 0.54264 0.0
C273 C 0.0415 0.56056 0.53789 0.0
C274 C 1.00265 0.55666 0.53947 0.0
C275 C 0.94755 0.51676 0.54311 0.0
C276 C 0.93153 0.48092 0.54526 0.0
C277 C 0.98653 0.52099 0.54178 0.0
C278 C 0.95504 0.44931 0.54627 0.0
C279 C 0.99382 0.45329 0.54497 0.0
H280 H 0.55707 0.96731 0.03983 0.0
H281 H 0.44019 0.9391 0.05008 0.0
H282 H 0.42317 0.0052 0.04583 0.0
H283 H 0.44146 0.07139 0.03861 0.0
H284 H 0.55861 0.09885 0.02842 0.0
H285 H 0.57528 0.03297 0.03317 0.0
C286 C 0.52788 0.97559 0.04122 0.0
C287 C 0.50003 0.94823 0.04524 0.0
C288 C 0.51821 0.01367 0.03868 0.0
C289 C 0.4623 0.95954 0.04696 0.0
C290 C 0.45247 0.99738 0.04451 0.0
C291 C 0.4706 0.06293 0.03743 0.0
C292 C 0.49864 0.09013 0.03315 0.0
C293 C 0.48019 0.02474 0.04024 0.0
C294 C 0.53632 0.07863 0.03174 0.0
C295 C 0.546 0.04086 0.03445 0.0
H296 H 0.31658 0.41739 1.02332 0.0
H297 H 0.22647 0.33792 0.03085 0.0
H298 H 0.2717 0.28617 0.0277 0.0
H299 H 0.33749 0.26377 0.02403 0.0
H300 H 0.4262 0.34513 1.01669 0.0
H301 H 0.38078 0.39571 1.01854 0.0
C302 C 0.30666 0.38879 0.02424 0.0
C303 C 0.2682 0.38157 0.02743 0.0
C304 C 0.33265 0.35941 1.02248 0.0
C305 C 0.25597 0.34426 0.02842 0.0
C306 C 0.28183 0.31467 0.02665 0.0
C307 C 0.34679 0.29256 1.0227 0.0
C308 C 0.38527 0.30052 1.02031 0.0
C309 C 0.32033 0.32192 0.02385 0.0
C310 C 0.39684 0.33803 1.01861 0.0
C311 C 0.37087 0.36712 1.01967 0.0
H312 H 0.74463 0.31957 0.45386 0.0
H313 H 0.76343 0.34095 0.61314 0.0
H314 H 0.71936 0.29197 0.63536 0.0
H315 H 0.67016 0.24837 0.60973 0.0
H316 H 0.65111 0.22682 0.45063 0.0
H317 H 0.70094 0.2701 0.42835 0.0
C318 C 0.7395 0.31315 0.49343 0.0
C319 C 0.75685 0.33436 0.53169 0.0
C320 C 0.71387 0.28506 0.50606 0.0
C321 C 0.75027 0.32531 0.58281 0.0
C322 C 0.72494 0.29735 0.59564 0.0
C323 C 0.67728 0.25271 0.5702 0.0
C324 C 0.65654 0.23485 0.53195 0.0
C325 C 0.70574 0.27787 0.55759 0.0
C326 C 0.66648 0.24036 0.4809 0.0
C327 C 0.69487 0.26527 0.46806 0.0
H328 H 0.76485 0.69855 0.04842 0.0
H329 H 0.69316 0.6016 0.04572 0.0
H330 H 0.63831 0.64163 0.0444 0.0
H331 H 0.61019 0.70333 0.04407 0.0
H332 H 0.67963 0.8016 0.04701 0.0
H333 H 0.73577 0.76184 0.04815 0.0
C334 C 0.73722 0.68625 0.04756 0.0
C335 C 0.73332 0.64703 0.04717 0.0
C336 C 0.70534 0.70959 0.04683 0.0
C337 C 0.69723 0.6316 0.04605 0.0
C338 C 0.66568 0.65448 0.04528 0.0
C339 C 0.63755 0.71625 0.04494 0.0
C340 C 0.64068 0.75539 0.04544 0.0
C341 C 0.6694 0.69339 0.04566 0.0
C342 C 0.67643 0.77149 0.04659 0.0
C343 C 0.70852 0.74877 0.04725 0.0
H344 H 0.34575 0.75248 0.54035 0.0
H345 H 0.43223 0.66939 0.56347 0.0
H346 H 0.3858 0.6202 0.56408 0.0
H347 H 0.32143 0.60016 0.55644 0.0
H348 H 0.23361 0.68147 0.53287 0.0
H349 H 0.27977 0.73192 0.5343 0.0
C350 C 0.35434 0.72362 0.54566 0.0
C351 C 0.39248 0.71472 0.55166 0.0
C352 C 0.32733 0.69511 0.54587 0.0
C353 C 0.40315 0.67716 0.55856 0.0
C354 C 0.3766 0.64889 0.55895 0.0
C355 C 0.31221 0.6289 0.55167 0.0
C356 C 0.27415 0.637 0.54438 0.0
C357 C 0.33874 0.6575 0.55235 0.0
C358 C 0.2628 0.67446 0.53852 0.0
C359 C 0.28918 0.7033 0.53927 0.0
loop_
_geom_bond_atom_site_label_1
_geom_bond_atom_site_label_2
_geom_bond_distance
_geom_bond_site_symmetry_2
_ccdc_geom_bond_type
Mg0 O7 2.141 . S
Mg0 O8 2.048 . S
Mg0 O9 2.048 1_554 S
Mg0 O12 2.141 . S
C1 O2 1.313 . S
C1 O8 1.195 . S
O2 C1 1.313 . S
C3 O4 1.245 . S
C3 O12 1.289 . S
O4 C3 1.245 . S
C5 O6 1.245 . S
C5 O7 1.289 . S
O6 C5 1.245 . S
O7 Mg0 2.141 . S
O7 C5 1.289 . S
O8 Mg0 2.048 . S
O8 C1 1.195 . S
O9 Mg0 2.048 1_556 S
O9 C10 1.195 . S
C10 O9 1.195 . S
C10 O11 1.313 . S
O11 C10 1.313 . S
O12 Mg0 2.141 . S
O12 C3 1.289 . S
Mg13 O20 2.141 . S
Mg13 O21 2.048 . S
Mg13 O22 2.048 . S
Mg13 O25 2.141 . S
C14 O15 1.313 . S
C14 O21 1.195 . S
O15 C14 1.313 . S
C16 O17 1.245 . S
C16 O25 1.289 . S
O17 C16 1.245 . S
C18 O19 1.245 . S
C18 O20 1.289 . S
O19 C18 1.245 . S
O20 Mg13 2.141 . S
O20 C18 1.289 . S
O21 Mg13 2.048 . S
O21 C14 1.195 . S
O22 Mg13 2.048 . S
O22 C23 1.195 . S
C23 O22 1.195 . S
C23 O24 1.313 . S
O24 C23 1.313 . S
O25 Mg13 2.141 . S
O25 C16 1.289 . S
Mg26 O33 2.141 . S
Mg26 O34 2.048 . S
Mg26 O35 2.048 1_554 S
Mg26 O38 2.141 . S
C27 O28 1.313 . S
C27 O34 1.195 . S
O28 C27 1.313 . S
C29 O30 1.245 . S
C29 O38 1.289 . S
O30 C29 1.245 . S
C31 O32 1.245 . S
C31 O33 1.289 . S
O32 C31 1.245 . S
O33 Mg26 2.141 . S
O33 C31 1.289 . S
O34 Mg26 2.048 . S
O34 C27 1.195 . S
O35 Mg26 2.048 1_556 S
O35 C36 1.195 . S
C36 O35 1.195 . S
C36 O37 1.313 . S
O37 C36 1.313 . S
O38 Mg26 2.141 . S
O38 C29 1.289 . S
Mg39 O46 2.141 . S
Mg39 O47 2.048 . S
Mg39 O48 2.048 . S
Mg39 O51 2.141 . S
C40 O41 1.313 . S
C40 O47 1.195 . S
O41 C40 1.313 . S
C42 O43 1.245 . S
C42 O51 1.289 . S
O43 C42 1.245 . S
C44 O45 1.245 . S
C44 O46 1.289 . S
O45 C44 1.245 . S
O46 Mg39 2.141 . S
O46 C44 1.289 . S
O47 Mg39 2.048 . S
O47 C40 1.195 . S
O48 Mg39 2.048 . S
O48 C49 1.195 . S
C49 O48 1.195 . S
C49 O50 1.313 . S
O50 C49 1.313 . S
O51 Mg39 2.141 . S
O51 C42 1.289 . S
Mg52 O59 2.141 . S
Mg52 O60 2.048 . S
Mg52 O61 2.048 . S
Mg52 O64 2.141 . S
C53 O54 1.313 . S
C53 O60 1.195 . S
O54 C53 1.313 . S
C55 O56 1.245 . S
C55 O64 1.289 . S
O56 C55 1.245 . S
C57 O58 1.245 . S
C57 O59 1.289 . S
O58 C57 1.245 . S
O59 Mg52 2.141 . S
O59 C57 1.289 . S
O60 Mg52 2.048 . S
O60 C53 1.195 . S
O61 Mg52 2.048 . S
O61 C62 1.195 . S
C62 O61 1.195 . S
C62 O63 1.313 . S
O63 C62 1.313 . S
O64 Mg52 2.141 . S
O64 C55 1.289 . S
Mg65 O72 2.141 . S
Mg65 O73 2.048 . S
Mg65 O74 2.048 . S
Mg65 O77 2.141 1_554 S
C66 O67 1.313 . S
C66 O73 1.195 . S
O67 C66 1.313 . S
C68 O69 1.245 . S
C68 O77 1.289 . S
O69 C68 1.245 . S
C70 O71 1.245 . S
C70 O72 1.289 . S
O71 C70 1.245 . S
O72 Mg65 2.141 . S
O72 C70 1.289 . S
O73 Mg65 2.048 . S
O73 C66 1.195 . S
O74 Mg65 2.048 . S
O74 C75 1.195 . S
C75 O74 1.195 . S
C75 O76 1.313 . S
O76 C75 1.313 . S
O77 Mg65 2.141 1_556 S
O77 C68 1.289 . S
Mg78 O85 2.141 . S
Mg78 O86 2.048 . S
Mg78 O87 2.048 . S
Mg78 O90 2.141 . S
C79 O80 1.313 . S
C79 O86 1.195 . S
O80 C79 1.313 . S
C81 O82 1.245 . S
C81 O90 1.289 . S
O82 C81 1.245 . S
C83 O84 1.245 . S
C83 O85 1.289 . S
O84 C83 1.245 . S
O85 Mg78 2.141 . S
O85 C83 1.289 . S
O86 Mg78 2.048 . S
O86 C79 1.195 . S
O87 Mg78 2.048 . S
O87 C88 1.195 . S
C88 O87 1.195 . S
C88 O89 1.313 . S
O89 C88 1.313 . S
O90 Mg78 2.141 . S
O90 C81 1.289 . S
Mg91 O98 2.141 . S
Mg91 O99 2.048 . S
Mg91 O100 2.048 . S
Mg91 O103 2.141 1_554 S
C92 O93 1.313 . S
C92 O99 1.195 . S
O93 C92 1.313 . S
C94 O95 1.245 . S
C94 O103 1.289 . S
O95 C94 1.245 . S
C96 O97 1.245 . S
C96 O98 1.289 . S
O97 C96 1.245 . S
O98 Mg91 2.141 . S
O98 C96 1.289 . S
O99 Mg91 2.048 . S
O99 C92 1.195 . S
O100 Mg91 2.048 . S
O100 C101 1.195 . S
C101 O100 1.195 . S
C101 O102 1.313 . S
O102 C101 1.313 . S
O103 Mg91 2.141 1_556 S
O103 C94 1.289 . S
H104 C110 0.930 . S
H105 C113 0.930 . S
H106 C114 0.930 . S
H107 C115 0.930 . S
H108 C118 0.930 . S
H109 C119 0.930 . S
C110 H104 0.930 . S
C110 C111 1.355 . S
C110 C112 1.415 . S
C111 C110 1.355 . S
C111 C113 1.419 . S
C112 C110 1.415 . S
C112 C117 1.425 . S
C112 C119 1.409 . S
C113 H105 0.930 . S
C113 C111 1.419 . S
C113 C114 1.362 . S
C114 H106 0.930 . S
C114 C113 1.362 . S
C114 C117 1.409 . S
C115 H107 0.930 . S
C115 C116 1.355 . S
C115 C117 1.415 . S
C116 C115 1.355 . S
C116 C118 1.419 . S
C117 C112 1.425 . S
C117 C114 1.409 . S
C117 C115 1.415 . S
C118 H108 0.930 . S
C118 C116 1.419 . S
C118 C119 1.362 . S
C119 H109 0.930 . S
C119 C112 1.409 . S
C119 C118 1.362 . S
H120 C126 0.930 . S
H121 C129 0.930 . S
H122 C130 0.930 . S
H123 C131 0.930 . S
H124 C134 0.930 . S
H125 C135 0.930 . S
C126 H120 0.930 . S
C126 C127 1.355 . S
C126 C128 1.415 . S
C127 C126 1.355 . S
C127 C129 1.419 . S
C128 C126 1.415 . S
C128 C133 1.425 . S
C128 C135 1.409 . S
C129 H121 0.930 . S
C129 C127 1.419 . S
C129 C130 1.362 . S
C130 H122 0.930 . S
C130 C129 1.362 . S
C130 C133 1.409 . S
C131 H123 0.930 . S
C131 C132 1.355 . S
C131 C133 1.415 . S
C132 C131 1.355 . S
C132 C134 1.419 . S
C133 C128 1.425 . S
C133 C130 1.409 . S
C133 C131 1.415 . S
C134 H124 0.930 . S
C134 C132 1.419 . S
C134 C135 1.362 . S
C135 H125 0.930 . S
C135 C128 1.409 . S
C135 C134 1.362 . S
H136 C142 0.930 . S
H137 C145 0.930 . S
H138 C146 0.930 . S
H139 C147 0.930 . S
H140 C150 0.930 . S
H141 C151 0.930 . S
C142 H136 0.930 . S
C142 C143 1.355 . S
C142 C144 1.415 . S
C143 C142 1.355 . S
C143 C145 1.419 . S
C144 C142 1.415 . S
C144 C149 1.425 . S
C144 C151 1.409 . S
C145 H137 0.930 . S
C145 C143 1.419 . S
C145 C146 1.362 . S
C146 H138 0.930 . S
C146 C145 1.362 . S
C146 C149 1.409 . S
C147 H139 0.930 . S
C147 C148 1.355 . S
C147 C149 1.415 . S
C148 C147 1.355 . S
C148 C150 1.419 . S
C149 C144 1.425 . S
C149 C146 1.409 . S
C149 C147 1.415 . S
C150 H140 0.930 . S
C150 C148 1.419 . S
C150 C151 1.362 . S
C151 H141 0.930 . S
C151 C144 1.409 . S
C151 C150 1.362 . S
H152 C158 0.930 . S
H153 C161 0.930 . S
H154 C162 0.930 . S
H155 C163 0.930 . S
H156 C166 0.930 . S
H157 C167 0.930 . S
C158 H152 0.930 . S
C158 C159 1.355 . S
C158 C160 1.415 . S
C159 C158 1.355 . S
C159 C161 1.419 . S
C160 C158 1.415 . S
C160 C165 1.425 . S
C160 C167 1.409 . S
C161 H153 0.930 . S
C161 C159 1.419 . S
C161 C162 1.362 . S
C162 H154 0.930 . S
C162 C161 1.362 . S
C162 C165 1.409 . S
C163 H155 0.930 . S
C163 C164 1.355 . S
C163 C165 1.415 . S
C164 C163 1.355 . S
C164 C166 1.419 . S
C165 C160 1.425 . S
C165 C162 1.409 . S
C165 C163 1.415 . S
C166 H156 0.930 . S
C166 C164 1.419 . S
C166 C167 1.362 . S
C167 H157 0.930 . S
C167 C160 1.409 . S
C167 C166 1.362 . S
H168 C174 0.930 . S
H169 C177 0.930 . S
H170 C178 0.930 . S
H171 C179 0.930 . S
H172 C182 0.930 . S
H173 C183 0.930 . S
C174 H168 0.930 . S
C174 C175 1.355 . S
C174 C176 1.415 . S
C175 C174 1.355 . S
C175 C177 1.419 . S
C176 C174 1.415 . S
C176 C181 1.425 . S
C176 C183 1.409 . S
C177 H169 0.930 . S
C177 C175 1.419 . S
C177 C178 1.362 . S
C178 H170 0.930 . S
C178 C177 1.362 . S
C178 C181 1.409 . S
C179 H171 0.930 . S
C179 C180 1.355 . S
C179 C181 1.415 . S
C180 C179 1.355 . S
C180 C182 1.419 . S
C181 C176 1.425 . S
C181 C178 1.409 . S
C181 C179 1.415 . S
C182 H172 0.930 . S
C182 C180 1.419 . S
C182 C183 1.362 . S
C183 H173 0.930 . S
C183 C176 1.409 . S
C183 C182 1.362 . S
H184 C190 0.930 . S
H185 C193 0.930 . S
H186 C194 0.930 . S
H187 C195 0.930 . S
H188 C198 0.930 . S
H189 C199 0.930 . S
C190 H184 0.930 . S
C190 C191 1.355 . S
C190 C192 1.415 . S
C191 C190 1.355 . S
C191 C193 1.419 . S
C192 C190 1.415 . S
C192 C197 1.425 . S
C192 C199 1.409 . S
C193 H185 0.930 . S
C193 C191 1.419 . S
C193 C194 1.362 . S
C194 H186 0.930 . S
C194 C193 1.362 . S
C194 C197 1.409 . S
C195 H187 0.930 . S
C195 C196 1.355 . S
C195 C197 1.415 . S
C196 C195 1.355 . S
C196 C198 1.419 . S
C197 C192 1.425 . S
C197 C194 1.409 . S
C197 C195 1.415 . S
C198 H188 0.930 . S
C198 C196 1.419 . S
C198 C199 1.362 . S
C199 H189 0.930 . S
C199 C192 1.409 . S
C199 C198 1.362 . S
H200 C206 0.930 . S
H201 C209 0.930 . S
H202 C210 0.930 . S
H203 C211 0.930 . S
H204 C214 0.930 . S
H205 C215 0.930 . S
C206 H200 0.930 . S
C206 C207 1.355 . S
C206 C208 1.415 . S
C207 C206 1.355 . S
C207 C209 1.419 . S
C208 C206 1.415 . S
C208 C213 1.425 . S
C208 C215 1.409 . S
C209 H201 0.930 . S
C209 C207 1.419 . S
C209 C210 1.362 . S
C210 H202 0.930 . S
C210 C209 1.362 . S
C210 C213 1.409 . S
C211 H203 0.930 . S
C211 C212 1.355 . S
C211 C213 1.415 . S
C212 C211 1.355 . S
C212 C214 1.419 . S
C213 C208 1.425 . S
C213 C210 1.409 . S
C213 C211 1.415 . S
C214 H204 0.930 . S
C214 C212 1.419 . S
C214 C215 1.362 . S
C215 H205 0.930 . S
C215 C208 1.409 . S
C215 C214 1.362 . S
H216 C222 0.930 . S
H217 C225 0.930 . S
H218 C226 0.930 . S
H219 C227 0.930 . S
H220 C230 0.930 . S
H221 C231 0.930 . S
C222 H216 0.930 . S
C222 C223 1.355 . S
C222 C224 1.415 . S
C223 C222 1.355 . S
C223 C225 1.419 . S
C224 C222 1.415 . S
C224 C229 1.425 . S
C224 C231 1.409 . S
C225 H217 0.930 . S
C225 C223 1.419 . S
C225 C226 1.362 . S
C226 H218 0.930 . S
C226 C225 1.362 . S
C226 C229 1.409 . S
C227 H219 0.930 . S
C227 C228 1.355 . S
C227 C229 1.415 . S
C228 C227 1.355 . S
C228 C230 1.419 . S
C229 C224 1.425 . S
C229 C226 1.409 . S
C229 C227 1.415 . S
C230 H220 0.930 . S
C230 C228 1.419 . S
C230 C231 1.362 . S
C231 H221 0.930 . S
C231 C224 1.409 . S
C231 C230 1.362 . S
H232 C238 0.930 . S
H233 C241 0.930 . S
H234 C242 0.930 1_455 S
H235 C243 0.930 . S
H236 C246 0.930 . S
H237 C247 0.930 1_655 S
C238 H232 0.930 . S
C238 C239 1.355 . S
C238 C240 1.415 . S
C239 C238 1.355 . S
C239 C241 1.419 . S
C240 C238 1.415 . S
C240 C245 1.425 1_655 S
C240 C247 1.409 1_655 S
C241 H233 0.930 . S
C241 C239 1.419 . S
C241 C242 1.362 . S
C242 H234 0.930 1_655 S
C242 C241 1.362 . S
C242 C245 1.409 1_655 S
C243 H235 0.930 . S
C243 C244 1.355 . S
C243 C245 1.415 . S
C244 C243 1.355 . S
C244 C246 1.419 . S
C245 C240 1.425 1_455 S
C245 C242 1.409 1_455 S
C245 C243 1.415 . S
C246 H236 0.930 . S
C246 C244 1.419 . S
C246 C247 1.362 . S
C247 H237 0.930 1_455 S
C247 C240 1.409 1_455 S
C247 C246 1.362 . S
H248 C254 0.930 . S
H249 C257 0.930 . S
H250 C258 0.930 . S
H251 C259 0.930 . S
H252 C262 0.930 . S
H253 C263 0.930 . S
C254 H248 0.930 . S
C254 C255 1.355 . S
C254 C256 1.415 . S
C255 C254 1.355 . S
C255 C257 1.419 . S
C256 C254 1.415 . S
C256 C261 1.425 1_565 S
C256 C263 1.409 1_565 S
C257 H249 0.930 . S
C257 C255 1.419 . S
C257 C258 1.362 . S
C258 H250 0.930 . S
C258 C257 1.362 . S
C258 C261 1.409 1_565 S
C259 H251 0.930 . S
C259 C260 1.355 . S
C259 C261 1.415 . S
C260 C259 1.355 . S
C260 C262 1.419 . S
C261 C256 1.425 1_545 S
C261 C258 1.409 1_545 S
C261 C259 1.415 . S
C262 H252 0.930 . S
C262 C260 1.419 . S
C262 C263 1.362 . S
C263 H253 0.930 . S
C263 C256 1.409 1_545 S
C263 C262 1.362 . S
H264 C270 0.930 . S
H265 C273 0.930 . S
H266 C274 0.930 . S
H267 C275 0.930 . S
H268 C278 0.930 . S
H269 C279 0.930 . S
C270 H264 0.930 . S
C270 C271 1.355 . S
C270 C272 1.415 . S
C271 C270 1.355 . S
C271 C273 1.419 . S
C272 C270 1.415 . S
C272 C277 1.425 1_455 S
C272 C279 1.409 1_455 S
C273 H265 0.930 . S
C273 C271 1.419 . S
C273 C274 1.362 . S
C274 H266 0.930 . S
C274 C273 1.362 . S
C274 C277 1.409 1_455 S
C275 H267 0.930 . S
C275 C276 1.355 . S
C275 C277 1.415 . S
C276 C275 1.355 . S
C276 C278 1.419 . S
C277 C272 1.425 1_655 S
C277 C274 1.409 1_655 S
C277 C275 1.415 . S
C278 H268 0.930 . S
C278 C276 1.419 . S
C278 C279 1.362 . S
C279 H269 0.930 . S
C279 C272 1.409 1_655 S
C279 C278 1.362 . S
H280 C286 0.930 . S
H281 C289 0.930 . S
H282 C290 0.930 . S
H283 C291 0.930 . S
H284 C294 0.930 . S
H285 C295 0.930 . S
C286 H280 0.930 . S
C286 C287 1.355 1_556 S
C286 C288 1.415 . S
C287 C286 1.355 1_554 S
C287 C289 1.419 . S
C288 C286 1.415 . S
C288 C293 1.425 1_566 S
C288 C295 1.409 1_565 S
C289 H281 0.930 . S
C289 C287 1.419 . S
C289 C290 1.362 . S
C290 H282 0.930 . S
C290 C289 1.362 . S
C290 C293 1.409 1_565 S
C291 H283 0.930 . S
C291 C292 1.355 . S
C291 C293 1.415 . S
C292 C291 1.355 . S
C292 C294 1.419 1_554 S
C293 C288 1.425 1_544 S
C293 C290 1.409 1_545 S
C293 C291 1.415 . S
C294 H284 0.930 . S
C294 C292 1.419 1_556 S
C294 C295 1.362 . S
C295 H285 0.930 . S
C295 C288 1.409 1_545 S
C295 C294 1.362 . S
H296 C302 0.930 . S
H297 C305 0.930 . S
H298 C306 0.930 . S
H299 C307 0.930 . S
H300 C310 0.930 . S
H301 C311 0.930 . S
C302 H296 0.930 . S
C302 C303 1.355 . S
C302 C304 1.415 . S
C303 C302 1.355 . S
C303 C305 1.419 1_554 S
C304 C302 1.415 . S
C304 C309 1.425 1_554 S
C304 C311 1.409 . S
C305 H297 0.930 . S
C305 C303 1.419 1_556 S
C305 C306 1.362 . S
C306 H298 0.930 . S
C306 C305 1.362 . S
C306 C309 1.409 . S
C307 H299 0.930 . S
C307 C308 1.355 1_556 S
C307 C309 1.415 . S
C308 C307 1.355 1_554 S
C308 C310 1.419 . S
C309 C304 1.425 1_556 S
C309 C306 1.409 . S
C309 C307 1.415 . S
C310 H300 0.930 . S
C310 C308 1.419 . S
C310 C311 1.362 . S
C311 H301 0.930 . S
C311 C304 1.409 . S
C311 C310 1.362 . S
H312 C318 0.930 . S
H313 C321 0.930 . S
H314 C322 0.930 . S
H315 C323 0.930 . S
H316 C326 0.930 . S
H317 C327 0.930 . S
C318 H312 0.930 . S
C318 C319 1.355 . S
C318 C320 1.415 . S
C319 C318 1.355 . S
C319 C321 1.419 . S
C320 C318 1.415 . S
C320 C325 1.425 . S
C320 C327 1.409 . S
C321 H313 0.930 . S
C321 C319 1.419 . S
C321 C322 1.362 . S
C322 H314 0.930 . S
C322 C321 1.362 . S
C322 C325 1.409 . S
C323 H315 0.930 . S
C323 C324 1.355 . S
C323 C325 1.415 . S
C324 C323 1.355 . S
C324 C326 1.419 . S
C325 C320 1.425 . S
C325 C322 1.409 . S
C325 C323 1.415 . S
C326 H316 0.930 . S
C326 C324 1.419 . S
C326 C327 1.362 . S
C327 H317 0.930 . S
C327 C320 1.409 . S
C327 C326 1.362 . S
H328 C334 0.930 . S
H329 C337 0.934 . S
H330 C338 0.930 . S
H331 C339 0.930 1_556 S
H332 C342 0.930 . S
H333 C343 0.930 . S
C334 H328 0.930 . S
C334 C335 1.355 . S
C334 C336 1.415 . S
C335 C334 1.355 . S
C335 C337 1.415 1_554 S
C336 C334 1.415 . S
C336 C341 1.425 . S
C336 C343 1.409 . S
C337 H329 0.934 . S
C337 C335 1.415 1_556 S
C337 C338 1.363 . S
C338 H330 0.930 . S
C338 C337 1.363 . S
C338 C341 1.409 1_556 S
C339 H331 0.930 1_554 S
C339 C340 1.355 . S
C339 C341 1.415 . S
C340 C339 1.355 . S
C340 C342 1.419 . S
C341 C336 1.425 . S
C341 C338 1.409 1_554 S
C341 C339 1.415 . S
C342 H332 0.930 . S
C342 C340 1.419 . S
C342 C343 1.362 . S
C343 H333 0.930 . S
C343 C336 1.409 . S
C343 C342 1.362 . S
H344 C350 0.930 . S
H345 C353 0.930 . S
H346 C354 0.930 . S
H347 C355 0.930 . S
H348 C358 0.930 . S
H349 C359 0.930 . S
C350 H344 0.930 . S
C350 C351 1.355 . S
C350 C352 1.415 . S
C351 C350 1.355 . S
C351 C353 1.419 . S
C352 C350 1.415 . S
C352 C357 1.425 . S
C352 C359 1.409 . S
C353 H345 0.930 . S
C353 C351 1.419 . S
C353 C354 1.362 . S
C354 H346 0.930 . S
C354 C353 1.362 . S
C354 C357 1.409 . S
C355 H347 0.930 . S
C355 C356 1.355 . S
C355 C357 1.415 . S
C356 C355 1.355 . S
C356 C358 1.419 . S
C357 C352 1.425 . S
C357 C354 1.409 . S
C357 C355 1.415 . S
C358 H348 0.930 . S
C358 C356 1.419 . S
C358 C359 1.362 . S
C359 H349 0.930 . S
C359 C352 1.409 . S
C359 C358 1.362 . S
C111 C5 1.527 . S
C116 C53 1.524 . S
C127 C16 1.465 . S
C132 C68 1.485 . S
C143 C83 1.516 . S
C148 C31 1.514 . S
C159 C94 1.509 . S
C164 C42 1.505 . S
C175 C88 1.632 . S
C180 C36 1.629 . S
C191 C92 1.580 . S
C196 C40 1.577 . S
C207 C10 1.601 . S
C212 C55 1.620 . S
C223 C14 1.615 . S
C228 C66 1.615 . S
C239 C27 1.958 . S
C244 C1 1.961 . S
C255 C49 2.050 . S
C260 C23 2.044 . S
C271 C62 1.909 . S
C276 C79 1.909 . S
C287 C101 2.027 . S
C292 C75 2.034 . S
C303 C3 1.823 . S
C308 C70 1.902 . S
C319 C81 1.842 . S
C324 C18 1.899 . S
C335 C29 1.855 . S
C340 C96 1.892 . S
C351 C44 1.896 . S
C356 C57 1.816 . S
