# Generated by pormake.
# Topology sol, (6)-cn, num edge types: 1
# Building blocks:
#     Node 0, Type 0, BuildingBlock: IZENUY_clean_sbu_0, # of connection points: 6
#     Node 1, Type 0, BuildingBlock: IZENUY_clean_sbu_0, # of connection points: 6
#     Node 2, Type 0, BuildingBlock: IZENUY_clean_sbu_0, # of connection points: 6
#     Node 3, Type 0, BuildingBlock: IZENUY_clean_sbu_0, # of connection points: 6
#     Node 4, Type 0, BuildingBlock: IZENUY_clean_sbu_0, # of connection points: 6
#     Node 5, Type 0, BuildingBlock: IZENUY_clean_sbu_0, # of connection points: 6
#     Node 6, Type 0, BuildingBlock: IZENUY_clean_sbu_0, # of connection points: 6
#     Node 7, Type 0, BuildingBlock: IZENUY_clean_sbu_0, # of connection points: 6
#     Edge 8, Type (0, 0), BuildingBlock: XUDNAN_clean_linker_2, # of connection points: 2
#     Edge 9, Type (0, 0), BuildingBlock: XUDNAN_clean_linker_2, # of connection points: 2
#     Edge 10, Type (0, 0), BuildingBlock: XUDNAN_clean_linker_2, # of connection points: 2
#     Edge 11, Type (0, 0), BuildingBlock: XUDNAN_clean_linker_2, # of connection points: 2
#     Edge 12, Type (0, 0), BuildingBlock: XUDNAN_clean_linker_2, # of connection points: 2
#     Edge 13, Type (0, 0), BuildingBlock: XUDNAN_clean_linker_2, # of connection points: 2
#     Edge 14, Type (0, 0), BuildingBlock: XUDNAN_clean_linker_2, # of connection points: 2
#     Edge 15, Type (0, 0), BuildingBlock: XUDNAN_clean_linker_2, # of connection points: 2
#     Edge 16, Type (0, 0), BuildingBlock: XUDNAN_clean_linker_2, # of connection points: 2
#     Edge 17, Type (0, 0), BuildingBlock: XUDNAN_clean_linker_2, # of connection points: 2
#     Edge 18, Type (0, 0), BuildingBlock: XUDNAN_clean_linker_2, # of connection points: 2
#     Edge 19, Type (0, 0), BuildingBlock: XUDNAN_clean_linker_2, # of connection points: 2
#     Edge 20, Type (0, 0), BuildingBlock: XUDNAN_clean_linker_2, # of connection points: 2
#     Edge 21, Type (0, 0), BuildingBlock: XUDNAN_clean_linker_2, # of connection points: 2
#     Edge 22, Type (0, 0), BuildingBlock: XUDNAN_clean_linker_2, # of connection points: 2
#     Edge 23, Type (0, 0), BuildingBlock: XUDNAN_clean_linker_2, # of connection points: 2
#     Edge 24, Type (0, 0), BuildingBlock: XUDNAN_clean_linker_2, # of connection points: 2
#     Edge 25, Type (0, 0), BuildingBlock: XUDNAN_clean_linker_2, # of connection points: 2
#     Edge 26, Type (0, 0), BuildingBlock: XUDNAN_clean_linker_2, # of connection points: 2
#     Edge 27, Type (0, 0), BuildingBlock: XUDNAN_clean_linker_2, # of connection points: 2
#     Edge 28, Type (0, 0), BuildingBlock: XUDNAN_clean_linker_2, # of connection points: 2
#     Edge 29, Type (0, 0), BuildingBlock: XUDNAN_clean_linker_2, # of connection points: 2
#     Edge 30, Type (0, 0), BuildingBlock: XUDNAN_clean_linker_2, # of connection points: 2
#     Edge 31, Type (0, 0), BuildingBlock: XUDNAN_clean_linker_2, # of connection points: 2
# Relax obj value: 0.163
# Max RMSD: 0.160
# Mean RMSD: 0.159
data_MOF--net-sol--node1-IZENUY_clean_sbu_0--edge1-XUDNAN_clean_linker_2
_symmetry_space_group_name_H-M    P1
_symmetry_Int_Tables_number       1
_symmetry_cell_setting            triclinic
loop_
_symmetry_equiv_pos_as_xyz
'x, y, z'
_cell_length_a     35.644292
_cell_length_b     27.314203
_cell_length_c     27.942403
_cell_angle_alpha  90.242368
_cell_angle_beta   89.832825
_cell_angle_gamma 89.878138
loop_
_atom_site_label
_atom_site_type_symbol
_atom_site_fract_x
_atom_site_fract_y
_atom_site_fract_z
_atom_type_partial_charge
Fe0 Fe 0.16408 0.14178 0.1386 0.0
Fe1 Fe 0.22235 0.20064 0.0833 0.0
O2 O 0.17548 0.18209 0.09132 0.0
Fe3 Fe 0.14044 0.20397 0.05185 0.0
O4 O 0.10286 0.20499 0.09811 0.0
O5 O 0.13239 0.18571 0.16444 0.0
O6 O 0.20011 0.16652 0.18046 0.0
C7 C 0.21804 0.20686 0.18026 0.0
C8 C 0.11747 0.10894 0.06118 0.0
O9 O 0.22332 0.22943 0.14155 0.0
C10 C 0.20418 0.18752 0.99021 0.0
O11 O 0.19568 0.09512 0.11582 0.0
O12 O 0.2433 0.14483 0.10655 0.0
O13 O 0.12863 0.14235 0.03351 0.0
O14 O 0.12554 0.11028 0.10556 0.0
C15 C 0.18163 0.2864 0.06257 0.0
O16 O 0.22392 0.17283 1.02466 0.0
O17 O 0.17225 0.20716 0.99838 0.0
C18 C 0.23032 0.10213 0.10969 0.0
O19 O 0.2106 0.26013 0.05853 0.0
O20 O 0.14979 0.26729 0.06781 0.0
C21 C 0.10474 0.20461 0.14361 0.0
Fe22 Fe 0.37203 0.34834 0.6324 0.0
Fe23 Fe 0.31046 0.28242 0.59082 0.0
O24 O 0.35815 0.30033 0.59356 0.0
Fe25 Fe 0.39193 0.26859 0.55888 0.0
O26 O 0.41685 0.24904 0.61235 0.0
O27 O 0.41796 0.32192 0.6462 0.0
O28 O 0.35414 0.31505 0.68412 0.0
C29 C 0.3211 0.29933 0.68912 0.0
C30 C 0.41783 0.36768 0.55627 0.0
O31 O 0.2992 0.29756 0.65366 0.0
C32 C 0.33486 0.2751 0.49408 0.0
O33 O 0.32802 0.38299 0.62525 0.0
O34 O 0.29645 0.34201 0.57063 0.0
O35 O 0.42248 0.32188 0.55129 0.0
O36 O 0.39226 0.38424 0.58354 0.0
C37 C 0.34405 0.19331 0.59008 0.0
O38 O 0.31233 0.26361 0.52737 0.0
O39 O 0.36858 0.28588 0.50344 0.0
C40 C 0.30212 0.38063 0.59417 0.0
O41 O 0.32184 0.22191 0.61131 0.0
O42 O 0.36771 0.20949 0.56036 0.0
C43 C 0.4291 0.27801 0.64387 0.0
Fe44 Fe 0.6716 0.35198 0.91877 0.0
Fe45 Fe 0.7246 0.28668 0.97684 0.0
O46 O 0.67845 0.3062 0.96277 0.0
Fe47 Fe 0.63973 0.27976 0.99289 0.0
O48 O 0.6081 0.28232 0.9409 0.0
O49 O 0.64299 0.31215 0.88275 0.0
O50 O 0.71182 0.33142 0.88082 0.0
C51 C 0.72979 0.29099 0.87958 0.0
C52 C 0.616 0.37536 0.9898 0.0
O53 O 0.73227 0.26465 0.91644 0.0
C54 C 0.69481 0.29188 0.06644 0.0
O55 O 0.69999 0.39515 0.9523 0.0
O56 O 0.74702 0.3446 0.96303 0.0
O57 O 0.62416 0.33859 1.01487 0.0
O58 O 0.62963 0.38001 0.94796 0.0
C59 C 0.6837 0.19936 0.98088 0.0
O60 O 0.71992 0.30714 0.03828 0.0
O61 O 0.6648 0.27271 0.05054 0.0
C62 C 0.73362 0.38721 0.96379 0.0
O63 O 0.71124 0.22509 0.99339 0.0
O64 O 0.65234 0.21865 0.97267 0.0
C65 C 0.61455 0.28896 0.89674 0.0
Fe66 Fe 0.85407 0.14455 0.4133 0.0
Fe67 Fe 0.80755 0.20956 0.47988 0.0
O68 O 0.85196 0.18712 0.46093 0.0
Fe69 Fe 0.89418 0.20765 0.48841 0.0
O70 O 0.92235 0.20472 0.43221 0.0
O71 O 0.88045 0.18661 0.37721 0.0
O72 O 0.81209 0.16692 0.38175 0.0
C73 C 0.79659 0.20862 0.38304 0.0
C74 C 0.9125 0.11123 0.47523 0.0
O75 O 0.79674 0.23343 0.42104 0.0
C76 C 0.84135 0.20212 0.56676 0.0
O77 O 0.82743 0.1007 0.44737 0.0
O78 O 0.78261 0.15206 0.4683 0.0
O79 O 0.90817 0.14542 0.5055 0.0
O80 O 0.89676 0.11392 0.43468 0.0
C81 C 0.85356 0.29269 0.48048 0.0
O82 O 0.81483 0.18843 0.5402 0.0
O83 O 0.87268 0.21541 0.54891 0.0
C84 C 0.79526 0.10888 0.4646 0.0
O85 O 0.82467 0.2704 0.49468 0.0
O86 O 0.88405 0.27069 0.47264 0.0
C87 C 0.91137 0.20526 0.38884 0.0
Fe88 Fe 0.80564 0.78638 0.97248 0.0
Fe89 Fe 0.86235 0.83559 0.90738 0.0
O90 O 0.85258 0.80246 0.95984 0.0
Fe91 Fe 0.88957 0.78513 0.99898 0.0
O92 O 0.87825 0.7208 0.992 0.0
O93 O 0.81754 0.7296 1.00252 0.0
O94 O 0.80122 0.75128 0.91714 0.0
C95 C 0.80565 0.76985 0.87619 0.0
C96 C 0.82843 0.8095 0.0625 0.0
O97 O 0.82351 0.8097 0.87179 0.0
C98 C 0.91485 0.87582 0.9744 0.0
O99 O 0.78507 0.8406 0.94493 0.0
O100 O 0.83394 0.88647 0.92801 0.0
O101 O 0.86035 0.7899 0.05439 0.0
O102 O 0.80696 0.82013 0.02822 0.0
C103 C 0.91857 0.76814 0.90571 0.0
O104 O 0.90349 0.86732 0.93218 0.0
O105 O 0.9045 0.84857 1.00846 0.0
C106 C 0.7995 0.88198 0.93744 0.0
O107 O 0.89061 0.78611 0.88469 0.0
O108 O 0.92429 0.77617 0.94998 0.0
C109 C 0.8464 0.70289 1.00038 0.0
Fe110 Fe 0.7216 0.70379 0.46403 0.0
Fe111 Fe 0.66582 0.63854 0.4114 0.0
O112 O 0.67537 0.68151 0.45712 0.0
Fe113 Fe 0.63876 0.70341 0.49487 0.0
O114 O 0.6587 0.76539 0.50211 0.0
O115 O 0.70622 0.76491 0.4518 0.0
O116 O 0.73481 0.69924 0.40014 0.0
C117 C 0.71389 0.69968 0.36366 0.0
C118 C 0.69544 0.69546 0.56026 0.0
O119 O 0.68168 0.68076 0.36531 0.0
C120 C 0.62087 0.60186 0.48162 0.0
O121 O 0.73952 0.64367 0.47647 0.0
O122 O 0.71194 0.6082 0.41518 0.0
O123 O 0.66279 0.68168 0.54859 0.0
O124 O 0.71753 0.713 0.52912 0.0
C125 C 0.60327 0.7018 0.40811 0.0
O126 O 0.64867 0.59434 0.45433 0.0
O127 O 0.61197 0.64522 0.49405 0.0
C128 C 0.73646 0.60812 0.44804 0.0
O129 O 0.61821 0.66067 0.3997 0.0
O130 O 0.61281 0.72723 0.44384 0.0
C131 C 0.6828 0.78787 0.47707 0.0
Fe132 Fe 0.35378 0.63971 0.13793 0.0
Fe133 Fe 0.39165 0.70502 0.06253 0.0
O134 O 0.35038 0.68294 0.09132 0.0
Fe135 Fe 0.30549 0.70498 0.074 0.0
O136 O 0.29571 0.72893 0.13367 0.0
O137 O 0.31326 0.66308 0.17254 0.0
O138 O 0.38254 0.67991 0.17378 0.0
C139 C 0.41292 0.69893 0.1603 0.0
C140 C 0.29257 0.60528 0.09034 0.0
O141 O 0.42145 0.7014 0.11626 0.0
C142 C 0.33774 0.69865 0.98582 0.0
O143 O 0.39508 0.60907 0.1126 0.0
O144 O 0.40621 0.64353 0.04294 0.0
O145 O 0.28046 0.64847 0.08703 0.0
O146 O 0.32533 0.59647 0.10489 0.0
C147 C 0.34995 0.78825 0.07501 0.0
O148 O 0.36851 0.71382 1.00367 0.0
O149 O 0.31194 0.68311 1.01288 0.0
C150 C 0.41092 0.60841 0.07188 0.0
O151 O 0.38097 0.76728 0.08147 0.0
O152 O 0.32233 0.76536 0.05817 0.0
C153 C 0.29678 0.70427 0.17175 0.0
Fe154 Fe 0.12973 0.76886 0.56125 0.0
Fe155 Fe 0.21435 0.77459 0.58298 0.0
O156 O 0.16774 0.79537 0.59293 0.0
Fe157 Fe 0.15925 0.84263 0.63555 0.0
O158 O 0.13077 0.80269 0.67145 0.0
O159 O 0.09672 0.77351 0.61219 0.0
O160 O 0.14049 0.70796 0.58279 0.0
C161 C 0.17224 0.68796 0.58126 0.0
C162 C 0.10613 0.86439 0.56211 0.0
O163 O 0.2014 0.71165 0.57086 0.0
C164 C 0.22175 0.87715 0.59198 0.0
O165 O 0.15655 0.75932 0.50504 0.0
O166 O 0.21275 0.78955 0.51985 0.0
O167 O 0.11751 0.86858 0.60494 0.0
O168 O 0.11563 0.82766 0.53737 0.0
C169 C 0.21608 0.78586 0.6803 0.0
O170 O 0.23567 0.83454 0.59319 0.0
O171 O 0.1877 0.88481 0.60197 0.0
C172 C 0.18826 0.77477 0.49066 0.0
O173 O 0.21966 0.7569 0.64541 0.0
O174 O 0.19908 0.82629 0.67501 0.0
C175 C 0.10275 0.77911 0.65672 0.0
H176 H 0.10105 0.20496 0.24129 0.0
H177 H 0.03479 0.23644 0.11488 0.0
H178 H 0.97936 0.25139 0.16657 0.0
H179 H 0.034 0.1369 0.29921 0.0
H180 H 0.04533 0.15776 0.35871 0.0
H181 H 0.0808 0.15751 0.31286 0.0
H182 H 0.09272 0.24988 0.32727 0.0
H183 H 0.05726 0.25051 0.37341 0.0
H184 H 0.05412 0.29249 0.32397 0.0
H185 H 0.9299 0.25232 0.23078 0.0
H186 H 0.88999 0.23836 0.30154 0.0
H187 H 0.98868 0.20555 0.38617 0.0
C188 C 0.07515 0.21605 0.22428 0.0
C189 C 0.07235 0.21964 0.17383 0.0
C190 C 0.03773 0.23374 0.15334 0.0
C191 C 1.00614 0.24238 0.18247 0.0
C192 C 1.00976 0.23713 0.23196 0.0
C193 C 0.0435 0.22454 0.25268 0.0
C194 C 0.03939 0.21666 0.30613 0.0
C195 C 0.05052 0.1641 0.32 0.0
C196 C 0.06223 0.25467 0.33436 0.0
C197 C 0.99768 0.22516 0.31221 0.0
C198 C 0.98122 0.2376 0.26909 0.0
C199 C 0.94259 0.24343 0.26481 0.0
C200 C 0.92016 0.23526 0.30523 0.0
C201 C 0.9363 0.22118 0.34946 0.0
C202 C 0.97567 0.21732 0.35318 0.0
H203 H 0.49424 0.32459 0.66196 0.0
H204 H 0.42813 0.1986 0.70274 0.0
H205 H 0.47146 0.18305 0.77049 0.0
H206 H 0.5875 0.27113 0.695 0.0
H207 H 0.60446 0.32981 0.7151 0.0
H208 H 0.57087 0.32646 0.66711 0.0
H209 H 0.52667 0.3848 0.71429 0.0
H210 H 0.5597 0.38774 0.7627 0.0
H211 H 0.51215 0.36859 0.77402 0.0
H212 H 0.51642 0.19049 0.84099 0.0
H213 H 0.56367 0.21366 0.90204 0.0
H214 H 0.60187 0.33149 0.81059 0.0
C215 C 0.48969 0.29283 0.68435 0.0
C216 C 0.45835 0.26242 0.67733 0.0
C217 C 0.45257 0.22163 0.7074 0.0
C218 C 0.47686 0.2128 0.74598 0.0
C219 C 0.50704 0.24453 0.75295 0.0
C220 C 0.51401 0.28299 0.72213 0.0
C221 C 0.54716 0.31315 0.73826 0.0
C222 C 0.57941 0.30992 0.7017 0.0
C223 C 0.53571 0.36671 0.7479 0.0
C224 C 0.55694 0.28694 0.78404 0.0
C225 C 0.53357 0.24749 0.79214 0.0
C226 C 0.53544 0.22057 0.83443 0.0
C227 C 0.5621 0.23416 0.86901 0.0
C228 C 0.58662 0.27395 0.86071 0.0
C229 C 0.58402 0.30025 0.81751 0.0
H230 H 0.99286 0.79121 0.90287 0.0
H231 H 0.9079 0.70116 0.83597 0.0
H232 H 0.95078 0.6837 0.76856 0.0
H233 H 0.01854 0.84955 0.80396 0.0
H234 H 0.06819 0.85377 0.81523 0.0
H235 H 0.03598 0.84847 0.86446 0.0
H236 H 0.07087 0.77136 0.89477 0.0
H237 H 0.10389 0.77695 0.84609 0.0
H238 H 0.0787 0.7205 0.85461 0.0
H239 H 0.99614 0.69084 0.70156 0.0
H240 H 0.04352 0.71677 0.64215 0.0
H241 H 0.09919 0.80285 0.75185 0.0
C242 C 0.98432 0.76552 0.87536 0.0
C243 C 0.94762 0.7465 0.87484 0.0
C244 C 0.93632 0.71514 0.83716 0.0
C245 C 0.96043 0.70514 0.79875 0.0
C246 C 0.99576 0.72676 0.79867 0.0
C247 C 1.00804 0.75562 0.83639 0.0
C248 C 0.04498 0.78005 0.82437 0.0
C249 C 0.04168 0.83626 0.82716 0.0
C250 C 0.07648 0.76106 0.85689 0.0
C251 C 0.05037 0.76259 0.77329 0.0
C252 C 0.02203 0.7313 0.75936 0.0
C253 C 0.01906 0.71429 0.71237 0.0
C254 C 0.04588 0.72955 0.67876 0.0
C255 C 0.07512 0.76165 0.69232 0.0
C256 C 0.07749 0.77773 0.74042 0.0
H257 H 0.53924 0.65264 0.38884 0.0
H258 H 0.60035 0.7848 0.35458 0.0
H259 H 0.55521 0.80246 0.28932 0.0
H260 H 0.5196 0.61567 0.27433 0.0
H261 H 0.4729 0.59346 0.28605 0.0
H262 H 0.50705 0.59454 0.33328 0.0
H263 H 0.46249 0.6471 0.38598 0.0
H264 H 0.42783 0.64561 0.33916 0.0
H265 H 0.4437 0.70349 0.36269 0.0
H266 H 0.50957 0.79719 0.21971 0.0
H267 H 0.46181 0.77605 0.1586 0.0
H268 H 0.42768 0.65125 0.24339 0.0
C269 C 0.54226 0.6861 0.3685 0.0
C270 C 0.57273 0.7178 0.37669 0.0
C271 C 0.57659 0.76076 0.34913 0.0
C272 C 0.55128 0.7708 0.31193 0.0
C273 C 0.52196 0.73799 0.30377 0.0
C274 C 0.51679 0.69718 0.33217 0.0
C275 C 0.48402 0.66668 0.31513 0.0
C276 C 0.49667 0.61453 0.30138 0.0
C277 C 0.45265 0.66569 0.35299 0.0
C278 C 0.47235 0.6956 0.2716 0.0
C279 C 0.49463 0.73649 0.26537 0.0
C280 C 0.49133 0.76603 0.22494 0.0
C281 C 0.46439 0.75364 0.19032 0.0
C282 C 0.44083 0.71257 0.19683 0.0
C283 C 0.44475 0.68357 0.23818 0.0
H284 H 0.07019 0.0436 0.10952 0.0
H285 H 0.10363 0.09046 0.96722 0.0
H286 H 0.05594 0.03694 0.9319 0.0
H287 H 0.05056 0.91516 0.07541 0.0
H288 H 1.01054 0.91004 0.11465 0.0
H289 H 0.04847 0.95074 0.12985 0.0
H290 H 1.0014 0.02273 0.1365 0.0
H291 H 0.96339 0.98237 0.12088 0.0
H292 H 0.97164 0.0369 0.08634 0.0
H293 H 1.00308 0.98358 0.9109 0.0
H294 H 0.95042 0.9267 0.90427 0.0
H295 H 0.94948 0.90894 0.05886 0.0
C296 C 0.06783 0.04198 0.07093 0.0
C297 C 0.09089 0.07171 0.04131 0.0
C298 C 0.08647 0.06858 0.99094 0.0
C299 C 0.05933 0.03817 0.97035 0.0
C300 C 0.03659 0.01046 1.00031 0.0
C301 C 0.04065 0.01135 0.04944 0.0
C302 C 1.01189 0.97761 0.07281 0.0
C303 C 0.03154 0.93591 0.09978 0.0
C304 C 0.98552 0.00665 0.10611 0.0
C305 C 0.99098 0.95827 0.02907 0.0
C306 C 1.00587 0.97815 0.98783 0.0
C307 C 0.99133 0.96743 0.94289 0.0
C308 C 0.9611 0.93501 0.93962 0.0
C309 C 0.94541 0.91286 0.98096 0.0
C310 C 0.96066 0.92501 1.02648 0.0
H311 H 0.55636 0.60059 0.53818 0.0
H312 H 0.62491 0.50933 0.44461 0.0
H313 H 0.57845 0.44348 0.45054 0.0
H314 H 0.52633 0.50033 0.61619 0.0
H315 H 0.47977 0.52476 0.62486 0.0
H316 H 0.51846 0.56549 0.61356 0.0
H317 H 0.48251 0.60195 0.54157 0.0
H318 H 0.44396 0.56076 0.55218 0.0
H319 H 0.46658 0.56191 0.49441 0.0
H320 H 0.52415 0.38914 0.46195 0.0
H321 H 0.46885 0.34317 0.48805 0.0
H322 H 0.43478 0.46524 0.57865 0.0
C323 C 0.56177 0.56656 0.51935 0.0
C324 C 0.59447 0.56055 0.49069 0.0
C325 C 0.60033 0.51525 0.46677 0.0
C326 C 0.57391 0.47752 0.46966 0.0
C327 C 0.54174 0.48505 0.49707 0.0
C328 C 0.53575 0.5279 0.52234 0.0
C329 C 0.49906 0.52523 0.55037 0.0
C330 C 0.50635 0.52918 0.60446 0.0
C331 C 0.47139 0.56483 0.53362 0.0
C332 C 0.48547 0.47426 0.53662 0.0
C333 C 0.5105 0.45232 0.5053 0.0
C334 C 0.50451 0.40568 0.48685 0.0
C335 C 0.47281 0.37988 0.50193 0.0
C336 C 0.44734 0.40019 0.53579 0.0
C337 C 0.45346 0.44864 0.5526 0.0
H338 H 0.45951 0.59275 0.99306 0.0
H339 H 0.42729 0.53337 0.13148 0.0
H340 H 0.47669 0.47195 0.12499 0.0
H341 H 0.48102 0.47213 0.93898 0.0
H342 H 0.52051 0.49402 0.90484 0.0
H343 H 0.4822 0.5348 0.91905 0.0
H344 H 0.52887 0.59532 0.95808 0.0
H345 H 0.56726 0.55449 0.9444 0.0
H346 H 0.55927 0.57426 1.00521 0.0
H347 H 0.53059 0.42017 0.10852 0.0
H348 H 0.58283 0.37158 0.0773 0.0
H349 H 0.58164 0.45648 0.94591 0.0
C350 C 0.46267 0.56652 1.02171 0.0
C351 C 0.43928 0.56876 0.06305 0.0
C352 C 0.44456 0.53334 0.09953 0.0
C353 C 0.4728 0.49802 0.09636 0.0
C354 C 0.49571 0.49745 0.05613 0.0
C355 C 0.49082 0.52989 1.01888 0.0
C356 C 0.51945 0.51922 0.97932 0.0
C357 C 0.49961 0.50415 0.93278 0.0
C358 C 0.54524 0.56347 0.97129 0.0
C359 C 0.54107 0.47625 1.00077 0.0
C360 C 0.52679 0.46509 0.04536 0.0
C361 C 0.54182 0.42806 0.07338 0.0
C362 C 0.57175 0.40062 0.05514 0.0
C363 C 0.58654 0.40952 1.00877 0.0
C364 C 0.57111 0.4485 0.9814 0.0
H365 H 0.95866 0.09138 0.55456 0.0
H366 H 0.92874 0.03723 0.41318 0.0
H367 H 0.97513 0.97166 0.42048 0.0
H368 H 0.05814 0.06566 0.54559 0.0
H369 H 0.06321 0.04531 0.60651 0.0
H370 H 0.0273 0.08916 0.59154 0.0
H371 H 0.97668 0.03252 0.62794 0.0
H372 H 1.01247 0.98865 0.64329 0.0
H373 H 0.97309 0.97011 0.60722 0.0
H374 H 0.0254 0.91336 0.43989 0.0
H375 H 0.07443 0.86075 0.47351 0.0
H376 H 0.07316 0.94725 0.60447 0.0
C377 C 0.96176 0.06557 0.5253 0.0
C378 C 0.93979 0.07017 0.48311 0.0
C379 C 0.94495 0.03524 0.44584 0.0
C380 C 0.97144 -0.00241 0.44951 0.0
C381 C 0.99282 -0.00555 0.4909 0.0
C382 C 0.98822 0.02697 0.52848 0.0
C383 C 1.01496 0.01397 0.56911 0.0
C384 C 0.04254 0.05604 0.57875 0.0
C385 C 0.99299 0.00051 0.61459 0.0
C386 C 0.03515 0.96939 0.54814 0.0
C387 C 0.02186 0.9593 0.50282 0.0
C388 C 0.03593 0.92066 0.47549 0.0
C389 C 0.06397 0.89092 0.49505 0.0
C390 C 0.07789 0.89933 0.54189 0.0
C391 C 0.06328 0.93959 0.56862 0.0
H392 H 0.28695 0.82437 0.11303 0.0
H393 H 0.39869 0.86622 0.06746 0.0
H394 H 0.38215 0.95368 0.08134 0.0
H395 H 0.23925 0.91173 0.05522 0.0
H396 H 0.20408 0.92211 0.10064 0.0
H397 H 0.22694 0.86363 0.09636 0.0
H398 H 0.2481 0.86995 0.18479 0.0
H399 H 0.22463 0.92827 0.18988 0.0
H400 H 0.27365 0.92309 0.20473 0.0
H401 H 0.34951 0.03526 0.08773 0.0
H402 H 0.30533 0.10474 0.08955 0.0
H403 H 0.21521 0.00668 0.13085 0.0
C404 C 0.30829 0.85184 0.10699 0.0
C405 C 0.3439 0.83923 0.08886 0.0
C406 C 0.37126 0.87572 0.0815 0.0
C407 C 0.36209 0.92516 0.08937 0.0
C408 C 0.32592 0.93649 0.10551 0.0
C409 C 0.29973 0.90062 0.11499 0.0
C410 C 0.26182 0.92166 0.12768 0.0
C411 C 0.23127 0.90373 0.09288 0.0
C412 C 0.25146 0.91007 0.17988 0.0
C413 C 0.27 0.97524 0.12118 0.0
C414 C 0.30723 0.98324 0.1093 0.0
C415 C 0.32055 0.02957 0.09802 0.0
C416 C 0.29516 0.06867 0.09889 0.0
C417 C 0.25684 0.06094 0.11044 0.0
C418 C 0.24433 0.01369 0.12215 0.0
H419 H 0.22312 0.64688 0.63837 0.0
H420 H 0.13304 0.61273 0.5402 0.0
H421 H 0.15288 0.52556 0.53962 0.0
H422 H 0.28969 0.58103 0.58482 0.0
H423 H 0.31338 0.55958 0.63767 0.0
H424 H 0.28722 0.6158 0.63977 0.0
H425 H 0.24685 0.5836 0.71002 0.0
H426 H 0.2736 0.52751 0.70934 0.0
H427 H 0.22322 0.52559 0.70432 0.0
H428 H 0.19042 0.44791 0.53725 0.0
H429 H 0.23797 0.38236 0.54027 0.0
H430 H 0.30331 0.46874 0.64073 0.0
C431 C 0.20672 0.62048 0.61834 0.0
C432 C 0.1766 0.63564 0.58956 0.0
C433 C 0.15586 0.60104 0.56301 0.0
C434 C 0.16705 0.55175 0.56239 0.0
C435 C 0.19839 0.53832 0.58925 0.0
C436 C 0.21734 0.57155 0.61769 0.0
C437 C 0.25233 0.5496 0.63922 0.0
C438 C 0.28771 0.57821 0.62444 0.0
C439 C 0.24876 0.54637 0.69397 0.0
C440 C 0.25138 0.49958 0.61628 0.0
C441 C 0.21989 0.49347 0.58807 0.0
C442 C 0.21467 0.45175 0.56016 0.0
C443 C 0.24205 0.41499 0.56178 0.0
C444 C 0.2743 0.42041 0.59095 0.0
C445 C 0.27884 0.4633 0.61846 0.0
H446 H 0.71498 0.47559 1.00211 0.0
H447 H 0.80917 0.38972 0.94976 0.0
H448 H 0.85188 0.45864 0.96653 0.0
H449 H 0.7406 0.58533 0.95277 0.0
H450 H 0.72535 0.62272 1.00248 0.0
H451 H 0.70365 0.56445 0.99184 0.0
H452 H 0.72007 0.53804 0.07848 0.0
H453 H 0.74236 0.59626 0.08907 0.0
H454 H 0.76813 0.54027 0.0983 0.0
H455 H 0.88212 0.54036 0.9775 0.0
H456 H 0.89683 0.62881 0.98128 0.0
H457 H 0.78379 0.65799 0.03246 0.0
C458 C 0.74466 0.47127 0.9947 0.0
C459 C 0.7589 0.42787 0.97451 0.0
C460 C 0.79786 0.42299 0.96541 0.0
C461 C 0.82234 0.46169 0.97508 0.0
C462 C 0.80742 0.5043 0.99486 0.0
C463 C 0.76953 0.50908 1.00502 0.0
C464 C 0.76008 0.55972 1.0229 0.0
C465 C 0.73072 0.58449 0.99055 0.0
C466 C 0.74689 0.55847 0.07531 0.0
C467 C 0.7981 0.58345 1.01844 0.0
C468 C 0.82527 0.55088 1.00296 0.0
C469 C 0.86141 0.56608 0.99083 0.0
C470 C 0.86954 0.61625 0.99307 0.0
C471 C 0.84143 0.65005 1.00705 0.0
C472 C 0.80595 0.63299 1.02182 0.0
H473 H 0.81676 0.01441 0.47547 0.0
H474 H 0.71892 0.10918 0.47959 0.0
H475 H 0.67836 0.03697 0.49276 0.0
H476 H 0.77768 0.92223 0.40913 0.0
H477 H 0.8011 0.87305 0.43987 0.0
H478 H 0.82224 0.93262 0.43777 0.0
H479 H 0.8256 0.93474 0.53056 0.0
H480 H 0.80449 0.8749 0.53295 0.0
H481 H 0.78352 0.92529 0.56523 0.0
H482 H 0.64821 0.9521 0.49702 0.0
H483 H 0.63232 0.86355 0.49043 0.0
H484 H 0.75088 0.82853 0.4831 0.0
C485 C 0.78687 0.02019 0.4798 0.0
C486 C 0.77092 0.06716 0.47626 0.0
C487 C 0.73168 0.07328 0.48227 0.0
C488 C 0.70846 0.03259 0.48991 0.0
C489 C 0.72512 0.98645 0.49211 0.0
C490 C 0.76353 0.98033 0.48761 0.0
C491 C 0.77464 0.92716 0.48755 0.0
C492 C 0.79509 0.91297 0.4408 0.0
C493 C 0.79846 0.91481 0.53171 0.0
C494 C 0.73641 0.90409 0.49059 0.0
C495 C 0.70804 0.93846 0.49412 0.0
C496 C 0.67024 0.92486 0.49483 0.0
C497 C 0.66144 0.87479 0.49105 0.0
C498 C 0.69042 0.83981 0.48567 0.0
C499 C 0.72816 0.85475 0.48659 0.0
H500 H 0.74423 0.14973 1.01192 0.0
H501 H 0.63738 0.12986 0.94013 0.0
H502 H 0.65412 0.04304 0.92412 0.0
H503 H 0.79696 0.08742 0.92943 0.0
H504 H 0.82923 0.06147 0.97198 0.0
H505 H 0.80624 0.11863 0.98513 0.0
H506 H 0.77953 0.08334 0.06423 0.0
H507 H 0.80321 0.02629 0.05201 0.0
H508 H 0.75335 0.02696 0.06287 0.0
H509 H 0.68545 0.9603 0.91158 0.0
H510 H 0.72826 0.88905 0.9034 0.0
H511 H 0.81569 0.96954 0.97685 0.0
C512 C 0.72385 0.12713 0.99356 0.0
C513 C 0.68952 0.14634 0.97714 0.0
C514 C 0.66374 0.11551 0.95327 0.0
C515 C 0.67306 0.06639 0.94396 0.0
C516 C 0.70807 0.04939 0.95891 0.0
C517 C 0.73288 0.07896 0.98343 0.0
C518 C 0.77001 0.05415 0.99211 0.0
C519 C 0.8025 0.08209 0.96821 0.0
C520 C 0.77691 0.04726 0.046 0.0
C521 C 0.76278 0.00611 0.96749 0.0
C522 C 0.72672 0.00347 0.94935 0.0
C523 C 0.71369 0.962 0.92562 0.0
C524 C 0.73811 0.92203 0.92095 0.0
C525 C 0.77515 0.92478 0.93891 0.0
C526 C 0.78768 0.9673 0.96203 0.0
H527 H 0.73095 0.5177 0.40723 0.0
H528 H 0.80347 0.60751 0.49581 0.0
H529 H 0.8477 0.53836 0.50349 0.0
H530 H 0.73897 0.41354 0.47472 0.0
H531 H 0.73796 0.3713 0.42498 0.0
H532 H 0.71566 0.43006 0.41991 0.0
H533 H 0.75559 0.44833 0.34424 0.0
H534 H 0.77812 0.38946 0.34952 0.0
H535 H 0.80601 0.4444 0.34739 0.0
H536 H 0.88085 0.45698 0.5081 0.0
H537 H 0.89641 0.36847 0.5147 0.0
H538 H 0.80085 0.33331 0.42566 0.0
C539 C 0.75657 0.52319 0.42728 0.0
C540 C 0.76394 0.56792 0.45061 0.0
C541 C 0.79732 0.57342 0.47755 0.0
C542 C 0.82278 0.53454 0.48178 0.0
C543 C 0.81443 0.49059 0.45881 0.0
C544 C 0.78202 0.48474 0.4322 0.0
C545 C 0.77716 0.43243 0.41582 0.0
C546 C 0.74028 0.41057 0.43505 0.0
C547 C 0.77937 0.42845 0.36098 0.0
C548 C 0.81103 0.40944 0.43903 0.0
C549 C 0.83285 0.44358 0.46261 0.0
C550 C 0.86433 0.42998 0.48918 0.0
C551 C 0.87303 0.37993 0.49271 0.0
C552 C 0.84972 0.34486 0.47061 0.0
C553 C 0.81909 0.35985 0.4426 0.0
H554 H 0.24331 0.33273 0.03028 0.0
H555 H 0.13119 0.35981 0.08553 0.0
H556 H 0.14498 0.4488 0.08829 0.0
H557 H 0.28778 0.40771 0.10679 0.0
H558 H 0.32325 0.42831 0.06546 0.0
H559 H 0.3019 0.36945 0.05714 0.0
H560 H 0.28174 0.39313 0.97116 0.0
H561 H 0.3037 0.45203 0.97879 0.0
H562 H 0.25504 0.44836 0.96177 0.0
H563 H 0.17453 0.53274 0.09471 0.0
H564 H 0.2171 0.60325 0.10658 0.0
H565 H 0.31041 0.51679 0.05293 0.0
C566 C 0.22117 0.35729 0.04195 0.0
C567 C 0.1862 0.33957 0.05785 0.0
C568 C 0.1581 0.3729 0.07292 0.0
C569 C 0.1657 0.42334 0.0745 0.0
C570 C 0.20129 0.43924 0.06052 0.0
C571 C 0.22842 0.40701 0.04426 0.0
C572 C 0.2659 0.43146 0.03721 0.0
C573 C 0.29647 0.40783 0.06853 0.0
C574 C 0.27725 0.43124 0.98407 0.0
C575 C 0.25627 0.48226 0.05422 0.0
C576 C 0.21869 0.4866 0.06624 0.0
C577 C 0.20384 0.52989 0.08485 0.0
C578 C 0.22817 0.56953 0.0916 0.0
C579 C 0.26687 0.5648 0.08091 0.0
C580 C 0.28092 0.52093 0.06159 0.0
H581 H 0.2118 0.96758 0.63032 0.0
H582 H 0.28916 0.88 0.54547 0.0
H583 H 0.33305 0.9501 0.54181 0.0
H584 H 0.22496 0.07924 0.5709 0.0
H585 H 0.22185 0.11582 0.62462 0.0
H586 H 0.19791 0.05805 0.62133 0.0
H587 H 0.23248 0.02963 0.69806 0.0
H588 H 0.25696 0.08721 0.70111 0.0
H589 H 0.28303 0.03061 0.69968 0.0
H590 H 0.36577 0.03177 0.54302 0.0
H591 H 0.38435 0.11881 0.54805 0.0
H592 H 0.28653 0.14891 0.63661 0.0
C593 C 0.23789 0.96319 0.61076 0.0
C594 C 0.24714 0.91889 0.58775 0.0
C595 C 0.28174 0.91404 0.56318 0.0
C596 C 0.3068 0.95339 0.56114 0.0
C597 C 0.29692 -0.0034 0.58466 0.0
C598 C 0.26337 0.00153 0.60918 0.0
C599 C 0.25884 0.05187 0.63065 0.0
C600 C 0.22384 0.07775 0.61065 0.0
C601 C 0.25778 0.04967 0.68563 0.0
C602 C 0.29455 0.07514 0.61301 0.0
C603 C 0.31635 0.04276 0.58684 0.0
C604 C 0.34925 0.05733 0.56402 0.0
C605 C 0.35954 0.10672 0.56705 0.0
C606 C 0.33686 0.1405 0.59268 0.0
C607 C 0.30467 0.12397 0.61707 0.0
H608 H 0.18159 0.23915 0.90891 0.0
H609 H 0.27146 0.14795 0.96429 0.0
H610 H 0.31004 0.16718 0.8941 0.0
H611 H 0.19814 0.205 0.7808 0.0
H612 H 0.18692 0.26554 0.75966 0.0
H613 H 0.16496 0.24254 0.81321 0.0
H614 H 0.18855 0.3185 0.8599 0.0
H615 H 0.21114 0.3413 0.80676 0.0
H616 H 0.238 0.33215 0.86056 0.0
H617 H 0.34254 0.20413 0.82424 0.0
H618 H 0.36293 0.24506 0.74998 0.0
H619 H 0.25147 0.30659 0.73314 0.0
C620 C 0.20897 0.22223 0.90567 0.0
C621 C 0.22335 0.19222 0.94275 0.0
C622 C 0.2596 0.17126 0.93693 0.0
C623 C 0.28196 0.18207 0.89709 0.0
C624 C 0.26768 0.21322 0.86237 0.0
C625 C 0.23169 0.23199 0.86534 0.0
C626 C 0.22356 0.26447 0.8224 0.0
C627 C 0.19149 0.2431 0.79223 0.0
C628 C 0.2148 0.31723 0.83838 0.0
C629 C 0.26083 0.26167 0.79568 0.0
C630 C 0.28596 0.23237 0.81993 0.0
C631 C 0.32292 0.22645 0.80442 0.0
C632 C 0.33436 0.25021 0.76244 0.0
C633 C 0.30882 0.27883 0.73574 0.0
C634 C 0.27151 0.28457 0.75267 0.0
H635 H 0.20802 0.17965 0.27528 0.0
H636 H 0.27464 0.27387 0.18358 0.0
H637 H 0.31123 0.30099 0.25315 0.0
H638 H 0.20481 0.26475 0.37637 0.0
H639 H 0.20775 0.21717 0.42072 0.0
H640 H 0.18646 0.20467 0.36356 0.0
H641 H 0.23246 0.13228 0.35041 0.0
H642 H 0.25399 0.14472 0.40741 0.0
H643 H 0.28229 0.14292 0.35386 0.0
H644 H 0.34335 0.31507 0.33166 0.0
H645 H 0.36503 0.32017 0.41553 0.0
H646 H 0.27598 0.22122 0.45818 0.0
C647 C 0.23021 0.20609 0.26991 0.0
C648 C 0.23837 0.22435 0.22365 0.0
C649 C 0.26758 0.25923 0.21842 0.0
C650 C 0.28874 0.27487 0.2578 0.0
C651 C 0.28025 0.25595 0.30267 0.0
C652 C 0.2514 0.22282 0.30918 0.0
C653 C 0.24782 0.20911 0.36164 0.0
C654 C 0.20943 0.22488 0.38175 0.0
C655 C 0.25455 0.15398 0.36873 0.0
C656 C 0.27939 0.23925 0.38326 0.0
C657 C 0.29791 0.26568 0.34848 0.0
C658 C 0.32885 0.29489 0.35932 0.0
C659 C 0.34107 0.29744 0.40703 0.0
C660 C 0.32214 0.27145 0.44354 0.0
C661 C 0.29083 0.24204 0.43123 0.0
H662 H 0.81168 0.19014 0.28839 0.0
H663 H 0.73569 0.26996 0.38193 0.0
H664 H 0.70094 0.30009 0.31132 0.0
H665 H 0.81652 0.28472 0.19831 0.0
H666 H 0.81969 0.24197 0.14914 0.0
H667 H 0.83748 0.22533 0.20714 0.0
H668 H 0.79524 0.14821 0.20699 0.0
H669 H 0.77727 0.16468 0.14907 0.0
H670 H 0.7454 0.1549 0.19828 0.0
H671 H 0.67178 0.31675 0.22969 0.0
H672 H 0.65563 0.32672 0.14379 0.0
H673 H 0.75454 0.24349 0.10395 0.0
C674 C 0.78753 0.21365 0.29397 0.0
C675 C 0.77595 0.22701 0.34067 0.0
C676 C 0.74484 0.25891 0.34649 0.0
C677 C 0.72491 0.27614 0.30659 0.0
C678 C 0.73689 0.26201 0.261 0.0
C679 C 0.7679 0.23216 0.2545 0.0
C680 C 0.77614 0.22433 0.20175 0.0
C681 C 0.81474 0.24535 0.18831 0.0
C682 C 0.77333 0.16979 0.18824 0.0
C683 C 0.7446 0.25376 0.17955 0.0
C684 C 0.7219 0.27469 0.21426 0.0
C685 C 0.68972 0.30119 0.20224 0.0
C686 C 0.68069 0.30663 0.15353 0.0
C687 C 0.70423 0.28666 0.11761 0.0
C688 C 0.73657 0.26003 0.13088 0.0
H689 H 0.77499 0.23562 0.60323 0.0
H690 H 0.8874 0.19355 0.64561 0.0
H691 H 0.87107 0.2119 0.73036 0.0
H692 H 0.76759 0.33808 0.68456 0.0
H693 H 0.71823 0.32929 0.69569 0.0
H694 H 0.73836 0.31075 0.63923 0.0
H695 H 0.71302 0.22288 0.6515 0.0
H696 H 0.69273 0.24122 0.70791 0.0
H697 H 0.7248 0.19015 0.70531 0.0
H698 H 0.84058 0.23097 0.81117 0.0
H699 H 0.8013 0.25622 0.8801 0.0
H700 H 0.71071 0.29381 0.78379 0.0
C701 C 0.79612 0.22975 0.6304 0.0
C702 C 0.83235 0.2122 0.61795 0.0
C703 C 0.85945 0.20647 0.65439 0.0
C704 C 0.85035 0.2168 0.70255 0.0
C705 C 0.8143 0.23397 0.71352 0.0
C706 C 0.78781 0.24108 0.67828 0.0
C707 C 0.75166 0.26202 0.69896 0.0
C708 C 0.7435 0.31307 0.67839 0.0
C709 C 0.71861 0.22697 0.69041 0.0
C710 C 0.7616 0.26501 0.75165 0.0
C711 C 0.79773 0.24808 0.75934 0.0
C712 C 0.81251 0.24485 0.80534 0.0
C713 C 0.78994 0.25919 0.84431 0.0
C714 C 0.75313 0.27754 0.83728 0.0
C715 C 0.73897 0.2808 0.79017 0.0
H716 H 0.85148 0.75777 0.14279 0.0
H717 H 0.76506 0.85694 0.09202 0.0
H718 H 0.72794 0.84147 0.16467 0.0
H719 H 0.79215 0.67027 0.19124 0.0
H720 H 0.81971 0.65693 0.24359 0.0
H721 H 0.84222 0.67936 0.19028 0.0
H722 H 0.87091 0.75147 0.23806 0.0
H723 H 0.84906 0.72878 0.29182 0.0
H724 H 0.84063 0.79085 0.27293 0.0
H725 H 0.6954 0.80564 0.23554 0.0
H726 H 0.67418 0.76211 0.30815 0.0
H727 H 0.78274 0.69113 0.31861 0.0
C728 C 0.82539 0.77757 0.14772 0.0
C729 C 0.81132 0.80864 0.11134 0.0
C730 C 0.77658 0.83296 0.11907 0.0
C731 C 0.75513 0.82429 0.16027 0.0
C732 C 0.76888 0.79178 0.19423 0.0
C733 C 0.80362 0.76974 0.18921 0.0
C734 C 0.81107 0.73522 0.23075 0.0
C735 C 0.81661 0.68232 0.21288 0.0
C736 C 0.84493 0.75263 0.26014 0.0
C737 C 0.77475 0.7405 0.25906 0.0
C738 C 0.75069 0.77298 0.23693 0.0
C739 C 0.71431 0.781 0.25382 0.0
C740 C 0.70238 0.75586 0.29483 0.0
C741 C 0.7269 0.72374 0.31915 0.0
C742 C 0.76364 0.71614 0.30108 0.0
H743 H 0.81592 0.79312 0.78157 0.0
H744 H 0.75029 0.6994 0.87458 0.0
H745 H 0.71509 0.66887 0.80429 0.0
H746 H 0.74238 0.82657 0.70231 0.0
H747 H 0.7716 0.82557 0.64956 0.0
H748 H 0.7919 0.83896 0.70705 0.0
H749 H 0.83956 0.76808 0.69539 0.0
H750 H 0.81946 0.75463 0.63776 0.0
H751 H 0.82265 0.70733 0.68236 0.0
H752 H 0.68435 0.65212 0.72255 0.0
H753 H 0.66447 0.64709 0.63761 0.0
H754 H 0.75236 0.74948 0.59929 0.0
C755 C 0.79427 0.766 0.78727 0.0
C756 C 0.78584 0.7489 0.83383 0.0
C757 C 0.75738 0.71312 0.8394 0.0
C758 C 0.73713 0.69563 0.79962 0.0
C759 C 0.74587 0.71379 0.7543 0.0
C760 C 0.77409 0.74784 0.74801 0.0
C761 C 0.7783 0.76152 0.69576 0.0
C762 C 0.77057 0.8164 0.68825 0.0
C763 C 0.81731 0.74701 0.6767 0.0
C764 C 0.74781 0.73029 0.67357 0.0
C765 C 0.72919 0.70314 0.70776 0.0
C766 C 0.69905 0.67293 0.69551 0.0
C767 C 0.68785 0.67036 0.64718 0.0
C768 C 0.70696 0.69747 0.61152 0.0
C769 C 0.73737 0.72767 0.62534 0.0
H770 H 0.20679 0.71705 0.75144 0.0
H771 H 0.27817 0.83637 0.70591 0.0
H772 H 0.31976 0.82202 0.77536 0.0
H773 H 0.21266 0.74529 0.87769 0.0
H774 H 0.21206 0.68222 0.8964 0.0
H775 H 0.18945 0.69979 0.84151 0.0
H776 H 0.22924 0.63569 0.79529 0.0
H777 H 0.25234 0.61831 0.84996 0.0
H778 H 0.27968 0.6378 0.79915 0.0
H779 H 0.35426 0.7938 0.84873 0.0
H780 H 0.37464 0.76235 0.92694 0.0
H781 H 0.27848 0.66505 0.93009 0.0
C782 C 0.23125 0.73998 0.75627 0.0
C783 C 0.23952 0.77773 0.72333 0.0
C784 C 0.27146 0.80737 0.73084 0.0
C785 C 0.2953 0.79926 0.77 0.0
C786 C 0.28659 0.7617 0.80186 0.0
C787 C 0.25498 0.73306 0.79598 0.0
C788 C 0.25084 0.69734 0.83733 0.0
C789 C 0.21408 0.70674 0.86486 0.0
C790 C 0.25317 0.64413 0.81935 0.0
C791 C 0.28492 0.71057 0.86745 0.0
C792 C 0.30551 0.7471 0.84568 0.0
C793 C 0.33827 0.76532 0.86618 0.0
C794 C 0.34978 0.74689 0.91066 0.0
C795 C 0.32833 0.71106 0.93508 0.0
C796 C 0.29568 0.69227 0.91252 0.0
H797 H 0.25082 0.73141 0.45226 0.0
H798 H 0.14845 0.80687 0.41325 0.0
H799 H 0.16609 0.80008 0.32742 0.0
H800 H 0.31165 0.7795 0.36017 0.0
H801 H 0.33561 0.72219 0.35 0.0
H802 H 0.31606 0.73587 0.40807 0.0
H803 H 0.27758 0.65558 0.4051 0.0
H804 H 0.29708 0.64165 0.34708 0.0
H805 H 0.24692 0.64422 0.35509 0.0
H806 H 0.19711 0.78803 0.24553 0.0
H807 H 0.23375 0.76202 0.17442 0.0
H808 H 0.3123 0.68622 0.26649 0.0
C809 C 0.23232 0.74682 0.42556 0.0
C810 C 0.19852 0.77038 0.43926 0.0
C811 C 0.17452 0.78899 0.4034 0.0
C812 C 0.18443 0.78542 0.35465 0.0
C813 C 0.21801 0.76203 0.34225 0.0
C814 C 0.24123 0.74222 0.37671 0.0
C815 C 0.27442 0.71597 0.35387 0.0
C816 C 0.31163 0.73982 0.36893 0.0
C817 C 0.27395 0.6611 0.36601 0.0
C818 C 0.26649 0.7244 0.30119 0.0
C819 C 0.2342 0.75182 0.29524 0.0
C820 C 0.22211 0.76597 0.24986 0.0
C821 C 0.24318 0.75113 0.20963 0.0
C822 C 0.2756 0.72147 0.21474 0.0
C823 C 0.28732 0.70818 0.26131 0.0
loop_
_geom_bond_atom_site_label_1
_geom_bond_atom_site_label_2
_geom_bond_distance
_geom_bond_site_symmetry_2
_ccdc_geom_bond_type
Fe0 O2 1.918 . S
Fe0 O5 1.997 . S
Fe0 O6 2.002 . S
Fe0 O11 1.976 . S
Fe0 O14 1.996 . S
Fe1 O2 1.918 . S
Fe1 O9 1.997 . S
Fe1 O12 1.996 . S
Fe1 O16 1.976 . S
Fe1 O19 2.002 . S
O2 Fe0 1.918 . S
O2 Fe1 1.918 . S
O2 Fe3 1.918 . S
Fe3 O2 1.918 . S
Fe3 O4 2.002 . S
Fe3 O13 1.976 . S
Fe3 O17 1.996 . S
Fe3 O20 1.997 . S
O4 Fe3 2.002 . S
O4 C21 1.295 . S
O5 Fe0 1.997 . S
O5 C21 1.235 . S
O6 Fe0 2.002 . S
O6 C7 1.295 . S
C7 O6 1.295 . S
C7 O9 1.235 . S
C8 O13 1.287 . S
C8 O14 1.255 . S
O9 Fe1 1.997 . S
O9 C7 1.235 . S
C10 O16 1.271 1_556 S
C10 O17 1.251 1_556 S
O11 Fe0 1.976 . S
O11 C18 1.287 . S
O12 Fe1 1.996 . S
O12 C18 1.255 . S
O13 Fe3 1.976 . S
O13 C8 1.287 . S
O14 Fe0 1.996 . S
O14 C8 1.255 . S
C15 O19 1.295 . S
C15 O20 1.235 . S
O16 Fe1 1.976 . S
O16 C10 1.271 1_554 S
O17 Fe3 1.996 . S
O17 C10 1.251 1_554 S
C18 O11 1.287 . S
C18 O12 1.255 . S
O19 Fe1 2.002 . S
O19 C15 1.295 . S
O20 Fe3 1.997 . S
O20 C15 1.235 . S
C21 O4 1.295 . S
C21 O5 1.235 . S
Fe22 O24 1.918 . S
Fe22 O27 1.997 . S
Fe22 O28 2.002 . S
Fe22 O33 1.976 . S
Fe22 O36 1.996 . S
Fe23 O24 1.918 . S
Fe23 O31 1.997 . S
Fe23 O34 1.996 . S
Fe23 O38 1.976 . S
Fe23 O41 2.002 . S
O24 Fe22 1.918 . S
O24 Fe23 1.918 . S
O24 Fe25 1.918 . S
Fe25 O24 1.918 . S
Fe25 O26 2.002 . S
Fe25 O35 1.976 . S
Fe25 O39 1.996 . S
Fe25 O42 1.997 . S
O26 Fe25 2.002 . S
O26 C43 1.295 . S
O27 Fe22 1.997 . S
O27 C43 1.235 . S
O28 Fe22 2.002 . S
O28 C29 1.295 . S
C29 O28 1.295 . S
C29 O31 1.235 . S
C30 O35 1.287 . S
C30 O36 1.255 . S
O31 Fe23 1.997 . S
O31 C29 1.235 . S
C32 O38 1.287 . S
C32 O39 1.255 . S
O33 Fe22 1.976 . S
O33 C40 1.287 . S
O34 Fe23 1.996 . S
O34 C40 1.255 . S
O35 Fe25 1.976 . S
O35 C30 1.287 . S
O36 Fe22 1.996 . S
O36 C30 1.255 . S
C37 O41 1.295 . S
C37 O42 1.235 . S
O38 Fe23 1.976 . S
O38 C32 1.287 . S
O39 Fe25 1.996 . S
O39 C32 1.255 . S
C40 O33 1.287 . S
C40 O34 1.255 . S
O41 Fe23 2.002 . S
O41 C37 1.295 . S
O42 Fe25 1.997 . S
O42 C37 1.235 . S
C43 O26 1.295 . S
C43 O27 1.235 . S
Fe44 O46 1.918 . S
Fe44 O49 1.997 . S
Fe44 O50 2.002 . S
Fe44 O55 1.976 . S
Fe44 O58 1.996 . S
Fe45 O46 1.918 . S
Fe45 O53 1.997 . S
Fe45 O56 1.996 . S
Fe45 O60 1.976 . S
Fe45 O63 2.002 . S
O46 Fe44 1.918 . S
O46 Fe45 1.918 . S
O46 Fe47 1.918 . S
Fe47 O46 1.918 . S
Fe47 O48 2.002 . S
Fe47 O57 1.976 . S
Fe47 O61 1.996 . S
Fe47 O64 1.997 . S
O48 Fe47 2.002 . S
O48 C65 1.295 . S
O49 Fe44 1.997 . S
O49 C65 1.235 . S
O50 Fe44 2.002 . S
O50 C51 1.295 . S
C51 O50 1.295 . S
C51 O53 1.235 . S
C52 O57 1.287 . S
C52 O58 1.255 . S
O53 Fe45 1.997 . S
O53 C51 1.235 . S
C54 O60 1.271 1_554 S
C54 O61 1.251 1_554 S
O55 Fe44 1.976 . S
O55 C62 1.287 . S
O56 Fe45 1.996 . S
O56 C62 1.255 . S
O57 Fe47 1.976 . S
O57 C52 1.287 . S
O58 Fe44 1.996 . S
O58 C52 1.255 . S
C59 O63 1.295 . S
C59 O64 1.235 . S
O60 Fe45 1.976 . S
O60 C54 1.271 1_556 S
O61 Fe47 1.996 . S
O61 C54 1.251 1_556 S
C62 O55 1.287 . S
C62 O56 1.255 . S
O63 Fe45 2.002 . S
O63 C59 1.295 . S
O64 Fe47 1.997 . S
O64 C59 1.235 . S
C65 O48 1.295 . S
C65 O49 1.235 . S
Fe66 O68 1.918 . S
Fe66 O71 1.997 . S
Fe66 O72 2.002 . S
Fe66 O77 1.976 . S
Fe66 O80 1.996 . S
Fe67 O68 1.918 . S
Fe67 O75 1.997 . S
Fe67 O78 1.996 . S
Fe67 O82 1.976 . S
Fe67 O85 2.002 . S
O68 Fe66 1.918 . S
O68 Fe67 1.918 . S
O68 Fe69 1.918 . S
Fe69 O68 1.918 . S
Fe69 O70 2.002 . S
Fe69 O79 1.976 . S
Fe69 O83 1.996 . S
Fe69 O86 1.997 . S
O70 Fe69 2.002 . S
O70 C87 1.295 . S
O71 Fe66 1.997 . S
O71 C87 1.235 . S
O72 Fe66 2.002 . S
O72 C73 1.295 . S
C73 O72 1.295 . S
C73 O75 1.235 . S
C74 O79 1.287 . S
C74 O80 1.255 . S
O75 Fe67 1.997 . S
O75 C73 1.235 . S
C76 O82 1.287 . S
C76 O83 1.255 . S
O77 Fe66 1.976 . S
O77 C84 1.287 . S
O78 Fe67 1.996 . S
O78 C84 1.255 . S
O79 Fe69 1.976 . S
O79 C74 1.287 . S
O80 Fe66 1.996 . S
O80 C74 1.255 . S
C81 O85 1.295 . S
C81 O86 1.235 . S
O82 Fe67 1.976 . S
O82 C76 1.287 . S
O83 Fe69 1.996 . S
O83 C76 1.255 . S
C84 O77 1.287 . S
C84 O78 1.255 . S
O85 Fe67 2.002 . S
O85 C81 1.295 . S
O86 Fe69 1.997 . S
O86 C81 1.235 . S
C87 O70 1.295 . S
C87 O71 1.235 . S
Fe88 O90 1.918 . S
Fe88 O93 1.997 . S
Fe88 O94 2.002 . S
Fe88 O99 1.976 . S
Fe88 O102 1.996 . S
Fe89 O90 1.918 . S
Fe89 O97 1.997 . S
Fe89 O100 1.996 . S
Fe89 O104 1.976 . S
Fe89 O107 2.002 . S
O90 Fe88 1.918 . S
O90 Fe89 1.918 . S
O90 Fe91 1.918 . S
Fe91 O90 1.918 . S
Fe91 O92 2.002 . S
Fe91 O101 1.976 . S
Fe91 O105 1.996 . S
Fe91 O108 1.997 . S
O92 Fe91 2.002 . S
O92 C109 1.295 . S
O93 Fe88 1.997 . S
O93 C109 1.235 . S
O94 Fe88 2.002 . S
O94 C95 1.295 . S
C95 O94 1.295 . S
C95 O97 1.235 . S
C96 O101 1.284 1_554 S
C96 O102 1.244 1_554 S
O97 Fe89 1.997 . S
O97 C95 1.235 . S
C98 O104 1.287 . S
C98 O105 1.255 . S
O99 Fe88 1.976 . S
O99 C106 1.287 . S
O100 Fe89 1.996 . S
O100 C106 1.255 . S
O101 Fe91 1.976 . S
O101 C96 1.284 1_556 S
O102 Fe88 1.996 . S
O102 C96 1.244 1_556 S
C103 O107 1.295 . S
C103 O108 1.235 . S
O104 Fe89 1.976 . S
O104 C98 1.287 . S
O105 Fe91 1.996 . S
O105 C98 1.255 . S
C106 O99 1.287 . S
C106 O100 1.255 . S
O107 Fe89 2.002 . S
O107 C103 1.295 . S
O108 Fe91 1.997 . S
O108 C103 1.235 . S
C109 O92 1.295 . S
C109 O93 1.235 . S
Fe110 O112 1.918 . S
Fe110 O115 1.997 . S
Fe110 O116 2.002 . S
Fe110 O121 1.976 . S
Fe110 O124 1.996 . S
Fe111 O112 1.918 . S
Fe111 O119 1.997 . S
Fe111 O122 1.996 . S
Fe111 O126 1.976 . S
Fe111 O129 2.002 . S
O112 Fe110 1.918 . S
O112 Fe111 1.918 . S
O112 Fe113 1.918 . S
Fe113 O112 1.918 . S
Fe113 O114 2.002 . S
Fe113 O123 1.976 . S
Fe113 O127 1.996 . S
Fe113 O130 1.997 . S
O114 Fe113 2.002 . S
O114 C131 1.295 . S
O115 Fe110 1.997 . S
O115 C131 1.235 . S
O116 Fe110 2.002 . S
O116 C117 1.295 . S
C117 O116 1.295 . S
C117 O119 1.235 . S
C118 O123 1.287 . S
C118 O124 1.255 . S
O119 Fe111 1.997 . S
O119 C117 1.235 . S
C120 O126 1.287 . S
C120 O127 1.255 . S
O121 Fe110 1.976 . S
O121 C128 1.287 . S
O122 Fe111 1.996 . S
O122 C128 1.255 . S
O123 Fe113 1.976 . S
O123 C118 1.287 . S
O124 Fe110 1.996 . S
O124 C118 1.255 . S
C125 O129 1.295 . S
C125 O130 1.235 . S
O126 Fe111 1.976 . S
O126 C120 1.287 . S
O127 Fe113 1.996 . S
O127 C120 1.255 . S
C128 O121 1.287 . S
C128 O122 1.255 . S
O129 Fe111 2.002 . S
O129 C125 1.295 . S
O130 Fe113 1.997 . S
O130 C125 1.235 . S
C131 O114 1.295 . S
C131 O115 1.235 . S
Fe132 O134 1.918 . S
Fe132 O137 1.997 . S
Fe132 O138 2.002 . S
Fe132 O143 1.976 . S
Fe132 O146 1.996 . S
Fe133 O134 1.918 . S
Fe133 O141 1.997 . S
Fe133 O144 1.996 . S
Fe133 O148 1.976 . S
Fe133 O151 2.002 . S
O134 Fe132 1.918 . S
O134 Fe133 1.918 . S
O134 Fe135 1.918 . S
Fe135 O134 1.918 . S
Fe135 O136 2.002 . S
Fe135 O145 1.976 . S
Fe135 O149 1.996 . S
Fe135 O152 1.997 . S
O136 Fe135 2.002 . S
O136 C153 1.295 . S
O137 Fe132 1.997 . S
O137 C153 1.235 . S
O138 Fe132 2.002 . S
O138 C139 1.295 . S
C139 O138 1.295 . S
C139 O141 1.235 . S
C140 O145 1.287 . S
C140 O146 1.255 . S
O141 Fe133 1.997 . S
O141 C139 1.235 . S
C142 O148 1.284 1_556 S
C142 O149 1.244 1_556 S
O143 Fe132 1.976 . S
O143 C150 1.287 . S
O144 Fe133 1.996 . S
O144 C150 1.255 . S
O145 Fe135 1.976 . S
O145 C140 1.287 . S
O146 Fe132 1.996 . S
O146 C140 1.255 . S
C147 O151 1.295 . S
C147 O152 1.235 . S
O148 Fe133 1.976 . S
O148 C142 1.284 1_554 S
O149 Fe135 1.996 . S
O149 C142 1.244 1_554 S
C150 O143 1.287 . S
C150 O144 1.255 . S
O151 Fe133 2.002 . S
O151 C147 1.295 . S
O152 Fe135 1.997 . S
O152 C147 1.235 . S
C153 O136 1.295 . S
C153 O137 1.235 . S
Fe154 O156 1.918 . S
Fe154 O159 1.997 . S
Fe154 O160 2.002 . S
Fe154 O165 1.976 . S
Fe154 O168 1.996 . S
Fe155 O156 1.918 . S
Fe155 O163 1.997 . S
Fe155 O166 1.996 . S
Fe155 O170 1.976 . S
Fe155 O173 2.002 . S
O156 Fe154 1.918 . S
O156 Fe155 1.918 . S
O156 Fe157 1.918 . S
Fe157 O156 1.918 . S
Fe157 O158 2.002 . S
Fe157 O167 1.976 . S
Fe157 O171 1.996 . S
Fe157 O174 1.997 . S
O158 Fe157 2.002 . S
O158 C175 1.295 . S
O159 Fe154 1.997 . S
O159 C175 1.235 . S
O160 Fe154 2.002 . S
O160 C161 1.295 . S
C161 O160 1.295 . S
C161 O163 1.235 . S
C162 O167 1.287 . S
C162 O168 1.255 . S
O163 Fe155 1.997 . S
O163 C161 1.235 . S
C164 O170 1.287 . S
C164 O171 1.255 . S
O165 Fe154 1.976 . S
O165 C172 1.287 . S
O166 Fe155 1.996 . S
O166 C172 1.255 . S
O167 Fe157 1.976 . S
O167 C162 1.287 . S
O168 Fe154 1.996 . S
O168 C162 1.255 . S
C169 O173 1.295 . S
C169 O174 1.235 . S
O170 Fe155 1.976 . S
O170 C164 1.287 . S
O171 Fe157 1.996 . S
O171 C164 1.255 . S
C172 O165 1.287 . S
C172 O166 1.255 . S
O173 Fe155 2.002 . S
O173 C169 1.295 . S
O174 Fe157 1.997 . S
O174 C169 1.235 . S
C175 O158 1.295 . S
C175 O159 1.235 . S
H176 C188 0.930 . S
H177 C190 0.930 . S
H178 C191 0.930 . S
H179 C195 0.959 . S
H180 C195 0.959 . S
H181 C195 0.961 . S
H182 C196 0.960 1_455 S
H183 C196 0.961 . S
H184 C196 0.959 . S
H185 C199 0.929 . S
H186 C200 0.931 . S
H187 C202 0.930 . S
C188 H176 0.930 . S
C188 C189 1.399 . S
C188 C193 1.399 . S
C189 C188 1.399 . S
C189 C190 1.376 . S
C190 H177 0.930 . S
C190 C189 1.376 . S
C190 C191 1.388 . S
C191 H178 0.930 . S
C191 C190 1.388 . S
C191 C192 1.390 . S
C192 C191 1.390 . S
C192 C193 1.394 . S
C192 C198 1.465 1_455 S
C193 C188 1.399 . S
C193 C192 1.394 . S
C193 C194 1.516 . S
C194 C193 1.516 . S
C194 C195 1.502 . S
C194 C196 1.561 1_455 S
C194 C197 1.526 1_455 S
C195 H179 0.959 . S
C195 H180 0.959 . S
C195 H181 0.961 . S
C195 C194 1.502 . S
C196 H182 0.960 1_655 S
C196 H183 0.961 . S
C196 H184 0.959 . S
C196 C194 1.561 1_655 S
C197 C194 1.526 1_655 S
C197 C198 1.396 . S
C197 C202 1.390 . S
C198 C192 1.465 1_655 S
C198 C197 1.396 . S
C198 C199 1.399 . S
C199 H185 0.929 . S
C199 C198 1.399 . S
C199 C200 1.385 . S
C200 H186 0.931 . S
C200 C199 1.385 . S
C200 C201 1.389 . S
C201 C200 1.389 . S
C201 C202 1.387 . S
C202 H187 0.930 . S
C202 C197 1.390 . S
C202 C201 1.387 . S
H203 C215 0.930 . S
H204 C217 0.930 . S
H205 C218 0.930 . S
H206 C222 0.959 . S
H207 C222 0.959 . S
H208 C222 0.961 . S
H209 C223 0.960 . S
H210 C223 0.961 . S
H211 C223 0.959 . S
H212 C226 0.929 . S
H213 C227 0.931 . S
H214 C229 0.930 . S
C215 H203 0.930 . S
C215 C216 1.399 . S
C215 C220 1.399 . S
C216 C215 1.399 . S
C216 C217 1.376 . S
C217 H204 0.930 . S
C217 C216 1.376 . S
C217 C218 1.388 . S
C218 H205 0.930 . S
C218 C217 1.388 . S
C218 C219 1.390 . S
C219 C218 1.390 . S
C219 C220 1.394 . S
C219 C225 1.465 . S
C220 C215 1.399 . S
C220 C219 1.394 . S
C220 C221 1.516 . S
C221 C220 1.516 . S
C221 C222 1.502 . S
C221 C223 1.561 . S
C221 C224 1.526 . S
C222 H206 0.959 . S
C222 H207 0.959 . S
C222 H208 0.961 . S
C222 C221 1.502 . S
C223 H209 0.960 . S
C223 H210 0.961 . S
C223 H211 0.959 . S
C223 C221 1.561 . S
C224 C221 1.526 . S
C224 C225 1.396 . S
C224 C229 1.390 . S
C225 C219 1.465 . S
C225 C224 1.396 . S
C225 C226 1.399 . S
C226 H212 0.929 . S
C226 C225 1.399 . S
C226 C227 1.385 . S
C227 H213 0.931 . S
C227 C226 1.385 . S
C227 C228 1.389 . S
C228 C227 1.389 . S
C228 C229 1.387 . S
C229 H214 0.930 . S
C229 C224 1.390 . S
C229 C228 1.387 . S
H230 C242 0.930 . S
H231 C244 0.930 . S
H232 C245 0.930 . S
H233 C249 0.959 . S
H234 C249 0.959 . S
H235 C249 0.961 . S
H236 C250 0.960 . S
H237 C250 0.961 . S
H238 C250 0.959 . S
H239 C253 0.929 . S
H240 C254 0.931 . S
H241 C256 0.930 . S
C242 H230 0.930 . S
C242 C243 1.399 . S
C242 C247 1.399 . S
C243 C242 1.399 . S
C243 C244 1.376 . S
C244 H231 0.930 . S
C244 C243 1.376 . S
C244 C245 1.388 . S
C245 H232 0.930 . S
C245 C244 1.388 . S
C245 C246 1.390 . S
C246 C245 1.390 . S
C246 C247 1.394 . S
C246 C252 1.465 1_655 S
C247 C242 1.399 . S
C247 C246 1.394 . S
C247 C248 1.516 1_655 S
C248 C247 1.516 1_455 S
C248 C249 1.502 1_455 S
C248 C250 1.561 . S
C248 C251 1.526 . S
C249 H233 0.959 . S
C249 H234 0.959 . S
C249 H235 0.961 . S
C249 C248 1.502 1_655 S
C250 H236 0.960 . S
C250 H237 0.961 . S
C250 H238 0.959 . S
C250 C248 1.561 . S
C251 C248 1.526 . S
C251 C252 1.396 . S
C251 C256 1.390 . S
C252 C246 1.465 1_455 S
C252 C251 1.396 . S
C252 C253 1.399 . S
C253 H239 0.929 . S
C253 C252 1.399 . S
C253 C254 1.385 . S
C254 H240 0.931 . S
C254 C253 1.385 . S
C254 C255 1.389 . S
C255 C254 1.389 . S
C255 C256 1.387 . S
C256 H241 0.930 . S
C256 C251 1.390 . S
C256 C255 1.387 . S
H257 C269 0.930 . S
H258 C271 0.930 . S
H259 C272 0.930 . S
H260 C276 0.959 . S
H261 C276 0.959 . S
H262 C276 0.961 . S
H263 C277 0.960 . S
H264 C277 0.961 . S
H265 C277 0.959 . S
H266 C280 0.929 . S
H267 C281 0.931 . S
H268 C283 0.930 . S
C269 H257 0.930 . S
C269 C270 1.399 . S
C269 C274 1.399 . S
C270 C269 1.399 . S
C270 C271 1.376 . S
C271 H258 0.930 . S
C271 C270 1.376 . S
C271 C272 1.388 . S
C272 H259 0.930 . S
C272 C271 1.388 . S
C272 C273 1.390 . S
C273 C272 1.390 . S
C273 C274 1.394 . S
C273 C279 1.465 . S
C274 C269 1.399 . S
C274 C273 1.394 . S
C274 C275 1.516 . S
C275 C274 1.516 . S
C275 C276 1.502 . S
C275 C277 1.561 . S
C275 C278 1.526 . S
C276 H260 0.959 . S
C276 H261 0.959 . S
C276 H262 0.961 . S
C276 C275 1.502 . S
C277 H263 0.960 . S
C277 H264 0.961 . S
C277 H265 0.959 . S
C277 C275 1.561 . S
C278 C275 1.526 . S
C278 C279 1.396 . S
C278 C283 1.390 . S
C279 C273 1.465 . S
C279 C278 1.396 . S
C279 C280 1.399 . S
C280 H266 0.929 . S
C280 C279 1.399 . S
C280 C281 1.385 . S
C281 H267 0.931 . S
C281 C280 1.385 . S
C281 C282 1.389 . S
C282 C281 1.389 . S
C282 C283 1.387 . S
C283 H268 0.930 . S
C283 C278 1.390 . S
C283 C282 1.387 . S
H284 C296 0.930 . S
H285 C298 0.930 . S
H286 C299 0.930 . S
H287 C303 0.959 . S
H288 C303 0.959 . S
H289 C303 0.961 . S
H290 C304 0.960 . S
H291 C304 0.961 . S
H292 C304 0.959 1_545 S
H293 C307 0.929 1_545 S
H294 C308 0.931 . S
H295 C310 0.930 . S
C296 H284 0.930 . S
C296 C297 1.399 . S
C296 C301 1.399 . S
C297 C296 1.399 . S
C297 C298 1.376 1_554 S
C298 H285 0.930 . S
C298 C297 1.376 1_556 S
C298 C299 1.388 . S
C299 H286 0.930 . S
C299 C298 1.388 . S
C299 C300 1.390 . S
C300 C299 1.390 . S
C300 C301 1.394 1_556 S
C300 C306 1.465 1_445 S
C301 C296 1.399 . S
C301 C300 1.394 1_554 S
C301 C302 1.516 1_545 S
C302 C301 1.516 1_565 S
C302 C303 1.502 . S
C302 C304 1.561 1_455 S
C302 C305 1.526 1_455 S
C303 H287 0.959 . S
C303 H288 0.959 . S
C303 H289 0.961 . S
C303 C302 1.502 . S
C304 H290 0.960 . S
C304 H291 0.961 . S
C304 H292 0.959 1_565 S
C304 C302 1.561 1_655 S
C305 C302 1.526 1_655 S
C305 C306 1.396 1_554 S
C305 C310 1.390 . S
C306 C300 1.465 1_665 S
C306 C305 1.396 1_556 S
C306 C307 1.399 . S
C307 H293 0.929 1_565 S
C307 C306 1.399 . S
C307 C308 1.385 . S
C308 H294 0.931 . S
C308 C307 1.385 . S
C308 C309 1.389 . S
C309 C308 1.389 . S
C309 C310 1.387 1_556 S
C310 H295 0.930 . S
C310 C305 1.390 . S
C310 C309 1.387 1_554 S
H311 C323 0.930 . S
H312 C325 0.930 . S
H313 C326 0.930 . S
H314 C330 0.959 . S
H315 C330 0.959 . S
H316 C330 0.961 . S
H317 C331 0.960 . S
H318 C331 0.961 . S
H319 C331 0.959 . S
H320 C334 0.929 . S
H321 C335 0.931 . S
H322 C337 0.930 . S
C323 H311 0.930 . S
C323 C324 1.399 . S
C323 C328 1.399 . S
C324 C323 1.399 . S
C324 C325 1.376 . S
C325 H312 0.930 . S
C325 C324 1.376 . S
C325 C326 1.388 . S
C326 H313 0.930 . S
C326 C325 1.388 . S
C326 C327 1.390 . S
C327 C326 1.390 . S
C327 C328 1.394 . S
C327 C333 1.465 . S
C328 C323 1.399 . S
C328 C327 1.394 . S
C328 C329 1.516 . S
C329 C328 1.516 . S
C329 C330 1.502 . S
C329 C331 1.561 . S
C329 C332 1.526 . S
C330 H314 0.959 . S
C330 H315 0.959 . S
C330 H316 0.961 . S
C330 C329 1.502 . S
C331 H317 0.960 . S
C331 H318 0.961 . S
C331 H319 0.959 . S
C331 C329 1.561 . S
C332 C329 1.526 . S
C332 C333 1.396 . S
C332 C337 1.390 . S
C333 C327 1.465 . S
C333 C332 1.396 . S
C333 C334 1.399 . S
C334 H320 0.929 . S
C334 C333 1.399 . S
C334 C335 1.385 . S
C335 H321 0.931 . S
C335 C334 1.385 . S
C335 C336 1.389 . S
C336 C335 1.389 . S
C336 C337 1.387 . S
C337 H322 0.930 . S
C337 C332 1.390 . S
C337 C336 1.387 . S
H338 C350 0.942 . S
H339 C352 0.930 . S
H340 C353 0.930 . S
H341 C357 0.959 . S
H342 C357 0.959 . S
H343 C357 0.961 . S
H344 C358 0.960 . S
H345 C358 0.961 . S
H346 C358 0.959 . S
H347 C361 0.929 . S
H348 C362 0.931 . S
H349 C364 0.930 . S
C350 H338 0.942 . S
C350 C351 1.384 1_556 S
C350 C355 1.402 . S
C351 C350 1.384 1_554 S
C351 C352 1.376 . S
C352 H339 0.930 . S
C352 C351 1.376 . S
C352 C353 1.388 . S
C353 H340 0.930 . S
C353 C352 1.388 . S
C353 C354 1.390 . S
C354 C353 1.390 . S
C354 C355 1.394 1_554 S
C354 C360 1.465 . S
C355 C350 1.402 . S
C355 C354 1.394 1_556 S
C355 C356 1.516 . S
C356 C355 1.516 . S
C356 C357 1.502 . S
C356 C358 1.561 . S
C356 C359 1.526 . S
C357 H341 0.959 . S
C357 H342 0.959 . S
C357 H343 0.961 . S
C357 C356 1.502 . S
C358 H344 0.960 . S
C358 H345 0.961 . S
C358 H346 0.959 . S
C358 C356 1.561 . S
C359 C356 1.526 . S
C359 C360 1.396 1_556 S
C359 C364 1.390 . S
C360 C354 1.465 . S
C360 C359 1.396 1_554 S
C360 C361 1.399 . S
C361 H347 0.929 . S
C361 C360 1.399 . S
C361 C362 1.385 . S
C362 H348 0.931 . S
C362 C361 1.385 . S
C362 C363 1.389 1_554 S
C363 C362 1.389 1_556 S
C363 C364 1.387 . S
C364 H349 0.930 . S
C364 C359 1.390 . S
C364 C363 1.387 . S
H365 C377 0.930 . S
H366 C379 0.930 . S
H367 C380 0.930 1_565 S
H368 C384 0.959 . S
H369 C384 0.959 . S
H370 C384 0.961 . S
H371 C385 0.960 . S
H372 C385 0.961 1_455 S
H373 C385 0.959 . S
H374 C388 0.929 1_655 S
H375 C389 0.931 . S
H376 C391 0.930 . S
C377 H365 0.930 . S
C377 C378 1.399 . S
C377 C382 1.399 . S
C378 C377 1.399 . S
C378 C379 1.376 . S
C379 H366 0.930 . S
C379 C378 1.376 . S
C379 C380 1.388 . S
C380 H367 0.930 1_545 S
C380 C379 1.388 . S
C380 C381 1.390 . S
C381 C380 1.390 . S
C381 C382 1.394 . S
C381 C387 1.465 1_645 S
C382 C377 1.399 . S
C382 C381 1.394 . S
C382 C383 1.516 1_655 S
C383 C382 1.516 1_455 S
C383 C384 1.502 . S
C383 C385 1.561 1_455 S
C383 C386 1.526 1_545 S
C384 H368 0.959 . S
C384 H369 0.959 . S
C384 H370 0.961 . S
C384 C383 1.502 . S
C385 H371 0.960 . S
C385 H372 0.961 1_655 S
C385 H373 0.959 . S
C385 C383 1.561 1_655 S
C386 C383 1.526 1_565 S
C386 C387 1.396 . S
C386 C391 1.390 . S
C387 C381 1.465 1_465 S
C387 C386 1.396 . S
C387 C388 1.399 . S
C388 H374 0.929 1_455 S
C388 C387 1.399 . S
C388 C389 1.385 . S
C389 H375 0.931 . S
C389 C388 1.385 . S
C389 C390 1.389 . S
C390 C389 1.389 . S
C390 C391 1.387 . S
C391 H376 0.930 . S
C391 C386 1.390 . S
C391 C390 1.387 . S
H392 C404 0.930 . S
H393 C406 0.930 . S
H394 C407 0.930 . S
H395 C411 0.959 . S
H396 C411 0.959 . S
H397 C411 0.961 . S
H398 C412 0.960 . S
H399 C412 0.961 . S
H400 C412 0.959 . S
H401 C415 0.929 . S
H402 C416 0.931 . S
H403 C418 0.930 . S
C404 H392 0.930 . S
C404 C405 1.399 . S
C404 C409 1.399 . S
C405 C404 1.399 . S
C405 C406 1.376 . S
C406 H393 0.930 . S
C406 C405 1.376 . S
C406 C407 1.388 . S
C407 H394 0.930 . S
C407 C406 1.388 . S
C407 C408 1.390 . S
C408 C407 1.390 . S
C408 C409 1.394 . S
C408 C414 1.456 1_565 S
C409 C404 1.399 . S
C409 C408 1.394 . S
C409 C410 1.516 . S
C410 C409 1.516 . S
C410 C411 1.502 . S
C410 C412 1.561 . S
C410 C413 1.526 . S
C411 H395 0.959 . S
C411 H396 0.959 . S
C411 H397 0.961 . S
C411 C410 1.502 . S
C412 H398 0.960 . S
C412 H399 0.961 . S
C412 H400 0.959 . S
C412 C410 1.561 . S
C413 C410 1.526 . S
C413 C414 1.395 1_565 S
C413 C418 1.390 1_565 S
C414 C408 1.456 1_545 S
C414 C413 1.395 1_545 S
C414 C415 1.408 . S
C415 H401 0.929 . S
C415 C414 1.408 . S
C415 C416 1.385 . S
C416 H402 0.931 . S
C416 C415 1.385 . S
C416 C417 1.389 . S
C417 C416 1.389 . S
C417 C418 1.387 . S
C418 H403 0.930 . S
C418 C413 1.390 1_545 S
C418 C417 1.387 . S
H419 C431 0.930 . S
H420 C433 0.930 . S
H421 C434 0.930 . S
H422 C438 0.959 . S
H423 C438 0.959 . S
H424 C438 0.961 . S
H425 C439 0.960 . S
H426 C439 0.961 . S
H427 C439 0.959 . S
H428 C442 0.929 . S
H429 C443 0.931 . S
H430 C445 0.930 . S
C431 H419 0.930 . S
C431 C432 1.399 . S
C431 C436 1.399 . S
C432 C431 1.399 . S
C432 C433 1.376 . S
C433 H420 0.930 . S
C433 C432 1.376 . S
C433 C434 1.388 . S
C434 H421 0.930 . S
C434 C433 1.388 . S
C434 C435 1.390 . S
C435 C434 1.390 . S
C435 C436 1.394 . S
C435 C441 1.465 . S
C436 C431 1.399 . S
C436 C435 1.394 . S
C436 C437 1.516 . S
C437 C436 1.516 . S
C437 C438 1.502 . S
C437 C439 1.561 . S
C437 C440 1.526 . S
C438 H422 0.959 . S
C438 H423 0.959 . S
C438 H424 0.961 . S
C438 C437 1.502 . S
C439 H425 0.960 . S
C439 H426 0.961 . S
C439 H427 0.959 . S
C439 C437 1.561 . S
C440 C437 1.526 . S
C440 C441 1.396 . S
C440 C445 1.390 . S
C441 C435 1.465 . S
C441 C440 1.396 . S
C441 C442 1.399 . S
C442 H428 0.929 . S
C442 C441 1.399 . S
C442 C443 1.385 . S
C443 H429 0.931 . S
C443 C442 1.385 . S
C443 C444 1.389 . S
C444 C443 1.389 . S
C444 C445 1.387 . S
C445 H430 0.930 . S
C445 C440 1.390 . S
C445 C444 1.387 . S
H446 C458 0.930 . S
H447 C460 0.930 . S
H448 C461 0.930 . S
H449 C465 0.959 . S
H450 C465 0.959 . S
H451 C465 0.961 . S
H452 C466 0.960 1_554 S
H453 C466 0.961 1_554 S
H454 C466 0.959 . S
H455 C469 0.929 . S
H456 C470 0.931 . S
H457 C472 0.930 . S
C458 H446 0.930 . S
C458 C459 1.399 . S
C458 C463 1.399 . S
C459 C458 1.399 . S
C459 C460 1.376 . S
C460 H447 0.930 . S
C460 C459 1.376 . S
C460 C461 1.388 . S
C461 H448 0.930 . S
C461 C460 1.388 . S
C461 C462 1.390 . S
C462 C461 1.390 . S
C462 C463 1.394 . S
C462 C468 1.465 . S
C463 C458 1.399 . S
C463 C462 1.394 . S
C463 C464 1.516 . S
C464 C463 1.516 . S
C464 C465 1.502 . S
C464 C466 1.561 . S
C464 C467 1.526 . S
C465 H449 0.959 . S
C465 H450 0.959 . S
C465 H451 0.961 . S
C465 C464 1.502 . S
C466 H452 0.960 1_556 S
C466 H453 0.961 1_556 S
C466 H454 0.959 . S
C466 C464 1.561 . S
C467 C464 1.526 . S
C467 C468 1.396 . S
C467 C472 1.390 . S
C468 C462 1.465 . S
C468 C467 1.396 . S
C468 C469 1.399 . S
C469 H455 0.929 . S
C469 C468 1.399 . S
C469 C470 1.385 . S
C470 H456 0.931 . S
C470 C469 1.385 . S
C470 C471 1.389 . S
C471 C470 1.389 . S
C471 C472 1.387 . S
C472 H457 0.930 . S
C472 C467 1.390 . S
C472 C471 1.387 . S
H473 C485 0.930 . S
H474 C487 0.930 . S
H475 C488 0.930 . S
H476 C492 0.959 . S
H477 C492 0.959 . S
H478 C492 0.961 . S
H479 C493 0.960 . S
H480 C493 0.961 . S
H481 C493 0.959 . S
H482 C496 0.929 . S
H483 C497 0.931 . S
H484 C499 0.930 . S
C485 H473 0.930 . S
C485 C486 1.399 . S
C485 C490 1.399 1_545 S
C486 C485 1.399 . S
C486 C487 1.376 . S
C487 H474 0.930 . S
C487 C486 1.376 . S
C487 C488 1.388 . S
C488 H475 0.930 . S
C488 C487 1.388 . S
C488 C489 1.390 . S
C489 C488 1.390 . S
C489 C490 1.394 1_545 S
C489 C495 1.465 1_545 S
C490 C485 1.399 1_565 S
C490 C489 1.394 1_565 S
C490 C491 1.516 . S
C491 C490 1.516 . S
C491 C492 1.502 . S
C491 C493 1.561 . S
C491 C494 1.526 . S
C492 H476 0.959 . S
C492 H477 0.959 . S
C492 H478 0.961 . S
C492 C491 1.502 . S
C493 H479 0.960 . S
C493 H480 0.961 . S
C493 H481 0.959 . S
C493 C491 1.561 . S
C494 C491 1.526 . S
C494 C495 1.396 . S
C494 C499 1.390 . S
C495 C489 1.465 1_565 S
C495 C494 1.396 . S
C495 C496 1.399 . S
C496 H482 0.929 . S
C496 C495 1.399 . S
C496 C497 1.385 . S
C497 H483 0.931 . S
C497 C496 1.385 . S
C497 C498 1.389 . S
C498 C497 1.389 . S
C498 C499 1.387 . S
C499 H484 0.930 . S
C499 C494 1.390 . S
C499 C498 1.387 . S
H500 C512 0.930 . S
H501 C514 0.930 . S
H502 C515 0.930 . S
H503 C519 0.959 . S
H504 C519 0.959 1_554 S
H505 C519 0.959 1_554 S
H506 C520 0.960 1_554 S
H507 C520 0.961 1_564 S
H508 C520 0.959 1_565 S
H509 C523 0.929 . S
H510 C524 0.931 . S
H511 C526 0.930 . S
C512 H500 0.930 . S
C512 C513 1.399 . S
C512 C517 1.399 . S
C513 C512 1.399 . S
C513 C514 1.376 . S
C514 H501 0.930 . S
C514 C513 1.376 . S
C514 C515 1.388 . S
C515 H502 0.930 . S
C515 C514 1.388 . S
C515 C516 1.390 . S
C516 C515 1.390 . S
C516 C517 1.394 . S
C516 C522 1.465 . S
C517 C512 1.399 . S
C517 C516 1.394 . S
C517 C518 1.516 . S
C518 C517 1.516 . S
C518 C519 1.502 . S
C518 C520 1.561 . S
C518 C521 1.526 1_545 S
C519 H503 0.959 . S
C519 H504 0.959 1_556 S
C519 H505 0.959 1_556 S
C519 C518 1.502 . S
C520 H506 0.960 1_556 S
C520 H507 0.961 1_546 S
C520 H508 0.959 1_545 S
C520 C518 1.561 . S
C521 C518 1.526 1_565 S
C521 C522 1.396 1_565 S
C521 C526 1.390 . S
C522 C516 1.465 . S
C522 C521 1.396 1_545 S
C522 C523 1.399 1_545 S
C523 H509 0.929 . S
C523 C522 1.399 1_565 S
C523 C524 1.385 . S
C524 H510 0.931 . S
C524 C523 1.385 . S
C524 C525 1.389 . S
C525 C524 1.389 . S
C525 C526 1.387 . S
C526 H511 0.930 . S
C526 C521 1.390 . S
C526 C525 1.387 . S
H527 C539 0.930 . S
H528 C541 0.930 . S
H529 C542 0.930 . S
H530 C546 0.959 . S
H531 C546 0.959 . S
H532 C546 0.961 . S
H533 C547 0.960 . S
H534 C547 0.961 . S
H535 C547 0.959 . S
H536 C550 0.929 . S
H537 C551 0.931 . S
H538 C553 0.930 . S
C539 H527 0.930 . S
C539 C540 1.399 . S
C539 C544 1.399 . S
C540 C539 1.399 . S
C540 C541 1.376 . S
C541 H528 0.930 . S
C541 C540 1.376 . S
C541 C542 1.388 . S
C542 H529 0.930 . S
C542 C541 1.388 . S
C542 C543 1.390 . S
C543 C542 1.390 . S
C543 C544 1.394 . S
C543 C549 1.465 . S
C544 C539 1.399 . S
C544 C543 1.394 . S
C544 C545 1.516 . S
C545 C544 1.516 . S
C545 C546 1.502 . S
C545 C547 1.561 . S
C545 C548 1.526 . S
C546 H530 0.959 . S
C546 H531 0.959 . S
C546 H532 0.961 . S
C546 C545 1.502 . S
C547 H533 0.960 . S
C547 H534 0.961 . S
C547 H535 0.959 . S
C547 C545 1.561 . S
C548 C545 1.526 . S
C548 C549 1.396 . S
C548 C553 1.390 . S
C549 C543 1.465 . S
C549 C548 1.396 . S
C549 C550 1.399 . S
C550 H536 0.929 . S
C550 C549 1.399 . S
C550 C551 1.385 . S
C551 H537 0.931 . S
C551 C550 1.385 . S
C551 C552 1.389 . S
C552 C551 1.389 . S
C552 C553 1.387 . S
C553 H538 0.930 . S
C553 C548 1.390 . S
C553 C552 1.387 . S
H554 C566 0.930 . S
H555 C568 0.930 . S
H556 C569 0.930 . S
H557 C573 0.959 . S
H558 C573 0.959 . S
H559 C573 0.961 . S
H560 C574 0.960 1_556 S
H561 C574 0.961 1_556 S
H562 C574 0.959 . S
H563 C577 0.929 . S
H564 C578 0.931 . S
H565 C580 0.930 . S
C566 H554 0.930 . S
C566 C567 1.399 . S
C566 C571 1.399 . S
C567 C566 1.399 . S
C567 C568 1.376 . S
C568 H555 0.930 . S
C568 C567 1.376 . S
C568 C569 1.388 . S
C569 H556 0.930 . S
C569 C568 1.388 . S
C569 C570 1.390 . S
C570 C569 1.390 . S
C570 C571 1.394 . S
C570 C576 1.465 . S
C571 C566 1.399 . S
C571 C570 1.394 . S
C571 C572 1.516 . S
C572 C571 1.516 . S
C572 C573 1.502 . S
C572 C574 1.561 . S
C572 C575 1.526 . S
C573 H557 0.959 . S
C573 H558 0.959 . S
C573 H559 0.961 . S
C573 C572 1.502 . S
C574 H560 0.960 1_554 S
C574 H561 0.961 1_554 S
C574 H562 0.959 . S
C574 C572 1.561 . S
C575 C572 1.526 . S
C575 C576 1.396 . S
C575 C580 1.390 . S
C576 C570 1.465 . S
C576 C575 1.396 . S
C576 C577 1.399 . S
C577 H563 0.929 . S
C577 C576 1.399 . S
C577 C578 1.385 . S
C578 H564 0.931 . S
C578 C577 1.385 . S
C578 C579 1.389 . S
C579 C578 1.389 . S
C579 C580 1.387 . S
C580 H565 0.930 . S
C580 C575 1.390 . S
C580 C579 1.387 . S
H581 C593 0.930 . S
H582 C595 0.930 . S
H583 C596 0.930 . S
H584 C600 0.959 . S
H585 C600 0.959 . S
H586 C600 0.961 . S
H587 C601 0.960 1_565 S
H588 C601 0.961 . S
H589 C601 0.959 . S
H590 C604 0.929 . S
H591 C605 0.931 . S
H592 C607 0.930 . S
C593 H581 0.930 . S
C593 C594 1.399 . S
C593 C598 1.399 . S
C594 C593 1.399 . S
C594 C595 1.376 . S
C595 H582 0.930 . S
C595 C594 1.376 . S
C595 C596 1.388 . S
C596 H583 0.930 . S
C596 C595 1.388 . S
C596 C597 1.390 1_565 S
C597 C596 1.390 1_545 S
C597 C598 1.394 1_545 S
C597 C603 1.465 . S
C598 C593 1.399 . S
C598 C597 1.394 1_565 S
C598 C599 1.516 1_565 S
C599 C598 1.516 1_545 S
C599 C600 1.502 . S
C599 C601 1.561 . S
C599 C602 1.526 . S
C600 H584 0.959 . S
C600 H585 0.959 . S
C600 H586 0.961 . S
C600 C599 1.502 . S
C601 H587 0.960 1_545 S
C601 H588 0.961 . S
C601 H589 0.959 . S
C601 C599 1.561 . S
C602 C599 1.526 . S
C602 C603 1.396 . S
C602 C607 1.390 . S
C603 C597 1.465 . S
C603 C602 1.396 . S
C603 C604 1.399 . S
C604 H590 0.929 . S
C604 C603 1.399 . S
C604 C605 1.385 . S
C605 H591 0.931 . S
C605 C604 1.385 . S
C605 C606 1.389 . S
C606 C605 1.389 . S
C606 C607 1.387 . S
C607 H592 0.930 . S
C607 C602 1.390 . S
C607 C606 1.387 . S
H608 C620 0.930 . S
H609 C622 0.930 . S
H610 C623 0.930 . S
H611 C627 0.959 . S
H612 C627 0.959 . S
H613 C627 0.961 . S
H614 C628 0.960 . S
H615 C628 0.961 . S
H616 C628 0.959 . S
H617 C631 0.929 . S
H618 C632 0.931 . S
H619 C634 0.930 . S
C620 H608 0.930 . S
C620 C621 1.399 . S
C620 C625 1.399 . S
C621 C620 1.399 . S
C621 C622 1.376 . S
C622 H609 0.930 . S
C622 C621 1.376 . S
C622 C623 1.388 . S
C623 H610 0.930 . S
C623 C622 1.388 . S
C623 C624 1.390 . S
C624 C623 1.390 . S
C624 C625 1.394 . S
C624 C630 1.465 . S
C625 C620 1.399 . S
C625 C624 1.394 . S
C625 C626 1.516 . S
C626 C625 1.516 . S
C626 C627 1.502 . S
C626 C628 1.561 . S
C626 C629 1.526 . S
C627 H611 0.959 . S
C627 H612 0.959 . S
C627 H613 0.961 . S
C627 C626 1.502 . S
C628 H614 0.960 . S
C628 H615 0.961 . S
C628 H616 0.959 . S
C628 C626 1.561 . S
C629 C626 1.526 . S
C629 C630 1.396 . S
C629 C634 1.390 . S
C630 C624 1.465 . S
C630 C629 1.396 . S
C630 C631 1.399 . S
C631 H617 0.929 . S
C631 C630 1.399 . S
C631 C632 1.385 . S
C632 H618 0.931 . S
C632 C631 1.385 . S
C632 C633 1.389 . S
C633 C632 1.389 . S
C633 C634 1.387 . S
C634 H619 0.930 . S
C634 C629 1.390 . S
C634 C633 1.387 . S
H635 C647 0.930 . S
H636 C649 0.930 . S
H637 C650 0.930 . S
H638 C654 0.959 . S
H639 C654 0.959 . S
H640 C654 0.961 . S
H641 C655 0.960 . S
H642 C655 0.961 . S
H643 C655 0.959 . S
H644 C658 0.929 . S
H645 C659 0.931 . S
H646 C661 0.930 . S
C647 H635 0.930 . S
C647 C648 1.399 . S
C647 C652 1.399 . S
C648 C647 1.399 . S
C648 C649 1.376 . S
C649 H636 0.930 . S
C649 C648 1.376 . S
C649 C650 1.388 . S
C650 H637 0.930 . S
C650 C649 1.388 . S
C650 C651 1.390 . S
C651 C650 1.390 . S
C651 C652 1.394 . S
C651 C657 1.465 . S
C652 C647 1.399 . S
C652 C651 1.394 . S
C652 C653 1.516 . S
C653 C652 1.516 . S
C653 C654 1.502 . S
C653 C655 1.561 . S
C653 C656 1.526 . S
C654 H638 0.959 . S
C654 H639 0.959 . S
C654 H640 0.961 . S
C654 C653 1.502 . S
C655 H641 0.960 . S
C655 H642 0.961 . S
C655 H643 0.959 . S
C655 C653 1.561 . S
C656 C653 1.526 . S
C656 C657 1.396 . S
C656 C661 1.390 . S
C657 C651 1.465 . S
C657 C656 1.396 . S
C657 C658 1.399 . S
C658 H644 0.929 . S
C658 C657 1.399 . S
C658 C659 1.385 . S
C659 H645 0.931 . S
C659 C658 1.385 . S
C659 C660 1.389 . S
C660 C659 1.389 . S
C660 C661 1.387 . S
C661 H646 0.930 . S
C661 C656 1.390 . S
C661 C660 1.387 . S
H662 C674 0.930 . S
H663 C676 0.930 . S
H664 C677 0.930 . S
H665 C681 0.959 . S
H666 C681 0.959 . S
H667 C681 0.961 . S
H668 C682 0.960 . S
H669 C682 0.961 . S
H670 C682 0.959 . S
H671 C685 0.929 . S
H672 C686 0.931 . S
H673 C688 0.930 . S
C674 H662 0.930 . S
C674 C675 1.399 . S
C674 C679 1.399 . S
C675 C674 1.399 . S
C675 C676 1.376 . S
C676 H663 0.930 . S
C676 C675 1.376 . S
C676 C677 1.388 . S
C677 H664 0.930 . S
C677 C676 1.388 . S
C677 C678 1.390 . S
C678 C677 1.390 . S
C678 C679 1.394 . S
C678 C684 1.465 . S
C679 C674 1.399 . S
C679 C678 1.394 . S
C679 C680 1.516 . S
C680 C679 1.516 . S
C680 C681 1.502 . S
C680 C682 1.561 . S
C680 C683 1.526 . S
C681 H665 0.959 . S
C681 H666 0.959 . S
C681 H667 0.961 . S
C681 C680 1.502 . S
C682 H668 0.960 . S
C682 H669 0.961 . S
C682 H670 0.959 . S
C682 C680 1.561 . S
C683 C680 1.526 . S
C683 C684 1.396 . S
C683 C688 1.390 . S
C684 C678 1.465 . S
C684 C683 1.396 . S
C684 C685 1.399 . S
C685 H671 0.929 . S
C685 C684 1.399 . S
C685 C686 1.385 . S
C686 H672 0.931 . S
C686 C685 1.385 . S
C686 C687 1.389 . S
C687 C686 1.389 . S
C687 C688 1.387 . S
C688 H673 0.930 . S
C688 C683 1.390 . S
C688 C687 1.387 . S
H689 C701 0.930 . S
H690 C703 0.930 . S
H691 C704 0.930 . S
H692 C708 0.959 . S
H693 C708 0.959 . S
H694 C708 0.961 . S
H695 C709 0.960 . S
H696 C709 0.961 . S
H697 C709 0.959 . S
H698 C712 0.929 . S
H699 C713 0.931 . S
H700 C715 0.930 . S
C701 H689 0.930 . S
C701 C702 1.399 . S
C701 C706 1.399 . S
C702 C701 1.399 . S
C702 C703 1.376 . S
C703 H690 0.930 . S
C703 C702 1.376 . S
C703 C704 1.388 . S
C704 H691 0.930 . S
C704 C703 1.388 . S
C704 C705 1.390 . S
C705 C704 1.390 . S
C705 C706 1.394 . S
C705 C711 1.465 . S
C706 C701 1.399 . S
C706 C705 1.394 . S
C706 C707 1.516 . S
C707 C706 1.516 . S
C707 C708 1.502 . S
C707 C709 1.561 . S
C707 C710 1.526 . S
C708 H692 0.959 . S
C708 H693 0.959 . S
C708 H694 0.961 . S
C708 C707 1.502 . S
C709 H695 0.960 . S
C709 H696 0.961 . S
C709 H697 0.959 . S
C709 C707 1.561 . S
C710 C707 1.526 . S
C710 C711 1.396 . S
C710 C715 1.390 . S
C711 C705 1.465 . S
C711 C710 1.396 . S
C711 C712 1.399 . S
C712 H698 0.929 . S
C712 C711 1.399 . S
C712 C713 1.385 . S
C713 H699 0.931 . S
C713 C712 1.385 . S
C713 C714 1.389 . S
C714 C713 1.389 . S
C714 C715 1.387 . S
C715 H700 0.930 . S
C715 C710 1.390 . S
C715 C714 1.387 . S
H716 C728 0.930 . S
H717 C730 0.930 . S
H718 C731 0.930 . S
H719 C735 0.959 . S
H720 C735 0.959 . S
H721 C735 0.961 . S
H722 C736 0.960 . S
H723 C736 0.961 . S
H724 C736 0.959 . S
H725 C739 0.929 . S
H726 C740 0.931 . S
H727 C742 0.930 . S
C728 H716 0.930 . S
C728 C729 1.399 . S
C728 C733 1.399 . S
C729 C728 1.399 . S
C729 C730 1.376 . S
C730 H717 0.930 . S
C730 C729 1.376 . S
C730 C731 1.388 . S
C731 H718 0.930 . S
C731 C730 1.388 . S
C731 C732 1.390 . S
C732 C731 1.390 . S
C732 C733 1.394 . S
C732 C738 1.465 . S
C733 C728 1.399 . S
C733 C732 1.394 . S
C733 C734 1.516 . S
C734 C733 1.516 . S
C734 C735 1.502 . S
C734 C736 1.561 . S
C734 C737 1.526 . S
C735 H719 0.959 . S
C735 H720 0.959 . S
C735 H721 0.961 . S
C735 C734 1.502 . S
C736 H722 0.960 . S
C736 H723 0.961 . S
C736 H724 0.959 . S
C736 C734 1.561 . S
C737 C734 1.526 . S
C737 C738 1.396 . S
C737 C742 1.390 . S
C738 C732 1.465 . S
C738 C737 1.396 . S
C738 C739 1.399 . S
C739 H725 0.929 . S
C739 C738 1.399 . S
C739 C740 1.385 . S
C740 H726 0.931 . S
C740 C739 1.385 . S
C740 C741 1.389 . S
C741 C740 1.389 . S
C741 C742 1.387 . S
C742 H727 0.930 . S
C742 C737 1.390 . S
C742 C741 1.387 . S
H743 C755 0.930 . S
H744 C757 0.930 . S
H745 C758 0.930 . S
H746 C762 0.959 . S
H747 C762 0.959 . S
H748 C762 0.961 . S
H749 C763 0.960 . S
H750 C763 0.961 . S
H751 C763 0.959 . S
H752 C766 0.929 . S
H753 C767 0.931 . S
H754 C769 0.930 . S
C755 H743 0.930 . S
C755 C756 1.399 . S
C755 C760 1.399 . S
C756 C755 1.399 . S
C756 C757 1.376 . S
C757 H744 0.930 . S
C757 C756 1.376 . S
C757 C758 1.388 . S
C758 H745 0.930 . S
C758 C757 1.388 . S
C758 C759 1.390 . S
C759 C758 1.390 . S
C759 C760 1.394 . S
C759 C765 1.465 . S
C760 C755 1.399 . S
C760 C759 1.394 . S
C760 C761 1.516 . S
C761 C760 1.516 . S
C761 C762 1.502 . S
C761 C763 1.561 . S
C761 C764 1.526 . S
C762 H746 0.959 . S
C762 H747 0.959 . S
C762 H748 0.961 . S
C762 C761 1.502 . S
C763 H749 0.960 . S
C763 H750 0.961 . S
C763 H751 0.959 . S
C763 C761 1.561 . S
C764 C761 1.526 . S
C764 C765 1.396 . S
C764 C769 1.390 . S
C765 C759 1.465 . S
C765 C764 1.396 . S
C765 C766 1.399 . S
C766 H752 0.929 . S
C766 C765 1.399 . S
C766 C767 1.385 . S
C767 H753 0.931 . S
C767 C766 1.385 . S
C767 C768 1.389 . S
C768 C767 1.389 . S
C768 C769 1.387 . S
C769 H754 0.930 . S
C769 C764 1.390 . S
C769 C768 1.387 . S
H770 C782 0.930 . S
H771 C784 0.930 . S
H772 C785 0.930 . S
H773 C789 0.959 . S
H774 C789 0.959 . S
H775 C789 0.961 . S
H776 C790 0.960 . S
H777 C790 0.961 . S
H778 C790 0.959 . S
H779 C793 0.929 . S
H780 C794 0.931 . S
H781 C796 0.930 . S
C782 H770 0.930 . S
C782 C783 1.399 . S
C782 C787 1.399 . S
C783 C782 1.399 . S
C783 C784 1.376 . S
C784 H771 0.930 . S
C784 C783 1.376 . S
C784 C785 1.388 . S
C785 H772 0.930 . S
C785 C784 1.388 . S
C785 C786 1.390 . S
C786 C785 1.390 . S
C786 C787 1.394 . S
C786 C792 1.465 . S
C787 C782 1.399 . S
C787 C786 1.394 . S
C787 C788 1.516 . S
C788 C787 1.516 . S
C788 C789 1.502 . S
C788 C790 1.561 . S
C788 C791 1.526 . S
C789 H773 0.959 . S
C789 H774 0.959 . S
C789 H775 0.961 . S
C789 C788 1.502 . S
C790 H776 0.960 . S
C790 H777 0.961 . S
C790 H778 0.959 . S
C790 C788 1.561 . S
C791 C788 1.526 . S
C791 C792 1.396 . S
C791 C796 1.390 . S
C792 C786 1.465 . S
C792 C791 1.396 . S
C792 C793 1.399 . S
C793 H779 0.929 . S
C793 C792 1.399 . S
C793 C794 1.385 . S
C794 H780 0.931 . S
C794 C793 1.385 . S
C794 C795 1.389 . S
C795 C794 1.389 . S
C795 C796 1.387 . S
C796 H781 0.930 . S
C796 C791 1.390 . S
C796 C795 1.387 . S
H797 C809 0.930 . S
H798 C811 0.930 . S
H799 C812 0.930 . S
H800 C816 0.959 . S
H801 C816 0.959 . S
H802 C816 0.961 . S
H803 C817 0.960 . S
H804 C817 0.961 . S
H805 C817 0.959 . S
H806 C820 0.929 . S
H807 C821 0.931 . S
H808 C823 0.930 . S
C809 H797 0.930 . S
C809 C810 1.399 . S
C809 C814 1.399 . S
C810 C809 1.399 . S
C810 C811 1.376 . S
C811 H798 0.930 . S
C811 C810 1.376 . S
C811 C812 1.388 . S
C812 H799 0.930 . S
C812 C811 1.388 . S
C812 C813 1.390 . S
C813 C812 1.390 . S
C813 C814 1.394 . S
C813 C819 1.465 . S
C814 C809 1.399 . S
C814 C813 1.394 . S
C814 C815 1.516 . S
C815 C814 1.516 . S
C815 C816 1.502 . S
C815 C817 1.561 . S
C815 C818 1.526 . S
C816 H800 0.959 . S
C816 H801 0.959 . S
C816 H802 0.961 . S
C816 C815 1.502 . S
C817 H803 0.960 . S
C817 H804 0.961 . S
C817 H805 0.959 . S
C817 C815 1.561 . S
C818 C815 1.526 . S
C818 C819 1.396 . S
C818 C823 1.390 . S
C819 C813 1.465 . S
C819 C818 1.396 . S
C819 C820 1.399 . S
C820 H806 0.929 . S
C820 C819 1.399 . S
C820 C821 1.385 . S
C821 H807 0.931 . S
C821 C820 1.385 . S
C821 C822 1.389 . S
C822 C821 1.389 . S
C822 C823 1.387 . S
C823 H808 0.930 . S
C823 C818 1.390 . S
C823 C822 1.387 . S
C189 C21 0.894 . S
C201 C87 0.885 . S
C216 C43 0.957 . S
C228 C65 0.965 . S
C243 C103 0.952 . S
C255 C175 0.953 . S
C270 C125 0.950 . S
C282 C139 0.952 . S
C297 C8 1.944 . S
C309 C98 1.929 . S
C324 C120 1.928 . S
C336 C30 1.944 . S
C351 C150 1.937 . S
C363 C52 1.937 . S
C378 C74 1.921 . S
C390 C162 1.947 . S
C405 C147 0.940 . S
C417 C18 0.921 . S
C432 C161 0.921 . S
C444 C40 0.922 . S
C459 C62 0.914 . S
C471 C109 0.943 . S
C486 C84 0.921 . S
C498 C131 0.938 . S
C513 C59 0.946 . S
C525 C106 0.909 . S
C540 C128 0.927 . S
C552 C81 0.903 . S
C567 C15 0.949 . S
C579 C140 0.911 . S
C594 C164 0.927 . S
C606 C37 0.901 . S
C621 C10 1.564 . S
C633 C29 1.554 . S
C648 C7 1.546 . S
C660 C32 1.557 . S
C675 C73 1.546 . S
C687 C54 1.577 . S
C702 C76 1.552 . S
C714 C51 1.551 . S
C729 C96 1.550 . S
C741 C117 1.561 . S
C756 C95 1.557 . S
C768 C118 1.563 . S
C783 C169 1.549 . S
C795 C142 1.562 . S
C810 C172 1.564 . S
C822 C153 1.556 . S
