# Generated by pormake.
# Topology uob, (4)-cn, num edge types: 1
# Building blocks:
#     Node 0, Type 0, BuildingBlock: ICAMEG_clean_sbu_1, # of connection points: 4
#     Node 1, Type 0, BuildingBlock: ICAMEG_clean_sbu_1, # of connection points: 4
#     Node 2, Type 0, BuildingBlock: ICAMEG_clean_sbu_1, # of connection points: 4
#     Node 3, Type 0, BuildingBlock: ICAMEG_clean_sbu_1, # of connection points: 4
#     Node 4, Type 0, BuildingBlock: ICAMEG_clean_sbu_1, # of connection points: 4
#     Node 5, Type 0, BuildingBlock: ICAMEG_clean_sbu_1, # of connection points: 4
#     Node 6, Type 0, BuildingBlock: ICAMEG_clean_sbu_1, # of connection points: 4
#     Node 7, Type 0, BuildingBlock: ICAMEG_clean_sbu_1, # of connection points: 4
#     Node 8, Type 0, BuildingBlock: ICAMEG_clean_sbu_1, # of connection points: 4
#     Node 9, Type 0, BuildingBlock: ICAMEG_clean_sbu_1, # of connection points: 4
#     Node 10, Type 0, BuildingBlock: ICAMEG_clean_sbu_1, # of connection points: 4
#     Node 11, Type 0, BuildingBlock: ICAMEG_clean_sbu_1, # of connection points: 4
#     Node 12, Type 0, BuildingBlock: ICAMEG_clean_sbu_1, # of connection points: 4
#     Node 13, Type 0, BuildingBlock: ICAMEG_clean_sbu_1, # of connection points: 4
#     Node 14, Type 0, BuildingBlock: ICAMEG_clean_sbu_1, # of connection points: 4
#     Node 15, Type 0, BuildingBlock: ICAMEG_clean_sbu_1, # of connection points: 4
#     Edge 16, Type (0, 0), BuildingBlock: CIFDUS_clean_linker_0, # of connection points: 2
#     Edge 17, Type (0, 0), BuildingBlock: CIFDUS_clean_linker_0, # of connection points: 2
#     Edge 18, Type (0, 0), BuildingBlock: CIFDUS_clean_linker_0, # of connection points: 2
#     Edge 19, Type (0, 0), BuildingBlock: CIFDUS_clean_linker_0, # of connection points: 2
#     Edge 20, Type (0, 0), BuildingBlock: CIFDUS_clean_linker_0, # of connection points: 2
#     Edge 21, Type (0, 0), BuildingBlock: CIFDUS_clean_linker_0, # of connection points: 2
#     Edge 22, Type (0, 0), BuildingBlock: CIFDUS_clean_linker_0, # of connection points: 2
#     Edge 23, Type (0, 0), BuildingBlock: CIFDUS_clean_linker_0, # of connection points: 2
#     Edge 24, Type (0, 0), BuildingBlock: CIFDUS_clean_linker_0, # of connection points: 2
#     Edge 25, Type (0, 0), BuildingBlock: CIFDUS_clean_linker_0, # of connection points: 2
#     Edge 26, Type (0, 0), BuildingBlock: CIFDUS_clean_linker_0, # of connection points: 2
#     Edge 27, Type (0, 0), BuildingBlock: CIFDUS_clean_linker_0, # of connection points: 2
#     Edge 28, Type (0, 0), BuildingBlock: CIFDUS_clean_linker_0, # of connection points: 2
#     Edge 29, Type (0, 0), BuildingBlock: CIFDUS_clean_linker_0, # of connection points: 2
#     Edge 30, Type (0, 0), BuildingBlock: CIFDUS_clean_linker_0, # of connection points: 2
#     Edge 31, Type (0, 0), BuildingBlock: CIFDUS_clean_linker_0, # of connection points: 2
#     Edge 32, Type (0, 0), BuildingBlock: CIFDUS_clean_linker_0, # of connection points: 2
#     Edge 33, Type (0, 0), BuildingBlock: CIFDUS_clean_linker_0, # of connection points: 2
#     Edge 34, Type (0, 0), BuildingBlock: CIFDUS_clean_linker_0, # of connection points: 2
#     Edge 35, Type (0, 0), BuildingBlock: CIFDUS_clean_linker_0, # of connection points: 2
#     Edge 36, Type (0, 0), BuildingBlock: CIFDUS_clean_linker_0, # of connection points: 2
#     Edge 37, Type (0, 0), BuildingBlock: CIFDUS_clean_linker_0, # of connection points: 2
#     Edge 38, Type (0, 0), BuildingBlock: CIFDUS_clean_linker_0, # of connection points: 2
#     Edge 39, Type (0, 0), BuildingBlock: CIFDUS_clean_linker_0, # of connection points: 2
#     Edge 40, Type (0, 0), BuildingBlock: CIFDUS_clean_linker_0, # of connection points: 2
#     Edge 41, Type (0, 0), BuildingBlock: CIFDUS_clean_linker_0, # of connection points: 2
#     Edge 42, Type (0, 0), BuildingBlock: CIFDUS_clean_linker_0, # of connection points: 2
#     Edge 43, Type (0, 0), BuildingBlock: CIFDUS_clean_linker_0, # of connection points: 2
#     Edge 44, Type (0, 0), BuildingBlock: CIFDUS_clean_linker_0, # of connection points: 2
#     Edge 45, Type (0, 0), BuildingBlock: CIFDUS_clean_linker_0, # of connection points: 2
#     Edge 46, Type (0, 0), BuildingBlock: CIFDUS_clean_linker_0, # of connection points: 2
#     Edge 47, Type (0, 0), BuildingBlock: CIFDUS_clean_linker_0, # of connection points: 2
# Relax obj value: 0.099
# Max RMSD: 0.129
# Mean RMSD: 0.129
data_MOF--net-uob--node1-ICAMEG_clean_sbu_1--edge1-CIFDUS_clean_linker_0
_symmetry_space_group_name_H-M    P1
_symmetry_Int_Tables_number       1
_symmetry_cell_setting            triclinic
loop_
_symmetry_equiv_pos_as_xyz
'x, y, z'
_cell_length_a     51.064827
_cell_length_b     51.03157
_cell_length_c     26.062131
_cell_angle_alpha  90.011168
_cell_angle_beta   89.960975
_cell_angle_gamma 90.024287
loop_
_atom_site_label
_atom_site_type_symbol
_atom_site_fract_x
_atom_site_fract_y
_atom_site_fract_z
_atom_type_partial_charge
Co0 Co 0.0908 0.07753 0.2829 0.0
Co1 Co 0.12325 0.01989 0.31322 0.0
O2 O 0.11992 0.0528 0.27488 0.0
C3 C 0.08819 0.06335 0.17419 0.0
O4 O 0.09438 0.03921 0.18655 0.0
C5 C 0.17137 0.04889 0.34244 0.0
O6 O 0.15693 0.07007 0.34646 0.0
O7 O 0.1139 0.03738 0.3792 0.0
O8 O 0.09279 0.07436 0.35779 0.0
H9 H 0.09446 0.95074 0.43836 0.0
H10 H 0.13627 0.09224 0.21852 0.0
O11 O 0.08744 0.08134 0.2077 0.0
H12 H 0.13347 0.15808 0.35694 0.0
H13 H 0.04005 0.15954 0.24228 0.0
H14 H 0.04305 0.07935 0.34764 0.0
H15 H 0.10027 0.12303 0.35252 0.0
H16 H 0.07666 0.12834 0.2335 0.0
O17 O 0.16113 0.02742 0.32748 0.0
H18 H 0.09046 0.99197 0.38958 0.0
H19 H 0.16385 0.97795 0.3179 0.0
H20 H 0.00619 0.11012 0.35799 0.0
H21 H 0.16976 0.12709 0.22124 0.0
H22 H 0.00454 0.15057 0.30507 0.0
H23 H 0.16852 0.16027 0.29094 0.0
O24 O 0.06447 0.04875 0.28072 0.0
H25 H 0.17218 0.01092 0.14692 0.0
H26 H 0.10563 0.9712 0.25993 0.0
H27 H 0.1165 0.94985 0.17773 0.0
H28 H 0.15003 0.96971 0.12062 0.0
H29 H 0.16053 0.03173 0.22932 0.0
H30 H 0.16877 0.93669 0.36625 0.0
H31 H 0.13385 0.9228 0.42685 0.0
O32 O 0.08558 0.0115 0.30056 0.0
C33 C 0.10173 0.05839 0.39066 0.0
C34 C 0.10977 0.95654 0.41196 0.0
C35 C 0.15149 0.94867 0.37154 0.0
N36 N 0.12681 0.98725 0.35068 0.0
C37 C 0.10758 0.97982 0.38413 0.0
C38 C 0.14863 0.97208 0.34436 0.0
C39 C 0.13189 0.94089 0.40552 0.0
C40 C 0.13548 0.10676 0.24866 0.0
N41 N 0.11627 0.1057 0.28511 0.0
C42 C 0.15454 0.12638 0.25014 0.0
C43 C 0.15385 0.14498 0.2893 0.0
C44 C 0.1342 0.14375 0.32636 0.0
C45 C 0.11548 0.12383 0.3237 0.0
C46 C 0.0406 0.14204 0.26572 0.0
C47 C 0.04259 0.09703 0.32481 0.0
C48 C 0.06128 0.1243 0.2609 0.0
N49 N 0.06218 0.10222 0.29057 0.0
C50 C 0.02161 0.11432 0.33069 0.0
C51 C 0.02068 0.13699 0.30095 0.0
C52 C 0.06488 0.02411 0.28876 0.0
C53 C 0.15758 0.00205 0.17152 0.0
C54 C 0.12015 0.98002 0.23519 0.0
C55 C 0.12629 0.9678 0.18876 0.0
C56 C 0.14512 0.97895 0.15676 0.0
N57 N 0.13248 0.00266 0.24941 0.0
C58 C 0.15098 0.01369 0.21827 0.0
Co59 Co 0.91919 0.59694 0.55277 0.0
Co60 Co 0.98027 0.62096 0.58712 0.0
O61 O 0.94726 0.62309 0.54924 0.0
C62 C 0.93401 0.5989 0.44343 0.0
O63 O 0.95837 0.6014 0.45859 0.0
C64 C 0.95738 0.67119 0.62248 0.0
O65 O 0.93488 0.65891 0.62648 0.0
O66 O 0.96164 0.61168 0.65179 0.0
O67 O 0.9224 0.59538 0.62891 0.0
H68 H 0.04522 0.57954 0.70694 0.0
H69 H 0.91044 0.64649 0.49608 0.0
O70 O 0.91552 0.59741 0.47614 0.0
H71 H 0.84434 0.64592 0.6341 0.0
H72 H 0.83199 0.55839 0.50352 0.0
H73 H 0.91071 0.54774 0.61102 0.0
H74 H 0.87501 0.60895 0.62392 0.0
H75 H 0.86767 0.59097 0.50033 0.0
O76 O 0.97751 0.65904 0.606 0.0
H77 H 0.00379 0.58244 0.65862 0.0
H78 H 0.02692 0.65583 0.59652 0.0
H79 H 0.8754 0.51483 0.61582 0.0
H80 H 0.88002 0.68379 0.50462 0.0
H81 H 0.83568 0.52005 0.56178 0.0
H82 H 0.84673 0.68368 0.57415 0.0
O83 O 0.94442 0.56742 0.54629 0.0
H84 H 0.99553 0.67388 0.42739 0.0
H85 H 0.02632 0.59914 0.53092 0.0
H86 H 0.04886 0.6099 0.44989 0.0
H87 H 0.03348 0.64753 0.39754 0.0
H88 H 0.9734 0.66226 0.50845 0.0
H89 H 0.06849 0.65385 0.64453 0.0
H90 H 0.0779 0.61544 0.70005 0.0
O91 O 0.98385 0.58294 0.56961 0.0
C92 C 0.93946 0.60153 0.66254 0.0
C93 C 0.04138 0.59634 0.68275 0.0
C94 C 0.05443 0.63807 0.64778 0.0
N95 N 0.01305 0.61918 0.6245 0.0
C96 C 0.018 0.59805 0.65519 0.0
C97 C 0.03083 0.63911 0.62078 0.0
C98 C 0.0597 0.6165 0.67891 0.0
C99 C 0.89583 0.6462 0.52609 0.0
N100 N 0.89439 0.62552 0.55925 0.0
C101 C 0.87873 0.66742 0.53088 0.0
C102 C 0.86008 0.66736 0.56995 0.0
C103 C 0.85874 0.64618 0.60362 0.0
C104 C 0.87618 0.62533 0.59771 0.0
C105 C 0.84916 0.55594 0.52736 0.0
C106 C 0.89339 0.55025 0.58771 0.0
C107 C 0.86944 0.57429 0.52566 0.0
N108 N 0.89112 0.57139 0.55587 0.0
C109 C 0.87351 0.5315 0.59044 0.0
C110 C 0.85125 0.53443 0.56006 0.0
C111 C 0.96883 0.56444 0.55471 0.0
C112 C 0.00245 0.65747 0.44992 0.0
C113 C 0.01945 0.61547 0.50825 0.0
C114 C 0.03234 0.62152 0.46248 0.0
C115 C 0.02372 0.64265 0.43315 0.0
N116 N 0.99859 0.63008 0.52441 0.0
C117 C 0.99006 0.65087 0.49594 0.0
Co118 Co 0.40305 0.422 0.77569 0.0
Co119 Co 0.37062 0.47882 0.81132 0.0
O120 O 0.37355 0.44641 0.77158 0.0
C121 C 0.40072 0.4378 0.66689 0.0
O122 O 0.39535 0.46162 0.68264 0.0
C123 C 0.32403 0.44825 0.84197 0.0
O124 O 0.33929 0.42757 0.84315 0.0
O125 O 0.38144 0.46074 0.87556 0.0
O126 O 0.40276 0.42416 0.8519 0.0
H127 H 0.40079 0.54712 0.93698 0.0
H128 H 0.35607 0.40754 0.71524 0.0
O129 O 0.4042 0.41938 0.6991 0.0
H130 H 0.36358 0.33976 0.84926 0.0
H131 H 0.45419 0.34183 0.72436 0.0
H132 H 0.45169 0.41924 0.83754 0.0
H133 H 0.39607 0.37541 0.84344 0.0
H134 H 0.41703 0.37265 0.72083 0.0
O135 O 0.33321 0.4704 0.82817 0.0
H136 H 0.40448 0.50648 0.8862 0.0
H137 H 0.32944 0.51993 0.82115 0.0
H138 H 0.48911 0.38882 0.84266 0.0
H139 H 0.32325 0.3721 0.71941 0.0
H140 H 0.49052 0.34978 0.78576 0.0
H141 H 0.32686 0.33794 0.78691 0.0
O142 O 0.42895 0.45109 0.77267 0.0
H143 H 0.31825 0.48899 0.64949 0.0
H144 H 0.38666 0.52822 0.75869 0.0
H145 H 0.37397 0.55027 0.67825 0.0
H146 H 0.33952 0.53064 0.62305 0.0
H147 H 0.33171 0.46749 0.73006 0.0
H148 H 0.32483 0.56059 0.87158 0.0
H149 H 0.36073 0.57447 0.92984 0.0
O150 O 0.40795 0.48787 0.79628 0.0
C151 C 0.39395 0.43978 0.88593 0.0
C152 C 0.38506 0.54133 0.91159 0.0
C153 C 0.34241 0.54887 0.87494 0.0
N154 N 0.3673 0.51098 0.85044 0.0
C155 C 0.38707 0.51839 0.88263 0.0
C156 C 0.34511 0.52581 0.84656 0.0
C157 C 0.36256 0.55665 0.90761 0.0
C158 C 0.35791 0.39259 0.74438 0.0
N159 N 0.37804 0.39345 0.77884 0.0
C160 C 0.33921 0.37264 0.7467 0.0
C161 C 0.34122 0.3535 0.78463 0.0
C162 C 0.36182 0.35451 0.81964 0.0
C163 C 0.38013 0.37477 0.81621 0.0
C164 C 0.45377 0.35873 0.74943 0.0
C165 C 0.45207 0.40219 0.81293 0.0
C166 C 0.4328 0.37627 0.74754 0.0
N167 N 0.4321 0.3976 0.77925 0.0
C168 C 0.47335 0.38508 0.81588 0.0
C169 C 0.47415 0.3632 0.7839 0.0
C170 C 0.42852 0.4756 0.78228 0.0
C171 C 0.33324 0.49776 0.67327 0.0
C172 C 0.37172 0.51952 0.73479 0.0
C173 C 0.36456 0.53213 0.68936 0.0
C174 C 0.34521 0.52111 0.65843 0.0
N175 N 0.35989 0.49663 0.74907 0.0
C176 C 0.34086 0.48574 0.71902 0.0
Co177 Co 0.59417 0.8935 0.02531 0.0
Co178 Co 0.5369 0.86676 0.07362 0.0
O179 O 0.56805 0.86554 0.03002 0.0
C180 C 0.57404 0.8915 0.91988 0.0
O181 O 0.55032 0.89219 0.93914 0.0
C182 C 0.56595 0.82062 0.11275 0.0
O183 O 0.58757 0.83439 0.10864 0.0
O184 O 0.55714 0.88146 0.13237 0.0
O185 O 0.59491 0.89724 0.10079 0.0
H186 H 0.47386 0.90858 0.19702 0.0
H187 H 0.6034 0.843 0.97217 0.0
O188 O 0.59398 0.89073 0.94896 0.0
H189 H 0.67633 0.85217 0.09481 0.0
H190 H 0.67526 0.93631 0.95403 0.0
H191 H 0.60221 0.94476 0.07679 0.0
H192 H 0.64268 0.88663 0.08762 0.0
H193 H 0.6421 0.90136 0.96171 0.0
O194 O 0.5441 0.83046 0.09925 0.0
H195 H 0.5129 0.90682 0.14135 0.0
H196 H 0.49449 0.82861 0.09872 0.0
H197 H 0.63503 0.98008 0.07061 0.0
H198 H 0.63674 0.80814 0.97784 0.0
H199 H 0.67189 0.97598 0.00888 0.0
H200 H 0.67349 0.81258 0.03963 0.0
O201 O 0.5665 0.92129 0.02179 0.0
H202 H 0.52022 0.80436 0.92818 0.0
H203 H 0.4864 0.88077 0.02315 0.0
H204 H 0.46143 0.86349 0.94956 0.0
H205 H 0.4783 0.82495 0.9016 0.0
H206 H 0.54468 0.82247 0.00172 0.0
H207 H 0.45537 0.82946 0.15426 0.0
H208 H 0.44479 0.86969 0.20375 0.0
O209 O 0.52903 0.90288 0.04955 0.0
C210 C 0.57925 0.89281 0.13771 0.0
C211 C 0.47822 0.89097 0.17552 0.0
C212 C 0.46786 0.84654 0.15158 0.0
N213 N 0.50586 0.86771 0.11654 0.0
C214 C 0.50025 0.88988 0.14381 0.0
C215 C 0.49007 0.84616 0.12029 0.0
C216 C 0.46193 0.86913 0.17932 0.0
C217 C 0.61947 0.84517 -0.00119 0.0
N218 N 0.62117 0.86687 0.02933 0.0
C219 C 0.63823 0.82533 0.00199 0.0
C220 C 0.65882 0.82782 0.03672 0.0
C221 C 0.66043 0.85002 0.06771 0.0
C222 C 0.64129 0.86945 0.06353 0.0
C223 C 0.65931 0.9383 0.98114 0.0
C224 C 0.61827 0.94276 0.05003 0.0
C225 C 0.64045 0.9186 0.98559 0.0
N226 N 0.62035 0.92093 0.01994 0.0
C227 C 0.63676 0.96286 0.04662 0.0
C228 C 0.65742 0.96055 0.01194 0.0
C229 C 0.54204 0.92225 0.03204 0.0
C230 C 0.51265 0.82114 0.94881 0.0
C231 C 0.49393 0.86411 0.00227 0.0
C232 C 0.47967 0.85435 0.96075 0.0
C233 C 0.48914 0.83272 0.93389 0.0
N234 N 0.51694 0.85261 0.01673 0.0
C235 C 0.52637 0.83142 0.99056 0.0
Co236 Co 0.10778 0.4298 0.04366 0.0
Co237 Co 0.13111 0.48834 -0.00574 0.0
O238 O 0.13442 0.45727 0.0377 0.0
C239 C 0.11418 0.44831 0.14944 0.0
O240 O 0.11626 0.47232 0.13192 0.0
C241 C 0.17926 0.46299 0.95518 0.0
O242 O 0.16657 0.44062 0.95654 0.0
O243 O 0.11902 0.46684 0.93501 0.0
O244 O 0.10195 0.43005 0.9689 0.0
H245 H 0.08566 0.54798 0.86949 0.0
H246 H 0.15991 0.42192 0.09096 0.0
O247 O 0.11225 0.42895 0.11908 0.0
H248 H 0.15077 0.35085 0.96398 0.0
H249 H 0.07079 0.34563 0.11385 0.0
H250 H 0.05515 0.4207 -0.00115 0.0
H251 H 0.11508 0.38271 0.9772 0.0
H252 H 0.10409 0.3803 0.10402 0.0
O253 O 0.16813 0.48397 0.97024 0.0
H254 H 0.09003 0.50907 0.92501 0.0
H255 H 0.16601 0.53367 0.97055 0.0
H256 H 0.0214 0.38637 0.00713 0.0
H257 H 0.19602 0.39036 0.07925 0.0
H258 H 0.02913 0.34849 0.06501 0.0
H259 H 0.19159 0.35457 0.01524 0.0
O260 O 0.07932 0.45604 0.05227 0.0
H261 H 0.19053 0.51019 0.14171 0.0
H262 H 0.11244 0.53752 0.04431 0.0
H263 H 0.12685 0.5638 0.11854 0.0
H264 H 0.1662 0.55019 0.16775 0.0
H265 H 0.17524 0.48434 0.06752 0.0
H266 H 0.16257 0.57271 0.91516 0.0
H267 H 0.12212 0.58011 0.8643 0.0
O268 O 0.09409 0.49344 0.01697 0.0
C269 C 0.1072 0.44491 0.93123 0.0
C270 C 0.10335 0.54501 0.89158 0.0
C271 C 0.14653 0.55887 0.91716 0.0
N272 N 0.12816 0.51921 0.95126 0.0
C273 C 0.10591 0.52306 0.9232 0.0
C274 C 0.14839 0.5367 0.94836 0.0
C275 C 0.12383 0.56302 0.88865 0.0
C276 C 0.15775 0.40624 0.06341 0.0
N277 N 0.13538 0.40407 0.03502 0.0
C278 C 0.1783 0.38849 0.05679 0.0
C279 C 0.17581 0.36844 0.02082 0.0
C280 C 0.15292 0.36635 0.99202 0.0
C281 C 0.13279 0.38447 -0.00038 0.0
C282 C 0.06724 0.36198 0.08833 0.0
C283 C 0.05876 0.40414 0.02365 0.0
C284 C 0.08602 0.38167 0.08262 0.0
N285 N 0.08171 0.40233 0.05032 0.0
C286 C 0.03954 0.38482 0.02839 0.0
C287 C 0.04387 0.3636 0.06093 0.0
C288 C 0.07632 0.47989 0.03893 0.0
C289 C 0.17338 0.51634 0.12054 0.0
C290 C 0.12947 0.53139 0.06573 0.0
C291 C 0.1376 0.5464 0.10761 0.0
C292 C 0.1597 0.53876 0.13517 0.0
N293 N 0.14299 0.50943 0.05163 0.0
C294 C 0.16469 0.50184 0.0784 0.0
Co295 Co 0.57385 0.59836 0.28768 0.0
Co296 Co 0.51566 0.62759 0.25089 0.0
O297 O 0.54736 0.62589 0.29263 0.0
C298 C 0.55522 0.59324 0.39398 0.0
O299 O 0.53134 0.59353 0.37544 0.0
C300 C 0.54355 0.67656 0.22481 0.0
O301 O 0.56506 0.66253 0.22275 0.0
O302 O 0.53542 0.61909 0.18718 0.0
O303 O 0.57317 0.60016 0.21151 0.0
H304 H 0.4516 0.59555 0.11873 0.0
H305 H 0.58363 0.64467 0.35364 0.0
O306 O 0.57486 0.5958 0.36428 0.0
H307 H 0.65412 0.64564 0.22421 0.0
H308 H 0.65666 0.55236 0.34097 0.0
H309 H 0.58139 0.55128 0.22254 0.0
H310 H 0.62096 0.61047 0.22427 0.0
H311 H 0.62298 0.58695 0.34514 0.0
O312 O 0.52194 0.66581 0.23749 0.0
H313 H 0.49152 0.59349 0.17184 0.0
H314 H 0.47221 0.66628 0.24121 0.0
H315 H 0.6147 0.51642 0.21675 0.0
H316 H 0.61653 0.68009 0.35526 0.0
H317 H 0.65268 0.51683 0.27627 0.0
H318 H 0.65203 0.68076 0.29008 0.0
O319 O 0.5467 0.57025 0.28557 0.0
H320 H 0.49954 0.67576 0.416 0.0
H321 H 0.4664 0.60765 0.29854 0.0
H322 H 0.44216 0.61734 0.3782 0.0
H323 H 0.4587 0.65167 0.43752 0.0
H324 H 0.52328 0.66524 0.33609 0.0
H325 H 0.43219 0.66925 0.18853 0.0
H326 H 0.42162 0.63365 0.12691 0.0
O327 O 0.50889 0.58953 0.26261 0.0
C328 C 0.55736 0.60828 0.17723 0.0
C329 C 0.45595 0.61114 0.14556 0.0
C330 C 0.44507 0.65253 0.18469 0.0
N331 N 0.48406 0.62964 0.20985 0.0
C332 C 0.47848 0.61005 0.17584 0.0
C333 C 0.46778 0.65077 0.21433 0.0
C334 C 0.43915 0.63254 0.15013 0.0
C335 C 0.59918 0.6447 0.32548 0.0
N336 N 0.60047 0.62547 0.2891 0.0
C337 C 0.61768 0.66486 0.32645 0.0
C338 C 0.63758 0.66524 0.28982 0.0
C339 C 0.63876 0.64555 0.25283 0.0
C340 C 0.6199 0.62571 0.25301 0.0
C341 C 0.64024 0.55201 0.31473 0.0
C342 C 0.59796 0.5517 0.2483 0.0
C343 C 0.6211 0.57152 0.31695 0.0
N344 N 0.6004 0.57128 0.28374 0.0
C345 C 0.61671 0.53186 0.24497 0.0
C346 C 0.638 0.53208 0.27841 0.0
C347 C 0.52233 0.5694 0.27486 0.0
C348 C 0.49211 0.66079 0.39042 0.0
C349 C 0.47377 0.62251 0.32427 0.0
C350 C 0.45993 0.62798 0.36925 0.0
C351 C 0.46921 0.64725 0.4025 0.0
N352 N 0.49618 0.63591 0.31267 0.0
C353 C 0.50542 0.65482 0.34506 0.0
Co354 Co 0.39385 0.10073 0.51796 0.0
Co355 Co 0.36158 0.04218 0.49426 0.0
O356 O 0.36391 0.07701 0.52557 0.0
C357 C 0.39237 0.08995 0.62838 0.0
O358 O 0.38549 0.06593 0.61648 0.0
C359 C 0.31642 0.07104 0.45 0.0
O360 O 0.33149 0.09182 0.44688 0.0
O361 O 0.37591 0.05528 0.42785 0.0
O362 O 0.39442 0.0945 0.44303 0.0
H363 H 0.39487 0.96515 0.39337 0.0
H364 H 0.34685 0.11887 0.57424 0.0
O365 O 0.39484 0.10719 0.59349 0.0
H366 H 0.35575 0.17894 0.42703 0.0
H367 H 0.44514 0.18302 0.55376 0.0
H368 H 0.44359 0.09936 0.45911 0.0
H369 H 0.38779 0.14344 0.44076 0.0
H370 H 0.4076 0.15287 0.56213 0.0
O371 O 0.3252 0.04984 0.46926 0.0
H372 H 0.39761 0.00891 0.43321 0.0
H373 H 0.31976 0.00145 0.48882 0.0
H374 H 0.4814 0.12901 0.44927 0.0
H375 H 0.31446 0.15423 0.5622 0.0
H376 H 0.48233 0.1712 0.49682 0.0
H377 H 0.31878 0.1845 0.48806 0.0
O378 O 0.41939 0.07164 0.52748 0.0
H379 H 0.30237 0.04451 0.64819 0.0
H380 H 0.37383 0.99667 0.56196 0.0
H381 H 0.35714 0.98072 0.64513 0.0
H382 H 0.32113 0.0047 0.68878 0.0
H383 H 0.31983 0.05991 0.56518 0.0
H384 H 0.31608 0.95771 0.44917 0.0
H385 H 0.35386 0.93924 0.40121 0.0
O386 O 0.39778 0.03362 0.51759 0.0
C387 C 0.38814 0.07578 0.41322 0.0
C388 C 0.3783 0.97295 0.41431 0.0
C389 C 0.33407 0.96879 0.44557 0.0
N390 N 0.35895 0.00763 0.46364 0.0
C391 C 0.37977 0.99768 0.43708 0.0
C392 C 0.33625 0.99359 0.46785 0.0
C393 C 0.35528 0.95844 0.41868 0.0
C394 C 0.34897 0.13214 0.54218 0.0
N395 N 0.36924 0.12922 0.50844 0.0
C396 C 0.33053 0.15205 0.53543 0.0
C397 C 0.33294 0.16901 0.49378 0.0
C398 C 0.35368 0.16588 0.45951 0.0
C399 C 0.37172 0.14573 0.46743 0.0
C400 C 0.44492 0.16474 0.53269 0.0
C401 C 0.44374 0.11779 0.47957 0.0
C402 C 0.42373 0.14759 0.5373 0.0
N403 N 0.42325 0.12453 0.5106 0.0
C404 C 0.46526 0.13445 0.474 0.0
C405 C 0.46578 0.1581 0.50074 0.0
C406 C 0.41852 0.04666 0.52703 0.0
C407 C 0.31802 0.03387 0.62949 0.0
C408 C 0.3582 0.00724 0.58079 0.0
C409 C 0.3488 0.99809 0.62782 0.0
C410 C 0.32858 0.01154 0.65227 0.0
N411 N 0.34772 0.02914 0.55867 0.0
C412 C 0.32791 0.04243 0.5824 0.0
Co413 Co 0.92153 0.89925 0.78086 0.0
Co414 Co 0.97813 0.86781 0.74112 0.0
O415 O 0.94709 0.8708 0.78475 0.0
C416 C 0.9409 0.90415 0.88708 0.0
O417 O 0.96474 0.90353 0.86827 0.0
C418 C 0.94773 0.81999 0.71811 0.0
O419 O 0.92691 0.83506 0.71814 0.0
O420 O 0.95787 0.87693 0.67844 0.0
O421 O 0.92134 0.89752 0.70459 0.0
H422 H 0.04154 0.89718 0.60528 0.0
H423 H 0.91063 0.85328 0.847 0.0
O424 O 0.92117 0.90179 0.85759 0.0
H425 H 0.83889 0.85515 0.72046 0.0
H426 H 0.84105 0.94841 0.8373 0.0
H427 H 0.91524 0.94663 0.71613 0.0
H428 H 0.87335 0.88903 0.71932 0.0
H429 H 0.87335 0.91251 0.84012 0.0
O430 O 0.97016 0.82974 0.72821 0.0
H431 H 0.00251 0.90089 0.66067 0.0
H432 H 0.01983 0.8274 0.72913 0.0
H433 H 0.88329 0.98278 0.71169 0.0
H434 H 0.87645 0.81912 0.84979 0.0
H435 H 0.84586 0.98383 0.7726 0.0
H436 H 0.84031 0.81988 0.78607 0.0
O437 O 0.94975 0.92621 0.77786 0.0
H438 H 0.99485 0.81917 0.90538 0.0
H439 H 0.02866 0.88609 0.78599 0.0
H440 H 0.05367 0.87554 0.86424 0.0
H441 H 0.0368 0.84181 0.92452 0.0
H442 H 0.97037 0.83051 0.82685 0.0
H443 H 0.05891 0.82277 0.67416 0.0
H444 H 0.07004 0.85788 0.61184 0.0
O445 O 0.98652 0.90571 0.7523 0.0
C446 C 0.93631 0.88866 0.66951 0.0
C447 C 0.03695 0.88179 0.63241 0.0
C448 C 0.04668 0.84001 0.67102 0.0
N449 N 0.00904 0.86449 0.69836 0.0
C450 C 0.01493 0.88382 0.66398 0.0
C451 C 0.0245 0.84271 0.70196 0.0
C452 C 0.05291 0.85972 0.63607 0.0
C453 C 0.89482 0.85387 0.81948 0.0
N454 N 0.89391 0.87319 0.78323 0.0
C455 C 0.87558 0.83443 0.82111 0.0
C456 C 0.85533 0.83484 0.7853 0.0
C457 C 0.85453 0.85462 0.74846 0.0
C458 C 0.87412 0.87372 0.74794 0.0
C459 C 0.85723 0.94814 0.81047 0.0
C460 C 0.8989 0.94684 0.74251 0.0
C461 C 0.8756 0.92788 0.81193 0.0
N462 N 0.896 0.92734 0.77797 0.0
C463 C 0.88092 0.96741 0.73993 0.0
C464 C 0.85994 0.968 0.77415 0.0
C465 C 0.97398 0.92626 0.76574 0.0
C466 C 0.00243 0.83386 0.87936 0.0
C467 C 0.02115 0.87147 0.81214 0.0
C468 C 0.03542 0.86553 0.85632 0.0
C469 C 0.02595 0.84659 0.8901 0.0
N470 N 0.99813 0.85885 0.80183 0.0
C471 C 0.9887 0.84029 0.83478 0.0
Co472 Co 0.60162 0.5854 0.79069 0.0
Co473 Co 0.63163 0.5272 0.8252 0.0
O474 O 0.6301 0.55992 0.78644 0.0
C475 C 0.60044 0.57004 0.68189 0.0
O476 O 0.59963 0.54558 0.69726 0.0
C477 C 0.67843 0.55634 0.85903 0.0
O478 O 0.66354 0.57729 0.85994 0.0
O479 O 0.62038 0.5449 0.88954 0.0
O480 O 0.60081 0.58257 0.86675 0.0
H481 H 0.59777 0.45854 0.94646 0.0
H482 H 0.64977 0.59855 0.73241 0.0
O483 O 0.60181 0.5887 0.71415 0.0
H484 H 0.64369 0.66518 0.86898 0.0
H485 H 0.55472 0.66828 0.74058 0.0
H486 H 0.55221 0.58952 0.85006 0.0
H487 H 0.6098 0.63099 0.86051 0.0
H488 H 0.5905 0.63584 0.73731 0.0
O489 O 0.66904 0.53445 0.84425 0.0
H490 H 0.59591 0.49973 0.89706 0.0
H491 H 0.67156 0.48495 0.83576 0.0
H492 H 0.51613 0.62153 0.85486 0.0
H493 H 0.68397 0.63253 0.73924 0.0
H494 H 0.51725 0.66127 0.79984 0.0
H495 H 0.6811 0.66609 0.80804 0.0
O496 O 0.5745 0.55728 0.78617 0.0
H497 H 0.68571 0.51719 0.66537 0.0
H498 H 0.61516 0.47863 0.77029 0.0
H499 H 0.62839 0.45688 0.68983 0.0
H500 H 0.66396 0.47616 0.63681 0.0
H501 H 0.67167 0.5384 0.74592 0.0
H502 H 0.67435 0.44372 0.88486 0.0
H503 H 0.63721 0.43023 0.94054 0.0
O504 O 0.5943 0.5195 0.80792 0.0
C505 C 0.60845 0.56613 0.90033 0.0
C506 C 0.61404 0.46416 0.9222 0.0
C507 C 0.65703 0.45586 0.88768 0.0
N508 N 0.63351 0.49461 0.86326 0.0
C509 C 0.61306 0.48741 0.89402 0.0
C510 C 0.65537 0.47925 0.86005 0.0
C511 C 0.63619 0.4483 0.9189 0.0
C512 C 0.64824 0.61326 0.76211 0.0
N513 N 0.62774 0.61288 0.79583 0.0
C514 C 0.66773 0.63238 0.76593 0.0
C515 C 0.66612 0.65118 0.80459 0.0
C516 C 0.64514 0.65067 0.83881 0.0
C517 C 0.62604 0.63124 0.83388 0.0
C518 C 0.55404 0.65108 0.76484 0.0
C519 C 0.55293 0.60685 0.82627 0.0
C520 C 0.57422 0.63263 0.7631 0.0
N521 N 0.57356 0.61095 0.79385 0.0
C522 C 0.5324 0.62487 0.82903 0.0
C523 C 0.53303 0.64714 0.79811 0.0
C524 C 0.57417 0.53261 0.79435 0.0
C525 C 0.67022 0.50858 0.68818 0.0
C526 C 0.63055 0.48719 0.74731 0.0
C527 C 0.63802 0.47475 0.70186 0.0
C528 C 0.65799 0.48557 0.67215 0.0
N529 N 0.64268 0.50971 0.7628 0.0
C530 C 0.66225 0.52045 0.73388 0.0
Co531 Co 0.42955 0.09158 0.0331 0.0
Co532 Co 0.48725 0.12481 0.05885 0.0
O533 O 0.45319 0.12162 0.02441 0.0
C534 C 0.43624 0.0955 0.9207 0.0
O535 O 0.46082 0.10209 0.92768 0.0
C536 C 0.45987 0.17293 0.09272 0.0
O537 O 0.43905 0.15844 0.10119 0.0
O538 O 0.47148 0.11579 0.12665 0.0
O539 O 0.43681 0.09065 0.10748 0.0
H540 H 0.55962 0.09582 0.17633 0.0
H541 H 0.41051 0.13938 0.98061 0.0
O542 O 0.42119 0.09136 0.95862 0.0
H543 H 0.3529 0.12846 0.13104 0.0
H544 H 0.34699 0.03987 0.00236 0.0
H545 H 0.4322 0.04172 0.0912 0.0
H546 H 0.388 0.09656 0.11324 0.0
H547 H 0.37668 0.07767 0.99247 0.0
O548 O 0.48043 0.16271 0.07358 0.0
H549 H 0.51701 0.09204 0.13237 0.0
H550 H 0.52957 0.16514 0.05845 0.0
H551 H 0.40304 0.00362 0.10245 0.0
H552 H 0.37547 0.17164 -0.00328 0.0
H553 H 0.36008 0.00253 0.05784 0.0
H554 H 0.34644 0.16632 0.07251 0.0
O555 O 0.45854 0.06638 0.02029 0.0
H556 H 0.49193 0.17383 0.89203 0.0
H557 H 0.53417 0.10679 0.00012 0.0
H558 H 0.5532 0.11754 0.91573 0.0
H559 H 0.53207 0.15132 0.86108 0.0
H560 H 0.4734 0.16224 0.9765 0.0
H561 H 0.5722 0.16983 0.10197 0.0
H562 H 0.58753 0.13495 0.16123 0.0
O563 O 0.49515 0.08709 0.04551 0.0
C564 C 0.45222 0.1013 0.13953 0.0
C565 C 0.55319 0.11111 0.15048 0.0
C566 C 0.56024 0.15267 0.1088 0.0
N567 N 0.52091 0.12825 0.09263 0.0
C568 C 0.52912 0.10905 0.12538 0.0
C569 C 0.53606 0.14994 0.08437 0.0
C570 C 0.56883 0.13309 0.14203 0.0
C571 C 0.39778 0.1368 0.01336 0.0
N572 N 0.40121 0.11605 0.04575 0.0
C573 C 0.37805 0.15518 0.02241 0.0
C574 C 0.36179 0.1522 0.06499 0.0
C575 C 0.36541 0.13098 0.09786 0.0
C576 C 0.38536 0.113 0.08763 0.0
C577 C 0.36563 0.04014 0.02209 0.0
C578 C 0.41347 0.04147 0.07191 0.0
C579 C 0.38254 0.06147 0.01657 0.0
N580 N 0.40606 0.062 0.04157 0.0
C581 C 0.39707 0.01981 0.07831 0.0
C582 C 0.37299 0.0192 0.05323 0.0
C583 C 0.48307 0.06683 0.02938 0.0
C584 C 0.50134 0.15911 0.91552 0.0
C585 C 0.52476 0.12137 0.97644 0.0
C586 C 0.53569 0.12746 0.92877 0.0
C587 C 0.52384 0.14644 0.89815 0.0
N588 N 0.50269 0.13387 -0.00681 0.0
C589 C 0.491 0.15254 0.96345 0.0
Co590 Co 0.89201 0.91378 0.28387 0.0
Co591 Co 0.86125 0.9714 0.31974 0.0
O592 O 0.86348 0.9392 0.27939 0.0
C593 C 0.89564 0.92951 0.17493 0.0
O594 O 0.89771 0.9539 0.19031 0.0
C595 C 0.81349 0.94225 0.3492 0.0
O596 O 0.82808 0.92111 0.35091 0.0
O597 O 0.87127 0.95282 0.38394 0.0
O598 O 0.89205 0.91598 0.36008 0.0
H599 H 0.89285 0.03827 0.44702 0.0
H600 H 0.84453 0.90097 0.22341 0.0
O601 O 0.89261 0.911 0.20713 0.0
H602 H 0.84945 0.83319 0.3579 0.0
H603 H 0.93979 0.83152 0.23285 0.0
H604 H 0.9408 0.90935 0.34499 0.0
H605 H 0.88327 0.86758 0.35187 0.0
H606 H 0.9039 0.86381 0.22934 0.0
O607 O 0.82347 0.96409 0.33564 0.0
H608 H 0.89558 0.99776 0.39563 0.0
H609 H 0.82127 0.01368 0.32951 0.0
H610 H 0.97698 0.87746 0.35005 0.0
H611 H 0.8104 0.86682 0.22779 0.0
H612 H 0.97662 0.8382 0.29369 0.0
H613 H 0.81269 0.83267 0.29553 0.0
O614 O 0.91905 0.94204 0.28148 0.0
H615 H 0.81036 0.98368 0.15667 0.0
H616 H 0.87881 0.02069 0.26867 0.0
H617 H 0.86717 0.04355 0.1885 0.0
H618 H 0.83266 0.02507 0.13193 0.0
H619 H 0.82281 0.96134 0.23701 0.0
H620 H 0.81761 0.05424 0.38054 0.0
H621 H 0.85363 0.06681 0.43966 0.0
O622 O 0.89889 0.97926 0.30556 0.0
C623 C 0.88358 0.93173 0.3942 0.0
C624 C 0.87706 0.03305 0.42127 0.0
C625 C 0.83482 0.04199 0.38401 0.0
N626 N 0.8587 0.00348 0.35933 0.0
C627 C 0.87854 0.01018 0.39196 0.0
C628 C 0.83698 0.01898 0.3553 0.0
C629 C 0.85504 0.04904 0.41716 0.0
C630 C 0.8458 0.88602 0.25266 0.0
N631 N 0.86594 0.88618 0.28715 0.0
C632 C 0.82636 0.8668 0.2551 0.0
C633 C 0.82764 0.84766 0.29316 0.0
C634 C 0.84825 0.84796 0.32819 0.0
C635 C 0.86732 0.8675 0.32463 0.0
C636 C 0.94014 0.84851 0.25769 0.0
C637 C 0.94041 0.89222 0.3206 0.0
C638 C 0.91989 0.86688 0.25582 0.0
N639 N 0.92013 0.88831 0.28728 0.0
C640 C 0.961 0.87428 0.32352 0.0
C641 C 0.96079 0.85227 0.29185 0.0
C642 C 0.91921 0.96652 0.29173 0.0
C643 C 0.8254 0.99195 0.18104 0.0
C644 C 0.86389 0.01246 0.24412 0.0
C645 C 0.85731 0.02553 0.19885 0.0
C646 C 0.83794 0.01516 0.16715 0.0
N647 N 0.85146 0.98975 0.25751 0.0
C648 C 0.83247 0.97944 0.22662 0.0
Co649 Co 0.10124 0.39928 0.53276 0.0
Co650 Co 0.04281 0.37513 0.58075 0.0
O651 O 0.07326 0.37311 0.53537 0.0
C652 C 0.07876 0.39982 0.42911 0.0
O653 O 0.0556 0.3957 0.44938 0.0
C654 C 0.07032 0.32675 0.61262 0.0
O655 O 0.09225 0.33989 0.60744 0.0
O656 O 0.06463 0.38725 0.63943 0.0
O657 O 0.10376 0.3995 0.60823 0.0
H658 H 0.9838 0.41755 0.71083 0.0
H659 H 0.10566 0.35089 0.47061 0.0
O660 O 0.09921 0.4004 0.4568 0.0
H661 H 0.18157 0.34943 0.58744 0.0
H662 H 0.18349 0.43967 0.46122 0.0
H663 H 0.11387 0.44746 0.59153 0.0
H664 H 0.1504 0.38633 0.58913 0.0
H665 H 0.14829 0.40667 0.46645 0.0
O666 O 0.04848 0.33777 0.60278 0.0
H667 H 0.022 0.41488 0.65308 0.0
H668 H 0.99878 0.33879 0.60513 0.0
H669 H 0.14883 0.48077 0.58796 0.0
H670 H 0.13645 0.31367 0.46737 0.0
H671 H 0.18396 0.477 0.5224 0.0
H672 H 0.17468 0.31276 0.52621 0.0
O673 O 0.07568 0.42878 0.53581 0.0
H674 H 0.02001 0.31701 0.43168 0.0
H675 H 0.99291 0.39368 0.53391 0.0
H676 H 0.96587 0.37967 0.46045 0.0
H677 H 0.97937 0.34104 0.40883 0.0
H678 H 0.04659 0.33185 0.50521 0.0
H679 H 0.96044 0.34055 0.66269 0.0
H680 H 0.95271 0.38019 0.7159 0.0
O681 O 0.03675 0.4124 0.56033 0.0
C682 C 0.08788 0.39595 0.6451 0.0
C683 C 0.98691 0.40021 0.68771 0.0
C684 C 0.97382 0.35697 0.66074 0.0
N685 N 0.01249 0.37679 0.62547 0.0
C686 C 0.00845 0.39862 0.65482 0.0
C687 C 0.99559 0.35607 0.6283 0.0
C688 C 0.96949 0.37923 0.69057 0.0
C689 C 0.1224 0.35073 0.49597 0.0
N690 N 0.12632 0.3708 0.52979 0.0
C691 C 0.1397 0.32956 0.49412 0.0
C692 C 0.16113 0.32905 0.52719 0.0
C693 C 0.165 0.34961 0.56157 0.0
C694 C 0.14727 0.37044 0.56241 0.0
C695 C 0.16834 0.44149 0.49005 0.0
C696 C 0.12921 0.44557 0.56317 0.0
C697 C 0.14834 0.42288 0.49316 0.0
N698 N 0.12918 0.425 0.5296 0.0
C699 C 0.1489 0.46454 0.56122 0.0
C700 C 0.16859 0.46243 0.52439 0.0
C701 C 0.05136 0.43133 0.54591 0.0
C702 C 0.01389 0.33382 0.45397 0.0
C703 C 0.99894 0.3769 0.51152 0.0
C704 C 0.98353 0.36903 0.47005 0.0
C705 C 0.9911 0.34734 0.44112 0.0
N706 N 0.02123 0.36351 0.52394 0.0
C707 C 0.0288 0.34225 0.49575 0.0
Co708 Co 0.58986 0.93484 0.53552 0.0
Co709 Co 0.61919 0.99014 0.48479 0.0
O710 O 0.61884 0.95986 0.53075 0.0
C711 C 0.59281 0.95266 0.64308 0.0
O712 O 0.59098 0.97693 0.62676 0.0
C713 C 0.66735 0.96182 0.45324 0.0
O714 O 0.65355 0.94011 0.45241 0.0
O715 O 0.60815 0.96809 0.42538 0.0
O716 O 0.58502 0.93511 0.46027 0.0
H717 H 0.5825 0.04968 0.34922 0.0
H718 H 0.64062 0.92267 0.58521 0.0
O719 O 0.59383 0.93375 0.61141 0.0
H720 H 0.62654 0.85191 0.4593 0.0
H721 H 0.54476 0.85459 0.6051 0.0
H722 H 0.53732 0.93003 0.48785 0.0
H723 H 0.59372 0.88691 0.47028 0.0
H724 H 0.58104 0.88621 0.59664 0.0
O725 O 0.65673 0.9833 0.46699 0.0
H726 H 0.58235 0.01171 0.40782 0.0
H727 H 0.65753 0.03297 0.46367 0.0
H728 H 0.50065 0.89878 0.49484 0.0
H729 H 0.67385 0.88792 0.57579 0.0
H730 H 0.50424 0.86072 0.55381 0.0
H731 H 0.66694 0.85226 0.51233 0.0
O732 O 0.56361 0.96357 0.54185 0.0
H733 H 0.67323 0.01091 0.64052 0.0
H734 H 0.60215 0.04167 0.52774 0.0
H735 H 0.61506 0.06841 0.60238 0.0
H736 H 0.65091 0.05307 0.65933 0.0
H737 H 0.65946 0.98467 0.56571 0.0
H738 H 0.65862 0.07101 0.40531 0.0
H739 H 0.62085 0.07963 0.34772 0.0
O740 O 0.58182 0.99794 0.50134 0.0
C741 C 0.59358 0.94786 0.42189 0.0
C742 C 0.59904 0.04617 0.37423 0.0
C743 C 0.64178 0.05812 0.40566 0.0
N744 N 0.61983 0.02023 0.43934 0.0
C745 C 0.59904 0.02475 0.40758 0.0
C746 C 0.64109 0.03651 0.4385 0.0
C747 C 0.62058 0.06295 0.37337 0.0
C748 C 0.63737 0.90708 0.55787 0.0
N749 N 0.61521 0.90675 0.52853 0.0
C750 C 0.65629 0.88751 0.55256 0.0
C751 C 0.65242 0.86753 0.5169 0.0
C752 C 0.62976 0.86733 0.48711 0.0
C753 C 0.61127 0.88724 0.49343 0.0
C754 C 0.543 0.87104 0.57914 0.0
C755 C 0.53912 0.9134 0.51325 0.0
C756 C 0.56346 0.88903 0.57422 0.0
N757 N 0.56142 0.90979 0.54131 0.0
C758 C 0.51825 0.89582 0.5172 0.0
C759 C 0.52027 0.87449 0.55035 0.0
C760 C 0.56271 0.9869 0.52434 0.0
C761 C 0.6576 0.01781 0.61599 0.0
C762 C 0.6176 0.03478 0.55255 0.0
C763 C 0.62492 0.05005 0.59464 0.0
C764 C 0.64504 0.04145 0.62654 0.0
N765 N 0.63 0.01162 0.54244 0.0
C766 C 0.64976 0.00307 0.57352 0.0
Co767 Co 0.08166 0.10089 0.77173 0.0
Co768 Co 0.02254 0.13143 0.74538 0.0
O769 O 0.05612 0.12909 0.78147 0.0
C770 C 0.06835 0.09653 0.88032 0.0
O771 O 0.04397 0.10151 0.86779 0.0
C772 C 0.04988 0.18008 0.7139 0.0
O773 O 0.07108 0.16587 0.70794 0.0
O774 O 0.03899 0.12208 0.67832 0.0
O775 O 0.07752 0.10319 0.69705 0.0
H776 H 0.95186 0.10037 0.62586 0.0
H777 H 0.0955 0.14645 0.83665 0.0
O778 O 0.08636 0.09723 0.84681 0.0
H779 H 0.15967 0.14695 0.69516 0.0
H780 H 0.16589 0.05295 0.80743 0.0
H781 H 0.08444 0.05352 0.70593 0.0
H782 H 0.12593 0.11244 0.70036 0.0
H783 H 0.13347 0.08832 0.81852 0.0
O784 O 0.02886 0.1695 0.73028 0.0
H785 H 0.99406 0.09761 0.67158 0.0
H786 H 0.97959 0.171 0.74306 0.0
H787 H 0.11641 0.0179 0.69329 0.0
H788 H 0.12905 0.18123 0.83316 0.0
H789 H 0.15751 0.01748 0.74425 0.0
H790 H 0.16138 0.18165 0.76192 0.0
O791 O 0.05381 0.07344 0.77426 0.0
H792 H 0.01541 0.18058 0.9118 0.0
H793 H 0.97536 0.11276 0.80225 0.0
H794 H 0.95531 0.12324 0.88589 0.0
H795 H 0.97535 0.15741 0.94127 0.0
H796 H 0.03495 0.1693 0.82803 0.0
H797 H 0.93735 0.17467 0.69777 0.0
H798 H 0.9232 0.13913 0.63883 0.0
O799 O 0.01546 0.09358 0.75902 0.0
C800 C 0.06036 0.11095 0.66535 0.0
C801 C 0.95778 0.11595 0.65156 0.0
C802 C 0.94965 0.15767 0.69186 0.0
N803 N 0.98918 0.13403 0.71021 0.0
C804 C 0.98161 0.11446 0.67766 0.0
C805 C 0.97361 0.15551 0.7173 0.0
C806 C 0.94171 0.13771 0.65881 0.0
C807 C 0.10968 0.14638 0.80583 0.0
N808 N 0.10887 0.12737 0.76896 0.0
C809 C 0.12855 0.16617 0.80393 0.0
C810 C 0.14667 0.16642 0.76391 0.0
C811 C 0.14571 0.14696 0.72642 0.0
C812 C 0.12654 0.1275 0.72952 0.0
C813 C 0.14811 0.05298 0.78484 0.0
C814 C 0.10237 0.05359 0.72793 0.0
C815 C 0.12968 0.07295 0.79096 0.0
N816 N 0.10725 0.07319 0.76236 0.0
C817 C 0.12036 0.03332 0.72075 0.0
C818 C 0.14339 0.03308 0.74939 0.0
C819 C 0.02899 0.07315 0.76857 0.0
C820 C 0.00647 0.1657 0.88797 0.0
C821 C 0.98424 0.12757 0.82621 0.0
C822 C 0.97276 0.13348 0.87347 0.0
C823 C 0.98401 0.15266 0.90451 0.0
N824 N 0.00626 0.14046 0.81026 0.0
C825 C 0.01738 0.1593 0.84044 0.0
Co826 Co 0.89646 0.57498 0.04952 0.0
Co827 Co 0.8703 0.51483 0.01454 0.0
O828 O 0.86919 0.54797 0.05237 0.0
C829 C 0.89335 0.56002 0.15878 0.0
O830 O 0.88956 0.53583 0.14348 0.0
C831 C 0.82204 0.54021 0.9766 0.0
O832 O 0.83539 0.56217 0.97452 0.0
O833 O 0.88132 0.53293 0.95034 0.0
O834 O 0.89813 0.57195 0.97336 0.0
H835 H 0.91015 0.44788 0.89666 0.0
H836 H 0.84715 0.58561 0.10572 0.0
O837 O 0.89591 0.57844 0.12619 0.0
H838 H 0.85105 0.65216 0.96876 0.0
H839 H 0.93875 0.66019 0.10074 0.0
H840 H 0.94608 0.58152 0.99177 0.0
H841 H 0.88663 0.6199 0.97894 0.0
H842 H 0.90452 0.62606 0.10281 0.0
O843 O 0.83281 0.51941 -0.0065 0.0
H844 H 0.90861 0.48943 0.94499 0.0
H845 H 0.83342 0.46986 0.0033 0.0
H846 H 0.98064 0.61525 0.98816 0.0
H847 H 0.81122 0.61763 0.09718 0.0
H848 H 0.97709 0.65493 0.04295 0.0
H849 H 0.813 0.65115 0.02818 0.0
O850 O 0.92481 0.54852 0.05596 0.0
H851 H 0.81442 0.50206 0.17124 0.0
H852 H 0.88917 0.46787 0.07185 0.0
H853 H 0.87616 0.44582 0.15212 0.0
H854 H 0.83851 0.46291 0.20238 0.0
H855 H 0.82826 0.52365 0.09096 0.0
H856 H 0.83404 0.42821 0.95524 0.0
H857 H 0.87266 0.41695 0.90162 0.0
O858 O 0.90776 0.5095 0.03397 0.0
C859 C 0.89197 0.55489 0.93971 0.0
C860 C 0.89325 0.45252 0.92003 0.0
C861 C 0.85051 0.4415 0.95285 0.0
N862 N 0.87105 0.48195 0.97724 0.0
C863 C 0.8923 0.47598 0.9476 0.0
C864 C 0.85025 0.46513 0.97988 0.0
C865 C 0.8722 0.43519 0.92278 0.0
C866 C 0.84817 0.60031 0.07595 0.0
N867 N 0.86901 0.601 0.04309 0.0
C868 C 0.82773 0.61832 0.07115 0.0
C869 C 0.82873 0.6371 0.03238 0.0
C870 C 0.85006 0.63767 -0.00099 0.0
C871 C 0.87013 0.61933 0.00492 0.0
C872 C 0.94048 0.64302 0.07658 0.0
C873 C 0.9443 0.59884 0.01541 0.0
C874 C 0.92118 0.62362 0.07764 0.0
N875 N 0.92319 0.60195 0.04706 0.0
C876 C 0.96397 0.61782 0.01334 0.0
C877 C 0.96199 0.64006 0.04414 0.0
C878 C 0.92677 0.52391 0.0485 0.0
C879 C 0.83082 0.4944 0.14962 0.0
C880 C 0.87284 0.47548 0.09361 0.0
C881 C 0.86552 0.46287 0.13896 0.0
C882 C 0.84437 0.47245 0.16712 0.0
N883 N 0.85945 0.497 0.07672 0.0
C884 C 0.83867 0.50648 0.10405 0.0
Co885 Co 0.41662 0.39536 0.27327 0.0
Co886 Co 0.47426 0.36446 0.23761 0.0
O887 O 0.44157 0.3663 0.27663 0.0
C888 C 0.43342 0.3933 0.38127 0.0
O889 O 0.45694 0.38768 0.3643 0.0
C890 C 0.44414 0.31804 0.2039 0.0
O891 O 0.42318 0.33291 0.20456 0.0
O892 O 0.45661 0.37656 0.17391 0.0
O893 O 0.41857 0.39542 0.19691 0.0
H894 H 0.54318 0.39785 0.11641 0.0
H895 H 0.40329 0.34808 0.33388 0.0
O896 O 0.4145 0.39646 0.35005 0.0
H897 H 0.33506 0.35423 0.2006 0.0
H898 H 0.33562 0.44463 0.32634 0.0
H899 H 0.41276 0.44431 0.21241 0.0
H900 H 0.37003 0.38749 0.20608 0.0
H901 H 0.36722 0.40809 0.32895 0.0
O902 O 0.46626 0.32734 0.21749 0.0
H903 H 0.50219 0.40015 0.16636 0.0
H904 H 0.51571 0.3238 0.22547 0.0
H905 H 0.38155 0.48112 0.2082 0.0
H906 H 0.36857 0.31449 0.33005 0.0
H907 H 0.34264 0.48142 0.26547 0.0
H908 H 0.33419 0.31741 0.26291 0.0
O909 O 0.44514 0.4218 0.27606 0.0
H910 H 0.48377 0.30867 0.39526 0.0
H911 H 0.52307 0.37981 0.29285 0.0
H912 H 0.54469 0.36554 0.37271 0.0
H913 H 0.52502 0.32971 0.42449 0.0
H914 H 0.4627 0.32372 0.31534 0.0
H915 H 0.55672 0.32056 0.1758 0.0
H916 H 0.57074 0.35782 0.12094 0.0
O917 O 0.48285 0.40157 0.25592 0.0
C918 C 0.43518 0.38815 0.16324 0.0
C919 C 0.53733 0.38152 0.14032 0.0
C920 C 0.54491 0.33813 0.1736 0.0
N921 N 0.5067 0.36223 0.19914 0.0
C922 C 0.51418 0.38275 0.16882 0.0
C923 C 0.52165 0.34005 0.20156 0.0
C924 C 0.55277 0.35905 0.14283 0.0
C925 C 0.38823 0.34962 0.30491 0.0
N926 N 0.38858 0.36978 0.27046 0.0
C927 C 0.3687 0.33049 0.30278 0.0
C928 C 0.34943 0.33212 0.26505 0.0
C929 C 0.34992 0.35276 0.23006 0.0
C930 C 0.36978 0.37151 0.2333 0.0
C931 C 0.35245 0.44468 0.30108 0.0
C932 C 0.39576 0.4442 0.23713 0.0
C933 C 0.37043 0.42407 0.30243 0.0
N934 N 0.39165 0.42395 0.27046 0.0
C935 C 0.37821 0.46514 0.23472 0.0
C936 C 0.3564 0.46532 0.26691 0.0
C937 C 0.46982 0.42188 0.26874 0.0
C938 C 0.49256 0.32426 0.37296 0.0
C939 C 0.51437 0.36426 0.31524 0.0
C940 C 0.52672 0.35622 0.36037 0.0
C941 C 0.51569 0.3361 0.38938 0.0
N942 N 0.4917 0.35253 0.2994 0.0
C943 C 0.48078 0.33278 0.32759 0.0
H944 H 0.28618 0.02958 0.42338 0.0
H945 H 0.28606 0.11406 0.42986 0.0
H946 H 0.24127 0.11485 0.3963 0.0
H947 H 0.20183 0.09132 0.36625 0.0
H948 H 0.20327 0.0068 0.3574 0.0
H949 H 0.24785 0.00634 0.39038 0.0
C950 C 0.27635 0.04819 0.41764 0.0
C951 C 0.28937 0.07172 0.42951 0.0
C952 C 0.25083 0.04851 0.39767 0.0
C953 C 0.27647 0.09566 0.42108 0.0
C954 C 0.25085 0.09612 0.40192 0.0
C955 C 0.21194 0.07281 0.37136 0.0
C956 C 0.19909 0.04914 0.35946 0.0
C957 C 0.23779 0.07264 0.39017 0.0
C958 C 0.2126 0.02535 0.36605 0.0
C959 C 0.23812 0.02503 0.38513 0.0
H960 H 0.98677 0.78645 0.69061 0.0
H961 H 0.90304 0.79079 0.71178 0.0
H962 H 0.89858 0.74527 0.6841 0.0
H963 H 0.91836 0.70431 0.65283 0.0
H964 H 0.00201 0.70049 0.62968 0.0
H965 H 0.00648 0.74566 0.65888 0.0
C966 C 0.96755 0.7774 0.68951 0.0
C967 C 0.94529 0.79203 0.70341 0.0
C968 C 0.96506 0.7513 0.67286 0.0
C969 C 0.92052 0.78003 0.70124 0.0
C970 C 0.91793 0.75398 0.68537 0.0
C971 C 0.93757 0.71334 0.65415 0.0
C972 C 0.95979 0.69892 0.63906 0.0
C973 C 0.94005 0.73945 0.67084 0.0
C974 C 0.98453 0.71105 0.64089 0.0
C975 C 0.98715 0.73692 0.65774 0.0
H976 H 0.29144 0.48829 0.86656 0.0
H977 H 0.2953 0.40388 0.85961 0.0
H978 H 0.25078 0.40087 0.89383 0.0
H979 H 0.21096 0.42231 0.92707 0.0
H980 H 0.20816 0.5068 0.93585 0.0
H981 H 0.25207 0.50958 0.89982 0.0
C982 C 0.28251 0.46921 0.87215 0.0
C983 C 0.29666 0.44636 0.86037 0.0
C984 C 0.25711 0.46762 0.89251 0.0
C985 C 0.28485 0.4218 0.86838 0.0
C986 C 0.2594 0.42006 0.888 0.0
C987 C 0.21995 0.44133 0.92109 0.0
C988 C 0.20621 0.46429 0.93421 0.0
C989 C 0.24539 0.44285 0.90049 0.0
C990 C 0.21824 0.48877 0.92632 0.0
C991 C 0.24337 0.49042 0.90555 0.0
H992 H 0.52467 0.79179 0.14588 0.0
H993 H 0.60869 0.7892 0.12847 0.0
H994 H 0.60934 0.74466 0.16328 0.0
H995 H 0.58581 0.7061 0.19686 0.0
H996 H 0.50178 0.70949 0.21497 0.0
H997 H 0.50148 0.75416 0.18202 0.0
C998 C 0.54315 0.7815 0.14955 0.0
C999 C 0.56658 0.79376 0.13424 0.0
C1000 C 0.5434 0.75605 0.1699 0.0
C1001 C 0.59037 0.78022 0.13992 0.0
C1002 C 0.59075 0.75475 0.15979 0.0
C1003 C 0.56744 0.71664 0.19385 0.0
C1004 C 0.54385 0.70434 0.20822 0.0
C1005 C 0.56736 0.74242 0.17472 0.0
C1006 C 0.52025 0.71839 0.20424 0.0
C1007 C 0.52002 0.74396 0.18523 0.0
H1008 H 0.70943 0.5159 0.8888 0.0
H1009 H 0.70824 0.60012 0.87393 0.0
H1010 H 0.7525 0.60266 0.90932 0.0
H1011 H 0.79144 0.58093 0.94513 0.0
H1012 H 0.79177 0.49675 0.96217 0.0
H1013 H 0.74792 0.49431 0.92566 0.0
C1014 C 0.71891 0.53481 0.89295 0.0
C1015 C 0.7056 0.55777 0.8785 0.0
C1016 C 0.74416 0.53616 0.91408 0.0
C1017 C 0.71805 0.58214 0.88476 0.0
C1018 C 0.74336 0.58361 0.90504 0.0
C1019 C 0.78191 0.56205 0.94094 0.0
C1020 C 0.79495 0.53908 0.95637 0.0
C1021 C 0.75656 0.56075 0.92003 0.0
C1022 C 0.78223 0.51479 0.95081 0.0
C1023 C 0.75714 0.51333 0.92974 0.0
H1024 H 0.48378 0.28793 0.16801 0.0
H1025 H 0.40052 0.2872 0.19615 0.0
H1026 H 0.39778 0.2423 0.16346 0.0
H1027 H 0.41927 0.20306 0.12739 0.0
H1028 H 0.5024 0.20509 0.09672 0.0
H1029 H 0.50483 0.24967 0.12948 0.0
C1030 C 0.46504 0.27791 0.16725 0.0
C1031 C 0.44243 0.29079 0.18485 0.0
C1032 C 0.46354 0.25235 0.14763 0.0
C1033 C 0.41823 0.27768 0.18286 0.0
C1034 C 0.41665 0.25202 0.16416 0.0
C1035 C 0.43789 0.2133 0.12769 0.0
C1036 C 0.4606 0.20064 0.1097 0.0
C1037 C 0.4392 0.23914 0.14643 0.0
C1038 C 0.48455 0.21429 0.11015 0.0
C1039 C 0.48603 0.23981 0.1291 0.0
H1040 H 0.78231 0.98323 0.3748 0.0
H1041 H 0.78274 0.89888 0.36326 0.0
H1042 H 0.73758 0.8973 0.39466 0.0
H1043 H 0.69797 0.92002 0.42604 0.0
H1044 H 0.69877 0.0044 0.43951 0.0
H1045 H 0.74341 0.0057 0.40704 0.0
C1046 C 0.77251 0.96448 0.37881 0.0
C1047 C 0.78586 0.94122 0.36644 0.0
C1048 C 0.74675 0.96369 0.39758 0.0
C1049 C 0.77291 0.91709 0.3725 0.0
C1050 C 0.74709 0.91617 0.39049 0.0
C1051 C 0.70793 0.93868 0.42196 0.0
C1052 C 0.69491 0.96205 0.43522 0.0
C1053 C 0.73382 0.93935 0.40336 0.0
C1054 C 0.70821 0.98605 0.42978 0.0
C1055 C 0.73379 0.98687 0.41104 0.0
H1056 H 0.0294 0.29724 0.64646 0.0
H1057 H 0.11276 0.29437 0.61948 0.0
H1058 H 0.11395 0.24899 0.6493 0.0
H1059 H 0.09125 0.2099 0.68227 0.0
H1060 H 0.00798 0.21328 0.71061 0.0
H1061 H 0.00695 0.25863 0.68138 0.0
C1062 C 0.04783 0.28668 0.64697 0.0
C1063 C 0.07093 0.29919 0.63055 0.0
C1064 C 0.04844 0.26066 0.66461 0.0
C1065 C 0.09468 0.28526 0.63194 0.0
C1066 C 0.09539 0.25928 0.64897 0.0
C1067 C 0.07288 0.22057 0.68221 0.0
C1068 C 0.04974 0.20808 0.69853 0.0
C1069 C 0.07239 0.24676 0.66536 0.0
C1070 C 0.02614 0.22231 0.69835 0.0
C1071 C 0.02548 0.24828 0.68148 0.0
H1072 H 0.01548 0.04412 0.28538 0.0
H1073 H 0.05786 0.9709 0.28582 0.0
H1074 H 0.01665 0.94672 0.28419 0.0
H1075 H 0.96855 0.94627 0.2856 0.0
H1076 H 0.92639 0.01961 0.28946 0.0
H1077 H 0.96755 0.04369 0.28628 0.0
C1078 C 0.01578 0.02287 0.28473 0.0
C1079 C 0.03984 0.00942 0.28558 0.0
C1080 C 0.992 0.00904 0.28471 0.0
C1081 C 0.03971 0.98184 0.28519 0.0
C1082 C 0.01611 0.96795 0.28428 0.0
C1083 C 0.96832 0.96752 0.28535 0.0
C1084 C 0.94431 0.98103 0.28763 0.0
C1085 C 0.99213 0.98134 0.28444 0.0
C1086 C 0.9445 0.00861 0.28776 0.0
C1087 C 0.96806 0.02246 0.28596 0.0
H1088 H 0.0204 0.5511 0.54735 0.0
H1089 H 0.94268 0.51774 0.54893 0.0
H1090 H 0.96123 0.47374 0.54504 0.0
H1091 H 0.99954 0.4446 0.54471 0.0
H1092 H 0.07719 0.47815 0.54033 0.0
H1093 H 0.05856 0.5221 0.54144 0.0
C1094 C 0.00748 0.53425 0.54657 0.0
C1095 C 0.98017 0.53783 0.54875 0.0
C1096 C 0.01825 0.50895 0.5439 0.0
C1097 C 0.96377 0.51567 0.54726 0.0
C1098 C 0.97436 0.49044 0.54518 0.0
C1099 C 0.01241 0.4615 0.54373 0.0
C1100 C 0.03976 0.45795 0.54276 0.0
C1101 C 0.00158 0.48683 0.54402 0.0
C1102 C 0.05608 0.48017 0.54104 0.0
C1103 C 0.04545 0.50538 0.54184 0.0
H1104 H 0.47784 0.45559 0.77773 0.0
H1105 H 0.43558 0.52885 0.78178 0.0
H1106 H 0.47689 0.55294 0.78312 0.0
H1107 H 0.52498 0.55318 0.78706 0.0
H1108 H 0.56687 0.47965 0.78753 0.0
H1109 H 0.5257 0.45582 0.78042 0.0
C1110 C 0.47758 0.47684 0.7784 0.0
C1111 C 0.45354 0.49033 0.77954 0.0
C1112 C 0.50138 0.49058 0.78025 0.0
C1113 C 0.45373 0.51789 0.78089 0.0
C1114 C 0.47737 0.53172 0.78173 0.0
C1115 C 0.52516 0.53195 0.7852 0.0
C1116 C 0.54909 0.5183 0.78779 0.0
C1117 C 0.50132 0.51826 0.78201 0.0
C1118 C 0.54882 0.49075 0.78574 0.0
C1119 C 0.52525 0.47705 0.78165 0.0
H1120 H 0.56219 0.97168 0.02784 0.0
H1121 H 0.4895 0.92871 0.01879 0.0
H1122 H 0.46511 0.96959 0.01311 0.0
H1123 H 0.46401 0.01744 0.01638 0.0
H1124 H 0.53637 0.06068 0.03052 0.0
H1125 H 0.56116 0.01989 0.02811 0.0
C1126 C 0.54105 0.97127 0.02396 0.0
C1127 C 0.52774 0.94713 0.02393 0.0
C1128 C 0.527 0.99493 0.02187 0.0
C1129 C 0.50028 0.94697 0.0193 0.0
C1130 C 0.48627 0.97037 0.01602 0.0
C1131 C 0.48521 0.01804 0.01836 0.0
C1132 C 0.49821 0.04219 0.02363 0.0
C1133 C 0.49937 0.99446 0.01816 0.0
C1134 C 0.52575 0.04244 0.02648 0.0
C1135 C 0.54 0.01907 0.0252 0.0
H1136 H 0.02956 0.45546 0.05415 0.0
H1137 H 0.0647 0.53214 0.04077 0.0
H1138 H 0.02164 0.55248 0.04704 0.0
H1139 H 0.97396 0.54847 0.0507 0.0
H1140 H 0.93843 0.47175 0.05783 0.0
H1141 H 0.98174 0.4515 0.05989 0.0
C1142 C 0.02786 0.47663 0.05319 0.0
C1143 C 0.0504 0.49222 0.04699 0.0
C1144 C 0.00294 0.48821 0.05542 0.0
C1145 C 0.04774 0.51963 0.04536 0.0
C1146 C 0.02309 0.53131 0.04891 0.0
C1147 C 0.97562 0.52733 0.05331 0.0
C1148 C 0.95292 0.51169 0.05412 0.0
C1149 C 0.00054 0.51578 0.05312 0.0
C1150 C 0.95554 0.48429 0.05703 0.0
C1151 C 0.98031 0.47268 0.05817 0.0
H1152 H 0.44836 0.47047 0.27472 0.0
H1153 H 0.52286 0.43043 0.27283 0.0
H1154 H 0.54565 0.4725 0.27683 0.0
H1155 H 0.5444 0.52071 0.27797 0.0
H1156 H 0.46962 0.56027 0.27572 0.0
H1157 H 0.44707 0.51824 0.27632 0.0
C1158 C 0.46959 0.47083 0.27558 0.0
C1159 C 0.48383 0.44723 0.27362 0.0
C1160 C 0.48257 0.49504 0.27695 0.0
C1161 C 0.51136 0.44824 0.27429 0.0
C1162 C 0.52443 0.47231 0.27654 0.0
C1163 C 0.52317 0.52017 0.27797 0.0
C1164 C 0.50879 0.54372 0.27692 0.0
C1165 C 0.51023 0.49585 0.27747 0.0
C1166 C 0.48126 0.54255 0.27646 0.0
C1167 C 0.46829 0.51849 0.27682 0.0
H1168 H 0.46802 0.0659 0.52274 0.0
H1169 H 0.4247 0.99438 0.54811 0.0
H1170 H 0.46567 0.9698 0.55341 0.0
H1171 H 0.51371 0.96824 0.5454 0.0
H1172 H 0.55618 0.0397 0.51407 0.0
H1173 H 0.51563 0.06457 0.51688 0.0
C1174 C 0.46746 0.04498 0.53004 0.0
C1175 C 0.44326 0.03206 0.53498 0.0
C1176 C 0.49099 0.03088 0.53174 0.0
C1177 C 0.44303 0.00487 0.54401 0.0
C1178 C 0.46646 0.99077 0.54699 0.0
C1179 C 0.51414 0.98928 0.53973 0.0
C1180 C 0.53807 0.00201 0.52963 0.0
C1181 C 0.49056 0.00351 0.54008 0.0
C1182 C 0.53815 0.0293 0.52192 0.0
C1183 C 0.51492 0.04361 0.52345 0.0
H1184 H 0.05012 0.02407 0.76473 0.0
H1185 H 0.97638 0.06483 0.77944 0.0
H1186 H 0.95314 0.02313 0.78153 0.0
H1187 H 0.95347 0.97522 0.77685 0.0
H1188 H 0.02694 0.93435 0.75846 0.0
H1189 H 0.05044 0.97598 0.76015 0.0
C1190 C 0.02899 0.02387 0.76879 0.0
C1191 C 0.0151 0.04766 0.77209 0.0
C1192 C 0.01562 0.99978 0.76909 0.0
C1193 C 0.98765 0.04691 0.7768 0.0
C1194 C 0.97429 0.02304 0.77798 0.0
C1195 C 0.97464 0.97532 0.77347 0.0
C1196 C 0.98834 0.95156 0.76769 0.0
C1197 C 0.98805 0.99936 0.77378 0.0
C1198 C 0.0158 0.95225 0.76295 0.0
C1199 C 0.0293 0.97609 0.76394 0.0
H1200 H 0.09736 0.07845 0.62761 0.0
H1201 H 0.03455 0.12998 0.58096 0.0
H1202 H 0.04236 0.11815 0.49126 0.0
H1203 H 0.06635 0.09278 0.42765 0.0
H1204 H 0.12739 0.03937 0.47499 0.0
H1205 H 0.12051 0.05227 0.56442 0.0
C1206 C 0.08529 0.08721 0.59805 0.0
C1207 C 0.06537 0.10512 0.61095 0.0
C1208 C 0.08943 0.07986 0.54721 0.0
C1209 C 0.04999 0.11617 0.57198 0.0
C1210 C 0.05441 0.10938 0.52085 0.0
C1211 C 0.07821 0.08389 0.45737 0.0
C1212 C 0.09743 0.06518 0.44478 0.0
C1213 C 0.07396 0.09114 0.50826 0.0
C1214 C 0.11244 0.05374 0.48384 0.0
C1215 C 0.10858 0.06117 0.53478 0.0
H1216 H 0.90314 0.56769 0.70005 0.0
H1217 H 0.96179 0.62364 0.74746 0.0
H1218 H 0.95165 0.61467 0.8374 0.0
H1219 H 0.92655 0.5906 0.90232 0.0
H1220 H 0.86965 0.53289 0.85477 0.0
H1221 H 0.87875 0.54295 0.76488 0.0
C1222 C 0.91366 0.57801 0.72999 0.0
C1223 C 0.93315 0.59636 0.717 0.0
C1224 C 0.9081 0.57242 0.78153 0.0
C1225 C 0.94675 0.60936 0.75638 0.0
C1226 C 0.94094 0.60428 0.80781 0.0
C1227 C 0.91607 0.58025 0.87235 0.0
C1228 C 0.89741 0.56105 0.88529 0.0
C1229 C 0.92171 0.58579 0.82079 0.0
C1230 C 0.88418 0.54768 0.84589 0.0
C1231 C 0.88933 0.55346 0.79449 0.0
H1232 H 0.40001 0.42316 0.12545 0.0
H1233 H 0.45796 0.36633 0.07858 0.0
H1234 H 0.44987 0.37702 0.98874 0.0
H1235 H 0.42708 0.40295 0.92384 0.0
H1236 H 0.37044 0.46113 0.9706 0.0
H1237 H 0.37745 0.44944 0.06039 0.0
C1238 C 0.41079 0.413 0.09564 0.0
C1239 C 0.42955 0.39396 0.10879 0.0
C1240 C 0.4064 0.41955 0.0441 0.0
C1241 C 0.44347 0.38113 0.06958 0.0
C1242 C 0.43887 0.38722 0.01818 0.0
C1243 C 0.4162 0.41308 0.95356 0.0
C1244 C 0.39825 0.43289 0.9404 0.0
C1245 C 0.4205 0.40649 0.00506 0.0
C1246 C 0.38446 0.44588 0.97959 0.0
C1247 C 0.38839 0.43917 0.03095 0.0
H1248 H 0.62278 0.94973 0.33496 0.0
H1249 H 0.5491 0.92222 0.39564 0.0
H1250 H 0.53853 0.90188 0.31366 0.0
H1251 H 0.55027 0.89159 0.2252 0.0
H1252 H 0.62453 0.918 0.16456 0.0
H1253 H 0.63489 0.9387 0.2462 0.0
C1254 C 0.60431 0.93953 0.32988 0.0
C1255 C 0.58669 0.93758 0.37099 0.0
C1256 C 0.59858 0.92737 0.28294 0.0
C1257 C 0.563 0.92394 0.36443 0.0
C1258 C 0.55695 0.91225 0.31765 0.0
C1259 C 0.56882 0.90167 0.22984 0.0
C1260 C 0.58651 0.90318 0.18869 0.0
C1261 C 0.57468 0.91366 0.27678 0.0
C1262 C 0.61047 0.91644 0.19554 0.0
C1263 C 0.61642 0.92844 0.24218 0.0
H1264 H 0.06044 0.39267 0.73406 0.0
H1265 H 0.13433 0.41899 0.67142 0.0
H1266 H 0.14618 0.43789 0.75388 0.0
H1267 H 0.13523 0.44784 0.84362 0.0
H1268 H 0.06228 0.41993 0.90662 0.0
H1269 H 0.05025 0.40108 0.82393 0.0
C1270 C 0.07924 0.40232 0.73845 0.0
C1271 C 0.09633 0.4045 0.6965 0.0
C1272 C 0.08598 0.4132 0.78586 0.0
C1273 C 0.12069 0.41703 0.70304 0.0
C1274 C 0.12749 0.428 0.75012 0.0
C1275 C 0.11662 0.43786 0.83882 0.0
C1276 C 0.09952 0.4354 0.88053 0.0
C1277 C 0.11015 0.42649 0.7916 0.0
C1278 C 0.07568 0.42201 0.87468 0.0
C1279 C 0.06883 0.41119 0.82757 0.0
H1280 H 0.59498 0.57599 0.13973 0.0
H1281 H 0.53628 0.63196 0.09266 0.0
H1282 H 0.54778 0.62457 0.00284 0.0
H1283 H 0.57361 0.60144 0.93797 0.0
H1284 H 0.63071 0.54383 0.98505 0.0
H1285 H 0.62065 0.55275 0.07495 0.0
C1286 C 0.58475 0.58669 0.10993 0.0
C1287 C 0.56479 0.6045 0.12295 0.0
C1288 C 0.59111 0.58202 0.05845 0.0
C1289 C 0.55165 0.61806 0.08371 0.0
C1290 C 0.55823 0.61387 0.03236 0.0
C1291 C 0.58397 0.59089 0.96783 0.0
C1292 C 0.60288 0.57198 0.95476 0.0
C1293 C 0.57779 0.59577 0.01933 0.0
C1294 C 0.61598 0.5584 -0.00598 0.0
C1295 C 0.61028 0.56351 0.04542 0.0
H1296 H 0.42372 0.10974 0.37345 0.0
H1297 H 0.37345 0.04488 0.33237 0.0
H1298 H 0.3904 0.04614 0.24478 0.0
H1299 H 0.41891 0.06577 0.18044 0.0
H1300 H 0.46975 0.13016 0.2214 0.0
H1301 H 0.4536 0.12829 0.30972 0.0
C1302 C 0.41637 0.09586 0.34547 0.0
C1303 C 0.3972 0.07732 0.35948 0.0
C1304 C 0.42655 0.09634 0.29561 0.0
C1305 C 0.38809 0.05942 0.32261 0.0
C1306 C 0.39785 0.06005 0.27262 0.0
C1307 C 0.42665 0.07935 0.20863 0.0
C1308 C 0.44542 0.0982 0.19424 0.0
C1309 C 0.41707 0.07839 0.25884 0.0
C1310 C 0.45538 0.1154 0.23149 0.0
C1311 C 0.44599 0.11449 0.28183 0.0
H1312 H 0.89856 0.92137 0.63343 0.0
H1313 H 0.95618 0.86473 0.58406 0.0
H1314 H 0.94389 0.8722 0.49477 0.0
H1315 H 0.91789 0.89566 0.43089 0.0
H1316 H 0.86179 0.95389 0.47983 0.0
H1317 H 0.8724 0.94476 0.56942 0.0
C1318 C 0.90837 0.91053 0.60324 0.0
C1319 C 0.92829 0.89253 0.61552 0.0
C1320 C 0.90154 0.91521 0.55196 0.0
C1321 C 0.94086 0.87879 0.57575 0.0
C1322 C 0.93383 0.88301 0.52467 0.0
C1323 C 0.90783 0.90629 0.46105 0.0
C1324 C 0.88907 0.92545 0.44855 0.0
C1325 C 0.91435 0.90132 0.51236 0.0
C1326 C 0.87637 0.9391 0.48829 0.0
C1327 C 0.88242 0.9339 0.53954 0.0
H1328 H 0.04279 0.10772 0.96841 0.0
H1329 H 0.10855 0.06474 0.90733 0.0
H1330 H 0.11938 0.04868 -0.00714 0.0
H1331 H 0.11083 0.04784 0.0857 0.0
H1332 H 0.04756 0.09402 0.14744 0.0
H1333 H 0.03482 0.10763 0.06114 0.0
C1334 C 0.05943 0.0948 0.974 0.0
C1335 C 0.07487 0.08745 0.93206 0.0
C1336 C 0.0659 0.08614 0.02332 0.0
C1337 C 0.09653 0.07086 0.93944 0.0
C1338 C 0.10267 0.06156 0.98819 0.0
C1339 C 0.09415 0.06066 0.07986 0.0
C1340 C 0.08003 0.06989 0.12212 0.0
C1341 C 0.08757 0.06917 0.03045 0.0
C1342 C 0.05866 0.0868 0.11491 0.0
C1343 C 0.0514 0.09459 0.06578 0.0
H1344 H 0.89712 0.56801 0.40014 0.0
H1345 H 0.95835 0.62316 0.36375 0.0
H1346 H 0.94969 0.61748 0.27196 0.0
H1347 H 0.92578 0.59553 0.20215 0.0
H1348 H 0.86811 0.53664 0.23848 0.0
H1349 H 0.87417 0.54503 0.33029 0.0
C1350 C 0.90837 0.57892 0.372 0.0
C1351 C 0.92816 0.59614 0.38836 0.0
C1352 C 0.90396 0.57478 0.31944 0.0
C1353 C 0.94301 0.60982 0.35179 0.0
C1354 C 0.93806 0.60658 0.29944 0.0
C1355 C 0.91441 0.58473 0.23028 0.0
C1356 C 0.89637 0.56568 0.21388 0.0
C1357 C 0.91873 0.58895 0.28283 0.0
C1358 C 0.88209 0.55141 0.25045 0.0
C1359 C 0.88554 0.55621 0.30281 0.0
H1360 H 0.43105 0.40081 0.62246 0.0
H1361 H 0.3762 0.46257 0.58779 0.0
H1362 H 0.38024 0.45305 0.49601 0.0
H1363 H 0.40004 0.42762 0.42568 0.0
H1364 H 0.45796 0.36874 0.46021 0.0
H1365 H 0.45201 0.37653 0.55219 0.0
C1366 C 0.41991 0.41209 0.59475 0.0
C1367 C 0.40324 0.43224 0.61163 0.0
C1368 C 0.42289 0.40699 0.54219 0.0
C1369 C 0.38921 0.44701 0.5755 0.0
C1370 C 0.39145 0.44153 0.52314 0.0
C1371 C 0.41118 0.41639 0.45348 0.0
C1372 C 0.42922 0.39749 0.43654 0.0
C1373 C 0.40829 0.42161 0.50606 0.0
C1374 C 0.44394 0.38337 0.47261 0.0
C1375 C 0.44054 0.38782 0.52507 0.0
H1376 H 0.60719 0.90792 0.69049 0.0
H1377 H 0.57096 0.98303 0.71803 0.0
H1378 H 0.56028 0.96973 0.80578 0.0
H1379 H 0.56012 0.93613 0.87368 0.0
H1380 H 0.59898 0.8624 0.84801 0.0
H1381 H 0.60935 0.87547 0.75966 0.0
C1382 C 0.59714 0.92146 0.71586 0.0
C1383 C 0.58975 0.94636 0.69788 0.0
C1384 C 0.59111 0.9137 0.76599 0.0
C1385 C 0.57699 0.96382 0.73117 0.0
C1386 C 0.57066 0.95614 0.78111 0.0
C1387 C 0.57052 0.92289 0.84823 0.0
C1388 C 0.57821 0.89814 0.86603 0.0
C1389 C 0.57727 0.931 0.79859 0.0
C1390 C 0.59249 0.88132 0.8341 0.0
C1391 C 0.59855 0.88887 0.78401 0.0
H1392 H 0.11163 0.43523 0.38879 0.0
H1393 H 0.05116 0.37982 0.34885 0.0
H1394 H 0.05717 0.39015 0.25768 0.0
H1395 H 0.08042 0.41412 0.19021 0.0
H1396 H 0.13841 0.47207 0.23025 0.0
H1397 H 0.13253 0.46169 0.32157 0.0
C1398 C 0.09983 0.42542 0.35998 0.0
C1399 C 0.08129 0.40654 0.37481 0.0
C1400 C 0.10296 0.43193 0.30828 0.0
C1401 C 0.0656 0.39433 0.33779 0.0
C1402 C 0.06907 0.40019 0.28594 0.0
C1403 C 0.09178 0.42442 0.21905 0.0
C1404 C 0.11012 0.44347 0.20415 0.0
C1405 C 0.08783 0.41879 0.27088 0.0
C1406 C 0.12431 0.45724 0.24137 0.0
C1407 C 0.12098 0.45127 0.29326 0.0
H1408 H 0.5614 0.55277 0.62191 0.0
H1409 H 0.6299 0.60204 0.62206 0.0
H1410 H 0.62219 0.6135 0.53184 0.0
H1411 H 0.59563 0.60945 0.45327 0.0
H1412 H 0.52457 0.56374 0.45654 0.0
H1413 H 0.5333 0.55112 0.54538 0.0
C1414 C 0.57468 0.56584 0.60182 0.0
C1415 C 0.59641 0.57623 0.62761 0.0
C1416 C 0.56947 0.57313 0.55099 0.0
C1417 C 0.61321 0.59369 0.60226 0.0
C1418 C 0.60876 0.60026 0.55095 0.0
C1419 C 0.58206 0.59681 0.47364 0.0
C1420 C 0.55958 0.58742 0.4486 0.0
C1421 C 0.5869 0.59014 0.52499 0.0
C1422 C 0.54193 0.57131 0.47529 0.0
C1423 C 0.54698 0.56397 0.5259 0.0
H1424 H 0.37997 0.06383 0.71538 0.0
H1425 H 0.42485 0.12941 0.65871 0.0
H1426 H 0.4433 0.13648 0.744 0.0
H1427 H 0.44777 0.12306 0.83453 0.0
H1428 H 0.40063 0.05928 0.89176 0.0
H1429 H 0.38219 0.0523 0.80647 0.0
C1430 C 0.39364 0.07978 0.72185 0.0
C1431 C 0.40112 0.09597 0.68092 0.0
C1432 C 0.40399 0.08389 0.77098 0.0
C1433 C 0.41867 0.11673 0.68979 0.0
C1434 C 0.42939 0.12069 0.73844 0.0
C1435 C 0.43354 0.10761 0.82802 0.0
C1436 C 0.42572 0.09153 0.86886 0.0
C1437 C 0.42244 0.10419 0.77921 0.0
C1438 C 0.40693 0.07186 0.86059 0.0
C1439 C 0.39637 0.06787 0.81195 0.0
H1440 H 0.93536 0.94554 0.11478 0.0
H1441 H 0.86562 0.89803 0.11512 0.0
H1442 H 0.87326 0.88602 0.02517 0.0
H1443 H 0.90006 0.88909 0.94667 0.0
H1444 H 0.97223 0.93302 0.9496 0.0
H1445 H 0.96367 0.94617 0.03827 0.0
C1446 C 0.92179 0.93273 0.09481 0.0
C1447 C 0.89974 0.923 0.12066 0.0
C1448 C 0.92694 0.9251 0.04406 0.0
C1449 C 0.88258 0.90587 0.09536 0.0
C1450 C 0.88699 0.89898 0.04418 0.0
C1451 C 0.91393 0.90144 0.96692 0.0
C1452 C 0.93667 0.91018 0.94177 0.0
C1453 C 0.90915 0.90844 0.01819 0.0
C1454 C 0.95467 0.92594 0.96838 0.0
C1455 C 0.9497 0.93359 0.01891 0.0
loop_
_geom_bond_atom_site_label_1
_geom_bond_atom_site_label_2
_geom_bond_distance
_geom_bond_site_symmetry_2
_ccdc_geom_bond_type
Co0 O2 2.143 . S
Co0 O8 2.074 . S
Co0 O11 2.093 . S
Co0 O24 2.097 . S
Co0 N41 2.151 . S
Co0 N49 2.214 . S
Co1 O2 2.160 . S
Co1 O7 2.058 . S
Co1 O17 2.057 . S
Co1 O32 2.037 . S
Co1 N36 2.145 . S
Co1 N57 2.257 . S
O2 Co0 2.143 . S
O2 Co1 2.160 . S
C3 O4 1.278 . S
C3 O11 1.224 . S
O4 C3 1.278 . S
C5 O6 1.245 . S
C5 O17 1.232 . S
O6 C5 1.245 . S
O7 Co1 2.058 . S
O7 C33 1.269 . S
O8 Co0 2.074 . S
O8 C33 1.257 . S
H9 C34 0.930 . S
H10 C40 0.930 . S
O11 Co0 2.093 . S
O11 C3 1.224 . S
H12 C44 0.929 . S
H13 C46 0.930 . S
H14 C47 0.930 . S
H15 C45 0.929 . S
H16 C48 0.928 . S
O17 Co1 2.057 . S
O17 C5 1.232 . S
H18 C37 0.929 . S
H19 C38 0.921 1_545 S
H20 C50 0.931 1_655 S
H21 C42 0.929 . S
H22 C51 0.930 . S
H23 C43 0.931 . S
O24 Co0 2.097 . S
O24 C52 1.214 . S
H25 C53 0.938 . S
H26 C54 0.929 . S
H27 C55 0.930 . S
H28 C56 0.929 . S
H29 C58 0.930 . S
H30 C35 0.930 . S
H31 C39 0.930 . S
O32 Co1 2.037 . S
O32 C52 1.234 . S
C33 O7 1.269 . S
C33 O8 1.257 . S
C34 H9 0.930 . S
C34 C37 1.388 1_565 S
C34 C39 1.418 . S
C35 H30 0.930 . S
C35 C38 1.422 . S
C35 C39 1.353 . S
N36 Co1 2.145 . S
N36 C37 1.397 . S
N36 C38 1.325 1_545 S
C37 H18 0.929 . S
C37 C34 1.388 1_545 S
C37 N36 1.397 . S
C38 H19 0.921 1_565 S
C38 C35 1.422 . S
C38 N36 1.325 1_565 S
C39 H31 0.930 . S
C39 C34 1.418 . S
C39 C35 1.353 . S
C40 H10 0.930 . S
C40 N41 1.330 . S
C40 C42 1.446 . S
N41 Co0 2.151 . S
N41 C40 1.330 . S
N41 C45 1.418 . S
C42 H21 0.929 . S
C42 C40 1.446 . S
C42 C43 1.332 . S
C43 H23 0.931 . S
C43 C42 1.332 . S
C43 C44 1.267 . S
C44 H12 0.929 . S
C44 C43 1.267 . S
C44 C45 1.251 . S
C45 H15 0.929 . S
C45 N41 1.418 . S
C45 C44 1.251 . S
C46 H13 0.930 . S
C46 C48 1.406 . S
C46 C51 1.261 1_455 S
C47 H14 0.930 . S
C47 N49 1.325 . S
C47 C50 1.357 . S
C48 H16 0.928 . S
C48 C46 1.406 . S
C48 N49 1.261 . S
N49 Co0 2.214 . S
N49 C47 1.325 . S
N49 C48 1.261 . S
C50 H20 0.931 1_455 S
C50 C47 1.357 . S
C50 C51 1.312 1_455 S
C51 H22 0.930 . S
C51 C46 1.261 1_655 S
C51 C50 1.312 1_655 S
C52 O24 1.214 . S
C52 O32 1.234 . S
C53 H25 0.938 . S
C53 C56 1.358 1_545 S
C53 C58 1.416 . S
C54 H26 0.929 . S
C54 C55 1.390 . S
C54 N57 1.391 1_565 S
C55 H27 0.930 . S
C55 C54 1.390 . S
C55 C56 1.392 . S
C56 H28 0.929 . S
C56 C53 1.358 1_565 S
C56 C55 1.392 . S
N57 Co1 2.257 . S
N57 C54 1.391 1_545 S
N57 C58 1.388 . S
C58 H29 0.930 . S
C58 C53 1.416 . S
C58 N57 1.388 . S
Co59 O61 2.143 . S
Co59 O67 2.074 . S
Co59 O70 2.093 . S
Co59 O83 2.097 . S
Co59 N100 2.151 . S
Co59 N108 2.214 . S
Co60 O61 2.160 . S
Co60 O66 2.058 . S
Co60 O76 2.057 . S
Co60 O91 2.037 . S
Co60 N95 2.145 . S
Co60 N116 2.257 . S
O61 Co59 2.143 . S
O61 Co60 2.160 . S
C62 O63 1.278 . S
C62 O70 1.224 . S
O63 C62 1.278 . S
C64 O65 1.245 . S
C64 O76 1.232 . S
O65 C64 1.245 . S
O66 Co60 2.058 . S
O66 C92 1.269 . S
O67 Co59 2.074 . S
O67 C92 1.257 . S
H68 C93 0.930 . S
H69 C99 0.930 . S
O70 Co59 2.093 . S
O70 C62 1.224 . S
H71 C103 0.929 . S
H72 C105 0.930 . S
H73 C106 0.930 . S
H74 C104 0.929 . S
H75 C107 0.928 . S
O76 Co60 2.057 . S
O76 C64 1.232 . S
H77 C96 0.929 . S
H78 C97 0.921 1_655 S
H79 C109 0.931 . S
H80 C101 0.929 . S
H81 C110 0.930 . S
H82 C102 0.931 . S
O83 Co59 2.097 . S
O83 C111 1.214 . S
H84 C112 0.939 . S
H85 C113 0.929 . S
H86 C114 0.930 . S
H87 C115 0.929 . S
H88 C117 0.930 . S
H89 C94 0.930 . S
H90 C98 0.930 . S
O91 Co60 2.037 . S
O91 C111 1.234 . S
C92 O66 1.269 . S
C92 O67 1.257 . S
C93 H68 0.930 . S
C93 C96 1.388 1_455 S
C93 C98 1.418 . S
C94 H89 0.930 . S
C94 C97 1.421 . S
C94 C98 1.353 . S
N95 Co60 2.145 . S
N95 C96 1.397 . S
N95 C97 1.325 1_655 S
C96 H77 0.929 . S
C96 C93 1.388 1_655 S
C96 N95 1.397 . S
C97 H78 0.921 1_455 S
C97 C94 1.421 . S
C97 N95 1.325 1_455 S
C98 H90 0.930 . S
C98 C93 1.418 . S
C98 C94 1.353 . S
C99 H69 0.930 . S
C99 N100 1.330 . S
C99 C101 1.446 . S
N100 Co59 2.151 . S
N100 C99 1.330 . S
N100 C104 1.418 . S
C101 H80 0.929 . S
C101 C99 1.446 . S
C101 C102 1.332 . S
C102 H82 0.931 . S
C102 C101 1.332 . S
C102 C103 1.267 . S
C103 H71 0.929 . S
C103 C102 1.267 . S
C103 C104 1.251 . S
C104 H74 0.929 . S
C104 N100 1.418 . S
C104 C103 1.251 . S
C105 H72 0.930 . S
C105 C107 1.406 . S
C105 C110 1.261 . S
C106 H73 0.930 . S
C106 N108 1.325 . S
C106 C109 1.357 . S
C107 H75 0.928 . S
C107 C105 1.406 . S
C107 N108 1.261 . S
N108 Co59 2.214 . S
N108 C106 1.325 . S
N108 C107 1.261 . S
C109 H79 0.931 . S
C109 C106 1.357 . S
C109 C110 1.312 . S
C110 H81 0.930 . S
C110 C105 1.261 . S
C110 C109 1.312 . S
C111 O83 1.214 . S
C111 O91 1.234 . S
C112 H84 0.939 . S
C112 C115 1.358 1_655 S
C112 C117 1.416 . S
C113 H85 0.929 . S
C113 C114 1.390 . S
C113 N116 1.391 1_455 S
C114 H86 0.930 . S
C114 C113 1.390 . S
C114 C115 1.392 . S
C115 H87 0.929 . S
C115 C112 1.358 1_455 S
C115 C114 1.392 . S
N116 Co60 2.257 . S
N116 C113 1.391 1_655 S
N116 C117 1.388 . S
C117 H88 0.930 . S
C117 C112 1.416 . S
C117 N116 1.388 . S
Co118 O120 2.143 . S
Co118 O126 2.074 . S
Co118 O129 2.093 . S
Co118 O142 2.097 . S
Co118 N159 2.151 . S
Co118 N167 2.214 . S
Co119 O120 2.160 . S
Co119 O125 2.058 . S
Co119 O135 2.057 . S
Co119 O150 2.037 . S
Co119 N154 2.145 . S
Co119 N175 2.257 . S
O120 Co118 2.143 . S
O120 Co119 2.160 . S
C121 O122 1.278 . S
C121 O129 1.224 . S
O122 C121 1.278 . S
C123 O124 1.245 . S
C123 O135 1.232 . S
O124 C123 1.245 . S
O125 Co119 2.058 . S
O125 C151 1.269 . S
O126 Co118 2.074 . S
O126 C151 1.257 . S
H127 C152 0.930 1_554 S
H128 C158 0.930 . S
O129 Co118 2.093 . S
O129 C121 1.224 . S
H130 C162 0.929 . S
H131 C164 0.930 . S
H132 C165 0.930 . S
H133 C163 0.929 . S
H134 C166 0.928 . S
O135 Co119 2.057 . S
O135 C123 1.232 . S
H136 C155 0.929 . S
H137 C156 0.929 . S
H138 C168 0.931 . S
H139 C160 0.929 . S
H140 C169 0.930 . S
H141 C161 0.931 . S
O142 Co118 2.097 . S
O142 C170 1.214 . S
H143 C171 0.929 . S
H144 C172 0.929 . S
H145 C173 0.930 . S
H146 C174 0.929 . S
H147 C176 0.930 . S
H148 C153 0.930 . S
H149 C157 0.930 1_554 S
O150 Co119 2.037 . S
O150 C170 1.234 . S
C151 O125 1.269 . S
C151 O126 1.257 . S
C152 H127 0.930 1_556 S
C152 C155 1.388 . S
C152 C157 1.418 . S
C153 H148 0.930 . S
C153 C156 1.404 . S
C153 C157 1.353 . S
N154 Co119 2.145 . S
N154 C155 1.397 . S
N154 C156 1.334 . S
C155 H136 0.929 . S
C155 C152 1.388 . S
C155 N154 1.397 . S
C156 H137 0.929 . S
C156 C153 1.404 . S
C156 N154 1.334 . S
C157 H149 0.930 1_556 S
C157 C152 1.418 . S
C157 C153 1.353 . S
C158 H128 0.930 . S
C158 N159 1.330 . S
C158 C160 1.446 . S
N159 Co118 2.151 . S
N159 C158 1.330 . S
N159 C163 1.418 . S
C160 H139 0.929 . S
C160 C158 1.446 . S
C160 C161 1.332 . S
C161 H141 0.931 . S
C161 C160 1.332 . S
C161 C162 1.267 . S
C162 H130 0.929 . S
C162 C161 1.267 . S
C162 C163 1.251 . S
C163 H133 0.929 . S
C163 N159 1.418 . S
C163 C162 1.251 . S
C164 H131 0.930 . S
C164 C166 1.406 . S
C164 C169 1.261 . S
C165 H132 0.930 . S
C165 N167 1.325 . S
C165 C168 1.357 . S
C166 H134 0.928 . S
C166 C164 1.406 . S
C166 N167 1.261 . S
N167 Co118 2.214 . S
N167 C165 1.325 . S
N167 C166 1.261 . S
C168 H138 0.931 . S
C168 C165 1.357 . S
C168 C169 1.312 . S
C169 H140 0.930 . S
C169 C164 1.261 . S
C169 C168 1.312 . S
C170 O142 1.214 . S
C170 O150 1.234 . S
C171 H143 0.929 . S
C171 C174 1.391 . S
C171 C176 1.391 . S
C172 H144 0.929 . S
C172 C173 1.390 . S
C172 N175 1.391 . S
C173 H145 0.930 . S
C173 C172 1.390 . S
C173 C174 1.392 . S
C174 H146 0.929 . S
C174 C171 1.391 . S
C174 C173 1.392 . S
N175 Co119 2.257 . S
N175 C172 1.391 . S
N175 C176 1.388 . S
C176 H147 0.930 . S
C176 C171 1.391 . S
C176 N175 1.388 . S
Co177 O179 2.143 . S
Co177 O185 2.074 . S
Co177 O188 2.093 1_554 S
Co177 O201 2.097 . S
Co177 N218 2.151 . S
Co177 N226 2.214 . S
Co178 O179 2.160 . S
Co178 O184 2.058 . S
Co178 O194 2.057 . S
Co178 O209 2.037 . S
Co178 N213 2.145 . S
Co178 N234 2.257 . S
O179 Co177 2.143 . S
O179 Co178 2.160 . S
C180 O181 1.278 . S
C180 O188 1.224 . S
O181 C180 1.278 . S
C182 O183 1.245 . S
C182 O194 1.232 . S
O183 C182 1.245 . S
O184 Co178 2.058 . S
O184 C210 1.269 . S
O185 Co177 2.074 . S
O185 C210 1.257 . S
H186 C211 0.930 . S
H187 C217 0.930 1_556 S
O188 Co177 2.093 1_556 S
O188 C180 1.224 . S
H189 C221 0.929 . S
H190 C223 0.930 . S
H191 C224 0.930 . S
H192 C222 0.929 . S
H193 C225 0.928 . S
O194 Co178 2.057 . S
O194 C182 1.232 . S
H195 C214 0.929 . S
H196 C215 0.929 . S
H197 C227 0.931 1_545 S
H198 C219 0.929 . S
H199 C228 0.930 . S
H200 C220 0.931 . S
O201 Co177 2.097 . S
O201 C229 1.214 . S
H202 C230 0.929 . S
H203 C231 0.929 . S
H204 C232 0.930 . S
H205 C233 0.929 . S
H206 C235 0.930 . S
H207 C212 0.930 . S
H208 C216 0.930 . S
O209 Co178 2.037 . S
O209 C229 1.234 . S
C210 O184 1.269 . S
C210 O185 1.257 . S
C211 H186 0.930 . S
C211 C214 1.388 . S
C211 C216 1.418 . S
C212 H207 0.930 . S
C212 C215 1.404 . S
C212 C216 1.353 . S
N213 Co178 2.145 . S
N213 C214 1.397 . S
N213 C215 1.334 . S
C214 H195 0.929 . S
C214 C211 1.388 . S
C214 N213 1.397 . S
C215 H196 0.929 . S
C215 C212 1.404 . S
C215 N213 1.334 . S
C216 H208 0.930 . S
C216 C211 1.418 . S
C216 C212 1.353 . S
C217 H187 0.930 1_554 S
C217 N218 1.330 . S
C217 C219 1.446 . S
N218 Co177 2.151 . S
N218 C217 1.330 . S
N218 C222 1.418 . S
C219 H198 0.929 . S
C219 C217 1.446 . S
C219 C220 1.332 . S
C220 H200 0.931 . S
C220 C219 1.332 . S
C220 C221 1.267 . S
C221 H189 0.929 . S
C221 C220 1.267 . S
C221 C222 1.251 . S
C222 H192 0.929 . S
C222 N218 1.418 . S
C222 C221 1.251 . S
C223 H190 0.930 . S
C223 C225 1.406 . S
C223 C228 1.261 1_565 S
C224 H191 0.930 . S
C224 N226 1.325 . S
C224 C227 1.357 . S
C225 H193 0.928 . S
C225 C223 1.406 . S
C225 N226 1.261 . S
N226 Co177 2.214 . S
N226 C224 1.325 . S
N226 C225 1.261 . S
C227 H197 0.931 1_565 S
C227 C224 1.357 . S
C227 C228 1.312 1_565 S
C228 H199 0.930 . S
C228 C223 1.261 1_545 S
C228 C227 1.312 1_545 S
C229 O201 1.214 . S
C229 O209 1.234 . S
C230 H202 0.929 . S
C230 C233 1.391 . S
C230 C235 1.391 1_556 S
C231 H203 0.929 . S
C231 C232 1.390 . S
C231 N234 1.391 . S
C232 H204 0.930 . S
C232 C231 1.390 . S
C232 C233 1.392 1_554 S
C233 H205 0.929 . S
C233 C230 1.391 . S
C233 C232 1.392 1_556 S
N234 Co178 2.257 . S
N234 C231 1.391 . S
N234 C235 1.388 . S
C235 H206 0.930 . S
C235 C230 1.391 1_554 S
C235 N234 1.388 . S
Co236 O238 2.143 . S
Co236 O244 2.074 1_554 S
Co236 O247 2.093 . S
Co236 O260 2.097 . S
Co236 N277 2.151 . S
Co236 N285 2.214 . S
Co237 O238 2.160 1_556 S
Co237 O243 2.058 . S
Co237 O253 2.057 . S
Co237 O268 2.037 . S
Co237 N272 2.145 . S
Co237 N293 2.257 1_556 S
O238 Co236 2.143 . S
O238 Co237 2.160 1_554 S
C239 O240 1.278 . S
C239 O247 1.224 . S
O240 C239 1.278 . S
C241 O242 1.245 1_556 S
C241 O253 1.232 . S
O242 C241 1.245 1_554 S
O243 Co237 2.058 . S
O243 C269 1.269 . S
O244 Co236 2.074 1_556 S
O244 C269 1.257 . S
H245 C270 0.930 . S
H246 C276 0.930 . S
O247 Co236 2.093 . S
O247 C239 1.224 . S
H248 C280 0.929 . S
H249 C282 0.930 . S
H250 C283 0.930 . S
H251 C281 0.929 . S
H252 C284 0.928 . S
O253 Co237 2.057 . S
O253 C241 1.232 . S
H254 C273 0.929 . S
H255 C274 0.929 . S
H256 C286 0.931 1_655 S
H257 C278 0.929 . S
H258 C287 0.930 . S
H259 C279 0.931 . S
O260 Co236 2.097 . S
O260 C288 1.214 . S
H261 C289 0.929 . S
H262 C290 0.929 . S
H263 C291 0.930 . S
H264 C292 0.929 . S
H265 C294 0.930 . S
H266 C271 0.930 . S
H267 C275 0.930 . S
O268 Co237 2.037 . S
O268 C288 1.234 1_556 S
C269 O243 1.269 . S
C269 O244 1.257 . S
C270 H245 0.930 . S
C270 C273 1.388 . S
C270 C275 1.418 . S
C271 H266 0.930 . S
C271 C274 1.404 . S
C271 C275 1.353 . S
N272 Co237 2.145 . S
N272 C273 1.397 . S
N272 C274 1.334 . S
C273 H254 0.929 . S
C273 C270 1.388 . S
C273 N272 1.397 . S
C274 H255 0.929 . S
C274 C271 1.404 . S
C274 N272 1.334 . S
C275 H267 0.930 . S
C275 C270 1.418 . S
C275 C271 1.353 . S
C276 H246 0.930 . S
C276 N277 1.330 . S
C276 C278 1.446 . S
N277 Co236 2.151 . S
N277 C276 1.330 . S
N277 C281 1.418 1_554 S
C278 H257 0.929 . S
C278 C276 1.446 . S
C278 C279 1.332 . S
C279 H259 0.931 . S
C279 C278 1.332 . S
C279 C280 1.267 1_554 S
C280 H248 0.929 . S
C280 C279 1.267 1_556 S
C280 C281 1.251 . S
C281 H251 0.929 . S
C281 N277 1.418 1_556 S
C281 C280 1.251 . S
C282 H249 0.930 . S
C282 C284 1.406 . S
C282 C287 1.261 1_455 S
C283 H250 0.930 . S
C283 N285 1.325 1_556 S
C283 C286 1.357 . S
C284 H252 0.928 . S
C284 C282 1.406 . S
C284 N285 1.261 . S
N285 Co236 2.214 . S
N285 C283 1.325 1_554 S
N285 C284 1.261 . S
C286 H256 0.931 1_455 S
C286 C283 1.357 . S
C286 C287 1.312 1_456 S
C287 H258 0.930 . S
C287 C282 1.261 1_655 S
C287 C286 1.312 1_654 S
C288 O260 1.214 . S
C288 O268 1.234 1_554 S
C289 H261 0.929 . S
C289 C292 1.391 . S
C289 C294 1.391 . S
C290 H262 0.929 . S
C290 C291 1.390 . S
C290 N293 1.391 . S
C291 H263 0.930 . S
C291 C290 1.390 . S
C291 C292 1.392 . S
C292 H264 0.929 . S
C292 C289 1.391 . S
C292 C291 1.392 . S
N293 Co237 2.257 1_554 S
N293 C290 1.391 . S
N293 C294 1.388 . S
C294 H265 0.930 . S
C294 C289 1.391 . S
C294 N293 1.388 . S
Co295 O297 2.143 . S
Co295 O303 2.074 . S
Co295 O306 2.093 . S
Co295 O319 2.097 . S
Co295 N336 2.151 . S
Co295 N344 2.214 . S
Co296 O297 2.160 . S
Co296 O302 2.058 . S
Co296 O312 2.057 . S
Co296 O327 2.037 . S
Co296 N331 2.145 . S
Co296 N352 2.257 . S
O297 Co295 2.143 . S
O297 Co296 2.160 . S
C298 O299 1.278 . S
C298 O306 1.224 . S
O299 C298 1.278 . S
C300 O301 1.245 . S
C300 O312 1.232 . S
O301 C300 1.245 . S
O302 Co296 2.058 . S
O302 C328 1.269 . S
O303 Co295 2.074 . S
O303 C328 1.257 . S
H304 C329 0.930 . S
H305 C335 0.930 . S
O306 Co295 2.093 . S
O306 C298 1.224 . S
H307 C339 0.929 . S
H308 C341 0.930 . S
H309 C342 0.930 . S
H310 C340 0.929 . S
H311 C343 0.928 . S
O312 Co296 2.057 . S
O312 C300 1.232 . S
H313 C332 0.929 . S
H314 C333 0.929 . S
H315 C345 0.931 . S
H316 C337 0.929 . S
H317 C346 0.930 . S
H318 C338 0.931 . S
O319 Co295 2.097 . S
O319 C347 1.214 . S
H320 C348 0.929 . S
H321 C349 0.929 . S
H322 C350 0.930 . S
H323 C351 0.929 . S
H324 C353 0.930 . S
H325 C330 0.930 . S
H326 C334 0.930 . S
O327 Co296 2.037 . S
O327 C347 1.234 . S
C328 O302 1.269 . S
C328 O303 1.257 . S
C329 H304 0.930 . S
C329 C332 1.388 . S
C329 C334 1.418 . S
C330 H325 0.930 . S
C330 C333 1.404 . S
C330 C334 1.353 . S
N331 Co296 2.145 . S
N331 C332 1.397 . S
N331 C333 1.334 . S
C332 H313 0.929 . S
C332 C329 1.388 . S
C332 N331 1.397 . S
C333 H314 0.929 . S
C333 C330 1.404 . S
C333 N331 1.334 . S
C334 H326 0.930 . S
C334 C329 1.418 . S
C334 C330 1.353 . S
C335 H305 0.930 . S
C335 N336 1.330 . S
C335 C337 1.446 . S
N336 Co295 2.151 . S
N336 C335 1.330 . S
N336 C340 1.418 . S
C337 H316 0.929 . S
C337 C335 1.446 . S
C337 C338 1.332 . S
C338 H318 0.931 . S
C338 C337 1.332 . S
C338 C339 1.267 . S
C339 H307 0.929 . S
C339 C338 1.267 . S
C339 C340 1.251 . S
C340 H310 0.929 . S
C340 N336 1.418 . S
C340 C339 1.251 . S
C341 H308 0.930 . S
C341 C343 1.406 . S
C341 C346 1.261 . S
C342 H309 0.930 . S
C342 N344 1.325 . S
C342 C345 1.357 . S
C343 H311 0.928 . S
C343 C341 1.406 . S
C343 N344 1.261 . S
N344 Co295 2.214 . S
N344 C342 1.325 . S
N344 C343 1.261 . S
C345 H315 0.931 . S
C345 C342 1.357 . S
C345 C346 1.312 . S
C346 H317 0.930 . S
C346 C341 1.261 . S
C346 C345 1.312 . S
C347 O319 1.214 . S
C347 O327 1.234 . S
C348 H320 0.929 . S
C348 C351 1.391 . S
C348 C353 1.391 . S
C349 H321 0.929 . S
C349 C350 1.390 . S
C349 N352 1.391 . S
C350 H322 0.930 . S
C350 C349 1.390 . S
C350 C351 1.392 . S
C351 H323 0.929 . S
C351 C348 1.391 . S
C351 C350 1.392 . S
N352 Co296 2.257 . S
N352 C349 1.391 . S
N352 C353 1.388 . S
C353 H324 0.930 . S
C353 C348 1.391 . S
C353 N352 1.388 . S
Co354 O356 2.143 . S
Co354 O362 2.074 . S
Co354 O365 2.093 . S
Co354 O378 2.097 . S
Co354 N395 2.151 . S
Co354 N403 2.214 . S
Co355 O356 2.160 . S
Co355 O361 2.058 . S
Co355 O371 2.057 . S
Co355 O386 2.037 . S
Co355 N390 2.145 . S
Co355 N411 2.257 . S
O356 Co354 2.143 . S
O356 Co355 2.160 . S
C357 O358 1.278 . S
C357 O365 1.224 . S
O358 C357 1.278 . S
C359 O360 1.245 . S
C359 O371 1.232 . S
O360 C359 1.245 . S
O361 Co355 2.058 . S
O361 C387 1.269 . S
O362 Co354 2.074 . S
O362 C387 1.257 . S
H363 C388 0.930 . S
H364 C394 0.930 . S
O365 Co354 2.093 . S
O365 C357 1.224 . S
H366 C398 0.929 . S
H367 C400 0.930 . S
H368 C401 0.930 . S
H369 C399 0.929 . S
H370 C402 0.928 . S
O371 Co355 2.057 . S
O371 C359 1.232 . S
H372 C391 0.930 . S
H373 C392 0.921 1_545 S
H374 C404 0.931 . S
H375 C396 0.929 . S
H376 C405 0.930 . S
H377 C397 0.931 . S
O378 Co354 2.097 . S
O378 C406 1.214 . S
H379 C407 0.939 . S
H380 C408 0.929 . S
H381 C409 0.930 . S
H382 C410 0.929 . S
H383 C412 0.930 . S
H384 C389 0.930 . S
H385 C393 0.930 . S
O386 Co355 2.037 . S
O386 C406 1.234 . S
C387 O361 1.269 . S
C387 O362 1.257 . S
C388 H363 0.930 . S
C388 C391 1.387 1_565 S
C388 C393 1.418 . S
C389 H384 0.930 . S
C389 C392 1.420 . S
C389 C393 1.353 . S
N390 Co355 2.145 . S
N390 C391 1.397 . S
N390 C392 1.326 1_545 S
C391 H372 0.930 . S
C391 C388 1.387 1_545 S
C391 N390 1.397 . S
C392 H373 0.921 1_565 S
C392 C389 1.420 . S
C392 N390 1.326 1_565 S
C393 H385 0.930 . S
C393 C388 1.418 . S
C393 C389 1.353 . S
C394 H364 0.930 . S
C394 N395 1.330 . S
C394 C396 1.446 . S
N395 Co354 2.151 . S
N395 C394 1.330 . S
N395 C399 1.418 . S
C396 H375 0.929 . S
C396 C394 1.446 . S
C396 C397 1.332 . S
C397 H377 0.931 . S
C397 C396 1.332 . S
C397 C398 1.267 . S
C398 H366 0.929 . S
C398 C397 1.267 . S
C398 C399 1.251 . S
C399 H369 0.929 . S
C399 N395 1.418 . S
C399 C398 1.251 . S
C400 H367 0.930 . S
C400 C402 1.406 . S
C400 C405 1.261 . S
C401 H368 0.930 . S
C401 N403 1.325 . S
C401 C404 1.357 . S
C402 H370 0.928 . S
C402 C400 1.406 . S
C402 N403 1.261 . S
N403 Co354 2.214 . S
N403 C401 1.325 . S
N403 C402 1.261 . S
C404 H374 0.931 . S
C404 C401 1.357 . S
C404 C405 1.312 . S
C405 H376 0.930 . S
C405 C400 1.261 . S
C405 C404 1.312 . S
C406 O378 1.214 . S
C406 O386 1.234 . S
C407 H379 0.939 . S
C407 C410 1.357 1_545 S
C407 C412 1.417 . S
C408 H380 0.929 . S
C408 C409 1.390 . S
C408 N411 1.391 1_565 S
C409 H381 0.930 . S
C409 C408 1.390 . S
C409 C410 1.392 . S
C410 H382 0.929 . S
C410 C407 1.357 1_565 S
C410 C409 1.392 . S
N411 Co355 2.257 . S
N411 C408 1.391 1_545 S
N411 C412 1.388 . S
C412 H383 0.930 . S
C412 C407 1.417 . S
C412 N411 1.388 . S
Co413 O415 2.143 . S
Co413 O421 2.074 . S
Co413 O424 2.093 . S
Co413 O437 2.097 . S
Co413 N454 2.151 . S
Co413 N462 2.214 . S
Co414 O415 2.160 . S
Co414 O420 2.058 . S
Co414 O430 2.057 . S
Co414 O445 2.037 . S
Co414 N449 2.145 . S
Co414 N470 2.257 . S
O415 Co413 2.143 . S
O415 Co414 2.160 . S
C416 O417 1.278 . S
C416 O424 1.224 . S
O417 C416 1.278 . S
C418 O419 1.245 . S
C418 O430 1.232 . S
O419 C418 1.245 . S
O420 Co414 2.058 . S
O420 C446 1.269 . S
O421 Co413 2.074 . S
O421 C446 1.257 . S
H422 C447 0.930 . S
H423 C453 0.930 . S
O424 Co413 2.093 . S
O424 C416 1.224 . S
H425 C457 0.929 . S
H426 C459 0.930 . S
H427 C460 0.930 . S
H428 C458 0.929 . S
H429 C461 0.928 . S
O430 Co414 2.057 . S
O430 C418 1.232 . S
H431 C450 0.929 . S
H432 C451 0.920 1_655 S
H433 C463 0.931 1_545 S
H434 C455 0.929 . S
H435 C464 0.930 . S
H436 C456 0.931 . S
O437 Co413 2.097 . S
O437 C465 1.214 . S
H438 C466 0.938 . S
H439 C467 0.929 . S
H440 C468 0.930 . S
H441 C469 0.929 . S
H442 C471 0.930 . S
H443 C448 0.930 . S
H444 C452 0.930 . S
O445 Co414 2.037 . S
O445 C465 1.234 . S
C446 O420 1.269 . S
C446 O421 1.257 . S
C447 H422 0.930 . S
C447 C450 1.388 1_455 S
C447 C452 1.418 . S
C448 H443 0.930 . S
C448 C451 1.422 . S
C448 C452 1.353 . S
N449 Co414 2.145 . S
N449 C450 1.397 . S
N449 C451 1.325 1_655 S
C450 H431 0.929 . S
C450 C447 1.388 1_655 S
C450 N449 1.397 . S
C451 H432 0.920 1_455 S
C451 C448 1.422 . S
C451 N449 1.325 1_455 S
C452 H444 0.930 . S
C452 C447 1.418 . S
C452 C448 1.353 . S
C453 H423 0.930 . S
C453 N454 1.330 . S
C453 C455 1.446 . S
N454 Co413 2.151 . S
N454 C453 1.330 . S
N454 C458 1.418 . S
C455 H434 0.929 . S
C455 C453 1.446 . S
C455 C456 1.332 . S
C456 H436 0.931 . S
C456 C455 1.332 . S
C456 C457 1.267 . S
C457 H425 0.929 . S
C457 C456 1.267 . S
C457 C458 1.251 . S
C458 H428 0.929 . S
C458 N454 1.418 . S
C458 C457 1.251 . S
C459 H426 0.930 . S
C459 C461 1.406 . S
C459 C464 1.261 1_565 S
C460 H427 0.930 . S
C460 N462 1.325 . S
C460 C463 1.357 . S
C461 H429 0.928 . S
C461 C459 1.406 . S
C461 N462 1.261 . S
N462 Co413 2.214 . S
N462 C460 1.325 . S
N462 C461 1.261 . S
C463 H433 0.931 1_565 S
C463 C460 1.357 . S
C463 C464 1.312 1_565 S
C464 H435 0.930 . S
C464 C459 1.261 1_545 S
C464 C463 1.312 1_545 S
C465 O437 1.214 . S
C465 O445 1.234 . S
C466 H438 0.938 . S
C466 C469 1.359 1_655 S
C466 C471 1.415 . S
C467 H439 0.929 . S
C467 C468 1.390 . S
C467 N470 1.391 1_455 S
C468 H440 0.930 . S
C468 C467 1.390 . S
C468 C469 1.392 . S
C469 H441 0.929 . S
C469 C466 1.359 1_455 S
C469 C468 1.392 . S
N470 Co414 2.257 . S
N470 C467 1.391 1_655 S
N470 C471 1.388 . S
C471 H442 0.930 . S
C471 C466 1.415 . S
C471 N470 1.388 . S
Co472 O474 2.143 . S
Co472 O480 2.074 . S
Co472 O483 2.093 . S
Co472 O496 2.097 . S
Co472 N513 2.151 . S
Co472 N521 2.214 . S
Co473 O474 2.160 . S
Co473 O479 2.058 . S
Co473 O489 2.057 . S
Co473 O504 2.037 . S
Co473 N508 2.145 . S
Co473 N529 2.257 . S
O474 Co472 2.143 . S
O474 Co473 2.160 . S
C475 O476 1.278 . S
C475 O483 1.224 . S
O476 C475 1.278 . S
C477 O478 1.245 . S
C477 O489 1.232 . S
O478 C477 1.245 . S
O479 Co473 2.058 . S
O479 C505 1.269 . S
O480 Co472 2.074 . S
O480 C505 1.257 . S
H481 C506 0.930 1_554 S
H482 C512 0.930 . S
O483 Co472 2.093 . S
O483 C475 1.224 . S
H484 C516 0.929 . S
H485 C518 0.930 . S
H486 C519 0.930 . S
H487 C517 0.929 . S
H488 C520 0.928 . S
O489 Co473 2.057 . S
O489 C477 1.232 . S
H490 C509 0.929 . S
H491 C510 0.929 . S
H492 C522 0.931 . S
H493 C514 0.929 . S
H494 C523 0.930 . S
H495 C515 0.931 . S
O496 Co472 2.097 . S
O496 C524 1.214 . S
H497 C525 0.929 . S
H498 C526 0.929 . S
H499 C527 0.930 . S
H500 C528 0.929 . S
H501 C530 0.930 . S
H502 C507 0.930 . S
H503 C511 0.930 1_554 S
O504 Co473 2.037 . S
O504 C524 1.234 . S
C505 O479 1.269 . S
C505 O480 1.257 . S
C506 H481 0.930 1_556 S
C506 C509 1.388 . S
C506 C511 1.418 . S
C507 H502 0.930 . S
C507 C510 1.404 . S
C507 C511 1.353 . S
N508 Co473 2.145 . S
N508 C509 1.397 . S
N508 C510 1.334 . S
C509 H490 0.929 . S
C509 C506 1.388 . S
C509 N508 1.397 . S
C510 H491 0.929 . S
C510 C507 1.404 . S
C510 N508 1.334 . S
C511 H503 0.930 1_556 S
C511 C506 1.418 . S
C511 C507 1.353 . S
C512 H482 0.930 . S
C512 N513 1.330 . S
C512 C514 1.446 . S
N513 Co472 2.151 . S
N513 C512 1.330 . S
N513 C517 1.418 . S
C514 H493 0.929 . S
C514 C512 1.446 . S
C514 C515 1.332 . S
C515 H495 0.931 . S
C515 C514 1.332 . S
C515 C516 1.267 . S
C516 H484 0.929 . S
C516 C515 1.267 . S
C516 C517 1.251 . S
C517 H487 0.929 . S
C517 N513 1.418 . S
C517 C516 1.251 . S
C518 H485 0.930 . S
C518 C520 1.406 . S
C518 C523 1.261 . S
C519 H486 0.930 . S
C519 N521 1.325 . S
C519 C522 1.357 . S
C520 H488 0.928 . S
C520 C518 1.406 . S
C520 N521 1.261 . S
N521 Co472 2.214 . S
N521 C519 1.325 . S
N521 C520 1.261 . S
C522 H492 0.931 . S
C522 C519 1.357 . S
C522 C523 1.312 . S
C523 H494 0.930 . S
C523 C518 1.261 . S
C523 C522 1.312 . S
C524 O496 1.214 . S
C524 O504 1.234 . S
C525 H497 0.929 . S
C525 C528 1.391 . S
C525 C530 1.391 . S
C526 H498 0.929 . S
C526 C527 1.390 . S
C526 N529 1.391 . S
C527 H499 0.930 . S
C527 C526 1.390 . S
C527 C528 1.392 . S
C528 H500 0.929 . S
C528 C525 1.391 . S
C528 C527 1.392 . S
N529 Co473 2.257 . S
N529 C526 1.391 . S
N529 C530 1.388 . S
C530 H501 0.930 . S
C530 C525 1.391 . S
C530 N529 1.388 . S
Co531 O533 2.143 . S
Co531 O539 2.074 . S
Co531 O542 2.093 1_554 S
Co531 O555 2.097 . S
Co531 N572 2.151 . S
Co531 N580 2.214 . S
Co532 O533 2.160 . S
Co532 O538 2.058 . S
Co532 O548 2.057 . S
Co532 O563 2.037 . S
Co532 N567 2.145 . S
Co532 N588 2.257 . S
O533 Co531 2.143 . S
O533 Co532 2.160 . S
C534 O535 1.278 . S
C534 O542 1.224 . S
O535 C534 1.278 . S
C536 O537 1.245 . S
C536 O548 1.232 . S
O537 C536 1.245 . S
O538 Co532 2.058 . S
O538 C564 1.269 . S
O539 Co531 2.074 . S
O539 C564 1.257 . S
H540 C565 0.930 . S
H541 C571 0.930 1_556 S
O542 Co531 2.093 1_556 S
O542 C534 1.224 . S
H543 C575 0.929 . S
H544 C577 0.930 . S
H545 C578 0.930 . S
H546 C576 0.929 . S
H547 C579 0.928 . S
O548 Co532 2.057 . S
O548 C536 1.232 . S
H549 C568 0.929 . S
H550 C569 0.929 . S
H551 C581 0.931 1_565 S
H552 C573 0.929 . S
H553 C582 0.930 . S
H554 C574 0.931 . S
O555 Co531 2.097 . S
O555 C583 1.214 . S
H556 C584 0.929 . S
H557 C585 0.929 . S
H558 C586 0.930 . S
H559 C587 0.929 . S
H560 C589 0.930 . S
H561 C566 0.930 . S
H562 C570 0.930 . S
O563 Co532 2.037 . S
O563 C583 1.234 . S
C564 O538 1.269 . S
C564 O539 1.257 . S
C565 H540 0.930 . S
C565 C568 1.388 . S
C565 C570 1.418 . S
C566 H561 0.930 . S
C566 C569 1.404 . S
C566 C570 1.353 . S
N567 Co532 2.145 . S
N567 C568 1.397 . S
N567 C569 1.334 . S
C568 H549 0.929 . S
C568 C565 1.388 . S
C568 N567 1.397 . S
C569 H550 0.929 . S
C569 C566 1.404 . S
C569 N567 1.334 . S
C570 H562 0.930 . S
C570 C565 1.418 . S
C570 C566 1.353 . S
C571 H541 0.930 1_554 S
C571 N572 1.330 . S
C571 C573 1.446 . S
N572 Co531 2.151 . S
N572 C571 1.330 . S
N572 C576 1.418 . S
C573 H552 0.929 . S
C573 C571 1.446 . S
C573 C574 1.332 . S
C574 H554 0.931 . S
C574 C573 1.332 . S
C574 C575 1.267 . S
C575 H543 0.929 . S
C575 C574 1.267 . S
C575 C576 1.251 . S
C576 H546 0.929 . S
C576 N572 1.418 . S
C576 C575 1.251 . S
C577 H544 0.930 . S
C577 C579 1.406 . S
C577 C582 1.261 1_545 S
C578 H545 0.930 . S
C578 N580 1.325 . S
C578 C581 1.357 . S
C579 H547 0.928 . S
C579 C577 1.406 . S
C579 N580 1.261 . S
N580 Co531 2.214 . S
N580 C578 1.325 . S
N580 C579 1.261 . S
C581 H551 0.931 1_545 S
C581 C578 1.357 . S
C581 C582 1.312 1_545 S
C582 H553 0.930 . S
C582 C577 1.261 1_565 S
C582 C581 1.312 1_565 S
C583 O555 1.214 . S
C583 O563 1.234 . S
C584 H556 0.929 . S
C584 C587 1.391 . S
C584 C589 1.391 1_556 S
C585 H557 0.929 . S
C585 C586 1.390 . S
C585 N588 1.391 . S
C586 H558 0.930 . S
C586 C585 1.390 . S
C586 C587 1.392 1_554 S
C587 H559 0.929 . S
C587 C584 1.391 . S
C587 C586 1.392 1_556 S
N588 Co532 2.257 . S
N588 C585 1.391 . S
N588 C589 1.388 . S
C589 H560 0.930 . S
C589 C584 1.391 1_554 S
C589 N588 1.388 . S
Co590 O592 2.143 . S
Co590 O598 2.074 . S
Co590 O601 2.093 . S
Co590 O614 2.097 . S
Co590 N631 2.151 . S
Co590 N639 2.214 . S
Co591 O592 2.160 . S
Co591 O597 2.058 . S
Co591 O607 2.057 . S
Co591 O622 2.037 . S
Co591 N626 2.145 . S
Co591 N647 2.257 . S
O592 Co590 2.143 . S
O592 Co591 2.160 . S
C593 O594 1.278 . S
C593 O601 1.224 . S
O594 C593 1.278 . S
C595 O596 1.245 . S
C595 O607 1.232 . S
O596 C595 1.245 . S
O597 Co591 2.058 . S
O597 C623 1.269 . S
O598 Co590 2.074 . S
O598 C623 1.257 . S
H599 C624 0.930 . S
H600 C630 0.930 . S
O601 Co590 2.093 . S
O601 C593 1.224 . S
H602 C634 0.929 . S
H603 C636 0.930 . S
H604 C637 0.930 . S
H605 C635 0.929 . S
H606 C638 0.928 . S
O607 Co591 2.057 . S
O607 C595 1.232 . S
H608 C627 0.929 . S
H609 C628 0.921 1_565 S
H610 C640 0.931 1_455 S
H611 C632 0.929 . S
H612 C641 0.930 . S
H613 C633 0.931 . S
O614 Co590 2.097 . S
O614 C642 1.214 . S
H615 C643 0.938 . S
H616 C644 0.929 . S
H617 C645 0.930 . S
H618 C646 0.929 . S
H619 C648 0.930 . S
H620 C625 0.930 . S
H621 C629 0.930 . S
O622 Co591 2.037 . S
O622 C642 1.234 . S
C623 O597 1.269 . S
C623 O598 1.257 . S
C624 H599 0.930 . S
C624 C627 1.388 1_545 S
C624 C629 1.418 . S
C625 H620 0.930 . S
C625 C628 1.422 . S
C625 C629 1.353 . S
N626 Co591 2.145 . S
N626 C627 1.397 . S
N626 C628 1.325 1_565 S
C627 H608 0.929 . S
C627 C624 1.388 1_565 S
C627 N626 1.397 . S
C628 H609 0.921 1_545 S
C628 C625 1.422 . S
C628 N626 1.325 1_545 S
C629 H621 0.930 . S
C629 C624 1.418 . S
C629 C625 1.353 . S
C630 H600 0.930 . S
C630 N631 1.330 . S
C630 C632 1.446 . S
N631 Co590 2.151 . S
N631 C630 1.330 . S
N631 C635 1.418 . S
C632 H611 0.929 . S
C632 C630 1.446 . S
C632 C633 1.332 . S
C633 H613 0.931 . S
C633 C632 1.332 . S
C633 C634 1.267 . S
C634 H602 0.929 . S
C634 C633 1.267 . S
C634 C635 1.251 . S
C635 H605 0.929 . S
C635 N631 1.418 . S
C635 C634 1.251 . S
C636 H603 0.930 . S
C636 C638 1.406 . S
C636 C641 1.261 1_655 S
C637 H604 0.930 . S
C637 N639 1.325 . S
C637 C640 1.357 . S
C638 H606 0.928 . S
C638 C636 1.406 . S
C638 N639 1.261 . S
N639 Co590 2.214 . S
N639 C637 1.325 . S
N639 C638 1.261 . S
C640 H610 0.931 1_655 S
C640 C637 1.357 . S
C640 C641 1.312 1_655 S
C641 H612 0.930 . S
C641 C636 1.261 1_455 S
C641 C640 1.312 1_455 S
C642 O614 1.214 . S
C642 O622 1.234 . S
C643 H615 0.938 . S
C643 C646 1.358 1_565 S
C643 C648 1.416 . S
C644 H616 0.929 . S
C644 C645 1.390 . S
C644 N647 1.391 1_545 S
C645 H617 0.930 . S
C645 C644 1.390 . S
C645 C646 1.392 . S
C646 H618 0.929 . S
C646 C643 1.358 1_545 S
C646 C645 1.392 . S
N647 Co591 2.257 . S
N647 C644 1.391 1_565 S
N647 C648 1.388 . S
C648 H619 0.930 . S
C648 C643 1.416 . S
C648 N647 1.388 . S
Co649 O651 2.143 . S
Co649 O657 2.074 . S
Co649 O660 2.093 . S
Co649 O673 2.097 . S
Co649 N690 2.151 . S
Co649 N698 2.214 . S
Co650 O651 2.160 . S
Co650 O656 2.058 . S
Co650 O666 2.057 . S
Co650 O681 2.037 . S
Co650 N685 2.145 . S
Co650 N706 2.257 . S
O651 Co649 2.143 . S
O651 Co650 2.160 . S
C652 O653 1.278 . S
C652 O660 1.224 . S
O653 C652 1.278 . S
C654 O655 1.245 . S
C654 O666 1.232 . S
O655 C654 1.245 . S
O656 Co650 2.058 . S
O656 C682 1.269 . S
O657 Co649 2.074 . S
O657 C682 1.257 . S
H658 C683 0.930 . S
H659 C689 0.930 . S
O660 Co649 2.093 . S
O660 C652 1.224 . S
H661 C693 0.929 . S
H662 C695 0.930 . S
H663 C696 0.930 . S
H664 C694 0.929 . S
H665 C697 0.928 . S
O666 Co650 2.057 . S
O666 C654 1.232 . S
H667 C686 0.929 . S
H668 C687 0.921 1_455 S
H669 C699 0.931 . S
H670 C691 0.929 . S
H671 C700 0.930 . S
H672 C692 0.931 . S
O673 Co649 2.097 . S
O673 C701 1.214 . S
H674 C702 0.939 . S
H675 C703 0.929 . S
H676 C704 0.930 . S
H677 C705 0.929 . S
H678 C707 0.930 . S
H679 C684 0.930 . S
H680 C688 0.930 . S
O681 Co650 2.037 . S
O681 C701 1.234 . S
C682 O656 1.269 . S
C682 O657 1.257 . S
C683 H658 0.930 . S
C683 C686 1.388 1_655 S
C683 C688 1.418 . S
C684 H679 0.930 . S
C684 C687 1.421 . S
C684 C688 1.353 . S
N685 Co650 2.145 . S
N685 C686 1.397 . S
N685 C687 1.325 1_455 S
C686 H667 0.929 . S
C686 C683 1.388 1_455 S
C686 N685 1.397 . S
C687 H668 0.921 1_655 S
C687 C684 1.421 . S
C687 N685 1.325 1_655 S
C688 H680 0.930 . S
C688 C683 1.418 . S
C688 C684 1.353 . S
C689 H659 0.930 . S
C689 N690 1.330 . S
C689 C691 1.446 . S
N690 Co649 2.151 . S
N690 C689 1.330 . S
N690 C694 1.418 . S
C691 H670 0.929 . S
C691 C689 1.446 . S
C691 C692 1.332 . S
C692 H672 0.931 . S
C692 C691 1.332 . S
C692 C693 1.267 . S
C693 H661 0.929 . S
C693 C692 1.267 . S
C693 C694 1.251 . S
C694 H664 0.929 . S
C694 N690 1.418 . S
C694 C693 1.251 . S
C695 H662 0.930 . S
C695 C697 1.406 . S
C695 C700 1.261 . S
C696 H663 0.930 . S
C696 N698 1.325 . S
C696 C699 1.357 . S
C697 H665 0.928 . S
C697 C695 1.406 . S
C697 N698 1.261 . S
N698 Co649 2.214 . S
N698 C696 1.325 . S
N698 C697 1.261 . S
C699 H669 0.931 . S
C699 C696 1.357 . S
C699 C700 1.312 . S
C700 H671 0.930 . S
C700 C695 1.261 . S
C700 C699 1.312 . S
C701 O673 1.214 . S
C701 O681 1.234 . S
C702 H674 0.939 . S
C702 C705 1.358 1_455 S
C702 C707 1.416 . S
C703 H675 0.929 . S
C703 C704 1.390 . S
C703 N706 1.391 1_655 S
C704 H676 0.930 . S
C704 C703 1.390 . S
C704 C705 1.392 . S
C705 H677 0.929 . S
C705 C702 1.358 1_655 S
C705 C704 1.392 . S
N706 Co650 2.257 . S
N706 C703 1.391 1_455 S
N706 C707 1.388 . S
C707 H678 0.930 . S
C707 C702 1.416 . S
C707 N706 1.388 . S
Co708 O710 2.143 . S
Co708 O716 2.074 . S
Co708 O719 2.093 . S
Co708 O732 2.097 . S
Co708 N749 2.151 . S
Co708 N757 2.214 . S
Co709 O710 2.160 . S
Co709 O715 2.058 . S
Co709 O725 2.057 . S
Co709 O740 2.037 . S
Co709 N744 2.145 . S
Co709 N765 2.257 . S
O710 Co708 2.143 . S
O710 Co709 2.160 . S
C711 O712 1.278 . S
C711 O719 1.224 . S
O712 C711 1.278 . S
C713 O714 1.245 . S
C713 O725 1.232 . S
O714 C713 1.245 . S
O715 Co709 2.058 . S
O715 C741 1.269 . S
O716 Co708 2.074 . S
O716 C741 1.257 . S
H717 C742 0.930 . S
H718 C748 0.930 . S
O719 Co708 2.093 . S
O719 C711 1.224 . S
H720 C752 0.929 . S
H721 C754 0.930 . S
H722 C755 0.930 . S
H723 C753 0.929 . S
H724 C756 0.928 . S
O725 Co709 2.057 . S
O725 C713 1.232 . S
H726 C745 0.930 . S
H727 C746 0.921 1_565 S
H728 C758 0.931 . S
H729 C750 0.929 . S
H730 C759 0.930 . S
H731 C751 0.931 . S
O732 Co708 2.097 . S
O732 C760 1.214 . S
H733 C761 0.939 . S
H734 C762 0.929 . S
H735 C763 0.930 . S
H736 C764 0.929 . S
H737 C766 0.930 . S
H738 C743 0.930 . S
H739 C747 0.930 . S
O740 Co709 2.037 . S
O740 C760 1.234 . S
C741 O715 1.269 . S
C741 O716 1.257 . S
C742 H717 0.930 . S
C742 C745 1.387 1_545 S
C742 C747 1.418 . S
C743 H738 0.930 . S
C743 C746 1.420 . S
C743 C747 1.353 . S
N744 Co709 2.145 . S
N744 C745 1.397 . S
N744 C746 1.326 1_565 S
C745 H726 0.930 . S
C745 C742 1.387 1_565 S
C745 N744 1.397 . S
C746 H727 0.921 1_545 S
C746 C743 1.420 . S
C746 N744 1.326 1_545 S
C747 H739 0.930 . S
C747 C742 1.418 . S
C747 C743 1.353 . S
C748 H718 0.930 . S
C748 N749 1.330 . S
C748 C750 1.446 . S
N749 Co708 2.151 . S
N749 C748 1.330 . S
N749 C753 1.418 . S
C750 H729 0.929 . S
C750 C748 1.446 . S
C750 C751 1.332 . S
C751 H731 0.931 . S
C751 C750 1.332 . S
C751 C752 1.267 . S
C752 H720 0.929 . S
C752 C751 1.267 . S
C752 C753 1.251 . S
C753 H723 0.929 . S
C753 N749 1.418 . S
C753 C752 1.251 . S
C754 H721 0.930 . S
C754 C756 1.406 . S
C754 C759 1.261 . S
C755 H722 0.930 . S
C755 N757 1.325 . S
C755 C758 1.357 . S
C756 H724 0.928 . S
C756 C754 1.406 . S
C756 N757 1.261 . S
N757 Co708 2.214 . S
N757 C755 1.325 . S
N757 C756 1.261 . S
C758 H728 0.931 . S
C758 C755 1.357 . S
C758 C759 1.312 . S
C759 H730 0.930 . S
C759 C754 1.261 . S
C759 C758 1.312 . S
C760 O732 1.214 . S
C760 O740 1.234 . S
C761 H733 0.939 . S
C761 C764 1.357 1_565 S
C761 C766 1.417 . S
C762 H734 0.929 . S
C762 C763 1.390 . S
C762 N765 1.391 1_545 S
C763 H735 0.930 . S
C763 C762 1.390 . S
C763 C764 1.392 . S
C764 H736 0.929 . S
C764 C761 1.357 1_545 S
C764 C763 1.392 . S
N765 Co709 2.257 . S
N765 C762 1.391 1_565 S
N765 C766 1.388 . S
C766 H737 0.930 . S
C766 C761 1.417 . S
C766 N765 1.388 . S
Co767 O769 2.143 . S
Co767 O775 2.074 . S
Co767 O778 2.093 . S
Co767 O791 2.097 . S
Co767 N808 2.151 . S
Co767 N816 2.214 . S
Co768 O769 2.160 . S
Co768 O774 2.058 . S
Co768 O784 2.057 . S
Co768 O799 2.037 . S
Co768 N803 2.145 . S
Co768 N824 2.257 . S
O769 Co767 2.143 . S
O769 Co768 2.160 . S
C770 O771 1.278 . S
C770 O778 1.224 . S
O771 C770 1.278 . S
C772 O773 1.245 . S
C772 O784 1.232 . S
O773 C772 1.245 . S
O774 Co768 2.058 . S
O774 C800 1.269 . S
O775 Co767 2.074 . S
O775 C800 1.257 . S
H776 C801 0.930 . S
H777 C807 0.930 . S
O778 Co767 2.093 . S
O778 C770 1.224 . S
H779 C811 0.929 . S
H780 C813 0.930 . S
H781 C814 0.930 . S
H782 C812 0.929 . S
H783 C815 0.928 . S
O784 Co768 2.057 . S
O784 C772 1.232 . S
H785 C804 0.929 . S
H786 C805 0.920 1_455 S
H787 C817 0.931 1_565 S
H788 C809 0.929 . S
H789 C818 0.930 . S
H790 C810 0.931 . S
O791 Co767 2.097 . S
O791 C819 1.214 . S
H792 C820 0.938 . S
H793 C821 0.929 . S
H794 C822 0.930 . S
H795 C823 0.929 . S
H796 C825 0.930 . S
H797 C802 0.930 . S
H798 C806 0.930 . S
O799 Co768 2.037 . S
O799 C819 1.234 . S
C800 O774 1.269 . S
C800 O775 1.257 . S
C801 H776 0.930 . S
C801 C804 1.388 1_655 S
C801 C806 1.418 . S
C802 H797 0.930 . S
C802 C805 1.422 . S
C802 C806 1.353 . S
N803 Co768 2.145 . S
N803 C804 1.397 . S
N803 C805 1.325 1_455 S
C804 H785 0.929 . S
C804 C801 1.388 1_455 S
C804 N803 1.397 . S
C805 H786 0.920 1_655 S
C805 C802 1.422 . S
C805 N803 1.325 1_655 S
C806 H798 0.930 . S
C806 C801 1.418 . S
C806 C802 1.353 . S
C807 H777 0.930 . S
C807 N808 1.330 . S
C807 C809 1.446 . S
N808 Co767 2.151 . S
N808 C807 1.330 . S
N808 C812 1.418 . S
C809 H788 0.929 . S
C809 C807 1.446 . S
C809 C810 1.332 . S
C810 H790 0.931 . S
C810 C809 1.332 . S
C810 C811 1.267 . S
C811 H779 0.929 . S
C811 C810 1.267 . S
C811 C812 1.251 . S
C812 H782 0.929 . S
C812 N808 1.418 . S
C812 C811 1.251 . S
C813 H780 0.930 . S
C813 C815 1.406 . S
C813 C818 1.261 1_545 S
C814 H781 0.930 . S
C814 N816 1.325 . S
C814 C817 1.357 . S
C815 H783 0.928 . S
C815 C813 1.406 . S
C815 N816 1.261 . S
N816 Co767 2.214 . S
N816 C814 1.325 . S
N816 C815 1.261 . S
C817 H787 0.931 1_545 S
C817 C814 1.357 . S
C817 C818 1.312 1_545 S
C818 H789 0.930 . S
C818 C813 1.261 1_565 S
C818 C817 1.312 1_565 S
C819 O791 1.214 . S
C819 O799 1.234 . S
C820 H792 0.938 . S
C820 C823 1.359 1_455 S
C820 C825 1.415 . S
C821 H793 0.929 . S
C821 C822 1.390 . S
C821 N824 1.391 1_655 S
C822 H794 0.930 . S
C822 C821 1.390 . S
C822 C823 1.392 . S
C823 H795 0.929 . S
C823 C820 1.359 1_655 S
C823 C822 1.392 . S
N824 Co768 2.257 . S
N824 C821 1.391 1_455 S
N824 C825 1.388 . S
C825 H796 0.930 . S
C825 C820 1.415 . S
C825 N824 1.388 . S
Co826 O828 2.143 . S
Co826 O834 2.074 1_554 S
Co826 O837 2.093 . S
Co826 O850 2.097 . S
Co826 N867 2.151 . S
Co826 N875 2.214 . S
Co827 O828 2.160 1_556 S
Co827 O833 2.058 . S
Co827 O843 2.057 . S
Co827 O858 2.037 . S
Co827 N862 2.145 . S
Co827 N883 2.257 1_556 S
O828 Co826 2.143 . S
O828 Co827 2.160 1_554 S
C829 O830 1.278 . S
C829 O837 1.224 . S
O830 C829 1.278 . S
C831 O832 1.245 1_556 S
C831 O843 1.232 . S
O832 C831 1.245 1_554 S
O833 Co827 2.058 . S
O833 C859 1.269 . S
O834 Co826 2.074 1_556 S
O834 C859 1.257 . S
H835 C860 0.930 . S
H836 C866 0.930 . S
O837 Co826 2.093 . S
O837 C829 1.224 . S
H838 C870 0.929 . S
H839 C872 0.930 . S
H840 C873 0.930 . S
H841 C871 0.929 . S
H842 C874 0.928 . S
O843 Co827 2.057 . S
O843 C831 1.232 . S
H844 C863 0.929 . S
H845 C864 0.929 . S
H846 C876 0.931 1_455 S
H847 C868 0.929 . S
H848 C877 0.930 . S
H849 C869 0.931 . S
O850 Co826 2.097 . S
O850 C878 1.214 . S
H851 C879 0.929 . S
H852 C880 0.929 . S
H853 C881 0.930 . S
H854 C882 0.929 . S
H855 C884 0.930 . S
H856 C861 0.930 . S
H857 C865 0.930 . S
O858 Co827 2.037 . S
O858 C878 1.234 1_556 S
C859 O833 1.269 . S
C859 O834 1.257 . S
C860 H835 0.930 . S
C860 C863 1.388 . S
C860 C865 1.418 . S
C861 H856 0.930 . S
C861 C864 1.404 . S
C861 C865 1.353 . S
N862 Co827 2.145 . S
N862 C863 1.397 . S
N862 C864 1.334 . S
C863 H844 0.929 . S
C863 C860 1.388 . S
C863 N862 1.397 . S
C864 H845 0.929 . S
C864 C861 1.404 . S
C864 N862 1.334 . S
C865 H857 0.930 . S
C865 C860 1.418 . S
C865 C861 1.353 . S
C866 H836 0.930 . S
C866 N867 1.330 . S
C866 C868 1.446 . S
N867 Co826 2.151 . S
N867 C866 1.330 . S
N867 C871 1.418 1_554 S
C868 H847 0.929 . S
C868 C866 1.446 . S
C868 C869 1.332 . S
C869 H849 0.931 . S
C869 C868 1.332 . S
C869 C870 1.267 1_554 S
C870 H838 0.929 . S
C870 C869 1.267 1_556 S
C870 C871 1.251 . S
C871 H841 0.929 . S
C871 N867 1.418 1_556 S
C871 C870 1.251 . S
C872 H839 0.930 . S
C872 C874 1.406 . S
C872 C877 1.261 1_655 S
C873 H840 0.930 . S
C873 N875 1.325 1_556 S
C873 C876 1.357 . S
C874 H842 0.928 . S
C874 C872 1.406 . S
C874 N875 1.261 . S
N875 Co826 2.214 . S
N875 C873 1.325 1_554 S
N875 C874 1.261 . S
C876 H846 0.931 1_655 S
C876 C873 1.357 . S
C876 C877 1.312 1_656 S
C877 H848 0.930 . S
C877 C872 1.261 1_455 S
C877 C876 1.312 1_454 S
C878 O850 1.214 . S
C878 O858 1.234 1_554 S
C879 H851 0.929 . S
C879 C882 1.391 . S
C879 C884 1.391 . S
C880 H852 0.929 . S
C880 C881 1.390 . S
C880 N883 1.391 . S
C881 H853 0.930 . S
C881 C880 1.390 . S
C881 C882 1.392 . S
C882 H854 0.929 . S
C882 C879 1.391 . S
C882 C881 1.392 . S
N883 Co827 2.257 1_554 S
N883 C880 1.391 . S
N883 C884 1.388 . S
C884 H855 0.930 . S
C884 C879 1.391 . S
C884 N883 1.388 . S
Co885 O887 2.143 . S
Co885 O893 2.074 . S
Co885 O896 2.093 . S
Co885 O909 2.097 . S
Co885 N926 2.151 . S
Co885 N934 2.214 . S
Co886 O887 2.160 . S
Co886 O892 2.058 . S
Co886 O902 2.057 . S
Co886 O917 2.037 . S
Co886 N921 2.145 . S
Co886 N942 2.257 . S
O887 Co885 2.143 . S
O887 Co886 2.160 . S
C888 O889 1.278 . S
C888 O896 1.224 . S
O889 C888 1.278 . S
C890 O891 1.245 . S
C890 O902 1.232 . S
O891 C890 1.245 . S
O892 Co886 2.058 . S
O892 C918 1.269 . S
O893 Co885 2.074 . S
O893 C918 1.257 . S
H894 C919 0.930 . S
H895 C925 0.930 . S
O896 Co885 2.093 . S
O896 C888 1.224 . S
H897 C929 0.929 . S
H898 C931 0.930 . S
H899 C932 0.930 . S
H900 C930 0.929 . S
H901 C933 0.928 . S
O902 Co886 2.057 . S
O902 C890 1.232 . S
H903 C922 0.929 . S
H904 C923 0.929 . S
H905 C935 0.931 . S
H906 C927 0.929 . S
H907 C936 0.930 . S
H908 C928 0.931 . S
O909 Co885 2.097 . S
O909 C937 1.214 . S
H910 C938 0.929 . S
H911 C939 0.929 . S
H912 C940 0.930 . S
H913 C941 0.929 . S
H914 C943 0.930 . S
H915 C920 0.930 . S
H916 C924 0.930 . S
O917 Co886 2.037 . S
O917 C937 1.234 . S
C918 O892 1.269 . S
C918 O893 1.257 . S
C919 H894 0.930 . S
C919 C922 1.388 . S
C919 C924 1.418 . S
C920 H915 0.930 . S
C920 C923 1.404 . S
C920 C924 1.353 . S
N921 Co886 2.145 . S
N921 C922 1.397 . S
N921 C923 1.334 . S
C922 H903 0.929 . S
C922 C919 1.388 . S
C922 N921 1.397 . S
C923 H904 0.929 . S
C923 C920 1.404 . S
C923 N921 1.334 . S
C924 H916 0.930 . S
C924 C919 1.418 . S
C924 C920 1.353 . S
C925 H895 0.930 . S
C925 N926 1.330 . S
C925 C927 1.446 . S
N926 Co885 2.151 . S
N926 C925 1.330 . S
N926 C930 1.418 . S
C927 H906 0.929 . S
C927 C925 1.446 . S
C927 C928 1.332 . S
C928 H908 0.931 . S
C928 C927 1.332 . S
C928 C929 1.267 . S
C929 H897 0.929 . S
C929 C928 1.267 . S
C929 C930 1.251 . S
C930 H900 0.929 . S
C930 N926 1.418 . S
C930 C929 1.251 . S
C931 H898 0.930 . S
C931 C933 1.406 . S
C931 C936 1.261 . S
C932 H899 0.930 . S
C932 N934 1.325 . S
C932 C935 1.357 . S
C933 H901 0.928 . S
C933 C931 1.406 . S
C933 N934 1.261 . S
N934 Co885 2.214 . S
N934 C932 1.325 . S
N934 C933 1.261 . S
C935 H905 0.931 . S
C935 C932 1.357 . S
C935 C936 1.312 . S
C936 H907 0.930 . S
C936 C931 1.261 . S
C936 C935 1.312 . S
C937 O909 1.214 . S
C937 O917 1.234 . S
C938 H910 0.929 . S
C938 C941 1.391 . S
C938 C943 1.391 . S
C939 H911 0.929 . S
C939 C940 1.390 . S
C939 N942 1.391 . S
C940 H912 0.930 . S
C940 C939 1.390 . S
C940 C941 1.392 . S
C941 H913 0.929 . S
C941 C938 1.391 . S
C941 C940 1.392 . S
N942 Co886 2.257 . S
N942 C939 1.391 . S
N942 C943 1.388 . S
C943 H914 0.930 . S
C943 C938 1.391 . S
C943 N942 1.388 . S
H944 C950 0.930 . S
H945 C953 0.930 . S
H946 C954 0.930 . S
H947 C955 0.930 . S
H948 C958 0.930 . S
H949 C959 0.930 . S
C950 H944 0.930 . S
C950 C951 1.355 . S
C950 C952 1.415 . S
C951 C950 1.355 . S
C951 C953 1.419 . S
C952 C950 1.415 . S
C952 C957 1.425 . S
C952 C959 1.409 . S
C953 H945 0.930 . S
C953 C951 1.419 . S
C953 C954 1.362 . S
C954 H946 0.930 . S
C954 C953 1.362 . S
C954 C957 1.409 . S
C955 H947 0.930 . S
C955 C956 1.355 . S
C955 C957 1.415 . S
C956 C955 1.355 . S
C956 C958 1.419 . S
C957 C952 1.425 . S
C957 C954 1.409 . S
C957 C955 1.415 . S
C958 H948 0.930 . S
C958 C956 1.419 . S
C958 C959 1.362 . S
C959 H949 0.930 . S
C959 C952 1.409 . S
C959 C958 1.362 . S
H960 C966 0.930 . S
H961 C969 0.930 . S
H962 C970 0.930 . S
H963 C971 0.930 . S
H964 C974 0.930 . S
H965 C975 0.930 . S
C966 H960 0.930 . S
C966 C967 1.355 . S
C966 C968 1.415 . S
C967 C966 1.355 . S
C967 C969 1.419 . S
C968 C966 1.415 . S
C968 C973 1.425 . S
C968 C975 1.409 . S
C969 H961 0.930 . S
C969 C967 1.419 . S
C969 C970 1.362 . S
C970 H962 0.930 . S
C970 C969 1.362 . S
C970 C973 1.409 . S
C971 H963 0.930 . S
C971 C972 1.355 . S
C971 C973 1.415 . S
C972 C971 1.355 . S
C972 C974 1.419 . S
C973 C968 1.425 . S
C973 C970 1.409 . S
C973 C971 1.415 . S
C974 H964 0.930 . S
C974 C972 1.419 . S
C974 C975 1.362 . S
C975 H965 0.930 . S
C975 C968 1.409 . S
C975 C974 1.362 . S
H976 C982 0.930 . S
H977 C985 0.930 . S
H978 C986 0.930 . S
H979 C987 0.930 . S
H980 C990 0.930 . S
H981 C991 0.930 . S
C982 H976 0.930 . S
C982 C983 1.355 . S
C982 C984 1.415 . S
C983 C982 1.355 . S
C983 C985 1.419 . S
C984 C982 1.415 . S
C984 C989 1.425 . S
C984 C991 1.409 . S
C985 H977 0.930 . S
C985 C983 1.419 . S
C985 C986 1.362 . S
C986 H978 0.930 . S
C986 C985 1.362 . S
C986 C989 1.409 . S
C987 H979 0.930 . S
C987 C988 1.355 . S
C987 C989 1.415 . S
C988 C987 1.355 . S
C988 C990 1.419 . S
C989 C984 1.425 . S
C989 C986 1.409 . S
C989 C987 1.415 . S
C990 H980 0.930 . S
C990 C988 1.419 . S
C990 C991 1.362 . S
C991 H981 0.930 . S
C991 C984 1.409 . S
C991 C990 1.362 . S
H992 C998 0.930 . S
H993 C1001 0.930 . S
H994 C1002 0.930 . S
H995 C1003 0.930 . S
H996 C1006 0.930 . S
H997 C1007 0.930 . S
C998 H992 0.930 . S
C998 C999 1.355 . S
C998 C1000 1.415 . S
C999 C998 1.355 . S
C999 C1001 1.419 . S
C1000 C998 1.415 . S
C1000 C1005 1.425 . S
C1000 C1007 1.409 . S
C1001 H993 0.930 . S
C1001 C999 1.419 . S
C1001 C1002 1.362 . S
C1002 H994 0.930 . S
C1002 C1001 1.362 . S
C1002 C1005 1.409 . S
C1003 H995 0.930 . S
C1003 C1004 1.355 . S
C1003 C1005 1.415 . S
C1004 C1003 1.355 . S
C1004 C1006 1.419 . S
C1005 C1000 1.425 . S
C1005 C1002 1.409 . S
C1005 C1003 1.415 . S
C1006 H996 0.930 . S
C1006 C1004 1.419 . S
C1006 C1007 1.362 . S
C1007 H997 0.930 . S
C1007 C1000 1.409 . S
C1007 C1006 1.362 . S
H1008 C1014 0.930 . S
H1009 C1017 0.930 . S
H1010 C1018 0.930 . S
H1011 C1019 0.930 1_554 S
H1012 C1022 0.930 . S
H1013 C1023 0.930 . S
C1014 H1008 0.930 . S
C1014 C1015 1.355 . S
C1014 C1016 1.415 . S
C1015 C1014 1.355 . S
C1015 C1017 1.419 . S
C1016 C1014 1.415 . S
C1016 C1021 1.425 . S
C1016 C1023 1.409 . S
C1017 H1009 0.930 . S
C1017 C1015 1.419 . S
C1017 C1018 1.362 . S
C1018 H1010 0.930 . S
C1018 C1017 1.362 . S
C1018 C1021 1.409 . S
C1019 H1011 0.930 1_556 S
C1019 C1020 1.355 . S
C1019 C1021 1.415 . S
C1020 C1019 1.355 . S
C1020 C1022 1.419 . S
C1021 C1016 1.425 . S
C1021 C1018 1.409 . S
C1021 C1019 1.415 . S
C1022 H1012 0.930 . S
C1022 C1020 1.419 . S
C1022 C1023 1.362 . S
C1023 H1013 0.930 . S
C1023 C1016 1.409 . S
C1023 C1022 1.362 . S
H1024 C1030 0.930 . S
H1025 C1033 0.930 . S
H1026 C1034 0.930 . S
H1027 C1035 0.930 . S
H1028 C1038 0.930 . S
H1029 C1039 0.930 . S
C1030 H1024 0.930 . S
C1030 C1031 1.355 . S
C1030 C1032 1.415 . S
C1031 C1030 1.355 . S
C1031 C1033 1.419 . S
C1032 C1030 1.415 . S
C1032 C1037 1.425 . S
C1032 C1039 1.409 . S
C1033 H1025 0.930 . S
C1033 C1031 1.419 . S
C1033 C1034 1.362 . S
C1034 H1026 0.930 . S
C1034 C1033 1.362 . S
C1034 C1037 1.409 . S
C1035 H1027 0.930 . S
C1035 C1036 1.355 . S
C1035 C1037 1.415 . S
C1036 C1035 1.355 . S
C1036 C1038 1.419 . S
C1037 C1032 1.425 . S
C1037 C1034 1.409 . S
C1037 C1035 1.415 . S
C1038 H1028 0.930 . S
C1038 C1036 1.419 . S
C1038 C1039 1.362 . S
C1039 H1029 0.930 . S
C1039 C1032 1.409 . S
C1039 C1038 1.362 . S
H1040 C1046 0.930 . S
H1041 C1049 0.930 . S
H1042 C1050 0.930 . S
H1043 C1051 0.930 . S
H1044 C1054 0.930 . S
H1045 C1055 0.930 . S
C1046 H1040 0.930 . S
C1046 C1047 1.355 . S
C1046 C1048 1.415 . S
C1047 C1046 1.355 . S
C1047 C1049 1.419 . S
C1048 C1046 1.415 . S
C1048 C1053 1.425 . S
C1048 C1055 1.409 . S
C1049 H1041 0.930 . S
C1049 C1047 1.419 . S
C1049 C1050 1.362 . S
C1050 H1042 0.930 . S
C1050 C1049 1.362 . S
C1050 C1053 1.409 . S
C1051 H1043 0.930 . S
C1051 C1052 1.355 . S
C1051 C1053 1.415 . S
C1052 C1051 1.355 . S
C1052 C1054 1.419 . S
C1053 C1048 1.425 . S
C1053 C1050 1.409 . S
C1053 C1051 1.415 . S
C1054 H1044 0.930 . S
C1054 C1052 1.419 . S
C1054 C1055 1.362 . S
C1055 H1045 0.930 . S
C1055 C1048 1.409 . S
C1055 C1054 1.362 . S
H1056 C1062 0.930 . S
H1057 C1065 0.930 . S
H1058 C1066 0.930 . S
H1059 C1067 0.930 . S
H1060 C1070 0.930 . S
H1061 C1071 0.930 . S
C1062 H1056 0.930 . S
C1062 C1063 1.355 . S
C1062 C1064 1.415 . S
C1063 C1062 1.355 . S
C1063 C1065 1.419 . S
C1064 C1062 1.415 . S
C1064 C1069 1.425 . S
C1064 C1071 1.409 . S
C1065 H1057 0.930 . S
C1065 C1063 1.419 . S
C1065 C1066 1.362 . S
C1066 H1058 0.930 . S
C1066 C1065 1.362 . S
C1066 C1069 1.409 . S
C1067 H1059 0.930 . S
C1067 C1068 1.355 . S
C1067 C1069 1.415 . S
C1068 C1067 1.355 . S
C1068 C1070 1.419 . S
C1069 C1064 1.425 . S
C1069 C1066 1.409 . S
C1069 C1067 1.415 . S
C1070 H1060 0.930 . S
C1070 C1068 1.419 . S
C1070 C1071 1.362 . S
C1071 H1061 0.930 . S
C1071 C1064 1.409 . S
C1071 C1070 1.362 . S
H1072 C1078 0.930 . S
H1073 C1081 0.930 . S
H1074 C1082 0.930 . S
H1075 C1083 0.930 . S
H1076 C1086 0.930 . S
H1077 C1087 0.930 . S
C1078 H1072 0.930 . S
C1078 C1079 1.355 . S
C1078 C1080 1.419 . S
C1079 C1078 1.355 . S
C1079 C1081 1.419 . S
C1080 C1078 1.419 . S
C1080 C1085 1.425 1_445 S
C1080 C1087 1.405 1_445 S
C1081 H1073 0.930 . S
C1081 C1079 1.419 . S
C1081 C1082 1.362 . S
C1082 H1074 0.930 . S
C1082 C1081 1.362 . S
C1082 C1085 1.405 1_445 S
C1083 H1075 0.930 . S
C1083 C1084 1.355 . S
C1083 C1085 1.419 . S
C1084 C1083 1.355 . S
C1084 C1086 1.419 . S
C1085 C1080 1.425 1_665 S
C1085 C1082 1.405 1_665 S
C1085 C1083 1.419 . S
C1086 H1076 0.930 . S
C1086 C1084 1.419 . S
C1086 C1087 1.362 . S
C1087 H1077 0.930 . S
C1087 C1080 1.405 1_665 S
C1087 C1086 1.362 . S
H1088 C1094 0.957 . S
H1089 C1097 0.930 . S
H1090 C1098 0.930 . S
H1091 C1099 0.957 . S
H1092 C1102 0.930 . S
H1093 C1103 0.930 . S
C1094 H1088 0.957 . S
C1094 C1095 1.316 1_455 S
C1094 C1096 1.428 . S
C1095 C1094 1.316 1_655 S
C1095 C1097 1.419 . S
C1096 C1094 1.428 . S
C1096 C1101 1.425 1_455 S
C1096 C1103 1.409 . S
C1097 H1089 0.930 . S
C1097 C1095 1.419 . S
C1097 C1098 1.362 . S
C1098 H1090 0.930 . S
C1098 C1097 1.362 . S
C1098 C1101 1.409 . S
C1099 H1091 0.957 . S
C1099 C1100 1.316 1_655 S
C1099 C1101 1.428 . S
C1100 C1099 1.316 1_455 S
C1100 C1102 1.419 . S
C1101 C1096 1.425 1_655 S
C1101 C1098 1.409 . S
C1101 C1099 1.428 . S
C1102 H1092 0.930 . S
C1102 C1100 1.419 . S
C1102 C1103 1.362 . S
C1103 H1093 0.930 . S
C1103 C1096 1.409 . S
C1103 C1102 1.362 . S
H1104 C1110 0.930 . S
H1105 C1113 0.930 . S
H1106 C1114 0.930 . S
H1107 C1115 0.930 . S
H1108 C1118 0.930 . S
H1109 C1119 0.930 . S
C1110 H1104 0.930 . S
C1110 C1111 1.355 . S
C1110 C1112 1.415 . S
C1111 C1110 1.355 . S
C1111 C1113 1.419 . S
C1112 C1110 1.415 . S
C1112 C1117 1.425 . S
C1112 C1119 1.409 . S
C1113 H1105 0.930 . S
C1113 C1111 1.419 . S
C1113 C1114 1.362 . S
C1114 H1106 0.930 . S
C1114 C1113 1.362 . S
C1114 C1117 1.409 . S
C1115 H1107 0.930 . S
C1115 C1116 1.355 . S
C1115 C1117 1.415 . S
C1116 C1115 1.355 . S
C1116 C1118 1.419 . S
C1117 C1112 1.425 . S
C1117 C1114 1.409 . S
C1117 C1115 1.415 . S
C1118 H1108 0.930 . S
C1118 C1116 1.419 . S
C1118 C1119 1.362 . S
C1119 H1109 0.930 . S
C1119 C1112 1.409 . S
C1119 C1118 1.362 . S
H1120 C1126 0.930 . S
H1121 C1129 0.930 . S
H1122 C1130 0.930 1_546 S
H1123 C1131 0.930 . S
H1124 C1134 0.930 . S
H1125 C1135 0.930 1_565 S
C1126 H1120 0.930 . S
C1126 C1127 1.355 . S
C1126 C1128 1.415 . S
C1127 C1126 1.355 . S
C1127 C1129 1.419 . S
C1128 C1126 1.415 . S
C1128 C1133 1.425 1_565 S
C1128 C1135 1.409 1_565 S
C1129 H1121 0.930 . S
C1129 C1127 1.419 . S
C1129 C1130 1.362 . S
C1130 H1122 0.930 1_564 S
C1130 C1129 1.362 . S
C1130 C1133 1.409 1_565 S
C1131 H1123 0.930 . S
C1131 C1132 1.355 . S
C1131 C1133 1.415 . S
C1132 C1131 1.355 . S
C1132 C1134 1.419 . S
C1133 C1128 1.425 1_545 S
C1133 C1130 1.409 1_545 S
C1133 C1131 1.415 . S
C1134 H1124 0.930 . S
C1134 C1132 1.419 . S
C1134 C1135 1.362 . S
C1135 H1125 0.930 1_545 S
C1135 C1128 1.409 1_545 S
C1135 C1134 1.362 . S
H1136 C1142 0.930 . S
H1137 C1145 0.930 . S
H1138 C1146 0.930 . S
H1139 C1147 0.930 . S
H1140 C1150 0.930 . S
H1141 C1151 0.930 . S
C1142 H1136 0.930 . S
C1142 C1143 1.349 1_554 S
C1142 C1144 1.415 . S
C1143 C1142 1.349 1_556 S
C1143 C1145 1.426 . S
C1144 C1142 1.415 . S
C1144 C1149 1.425 1_454 S
C1144 C1151 1.409 . S
C1145 H1137 0.930 . S
C1145 C1143 1.426 . S
C1145 C1146 1.363 1_455 S
C1146 H1138 0.930 . S
C1146 C1145 1.363 1_655 S
C1146 C1149 1.409 . S
C1147 H1139 0.930 . S
C1147 C1148 1.355 1_556 S
C1147 C1149 1.415 . S
C1148 C1147 1.355 1_554 S
C1148 C1150 1.419 . S
C1149 C1144 1.425 1_656 S
C1149 C1146 1.409 . S
C1149 C1147 1.415 . S
C1150 H1140 0.930 . S
C1150 C1148 1.419 . S
C1150 C1151 1.363 1_655 S
C1151 H1141 0.930 . S
C1151 C1144 1.409 . S
C1151 C1150 1.363 1_455 S
H1152 C1158 0.930 . S
H1153 C1161 0.930 . S
H1154 C1162 0.930 . S
H1155 C1163 0.930 . S
H1156 C1166 0.930 . S
H1157 C1167 0.930 . S
C1158 H1152 0.930 . S
C1158 C1159 1.355 . S
C1158 C1160 1.415 . S
C1159 C1158 1.355 . S
C1159 C1161 1.419 . S
C1160 C1158 1.415 . S
C1160 C1165 1.425 . S
C1160 C1167 1.409 . S
C1161 H1153 0.930 . S
C1161 C1159 1.419 . S
C1161 C1162 1.362 . S
C1162 H1154 0.930 . S
C1162 C1161 1.362 . S
C1162 C1165 1.409 . S
C1163 H1155 0.930 . S
C1163 C1164 1.355 . S
C1163 C1165 1.415 . S
C1164 C1163 1.355 . S
C1164 C1166 1.419 . S
C1165 C1160 1.425 . S
C1165 C1162 1.409 . S
C1165 C1163 1.415 . S
C1166 H1156 0.930 . S
C1166 C1164 1.419 . S
C1166 C1167 1.362 . S
C1167 H1157 0.930 . S
C1167 C1160 1.409 . S
C1167 C1166 1.362 . S
H1168 C1174 0.930 . S
H1169 C1177 0.930 . S
H1170 C1178 0.930 . S
H1171 C1179 0.930 . S
H1172 C1182 0.930 . S
H1173 C1183 0.930 . S
C1174 H1168 0.930 . S
C1174 C1175 1.355 . S
C1174 C1176 1.415 . S
C1175 C1174 1.355 . S
C1175 C1177 1.419 1_545 S
C1176 C1174 1.415 . S
C1176 C1181 1.425 1_545 S
C1176 C1183 1.409 . S
C1177 H1169 0.930 . S
C1177 C1175 1.419 1_565 S
C1177 C1178 1.362 . S
C1178 H1170 0.930 . S
C1178 C1177 1.362 . S
C1178 C1181 1.409 . S
C1179 H1171 0.930 . S
C1179 C1180 1.355 . S
C1179 C1181 1.415 . S
C1180 C1179 1.355 . S
C1180 C1182 1.419 1_565 S
C1181 C1176 1.425 1_565 S
C1181 C1178 1.409 . S
C1181 C1179 1.415 . S
C1182 H1172 0.930 . S
C1182 C1180 1.419 1_545 S
C1182 C1183 1.362 . S
C1183 H1173 0.930 . S
C1183 C1176 1.409 . S
C1183 C1182 1.362 . S
H1184 C1190 0.930 . S
H1185 C1193 0.930 . S
H1186 C1194 0.930 . S
H1187 C1195 0.930 . S
H1188 C1198 0.930 . S
H1189 C1199 0.930 . S
C1190 H1184 0.930 . S
C1190 C1191 1.355 . S
C1190 C1192 1.415 1_545 S
C1191 C1190 1.355 . S
C1191 C1193 1.419 1_455 S
C1192 C1190 1.415 1_565 S
C1192 C1197 1.425 1_465 S
C1192 C1199 1.409 . S
C1193 H1185 0.930 . S
C1193 C1191 1.419 1_655 S
C1193 C1194 1.362 . S
C1194 H1186 0.930 . S
C1194 C1193 1.362 . S
C1194 C1197 1.409 . S
C1195 H1187 0.930 . S
C1195 C1196 1.355 . S
C1195 C1197 1.415 1_565 S
C1196 C1195 1.355 . S
C1196 C1198 1.419 1_655 S
C1197 C1192 1.425 1_645 S
C1197 C1194 1.409 . S
C1197 C1195 1.415 1_545 S
C1198 H1188 0.930 . S
C1198 C1196 1.419 1_455 S
C1198 C1199 1.362 . S
C1199 H1189 0.930 . S
C1199 C1192 1.409 . S
C1199 C1198 1.362 . S
H1200 C1206 0.930 . S
H1201 C1209 0.930 . S
H1202 C1210 0.930 . S
H1203 C1211 0.930 . S
H1204 C1214 0.930 . S
H1205 C1215 0.930 . S
C1206 H1200 0.930 . S
C1206 C1207 1.355 . S
C1206 C1208 1.415 . S
C1207 C1206 1.355 . S
C1207 C1209 1.419 . S
C1208 C1206 1.415 . S
C1208 C1213 1.425 . S
C1208 C1215 1.409 . S
C1209 H1201 0.930 . S
C1209 C1207 1.419 . S
C1209 C1210 1.362 . S
C1210 H1202 0.930 . S
C1210 C1209 1.362 . S
C1210 C1213 1.409 . S
C1211 H1203 0.930 . S
C1211 C1212 1.355 . S
C1211 C1213 1.415 . S
C1212 C1211 1.355 . S
C1212 C1214 1.419 . S
C1213 C1208 1.425 . S
C1213 C1210 1.409 . S
C1213 C1211 1.415 . S
C1214 H1204 0.930 . S
C1214 C1212 1.419 . S
C1214 C1215 1.362 . S
C1215 H1205 0.930 . S
C1215 C1208 1.409 . S
C1215 C1214 1.362 . S
H1216 C1222 0.930 . S
H1217 C1225 0.930 . S
H1218 C1226 0.930 . S
H1219 C1227 0.930 . S
H1220 C1230 0.930 . S
H1221 C1231 0.930 . S
C1222 H1216 0.930 . S
C1222 C1223 1.355 . S
C1222 C1224 1.415 . S
C1223 C1222 1.355 . S
C1223 C1225 1.419 . S
C1224 C1222 1.415 . S
C1224 C1229 1.425 . S
C1224 C1231 1.409 . S
C1225 H1217 0.930 . S
C1225 C1223 1.419 . S
C1225 C1226 1.362 . S
C1226 H1218 0.930 . S
C1226 C1225 1.362 . S
C1226 C1229 1.409 . S
C1227 H1219 0.930 . S
C1227 C1228 1.355 . S
C1227 C1229 1.415 . S
C1228 C1227 1.355 . S
C1228 C1230 1.419 . S
C1229 C1224 1.425 . S
C1229 C1226 1.409 . S
C1229 C1227 1.415 . S
C1230 H1220 0.930 . S
C1230 C1228 1.419 . S
C1230 C1231 1.362 . S
C1231 H1221 0.930 . S
C1231 C1224 1.409 . S
C1231 C1230 1.362 . S
H1232 C1238 0.930 . S
H1233 C1241 0.930 . S
H1234 C1242 0.930 . S
H1235 C1243 0.930 . S
H1236 C1246 0.930 . S
H1237 C1247 0.930 . S
C1238 H1232 0.930 . S
C1238 C1239 1.355 . S
C1238 C1240 1.415 . S
C1239 C1238 1.355 . S
C1239 C1241 1.419 . S
C1240 C1238 1.415 . S
C1240 C1245 1.425 . S
C1240 C1247 1.409 . S
C1241 H1233 0.930 . S
C1241 C1239 1.419 . S
C1241 C1242 1.362 . S
C1242 H1234 0.930 . S
C1242 C1241 1.362 . S
C1242 C1245 1.409 . S
C1243 H1235 0.930 . S
C1243 C1244 1.355 . S
C1243 C1245 1.415 1_556 S
C1244 C1243 1.355 . S
C1244 C1246 1.419 . S
C1245 C1240 1.425 . S
C1245 C1242 1.409 . S
C1245 C1243 1.415 1_554 S
C1246 H1236 0.930 . S
C1246 C1244 1.419 . S
C1246 C1247 1.362 1_556 S
C1247 H1237 0.930 . S
C1247 C1240 1.409 . S
C1247 C1246 1.362 1_554 S
H1248 C1254 0.930 . S
H1249 C1257 0.930 . S
H1250 C1258 0.930 . S
H1251 C1259 0.930 . S
H1252 C1262 0.930 . S
H1253 C1263 0.930 . S
C1254 H1248 0.930 . S
C1254 C1255 1.355 . S
C1254 C1256 1.415 . S
C1255 C1254 1.355 . S
C1255 C1257 1.419 . S
C1256 C1254 1.415 . S
C1256 C1261 1.425 . S
C1256 C1263 1.409 . S
C1257 H1249 0.930 . S
C1257 C1255 1.419 . S
C1257 C1258 1.362 . S
C1258 H1250 0.930 . S
C1258 C1257 1.362 . S
C1258 C1261 1.409 . S
C1259 H1251 0.930 . S
C1259 C1260 1.355 . S
C1259 C1261 1.415 . S
C1260 C1259 1.355 . S
C1260 C1262 1.419 . S
C1261 C1256 1.425 . S
C1261 C1258 1.409 . S
C1261 C1259 1.415 . S
C1262 H1252 0.930 . S
C1262 C1260 1.419 . S
C1262 C1263 1.362 . S
C1263 H1253 0.930 . S
C1263 C1256 1.409 . S
C1263 C1262 1.362 . S
H1264 C1270 0.930 . S
H1265 C1273 0.930 . S
H1266 C1274 0.930 . S
H1267 C1275 0.930 . S
H1268 C1278 0.930 . S
H1269 C1279 0.930 . S
C1270 H1264 0.930 . S
C1270 C1271 1.355 . S
C1270 C1272 1.415 . S
C1271 C1270 1.355 . S
C1271 C1273 1.419 . S
C1272 C1270 1.415 . S
C1272 C1277 1.425 . S
C1272 C1279 1.409 . S
C1273 H1265 0.930 . S
C1273 C1271 1.419 . S
C1273 C1274 1.362 . S
C1274 H1266 0.930 . S
C1274 C1273 1.362 . S
C1274 C1277 1.409 . S
C1275 H1267 0.930 . S
C1275 C1276 1.355 . S
C1275 C1277 1.415 . S
C1276 C1275 1.355 . S
C1276 C1278 1.419 . S
C1277 C1272 1.425 . S
C1277 C1274 1.409 . S
C1277 C1275 1.415 . S
C1278 H1268 0.930 . S
C1278 C1276 1.419 . S
C1278 C1279 1.362 . S
C1279 H1269 0.930 . S
C1279 C1272 1.409 . S
C1279 C1278 1.362 . S
H1280 C1286 0.930 . S
H1281 C1289 0.930 . S
H1282 C1290 0.930 . S
H1283 C1291 0.930 . S
H1284 C1294 0.930 . S
H1285 C1295 0.930 . S
C1286 H1280 0.930 . S
C1286 C1287 1.355 . S
C1286 C1288 1.415 . S
C1287 C1286 1.355 . S
C1287 C1289 1.419 . S
C1288 C1286 1.415 . S
C1288 C1293 1.425 . S
C1288 C1295 1.409 . S
C1289 H1281 0.930 . S
C1289 C1287 1.419 . S
C1289 C1290 1.362 . S
C1290 H1282 0.930 . S
C1290 C1289 1.362 . S
C1290 C1293 1.409 . S
C1291 H1283 0.930 . S
C1291 C1292 1.355 . S
C1291 C1293 1.415 1_556 S
C1292 C1291 1.355 . S
C1292 C1294 1.419 . S
C1293 C1288 1.425 . S
C1293 C1290 1.409 . S
C1293 C1291 1.415 1_554 S
C1294 H1284 0.930 . S
C1294 C1292 1.419 . S
C1294 C1295 1.362 1_556 S
C1295 H1285 0.930 . S
C1295 C1288 1.409 . S
C1295 C1294 1.362 1_554 S
H1296 C1302 0.930 . S
H1297 C1305 0.930 . S
H1298 C1306 0.930 . S
H1299 C1307 0.930 . S
H1300 C1310 0.930 . S
H1301 C1311 0.930 . S
C1302 H1296 0.930 . S
C1302 C1303 1.355 . S
C1302 C1304 1.415 . S
C1303 C1302 1.355 . S
C1303 C1305 1.419 . S
C1304 C1302 1.415 . S
C1304 C1309 1.425 . S
C1304 C1311 1.409 . S
C1305 H1297 0.930 . S
C1305 C1303 1.419 . S
C1305 C1306 1.362 . S
C1306 H1298 0.930 . S
C1306 C1305 1.362 . S
C1306 C1309 1.409 . S
C1307 H1299 0.930 . S
C1307 C1308 1.355 . S
C1307 C1309 1.415 . S
C1308 C1307 1.355 . S
C1308 C1310 1.419 . S
C1309 C1304 1.425 . S
C1309 C1306 1.409 . S
C1309 C1307 1.415 . S
C1310 H1300 0.930 . S
C1310 C1308 1.419 . S
C1310 C1311 1.362 . S
C1311 H1301 0.930 . S
C1311 C1304 1.409 . S
C1311 C1310 1.362 . S
H1312 C1318 0.930 . S
H1313 C1321 0.930 . S
H1314 C1322 0.930 . S
H1315 C1323 0.930 . S
H1316 C1326 0.930 . S
H1317 C1327 0.930 . S
C1318 H1312 0.930 . S
C1318 C1319 1.355 . S
C1318 C1320 1.415 . S
C1319 C1318 1.355 . S
C1319 C1321 1.419 . S
C1320 C1318 1.415 . S
C1320 C1325 1.425 . S
C1320 C1327 1.409 . S
C1321 H1313 0.930 . S
C1321 C1319 1.419 . S
C1321 C1322 1.362 . S
C1322 H1314 0.930 . S
C1322 C1321 1.362 . S
C1322 C1325 1.409 . S
C1323 H1315 0.930 . S
C1323 C1324 1.355 . S
C1323 C1325 1.415 . S
C1324 C1323 1.355 . S
C1324 C1326 1.419 . S
C1325 C1320 1.425 . S
C1325 C1322 1.409 . S
C1325 C1323 1.415 . S
C1326 H1316 0.930 . S
C1326 C1324 1.419 . S
C1326 C1327 1.362 . S
C1327 H1317 0.930 . S
C1327 C1320 1.409 . S
C1327 C1326 1.362 . S
H1328 C1334 0.930 . S
H1329 C1337 0.930 . S
H1330 C1338 0.933 . S
H1331 C1339 0.930 . S
H1332 C1342 0.930 . S
H1333 C1343 0.930 . S
C1334 H1328 0.930 . S
C1334 C1335 1.355 . S
C1334 C1336 1.415 1_556 S
C1335 C1334 1.355 . S
C1335 C1337 1.419 . S
C1336 C1334 1.415 1_554 S
C1336 C1341 1.425 . S
C1336 C1343 1.409 . S
C1337 H1329 0.930 . S
C1337 C1335 1.419 . S
C1337 C1338 1.342 1_556 S
C1338 H1330 0.933 . S
C1338 C1337 1.342 1_554 S
C1338 C1341 1.427 . S
C1339 H1331 0.930 . S
C1339 C1340 1.355 . S
C1339 C1341 1.415 . S
C1340 C1339 1.355 . S
C1340 C1342 1.419 . S
C1341 C1336 1.425 . S
C1341 C1338 1.427 . S
C1341 C1339 1.415 . S
C1342 H1332 0.930 . S
C1342 C1340 1.419 . S
C1342 C1343 1.362 . S
C1343 H1333 0.930 . S
C1343 C1336 1.409 . S
C1343 C1342 1.362 . S
H1344 C1350 0.930 . S
H1345 C1353 0.930 . S
H1346 C1354 0.930 . S
H1347 C1355 0.930 . S
H1348 C1358 0.930 . S
H1349 C1359 0.930 . S
C1350 H1344 0.930 . S
C1350 C1351 1.355 . S
C1350 C1352 1.415 . S
C1351 C1350 1.355 . S
C1351 C1353 1.419 . S
C1352 C1350 1.415 . S
C1352 C1357 1.425 . S
C1352 C1359 1.409 . S
C1353 H1345 0.930 . S
C1353 C1351 1.419 . S
C1353 C1354 1.362 . S
C1354 H1346 0.930 . S
C1354 C1353 1.362 . S
C1354 C1357 1.409 . S
C1355 H1347 0.930 . S
C1355 C1356 1.355 . S
C1355 C1357 1.415 . S
C1356 C1355 1.355 . S
C1356 C1358 1.419 . S
C1357 C1352 1.425 . S
C1357 C1354 1.409 . S
C1357 C1355 1.415 . S
C1358 H1348 0.930 . S
C1358 C1356 1.419 . S
C1358 C1359 1.362 . S
C1359 H1349 0.930 . S
C1359 C1352 1.409 . S
C1359 C1358 1.362 . S
H1360 C1366 0.930 . S
H1361 C1369 0.930 . S
H1362 C1370 0.930 . S
H1363 C1371 0.930 . S
H1364 C1374 0.930 . S
H1365 C1375 0.930 . S
C1366 H1360 0.930 . S
C1366 C1367 1.355 . S
C1366 C1368 1.415 . S
C1367 C1366 1.355 . S
C1367 C1369 1.419 . S
C1368 C1366 1.415 . S
C1368 C1373 1.425 . S
C1368 C1375 1.409 . S
C1369 H1361 0.930 . S
C1369 C1367 1.419 . S
C1369 C1370 1.362 . S
C1370 H1362 0.930 . S
C1370 C1369 1.362 . S
C1370 C1373 1.409 . S
C1371 H1363 0.930 . S
C1371 C1372 1.355 . S
C1371 C1373 1.415 . S
C1372 C1371 1.355 . S
C1372 C1374 1.419 . S
C1373 C1368 1.425 . S
C1373 C1370 1.409 . S
C1373 C1371 1.415 . S
C1374 H1364 0.930 . S
C1374 C1372 1.419 . S
C1374 C1375 1.362 . S
C1375 H1365 0.930 . S
C1375 C1368 1.409 . S
C1375 C1374 1.362 . S
H1376 C1382 0.930 . S
H1377 C1385 0.930 . S
H1378 C1386 0.930 . S
H1379 C1387 0.930 . S
H1380 C1390 0.930 . S
H1381 C1391 0.930 . S
C1382 H1376 0.930 . S
C1382 C1383 1.355 . S
C1382 C1384 1.415 . S
C1383 C1382 1.355 . S
C1383 C1385 1.419 . S
C1384 C1382 1.415 . S
C1384 C1389 1.425 . S
C1384 C1391 1.409 . S
C1385 H1377 0.930 . S
C1385 C1383 1.419 . S
C1385 C1386 1.362 . S
C1386 H1378 0.930 . S
C1386 C1385 1.362 . S
C1386 C1389 1.409 . S
C1387 H1379 0.930 . S
C1387 C1388 1.355 . S
C1387 C1389 1.415 . S
C1388 C1387 1.355 . S
C1388 C1390 1.419 . S
C1389 C1384 1.425 . S
C1389 C1386 1.409 . S
C1389 C1387 1.415 . S
C1390 H1380 0.930 . S
C1390 C1388 1.419 . S
C1390 C1391 1.362 . S
C1391 H1381 0.930 . S
C1391 C1384 1.409 . S
C1391 C1390 1.362 . S
H1392 C1398 0.930 . S
H1393 C1401 0.930 . S
H1394 C1402 0.930 . S
H1395 C1403 0.930 . S
H1396 C1406 0.930 . S
H1397 C1407 0.930 . S
C1398 H1392 0.930 . S
C1398 C1399 1.355 . S
C1398 C1400 1.415 . S
C1399 C1398 1.355 . S
C1399 C1401 1.419 . S
C1400 C1398 1.415 . S
C1400 C1405 1.425 . S
C1400 C1407 1.409 . S
C1401 H1393 0.930 . S
C1401 C1399 1.419 . S
C1401 C1402 1.362 . S
C1402 H1394 0.930 . S
C1402 C1401 1.362 . S
C1402 C1405 1.409 . S
C1403 H1395 0.930 . S
C1403 C1404 1.355 . S
C1403 C1405 1.415 . S
C1404 C1403 1.355 . S
C1404 C1406 1.419 . S
C1405 C1400 1.425 . S
C1405 C1402 1.409 . S
C1405 C1403 1.415 . S
C1406 H1396 0.930 . S
C1406 C1404 1.419 . S
C1406 C1407 1.362 . S
C1407 H1397 0.930 . S
C1407 C1400 1.409 . S
C1407 C1406 1.362 . S
H1408 C1414 0.930 . S
H1409 C1417 0.930 . S
H1410 C1418 0.930 . S
H1411 C1419 0.930 . S
H1412 C1422 0.930 . S
H1413 C1423 0.930 . S
C1414 H1408 0.930 . S
C1414 C1415 1.355 . S
C1414 C1416 1.415 . S
C1415 C1414 1.355 . S
C1415 C1417 1.419 . S
C1416 C1414 1.415 . S
C1416 C1421 1.425 . S
C1416 C1423 1.409 . S
C1417 H1409 0.930 . S
C1417 C1415 1.419 . S
C1417 C1418 1.362 . S
C1418 H1410 0.930 . S
C1418 C1417 1.362 . S
C1418 C1421 1.409 . S
C1419 H1411 0.930 . S
C1419 C1420 1.355 . S
C1419 C1421 1.415 . S
C1420 C1419 1.355 . S
C1420 C1422 1.419 . S
C1421 C1416 1.425 . S
C1421 C1418 1.409 . S
C1421 C1419 1.415 . S
C1422 H1412 0.930 . S
C1422 C1420 1.419 . S
C1422 C1423 1.362 . S
C1423 H1413 0.930 . S
C1423 C1416 1.409 . S
C1423 C1422 1.362 . S
H1424 C1430 0.930 . S
H1425 C1433 0.930 . S
H1426 C1434 0.930 . S
H1427 C1435 0.930 . S
H1428 C1438 0.930 . S
H1429 C1439 0.930 . S
C1430 H1424 0.930 . S
C1430 C1431 1.355 . S
C1430 C1432 1.415 . S
C1431 C1430 1.355 . S
C1431 C1433 1.419 . S
C1432 C1430 1.415 . S
C1432 C1437 1.425 . S
C1432 C1439 1.409 . S
C1433 H1425 0.930 . S
C1433 C1431 1.419 . S
C1433 C1434 1.362 . S
C1434 H1426 0.930 . S
C1434 C1433 1.362 . S
C1434 C1437 1.409 . S
C1435 H1427 0.930 . S
C1435 C1436 1.355 . S
C1435 C1437 1.415 . S
C1436 C1435 1.355 . S
C1436 C1438 1.419 . S
C1437 C1432 1.425 . S
C1437 C1434 1.409 . S
C1437 C1435 1.415 . S
C1438 H1428 0.930 . S
C1438 C1436 1.419 . S
C1438 C1439 1.362 . S
C1439 H1429 0.930 . S
C1439 C1432 1.409 . S
C1439 C1438 1.362 . S
H1440 C1446 0.930 . S
H1441 C1449 0.930 . S
H1442 C1450 0.930 . S
H1443 C1451 0.930 . S
H1444 C1454 0.930 . S
H1445 C1455 0.930 . S
C1446 H1440 0.930 . S
C1446 C1447 1.355 . S
C1446 C1448 1.415 . S
C1447 C1446 1.355 . S
C1447 C1449 1.419 . S
C1448 C1446 1.415 . S
C1448 C1453 1.425 . S
C1448 C1455 1.409 . S
C1449 H1441 0.930 . S
C1449 C1447 1.419 . S
C1449 C1450 1.362 . S
C1450 H1442 0.930 . S
C1450 C1449 1.362 . S
C1450 C1453 1.409 . S
C1451 H1443 0.930 . S
C1451 C1452 1.355 . S
C1451 C1453 1.415 1_556 S
C1452 C1451 1.355 . S
C1452 C1454 1.419 . S
C1453 C1448 1.425 . S
C1453 C1450 1.409 . S
C1453 C1451 1.415 1_554 S
C1454 H1444 0.930 . S
C1454 C1452 1.419 . S
C1454 C1455 1.362 1_556 S
C1455 H1445 0.930 . S
C1455 C1448 1.409 . S
C1455 C1454 1.362 1_554 S
C951 C359 1.547 . S
C956 C5 1.553 . S
C967 C418 1.542 . S
C972 C64 1.550 . S
C983 C123 1.522 . S
C988 C241 1.535 . S
C999 C182 1.524 . S
C1004 C300 1.537 . S
C1015 C477 1.500 . S
C1020 C831 1.497 . S
C1031 C890 1.499 . S
C1036 C536 1.497 . S
C1047 C595 1.533 . S
C1052 C713 1.545 . S
C1063 C654 1.516 . S
C1068 C772 1.529 . S
C1079 C52 1.461 . S
C1084 C642 1.450 . S
C1095 C111 1.450 . S
C1100 C701 1.451 . S
C1111 C170 1.472 . S
C1116 C524 1.468 . S
C1127 C229 1.453 . S
C1132 C583 1.465 . S
C1143 C288 1.451 1_556 S
C1148 C878 1.449 . S
C1159 C937 1.464 . S
C1164 C347 1.452 . S
C1175 C406 1.469 . S
C1180 C760 1.472 . S
C1191 C819 1.472 . S
C1196 C465 1.469 . S
C1207 C800 0.591 . S
C1212 C33 0.571 . S
C1223 C92 0.639 . S
C1228 C859 0.610 . S
C1239 C918 0.659 . S
C1244 C151 0.632 . S
C1255 C741 0.681 . S
C1260 C210 0.693 . S
C1271 C682 0.612 . S
C1276 C269 0.641 . S
C1287 C328 0.626 . S
C1292 C505 0.598 . S
C1303 C387 0.620 . S
C1308 C564 0.648 . S
C1319 C446 0.639 . S
C1324 C623 0.610 . S
C1335 C770 1.577 . S
C1340 C3 1.569 . S
C1351 C62 1.594 . S
C1356 C829 1.562 . S
C1367 C121 1.557 . S
C1372 C888 1.592 . S
C1383 C711 1.552 . S
C1388 C180 1.599 . S
C1399 C652 1.590 . S
C1404 C239 1.567 . S
C1415 C475 1.599 . S
C1420 C298 1.553 . S
C1431 C357 1.583 . S
C1436 C534 1.564 . S
C1447 C593 1.599 . S
C1452 C416 1.554 . S
