# Generated by pormake.
# Topology umw, (4)-cn, num edge types: 1
# Building blocks:
#     Node 0, Type 0, BuildingBlock: ICAMEG_clean_sbu_1, # of connection points: 4
#     Node 1, Type 0, BuildingBlock: ICAMEG_clean_sbu_1, # of connection points: 4
#     Node 2, Type 0, BuildingBlock: ICAMEG_clean_sbu_1, # of connection points: 4
#     Node 3, Type 0, BuildingBlock: ICAMEG_clean_sbu_1, # of connection points: 4
#     Node 4, Type 0, BuildingBlock: ICAMEG_clean_sbu_1, # of connection points: 4
#     Node 5, Type 0, BuildingBlock: ICAMEG_clean_sbu_1, # of connection points: 4
#     Node 6, Type 0, BuildingBlock: ICAMEG_clean_sbu_1, # of connection points: 4
#     Node 7, Type 0, BuildingBlock: ICAMEG_clean_sbu_1, # of connection points: 4
#     Edge 8, Type (0, 0), None
#     Edge 9, Type (0, 0), None
#     Edge 10, Type (0, 0), None
#     Edge 11, Type (0, 0), None
#     Edge 12, Type (0, 0), None
#     Edge 13, Type (0, 0), None
#     Edge 14, Type (0, 0), None
#     Edge 15, Type (0, 0), None
#     Edge 16, Type (0, 0), None
#     Edge 17, Type (0, 0), None
#     Edge 18, Type (0, 0), None
#     Edge 19, Type (0, 0), None
#     Edge 20, Type (0, 0), None
#     Edge 21, Type (0, 0), None
#     Edge 22, Type (0, 0), None
#     Edge 23, Type (0, 0), None
# Relax obj value: 0.106
# Max RMSD: 0.124
# Mean RMSD: 0.124
data_MOF--net-umw--node1-ICAMEG_clean_sbu_1--edge1-none
_symmetry_space_group_name_H-M    P1
_symmetry_Int_Tables_number       1
_symmetry_cell_setting            triclinic
loop_
_symmetry_equiv_pos_as_xyz
'x, y, z'
_cell_length_a     20.449696
_cell_length_b     20.455173
_cell_length_c     14.421788
_cell_angle_alpha  90.000592
_cell_angle_beta   89.999276
_cell_angle_gamma 90.004622
loop_
_atom_site_label
_atom_site_type_symbol
_atom_site_fract_x
_atom_site_fract_y
_atom_site_fract_z
_atom_type_partial_charge
Co0 Co 0.53415 0.17252 0.3153 0.0
Co1 Co 0.37434 0.1529 0.39741 0.0
O2 O 0.43974 0.19685 0.3181 0.0
C3 C 0.4964 0.15901 0.11576 0.0
O4 O 0.43785 0.13901 0.13995 0.0
C5 C 0.3496 0.29897 0.43261 0.0
O6 O 0.40983 0.31552 0.41189 0.0
O7 O 0.43327 0.15751 0.50588 0.0
O8 O 0.53634 0.1666 0.45357 0.0
H9 H 0.30348 0.96147 0.59152 0.0
H10 H 0.48937 0.29131 0.21585 0.0
O11 O 0.53731 0.17708 0.17644 0.0
H12 H 0.65272 0.36877 0.44236 0.0
H13 H 0.7572 0.17974 0.17368 0.0
H14 H 0.62017 0.07779 0.41448 0.0
H15 H 0.62448 0.25173 0.43247 0.0
H16 H 0.64626 0.2199 0.2026 0.0
O17 O 0.33242 0.23893 0.43461 0.0
H18 H 0.38208 0.02987 0.5079 0.0
H19 H 0.23923 0.17674 0.47399 0.0
H20 H 0.73392 0.04085 0.39163 0.0
H21 H 0.51618 0.40895 0.2239 0.0
H22 H 0.80275 0.09061 0.27062 0.0
H23 H 0.59911 0.44789 0.33634 0.0
O24 O 0.51397 0.07625 0.30699 0.0
H25 H 0.25856 0.24693 0.12078 0.0
H26 H 0.27483 0.058 0.33033 0.0
H27 H 0.18849 0.0598 0.21184 0.0
H28 H 0.18119 0.1536 0.10379 0.0
H29 H 0.34115 0.24452 0.24482 0.0
H30 H 0.15832 0.11104 0.55842 0.0
H31 H 0.1897 1.0008 0.6153 0.0
O32 O 0.41048 0.06641 0.35726 0.0
C33 C 0.49452 0.16196 0.51879 0.0
C34 C 0.28833 0.00838 0.56435 0.0
C35 C 0.20702 0.09229 0.54607 0.0
N36 N 0.31357 0.1059 0.47843 0.0
C37 C 0.33259 0.04737 0.51581 0.0
C38 C 0.25275 0.12957 0.49737 0.0
C39 C 0.22462 0.03058 0.57792 0.0
C40 C 0.52529 0.30811 0.26544 0.0
N41 N 0.55532 0.26476 0.32353 0.0
C42 C 0.54024 0.37467 0.26961 0.0
C43 C 0.5866 0.39661 0.33318 0.0
C44 C 0.61681 0.35217 0.39251 0.0
C45 C 0.60036 0.28603 0.38683 0.0
C46 C 0.72851 0.15881 0.22891 0.0
C47 C 0.65085 0.10203 0.36403 0.0
C48 C 0.66498 0.18051 0.24488 0.0
N49 N 0.6263 0.15088 0.31001 0.0
C50 C 0.71512 0.08088 0.35178 0.0
C51 C 0.75375 0.10864 0.28292 0.0
C52 C 0.46345 0.04204 0.32606 0.0
C53 C 0.26183 0.20502 0.16631 0.0
C54 C 0.27192 0.09884 0.28395 0.0
C55 C 0.22277 0.09992 0.21702 0.0
C56 C 0.21831 0.153 0.15705 0.0
N57 N 0.31375 0.15025 0.29391 0.0
C58 C 0.30909 0.20304 0.23614 0.0
Co59 Co 0.84019 0.53418 0.56534 0.0
Co60 Co 0.85975 0.37441 0.64747 0.0
O61 O 0.81583 0.4398 0.56814 0.0
C62 C 0.85371 0.49643 0.36579 0.0
O63 O 0.87368 0.43789 0.38998 0.0
C64 C 0.71359 0.34961 0.68232 0.0
O65 O 0.69697 0.40972 0.66113 0.0
O66 O 0.85517 0.43334 0.75592 0.0
O67 O 0.84611 0.53638 0.7036 0.0
H68 H 0.0513 0.3034 0.84129 0.0
H69 H 0.72136 0.48946 0.46584 0.0
O70 O 0.83564 0.53734 0.42648 0.0
H71 H 0.64394 0.6528 0.69232 0.0
H72 H 0.83304 0.75717 0.4237 0.0
H73 H 0.93497 0.62018 0.66452 0.0
H74 H 0.76099 0.6245 0.68249 0.0
H75 H 0.79285 0.64626 0.4526 0.0
O76 O 0.77367 0.33255 0.68468 0.0
H77 H 0.98292 0.38203 0.75777 0.0
H78 H 0.83566 0.23946 0.72457 0.0
H79 H 0.97193 0.7339 0.64169 0.0
H80 H 0.60371 0.51633 0.47382 0.0
H81 H 0.92219 0.80271 0.52067 0.0
H82 H 0.5648 0.59926 0.58624 0.0
O83 O 0.93648 0.51398 0.55705 0.0
H84 H 0.76574 0.25871 0.37073 0.0
H85 H 0.95462 0.27484 0.58049 0.0
H86 H 0.95283 0.18856 0.46196 0.0
H87 H 0.85906 0.18133 0.35381 0.0
H88 H 0.76814 0.34127 0.4948 0.0
H89 H 0.9014 0.15851 0.80878 0.0
H90 H 0.01181 0.18972 0.86526 0.0
O91 O 0.94627 0.41052 0.60731 0.0
C92 C 0.85074 0.49457 0.76883 0.0
C93 C 1.00432 0.2883 0.81425 0.0
C94 C 0.92022 0.20715 0.79629 0.0
N95 N 0.90672 0.31365 0.72852 0.0
C96 C 0.96534 0.33259 0.76575 0.0
C97 C 0.88294 0.2529 0.74766 0.0
C98 C 0.98203 0.22466 0.82793 0.0
C99 C 0.70458 0.52537 0.51542 0.0
N100 N 0.74794 0.55537 0.57354 0.0
C101 C 0.63801 0.54036 0.51955 0.0
C102 C 0.61607 0.58672 0.58312 0.0
C103 C 0.66053 0.61689 0.64248 0.0
C104 C 0.72668 0.60041 0.63684 0.0
C105 C 0.85397 0.72849 0.47893 0.0
C106 C 0.91073 0.65085 0.61407 0.0
C107 C 0.83225 0.66497 0.49489 0.0
N108 N 0.86187 0.6263 0.56003 0.0
C109 C 0.9319 0.7151 0.60183 0.0
C110 C 0.90415 0.75373 0.53296 0.0
C111 C 0.97067 0.46347 0.57611 0.0
C112 C 0.80764 0.26195 0.41632 0.0
C113 C 0.91378 0.27197 0.53408 0.0
C114 C 0.91271 0.22285 0.46713 0.0
C115 C 0.85965 0.21843 0.40709 0.0
N116 N 0.86239 0.31381 0.54399 0.0
C117 C 0.80961 0.30919 0.48616 0.0
Co118 Co 0.47858 0.84023 0.8153 0.0
Co119 Co 0.63839 0.85985 0.89741 0.0
O120 O 0.57299 0.8159 0.8181 0.0
C121 C 0.51633 0.85374 0.61576 0.0
O122 O 0.57488 0.87374 0.63995 0.0
C123 C 0.66314 0.71378 0.9326 0.0
O124 O 0.60291 0.69723 0.91188 0.0
O125 O 0.57946 0.85524 0.00587 0.0
O126 O 0.47639 0.84615 0.95357 0.0
H127 H 0.70924 0.05129 0.09152 0.0
H128 H 0.52336 0.72143 0.71585 0.0
O129 O 0.47542 0.83566 0.67644 0.0
H130 H 0.36001 0.64398 0.94236 0.0
H131 H 0.25553 0.83301 0.67369 0.0
H132 H 0.39256 0.93496 0.91448 0.0
H133 H 0.38825 0.76102 0.93247 0.0
H134 H 0.36647 0.79284 0.7026 0.0
O135 O 0.68031 0.77382 0.93461 0.0
H136 H 0.63064 0.98288 0.00791 0.0
H137 H 0.7735 0.83603 0.97396 0.0
H138 H 0.27881 0.9719 0.89164 0.0
H139 H 0.49656 0.60379 0.72391 0.0
H140 H 0.20998 0.92214 0.77063 0.0
H141 H 0.41362 0.56486 0.83634 0.0
O142 O 0.49876 0.9365 0.80699 0.0
H143 H 0.75418 0.76583 0.62077 0.0
H144 H 0.7379 0.95475 0.83032 0.0
H145 H 0.82424 0.95295 0.71183 0.0
H146 H 0.83154 0.85916 0.60378 0.0
H147 H 0.67158 0.76823 0.74482 0.0
H148 H 0.85441 0.90173 0.0584 0.0
H149 H 0.82302 0.01196 0.11529 0.0
O150 O 0.60224 0.94634 0.85726 0.0
C151 C 0.51821 0.85079 0.01879 0.0
C152 C 0.7244 1.00437 0.06435 0.0
C153 C 0.8057 0.92047 0.04606 0.0
N154 N 0.69915 0.90686 0.97842 0.0
C155 C 0.68013 0.96539 0.01581 0.0
C156 C 0.75998 0.8832 -0.00265 0.0
C157 C 0.7881 0.98218 0.07791 0.0
C158 C 0.48745 0.70464 0.76544 0.0
N159 N 0.45741 0.74799 0.82353 0.0
C160 C 0.4725 0.63808 0.76961 0.0
C161 C 0.42613 0.61614 0.83319 0.0
C162 C 0.39592 0.66058 0.89251 0.0
C163 C 0.41237 0.72672 0.88683 0.0
C164 C 0.28422 0.85394 0.72891 0.0
C165 C 0.36188 0.91072 0.86403 0.0
C166 C 0.34775 0.83224 0.74488 0.0
N167 N 0.38643 0.86186 0.81001 0.0
C168 C 0.29761 0.93187 0.85178 0.0
C169 C 0.25898 0.90411 0.78293 0.0
C170 C 0.54927 0.97071 0.82606 0.0
C171 C 0.75091 0.80773 0.66631 0.0
C172 C 0.74081 0.91391 0.78395 0.0
C173 C 0.78996 0.91283 0.71702 0.0
C174 C 0.79442 0.85975 0.65704 0.0
N175 N 0.69898 0.86251 0.7939 0.0
C176 C 0.70364 0.80972 0.73613 0.0
Co177 Co 0.17254 0.47856 0.06534 0.0
Co178 Co 0.15299 0.63834 0.14747 0.0
O179 O 0.1969 0.57295 0.06814 0.0
C180 C 0.15902 0.51632 0.86579 0.0
O181 O 0.13905 0.57486 0.88999 0.0
C182 C 0.29914 0.66314 0.18232 0.0
O183 O 0.31576 0.60303 0.16112 0.0
O184 O 0.15756 0.57941 0.25592 0.0
O185 O 0.16662 0.47637 0.2036 0.0
H186 H 0.96142 0.70935 0.3413 0.0
H187 H 0.29137 0.52329 0.96584 0.0
O188 O 0.17709 0.47541 0.92647 0.0
H189 H 0.36879 0.35995 0.19231 0.0
H190 H 0.17969 0.25558 0.92369 0.0
H191 H 0.07776 0.39257 0.16452 0.0
H192 H 0.25173 0.38824 0.18249 0.0
H193 H 0.21988 0.36649 0.9526 0.0
O194 O 0.23906 0.6802 0.18468 0.0
H195 H 0.02981 0.63072 0.25777 0.0
H196 H 0.17708 0.77329 0.22458 0.0
H197 H 0.0408 0.27885 0.14169 0.0
H198 H 0.40902 0.49642 0.97382 0.0
H199 H 0.09054 0.21004 0.02066 0.0
H200 H 0.44793 0.41349 0.08624 0.0
O201 O 0.07625 0.49877 0.05705 0.0
H202 H 0.24699 0.75403 0.87073 0.0
H203 H 0.05811 0.73791 0.0805 0.0
H204 H 0.0599 0.82419 0.96197 0.0
H205 H 0.15367 0.83141 0.85381 0.0
H206 H 0.24459 0.67148 -0.0052 0.0
H207 H 0.11134 0.85424 0.30879 0.0
H208 H 1.00092 0.82303 0.36527 0.0
O209 O 0.06646 0.60223 0.10731 0.0
C210 C 0.16199 0.51818 0.26883 0.0
C211 C 0.00841 0.72445 0.31426 0.0
C212 C 0.09251 0.8056 0.2963 0.0
N213 N 0.10601 0.6991 0.22853 0.0
C214 C 0.04738 0.68016 0.26575 0.0
C215 C 0.12979 0.75985 0.24767 0.0
C216 C 0.0307 0.78809 0.32793 0.0
C217 C 0.30816 0.48738 0.01542 0.0
N218 N 0.26479 0.45738 0.07354 0.0
C219 C 0.37472 0.47239 0.01955 0.0
C220 C 0.39666 0.42603 0.08312 0.0
C221 C 0.3522 0.39586 0.14247 0.0
C222 C 0.28605 0.41234 0.13683 0.0
C223 C 0.15876 0.28426 -0.02108 0.0
C224 C 0.102 0.3619 0.11406 0.0
C225 C 0.18048 0.34777 -0.00511 0.0
N226 N 0.15086 0.38645 0.06003 0.0
C227 C 0.08083 0.29765 0.10182 0.0
C228 C 0.10858 0.25902 0.03295 0.0
C229 C 0.04206 0.54928 0.07611 0.0
C230 C 0.20509 0.7508 0.91632 0.0
C231 C 0.09895 0.74078 0.03409 0.0
C232 C 0.10002 0.7899 0.96713 0.0
C233 C 0.15309 0.79432 0.9071 0.0
N234 N 0.15035 0.69893 0.044 0.0
C235 C 0.20312 0.70356 -0.01384 0.0
Co236 Co 0.53418 0.84023 0.3183 0.0
Co237 Co 0.37437 0.8598 0.23618 0.0
O238 O 0.43977 0.81589 0.3155 0.0
C239 C 0.49641 0.85374 0.51785 0.0
O240 O 0.43786 0.87372 0.49365 0.0
C241 C 0.34967 0.71371 0.201 0.0
O242 O 0.40991 0.69718 0.2217 0.0
O243 O 0.4333 0.85521 0.12772 0.0
O244 O 0.53638 0.84616 0.18004 0.0
H245 H 0.30339 0.05124 0.0422 0.0
H246 H 0.4894 0.72144 0.41776 0.0
O247 O 0.53733 0.83568 0.45716 0.0
H248 H 0.65276 0.64401 0.19127 0.0
H249 H 0.75722 0.83304 0.45994 0.0
H250 H 0.6202 0.93499 0.21914 0.0
H251 H 0.62452 0.76104 0.20114 0.0
H252 H 0.64628 0.79287 0.43101 0.0
O253 O 0.33248 0.77375 0.19901 0.0
H254 H 0.38203 0.98287 0.12577 0.0
H255 H 0.2393 0.8358 0.15934 0.0
H256 H 0.73396 0.97194 0.242 0.0
H257 H 0.51622 0.6038 0.40972 0.0
H258 H 0.80278 0.92218 0.36301 0.0
H259 H 0.59916 0.56489 0.2973 0.0
O260 O 0.51398 0.9365 0.3266 0.0
H261 H 0.25864 0.76579 0.51289 0.0
H262 H 0.27481 0.95466 0.30321 0.0
H263 H 0.18852 0.95287 0.42177 0.0
H264 H 0.18127 0.85911 0.52988 0.0
H265 H 0.3412 0.76819 0.3888 0.0
H266 H 0.15836 0.9015 0.07503 0.0
H267 H 0.18966 0.01181 0.01834 0.0
O268 O 0.41049 0.9463 0.27632 0.0
C269 C 0.49455 0.85078 0.11481 0.0
C270 C 0.28827 1.0043 0.06931 0.0
C271 C 0.20704 0.92029 0.08744 0.0
N272 N 0.31358 0.90676 0.15515 0.0
C273 C 0.33256 0.96533 0.11783 0.0
C274 C 0.25278 0.88303 0.13611 0.0
C275 C 0.22459 0.98204 0.05569 0.0
C276 C 0.52532 0.70465 0.36818 0.0
N277 N 0.55535 0.748 0.31008 0.0
C278 C 0.54027 0.63809 0.36402 0.0
C279 C 0.58664 0.61616 0.30045 0.0
C280 C 0.61685 0.6606 0.24111 0.0
C281 C 0.6004 0.72674 0.24678 0.0
C282 C 0.72854 0.85397 0.40472 0.0
C283 C 0.65088 0.91075 0.26959 0.0
C284 C 0.665 0.83227 0.38874 0.0
N285 N 0.62632 0.86189 0.32361 0.0
C286 C 0.71515 0.93191 0.28185 0.0
C287 C 0.75378 0.90415 0.35071 0.0
C288 C 0.46346 0.97069 0.30751 0.0
C289 C 0.26189 0.80769 0.46733 0.0
C290 C 0.27193 0.91383 0.34962 0.0
C291 C 0.22281 0.91276 0.41659 0.0
C292 C 0.21837 0.85969 0.47659 0.0
N293 N 0.31377 0.86244 0.33967 0.0
C294 C 0.30913 0.80966 0.39747 0.0
Co295 Co 0.17254 0.53415 0.56833 0.0
Co296 Co 0.15293 0.37438 0.48622 0.0
O297 O 0.19688 0.43976 0.56554 0.0
C298 C 0.15902 0.4964 0.76788 0.0
O299 O 0.13902 0.43787 0.74368 0.0
C300 C 0.29907 0.34954 0.45132 0.0
O301 O 0.3157 0.40965 0.47249 0.0
O302 O 0.15753 0.4333 0.37776 0.0
O303 O 0.16663 0.53634 0.43007 0.0
H304 H 0.96139 0.30348 0.29225 0.0
H305 H 0.29137 0.48942 0.66782 0.0
O306 O 0.1771 0.53731 0.70719 0.0
H307 H 0.36881 0.65275 0.44133 0.0
H308 H 0.17972 0.75715 0.70995 0.0
H309 H 0.07779 0.62013 0.46913 0.0
H310 H 0.25175 0.62446 0.45117 0.0
H311 H 0.21991 0.64623 0.68106 0.0
O312 O 0.23899 0.33248 0.44899 0.0
H313 H 0.02981 0.38208 0.37582 0.0
H314 H 0.17685 0.23937 0.40941 0.0
H315 H 0.04083 0.73385 0.49195 0.0
H316 H 0.40903 0.51628 0.65982 0.0
H317 H 0.09058 0.80267 0.61297 0.0
H318 H 0.44795 0.5992 0.54739 0.0
O319 O 0.07625 0.51397 0.57663 0.0
H320 H 0.24695 0.25862 0.76287 0.0
H321 H 0.05801 0.27486 0.55325 0.0
H322 H 0.05981 0.18853 0.67171 0.0
H323 H 0.15361 0.18125 0.77979 0.0
H324 H 0.24454 0.34121 0.63885 0.0
H325 H 0.11112 0.15845 0.32507 0.0
H326 H 1.00079 0.18976 0.26839 0.0
O327 O 0.06642 0.4105 0.52638 0.0
C328 C 0.16198 0.49453 0.36484 0.0
C329 C 0.00834 0.28835 0.31935 0.0
C330 C 0.09234 0.20712 0.33749 0.0
N331 N 0.10591 0.31363 0.40518 0.0
C332 C 0.04733 0.33262 0.36788 0.0
C333 C 0.12963 0.25285 0.38615 0.0
C334 C 0.03058 0.22468 0.30574 0.0
C335 C 0.30816 0.52533 0.61824 0.0
N336 N 0.2648 0.55533 0.56012 0.0
C337 C 0.37473 0.54031 0.61409 0.0
C338 C 0.39667 0.58666 0.55052 0.0
C339 C 0.35222 0.61684 0.49117 0.0
C340 C 0.28607 0.60036 0.49682 0.0
C341 C 0.1588 0.72846 0.65472 0.0
C342 C 0.10203 0.65081 0.51959 0.0
C343 C 0.18051 0.66495 0.63876 0.0
N344 N 0.15089 0.62627 0.57363 0.0
C345 C 0.08087 0.71506 0.53182 0.0
C346 C 0.10862 0.75369 0.60068 0.0
C347 C 0.04204 0.46346 0.55756 0.0
C348 C 0.20504 0.26188 0.71731 0.0
C349 C 0.09886 0.27195 0.59963 0.0
C350 C 0.09993 0.22281 0.66654 0.0
C351 C 0.15302 0.21836 0.72654 0.0
N352 N 0.15027 0.31379 0.5897 0.0
C353 C 0.20306 0.30914 0.6475 0.0
Co354 Co 0.47855 0.17252 0.8183 0.0
Co355 Co 0.63836 0.15295 0.73618 0.0
O356 O 0.57296 0.19686 0.8155 0.0
C357 C 0.51632 0.15901 0.01785 0.0
O358 O 0.57487 0.13903 -0.00635 0.0
C359 C 0.66306 0.29904 0.701 0.0
O360 O 0.60282 0.31557 0.72171 0.0
O361 O 0.57943 0.15754 0.62772 0.0
O362 O 0.47635 0.16659 0.68004 0.0
H363 H 0.70934 0.96151 0.5422 0.0
H364 H 0.52333 0.29131 0.91776 0.0
O365 O 0.4754 0.17708 0.95716 0.0
H366 H 0.35997 0.36874 0.69128 0.0
H367 H 0.25551 0.17971 0.95995 0.0
H368 H 0.39252 0.07776 0.71915 0.0
H369 H 0.38821 0.2517 0.70115 0.0
H370 H 0.36645 0.21988 0.93102 0.0
O371 O 0.68025 0.239 0.699 0.0
H372 H 0.6307 0.02988 0.62577 0.0
H373 H 0.77343 0.17695 0.65932 0.0
H374 H 0.27877 0.04081 0.742 0.0
H375 H 0.49652 0.40895 0.90972 0.0
H376 H 0.20995 0.09057 0.86302 0.0
H377 H 0.41357 0.44786 0.7973 0.0
O378 O 0.49875 0.07625 0.8266 0.0
H379 H 0.75409 0.24696 0.01289 0.0
H380 H 0.73792 0.0581 0.8032 0.0
H381 H 0.82421 0.05988 0.92176 0.0
H382 H 0.83146 0.15365 0.02987 0.0
H383 H 0.67153 0.24456 0.8888 0.0
H384 H 0.85437 0.11125 0.57502 0.0
H385 H 0.82307 1.00094 0.51833 0.0
O386 O 0.60223 0.06645 0.77631 0.0
C387 C 0.51817 0.16197 0.61481 0.0
C388 C 0.72446 0.00845 0.5693 0.0
C389 C 0.80569 0.09246 0.58743 0.0
N390 N 0.69915 0.10599 0.65514 0.0
C391 C 0.68017 0.04742 0.61783 0.0
C392 C 0.75995 0.12972 0.6361 0.0
C393 C 0.78814 0.03071 0.55568 0.0
C394 C 0.48741 0.3081 0.86818 0.0
N395 N 0.45737 0.26475 0.81009 0.0
C396 C 0.47245 0.37466 0.86402 0.0
C397 C 0.42609 0.39659 0.80045 0.0
C398 C 0.39588 0.35215 0.74112 0.0
C399 C 0.41233 0.28601 0.74679 0.0
C400 C 0.28419 0.15878 0.90472 0.0
C401 C 0.36185 0.102 0.7696 0.0
C402 C 0.34773 0.18048 0.88874 0.0
N403 N 0.38641 0.15086 0.82361 0.0
C404 C 0.29758 0.08084 0.78185 0.0
C405 C 0.25895 0.1086 0.85072 0.0
C406 C 0.54927 0.04206 0.80751 0.0
C407 C 0.75084 0.20506 0.96733 0.0
C408 C 0.7408 0.09892 0.84961 0.0
C409 C 0.78992 0.09999 0.91658 0.0
C410 C 0.79436 0.15306 0.97659 0.0
N411 N 0.69896 0.15031 0.83967 0.0
C412 C 0.70359 0.20309 0.89747 0.0
Co413 Co 0.84019 0.4786 0.06833 0.0
Co414 Co 0.8598 0.63837 -0.01378 0.0
O415 O 0.81585 0.57299 0.06554 0.0
C416 C 0.85371 0.51634 0.26788 0.0
O417 O 0.87371 0.57488 0.24369 0.0
C418 C 0.71366 0.66322 0.95132 0.0
O419 O 0.69704 0.6031 0.97249 0.0
O420 O 0.8552 0.57945 0.87776 0.0
O421 O 0.84611 0.47641 0.93007 0.0
H422 H 0.05135 0.70926 0.79225 0.0
H423 H 0.72136 0.52334 0.16782 0.0
O424 O 0.83563 0.47544 0.20719 0.0
H425 H 0.64392 0.36 0.94132 0.0
H426 H 0.833 0.25561 0.20995 0.0
H427 H 0.93494 0.39261 0.96913 0.0
H428 H 0.76098 0.38829 0.95117 0.0
H429 H 0.79282 0.36652 0.18105 0.0
O430 O 0.77375 0.68027 0.94899 0.0
H431 H 0.98292 0.63067 0.87581 0.0
H432 H 0.83589 0.77338 0.90943 0.0
H433 H 0.97189 0.2789 -0.00805 0.0
H434 H 0.6037 0.49648 0.15982 0.0
H435 H 0.92214 0.21008 0.11297 0.0
H436 H 0.56478 0.41355 0.04739 0.0
O437 O 0.93648 0.49878 0.07663 0.0
H438 H 0.76579 0.75414 0.26288 0.0
H439 H 0.95473 0.73789 0.05325 0.0
H440 H 0.95293 0.82422 0.17172 0.0
H441 H 0.85912 0.8315 0.2798 0.0
H442 H 0.76819 0.67154 0.13886 0.0
H443 H 0.90163 0.8543 0.82509 0.0
H444 H 0.01196 0.82298 0.76839 0.0
O445 O 0.94631 0.60225 0.02638 0.0
C446 C 0.85075 0.51822 0.86485 0.0
C447 C 1.0044 0.72439 0.81935 0.0
C448 C 0.9204 0.80562 0.8375 0.0
N449 N 0.90682 0.69911 0.90519 0.0
C450 C 0.9654 0.68013 0.86788 0.0
C451 C 0.88312 0.7599 0.88617 0.0
C452 C 0.98217 0.78806 0.80574 0.0
C453 C 0.70457 0.48743 0.11824 0.0
N454 N 0.74793 0.45742 0.06012 0.0
C455 C 0.638 0.47245 0.11409 0.0
C456 C 0.61606 0.42609 0.05052 0.0
C457 C 0.66051 0.39591 -0.00883 0.0
C458 C 0.72666 0.41239 -0.00318 0.0
C459 C 0.85393 0.28429 0.15472 0.0
C460 C 0.9107 0.36194 0.01958 0.0
C461 C 0.83222 0.3478 0.13876 0.0
N462 N 0.86184 0.38648 0.07363 0.0
C463 C 0.93186 0.29769 0.03182 0.0
C464 C 0.90411 0.25906 0.10068 0.0
C465 C 0.97069 0.54929 0.05756 0.0
C466 C 0.80769 0.75087 0.21732 0.0
C467 C 0.91387 0.74079 0.09963 0.0
C468 C 0.9128 0.78994 0.16655 0.0
C469 C 0.85971 0.79439 0.22654 0.0
N470 N 0.86246 0.69896 0.08971 0.0
C471 C 0.80967 0.70361 0.14751 0.0
loop_
_geom_bond_atom_site_label_1
_geom_bond_atom_site_label_2
_geom_bond_distance
_geom_bond_site_symmetry_2
_ccdc_geom_bond_type
Co0 O2 2.143 . S
Co0 O8 2.074 . S
Co0 O11 2.093 . S
Co0 O24 2.097 . S
Co0 N41 2.151 . S
Co0 N49 2.214 . S
Co1 O2 2.160 . S
Co1 O7 2.058 . S
Co1 O17 2.057 . S
Co1 O32 2.037 . S
Co1 N36 2.145 . S
Co1 N57 2.257 . S
O2 Co0 2.143 . S
O2 Co1 2.160 . S
C3 O4 1.278 . S
C3 O11 1.224 . S
O4 C3 1.278 . S
C5 O6 1.245 . S
C5 O17 1.232 . S
O6 C5 1.245 . S
O7 Co1 2.058 . S
O7 C33 1.269 . S
O8 Co0 2.074 . S
O8 C33 1.257 . S
H9 C34 0.930 1_565 S
H10 C40 0.930 . S
O11 Co0 2.093 . S
O11 C3 1.224 . S
H12 C44 0.929 . S
H13 C46 0.930 . S
H14 C47 0.930 . S
H15 C45 0.929 . S
H16 C48 0.928 . S
O17 Co1 2.057 . S
O17 C5 1.232 . S
H18 C37 0.929 . S
H19 C38 0.929 . S
H20 C50 0.931 1_565 S
H21 C42 0.929 . S
H22 C51 0.930 . S
H23 C43 0.931 . S
O24 Co0 2.097 . S
O24 C52 1.214 . S
H25 C53 0.929 . S
H26 C54 0.929 . S
H27 C55 0.930 . S
H28 C56 0.929 . S
H29 C58 0.930 . S
H30 C35 0.930 . S
H31 C39 0.930 . S
O32 Co1 2.037 . S
O32 C52 1.234 . S
C33 O7 1.269 . S
C33 O8 1.257 . S
C34 H9 0.930 1_545 S
C34 C37 1.388 . S
C34 C39 1.418 . S
C35 H30 0.930 . S
C35 C38 1.404 . S
C35 C39 1.353 . S
N36 Co1 2.145 . S
N36 C37 1.397 . S
N36 C38 1.334 . S
C37 H18 0.929 . S
C37 C34 1.388 . S
C37 N36 1.397 . S
C38 H19 0.929 . S
C38 C35 1.404 . S
C38 N36 1.334 . S
C39 H31 0.930 . S
C39 C34 1.418 . S
C39 C35 1.353 . S
C40 H10 0.930 . S
C40 N41 1.330 . S
C40 C42 1.446 . S
N41 Co0 2.151 . S
N41 C40 1.330 . S
N41 C45 1.418 . S
C42 H21 0.929 . S
C42 C40 1.446 . S
C42 C43 1.332 . S
C43 H23 0.931 . S
C43 C42 1.332 . S
C43 C44 1.267 . S
C44 H12 0.929 . S
C44 C43 1.267 . S
C44 C45 1.251 . S
C45 H15 0.929 . S
C45 N41 1.418 . S
C45 C44 1.251 . S
C46 H13 0.930 . S
C46 C48 1.406 . S
C46 C51 1.261 . S
C47 H14 0.930 . S
C47 N49 1.325 . S
C47 C50 1.357 . S
C48 H16 0.928 . S
C48 C46 1.406 . S
C48 N49 1.261 . S
N49 Co0 2.214 . S
N49 C47 1.325 . S
N49 C48 1.261 . S
C50 H20 0.931 1_545 S
C50 C47 1.357 . S
C50 C51 1.312 . S
C51 H22 0.930 . S
C51 C46 1.261 . S
C51 C50 1.312 . S
C52 O24 1.214 . S
C52 O32 1.234 . S
C53 H25 0.929 . S
C53 C56 1.391 . S
C53 C58 1.391 . S
C54 H26 0.929 . S
C54 C55 1.390 . S
C54 N57 1.391 . S
C55 H27 0.930 . S
C55 C54 1.390 . S
C55 C56 1.392 . S
C56 H28 0.929 . S
C56 C53 1.391 . S
C56 C55 1.392 . S
N57 Co1 2.257 . S
N57 C54 1.391 . S
N57 C58 1.388 . S
C58 H29 0.930 . S
C58 C53 1.391 . S
C58 N57 1.388 . S
Co59 O61 2.143 . S
Co59 O67 2.074 . S
Co59 O70 2.093 . S
Co59 O83 2.097 . S
Co59 N100 2.151 . S
Co59 N108 2.214 . S
Co60 O61 2.160 . S
Co60 O66 2.058 . S
Co60 O76 2.057 . S
Co60 O91 2.037 . S
Co60 N95 2.145 . S
Co60 N116 2.257 . S
O61 Co59 2.143 . S
O61 Co60 2.160 . S
C62 O63 1.278 . S
C62 O70 1.224 . S
O63 C62 1.278 . S
C64 O65 1.245 . S
C64 O76 1.232 . S
O65 C64 1.245 . S
O66 Co60 2.058 . S
O66 C92 1.269 . S
O67 Co59 2.074 . S
O67 C92 1.257 . S
H68 C93 0.930 1_455 S
H69 C99 0.930 . S
O70 Co59 2.093 . S
O70 C62 1.224 . S
H71 C103 0.929 . S
H72 C105 0.930 . S
H73 C106 0.930 . S
H74 C104 0.929 . S
H75 C107 0.928 . S
O76 Co60 2.057 . S
O76 C64 1.232 . S
H77 C96 0.929 . S
H78 C97 0.929 . S
H79 C109 0.931 1_455 S
H80 C101 0.929 . S
H81 C110 0.930 . S
H82 C102 0.931 . S
O83 Co59 2.097 . S
O83 C111 1.214 . S
H84 C112 0.929 . S
H85 C113 0.929 . S
H86 C114 0.930 . S
H87 C115 0.929 . S
H88 C117 0.930 . S
H89 C94 0.930 . S
H90 C98 0.930 . S
O91 Co60 2.037 . S
O91 C111 1.234 . S
C92 O66 1.269 . S
C92 O67 1.257 . S
C93 H68 0.930 1_655 S
C93 C96 1.388 . S
C93 C98 1.418 . S
C94 H89 0.930 . S
C94 C97 1.404 . S
C94 C98 1.353 . S
N95 Co60 2.145 . S
N95 C96 1.397 . S
N95 C97 1.334 . S
C96 H77 0.929 . S
C96 C93 1.388 . S
C96 N95 1.397 . S
C97 H78 0.929 . S
C97 C94 1.404 . S
C97 N95 1.334 . S
C98 H90 0.930 . S
C98 C93 1.418 . S
C98 C94 1.353 . S
C99 H69 0.930 . S
C99 N100 1.330 . S
C99 C101 1.446 . S
N100 Co59 2.151 . S
N100 C99 1.330 . S
N100 C104 1.418 . S
C101 H80 0.929 . S
C101 C99 1.446 . S
C101 C102 1.332 . S
C102 H82 0.931 . S
C102 C101 1.332 . S
C102 C103 1.267 . S
C103 H71 0.929 . S
C103 C102 1.267 . S
C103 C104 1.251 . S
C104 H74 0.929 . S
C104 N100 1.418 . S
C104 C103 1.251 . S
C105 H72 0.930 . S
C105 C107 1.406 . S
C105 C110 1.261 . S
C106 H73 0.930 . S
C106 N108 1.325 . S
C106 C109 1.357 . S
C107 H75 0.928 . S
C107 C105 1.406 . S
C107 N108 1.261 . S
N108 Co59 2.214 . S
N108 C106 1.325 . S
N108 C107 1.261 . S
C109 H79 0.931 1_655 S
C109 C106 1.357 . S
C109 C110 1.312 . S
C110 H81 0.930 . S
C110 C105 1.261 . S
C110 C109 1.312 . S
C111 O83 1.214 . S
C111 O91 1.234 . S
C112 H84 0.929 . S
C112 C115 1.391 . S
C112 C117 1.391 . S
C113 H85 0.929 . S
C113 C114 1.390 . S
C113 N116 1.391 . S
C114 H86 0.930 . S
C114 C113 1.390 . S
C114 C115 1.392 . S
C115 H87 0.929 . S
C115 C112 1.391 . S
C115 C114 1.392 . S
N116 Co60 2.257 . S
N116 C113 1.391 . S
N116 C117 1.388 . S
C117 H88 0.930 . S
C117 C112 1.391 . S
C117 N116 1.388 . S
Co118 O120 2.143 . S
Co118 O126 2.074 . S
Co118 O129 2.093 . S
Co118 O142 2.097 . S
Co118 N159 2.151 . S
Co118 N167 2.214 . S
Co119 O120 2.160 . S
Co119 O125 2.058 1_556 S
Co119 O135 2.057 . S
Co119 O150 2.037 . S
Co119 N154 2.145 1_556 S
Co119 N175 2.257 . S
O120 Co118 2.143 . S
O120 Co119 2.160 . S
C121 O122 1.278 . S
C121 O129 1.224 . S
O122 C121 1.278 . S
C123 O124 1.245 . S
C123 O135 1.232 . S
O124 C123 1.245 . S
O125 Co119 2.058 1_554 S
O125 C151 1.269 . S
O126 Co118 2.074 . S
O126 C151 1.257 1_556 S
H127 C152 0.930 1_545 S
H128 C158 0.930 . S
O129 Co118 2.093 . S
O129 C121 1.224 . S
H130 C162 0.929 . S
H131 C164 0.930 . S
H132 C165 0.930 . S
H133 C163 0.929 . S
H134 C166 0.928 . S
O135 Co119 2.057 . S
O135 C123 1.232 . S
H136 C155 0.929 . S
H137 C156 0.929 . S
H138 C168 0.931 1_545 S
H139 C160 0.929 . S
H140 C169 0.930 . S
H141 C161 0.931 . S
O142 Co118 2.097 . S
O142 C170 1.214 . S
H143 C171 0.929 . S
H144 C172 0.929 . S
H145 C173 0.930 . S
H146 C174 0.929 . S
H147 C176 0.930 . S
H148 C153 0.930 . S
H149 C157 0.930 . S
O150 Co119 2.037 . S
O150 C170 1.234 . S
C151 O125 1.269 . S
C151 O126 1.257 1_554 S
C152 H127 0.930 1_565 S
C152 C155 1.388 . S
C152 C157 1.418 . S
C153 H148 0.930 . S
C153 C156 1.404 . S
C153 C157 1.353 . S
N154 Co119 2.145 1_554 S
N154 C155 1.397 . S
N154 C156 1.334 . S
C155 H136 0.929 . S
C155 C152 1.388 . S
C155 N154 1.397 . S
C156 H137 0.929 . S
C156 C153 1.404 . S
C156 N154 1.334 . S
C157 H149 0.930 . S
C157 C152 1.418 . S
C157 C153 1.353 . S
C158 H128 0.930 . S
C158 N159 1.330 . S
C158 C160 1.446 . S
N159 Co118 2.151 . S
N159 C158 1.330 . S
N159 C163 1.418 . S
C160 H139 0.929 . S
C160 C158 1.446 . S
C160 C161 1.332 . S
C161 H141 0.931 . S
C161 C160 1.332 . S
C161 C162 1.267 . S
C162 H130 0.929 . S
C162 C161 1.267 . S
C162 C163 1.251 . S
C163 H133 0.929 . S
C163 N159 1.418 . S
C163 C162 1.251 . S
C164 H131 0.930 . S
C164 C166 1.406 . S
C164 C169 1.261 . S
C165 H132 0.930 . S
C165 N167 1.325 . S
C165 C168 1.357 . S
C166 H134 0.928 . S
C166 C164 1.406 . S
C166 N167 1.261 . S
N167 Co118 2.214 . S
N167 C165 1.325 . S
N167 C166 1.261 . S
C168 H138 0.931 1_565 S
C168 C165 1.357 . S
C168 C169 1.312 . S
C169 H140 0.930 . S
C169 C164 1.261 . S
C169 C168 1.312 . S
C170 O142 1.214 . S
C170 O150 1.234 . S
C171 H143 0.929 . S
C171 C174 1.391 . S
C171 C176 1.391 . S
C172 H144 0.929 . S
C172 C173 1.390 . S
C172 N175 1.391 . S
C173 H145 0.930 . S
C173 C172 1.390 . S
C173 C174 1.392 . S
C174 H146 0.929 . S
C174 C171 1.391 . S
C174 C173 1.392 . S
N175 Co119 2.257 . S
N175 C172 1.391 . S
N175 C176 1.388 . S
C176 H147 0.930 . S
C176 C171 1.391 . S
C176 N175 1.388 . S
Co177 O179 2.143 . S
Co177 O185 2.074 . S
Co177 O188 2.093 1_554 S
Co177 O201 2.097 . S
Co177 N218 2.151 . S
Co177 N226 2.214 . S
Co178 O179 2.160 . S
Co178 O184 2.058 . S
Co178 O194 2.057 . S
Co178 O209 2.037 . S
Co178 N213 2.145 . S
Co178 N234 2.257 . S
O179 Co177 2.143 . S
O179 Co178 2.160 . S
C180 O181 1.278 . S
C180 O188 1.224 . S
O181 C180 1.278 . S
C182 O183 1.245 . S
C182 O194 1.232 . S
O183 C182 1.245 . S
O184 Co178 2.058 . S
O184 C210 1.269 . S
O185 Co177 2.074 . S
O185 C210 1.257 . S
H186 C211 0.930 1_655 S
H187 C217 0.930 1_556 S
O188 Co177 2.093 1_556 S
O188 C180 1.224 . S
H189 C221 0.929 . S
H190 C223 0.930 1_556 S
H191 C224 0.930 . S
H192 C222 0.929 . S
H193 C225 0.928 1_556 S
O194 Co178 2.057 . S
O194 C182 1.232 . S
H195 C214 0.929 . S
H196 C215 0.929 . S
H197 C227 0.931 1_655 S
H198 C219 0.929 1_556 S
H199 C228 0.930 . S
H200 C220 0.931 . S
O201 Co177 2.097 . S
O201 C229 1.214 . S
H202 C230 0.929 . S
H203 C231 0.929 . S
H204 C232 0.930 . S
H205 C233 0.929 . S
H206 C235 0.930 1_554 S
H207 C212 0.930 . S
H208 C216 0.930 . S
O209 Co178 2.037 . S
O209 C229 1.234 . S
C210 O184 1.269 . S
C210 O185 1.257 . S
C211 H186 0.930 1_455 S
C211 C214 1.388 . S
C211 C216 1.418 . S
C212 H207 0.930 . S
C212 C215 1.404 . S
C212 C216 1.353 . S
N213 Co178 2.145 . S
N213 C214 1.397 . S
N213 C215 1.334 . S
C214 H195 0.929 . S
C214 C211 1.388 . S
C214 N213 1.397 . S
C215 H196 0.929 . S
C215 C212 1.404 . S
C215 N213 1.334 . S
C216 H208 0.930 . S
C216 C211 1.418 . S
C216 C212 1.353 . S
C217 H187 0.930 1_554 S
C217 N218 1.330 . S
C217 C219 1.446 . S
N218 Co177 2.151 . S
N218 C217 1.330 . S
N218 C222 1.418 . S
C219 H198 0.929 1_554 S
C219 C217 1.446 . S
C219 C220 1.332 . S
C220 H200 0.931 . S
C220 C219 1.332 . S
C220 C221 1.267 . S
C221 H189 0.929 . S
C221 C220 1.267 . S
C221 C222 1.251 . S
C222 H192 0.929 . S
C222 N218 1.418 . S
C222 C221 1.251 . S
C223 H190 0.930 1_554 S
C223 C225 1.406 . S
C223 C228 1.261 . S
C224 H191 0.930 . S
C224 N226 1.325 . S
C224 C227 1.357 . S
C225 H193 0.928 1_554 S
C225 C223 1.406 . S
C225 N226 1.261 . S
N226 Co177 2.214 . S
N226 C224 1.325 . S
N226 C225 1.261 . S
C227 H197 0.931 1_455 S
C227 C224 1.357 . S
C227 C228 1.312 . S
C228 H199 0.930 . S
C228 C223 1.261 . S
C228 C227 1.312 . S
C229 O201 1.214 . S
C229 O209 1.234 . S
C230 H202 0.929 . S
C230 C233 1.391 . S
C230 C235 1.391 . S
C231 H203 0.929 . S
C231 C232 1.390 1_554 S
C231 N234 1.391 . S
C232 H204 0.930 . S
C232 C231 1.390 1_556 S
C232 C233 1.392 . S
C233 H205 0.929 . S
C233 C230 1.391 . S
C233 C232 1.392 . S
N234 Co178 2.257 . S
N234 C231 1.391 . S
N234 C235 1.388 1_554 S
C235 H206 0.930 1_556 S
C235 C230 1.391 . S
C235 N234 1.388 1_556 S
Co236 O238 2.143 . S
Co236 O244 2.074 . S
Co236 O247 2.093 . S
Co236 O260 2.097 . S
Co236 N277 2.151 . S
Co236 N285 2.214 . S
Co237 O238 2.160 . S
Co237 O243 2.058 . S
Co237 O253 2.057 . S
Co237 O268 2.037 . S
Co237 N272 2.145 . S
Co237 N293 2.257 . S
O238 Co236 2.143 . S
O238 Co237 2.160 . S
C239 O240 1.278 . S
C239 O247 1.224 . S
O240 C239 1.278 . S
C241 O242 1.245 . S
C241 O253 1.232 . S
O242 C241 1.245 . S
O243 Co237 2.058 . S
O243 C269 1.269 . S
O244 Co236 2.074 . S
O244 C269 1.257 . S
H245 C270 0.930 1_546 S
H246 C276 0.930 . S
O247 Co236 2.093 . S
O247 C239 1.224 . S
H248 C280 0.929 . S
H249 C282 0.930 . S
H250 C283 0.930 . S
H251 C281 0.929 . S
H252 C284 0.928 . S
O253 Co237 2.057 . S
O253 C241 1.232 . S
H254 C273 0.929 . S
H255 C274 0.929 . S
H256 C286 0.931 1_545 S
H257 C278 0.929 . S
H258 C287 0.930 . S
H259 C279 0.931 . S
O260 Co236 2.097 . S
O260 C288 1.214 . S
H261 C289 0.929 . S
H262 C290 0.929 . S
H263 C291 0.930 . S
H264 C292 0.929 . S
H265 C294 0.930 . S
H266 C271 0.930 . S
H267 C275 0.930 1_556 S
O268 Co237 2.037 . S
O268 C288 1.234 . S
C269 O243 1.269 . S
C269 O244 1.257 . S
C270 H245 0.930 1_564 S
C270 C273 1.388 . S
C270 C275 1.418 . S
C271 H266 0.930 . S
C271 C274 1.404 . S
C271 C275 1.353 . S
N272 Co237 2.145 . S
N272 C273 1.397 . S
N272 C274 1.334 . S
C273 H254 0.929 . S
C273 C270 1.388 . S
C273 N272 1.397 . S
C274 H255 0.929 . S
C274 C271 1.404 . S
C274 N272 1.334 . S
C275 H267 0.930 1_554 S
C275 C270 1.418 . S
C275 C271 1.353 . S
C276 H246 0.930 . S
C276 N277 1.330 . S
C276 C278 1.446 . S
N277 Co236 2.151 . S
N277 C276 1.330 . S
N277 C281 1.418 . S
C278 H257 0.929 . S
C278 C276 1.446 . S
C278 C279 1.332 . S
C279 H259 0.931 . S
C279 C278 1.332 . S
C279 C280 1.267 . S
C280 H248 0.929 . S
C280 C279 1.267 . S
C280 C281 1.251 . S
C281 H251 0.929 . S
C281 N277 1.418 . S
C281 C280 1.251 . S
C282 H249 0.930 . S
C282 C284 1.406 . S
C282 C287 1.261 . S
C283 H250 0.930 . S
C283 N285 1.325 . S
C283 C286 1.357 . S
C284 H252 0.928 . S
C284 C282 1.406 . S
C284 N285 1.261 . S
N285 Co236 2.214 . S
N285 C283 1.325 . S
N285 C284 1.261 . S
C286 H256 0.931 1_565 S
C286 C283 1.357 . S
C286 C287 1.312 . S
C287 H258 0.930 . S
C287 C282 1.261 . S
C287 C286 1.312 . S
C288 O260 1.214 . S
C288 O268 1.234 . S
C289 H261 0.929 . S
C289 C292 1.391 . S
C289 C294 1.391 . S
C290 H262 0.929 . S
C290 C291 1.390 . S
C290 N293 1.391 . S
C291 H263 0.930 . S
C291 C290 1.390 . S
C291 C292 1.392 . S
C292 H264 0.929 . S
C292 C289 1.391 . S
C292 C291 1.392 . S
N293 Co237 2.257 . S
N293 C290 1.391 . S
N293 C294 1.388 . S
C294 H265 0.930 . S
C294 C289 1.391 . S
C294 N293 1.388 . S
Co295 O297 2.143 . S
Co295 O303 2.074 . S
Co295 O306 2.093 . S
Co295 O319 2.097 . S
Co295 N336 2.151 . S
Co295 N344 2.214 . S
Co296 O297 2.160 . S
Co296 O302 2.058 . S
Co296 O312 2.057 . S
Co296 O327 2.037 . S
Co296 N331 2.145 . S
Co296 N352 2.257 . S
O297 Co295 2.143 . S
O297 Co296 2.160 . S
C298 O299 1.278 . S
C298 O306 1.224 . S
O299 C298 1.278 . S
C300 O301 1.245 . S
C300 O312 1.232 . S
O301 C300 1.245 . S
O302 Co296 2.058 . S
O302 C328 1.269 . S
O303 Co295 2.074 . S
O303 C328 1.257 . S
H304 C329 0.930 1_655 S
H305 C335 0.930 . S
O306 Co295 2.093 . S
O306 C298 1.224 . S
H307 C339 0.929 . S
H308 C341 0.930 . S
H309 C342 0.930 . S
H310 C340 0.929 . S
H311 C343 0.928 . S
O312 Co296 2.057 . S
O312 C300 1.232 . S
H313 C332 0.929 . S
H314 C333 0.929 . S
H315 C345 0.931 1_655 S
H316 C337 0.929 . S
H317 C346 0.930 . S
H318 C338 0.931 . S
O319 Co295 2.097 . S
O319 C347 1.214 . S
H320 C348 0.929 . S
H321 C349 0.929 . S
H322 C350 0.930 . S
H323 C351 0.929 . S
H324 C353 0.930 . S
H325 C330 0.930 . S
H326 C334 0.930 . S
O327 Co296 2.037 . S
O327 C347 1.234 . S
C328 O302 1.269 . S
C328 O303 1.257 . S
C329 H304 0.930 1_455 S
C329 C332 1.388 . S
C329 C334 1.418 . S
C330 H325 0.930 . S
C330 C333 1.404 . S
C330 C334 1.353 . S
N331 Co296 2.145 . S
N331 C332 1.397 . S
N331 C333 1.334 . S
C332 H313 0.929 . S
C332 C329 1.388 . S
C332 N331 1.397 . S
C333 H314 0.929 . S
C333 C330 1.404 . S
C333 N331 1.334 . S
C334 H326 0.930 . S
C334 C329 1.418 . S
C334 C330 1.353 . S
C335 H305 0.930 . S
C335 N336 1.330 . S
C335 C337 1.446 . S
N336 Co295 2.151 . S
N336 C335 1.330 . S
N336 C340 1.418 . S
C337 H316 0.929 . S
C337 C335 1.446 . S
C337 C338 1.332 . S
C338 H318 0.931 . S
C338 C337 1.332 . S
C338 C339 1.267 . S
C339 H307 0.929 . S
C339 C338 1.267 . S
C339 C340 1.251 . S
C340 H310 0.929 . S
C340 N336 1.418 . S
C340 C339 1.251 . S
C341 H308 0.930 . S
C341 C343 1.406 . S
C341 C346 1.261 . S
C342 H309 0.930 . S
C342 N344 1.325 . S
C342 C345 1.357 . S
C343 H311 0.928 . S
C343 C341 1.406 . S
C343 N344 1.261 . S
N344 Co295 2.214 . S
N344 C342 1.325 . S
N344 C343 1.261 . S
C345 H315 0.931 1_455 S
C345 C342 1.357 . S
C345 C346 1.312 . S
C346 H317 0.930 . S
C346 C341 1.261 . S
C346 C345 1.312 . S
C347 O319 1.214 . S
C347 O327 1.234 . S
C348 H320 0.929 . S
C348 C351 1.391 . S
C348 C353 1.391 . S
C349 H321 0.929 . S
C349 C350 1.390 . S
C349 N352 1.391 . S
C350 H322 0.930 . S
C350 C349 1.390 . S
C350 C351 1.392 . S
C351 H323 0.929 . S
C351 C348 1.391 . S
C351 C350 1.392 . S
N352 Co296 2.257 . S
N352 C349 1.391 . S
N352 C353 1.388 . S
C353 H324 0.930 . S
C353 C348 1.391 . S
C353 N352 1.388 . S
Co354 O356 2.143 . S
Co354 O362 2.074 . S
Co354 O365 2.093 . S
Co354 O378 2.097 . S
Co354 N395 2.151 . S
Co354 N403 2.214 . S
Co355 O356 2.160 . S
Co355 O361 2.058 . S
Co355 O371 2.057 . S
Co355 O386 2.037 . S
Co355 N390 2.145 . S
Co355 N411 2.257 . S
O356 Co354 2.143 . S
O356 Co355 2.160 . S
C357 O358 1.278 . S
C357 O365 1.224 1_554 S
O358 C357 1.278 . S
C359 O360 1.245 . S
C359 O371 1.232 . S
O360 C359 1.245 . S
O361 Co355 2.058 . S
O361 C387 1.269 . S
O362 Co354 2.074 . S
O362 C387 1.257 . S
H363 C388 0.930 1_565 S
H364 C394 0.930 . S
O365 Co354 2.093 . S
O365 C357 1.224 1_556 S
H366 C398 0.929 . S
H367 C400 0.930 . S
H368 C401 0.930 . S
H369 C399 0.929 . S
H370 C402 0.928 . S
O371 Co355 2.057 . S
O371 C359 1.232 . S
H372 C391 0.929 . S
H373 C392 0.929 . S
H374 C404 0.931 1_565 S
H375 C396 0.929 . S
H376 C405 0.930 . S
H377 C397 0.931 . S
O378 Co354 2.097 . S
O378 C406 1.214 . S
H379 C407 0.929 . S
H380 C408 0.929 . S
H381 C409 0.930 . S
H382 C410 0.929 . S
H383 C412 0.930 . S
H384 C389 0.930 . S
H385 C393 0.930 . S
O386 Co355 2.037 . S
O386 C406 1.234 . S
C387 O361 1.269 . S
C387 O362 1.257 . S
C388 H363 0.930 1_545 S
C388 C391 1.388 . S
C388 C393 1.418 . S
C389 H384 0.930 . S
C389 C392 1.404 . S
C389 C393 1.353 . S
N390 Co355 2.145 . S
N390 C391 1.397 . S
N390 C392 1.334 . S
C391 H372 0.929 . S
C391 C388 1.388 . S
C391 N390 1.397 . S
C392 H373 0.929 . S
C392 C389 1.404 . S
C392 N390 1.334 . S
C393 H385 0.930 . S
C393 C388 1.418 . S
C393 C389 1.353 . S
C394 H364 0.930 . S
C394 N395 1.330 . S
C394 C396 1.446 . S
N395 Co354 2.151 . S
N395 C394 1.330 . S
N395 C399 1.418 . S
C396 H375 0.929 . S
C396 C394 1.446 . S
C396 C397 1.332 . S
C397 H377 0.931 . S
C397 C396 1.332 . S
C397 C398 1.267 . S
C398 H366 0.929 . S
C398 C397 1.267 . S
C398 C399 1.251 . S
C399 H369 0.929 . S
C399 N395 1.418 . S
C399 C398 1.251 . S
C400 H367 0.930 . S
C400 C402 1.406 . S
C400 C405 1.261 . S
C401 H368 0.930 . S
C401 N403 1.325 . S
C401 C404 1.357 . S
C402 H370 0.928 . S
C402 C400 1.406 . S
C402 N403 1.261 . S
N403 Co354 2.214 . S
N403 C401 1.325 . S
N403 C402 1.261 . S
C404 H374 0.931 1_545 S
C404 C401 1.357 . S
C404 C405 1.312 . S
C405 H376 0.930 . S
C405 C400 1.261 . S
C405 C404 1.312 . S
C406 O378 1.214 . S
C406 O386 1.234 . S
C407 H379 0.929 . S
C407 C410 1.391 . S
C407 C412 1.391 1_554 S
C408 H380 0.929 . S
C408 C409 1.390 . S
C408 N411 1.391 . S
C409 H381 0.930 . S
C409 C408 1.390 . S
C409 C410 1.392 1_556 S
C410 H382 0.929 . S
C410 C407 1.391 . S
C410 C409 1.392 1_554 S
N411 Co355 2.257 . S
N411 C408 1.391 . S
N411 C412 1.388 . S
C412 H383 0.930 . S
C412 C407 1.391 1_556 S
C412 N411 1.388 . S
Co413 O415 2.143 . S
Co413 O421 2.074 1_554 S
Co413 O424 2.093 . S
Co413 O437 2.097 . S
Co413 N454 2.151 . S
Co413 N462 2.214 . S
Co414 O415 2.160 1_556 S
Co414 O420 2.058 . S
Co414 O430 2.057 . S
Co414 O445 2.037 1_556 S
Co414 N449 2.145 . S
Co414 N470 2.257 1_556 S
O415 Co413 2.143 . S
O415 Co414 2.160 1_554 S
C416 O417 1.278 . S
C416 O424 1.224 . S
O417 C416 1.278 . S
C418 O419 1.245 . S
C418 O430 1.232 1_554 S
O419 C418 1.245 . S
O420 Co414 2.058 . S
O420 C446 1.269 . S
O421 Co413 2.074 1_556 S
O421 C446 1.257 . S
H422 C447 0.930 1_455 S
H423 C453 0.930 . S
O424 Co413 2.093 . S
O424 C416 1.224 . S
H425 C457 0.929 1_556 S
H426 C459 0.930 . S
H427 C460 0.930 . S
H428 C458 0.929 1_556 S
H429 C461 0.928 . S
O430 Co414 2.057 . S
O430 C418 1.232 1_556 S
H431 C450 0.929 . S
H432 C451 0.929 . S
H433 C463 0.931 1_456 S
H434 C455 0.929 . S
H435 C464 0.930 . S
H436 C456 0.931 . S
O437 Co413 2.097 . S
O437 C465 1.214 . S
H438 C466 0.929 . S
H439 C467 0.929 . S
H440 C468 0.930 . S
H441 C469 0.929 . S
H442 C471 0.930 . S
H443 C448 0.930 . S
H444 C452 0.930 . S
O445 Co414 2.037 1_554 S
O445 C465 1.234 . S
C446 O420 1.269 . S
C446 O421 1.257 . S
C447 H422 0.930 1_655 S
C447 C450 1.388 . S
C447 C452 1.418 . S
C448 H443 0.930 . S
C448 C451 1.404 . S
C448 C452 1.353 . S
N449 Co414 2.145 . S
N449 C450 1.397 . S
N449 C451 1.334 . S
C450 H431 0.929 . S
C450 C447 1.388 . S
C450 N449 1.397 . S
C451 H432 0.929 . S
C451 C448 1.404 . S
C451 N449 1.334 . S
C452 H444 0.930 . S
C452 C447 1.418 . S
C452 C448 1.353 . S
C453 H423 0.930 . S
C453 N454 1.330 . S
C453 C455 1.446 . S
N454 Co413 2.151 . S
N454 C453 1.330 . S
N454 C458 1.418 . S
C455 H434 0.929 . S
C455 C453 1.446 . S
C455 C456 1.332 . S
C456 H436 0.931 . S
C456 C455 1.332 . S
C456 C457 1.267 . S
C457 H425 0.929 1_554 S
C457 C456 1.267 . S
C457 C458 1.251 . S
C458 H428 0.929 1_554 S
C458 N454 1.418 . S
C458 C457 1.251 . S
C459 H426 0.930 . S
C459 C461 1.406 . S
C459 C464 1.261 . S
C460 H427 0.930 . S
C460 N462 1.325 . S
C460 C463 1.357 . S
C461 H429 0.928 . S
C461 C459 1.406 . S
C461 N462 1.261 . S
N462 Co413 2.214 . S
N462 C460 1.325 . S
N462 C461 1.261 . S
C463 H433 0.931 1_654 S
C463 C460 1.357 . S
C463 C464 1.312 . S
C464 H435 0.930 . S
C464 C459 1.261 . S
C464 C463 1.312 . S
C465 O437 1.214 . S
C465 O445 1.234 . S
C466 H438 0.929 . S
C466 C469 1.391 . S
C466 C471 1.391 . S
C467 H439 0.929 . S
C467 C468 1.390 . S
C467 N470 1.391 . S
C468 H440 0.930 . S
C468 C467 1.390 . S
C468 C469 1.392 . S
C469 H441 0.929 . S
C469 C466 1.391 . S
C469 C468 1.392 . S
N470 Co414 2.257 1_554 S
N470 C467 1.391 . S
N470 C471 1.388 . S
C471 H442 0.930 . S
C471 C466 1.391 . S
C471 N470 1.388 . S
C33 C387 1.075 . S
C92 C446 1.075 . S
C269 C151 1.075 . S
C328 C210 1.075 . S
C5 C300 1.733 . S
C64 C359 1.733 . S
C418 C123 1.733 1_554 S
C182 C241 1.733 . S
C288 C52 1.719 1_565 S
C111 C347 1.719 1_655 S
C170 C406 1.719 1_565 S
C465 C229 1.720 1_655 S
C357 C3 1.233 . S
C416 C62 1.233 . S
C121 C239 1.233 . S
C180 C298 1.233 . S
