# Generated by pormake.
# Topology vbm, (6)-cn, num edge types: 1
# Building blocks:
#     Node 0, Type 0, BuildingBlock: BETFAJ_clean_sbu_0, # of connection points: 6
#     Node 1, Type 0, BuildingBlock: BETFAJ_clean_sbu_0, # of connection points: 6
#     Node 2, Type 0, BuildingBlock: BETFAJ_clean_sbu_0, # of connection points: 6
#     Node 3, Type 0, BuildingBlock: BETFAJ_clean_sbu_0, # of connection points: 6
#     Node 4, Type 0, BuildingBlock: BETFAJ_clean_sbu_0, # of connection points: 6
#     Node 5, Type 0, BuildingBlock: BETFAJ_clean_sbu_0, # of connection points: 6
#     Node 6, Type 0, BuildingBlock: BETFAJ_clean_sbu_0, # of connection points: 6
#     Node 7, Type 0, BuildingBlock: BETFAJ_clean_sbu_0, # of connection points: 6
#     Node 8, Type 0, BuildingBlock: BETFAJ_clean_sbu_0, # of connection points: 6
#     Node 9, Type 0, BuildingBlock: BETFAJ_clean_sbu_0, # of connection points: 6
#     Node 10, Type 0, BuildingBlock: BETFAJ_clean_sbu_0, # of connection points: 6
#     Node 11, Type 0, BuildingBlock: BETFAJ_clean_sbu_0, # of connection points: 6
#     Node 12, Type 0, BuildingBlock: BETFAJ_clean_sbu_0, # of connection points: 6
#     Node 13, Type 0, BuildingBlock: BETFAJ_clean_sbu_0, # of connection points: 6
#     Node 14, Type 0, BuildingBlock: BETFAJ_clean_sbu_0, # of connection points: 6
#     Node 15, Type 0, BuildingBlock: BETFAJ_clean_sbu_0, # of connection points: 6
#     Edge 16, Type (0, 0), BuildingBlock: CIFDUS_clean_linker_0, # of connection points: 2
#     Edge 17, Type (0, 0), BuildingBlock: CIFDUS_clean_linker_0, # of connection points: 2
#     Edge 18, Type (0, 0), BuildingBlock: CIFDUS_clean_linker_0, # of connection points: 2
#     Edge 19, Type (0, 0), BuildingBlock: CIFDUS_clean_linker_0, # of connection points: 2
#     Edge 20, Type (0, 0), BuildingBlock: CIFDUS_clean_linker_0, # of connection points: 2
#     Edge 21, Type (0, 0), BuildingBlock: CIFDUS_clean_linker_0, # of connection points: 2
#     Edge 22, Type (0, 0), BuildingBlock: CIFDUS_clean_linker_0, # of connection points: 2
#     Edge 23, Type (0, 0), BuildingBlock: CIFDUS_clean_linker_0, # of connection points: 2
#     Edge 24, Type (0, 0), BuildingBlock: CIFDUS_clean_linker_0, # of connection points: 2
#     Edge 25, Type (0, 0), BuildingBlock: CIFDUS_clean_linker_0, # of connection points: 2
#     Edge 26, Type (0, 0), BuildingBlock: CIFDUS_clean_linker_0, # of connection points: 2
#     Edge 27, Type (0, 0), BuildingBlock: CIFDUS_clean_linker_0, # of connection points: 2
#     Edge 28, Type (0, 0), BuildingBlock: CIFDUS_clean_linker_0, # of connection points: 2
#     Edge 29, Type (0, 0), BuildingBlock: CIFDUS_clean_linker_0, # of connection points: 2
#     Edge 30, Type (0, 0), BuildingBlock: CIFDUS_clean_linker_0, # of connection points: 2
#     Edge 31, Type (0, 0), BuildingBlock: CIFDUS_clean_linker_0, # of connection points: 2
#     Edge 32, Type (0, 0), BuildingBlock: CIFDUS_clean_linker_0, # of connection points: 2
#     Edge 33, Type (0, 0), BuildingBlock: CIFDUS_clean_linker_0, # of connection points: 2
#     Edge 34, Type (0, 0), BuildingBlock: CIFDUS_clean_linker_0, # of connection points: 2
#     Edge 35, Type (0, 0), BuildingBlock: CIFDUS_clean_linker_0, # of connection points: 2
#     Edge 36, Type (0, 0), BuildingBlock: CIFDUS_clean_linker_0, # of connection points: 2
#     Edge 37, Type (0, 0), BuildingBlock: CIFDUS_clean_linker_0, # of connection points: 2
#     Edge 38, Type (0, 0), BuildingBlock: CIFDUS_clean_linker_0, # of connection points: 2
#     Edge 39, Type (0, 0), BuildingBlock: CIFDUS_clean_linker_0, # of connection points: 2
#     Edge 40, Type (0, 0), BuildingBlock: CIFDUS_clean_linker_0, # of connection points: 2
#     Edge 41, Type (0, 0), BuildingBlock: CIFDUS_clean_linker_0, # of connection points: 2
#     Edge 42, Type (0, 0), BuildingBlock: CIFDUS_clean_linker_0, # of connection points: 2
#     Edge 43, Type (0, 0), BuildingBlock: CIFDUS_clean_linker_0, # of connection points: 2
#     Edge 44, Type (0, 0), BuildingBlock: CIFDUS_clean_linker_0, # of connection points: 2
#     Edge 45, Type (0, 0), BuildingBlock: CIFDUS_clean_linker_0, # of connection points: 2
#     Edge 46, Type (0, 0), BuildingBlock: CIFDUS_clean_linker_0, # of connection points: 2
#     Edge 47, Type (0, 0), BuildingBlock: CIFDUS_clean_linker_0, # of connection points: 2
#     Edge 48, Type (0, 0), BuildingBlock: CIFDUS_clean_linker_0, # of connection points: 2
#     Edge 49, Type (0, 0), BuildingBlock: CIFDUS_clean_linker_0, # of connection points: 2
#     Edge 50, Type (0, 0), BuildingBlock: CIFDUS_clean_linker_0, # of connection points: 2
#     Edge 51, Type (0, 0), BuildingBlock: CIFDUS_clean_linker_0, # of connection points: 2
#     Edge 52, Type (0, 0), BuildingBlock: CIFDUS_clean_linker_0, # of connection points: 2
#     Edge 53, Type (0, 0), BuildingBlock: CIFDUS_clean_linker_0, # of connection points: 2
#     Edge 54, Type (0, 0), BuildingBlock: CIFDUS_clean_linker_0, # of connection points: 2
#     Edge 55, Type (0, 0), BuildingBlock: CIFDUS_clean_linker_0, # of connection points: 2
#     Edge 56, Type (0, 0), BuildingBlock: CIFDUS_clean_linker_0, # of connection points: 2
#     Edge 57, Type (0, 0), BuildingBlock: CIFDUS_clean_linker_0, # of connection points: 2
#     Edge 58, Type (0, 0), BuildingBlock: CIFDUS_clean_linker_0, # of connection points: 2
#     Edge 59, Type (0, 0), BuildingBlock: CIFDUS_clean_linker_0, # of connection points: 2
#     Edge 60, Type (0, 0), BuildingBlock: CIFDUS_clean_linker_0, # of connection points: 2
#     Edge 61, Type (0, 0), BuildingBlock: CIFDUS_clean_linker_0, # of connection points: 2
#     Edge 62, Type (0, 0), BuildingBlock: CIFDUS_clean_linker_0, # of connection points: 2
#     Edge 63, Type (0, 0), BuildingBlock: CIFDUS_clean_linker_0, # of connection points: 2
# Relax obj value: 0.066
# Max RMSD: 0.144
# Mean RMSD: 0.144
data_MOF--net-vbm--node1-BETFAJ_clean_sbu_0--edge1-CIFDUS_clean_linker_0
_symmetry_space_group_name_H-M    P1
_symmetry_Int_Tables_number       1
_symmetry_cell_setting            triclinic
loop_
_symmetry_equiv_pos_as_xyz
'x, y, z'
_cell_length_a     48.362291
_cell_length_b     23.938592
_cell_length_c     48.433158
_cell_angle_alpha  89.881397
_cell_angle_beta   89.78309
_cell_angle_gamma 90.038412
loop_
_atom_site_label
_atom_site_type_symbol
_atom_site_fract_x
_atom_site_fract_y
_atom_site_fract_z
_atom_type_partial_charge
Sm0 Sm 0.13915 0.05683 0.16285 0.0
Sm1 Sm 0.10894 0.17649 0.16188 0.0
C2 C 0.15508 0.95704 0.18009 0.0
C3 C 0.1496 0.89791 0.17333 0.0
C4 C 0.1228 0.87946 0.16696 0.0
C5 C 0.11775 0.82299 0.16158 0.0
C6 C 0.13941 0.78368 0.1622 0.0
C7 C 0.1663 0.80258 0.16822 0.0
C8 C 0.1713 0.85909 0.17377 0.0
C9 C 0.1348 0.09353 0.10881 0.0
C10 C 0.07177 0.06822 0.15038 0.0
C11 C 0.09158 0.28042 0.15381 0.0
C12 C 0.1012 0.33874 0.15467 0.0
C13 C 0.12942 0.35201 0.15605 0.0
C14 C 0.13793 0.40789 0.15776 0.0
C15 C 0.11832 0.45139 0.15791 0.0
C16 C 0.09009 0.43763 0.15623 0.0
C17 C 0.08165 0.38186 0.15468 0.0
C18 C 0.11022 0.11837 0.21125 0.0
C19 C 0.17679 0.16995 0.17017 0.0
O20 O 0.1346 0.98499 0.19129 0.0
O21 O 0.16913 0.98622 0.16185 0.0
O22 O 0.12594 0.11776 0.13019 0.0
O23 O 0.14681 0.04723 0.11592 0.0
O24 O 0.09226 0.03698 0.16002 0.0
O25 O 0.07458 0.12198 0.14513 0.0
O26 O 0.10139 0.24876 0.13404 0.0
O27 O 0.08962 0.25445 0.17753 0.0
O28 O 0.12957 0.12306 0.19401 0.0
O29 O 0.08868 0.14638 0.2031 0.0
O30 O 0.15474 0.20072 0.16472 0.0
O31 O 0.17588 0.11476 0.17255 0.0
H32 H 0.10567 0.90856 0.16642 0.0
H33 H 0.09671 0.81005 0.15743 0.0
H34 H 0.18356 0.77381 0.16847 0.0
H35 H 0.19215 0.87247 0.17854 0.0
H36 H 0.14478 0.31921 0.15586 0.0
H37 H 0.15984 0.41706 0.15879 0.0
H38 H 0.07443 0.46995 0.1567 0.0
H39 H 0.05976 0.37237 0.15374 0.0
Sm40 Sm 0.84456 0.99711 0.15755 0.0
Sm41 Sm 0.87414 0.8769 0.15755 0.0
C42 C 0.8271 0.09553 0.1753 0.0
C43 C 0.83126 0.15521 0.16921 0.0
C44 C 0.81445 0.19505 0.18213 0.0
C45 C 0.81858 0.25208 0.1772 0.0
C46 C 0.83969 0.27037 0.15923 0.0
C47 C 0.85641 0.23002 0.14617 0.0
C48 C 0.85223 0.17296 0.15112 0.0
C49 C 0.85376 0.96373 0.10367 0.0
C50 C 0.91242 0.98477 0.14861 0.0
C51 C 0.89116 0.77275 0.14973 0.0
C52 C 0.88129 0.71468 0.1518 0.0
C53 C 0.89609 0.67236 0.13836 0.0
C54 C 0.88819 0.61644 0.14129 0.0
C55 C 0.86531 0.6017 0.1578 0.0
C56 C 0.85014 0.64453 0.17081 0.0
C57 C 0.85804 0.70056 0.1678 0.0
C58 C 0.86969 0.93297 0.20724 0.0
C59 C 0.8059 0.88429 0.16132 0.0
O60 O 0.84831 0.06913 0.18593 0.0
O61 O 0.8139 0.0662 0.15666 0.0
O62 O 0.86025 0.93776 0.12536 0.0
O63 O 0.84115 1.00975 0.11023 0.0
O64 O 0.89164 1.01591 0.1578 0.0
O65 O 0.90958 0.93135 0.14261 0.0
O66 O 0.88069 0.80364 0.13003 0.0
O67 O 0.89424 0.7998 0.17297 0.0
O68 O 0.85155 0.92952 0.18879 0.0
O69 O 0.89151 0.90448 0.20025 0.0
O70 O 0.82812 0.853 0.15746 0.0
O71 O 0.80706 0.93934 0.16407 0.0
H72 H 0.79814 0.18205 0.19615 0.0
H73 H 0.80507 0.28181 0.18731 0.0
H74 H 0.87307 0.24252 0.13249 0.0
H75 H 0.86551 0.14271 0.14104 0.0
H76 H 0.91412 0.68248 0.12598 0.0
H77 H 0.90054 0.58463 0.13125 0.0
H78 H 0.83221 0.63471 0.18338 0.0
H79 H 0.84626 0.73275 0.17824 0.0
Sm80 Sm 0.12953 0.97772 0.39961 0.0
Sm81 Sm 0.10239 0.86422 0.3946 0.0
C82 C 0.1527 0.07736 0.39225 0.0
C83 C 0.14715 0.13794 0.39655 0.0
C84 C 0.13445 0.16972 0.37567 0.0
C85 C 0.13061 0.22732 0.37876 0.0
C86 C 0.13949 0.255 0.40275 0.0
C87 C 0.15216 0.22323 0.42368 0.0
C88 C 0.15598 0.16545 0.4206 0.0
C89 C 0.11585 0.93018 0.44979 0.0
C90 C 0.06323 0.96834 0.40831 0.0
C91 C 0.08496 0.75891 0.394 0.0
C92 C 0.09278 0.69899 0.39495 0.0
C93 C 0.10459 0.67385 0.41841 0.0
C94 C 0.10921 0.61584 0.41914 0.0
C95 C 0.10188 0.58194 0.39657 0.0
C96 C 0.09088 0.60772 0.37292 0.0
C97 C 0.08634 0.66531 0.37217 0.0
C98 C 0.09791 0.93231 0.3486 0.0
C99 C 0.17 0.8696 0.3904 0.0
O100 O 0.13797 0.05185 0.37346 0.0
O101 O 0.15751 0.04592 0.4139 0.0
O102 O 0.12648 0.9042 0.42963 0.0
O103 O 0.11254 0.98266 0.44386 0.0
O104 O 0.08328 0.99957 0.39791 0.0
O105 O 0.06702 0.91483 0.41375 0.0
O106 O 0.08604 0.78898 0.41658 0.0
O107 O 0.09191 0.78688 0.37182 0.0
O108 O 0.11946 0.92496 0.36271 0.0
O109 O 0.07761 0.90316 0.35857 0.0
O110 O 0.14764 0.83818 0.39013 0.0
O111 O 0.16874 0.92438 0.39354 0.0
H112 H 0.12782 0.15028 0.35663 0.0
H113 H 0.12127 0.25039 0.36195 0.0
H114 H 0.15908 0.24297 0.44253 0.0
H115 H 0.16613 0.14247 0.43696 0.0
H116 H 0.10971 0.69867 0.43634 0.0
H117 H 0.11763 0.59733 0.43771 0.0
H118 H 0.08546 0.5832 0.35496 0.0
H119 H 0.07716 0.68345 0.35386 0.0
Sm120 Sm 0.83979 0.05029 0.38956 0.0
Sm121 Sm 0.86994 0.16889 0.39606 0.0
C122 C 0.82612 0.95113 0.36958 0.0
C123 C 0.83142 0.89172 0.37642 0.0
C124 C 0.85788 0.87342 0.38419 0.0
C125 C 0.86275 0.81698 0.39002 0.0
C126 C 0.84124 0.77735 0.38848 0.0
C127 C 0.81471 0.79601 0.38087 0.0
C128 C 0.80989 0.85252 0.37488 0.0
C129 C 0.84032 0.07975 0.44483 0.0
C130 C 0.90544 0.05896 0.40898 0.0
C131 C 0.88643 0.27258 0.40685 0.0
C132 C 0.87717 0.33124 0.40502 0.0
C133 C 0.84921 0.34516 0.40165 0.0
C134 C 0.8412 0.40119 0.39866 0.0
C135 C 0.86103 0.44436 0.39918 0.0
C136 C 0.88898 0.42999 0.40296 0.0
C137 C 0.89693 0.37407 0.40577 0.0
C138 C 0.87543 0.11423 0.34621 0.0
C139 C 0.80266 0.16371 0.38242 0.0
O140 O 0.84731 0.98035 0.36064 0.0
O141 O 0.81015 0.97914 0.38655 0.0
O142 O 0.85048 0.10739 0.42504 0.0
O143 O 0.82908 0.03447 0.43535 0.0
O144 O 0.88597 0.02957 0.39643 0.0
O145 O 0.90236 0.11223 0.41534 0.0
O146 O 0.87427 0.24032 0.42511 0.0
O147 O 0.89124 0.24722 0.38344 0.0
O148 O 0.85357 0.1179 0.36039 0.0
O149 O 0.89545 0.14154 0.35789 0.0
O150 O 0.82457 0.19357 0.38943 0.0
O151 O 0.80345 0.10873 0.37919 0.0
H152 H 0.87492 0.90267 0.38558 0.0
H153 H 0.88355 0.80434 0.39536 0.0
H154 H 0.79753 0.76708 0.37983 0.0
H155 H 0.78929 0.86565 0.36902 0.0
H156 H 0.83365 0.31272 0.4012 0.0
H157 H 0.81947 0.41072 0.39607 0.0
H158 H 0.90486 0.46191 0.40307 0.0
H159 H 0.91865 0.36419 0.40822 0.0
Sm160 Sm 0.86795 0.89368 0.89139 0.0
Sm161 Sm 0.83827 1.00405 0.89168 0.0
C162 C 0.88566 0.7891 0.89746 0.0
C163 C 0.87626 0.73036 0.89639 0.0
C164 C 0.88993 0.69023 0.91243 0.0
C165 C 0.88231 0.63387 0.91114 0.0
C166 C 0.86081 0.6162 0.89367 0.0
C167 C 0.84683 0.65686 0.87789 0.0
C168 C 0.85447 0.71338 0.87925 0.0
C169 C 0.86792 0.95109 0.84166 0.0
C170 C 0.80068 0.89503 0.88237 0.0
C171 C 0.82079 0.10813 0.88317 0.0
C172 C 0.82976 0.16711 0.88431 0.0
C173 C 0.81597 0.2069 0.86814 0.0
C174 C 0.82321 0.26347 0.86953 0.0
C175 C 0.84445 0.28164 0.88717 0.0
C176 C 0.85846 0.24133 0.90316 0.0
C177 C 0.8512 0.18464 0.90172 0.0
C178 C 0.83626 0.95005 0.94185 0.0
C179 C 0.90608 0.99863 0.90255 0.0
O180 O 0.87662 0.81958 0.91796 0.0
O181 O 0.88688 0.81666 0.87416 0.0
O182 O 0.84757 0.94437 0.8576 0.0
O183 O 0.88967 0.92646 0.85152 0.0
O184 O 0.82236 0.86703 0.89121 0.0
O185 O 0.80207 0.94919 0.87722 0.0
O186 O 0.83147 0.07694 0.86374 0.0
O187 O 0.81805 0.08164 0.90664 0.0
O188 O 0.85771 0.95325 0.92672 0.0
O189 O 0.81558 0.97579 0.93051 0.0
O190 O 0.8848 0.02882 0.894 0.0
O191 O 0.90375 0.94478 0.90727 0.0
H192 H 0.9067 0.70247 0.92591 0.0
H193 H 0.8932 0.60418 0.92401 0.0
H194 H 0.83032 0.64495 0.86406 0.0
H195 H 0.84357 0.74365 0.86669 0.0
H196 H 0.79942 0.19422 0.85449 0.0
H197 H 0.81229 0.29291 0.85654 0.0
H198 H 0.87474 0.25367 0.91717 0.0
H199 H 0.86214 0.15462 0.91439 0.0
Sm200 Sm 0.10458 0.19017 0.89468 0.0
Sm201 Sm 0.13286 0.0787 0.89621 0.0
C202 C 0.08686 0.29438 0.90109 0.0
C203 C 0.0954 0.35319 0.89794 0.0
C204 C 0.12298 0.37004 0.90144 0.0
C205 C 0.13017 0.42664 0.8993 0.0
C206 C 0.10991 0.46736 0.89363 0.0
C207 C 0.08242 0.44987 0.88974 0.0
C208 C 0.07528 0.39343 0.8919 0.0
C209 C 0.10417 0.13283 0.84532 0.0
C210 C 0.17217 0.1852 0.8864 0.0
C211 C 0.15002 0.97427 0.88879 0.0
C212 C 0.14153 0.91538 0.89175 0.0
C213 C 0.114 0.8984 0.88806 0.0
C214 C 0.1069 0.84173 0.88991 0.0
C215 C 0.1272 0.80103 0.8955 0.0
C216 C 0.15466 0.8186 0.89951 0.0
C217 C 0.16171 0.87513 0.89763 0.0
C218 C 0.13061 0.13132 0.94702 0.0
C219 C 0.06494 0.08591 0.90457 0.0
O220 O 0.09855 0.26533 0.92077 0.0
O221 O 0.0832 0.26571 0.87847 0.0
O222 O 0.12472 0.13749 0.86116 0.0
O223 O 0.08321 0.16065 0.85486 0.0
O224 O 0.15059 0.21533 0.89391 0.0
O225 O 0.17012 0.13091 0.88235 0.0
O226 O 0.13785 1.00389 0.86965 0.0
O227 O 0.15436 1.00237 0.91144 0.0
O228 O 0.11104 0.12885 0.92984 0.0
O229 O 0.15222 0.10567 0.93739 0.0
O230 O 0.08625 0.05495 0.89676 0.0
O231 O 0.06772 0.13959 0.90962 0.0
H232 H 0.13886 0.33962 0.90612 0.0
H233 H 0.1515 0.43857 0.90262 0.0
H234 H 0.06638 0.47979 0.88484 0.0
H235 H 0.05391 0.38121 0.88901 0.0
H236 H 0.09808 0.92881 0.88347 0.0
H237 H 0.0856 0.82971 0.88647 0.0
H238 H 0.17073 0.78869 0.90432 0.0
H239 H 0.18306 0.88743 0.90061 0.0
Sm240 Sm 0.88179 0.19896 0.6567 0.0
Sm241 Sm 0.85482 0.07844 0.66129 0.0
C242 C 0.8969 0.30412 0.64819 0.0
C243 C 0.8858 0.3613 0.64659 0.0
C244 C 0.86262 0.37771 0.66212 0.0
C245 C 0.85423 0.43371 0.66232 0.0
C246 C 0.86888 0.47421 0.647 0.0
C247 C 0.89141 0.4569 0.63065 0.0
C248 C 0.89979 0.40105 0.63052 0.0
C249 C 0.88514 0.14379 0.70685 0.0
C250 C 0.81465 0.18721 0.66568 0.0
C251 C 0.84119 0.97932 0.68146 0.0
C252 C 0.84572 0.92027 0.67453 0.0
C253 C 0.866 0.90479 0.65524 0.0
C254 C 0.87116 0.84832 0.64991 0.0
C255 C 0.85608 0.80634 0.66376 0.0
C256 C 0.83535 0.82228 0.68263 0.0
C257 C 0.83027 0.87877 0.68798 0.0
C258 C 0.85682 0.10769 0.60615 0.0
C259 C 0.92101 0.09593 0.64505 0.0
O260 O 0.89081 0.26983 0.62809 0.0
O261 O 0.89663 0.28023 0.67251 0.0
O262 O 0.86433 0.14631 0.69138 0.0
O263 O 0.90564 0.17153 0.69607 0.0
O264 O 0.83568 0.21889 0.65805 0.0
O265 O 0.81712 0.13318 0.67087 0.0
O266 O 0.86315 1.0072 0.68923 0.0
O267 O 0.82514 1.00779 0.66483 0.0
O268 O 0.8653 0.13704 0.62606 0.0
O269 O 0.84654 0.06114 0.61536 0.0
O270 O 0.90207 0.06417 0.65729 0.0
O271 O 0.91618 0.14802 0.63794 0.0
H272 H 0.85149 0.34758 0.67466 0.0
H273 H 0.8369 0.44554 0.67526 0.0
H274 H 0.90281 0.48667 0.61816 0.0
H275 H 0.91765 0.38911 0.61831 0.0
H276 H 0.87807 0.93637 0.64457 0.0
H277 H 0.88702 0.83752 0.63501 0.0
H278 H 0.82359 0.79108 0.69387 0.0
H279 H 0.81458 0.89005 0.70299 0.0
Sm280 Sm 0.1105 0.85519 0.67101 0.0
Sm281 Sm 0.13583 0.97428 0.66219 0.0
C282 C 0.09375 0.7505 0.67678 0.0
C283 C 0.0982 0.69098 0.67118 0.0
C284 C 0.11667 0.6721 0.65082 0.0
C285 C 0.11974 0.6146 0.64606 0.0
C286 C 0.10427 0.57555 0.66152 0.0
C287 C 0.08615 0.59514 0.68209 0.0
C288 C 0.08316 0.6522 0.68682 0.0
C289 C 0.11538 0.92304 0.71688 0.0
C290 C 0.17655 0.86683 0.65934 0.0
C291 C 0.15332 0.07602 0.67431 0.0
C292 C 0.14858 0.13566 0.66756 0.0
C293 C 0.12938 0.16706 0.68288 0.0
C294 C 0.12623 0.22421 0.67806 0.0
C295 C 0.14232 0.25158 0.65793 0.0
C296 C 0.16142 0.2202 0.64245 0.0
C297 C 0.16454 0.16285 0.64724 0.0
C298 C 0.12317 0.9336 0.61071 0.0
C299 C 0.06823 0.95358 0.65912 0.0
O300 O 0.08609 0.78263 0.65627 0.0
O301 O 0.11057 0.77494 0.69406 0.0
O302 O 0.13328 0.91612 0.69829 0.0
O303 O 0.09346 0.89397 0.71154 0.0
O304 O 0.15446 0.83486 0.65735 0.0
O305 O 0.17505 0.92089 0.66459 0.0
O306 O 0.13379 0.05004 0.68816 0.0
O307 O 0.16522 0.04451 0.65559 0.0
O308 O 0.11933 0.90765 0.63323 0.0
O309 O 0.13384 0.98248 0.61511 0.0
O310 O 0.0884 0.98953 0.66451 0.0
O311 O 0.07245 0.89972 0.65642 0.0
H312 H 0.12851 0.70166 0.63862 0.0
H313 H 0.13383 0.60075 0.63005 0.0
H314 H 0.0744 0.56626 0.69478 0.0
H315 H 0.06897 0.66612 0.70276 0.0
H316 H 0.11711 0.14776 0.69906 0.0
H317 H 0.11172 0.24732 0.69073 0.0
H318 H 0.17403 0.24003 0.62671 0.0
H319 H 0.17976 0.14002 0.6353 0.0
Sm320 Sm 0.62624 0.59018 0.15545 0.0
Sm321 Sm 0.60346 0.70537 0.16125 0.0
C322 C 0.64799 0.4891 0.16112 0.0
C323 C 0.64192 0.43022 0.15464 0.0
C324 C 0.61462 0.41087 0.15245 0.0
C325 C 0.6093 0.35405 0.14813 0.0
C326 C 0.63119 0.31547 0.14583 0.0
C327 C 0.65852 0.3355 0.14741 0.0
C328 C 0.66379 0.39226 0.15181 0.0
C329 C 0.61238 0.63676 0.10521 0.0
C330 C 0.56002 0.60896 0.15009 0.0
C331 C 0.58798 0.81176 0.16205 0.0
C332 C 0.59711 0.86948 0.15674 0.0
C333 C 0.6252 0.88329 0.15414 0.0
C334 C 0.63334 0.93933 0.1517 0.0
C335 C 0.61349 0.98244 0.15175 0.0
C336 C 0.58533 0.96793 0.1536 0.0
C337 C 0.57728 0.91206 0.15608 0.0
C338 C 0.59937 0.63896 0.20822 0.0
C339 C 0.6704 0.69362 0.16142 0.0
O340 O 0.6322 0.51273 0.17975 0.0
O341 O 0.65393 0.52222 0.1404 0.0
O342 O 0.62451 0.66262 0.12457 0.0
O343 O 0.6071 0.58561 0.1124 0.0
O344 O 0.57914 0.57428 0.15946 0.0
O345 O 0.56603 0.66094 0.14372 0.0
O346 O 0.58419 0.77909 0.14074 0.0
O347 O 0.59922 0.78613 0.18307 0.0
O348 O 0.62026 0.64369 0.19284 0.0
O349 O 0.57943 0.6698 0.19902 0.0
O350 O 0.64908 0.7276 0.16121 0.0
O351 O 0.66733 0.63884 0.16009 0.0
H352 H 0.5974 0.43951 0.15457 0.0
H353 H 0.588 0.34017 0.14732 0.0
H354 H 0.67589 0.30729 0.14527 0.0
H355 H 0.68501 0.40644 0.15337 0.0
H356 H 0.64079 0.85091 0.15451 0.0
H357 H 0.65517 0.94891 0.15 0.0
H358 H 0.5695 0.99988 0.15413 0.0
H359 H 0.5555 0.90219 0.15822 0.0
Sm360 Sm 0.34575 0.48484 0.16341 0.0
Sm361 Sm 0.37296 0.36449 0.15476 0.0
C362 C 0.33332 0.58244 0.18602 0.0
C363 C 0.33618 0.64227 0.17946 0.0
C364 C 0.32395 0.68217 0.19675 0.0
C365 C 0.32672 0.73924 0.19097 0.0
C366 C 0.34184 0.75754 0.16773 0.0
C367 C 0.35407 0.71712 0.15045 0.0
C368 C 0.35126 0.66005 0.15626 0.0
C369 C 0.34471 0.45945 0.10774 0.0
C370 C 0.41095 0.46926 0.14307 0.0
C371 C 0.38673 0.26054 0.14153 0.0
C372 C 0.37844 0.20229 0.14694 0.0
C373 C 0.38901 0.15973 0.13014 0.0
C374 C 0.38257 0.1038 0.13556 0.0
C375 C 0.36539 0.08922 0.15797 0.0
C376 C 0.35442 0.13226 0.17452 0.0
C377 C 0.36085 0.18834 0.16903 0.0
C378 C 0.37828 0.4145 0.20601 0.0
C379 C 0.30677 0.37316 0.17098 0.0
O380 O 0.35634 0.55544 0.191 0.0
O381 O 0.31595 0.55389 0.17084 0.0
O382 O 0.35463 0.42957 0.1268 0.0
O383 O 0.33468 0.50505 0.11818 0.0
O384 O 0.39302 0.49924 0.15766 0.0
O385 O 0.40498 0.41897 0.13393 0.0
O386 O 0.36982 0.29106 0.12681 0.0
O387 O 0.39766 0.28789 0.16216 0.0
O388 O 0.35704 0.41374 0.19114 0.0
O389 O 0.39804 0.38627 0.19429 0.0
O390 O 0.3279 0.34205 0.16315 0.0
O391 O 0.30858 0.42804 0.17433 0.0
H392 H 0.31222 0.66917 0.21475 0.0
H393 H 0.31672 0.769 0.20452 0.0
H394 H 0.36618 0.72957 0.13261 0.0
H395 H 0.36095 0.62978 0.14273 0.0
H396 H 0.40267 0.16972 0.11304 0.0
H397 H 0.39167 0.07185 0.1226 0.0
H398 H 0.34086 0.12261 0.19173 0.0
H399 H 0.35236 0.22071 0.18216 0.0
Sm400 Sm 0.63587 0.48045 0.39408 0.0
Sm401 Sm 0.60578 0.37054 0.38689 0.0
C402 C 0.65494 0.5848 0.39102 0.0
C403 C 0.6463 0.64404 0.39062 0.0
C404 C 0.61918 0.65996 0.38406 0.0
C405 C 0.61201 0.71674 0.38263 0.0
C406 C 0.63183 0.75876 0.38771 0.0
C407 C 0.65888 0.74223 0.39462 0.0
C408 C 0.66598 0.68559 0.39606 0.0
C409 C 0.63048 0.41984 0.44245 0.0
C410 C 0.56733 0.47633 0.3972 0.0
C411 C 0.58633 0.26637 0.38825 0.0
C412 C 0.59499 0.20714 0.38874 0.0
C413 C 0.622 0.19132 0.39578 0.0
C414 C 0.62929 0.13461 0.39711 0.0
C415 C 0.60965 0.09247 0.39156 0.0
C416 C 0.58268 0.1089 0.38425 0.0
C417 C 0.5755 0.16551 0.38283 0.0
C418 C 0.61016 0.43556 0.33979 0.0
C419 C 0.67382 0.37178 0.38485 0.0
O420 O 0.64877 0.55453 0.36945 0.0
O421 O 0.65215 0.55743 0.41423 0.0
O422 O 0.61182 0.42596 0.42443 0.0
O423 O 0.65286 0.44595 0.43497 0.0
O424 O 0.58962 0.50665 0.39172 0.0
O425 O 0.56874 0.42178 0.40029 0.0
O426 O 0.59133 0.29605 0.41033 0.0
O427 O 0.59042 0.29432 0.36539 0.0
O428 O 0.62915 0.42642 0.35699 0.0
O429 O 0.58784 0.40863 0.34667 0.0
O430 O 0.65121 0.34292 0.39036 0.0
O431 O 0.6732 0.42662 0.38194 0.0
H432 H 0.60364 0.62856 0.37981 0.0
H433 H 0.59089 0.72768 0.37761 0.0
H434 H 0.67483 0.77309 0.39826 0.0
H435 H 0.68707 0.67422 0.40103 0.0
H436 H 0.63735 0.22277 0.40051 0.0
H437 H 0.65035 0.12383 0.40243 0.0
H438 H 0.56684 0.078 0.38027 0.0
H439 H 0.55449 0.17679 0.3775 0.0
Sm440 Sm 0.34127 0.55983 0.39026 0.0
Sm441 Sm 0.37158 0.67861 0.38564 0.0
C442 C 0.32395 0.45871 0.37663 0.0
C443 C 0.32998 0.3999 0.38369 0.0
C444 C 0.35724 0.38157 0.38784 0.0
C445 C 0.36275 0.32512 0.39292 0.0
C446 C 0.34113 0.28572 0.39417 0.0
C447 C 0.31379 0.30459 0.39057 0.0
C448 C 0.30832 0.36106 0.38533 0.0
C449 C 0.34925 0.60225 0.44275 0.0
C450 C 0.40937 0.57101 0.39799 0.0
C451 C 0.39002 0.78303 0.38758 0.0
C452 C 0.3805 0.84103 0.39089 0.0
C453 C 0.35228 0.85396 0.39257 0.0
C454 C 0.34359 0.90975 0.39353 0.0
C455 C 0.36304 0.95358 0.39295 0.0
C456 C 0.39136 0.94012 0.39195 0.0
C457 C 0.39996 0.88439 0.39088 0.0
C458 C 0.36856 0.61359 0.33867 0.0
C459 C 0.3031 0.67176 0.38518 0.0
O460 O 0.34331 0.48583 0.3631 0.0
O461 O 0.31169 0.48908 0.39556 0.0
O462 O 0.35657 0.62447 0.42024 0.0
O463 O 0.33684 0.55524 0.43778 0.0
O464 O 0.388 0.53908 0.39131 0.0
O465 O 0.40742 0.62567 0.40089 0.0
O466 O 0.38869 0.75036 0.4093 0.0
O467 O 0.38275 0.75795 0.36475 0.0
O468 O 0.34962 0.62114 0.35617 0.0
O469 O 0.39046 0.64202 0.34528 0.0
O470 O 0.32555 0.70242 0.38908 0.0
O471 O 0.30396 0.6168 0.38212 0.0
H472 H 0.37436 0.4107 0.38672 0.0
H473 H 0.38408 0.31222 0.3952 0.0
H474 H 0.29658 0.27575 0.39184 0.0
H475 H 0.28713 0.37434 0.38228 0.0
H476 H 0.33706 0.82092 0.39271 0.0
H477 H 0.32165 0.91858 0.39461 0.0
H478 H 0.40688 0.97271 0.39109 0.0
H479 H 0.42186 0.87519 0.38944 0.0
Sm480 Sm 0.3731 0.37713 0.89366 0.0
Sm481 Sm 0.34399 0.48914 0.89288 0.0
C482 C 0.39099 0.27342 0.90216 0.0
C483 C 0.3827 0.21433 0.89983 0.0
C484 C 0.40077 0.17272 0.90918 0.0
C485 C 0.39394 0.1162 0.90647 0.0
C486 C 0.36877 0.09996 0.89435 0.0
C487 C 0.35053 0.14206 0.88524 0.0
C488 C 0.35746 0.19872 0.88792 0.0
C489 C 0.37581 0.43302 0.8439 0.0
C490 C 0.30571 0.38128 0.8835 0.0
C491 C 0.32692 0.59296 0.88297 0.0
C492 C 0.33406 0.65221 0.88717 0.0
C493 C 0.31534 0.69342 0.8787 0.0
C494 C 0.32144 0.75007 0.88232 0.0
C495 C 0.34649 0.76682 0.89449 0.0
C496 C 0.36526 0.72513 0.90298 0.0
C497 C 0.35909 0.66833 0.89935 0.0
C498 C 0.34506 0.43839 0.94437 0.0
C499 C 0.4114 0.48386 0.90424 0.0
O500 O 0.37869 0.30333 0.92115 0.0
O501 O 0.39479 0.30083 0.87909 0.0
O502 O 0.3544 0.42892 0.85889 0.0
O503 O 0.39619 0.40511 0.85446 0.0
O504 O 0.3271 0.35195 0.89215 0.0
O505 O 0.30776 0.43524 0.87835 0.0
O506 O 0.34248 0.56446 0.86596 0.0
O507 O 0.3196 0.56422 0.90477 0.0
O508 O 0.36489 0.44016 0.9274 0.0
O509 O 0.32394 0.46524 0.93454 0.0
O510 O 0.39019 0.51406 0.89565 0.0
O511 O 0.40901 0.42989 0.90917 0.0
H512 H 0.42042 0.18397 0.91832 0.0
H513 H 0.40871 0.08521 0.91332 0.0
H514 H 0.33083 0.13129 0.87612 0.0
H515 H 0.34326 0.23029 0.88054 0.0
H516 H 0.29587 0.68176 0.86933 0.0
H517 H 0.30629 0.78072 0.87594 0.0
H518 H 0.38487 0.73639 0.91216 0.0
H519 H 0.37382 0.63706 0.90599 0.0
Sm520 Sm 0.60404 0.6906 0.88926 0.0
Sm521 Sm 0.63577 0.57144 0.89063 0.0
C522 C 0.58568 0.79445 0.89488 0.0
C523 C 0.59554 0.85263 0.89628 0.0
C524 C 0.62385 0.86546 0.89654 0.0
C525 C 0.63268 0.92129 0.89613 0.0
C526 C 0.6133 0.96524 0.89561 0.0
C527 C 0.58495 0.95188 0.89587 0.0
C528 C 0.57621 0.89617 0.89614 0.0
C529 C 0.60188 0.62588 0.84235 0.0
C530 C 0.67241 0.6855 0.88233 0.0
C531 C 0.65297 0.47096 0.87567 0.0
C532 C 0.64701 0.41197 0.88265 0.0
C533 C 0.61983 0.39375 0.88767 0.0
C534 C 0.6143 0.3373 0.89286 0.0
C535 C 0.63583 0.29768 0.89337 0.0
C536 C 0.6631 0.31637 0.88878 0.0
C537 C 0.66859 0.37289 0.88343 0.0
C538 C 0.62775 0.61186 0.94388 0.0
C539 C 0.56848 0.58055 0.90361 0.0
O540 O 0.59122 0.76175 0.91589 0.0
O541 O 0.58844 0.76951 0.871 0.0
O542 O 0.6229 0.6324 0.85749 0.0
O543 O 0.5813 0.6559 0.85121 0.0
O544 O 0.64982 0.7156 0.88642 0.0
O545 O 0.6723 0.63016 0.88129 0.0
O546 O 0.63331 0.49838 0.8629 0.0
O547 O 0.66571 0.50098 0.89436 0.0
O548 O 0.62151 0.63467 0.92135 0.0
O549 O 0.63911 0.56391 0.93854 0.0
O550 O 0.58928 0.54972 0.89424 0.0
O551 O 0.57045 0.63504 0.90757 0.0
H552 H 0.63906 0.83235 0.89681 0.0
H553 H 0.65465 0.93004 0.89622 0.0
H554 H 0.56946 0.9845 0.89507 0.0
H555 H 0.55426 0.88707 0.89578 0.0
H556 H 0.60276 0.42301 0.8872 0.0
H557 H 0.59301 0.3246 0.89588 0.0
H558 H 0.68027 0.28741 0.88943 0.0
H559 H 0.68972 0.38602 0.87969 0.0
Sm560 Sm 0.37799 0.69337 0.66188 0.0
Sm561 Sm 0.35398 0.57431 0.6534 0.0
C562 C 0.39261 0.79971 0.66602 0.0
C563 C 0.38373 0.85662 0.65904 0.0
C564 C 0.3557 0.86982 0.65575 0.0
C565 C 0.34754 0.92524 0.65169 0.0
C566 C 0.36734 0.96834 0.65091 0.0
C567 C 0.3955 0.95448 0.65334 0.0
C568 C 0.40358 0.89908 0.65736 0.0
C569 C 0.37299 0.62602 0.70819 0.0
C570 C 0.31174 0.67894 0.65319 0.0
C571 C 0.3376 0.47162 0.66494 0.0
C572 C 0.34275 0.41357 0.65637 0.0
C573 C 0.36973 0.39301 0.6529 0.0
C574 C 0.37409 0.33667 0.64675 0.0
C575 C 0.35156 0.29993 0.6438 0.0
C576 C 0.32457 0.32127 0.64635 0.0
C577 C 0.32024 0.3775 0.65267 0.0
C578 C 0.36364 0.61705 0.60153 0.0
C579 C 0.42141 0.59747 0.64936 0.0
O580 O 0.40062 0.76764 0.64566 0.0
O581 O 0.37795 0.7733 0.68468 0.0
O582 O 0.35538 0.63232 0.68944 0.0
O583 O 0.39494 0.65523 0.70275 0.0
O584 O 0.3334 0.71165 0.64963 0.0
O585 O 0.31421 0.62516 0.65874 0.0
O586 O 0.35757 0.49707 0.6782 0.0
O587 O 0.32468 0.50385 0.6473 0.0
O588 O 0.36844 0.64258 0.62389 0.0
O589 O 0.35329 0.56798 0.60623 0.0
O590 O 0.40158 0.56093 0.65522 0.0
O591 O 0.41651 0.65106 0.64665 0.0
H592 H 0.34015 0.83748 0.65704 0.0
H593 H 0.32572 0.93444 0.64958 0.0
H594 H 0.41125 0.98666 0.65324 0.0
H595 H 0.42533 0.8896 0.65999 0.0
H596 H 0.38747 0.42012 0.65552 0.0
H597 H 0.39514 0.32158 0.64522 0.0
H598 H 0.30676 0.29438 0.64374 0.0
H599 H 0.29926 0.39266 0.65511 0.0
Sm600 Sm 0.61212 0.35897 0.66339 0.0
Sm601 Sm 0.63704 0.47896 0.65654 0.0
C602 C 0.59681 0.25273 0.66522 0.0
C603 C 0.60646 0.19597 0.65918 0.0
C604 C 0.63468 0.18386 0.65624 0.0
C605 C 0.64344 0.12859 0.65286 0.0
C606 C 0.62404 0.08476 0.65217 0.0
C607 C 0.59573 0.09756 0.65424 0.0
C608 C 0.58705 0.15269 0.65776 0.0
C609 C 0.61331 0.42652 0.70974 0.0
C610 C 0.67902 0.37382 0.66193 0.0
C611 C 0.65263 0.58165 0.66885 0.0
C612 C 0.64825 0.63975 0.65984 0.0
C613 C 0.62161 0.66067 0.65484 0.0
C614 C 0.61784 0.71704 0.64832 0.0
C615 C 0.64063 0.7535 0.6465 0.0
C616 C 0.66734 0.73183 0.65063 0.0
C617 C 0.67107 0.67554 0.65732 0.0
C618 C 0.63205 0.43471 0.60431 0.0
C619 C 0.57006 0.45606 0.64821 0.0
O620 O 0.59183 0.28538 0.64412 0.0
O621 O 0.60884 0.27848 0.68574 0.0
O622 O 0.63227 0.4204 0.69222 0.0
O623 O 0.59201 0.39644 0.70313 0.0
O624 O 0.65791 0.34055 0.65684 0.0
O625 O 0.67608 0.42808 0.66589 0.0
O626 O 0.63166 0.55634 0.68076 0.0
O627 O 0.66682 0.54929 0.65224 0.0
O628 O 0.62523 0.4103 0.62653 0.0
O629 O 0.64173 0.48412 0.60938 0.0
O630 O 0.58949 0.49226 0.65549 0.0
O631 O 0.57505 0.40247 0.64555 0.0
H632 H 0.64988 0.21696 0.65707 0.0
H633 H 0.66537 0.12009 0.65105 0.0
H634 H 0.5803 0.06475 0.65418 0.0
H635 H 0.56518 0.16138 0.66006 0.0
H636 H 0.60364 0.63382 0.65654 0.0
H637 H 0.59696 0.73236 0.6456 0.0
H638 H 0.68537 0.75847 0.64893 0.0
H639 H 0.6918 0.66012 0.66097 0.0
H640 H 0.18493 0.28142 0.17685 0.0
H641 H 0.22864 0.12446 0.17188 0.0
H642 H 0.27271 0.17404 0.17415 0.0
H643 H 0.29851 0.2615 0.1742 0.0
H644 H 0.25511 0.41908 0.17748 0.0
H645 H 0.21092 0.36924 0.17935 0.0
C646 C 0.20405 0.25794 0.17618 0.0
C647 C 0.20345 0.1993 0.17371 0.0
C648 C 0.22926 0.28673 0.17717 0.0
C649 C 0.22847 0.16956 0.17361 0.0
C650 C 0.25368 0.19789 0.17484 0.0
C651 C 0.27944 0.28522 0.17547 0.0
C652 C 0.28012 0.34408 0.17537 0.0
C653 C 0.25426 0.25645 0.17611 0.0
C654 C 0.25518 0.37383 0.17746 0.0
C655 C 0.22993 0.34536 0.17841 0.0
H656 H 0.79506 0.7726 0.15728 0.0
H657 H 0.75538 0.93251 0.16948 0.0
H658 H 0.71043 0.88677 0.17159 0.0
H659 H 0.68249 0.80268 0.16918 0.0
H660 H 0.72109 0.64228 0.15609 0.0
H661 H 0.76665 0.68722 0.15555 0.0
C662 C 0.77662 0.79756 0.16045 0.0
C663 C 0.77868 0.85609 0.16312 0.0
C664 C 0.75073 0.77099 0.16157 0.0
C665 C 0.7545 0.88753 0.1673 0.0
C666 C 0.72875 0.86141 0.16852 0.0
C667 C 0.70076 0.77726 0.16611 0.0
C668 C 0.69829 0.71914 0.16243 0.0
C669 C 0.72665 0.80332 0.16553 0.0
C670 C 0.72236 0.68707 0.15892 0.0
C671 C 0.74839 0.71279 0.15854 0.0
H672 H 0.2933 0.78375 0.38703 0.0
H673 H 0.25155 0.6247 0.38159 0.0
H674 H 0.20691 0.67222 0.38187 0.0
H675 H 0.17983 0.75833 0.3849 0.0
H676 H 0.22156 0.91748 0.39084 0.0
H677 H 0.26629 0.87015 0.38906 0.0
C678 C 0.27453 0.75931 0.3859 0.0
C679 C 0.27594 0.70059 0.38443 0.0
C680 C 0.24893 0.78689 0.38617 0.0
C681 C 0.25121 0.66987 0.38276 0.0
C682 C 0.22563 0.69703 0.38295 0.0
C683 C 0.19865 0.78291 0.38571 0.0
C684 C 0.19725 0.84153 0.38809 0.0
C685 C 0.22427 0.75546 0.38483 0.0
C686 C 0.22196 0.8724 0.38905 0.0
C687 C 0.24756 0.84534 0.38806 0.0
H688 H 0.79503 0.2757 0.37763 0.0
H689 H 0.75033 0.11963 0.38034 0.0
H690 H 0.70652 0.17061 0.38034 0.0
H691 H 0.6812 0.25929 0.38223 0.0
H692 H 0.72609 0.41528 0.38075 0.0
H693 H 0.76974 0.36423 0.37787 0.0
C694 C 0.77576 0.25267 0.37828 0.0
C695 C 0.77605 0.19384 0.37937 0.0
C696 C 0.75073 0.28222 0.3787 0.0
C697 C 0.75078 0.16484 0.37951 0.0
C698 C 0.72571 0.19399 0.37967 0.0
C699 C 0.70048 0.28228 0.38133 0.0
C700 C 0.70031 0.34115 0.38202 0.0
C701 C 0.72548 0.25267 0.37975 0.0
C702 C 0.72556 0.37006 0.38037 0.0
C703 C 0.75055 0.34088 0.37872 0.0
H704 H 0.67993 0.79701 0.87422 0.0
H705 H 0.72485 0.64247 0.88427 0.0
H706 H 0.76849 0.69391 0.88372 0.0
H707 H 0.79351 0.78272 0.88314 0.0
H708 H 0.74873 0.93762 0.87383 0.0
H709 H 0.70518 0.88575 0.87148 0.0
C710 C 0.69921 0.77444 0.87635 0.0
C711 C 0.69901 0.71591 0.87968 0.0
C712 C 0.72418 0.80432 0.87628 0.0
C713 C 0.72432 0.68742 0.88177 0.0
C714 C 0.74929 0.71685 0.88156 0.0
C715 C 0.77427 0.80532 0.88049 0.0
C716 C 0.77438 0.86412 0.8789 0.0
C717 C 0.7494 0.77532 0.87927 0.0
C718 C 0.74925 0.89246 0.87515 0.0
C719 C 0.72435 0.86282 0.87387 0.0
H720 H 0.29572 0.26952 0.88233 0.0
H721 H 0.25463 0.42938 0.87879 0.0
H722 H 0.20971 0.38262 0.87843 0.0
H723 H 0.18213 0.2966 0.88144 0.0
H724 H 0.22329 0.13673 0.8842 0.0
H725 H 0.26822 0.18336 0.88235 0.0
C726 C 0.27698 0.29421 0.88131 0.0
C727 C 0.27859 0.35294 0.88079 0.0
C728 C 0.25123 0.26706 0.88105 0.0
C729 C 0.25404 0.38416 0.87919 0.0
C730 C 0.22832 0.35745 0.87909 0.0
C731 C 0.20091 0.27189 0.88156 0.0
C732 C 0.19932 0.21323 0.88323 0.0
C733 C 0.22667 0.29896 0.88039 0.0
C734 C 0.22389 0.18189 0.88295 0.0
C735 C 0.2496 0.20854 0.88198 0.0
H736 H 0.6907 0.26483 0.66987 0.0
H737 H 0.7293 0.42601 0.65882 0.0
H738 H 0.77495 0.38213 0.66031 0.0
H739 H 0.80335 0.29792 0.66286 0.0
H740 H 0.76448 0.13659 0.67346 0.0
H741 H 0.71906 0.18107 0.67401 0.0
C742 C 0.70905 0.29041 0.66759 0.0
C743 C 0.70666 0.34842 0.66382 0.0
C744 C 0.73502 0.26498 0.66841 0.0
C745 C 0.73065 0.38119 0.66163 0.0
C746 C 0.7567 0.35615 0.66244 0.0
C747 C 0.785 0.27232 0.66537 0.0
C748 C 0.78729 0.21392 0.66791 0.0
C749 C 0.75905 0.29804 0.66553 0.0
C750 C 0.76329 0.1816 0.67144 0.0
C751 C 0.73733 0.20695 0.67168 0.0
H752 H 0.18758 0.75598 0.65906 0.0
H753 H 0.22668 0.91791 0.65258 0.0
H754 H 0.27185 0.87312 0.64838 0.0
H755 H 0.2999 0.78876 0.64786 0.0
H756 H 0.26133 0.62696 0.65669 0.0
H757 H 0.21584 0.67132 0.65818 0.0
C758 C 0.20594 0.7816 0.65657 0.0
C759 C 0.20381 0.84022 0.65616 0.0
C760 C 0.23177 0.7557 0.65454 0.0
C761 C 0.2278 0.87272 0.6531 0.0
C762 C 0.25359 0.84718 0.65063 0.0
C763 C 0.28164 0.76302 0.65011 0.0
C764 C 0.28406 0.70467 0.65238 0.0
C765 C 0.25577 0.78878 0.65155 0.0
C766 C 0.26006 0.67201 0.65502 0.0
C767 C 0.23407 0.69733 0.65592 0.0
H768 H 0.13983 0.97456 0.317 0.0
H769 H 0.05103 0.9718 0.32479 0.0
H770 H 0.04674 0.03063 0.28367 0.0
H771 H 0.06825 0.08181 0.2447 0.0
H772 H 0.15694 0.07945 0.23543 0.0
H773 H 0.16126 1.02397 0.27759 0.0
C774 C 0.11957 0.98704 0.3097 0.0
C775 C 0.09579 0.9689 0.32393 0.0
C776 C 0.11723 1.01996 0.28564 0.0
C777 C 0.06966 0.98506 0.31414 0.0
C778 C 0.06718 1.01877 0.29063 0.0
C779 C 0.08849 0.06927 0.25201 0.0
C780 C 0.11223 0.08496 0.23702 0.0
C781 C 0.09081 0.0363 0.27609 0.0
C782 C 0.13833 0.06794 0.24659 0.0
C783 C 0.14083 0.03621 0.27073 0.0
H784 H 0.83514 0.07517 0.31205 0.0
H785 H 0.92339 0.07505 0.32412 0.0
H786 H 0.92957 1.01753 0.28286 0.0
H787 H 0.9099 0.96777 0.24277 0.0
H788 H 0.82191 0.97319 0.22911 0.0
H789 H 0.81561 1.02785 0.27125 0.0
C790 C 0.85569 0.06243 0.30562 0.0
C791 C 0.87877 0.07926 0.32115 0.0
C792 C 0.85915 0.03025 0.28149 0.0
C793 C 0.9053 0.06281 0.31247 0.0
C794 C 0.90885 0.0298 0.28889 0.0
C795 C 0.88937 0.98081 0.24911 0.0
C796 C 0.86639 0.96612 0.23292 0.0
C797 C 0.88594 1.01335 0.27315 0.0
C798 C 0.83994 0.98386 0.24123 0.0
C799 C 0.83631 1.01513 0.26535 0.0
H800 H 0.84263 0.0966 0.7354 0.0
H801 H 0.93146 0.11108 0.7347 0.0
H802 H 0.93429 0.05119 0.7757 0.0
H803 H 0.9113 0.99483 0.8122 0.0
H804 H 0.82227 0.98491 0.81384 0.0
H805 H 0.81972 0.04244 0.7722 0.0
C806 C 0.86261 0.08666 0.74425 0.0
C807 C 0.88681 0.10825 0.73199 0.0
C808 C 0.86403 0.05278 0.76804 0.0
C809 C 0.91252 0.09518 0.74378 0.0
C810 C 0.91414 0.06079 0.7672 0.0
C811 C 0.89138 1.0051 0.80332 0.0
C812 C 0.86701 0.98527 0.81603 0.0
C813 C 0.89003 0.03931 0.77956 0.0
C814 C 0.84134 0.99951 0.80447 0.0
C815 C 0.83985 0.03247 0.78064 0.0
H816 H 0.14628 0.08824 0.81439 0.0
H817 H 0.05752 0.08965 0.82318 0.0
H818 H 0.05312 1.02415 0.7849 0.0
H819 H 0.07431 0.96614 0.74871 0.0
H820 H 0.16272 0.96892 0.73737 0.0
H821 H 0.16748 0.03287 0.77653 0.0
C822 C 0.12602 0.07416 0.80784 0.0
C823 C 0.10226 0.09376 0.82164 0.0
C824 C 0.12357 0.03716 0.78529 0.0
C825 C 0.07612 0.07546 0.81284 0.0
C826 C 0.07357 0.03784 0.79097 0.0
C827 C 0.09461 0.98069 0.75487 0.0
C828 C 0.11814 0.96246 0.74033 0.0
C829 C 0.09712 1.01838 0.77702 0.0
C830 C 0.14429 0.98224 0.7483 0.0
C831 C 0.14702 1.0188 0.77071 0.0
H832 H 0.56886 0.48083 0.30896 0.0
H833 H 0.65762 0.47443 0.31589 0.0
H834 H 0.66236 0.53518 0.27539 0.0
H835 H 0.64115 0.59074 0.2378 0.0
H836 H 0.55233 0.6018 0.23297 0.0
H837 H 0.54771 0.53888 0.27256 0.0
C838 C 0.58923 0.49263 0.30153 0.0
C839 C 0.61286 0.47273 0.31529 0.0
C840 C 0.59178 0.52857 0.27853 0.0
C841 C 0.63911 0.48903 0.30564 0.0
C842 C 0.64183 0.52377 0.28245 0.0
C843 C 0.62081 0.57928 0.24545 0.0
C844 C 0.59711 0.60086 0.2324 0.0
C845 C 0.61831 0.54386 0.26869 0.0
C846 C 0.5709 0.58596 0.24267 0.0
C847 C 0.56824 0.54987 0.26531 0.0
H848 H 0.41014 0.56853 0.30749 0.0
H849 H 0.32136 0.57437 0.31549 0.0
H850 H 0.31649 0.51397 0.27515 0.0
H851 H 0.33737 0.45976 0.23727 0.0
H852 H 0.4261 0.44901 0.23055 0.0
H853 H 0.43113 0.5106 0.27059 0.0
C854 C 0.38976 0.55657 0.30033 0.0
C855 C 0.36613 0.57626 0.31435 0.0
C856 C 0.38711 0.52077 0.27736 0.0
C857 C 0.33986 0.55989 0.30505 0.0
C858 C 0.33706 0.52534 0.28197 0.0
C859 C 0.35781 0.47078 0.24466 0.0
C860 C 0.38133 0.44994 0.23094 0.0
C861 C 0.36051 0.50556 0.26793 0.0
C862 C 0.40767 0.46434 0.24081 0.0
C863 C 0.41055 0.49971 0.26366 0.0
H864 H 0.33572 0.47371 0.80924 0.0
H865 H 0.42358 0.47611 0.82398 0.0
H866 H 0.43056 0.53691 0.78406 0.0
H867 H 0.41195 0.58899 0.74436 0.0
H868 H 0.32462 0.58182 0.72732 0.0
H869 H 0.31721 0.5236 0.7683 0.0
C870 C 0.35633 0.48771 0.80367 0.0
C871 C 0.37908 0.47041 0.81959 0.0
C872 C 0.36034 0.52183 0.78013 0.0
C873 C 0.40572 0.48855 0.81202 0.0
C874 C 0.40975 0.52345 0.78918 0.0
C875 C 0.39131 0.57473 0.74967 0.0
C876 C 0.36887 0.59004 0.73291 0.0
C877 C 0.38726 0.54025 0.77299 0.0
C878 C 0.34227 0.57071 0.7399 0.0
C879 C 0.33799 0.53743 0.76337 0.0
H880 H 0.64372 0.58348 0.81056 0.0
H881 H 0.55521 0.58027 0.82117 0.0
H882 H 0.55072 0.51705 0.78185 0.0
H883 H 0.57187 0.46361 0.74361 0.0
H884 H 0.66006 0.47202 0.73105 0.0
H885 H 0.66476 0.53192 0.77158 0.0
C886 C 0.6235 0.5687 0.80428 0.0
C887 C 0.59984 0.58645 0.81881 0.0
C888 C 0.62099 0.53329 0.78114 0.0
C889 C 0.57374 0.56738 0.81028 0.0
C890 C 0.57114 0.53115 0.78779 0.0
C891 C 0.59209 0.47847 0.74983 0.0
C892 C 0.61558 0.46308 0.7344 0.0
C893 C 0.59459 0.514 0.77292 0.0
C894 C 0.64163 0.48318 0.74256 0.0
C895 C 0.64435 0.51744 0.76578 0.0
H896 H 0.17006 0.13447 0.98632 0.0
H897 H 0.08187 0.14613 0.97541 0.0
H898 H 0.0751 0.14387 0.02561 0.0
H899 H 0.09429 0.12605 0.0726 0.0
H900 H 0.1825 0.11047 0.08203 0.0
H901 H 0.1893 0.12771 0.03281 0.0
C902 C 0.14938 0.13745 0.99494 0.0
C903 C 0.12652 0.13976 0.97714 0.0
C904 C 0.14566 0.13528 1.02373 0.0
C905 C 0.09985 0.14408 0.98864 0.0
C906 C 0.09596 0.14255 1.01738 0.0
C907 C 0.11496 0.12826 0.06389 0.0
C908 C 0.13793 0.11751 0.08085 0.0
C909 C 0.11868 0.13649 0.03517 0.0
C910 C 0.16459 0.11908 0.06933 0.0
C911 C 0.16847 0.12853 0.04116 0.0
H912 H 0.88036 0.93281 0.97728 0.0
H913 H 0.79124 0.94092 0.97427 0.0
H914 H 0.7888 0.9392 1.02437 0.0
H915 H 0.81176 0.94796 0.06899 0.0
H916 H 0.90039 0.93795 0.07394 0.0
H917 H 0.90337 0.92717 1.02345 0.0
C918 C 0.86046 0.93299 0.98765 0.0
C919 C 0.83603 0.93806 0.97198 0.0
C920 C 0.85911 0.93211 1.01687 0.0
C921 C 0.81038 0.93791 0.98575 0.0
C922 C 0.80891 0.93698 1.01448 0.0
C923 C 0.83167 0.94184 0.05902 0.0
C924 C 0.85579 0.9435 0.07496 0.0
C925 C 0.83311 0.93596 0.03022 0.0
C926 C 0.88153 0.93601 0.06199 0.0
C927 C 0.8832 0.93044 0.03312 0.0
H928 H 0.08141 0.96166 0.49073 0.0
H929 H 0.15125 0.85541 0.47382 0.0
H930 H 0.15729 0.83859 0.52342 0.0
H931 H 0.14686 0.86671 0.57183 0.0
H932 H 0.07653 0.97208 0.58795 0.0
H933 H 0.06601 0.97566 0.53866 0.0
C934 C 0.09754 0.9338 0.49794 0.0
C935 C 0.11607 0.91038 0.47878 0.0
C936 C 0.10076 0.92423 0.52641 0.0
C937 C 0.13675 0.87394 0.48823 0.0
C938 C 0.14029 0.86459 0.51661 0.0
C939 C 0.12858 0.88832 0.56454 0.0
C940 C 0.1122 0.91845 0.5834 0.0
C941 C 0.12298 0.89105 0.53596 0.0
C942 C 0.08905 0.94777 0.57377 0.0
C943 C 0.08325 0.9504 0.54556 0.0
H944 H 0.8162 0.08397 0.57142 0.0
H945 H 0.89602 0.16315 0.57449 0.0
H946 H 0.89714 0.1682 0.52359 0.0
H947 H 0.87723 0.13809 0.47793 0.0
H948 H 0.79754 0.0568 0.4777 0.0
H949 H 0.79431 0.06538 0.52751 0.0
C950 C 0.83364 0.10337 0.56096 0.0
C951 C 0.85604 0.12278 0.57652 0.0
C952 C 0.83418 0.10534 0.53206 0.0
C953 C 0.87844 0.14818 0.56284 0.0
C954 C 0.87914 0.15057 0.53376 0.0
C955 C 0.85897 0.1236 0.48885 0.0
C956 C 0.83772 0.09635 0.47417 0.0
C957 C 0.85743 0.12764 0.51804 0.0
C958 C 0.81425 0.07737 0.48854 0.0
C959 C 0.81237 0.08216 0.51707 0.0
H960 H 0.58078 0.59731 0.06393 0.0
H961 H 0.6488 0.70882 0.07988 0.0
H962 H 0.6577 0.71723 0.03012 0.0
H963 H 0.64991 0.68185 0.98238 0.0
H964 H 0.58192 0.5698 0.9674 0.0
H965 H 0.56892 0.57308 1.0162 0.0
C966 C 0.59717 0.62443 0.05646 0.0
C967 C 0.61426 0.65197 0.07554 0.0
C968 C 0.60224 0.62863 0.02791 0.0
C969 C 0.63532 0.68725 0.06561 0.0
C970 C 0.64053 0.69171 0.03715 0.0
C971 C 0.63175 0.65973 0.98978 0.0
C972 C 0.61665 0.62607 0.97141 0.0
C973 C 0.62468 0.66114 1.01812 0.0
C974 C 0.59354 0.59651 0.98118 0.0
C975 C 0.58627 0.59803 1.00911 0.0
H976 H 0.30642 0.44923 0.98452 0.0
H977 H 0.39175 0.40418 0.97168 0.0
H978 H 0.39877 0.39903 1.02176 0.0
H979 H 0.38157 0.41764 0.06956 0.0
H980 H 0.29678 0.46831 0.08081 0.0
H981 H 0.28852 0.46018 0.03138 0.0
C982 C 0.32647 0.43755 0.99265 0.0
C983 C 0.34857 0.42767 0.97439 0.0
C984 C 0.33046 0.4358 1.02138 0.0
C985 C 0.3744 0.41229 0.9853 0.0
C986 C 0.37844 0.40949 1.01397 0.0
C987 C 0.36119 0.42542 0.06113 0.0
C988 C 0.33974 0.44326 0.07875 0.0
C989 C 0.35678 0.42252 0.03229 0.0
C990 C 0.31355 0.45439 0.06761 0.0
C991 C 0.30883 0.45001 0.03932 0.0
H992 H 0.66761 0.39495 0.48234 0.0
H993 H 0.58033 0.41834 0.46899 0.0
H994 H 0.57204 0.41608 0.51891 0.0
H995 H 0.59082 0.42127 0.56662 0.0
H996 H 0.67815 0.3984 0.57927 0.0
H997 H 0.6852 0.38547 0.52969 0.0
C998 C 0.6467 0.39839 0.49037 0.0
C999 C 0.62469 0.40752 0.472 0.0
C1000 C 0.64213 0.39719 0.5191 0.0
C1001 C 0.59767 0.41143 0.48266 0.0
C1002 C 0.59294 0.41041 0.51126 0.0
C1003 C 0.61114 0.41119 0.55852 0.0
C1004 C 0.63391 0.40981 0.57652 0.0
C1005 C 0.61512 0.40509 0.52975 0.0
C1006 C 0.66031 0.39853 0.56579 0.0
C1007 C 0.66438 0.3918 0.53741 0.0
H1008 H 0.32289 0.64204 0.56658 0.0
H1009 H 0.41149 0.63485 0.57275 0.0
H1010 H 0.41562 0.63937 0.52218 0.0
H1011 H 0.39308 0.62762 0.47623 0.0
H1012 H 0.30416 0.63039 0.47157 0.0
H1013 H 0.30093 0.64668 0.52118 0.0
C1014 C 0.34311 0.64383 0.55682 0.0
C1015 C 0.36686 0.63891 0.5732 0.0
C1016 C 0.34516 0.64491 0.52787 0.0
C1017 C 0.39297 0.63984 0.56047 0.0
C1018 C 0.39527 0.64165 0.53155 0.0
C1019 C 0.37314 0.63404 0.48604 0.0
C1020 C 0.34884 0.6283 0.47035 0.0
C1021 C 0.37143 0.64175 0.51496 0.0
C1022 C 0.32307 0.63518 0.48328 0.0
C1023 C 0.32121 0.64406 0.51168 0.0
H1024 H 0.96121 0.92939 0.14567 0.0
H1025 H 0.92638 0.09545 0.14716 0.0
H1026 H 0.97286 0.13562 0.14599 0.0
H1027 H 0.02307 0.12345 0.14666 0.0
H1028 H 0.05795 0.95744 0.14779 0.0
H1029 H 0.01151 0.91723 0.14566 0.0
C1030 C 0.96373 0.97441 0.14546 0.0
C1031 C 0.94035 1.00942 0.14645 0.0
C1032 C -0.00955 0.99713 0.14535 0.0
C1033 C 0.94403 0.06761 0.1465 0.0
C1034 C 0.97058 0.09058 0.14581 0.0
C1035 C 0.0206 0.07843 0.14613 0.0
C1036 C 0.04397 0.04345 0.1473 0.0
C1037 C -0.0061 0.05571 0.14552 0.0
C1038 C 0.04032 0.98526 0.14696 0.0
C1039 C 0.01378 0.96227 0.14575 0.0
H1040 H 0.95454 0.11153 0.41547 0.0
H1041 H 0.91757 0.9476 0.41155 0.0
H1042 H 0.96339 0.90471 0.41335 0.0
H1043 H 0.014 0.91424 0.41241 0.0
H1044 H 0.05067 0.07868 0.41313 0.0
H1045 H 0.00486 0.12095 0.41635 0.0
C1046 C 0.95645 0.06638 0.41547 0.0
C1047 C 0.93271 0.03279 0.41338 0.0
C1048 C 0.98282 0.04215 0.4157 0.0
C1049 C 0.93556 0.97438 0.41304 0.0
C1050 C 0.96175 0.94984 0.41403 0.0
C1051 C 0.01196 0.95929 0.41362 0.0
C1052 C 0.03565 0.9933 0.41246 0.0
C1053 C 0.98553 0.98337 0.4148 0.0
C1054 C 0.03271 0.05162 0.4138 0.0
C1055 C 0.00654 0.07582 0.41567 0.0
H1056 H 0.01586 0.14042 0.90648 0.0
H1057 H 0.05154 0.97508 0.90676 0.0
H1058 H 0.00529 0.93394 0.90778 0.0
H1059 H 0.9551 0.94495 0.90669 0.0
H1060 H 0.91919 0.10999 0.90392 0.0
H1061 H 0.96542 0.15143 0.9059 0.0
C1062 C 0.01356 0.09536 0.90703 0.0
C1063 C 0.03711 0.06081 0.90664 0.0
C1064 C 0.98695 0.07206 0.90708 0.0
C1065 C 0.03375 1.00255 0.90702 0.0
C1066 C 0.00733 0.97904 0.9076 0.0
C1067 C 0.95728 0.99004 0.90679 0.0
C1068 C 0.93371 1.02438 0.90525 0.0
C1069 C 0.98383 1.01341 0.90737 0.0
C1070 C 0.937 0.08267 0.90507 0.0
C1071 C 0.96341 0.10633 0.90619 0.0
H1072 H 0.94017 0.99326 0.65853 0.0
H1073 H 0.9662 0.15321 0.62612 0.0
H1074 H 0.01435 0.12387 0.62799 0.0
H1075 H 0.04942 0.05415 0.64107 0.0
H1076 H 0.02276 0.89415 0.67267 0.0
H1077 H 0.97462 0.92246 0.66911 0.0
C1078 C 0.95632 1.02154 0.6516 0.0
C1079 C 0.94958 0.07537 0.64247 0.0
C1080 C 0.98395 1.00472 0.65291 0.0
C1081 C 0.97079 0.11141 0.63337 0.0
C1082 C -0.00161 0.09488 0.63456 0.0
C1083 C 0.033 1.02581 0.64725 0.0
C1084 C 0.0395 0.97251 0.65723 0.0
C1085 C 0.00526 0.04199 0.64479 0.0
C1086 C 0.01816 0.93553 0.66483 0.0
C1087 C -0.00936 0.95157 0.66281 0.0
H1088 H 0.43104 0.57415 0.15123 0.0
H1089 H 0.45588 0.40701 0.12876 0.0
H1090 H 0.50424 0.43494 0.12931 0.0
H1091 H 0.53993 0.50586 0.13824 0.0
H1092 H 0.51505 0.67398 0.15826 0.0
H1093 H 0.46648 0.64662 0.15676 0.0
C1094 C 0.44702 0.54403 0.1462 0.0
C1095 C 0.4398 0.48865 0.14012 0.0
C1096 C 0.4749 0.56035 0.14637 0.0
C1097 C 0.46077 0.45012 0.13343 0.0
C1098 C 0.48853 0.46586 0.13391 0.0
C1099 C 0.5238 0.53631 0.14225 0.0
C1100 C 0.53092 0.59157 0.14851 0.0
C1101 C 0.49587 0.52064 0.14075 0.0
C1102 C 0.50996 0.63108 0.1533 0.0
C1103 C 0.4822 0.61553 0.15249 0.0
H1104 H 0.45922 0.6235 0.39888 0.0
H1105 H 0.42156 0.45996 0.40259 0.0
H1106 H 0.46723 0.41677 0.40385 0.0
H1107 H 0.51752 0.42516 0.40199 0.0
H1108 H 0.55543 0.58827 0.39662 0.0
H1109 H 0.50979 0.63197 0.398 0.0
C1110 C 0.46095 0.57842 0.40024 0.0
C1111 C 0.43696 0.54502 0.40063 0.0
C1112 C 0.48726 0.5538 0.40051 0.0
C1113 C 0.43965 0.48666 0.40216 0.0
C1114 C 0.46576 0.46191 0.40287 0.0
C1115 C 0.51591 0.47033 0.40128 0.0
C1116 C 0.53991 0.50338 0.39916 0.0
C1117 C 0.48966 0.49506 0.40175 0.0
C1118 C 0.53732 0.56181 0.39817 0.0
C1119 C 0.51122 0.58683 0.39897 0.0
H1120 H 0.46108 0.43259 0.90957 0.0
H1121 H 0.42292 0.59547 0.90596 0.0
H1122 H 0.46834 0.63971 0.90789 0.0
H1123 H 0.51874 0.63198 0.90747 0.0
H1124 H 0.55708 0.46912 0.90849 0.0
H1125 H 0.51158 0.42495 0.91091 0.0
C1126 C 0.46265 0.47779 0.90952 0.0
C1127 C 0.43865 0.5107 0.90757 0.0
C1128 C 0.48883 0.5029 0.91005 0.0
C1129 C 0.44107 0.56918 0.90733 0.0
C1130 C 0.46704 0.59451 0.90843 0.0
C1131 C 0.51721 0.58682 0.90859 0.0
C1132 C 0.54126 0.55387 0.90773 0.0
C1133 C 0.49104 0.56175 0.90934 0.0
C1134 C 0.53887 0.49542 0.90896 0.0
C1135 C 0.51287 0.47014 0.91034 0.0
H1136 H 0.44121 0.49166 0.6436 0.0
H1137 H 0.46698 0.66385 0.6507 0.0
H1138 H 0.5152 0.6358 0.64964 0.0
H1139 H 0.55027 0.56235 0.6488 0.0
H1140 H 0.5247 0.39018 0.64082 0.0
H1141 H 0.47649 0.41848 0.63989 0.0
C1142 C 0.45739 0.52296 0.64483 0.0
C1143 C 0.45047 0.57953 0.64738 0.0
C1144 C 0.48524 0.50672 0.64405 0.0
C1145 C 0.47168 0.61981 0.64868 0.0
C1146 C 0.49934 0.60393 0.64814 0.0
C1147 C 0.53417 0.53108 0.64666 0.0
C1148 C 0.54114 0.47438 0.64512 0.0
C1149 C 0.50637 0.54747 0.64612 0.0
C1150 C 0.52 0.43432 0.64213 0.0
C1151 C 0.49232 0.45033 0.64167 0.0
H1152 H 0.16224 0.69276 0.18784 0.0
H1153 H 0.10388 0.73828 0.12441 0.0
H1154 H 0.09267 0.6401 0.11725 0.0
H1155 H 0.09867 0.54125 0.12948 0.0
H1156 H 0.15752 0.49525 0.19225 0.0
H1157 H 0.16991 0.59343 0.19849 0.0
C1158 C 0.14737 0.6813 0.17215 0.0
C1159 C 0.13379 0.72328 0.15689 0.0
C1160 C 0.14117 0.62451 0.16789 0.0
C1161 C 0.11429 0.70724 0.1369 0.0
C1162 C 0.10797 0.65096 0.13263 0.0
C1163 C 0.11416 0.55271 0.14459 0.0
C1164 C 0.12702 0.51087 0.16047 0.0
C1165 C 0.12108 0.60928 0.14818 0.0
C1166 C 0.14744 0.52645 0.17958 0.0
C1167 C 0.1544 0.58267 0.18329 0.0
H1168 H 0.83768 0.35529 0.1968 0.0
H1169 H 0.85213 0.32256 0.11034 0.0
H1170 H 0.86079 0.42173 0.10221 0.0
H1171 H 0.86458 0.51786 0.11963 0.0
H1172 H 0.85003 0.55054 0.20606 0.0
H1173 H 0.8403 0.45168 0.21399 0.0
C1174 C 0.84239 0.36985 0.1761 0.0
C1175 C 0.84434 0.33122 0.15426 0.0
C1176 C 0.84718 0.42711 0.1715 0.0
C1177 C 0.85091 0.35102 0.12765 0.0
C1178 C 0.8557 0.40786 0.12293 0.0
C1179 C 0.85937 0.50334 0.14023 0.0
C1180 C 0.85806 0.54176 0.16219 0.0
C1181 C 0.85404 0.44626 0.14472 0.0
C1182 C 0.85086 0.52219 0.18867 0.0
C1183 C 0.84549 0.46552 0.19328 0.0
H1184 H 0.09524 0.31853 0.3874 0.0
H1185 H 0.17611 0.33114 0.42418 0.0
H1186 H 0.17131 0.43265 0.42677 0.0
H1187 H 0.14487 0.51883 0.41661 0.0
H1188 H 0.06432 0.50487 0.37921 0.0
H1189 H 0.06854 0.4035 0.37843 0.0
C1190 C 0.11193 0.3434 0.39585 0.0
C1191 C 0.13605 0.31688 0.40547 0.0
C1192 C 0.10918 0.40187 0.39699 0.0
C1193 C 0.15717 0.35006 0.41686 0.0
C1194 C 0.15452 0.4083 0.41819 0.0
C1195 C 0.12815 0.49355 0.40854 0.0
C1196 C 0.10444 0.51976 0.39769 0.0
C1197 C 0.1307 0.4348 0.4081 0.0
C1198 C 0.08304 0.48614 0.3872 0.0
C1199 C 0.08536 0.428 0.38687 0.0
H1200 H 0.87981 0.53617 0.42683 0.0
H1201 H 0.82396 0.48692 0.36203 0.0
H1202 H 0.81234 0.58478 0.3535 0.0
H1203 H 0.81964 0.6848 0.36297 0.0
H1204 H 0.87494 0.73353 0.42845 0.0
H1205 H 0.88558 0.63578 0.43762 0.0
C1206 C 0.86516 0.54681 0.41076 0.0
C1207 C 0.85289 0.50401 0.39504 0.0
C1208 C 0.85865 0.60328 0.40585 0.0
C1209 C 0.83356 0.51875 0.37465 0.0
C1210 C 0.82703 0.57483 0.36962 0.0
C1211 C 0.83374 0.67418 0.37951 0.0
C1212 C 0.84662 0.71703 0.39477 0.0
C1213 C 0.83961 0.61753 0.38494 0.0
C1214 C 0.8651 0.70191 0.4159 0.0
C1215 C 0.87109 0.64582 0.42134 0.0
H1216 H 0.80979 0.3722 0.88669 0.0
H1217 H 0.89617 0.3279 0.8912 0.0
H1218 H 0.90868 0.42652 0.89377 0.0
H1219 H 0.89533 0.52556 0.8939 0.0
H1220 H 0.80897 0.57011 0.88953 0.0
H1221 H 0.79642 0.47145 0.88686 0.0
C1222 C 0.83139 0.38401 0.88797 0.0
C1223 C 0.85196 0.34223 0.88878 0.0
C1224 C 0.83852 0.44105 0.88924 0.0
C1225 C 0.87981 0.35875 0.89093 0.0
C1226 C 0.88702 0.41531 0.89221 0.0
C1227 C 0.87371 0.51383 0.89266 0.0
C1228 C 0.85318 0.55567 0.89195 0.0
C1229 C 0.86657 0.45684 0.89139 0.0
C1230 C 0.82532 0.53922 0.88977 0.0
C1231 C 0.81807 0.48264 0.88843 0.0
H1232 H 0.08065 0.55623 0.91347 0.0
H1233 H 0.15582 0.51473 0.8698 0.0
H1234 H 0.16776 0.6137 0.86667 0.0
H1235 H 0.15651 0.71219 0.87557 0.0
H1236 H 0.08133 0.75356 0.91926 0.0
H1237 H 0.06939 0.65463 0.92235 0.0
C1238 C 0.09952 0.56877 0.90301 0.0
C1239 C 0.11727 0.52783 0.89187 0.0
C1240 C 0.10618 0.62585 0.90108 0.0
C1241 C 0.14191 0.54507 0.87887 0.0
C1242 C 0.14868 0.60177 0.8769 0.0
C1243 C 0.13763 0.69962 0.886 0.0
C1244 C 0.11987 0.74054 0.89716 0.0
C1245 C 0.13097 0.64252 0.88792 0.0
C1246 C 0.09524 0.72326 0.91016 0.0
C1247 C 0.08847 0.66657 0.91211 0.0
H1248 H 0.82012 0.71887 0.65828 0.0
H1249 H 0.90716 0.75866 0.65977 0.0
H1250 H 0.91862 0.66018 0.65402 0.0
H1251 H 0.90412 0.56256 0.65026 0.0
H1252 H 0.81721 0.52172 0.64857 0.0
H1253 H 0.80555 0.62062 0.65337 0.0
C1254 C 0.84159 0.70594 0.65745 0.0
C1255 C 0.86273 0.74626 0.6594 0.0
C1256 C 0.84808 0.649 0.65433 0.0
C1257 C 0.89045 0.72877 0.65793 0.0
C1258 C 0.89705 0.67235 0.65483 0.0
C1259 C 0.8826 0.57523 0.65051 0.0
C1260 C 0.8616 0.53457 0.64899 0.0
C1261 C 0.87605 0.63211 0.65312 0.0
C1262 C 0.83383 0.55193 0.64999 0.0
C1263 C 0.82713 0.60855 0.6526 0.0
H1264 H 0.0952 0.31318 0.65604 0.0
H1265 H 0.18398 0.32806 0.65138 0.0
H1266 H 0.18005 0.42983 0.64961 0.0
H1267 H 0.15146 0.51484 0.65356 0.0
H1268 H 0.06271 0.4989 0.65891 0.0
H1269 H 0.0666 0.39749 0.65663 0.0
C1270 C 0.11369 0.33869 0.65462 0.0
C1271 C 0.13983 0.31303 0.65411 0.0
C1272 C 0.11131 0.39709 0.65402 0.0
C1273 C 0.16358 0.34668 0.65165 0.0
C1274 C 0.16136 0.40492 0.65084 0.0
C1275 C 0.13297 0.48919 0.65373 0.0
C1276 C 0.10687 0.51443 0.65678 0.0
C1277 C 0.13535 0.43065 0.65254 0.0
C1278 C 0.0831 0.48051 0.65712 0.0
C1279 C 0.08528 0.4225 0.65572 0.0
H1280 H 0.58948 0.06874 0.12364 0.0
H1281 H 0.65642 0.03127 0.17936 0.0
H1282 H 0.66841 0.13021 0.18155 0.0
H1283 H 0.65826 0.22794 0.16987 0.0
H1284 H 0.59124 0.26564 0.11426 0.0
H1285 H 0.58051 0.16629 0.11045 0.0
C1286 C 0.60666 0.08218 0.13632 0.0
C1287 C 0.62194 0.04239 0.15136 0.0
C1288 C 0.61325 0.13935 0.13779 0.0
C1289 C 0.64446 0.06067 0.16729 0.0
C1290 C 0.65121 0.1174 0.16875 0.0
C1291 C 0.64156 0.2145 0.15657 0.0
C1292 C 0.62552 0.25454 0.14249 0.0
C1293 C 0.63556 0.15718 0.15434 0.0
C1294 C 0.60367 0.23605 0.12572 0.0
C1295 C 0.59761 0.17912 0.12338 0.0
H1296 H 0.35034 0.84319 0.20407 0.0
H1297 H 0.33987 0.80916 0.11725 0.0
H1298 H 0.34572 0.90819 0.10668 0.0
H1299 H 0.35411 1.00459 0.12194 0.0
H1300 H 0.36442 0.03878 0.20874 0.0
H1301 H 0.35751 0.94 0.21945 0.0
C1302 C 0.34901 0.85742 0.18286 0.0
C1303 C 0.3448 0.81841 0.16151 0.0
C1304 C 0.3522 0.91466 0.17689 0.0
C1305 C 0.34355 0.83786 0.1341 0.0
C1306 C 0.34671 0.89464 0.12802 0.0
C1307 C 0.35496 0.99044 0.14321 0.0
C1308 C 0.35982 0.02928 0.16447 0.0
C1309 C 0.3512 0.9334 0.14923 0.0
C1310 C 0.36039 1.01013 0.19195 0.0
C1311 C 0.35664 0.95348 0.1981 0.0
H1312 H 0.59263 1.00521 0.35905 0.0
H1313 H 0.64295 0.04241 0.43013 0.0
H1314 H 0.65418 0.94359 0.43514 0.0
H1315 H 0.64904 0.84599 0.42009 0.0
H1316 H 0.59856 0.80875 0.34914 0.0
H1317 H 0.58743 0.90763 0.34404 0.0
C1318 C 0.60587 0.99182 0.37582 0.0
C1319 C 0.61692 0.03179 0.39412 0.0
C1320 C 0.61203 0.93456 0.37883 0.0
C1321 C 0.63444 1.01317 0.4154 0.0
C1322 C 0.64072 0.95641 0.41845 0.0
C1323 C 0.63576 0.85942 0.40335 0.0
C1324 C 0.62465 0.81945 0.38509 0.0
C1325 C 0.62961 0.91667 0.40033 0.0
C1326 C 0.60712 0.83804 0.36383 0.0
C1327 C 0.6009 0.89482 0.36073 0.0
H1328 H 0.38497 0.04217 0.42078 0.0
H1329 H 0.32081 0.99889 0.36295 0.0
H1330 H 0.3077 0.09707 0.35906 0.0
H1331 H 0.31614 0.19577 0.37 0.0
H1332 H 0.37995 0.23903 0.4283 0.0
H1333 H 0.39187 0.14059 0.4335 0.0
C1334 C 0.36814 0.05422 0.40729 0.0
C1335 C 0.35399 1.01308 0.39211 0.0
C1336 C 0.36082 0.1109 0.40497 0.0
C1337 C 0.33191 0.02945 0.37509 0.0
C1338 C 0.32451 0.08572 0.37269 0.0
C1339 C 0.33236 0.18376 0.3842 0.0
C1340 C 0.34722 0.22517 0.39855 0.0
C1341 C 0.339 0.12688 0.38731 0.0
C1342 C 0.36847 0.20843 0.41655 0.0
C1343 C 0.37521 0.152 0.41969 0.0
H1344 H 0.33601 0.85365 0.85922 0.0
H1345 H 0.37095 0.81679 0.93907 0.0
H1346 H 0.38067 0.91583 0.94612 0.0
H1347 H 0.37868 1.01327 0.92999 0.0
H1348 H 0.3439 0.04995 0.85003 0.0
H1349 H 0.3339 0.95104 0.84315 0.0
C1350 C 0.34553 0.86722 0.87829 0.0
C1351 C 0.35274 0.82744 0.89855 0.0
C1352 C 0.35087 0.92445 0.88235 0.0
C1353 C 0.36551 0.84608 0.92291 0.0
C1354 C 0.3709 0.90289 0.92707 0.0
C1355 C 0.36911 0.9997 0.91094 0.0
C1356 C 0.36205 0.03944 0.8906 0.0
C1357 C 0.36368 0.94247 0.90694 0.0
C1358 C 0.34921 1.02077 0.86627 0.0
C1359 C 0.34367 0.964 0.8622 0.0
H1360 H 0.66004 0.20667 0.86898 0.0
H1361 H 0.59774 0.25207 0.92895 0.0
H1362 H 0.58574 0.15393 0.93525 0.0
H1363 H 0.59218 0.05509 0.92319 0.0
H1364 H 0.65487 1.00934 0.8638 0.0
H1365 H 0.66801 0.10738 0.85858 0.0
C1366 C 0.64412 0.1952 0.88376 0.0
C1367 C 0.6297 0.2372 0.89826 0.0
C1368 C 0.63744 0.1384 0.88752 0.0
C1369 C 0.60886 0.22108 0.91704 0.0
C1370 C 0.60208 0.16479 0.92082 0.0
C1371 C 0.60868 0.06655 0.90904 0.0
C1372 C 0.6224 1.02473 0.89383 0.0
C1373 C 0.61603 0.12313 0.90599 0.0
C1374 C 0.64409 0.04042 0.87598 0.0
C1375 C 0.6515 0.0966 0.87283 0.0
H1376 H 0.39109 0.05261 0.6211 0.0
H1377 H 0.3244 1.01792 0.67812 0.0
H1378 H 0.31263 0.11688 0.6795 0.0
H1379 H 0.32351 0.21376 0.66753 0.0
H1380 H 0.39037 0.24935 0.61086 0.0
H1381 H 0.40026 0.1496 0.60693 0.0
C1382 C 0.37396 0.06672 0.63381 0.0
C1383 C 0.35873 1.02785 0.64955 0.0
C1384 C 0.36756 0.12389 0.63488 0.0
C1385 C 0.33629 0.04674 0.66554 0.0
C1386 C 0.32968 0.10344 0.66655 0.0
C1387 C 0.33991 0.19977 0.65387 0.0
C1388 C 0.35624 0.23913 0.63961 0.0
C1389 C 0.34544 0.14244 0.65166 0.0
C1390 C 0.37774 0.22008 0.62241 0.0
C1391 C 0.38332 0.16301 0.62004 0.0
H1392 H 0.66763 0.83989 0.67103 0.0
H1393 H 0.60387 0.80401 0.61147 0.0
H1394 H 0.59415 0.90366 0.60682 0.0
H1395 H 0.60224 1.00059 0.62139 0.0
H1396 H 0.66604 0.03599 0.68091 0.0
H1397 H 0.67795 0.937 0.68304 0.0
C1398 C 0.65198 0.85379 0.65659 0.0
C1399 C 0.63638 0.81432 0.64178 0.0
C1400 C 0.64656 0.91113 0.65393 0.0
C1401 C 0.61587 0.83331 0.62351 0.0
C1402 C 0.61039 0.89033 0.62072 0.0
C1403 C 0.6188 0.9866 0.63476 0.0
C1404 C 0.63311 1.02557 0.65108 0.0
C1405 C 0.6253 0.92953 0.63617 0.0
C1406 C 0.65485 1.00697 0.66795 0.0
C1407 C 0.66152 0.9503 0.66936 0.0
loop_
_geom_bond_atom_site_label_1
_geom_bond_atom_site_label_2
_geom_bond_distance
_geom_bond_site_symmetry_2
_ccdc_geom_bond_type
Sm0 C2 2.846 1_545 S
Sm0 O20 2.543 1_545 S
Sm0 O21 2.450 1_545 S
Sm0 O22 2.681 . S
Sm0 O23 2.464 . S
Sm0 O24 2.396 . S
Sm0 O28 2.386 . S
Sm0 O31 2.408 . S
Sm1 C11 2.846 . S
Sm1 O22 2.386 . S
Sm1 O25 2.408 . S
Sm1 O26 2.543 . S
Sm1 O27 2.450 . S
Sm1 O28 2.681 . S
Sm1 O29 2.464 . S
Sm1 O30 2.396 . S
C2 Sm0 2.846 1_565 S
C2 C3 1.506 . S
C2 O20 1.261 . S
C2 O21 1.242 . S
C3 C2 1.506 . S
C3 C4 1.358 . S
C3 C8 1.382 . S
C4 C3 1.358 . S
C4 C5 1.385 . S
C4 H32 0.930 . S
C5 C4 1.385 . S
C5 C6 1.395 . S
C5 H33 0.929 . S
C6 C5 1.395 . S
C6 C7 1.335 . S
C7 C6 1.335 . S
C7 C8 1.398 . S
C7 H34 0.930 . S
C8 C3 1.382 . S
C8 C7 1.398 . S
C8 H35 0.929 . S
C9 O22 1.271 . S
C9 O23 1.251 . S
C10 O24 1.252 . S
C10 O25 1.272 . S
C11 Sm1 2.846 . S
C11 C12 1.506 . S
C11 O26 1.261 . S
C11 O27 1.242 . S
C12 C11 1.506 . S
C12 C13 1.358 . S
C12 C17 1.382 . S
C13 C12 1.358 . S
C13 C14 1.385 . S
C13 H36 0.930 . S
C14 C13 1.385 . S
C14 C15 1.395 . S
C14 H37 0.929 . S
C15 C14 1.395 . S
C15 C16 1.335 . S
C16 C15 1.335 . S
C16 C17 1.398 . S
C16 H38 0.930 . S
C17 C12 1.382 . S
C17 C16 1.398 . S
C17 H39 0.929 . S
C18 O28 1.271 . S
C18 O29 1.251 . S
C19 O30 1.252 . S
C19 O31 1.272 . S
O20 Sm0 2.543 1_565 S
O20 C2 1.261 . S
O21 Sm0 2.450 1_565 S
O21 C2 1.242 . S
O22 Sm0 2.681 . S
O22 Sm1 2.386 . S
O22 C9 1.271 . S
O23 Sm0 2.464 . S
O23 C9 1.251 . S
O24 Sm0 2.396 . S
O24 C10 1.252 . S
O25 Sm1 2.408 . S
O25 C10 1.272 . S
O26 Sm1 2.543 . S
O26 C11 1.261 . S
O27 Sm1 2.450 . S
O27 C11 1.242 . S
O28 Sm0 2.386 . S
O28 Sm1 2.681 . S
O28 C18 1.271 . S
O29 Sm1 2.464 . S
O29 C18 1.251 . S
O30 Sm1 2.396 . S
O30 C19 1.252 . S
O31 Sm0 2.408 . S
O31 C19 1.272 . S
H32 C4 0.930 . S
H33 C5 0.929 . S
H34 C7 0.930 . S
H35 C8 0.929 . S
H36 C13 0.930 . S
H37 C14 0.929 . S
H38 C16 0.930 . S
H39 C17 0.929 . S
Sm40 C42 2.846 1_565 S
Sm40 O60 2.543 1_565 S
Sm40 O61 2.450 1_565 S
Sm40 O62 2.681 . S
Sm40 O63 2.464 . S
Sm40 O64 2.396 . S
Sm40 O68 2.386 . S
Sm40 O71 2.408 . S
Sm41 C51 2.846 . S
Sm41 O62 2.386 . S
Sm41 O65 2.408 . S
Sm41 O66 2.543 . S
Sm41 O67 2.450 . S
Sm41 O68 2.681 . S
Sm41 O69 2.464 . S
Sm41 O70 2.396 . S
C42 Sm40 2.846 1_545 S
C42 C43 1.506 . S
C42 O60 1.261 . S
C42 O61 1.242 . S
C43 C42 1.506 . S
C43 C44 1.358 . S
C43 C48 1.382 . S
C44 C43 1.358 . S
C44 C45 1.385 . S
C44 H72 0.930 . S
C45 C44 1.385 . S
C45 C46 1.395 . S
C45 H73 0.929 . S
C46 C45 1.395 . S
C46 C47 1.335 . S
C47 C46 1.335 . S
C47 C48 1.398 . S
C47 H74 0.930 . S
C48 C43 1.382 . S
C48 C47 1.398 . S
C48 H75 0.929 . S
C49 O62 1.271 . S
C49 O63 1.251 . S
C50 O64 1.252 . S
C50 O65 1.272 . S
C51 Sm41 2.846 . S
C51 C52 1.506 . S
C51 O66 1.261 . S
C51 O67 1.242 . S
C52 C51 1.506 . S
C52 C53 1.358 . S
C52 C57 1.382 . S
C53 C52 1.358 . S
C53 C54 1.385 . S
C53 H76 0.930 . S
C54 C53 1.385 . S
C54 C55 1.395 . S
C54 H77 0.929 . S
C55 C54 1.395 . S
C55 C56 1.335 . S
C56 C55 1.335 . S
C56 C57 1.398 . S
C56 H78 0.930 . S
C57 C52 1.382 . S
C57 C56 1.398 . S
C57 H79 0.929 . S
C58 O68 1.271 . S
C58 O69 1.251 . S
C59 O70 1.252 . S
C59 O71 1.272 . S
O60 Sm40 2.543 1_545 S
O60 C42 1.261 . S
O61 Sm40 2.450 1_545 S
O61 C42 1.242 . S
O62 Sm40 2.681 . S
O62 Sm41 2.386 . S
O62 C49 1.271 . S
O63 Sm40 2.464 . S
O63 C49 1.251 . S
O64 Sm40 2.396 . S
O64 C50 1.252 . S
O65 Sm41 2.408 . S
O65 C50 1.272 . S
O66 Sm41 2.543 . S
O66 C51 1.261 . S
O67 Sm41 2.450 . S
O67 C51 1.242 . S
O68 Sm40 2.386 . S
O68 Sm41 2.681 . S
O68 C58 1.271 . S
O69 Sm41 2.464 . S
O69 C58 1.251 . S
O70 Sm41 2.396 . S
O70 C59 1.252 . S
O71 Sm40 2.408 . S
O71 C59 1.272 . S
H72 C44 0.930 . S
H73 C45 0.929 . S
H74 C47 0.930 . S
H75 C48 0.929 . S
H76 C53 0.930 . S
H77 C54 0.929 . S
H78 C56 0.930 . S
H79 C57 0.929 . S
Sm80 C82 2.846 1_565 S
Sm80 O100 2.543 1_565 S
Sm80 O101 2.450 1_565 S
Sm80 O102 2.681 . S
Sm80 O103 2.464 . S
Sm80 O104 2.396 . S
Sm80 O108 2.386 . S
Sm80 O111 2.408 . S
Sm81 C91 2.846 . S
Sm81 O102 2.386 . S
Sm81 O105 2.408 . S
Sm81 O106 2.543 . S
Sm81 O107 2.450 . S
Sm81 O108 2.681 . S
Sm81 O109 2.464 . S
Sm81 O110 2.396 . S
C82 Sm80 2.846 1_545 S
C82 C83 1.506 . S
C82 O100 1.261 . S
C82 O101 1.242 . S
C83 C82 1.506 . S
C83 C84 1.358 . S
C83 C88 1.382 . S
C84 C83 1.358 . S
C84 C85 1.385 . S
C84 H112 0.930 . S
C85 C84 1.385 . S
C85 C86 1.395 . S
C85 H113 0.929 . S
C86 C85 1.395 . S
C86 C87 1.335 . S
C87 C86 1.335 . S
C87 C88 1.398 . S
C87 H114 0.930 . S
C88 C83 1.382 . S
C88 C87 1.398 . S
C88 H115 0.929 . S
C89 O102 1.271 . S
C89 O103 1.251 . S
C90 O104 1.252 . S
C90 O105 1.272 . S
C91 Sm81 2.846 . S
C91 C92 1.506 . S
C91 O106 1.261 . S
C91 O107 1.242 . S
C92 C91 1.506 . S
C92 C93 1.358 . S
C92 C97 1.382 . S
C93 C92 1.358 . S
C93 C94 1.385 . S
C93 H116 0.930 . S
C94 C93 1.385 . S
C94 C95 1.395 . S
C94 H117 0.929 . S
C95 C94 1.395 . S
C95 C96 1.335 . S
C96 C95 1.335 . S
C96 C97 1.398 . S
C96 H118 0.930 . S
C97 C92 1.382 . S
C97 C96 1.398 . S
C97 H119 0.929 . S
C98 O108 1.271 . S
C98 O109 1.251 . S
C99 O110 1.252 . S
C99 O111 1.272 . S
O100 Sm80 2.543 1_545 S
O100 C82 1.261 . S
O101 Sm80 2.450 1_545 S
O101 C82 1.242 . S
O102 Sm80 2.681 . S
O102 Sm81 2.386 . S
O102 C89 1.271 . S
O103 Sm80 2.464 . S
O103 C89 1.251 . S
O104 Sm80 2.396 . S
O104 C90 1.252 . S
O105 Sm81 2.408 . S
O105 C90 1.272 . S
O106 Sm81 2.543 . S
O106 C91 1.261 . S
O107 Sm81 2.450 . S
O107 C91 1.242 . S
O108 Sm80 2.386 . S
O108 Sm81 2.681 . S
O108 C98 1.271 . S
O109 Sm81 2.464 . S
O109 C98 1.251 . S
O110 Sm81 2.396 . S
O110 C99 1.252 . S
O111 Sm80 2.408 . S
O111 C99 1.272 . S
H112 C84 0.930 . S
H113 C85 0.929 . S
H114 C87 0.930 . S
H115 C88 0.929 . S
H116 C93 0.930 . S
H117 C94 0.929 . S
H118 C96 0.930 . S
H119 C97 0.929 . S
Sm120 C122 2.846 1_545 S
Sm120 O140 2.543 1_545 S
Sm120 O141 2.450 1_545 S
Sm120 O142 2.681 . S
Sm120 O143 2.464 . S
Sm120 O144 2.396 . S
Sm120 O148 2.386 . S
Sm120 O151 2.408 . S
Sm121 C131 2.846 . S
Sm121 O142 2.386 . S
Sm121 O145 2.408 . S
Sm121 O146 2.543 . S
Sm121 O147 2.450 . S
Sm121 O148 2.681 . S
Sm121 O149 2.464 . S
Sm121 O150 2.396 . S
C122 Sm120 2.846 1_565 S
C122 C123 1.506 . S
C122 O140 1.261 . S
C122 O141 1.242 . S
C123 C122 1.506 . S
C123 C124 1.358 . S
C123 C128 1.382 . S
C124 C123 1.358 . S
C124 C125 1.385 . S
C124 H152 0.930 . S
C125 C124 1.385 . S
C125 C126 1.395 . S
C125 H153 0.929 . S
C126 C125 1.395 . S
C126 C127 1.335 . S
C127 C126 1.335 . S
C127 C128 1.398 . S
C127 H154 0.930 . S
C128 C123 1.382 . S
C128 C127 1.398 . S
C128 H155 0.929 . S
C129 O142 1.271 . S
C129 O143 1.251 . S
C130 O144 1.252 . S
C130 O145 1.272 . S
C131 Sm121 2.846 . S
C131 C132 1.506 . S
C131 O146 1.261 . S
C131 O147 1.242 . S
C132 C131 1.506 . S
C132 C133 1.358 . S
C132 C137 1.382 . S
C133 C132 1.358 . S
C133 C134 1.385 . S
C133 H156 0.930 . S
C134 C133 1.385 . S
C134 C135 1.395 . S
C134 H157 0.929 . S
C135 C134 1.395 . S
C135 C136 1.335 . S
C136 C135 1.335 . S
C136 C137 1.398 . S
C136 H158 0.930 . S
C137 C132 1.382 . S
C137 C136 1.398 . S
C137 H159 0.929 . S
C138 O148 1.271 . S
C138 O149 1.251 . S
C139 O150 1.252 . S
C139 O151 1.272 . S
O140 Sm120 2.543 1_565 S
O140 C122 1.261 . S
O141 Sm120 2.450 1_565 S
O141 C122 1.242 . S
O142 Sm120 2.681 . S
O142 Sm121 2.386 . S
O142 C129 1.271 . S
O143 Sm120 2.464 . S
O143 C129 1.251 . S
O144 Sm120 2.396 . S
O144 C130 1.252 . S
O145 Sm121 2.408 . S
O145 C130 1.272 . S
O146 Sm121 2.543 . S
O146 C131 1.261 . S
O147 Sm121 2.450 . S
O147 C131 1.242 . S
O148 Sm120 2.386 . S
O148 Sm121 2.681 . S
O148 C138 1.271 . S
O149 Sm121 2.464 . S
O149 C138 1.251 . S
O150 Sm121 2.396 . S
O150 C139 1.252 . S
O151 Sm120 2.408 . S
O151 C139 1.272 . S
H152 C124 0.930 . S
H153 C125 0.929 . S
H154 C127 0.930 . S
H155 C128 0.929 . S
H156 C133 0.930 . S
H157 C134 0.929 . S
H158 C136 0.930 . S
H159 C137 0.929 . S
Sm160 C162 2.846 . S
Sm160 O180 2.543 . S
Sm160 O181 2.450 . S
Sm160 O182 2.681 . S
Sm160 O183 2.464 . S
Sm160 O184 2.396 . S
Sm160 O188 2.386 . S
Sm160 O191 2.408 . S
Sm161 C171 2.846 1_565 S
Sm161 O182 2.386 . S
Sm161 O185 2.408 . S
Sm161 O186 2.543 1_565 S
Sm161 O187 2.450 1_565 S
Sm161 O188 2.681 . S
Sm161 O189 2.464 . S
Sm161 O190 2.396 . S
C162 Sm160 2.846 . S
C162 C163 1.506 . S
C162 O180 1.261 . S
C162 O181 1.242 . S
C163 C162 1.506 . S
C163 C164 1.358 . S
C163 C168 1.382 . S
C164 C163 1.358 . S
C164 C165 1.385 . S
C164 H192 0.930 . S
C165 C164 1.385 . S
C165 C166 1.395 . S
C165 H193 0.929 . S
C166 C165 1.395 . S
C166 C167 1.335 . S
C167 C166 1.335 . S
C167 C168 1.398 . S
C167 H194 0.930 . S
C168 C163 1.382 . S
C168 C167 1.398 . S
C168 H195 0.929 . S
C169 O182 1.271 . S
C169 O183 1.251 . S
C170 O184 1.252 . S
C170 O185 1.272 . S
C171 Sm161 2.846 1_545 S
C171 C172 1.506 . S
C171 O186 1.261 . S
C171 O187 1.242 . S
C172 C171 1.506 . S
C172 C173 1.358 . S
C172 C177 1.382 . S
C173 C172 1.358 . S
C173 C174 1.385 . S
C173 H196 0.930 . S
C174 C173 1.385 . S
C174 C175 1.395 . S
C174 H197 0.929 . S
C175 C174 1.395 . S
C175 C176 1.335 . S
C176 C175 1.335 . S
C176 C177 1.398 . S
C176 H198 0.930 . S
C177 C172 1.382 . S
C177 C176 1.398 . S
C177 H199 0.929 . S
C178 O188 1.271 . S
C178 O189 1.251 . S
C179 O190 1.252 . S
C179 O191 1.272 . S
O180 Sm160 2.543 . S
O180 C162 1.261 . S
O181 Sm160 2.450 . S
O181 C162 1.242 . S
O182 Sm160 2.681 . S
O182 Sm161 2.386 . S
O182 C169 1.271 . S
O183 Sm160 2.464 . S
O183 C169 1.251 . S
O184 Sm160 2.396 . S
O184 C170 1.252 . S
O185 Sm161 2.408 . S
O185 C170 1.272 . S
O186 Sm161 2.543 1_545 S
O186 C171 1.261 . S
O187 Sm161 2.450 1_545 S
O187 C171 1.242 . S
O188 Sm160 2.386 . S
O188 Sm161 2.681 . S
O188 C178 1.271 . S
O189 Sm161 2.464 . S
O189 C178 1.251 . S
O190 Sm161 2.396 . S
O190 C179 1.252 . S
O191 Sm160 2.408 . S
O191 C179 1.272 . S
H192 C164 0.930 . S
H193 C165 0.929 . S
H194 C167 0.930 . S
H195 C168 0.929 . S
H196 C173 0.930 . S
H197 C174 0.929 . S
H198 C176 0.930 . S
H199 C177 0.929 . S
Sm200 C202 2.846 . S
Sm200 O220 2.543 . S
Sm200 O221 2.450 . S
Sm200 O222 2.681 . S
Sm200 O223 2.464 . S
Sm200 O224 2.396 . S
Sm200 O228 2.386 . S
Sm200 O231 2.408 . S
Sm201 C211 2.846 1_545 S
Sm201 O222 2.386 . S
Sm201 O225 2.408 . S
Sm201 O226 2.543 1_545 S
Sm201 O227 2.450 1_545 S
Sm201 O228 2.681 . S
Sm201 O229 2.464 . S
Sm201 O230 2.396 . S
C202 Sm200 2.846 . S
C202 C203 1.506 . S
C202 O220 1.261 . S
C202 O221 1.242 . S
C203 C202 1.506 . S
C203 C204 1.358 . S
C203 C208 1.382 . S
C204 C203 1.358 . S
C204 C205 1.385 . S
C204 H232 0.930 . S
C205 C204 1.385 . S
C205 C206 1.395 . S
C205 H233 0.929 . S
C206 C205 1.395 . S
C206 C207 1.335 . S
C207 C206 1.335 . S
C207 C208 1.398 . S
C207 H234 0.930 . S
C208 C203 1.382 . S
C208 C207 1.398 . S
C208 H235 0.929 . S
C209 O222 1.271 . S
C209 O223 1.251 . S
C210 O224 1.252 . S
C210 O225 1.272 . S
C211 Sm201 2.846 1_565 S
C211 C212 1.506 . S
C211 O226 1.261 . S
C211 O227 1.242 . S
C212 C211 1.506 . S
C212 C213 1.358 . S
C212 C217 1.382 . S
C213 C212 1.358 . S
C213 C214 1.385 . S
C213 H236 0.930 . S
C214 C213 1.385 . S
C214 C215 1.395 . S
C214 H237 0.929 . S
C215 C214 1.395 . S
C215 C216 1.335 . S
C216 C215 1.335 . S
C216 C217 1.398 . S
C216 H238 0.930 . S
C217 C212 1.382 . S
C217 C216 1.398 . S
C217 H239 0.929 . S
C218 O228 1.271 . S
C218 O229 1.251 . S
C219 O230 1.252 . S
C219 O231 1.272 . S
O220 Sm200 2.543 . S
O220 C202 1.261 . S
O221 Sm200 2.450 . S
O221 C202 1.242 . S
O222 Sm200 2.681 . S
O222 Sm201 2.386 . S
O222 C209 1.271 . S
O223 Sm200 2.464 . S
O223 C209 1.251 . S
O224 Sm200 2.396 . S
O224 C210 1.252 . S
O225 Sm201 2.408 . S
O225 C210 1.272 . S
O226 Sm201 2.543 1_565 S
O226 C211 1.261 . S
O227 Sm201 2.450 1_565 S
O227 C211 1.242 . S
O228 Sm200 2.386 . S
O228 Sm201 2.681 . S
O228 C218 1.271 . S
O229 Sm201 2.464 . S
O229 C218 1.251 . S
O230 Sm201 2.396 . S
O230 C219 1.252 . S
O231 Sm200 2.408 . S
O231 C219 1.272 . S
H232 C204 0.930 . S
H233 C205 0.929 . S
H234 C207 0.930 . S
H235 C208 0.929 . S
H236 C213 0.930 . S
H237 C214 0.929 . S
H238 C216 0.930 . S
H239 C217 0.929 . S
Sm240 C242 2.846 . S
Sm240 O260 2.543 . S
Sm240 O261 2.450 . S
Sm240 O262 2.681 . S
Sm240 O263 2.464 . S
Sm240 O264 2.396 . S
Sm240 O268 2.386 . S
Sm240 O271 2.408 . S
Sm241 C251 2.846 1_545 S
Sm241 O262 2.386 . S
Sm241 O265 2.408 . S
Sm241 O266 2.543 1_545 S
Sm241 O267 2.450 1_545 S
Sm241 O268 2.681 . S
Sm241 O269 2.464 . S
Sm241 O270 2.396 . S
C242 Sm240 2.846 . S
C242 C243 1.506 . S
C242 O260 1.261 . S
C242 O261 1.242 . S
C243 C242 1.506 . S
C243 C244 1.358 . S
C243 C248 1.382 . S
C244 C243 1.358 . S
C244 C245 1.385 . S
C244 H272 0.930 . S
C245 C244 1.385 . S
C245 C246 1.395 . S
C245 H273 0.929 . S
C246 C245 1.395 . S
C246 C247 1.335 . S
C247 C246 1.335 . S
C247 C248 1.398 . S
C247 H274 0.930 . S
C248 C243 1.382 . S
C248 C247 1.398 . S
C248 H275 0.929 . S
C249 O262 1.271 . S
C249 O263 1.251 . S
C250 O264 1.252 . S
C250 O265 1.272 . S
C251 Sm241 2.846 1_565 S
C251 C252 1.506 . S
C251 O266 1.261 . S
C251 O267 1.242 . S
C252 C251 1.506 . S
C252 C253 1.358 . S
C252 C257 1.382 . S
C253 C252 1.358 . S
C253 C254 1.385 . S
C253 H276 0.930 . S
C254 C253 1.385 . S
C254 C255 1.395 . S
C254 H277 0.929 . S
C255 C254 1.395 . S
C255 C256 1.335 . S
C256 C255 1.335 . S
C256 C257 1.398 . S
C256 H278 0.930 . S
C257 C252 1.382 . S
C257 C256 1.398 . S
C257 H279 0.929 . S
C258 O268 1.271 . S
C258 O269 1.251 . S
C259 O270 1.252 . S
C259 O271 1.272 . S
O260 Sm240 2.543 . S
O260 C242 1.261 . S
O261 Sm240 2.450 . S
O261 C242 1.242 . S
O262 Sm240 2.681 . S
O262 Sm241 2.386 . S
O262 C249 1.271 . S
O263 Sm240 2.464 . S
O263 C249 1.251 . S
O264 Sm240 2.396 . S
O264 C250 1.252 . S
O265 Sm241 2.408 . S
O265 C250 1.272 . S
O266 Sm241 2.543 1_565 S
O266 C251 1.261 . S
O267 Sm241 2.450 1_565 S
O267 C251 1.242 . S
O268 Sm240 2.386 . S
O268 Sm241 2.681 . S
O268 C258 1.271 . S
O269 Sm241 2.464 . S
O269 C258 1.251 . S
O270 Sm241 2.396 . S
O270 C259 1.252 . S
O271 Sm240 2.408 . S
O271 C259 1.272 . S
H272 C244 0.930 . S
H273 C245 0.929 . S
H274 C247 0.930 . S
H275 C248 0.929 . S
H276 C253 0.930 . S
H277 C254 0.929 . S
H278 C256 0.930 . S
H279 C257 0.929 . S
Sm280 C282 2.846 . S
Sm280 O300 2.543 . S
Sm280 O301 2.450 . S
Sm280 O302 2.681 . S
Sm280 O303 2.464 . S
Sm280 O304 2.396 . S
Sm280 O308 2.386 . S
Sm280 O311 2.408 . S
Sm281 C291 2.846 1_565 S
Sm281 O302 2.386 . S
Sm281 O305 2.408 . S
Sm281 O306 2.543 1_565 S
Sm281 O307 2.450 1_565 S
Sm281 O308 2.681 . S
Sm281 O309 2.464 . S
Sm281 O310 2.396 . S
C282 Sm280 2.846 . S
C282 C283 1.506 . S
C282 O300 1.261 . S
C282 O301 1.242 . S
C283 C282 1.506 . S
C283 C284 1.358 . S
C283 C288 1.382 . S
C284 C283 1.358 . S
C284 C285 1.385 . S
C284 H312 0.930 . S
C285 C284 1.385 . S
C285 C286 1.395 . S
C285 H313 0.929 . S
C286 C285 1.395 . S
C286 C287 1.335 . S
C287 C286 1.335 . S
C287 C288 1.398 . S
C287 H314 0.930 . S
C288 C283 1.382 . S
C288 C287 1.398 . S
C288 H315 0.929 . S
C289 O302 1.271 . S
C289 O303 1.251 . S
C290 O304 1.252 . S
C290 O305 1.272 . S
C291 Sm281 2.846 1_545 S
C291 C292 1.506 . S
C291 O306 1.261 . S
C291 O307 1.242 . S
C292 C291 1.506 . S
C292 C293 1.358 . S
C292 C297 1.382 . S
C293 C292 1.358 . S
C293 C294 1.385 . S
C293 H316 0.930 . S
C294 C293 1.385 . S
C294 C295 1.395 . S
C294 H317 0.929 . S
C295 C294 1.395 . S
C295 C296 1.335 . S
C296 C295 1.335 . S
C296 C297 1.398 . S
C296 H318 0.930 . S
C297 C292 1.382 . S
C297 C296 1.398 . S
C297 H319 0.929 . S
C298 O308 1.271 . S
C298 O309 1.251 . S
C299 O310 1.252 . S
C299 O311 1.272 . S
O300 Sm280 2.543 . S
O300 C282 1.261 . S
O301 Sm280 2.450 . S
O301 C282 1.242 . S
O302 Sm280 2.681 . S
O302 Sm281 2.386 . S
O302 C289 1.271 . S
O303 Sm280 2.464 . S
O303 C289 1.251 . S
O304 Sm280 2.396 . S
O304 C290 1.252 . S
O305 Sm281 2.408 . S
O305 C290 1.272 . S
O306 Sm281 2.543 1_545 S
O306 C291 1.261 . S
O307 Sm281 2.450 1_545 S
O307 C291 1.242 . S
O308 Sm280 2.386 . S
O308 Sm281 2.681 . S
O308 C298 1.271 . S
O309 Sm281 2.464 . S
O309 C298 1.251 . S
O310 Sm281 2.396 . S
O310 C299 1.252 . S
O311 Sm280 2.408 . S
O311 C299 1.272 . S
H312 C284 0.930 . S
H313 C285 0.929 . S
H314 C287 0.930 . S
H315 C288 0.929 . S
H316 C293 0.930 . S
H317 C294 0.929 . S
H318 C296 0.930 . S
H319 C297 0.929 . S
Sm320 C322 2.846 . S
Sm320 O340 2.543 . S
Sm320 O341 2.450 . S
Sm320 O342 2.681 . S
Sm320 O343 2.464 . S
Sm320 O344 2.396 . S
Sm320 O348 2.386 . S
Sm320 O351 2.408 . S
Sm321 C331 2.846 . S
Sm321 O342 2.386 . S
Sm321 O345 2.408 . S
Sm321 O346 2.543 . S
Sm321 O347 2.450 . S
Sm321 O348 2.681 . S
Sm321 O349 2.464 . S
Sm321 O350 2.396 . S
C322 Sm320 2.846 . S
C322 C323 1.506 . S
C322 O340 1.261 . S
C322 O341 1.242 . S
C323 C322 1.506 . S
C323 C324 1.358 . S
C323 C328 1.382 . S
C324 C323 1.358 . S
C324 C325 1.385 . S
C324 H352 0.930 . S
C325 C324 1.385 . S
C325 C326 1.395 . S
C325 H353 0.929 . S
C326 C325 1.395 . S
C326 C327 1.335 . S
C327 C326 1.335 . S
C327 C328 1.398 . S
C327 H354 0.930 . S
C328 C323 1.382 . S
C328 C327 1.398 . S
C328 H355 0.929 . S
C329 O342 1.271 . S
C329 O343 1.251 . S
C330 O344 1.252 . S
C330 O345 1.272 . S
C331 Sm321 2.846 . S
C331 C332 1.506 . S
C331 O346 1.261 . S
C331 O347 1.242 . S
C332 C331 1.506 . S
C332 C333 1.358 . S
C332 C337 1.382 . S
C333 C332 1.358 . S
C333 C334 1.385 . S
C333 H356 0.930 . S
C334 C333 1.385 . S
C334 C335 1.395 . S
C334 H357 0.929 . S
C335 C334 1.395 . S
C335 C336 1.335 . S
C336 C335 1.335 . S
C336 C337 1.398 . S
C336 H358 0.930 . S
C337 C332 1.382 . S
C337 C336 1.398 . S
C337 H359 0.929 . S
C338 O348 1.271 . S
C338 O349 1.251 . S
C339 O350 1.252 . S
C339 O351 1.272 . S
O340 Sm320 2.543 . S
O340 C322 1.261 . S
O341 Sm320 2.450 . S
O341 C322 1.242 . S
O342 Sm320 2.681 . S
O342 Sm321 2.386 . S
O342 C329 1.271 . S
O343 Sm320 2.464 . S
O343 C329 1.251 . S
O344 Sm320 2.396 . S
O344 C330 1.252 . S
O345 Sm321 2.408 . S
O345 C330 1.272 . S
O346 Sm321 2.543 . S
O346 C331 1.261 . S
O347 Sm321 2.450 . S
O347 C331 1.242 . S
O348 Sm320 2.386 . S
O348 Sm321 2.681 . S
O348 C338 1.271 . S
O349 Sm321 2.464 . S
O349 C338 1.251 . S
O350 Sm321 2.396 . S
O350 C339 1.252 . S
O351 Sm320 2.408 . S
O351 C339 1.272 . S
H352 C324 0.930 . S
H353 C325 0.929 . S
H354 C327 0.930 . S
H355 C328 0.929 . S
H356 C333 0.930 . S
H357 C334 0.929 . S
H358 C336 0.930 . S
H359 C337 0.929 . S
Sm360 C362 2.846 . S
Sm360 O380 2.543 . S
Sm360 O381 2.450 . S
Sm360 O382 2.681 . S
Sm360 O383 2.464 . S
Sm360 O384 2.396 . S
Sm360 O388 2.386 . S
Sm360 O391 2.408 . S
Sm361 C371 2.846 . S
Sm361 O382 2.386 . S
Sm361 O385 2.408 . S
Sm361 O386 2.543 . S
Sm361 O387 2.450 . S
Sm361 O388 2.681 . S
Sm361 O389 2.464 . S
Sm361 O390 2.396 . S
C362 Sm360 2.846 . S
C362 C363 1.506 . S
C362 O380 1.261 . S
C362 O381 1.242 . S
C363 C362 1.506 . S
C363 C364 1.358 . S
C363 C368 1.382 . S
C364 C363 1.358 . S
C364 C365 1.385 . S
C364 H392 0.930 . S
C365 C364 1.385 . S
C365 C366 1.395 . S
C365 H393 0.929 . S
C366 C365 1.395 . S
C366 C367 1.335 . S
C367 C366 1.335 . S
C367 C368 1.398 . S
C367 H394 0.930 . S
C368 C363 1.382 . S
C368 C367 1.398 . S
C368 H395 0.929 . S
C369 O382 1.271 . S
C369 O383 1.251 . S
C370 O384 1.252 . S
C370 O385 1.272 . S
C371 Sm361 2.846 . S
C371 C372 1.506 . S
C371 O386 1.261 . S
C371 O387 1.242 . S
C372 C371 1.506 . S
C372 C373 1.358 . S
C372 C377 1.382 . S
C373 C372 1.358 . S
C373 C374 1.385 . S
C373 H396 0.930 . S
C374 C373 1.385 . S
C374 C375 1.395 . S
C374 H397 0.929 . S
C375 C374 1.395 . S
C375 C376 1.335 . S
C376 C375 1.335 . S
C376 C377 1.398 . S
C376 H398 0.930 . S
C377 C372 1.382 . S
C377 C376 1.398 . S
C377 H399 0.929 . S
C378 O388 1.271 . S
C378 O389 1.251 . S
C379 O390 1.252 . S
C379 O391 1.272 . S
O380 Sm360 2.543 . S
O380 C362 1.261 . S
O381 Sm360 2.450 . S
O381 C362 1.242 . S
O382 Sm360 2.681 . S
O382 Sm361 2.386 . S
O382 C369 1.271 . S
O383 Sm360 2.464 . S
O383 C369 1.251 . S
O384 Sm360 2.396 . S
O384 C370 1.252 . S
O385 Sm361 2.408 . S
O385 C370 1.272 . S
O386 Sm361 2.543 . S
O386 C371 1.261 . S
O387 Sm361 2.450 . S
O387 C371 1.242 . S
O388 Sm360 2.386 . S
O388 Sm361 2.681 . S
O388 C378 1.271 . S
O389 Sm361 2.464 . S
O389 C378 1.251 . S
O390 Sm361 2.396 . S
O390 C379 1.252 . S
O391 Sm360 2.408 . S
O391 C379 1.272 . S
H392 C364 0.930 . S
H393 C365 0.929 . S
H394 C367 0.930 . S
H395 C368 0.929 . S
H396 C373 0.930 . S
H397 C374 0.929 . S
H398 C376 0.930 . S
H399 C377 0.929 . S
Sm400 C402 2.846 . S
Sm400 O420 2.543 . S
Sm400 O421 2.450 . S
Sm400 O422 2.681 . S
Sm400 O423 2.464 . S
Sm400 O424 2.396 . S
Sm400 O428 2.386 . S
Sm400 O431 2.408 . S
Sm401 C411 2.846 . S
Sm401 O422 2.386 . S
Sm401 O425 2.408 . S
Sm401 O426 2.543 . S
Sm401 O427 2.450 . S
Sm401 O428 2.681 . S
Sm401 O429 2.464 . S
Sm401 O430 2.396 . S
C402 Sm400 2.846 . S
C402 C403 1.506 . S
C402 O420 1.261 . S
C402 O421 1.242 . S
C403 C402 1.506 . S
C403 C404 1.358 . S
C403 C408 1.382 . S
C404 C403 1.358 . S
C404 C405 1.385 . S
C404 H432 0.930 . S
C405 C404 1.385 . S
C405 C406 1.395 . S
C405 H433 0.929 . S
C406 C405 1.395 . S
C406 C407 1.335 . S
C407 C406 1.335 . S
C407 C408 1.398 . S
C407 H434 0.930 . S
C408 C403 1.382 . S
C408 C407 1.398 . S
C408 H435 0.929 . S
C409 O422 1.271 . S
C409 O423 1.251 . S
C410 O424 1.252 . S
C410 O425 1.272 . S
C411 Sm401 2.846 . S
C411 C412 1.506 . S
C411 O426 1.261 . S
C411 O427 1.242 . S
C412 C411 1.506 . S
C412 C413 1.358 . S
C412 C417 1.382 . S
C413 C412 1.358 . S
C413 C414 1.385 . S
C413 H436 0.930 . S
C414 C413 1.385 . S
C414 C415 1.395 . S
C414 H437 0.929 . S
C415 C414 1.395 . S
C415 C416 1.335 . S
C416 C415 1.335 . S
C416 C417 1.398 . S
C416 H438 0.930 . S
C417 C412 1.382 . S
C417 C416 1.398 . S
C417 H439 0.929 . S
C418 O428 1.271 . S
C418 O429 1.251 . S
C419 O430 1.252 . S
C419 O431 1.272 . S
O420 Sm400 2.543 . S
O420 C402 1.261 . S
O421 Sm400 2.450 . S
O421 C402 1.242 . S
O422 Sm400 2.681 . S
O422 Sm401 2.386 . S
O422 C409 1.271 . S
O423 Sm400 2.464 . S
O423 C409 1.251 . S
O424 Sm400 2.396 . S
O424 C410 1.252 . S
O425 Sm401 2.408 . S
O425 C410 1.272 . S
O426 Sm401 2.543 . S
O426 C411 1.261 . S
O427 Sm401 2.450 . S
O427 C411 1.242 . S
O428 Sm400 2.386 . S
O428 Sm401 2.681 . S
O428 C418 1.271 . S
O429 Sm401 2.464 . S
O429 C418 1.251 . S
O430 Sm401 2.396 . S
O430 C419 1.252 . S
O431 Sm400 2.408 . S
O431 C419 1.272 . S
H432 C404 0.930 . S
H433 C405 0.929 . S
H434 C407 0.930 . S
H435 C408 0.929 . S
H436 C413 0.930 . S
H437 C414 0.929 . S
H438 C416 0.930 . S
H439 C417 0.929 . S
Sm440 C442 2.846 . S
Sm440 O460 2.543 . S
Sm440 O461 2.450 . S
Sm440 O462 2.681 . S
Sm440 O463 2.464 . S
Sm440 O464 2.396 . S
Sm440 O468 2.386 . S
Sm440 O471 2.408 . S
Sm441 C451 2.846 . S
Sm441 O462 2.386 . S
Sm441 O465 2.408 . S
Sm441 O466 2.543 . S
Sm441 O467 2.450 . S
Sm441 O468 2.681 . S
Sm441 O469 2.464 . S
Sm441 O470 2.396 . S
C442 Sm440 2.846 . S
C442 C443 1.506 . S
C442 O460 1.261 . S
C442 O461 1.242 . S
C443 C442 1.506 . S
C443 C444 1.358 . S
C443 C448 1.382 . S
C444 C443 1.358 . S
C444 C445 1.385 . S
C444 H472 0.930 . S
C445 C444 1.385 . S
C445 C446 1.395 . S
C445 H473 0.929 . S
C446 C445 1.395 . S
C446 C447 1.335 . S
C447 C446 1.335 . S
C447 C448 1.398 . S
C447 H474 0.930 . S
C448 C443 1.382 . S
C448 C447 1.398 . S
C448 H475 0.929 . S
C449 O462 1.271 . S
C449 O463 1.251 . S
C450 O464 1.252 . S
C450 O465 1.272 . S
C451 Sm441 2.846 . S
C451 C452 1.506 . S
C451 O466 1.261 . S
C451 O467 1.242 . S
C452 C451 1.506 . S
C452 C453 1.358 . S
C452 C457 1.382 . S
C453 C452 1.358 . S
C453 C454 1.385 . S
C453 H476 0.930 . S
C454 C453 1.385 . S
C454 C455 1.395 . S
C454 H477 0.929 . S
C455 C454 1.395 . S
C455 C456 1.335 . S
C456 C455 1.335 . S
C456 C457 1.398 . S
C456 H478 0.930 . S
C457 C452 1.382 . S
C457 C456 1.398 . S
C457 H479 0.929 . S
C458 O468 1.271 . S
C458 O469 1.251 . S
C459 O470 1.252 . S
C459 O471 1.272 . S
O460 Sm440 2.543 . S
O460 C442 1.261 . S
O461 Sm440 2.450 . S
O461 C442 1.242 . S
O462 Sm440 2.681 . S
O462 Sm441 2.386 . S
O462 C449 1.271 . S
O463 Sm440 2.464 . S
O463 C449 1.251 . S
O464 Sm440 2.396 . S
O464 C450 1.252 . S
O465 Sm441 2.408 . S
O465 C450 1.272 . S
O466 Sm441 2.543 . S
O466 C451 1.261 . S
O467 Sm441 2.450 . S
O467 C451 1.242 . S
O468 Sm440 2.386 . S
O468 Sm441 2.681 . S
O468 C458 1.271 . S
O469 Sm441 2.464 . S
O469 C458 1.251 . S
O470 Sm441 2.396 . S
O470 C459 1.252 . S
O471 Sm440 2.408 . S
O471 C459 1.272 . S
H472 C444 0.930 . S
H473 C445 0.929 . S
H474 C447 0.930 . S
H475 C448 0.929 . S
H476 C453 0.930 . S
H477 C454 0.929 . S
H478 C456 0.930 . S
H479 C457 0.929 . S
Sm480 C482 2.846 . S
Sm480 O500 2.543 . S
Sm480 O501 2.450 . S
Sm480 O502 2.681 . S
Sm480 O503 2.464 . S
Sm480 O504 2.396 . S
Sm480 O508 2.386 . S
Sm480 O511 2.408 . S
Sm481 C491 2.846 . S
Sm481 O502 2.386 . S
Sm481 O505 2.408 . S
Sm481 O506 2.543 . S
Sm481 O507 2.450 . S
Sm481 O508 2.681 . S
Sm481 O509 2.464 . S
Sm481 O510 2.396 . S
C482 Sm480 2.846 . S
C482 C483 1.506 . S
C482 O500 1.261 . S
C482 O501 1.242 . S
C483 C482 1.506 . S
C483 C484 1.358 . S
C483 C488 1.382 . S
C484 C483 1.358 . S
C484 C485 1.385 . S
C484 H512 0.930 . S
C485 C484 1.385 . S
C485 C486 1.395 . S
C485 H513 0.929 . S
C486 C485 1.395 . S
C486 C487 1.335 . S
C487 C486 1.335 . S
C487 C488 1.398 . S
C487 H514 0.930 . S
C488 C483 1.382 . S
C488 C487 1.398 . S
C488 H515 0.929 . S
C489 O502 1.271 . S
C489 O503 1.251 . S
C490 O504 1.252 . S
C490 O505 1.272 . S
C491 Sm481 2.846 . S
C491 C492 1.506 . S
C491 O506 1.261 . S
C491 O507 1.242 . S
C492 C491 1.506 . S
C492 C493 1.358 . S
C492 C497 1.382 . S
C493 C492 1.358 . S
C493 C494 1.385 . S
C493 H516 0.930 . S
C494 C493 1.385 . S
C494 C495 1.395 . S
C494 H517 0.929 . S
C495 C494 1.395 . S
C495 C496 1.335 . S
C496 C495 1.335 . S
C496 C497 1.398 . S
C496 H518 0.930 . S
C497 C492 1.382 . S
C497 C496 1.398 . S
C497 H519 0.929 . S
C498 O508 1.271 . S
C498 O509 1.251 . S
C499 O510 1.252 . S
C499 O511 1.272 . S
O500 Sm480 2.543 . S
O500 C482 1.261 . S
O501 Sm480 2.450 . S
O501 C482 1.242 . S
O502 Sm480 2.681 . S
O502 Sm481 2.386 . S
O502 C489 1.271 . S
O503 Sm480 2.464 . S
O503 C489 1.251 . S
O504 Sm480 2.396 . S
O504 C490 1.252 . S
O505 Sm481 2.408 . S
O505 C490 1.272 . S
O506 Sm481 2.543 . S
O506 C491 1.261 . S
O507 Sm481 2.450 . S
O507 C491 1.242 . S
O508 Sm480 2.386 . S
O508 Sm481 2.681 . S
O508 C498 1.271 . S
O509 Sm481 2.464 . S
O509 C498 1.251 . S
O510 Sm481 2.396 . S
O510 C499 1.252 . S
O511 Sm480 2.408 . S
O511 C499 1.272 . S
H512 C484 0.930 . S
H513 C485 0.929 . S
H514 C487 0.930 . S
H515 C488 0.929 . S
H516 C493 0.930 . S
H517 C494 0.929 . S
H518 C496 0.930 . S
H519 C497 0.929 . S
Sm520 C522 2.846 . S
Sm520 O540 2.543 . S
Sm520 O541 2.450 . S
Sm520 O542 2.681 . S
Sm520 O543 2.464 . S
Sm520 O544 2.396 . S
Sm520 O548 2.386 . S
Sm520 O551 2.408 . S
Sm521 C531 2.846 . S
Sm521 O542 2.386 . S
Sm521 O545 2.408 . S
Sm521 O546 2.543 . S
Sm521 O547 2.450 . S
Sm521 O548 2.681 . S
Sm521 O549 2.464 . S
Sm521 O550 2.396 . S
C522 Sm520 2.846 . S
C522 C523 1.506 . S
C522 O540 1.261 . S
C522 O541 1.242 . S
C523 C522 1.506 . S
C523 C524 1.358 . S
C523 C528 1.382 . S
C524 C523 1.358 . S
C524 C525 1.385 . S
C524 H552 0.930 . S
C525 C524 1.385 . S
C525 C526 1.395 . S
C525 H553 0.929 . S
C526 C525 1.395 . S
C526 C527 1.335 . S
C527 C526 1.335 . S
C527 C528 1.398 . S
C527 H554 0.930 . S
C528 C523 1.382 . S
C528 C527 1.398 . S
C528 H555 0.929 . S
C529 O542 1.271 . S
C529 O543 1.251 . S
C530 O544 1.252 . S
C530 O545 1.272 . S
C531 Sm521 2.846 . S
C531 C532 1.506 . S
C531 O546 1.261 . S
C531 O547 1.242 . S
C532 C531 1.506 . S
C532 C533 1.358 . S
C532 C537 1.382 . S
C533 C532 1.358 . S
C533 C534 1.385 . S
C533 H556 0.930 . S
C534 C533 1.385 . S
C534 C535 1.395 . S
C534 H557 0.929 . S
C535 C534 1.395 . S
C535 C536 1.335 . S
C536 C535 1.335 . S
C536 C537 1.398 . S
C536 H558 0.930 . S
C537 C532 1.382 . S
C537 C536 1.398 . S
C537 H559 0.929 . S
C538 O548 1.271 . S
C538 O549 1.251 . S
C539 O550 1.252 . S
C539 O551 1.272 . S
O540 Sm520 2.543 . S
O540 C522 1.261 . S
O541 Sm520 2.450 . S
O541 C522 1.242 . S
O542 Sm520 2.681 . S
O542 Sm521 2.386 . S
O542 C529 1.271 . S
O543 Sm520 2.464 . S
O543 C529 1.251 . S
O544 Sm520 2.396 . S
O544 C530 1.252 . S
O545 Sm521 2.408 . S
O545 C530 1.272 . S
O546 Sm521 2.543 . S
O546 C531 1.261 . S
O547 Sm521 2.450 . S
O547 C531 1.242 . S
O548 Sm520 2.386 . S
O548 Sm521 2.681 . S
O548 C538 1.271 . S
O549 Sm521 2.464 . S
O549 C538 1.251 . S
O550 Sm521 2.396 . S
O550 C539 1.252 . S
O551 Sm520 2.408 . S
O551 C539 1.272 . S
H552 C524 0.930 . S
H553 C525 0.929 . S
H554 C527 0.930 . S
H555 C528 0.929 . S
H556 C533 0.930 . S
H557 C534 0.929 . S
H558 C536 0.930 . S
H559 C537 0.929 . S
Sm560 C562 2.846 . S
Sm560 O580 2.543 . S
Sm560 O581 2.450 . S
Sm560 O582 2.681 . S
Sm560 O583 2.464 . S
Sm560 O584 2.396 . S
Sm560 O588 2.386 . S
Sm560 O591 2.408 . S
Sm561 C571 2.846 . S
Sm561 O582 2.386 . S
Sm561 O585 2.408 . S
Sm561 O586 2.543 . S
Sm561 O587 2.450 . S
Sm561 O588 2.681 . S
Sm561 O589 2.464 . S
Sm561 O590 2.396 . S
C562 Sm560 2.846 . S
C562 C563 1.506 . S
C562 O580 1.261 . S
C562 O581 1.242 . S
C563 C562 1.506 . S
C563 C564 1.358 . S
C563 C568 1.382 . S
C564 C563 1.358 . S
C564 C565 1.385 . S
C564 H592 0.930 . S
C565 C564 1.385 . S
C565 C566 1.395 . S
C565 H593 0.929 . S
C566 C565 1.395 . S
C566 C567 1.335 . S
C567 C566 1.335 . S
C567 C568 1.398 . S
C567 H594 0.930 . S
C568 C563 1.382 . S
C568 C567 1.398 . S
C568 H595 0.929 . S
C569 O582 1.271 . S
C569 O583 1.251 . S
C570 O584 1.252 . S
C570 O585 1.272 . S
C571 Sm561 2.846 . S
C571 C572 1.506 . S
C571 O586 1.261 . S
C571 O587 1.242 . S
C572 C571 1.506 . S
C572 C573 1.358 . S
C572 C577 1.382 . S
C573 C572 1.358 . S
C573 C574 1.385 . S
C573 H596 0.930 . S
C574 C573 1.385 . S
C574 C575 1.395 . S
C574 H597 0.929 . S
C575 C574 1.395 . S
C575 C576 1.335 . S
C576 C575 1.335 . S
C576 C577 1.398 . S
C576 H598 0.930 . S
C577 C572 1.382 . S
C577 C576 1.398 . S
C577 H599 0.929 . S
C578 O588 1.271 . S
C578 O589 1.251 . S
C579 O590 1.252 . S
C579 O591 1.272 . S
O580 Sm560 2.543 . S
O580 C562 1.261 . S
O581 Sm560 2.450 . S
O581 C562 1.242 . S
O582 Sm560 2.681 . S
O582 Sm561 2.386 . S
O582 C569 1.271 . S
O583 Sm560 2.464 . S
O583 C569 1.251 . S
O584 Sm560 2.396 . S
O584 C570 1.252 . S
O585 Sm561 2.408 . S
O585 C570 1.272 . S
O586 Sm561 2.543 . S
O586 C571 1.261 . S
O587 Sm561 2.450 . S
O587 C571 1.242 . S
O588 Sm560 2.386 . S
O588 Sm561 2.681 . S
O588 C578 1.271 . S
O589 Sm561 2.464 . S
O589 C578 1.251 . S
O590 Sm561 2.396 . S
O590 C579 1.252 . S
O591 Sm560 2.408 . S
O591 C579 1.272 . S
H592 C564 0.930 . S
H593 C565 0.929 . S
H594 C567 0.930 . S
H595 C568 0.929 . S
H596 C573 0.930 . S
H597 C574 0.929 . S
H598 C576 0.930 . S
H599 C577 0.929 . S
Sm600 C602 2.846 . S
Sm600 O620 2.543 . S
Sm600 O621 2.450 . S
Sm600 O622 2.681 . S
Sm600 O623 2.464 . S
Sm600 O624 2.396 . S
Sm600 O628 2.386 . S
Sm600 O631 2.408 . S
Sm601 C611 2.846 . S
Sm601 O622 2.386 . S
Sm601 O625 2.408 . S
Sm601 O626 2.543 . S
Sm601 O627 2.450 . S
Sm601 O628 2.681 . S
Sm601 O629 2.464 . S
Sm601 O630 2.396 . S
C602 Sm600 2.846 . S
C602 C603 1.506 . S
C602 O620 1.261 . S
C602 O621 1.242 . S
C603 C602 1.506 . S
C603 C604 1.358 . S
C603 C608 1.382 . S
C604 C603 1.358 . S
C604 C605 1.385 . S
C604 H632 0.930 . S
C605 C604 1.385 . S
C605 C606 1.395 . S
C605 H633 0.929 . S
C606 C605 1.395 . S
C606 C607 1.335 . S
C607 C606 1.335 . S
C607 C608 1.398 . S
C607 H634 0.930 . S
C608 C603 1.382 . S
C608 C607 1.398 . S
C608 H635 0.929 . S
C609 O622 1.271 . S
C609 O623 1.251 . S
C610 O624 1.252 . S
C610 O625 1.272 . S
C611 Sm601 2.846 . S
C611 C612 1.506 . S
C611 O626 1.261 . S
C611 O627 1.242 . S
C612 C611 1.506 . S
C612 C613 1.358 . S
C612 C617 1.382 . S
C613 C612 1.358 . S
C613 C614 1.385 . S
C613 H636 0.930 . S
C614 C613 1.385 . S
C614 C615 1.395 . S
C614 H637 0.929 . S
C615 C614 1.395 . S
C615 C616 1.335 . S
C616 C615 1.335 . S
C616 C617 1.398 . S
C616 H638 0.930 . S
C617 C612 1.382 . S
C617 C616 1.398 . S
C617 H639 0.929 . S
C618 O628 1.271 . S
C618 O629 1.251 . S
C619 O630 1.252 . S
C619 O631 1.272 . S
O620 Sm600 2.543 . S
O620 C602 1.261 . S
O621 Sm600 2.450 . S
O621 C602 1.242 . S
O622 Sm600 2.681 . S
O622 Sm601 2.386 . S
O622 C609 1.271 . S
O623 Sm600 2.464 . S
O623 C609 1.251 . S
O624 Sm600 2.396 . S
O624 C610 1.252 . S
O625 Sm601 2.408 . S
O625 C610 1.272 . S
O626 Sm601 2.543 . S
O626 C611 1.261 . S
O627 Sm601 2.450 . S
O627 C611 1.242 . S
O628 Sm600 2.386 . S
O628 Sm601 2.681 . S
O628 C618 1.271 . S
O629 Sm601 2.464 . S
O629 C618 1.251 . S
O630 Sm601 2.396 . S
O630 C619 1.252 . S
O631 Sm600 2.408 . S
O631 C619 1.272 . S
H632 C604 0.930 . S
H633 C605 0.929 . S
H634 C607 0.930 . S
H635 C608 0.929 . S
H636 C613 0.930 . S
H637 C614 0.929 . S
H638 C616 0.930 . S
H639 C617 0.929 . S
H640 C646 0.930 . S
H641 C649 0.930 . S
H642 C650 0.930 . S
H643 C651 0.930 . S
H644 C654 0.930 . S
H645 C655 0.930 . S
C646 H640 0.930 . S
C646 C647 1.355 . S
C646 C648 1.415 . S
C647 C646 1.355 . S
C647 C649 1.419 . S
C648 C646 1.415 . S
C648 C653 1.425 . S
C648 C655 1.409 . S
C649 H641 0.930 . S
C649 C647 1.419 . S
C649 C650 1.362 . S
C650 H642 0.930 . S
C650 C649 1.362 . S
C650 C653 1.409 . S
C651 H643 0.930 . S
C651 C652 1.355 . S
C651 C653 1.415 . S
C652 C651 1.355 . S
C652 C654 1.419 . S
C653 C648 1.425 . S
C653 C650 1.409 . S
C653 C651 1.415 . S
C654 H644 0.930 . S
C654 C652 1.419 . S
C654 C655 1.362 . S
C655 H645 0.930 . S
C655 C648 1.409 . S
C655 C654 1.362 . S
H656 C662 0.930 . S
H657 C665 0.930 . S
H658 C666 0.930 . S
H659 C667 0.930 . S
H660 C670 0.930 . S
H661 C671 0.930 . S
C662 H656 0.930 . S
C662 C663 1.355 . S
C662 C664 1.415 . S
C663 C662 1.355 . S
C663 C665 1.419 . S
C664 C662 1.415 . S
C664 C669 1.425 . S
C664 C671 1.409 . S
C665 H657 0.930 . S
C665 C663 1.419 . S
C665 C666 1.362 . S
C666 H658 0.930 . S
C666 C665 1.362 . S
C666 C669 1.409 . S
C667 H659 0.930 . S
C667 C668 1.355 . S
C667 C669 1.415 . S
C668 C667 1.355 . S
C668 C670 1.419 . S
C669 C664 1.425 . S
C669 C666 1.409 . S
C669 C667 1.415 . S
C670 H660 0.930 . S
C670 C668 1.419 . S
C670 C671 1.362 . S
C671 H661 0.930 . S
C671 C664 1.409 . S
C671 C670 1.362 . S
H672 C678 0.930 . S
H673 C681 0.930 . S
H674 C682 0.930 . S
H675 C683 0.930 . S
H676 C686 0.930 . S
H677 C687 0.930 . S
C678 H672 0.930 . S
C678 C679 1.355 . S
C678 C680 1.415 . S
C679 C678 1.355 . S
C679 C681 1.419 . S
C680 C678 1.415 . S
C680 C685 1.425 . S
C680 C687 1.409 . S
C681 H673 0.930 . S
C681 C679 1.419 . S
C681 C682 1.362 . S
C682 H674 0.930 . S
C682 C681 1.362 . S
C682 C685 1.409 . S
C683 H675 0.930 . S
C683 C684 1.355 . S
C683 C685 1.415 . S
C684 C683 1.355 . S
C684 C686 1.419 . S
C685 C680 1.425 . S
C685 C682 1.409 . S
C685 C683 1.415 . S
C686 H676 0.930 . S
C686 C684 1.419 . S
C686 C687 1.362 . S
C687 H677 0.930 . S
C687 C680 1.409 . S
C687 C686 1.362 . S
H688 C694 0.930 . S
H689 C697 0.930 . S
H690 C698 0.930 . S
H691 C699 0.930 . S
H692 C702 0.930 . S
H693 C703 0.930 . S
C694 H688 0.930 . S
C694 C695 1.355 . S
C694 C696 1.415 . S
C695 C694 1.355 . S
C695 C697 1.419 . S
C696 C694 1.415 . S
C696 C701 1.425 . S
C696 C703 1.409 . S
C697 H689 0.930 . S
C697 C695 1.419 . S
C697 C698 1.362 . S
C698 H690 0.930 . S
C698 C697 1.362 . S
C698 C701 1.409 . S
C699 H691 0.930 . S
C699 C700 1.355 . S
C699 C701 1.415 . S
C700 C699 1.355 . S
C700 C702 1.419 . S
C701 C696 1.425 . S
C701 C698 1.409 . S
C701 C699 1.415 . S
C702 H692 0.930 . S
C702 C700 1.419 . S
C702 C703 1.362 . S
C703 H693 0.930 . S
C703 C696 1.409 . S
C703 C702 1.362 . S
H704 C710 0.930 . S
H705 C713 0.930 . S
H706 C714 0.930 . S
H707 C715 0.930 . S
H708 C718 0.930 . S
H709 C719 0.930 . S
C710 H704 0.930 . S
C710 C711 1.355 . S
C710 C712 1.415 . S
C711 C710 1.355 . S
C711 C713 1.419 . S
C712 C710 1.415 . S
C712 C717 1.425 . S
C712 C719 1.409 . S
C713 H705 0.930 . S
C713 C711 1.419 . S
C713 C714 1.362 . S
C714 H706 0.930 . S
C714 C713 1.362 . S
C714 C717 1.409 . S
C715 H707 0.930 . S
C715 C716 1.355 . S
C715 C717 1.415 . S
C716 C715 1.355 . S
C716 C718 1.419 . S
C717 C712 1.425 . S
C717 C714 1.409 . S
C717 C715 1.415 . S
C718 H708 0.930 . S
C718 C716 1.419 . S
C718 C719 1.362 . S
C719 H709 0.930 . S
C719 C712 1.409 . S
C719 C718 1.362 . S
H720 C726 0.930 . S
H721 C729 0.930 . S
H722 C730 0.930 . S
H723 C731 0.930 . S
H724 C734 0.930 . S
H725 C735 0.930 . S
C726 H720 0.930 . S
C726 C727 1.355 . S
C726 C728 1.415 . S
C727 C726 1.355 . S
C727 C729 1.419 . S
C728 C726 1.415 . S
C728 C733 1.425 . S
C728 C735 1.409 . S
C729 H721 0.930 . S
C729 C727 1.419 . S
C729 C730 1.362 . S
C730 H722 0.930 . S
C730 C729 1.362 . S
C730 C733 1.409 . S
C731 H723 0.930 . S
C731 C732 1.355 . S
C731 C733 1.415 . S
C732 C731 1.355 . S
C732 C734 1.419 . S
C733 C728 1.425 . S
C733 C730 1.409 . S
C733 C731 1.415 . S
C734 H724 0.930 . S
C734 C732 1.419 . S
C734 C735 1.362 . S
C735 H725 0.930 . S
C735 C728 1.409 . S
C735 C734 1.362 . S
H736 C742 0.930 . S
H737 C745 0.930 . S
H738 C746 0.930 . S
H739 C747 0.930 . S
H740 C750 0.930 . S
H741 C751 0.930 . S
C742 H736 0.930 . S
C742 C743 1.355 . S
C742 C744 1.415 . S
C743 C742 1.355 . S
C743 C745 1.419 . S
C744 C742 1.415 . S
C744 C749 1.425 . S
C744 C751 1.409 . S
C745 H737 0.930 . S
C745 C743 1.419 . S
C745 C746 1.362 . S
C746 H738 0.930 . S
C746 C745 1.362 . S
C746 C749 1.409 . S
C747 H739 0.930 . S
C747 C748 1.355 . S
C747 C749 1.415 . S
C748 C747 1.355 . S
C748 C750 1.419 . S
C749 C744 1.425 . S
C749 C746 1.409 . S
C749 C747 1.415 . S
C750 H740 0.930 . S
C750 C748 1.419 . S
C750 C751 1.362 . S
C751 H741 0.930 . S
C751 C744 1.409 . S
C751 C750 1.362 . S
H752 C758 0.930 . S
H753 C761 0.930 . S
H754 C762 0.930 . S
H755 C763 0.930 . S
H756 C766 0.930 . S
H757 C767 0.930 . S
C758 H752 0.930 . S
C758 C759 1.355 . S
C758 C760 1.415 . S
C759 C758 1.355 . S
C759 C761 1.419 . S
C760 C758 1.415 . S
C760 C765 1.425 . S
C760 C767 1.409 . S
C761 H753 0.930 . S
C761 C759 1.419 . S
C761 C762 1.362 . S
C762 H754 0.930 . S
C762 C761 1.362 . S
C762 C765 1.409 . S
C763 H755 0.930 . S
C763 C764 1.355 . S
C763 C765 1.415 . S
C764 C763 1.355 . S
C764 C766 1.419 . S
C765 C760 1.425 . S
C765 C762 1.409 . S
C765 C763 1.415 . S
C766 H756 0.930 . S
C766 C764 1.419 . S
C766 C767 1.362 . S
C767 H757 0.930 . S
C767 C760 1.409 . S
C767 C766 1.362 . S
H768 C774 0.930 . S
H769 C777 0.930 . S
H770 C778 0.930 . S
H771 C779 0.930 . S
H772 C782 0.930 . S
H773 C783 0.930 . S
C774 H768 0.930 . S
C774 C775 1.355 . S
C774 C776 1.415 . S
C775 C774 1.355 . S
C775 C777 1.419 . S
C776 C774 1.415 . S
C776 C781 1.425 1_565 S
C776 C783 1.409 . S
C777 H769 0.930 . S
C777 C775 1.419 . S
C777 C778 1.362 1_565 S
C778 H770 0.930 . S
C778 C777 1.362 1_545 S
C778 C781 1.409 . S
C779 H771 0.930 . S
C779 C780 1.355 . S
C779 C781 1.415 . S
C780 C779 1.355 . S
C780 C782 1.419 . S
C781 C776 1.425 1_545 S
C781 C778 1.409 . S
C781 C779 1.415 . S
C782 H772 0.930 . S
C782 C780 1.419 . S
C782 C783 1.362 1_545 S
C783 H773 0.930 . S
C783 C776 1.409 . S
C783 C782 1.362 1_565 S
H784 C790 0.930 . S
H785 C793 0.930 . S
H786 C794 0.930 . S
H787 C795 0.930 . S
H788 C798 0.930 . S
H789 C799 0.930 . S
C790 H784 0.930 . S
C790 C791 1.355 . S
C790 C792 1.415 . S
C791 C790 1.355 . S
C791 C793 1.419 1_545 S
C792 C790 1.415 . S
C792 C797 1.425 1_545 S
C792 C799 1.409 . S
C793 H785 0.930 . S
C793 C791 1.419 1_565 S
C793 C794 1.362 . S
C794 H786 0.930 . S
C794 C793 1.362 . S
C794 C797 1.409 . S
C795 H787 0.930 . S
C795 C796 1.355 . S
C795 C797 1.415 . S
C796 C795 1.355 . S
C796 C798 1.419 1_565 S
C797 C792 1.425 1_565 S
C797 C794 1.409 . S
C797 C795 1.415 . S
C798 H788 0.930 . S
C798 C796 1.419 1_545 S
C798 C799 1.362 . S
C799 H789 0.930 . S
C799 C792 1.409 . S
C799 C798 1.362 . S
H800 C806 0.930 1_565 S
H801 C809 0.930 . S
H802 C810 0.930 . S
H803 C811 0.930 1_545 S
H804 C814 0.930 . S
H805 C815 0.930 . S
C806 H800 0.930 1_545 S
C806 C807 1.355 . S
C806 C808 1.415 1_545 S
C807 C806 1.355 . S
C807 C809 1.419 . S
C808 C806 1.415 1_565 S
C808 C813 1.425 1_565 S
C808 C815 1.409 . S
C809 H801 0.930 . S
C809 C807 1.419 . S
C809 C810 1.362 . S
C810 H802 0.930 . S
C810 C809 1.362 . S
C810 C813 1.409 . S
C811 H803 0.930 1_565 S
C811 C812 1.355 . S
C811 C813 1.415 1_565 S
C812 C811 1.355 . S
C812 C814 1.419 . S
C813 C808 1.425 1_545 S
C813 C810 1.409 . S
C813 C811 1.415 1_545 S
C814 H804 0.930 . S
C814 C812 1.419 . S
C814 C815 1.362 . S
C815 H805 0.930 . S
C815 C808 1.409 . S
C815 C814 1.362 . S
H816 C822 0.930 . S
H817 C825 0.930 . S
H818 C826 0.930 . S
H819 C827 0.930 . S
H820 C830 0.930 . S
H821 C831 0.930 . S
C822 H816 0.930 . S
C822 C823 1.355 . S
C822 C824 1.415 . S
C823 C822 1.355 . S
C823 C825 1.419 . S
C824 C822 1.415 . S
C824 C829 1.425 1_545 S
C824 C831 1.409 . S
C825 H817 0.930 . S
C825 C823 1.419 . S
C825 C826 1.362 1_545 S
C826 H818 0.930 . S
C826 C825 1.362 1_565 S
C826 C829 1.409 . S
C827 H819 0.930 . S
C827 C828 1.355 . S
C827 C829 1.415 . S
C828 C827 1.355 . S
C828 C830 1.419 . S
C829 C824 1.425 1_565 S
C829 C826 1.409 . S
C829 C827 1.415 . S
C830 H820 0.930 . S
C830 C828 1.419 . S
C830 C831 1.362 1_565 S
C831 H821 0.930 . S
C831 C824 1.409 . S
C831 C830 1.362 1_545 S
H832 C838 0.930 . S
H833 C841 0.930 . S
H834 C842 0.930 . S
H835 C843 0.930 . S
H836 C846 0.930 . S
H837 C847 0.930 . S
C838 H832 0.930 . S
C838 C839 1.355 . S
C838 C840 1.415 . S
C839 C838 1.355 . S
C839 C841 1.419 . S
C840 C838 1.415 . S
C840 C845 1.425 . S
C840 C847 1.409 . S
C841 H833 0.930 . S
C841 C839 1.419 . S
C841 C842 1.362 . S
C842 H834 0.930 . S
C842 C841 1.362 . S
C842 C845 1.409 . S
C843 H835 0.930 . S
C843 C844 1.355 . S
C843 C845 1.415 . S
C844 C843 1.355 . S
C844 C846 1.419 . S
C845 C840 1.425 . S
C845 C842 1.409 . S
C845 C843 1.415 . S
C846 H836 0.930 . S
C846 C844 1.419 . S
C846 C847 1.362 . S
C847 H837 0.930 . S
C847 C840 1.409 . S
C847 C846 1.362 . S
H848 C854 0.930 . S
H849 C857 0.930 . S
H850 C858 0.930 . S
H851 C859 0.930 . S
H852 C862 0.930 . S
H853 C863 0.930 . S
C854 H848 0.930 . S
C854 C855 1.355 . S
C854 C856 1.415 . S
C855 C854 1.355 . S
C855 C857 1.419 . S
C856 C854 1.415 . S
C856 C861 1.425 . S
C856 C863 1.409 . S
C857 H849 0.930 . S
C857 C855 1.419 . S
C857 C858 1.362 . S
C858 H850 0.930 . S
C858 C857 1.362 . S
C858 C861 1.409 . S
C859 H851 0.930 . S
C859 C860 1.355 . S
C859 C861 1.415 . S
C860 C859 1.355 . S
C860 C862 1.419 . S
C861 C856 1.425 . S
C861 C858 1.409 . S
C861 C859 1.415 . S
C862 H852 0.930 . S
C862 C860 1.419 . S
C862 C863 1.362 . S
C863 H853 0.930 . S
C863 C856 1.409 . S
C863 C862 1.362 . S
H864 C870 0.930 . S
H865 C873 0.930 . S
H866 C874 0.930 . S
H867 C875 0.930 . S
H868 C878 0.930 . S
H869 C879 0.930 . S
C870 H864 0.930 . S
C870 C871 1.355 . S
C870 C872 1.415 . S
C871 C870 1.355 . S
C871 C873 1.419 . S
C872 C870 1.415 . S
C872 C877 1.425 . S
C872 C879 1.409 . S
C873 H865 0.930 . S
C873 C871 1.419 . S
C873 C874 1.362 . S
C874 H866 0.930 . S
C874 C873 1.362 . S
C874 C877 1.409 . S
C875 H867 0.930 . S
C875 C876 1.355 . S
C875 C877 1.415 . S
C876 C875 1.355 . S
C876 C878 1.419 . S
C877 C872 1.425 . S
C877 C874 1.409 . S
C877 C875 1.415 . S
C878 H868 0.930 . S
C878 C876 1.419 . S
C878 C879 1.362 . S
C879 H869 0.930 . S
C879 C872 1.409 . S
C879 C878 1.362 . S
H880 C886 0.930 . S
H881 C889 0.930 . S
H882 C890 0.930 . S
H883 C891 0.930 . S
H884 C894 0.930 . S
H885 C895 0.930 . S
C886 H880 0.930 . S
C886 C887 1.355 . S
C886 C888 1.415 . S
C887 C886 1.355 . S
C887 C889 1.419 . S
C888 C886 1.415 . S
C888 C893 1.425 . S
C888 C895 1.409 . S
C889 H881 0.930 . S
C889 C887 1.419 . S
C889 C890 1.362 . S
C890 H882 0.930 . S
C890 C889 1.362 . S
C890 C893 1.409 . S
C891 H883 0.930 . S
C891 C892 1.355 . S
C891 C893 1.415 . S
C892 C891 1.355 . S
C892 C894 1.419 . S
C893 C888 1.425 . S
C893 C890 1.409 . S
C893 C891 1.415 . S
C894 H884 0.930 . S
C894 C892 1.419 . S
C894 C895 1.362 . S
C895 H885 0.930 . S
C895 C888 1.409 . S
C895 C894 1.362 . S
H896 C902 0.930 . S
H897 C905 0.930 . S
H898 C906 0.930 . S
H899 C907 0.930 . S
H900 C910 0.930 . S
H901 C911 0.930 . S
C902 H896 0.930 . S
C902 C903 1.355 . S
C902 C904 1.415 . S
C903 C902 1.355 . S
C903 C905 1.419 . S
C904 C902 1.415 . S
C904 C909 1.425 1_556 S
C904 C911 1.409 1_556 S
C905 H897 0.930 . S
C905 C903 1.419 . S
C905 C906 1.362 . S
C906 H898 0.930 . S
C906 C905 1.362 . S
C906 C909 1.409 1_556 S
C907 H899 0.930 . S
C907 C908 1.355 . S
C907 C909 1.415 . S
C908 C907 1.355 . S
C908 C910 1.419 . S
C909 C904 1.425 1_554 S
C909 C906 1.409 1_554 S
C909 C907 1.415 . S
C910 H900 0.930 . S
C910 C908 1.419 . S
C910 C911 1.362 . S
C911 H901 0.930 . S
C911 C904 1.409 1_554 S
C911 C910 1.362 . S
H912 C918 0.930 . S
H913 C921 0.930 . S
H914 C922 0.930 . S
H915 C923 0.930 . S
H916 C926 0.930 . S
H917 C927 0.930 . S
C918 H912 0.930 . S
C918 C919 1.355 . S
C918 C920 1.415 . S
C919 C918 1.355 . S
C919 C921 1.419 . S
C920 C918 1.415 . S
C920 C925 1.425 1_556 S
C920 C927 1.409 1_556 S
C921 H913 0.930 . S
C921 C919 1.419 . S
C921 C922 1.362 . S
C922 H914 0.930 . S
C922 C921 1.362 . S
C922 C925 1.409 1_556 S
C923 H915 0.930 . S
C923 C924 1.355 . S
C923 C925 1.415 . S
C924 C923 1.355 . S
C924 C926 1.419 . S
C925 C920 1.425 1_554 S
C925 C922 1.409 1_554 S
C925 C923 1.415 . S
C926 H916 0.930 . S
C926 C924 1.419 . S
C926 C927 1.362 . S
C927 H917 0.930 . S
C927 C920 1.409 1_554 S
C927 C926 1.362 . S
H928 C934 0.930 . S
H929 C937 0.930 . S
H930 C938 0.930 . S
H931 C939 0.930 . S
H932 C942 0.930 . S
H933 C943 0.930 . S
C934 H928 0.930 . S
C934 C935 1.355 . S
C934 C936 1.415 . S
C935 C934 1.355 . S
C935 C937 1.419 . S
C936 C934 1.415 . S
C936 C941 1.425 . S
C936 C943 1.409 . S
C937 H929 0.930 . S
C937 C935 1.419 . S
C937 C938 1.362 . S
C938 H930 0.930 . S
C938 C937 1.362 . S
C938 C941 1.409 . S
C939 H931 0.930 . S
C939 C940 1.355 . S
C939 C941 1.415 . S
C940 C939 1.355 . S
C940 C942 1.419 . S
C941 C936 1.425 . S
C941 C938 1.409 . S
C941 C939 1.415 . S
C942 H932 0.930 . S
C942 C940 1.419 . S
C942 C943 1.362 . S
C943 H933 0.930 . S
C943 C936 1.409 . S
C943 C942 1.362 . S
H944 C950 0.930 . S
H945 C953 0.930 . S
H946 C954 0.930 . S
H947 C955 0.930 . S
H948 C958 0.930 . S
H949 C959 0.930 . S
C950 H944 0.930 . S
C950 C951 1.355 . S
C950 C952 1.415 . S
C951 C950 1.355 . S
C951 C953 1.419 . S
C952 C950 1.415 . S
C952 C957 1.425 . S
C952 C959 1.409 . S
C953 H945 0.930 . S
C953 C951 1.419 . S
C953 C954 1.362 . S
C954 H946 0.930 . S
C954 C953 1.362 . S
C954 C957 1.409 . S
C955 H947 0.930 . S
C955 C956 1.355 . S
C955 C957 1.415 . S
C956 C955 1.355 . S
C956 C958 1.419 . S
C957 C952 1.425 . S
C957 C954 1.409 . S
C957 C955 1.415 . S
C958 H948 0.930 . S
C958 C956 1.419 . S
C958 C959 1.362 . S
C959 H949 0.930 . S
C959 C952 1.409 . S
C959 C958 1.362 . S
H960 C966 0.930 . S
H961 C969 0.930 . S
H962 C970 0.930 . S
H963 C971 0.930 . S
H964 C974 0.930 . S
H965 C975 0.930 . S
C966 H960 0.930 . S
C966 C967 1.355 . S
C966 C968 1.415 . S
C967 C966 1.355 . S
C967 C969 1.419 . S
C968 C966 1.415 . S
C968 C973 1.425 1_554 S
C968 C975 1.409 1_554 S
C969 H961 0.930 . S
C969 C967 1.419 . S
C969 C970 1.362 . S
C970 H962 0.930 . S
C970 C969 1.362 . S
C970 C973 1.409 1_554 S
C971 H963 0.930 . S
C971 C972 1.355 . S
C971 C973 1.415 . S
C972 C971 1.355 . S
C972 C974 1.419 . S
C973 C968 1.425 1_556 S
C973 C970 1.409 1_556 S
C973 C971 1.415 . S
C974 H964 0.930 . S
C974 C972 1.419 . S
C974 C975 1.362 . S
C975 H965 0.930 . S
C975 C968 1.409 1_556 S
C975 C974 1.362 . S
H976 C982 0.930 . S
H977 C985 0.930 . S
H978 C986 0.930 . S
H979 C987 0.930 . S
H980 C990 0.930 . S
H981 C991 0.930 . S
C982 H976 0.930 . S
C982 C983 1.355 . S
C982 C984 1.415 . S
C983 C982 1.355 . S
C983 C985 1.419 . S
C984 C982 1.415 . S
C984 C989 1.425 1_556 S
C984 C991 1.409 1_556 S
C985 H977 0.930 . S
C985 C983 1.419 . S
C985 C986 1.362 . S
C986 H978 0.930 . S
C986 C985 1.362 . S
C986 C989 1.409 1_556 S
C987 H979 0.930 . S
C987 C988 1.355 . S
C987 C989 1.415 . S
C988 C987 1.355 . S
C988 C990 1.419 . S
C989 C984 1.425 1_554 S
C989 C986 1.409 1_554 S
C989 C987 1.415 . S
C990 H980 0.930 . S
C990 C988 1.419 . S
C990 C991 1.362 . S
C991 H981 0.930 . S
C991 C984 1.409 1_554 S
C991 C990 1.362 . S
H992 C998 0.930 . S
H993 C1001 0.930 . S
H994 C1002 0.930 . S
H995 C1003 0.930 . S
H996 C1006 0.930 . S
H997 C1007 0.930 . S
C998 H992 0.930 . S
C998 C999 1.355 . S
C998 C1000 1.415 . S
C999 C998 1.355 . S
C999 C1001 1.419 . S
C1000 C998 1.415 . S
C1000 C1005 1.425 . S
C1000 C1007 1.409 . S
C1001 H993 0.930 . S
C1001 C999 1.419 . S
C1001 C1002 1.362 . S
C1002 H994 0.930 . S
C1002 C1001 1.362 . S
C1002 C1005 1.409 . S
C1003 H995 0.930 . S
C1003 C1004 1.355 . S
C1003 C1005 1.415 . S
C1004 C1003 1.355 . S
C1004 C1006 1.419 . S
C1005 C1000 1.425 . S
C1005 C1002 1.409 . S
C1005 C1003 1.415 . S
C1006 H996 0.930 . S
C1006 C1004 1.419 . S
C1006 C1007 1.362 . S
C1007 H997 0.930 . S
C1007 C1000 1.409 . S
C1007 C1006 1.362 . S
H1008 C1014 0.930 . S
H1009 C1017 0.930 . S
H1010 C1018 0.930 . S
H1011 C1019 0.930 . S
H1012 C1022 0.930 . S
H1013 C1023 0.930 . S
C1014 H1008 0.930 . S
C1014 C1015 1.355 . S
C1014 C1016 1.415 . S
C1015 C1014 1.355 . S
C1015 C1017 1.419 . S
C1016 C1014 1.415 . S
C1016 C1021 1.425 . S
C1016 C1023 1.409 . S
C1017 H1009 0.930 . S
C1017 C1015 1.419 . S
C1017 C1018 1.362 . S
C1018 H1010 0.930 . S
C1018 C1017 1.362 . S
C1018 C1021 1.409 . S
C1019 H1011 0.930 . S
C1019 C1020 1.355 . S
C1019 C1021 1.415 . S
C1020 C1019 1.355 . S
C1020 C1022 1.419 . S
C1021 C1016 1.425 . S
C1021 C1018 1.409 . S
C1021 C1019 1.415 . S
C1022 H1012 0.930 . S
C1022 C1020 1.419 . S
C1022 C1023 1.362 . S
C1023 H1013 0.930 . S
C1023 C1016 1.409 . S
C1023 C1022 1.362 . S
H1024 C1030 0.930 . S
H1025 C1033 0.930 . S
H1026 C1034 0.930 . S
H1027 C1035 0.930 . S
H1028 C1038 0.930 . S
H1029 C1039 0.930 . S
C1030 H1024 0.930 . S
C1030 C1031 1.355 . S
C1030 C1032 1.415 . S
C1031 C1030 1.355 . S
C1031 C1033 1.419 1_565 S
C1032 C1030 1.415 . S
C1032 C1037 1.425 1_665 S
C1032 C1039 1.409 1_655 S
C1033 H1025 0.930 . S
C1033 C1031 1.419 1_545 S
C1033 C1034 1.362 . S
C1034 H1026 0.930 . S
C1034 C1033 1.362 . S
C1034 C1037 1.409 1_655 S
C1035 H1027 0.930 . S
C1035 C1036 1.355 . S
C1035 C1037 1.415 . S
C1036 C1035 1.355 . S
C1036 C1038 1.419 1_545 S
C1037 C1032 1.425 1_445 S
C1037 C1034 1.409 1_455 S
C1037 C1035 1.415 . S
C1038 H1028 0.930 . S
C1038 C1036 1.419 1_565 S
C1038 C1039 1.362 . S
C1039 H1029 0.930 . S
C1039 C1032 1.409 1_455 S
C1039 C1038 1.362 . S
H1040 C1046 0.930 . S
H1041 C1049 0.930 . S
H1042 C1050 0.930 . S
H1043 C1051 0.930 . S
H1044 C1054 0.930 . S
H1045 C1055 0.930 . S
C1046 H1040 0.930 . S
C1046 C1047 1.355 . S
C1046 C1048 1.415 . S
C1047 C1046 1.355 . S
C1047 C1049 1.419 1_545 S
C1048 C1046 1.415 . S
C1048 C1053 1.425 1_645 S
C1048 C1055 1.409 1_655 S
C1049 H1041 0.930 . S
C1049 C1047 1.419 1_565 S
C1049 C1050 1.362 . S
C1050 H1042 0.930 . S
C1050 C1049 1.362 . S
C1050 C1053 1.409 1_655 S
C1051 H1043 0.930 . S
C1051 C1052 1.355 . S
C1051 C1053 1.415 . S
C1052 C1051 1.355 . S
C1052 C1054 1.419 1_565 S
C1053 C1048 1.425 1_465 S
C1053 C1050 1.409 1_455 S
C1053 C1051 1.415 . S
C1054 H1044 0.930 . S
C1054 C1052 1.419 1_545 S
C1054 C1055 1.362 . S
C1055 H1045 0.930 . S
C1055 C1048 1.409 1_455 S
C1055 C1054 1.362 . S
H1056 C1062 0.930 . S
H1057 C1065 0.930 . S
H1058 C1066 0.930 . S
H1059 C1067 0.930 . S
H1060 C1070 0.930 . S
H1061 C1071 0.930 . S
C1062 H1056 0.930 . S
C1062 C1063 1.355 . S
C1062 C1064 1.415 . S
C1063 C1062 1.355 . S
C1063 C1065 1.419 1_545 S
C1064 C1062 1.415 . S
C1064 C1069 1.425 1_445 S
C1064 C1071 1.409 1_455 S
C1065 H1057 0.930 . S
C1065 C1063 1.419 1_565 S
C1065 C1066 1.362 . S
C1066 H1058 0.930 . S
C1066 C1065 1.362 . S
C1066 C1069 1.409 1_455 S
C1067 H1059 0.930 . S
C1067 C1068 1.355 . S
C1067 C1069 1.415 . S
C1068 C1067 1.355 . S
C1068 C1070 1.419 1_565 S
C1069 C1064 1.425 1_665 S
C1069 C1066 1.409 1_655 S
C1069 C1067 1.415 . S
C1070 H1060 0.930 . S
C1070 C1068 1.419 1_545 S
C1070 C1071 1.362 . S
C1071 H1061 0.930 . S
C1071 C1064 1.409 1_655 S
C1071 C1070 1.362 . S
H1072 C1078 0.930 . S
H1073 C1081 0.930 . S
H1074 C1082 0.930 . S
H1075 C1083 0.930 . S
H1076 C1086 0.930 . S
H1077 C1087 0.930 . S
C1078 H1072 0.930 . S
C1078 C1079 1.355 1_565 S
C1078 C1080 1.415 . S
C1079 C1078 1.355 1_545 S
C1079 C1081 1.419 . S
C1080 C1078 1.415 . S
C1080 C1085 1.425 1_665 S
C1080 C1087 1.409 1_655 S
C1081 H1073 0.930 . S
C1081 C1079 1.419 . S
C1081 C1082 1.362 . S
C1082 H1074 0.930 . S
C1082 C1081 1.362 . S
C1082 C1085 1.409 1_655 S
C1083 H1075 0.930 . S
C1083 C1084 1.355 1_545 S
C1083 C1085 1.415 . S
C1084 C1083 1.355 1_565 S
C1084 C1086 1.419 . S
C1085 C1080 1.425 1_445 S
C1085 C1082 1.409 1_455 S
C1085 C1083 1.415 . S
C1086 H1076 0.930 . S
C1086 C1084 1.419 . S
C1086 C1087 1.362 . S
C1087 H1077 0.930 . S
C1087 C1080 1.409 1_455 S
C1087 C1086 1.362 . S
H1088 C1094 0.930 . S
H1089 C1097 0.930 . S
H1090 C1098 0.930 . S
H1091 C1099 0.930 . S
H1092 C1102 0.930 . S
H1093 C1103 0.930 . S
C1094 H1088 0.930 . S
C1094 C1095 1.355 . S
C1094 C1096 1.415 . S
C1095 C1094 1.355 . S
C1095 C1097 1.419 . S
C1096 C1094 1.415 . S
C1096 C1101 1.425 . S
C1096 C1103 1.409 . S
C1097 H1089 0.930 . S
C1097 C1095 1.419 . S
C1097 C1098 1.362 . S
C1098 H1090 0.930 . S
C1098 C1097 1.362 . S
C1098 C1101 1.409 . S
C1099 H1091 0.930 . S
C1099 C1100 1.355 . S
C1099 C1101 1.415 . S
C1100 C1099 1.355 . S
C1100 C1102 1.419 . S
C1101 C1096 1.425 . S
C1101 C1098 1.409 . S
C1101 C1099 1.415 . S
C1102 H1092 0.930 . S
C1102 C1100 1.419 . S
C1102 C1103 1.362 . S
C1103 H1093 0.930 . S
C1103 C1096 1.409 . S
C1103 C1102 1.362 . S
H1104 C1110 0.930 . S
H1105 C1113 0.930 . S
H1106 C1114 0.930 . S
H1107 C1115 0.930 . S
H1108 C1118 0.930 . S
H1109 C1119 0.930 . S
C1110 H1104 0.930 . S
C1110 C1111 1.355 . S
C1110 C1112 1.415 . S
C1111 C1110 1.355 . S
C1111 C1113 1.419 . S
C1112 C1110 1.415 . S
C1112 C1117 1.425 . S
C1112 C1119 1.409 . S
C1113 H1105 0.930 . S
C1113 C1111 1.419 . S
C1113 C1114 1.362 . S
C1114 H1106 0.930 . S
C1114 C1113 1.362 . S
C1114 C1117 1.409 . S
C1115 H1107 0.930 . S
C1115 C1116 1.355 . S
C1115 C1117 1.415 . S
C1116 C1115 1.355 . S
C1116 C1118 1.419 . S
C1117 C1112 1.425 . S
C1117 C1114 1.409 . S
C1117 C1115 1.415 . S
C1118 H1108 0.930 . S
C1118 C1116 1.419 . S
C1118 C1119 1.362 . S
C1119 H1109 0.930 . S
C1119 C1112 1.409 . S
C1119 C1118 1.362 . S
H1120 C1126 0.930 . S
H1121 C1129 0.930 . S
H1122 C1130 0.930 . S
H1123 C1131 0.930 . S
H1124 C1134 0.930 . S
H1125 C1135 0.930 . S
C1126 H1120 0.930 . S
C1126 C1127 1.355 . S
C1126 C1128 1.415 . S
C1127 C1126 1.355 . S
C1127 C1129 1.419 . S
C1128 C1126 1.415 . S
C1128 C1133 1.425 . S
C1128 C1135 1.409 . S
C1129 H1121 0.930 . S
C1129 C1127 1.419 . S
C1129 C1130 1.362 . S
C1130 H1122 0.930 . S
C1130 C1129 1.362 . S
C1130 C1133 1.409 . S
C1131 H1123 0.930 . S
C1131 C1132 1.355 . S
C1131 C1133 1.415 . S
C1132 C1131 1.355 . S
C1132 C1134 1.419 . S
C1133 C1128 1.425 . S
C1133 C1130 1.409 . S
C1133 C1131 1.415 . S
C1134 H1124 0.930 . S
C1134 C1132 1.419 . S
C1134 C1135 1.362 . S
C1135 H1125 0.930 . S
C1135 C1128 1.409 . S
C1135 C1134 1.362 . S
H1136 C1142 0.930 . S
H1137 C1145 0.930 . S
H1138 C1146 0.930 . S
H1139 C1147 0.930 . S
H1140 C1150 0.930 . S
H1141 C1151 0.930 . S
C1142 H1136 0.930 . S
C1142 C1143 1.355 . S
C1142 C1144 1.415 . S
C1143 C1142 1.355 . S
C1143 C1145 1.419 . S
C1144 C1142 1.415 . S
C1144 C1149 1.425 . S
C1144 C1151 1.409 . S
C1145 H1137 0.930 . S
C1145 C1143 1.419 . S
C1145 C1146 1.362 . S
C1146 H1138 0.930 . S
C1146 C1145 1.362 . S
C1146 C1149 1.409 . S
C1147 H1139 0.930 . S
C1147 C1148 1.355 . S
C1147 C1149 1.415 . S
C1148 C1147 1.355 . S
C1148 C1150 1.419 . S
C1149 C1144 1.425 . S
C1149 C1146 1.409 . S
C1149 C1147 1.415 . S
C1150 H1140 0.930 . S
C1150 C1148 1.419 . S
C1150 C1151 1.362 . S
C1151 H1141 0.930 . S
C1151 C1144 1.409 . S
C1151 C1150 1.362 . S
H1152 C1158 0.930 . S
H1153 C1161 0.930 . S
H1154 C1162 0.930 . S
H1155 C1163 0.930 . S
H1156 C1166 0.930 . S
H1157 C1167 0.930 . S
C1158 H1152 0.930 . S
C1158 C1159 1.355 . S
C1158 C1160 1.415 . S
C1159 C1158 1.355 . S
C1159 C1161 1.419 . S
C1160 C1158 1.415 . S
C1160 C1165 1.425 . S
C1160 C1167 1.409 . S
C1161 H1153 0.930 . S
C1161 C1159 1.419 . S
C1161 C1162 1.362 . S
C1162 H1154 0.930 . S
C1162 C1161 1.362 . S
C1162 C1165 1.409 . S
C1163 H1155 0.930 . S
C1163 C1164 1.355 . S
C1163 C1165 1.415 . S
C1164 C1163 1.355 . S
C1164 C1166 1.419 . S
C1165 C1160 1.425 . S
C1165 C1162 1.409 . S
C1165 C1163 1.415 . S
C1166 H1156 0.930 . S
C1166 C1164 1.419 . S
C1166 C1167 1.362 . S
C1167 H1157 0.930 . S
C1167 C1160 1.409 . S
C1167 C1166 1.362 . S
H1168 C1174 0.930 . S
H1169 C1177 0.930 . S
H1170 C1178 0.930 . S
H1171 C1179 0.930 . S
H1172 C1182 0.930 . S
H1173 C1183 0.930 . S
C1174 H1168 0.930 . S
C1174 C1175 1.355 . S
C1174 C1176 1.415 . S
C1175 C1174 1.355 . S
C1175 C1177 1.419 . S
C1176 C1174 1.415 . S
C1176 C1181 1.425 . S
C1176 C1183 1.409 . S
C1177 H1169 0.930 . S
C1177 C1175 1.419 . S
C1177 C1178 1.362 . S
C1178 H1170 0.930 . S
C1178 C1177 1.362 . S
C1178 C1181 1.409 . S
C1179 H1171 0.930 . S
C1179 C1180 1.355 . S
C1179 C1181 1.415 . S
C1180 C1179 1.355 . S
C1180 C1182 1.419 . S
C1181 C1176 1.425 . S
C1181 C1178 1.409 . S
C1181 C1179 1.415 . S
C1182 H1172 0.930 . S
C1182 C1180 1.419 . S
C1182 C1183 1.362 . S
C1183 H1173 0.930 . S
C1183 C1176 1.409 . S
C1183 C1182 1.362 . S
H1184 C1190 0.930 . S
H1185 C1193 0.930 . S
H1186 C1194 0.930 . S
H1187 C1195 0.930 . S
H1188 C1198 0.930 . S
H1189 C1199 0.930 . S
C1190 H1184 0.930 . S
C1190 C1191 1.355 . S
C1190 C1192 1.415 . S
C1191 C1190 1.355 . S
C1191 C1193 1.419 . S
C1192 C1190 1.415 . S
C1192 C1197 1.425 . S
C1192 C1199 1.409 . S
C1193 H1185 0.930 . S
C1193 C1191 1.419 . S
C1193 C1194 1.362 . S
C1194 H1186 0.930 . S
C1194 C1193 1.362 . S
C1194 C1197 1.409 . S
C1195 H1187 0.930 . S
C1195 C1196 1.355 . S
C1195 C1197 1.415 . S
C1196 C1195 1.355 . S
C1196 C1198 1.419 . S
C1197 C1192 1.425 . S
C1197 C1194 1.409 . S
C1197 C1195 1.415 . S
C1198 H1188 0.930 . S
C1198 C1196 1.419 . S
C1198 C1199 1.362 . S
C1199 H1189 0.930 . S
C1199 C1192 1.409 . S
C1199 C1198 1.362 . S
H1200 C1206 0.930 . S
H1201 C1209 0.930 . S
H1202 C1210 0.930 . S
H1203 C1211 0.930 . S
H1204 C1214 0.930 . S
H1205 C1215 0.930 . S
C1206 H1200 0.930 . S
C1206 C1207 1.355 . S
C1206 C1208 1.415 . S
C1207 C1206 1.355 . S
C1207 C1209 1.419 . S
C1208 C1206 1.415 . S
C1208 C1213 1.425 . S
C1208 C1215 1.409 . S
C1209 H1201 0.930 . S
C1209 C1207 1.419 . S
C1209 C1210 1.362 . S
C1210 H1202 0.930 . S
C1210 C1209 1.362 . S
C1210 C1213 1.409 . S
C1211 H1203 0.930 . S
C1211 C1212 1.355 . S
C1211 C1213 1.415 . S
C1212 C1211 1.355 . S
C1212 C1214 1.419 . S
C1213 C1208 1.425 . S
C1213 C1210 1.409 . S
C1213 C1211 1.415 . S
C1214 H1204 0.930 . S
C1214 C1212 1.419 . S
C1214 C1215 1.362 . S
C1215 H1205 0.930 . S
C1215 C1208 1.409 . S
C1215 C1214 1.362 . S
H1216 C1222 0.930 . S
H1217 C1225 0.930 . S
H1218 C1226 0.930 . S
H1219 C1227 0.930 . S
H1220 C1230 0.930 . S
H1221 C1231 0.930 . S
C1222 H1216 0.930 . S
C1222 C1223 1.355 . S
C1222 C1224 1.415 . S
C1223 C1222 1.355 . S
C1223 C1225 1.419 . S
C1224 C1222 1.415 . S
C1224 C1229 1.425 . S
C1224 C1231 1.409 . S
C1225 H1217 0.930 . S
C1225 C1223 1.419 . S
C1225 C1226 1.362 . S
C1226 H1218 0.930 . S
C1226 C1225 1.362 . S
C1226 C1229 1.409 . S
C1227 H1219 0.930 . S
C1227 C1228 1.355 . S
C1227 C1229 1.415 . S
C1228 C1227 1.355 . S
C1228 C1230 1.419 . S
C1229 C1224 1.425 . S
C1229 C1226 1.409 . S
C1229 C1227 1.415 . S
C1230 H1220 0.930 . S
C1230 C1228 1.419 . S
C1230 C1231 1.362 . S
C1231 H1221 0.930 . S
C1231 C1224 1.409 . S
C1231 C1230 1.362 . S
H1232 C1238 0.930 . S
H1233 C1241 0.930 . S
H1234 C1242 0.930 . S
H1235 C1243 0.930 . S
H1236 C1246 0.930 . S
H1237 C1247 0.930 . S
C1238 H1232 0.930 . S
C1238 C1239 1.355 . S
C1238 C1240 1.415 . S
C1239 C1238 1.355 . S
C1239 C1241 1.419 . S
C1240 C1238 1.415 . S
C1240 C1245 1.425 . S
C1240 C1247 1.409 . S
C1241 H1233 0.930 . S
C1241 C1239 1.419 . S
C1241 C1242 1.362 . S
C1242 H1234 0.930 . S
C1242 C1241 1.362 . S
C1242 C1245 1.409 . S
C1243 H1235 0.930 . S
C1243 C1244 1.355 . S
C1243 C1245 1.415 . S
C1244 C1243 1.355 . S
C1244 C1246 1.419 . S
C1245 C1240 1.425 . S
C1245 C1242 1.409 . S
C1245 C1243 1.415 . S
C1246 H1236 0.930 . S
C1246 C1244 1.419 . S
C1246 C1247 1.362 . S
C1247 H1237 0.930 . S
C1247 C1240 1.409 . S
C1247 C1246 1.362 . S
H1248 C1254 0.930 . S
H1249 C1257 0.930 . S
H1250 C1258 0.930 . S
H1251 C1259 0.930 . S
H1252 C1262 0.930 . S
H1253 C1263 0.930 . S
C1254 H1248 0.930 . S
C1254 C1255 1.355 . S
C1254 C1256 1.415 . S
C1255 C1254 1.355 . S
C1255 C1257 1.419 . S
C1256 C1254 1.415 . S
C1256 C1261 1.425 . S
C1256 C1263 1.409 . S
C1257 H1249 0.930 . S
C1257 C1255 1.419 . S
C1257 C1258 1.362 . S
C1258 H1250 0.930 . S
C1258 C1257 1.362 . S
C1258 C1261 1.409 . S
C1259 H1251 0.930 . S
C1259 C1260 1.355 . S
C1259 C1261 1.415 . S
C1260 C1259 1.355 . S
C1260 C1262 1.419 . S
C1261 C1256 1.425 . S
C1261 C1258 1.409 . S
C1261 C1259 1.415 . S
C1262 H1252 0.930 . S
C1262 C1260 1.419 . S
C1262 C1263 1.362 . S
C1263 H1253 0.930 . S
C1263 C1256 1.409 . S
C1263 C1262 1.362 . S
H1264 C1270 0.930 . S
H1265 C1273 0.930 . S
H1266 C1274 0.930 . S
H1267 C1275 0.930 . S
H1268 C1278 0.930 . S
H1269 C1279 0.930 . S
C1270 H1264 0.930 . S
C1270 C1271 1.355 . S
C1270 C1272 1.415 . S
C1271 C1270 1.355 . S
C1271 C1273 1.419 . S
C1272 C1270 1.415 . S
C1272 C1277 1.425 . S
C1272 C1279 1.409 . S
C1273 H1265 0.930 . S
C1273 C1271 1.419 . S
C1273 C1274 1.362 . S
C1274 H1266 0.930 . S
C1274 C1273 1.362 . S
C1274 C1277 1.409 . S
C1275 H1267 0.930 . S
C1275 C1276 1.355 . S
C1275 C1277 1.415 . S
C1276 C1275 1.355 . S
C1276 C1278 1.419 . S
C1277 C1272 1.425 . S
C1277 C1274 1.409 . S
C1277 C1275 1.415 . S
C1278 H1268 0.930 . S
C1278 C1276 1.419 . S
C1278 C1279 1.362 . S
C1279 H1269 0.930 . S
C1279 C1272 1.409 . S
C1279 C1278 1.362 . S
H1280 C1286 0.930 . S
H1281 C1289 0.930 . S
H1282 C1290 0.930 . S
H1283 C1291 0.930 . S
H1284 C1294 0.930 . S
H1285 C1295 0.930 . S
C1286 H1280 0.930 . S
C1286 C1287 1.355 1_545 S
C1286 C1288 1.415 . S
C1287 C1286 1.355 1_565 S
C1287 C1289 1.419 1_565 S
C1288 C1286 1.415 . S
C1288 C1293 1.425 . S
C1288 C1295 1.409 . S
C1289 H1281 0.930 . S
C1289 C1287 1.419 1_545 S
C1289 C1290 1.362 . S
C1290 H1282 0.930 . S
C1290 C1289 1.362 . S
C1290 C1293 1.409 . S
C1291 H1283 0.930 . S
C1291 C1292 1.355 . S
C1291 C1293 1.415 . S
C1292 C1291 1.355 . S
C1292 C1294 1.419 . S
C1293 C1288 1.425 . S
C1293 C1290 1.409 . S
C1293 C1291 1.415 . S
C1294 H1284 0.930 . S
C1294 C1292 1.419 . S
C1294 C1295 1.362 . S
C1295 H1285 0.930 . S
C1295 C1288 1.409 . S
C1295 C1294 1.362 . S
H1296 C1302 0.930 . S
H1297 C1305 0.930 . S
H1298 C1306 0.930 . S
H1299 C1307 0.930 . S
H1300 C1310 0.925 1_545 S
H1301 C1311 0.930 . S
C1302 H1296 0.930 . S
C1302 C1303 1.355 . S
C1302 C1304 1.415 . S
C1303 C1302 1.355 . S
C1303 C1305 1.419 . S
C1304 C1302 1.415 . S
C1304 C1309 1.425 . S
C1304 C1311 1.409 . S
C1305 H1297 0.930 . S
C1305 C1303 1.419 . S
C1305 C1306 1.362 . S
C1306 H1298 0.930 . S
C1306 C1305 1.362 . S
C1306 C1309 1.409 . S
C1307 H1299 0.930 . S
C1307 C1308 1.355 1_565 S
C1307 C1309 1.415 . S
C1308 C1307 1.355 1_545 S
C1308 C1310 1.418 1_545 S
C1309 C1304 1.425 . S
C1309 C1306 1.409 . S
C1309 C1307 1.415 . S
C1310 H1300 0.925 1_565 S
C1310 C1308 1.418 1_565 S
C1310 C1311 1.368 . S
C1311 H1301 0.930 . S
C1311 C1304 1.409 . S
C1311 C1310 1.368 . S
H1312 C1318 0.930 . S
H1313 C1321 0.930 1_545 S
H1314 C1322 0.930 . S
H1315 C1323 0.930 . S
H1316 C1326 0.930 . S
H1317 C1327 0.930 . S
C1318 H1312 0.930 . S
C1318 C1319 1.355 1_565 S
C1318 C1320 1.415 . S
C1319 C1318 1.355 1_545 S
C1319 C1321 1.419 1_545 S
C1320 C1318 1.415 . S
C1320 C1325 1.425 . S
C1320 C1327 1.409 . S
C1321 H1313 0.930 1_565 S
C1321 C1319 1.419 1_565 S
C1321 C1322 1.362 . S
C1322 H1314 0.930 . S
C1322 C1321 1.362 . S
C1322 C1325 1.409 . S
C1323 H1315 0.930 . S
C1323 C1324 1.355 . S
C1323 C1325 1.415 . S
C1324 C1323 1.355 . S
C1324 C1326 1.419 . S
C1325 C1320 1.425 . S
C1325 C1322 1.409 . S
C1325 C1323 1.415 . S
C1326 H1316 0.930 . S
C1326 C1324 1.419 . S
C1326 C1327 1.362 . S
C1327 H1317 0.930 . S
C1327 C1320 1.409 . S
C1327 C1326 1.362 . S
H1328 C1334 0.930 . S
H1329 C1337 0.930 1_565 S
H1330 C1338 0.930 . S
H1331 C1339 0.930 . S
H1332 C1342 0.930 . S
H1333 C1343 0.930 . S
C1334 H1328 0.930 . S
C1334 C1335 1.355 1_545 S
C1334 C1336 1.415 . S
C1335 C1334 1.355 1_565 S
C1335 C1337 1.419 1_565 S
C1336 C1334 1.415 . S
C1336 C1341 1.425 . S
C1336 C1343 1.409 . S
C1337 H1329 0.930 1_545 S
C1337 C1335 1.419 1_545 S
C1337 C1338 1.362 . S
C1338 H1330 0.930 . S
C1338 C1337 1.362 . S
C1338 C1341 1.409 . S
C1339 H1331 0.930 . S
C1339 C1340 1.355 . S
C1339 C1341 1.415 . S
C1340 C1339 1.355 . S
C1340 C1342 1.419 . S
C1341 C1336 1.425 . S
C1341 C1338 1.409 . S
C1341 C1339 1.415 . S
C1342 H1332 0.930 . S
C1342 C1340 1.419 . S
C1342 C1343 1.362 . S
C1343 H1333 0.930 . S
C1343 C1336 1.409 . S
C1343 C1342 1.362 . S
H1344 C1350 0.930 . S
H1345 C1353 0.930 . S
H1346 C1354 0.930 . S
H1347 C1355 0.930 . S
H1348 C1358 0.930 1_545 S
H1349 C1359 0.930 . S
C1350 H1344 0.930 . S
C1350 C1351 1.355 . S
C1350 C1352 1.415 . S
C1351 C1350 1.355 . S
C1351 C1353 1.419 . S
C1352 C1350 1.415 . S
C1352 C1357 1.425 . S
C1352 C1359 1.409 . S
C1353 H1345 0.930 . S
C1353 C1351 1.419 . S
C1353 C1354 1.362 . S
C1354 H1346 0.930 . S
C1354 C1353 1.362 . S
C1354 C1357 1.409 . S
C1355 H1347 0.930 . S
C1355 C1356 1.355 1_565 S
C1355 C1357 1.415 . S
C1356 C1355 1.355 1_545 S
C1356 C1358 1.419 1_545 S
C1357 C1352 1.425 . S
C1357 C1354 1.409 . S
C1357 C1355 1.415 . S
C1358 H1348 0.930 1_565 S
C1358 C1356 1.419 1_565 S
C1358 C1359 1.362 . S
C1359 H1349 0.930 . S
C1359 C1352 1.409 . S
C1359 C1358 1.362 . S
H1360 C1366 0.930 . S
H1361 C1369 0.930 . S
H1362 C1370 0.930 . S
H1363 C1371 0.930 . S
H1364 C1374 0.930 1_565 S
H1365 C1375 0.930 . S
C1366 H1360 0.930 . S
C1366 C1367 1.355 . S
C1366 C1368 1.415 . S
C1367 C1366 1.355 . S
C1367 C1369 1.419 . S
C1368 C1366 1.415 . S
C1368 C1373 1.425 . S
C1368 C1375 1.409 . S
C1369 H1361 0.930 . S
C1369 C1367 1.419 . S
C1369 C1370 1.362 . S
C1370 H1362 0.930 . S
C1370 C1369 1.362 . S
C1370 C1373 1.409 . S
C1371 H1363 0.930 . S
C1371 C1372 1.355 1_545 S
C1371 C1373 1.415 . S
C1372 C1371 1.355 1_565 S
C1372 C1374 1.419 1_565 S
C1373 C1368 1.425 . S
C1373 C1370 1.409 . S
C1373 C1371 1.415 . S
C1374 H1364 0.930 1_545 S
C1374 C1372 1.419 1_545 S
C1374 C1375 1.362 . S
C1375 H1365 0.930 . S
C1375 C1368 1.409 . S
C1375 C1374 1.362 . S
H1376 C1382 0.930 . S
H1377 C1385 0.930 . S
H1378 C1386 0.930 . S
H1379 C1387 0.930 . S
H1380 C1390 0.930 . S
H1381 C1391 0.930 . S
C1382 H1376 0.930 . S
C1382 C1383 1.355 1_545 S
C1382 C1384 1.415 . S
C1383 C1382 1.355 1_565 S
C1383 C1385 1.419 1_565 S
C1384 C1382 1.415 . S
C1384 C1389 1.425 . S
C1384 C1391 1.409 . S
C1385 H1377 0.930 . S
C1385 C1383 1.419 1_545 S
C1385 C1386 1.362 . S
C1386 H1378 0.930 . S
C1386 C1385 1.362 . S
C1386 C1389 1.409 . S
C1387 H1379 0.930 . S
C1387 C1388 1.355 . S
C1387 C1389 1.415 . S
C1388 C1387 1.355 . S
C1388 C1390 1.419 . S
C1389 C1384 1.425 . S
C1389 C1386 1.409 . S
C1389 C1387 1.415 . S
C1390 H1380 0.930 . S
C1390 C1388 1.419 . S
C1390 C1391 1.362 . S
C1391 H1381 0.930 . S
C1391 C1384 1.409 . S
C1391 C1390 1.362 . S
H1392 C1398 0.930 . S
H1393 C1401 0.930 . S
H1394 C1402 0.930 . S
H1395 C1403 0.922 1_545 S
H1396 C1406 0.930 . S
H1397 C1407 0.930 . S
C1398 H1392 0.930 . S
C1398 C1399 1.355 . S
C1398 C1400 1.415 . S
C1399 C1398 1.355 . S
C1399 C1401 1.419 . S
C1400 C1398 1.415 . S
C1400 C1405 1.425 . S
C1400 C1407 1.409 . S
C1401 H1393 0.930 . S
C1401 C1399 1.419 . S
C1401 C1402 1.362 . S
C1402 H1394 0.930 . S
C1402 C1401 1.362 . S
C1402 C1405 1.409 . S
C1403 H1395 0.922 1_565 S
C1403 C1404 1.355 1_565 S
C1403 C1405 1.415 . S
C1404 C1403 1.355 1_545 S
C1404 C1406 1.419 1_545 S
C1405 C1400 1.425 . S
C1405 C1402 1.409 . S
C1405 C1403 1.415 . S
C1406 H1396 0.930 . S
C1406 C1404 1.419 1_565 S
C1406 C1407 1.362 . S
C1407 H1397 0.930 . S
C1407 C1400 1.409 . S
C1407 C1406 1.362 . S
C647 C19 1.573 . S
C652 C379 1.557 . S
C663 C59 1.553 . S
C668 C339 1.567 . S
C679 C459 1.558 . S
C684 C99 1.560 . S
C695 C139 1.576 . S
C700 C419 1.550 . S
C711 C530 1.575 . S
C716 C170 1.549 . S
C727 C490 1.558 . S
C732 C210 1.572 . S
C743 C610 1.568 . S
C748 C250 1.563 . S
C759 C290 1.561 . S
C764 C570 1.570 . S
C775 C98 1.697 . S
C780 C18 1.716 . S
C791 C138 1.706 . S
C796 C58 1.707 . S
C807 C249 1.703 . S
C812 C169 1.708 . S
C823 C209 1.692 . S
C828 C289 1.721 . S
C839 C418 1.716 . S
C844 C338 1.697 . S
C855 C458 1.720 . S
C860 C378 1.692 . S
C871 C489 1.693 . S
C876 C569 1.719 . S
C887 C529 1.694 . S
C892 C609 1.719 . S
C903 C218 1.487 . S
C908 C9 1.536 . S
C919 C178 1.514 . S
C924 C49 1.509 . S
C935 C89 1.473 . S
C940 C298 1.549 . S
C951 C258 1.500 . S
C956 C129 1.523 . S
C967 C329 1.472 . S
C972 C538 1.550 . S
C983 C498 1.480 . S
C988 C369 1.543 . S
C999 C409 1.546 . S
C1004 C618 1.477 . S
C1015 C578 1.521 . S
C1020 C449 1.502 . S
C1031 C50 1.660 . S
C1036 C10 1.651 . S
C1047 C130 1.648 . S
C1052 C90 1.625 . S
C1063 C219 1.651 . S
C1068 C179 1.660 . S
C1079 C259 1.607 . S
C1084 C299 1.593 . S
C1095 C370 1.596 . S
C1100 C330 1.615 . S
C1111 C450 1.657 . S
C1116 C410 1.658 . S
C1127 C499 1.658 . S
C1132 C539 1.656 . S
C1143 C579 1.612 . S
C1148 C619 1.595 . S
C1159 C6 1.591 . S
C1164 C15 1.591 . S
C1175 C46 1.555 . S
C1180 C55 1.555 . S
C1191 C86 1.555 . S
C1196 C95 1.555 . S
C1207 C135 1.597 . S
C1212 C126 1.597 . S
C1223 C175 1.592 . S
C1228 C166 1.592 . S
C1239 C206 1.600 . S
C1244 C215 1.600 . S
C1255 C255 1.564 . S
C1260 C246 1.564 . S
C1271 C295 1.561 . S
C1276 C286 1.561 . S
C1287 C335 1.592 . S
C1292 C326 1.592 . S
C1303 C366 1.555 . S
C1308 C375 1.555 . S
C1319 C415 1.560 . S
C1324 C406 1.560 . S
C1335 C455 1.581 . S
C1340 C446 1.581 . S
C1351 C495 1.575 . S
C1356 C486 1.575 . S
C1367 C535 1.570 . S
C1372 C526 1.570 . S
C1383 C566 1.599 . S
C1388 C575 1.599 . S
C1399 C615 1.599 . S
C1404 C606 1.599 . S
