# Generated by pormake.
# Topology uot, (4)-cn, num edge types: 1
# Building blocks:
#     Node 0, Type 0, BuildingBlock: UXUYUI_clean_sbu_0, # of connection points: 4
#     Node 1, Type 0, BuildingBlock: UXUYUI_clean_sbu_0, # of connection points: 4
#     Node 2, Type 0, BuildingBlock: UXUYUI_clean_sbu_0, # of connection points: 4
#     Node 3, Type 0, BuildingBlock: UXUYUI_clean_sbu_0, # of connection points: 4
#     Node 4, Type 0, BuildingBlock: UXUYUI_clean_sbu_0, # of connection points: 4
#     Node 5, Type 0, BuildingBlock: UXUYUI_clean_sbu_0, # of connection points: 4
#     Node 6, Type 0, BuildingBlock: UXUYUI_clean_sbu_0, # of connection points: 4
#     Node 7, Type 0, BuildingBlock: UXUYUI_clean_sbu_0, # of connection points: 4
#     Node 8, Type 0, BuildingBlock: UXUYUI_clean_sbu_0, # of connection points: 4
#     Node 9, Type 0, BuildingBlock: UXUYUI_clean_sbu_0, # of connection points: 4
#     Node 10, Type 0, BuildingBlock: UXUYUI_clean_sbu_0, # of connection points: 4
#     Node 11, Type 0, BuildingBlock: UXUYUI_clean_sbu_0, # of connection points: 4
#     Node 12, Type 0, BuildingBlock: UXUYUI_clean_sbu_0, # of connection points: 4
#     Node 13, Type 0, BuildingBlock: UXUYUI_clean_sbu_0, # of connection points: 4
#     Node 14, Type 0, BuildingBlock: UXUYUI_clean_sbu_0, # of connection points: 4
#     Node 15, Type 0, BuildingBlock: UXUYUI_clean_sbu_0, # of connection points: 4
#     Edge 16, Type (0, 0), BuildingBlock: AJUNOK_clean_linker_0, # of connection points: 2
#     Edge 17, Type (0, 0), BuildingBlock: AJUNOK_clean_linker_0, # of connection points: 2
#     Edge 18, Type (0, 0), BuildingBlock: AJUNOK_clean_linker_0, # of connection points: 2
#     Edge 19, Type (0, 0), BuildingBlock: AJUNOK_clean_linker_0, # of connection points: 2
#     Edge 20, Type (0, 0), BuildingBlock: AJUNOK_clean_linker_0, # of connection points: 2
#     Edge 21, Type (0, 0), BuildingBlock: AJUNOK_clean_linker_0, # of connection points: 2
#     Edge 22, Type (0, 0), BuildingBlock: AJUNOK_clean_linker_0, # of connection points: 2
#     Edge 23, Type (0, 0), BuildingBlock: AJUNOK_clean_linker_0, # of connection points: 2
#     Edge 24, Type (0, 0), BuildingBlock: AJUNOK_clean_linker_0, # of connection points: 2
#     Edge 25, Type (0, 0), BuildingBlock: AJUNOK_clean_linker_0, # of connection points: 2
#     Edge 26, Type (0, 0), BuildingBlock: AJUNOK_clean_linker_0, # of connection points: 2
#     Edge 27, Type (0, 0), BuildingBlock: AJUNOK_clean_linker_0, # of connection points: 2
#     Edge 28, Type (0, 0), BuildingBlock: AJUNOK_clean_linker_0, # of connection points: 2
#     Edge 29, Type (0, 0), BuildingBlock: AJUNOK_clean_linker_0, # of connection points: 2
#     Edge 30, Type (0, 0), BuildingBlock: AJUNOK_clean_linker_0, # of connection points: 2
#     Edge 31, Type (0, 0), BuildingBlock: AJUNOK_clean_linker_0, # of connection points: 2
#     Edge 32, Type (0, 0), BuildingBlock: AJUNOK_clean_linker_0, # of connection points: 2
#     Edge 33, Type (0, 0), BuildingBlock: AJUNOK_clean_linker_0, # of connection points: 2
#     Edge 34, Type (0, 0), BuildingBlock: AJUNOK_clean_linker_0, # of connection points: 2
#     Edge 35, Type (0, 0), BuildingBlock: AJUNOK_clean_linker_0, # of connection points: 2
#     Edge 36, Type (0, 0), BuildingBlock: AJUNOK_clean_linker_0, # of connection points: 2
#     Edge 37, Type (0, 0), BuildingBlock: AJUNOK_clean_linker_0, # of connection points: 2
#     Edge 38, Type (0, 0), BuildingBlock: AJUNOK_clean_linker_0, # of connection points: 2
#     Edge 39, Type (0, 0), BuildingBlock: AJUNOK_clean_linker_0, # of connection points: 2
#     Edge 40, Type (0, 0), BuildingBlock: AJUNOK_clean_linker_0, # of connection points: 2
#     Edge 41, Type (0, 0), BuildingBlock: AJUNOK_clean_linker_0, # of connection points: 2
#     Edge 42, Type (0, 0), BuildingBlock: AJUNOK_clean_linker_0, # of connection points: 2
#     Edge 43, Type (0, 0), BuildingBlock: AJUNOK_clean_linker_0, # of connection points: 2
#     Edge 44, Type (0, 0), BuildingBlock: AJUNOK_clean_linker_0, # of connection points: 2
#     Edge 45, Type (0, 0), BuildingBlock: AJUNOK_clean_linker_0, # of connection points: 2
#     Edge 46, Type (0, 0), BuildingBlock: AJUNOK_clean_linker_0, # of connection points: 2
#     Edge 47, Type (0, 0), BuildingBlock: AJUNOK_clean_linker_0, # of connection points: 2
# Relax obj value: 0.272
# Max RMSD: 0.247
# Mean RMSD: 0.247
data_MOF--net-uot--node1-UXUYUI_clean_sbu_0--edge1-AJUNOK_clean_linker_0
_symmetry_space_group_name_H-M    P1
_symmetry_Int_Tables_number       1
_symmetry_cell_setting            triclinic
loop_
_symmetry_equiv_pos_as_xyz
'x, y, z'
_cell_length_a     52.37783
_cell_length_b     52.206941
_cell_length_c     48.804035
_cell_angle_alpha  90.00727
_cell_angle_beta   89.980118
_cell_angle_gamma 89.983628
loop_
_atom_site_label
_atom_site_type_symbol
_atom_site_fract_x
_atom_site_fract_y
_atom_site_fract_z
_atom_type_partial_charge
Li0 Li 0.20934 0.46918 0.30581 0.0
Li1 Li 0.21365 0.4536 0.35306 0.0
Li2 Li 0.23821 0.4334 0.31417 0.0
Li3 Li 0.19239 0.4256 0.31899 0.0
C4 C 0.25323 0.49123 0.32438 0.0
N5 N 0.27845 0.53676 0.31443 0.0
C6 C 0.25256 0.51093 0.34376 0.0
C7 C 0.26708 0.49452 0.30017 0.0
C8 C 0.26534 0.53386 0.33829 0.0
C9 C 0.2796 0.51772 0.29545 0.0
C10 C 0.16159 0.46786 0.34752 0.0
C11 C 0.12726 0.45858 0.37896 0.0
N12 N 0.12036 0.48369 0.3786 0.0
C13 C 0.15391 0.49351 0.34715 0.0
C14 C 0.14796 0.45019 0.36329 0.0
C15 C 0.13313 0.50116 0.36313 0.0
C16 C 0.1911 0.49485 0.25924 0.0
N17 N 0.20093 0.49861 0.2847 0.0
C18 C 0.19071 0.54319 0.28273 0.0
C19 C 0.20126 0.52223 0.29643 0.0
C20 C 0.17936 0.53961 0.25699 0.0
C21 C 0.18024 0.51524 0.24487 0.0
H22 H 0.19054 0.47577 0.25065 0.0
H23 H 0.20826 0.52457 0.31708 0.0
C24 C 0.22703 0.44978 0.40926 0.0
N25 N 0.21466 0.46435 0.39036 0.0
C26 C 0.22788 0.4575 0.43667 0.0
C27 C 0.20369 0.49526 0.42452 0.0
C28 C 0.20343 0.48689 0.39737 0.0
C29 C 0.21605 0.48049 0.44452 0.0
H30 H 0.23621 0.43216 0.40306 0.0
H31 H 0.19458 0.4986 0.38183 0.0
C32 C 0.2213 0.42715 0.26171 0.0
N33 N 0.24181 0.40857 0.21347 0.0
C34 C 0.21534 0.40242 0.25279 0.0
C35 C 0.23731 0.44259 0.24585 0.0
C36 C 0.22601 0.39333 0.22842 0.0
C37 C 0.24758 0.43281 0.22159 0.0
C38 C 0.21356 0.39543 0.36033 0.0
C39 C 0.22483 0.37173 0.35467 0.0
C40 C 0.19603 0.39746 0.38181 0.0
C41 C 0.2179 0.35034 0.37017 0.0
C42 C 0.18961 0.37564 0.39687 0.0
N43 N 0.20055 0.35271 0.39076 0.0
C44 C 0.29222 0.42773 0.30994 0.0
C45 C 0.26759 0.39239 0.29479 0.0
C46 C 0.3148 0.41391 0.30593 0.0
N47 N 0.26924 0.41667 0.30465 0.0
C48 C 0.2896 0.37795 0.29041 0.0
C49 C 0.31356 0.38849 0.29658 0.0
H50 H 0.29299 0.44693 0.31819 0.0
H51 H 0.24909 0.38381 0.29144 0.0
C52 C 0.14218 0.41211 0.30615 0.0
N53 N 0.16551 0.40203 0.31179 0.0
C54 C 0.12207 0.39625 0.29826 0.0
C55 C 0.1504 0.35984 0.30175 0.0
C56 C 0.16997 0.37643 0.30975 0.0
C57 C 0.12611 0.36977 0.29583 0.0
H58 H 0.13938 0.43261 0.30694 0.0
H59 H 0.18891 0.36898 0.31329 0.0
O60 O 0.24076 0.46869 0.32935 0.0
O61 O 0.18189 0.46004 0.33193 0.0
O62 O 0.21111 0.43634 0.28557 0.0
O63 O 0.22013 0.41658 0.34532 0.0
H64 H 0.24216 0.50862 0.36274 0.0
H65 H 0.26827 0.47927 0.28526 0.0
H66 H 0.26483 0.54934 0.35302 0.0
H67 H 0.29031 0.52056 0.27673 0.0
H68 H 0.11659 0.44509 0.39129 0.0
H69 H 0.16401 0.50742 0.33485 0.0
H70 H 0.15301 0.43014 0.36312 0.0
H71 H 0.12714 0.52099 0.36321 0.0
H72 H 0.19008 0.56165 0.29284 0.0
H73 H 0.17179 0.51183 0.22495 0.0
H74 H 0.23742 0.4455 0.45159 0.0
H75 H 0.19465 0.51327 0.42977 0.0
H76 H 0.2028 0.3903 0.26468 0.0
H77 H 0.24159 0.46197 0.25209 0.0
H78 H 0.22174 0.37415 0.22139 0.0
H79 H 0.26009 0.44452 0.20917 0.0
H80 H 0.23868 0.36982 0.33839 0.0
H81 H 0.1877 0.41573 0.38705 0.0
H82 H 0.22634 0.33186 0.36586 0.0
H83 H 0.17601 0.37696 0.4135 0.0
H84 H 0.33296 0.42275 0.31073 0.0
H85 H 0.28782 0.3583 0.28354 0.0
H86 H 0.10385 0.40474 0.29302 0.0
H87 H 0.15431 0.33955 0.2997 0.0
Li88 Li 0.42728 0.8082 0.67925 0.0
Li89 Li 0.46851 0.79348 0.69228 0.0
Li90 Li 0.45631 0.78927 0.64455 0.0
Li91 Li 0.43618 0.76203 0.68127 0.0
C92 C 0.48027 0.83745 0.66839 0.0
N93 N 0.522 0.86895 0.67612 0.0
C94 C 0.47819 0.85924 0.68487 0.0
C95 C 0.50349 0.83177 0.65565 0.0
C96 C 0.49953 0.87491 0.68855 0.0
C97 C 0.5244 0.84791 0.65987 0.0
C98 C 0.43357 0.79228 0.73844 0.0
C99 C 0.43239 0.77809 0.78548 0.0
N100 N 0.42814 0.80261 0.79371 0.0
C101 C 0.42886 0.8173 0.74737 0.0
C102 C 0.43505 0.77246 0.75764 0.0
C103 C 0.42631 0.82215 0.77538 0.0
C104 C 0.38061 0.82641 0.70043 0.0
N105 N 0.40141 0.83297 0.68534 0.0
C106 C 0.38785 0.87657 0.68358 0.0
C107 C 0.40505 0.85731 0.67635 0.0
C108 C 0.36655 0.87059 0.69991 0.0
C109 C 0.36279 0.84502 0.70793 0.0
H110 H 0.37835 0.80687 0.70741 0.0
H111 H 0.42181 0.86192 0.66439 0.0
C112 C 0.52082 0.7918 0.70925 0.0
N113 N 0.49745 0.80194 0.71486 0.0
C114 C 0.54246 0.80048 0.72318 0.0
C115 C 0.51573 0.83001 0.74823 0.0
C116 C 0.49465 0.82063 0.73402 0.0
C117 C 0.54007 0.82001 0.7428 0.0
H118 H 0.5229 0.77774 0.69317 0.0
H119 H 0.47633 0.82951 0.73707 0.0
C120 C 0.39665 0.7895 0.64171 0.0
N121 N 0.34989 0.80792 0.62458 0.0
C122 C 0.37413 0.77894 0.65211 0.0
C123 C 0.39544 0.80931 0.62251 0.0
C124 C 0.35066 0.78854 0.6432 0.0
C125 C 0.37159 0.8184 0.61414 0.0
C126 C 0.48545 0.74264 0.67985 0.0
C127 C 0.49965 0.72601 0.66337 0.0
C128 C 0.48417 0.73841 0.70807 0.0
C129 C 0.51231 0.70534 0.67546 0.0
C130 C 0.49711 0.71756 0.7194 0.0
N131 N 0.51079 0.70158 0.703 0.0
C132 C 0.46826 0.81181 0.59338 0.0
C133 C 0.47207 0.76659 0.59553 0.0
C134 C 0.47567 0.81173 0.56588 0.0
N135 N 0.46662 0.78943 0.60749 0.0
C136 C 0.47962 0.76561 0.56813 0.0
C137 C 0.4813 0.78837 0.5529 0.0
H138 H 0.46373 0.82969 0.6035 0.0
H139 H 0.47054 0.74912 0.60734 0.0
C140 C 0.40213 0.72899 0.70735 0.0
N141 N 0.42103 0.72993 0.68832 0.0
C142 C 0.38809 0.70657 0.71101 0.0
C143 C 0.41363 0.68633 0.67583 0.0
C144 C 0.4272 0.7092 0.67283 0.0
C145 C 0.39356 0.68497 0.69487 0.0
H146 H 0.39727 0.74601 0.71885 0.0
H147 H 0.44204 0.7107 0.6575 0.0
O148 O 0.45985 0.82142 0.6652 0.0
O149 O 0.43541 0.78697 0.71102 0.0
O150 O 0.41979 0.78092 0.65078 0.0
O151 O 0.47267 0.76275 0.66825 0.0
H152 H 0.46041 0.86375 0.69511 0.0
H153 H 0.50545 0.81485 0.643 0.0
H154 H 0.49826 0.89173 0.70144 0.0
H155 H 0.54255 0.84365 0.65034 0.0
H156 H 0.4336 0.76294 0.80054 0.0
H157 H 0.42763 0.83291 0.73288 0.0
H158 H 0.43803 0.75287 0.75115 0.0
H159 H 0.42291 0.84146 0.78256 0.0
H160 H 0.39185 0.89611 0.6775 0.0
H161 H 0.34661 0.83961 0.72049 0.0
H162 H 0.56096 0.79248 0.71814 0.0
H163 H 0.51312 0.84584 0.76229 0.0
H164 H 0.3748 0.76367 0.66709 0.0
H165 H 0.41273 0.81777 0.61443 0.0
H166 H 0.33306 0.78065 0.65116 0.0
H167 H 0.37034 0.83383 0.59941 0.0
H168 H 0.50084 0.72901 0.64147 0.0
H169 H 0.47349 0.75123 0.72109 0.0
H170 H 0.52335 0.69229 0.66296 0.0
H171 H 0.49631 0.71411 0.74124 0.0
H172 H 0.47673 0.82967 0.55479 0.0
H173 H 0.48435 0.74728 0.55906 0.0
H174 H 0.37229 0.70655 0.72534 0.0
H175 H 0.41828 0.67013 0.66289 0.0
Li176 Li 0.76078 0.56194 0.31457 0.0
Li177 Li 0.80628 0.57179 0.31927 0.0
Li178 Li 0.79175 0.52929 0.30556 0.0
Li179 Li 0.78546 0.54459 0.3525 0.0
C180 C 0.79371 0.5549 0.26007 0.0
N181 N 0.80818 0.53772 0.20882 0.0
C182 C 0.81842 0.55951 0.25043 0.0
C183 C 0.77632 0.54166 0.24361 0.0
C184 C 0.82537 0.55066 0.22447 0.0
C185 C 0.78402 0.53309 0.21778 0.0
C186 C 0.78335 0.60587 0.34981 0.0
C187 C 0.80885 0.6383 0.37193 0.0
N188 N 0.79534 0.65675 0.35862 0.0
C189 C 0.76968 0.62515 0.33639 0.0
C190 C 0.80304 0.61247 0.36779 0.0
C191 C 0.77604 0.65076 0.34112 0.0
C192 C 0.71335 0.5831 0.32724 0.0
N193 N 0.72872 0.57685 0.30582 0.0
C194 C 0.70095 0.5983 0.27449 0.0
C195 C 0.7228 0.58372 0.27971 0.0
C196 C 0.68533 0.60599 0.29642 0.0
C197 C 0.69135 0.5976 0.32295 0.0
H198 H 0.71888 0.57789 0.34784 0.0
H199 H 0.7356 0.57885 0.26314 0.0
C200 C 0.85688 0.58967 0.31743 0.0
N201 N 0.8323 0.59622 0.31196 0.0
C202 C 0.87688 0.60505 0.30819 0.0
C203 C 0.84588 0.63416 0.28873 0.0
C204 C 0.82645 0.61807 0.29812 0.0
C205 C 0.87142 0.62727 0.29314 0.0
H206 H 0.86103 0.57187 0.32779 0.0
H207 H 0.80678 0.62235 0.29324 0.0
C208 C 0.73557 0.52119 0.32977 0.0
N209 N 0.68344 0.51351 0.33203 0.0
C210 C 0.72278 0.52242 0.35488 0.0
C211 C 0.7219 0.51589 0.30585 0.0
C212 C 0.6964 0.5185 0.35558 0.0
C213 C 0.69553 0.51213 0.30741 0.0
C214 C 0.8321 0.52626 0.35233 0.0
C215 C 0.83411 0.49956 0.35191 0.0
C216 C 0.84367 0.54012 0.37346 0.0
C217 C 0.84759 0.48715 0.37274 0.0
C218 C 0.8569 0.52699 0.39396 0.0
N219 N 0.85857 0.501 0.39318 0.0
C220 C 0.82786 0.50019 0.27886 0.0
C221 C 0.78658 0.48167 0.27594 0.0
C222 C 0.83858 0.47926 0.26548 0.0
N223 N 0.8024 0.50082 0.28421 0.0
C224 C 0.79653 0.46037 0.26213 0.0
C225 C 0.82291 0.4589 0.25737 0.0
H226 H 0.83993 0.51572 0.28571 0.0
H227 H 0.76642 0.48264 0.28058 0.0
C228 C 0.78316 0.55216 0.41009 0.0
N229 N 0.78442 0.53432 0.38984 0.0
C230 C 0.78312 0.54456 0.43753 0.0
C231 C 0.78546 0.50042 0.42268 0.0
C232 C 0.78508 0.50885 0.39556 0.0
C233 C 0.78463 0.51842 0.44399 0.0
H234 H 0.78225 0.57227 0.40494 0.0
H235 H 0.78551 0.49509 0.379 0.0
O236 O 0.78673 0.56281 0.28572 0.0
O237 O 0.77764 0.58066 0.34523 0.0
O238 O 0.7613 0.52539 0.32859 0.0
O239 O 0.81849 0.53876 0.33247 0.0
H240 H 0.83219 0.56957 0.26295 0.0
H241 H 0.75719 0.53776 0.25084 0.0
H242 H 0.84446 0.55399 0.21679 0.0
H243 H 0.77082 0.52268 0.20488 0.0
H244 H 0.82413 0.64368 0.38568 0.0
H245 H 0.75452 0.62045 0.32224 0.0
H246 H 0.81389 0.59781 0.37824 0.0
H247 H 0.76569 0.66587 0.3308 0.0
H248 H 0.69678 0.60424 0.25371 0.0
H249 H 0.67996 0.60338 0.34042 0.0
H250 H 0.89642 0.59921 0.31192 0.0
H251 H 0.84106 0.65104 0.2769 0.0
H252 H 0.73305 0.52658 0.37358 0.0
H253 H 0.73151 0.51498 0.28625 0.0
H254 H 0.68622 0.51951 0.37484 0.0
H255 H 0.68468 0.50817 0.28903 0.0
H256 H 0.82503 0.48846 0.33594 0.0
H257 H 0.8422 0.56077 0.37418 0.0
H258 H 0.84918 0.46649 0.37275 0.0
H259 H 0.86579 0.53747 0.41053 0.0
H260 H 0.859 0.47872 0.26194 0.0
H261 H 0.78398 0.44487 0.25612 0.0
H262 H 0.78231 0.55892 0.45353 0.0
H263 H 0.78619 0.48008 0.42699 0.0
Li264 Li 0.5679 0.1917 0.6882 0.0
Li265 Li 0.52575 0.21134 0.696 0.0
Li266 Li 0.54329 0.21173 0.65028 0.0
Li267 Li 0.56154 0.23706 0.68558 0.0
C268 C 0.51853 0.16255 0.68163 0.0
N269 N 0.48492 0.12635 0.70181 0.0
C270 C 0.52203 0.15231 0.70784 0.0
C271 C 0.49806 0.15418 0.6656 0.0
C272 C 0.50481 0.13408 0.7177 0.0
C273 C 0.48126 0.13591 0.67619 0.0
C274 C 0.56111 0.23226 0.73836 0.0
C275 C 0.5473 0.26907 0.76431 0.0
N276 N 0.57031 0.26963 0.77721 0.0
C277 C 0.58457 0.23313 0.75195 0.0
C278 C 0.54228 0.25033 0.74461 0.0
C279 C 0.58887 0.2522 0.7715 0.0
C280 C 0.61247 0.17077 0.71159 0.0
N281 N 0.59056 0.16483 0.69807 0.0
C282 C 0.59949 0.12013 0.70183 0.0
C283 C 0.58429 0.14016 0.69228 0.0
C284 C 0.62146 0.12566 0.71717 0.0
C285 C 0.62836 0.15131 0.72137 0.0
H286 H 0.6173 0.1906 0.71523 0.0
H287 H 0.5672 0.13597 0.68073 0.0
C288 C 0.47261 0.20536 0.70169 0.0
N289 N 0.49495 0.20616 0.7158 0.0
C290 C 0.45058 0.19578 0.71415 0.0
C291 C 0.47477 0.18934 0.7558 0.0
C292 C 0.4963 0.19904 0.74256 0.0
C293 C 0.45173 0.18701 0.74134 0.0
H294 H 0.47233 0.21057 0.68023 0.0
H295 H 0.51447 0.19931 0.75306 0.0
C296 C 0.59557 0.20198 0.64159 0.0
N297 N 0.62625 0.17499 0.60567 0.0
C298 C 0.61887 0.21223 0.63298 0.0
C299 C 0.58789 0.17795 0.63196 0.0
C300 C 0.6341 0.19831 0.61479 0.0
C301 C 0.60367 0.16462 0.61381 0.0
C302 C 0.52529 0.261 0.65288 0.0
C303 C 0.54614 0.26735 0.63631 0.0
C304 C 0.50303 0.27569 0.65153 0.0
C305 C 0.54435 0.28834 0.61868 0.0
C306 C 0.50199 0.29655 0.63363 0.0
N307 N 0.5225 0.30239 0.61771 0.0
C308 C 0.50919 0.20517 0.60684 0.0
C309 C 0.55108 0.2154 0.59211 0.0
C310 C 0.50067 0.20424 0.57975 0.0
N311 N 0.53408 0.21026 0.61247 0.0
C312 C 0.54341 0.21459 0.56474 0.0
C313 C 0.51795 0.20874 0.55829 0.0
H314 H 0.49587 0.20226 0.62346 0.0
H315 H 0.57053 0.22045 0.59701 0.0
C316 C 0.60511 0.26587 0.6941 0.0
N317 N 0.5793 0.26809 0.69302 0.0
C318 C 0.62025 0.2874 0.69852 0.0
C319 C 0.58195 0.31321 0.70085 0.0
C320 C 0.56748 0.29106 0.6966 0.0
C321 C 0.60868 0.31146 0.70182 0.0
H322 H 0.61392 0.24732 0.69125 0.0
H323 H 0.54688 0.29223 0.69588 0.0
O324 O 0.53466 0.18115 0.67207 0.0
O325 O 0.55678 0.21432 0.71847 0.0
O326 O 0.58066 0.21545 0.65956 0.0
O327 O 0.52636 0.24046 0.67028 0.0
H328 H 0.53762 0.15878 0.72066 0.0
H329 H 0.49511 0.16173 0.64523 0.0
H330 H 0.50715 0.12621 0.73804 0.0
H331 H 0.46526 0.12936 0.66405 0.0
H332 H 0.53297 0.28326 0.76923 0.0
H333 H 0.59938 0.21937 0.74735 0.0
H334 H 0.52413 0.25013 0.73403 0.0
H335 H 0.60699 0.25318 0.78208 0.0
H336 H 0.59392 0.10052 0.69772 0.0
H337 H 0.6453 0.15622 0.73297 0.0
H338 H 0.43332 0.19377 0.70215 0.0
H339 H 0.47637 0.18267 0.77675 0.0
H340 H 0.62509 0.23079 0.64027 0.0
H341 H 0.56993 0.16967 0.63826 0.0
H342 H 0.65217 0.20603 0.60794 0.0
H343 H 0.59794 0.14603 0.60617 0.0
H344 H 0.56356 0.25629 0.63702 0.0
H345 H 0.48671 0.27099 0.66419 0.0
H346 H 0.56034 0.29347 0.60576 0.0
H347 H 0.48487 0.30809 0.63239 0.0
H348 H 0.48069 0.20051 0.57568 0.0
H349 H 0.55725 0.21844 0.54877 0.0
H350 H 0.64083 0.28537 0.69859 0.0
H351 H 0.57243 0.3315 0.70324 0.0
Li352 Li 0.19252 0.56849 0.68466 0.0
Li353 Li 0.2384 0.56261 0.68575 0.0
Li354 Li 0.21298 0.54216 0.64896 0.0
Li355 Li 0.21114 0.52646 0.69602 0.0
C356 C 0.22226 0.6053 0.65605 0.0
N357 N 0.23247 0.65722 0.65556 0.0
C358 C 0.219 0.61987 0.67981 0.0
C359 C 0.23068 0.61714 0.63201 0.0
C360 C 0.22427 0.64608 0.67916 0.0
C361 C 0.23575 0.64341 0.63218 0.0
C362 C 0.22544 0.56391 0.74089 0.0
C363 C 0.2565 0.55311 0.77546 0.0
N364 N 0.24949 0.57418 0.79005 0.0
C365 C 0.21838 0.58535 0.75632 0.0
C366 C 0.24451 0.54757 0.7506 0.0
C367 C 0.23083 0.59025 0.78108 0.0
C368 C 0.15526 0.58743 0.71926 0.0
N369 N 0.16498 0.5906 0.69368 0.0
C370 C 0.1359 0.62492 0.68481 0.0
C371 C 0.15566 0.60872 0.67632 0.0
C372 C 0.12602 0.62248 0.71143 0.0
C373 C 0.13573 0.60329 0.72863 0.0
H374 H 0.16288 0.57265 0.73245 0.0
H375 H 0.16371 0.61074 0.65603 0.0
C376 C 0.29055 0.5724 0.67698 0.0
N377 N 0.27012 0.57934 0.6925 0.0
C378 C 0.31345 0.58602 0.67882 0.0
C379 C 0.29402 0.61324 0.71303 0.0
C380 C 0.27153 0.5992 0.71046 0.0
C381 C 0.31524 0.60689 0.69686 0.0
H382 H 0.28877 0.55679 0.66252 0.0
H383 H 0.25494 0.60494 0.72198 0.0
C384 C 0.16017 0.53627 0.65603 0.0
N385 N 0.11568 0.54104 0.62609 0.0
C386 C 0.13942 0.52026 0.66148 0.0
C387 C 0.15833 0.55472 0.63537 0.0
C388 C 0.11708 0.52297 0.64611 0.0
C389 C 0.13566 0.55683 0.62046 0.0
C390 C 0.25494 0.50561 0.67286 0.0
C391 C 0.24998 0.48521 0.65511 0.0
C392 C 0.27463 0.50356 0.69205 0.0
C393 C 0.26434 0.46276 0.65739 0.0
C394 C 0.28859 0.4808 0.69368 0.0
N395 N 0.28316 0.46103 0.67649 0.0
C396 C 0.22899 0.54357 0.5939 0.0
C397 C 0.19793 0.51182 0.60376 0.0
C398 C 0.23017 0.53562 0.5666 0.0
N399 N 0.21303 0.53164 0.61176 0.0
C400 C 0.19838 0.50337 0.57663 0.0
C401 C 0.2148 0.5152 0.55776 0.0
H402 H 0.24093 0.55912 0.60096 0.0
H403 H 0.18576 0.50239 0.61853 0.0
C404 C 0.19905 0.4986 0.7441 0.0
N405 N 0.20483 0.49647 0.71702 0.0
C406 C 0.19034 0.47733 0.75871 0.0
C407 C 0.19406 0.45199 0.71745 0.0
C408 C 0.20249 0.47378 0.70359 0.0
C409 C 0.18747 0.45377 0.74525 0.0
H410 H 0.19994 0.51704 0.75407 0.0
H411 H 0.20581 0.47289 0.68178 0.0
O412 O 0.21745 0.57955 0.65621 0.0
O413 O 0.21363 0.55898 0.71645 0.0
O414 O 0.1821 0.53386 0.67103 0.0
O415 O 0.24118 0.5278 0.67081 0.0
H416 H 0.21263 0.61102 0.69863 0.0
H417 H 0.2333 0.60613 0.61343 0.0
H418 H 0.22188 0.65756 0.69744 0.0
H419 H 0.24231 0.65282 0.61373 0.0
H420 H 0.27133 0.54064 0.78319 0.0
H421 H 0.20365 0.59822 0.74911 0.0
H422 H 0.24983 0.53068 0.73915 0.0
H423 H 0.22569 0.60685 0.79315 0.0
H424 H 0.1287 0.63944 0.67096 0.0
H425 H 0.12817 0.60047 0.74907 0.0
H426 H 0.32938 0.58071 0.66584 0.0
H427 H 0.29437 0.62968 0.72657 0.0
H428 H 0.14058 0.5059 0.67744 0.0
H429 H 0.17419 0.56727 0.63084 0.0
H430 H 0.10086 0.51071 0.65009 0.0
H431 H 0.13396 0.57102 0.60441 0.0
H432 H 0.23504 0.48661 0.63989 0.0
H433 H 0.27928 0.51945 0.70536 0.0
H434 H 0.26054 0.44673 0.64395 0.0
H435 H 0.30381 0.47891 0.70852 0.0
H436 H 0.24283 0.54541 0.55252 0.0
H437 H 0.18636 0.48747 0.57056 0.0
H438 H 0.18506 0.47947 0.78005 0.0
H439 H 0.1913 0.43434 0.70617 0.0
Li440 Li 0.54566 0.78652 0.34914 0.0
Li441 Li 0.56388 0.76094 0.31225 0.0
Li442 Li 0.57459 0.80628 0.31712 0.0
Li443 Li 0.53247 0.7927 0.30154 0.0
C444 C 0.60665 0.78292 0.34927 0.0
N445 N 0.6572 0.79437 0.35987 0.0
C446 C 0.62612 0.76877 0.3368 0.0
C447 C 0.61291 0.80286 0.36717 0.0
C448 C 0.65155 0.77485 0.34244 0.0
C449 C 0.63858 0.80837 0.37223 0.0
C450 C 0.52233 0.7367 0.32594 0.0
C451 C 0.51319 0.69649 0.3037 0.0
N452 N 0.51379 0.68455 0.32846 0.0
C453 C 0.52277 0.72407 0.35118 0.0
C454 C 0.5174 0.72287 0.302 0.0
C455 C 0.51842 0.69768 0.35202 0.0
C456 C 0.50829 0.7864 0.3906 0.0
N457 N 0.53388 0.78604 0.386 0.0
C458 C 0.54226 0.78568 0.4341 0.0
C459 C 0.55087 0.78549 0.40703 0.0
C460 C 0.51593 0.78628 0.4395 0.0
C461 C 0.49884 0.78676 0.41734 0.0
H462 H 0.49523 0.78664 0.37344 0.0
H463 H 0.5711 0.78485 0.40279 0.0
C464 C 0.5856 0.7223 0.27824 0.0
N465 N 0.57835 0.72843 0.30417 0.0
C466 C 0.60002 0.70023 0.27341 0.0
C467 C 0.59836 0.69082 0.32189 0.0
C468 C 0.58399 0.71302 0.32577 0.0
C469 C 0.6072 0.68462 0.29555 0.0
H470 H 0.58119 0.73511 0.2615 0.0
H471 H 0.57845 0.7187 0.34624 0.0
C472 C 0.5279 0.83336 0.3475 0.0
N473 N 0.50042 0.8601 0.38649 0.0
C474 C 0.5014 0.8357 0.34508 0.0
C475 C 0.54042 0.84469 0.3697 0.0
C476 C 0.48786 0.84931 0.365 0.0
C477 C 0.52618 0.85808 0.38922 0.0
C478 C 0.56007 0.79368 0.25721 0.0
C479 C 0.56646 0.81798 0.24733 0.0
C480 C 0.54658 0.7767 0.24046 0.0
C481 C 0.55905 0.82496 0.22086 0.0
C482 C 0.53948 0.78442 0.21414 0.0
N483 N 0.54581 0.80819 0.20497 0.0
C484 C 0.62192 0.82465 0.29765 0.0
C485 C 0.59571 0.85599 0.31877 0.0
C486 C 0.63994 0.84324 0.2907 0.0
N487 N 0.60032 0.83135 0.31135 0.0
C488 C 0.61314 0.87521 0.31212 0.0
C489 C 0.6355 0.86896 0.29769 0.0
H490 H 0.62475 0.80498 0.2914 0.0
H491 H 0.57805 0.8609 0.32891 0.0
C492 C 0.4853 0.78784 0.27186 0.0
N493 N 0.50512 0.80338 0.27869 0.0
C494 C 0.4649 0.79748 0.25648 0.0
C495 C 0.486 0.83867 0.25534 0.0
C496 C 0.50588 0.82829 0.27068 0.0
C497 C 0.4651 0.82325 0.24813 0.0
H498 H 0.48507 0.76818 0.2788 0.0
H499 H 0.5217 0.84027 0.27686 0.0
O500 O 0.58162 0.77756 0.34369 0.0
O501 O 0.52698 0.76244 0.32462 0.0
O502 O 0.54146 0.81965 0.32853 0.0
O503 O 0.56656 0.78672 0.28331 0.0
H504 H 0.6217 0.75346 0.32267 0.0
H505 H 0.59812 0.81419 0.37678 0.0
H506 H 0.66681 0.76411 0.33285 0.0
H507 H 0.64368 0.82384 0.38591 0.0
H508 H 0.5095 0.68551 0.28533 0.0
H509 H 0.52667 0.73447 0.36989 0.0
H510 H 0.5171 0.73235 0.2823 0.0
H511 H 0.51881 0.68762 0.37139 0.0
H512 H 0.55602 0.78511 0.45065 0.0
H513 H 0.47841 0.78772 0.42061 0.0
H514 H 0.60627 0.6959 0.25276 0.0
H515 H 0.60372 0.67944 0.33952 0.0
H516 H 0.49133 0.82684 0.32823 0.0
H517 H 0.56087 0.84287 0.37204 0.0
H518 H 0.46734 0.85119 0.36345 0.0
H519 H 0.53561 0.86679 0.4066 0.0
H520 H 0.57675 0.83144 0.26005 0.0
H521 H 0.54132 0.7579 0.24786 0.0
H522 H 0.56374 0.84375 0.213 0.0
H523 H 0.52887 0.77155 0.20103 0.0
H524 H 0.65686 0.83769 0.27939 0.0
H525 H 0.60858 0.89489 0.31712 0.0
H526 H 0.44901 0.78507 0.25146 0.0
H527 H 0.48655 0.8588 0.25004 0.0
Li528 Li 0.7848 0.47532 0.69886 0.0
Li529 Li 0.78219 0.45976 0.64907 0.0
Li530 Li 0.75597 0.44108 0.68527 0.0
Li531 Li 0.8003 0.43349 0.68525 0.0
C532 C 0.73075 0.48285 0.67745 0.0
N533 N 0.67973 0.49129 0.68854 0.0
C534 C 0.71248 0.47933 0.65694 0.0
C535 C 0.72313 0.49074 0.70356 0.0
C536 C 0.68676 0.48367 0.66297 0.0
C537 C 0.69722 0.49491 0.70876 0.0
C538 C 0.83843 0.46409 0.6733 0.0
C539 C 0.87742 0.44705 0.65427 0.0
N540 N 0.89033 0.45506 0.67687 0.0
C541 C 0.85215 0.4724 0.6962 0.0
C542 C 0.8512 0.45152 0.65204 0.0
C543 C 0.87836 0.46757 0.69767 0.0
C544 C 0.80239 0.49952 0.7463 0.0
N545 N 0.79174 0.50387 0.72136 0.0
C546 C 0.79813 0.54895 0.72601 0.0
C547 C 0.78896 0.52796 0.71123 0.0
C548 C 0.8104 0.54491 0.75122 0.0
C549 C 0.81201 0.5199 0.76164 0.0
H550 H 0.80467 0.48008 0.75357 0.0
H551 H 0.7807 0.53071 0.69112 0.0
C552 C 0.76342 0.46419 0.59535 0.0
N553 N 0.78332 0.47028 0.61198 0.0
C554 C 0.76358 0.47176 0.56791 0.0
C555 C 0.80495 0.49121 0.57517 0.0
C556 C 0.80385 0.48354 0.60256 0.0
C557 C 0.7846 0.48532 0.55757 0.0
H558 H 0.7475 0.45339 0.60341 0.0
H559 H 0.81935 0.48818 0.61633 0.0
C560 C 0.77418 0.42252 0.73479 0.0
N561 N 0.76376 0.38221 0.76972 0.0
C562 C 0.77301 0.39752 0.72469 0.0
C563 C 0.77014 0.42704 0.76268 0.0
C564 C 0.76769 0.37739 0.74266 0.0
C565 C 0.76488 0.4064 0.78001 0.0
C566 C 0.78187 0.40312 0.64047 0.0
C567 C 0.77156 0.37894 0.64591 0.0
C568 C 0.79812 0.40633 0.61799 0.0
C569 C 0.77816 0.35827 0.62916 0.0
C570 C 0.80423 0.38519 0.6017 0.0
N571 N 0.79424 0.3618 0.6076 0.0
C572 C 0.71361 0.41288 0.66926 0.0
C573 C 0.71231 0.42466 0.71617 0.0
C574 C 0.69198 0.39764 0.67243 0.0
N575 N 0.72368 0.42539 0.69113 0.0
C576 C 0.69065 0.40951 0.72031 0.0
C577 C 0.68072 0.39521 0.69839 0.0
H578 H 0.723 0.41397 0.64956 0.0
H579 H 0.72054 0.4351 0.73313 0.0
C580 C 0.83741 0.41523 0.72036 0.0
N581 N 0.82724 0.41032 0.69527 0.0
C582 C 0.85818 0.40116 0.72989 0.0
C583 C 0.85739 0.37656 0.68796 0.0
C584 C 0.83668 0.39128 0.6791 0.0
C585 C 0.86858 0.38177 0.71346 0.0
H586 H 0.82968 0.43055 0.73276 0.0
H587 H 0.82863 0.38776 0.65917 0.0
O588 O 0.75591 0.47787 0.67229 0.0
O589 O 0.81258 0.46777 0.67198 0.0
O590 O 0.7789 0.44263 0.71753 0.0
O591 O 0.77528 0.42364 0.65644 0.0
H592 H 0.71806 0.47307 0.63668 0.0
H593 H 0.73704 0.49333 0.71972 0.0
H594 H 0.67238 0.4809 0.64734 0.0
H595 H 0.69102 0.50091 0.72891 0.0
H596 H 0.88748 0.43714 0.63807 0.0
H597 H 0.84264 0.48216 0.71284 0.0
H598 H 0.84096 0.44505 0.63413 0.0
H599 H 0.88915 0.47368 0.7154 0.0
H600 H 0.79695 0.56793 0.71713 0.0
H601 H 0.82144 0.51609 0.78097 0.0
H602 H 0.74761 0.46685 0.55482 0.0
H603 H 0.82132 0.5019 0.5679 0.0
H604 H 0.7762 0.39371 0.70325 0.0
H605 H 0.77089 0.44632 0.7708 0.0
H606 H 0.76669 0.35795 0.73508 0.0
H607 H 0.76165 0.40962 0.80163 0.0
H608 H 0.75848 0.37614 0.66281 0.0
H609 H 0.80604 0.42487 0.61317 0.0
H610 H 0.77041 0.33945 0.63323 0.0
H611 H 0.8169 0.3874 0.58436 0.0
H612 H 0.68491 0.38685 0.65505 0.0
H613 H 0.6822 0.40841 0.74053 0.0
H614 H 0.86615 0.4055 0.74984 0.0
H615 H 0.86502 0.36174 0.67475 0.0
Li616 Li 0.43955 0.23773 0.31713 0.0
Li617 Li 0.45775 0.21076 0.35313 0.0
Li618 Li 0.47353 0.20699 0.3068 0.0
Li619 Li 0.43068 0.19223 0.32001 0.0
C620 C 0.48102 0.25873 0.34608 0.0
N621 N 0.49174 0.30143 0.37749 0.0
C622 C 0.46386 0.26677 0.36631 0.0
C623 C 0.50365 0.27234 0.34192 0.0
C624 C 0.46963 0.28842 0.38195 0.0
C625 C 0.5087 0.29391 0.35797 0.0
C626 C 0.39727 0.21213 0.35436 0.0
C627 C 0.36821 0.18123 0.37387 0.0
N628 N 0.34835 0.19725 0.36858 0.0
C629 C 0.37659 0.22846 0.34956 0.0
C630 C 0.39307 0.1885 0.36704 0.0
C631 C 0.35201 0.22054 0.35673 0.0
C632 C 0.40056 0.26647 0.29478 0.0
N633 N 0.42387 0.26935 0.30658 0.0
C634 C 0.41903 0.3149 0.30664 0.0
C635 C 0.43376 0.29303 0.31144 0.0
C636 C 0.39404 0.31229 0.29658 0.0
C637 C 0.38519 0.28775 0.2897 0.0
H638 H 0.39337 0.24744 0.29062 0.0
H639 H 0.45273 0.29508 0.31971 0.0
C640 C 0.49343 0.21365 0.39636 0.0
N641 N 0.4683 0.21004 0.39053 0.0
C642 C 0.50192 0.21306 0.42345 0.0
C643 C 0.45849 0.20522 0.43805 0.0
C644 C 0.45083 0.20607 0.41068 0.0
C645 C 0.48435 0.20862 0.44464 0.0
H646 H 0.50688 0.21689 0.3799 0.0
H647 H 0.43094 0.20361 0.40553 0.0
C648 C 0.44467 0.22453 0.26281 0.0
N649 N 0.45271 0.24913 0.21346 0.0
C650 C 0.43035 0.21775 0.23978 0.0
C651 C 0.46305 0.24386 0.26078 0.0
C652 C 0.43471 0.23041 0.215 0.0
C653 C 0.46683 0.25606 0.23564 0.0
C654 C 0.47779 0.16528 0.35098 0.0
C655 C 0.50446 0.16577 0.35026 0.0
C656 C 0.4654 0.15147 0.37164 0.0
C657 C 0.51829 0.15274 0.37038 0.0
C658 C 0.4799 0.13875 0.39144 0.0
N659 N 0.50583 0.13965 0.39041 0.0
C660 C 0.52574 0.20646 0.29031 0.0
C661 C 0.49702 0.18275 0.26262 0.0
C662 C 0.54659 0.19654 0.2759 0.0
N663 N 0.50166 0.19884 0.28392 0.0
C664 C 0.51723 0.17273 0.2474 0.0
C665 C 0.54247 0.17901 0.25445 0.0
H666 H 0.52882 0.219 0.30764 0.0
H667 H 0.47765 0.17691 0.25817 0.0
C668 C 0.38542 0.17444 0.29576 0.0
N669 N 0.40593 0.16713 0.31092 0.0
C670 C 0.36833 0.1561 0.28591 0.0
C671 C 0.39335 0.12325 0.3083 0.0
C672 C 0.41004 0.14219 0.31756 0.0
C673 C 0.37256 0.13011 0.29172 0.0
H674 H 0.38281 0.19444 0.29066 0.0
H675 H 0.42675 0.13691 0.32922 0.0
O676 O 0.47614 0.23733 0.33076 0.0
O677 O 0.4215 0.21949 0.34725 0.0
O678 O 0.44046 0.21237 0.28721 0.0
O679 O 0.46392 0.17855 0.33185 0.0
H680 H 0.44625 0.25653 0.3699 0.0
H681 H 0.51717 0.26629 0.32643 0.0
H682 H 0.45652 0.29488 0.39763 0.0
H683 H 0.52613 0.30465 0.35494 0.0
H684 H 0.36472 0.16284 0.38338 0.0
H685 H 0.37946 0.2472 0.34076 0.0
H686 H 0.40881 0.17576 0.37124 0.0
H687 H 0.33585 0.23297 0.35301 0.0
H688 H 0.42681 0.33359 0.31144 0.0
H689 H 0.36606 0.2849 0.28184 0.0
H690 H 0.52201 0.21577 0.42779 0.0
H691 H 0.44433 0.20227 0.4539 0.0
H692 H 0.41601 0.20287 0.24108 0.0
H693 H 0.47426 0.24944 0.2784 0.0
H694 H 0.42378 0.22535 0.19699 0.0
H695 H 0.48099 0.27104 0.23376 0.0
H696 H 0.51442 0.17632 0.33456 0.0
H697 H 0.44483 0.15076 0.37262 0.0
H698 H 0.53894 0.15313 0.37012 0.0
H699 H 0.47053 0.1282 0.40765 0.0
H700 H 0.5657 0.20143 0.28251 0.0
H701 H 0.51319 0.15943 0.23092 0.0
H702 H 0.35238 0.16206 0.27331 0.0
H703 H 0.39731 0.10336 0.31294 0.0
Li704 Li 0.70958 0.97016 0.81048 0.0
Li705 Li 0.71242 0.95159 0.85735 0.0
Li706 Li 0.73906 0.93524 0.81749 0.0
Li707 Li 0.69396 0.92693 0.81929 0.0
C708 C 0.7482 0.99406 0.83452 0.0
N709 N 0.7642 0.04438 0.83156 0.0
C710 C 0.73929 0.01201 0.8535 0.0
C711 C 0.76546 0.0016 0.81424 0.0
C712 C 0.74755 0.03739 0.8516 0.0
C713 C 0.77326 0.02716 0.81303 0.0
C714 C 0.6561 0.95663 0.83448 0.0
C715 C 0.61728 0.93767 0.85162 0.0
N716 N 0.60416 0.9483 0.83043 0.0
C717 C 0.64224 0.96741 0.8129 0.0
C718 C 0.64354 0.94171 0.85407 0.0
C719 C 0.61599 0.96298 0.81122 0.0
C720 C 0.70339 0.00452 0.76514 0.0
N721 N 0.70138 0.00138 0.79272 0.0
C722 C 0.67905 0.04102 0.7971 0.0
C723 C 0.68995 0.01928 0.80879 0.0
C724 C 0.67977 0.04419 0.76858 0.0
C725 C 0.6928 0.0261 0.75255 0.0
H726 H 0.71201 0.98972 0.75275 0.0
H727 H 0.68813 0.01598 0.83058 0.0
C728 C 0.73271 0.95652 0.9108 0.0
N729 N 0.71162 0.96013 0.89505 0.0
C730 C 0.73288 0.96469 0.93808 0.0
C731 C 0.68949 0.97961 0.93242 0.0
C732 C 0.6902 0.97129 0.90527 0.0
C733 C 0.71118 0.97676 0.94906 0.0
H734 H 0.74954 0.94778 0.90198 0.0
H735 H 0.67381 0.97414 0.89218 0.0
C736 C 0.72592 0.93242 0.76417 0.0
N737 N 0.75153 0.9176 0.71727 0.0
C738 C 0.71877 0.91007 0.75037 0.0
C739 C 0.74597 0.9473 0.75401 0.0
C740 C 0.73198 0.90289 0.72671 0.0
C741 C 0.75872 0.93946 0.73031 0.0
C742 C 0.71474 0.89342 0.85902 0.0
C743 C 0.72324 0.87027 0.84791 0.0
C744 C 0.70106 0.89342 0.88363 0.0
C745 C 0.71768 0.84739 0.86152 0.0
C746 C 0.6959 0.87013 0.89661 0.0
N747 N 0.70424 0.8478 0.88537 0.0
C748 C 0.79279 0.92932 0.82027 0.0
C749 C 0.77101 0.89767 0.7944 0.0
C750 C 0.81577 0.91592 0.81749 0.0
N751 N 0.77098 0.91982 0.80906 0.0
C752 C 0.7936 0.88403 0.79057 0.0
C753 C 0.81616 0.8929 0.80267 0.0
H754 H 0.79209 0.94667 0.83235 0.0
H755 H 0.7533 0.88994 0.78673 0.0
C756 C 0.65597 0.91019 0.78428 0.0
N757 N 0.66728 0.90386 0.80842 0.0
C758 C 0.63578 0.89564 0.77408 0.0
C759 C 0.63931 0.86796 0.81354 0.0
C760 C 0.65924 0.88328 0.82318 0.0
C761 C 0.62716 0.87422 0.78878 0.0
H762 H 0.6625 0.92681 0.77307 0.0
H763 H 0.66797 0.87871 0.84251 0.0
O764 O 0.74004 0.96922 0.83578 0.0
O765 O 0.68192 0.96014 0.83607 0.0
O766 O 0.71335 0.93965 0.7875 0.0
O767 O 0.72032 0.91603 0.84624 0.0
H768 H 0.72593 0.00647 0.86934 0.0
H769 H 0.77281 0.98786 0.79965 0.0
H770 H 0.74069 0.05153 0.86604 0.0
H771 H 0.78655 0.03331 0.79738 0.0
H772 H 0.60734 0.926 0.86651 0.0
H773 H 0.65169 0.97881 0.79741 0.0
H774 H 0.65405 0.93303 0.87076 0.0
H775 H 0.60503 0.97111 0.79456 0.0
H776 H 0.66925 0.0547 0.81007 0.0
H777 H 0.6935 0.02792 0.73046 0.0
H778 H 0.74998 0.96219 0.95026 0.0
H779 H 0.6722 0.98832 0.94027 0.0
H780 H 0.70342 0.89822 0.75803 0.0
H781 H 0.75171 0.96464 0.76442 0.0
H782 H 0.72675 0.88558 0.71591 0.0
H783 H 0.77435 0.95074 0.72229 0.0
H784 H 0.73393 0.86995 0.82896 0.0
H785 H 0.69433 0.91114 0.89253 0.0
H786 H 0.72406 0.82931 0.85311 0.0
H787 H 0.68524 0.86982 0.91559 0.0
H788 H 0.83285 0.92299 0.82745 0.0
H789 H 0.79316 0.86598 0.77963 0.0
H790 H 0.62679 0.90132 0.75504 0.0
H791 H 0.63358 0.85134 0.8253 0.0
Li792 Li 0.93139 0.30849 0.17857 0.0
Li793 Li 0.9728 0.29159 0.19122 0.0
Li794 Li 0.95625 0.28864 0.14221 0.0
Li795 Li 0.93749 0.26393 0.1798 0.0
C796 C 0.96784 0.34317 0.15349 0.0
N797 N 0.97433 0.39139 0.13117 0.0
C798 C 0.98092 0.3621 0.1681 0.0
C799 C 0.95831 0.34871 0.1274 0.0
C800 C 0.98391 0.38638 0.1565 0.0
C801 C 0.96172 0.37321 0.1165 0.0
C802 C 0.94125 0.30203 0.23458 0.0
C803 C 0.93391 0.30766 0.28302 0.0
N804 N 0.9432 0.33194 0.28129 0.0
C805 C 0.95069 0.32705 0.23331 0.0
C806 C 0.93276 0.29225 0.25964 0.0
C807 C 0.95153 0.34185 0.25713 0.0
C808 C 0.89063 0.32905 0.20845 0.0
N809 N 0.90692 0.33482 0.18761 0.0
C810 C 0.89005 0.37735 0.18506 0.0
C811 C 0.90634 0.35821 0.17531 0.0
C812 C 0.8744 0.37232 0.20773 0.0
C813 C 0.87428 0.34766 0.21903 0.0
H814 H 0.89087 0.31013 0.21744 0.0
H815 H 0.91882 0.36235 0.15839 0.0
C816 C 0.02129 0.31161 0.19915 0.0
N817 N 0.00281 0.29776 0.21186 0.0
C818 C 0.04252 0.32008 0.21379 0.0
C819 C 0.02586 0.29891 0.25409 0.0
C820 C 0.00495 0.29073 0.23859 0.0
C821 C 0.04464 0.31428 0.24178 0.0
H822 H 0.01905 0.31685 0.17785 0.0
H823 H 0.99004 0.2795 0.24811 0.0
C824 C 0.89535 0.29115 0.14741 0.0
N825 N 0.84586 0.3088 0.14238 0.0
C826 C 0.8761 0.28128 0.16419 0.0
C827 C 0.88944 0.3099 0.12798 0.0
C828 C 0.85119 0.29047 0.16134 0.0
C829 C 0.8643 0.31861 0.12579 0.0
C830 C 0.97717 0.23653 0.16677 0.0
C831 C 0.97363 0.22145 0.14343 0.0
C832 C 0.98368 0.225 0.19164 0.0
C833 C 0.97645 0.1949 0.14543 0.0
C834 C 0.98631 0.19839 0.1928 0.0
N835 N 0.98266 0.18402 0.16987 0.0
C836 C 0.99175 0.29182 0.0996 0.0
C837 C 0.94915 0.28503 0.08481 0.0
C838 C 0.00036 0.2921 0.07254 0.0
N839 N 0.96656 0.28844 0.10512 0.0
C840 C 0.9569 0.28533 0.05743 0.0
C841 C 0.98279 0.2891 0.05102 0.0
H842 H 0.00512 0.29428 0.11628 0.0
H843 H 0.92925 0.28222 0.0899 0.0
C844 C 0.91839 0.22325 0.21287 0.0
N845 N 0.92151 0.2321 0.1869 0.0
C846 C 0.90428 0.20096 0.2176 0.0
C847 C 0.89775 0.19704 0.1687 0.0
C848 C 0.91183 0.2194 0.16495 0.0
C849 C 0.89338 0.18788 0.19533 0.0
H850 H 0.92635 0.23382 0.2299 0.0
H851 H 0.91451 0.22708 0.14457 0.0
O852 O 0.96526 0.3191 0.16428 0.0
O853 O 0.94008 0.28709 0.21153 0.0
O854 O 0.91997 0.28291 0.15042 0.0
O855 O 0.97375 0.26243 0.16543 0.0
H856 H 0.98878 0.35811 0.18815 0.0
H857 H 0.94804 0.33442 0.11582 0.0
H858 H 0.99393 0.40123 0.16762 0.0
H859 H 0.9543 0.37779 0.09641 0.0
H860 H 0.92741 0.30032 0.30254 0.0
H861 H 0.95717 0.33501 0.21417 0.0
H862 H 0.92532 0.27296 0.261 0.0
H863 H 0.95877 0.36125 0.25639 0.0
H864 H 0.89051 0.3962 0.17579 0.0
H865 H 0.86215 0.34305 0.23633 0.0
H866 H 0.05658 0.33196 0.20362 0.0
H867 H 0.02708 0.29374 0.27554 0.0
H868 H 0.88039 0.26692 0.1795 0.0
H869 H 0.90414 0.31783 0.11492 0.0
H870 H 0.83611 0.28311 0.17429 0.0
H871 H 0.85946 0.33321 0.11095 0.0
H872 H 0.96848 0.23016 0.12407 0.0
H873 H 0.98636 0.23647 0.2099 0.0
H874 H 0.97363 0.18295 0.12759 0.0
H875 H 0.99118 0.18915 0.21193 0.0
H876 H 0.02056 0.29439 0.06851 0.0
H877 H 0.94278 0.28295 0.04142 0.0
H878 H 0.9015 0.19428 0.2384 0.0
H879 H 0.88947 0.18759 0.15106 0.0
Li880 Li 0.25566 0.05925 0.80961 0.0
Li881 Li 0.301 0.07085 0.80848 0.0
Li882 Li 0.28629 0.02796 0.79769 0.0
Li883 Li 0.28356 0.04388 0.84515 0.0
C884 C 0.27883 0.05304 0.7508 0.0
N885 N 0.27968 0.03728 0.69672 0.0
C886 C 0.29677 0.06324 0.73262 0.0
C887 C 0.26102 0.03519 0.74132 0.0
C888 C 0.29696 0.05495 0.7054 0.0
C889 C 0.26184 0.02735 0.71397 0.0
C890 C 0.26864 0.10528 0.83579 0.0
C891 C 0.25865 0.14534 0.85796 0.0
N892 N 0.25437 0.15618 0.83305 0.0
C893 C 0.26418 0.11685 0.81037 0.0
C894 C 0.26584 0.11962 0.85978 0.0
C895 C 0.25695 0.14259 0.80944 0.0
C896 C 0.20995 0.08191 0.82644 0.0
N897 N 0.22239 0.07295 0.80395 0.0
C898 C 0.19088 0.09118 0.77445 0.0
C899 C 0.2131 0.07682 0.77828 0.0
C900 C 0.17845 0.10187 0.79725 0.0
C901 C 0.18778 0.09642 0.82355 0.0
H902 H 0.21807 0.079 0.84658 0.0
H903 H 0.22355 0.06986 0.76073 0.0
C904 C 0.34513 0.08555 0.78175 0.0
N905 N 0.32732 0.09476 0.79945 0.0
C906 C 0.36532 0.101 0.77318 0.0
C907 C 0.34907 0.13499 0.80192 0.0
C908 C 0.32921 0.11881 0.81005 0.0
C909 C 0.36729 0.12616 0.78304 0.0
H910 H 0.34353 0.06614 0.7742 0.0
H911 H 0.31553 0.12548 0.82496 0.0
C912 C 0.23288 0.01821 0.82819 0.0
N913 N 0.18156 0.00834 0.8361 0.0
C914 C 0.22136 0.02376 0.85334 0.0
C915 C 0.21836 0.00729 0.8072 0.0
C916 C 0.19538 0.01873 0.8569 0.0
C917 C 0.19242 0.00254 0.81156 0.0
C918 C 0.33624 0.0425 0.83741 0.0
C919 C 0.35778 0.02712 0.83361 0.0
C920 C 0.33695 0.06251 0.85645 0.0
C921 C 0.37972 0.03196 0.84904 0.0
C922 C 0.35925 0.06672 0.87147 0.0
N923 N 0.37999 0.05149 0.86749 0.0
C924 C 0.3155 0.00138 0.75918 0.0
C925 C 0.28304 0.97619 0.77977 0.0
C926 C 0.32422 0.98034 0.7443 0.0
N927 N 0.29525 0.99895 0.7764 0.0
C928 C 0.29138 0.9545 0.76554 0.0
C929 C 0.31226 0.9565 0.74762 0.0
H930 H 0.32521 0.01959 0.75748 0.0
H931 H 0.2673 0.97474 0.79402 0.0
C932 C 0.27385 0.04883 0.90176 0.0
N933 N 0.28644 0.03477 0.88262 0.0
C934 C 0.2748 0.04179 0.92934 0.0
C935 C 0.30215 0.00629 0.917 0.0
C936 C 0.30044 0.01386 0.88962 0.0
C937 C 0.28918 0.0203 0.93727 0.0
H938 H 0.26259 0.06517 0.89549 0.0
H939 H 0.31016 0.00299 0.87389 0.0
O940 O 0.27861 0.06061 0.77766 0.0
O941 O 0.27501 0.07988 0.83741 0.0
O942 O 0.25821 0.0234 0.82419 0.0
O943 O 0.31473 0.03806 0.82225 0.0
H944 H 0.31032 0.0775 0.73937 0.0
H945 H 0.24687 0.02732 0.75501 0.0
H946 H 0.31083 0.06259 0.69115 0.0
H947 H 0.24832 0.01336 0.70646 0.0
H948 H 0.25642 0.15666 0.87637 0.0
H949 H 0.26618 0.10615 0.79155 0.0
H950 H 0.26915 0.11096 0.8796 0.0
H951 H 0.25337 0.15175 0.78993 0.0
H952 H 0.18406 0.09472 0.75384 0.0
H953 H 0.17889 0.10453 0.84163 0.0
H954 H 0.3791 0.09345 0.75872 0.0
H955 H 0.35038 0.15406 0.81055 0.0
H956 H 0.23227 0.03216 0.86982 0.0
H957 H 0.227 0.00243 0.78778 0.0
H958 H 0.18619 0.02314 0.87619 0.0
H959 H 0.18095 0.99419 0.79544 0.0
H960 H 0.35754 0.01163 0.81887 0.0
H961 H 0.32051 0.0747 0.85959 0.0
H962 H 0.39655 0.02021 0.84633 0.0
H963 H 0.36007 0.08213 0.88627 0.0
H964 H 0.34076 0.98243 0.73116 0.0
H965 H 0.2819 0.93631 0.76877 0.0
H966 H 0.26394 0.05271 0.94417 0.0
H967 H 0.31349 0.98965 0.92227 0.0
Li968 Li 0.02671 0.71085 0.19638 0.0
Li969 Li 0.06747 0.69251 0.18689 0.0
Li970 Li 0.06408 0.73825 0.18477 0.0
Li971 Li 0.0438 0.71044 0.15048 0.0
C972 C 0.05527 0.73071 0.24016 0.0
N973 N 0.04714 0.76084 0.28591 0.0
C974 C 0.06536 0.72347 0.26551 0.0
C975 C 0.04109 0.75334 0.23807 0.0
C976 C 0.06101 0.73893 0.28841 0.0
C977 C 0.0372 0.76829 0.26144 0.0
C978 C 0.02614 0.6592 0.1859 0.0
C979 C 0.00308 0.61921 0.18557 0.0
N980 N 0.0083 0.61611 0.21266 0.0
C981 C 0.03126 0.65562 0.21377 0.0
C982 C 0.01193 0.64087 0.17168 0.0
C983 C 0.02209 0.6337 0.22691 0.0
C984 C 0.97629 0.69638 0.2003 0.0
N985 N 0.99569 0.70533 0.21613 0.0
C986 C 0.97225 0.69565 0.2569 0.0
C987 C 0.99392 0.70553 0.24397 0.0
C988 C 0.95266 0.68503 0.241 0.0
C989 C 0.95447 0.68608 0.21237 0.0
H990 H 0.97851 0.69573 0.17828 0.0
H991 H 0.00979 0.71182 0.25629 0.0
C992 C 0.10562 0.66829 0.21858 0.0
N993 N 0.08987 0.66527 0.1967 0.0
C994 C 0.12121 0.64811 0.22713 0.0
C995 C 0.10461 0.62245 0.18994 0.0
C996 C 0.08923 0.64303 0.18224 0.0
C997 C 0.1205 0.62469 0.21299 0.0
H998 H 0.10574 0.68625 0.22963 0.0
H999 H 0.07658 0.64123 0.16483 0.0
C1000 C 0.01505 0.75174 0.1501 0.0
N1001 N 0.98873 0.77343 0.10686 0.0
C1002 C 0.02831 0.76399 0.12897 0.0
C1003 C 0.9884 0.75079 0.1494 0.0
C1004 C 0.01466 0.77475 0.10723 0.0
C1005 C 0.97544 0.76182 0.12733 0.0
C1006 C 0.10203 0.70281 0.15052 0.0
C1007 C 0.12519 0.70893 0.16312 0.0
C1008 C 0.10107 0.68286 0.13144 0.0
C1009 C 0.14704 0.69486 0.15652 0.0
C1010 C 0.12334 0.66927 0.12536 0.0
N1011 N 0.14567 0.67548 0.13794 0.0
C1012 C 0.10344 0.76847 0.20609 0.0
C1013 C 0.07343 0.79176 0.17958 0.0
C1014 C 0.11889 0.79012 0.20859 0.0
N1015 N 0.0816 0.76951 0.1911 0.0
C1016 C 0.08836 0.81384 0.18144 0.0
C1017 C 0.11174 0.81292 0.19544 0.0
H1018 H 0.10925 0.75057 0.21534 0.0
H1019 H 0.05569 0.79223 0.16836 0.0
C1020 C 0.01009 0.70002 0.10709 0.0
N1021 N 0.03428 0.70762 0.11306 0.0
C1022 C 0.0018 0.69929 0.07993 0.0
C1023 C 0.04369 0.7135 0.0656 0.0
C1024 C 0.05107 0.71431 0.09306 0.0
C1025 C 0.01874 0.70604 0.05886 0.0
H1026 H 0.99714 0.69503 0.12352 0.0
H1027 H 0.07003 0.72073 0.09848 0.0
O1028 O 0.05964 0.71573 0.21764 0.0
O1029 O 0.03415 0.68087 0.17264 0.0
O1030 O 0.02811 0.74045 0.17118 0.0
O1031 O 0.0803 0.71597 0.15718 0.0
H1032 H 0.07639 0.70603 0.26747 0.0
H1033 H 0.03312 0.75936 0.21871 0.0
H1034 H 0.06867 0.73352 0.30816 0.0
H1035 H 0.02626 0.78583 0.26012 0.0
H1036 H 0.99199 0.60491 0.17482 0.0
H1037 H 0.04202 0.66965 0.22524 0.0
H1038 H 0.00762 0.64346 0.15016 0.0
H1039 H 0.02587 0.63073 0.24846 0.0
H1040 H 0.97153 0.6948 0.27907 0.0
H1041 H 0.93968 0.67795 0.19952 0.0
H1042 H 0.13317 0.65057 0.24504 0.0
H1043 H 0.10394 0.60491 0.17812 0.0
H1044 H 0.04896 0.76463 0.12901 0.0
H1045 H 0.97781 0.74165 0.16571 0.0
H1046 H 0.0247 0.78401 0.09059 0.0
H1047 H 0.95482 0.76113 0.12647 0.0
H1048 H 0.12627 0.72425 0.17796 0.0
H1049 H 0.08323 0.67762 0.12178 0.0
H1050 H 0.16507 0.69931 0.1662 0.0
H1051 H 0.12285 0.65368 0.11077 0.0
H1052 H 0.1368 0.78872 0.21959 0.0
H1053 H 0.08206 0.83126 0.17146 0.0
H1054 H 0.98239 0.6935 0.07539 0.0
H1055 H 0.0571 0.71923 0.04985 0.0
Li1056 Li 0.69729 0.06766 0.18819 0.0
Li1057 Li 0.74321 0.05953 0.18787 0.0
Li1058 Li 0.71687 0.04092 0.1528 0.0
Li1059 Li 0.7147 0.02618 0.20071 0.0
C1060 C 0.72677 0.1037 0.16056 0.0
N1061 N 0.73606 0.15578 0.16291 0.0
C1062 C 0.72895 0.11604 0.18591 0.0
C1063 C 0.72929 0.1179 0.13644 0.0
C1064 C 0.73367 0.14236 0.18665 0.0
C1065 C 0.73397 0.1442 0.13805 0.0
C1066 C 0.72298 0.05348 0.24662 0.0
C1067 C 0.74438 0.02948 0.28207 0.0
N1068 N 0.72875 0.04026 0.30111 0.0
C1069 C 0.70731 0.06452 0.26658 0.0
C1070 C 0.74183 0.03602 0.25446 0.0
C1071 C 0.71047 0.05752 0.294 0.0
C1072 C 0.65549 0.08317 0.21843 0.0
N1073 N 0.66972 0.09017 0.19642 0.0
C1074 C 0.64313 0.12675 0.18888 0.0
C1075 C 0.66378 0.11127 0.18135 0.0
C1076 C 0.62856 0.12038 0.21209 0.0
C1077 C 0.6349 0.09816 0.2268 0.0
H1078 H 0.66017 0.06584 0.22946 0.0
H1079 H 0.67483 0.11598 0.16335 0.0
C1080 C 0.78722 0.08474 0.17043 0.0
N1081 N 0.77539 0.07578 0.19329 0.0
C1082 C 0.80881 0.10018 0.17264 0.0
C1083 C 0.80621 0.09634 0.22192 0.0
C1084 C 0.7846 0.08094 0.21875 0.0
C1085 C 0.81817 0.10667 0.19866 0.0
H1086 H 0.77916 0.08087 0.15046 0.0
H1087 H 0.77463 0.07404 0.23663 0.0
C1088 C 0.66427 0.03604 0.16008 0.0
N1089 N 0.62028 0.04083 0.12931 0.0
C1090 C 0.64371 0.01953 0.16458 0.0
C1091 C 0.66246 0.05503 0.13997 0.0
C1092 C 0.62163 0.02225 0.14879 0.0
C1093 C 0.64006 0.05712 0.12462 0.0
C1094 C 0.7688 0.0191 0.16972 0.0
C1095 C 0.77936 0.02613 0.14452 0.0
C1096 C 0.7843 0.0078 0.18965 0.0
C1097 C 0.80538 0.0222 0.13986 0.0
C1098 C 0.81024 0.00417 0.18421 0.0
N1099 N 0.82017 0.01142 0.15965 0.0
C1100 C 0.72437 0.04551 0.09568 0.0
C1101 C 0.70427 0.00707 0.10997 0.0
C1102 C 0.7236 0.03757 0.06837 0.0
N1103 N 0.71485 0.03021 0.11574 0.0
C1104 C 0.70296 0.99844 0.08292 0.0
C1105 C 0.71266 0.0138 0.06171 0.0
H1106 H 0.73295 0.06367 0.10097 0.0
H1107 H 0.69691 0.99532 0.12643 0.0
C1108 C 0.68739 0.99981 0.24061 0.0
N1109 N 0.70727 0.99743 0.22291 0.0
C1110 C 0.679 0.97872 0.25562 0.0
C1111 C 0.7118 0.9531 0.23397 0.0
C1112 C 0.71971 0.9748 0.2195 0.0
C1113 C 0.69104 0.95493 0.2521 0.0
H1114 H 0.67754 0.01794 0.24238 0.0
H1115 H 0.73518 0.97342 0.20489 0.0
O1116 O 0.72259 0.07784 0.15914 0.0
O1117 O 0.71988 0.05973 0.21957 0.0
O1118 O 0.68594 0.03362 0.1755 0.0
O1119 O 0.7434 0.0231 0.17475 0.0
H1120 H 0.7271 0.10551 0.20484 0.0
H1121 H 0.72767 0.10869 0.11665 0.0
H1122 H 0.73545 0.15211 0.20611 0.0
H1123 H 0.73596 0.1554 0.11953 0.0
H1124 H 0.75878 0.01584 0.28836 0.0
H1125 H 0.69299 0.0785 0.26104 0.0
H1126 H 0.75423 0.0275 0.23932 0.0
H1127 H 0.69841 0.06586 0.30964 0.0
H1128 H 0.6384 0.14326 0.17645 0.0
H1129 H 0.62413 0.09247 0.24475 0.0
H1130 H 0.81732 0.10802 0.15423 0.0
H1131 H 0.81303 0.10075 0.24233 0.0
H1132 H 0.64483 0.00478 0.18013 0.0
H1133 H 0.67814 0.06804 0.13623 0.0
H1134 H 0.60556 0.0096 0.15204 0.0
H1135 H 0.63839 0.07172 0.10899 0.0
H1136 H 0.76768 0.03487 0.12885 0.0
H1137 H 0.77642 0.00172 0.20905 0.0
H1138 H 0.81384 0.02778 0.12053 0.0
H1139 H 0.82248 0.99553 0.19949 0.0
H1140 H 0.73186 0.04971 0.05271 0.0
H1141 H 0.69435 0.98001 0.07861 0.0
H1142 H 0.66253 0.98073 0.26887 0.0
H1143 H 0.72137 0.93498 0.23059 0.0
Li1144 Li 0.04256 0.28666 0.84588 0.0
Li1145 Li 0.05973 0.26046 0.80739 0.0
Li1146 Li 0.06974 0.3051 0.80946 0.0
Li1147 Li 0.0275 0.29242 0.79888 0.0
C1148 C 0.10439 0.28287 0.83836 0.0
N1149 N 0.15591 0.29428 0.83964 0.0
C1150 C 0.12094 0.27216 0.81901 0.0
C1151 C 0.11404 0.29956 0.85822 0.0
C1152 C 0.14693 0.2781 0.82005 0.0
C1153 C 0.14015 0.30505 0.85855 0.0
C1154 C 0.01702 0.23835 0.83203 0.0
C1155 C 0.99199 0.19972 0.82849 0.0
N1156 N 0.00316 0.19071 0.85172 0.0
C1157 C 0.02816 0.22876 0.85593 0.0
C1158 C 0.99871 0.22378 0.81822 0.0
C1159 C 0.02095 0.20462 0.86553 0.0
C1160 C 0.00711 0.28638 0.88894 0.0
N1161 N 0.03249 0.28729 0.88323 0.0
C1162 C 0.04266 0.28886 0.9309 0.0
C1163 C 0.05026 0.28821 0.90349 0.0
C1164 C 0.01656 0.28831 0.9374 0.0
C1165 C 0.99866 0.28679 0.91607 0.0
H1166 H 0.99345 0.28529 0.87236 0.0
H1167 H 0.0703 0.28826 0.89839 0.0
C1168 C 0.07736 0.21639 0.77559 0.0
N1169 N 0.07398 0.22704 0.80081 0.0
C1170 C 0.09129 0.19373 0.77267 0.0
C1171 C 0.09737 0.19286 0.8217 0.0
C1172 C 0.08342 0.21553 0.82367 0.0
C1173 C 0.10197 0.18207 0.79588 0.0
H1174 H 0.0703 0.22576 0.7575 0.0
H1175 H 0.0812 0.22466 0.8434 0.0
C1176 C 0.02305 0.33915 0.81963 0.0
N1177 N 0.99061 0.37877 0.80559 0.0
C1178 C 0.03009 0.35661 0.79928 0.0
C1179 C 0.99961 0.34196 0.833 0.0
C1180 C 0.0134 0.37649 0.79244 0.0
C1181 C 0.98344 0.36207 0.82554 0.0
C1182 C 0.05193 0.27348 0.75293 0.0
C1183 C 0.0665 0.27677 0.72918 0.0
C1184 C 0.03017 0.25796 0.75211 0.0
C1185 C 0.0592 0.2643 0.70509 0.0
C1186 C 0.02347 0.24587 0.72762 0.0
N1187 N 0.03802 0.24925 0.70481 0.0
C1188 C 0.1093 0.3278 0.77916 0.0
C1189 C 0.09796 0.35031 0.81958 0.0
C1190 C 0.12683 0.34679 0.77211 0.0
N1191 N 0.09512 0.33009 0.80233 0.0
C1192 C 0.11544 0.36967 0.81344 0.0
C1193 C 0.12993 0.3682 0.78925 0.0
H1194 H 0.10654 0.31149 0.76586 0.0
H1195 H 0.08632 0.35159 0.83784 0.0
C1196 C 0.97437 0.29777 0.78887 0.0
N1197 N 0.99808 0.30265 0.77884 0.0
C1198 C 0.95296 0.30884 0.77654 0.0
C1199 C 0.98084 0.32878 0.74326 0.0
C1200 C 0.00164 0.31729 0.75614 0.0
C1201 C 0.95624 0.32515 0.75394 0.0
H1202 H 0.97222 0.28626 0.80716 0.0
H1203 H 0.02077 0.32101 0.74882 0.0
O1204 O 0.07874 0.27792 0.83708 0.0
O1205 O 0.02382 0.26192 0.82217 0.0
O1206 O 0.03878 0.31913 0.82606 0.0
O1207 O 0.05864 0.28608 0.77645 0.0
H1208 H 0.11381 0.25972 0.80305 0.0
H1209 H 0.10148 0.30866 0.87286 0.0
H1210 H 0.15992 0.26998 0.80517 0.0
H1211 H 0.14784 0.31802 0.87374 0.0
H1212 H 0.97786 0.18822 0.81799 0.0
H1213 H 0.04246 0.23967 0.86682 0.0
H1214 H 0.98971 0.23099 0.79981 0.0
H1215 H 0.02953 0.19692 0.88393 0.0
H1216 H 0.05702 0.28947 0.94686 0.0
H1217 H 0.97837 0.28625 0.92036 0.0
H1218 H 0.09437 0.18584 0.75241 0.0
H1219 H 0.10561 0.1846 0.84004 0.0
H1220 H 0.04806 0.3546 0.78855 0.0
H1221 H 0.99385 0.32856 0.84874 0.0
H1222 H 0.0185 0.39003 0.77658 0.0
H1223 H 0.96516 0.36435 0.83556 0.0
H1224 H 0.08327 0.28886 0.72933 0.0
H1225 H 0.0186 0.25517 0.77013 0.0
H1226 H 0.07035 0.26665 0.6866 0.0
H1227 H 0.00672 0.23378 0.72675 0.0
H1228 H 0.13708 0.34519 0.75292 0.0
H1229 H 0.11728 0.38585 0.8272 0.0
H1230 H 0.93424 0.30572 0.78534 0.0
H1231 H 0.98401 0.34101 0.72566 0.0
Li1232 Li 0.29245 0.95756 0.14163 0.0
Li1233 Li 0.29469 0.97308 0.19066 0.0
Li1234 Li 0.3109 0.93238 0.17799 0.0
Li1235 Li 0.26565 0.93727 0.17994 0.0
C1236 C 0.34811 0.96173 0.16234 0.0
N1237 N 0.39963 0.95061 0.15955 0.0
C1238 C 0.36384 0.96609 0.18499 0.0
C1239 C 0.3586 0.95182 0.13822 0.0
C1240 C 0.38983 0.96028 0.18319 0.0
C1241 C 0.3847 0.94634 0.13721 0.0
C1242 C 0.24975 0.99365 0.16075 0.0
C1243 C 0.21161 0.01812 0.16994 0.0
N1244 N 0.21923 0.03596 0.15135 0.0
C1245 C 0.25712 0.01216 0.14162 0.0
C1246 C 0.22672 0.99657 0.17492 0.0
C1247 C 0.24147 0.03343 0.13721 0.0
C1248 C 0.27343 0.96008 0.08756 0.0
N1249 N 0.2925 0.96794 0.10445 0.0
C1250 C 0.31122 0.99277 0.06859 0.0
C1251 C 0.31118 0.98399 0.09559 0.0
C1252 C 0.29156 0.98533 0.05071 0.0
C1253 C 0.2726 0.96858 0.06042 0.0
H1254 H 0.25873 0.94746 0.09531 0.0
H1255 H 0.32592 0.99019 0.10959 0.0
C1256 C 0.3167 0.99949 0.2346 0.0
N1257 N 0.30114 0.0027 0.21257 0.0
C1258 C 0.32558 0.02071 0.24917 0.0
C1259 C 0.30094 0.04805 0.21925 0.0
C1260 C 0.29277 0.02634 0.20508 0.0
C1261 C 0.3183 0.04544 0.24099 0.0
H1262 H 0.32309 0.98047 0.24011 0.0
H1263 H 0.28052 0.02856 0.18755 0.0
C1264 C 0.29256 0.89731 0.14164 0.0
N1265 N 0.3067 0.84881 0.12492 0.0
C1266 C 0.28973 0.8765 0.15939 0.0
C1267 C 0.30234 0.89347 0.11532 0.0
C1268 C 0.29708 0.85213 0.15057 0.0
C1269 C 0.30942 0.86879 0.10726 0.0
C1270 C 0.27668 0.9439 0.23456 0.0
C1271 C 0.28004 0.92731 0.25674 0.0
C1272 C 0.25916 0.96399 0.2366 0.0
C1273 C 0.26585 0.93115 0.28064 0.0
C1274 C 0.24536 0.96724 0.26084 0.0
N1275 N 0.24895 0.95088 0.28218 0.0
C1276 C 0.34378 0.90697 0.21369 0.0
C1277 C 0.35139 0.89561 0.1674 0.0
C1278 C 0.36375 0.89131 0.22237 0.0
N1279 N 0.33795 0.90886 0.18663 0.0
C1280 C 0.37153 0.87965 0.1752 0.0
C1281 C 0.37803 0.87754 0.20301 0.0
H1282 H 0.33322 0.9181 0.22853 0.0
H1283 H 0.34686 0.89776 0.14595 0.0
C1284 C 0.21301 0.92715 0.17265 0.0
N1285 N 0.23428 0.92058 0.18695 0.0
C1286 C 0.19068 0.91273 0.17534 0.0
C1287 C 0.21257 0.88533 0.20764 0.0
C1288 C 0.23434 0.90042 0.20456 0.0
C1289 C 0.19054 0.89105 0.19241 0.0
H1290 H 0.21363 0.94306 0.15849 0.0
H1291 H 0.25165 0.89544 0.21537 0.0
O1292 O 0.32249 0.96665 0.16394 0.0
O1293 O 0.26463 0.97246 0.16504 0.0
O1294 O 0.28549 0.9213 0.14981 0.0
O1295 O 0.29024 0.94005 0.21092 0.0
H1296 H 0.35604 0.97362 0.20384 0.0
H1297 H 0.34664 0.94788 0.12065 0.0
H1298 H 0.40219 0.96341 0.20063 0.0
H1299 H 0.39304 0.93849 0.11875 0.0
H1300 H 0.19378 0.02064 0.18081 0.0
H1301 H 0.27492 0.01036 0.13059 0.0
H1302 H 0.2205 0.98233 0.18958 0.0
H1303 H 0.24703 0.04797 0.12258 0.0
H1304 H 0.32652 0.00517 0.06178 0.0
H1305 H 0.25709 0.96246 0.0473 0.0
H1306 H 0.33897 0.01786 0.2658 0.0
H1307 H 0.29437 0.06675 0.21271 0.0
H1308 H 0.28226 0.8792 0.17984 0.0
H1309 H 0.30456 0.90942 0.10134 0.0
H1310 H 0.29518 0.83586 0.16414 0.0
H1311 H 0.31713 0.86552 0.08699 0.0
H1312 H 0.29335 0.91149 0.25545 0.0
H1313 H 0.25633 0.97703 0.21974 0.0
H1314 H 0.26824 0.91842 0.29794 0.0
H1315 H 0.23178 0.98277 0.26268 0.0
H1316 H 0.36838 0.89046 0.24399 0.0
H1317 H 0.38195 0.86916 0.15965 0.0
H1318 H 0.17395 0.91808 0.16364 0.0
H1319 H 0.21335 0.86867 0.22084 0.0
Li1320 Li 0.93775 0.73796 0.81859 0.0
Li1321 Li 0.95591 0.71102 0.85484 0.0
Li1322 Li 0.97019 0.70648 0.80709 0.0
Li1323 Li 0.92806 0.692 0.82166 0.0
C1324 C 0.98297 0.76073 0.83104 0.0
N1325 N 9e-05 0.81078 0.83032 0.0
C1326 C 0.98766 0.77365 0.85562 0.0
C1327 C 0.98714 0.77321 0.80611 0.0
C1328 C 0.99628 0.79897 0.85482 0.0
C1329 C 0.99574 0.79853 0.80617 0.0
C1330 C 0.89473 0.71331 0.85298 0.0
C1331 C 0.86274 0.68544 0.87236 0.0
N1332 N 0.84422 0.69933 0.85968 0.0
C1333 C 0.87538 0.72735 0.84021 0.0
C1334 C 0.88837 0.69223 0.86928 0.0
C1335 C 0.84997 0.71998 0.84384 0.0
C1336 C 0.90809 0.7734 0.78875 0.0
N1337 N 0.9233 0.77064 0.81111 0.0
C1338 C 0.91227 0.81254 0.82682 0.0
C1339 C 0.92564 0.78963 0.82998 0.0
C1340 C 0.89549 0.8156 0.80459 0.0
C1341 C 0.89375 0.79571 0.78521 0.0
H1342 H 0.90592 0.75764 0.77455 0.0
H1343 H 0.937 0.7866 0.84814 0.0
C1344 C 0.99245 0.71356 0.89708 0.0
N1345 N 0.9671 0.71083 0.89189 0.0
C1346 C 0.0015 0.71264 0.92396 0.0
C1347 C 0.95817 0.70624 0.93962 0.0
C1348 C 0.94994 0.7075 0.91247 0.0
C1349 C 0.98429 0.70863 0.94562 0.0
H1350 H 0.00562 0.71639 0.88028 0.0
H1351 H 0.92989 0.70562 0.90779 0.0
C1352 C 0.94178 0.7091 0.76185 0.0
N1353 N 0.95334 0.70137 0.70724 0.0
C1354 C 0.93834 0.68497 0.75001 0.0
C1355 C 0.95082 0.72936 0.74587 0.0
C1356 C 0.94437 0.68143 0.72238 0.0
C1357 C 0.95663 0.72505 0.71831 0.0
C1358 C 0.97623 0.6658 0.85178 0.0
C1359 C 0.00279 0.66554 0.8488 0.0
C1360 C 0.96507 0.65361 0.87431 0.0
C1361 C 0.01772 0.65308 0.86842 0.0
C1362 C 0.98068 0.64143 0.89353 0.0
N1363 N 0.00645 0.64141 0.89021 0.0
C1364 C 0.01881 0.71255 0.7807 0.0
C1365 C 0.99712 0.6733 0.7733 0.0
C1366 C 0.04006 0.70355 0.76627 0.0
N1367 N 0.99803 0.69728 0.78409 0.0
C1368 C 0.0178 0.66362 0.75862 0.0
C1369 C 0.03982 0.6786 0.75547 0.0
H1370 H 0.01928 0.73132 0.78999 0.0
H1371 H 0.98064 0.66132 0.77702 0.0
C1372 C 0.88453 0.67211 0.79522 0.0
N1373 N 0.90283 0.66676 0.8141 0.0
C1374 C 0.86732 0.65317 0.78704 0.0
C1375 C 0.88742 0.62396 0.81885 0.0
C1376 C 0.90444 0.64335 0.82611 0.0
C1377 C 0.86882 0.62859 0.7987 0.0
H1378 H 0.88392 0.69086 0.78579 0.0
H1379 H 0.91931 0.63952 0.84084 0.0
O1380 O 0.9744 0.73599 0.83143 0.0
O1381 O 0.91978 0.71982 0.84909 0.0
O1382 O 0.9363 0.71287 0.78894 0.0
O1383 O 0.9613 0.67853 0.83321 0.0
H1384 H 0.98442 0.76434 0.87511 0.0
H1385 H 0.98368 0.76347 0.78693 0.0
H1386 H -0.00012 0.80924 0.87368 0.0
H1387 H 0.99895 0.80845 0.78702 0.0
H1388 H 0.85757 0.66903 0.88471 0.0
H1389 H 0.8799 0.74369 0.82752 0.0
H1390 H 0.9031 0.68086 0.87895 0.0
H1391 H 0.83481 0.73063 0.83401 0.0
H1392 H 0.91425 0.82728 0.84228 0.0
H1393 H 0.88039 0.79666 0.76833 0.0
H1394 H 0.0217 0.71528 0.92773 0.0
H1395 H 0.94429 0.70313 0.95573 0.0
H1396 H 0.93142 0.66905 0.76211 0.0
H1397 H 0.95328 0.74822 0.75463 0.0
H1398 H 0.94199 0.66281 0.71299 0.0
H1399 H 0.96373 0.74054 0.70571 0.0
H1400 H 0.01186 0.67511 0.83176 0.0
H1401 H 0.94463 0.65406 0.87733 0.0
H1402 H 0.03829 0.65282 0.86641 0.0
H1403 H 0.9723 0.63214 0.91118 0.0
H1404 H 0.05672 0.71568 0.76413 0.0
H1405 H 0.01706 0.64417 0.75092 0.0
H1406 H 0.85376 0.65742 0.77093 0.0
H1407 H 0.88919 0.60533 0.82842 0.0
C1408 C 0.34131 0.3567 0.27223 0.0
C1409 C 0.33665 0.37204 0.29541 0.0
C1410 C 0.3608 0.33828 0.27221 0.0
C1411 C 0.37632 0.33448 0.29539 0.0
H1412 H 0.32932 0.35848 0.25424 0.0
H1413 H 0.36327 0.32641 0.25419 0.0
S1414 S 0.37181 0.36962 0.36132 0.0
N1415 N 0.34927 0.38238 0.34203 0.0
N1416 N 0.38581 0.34774 0.34205 0.0
C1417 C 0.3724 0.35029 0.31836 0.0
C1418 C 0.35259 0.36906 0.31836 0.0
C1419 C 0.36604 0.65264 0.67142 0.0
C1420 C 0.37656 0.66228 0.69586 0.0
C1421 C 0.34711 0.63371 0.67189 0.0
C1422 C 0.338 0.62375 0.69682 0.0
H1423 H 0.37153 0.6607 0.65183 0.0
H1424 H 0.33863 0.6278 0.65266 0.0
S1425 S 0.36203 0.63972 0.76621 0.0
N1426 N 0.37853 0.65844 0.74546 0.0
N1427 N 0.34283 0.62284 0.74634 0.0
C1428 C 0.34939 0.63214 0.7213 0.0
C1429 C 0.36869 0.6514 0.72082 0.0
C1430 C 0.62142 0.6395 0.30432 0.0
C1431 C 0.62585 0.66346 0.29201 0.0
C1432 C 0.64033 0.62046 0.30452 0.0
C1433 C 0.66434 0.62471 0.29241 0.0
H1434 H 0.60344 0.63569 0.31451 0.0
H1435 H 0.63638 0.60254 0.31487 0.0
S1436 S 0.6857 0.68432 0.25797 0.0
N1437 N 0.65606 0.69039 0.26749 0.0
N1438 N 0.69152 0.65465 0.26784 0.0
C1439 C 0.66875 0.6483 0.27935 0.0
C1440 C 0.64952 0.66767 0.27915 0.0
C1441 C 0.62171 0.3549 0.68559 0.0
C1442 C 0.62476 0.33467 0.70432 0.0
C1443 C 0.63924 0.37518 0.68465 0.0
C1444 C 0.66021 0.37606 0.70263 0.0
H1445 H 0.60644 0.3544 0.67063 0.0
H1446 H 0.63684 0.38985 0.66916 0.0
S1447 S 0.67533 0.32886 0.75709 0.0
N1448 N 0.64913 0.31767 0.74256 0.0
N1449 N 0.68222 0.35565 0.74069 0.0
C1450 C 0.66267 0.35663 0.72241 0.0
C1451 C 0.64493 0.33594 0.72325 0.0
C1452 C 0.84682 0.86512 0.82753 0.0
C1453 C 0.83891 0.87624 0.8028 0.0
C1454 C 0.86572 0.84618 0.82793 0.0
C1455 C 0.87771 0.83788 0.80361 0.0
H1456 H 0.83742 0.87019 0.84656 0.0
H1457 H 0.87009 0.8372 0.84737 0.0
S1458 S 0.86575 0.86376 0.7339 0.0
N1459 N 0.84534 0.87925 0.7537 0.0
N1460 N 0.88187 0.84445 0.75439 0.0
C1461 C 0.87082 0.84998 0.77888 0.0
C1462 C 0.8512 0.86897 0.77848 0.0
C1463 C 0.86094 0.12373 0.18482 0.0
C1464 C 0.83892 0.12585 0.20118 0.0
C1465 C 0.87913 0.14339 0.18401 0.0
C1466 C 0.87598 0.16586 0.19955 0.0
H1467 H 0.86377 0.10702 0.17201 0.0
H1468 H 0.89547 0.1413 0.17057 0.0
S1469 S 0.82159 0.18096 0.24547 0.0
N1470 N 0.81502 0.15219 0.23331 0.0
N1471 N 0.84929 0.18907 0.23186 0.0
C1472 C 0.85448 0.16788 0.21665 0.0
C1473 C 0.83592 0.1479 0.21745 0.0
C1474 C 0.1169 0.13842 0.80986 0.0
C1475 C 0.11985 0.16022 0.79323 0.0
C1476 C 0.13538 0.11898 0.81013 0.0
C1477 C 0.15749 0.1207 0.79384 0.0
H1478 H 0.10047 0.13668 0.82322 0.0
H1479 H 0.13266 0.10277 0.82368 0.0
S1480 S 0.17457 0.17432 0.74741 0.0
N1481 N 0.1466 0.18254 0.76028 0.0
N1482 N 0.1814 0.14615 0.76092 0.0
C1483 C 0.16037 0.14216 0.77668 0.0
C1484 C 0.14153 0.16188 0.77635 0.0
C1485 C 0.15962 0.86322 0.21802 0.0
C1486 C 0.16842 0.87325 0.19295 0.0
C1487 C 0.14065 0.84427 0.21879 0.0
C1488 C 0.12968 0.83483 0.19454 0.0
H1489 H 0.16779 0.86974 0.23718 0.0
H1490 H 0.13481 0.83666 0.23847 0.0
S1491 S 0.1464 0.85403 0.12363 0.0
N1492 N 0.16495 0.87182 0.14325 0.0
N1493 N 0.12905 0.83658 0.14481 0.0
C1494 C 0.13786 0.84504 0.16939 0.0
C1495 C 0.15727 0.86417 0.16857 0.0
C1496 C 0.17569 0.58498 0.24065 0.0
C1497 C 0.16464 0.56066 0.24414 0.0
C1498 C 0.16145 0.60551 0.23013 0.0
C1499 C 0.1356 0.60246 0.22289 0.0
H1500 H 0.19547 0.58816 0.2462 0.0
H1501 H 0.1707 0.62393 0.2277 0.0
S1502 S 0.09729 0.54306 0.23019 0.0
N1503 N 0.12613 0.53492 0.24068 0.0
N1504 N 0.09928 0.57349 0.22125 0.0
C1505 C 0.12433 0.57823 0.22643 0.0
C1506 C 0.13886 0.55735 0.23699 0.0
C1507 C 0.58391 0.83869 0.73922 0.0
C1508 C 0.563 0.83165 0.75567 0.0
C1509 C 0.60476 0.85195 0.75024 0.0
C1510 C 0.60553 0.85872 0.77814 0.0
H1511 H 0.58384 0.83465 0.71744 0.0
H1512 H 0.6203 0.85717 0.7367 0.0
S1513 S 0.55607 0.84375 0.83022 0.0
N1514 N 0.54493 0.8312 0.80156 0.0
N1515 N 0.58368 0.85698 0.82211 0.0
C1516 C 0.58501 0.85128 0.79497 0.0
C1517 C 0.56384 0.83761 0.78377 0.0
C1518 C 0.84211 0.40777 0.20608 0.0
C1519 C 0.86001 0.39329 0.22098 0.0
C1520 C 0.82936 0.42855 0.21824 0.0
C1521 C 0.83457 0.4357 0.24543 0.0
H1522 H 0.83809 0.40307 0.18489 0.0
H1523 H 0.81592 0.43953 0.20611 0.0
S1524 S 0.87974 0.40401 0.29302 0.0
N1525 N 0.88207 0.3874 0.26432 0.0
N1526 N 0.85839 0.4266 0.28698 0.0
C1527 C 0.85222 0.42123 0.26055 0.0
C1528 C 0.86488 0.39997 0.24836 0.0
C1529 C 0.43409 0.14836 0.7647 0.0
C1530 C 0.42996 0.17285 0.7535 0.0
C1531 C 0.41375 0.13359 0.77455 0.0
C1532 C 0.38854 0.14282 0.77378 0.0
H1533 H 0.45313 0.14024 0.76516 0.0
H1534 H 0.41778 0.11471 0.7827 0.0
S1535 S 0.36763 0.20597 0.74716 0.0
N1536 N 0.39891 0.20595 0.74281 0.0
N1537 N 0.36056 0.17808 0.76122 0.0
C1538 C 0.38418 0.16746 0.76312 0.0
C1539 C 0.40491 0.18246 0.75292 0.0
C1540 C 0.15077 0.43573 0.77144 0.0
C1541 C 0.17474 0.432 0.7591 0.0
C1542 C 0.13685 0.41507 0.78197 0.0
C1543 C 0.14642 0.38991 0.78066 0.0
H1544 H 0.14222 0.45463 0.77195 0.0
H1545 H 0.11798 0.41876 0.79018 0.0
S1546 S 0.20974 0.37052 0.75354 0.0
N1547 N 0.20844 0.40173 0.74814 0.0
N1548 N 0.18247 0.36282 0.76842 0.0
C1549 C 0.17091 0.3861 0.76951 0.0
C1550 C 0.18502 0.40716 0.75861 0.0
C1551 C 0.39721 0.84485 0.23434 0.0
C1552 C 0.40001 0.86175 0.21208 0.0
C1553 C 0.41818 0.83153 0.24506 0.0
C1554 C 0.44278 0.83476 0.23402 0.0
H1555 H 0.37871 0.84228 0.24391 0.0
H1556 H 0.41528 0.81945 0.26283 0.0
S1557 S 0.46009 0.87553 0.17461 0.0
N1558 N 0.42914 0.88023 0.17869 0.0
N1559 N 0.46849 0.85479 0.1985 0.0
C1560 C 0.44569 0.85084 0.2111 0.0
C1561 C 0.42432 0.86439 0.20018 0.0
C1562 C 0.85016 0.56328 0.7711 0.0
C1563 C 0.82409 0.56612 0.76499 0.0
C1564 C 0.86424 0.58345 0.78239 0.0
C1565 C 0.85278 0.60723 0.78823 0.0
H1566 H 0.85995 0.54555 0.76634 0.0
H1567 H 0.88446 0.58055 0.78586 0.0
S1568 S 0.78444 0.62359 0.7783 0.0
N1569 N 0.78696 0.59393 0.76681 0.0
N1570 N 0.81331 0.63183 0.78869 0.0
C1571 C 0.82652 0.61009 0.7829 0.0
C1572 C 0.81221 0.58955 0.77114 0.0
C1573 C 0.58343 0.12425 0.22827 0.0
C1574 C 0.60645 0.13626 0.22089 0.0
C1575 C 0.56277 0.13835 0.23842 0.0
C1576 C 0.56418 0.16512 0.24153 0.0
H1577 H 0.58141 0.10366 0.22648 0.0
H1578 H 0.54579 0.12801 0.24461 0.0
S1579 S 0.61971 0.20604 0.2239 0.0
N1580 N 0.62931 0.17664 0.21683 0.0
N1581 N 0.59007 0.2033 0.23507 0.0
C1582 C 0.58683 0.17752 0.23351 0.0
C1583 C 0.608 0.16309 0.22329 0.0
C1584 C 0.6767 0.08252 0.73776 0.0
C1585 C 0.66488 0.06493 0.75552 0.0
C1586 C 0.66261 0.10232 0.72547 0.0
C1587 C 0.6362 0.10474 0.73012 0.0
H1588 H 0.69697 0.08112 0.73364 0.0
H1589 H 0.67233 0.11565 0.71204 0.0
S1590 S 0.59634 0.06323 0.7745 0.0
N1591 N 0.62531 0.05097 0.77684 0.0
N1592 N 0.59888 0.08805 0.75372 0.0
C1593 C 0.6242 0.08713 0.74765 0.0
C1594 C 0.63853 0.06724 0.76036 0.0
C1595 C 0.11064 0.33754 0.26181 0.0
C1596 C 0.10567 0.3531 0.28474 0.0
C1597 C 0.09094 0.32421 0.24863 0.0
C1598 C 0.06561 0.32574 0.25808 0.0
H1599 H 0.12971 0.33655 0.25326 0.0
H1600 H 0.09543 0.31312 0.23049 0.0
S1601 S 0.04291 0.3624 0.31849 0.0
N1602 N 0.07392 0.36804 0.31735 0.0
N1603 N 0.0368 0.34317 0.29244 0.0
C1604 C 0.06057 0.34035 0.28168 0.0
C1605 C 0.08061 0.35403 0.29501 0.0
C1606 C 0.33066 0.91252 0.75042 0.0
C1607 C 0.32312 0.93349 0.73429 0.0
C1608 C 0.34387 0.89183 0.73889 0.0
C1609 C 0.34988 0.89127 0.71076 0.0
H1610 H 0.32732 0.91263 0.77233 0.0
H1611 H 0.35036 0.87668 0.75237 0.0
S1612 S 0.33113 0.93997 0.65917 0.0
N1613 N 0.32049 0.95154 0.68853 0.0
N1614 N 0.34488 0.91236 0.66663 0.0
C1615 C 0.34124 0.91155 0.69419 0.0
C1616 C 0.32797 0.93272 0.706 0.0
C1617 C 0.89544 0.66818 0.28534 0.0
C1618 C 0.89226 0.64189 0.27998 0.0
C1619 C 0.91516 0.68216 0.27282 0.0
C1620 C 0.93186 0.67036 0.25411 0.0
H1621 H 0.88276 0.67788 0.2995 0.0
H1622 H 0.91723 0.70233 0.27755 0.0
S1623 S 0.93132 0.60218 0.23293 0.0
N1624 N 0.90729 0.60472 0.25469 0.0
N1625 N 0.94413 0.63101 0.23101 0.0
C1626 C 0.92875 0.64417 0.2485 0.0
C1627 C 0.90899 0.62992 0.26148 0.0
C1628 C 0.67354 0.91058 0.24884 0.0
C1629 C 0.68016 0.93176 0.26516 0.0
C1630 C 0.66001 0.88986 0.25984 0.0
C1631 C 0.65268 0.88951 0.28759 0.0
H1632 H 0.67777 0.91057 0.22711 0.0
H1633 H 0.65425 0.87455 0.24619 0.0
S1634 S 0.6687 0.93862 0.33976 0.0
N1635 N 0.68067 0.95005 0.31093 0.0
N1636 N 0.65544 0.9109 0.33175 0.0
C1637 C 0.66042 0.90993 0.30445 0.0
C1638 C 0.67411 0.93109 0.2932 0.0
C1639 C 0.89088 0.34061 0.72449 0.0
C1640 C 0.89138 0.3675 0.72278 0.0
C1641 C 0.91196 0.32693 0.73455 0.0
C1642 C 0.93434 0.33969 0.74273 0.0
H1643 H 0.8739 0.33015 0.71854 0.0
H1644 H 0.91079 0.30625 0.73588 0.0
S1645 S 0.94538 0.40987 0.74164 0.0
N1646 N 0.91615 0.40633 0.72956 0.0
N1647 N 0.95573 0.38067 0.74845 0.0
C1648 C 0.93515 0.36654 0.74074 0.0
C1649 C 0.91367 0.38043 0.73078 0.0
C1650 C 0.34585 0.09041 0.2947 0.0
C1651 C 0.3568 0.10995 0.27873 0.0
C1652 C 0.33274 0.06997 0.28243 0.0
C1653 C 0.33028 0.06829 0.25376 0.0
H1654 H 0.34768 0.0908 0.3168 0.0
H1655 H 0.32473 0.05522 0.29546 0.0
S1656 S 0.35697 0.11389 0.20288 0.0
N1657 N 0.36499 0.12607 0.23288 0.0
N1658 N 0.34077 0.08755 0.20976 0.0
C1659 C 0.34108 0.08783 0.23761 0.0
C1660 C 0.35425 0.10868 0.25012 0.0
C1661 C 0.08221 0.64108 0.70675 0.0
C1662 C 0.1053 0.63943 0.72132 0.0
C1663 C 0.0613 0.65459 0.71747 0.0
C1664 C 0.06294 0.6672 0.7429 0.0
H1665 H 0.07996 0.631 0.68749 0.0
H1666 H 0.04355 0.65471 0.70608 0.0
S1667 S 0.1198 0.67003 0.78808 0.0
N1668 N 0.1291 0.65264 0.76163 0.0
N1669 N 0.08983 0.67794 0.78184 0.0
C1670 C 0.08628 0.66654 0.75709 0.0
C1671 C 0.10744 0.65264 0.7463 0.0
C1672 C 0.19296 0.50403 0.51381 0.0
C1673 C 0.21569 0.50627 0.52895 0.0
C1674 C 0.19328 0.49576 0.48649 0.0
C1675 C 0.2163 0.48909 0.47346 0.0
H1676 H 0.17482 0.50899 0.52307 0.0
H1677 H 0.17535 0.49436 0.47553 0.0
S1678 S 0.28098 0.49128 0.50426 0.0
N1679 N 0.26179 0.50089 0.52908 0.0
N1680 N 0.26239 0.48538 0.47766 0.0
C1681 C 0.23914 0.49108 0.48842 0.0
C1682 C 0.23884 0.49972 0.51616 0.0
C1683 C 0.51711 0.80381 0.48725 0.0
C1684 C 0.50646 0.78665 0.46818 0.0
C1685 C 0.50865 0.80445 0.51449 0.0
C1686 C 0.48935 0.78783 0.52374 0.0
H1687 H 0.53201 0.81697 0.48102 0.0
H1688 H 0.51756 0.8178 0.52852 0.0
S1689 S 0.45506 0.73947 0.48192 0.0
N1690 N 0.47565 0.75256 0.46047 0.0
N1691 N 0.45936 0.75417 0.51152 0.0
C1692 C 0.47841 0.7707 0.50484 0.0
C1693 C 0.48701 0.77005 0.4771 0.0
C1694 C 0.76523 0.51691 0.49074 0.0
C1695 C 0.78512 0.50994 0.47289 0.0
C1696 C 0.76509 0.50867 0.51808 0.0
C1697 C 0.78508 0.49359 0.52857 0.0
H1698 H 0.74952 0.52854 0.4834 0.0
H1699 H 0.74938 0.51434 0.5312 0.0
S1700 S 0.84174 0.47056 0.49026 0.0
N1701 N 0.82533 0.48727 0.46754 0.0
N1702 N 0.82523 0.47201 0.51907 0.0
C1703 C 0.80517 0.48669 0.51099 0.0
C1704 C 0.80514 0.49478 0.48308 0.0
C1705 C 0.50795 0.22808 0.48402 0.0
C1706 C 0.49294 0.20801 0.47356 0.0
C1707 C 0.516 0.22813 0.51141 0.0
C1708 C 0.50938 0.20807 0.52931 0.0
H1709 H 0.5132 0.24407 0.47104 0.0
H1710 H 0.52718 0.24419 0.51872 0.0
S1711 S 0.47227 0.14994 0.51126 0.0
N1712 N 0.47295 0.1669 0.4827 0.0
N1713 N 0.4882 0.16687 0.53417 0.0
C1714 C 0.49474 0.18767 0.51896 0.0
C1715 C 0.4865 0.18766 0.49109 0.0
C1716 C 0.7201 0.97983 0.0263 0.0
C1717 C 0.71185 0.00475 0.03286 0.0
C1718 C 0.71992 0.97096 0.99917 0.0
C1719 C 0.7113 0.98661 0.97761 0.0
H1720 H 0.72704 0.96716 0.04222 0.0
H1721 H 0.72637 0.95162 0.99508 0.0
S1722 S 0.68767 0.05339 0.98388 0.0
N1723 N 0.6945 0.04483 0.01561 0.0
N1724 N 0.69473 0.0284 0.96458 0.0
C1725 C 0.70301 0.01158 0.98389 0.0
C1726 C 0.70319 0.0206 0.01149 0.0
C1727 C 0.9911 0.27036 0.97628 0.0
C1728 C 0.00802 0.28907 0.96633 0.0
C1729 C 0.98299 0.27054 0.00366 0.0
C1730 C 0.99143 0.28952 0.02204 0.0
H1731 H 0.98437 0.25524 0.96289 0.0
H1732 H 0.97031 0.25548 0.01058 0.0
S1733 S 0.03398 0.34416 0.00531 0.0
N1734 N 0.03186 0.32784 0.97642 0.0
N1735 N 0.01637 0.32845 0.02779 0.0
C1736 C 0.00797 0.30864 0.01215 0.0
C1737 C 0.01632 0.30835 0.98432 0.0
C1738 C 0.28628 0.986 0.97304 0.0
C1739 C 0.29003 0.01196 0.96638 0.0
C1740 C 0.28666 0.9776 0.00032 0.0
C1741 C 0.2909 0.99483 0.02201 0.0
H1742 H 0.28274 0.97205 0.95705 0.0
H1743 H 0.28388 0.9574 0.00442 0.0
S1744 S 0.30165 0.06485 0.01564 0.0
N1745 N 0.29846 0.0548 0.98375 0.0
N1746 N 0.29835 0.03917 0.03506 0.0
C1747 C 0.29457 0.02087 0.01567 0.0
C1748 C 0.29428 0.0294 0.98788 0.0
C1749 C 0.98039 0.72109 0.99502 0.0
C1750 C 0.99336 0.70738 0.97442 0.0
C1751 C 0.9886 0.72035 0.02233 0.0
C1752 C 0.01017 0.70605 0.03 0.0
H1753 H 0.96396 0.73276 0.98995 0.0
H1754 H 0.97824 0.73139 0.03751 0.0
S1755 S 0.04964 0.66522 0.98455 0.0
N1756 N 0.02794 0.67778 0.96402 0.0
N1757 N 0.04365 0.67695 0.01532 0.0
C1758 C 0.02316 0.69205 0.00977 0.0
C1759 C 0.01469 0.69259 0.98199 0.0
loop_
_geom_bond_atom_site_label_1
_geom_bond_atom_site_label_2
_geom_bond_distance
_geom_bond_site_symmetry_2
_ccdc_geom_bond_type
Li0 N17 1.990 . S
Li0 O60 1.956 . S
Li0 O61 1.970 . S
Li0 O62 1.961 . S
Li1 N25 1.990 . S
Li1 O60 1.970 . S
Li1 O61 1.956 . S
Li1 O63 1.961 . S
Li2 N47 1.990 . S
Li2 O60 1.961 . S
Li2 O62 1.956 . S
Li2 O63 1.970 . S
Li3 N53 1.990 . S
Li3 O61 1.961 . S
Li3 O62 1.970 . S
Li3 O63 1.956 . S
C4 C6 1.348 . S
C4 C7 1.356 . S
C4 O60 1.325 . S
N5 C8 1.314 . S
N5 C9 1.279 . S
C6 C4 1.348 . S
C6 C8 1.353 . S
C6 H64 0.929 . S
C7 C4 1.356 . S
C7 C9 1.358 . S
C7 H65 0.930 . S
C8 N5 1.314 . S
C8 C6 1.353 . S
C8 H66 0.930 . S
C9 N5 1.279 . S
C9 C7 1.358 . S
C9 H67 0.930 . S
C10 C13 1.348 . S
C10 C14 1.356 . S
C10 O61 1.325 . S
C11 N12 1.279 . S
C11 C14 1.358 . S
C11 H68 0.930 . S
N12 C11 1.279 . S
N12 C15 1.314 . S
C13 C10 1.348 . S
C13 C15 1.353 . S
C13 H69 0.929 . S
C14 C10 1.356 . S
C14 C11 1.358 . S
C14 H70 0.930 . S
C15 N12 1.314 . S
C15 C13 1.353 . S
C15 H71 0.930 . S
C16 N17 1.314 . S
C16 C21 1.353 . S
C16 H22 0.930 . S
N17 Li0 1.990 . S
N17 C16 1.314 . S
N17 C19 1.279 . S
C18 C19 1.358 . S
C18 C20 1.356 . S
C18 H72 0.930 . S
C19 N17 1.279 . S
C19 C18 1.358 . S
C19 H23 0.930 . S
C20 C18 1.356 . S
C20 C21 1.348 . S
C21 C16 1.353 . S
C21 C20 1.348 . S
C21 H73 0.929 . S
H22 C16 0.930 . S
H23 C19 0.930 . S
C24 N25 1.314 . S
C24 C26 1.353 . S
C24 H30 0.930 . S
N25 Li1 1.990 . S
N25 C24 1.314 . S
N25 C28 1.279 . S
C26 C24 1.353 . S
C26 C29 1.348 . S
C26 H74 0.929 . S
C27 C28 1.358 . S
C27 C29 1.356 . S
C27 H75 0.930 . S
C28 N25 1.279 . S
C28 C27 1.358 . S
C28 H31 0.930 . S
C29 C26 1.348 . S
C29 C27 1.356 . S
H30 C24 0.930 . S
H31 C28 0.930 . S
C32 C34 1.348 . S
C32 C35 1.356 . S
C32 O62 1.325 . S
N33 C36 1.314 . S
N33 C37 1.279 . S
C34 C32 1.348 . S
C34 C36 1.353 . S
C34 H76 0.929 . S
C35 C32 1.356 . S
C35 C37 1.358 . S
C35 H77 0.930 . S
C36 N33 1.314 . S
C36 C34 1.353 . S
C36 H78 0.930 . S
C37 N33 1.279 . S
C37 C35 1.358 . S
C37 H79 0.930 . S
C38 C39 1.348 . S
C38 C40 1.356 . S
C38 O63 1.325 . S
C39 C38 1.348 . S
C39 C41 1.353 . S
C39 H80 0.929 . S
C40 C38 1.356 . S
C40 C42 1.358 . S
C40 H81 0.930 . S
C41 C39 1.353 . S
C41 N43 1.314 . S
C41 H82 0.930 . S
C42 C40 1.358 . S
C42 N43 1.279 . S
C42 H83 0.930 . S
N43 C41 1.314 . S
N43 C42 1.279 . S
C44 C46 1.353 . S
C44 N47 1.314 . S
C44 H50 0.930 . S
C45 N47 1.279 . S
C45 C48 1.358 . S
C45 H51 0.930 . S
C46 C44 1.353 . S
C46 C49 1.348 . S
C46 H84 0.929 . S
N47 Li2 1.990 . S
N47 C44 1.314 . S
N47 C45 1.279 . S
C48 C45 1.358 . S
C48 C49 1.356 . S
C48 H85 0.930 . S
C49 C46 1.348 . S
C49 C48 1.356 . S
H50 C44 0.930 . S
H51 C45 0.930 . S
C52 N53 1.314 . S
C52 C54 1.353 . S
C52 H58 0.930 . S
N53 Li3 1.990 . S
N53 C52 1.314 . S
N53 C56 1.279 . S
C54 C52 1.353 . S
C54 C57 1.348 . S
C54 H86 0.929 . S
C55 C56 1.358 . S
C55 C57 1.356 . S
C55 H87 0.930 . S
C56 N53 1.279 . S
C56 C55 1.358 . S
C56 H59 0.930 . S
C57 C54 1.348 . S
C57 C55 1.356 . S
H58 C52 0.930 . S
H59 C56 0.930 . S
O60 Li0 1.956 . S
O60 Li1 1.970 . S
O60 Li2 1.961 . S
O60 C4 1.325 . S
O61 Li0 1.970 . S
O61 Li1 1.956 . S
O61 Li3 1.961 . S
O61 C10 1.325 . S
O62 Li0 1.961 . S
O62 Li2 1.956 . S
O62 Li3 1.970 . S
O62 C32 1.325 . S
O63 Li1 1.961 . S
O63 Li2 1.970 . S
O63 Li3 1.956 . S
O63 C38 1.325 . S
H64 C6 0.929 . S
H65 C7 0.930 . S
H66 C8 0.930 . S
H67 C9 0.930 . S
H68 C11 0.930 . S
H69 C13 0.929 . S
H70 C14 0.930 . S
H71 C15 0.930 . S
H72 C18 0.930 . S
H73 C21 0.929 . S
H74 C26 0.929 . S
H75 C27 0.930 . S
H76 C34 0.929 . S
H77 C35 0.930 . S
H78 C36 0.930 . S
H79 C37 0.930 . S
H80 C39 0.929 . S
H81 C40 0.930 . S
H82 C41 0.930 . S
H83 C42 0.930 . S
H84 C46 0.929 . S
H85 C48 0.930 . S
H86 C54 0.929 . S
H87 C55 0.930 . S
Li88 N105 1.990 . S
Li88 O148 1.956 . S
Li88 O149 1.970 . S
Li88 O150 1.961 . S
Li89 N113 1.990 . S
Li89 O148 1.970 . S
Li89 O149 1.956 . S
Li89 O151 1.961 . S
Li90 N135 1.990 . S
Li90 O148 1.961 . S
Li90 O150 1.956 . S
Li90 O151 1.970 . S
Li91 N141 1.990 . S
Li91 O149 1.961 . S
Li91 O150 1.970 . S
Li91 O151 1.956 . S
C92 C94 1.348 . S
C92 C95 1.356 . S
C92 O148 1.325 . S
N93 C96 1.314 . S
N93 C97 1.279 . S
C94 C92 1.348 . S
C94 C96 1.353 . S
C94 H152 0.929 . S
C95 C92 1.356 . S
C95 C97 1.358 . S
C95 H153 0.930 . S
C96 N93 1.314 . S
C96 C94 1.353 . S
C96 H154 0.930 . S
C97 N93 1.279 . S
C97 C95 1.358 . S
C97 H155 0.930 . S
C98 C101 1.348 . S
C98 C102 1.356 . S
C98 O149 1.325 . S
C99 N100 1.279 . S
C99 C102 1.358 . S
C99 H156 0.930 . S
N100 C99 1.279 . S
N100 C103 1.314 . S
C101 C98 1.348 . S
C101 C103 1.353 . S
C101 H157 0.929 . S
C102 C98 1.356 . S
C102 C99 1.358 . S
C102 H158 0.930 . S
C103 N100 1.314 . S
C103 C101 1.353 . S
C103 H159 0.930 . S
C104 N105 1.314 . S
C104 C109 1.353 . S
C104 H110 0.930 . S
N105 Li88 1.990 . S
N105 C104 1.314 . S
N105 C107 1.279 . S
C106 C107 1.358 . S
C106 C108 1.356 . S
C106 H160 0.930 . S
C107 N105 1.279 . S
C107 C106 1.358 . S
C107 H111 0.930 . S
C108 C106 1.356 . S
C108 C109 1.348 . S
C109 C104 1.353 . S
C109 C108 1.348 . S
C109 H161 0.929 . S
H110 C104 0.930 . S
H111 C107 0.930 . S
C112 N113 1.314 . S
C112 C114 1.353 . S
C112 H118 0.930 . S
N113 Li89 1.990 . S
N113 C112 1.314 . S
N113 C116 1.279 . S
C114 C112 1.353 . S
C114 C117 1.348 . S
C114 H162 0.929 . S
C115 C116 1.358 . S
C115 C117 1.356 . S
C115 H163 0.930 . S
C116 N113 1.279 . S
C116 C115 1.358 . S
C116 H119 0.930 . S
C117 C114 1.348 . S
C117 C115 1.356 . S
H118 C112 0.930 . S
H119 C116 0.930 . S
C120 C122 1.348 . S
C120 C123 1.356 . S
C120 O150 1.325 . S
N121 C124 1.314 . S
N121 C125 1.279 . S
C122 C120 1.348 . S
C122 C124 1.353 . S
C122 H164 0.929 . S
C123 C120 1.356 . S
C123 C125 1.358 . S
C123 H165 0.930 . S
C124 N121 1.314 . S
C124 C122 1.353 . S
C124 H166 0.930 . S
C125 N121 1.279 . S
C125 C123 1.358 . S
C125 H167 0.930 . S
C126 C127 1.348 . S
C126 C128 1.356 . S
C126 O151 1.325 . S
C127 C126 1.348 . S
C127 C129 1.353 . S
C127 H168 0.929 . S
C128 C126 1.356 . S
C128 C130 1.358 . S
C128 H169 0.930 . S
C129 C127 1.353 . S
C129 N131 1.314 . S
C129 H170 0.930 . S
C130 C128 1.358 . S
C130 N131 1.279 . S
C130 H171 0.930 . S
N131 C129 1.314 . S
N131 C130 1.279 . S
C132 C134 1.353 . S
C132 N135 1.314 . S
C132 H138 0.930 . S
C133 N135 1.279 . S
C133 C136 1.358 . S
C133 H139 0.930 . S
C134 C132 1.353 . S
C134 C137 1.348 . S
C134 H172 0.929 . S
N135 Li90 1.990 . S
N135 C132 1.314 . S
N135 C133 1.279 . S
C136 C133 1.358 . S
C136 C137 1.356 . S
C136 H173 0.930 . S
C137 C134 1.348 . S
C137 C136 1.356 . S
H138 C132 0.930 . S
H139 C133 0.930 . S
C140 N141 1.314 . S
C140 C142 1.353 . S
C140 H146 0.930 . S
N141 Li91 1.990 . S
N141 C140 1.314 . S
N141 C144 1.279 . S
C142 C140 1.353 . S
C142 C145 1.348 . S
C142 H174 0.929 . S
C143 C144 1.358 . S
C143 C145 1.356 . S
C143 H175 0.930 . S
C144 N141 1.279 . S
C144 C143 1.358 . S
C144 H147 0.930 . S
C145 C142 1.348 . S
C145 C143 1.356 . S
H146 C140 0.930 . S
H147 C144 0.930 . S
O148 Li88 1.956 . S
O148 Li89 1.970 . S
O148 Li90 1.961 . S
O148 C92 1.325 . S
O149 Li88 1.970 . S
O149 Li89 1.956 . S
O149 Li91 1.961 . S
O149 C98 1.325 . S
O150 Li88 1.961 . S
O150 Li90 1.956 . S
O150 Li91 1.970 . S
O150 C120 1.325 . S
O151 Li89 1.961 . S
O151 Li90 1.970 . S
O151 Li91 1.956 . S
O151 C126 1.325 . S
H152 C94 0.929 . S
H153 C95 0.930 . S
H154 C96 0.930 . S
H155 C97 0.930 . S
H156 C99 0.930 . S
H157 C101 0.929 . S
H158 C102 0.930 . S
H159 C103 0.930 . S
H160 C106 0.930 . S
H161 C109 0.929 . S
H162 C114 0.929 . S
H163 C115 0.930 . S
H164 C122 0.929 . S
H165 C123 0.930 . S
H166 C124 0.930 . S
H167 C125 0.930 . S
H168 C127 0.929 . S
H169 C128 0.930 . S
H170 C129 0.930 . S
H171 C130 0.930 . S
H172 C134 0.929 . S
H173 C136 0.930 . S
H174 C142 0.929 . S
H175 C143 0.930 . S
Li176 N193 1.990 . S
Li176 O236 1.956 . S
Li176 O237 1.970 . S
Li176 O238 1.961 . S
Li177 N201 1.990 . S
Li177 O236 1.970 . S
Li177 O237 1.956 . S
Li177 O239 1.961 . S
Li178 N223 1.990 . S
Li178 O236 1.961 . S
Li178 O238 1.956 . S
Li178 O239 1.970 . S
Li179 N229 1.990 . S
Li179 O237 1.961 . S
Li179 O238 1.970 . S
Li179 O239 1.956 . S
C180 C182 1.348 . S
C180 C183 1.356 . S
C180 O236 1.325 . S
N181 C184 1.314 . S
N181 C185 1.279 . S
C182 C180 1.348 . S
C182 C184 1.353 . S
C182 H240 0.929 . S
C183 C180 1.356 . S
C183 C185 1.358 . S
C183 H241 0.930 . S
C184 N181 1.314 . S
C184 C182 1.353 . S
C184 H242 0.930 . S
C185 N181 1.279 . S
C185 C183 1.358 . S
C185 H243 0.930 . S
C186 C189 1.348 . S
C186 C190 1.356 . S
C186 O237 1.325 . S
C187 N188 1.279 . S
C187 C190 1.358 . S
C187 H244 0.930 . S
N188 C187 1.279 . S
N188 C191 1.314 . S
C189 C186 1.348 . S
C189 C191 1.353 . S
C189 H245 0.929 . S
C190 C186 1.356 . S
C190 C187 1.358 . S
C190 H246 0.930 . S
C191 N188 1.314 . S
C191 C189 1.353 . S
C191 H247 0.930 . S
C192 N193 1.314 . S
C192 C197 1.353 . S
C192 H198 0.930 . S
N193 Li176 1.990 . S
N193 C192 1.314 . S
N193 C195 1.279 . S
C194 C195 1.358 . S
C194 C196 1.356 . S
C194 H248 0.930 . S
C195 N193 1.279 . S
C195 C194 1.358 . S
C195 H199 0.930 . S
C196 C194 1.356 . S
C196 C197 1.348 . S
C197 C192 1.353 . S
C197 C196 1.348 . S
C197 H249 0.929 . S
H198 C192 0.930 . S
H199 C195 0.930 . S
C200 N201 1.314 . S
C200 C202 1.353 . S
C200 H206 0.930 . S
N201 Li177 1.990 . S
N201 C200 1.314 . S
N201 C204 1.279 . S
C202 C200 1.353 . S
C202 C205 1.348 . S
C202 H250 0.929 . S
C203 C204 1.358 . S
C203 C205 1.356 . S
C203 H251 0.930 . S
C204 N201 1.279 . S
C204 C203 1.358 . S
C204 H207 0.930 . S
C205 C202 1.348 . S
C205 C203 1.356 . S
H206 C200 0.930 . S
H207 C204 0.930 . S
C208 C210 1.348 . S
C208 C211 1.356 . S
C208 O238 1.325 . S
N209 C212 1.314 . S
N209 C213 1.279 . S
C210 C208 1.348 . S
C210 C212 1.353 . S
C210 H252 0.929 . S
C211 C208 1.356 . S
C211 C213 1.358 . S
C211 H253 0.930 . S
C212 N209 1.314 . S
C212 C210 1.353 . S
C212 H254 0.930 . S
C213 N209 1.279 . S
C213 C211 1.358 . S
C213 H255 0.930 . S
C214 C215 1.348 . S
C214 C216 1.356 . S
C214 O239 1.325 . S
C215 C214 1.348 . S
C215 C217 1.353 . S
C215 H256 0.929 . S
C216 C214 1.356 . S
C216 C218 1.358 . S
C216 H257 0.930 . S
C217 C215 1.353 . S
C217 N219 1.314 . S
C217 H258 0.930 . S
C218 C216 1.358 . S
C218 N219 1.279 . S
C218 H259 0.930 . S
N219 C217 1.314 . S
N219 C218 1.279 . S
C220 C222 1.353 . S
C220 N223 1.314 . S
C220 H226 0.930 . S
C221 N223 1.279 . S
C221 C224 1.358 . S
C221 H227 0.930 . S
C222 C220 1.353 . S
C222 C225 1.348 . S
C222 H260 0.929 . S
N223 Li178 1.990 . S
N223 C220 1.314 . S
N223 C221 1.279 . S
C224 C221 1.358 . S
C224 C225 1.356 . S
C224 H261 0.930 . S
C225 C222 1.348 . S
C225 C224 1.356 . S
H226 C220 0.930 . S
H227 C221 0.930 . S
C228 N229 1.314 . S
C228 C230 1.353 . S
C228 H234 0.930 . S
N229 Li179 1.990 . S
N229 C228 1.314 . S
N229 C232 1.279 . S
C230 C228 1.353 . S
C230 C233 1.348 . S
C230 H262 0.929 . S
C231 C232 1.358 . S
C231 C233 1.356 . S
C231 H263 0.930 . S
C232 N229 1.279 . S
C232 C231 1.358 . S
C232 H235 0.930 . S
C233 C230 1.348 . S
C233 C231 1.356 . S
H234 C228 0.930 . S
H235 C232 0.930 . S
O236 Li176 1.956 . S
O236 Li177 1.970 . S
O236 Li178 1.961 . S
O236 C180 1.325 . S
O237 Li176 1.970 . S
O237 Li177 1.956 . S
O237 Li179 1.961 . S
O237 C186 1.325 . S
O238 Li176 1.961 . S
O238 Li178 1.956 . S
O238 Li179 1.970 . S
O238 C208 1.325 . S
O239 Li177 1.961 . S
O239 Li178 1.970 . S
O239 Li179 1.956 . S
O239 C214 1.325 . S
H240 C182 0.929 . S
H241 C183 0.930 . S
H242 C184 0.930 . S
H243 C185 0.930 . S
H244 C187 0.930 . S
H245 C189 0.929 . S
H246 C190 0.930 . S
H247 C191 0.930 . S
H248 C194 0.930 . S
H249 C197 0.929 . S
H250 C202 0.929 . S
H251 C203 0.930 . S
H252 C210 0.929 . S
H253 C211 0.930 . S
H254 C212 0.930 . S
H255 C213 0.930 . S
H256 C215 0.929 . S
H257 C216 0.930 . S
H258 C217 0.930 . S
H259 C218 0.930 . S
H260 C222 0.929 . S
H261 C224 0.930 . S
H262 C230 0.929 . S
H263 C231 0.930 . S
Li264 N281 1.990 . S
Li264 O324 1.956 . S
Li264 O325 1.970 . S
Li264 O326 1.961 . S
Li265 N289 1.990 . S
Li265 O324 1.970 . S
Li265 O325 1.956 . S
Li265 O327 1.961 . S
Li266 N311 1.990 . S
Li266 O324 1.961 . S
Li266 O326 1.956 . S
Li266 O327 1.970 . S
Li267 N317 1.990 . S
Li267 O325 1.961 . S
Li267 O326 1.970 . S
Li267 O327 1.956 . S
C268 C270 1.348 . S
C268 C271 1.356 . S
C268 O324 1.325 . S
N269 C272 1.314 . S
N269 C273 1.279 . S
C270 C268 1.348 . S
C270 C272 1.353 . S
C270 H328 0.929 . S
C271 C268 1.356 . S
C271 C273 1.358 . S
C271 H329 0.930 . S
C272 N269 1.314 . S
C272 C270 1.353 . S
C272 H330 0.930 . S
C273 N269 1.279 . S
C273 C271 1.358 . S
C273 H331 0.930 . S
C274 C277 1.348 . S
C274 C278 1.356 . S
C274 O325 1.325 . S
C275 N276 1.279 . S
C275 C278 1.358 . S
C275 H332 0.930 . S
N276 C275 1.279 . S
N276 C279 1.314 . S
C277 C274 1.348 . S
C277 C279 1.353 . S
C277 H333 0.929 . S
C278 C274 1.356 . S
C278 C275 1.358 . S
C278 H334 0.930 . S
C279 N276 1.314 . S
C279 C277 1.353 . S
C279 H335 0.930 . S
C280 N281 1.314 . S
C280 C285 1.353 . S
C280 H286 0.930 . S
N281 Li264 1.990 . S
N281 C280 1.314 . S
N281 C283 1.279 . S
C282 C283 1.358 . S
C282 C284 1.356 . S
C282 H336 0.930 . S
C283 N281 1.279 . S
C283 C282 1.358 . S
C283 H287 0.930 . S
C284 C282 1.356 . S
C284 C285 1.348 . S
C285 C280 1.353 . S
C285 C284 1.348 . S
C285 H337 0.929 . S
H286 C280 0.930 . S
H287 C283 0.930 . S
C288 N289 1.314 . S
C288 C290 1.353 . S
C288 H294 0.930 . S
N289 Li265 1.990 . S
N289 C288 1.314 . S
N289 C292 1.279 . S
C290 C288 1.353 . S
C290 C293 1.348 . S
C290 H338 0.929 . S
C291 C292 1.358 . S
C291 C293 1.356 . S
C291 H339 0.930 . S
C292 N289 1.279 . S
C292 C291 1.358 . S
C292 H295 0.930 . S
C293 C290 1.348 . S
C293 C291 1.356 . S
H294 C288 0.930 . S
H295 C292 0.930 . S
C296 C298 1.348 . S
C296 C299 1.356 . S
C296 O326 1.325 . S
N297 C300 1.314 . S
N297 C301 1.279 . S
C298 C296 1.348 . S
C298 C300 1.353 . S
C298 H340 0.929 . S
C299 C296 1.356 . S
C299 C301 1.358 . S
C299 H341 0.930 . S
C300 N297 1.314 . S
C300 C298 1.353 . S
C300 H342 0.930 . S
C301 N297 1.279 . S
C301 C299 1.358 . S
C301 H343 0.930 . S
C302 C303 1.348 . S
C302 C304 1.356 . S
C302 O327 1.325 . S
C303 C302 1.348 . S
C303 C305 1.353 . S
C303 H344 0.929 . S
C304 C302 1.356 . S
C304 C306 1.358 . S
C304 H345 0.930 . S
C305 C303 1.353 . S
C305 N307 1.314 . S
C305 H346 0.930 . S
C306 C304 1.358 . S
C306 N307 1.279 . S
C306 H347 0.930 . S
N307 C305 1.314 . S
N307 C306 1.279 . S
C308 C310 1.353 . S
C308 N311 1.314 . S
C308 H314 0.930 . S
C309 N311 1.279 . S
C309 C312 1.358 . S
C309 H315 0.930 . S
C310 C308 1.353 . S
C310 C313 1.348 . S
C310 H348 0.929 . S
N311 Li266 1.990 . S
N311 C308 1.314 . S
N311 C309 1.279 . S
C312 C309 1.358 . S
C312 C313 1.356 . S
C312 H349 0.930 . S
C313 C310 1.348 . S
C313 C312 1.356 . S
H314 C308 0.930 . S
H315 C309 0.930 . S
C316 N317 1.314 . S
C316 C318 1.353 . S
C316 H322 0.930 . S
N317 Li267 1.990 . S
N317 C316 1.314 . S
N317 C320 1.279 . S
C318 C316 1.353 . S
C318 C321 1.348 . S
C318 H350 0.929 . S
C319 C320 1.358 . S
C319 C321 1.356 . S
C319 H351 0.930 . S
C320 N317 1.279 . S
C320 C319 1.358 . S
C320 H323 0.930 . S
C321 C318 1.348 . S
C321 C319 1.356 . S
H322 C316 0.930 . S
H323 C320 0.930 . S
O324 Li264 1.956 . S
O324 Li265 1.970 . S
O324 Li266 1.961 . S
O324 C268 1.325 . S
O325 Li264 1.970 . S
O325 Li265 1.956 . S
O325 Li267 1.961 . S
O325 C274 1.325 . S
O326 Li264 1.961 . S
O326 Li266 1.956 . S
O326 Li267 1.970 . S
O326 C296 1.325 . S
O327 Li265 1.961 . S
O327 Li266 1.970 . S
O327 Li267 1.956 . S
O327 C302 1.325 . S
H328 C270 0.929 . S
H329 C271 0.930 . S
H330 C272 0.930 . S
H331 C273 0.930 . S
H332 C275 0.930 . S
H333 C277 0.929 . S
H334 C278 0.930 . S
H335 C279 0.930 . S
H336 C282 0.930 . S
H337 C285 0.929 . S
H338 C290 0.929 . S
H339 C291 0.930 . S
H340 C298 0.929 . S
H341 C299 0.930 . S
H342 C300 0.930 . S
H343 C301 0.930 . S
H344 C303 0.929 . S
H345 C304 0.930 . S
H346 C305 0.930 . S
H347 C306 0.930 . S
H348 C310 0.929 . S
H349 C312 0.930 . S
H350 C318 0.929 . S
H351 C319 0.930 . S
Li352 N369 1.990 . S
Li352 O412 1.956 . S
Li352 O413 1.970 . S
Li352 O414 1.961 . S
Li353 N377 1.990 . S
Li353 O412 1.970 . S
Li353 O413 1.956 . S
Li353 O415 1.961 . S
Li354 N399 1.990 . S
Li354 O412 1.961 . S
Li354 O414 1.956 . S
Li354 O415 1.970 . S
Li355 N405 1.990 . S
Li355 O413 1.961 . S
Li355 O414 1.970 . S
Li355 O415 1.956 . S
C356 C358 1.348 . S
C356 C359 1.356 . S
C356 O412 1.325 . S
N357 C360 1.314 . S
N357 C361 1.279 . S
C358 C356 1.348 . S
C358 C360 1.353 . S
C358 H416 0.929 . S
C359 C356 1.356 . S
C359 C361 1.358 . S
C359 H417 0.930 . S
C360 N357 1.314 . S
C360 C358 1.353 . S
C360 H418 0.930 . S
C361 N357 1.279 . S
C361 C359 1.358 . S
C361 H419 0.930 . S
C362 C365 1.348 . S
C362 C366 1.356 . S
C362 O413 1.325 . S
C363 N364 1.279 . S
C363 C366 1.358 . S
C363 H420 0.930 . S
N364 C363 1.279 . S
N364 C367 1.314 . S
C365 C362 1.348 . S
C365 C367 1.353 . S
C365 H421 0.929 . S
C366 C362 1.356 . S
C366 C363 1.358 . S
C366 H422 0.930 . S
C367 N364 1.314 . S
C367 C365 1.353 . S
C367 H423 0.930 . S
C368 N369 1.314 . S
C368 C373 1.353 . S
C368 H374 0.930 . S
N369 Li352 1.990 . S
N369 C368 1.314 . S
N369 C371 1.279 . S
C370 C371 1.358 . S
C370 C372 1.356 . S
C370 H424 0.930 . S
C371 N369 1.279 . S
C371 C370 1.358 . S
C371 H375 0.930 . S
C372 C370 1.356 . S
C372 C373 1.348 . S
C373 C368 1.353 . S
C373 C372 1.348 . S
C373 H425 0.929 . S
H374 C368 0.930 . S
H375 C371 0.930 . S
C376 N377 1.314 . S
C376 C378 1.353 . S
C376 H382 0.930 . S
N377 Li353 1.990 . S
N377 C376 1.314 . S
N377 C380 1.279 . S
C378 C376 1.353 . S
C378 C381 1.348 . S
C378 H426 0.929 . S
C379 C380 1.358 . S
C379 C381 1.356 . S
C379 H427 0.930 . S
C380 N377 1.279 . S
C380 C379 1.358 . S
C380 H383 0.930 . S
C381 C378 1.348 . S
C381 C379 1.356 . S
H382 C376 0.930 . S
H383 C380 0.930 . S
C384 C386 1.348 . S
C384 C387 1.356 . S
C384 O414 1.325 . S
N385 C388 1.314 . S
N385 C389 1.279 . S
C386 C384 1.348 . S
C386 C388 1.353 . S
C386 H428 0.929 . S
C387 C384 1.356 . S
C387 C389 1.358 . S
C387 H429 0.930 . S
C388 N385 1.314 . S
C388 C386 1.353 . S
C388 H430 0.930 . S
C389 N385 1.279 . S
C389 C387 1.358 . S
C389 H431 0.930 . S
C390 C391 1.348 . S
C390 C392 1.356 . S
C390 O415 1.325 . S
C391 C390 1.348 . S
C391 C393 1.353 . S
C391 H432 0.929 . S
C392 C390 1.356 . S
C392 C394 1.358 . S
C392 H433 0.930 . S
C393 C391 1.353 . S
C393 N395 1.314 . S
C393 H434 0.930 . S
C394 C392 1.358 . S
C394 N395 1.279 . S
C394 H435 0.930 . S
N395 C393 1.314 . S
N395 C394 1.279 . S
C396 C398 1.353 . S
C396 N399 1.314 . S
C396 H402 0.930 . S
C397 N399 1.279 . S
C397 C400 1.358 . S
C397 H403 0.930 . S
C398 C396 1.353 . S
C398 C401 1.348 . S
C398 H436 0.929 . S
N399 Li354 1.990 . S
N399 C396 1.314 . S
N399 C397 1.279 . S
C400 C397 1.358 . S
C400 C401 1.356 . S
C400 H437 0.930 . S
C401 C398 1.348 . S
C401 C400 1.356 . S
H402 C396 0.930 . S
H403 C397 0.930 . S
C404 N405 1.314 . S
C404 C406 1.353 . S
C404 H410 0.930 . S
N405 Li355 1.990 . S
N405 C404 1.314 . S
N405 C408 1.279 . S
C406 C404 1.353 . S
C406 C409 1.348 . S
C406 H438 0.929 . S
C407 C408 1.358 . S
C407 C409 1.356 . S
C407 H439 0.930 . S
C408 N405 1.279 . S
C408 C407 1.358 . S
C408 H411 0.930 . S
C409 C406 1.348 . S
C409 C407 1.356 . S
H410 C404 0.930 . S
H411 C408 0.930 . S
O412 Li352 1.956 . S
O412 Li353 1.970 . S
O412 Li354 1.961 . S
O412 C356 1.325 . S
O413 Li352 1.970 . S
O413 Li353 1.956 . S
O413 Li355 1.961 . S
O413 C362 1.325 . S
O414 Li352 1.961 . S
O414 Li354 1.956 . S
O414 Li355 1.970 . S
O414 C384 1.325 . S
O415 Li353 1.961 . S
O415 Li354 1.970 . S
O415 Li355 1.956 . S
O415 C390 1.325 . S
H416 C358 0.929 . S
H417 C359 0.930 . S
H418 C360 0.930 . S
H419 C361 0.930 . S
H420 C363 0.930 . S
H421 C365 0.929 . S
H422 C366 0.930 . S
H423 C367 0.930 . S
H424 C370 0.930 . S
H425 C373 0.929 . S
H426 C378 0.929 . S
H427 C379 0.930 . S
H428 C386 0.929 . S
H429 C387 0.930 . S
H430 C388 0.930 . S
H431 C389 0.930 . S
H432 C391 0.929 . S
H433 C392 0.930 . S
H434 C393 0.930 . S
H435 C394 0.930 . S
H436 C398 0.929 . S
H437 C400 0.930 . S
H438 C406 0.929 . S
H439 C407 0.930 . S
Li440 N457 1.990 . S
Li440 O500 1.956 . S
Li440 O501 1.970 . S
Li440 O502 1.961 . S
Li441 N465 1.990 . S
Li441 O500 1.970 . S
Li441 O501 1.956 . S
Li441 O503 1.961 . S
Li442 N487 1.990 . S
Li442 O500 1.961 . S
Li442 O502 1.956 . S
Li442 O503 1.970 . S
Li443 N493 1.990 . S
Li443 O501 1.961 . S
Li443 O502 1.970 . S
Li443 O503 1.956 . S
C444 C446 1.348 . S
C444 C447 1.356 . S
C444 O500 1.325 . S
N445 C448 1.314 . S
N445 C449 1.279 . S
C446 C444 1.348 . S
C446 C448 1.353 . S
C446 H504 0.929 . S
C447 C444 1.356 . S
C447 C449 1.358 . S
C447 H505 0.930 . S
C448 N445 1.314 . S
C448 C446 1.353 . S
C448 H506 0.930 . S
C449 N445 1.279 . S
C449 C447 1.358 . S
C449 H507 0.930 . S
C450 C453 1.348 . S
C450 C454 1.356 . S
C450 O501 1.325 . S
C451 N452 1.279 . S
C451 C454 1.358 . S
C451 H508 0.930 . S
N452 C451 1.279 . S
N452 C455 1.314 . S
C453 C450 1.348 . S
C453 C455 1.353 . S
C453 H509 0.929 . S
C454 C450 1.356 . S
C454 C451 1.358 . S
C454 H510 0.930 . S
C455 N452 1.314 . S
C455 C453 1.353 . S
C455 H511 0.930 . S
C456 N457 1.314 . S
C456 C461 1.353 . S
C456 H462 0.930 . S
N457 Li440 1.990 . S
N457 C456 1.314 . S
N457 C459 1.279 . S
C458 C459 1.358 . S
C458 C460 1.356 . S
C458 H512 0.930 . S
C459 N457 1.279 . S
C459 C458 1.358 . S
C459 H463 0.930 . S
C460 C458 1.356 . S
C460 C461 1.348 . S
C461 C456 1.353 . S
C461 C460 1.348 . S
C461 H513 0.929 . S
H462 C456 0.930 . S
H463 C459 0.930 . S
C464 N465 1.314 . S
C464 C466 1.353 . S
C464 H470 0.930 . S
N465 Li441 1.990 . S
N465 C464 1.314 . S
N465 C468 1.279 . S
C466 C464 1.353 . S
C466 C469 1.348 . S
C466 H514 0.929 . S
C467 C468 1.358 . S
C467 C469 1.356 . S
C467 H515 0.930 . S
C468 N465 1.279 . S
C468 C467 1.358 . S
C468 H471 0.930 . S
C469 C466 1.348 . S
C469 C467 1.356 . S
H470 C464 0.930 . S
H471 C468 0.930 . S
C472 C474 1.348 . S
C472 C475 1.356 . S
C472 O502 1.325 . S
N473 C476 1.314 . S
N473 C477 1.279 . S
C474 C472 1.348 . S
C474 C476 1.353 . S
C474 H516 0.929 . S
C475 C472 1.356 . S
C475 C477 1.358 . S
C475 H517 0.930 . S
C476 N473 1.314 . S
C476 C474 1.353 . S
C476 H518 0.930 . S
C477 N473 1.279 . S
C477 C475 1.358 . S
C477 H519 0.930 . S
C478 C479 1.348 . S
C478 C480 1.356 . S
C478 O503 1.325 . S
C479 C478 1.348 . S
C479 C481 1.353 . S
C479 H520 0.929 . S
C480 C478 1.356 . S
C480 C482 1.358 . S
C480 H521 0.930 . S
C481 C479 1.353 . S
C481 N483 1.314 . S
C481 H522 0.930 . S
C482 C480 1.358 . S
C482 N483 1.279 . S
C482 H523 0.930 . S
N483 C481 1.314 . S
N483 C482 1.279 . S
C484 C486 1.353 . S
C484 N487 1.314 . S
C484 H490 0.930 . S
C485 N487 1.279 . S
C485 C488 1.358 . S
C485 H491 0.930 . S
C486 C484 1.353 . S
C486 C489 1.348 . S
C486 H524 0.929 . S
N487 Li442 1.990 . S
N487 C484 1.314 . S
N487 C485 1.279 . S
C488 C485 1.358 . S
C488 C489 1.356 . S
C488 H525 0.930 . S
C489 C486 1.348 . S
C489 C488 1.356 . S
H490 C484 0.930 . S
H491 C485 0.930 . S
C492 N493 1.314 . S
C492 C494 1.353 . S
C492 H498 0.930 . S
N493 Li443 1.990 . S
N493 C492 1.314 . S
N493 C496 1.279 . S
C494 C492 1.353 . S
C494 C497 1.348 . S
C494 H526 0.929 . S
C495 C496 1.358 . S
C495 C497 1.356 . S
C495 H527 0.930 . S
C496 N493 1.279 . S
C496 C495 1.358 . S
C496 H499 0.930 . S
C497 C494 1.348 . S
C497 C495 1.356 . S
H498 C492 0.930 . S
H499 C496 0.930 . S
O500 Li440 1.956 . S
O500 Li441 1.970 . S
O500 Li442 1.961 . S
O500 C444 1.325 . S
O501 Li440 1.970 . S
O501 Li441 1.956 . S
O501 Li443 1.961 . S
O501 C450 1.325 . S
O502 Li440 1.961 . S
O502 Li442 1.956 . S
O502 Li443 1.970 . S
O502 C472 1.325 . S
O503 Li441 1.961 . S
O503 Li442 1.970 . S
O503 Li443 1.956 . S
O503 C478 1.325 . S
H504 C446 0.929 . S
H505 C447 0.930 . S
H506 C448 0.930 . S
H507 C449 0.930 . S
H508 C451 0.930 . S
H509 C453 0.929 . S
H510 C454 0.930 . S
H511 C455 0.930 . S
H512 C458 0.930 . S
H513 C461 0.929 . S
H514 C466 0.929 . S
H515 C467 0.930 . S
H516 C474 0.929 . S
H517 C475 0.930 . S
H518 C476 0.930 . S
H519 C477 0.930 . S
H520 C479 0.929 . S
H521 C480 0.930 . S
H522 C481 0.930 . S
H523 C482 0.930 . S
H524 C486 0.929 . S
H525 C488 0.930 . S
H526 C494 0.929 . S
H527 C495 0.930 . S
Li528 N545 1.990 . S
Li528 O588 1.956 . S
Li528 O589 1.970 . S
Li528 O590 1.961 . S
Li529 N553 1.990 . S
Li529 O588 1.970 . S
Li529 O589 1.956 . S
Li529 O591 1.961 . S
Li530 N575 1.990 . S
Li530 O588 1.961 . S
Li530 O590 1.956 . S
Li530 O591 1.970 . S
Li531 N581 1.990 . S
Li531 O589 1.961 . S
Li531 O590 1.970 . S
Li531 O591 1.956 . S
C532 C534 1.348 . S
C532 C535 1.356 . S
C532 O588 1.325 . S
N533 C536 1.314 . S
N533 C537 1.279 . S
C534 C532 1.348 . S
C534 C536 1.353 . S
C534 H592 0.929 . S
C535 C532 1.356 . S
C535 C537 1.358 . S
C535 H593 0.930 . S
C536 N533 1.314 . S
C536 C534 1.353 . S
C536 H594 0.930 . S
C537 N533 1.279 . S
C537 C535 1.358 . S
C537 H595 0.930 . S
C538 C541 1.348 . S
C538 C542 1.356 . S
C538 O589 1.325 . S
C539 N540 1.279 . S
C539 C542 1.358 . S
C539 H596 0.930 . S
N540 C539 1.279 . S
N540 C543 1.314 . S
C541 C538 1.348 . S
C541 C543 1.353 . S
C541 H597 0.929 . S
C542 C538 1.356 . S
C542 C539 1.358 . S
C542 H598 0.930 . S
C543 N540 1.314 . S
C543 C541 1.353 . S
C543 H599 0.930 . S
C544 N545 1.314 . S
C544 C549 1.353 . S
C544 H550 0.930 . S
N545 Li528 1.990 . S
N545 C544 1.314 . S
N545 C547 1.279 . S
C546 C547 1.358 . S
C546 C548 1.356 . S
C546 H600 0.930 . S
C547 N545 1.279 . S
C547 C546 1.358 . S
C547 H551 0.930 . S
C548 C546 1.356 . S
C548 C549 1.348 . S
C549 C544 1.353 . S
C549 C548 1.348 . S
C549 H601 0.929 . S
H550 C544 0.930 . S
H551 C547 0.930 . S
C552 N553 1.314 . S
C552 C554 1.353 . S
C552 H558 0.930 . S
N553 Li529 1.990 . S
N553 C552 1.314 . S
N553 C556 1.279 . S
C554 C552 1.353 . S
C554 C557 1.348 . S
C554 H602 0.929 . S
C555 C556 1.358 . S
C555 C557 1.356 . S
C555 H603 0.930 . S
C556 N553 1.279 . S
C556 C555 1.358 . S
C556 H559 0.930 . S
C557 C554 1.348 . S
C557 C555 1.356 . S
H558 C552 0.930 . S
H559 C556 0.930 . S
C560 C562 1.348 . S
C560 C563 1.356 . S
C560 O590 1.325 . S
N561 C564 1.314 . S
N561 C565 1.279 . S
C562 C560 1.348 . S
C562 C564 1.353 . S
C562 H604 0.929 . S
C563 C560 1.356 . S
C563 C565 1.358 . S
C563 H605 0.930 . S
C564 N561 1.314 . S
C564 C562 1.353 . S
C564 H606 0.930 . S
C565 N561 1.279 . S
C565 C563 1.358 . S
C565 H607 0.930 . S
C566 C567 1.348 . S
C566 C568 1.356 . S
C566 O591 1.325 . S
C567 C566 1.348 . S
C567 C569 1.353 . S
C567 H608 0.929 . S
C568 C566 1.356 . S
C568 C570 1.358 . S
C568 H609 0.930 . S
C569 C567 1.353 . S
C569 N571 1.314 . S
C569 H610 0.930 . S
C570 C568 1.358 . S
C570 N571 1.279 . S
C570 H611 0.930 . S
N571 C569 1.314 . S
N571 C570 1.279 . S
C572 C574 1.353 . S
C572 N575 1.314 . S
C572 H578 0.930 . S
C573 N575 1.279 . S
C573 C576 1.358 . S
C573 H579 0.930 . S
C574 C572 1.353 . S
C574 C577 1.348 . S
C574 H612 0.929 . S
N575 Li530 1.990 . S
N575 C572 1.314 . S
N575 C573 1.279 . S
C576 C573 1.358 . S
C576 C577 1.356 . S
C576 H613 0.930 . S
C577 C574 1.348 . S
C577 C576 1.356 . S
H578 C572 0.930 . S
H579 C573 0.930 . S
C580 N581 1.314 . S
C580 C582 1.353 . S
C580 H586 0.930 . S
N581 Li531 1.990 . S
N581 C580 1.314 . S
N581 C584 1.279 . S
C582 C580 1.353 . S
C582 C585 1.348 . S
C582 H614 0.929 . S
C583 C584 1.358 . S
C583 C585 1.356 . S
C583 H615 0.930 . S
C584 N581 1.279 . S
C584 C583 1.358 . S
C584 H587 0.930 . S
C585 C582 1.348 . S
C585 C583 1.356 . S
H586 C580 0.930 . S
H587 C584 0.930 . S
O588 Li528 1.956 . S
O588 Li529 1.970 . S
O588 Li530 1.961 . S
O588 C532 1.325 . S
O589 Li528 1.970 . S
O589 Li529 1.956 . S
O589 Li531 1.961 . S
O589 C538 1.325 . S
O590 Li528 1.961 . S
O590 Li530 1.956 . S
O590 Li531 1.970 . S
O590 C560 1.325 . S
O591 Li529 1.961 . S
O591 Li530 1.970 . S
O591 Li531 1.956 . S
O591 C566 1.325 . S
H592 C534 0.929 . S
H593 C535 0.930 . S
H594 C536 0.930 . S
H595 C537 0.930 . S
H596 C539 0.930 . S
H597 C541 0.929 . S
H598 C542 0.930 . S
H599 C543 0.930 . S
H600 C546 0.930 . S
H601 C549 0.929 . S
H602 C554 0.929 . S
H603 C555 0.930 . S
H604 C562 0.929 . S
H605 C563 0.930 . S
H606 C564 0.930 . S
H607 C565 0.930 . S
H608 C567 0.929 . S
H609 C568 0.930 . S
H610 C569 0.930 . S
H611 C570 0.930 . S
H612 C574 0.929 . S
H613 C576 0.930 . S
H614 C582 0.929 . S
H615 C583 0.930 . S
Li616 N633 1.990 . S
Li616 O676 1.956 . S
Li616 O677 1.970 . S
Li616 O678 1.961 . S
Li617 N641 1.990 . S
Li617 O676 1.970 . S
Li617 O677 1.956 . S
Li617 O679 1.961 . S
Li618 N663 1.990 . S
Li618 O676 1.961 . S
Li618 O678 1.956 . S
Li618 O679 1.970 . S
Li619 N669 1.990 . S
Li619 O677 1.961 . S
Li619 O678 1.970 . S
Li619 O679 1.956 . S
C620 C622 1.348 . S
C620 C623 1.356 . S
C620 O676 1.325 . S
N621 C624 1.314 . S
N621 C625 1.279 . S
C622 C620 1.348 . S
C622 C624 1.353 . S
C622 H680 0.929 . S
C623 C620 1.356 . S
C623 C625 1.358 . S
C623 H681 0.930 . S
C624 N621 1.314 . S
C624 C622 1.353 . S
C624 H682 0.930 . S
C625 N621 1.279 . S
C625 C623 1.358 . S
C625 H683 0.930 . S
C626 C629 1.348 . S
C626 C630 1.356 . S
C626 O677 1.325 . S
C627 N628 1.279 . S
C627 C630 1.358 . S
C627 H684 0.930 . S
N628 C627 1.279 . S
N628 C631 1.314 . S
C629 C626 1.348 . S
C629 C631 1.353 . S
C629 H685 0.929 . S
C630 C626 1.356 . S
C630 C627 1.358 . S
C630 H686 0.930 . S
C631 N628 1.314 . S
C631 C629 1.353 . S
C631 H687 0.930 . S
C632 N633 1.314 . S
C632 C637 1.353 . S
C632 H638 0.930 . S
N633 Li616 1.990 . S
N633 C632 1.314 . S
N633 C635 1.279 . S
C634 C635 1.358 . S
C634 C636 1.356 . S
C634 H688 0.930 . S
C635 N633 1.279 . S
C635 C634 1.358 . S
C635 H639 0.930 . S
C636 C634 1.356 . S
C636 C637 1.348 . S
C637 C632 1.353 . S
C637 C636 1.348 . S
C637 H689 0.929 . S
H638 C632 0.930 . S
H639 C635 0.930 . S
C640 N641 1.314 . S
C640 C642 1.353 . S
C640 H646 0.930 . S
N641 Li617 1.990 . S
N641 C640 1.314 . S
N641 C644 1.279 . S
C642 C640 1.353 . S
C642 C645 1.348 . S
C642 H690 0.929 . S
C643 C644 1.358 . S
C643 C645 1.356 . S
C643 H691 0.930 . S
C644 N641 1.279 . S
C644 C643 1.358 . S
C644 H647 0.930 . S
C645 C642 1.348 . S
C645 C643 1.356 . S
H646 C640 0.930 . S
H647 C644 0.930 . S
C648 C650 1.348 . S
C648 C651 1.356 . S
C648 O678 1.325 . S
N649 C652 1.314 . S
N649 C653 1.279 . S
C650 C648 1.348 . S
C650 C652 1.353 . S
C650 H692 0.929 . S
C651 C648 1.356 . S
C651 C653 1.358 . S
C651 H693 0.930 . S
C652 N649 1.314 . S
C652 C650 1.353 . S
C652 H694 0.930 . S
C653 N649 1.279 . S
C653 C651 1.358 . S
C653 H695 0.930 . S
C654 C655 1.348 . S
C654 C656 1.356 . S
C654 O679 1.325 . S
C655 C654 1.348 . S
C655 C657 1.353 . S
C655 H696 0.929 . S
C656 C654 1.356 . S
C656 C658 1.358 . S
C656 H697 0.930 . S
C657 C655 1.353 . S
C657 N659 1.314 . S
C657 H698 0.930 . S
C658 C656 1.358 . S
C658 N659 1.279 . S
C658 H699 0.930 . S
N659 C657 1.314 . S
N659 C658 1.279 . S
C660 C662 1.353 . S
C660 N663 1.314 . S
C660 H666 0.930 . S
C661 N663 1.279 . S
C661 C664 1.358 . S
C661 H667 0.930 . S
C662 C660 1.353 . S
C662 C665 1.348 . S
C662 H700 0.929 . S
N663 Li618 1.990 . S
N663 C660 1.314 . S
N663 C661 1.279 . S
C664 C661 1.358 . S
C664 C665 1.356 . S
C664 H701 0.930 . S
C665 C662 1.348 . S
C665 C664 1.356 . S
H666 C660 0.930 . S
H667 C661 0.930 . S
C668 N669 1.314 . S
C668 C670 1.353 . S
C668 H674 0.930 . S
N669 Li619 1.990 . S
N669 C668 1.314 . S
N669 C672 1.279 . S
C670 C668 1.353 . S
C670 C673 1.348 . S
C670 H702 0.929 . S
C671 C672 1.358 . S
C671 C673 1.356 . S
C671 H703 0.930 . S
C672 N669 1.279 . S
C672 C671 1.358 . S
C672 H675 0.930 . S
C673 C670 1.348 . S
C673 C671 1.356 . S
H674 C668 0.930 . S
H675 C672 0.930 . S
O676 Li616 1.956 . S
O676 Li617 1.970 . S
O676 Li618 1.961 . S
O676 C620 1.325 . S
O677 Li616 1.970 . S
O677 Li617 1.956 . S
O677 Li619 1.961 . S
O677 C626 1.325 . S
O678 Li616 1.961 . S
O678 Li618 1.956 . S
O678 Li619 1.970 . S
O678 C648 1.325 . S
O679 Li617 1.961 . S
O679 Li618 1.970 . S
O679 Li619 1.956 . S
O679 C654 1.325 . S
H680 C622 0.929 . S
H681 C623 0.930 . S
H682 C624 0.930 . S
H683 C625 0.930 . S
H684 C627 0.930 . S
H685 C629 0.929 . S
H686 C630 0.930 . S
H687 C631 0.930 . S
H688 C634 0.930 . S
H689 C637 0.929 . S
H690 C642 0.929 . S
H691 C643 0.930 . S
H692 C650 0.929 . S
H693 C651 0.930 . S
H694 C652 0.930 . S
H695 C653 0.930 . S
H696 C655 0.929 . S
H697 C656 0.930 . S
H698 C657 0.930 . S
H699 C658 0.930 . S
H700 C662 0.929 . S
H701 C664 0.930 . S
H702 C670 0.929 . S
H703 C671 0.930 . S
Li704 N721 1.990 1_565 S
Li704 O764 1.956 . S
Li704 O765 1.970 . S
Li704 O766 1.961 . S
Li705 N729 1.990 . S
Li705 O764 1.970 . S
Li705 O765 1.956 . S
Li705 O767 1.961 . S
Li706 N751 1.990 . S
Li706 O764 1.961 . S
Li706 O766 1.956 . S
Li706 O767 1.970 . S
Li707 N757 1.990 . S
Li707 O765 1.961 . S
Li707 O766 1.970 . S
Li707 O767 1.956 . S
C708 C710 1.348 . S
C708 C711 1.356 . S
C708 O764 1.325 . S
N709 C712 1.314 . S
N709 C713 1.269 1_545 S
C710 C708 1.348 . S
C710 C712 1.353 1_565 S
C710 H768 0.929 . S
C711 C708 1.356 . S
C711 C713 1.370 . S
C711 H769 0.930 . S
C712 N709 1.314 . S
C712 C710 1.353 1_545 S
C712 H770 0.930 . S
C713 N709 1.269 1_565 S
C713 C711 1.370 . S
C713 H771 0.928 1_565 S
C714 C717 1.348 . S
C714 C718 1.356 . S
C714 O765 1.325 . S
C715 N716 1.279 . S
C715 C718 1.358 . S
C715 H772 0.930 . S
N716 C715 1.279 . S
N716 C719 1.314 1_565 S
C717 C714 1.348 . S
C717 C719 1.353 1_565 S
C717 H773 0.929 1_565 S
C718 C714 1.356 . S
C718 C715 1.358 . S
C718 H774 0.930 . S
C719 N716 1.314 1_545 S
C719 C717 1.353 1_545 S
C719 H775 0.930 . S
C720 N721 1.314 . S
C720 C725 1.353 . S
C720 H726 0.930 1_545 S
N721 Li704 1.990 1_545 S
N721 C720 1.314 . S
N721 C723 1.279 . S
C722 C723 1.358 . S
C722 C724 1.356 . S
C722 H776 0.930 . S
C723 N721 1.279 . S
C723 C722 1.358 . S
C723 H727 0.930 . S
C724 C722 1.356 . S
C724 C725 1.348 . S
C725 C720 1.353 . S
C725 C724 1.348 . S
C725 H777 0.929 . S
H726 C720 0.930 1_565 S
H727 C723 0.930 . S
C728 N729 1.314 . S
C728 C730 1.353 . S
C728 H734 0.930 . S
N729 Li705 1.990 . S
N729 C728 1.314 . S
N729 C732 1.279 . S
C730 C728 1.353 . S
C730 C733 1.348 . S
C730 H778 0.929 . S
C731 C732 1.358 . S
C731 C733 1.356 . S
C731 H779 0.930 . S
C732 N729 1.279 . S
C732 C731 1.358 . S
C732 H735 0.930 . S
C733 C730 1.348 . S
C733 C731 1.356 . S
H734 C728 0.930 . S
H735 C732 0.930 . S
C736 C738 1.348 . S
C736 C739 1.356 . S
C736 O766 1.325 . S
N737 C740 1.314 . S
N737 C741 1.279 . S
C738 C736 1.348 . S
C738 C740 1.353 . S
C738 H780 0.929 . S
C739 C736 1.356 . S
C739 C741 1.358 . S
C739 H781 0.930 . S
C740 N737 1.314 . S
C740 C738 1.353 . S
C740 H782 0.930 . S
C741 N737 1.279 . S
C741 C739 1.358 . S
C741 H783 0.930 . S
C742 C743 1.348 . S
C742 C744 1.356 . S
C742 O767 1.325 . S
C743 C742 1.348 . S
C743 C745 1.353 . S
C743 H784 0.929 . S
C744 C742 1.356 . S
C744 C746 1.358 . S
C744 H785 0.930 . S
C745 C743 1.353 . S
C745 N747 1.314 . S
C745 H786 0.930 . S
C746 C744 1.358 . S
C746 N747 1.279 . S
C746 H787 0.930 . S
N747 C745 1.314 . S
N747 C746 1.279 . S
C748 C750 1.353 . S
C748 N751 1.314 . S
C748 H754 0.930 . S
C749 N751 1.279 . S
C749 C752 1.358 . S
C749 H755 0.930 . S
C750 C748 1.353 . S
C750 C753 1.348 . S
C750 H788 0.929 . S
N751 Li706 1.990 . S
N751 C748 1.314 . S
N751 C749 1.279 . S
C752 C749 1.358 . S
C752 C753 1.356 . S
C752 H789 0.930 . S
C753 C750 1.348 . S
C753 C752 1.356 . S
H754 C748 0.930 . S
H755 C749 0.930 . S
C756 N757 1.314 . S
C756 C758 1.353 . S
C756 H762 0.930 . S
N757 Li707 1.990 . S
N757 C756 1.314 . S
N757 C760 1.279 . S
C758 C756 1.353 . S
C758 C761 1.348 . S
C758 H790 0.929 . S
C759 C760 1.358 . S
C759 C761 1.356 . S
C759 H791 0.930 . S
C760 N757 1.279 . S
C760 C759 1.358 . S
C760 H763 0.930 . S
C761 C758 1.348 . S
C761 C759 1.356 . S
H762 C756 0.930 . S
H763 C760 0.930 . S
O764 Li704 1.956 . S
O764 Li705 1.970 . S
O764 Li706 1.961 . S
O764 C708 1.325 . S
O765 Li704 1.970 . S
O765 Li705 1.956 . S
O765 Li707 1.961 . S
O765 C714 1.325 . S
O766 Li704 1.961 . S
O766 Li706 1.956 . S
O766 Li707 1.970 . S
O766 C736 1.325 . S
O767 Li705 1.961 . S
O767 Li706 1.970 . S
O767 Li707 1.956 . S
O767 C742 1.325 . S
H768 C710 0.929 . S
H769 C711 0.930 . S
H770 C712 0.930 . S
H771 C713 0.928 1_545 S
H772 C715 0.930 . S
H773 C717 0.929 1_545 S
H774 C718 0.930 . S
H775 C719 0.930 . S
H776 C722 0.930 . S
H777 C725 0.929 . S
H778 C730 0.929 . S
H779 C731 0.930 . S
H780 C738 0.929 . S
H781 C739 0.930 . S
H782 C740 0.930 . S
H783 C741 0.930 . S
H784 C743 0.929 . S
H785 C744 0.930 . S
H786 C745 0.930 . S
H787 C746 0.930 . S
H788 C750 0.929 . S
H789 C752 0.930 . S
H790 C758 0.929 . S
H791 C759 0.930 . S
Li792 N809 1.990 . S
Li792 O852 1.956 . S
Li792 O853 1.970 . S
Li792 O854 1.961 . S
Li793 N817 1.990 1_655 S
Li793 O852 1.970 . S
Li793 O853 1.956 . S
Li793 O855 1.961 . S
Li794 N839 1.990 . S
Li794 O852 1.961 . S
Li794 O854 1.956 . S
Li794 O855 1.970 . S
Li795 N845 1.990 . S
Li795 O853 1.961 . S
Li795 O854 1.970 . S
Li795 O855 1.956 . S
C796 C798 1.348 . S
C796 C799 1.356 . S
C796 O852 1.325 . S
N797 C800 1.314 1_655 S
N797 C801 1.279 . S
C798 C796 1.348 . S
C798 C800 1.353 1_655 S
C798 H856 0.929 . S
C799 C796 1.356 . S
C799 C801 1.358 . S
C799 H857 0.930 . S
C800 N797 1.314 1_455 S
C800 C798 1.353 1_455 S
C800 H858 0.930 . S
C801 N797 1.279 . S
C801 C799 1.358 . S
C801 H859 0.930 . S
C802 C805 1.348 . S
C802 C806 1.356 . S
C802 O853 1.325 . S
C803 N804 1.279 . S
C803 C806 1.358 . S
C803 H860 0.930 . S
N804 C803 1.279 . S
N804 C807 1.314 . S
C805 C802 1.348 . S
C805 C807 1.353 . S
C805 H861 0.929 . S
C806 C802 1.356 . S
C806 C803 1.358 . S
C806 H862 0.930 . S
C807 N804 1.314 . S
C807 C805 1.353 . S
C807 H863 0.930 . S
C808 N809 1.314 . S
C808 C813 1.353 . S
C808 H814 0.930 . S
N809 Li792 1.990 . S
N809 C808 1.314 . S
N809 C811 1.279 . S
C810 C811 1.358 . S
C810 C812 1.356 . S
C810 H864 0.930 . S
C811 N809 1.279 . S
C811 C810 1.358 . S
C811 H815 0.930 . S
C812 C810 1.356 . S
C812 C813 1.348 . S
C813 C808 1.353 . S
C813 C812 1.348 . S
C813 H865 0.929 . S
H814 C808 0.930 . S
H815 C811 0.930 . S
C816 N817 1.314 . S
C816 C818 1.353 . S
C816 H822 0.930 . S
N817 Li793 1.990 1_455 S
N817 C816 1.314 . S
N817 C820 1.279 . S
C818 C816 1.353 . S
C818 C821 1.348 . S
C818 H866 0.929 . S
C819 C820 1.358 . S
C819 C821 1.356 . S
C819 H867 0.930 . S
C820 N817 1.279 . S
C820 C819 1.358 . S
C820 H823 0.930 1_455 S
C821 C818 1.348 . S
C821 C819 1.356 . S
H822 C816 0.930 . S
H823 C820 0.930 1_655 S
C824 C826 1.348 . S
C824 C827 1.356 . S
C824 O854 1.325 . S
N825 C828 1.314 . S
N825 C829 1.279 . S
C826 C824 1.348 . S
C826 C828 1.353 . S
C826 H868 0.929 . S
C827 C824 1.356 . S
C827 C829 1.358 . S
C827 H869 0.930 . S
C828 N825 1.314 . S
C828 C826 1.353 . S
C828 H870 0.930 . S
C829 N825 1.279 . S
C829 C827 1.358 . S
C829 H871 0.930 . S
C830 C831 1.348 . S
C830 C832 1.356 . S
C830 O855 1.325 . S
C831 C830 1.348 . S
C831 C833 1.353 . S
C831 H872 0.929 . S
C832 C830 1.356 . S
C832 C834 1.358 1_655 S
C832 H873 0.930 . S
C833 C831 1.353 . S
C833 N835 1.314 1_655 S
C833 H874 0.931 . S
C834 C832 1.358 1_455 S
C834 N835 1.279 . S
C834 H875 0.930 . S
N835 C833 1.314 1_455 S
N835 C834 1.279 . S
C836 C838 1.353 . S
C836 N839 1.314 . S
C836 H842 0.930 . S
C837 N839 1.279 . S
C837 C840 1.358 . S
C837 H843 0.930 . S
C838 C836 1.353 . S
C838 C841 1.348 . S
C838 H876 0.929 1_655 S
N839 Li794 1.990 . S
N839 C836 1.314 . S
N839 C837 1.279 . S
C840 C837 1.358 . S
C840 C841 1.356 . S
C840 H877 0.930 . S
C841 C838 1.348 . S
C841 C840 1.356 . S
H842 C836 0.930 . S
H843 C837 0.930 . S
C844 N845 1.314 . S
C844 C846 1.353 . S
C844 H850 0.930 . S
N845 Li795 1.990 . S
N845 C844 1.314 . S
N845 C848 1.279 . S
C846 C844 1.353 . S
C846 C849 1.348 . S
C846 H878 0.929 . S
C847 C848 1.358 . S
C847 C849 1.356 . S
C847 H879 0.930 . S
C848 N845 1.279 . S
C848 C847 1.358 . S
C848 H851 0.930 . S
C849 C846 1.348 . S
C849 C847 1.356 . S
H850 C844 0.930 . S
H851 C848 0.930 . S
O852 Li792 1.956 . S
O852 Li793 1.970 . S
O852 Li794 1.961 . S
O852 C796 1.325 . S
O853 Li792 1.970 . S
O853 Li793 1.956 . S
O853 Li795 1.961 . S
O853 C802 1.325 . S
O854 Li792 1.961 . S
O854 Li794 1.956 . S
O854 Li795 1.970 . S
O854 C824 1.325 . S
O855 Li793 1.961 . S
O855 Li794 1.970 . S
O855 Li795 1.956 . S
O855 C830 1.325 . S
H856 C798 0.929 . S
H857 C799 0.930 . S
H858 C800 0.930 . S
H859 C801 0.930 . S
H860 C803 0.930 . S
H861 C805 0.929 . S
H862 C806 0.930 . S
H863 C807 0.930 . S
H864 C810 0.930 . S
H865 C813 0.929 . S
H866 C818 0.929 . S
H867 C819 0.930 . S
H868 C826 0.929 . S
H869 C827 0.930 . S
H870 C828 0.930 . S
H871 C829 0.930 . S
H872 C831 0.929 . S
H873 C832 0.930 . S
H874 C833 0.931 . S
H875 C834 0.930 . S
H876 C838 0.929 1_455 S
H877 C840 0.930 . S
H878 C846 0.929 . S
H879 C847 0.930 . S
Li880 N897 1.990 . S
Li880 O940 1.956 . S
Li880 O941 1.970 . S
Li880 O942 1.961 . S
Li881 N905 1.990 . S
Li881 O940 1.970 . S
Li881 O941 1.956 . S
Li881 O943 1.961 . S
Li882 N927 1.990 1_545 S
Li882 O940 1.961 . S
Li882 O942 1.956 . S
Li882 O943 1.970 . S
Li883 N933 1.990 . S
Li883 O941 1.961 . S
Li883 O942 1.970 . S
Li883 O943 1.956 . S
C884 C886 1.348 . S
C884 C887 1.356 . S
C884 O940 1.325 . S
N885 C888 1.314 . S
N885 C889 1.279 . S
C886 C884 1.348 . S
C886 C888 1.353 . S
C886 H944 0.929 . S
C887 C884 1.356 . S
C887 C889 1.358 . S
C887 H945 0.930 . S
C888 N885 1.314 . S
C888 C886 1.353 . S
C888 H946 0.930 . S
C889 N885 1.279 . S
C889 C887 1.358 . S
C889 H947 0.930 . S
C890 C893 1.348 . S
C890 C894 1.356 . S
C890 O941 1.325 . S
C891 N892 1.279 . S
C891 C894 1.358 . S
C891 H948 0.930 . S
N892 C891 1.279 . S
N892 C895 1.314 . S
C893 C890 1.348 . S
C893 C895 1.353 . S
C893 H949 0.929 . S
C894 C890 1.356 . S
C894 C891 1.358 . S
C894 H950 0.930 . S
C895 N892 1.314 . S
C895 C893 1.353 . S
C895 H951 0.930 . S
C896 N897 1.314 . S
C896 C901 1.353 . S
C896 H902 0.930 . S
N897 Li880 1.990 . S
N897 C896 1.314 . S
N897 C899 1.279 . S
C898 C899 1.358 . S
C898 C900 1.356 . S
C898 H952 0.930 . S
C899 N897 1.279 . S
C899 C898 1.358 . S
C899 H903 0.930 . S
C900 C898 1.356 . S
C900 C901 1.348 . S
C901 C896 1.353 . S
C901 C900 1.348 . S
C901 H953 0.929 . S
H902 C896 0.930 . S
H903 C899 0.930 . S
C904 N905 1.314 . S
C904 C906 1.353 . S
C904 H910 0.930 . S
N905 Li881 1.990 . S
N905 C904 1.314 . S
N905 C908 1.279 . S
C906 C904 1.353 . S
C906 C909 1.348 . S
C906 H954 0.929 . S
C907 C908 1.358 . S
C907 C909 1.356 . S
C907 H955 0.930 . S
C908 N905 1.279 . S
C908 C907 1.358 . S
C908 H911 0.930 . S
C909 C906 1.348 . S
C909 C907 1.356 . S
H910 C904 0.930 . S
H911 C908 0.930 . S
C912 C914 1.348 . S
C912 C915 1.356 . S
C912 O942 1.325 . S
N913 C916 1.314 . S
N913 C917 1.269 1_565 S
C914 C912 1.348 . S
C914 C916 1.353 1_545 S
C914 H956 0.929 . S
C915 C912 1.356 . S
C915 C917 1.370 . S
C915 H957 0.930 . S
C916 N913 1.314 . S
C916 C914 1.353 1_565 S
C916 H958 0.930 . S
C917 N913 1.269 1_545 S
C917 C915 1.370 . S
C917 H959 0.928 1_545 S
C918 C919 1.348 . S
C918 C920 1.356 . S
C918 O943 1.325 . S
C919 C918 1.348 . S
C919 C921 1.353 1_545 S
C919 H960 0.929 1_545 S
C920 C918 1.356 . S
C920 C922 1.358 . S
C920 H961 0.930 . S
C921 C919 1.353 1_565 S
C921 N923 1.314 1_565 S
C921 H962 0.930 . S
C922 C920 1.358 . S
C922 N923 1.279 . S
C922 H963 0.930 . S
N923 C921 1.314 1_545 S
N923 C922 1.279 . S
C924 C926 1.353 . S
C924 N927 1.314 . S
C924 H930 0.930 1_565 S
C925 N927 1.279 . S
C925 C928 1.358 . S
C925 H931 0.930 . S
C926 C924 1.353 . S
C926 C929 1.348 . S
C926 H964 0.929 . S
N927 Li882 1.990 1_565 S
N927 C924 1.314 . S
N927 C925 1.279 . S
C928 C925 1.358 . S
C928 C929 1.356 . S
C928 H965 0.930 . S
C929 C926 1.348 . S
C929 C928 1.356 . S
H930 C924 0.930 1_545 S
H931 C925 0.930 . S
C932 N933 1.314 . S
C932 C934 1.353 . S
C932 H938 0.930 . S
N933 Li883 1.990 . S
N933 C932 1.314 . S
N933 C936 1.279 . S
C934 C932 1.353 . S
C934 C937 1.348 . S
C934 H966 0.929 . S
C935 C936 1.358 . S
C935 C937 1.356 . S
C935 H967 0.930 . S
C936 N933 1.279 . S
C936 C935 1.358 . S
C936 H939 0.930 . S
C937 C934 1.348 . S
C937 C935 1.356 . S
H938 C932 0.930 . S
H939 C936 0.930 . S
O940 Li880 1.956 . S
O940 Li881 1.970 . S
O940 Li882 1.961 . S
O940 C884 1.325 . S
O941 Li880 1.970 . S
O941 Li881 1.956 . S
O941 Li883 1.961 . S
O941 C890 1.325 . S
O942 Li880 1.961 . S
O942 Li882 1.956 . S
O942 Li883 1.970 . S
O942 C912 1.325 . S
O943 Li881 1.961 . S
O943 Li882 1.970 . S
O943 Li883 1.956 . S
O943 C918 1.325 . S
H944 C886 0.929 . S
H945 C887 0.930 . S
H946 C888 0.930 . S
H947 C889 0.930 . S
H948 C891 0.930 . S
H949 C893 0.929 . S
H950 C894 0.930 . S
H951 C895 0.930 . S
H952 C898 0.930 . S
H953 C901 0.929 . S
H954 C906 0.929 . S
H955 C907 0.930 . S
H956 C914 0.929 . S
H957 C915 0.930 . S
H958 C916 0.930 . S
H959 C917 0.928 1_565 S
H960 C919 0.929 1_565 S
H961 C920 0.930 . S
H962 C921 0.930 . S
H963 C922 0.930 . S
H964 C926 0.929 . S
H965 C928 0.930 . S
H966 C934 0.929 . S
H967 C935 0.930 . S
Li968 N985 1.990 1_455 S
Li968 O1028 1.956 . S
Li968 O1029 1.970 . S
Li968 O1030 1.961 . S
Li969 N993 1.990 . S
Li969 O1028 1.970 . S
Li969 O1029 1.956 . S
Li969 O1031 1.961 . S
Li970 N1015 1.990 . S
Li970 O1028 1.961 . S
Li970 O1030 1.956 . S
Li970 O1031 1.970 . S
Li971 N1021 1.990 . S
Li971 O1029 1.961 . S
Li971 O1030 1.970 . S
Li971 O1031 1.956 . S
C972 C974 1.348 . S
C972 C975 1.356 . S
C972 O1028 1.325 . S
N973 C976 1.314 . S
N973 C977 1.279 . S
C974 C972 1.348 . S
C974 C976 1.353 . S
C974 H1032 0.929 . S
C975 C972 1.356 . S
C975 C977 1.358 . S
C975 H1033 0.930 . S
C976 N973 1.314 . S
C976 C974 1.353 . S
C976 H1034 0.930 . S
C977 N973 1.279 . S
C977 C975 1.358 . S
C977 H1035 0.930 . S
C978 C981 1.348 . S
C978 C982 1.356 . S
C978 O1029 1.325 . S
C979 N980 1.279 . S
C979 C982 1.358 . S
C979 H1036 0.930 . S
N980 C979 1.279 . S
N980 C983 1.314 1_455 S
C981 C978 1.348 . S
C981 C983 1.353 1_455 S
C981 H1037 0.929 . S
C982 C978 1.356 . S
C982 C979 1.358 . S
C982 H1038 0.930 . S
C983 N980 1.314 1_655 S
C983 C981 1.353 1_655 S
C983 H1039 0.930 . S
C984 N985 1.314 . S
C984 C989 1.353 . S
C984 H990 0.930 . S
N985 Li968 1.990 1_655 S
N985 C984 1.314 . S
N985 C987 1.279 . S
C986 C987 1.358 . S
C986 C988 1.356 . S
C986 H1040 0.930 . S
C987 N985 1.279 . S
C987 C986 1.358 . S
C987 H991 0.930 1_655 S
C988 C986 1.356 . S
C988 C989 1.348 . S
C989 C984 1.353 . S
C989 C988 1.348 . S
C989 H1041 0.929 . S
H990 C984 0.930 . S
H991 C987 0.930 1_455 S
C992 N993 1.314 . S
C992 C994 1.353 . S
C992 H998 0.930 . S
N993 Li969 1.990 . S
N993 C992 1.314 . S
N993 C996 1.279 . S
C994 C992 1.353 . S
C994 C997 1.348 . S
C994 H1042 0.929 . S
C995 C996 1.358 . S
C995 C997 1.356 . S
C995 H1043 0.930 . S
C996 N993 1.279 . S
C996 C995 1.358 . S
C996 H999 0.930 . S
C997 C994 1.348 . S
C997 C995 1.356 . S
H998 C992 0.930 . S
H999 C996 0.930 . S
C1000 C1002 1.348 . S
C1000 C1003 1.356 . S
C1000 O1030 1.325 . S
N1001 C1004 1.314 1_655 S
N1001 C1005 1.279 . S
C1002 C1000 1.348 . S
C1002 C1004 1.353 . S
C1002 H1044 0.929 . S
C1003 C1000 1.356 . S
C1003 C1005 1.358 1_455 S
C1003 H1045 0.930 . S
C1004 N1001 1.314 1_455 S
C1004 C1002 1.353 . S
C1004 H1046 0.931 . S
C1005 N1001 1.279 . S
C1005 C1003 1.358 1_655 S
C1005 H1047 0.930 . S
C1006 C1007 1.348 . S
C1006 C1008 1.356 . S
C1006 O1031 1.325 . S
C1007 C1006 1.348 . S
C1007 C1009 1.353 . S
C1007 H1048 0.929 . S
C1008 C1006 1.356 . S
C1008 C1010 1.358 . S
C1008 H1049 0.930 . S
C1009 C1007 1.353 . S
C1009 N1011 1.314 . S
C1009 H1050 0.930 . S
C1010 C1008 1.358 . S
C1010 N1011 1.279 . S
C1010 H1051 0.930 . S
N1011 C1009 1.314 . S
N1011 C1010 1.279 . S
C1012 C1014 1.353 . S
C1012 N1015 1.314 . S
C1012 H1018 0.930 . S
C1013 N1015 1.279 . S
C1013 C1016 1.358 . S
C1013 H1019 0.930 . S
C1014 C1012 1.353 . S
C1014 C1017 1.348 . S
C1014 H1052 0.929 . S
N1015 Li970 1.990 . S
N1015 C1012 1.314 . S
N1015 C1013 1.279 . S
C1016 C1013 1.358 . S
C1016 C1017 1.356 . S
C1016 H1053 0.930 . S
C1017 C1014 1.348 . S
C1017 C1016 1.356 . S
H1018 C1012 0.930 . S
H1019 C1013 0.930 . S
C1020 N1021 1.314 . S
C1020 C1022 1.353 . S
C1020 H1026 0.930 . S
N1021 Li971 1.990 . S
N1021 C1020 1.314 . S
N1021 C1024 1.279 . S
C1022 C1020 1.353 . S
C1022 C1025 1.348 . S
C1022 H1054 0.929 1_455 S
C1023 C1024 1.358 . S
C1023 C1025 1.356 . S
C1023 H1055 0.930 . S
C1024 N1021 1.279 . S
C1024 C1023 1.358 . S
C1024 H1027 0.930 . S
C1025 C1022 1.348 . S
C1025 C1023 1.356 . S
H1026 C1020 0.930 . S
H1027 C1024 0.930 . S
O1028 Li968 1.956 . S
O1028 Li969 1.970 . S
O1028 Li970 1.961 . S
O1028 C972 1.325 . S
O1029 Li968 1.970 . S
O1029 Li969 1.956 . S
O1029 Li971 1.961 . S
O1029 C978 1.325 . S
O1030 Li968 1.961 . S
O1030 Li970 1.956 . S
O1030 Li971 1.970 . S
O1030 C1000 1.325 . S
O1031 Li969 1.961 . S
O1031 Li970 1.970 . S
O1031 Li971 1.956 . S
O1031 C1006 1.325 . S
H1032 C974 0.929 . S
H1033 C975 0.930 . S
H1034 C976 0.930 . S
H1035 C977 0.930 . S
H1036 C979 0.930 . S
H1037 C981 0.929 . S
H1038 C982 0.930 . S
H1039 C983 0.930 . S
H1040 C986 0.930 . S
H1041 C989 0.929 . S
H1042 C994 0.929 . S
H1043 C995 0.930 . S
H1044 C1002 0.929 . S
H1045 C1003 0.930 . S
H1046 C1004 0.931 . S
H1047 C1005 0.930 . S
H1048 C1007 0.929 . S
H1049 C1008 0.930 . S
H1050 C1009 0.930 . S
H1051 C1010 0.930 . S
H1052 C1014 0.929 . S
H1053 C1016 0.930 . S
H1054 C1022 0.929 1_655 S
H1055 C1023 0.930 . S
Li1056 N1073 1.990 . S
Li1056 O1116 1.956 . S
Li1056 O1117 1.970 . S
Li1056 O1118 1.961 . S
Li1057 N1081 1.990 . S
Li1057 O1116 1.970 . S
Li1057 O1117 1.956 . S
Li1057 O1119 1.961 . S
Li1058 N1103 1.990 . S
Li1058 O1116 1.961 . S
Li1058 O1118 1.956 . S
Li1058 O1119 1.970 . S
Li1059 N1109 1.990 1_545 S
Li1059 O1117 1.961 . S
Li1059 O1118 1.970 . S
Li1059 O1119 1.956 . S
C1060 C1062 1.348 . S
C1060 C1063 1.356 . S
C1060 O1116 1.325 . S
N1061 C1064 1.314 . S
N1061 C1065 1.279 . S
C1062 C1060 1.348 . S
C1062 C1064 1.353 . S
C1062 H1120 0.929 . S
C1063 C1060 1.356 . S
C1063 C1065 1.358 . S
C1063 H1121 0.930 . S
C1064 N1061 1.314 . S
C1064 C1062 1.353 . S
C1064 H1122 0.930 . S
C1065 N1061 1.279 . S
C1065 C1063 1.358 . S
C1065 H1123 0.930 . S
C1066 C1069 1.348 . S
C1066 C1070 1.356 . S
C1066 O1117 1.325 . S
C1067 N1068 1.279 . S
C1067 C1070 1.358 . S
C1067 H1124 0.930 . S
N1068 C1067 1.279 . S
N1068 C1071 1.314 . S
C1069 C1066 1.348 . S
C1069 C1071 1.353 . S
C1069 H1125 0.929 . S
C1070 C1066 1.356 . S
C1070 C1067 1.358 . S
C1070 H1126 0.930 . S
C1071 N1068 1.314 . S
C1071 C1069 1.353 . S
C1071 H1127 0.930 . S
C1072 N1073 1.314 . S
C1072 C1077 1.353 . S
C1072 H1078 0.930 . S
N1073 Li1056 1.990 . S
N1073 C1072 1.314 . S
N1073 C1075 1.279 . S
C1074 C1075 1.358 . S
C1074 C1076 1.356 . S
C1074 H1128 0.930 . S
C1075 N1073 1.279 . S
C1075 C1074 1.358 . S
C1075 H1079 0.930 . S
C1076 C1074 1.356 . S
C1076 C1077 1.348 . S
C1077 C1072 1.353 . S
C1077 C1076 1.348 . S
C1077 H1129 0.929 . S
H1078 C1072 0.930 . S
H1079 C1075 0.930 . S
C1080 N1081 1.314 . S
C1080 C1082 1.353 . S
C1080 H1086 0.930 . S
N1081 Li1057 1.990 . S
N1081 C1080 1.314 . S
N1081 C1084 1.279 . S
C1082 C1080 1.353 . S
C1082 C1085 1.348 . S
C1082 H1130 0.929 . S
C1083 C1084 1.358 . S
C1083 C1085 1.356 . S
C1083 H1131 0.930 . S
C1084 N1081 1.279 . S
C1084 C1083 1.358 . S
C1084 H1087 0.930 . S
C1085 C1082 1.348 . S
C1085 C1083 1.356 . S
H1086 C1080 0.930 . S
H1087 C1084 0.930 . S
C1088 C1090 1.348 . S
C1088 C1091 1.356 . S
C1088 O1118 1.325 . S
N1089 C1092 1.314 1_545 S
N1089 C1093 1.279 . S
C1090 C1088 1.348 . S
C1090 C1092 1.353 1_545 S
C1090 H1132 0.929 1_545 S
C1091 C1088 1.356 . S
C1091 C1093 1.358 . S
C1091 H1133 0.930 . S
C1092 N1089 1.314 1_565 S
C1092 C1090 1.353 1_565 S
C1092 H1134 0.930 . S
C1093 N1089 1.279 . S
C1093 C1091 1.358 . S
C1093 H1135 0.930 . S
C1094 C1095 1.348 . S
C1094 C1096 1.356 . S
C1094 O1119 1.325 . S
C1095 C1094 1.348 . S
C1095 C1097 1.353 1_545 S
C1095 H1136 0.929 . S
C1096 C1094 1.356 . S
C1096 C1098 1.370 . S
C1096 H1137 0.930 . S
C1097 C1095 1.353 1_565 S
C1097 N1099 1.314 . S
C1097 H1138 0.930 . S
C1098 C1096 1.370 . S
C1098 N1099 1.269 1_545 S
C1098 H1139 0.928 1_545 S
N1099 C1097 1.314 . S
N1099 C1098 1.269 1_565 S
C1100 C1102 1.353 . S
C1100 N1103 1.314 . S
C1100 H1106 0.930 . S
C1101 N1103 1.279 . S
C1101 C1104 1.358 . S
C1101 H1107 0.930 . S
C1102 C1100 1.353 . S
C1102 C1105 1.348 . S
C1102 H1140 0.929 . S
N1103 Li1058 1.990 . S
N1103 C1100 1.314 . S
N1103 C1101 1.279 . S
C1104 C1101 1.358 . S
C1104 C1105 1.356 . S
C1104 H1141 0.930 . S
C1105 C1102 1.348 . S
C1105 C1104 1.356 . S
H1106 C1100 0.930 . S
H1107 C1101 0.930 . S
C1108 N1109 1.314 . S
C1108 C1110 1.353 . S
C1108 H1114 0.930 1_565 S
N1109 Li1059 1.990 1_565 S
N1109 C1108 1.314 . S
N1109 C1112 1.279 . S
C1110 C1108 1.353 . S
C1110 C1113 1.348 . S
C1110 H1142 0.929 . S
C1111 C1112 1.358 . S
C1111 C1113 1.356 . S
C1111 H1143 0.930 . S
C1112 N1109 1.279 . S
C1112 C1111 1.358 . S
C1112 H1115 0.930 . S
C1113 C1110 1.348 . S
C1113 C1111 1.356 . S
H1114 C1108 0.930 1_545 S
H1115 C1112 0.930 . S
O1116 Li1056 1.956 . S
O1116 Li1057 1.970 . S
O1116 Li1058 1.961 . S
O1116 C1060 1.325 . S
O1117 Li1056 1.970 . S
O1117 Li1057 1.956 . S
O1117 Li1059 1.961 . S
O1117 C1066 1.325 . S
O1118 Li1056 1.961 . S
O1118 Li1058 1.956 . S
O1118 Li1059 1.970 . S
O1118 C1088 1.325 . S
O1119 Li1057 1.961 . S
O1119 Li1058 1.970 . S
O1119 Li1059 1.956 . S
O1119 C1094 1.325 . S
H1120 C1062 0.929 . S
H1121 C1063 0.930 . S
H1122 C1064 0.930 . S
H1123 C1065 0.930 . S
H1124 C1067 0.930 . S
H1125 C1069 0.929 . S
H1126 C1070 0.930 . S
H1127 C1071 0.930 . S
H1128 C1074 0.930 . S
H1129 C1077 0.929 . S
H1130 C1082 0.929 . S
H1131 C1083 0.930 . S
H1132 C1090 0.929 1_565 S
H1133 C1091 0.930 . S
H1134 C1092 0.930 . S
H1135 C1093 0.930 . S
H1136 C1095 0.929 . S
H1137 C1096 0.930 . S
H1138 C1097 0.930 . S
H1139 C1098 0.928 1_565 S
H1140 C1102 0.929 . S
H1141 C1104 0.930 . S
H1142 C1110 0.929 . S
H1143 C1111 0.930 . S
Li1144 N1161 1.990 . S
Li1144 O1204 1.956 . S
Li1144 O1205 1.970 . S
Li1144 O1206 1.961 . S
Li1145 N1169 1.990 . S
Li1145 O1204 1.970 . S
Li1145 O1205 1.956 . S
Li1145 O1207 1.961 . S
Li1146 N1191 1.990 . S
Li1146 O1204 1.961 . S
Li1146 O1206 1.956 . S
Li1146 O1207 1.970 . S
Li1147 N1197 1.990 1_455 S
Li1147 O1205 1.961 . S
Li1147 O1206 1.970 . S
Li1147 O1207 1.956 . S
C1148 C1150 1.348 . S
C1148 C1151 1.356 . S
C1148 O1204 1.325 . S
N1149 C1152 1.314 . S
N1149 C1153 1.279 . S
C1150 C1148 1.348 . S
C1150 C1152 1.353 . S
C1150 H1208 0.929 . S
C1151 C1148 1.356 . S
C1151 C1153 1.358 . S
C1151 H1209 0.930 . S
C1152 N1149 1.314 . S
C1152 C1150 1.353 . S
C1152 H1210 0.930 . S
C1153 N1149 1.279 . S
C1153 C1151 1.358 . S
C1153 H1211 0.930 . S
C1154 C1157 1.348 . S
C1154 C1158 1.356 . S
C1154 O1205 1.325 . S
C1155 N1156 1.279 . S
C1155 C1158 1.358 1_655 S
C1155 H1212 0.930 . S
N1156 C1155 1.279 . S
N1156 C1159 1.314 1_655 S
C1157 C1154 1.348 . S
C1157 C1159 1.353 . S
C1157 H1213 0.929 . S
C1158 C1154 1.356 . S
C1158 C1155 1.358 1_455 S
C1158 H1214 0.930 . S
C1159 N1156 1.314 1_455 S
C1159 C1157 1.353 . S
C1159 H1215 0.931 . S
C1160 N1161 1.314 . S
C1160 C1165 1.353 . S
C1160 H1166 0.930 . S
N1161 Li1144 1.990 . S
N1161 C1160 1.314 . S
N1161 C1163 1.279 . S
C1162 C1163 1.358 . S
C1162 C1164 1.356 . S
C1162 H1216 0.930 . S
C1163 N1161 1.279 . S
C1163 C1162 1.358 . S
C1163 H1167 0.930 . S
C1164 C1162 1.356 . S
C1164 C1165 1.348 . S
C1165 C1160 1.353 . S
C1165 C1164 1.348 . S
C1165 H1217 0.929 1_455 S
H1166 C1160 0.930 . S
H1167 C1163 0.930 . S
C1168 N1169 1.314 . S
C1168 C1170 1.353 . S
C1168 H1174 0.930 . S
N1169 Li1145 1.990 . S
N1169 C1168 1.314 . S
N1169 C1172 1.279 . S
C1170 C1168 1.353 . S
C1170 C1173 1.348 . S
C1170 H1218 0.929 . S
C1171 C1172 1.358 . S
C1171 C1173 1.356 . S
C1171 H1219 0.930 . S
C1172 N1169 1.279 . S
C1172 C1171 1.358 . S
C1172 H1175 0.930 . S
C1173 C1170 1.348 . S
C1173 C1171 1.356 . S
H1174 C1168 0.930 . S
H1175 C1172 0.930 . S
C1176 C1178 1.348 . S
C1176 C1179 1.356 . S
C1176 O1206 1.325 . S
N1177 C1180 1.314 1_455 S
N1177 C1181 1.279 . S
C1178 C1176 1.348 . S
C1178 C1180 1.353 1_455 S
C1178 H1220 0.929 . S
C1179 C1176 1.356 . S
C1179 C1181 1.358 . S
C1179 H1221 0.930 . S
C1180 N1177 1.314 1_655 S
C1180 C1178 1.353 1_655 S
C1180 H1222 0.930 . S
C1181 N1177 1.279 . S
C1181 C1179 1.358 . S
C1181 H1223 0.930 . S
C1182 C1183 1.348 . S
C1182 C1184 1.356 . S
C1182 O1207 1.325 . S
C1183 C1182 1.348 . S
C1183 C1185 1.353 . S
C1183 H1224 0.929 . S
C1184 C1182 1.356 . S
C1184 C1186 1.358 . S
C1184 H1225 0.930 . S
C1185 C1183 1.353 . S
C1185 N1187 1.314 . S
C1185 H1226 0.930 . S
C1186 C1184 1.358 . S
C1186 N1187 1.279 . S
C1186 H1227 0.930 . S
N1187 C1185 1.314 . S
N1187 C1186 1.279 . S
C1188 C1190 1.353 . S
C1188 N1191 1.314 . S
C1188 H1194 0.930 . S
C1189 N1191 1.279 . S
C1189 C1192 1.358 . S
C1189 H1195 0.930 . S
C1190 C1188 1.353 . S
C1190 C1193 1.348 . S
C1190 H1228 0.929 . S
N1191 Li1146 1.990 . S
N1191 C1188 1.314 . S
N1191 C1189 1.279 . S
C1192 C1189 1.358 . S
C1192 C1193 1.356 . S
C1192 H1229 0.930 . S
C1193 C1190 1.348 . S
C1193 C1192 1.356 . S
H1194 C1188 0.930 . S
H1195 C1189 0.930 . S
C1196 N1197 1.314 . S
C1196 C1198 1.353 . S
C1196 H1202 0.930 . S
N1197 Li1147 1.990 1_655 S
N1197 C1196 1.314 . S
N1197 C1200 1.279 . S
C1198 C1196 1.353 . S
C1198 C1201 1.348 . S
C1198 H1230 0.929 . S
C1199 C1200 1.358 . S
C1199 C1201 1.356 . S
C1199 H1231 0.930 . S
C1200 N1197 1.279 . S
C1200 C1199 1.358 . S
C1200 H1203 0.930 1_655 S
C1201 C1198 1.348 . S
C1201 C1199 1.356 . S
H1202 C1196 0.930 . S
H1203 C1200 0.930 1_455 S
O1204 Li1144 1.956 . S
O1204 Li1145 1.970 . S
O1204 Li1146 1.961 . S
O1204 C1148 1.325 . S
O1205 Li1144 1.970 . S
O1205 Li1145 1.956 . S
O1205 Li1147 1.961 . S
O1205 C1154 1.325 . S
O1206 Li1144 1.961 . S
O1206 Li1146 1.956 . S
O1206 Li1147 1.970 . S
O1206 C1176 1.325 . S
O1207 Li1145 1.961 . S
O1207 Li1146 1.970 . S
O1207 Li1147 1.956 . S
O1207 C1182 1.325 . S
H1208 C1150 0.929 . S
H1209 C1151 0.930 . S
H1210 C1152 0.930 . S
H1211 C1153 0.930 . S
H1212 C1155 0.930 . S
H1213 C1157 0.929 . S
H1214 C1158 0.930 . S
H1215 C1159 0.931 . S
H1216 C1162 0.930 . S
H1217 C1165 0.929 1_655 S
H1218 C1170 0.929 . S
H1219 C1171 0.930 . S
H1220 C1178 0.929 . S
H1221 C1179 0.930 . S
H1222 C1180 0.930 . S
H1223 C1181 0.930 . S
H1224 C1183 0.929 . S
H1225 C1184 0.930 . S
H1226 C1185 0.930 . S
H1227 C1186 0.930 . S
H1228 C1190 0.929 . S
H1229 C1192 0.930 . S
H1230 C1198 0.929 . S
H1231 C1199 0.930 . S
Li1232 N1249 1.990 . S
Li1232 O1292 1.956 . S
Li1232 O1293 1.970 . S
Li1232 O1294 1.961 . S
Li1233 N1257 1.990 1_565 S
Li1233 O1292 1.970 . S
Li1233 O1293 1.956 . S
Li1233 O1295 1.961 . S
Li1234 N1279 1.990 . S
Li1234 O1292 1.961 . S
Li1234 O1294 1.956 . S
Li1234 O1295 1.970 . S
Li1235 N1285 1.990 . S
Li1235 O1293 1.961 . S
Li1235 O1294 1.970 . S
Li1235 O1295 1.956 . S
C1236 C1238 1.348 . S
C1236 C1239 1.356 . S
C1236 O1292 1.325 . S
N1237 C1240 1.314 1_565 S
N1237 C1241 1.279 . S
C1238 C1236 1.348 . S
C1238 C1240 1.353 1_565 S
C1238 H1296 0.929 1_565 S
C1239 C1236 1.356 . S
C1239 C1241 1.358 . S
C1239 H1297 0.930 . S
C1240 N1237 1.314 1_545 S
C1240 C1238 1.353 1_545 S
C1240 H1298 0.930 . S
C1241 N1237 1.279 . S
C1241 C1239 1.358 . S
C1241 H1299 0.930 . S
C1242 C1245 1.348 . S
C1242 C1246 1.356 . S
C1242 O1293 1.325 . S
C1243 N1244 1.269 1_565 S
C1243 C1246 1.370 . S
C1243 H1300 0.928 1_565 S
N1244 C1243 1.269 1_545 S
N1244 C1247 1.314 . S
C1245 C1242 1.348 . S
C1245 C1247 1.353 1_565 S
C1245 H1301 0.929 . S
C1246 C1242 1.356 . S
C1246 C1243 1.370 . S
C1246 H1302 0.930 . S
C1247 N1244 1.314 . S
C1247 C1245 1.353 1_545 S
C1247 H1303 0.930 . S
C1248 N1249 1.314 . S
C1248 C1253 1.353 . S
C1248 H1254 0.930 . S
N1249 Li1232 1.990 . S
N1249 C1248 1.314 . S
N1249 C1251 1.279 . S
C1250 C1251 1.358 . S
C1250 C1252 1.356 . S
C1250 H1304 0.930 . S
C1251 N1249 1.279 . S
C1251 C1250 1.358 . S
C1251 H1255 0.930 . S
C1252 C1250 1.356 . S
C1252 C1253 1.348 . S
C1253 C1248 1.353 . S
C1253 C1252 1.348 . S
C1253 H1305 0.929 . S
H1254 C1248 0.930 . S
H1255 C1251 0.930 . S
C1256 N1257 1.314 . S
C1256 C1258 1.353 . S
C1256 H1262 0.930 1_545 S
N1257 Li1233 1.990 1_545 S
N1257 C1256 1.314 . S
N1257 C1260 1.279 . S
C1258 C1256 1.353 . S
C1258 C1261 1.348 . S
C1258 H1306 0.929 . S
C1259 C1260 1.358 . S
C1259 C1261 1.356 . S
C1259 H1307 0.930 . S
C1260 N1257 1.279 . S
C1260 C1259 1.358 . S
C1260 H1263 0.930 . S
C1261 C1258 1.348 . S
C1261 C1259 1.356 . S
H1262 C1256 0.930 1_565 S
H1263 C1260 0.930 . S
C1264 C1266 1.348 . S
C1264 C1267 1.356 . S
C1264 O1294 1.325 . S
N1265 C1268 1.314 . S
N1265 C1269 1.279 . S
C1266 C1264 1.348 . S
C1266 C1268 1.353 . S
C1266 H1308 0.929 . S
C1267 C1264 1.356 . S
C1267 C1269 1.358 . S
C1267 H1309 0.930 . S
C1268 N1265 1.314 . S
C1268 C1266 1.353 . S
C1268 H1310 0.930 . S
C1269 N1265 1.279 . S
C1269 C1267 1.358 . S
C1269 H1311 0.930 . S
C1270 C1271 1.348 . S
C1270 C1272 1.356 . S
C1270 O1295 1.325 . S
C1271 C1270 1.348 . S
C1271 C1273 1.353 . S
C1271 H1312 0.929 . S
C1272 C1270 1.356 . S
C1272 C1274 1.358 . S
C1272 H1313 0.930 . S
C1273 C1271 1.353 . S
C1273 N1275 1.314 . S
C1273 H1314 0.930 . S
C1274 C1272 1.358 . S
C1274 N1275 1.279 . S
C1274 H1315 0.930 . S
N1275 C1273 1.314 . S
N1275 C1274 1.279 . S
C1276 C1278 1.353 . S
C1276 N1279 1.314 . S
C1276 H1282 0.930 . S
C1277 N1279 1.279 . S
C1277 C1280 1.358 . S
C1277 H1283 0.930 . S
C1278 C1276 1.353 . S
C1278 C1281 1.348 . S
C1278 H1316 0.929 . S
N1279 Li1234 1.990 . S
N1279 C1276 1.314 . S
N1279 C1277 1.279 . S
C1280 C1277 1.358 . S
C1280 C1281 1.356 . S
C1280 H1317 0.930 . S
C1281 C1278 1.348 . S
C1281 C1280 1.356 . S
H1282 C1276 0.930 . S
H1283 C1277 0.930 . S
C1284 N1285 1.314 . S
C1284 C1286 1.353 . S
C1284 H1290 0.930 . S
N1285 Li1235 1.990 . S
N1285 C1284 1.314 . S
N1285 C1288 1.279 . S
C1286 C1284 1.353 . S
C1286 C1289 1.348 . S
C1286 H1318 0.929 . S
C1287 C1288 1.358 . S
C1287 C1289 1.356 . S
C1287 H1319 0.930 . S
C1288 N1285 1.279 . S
C1288 C1287 1.358 . S
C1288 H1291 0.930 . S
C1289 C1286 1.348 . S
C1289 C1287 1.356 . S
H1290 C1284 0.930 . S
H1291 C1288 0.930 . S
O1292 Li1232 1.956 . S
O1292 Li1233 1.970 . S
O1292 Li1234 1.961 . S
O1292 C1236 1.325 . S
O1293 Li1232 1.970 . S
O1293 Li1233 1.956 . S
O1293 Li1235 1.961 . S
O1293 C1242 1.325 . S
O1294 Li1232 1.961 . S
O1294 Li1234 1.956 . S
O1294 Li1235 1.970 . S
O1294 C1264 1.325 . S
O1295 Li1233 1.961 . S
O1295 Li1234 1.970 . S
O1295 Li1235 1.956 . S
O1295 C1270 1.325 . S
H1296 C1238 0.929 1_545 S
H1297 C1239 0.930 . S
H1298 C1240 0.930 . S
H1299 C1241 0.930 . S
H1300 C1243 0.928 1_545 S
H1301 C1245 0.929 . S
H1302 C1246 0.930 . S
H1303 C1247 0.930 . S
H1304 C1250 0.930 . S
H1305 C1253 0.929 . S
H1306 C1258 0.929 . S
H1307 C1259 0.930 . S
H1308 C1266 0.929 . S
H1309 C1267 0.930 . S
H1310 C1268 0.930 . S
H1311 C1269 0.930 . S
H1312 C1271 0.929 . S
H1313 C1272 0.930 . S
H1314 C1273 0.930 . S
H1315 C1274 0.930 . S
H1316 C1278 0.929 . S
H1317 C1280 0.930 . S
H1318 C1286 0.929 . S
H1319 C1287 0.930 . S
Li1320 N1337 1.990 . S
Li1320 O1380 1.956 . S
Li1320 O1381 1.970 . S
Li1320 O1382 1.961 . S
Li1321 N1345 1.990 . S
Li1321 O1380 1.970 . S
Li1321 O1381 1.956 . S
Li1321 O1383 1.961 . S
Li1322 N1367 1.990 1_655 S
Li1322 O1380 1.961 . S
Li1322 O1382 1.956 . S
Li1322 O1383 1.970 . S
Li1323 N1373 1.990 . S
Li1323 O1381 1.961 . S
Li1323 O1382 1.970 . S
Li1323 O1383 1.956 . S
C1324 C1326 1.348 . S
C1324 C1327 1.356 . S
C1324 O1380 1.325 . S
N1325 C1328 1.314 1_455 S
N1325 C1329 1.279 . S
C1326 C1324 1.348 . S
C1326 C1328 1.353 . S
C1326 H1384 0.929 . S
C1327 C1324 1.356 . S
C1327 C1329 1.358 1_655 S
C1327 H1385 0.930 . S
C1328 N1325 1.314 1_655 S
C1328 C1326 1.353 . S
C1328 H1386 0.931 . S
C1329 N1325 1.279 . S
C1329 C1327 1.358 1_455 S
C1329 H1387 0.930 . S
C1330 C1333 1.348 . S
C1330 C1334 1.356 . S
C1330 O1381 1.325 . S
C1331 N1332 1.279 . S
C1331 C1334 1.358 . S
C1331 H1388 0.930 . S
N1332 C1331 1.279 . S
N1332 C1335 1.314 . S
C1333 C1330 1.348 . S
C1333 C1335 1.353 . S
C1333 H1389 0.929 . S
C1334 C1330 1.356 . S
C1334 C1331 1.358 . S
C1334 H1390 0.930 . S
C1335 N1332 1.314 . S
C1335 C1333 1.353 . S
C1335 H1391 0.930 . S
C1336 N1337 1.314 . S
C1336 C1341 1.353 . S
C1336 H1342 0.930 . S
N1337 Li1320 1.990 . S
N1337 C1336 1.314 . S
N1337 C1339 1.279 . S
C1338 C1339 1.358 . S
C1338 C1340 1.356 . S
C1338 H1392 0.930 . S
C1339 N1337 1.279 . S
C1339 C1338 1.358 . S
C1339 H1343 0.930 . S
C1340 C1338 1.356 . S
C1340 C1341 1.348 . S
C1341 C1336 1.353 . S
C1341 C1340 1.348 . S
C1341 H1393 0.929 . S
H1342 C1336 0.930 . S
H1343 C1339 0.930 . S
C1344 N1345 1.314 . S
C1344 C1346 1.353 . S
C1344 H1350 0.930 . S
N1345 Li1321 1.990 . S
N1345 C1344 1.314 . S
N1345 C1348 1.279 . S
C1346 C1344 1.353 . S
C1346 C1349 1.348 . S
C1346 H1394 0.929 1_655 S
C1347 C1348 1.358 . S
C1347 C1349 1.356 . S
C1347 H1395 0.930 . S
C1348 N1345 1.279 . S
C1348 C1347 1.358 . S
C1348 H1351 0.930 . S
C1349 C1346 1.348 . S
C1349 C1347 1.356 . S
H1350 C1344 0.930 . S
H1351 C1348 0.930 . S
C1352 C1354 1.348 . S
C1352 C1355 1.356 . S
C1352 O1382 1.325 . S
N1353 C1356 1.314 . S
N1353 C1357 1.279 . S
C1354 C1352 1.348 . S
C1354 C1356 1.353 . S
C1354 H1396 0.929 . S
C1355 C1352 1.356 . S
C1355 C1357 1.358 . S
C1355 H1397 0.930 . S
C1356 N1353 1.314 . S
C1356 C1354 1.353 . S
C1356 H1398 0.930 . S
C1357 N1353 1.279 . S
C1357 C1355 1.358 . S
C1357 H1399 0.930 . S
C1358 C1359 1.348 . S
C1358 C1360 1.356 . S
C1358 O1383 1.325 . S
C1359 C1358 1.348 . S
C1359 C1361 1.353 1_655 S
C1359 H1400 0.929 . S
C1360 C1358 1.356 . S
C1360 C1362 1.358 . S
C1360 H1401 0.930 . S
C1361 C1359 1.353 1_455 S
C1361 N1363 1.314 1_455 S
C1361 H1402 0.930 . S
C1362 C1360 1.358 . S
C1362 N1363 1.279 . S
C1362 H1403 0.930 . S
N1363 C1361 1.314 1_655 S
N1363 C1362 1.279 . S
C1364 C1366 1.353 . S
C1364 N1367 1.314 . S
C1364 H1370 0.930 . S
C1365 N1367 1.279 . S
C1365 C1368 1.358 . S
C1365 H1371 0.930 1_455 S
C1366 C1364 1.353 . S
C1366 C1369 1.348 . S
C1366 H1404 0.929 . S
N1367 Li1322 1.990 1_455 S
N1367 C1364 1.314 . S
N1367 C1365 1.279 . S
C1368 C1365 1.358 . S
C1368 C1369 1.356 . S
C1368 H1405 0.930 . S
C1369 C1366 1.348 . S
C1369 C1368 1.356 . S
H1370 C1364 0.930 . S
H1371 C1365 0.930 1_655 S
C1372 N1373 1.314 . S
C1372 C1374 1.353 . S
C1372 H1378 0.930 . S
N1373 Li1323 1.990 . S
N1373 C1372 1.314 . S
N1373 C1376 1.279 . S
C1374 C1372 1.353 . S
C1374 C1377 1.348 . S
C1374 H1406 0.929 . S
C1375 C1376 1.358 . S
C1375 C1377 1.356 . S
C1375 H1407 0.930 . S
C1376 N1373 1.279 . S
C1376 C1375 1.358 . S
C1376 H1379 0.930 . S
C1377 C1374 1.348 . S
C1377 C1375 1.356 . S
H1378 C1372 0.930 . S
H1379 C1376 0.930 . S
O1380 Li1320 1.956 . S
O1380 Li1321 1.970 . S
O1380 Li1322 1.961 . S
O1380 C1324 1.325 . S
O1381 Li1320 1.970 . S
O1381 Li1321 1.956 . S
O1381 Li1323 1.961 . S
O1381 C1330 1.325 . S
O1382 Li1320 1.961 . S
O1382 Li1322 1.956 . S
O1382 Li1323 1.970 . S
O1382 C1352 1.325 . S
O1383 Li1321 1.961 . S
O1383 Li1322 1.970 . S
O1383 Li1323 1.956 . S
O1383 C1358 1.325 . S
H1384 C1326 0.929 . S
H1385 C1327 0.930 . S
H1386 C1328 0.931 . S
H1387 C1329 0.930 . S
H1388 C1331 0.930 . S
H1389 C1333 0.929 . S
H1390 C1334 0.930 . S
H1391 C1335 0.930 . S
H1392 C1338 0.930 . S
H1393 C1341 0.929 . S
H1394 C1346 0.929 1_455 S
H1395 C1347 0.930 . S
H1396 C1354 0.929 . S
H1397 C1355 0.930 . S
H1398 C1356 0.930 . S
H1399 C1357 0.930 . S
H1400 C1359 0.929 . S
H1401 C1360 0.930 . S
H1402 C1361 0.930 . S
H1403 C1362 0.930 . S
H1404 C1366 0.929 . S
H1405 C1368 0.930 . S
H1406 C1374 0.929 . S
H1407 C1375 0.930 . S
C1408 C1409 1.369 . S
C1408 C1410 1.419 . S
C1408 H1412 0.930 . S
C1409 C1408 1.369 . S
C1409 C1418 1.429 . S
C1410 C1408 1.419 . S
C1410 C1411 1.363 . S
C1410 H1413 0.929 . S
C1411 C1410 1.363 . S
C1411 C1417 1.428 . S
H1412 C1408 0.930 . S
H1413 C1410 0.929 . S
S1414 N1415 1.613 . S
S1414 N1416 1.610 . S
N1415 S1414 1.613 . S
N1415 C1418 1.350 . S
N1416 S1414 1.610 . S
N1416 C1417 1.351 . S
C1417 C1411 1.428 . S
C1417 N1416 1.351 . S
C1417 C1418 1.434 . S
C1418 C1409 1.429 . S
C1418 N1415 1.350 . S
C1418 C1417 1.434 . S
C1419 C1420 1.369 . S
C1419 C1421 1.419 . S
C1419 H1423 0.930 . S
C1420 C1419 1.369 . S
C1420 C1429 1.429 . S
C1421 C1419 1.419 . S
C1421 C1422 1.363 . S
C1421 H1424 0.929 . S
C1422 C1421 1.363 . S
C1422 C1428 1.428 . S
H1423 C1419 0.930 . S
H1424 C1421 0.929 . S
S1425 N1426 1.613 . S
S1425 N1427 1.610 . S
N1426 S1425 1.613 . S
N1426 C1429 1.350 . S
N1427 S1425 1.610 . S
N1427 C1428 1.351 . S
C1428 C1422 1.428 . S
C1428 N1427 1.351 . S
C1428 C1429 1.434 . S
C1429 C1420 1.429 . S
C1429 N1426 1.350 . S
C1429 C1428 1.434 . S
C1430 C1431 1.369 . S
C1430 C1432 1.419 . S
C1430 H1434 0.930 . S
C1431 C1430 1.369 . S
C1431 C1440 1.429 . S
C1432 C1430 1.419 . S
C1432 C1433 1.363 . S
C1432 H1435 0.929 . S
C1433 C1432 1.363 . S
C1433 C1439 1.428 . S
H1434 C1430 0.930 . S
H1435 C1432 0.929 . S
S1436 N1437 1.613 . S
S1436 N1438 1.610 . S
N1437 S1436 1.613 . S
N1437 C1440 1.350 . S
N1438 S1436 1.610 . S
N1438 C1439 1.351 . S
C1439 C1433 1.428 . S
C1439 N1438 1.351 . S
C1439 C1440 1.434 . S
C1440 C1431 1.429 . S
C1440 N1437 1.350 . S
C1440 C1439 1.434 . S
C1441 C1442 1.369 . S
C1441 C1443 1.419 . S
C1441 H1445 0.930 . S
C1442 C1441 1.369 . S
C1442 C1451 1.429 . S
C1443 C1441 1.419 . S
C1443 C1444 1.363 . S
C1443 H1446 0.929 . S
C1444 C1443 1.363 . S
C1444 C1450 1.428 . S
H1445 C1441 0.930 . S
H1446 C1443 0.929 . S
S1447 N1448 1.613 . S
S1447 N1449 1.610 . S
N1448 S1447 1.613 . S
N1448 C1451 1.350 . S
N1449 S1447 1.610 . S
N1449 C1450 1.351 . S
C1450 C1444 1.428 . S
C1450 N1449 1.351 . S
C1450 C1451 1.434 . S
C1451 C1442 1.429 . S
C1451 N1448 1.350 . S
C1451 C1450 1.434 . S
C1452 C1453 1.369 . S
C1452 C1454 1.419 . S
C1452 H1456 0.930 . S
C1453 C1452 1.369 . S
C1453 C1462 1.429 . S
C1454 C1452 1.419 . S
C1454 C1455 1.363 . S
C1454 H1457 0.929 . S
C1455 C1454 1.363 . S
C1455 C1461 1.428 . S
H1456 C1452 0.930 . S
H1457 C1454 0.929 . S
S1458 N1459 1.613 . S
S1458 N1460 1.610 . S
N1459 S1458 1.613 . S
N1459 C1462 1.350 . S
N1460 S1458 1.610 . S
N1460 C1461 1.351 . S
C1461 C1455 1.428 . S
C1461 N1460 1.351 . S
C1461 C1462 1.434 . S
C1462 C1453 1.429 . S
C1462 N1459 1.350 . S
C1462 C1461 1.434 . S
C1463 C1464 1.369 . S
C1463 C1465 1.419 . S
C1463 H1467 0.930 . S
C1464 C1463 1.369 . S
C1464 C1473 1.429 . S
C1465 C1463 1.419 . S
C1465 C1466 1.363 . S
C1465 H1468 0.929 . S
C1466 C1465 1.363 . S
C1466 C1472 1.428 . S
H1467 C1463 0.930 . S
H1468 C1465 0.929 . S
S1469 N1470 1.613 . S
S1469 N1471 1.610 . S
N1470 S1469 1.613 . S
N1470 C1473 1.350 . S
N1471 S1469 1.610 . S
N1471 C1472 1.351 . S
C1472 C1466 1.428 . S
C1472 N1471 1.351 . S
C1472 C1473 1.434 . S
C1473 C1464 1.429 . S
C1473 N1470 1.350 . S
C1473 C1472 1.434 . S
C1474 C1475 1.369 . S
C1474 C1476 1.419 . S
C1474 H1478 0.930 . S
C1475 C1474 1.369 . S
C1475 C1484 1.429 . S
C1476 C1474 1.419 . S
C1476 C1477 1.363 . S
C1476 H1479 0.929 . S
C1477 C1476 1.363 . S
C1477 C1483 1.428 . S
H1478 C1474 0.930 . S
H1479 C1476 0.929 . S
S1480 N1481 1.613 . S
S1480 N1482 1.610 . S
N1481 S1480 1.613 . S
N1481 C1484 1.350 . S
N1482 S1480 1.610 . S
N1482 C1483 1.351 . S
C1483 C1477 1.428 . S
C1483 N1482 1.351 . S
C1483 C1484 1.434 . S
C1484 C1475 1.429 . S
C1484 N1481 1.350 . S
C1484 C1483 1.434 . S
C1485 C1486 1.369 . S
C1485 C1487 1.419 . S
C1485 H1489 0.930 . S
C1486 C1485 1.369 . S
C1486 C1495 1.429 . S
C1487 C1485 1.419 . S
C1487 C1488 1.363 . S
C1487 H1490 0.929 . S
C1488 C1487 1.363 . S
C1488 C1494 1.428 . S
H1489 C1485 0.930 . S
H1490 C1487 0.929 . S
S1491 N1492 1.613 . S
S1491 N1493 1.610 . S
N1492 S1491 1.613 . S
N1492 C1495 1.350 . S
N1493 S1491 1.610 . S
N1493 C1494 1.351 . S
C1494 C1488 1.428 . S
C1494 N1493 1.351 . S
C1494 C1495 1.434 . S
C1495 C1486 1.429 . S
C1495 N1492 1.350 . S
C1495 C1494 1.434 . S
C1496 C1497 1.369 . S
C1496 C1498 1.419 . S
C1496 H1500 0.930 . S
C1497 C1496 1.369 . S
C1497 C1506 1.429 . S
C1498 C1496 1.419 . S
C1498 C1499 1.363 . S
C1498 H1501 0.929 . S
C1499 C1498 1.363 . S
C1499 C1505 1.428 . S
H1500 C1496 0.930 . S
H1501 C1498 0.929 . S
S1502 N1503 1.613 . S
S1502 N1504 1.610 . S
N1503 S1502 1.613 . S
N1503 C1506 1.350 . S
N1504 S1502 1.610 . S
N1504 C1505 1.351 . S
C1505 C1499 1.428 . S
C1505 N1504 1.351 . S
C1505 C1506 1.434 . S
C1506 C1497 1.429 . S
C1506 N1503 1.350 . S
C1506 C1505 1.434 . S
C1507 C1508 1.369 . S
C1507 C1509 1.419 . S
C1507 H1511 0.930 . S
C1508 C1507 1.369 . S
C1508 C1517 1.429 . S
C1509 C1507 1.419 . S
C1509 C1510 1.363 . S
C1509 H1512 0.929 . S
C1510 C1509 1.363 . S
C1510 C1516 1.428 . S
H1511 C1507 0.930 . S
H1512 C1509 0.929 . S
S1513 N1514 1.613 . S
S1513 N1515 1.610 . S
N1514 S1513 1.613 . S
N1514 C1517 1.350 . S
N1515 S1513 1.610 . S
N1515 C1516 1.351 . S
C1516 C1510 1.428 . S
C1516 N1515 1.351 . S
C1516 C1517 1.434 . S
C1517 C1508 1.429 . S
C1517 N1514 1.350 . S
C1517 C1516 1.434 . S
C1518 C1519 1.369 . S
C1518 C1520 1.419 . S
C1518 H1522 0.930 . S
C1519 C1518 1.369 . S
C1519 C1528 1.429 . S
C1520 C1518 1.419 . S
C1520 C1521 1.363 . S
C1520 H1523 0.929 . S
C1521 C1520 1.363 . S
C1521 C1527 1.428 . S
H1522 C1518 0.930 . S
H1523 C1520 0.929 . S
S1524 N1525 1.613 . S
S1524 N1526 1.610 . S
N1525 S1524 1.613 . S
N1525 C1528 1.350 . S
N1526 S1524 1.610 . S
N1526 C1527 1.351 . S
C1527 C1521 1.428 . S
C1527 N1526 1.351 . S
C1527 C1528 1.434 . S
C1528 C1519 1.429 . S
C1528 N1525 1.350 . S
C1528 C1527 1.434 . S
C1529 C1530 1.369 . S
C1529 C1531 1.419 . S
C1529 H1533 0.930 . S
C1530 C1529 1.369 . S
C1530 C1539 1.429 . S
C1531 C1529 1.419 . S
C1531 C1532 1.363 . S
C1531 H1534 0.929 . S
C1532 C1531 1.363 . S
C1532 C1538 1.428 . S
H1533 C1529 0.930 . S
H1534 C1531 0.929 . S
S1535 N1536 1.613 . S
S1535 N1537 1.610 . S
N1536 S1535 1.613 . S
N1536 C1539 1.350 . S
N1537 S1535 1.610 . S
N1537 C1538 1.351 . S
C1538 C1532 1.428 . S
C1538 N1537 1.351 . S
C1538 C1539 1.434 . S
C1539 C1530 1.429 . S
C1539 N1536 1.350 . S
C1539 C1538 1.434 . S
C1540 C1541 1.369 . S
C1540 C1542 1.419 . S
C1540 H1544 0.930 . S
C1541 C1540 1.369 . S
C1541 C1550 1.429 . S
C1542 C1540 1.419 . S
C1542 C1543 1.363 . S
C1542 H1545 0.929 . S
C1543 C1542 1.363 . S
C1543 C1549 1.428 . S
H1544 C1540 0.930 . S
H1545 C1542 0.929 . S
S1546 N1547 1.613 . S
S1546 N1548 1.610 . S
N1547 S1546 1.613 . S
N1547 C1550 1.350 . S
N1548 S1546 1.610 . S
N1548 C1549 1.351 . S
C1549 C1543 1.428 . S
C1549 N1548 1.351 . S
C1549 C1550 1.434 . S
C1550 C1541 1.429 . S
C1550 N1547 1.350 . S
C1550 C1549 1.434 . S
C1551 C1552 1.369 . S
C1551 C1553 1.419 . S
C1551 H1555 0.930 . S
C1552 C1551 1.369 . S
C1552 C1561 1.429 . S
C1553 C1551 1.419 . S
C1553 C1554 1.363 . S
C1553 H1556 0.929 . S
C1554 C1553 1.363 . S
C1554 C1560 1.428 . S
H1555 C1551 0.930 . S
H1556 C1553 0.929 . S
S1557 N1558 1.613 . S
S1557 N1559 1.610 . S
N1558 S1557 1.613 . S
N1558 C1561 1.350 . S
N1559 S1557 1.610 . S
N1559 C1560 1.351 . S
C1560 C1554 1.428 . S
C1560 N1559 1.351 . S
C1560 C1561 1.434 . S
C1561 C1552 1.429 . S
C1561 N1558 1.350 . S
C1561 C1560 1.434 . S
C1562 C1563 1.369 . S
C1562 C1564 1.419 . S
C1562 H1566 0.930 . S
C1563 C1562 1.369 . S
C1563 C1572 1.429 . S
C1564 C1562 1.419 . S
C1564 C1565 1.363 . S
C1564 H1567 0.929 . S
C1565 C1564 1.363 . S
C1565 C1571 1.428 . S
H1566 C1562 0.930 . S
H1567 C1564 0.929 . S
S1568 N1569 1.613 . S
S1568 N1570 1.610 . S
N1569 S1568 1.613 . S
N1569 C1572 1.350 . S
N1570 S1568 1.610 . S
N1570 C1571 1.351 . S
C1571 C1565 1.428 . S
C1571 N1570 1.351 . S
C1571 C1572 1.434 . S
C1572 C1563 1.429 . S
C1572 N1569 1.350 . S
C1572 C1571 1.434 . S
C1573 C1574 1.369 . S
C1573 C1575 1.419 . S
C1573 H1577 0.930 . S
C1574 C1573 1.369 . S
C1574 C1583 1.429 . S
C1575 C1573 1.419 . S
C1575 C1576 1.363 . S
C1575 H1578 0.929 . S
C1576 C1575 1.363 . S
C1576 C1582 1.428 . S
H1577 C1573 0.930 . S
H1578 C1575 0.929 . S
S1579 N1580 1.613 . S
S1579 N1581 1.610 . S
N1580 S1579 1.613 . S
N1580 C1583 1.350 . S
N1581 S1579 1.610 . S
N1581 C1582 1.351 . S
C1582 C1576 1.428 . S
C1582 N1581 1.351 . S
C1582 C1583 1.434 . S
C1583 C1574 1.429 . S
C1583 N1580 1.350 . S
C1583 C1582 1.434 . S
C1584 C1585 1.369 . S
C1584 C1586 1.419 . S
C1584 H1588 0.930 . S
C1585 C1584 1.369 . S
C1585 C1594 1.429 . S
C1586 C1584 1.419 . S
C1586 C1587 1.363 . S
C1586 H1589 0.929 . S
C1587 C1586 1.363 . S
C1587 C1593 1.428 . S
H1588 C1584 0.930 . S
H1589 C1586 0.929 . S
S1590 N1591 1.613 . S
S1590 N1592 1.610 . S
N1591 S1590 1.613 . S
N1591 C1594 1.350 . S
N1592 S1590 1.610 . S
N1592 C1593 1.351 . S
C1593 C1587 1.428 . S
C1593 N1592 1.351 . S
C1593 C1594 1.434 . S
C1594 C1585 1.429 . S
C1594 N1591 1.350 . S
C1594 C1593 1.434 . S
C1595 C1596 1.369 . S
C1595 C1597 1.419 . S
C1595 H1599 0.930 . S
C1596 C1595 1.369 . S
C1596 C1605 1.429 . S
C1597 C1595 1.419 . S
C1597 C1598 1.363 . S
C1597 H1600 0.929 . S
C1598 C1597 1.363 . S
C1598 C1604 1.428 . S
H1599 C1595 0.930 . S
H1600 C1597 0.929 . S
S1601 N1602 1.613 . S
S1601 N1603 1.610 . S
N1602 S1601 1.613 . S
N1602 C1605 1.350 . S
N1603 S1601 1.610 . S
N1603 C1604 1.351 . S
C1604 C1598 1.428 . S
C1604 N1603 1.351 . S
C1604 C1605 1.434 . S
C1605 C1596 1.429 . S
C1605 N1602 1.350 . S
C1605 C1604 1.434 . S
C1606 C1607 1.369 . S
C1606 C1608 1.419 . S
C1606 H1610 0.930 . S
C1607 C1606 1.369 . S
C1607 C1616 1.429 . S
C1608 C1606 1.419 . S
C1608 C1609 1.363 . S
C1608 H1611 0.929 . S
C1609 C1608 1.363 . S
C1609 C1615 1.428 . S
H1610 C1606 0.930 . S
H1611 C1608 0.929 . S
S1612 N1613 1.613 . S
S1612 N1614 1.610 . S
N1613 S1612 1.613 . S
N1613 C1616 1.350 . S
N1614 S1612 1.610 . S
N1614 C1615 1.351 . S
C1615 C1609 1.428 . S
C1615 N1614 1.351 . S
C1615 C1616 1.434 . S
C1616 C1607 1.429 . S
C1616 N1613 1.350 . S
C1616 C1615 1.434 . S
C1617 C1618 1.369 . S
C1617 C1619 1.419 . S
C1617 H1621 0.930 . S
C1618 C1617 1.369 . S
C1618 C1627 1.429 . S
C1619 C1617 1.419 . S
C1619 C1620 1.363 . S
C1619 H1622 0.929 . S
C1620 C1619 1.363 . S
C1620 C1626 1.428 . S
H1621 C1617 0.930 . S
H1622 C1619 0.929 . S
S1623 N1624 1.613 . S
S1623 N1625 1.610 . S
N1624 S1623 1.613 . S
N1624 C1627 1.350 . S
N1625 S1623 1.610 . S
N1625 C1626 1.351 . S
C1626 C1620 1.428 . S
C1626 N1625 1.351 . S
C1626 C1627 1.434 . S
C1627 C1618 1.429 . S
C1627 N1624 1.350 . S
C1627 C1626 1.434 . S
C1628 C1629 1.369 . S
C1628 C1630 1.419 . S
C1628 H1632 0.930 . S
C1629 C1628 1.369 . S
C1629 C1638 1.429 . S
C1630 C1628 1.419 . S
C1630 C1631 1.363 . S
C1630 H1633 0.929 . S
C1631 C1630 1.363 . S
C1631 C1637 1.428 . S
H1632 C1628 0.930 . S
H1633 C1630 0.929 . S
S1634 N1635 1.613 . S
S1634 N1636 1.610 . S
N1635 S1634 1.613 . S
N1635 C1638 1.350 . S
N1636 S1634 1.610 . S
N1636 C1637 1.351 . S
C1637 C1631 1.428 . S
C1637 N1636 1.351 . S
C1637 C1638 1.434 . S
C1638 C1629 1.429 . S
C1638 N1635 1.350 . S
C1638 C1637 1.434 . S
C1639 C1640 1.369 . S
C1639 C1641 1.419 . S
C1639 H1643 0.930 . S
C1640 C1639 1.369 . S
C1640 C1649 1.429 . S
C1641 C1639 1.419 . S
C1641 C1642 1.363 . S
C1641 H1644 0.929 . S
C1642 C1641 1.363 . S
C1642 C1648 1.428 . S
H1643 C1639 0.930 . S
H1644 C1641 0.929 . S
S1645 N1646 1.613 . S
S1645 N1647 1.610 . S
N1646 S1645 1.613 . S
N1646 C1649 1.350 . S
N1647 S1645 1.610 . S
N1647 C1648 1.351 . S
C1648 C1642 1.428 . S
C1648 N1647 1.351 . S
C1648 C1649 1.434 . S
C1649 C1640 1.429 . S
C1649 N1646 1.350 . S
C1649 C1648 1.434 . S
C1650 C1651 1.369 . S
C1650 C1652 1.419 . S
C1650 H1654 0.930 . S
C1651 C1650 1.369 . S
C1651 C1660 1.429 . S
C1652 C1650 1.419 . S
C1652 C1653 1.363 . S
C1652 H1655 0.929 . S
C1653 C1652 1.363 . S
C1653 C1659 1.428 . S
H1654 C1650 0.930 . S
H1655 C1652 0.929 . S
S1656 N1657 1.613 . S
S1656 N1658 1.610 . S
N1657 S1656 1.613 . S
N1657 C1660 1.350 . S
N1658 S1656 1.610 . S
N1658 C1659 1.351 . S
C1659 C1653 1.428 . S
C1659 N1658 1.351 . S
C1659 C1660 1.434 . S
C1660 C1651 1.429 . S
C1660 N1657 1.350 . S
C1660 C1659 1.434 . S
C1661 C1662 1.369 . S
C1661 C1663 1.419 . S
C1661 H1665 0.930 . S
C1662 C1661 1.369 . S
C1662 C1671 1.429 . S
C1663 C1661 1.419 . S
C1663 C1664 1.363 . S
C1663 H1666 0.929 . S
C1664 C1663 1.363 . S
C1664 C1670 1.428 . S
H1665 C1661 0.930 . S
H1666 C1663 0.929 . S
S1667 N1668 1.613 . S
S1667 N1669 1.610 . S
N1668 S1667 1.613 . S
N1668 C1671 1.350 . S
N1669 S1667 1.610 . S
N1669 C1670 1.351 . S
C1670 C1664 1.428 . S
C1670 N1669 1.351 . S
C1670 C1671 1.434 . S
C1671 C1662 1.429 . S
C1671 N1668 1.350 . S
C1671 C1670 1.434 . S
C1672 C1673 1.369 . S
C1672 C1674 1.419 . S
C1672 H1676 0.930 . S
C1673 C1672 1.369 . S
C1673 C1682 1.429 . S
C1674 C1672 1.419 . S
C1674 C1675 1.363 . S
C1674 H1677 0.929 . S
C1675 C1674 1.363 . S
C1675 C1681 1.428 . S
H1676 C1672 0.930 . S
H1677 C1674 0.929 . S
S1678 N1679 1.613 . S
S1678 N1680 1.610 . S
N1679 S1678 1.613 . S
N1679 C1682 1.350 . S
N1680 S1678 1.610 . S
N1680 C1681 1.351 . S
C1681 C1675 1.428 . S
C1681 N1680 1.351 . S
C1681 C1682 1.434 . S
C1682 C1673 1.429 . S
C1682 N1679 1.350 . S
C1682 C1681 1.434 . S
C1683 C1684 1.369 . S
C1683 C1685 1.419 . S
C1683 H1687 0.930 . S
C1684 C1683 1.369 . S
C1684 C1693 1.429 . S
C1685 C1683 1.419 . S
C1685 C1686 1.363 . S
C1685 H1688 0.929 . S
C1686 C1685 1.363 . S
C1686 C1692 1.428 . S
H1687 C1683 0.930 . S
H1688 C1685 0.929 . S
S1689 N1690 1.613 . S
S1689 N1691 1.610 . S
N1690 S1689 1.613 . S
N1690 C1693 1.350 . S
N1691 S1689 1.610 . S
N1691 C1692 1.351 . S
C1692 C1686 1.428 . S
C1692 N1691 1.351 . S
C1692 C1693 1.434 . S
C1693 C1684 1.429 . S
C1693 N1690 1.350 . S
C1693 C1692 1.434 . S
C1694 C1695 1.369 . S
C1694 C1696 1.419 . S
C1694 H1698 0.930 . S
C1695 C1694 1.369 . S
C1695 C1704 1.429 . S
C1696 C1694 1.419 . S
C1696 C1697 1.363 . S
C1696 H1699 0.929 . S
C1697 C1696 1.363 . S
C1697 C1703 1.428 . S
H1698 C1694 0.930 . S
H1699 C1696 0.929 . S
S1700 N1701 1.613 . S
S1700 N1702 1.610 . S
N1701 S1700 1.613 . S
N1701 C1704 1.350 . S
N1702 S1700 1.610 . S
N1702 C1703 1.351 . S
C1703 C1697 1.428 . S
C1703 N1702 1.351 . S
C1703 C1704 1.434 . S
C1704 C1695 1.429 . S
C1704 N1701 1.350 . S
C1704 C1703 1.434 . S
C1705 C1706 1.369 . S
C1705 C1707 1.419 . S
C1705 H1709 0.930 . S
C1706 C1705 1.369 . S
C1706 C1715 1.429 . S
C1707 C1705 1.419 . S
C1707 C1708 1.363 . S
C1707 H1710 0.929 . S
C1708 C1707 1.363 . S
C1708 C1714 1.428 . S
H1709 C1705 0.930 . S
H1710 C1707 0.929 . S
S1711 N1712 1.613 . S
S1711 N1713 1.610 . S
N1712 S1711 1.613 . S
N1712 C1715 1.350 . S
N1713 S1711 1.610 . S
N1713 C1714 1.351 . S
C1714 C1708 1.428 . S
C1714 N1713 1.351 . S
C1714 C1715 1.434 . S
C1715 C1706 1.429 . S
C1715 N1712 1.350 . S
C1715 C1714 1.434 . S
C1716 C1717 1.369 1_565 S
C1716 C1718 1.421 . S
C1716 H1720 0.930 . S
C1717 C1716 1.369 1_545 S
C1717 C1726 1.429 1_554 S
C1718 C1716 1.421 . S
C1718 C1719 1.360 1_554 S
C1718 H1721 0.929 . S
C1719 C1718 1.360 1_556 S
C1719 C1725 1.428 1_565 S
H1720 C1716 0.930 . S
H1721 C1718 0.929 . S
S1722 N1723 1.613 . S
S1722 N1724 1.610 . S
N1723 S1722 1.613 . S
N1723 C1726 1.350 . S
N1724 S1722 1.610 . S
N1724 C1725 1.351 . S
C1725 C1719 1.428 1_545 S
C1725 N1724 1.351 . S
C1725 C1726 1.434 . S
C1726 C1717 1.429 1_556 S
C1726 N1723 1.350 . S
C1726 C1725 1.434 . S
C1727 C1728 1.369 1_655 S
C1727 C1729 1.419 1_556 S
C1727 H1731 0.930 . S
C1728 C1727 1.369 1_455 S
C1728 C1737 1.429 . S
C1729 C1727 1.419 1_554 S
C1729 C1730 1.363 . S
C1729 H1732 0.929 . S
C1730 C1729 1.363 . S
C1730 C1736 1.428 1_655 S
H1731 C1727 0.930 . S
H1732 C1729 0.929 . S
S1733 N1734 1.616 1_554 S
S1733 N1735 1.610 . S
N1734 S1733 1.616 1_556 S
N1734 C1737 1.350 . S
N1735 S1733 1.610 . S
N1735 C1736 1.351 . S
C1736 C1730 1.428 1_455 S
C1736 N1735 1.351 . S
C1736 C1737 1.434 1_554 S
C1737 C1728 1.429 . S
C1737 N1734 1.350 . S
C1737 C1736 1.434 1_556 S
C1738 C1739 1.369 1_565 S
C1738 C1740 1.417 . S
C1738 H1742 0.930 . S
C1739 C1738 1.369 1_545 S
C1739 C1748 1.429 1_556 S
C1740 C1738 1.417 . S
C1740 C1741 1.365 1_556 S
C1740 H1743 0.929 . S
C1741 C1740 1.365 1_554 S
C1741 C1747 1.428 1_565 S
H1742 C1738 0.930 . S
H1743 C1740 0.929 . S
S1744 N1745 1.613 . S
S1744 N1746 1.610 . S
N1745 S1744 1.613 . S
N1745 C1748 1.350 . S
N1746 S1744 1.610 . S
N1746 C1747 1.351 . S
C1747 C1741 1.428 1_545 S
C1747 N1746 1.351 . S
C1747 C1748 1.434 . S
C1748 C1739 1.429 1_554 S
C1748 N1745 1.350 . S
C1748 C1747 1.434 . S
C1749 C1750 1.369 . S
C1749 C1751 1.419 1_556 S
C1749 H1753 0.930 . S
C1750 C1749 1.369 . S
C1750 C1759 1.429 1_655 S
C1751 C1749 1.419 1_554 S
C1751 C1752 1.363 1_655 S
C1751 H1754 0.929 . S
C1752 C1751 1.363 1_455 S
C1752 C1758 1.428 . S
H1753 C1749 0.930 . S
H1754 C1751 0.929 . S
S1755 N1756 1.613 . S
S1755 N1757 1.610 1_556 S
N1756 S1755 1.613 . S
N1756 C1759 1.350 . S
N1757 S1755 1.610 1_554 S
N1757 C1758 1.351 . S
C1758 C1752 1.428 . S
C1758 N1757 1.351 . S
C1758 C1759 1.434 1_554 S
C1759 C1750 1.429 1_455 S
C1759 N1756 1.350 . S
C1759 C1758 1.434 1_556 S
C1409 C49 1.114 . S
C1411 C636 1.113 . S
C1420 C145 1.119 . S
C1422 C381 1.119 . S
C1431 C469 1.113 . S
C1433 C196 1.114 . S
C1442 C321 1.117 . S
C1444 C577 1.117 . S
C1453 C753 1.116 . S
C1455 C1340 1.116 . S
C1464 C1085 1.113 . S
C1466 C849 1.114 . S
C1475 C1173 1.115 . S
C1477 C900 1.115 . S
C1486 C1289 1.117 . S
C1488 C1017 1.115 . S
C1497 C20 1.335 . S
C1499 C997 1.466 . S
C1508 C117 1.347 . S
C1510 C761 1.469 . S
C1519 C812 1.466 . S
C1521 C225 1.335 . S
C1530 C293 1.352 . S
C1532 C909 1.468 . S
C1541 C409 1.346 . S
C1543 C1193 1.462 . S
C1552 C1281 1.469 . S
C1554 C497 1.347 . S
C1563 C548 1.346 . S
C1565 C1377 1.462 . S
C1574 C1076 1.467 . S
C1576 C665 1.349 . S
C1585 C724 1.332 . S
C1587 C284 1.467 . S
C1596 C57 1.471 . S
C1598 C821 1.343 . S
C1607 C929 1.345 . S
C1609 C108 1.464 . S
C1618 C205 1.472 . S
C1620 C988 1.339 . S
C1629 C1113 1.346 . S
C1631 C489 1.463 . S
C1640 C585 1.473 . S
C1642 C1201 1.339 . S
C1651 C673 1.463 . S
C1653 C1261 1.341 . S
C1662 C372 1.473 . S
C1664 C1369 1.339 . S
C1673 C401 1.686 . S
C1675 C29 1.687 . S
C1684 C460 1.680 . S
C1686 C137 1.684 . S
C1695 C233 1.685 . S
C1697 C557 1.687 . S
C1706 C645 1.685 . S
C1708 C313 1.681 . S
C1717 C1105 1.689 . S
C1719 C733 1.684 . S
C1728 C1164 1.685 . S
C1730 C841 1.681 . S
C1739 C937 1.689 . S
C1741 C1252 1.684 . S
C1750 C1349 1.682 . S
C1752 C1025 1.683 . S
