# Generated by pormake.
# Topology wka, (5)-cn, num edge types: 1
# Building blocks:
#     Node 0, Type 0, BuildingBlock: BEQFEK_clean_sbu_0, # of connection points: 5
#     Node 1, Type 0, BuildingBlock: BEQFEK_clean_sbu_0, # of connection points: 5
#     Node 2, Type 0, BuildingBlock: BEQFEK_clean_sbu_0, # of connection points: 5
#     Node 3, Type 0, BuildingBlock: BEQFEK_clean_sbu_0, # of connection points: 5
#     Node 4, Type 0, BuildingBlock: BEQFEK_clean_sbu_0, # of connection points: 5
#     Node 5, Type 0, BuildingBlock: BEQFEK_clean_sbu_0, # of connection points: 5
#     Node 6, Type 0, BuildingBlock: BEQFEK_clean_sbu_0, # of connection points: 5
#     Node 7, Type 0, BuildingBlock: BEQFEK_clean_sbu_0, # of connection points: 5
#     Node 8, Type 0, BuildingBlock: BEQFEK_clean_sbu_0, # of connection points: 5
#     Node 9, Type 0, BuildingBlock: BEQFEK_clean_sbu_0, # of connection points: 5
#     Node 10, Type 0, BuildingBlock: BEQFEK_clean_sbu_0, # of connection points: 5
#     Node 11, Type 0, BuildingBlock: BEQFEK_clean_sbu_0, # of connection points: 5
#     Edge 12, Type (0, 0), BuildingBlock: EZIPEK_clean_linker_0, # of connection points: 2
#     Edge 13, Type (0, 0), BuildingBlock: EZIPEK_clean_linker_0, # of connection points: 2
#     Edge 14, Type (0, 0), BuildingBlock: EZIPEK_clean_linker_0, # of connection points: 2
#     Edge 15, Type (0, 0), BuildingBlock: EZIPEK_clean_linker_0, # of connection points: 2
#     Edge 16, Type (0, 0), BuildingBlock: EZIPEK_clean_linker_0, # of connection points: 2
#     Edge 17, Type (0, 0), BuildingBlock: EZIPEK_clean_linker_0, # of connection points: 2
#     Edge 18, Type (0, 0), BuildingBlock: EZIPEK_clean_linker_0, # of connection points: 2
#     Edge 19, Type (0, 0), BuildingBlock: EZIPEK_clean_linker_0, # of connection points: 2
#     Edge 20, Type (0, 0), BuildingBlock: EZIPEK_clean_linker_0, # of connection points: 2
#     Edge 21, Type (0, 0), BuildingBlock: EZIPEK_clean_linker_0, # of connection points: 2
#     Edge 22, Type (0, 0), BuildingBlock: EZIPEK_clean_linker_0, # of connection points: 2
#     Edge 23, Type (0, 0), BuildingBlock: EZIPEK_clean_linker_0, # of connection points: 2
#     Edge 24, Type (0, 0), BuildingBlock: EZIPEK_clean_linker_0, # of connection points: 2
#     Edge 25, Type (0, 0), BuildingBlock: EZIPEK_clean_linker_0, # of connection points: 2
#     Edge 26, Type (0, 0), BuildingBlock: EZIPEK_clean_linker_0, # of connection points: 2
#     Edge 27, Type (0, 0), BuildingBlock: EZIPEK_clean_linker_0, # of connection points: 2
#     Edge 28, Type (0, 0), BuildingBlock: EZIPEK_clean_linker_0, # of connection points: 2
#     Edge 29, Type (0, 0), BuildingBlock: EZIPEK_clean_linker_0, # of connection points: 2
#     Edge 30, Type (0, 0), BuildingBlock: EZIPEK_clean_linker_0, # of connection points: 2
#     Edge 31, Type (0, 0), BuildingBlock: EZIPEK_clean_linker_0, # of connection points: 2
#     Edge 32, Type (0, 0), BuildingBlock: EZIPEK_clean_linker_0, # of connection points: 2
#     Edge 33, Type (0, 0), BuildingBlock: EZIPEK_clean_linker_0, # of connection points: 2
#     Edge 34, Type (0, 0), BuildingBlock: EZIPEK_clean_linker_0, # of connection points: 2
#     Edge 35, Type (0, 0), BuildingBlock: EZIPEK_clean_linker_0, # of connection points: 2
#     Edge 36, Type (0, 0), BuildingBlock: EZIPEK_clean_linker_0, # of connection points: 2
#     Edge 37, Type (0, 0), BuildingBlock: EZIPEK_clean_linker_0, # of connection points: 2
#     Edge 38, Type (0, 0), BuildingBlock: EZIPEK_clean_linker_0, # of connection points: 2
#     Edge 39, Type (0, 0), BuildingBlock: EZIPEK_clean_linker_0, # of connection points: 2
#     Edge 40, Type (0, 0), BuildingBlock: EZIPEK_clean_linker_0, # of connection points: 2
#     Edge 41, Type (0, 0), BuildingBlock: EZIPEK_clean_linker_0, # of connection points: 2
# Relax obj value: 0.439
# Max RMSD: 0.252
# Mean RMSD: 0.252
data_MOF--net-wka--node1-BEQFEK_clean_sbu_0--edge1-EZIPEK_clean_linker_0
_symmetry_space_group_name_H-M    P1
_symmetry_Int_Tables_number       1
_symmetry_cell_setting            triclinic
loop_
_symmetry_equiv_pos_as_xyz
'x, y, z'
_cell_length_a     49.827904
_cell_length_b     49.87447
_cell_length_c     14.108123
_cell_angle_alpha  89.892971
_cell_angle_beta   89.990686
_cell_angle_gamma 119.90324
loop_
_atom_site_label
_atom_site_type_symbol
_atom_site_fract_x
_atom_site_fract_y
_atom_site_fract_z
_atom_type_partial_charge
Co0 Co 0.11715 0.44381 0.96147 0.0
Co1 Co 0.08924 0.43804 0.16295 0.0
C2 C 0.04849 0.40375 0.00154 0.0
O3 O 0.07227 0.41699 0.94941 0.0
O4 O 0.05062 0.40778 0.09095 0.0
C5 C 0.11909 0.41029 0.80906 0.0
O6 O 0.11073 0.38902 0.87518 0.0
C7 C 0.07793 0.40822 0.34685 0.0
C8 C 0.08797 0.44694 0.44323 0.0
C9 C 0.08328 0.41712 0.44114 0.0
N10 N 0.08077 0.43225 0.2953 0.0
N11 N 0.08597 0.45504 0.35358 0.0
C12 C 0.07187 0.37816 0.30512 0.0
H13 H 0.09175 0.38195 0.2603 0.0
H14 H 0.06799 0.36097 0.36131 0.0
H15 H 0.05129 0.36905 0.25826 0.0
C16 C 0.16151 0.43147 0.07104 0.0
N17 N 0.13484 0.43218 0.06158 0.0
N18 N 0.12559 0.43524 0.14597 0.0
C19 C 0.1477 0.44032 0.20993 0.0
C20 C 0.17002 0.43591 0.16632 0.0
C21 C 0.18034 0.43064 0.98981 0.0
H22 H 0.18263 0.4477 0.9352 0.0
H23 H 0.16811 0.40738 0.95688 0.0
H24 H 0.20362 0.43558 0.01333 0.0
O25 O 0.12434 0.48695 0.98563 0.0
O26 O 0.10027 0.48023 0.12511 0.0
H27 H 0.17886 0.4727 0.31474 0.0
H28 H 0.14066 0.44719 0.3564 0.0
C29 C 0.154 0.46065 0.29494 0.0
H30 H 0.14704 0.47817 0.27976 0.0
H31 H 0.09058 0.47692 0.33155 0.0
O32 O 0.12955 0.43834 0.83335 0.0
C33 C 0.11514 0.49711 0.05449 0.0
Co34 Co 0.67106 0.12738 0.10278 0.0
Co35 Co 0.65802 0.08852 0.29329 0.0
C36 C 0.65176 0.05796 0.11142 0.0
O37 O 0.65875 0.08386 0.07358 0.0
O38 O 0.65147 0.05462 0.20191 0.0
C39 C 0.69441 0.14887 0.89983 0.0
O40 O 0.71025 0.17363 0.84708 0.0
C41 C 0.65757 0.06841 0.50447 0.0
C42 C 0.64829 0.10414 0.56243 0.0
C43 C 0.65536 0.08184 0.58978 0.0
N44 N 0.65285 0.08321 0.43094 0.0
N45 N 0.64669 0.10391 0.46781 0.0
C46 C 0.66346 0.04197 0.49322 0.0
H47 H 0.64431 0.0234 0.45172 0.0
H48 H 0.68506 0.04954 0.45225 0.0
H49 H 0.66514 0.03268 0.56319 0.0
C50 C 0.7212 0.17248 0.23044 0.0
N51 N 0.69932 0.14352 0.20612 0.0
N52 N 0.69723 0.12437 0.27337 0.0
C53 C 0.71965 0.13991 0.33768 0.0
C54 C 0.73502 0.17129 0.31564 0.0
C55 C 0.7256 0.20068 0.17908 0.0
H56 H 0.70302 0.19664 0.15139 0.0
H57 H 0.74108 0.20513 0.11737 0.0
H58 H 0.73594 0.22125 0.22595 0.0
O59 O 0.63328 0.12818 0.13679 0.0
O60 O 0.6246 0.09876 0.26408 0.0
H61 H 0.71365 0.1241 0.48127 0.0
H62 H 0.75188 0.13799 0.43531 0.0
C63 C 0.72686 0.12478 0.41759 0.0
H64 H 0.72029 0.10076 0.3981 0.0
H65 H 0.64318 0.11952 0.4279 0.0
O66 O 0.69036 0.15287 0.98698 0.0
C67 C 0.61674 0.11375 0.20813 0.0
Co68 Co 0.54923 0.67167 0.24795 0.0
Co69 Co 0.56996 0.6589 0.44152 0.0
C70 C 0.59634 0.64839 0.27768 0.0
O71 O 0.57775 0.65483 0.23632 0.0
O72 O 0.59928 0.65046 0.36743 0.0
C73 C 0.57854 0.69767 0.0877 0.0
O74 O 0.60101 0.70993 0.1502 0.0
C75 C 0.59525 0.6622 0.63577 0.0
C76 C 0.5524 0.6501 0.71541 0.0
C77 C 0.58363 0.66049 0.72657 0.0
N78 N 0.57186 0.65429 0.57406 0.0
N79 N 0.54628 0.64632 0.62254 0.0
C80 C 0.62748 0.67074 0.60755 0.0
H81 H 0.62668 0.65146 0.56613 0.0
H82 H 0.63734 0.69124 0.5602 0.0
H83 H 0.64252 0.67543 0.67056 0.0
C84 C 0.56291 0.73028 0.34415 0.0
N85 N 0.56359 0.70361 0.3385 0.0
N86 N 0.57428 0.69899 0.41846 0.0
C87 C 0.58136 0.72311 0.47651 0.0
C88 C 0.57414 0.74347 0.43234 0.0
C89 C 0.54975 0.74155 0.26917 0.0
H90 H 0.56423 0.7472 0.20437 0.0
H91 H 0.54892 0.76235 0.29278 0.0
H92 H 0.52614 0.7228 0.25051 0.0
O93 O 0.50817 0.63721 0.28398 0.0
O94 O 0.52657 0.62573 0.41181 0.0
H95 H 0.60263 0.75012 0.60228 0.0
H96 H 0.61239 0.72082 0.57366 0.0
C97 C 0.59352 0.72631 0.5747 0.0
H98 H 0.57474 0.71004 0.6223 0.0
H99 H 0.52493 0.64012 0.59181 0.0
O100 O 0.55072 0.68567 0.11657 0.0
C101 C 0.50448 0.61989 0.35488 0.0
Co102 Co 0.88166 0.54325 0.45004 0.0
Co103 Co 0.9182 0.56832 0.63066 0.0
C104 C 0.95394 0.58996 0.46917 0.0
O105 O 0.92777 0.57078 0.4344 0.0
O106 O 0.9566 0.59588 0.5577 0.0
C107 C 0.88488 0.57033 0.28774 0.0
O108 O 0.89616 0.59353 0.34774 0.0
C109 C 0.93759 0.58538 0.83416 0.0
C110 C 0.89188 0.55091 0.89318 0.0
C111 C 0.92072 0.57468 0.9175 0.0
N112 N 0.91894 0.56847 0.76301 0.0
N113 N 0.8919 0.54799 0.79929 0.0
C114 C 0.96958 0.61201 0.82154 0.0
H115 H 0.98621 0.60337 0.82528 0.0
H116 H 0.97198 0.62289 0.751 0.0
H117 H 0.97526 0.62925 0.87871 0.0
C118 C 0.83903 0.56067 0.54805 0.0
N119 N 0.86603 0.561 0.5351 0.0
N120 N 0.88491 0.57625 0.60466 0.0
C121 C 0.87112 0.58757 0.66164 0.0
C122 C 0.84114 0.57708 0.63029 0.0
C123 C 0.81088 0.54239 0.48858 0.0
H124 H 0.81762 0.5435 0.41309 0.0
H125 H 0.79436 0.55105 0.49689 0.0
H126 H 0.79932 0.51781 0.51126 0.0
O127 O 0.87324 0.50229 0.4938 0.0
O128 O 0.90791 0.52406 0.60738 0.0
H129 H 0.87516 0.59261 0.81256 0.0
H130 H 0.88048 0.62609 0.75095 0.0
C131 C 0.88549 0.60681 0.74808 0.0
H132 H 0.91093 0.61671 0.74733 0.0
H133 H 0.87256 0.53342 0.75876 0.0
O134 O 0.86819 0.54301 0.31942 0.0
C135 C 0.88971 0.50023 0.55911 0.0
Co136 Co 0.33646 0.87748 0.60484 0.0
Co137 Co 0.35275 0.91212 0.79465 0.0
C138 C 0.36023 0.94845 0.633 0.0
O139 O 0.35307 0.92314 0.59224 0.0
O140 O 0.3598 0.94983 0.72301 0.0
C141 C 0.31137 0.88106 0.44209 0.0
O142 O 0.29946 0.89279 0.50067 0.0
C143 C 0.35299 0.93411 0.99018 0.0
C144 C 0.36209 0.90037 0.06485 0.0
C145 C 0.35346 0.92244 0.07937 0.0
N146 N 0.35943 0.91817 0.92612 0.0
N147 N 0.36578 0.89883 0.97151 0.0
C148 C 0.34689 0.95972 0.96514 0.0
H149 H 0.32692 0.9511 0.91601 0.0
H150 H 0.34251 0.96974 0.02942 0.0
H151 H 0.36728 0.97801 0.92673 0.0
C152 C 0.27943 0.83287 0.71287 0.0
N153 N 0.30589 0.86014 0.70057 0.0
N154 N 0.31194 0.8766 0.77849 0.0
C155 C 0.28884 0.86065 0.8412 0.0
C156 C 0.2679 0.8323 0.8031 0.0
C157 C 0.26661 0.80702 0.64284 0.0
H158 H 0.27936 0.81453 0.57468 0.0
H159 H 0.24167 0.79883 0.63127 0.0
H160 H 0.26847 0.78732 0.67194 0.0
O161 O 0.37132 0.87073 0.63329 0.0
O162 O 0.3857 0.90211 0.75738 0.0
H163 H 0.30215 0.86758 0.98652 0.0
H164 H 0.26316 0.85897 0.9668 0.0
C165 C 0.28703 0.87153 0.93793 0.0
H166 H 0.29452 0.89637 0.93393 0.0
H167 H 0.37046 0.88294 0.93822 0.0
O168 O 0.32139 0.86399 0.47519 0.0
C169 C 0.39027 0.88514 0.69978 0.0
Co170 Co 0.45747 0.3333 0.77718 0.0
Co171 Co 0.43997 0.35026 0.97007 0.0
C172 C 0.41237 0.3591 0.80491 0.0
O173 O 0.42967 0.35095 0.76357 0.0
O174 O 0.41073 0.35874 0.89502 0.0
C175 C 0.42869 0.30821 0.61403 0.0
O176 O 0.40525 0.29622 0.67334 0.0
C177 C 0.41552 0.34902 0.16359 0.0
C178 C 0.45849 0.36194 0.24331 0.0
C179 C 0.42711 0.35088 0.25466 0.0
N180 N 0.43896 0.35705 0.1019 0.0
N181 N 0.46466 0.36571 0.15035 0.0
C182 C 0.38338 0.34058 0.13466 0.0
H183 H 0.3844 0.35949 0.09036 0.0
H184 H 0.37327 0.31954 0.08984 0.0
H185 H 0.36845 0.33686 0.19735 0.0
C186 C 0.44341 0.27568 0.88303 0.0
N187 N 0.44333 0.3026 0.873 0.0
N188 N 0.43443 0.30924 0.95319 0.0
C189 C 0.42804 0.28628 0.01585 0.0
C190 C 0.43383 0.26454 0.97456 0.0
C191 C 0.45507 0.26251 0.80941 0.0
H192 H 0.44548 0.26332 0.73916 0.0
H193 H 0.44875 0.23836 0.82706 0.0
H194 H 0.48065 0.27693 0.80505 0.0
O195 O 0.49915 0.36762 0.80767 0.0
O196 O 0.48333 0.3822 0.93469 0.0
H197 H 0.41026 0.26295 0.15031 0.0
H198 H 0.39941 0.29098 0.11664 0.0
C199 C 0.41844 0.28576 0.11611 0.0
H200 H 0.43833 0.30332 0.15729 0.0
H201 H 0.48607 0.37206 0.11967 0.0
O202 O 0.45589 0.31859 0.64656 0.0
C203 C 0.50441 0.3863 0.87566 0.0
Co204 Co 0.56086 0.89155 0.84523 0.0
Co205 Co 0.57358 0.92668 0.65018 0.0
C206 C 0.60104 0.96112 0.82824 0.0
O207 O 0.58627 0.9353 0.86938 0.0
O208 O 0.60055 0.96292 0.73805 0.0
C209 C 0.59084 0.89022 0.00635 0.0
O210 O 0.61386 0.9061 0.94758 0.0
C211 C 0.59622 0.93973 0.45209 0.0
C212 C 0.55848 0.94393 0.38514 0.0
C213 C 0.58315 0.93942 0.3648 0.0
N214 N 0.57833 0.94125 0.52092 0.0
N215 N 0.55673 0.94532 0.4801 0.0
C216 C 0.62502 0.93809 0.46947 0.0
H217 H 0.62547 0.93025 0.5427 0.0
H218 H 0.62765 0.92314 0.41653 0.0
H219 H 0.64525 0.96168 0.46108 0.0
C220 C 0.57736 0.85161 0.73434 0.0
N221 N 0.57623 0.87796 0.74406 0.0
N222 N 0.57801 0.89023 0.65983 0.0
C223 C 0.57736 0.87027 0.59378 0.0
C224 C 0.57861 0.84622 0.63839 0.0
C225 C 0.57264 0.82993 0.81412 0.0
H226 H 0.5495 0.82183 0.84617 0.0
H227 H 0.5902 0.84243 0.86984 0.0
H228 H 0.57438 0.80971 0.78956 0.0
O229 O 0.51846 0.88482 0.8161 0.0
O230 O 0.52998 0.91202 0.68203 0.0
H231 H 0.54824 0.84351 0.47795 0.0
H232 H 0.58441 0.8755 0.44341 0.0
C233 C 0.56533 0.86789 0.49538 0.0
H234 H 0.55352 0.88152 0.48966 0.0
H235 H 0.53899 0.94614 0.51692 0.0
O236 O 0.56365 0.87573 0.97125 0.0
C237 C 0.51063 0.89583 0.74626 0.0
Co238 Co 0.66952 0.54846 0.04091 0.0
Co239 Co 0.65599 0.56835 0.84823 0.0
C240 C 0.64447 0.59425 0.01226 0.0
O241 O 0.65197 0.57644 0.05379 0.0
O242 O 0.64611 0.59686 0.92228 0.0
C243 C 0.69537 0.57764 0.19978 0.0
O244 O 0.70662 0.60031 0.13759 0.0
C245 C 0.65745 0.59168 0.65271 0.0
C246 C 0.64891 0.54914 0.5777 0.0
C247 C 0.65723 0.57974 0.56365 0.0
N248 N 0.65102 0.56918 0.71653 0.0
N249 N 0.6451 0.54372 0.67083 0.0
C250 C 0.66362 0.6234 0.67756 0.0
H251 H 0.64308 0.62147 0.71464 0.0
H252 H 0.68333 0.63441 0.72773 0.0
H253 H 0.66851 0.638 0.61332 0.0
C254 C 0.72877 0.56354 0.94229 0.0
N255 N 0.70158 0.56327 0.949 0.0
N256 N 0.69662 0.57403 0.86982 0.0
C257 C 0.72079 0.58187 0.81087 0.0
C258 C 0.74175 0.57506 0.85352 0.0
C259 C 0.74088 0.55111 0.01707 0.0
H260 H 0.74289 0.56316 0.08495 0.0
H261 H 0.76378 0.55412 -0.00291 0.0
H262 H 0.7241 0.52619 0.02828 0.0
O263 O 0.63429 0.5072 0.00856 0.0
O264 O 0.62421 0.52466 0.87692 0.0
H265 H 0.70789 0.57459 0.6652 0.0
H266 H 0.74691 0.60469 0.68399 0.0
C267 C 0.72308 0.59389 0.71267 0.0
H268 H 0.71571 0.61139 0.71389 0.0
H269 H 0.64047 0.5231 0.70371 0.0
O270 O 0.68468 0.55009 0.17039 0.0
C271 C 0.61742 0.50288 0.93595 0.0
Co272 Co 0.12119 0.66353 0.21461 0.0
Co273 Co 0.0883 0.65042 0.01903 0.0
C274 C 0.05126 0.6403 0.18651 0.0
O275 O 0.0763 0.64744 0.22853 0.0
O276 O 0.05051 0.64155 0.09643 0.0
C277 C 0.11895 0.6903 0.37485 0.0
O278 O 0.1091 0.70298 0.31242 0.0
C279 C 0.0667 0.65658 0.82796 0.0
C280 C 0.09154 0.63828 0.7441 0.0
C281 C 0.0746 0.65328 0.73568 0.0
N282 N 0.07991 0.64534 0.8873 0.0
N283 N 0.09383 0.63362 0.8364 0.0
C284 C 0.0467 0.6693 0.86037 0.0
H285 H 0.03006 0.65346 0.91406 0.0
H286 H 0.06094 0.69176 0.89655 0.0
H287 H 0.03411 0.67224 0.79998 0.0
C288 C 0.16662 0.7219 0.11567 0.0
N289 N 0.13908 0.6954 0.12166 0.0
N290 N 0.12457 0.69023 0.03992 0.0
C291 C 0.14271 0.71331 0.97954 0.0
C292 C 0.1698 0.73406 0.02478 0.0
C293 C 0.19024 0.73378 0.19291 0.0
H294 H 0.1799 0.73737 0.2579 0.0
H295 H 0.2111 0.7558 0.17216 0.0
H296 H 0.1969 0.71613 0.20972 0.0
O297 O 0.12626 0.62774 0.18039 0.0
O298 O 0.09981 0.61827 0.04639 0.0
H299 H 0.1538 0.73555 0.84117 0.0
H300 H 0.11361 0.71337 0.87158 0.0
C301 C 0.13604 0.71425 0.87703 0.0
H302 H 0.13506 0.69419 0.84051 0.0
H303 H 0.10673 0.62429 0.86476 0.0
O304 O 0.13416 0.67766 0.34572 0.0
C305 C 0.11446 0.61134 0.10649 0.0
Co306 Co 0.4553 0.11828 0.38865 0.0
Co307 Co 0.43688 0.08476 0.19635 0.0
C308 C 0.40829 0.0479 0.35921 0.0
O309 O 0.42642 0.07292 0.40105 0.0
O310 O 0.40658 0.04702 0.26919 0.0
C311 C 0.42644 0.11524 0.55066 0.0
O312 O 0.40323 0.10412 0.49066 0.0
C313 C 0.41242 0.063 0.00333 0.0
C314 C 0.4555 0.09306 0.92378 0.0
C315 C 0.42407 0.0731 0.91267 0.0
N316 N 0.43591 0.07783 0.06485 0.0
N317 N 0.46165 0.09493 0.01658 0.0
C318 C 0.38016 0.03977 0.03223 0.0
H319 H 0.38096 0.02216 0.07847 0.0
H320 H 0.37002 0.0511 0.07529 0.0
H321 H 0.36538 0.0284 0.96953 0.0
C322 C 0.4427 0.16345 0.28605 0.0
N323 N 0.44186 0.13605 0.29469 0.0
N324 N 0.43232 0.12076 0.21444 0.0
C325 C 0.42623 0.13789 0.15307 0.0
C326 C 0.43293 0.16554 0.19532 0.0
C327 C 0.4551 0.18802 0.36031 0.0
H328 H 0.48035 0.19713 0.36802 0.0
H329 H 0.44408 0.17784 0.42946 0.0
H330 H 0.45094 0.20727 0.34142 0.0
O331 O 0.49675 0.12477 0.35732 0.0
O332 O 0.48008 0.09484 0.2298 0.0
H333 H 0.43557 0.13133 0.0102 0.0
H334 H 0.40798 0.14424 0.02069 0.0
C335 C 0.41602 0.12922 0.05309 0.0
H336 H 0.39673 0.10518 0.05247 0.0
H337 H 0.48309 0.10963 0.04741 0.0
O338 O 0.45385 0.13145 0.51896 0.0
C339 C 0.50148 0.11122 0.28844 0.0
Co340 Co 0.34292 0.46209 0.56347 0.0
Co341 Co 0.3523 0.43826 0.37333 0.0
C342 C 0.36549 0.4139 0.53599 0.0
O343 O 0.35946 0.43307 0.57564 0.0
O344 O 0.36224 0.40973 0.44673 0.0
C345 C 0.31636 0.4329 0.72203 0.0
O346 O 0.30448 0.41074 0.65851 0.0
C347 C 0.34847 0.41447 0.17701 0.0
C348 C 0.35519 0.45669 0.10327 0.0
C349 C 0.34787 0.42645 0.08876 0.0
N350 N 0.35485 0.43674 0.24125 0.0
N351 N 0.35943 0.46195 0.19629 0.0
C352 C 0.34265 0.38278 0.20055 0.0
H353 H 0.36398 0.38478 0.232 0.0
H354 H 0.32422 0.37202 0.25507 0.0
H355 H 0.33615 0.36794 0.13651 0.0
C356 C 0.28426 0.45017 0.46677 0.0
N357 N 0.30997 0.44771 0.4751 0.0
N358 N 0.31253 0.43369 0.39977 0.0
C359 C 0.28784 0.42575 0.3432 0.0
C360 C 0.2695 0.43642 0.38227 0.0
C361 C 0.27531 0.46746 0.53403 0.0
H362 H 0.2927 0.47817 0.59136 0.0
H363 H 0.25231 0.45132 0.56511 0.0
H364 H 0.27311 0.48561 0.49494 0.0
O365 O 0.37808 0.50256 0.52584 0.0
O366 O 0.38527 0.48215 0.3959 0.0
H367 H 0.29489 0.42695 0.19387 0.0
H368 H 0.25731 0.39741 0.23203 0.0
C369 C 0.2823 0.40969 0.25026 0.0
H370 H 0.29041 0.39275 0.25395 0.0
H371 H 0.36372 0.48234 0.22978 0.0
O372 O 0.32893 0.46086 0.69426 0.0
C373 C 0.39351 0.50512 0.45107 0.0
Co374 Co 0.87619 0.33309 0.75797 0.0
Co375 Co 0.91237 0.34169 0.57176 0.0
C376 C 0.94682 0.35341 0.73788 0.0
O377 O 0.92114 0.34792 0.7724 0.0
O378 O 0.94959 0.35068 0.64916 0.0
C379 C 0.87741 0.30532 0.91782 0.0
O380 O 0.88665 0.29238 0.85447 0.0
C381 C 0.93189 0.3358 0.37148 0.0
C382 C 0.89631 0.34295 0.30026 0.0
C383 C 0.91893 0.33535 0.28353 0.0
N384 N 0.91672 0.34281 0.43742 0.0
N385 N 0.89601 0.34745 0.39334 0.0
C386 C 0.95738 0.32913 0.39262 0.0
H387 H 0.9793 0.35142 0.40061 0.0
H388 H 0.95285 0.31642 0.46072 0.0
H389 H 0.96036 0.31598 0.33416 0.0
C390 C 0.82875 0.27977 0.6452 0.0
N391 N 0.85803 0.30166 0.66628 0.0
N392 N 0.87678 0.30217 0.60017 0.0
C393 C 0.8605 0.27852 0.54028 0.0
C394 C 0.82918 0.26422 0.56327 0.0
C395 C 0.80104 0.27723 0.69488 0.0
H396 H 0.8061 0.30037 0.72001 0.0
H397 H 0.79584 0.26215 0.75808 0.0
H398 H 0.78049 0.2672 0.64774 0.0
O399 O 0.87245 0.36852 0.71931 0.0
O400 O 0.90238 0.37644 0.59339 0.0
H401 H 0.87466 0.28127 0.3965 0.0
H402 H 0.86105 0.24411 0.44996 0.0
C403 C 0.87467 0.26942 0.46256 0.0
H404 H 0.89886 0.27617 0.48076 0.0
H405 H 0.88009 0.35166 0.42782 0.0
O406 O 0.86306 0.31901 0.88961 0.0
C407 C 0.88694 0.38452 0.64712 0.0
C408 C 0.08969 0.55577 0.05581 0.0
C409 C 0.11633 0.58278 0.08972 0.0
C410 C 0.14462 0.55406 0.09164 0.0
C411 C 0.11866 0.52834 0.05032 0.0
N412 N 0.07073 0.50863 0.96559 0.0
N413 N 0.17168 0.6095 0.11669 0.0
C414 C 0.09265 0.53061 0.023 0.0
C415 C 0.14463 0.58255 0.10118 0.0
N416 N 0.06107 0.5531 0.06086 0.0
N417 N 0.16894 0.55113 0.12319 0.0
H418 H 0.17303 0.63102 0.1192 0.0
H419 H 0.19324 0.61086 0.11713 0.0
H420 H 0.17008 0.53098 0.11339 0.0
H421 H 0.18693 0.56798 0.16361 0.0
H422 H 0.04075 0.53274 0.04423 0.0
H423 H 0.05717 0.56961 0.09308 0.0
H424 H 0.0524 0.5105 0.93725 0.0
H425 H 0.07317 0.49061 0.93758 0.0
C426 C 0.55854 0.14148 0.24943 0.0
C427 C 0.53204 0.11326 0.27624 0.0
C428 C 0.56002 0.08545 0.24579 0.0
C429 C 0.5875 0.11391 0.22784 0.0
N430 N 0.6144 0.16981 0.23337 0.0
N431 N 0.51061 0.06036 0.32614 0.0
C432 C 0.58724 0.14224 0.23527 0.0
C433 C 0.53371 0.08581 0.28216 0.0
N434 N 0.55617 0.1673 0.23472 0.0
N435 N 0.55852 0.05801 0.22448 0.0
H436 H 0.49228 0.06094 0.35966 0.0
H437 H 0.51173 0.04039 0.33962 0.0
H438 H 0.57673 0.05669 0.1928 0.0
H439 H 0.53807 0.03678 0.22841 0.0
H440 H 0.57387 0.18756 0.2049 0.0
H441 H 0.53567 0.16771 0.24548 0.0
H442 H 0.61573 0.19091 0.248 0.0
H443 H 0.63599 0.17144 0.22647 0.0
C444 C 0.42103 0.56331 0.42718 0.0
C445 C 0.4216 0.53504 0.42554 0.0
C446 C 0.47346 0.56246 0.35436 0.0
C447 C 0.47466 0.591 0.36986 0.0
N448 N 0.45107 0.6194 0.43122 0.0
N449 N 0.4516 0.50936 0.40355 0.0
C450 C 0.44885 0.59171 0.40915 0.0
C451 C 0.44869 0.53503 0.39318 0.0
N452 N 0.39374 0.56306 0.44066 0.0
N453 N 0.49572 0.56146 0.3004 0.0
H454 H 0.43476 0.48901 0.43501 0.0
H455 H 0.47216 0.50934 0.39015 0.0
H456 H 0.51352 0.58112 0.26798 0.0
H457 H 0.49449 0.54088 0.27909 0.0
H458 H 0.3916 0.5827 0.43344 0.0
H459 H 0.37254 0.54279 0.44897 0.0
H460 H 0.43425 0.62122 0.46998 0.0
H461 H 0.47079 0.6406 0.41662 0.0
C462 C 0.87778 0.41843 0.53428 0.0
C463 C 0.88639 0.41349 0.6256 0.0
C464 C 0.89028 0.46199 0.67712 0.0
C465 C 0.88766 0.4698 0.58157 0.0
N466 N 0.88674 0.45681 0.41539 0.0
N467 N 0.90747 0.43467 0.77958 0.0
C468 C 0.88365 0.44844 0.50868 0.0
C469 C 0.89475 0.43653 0.69579 0.0
N470 N 0.86231 0.3942 0.47388 0.0
N471 N 0.8863 0.4773 0.75073 0.0
H472 H 0.9121 0.41692 0.79516 0.0
H473 H 0.91637 0.45255 0.82909 0.0
H474 H 0.87856 0.4929 0.74019 0.0
H475 H 0.88593 0.47098 0.82142 0.0
H476 H 0.85379 0.39639 0.40856 0.0
H477 H 0.85421 0.37145 0.49566 0.0
H478 H 0.88614 0.4423 0.36129 0.0
H479 H 0.89374 0.47925 0.39281 0.0
C480 C 0.42215 0.86033 0.74397 0.0
C481 C 0.42012 0.8855 0.7051 0.0
C482 C 0.47622 0.91779 0.71167 0.0
C483 C 0.47899 0.89189 0.73981 0.0
N484 N 0.45395 0.83649 0.7639 0.0
N485 N 0.44559 0.93429 0.6234 0.0
C486 C 0.45177 0.8625 0.75126 0.0
C487 C 0.4473 0.91305 0.68026 0.0
N488 N 0.39599 0.83465 0.77495 0.0
N489 N 0.50083 0.94716 0.7185 0.0
H490 H 0.42473 0.93017 0.59344 0.0
H491 H 0.46514 0.95372 0.59667 0.0
H492 H 0.522 0.95213 0.74791 0.0
H493 H 0.49892 0.96675 0.70569 0.0
H494 H 0.39643 0.81697 0.81315 0.0
H495 H 0.37399 0.8321 0.76799 0.0
H496 H 0.43479 0.81427 0.76345 0.0
H497 H 0.47499 0.83677 0.76564 0.0
C498 C 0.56124 0.47171 0.88825 0.0
C499 C 0.58887 0.47244 0.91888 0.0
C500 C 0.561 0.4155 0.91958 0.0
C501 C 0.53454 0.41531 0.88198 0.0
N502 N 0.51261 0.443 0.80495 0.0
N503 N 0.61667 0.44454 0.93968 0.0
C504 C 0.5357 0.44337 0.85826 0.0
C505 C 0.58926 0.44417 0.9281 0.0
N506 N 0.55851 0.49763 0.89221 0.0
N507 N 0.55903 0.38845 0.94879 0.0
H508 H 0.63805 0.46485 0.94077 0.0
H509 H 0.6185 0.42463 0.93786 0.0
H510 H 0.53895 0.36702 0.94099 0.0
H511 H 0.57653 0.38756 0.98658 0.0
H512 H 0.53769 0.49726 0.88031 0.0
H513 H 0.57585 0.51882 0.91717 0.0
H514 H 0.51371 0.46296 0.77767 0.0
H515 H 0.49409 0.42255 0.779 0.0
C516 C 0.00838 0.4079 0.90888 0.0
C517 C 0.01803 0.38847 0.95202 0.0
C518 C 0.97919 0.34468 0.85852 0.0
C519 C 0.97346 0.36545 0.8045 0.0
N520 N 0.98392 0.41738 0.77458 0.0
N521 N 0.01285 0.33826 0.97041 0.0
C522 C 0.98844 0.39723 0.82887 0.0
C523 C 1.00316 0.35665 0.92851 0.0
N524 N 0.0176 0.43631 0.94706 0.0
N525 N 0.96165 0.3136 0.84311 0.0
H526 H 0.02934 0.34631 0.02445 0.0
H527 H 0.00567 0.31571 0.94911 0.0
H528 H 0.94523 0.30431 0.78907 0.0
H529 H 0.96219 0.29701 0.88669 0.0
H530 H 0.00907 0.45058 0.92516 0.0
H531 H 0.03115 0.44396 0.00818 0.0
H532 H 0.99658 0.44129 0.78294 0.0
H533 H 0.96931 0.41041 0.71573 0.0
C534 C 0.59509 0.98978 0.96365 0.0
C535 C 0.61459 0.98867 0.89192 0.0
C536 C 0.6594 0.03191 0.96872 0.0
C537 C 0.64027 0.0312 0.04512 0.0
N538 N 0.59014 0.00571 0.12149 0.0
N539 N 0.66568 0.0096 0.8247 0.0
C540 C 0.60823 0.00888 0.04465 0.0
C541 C 0.64676 0.01003 0.8939 0.0
N542 N 0.56367 0.97365 0.95147 0.0
N543 N 0.69025 0.05286 0.96642 0.0
H544 H 0.65752 0.99403 0.76838 0.0
H545 H 0.6895 0.025 0.82389 0.0
H546 H 0.70192 0.0692 0.01933 0.0
H547 H 0.70192 0.0692 0.01933 0.0
H548 H 0.54817 0.97597 0.99545 0.0
H549 H 0.55322 0.96051 0.89111 0.0
H550 H 0.56766 0.98732 0.12982 0.0
H551 H 0.59818 0.0197 0.18125 0.0
C552 C 0.63747 0.65472 0.16108 0.0
C553 C 0.61137 0.63503 0.21787 0.0
C554 C 0.60377 0.59021 0.12472 0.0
C555 C 0.63134 0.60943 0.07294 0.0
N556 N 0.67639 0.65938 0.04776 0.0
N557 N 0.57107 0.58395 0.26042 0.0
C558 C 0.64865 0.6416 0.09229 0.0
C559 C 0.59501 0.60271 0.20158 0.0
N560 N 0.65119 0.68604 0.17182 0.0
N561 N 0.58558 0.56 0.09854 0.0
H562 H 0.56475 0.59232 0.31894 0.0
H563 H 0.55911 0.55993 0.25718 0.0
H564 H 0.5915 0.55012 0.04337 0.0
H565 H 0.56363 0.54527 0.12576 0.0
H566 H 0.66765 0.7019 0.12514 0.0
H567 H 0.64488 0.69621 0.22548 0.0
H568 H 0.69192 0.68218 0.06625 0.0
H569 H 0.68477 0.65072 0.99538 0.0
C570 C 0.99554 0.63633 0.37957 0.0
C571 C 0.98069 0.6043 0.40191 0.0
C572 C 0.00598 0.59577 0.26452 0.0
C573 C 0.02302 0.62804 0.24725 0.0
N574 N 0.03671 0.67969 0.29394 0.0
N575 N 0.97679 0.55468 0.37778 0.0
C576 C 0.01856 0.64851 0.3066 0.0
C577 C 0.98737 0.58437 0.34759 0.0
N578 N 0.98681 0.6549 0.42524 0.0
N579 N 0.00754 0.57597 0.20094 0.0
H580 H 0.96379 0.54582 0.43964 0.0
H581 H 0.98329 0.53983 0.34697 0.0
H582 H 0.02021 0.58369 0.13819 0.0
H583 H 0.99393 0.55201 0.20523 0.0
H584 H 0.99417 0.67762 0.40503 0.0
H585 H 0.97051 0.64696 0.4798 0.0
H586 H 0.03766 0.69597 0.34197 0.0
H587 H 0.05202 0.68922 0.23701 0.0
C588 C 0.41113 0.00682 0.45062 0.0
C589 C 0.39287 0.01952 0.41916 0.0
C590 C 0.35249 0.98657 0.5342 0.0
C591 C 0.37244 0.9765 0.57166 0.0
N592 N 0.42355 0.98319 0.58037 0.0
N593 N 0.3476 0.02455 0.43829 0.0
C594 C 0.40262 0.98851 0.5341 0.0
C595 C 0.36387 0.01026 0.4631 0.0
N596 N 0.4364 0.01181 0.3992 0.0
N597 N 0.32258 0.97308 0.56512 0.0
H598 H 0.35475 0.0409 0.38383 0.0
H599 H 0.32804 0.02139 0.4747 0.0
H600 H 0.31411 0.95669 0.61955 0.0
H601 H 0.30588 0.97692 0.53361 0.0
H602 H 0.44936 1.00117 0.41433 0.0
H603 H 0.44189 0.02352 0.33447 0.0
H604 H 0.44683 0.99371 0.5614 0.0
H605 H 0.41835 0.97133 0.64485 0.0
C606 C 0.41453 0.40494 0.72587 0.0
C607 C 0.3977 0.3727 0.74416 0.0
C608 C 0.36019 0.36643 0.61972 0.0
C609 C 0.37813 0.39842 0.59781 0.0
N610 N 0.42514 0.44709 0.61837 0.0
N611 N 0.35691 0.32188 0.7013 0.0
C612 C 0.4061 0.41733 0.64779 0.0
C613 C 0.37122 0.35318 0.68877 0.0
N614 N 0.43857 0.42378 0.78389 0.0
N615 N 0.33201 0.34898 0.57752 0.0
H616 H 0.36311 0.31166 0.75521 0.0
H617 H 0.34005 0.30604 0.65569 0.0
H618 H 0.32361 0.35771 0.52536 0.0
H619 H 0.31616 0.32645 0.59803 0.0
H620 H 0.45026 0.44782 0.78011 0.0
H621 H 0.44506 0.41554 0.84247 0.0
H622 H 0.44741 0.46127 0.6442 0.0
H623 H 0.41969 0.45681 0.5615 0.0
C624 C 0.22649 0.46232 0.21376 0.0
C625 C 0.19647 0.43585 0.21595 0.0
C626 C 0.2133 0.41274 0.34021 0.0
C627 C 0.24388 0.43796 0.33237 0.0
N628 N 0.28088 0.4852 0.25437 0.0
N629 N 0.16218 0.38381 0.27006 0.0
C630 C 0.25084 0.46235 0.26704 0.0
C631 C 0.19014 0.41049 0.27623 0.0
N632 N 0.23142 0.48786 0.16365 0.0
N633 N 0.20635 0.39114 0.40982 0.0
H634 H 0.14481 0.38118 0.22334 0.0
H635 H 0.15704 0.36341 0.30505 0.0
H636 H 0.22287 0.39209 0.45724 0.0
H637 H 0.18392 0.37383 0.42594 0.0
H638 H 0.25172 0.50916 0.16783 0.0
H639 H 0.2143 0.48841 0.1225 0.0
H640 H 0.28802 0.50144 0.1999 0.0
H641 H 0.29913 0.48689 0.2951 0.0
C642 C 0.78502 0.22242 0.34126 0.0
C643 C 0.75748 0.19724 0.3781 0.0
C644 C 0.7769 0.21523 0.53876 0.0
C645 C 0.80274 0.24216 0.5015 0.0
N646 N 0.82166 0.27638 0.36562 0.0
N647 N 0.72273 0.17918 0.51297 0.0
C648 C 0.80386 0.24742 0.40208 0.0
C649 C 0.75191 0.19648 0.47736 0.0
N650 N 0.7943 0.22218 0.2505 0.0
N651 N 0.77643 0.20653 0.6307 0.0
H652 H 0.70342 0.16749 0.46922 0.0
H653 H 0.71763 0.17954 0.58454 0.0
H654 H 0.79524 0.2183 0.67609 0.0
H655 H 0.75865 0.18572 0.65771 0.0
H656 H 0.81549 0.23955 0.22422 0.0
H657 H 0.78267 0.20313 0.20599 0.0
H658 H 0.82161 0.28124 0.29367 0.0
H659 H 0.83346 0.29576 0.40892 0.0
C660 C 0.60385 0.82318 0.53974 0.0
C661 C 0.57726 0.81904 0.58956 0.0
C662 C 0.54795 0.76542 0.53295 0.0
C663 C 0.57398 0.77025 0.47844 0.0
N664 N 0.62504 0.80459 0.41798 0.0
N665 N 0.52253 0.7883 0.62088 0.0
C666 C 0.60143 0.79947 0.47819 0.0
C667 C 0.54888 0.79068 0.58291 0.0
N668 N 0.63167 0.84951 0.55364 0.0
N669 N 0.52258 0.73647 0.53875 0.0
H670 H 0.52231 0.80616 0.65852 0.0
H671 H 0.5005 0.76956 0.60908 0.0
H672 H 0.5204 0.71772 0.49984 0.0
H673 H 0.50449 0.73054 0.58634 0.0
H674 H 0.6526 0.85273 0.52743 0.0
H675 H 0.63434 0.86731 0.59839 0.0
H676 H 0.64446 0.82622 0.40691 0.0
H677 H 0.62403 0.78759 0.37271 0.0
C678 C 0.76735 0.54722 0.77917 0.0
C679 C 0.76868 0.57536 0.80523 0.0
C680 C 0.81531 0.60408 0.70707 0.0
C681 C 0.81556 0.57628 0.68813 0.0
N682 N 0.79613 0.52255 0.72808 0.0
N683 N 0.79777 0.63102 0.81065 0.0
C684 C 0.79285 0.54816 0.73063 0.0
C685 C 0.794 0.60395 0.7746 0.0
N686 N 0.74125 0.51954 0.79664 0.0
N687 N 0.8347 0.6304 0.65808 0.0
H688 H 0.78264 0.63167 0.86055 0.0
H689 H 0.81732 0.65245 0.79775 0.0
H690 H 0.85033 0.6312 0.60733 0.0
H691 H 0.8334 0.65058 0.66181 0.0
H692 H 0.73788 0.49864 0.76969 0.0
H693 H 0.72178 0.51763 0.83051 0.0
H694 H 0.78193 0.50248 0.76633 0.0
H695 H 0.81485 0.52234 0.69586 0.0
C696 C 0.21531 0.80727 0.8793 0.0
C697 C 0.24241 0.80606 0.85652 0.0
C698 C 0.22281 0.75797 0.9487 0.0
C699 C 0.19695 0.76064 0.97778 0.0
N700 N 0.17137 0.79072 0.98503 0.0
N701 N 0.27494 0.78372 0.88485 0.0
C702 C 0.19415 0.78629 0.9475 0.0
C703 C 0.24703 0.78239 0.89559 0.0
N704 N 0.20954 0.82815 0.83421 0.0
N705 N 0.22369 0.73157 0.96821 0.0
H706 H 0.29318 0.80097 0.84587 0.0
H707 H 0.28086 0.76916 0.92086 0.0
H708 H 0.2067 0.71331 0.00773 0.0
H709 H 0.24007 0.72679 0.93914 0.0
H710 H 0.18875 0.82822 0.84041 0.0
H711 H 0.22457 0.8438 0.78387 0.0
H712 H 0.16978 0.81048 0.97292 0.0
H713 H 0.15567 0.77586 0.03556 0.0
C714 C 0.46238 0.21705 0.1111 0.0
C715 C 0.43385 0.19247 0.1455 0.0
C716 C 0.40569 0.21237 0.05299 0.0
C717 C 0.4342 0.23842 0.02557 0.0
N718 N 0.48973 0.26844 0.0421 0.0
N719 N 0.37862 0.1693 0.16198 0.0
C720 C 0.46259 0.24157 0.0583 0.0
C721 C 0.40557 0.19097 0.12028 0.0
N722 N 0.48919 0.21645 0.12571 0.0
N723 N 0.37873 0.20785 0.01325 0.0
H724 H 0.37781 0.15336 0.21161 0.0
H725 H 0.35761 0.1688 0.15397 0.0
H726 H 0.37806 0.22306 0.96366 0.0
H727 H 0.35746 0.1878 0.02286 0.0
H728 H 0.51006 0.2317 0.09282 0.0
H729 H 0.49019 0.19926 0.16508 0.0
H730 H 0.51063 0.27351 0.07368 0.0
H731 H 0.49102 0.28678 0.00289 0.0
C732 C 0.11771 0.40524 0.54073 0.0
C733 C 0.08803 0.40171 0.52431 0.0
C734 C 0.07556 0.38875 0.69128 0.0
C735 C 0.10762 0.40125 0.71085 0.0
N736 N 0.15943 0.41968 0.6534 0.0
N737 N 0.03723 0.38716 0.58203 0.0
C738 C 0.12879 0.40874 0.63517 0.0
C739 C 0.0663 0.39196 0.59887 0.0
N740 N 0.13472 0.40417 0.46684 0.0
N741 N 0.05393 0.37368 0.75998 0.0
H742 H 0.02936 0.38752 0.5137 0.0
H743 H 0.02159 0.38414 0.63572 0.0
H744 H 0.05946 0.37053 0.82854 0.0
H745 H 0.03037 0.36104 0.74511 0.0
H746 H 0.15575 0.40472 0.47521 0.0
H747 H 0.12575 0.39876 0.39856 0.0
H748 H 0.17646 0.42876 0.60104 0.0
H749 H 0.16788 0.42098 0.72195 0.0
C750 C 0.65143 0.09733 0.83887 0.0
C751 C 0.68341 0.11805 0.85412 0.0
C752 C 0.69624 0.0971 0.71493 0.0
C753 C 0.66441 0.0807 0.69034 0.0
N754 N 0.61229 0.05403 0.74704 0.0
N755 N 0.73527 0.12801 0.83255 0.0
C756 C 0.64227 0.07662 0.76019 0.0
C757 C 0.70544 0.11426 0.8011 0.0
N758 N 0.62996 0.09921 0.89407 0.0
N759 N 0.71771 0.09831 0.6526 0.0
H760 H 0.74195 0.14047 0.89591 0.0
H761 H 0.75236 0.12472 0.80149 0.0
H762 H 0.71147 0.08452 0.5924 0.0
H763 H 0.74142 0.11326 0.65948 0.0
H764 H 0.60629 0.08706 0.88035 0.0
H765 H 0.63614 0.11383 0.9525 0.0
H766 H 0.59496 0.04809 0.79752 0.0
H767 H 0.60585 0.03944 0.68815 0.0
C768 C 0.58707 0.65005 0.89203 0.0
C769 C 0.59907 0.67199 0.81895 0.0
C770 C 0.60519 0.7124 0.92996 0.0
C771 C 0.58551 0.68885 0.99465 0.0
N772 N 0.55683 0.63404 0.03523 0.0
N773 N 0.62739 0.72512 0.77165 0.0
C774 C 0.57658 0.65731 0.97616 0.0
C775 C 0.61122 0.70369 0.83983 0.0
N776 N 0.58423 0.62172 0.87732 0.0
N777 N 0.61758 0.74285 0.95417 0.0
H778 H 0.63508 0.71924 0.71092 0.0
H779 H 0.63351 0.74831 0.77528 0.0
H780 H 0.61209 0.75003 0.01702 0.0
H781 H 0.63425 0.76113 0.91424 0.0
H782 H 0.57797 0.60502 0.93017 0.0
H783 H 0.59144 0.61659 0.81367 0.0
H784 H 0.54798 0.61069 0.0203 0.0
H785 H 0.5466 0.63741 0.09462 0.0
C786 C 0.91538 0.60463 0.04462 0.0
C787 C 0.92772 0.58605 0.01496 0.0
C788 C 0.9176 0.56115 0.16984 0.0
C789 C 0.89987 0.57563 0.19378 0.0
N790 N 0.88203 0.6114 0.15518 0.0
N791 N 0.94735 0.55228 0.04867 0.0
C792 C 0.89944 0.59807 0.13242 0.0
C793 C 0.93171 0.56672 0.07902 0.0
N794 N 0.918 0.62761 0.98595 0.0
N795 N 0.92077 0.54203 0.23285 0.0
H796 H 0.95879 0.55776 0.98336 0.0
H797 H 0.94915 0.53523 0.08571 0.0
H798 H 0.91031 0.53615 0.29896 0.0
H799 H 0.93447 0.53205 0.2216 0.0
H800 H 0.91144 0.64372 0.0043 0.0
H801 H 0.92946 0.63205 0.92096 0.0
H802 H 0.87847 0.6258 0.10985 0.0
H803 H 0.86909 0.60637 0.21742 0.0
C804 C 0.30021 0.89325 0.28011 0.0
C805 C 0.32237 0.89634 0.34888 0.0
C806 C 0.36431 0.93366 0.24642 0.0
C807 C 0.34272 0.92637 0.17317 0.0
N808 N 0.29038 0.90997 0.12877 0.0
N809 N 0.37628 0.91916 0.39715 0.0
C810 C 0.31063 0.9096 0.19293 0.0
C811 C 0.35469 0.91689 0.33287 0.0
N812 N 0.26941 0.87325 0.29611 0.0
N813 N 0.39432 0.95585 0.22964 0.0
H814 H 0.37095 0.90615 0.45884 0.0
H815 H 0.40006 0.93218 0.38673 0.0
H816 H 0.40085 0.96811 0.1657 0.0
H817 H 0.41198 0.96371 0.27939 0.0
H818 H 0.25219 0.86739 0.24556 0.0
H819 H 0.261 0.86066 0.35882 0.0
H820 H 0.26666 0.89988 0.13964 0.0
H821 H 0.29798 0.92348 0.06796 0.0
C822 C 0.40578 0.29647 0.45127 0.0
C823 C 0.42387 0.31881 0.52068 0.0
C824 C 0.42408 0.35955 0.42231 0.0
C825 C 0.41173 0.33851 0.34709 0.0
N826 N 0.37885 0.28586 0.30042 0.0
N827 N 0.45285 0.37282 0.56831 0.0
C828 C 0.39873 0.30647 0.36492 0.0
C829 C 0.43331 0.35068 0.50617 0.0
N830 N 0.39688 0.26603 0.46607 0.0
N831 N 0.42805 0.38847 0.41039 0.0
H832 H 0.46284 0.36824 0.62605 0.0
H833 H 0.46204 0.39644 0.55725 0.0
H834 H 0.42151 0.39471 0.34739 0.0
H835 H 0.43455 0.40467 0.46461 0.0
H836 H 0.3862 0.24881 0.41528 0.0
H837 H 0.40196 0.25806 0.52817 0.0
H838 H 0.36704 0.26199 0.30933 0.0
H839 H 0.37157 0.29307 0.24166 0.0
C840 C 0.61913 0.9266 0.14302 0.0
C841 C 0.59431 0.89809 0.10983 0.0
C842 C 0.56394 0.89441 0.25051 0.0
C843 C 0.58682 0.9252 0.2764 0.0
N844 N 0.63494 0.97169 0.24214 0.0
N845 N 0.5513 0.84922 0.15465 0.0
C846 C 0.61425 0.94148 0.22174 0.0
C847 C 0.56915 0.88026 0.17076 0.0
N848 N 0.64796 0.93814 0.10464 0.0
N849 N 0.53653 0.87901 0.29865 0.0
H850 H 0.55624 0.83829 0.09982 0.0
H851 H 0.53442 0.83389 0.2014 0.0
H852 H 0.53125 0.88736 0.35893 0.0
H853 H 0.5177 0.8585 0.27477 0.0
H854 H 0.66744 0.95781 0.12998 0.0
H855 H 0.65337 0.92536 0.05789 0.0
H856 H 0.65337 0.9859 0.19787 0.0
H857 H 0.6321 0.98341 0.29897 0.0
C858 C 0.65328 0.57077 0.31336 0.0
C859 C 0.68549 0.58345 0.29271 0.0
C860 C 0.69879 0.60959 0.44663 0.0
C861 C 0.66691 0.59429 0.46947 0.0
N862 N 0.61469 0.57136 0.41826 0.0
N863 N 0.73876 0.62036 0.32996 0.0
C864 C 0.64459 0.57927 0.39886 0.0
C865 C 0.70823 0.60494 0.35593 0.0
N866 N 0.63098 0.54979 0.25417 0.0
N867 N 0.7199 0.62711 0.51386 0.0
H868 H 0.74688 0.61585 0.26729 0.0
H869 H 0.75606 0.63859 0.36825 0.0
H870 H 0.71326 0.63347 0.57581 0.0
H871 H 0.74357 0.63537 0.50871 0.0
H872 H 0.60751 0.53775 0.27065 0.0
H873 H 0.63546 0.54227 0.19083 0.0
H874 H 0.59649 0.5605 0.37075 0.0
H875 H 0.60878 0.57791 0.48178 0.0
C876 C 0.10822 0.70576 0.53303 0.0
C877 C 0.10333 0.68193 0.46841 0.0
C878 C 0.06143 0.64431 0.56978 0.0
C879 C 0.07202 0.66605 0.64333 0.0
N880 N 0.09908 0.71926 0.69029 0.0
N881 N 0.07551 0.62714 0.42876 0.0
C882 C 0.09307 0.69754 0.62277 0.0
C883 C 0.07963 0.6508 0.48675 0.0
N884 N 0.12752 0.73605 0.50892 0.0
N885 N 0.03512 0.61658 0.58389 0.0
H886 H 0.08967 0.6299 0.3713 0.0
H887 H 0.06002 0.60396 0.44332 0.0
H888 H 0.02241 0.61199 0.64669 0.0
H889 H 0.02464 0.59983 0.53153 0.0
H890 H 0.12993 0.7547 0.54851 0.0
H891 H 0.14043 0.74277 0.4464 0.0
H892 H 0.11727 0.74197 0.68736 0.0
H893 H 0.08492 0.71425 0.7493 0.0
C894 C 0.40287 0.10491 0.7125 0.0
C895 C 0.42101 0.10006 0.64444 0.0
C896 C 0.42126 0.06033 0.74662 0.0
C897 C 0.40881 0.06962 0.82013 0.0
N898 N 0.37655 0.09042 0.86496 0.0
N899 N 0.4495 0.07413 0.59923 0.0
C900 C 0.39592 0.08866 0.8003 0.0
C901 C 0.43035 0.07761 0.66119 0.0
N902 N 0.39382 0.12624 0.69488 0.0
N903 N 0.42576 0.03585 0.76235 0.0
H904 H 0.459 0.08776 0.53941 0.0
H905 H 0.45869 0.05974 0.61145 0.0
H906 H 0.41907 0.02355 0.82622 0.0
H907 H 0.43336 0.02623 0.71109 0.0
H908 H 0.38276 0.13297 0.74393 0.0
H909 H 0.3989 0.13876 0.63173 0.0
H910 H 0.3651 0.10285 0.85555 0.0
H911 H 0.36946 0.07655 0.92511 0.0
C912 C 0.35572 0.43573 0.83972 0.0
C913 C 0.32414 0.42539 0.81584 0.0
C914 C 0.30748 0.39877 0.96882 0.0
C915 C 0.33891 0.41209 0.99479 0.0
N916 N 0.39128 0.43159 0.94954 0.0
N917 N 0.2697 0.3914 0.84806 0.0
C918 C 0.36232 0.42599 0.92662 0.0
C919 C 0.29986 0.40468 0.87695 0.0
N920 N 0.37944 0.45576 0.78231 0.0
N921 N 0.28526 0.38216 0.03473 0.0
H922 H 0.26309 0.3969 0.78409 0.0
H923 H 0.25117 0.37401 0.88538 0.0
H924 H 0.29081 0.37569 0.09877 0.0
H925 H 0.26187 0.37492 0.0268 0.0
H926 H 0.40269 0.46611 0.80092 0.0
H927 H 0.37644 0.46418 0.71834 0.0
H928 H 0.41005 0.44115 0.90354 0.0
H929 H 0.39561 0.42427 0.01435 0.0
C930 C 0.90206 0.29419 0.16379 0.0
C931 C 0.92264 0.32528 0.18867 0.0
C932 C 0.91611 0.34312 0.03455 0.0
C933 C 0.89262 0.31224 0.01207 0.0
N934 N 0.86775 0.25752 0.04627 0.0
N935 N 0.95903 0.37622 0.13843 0.0
C936 C 0.88732 0.28738 0.0735 0.0
C937 C 0.93329 0.34851 0.11938 0.0
N938 N 0.89573 0.27165 0.22922 0.0
N939 N 0.92113 0.36752 0.97819 0.0
H940 H 0.97103 0.37988 0.20224 0.0
H941 H 0.96995 0.39397 0.089 0.0
H942 H 0.90851 0.36549 0.91749 0.0
H943 H 0.93613 0.39051 0.99593 0.0
H944 H 0.87828 0.24871 0.22274 0.0
H945 H 0.90864 0.27647 0.29135 0.0
H946 H 0.86468 0.23823 0.08385 0.0
H947 H 0.85501 0.25179 0.98356 0.0
loop_
_geom_bond_atom_site_label_1
_geom_bond_atom_site_label_2
_geom_bond_distance
_geom_bond_site_symmetry_2
_ccdc_geom_bond_type
Co0 O3 1.970 . S
Co0 N17 1.989 1_556 S
Co0 O25 1.967 . S
Co0 O32 1.920 . S
Co1 O4 1.966 . S
Co1 N10 2.022 . S
Co1 N18 1.993 . S
Co1 O26 1.941 . S
C2 O3 1.258 1_554 S
C2 O4 1.263 . S
O3 Co0 1.970 . S
O3 C2 1.258 1_556 S
O4 Co1 1.966 . S
O4 C2 1.263 . S
C5 O6 1.235 . S
C5 O32 1.289 . S
O6 C5 1.235 . S
C7 C9 1.400 . S
C7 N10 1.351 . S
C7 C12 1.501 . S
C8 C9 1.387 . S
C8 N11 1.341 . S
C9 C7 1.400 . S
C9 C8 1.387 . S
N10 Co1 2.022 . S
N10 C7 1.351 . S
N10 N11 1.365 . S
N11 C8 1.341 . S
N11 N10 1.365 . S
N11 H31 0.862 . S
C12 C7 1.501 . S
C12 H13 0.961 . S
C12 H14 0.961 . S
C12 H15 0.960 . S
H13 C12 0.961 . S
H14 C12 0.961 . S
H15 C12 0.960 . S
C16 N17 1.342 . S
C16 C20 1.401 . S
C16 C21 1.499 1_554 S
N17 Co0 1.989 1_554 S
N17 C16 1.342 . S
N17 N18 1.388 . S
N18 Co1 1.993 . S
N18 N17 1.388 . S
N18 C19 1.346 . S
C19 N18 1.346 . S
C19 C20 1.396 . S
C19 C29 1.510 . S
C20 C16 1.401 . S
C20 C19 1.396 . S
C21 C16 1.499 1_556 S
C21 H22 0.959 . S
C21 H23 0.960 . S
C21 H24 0.961 . S
H22 C21 0.959 . S
H23 C21 0.960 . S
H24 C21 0.961 . S
O25 Co0 1.967 . S
O25 C33 1.258 1_556 S
O26 Co1 1.941 . S
O26 C33 1.266 . S
H27 C29 0.959 . S
H28 C29 0.961 . S
C29 C19 1.510 . S
C29 H27 0.959 . S
C29 H28 0.961 . S
C29 H30 0.960 . S
H30 C29 0.960 . S
H31 N11 0.862 . S
O32 Co0 1.920 . S
O32 C5 1.289 . S
C33 O25 1.258 1_554 S
C33 O26 1.266 . S
Co34 O37 1.970 . S
Co34 N51 1.989 . S
Co34 O59 1.967 . S
Co34 O66 1.920 1_554 S
Co35 O38 1.966 . S
Co35 N44 2.022 . S
Co35 N52 1.993 . S
Co35 O60 1.941 . S
C36 O37 1.258 . S
C36 O38 1.263 . S
O37 Co34 1.970 . S
O37 C36 1.258 . S
O38 Co35 1.966 . S
O38 C36 1.263 . S
C39 O40 1.235 . S
C39 O66 1.289 . S
O40 C39 1.235 . S
C41 C43 1.400 . S
C41 N44 1.351 . S
C41 C46 1.501 . S
C42 C43 1.387 . S
C42 N45 1.341 . S
C43 C41 1.400 . S
C43 C42 1.387 . S
N44 Co35 2.022 . S
N44 C41 1.351 . S
N44 N45 1.365 . S
N45 C42 1.341 . S
N45 N44 1.365 . S
N45 H65 0.862 . S
C46 C41 1.501 . S
C46 H47 0.961 . S
C46 H48 0.961 . S
C46 H49 0.960 . S
H47 C46 0.961 . S
H48 C46 0.961 . S
H49 C46 0.960 . S
C50 N51 1.342 . S
C50 C54 1.401 . S
C50 C55 1.499 . S
N51 Co34 1.989 . S
N51 C50 1.342 . S
N51 N52 1.388 . S
N52 Co35 1.993 . S
N52 N51 1.388 . S
N52 C53 1.346 . S
C53 N52 1.346 . S
C53 C54 1.396 . S
C53 C63 1.510 . S
C54 C50 1.401 . S
C54 C53 1.396 . S
C55 C50 1.499 . S
C55 H56 0.959 . S
C55 H57 0.960 . S
C55 H58 0.961 . S
H56 C55 0.959 . S
H57 C55 0.960 . S
H58 C55 0.961 . S
O59 Co34 1.967 . S
O59 C67 1.258 . S
O60 Co35 1.941 . S
O60 C67 1.266 . S
H61 C63 0.959 . S
H62 C63 0.961 . S
C63 C53 1.510 . S
C63 H61 0.959 . S
C63 H62 0.961 . S
C63 H64 0.960 . S
H64 C63 0.960 . S
H65 N45 0.862 . S
O66 Co34 1.920 1_556 S
O66 C39 1.289 . S
C67 O59 1.258 . S
C67 O60 1.266 . S
Co68 O71 1.970 . S
Co68 N85 1.989 . S
Co68 O93 1.967 . S
Co68 O100 1.920 . S
Co69 O72 1.966 . S
Co69 N78 2.022 . S
Co69 N86 1.993 . S
Co69 O94 1.941 . S
C70 O71 1.258 . S
C70 O72 1.263 . S
O71 Co68 1.970 . S
O71 C70 1.258 . S
O72 Co69 1.966 . S
O72 C70 1.263 . S
C73 O74 1.235 . S
C73 O100 1.289 . S
O74 C73 1.235 . S
C75 C77 1.400 . S
C75 N78 1.351 . S
C75 C80 1.501 . S
C76 C77 1.387 . S
C76 N79 1.341 . S
C77 C75 1.400 . S
C77 C76 1.387 . S
N78 Co69 2.022 . S
N78 C75 1.351 . S
N78 N79 1.365 . S
N79 C76 1.341 . S
N79 N78 1.365 . S
N79 H99 0.862 . S
C80 C75 1.501 . S
C80 H81 0.961 . S
C80 H82 0.961 . S
C80 H83 0.960 . S
H81 C80 0.961 . S
H82 C80 0.961 . S
H83 C80 0.960 . S
C84 N85 1.342 . S
C84 C88 1.401 . S
C84 C89 1.499 . S
N85 Co68 1.989 . S
N85 C84 1.342 . S
N85 N86 1.388 . S
N86 Co69 1.993 . S
N86 N85 1.388 . S
N86 C87 1.346 . S
C87 N86 1.346 . S
C87 C88 1.396 . S
C87 C97 1.510 . S
C88 C84 1.401 . S
C88 C87 1.396 . S
C89 C84 1.499 . S
C89 H90 0.959 . S
C89 H91 0.960 . S
C89 H92 0.961 . S
H90 C89 0.959 . S
H91 C89 0.960 . S
H92 C89 0.961 . S
O93 Co68 1.967 . S
O93 C101 1.258 . S
O94 Co69 1.941 . S
O94 C101 1.266 . S
H95 C97 0.959 . S
H96 C97 0.961 . S
C97 C87 1.510 . S
C97 H95 0.959 . S
C97 H96 0.961 . S
C97 H98 0.960 . S
H98 C97 0.960 . S
H99 N79 0.862 . S
O100 Co68 1.920 . S
O100 C73 1.289 . S
C101 O93 1.258 . S
C101 O94 1.266 . S
Co102 O105 1.970 . S
Co102 N119 1.989 . S
Co102 O127 1.967 . S
Co102 O134 1.920 . S
Co103 O106 1.966 . S
Co103 N112 2.022 . S
Co103 N120 1.993 . S
Co103 O128 1.941 . S
C104 O105 1.258 . S
C104 O106 1.263 . S
O105 Co102 1.970 . S
O105 C104 1.258 . S
O106 Co103 1.966 . S
O106 C104 1.263 . S
C107 O108 1.235 . S
C107 O134 1.289 . S
O108 C107 1.235 . S
C109 C111 1.400 . S
C109 N112 1.351 . S
C109 C114 1.501 . S
C110 C111 1.387 . S
C110 N113 1.341 . S
C111 C109 1.400 . S
C111 C110 1.387 . S
N112 Co103 2.022 . S
N112 C109 1.351 . S
N112 N113 1.365 . S
N113 C110 1.341 . S
N113 N112 1.365 . S
N113 H133 0.862 . S
C114 C109 1.501 . S
C114 H115 0.961 . S
C114 H116 0.961 . S
C114 H117 0.960 . S
H115 C114 0.961 . S
H116 C114 0.961 . S
H117 C114 0.960 . S
C118 N119 1.342 . S
C118 C122 1.401 . S
C118 C123 1.499 . S
N119 Co102 1.989 . S
N119 C118 1.342 . S
N119 N120 1.388 . S
N120 Co103 1.993 . S
N120 N119 1.388 . S
N120 C121 1.346 . S
C121 N120 1.346 . S
C121 C122 1.396 . S
C121 C131 1.510 . S
C122 C118 1.401 . S
C122 C121 1.396 . S
C123 C118 1.499 . S
C123 H124 0.959 . S
C123 H125 0.960 . S
C123 H126 0.961 . S
H124 C123 0.959 . S
H125 C123 0.960 . S
H126 C123 0.961 . S
O127 Co102 1.967 . S
O127 C135 1.258 . S
O128 Co103 1.941 . S
O128 C135 1.266 . S
H129 C131 0.959 . S
H130 C131 0.961 . S
C131 C121 1.510 . S
C131 H129 0.959 . S
C131 H130 0.961 . S
C131 H132 0.960 . S
H132 C131 0.960 . S
H133 N113 0.862 . S
O134 Co102 1.920 . S
O134 C107 1.289 . S
C135 O127 1.258 . S
C135 O128 1.266 . S
Co136 O139 1.970 . S
Co136 N153 1.989 . S
Co136 O161 1.967 . S
Co136 O168 1.920 . S
Co137 O140 1.966 . S
Co137 N146 2.022 . S
Co137 N154 1.993 . S
Co137 O162 1.941 . S
C138 O139 1.258 . S
C138 O140 1.263 . S
O139 Co136 1.970 . S
O139 C138 1.258 . S
O140 Co137 1.966 . S
O140 C138 1.263 . S
C141 O142 1.235 . S
C141 O168 1.289 . S
O142 C141 1.235 . S
C143 C145 1.400 . S
C143 N146 1.351 1_554 S
C143 C148 1.501 1_554 S
C144 C145 1.387 . S
C144 N147 1.341 . S
C145 C143 1.400 . S
C145 C144 1.387 . S
N146 Co137 2.022 . S
N146 C143 1.351 1_556 S
N146 N147 1.365 1_556 S
N147 C144 1.341 . S
N147 N146 1.365 1_554 S
N147 H167 0.862 . S
C148 C143 1.501 1_556 S
C148 H149 0.961 . S
C148 H150 0.961 . S
C148 H151 0.960 1_556 S
H149 C148 0.961 . S
H150 C148 0.961 . S
H151 C148 0.960 1_554 S
C152 N153 1.342 . S
C152 C156 1.401 . S
C152 C157 1.499 . S
N153 Co136 1.989 . S
N153 C152 1.342 . S
N153 N154 1.388 . S
N154 Co137 1.993 . S
N154 N153 1.388 . S
N154 C155 1.346 . S
C155 N154 1.346 . S
C155 C156 1.396 . S
C155 C165 1.510 . S
C156 C152 1.401 . S
C156 C155 1.396 . S
C157 C152 1.499 . S
C157 H158 0.959 . S
C157 H159 0.960 . S
C157 H160 0.961 . S
H158 C157 0.959 . S
H159 C157 0.960 . S
H160 C157 0.961 . S
O161 Co136 1.967 . S
O161 C169 1.258 . S
O162 Co137 1.941 . S
O162 C169 1.266 . S
H163 C165 0.959 . S
H164 C165 0.961 . S
C165 C155 1.510 . S
C165 H163 0.959 . S
C165 H164 0.961 . S
C165 H166 0.960 . S
H166 C165 0.960 . S
H167 N147 0.862 . S
O168 Co136 1.920 . S
O168 C141 1.289 . S
C169 O161 1.258 . S
C169 O162 1.266 . S
Co170 O173 1.970 . S
Co170 N187 1.989 . S
Co170 O195 1.967 . S
Co170 O202 1.920 . S
Co171 O174 1.966 1_554 S
Co171 N180 2.022 . S
Co171 N188 1.993 1_554 S
Co171 O196 1.941 1_554 S
C172 O173 1.258 . S
C172 O174 1.263 . S
O173 Co170 1.970 . S
O173 C172 1.258 . S
O174 Co171 1.966 1_556 S
O174 C172 1.263 . S
C175 O176 1.235 . S
C175 O202 1.289 . S
O176 C175 1.235 . S
C177 C179 1.400 . S
C177 N180 1.351 . S
C177 C182 1.501 . S
C178 C179 1.387 . S
C178 N181 1.341 . S
C179 C177 1.400 . S
C179 C178 1.387 . S
N180 Co171 2.022 . S
N180 C177 1.351 . S
N180 N181 1.365 . S
N181 C178 1.341 . S
N181 N180 1.365 . S
N181 H201 0.862 . S
C182 C177 1.501 . S
C182 H183 0.961 . S
C182 H184 0.961 . S
C182 H185 0.960 . S
H183 C182 0.961 . S
H184 C182 0.961 . S
H185 C182 0.960 . S
C186 N187 1.342 . S
C186 C190 1.401 . S
C186 C191 1.499 . S
N187 Co170 1.989 . S
N187 C186 1.342 . S
N187 N188 1.388 . S
N188 Co171 1.993 1_556 S
N188 N187 1.388 . S
N188 C189 1.346 1_556 S
C189 N188 1.346 1_554 S
C189 C190 1.396 1_554 S
C189 C199 1.510 . S
C190 C186 1.401 . S
C190 C189 1.396 1_556 S
C191 C186 1.499 . S
C191 H192 0.959 . S
C191 H193 0.960 . S
C191 H194 0.961 . S
H192 C191 0.959 . S
H193 C191 0.960 . S
H194 C191 0.961 . S
O195 Co170 1.967 . S
O195 C203 1.258 . S
O196 Co171 1.941 1_556 S
O196 C203 1.266 . S
H197 C199 0.959 . S
H198 C199 0.961 . S
C199 C189 1.510 . S
C199 H197 0.959 . S
C199 H198 0.961 . S
C199 H200 0.960 . S
H200 C199 0.960 . S
H201 N181 0.862 . S
O202 Co170 1.920 . S
O202 C175 1.289 . S
C203 O195 1.258 . S
C203 O196 1.266 . S
Co204 O207 1.970 . S
Co204 N221 1.989 . S
Co204 O229 1.967 . S
Co204 O236 1.920 1_556 S
Co205 O208 1.966 . S
Co205 N214 2.022 . S
Co205 N222 1.993 . S
Co205 O230 1.941 . S
C206 O207 1.258 . S
C206 O208 1.263 . S
O207 Co204 1.970 . S
O207 C206 1.258 . S
O208 Co205 1.966 . S
O208 C206 1.263 . S
C209 O210 1.235 . S
C209 O236 1.289 . S
O210 C209 1.235 . S
C211 C213 1.400 . S
C211 N214 1.351 . S
C211 C216 1.501 . S
C212 C213 1.387 . S
C212 N215 1.341 . S
C213 C211 1.400 . S
C213 C212 1.387 . S
N214 Co205 2.022 . S
N214 C211 1.351 . S
N214 N215 1.365 . S
N215 C212 1.341 . S
N215 N214 1.365 . S
N215 H235 0.862 . S
C216 C211 1.501 . S
C216 H217 0.961 . S
C216 H218 0.961 . S
C216 H219 0.960 . S
H217 C216 0.961 . S
H218 C216 0.961 . S
H219 C216 0.960 . S
C220 N221 1.342 . S
C220 C224 1.401 . S
C220 C225 1.499 . S
N221 Co204 1.989 . S
N221 C220 1.342 . S
N221 N222 1.388 . S
N222 Co205 1.993 . S
N222 N221 1.388 . S
N222 C223 1.346 . S
C223 N222 1.346 . S
C223 C224 1.396 . S
C223 C233 1.510 . S
C224 C220 1.401 . S
C224 C223 1.396 . S
C225 C220 1.499 . S
C225 H226 0.959 . S
C225 H227 0.960 . S
C225 H228 0.961 . S
H226 C225 0.959 . S
H227 C225 0.960 . S
H228 C225 0.961 . S
O229 Co204 1.967 . S
O229 C237 1.258 . S
O230 Co205 1.941 . S
O230 C237 1.266 . S
H231 C233 0.959 . S
H232 C233 0.961 . S
C233 C223 1.510 . S
C233 H231 0.959 . S
C233 H232 0.961 . S
C233 H234 0.960 . S
H234 C233 0.960 . S
H235 N215 0.862 . S
O236 Co204 1.920 1_554 S
O236 C209 1.289 . S
C237 O229 1.258 . S
C237 O230 1.266 . S
Co238 O241 1.970 . S
Co238 N255 1.989 1_554 S
Co238 O263 1.967 . S
Co238 O270 1.920 . S
Co239 O242 1.966 . S
Co239 N248 2.022 . S
Co239 N256 1.993 . S
Co239 O264 1.941 . S
C240 O241 1.258 1_556 S
C240 O242 1.263 . S
O241 Co238 1.970 . S
O241 C240 1.258 1_554 S
O242 Co239 1.966 . S
O242 C240 1.263 . S
C243 O244 1.235 . S
C243 O270 1.289 . S
O244 C243 1.235 . S
C245 C247 1.400 . S
C245 N248 1.351 . S
C245 C250 1.501 . S
C246 C247 1.387 . S
C246 N249 1.341 . S
C247 C245 1.400 . S
C247 C246 1.387 . S
N248 Co239 2.022 . S
N248 C245 1.351 . S
N248 N249 1.365 . S
N249 C246 1.341 . S
N249 N248 1.365 . S
N249 H269 0.862 . S
C250 C245 1.501 . S
C250 H251 0.961 . S
C250 H252 0.961 . S
C250 H253 0.960 . S
H251 C250 0.961 . S
H252 C250 0.961 . S
H253 C250 0.960 . S
C254 N255 1.342 . S
C254 C258 1.401 . S
C254 C259 1.499 1_556 S
N255 Co238 1.989 1_556 S
N255 C254 1.342 . S
N255 N256 1.388 . S
N256 Co239 1.993 . S
N256 N255 1.388 . S
N256 C257 1.346 . S
C257 N256 1.346 . S
C257 C258 1.396 . S
C257 C267 1.510 . S
C258 C254 1.401 . S
C258 C257 1.396 . S
C259 C254 1.499 1_554 S
C259 H260 0.959 . S
C259 H261 0.960 . S
C259 H262 0.961 . S
H260 C259 0.959 . S
H261 C259 0.960 . S
H262 C259 0.961 . S
O263 Co238 1.967 . S
O263 C271 1.258 1_554 S
O264 Co239 1.941 . S
O264 C271 1.266 . S
H265 C267 0.959 . S
H266 C267 0.961 . S
C267 C257 1.510 . S
C267 H265 0.959 . S
C267 H266 0.961 . S
C267 H268 0.960 . S
H268 C267 0.960 . S
H269 N249 0.862 . S
O270 Co238 1.920 . S
O270 C243 1.289 . S
C271 O263 1.258 1_556 S
C271 O264 1.266 . S
Co272 O275 1.970 . S
Co272 N289 1.989 . S
Co272 O297 1.967 . S
Co272 O304 1.920 . S
Co273 O276 1.966 1_556 S
Co273 N282 2.022 . S
Co273 N290 1.993 1_556 S
Co273 O298 1.941 1_556 S
C274 O275 1.258 . S
C274 O276 1.263 . S
O275 Co272 1.970 . S
O275 C274 1.258 . S
O276 Co273 1.966 1_554 S
O276 C274 1.263 . S
C277 O278 1.235 . S
C277 O304 1.289 . S
O278 C277 1.235 . S
C279 C281 1.400 . S
C279 N282 1.351 . S
C279 C284 1.501 . S
C280 C281 1.387 . S
C280 N283 1.341 . S
C281 C279 1.400 . S
C281 C280 1.387 . S
N282 Co273 2.022 . S
N282 C279 1.351 . S
N282 N283 1.365 . S
N283 C280 1.341 . S
N283 N282 1.365 . S
N283 H303 0.862 . S
C284 C279 1.501 . S
C284 H285 0.961 . S
C284 H286 0.961 . S
C284 H287 0.960 . S
H285 C284 0.961 . S
H286 C284 0.961 . S
H287 C284 0.960 . S
C288 N289 1.342 . S
C288 C292 1.401 . S
C288 C293 1.499 . S
N289 Co272 1.989 . S
N289 C288 1.342 . S
N289 N290 1.388 . S
N290 Co273 1.993 1_554 S
N290 N289 1.388 . S
N290 C291 1.346 1_554 S
C291 N290 1.346 1_556 S
C291 C292 1.396 1_556 S
C291 C301 1.510 . S
C292 C288 1.401 . S
C292 C291 1.396 1_554 S
C293 C288 1.499 . S
C293 H294 0.959 . S
C293 H295 0.960 . S
C293 H296 0.961 . S
H294 C293 0.959 . S
H295 C293 0.960 . S
H296 C293 0.961 . S
O297 Co272 1.967 . S
O297 C305 1.258 . S
O298 Co273 1.941 1_554 S
O298 C305 1.266 . S
H299 C301 0.959 . S
H300 C301 0.961 . S
C301 C291 1.510 . S
C301 H299 0.959 . S
C301 H300 0.961 . S
C301 H302 0.960 . S
H302 C301 0.960 . S
H303 N283 0.862 . S
O304 Co272 1.920 . S
O304 C277 1.289 . S
C305 O297 1.258 . S
C305 O298 1.266 . S
Co306 O309 1.970 . S
Co306 N323 1.989 . S
Co306 O331 1.967 . S
Co306 O338 1.920 . S
Co307 O310 1.966 . S
Co307 N316 2.022 . S
Co307 N324 1.993 . S
Co307 O332 1.941 . S
C308 O309 1.258 . S
C308 O310 1.263 . S
O309 Co306 1.970 . S
O309 C308 1.258 . S
O310 Co307 1.966 . S
O310 C308 1.263 . S
C311 O312 1.235 . S
C311 O338 1.289 . S
O312 C311 1.235 . S
C313 C315 1.400 . S
C313 N316 1.351 1_556 S
C313 C318 1.501 1_556 S
C314 C315 1.387 . S
C314 N317 1.341 . S
C315 C313 1.400 . S
C315 C314 1.387 . S
N316 Co307 2.022 . S
N316 C313 1.351 1_554 S
N316 N317 1.365 1_554 S
N317 C314 1.341 . S
N317 N316 1.365 1_556 S
N317 H337 0.862 . S
C318 C313 1.501 1_554 S
C318 H319 0.961 . S
C318 H320 0.961 . S
C318 H321 0.960 1_554 S
H319 C318 0.961 . S
H320 C318 0.961 . S
H321 C318 0.960 1_556 S
C322 N323 1.342 . S
C322 C326 1.401 . S
C322 C327 1.499 . S
N323 Co306 1.989 . S
N323 C322 1.342 . S
N323 N324 1.388 . S
N324 Co307 1.993 . S
N324 N323 1.388 . S
N324 C325 1.346 . S
C325 N324 1.346 . S
C325 C326 1.396 . S
C325 C335 1.510 . S
C326 C322 1.401 . S
C326 C325 1.396 . S
C327 C322 1.499 . S
C327 H328 0.959 . S
C327 H329 0.960 . S
C327 H330 0.961 . S
H328 C327 0.959 . S
H329 C327 0.960 . S
H330 C327 0.961 . S
O331 Co306 1.967 . S
O331 C339 1.258 . S
O332 Co307 1.941 . S
O332 C339 1.266 . S
H333 C335 0.959 . S
H334 C335 0.961 . S
C335 C325 1.510 . S
C335 H333 0.959 . S
C335 H334 0.961 . S
C335 H336 0.960 . S
H336 C335 0.960 . S
H337 N317 0.862 . S
O338 Co306 1.920 . S
O338 C311 1.289 . S
C339 O331 1.258 . S
C339 O332 1.266 . S
Co340 O343 1.970 . S
Co340 N357 1.989 . S
Co340 O365 1.967 . S
Co340 O372 1.920 . S
Co341 O344 1.966 . S
Co341 N350 2.022 . S
Co341 N358 1.993 . S
Co341 O366 1.941 . S
C342 O343 1.258 . S
C342 O344 1.263 . S
O343 Co340 1.970 . S
O343 C342 1.258 . S
O344 Co341 1.966 . S
O344 C342 1.263 . S
C345 O346 1.235 . S
C345 O372 1.289 . S
O346 C345 1.235 . S
C347 C349 1.400 . S
C347 N350 1.351 . S
C347 C352 1.501 . S
C348 C349 1.387 . S
C348 N351 1.341 . S
C349 C347 1.400 . S
C349 C348 1.387 . S
N350 Co341 2.022 . S
N350 C347 1.351 . S
N350 N351 1.365 . S
N351 C348 1.341 . S
N351 N350 1.365 . S
N351 H371 0.862 . S
C352 C347 1.501 . S
C352 H353 0.961 . S
C352 H354 0.961 . S
C352 H355 0.960 . S
H353 C352 0.961 . S
H354 C352 0.961 . S
H355 C352 0.960 . S
C356 N357 1.342 . S
C356 C360 1.401 . S
C356 C361 1.499 . S
N357 Co340 1.989 . S
N357 C356 1.342 . S
N357 N358 1.388 . S
N358 Co341 1.993 . S
N358 N357 1.388 . S
N358 C359 1.346 . S
C359 N358 1.346 . S
C359 C360 1.396 . S
C359 C369 1.510 . S
C360 C356 1.401 . S
C360 C359 1.396 . S
C361 C356 1.499 . S
C361 H362 0.959 . S
C361 H363 0.960 . S
C361 H364 0.961 . S
H362 C361 0.959 . S
H363 C361 0.960 . S
H364 C361 0.961 . S
O365 Co340 1.967 . S
O365 C373 1.258 . S
O366 Co341 1.941 . S
O366 C373 1.266 . S
H367 C369 0.959 . S
H368 C369 0.961 . S
C369 C359 1.510 . S
C369 H367 0.959 . S
C369 H368 0.961 . S
C369 H370 0.960 . S
H370 C369 0.960 . S
H371 N351 0.862 . S
O372 Co340 1.920 . S
O372 C345 1.289 . S
C373 O365 1.258 . S
C373 O366 1.266 . S
Co374 O377 1.970 . S
Co374 N391 1.989 . S
Co374 O399 1.967 . S
Co374 O406 1.920 . S
Co375 O378 1.966 . S
Co375 N384 2.022 . S
Co375 N392 1.993 . S
Co375 O400 1.941 . S
C376 O377 1.258 . S
C376 O378 1.263 . S
O377 Co374 1.970 . S
O377 C376 1.258 . S
O378 Co375 1.966 . S
O378 C376 1.263 . S
C379 O380 1.235 . S
C379 O406 1.289 . S
O380 C379 1.235 . S
C381 C383 1.400 . S
C381 N384 1.351 . S
C381 C386 1.501 . S
C382 C383 1.387 . S
C382 N385 1.341 . S
C383 C381 1.400 . S
C383 C382 1.387 . S
N384 Co375 2.022 . S
N384 C381 1.351 . S
N384 N385 1.365 . S
N385 C382 1.341 . S
N385 N384 1.365 . S
N385 H405 0.862 . S
C386 C381 1.501 . S
C386 H387 0.961 . S
C386 H388 0.961 . S
C386 H389 0.960 . S
H387 C386 0.961 . S
H388 C386 0.961 . S
H389 C386 0.960 . S
C390 N391 1.342 . S
C390 C394 1.401 . S
C390 C395 1.499 . S
N391 Co374 1.989 . S
N391 C390 1.342 . S
N391 N392 1.388 . S
N392 Co375 1.993 . S
N392 N391 1.388 . S
N392 C393 1.346 . S
C393 N392 1.346 . S
C393 C394 1.396 . S
C393 C403 1.510 . S
C394 C390 1.401 . S
C394 C393 1.396 . S
C395 C390 1.499 . S
C395 H396 0.959 . S
C395 H397 0.960 . S
C395 H398 0.961 . S
H396 C395 0.959 . S
H397 C395 0.960 . S
H398 C395 0.961 . S
O399 Co374 1.967 . S
O399 C407 1.258 . S
O400 Co375 1.941 . S
O400 C407 1.266 . S
H401 C403 0.959 . S
H402 C403 0.961 . S
C403 C393 1.510 . S
C403 H401 0.959 . S
C403 H402 0.961 . S
C403 H404 0.960 . S
H404 C403 0.960 . S
H405 N385 0.862 . S
O406 Co374 1.920 . S
O406 C379 1.289 . S
C407 O399 1.258 . S
C407 O400 1.266 . S
C408 C409 1.363 . S
C408 C414 1.379 . S
C408 N416 1.356 1_554 S
C409 C408 1.363 . S
C409 C415 1.363 . S
C410 C411 1.363 . S
C410 C415 1.379 . S
C410 N417 1.356 . S
C411 C410 1.363 . S
C411 C414 1.363 . S
N412 C414 1.356 1_556 S
N412 H424 0.984 . S
N412 H425 0.985 . S
N413 C415 1.356 . S
N413 H418 0.984 . S
N413 H419 0.985 . S
C414 C408 1.379 . S
C414 C411 1.363 . S
C414 N412 1.356 1_554 S
C415 C409 1.363 . S
C415 C410 1.379 . S
C415 N413 1.356 . S
N416 C408 1.356 1_556 S
N416 H422 0.984 . S
N416 H423 0.984 1_556 S
N417 C410 1.356 . S
N417 H420 0.984 . S
N417 H421 0.985 . S
H418 N413 0.984 . S
H419 N413 0.985 . S
H420 N417 0.984 . S
H421 N417 0.985 . S
H422 N416 0.984 . S
H423 N416 0.984 1_554 S
H424 N412 0.984 . S
H425 N412 0.985 . S
C426 C427 1.363 . S
C426 C432 1.379 . S
C426 N434 1.356 . S
C427 C426 1.363 . S
C427 C433 1.363 . S
C428 C429 1.363 . S
C428 C433 1.379 . S
C428 N435 1.356 . S
C429 C428 1.363 . S
C429 C432 1.363 . S
N430 C432 1.356 . S
N430 H442 0.984 . S
N430 H443 0.985 . S
N431 C433 1.356 . S
N431 H436 0.984 . S
N431 H437 0.985 . S
C432 C426 1.379 . S
C432 C429 1.363 . S
C432 N430 1.356 . S
C433 C427 1.363 . S
C433 C428 1.379 . S
C433 N431 1.356 . S
N434 C426 1.356 . S
N434 H440 0.984 . S
N434 H441 0.984 . S
N435 C428 1.356 . S
N435 H438 0.984 . S
N435 H439 0.985 . S
H436 N431 0.984 . S
H437 N431 0.985 . S
H438 N435 0.984 . S
H439 N435 0.985 . S
H440 N434 0.984 . S
H441 N434 0.984 . S
H442 N430 0.984 . S
H443 N430 0.985 . S
C444 C445 1.363 . S
C444 C450 1.379 . S
C444 N452 1.356 . S
C445 C444 1.363 . S
C445 C451 1.363 . S
C446 C447 1.363 . S
C446 C451 1.379 . S
C446 N453 1.356 . S
C447 C446 1.363 . S
C447 C450 1.363 . S
N448 C450 1.356 . S
N448 H460 0.984 . S
N448 H461 0.985 . S
N449 C451 1.356 . S
N449 H454 0.984 . S
N449 H455 0.985 . S
C450 C444 1.379 . S
C450 C447 1.363 . S
C450 N448 1.356 . S
C451 C445 1.363 . S
C451 C446 1.379 . S
C451 N449 1.356 . S
N452 C444 1.356 . S
N452 H458 0.984 . S
N452 H459 0.984 . S
N453 C446 1.356 . S
N453 H456 0.984 . S
N453 H457 0.985 . S
H454 N449 0.984 . S
H455 N449 0.985 . S
H456 N453 0.984 . S
H457 N453 0.985 . S
H458 N452 0.984 . S
H459 N452 0.984 . S
H460 N448 0.984 . S
H461 N448 0.985 . S
C462 C463 1.363 . S
C462 C468 1.379 . S
C462 N470 1.356 . S
C463 C462 1.363 . S
C463 C469 1.363 . S
C464 C465 1.363 . S
C464 C469 1.379 . S
C464 N471 1.356 . S
C465 C464 1.363 . S
C465 C468 1.363 . S
N466 C468 1.356 . S
N466 H478 0.984 . S
N466 H479 0.985 . S
N467 C469 1.356 . S
N467 H472 0.984 . S
N467 H473 0.985 . S
C468 C462 1.379 . S
C468 C465 1.363 . S
C468 N466 1.356 . S
C469 C463 1.363 . S
C469 C464 1.379 . S
C469 N467 1.356 . S
N470 C462 1.356 . S
N470 H476 0.984 . S
N470 H477 0.984 . S
N471 C464 1.356 . S
N471 H474 0.984 . S
N471 H475 0.985 . S
H472 N467 0.984 . S
H473 N467 0.985 . S
H474 N471 0.984 . S
H475 N471 0.985 . S
H476 N470 0.984 . S
H477 N470 0.984 . S
H478 N466 0.984 . S
H479 N466 0.985 . S
C480 C481 1.363 . S
C480 C486 1.379 . S
C480 N488 1.356 . S
C481 C480 1.363 . S
C481 C487 1.363 . S
C482 C483 1.363 . S
C482 C487 1.379 . S
C482 N489 1.356 . S
C483 C482 1.363 . S
C483 C486 1.363 . S
N484 C486 1.356 . S
N484 H496 0.984 . S
N484 H497 0.985 . S
N485 C487 1.356 . S
N485 H490 0.984 . S
N485 H491 0.985 . S
C486 C480 1.379 . S
C486 C483 1.363 . S
C486 N484 1.356 . S
C487 C481 1.363 . S
C487 C482 1.379 . S
C487 N485 1.356 . S
N488 C480 1.356 . S
N488 H494 0.984 . S
N488 H495 0.984 . S
N489 C482 1.356 . S
N489 H492 0.984 . S
N489 H493 0.985 . S
H490 N485 0.984 . S
H491 N485 0.985 . S
H492 N489 0.984 . S
H493 N489 0.985 . S
H494 N488 0.984 . S
H495 N488 0.984 . S
H496 N484 0.984 . S
H497 N484 0.985 . S
C498 C499 1.363 . S
C498 C504 1.379 . S
C498 N506 1.356 . S
C499 C498 1.363 . S
C499 C505 1.363 . S
C500 C501 1.363 . S
C500 C505 1.379 . S
C500 N507 1.356 . S
C501 C500 1.363 . S
C501 C504 1.363 . S
N502 C504 1.356 . S
N502 H514 0.984 . S
N502 H515 0.985 . S
N503 C505 1.356 . S
N503 H508 0.984 . S
N503 H509 0.985 . S
C504 C498 1.379 . S
C504 C501 1.363 . S
C504 N502 1.356 . S
C505 C499 1.363 . S
C505 C500 1.379 . S
C505 N503 1.356 . S
N506 C498 1.356 . S
N506 H512 0.984 . S
N506 H513 0.984 . S
N507 C500 1.356 . S
N507 H510 0.984 . S
N507 H511 0.985 . S
H508 N503 0.984 . S
H509 N503 0.985 . S
H510 N507 0.984 . S
H511 N507 0.985 . S
H512 N506 0.984 . S
H513 N506 0.984 . S
H514 N502 0.984 . S
H515 N502 0.985 . S
C516 C517 1.363 . S
C516 C522 1.379 1_455 S
C516 N524 1.356 . S
C517 C516 1.363 . S
C517 C523 1.363 . S
C518 C519 1.363 . S
C518 C523 1.379 1_655 S
C518 N525 1.356 . S
C519 C518 1.363 . S
C519 C522 1.363 . S
N520 C522 1.356 . S
N520 H532 0.984 . S
N520 H533 0.985 . S
N521 C523 1.356 . S
N521 H526 0.984 1_556 S
N521 H527 0.985 . S
C522 C516 1.379 1_655 S
C522 C519 1.363 . S
C522 N520 1.356 . S
C523 C517 1.363 . S
C523 C518 1.379 1_455 S
C523 N521 1.356 . S
N524 C516 1.356 . S
N524 H530 0.984 . S
N524 H531 0.984 1_556 S
N525 C518 1.356 . S
N525 H528 0.984 . S
N525 H529 0.985 . S
H526 N521 0.984 1_554 S
H527 N521 0.985 . S
H528 N525 0.984 . S
H529 N525 0.985 . S
H530 N524 0.984 . S
H531 N524 0.984 1_554 S
H532 N520 0.984 . S
H533 N520 0.985 . S
C534 C535 1.363 . S
C534 C540 1.379 1_556 S
C534 N542 1.356 . S
C535 C534 1.363 . S
C535 C541 1.363 1_565 S
C536 C537 1.363 . S
C536 C541 1.379 1_554 S
C536 N543 1.356 . S
C537 C536 1.363 . S
C537 C540 1.363 1_545 S
N538 C540 1.356 . S
N538 H550 0.984 . S
N538 H551 0.985 . S
N539 C541 1.356 . S
N539 H544 0.984 . S
N539 H545 0.985 . S
C540 C534 1.379 1_554 S
C540 C537 1.363 1_565 S
C540 N538 1.356 . S
C541 C535 1.363 1_545 S
C541 C536 1.379 1_556 S
C541 N539 1.356 . S
N542 C534 1.356 . S
N542 H548 0.984 . S
N542 H549 0.984 . S
N543 C536 1.356 . S
N543 H546 0.984 . S
N543 H547 0.985 . S
H544 N539 0.984 . S
H545 N539 0.985 . S
H546 N543 0.984 . S
H547 N543 0.985 . S
H548 N542 0.984 . S
H549 N542 0.984 . S
H550 N538 0.984 . S
H551 N538 0.985 . S
C552 C553 1.363 . S
C552 C558 1.379 . S
C552 N560 1.356 . S
C553 C552 1.363 . S
C553 C559 1.363 . S
C554 C555 1.363 . S
C554 C559 1.379 . S
C554 N561 1.356 . S
C555 C554 1.363 . S
C555 C558 1.363 . S
N556 C558 1.356 . S
N556 H568 0.984 1_554 S
N556 H569 0.985 1_554 S
N557 C559 1.356 . S
N557 H562 0.984 . S
N557 H563 0.985 . S
C558 C552 1.379 . S
C558 C555 1.363 . S
C558 N556 1.356 . S
C559 C553 1.363 . S
C559 C554 1.379 . S
C559 N557 1.356 . S
N560 C552 1.356 . S
N560 H566 0.984 . S
N560 H567 0.984 . S
N561 C554 1.356 . S
N561 H564 0.984 . S
N561 H565 0.985 . S
H562 N557 0.984 . S
H563 N557 0.985 . S
H564 N561 0.984 . S
H565 N561 0.985 . S
H566 N560 0.984 . S
H567 N560 0.984 . S
H568 N556 0.984 1_556 S
H569 N556 0.985 1_556 S
C570 C571 1.363 . S
C570 C576 1.379 1_655 S
C570 N578 1.356 . S
C571 C570 1.363 . S
C571 C577 1.363 . S
C572 C573 1.363 . S
C572 C577 1.379 1_455 S
C572 N579 1.356 . S
C573 C572 1.363 . S
C573 C576 1.363 . S
N574 C576 1.356 . S
N574 H586 0.984 . S
N574 H587 0.985 . S
N575 C577 1.356 . S
N575 H580 0.984 . S
N575 H581 0.985 . S
C576 C570 1.379 1_455 S
C576 C573 1.363 . S
C576 N574 1.356 . S
C577 C571 1.363 . S
C577 C572 1.379 1_655 S
C577 N575 1.356 . S
N578 C570 1.356 . S
N578 H584 0.984 . S
N578 H585 0.984 . S
N579 C572 1.356 . S
N579 H582 0.984 . S
N579 H583 0.985 . S
H580 N575 0.984 . S
H581 N575 0.985 . S
H582 N579 0.984 . S
H583 N579 0.985 . S
H584 N578 0.984 . S
H585 N578 0.984 . S
H586 N574 0.984 . S
H587 N574 0.985 . S
C588 C589 1.363 . S
C588 C594 1.379 1_545 S
C588 N596 1.356 . S
C589 C588 1.363 . S
C589 C595 1.363 . S
C590 C591 1.363 . S
C590 C595 1.379 1_565 S
C590 N597 1.356 . S
C591 C590 1.363 . S
C591 C594 1.363 . S
N592 C594 1.356 . S
N592 H604 0.984 . S
N592 H605 0.985 . S
N593 C595 1.356 . S
N593 H598 0.984 . S
N593 H599 0.985 . S
C594 C588 1.379 1_565 S
C594 C591 1.363 . S
C594 N592 1.356 . S
C595 C589 1.363 . S
C595 C590 1.379 1_545 S
C595 N593 1.356 . S
N596 C588 1.356 . S
N596 H602 0.984 . S
N596 H603 0.984 . S
N597 C590 1.356 . S
N597 H600 0.984 . S
N597 H601 0.985 . S
H598 N593 0.984 . S
H599 N593 0.985 . S
H600 N597 0.984 . S
H601 N597 0.985 . S
H602 N596 0.984 . S
H603 N596 0.984 . S
H604 N592 0.984 . S
H605 N592 0.985 . S
C606 C607 1.363 . S
C606 C612 1.379 . S
C606 N614 1.356 . S
C607 C606 1.363 . S
C607 C613 1.363 . S
C608 C609 1.363 . S
C608 C613 1.379 . S
C608 N615 1.356 . S
C609 C608 1.363 . S
C609 C612 1.363 . S
N610 C612 1.356 . S
N610 H622 0.984 . S
N610 H623 0.985 . S
N611 C613 1.356 . S
N611 H616 0.984 . S
N611 H617 0.985 . S
C612 C606 1.379 . S
C612 C609 1.363 . S
C612 N610 1.356 . S
C613 C607 1.363 . S
C613 C608 1.379 . S
C613 N611 1.356 . S
N614 C606 1.356 . S
N614 H620 0.984 . S
N614 H621 0.984 . S
N615 C608 1.356 . S
N615 H618 0.984 . S
N615 H619 0.985 . S
H616 N611 0.984 . S
H617 N611 0.985 . S
H618 N615 0.984 . S
H619 N615 0.985 . S
H620 N614 0.984 . S
H621 N614 0.984 . S
H622 N610 0.984 . S
H623 N610 0.985 . S
C624 C625 1.363 . S
C624 C630 1.379 . S
C624 N632 1.356 . S
C625 C624 1.363 . S
C625 C631 1.363 . S
C626 C627 1.363 . S
C626 C631 1.379 . S
C626 N633 1.356 . S
C627 C626 1.363 . S
C627 C630 1.363 . S
N628 C630 1.356 . S
N628 H640 0.984 . S
N628 H641 0.985 . S
N629 C631 1.356 . S
N629 H634 0.984 . S
N629 H635 0.985 . S
C630 C624 1.379 . S
C630 C627 1.363 . S
C630 N628 1.356 . S
C631 C625 1.363 . S
C631 C626 1.379 . S
C631 N629 1.356 . S
N632 C624 1.356 . S
N632 H638 0.984 . S
N632 H639 0.984 . S
N633 C626 1.356 . S
N633 H636 0.984 . S
N633 H637 0.985 . S
H634 N629 0.984 . S
H635 N629 0.985 . S
H636 N633 0.984 . S
H637 N633 0.985 . S
H638 N632 0.984 . S
H639 N632 0.984 . S
H640 N628 0.984 . S
H641 N628 0.985 . S
C642 C643 1.363 . S
C642 C648 1.379 . S
C642 N650 1.356 . S
C643 C642 1.363 . S
C643 C649 1.363 . S
C644 C645 1.363 . S
C644 C649 1.379 . S
C644 N651 1.356 . S
C645 C644 1.363 . S
C645 C648 1.363 . S
N646 C648 1.356 . S
N646 H658 0.984 . S
N646 H659 0.985 . S
N647 C649 1.356 . S
N647 H652 0.984 . S
N647 H653 0.985 . S
C648 C642 1.379 . S
C648 C645 1.363 . S
C648 N646 1.356 . S
C649 C643 1.363 . S
C649 C644 1.379 . S
C649 N647 1.356 . S
N650 C642 1.356 . S
N650 H656 0.984 . S
N650 H657 0.984 . S
N651 C644 1.356 . S
N651 H654 0.984 . S
N651 H655 0.985 . S
H652 N647 0.984 . S
H653 N647 0.985 . S
H654 N651 0.984 . S
H655 N651 0.985 . S
H656 N650 0.984 . S
H657 N650 0.984 . S
H658 N646 0.984 . S
H659 N646 0.985 . S
C660 C661 1.363 . S
C660 C666 1.379 . S
C660 N668 1.356 . S
C661 C660 1.363 . S
C661 C667 1.363 . S
C662 C663 1.363 . S
C662 C667 1.379 . S
C662 N669 1.356 . S
C663 C662 1.363 . S
C663 C666 1.363 . S
N664 C666 1.356 . S
N664 H676 0.984 . S
N664 H677 0.985 . S
N665 C667 1.356 . S
N665 H670 0.984 . S
N665 H671 0.985 . S
C666 C660 1.379 . S
C666 C663 1.363 . S
C666 N664 1.356 . S
C667 C661 1.363 . S
C667 C662 1.379 . S
C667 N665 1.356 . S
N668 C660 1.356 . S
N668 H674 0.984 . S
N668 H675 0.984 . S
N669 C662 1.356 . S
N669 H672 0.984 . S
N669 H673 0.985 . S
H670 N665 0.984 . S
H671 N665 0.985 . S
H672 N669 0.984 . S
H673 N669 0.985 . S
H674 N668 0.984 . S
H675 N668 0.984 . S
H676 N664 0.984 . S
H677 N664 0.985 . S
C678 C679 1.363 . S
C678 C684 1.379 . S
C678 N686 1.356 . S
C679 C678 1.363 . S
C679 C685 1.363 . S
C680 C681 1.363 . S
C680 C685 1.379 . S
C680 N687 1.356 . S
C681 C680 1.363 . S
C681 C684 1.363 . S
N682 C684 1.356 . S
N682 H694 0.984 . S
N682 H695 0.985 . S
N683 C685 1.356 . S
N683 H688 0.984 . S
N683 H689 0.985 . S
C684 C678 1.379 . S
C684 C681 1.363 . S
C684 N682 1.356 . S
C685 C679 1.363 . S
C685 C680 1.379 . S
C685 N683 1.356 . S
N686 C678 1.356 . S
N686 H692 0.984 . S
N686 H693 0.984 . S
N687 C680 1.356 . S
N687 H690 0.984 . S
N687 H691 0.985 . S
H688 N683 0.984 . S
H689 N683 0.985 . S
H690 N687 0.984 . S
H691 N687 0.985 . S
H692 N686 0.984 . S
H693 N686 0.984 . S
H694 N682 0.984 . S
H695 N682 0.985 . S
C696 C697 1.363 . S
C696 C702 1.379 . S
C696 N704 1.356 . S
C697 C696 1.363 . S
C697 C703 1.363 . S
C698 C699 1.363 1_554 S
C698 C703 1.379 1_554 S
C698 N705 1.356 . S
C699 C698 1.363 1_556 S
C699 C702 1.363 . S
N700 C702 1.356 . S
N700 H712 0.984 . S
N700 H713 0.985 . S
N701 C703 1.356 . S
N701 H706 0.984 . S
N701 H707 0.985 1_556 S
C702 C696 1.379 . S
C702 C699 1.363 . S
C702 N700 1.356 . S
C703 C697 1.363 . S
C703 C698 1.379 1_556 S
C703 N701 1.356 . S
N704 C696 1.356 . S
N704 H710 0.984 . S
N704 H711 0.984 . S
N705 C698 1.356 . S
N705 H708 0.984 . S
N705 H709 0.985 . S
H706 N701 0.984 . S
H707 N701 0.985 1_554 S
H708 N705 0.984 . S
H709 N705 0.985 . S
H710 N704 0.984 . S
H711 N704 0.984 . S
H712 N700 0.984 . S
H713 N700 0.985 . S
C714 C715 1.363 . S
C714 C720 1.379 . S
C714 N722 1.356 . S
C715 C714 1.363 . S
C715 C721 1.363 . S
C716 C717 1.363 . S
C716 C721 1.379 . S
C716 N723 1.356 . S
C717 C716 1.363 . S
C717 C720 1.363 . S
N718 C720 1.356 1_556 S
N718 H730 0.984 . S
N718 H731 0.985 . S
N719 C721 1.356 . S
N719 H724 0.984 . S
N719 H725 0.985 . S
C720 C714 1.379 . S
C720 C717 1.363 . S
C720 N718 1.356 1_554 S
C721 C715 1.363 . S
C721 C716 1.379 . S
C721 N719 1.356 . S
N722 C714 1.356 . S
N722 H728 0.984 . S
N722 H729 0.984 . S
N723 C716 1.356 . S
N723 H726 0.984 . S
N723 H727 0.985 . S
H724 N719 0.984 . S
H725 N719 0.985 . S
H726 N723 0.984 . S
H727 N723 0.985 . S
H728 N722 0.984 . S
H729 N722 0.984 . S
H730 N718 0.984 . S
H731 N718 0.985 . S
C732 C733 1.363 . S
C732 C738 1.379 . S
C732 N740 1.356 . S
C733 C732 1.363 . S
C733 C739 1.363 . S
C734 C735 1.363 . S
C734 C739 1.379 . S
C734 N741 1.356 . S
C735 C734 1.363 . S
C735 C738 1.363 . S
N736 C738 1.356 . S
N736 H748 0.984 . S
N736 H749 0.985 . S
N737 C739 1.356 . S
N737 H742 0.984 . S
N737 H743 0.985 . S
C738 C732 1.379 . S
C738 C735 1.363 . S
C738 N736 1.356 . S
C739 C733 1.363 . S
C739 C734 1.379 . S
C739 N737 1.356 . S
N740 C732 1.356 . S
N740 H746 0.984 . S
N740 H747 0.984 . S
N741 C734 1.356 . S
N741 H744 0.984 . S
N741 H745 0.985 . S
H742 N737 0.984 . S
H743 N737 0.985 . S
H744 N741 0.984 . S
H745 N741 0.985 . S
H746 N740 0.984 . S
H747 N740 0.984 . S
H748 N736 0.984 . S
H749 N736 0.985 . S
C750 C751 1.363 . S
C750 C756 1.379 . S
C750 N758 1.356 . S
C751 C750 1.363 . S
C751 C757 1.363 . S
C752 C753 1.363 . S
C752 C757 1.379 . S
C752 N759 1.356 . S
C753 C752 1.363 . S
C753 C756 1.363 . S
N754 C756 1.356 . S
N754 H766 0.984 . S
N754 H767 0.985 . S
N755 C757 1.356 . S
N755 H760 0.984 . S
N755 H761 0.985 . S
C756 C750 1.379 . S
C756 C753 1.363 . S
C756 N754 1.356 . S
C757 C751 1.363 . S
C757 C752 1.379 . S
C757 N755 1.356 . S
N758 C750 1.356 . S
N758 H764 0.984 . S
N758 H765 0.984 . S
N759 C752 1.356 . S
N759 H762 0.984 . S
N759 H763 0.985 . S
H760 N755 0.984 . S
H761 N755 0.985 . S
H762 N759 0.984 . S
H763 N759 0.985 . S
H764 N758 0.984 . S
H765 N758 0.984 . S
H766 N754 0.984 . S
H767 N754 0.985 . S
C768 C769 1.363 . S
C768 C774 1.379 . S
C768 N776 1.356 . S
C769 C768 1.363 . S
C769 C775 1.363 . S
C770 C771 1.363 1_556 S
C770 C775 1.379 . S
C770 N777 1.356 1_556 S
C771 C770 1.363 1_554 S
C771 C774 1.363 1_554 S
N772 C774 1.356 1_554 S
N772 H784 0.984 . S
N772 H785 0.985 . S
N773 C775 1.356 . S
N773 H778 0.984 . S
N773 H779 0.985 . S
C774 C768 1.379 . S
C774 C771 1.363 1_556 S
C774 N772 1.356 1_556 S
C775 C769 1.363 . S
C775 C770 1.379 . S
C775 N773 1.356 . S
N776 C768 1.356 . S
N776 H782 0.984 . S
N776 H783 0.984 . S
N777 C770 1.356 1_554 S
N777 H780 0.984 . S
N777 H781 0.985 1_554 S
H778 N773 0.984 . S
H779 N773 0.985 . S
H780 N777 0.984 . S
H781 N777 0.985 1_556 S
H782 N776 0.984 . S
H783 N776 0.984 . S
H784 N772 0.984 . S
H785 N772 0.985 . S
C786 C787 1.363 . S
C786 C792 1.379 . S
C786 N794 1.356 . S
C787 C786 1.363 . S
C787 C793 1.363 . S
C788 C789 1.363 . S
C788 C793 1.379 . S
C788 N795 1.356 . S
C789 C788 1.363 . S
C789 C792 1.363 . S
N790 C792 1.356 . S
N790 H802 0.984 . S
N790 H803 0.985 . S
N791 C793 1.356 1_556 S
N791 H796 0.984 . S
N791 H797 0.985 . S
C792 C786 1.379 . S
C792 C789 1.363 . S
C792 N790 1.356 . S
C793 C787 1.363 . S
C793 C788 1.379 . S
C793 N791 1.356 1_554 S
N794 C786 1.356 . S
N794 H800 0.984 . S
N794 H801 0.984 . S
N795 C788 1.356 . S
N795 H798 0.984 . S
N795 H799 0.985 . S
H796 N791 0.984 . S
H797 N791 0.985 . S
H798 N795 0.984 . S
H799 N795 0.985 . S
H800 N794 0.984 . S
H801 N794 0.984 . S
H802 N790 0.984 . S
H803 N790 0.985 . S
C804 C805 1.363 . S
C804 C810 1.379 . S
C804 N812 1.356 . S
C805 C804 1.363 . S
C805 C811 1.363 . S
C806 C807 1.363 . S
C806 C811 1.379 . S
C806 N813 1.356 . S
C807 C806 1.363 . S
C807 C810 1.363 . S
N808 C810 1.356 . S
N808 H820 0.984 . S
N808 H821 0.985 . S
N809 C811 1.356 . S
N809 H814 0.984 . S
N809 H815 0.985 . S
C810 C804 1.379 . S
C810 C807 1.363 . S
C810 N808 1.356 . S
C811 C805 1.363 . S
C811 C806 1.379 . S
C811 N809 1.356 . S
N812 C804 1.356 . S
N812 H818 0.984 . S
N812 H819 0.984 . S
N813 C806 1.356 . S
N813 H816 0.984 . S
N813 H817 0.985 . S
H814 N809 0.984 . S
H815 N809 0.985 . S
H816 N813 0.984 . S
H817 N813 0.985 . S
H818 N812 0.984 . S
H819 N812 0.984 . S
H820 N808 0.984 . S
H821 N808 0.985 . S
C822 C823 1.363 . S
C822 C828 1.379 . S
C822 N830 1.356 . S
C823 C822 1.363 . S
C823 C829 1.363 . S
C824 C825 1.363 . S
C824 C829 1.379 . S
C824 N831 1.356 . S
C825 C824 1.363 . S
C825 C828 1.363 . S
N826 C828 1.356 . S
N826 H838 0.984 . S
N826 H839 0.985 . S
N827 C829 1.356 . S
N827 H832 0.984 . S
N827 H833 0.985 . S
C828 C822 1.379 . S
C828 C825 1.363 . S
C828 N826 1.356 . S
C829 C823 1.363 . S
C829 C824 1.379 . S
C829 N827 1.356 . S
N830 C822 1.356 . S
N830 H836 0.984 . S
N830 H837 0.984 . S
N831 C824 1.356 . S
N831 H834 0.984 . S
N831 H835 0.985 . S
H832 N827 0.984 . S
H833 N827 0.985 . S
H834 N831 0.984 . S
H835 N831 0.985 . S
H836 N830 0.984 . S
H837 N830 0.984 . S
H838 N826 0.984 . S
H839 N826 0.985 . S
C840 C841 1.363 . S
C840 C846 1.379 . S
C840 N848 1.356 . S
C841 C840 1.363 . S
C841 C847 1.363 . S
C842 C843 1.363 . S
C842 C847 1.379 . S
C842 N849 1.356 . S
C843 C842 1.363 . S
C843 C846 1.363 . S
N844 C846 1.356 . S
N844 H856 0.984 . S
N844 H857 0.985 . S
N845 C847 1.356 . S
N845 H850 0.984 . S
N845 H851 0.985 . S
C846 C840 1.379 . S
C846 C843 1.363 . S
C846 N844 1.356 . S
C847 C841 1.363 . S
C847 C842 1.379 . S
C847 N845 1.356 . S
N848 C840 1.356 . S
N848 H854 0.984 . S
N848 H855 0.984 . S
N849 C842 1.356 . S
N849 H852 0.984 . S
N849 H853 0.985 . S
H850 N845 0.984 . S
H851 N845 0.985 . S
H852 N849 0.984 . S
H853 N849 0.985 . S
H854 N848 0.984 . S
H855 N848 0.984 . S
H856 N844 0.984 . S
H857 N844 0.985 . S
C858 C859 1.363 . S
C858 C864 1.379 . S
C858 N866 1.356 . S
C859 C858 1.363 . S
C859 C865 1.363 . S
C860 C861 1.363 . S
C860 C865 1.379 . S
C860 N867 1.356 . S
C861 C860 1.363 . S
C861 C864 1.363 . S
N862 C864 1.356 . S
N862 H874 0.984 . S
N862 H875 0.985 . S
N863 C865 1.356 . S
N863 H868 0.984 . S
N863 H869 0.985 . S
C864 C858 1.379 . S
C864 C861 1.363 . S
C864 N862 1.356 . S
C865 C859 1.363 . S
C865 C860 1.379 . S
C865 N863 1.356 . S
N866 C858 1.356 . S
N866 H872 0.984 . S
N866 H873 0.984 . S
N867 C860 1.356 . S
N867 H870 0.984 . S
N867 H871 0.985 . S
H868 N863 0.984 . S
H869 N863 0.985 . S
H870 N867 0.984 . S
H871 N867 0.985 . S
H872 N866 0.984 . S
H873 N866 0.984 . S
H874 N862 0.984 . S
H875 N862 0.985 . S
C876 C877 1.363 . S
C876 C882 1.379 . S
C876 N884 1.356 . S
C877 C876 1.363 . S
C877 C883 1.363 . S
C878 C879 1.363 . S
C878 C883 1.379 . S
C878 N885 1.356 . S
C879 C878 1.363 . S
C879 C882 1.363 . S
N880 C882 1.356 . S
N880 H892 0.984 . S
N880 H893 0.985 . S
N881 C883 1.356 . S
N881 H886 0.984 . S
N881 H887 0.985 . S
C882 C876 1.379 . S
C882 C879 1.363 . S
C882 N880 1.356 . S
C883 C877 1.363 . S
C883 C878 1.379 . S
C883 N881 1.356 . S
N884 C876 1.356 . S
N884 H890 0.984 . S
N884 H891 0.984 . S
N885 C878 1.356 . S
N885 H888 0.984 . S
N885 H889 0.985 . S
H886 N881 0.984 . S
H887 N881 0.985 . S
H888 N885 0.984 . S
H889 N885 0.985 . S
H890 N884 0.984 . S
H891 N884 0.984 . S
H892 N880 0.984 . S
H893 N880 0.985 . S
C894 C895 1.363 . S
C894 C900 1.379 . S
C894 N902 1.356 . S
C895 C894 1.363 . S
C895 C901 1.363 . S
C896 C897 1.363 . S
C896 C901 1.379 . S
C896 N903 1.356 . S
C897 C896 1.363 . S
C897 C900 1.363 . S
N898 C900 1.356 . S
N898 H910 0.984 . S
N898 H911 0.985 . S
N899 C901 1.356 . S
N899 H904 0.984 . S
N899 H905 0.985 . S
C900 C894 1.379 . S
C900 C897 1.363 . S
C900 N898 1.356 . S
C901 C895 1.363 . S
C901 C896 1.379 . S
C901 N899 1.356 . S
N902 C894 1.356 . S
N902 H908 0.984 . S
N902 H909 0.984 . S
N903 C896 1.356 . S
N903 H906 0.984 . S
N903 H907 0.985 . S
H904 N899 0.984 . S
H905 N899 0.985 . S
H906 N903 0.984 . S
H907 N903 0.985 . S
H908 N902 0.984 . S
H909 N902 0.984 . S
H910 N898 0.984 . S
H911 N898 0.985 . S
C912 C913 1.363 . S
C912 C918 1.379 . S
C912 N920 1.356 . S
C913 C912 1.363 . S
C913 C919 1.363 . S
C914 C915 1.363 . S
C914 C919 1.379 . S
C914 N921 1.356 . S
C915 C914 1.363 . S
C915 C918 1.363 . S
N916 C918 1.356 1_554 S
N916 H928 0.984 . S
N916 H929 0.985 . S
N917 C919 1.356 . S
N917 H922 0.984 . S
N917 H923 0.985 . S
C918 C912 1.379 . S
C918 C915 1.363 . S
C918 N916 1.356 1_556 S
C919 C913 1.363 . S
C919 C914 1.379 . S
C919 N917 1.356 . S
N920 C912 1.356 . S
N920 H926 0.984 . S
N920 H927 0.984 . S
N921 C914 1.356 . S
N921 H924 0.984 . S
N921 H925 0.985 . S
H922 N917 0.984 . S
H923 N917 0.985 . S
H924 N921 0.984 . S
H925 N921 0.985 . S
H926 N920 0.984 . S
H927 N920 0.984 . S
H928 N916 0.984 . S
H929 N916 0.985 . S
C930 C931 1.363 . S
C930 C936 1.379 . S
C930 N938 1.356 . S
C931 C930 1.363 . S
C931 C937 1.363 . S
C932 C933 1.363 1_554 S
C932 C937 1.379 . S
C932 N939 1.356 1_554 S
C933 C932 1.363 1_556 S
C933 C936 1.363 1_556 S
N934 C936 1.356 1_556 S
N934 H946 0.984 1_556 S
N934 H947 0.985 . S
N935 C937 1.356 . S
N935 H940 0.984 . S
N935 H941 0.985 . S
C936 C930 1.379 . S
C936 C933 1.363 1_554 S
C936 N934 1.356 1_554 S
C937 C931 1.363 . S
C937 C932 1.379 . S
C937 N935 1.356 . S
N938 C930 1.356 . S
N938 H944 0.984 . S
N938 H945 0.984 . S
N939 C932 1.356 1_556 S
N939 H942 0.984 . S
N939 H943 0.985 . S
H940 N935 0.984 . S
H941 N935 0.985 . S
H942 N939 0.984 . S
H943 N939 0.985 . S
H944 N938 0.984 . S
H945 N938 0.984 . S
H946 N934 0.984 1_554 S
H947 N934 0.985 . S
C409 C305 1.544 . S
C411 C33 1.544 . S
C427 C339 1.544 . S
C429 C67 1.544 . S
C445 C373 1.544 . S
C447 C101 1.544 . S
C463 C407 1.544 . S
C465 C135 1.544 . S
C481 C169 1.544 . S
C483 C237 1.544 . S
C499 C271 1.544 . S
C501 C203 1.544 . S
C517 C2 1.830 1_556 S
C519 C376 1.830 . S
C535 C206 1.830 . S
C537 C36 1.830 . S
C553 C70 1.830 . S
C555 C240 1.830 1_554 S
C571 C104 1.830 . S
C573 C274 1.830 . S
C589 C308 1.830 . S
C591 C138 1.830 . S
C607 C172 1.830 . S
C609 C342 1.830 . S
C625 C20 1.644 . S
C627 C360 1.644 . S
C643 C54 1.644 . S
C645 C394 1.644 . S
C661 C224 1.644 . S
C663 C88 1.644 . S
C679 C258 1.644 . S
C681 C122 1.644 . S
C697 C156 1.644 . S
C699 C292 1.644 1_556 S
C715 C326 1.644 . S
C717 C190 1.644 1_554 S
C733 C9 1.118 . S
C735 C5 1.273 . S
C751 C39 1.273 . S
C753 C43 1.118 . S
C769 C77 1.118 . S
C771 C73 1.273 . S
C787 C111 1.118 1_554 S
C789 C107 1.273 . S
C805 C141 1.273 . S
C807 C145 1.118 . S
C823 C175 1.273 . S
C825 C179 1.118 . S
C841 C209 1.273 . S
C843 C213 1.118 . S
C859 C243 1.273 . S
C861 C247 1.118 . S
C877 C277 1.273 . S
C879 C281 1.118 . S
C895 C311 1.273 . S
C897 C315 1.118 . S
C913 C345 1.273 . S
C915 C349 1.118 1_556 S
C931 C383 1.118 . S
C933 C379 1.273 . S
