# Generated by pormake.
# Topology ure, (4)-cn, num edge types: 1
# Building blocks:
#     Node 0, Type 0, BuildingBlock: TATPOV_clean_sbu_0, # of connection points: 4
#     Node 1, Type 0, BuildingBlock: TATPOV_clean_sbu_0, # of connection points: 4
#     Node 2, Type 0, BuildingBlock: TATPOV_clean_sbu_0, # of connection points: 4
#     Node 3, Type 0, BuildingBlock: TATPOV_clean_sbu_0, # of connection points: 4
#     Node 4, Type 0, BuildingBlock: TATPOV_clean_sbu_0, # of connection points: 4
#     Node 5, Type 0, BuildingBlock: TATPOV_clean_sbu_0, # of connection points: 4
#     Node 6, Type 0, BuildingBlock: TATPOV_clean_sbu_0, # of connection points: 4
#     Node 7, Type 0, BuildingBlock: TATPOV_clean_sbu_0, # of connection points: 4
#     Node 8, Type 0, BuildingBlock: TATPOV_clean_sbu_0, # of connection points: 4
#     Node 9, Type 0, BuildingBlock: TATPOV_clean_sbu_0, # of connection points: 4
#     Node 10, Type 0, BuildingBlock: TATPOV_clean_sbu_0, # of connection points: 4
#     Node 11, Type 0, BuildingBlock: TATPOV_clean_sbu_0, # of connection points: 4
#     Node 12, Type 0, BuildingBlock: TATPOV_clean_sbu_0, # of connection points: 4
#     Node 13, Type 0, BuildingBlock: TATPOV_clean_sbu_0, # of connection points: 4
#     Node 14, Type 0, BuildingBlock: TATPOV_clean_sbu_0, # of connection points: 4
#     Node 15, Type 0, BuildingBlock: TATPOV_clean_sbu_0, # of connection points: 4
#     Edge 16, Type (0, 0), BuildingBlock: AJUNOK_clean_linker_0, # of connection points: 2
#     Edge 17, Type (0, 0), BuildingBlock: AJUNOK_clean_linker_0, # of connection points: 2
#     Edge 18, Type (0, 0), BuildingBlock: AJUNOK_clean_linker_0, # of connection points: 2
#     Edge 19, Type (0, 0), BuildingBlock: AJUNOK_clean_linker_0, # of connection points: 2
#     Edge 20, Type (0, 0), BuildingBlock: AJUNOK_clean_linker_0, # of connection points: 2
#     Edge 21, Type (0, 0), BuildingBlock: AJUNOK_clean_linker_0, # of connection points: 2
#     Edge 22, Type (0, 0), BuildingBlock: AJUNOK_clean_linker_0, # of connection points: 2
#     Edge 23, Type (0, 0), BuildingBlock: AJUNOK_clean_linker_0, # of connection points: 2
#     Edge 24, Type (0, 0), BuildingBlock: AJUNOK_clean_linker_0, # of connection points: 2
#     Edge 25, Type (0, 0), BuildingBlock: AJUNOK_clean_linker_0, # of connection points: 2
#     Edge 26, Type (0, 0), BuildingBlock: AJUNOK_clean_linker_0, # of connection points: 2
#     Edge 27, Type (0, 0), BuildingBlock: AJUNOK_clean_linker_0, # of connection points: 2
#     Edge 28, Type (0, 0), BuildingBlock: AJUNOK_clean_linker_0, # of connection points: 2
#     Edge 29, Type (0, 0), BuildingBlock: AJUNOK_clean_linker_0, # of connection points: 2
#     Edge 30, Type (0, 0), BuildingBlock: AJUNOK_clean_linker_0, # of connection points: 2
#     Edge 31, Type (0, 0), BuildingBlock: AJUNOK_clean_linker_0, # of connection points: 2
#     Edge 32, Type (0, 0), BuildingBlock: AJUNOK_clean_linker_0, # of connection points: 2
#     Edge 33, Type (0, 0), BuildingBlock: AJUNOK_clean_linker_0, # of connection points: 2
#     Edge 34, Type (0, 0), BuildingBlock: AJUNOK_clean_linker_0, # of connection points: 2
#     Edge 35, Type (0, 0), BuildingBlock: AJUNOK_clean_linker_0, # of connection points: 2
#     Edge 36, Type (0, 0), BuildingBlock: AJUNOK_clean_linker_0, # of connection points: 2
#     Edge 37, Type (0, 0), BuildingBlock: AJUNOK_clean_linker_0, # of connection points: 2
#     Edge 38, Type (0, 0), BuildingBlock: AJUNOK_clean_linker_0, # of connection points: 2
#     Edge 39, Type (0, 0), BuildingBlock: AJUNOK_clean_linker_0, # of connection points: 2
#     Edge 40, Type (0, 0), BuildingBlock: AJUNOK_clean_linker_0, # of connection points: 2
#     Edge 41, Type (0, 0), BuildingBlock: AJUNOK_clean_linker_0, # of connection points: 2
#     Edge 42, Type (0, 0), BuildingBlock: AJUNOK_clean_linker_0, # of connection points: 2
#     Edge 43, Type (0, 0), BuildingBlock: AJUNOK_clean_linker_0, # of connection points: 2
#     Edge 44, Type (0, 0), BuildingBlock: AJUNOK_clean_linker_0, # of connection points: 2
#     Edge 45, Type (0, 0), BuildingBlock: AJUNOK_clean_linker_0, # of connection points: 2
#     Edge 46, Type (0, 0), BuildingBlock: AJUNOK_clean_linker_0, # of connection points: 2
#     Edge 47, Type (0, 0), BuildingBlock: AJUNOK_clean_linker_0, # of connection points: 2
# Relax obj value: 0.108
# Max RMSD: 0.074
# Mean RMSD: 0.074
data_MOF--net-ure--node1-TATPOV_clean_sbu_0--edge1-AJUNOK_clean_linker_0
_symmetry_space_group_name_H-M    P1
_symmetry_Int_Tables_number       1
_symmetry_cell_setting            triclinic
loop_
_symmetry_equiv_pos_as_xyz
'x, y, z'
_cell_length_a     24.701472
_cell_length_b     23.415014
_cell_length_c     23.392343
_cell_angle_alpha  90.209706
_cell_angle_beta   89.948485
_cell_angle_gamma 89.066168
loop_
_atom_site_label
_atom_site_type_symbol
_atom_site_fract_x
_atom_site_fract_y
_atom_site_fract_z
_atom_type_partial_charge
Zn0 Zn 0.31632 0.28977 0.31426 0.0
Zn1 Zn 0.25689 0.24592 0.24732 0.0
O2 O 0.33332 0.22997 0.21006 0.0
O3 O 0.37472 0.29757 0.25715 0.0
O4 O 0.19903 0.20839 0.19721 0.0
O5 O 0.32002 0.22746 0.37295 0.0
O6 O 0.24255 0.21497 0.32996 0.0
C7 C 0.37463 0.26156 0.21688 0.0
C8 C 0.24262 0.37087 0.28196 0.0
O9 O 0.23783 0.33248 0.24341 0.0
O10 O 0.26915 0.35916 0.32674 0.0
C11 C 0.20124 0.15823 0.17588 0.0
O12 O 0.24497 0.1267 0.18428 0.0
C13 C 0.27292 0.20743 0.37366 0.0
Zn14 Zn 0.93843 0.06485 0.54033 0.0
Zn15 Zn 0.97873 -0.01048 0.49688 0.0
O16 O 0.89615 0.97153 0.48155 0.0
O17 O 0.87159 0.02738 0.55244 0.0
O18 O 0.02811 0.92849 0.46159 0.0
O19 O 0.93525 0.12077 0.47698 0.0
O20 O 0.00751 0.06781 0.46386 0.0
C21 C 0.85966 -0.01002 0.51614 0.0
C22 C -0.00201 0.01946 0.62233 0.0
O23 O 0.99428 0.98062 0.58418 0.0
O24 O 0.98492 0.07037 0.60987 0.0
C25 C 0.03829 0.92252 0.40857 0.0
O26 O 0.01139 0.95413 0.37161 0.0
C27 C 0.98148 0.11471 0.45513 0.0
Zn28 Zn 0.1814 0.68488 0.80637 0.0
Zn29 Zn 0.22432 0.74691 0.74357 0.0
O30 O 0.14409 0.7452 0.71395 0.0
O31 O 0.12247 0.66394 0.75308 0.0
O32 O 0.26548 0.80014 0.69075 0.0
O33 O 0.16598 0.74116 0.86811 0.0
O34 O 0.23539 0.78008 0.82651 0.0
C35 C 0.11098 0.70407 0.71907 0.0
C36 C 0.27071 0.62883 0.76938 0.0
O37 O 0.26349 0.66838 0.73263 0.0
O38 O 0.24416 0.63099 0.8155 0.0
C39 C 0.28246 0.78288 0.64214 0.0
O40 O 0.2705 0.73102 0.62523 0.0
C41 C 0.20464 0.77568 0.87024 0.0
Zn42 Zn 0.55558 0.90796 0.0554 0.0
Zn43 Zn 0.50755 0.96376 -0.0028 0.0
O44 O 0.58842 -0.01454 0.9762 0.0
O45 O 0.61717 0.96085 0.06104 0.0
O46 O 0.45426 0.01692 0.95437 0.0
O47 O 0.56578 0.84392 0.00458 0.0
O48 O 0.49038 0.87855 0.96994 0.0
C49 C 0.62655 0.98321 0.01319 0.0
C50 C 0.48915 0.94711 0.12762 0.0
O51 O 0.49227 0.98152 0.0853 0.0
O52 O 0.50524 0.89633 0.12057 0.0
C53 C 0.46489 0.05082 0.91345 0.0
O54 O 0.51492 0.0533 0.89469 0.0
C55 C 0.52426 0.83683 0.97457 0.0
Zn56 Zn 0.32866 0.66489 0.15375 0.0
Zn57 Zn 0.27822 0.72852 0.22308 0.0
O58 O 0.35732 0.73898 0.25246 0.0
O59 O 0.39378 0.6675 0.204 0.0
O60 O 0.22636 0.77926 0.26916 0.0
O61 O 0.32405 0.71713 0.08637 0.0
O62 O 0.26263 0.75896 0.14063 0.0
C63 C 0.39795 0.70606 0.2417 0.0
C64 C 0.25131 0.60171 0.2101 0.0
O65 O 0.25174 0.64692 0.24066 0.0
O66 O 0.2769 0.60009 0.1633 0.0
C67 C 0.22047 0.78355 0.32307 0.0
O68 O 0.25347 0.75482 0.35675 0.0
C69 C 0.28613 0.75348 0.09223 0.0
Zn70 Zn 0.59159 0.1005 0.42535 0.0
Zn71 Zn 0.51872 0.00447 0.49097 0.0
O72 O 0.59057 0.96263 0.51796 0.0
O73 O 0.6134 0.03489 0.46864 0.0
O74 O 0.45665 0.96107 0.52713 0.0
O75 O 0.55868 0.15454 0.47979 0.0
O76 O 0.50712 0.08898 0.52092 0.0
C77 C 0.62782 -0.00781 0.49682 0.0
C78 C 0.51921 0.02935 0.35785 0.0
O79 O 0.50922 -0.00065 0.4023 0.0
O80 O 0.54706 0.07441 0.36011 0.0
C81 C 0.44579 0.90931 0.51581 0.0
O82 O 0.47607 0.88149 0.47844 0.0
C83 C 0.52364 0.14052 0.51649 0.0
Zn84 Zn 0.17876 0.33725 0.67993 0.0
Zn85 Zn 0.24021 0.27387 0.73018 0.0
O86 O 0.16245 0.26115 0.76561 0.0
O87 O 0.11817 0.33732 0.736 0.0
O88 O 0.29502 0.22199 0.77208 0.0
O89 O 0.17456 0.28911 0.61048 0.0
O90 O 0.24494 0.24344 0.64569 0.0
C91 C 0.11925 0.29234 0.76551 0.0
C92 C 0.26468 0.40144 0.71147 0.0
O93 O 0.27256 0.35617 0.74096 0.0
O94 O 0.22681 0.40297 0.67539 0.0
C95 C 0.28869 0.19175 0.8167 0.0
O96 O 0.24107 0.19167 0.84177 0.0
C97 C 0.21238 0.25268 0.60421 0.0
Zn98 Zn 0.91492 0.91573 0.91614 0.0
Zn99 Zn 0.96906 0.9637 0.98313 0.0
O100 O 0.89098 -0.00328 -0.00513 0.0
O101 O 0.86103 0.98125 0.90841 0.0
O102 O 0.02244 0.00614 0.03515 0.0
O103 O 0.8965 0.85173 0.96706 0.0
O104 O 0.97035 0.87824 0.0109 0.0
C105 C 0.85366 0.00292 0.95737 0.0
C106 C -0.00039 0.9452 0.85656 0.0
O107 O -0.00242 0.97828 0.90013 0.0
O108 O 0.97257 0.90011 0.85754 0.0
C109 C 0.021 0.05931 0.0473 0.0
O110 O 0.98116 0.09113 0.02713 0.0
C111 C 0.93334 0.84136 0.00307 0.0
Zn112 Zn 0.84586 0.16791 0.65686 0.0
Zn113 Zn 0.78277 0.21423 0.71803 0.0
O114 O 0.86028 0.23661 0.75344 0.0
O115 O 0.911 0.17652 0.70403 0.0
O116 O 0.72267 0.25324 0.76665 0.0
O117 O 0.84089 0.21588 0.58905 0.0
O118 O 0.76666 0.24389 0.63283 0.0
C119 C 0.90669 0.21288 0.74369 0.0
C120 C 0.77749 0.08445 0.69632 0.0
O121 O 0.76514 0.12636 0.72932 0.0
O122 O 0.80841 0.09344 0.65445 0.0
C123 C 0.72613 0.29692 0.7991 0.0
O124 O 0.7731 0.32197 0.80398 0.0
C125 C 0.79611 0.24236 0.58761 0.0
Zn126 Zn 0.05572 0.56515 0.9382 0.0
Zn127 Zn 0.01185 0.48994 -0.01213 0.0
O128 O 0.09407 0.47389 0.0044 0.0
O129 O 0.12544 0.52171 0.93133 0.0
O130 O 0.96802 0.43296 0.03336 0.0
O131 O 0.04791 0.62339 0.00124 0.0
O132 O 0.98008 0.56728 0.01806 0.0
C133 C 0.13351 0.48717 0.97189 0.0
C134 C 0.98787 0.51398 0.86313 0.0
O135 O 0.99404 0.47686 0.9025 0.0
O136 O 0.00384 0.5643 0.87147 0.0
C137 C 0.94521 0.38907 0.01288 0.0
O138 O 0.95335 0.37565 0.95893 0.0
C139 C 0.00299 0.61515 0.02525 0.0
Zn140 Zn 0.67265 0.81381 0.17048 0.0
Zn141 Zn 0.73542 0.75226 0.21879 0.0
O142 O 0.6583 0.73477 0.25266 0.0
O143 O 0.6144 0.81327 0.22885 0.0
O144 O 0.79033 0.70207 0.26119 0.0
O145 O 0.66864 0.76487 0.10093 0.0
O146 O 0.74411 0.72707 0.13355 0.0
C147 C 0.616 0.76695 0.25616 0.0
C148 C 0.75503 0.88046 0.20418 0.0
O149 O 0.76332 0.835 0.23317 0.0
O150 O 0.71833 0.88146 0.16689 0.0
C151 C 0.7836 0.68013 0.31036 0.0
O152 O 0.73746 0.68904 0.33713 0.0
C153 C 0.71062 0.73441 0.09261 0.0
Zn154 Zn 0.06527 0.41916 0.55563 0.0
Zn155 Zn 0.01188 0.47146 0.50068 0.0
O156 O 0.09057 0.50173 0.48448 0.0
O157 O 0.11647 0.48147 0.5714 0.0
O158 O 0.95594 0.5176 0.4558 0.0
O159 O 0.08594 0.36018 0.49866 0.0
O160 O 0.00329 0.38489 0.47537 0.0
C161 C 0.12618 0.50479 0.52402 0.0
C162 C 0.9892 0.44838 0.62548 0.0
O163 O 0.99002 0.48647 0.58659 0.0
O164 O 0.01084 0.4003 0.615 0.0
C165 C 0.96347 0.55293 0.41549 0.0
O166 O 0.01304 0.56192 0.3976 0.0
C167 C 0.04186 0.34773 0.47501 0.0
Zn168 Zn 0.43433 0.54723 0.05154 0.0
Zn169 Zn 0.47822 0.47967 -0.00662 0.0
O170 O 0.3956 0.46078 0.98461 0.0
O171 O 0.37603 0.49205 0.07059 0.0
O172 O 0.53143 0.43001 0.94611 0.0
O173 O 0.42044 0.60494 -0.01082 0.0
O174 O 0.49499 0.56078 0.96342 0.0
C175 C 0.36143 0.4667 0.02559 0.0
C176 C 0.51105 0.50477 0.11606 0.0
O177 O 0.5015 0.46753 0.07749 0.0
O178 O 0.4963 0.55589 0.1074 0.0
C179 C 0.53096 0.38324 0.91809 0.0
O180 O 0.48587 0.3544 0.91499 0.0
C181 C 0.46348 0.60436 0.96018 0.0
Zn182 Zn 0.8245 0.77547 0.80283 0.0
Zn183 Zn 0.76952 0.72149 0.73766 0.0
O184 O 0.84756 0.70378 0.70865 0.0
O185 O 0.88344 0.78135 0.74396 0.0
O186 O 0.7175 0.6787 0.68564 0.0
O187 O 0.82911 0.71364 0.86233 0.0
O188 O 0.75375 0.69268 0.81894 0.0
C189 C 0.88682 0.73847 0.71112 0.0
C190 C 0.74896 0.84903 0.76504 0.0
O191 O 0.74932 0.80753 0.72935 0.0
O192 O 0.7719 0.84209 0.81277 0.0
C193 C 0.69397 0.70331 0.64378 0.0
O194 O 0.70548 0.7567 0.63285 0.0
C195 C 0.78358 0.69003 0.8634 0.0
Zn196 Zn 0.65373 0.18031 0.30325 0.0
Zn197 Zn 0.71194 0.23184 0.23529 0.0
O198 O 0.63361 0.24416 0.20258 0.0
O199 O 0.59196 0.17608 0.24864 0.0
O200 O 0.76242 0.27941 0.18667 0.0
O201 O 0.65569 0.23802 0.36755 0.0
O202 O 0.72788 0.25946 0.31811 0.0
C203 C 0.59202 0.21313 0.20955 0.0
C204 C 0.73867 0.10956 0.26187 0.0
O205 O 0.7412 0.14962 0.22531 0.0
O206 O 0.70716 0.11501 0.30426 0.0
C207 C 0.78414 0.26062 0.14079 0.0
O208 O 0.77078 0.20986 0.12188 0.0
C209 C 0.70103 0.26208 0.36475 0.0
Zn210 Zn 0.40673 0.42859 0.42845 0.0
Zn211 Zn 0.46776 0.4814 0.47905 0.0
O212 O 0.39015 0.514 0.49677 0.0
O213 O 0.35256 0.49199 0.41546 0.0
O214 O 0.52085 0.5288 0.52484 0.0
O215 O 0.39541 0.37 0.48924 0.0
O216 O 0.47681 0.39833 0.51089 0.0
C217 C 0.35007 0.51839 0.46243 0.0
C218 C 0.4854 0.45127 0.35442 0.0
O219 O 0.49118 0.48939 0.39303 0.0
O220 O 0.45647 0.40868 0.36507 0.0
C221 C 0.53197 0.57987 0.51123 0.0
O222 O 0.50766 0.60269 0.4667 0.0
C223 C 0.43972 0.36109 0.51493 0.0
C224 C 0.15817 0.07926 0.11938 0.0
C225 C 0.15446 0.13459 0.14322 0.0
C226 C 0.11481 0.05528 0.08925 0.0
C227 C 0.06566 0.08554 0.08116 0.0
H228 H 0.19499 0.05394 0.12391 0.0
H229 H 0.12024 0.01274 0.0716 0.0
S230 S 0.03397 0.23154 0.13613 0.0
N231 N 0.09668 0.21865 0.1574 0.0
N232 N 0.01558 0.17389 0.10074 0.0
C233 C 0.0612 0.14091 0.1049 0.0
C234 C 0.10537 0.16529 0.13585 0.0
C235 C 0.08908 0.87097 0.33048 0.0
C236 C 0.08371 0.88454 0.38889 0.0
C237 C 0.13325 0.83847 0.30995 0.0
C238 C 0.1743 0.81809 0.34684 0.0
H239 H 0.05899 0.88578 0.30005 0.0
H240 H 0.13507 0.82928 0.26456 0.0
S241 S 0.1801 0.84239 0.50382 0.0
N242 N 0.12364 0.87513 0.48359 0.0
N243 N 0.2066 0.81433 0.44507 0.0
C244 C 0.16931 0.83096 0.40554 0.0
C245 C 0.12411 0.864 0.4265 0.0
C246 C 0.39238 0.82124 0.53556 0.0
C247 C 0.40113 0.87963 0.5461 0.0
C248 C 0.35283 0.79107 0.56551 0.0
C249 C 0.32043 0.81773 0.60774 0.0
H250 H 0.41691 0.79808 0.50454 0.0
H251 H 0.3488 0.74594 0.55644 0.0
S252 S 0.32276 0.97128 0.64775 0.0
N253 N 0.37074 0.96409 0.59895 0.0
N254 N 0.29692 0.90717 0.65549 0.0
C255 C 0.32728 0.87656 0.6174 0.0
C256 C 0.36741 0.9075 0.58657 0.0
C257 C 0.36853 0.08777 0.9114 0.0
C258 C 0.42102 0.08737 0.88768 0.0
C259 C 0.32641 0.12157 0.88834 0.0
C260 C 0.33459 0.15656 0.84029 0.0
H261 H 0.35969 0.06179 0.94836 0.0
H262 H 0.28698 0.12002 0.90852 0.0
S263 S 0.46443 0.17167 0.76164 0.0
N264 N 0.47869 0.12567 0.813 0.0
N265 N 0.3998 0.18876 0.7698 0.0
C266 C 0.38691 0.15672 0.81607 0.0
C267 C 0.42993 0.12236 0.83966 0.0
C268 C 0.6268 0.29267 0.82453 0.0
C269 C 0.67722 0.31953 0.83052 0.0
C270 C 0.58009 0.31321 0.85302 0.0
C271 C 0.58142 0.36177 0.88879 0.0
H272 H 0.62313 0.25535 0.79739 0.0
H273 H 0.54254 0.29085 0.84654 0.0
S274 S 0.70333 0.44758 0.92037 0.0
N275 N 0.72542 0.39728 0.87616 0.0
N276 N 0.63821 0.4357 0.92921 0.0
C277 C 0.63165 0.38892 0.89547 0.0
C278 C 0.67925 0.36792 0.86656 0.0
C279 C 0.88311 0.30626 0.0253 0.0
C280 C 0.90609 0.35615 0.04787 0.0
C281 C 0.84393 0.27594 0.05563 0.0
C282 C 0.8256 0.29426 0.10981 0.0
H283 H 0.89516 0.29046 0.98353 0.0
H284 H 0.8276 0.23796 0.036 0.0
S285 S 0.87378 0.42138 0.18927 0.0
N286 N 0.90833 0.42178 0.12884 0.0
N287 N 0.83464 0.36504 0.18552 0.0
C288 C 0.84859 0.34377 0.1333 0.0
C289 C 0.88882 0.37454 0.10252 0.0
C290 C 0.92426 0.61773 0.34017 0.0
C291 C 0.91665 0.58424 0.38933 0.0
C292 C 0.88103 0.64793 0.31479 0.0
C293 C 0.82829 0.64647 0.33769 0.0
H294 H 0.96398 0.6207 0.32086 0.0
H295 H 0.88932 0.67315 0.27714 0.0
S296 S 0.78628 0.56504 0.46596 0.0
N297 N 0.85176 0.55123 0.45984 0.0
N298 N 0.7709 0.6081 0.41247 0.0
C299 C 0.82001 0.61311 0.38685 0.0
C300 C 0.86399 0.58201 0.41251 0.0
C301 C 0.60447 0.58486 0.58641 0.0
C302 C 0.57281 0.61252 0.5444 0.0
C303 C 0.64359 0.61433 0.61796 0.0
C304 C 0.65281 0.67283 0.609 0.0
H305 H 0.59928 0.53985 0.59497 0.0
H306 H 0.6668 0.59086 0.64964 0.0
S307 S 0.57976 0.76596 0.50512 0.0
N308 N 0.55291 0.70246 0.49627 0.0
N309 N 0.62598 0.75765 0.55542 0.0
C310 C 0.62128 0.70114 0.56724 0.0
C311 C 0.58147 0.6711 0.53505 0.0
C312 C 0.20418 0.23689 0.4436 0.0
C313 C 0.24799 0.20043 0.43044 0.0
C314 C 0.19202 0.25118 0.50007 0.0
C315 C 0.22135 0.22784 0.54627 0.0
H316 H 0.18283 0.25976 0.41004 0.0
H317 H 0.16192 0.28434 0.50691 0.0
S318 S 0.32954 0.11685 0.53469 0.0
N319 N 0.31518 0.13334 0.46762 0.0
N320 N 0.28933 0.15731 0.57489 0.0
C321 C 0.26118 0.18598 0.53392 0.0
C322 C 0.27501 0.1728 0.47579 0.0
C323 C 0.04654 0.95065 0.76102 0.0
C324 C 0.00686 0.9703 0.79987 0.0
C325 C 0.04511 0.96809 0.70334 0.0
C326 C 0.00295 0.00383 0.68311 0.0
H327 H 0.07789 0.92097 0.77493 0.0
H328 H 0.0763 0.95275 0.6743 0.0
S329 S 0.88721 0.06089 0.76806 0.0
N330 N 0.92417 0.02486 0.81429 0.0
N331 N 0.91915 0.05462 0.70623 0.0
C332 C 0.96265 0.02205 0.7217 0.0
C333 C 0.96521 0.00598 0.78003 0.0
C334 C 0.27733 0.80201 0.93896 0.0
C335 C 0.22198 0.79536 0.92767 0.0
C336 C 0.29817 0.79333 -0.00585 0.0
C337 C 0.26372 0.78079 0.04026 0.0
H338 H 0.30513 0.80831 0.90412 0.0
H339 H 0.3417 0.7925 -8e-05 0.0
S340 S 0.11418 0.77695 0.03545 0.0
N341 N 0.13215 0.78839 0.96872 0.0
N342 N 0.17074 0.77405 0.07286 0.0
C343 C 0.20762 0.78349 0.03101 0.0
C344 C 0.18675 0.79088 0.9746 0.0
C345 C 0.45744 -0.00686 0.28056 0.0
C346 C 0.50954 0.00623 0.3005 0.0
C347 C 0.44977 0.97425 0.22383 0.0
C348 C 0.49399 0.96934 0.18607 0.0
H349 H 0.42278 -0.00211 0.30865 0.0
H350 H 0.40945 0.96391 0.20941 0.0
S351 S 0.63815 -0.00593 0.2196 0.0
N352 N 0.60573 0.00954 0.27945 0.0
N353 N 0.59111 0.97529 0.17368 0.0
C354 C 0.54592 0.98127 0.20636 0.0
C355 C 0.55376 -0.00031 0.26338 0.0
C356 C 0.46474 0.29568 0.18741 0.0
C357 C 0.42671 0.25155 0.18687 0.0
C358 C 0.52044 0.28395 0.1856 0.0
C359 C 0.53953 0.22734 0.18279 0.0
H360 H 0.45138 0.3388 0.196 0.0
H361 H 0.54808 0.3185 0.19384 0.0
S362 S 0.45659 0.09991 0.15546 0.0
N363 N 0.41164 0.15183 0.16537 0.0
N364 N 0.51683 0.12885 0.162 0.0
C365 C 0.502 0.18416 0.1714 0.0
C366 C 0.4452 0.19647 0.17311 0.0
C367 C 0.00412 0.26758 0.41514 0.0
C368 C 0.0321 0.28662 0.46373 0.0
C369 C 0.99271 0.20917 0.40795 0.0
C370 C 0.01053 0.16831 0.44819 0.0
H371 H 0.98937 0.29803 0.38384 0.0
H372 H 0.96723 0.19631 0.37266 0.0
S373 S 0.07784 0.19738 0.58615 0.0
N374 N 0.07058 0.26057 0.5559 0.0
N375 N 0.05464 0.15136 0.53909 0.0
C376 C 0.03993 0.18692 0.49569 0.0
C377 C 0.04902 0.246 0.50448 0.0
C378 C 0.96343 0.66991 0.70503 0.0
C379 C 0.94096 0.72287 0.68938 0.0
C380 C 0.01957 0.66194 0.70802 0.0
C381 C 0.05512 0.70695 0.69577 0.0
H382 H 0.93787 0.63669 0.72138 0.0
H383 H 0.03474 0.62189 0.72528 0.0
S384 S 0.01536 0.84672 0.63351 0.0
N385 N 0.95736 0.8158 0.64797 0.0
N386 N 0.06346 0.80104 0.65308 0.0
C387 C 0.03302 0.75702 0.67167 0.0
C388 C 0.97568 0.76502 0.6688 0.0
C389 C 0.53244 0.67597 0.97459 0.0
C390 C 0.48578 0.66002 0.94538 0.0
C391 C 0.54518 0.73316 0.9809 0.0
C392 C 0.51307 0.77724 0.95654 0.0
H393 H 0.55625 0.64462 -0.00192 0.0
H394 H 0.57834 0.74237 0.00931 0.0
S395 S 0.39611 0.75504 0.86054 0.0
N396 N 0.41251 0.69019 0.8829 0.0
N397 N 0.43873 0.79914 0.89168 0.0
C398 C 0.46964 0.76126 0.92151 0.0
C399 C 0.45559 0.7023 0.91652 0.0
C400 C 0.54891 0.6902 0.25829 0.0
C401 C 0.56377 0.74487 0.27619 0.0
C402 C 0.49441 0.67578 0.2535 0.0
C403 C 0.45267 0.71592 0.26576 0.0
H404 H 0.57911 0.66087 0.24125 0.0
H405 H 0.48521 0.63456 0.23498 0.0
S406 S 0.47142 0.8588 0.33079 0.0
N407 N 0.53359 0.83479 0.3184 0.0
N408 N 0.43052 0.808 0.30913 0.0
C409 C 0.46718 0.76786 0.29139 0.0
C410 C 0.52296 0.78236 0.29648 0.0
C411 C 0.44275 0.20091 0.51443 0.0
C412 C 0.49225 0.18821 0.54087 0.0
C413 C 0.42244 0.25687 0.51254 0.0
C414 C 0.45204 0.30251 0.53559 0.0
H415 H 0.42337 0.16894 0.48834 0.0
H416 H 0.38645 0.26478 0.48714 0.0
S417 S 0.57569 0.28828 0.62446 0.0
N418 N 0.5645 0.22277 0.60132 0.0
N419 N 0.52688 0.32903 0.5973 0.0
C420 C 0.49812 0.28923 0.56851 0.0
C421 C 0.51828 0.23177 0.57105 0.0
C422 C 0.02113 0.30747 0.79009 0.0
C423 C 0.06625 0.26997 0.78467 0.0
C424 C 0.96774 0.28824 0.78358 0.0
C425 C 0.95787 0.2305 0.77193 0.0
H426 H 0.02739 0.35265 0.79445 0.0
H427 H 0.93491 0.31945 0.78212 0.0
S428 S 0.06097 0.11303 0.76966 0.0
N429 N 0.09647 0.17122 0.77891 0.0
N430 N -0.00287 0.13476 0.76747 0.0
C431 C 0.00224 0.19181 0.77484 0.0
C432 C 0.05624 0.21147 0.78139 0.0
C433 C 0.9134 0.73819 -0.00619 0.0
C434 C 0.93851 0.78221 0.02482 0.0
C435 C 0.92927 0.68121 0.00091 0.0
C436 C 0.97054 0.66629 0.03936 0.0
H437 H 0.88501 0.7479 0.95983 0.0
H438 H 0.91368 0.64976 0.97133 0.0
S439 S 0.03035 0.76136 0.14845 0.0
N440 N 0.99341 0.80469 0.10795 0.0
N441 N 0.02421 0.69673 0.12057 0.0
C442 C 0.98955 0.70831 0.07695 0.0
C443 C 0.97315 0.76666 0.06992 0.0
C444 C 0.24785 0.4745 0.30662 0.0
C445 C 0.22844 0.43149 0.26996 0.0
C446 C 0.25024 0.53136 0.2887 0.0
C447 C 0.23252 0.54745 0.23407 0.0
H448 H 0.26561 0.46368 0.34755 0.0
H449 H 0.27095 0.56167 0.31553 0.0
S450 S 0.16417 0.45497 0.12879 0.0
N451 N 0.18092 0.41137 0.18136 0.0
N452 N 0.18571 0.5187 0.14778 0.0
C453 C 0.2073 0.50645 0.19976 0.0
C454 C 0.20483 0.4484 0.21791 0.0
C455 C 0.72541 0.00993 0.75228 0.0
C456 C 0.76414 0.02393 0.71038 0.0
C457 C 0.71756 0.95254 0.76872 0.0
C458 C 0.74704 0.9076 0.7424 0.0
H459 H 0.70242 0.04345 0.77374 0.0
H460 H 0.68949 0.94342 0.80297 0.0
S461 S 0.85973 0.9209 0.63988 0.0
N462 N 0.83692 -0.01338 0.65001 0.0
N463 N 0.8195 0.88078 0.67787 0.0
C464 C 0.78535 0.92094 0.70092 0.0
C465 C 0.79449 0.97853 0.6856 0.0
C466 C 0.27265 0.41995 -7e-05 0.0
C467 C 0.30273 0.46863 0.01395 0.0
C468 C 0.21664 0.42484 -0.01183 0.0
C469 C 0.19003 0.4785 -0.01009 0.0
H470 H 0.29249 0.37843 -0.00243 0.0
H471 H 0.19449 0.38707 0.97633 0.0
S472 S 0.25089 0.61814 0.02338 0.0
N473 N 0.30153 0.57162 0.02841 0.0
N474 N 0.19745 0.58032 0.00662 0.0
C475 C 0.21979 0.52684 0.00431 0.0
C476 C 0.27587 0.52201 0.01638 0.0
C477 C 0.77754 0.03661 0.19471 0.0
C478 C 0.76462 0.05317 0.25099 0.0
C479 C 0.78307 0.97867 0.18031 0.0
C480 C 0.77659 0.93591 0.22184 0.0
H481 H 0.77736 0.06772 0.16054 0.0
H482 H 0.78646 0.96722 0.13558 0.0
S483 S 0.75544 0.95769 0.3762 0.0
N484 N 0.75603 0.02286 0.34986 0.0
N485 N 0.76678 0.91407 0.3221 0.0
C486 C 0.77225 0.95233 0.27912 0.0
C487 C 0.76596 0.01114 0.29389 0.0
C488 C 0.75866 0.04503 0.95585 0.0
C489 C 0.79704 0.00518 0.97693 0.0
C490 C 0.70277 0.03867 0.96708 0.0
C491 C 0.68421 -0.00848 -0.00166 0.0
H492 H 0.77179 0.0805 0.92998 0.0
H493 H 0.67418 0.07038 0.95123 0.0
S494 S 0.76832 0.86891 0.04938 0.0
N495 N 0.81207 0.91424 0.02344 0.0
N496 N 0.70853 0.90042 0.04188 0.0
C497 C 0.7225 0.95039 0.01679 0.0
C498 C 0.77853 0.95769 0.00676 0.0
C499 C 0.29334 0.55629 0.69546 0.0
C500 C 0.29581 0.57352 0.75286 0.0
C501 C 0.29136 0.4983 0.68145 0.0
C502 C 0.29188 0.45591 0.7239 0.0
H503 H 0.28595 0.58721 0.66189 0.0
H504 H 0.28317 0.48687 0.63788 0.0
S505 S 0.31997 0.47921 0.87686 0.0
N506 N 0.31525 0.5442 0.85023 0.0
N507 N 0.31086 0.43459 0.82318 0.0
C508 C 0.30462 0.47233 0.77976 0.0
C509 C 0.30674 0.53154 0.79434 0.0
C510 C 0.22313 0.4832 0.53836 0.0
C511 C 0.18341 0.51769 0.51175 0.0
C512 C 0.27776 0.48801 0.52515 0.0
C513 C 0.29547 0.52801 0.48542 0.0
H514 H 0.21186 0.44967 0.56764 0.0
H515 H 0.30611 0.45739 0.54358 0.0
S516 S 0.2092 0.63122 0.40585 0.0
N517 N 0.16584 0.5949 0.44482 0.0
N518 N 0.27003 0.60465 0.42066 0.0
C519 C 0.25686 0.56414 0.45934 0.0
C520 C 0.20046 0.55886 0.47242 0.0
C521 C 0.77981 0.65984 0.96619 0.0
C522 C 0.75681 0.6889 0.91939 0.0
C523 C 0.76294 0.67243 0.02248 0.0
C524 C 0.72376 0.71557 0.03345 0.0
H525 H 0.81245 0.62913 0.95939 0.0
H526 H 0.78223 0.65001 0.05759 0.0
S527 S 0.6597 0.81056 0.92475 0.0
N528 N 0.69619 0.76445 0.88746 0.0
N529 N 0.6679 0.79133 -0.00805 0.0
C530 C 0.7013 0.74501 -0.01357 0.0
C531 C 0.71693 0.7308 0.92972 0.0
C532 C 0.46373 0.44049 0.2523 0.0
C533 C 0.49915 0.4618 0.29396 0.0
C534 C 0.47073 0.4523 0.19462 0.0
C535 C 0.51343 0.48589 0.17574 0.0
H536 H 0.42858 0.41616 0.26436 0.0
H537 H 0.44061 0.43717 0.16471 0.0
S538 S 0.62022 0.54885 0.26618 0.0
N539 N 0.58052 0.516 0.31209 0.0
N540 N 0.59332 0.53907 0.20219 0.0
C541 C 0.55001 0.50708 0.21629 0.0
C542 C 0.54298 0.49474 0.27579 0.0
C543 C 0.77889 0.24206 0.42721 0.0
C544 C 0.73007 0.27216 0.41881 0.0
C545 C 0.80114 0.2361 0.48165 0.0
C546 C 0.77569 0.26012 0.5304 0.0
H547 H 0.79804 0.21905 0.39213 0.0
H548 H 0.83708 0.20926 0.48554 0.0
S549 S 0.65557 0.3571 0.52795 0.0
N550 N 0.66201 0.33516 0.46103 0.0
N551 N 0.70475 0.32512 0.56433 0.0
C552 C 0.72958 0.29511 0.52176 0.0
C553 C 0.70651 0.30075 0.46577 0.0
C554 C 0.02696 0.44997 0.72238 0.0
C555 C 0.98374 0.46468 0.68604 0.0
C556 C 0.02638 0.46498 0.77997 0.0
C557 C 0.98237 0.49489 0.80379 0.0
H558 H 0.06245 0.42783 0.70573 0.0
H559 H 0.06133 0.45392 0.80595 0.0
S560 S 0.85907 0.54456 0.7275 0.0
N561 N 0.89577 0.51189 0.67759 0.0
N562 N 0.89458 0.5402 0.78733 0.0
C563 C 0.93886 0.51077 0.76827 0.0
C564 C 0.93955 0.49557 0.70891 0.0
C565 C 0.77193 0.03504 0.50324 0.0
C566 C 0.8014 0.98361 0.50715 0.0
C567 C 0.71612 0.03611 0.50457 0.0
C568 C 0.68627 -0.0144 0.5079 0.0
H569 H 0.79242 0.07556 0.50005 0.0
H570 H 0.69619 0.0776 0.50145 0.0
S571 S 0.74393 0.83911 0.52078 0.0
N572 N 0.79758 0.88041 0.51769 0.0
N573 N 0.69019 0.88205 0.51675 0.0
C574 C 0.71474 0.93332 0.51302 0.0
C575 C 0.77293 0.93236 0.51298 0.0
loop_
_geom_bond_atom_site_label_1
_geom_bond_atom_site_label_2
_geom_bond_distance
_geom_bond_site_symmetry_2
_ccdc_geom_bond_type
Zn0 O3 2.031 . S
Zn0 O5 2.049 . S
Zn0 O10 2.067 . S
Zn1 O2 1.962 . S
Zn1 O4 1.986 . S
Zn1 O6 1.996 . S
Zn1 O9 1.943 . S
O2 Zn1 1.962 . S
O2 C7 1.254 . S
O3 Zn0 2.031 . S
O3 C7 1.269 . S
O4 Zn1 1.986 . S
O4 C11 1.262 . S
O5 Zn0 2.049 . S
O5 C13 1.260 . S
O6 Zn1 1.996 . S
O6 C13 1.257 . S
C7 O2 1.254 . S
C7 O3 1.269 . S
C8 O9 1.249 . S
C8 O10 1.270 . S
O9 Zn1 1.943 . S
O9 C8 1.249 . S
O10 Zn0 2.067 . S
O10 C8 1.270 . S
C11 O4 1.262 . S
C11 O12 1.232 . S
O12 C11 1.232 . S
C13 O5 1.260 . S
C13 O6 1.257 . S
Zn14 O17 2.031 . S
Zn14 O19 2.049 . S
Zn14 O24 2.067 . S
Zn15 O16 1.962 1_545 S
Zn15 O18 1.986 1_645 S
Zn15 O20 1.996 . S
Zn15 O23 1.943 1_545 S
O16 Zn15 1.962 1_565 S
O16 C21 1.254 . S
O17 Zn14 2.031 . S
O17 C21 1.269 1_545 S
O18 Zn15 1.986 1_465 S
O18 C25 1.262 . S
O19 Zn14 2.049 . S
O19 C27 1.260 . S
O20 Zn15 1.996 . S
O20 C27 1.257 . S
C21 O16 1.254 . S
C21 O17 1.269 1_565 S
C22 O23 1.249 1_545 S
C22 O24 1.270 . S
O23 Zn15 1.943 1_565 S
O23 C22 1.249 1_565 S
O24 Zn14 2.067 . S
O24 C22 1.270 . S
C25 O18 1.262 . S
C25 O26 1.232 1_455 S
O26 C25 1.232 1_655 S
C27 O19 1.260 . S
C27 O20 1.257 . S
Zn28 O31 2.031 . S
Zn28 O33 2.049 . S
Zn28 O38 2.067 . S
Zn29 O30 1.962 . S
Zn29 O32 1.986 . S
Zn29 O34 1.996 . S
Zn29 O37 1.943 . S
O30 Zn29 1.962 . S
O30 C35 1.254 . S
O31 Zn28 2.031 . S
O31 C35 1.269 . S
O32 Zn29 1.986 . S
O32 C39 1.262 . S
O33 Zn28 2.049 . S
O33 C41 1.260 . S
O34 Zn29 1.996 . S
O34 C41 1.257 . S
C35 O30 1.254 . S
C35 O31 1.269 . S
C36 O37 1.249 . S
C36 O38 1.270 . S
O37 Zn29 1.943 . S
O37 C36 1.249 . S
O38 Zn28 2.067 . S
O38 C36 1.270 . S
C39 O32 1.262 . S
C39 O40 1.232 . S
O40 C39 1.232 . S
C41 O33 1.260 . S
C41 O34 1.257 . S
Zn42 O45 2.031 . S
Zn42 O47 2.049 . S
Zn42 O52 2.067 . S
Zn43 O44 1.960 1_564 S
Zn43 O46 1.983 1_564 S
Zn43 O48 1.996 . S
Zn43 O51 1.948 1_565 S
O44 Zn43 1.960 1_546 S
O44 C49 1.254 1_556 S
O45 Zn42 2.031 . S
O45 C49 1.269 1_565 S
O46 Zn43 1.983 1_546 S
O46 C53 1.262 . S
O47 Zn42 2.049 . S
O47 C55 1.260 . S
O48 Zn43 1.996 . S
O48 C55 1.260 . S
C49 O44 1.254 1_554 S
C49 O45 1.269 1_545 S
C50 O51 1.249 1_565 S
C50 O52 1.270 . S
O51 Zn43 1.948 1_545 S
O51 C50 1.249 1_545 S
O52 Zn42 2.067 . S
O52 C50 1.270 . S
C53 O46 1.262 . S
C53 O54 1.232 . S
O54 C53 1.232 . S
C55 O47 1.260 . S
C55 O48 1.260 . S
Zn56 O59 2.031 . S
Zn56 O61 2.049 . S
Zn56 O66 2.067 . S
Zn57 O58 1.962 . S
Zn57 O60 1.986 . S
Zn57 O62 1.996 . S
Zn57 O65 1.943 . S
O58 Zn57 1.962 . S
O58 C63 1.254 . S
O59 Zn56 2.031 . S
O59 C63 1.269 . S
O60 Zn57 1.986 . S
O60 C67 1.262 . S
O61 Zn56 2.049 . S
O61 C69 1.260 . S
O62 Zn57 1.996 . S
O62 C69 1.257 . S
C63 O58 1.254 . S
C63 O59 1.269 . S
C64 O65 1.249 . S
C64 O66 1.270 . S
O65 Zn57 1.943 . S
O65 C64 1.249 . S
O66 Zn56 2.067 . S
O66 C64 1.270 . S
C67 O60 1.262 . S
C67 O68 1.232 . S
O68 C67 1.232 . S
C69 O61 1.260 . S
C69 O62 1.257 . S
Zn70 O73 2.031 . S
Zn70 O75 2.049 . S
Zn70 O80 2.067 . S
Zn71 O72 1.962 1_545 S
Zn71 O74 1.986 1_545 S
Zn71 O76 1.996 . S
Zn71 O79 1.943 1_545 S
O72 Zn71 1.962 1_565 S
O72 C77 1.254 . S
O73 Zn70 2.031 . S
O73 C77 1.269 1_545 S
O74 Zn71 1.986 1_565 S
O74 C81 1.262 . S
O75 Zn70 2.049 . S
O75 C83 1.260 . S
O76 Zn71 1.996 . S
O76 C83 1.257 . S
C77 O72 1.254 . S
C77 O73 1.269 1_565 S
C78 O79 1.249 1_545 S
C78 O80 1.270 . S
O79 Zn71 1.943 1_565 S
O79 C78 1.249 1_565 S
O80 Zn70 2.067 . S
O80 C78 1.270 . S
C81 O74 1.262 . S
C81 O82 1.232 . S
O82 C81 1.232 . S
C83 O75 1.260 . S
C83 O76 1.257 . S
Zn84 O87 2.031 . S
Zn84 O89 2.049 . S
Zn84 O94 2.067 . S
Zn85 O86 1.962 . S
Zn85 O88 1.986 . S
Zn85 O90 1.996 . S
Zn85 O93 1.943 . S
O86 Zn85 1.962 . S
O86 C91 1.254 . S
O87 Zn84 2.031 . S
O87 C91 1.269 . S
O88 Zn85 1.986 . S
O88 C95 1.262 . S
O89 Zn84 2.049 . S
O89 C97 1.260 . S
O90 Zn85 1.996 . S
O90 C97 1.257 . S
C91 O86 1.254 . S
C91 O87 1.269 . S
C92 O93 1.249 . S
C92 O94 1.270 . S
O93 Zn85 1.943 . S
O93 C92 1.249 . S
O94 Zn84 2.067 . S
O94 C92 1.270 . S
C95 O88 1.262 . S
C95 O96 1.232 . S
O96 C95 1.232 . S
C97 O89 1.260 . S
C97 O90 1.257 . S
Zn98 O101 2.031 . S
Zn98 O103 2.049 . S
Zn98 O108 2.067 . S
Zn99 O100 1.960 1_566 S
Zn99 O102 1.983 1_666 S
Zn99 O104 1.996 . S
Zn99 O107 1.948 1_565 S
O100 Zn99 1.960 1_544 S
O100 C105 1.254 1_554 S
O101 Zn98 2.031 . S
O101 C105 1.269 1_565 S
O102 Zn99 1.983 1_444 S
O102 C109 1.262 . S
O103 Zn98 2.049 . S
O103 C111 1.260 . S
O104 Zn99 1.996 . S
O104 C111 1.260 . S
C105 O100 1.254 1_556 S
C105 O101 1.269 1_545 S
C106 O107 1.249 1_565 S
C106 O108 1.270 . S
O107 Zn99 1.948 1_545 S
O107 C106 1.249 1_545 S
O108 Zn98 2.067 . S
O108 C106 1.270 . S
C109 O102 1.262 . S
C109 O110 1.232 1_455 S
O110 C109 1.232 1_655 S
C111 O103 1.260 . S
C111 O104 1.260 . S
Zn112 O115 2.031 . S
Zn112 O117 2.049 . S
Zn112 O122 2.067 . S
Zn113 O114 1.962 . S
Zn113 O116 1.986 . S
Zn113 O118 1.996 . S
Zn113 O121 1.943 . S
O114 Zn113 1.962 . S
O114 C119 1.254 . S
O115 Zn112 2.031 . S
O115 C119 1.269 . S
O116 Zn113 1.986 . S
O116 C123 1.262 . S
O117 Zn112 2.049 . S
O117 C125 1.260 . S
O118 Zn113 1.996 . S
O118 C125 1.257 . S
C119 O114 1.254 . S
C119 O115 1.269 . S
C120 O121 1.249 . S
C120 O122 1.270 . S
O121 Zn113 1.943 . S
O121 C120 1.249 . S
O122 Zn112 2.067 . S
O122 C120 1.270 . S
C123 O116 1.262 . S
C123 O124 1.232 . S
O124 C123 1.232 . S
C125 O117 1.260 . S
C125 O118 1.257 . S
Zn126 O129 2.031 . S
Zn126 O131 2.049 . S
Zn126 O136 2.067 . S
Zn127 O128 1.960 1_556 S
Zn127 O130 1.983 1_456 S
Zn127 O132 1.996 . S
Zn127 O135 1.948 . S
O128 Zn127 1.960 1_554 S
O128 C133 1.254 1_554 S
O129 Zn126 2.031 . S
O129 C133 1.269 . S
O130 Zn127 1.983 1_654 S
O130 C137 1.262 . S
O131 Zn126 2.049 . S
O131 C139 1.260 . S
O132 Zn127 1.996 . S
O132 C139 1.260 . S
C133 O128 1.254 1_556 S
C133 O129 1.269 . S
C134 O135 1.249 . S
C134 O136 1.270 . S
O135 Zn127 1.948 . S
O135 C134 1.249 . S
O136 Zn126 2.067 . S
O136 C134 1.270 . S
C137 O130 1.262 . S
C137 O138 1.232 1_655 S
O138 C137 1.232 1_455 S
C139 O131 1.260 . S
C139 O132 1.260 . S
Zn140 O143 2.031 . S
Zn140 O145 2.049 . S
Zn140 O150 2.067 . S
Zn141 O142 1.962 . S
Zn141 O144 1.986 . S
Zn141 O146 1.996 . S
Zn141 O149 1.943 . S
O142 Zn141 1.962 . S
O142 C147 1.254 . S
O143 Zn140 2.031 . S
O143 C147 1.269 . S
O144 Zn141 1.986 . S
O144 C151 1.262 . S
O145 Zn140 2.049 . S
O145 C153 1.260 . S
O146 Zn141 1.996 . S
O146 C153 1.257 . S
C147 O142 1.254 . S
C147 O143 1.269 . S
C148 O149 1.249 . S
C148 O150 1.270 . S
O149 Zn141 1.943 . S
O149 C148 1.249 . S
O150 Zn140 2.067 . S
O150 C148 1.270 . S
C151 O144 1.262 . S
C151 O152 1.232 . S
O152 C151 1.232 . S
C153 O145 1.260 . S
C153 O146 1.257 . S
Zn154 O157 2.031 . S
Zn154 O159 2.049 . S
Zn154 O164 2.067 . S
Zn155 O156 1.962 . S
Zn155 O158 1.986 1_455 S
Zn155 O160 1.996 . S
Zn155 O163 1.943 . S
O156 Zn155 1.962 . S
O156 C161 1.254 . S
O157 Zn154 2.031 . S
O157 C161 1.269 . S
O158 Zn155 1.986 1_655 S
O158 C165 1.262 . S
O159 Zn154 2.049 . S
O159 C167 1.260 . S
O160 Zn155 1.996 . S
O160 C167 1.257 . S
C161 O156 1.254 . S
C161 O157 1.269 . S
C162 O163 1.249 . S
C162 O164 1.270 . S
O163 Zn155 1.943 . S
O163 C162 1.249 . S
O164 Zn154 2.067 . S
O164 C162 1.270 . S
C165 O158 1.262 . S
C165 O166 1.232 1_655 S
O166 C165 1.232 1_455 S
C167 O159 1.260 . S
C167 O160 1.257 . S
Zn168 O171 2.031 . S
Zn168 O173 2.049 . S
Zn168 O178 2.067 . S
Zn169 O170 1.960 1_554 S
Zn169 O172 1.983 1_554 S
Zn169 O174 1.996 . S
Zn169 O177 1.948 . S
O170 Zn169 1.960 1_556 S
O170 C175 1.254 1_556 S
O171 Zn168 2.031 . S
O171 C175 1.269 . S
O172 Zn169 1.983 1_556 S
O172 C179 1.262 . S
O173 Zn168 2.049 . S
O173 C181 1.260 . S
O174 Zn169 1.996 . S
O174 C181 1.260 . S
C175 O170 1.254 1_554 S
C175 O171 1.269 . S
C176 O177 1.249 . S
C176 O178 1.270 . S
O177 Zn169 1.948 . S
O177 C176 1.249 . S
O178 Zn168 2.067 . S
O178 C176 1.270 . S
C179 O172 1.262 . S
C179 O180 1.232 . S
O180 C179 1.232 . S
C181 O173 1.260 . S
C181 O174 1.260 . S
Zn182 O185 2.031 . S
Zn182 O187 2.049 . S
Zn182 O192 2.067 . S
Zn183 O184 1.962 . S
Zn183 O186 1.986 . S
Zn183 O188 1.996 . S
Zn183 O191 1.943 . S
O184 Zn183 1.962 . S
O184 C189 1.254 . S
O185 Zn182 2.031 . S
O185 C189 1.269 . S
O186 Zn183 1.986 . S
O186 C193 1.262 . S
O187 Zn182 2.049 . S
O187 C195 1.260 . S
O188 Zn183 1.996 . S
O188 C195 1.257 . S
C189 O184 1.254 . S
C189 O185 1.269 . S
C190 O191 1.249 . S
C190 O192 1.270 . S
O191 Zn183 1.943 . S
O191 C190 1.249 . S
O192 Zn182 2.067 . S
O192 C190 1.270 . S
C193 O186 1.262 . S
C193 O194 1.232 . S
O194 C193 1.232 . S
C195 O187 1.260 . S
C195 O188 1.257 . S
Zn196 O199 2.031 . S
Zn196 O201 2.049 . S
Zn196 O206 2.067 . S
Zn197 O198 1.962 . S
Zn197 O200 1.986 . S
Zn197 O202 1.996 . S
Zn197 O205 1.943 . S
O198 Zn197 1.962 . S
O198 C203 1.254 . S
O199 Zn196 2.031 . S
O199 C203 1.269 . S
O200 Zn197 1.986 . S
O200 C207 1.262 . S
O201 Zn196 2.049 . S
O201 C209 1.260 . S
O202 Zn197 1.996 . S
O202 C209 1.257 . S
C203 O198 1.254 . S
C203 O199 1.269 . S
C204 O205 1.249 . S
C204 O206 1.270 . S
O205 Zn197 1.943 . S
O205 C204 1.249 . S
O206 Zn196 2.067 . S
O206 C204 1.270 . S
C207 O200 1.262 . S
C207 O208 1.232 . S
O208 C207 1.232 . S
C209 O201 1.260 . S
C209 O202 1.257 . S
Zn210 O213 2.031 . S
Zn210 O215 2.049 . S
Zn210 O220 2.067 . S
Zn211 O212 1.962 . S
Zn211 O214 1.986 . S
Zn211 O216 1.996 . S
Zn211 O219 1.943 . S
O212 Zn211 1.962 . S
O212 C217 1.254 . S
O213 Zn210 2.031 . S
O213 C217 1.269 . S
O214 Zn211 1.986 . S
O214 C221 1.262 . S
O215 Zn210 2.049 . S
O215 C223 1.260 . S
O216 Zn211 1.996 . S
O216 C223 1.257 . S
C217 O212 1.254 . S
C217 O213 1.269 . S
C218 O219 1.249 . S
C218 O220 1.270 . S
O219 Zn211 1.943 . S
O219 C218 1.249 . S
O220 Zn210 2.067 . S
O220 C218 1.270 . S
C221 O214 1.262 . S
C221 O222 1.232 . S
O222 C221 1.232 . S
C223 O215 1.260 . S
C223 O216 1.257 . S
C224 C225 1.369 . S
C224 C226 1.419 . S
C224 H228 0.930 . S
C225 C224 1.369 . S
C225 C234 1.429 . S
C226 C224 1.419 . S
C226 C227 1.363 . S
C226 H229 0.929 . S
C227 C226 1.363 . S
C227 C233 1.428 . S
H228 C224 0.930 . S
H229 C226 0.929 . S
S230 N231 1.613 . S
S230 N232 1.610 . S
N231 S230 1.613 . S
N231 C234 1.350 . S
N232 S230 1.610 . S
N232 C233 1.351 . S
C233 C227 1.428 . S
C233 N232 1.351 . S
C233 C234 1.434 . S
C234 C225 1.429 . S
C234 N231 1.350 . S
C234 C233 1.434 . S
C235 C236 1.369 . S
C235 C237 1.419 . S
C235 H239 0.930 . S
C236 C235 1.369 . S
C236 C245 1.429 . S
C237 C235 1.419 . S
C237 C238 1.363 . S
C237 H240 0.929 . S
C238 C237 1.363 . S
C238 C244 1.428 . S
H239 C235 0.930 . S
H240 C237 0.929 . S
S241 N242 1.613 . S
S241 N243 1.610 . S
N242 S241 1.613 . S
N242 C245 1.350 . S
N243 S241 1.610 . S
N243 C244 1.351 . S
C244 C238 1.428 . S
C244 N243 1.351 . S
C244 C245 1.434 . S
C245 C236 1.429 . S
C245 N242 1.350 . S
C245 C244 1.434 . S
C246 C247 1.369 . S
C246 C248 1.419 . S
C246 H250 0.930 . S
C247 C246 1.369 . S
C247 C256 1.429 . S
C248 C246 1.419 . S
C248 C249 1.363 . S
C248 H251 0.929 . S
C249 C248 1.363 . S
C249 C255 1.428 . S
H250 C246 0.930 . S
H251 C248 0.929 . S
S252 N253 1.613 1_545 S
S252 N254 1.610 1_545 S
N253 S252 1.613 1_565 S
N253 C256 1.350 . S
N254 S252 1.610 1_565 S
N254 C255 1.351 . S
C255 C249 1.428 . S
C255 N254 1.351 . S
C255 C256 1.434 . S
C256 C247 1.429 . S
C256 N253 1.350 . S
C256 C255 1.434 . S
C257 C258 1.369 . S
C257 C259 1.419 . S
C257 H261 0.930 . S
C258 C257 1.369 . S
C258 C267 1.429 . S
C259 C257 1.419 . S
C259 C260 1.363 . S
C259 H262 0.929 . S
C260 C259 1.363 . S
C260 C266 1.428 . S
H261 C257 0.930 . S
H262 C259 0.929 . S
S263 N264 1.613 . S
S263 N265 1.610 . S
N264 S263 1.613 . S
N264 C267 1.350 . S
N265 S263 1.610 . S
N265 C266 1.351 . S
C266 C260 1.428 . S
C266 N265 1.351 . S
C266 C267 1.434 . S
C267 C258 1.429 . S
C267 N264 1.350 . S
C267 C266 1.434 . S
C268 C269 1.369 . S
C268 C270 1.419 . S
C268 H272 0.930 . S
C269 C268 1.369 . S
C269 C278 1.429 . S
C270 C268 1.419 . S
C270 C271 1.363 . S
C270 H273 0.929 . S
C271 C270 1.363 . S
C271 C277 1.428 . S
H272 C268 0.930 . S
H273 C270 0.929 . S
S274 N275 1.613 . S
S274 N276 1.610 . S
N275 S274 1.613 . S
N275 C278 1.350 . S
N276 S274 1.610 . S
N276 C277 1.351 . S
C277 C271 1.428 . S
C277 N276 1.351 . S
C277 C278 1.434 . S
C278 C269 1.429 . S
C278 N275 1.350 . S
C278 C277 1.434 . S
C279 C280 1.369 . S
C279 C281 1.419 . S
C279 H283 0.930 . S
C280 C279 1.369 . S
C280 C289 1.429 . S
C281 C279 1.419 . S
C281 C282 1.363 . S
C281 H284 0.929 . S
C282 C281 1.363 . S
C282 C288 1.428 . S
H283 C279 0.930 . S
H284 C281 0.929 . S
S285 N286 1.613 . S
S285 N287 1.610 . S
N286 S285 1.613 . S
N286 C289 1.350 . S
N287 S285 1.610 . S
N287 C288 1.351 . S
C288 C282 1.428 . S
C288 N287 1.351 . S
C288 C289 1.434 . S
C289 C280 1.429 . S
C289 N286 1.350 . S
C289 C288 1.434 . S
C290 C291 1.369 . S
C290 C292 1.419 . S
C290 H294 0.930 . S
C291 C290 1.369 . S
C291 C300 1.429 . S
C292 C290 1.419 . S
C292 C293 1.363 . S
C292 H295 0.929 . S
C293 C292 1.363 . S
C293 C299 1.428 . S
H294 C290 0.930 . S
H295 C292 0.929 . S
S296 N297 1.613 . S
S296 N298 1.610 . S
N297 S296 1.613 . S
N297 C300 1.350 . S
N298 S296 1.610 . S
N298 C299 1.351 . S
C299 C293 1.428 . S
C299 N298 1.351 . S
C299 C300 1.434 . S
C300 C291 1.429 . S
C300 N297 1.350 . S
C300 C299 1.434 . S
C301 C302 1.369 . S
C301 C303 1.419 . S
C301 H305 0.930 . S
C302 C301 1.369 . S
C302 C311 1.429 . S
C303 C301 1.419 . S
C303 C304 1.363 . S
C303 H306 0.929 . S
C304 C303 1.363 . S
C304 C310 1.428 . S
H305 C301 0.930 . S
H306 C303 0.929 . S
S307 N308 1.613 . S
S307 N309 1.610 . S
N308 S307 1.613 . S
N308 C311 1.350 . S
N309 S307 1.610 . S
N309 C310 1.351 . S
C310 C304 1.428 . S
C310 N309 1.351 . S
C310 C311 1.434 . S
C311 C302 1.429 . S
C311 N308 1.350 . S
C311 C310 1.434 . S
C312 C313 1.369 . S
C312 C314 1.419 . S
C312 H316 0.930 . S
C313 C312 1.369 . S
C313 C322 1.429 . S
C314 C312 1.419 . S
C314 C315 1.363 . S
C314 H317 0.929 . S
C315 C314 1.363 . S
C315 C321 1.428 . S
H316 C312 0.930 . S
H317 C314 0.929 . S
S318 N319 1.613 . S
S318 N320 1.610 . S
N319 S318 1.613 . S
N319 C322 1.350 . S
N320 S318 1.610 . S
N320 C321 1.351 . S
C321 C315 1.428 . S
C321 N320 1.351 . S
C321 C322 1.434 . S
C322 C313 1.429 . S
C322 N319 1.350 . S
C322 C321 1.434 . S
C323 C324 1.369 1_465 S
C323 C325 1.419 . S
C323 H327 0.930 . S
C324 C323 1.369 1_645 S
C324 C333 1.429 . S
C325 C323 1.419 . S
C325 C326 1.363 1_455 S
C325 H328 0.929 . S
C326 C325 1.363 1_655 S
C326 C332 1.428 1_565 S
H327 C323 0.930 . S
H328 C325 0.929 . S
S329 N330 1.613 . S
S329 N331 1.610 . S
N330 S329 1.613 . S
N330 C333 1.350 . S
N331 S329 1.610 . S
N331 C332 1.351 . S
C332 C326 1.428 1_545 S
C332 N331 1.351 . S
C332 C333 1.434 . S
C333 C324 1.429 . S
C333 N330 1.350 . S
C333 C332 1.434 . S
C334 C335 1.369 . S
C334 C336 1.419 1_556 S
C334 H338 0.930 . S
C335 C334 1.369 . S
C335 C344 1.429 . S
C336 C334 1.419 1_554 S
C336 C337 1.363 . S
C336 H339 0.929 . S
C337 C336 1.363 . S
C337 C343 1.428 . S
H338 C334 0.930 . S
H339 C336 0.929 . S
S340 N341 1.613 . S
S340 N342 1.610 1_556 S
N341 S340 1.613 . S
N341 C344 1.350 . S
N342 S340 1.610 1_554 S
N342 C343 1.351 . S
C343 C337 1.428 . S
C343 N342 1.351 . S
C343 C344 1.434 1_554 S
C344 C335 1.429 . S
C344 N341 1.350 . S
C344 C343 1.434 1_556 S
C345 C346 1.372 . S
C345 C347 1.416 1_565 S
C345 H349 0.931 . S
C346 C345 1.372 . S
C346 C355 1.429 . S
C347 C345 1.416 1_545 S
C347 C348 1.363 . S
C347 H350 0.929 . S
C348 C347 1.363 . S
C348 C354 1.428 . S
H349 C345 0.931 . S
H350 C347 0.929 . S
S351 N352 1.613 . S
S351 N353 1.610 1_565 S
N352 S351 1.613 . S
N352 C355 1.350 . S
N353 S351 1.610 1_545 S
N353 C354 1.351 . S
C354 C348 1.428 . S
C354 N353 1.351 . S
C354 C355 1.434 1_545 S
C355 C346 1.429 . S
C355 N352 1.350 . S
C355 C354 1.434 1_565 S
C356 C357 1.369 . S
C356 C358 1.419 . S
C356 H360 0.930 . S
C357 C356 1.369 . S
C357 C366 1.429 . S
C358 C356 1.419 . S
C358 C359 1.363 . S
C358 H361 0.929 . S
C359 C358 1.363 . S
C359 C365 1.428 . S
H360 C356 0.930 . S
H361 C358 0.929 . S
S362 N363 1.613 . S
S362 N364 1.610 . S
N363 S362 1.613 . S
N363 C366 1.350 . S
N364 S362 1.610 . S
N364 C365 1.351 . S
C365 C359 1.428 . S
C365 N364 1.351 . S
C365 C366 1.434 . S
C366 C357 1.429 . S
C366 N363 1.350 . S
C366 C365 1.434 . S
C367 C368 1.369 . S
C367 C369 1.419 . S
C367 H371 0.930 . S
C368 C367 1.369 . S
C368 C377 1.429 1_655 S
C369 C367 1.419 . S
C369 C370 1.363 1_655 S
C369 H372 0.929 . S
C370 C369 1.363 1_455 S
C370 C376 1.428 . S
H371 C367 0.930 . S
H372 C369 0.929 . S
S373 N374 1.613 . S
S373 N375 1.610 . S
N374 S373 1.613 . S
N374 C377 1.350 . S
N375 S373 1.610 . S
N375 C376 1.351 . S
C376 C370 1.428 . S
C376 N375 1.351 . S
C376 C377 1.434 . S
C377 C368 1.429 1_455 S
C377 N374 1.350 . S
C377 C376 1.434 . S
C378 C379 1.369 . S
C378 C380 1.419 1_655 S
C378 H382 0.930 . S
C379 C378 1.369 . S
C379 C388 1.429 . S
C380 C378 1.419 1_455 S
C380 C381 1.363 . S
C380 H383 0.929 . S
C381 C380 1.363 . S
C381 C387 1.428 . S
H382 C378 0.930 . S
H383 C380 0.929 . S
S384 N385 1.613 . S
S384 N386 1.610 1_655 S
N385 S384 1.613 . S
N385 C388 1.350 . S
N386 S384 1.610 1_455 S
N386 C387 1.351 . S
C387 C381 1.428 . S
C387 N386 1.351 . S
C387 C388 1.434 1_455 S
C388 C379 1.429 . S
C388 N385 1.350 . S
C388 C387 1.434 1_655 S
C389 C390 1.369 . S
C389 C391 1.419 . S
C389 H393 0.930 . S
C390 C389 1.369 . S
C390 C399 1.429 1_554 S
C391 C389 1.419 . S
C391 C392 1.363 . S
C391 H394 0.929 . S
C392 C391 1.363 . S
C392 C398 1.428 1_554 S
H393 C389 0.930 . S
H394 C391 0.929 . S
S395 N396 1.613 . S
S395 N397 1.610 . S
N396 S395 1.613 . S
N396 C399 1.350 . S
N397 S395 1.610 . S
N397 C398 1.351 . S
C398 C392 1.428 1_556 S
C398 N397 1.351 . S
C398 C399 1.434 . S
C399 C390 1.429 1_556 S
C399 N396 1.350 . S
C399 C398 1.434 . S
C400 C401 1.369 . S
C400 C402 1.419 . S
C400 H404 0.930 . S
C401 C400 1.369 . S
C401 C410 1.429 . S
C402 C400 1.419 . S
C402 C403 1.363 . S
C402 H405 0.929 . S
C403 C402 1.363 . S
C403 C409 1.428 . S
H404 C400 0.930 . S
H405 C402 0.929 . S
S406 N407 1.613 . S
S406 N408 1.610 . S
N407 S406 1.613 . S
N407 C410 1.350 . S
N408 S406 1.610 . S
N408 C409 1.351 . S
C409 C403 1.428 . S
C409 N408 1.351 . S
C409 C410 1.434 . S
C410 C401 1.429 . S
C410 N407 1.350 . S
C410 C409 1.434 . S
C411 C412 1.369 . S
C411 C413 1.419 . S
C411 H415 0.930 . S
C412 C411 1.369 . S
C412 C421 1.429 . S
C413 C411 1.419 . S
C413 C414 1.363 . S
C413 H416 0.929 . S
C414 C413 1.363 . S
C414 C420 1.428 . S
H415 C411 0.930 . S
H416 C413 0.929 . S
S417 N418 1.613 . S
S417 N419 1.610 . S
N418 S417 1.613 . S
N418 C421 1.350 . S
N419 S417 1.610 . S
N419 C420 1.351 . S
C420 C414 1.428 . S
C420 N419 1.351 . S
C420 C421 1.434 . S
C421 C412 1.429 . S
C421 N418 1.350 . S
C421 C420 1.434 . S
C422 C423 1.369 . S
C422 C424 1.419 1_455 S
C422 H426 0.930 . S
C423 C422 1.369 . S
C423 C432 1.429 . S
C424 C422 1.419 1_655 S
C424 C425 1.363 . S
C424 H427 0.929 . S
C425 C424 1.363 . S
C425 C431 1.428 . S
H426 C422 0.930 . S
H427 C424 0.929 . S
S428 N429 1.613 1_655 S
S428 N430 1.610 . S
N429 S428 1.613 1_455 S
N429 C432 1.350 . S
N430 S428 1.610 . S
N430 C431 1.351 . S
C431 C425 1.428 . S
C431 N430 1.351 . S
C431 C432 1.434 1_655 S
C432 C423 1.429 . S
C432 N429 1.350 . S
C432 C431 1.434 1_455 S
C433 C434 1.369 1_655 S
C433 C435 1.419 . S
C433 H437 0.930 . S
C434 C433 1.369 1_455 S
C434 C443 1.429 1_556 S
C435 C433 1.419 . S
C435 C436 1.363 . S
C435 H438 0.929 . S
C436 C435 1.363 . S
C436 C442 1.428 1_656 S
H437 C433 0.930 . S
H438 C435 0.929 . S
S439 N440 1.613 . S
S439 N441 1.610 . S
N440 S439 1.613 . S
N440 C443 1.350 . S
N441 S439 1.610 . S
N441 C442 1.351 . S
C442 C436 1.428 1_454 S
C442 N441 1.351 . S
C442 C443 1.434 . S
C443 C434 1.429 1_554 S
C443 N440 1.350 . S
C443 C442 1.434 . S
C444 C445 1.369 . S
C444 C446 1.419 . S
C444 H448 0.930 . S
C445 C444 1.369 . S
C445 C454 1.429 . S
C446 C444 1.419 . S
C446 C447 1.363 . S
C446 H449 0.929 . S
C447 C446 1.363 . S
C447 C453 1.428 . S
H448 C444 0.930 . S
H449 C446 0.929 . S
S450 N451 1.613 . S
S450 N452 1.610 . S
N451 S450 1.613 . S
N451 C454 1.350 . S
N452 S450 1.610 . S
N452 C453 1.351 . S
C453 C447 1.428 . S
C453 N452 1.351 . S
C453 C454 1.434 . S
C454 C445 1.429 . S
C454 N451 1.350 . S
C454 C453 1.434 . S
C455 C456 1.369 . S
C455 C457 1.419 1_545 S
C455 H459 0.930 . S
C456 C455 1.369 . S
C456 C465 1.429 . S
C457 C455 1.419 1_565 S
C457 C458 1.363 . S
C457 H460 0.929 . S
C458 C457 1.363 . S
C458 C464 1.428 . S
H459 C455 0.930 . S
H460 C457 0.929 . S
S461 N462 1.613 . S
S461 N463 1.610 1_545 S
N462 S461 1.613 . S
N462 C465 1.350 . S
N463 S461 1.610 1_565 S
N463 C464 1.351 . S
C464 C458 1.428 . S
C464 N463 1.351 . S
C464 C465 1.434 1_565 S
C465 C456 1.429 . S
C465 N462 1.350 . S
C465 C464 1.434 1_545 S
C466 C467 1.376 . S
C466 C468 1.419 . S
C466 H470 0.930 . S
C467 C466 1.376 . S
C467 C476 1.421 1_556 S
C468 C466 1.419 . S
C468 C469 1.363 1_556 S
C468 H471 0.929 . S
C469 C468 1.363 1_554 S
C469 C475 1.428 . S
H470 C466 0.930 . S
H471 C468 0.929 . S
S472 N473 1.613 . S
S472 N474 1.610 . S
N473 S472 1.613 . S
N473 C476 1.350 . S
N474 S472 1.610 . S
N474 C475 1.351 . S
C475 C469 1.428 . S
C475 N474 1.351 . S
C475 C476 1.434 . S
C476 C467 1.421 1_554 S
C476 N473 1.350 . S
C476 C475 1.434 . S
C477 C478 1.369 . S
C477 C479 1.419 1_545 S
C477 H481 0.930 . S
C478 C477 1.369 . S
C478 C487 1.429 . S
C479 C477 1.419 1_565 S
C479 C480 1.363 . S
C479 H482 0.929 . S
C480 C479 1.363 . S
C480 C486 1.428 . S
H481 C477 0.930 . S
H482 C479 0.929 . S
S483 N484 1.613 . S
S483 N485 1.610 1_545 S
N484 S483 1.613 . S
N484 C487 1.350 . S
N485 S483 1.610 1_565 S
N485 C486 1.351 . S
C486 C480 1.428 . S
C486 N485 1.351 . S
C486 C487 1.434 1_565 S
C487 C478 1.429 . S
C487 N484 1.350 . S
C487 C486 1.434 1_545 S
C488 C489 1.369 1_556 S
C488 C490 1.419 . S
C488 H492 0.930 . S
C489 C488 1.369 1_554 S
C489 C498 1.429 1_545 S
C490 C488 1.419 . S
C490 C491 1.363 . S
C490 H493 0.929 . S
C491 C490 1.363 . S
C491 C497 1.428 1_546 S
H492 C488 0.930 . S
H493 C490 0.929 . S
S494 N495 1.613 . S
S494 N496 1.610 . S
N495 S494 1.613 . S
N495 C498 1.350 . S
N496 S494 1.610 . S
N496 C497 1.351 . S
C497 C491 1.428 1_564 S
C497 N496 1.351 . S
C497 C498 1.434 . S
C498 C489 1.429 1_565 S
C498 N495 1.350 . S
C498 C497 1.434 . S
C499 C500 1.369 . S
C499 C501 1.419 . S
C499 H503 0.930 . S
C500 C499 1.369 . S
C500 C509 1.429 . S
C501 C499 1.419 . S
C501 C502 1.363 . S
C501 H504 0.929 . S
C502 C501 1.363 . S
C502 C508 1.428 . S
H503 C499 0.930 . S
H504 C501 0.929 . S
S505 N506 1.613 . S
S505 N507 1.610 . S
N506 S505 1.613 . S
N506 C509 1.350 . S
N507 S505 1.610 . S
N507 C508 1.351 . S
C508 C502 1.428 . S
C508 N507 1.351 . S
C508 C509 1.434 . S
C509 C500 1.429 . S
C509 N506 1.350 . S
C509 C508 1.434 . S
C510 C511 1.369 . S
C510 C512 1.419 . S
C510 H514 0.930 . S
C511 C510 1.369 . S
C511 C520 1.429 . S
C512 C510 1.419 . S
C512 C513 1.363 . S
C512 H515 0.929 . S
C513 C512 1.363 . S
C513 C519 1.428 . S
H514 C510 0.930 . S
H515 C512 0.929 . S
S516 N517 1.613 . S
S516 N518 1.610 . S
N517 S516 1.613 . S
N517 C520 1.350 . S
N518 S516 1.610 . S
N518 C519 1.351 . S
C519 C513 1.428 . S
C519 N518 1.351 . S
C519 C520 1.434 . S
C520 C511 1.429 . S
C520 N517 1.350 . S
C520 C519 1.434 . S
C521 C522 1.369 . S
C521 C523 1.419 1_556 S
C521 H525 0.930 . S
C522 C521 1.369 . S
C522 C531 1.429 . S
C523 C521 1.419 1_554 S
C523 C524 1.363 . S
C523 H526 0.929 . S
C524 C523 1.363 . S
C524 C530 1.428 . S
H525 C521 0.930 . S
H526 C523 0.929 . S
S527 N528 1.613 1_554 S
S527 N529 1.610 . S
N528 S527 1.613 1_556 S
N528 C531 1.350 . S
N529 S527 1.610 . S
N529 C530 1.351 . S
C530 C524 1.428 . S
C530 N529 1.351 . S
C530 C531 1.434 1_554 S
C531 C522 1.429 . S
C531 N528 1.350 . S
C531 C530 1.434 1_556 S
C532 C533 1.369 . S
C532 C534 1.419 . S
C532 H536 0.930 . S
C533 C532 1.369 . S
C533 C542 1.429 . S
C534 C532 1.419 . S
C534 C535 1.363 . S
C534 H537 0.929 . S
C535 C534 1.363 . S
C535 C541 1.428 . S
H536 C532 0.930 . S
H537 C534 0.929 . S
S538 N539 1.613 . S
S538 N540 1.610 . S
N539 S538 1.613 . S
N539 C542 1.350 . S
N540 S538 1.610 . S
N540 C541 1.351 . S
C541 C535 1.428 . S
C541 N540 1.351 . S
C541 C542 1.434 . S
C542 C533 1.429 . S
C542 N539 1.350 . S
C542 C541 1.434 . S
C543 C544 1.369 . S
C543 C545 1.419 . S
C543 H547 0.930 . S
C544 C543 1.369 . S
C544 C553 1.429 . S
C545 C543 1.419 . S
C545 C546 1.363 . S
C545 H548 0.929 . S
C546 C545 1.363 . S
C546 C552 1.428 . S
H547 C543 0.930 . S
H548 C545 0.929 . S
S549 N550 1.613 . S
S549 N551 1.610 . S
N550 S549 1.613 . S
N550 C553 1.350 . S
N551 S549 1.610 . S
N551 C552 1.351 . S
C552 C546 1.428 . S
C552 N551 1.351 . S
C552 C553 1.434 . S
C553 C544 1.429 . S
C553 N550 1.350 . S
C553 C552 1.434 . S
C554 C555 1.369 . S
C554 C556 1.419 . S
C554 H558 0.930 . S
C555 C554 1.369 . S
C555 C564 1.429 . S
C556 C554 1.419 . S
C556 C557 1.363 . S
C556 H559 0.929 . S
C557 C556 1.363 . S
C557 C563 1.428 . S
H558 C554 0.930 . S
H559 C556 0.929 . S
S560 N561 1.613 . S
S560 N562 1.610 . S
N561 S560 1.613 . S
N561 C564 1.350 1_655 S
N562 S560 1.610 . S
N562 C563 1.351 1_655 S
C563 C557 1.428 . S
C563 N562 1.351 1_455 S
C563 C564 1.434 . S
C564 C555 1.429 . S
C564 N561 1.350 1_455 S
C564 C563 1.434 . S
C565 C566 1.369 1_545 S
C565 C567 1.419 . S
C565 H569 0.930 . S
C566 C565 1.369 1_565 S
C566 C575 1.429 . S
C567 C565 1.419 . S
C567 C568 1.363 1_545 S
C567 H570 0.929 . S
C568 C567 1.363 1_565 S
C568 C574 1.428 . S
H569 C565 0.930 . S
H570 C567 0.929 . S
S571 N572 1.613 . S
S571 N573 1.610 . S
N572 S571 1.613 . S
N572 C575 1.350 . S
N573 S571 1.610 . S
N573 C574 1.351 . S
C574 C568 1.428 . S
C574 N573 1.351 . S
C574 C575 1.434 . S
C575 C566 1.429 . S
C575 N572 1.350 . S
C575 C574 1.434 . S
C225 C11 1.675 . S
C227 C109 1.675 . S
C236 C25 1.675 . S
C238 C67 1.674 . S
C247 C81 1.675 . S
C249 C39 1.675 . S
C258 C53 1.674 . S
C260 C95 1.675 . S
C269 C123 1.674 . S
C271 C179 1.675 . S
C280 C137 1.675 . S
C282 C207 1.675 . S
C291 C165 1.675 . S
C293 C151 1.675 . S
C302 C221 1.674 . S
C304 C193 1.675 . S
C313 C13 1.161 . S
C315 C97 1.175 . S
C324 C106 1.346 1_545 S
C326 C22 1.345 1_565 S
C335 C41 1.159 . S
C337 C69 1.174 . S
C346 C78 1.343 1_565 S
C348 C50 1.347 1_545 S
C357 C7 1.208 . S
C359 C203 1.204 . S
C368 C167 1.157 1_655 S
C370 C27 1.172 1_455 S
C379 C189 1.209 . S
C381 C35 1.210 . S
C390 C181 1.164 . S
C392 C55 1.175 . S
C401 C147 1.209 . S
C403 C63 1.210 . S
C412 C83 1.170 . S
C414 C223 1.172 . S
C423 C91 1.204 . S
C425 C119 1.203 . S
C434 C111 1.176 1_455 S
C436 C139 1.161 1_655 S
C445 C8 1.353 . S
C447 C64 1.341 . S
C456 C120 1.341 . S
C458 C190 1.349 . S
C467 C175 1.200 1_556 S
C469 C133 1.207 1_554 S
C478 C204 1.339 . S
C480 C148 1.351 . S
C489 C105 1.203 1_554 S
C491 C49 1.203 1_556 S
C500 C36 1.340 . S
C502 C92 1.351 . S
C511 C161 1.211 . S
C513 C217 1.208 . S
C522 C195 1.164 . S
C524 C153 1.163 . S
C533 C218 1.352 . S
C535 C176 1.342 . S
C544 C209 1.171 . S
C546 C125 1.171 . S
C555 C162 1.352 . S
C557 C134 1.341 . S
C566 C21 1.211 . S
C568 C77 1.209 . S
