# Generated by pormake.
# Topology vbw, (6)-cn, num edge types: 1
# Building blocks:
#     Node 0, Type 0, BuildingBlock: OJICUG_clean_sbu_0, # of connection points: 6
#     Node 1, Type 0, BuildingBlock: OJICUG_clean_sbu_0, # of connection points: 6
#     Node 2, Type 0, BuildingBlock: OJICUG_clean_sbu_0, # of connection points: 6
#     Node 3, Type 0, BuildingBlock: OJICUG_clean_sbu_0, # of connection points: 6
#     Node 4, Type 0, BuildingBlock: OJICUG_clean_sbu_0, # of connection points: 6
#     Node 5, Type 0, BuildingBlock: OJICUG_clean_sbu_0, # of connection points: 6
#     Node 6, Type 0, BuildingBlock: OJICUG_clean_sbu_0, # of connection points: 6
#     Node 7, Type 0, BuildingBlock: OJICUG_clean_sbu_0, # of connection points: 6
#     Node 8, Type 0, BuildingBlock: OJICUG_clean_sbu_0, # of connection points: 6
#     Node 9, Type 0, BuildingBlock: OJICUG_clean_sbu_0, # of connection points: 6
#     Node 10, Type 0, BuildingBlock: OJICUG_clean_sbu_0, # of connection points: 6
#     Node 11, Type 0, BuildingBlock: OJICUG_clean_sbu_0, # of connection points: 6
#     Node 12, Type 0, BuildingBlock: OJICUG_clean_sbu_0, # of connection points: 6
#     Node 13, Type 0, BuildingBlock: OJICUG_clean_sbu_0, # of connection points: 6
#     Node 14, Type 0, BuildingBlock: OJICUG_clean_sbu_0, # of connection points: 6
#     Node 15, Type 0, BuildingBlock: OJICUG_clean_sbu_0, # of connection points: 6
#     Edge 16, Type (0, 0), BuildingBlock: EZIPEK_clean_linker_0, # of connection points: 2
#     Edge 17, Type (0, 0), BuildingBlock: EZIPEK_clean_linker_0, # of connection points: 2
#     Edge 18, Type (0, 0), BuildingBlock: EZIPEK_clean_linker_0, # of connection points: 2
#     Edge 19, Type (0, 0), BuildingBlock: EZIPEK_clean_linker_0, # of connection points: 2
#     Edge 20, Type (0, 0), BuildingBlock: EZIPEK_clean_linker_0, # of connection points: 2
#     Edge 21, Type (0, 0), BuildingBlock: EZIPEK_clean_linker_0, # of connection points: 2
#     Edge 22, Type (0, 0), BuildingBlock: EZIPEK_clean_linker_0, # of connection points: 2
#     Edge 23, Type (0, 0), BuildingBlock: EZIPEK_clean_linker_0, # of connection points: 2
#     Edge 24, Type (0, 0), BuildingBlock: EZIPEK_clean_linker_0, # of connection points: 2
#     Edge 25, Type (0, 0), BuildingBlock: EZIPEK_clean_linker_0, # of connection points: 2
#     Edge 26, Type (0, 0), BuildingBlock: EZIPEK_clean_linker_0, # of connection points: 2
#     Edge 27, Type (0, 0), BuildingBlock: EZIPEK_clean_linker_0, # of connection points: 2
#     Edge 28, Type (0, 0), BuildingBlock: EZIPEK_clean_linker_0, # of connection points: 2
#     Edge 29, Type (0, 0), BuildingBlock: EZIPEK_clean_linker_0, # of connection points: 2
#     Edge 30, Type (0, 0), BuildingBlock: EZIPEK_clean_linker_0, # of connection points: 2
#     Edge 31, Type (0, 0), BuildingBlock: EZIPEK_clean_linker_0, # of connection points: 2
#     Edge 32, Type (0, 0), BuildingBlock: EZIPEK_clean_linker_0, # of connection points: 2
#     Edge 33, Type (0, 0), BuildingBlock: EZIPEK_clean_linker_0, # of connection points: 2
#     Edge 34, Type (0, 0), BuildingBlock: EZIPEK_clean_linker_0, # of connection points: 2
#     Edge 35, Type (0, 0), BuildingBlock: EZIPEK_clean_linker_0, # of connection points: 2
#     Edge 36, Type (0, 0), BuildingBlock: EZIPEK_clean_linker_0, # of connection points: 2
#     Edge 37, Type (0, 0), BuildingBlock: EZIPEK_clean_linker_0, # of connection points: 2
#     Edge 38, Type (0, 0), BuildingBlock: EZIPEK_clean_linker_0, # of connection points: 2
#     Edge 39, Type (0, 0), BuildingBlock: EZIPEK_clean_linker_0, # of connection points: 2
#     Edge 40, Type (0, 0), BuildingBlock: EZIPEK_clean_linker_0, # of connection points: 2
#     Edge 41, Type (0, 0), BuildingBlock: EZIPEK_clean_linker_0, # of connection points: 2
#     Edge 42, Type (0, 0), BuildingBlock: EZIPEK_clean_linker_0, # of connection points: 2
#     Edge 43, Type (0, 0), BuildingBlock: EZIPEK_clean_linker_0, # of connection points: 2
#     Edge 44, Type (0, 0), BuildingBlock: EZIPEK_clean_linker_0, # of connection points: 2
#     Edge 45, Type (0, 0), BuildingBlock: EZIPEK_clean_linker_0, # of connection points: 2
#     Edge 46, Type (0, 0), BuildingBlock: EZIPEK_clean_linker_0, # of connection points: 2
#     Edge 47, Type (0, 0), BuildingBlock: EZIPEK_clean_linker_0, # of connection points: 2
#     Edge 48, Type (0, 0), BuildingBlock: EZIPEK_clean_linker_0, # of connection points: 2
#     Edge 49, Type (0, 0), BuildingBlock: EZIPEK_clean_linker_0, # of connection points: 2
#     Edge 50, Type (0, 0), BuildingBlock: EZIPEK_clean_linker_0, # of connection points: 2
#     Edge 51, Type (0, 0), BuildingBlock: EZIPEK_clean_linker_0, # of connection points: 2
#     Edge 52, Type (0, 0), BuildingBlock: EZIPEK_clean_linker_0, # of connection points: 2
#     Edge 53, Type (0, 0), BuildingBlock: EZIPEK_clean_linker_0, # of connection points: 2
#     Edge 54, Type (0, 0), BuildingBlock: EZIPEK_clean_linker_0, # of connection points: 2
#     Edge 55, Type (0, 0), BuildingBlock: EZIPEK_clean_linker_0, # of connection points: 2
#     Edge 56, Type (0, 0), BuildingBlock: EZIPEK_clean_linker_0, # of connection points: 2
#     Edge 57, Type (0, 0), BuildingBlock: EZIPEK_clean_linker_0, # of connection points: 2
#     Edge 58, Type (0, 0), BuildingBlock: EZIPEK_clean_linker_0, # of connection points: 2
#     Edge 59, Type (0, 0), BuildingBlock: EZIPEK_clean_linker_0, # of connection points: 2
#     Edge 60, Type (0, 0), BuildingBlock: EZIPEK_clean_linker_0, # of connection points: 2
#     Edge 61, Type (0, 0), BuildingBlock: EZIPEK_clean_linker_0, # of connection points: 2
#     Edge 62, Type (0, 0), BuildingBlock: EZIPEK_clean_linker_0, # of connection points: 2
#     Edge 63, Type (0, 0), BuildingBlock: EZIPEK_clean_linker_0, # of connection points: 2
# Relax obj value: 0.200
# Max RMSD: 0.231
# Mean RMSD: 0.231
data_MOF--net-vbw--node1-OJICUG_clean_sbu_0--edge1-EZIPEK_clean_linker_0
_symmetry_space_group_name_H-M    P1
_symmetry_Int_Tables_number       1
_symmetry_cell_setting            triclinic
loop_
_symmetry_equiv_pos_as_xyz
'x, y, z'
_cell_length_a     43.784795
_cell_length_b     34.875664
_cell_length_c     21.827242
_cell_angle_alpha  90.017285
_cell_angle_beta   89.904361
_cell_angle_gamma 89.817823
loop_
_atom_site_label
_atom_site_type_symbol
_atom_site_fract_x
_atom_site_fract_y
_atom_site_fract_z
_atom_type_partial_charge
Sc0 Sc 0.1593 0.13236 0.03613 0.0
Sc1 Sc 0.1193 0.21509 0.08096 0.0
Sc2 Sc 0.10862 0.12864 0.16115 0.0
O3 O 0.12882 0.15866 0.09224 0.0
C4 C 0.11328 0.06393 0.05654 0.0
C5 C 0.1237 0.18568 0.94249 0.0
C6 C 0.05383 0.17652 0.10844 0.0
C7 C 0.18894 0.21443 0.0467 0.0
C8 C 0.17989 0.1079 0.17197 0.0
C9 C 0.11642 0.21176 0.2245 0.0
O10 O 0.1339 0.08128 0.0274 0.0
O11 O 0.11552 0.20939 0.98363 0.0
O12 O 0.06408 0.14555 0.13135 0.0
O13 O 0.18903 0.17937 0.03305 0.0
O14 O 0.15339 0.11193 0.19591 0.0
O15 O 0.12445 0.22839 0.1757 0.0
O16 O 0.18505 0.11204 0.11478 0.0
O17 O 0.16615 0.23186 0.06951 0.0
O18 O 0.10853 0.17662 0.22526 0.0
O19 O 0.13701 0.15385 0.95405 0.0
O20 O 0.10237 0.07668 0.10663 0.0
O21 O 0.07067 0.20431 0.09103 0.0
Sc22 Sc 0.31929 0.86768 0.54434 0.0
Sc23 Sc 0.36171 0.78863 0.59547 0.0
Sc24 Sc 0.36901 0.87761 0.66977 0.0
O25 O 0.35032 0.84473 0.60268 0.0
C26 C 0.3621 0.93965 0.56184 0.0
C27 C 0.35674 0.81401 0.45489 0.0
C28 C 0.42549 0.8315 0.61925 0.0
C29 C 0.29283 0.78417 0.56074 0.0
C30 C 0.29671 0.89338 0.67851 0.0
C31 C 0.36479 0.79608 0.73857 0.0
O32 O 0.34228 0.92049 0.53346 0.0
O33 O 0.36481 0.79152 0.4977 0.0
O34 O 0.41427 0.86235 0.64103 0.0
O35 O 0.29198 0.81845 0.54278 0.0
O36 O 0.3233 0.89222 0.70284 0.0
O37 O 0.3576 0.77771 0.69094 0.0
O38 O 0.29204 0.88754 0.62154 0.0
O39 O 0.31554 0.76912 0.58739 0.0
O40 O 0.37093 0.83171 0.73722 0.0
O41 O 0.34313 0.84597 0.46404 0.0
O42 O 0.37345 0.92849 0.61236 0.0
O43 O 0.40966 0.80251 0.60339 0.0
Sc44 Sc 0.16087 0.85564 0.96147 0.0
Sc45 Sc 0.11704 0.77483 0.92256 0.0
Sc46 Sc 0.11548 0.85784 0.82889 0.0
O47 O 0.13118 0.82928 0.90409 0.0
C48 C 0.11609 0.9243 0.93131 0.0
C49 C 0.12304 0.80765 0.05872 0.0
C50 C 0.05566 0.8179 0.88291 0.0
C51 C 0.18655 0.77057 0.95696 0.0
C52 C 0.1867 0.87977 0.82882 0.0
C53 C 0.12048 0.77171 0.777 0.0
O54 O 0.1363 0.90789 0.96326 0.0
O55 O 0.11458 0.78341 0.01905 0.0
O56 O 0.06902 0.8425 0.8493 0.0
O57 O 0.18798 0.80608 0.96799 0.0
O58 O 0.16125 0.87562 0.80127 0.0
O59 O 0.11889 0.75639 0.8294 0.0
O60 O 0.18983 0.87394 0.88609 0.0
O61 O 0.16309 0.75369 0.9358 0.0
O62 O 0.1209 0.80796 0.76881 0.0
O63 O 0.13664 0.83856 0.0442 0.0
O64 O 0.10629 0.91037 0.88103 0.0
O65 O 0.06965 0.79202 0.91329 0.0
Sc66 Sc 0.36127 0.14001 0.32105 0.0
Sc67 Sc 0.35897 0.22655 0.4053 0.0
Sc68 Sc 0.31458 0.14809 0.45147 0.0
O69 O 0.34495 0.17158 0.39239 0.0
C70 C 0.28978 0.11911 0.32127 0.0
C71 C 0.3574 0.22297 0.26023 0.0
C72 C 0.28962 0.23331 0.43534 0.0
C73 C 0.42045 0.18269 0.37344 0.0
C74 C 0.35913 0.0777 0.42914 0.0
C75 C 0.35107 0.19944 0.54397 0.0
O76 O 0.31582 0.12019 0.29499 0.0
O77 O 0.36038 0.24026 0.31064 0.0
O78 O 0.2885 0.19893 0.45356 0.0
O79 O 0.40756 0.15774 0.33969 0.0
O80 O 0.33788 0.09482 0.4575 0.0
O81 O 0.35855 0.22273 0.50224 0.0
O82 O 0.37059 0.09041 0.37944 0.0
O83 O 0.40609 0.20849 0.40326 0.0
O84 O 0.33909 0.16697 0.53269 0.0
O85 O 0.35522 0.18664 0.25563 0.0
O86 O 0.28582 0.12877 0.37698 0.0
O87 O 0.31286 0.24842 0.41008 0.0
Sc88 Sc 0.86656 0.87349 0.83415 0.0
Sc89 Sc 0.86092 0.78985 0.92456 0.0
Sc90 Sc 0.81862 0.87205 0.9637 0.0
O91 O 0.8489 0.84519 0.90751 0.0
C92 C 0.8633 0.94103 0.93425 0.0
C93 C 0.92415 0.82871 0.89129 0.0
C94 C 0.85402 0.82293 0.06114 0.0
C95 C 0.86129 0.78886 0.77816 0.0
C96 C 0.7952 0.89516 0.82947 0.0
C97 C 0.79165 0.78788 0.95615 0.0
O98 O 0.8754 0.92564 0.88704 0.0
O99 O 0.90865 0.80425 0.92133 0.0
O100 O 0.84269 0.85544 0.04671 0.0
O101 O 0.86078 0.82518 0.77172 0.0
O102 O 0.79058 0.88834 0.88606 0.0
O103 O 0.81411 0.77131 0.93018 0.0
O104 O 0.82158 0.89306 0.80463 0.0
O105 O 0.86218 0.77278 0.83016 0.0
O106 O 0.79146 0.82263 0.97226 0.0
O107 O 0.91241 0.85429 0.85664 0.0
O108 O 0.84213 0.92529 0.96446 0.0
O109 O 0.86076 0.79744 0.02194 0.0
Sc110 Sc 0.65935 0.14219 0.45569 0.0
Sc111 Sc 0.61335 0.21946 0.40844 0.0
Sc112 Sc 0.61142 0.13161 0.32809 0.0
O113 O 0.62783 0.1644 0.39758 0.0
C114 C 0.68342 0.11329 0.32479 0.0
C115 C 0.68256 0.22756 0.43794 0.0
C116 C 0.61577 0.21354 0.26298 0.0
C117 C 0.62183 0.19317 0.54819 0.0
C118 C 0.61563 0.07054 0.43743 0.0
C119 C 0.55199 0.17588 0.3779 0.0
O120 O 0.68793 0.12404 0.37976 0.0
O121 O 0.65909 0.24144 0.41193 0.0
O122 O 0.61741 0.17706 0.26084 0.0
O123 O 0.63504 0.16126 0.53713 0.0
O124 O 0.60286 0.08296 0.38884 0.0
O125 O 0.56632 0.20218 0.40607 0.0
O126 O 0.63733 0.08803 0.4634 0.0
O127 O 0.6134 0.21617 0.50648 0.0
O128 O 0.56493 0.14968 0.34638 0.0
O129 O 0.68462 0.19351 0.45718 0.0
O130 O 0.65685 0.11183 0.30102 0.0
O131 O 0.61247 0.23193 0.31258 0.0
Sc132 Sc 0.81267 0.15098 0.04326 0.0
Sc133 Sc 0.86064 0.22611 0.07617 0.0
Sc134 Sc 0.86295 0.14339 0.16585 0.0
O135 O 0.84544 0.17361 0.09644 0.0
C136 C 0.7937 0.11859 0.17419 0.0
C137 C 0.78788 0.23083 0.05417 0.0
C138 C 0.85686 0.22977 0.21962 0.0
C139 C 0.8496 0.20313 0.94696 0.0
C140 C 0.86118 0.08502 0.05005 0.0
C141 C 0.92231 0.18463 0.11645 0.0
O142 O 0.79148 0.1171 0.11607 0.0
O143 O 0.81464 0.24512 0.04998 0.0
O144 O 0.86209 0.19378 0.22621 0.0
O145 O 0.8255 0.18488 0.96186 0.0
O146 O 0.86592 0.09176 0.10715 0.0
O147 O 0.90758 0.21326 0.09601 0.0
O148 O 0.84293 0.10549 0.01835 0.0
O149 O 0.8708 0.20745 0.98523 0.0
O150 O 0.90944 0.15533 0.13947 0.0
O151 O 0.78332 0.1962 0.06876 0.0
O152 O 0.81776 0.13044 0.20042 0.0
O153 O 0.85309 0.24583 0.16781 0.0
Sc154 Sc 0.66142 0.86216 0.54679 0.0
Sc155 Sc 0.6187 0.78229 0.59266 0.0
Sc156 Sc 0.61447 0.86878 0.67697 0.0
O157 O 0.63148 0.83775 0.6057 0.0
C158 C 0.68572 0.89036 0.67809 0.0
C159 C 0.68793 0.77782 0.56318 0.0
C160 C 0.61926 0.78551 0.73788 0.0
C161 C 0.62582 0.81007 0.45387 0.0
C162 C 0.61653 0.93207 0.56977 0.0
C163 C 0.5565 0.82462 0.62271 0.0
O164 O 0.68979 0.88158 0.62198 0.0
O165 O 0.66511 0.76202 0.58871 0.0
O166 O 0.62041 0.82194 0.74245 0.0
O167 O 0.63701 0.84297 0.46544 0.0
O168 O 0.60518 0.91904 0.61943 0.0
O169 O 0.57143 0.79887 0.59407 0.0
O170 O 0.63761 0.91502 0.54095 0.0
O171 O 0.61919 0.78633 0.49558 0.0
O172 O 0.56864 0.85029 0.65628 0.0
O173 O 0.68826 0.81207 0.54429 0.0
O174 O 0.65966 0.88869 0.70422 0.0
O175 O 0.61726 0.76818 0.68729 0.0
Sc176 Sc 0.66326 0.64237 0.04633 0.0
Sc177 Sc 0.61724 0.71966 0.09276 0.0
Sc178 Sc 0.61656 0.63314 0.17653 0.0
O179 O 0.63218 0.66498 0.10514 0.0
C180 C 0.62096 0.57002 0.06965 0.0
C181 C 0.62542 0.69229 0.95401 0.0
C182 C 0.55666 0.67531 0.12538 0.0
C183 C 0.68615 0.7279 0.06124 0.0
C184 C 0.68856 0.61578 0.17715 0.0
C185 C 0.61965 0.71631 0.23808 0.0
O186 O 0.64201 0.58784 0.04209 0.0
O187 O 0.61757 0.71559 0.99561 0.0
O188 O 0.57003 0.65051 0.15887 0.0
O189 O 0.68789 0.69384 0.04206 0.0
O190 O 0.66224 0.61437 0.20217 0.0
O191 O 0.61575 0.73347 0.18772 0.0
O192 O 0.69258 0.6257 0.12162 0.0
O193 O 0.66299 0.74201 0.08842 0.0
O194 O 0.62237 0.67996 0.24218 0.0
O195 O 0.63811 0.66005 0.96511 0.0
O196 O 0.60822 0.58296 0.11811 0.0
O197 O 0.57048 0.70116 0.09508 0.0
Sc198 Sc 0.81632 0.37328 0.52992 0.0
Sc199 Sc 0.85526 0.29111 0.57868 0.0
Sc200 Sc 0.86191 0.37733 0.66135 0.0
O201 O 0.84477 0.34728 0.58995 0.0
C202 C 0.86297 0.44072 0.55598 0.0
C203 C 0.85133 0.32027 0.43939 0.0
C204 C 0.91868 0.32783 0.61246 0.0
C205 C 0.78716 0.29086 0.54235 0.0
C206 C 0.79101 0.40027 0.66019 0.0
C207 C 0.85291 0.29581 0.72448 0.0
O208 O 0.84018 0.42625 0.52915 0.0
O209 O 0.85537 0.29528 0.48083 0.0
O210 O 0.90695 0.35414 0.6456 0.0
O211 O 0.78902 0.32423 0.52048 0.0
O212 O 0.8174 0.40122 0.68488 0.0
O213 O 0.85599 0.27766 0.67455 0.0
O214 O 0.78675 0.39036 0.60471 0.0
O215 O 0.80785 0.275 0.57447 0.0
O216 O 0.85195 0.33228 0.72695 0.0
O217 O 0.84266 0.35449 0.45093 0.0
O218 O 0.87503 0.42551 0.60315 0.0
O219 O 0.90324 0.30391 0.58125 0.0
Sc220 Sc 0.66286 0.35447 0.94672 0.0
Sc221 Sc 0.60937 0.28577 0.91102 0.0
Sc222 Sc 0.61332 0.36989 0.82472 0.0
O223 O 0.62837 0.3369 0.89324 0.0
C224 C 0.62198 0.42782 0.94055 0.0
C225 C 0.62091 0.30636 0.04106 0.0
C226 C 0.55163 0.33475 0.86966 0.0
C227 C 0.68062 0.27169 0.9352 0.0
C228 C 0.68379 0.38796 0.81696 0.0
C229 C 0.61446 0.28349 0.76832 0.0
O230 O 0.63815 0.40476 0.97219 0.0
O231 O 0.59957 0.30418 0.00237 0.0
O232 O 0.56657 0.36345 0.85089 0.0
O233 O 0.68772 0.30551 0.92025 0.0
O234 O 0.65894 0.37954 0.79037 0.0
O235 O 0.61749 0.2666 0.81957 0.0
O236 O 0.68701 0.38549 0.87476 0.0
O237 O 0.65294 0.26088 0.94011 0.0
O238 O 0.61091 0.31992 0.76266 0.0
O239 O 0.64622 0.32222 0.0269 0.0
O240 O 0.61373 0.42057 0.88525 0.0
O241 O 0.56392 0.30357 0.88674 0.0
Sc242 Sc 0.86798 0.64787 0.33065 0.0
Sc243 Sc 0.86757 0.7292 0.42645 0.0
Sc244 Sc 0.82107 0.65077 0.4599 0.0
O245 O 0.85231 0.67601 0.40541 0.0
C246 C 0.7984 0.62429 0.32633 0.0
C247 C 0.86171 0.73579 0.2832 0.0
C248 C 0.79675 0.73322 0.45939 0.0
C249 C 0.92774 0.68615 0.38034 0.0
C250 C 0.86567 0.58232 0.43581 0.0
C251 C 0.86192 0.69714 0.55913 0.0
O252 O 0.82246 0.6351 0.29879 0.0
O253 O 0.85879 0.75031 0.33617 0.0
O254 O 0.79191 0.69799 0.45051 0.0
O255 O 0.91425 0.65815 0.35546 0.0
O256 O 0.84889 0.60161 0.47189 0.0
O257 O 0.8779 0.71385 0.51871 0.0
O258 O 0.87239 0.59371 0.38167 0.0
O259 O 0.91412 0.71509 0.40306 0.0
O260 O 0.83949 0.67583 0.54419 0.0
O261 O 0.86659 0.70002 0.27386 0.0
O262 O 0.79601 0.62455 0.38449 0.0
O263 O 0.8229 0.74886 0.45571 0.0
Sc264 Sc 0.36012 0.37548 0.82116 0.0
Sc265 Sc 0.36107 0.28921 0.90594 0.0
Sc266 Sc 0.31454 0.3657 0.95298 0.0
O267 O 0.34535 0.34355 0.89335 0.0
C268 C 0.35618 0.43834 0.92789 0.0
C269 C 0.4207 0.33502 0.87252 0.0
C270 C 0.35281 0.31628 0.04473 0.0
C271 C 0.35777 0.29209 0.76077 0.0
C272 C 0.28827 0.39294 0.82267 0.0
C273 C 0.29251 0.27939 0.93854 0.0
O274 O 0.36747 0.42656 0.87738 0.0
O275 O 0.40734 0.30887 0.90291 0.0
O276 O 0.33993 0.34831 0.03363 0.0
O277 O 0.3546 0.32833 0.7565 0.0
O278 O 0.2848 0.38307 0.87843 0.0
O279 O 0.31585 0.26582 0.91139 0.0
O280 O 0.31422 0.39335 0.79619 0.0
O281 O 0.36228 0.27509 0.81105 0.0
O282 O 0.29008 0.31364 0.957 0.0
O283 O 0.40697 0.35936 0.83872 0.0
O284 O 0.33618 0.41999 0.95758 0.0
O285 O 0.36104 0.29322 0.0031 0.0
Sc286 Sc 0.16344 0.63317 0.46002 0.0
Sc287 Sc 0.12097 0.71496 0.42222 0.0
Sc288 Sc 0.11489 0.63153 0.33212 0.0
O289 O 0.13288 0.65981 0.40484 0.0
C290 C 0.18602 0.60964 0.32562 0.0
C291 C 0.18969 0.71756 0.4523 0.0
C292 C 0.12046 0.71569 0.2762 0.0
C293 C 0.12881 0.68186 0.55835 0.0
C294 C 0.11738 0.56507 0.43323 0.0
C295 C 0.05815 0.677 0.39035 0.0
O296 O 0.19125 0.61823 0.38134 0.0
O297 O 0.16771 0.7333 0.42381 0.0
O298 O 0.12216 0.67942 0.26945 0.0
O299 O 0.13959 0.64906 0.54378 0.0
O300 O 0.10433 0.58084 0.38747 0.0
O301 O 0.0736 0.70027 0.42252 0.0
O302 O 0.14018 0.57977 0.45979 0.0
O303 O 0.12257 0.70761 0.5194 0.0
O304 O 0.06972 0.65252 0.35362 0.0
O305 O 0.18981 0.68307 0.4698 0.0
O306 O 0.15926 0.60983 0.30256 0.0
O307 O 0.11811 0.73161 0.32811 0.0
Sc308 Sc 0.31941 0.65441 0.04846 0.0
Sc309 Sc 0.36701 0.7252 0.09773 0.0
Sc310 Sc 0.365 0.6374 0.17322 0.0
O311 O 0.35052 0.67245 0.10737 0.0
C312 C 0.29572 0.61968 0.17559 0.0
C313 C 0.29553 0.73362 0.06663 0.0
C314 C 0.36257 0.72145 0.23747 0.0
C315 C 0.36192 0.7085 0.96436 0.0
C316 C 0.35815 0.58255 0.05443 0.0
C317 C 0.42547 0.67521 0.13307 0.0
O318 O 0.2956 0.61881 0.117 0.0
O319 O 0.32252 0.74764 0.06538 0.0
O320 O 0.37001 0.68577 0.2385 0.0
O321 O 0.33683 0.69066 0.97322 0.0
O322 O 0.36102 0.58616 0.11278 0.0
O323 O 0.41245 0.7077 0.12634 0.0
O324 O 0.34929 0.60993 0.02072 0.0
O325 O 0.38112 0.71283 0.00671 0.0
O326 O 0.41113 0.6442 0.14291 0.0
O327 O 0.29055 0.69865 0.07696 0.0
O328 O 0.319 0.63032 0.20576 0.0
O329 O 0.35484 0.739 0.18905 0.0
Sc330 Sc 0.1583 0.35302 0.54415 0.0
Sc331 Sc 0.11056 0.27799 0.57873 0.0
Sc332 Sc 0.10893 0.36078 0.66784 0.0
O333 O 0.12566 0.33082 0.59768 0.0
C334 C 0.17786 0.3849 0.67523 0.0
C335 C 0.18292 0.27324 0.55353 0.0
C336 C 0.11622 0.27376 0.72029 0.0
C337 C 0.11877 0.30173 0.44967 0.0
C338 C 0.11393 0.422 0.55527 0.0
C339 C 0.04973 0.32063 0.62169 0.0
O340 O 0.18018 0.38597 0.61706 0.0
O341 O 0.15617 0.25923 0.54722 0.0
O342 O 0.10907 0.3093 0.72724 0.0
O343 O 0.1433 0.31983 0.46277 0.0
O344 O 0.10702 0.41312 0.61078 0.0
O345 O 0.06389 0.29042 0.60529 0.0
O346 O 0.12992 0.4003 0.52087 0.0
O347 O 0.09833 0.29652 0.48939 0.0
O348 O 0.06296 0.35075 0.63999 0.0
O349 O 0.18696 0.30751 0.57007 0.0
O350 O 0.15399 0.37285 0.70198 0.0
O351 O 0.12075 0.25827 0.66841 0.0
C352 C 0.22419 0.07525 0.22701 0.0
C353 C 0.20702 0.10884 0.21341 0.0
C354 C 0.246 0.14818 0.26404 0.0
C355 C 0.26188 0.11464 0.28251 0.0
N356 N 0.26503 0.04585 0.28694 0.0
N357 N 0.19889 0.17675 0.22859 0.0
C358 C 0.25068 0.07795 0.26545 0.0
C359 C 0.2171 0.14506 0.23505 0.0
N360 N 0.21536 0.041 0.20253 0.0
N361 N 0.25928 0.18328 0.27137 0.0
H362 H 0.17824 0.17661 0.20494 0.0
H363 H 0.20334 0.20278 0.25017 0.0
H364 H 0.28017 0.18715 0.29334 0.0
H365 H 0.25099 0.20803 0.25037 0.0
H366 H 0.22831 0.016 0.20532 0.0
H367 H 0.19558 0.03816 0.1763 0.0
H368 H 0.25655 0.01822 0.28143 0.0
H369 H 0.28471 0.04714 0.31378 0.0
C370 C 0.22284 0.92072 0.76492 0.0
C371 C 0.21511 0.88474 0.79126 0.0
C372 C 0.26245 0.85666 0.74945 0.0
C373 C 0.2694 0.89192 0.71988 0.0
N374 N 0.25508 0.9565 0.69392 0.0
N375 N 0.22475 0.81693 0.79936 0.0
C376 C 0.24921 0.92371 0.72601 0.0
C377 C 0.23429 0.85244 0.78134 0.0
N378 N 0.20535 0.95213 0.77842 0.0
N379 N 0.28283 0.82686 0.74727 0.0
H380 H 0.20507 0.81233 0.82525 0.0
H381 H 0.23476 0.79171 0.7834 0.0
H382 H 0.30249 0.827 0.72032 0.0
H383 H 0.28123 0.80269 0.77511 0.0
H384 H 0.21105 0.97999 0.76589 0.0
H385 H 0.18585 0.95057 0.80587 0.0
H386 H 0.23995 0.97948 0.69094 0.0
H387 H 0.27471 0.9599 0.6673 0.0
C388 C 0.7248 0.92917 0.7383 0.0
C389 C 0.71351 0.8933 0.71749 0.0
C390 C 0.75768 0.86068 0.76349 0.0
C391 C 0.76789 0.8959 0.78854 0.0
N392 N 0.76007 0.96338 0.80524 0.0
N393 N 0.71555 0.82433 0.7228 0.0
C394 C 0.75109 0.93016 0.77756 0.0
C395 C 0.729 0.85897 0.73348 0.0
N396 N 0.71074 0.96214 0.71956 0.0
N397 N 0.77568 0.82866 0.76715 0.0
H398 H 0.69492 0.82136 0.69952 0.0
H399 H 0.72339 0.799 0.74267 0.0
H400 H 0.7963 0.82776 0.79089 0.0
H401 H 0.77116 0.80363 0.7428 0.0
H402 H 0.71925 0.98945 0.72802 0.0
H403 H 0.69124 0.96198 0.6921 0.0
H404 H 0.7474 0.98866 0.80427 0.0
H405 H 0.77966 0.96498 0.8323 0.0
C406 C 0.72797 0.07854 0.27319 0.0
C407 C 0.7105 0.11244 0.28289 0.0
C408 C 0.74849 0.14954 0.22523 0.0
C409 C 0.76504 0.1155 0.21159 0.0
N410 N 0.769 0.04679 0.21652 0.0
N411 N 0.70073 0.17853 0.25653 0.0
C412 C 0.75425 0.07965 0.23369 0.0
C413 C 0.71976 0.14735 0.2553 0.0
N414 N 0.71971 0.0456 0.30259 0.0
N415 N 0.76077 0.18448 0.21175 0.0
H416 H 0.67999 0.17899 0.28 0.0
H417 H 0.70447 0.20308 0.23043 0.0
H418 H 0.78131 0.18782 0.18825 0.0
H419 H 0.75195 0.21003 0.22913 0.0
H420 H 0.73289 0.02073 0.30268 0.0
H421 H 0.70019 0.04391 0.32997 0.0
H422 H 0.76092 0.0194 0.22605 0.0
H423 H 0.78856 0.04702 0.18914 0.0
C424 C 0.7617 0.58487 0.26186 0.0
C425 C 0.76986 0.62022 0.28964 0.0
C426 C 0.72301 0.64994 0.2499 0.0
C427 C 0.71586 0.61569 0.21794 0.0
N428 N 0.72923 0.55131 0.18866 0.0
N429 N 0.76127 0.68813 0.30016 0.0
C430 C 0.73548 0.58327 0.22254 0.0
C431 C 0.75124 0.65309 0.28115 0.0
N432 N 0.77877 0.5529 0.27383 0.0
N433 N 0.70257 0.67965 0.25132 0.0
H434 H 0.78099 0.69195 0.32609 0.0
H435 H 0.75151 0.71364 0.28484 0.0
H436 H 0.68256 0.68016 0.22563 0.0
H437 H 0.70458 0.70286 0.28112 0.0
H438 H 0.77279 0.52542 0.25979 0.0
H439 H 0.79822 0.55362 0.30141 0.0
H440 H 0.74392 0.52792 0.18494 0.0
H441 H 0.70977 0.54911 0.16135 0.0
C442 C 0.71947 0.42878 0.75249 0.0
C443 C 0.71175 0.39271 0.77849 0.0
C444 C 0.75726 0.36366 0.73133 0.0
C445 C 0.76403 0.39898 0.70192 0.0
N446 N 0.75075 0.46438 0.67948 0.0
N447 N 0.7205 0.32456 0.78485 0.0
C448 C 0.74487 0.43142 0.71112 0.0
C449 C 0.73003 0.35994 0.76612 0.0
N450 N 0.70281 0.46047 0.76833 0.0
N451 N 0.77702 0.33335 0.72619 0.0
H452 H 0.70102 0.32037 0.81135 0.0
H453 H 0.73017 0.29904 0.76934 0.0
H454 H 0.79526 0.33287 0.69555 0.0
H455 H 0.77613 0.30923 0.75426 0.0
H456 H 0.70855 0.48829 0.75573 0.0
H457 H 0.684 0.4591 0.79766 0.0
H458 H 0.7363 0.48811 0.67917 0.0
H459 H 0.76958 0.46718 0.65047 0.0
C460 C 0.24338 0.42676 0.77128 0.0
C461 C 0.26057 0.39293 0.78302 0.0
C462 C 0.22222 0.35479 0.72894 0.0
C463 C 0.20626 0.38866 0.71236 0.0
N464 N 0.20295 0.45751 0.71201 0.0
N465 N 0.26976 0.32611 0.76127 0.0
C466 C 0.2173 0.42496 0.73169 0.0
C467 C 0.25097 0.35742 0.75831 0.0
N468 N 0.2516 0.46024 0.799 0.0
N469 N 0.20949 0.31972 0.71856 0.0
H470 H 0.29074 0.32607 0.78377 0.0
H471 H 0.26547 0.30078 0.73766 0.0
H472 H 0.18918 0.31591 0.69455 0.0
H473 H 0.21791 0.29465 0.7383 0.0
H474 H 0.23862 0.48527 0.79723 0.0
H475 H 0.27066 0.46214 0.82736 0.0
H476 H 0.21132 0.48501 0.71952 0.0
H477 H 0.18345 0.4568 0.68457 0.0
C478 C 0.24992 0.64906 0.22657 0.0
C479 C 0.26621 0.61545 0.20951 0.0
C480 C 0.2294 0.57646 0.26826 0.0
C481 C 0.21257 0.61018 0.28267 0.0
N482 N 0.20329 0.67752 0.26496 0.0
N483 N 0.2697 0.54665 0.20702 0.0
C484 C 0.22176 0.64606 0.25842 0.0
C485 C 0.25532 0.57888 0.22807 0.0
N486 N 0.26203 0.68431 0.2149 0.0
N487 N 0.22096 0.54244 0.2941 0.0
H488 H 0.28889 0.5478 0.17865 0.0
H489 H 0.26161 0.51898 0.21412 0.0
H490 H 0.20169 0.5399 0.32202 0.0
H491 H 0.23372 0.51731 0.2907 0.0
H492 H 0.25392 0.70926 0.23559 0.0
H493 H 0.28197 0.68837 0.18972 0.0
H494 H 0.20668 0.70297 0.24099 0.0
H495 H 0.18325 0.67748 0.29076 0.0
C496 C 0.14827 0.20852 0.84514 0.0
C497 C 0.12115 0.19957 0.87835 0.0
C498 C 0.09054 0.23593 0.80372 0.0
C499 C 0.11787 0.2479 0.77435 0.0
N500 N 0.17139 0.2366 0.75474 0.0
N501 N 0.06653 0.20259 0.88898 0.0
C502 C 0.14631 0.2313 0.79121 0.0
C503 C 0.09225 0.21238 0.857 0.0
N504 N 0.17623 0.19783 0.8675 0.0
N505 N 0.06299 0.24509 0.77808 0.0
H506 H 0.06688 0.1828 0.92487 0.0
H507 H 0.04506 0.21453 0.88151 0.0
H508 H 0.06115 0.26026 0.73714 0.0
H509 H 0.04203 0.23514 0.7938 0.0
H510 H 0.1969 0.20778 0.8503 0.0
H511 H 0.17931 0.18075 0.906 0.0
H512 H 0.19177 0.22146 0.75956 0.0
H513 H 0.17128 0.25396 0.716 0.0
C514 C 0.3313 0.7827 0.36604 0.0
C515 C 0.35849 0.7976 0.39234 0.0
C516 C 0.38885 0.7636 0.31463 0.0
C517 C 0.36208 0.74448 0.29455 0.0
N518 N 0.30852 0.73196 0.30565 0.0
N519 N 0.41338 0.80095 0.39444 0.0
C520 C 0.33347 0.75314 0.32144 0.0
C521 C 0.38737 0.78768 0.36729 0.0
N522 N 0.30339 0.79629 0.3842 0.0
N523 N 0.41537 0.75989 0.28206 0.0
H524 H 0.41294 0.82074 0.43036 0.0
H525 H 0.43517 0.79112 0.38325 0.0
H526 H 0.41708 0.74282 0.243 0.0
H527 H 0.43488 0.77599 0.29074 0.0
H528 H 0.283 0.78927 0.36251 0.0
H529 H 0.30051 0.81734 0.41748 0.0
H530 H 0.2871 0.73506 0.32567 0.0
H531 H 0.31011 0.70845 0.27638 0.0
C532 C 0.0956 0.74303 0.18204 0.0
C533 C 0.12109 0.74159 0.22201 0.0
C534 C 0.14522 0.79439 0.16454 0.0
C535 C 0.11968 0.79519 0.12405 0.0
N536 N 0.06661 0.78098 0.10937 0.0
N537 N 0.16757 0.7706 0.25898 0.0
C538 C 0.09355 0.77298 0.13818 0.0
C539 C 0.14494 0.769 0.21589 0.0
N540 N 0.0736 0.71538 0.18479 0.0
N541 N 0.17051 0.81605 0.15263 0.0
H542 H 0.16997 0.75048 0.29394 0.0
H543 H 0.18315 0.793 0.2622 0.0
H544 H 0.17116 0.83811 0.1208 0.0
H545 H 0.19144 0.812 0.1742 0.0
H546 H 0.05619 0.71293 0.15257 0.0
H547 H 0.07404 0.69291 0.21621 0.0
H548 H 0.04593 0.76821 0.12109 0.0
H549 H 0.06457 0.80365 0.07838 0.0
C550 C 0.38031 0.26534 0.66423 0.0
C551 C 0.35549 0.26735 0.70574 0.0
C552 C 0.3286 0.21765 0.64704 0.0
C553 C 0.35438 0.21428 0.60749 0.0
N554 N 0.40786 0.22615 0.59092 0.0
N555 N 0.3088 0.2396 0.74471 0.0
C556 C 0.3813 0.23524 0.62058 0.0
C557 C 0.33065 0.24139 0.69997 0.0
N558 N 0.40259 0.29264 0.66529 0.0
N559 N 0.3015 0.20058 0.63245 0.0
H560 H 0.30826 0.25804 0.78226 0.0
H561 H 0.29234 0.21814 0.74672 0.0
H562 H 0.29832 0.18306 0.59451 0.0
H563 H 0.28123 0.20577 0.65607 0.0
H564 H 0.41981 0.29435 0.63239 0.0
H565 H 0.40215 0.31586 0.69535 0.0
H566 H 0.42887 0.23823 0.60204 0.0
H567 H 0.40925 0.20343 0.55982 0.0
C568 C 0.82908 0.80068 0.15808 0.0
C569 C 0.85627 0.81082 0.12625 0.0
C570 C 0.88683 0.77844 0.20518 0.0
C571 C 0.85975 0.76262 0.23032 0.0
N572 N 0.80491 0.7598 0.23414 0.0
N573 N 0.91109 0.81017 0.11896 0.0
C574 C 0.83077 0.7745 0.20818 0.0
C575 C 0.8852 0.80017 0.15007 0.0
N576 N 0.80165 0.81559 0.13976 0.0
N577 N 0.91391 0.77388 0.23535 0.0
H578 H 0.91069 0.82837 0.081 0.0
H579 H 0.93267 0.79928 0.12912 0.0
H580 H 0.91551 0.75957 0.27715 0.0
H581 H 0.9341 0.78738 0.22244 0.0
H582 H 0.78128 0.81205 0.16362 0.0
H583 H 0.79935 0.83412 0.10269 0.0
H584 H 0.78301 0.76375 0.21686 0.0
H585 H 0.80549 0.74182 0.2722 0.0
C586 C 0.59115 0.21687 0.6377 0.0
C587 C 0.6201 0.20826 0.61173 0.0
C588 C 0.64489 0.25066 0.68642 0.0
C589 C 0.61603 0.25883 0.71294 0.0
N590 N 0.56268 0.24326 0.72357 0.0
N591 N 0.67514 0.21011 0.61939 0.0
C592 C 0.58941 0.23992 0.69155 0.0
C593 C 0.64719 0.22272 0.63907 0.0
N594 N 0.5653 0.20355 0.60999 0.0
N595 N 0.66998 0.27061 0.70535 0.0
H596 H 0.67799 0.1904 0.58405 0.0
H597 H 0.69558 0.21665 0.64121 0.0
H598 H 0.66886 0.2915 0.73939 0.0
H599 H 0.6913 0.2689 0.68442 0.0
H600 H 0.54336 0.21258 0.62169 0.0
H601 H 0.56596 0.18447 0.57314 0.0
H602 H 0.54321 0.22732 0.71395 0.0
H603 H 0.56065 0.2599 0.76307 0.0
C604 C 0.86843 0.28362 0.83412 0.0
C605 C 0.85112 0.27292 0.78208 0.0
C606 C 0.83688 0.21319 0.83453 0.0
C607 C 0.85045 0.22663 0.8895 0.0
N608 N 0.8695 0.2828 0.94387 0.0
N609 N 0.81187 0.23176 0.74041 0.0
C610 C 0.86361 0.26411 0.89013 0.0
C611 C 0.83325 0.23891 0.78443 0.0
N612 N 0.89017 0.31156 0.83052 0.0
N613 N 0.82844 0.1757 0.82887 0.0
H614 H 0.80704 0.25095 0.70508 0.0
H615 H 0.79651 0.20906 0.74339 0.0
H616 H 0.83249 0.1553 0.86283 0.0
H617 H 0.82076 0.16407 0.78769 0.0
H618 H 0.90519 0.31727 0.8664 0.0
H619 H 0.8956 0.32598 0.79023 0.0
H620 H 0.87676 0.31124 0.94526 0.0
H621 H 0.86288 0.27267 0.98665 0.0
C622 C 0.59733 0.74245 0.3355 0.0
C623 C 0.62188 0.74117 0.29322 0.0
C624 C 0.64726 0.79372 0.34884 0.0
C625 C 0.62206 0.79546 0.3901 0.0
N626 N 0.5693 0.78079 0.40931 0.0
N627 N 0.6677 0.77015 0.25249 0.0
C628 C 0.59581 0.77284 0.37864 0.0
C629 C 0.64591 0.76851 0.2974 0.0
N630 N 0.57577 0.71422 0.3356 0.0
N631 N 0.67326 0.81408 0.36036 0.0
H632 H 0.66929 0.75018 0.21709 0.0
H633 H 0.68326 0.79252 0.24826 0.0
H634 H 0.67548 0.83372 0.39581 0.0
H635 H 0.69355 0.81034 0.3362 0.0
H636 H 0.55894 0.71192 0.36918 0.0
H637 H 0.57642 0.69097 0.30565 0.0
H638 H 0.54858 0.76756 0.39945 0.0
H639 H 0.56751 0.8037 0.43996 0.0
C640 C 0.59489 0.72336 0.87204 0.0
C641 C 0.6233 0.70766 0.89082 0.0
C642 C 0.64862 0.7407 0.80556 0.0
C643 C 0.62112 0.76087 0.793 0.0
N644 N 0.56826 0.77357 0.81637 0.0
N645 N 0.67833 0.70517 0.87948 0.0
C646 C 0.59424 0.75276 0.82682 0.0
C647 C 0.65046 0.71688 0.85821 0.0
N648 N 0.56854 0.70971 0.89753 0.0
N649 N 0.673 0.74396 0.76675 0.0
H650 H 0.6812 0.68694 0.91673 0.0
H651 H 0.69893 0.71566 0.86255 0.0
H652 H 0.67287 0.76194 0.72869 0.0
H653 H 0.69236 0.72662 0.76949 0.0
H654 H 0.5468 0.71742 0.88266 0.0
H655 H 0.56861 0.68765 0.92987 0.0
H656 H 0.54869 0.77157 0.84331 0.0
H657 H 0.56703 0.7952 0.78345 0.0
C658 C 0.82807 0.30151 0.33885 0.0
C659 C 0.85464 0.30606 0.37549 0.0
C660 C 0.88318 0.26207 0.308 0.0
C661 C 0.85595 0.25507 0.27449 0.0
N662 N 0.80223 0.26614 0.25828 0.0
N663 N 0.90782 0.29376 0.39405 0.0
C664 C 0.82843 0.27472 0.28947 0.0
C665 C 0.8824 0.2875 0.35912 0.0
N666 N 0.80236 0.32244 0.35172 0.0
N667 N 0.90984 0.24476 0.29024 0.0
H668 H 0.90834 0.31463 0.42826 0.0
H669 H 0.92817 0.27852 0.39031 0.0
H670 H 0.91094 0.22424 0.25564 0.0
H671 H 0.93123 0.25115 0.30803 0.0
H672 H 0.78315 0.32348 0.32382 0.0
H673 H 0.80064 0.34136 0.38839 0.0
H674 H 0.78054 0.2756 0.27062 0.0
H675 H 0.80173 0.24724 0.22139 0.0
C676 C 0.60359 0.24667 0.09854 0.0
C677 C 0.61863 0.28306 0.0986 0.0
C678 C 0.63668 0.26926 0.20259 0.0
C679 C 0.61755 0.23642 0.20553 0.0
N680 N 0.57619 0.20065 0.16 0.0
N681 N 0.64336 0.33228 0.15863 0.0
C682 C 0.59893 0.2272 0.15475 0.0
C683 C 0.63341 0.29537 0.153 0.0
N684 N 0.59577 0.22879 0.04511 0.0
N685 N 0.6588 0.27491 0.2457 0.0
H686 H 0.63951 0.3531 0.12523 0.0
H687 H 0.65207 0.3432 0.19946 0.0
H688 H 0.66313 0.25542 0.28088 0.0
H689 H 0.67505 0.29659 0.24216 0.0
H690 H 0.58704 0.20101 0.04401 0.0
H691 H 0.60202 0.23859 0.00193 0.0
H692 H 0.5603 0.19588 0.1253 0.0
H693 H 0.57106 0.18663 0.2009 0.0
C694 C 0.84239 0.70655 0.66861 0.0
C695 C 0.86603 0.71044 0.6245 0.0
C696 C 0.888 0.76349 0.6839 0.0
C697 C 0.86215 0.76321 0.72339 0.0
N698 N 0.81365 0.73564 0.75186 0.0
N699 N 0.91869 0.72758 0.61122 0.0
C700 C 0.83923 0.73467 0.71584 0.0
C701 C 0.89111 0.73452 0.63846 0.0
N702 N 0.82463 0.67443 0.66844 0.0
N703 N 0.90938 0.7918 0.68854 0.0
H704 H 0.92216 0.70392 0.58271 0.0
H705 H 0.93875 0.74167 0.62315 0.0
H706 H 0.90873 0.81317 0.72183 0.0
H707 H 0.92665 0.79582 0.65632 0.0
H708 H 0.80826 0.66844 0.70166 0.0
H709 H 0.8295 0.65094 0.64052 0.0
H710 H 0.79455 0.71863 0.74424 0.0
H711 H 0.81031 0.75588 0.7864 0.0
C712 C 0.3287 0.2684 0.19299 0.0
C713 C 0.35589 0.24759 0.20532 0.0
C714 C 0.38278 0.28462 0.12675 0.0
C715 C 0.35461 0.30091 0.10789 0.0
N716 N 0.29956 0.30477 0.11933 0.0
N717 N 0.40864 0.2338 0.18237 0.0
C718 C 0.32727 0.29241 0.14054 0.0
C719 C 0.38295 0.25517 0.17179 0.0
N720 N 0.30423 0.26551 0.23171 0.0
N721 N 0.40935 0.29777 0.10152 0.0
H722 H 0.40954 0.21214 0.21529 0.0
H723 H 0.42827 0.23541 0.15555 0.0
H724 H 0.40965 0.3199 0.06929 0.0
H725 H 0.43097 0.28959 0.11651 0.0
H726 H 0.28516 0.28338 0.22916 0.0
H727 H 0.30392 0.24725 0.26949 0.0
H728 H 0.27882 0.29453 0.13605 0.0
H729 H 0.29687 0.32311 0.08221 0.0
C730 C 0.15175 0.73828 0.69632 0.0
C731 C 0.12286 0.74517 0.72382 0.0
C732 C 0.09877 0.70084 0.65099 0.0
C733 C 0.12754 0.69442 0.62312 0.0
N734 N 0.18232 0.69873 0.62785 0.0
N735 N 0.07069 0.72477 0.73884 0.0
C736 C 0.15438 0.71032 0.64899 0.0
C737 C 0.09691 0.72377 0.70485 0.0
N738 N 0.17656 0.75887 0.71498 0.0
N739 N 0.07314 0.6859 0.62467 0.0
H740 H 0.06852 0.74087 0.77882 0.0
H741 H 0.05201 0.70712 0.73059 0.0
H742 H 0.07415 0.66703 0.58756 0.0
H743 H 0.05103 0.69343 0.63773 0.0
H744 H 0.19778 0.75788 0.69355 0.0
H745 H 0.17549 0.77892 0.75028 0.0
H746 H 0.20298 0.7068 0.6474 0.0
H747 H 0.18484 0.67804 0.59374 0.0
C748 C 0.3707 0.71217 0.85051 0.0
C749 C 0.36639 0.7309 0.90729 0.0
C750 C 0.35964 0.79199 0.85411 0.0
C751 C 0.36671 0.77421 0.79735 0.0
N752 N 0.39046 0.71914 0.74796 0.0
N753 N 0.36847 0.7914 0.96276 0.0
C754 C 0.37554 0.73469 0.79713 0.0
C755 C 0.36525 0.77168 0.90908 0.0
N756 N 0.37094 0.67307 0.84747 0.0
N757 N 0.34526 0.8268 0.85646 0.0
H758 H 0.37115 0.77847 0.00531 0.0
H759 H 0.37057 0.82119 0.96393 0.0
H760 H 0.33728 0.84122 0.81792 0.0
H761 H 0.33748 0.83881 0.8974 0.0
H762 H 0.37085 0.65819 0.80602 0.0
H763 H 0.36926 0.65565 0.88619 0.0
H764 H 0.3993 0.69136 0.74809 0.0
H765 H 0.39776 0.73527 0.71058 0.0
C766 C 0.11676 0.23814 0.39423 0.0
C767 C 0.11668 0.27902 0.39203 0.0
C768 C 0.10905 0.27497 0.28123 0.0
C769 C 0.11597 0.23485 0.28242 0.0
N770 N 0.13462 0.18131 0.34265 0.0
N771 N 0.11539 0.3366 0.33099 0.0
C772 C 0.12201 0.21717 0.33962 0.0
C773 C 0.11411 0.29755 0.33463 0.0
N774 N 0.11197 0.21875 0.44773 0.0
N775 N 0.09537 0.29116 0.23126 0.0
H776 H 0.11727 0.35419 0.36947 0.0
H777 H 0.1167 0.35116 0.28936 0.0
H778 H 0.08763 0.27529 0.194 0.0
H779 H 0.08779 0.31952 0.23054 0.0
H780 H 0.10853 0.18917 0.44887 0.0
H781 H 0.10929 0.2317 0.4902 0.0
H782 H 0.14095 0.16847 0.38389 0.0
H783 H 0.14284 0.16657 0.30452 0.0
C784 C 0.00582 0.20812 0.14479 0.0
C785 C 0.02035 0.18113 0.10579 0.0
C786 C 0.97058 0.15671 0.0728 0.0
C787 C 0.95602 0.18473 0.11027 0.0
N788 N 0.95978 0.2431 0.16989 0.0
N789 N 0.0175 0.13473 0.02435 0.0
C790 C 0.97362 0.21245 0.14223 0.0
C791 C 0.00298 0.15677 0.06739 0.0
N792 N 0.02256 0.22809 0.1869 0.0
N793 N 0.95344 0.13019 0.04213 0.0
H794 H 0.04118 0.13449 0.0189 0.0
H795 H 0.00619 0.11915 0.99069 0.0
H796 H 0.92966 0.13126 0.04001 0.0
H797 H 0.96265 0.10611 0.02071 0.0
H798 H 0.0128 0.24463 0.22157 0.0
H799 H 0.04619 0.22551 0.19099 0.0
H800 H 0.9718 0.26627 0.18771 0.0
H801 H 0.93627 0.24739 0.17039 0.0
C802 C 0.47394 0.80327 0.65884 0.0
C803 C 0.45896 0.82805 0.61692 0.0
C804 C 0.50819 0.85069 0.57826 0.0
C805 C 0.52303 0.82436 0.6179 0.0
N806 N 0.52071 0.77063 0.68732 0.0
N807 N 0.46078 0.87059 0.53002 0.0
C808 C 0.50608 0.79895 0.65532 0.0
C809 C 0.47579 0.85046 0.5746 0.0
N810 N 0.45764 0.78551 0.70416 0.0
N811 N 0.52508 0.87621 0.54495 0.0
H812 H 0.43703 0.87096 0.5262 0.0
H813 H 0.47175 0.88444 0.49398 0.0
H814 H 0.54891 0.87601 0.54454 0.0
H815 H 0.51564 0.89896 0.52054 0.0
H816 H 0.46768 0.77051 0.74015 0.0
H817 H 0.43407 0.78857 0.70913 0.0
H818 H 0.50932 0.74872 0.71023 0.0
H819 H 0.54437 0.76708 0.68694 0.0
C820 C 0.97207 0.80483 0.84277 0.0
C821 C 0.95773 0.8246 0.8917 0.0
C822 C 0.00762 0.83589 0.93919 0.0
C823 C 0.02196 0.81984 0.88659 0.0
N824 N 0.01803 0.7961 0.78294 0.0
N825 N 0.96106 0.86165 0.9845 0.0
C826 C 0.00425 0.8064 0.83674 0.0
C827 C 0.97528 0.84079 0.93965 0.0
N828 N 0.95501 0.78331 0.80335 0.0
N829 N 0.02493 0.84657 0.98836 0.0
H830 H 0.93739 0.86504 0.98658 0.0
H831 H 0.97264 0.87757 0.01739 0.0
H832 H 0.04873 0.84522 0.98826 0.0
H833 H 0.01579 0.85464 0.03049 0.0
H834 H 0.96451 0.76524 0.77037 0.0
H835 H 0.93142 0.78036 0.80791 0.0
H836 H 0.00593 0.78979 0.74315 0.0
H837 H 0.04156 0.79744 0.77621 0.0
C838 C 0.46886 0.15347 0.41307 0.0
C839 C 0.4541 0.18192 0.37706 0.0
C840 C 0.50352 0.20468 0.33924 0.0
C841 C 0.51834 0.17774 0.37788 0.0
N842 N 0.51625 0.12995 0.45737 0.0
N843 N 0.45668 0.23798 0.31255 0.0
C844 C 0.50132 0.153 0.41642 0.0
C845 C 0.47125 0.20863 0.34226 0.0
N846 N 0.45178 0.12672 0.44344 0.0
N847 N 0.52025 0.22545 0.29798 0.0
H848 H 0.433 0.24115 0.31206 0.0
H849 H 0.46801 0.2608 0.29199 0.0
H850 H 0.54399 0.2237 0.29487 0.0
H851 H 0.51062 0.24222 0.2636 0.0
H852 H 0.46099 0.10267 0.46483 0.0
H853 H 0.42796 0.12736 0.44452 0.0
H854 H 0.5053 0.11416 0.49131 0.0
H855 H 0.54002 0.12855 0.46025 0.0
C856 C 0.5065 0.66361 0.07361 0.0
C857 C 0.52305 0.67588 0.12578 0.0
C858 C 0.47577 0.68231 0.1844 0.0
C859 C 0.45899 0.67374 0.13084 0.0
N860 N 0.45737 0.66013 0.02255 0.0
N861 N 0.52342 0.70554 0.22555 0.0
C862 C 0.47406 0.6655 0.07473 0.0
C863 C 0.50768 0.68765 0.1798 0.0
N864 N 0.52176 0.64914 0.02397 0.0
N865 N 0.46134 0.68429 0.23988 0.0
H866 H 0.54665 0.71168 0.22207 0.0
H867 H 0.51292 0.71796 0.26358 0.0
H868 H 0.43797 0.67949 0.24505 0.0
H869 H 0.47294 0.68693 0.28129 0.0
H870 H 0.51096 0.63608 0.98703 0.0
H871 H 0.54554 0.64769 0.02163 0.0
H872 H 0.46703 0.6582 0.97903 0.0
H873 H 0.43354 0.66005 0.02222 0.0
C874 C 0.96674 0.31323 0.66844 0.0
C875 C 0.95213 0.32383 0.6131 0.0
C876 C 0.0016 0.32763 0.56137 0.0
C877 C 0.01619 0.32116 0.61848 0.0
N878 N 0.01295 0.31587 0.72861 0.0
N879 N 0.9552 0.34718 0.50936 0.0
C880 C -0.00113 0.31633 0.67278 0.0
C881 C 0.96939 0.33246 0.55993 0.0
N882 N 0.94997 0.29898 0.71612 0.0
N883 N 0.01852 0.32955 0.50877 0.0
H884 H 0.9317 0.35203 0.50749 0.0
H885 H 0.96687 0.35768 0.47133 0.0
H886 H 0.04231 0.32822 0.50845 0.0
H887 H 0.00893 0.32994 0.46515 0.0
H888 H 0.95975 0.28741 0.7555 0.0
H889 H 0.92641 0.29499 0.71355 0.0
H890 H 0.00105 0.31616 0.76998 0.0
H891 H 0.03647 0.31897 0.73379 0.0
C892 C 0.50265 0.34781 0.92454 0.0
C893 C 0.51821 0.33715 0.87005 0.0
C894 C 0.47003 0.32148 0.82051 0.0
C895 C 0.45422 0.33526 0.87274 0.0
N896 N 0.45442 0.36519 0.97228 0.0
N897 N 0.51712 0.32135 0.76248 0.0
C898 C 0.47022 0.34947 0.92433 0.0
C899 C 0.50201 0.32637 0.81678 0.0
N900 N 0.5189 0.35568 0.97648 0.0
N901 N 0.45466 0.30189 0.77602 0.0
H902 H 0.54066 0.32497 0.75801 0.0
H903 H 0.50602 0.31709 0.72087 0.0
H904 H 0.43138 0.29602 0.77915 0.0
H905 H 0.46543 0.28794 0.73968 0.0
H906 H 0.50894 0.35954 0.01938 0.0
H907 H 0.54273 0.3562 0.97746 0.0
H908 H 0.46472 0.37974 0.00836 0.0
H909 H 0.43061 0.36587 0.9741 0.0
C910 C 0.00739 0.66617 0.4397 0.0
C911 C 0.02487 0.68126 0.39074 0.0
C912 C 0.97873 0.69659 0.3335 0.0
C913 C 0.96109 0.68445 0.38417 0.0
N914 N 0.95762 0.66142 0.48821 0.0
N915 N 0.02772 0.71998 0.29943 0.0
C916 C 0.97513 0.67049 0.43836 0.0
C917 C 0.0107 0.69921 0.34004 0.0
N918 N 0.02156 0.64678 0.48615 0.0
N919 N 0.96509 0.70442 0.27862 0.0
H920 H 0.05118 0.72386 0.30459 0.0
H921 H 0.01816 0.73666 0.26477 0.0
H922 H 0.94166 0.70156 0.2716 0.0
H923 H 0.97732 0.70994 0.23861 0.0
H924 H 0.00992 0.63166 0.51997 0.0
H925 H 0.04524 0.6437 0.48872 0.0
H926 H 0.96663 0.65491 0.53108 0.0
H927 H 0.93381 0.66268 0.48778 0.0
C928 C 0.0997 0.99294 0.05794 0.0
C929 C 0.10137 0.02852 0.02672 0.0
C930 C 0.1022 0.99514 0.92757 0.0
C931 C 0.10271 0.95963 0.95898 0.0
N932 N 0.08809 0.92517 0.05 0.0
N933 N 0.09016 0.06295 0.93366 0.0
C934 C 0.09648 0.95884 0.02292 0.0
C935 C 0.09763 0.0293 0.96197 0.0
N936 N 0.10346 0.99099 0.11995 0.0
N937 N 0.10821 0.99686 0.86626 0.0
H938 H 0.08592 0.08809 0.95835 0.0
H939 H 0.08493 0.06478 0.88718 0.0
H940 H 0.11148 0.97266 0.83911 0.0
H941 H 0.11175 0.02259 0.84308 0.0
H942 H 0.10619 0.96516 0.14332 0.0
H943 H 0.10577 0.01497 0.14785 0.0
H944 H 0.08101 0.92332 0.09551 0.0
H945 H 0.08509 0.90002 0.02475 0.0
C946 C 0.37769 0.97347 0.46633 0.0
C947 C 0.37278 0.9752 0.53072 0.0
C948 C 0.37612 0.04497 0.52445 0.0
C949 C 0.37155 0.04295 0.46006 0.0
N950 N 0.36821 0.00395 0.36869 0.0
N951 N 0.36725 0.01414 0.62194 0.0
C952 C 0.37315 0.00691 0.43026 0.0
C953 C 0.37275 0.01134 0.5605 0.0
N954 N 0.3864 0.93965 0.43989 0.0
N955 N 0.38325 0.07928 0.55093 0.0
H956 H 0.3644 0.99052 0.65044 0.0
H957 H 0.3634 0.04024 0.64394 0.0
H958 H 0.38652 0.10412 0.52506 0.0
H959 H 0.38915 0.08201 0.59696 0.0
H960 H 0.39257 0.9373 0.3939 0.0
H961 H 0.39072 0.91503 0.46576 0.0
H962 H 0.36553 0.97773 0.34648 0.0
H963 H 0.36476 0.02754 0.34031 0.0
C964 C 0.87373 0.04854 0.95338 0.0
C965 C 0.8746 0.05024 0.01842 0.0
C966 C 0.88348 0.98074 0.02089 0.0
C967 C 0.87425 0.9785 0.95839 0.0
N968 N 0.86144 0.01077 0.86391 0.0
N969 N 0.89761 0.02104 0.10728 0.0
C970 C 0.87046 0.01254 0.92373 0.0
C971 C 0.88473 0.01722 0.05068 0.0
N972 N 0.87747 0.08137 0.92013 0.0
N973 N 0.89023 0.94768 0.05181 0.0
H974 H 0.90352 0.04759 0.12544 0.0
H975 H 0.90649 0.99839 0.13266 0.0
H976 H 0.89216 0.9212 0.02976 0.0
H977 H 0.89323 0.94607 0.09899 0.0
H978 H 0.87945 0.0817 0.87256 0.0
H979 H 0.88265 0.10752 0.94092 0.0
H980 H 0.85452 0.03479 0.83911 0.0
H981 H 0.85896 0.98511 0.84004 0.0
C982 C 0.60069 0.03724 0.53408 0.0
C983 C 0.60448 0.03544 0.46939 0.0
C984 C 0.59921 0.96577 0.47545 0.0
C985 C 0.60444 0.96737 0.53969 0.0
N986 N 0.60995 0.00579 0.63113 0.0
N987 N 0.60739 0.99669 0.37765 0.0
C988 C 0.60436 1.0034 0.56973 0.0
C989 C 0.60296 0.99941 0.43945 0.0
N990 N 0.5938 0.07151 0.56119 0.0
N991 N 0.59118 0.93178 0.44899 0.0
H992 H 0.61039 0.02037 0.3493 0.0
H993 H 0.61017 0.97059 0.35505 0.0
H994 H 0.5879 0.90689 0.47473 0.0
H995 H 0.58467 0.92936 0.40326 0.0
H996 H 0.58843 0.07416 0.60753 0.0
H997 H 0.59015 0.09645 0.53572 0.0
H998 H 0.61386 0.0317 0.65354 0.0
H999 H 0.61258 0.98187 0.65916 0.0
C1000 C 0.60839 0.53454 0.97415 0.0
C1001 C 0.6106 0.53401 0.03904 0.0
C1002 C 0.60591 0.46415 0.03498 0.0
C1003 C 0.61295 0.46464 0.97115 0.0
N1004 N 0.62429 0.50314 0.88114 0.0
N1005 N 0.61234 0.49651 0.13215 0.0
C1006 C 0.61452 0.50055 0.94048 0.0
C1007 C 0.60904 0.49836 0.07006 0.0
N1008 N 0.60104 0.56786 0.94474 0.0
N1009 N 0.59588 0.43115 0.0619 0.0
H1010 H 0.61467 0.52063 0.15981 0.0
H1011 H 0.61487 0.47066 0.1556 0.0
H1012 H 0.59166 0.40622 0.03684 0.0
H1013 H 0.58833 0.42999 0.10717 0.0
H1014 H 0.59693 0.5692 0.89774 0.0
H1015 H 0.59562 0.59294 0.96864 0.0
H1016 H 0.62855 0.52933 0.85982 0.0
H1017 H 0.63132 0.4798 0.85501 0.0
C1018 C 0.88558 0.54426 0.52375 0.0
C1019 C 0.87727 0.54517 0.46075 0.0
C1020 C 0.87804 0.47513 0.46101 0.0
C1021 C 0.87625 0.47528 0.52599 0.0
N1022 N 0.87946 0.51132 0.62045 0.0
N1023 N 0.86564 0.50939 0.36831 0.0
C1024 C 0.88115 0.51006 0.55803 0.0
C1025 C 0.8743 0.51005 0.42838 0.0
N1026 N 0.89722 0.57638 0.55069 0.0
N1027 N 0.88277 0.44135 0.43076 0.0
H1028 H 0.86249 0.5338 0.34177 0.0
H1029 H 0.85959 0.48421 0.34572 0.0
H1030 H 0.88639 0.4156 0.45413 0.0
H1031 H 0.88655 0.43978 0.38366 0.0
H1032 H 0.90576 0.57668 0.59522 0.0
H1033 H 0.90138 0.60142 0.52585 0.0
H1034 H 0.87922 0.53693 0.64506 0.0
H1035 H 0.87644 0.48711 0.6476 0.0
C1036 C 0.38592 0.48542 0.99201 0.0
C1037 C 0.36195 0.47771 0.95009 0.0
C1038 C 0.33438 0.53418 0.98558 0.0
C1039 C 0.35934 0.54437 0.02389 0.0
N1040 N 0.41129 0.5328 0.0558 0.0
N1041 N 0.31815 0.50037 0.89474 0.0
C1042 C 0.38592 0.52086 0.02504 0.0
C1043 C 0.33791 0.50422 0.94268 0.0
N1044 N 0.40815 0.45852 0.00119 0.0
N1045 N 0.3066 0.55168 0.99248 0.0
H1046 H 0.32076 0.47887 0.86184 0.0
H1047 H 0.30157 0.52082 0.88406 0.0
H1048 H 0.30219 0.57185 0.02658 0.0
H1049 H 0.28704 0.54281 0.96939 0.0
H1050 H 0.42438 0.4604 0.03588 0.0
H1051 H 0.40932 0.43335 0.97541 0.0
H1052 H 0.43224 0.51866 0.05335 0.0
H1053 H 0.41197 0.55846 0.08029 0.0
C1054 C 0.10297 0.52971 0.52766 0.0
C1055 C 0.10495 0.52981 0.46277 0.0
C1056 C 0.09682 0.46049 0.46444 0.0
C1057 C 0.10437 0.45957 0.52795 0.0
N1058 N 0.11705 0.49596 0.61957 0.0
N1059 N 0.10352 0.49395 0.36817 0.0
C1060 C 0.1074 0.49487 0.5601 0.0
C1061 C 0.10115 0.49493 0.4305 0.0
N1062 N 0.09755 0.56325 0.55819 0.0
N1063 N 0.08552 0.42841 0.43674 0.0
H1064 H 0.10648 0.51844 0.34156 0.0
H1065 H 0.10447 0.46844 0.34335 0.0
H1066 H 0.08086 0.40335 0.46114 0.0
H1067 H 0.07761 0.42821 0.39173 0.0
H1068 H 0.09359 0.56444 0.60527 0.0
H1069 H 0.09356 0.58901 0.53509 0.0
H1070 H 0.12271 0.52146 0.64167 0.0
H1071 H 0.12223 0.47186 0.64554 0.0
C1072 C 0.21261 0.25607 0.96935 0.0
C1073 C 0.21557 0.23558 0.02519 0.0
C1074 C 0.27118 0.2351 0.01487 0.0
C1075 C 0.26786 0.25432 0.95812 0.0
N1076 N 0.23689 0.27441 0.87392 0.0
N1077 N 0.24654 0.20331 0.1004 0.0
C1078 C 0.23888 0.26202 0.9331 0.0
C1079 C 0.24464 0.22446 0.0478 0.0
N1080 N 0.18477 0.26965 0.95086 0.0
N1081 N 0.29973 0.22839 0.03791 0.0
H1082 H 0.22748 0.19774 0.12757 0.0
H1083 H 0.26646 0.19047 0.11643 0.0
H1084 H 0.31956 0.23376 0.01293 0.0
H1085 H 0.30401 0.2184 0.08197 0.0
H1086 H 0.18178 0.28764 0.91329 0.0
H1087 H 0.16471 0.26559 0.97561 0.0
H1088 H 0.21642 0.27815 0.85046 0.0
H1089 H 0.25629 0.2768 0.84646 0.0
C1090 C 0.23757 0.77433 0.55983 0.0
C1091 C 0.26684 0.761 0.54188 0.0
C1092 C 0.24505 0.72581 0.45582 0.0
C1093 C 0.21583 0.73978 0.47299 0.0
N1094 N 0.18295 0.77486 0.54235 0.0
N1095 N 0.29958 0.72448 0.47417 0.0
C1096 C 0.21173 0.76386 0.52485 0.0
C1097 C 0.27087 0.73622 0.49088 0.0
N1098 N 0.23505 0.79811 0.60954 0.0
N1099 N 0.24755 0.70142 0.40686 0.0
H1100 H 0.31903 0.73006 0.49991 0.0
H1101 H 0.3047 0.70955 0.43425 0.0
H1102 H 0.22942 0.69635 0.37699 0.0
H1103 H 0.26692 0.68545 0.39615 0.0
H1104 H 0.21541 0.8131 0.62176 0.0
H1105 H 0.2534 0.80338 0.63878 0.0
H1106 H 0.17779 0.78881 0.58315 0.0
H1107 H 0.16352 0.76931 0.51647 0.0
C1108 C 0.2136 0.74611 0.0453 0.0
C1109 C 0.21248 0.7491 0.98082 0.0
C1110 C 0.26754 0.75661 0.97621 0.0
C1111 C 0.26894 0.7537 0.04082 0.0
N1112 N 0.2435 0.75524 0.1377 0.0
N1113 N 0.2377 0.7463 0.88408 0.0
C1114 C 0.24182 0.75137 0.07564 0.0
C1115 C 0.23941 0.75076 0.94601 0.0
N1116 N 0.18747 0.73788 0.07676 0.0
N1117 N 0.29288 0.7671 0.94444 0.0
H1118 H 0.21682 0.74139 0.86236 0.0
H1119 H 0.25679 0.74374 0.85581 0.0
H1120 H 0.31226 0.77601 0.96756 0.0
H1121 H 0.29326 0.77205 0.8974 0.0
H1122 H 0.18694 0.73178 0.12342 0.0
H1123 H 0.16672 0.73361 0.05428 0.0
H1124 H 0.22456 0.75607 0.1665 0.0
H1125 H 0.26427 0.76079 0.15944 0.0
C1126 C 0.23602 0.249 0.42812 0.0
C1127 C 0.26408 0.25663 0.45659 0.0
C1128 C 0.2386 0.26326 0.55539 0.0
C1129 C 0.21039 0.25477 0.52692 0.0
N1130 N 0.18536 0.22402 0.44252 0.0
N1131 N 0.29231 0.27907 0.54328 0.0
C1132 C 0.20977 0.2435 0.46476 0.0
C1133 C 0.2653 0.26678 0.51914 0.0
N1134 N 0.23496 0.24633 0.3659 0.0
N1135 N 0.23955 0.266 0.61764 0.0
H1136 H 0.31186 0.28201 0.51625 0.0
H1137 H 0.29484 0.28913 0.58786 0.0
H1138 H 0.22034 0.25975 0.64417 0.0
H1139 H 0.25939 0.27042 0.64265 0.0
H1140 H 0.21466 0.24372 0.34143 0.0
H1141 H 0.25445 0.25114 0.33935 0.0
H1142 H 0.18471 0.21275 0.39839 0.0
H1143 H 0.16854 0.21356 0.47171 0.0
C1144 C 0.76765 0.74853 0.03605 0.0
C1145 C 0.76539 0.7661 0.97763 0.0
C1146 C 0.70998 0.77041 0.98673 0.0
C1147 C 0.71206 0.75157 0.04398 0.0
N1148 N 0.74115 0.72405 0.12594 0.0
N1149 N 0.73574 0.78816 0.89233 0.0
C1150 C 0.74058 0.7414 0.06975 0.0
C1151 C 0.73682 0.77538 0.95148 0.0
N1152 N 0.79577 0.73943 0.05919 0.0
N1153 N 0.6822 0.783 0.96628 0.0
H1154 H 0.75541 0.79039 0.86556 0.0
H1155 H 0.7157 0.7933 0.86812 0.0
H1156 H 0.66227 0.77997 0.992 0.0
H1157 H 0.67903 0.79886 0.92644 0.0
H1158 H 0.79962 0.72859 0.10283 0.0
H1159 H 0.81584 0.74253 0.03396 0.0
H1160 H 0.76049 0.71252 0.14652 0.0
H1161 H 0.72146 0.72135 0.15257 0.0
C1162 C 0.76308 0.24852 0.46753 0.0
C1163 C 0.76028 0.26991 0.52246 0.0
C1164 C 0.70485 0.27337 0.51058 0.0
C1165 C 0.70787 0.25215 0.45555 0.0
N1166 N 0.7386 0.22752 0.37366 0.0
N1167 N 0.73007 0.30609 0.59445 0.0
C1168 C 0.73677 0.24236 0.43148 0.0
C1169 C 0.7315 0.28323 0.54358 0.0
N1170 N 0.79094 0.23441 0.45002 0.0
N1171 N 0.67643 0.28272 0.5321 0.0
H1172 H 0.74909 0.31119 0.62191 0.0
H1173 H 0.71064 0.32088 0.60864 0.0
H1174 H 0.65655 0.2777 0.50722 0.0
H1175 H 0.67222 0.2948 0.57484 0.0
H1176 H 0.79431 0.21649 0.41248 0.0
H1177 H 0.81063 0.23819 0.47608 0.0
H1178 H 0.75897 0.22181 0.35075 0.0
H1179 H 0.7192 0.22437 0.34644 0.0
C1180 C 0.70575 0.24416 0.02639 0.0
C1181 C 0.7058 0.24938 0.96208 0.0
C1182 C 0.76126 0.25488 0.96186 0.0
C1183 C 0.76133 0.25007 0.02632 0.0
N1184 N 0.73403 0.25069 0.1213 0.0
N1185 N 0.73304 0.24742 0.86713 0.0
C1186 C 0.73353 0.24789 0.05897 0.0
C1187 C 0.73358 0.25047 0.92945 0.0
N1188 N 0.67952 0.23373 0.05562 0.0
N1189 N 0.7871 0.26635 0.93226 0.0
H1190 H 0.71254 0.24383 0.84338 0.0
H1191 H 0.75261 0.24463 0.84026 0.0
H1192 H 0.8066 0.27457 0.95586 0.0
H1193 H 0.78786 0.27301 0.88578 0.0
H1194 H 0.6784 0.22702 0.10205 0.0
H1195 H 0.65977 0.22681 0.03165 0.0
H1196 H 0.71448 0.25281 0.14832 0.0
H1197 H 0.75443 0.25521 0.14492 0.0
C1198 C 0.74403 0.75307 0.44923 0.0
C1199 C 0.77074 0.75378 0.48499 0.0
C1200 C 0.74036 0.75622 0.57879 0.0
C1201 C 0.71387 0.75524 0.54255 0.0
N1202 N 0.68957 0.74158 0.44674 0.0
N1203 N 0.79542 0.76274 0.58255 0.0
C1204 C 0.71552 0.74987 0.47862 0.0
C1205 C 0.76928 0.75739 0.54966 0.0
N1206 N 0.74634 0.75642 0.38716 0.0
N1207 N 0.73741 0.75438 0.64089 0.0
H1208 H 0.81684 0.76473 0.562 0.0
H1209 H 0.79571 0.76885 0.62918 0.0
H1210 H 0.71598 0.75157 0.66136 0.0
H1211 H 0.75565 0.75183 0.67107 0.0
H1212 H 0.72759 0.75844 0.35809 0.0
H1213 H 0.76743 0.76065 0.36576 0.0
H1214 H 0.6895 0.734 0.40059 0.0
H1215 H 0.66852 0.73853 0.4687 0.0
loop_
_geom_bond_atom_site_label_1
_geom_bond_atom_site_label_2
_geom_bond_distance
_geom_bond_site_symmetry_2
_ccdc_geom_bond_type
Sc0 O3 2.025 . S
Sc0 O10 2.105 . S
Sc0 O13 2.105 . S
Sc0 O16 2.105 . S
Sc0 O19 2.105 1_554 S
Sc1 O3 2.025 . S
Sc1 O11 2.105 1_554 S
Sc1 O15 2.105 . S
Sc1 O17 2.105 . S
Sc1 O21 2.105 . S
Sc2 O3 2.025 . S
Sc2 O12 2.105 . S
Sc2 O14 2.105 . S
Sc2 O18 2.105 . S
Sc2 O20 2.105 . S
O3 Sc0 2.025 . S
O3 Sc1 2.025 . S
O3 Sc2 2.025 . S
C4 O10 1.268 . S
C4 O20 1.268 . S
C5 O11 1.268 . S
C5 O19 1.268 . S
C6 O12 1.268 . S
C6 O21 1.268 . S
C7 O13 1.268 . S
C7 O17 1.268 . S
C8 O14 1.268 . S
C8 O16 1.268 . S
C9 O15 1.268 . S
C9 O18 1.268 . S
O10 Sc0 2.105 . S
O10 C4 1.268 . S
O11 Sc1 2.105 1_556 S
O11 C5 1.268 . S
O12 Sc2 2.105 . S
O12 C6 1.268 . S
O13 Sc0 2.105 . S
O13 C7 1.268 . S
O14 Sc2 2.105 . S
O14 C8 1.268 . S
O15 Sc1 2.105 . S
O15 C9 1.268 . S
O16 Sc0 2.105 . S
O16 C8 1.268 . S
O17 Sc1 2.105 . S
O17 C7 1.268 . S
O18 Sc2 2.105 . S
O18 C9 1.268 . S
O19 Sc0 2.105 1_556 S
O19 C5 1.268 . S
O20 Sc2 2.105 . S
O20 C4 1.268 . S
O21 Sc1 2.105 . S
O21 C6 1.268 . S
Sc22 O25 2.025 . S
Sc22 O32 2.105 . S
Sc22 O35 2.105 . S
Sc22 O38 2.105 . S
Sc22 O41 2.105 . S
Sc23 O25 2.025 . S
Sc23 O33 2.105 . S
Sc23 O37 2.105 . S
Sc23 O39 2.105 . S
Sc23 O43 2.105 . S
Sc24 O25 2.025 . S
Sc24 O34 2.105 . S
Sc24 O36 2.105 . S
Sc24 O40 2.105 . S
Sc24 O42 2.105 . S
O25 Sc22 2.025 . S
O25 Sc23 2.025 . S
O25 Sc24 2.025 . S
C26 O32 1.268 . S
C26 O42 1.268 . S
C27 O33 1.268 . S
C27 O41 1.268 . S
C28 O34 1.268 . S
C28 O43 1.268 . S
C29 O35 1.268 . S
C29 O39 1.268 . S
C30 O36 1.268 . S
C30 O38 1.268 . S
C31 O37 1.268 . S
C31 O40 1.268 . S
O32 Sc22 2.105 . S
O32 C26 1.268 . S
O33 Sc23 2.105 . S
O33 C27 1.268 . S
O34 Sc24 2.105 . S
O34 C28 1.268 . S
O35 Sc22 2.105 . S
O35 C29 1.268 . S
O36 Sc24 2.105 . S
O36 C30 1.268 . S
O37 Sc23 2.105 . S
O37 C31 1.268 . S
O38 Sc22 2.105 . S
O38 C30 1.268 . S
O39 Sc23 2.105 . S
O39 C29 1.268 . S
O40 Sc24 2.105 . S
O40 C31 1.268 . S
O41 Sc22 2.105 . S
O41 C27 1.268 . S
O42 Sc24 2.105 . S
O42 C26 1.268 . S
O43 Sc23 2.105 . S
O43 C28 1.268 . S
Sc44 O47 2.025 . S
Sc44 O54 2.105 . S
Sc44 O57 2.105 . S
Sc44 O60 2.105 . S
Sc44 O63 2.105 1_556 S
Sc45 O47 2.025 . S
Sc45 O55 2.105 1_556 S
Sc45 O59 2.105 . S
Sc45 O61 2.105 . S
Sc45 O65 2.105 . S
Sc46 O47 2.025 . S
Sc46 O56 2.105 . S
Sc46 O58 2.105 . S
Sc46 O62 2.105 . S
Sc46 O64 2.105 . S
O47 Sc44 2.025 . S
O47 Sc45 2.025 . S
O47 Sc46 2.025 . S
C48 O54 1.268 . S
C48 O64 1.268 . S
C49 O55 1.268 . S
C49 O63 1.268 . S
C50 O56 1.268 . S
C50 O65 1.268 . S
C51 O57 1.268 . S
C51 O61 1.268 . S
C52 O58 1.268 . S
C52 O60 1.268 . S
C53 O59 1.268 . S
C53 O62 1.268 . S
O54 Sc44 2.105 . S
O54 C48 1.268 . S
O55 Sc45 2.105 1_554 S
O55 C49 1.268 . S
O56 Sc46 2.105 . S
O56 C50 1.268 . S
O57 Sc44 2.105 . S
O57 C51 1.268 . S
O58 Sc46 2.105 . S
O58 C52 1.268 . S
O59 Sc45 2.105 . S
O59 C53 1.268 . S
O60 Sc44 2.105 . S
O60 C52 1.268 . S
O61 Sc45 2.105 . S
O61 C51 1.268 . S
O62 Sc46 2.105 . S
O62 C53 1.268 . S
O63 Sc44 2.105 1_554 S
O63 C49 1.268 . S
O64 Sc46 2.105 . S
O64 C48 1.268 . S
O65 Sc45 2.105 . S
O65 C50 1.268 . S
Sc66 O69 2.025 . S
Sc66 O76 2.105 . S
Sc66 O79 2.105 . S
Sc66 O82 2.105 . S
Sc66 O85 2.105 . S
Sc67 O69 2.025 . S
Sc67 O77 2.105 . S
Sc67 O81 2.105 . S
Sc67 O83 2.105 . S
Sc67 O87 2.105 . S
Sc68 O69 2.025 . S
Sc68 O78 2.105 . S
Sc68 O80 2.105 . S
Sc68 O84 2.105 . S
Sc68 O86 2.105 . S
O69 Sc66 2.025 . S
O69 Sc67 2.025 . S
O69 Sc68 2.025 . S
C70 O76 1.268 . S
C70 O86 1.268 . S
C71 O77 1.268 . S
C71 O85 1.268 . S
C72 O78 1.268 . S
C72 O87 1.268 . S
C73 O79 1.268 . S
C73 O83 1.268 . S
C74 O80 1.268 . S
C74 O82 1.268 . S
C75 O81 1.268 . S
C75 O84 1.268 . S
O76 Sc66 2.105 . S
O76 C70 1.268 . S
O77 Sc67 2.105 . S
O77 C71 1.268 . S
O78 Sc68 2.105 . S
O78 C72 1.268 . S
O79 Sc66 2.105 . S
O79 C73 1.268 . S
O80 Sc68 2.105 . S
O80 C74 1.268 . S
O81 Sc67 2.105 . S
O81 C75 1.268 . S
O82 Sc66 2.105 . S
O82 C74 1.268 . S
O83 Sc67 2.105 . S
O83 C73 1.268 . S
O84 Sc68 2.105 . S
O84 C75 1.268 . S
O85 Sc66 2.105 . S
O85 C71 1.268 . S
O86 Sc68 2.105 . S
O86 C70 1.268 . S
O87 Sc67 2.105 . S
O87 C72 1.268 . S
Sc88 O91 2.025 . S
Sc88 O98 2.105 . S
Sc88 O101 2.105 . S
Sc88 O104 2.105 . S
Sc88 O107 2.105 . S
Sc89 O91 2.025 . S
Sc89 O99 2.105 . S
Sc89 O103 2.105 . S
Sc89 O105 2.105 . S
Sc89 O109 2.105 1_556 S
Sc90 O91 2.025 . S
Sc90 O100 2.105 1_556 S
Sc90 O102 2.105 . S
Sc90 O106 2.105 . S
Sc90 O108 2.105 . S
O91 Sc88 2.025 . S
O91 Sc89 2.025 . S
O91 Sc90 2.025 . S
C92 O98 1.268 . S
C92 O108 1.268 . S
C93 O99 1.268 . S
C93 O107 1.268 . S
C94 O100 1.268 . S
C94 O109 1.268 . S
C95 O101 1.268 . S
C95 O105 1.268 . S
C96 O102 1.268 . S
C96 O104 1.268 . S
C97 O103 1.268 . S
C97 O106 1.268 . S
O98 Sc88 2.105 . S
O98 C92 1.268 . S
O99 Sc89 2.105 . S
O99 C93 1.268 . S
O100 Sc90 2.105 1_554 S
O100 C94 1.268 . S
O101 Sc88 2.105 . S
O101 C95 1.268 . S
O102 Sc90 2.105 . S
O102 C96 1.268 . S
O103 Sc89 2.105 . S
O103 C97 1.268 . S
O104 Sc88 2.105 . S
O104 C96 1.268 . S
O105 Sc89 2.105 . S
O105 C95 1.268 . S
O106 Sc90 2.105 . S
O106 C97 1.268 . S
O107 Sc88 2.105 . S
O107 C93 1.268 . S
O108 Sc90 2.105 . S
O108 C92 1.268 . S
O109 Sc89 2.105 1_554 S
O109 C94 1.268 . S
Sc110 O113 2.025 . S
Sc110 O120 2.105 . S
Sc110 O123 2.105 . S
Sc110 O126 2.105 . S
Sc110 O129 2.105 . S
Sc111 O113 2.025 . S
Sc111 O121 2.105 . S
Sc111 O125 2.105 . S
Sc111 O127 2.105 . S
Sc111 O131 2.105 . S
Sc112 O113 2.025 . S
Sc112 O122 2.105 . S
Sc112 O124 2.105 . S
Sc112 O128 2.105 . S
Sc112 O130 2.105 . S
O113 Sc110 2.025 . S
O113 Sc111 2.025 . S
O113 Sc112 2.025 . S
C114 O120 1.268 . S
C114 O130 1.268 . S
C115 O121 1.268 . S
C115 O129 1.268 . S
C116 O122 1.268 . S
C116 O131 1.268 . S
C117 O123 1.268 . S
C117 O127 1.268 . S
C118 O124 1.268 . S
C118 O126 1.268 . S
C119 O125 1.268 . S
C119 O128 1.268 . S
O120 Sc110 2.105 . S
O120 C114 1.268 . S
O121 Sc111 2.105 . S
O121 C115 1.268 . S
O122 Sc112 2.105 . S
O122 C116 1.268 . S
O123 Sc110 2.105 . S
O123 C117 1.268 . S
O124 Sc112 2.105 . S
O124 C118 1.268 . S
O125 Sc111 2.105 . S
O125 C119 1.268 . S
O126 Sc110 2.105 . S
O126 C118 1.268 . S
O127 Sc111 2.105 . S
O127 C117 1.268 . S
O128 Sc112 2.105 . S
O128 C119 1.268 . S
O129 Sc110 2.105 . S
O129 C115 1.268 . S
O130 Sc112 2.105 . S
O130 C114 1.268 . S
O131 Sc111 2.105 . S
O131 C116 1.268 . S
Sc132 O135 2.025 . S
Sc132 O142 2.105 . S
Sc132 O145 2.105 1_554 S
Sc132 O148 2.105 . S
Sc132 O151 2.105 . S
Sc133 O135 2.025 . S
Sc133 O143 2.105 . S
Sc133 O147 2.105 . S
Sc133 O149 2.105 1_554 S
Sc133 O153 2.105 . S
Sc134 O135 2.025 . S
Sc134 O144 2.105 . S
Sc134 O146 2.105 . S
Sc134 O150 2.105 . S
Sc134 O152 2.105 . S
O135 Sc132 2.025 . S
O135 Sc133 2.025 . S
O135 Sc134 2.025 . S
C136 O142 1.268 . S
C136 O152 1.268 . S
C137 O143 1.268 . S
C137 O151 1.268 . S
C138 O144 1.268 . S
C138 O153 1.268 . S
C139 O145 1.268 . S
C139 O149 1.268 . S
C140 O146 1.268 . S
C140 O148 1.268 . S
C141 O147 1.268 . S
C141 O150 1.268 . S
O142 Sc132 2.105 . S
O142 C136 1.268 . S
O143 Sc133 2.105 . S
O143 C137 1.268 . S
O144 Sc134 2.105 . S
O144 C138 1.268 . S
O145 Sc132 2.105 1_556 S
O145 C139 1.268 . S
O146 Sc134 2.105 . S
O146 C140 1.268 . S
O147 Sc133 2.105 . S
O147 C141 1.268 . S
O148 Sc132 2.105 . S
O148 C140 1.268 . S
O149 Sc133 2.105 1_556 S
O149 C139 1.268 . S
O150 Sc134 2.105 . S
O150 C141 1.268 . S
O151 Sc132 2.105 . S
O151 C137 1.268 . S
O152 Sc134 2.105 . S
O152 C136 1.268 . S
O153 Sc133 2.105 . S
O153 C138 1.268 . S
Sc154 O157 2.025 . S
Sc154 O164 2.105 . S
Sc154 O167 2.105 . S
Sc154 O170 2.105 . S
Sc154 O173 2.105 . S
Sc155 O157 2.025 . S
Sc155 O165 2.105 . S
Sc155 O169 2.105 . S
Sc155 O171 2.105 . S
Sc155 O175 2.105 . S
Sc156 O157 2.025 . S
Sc156 O166 2.105 . S
Sc156 O168 2.105 . S
Sc156 O172 2.105 . S
Sc156 O174 2.105 . S
O157 Sc154 2.025 . S
O157 Sc155 2.025 . S
O157 Sc156 2.025 . S
C158 O164 1.268 . S
C158 O174 1.268 . S
C159 O165 1.268 . S
C159 O173 1.268 . S
C160 O166 1.268 . S
C160 O175 1.268 . S
C161 O167 1.268 . S
C161 O171 1.268 . S
C162 O168 1.268 . S
C162 O170 1.268 . S
C163 O169 1.268 . S
C163 O172 1.268 . S
O164 Sc154 2.105 . S
O164 C158 1.268 . S
O165 Sc155 2.105 . S
O165 C159 1.268 . S
O166 Sc156 2.105 . S
O166 C160 1.268 . S
O167 Sc154 2.105 . S
O167 C161 1.268 . S
O168 Sc156 2.105 . S
O168 C162 1.268 . S
O169 Sc155 2.105 . S
O169 C163 1.268 . S
O170 Sc154 2.105 . S
O170 C162 1.268 . S
O171 Sc155 2.105 . S
O171 C161 1.268 . S
O172 Sc156 2.105 . S
O172 C163 1.268 . S
O173 Sc154 2.105 . S
O173 C159 1.268 . S
O174 Sc156 2.105 . S
O174 C158 1.268 . S
O175 Sc155 2.105 . S
O175 C160 1.268 . S
Sc176 O179 2.025 . S
Sc176 O186 2.105 . S
Sc176 O189 2.105 . S
Sc176 O192 2.105 . S
Sc176 O195 2.105 1_554 S
Sc177 O179 2.025 . S
Sc177 O187 2.105 1_554 S
Sc177 O191 2.105 . S
Sc177 O193 2.105 . S
Sc177 O197 2.105 . S
Sc178 O179 2.025 . S
Sc178 O188 2.105 . S
Sc178 O190 2.105 . S
Sc178 O194 2.105 . S
Sc178 O196 2.105 . S
O179 Sc176 2.025 . S
O179 Sc177 2.025 . S
O179 Sc178 2.025 . S
C180 O186 1.268 . S
C180 O196 1.268 . S
C181 O187 1.268 . S
C181 O195 1.268 . S
C182 O188 1.268 . S
C182 O197 1.268 . S
C183 O189 1.268 . S
C183 O193 1.268 . S
C184 O190 1.268 . S
C184 O192 1.268 . S
C185 O191 1.268 . S
C185 O194 1.268 . S
O186 Sc176 2.105 . S
O186 C180 1.268 . S
O187 Sc177 2.105 1_556 S
O187 C181 1.268 . S
O188 Sc178 2.105 . S
O188 C182 1.268 . S
O189 Sc176 2.105 . S
O189 C183 1.268 . S
O190 Sc178 2.105 . S
O190 C184 1.268 . S
O191 Sc177 2.105 . S
O191 C185 1.268 . S
O192 Sc176 2.105 . S
O192 C184 1.268 . S
O193 Sc177 2.105 . S
O193 C183 1.268 . S
O194 Sc178 2.105 . S
O194 C185 1.268 . S
O195 Sc176 2.105 1_556 S
O195 C181 1.268 . S
O196 Sc178 2.105 . S
O196 C180 1.268 . S
O197 Sc177 2.105 . S
O197 C182 1.268 . S
Sc198 O201 2.025 . S
Sc198 O208 2.105 . S
Sc198 O211 2.105 . S
Sc198 O214 2.105 . S
Sc198 O217 2.105 . S
Sc199 O201 2.025 . S
Sc199 O209 2.105 . S
Sc199 O213 2.105 . S
Sc199 O215 2.105 . S
Sc199 O219 2.105 . S
Sc200 O201 2.025 . S
Sc200 O210 2.105 . S
Sc200 O212 2.105 . S
Sc200 O216 2.105 . S
Sc200 O218 2.105 . S
O201 Sc198 2.025 . S
O201 Sc199 2.025 . S
O201 Sc200 2.025 . S
C202 O208 1.268 . S
C202 O218 1.268 . S
C203 O209 1.268 . S
C203 O217 1.268 . S
C204 O210 1.268 . S
C204 O219 1.268 . S
C205 O211 1.268 . S
C205 O215 1.268 . S
C206 O212 1.268 . S
C206 O214 1.268 . S
C207 O213 1.268 . S
C207 O216 1.268 . S
O208 Sc198 2.105 . S
O208 C202 1.268 . S
O209 Sc199 2.105 . S
O209 C203 1.268 . S
O210 Sc200 2.105 . S
O210 C204 1.268 . S
O211 Sc198 2.105 . S
O211 C205 1.268 . S
O212 Sc200 2.105 . S
O212 C206 1.268 . S
O213 Sc199 2.105 . S
O213 C207 1.268 . S
O214 Sc198 2.105 . S
O214 C206 1.268 . S
O215 Sc199 2.105 . S
O215 C205 1.268 . S
O216 Sc200 2.105 . S
O216 C207 1.268 . S
O217 Sc198 2.105 . S
O217 C203 1.268 . S
O218 Sc200 2.105 . S
O218 C202 1.268 . S
O219 Sc199 2.105 . S
O219 C204 1.268 . S
Sc220 O223 2.025 . S
Sc220 O230 2.105 . S
Sc220 O233 2.105 . S
Sc220 O236 2.105 . S
Sc220 O239 2.105 1_556 S
Sc221 O223 2.025 . S
Sc221 O231 2.105 1_556 S
Sc221 O235 2.105 . S
Sc221 O237 2.105 . S
Sc221 O241 2.105 . S
Sc222 O223 2.025 . S
Sc222 O232 2.105 . S
Sc222 O234 2.105 . S
Sc222 O238 2.105 . S
Sc222 O240 2.105 . S
O223 Sc220 2.025 . S
O223 Sc221 2.025 . S
O223 Sc222 2.025 . S
C224 O230 1.268 . S
C224 O240 1.268 . S
C225 O231 1.268 . S
C225 O239 1.268 . S
C226 O232 1.268 . S
C226 O241 1.268 . S
C227 O233 1.268 . S
C227 O237 1.268 . S
C228 O234 1.268 . S
C228 O236 1.268 . S
C229 O235 1.268 . S
C229 O238 1.268 . S
O230 Sc220 2.105 . S
O230 C224 1.268 . S
O231 Sc221 2.105 1_554 S
O231 C225 1.268 . S
O232 Sc222 2.105 . S
O232 C226 1.268 . S
O233 Sc220 2.105 . S
O233 C227 1.268 . S
O234 Sc222 2.105 . S
O234 C228 1.268 . S
O235 Sc221 2.105 . S
O235 C229 1.268 . S
O236 Sc220 2.105 . S
O236 C228 1.268 . S
O237 Sc221 2.105 . S
O237 C227 1.268 . S
O238 Sc222 2.105 . S
O238 C229 1.268 . S
O239 Sc220 2.105 1_554 S
O239 C225 1.268 . S
O240 Sc222 2.105 . S
O240 C224 1.268 . S
O241 Sc221 2.105 . S
O241 C226 1.268 . S
Sc242 O245 2.025 . S
Sc242 O252 2.105 . S
Sc242 O255 2.105 . S
Sc242 O258 2.105 . S
Sc242 O261 2.105 . S
Sc243 O245 2.025 . S
Sc243 O253 2.105 . S
Sc243 O257 2.105 . S
Sc243 O259 2.105 . S
Sc243 O263 2.105 . S
Sc244 O245 2.025 . S
Sc244 O254 2.105 . S
Sc244 O256 2.105 . S
Sc244 O260 2.105 . S
Sc244 O262 2.105 . S
O245 Sc242 2.025 . S
O245 Sc243 2.025 . S
O245 Sc244 2.025 . S
C246 O252 1.268 . S
C246 O262 1.268 . S
C247 O253 1.268 . S
C247 O261 1.268 . S
C248 O254 1.268 . S
C248 O263 1.268 . S
C249 O255 1.268 . S
C249 O259 1.268 . S
C250 O256 1.268 . S
C250 O258 1.268 . S
C251 O257 1.268 . S
C251 O260 1.268 . S
O252 Sc242 2.105 . S
O252 C246 1.268 . S
O253 Sc243 2.105 . S
O253 C247 1.268 . S
O254 Sc244 2.105 . S
O254 C248 1.268 . S
O255 Sc242 2.105 . S
O255 C249 1.268 . S
O256 Sc244 2.105 . S
O256 C250 1.268 . S
O257 Sc243 2.105 . S
O257 C251 1.268 . S
O258 Sc242 2.105 . S
O258 C250 1.268 . S
O259 Sc243 2.105 . S
O259 C249 1.268 . S
O260 Sc244 2.105 . S
O260 C251 1.268 . S
O261 Sc242 2.105 . S
O261 C247 1.268 . S
O262 Sc244 2.105 . S
O262 C246 1.268 . S
O263 Sc243 2.105 . S
O263 C248 1.268 . S
Sc264 O267 2.025 . S
Sc264 O274 2.105 . S
Sc264 O277 2.105 . S
Sc264 O280 2.105 . S
Sc264 O283 2.105 . S
Sc265 O267 2.025 . S
Sc265 O275 2.105 . S
Sc265 O279 2.105 . S
Sc265 O281 2.105 . S
Sc265 O285 2.105 1_556 S
Sc266 O267 2.025 . S
Sc266 O276 2.105 1_556 S
Sc266 O278 2.105 . S
Sc266 O282 2.105 . S
Sc266 O284 2.105 . S
O267 Sc264 2.025 . S
O267 Sc265 2.025 . S
O267 Sc266 2.025 . S
C268 O274 1.268 . S
C268 O284 1.268 . S
C269 O275 1.268 . S
C269 O283 1.268 . S
C270 O276 1.268 . S
C270 O285 1.268 . S
C271 O277 1.268 . S
C271 O281 1.268 . S
C272 O278 1.268 . S
C272 O280 1.268 . S
C273 O279 1.268 . S
C273 O282 1.268 . S
O274 Sc264 2.105 . S
O274 C268 1.268 . S
O275 Sc265 2.105 . S
O275 C269 1.268 . S
O276 Sc266 2.105 1_554 S
O276 C270 1.268 . S
O277 Sc264 2.105 . S
O277 C271 1.268 . S
O278 Sc266 2.105 . S
O278 C272 1.268 . S
O279 Sc265 2.105 . S
O279 C273 1.268 . S
O280 Sc264 2.105 . S
O280 C272 1.268 . S
O281 Sc265 2.105 . S
O281 C271 1.268 . S
O282 Sc266 2.105 . S
O282 C273 1.268 . S
O283 Sc264 2.105 . S
O283 C269 1.268 . S
O284 Sc266 2.105 . S
O284 C268 1.268 . S
O285 Sc265 2.105 1_554 S
O285 C270 1.268 . S
Sc286 O289 2.025 . S
Sc286 O296 2.105 . S
Sc286 O299 2.105 . S
Sc286 O302 2.105 . S
Sc286 O305 2.105 . S
Sc287 O289 2.025 . S
Sc287 O297 2.105 . S
Sc287 O301 2.105 . S
Sc287 O303 2.105 . S
Sc287 O307 2.105 . S
Sc288 O289 2.025 . S
Sc288 O298 2.105 . S
Sc288 O300 2.105 . S
Sc288 O304 2.105 . S
Sc288 O306 2.105 . S
O289 Sc286 2.025 . S
O289 Sc287 2.025 . S
O289 Sc288 2.025 . S
C290 O296 1.268 . S
C290 O306 1.268 . S
C291 O297 1.268 . S
C291 O305 1.268 . S
C292 O298 1.268 . S
C292 O307 1.268 . S
C293 O299 1.268 . S
C293 O303 1.268 . S
C294 O300 1.268 . S
C294 O302 1.268 . S
C295 O301 1.268 . S
C295 O304 1.268 . S
O296 Sc286 2.105 . S
O296 C290 1.268 . S
O297 Sc287 2.105 . S
O297 C291 1.268 . S
O298 Sc288 2.105 . S
O298 C292 1.268 . S
O299 Sc286 2.105 . S
O299 C293 1.268 . S
O300 Sc288 2.105 . S
O300 C294 1.268 . S
O301 Sc287 2.105 . S
O301 C295 1.268 . S
O302 Sc286 2.105 . S
O302 C294 1.268 . S
O303 Sc287 2.105 . S
O303 C293 1.268 . S
O304 Sc288 2.105 . S
O304 C295 1.268 . S
O305 Sc286 2.105 . S
O305 C291 1.268 . S
O306 Sc288 2.105 . S
O306 C290 1.268 . S
O307 Sc287 2.105 . S
O307 C292 1.268 . S
Sc308 O311 2.025 . S
Sc308 O318 2.105 . S
Sc308 O321 2.105 1_554 S
Sc308 O324 2.105 . S
Sc308 O327 2.105 . S
Sc309 O311 2.025 . S
Sc309 O319 2.105 . S
Sc309 O323 2.105 . S
Sc309 O325 2.105 1_554 S
Sc309 O329 2.105 . S
Sc310 O311 2.025 . S
Sc310 O320 2.105 . S
Sc310 O322 2.105 . S
Sc310 O326 2.105 . S
Sc310 O328 2.105 . S
O311 Sc308 2.025 . S
O311 Sc309 2.025 . S
O311 Sc310 2.025 . S
C312 O318 1.268 . S
C312 O328 1.268 . S
C313 O319 1.268 . S
C313 O327 1.268 . S
C314 O320 1.268 . S
C314 O329 1.268 . S
C315 O321 1.268 . S
C315 O325 1.268 . S
C316 O322 1.268 . S
C316 O324 1.268 . S
C317 O323 1.268 . S
C317 O326 1.268 . S
O318 Sc308 2.105 . S
O318 C312 1.268 . S
O319 Sc309 2.105 . S
O319 C313 1.268 . S
O320 Sc310 2.105 . S
O320 C314 1.268 . S
O321 Sc308 2.105 1_556 S
O321 C315 1.268 . S
O322 Sc310 2.105 . S
O322 C316 1.268 . S
O323 Sc309 2.105 . S
O323 C317 1.268 . S
O324 Sc308 2.105 . S
O324 C316 1.268 . S
O325 Sc309 2.105 1_556 S
O325 C315 1.268 . S
O326 Sc310 2.105 . S
O326 C317 1.268 . S
O327 Sc308 2.105 . S
O327 C313 1.268 . S
O328 Sc310 2.105 . S
O328 C312 1.268 . S
O329 Sc309 2.105 . S
O329 C314 1.268 . S
Sc330 O333 2.025 . S
Sc330 O340 2.105 . S
Sc330 O343 2.105 . S
Sc330 O346 2.105 . S
Sc330 O349 2.105 . S
Sc331 O333 2.025 . S
Sc331 O341 2.105 . S
Sc331 O345 2.105 . S
Sc331 O347 2.105 . S
Sc331 O351 2.105 . S
Sc332 O333 2.025 . S
Sc332 O342 2.105 . S
Sc332 O344 2.105 . S
Sc332 O348 2.105 . S
Sc332 O350 2.105 . S
O333 Sc330 2.025 . S
O333 Sc331 2.025 . S
O333 Sc332 2.025 . S
C334 O340 1.268 . S
C334 O350 1.268 . S
C335 O341 1.268 . S
C335 O349 1.268 . S
C336 O342 1.268 . S
C336 O351 1.268 . S
C337 O343 1.268 . S
C337 O347 1.268 . S
C338 O344 1.268 . S
C338 O346 1.268 . S
C339 O345 1.268 . S
C339 O348 1.268 . S
O340 Sc330 2.105 . S
O340 C334 1.268 . S
O341 Sc331 2.105 . S
O341 C335 1.268 . S
O342 Sc332 2.105 . S
O342 C336 1.268 . S
O343 Sc330 2.105 . S
O343 C337 1.268 . S
O344 Sc332 2.105 . S
O344 C338 1.268 . S
O345 Sc331 2.105 . S
O345 C339 1.268 . S
O346 Sc330 2.105 . S
O346 C338 1.268 . S
O347 Sc331 2.105 . S
O347 C337 1.268 . S
O348 Sc332 2.105 . S
O348 C339 1.268 . S
O349 Sc330 2.105 . S
O349 C335 1.268 . S
O350 Sc332 2.105 . S
O350 C334 1.268 . S
O351 Sc331 2.105 . S
O351 C336 1.268 . S
C352 C353 1.363 . S
C352 C358 1.379 . S
C352 N360 1.356 . S
C353 C352 1.363 . S
C353 C359 1.363 . S
C354 C355 1.363 . S
C354 C359 1.379 . S
C354 N361 1.356 . S
C355 C354 1.363 . S
C355 C358 1.363 . S
N356 C358 1.356 . S
N356 H368 0.984 . S
N356 H369 0.985 . S
N357 C359 1.356 . S
N357 H362 0.984 . S
N357 H363 0.985 . S
C358 C352 1.379 . S
C358 C355 1.363 . S
C358 N356 1.356 . S
C359 C353 1.363 . S
C359 C354 1.379 . S
C359 N357 1.356 . S
N360 C352 1.356 . S
N360 H366 0.984 . S
N360 H367 0.984 . S
N361 C354 1.356 . S
N361 H364 0.984 . S
N361 H365 0.985 . S
H362 N357 0.984 . S
H363 N357 0.985 . S
H364 N361 0.984 . S
H365 N361 0.985 . S
H366 N360 0.984 . S
H367 N360 0.984 . S
H368 N356 0.984 . S
H369 N356 0.985 . S
C370 C371 1.363 . S
C370 C376 1.379 . S
C370 N378 1.356 . S
C371 C370 1.363 . S
C371 C377 1.363 . S
C372 C373 1.363 . S
C372 C377 1.379 . S
C372 N379 1.356 . S
C373 C372 1.363 . S
C373 C376 1.363 . S
N374 C376 1.356 . S
N374 H386 0.984 . S
N374 H387 0.985 . S
N375 C377 1.356 . S
N375 H380 0.984 . S
N375 H381 0.985 . S
C376 C370 1.379 . S
C376 C373 1.363 . S
C376 N374 1.356 . S
C377 C371 1.363 . S
C377 C372 1.379 . S
C377 N375 1.356 . S
N378 C370 1.356 . S
N378 H384 0.984 . S
N378 H385 0.984 . S
N379 C372 1.356 . S
N379 H382 0.984 . S
N379 H383 0.985 . S
H380 N375 0.984 . S
H381 N375 0.985 . S
H382 N379 0.984 . S
H383 N379 0.985 . S
H384 N378 0.984 . S
H385 N378 0.984 . S
H386 N374 0.984 . S
H387 N374 0.985 . S
C388 C389 1.363 . S
C388 C394 1.379 . S
C388 N396 1.356 . S
C389 C388 1.363 . S
C389 C395 1.363 . S
C390 C391 1.363 . S
C390 C395 1.379 . S
C390 N397 1.356 . S
C391 C390 1.363 . S
C391 C394 1.363 . S
N392 C394 1.356 . S
N392 H404 0.984 . S
N392 H405 0.985 . S
N393 C395 1.356 . S
N393 H398 0.984 . S
N393 H399 0.985 . S
C394 C388 1.379 . S
C394 C391 1.363 . S
C394 N392 1.356 . S
C395 C389 1.363 . S
C395 C390 1.379 . S
C395 N393 1.356 . S
N396 C388 1.356 . S
N396 H402 0.984 . S
N396 H403 0.984 . S
N397 C390 1.356 . S
N397 H400 0.984 . S
N397 H401 0.985 . S
H398 N393 0.984 . S
H399 N393 0.985 . S
H400 N397 0.984 . S
H401 N397 0.985 . S
H402 N396 0.984 . S
H403 N396 0.984 . S
H404 N392 0.984 . S
H405 N392 0.985 . S
C406 C407 1.363 . S
C406 C412 1.379 . S
C406 N414 1.356 . S
C407 C406 1.363 . S
C407 C413 1.363 . S
C408 C409 1.363 . S
C408 C413 1.379 . S
C408 N415 1.356 . S
C409 C408 1.363 . S
C409 C412 1.363 . S
N410 C412 1.356 . S
N410 H422 0.984 . S
N410 H423 0.985 . S
N411 C413 1.356 . S
N411 H416 0.984 . S
N411 H417 0.985 . S
C412 C406 1.379 . S
C412 C409 1.363 . S
C412 N410 1.356 . S
C413 C407 1.363 . S
C413 C408 1.379 . S
C413 N411 1.356 . S
N414 C406 1.356 . S
N414 H420 0.984 . S
N414 H421 0.984 . S
N415 C408 1.356 . S
N415 H418 0.984 . S
N415 H419 0.985 . S
H416 N411 0.984 . S
H417 N411 0.985 . S
H418 N415 0.984 . S
H419 N415 0.985 . S
H420 N414 0.984 . S
H421 N414 0.984 . S
H422 N410 0.984 . S
H423 N410 0.985 . S
C424 C425 1.363 . S
C424 C430 1.379 . S
C424 N432 1.356 . S
C425 C424 1.363 . S
C425 C431 1.363 . S
C426 C427 1.363 . S
C426 C431 1.379 . S
C426 N433 1.356 . S
C427 C426 1.363 . S
C427 C430 1.363 . S
N428 C430 1.356 . S
N428 H440 0.984 . S
N428 H441 0.985 . S
N429 C431 1.356 . S
N429 H434 0.984 . S
N429 H435 0.985 . S
C430 C424 1.379 . S
C430 C427 1.363 . S
C430 N428 1.356 . S
C431 C425 1.363 . S
C431 C426 1.379 . S
C431 N429 1.356 . S
N432 C424 1.356 . S
N432 H438 0.984 . S
N432 H439 0.984 . S
N433 C426 1.356 . S
N433 H436 0.984 . S
N433 H437 0.985 . S
H434 N429 0.984 . S
H435 N429 0.985 . S
H436 N433 0.984 . S
H437 N433 0.985 . S
H438 N432 0.984 . S
H439 N432 0.984 . S
H440 N428 0.984 . S
H441 N428 0.985 . S
C442 C443 1.363 . S
C442 C448 1.379 . S
C442 N450 1.356 . S
C443 C442 1.363 . S
C443 C449 1.363 . S
C444 C445 1.363 . S
C444 C449 1.379 . S
C444 N451 1.356 . S
C445 C444 1.363 . S
C445 C448 1.363 . S
N446 C448 1.356 . S
N446 H458 0.984 . S
N446 H459 0.985 . S
N447 C449 1.356 . S
N447 H452 0.984 . S
N447 H453 0.985 . S
C448 C442 1.379 . S
C448 C445 1.363 . S
C448 N446 1.356 . S
C449 C443 1.363 . S
C449 C444 1.379 . S
C449 N447 1.356 . S
N450 C442 1.356 . S
N450 H456 0.984 . S
N450 H457 0.984 . S
N451 C444 1.356 . S
N451 H454 0.984 . S
N451 H455 0.985 . S
H452 N447 0.984 . S
H453 N447 0.985 . S
H454 N451 0.984 . S
H455 N451 0.985 . S
H456 N450 0.984 . S
H457 N450 0.984 . S
H458 N446 0.984 . S
H459 N446 0.985 . S
C460 C461 1.363 . S
C460 C466 1.379 . S
C460 N468 1.356 . S
C461 C460 1.363 . S
C461 C467 1.363 . S
C462 C463 1.363 . S
C462 C467 1.379 . S
C462 N469 1.356 . S
C463 C462 1.363 . S
C463 C466 1.363 . S
N464 C466 1.356 . S
N464 H476 0.984 . S
N464 H477 0.985 . S
N465 C467 1.356 . S
N465 H470 0.984 . S
N465 H471 0.985 . S
C466 C460 1.379 . S
C466 C463 1.363 . S
C466 N464 1.356 . S
C467 C461 1.363 . S
C467 C462 1.379 . S
C467 N465 1.356 . S
N468 C460 1.356 . S
N468 H474 0.984 . S
N468 H475 0.984 . S
N469 C462 1.356 . S
N469 H472 0.984 . S
N469 H473 0.985 . S
H470 N465 0.984 . S
H471 N465 0.985 . S
H472 N469 0.984 . S
H473 N469 0.985 . S
H474 N468 0.984 . S
H475 N468 0.984 . S
H476 N464 0.984 . S
H477 N464 0.985 . S
C478 C479 1.363 . S
C478 C484 1.379 . S
C478 N486 1.356 . S
C479 C478 1.363 . S
C479 C485 1.363 . S
C480 C481 1.363 . S
C480 C485 1.379 . S
C480 N487 1.356 . S
C481 C480 1.363 . S
C481 C484 1.363 . S
N482 C484 1.356 . S
N482 H494 0.984 . S
N482 H495 0.985 . S
N483 C485 1.356 . S
N483 H488 0.984 . S
N483 H489 0.985 . S
C484 C478 1.379 . S
C484 C481 1.363 . S
C484 N482 1.356 . S
C485 C479 1.363 . S
C485 C480 1.379 . S
C485 N483 1.356 . S
N486 C478 1.356 . S
N486 H492 0.984 . S
N486 H493 0.984 . S
N487 C480 1.356 . S
N487 H490 0.984 . S
N487 H491 0.985 . S
H488 N483 0.984 . S
H489 N483 0.985 . S
H490 N487 0.984 . S
H491 N487 0.985 . S
H492 N486 0.984 . S
H493 N486 0.984 . S
H494 N482 0.984 . S
H495 N482 0.985 . S
C496 C497 1.363 . S
C496 C502 1.379 . S
C496 N504 1.356 . S
C497 C496 1.363 . S
C497 C503 1.363 . S
C498 C499 1.363 . S
C498 C503 1.379 . S
C498 N505 1.356 . S
C499 C498 1.363 . S
C499 C502 1.363 . S
N500 C502 1.356 . S
N500 H512 0.984 . S
N500 H513 0.985 . S
N501 C503 1.356 . S
N501 H506 0.984 . S
N501 H507 0.985 . S
C502 C496 1.379 . S
C502 C499 1.363 . S
C502 N500 1.356 . S
C503 C497 1.363 . S
C503 C498 1.379 . S
C503 N501 1.356 . S
N504 C496 1.356 . S
N504 H510 0.984 . S
N504 H511 0.984 . S
N505 C498 1.356 . S
N505 H508 0.984 . S
N505 H509 0.985 . S
H506 N501 0.984 . S
H507 N501 0.985 . S
H508 N505 0.984 . S
H509 N505 0.985 . S
H510 N504 0.984 . S
H511 N504 0.984 . S
H512 N500 0.984 . S
H513 N500 0.985 . S
C514 C515 1.363 . S
C514 C520 1.379 . S
C514 N522 1.356 . S
C515 C514 1.363 . S
C515 C521 1.363 . S
C516 C517 1.363 . S
C516 C521 1.379 . S
C516 N523 1.356 . S
C517 C516 1.363 . S
C517 C520 1.363 . S
N518 C520 1.356 . S
N518 H530 0.984 . S
N518 H531 0.985 . S
N519 C521 1.356 . S
N519 H524 0.984 . S
N519 H525 0.985 . S
C520 C514 1.379 . S
C520 C517 1.363 . S
C520 N518 1.356 . S
C521 C515 1.363 . S
C521 C516 1.379 . S
C521 N519 1.356 . S
N522 C514 1.356 . S
N522 H528 0.984 . S
N522 H529 0.984 . S
N523 C516 1.356 . S
N523 H526 0.984 . S
N523 H527 0.985 . S
H524 N519 0.984 . S
H525 N519 0.985 . S
H526 N523 0.984 . S
H527 N523 0.985 . S
H528 N522 0.984 . S
H529 N522 0.984 . S
H530 N518 0.984 . S
H531 N518 0.985 . S
C532 C533 1.363 . S
C532 C538 1.379 . S
C532 N540 1.356 . S
C533 C532 1.363 . S
C533 C539 1.363 . S
C534 C535 1.363 . S
C534 C539 1.379 . S
C534 N541 1.356 . S
C535 C534 1.363 . S
C535 C538 1.363 . S
N536 C538 1.356 . S
N536 H548 0.984 . S
N536 H549 0.985 . S
N537 C539 1.356 . S
N537 H542 0.984 . S
N537 H543 0.985 . S
C538 C532 1.379 . S
C538 C535 1.363 . S
C538 N536 1.356 . S
C539 C533 1.363 . S
C539 C534 1.379 . S
C539 N537 1.356 . S
N540 C532 1.356 . S
N540 H546 0.984 . S
N540 H547 0.984 . S
N541 C534 1.356 . S
N541 H544 0.984 . S
N541 H545 0.985 . S
H542 N537 0.984 . S
H543 N537 0.985 . S
H544 N541 0.984 . S
H545 N541 0.985 . S
H546 N540 0.984 . S
H547 N540 0.984 . S
H548 N536 0.984 . S
H549 N536 0.985 . S
C550 C551 1.363 . S
C550 C556 1.379 . S
C550 N558 1.356 . S
C551 C550 1.363 . S
C551 C557 1.363 . S
C552 C553 1.363 . S
C552 C557 1.379 . S
C552 N559 1.356 . S
C553 C552 1.363 . S
C553 C556 1.363 . S
N554 C556 1.356 . S
N554 H566 0.984 . S
N554 H567 0.985 . S
N555 C557 1.356 . S
N555 H560 0.984 . S
N555 H561 0.985 . S
C556 C550 1.379 . S
C556 C553 1.363 . S
C556 N554 1.356 . S
C557 C551 1.363 . S
C557 C552 1.379 . S
C557 N555 1.356 . S
N558 C550 1.356 . S
N558 H564 0.984 . S
N558 H565 0.984 . S
N559 C552 1.356 . S
N559 H562 0.984 . S
N559 H563 0.985 . S
H560 N555 0.984 . S
H561 N555 0.985 . S
H562 N559 0.984 . S
H563 N559 0.985 . S
H564 N558 0.984 . S
H565 N558 0.984 . S
H566 N554 0.984 . S
H567 N554 0.985 . S
C568 C569 1.363 . S
C568 C574 1.379 . S
C568 N576 1.356 . S
C569 C568 1.363 . S
C569 C575 1.363 . S
C570 C571 1.363 . S
C570 C575 1.379 . S
C570 N577 1.356 . S
C571 C570 1.363 . S
C571 C574 1.363 . S
N572 C574 1.356 . S
N572 H584 0.984 . S
N572 H585 0.985 . S
N573 C575 1.356 . S
N573 H578 0.984 . S
N573 H579 0.985 . S
C574 C568 1.379 . S
C574 C571 1.363 . S
C574 N572 1.356 . S
C575 C569 1.363 . S
C575 C570 1.379 . S
C575 N573 1.356 . S
N576 C568 1.356 . S
N576 H582 0.984 . S
N576 H583 0.984 . S
N577 C570 1.356 . S
N577 H580 0.984 . S
N577 H581 0.985 . S
H578 N573 0.984 . S
H579 N573 0.985 . S
H580 N577 0.984 . S
H581 N577 0.985 . S
H582 N576 0.984 . S
H583 N576 0.984 . S
H584 N572 0.984 . S
H585 N572 0.985 . S
C586 C587 1.363 . S
C586 C592 1.379 . S
C586 N594 1.356 . S
C587 C586 1.363 . S
C587 C593 1.363 . S
C588 C589 1.363 . S
C588 C593 1.379 . S
C588 N595 1.356 . S
C589 C588 1.363 . S
C589 C592 1.363 . S
N590 C592 1.356 . S
N590 H602 0.984 . S
N590 H603 0.985 . S
N591 C593 1.356 . S
N591 H596 0.984 . S
N591 H597 0.985 . S
C592 C586 1.379 . S
C592 C589 1.363 . S
C592 N590 1.356 . S
C593 C587 1.363 . S
C593 C588 1.379 . S
C593 N591 1.356 . S
N594 C586 1.356 . S
N594 H600 0.984 . S
N594 H601 0.984 . S
N595 C588 1.356 . S
N595 H598 0.984 . S
N595 H599 0.985 . S
H596 N591 0.984 . S
H597 N591 0.985 . S
H598 N595 0.984 . S
H599 N595 0.985 . S
H600 N594 0.984 . S
H601 N594 0.984 . S
H602 N590 0.984 . S
H603 N590 0.985 . S
C604 C605 1.363 . S
C604 C610 1.379 . S
C604 N612 1.356 . S
C605 C604 1.363 . S
C605 C611 1.363 . S
C606 C607 1.363 . S
C606 C611 1.379 . S
C606 N613 1.356 . S
C607 C606 1.363 . S
C607 C610 1.363 . S
N608 C610 1.356 . S
N608 H620 0.984 . S
N608 H621 0.985 . S
N609 C611 1.356 . S
N609 H614 0.984 . S
N609 H615 0.985 . S
C610 C604 1.379 . S
C610 C607 1.363 . S
C610 N608 1.356 . S
C611 C605 1.363 . S
C611 C606 1.379 . S
C611 N609 1.356 . S
N612 C604 1.356 . S
N612 H618 0.984 . S
N612 H619 0.984 . S
N613 C606 1.356 . S
N613 H616 0.984 . S
N613 H617 0.985 . S
H614 N609 0.984 . S
H615 N609 0.985 . S
H616 N613 0.984 . S
H617 N613 0.985 . S
H618 N612 0.984 . S
H619 N612 0.984 . S
H620 N608 0.984 . S
H621 N608 0.985 . S
C622 C623 1.363 . S
C622 C628 1.379 . S
C622 N630 1.356 . S
C623 C622 1.363 . S
C623 C629 1.363 . S
C624 C625 1.363 . S
C624 C629 1.379 . S
C624 N631 1.356 . S
C625 C624 1.363 . S
C625 C628 1.363 . S
N626 C628 1.356 . S
N626 H638 0.984 . S
N626 H639 0.985 . S
N627 C629 1.356 . S
N627 H632 0.984 . S
N627 H633 0.985 . S
C628 C622 1.379 . S
C628 C625 1.363 . S
C628 N626 1.356 . S
C629 C623 1.363 . S
C629 C624 1.379 . S
C629 N627 1.356 . S
N630 C622 1.356 . S
N630 H636 0.984 . S
N630 H637 0.984 . S
N631 C624 1.356 . S
N631 H634 0.984 . S
N631 H635 0.985 . S
H632 N627 0.984 . S
H633 N627 0.985 . S
H634 N631 0.984 . S
H635 N631 0.985 . S
H636 N630 0.984 . S
H637 N630 0.984 . S
H638 N626 0.984 . S
H639 N626 0.985 . S
C640 C641 1.363 . S
C640 C646 1.379 . S
C640 N648 1.356 . S
C641 C640 1.363 . S
C641 C647 1.363 . S
C642 C643 1.363 . S
C642 C647 1.379 . S
C642 N649 1.356 . S
C643 C642 1.363 . S
C643 C646 1.363 . S
N644 C646 1.356 . S
N644 H656 0.984 . S
N644 H657 0.985 . S
N645 C647 1.356 . S
N645 H650 0.984 . S
N645 H651 0.985 . S
C646 C640 1.379 . S
C646 C643 1.363 . S
C646 N644 1.356 . S
C647 C641 1.363 . S
C647 C642 1.379 . S
C647 N645 1.356 . S
N648 C640 1.356 . S
N648 H654 0.984 . S
N648 H655 0.984 . S
N649 C642 1.356 . S
N649 H652 0.984 . S
N649 H653 0.985 . S
H650 N645 0.984 . S
H651 N645 0.985 . S
H652 N649 0.984 . S
H653 N649 0.985 . S
H654 N648 0.984 . S
H655 N648 0.984 . S
H656 N644 0.984 . S
H657 N644 0.985 . S
C658 C659 1.363 . S
C658 C664 1.379 . S
C658 N666 1.356 . S
C659 C658 1.363 . S
C659 C665 1.363 . S
C660 C661 1.363 . S
C660 C665 1.379 . S
C660 N667 1.356 . S
C661 C660 1.363 . S
C661 C664 1.363 . S
N662 C664 1.356 . S
N662 H674 0.984 . S
N662 H675 0.985 . S
N663 C665 1.356 . S
N663 H668 0.984 . S
N663 H669 0.985 . S
C664 C658 1.379 . S
C664 C661 1.363 . S
C664 N662 1.356 . S
C665 C659 1.363 . S
C665 C660 1.379 . S
C665 N663 1.356 . S
N666 C658 1.356 . S
N666 H672 0.984 . S
N666 H673 0.984 . S
N667 C660 1.356 . S
N667 H670 0.984 . S
N667 H671 0.985 . S
H668 N663 0.984 . S
H669 N663 0.985 . S
H670 N667 0.984 . S
H671 N667 0.985 . S
H672 N666 0.984 . S
H673 N666 0.984 . S
H674 N662 0.984 . S
H675 N662 0.985 . S
C676 C677 1.363 . S
C676 C682 1.379 . S
C676 N684 1.356 . S
C677 C676 1.363 . S
C677 C683 1.363 . S
C678 C679 1.363 . S
C678 C683 1.379 . S
C678 N685 1.356 . S
C679 C678 1.363 . S
C679 C682 1.363 . S
N680 C682 1.356 . S
N680 H692 0.984 . S
N680 H693 0.985 . S
N681 C683 1.356 . S
N681 H686 0.984 . S
N681 H687 0.985 . S
C682 C676 1.379 . S
C682 C679 1.363 . S
C682 N680 1.356 . S
C683 C677 1.363 . S
C683 C678 1.379 . S
C683 N681 1.356 . S
N684 C676 1.356 . S
N684 H690 0.984 . S
N684 H691 0.984 . S
N685 C678 1.356 . S
N685 H688 0.984 . S
N685 H689 0.985 . S
H686 N681 0.984 . S
H687 N681 0.985 . S
H688 N685 0.984 . S
H689 N685 0.985 . S
H690 N684 0.984 . S
H691 N684 0.984 . S
H692 N680 0.984 . S
H693 N680 0.985 . S
C694 C695 1.363 . S
C694 C700 1.379 . S
C694 N702 1.356 . S
C695 C694 1.363 . S
C695 C701 1.363 . S
C696 C697 1.363 . S
C696 C701 1.379 . S
C696 N703 1.356 . S
C697 C696 1.363 . S
C697 C700 1.363 . S
N698 C700 1.356 . S
N698 H710 0.984 . S
N698 H711 0.985 . S
N699 C701 1.356 . S
N699 H704 0.984 . S
N699 H705 0.985 . S
C700 C694 1.379 . S
C700 C697 1.363 . S
C700 N698 1.356 . S
C701 C695 1.363 . S
C701 C696 1.379 . S
C701 N699 1.356 . S
N702 C694 1.356 . S
N702 H708 0.984 . S
N702 H709 0.984 . S
N703 C696 1.356 . S
N703 H706 0.984 . S
N703 H707 0.985 . S
H704 N699 0.984 . S
H705 N699 0.985 . S
H706 N703 0.984 . S
H707 N703 0.985 . S
H708 N702 0.984 . S
H709 N702 0.984 . S
H710 N698 0.984 . S
H711 N698 0.985 . S
C712 C713 1.363 . S
C712 C718 1.379 . S
C712 N720 1.356 . S
C713 C712 1.363 . S
C713 C719 1.363 . S
C714 C715 1.363 . S
C714 C719 1.379 . S
C714 N721 1.356 . S
C715 C714 1.363 . S
C715 C718 1.363 . S
N716 C718 1.356 . S
N716 H728 0.984 . S
N716 H729 0.985 . S
N717 C719 1.356 . S
N717 H722 0.984 . S
N717 H723 0.985 . S
C718 C712 1.379 . S
C718 C715 1.363 . S
C718 N716 1.356 . S
C719 C713 1.363 . S
C719 C714 1.379 . S
C719 N717 1.356 . S
N720 C712 1.356 . S
N720 H726 0.984 . S
N720 H727 0.984 . S
N721 C714 1.356 . S
N721 H724 0.984 . S
N721 H725 0.985 . S
H722 N717 0.984 . S
H723 N717 0.985 . S
H724 N721 0.984 . S
H725 N721 0.985 . S
H726 N720 0.984 . S
H727 N720 0.984 . S
H728 N716 0.984 . S
H729 N716 0.985 . S
C730 C731 1.363 . S
C730 C736 1.379 . S
C730 N738 1.356 . S
C731 C730 1.363 . S
C731 C737 1.363 . S
C732 C733 1.363 . S
C732 C737 1.379 . S
C732 N739 1.356 . S
C733 C732 1.363 . S
C733 C736 1.363 . S
N734 C736 1.356 . S
N734 H746 0.984 . S
N734 H747 0.985 . S
N735 C737 1.356 . S
N735 H740 0.984 . S
N735 H741 0.985 . S
C736 C730 1.379 . S
C736 C733 1.363 . S
C736 N734 1.356 . S
C737 C731 1.363 . S
C737 C732 1.379 . S
C737 N735 1.356 . S
N738 C730 1.356 . S
N738 H744 0.984 . S
N738 H745 0.984 . S
N739 C732 1.356 . S
N739 H742 0.984 . S
N739 H743 0.985 . S
H740 N735 0.984 . S
H741 N735 0.985 . S
H742 N739 0.984 . S
H743 N739 0.985 . S
H744 N738 0.984 . S
H745 N738 0.984 . S
H746 N734 0.984 . S
H747 N734 0.985 . S
C748 C749 1.363 . S
C748 C754 1.379 . S
C748 N756 1.356 . S
C749 C748 1.363 . S
C749 C755 1.363 . S
C750 C751 1.363 . S
C750 C755 1.379 . S
C750 N757 1.356 . S
C751 C750 1.363 . S
C751 C754 1.363 . S
N752 C754 1.356 . S
N752 H764 0.984 . S
N752 H765 0.985 . S
N753 C755 1.356 . S
N753 H758 0.984 . S
N753 H759 0.985 . S
C754 C748 1.379 . S
C754 C751 1.363 . S
C754 N752 1.356 . S
C755 C749 1.363 . S
C755 C750 1.379 . S
C755 N753 1.356 . S
N756 C748 1.356 . S
N756 H762 0.984 . S
N756 H763 0.984 . S
N757 C750 1.356 . S
N757 H760 0.984 . S
N757 H761 0.985 . S
H758 N753 0.984 . S
H759 N753 0.985 . S
H760 N757 0.984 . S
H761 N757 0.985 . S
H762 N756 0.984 . S
H763 N756 0.984 . S
H764 N752 0.984 . S
H765 N752 0.985 . S
C766 C767 1.363 . S
C766 C772 1.379 . S
C766 N774 1.356 . S
C767 C766 1.363 . S
C767 C773 1.363 . S
C768 C769 1.363 . S
C768 C773 1.379 . S
C768 N775 1.356 . S
C769 C768 1.363 . S
C769 C772 1.363 . S
N770 C772 1.356 . S
N770 H782 0.984 . S
N770 H783 0.985 . S
N771 C773 1.356 . S
N771 H776 0.984 . S
N771 H777 0.985 . S
C772 C766 1.379 . S
C772 C769 1.363 . S
C772 N770 1.356 . S
C773 C767 1.363 . S
C773 C768 1.379 . S
C773 N771 1.356 . S
N774 C766 1.356 . S
N774 H780 0.984 . S
N774 H781 0.984 . S
N775 C768 1.356 . S
N775 H778 0.984 . S
N775 H779 0.985 . S
H776 N771 0.984 . S
H777 N771 0.985 . S
H778 N775 0.984 . S
H779 N775 0.985 . S
H780 N774 0.984 . S
H781 N774 0.984 . S
H782 N770 0.984 . S
H783 N770 0.985 . S
C784 C785 1.363 . S
C784 C790 1.379 1_455 S
C784 N792 1.356 . S
C785 C784 1.363 . S
C785 C791 1.363 . S
C786 C787 1.363 . S
C786 C791 1.379 1_655 S
C786 N793 1.356 . S
C787 C786 1.363 . S
C787 C790 1.363 . S
N788 C790 1.356 . S
N788 H800 0.984 . S
N788 H801 0.985 . S
N789 C791 1.356 . S
N789 H794 0.984 . S
N789 H795 0.985 . S
C790 C784 1.379 1_655 S
C790 C787 1.363 . S
C790 N788 1.356 . S
C791 C785 1.363 . S
C791 C786 1.379 1_455 S
C791 N789 1.356 . S
N792 C784 1.356 . S
N792 H798 0.984 . S
N792 H799 0.984 . S
N793 C786 1.356 . S
N793 H796 0.984 . S
N793 H797 0.985 . S
H794 N789 0.984 . S
H795 N789 0.985 . S
H796 N793 0.984 . S
H797 N793 0.985 . S
H798 N792 0.984 . S
H799 N792 0.984 . S
H800 N788 0.984 . S
H801 N788 0.985 . S
C802 C803 1.363 . S
C802 C808 1.379 . S
C802 N810 1.356 . S
C803 C802 1.363 . S
C803 C809 1.363 . S
C804 C805 1.363 . S
C804 C809 1.379 . S
C804 N811 1.356 . S
C805 C804 1.363 . S
C805 C808 1.363 . S
N806 C808 1.356 . S
N806 H818 0.984 . S
N806 H819 0.985 . S
N807 C809 1.356 . S
N807 H812 0.984 . S
N807 H813 0.985 . S
C808 C802 1.379 . S
C808 C805 1.363 . S
C808 N806 1.356 . S
C809 C803 1.363 . S
C809 C804 1.379 . S
C809 N807 1.356 . S
N810 C802 1.356 . S
N810 H816 0.984 . S
N810 H817 0.984 . S
N811 C804 1.356 . S
N811 H814 0.984 . S
N811 H815 0.985 . S
H812 N807 0.984 . S
H813 N807 0.985 . S
H814 N811 0.984 . S
H815 N811 0.985 . S
H816 N810 0.984 . S
H817 N810 0.984 . S
H818 N806 0.984 . S
H819 N806 0.985 . S
C820 C821 1.363 . S
C820 C826 1.379 1_655 S
C820 N828 1.356 . S
C821 C820 1.363 . S
C821 C827 1.363 . S
C822 C823 1.363 . S
C822 C827 1.379 1_455 S
C822 N829 1.356 . S
C823 C822 1.363 . S
C823 C826 1.363 . S
N824 C826 1.356 . S
N824 H836 0.984 . S
N824 H837 0.985 . S
N825 C827 1.356 . S
N825 H830 0.984 . S
N825 H831 0.985 1_556 S
C826 C820 1.379 1_455 S
C826 C823 1.363 . S
C826 N824 1.356 . S
C827 C821 1.363 . S
C827 C822 1.379 1_655 S
C827 N825 1.356 . S
N828 C820 1.356 . S
N828 H834 0.984 . S
N828 H835 0.984 . S
N829 C822 1.356 . S
N829 H832 0.984 . S
N829 H833 0.985 1_556 S
H830 N825 0.984 . S
H831 N825 0.985 1_554 S
H832 N829 0.984 . S
H833 N829 0.985 1_554 S
H834 N828 0.984 . S
H835 N828 0.984 . S
H836 N824 0.984 . S
H837 N824 0.985 . S
C838 C839 1.363 . S
C838 C844 1.379 . S
C838 N846 1.356 . S
C839 C838 1.363 . S
C839 C845 1.363 . S
C840 C841 1.363 . S
C840 C845 1.379 . S
C840 N847 1.356 . S
C841 C840 1.363 . S
C841 C844 1.363 . S
N842 C844 1.356 . S
N842 H854 0.984 . S
N842 H855 0.985 . S
N843 C845 1.356 . S
N843 H848 0.984 . S
N843 H849 0.985 . S
C844 C838 1.379 . S
C844 C841 1.363 . S
C844 N842 1.356 . S
C845 C839 1.363 . S
C845 C840 1.379 . S
C845 N843 1.356 . S
N846 C838 1.356 . S
N846 H852 0.984 . S
N846 H853 0.984 . S
N847 C840 1.356 . S
N847 H850 0.984 . S
N847 H851 0.985 . S
H848 N843 0.984 . S
H849 N843 0.985 . S
H850 N847 0.984 . S
H851 N847 0.985 . S
H852 N846 0.984 . S
H853 N846 0.984 . S
H854 N842 0.984 . S
H855 N842 0.985 . S
C856 C857 1.363 . S
C856 C862 1.379 . S
C856 N864 1.356 1_554 S
C857 C856 1.363 . S
C857 C863 1.363 . S
C858 C859 1.363 . S
C858 C863 1.379 . S
C858 N865 1.356 . S
C859 C858 1.363 . S
C859 C862 1.363 . S
N860 C862 1.356 1_556 S
N860 H872 0.984 . S
N860 H873 0.985 . S
N861 C863 1.356 . S
N861 H866 0.984 . S
N861 H867 0.985 . S
C862 C856 1.379 . S
C862 C859 1.363 . S
C862 N860 1.356 1_554 S
C863 C857 1.363 . S
C863 C858 1.379 . S
C863 N861 1.356 . S
N864 C856 1.356 1_556 S
N864 H870 0.984 . S
N864 H871 0.984 . S
N865 C858 1.356 . S
N865 H868 0.984 . S
N865 H869 0.985 . S
H866 N861 0.984 . S
H867 N861 0.985 . S
H868 N865 0.984 . S
H869 N865 0.985 . S
H870 N864 0.984 . S
H871 N864 0.984 . S
H872 N860 0.984 . S
H873 N860 0.985 . S
C874 C875 1.363 . S
C874 C880 1.379 1_655 S
C874 N882 1.356 . S
C875 C874 1.363 . S
C875 C881 1.363 . S
C876 C877 1.363 . S
C876 C881 1.379 1_455 S
C876 N883 1.356 . S
C877 C876 1.363 . S
C877 C880 1.363 . S
N878 C880 1.356 . S
N878 H890 0.984 . S
N878 H891 0.985 . S
N879 C881 1.356 . S
N879 H884 0.984 . S
N879 H885 0.985 . S
C880 C874 1.379 1_455 S
C880 C877 1.363 . S
C880 N878 1.356 . S
C881 C875 1.363 . S
C881 C876 1.379 1_655 S
C881 N879 1.356 . S
N882 C874 1.356 . S
N882 H888 0.984 . S
N882 H889 0.984 . S
N883 C876 1.356 . S
N883 H886 0.984 . S
N883 H887 0.985 . S
H884 N879 0.984 . S
H885 N879 0.985 . S
H886 N883 0.984 . S
H887 N883 0.985 . S
H888 N882 0.984 . S
H889 N882 0.984 . S
H890 N878 0.984 . S
H891 N878 0.985 . S
C892 C893 1.363 . S
C892 C898 1.379 . S
C892 N900 1.356 1_556 S
C893 C892 1.363 . S
C893 C899 1.363 . S
C894 C895 1.363 . S
C894 C899 1.379 . S
C894 N901 1.356 . S
C895 C894 1.363 . S
C895 C898 1.363 . S
N896 C898 1.356 1_554 S
N896 H908 0.984 . S
N896 H909 0.985 . S
N897 C899 1.356 . S
N897 H902 0.984 . S
N897 H903 0.985 . S
C898 C892 1.379 . S
C898 C895 1.363 . S
C898 N896 1.356 1_556 S
C899 C893 1.363 . S
C899 C894 1.379 . S
C899 N897 1.356 . S
N900 C892 1.356 1_554 S
N900 H906 0.984 . S
N900 H907 0.984 . S
N901 C894 1.356 . S
N901 H904 0.984 . S
N901 H905 0.985 . S
H902 N897 0.984 . S
H903 N897 0.985 . S
H904 N901 0.984 . S
H905 N901 0.985 . S
H906 N900 0.984 . S
H907 N900 0.984 . S
H908 N896 0.984 . S
H909 N896 0.985 . S
C910 C911 1.363 . S
C910 C916 1.379 1_455 S
C910 N918 1.356 . S
C911 C910 1.363 . S
C911 C917 1.363 . S
C912 C913 1.363 . S
C912 C917 1.379 1_655 S
C912 N919 1.356 . S
C913 C912 1.363 . S
C913 C916 1.363 . S
N914 C916 1.356 . S
N914 H926 0.984 . S
N914 H927 0.985 . S
N915 C917 1.356 . S
N915 H920 0.984 . S
N915 H921 0.985 . S
C916 C910 1.379 1_655 S
C916 C913 1.363 . S
C916 N914 1.356 . S
C917 C911 1.363 . S
C917 C912 1.379 1_455 S
C917 N915 1.356 . S
N918 C910 1.356 . S
N918 H924 0.984 . S
N918 H925 0.984 . S
N919 C912 1.356 . S
N919 H922 0.984 . S
N919 H923 0.985 . S
H920 N915 0.984 . S
H921 N915 0.985 . S
H922 N919 0.984 . S
H923 N919 0.985 . S
H924 N918 0.984 . S
H925 N918 0.984 . S
H926 N914 0.984 . S
H927 N914 0.985 . S
C928 C929 1.363 . S
C928 C934 1.379 1_545 S
C928 N936 1.356 . S
C929 C928 1.363 . S
C929 C935 1.363 1_554 S
C930 C931 1.363 . S
C930 C935 1.379 1_565 S
C930 N937 1.356 . S
C931 C930 1.363 . S
C931 C934 1.363 1_556 S
N932 C934 1.356 . S
N932 H944 0.984 . S
N932 H945 0.985 . S
N933 C935 1.356 . S
N933 H938 0.984 . S
N933 H939 0.985 . S
C934 C928 1.379 1_565 S
C934 C931 1.363 1_554 S
C934 N932 1.356 . S
C935 C929 1.363 1_556 S
C935 C930 1.379 1_545 S
C935 N933 1.356 . S
N936 C928 1.356 . S
N936 H942 0.984 . S
N936 H943 0.984 . S
N937 C930 1.356 . S
N937 H940 0.984 . S
N937 H941 0.985 . S
H938 N933 0.984 . S
H939 N933 0.985 . S
H940 N937 0.984 . S
H941 N937 0.985 . S
H942 N936 0.984 . S
H943 N936 0.984 . S
H944 N932 0.984 . S
H945 N932 0.985 . S
C946 C947 1.363 . S
C946 C952 1.379 1_565 S
C946 N954 1.356 . S
C947 C946 1.363 . S
C947 C953 1.363 . S
C948 C949 1.363 . S
C948 C953 1.379 1_545 S
C948 N955 1.356 . S
C949 C948 1.363 . S
C949 C952 1.363 . S
N950 C952 1.356 . S
N950 H962 0.984 . S
N950 H963 0.985 . S
N951 C953 1.356 . S
N951 H956 0.984 . S
N951 H957 0.985 . S
C952 C946 1.379 1_545 S
C952 C949 1.363 . S
C952 N950 1.356 . S
C953 C947 1.363 . S
C953 C948 1.379 1_565 S
C953 N951 1.356 . S
N954 C946 1.356 . S
N954 H960 0.984 . S
N954 H961 0.984 . S
N955 C948 1.356 . S
N955 H958 0.984 . S
N955 H959 0.985 . S
H956 N951 0.984 . S
H957 N951 0.985 . S
H958 N955 0.984 . S
H959 N955 0.985 . S
H960 N954 0.984 . S
H961 N954 0.984 . S
H962 N950 0.984 . S
H963 N950 0.985 . S
C964 C965 1.363 1_556 S
C964 C970 1.379 1_545 S
C964 N972 1.356 . S
C965 C964 1.363 1_554 S
C965 C971 1.363 . S
C966 C967 1.363 1_554 S
C966 C971 1.379 1_565 S
C966 N973 1.356 . S
C967 C966 1.363 1_556 S
C967 C970 1.363 . S
N968 C970 1.356 . S
N968 H980 0.984 . S
N968 H981 0.985 . S
N969 C971 1.356 . S
N969 H974 0.984 . S
N969 H975 0.985 . S
C970 C964 1.379 1_565 S
C970 C967 1.363 . S
C970 N968 1.356 . S
C971 C965 1.363 . S
C971 C966 1.379 1_545 S
C971 N969 1.356 . S
N972 C964 1.356 . S
N972 H978 0.984 . S
N972 H979 0.984 . S
N973 C966 1.356 . S
N973 H976 0.984 . S
N973 H977 0.985 . S
H974 N969 0.984 . S
H975 N969 0.985 . S
H976 N973 0.984 . S
H977 N973 0.985 . S
H978 N972 0.984 . S
H979 N972 0.984 . S
H980 N968 0.984 . S
H981 N968 0.985 . S
C982 C983 1.363 . S
C982 C988 1.379 1_545 S
C982 N990 1.356 . S
C983 C982 1.363 . S
C983 C989 1.363 . S
C984 C985 1.363 . S
C984 C989 1.379 1_565 S
C984 N991 1.356 . S
C985 C984 1.363 . S
C985 C988 1.363 . S
N986 C988 1.356 . S
N986 H998 0.984 . S
N986 H999 0.985 . S
N987 C989 1.356 . S
N987 H992 0.984 . S
N987 H993 0.985 . S
C988 C982 1.379 1_565 S
C988 C985 1.363 . S
C988 N986 1.356 . S
C989 C983 1.363 . S
C989 C984 1.379 1_545 S
C989 N987 1.356 . S
N990 C982 1.356 . S
N990 H996 0.984 . S
N990 H997 0.984 . S
N991 C984 1.356 . S
N991 H994 0.984 . S
N991 H995 0.985 . S
H992 N987 0.984 . S
H993 N987 0.985 . S
H994 N991 0.984 . S
H995 N991 0.985 . S
H996 N990 0.984 . S
H997 N990 0.984 . S
H998 N986 0.984 . S
H999 N986 0.985 . S
C1000 C1001 1.363 1_556 S
C1000 C1006 1.379 . S
C1000 N1008 1.356 . S
C1001 C1000 1.363 1_554 S
C1001 C1007 1.363 . S
C1002 C1003 1.363 1_554 S
C1002 C1007 1.379 . S
C1002 N1009 1.356 . S
C1003 C1002 1.363 1_556 S
C1003 C1006 1.363 . S
N1004 C1006 1.356 . S
N1004 H1016 0.984 . S
N1004 H1017 0.985 . S
N1005 C1007 1.356 . S
N1005 H1010 0.984 . S
N1005 H1011 0.985 . S
C1006 C1000 1.379 . S
C1006 C1003 1.363 . S
C1006 N1004 1.356 . S
C1007 C1001 1.363 . S
C1007 C1002 1.379 . S
C1007 N1005 1.356 . S
N1008 C1000 1.356 . S
N1008 H1014 0.984 . S
N1008 H1015 0.984 . S
N1009 C1002 1.356 . S
N1009 H1012 0.984 . S
N1009 H1013 0.985 . S
H1010 N1005 0.984 . S
H1011 N1005 0.985 . S
H1012 N1009 0.984 . S
H1013 N1009 0.985 . S
H1014 N1008 0.984 . S
H1015 N1008 0.984 . S
H1016 N1004 0.984 . S
H1017 N1004 0.985 . S
C1018 C1019 1.363 . S
C1018 C1024 1.379 . S
C1018 N1026 1.356 . S
C1019 C1018 1.363 . S
C1019 C1025 1.363 . S
C1020 C1021 1.363 . S
C1020 C1025 1.379 . S
C1020 N1027 1.356 . S
C1021 C1020 1.363 . S
C1021 C1024 1.363 . S
N1022 C1024 1.356 . S
N1022 H1034 0.984 . S
N1022 H1035 0.985 . S
N1023 C1025 1.356 . S
N1023 H1028 0.984 . S
N1023 H1029 0.985 . S
C1024 C1018 1.379 . S
C1024 C1021 1.363 . S
C1024 N1022 1.356 . S
C1025 C1019 1.363 . S
C1025 C1020 1.379 . S
C1025 N1023 1.356 . S
N1026 C1018 1.356 . S
N1026 H1032 0.984 . S
N1026 H1033 0.984 . S
N1027 C1020 1.356 . S
N1027 H1030 0.984 . S
N1027 H1031 0.985 . S
H1028 N1023 0.984 . S
H1029 N1023 0.985 . S
H1030 N1027 0.984 . S
H1031 N1027 0.985 . S
H1032 N1026 0.984 . S
H1033 N1026 0.984 . S
H1034 N1022 0.984 . S
H1035 N1022 0.985 . S
C1036 C1037 1.363 1_554 S
C1036 C1042 1.379 . S
C1036 N1044 1.356 . S
C1037 C1036 1.363 1_556 S
C1037 C1043 1.363 . S
C1038 C1039 1.363 1_556 S
C1038 C1043 1.379 . S
C1038 N1045 1.356 . S
C1039 C1038 1.363 1_554 S
C1039 C1042 1.363 . S
N1040 C1042 1.356 . S
N1040 H1052 0.984 . S
N1040 H1053 0.985 . S
N1041 C1043 1.356 . S
N1041 H1046 0.984 . S
N1041 H1047 0.985 . S
C1042 C1036 1.379 . S
C1042 C1039 1.363 . S
C1042 N1040 1.356 . S
C1043 C1037 1.363 . S
C1043 C1038 1.379 . S
C1043 N1041 1.356 . S
N1044 C1036 1.356 . S
N1044 H1050 0.984 . S
N1044 H1051 0.984 . S
N1045 C1038 1.356 . S
N1045 H1048 0.984 . S
N1045 H1049 0.985 . S
H1046 N1041 0.984 . S
H1047 N1041 0.985 . S
H1048 N1045 0.984 . S
H1049 N1045 0.985 . S
H1050 N1044 0.984 . S
H1051 N1044 0.984 . S
H1052 N1040 0.984 . S
H1053 N1040 0.985 . S
C1054 C1055 1.363 . S
C1054 C1060 1.379 . S
C1054 N1062 1.356 . S
C1055 C1054 1.363 . S
C1055 C1061 1.363 . S
C1056 C1057 1.363 . S
C1056 C1061 1.379 . S
C1056 N1063 1.356 . S
C1057 C1056 1.363 . S
C1057 C1060 1.363 . S
N1058 C1060 1.356 . S
N1058 H1070 0.984 . S
N1058 H1071 0.985 . S
N1059 C1061 1.356 . S
N1059 H1064 0.984 . S
N1059 H1065 0.985 . S
C1060 C1054 1.379 . S
C1060 C1057 1.363 . S
C1060 N1058 1.356 . S
C1061 C1055 1.363 . S
C1061 C1056 1.379 . S
C1061 N1059 1.356 . S
N1062 C1054 1.356 . S
N1062 H1068 0.984 . S
N1062 H1069 0.984 . S
N1063 C1056 1.356 . S
N1063 H1066 0.984 . S
N1063 H1067 0.985 . S
H1064 N1059 0.984 . S
H1065 N1059 0.985 . S
H1066 N1063 0.984 . S
H1067 N1063 0.985 . S
H1068 N1062 0.984 . S
H1069 N1062 0.984 . S
H1070 N1058 0.984 . S
H1071 N1058 0.985 . S
C1072 C1073 1.363 1_556 S
C1072 C1078 1.379 . S
C1072 N1080 1.356 . S
C1073 C1072 1.363 1_554 S
C1073 C1079 1.363 . S
C1074 C1075 1.363 1_554 S
C1074 C1079 1.379 . S
C1074 N1081 1.356 . S
C1075 C1074 1.363 1_556 S
C1075 C1078 1.363 . S
N1076 C1078 1.356 . S
N1076 H1088 0.984 . S
N1076 H1089 0.985 . S
N1077 C1079 1.356 . S
N1077 H1082 0.984 . S
N1077 H1083 0.985 . S
C1078 C1072 1.379 . S
C1078 C1075 1.363 . S
C1078 N1076 1.356 . S
C1079 C1073 1.363 . S
C1079 C1074 1.379 . S
C1079 N1077 1.356 . S
N1080 C1072 1.356 . S
N1080 H1086 0.984 . S
N1080 H1087 0.984 1_556 S
N1081 C1074 1.356 . S
N1081 H1084 0.984 1_554 S
N1081 H1085 0.985 . S
H1082 N1077 0.984 . S
H1083 N1077 0.985 . S
H1084 N1081 0.984 1_556 S
H1085 N1081 0.985 . S
H1086 N1080 0.984 . S
H1087 N1080 0.984 1_554 S
H1088 N1076 0.984 . S
H1089 N1076 0.985 . S
C1090 C1091 1.363 . S
C1090 C1096 1.379 . S
C1090 N1098 1.356 . S
C1091 C1090 1.363 . S
C1091 C1097 1.363 . S
C1092 C1093 1.363 . S
C1092 C1097 1.379 . S
C1092 N1099 1.356 . S
C1093 C1092 1.363 . S
C1093 C1096 1.363 . S
N1094 C1096 1.356 . S
N1094 H1106 0.984 . S
N1094 H1107 0.985 . S
N1095 C1097 1.356 . S
N1095 H1100 0.984 . S
N1095 H1101 0.985 . S
C1096 C1090 1.379 . S
C1096 C1093 1.363 . S
C1096 N1094 1.356 . S
C1097 C1091 1.363 . S
C1097 C1092 1.379 . S
C1097 N1095 1.356 . S
N1098 C1090 1.356 . S
N1098 H1104 0.984 . S
N1098 H1105 0.984 . S
N1099 C1092 1.356 . S
N1099 H1102 0.984 . S
N1099 H1103 0.985 . S
H1100 N1095 0.984 . S
H1101 N1095 0.985 . S
H1102 N1099 0.984 . S
H1103 N1099 0.985 . S
H1104 N1098 0.984 . S
H1105 N1098 0.984 . S
H1106 N1094 0.984 . S
H1107 N1094 0.985 . S
C1108 C1109 1.363 1_554 S
C1108 C1114 1.379 . S
C1108 N1116 1.356 . S
C1109 C1108 1.363 1_556 S
C1109 C1115 1.363 . S
C1110 C1111 1.363 1_556 S
C1110 C1115 1.379 . S
C1110 N1117 1.356 . S
C1111 C1110 1.363 1_554 S
C1111 C1114 1.363 . S
N1112 C1114 1.356 . S
N1112 H1124 0.984 . S
N1112 H1125 0.985 . S
N1113 C1115 1.356 . S
N1113 H1118 0.984 . S
N1113 H1119 0.985 . S
C1114 C1108 1.379 . S
C1114 C1111 1.363 . S
C1114 N1112 1.356 . S
C1115 C1109 1.363 . S
C1115 C1110 1.379 . S
C1115 N1113 1.356 . S
N1116 C1108 1.356 . S
N1116 H1122 0.984 . S
N1116 H1123 0.984 1_554 S
N1117 C1110 1.356 . S
N1117 H1120 0.984 1_556 S
N1117 H1121 0.985 . S
H1118 N1113 0.984 . S
H1119 N1113 0.985 . S
H1120 N1117 0.984 1_554 S
H1121 N1117 0.985 . S
H1122 N1116 0.984 . S
H1123 N1116 0.984 1_556 S
H1124 N1112 0.984 . S
H1125 N1112 0.985 . S
C1126 C1127 1.363 . S
C1126 C1132 1.379 . S
C1126 N1134 1.356 . S
C1127 C1126 1.363 . S
C1127 C1133 1.363 . S
C1128 C1129 1.363 . S
C1128 C1133 1.379 . S
C1128 N1135 1.356 . S
C1129 C1128 1.363 . S
C1129 C1132 1.363 . S
N1130 C1132 1.356 . S
N1130 H1142 0.984 . S
N1130 H1143 0.985 . S
N1131 C1133 1.356 . S
N1131 H1136 0.984 . S
N1131 H1137 0.985 . S
C1132 C1126 1.379 . S
C1132 C1129 1.363 . S
C1132 N1130 1.356 . S
C1133 C1127 1.363 . S
C1133 C1128 1.379 . S
C1133 N1131 1.356 . S
N1134 C1126 1.356 . S
N1134 H1140 0.984 . S
N1134 H1141 0.984 . S
N1135 C1128 1.356 . S
N1135 H1138 0.984 . S
N1135 H1139 0.985 . S
H1136 N1131 0.984 . S
H1137 N1131 0.985 . S
H1138 N1135 0.984 . S
H1139 N1135 0.985 . S
H1140 N1134 0.984 . S
H1141 N1134 0.984 . S
H1142 N1130 0.984 . S
H1143 N1130 0.985 . S
C1144 C1145 1.363 . S
C1144 C1150 1.379 1_556 S
C1144 N1152 1.356 . S
C1145 C1144 1.363 . S
C1145 C1151 1.363 . S
C1146 C1147 1.363 . S
C1146 C1151 1.379 1_554 S
C1146 N1153 1.356 . S
C1147 C1146 1.363 . S
C1147 C1150 1.363 . S
N1148 C1150 1.356 . S
N1148 H1160 0.984 . S
N1148 H1161 0.985 . S
N1149 C1151 1.356 . S
N1149 H1154 0.984 . S
N1149 H1155 0.985 . S
C1150 C1144 1.379 1_554 S
C1150 C1147 1.363 . S
C1150 N1148 1.356 . S
C1151 C1145 1.363 . S
C1151 C1146 1.379 1_556 S
C1151 N1149 1.356 . S
N1152 C1144 1.356 . S
N1152 H1158 0.984 . S
N1152 H1159 0.984 . S
N1153 C1146 1.356 . S
N1153 H1156 0.984 . S
N1153 H1157 0.985 . S
H1154 N1149 0.984 . S
H1155 N1149 0.985 . S
H1156 N1153 0.984 . S
H1157 N1153 0.985 . S
H1158 N1152 0.984 . S
H1159 N1152 0.984 . S
H1160 N1148 0.984 . S
H1161 N1148 0.985 . S
C1162 C1163 1.363 . S
C1162 C1168 1.379 . S
C1162 N1170 1.356 . S
C1163 C1162 1.363 . S
C1163 C1169 1.363 . S
C1164 C1165 1.363 . S
C1164 C1169 1.379 . S
C1164 N1171 1.356 . S
C1165 C1164 1.363 . S
C1165 C1168 1.363 . S
N1166 C1168 1.356 . S
N1166 H1178 0.984 . S
N1166 H1179 0.985 . S
N1167 C1169 1.356 . S
N1167 H1172 0.984 . S
N1167 H1173 0.985 . S
C1168 C1162 1.379 . S
C1168 C1165 1.363 . S
C1168 N1166 1.356 . S
C1169 C1163 1.363 . S
C1169 C1164 1.379 . S
C1169 N1167 1.356 . S
N1170 C1162 1.356 . S
N1170 H1176 0.984 . S
N1170 H1177 0.984 . S
N1171 C1164 1.356 . S
N1171 H1174 0.984 . S
N1171 H1175 0.985 . S
H1172 N1167 0.984 . S
H1173 N1167 0.985 . S
H1174 N1171 0.984 . S
H1175 N1171 0.985 . S
H1176 N1170 0.984 . S
H1177 N1170 0.984 . S
H1178 N1166 0.984 . S
H1179 N1166 0.985 . S
C1180 C1181 1.363 1_554 S
C1180 C1186 1.379 . S
C1180 N1188 1.356 . S
C1181 C1180 1.363 1_556 S
C1181 C1187 1.363 . S
C1182 C1183 1.363 1_556 S
C1182 C1187 1.379 . S
C1182 N1189 1.356 . S
C1183 C1182 1.363 1_554 S
C1183 C1186 1.363 . S
N1184 C1186 1.356 . S
N1184 H1196 0.984 . S
N1184 H1197 0.985 . S
N1185 C1187 1.356 . S
N1185 H1190 0.984 . S
N1185 H1191 0.985 . S
C1186 C1180 1.379 . S
C1186 C1183 1.363 . S
C1186 N1184 1.356 . S
C1187 C1181 1.363 . S
C1187 C1182 1.379 . S
C1187 N1185 1.356 . S
N1188 C1180 1.356 . S
N1188 H1194 0.984 . S
N1188 H1195 0.984 1_554 S
N1189 C1182 1.356 . S
N1189 H1192 0.984 1_556 S
N1189 H1193 0.985 . S
H1190 N1185 0.984 . S
H1191 N1185 0.985 . S
H1192 N1189 0.984 1_554 S
H1193 N1189 0.985 . S
H1194 N1188 0.984 . S
H1195 N1188 0.984 1_556 S
H1196 N1184 0.984 . S
H1197 N1184 0.985 . S
C1198 C1199 1.363 . S
C1198 C1204 1.379 . S
C1198 N1206 1.356 . S
C1199 C1198 1.363 . S
C1199 C1205 1.363 . S
C1200 C1201 1.363 . S
C1200 C1205 1.379 . S
C1200 N1207 1.356 . S
C1201 C1200 1.363 . S
C1201 C1204 1.363 . S
N1202 C1204 1.356 . S
N1202 H1214 0.984 . S
N1202 H1215 0.985 . S
N1203 C1205 1.356 . S
N1203 H1208 0.984 . S
N1203 H1209 0.985 . S
C1204 C1198 1.379 . S
C1204 C1201 1.363 . S
C1204 N1202 1.356 . S
C1205 C1199 1.363 . S
C1205 C1200 1.379 . S
C1205 N1203 1.356 . S
N1206 C1198 1.356 . S
N1206 H1212 0.984 . S
N1206 H1213 0.984 . S
N1207 C1200 1.356 . S
N1207 H1210 0.984 . S
N1207 H1211 0.985 . S
H1208 N1203 0.984 . S
H1209 N1203 0.985 . S
H1210 N1207 0.984 . S
H1211 N1207 0.985 . S
H1212 N1206 0.984 . S
H1213 N1206 0.984 . S
H1214 N1202 0.984 . S
H1215 N1202 0.985 . S
C353 C8 1.643 . S
C355 C70 1.643 . S
C371 C52 1.643 . S
C373 C30 1.643 . S
C389 C158 1.643 . S
C391 C96 1.643 . S
C407 C114 1.643 . S
C409 C136 1.643 . S
C425 C246 1.643 . S
C427 C184 1.643 . S
C443 C228 1.643 . S
C445 C206 1.643 . S
C461 C272 1.643 . S
C463 C334 1.643 . S
C479 C312 1.643 . S
C481 C290 1.643 . S
C497 C5 1.507 . S
C499 C336 1.645 . S
C515 C27 1.507 . S
C517 C314 1.645 . S
C533 C292 1.645 . S
C535 C49 1.507 . S
C551 C271 1.645 . S
C553 C75 1.507 . S
C569 C94 1.507 . S
C571 C247 1.645 . S
C587 C117 1.507 . S
C589 C229 1.645 . S
C605 C207 1.645 . S
C607 C139 1.507 . S
C623 C185 1.645 . S
C625 C161 1.507 . S
C641 C181 1.507 . S
C643 C160 1.645 . S
C659 C203 1.507 . S
C661 C138 1.645 . S
C677 C225 1.507 . S
C679 C116 1.645 . S
C695 C251 1.507 . S
C697 C95 1.645 . S
C713 C71 1.645 . S
C715 C270 1.507 . S
C731 C53 1.645 . S
C733 C293 1.507 . S
C749 C315 1.507 . S
C751 C31 1.645 . S
C767 C337 1.507 . S
C769 C9 1.645 . S
C785 C6 1.447 . S
C787 C141 1.447 . S
C803 C28 1.447 . S
C805 C163 1.447 . S
C821 C93 1.447 . S
C823 C50 1.447 . S
C839 C73 1.447 . S
C841 C119 1.447 . S
C857 C182 1.447 . S
C859 C317 1.447 . S
C875 C204 1.447 . S
C877 C339 1.447 . S
C893 C226 1.447 . S
C895 C269 1.447 . S
C911 C295 1.447 . S
C913 C249 1.447 . S
C929 C4 1.516 . S
C931 C48 1.516 . S
C947 C26 1.516 . S
C949 C74 1.516 . S
C965 C140 1.516 . S
C967 C92 1.516 . S
C983 C118 1.516 . S
C985 C162 1.516 . S
C1001 C180 1.516 . S
C1003 C224 1.516 . S
C1019 C250 1.516 . S
C1021 C202 1.516 . S
C1037 C268 1.516 . S
C1039 C316 1.516 . S
C1055 C294 1.516 . S
C1057 C338 1.516 . S
C1073 C7 1.191 . S
C1075 C273 1.191 . S
C1091 C29 1.191 . S
C1093 C291 1.191 . S
C1109 C51 1.191 . S
C1111 C313 1.191 . S
C1127 C72 1.191 . S
C1129 C335 1.191 . S
C1145 C97 1.191 . S
C1147 C183 1.191 . S
C1163 C205 1.191 . S
C1165 C115 1.191 . S
C1181 C227 1.191 . S
C1183 C137 1.191 . S
C1199 C248 1.191 . S
C1201 C159 1.191 . S
