# Generated by pormake.
# Topology lcs, (4)-cn, num edge types: 1
# Building blocks:
#     Node 0, Type 0, BuildingBlock: QUQFOY_clean_sbu_3, # of connection points: 4
#     Node 1, Type 0, BuildingBlock: QUQFOY_clean_sbu_3, # of connection points: 4
#     Node 2, Type 0, BuildingBlock: QUQFOY_clean_sbu_3, # of connection points: 4
#     Node 3, Type 0, BuildingBlock: QUQFOY_clean_sbu_3, # of connection points: 4
#     Node 4, Type 0, BuildingBlock: QUQFOY_clean_sbu_3, # of connection points: 4
#     Node 5, Type 0, BuildingBlock: QUQFOY_clean_sbu_3, # of connection points: 4
#     Node 6, Type 0, BuildingBlock: QUQFOY_clean_sbu_3, # of connection points: 4
#     Node 7, Type 0, BuildingBlock: QUQFOY_clean_sbu_3, # of connection points: 4
#     Node 8, Type 0, BuildingBlock: QUQFOY_clean_sbu_3, # of connection points: 4
#     Node 9, Type 0, BuildingBlock: QUQFOY_clean_sbu_3, # of connection points: 4
#     Node 10, Type 0, BuildingBlock: QUQFOY_clean_sbu_3, # of connection points: 4
#     Node 11, Type 0, BuildingBlock: QUQFOY_clean_sbu_3, # of connection points: 4
#     Node 12, Type 0, BuildingBlock: QUQFOY_clean_sbu_3, # of connection points: 4
#     Node 13, Type 0, BuildingBlock: QUQFOY_clean_sbu_3, # of connection points: 4
#     Node 14, Type 0, BuildingBlock: QUQFOY_clean_sbu_3, # of connection points: 4
#     Node 15, Type 0, BuildingBlock: QUQFOY_clean_sbu_3, # of connection points: 4
#     Node 16, Type 0, BuildingBlock: QUQFOY_clean_sbu_3, # of connection points: 4
#     Node 17, Type 0, BuildingBlock: QUQFOY_clean_sbu_3, # of connection points: 4
#     Node 18, Type 0, BuildingBlock: QUQFOY_clean_sbu_3, # of connection points: 4
#     Node 19, Type 0, BuildingBlock: QUQFOY_clean_sbu_3, # of connection points: 4
#     Node 20, Type 0, BuildingBlock: QUQFOY_clean_sbu_3, # of connection points: 4
#     Node 21, Type 0, BuildingBlock: QUQFOY_clean_sbu_3, # of connection points: 4
#     Node 22, Type 0, BuildingBlock: QUQFOY_clean_sbu_3, # of connection points: 4
#     Node 23, Type 0, BuildingBlock: QUQFOY_clean_sbu_3, # of connection points: 4
#     Edge 24, Type (0, 0), BuildingBlock: MIFKUJ_clean_linker_0, # of connection points: 2
#     Edge 25, Type (0, 0), BuildingBlock: MIFKUJ_clean_linker_0, # of connection points: 2
#     Edge 26, Type (0, 0), BuildingBlock: MIFKUJ_clean_linker_0, # of connection points: 2
#     Edge 27, Type (0, 0), BuildingBlock: MIFKUJ_clean_linker_0, # of connection points: 2
#     Edge 28, Type (0, 0), BuildingBlock: MIFKUJ_clean_linker_0, # of connection points: 2
#     Edge 29, Type (0, 0), BuildingBlock: MIFKUJ_clean_linker_0, # of connection points: 2
#     Edge 30, Type (0, 0), BuildingBlock: MIFKUJ_clean_linker_0, # of connection points: 2
#     Edge 31, Type (0, 0), BuildingBlock: MIFKUJ_clean_linker_0, # of connection points: 2
#     Edge 32, Type (0, 0), BuildingBlock: MIFKUJ_clean_linker_0, # of connection points: 2
#     Edge 33, Type (0, 0), BuildingBlock: MIFKUJ_clean_linker_0, # of connection points: 2
#     Edge 34, Type (0, 0), BuildingBlock: MIFKUJ_clean_linker_0, # of connection points: 2
#     Edge 35, Type (0, 0), BuildingBlock: MIFKUJ_clean_linker_0, # of connection points: 2
#     Edge 36, Type (0, 0), BuildingBlock: MIFKUJ_clean_linker_0, # of connection points: 2
#     Edge 37, Type (0, 0), BuildingBlock: MIFKUJ_clean_linker_0, # of connection points: 2
#     Edge 38, Type (0, 0), BuildingBlock: MIFKUJ_clean_linker_0, # of connection points: 2
#     Edge 39, Type (0, 0), BuildingBlock: MIFKUJ_clean_linker_0, # of connection points: 2
#     Edge 40, Type (0, 0), BuildingBlock: MIFKUJ_clean_linker_0, # of connection points: 2
#     Edge 41, Type (0, 0), BuildingBlock: MIFKUJ_clean_linker_0, # of connection points: 2
#     Edge 42, Type (0, 0), BuildingBlock: MIFKUJ_clean_linker_0, # of connection points: 2
#     Edge 43, Type (0, 0), BuildingBlock: MIFKUJ_clean_linker_0, # of connection points: 2
#     Edge 44, Type (0, 0), BuildingBlock: MIFKUJ_clean_linker_0, # of connection points: 2
#     Edge 45, Type (0, 0), BuildingBlock: MIFKUJ_clean_linker_0, # of connection points: 2
#     Edge 46, Type (0, 0), BuildingBlock: MIFKUJ_clean_linker_0, # of connection points: 2
#     Edge 47, Type (0, 0), BuildingBlock: MIFKUJ_clean_linker_0, # of connection points: 2
#     Edge 48, Type (0, 0), BuildingBlock: MIFKUJ_clean_linker_0, # of connection points: 2
#     Edge 49, Type (0, 0), BuildingBlock: MIFKUJ_clean_linker_0, # of connection points: 2
#     Edge 50, Type (0, 0), BuildingBlock: MIFKUJ_clean_linker_0, # of connection points: 2
#     Edge 51, Type (0, 0), BuildingBlock: MIFKUJ_clean_linker_0, # of connection points: 2
#     Edge 52, Type (0, 0), BuildingBlock: MIFKUJ_clean_linker_0, # of connection points: 2
#     Edge 53, Type (0, 0), BuildingBlock: MIFKUJ_clean_linker_0, # of connection points: 2
#     Edge 54, Type (0, 0), BuildingBlock: MIFKUJ_clean_linker_0, # of connection points: 2
#     Edge 55, Type (0, 0), BuildingBlock: MIFKUJ_clean_linker_0, # of connection points: 2
#     Edge 56, Type (0, 0), BuildingBlock: MIFKUJ_clean_linker_0, # of connection points: 2
#     Edge 57, Type (0, 0), BuildingBlock: MIFKUJ_clean_linker_0, # of connection points: 2
#     Edge 58, Type (0, 0), BuildingBlock: MIFKUJ_clean_linker_0, # of connection points: 2
#     Edge 59, Type (0, 0), BuildingBlock: MIFKUJ_clean_linker_0, # of connection points: 2
#     Edge 60, Type (0, 0), BuildingBlock: MIFKUJ_clean_linker_0, # of connection points: 2
#     Edge 61, Type (0, 0), BuildingBlock: MIFKUJ_clean_linker_0, # of connection points: 2
#     Edge 62, Type (0, 0), BuildingBlock: MIFKUJ_clean_linker_0, # of connection points: 2
#     Edge 63, Type (0, 0), BuildingBlock: MIFKUJ_clean_linker_0, # of connection points: 2
#     Edge 64, Type (0, 0), BuildingBlock: MIFKUJ_clean_linker_0, # of connection points: 2
#     Edge 65, Type (0, 0), BuildingBlock: MIFKUJ_clean_linker_0, # of connection points: 2
#     Edge 66, Type (0, 0), BuildingBlock: MIFKUJ_clean_linker_0, # of connection points: 2
#     Edge 67, Type (0, 0), BuildingBlock: MIFKUJ_clean_linker_0, # of connection points: 2
#     Edge 68, Type (0, 0), BuildingBlock: MIFKUJ_clean_linker_0, # of connection points: 2
#     Edge 69, Type (0, 0), BuildingBlock: MIFKUJ_clean_linker_0, # of connection points: 2
#     Edge 70, Type (0, 0), BuildingBlock: MIFKUJ_clean_linker_0, # of connection points: 2
#     Edge 71, Type (0, 0), BuildingBlock: MIFKUJ_clean_linker_0, # of connection points: 2
# Relax obj value: 0.004
# Max RMSD: 0.036
# Mean RMSD: 0.028
data_MOF--net-lcs--node1-QUQFOY_clean_sbu_3--edge1-MIFKUJ_clean_linker_0
_symmetry_space_group_name_H-M    P1
_symmetry_Int_Tables_number       1
_symmetry_cell_setting            triclinic
loop_
_symmetry_equiv_pos_as_xyz
'x, y, z'
_cell_length_a     65.264268
_cell_length_b     66.319468
_cell_length_c     66.168074
_cell_angle_alpha  91.275244
_cell_angle_beta   90.357996
_cell_angle_gamma 91.166879
loop_
_atom_site_label
_atom_site_type_symbol
_atom_site_fract_x
_atom_site_fract_y
_atom_site_fract_z
_atom_type_partial_charge
C0 C 0.96314 0.24553 0.40759 0.0
O1 O 0.97015 0.23068 0.41706 0.0
Cd2 Cd 0.00092 0.21366 0.40811 0.0
O3 O 0.97247 0.25235 0.39223 0.0
Cd4 Cd 0.0037 0.24533 0.37236 0.0
C5 C 0.98732 0.19764 0.36024 0.0
O6 O 0.02536 0.23995 0.40164 0.0
O7 O 0.03926 0.23342 0.3729 0.0
O8 O 0.00505 0.28176 0.36783 0.0
C9 C 0.04111 0.23471 0.39196 0.0
O10 O -0.00779 0.19303 0.37819 0.0
C11 C 0.00947 0.28078 0.34918 0.0
O12 O 0.98864 0.21584 0.35455 0.0
O13 O 0.01087 0.26327 0.34121 0.0
C14 C 0.96553 0.75789 0.58387 0.0
O15 O 0.98172 0.7614 0.57392 0.0
Cd16 Cd 0.0149 0.75283 0.58589 0.0
O17 O 0.9664 0.74893 0.60069 0.0
Cd18 Cd -0.00727 0.73382 0.62273 0.0
C19 C 0.0156 0.77909 0.63121 0.0
O20 O 0.0134 0.71824 0.59619 0.0
O21 O 0.02725 0.72066 0.62585 0.0
O22 O 0.96711 0.70747 0.6291 0.0
C23 C 0.028 0.71377 0.60787 0.0
O24 O 0.02246 0.77724 0.61331 0.0
C25 C 0.97028 0.70707 0.64802 0.0
O26 O 0.00341 0.76587 0.63834 0.0
O27 O 0.98367 0.71939 0.6553 0.0
C28 C 0.46334 0.75015 0.91285 0.0
O29 O 0.47111 0.73604 0.92284 0.0
Cd30 Cd 0.50153 0.71876 0.91307 0.0
O31 O 0.47171 0.75607 0.89662 0.0
Cd32 Cd 0.50198 0.74808 0.87573 0.0
C33 C 0.48534 0.70013 0.86681 0.0
O34 O 0.52595 0.74419 0.90368 0.0
O35 O 0.53653 0.73433 0.87439 0.0
O36 O 0.5038 0.78416 0.86948 0.0
C37 C 0.54045 0.73753 0.89297 0.0
O38 O 0.49155 0.69648 0.88462 0.0
C39 C 0.50715 0.78224 0.85067 0.0
O40 O 0.48579 0.71803 0.86022 0.0
O41 O 0.50771 0.76438 0.84339 0.0
C42 C 0.46534 0.25919 0.08658 0.0
O43 O 0.48187 0.26246 0.07703 0.0
Cd44 Cd 0.51476 0.24993 0.08676 0.0
O45 O 0.46533 0.24885 0.10259 0.0
Cd46 Cd 0.48973 0.23088 0.1242 0.0
C47 C 0.51903 0.273 0.13356 0.0
O48 O 0.50838 0.21583 0.09601 0.0
O49 O 0.52016 0.21005 0.12579 0.0
O50 O 0.46053 0.20845 0.1305 0.0
C51 C 0.5215 0.20723 0.10687 0.0
O52 O 0.52589 0.27082 0.11569 0.0
C53 C 0.4642 0.20684 0.14925 0.0
O54 O 0.50476 0.26149 0.14001 0.0
O55 O 0.47947 0.21683 0.15646 0.0
C56 C 0.96017 0.73646 0.09201 0.0
O57 O 0.96487 0.75222 0.08234 0.0
Cd58 Cd -0.00682 0.7745 0.08971 0.0
O59 O 0.97078 0.73123 0.10722 0.0
Cd60 Cd 0.00177 0.74271 0.12682 0.0
C61 C 0.981 0.78816 0.13885 0.0
O62 O 0.01974 0.75172 0.09676 0.0
O63 O 0.0366 0.7582 0.12421 0.0
O64 O 0.00887 0.70711 0.13012 0.0
C65 C 0.03597 0.75858 0.10508 0.0
O66 O 0.98286 0.79248 0.12028 0.0
C67 C 0.01186 0.70785 0.1491 0.0
O68 O 0.98608 0.77097 0.14526 0.0
O69 O 0.00991 0.72492 0.15792 0.0
C70 C 0.46175 0.73153 0.40414 0.0
O71 O 0.47796 0.73067 0.41474 0.0
Cd72 Cd 0.51113 0.73791 0.40123 0.0
O73 O 0.46241 0.73787 0.38611 0.0
Cd74 Cd 0.48799 0.75248 0.36264 0.0
C75 C 0.50981 0.70734 0.35822 0.0
O76 O 0.5098 0.77071 0.38714 0.0
O77 O 0.52303 0.76529 0.35778 0.0
O78 O 0.4632 0.77842 0.35635 0.0
C79 C 0.52439 0.77396 0.37502 0.0
O80 O 0.51749 0.7115 0.37561 0.0
C81 C 0.46517 0.77818 0.33728 0.0
O82 O 0.49716 0.71913 0.35009 0.0
O83 O 0.47732 0.76535 0.32975 0.0
C84 C 0.46467 0.24012 0.59865 0.0
O85 O 0.47021 0.25544 0.58866 0.0
Cd86 Cd 0.50083 0.27525 0.59437 0.0
O87 O 0.47534 0.23421 0.61354 0.0
Cd88 Cd 0.50729 0.24336 0.63258 0.0
C89 C 0.49119 0.29108 0.64347 0.0
O90 O 0.52436 0.24958 0.60138 0.0
O91 O 0.54387 0.25317 0.62749 0.0
O92 O 0.50592 0.20731 0.63877 0.0
C93 C 0.54189 0.25408 0.60848 0.0
O94 O 0.49355 0.29494 0.62485 0.0
C95 C 0.51352 0.20872 0.65646 0.0
O96 O 0.49419 0.27345 0.65004 0.0
O97 O 0.51802 0.22634 0.66323 0.0
C98 C 0.96034 0.23004 0.90483 0.0
O99 O 0.97621 0.22864 0.91586 0.0
Cd100 Cd 0.00992 0.23748 0.90458 0.0
O101 O 0.96144 0.23777 0.88739 0.0
Cd102 Cd 0.98705 0.25468 0.86556 0.0
C103 C 0.01094 0.21036 0.85933 0.0
O104 O 0.00752 0.2708 0.89237 0.0
O105 O 0.02085 0.27136 0.8627 0.0
O106 O 0.96106 0.27972 0.86037 0.0
C107 C 0.02209 0.27657 0.88122 0.0
O108 O 0.01756 0.21331 0.87733 0.0
C109 C 0.96324 0.28064 0.84136 0.0
O110 O -0.00149 0.22253 0.8514 0.0
O111 O 0.97616 0.26888 0.83332 0.0
C112 C 0.3963 0.96021 0.25097 0.0
O113 O 0.40648 0.96957 0.2377 0.0
Cd114 Cd 0.39555 0.00062 0.2233 0.0
O115 O 0.37974 0.96741 0.25786 0.0
Cd116 Cd 0.35811 -0.00279 0.25361 0.0
C117 C 0.34871 0.9839 0.20489 0.0
O118 O 0.38462 0.02332 0.24945 0.0
O119 O 0.35385 0.03097 0.24074 0.0
O120 O 0.35481 0.0004 0.28997 0.0
C121 C 0.37237 0.03659 0.24346 0.0
O122 O 0.36663 -0.00905 0.20146 0.0
C123 C 0.33537 6e-05 0.29022 0.0
O124 O 0.34199 0.98274 0.22289 0.0
O125 O 0.32623 -0.00226 0.27328 0.0
C126 C 0.21506 0.15793 0.49704 0.0
O127 O 0.22292 0.16828 0.5116 0.0
Cd128 Cd 0.25009 0.15668 0.53229 0.0
O129 O 0.22208 0.14068 0.49223 0.0
Cd130 Cd 0.25021 0.11814 0.5024 0.0
C131 C 0.22917 0.11177 0.54846 0.0
O132 O 0.27538 0.14467 0.50929 0.0
O133 O 0.28387 0.11529 0.51928 0.0
O134 O 0.25762 0.11228 0.46692 0.0
C135 C 0.28883 0.13368 0.51702 0.0
O136 O 0.23482 0.12994 0.55239 0.0
C137 C 0.25589 0.0932 0.46719 0.0
O138 O 0.23215 0.10376 0.53108 0.0
O139 O 0.2512 0.08546 0.48398 0.0
C140 C 0.07374 0.02915 0.75588 0.0
O141 O 0.06295 0.02151 0.74149 0.0
Cd142 Cd 0.07209 -0.00765 0.7217 0.0
O143 O 0.09048 0.0211 0.76114 0.0
Cd144 Cd 0.11165 -0.00832 0.75182 0.0
C145 C 0.11883 0.00926 0.70438 0.0
O146 O 0.08317 0.96799 0.74527 0.0
O147 O 0.11339 0.95729 0.73829 0.0
O148 O 0.11851 0.98728 0.78764 0.0
C149 C 0.09429 0.95367 0.73914 0.0
O150 O 0.10014 0.00447 0.70079 0.0
C151 C 0.13786 0.98666 0.78597 0.0
O152 O 0.12671 0.0069 0.72182 0.0
O153 O 0.14514 0.98904 0.7684 0.0
C154 C 0.27691 0.83425 0.98847 0.0
O155 O 0.2681 0.82478 0.00258 0.0
Cd156 Cd 0.23699 0.83437 0.01884 0.0
O157 O 0.26924 0.85024 0.98154 0.0
Cd158 Cd 0.23873 0.87138 0.98734 0.0
C159 C 0.25235 0.88157 0.03622 0.0
O160 O 0.21477 0.8436 -0.0078 0.0
O161 O 0.2029 0.87301 -0.00126 0.0
O162 O 0.2369 0.87596 0.95098 0.0
C163 C 0.19971 0.85411 -0.00243 0.0
O164 O 0.24622 0.86371 0.04006 0.0
C165 C 0.2352 0.89499 0.95198 0.0
O166 O 0.25268 0.88782 0.01814 0.0
O167 O 0.2358 0.9032 0.96952 0.0
C168 C 0.27339 0.33285 0.01399 0.0
O169 O 0.25714 0.32298 0.01817 0.0
Cd170 Cd 0.22332 0.33322 0.00922 0.0
O171 O 0.27251 0.34913 0.00418 0.0
Cd172 Cd 0.24613 0.37029 0.98852 0.0
C173 C 0.22344 0.37951 0.03352 0.0
O174 O 0.22423 0.34293 0.97461 0.0
O175 O 0.21232 0.37299 0.97325 0.0
O176 O 0.27027 0.37565 0.9612 0.0
C177 C 0.21022 0.35442 0.96868 0.0
O178 O 0.21629 0.36152 0.03203 0.0
C179 C 0.26818 0.39462 0.96075 0.0
O180 O 0.23576 0.38633 0.02035 0.0
O181 O 0.25633 0.40243 0.97377 0.0
C182 C 0.76794 0.15351 0.97927 0.0
O183 O 0.75183 0.16359 0.97667 0.0
Cd184 Cd 0.71811 0.15095 0.98455 0.0
O185 O 0.76713 0.13647 0.98777 0.0
Cd186 Cd 0.74198 0.11393 0.00432 0.0
C187 C 0.71863 0.10478 0.95924 0.0
O188 O 0.71971 0.13958 0.01837 0.0
O189 O 0.70829 0.10882 0.01942 0.0
O190 O 0.76509 0.11089 0.03283 0.0
C191 C 0.7058 0.12729 0.02387 0.0
O192 O 0.71158 0.1225 0.96109 0.0
C193 C 0.76595 0.09178 0.03194 0.0
O194 O 0.73101 0.09805 0.97232 0.0
O195 O 0.75601 0.0828 0.01769 0.0
C196 C 0.15277 0.49588 0.28128 0.0
O197 O 0.16241 0.48055 0.27498 0.0
Cd198 Cd 0.15364 0.46246 0.24416 0.0
O199 O 0.13765 0.5024 0.27125 0.0
Cd200 Cd 0.1182 0.49472 0.23977 0.0
C201 C 0.10422 0.44807 0.25516 0.0
O202 O 0.14834 0.48773 0.21955 0.0
O203 O 0.11926 0.48115 0.20497 0.0
O204 O 0.11606 0.5311 0.23722 0.0
C205 C 0.13863 0.48218 0.20369 0.0
O206 O 0.12245 0.44294 0.25107 0.0
C207 C 0.09701 0.5313 0.23329 0.0
O208 O 0.09882 0.46635 0.25388 0.0
O209 O 0.08755 0.51435 0.23265 0.0
C210 C 0.77194 0.82916 0.51337 0.0
O211 O 0.75572 0.81931 0.51761 0.0
Cd212 Cd 0.72218 0.83047 0.50949 0.0
O213 O 0.77095 0.84567 0.50396 0.0
Cd214 Cd 0.7437 0.86675 0.48942 0.0
C215 C 0.72206 0.87618 0.53458 0.0
O216 O 0.72155 0.84008 0.47468 0.0
O217 O 0.7084 0.8696 0.47765 0.0
O218 O 0.76373 0.87248 0.45917 0.0
C219 C 0.70705 0.85174 0.4705 0.0
O220 O 0.71516 0.8581 0.5332 0.0
C221 C 0.76363 0.89159 0.46051 0.0
O222 O 0.73396 0.88318 0.52116 0.0
O223 O 0.75489 0.89929 0.47585 0.0
C224 C 0.82898 -0.00816 0.28255 0.0
O225 O 0.81911 0.00549 0.27377 0.0
Cd226 Cd 0.82984 0.0205 0.24257 0.0
O227 O 0.84516 0.98477 0.27468 0.0
Cd228 Cd 0.86646 0.98869 0.24428 0.0
C229 C 0.87791 0.03747 0.25703 0.0
O230 O 0.83883 -0.00643 0.21999 0.0
O231 O 0.86957 -0.00134 0.20911 0.0
O232 O 0.8697 0.95226 0.24218 0.0
C233 C 0.8505 -0.0022 0.20536 0.0
O234 O 0.85991 0.0416 0.25107 0.0
C235 C 0.88916 0.95244 0.24191 0.0
O236 O 0.88382 0.01929 0.25753 0.0
O237 O 0.89817 0.96959 0.24334 0.0
C238 C 0.2704 0.65559 0.48089 0.0
O239 O 0.25428 0.66588 0.47958 0.0
Cd240 Cd 0.22114 0.65225 0.48746 0.0
O241 O 0.26968 0.63785 0.4879 0.0
Cd242 Cd 0.24416 0.61454 0.50312 0.0
C243 C 0.22055 0.60856 0.45819 0.0
O244 O 0.2234 0.63934 0.52091 0.0
O245 O 0.20972 0.60965 0.5168 0.0
O246 O 0.27027 0.60792 0.52838 0.0
C247 C 0.20883 0.62715 0.52479 0.0
O248 O 0.21325 0.62597 0.46168 0.0
C249 C 0.26753 0.58892 0.52804 0.0
O250 O 0.23342 0.6011 0.47031 0.0
O251 O 0.25418 0.58168 0.5157 0.0
C252 C 0.33272 0.49204 0.78021 0.0
O253 O 0.32249 0.50606 0.77251 0.0
Cd254 Cd 0.33348 0.52216 0.74203 0.0
O255 O 0.34888 0.48584 0.77163 0.0
Cd256 Cd 0.3697 0.49228 0.74148 0.0
C257 C 0.3806 0.53969 0.75808 0.0
O258 O 0.34204 0.49683 0.71701 0.0
O259 O 0.37238 0.50625 0.70779 0.0
O260 O 0.37325 0.45597 0.73881 0.0
C261 C 0.35372 0.50303 0.7031 0.0
O262 O 0.36267 0.54393 0.75201 0.0
C263 C 0.39262 0.4563 0.73721 0.0
O264 O 0.38673 0.52159 0.75742 0.0
O265 O 0.40153 0.47352 0.7378 0.0
C266 C 0.65383 -0.00627 0.78046 0.0
O267 O 0.66332 0.97866 0.7733 0.0
Cd268 Cd 0.65395 0.96126 0.74215 0.0
O269 O 0.63836 0.00057 0.7712 0.0
Cd270 Cd 0.6178 -0.00618 0.74023 0.0
C271 C 0.60505 0.94615 0.75415 0.0
O272 O 0.64727 0.98731 0.71875 0.0
O273 O 0.6176 0.98288 0.70467 0.0
O274 O 0.61337 0.03026 0.73979 0.0
C275 C 0.63692 0.98289 0.70296 0.0
O276 O 0.6232 0.94121 0.74948 0.0
C277 C 0.59426 0.02927 0.73607 0.0
O278 O 0.59955 0.96444 0.75351 0.0
O279 O 0.58603 0.01177 0.73469 0.0
C280 C 0.71175 0.65357 -0.00407 0.0
O281 O 0.71995 0.66354 0.01056 0.0
Cd282 Cd 0.74841 0.65175 0.02948 0.0
O283 O 0.71852 0.63636 0.99059 0.0
Cd284 Cd 0.74584 0.61263 0.0 0.0
C285 C 0.72682 0.60767 0.04708 0.0
O286 O 0.7717 0.63913 0.00474 0.0
O287 O 0.78051 0.60968 0.01427 0.0
O288 O 0.74528 0.6059 0.96374 0.0
C289 C 0.78553 0.62796 0.01157 0.0
O290 O 0.73402 0.62541 0.05061 0.0
C291 C 0.74866 0.58719 0.96477 0.0
O292 O 0.72789 0.59958 0.02947 0.0
O293 O 0.75036 0.58001 0.98233 0.0
C294 C 0.89209 0.45989 0.7498 0.0
O295 O 0.90283 0.4678 0.73603 0.0
Cd296 Cd 0.89403 0.49869 0.72014 0.0
O297 O 0.87598 0.46844 0.75614 0.0
Cd298 Cd 0.85624 0.49911 0.74946 0.0
C299 C 0.84715 0.48342 0.70131 0.0
O300 O 0.88508 0.52288 0.74594 0.0
O301 O 0.85567 0.533 0.73574 0.0
O302 O 0.84986 0.50066 0.78573 0.0
C303 C 0.87439 0.53712 0.73939 0.0
O304 O 0.86535 0.48954 0.69763 0.0
C305 C 0.83085 0.50406 0.78413 0.0
O306 O 0.8403 0.48367 0.7193 0.0
O307 O 0.82351 0.50477 0.76634 0.0
C308 C 0.77872 0.33064 0.48602 0.0
O309 O 0.76995 0.32067 0.49981 0.0
Cd310 Cd 0.73838 0.32918 0.51572 0.0
O311 O 0.7708 0.34665 0.47941 0.0
Cd312 Cd 0.73984 0.36699 0.48548 0.0
C313 C 0.75222 0.37614 0.53482 0.0
O314 O 0.71658 0.33837 0.48868 0.0
O315 O 0.70381 0.36708 0.49644 0.0
O316 O 0.73898 0.37266 0.44929 0.0
C317 C 0.70111 0.34818 0.49423 0.0
O318 O 0.7463 0.35808 0.53806 0.0
C319 C 0.73636 0.39154 0.45079 0.0
O320 O 0.75294 0.38284 0.51692 0.0
O321 O 0.73598 0.39921 0.46855 0.0
C322 C 0.57195 0.52462 0.25723 0.0
O323 O 0.56132 0.51655 0.24298 0.0
Cd324 Cd 0.57244 0.48821 0.22306 0.0
O325 O 0.58916 0.51735 0.26213 0.0
Cd326 Cd 0.61122 0.48889 0.25207 0.0
C327 C 0.61791 0.50786 0.20553 0.0
O328 O 0.58455 0.46313 0.24554 0.0
O329 O 0.61482 0.45643 0.23468 0.0
O330 O 0.61816 0.48268 0.2875 0.0
C331 C 0.59651 0.45048 0.23749 0.0
O332 O 0.59969 0.50159 0.20169 0.0
C333 C 0.63755 0.4832 0.28599 0.0
O334 O 0.62564 0.50624 0.22313 0.0
O335 O 0.64481 0.48697 0.26868 0.0
H336 H 0.1053 0.4075 0.24818 0.0
H337 H 0.08282 0.3815 0.26223 0.0
H338 H 0.04791 0.42736 0.29277 0.0
H339 H 0.07016 0.45361 0.27842 0.0
H340 H 0.06344 0.39553 0.31779 0.0
H341 H 0.02461 0.40404 0.25714 0.0
H342 H 0.01941 0.40686 0.22039 0.0
H343 H 0.04164 0.34691 0.21096 0.0
H344 H 0.04727 0.34383 0.24765 0.0
H345 H 0.00032 0.31965 0.35949 0.0
H346 H 0.01032 0.35024 0.34174 0.0
H347 H 0.03946 0.31398 0.29564 0.0
H348 H 0.02873 0.28337 0.31286 0.0
H349 H 0.02233 0.34424 0.27866 0.0
H350 H 0.06649 0.33698 0.33656 0.0
H351 H 0.07469 0.33323 0.3727 0.0
H352 H 0.046 0.38952 0.38662 0.0
H353 H 0.03741 0.39348 0.35056 0.0
C354 C 0.09269 0.41208 0.25769 0.0
C355 C 0.08952 0.43258 0.26227 0.0
C356 C 0.07981 0.39722 0.26561 0.0
C357 C 0.0637 0.40256 0.27845 0.0
C358 C 0.06024 0.423 0.2828 0.0
C359 C 0.07291 0.43794 0.27457 0.0
C360 C 0.05161 0.38659 0.28844 0.0
C361 C 0.05403 0.38456 0.30935 0.0
C362 C 0.03992 0.37201 0.27724 0.0
C363 C 0.03651 0.37377 0.25516 0.0
C364 C 0.02856 0.39152 0.24722 0.0
C365 C 0.0255 0.39315 0.2264 0.0
C366 C 0.03023 0.37709 0.21334 0.0
C367 C 0.03799 0.35934 0.22109 0.0
C368 C 0.0411 0.35764 0.24191 0.0
C369 C 0.00866 0.31822 0.34545 0.0
C370 C 0.01392 0.29915 0.33765 0.0
C371 C 0.01443 0.33571 0.33536 0.0
C372 C 0.02603 0.33446 0.31757 0.0
C373 C 0.03056 0.31536 0.30935 0.0
C374 C 0.02447 0.29787 0.31924 0.0
C375 C 0.03441 0.35292 0.30805 0.0
C376 C 0.03139 0.35539 0.28721 0.0
C377 C 0.04593 0.36774 0.31924 0.0
C378 C 0.05109 0.3654 0.34091 0.0
C379 C 0.0618 0.34848 0.34735 0.0
C380 C 0.06654 0.34633 0.36782 0.0
C381 C 0.06081 0.3611 0.38196 0.0
C382 C 0.05039 0.37808 0.37565 0.0
C383 C 0.04559 0.38028 0.35521 0.0
H384 H 0.06449 0.35941 0.39779 0.0
H385 H 0.02785 0.37838 0.19723 0.0
H386 H 0.95881 0.78354 0.5529 0.0
H387 H 0.92593 0.79528 0.54041 0.0
H388 H 0.89429 0.75924 0.5843 0.0
H389 H 0.92716 0.74746 0.59704 0.0
H390 H 0.87745 0.75611 0.5446 0.0
H391 H 0.89881 0.80717 0.59369 0.0
H392 H 0.92281 0.83234 0.60913 0.0
H393 H 0.92349 0.86538 0.55405 0.0
H394 H 0.89971 0.84023 0.53818 0.0
H395 H 0.7793 0.79837 0.53897 0.0
H396 H 0.81239 0.78603 0.54994 0.0
H397 H 0.84322 0.82977 0.51287 0.0
H398 H 0.81008 0.84264 0.50224 0.0
H399 H 0.86105 0.82883 0.54839 0.0
H400 H 0.8398 0.77895 0.49901 0.0
H401 H 0.81655 0.7538 0.48246 0.0
H402 H 0.81648 0.71854 0.5361 0.0
H403 H 0.83953 0.74362 0.55308 0.0
C404 C 0.94487 0.77804 0.55988 0.0
C405 C 0.94559 0.7646 0.57601 0.0
C406 C 0.92612 0.78482 0.55276 0.0
C407 C 0.90776 0.77821 0.56154 0.0
C408 C 0.90835 0.76451 0.57737 0.0
C409 C 0.92712 0.75787 0.58466 0.0
C410 C 0.88793 0.78576 0.55429 0.0
C411 C 0.8737 0.77196 0.54563 0.0
C412 C 0.88342 0.80652 0.55514 0.0
C413 C 0.89765 0.8217 0.56468 0.0
C414 C 0.90422 0.81971 0.58481 0.0
C415 C 0.91776 0.83399 0.59365 0.0
C416 C 0.92472 0.85042 0.58256 0.0
C417 C 0.91811 0.85263 0.56262 0.0
C418 C 0.90459 0.83838 0.5537 0.0
C419 C 0.7931 0.80534 0.53307 0.0
C420 C 0.79205 0.82146 0.51967 0.0
C421 C 0.81203 0.79819 0.53929 0.0
C422 C 0.8303 0.80676 0.53198 0.0
C423 C 0.82932 0.8229 0.51866 0.0
C424 C 0.81037 0.83021 0.51257 0.0
C425 C 0.8504 0.79918 0.53867 0.0
C426 C 0.86474 0.81297 0.54725 0.0
C427 C 0.85509 0.77842 0.53755 0.0
C428 C 0.84125 0.76327 0.52738 0.0
C429 C 0.83471 0.76591 0.50733 0.0
C430 C 0.82158 0.75166 0.49786 0.0
C431 C 0.815 0.73461 0.50824 0.0
C432 C 0.82157 0.73176 0.52809 0.0
C433 C 0.83468 0.74598 0.53763 0.0
H434 H 0.80484 0.72359 0.50088 0.0
H435 H 0.93519 0.86146 0.58943 0.0
H436 H 0.41508 0.53568 0.78121 0.0
H437 H 0.43563 0.56262 0.79779 0.0
H438 H 0.39722 0.60718 0.7712 0.0
H439 H 0.37644 0.58038 0.75471 0.0
H440 H 0.44068 0.61644 0.77025 0.0
H441 H 0.38744 0.59593 0.81665 0.0
H442 H 0.36782 0.57109 0.83635 0.0
H443 H 0.42279 0.55481 0.86747 0.0
H444 H 0.44279 0.57936 0.84772 0.0
H445 H 0.46148 0.70258 0.83287 0.0
H446 H 0.44646 0.67474 0.81264 0.0
H447 H 0.47614 0.63203 0.8508 0.0
H448 H 0.49056 0.65979 0.87155 0.0
H449 H 0.43876 0.62059 0.84519 0.0
H450 H 0.4922 0.64179 0.80108 0.0
H451 H 0.51292 0.66562 0.78122 0.0
H452 H 0.45999 0.67942 0.74564 0.0
H453 H 0.43888 0.65587 0.76546 0.0
C454 C 0.41112 0.55121 0.77871 0.0
C455 C 0.39404 0.55591 0.76678 0.0
C456 C 0.42286 0.56655 0.78821 0.0
C457 C 0.41782 0.58682 0.78577 0.0
C458 C 0.40132 0.5916 0.77322 0.0
C459 C 0.38942 0.57628 0.76392 0.0
C460 C 0.42898 0.60299 0.79724 0.0
C461 C 0.44019 0.61752 0.78663 0.0
C462 C 0.42868 0.60396 0.81859 0.0
C463 C 0.41664 0.58931 0.83056 0.0
C464 C 0.39537 0.58692 0.82757 0.0
C465 C 0.38417 0.57293 0.83877 0.0
C466 C 0.39406 0.56134 0.85311 0.0
C467 C 0.41516 0.56377 0.85633 0.0
C468 C 0.42643 0.57773 0.84515 0.0
C469 C 0.46493 0.68726 0.83686 0.0
C470 C 0.47716 0.68337 0.85384 0.0
C471 C 0.45643 0.67134 0.8252 0.0
C472 C 0.46037 0.65125 0.83002 0.0
C473 C 0.47286 0.64738 0.84679 0.0
C474 C 0.4811 0.66327 0.85863 0.0
C475 C 0.45062 0.63427 0.81827 0.0
C476 C 0.43954 0.61954 0.82882 0.0
C477 C 0.45127 0.63302 0.79687 0.0
C478 C 0.46392 0.64719 0.78489 0.0
C479 C 0.48494 0.65002 0.78912 0.0
C480 C 0.49676 0.66346 0.77785 0.0
C481 C 0.48777 0.67407 0.76221 0.0
C482 C 0.46694 0.67121 0.75777 0.0
C483 C 0.45504 0.6578 0.76901 0.0
H484 H 0.49695 0.68447 0.75351 0.0
H485 H 0.38536 0.55051 0.86176 0.0
H486 H 0.54495 0.17887 0.12434 0.0
H487 H 0.57534 0.16292 0.11031 0.0
H488 H 0.56859 0.19683 0.05578 0.0
H489 H 0.53755 0.21192 0.06933 0.0
H490 H 0.58038 0.16186 0.04561 0.0
H491 H 0.60358 0.21068 0.09546 0.0
H492 H 0.60563 0.22751 0.12904 0.0
H493 H 0.62688 0.17291 0.15501 0.0
H494 H 0.6247 0.15567 0.12161 0.0
H495 H 0.6914 0.1656 0.02507 0.0
H496 H 0.65908 0.17702 0.03959 0.0
H497 H 0.64516 0.11663 0.05881 0.0
H498 H 0.67721 0.1049 0.04386 0.0
H499 H 0.64432 0.16373 0.0867 0.0
H500 H 0.61559 0.11523 0.03348 0.0
H501 H 0.61578 0.10253 -0.00188 0.0
H502 H 0.60776 0.1627 0.97715 0.0
H503 H 0.60783 0.17574 0.01241 0.0
C504 C 0.54989 0.18276 0.10928 0.0
C505 C 0.53903 0.19669 0.09794 0.0
C506 C 0.56732 0.17375 0.10133 0.0
C507 C 0.57457 0.17902 0.08217 0.0
C508 C 0.56335 0.19253 0.07061 0.0
C509 C 0.54564 0.20118 0.07837 0.0
C510 C 0.59405 0.17084 0.07432 0.0
C511 C 0.59429 0.16233 0.05468 0.0
C512 C 0.61238 0.17149 0.08599 0.0
C513 C 0.61377 0.18183 0.10608 0.0
C514 C 0.60855 0.20223 0.10836 0.0
C515 C 0.60976 0.21184 0.12736 0.0
C516 C 0.61633 0.20127 0.14416 0.0
C517 C 0.62176 0.18107 0.14199 0.0
C518 C 0.62056 0.17137 0.12303 0.0
C519 C 0.68148 0.15475 0.03242 0.0
C520 C 0.68675 0.13435 0.03329 0.0
C521 C 0.66307 0.16129 0.04065 0.0
C522 C 0.64981 0.14758 0.05005 0.0
C523 C 0.6552 0.12732 0.0514 0.0
C524 C 0.67347 0.12068 0.04288 0.0
C525 C 0.63028 0.15456 0.05841 0.0
C526 C 0.63019 0.16304 0.07796 0.0
C527 C 0.61223 0.1543 0.04658 0.0
C528 C 0.61196 0.14645 0.02549 0.0
C529 C 0.61407 0.12574 0.0213 0.0
C530 C 0.61408 0.11849 0.0013 0.0
C531 C 0.61185 0.13181 0.98539 0.0
C532 C 0.60953 0.15241 0.98947 0.0
C533 C 0.60954 0.15973 0.00945 0.0
H534 H 0.61186 0.12617 0.96992 0.0
H535 H 0.61725 0.20875 0.15886 0.0
H536 H 0.11359 0.56935 0.2347 0.0
H537 H 0.0976 0.60047 0.22438 0.0
H538 H 0.0414 0.56747 0.21063 0.0
H539 H 0.05723 0.53623 0.22122 0.0
H540 H 0.08431 0.60875 0.18777 0.0
H541 H 0.00092 0.59945 0.21645 0.0
H542 H 0.98245 0.58446 0.24505 0.0
H543 H 0.03655 0.59087 0.28209 0.0
H544 H 0.05525 0.60615 0.25381 0.0
H545 H 0.01868 0.67026 0.13341 0.0
H546 H 0.03155 0.64111 0.15105 0.0
H547 H 0.03233 0.67533 0.20725 0.0
H548 H 0.01932 0.70468 0.18969 0.0
H549 H 0.01808 0.63562 0.21163 0.0
H550 H 0.07555 0.67088 0.18321 0.0
H551 H 0.09514 0.68729 0.15616 0.0
H552 H 0.09546 0.63143 0.12208 0.0
H553 H 0.0756 0.61476 0.14882 0.0
C554 C 0.09774 0.56873 0.22972 0.0
C555 C 0.08669 0.55031 0.22869 0.0
C556 C 0.08864 0.58653 0.22379 0.0
C557 C 0.06831 0.58631 0.21678 0.0
C558 C 0.05704 0.56804 0.21624 0.0
C559 C 0.06613 0.55019 0.22221 0.0
C560 C 0.05945 0.60494 0.20872 0.0
C561 C 0.06986 0.61462 0.19306 0.0
C562 C 0.0407 0.61275 0.21575 0.0
C563 C 0.02953 0.60377 0.23293 0.0
C564 C 0.00885 0.59773 0.23072 0.0
C565 C -0.00165 0.58917 0.24687 0.0
C566 C 0.00834 0.58666 0.26536 0.0
C567 C 0.02885 0.59276 0.26774 0.0
C568 C 0.03942 0.60134 0.25164 0.0
C569 C 0.02141 0.67157 0.14956 0.0
C570 C 0.01815 0.68983 0.16014 0.0
C571 C 0.02878 0.6549 0.1596 0.0
C572 C 0.03309 0.65617 0.18039 0.0
C573 C 0.0291 0.67409 0.19118 0.0
C574 C 0.02176 0.69084 0.18112 0.0
C575 C 0.04281 0.63909 0.19052 0.0
C576 C 0.03256 0.62971 0.20647 0.0
C577 C 0.06188 0.63168 0.18399 0.0
C578 C 0.07394 0.64162 0.16794 0.0
C579 C 0.07967 0.66214 0.16988 0.0
C580 C 0.09084 0.67148 0.15461 0.0
C581 C 0.0965 0.66042 0.13739 0.0
C582 C 0.09104 0.63998 0.13542 0.0
C583 C 0.07985 0.63058 0.15064 0.0
H584 H 0.10515 0.66768 0.12559 0.0
H585 H 0.00019 0.58002 0.27784 0.0
H586 H 0.56275 0.76995 0.35957 0.0
H587 H 0.59477 0.78489 0.37319 0.0
H588 H 0.56086 0.81673 0.41912 0.0
H589 H 0.52881 0.80139 0.406 0.0
H590 H 0.59645 0.83893 0.395 0.0
H591 H 0.57772 0.78095 0.43668 0.0
H592 H 0.56774 0.74516 0.44042 0.0
H593 H 0.62234 0.72717 0.40956 0.0
H594 H 0.63245 0.7629 0.40536 0.0
H595 H 0.66953 0.86889 0.46893 0.0
H596 H 0.63939 0.85678 0.44993 0.0
H597 H 0.67388 0.80692 0.42586 0.0
H598 H 0.7038 0.81848 0.44568 0.0
H599 H 0.63884 0.79354 0.43589 0.0
H600 H 0.66081 0.84914 0.39706 0.0
H601 H 0.67206 0.88404 0.39031 0.0
H602 H 0.61422 0.90592 0.41101 0.0
H603 H 0.60271 0.87116 0.41819 0.0
C604 C 0.56211 0.78033 0.37241 0.0
C605 C 0.54337 0.78445 0.38184 0.0
C606 C 0.58036 0.78883 0.38013 0.0
C607 C 0.58003 0.80185 0.39709 0.0
C608 C 0.56129 0.80674 0.40596 0.0
C609 C 0.54308 0.79791 0.39853 0.0
C610 C 0.59937 0.80908 0.40657 0.0
C611 C 0.60571 0.82916 0.40411 0.0
C612 C 0.61165 0.796 0.41774 0.0
C613 C 0.6057 0.77456 0.42049 0.0
C614 C 0.58748 0.76936 0.43052 0.0
C615 C 0.58183 0.74909 0.43276 0.0
C616 C 0.59437 0.7339 0.42517 0.0
C617 C 0.61262 0.73895 0.41539 0.0
C618 C 0.61832 0.7592 0.41309 0.0
C619 C 0.67068 0.85537 0.45955 0.0
C620 C 0.68897 0.84461 0.45875 0.0
C621 C 0.65349 0.84854 0.44856 0.0
C622 C 0.65444 0.83114 0.43614 0.0
C623 C 0.67277 0.8204 0.43531 0.0
C624 C 0.68985 0.82701 0.44661 0.0
C625 C 0.63608 0.8237 0.42468 0.0
C626 C 0.62983 0.80346 0.42671 0.0
C627 C 0.62416 0.83659 0.41272 0.0
C628 C 0.63096 0.85754 0.40833 0.0
C629 C 0.65053 0.8614 0.40032 0.0
C630 C 0.65695 0.88116 0.39639 0.0
C631 C 0.64388 0.89719 0.40027 0.0
C632 C 0.62433 0.89349 0.40803 0.0
C633 C 0.61785 0.87375 0.41202 0.0
H634 H 0.64888 0.91248 0.39722 0.0
H635 H 0.58997 0.71821 0.42692 0.0
H636 H 0.48226 0.28871 0.68394 0.0
H637 H 0.46657 0.31471 0.70542 0.0
H638 H 0.46746 0.35559 0.65565 0.0
H639 H 0.48301 0.32996 0.63417 0.0
H640 H 0.47772 0.35575 0.7165 0.0
H641 H 0.4205 0.37604 0.65336 0.0
H642 H 0.40317 0.35961 0.62392 0.0
H643 H 0.40741 0.30203 0.6519 0.0
H644 H 0.42448 0.31815 0.68162 0.0
H645 H 0.43341 0.45246 0.72895 0.0
H646 H 0.45107 0.4216 0.71918 0.0
H647 H 0.39527 0.38692 0.72779 0.0
H648 H 0.37745 0.41771 0.73724 0.0
H649 H 0.41045 0.37923 0.69197 0.0
H650 H 0.43664 0.38162 0.7592 0.0
H651 H 0.45323 0.39675 0.78965 0.0
H652 H 0.50879 0.40647 0.75652 0.0
H653 H 0.49244 0.39166 0.72577 0.0
C654 C 0.47934 0.30332 0.67765 0.0
C655 C 0.48367 0.30716 0.65726 0.0
C656 C 0.47045 0.31815 0.68996 0.0
C657 C 0.46567 0.33692 0.682 0.0
C658 C 0.47085 0.34109 0.66198 0.0
C659 C 0.47974 0.32638 0.64973 0.0
C660 C 0.45399 0.35181 0.69394 0.0
C661 C 0.46296 0.36087 0.71128 0.0
C662 C 0.43455 0.35808 0.68729 0.0
C663 C 0.42392 0.3483 0.66964 0.0
C664 C 0.41763 0.35989 0.65327 0.0
C665 C 0.40787 0.35063 0.63653 0.0
C666 C 0.40424 0.32979 0.63602 0.0
C667 C 0.41029 0.31817 0.65228 0.0
C668 C 0.42003 0.32735 0.66907 0.0
C669 C 0.42499 0.43822 0.72907 0.0
C670 C 0.404 0.43753 0.73368 0.0
C671 C 0.43513 0.42057 0.7236 0.0
C672 C 0.4245 0.40194 0.72283 0.0
C673 C 0.40376 0.40114 0.72826 0.0
C674 C 0.3936 0.41875 0.73365 0.0
C675 C 0.43437 0.38372 0.71434 0.0
C676 C 0.42507 0.37403 0.69749 0.0
C677 C 0.45333 0.37675 0.72167 0.0
C678 C 0.46325 0.38565 0.74013 0.0
C679 C 0.45234 0.38712 0.75836 0.0
C680 C 0.46172 0.39562 0.77568 0.0
C681 C 0.48204 0.4026 0.77501 0.0
C682 C 0.49304 0.40106 0.75701 0.0
C683 C 0.48374 0.39259 0.73964 0.0
H684 H 0.48927 0.40917 0.78844 0.0
H685 H 0.39671 0.32265 0.62303 0.0
H686 H 0.94815 0.22686 0.94396 0.0
H687 H 0.91524 0.21412 0.95623 0.0
H688 H 0.89511 0.20243 0.89471 0.0
H689 H 0.92758 0.21628 0.88239 0.0
H690 H 0.86515 0.21608 0.91378 0.0
H691 H 0.9121 0.16406 0.92756 0.0
H692 H 0.94342 0.14888 0.94097 0.0
H693 H 0.92617 0.16599 0.00138 0.0
H694 H 0.89486 0.18151 0.9883 0.0
H695 H 0.80123 0.13189 0.96827 0.0
H696 H 0.83356 0.14462 0.95466 0.0
H697 H 0.81222 0.20563 0.96117 0.0
H698 H 0.7794 0.19281 0.9737 0.0
H699 H 0.86293 0.16577 0.96811 0.0
H700 H 0.83286 0.23607 0.92696 0.0
H701 H 0.80162 0.24673 0.90929 0.0
H702 H 0.78517 0.18482 0.89594 0.0
H703 H 0.81643 0.17381 0.91329 0.0
C704 C 0.93667 0.2216 0.93308 0.0
C705 C 0.94042 0.22247 0.91224 0.0
C706 C 0.9179 0.2142 0.9401 0.0
C707 C 0.90279 0.2069 0.92643 0.0
C708 C 0.90649 0.20796 0.90558 0.0
C709 C 0.92506 0.21583 0.89854 0.0
C710 C 0.88312 0.19823 0.93384 0.0
C711 C 0.86469 0.20504 0.92563 0.0
C712 C 0.88243 0.18346 0.94897 0.0
C713 C 0.90123 0.17411 0.95692 0.0
C714 C 0.91506 0.16471 0.94369 0.0
C715 C 0.9328 0.15602 0.95123 0.0
C716 C 0.93681 0.15651 0.97201 0.0
C717 C 0.92306 0.16564 0.98529 0.0
C718 C 0.9053 0.17437 0.97782 0.0
C719 C 0.80344 0.14801 0.96676 0.0
C720 C 0.78778 0.16136 0.9719 0.0
C721 C 0.82194 0.15529 0.95901 0.0
C722 C 0.82528 0.17609 0.95657 0.0
C723 C 0.80985 0.18949 0.96235 0.0
C724 C 0.79114 0.18217 0.96963 0.0
C725 C 0.84495 0.18368 0.94811 0.0
C726 C 0.86339 0.17674 0.9562 0.0
C727 C 0.84565 0.19765 0.93222 0.0
C728 C 0.82688 0.20413 0.92162 0.0
C729 C 0.8226 0.22475 0.9202 0.0
C730 C 0.80489 0.23084 0.91025 0.0
C731 C 0.79138 0.21646 0.90156 0.0
C732 C 0.7956 0.19594 0.90274 0.0
C733 C 0.8133 0.18977 0.91265 0.0
H734 H 0.77767 0.22121 0.89388 0.0
H735 H 0.95055 0.14978 0.97782 0.0
H736 H 0.24891 0.05254 0.46125 0.0
H737 H 0.25722 0.03208 0.4312 0.0
H738 H 0.28104 0.08527 0.40229 0.0
H739 H 0.27214 0.10575 0.43179 0.0
H740 H 0.26117 0.06362 0.37577 0.0
H741 H 0.31232 0.05039 0.42682 0.0
H742 H 0.32451 0.03933 0.46008 0.0
H743 H 0.29744 0.98056 0.44879 0.0
H744 H 0.28489 -0.00863 0.41554 0.0
H745 H 0.35157 0.00998 0.32718 0.0
H746 H 0.33337 0.02073 0.35741 0.0
H747 H 0.27553 0.00905 0.32694 0.0
H748 H 0.29378 -0.00112 0.29622 0.0
H749 H 0.30766 0.00594 0.3831 0.0
H750 H 0.24176 0.04471 0.34217 0.0
H751 H 0.234 0.0593 0.30905 0.0
H752 H 0.29793 0.07281 0.30038 0.0
H753 H 0.30601 0.05852 0.33353 0.0
C754 C 0.25577 0.05984 0.4484 0.0
C755 C 0.25996 0.08073 0.44891 0.0
C756 C 0.26057 0.04814 0.43127 0.0
C757 C 0.26998 0.05708 0.41454 0.0
C758 C 0.27372 0.078 0.41494 0.0
C759 C 0.2687 0.08971 0.43188 0.0
C760 C 0.27677 0.04482 0.39684 0.0
C761 C 0.27116 0.05087 0.37741 0.0
C762 C 0.28993 0.02826 0.39888 0.0
C763 C 0.29745 0.02176 0.41884 0.0
C764 C 0.30884 0.03516 0.43151 0.0
C765 C 0.31583 0.02893 0.45034 0.0
C766 C 0.31169 0.00928 0.45657 0.0
C767 C 0.30059 -0.00421 0.44396 0.0
C768 C 0.29354 0.00196 0.42512 0.0
C769 C 0.33497 0.00946 0.32693 0.0
C770 C 0.32411 0.00382 0.30922 0.0
C771 C 0.32456 0.01553 0.3443 0.0
C772 C 0.30307 0.01599 0.34439 0.0
C773 C 0.29213 0.00917 0.32711 0.0
C774 C 0.30257 0.00329 0.30959 0.0
C775 C 0.2925 0.02511 0.36207 0.0
C776 C 0.2973 0.0184 0.38149 0.0
C777 C 0.27917 0.04153 0.36004 0.0
C778 C 0.27448 0.0503 0.34017 0.0
C779 C 0.25413 0.05082 0.33319 0.0
C780 C 0.24969 0.05904 0.31442 0.0
C781 C 0.26547 0.0669 0.30258 0.0
C782 C 0.28573 0.06664 0.30952 0.0
C783 C 0.29025 0.05847 0.32828 0.0
H784 H 0.262 0.07324 0.28805 0.0
H785 H 0.31712 0.00448 0.47115 0.0
H786 H 0.16067 0.01139 0.7015 0.0
H787 H 0.1809 0.02656 0.67454 0.0
H788 H 0.12518 0.04309 0.64414 0.0
H789 H 0.10499 0.0272 0.67046 0.0
H790 H 0.15017 0.03089 0.61744 0.0
H791 H 0.1555 0.07739 0.67402 0.0
H792 H 0.16329 0.08815 0.70921 0.0
H793 H 0.22614 0.07192 0.70128 0.0
H794 H 0.21865 0.06082 0.66611 0.0
H795 H 0.21057 0.12633 0.58233 0.0
H796 H 0.19296 0.10722 0.60829 0.0
H797 H 0.2076 0.05158 0.57703 0.0
H798 H 0.22454 0.07074 0.55048 0.0
H799 H 0.20431 0.08213 0.63451 0.0
H800 H 0.17101 0.01593 0.58524 0.0
H801 H 0.15943 0.00905 0.55014 0.0
H802 H 0.14582 0.07164 0.54348 0.0
H803 H 0.15708 0.07883 0.5786 0.0
C804 C 0.15277 0.01822 0.68902 0.0
C805 C 0.13125 0.01817 0.68813 0.0
C806 C 0.16434 0.02694 0.67366 0.0
C807 C 0.15458 0.03624 0.65742 0.0
C808 C 0.13309 0.03596 0.65644 0.0
C809 C 0.12155 0.02693 0.67156 0.0
C810 C 0.1666 0.04661 0.64158 0.0
C811 C 0.16206 0.04204 0.62119 0.0
C812 C 0.18191 0.06139 0.6464 0.0
C813 C 0.18646 0.06808 0.66752 0.0
C814 C 0.17095 0.07599 0.67984 0.0
C815 C 0.17531 0.08216 0.69977 0.0
C816 C 0.19518 0.08066 0.70749 0.0
C817 C 0.21074 0.07303 0.69529 0.0
C818 C 0.20645 0.06681 0.67535 0.0
C819 C 0.21002 0.11002 0.58095 0.0
C820 C 0.21883 0.10003 0.5643 0.0
C821 C 0.2 0.0991 0.59586 0.0
C822 C 0.19877 0.07796 0.59457 0.0
C823 C 0.20797 0.0679 0.57816 0.0
C824 C 0.2177 0.07885 0.56303 0.0
C825 C 0.18769 0.06661 0.61037 0.0
C826 C 0.19251 0.07088 0.63075 0.0
C827 C 0.17208 0.05212 0.60555 0.0
C828 C 0.16512 0.04793 0.58446 0.0
C829 C 0.1655 0.0282 0.57629 0.0
C830 C 0.15899 0.02426 0.55639 0.0
C831 C 0.15197 0.03991 0.54456 0.0
C832 C 0.15135 0.05954 0.55263 0.0
C833 C 0.15781 0.06356 0.57252 0.0
H834 H 0.14695 0.03683 0.52916 0.0
H835 H 0.19853 0.08546 0.72293 0.0
H836 H 0.17945 0.98191 0.78646 0.0
H837 H 0.20023 0.96901 0.81412 0.0
H838 H 0.1469 0.96726 0.85224 0.0
H839 H 0.12603 0.97998 0.82474 0.0
H840 H 0.20908 0.98048 0.85439 0.0
H841 H 0.1462 0.92213 0.87527 0.0
H842 H 0.117 0.90372 0.85909 0.0
H843 H 0.14612 0.90801 0.80128 0.0
H844 H 0.17561 0.92617 0.81716 0.0
H845 H 0.22602 0.93497 0.94993 0.0
H846 H 0.21432 0.95291 0.92024 0.0
H847 H 0.22309 0.8995 0.88313 0.0
H848 H 0.23446 0.88139 0.91277 0.0
H849 H 0.18608 0.9132 0.87784 0.0
H850 H 0.25373 0.94179 0.87811 0.0
H851 H 0.28438 0.95918 0.89257 0.0
H852 H 0.24921 0.01198 0.90506 0.0
H853 H 0.21827 -0.00519 0.89092 0.0
C854 C 0.17222 0.97909 0.80084 0.0
C855 C 0.15105 0.98172 0.80335 0.0
C856 C 0.18413 0.9718 0.81663 0.0
C857 C 0.17502 0.96694 0.83509 0.0
C858 C 0.15415 0.9707 0.83801 0.0
C859 C 0.14226 0.97798 0.82227 0.0
C860 C 0.18676 0.95631 0.85068 0.0
C861 C 0.20411 0.96578 0.85957 0.0
C862 C 0.18051 0.93693 0.85703 0.0
C863 C 0.16301 0.92568 0.84739 0.0
C864 C 0.14641 0.91906 0.85912 0.0
C865 C 0.1298 0.90868 0.85 0.0
C866 C 0.12968 0.90475 0.82916 0.0
C867 C 0.1462 0.91112 0.81741 0.0
C868 C 0.16285 0.92147 0.82646 0.0
C869 C 0.2258 0.92716 0.93538 0.0
C870 C 0.231 0.90672 0.93372 0.0
C871 C 0.21919 0.93746 0.9184 0.0
C872 C 0.21785 0.92755 0.89945 0.0
C873 C 0.22394 0.90742 0.89762 0.0
C874 C 0.23047 0.8971 0.91457 0.0
C875 C 0.20828 0.93749 0.88198 0.0
C876 C 0.19121 0.92788 0.8727 0.0
C877 C 0.21505 0.95655 0.87511 0.0
C878 C 0.23363 0.96694 0.8836 0.0
C879 C 0.25248 0.95705 0.88409 0.0
C880 C 0.26992 0.96688 0.8922 0.0
C881 C 0.26873 0.98665 0.89977 0.0
C882 C 0.25011 -0.00334 0.8992 0.0
C883 C 0.23262 0.98689 0.89112 0.0
H884 H 0.28225 -0.00576 0.90604 0.0
H885 H 0.1168 0.89674 0.82213 0.0
H886 H 0.2464 0.87651 0.07658 0.0
H887 H 0.26021 0.8973 0.10457 0.0
H888 H 0.28885 0.93739 0.06225 0.0
H889 H 0.27497 0.9167 0.03403 0.0
H890 H 0.31537 0.92367 0.09229 0.0
H891 H 0.24924 0.95362 0.0876 0.0
H892 H 0.21149 0.95354 0.08594 0.0
H893 H 0.20835 0.92663 0.1443 0.0
H894 H 0.2461 0.92628 0.14618 0.0
H895 H 0.35302 -0.00676 0.16527 0.0
H896 H 0.33409 0.97888 0.13632 0.0
H897 H 0.29733 0.9427 0.17626 0.0
H898 H 0.31582 0.95758 0.20546 0.0
H899 H 0.2743 0.95586 0.14652 0.0
H900 H 0.33884 0.92308 0.15092 0.0
H901 H 0.37646 0.92097 0.15325 0.0
H902 H 0.38249 0.95033 0.09634 0.0
H903 H 0.34489 0.95286 0.0938 0.0
C904 C 0.2555 0.88983 0.07318 0.0
C905 C 0.25967 0.89492 0.05307 0.0
C906 C 0.26328 0.90175 0.08921 0.0
C907 C 0.27543 0.91891 0.08545 0.0
C908 C 0.27943 0.92421 0.06542 0.0
C909 C 0.27146 0.91241 0.04934 0.0
C910 C 0.285 0.93053 0.10248 0.0
C911 C 0.30643 0.93106 0.10396 0.0
C912 C 0.27323 0.9395 0.11801 0.0
C913 C 0.25052 0.93977 0.11695 0.0
C914 C 0.24051 0.94753 0.10001 0.0
C915 C 0.21911 0.9476 0.09904 0.0
C916 C 0.20753 0.94005 0.11498 0.0
C917 C 0.21734 0.93246 0.13195 0.0
C918 C 0.23874 0.93235 0.13299 0.0
C919 C 0.34081 0.98233 0.16792 0.0
C920 C 0.33606 0.97635 0.18763 0.0
C921 C 0.33004 0.9741 0.15135 0.0
C922 C 0.31462 0.95937 0.15408 0.0
C923 C 0.30925 0.95397 0.17379 0.0
C924 C 0.31984 0.96245 0.19045 0.0
C925 C 0.30474 0.94905 0.13633 0.0
C926 C 0.28327 0.94865 0.13476 0.0
C927 C 0.31645 0.93989 0.12082 0.0
C928 C 0.33907 0.93834 0.12228 0.0
C929 C 0.3482 0.92922 0.13897 0.0
C930 C 0.36952 0.92793 0.14032 0.0
C931 C 0.38186 0.93556 0.12498 0.0
C932 C 0.37291 0.94445 0.10823 0.0
C933 C 0.3516 0.94581 0.10682 0.0
H934 H 0.39836 0.93454 0.12605 0.0
H935 H 0.19096 0.94011 0.11421 0.0
H936 H 0.28066 0.30288 0.04065 0.0
H937 H 0.31381 0.29138 0.05266 0.0
H938 H 0.3447 0.33458 0.01509 0.0
H939 H 0.31157 0.3463 0.003 0.0
H940 H 0.36125 0.29569 0.01291 0.0
H941 H 0.34201 0.34496 0.06326 0.0
H942 H 0.31893 0.36061 0.08816 0.0
H943 H 0.31821 0.30633 0.12235 0.0
H944 H 0.34106 0.29024 0.09747 0.0
H945 H 0.46006 0.28627 0.05644 0.0
H946 H 0.42784 0.29952 0.04393 0.0
H947 H 0.39437 0.26353 0.08665 0.0
H948 H 0.42653 0.25062 0.09961 0.0
H949 H 0.37934 0.2999 0.08586 0.0
H950 H 0.39713 0.24994 0.03581 0.0
H951 H 0.41924 0.23312 0.01079 0.0
H952 H 0.42175 0.287 0.97601 0.0
H953 H 0.39986 0.30424 0.00098 0.0
C954 C 0.29448 0.30993 0.03488 0.0
C955 C 0.29347 0.32556 0.02091 0.0
C956 C 0.3134 0.30338 0.04182 0.0
C957 C 0.33164 0.31226 0.03487 0.0
C958 C 0.33075 0.32759 0.02065 0.0
C959 C 0.31182 0.33429 0.01382 0.0
C960 C 0.35166 0.30553 0.04252 0.0
C961 C 0.36539 0.29686 0.0288 0.0
C962 C 0.35672 0.30664 0.06333 0.0
C963 C 0.34309 0.31633 0.07839 0.0
C964 C 0.3368 0.3363 0.076 0.0
C965 C 0.32378 0.34526 0.09012 0.0
C966 C 0.31706 0.33445 0.1068 0.0
C967 C 0.3234 0.31467 0.10941 0.0
C968 C 0.3364 0.30563 0.09531 0.0
C969 C 0.44584 0.28116 0.06318 0.0
C970 C 0.44587 0.26733 0.07899 0.0
C971 C 0.42742 0.28869 0.05595 0.0
C972 C 0.40866 0.2823 0.06416 0.0
C973 C 0.40866 0.26866 0.08007 0.0
C974 C 0.42707 0.26126 0.08744 0.0
C975 C 0.38901 0.28989 0.05627 0.0
C976 C 0.3753 0.29875 0.06994 0.0
C977 C 0.38389 0.28877 0.03543 0.0
C978 C 0.39704 0.27844 0.02038 0.0
C979 C 0.40254 0.25825 0.02291 0.0
C980 C 0.415 0.24864 0.00872 0.0
C981 C 0.42195 0.259 -0.00815 0.0
C982 C 0.41639 0.279 0.98911 0.0
C983 C 0.40394 0.2887 0.00326 0.0
H984 H 0.43159 0.25153 0.98088 0.0
H985 H 0.30698 0.34141 0.11772 0.0
H986 H 0.98584 0.79131 0.18008 0.0
H987 H 0.97309 0.81804 0.20265 0.0
H988 H 0.94392 0.84569 0.1518 0.0
H989 H 0.95724 0.8197 0.12927 0.0
H990 H 0.96217 0.87324 0.1728 0.0
H991 H 0.91734 0.8168 0.18843 0.0
H992 H 0.90921 0.78235 0.19969 0.0
H993 H 0.93811 0.79587 0.25701 0.0
H994 H 0.94662 0.83034 0.24599 0.0
H995 H 0.87345 0.91478 0.23342 0.0
H996 H 0.8921 0.88533 0.22163 0.0
H997 H 0.94939 0.91803 0.23056 0.0
H998 H 0.93074 0.94784 0.24185 0.0
H999 H 0.92064 0.86031 0.23387 0.0
H1000 H 0.9801 0.90782 0.19073 0.0
H1001 H 0.98402 0.94178 0.17651 0.0
H1002 H 0.91876 0.94499 0.16908 0.0
H1003 H 0.9145 0.91097 0.183 0.0
C1004 C 0.97664 0.80308 0.17379 0.0
C1005 C 0.97261 0.80348 0.15291 0.0
C1006 C 0.96932 0.81831 0.1867 0.0
C1007 C 0.95747 0.83387 0.17895 0.0
C1008 C 0.95319 0.83398 0.15814 0.0
C1009 C 0.96077 0.81906 0.14526 0.0
C1010 C 0.94969 0.85039 0.19216 0.0
C1011 C 0.95324 0.87035 0.18624 0.0
C1012 C 0.93795 0.84673 0.20968 0.0
C1013 C 0.93283 0.82604 0.21631 0.0
C1014 C 0.9221 0.81236 0.20338 0.0
C1015 C 0.91739 0.79285 0.20972 0.0
C1016 C 0.9232 0.78691 0.22903 0.0
C1017 C 0.93366 0.80049 0.24205 0.0
C1018 C 0.93842 0.82001 0.23577 0.0
C1019 C 0.89004 0.91563 0.23321 0.0
C1020 C 0.90062 0.93374 0.23822 0.0
C1021 C 0.90069 0.89871 0.22656 0.0
C1022 C 0.92211 0.89958 0.22488 0.0
C1023 C 0.93282 0.91715 0.23141 0.0
C1024 C 0.92216 0.93416 0.23788 0.0
C1025 C 0.9328 0.883 0.21419 0.0
C1026 C 0.9299 0.86312 0.22063 0.0
C1027 C 0.94459 0.88662 0.19672 0.0
C1028 C 0.94699 0.907 0.18815 0.0
C1029 C 0.96661 0.91578 0.18602 0.0
C1030 C 0.96888 0.93503 0.17801 0.0
C1031 C 0.95164 0.94557 0.17197 0.0
C1032 C 0.93209 0.93685 0.17384 0.0
C1033 C 0.92974 0.91759 0.1818 0.0
H1034 H 0.95343 0.96047 0.1658 0.0
H1035 H 0.91954 0.7718 0.23391 0.0
H1036 H 0.17041 0.61032 0.52257 0.0
H1037 H 0.13916 0.62325 0.53808 0.0
H1038 H 0.17424 0.67191 0.56658 0.0
H1039 H 0.20552 0.65942 0.55066 0.0
H1040 H 0.1419 0.6473 0.59157 0.0
H1041 H 0.15321 0.68657 0.5307 0.0
H1042 H 0.15955 0.6894 0.49416 0.0
H1043 H 0.10437 0.6551 0.481 0.0
H1044 H 0.0979 0.6518 0.51751 0.0
H1045 H 0.06666 0.71537 0.62348 0.0
H1046 H 0.0969 0.69863 0.61035 0.0
H1047 H 0.06006 0.67035 0.56279 0.0
H1048 H 0.03 0.68811 0.57526 0.0
H1049 H 0.09303 0.68228 0.54727 0.0
H1050 H 0.07892 0.64429 0.60592 0.0
H1051 H 0.07157 0.63822 0.6418 0.0
H1052 H 0.12964 0.66525 0.65889 0.0
H1053 H 0.13723 0.67174 0.62311 0.0
C1054 C 0.17149 0.62366 0.53229 0.0
C1055 C 0.19033 0.63395 0.53537 0.0
C1056 C 0.15367 0.631 0.5411 0.0
C1057 C 0.15453 0.64848 0.55339 0.0
C1058 C 0.1734 0.65835 0.55714 0.0
C1059 C 0.19117 0.65127 0.54799 0.0
C1060 C 0.13553 0.65707 0.56146 0.0
C1061 C 0.13123 0.65515 0.58203 0.0
C1062 C 0.12142 0.66656 0.54873 0.0
C1063 C 0.12521 0.66873 0.52681 0.0
C1064 C 0.14255 0.67946 0.52001 0.0
C1065 C 0.14614 0.68119 0.49931 0.0
C1066 C 0.1324 0.67238 0.48526 0.0
C1067 C 0.11501 0.66188 0.4919 0.0
C1068 C 0.11137 0.66009 0.51259 0.0
C1069 C 0.06502 0.7055 0.61028 0.0
C1070 C 0.04603 0.70297 0.60038 0.0
C1071 C 0.08228 0.69581 0.60286 0.0
C1072 C 0.08074 0.68286 0.58579 0.0
C1073 C 0.06168 0.68023 0.57599 0.0
C1074 C 0.0445 0.69033 0.58312 0.0
C1075 C 0.09918 0.67279 0.57768 0.0
C1076 C 0.10347 0.67437 0.55699 0.0
C1077 C 0.11303 0.66256 0.59028 0.0
C1078 C 0.10856 0.65865 0.61183 0.0
C1079 C 0.09006 0.64907 0.61733 0.0
C1080 C 0.08586 0.64553 0.63766 0.0
C1081 C 0.10011 0.65139 0.65262 0.0
C1082 C 0.11861 0.66074 0.64728 0.0
C1083 C 0.12288 0.66433 0.62698 0.0
H1084 H 0.09683 0.64864 0.66835 0.0
H1085 H 0.13521 0.67374 0.46924 0.0
H1086 H 0.93463 0.68645 0.63947 0.0
H1087 H 0.91817 0.66015 0.65951 0.0
H1088 H 0.96564 0.66741 0.70485 0.0
H1089 H 0.98196 0.69411 0.68513 0.0
H1090 H 0.95722 0.62606 0.68819 0.0
H1091 H 0.92376 0.6829 0.71875 0.0
H1092 H 0.90421 0.71431 0.71857 0.0
H1093 H 0.85394 0.68308 0.68864 0.0
H1094 H 0.87332 0.65153 0.68837 0.0
H1095 H 0.91173 0.55294 0.7509 0.0
H1096 H 0.92799 0.58426 0.73962 0.0
H1097 H 0.87501 0.59574 0.70253 0.0
H1098 H 0.85836 0.56501 0.7145 0.0
H1099 H 0.88785 0.6294 0.71818 0.0
H1100 H 0.92054 0.57452 0.68344 0.0
H1101 H 0.93928 0.54269 0.68034 0.0
H1102 H -0.01016 0.56929 0.71393 0.0
H1103 H 0.97127 0.60122 0.71745 0.0
C1104 C 0.94142 0.68261 0.65382 0.0
C1105 C 0.95957 0.69229 0.66075 0.0
C1106 C 0.93199 0.66765 0.66525 0.0
C1107 C 0.94072 0.66194 0.68362 0.0
C1108 C 0.9587 0.6717 0.69071 0.0
C1109 C 0.96793 0.68696 0.67948 0.0
C1110 C 0.9316 0.64496 0.69476 0.0
C1111 C 0.94223 0.62683 0.69513 0.0
C1112 C 0.9118 0.64595 0.70317 0.0
C1113 C 0.90008 0.66489 0.70338 0.0
C1114 C 0.90862 0.68276 0.71196 0.0
C1115 C 0.89755 0.70059 0.71198 0.0
C1116 C 0.87786 0.70071 0.70356 0.0
C1117 C 0.86919 0.68298 0.69515 0.0
C1118 C 0.8802 0.66511 0.69508 0.0
C1119 C 0.90352 0.56225 0.74046 0.0
C1120 C 0.88386 0.55648 0.73346 0.0
C1121 C 0.91285 0.58009 0.73394 0.0
C1122 C 0.90291 0.59219 0.71989 0.0
C1123 C 0.88302 0.58668 0.71335 0.0
C1124 C 0.87354 0.56907 0.72015 0.0
C1125 C 0.91335 0.61023 0.71147 0.0
C1126 C 0.90296 0.62858 0.71151 0.0
C1127 C 0.93322 0.60934 0.70302 0.0
C1128 C 0.94442 0.59017 0.70092 0.0
C1129 C 0.93559 0.57353 0.6903 0.0
C1130 C 0.94619 0.55548 0.68844 0.0
C1131 C 0.96571 0.55395 0.69699 0.0
C1132 C 0.9747 0.57049 0.70736 0.0
C1133 C 0.96415 0.58856 0.70928 0.0
H1134 H 0.97389 0.53997 0.69554 0.0
H1135 H 0.86932 0.71452 0.70359 0.0
H1136 H 0.19856 0.19533 0.50106 0.0
H1137 H 0.16948 0.20863 0.48263 0.0
H1138 H 0.16312 0.1526 0.4486 0.0
H1139 H 0.1922 0.13905 0.46704 0.0
H1140 H 0.16335 0.2148 0.44237 0.0
H1141 H 0.11136 0.14338 0.44149 0.0
H1142 H 0.10549 0.11292 0.46159 0.0
H1143 H 0.12749 0.1447 0.51492 0.0
H1144 H 0.13322 0.1754 0.49521 0.0
H1145 H 0.07773 0.22421 0.37531 0.0
H1146 H 0.1079 0.2117 0.39291 0.0
H1147 H 0.07644 0.21726 0.44984 0.0
H1148 H 0.04628 0.22976 0.43242 0.0
H1149 H 0.09507 0.18066 0.44496 0.0
H1150 H 0.11198 0.25114 0.43889 0.0
H1151 H 0.11725 0.28286 0.42071 0.0
H1152 H 0.16431 0.25549 0.38499 0.0
H1153 H 0.15911 0.2235 0.40278 0.0
C1154 C 0.19102 0.1858 0.48965 0.0
C1155 C 0.19765 0.16608 0.48559 0.0
C1156 C 0.17446 0.19348 0.47908 0.0
C1157 C 0.16411 0.18155 0.46437 0.0
C1158 C 0.17082 0.16196 0.46005 0.0
C1159 C 0.18745 0.15427 0.47058 0.0
C1160 C 0.14605 0.18956 0.45384 0.0
C1161 C 0.14843 0.20731 0.44286 0.0
C1162 C 0.12657 0.1799 0.45474 0.0
C1163 C 0.12293 0.16161 0.46681 0.0
C1164 C 0.11488 0.14387 0.45752 0.0
C1165 C 0.11158 0.12657 0.46885 0.0
C1166 C 0.11618 0.12685 0.48951 0.0
C1167 C 0.12401 0.14447 0.4989 0.0
C1168 C 0.12731 0.16182 0.48765 0.0
C1169 C 0.07729 0.22284 0.39158 0.0
C1170 C 0.05966 0.22796 0.4025 0.0
C1171 C 0.09452 0.21574 0.4016 0.0
C1172 C 0.09436 0.21361 0.42266 0.0
C1173 C 0.07681 0.21876 0.43357 0.0
C1174 C 0.05965 0.22598 0.4236 0.0
C1175 C 0.1124 0.2058 0.43336 0.0
C1176 C 0.11002 0.18808 0.44435 0.0
C1177 C 0.1318 0.21564 0.4327 0.0
C1178 C 0.13501 0.23487 0.42202 0.0
C1179 C 0.12333 0.25183 0.42704 0.0
C1180 C 0.12633 0.26987 0.41683 0.0
C1181 C 0.14107 0.27118 0.40166 0.0
C1182 C 0.15288 0.25445 0.39672 0.0
C1183 C 0.14992 0.23637 0.40687 0.0
H1184 H 0.14337 0.28516 0.39377 0.0
H1185 H 0.11364 0.11343 0.49824 0.0
H1186 H 0.55965 0.43175 0.24471 0.0
H1187 H 0.54649 0.39994 0.22952 0.0
H1188 H 0.60281 0.39334 0.1965 0.0
H1189 H 0.61617 0.42487 0.21177 0.0
H1190 H 0.56609 0.39012 0.17269 0.0
H1191 H 0.5956 0.36419 0.2337 0.0
H1192 H 0.60035 0.3624 0.2706 0.0
H1193 H 0.53651 0.34734 0.27749 0.0
H1194 H 0.53131 0.34935 0.24062 0.0
H1195 H 0.55495 0.29395 0.12891 0.0
H1196 H 0.56789 0.32273 0.14905 0.0
H1197 H 0.51492 0.31881 0.18758 0.0
H1198 H 0.50214 0.28946 0.16781 0.0
H1199 H 0.54811 0.32791 0.20954 0.0
H1200 H 0.51768 0.35345 0.14983 0.0
H1201 H 0.51126 0.35626 0.11325 0.0
H1202 H 0.57423 0.37358 0.10422 0.0
H1203 H 0.58111 0.3706 0.14073 0.0
C1204 C 0.56927 0.42342 0.23435 0.0
C1205 C 0.5889 0.43081 0.22936 0.0
C1206 C 0.56177 0.40526 0.22576 0.0
C1207 C 0.57373 0.39437 0.21195 0.0
C1208 C 0.5934 0.40158 0.20715 0.0
C1209 C 0.601 0.41955 0.21591 0.0
C1210 C 0.56539 0.37598 0.20164 0.0
C1211 C 0.56239 0.37642 0.18067 0.0
C1212 C 0.55989 0.35845 0.21227 0.0
C1213 C 0.56302 0.35715 0.23442 0.0
C1214 C 0.58253 0.36069 0.24309 0.0
C1215 C 0.58531 0.35959 0.264 0.0
C1216 C 0.56873 0.35481 0.27639 0.0
C1217 C 0.54934 0.35107 0.26788 0.0
C1218 C 0.54646 0.35217 0.24698 0.0
C1219 C 0.54608 0.29913 0.14173 0.0
C1220 C 0.5274 0.28959 0.14663 0.0
C1221 C 0.55347 0.31562 0.1532 0.0
C1222 C 0.54213 0.32321 0.16954 0.0
C1223 C 0.52385 0.31327 0.17496 0.0
C1224 C 0.51656 0.29654 0.16363 0.0
C1225 C 0.54913 0.34189 0.18045 0.0
C1226 C 0.55177 0.3416 0.20152 0.0
C1227 C 0.55404 0.35973 0.16996 0.0
C1228 C 0.54995 0.36162 0.148 0.0
C1229 C 0.5302 0.35772 0.14002 0.0
C1230 C 0.52647 0.35936 0.11931 0.0
C1231 C 0.54234 0.36505 0.10641 0.0
C1232 C 0.56196 0.36915 0.11422 0.0
C1233 C 0.56578 0.36751 0.13493 0.0
H1234 H 0.53942 0.36632 0.09037 0.0
H1235 H 0.57092 0.35397 0.29258 0.0
H1236 H 0.29975 0.84966 0.95754 0.0
H1237 H 0.33188 0.83681 0.94402 0.0
H1238 H 0.33 0.78866 0.98677 0.0
H1239 H 0.29808 0.80144 0.00051 0.0
H1240 H 0.36767 0.80639 0.98511 0.0
H1241 H 0.31686 0.7799 0.93775 0.0
H1242 H 0.28824 0.78218 0.91344 0.0
H1243 H 0.32515 0.82026 0.87595 0.0
H1244 H 0.35391 0.81841 0.90019 0.0
H1245 H 0.43932 0.73896 0.94455 0.0
H1246 H 0.40818 0.75487 0.95661 0.0
H1247 H 0.41348 0.79918 0.91007 0.0
H1248 H 0.44446 0.78309 0.89759 0.0
H1249 H 0.37491 0.78579 0.913 0.0
H1250 H 0.42629 0.81115 0.95926 0.0
H1251 H 0.45503 0.80915 0.98346 0.0
H1252 H 0.41738 0.77399 0.02299 0.0
H1253 H 0.38849 0.77554 -0.0011 0.0
C1254 C 0.30616 0.83633 0.96407 0.0
C1255 C 0.29631 0.82656 0.98009 0.0
C1256 C 0.32448 0.82898 0.95627 0.0
C1257 C 0.33322 0.8117 0.9643 0.0
C1258 C 0.32351 0.80203 0.98037 0.0
C1259 C 0.30522 0.80933 0.98816 0.0
C1260 C 0.35256 0.80368 0.95613 0.0
C1261 C 0.36921 0.80169 0.96939 0.0
C1262 C 0.35471 0.79813 0.93549 0.0
C1263 C 0.33745 0.79919 0.92089 0.0
C1264 C 0.31881 0.78889 0.9244 0.0
C1265 C 0.30258 0.79008 0.91063 0.0
C1266 C 0.30485 0.80141 0.8932 0.0
C1267 C 0.3234 0.81152 0.88948 0.0
C1268 C 0.33967 0.81039 0.90322 0.0
C1269 C 0.43391 0.75211 0.93687 0.0
C1270 C 0.44444 0.7598 0.92015 0.0
C1271 C 0.41614 0.76124 0.94385 0.0
C1272 C 0.40868 0.7784 0.93443 0.0
C1273 C 0.41901 0.78599 0.91759 0.0
C1274 C 0.43673 0.77679 0.91052 0.0
C1275 C 0.38997 0.78823 0.94206 0.0
C1276 C 0.37345 0.79061 0.9287 0.0
C1277 C 0.38795 0.79421 0.96261 0.0
C1278 C 0.40528 0.79332 0.97718 0.0
C1279 C 0.42418 0.80287 0.97305 0.0
C1280 C 0.44049 0.80184 0.98676 0.0
C1281 C 0.43805 0.79141 0.00473 0.0
C1282 C 0.41926 0.78204 0.00906 0.0
C1283 C 0.40291 0.78301 -0.00461 0.0
H1284 H 0.45069 0.79063 0.01532 0.0
H1285 H 0.29227 0.80231 0.88255 0.0
H1286 H 0.92072 0.43375 0.73533 0.0
H1287 H 0.93039 0.40148 0.74943 0.0
H1288 H 0.88691 0.4097 0.79757 0.0
H1289 H 0.87704 0.44194 0.78357 0.0
H1290 H 0.92568 0.3987 0.81083 0.0
H1291 H 0.87548 0.37724 0.76106 0.0
H1292 H 0.86008 0.37531 0.72694 0.0
H1293 H 0.91434 0.34778 0.70375 0.0
H1294 H 0.93021 0.34984 0.7377 0.0
H1295 H 0.93147 0.30381 0.85368 0.0
H1296 H 0.91691 0.3323 0.83627 0.0
H1297 H 0.9565 0.32113 0.78544 0.0
H1298 H 0.97084 0.29221 0.80262 0.0
H1299 H 0.91925 0.33339 0.77296 0.0
H1300 H 0.97017 0.35593 0.82135 0.0
H1301 H 0.98687 0.35863 0.85486 0.0
H1302 H 0.9328 0.38499 0.87985 0.0
H1303 H 0.91567 0.38218 0.84653 0.0
C1304 C 0.9132 0.42871 0.74892 0.0
C1305 C 0.89812 0.44043 0.75835 0.0
C1306 C 0.91867 0.41022 0.75687 0.0
C1307 C 0.90924 0.40318 0.77443 0.0
C1308 C 0.89431 0.41488 0.78396 0.0
C1309 C 0.88868 0.43327 0.77592 0.0
C1310 C 0.91539 0.38388 0.78323 0.0
C1311 C 0.92399 0.38437 0.80269 0.0
C1312 C 0.91371 0.36533 0.77229 0.0
C1313 C 0.90412 0.36388 0.7519 0.0
C1314 C 0.88421 0.37093 0.74866 0.0
C1315 C 0.87537 0.36979 0.72935 0.0
C1316 C 0.88625 0.36148 0.71317 0.0
C1317 C 0.90595 0.35424 0.71629 0.0
C1318 C 0.91486 0.35537 0.73557 0.0
C1319 C 0.93686 0.3072 0.83866 0.0
C1320 C 0.95248 0.29593 0.82961 0.0
C1321 C 0.92857 0.32353 0.82875 0.0
C1322 C 0.93596 0.3291 0.80975 0.0
C1323 C 0.95066 0.31715 0.80014 0.0
C1324 C 0.95885 0.30065 0.80999 0.0
C1325 C 0.92939 0.34819 0.80067 0.0
C1326 C 0.92084 0.3477 0.78114 0.0
C1327 C 0.93128 0.36684 0.81145 0.0
C1328 C 0.94157 0.36866 0.83149 0.0
C1329 C 0.96179 0.36217 0.83402 0.0
C1330 C 0.97134 0.36373 0.85298 0.0
C1331 C 0.96088 0.37192 0.86949 0.0
C1332 C 0.94087 0.37862 0.86706 0.0
C1333 C 0.93124 0.37705 0.84814 0.0
H1334 H 0.9683 0.37313 0.88415 0.0
H1335 H 0.87939 0.36062 0.69823 0.0
H1336 H 0.30355 0.17188 0.51213 0.0
H1337 H 0.33477 0.18724 0.52655 0.0
H1338 H 0.34914 0.13117 0.5547 0.0
H1339 H 0.31774 0.11558 0.54029 0.0
H1340 H 0.35292 0.16465 0.58089 0.0
H1341 H 0.37602 0.14461 0.51514 0.0
H1342 H 0.3746 0.14166 0.47795 0.0
H1343 H 0.37774 0.20618 0.47385 0.0
H1344 H 0.37889 0.20953 0.51105 0.0
H1345 H 0.45277 0.20221 0.60999 0.0
H1346 H 0.42373 0.18193 0.59688 0.0
H1347 H 0.40569 0.23128 0.55971 0.0
H1348 H 0.43494 0.25142 0.5723 0.0
H1349 H 0.40552 0.19758 0.53823 0.0
H1350 H 0.37948 0.21809 0.60335 0.0
H1351 H 0.37992 0.22177 0.64052 0.0
H1352 H 0.38147 0.15741 0.64582 0.0
H1353 H 0.3813 0.15335 0.60865 0.0
C1354 C 0.31339 0.16275 0.52129 0.0
C1355 C 0.30822 0.14252 0.52507 0.0
C1356 C 0.33125 0.17154 0.52946 0.0
C1357 C 0.3443 0.16028 0.54154 0.0
C1358 C 0.33924 0.14007 0.54537 0.0
C1359 C 0.32138 0.13119 0.53707 0.0
C1360 C 0.36295 0.16996 0.55049 0.0
C1361 C 0.36466 0.17155 0.5716 0.0
C1362 C 0.37795 0.17927 0.5383 0.0
C1363 C 0.37739 0.17731 0.5159 0.0
C1364 C 0.37626 0.15817 0.50632 0.0
C1365 C 0.37553 0.15643 0.48523 0.0
C1366 C 0.37604 0.17372 0.47354 0.0
C1367 C 0.37733 0.19279 0.48293 0.0
C1368 C 0.37805 0.19462 0.50401 0.0
C1369 C 0.4425 0.20882 0.59917 0.0
C1370 C 0.44618 0.22841 0.59214 0.0
C1371 C 0.42588 0.19721 0.59173 0.0
C1372 C 0.41249 0.20513 0.57738 0.0
C1373 C 0.4159 0.22484 0.5707 0.0
C1374 C 0.43259 0.23635 0.57796 0.0
C1375 C 0.39532 0.19273 0.56869 0.0
C1376 C 0.39391 0.19056 0.54757 0.0
C1377 C 0.38054 0.18302 0.58089 0.0
C1378 C 0.38061 0.18543 0.60323 0.0
C1379 C 0.38009 0.20473 0.61244 0.0
C1380 C 0.38025 0.20688 0.63351 0.0
C1381 C 0.38079 0.18984 0.64552 0.0
C1382 C 0.38109 0.1706 0.63649 0.0
C1383 C 0.38095 0.16836 0.61543 0.0
H1384 H 0.38091 0.19153 0.66183 0.0
H1385 H 0.37547 0.17234 0.45722 0.0
H1386 H 0.49246 0.69022 0.32396 0.0
H1387 H 0.50235 0.65907 0.3064 0.0
H1388 H 0.55038 0.65096 0.35036 0.0
H1389 H 0.54063 0.68201 0.36803 0.0
H1390 H 0.56327 0.64532 0.31063 0.0
H1391 H 0.50792 0.62355 0.3535 0.0
H1392 H 0.47287 0.62435 0.36715 0.0
H1393 H 0.44806 0.61171 0.30785 0.0
H1394 H 0.48298 0.61112 0.2938 0.0
H1395 H 0.58932 0.54442 0.28996 0.0
H1396 H 0.57794 0.57543 0.30654 0.0
H1397 H 0.52696 0.57771 0.26487 0.0
H1398 H 0.538 0.54644 0.24843 0.0
H1399 H 0.51499 0.58691 0.30224 0.0
H1400 H 0.56934 0.60793 0.25902 0.0
H1401 H 0.60399 0.60764 0.24439 0.0
H1402 H 0.63022 0.62251 0.30264 0.0
H1403 H 0.59573 0.62262 0.31769 0.0
C1404 C 0.50514 0.68183 0.32989 0.0
C1405 C 0.51572 0.68857 0.34743 0.0
C1406 C 0.51071 0.66401 0.31988 0.0
C1407 C 0.52701 0.65269 0.32718 0.0
C1408 C 0.53775 0.6595 0.34451 0.0
C1409 C 0.5321 0.6772 0.35462 0.0
C1410 C 0.53294 0.63374 0.31676 0.0
C1411 C 0.55282 0.63245 0.30898 0.0
C1412 C 0.51905 0.61723 0.31413 0.0
C1413 C 0.49806 0.61751 0.32257 0.0
C1414 C 0.49499 0.62112 0.34334 0.0
C1415 C 0.47514 0.6215 0.35116 0.0
C1416 C 0.45824 0.61814 0.33837 0.0
C1417 C 0.46116 0.61434 0.31774 0.0
C1418 C 0.48097 0.61397 0.30984 0.0
C1419 C 0.57565 0.55146 0.28434 0.0
C1420 C 0.56463 0.54299 0.26779 0.0
C1421 C 0.56921 0.56925 0.29378 0.0
C1422 C 0.55179 0.57905 0.28673 0.0
C1423 C 0.54049 0.57042 0.27052 0.0
C1424 C 0.54685 0.55256 0.26112 0.0
C1425 C 0.54543 0.59837 0.29624 0.0
C1426 C 0.52546 0.59978 0.30381 0.0
C1427 C 0.55917 0.61508 0.29852 0.0
C1428 C 0.57995 0.61509 0.28952 0.0
C1429 C 0.58251 0.61099 0.26874 0.0
C1430 C 0.60212 0.61088 0.26037 0.0
C1431 C 0.6193 0.615 0.27259 0.0
C1432 C 0.6169 0.61929 0.2932 0.0
C1433 C 0.59732 0.6194 0.30166 0.0
H1434 H 0.63447 0.61491 0.26608 0.0
H1435 H 0.44289 0.61844 0.34445 0.0
H1436 H 0.07464 0.77005 0.11739 0.0
H1437 H 0.10104 0.787 0.09741 0.0
H1438 H 0.05968 0.78727 0.04624 0.0
H1439 H 0.03362 0.76971 0.06585 0.0
H1440 H 0.09529 0.77773 0.03366 0.0
H1441 H 0.06982 0.83028 0.0764 0.0
H1442 H 0.06014 0.84694 0.10854 0.0
H1443 H 0.12245 0.84482 0.1295 0.0
H1444 H 0.13245 0.8279 0.09758 0.0
H1445 H 0.16453 0.87268 0.00908 0.0
H1446 H 0.13451 0.85723 0.025 0.0
H1447 H 0.16303 0.79912 0.02139 0.0
H1448 H 0.19272 0.81432 0.00497 0.0
H1449 H 0.13126 0.83975 0.05958 0.0
H1450 H 0.12795 0.76169 0.01745 0.0
H1451 H 0.13461 0.74748 0.98341 0.0
H1452 H 0.12426 0.80523 0.95755 0.0
H1453 H 0.11727 0.81972 0.99138 0.0
C1454 C 0.07124 0.77371 0.10187 0.0
C1455 C 0.0521 0.7686 0.09318 0.0
C1456 C 0.08627 0.78348 0.0905 0.0
C1457 C 0.08223 0.78867 0.0704 0.0
C1458 C 0.06316 0.78341 0.0617 0.0
C1459 C 0.04827 0.7734 0.07294 0.0
C1460 C 0.09791 0.79943 0.05833 0.0
C1461 C 0.10313 0.79131 0.03932 0.0
C1462 C 0.10778 0.81743 0.06547 0.0
C1463 C 0.10185 0.82766 0.08467 0.0
C1464 C 0.08143 0.83324 0.08792 0.0
C1465 C 0.07589 0.84275 0.10609 0.0
C1466 C 0.09066 0.84689 0.12107 0.0
C1467 C 0.11102 0.84158 0.11789 0.0
C1468 C 0.11664 0.83205 0.09976 0.0
C1469 C 0.16426 0.85656 0.01145 0.0
C1470 C 0.18094 0.84469 0.00576 0.0
C1471 C 0.14714 0.84778 0.02061 0.0
C1472 C 0.14645 0.827 0.02426 0.0
C1473 C 0.16303 0.81511 0.01838 0.0
C1474 C 0.18003 0.82384 0.00905 0.0
C1475 C 0.12886 0.81786 0.03506 0.0
C1476 C 0.12333 0.82624 0.05387 0.0
C1477 C 0.11826 0.80046 0.02745 0.0
C1478 C 0.12227 0.79182 0.007 0.0
C1479 C 0.12701 0.77133 0.00449 0.0
C1480 C 0.13086 0.76324 0.98523 0.0
C1481 C 0.12992 0.77546 0.96834 0.0
C1482 C 0.12506 0.7958 0.97066 0.0
C1483 C 0.12119 0.80397 0.98988 0.0
H1484 H 0.13292 0.76916 0.95344 0.0
H1485 H 0.08634 0.85425 0.13513 0.0
H1486 H 0.70572 0.86453 0.57037 0.0
H1487 H 0.69252 0.88605 0.59745 0.0
H1488 H 0.70943 0.93894 0.56405 0.0
H1489 H 0.72339 0.91744 0.53714 0.0
H1490 H 0.71676 0.94594 0.60232 0.0
H1491 H 0.65941 0.92069 0.56435 0.0
H1492 H 0.63708 0.89511 0.54723 0.0
H1493 H 0.62595 0.86664 0.60388 0.0
H1494 H 0.64845 0.8919 0.62131 0.0
H1495 H 0.62006 0.98027 0.6652 0.0
H1496 H 0.63566 0.96669 0.63442 0.0
H1497 H 0.69108 0.95508 0.66783 0.0
H1498 H 0.67586 0.9695 0.69836 0.0
H1499 H 0.64615 0.9312 0.62597 0.0
H1500 H 0.73232 0.95381 0.6381 0.0
H1501 H 0.75292 0.98247 0.65216 0.0
H1502 H 0.70308 0.02229 0.64171 0.0
H1503 H 0.68229 -0.00605 0.62734 0.0
C1504 C 0.70675 0.88075 0.56883 0.0
C1505 C 0.71542 0.88929 0.55154 0.0
C1506 C 0.69912 0.89303 0.58429 0.0
C1507 C 0.69954 0.9141 0.58257 0.0
C1508 C 0.70885 0.92272 0.56566 0.0
C1509 C 0.71679 0.91042 0.55029 0.0
C1510 C 0.68979 0.92699 0.59824 0.0
C1511 C 0.7013 0.94279 0.60748 0.0
C1512 C 0.66938 0.9233 0.60451 0.0
C1513 C 0.65575 0.90811 0.59411 0.0
C1514 C 0.65231 0.9089 0.57314 0.0
C1515 C 0.63961 0.89446 0.56338 0.0
C1516 C 0.63014 0.87924 0.57445 0.0
C1517 C 0.63331 0.87844 0.59532 0.0
C1518 C 0.64602 0.89282 0.60515 0.0
C1519 C 0.63568 0.97507 0.66588 0.0
C1520 C 0.64677 0.97592 0.68414 0.0
C1521 C 0.64457 0.96729 0.6483 0.0
C1522 C 0.66462 0.95998 0.64871 0.0
C1523 C 0.67578 0.96104 0.66695 0.0
C1524 C 0.66702 0.96917 0.68445 0.0
C1525 C 0.67328 0.9499 0.6305 0.0
C1526 C 0.66155 0.93455 0.62076 0.0
C1527 C 0.69321 0.95451 0.62334 0.0
C1528 C 0.70569 0.97169 0.6318 0.0
C1529 C 0.72579 0.9687 0.63872 0.0
C1530 C 0.73749 0.98489 0.64676 0.0
C1531 C 0.72929 0.00417 0.64788 0.0
C1532 C 0.70939 0.00733 0.6409 0.0
C1533 C 0.69763 -0.0088 0.63284 0.0
H1534 H 0.73837 0.01668 0.65412 0.0
H1535 H 0.62031 0.86807 0.56687 0.0
H1536 H 0.79291 -0.00025 0.30195 0.0
H1537 H 0.78121 0.98655 0.33427 0.0
H1538 H 0.83699 0.95326 0.3397 0.0
H1539 H 0.84882 0.96634 0.30754 0.0
H1540 H 0.77405 0.94731 0.34466 0.0
H1541 H 0.8508 0.95277 0.3895 0.0
H1542 H 0.88183 0.97461 0.39148 0.0
H1543 H 0.84771 0.02425 0.36923 0.0
H1544 H 0.81642 0.00281 0.36741 0.0
H1545 H 0.77746 0.87876 0.42378 0.0
H1546 H 0.78782 0.89945 0.39539 0.0
H1547 H 0.77875 0.95339 0.43155 0.0
H1548 H 0.76815 0.93274 0.46013 0.0
H1549 H 0.81525 0.95402 0.40788 0.0
H1550 H 0.7431 0.94178 0.40022 0.0
H1551 H 0.71136 0.92097 0.39871 0.0
H1552 H 0.7344 0.88785 0.3475 0.0
H1553 H 0.76642 0.90826 0.34889 0.0
C1554 C 0.80272 0.98968 0.31006 0.0
C1555 C 0.8218 0.98409 0.30215 0.0
C1556 C 0.796 0.98214 0.32849 0.0
C1557 C 0.80833 0.96911 0.33944 0.0
C1558 C 0.82737 0.96354 0.33162 0.0
C1559 C 0.83405 0.97094 0.31316 0.0
C1560 C 0.80108 0.96067 0.35872 0.0
C1561 C 0.78299 0.94888 0.35851 0.0
C1562 C 0.81261 0.963 0.37685 0.0
C1563 C 0.8313 0.97611 0.37817 0.0
C1564 C 0.84989 0.96837 0.38513 0.0
C1565 C 0.86753 0.98068 0.3862 0.0
C1566 C 0.86675 0.00079 0.38043 0.0
C1567 C 0.84831 0.00865 0.37363 0.0
C1568 C 0.83063 -0.00358 0.37255 0.0
C1569 C 0.77787 0.89501 0.4258 0.0
C1570 C 0.7719 0.90414 0.44416 0.0
C1571 C 0.78371 0.9068 0.40954 0.0
C1572 C 0.78381 0.9279 0.41136 0.0
C1573 C 0.7787 0.9371 0.42989 0.0
C1574 C 0.77264 0.9253 0.44616 0.0
C1575 C 0.78862 0.94021 0.39358 0.0
C1576 C 0.80624 0.95266 0.39407 0.0
C1577 C 0.77655 0.93868 0.37576 0.0
C1578 C 0.75724 0.92646 0.37477 0.0
C1579 C 0.74147 0.92996 0.38873 0.0
C1580 C 0.72341 0.91825 0.38788 0.0
C1581 C 0.72088 0.90307 0.37304 0.0
C1582 C 0.73639 0.8996 0.35899 0.0
C1583 C 0.75448 0.91125 0.35979 0.0
H1584 H 0.7069 0.89402 0.3724 0.0
H1585 H 0.88043 0.01029 0.38126 0.0
H1586 H 0.77507 0.05161 0.03179 0.0
H1587 H 0.79154 0.0331 0.05888 0.0
H1588 H 0.79731 0.08817 0.09466 0.0
H1589 H 0.7817 0.10677 0.06745 0.0
H1590 H 0.82997 0.06819 0.09931 0.0
H1591 H 0.75785 0.05187 0.1016 0.0
H1592 H 0.72458 0.03926 0.08805 0.0
H1593 H 0.75019 0.98102 0.0765 0.0
H1594 H 0.78369 -0.00662 0.08976 0.0
H1595 H 0.81118 0.00774 0.19635 0.0
H1596 H 0.79834 0.02113 0.16469 0.0
H1597 H 0.85811 0.01451 0.13805 0.0
H1598 H 0.87121 0.00183 0.16995 0.0
H1599 H 0.79382 0.00867 0.12745 0.0
H1600 H 0.86777 0.05272 0.10639 0.0
H1601 H 0.89813 0.06854 0.12314 0.0
H1602 H 0.86384 0.07692 0.17776 0.0
H1603 H 0.83323 0.0614 0.16125 0.0
C1604 C 0.78005 0.05976 0.04537 0.0
C1605 C 0.77702 0.08062 0.04754 0.0
C1606 C 0.78936 0.04916 0.06088 0.0
C1607 C 0.79538 0.05918 0.07897 0.0
C1608 C 0.79284 0.08009 0.08087 0.0
C1609 C 0.78384 0.09072 0.0653 0.0
C1610 C 0.8038 0.04798 0.09625 0.0
C1611 C 0.82212 0.05509 0.10536 0.0
C1612 C 0.79343 0.03108 0.1044 0.0
C1613 C 0.77331 0.02361 0.09645 0.0
C1614 C 0.75641 0.03642 0.09603 0.0
C1615 C 0.73751 0.02931 0.08843 0.0
C1616 C 0.73529 0.00937 0.08136 0.0
C1617 C 0.75195 -0.00352 0.08194 0.0
C1618 C 0.77089 0.00352 0.08951 0.0
C1619 C 0.82154 0.00901 0.18369 0.0
C1620 C 0.84225 0.00398 0.18567 0.0
C1621 C 0.81417 0.01659 0.16558 0.0
C1622 C 0.82733 0.01913 0.14908 0.0
C1623 C 0.84777 0.01311 0.15071 0.0
C1624 C 0.85523 0.0058 0.16892 0.0
C1625 C 0.81986 0.02902 0.1306 0.0
C1626 C 0.80179 0.02161 0.12123 0.0
C1627 C 0.83005 0.04612 0.12264 0.0
C1628 C 0.84831 0.05568 0.13264 0.0
C1629 C 0.86671 0.05799 0.12195 0.0
C1630 C 0.88396 0.0669 0.13141 0.0
C1631 C 0.88294 0.07366 0.15152 0.0
C1632 C 0.86464 0.07161 0.1622 0.0
C1633 C 0.84734 0.06274 0.15281 0.0
H1634 H 0.89631 0.08053 0.15882 0.0
H1635 H 0.72065 0.00389 0.07549 0.0
H1636 H 0.63815 0.02715 0.79907 0.0
H1637 H 0.65053 0.0444 0.82984 0.0
H1638 H 0.69802 0.00061 0.83584 0.0
H1639 H 0.68564 0.98305 0.80505 0.0
H1640 H 0.67906 0.00945 0.87215 0.0
H1641 H 0.71022 0.04566 0.81804 0.0
H1642 H 0.71081 0.06379 0.78591 0.0
H1643 H 0.67108 0.10853 0.81103 0.0
H1644 H 0.67002 0.09051 0.84324 0.0
H1645 H 0.7346 0.06872 0.94664 0.0
H1646 H 0.72477 0.04843 0.91666 0.0
H1647 H 0.67861 0.09154 0.90208 0.0
H1648 H 0.68863 0.1121 0.93162 0.0
H1649 H 0.69945 0.08184 0.86962 0.0
H1650 H 0.66663 0.04516 0.92292 0.0
H1651 H 0.66515 0.02701 0.95502 0.0
H1652 H 0.70708 0.98335 0.93165 0.0
H1653 H 0.70901 0.0014 0.89948 0.0
C1654 C 0.6512 0.0211 0.80692 0.0
C1655 C 0.66099 0.00377 0.79951 0.0
C1656 C 0.65829 0.03104 0.82449 0.0
C1657 C 0.67534 0.02392 0.83495 0.0
C1658 C 0.68487 0.00636 0.82792 0.0
C1659 C 0.6778 -0.0036 0.8103 0.0
C1660 C 0.68332 0.03506 0.85306 0.0
C1661 C 0.68384 0.0252 0.87159 0.0
C1662 C 0.68918 0.05568 0.85231 0.0
C1663 C 0.68991 0.06664 0.833 0.0
C1664 C 0.70149 0.05929 0.81667 0.0
C1665 C 0.70193 0.06956 0.79845 0.0
C1666 C 0.69096 0.08728 0.79642 0.0
C1667 C 0.67956 0.09479 0.81262 0.0
C1668 C 0.67906 0.08457 0.83087 0.0
C1669 C 0.7223 0.07383 0.93708 0.0
C1670 C 0.71242 0.09204 0.94151 0.0
C1671 C 0.71665 0.06218 0.92 0.0
C1672 C 0.70083 0.06839 0.90722 0.0
C1673 C 0.69089 0.08649 0.91169 0.0
C1674 C 0.69663 0.0982 0.92863 0.0
C1675 C 0.69485 0.05638 0.88887 0.0
C1676 C 0.69478 0.06607 0.87023 0.0
C1677 C 0.68931 0.03565 0.88957 0.0
C1678 C 0.68813 0.02476 0.90888 0.0
C1679 C 0.67566 0.03178 0.92468 0.0
C1680 C 0.67472 0.0215 0.94288 0.0
C1681 C 0.68606 0.00408 0.94539 0.0
C1682 C 0.69833 -0.00313 0.92969 0.0
C1683 C 0.69934 0.00711 0.91147 0.0
H1684 H 0.68531 -0.00387 0.95949 0.0
H1685 H 0.69132 0.09521 0.7823 0.0
H1686 H 0.56958 0.71378 0.8758 0.0
H1687 H 0.59992 0.70028 0.89224 0.0
H1688 H 0.58507 0.7324 0.94743 0.0
H1689 H 0.55455 0.7458 0.9312 0.0
H1690 H 0.62764 0.7345 0.93628 0.0
H1691 H 0.5724 0.68564 0.94477 0.0
H1692 H 0.54443 0.6629 0.93252 0.0
H1693 H 0.587 0.63 0.89591 0.0
H1694 H 0.61519 0.65278 0.90771 0.0
H1695 H 0.68795 0.68505 0.00769 0.0
H1696 H 0.65989 0.69982 0.98894 0.0
H1697 H 0.66888 0.65707 0.93981 0.0
H1698 H 0.69653 0.64173 0.95883 0.0
H1699 H 0.63 0.6606 0.94613 0.0
H1700 H 0.6855 0.70752 0.93761 0.0
H1701 H 0.71407 0.73039 0.94809 0.0
H1702 H 0.67256 0.76697 0.98224 0.0
H1703 H 0.64376 0.74416 0.97219 0.0
C1704 C 0.57287 0.71812 0.89138 0.0
C1705 C 0.55964 0.73074 0.90228 0.0
C1706 C 0.59016 0.71037 0.90073 0.0
C1707 C 0.59457 0.71526 0.92105 0.0
C1708 C 0.58186 0.72847 0.93173 0.0
C1709 C 0.56443 0.73604 0.92247 0.0
C1710 C 0.61197 0.70593 0.93143 0.0
C1711 C 0.62813 0.71838 0.93865 0.0
C1712 C 0.61276 0.68485 0.93391 0.0
C1713 C 0.59586 0.67105 0.92695 0.0
C1714 C 0.57577 0.67367 0.93397 0.0
C1715 C 0.55988 0.66075 0.92713 0.0
C1716 C 0.56393 0.64505 0.9134 0.0
C1717 C 0.58388 0.64219 0.90652 0.0
C1718 C 0.59982 0.65509 0.91329 0.0
C1719 C 0.68396 0.67878 -0.00711 0.0
C1720 C 0.69451 0.66227 0.98471 0.0
C1721 C 0.66799 0.68733 0.98213 0.0
C1722 C 0.66253 0.67982 0.96278 0.0
C1723 C 0.67287 0.66316 0.95468 0.0
C1724 C 0.68867 0.65442 0.96557 0.0
C1725 C 0.64582 0.68916 0.95118 0.0
C1726 C 0.6297 0.67672 0.94371 0.0
C1727 C 0.64522 0.71024 0.94823 0.0
C1728 C 0.6625 0.72402 0.95429 0.0
C1729 C 0.68248 0.72036 0.94748 0.0
C1730 C 0.69872 0.73332 0.95332 0.0
C1731 C 0.69514 0.75009 0.96586 0.0
C1732 C 0.67531 0.75396 0.97255 0.0
C1733 C 0.65902 0.74103 0.96676 0.0
H1734 H 0.70773 0.76011 0.97037 0.0
H1735 H 0.55161 0.63506 0.90812 0.0
H1736 H 0.04157 0.0529 0.7459 0.0
H1737 H 0.03081 0.08394 0.76296 0.0
H1738 H 0.0797 0.0787 0.80657 0.0
H1739 H 0.09058 0.04759 0.78966 0.0
H1740 H 0.04266 0.08774 0.82416 0.0
H1741 H 0.08461 0.11172 0.76981 0.0
H1742 H 0.09535 0.11436 0.73429 0.0
H1743 H 0.03651 0.13744 0.71851 0.0
H1744 H 0.02531 0.13466 0.7539 0.0
H1745 H 0.04145 0.18472 0.86912 0.0
H1746 H 0.0517 0.15431 0.85083 0.0
H1747 H 0.00557 0.16428 0.80535 0.0
H1748 H -0.00449 0.19513 0.82335 0.0
H1749 H 0.04026 0.15257 0.78825 0.0
H1750 H -0.0019 0.1291 0.84214 0.0
H1751 H 0.9867 0.1262 0.87744 0.0
H1752 H 0.04473 0.1017 0.89383 0.0
H1753 H 0.05659 0.10472 0.85867 0.0
C1754 C 0.05003 0.0583 0.75914 0.0
C1755 C 0.06697 0.04777 0.76639 0.0
C1756 C 0.04391 0.0761 0.76881 0.0
C1757 C 0.05458 0.08368 0.7859 0.0
C1758 C 0.07129 0.07308 0.79336 0.0
C1759 C 0.07751 0.05534 0.78364 0.0
C1760 C 0.04824 0.10262 0.79609 0.0
C1761 C 0.04237 0.10198 0.81641 0.0
C1762 C 0.04732 0.12103 0.78574 0.0
C1763 C 0.05405 0.12278 0.76447 0.0
C1764 C 0.0739 0.11719 0.75874 0.0
C1765 C 0.08008 0.11875 0.73863 0.0
C1766 C 0.0666 0.12601 0.72414 0.0
C1767 C 0.04693 0.13179 0.72974 0.0
C1768 C 0.04066 0.13024 0.74983 0.0
C1769 C 0.03347 0.1805 0.85521 0.0
C1770 C 0.01754 0.19229 0.84778 0.0
C1771 C 0.03931 0.16304 0.84481 0.0
C1772 C 0.02915 0.15681 0.82693 0.0
C1773 C 0.01356 0.16877 0.81918 0.0
C1774 C 0.00781 0.18638 0.8295 0.0
C1775 C 0.03477 0.13775 0.81642 0.0
C1776 C 0.04048 0.13834 0.79602 0.0
C1777 C 0.03542 0.11924 0.82666 0.0
C1778 C 0.0283 0.11731 0.84781 0.0
C1779 C 0.00849 0.12323 0.8533 0.0
C1780 C 0.00193 0.12155 0.87328 0.0
C1781 C 0.015 0.11382 0.88788 0.0
C1782 C 0.03463 0.10771 0.88251 0.0
C1783 C 0.04127 0.10938 0.86256 0.0
H1784 H 0.0099 0.11252 0.90333 0.0
H1785 H 0.07142 0.1272 0.70858 0.0
H1786 H 0.9454 0.27954 0.39334 0.0
H1787 H 0.91394 0.29524 0.40519 0.0
H1788 H 0.90631 0.24887 0.44936 0.0
H1789 H 0.93761 0.233 0.43759 0.0
H1790 H 0.87074 0.25606 0.42896 0.0
H1791 H 0.92422 0.29474 0.46357 0.0
H1792 H 0.95579 0.31577 0.46582 0.0
H1793 H 0.92783 0.36061 0.42949 0.0
H1794 H 0.89617 0.3397 0.42679 0.0
H1795 H 0.79962 0.29713 0.49645 0.0
H1796 H 0.83076 0.28414 0.4813 0.0
H1797 H 0.83276 0.33398 0.44053 0.0
H1798 H 0.8016 0.3473 0.45578 0.0
H1799 H 0.8705 0.32632 0.45639 0.0
H1800 H 0.81635 0.28877 0.42332 0.0
H1801 H 0.78467 0.26793 0.42102 0.0
H1802 H 0.81368 0.22111 0.45385 0.0
H1803 H 0.84546 0.2418 0.45662 0.0
C1804 C 0.93702 0.27266 0.40556 0.0
C1805 C 0.94404 0.25503 0.41455 0.0
C1806 C 0.9191 0.2817 0.41235 0.0
C1807 C 0.90792 0.27328 0.42823 0.0
C1808 C 0.91475 0.25559 0.43707 0.0
C1809 C 0.93268 0.24658 0.43036 0.0
C1810 C 0.88901 0.2828 0.43568 0.0
C1811 C 0.87071 0.27135 0.43514 0.0
C1812 C 0.88892 0.30296 0.44315 0.0
C1813 C 0.90792 0.31555 0.44478 0.0
C1814 C 0.92487 0.309 0.45591 0.0
C1815 C 0.94276 0.32092 0.4573 0.0
C1816 C 0.94383 0.33949 0.44775 0.0
C1817 C 0.92699 0.34621 0.43684 0.0
C1818 C 0.90907 0.33434 0.43539 0.0
C1819 C 0.80666 0.3054 0.4843 0.0
C1820 C 0.79802 0.3232 0.47725 0.0
C1821 C 0.82443 0.29789 0.4756 0.0
C1822 C 0.83387 0.30794 0.4596 0.0
C1823 C 0.82563 0.32597 0.45282 0.0
C1824 C 0.80781 0.33352 0.46152 0.0
C1825 C 0.8523 0.29944 0.44999 0.0
C1826 C 0.87049 0.31108 0.45007 0.0
C1827 C 0.8523 0.27946 0.44202 0.0
C1828 C 0.83324 0.26692 0.44032 0.0
C1829 C 0.81593 0.2741 0.43019 0.0
C1830 C 0.79796 0.2623 0.42877 0.0
C1831 C 0.79715 0.24322 0.43732 0.0
C1832 C 0.81433 0.23589 0.44726 0.0
C1833 C 0.83233 0.24764 0.44873 0.0
H1834 H 0.78322 0.23411 0.43621 0.0
H1835 H 0.9577 0.34869 0.44885 0.0
H1836 H 0.57003 0.95138 0.77601 0.0
H1837 H 0.54779 0.92505 0.79007 0.0
H1838 H 0.58481 0.87929 0.76204 0.0
H1839 H 0.60728 0.90543 0.74817 0.0
H1840 H 0.54058 0.872 0.7594 0.0
H1841 H 0.5948 0.88993 0.80798 0.0
H1842 H 0.61472 0.91403 0.82961 0.0
H1843 H 0.55982 0.93085 0.86061 0.0
H1844 H 0.53953 0.90703 0.83893 0.0
H1845 H 0.52614 0.78295 0.81414 0.0
H1846 H 0.53707 0.81257 0.79551 0.0
H1847 H 0.50839 0.85116 0.84001 0.0
H1848 H 0.49832 0.82153 0.85922 0.0
H1849 H 0.54404 0.86503 0.83383 0.0
H1850 H 0.48993 0.84445 0.78928 0.0
H1851 H 0.46882 0.82135 0.7677 0.0
H1852 H 0.52035 0.81087 0.72912 0.0
H1853 H 0.54187 0.8337 0.75062 0.0
C1854 C 0.57329 0.93572 0.77263 0.0
C1855 C 0.5905 0.93046 0.76113 0.0
C1856 C 0.56058 0.92073 0.78067 0.0
C1857 C 0.56475 0.90029 0.7771 0.0
C1858 C 0.58135 0.89501 0.76488 0.0
C1859 C 0.59423 0.90995 0.7571 0.0
C1860 C 0.55288 0.88436 0.78736 0.0
C1861 C 0.54131 0.87034 0.77566 0.0
C1862 C 0.55341 0.8827 0.8086 0.0
C1863 C 0.56562 0.8969 0.82169 0.0
C1864 C 0.58695 0.8989 0.81929 0.0
C1865 C 0.59832 0.91248 0.83158 0.0
C1866 C 0.58853 0.92401 0.84643 0.0
C1867 C 0.56737 0.92194 0.84907 0.0
C1868 C 0.55594 0.9084 0.83679 0.0
C1869 C 0.5219 0.79774 0.81978 0.0
C1870 C 0.51146 0.79996 0.83816 0.0
C1871 C 0.52804 0.81469 0.80904 0.0
C1872 C 0.52336 0.83417 0.81619 0.0
C1873 C 0.51222 0.83632 0.83418 0.0
C1874 C 0.50643 0.81938 0.84513 0.0
C1875 C 0.53173 0.85224 0.80592 0.0
C1876 C 0.5428 0.86672 0.8176 0.0
C1877 C 0.53045 0.85444 0.78468 0.0
C1878 C 0.51756 0.8407 0.77166 0.0
C1879 C 0.49681 0.83711 0.77628 0.0
C1880 C 0.48476 0.82408 0.76404 0.0
C1881 C 0.49324 0.81462 0.74707 0.0
C1882 C 0.51379 0.8182 0.74228 0.0
C1883 C 0.52592 0.83121 0.75447 0.0
H1884 H 0.48388 0.80453 0.73762 0.0
H1885 H 0.59736 0.93451 0.85593 0.0
H1886 H 0.98931 0.15686 0.36437 0.0
H1887 H 0.9735 0.13054 0.34269 0.0
H1888 H 0.95075 0.17582 0.30301 0.0
H1889 H 0.96664 0.20233 0.32458 0.0
H1890 H 0.92077 0.14817 0.31587 0.0
H1891 H 0.98778 0.1472 0.28659 0.0
H1892 H 0.02548 0.1455 0.28706 0.0
H1893 H 0.0217 0.08691 0.31328 0.0
H1894 H 0.98396 0.08838 0.31325 0.0
H1895 H 0.87633 0.07718 0.24747 0.0
H1896 H 0.89765 0.10503 0.26104 0.0
H1897 H 0.93148 0.06331 0.2969 0.0
H1898 H 0.91075 0.03526 0.28266 0.0
H1899 H 0.95667 0.09074 0.28358 0.0
H1900 H 0.89139 0.09221 0.31666 0.0
H1901 H 0.8537 0.09319 0.31869 0.0
H1902 H 0.85415 0.14983 0.28846 0.0
H1903 H 0.89185 0.14905 0.28603 0.0
C1904 C 0.98113 0.16124 0.35092 0.0
C1905 C 0.97916 0.1817 0.34623 0.0
C1906 C 0.9722 0.14617 0.3385 0.0
C1907 C 0.96107 0.15126 0.32122 0.0
C1908 C 0.95935 0.17162 0.31627 0.0
C1909 C 0.96848 0.18672 0.32858 0.0
C1910 C 0.95006 0.13536 0.30918 0.0
C1911 C 0.92861 0.1358 0.30844 0.0
C1912 C 0.96033 0.11894 0.30012 0.0
C1913 C 0.98303 0.11797 0.30006 0.0
C1914 C -0.00501 0.13402 0.29261 0.0
C1915 C 0.01637 0.13309 0.29277 0.0
C1916 C 0.02598 0.11613 0.30023 0.0
C1917 C 0.01423 0.10005 0.30751 0.0
C1918 C -0.00716 0.10091 0.3074 0.0
C1919 C 0.88842 0.07393 0.25813 0.0
C1920 C 0.89174 0.05407 0.26418 0.0
C1921 C 0.90055 0.08987 0.26594 0.0
C1922 C 0.91586 0.08634 0.28037 0.0
C1923 C 0.91971 0.06642 0.28585 0.0
C1924 C 0.90783 0.05041 0.27774 0.0
C1925 C 0.92729 0.10345 0.29034 0.0
C1926 C 0.9488 0.1032 0.29078 0.0
C1927 C 0.91707 0.11992 0.29946 0.0
C1928 C 0.89441 0.12046 0.30097 0.0
C1929 C 0.88344 0.1048 0.31032 0.0
C1930 C 0.86208 0.10533 0.31156 0.0
C1931 C 0.85154 0.12153 0.30366 0.0
C1932 C 0.86234 0.13727 0.29455 0.0
C1933 C 0.8837 0.1368 0.29324 0.0
H1934 H 0.835 0.12192 0.30463 0.0
H1935 H 0.04254 0.11544 0.30034 0.0
H1936 H 0.60621 0.06852 0.74312 0.0
H1937 H 0.58802 0.09878 0.73346 0.0
H1938 H 0.53778 0.06171 0.71024 0.0
H1939 H 0.55575 0.03136 0.72003 0.0
H1940 H 0.55402 0.08933 0.68258 0.0
H1941 H 0.52984 0.0889 0.75091 0.0
H1942 H 0.53341 0.0877 0.78798 0.0
H1943 H 0.56985 0.14235 0.78822 0.0
H1944 H 0.56675 0.14373 0.75111 0.0
H1945 H 0.49619 0.1712 0.65158 0.0
H1946 H 0.50553 0.1405 0.66888 0.0
H1947 H 0.55079 0.17442 0.70415 0.0
H1948 H 0.54071 0.20534 0.68761 0.0
H1949 H 0.53458 0.14719 0.72675 0.0
H1950 H 0.5629 0.14646 0.6599 0.0
H1951 H 0.56222 0.14808 0.6227 0.0
H1952 H 0.52175 0.09623 0.61942 0.0
H1953 H 0.52199 0.09446 0.65664 0.0
C1954 C 0.59115 0.06682 0.73623 0.0
C1955 C 0.58244 0.04757 0.73224 0.0
C1956 C 0.58075 0.08412 0.73081 0.0
C1957 C 0.56155 0.08243 0.7212 0.0
C1958 C 0.55257 0.06328 0.7177 0.0
C1959 C 0.56284 0.04598 0.72333 0.0
C1960 C 0.55173 0.10055 0.71324 0.0
C1961 C 0.54937 0.10184 0.69224 0.0
C1962 C 0.54638 0.11707 0.72586 0.0
C1963 C 0.5482 0.11632 0.74819 0.0
C1964 C 0.53876 0.10057 0.75884 0.0
C1965 C 0.54067 0.09988 0.77987 0.0
C1966 C 0.55189 0.11492 0.79044 0.0
C1967 C 0.56118 0.13071 0.78001 0.0
C1968 C 0.55933 0.13146 0.75898 0.0
C1969 C 0.50796 0.17212 0.6632 0.0
C1970 C 0.51789 0.19058 0.66812 0.0
C1971 C 0.51336 0.15456 0.67301 0.0
C1972 C 0.52924 0.15503 0.68746 0.0
C1973 C 0.53855 0.17364 0.69301 0.0
C1974 C 0.53283 0.19129 0.6835 0.0
C1975 C 0.5369 0.13605 0.696 0.0
C1976 C 0.53897 0.13461 0.71707 0.0
C1977 C 0.5424 0.11947 0.68343 0.0
C1978 C 0.54229 0.12046 0.66105 0.0
C1979 C 0.55375 0.13549 0.65125 0.0
C1980 C 0.55346 0.13643 0.63016 0.0
C1981 C 0.5419 0.12231 0.61871 0.0
C1982 C 0.53066 0.10718 0.62832 0.0
C1983 C 0.53088 0.1062 0.6494 0.0
H1984 H 0.5417 0.12306 0.60238 0.0
H1985 H 0.55335 0.11435 0.80672 0.0
H1986 H 0.18046 0.37584 0.95036 0.0
H1987 H 0.14875 0.36284 0.93469 0.0
H1988 H 0.16569 0.30213 0.9487 0.0
H1989 H 0.19776 0.31501 0.9639 0.0
H1990 H 0.14947 0.30261 0.9124 0.0
H1991 H 0.13102 0.32818 0.97778 0.0
H1992 H 0.12917 0.35339 0.00564 0.0
H1993 H 0.09581 0.3928 0.96739 0.0
H1994 H 0.0977 0.36793 0.93919 0.0
H1995 H 0.03218 0.28163 0.92106 0.0
H1996 H 0.06437 0.29504 0.93535 0.0
H1997 H 0.08643 0.30696 0.87534 0.0
H1998 H 0.05445 0.29297 0.8609 0.0
H1999 H 0.08316 0.32993 0.93551 0.0
H2000 H 0.13765 0.29991 0.87342 0.0
H2001 H 0.13927 0.27169 0.84857 0.0
H2002 H 0.10001 0.23562 0.88576 0.0
H2003 H 0.09838 0.26351 0.91095 0.0
C2004 C 0.17747 0.35971 0.95003 0.0
C2005 C 0.19151 0.34644 0.95847 0.0
C2006 C 0.15932 0.35231 0.94113 0.0
C2007 C 0.1547 0.33154 0.94083 0.0
C2008 C 0.16893 0.31821 0.94881 0.0
C2009 C 0.18722 0.32559 0.95752 0.0
C2010 C 0.13486 0.32377 0.93254 0.0
C2011 C 0.13497 0.3086 0.91742 0.0
C2012 C 0.11592 0.33131 0.93938 0.0
C2013 C 0.11468 0.34627 0.95632 0.0
C2014 C 0.12342 0.34229 0.97527 0.0
C2015 C 0.12234 0.3565 0.99113 0.0
C2016 C 0.11242 0.3747 0.98827 0.0
C2017 C 0.10351 0.3787 0.96956 0.0
C2018 C 0.10457 0.36455 0.95365 0.0
C2019 C 0.04385 0.28719 0.91091 0.0
C2020 C 0.04088 0.28611 0.88986 0.0
C2021 C 0.06222 0.29488 0.9191 0.0
C2022 C 0.07792 0.30173 0.90641 0.0
C2023 C 0.07469 0.30137 0.8854 0.0
C2024 C 0.05639 0.29347 0.87718 0.0
C2025 C 0.09776 0.30891 0.91522 0.0
C2026 C 0.09765 0.32399 0.93042 0.0
C2027 C 0.11665 0.30085 0.90888 0.0
C2028 C 0.11773 0.28389 0.89395 0.0
C2029 C 0.12943 0.28593 0.87632 0.0
C2030 C 0.13034 0.27 0.86217 0.0
C2031 C 0.11969 0.2519 0.86555 0.0
C2032 C 0.10818 0.24967 0.88312 0.0
C2033 C 0.10724 0.26555 0.89733 0.0
H2034 H 0.1204 0.23959 0.85458 0.0
H2035 H 0.1116 0.38569 0.00057 0.0
H2036 H 0.42743 0.71822 0.38379 0.0
H2037 H 0.39506 0.70646 0.39813 0.0
H2038 H 0.41874 0.71914 0.45826 0.0
H2039 H 0.45152 0.72989 0.44398 0.0
H2040 H 0.39947 0.6859 0.45904 0.0
H2041 H 0.38279 0.75017 0.43375 0.0
H2042 H 0.38053 0.77709 0.40876 0.0
H2043 H 0.34222 0.73874 0.3707 0.0
H2044 H 0.34448 0.71149 0.39534 0.0
H2045 H 0.28092 0.69538 0.47738 0.0
H2046 H 0.31368 0.70968 0.46636 0.0
H2047 H 0.33672 0.64965 0.45697 0.0
H2048 H 0.30437 0.63533 0.46897 0.0
H2049 H 0.33264 0.70914 0.43327 0.0
H2050 H 0.38733 0.64806 0.46316 0.0
H2051 H 0.38963 0.625 0.49179 0.0
H2052 H 0.35201 0.66416 0.52756 0.0
H2053 H 0.34971 0.68759 0.49925 0.0
C2054 C 0.42569 0.71855 0.40006 0.0
C2055 C 0.44196 0.72501 0.41277 0.0
C2056 C 0.40714 0.71193 0.40826 0.0
C2057 C 0.40428 0.71222 0.4293 0.0
C2058 C 0.42055 0.71874 0.44199 0.0
C2059 C 0.43925 0.72493 0.43382 0.0
C2060 C 0.38452 0.70532 0.43808 0.0
C2061 C 0.38487 0.69105 0.45344 0.0
C2062 C 0.36542 0.71236 0.43117 0.0
C2063 C 0.36395 0.72873 0.41632 0.0
C2064 C 0.37399 0.74743 0.41999 0.0
C2065 C 0.3727 0.76276 0.4059 0.0
C2066 C 0.36128 0.75961 0.38813 0.0
C2067 C 0.35108 0.74115 0.38445 0.0
C2068 C 0.35235 0.72577 0.39849 0.0
C2069 C 0.29304 0.68525 0.47308 0.0
C2070 C 0.29016 0.66425 0.47415 0.0
C2071 C 0.31174 0.69344 0.46673 0.0
C2072 C 0.32782 0.68078 0.46108 0.0
C2073 C 0.32479 0.65977 0.46176 0.0
C2074 C 0.30625 0.65159 0.46852 0.0
C2075 C 0.3476 0.68955 0.45406 0.0
C2076 C 0.34725 0.7041 0.43897 0.0
C2077 C 0.3667 0.68338 0.4618 0.0
C2078 C 0.36819 0.66948 0.479 0.0
C2079 C 0.37962 0.65179 0.47716 0.0
C2080 C 0.38091 0.63865 0.49333 0.0
C2081 C 0.37092 0.64308 0.51146 0.0
C2082 C 0.35968 0.66071 0.51349 0.0
C2083 C 0.35836 0.67391 0.49738 0.0
H2084 H 0.37192 0.63287 0.52395 0.0
H2085 H 0.3603 0.77149 0.37724 0.0
H2086 H 0.83977 0.49588 0.82341 0.0
H2087 H 0.82057 0.5061 0.8535 0.0
H2088 H 0.77474 0.53254 0.81571 0.0
H2089 H 0.79364 0.52205 0.78551 0.0
H2090 H 0.79337 0.55881 0.84641 0.0
H2091 H 0.76055 0.4935 0.83914 0.0
H2092 H 0.75959 0.45644 0.83517 0.0
H2093 H 0.79165 0.45118 0.89162 0.0
H2094 H 0.79308 0.48824 0.89578 0.0
H2095 H 0.73429 0.59398 0.9269 0.0
H2096 H 0.74316 0.57605 0.89561 0.0
H2097 H 0.78032 0.53544 0.92953 0.0
H2098 H 0.77054 0.55271 0.961 0.0
H2099 H 0.76379 0.51544 0.89945 0.0
H2100 H 0.8008 0.57843 0.90593 0.0
H2101 H 0.80522 0.61525 0.9107 0.0
H2102 H 0.76991 0.62472 0.85689 0.0
H2103 H 0.76505 0.58793 0.85194 0.0
C2104 C 0.82543 0.50358 0.82151 0.0
C2105 C 0.81823 0.50825 0.80213 0.0
C2106 C 0.81446 0.50933 0.83869 0.0
C2107 C 0.79625 0.52001 0.83677 0.0
C2108 C 0.78874 0.52423 0.81744 0.0
C2109 C 0.79953 0.5182 0.80024 0.0
C2110 C 0.78615 0.52839 0.85495 0.0
C2111 C 0.78651 0.54938 0.85785 0.0
C2112 C 0.77797 0.51596 0.87013 0.0
C2113 C 0.77708 0.49367 0.86768 0.0
C2114 C 0.76757 0.48445 0.85062 0.0
C2115 C 0.7669 0.46344 0.84836 0.0
C2116 C 0.7756 0.45146 0.86311 0.0
C2117 C 0.78493 0.46048 0.88019 0.0
C2118 C 0.78565 0.48149 0.88252 0.0
C2119 C 0.74408 0.58102 0.92768 0.0
C2120 C 0.75192 0.57484 0.94631 0.0
C2121 C 0.74923 0.57084 0.9098 0.0
C2122 C 0.76289 0.55474 0.91013 0.0
C2123 C 0.76985 0.54788 0.92885 0.0
C2124 C 0.76429 0.55777 0.94682 0.0
C2125 C 0.77096 0.54597 0.89097 0.0
C2126 C 0.77039 0.52493 0.88793 0.0
C2127 C 0.77944 0.55832 0.87579 0.0
C2128 C 0.78237 0.58045 0.8787 0.0
C2129 C 0.79385 0.58837 0.8952 0.0
C2130 C 0.79646 0.60923 0.89792 0.0
C2131 C 0.7878 0.62232 0.88414 0.0
C2132 C 0.77657 0.61457 0.86757 0.0
C2133 C 0.7739 0.59371 0.86479 0.0
H2134 H 0.78983 0.63846 0.88627 0.0
H2135 H 0.77506 0.4352 0.86133 0.0
H2136 H 0.65839 0.51971 0.20676 0.0
H2137 H 0.67809 0.53605 0.18012 0.0
H2138 H 0.62487 0.53354 0.14112 0.0
H2139 H 0.60504 0.51728 0.16757 0.0
H2140 H 0.68718 0.52383 0.14079 0.0
H2141 H 0.62401 0.57793 0.11572 0.0
H2142 H 0.59416 0.59522 0.13018 0.0
H2143 H 0.62172 0.59424 0.18924 0.0
H2144 H 0.65184 0.57722 0.17509 0.0
H2145 H 0.71123 0.56889 0.04631 0.0
H2146 H 0.69404 0.55128 0.0738 0.0
H2147 H 0.7026 0.60383 0.11274 0.0
H2148 H 0.71963 0.62156 0.08547 0.0
H2149 H 0.66388 0.58905 0.11442 0.0
H2150 H 0.73206 0.56369 0.11888 0.0
H2151 H 0.76327 0.54757 0.10608 0.0
H2152 H 0.72858 0.49345 0.09142 0.0
H2153 H 0.69709 0.50935 0.10388 0.0
C2154 C 0.65087 0.5226 0.1925 0.0
C2155 C 0.6301 0.51729 0.18934 0.0
C2156 C 0.66219 0.53184 0.17728 0.0
C2157 C 0.65287 0.53611 0.15875 0.0
C2158 C 0.63227 0.53053 0.15541 0.0
C2159 C 0.62098 0.52121 0.17055 0.0
C2160 C 0.6645 0.5469 0.14305 0.0
C2161 C 0.68211 0.53808 0.13498 0.0
C2162 C 0.65799 0.56561 0.13573 0.0
C2163 C 0.64007 0.57611 0.14436 0.0
C2164 C 0.62372 0.58148 0.13178 0.0
C2165 C 0.60676 0.59122 0.13992 0.0
C2166 C 0.60602 0.59576 0.16063 0.0
C2167 C 0.62228 0.59064 0.17322 0.0
C2168 C 0.63929 0.58092 0.16515 0.0
C2169 C 0.7095 0.57668 0.06074 0.0
C2170 C 0.7168 0.59664 0.06367 0.0
C2171 C 0.69974 0.56657 0.07644 0.0
C2172 C 0.69715 0.57624 0.09532 0.0
C2173 C 0.70443 0.59612 0.09828 0.0
C2174 C 0.71422 0.6062 0.08266 0.0
C2175 C 0.68644 0.56588 0.11193 0.0
C2176 C 0.66896 0.57478 0.12015 0.0
C2177 C 0.69326 0.5474 0.11958 0.0
C2178 C 0.71218 0.53779 0.11213 0.0
C2179 C 0.73105 0.54841 0.11277 0.0
C2180 C 0.7488 0.5393 0.10561 0.0
C2181 C 0.7479 0.51952 0.09789 0.0
C2182 C 0.72925 0.50878 0.09737 0.0
C2183 C 0.71145 0.51783 0.1045 0.0
H2184 H 0.76166 0.51249 0.09235 0.0
H2185 H 0.59286 0.60329 0.1669 0.0
H2186 H 0.73857 0.37942 0.41122 0.0
H2187 H 0.72733 0.39776 0.38168 0.0
H2188 H 0.71278 0.44891 0.42 0.0
H2189 H 0.7244 0.4308 0.4496 0.0
H2190 H 0.68976 0.40871 0.37495 0.0
H2191 H 0.71437 0.49203 0.39265 0.0
H2192 H 0.7432 0.51101 0.40879 0.0
H2193 H 0.78324 0.46184 0.39595 0.0
H2194 H 0.75474 0.44268 0.37949 0.0
H2195 H 0.6257 0.47338 0.324 0.0
H2196 H 0.6471 0.46069 0.3511 0.0
H2197 H 0.70078 0.46841 0.31418 0.0
H2198 H 0.67944 0.48126 0.28688 0.0
H2199 H 0.70776 0.47866 0.35543 0.0
H2200 H 0.68029 0.42388 0.31452 0.0
H2201 H 0.65298 0.40419 0.2967 0.0
H2202 H 0.62246 0.39429 0.35303 0.0
H2203 H 0.64945 0.41419 0.37116 0.0
C2204 C 0.73334 0.39472 0.41333 0.0
C2205 C 0.73224 0.40362 0.43275 0.0
C2206 C 0.72689 0.40517 0.39643 0.0
C2207 C 0.71921 0.42471 0.39861 0.0
C2208 C 0.71891 0.43396 0.4179 0.0
C2209 C 0.72548 0.42355 0.43482 0.0
C2210 C 0.70964 0.43452 0.38107 0.0
C2211 C 0.69383 0.42396 0.37066 0.0
C2212 C 0.71504 0.45436 0.37529 0.0
C2213 C 0.73234 0.46585 0.38499 0.0
C2214 C 0.72934 0.4853 0.39319 0.0
C2215 C 0.74562 0.49608 0.40242 0.0
C2216 C 0.76502 0.48761 0.40345 0.0
C2217 C 0.76819 0.46835 0.39521 0.0
C2218 C 0.75196 0.45751 0.38596 0.0
C2219 C 0.64209 0.47268 0.32172 0.0
C2220 C 0.65086 0.47811 0.30322 0.0
C2221 C 0.65429 0.46541 0.33722 0.0
C2222 C 0.67545 0.46338 0.3345 0.0
C2223 C 0.68446 0.46986 0.31652 0.0
C2224 C 0.67224 0.47712 0.30094 0.0
C2225 C 0.68773 0.45293 0.34979 0.0
C2226 C 0.70391 0.46336 0.35974 0.0
C2227 C 0.68296 0.43282 0.35499 0.0
C2228 C 0.6668 0.42067 0.34417 0.0
C2229 C 0.66768 0.41762 0.32309 0.0
C2230 C 0.65227 0.40641 0.31294 0.0
C2231 C 0.63597 0.39803 0.32372 0.0
C2232 C 0.63508 0.40081 0.3447 0.0
C2233 C 0.65044 0.41204 0.35492 0.0
H2234 H 0.62405 0.38936 0.31584 0.0
H2235 H 0.7776 0.49598 0.41061 0.0
H2236 H 0.81254 0.45968 0.70392 0.0
H2237 H 0.79317 0.44341 0.67604 0.0
H2238 H 0.83317 0.47189 0.63308 0.0
H2239 H 0.85277 0.48807 0.66082 0.0
H2240 H 0.79011 0.47201 0.62262 0.0
H2241 H 0.843 0.42654 0.64378 0.0
H2242 H 0.86166 0.40682 0.66886 0.0
H2243 H 0.80628 0.37402 0.68264 0.0
H2244 H 0.78722 0.39377 0.65783 0.0
H2245 H 0.77531 0.41103 0.53413 0.0
H2246 H 0.78815 0.43113 0.56309 0.0
H2247 H 0.75649 0.39117 0.60358 0.0
H2248 H 0.7442 0.37065 0.57475 0.0
H2249 H 0.79328 0.39742 0.61668 0.0
H2250 H 0.74033 0.44043 0.59459 0.0
H2251 H 0.72051 0.46032 0.57056 0.0
H2252 H 0.77354 0.49781 0.55969 0.0
H2253 H 0.79377 0.47797 0.58346 0.0
C2254 C 0.81708 0.46268 0.68854 0.0
C2255 C 0.83428 0.47503 0.68456 0.0
C2256 C 0.80602 0.45335 0.67266 0.0
C2257 C 0.81186 0.45639 0.65257 0.0
C2258 C 0.82845 0.46939 0.64851 0.0
C2259 C 0.83968 0.47852 0.66437 0.0
C2260 C 0.80152 0.44505 0.63581 0.0
C2261 C 0.79088 0.45572 0.62116 0.0
C2262 C 0.80215 0.42379 0.63433 0.0
C2263 C 0.81364 0.41179 0.64912 0.0
C2264 C 0.83476 0.41525 0.65228 0.0
C2265 C 0.84542 0.40404 0.66642 0.0
C2266 C 0.83515 0.38922 0.67738 0.0
C2267 C 0.81421 0.38553 0.67417 0.0
C2268 C 0.80347 0.39671 0.66006 0.0
C2269 C 0.77094 0.40664 0.5492 0.0
C2270 C 0.75883 0.3892 0.55216 0.0
C2271 C 0.77819 0.41821 0.56575 0.0
C2272 C 0.77312 0.4128 0.58555 0.0
C2273 C 0.76065 0.39563 0.58847 0.0
C2274 C 0.75363 0.38392 0.57197 0.0
C2275 C 0.78176 0.42432 0.60323 0.0
C2276 C 0.79221 0.4137 0.61811 0.0
C2277 C 0.78072 0.44561 0.605 0.0
C2278 C 0.76862 0.45759 0.59068 0.0
C2279 C 0.74782 0.45282 0.58696 0.0
C2280 C 0.7365 0.4641 0.57341 0.0
C2281 C 0.74577 0.48029 0.56357 0.0
C2282 C 0.76638 0.48525 0.56731 0.0
C2283 C 0.77777 0.47401 0.58084 0.0
H2284 H 0.73698 0.48901 0.55308 0.0
H2285 H 0.84342 0.38056 0.68832 0.0
H2286 H 0.40983 0.0545 0.25087 0.0
H2287 H 0.42287 0.08652 0.23768 0.0
H2288 H 0.36502 0.09539 0.20766 0.0
H2289 H 0.35176 0.06364 0.22099 0.0
H2290 H 0.40058 0.09791 0.18251 0.0
H2291 H 0.37522 0.12427 0.24579 0.0
H2292 H 0.37201 0.1258 0.2829 0.0
H2293 H 0.43673 0.13757 0.2889 0.0
H2294 H 0.44038 0.13581 0.25182 0.0
H2295 H 0.42565 0.19174 0.14185 0.0
H2296 H 0.4073 0.16581 0.16069 0.0
H2297 H 0.45789 0.1635 0.20288 0.0
H2298 H 0.47578 0.19018 0.18469 0.0
H2299 H 0.4244 0.15816 0.22254 0.0
H2300 H 0.4516 0.12925 0.16158 0.0
H2301 H 0.45736 0.12587 0.12487 0.0
H2302 H 0.39277 0.11645 0.11484 0.0
H2303 H 0.3866 0.12004 0.1515 0.0
C2304 C 0.39983 0.0634 0.24165 0.0
C2305 C 0.37982 0.05654 0.23689 0.0
C2306 C 0.40726 0.08169 0.23421 0.0
C2307 C 0.39485 0.09326 0.22176 0.0
C2308 C 0.37477 0.08664 0.21728 0.0
C2309 C 0.36724 0.06853 0.22494 0.0
C2310 C 0.40328 0.11156 0.21224 0.0
C2311 C 0.40548 0.11125 0.19119 0.0
C2312 C 0.41028 0.12857 0.22373 0.0
C2313 C 0.4081 0.12971 0.24603 0.0
C2314 C 0.3888 0.127 0.25502 0.0
C2315 C 0.38689 0.12795 0.27606 0.0
C2316 C 0.40416 0.13173 0.28825 0.0
C2317 C 0.42337 0.13462 0.27944 0.0
C2318 C 0.42536 0.13367 0.25841 0.0
C2319 C 0.4327 0.18588 0.15531 0.0
C2320 C 0.4522 0.19281 0.16172 0.0
C2321 C 0.42227 0.17099 0.16601 0.0
C2322 C 0.43144 0.1623 0.18291 0.0
C2323 C 0.45052 0.16989 0.18985 0.0
C2324 C 0.46076 0.18511 0.17942 0.0
C2325 C 0.42172 0.14461 0.19268 0.0
C2326 C 0.41936 0.14493 0.21379 0.0
C2327 C 0.41496 0.12736 0.18129 0.0
C2328 C 0.41862 0.12513 0.15925 0.0
C2329 C 0.43861 0.1266 0.15153 0.0
C2330 C 0.44195 0.12463 0.13074 0.0
C2331 C 0.42543 0.12101 0.11753 0.0
C2332 C 0.40554 0.11929 0.12509 0.0
C2333 C 0.40212 0.12128 0.14587 0.0
H2334 H 0.42805 0.11948 0.10143 0.0
H2335 H 0.40265 0.13247 0.30453 0.0
H2336 H 0.03029 0.81545 0.61873 0.0
H2337 H 0.04265 0.84392 0.63973 0.0
H2338 H 0.0292 0.81046 0.69344 0.0
H2339 H 0.01589 0.78225 0.67245 0.0
H2340 H 0.01985 0.84732 0.70012 0.0
H2341 H 0.07904 0.81529 0.67429 0.0
H2342 H 0.10167 0.8005 0.64846 0.0
H2343 H 0.10715 0.85781 0.61982 0.0
H2344 H 0.08432 0.87289 0.64533 0.0
H2345 H 0.11344 0.91782 0.73482 0.0
H2346 H 0.09933 0.88627 0.72029 0.0
H2347 H 0.04137 0.91489 0.71046 0.0
H2348 H 0.05516 0.94614 0.72592 0.0
H2349 H 0.08792 0.87771 0.68482 0.0
H2350 H 0.00215 0.88157 0.70858 0.0
H2351 H 0.9818 0.89318 0.73773 0.0
H2352 H 0.03377 0.88657 0.77697 0.0
H2353 H 0.05434 0.87466 0.74812 0.0
C2354 C 0.02989 0.81419 0.63501 0.0
C2355 C 0.02229 0.79658 0.64396 0.0
C2356 C 0.03705 0.83044 0.64701 0.0
C2357 C 0.0373 0.82917 0.66818 0.0
C2358 C 0.02922 0.81177 0.67715 0.0
C2359 C 0.02167 0.79565 0.66515 0.0
C2360 C 0.0463 0.84588 0.68086 0.0
C2361 C 0.03475 0.85394 0.69683 0.0
C2362 C 0.06602 0.85415 0.67698 0.0
C2363 C 0.07984 0.84518 0.66163 0.0
C2364 C 0.08497 0.82471 0.66241 0.0
C2365 C 0.09784 0.81628 0.64783 0.0
C2366 C 0.10581 0.8282 0.63248 0.0
C2367 C 0.10096 0.84859 0.63171 0.0
C2368 C 0.08807 0.8571 0.64623 0.0
C2369 C 0.0976 0.91726 0.7298 0.0
C2370 C 0.08537 0.93437 0.73149 0.0
C2371 C 0.08956 0.89925 0.72146 0.0
C2372 C 0.06923 0.8981 0.71438 0.0
C2373 C 0.05694 0.9152 0.71622 0.0
C2374 C 0.06487 0.9331 0.72495 0.0
C2375 C 0.06133 0.87944 0.70392 0.0
C2376 C 0.07307 0.87103 0.68828 0.0
C2377 C 0.04216 0.8704 0.70864 0.0
C2378 C 0.02983 0.87739 0.72613 0.0
C2379 C 0.00921 0.88251 0.72344 0.0
C2380 C -0.00236 0.88916 0.73991 0.0
C2381 C 0.0065 0.89067 0.75918 0.0
C2382 C 0.02694 0.88547 0.76202 0.0
C2383 C 0.03857 0.87879 0.74561 0.0
H2384 H -0.00247 0.89584 0.7719 0.0
H2385 H 0.11578 0.82164 0.62121 0.0
H2386 H 0.47386 0.78811 0.29832 0.0
H2387 H 0.46073 0.81678 0.27979 0.0
H2388 H 0.4211 0.83141 0.32969 0.0
H2389 H 0.43417 0.80292 0.34832 0.0
H2390 H 0.4025 0.83584 0.29139 0.0
H2391 H 0.46531 0.85489 0.32732 0.0
H2392 H 0.50186 0.85143 0.33598 0.0
H2393 H 0.51808 0.85968 0.27387 0.0
H2394 H 0.48156 0.86289 0.2648 0.0
H2395 H 0.38175 0.93881 0.28284 0.0
H2396 H 0.39251 0.90581 0.29388 0.0
H2397 H 0.43688 0.90347 0.24585 0.0
H2398 H 0.42658 0.93682 0.23503 0.0
H2399 H 0.45335 0.89084 0.27921 0.0
H2400 H 0.39133 0.87545 0.24334 0.0
H2401 H 0.35493 0.87858 0.23397 0.0
H2402 H 0.33711 0.8628 0.29403 0.0
H2403 H 0.37343 0.85985 0.30386 0.0
C2404 C 0.46206 0.79721 0.30517 0.0
C2405 C 0.45515 0.79339 0.32483 0.0
C2406 C 0.45465 0.8136 0.2946 0.0
C2407 C 0.44012 0.82629 0.30349 0.0
C2408 C 0.43232 0.82178 0.3226 0.0
C2409 C 0.43986 0.80555 0.33324 0.0
C2410 C 0.4342 0.84518 0.29372 0.0
C2411 C 0.41354 0.84793 0.28878 0.0
C2412 C 0.44877 0.86069 0.28988 0.0
C2413 C 0.47071 0.85889 0.29535 0.0
C2414 C 0.47666 0.85579 0.31549 0.0
C2415 C 0.49737 0.85391 0.32047 0.0
C2416 C 0.51228 0.85527 0.30547 0.0
C2417 C 0.50651 0.85858 0.28546 0.0
C2418 C 0.48582 0.86045 0.28039 0.0
C2419 C 0.39382 0.93131 0.27461 0.0
C2420 C 0.40327 0.94044 0.25801 0.0
C2421 C 0.39986 0.91235 0.28086 0.0
C2422 C 0.41523 0.90196 0.27045 0.0
C2423 C 0.42492 0.91116 0.25405 0.0
C2424 C 0.41902 0.93023 0.2479 0.0
C2425 C 0.42149 0.88173 0.27705 0.0
C2426 C 0.44225 0.8787 0.28147 0.0
C2427 C 0.40702 0.86592 0.28024 0.0
C2428 C 0.38513 0.86758 0.27438 0.0
C2429 C 0.37966 0.87279 0.2546 0.0
C2430 C 0.35904 0.87451 0.24919 0.0
C2431 C 0.34372 0.87093 0.26341 0.0
C2432 C 0.349 0.86558 0.28304 0.0
C2433 C 0.3696 0.86386 0.28853 0.0
H2434 H 0.32776 0.87227 0.2592 0.0
H2435 H 0.52831 0.85381 0.30937 0.0
H2436 H 0.81495 0.60968 0.03397 0.0
H2437 H 0.84671 0.6251 0.04764 0.0
H2438 H 0.83257 0.68094 0.0189 0.0
H2439 H 0.80089 0.66572 0.00524 0.0
H2440 H 0.87337 0.67024 0.01463 0.0
H2441 H 0.82231 0.67575 0.06739 0.0
H2442 H 0.79662 0.66207 0.09088 0.0
H2443 H 0.84249 0.62573 0.11812 0.0
H2444 H 0.86839 0.63899 0.09458 0.0
H2445 H 0.93079 0.746 0.06458 0.0
H2446 H 0.90303 0.72442 0.05123 0.0
H2447 H 0.92221 0.67627 0.08938 0.0
H2448 H 0.94989 0.69803 0.10326 0.0
H2449 H 0.88155 0.6787 0.08899 0.0
H2450 H 0.93353 0.67543 0.03896 0.0
H2451 H 0.95952 0.68854 0.01549 0.0
H2452 H 0.91294 0.71934 0.98289 0.0
H2453 H 0.88669 0.70666 0.00635 0.0
C2454 C 0.81872 0.62521 0.03042 0.0
C2455 C 0.80539 0.63657 0.01863 0.0
C2456 C 0.83681 0.63397 0.03829 0.0
C2457 C 0.84184 0.65418 0.03439 0.0
C2458 C 0.82892 0.66531 0.02207 0.0
C2459 C 0.8108 0.65663 0.01433 0.0
C2460 C 0.8602 0.6641 0.04364 0.0
C2461 C 0.87515 0.67221 0.03088 0.0
C2462 C 0.86275 0.66604 0.06485 0.0
C2463 C 0.84722 0.65818 0.07907 0.0
C2464 C 0.82687 0.66471 0.07828 0.0
C2465 C 0.81228 0.65706 0.09162 0.0
C2466 C 0.8179 0.64299 0.10594 0.0
C2467 C 0.83815 0.6366 0.10699 0.0
C2468 C 0.85279 0.64418 0.09366 0.0
C2469 C 0.92911 0.73085 0.07021 0.0
C2470 C 0.94265 0.72367 0.08488 0.0
C2471 C 0.91329 0.71849 0.06247 0.0
C2472 C 0.91085 0.69859 0.06897 0.0
C2473 C 0.92393 0.69154 0.08405 0.0
C2474 C 0.93972 0.70399 0.09196 0.0
C2475 C 0.89455 0.68532 0.05996 0.0
C2476 C 0.87999 0.67652 0.07275 0.0
C2477 C 0.89243 0.68261 0.03875 0.0
C2478 C 0.90816 0.6902 0.02451 0.0
C2479 C 0.92884 0.68511 0.02687 0.0
C2480 C 0.94362 0.69245 0.01356 0.0
C2481 C 0.93789 0.70479 -0.00227 0.0
C2482 C 0.91735 0.70979 -0.00484 0.0
C2483 C 0.90251 0.7025 0.00845 0.0
H2484 H 0.94936 0.71046 0.98744 0.0
H2485 H 0.80659 0.63709 0.11626 0.0
H2486 H 0.53727 0.27186 0.5722 0.0
H2487 H 0.56391 0.28685 0.5513 0.0
H2488 H 0.60993 0.26932 0.59431 0.0
H2489 H 0.58306 0.25532 0.6159 0.0
H2490 H 0.61863 0.30481 0.58338 0.0
H2491 H 0.60058 0.24383 0.54649 0.0
H2492 H 0.57729 0.21903 0.52943 0.0
H2493 H 0.55898 0.26381 0.48744 0.0
H2494 H 0.58197 0.28895 0.5044 0.0
H2495 H 0.69289 0.30769 0.49426 0.0
H2496 H 0.6649 0.29033 0.51163 0.0
H2497 H 0.64001 0.3477 0.5296 0.0
H2498 H 0.66799 0.3652 0.51237 0.0
H2499 H 0.62245 0.2903 0.50958 0.0
H2500 H 0.62777 0.34514 0.57835 0.0
H2501 H 0.65359 0.36753 0.59527 0.0
H2502 H 0.70166 0.32934 0.57411 0.0
H2503 H 0.67612 0.30666 0.55724 0.0
C2504 C 0.55309 0.27113 0.57715 0.0
C2505 C 0.55817 0.26237 0.5956 0.0
C2506 C 0.56833 0.2796 0.56513 0.0
C2507 C 0.58901 0.27887 0.57099 0.0
C2508 C 0.59409 0.27004 0.58944 0.0
C2509 C 0.57878 0.26201 0.60173 0.0
C2510 C 0.60526 0.28785 0.5582 0.0
C2511 C 0.61942 0.30153 0.56727 0.0
C2512 C 0.60657 0.28347 0.53717 0.0
C2513 C 0.59289 0.26831 0.52682 0.0
C2514 C 0.5915 0.24841 0.53369 0.0
C2515 C 0.57836 0.23429 0.52403 0.0
C2516 C 0.56663 0.23985 0.50739 0.0
C2517 C 0.56806 0.25953 0.50034 0.0
C2518 C 0.58117 0.27371 0.50995 0.0
C2519 C 0.68129 0.31661 0.50165 0.0
C2520 C 0.68275 0.33781 0.50218 0.0
C2521 C 0.66529 0.30667 0.5115 0.0
C2522 C 0.65061 0.31776 0.52208 0.0
C2523 C 0.65139 0.33891 0.52168 0.0
C2524 C 0.66734 0.34887 0.51181 0.0
C2525 C 0.6354 0.3073 0.5348 0.0
C2526 C 0.62152 0.29343 0.52571 0.0
C2527 C 0.63466 0.31104 0.55588 0.0
C2528 C 0.65005 0.32432 0.56643 0.0
C2529 C 0.64384 0.34149 0.57741 0.0
C2530 C 0.65843 0.35424 0.58696 0.0
C2531 C 0.67925 0.34988 0.58572 0.0
C2532 C 0.68554 0.33273 0.575 0.0
C2533 C 0.67102 0.31995 0.56543 0.0
H2534 H 0.69052 0.35979 0.5931 0.0
H2535 H 0.55646 0.2289 0.49995 0.0
H2536 H 0.23267 0.41965 0.04048 0.0
H2537 H 0.22203 0.44082 0.06923 0.0
H2538 H 0.18945 0.38997 0.09411 0.0
H2539 H 0.20002 0.36875 0.0657 0.0
H2540 H 0.18359 0.45066 0.08223 0.0
H2541 H 0.19461 0.39161 0.14482 0.0
H2542 H 0.21744 0.3635 0.1523 0.0
H2543 H 0.26466 0.39026 0.11613 0.0
H2544 H 0.24224 0.41867 0.10868 0.0
H2545 H 0.12184 0.46798 0.16807 0.0
H2546 H 0.13991 0.45472 0.13855 0.0
H2547 H 0.19789 0.4676 0.16825 0.0
H2548 H 0.17994 0.48067 0.19794 0.0
H2549 H 0.19676 0.43036 0.1528 0.0
H2550 H 0.1828 0.49576 0.12893 0.0
H2551 H 0.16186 0.52524 0.12143 0.0
H2552 H 0.12461 0.48897 0.08046 0.0
H2553 H 0.14514 0.45919 0.08793 0.0
C2554 C 0.2233 0.41296 0.05212 0.0
C2555 C 0.21725 0.39248 0.05082 0.0
C2556 C 0.21719 0.4251 0.06847 0.0
C2557 C 0.20515 0.41689 0.08386 0.0
C2558 C 0.199 0.39652 0.08253 0.0
C2559 C 0.205 0.38443 0.06621 0.0
C2560 C 0.19864 0.42952 0.10128 0.0
C2561 C 0.18655 0.44633 0.09768 0.0
C2562 C 0.20293 0.42409 0.1214 0.0
C2563 C 0.21666 0.4072 0.12608 0.0
C2564 C 0.2099 0.39156 0.13856 0.0
C2565 C 0.22277 0.37556 0.14277 0.0
C2566 C 0.24247 0.37507 0.13466 0.0
C2567 C 0.24937 0.39062 0.12236 0.0
C2568 C 0.23658 0.40666 0.11811 0.0
C2569 C 0.13844 0.46815 0.16826 0.0
C2570 C 0.14947 0.4753 0.18535 0.0
C2571 C 0.14875 0.46067 0.15133 0.0
C2572 C 0.17025 0.46033 0.15116 0.0
C2573 C 0.1813 0.46775 0.16808 0.0
C2574 C 0.17101 0.47523 0.18501 0.0
C2575 C 0.18111 0.45112 0.13378 0.0
C2576 C 0.19399 0.43489 0.13739 0.0
C2577 C 0.17782 0.45732 0.1137 0.0
C2578 C 0.16544 0.4752 0.1091 0.0
C2579 C 0.17005 0.49403 0.11843 0.0
C2580 C 0.15827 0.5108 0.11417 0.0
C2581 C 0.14189 0.50897 0.10051 0.0
C2582 C 0.13729 0.49036 0.09105 0.0
C2583 C 0.14902 0.47354 0.09527 0.0
H2584 H 0.13278 0.52197 0.09723 0.0
H2585 H 0.25239 0.36266 0.13792 0.0
H2586 H 0.34781 0.45853 0.79771 0.0
H2587 H 0.33741 0.4436 0.8295 0.0
H2588 H 0.29266 0.48991 0.83818 0.0
H2589 H 0.30296 0.50505 0.80624 0.0
H2590 H 0.31634 0.48235 0.87315 0.0
H2591 H 0.27616 0.44551 0.82304 0.0
H2592 H 0.27055 0.42556 0.79153 0.0
H2593 H 0.3096 0.37946 0.81357 0.0
H2594 H 0.31567 0.39928 0.84511 0.0
H2595 H 0.25971 0.43329 0.95064 0.0
H2596 H 0.27208 0.45142 0.92122 0.0
H2597 H 0.31061 0.40145 0.9053 0.0
H2598 H 0.29781 0.38301 0.93433 0.0
H2599 H 0.28961 0.4118 0.87389 0.0
H2600 H 0.33022 0.44792 0.92378 0.0
H2601 H 0.33692 0.46773 0.9552 0.0
H2602 H 0.29864 0.5148 0.93392 0.0
H2603 H 0.29149 0.49515 0.90248 0.0
C2604 C 0.33574 0.46558 0.80633 0.0
C2605 C 0.32615 0.48294 0.79939 0.0
C2606 C 0.32981 0.45699 0.82449 0.0
C2607 C 0.31421 0.4656 0.83608 0.0
C2608 C 0.30474 0.48307 0.82939 0.0
C2609 C 0.31057 0.49161 0.81111 0.0
C2610 C 0.3077 0.45612 0.85508 0.0
C2611 C 0.31022 0.46702 0.87336 0.0
C2612 C 0.30023 0.43597 0.85528 0.0
C2613 C 0.29652 0.42397 0.83636 0.0
C2614 C 0.28368 0.4312 0.8211 0.0
C2615 C 0.28039 0.41989 0.80325 0.0
C2616 C 0.28975 0.40128 0.80053 0.0
C2617 C 0.30238 0.39389 0.81569 0.0
C2618 C 0.30573 0.40515 0.83356 0.0
C2619 C 0.27107 0.42631 0.94105 0.0
C2620 C 0.27773 0.4067 0.94473 0.0
C2621 C 0.27819 0.43672 0.92427 0.0
C2622 C 0.29236 0.42784 0.91108 0.0
C2623 C 0.29962 0.40857 0.91522 0.0
C2624 C 0.29235 0.39808 0.93185 0.0
C2625 C 0.29845 0.43791 0.89217 0.0
C2626 C 0.29577 0.42712 0.87381 0.0
C2627 C 0.3059 0.45811 0.89196 0.0
C2628 C 0.31016 0.46996 0.91086 0.0
C2629 C 0.32309 0.46242 0.92587 0.0
C2630 C 0.327 0.47363 0.94367 0.0
C2631 C 0.31817 0.49248 0.94658 0.0
C2632 C 0.30545 0.50018 0.93166 0.0
C2633 C 0.30148 0.48902 0.91384 0.0
H2634 H 0.32121 0.50115 0.96036 0.0
H2635 H 0.28718 0.39255 0.78669 0.0
H2636 H 0.25677 0.55089 0.53952 0.0
H2637 H 0.27238 0.53155 0.56654 0.0
H2638 H 0.31832 0.57855 0.57578 0.0
H2639 H 0.3026 0.59816 0.5491 0.0
H2640 H 0.33275 0.5363 0.57681 0.0
H2641 H 0.28103 0.58113 0.60474 0.0
H2642 H 0.24605 0.59443 0.60649 0.0
H2643 H 0.22205 0.53514 0.61842 0.0
H2644 H 0.25689 0.52144 0.61643 0.0
H2645 H 0.37151 0.52743 0.6754 0.0
H2646 H 0.35741 0.53737 0.643 0.0
H2647 H 0.30395 0.49942 0.65261 0.0
H2648 H 0.31761 0.49025 0.68561 0.0
H2649 H 0.29196 0.53274 0.63973 0.0
H2650 H 0.34274 0.48777 0.61649 0.0
H2651 H 0.37687 0.4727 0.61381 0.0
H2652 H 0.40177 0.52838 0.59173 0.0
H2653 H 0.36785 0.54389 0.59454 0.0
C2654 C 0.2704 0.55694 0.54709 0.0
C2655 C 0.27841 0.57608 0.54234 0.0
C2656 C 0.27926 0.54589 0.56249 0.0
C2657 C 0.29641 0.55371 0.57312 0.0
C2658 C 0.30511 0.57229 0.56767 0.0
C2659 C 0.29606 0.58349 0.55252 0.0
C2660 C 0.30424 0.54348 0.59111 0.0
C2661 C 0.32396 0.53553 0.59064 0.0
C2662 C 0.2924 0.54196 0.60883 0.0
C2663 C 0.27151 0.55023 0.61019 0.0
C2664 C 0.26827 0.5709 0.60755 0.0
C2665 C 0.24848 0.57852 0.60862 0.0
C2666 C 0.23183 0.56562 0.61249 0.0
C2667 C 0.23495 0.5451 0.61537 0.0
C2668 C 0.25471 0.53741 0.61428 0.0
C2669 C 0.35682 0.52109 0.67053 0.0
C2670 C 0.34564 0.50809 0.68301 0.0
C2671 C 0.34883 0.52665 0.6519 0.0
C2672 C 0.32975 0.51887 0.6451 0.0
C2673 C 0.31871 0.50561 0.65747 0.0
C2674 C 0.32652 0.50036 0.67631 0.0
C2675 C 0.32081 0.52563 0.62574 0.0
C2676 C 0.3008 0.53305 0.6259 0.0
C2677 C 0.3323 0.5263 0.60764 0.0
C2678 C 0.35276 0.51703 0.60587 0.0
C2679 C 0.35552 0.49685 0.6112 0.0
C2680 C 0.37483 0.48822 0.60964 0.0
C2681 C 0.39148 0.49958 0.60264 0.0
C2682 C 0.38885 0.51959 0.59716 0.0
C2683 C 0.36958 0.5283 0.59871 0.0
H2684 H 0.40642 0.49287 0.60144 0.0
H2685 H 0.21652 0.57155 0.61332 0.0
H2686 H 0.13794 0.53101 0.29716 0.0
H2687 H 0.14979 0.54949 0.32748 0.0
H2688 H 0.1945 0.50389 0.3383 0.0
H2689 H 0.18269 0.48517 0.30798 0.0
H2690 H 0.17401 0.51563 0.373 0.0
H2691 H 0.2098 0.54694 0.3184 0.0
H2692 H 0.21285 0.56335 0.28544 0.0
H2693 H 0.17528 0.61169 0.30674 0.0
H2694 H 0.17177 0.59541 0.33975 0.0
H2695 H 0.23408 0.57179 0.44501 0.0
H2696 H 0.22261 0.55224 0.4152 0.0
H2697 H 0.18017 0.59884 0.40053 0.0
H2698 H 0.19178 0.61868 0.43012 0.0
H2699 H 0.20002 0.58614 0.36765 0.0
H2700 H 0.1637 0.55507 0.42193 0.0
H2701 H 0.15995 0.53874 0.45485 0.0
H2702 H 0.19762 0.49016 0.43433 0.0
H2703 H 0.20183 0.50635 0.40136 0.0
C2704 C 0.15025 0.52483 0.306 0.0
C2705 C 0.15945 0.50665 0.30008 0.0
C2706 C 0.15704 0.53546 0.32328 0.0
C2707 C 0.17317 0.52815 0.33496 0.0
C2708 C 0.18206 0.50978 0.32942 0.0
C2709 C 0.17533 0.49916 0.31207 0.0
C2710 C 0.18087 0.53985 0.35283 0.0
C2711 C 0.17998 0.53095 0.37184 0.0
C2712 C 0.18819 0.55998 0.35128 0.0
C2713 C 0.19036 0.56986 0.33148 0.0
C2714 C 0.20206 0.56099 0.316 0.0
C2715 C 0.20389 0.57028 0.29732 0.0
C2716 C 0.19423 0.58852 0.29398 0.0
C2717 C 0.18274 0.59754 0.30934 0.0
C2718 C 0.18084 0.5883 0.32804 0.0
C2719 C 0.22231 0.57791 0.43545 0.0
C2720 C 0.21381 0.59679 0.43999 0.0
C2721 C 0.21571 0.56666 0.41846 0.0
C2722 C 0.20035 0.57398 0.4058 0.0
C2723 C 0.19202 0.59291 0.41013 0.0
C2724 C 0.19865 0.6042 0.42708 0.0
C2725 C 0.19309 0.56198 0.38791 0.0
C2726 C 0.19408 0.57082 0.36886 0.0
C2727 C 0.18579 0.54183 0.38945 0.0
C2728 C 0.18325 0.53203 0.40925 0.0
C2729 C 0.17132 0.54099 0.42449 0.0
C2730 C 0.16909 0.53174 0.44316 0.0
C2731 C 0.17859 0.51345 0.4467 0.0
C2732 C 0.1903 0.50435 0.43157 0.0
C2733 C 0.1926 0.51354 0.41289 0.0
H2734 H 0.17684 0.50632 0.46116 0.0
H2735 H 0.19567 0.5957 0.27951 0.0
loop_
_geom_bond_atom_site_label_1
_geom_bond_atom_site_label_2
_geom_bond_distance
_geom_bond_site_symmetry_2
_ccdc_geom_bond_type
C0 O1 1.306 . S
C0 O3 1.160 . S
O1 C0 1.306 . S
O1 Cd2 2.228 . S
Cd2 O1 2.228 . S
Cd2 O6 2.273 1_655 S
Cd2 O10 2.277 . S
O3 C0 1.160 . S
O3 Cd4 2.203 1_655 S
Cd4 O3 2.203 1_455 S
Cd4 O6 2.411 . S
Cd4 O7 2.333 . S
Cd4 O8 2.352 . S
Cd4 O12 2.277 1_455 S
Cd4 O13 2.356 . S
C5 O10 1.209 . S
C5 O12 1.226 . S
O6 Cd2 2.273 1_455 S
O6 Cd4 2.411 . S
O6 C9 1.320 . S
O7 Cd4 2.333 . S
O7 C9 1.214 . S
O8 Cd4 2.352 . S
O8 C11 1.258 . S
C9 O6 1.320 . S
C9 O7 1.214 . S
O10 Cd2 2.277 . S
O10 C5 1.209 . S
C11 O8 1.258 . S
C11 O13 1.282 . S
O12 Cd4 2.277 1_655 S
O12 C5 1.226 . S
O13 Cd4 2.356 . S
O13 C11 1.282 . S
C14 O15 1.306 . S
C14 O17 1.160 . S
O15 C14 1.306 . S
O15 Cd16 2.228 1_655 S
Cd16 O15 2.228 1_455 S
Cd16 O20 2.273 . S
Cd16 O24 2.277 . S
O17 C14 1.160 . S
O17 Cd18 2.184 1_655 S
Cd18 O17 2.184 1_455 S
Cd18 O20 2.422 . S
Cd18 O21 2.353 . S
Cd18 O22 2.341 1_455 S
Cd18 O26 2.283 . S
Cd18 O27 2.352 1_455 S
C19 O24 1.209 . S
C19 O26 1.226 . S
O20 Cd16 2.273 . S
O20 Cd18 2.422 . S
O20 C23 1.320 . S
O21 Cd18 2.353 . S
O21 C23 1.214 . S
O22 Cd18 2.341 1_655 S
O22 C25 1.258 . S
C23 O20 1.320 . S
C23 O21 1.214 . S
O24 Cd16 2.277 . S
O24 C19 1.209 . S
C25 O22 1.258 . S
C25 O27 1.282 . S
O26 Cd18 2.283 . S
O26 C19 1.226 . S
O27 Cd18 2.352 1_655 S
O27 C25 1.282 . S
C28 O29 1.306 . S
C28 O31 1.160 . S
O29 C28 1.306 . S
O29 Cd30 2.228 . S
Cd30 O29 2.228 . S
Cd30 O34 2.273 . S
Cd30 O38 2.277 . S
O31 C28 1.160 . S
O31 Cd32 2.203 . S
Cd32 O31 2.203 . S
Cd32 O34 2.411 . S
Cd32 O35 2.333 . S
Cd32 O36 2.352 . S
Cd32 O40 2.277 . S
Cd32 O41 2.356 . S
C33 O38 1.209 . S
C33 O40 1.226 . S
O34 Cd30 2.273 . S
O34 Cd32 2.411 . S
O34 C37 1.320 . S
O35 Cd32 2.333 . S
O35 C37 1.214 . S
O36 Cd32 2.352 . S
O36 C39 1.258 . S
C37 O34 1.320 . S
C37 O35 1.214 . S
O38 Cd30 2.277 . S
O38 C33 1.209 . S
C39 O36 1.258 . S
C39 O41 1.282 . S
O40 Cd32 2.277 . S
O40 C33 1.226 . S
O41 Cd32 2.356 . S
O41 C39 1.282 . S
C42 O43 1.306 . S
C42 O45 1.160 . S
O43 C42 1.306 . S
O43 Cd44 2.228 . S
Cd44 O43 2.228 . S
Cd44 O48 2.273 . S
Cd44 O52 2.277 . S
O45 C42 1.160 . S
O45 Cd46 2.203 . S
Cd46 O45 2.203 . S
Cd46 O48 2.411 . S
Cd46 O49 2.333 . S
Cd46 O50 2.352 . S
Cd46 O54 2.277 . S
Cd46 O55 2.356 . S
C47 O52 1.209 . S
C47 O54 1.226 . S
O48 Cd44 2.273 . S
O48 Cd46 2.411 . S
O48 C51 1.320 . S
O49 Cd46 2.333 . S
O49 C51 1.214 . S
O50 Cd46 2.352 . S
O50 C53 1.258 . S
C51 O48 1.320 . S
C51 O49 1.214 . S
O52 Cd44 2.277 . S
O52 C47 1.209 . S
C53 O50 1.258 . S
C53 O55 1.282 . S
O54 Cd46 2.277 . S
O54 C47 1.226 . S
O55 Cd46 2.356 . S
O55 C53 1.282 . S
C56 O57 1.306 . S
C56 O59 1.160 . S
O57 C56 1.306 . S
O57 Cd58 2.228 . S
Cd58 O57 2.228 . S
Cd58 O62 2.273 1_655 S
Cd58 O66 2.277 . S
O59 C56 1.160 . S
O59 Cd60 2.203 1_655 S
Cd60 O59 2.203 1_455 S
Cd60 O62 2.411 . S
Cd60 O63 2.333 . S
Cd60 O64 2.352 . S
Cd60 O68 2.277 1_455 S
Cd60 O69 2.356 . S
C61 O66 1.209 . S
C61 O68 1.226 . S
O62 Cd58 2.273 1_455 S
O62 Cd60 2.411 . S
O62 C65 1.320 . S
O63 Cd60 2.333 . S
O63 C65 1.214 . S
O64 Cd60 2.352 . S
O64 C67 1.258 . S
C65 O62 1.320 . S
C65 O63 1.214 . S
O66 Cd58 2.277 . S
O66 C61 1.209 . S
C67 O64 1.258 . S
C67 O69 1.282 . S
O68 Cd60 2.277 1_655 S
O68 C61 1.226 . S
O69 Cd60 2.356 . S
O69 C67 1.282 . S
C70 O71 1.306 . S
C70 O73 1.160 . S
O71 C70 1.306 . S
O71 Cd72 2.228 . S
Cd72 O71 2.228 . S
Cd72 O76 2.273 . S
Cd72 O80 2.277 . S
O73 C70 1.160 . S
O73 Cd74 2.203 . S
Cd74 O73 2.203 . S
Cd74 O76 2.411 . S
Cd74 O77 2.333 . S
Cd74 O78 2.352 . S
Cd74 O82 2.277 . S
Cd74 O83 2.356 . S
C75 O80 1.209 . S
C75 O82 1.226 . S
O76 Cd72 2.273 . S
O76 Cd74 2.411 . S
O76 C79 1.320 . S
O77 Cd74 2.333 . S
O77 C79 1.214 . S
O78 Cd74 2.352 . S
O78 C81 1.258 . S
C79 O76 1.320 . S
C79 O77 1.214 . S
O80 Cd72 2.277 . S
O80 C75 1.209 . S
C81 O78 1.258 . S
C81 O83 1.282 . S
O82 Cd74 2.277 . S
O82 C75 1.226 . S
O83 Cd74 2.356 . S
O83 C81 1.282 . S
C84 O85 1.306 . S
C84 O87 1.160 . S
O85 C84 1.306 . S
O85 Cd86 2.228 . S
Cd86 O85 2.228 . S
Cd86 O90 2.273 . S
Cd86 O94 2.277 . S
O87 C84 1.160 . S
O87 Cd88 2.203 . S
Cd88 O87 2.203 . S
Cd88 O90 2.411 . S
Cd88 O91 2.333 . S
Cd88 O92 2.352 . S
Cd88 O96 2.277 . S
Cd88 O97 2.356 . S
C89 O94 1.209 . S
C89 O96 1.226 . S
O90 Cd86 2.273 . S
O90 Cd88 2.411 . S
O90 C93 1.320 . S
O91 Cd88 2.333 . S
O91 C93 1.214 . S
O92 Cd88 2.352 . S
O92 C95 1.258 . S
C93 O90 1.320 . S
C93 O91 1.214 . S
O94 Cd86 2.277 . S
O94 C89 1.209 . S
C95 O92 1.258 . S
C95 O97 1.282 . S
O96 Cd88 2.277 . S
O96 C89 1.226 . S
O97 Cd88 2.356 . S
O97 C95 1.282 . S
C98 O99 1.306 . S
C98 O101 1.160 . S
O99 C98 1.306 . S
O99 Cd100 2.228 1_655 S
Cd100 O99 2.228 1_455 S
Cd100 O104 2.273 . S
Cd100 O108 2.277 . S
O101 C98 1.160 . S
O101 Cd102 2.178 1_655 S
Cd102 O101 2.178 1_455 S
Cd102 O104 2.426 . S
Cd102 O105 2.359 . S
Cd102 O106 2.337 1_455 S
Cd102 O110 2.286 . S
Cd102 O111 2.350 1_455 S
C103 O108 1.209 . S
C103 O110 1.226 . S
O104 Cd100 2.273 . S
O104 Cd102 2.426 . S
O104 C107 1.320 . S
O105 Cd102 2.359 . S
O105 C107 1.214 . S
O106 Cd102 2.337 1_655 S
O106 C109 1.258 . S
C107 O104 1.320 . S
C107 O105 1.214 . S
O108 Cd100 2.277 . S
O108 C103 1.209 . S
C109 O106 1.258 . S
C109 O111 1.282 . S
O110 Cd102 2.286 . S
O110 C103 1.226 . S
O111 Cd102 2.350 1_655 S
O111 C109 1.282 . S
C112 O113 1.306 . S
C112 O115 1.160 . S
O113 C112 1.306 . S
O113 Cd114 2.228 . S
Cd114 O113 2.228 . S
Cd114 O118 2.273 1_565 S
Cd114 O122 2.277 . S
O115 C112 1.160 . S
O115 Cd116 2.203 1_565 S
Cd116 O115 2.203 1_545 S
Cd116 O118 2.411 . S
Cd116 O119 2.333 . S
Cd116 O120 2.352 . S
Cd116 O124 2.277 1_545 S
Cd116 O125 2.356 . S
C117 O122 1.209 . S
C117 O124 1.226 . S
O118 Cd114 2.273 1_545 S
O118 Cd116 2.411 . S
O118 C121 1.320 . S
O119 Cd116 2.333 . S
O119 C121 1.214 . S
O120 Cd116 2.352 . S
O120 C123 1.258 . S
C121 O118 1.320 . S
C121 O119 1.214 . S
O122 Cd114 2.277 . S
O122 C117 1.209 . S
C123 O120 1.258 . S
C123 O125 1.282 . S
O124 Cd116 2.277 1_565 S
O124 C117 1.226 . S
O125 Cd116 2.356 . S
O125 C123 1.282 . S
C126 O127 1.306 . S
C126 O129 1.160 . S
O127 C126 1.306 . S
O127 Cd128 2.228 . S
Cd128 O127 2.228 . S
Cd128 O132 2.273 . S
Cd128 O136 2.277 . S
O129 C126 1.160 . S
O129 Cd130 2.203 . S
Cd130 O129 2.203 . S
Cd130 O132 2.411 . S
Cd130 O133 2.333 . S
Cd130 O134 2.352 . S
Cd130 O138 2.277 . S
Cd130 O139 2.356 . S
C131 O136 1.209 . S
C131 O138 1.226 . S
O132 Cd128 2.273 . S
O132 Cd130 2.411 . S
O132 C135 1.320 . S
O133 Cd130 2.333 . S
O133 C135 1.214 . S
O134 Cd130 2.352 . S
O134 C137 1.258 . S
C135 O132 1.320 . S
C135 O133 1.214 . S
O136 Cd128 2.277 . S
O136 C131 1.209 . S
C137 O134 1.258 . S
C137 O139 1.282 . S
O138 Cd130 2.277 . S
O138 C131 1.226 . S
O139 Cd130 2.356 . S
O139 C137 1.282 . S
C140 O141 1.306 . S
C140 O143 1.160 . S
O141 C140 1.306 . S
O141 Cd142 2.228 . S
Cd142 O141 2.228 . S
Cd142 O146 2.273 1_545 S
Cd142 O150 2.277 . S
O143 C140 1.160 . S
O143 Cd144 2.203 . S
Cd144 O143 2.203 . S
Cd144 O146 2.411 1_545 S
Cd144 O147 2.333 1_545 S
Cd144 O148 2.352 1_545 S
Cd144 O152 2.277 . S
Cd144 O153 2.356 1_545 S
C145 O150 1.209 . S
C145 O152 1.226 . S
O146 Cd142 2.273 1_565 S
O146 Cd144 2.411 1_565 S
O146 C149 1.320 . S
O147 Cd144 2.333 1_565 S
O147 C149 1.214 . S
O148 Cd144 2.352 1_565 S
O148 C151 1.258 . S
C149 O146 1.320 . S
C149 O147 1.214 . S
O150 Cd142 2.277 . S
O150 C145 1.209 . S
C151 O148 1.258 . S
C151 O153 1.282 . S
O152 Cd144 2.277 . S
O152 C145 1.226 . S
O153 Cd144 2.356 1_565 S
O153 C151 1.282 . S
C154 O155 1.306 1_556 S
C154 O157 1.160 . S
O155 C154 1.306 1_554 S
O155 Cd156 2.228 . S
Cd156 O155 2.228 . S
Cd156 O160 2.273 . S
Cd156 O164 2.277 . S
O157 C154 1.160 . S
O157 Cd158 2.203 1_556 S
Cd158 O157 2.203 1_554 S
Cd158 O160 2.411 . S
Cd158 O161 2.333 . S
Cd158 O162 2.352 1_554 S
Cd158 O166 2.277 . S
Cd158 O167 2.356 1_554 S
C159 O164 1.209 . S
C159 O166 1.226 . S
O160 Cd156 2.273 . S
O160 Cd158 2.411 . S
O160 C163 1.320 . S
O161 Cd158 2.333 . S
O161 C163 1.214 . S
O162 Cd158 2.352 1_556 S
O162 C165 1.258 . S
C163 O160 1.320 . S
C163 O161 1.214 . S
O164 Cd156 2.277 . S
O164 C159 1.209 . S
C165 O162 1.258 . S
C165 O167 1.282 . S
O166 Cd158 2.277 . S
O166 C159 1.226 . S
O167 Cd158 2.356 1_556 S
O167 C165 1.282 . S
C168 O169 1.306 . S
C168 O171 1.160 . S
O169 C168 1.306 . S
O169 Cd170 2.228 . S
Cd170 O169 2.228 . S
Cd170 O174 2.273 1_554 S
Cd170 O178 2.277 . S
O171 C168 1.160 . S
O171 Cd172 2.203 . S
Cd172 O171 2.203 . S
Cd172 O174 2.411 1_554 S
Cd172 O175 2.333 1_554 S
Cd172 O176 2.352 1_554 S
Cd172 O180 2.277 . S
Cd172 O181 2.356 1_554 S
C173 O178 1.209 . S
C173 O180 1.226 . S
O174 Cd170 2.273 1_556 S
O174 Cd172 2.411 1_556 S
O174 C177 1.320 . S
O175 Cd172 2.333 1_556 S
O175 C177 1.214 . S
O176 Cd172 2.352 1_556 S
O176 C179 1.258 . S
C177 O174 1.320 . S
C177 O175 1.214 . S
O178 Cd170 2.277 . S
O178 C173 1.209 . S
C179 O176 1.258 . S
C179 O181 1.282 . S
O180 Cd172 2.277 . S
O180 C173 1.226 . S
O181 Cd172 2.356 1_556 S
O181 C179 1.282 . S
C182 O183 1.306 . S
C182 O185 1.160 . S
O183 C182 1.306 . S
O183 Cd184 2.228 . S
Cd184 O183 2.228 . S
Cd184 O188 2.273 1_556 S
Cd184 O192 2.277 . S
O185 C182 1.160 . S
O185 Cd186 2.203 1_556 S
Cd186 O185 2.203 1_554 S
Cd186 O188 2.411 . S
Cd186 O189 2.333 . S
Cd186 O190 2.352 . S
Cd186 O194 2.277 1_554 S
Cd186 O195 2.356 . S
C187 O192 1.209 . S
C187 O194 1.226 . S
O188 Cd184 2.273 1_554 S
O188 Cd186 2.411 . S
O188 C191 1.320 . S
O189 Cd186 2.333 . S
O189 C191 1.214 . S
O190 Cd186 2.352 . S
O190 C193 1.258 . S
C191 O188 1.320 . S
C191 O189 1.214 . S
O192 Cd184 2.277 . S
O192 C187 1.209 . S
C193 O190 1.258 . S
C193 O195 1.282 . S
O194 Cd186 2.277 1_556 S
O194 C187 1.226 . S
O195 Cd186 2.356 . S
O195 C193 1.282 . S
C196 O197 1.306 . S
C196 O199 1.160 . S
O197 C196 1.306 . S
O197 Cd198 2.228 . S
Cd198 O197 2.228 . S
Cd198 O202 2.273 . S
Cd198 O206 2.277 . S
O199 C196 1.160 . S
O199 Cd200 2.203 . S
Cd200 O199 2.203 . S
Cd200 O202 2.411 . S
Cd200 O203 2.333 . S
Cd200 O204 2.352 . S
Cd200 O208 2.277 . S
Cd200 O209 2.356 . S
C201 O206 1.209 . S
C201 O208 1.226 . S
O202 Cd198 2.273 . S
O202 Cd200 2.411 . S
O202 C205 1.320 . S
O203 Cd200 2.333 . S
O203 C205 1.214 . S
O204 Cd200 2.352 . S
O204 C207 1.258 . S
C205 O202 1.320 . S
C205 O203 1.214 . S
O206 Cd198 2.277 . S
O206 C201 1.209 . S
C207 O204 1.258 . S
C207 O209 1.282 . S
O208 Cd200 2.277 . S
O208 C201 1.226 . S
O209 Cd200 2.356 . S
O209 C207 1.282 . S
C210 O211 1.306 . S
C210 O213 1.160 . S
O211 C210 1.306 . S
O211 Cd212 2.228 . S
Cd212 O211 2.228 . S
Cd212 O216 2.273 . S
Cd212 O220 2.277 . S
O213 C210 1.160 . S
O213 Cd214 2.203 . S
Cd214 O213 2.203 . S
Cd214 O216 2.411 . S
Cd214 O217 2.333 . S
Cd214 O218 2.352 . S
Cd214 O222 2.277 . S
Cd214 O223 2.356 . S
C215 O220 1.209 . S
C215 O222 1.226 . S
O216 Cd212 2.273 . S
O216 Cd214 2.411 . S
O216 C219 1.320 . S
O217 Cd214 2.333 . S
O217 C219 1.214 . S
O218 Cd214 2.352 . S
O218 C221 1.258 . S
C219 O216 1.320 . S
C219 O217 1.214 . S
O220 Cd212 2.277 . S
O220 C215 1.209 . S
C221 O218 1.258 . S
C221 O223 1.282 . S
O222 Cd214 2.277 . S
O222 C215 1.226 . S
O223 Cd214 2.356 . S
O223 C221 1.282 . S
C224 O225 1.306 1_565 S
C224 O227 1.160 . S
O225 C224 1.306 1_545 S
O225 Cd226 2.228 . S
Cd226 O225 2.228 . S
Cd226 O230 2.273 . S
Cd226 O234 2.277 . S
O227 C224 1.160 . S
O227 Cd228 2.203 . S
Cd228 O227 2.203 . S
Cd228 O230 2.411 1_565 S
Cd228 O231 2.333 1_565 S
Cd228 O232 2.351 . S
Cd228 O236 2.277 1_565 S
Cd228 O237 2.356 . S
C229 O234 1.209 . S
C229 O236 1.226 . S
O230 Cd226 2.273 . S
O230 Cd228 2.411 1_545 S
O230 C233 1.320 . S
O231 Cd228 2.333 1_545 S
O231 C233 1.214 . S
O232 Cd228 2.351 . S
O232 C235 1.258 . S
C233 O230 1.320 . S
C233 O231 1.214 . S
O234 Cd226 2.277 . S
O234 C229 1.209 . S
C235 O232 1.258 . S
C235 O237 1.282 . S
O236 Cd228 2.277 1_545 S
O236 C229 1.226 . S
O237 Cd228 2.356 . S
O237 C235 1.282 . S
C238 O239 1.306 . S
C238 O241 1.160 . S
O239 C238 1.306 . S
O239 Cd240 2.228 . S
Cd240 O239 2.228 . S
Cd240 O244 2.273 . S
Cd240 O248 2.277 . S
O241 C238 1.160 . S
O241 Cd242 2.203 . S
Cd242 O241 2.203 . S
Cd242 O244 2.411 . S
Cd242 O245 2.333 . S
Cd242 O246 2.352 . S
Cd242 O250 2.277 . S
Cd242 O251 2.356 . S
C243 O248 1.209 . S
C243 O250 1.226 . S
O244 Cd240 2.273 . S
O244 Cd242 2.411 . S
O244 C247 1.320 . S
O245 Cd242 2.333 . S
O245 C247 1.214 . S
O246 Cd242 2.352 . S
O246 C249 1.258 . S
C247 O244 1.320 . S
C247 O245 1.214 . S
O248 Cd240 2.277 . S
O248 C243 1.209 . S
C249 O246 1.258 . S
C249 O251 1.282 . S
O250 Cd242 2.277 . S
O250 C243 1.226 . S
O251 Cd242 2.356 . S
O251 C249 1.282 . S
C252 O253 1.306 . S
C252 O255 1.160 . S
O253 C252 1.306 . S
O253 Cd254 2.228 . S
Cd254 O253 2.228 . S
Cd254 O258 2.273 . S
Cd254 O262 2.277 . S
O255 C252 1.160 . S
O255 Cd256 2.203 . S
Cd256 O255 2.203 . S
Cd256 O258 2.411 . S
Cd256 O259 2.333 . S
Cd256 O260 2.352 . S
Cd256 O264 2.277 . S
Cd256 O265 2.356 . S
C257 O262 1.209 . S
C257 O264 1.226 . S
O258 Cd254 2.273 . S
O258 Cd256 2.411 . S
O258 C261 1.320 . S
O259 Cd256 2.333 . S
O259 C261 1.214 . S
O260 Cd256 2.352 . S
O260 C263 1.258 . S
C261 O258 1.320 . S
C261 O259 1.214 . S
O262 Cd254 2.277 . S
O262 C257 1.209 . S
C263 O260 1.258 . S
C263 O265 1.282 . S
O264 Cd256 2.277 . S
O264 C257 1.226 . S
O265 Cd256 2.356 . S
O265 C263 1.282 . S
C266 O267 1.306 . S
C266 O269 1.160 . S
O267 C266 1.306 . S
O267 Cd268 2.228 1_545 S
Cd268 O267 2.228 1_565 S
Cd268 O272 2.273 . S
Cd268 O276 2.277 . S
O269 C266 1.160 . S
O269 Cd270 2.203 . S
Cd270 O269 2.203 . S
Cd270 O272 2.411 1_545 S
Cd270 O273 2.333 1_545 S
Cd270 O274 2.352 . S
Cd270 O278 2.277 1_545 S
Cd270 O279 2.356 . S
C271 O276 1.209 . S
C271 O278 1.226 . S
O272 Cd268 2.273 . S
O272 Cd270 2.411 1_565 S
O272 C275 1.320 . S
O273 Cd270 2.333 1_565 S
O273 C275 1.214 . S
O274 Cd270 2.352 . S
O274 C277 1.258 . S
C275 O272 1.320 . S
C275 O273 1.214 . S
O276 Cd268 2.277 . S
O276 C271 1.209 . S
C277 O274 1.258 . S
C277 O279 1.282 . S
O278 Cd270 2.277 1_565 S
O278 C271 1.226 . S
O279 Cd270 2.356 . S
O279 C277 1.282 . S
C280 O281 1.306 1_556 S
C280 O283 1.160 . S
O281 C280 1.306 1_554 S
O281 Cd282 2.228 . S
Cd282 O281 2.228 . S
Cd282 O286 2.273 . S
Cd282 O290 2.277 . S
O283 C280 1.160 . S
O283 Cd284 2.203 1_556 S
Cd284 O283 2.203 1_554 S
Cd284 O286 2.411 . S
Cd284 O287 2.333 . S
Cd284 O288 2.352 1_554 S
Cd284 O292 2.277 . S
Cd284 O293 2.356 1_554 S
C285 O290 1.209 . S
C285 O292 1.226 . S
O286 Cd282 2.273 . S
O286 Cd284 2.411 . S
O286 C289 1.320 . S
O287 Cd284 2.333 . S
O287 C289 1.214 . S
O288 Cd284 2.352 1_556 S
O288 C291 1.258 . S
C289 O286 1.320 . S
C289 O287 1.214 . S
O290 Cd282 2.277 . S
O290 C285 1.209 . S
C291 O288 1.258 . S
C291 O293 1.282 . S
O292 Cd284 2.277 . S
O292 C285 1.226 . S
O293 Cd284 2.356 1_556 S
O293 C291 1.282 . S
C294 O295 1.306 . S
C294 O297 1.160 . S
O295 C294 1.306 . S
O295 Cd296 2.228 . S
Cd296 O295 2.228 . S
Cd296 O300 2.273 . S
Cd296 O304 2.277 . S
O297 C294 1.160 . S
O297 Cd298 2.203 . S
Cd298 O297 2.203 . S
Cd298 O300 2.411 . S
Cd298 O301 2.333 . S
Cd298 O302 2.352 . S
Cd298 O306 2.277 . S
Cd298 O307 2.356 . S
C299 O304 1.209 . S
C299 O306 1.226 . S
O300 Cd296 2.273 . S
O300 Cd298 2.411 . S
O300 C303 1.320 . S
O301 Cd298 2.333 . S
O301 C303 1.214 . S
O302 Cd298 2.352 . S
O302 C305 1.258 . S
C303 O300 1.320 . S
C303 O301 1.214 . S
O304 Cd296 2.277 . S
O304 C299 1.209 . S
C305 O302 1.258 . S
C305 O307 1.282 . S
O306 Cd298 2.277 . S
O306 C299 1.226 . S
O307 Cd298 2.356 . S
O307 C305 1.282 . S
C308 O309 1.306 . S
C308 O311 1.160 . S
O309 C308 1.306 . S
O309 Cd310 2.228 . S
Cd310 O309 2.228 . S
Cd310 O314 2.273 . S
Cd310 O318 2.277 . S
O311 C308 1.160 . S
O311 Cd312 2.203 . S
Cd312 O311 2.203 . S
Cd312 O314 2.411 . S
Cd312 O315 2.333 . S
Cd312 O316 2.352 . S
Cd312 O320 2.277 . S
Cd312 O321 2.356 . S
C313 O318 1.209 . S
C313 O320 1.226 . S
O314 Cd310 2.273 . S
O314 Cd312 2.411 . S
O314 C317 1.320 . S
O315 Cd312 2.333 . S
O315 C317 1.214 . S
O316 Cd312 2.352 . S
O316 C319 1.258 . S
C317 O314 1.320 . S
C317 O315 1.214 . S
O318 Cd310 2.277 . S
O318 C313 1.209 . S
C319 O316 1.258 . S
C319 O321 1.282 . S
O320 Cd312 2.277 . S
O320 C313 1.226 . S
O321 Cd312 2.356 . S
O321 C319 1.282 . S
C322 O323 1.306 . S
C322 O325 1.160 . S
O323 C322 1.306 . S
O323 Cd324 2.228 . S
Cd324 O323 2.228 . S
Cd324 O328 2.273 . S
Cd324 O332 2.277 . S
O325 C322 1.160 . S
O325 Cd326 2.203 . S
Cd326 O325 2.203 . S
Cd326 O328 2.411 . S
Cd326 O329 2.333 . S
Cd326 O330 2.352 . S
Cd326 O334 2.277 . S
Cd326 O335 2.356 . S
C327 O332 1.209 . S
C327 O334 1.226 . S
O328 Cd324 2.273 . S
O328 Cd326 2.411 . S
O328 C331 1.320 . S
O329 Cd326 2.333 . S
O329 C331 1.214 . S
O330 Cd326 2.352 . S
O330 C333 1.258 . S
C331 O328 1.320 . S
C331 O329 1.214 . S
O332 Cd324 2.277 . S
O332 C327 1.209 . S
C333 O330 1.258 . S
C333 O335 1.282 . S
O334 Cd326 2.277 . S
O334 C327 1.226 . S
O335 Cd326 2.356 . S
O335 C333 1.282 . S
H336 C354 0.951 . S
H337 C356 0.951 . S
H338 C358 0.950 . S
H339 C359 0.950 . S
H340 C361 0.950 . S
H341 C364 0.950 . S
H342 C365 0.950 . S
H343 C367 0.950 . S
H344 C368 0.950 . S
H345 C369 0.951 . S
H346 C371 0.951 . S
H347 C373 0.950 . S
H348 C374 0.950 . S
H349 C376 0.950 . S
H350 C379 0.950 . S
H351 C380 0.950 . S
H352 C382 0.950 . S
H353 C383 0.950 . S
C354 H336 0.951 . S
C354 C355 1.366 . S
C354 C356 1.388 . S
C355 C354 1.366 . S
C355 C359 1.385 . S
C356 H337 0.951 . S
C356 C354 1.388 . S
C356 C357 1.366 . S
C357 C356 1.366 . S
C357 C358 1.414 . S
C357 C360 1.499 . S
C358 H338 0.950 . S
C358 C357 1.414 . S
C358 C359 1.374 . S
C359 H339 0.950 . S
C359 C355 1.385 . S
C359 C358 1.374 . S
C360 C357 1.499 . S
C360 C361 1.373 . S
C360 C362 1.389 . S
C361 H340 0.950 . S
C361 C360 1.373 . S
C361 C377 1.377 . S
C362 C360 1.389 . S
C362 C363 1.524 . S
C362 C376 1.377 . S
C363 C362 1.524 . S
C363 C364 1.397 . S
C363 C368 1.363 . S
C364 H341 0.950 . S
C364 C363 1.397 . S
C364 C365 1.334 . S
C365 H342 0.950 . S
C365 C364 1.334 . S
C365 C366 1.287 . S
C366 C365 1.287 . S
C366 C367 1.524 . S
C366 H385 0.913 . S
C367 H343 0.950 . S
C367 C366 1.524 . S
C367 C368 1.415 . S
C368 H344 0.950 . S
C368 C363 1.363 . S
C368 C367 1.415 . S
C369 H345 0.951 . S
C369 C370 1.366 . S
C369 C371 1.388 . S
C370 C369 1.366 . S
C370 C374 1.385 . S
C371 H346 0.951 . S
C371 C369 1.388 . S
C371 C372 1.366 . S
C372 C371 1.366 . S
C372 C373 1.414 . S
C372 C375 1.499 . S
C373 H347 0.950 . S
C373 C372 1.414 . S
C373 C374 1.374 . S
C374 H348 0.950 . S
C374 C370 1.385 . S
C374 C373 1.374 . S
C375 C372 1.499 . S
C375 C376 1.373 . S
C375 C377 1.389 . S
C376 H349 0.950 . S
C376 C362 1.377 . S
C376 C375 1.373 . S
C377 C361 1.377 . S
C377 C375 1.389 . S
C377 C378 1.524 . S
C378 C377 1.524 . S
C378 C379 1.397 . S
C378 C383 1.363 . S
C379 H350 0.950 . S
C379 C378 1.397 . S
C379 C380 1.334 . S
C380 H351 0.950 . S
C380 C379 1.334 . S
C380 C381 1.287 . S
C381 C380 1.287 . S
C381 C382 1.524 . S
C381 H384 0.999 . S
C382 H352 0.950 . S
C382 C381 1.524 . S
C382 C383 1.415 . S
C383 H353 0.950 . S
C383 C378 1.363 . S
C383 C382 1.415 . S
H384 C381 0.999 . S
H385 C366 0.913 . S
H386 C404 0.951 . S
H387 C406 0.951 . S
H388 C408 0.950 . S
H389 C409 0.950 . S
H390 C411 0.950 . S
H391 C414 0.950 . S
H392 C415 0.950 . S
H393 C417 0.950 . S
H394 C418 0.950 . S
H395 C419 0.951 . S
H396 C421 0.951 . S
H397 C423 0.950 . S
H398 C424 0.950 . S
H399 C426 0.950 . S
H400 C429 0.950 . S
H401 C430 0.950 . S
H402 C432 0.950 . S
H403 C433 0.950 . S
C404 H386 0.951 . S
C404 C405 1.366 . S
C404 C406 1.388 . S
C405 C404 1.366 . S
C405 C409 1.385 . S
C406 H387 0.951 . S
C406 C404 1.388 . S
C406 C407 1.366 . S
C407 C406 1.366 . S
C407 C408 1.414 . S
C407 C410 1.499 . S
C408 H388 0.950 . S
C408 C407 1.414 . S
C408 C409 1.374 . S
C409 H389 0.950 . S
C409 C405 1.385 . S
C409 C408 1.374 . S
C410 C407 1.499 . S
C410 C411 1.373 . S
C410 C412 1.389 . S
C411 H390 0.950 . S
C411 C410 1.373 . S
C411 C427 1.377 . S
C412 C410 1.389 . S
C412 C413 1.524 . S
C412 C426 1.377 . S
C413 C412 1.524 . S
C413 C414 1.397 . S
C413 C418 1.363 . S
C414 H391 0.950 . S
C414 C413 1.397 . S
C414 C415 1.334 . S
C415 H392 0.950 . S
C415 C414 1.334 . S
C415 C416 1.287 . S
C416 C415 1.287 . S
C416 C417 1.524 . S
C416 H435 0.913 . S
C417 H393 0.950 . S
C417 C416 1.524 . S
C417 C418 1.415 . S
C418 H394 0.950 . S
C418 C413 1.363 . S
C418 C417 1.415 . S
C419 H395 0.951 . S
C419 C420 1.366 . S
C419 C421 1.388 . S
C420 C419 1.366 . S
C420 C424 1.385 . S
C421 H396 0.951 . S
C421 C419 1.388 . S
C421 C422 1.366 . S
C422 C421 1.366 . S
C422 C423 1.414 . S
C422 C425 1.499 . S
C423 H397 0.950 . S
C423 C422 1.414 . S
C423 C424 1.374 . S
C424 H398 0.950 . S
C424 C420 1.385 . S
C424 C423 1.374 . S
C425 C422 1.499 . S
C425 C426 1.373 . S
C425 C427 1.389 . S
C426 H399 0.950 . S
C426 C412 1.377 . S
C426 C425 1.373 . S
C427 C411 1.377 . S
C427 C425 1.389 . S
C427 C428 1.524 . S
C428 C427 1.524 . S
C428 C429 1.397 . S
C428 C433 1.363 . S
C429 H400 0.950 . S
C429 C428 1.397 . S
C429 C430 1.334 . S
C430 H401 0.950 . S
C430 C429 1.334 . S
C430 C431 1.287 . S
C431 C430 1.287 . S
C431 C432 1.524 . S
C431 H434 0.999 . S
C432 H402 0.950 . S
C432 C431 1.524 . S
C432 C433 1.415 . S
C433 H403 0.950 . S
C433 C428 1.363 . S
C433 C432 1.415 . S
H434 C431 0.999 . S
H435 C416 0.913 . S
H436 C454 0.951 . S
H437 C456 0.951 . S
H438 C458 0.950 . S
H439 C459 0.950 . S
H440 C461 0.950 . S
H441 C464 0.950 . S
H442 C465 0.950 . S
H443 C467 0.950 . S
H444 C468 0.950 . S
H445 C469 0.951 . S
H446 C471 0.951 . S
H447 C473 0.950 . S
H448 C474 0.950 . S
H449 C476 0.950 . S
H450 C479 0.950 . S
H451 C480 0.950 . S
H452 C482 0.950 . S
H453 C483 0.950 . S
C454 H436 0.951 . S
C454 C455 1.366 . S
C454 C456 1.388 . S
C455 C454 1.366 . S
C455 C459 1.385 . S
C456 H437 0.951 . S
C456 C454 1.388 . S
C456 C457 1.366 . S
C457 C456 1.366 . S
C457 C458 1.414 . S
C457 C460 1.499 . S
C458 H438 0.950 . S
C458 C457 1.414 . S
C458 C459 1.374 . S
C459 H439 0.950 . S
C459 C455 1.385 . S
C459 C458 1.374 . S
C460 C457 1.499 . S
C460 C461 1.373 . S
C460 C462 1.389 . S
C461 H440 0.950 . S
C461 C460 1.373 . S
C461 C477 1.377 . S
C462 C460 1.389 . S
C462 C463 1.524 . S
C462 C476 1.377 . S
C463 C462 1.524 . S
C463 C464 1.397 . S
C463 C468 1.363 . S
C464 H441 0.950 . S
C464 C463 1.397 . S
C464 C465 1.334 . S
C465 H442 0.950 . S
C465 C464 1.334 . S
C465 C466 1.287 . S
C466 C465 1.287 . S
C466 C467 1.524 . S
C466 H485 0.913 . S
C467 H443 0.950 . S
C467 C466 1.524 . S
C467 C468 1.415 . S
C468 H444 0.950 . S
C468 C463 1.363 . S
C468 C467 1.415 . S
C469 H445 0.951 . S
C469 C470 1.366 . S
C469 C471 1.388 . S
C470 C469 1.366 . S
C470 C474 1.385 . S
C471 H446 0.951 . S
C471 C469 1.388 . S
C471 C472 1.366 . S
C472 C471 1.366 . S
C472 C473 1.414 . S
C472 C475 1.499 . S
C473 H447 0.950 . S
C473 C472 1.414 . S
C473 C474 1.374 . S
C474 H448 0.950 . S
C474 C470 1.385 . S
C474 C473 1.374 . S
C475 C472 1.499 . S
C475 C476 1.373 . S
C475 C477 1.389 . S
C476 H449 0.950 . S
C476 C462 1.377 . S
C476 C475 1.373 . S
C477 C461 1.377 . S
C477 C475 1.389 . S
C477 C478 1.524 . S
C478 C477 1.524 . S
C478 C479 1.397 . S
C478 C483 1.363 . S
C479 H450 0.950 . S
C479 C478 1.397 . S
C479 C480 1.334 . S
C480 H451 0.950 . S
C480 C479 1.334 . S
C480 C481 1.287 . S
C481 C480 1.287 . S
C481 C482 1.524 . S
C481 H484 0.999 . S
C482 H452 0.950 . S
C482 C481 1.524 . S
C482 C483 1.415 . S
C483 H453 0.950 . S
C483 C478 1.363 . S
C483 C482 1.415 . S
H484 C481 0.999 . S
H485 C466 0.913 . S
H486 C504 0.951 . S
H487 C506 0.951 . S
H488 C508 0.950 . S
H489 C509 0.950 . S
H490 C511 0.950 . S
H491 C514 0.950 . S
H492 C515 0.950 . S
H493 C517 0.950 . S
H494 C518 0.950 . S
H495 C519 0.951 . S
H496 C521 0.951 . S
H497 C523 0.950 . S
H498 C524 0.950 . S
H499 C526 0.950 . S
H500 C529 0.950 . S
H501 C530 0.950 . S
H502 C532 0.950 . S
H503 C533 0.950 . S
C504 H486 0.951 . S
C504 C505 1.366 . S
C504 C506 1.388 . S
C505 C504 1.366 . S
C505 C509 1.385 . S
C506 H487 0.951 . S
C506 C504 1.388 . S
C506 C507 1.366 . S
C507 C506 1.366 . S
C507 C508 1.414 . S
C507 C510 1.499 . S
C508 H488 0.950 . S
C508 C507 1.414 . S
C508 C509 1.374 . S
C509 H489 0.950 . S
C509 C505 1.385 . S
C509 C508 1.374 . S
C510 C507 1.499 . S
C510 C511 1.373 . S
C510 C512 1.389 . S
C511 H490 0.950 . S
C511 C510 1.373 . S
C511 C527 1.377 . S
C512 C510 1.389 . S
C512 C513 1.524 . S
C512 C526 1.377 . S
C513 C512 1.524 . S
C513 C514 1.397 . S
C513 C518 1.363 . S
C514 H491 0.950 . S
C514 C513 1.397 . S
C514 C515 1.334 . S
C515 H492 0.950 . S
C515 C514 1.334 . S
C515 C516 1.287 . S
C516 C515 1.287 . S
C516 C517 1.524 . S
C516 H535 0.913 . S
C517 H493 0.950 . S
C517 C516 1.524 . S
C517 C518 1.415 . S
C518 H494 0.950 . S
C518 C513 1.363 . S
C518 C517 1.415 . S
C519 H495 0.951 . S
C519 C520 1.366 . S
C519 C521 1.388 . S
C520 C519 1.366 . S
C520 C524 1.385 . S
C521 H496 0.951 . S
C521 C519 1.388 . S
C521 C522 1.366 . S
C522 C521 1.366 . S
C522 C523 1.414 . S
C522 C525 1.499 . S
C523 H497 0.950 . S
C523 C522 1.414 . S
C523 C524 1.374 . S
C524 H498 0.950 . S
C524 C520 1.385 . S
C524 C523 1.374 . S
C525 C522 1.499 . S
C525 C526 1.373 . S
C525 C527 1.389 . S
C526 H499 0.950 . S
C526 C512 1.377 . S
C526 C525 1.373 . S
C527 C511 1.377 . S
C527 C525 1.389 . S
C527 C528 1.524 . S
C528 C527 1.524 . S
C528 C529 1.397 . S
C528 C533 1.363 . S
C529 H500 0.950 . S
C529 C528 1.397 . S
C529 C530 1.334 1_554 S
C530 H501 0.950 . S
C530 C529 1.334 1_556 S
C530 C531 1.287 . S
C531 C530 1.287 . S
C531 C532 1.524 . S
C531 H534 0.999 . S
C532 H502 0.950 . S
C532 C531 1.524 . S
C532 C533 1.415 1_556 S
C533 H503 0.950 . S
C533 C528 1.363 . S
C533 C532 1.415 1_554 S
H534 C531 0.999 . S
H535 C516 0.913 . S
H536 C554 0.951 . S
H537 C556 0.951 . S
H538 C558 0.950 . S
H539 C559 0.950 . S
H540 C561 0.950 . S
H541 C564 0.950 . S
H542 C565 0.950 . S
H543 C567 0.950 . S
H544 C568 0.950 . S
H545 C569 0.951 . S
H546 C571 0.951 . S
H547 C573 0.950 . S
H548 C574 0.950 . S
H549 C576 0.950 . S
H550 C579 0.950 . S
H551 C580 0.950 . S
H552 C582 0.950 . S
H553 C583 0.950 . S
C554 H536 0.951 . S
C554 C555 1.366 . S
C554 C556 1.388 . S
C555 C554 1.366 . S
C555 C559 1.385 . S
C556 H537 0.951 . S
C556 C554 1.388 . S
C556 C557 1.366 . S
C557 C556 1.366 . S
C557 C558 1.414 . S
C557 C560 1.499 . S
C558 H538 0.950 . S
C558 C557 1.414 . S
C558 C559 1.374 . S
C559 H539 0.950 . S
C559 C555 1.385 . S
C559 C558 1.374 . S
C560 C557 1.499 . S
C560 C561 1.373 . S
C560 C562 1.389 . S
C561 H540 0.950 . S
C561 C560 1.373 . S
C561 C577 1.377 . S
C562 C560 1.389 . S
C562 C563 1.524 . S
C562 C576 1.377 . S
C563 C562 1.524 . S
C563 C564 1.397 . S
C563 C568 1.363 . S
C564 H541 0.950 . S
C564 C563 1.397 . S
C564 C565 1.334 . S
C565 H542 0.950 . S
C565 C564 1.334 . S
C565 C566 1.287 . S
C566 C565 1.287 . S
C566 C567 1.524 . S
C566 H585 0.913 . S
C567 H543 0.950 . S
C567 C566 1.524 . S
C567 C568 1.415 . S
C568 H544 0.950 . S
C568 C563 1.363 . S
C568 C567 1.415 . S
C569 H545 0.951 . S
C569 C570 1.366 . S
C569 C571 1.388 . S
C570 C569 1.366 . S
C570 C574 1.385 . S
C571 H546 0.951 . S
C571 C569 1.388 . S
C571 C572 1.366 . S
C572 C571 1.366 . S
C572 C573 1.414 . S
C572 C575 1.499 . S
C573 H547 0.950 . S
C573 C572 1.414 . S
C573 C574 1.374 . S
C574 H548 0.950 . S
C574 C570 1.385 . S
C574 C573 1.374 . S
C575 C572 1.499 . S
C575 C576 1.373 . S
C575 C577 1.389 . S
C576 H549 0.950 . S
C576 C562 1.377 . S
C576 C575 1.373 . S
C577 C561 1.377 . S
C577 C575 1.389 . S
C577 C578 1.524 . S
C578 C577 1.524 . S
C578 C579 1.397 . S
C578 C583 1.363 . S
C579 H550 0.950 . S
C579 C578 1.397 . S
C579 C580 1.334 . S
C580 H551 0.950 . S
C580 C579 1.334 . S
C580 C581 1.287 . S
C581 C580 1.287 . S
C581 C582 1.524 . S
C581 H584 0.999 . S
C582 H552 0.950 . S
C582 C581 1.524 . S
C582 C583 1.415 . S
C583 H553 0.950 . S
C583 C578 1.363 . S
C583 C582 1.415 . S
H584 C581 0.999 . S
H585 C566 0.913 . S
H586 C604 0.951 . S
H587 C606 0.951 . S
H588 C608 0.950 . S
H589 C609 0.950 . S
H590 C611 0.950 . S
H591 C614 0.950 . S
H592 C615 0.950 . S
H593 C617 0.950 . S
H594 C618 0.950 . S
H595 C619 0.951 . S
H596 C621 0.951 . S
H597 C623 0.950 . S
H598 C624 0.950 . S
H599 C626 0.950 . S
H600 C629 0.950 . S
H601 C630 0.950 . S
H602 C632 0.950 . S
H603 C633 0.950 . S
C604 H586 0.951 . S
C604 C605 1.366 . S
C604 C606 1.388 . S
C605 C604 1.366 . S
C605 C609 1.385 . S
C606 H587 0.951 . S
C606 C604 1.388 . S
C606 C607 1.366 . S
C607 C606 1.366 . S
C607 C608 1.414 . S
C607 C610 1.499 . S
C608 H588 0.950 . S
C608 C607 1.414 . S
C608 C609 1.374 . S
C609 H589 0.950 . S
C609 C605 1.385 . S
C609 C608 1.374 . S
C610 C607 1.499 . S
C610 C611 1.373 . S
C610 C612 1.389 . S
C611 H590 0.950 . S
C611 C610 1.373 . S
C611 C627 1.377 . S
C612 C610 1.389 . S
C612 C613 1.524 . S
C612 C626 1.377 . S
C613 C612 1.524 . S
C613 C614 1.397 . S
C613 C618 1.363 . S
C614 H591 0.950 . S
C614 C613 1.397 . S
C614 C615 1.334 . S
C615 H592 0.950 . S
C615 C614 1.334 . S
C615 C616 1.287 . S
C616 C615 1.287 . S
C616 C617 1.524 . S
C616 H635 0.913 . S
C617 H593 0.950 . S
C617 C616 1.524 . S
C617 C618 1.415 . S
C618 H594 0.950 . S
C618 C613 1.363 . S
C618 C617 1.415 . S
C619 H595 0.951 . S
C619 C620 1.366 . S
C619 C621 1.388 . S
C620 C619 1.366 . S
C620 C624 1.385 . S
C621 H596 0.951 . S
C621 C619 1.388 . S
C621 C622 1.366 . S
C622 C621 1.366 . S
C622 C623 1.414 . S
C622 C625 1.499 . S
C623 H597 0.950 . S
C623 C622 1.414 . S
C623 C624 1.374 . S
C624 H598 0.950 . S
C624 C620 1.385 . S
C624 C623 1.374 . S
C625 C622 1.499 . S
C625 C626 1.373 . S
C625 C627 1.389 . S
C626 H599 0.950 . S
C626 C612 1.377 . S
C626 C625 1.373 . S
C627 C611 1.377 . S
C627 C625 1.389 . S
C627 C628 1.524 . S
C628 C627 1.524 . S
C628 C629 1.397 . S
C628 C633 1.363 . S
C629 H600 0.950 . S
C629 C628 1.397 . S
C629 C630 1.334 . S
C630 H601 0.950 . S
C630 C629 1.334 . S
C630 C631 1.287 . S
C631 C630 1.287 . S
C631 C632 1.524 . S
C631 H634 0.999 . S
C632 H602 0.950 . S
C632 C631 1.524 . S
C632 C633 1.415 . S
C633 H603 0.950 . S
C633 C628 1.363 . S
C633 C632 1.415 . S
H634 C631 0.999 . S
H635 C616 0.913 . S
H636 C654 0.951 . S
H637 C656 0.951 . S
H638 C658 0.950 . S
H639 C659 0.950 . S
H640 C661 0.950 . S
H641 C664 0.950 . S
H642 C665 0.950 . S
H643 C667 0.950 . S
H644 C668 0.950 . S
H645 C669 0.951 . S
H646 C671 0.951 . S
H647 C673 0.950 . S
H648 C674 0.950 . S
H649 C676 0.950 . S
H650 C679 0.950 . S
H651 C680 0.950 . S
H652 C682 0.950 . S
H653 C683 0.950 . S
C654 H636 0.951 . S
C654 C655 1.366 . S
C654 C656 1.388 . S
C655 C654 1.366 . S
C655 C659 1.385 . S
C656 H637 0.951 . S
C656 C654 1.388 . S
C656 C657 1.366 . S
C657 C656 1.366 . S
C657 C658 1.414 . S
C657 C660 1.499 . S
C658 H638 0.950 . S
C658 C657 1.414 . S
C658 C659 1.374 . S
C659 H639 0.950 . S
C659 C655 1.385 . S
C659 C658 1.374 . S
C660 C657 1.499 . S
C660 C661 1.373 . S
C660 C662 1.389 . S
C661 H640 0.950 . S
C661 C660 1.373 . S
C661 C677 1.377 . S
C662 C660 1.389 . S
C662 C663 1.524 . S
C662 C676 1.377 . S
C663 C662 1.524 . S
C663 C664 1.397 . S
C663 C668 1.363 . S
C664 H641 0.950 . S
C664 C663 1.397 . S
C664 C665 1.334 . S
C665 H642 0.950 . S
C665 C664 1.334 . S
C665 C666 1.287 . S
C666 C665 1.287 . S
C666 C667 1.524 . S
C666 H685 0.913 . S
C667 H643 0.950 . S
C667 C666 1.524 . S
C667 C668 1.415 . S
C668 H644 0.950 . S
C668 C663 1.363 . S
C668 C667 1.415 . S
C669 H645 0.951 . S
C669 C670 1.366 . S
C669 C671 1.388 . S
C670 C669 1.366 . S
C670 C674 1.385 . S
C671 H646 0.951 . S
C671 C669 1.388 . S
C671 C672 1.366 . S
C672 C671 1.366 . S
C672 C673 1.414 . S
C672 C675 1.499 . S
C673 H647 0.950 . S
C673 C672 1.414 . S
C673 C674 1.374 . S
C674 H648 0.950 . S
C674 C670 1.385 . S
C674 C673 1.374 . S
C675 C672 1.499 . S
C675 C676 1.373 . S
C675 C677 1.389 . S
C676 H649 0.950 . S
C676 C662 1.377 . S
C676 C675 1.373 . S
C677 C661 1.377 . S
C677 C675 1.389 . S
C677 C678 1.524 . S
C678 C677 1.524 . S
C678 C679 1.397 . S
C678 C683 1.363 . S
C679 H650 0.950 . S
C679 C678 1.397 . S
C679 C680 1.334 . S
C680 H651 0.950 . S
C680 C679 1.334 . S
C680 C681 1.287 . S
C681 C680 1.287 . S
C681 C682 1.524 . S
C681 H684 0.999 . S
C682 H652 0.950 . S
C682 C681 1.524 . S
C682 C683 1.415 . S
C683 H653 0.950 . S
C683 C678 1.363 . S
C683 C682 1.415 . S
H684 C681 0.999 . S
H685 C666 0.913 . S
H686 C704 0.951 . S
H687 C706 0.951 . S
H688 C708 0.950 . S
H689 C709 0.950 . S
H690 C711 0.950 . S
H691 C714 0.950 . S
H692 C715 0.950 . S
H693 C717 0.950 1_554 S
H694 C718 0.950 . S
H695 C719 0.951 . S
H696 C721 0.951 . S
H697 C723 0.950 . S
H698 C724 0.950 1_554 S
H699 C726 0.950 . S
H700 C729 0.950 . S
H701 C730 0.950 . S
H702 C732 0.950 . S
H703 C733 0.950 . S
C704 H686 0.951 . S
C704 C705 1.366 . S
C704 C706 1.388 . S
C705 C704 1.366 . S
C705 C709 1.385 . S
C706 H687 0.951 . S
C706 C704 1.388 . S
C706 C707 1.366 . S
C707 C706 1.366 . S
C707 C708 1.414 . S
C707 C710 1.499 . S
C708 H688 0.950 . S
C708 C707 1.414 . S
C708 C709 1.374 . S
C709 H689 0.950 . S
C709 C705 1.385 . S
C709 C708 1.374 . S
C710 C707 1.499 . S
C710 C711 1.373 . S
C710 C712 1.389 . S
C711 H690 0.950 . S
C711 C710 1.373 . S
C711 C727 1.377 . S
C712 C710 1.389 . S
C712 C713 1.524 . S
C712 C726 1.377 . S
C713 C712 1.524 . S
C713 C714 1.397 . S
C713 C718 1.363 . S
C714 H691 0.950 . S
C714 C713 1.397 . S
C714 C715 1.334 . S
C715 H692 0.950 . S
C715 C714 1.334 . S
C715 C716 1.287 . S
C716 C715 1.287 . S
C716 C717 1.524 . S
C716 H735 0.913 . S
C717 H693 0.950 1_556 S
C717 C716 1.524 . S
C717 C718 1.415 . S
C718 H694 0.950 . S
C718 C713 1.363 . S
C718 C717 1.415 . S
C719 H695 0.951 . S
C719 C720 1.366 . S
C719 C721 1.388 . S
C720 C719 1.366 . S
C720 C724 1.385 . S
C721 H696 0.951 . S
C721 C719 1.388 . S
C721 C722 1.366 . S
C722 C721 1.366 . S
C722 C723 1.414 . S
C722 C725 1.499 . S
C723 H697 0.950 . S
C723 C722 1.414 . S
C723 C724 1.374 . S
C724 H698 0.950 1_556 S
C724 C720 1.385 . S
C724 C723 1.374 . S
C725 C722 1.499 . S
C725 C726 1.373 . S
C725 C727 1.389 . S
C726 H699 0.950 . S
C726 C712 1.377 . S
C726 C725 1.373 . S
C727 C711 1.377 . S
C727 C725 1.389 . S
C727 C728 1.524 . S
C728 C727 1.524 . S
C728 C729 1.397 . S
C728 C733 1.363 . S
C729 H700 0.950 . S
C729 C728 1.397 . S
C729 C730 1.334 . S
C730 H701 0.950 . S
C730 C729 1.334 . S
C730 C731 1.287 . S
C731 C730 1.287 . S
C731 C732 1.524 . S
C731 H734 0.999 . S
C732 H702 0.950 . S
C732 C731 1.524 . S
C732 C733 1.415 . S
C733 H703 0.950 . S
C733 C728 1.363 . S
C733 C732 1.415 . S
H734 C731 0.999 . S
H735 C716 0.913 . S
H736 C754 0.951 . S
H737 C756 0.951 . S
H738 C758 0.950 . S
H739 C759 0.950 . S
H740 C761 0.950 . S
H741 C764 0.950 . S
H742 C765 0.950 . S
H743 C767 0.950 1_565 S
H744 C768 0.950 . S
H745 C769 0.951 . S
H746 C771 0.951 . S
H747 C773 0.950 . S
H748 C774 0.950 . S
H749 C776 0.950 . S
H750 C779 0.950 . S
H751 C780 0.950 . S
H752 C782 0.950 . S
H753 C783 0.950 . S
C754 H736 0.951 . S
C754 C755 1.366 . S
C754 C756 1.388 . S
C755 C754 1.366 . S
C755 C759 1.385 . S
C756 H737 0.951 . S
C756 C754 1.388 . S
C756 C757 1.366 . S
C757 C756 1.366 . S
C757 C758 1.414 . S
C757 C760 1.499 . S
C758 H738 0.950 . S
C758 C757 1.414 . S
C758 C759 1.374 . S
C759 H739 0.950 . S
C759 C755 1.385 . S
C759 C758 1.374 . S
C760 C757 1.499 . S
C760 C761 1.373 . S
C760 C762 1.389 . S
C761 H740 0.950 . S
C761 C760 1.373 . S
C761 C777 1.377 . S
C762 C760 1.389 . S
C762 C763 1.524 . S
C762 C776 1.377 . S
C763 C762 1.524 . S
C763 C764 1.397 . S
C763 C768 1.363 . S
C764 H741 0.950 . S
C764 C763 1.397 . S
C764 C765 1.334 . S
C765 H742 0.950 . S
C765 C764 1.334 . S
C765 C766 1.287 . S
C766 C765 1.287 . S
C766 C767 1.524 . S
C766 H785 0.913 . S
C767 H743 0.950 1_545 S
C767 C766 1.524 . S
C767 C768 1.415 . S
C768 H744 0.950 . S
C768 C763 1.363 . S
C768 C767 1.415 . S
C769 H745 0.951 . S
C769 C770 1.366 . S
C769 C771 1.388 . S
C770 C769 1.366 . S
C770 C774 1.385 . S
C771 H746 0.951 . S
C771 C769 1.388 . S
C771 C772 1.366 . S
C772 C771 1.366 . S
C772 C773 1.414 . S
C772 C775 1.499 . S
C773 H747 0.950 . S
C773 C772 1.414 . S
C773 C774 1.374 . S
C774 H748 0.950 . S
C774 C770 1.385 . S
C774 C773 1.374 . S
C775 C772 1.499 . S
C775 C776 1.373 . S
C775 C777 1.389 . S
C776 H749 0.950 . S
C776 C762 1.377 . S
C776 C775 1.373 . S
C777 C761 1.377 . S
C777 C775 1.389 . S
C777 C778 1.524 . S
C778 C777 1.524 . S
C778 C779 1.397 . S
C778 C783 1.363 . S
C779 H750 0.950 . S
C779 C778 1.397 . S
C779 C780 1.334 . S
C780 H751 0.950 . S
C780 C779 1.334 . S
C780 C781 1.287 . S
C781 C780 1.287 . S
C781 C782 1.524 . S
C781 H784 0.999 . S
C782 H752 0.950 . S
C782 C781 1.524 . S
C782 C783 1.415 . S
C783 H753 0.950 . S
C783 C778 1.363 . S
C783 C782 1.415 . S
H784 C781 0.999 . S
H785 C766 0.913 . S
H786 C804 0.951 . S
H787 C806 0.951 . S
H788 C808 0.950 . S
H789 C809 0.950 . S
H790 C811 0.950 . S
H791 C814 0.950 . S
H792 C815 0.950 . S
H793 C817 0.950 . S
H794 C818 0.950 . S
H795 C819 0.951 . S
H796 C821 0.951 . S
H797 C823 0.950 . S
H798 C824 0.950 . S
H799 C826 0.950 . S
H800 C829 0.950 . S
H801 C830 0.950 . S
H802 C832 0.950 . S
H803 C833 0.950 . S
C804 H786 0.951 . S
C804 C805 1.366 . S
C804 C806 1.388 . S
C805 C804 1.366 . S
C805 C809 1.385 . S
C806 H787 0.951 . S
C806 C804 1.388 . S
C806 C807 1.366 . S
C807 C806 1.366 . S
C807 C808 1.414 . S
C807 C810 1.499 . S
C808 H788 0.950 . S
C808 C807 1.414 . S
C808 C809 1.374 . S
C809 H789 0.950 . S
C809 C805 1.385 . S
C809 C808 1.374 . S
C810 C807 1.499 . S
C810 C811 1.373 . S
C810 C812 1.389 . S
C811 H790 0.950 . S
C811 C810 1.373 . S
C811 C827 1.377 . S
C812 C810 1.389 . S
C812 C813 1.524 . S
C812 C826 1.377 . S
C813 C812 1.524 . S
C813 C814 1.397 . S
C813 C818 1.363 . S
C814 H791 0.950 . S
C814 C813 1.397 . S
C814 C815 1.334 . S
C815 H792 0.950 . S
C815 C814 1.334 . S
C815 C816 1.287 . S
C816 C815 1.287 . S
C816 C817 1.524 . S
C816 H835 0.913 . S
C817 H793 0.950 . S
C817 C816 1.524 . S
C817 C818 1.415 . S
C818 H794 0.950 . S
C818 C813 1.363 . S
C818 C817 1.415 . S
C819 H795 0.951 . S
C819 C820 1.366 . S
C819 C821 1.388 . S
C820 C819 1.366 . S
C820 C824 1.385 . S
C821 H796 0.951 . S
C821 C819 1.388 . S
C821 C822 1.366 . S
C822 C821 1.366 . S
C822 C823 1.414 . S
C822 C825 1.499 . S
C823 H797 0.950 . S
C823 C822 1.414 . S
C823 C824 1.374 . S
C824 H798 0.950 . S
C824 C820 1.385 . S
C824 C823 1.374 . S
C825 C822 1.499 . S
C825 C826 1.373 . S
C825 C827 1.389 . S
C826 H799 0.950 . S
C826 C812 1.377 . S
C826 C825 1.373 . S
C827 C811 1.377 . S
C827 C825 1.389 . S
C827 C828 1.524 . S
C828 C827 1.524 . S
C828 C829 1.397 . S
C828 C833 1.363 . S
C829 H800 0.950 . S
C829 C828 1.397 . S
C829 C830 1.334 . S
C830 H801 0.950 . S
C830 C829 1.334 . S
C830 C831 1.287 . S
C831 C830 1.287 . S
C831 C832 1.524 . S
C831 H834 0.999 . S
C832 H802 0.950 . S
C832 C831 1.524 . S
C832 C833 1.415 . S
C833 H803 0.950 . S
C833 C828 1.363 . S
C833 C832 1.415 . S
H834 C831 0.999 . S
H835 C816 0.913 . S
H836 C854 0.951 . S
H837 C856 0.951 . S
H838 C858 0.950 . S
H839 C859 0.950 1_545 S
H840 C861 0.950 . S
H841 C864 0.950 . S
H842 C865 0.950 . S
H843 C867 0.950 . S
H844 C868 0.950 . S
H845 C869 0.951 . S
H846 C871 0.951 . S
H847 C873 0.950 . S
H848 C874 0.950 . S
H849 C876 0.950 . S
H850 C879 0.950 . S
H851 C880 0.950 . S
H852 C882 0.950 1_545 S
H853 C883 0.950 . S
C854 H836 0.951 . S
C854 C855 1.366 . S
C854 C856 1.388 . S
C855 C854 1.366 . S
C855 C859 1.385 . S
C856 H837 0.951 . S
C856 C854 1.388 . S
C856 C857 1.366 . S
C857 C856 1.366 . S
C857 C858 1.414 . S
C857 C860 1.499 . S
C858 H838 0.950 . S
C858 C857 1.414 . S
C858 C859 1.374 . S
C859 H839 0.950 1_565 S
C859 C855 1.385 . S
C859 C858 1.374 . S
C860 C857 1.499 . S
C860 C861 1.373 . S
C860 C862 1.389 . S
C861 H840 0.950 . S
C861 C860 1.373 . S
C861 C877 1.377 . S
C862 C860 1.389 . S
C862 C863 1.524 . S
C862 C876 1.377 . S
C863 C862 1.524 . S
C863 C864 1.397 . S
C863 C868 1.363 . S
C864 H841 0.950 . S
C864 C863 1.397 . S
C864 C865 1.334 . S
C865 H842 0.950 . S
C865 C864 1.334 . S
C865 C866 1.287 . S
C866 C865 1.287 . S
C866 C867 1.524 . S
C866 H885 0.913 . S
C867 H843 0.950 . S
C867 C866 1.524 . S
C867 C868 1.415 . S
C868 H844 0.950 . S
C868 C863 1.363 . S
C868 C867 1.415 . S
C869 H845 0.951 . S
C869 C870 1.366 . S
C869 C871 1.388 . S
C870 C869 1.366 . S
C870 C874 1.385 . S
C871 H846 0.951 . S
C871 C869 1.388 . S
C871 C872 1.366 . S
C872 C871 1.366 . S
C872 C873 1.414 . S
C872 C875 1.499 . S
C873 H847 0.950 . S
C873 C872 1.414 . S
C873 C874 1.374 . S
C874 H848 0.950 . S
C874 C870 1.385 . S
C874 C873 1.374 . S
C875 C872 1.499 . S
C875 C876 1.373 . S
C875 C877 1.389 . S
C876 H849 0.950 . S
C876 C862 1.377 . S
C876 C875 1.373 . S
C877 C861 1.377 . S
C877 C875 1.389 . S
C877 C878 1.524 . S
C878 C877 1.524 . S
C878 C879 1.397 . S
C878 C883 1.363 . S
C879 H850 0.950 . S
C879 C878 1.397 . S
C879 C880 1.334 . S
C880 H851 0.950 . S
C880 C879 1.334 . S
C880 C881 1.287 . S
C881 C880 1.287 . S
C881 C882 1.524 . S
C881 H884 0.999 . S
C882 H852 0.950 1_565 S
C882 C881 1.524 . S
C882 C883 1.415 . S
C883 H853 0.950 . S
C883 C878 1.363 . S
C883 C882 1.415 . S
H884 C881 0.999 . S
H885 C866 0.913 . S
H886 C904 0.951 . S
H887 C906 0.951 . S
H888 C908 0.950 . S
H889 C909 0.950 . S
H890 C911 0.950 . S
H891 C914 0.950 . S
H892 C915 0.950 . S
H893 C917 0.950 . S
H894 C918 0.950 . S
H895 C919 0.951 . S
H896 C921 0.951 . S
H897 C923 0.950 . S
H898 C924 0.950 . S
H899 C926 0.950 . S
H900 C929 0.950 . S
H901 C930 0.950 . S
H902 C932 0.950 . S
H903 C933 0.950 . S
C904 H886 0.951 . S
C904 C905 1.366 . S
C904 C906 1.388 . S
C905 C904 1.366 . S
C905 C909 1.385 . S
C906 H887 0.951 . S
C906 C904 1.388 . S
C906 C907 1.366 . S
C907 C906 1.366 . S
C907 C908 1.414 . S
C907 C910 1.499 . S
C908 H888 0.950 . S
C908 C907 1.414 . S
C908 C909 1.374 . S
C909 H889 0.950 . S
C909 C905 1.385 . S
C909 C908 1.374 . S
C910 C907 1.499 . S
C910 C911 1.373 . S
C910 C912 1.389 . S
C911 H890 0.950 . S
C911 C910 1.373 . S
C911 C927 1.377 . S
C912 C910 1.389 . S
C912 C913 1.524 . S
C912 C926 1.377 . S
C913 C912 1.524 . S
C913 C914 1.397 . S
C913 C918 1.363 . S
C914 H891 0.950 . S
C914 C913 1.397 . S
C914 C915 1.334 . S
C915 H892 0.950 . S
C915 C914 1.334 . S
C915 C916 1.287 . S
C916 C915 1.287 . S
C916 C917 1.524 . S
C916 H935 0.913 . S
C917 H893 0.950 . S
C917 C916 1.524 . S
C917 C918 1.415 . S
C918 H894 0.950 . S
C918 C913 1.363 . S
C918 C917 1.415 . S
C919 H895 0.951 . S
C919 C920 1.366 . S
C919 C921 1.388 . S
C920 C919 1.366 . S
C920 C924 1.385 . S
C921 H896 0.951 . S
C921 C919 1.388 . S
C921 C922 1.366 . S
C922 C921 1.366 . S
C922 C923 1.414 . S
C922 C925 1.499 . S
C923 H897 0.950 . S
C923 C922 1.414 . S
C923 C924 1.374 . S
C924 H898 0.950 . S
C924 C920 1.385 . S
C924 C923 1.374 . S
C925 C922 1.499 . S
C925 C926 1.373 . S
C925 C927 1.389 . S
C926 H899 0.950 . S
C926 C912 1.377 . S
C926 C925 1.373 . S
C927 C911 1.377 . S
C927 C925 1.389 . S
C927 C928 1.524 . S
C928 C927 1.524 . S
C928 C929 1.397 . S
C928 C933 1.363 . S
C929 H900 0.950 . S
C929 C928 1.397 . S
C929 C930 1.334 . S
C930 H901 0.950 . S
C930 C929 1.334 . S
C930 C931 1.287 . S
C931 C930 1.287 . S
C931 C932 1.524 . S
C931 H934 0.999 . S
C932 H902 0.950 . S
C932 C931 1.524 . S
C932 C933 1.415 . S
C933 H903 0.950 . S
C933 C928 1.363 . S
C933 C932 1.415 . S
H934 C931 0.999 . S
H935 C916 0.913 . S
H936 C954 0.951 . S
H937 C956 0.951 . S
H938 C958 0.950 . S
H939 C959 0.950 . S
H940 C961 0.950 . S
H941 C964 0.950 . S
H942 C965 0.950 . S
H943 C967 0.950 . S
H944 C968 0.950 . S
H945 C969 0.951 . S
H946 C971 0.951 . S
H947 C973 0.950 . S
H948 C974 0.950 . S
H949 C976 0.950 . S
H950 C979 0.950 . S
H951 C980 0.950 . S
H952 C982 0.950 1_556 S
H953 C983 0.950 . S
C954 H936 0.951 . S
C954 C955 1.366 . S
C954 C956 1.388 . S
C955 C954 1.366 . S
C955 C959 1.385 . S
C956 H937 0.951 . S
C956 C954 1.388 . S
C956 C957 1.366 . S
C957 C956 1.366 . S
C957 C958 1.414 . S
C957 C960 1.499 . S
C958 H938 0.950 . S
C958 C957 1.414 . S
C958 C959 1.374 . S
C959 H939 0.950 . S
C959 C955 1.385 . S
C959 C958 1.374 . S
C960 C957 1.499 . S
C960 C961 1.373 . S
C960 C962 1.389 . S
C961 H940 0.950 . S
C961 C960 1.373 . S
C961 C977 1.377 . S
C962 C960 1.389 . S
C962 C963 1.524 . S
C962 C976 1.377 . S
C963 C962 1.524 . S
C963 C964 1.397 . S
C963 C968 1.363 . S
C964 H941 0.950 . S
C964 C963 1.397 . S
C964 C965 1.334 . S
C965 H942 0.950 . S
C965 C964 1.334 . S
C965 C966 1.287 . S
C966 C965 1.287 . S
C966 C967 1.524 . S
C966 H985 0.913 . S
C967 H943 0.950 . S
C967 C966 1.524 . S
C967 C968 1.415 . S
C968 H944 0.950 . S
C968 C963 1.363 . S
C968 C967 1.415 . S
C969 H945 0.951 . S
C969 C970 1.366 . S
C969 C971 1.388 . S
C970 C969 1.366 . S
C970 C974 1.385 . S
C971 H946 0.951 . S
C971 C969 1.388 . S
C971 C972 1.366 . S
C972 C971 1.366 . S
C972 C973 1.414 . S
C972 C975 1.499 . S
C973 H947 0.950 . S
C973 C972 1.414 . S
C973 C974 1.374 . S
C974 H948 0.950 . S
C974 C970 1.385 . S
C974 C973 1.374 . S
C975 C972 1.499 . S
C975 C976 1.373 . S
C975 C977 1.389 . S
C976 H949 0.950 . S
C976 C962 1.377 . S
C976 C975 1.373 . S
C977 C961 1.377 . S
C977 C975 1.389 . S
C977 C978 1.524 . S
C978 C977 1.524 . S
C978 C979 1.397 . S
C978 C983 1.363 . S
C979 H950 0.950 . S
C979 C978 1.397 . S
C979 C980 1.334 . S
C980 H951 0.950 . S
C980 C979 1.334 . S
C980 C981 1.287 . S
C981 C980 1.287 . S
C981 C982 1.524 . S
C981 H984 0.999 . S
C982 H952 0.950 1_554 S
C982 C981 1.524 . S
C982 C983 1.415 . S
C983 H953 0.950 . S
C983 C978 1.363 . S
C983 C982 1.415 . S
H984 C981 0.999 . S
H985 C966 0.913 . S
H986 C1004 0.951 1_455 S
H987 C1006 0.951 . S
H988 C1008 0.950 . S
H989 C1009 0.950 . S
H990 C1011 0.950 . S
H991 C1014 0.950 . S
H992 C1015 0.950 . S
H993 C1017 0.950 . S
H994 C1018 0.950 . S
H995 C1019 0.951 . S
H996 C1021 0.951 . S
H997 C1023 0.950 . S
H998 C1024 0.950 . S
H999 C1026 0.950 . S
H1000 C1029 0.950 . S
H1001 C1030 0.950 . S
H1002 C1032 0.950 . S
H1003 C1033 0.950 . S
C1004 H986 0.951 1_655 S
C1004 C1005 1.366 . S
C1004 C1006 1.388 . S
C1005 C1004 1.366 . S
C1005 C1009 1.385 . S
C1006 H987 0.951 . S
C1006 C1004 1.388 . S
C1006 C1007 1.366 . S
C1007 C1006 1.366 . S
C1007 C1008 1.414 . S
C1007 C1010 1.499 . S
C1008 H988 0.950 . S
C1008 C1007 1.414 . S
C1008 C1009 1.374 . S
C1009 H989 0.950 . S
C1009 C1005 1.385 . S
C1009 C1008 1.374 . S
C1010 C1007 1.499 . S
C1010 C1011 1.373 . S
C1010 C1012 1.389 . S
C1011 H990 0.950 . S
C1011 C1010 1.373 . S
C1011 C1027 1.377 . S
C1012 C1010 1.389 . S
C1012 C1013 1.524 . S
C1012 C1026 1.377 . S
C1013 C1012 1.524 . S
C1013 C1014 1.397 . S
C1013 C1018 1.363 . S
C1014 H991 0.950 . S
C1014 C1013 1.397 . S
C1014 C1015 1.334 . S
C1015 H992 0.950 . S
C1015 C1014 1.334 . S
C1015 C1016 1.287 . S
C1016 C1015 1.287 . S
C1016 C1017 1.524 . S
C1016 H1035 0.913 . S
C1017 H993 0.950 . S
C1017 C1016 1.524 . S
C1017 C1018 1.415 . S
C1018 H994 0.950 . S
C1018 C1013 1.363 . S
C1018 C1017 1.415 . S
C1019 H995 0.951 . S
C1019 C1020 1.366 . S
C1019 C1021 1.388 . S
C1020 C1019 1.366 . S
C1020 C1024 1.385 . S
C1021 H996 0.951 . S
C1021 C1019 1.388 . S
C1021 C1022 1.366 . S
C1022 C1021 1.366 . S
C1022 C1023 1.414 . S
C1022 C1025 1.499 . S
C1023 H997 0.950 . S
C1023 C1022 1.414 . S
C1023 C1024 1.374 . S
C1024 H998 0.950 . S
C1024 C1020 1.385 . S
C1024 C1023 1.374 . S
C1025 C1022 1.499 . S
C1025 C1026 1.373 . S
C1025 C1027 1.389 . S
C1026 H999 0.950 . S
C1026 C1012 1.377 . S
C1026 C1025 1.373 . S
C1027 C1011 1.377 . S
C1027 C1025 1.389 . S
C1027 C1028 1.524 . S
C1028 C1027 1.524 . S
C1028 C1029 1.397 . S
C1028 C1033 1.363 . S
C1029 H1000 0.950 . S
C1029 C1028 1.397 . S
C1029 C1030 1.334 . S
C1030 H1001 0.950 . S
C1030 C1029 1.334 . S
C1030 C1031 1.287 . S
C1031 C1030 1.287 . S
C1031 C1032 1.524 . S
C1031 H1034 0.999 . S
C1032 H1002 0.950 . S
C1032 C1031 1.524 . S
C1032 C1033 1.415 . S
C1033 H1003 0.950 . S
C1033 C1028 1.363 . S
C1033 C1032 1.415 . S
H1034 C1031 0.999 . S
H1035 C1016 0.913 . S
H1036 C1054 0.951 . S
H1037 C1056 0.951 . S
H1038 C1058 0.950 . S
H1039 C1059 0.950 . S
H1040 C1061 0.950 . S
H1041 C1064 0.950 . S
H1042 C1065 0.950 . S
H1043 C1067 0.950 . S
H1044 C1068 0.950 . S
H1045 C1069 0.951 . S
H1046 C1071 0.951 . S
H1047 C1073 0.950 . S
H1048 C1074 0.950 . S
H1049 C1076 0.950 . S
H1050 C1079 0.950 . S
H1051 C1080 0.950 . S
H1052 C1082 0.950 . S
H1053 C1083 0.950 . S
C1054 H1036 0.951 . S
C1054 C1055 1.366 . S
C1054 C1056 1.388 . S
C1055 C1054 1.366 . S
C1055 C1059 1.385 . S
C1056 H1037 0.951 . S
C1056 C1054 1.388 . S
C1056 C1057 1.366 . S
C1057 C1056 1.366 . S
C1057 C1058 1.414 . S
C1057 C1060 1.499 . S
C1058 H1038 0.950 . S
C1058 C1057 1.414 . S
C1058 C1059 1.374 . S
C1059 H1039 0.950 . S
C1059 C1055 1.385 . S
C1059 C1058 1.374 . S
C1060 C1057 1.499 . S
C1060 C1061 1.373 . S
C1060 C1062 1.389 . S
C1061 H1040 0.950 . S
C1061 C1060 1.373 . S
C1061 C1077 1.377 . S
C1062 C1060 1.389 . S
C1062 C1063 1.524 . S
C1062 C1076 1.377 . S
C1063 C1062 1.524 . S
C1063 C1064 1.397 . S
C1063 C1068 1.363 . S
C1064 H1041 0.950 . S
C1064 C1063 1.397 . S
C1064 C1065 1.334 . S
C1065 H1042 0.950 . S
C1065 C1064 1.334 . S
C1065 C1066 1.287 . S
C1066 C1065 1.287 . S
C1066 C1067 1.524 . S
C1066 H1085 0.913 . S
C1067 H1043 0.950 . S
C1067 C1066 1.524 . S
C1067 C1068 1.415 . S
C1068 H1044 0.950 . S
C1068 C1063 1.363 . S
C1068 C1067 1.415 . S
C1069 H1045 0.951 . S
C1069 C1070 1.366 . S
C1069 C1071 1.388 . S
C1070 C1069 1.366 . S
C1070 C1074 1.385 . S
C1071 H1046 0.951 . S
C1071 C1069 1.388 . S
C1071 C1072 1.366 . S
C1072 C1071 1.366 . S
C1072 C1073 1.414 . S
C1072 C1075 1.499 . S
C1073 H1047 0.950 . S
C1073 C1072 1.414 . S
C1073 C1074 1.374 . S
C1074 H1048 0.950 . S
C1074 C1070 1.385 . S
C1074 C1073 1.374 . S
C1075 C1072 1.499 . S
C1075 C1076 1.373 . S
C1075 C1077 1.389 . S
C1076 H1049 0.950 . S
C1076 C1062 1.377 . S
C1076 C1075 1.373 . S
C1077 C1061 1.377 . S
C1077 C1075 1.389 . S
C1077 C1078 1.524 . S
C1078 C1077 1.524 . S
C1078 C1079 1.397 . S
C1078 C1083 1.363 . S
C1079 H1050 0.950 . S
C1079 C1078 1.397 . S
C1079 C1080 1.334 . S
C1080 H1051 0.950 . S
C1080 C1079 1.334 . S
C1080 C1081 1.287 . S
C1081 C1080 1.287 . S
C1081 C1082 1.524 . S
C1081 H1084 0.999 . S
C1082 H1052 0.950 . S
C1082 C1081 1.524 . S
C1082 C1083 1.415 . S
C1083 H1053 0.950 . S
C1083 C1078 1.363 . S
C1083 C1082 1.415 . S
H1084 C1081 0.999 . S
H1085 C1066 0.913 . S
H1086 C1104 0.951 . S
H1087 C1106 0.951 . S
H1088 C1108 0.950 . S
H1089 C1109 0.898 1_455 S
H1090 C1111 0.950 . S
H1091 C1114 0.950 . S
H1092 C1115 0.950 . S
H1093 C1117 0.950 . S
H1094 C1118 0.950 . S
H1095 C1119 0.951 . S
H1096 C1121 0.951 . S
H1097 C1123 0.950 . S
H1098 C1124 0.950 . S
H1099 C1126 0.950 . S
H1100 C1129 0.950 . S
H1101 C1130 0.950 . S
H1102 C1132 0.950 1_455 S
H1103 C1133 0.950 . S
C1104 H1086 0.951 . S
C1104 C1105 1.366 . S
C1104 C1106 1.388 . S
C1105 C1104 1.366 . S
C1105 C1109 1.385 . S
C1106 H1087 0.951 . S
C1106 C1104 1.388 . S
C1106 C1107 1.366 . S
C1107 C1106 1.366 . S
C1107 C1108 1.414 . S
C1107 C1110 1.499 . S
C1108 H1088 0.950 . S
C1108 C1107 1.414 . S
C1108 C1109 1.374 . S
C1109 H1089 0.898 1_655 S
C1109 C1105 1.385 . S
C1109 C1108 1.374 . S
C1110 C1107 1.499 . S
C1110 C1111 1.373 . S
C1110 C1112 1.389 . S
C1111 H1090 0.950 . S
C1111 C1110 1.373 . S
C1111 C1127 1.377 . S
C1112 C1110 1.389 . S
C1112 C1113 1.524 . S
C1112 C1126 1.377 . S
C1113 C1112 1.524 . S
C1113 C1114 1.397 . S
C1113 C1118 1.363 . S
C1114 H1091 0.950 . S
C1114 C1113 1.397 . S
C1114 C1115 1.334 . S
C1115 H1092 0.950 . S
C1115 C1114 1.334 . S
C1115 C1116 1.287 . S
C1116 C1115 1.287 . S
C1116 C1117 1.524 . S
C1116 H1135 0.913 . S
C1117 H1093 0.950 . S
C1117 C1116 1.524 . S
C1117 C1118 1.415 . S
C1118 H1094 0.950 . S
C1118 C1113 1.363 . S
C1118 C1117 1.415 . S
C1119 H1095 0.951 . S
C1119 C1120 1.366 . S
C1119 C1121 1.388 . S
C1120 C1119 1.366 . S
C1120 C1124 1.385 . S
C1121 H1096 0.951 . S
C1121 C1119 1.388 . S
C1121 C1122 1.366 . S
C1122 C1121 1.366 . S
C1122 C1123 1.414 . S
C1122 C1125 1.499 . S
C1123 H1097 0.950 . S
C1123 C1122 1.414 . S
C1123 C1124 1.374 . S
C1124 H1098 0.950 . S
C1124 C1120 1.385 . S
C1124 C1123 1.374 . S
C1125 C1122 1.499 . S
C1125 C1126 1.373 . S
C1125 C1127 1.389 . S
C1126 H1099 0.950 . S
C1126 C1112 1.377 . S
C1126 C1125 1.373 . S
C1127 C1111 1.377 . S
C1127 C1125 1.389 . S
C1127 C1128 1.524 . S
C1128 C1127 1.524 . S
C1128 C1129 1.397 . S
C1128 C1133 1.363 . S
C1129 H1100 0.950 . S
C1129 C1128 1.397 . S
C1129 C1130 1.334 . S
C1130 H1101 0.950 . S
C1130 C1129 1.334 . S
C1130 C1131 1.287 . S
C1131 C1130 1.287 . S
C1131 C1132 1.524 . S
C1131 H1134 0.999 . S
C1132 H1102 0.950 1_655 S
C1132 C1131 1.524 . S
C1132 C1133 1.415 . S
C1133 H1103 0.950 . S
C1133 C1128 1.363 . S
C1133 C1132 1.415 . S
H1134 C1131 0.999 . S
H1135 C1116 0.913 . S
H1136 C1154 0.951 . S
H1137 C1156 0.951 . S
H1138 C1158 0.950 . S
H1139 C1159 0.950 . S
H1140 C1161 0.950 . S
H1141 C1164 0.950 . S
H1142 C1165 0.950 . S
H1143 C1167 0.950 . S
H1144 C1168 0.950 . S
H1145 C1169 0.951 . S
H1146 C1171 0.951 . S
H1147 C1173 0.950 . S
H1148 C1174 0.950 . S
H1149 C1176 0.950 . S
H1150 C1179 0.950 . S
H1151 C1180 0.950 . S
H1152 C1182 0.950 . S
H1153 C1183 0.950 . S
C1154 H1136 0.951 . S
C1154 C1155 1.366 . S
C1154 C1156 1.388 . S
C1155 C1154 1.366 . S
C1155 C1159 1.385 . S
C1156 H1137 0.951 . S
C1156 C1154 1.388 . S
C1156 C1157 1.366 . S
C1157 C1156 1.366 . S
C1157 C1158 1.414 . S
C1157 C1160 1.499 . S
C1158 H1138 0.950 . S
C1158 C1157 1.414 . S
C1158 C1159 1.374 . S
C1159 H1139 0.950 . S
C1159 C1155 1.385 . S
C1159 C1158 1.374 . S
C1160 C1157 1.499 . S
C1160 C1161 1.373 . S
C1160 C1162 1.389 . S
C1161 H1140 0.950 . S
C1161 C1160 1.373 . S
C1161 C1177 1.377 . S
C1162 C1160 1.389 . S
C1162 C1163 1.524 . S
C1162 C1176 1.377 . S
C1163 C1162 1.524 . S
C1163 C1164 1.397 . S
C1163 C1168 1.363 . S
C1164 H1141 0.950 . S
C1164 C1163 1.397 . S
C1164 C1165 1.334 . S
C1165 H1142 0.950 . S
C1165 C1164 1.334 . S
C1165 C1166 1.287 . S
C1166 C1165 1.287 . S
C1166 C1167 1.524 . S
C1166 H1185 0.913 . S
C1167 H1143 0.950 . S
C1167 C1166 1.524 . S
C1167 C1168 1.415 . S
C1168 H1144 0.950 . S
C1168 C1163 1.363 . S
C1168 C1167 1.415 . S
C1169 H1145 0.951 . S
C1169 C1170 1.366 . S
C1169 C1171 1.388 . S
C1170 C1169 1.366 . S
C1170 C1174 1.385 . S
C1171 H1146 0.951 . S
C1171 C1169 1.388 . S
C1171 C1172 1.366 . S
C1172 C1171 1.366 . S
C1172 C1173 1.414 . S
C1172 C1175 1.499 . S
C1173 H1147 0.950 . S
C1173 C1172 1.414 . S
C1173 C1174 1.374 . S
C1174 H1148 0.950 . S
C1174 C1170 1.385 . S
C1174 C1173 1.374 . S
C1175 C1172 1.499 . S
C1175 C1176 1.373 . S
C1175 C1177 1.389 . S
C1176 H1149 0.950 . S
C1176 C1162 1.377 . S
C1176 C1175 1.373 . S
C1177 C1161 1.377 . S
C1177 C1175 1.389 . S
C1177 C1178 1.524 . S
C1178 C1177 1.524 . S
C1178 C1179 1.397 . S
C1178 C1183 1.363 . S
C1179 H1150 0.950 . S
C1179 C1178 1.397 . S
C1179 C1180 1.334 . S
C1180 H1151 0.950 . S
C1180 C1179 1.334 . S
C1180 C1181 1.287 . S
C1181 C1180 1.287 . S
C1181 C1182 1.524 . S
C1181 H1184 0.999 . S
C1182 H1152 0.950 . S
C1182 C1181 1.524 . S
C1182 C1183 1.415 . S
C1183 H1153 0.950 . S
C1183 C1178 1.363 . S
C1183 C1182 1.415 . S
H1184 C1181 0.999 . S
H1185 C1166 0.913 . S
H1186 C1204 0.951 . S
H1187 C1206 0.951 . S
H1188 C1208 0.950 . S
H1189 C1209 0.950 . S
H1190 C1211 0.950 . S
H1191 C1214 0.950 . S
H1192 C1215 0.950 . S
H1193 C1217 0.950 . S
H1194 C1218 0.950 . S
H1195 C1219 0.951 . S
H1196 C1221 0.951 . S
H1197 C1223 0.950 . S
H1198 C1224 0.950 . S
H1199 C1226 0.950 . S
H1200 C1229 0.950 . S
H1201 C1230 0.950 . S
H1202 C1232 0.950 . S
H1203 C1233 0.950 . S
C1204 H1186 0.951 . S
C1204 C1205 1.366 . S
C1204 C1206 1.388 . S
C1205 C1204 1.366 . S
C1205 C1209 1.385 . S
C1206 H1187 0.951 . S
C1206 C1204 1.388 . S
C1206 C1207 1.366 . S
C1207 C1206 1.366 . S
C1207 C1208 1.414 . S
C1207 C1210 1.499 . S
C1208 H1188 0.950 . S
C1208 C1207 1.414 . S
C1208 C1209 1.374 . S
C1209 H1189 0.950 . S
C1209 C1205 1.385 . S
C1209 C1208 1.374 . S
C1210 C1207 1.499 . S
C1210 C1211 1.373 . S
C1210 C1212 1.389 . S
C1211 H1190 0.950 . S
C1211 C1210 1.373 . S
C1211 C1227 1.377 . S
C1212 C1210 1.389 . S
C1212 C1213 1.524 . S
C1212 C1226 1.377 . S
C1213 C1212 1.524 . S
C1213 C1214 1.397 . S
C1213 C1218 1.363 . S
C1214 H1191 0.950 . S
C1214 C1213 1.397 . S
C1214 C1215 1.334 . S
C1215 H1192 0.950 . S
C1215 C1214 1.334 . S
C1215 C1216 1.287 . S
C1216 C1215 1.287 . S
C1216 C1217 1.524 . S
C1216 H1235 0.913 . S
C1217 H1193 0.950 . S
C1217 C1216 1.524 . S
C1217 C1218 1.415 . S
C1218 H1194 0.950 . S
C1218 C1213 1.363 . S
C1218 C1217 1.415 . S
C1219 H1195 0.951 . S
C1219 C1220 1.366 . S
C1219 C1221 1.388 . S
C1220 C1219 1.366 . S
C1220 C1224 1.385 . S
C1221 H1196 0.951 . S
C1221 C1219 1.388 . S
C1221 C1222 1.366 . S
C1222 C1221 1.366 . S
C1222 C1223 1.414 . S
C1222 C1225 1.499 . S
C1223 H1197 0.950 . S
C1223 C1222 1.414 . S
C1223 C1224 1.374 . S
C1224 H1198 0.950 . S
C1224 C1220 1.385 . S
C1224 C1223 1.374 . S
C1225 C1222 1.499 . S
C1225 C1226 1.373 . S
C1225 C1227 1.389 . S
C1226 H1199 0.950 . S
C1226 C1212 1.377 . S
C1226 C1225 1.373 . S
C1227 C1211 1.377 . S
C1227 C1225 1.389 . S
C1227 C1228 1.524 . S
C1228 C1227 1.524 . S
C1228 C1229 1.397 . S
C1228 C1233 1.363 . S
C1229 H1200 0.950 . S
C1229 C1228 1.397 . S
C1229 C1230 1.334 . S
C1230 H1201 0.950 . S
C1230 C1229 1.334 . S
C1230 C1231 1.287 . S
C1231 C1230 1.287 . S
C1231 C1232 1.524 . S
C1231 H1234 0.999 . S
C1232 H1202 0.950 . S
C1232 C1231 1.524 . S
C1232 C1233 1.415 . S
C1233 H1203 0.950 . S
C1233 C1228 1.363 . S
C1233 C1232 1.415 . S
H1234 C1231 0.999 . S
H1235 C1216 0.913 . S
H1236 C1254 0.951 . S
H1237 C1256 0.951 . S
H1238 C1258 0.950 . S
H1239 C1259 0.950 . S
H1240 C1261 0.950 . S
H1241 C1264 0.950 . S
H1242 C1265 0.950 . S
H1243 C1267 0.950 . S
H1244 C1268 0.950 . S
H1245 C1269 0.951 . S
H1246 C1271 0.951 . S
H1247 C1273 0.950 . S
H1248 C1274 0.950 . S
H1249 C1276 0.950 . S
H1250 C1279 0.950 . S
H1251 C1280 0.950 . S
H1252 C1282 0.950 . S
H1253 C1283 0.950 . S
C1254 H1236 0.951 . S
C1254 C1255 1.366 . S
C1254 C1256 1.388 . S
C1255 C1254 1.366 . S
C1255 C1259 1.385 . S
C1256 H1237 0.951 . S
C1256 C1254 1.388 . S
C1256 C1257 1.366 . S
C1257 C1256 1.366 . S
C1257 C1258 1.414 . S
C1257 C1260 1.499 . S
C1258 H1238 0.950 . S
C1258 C1257 1.414 . S
C1258 C1259 1.374 . S
C1259 H1239 0.950 . S
C1259 C1255 1.385 . S
C1259 C1258 1.374 . S
C1260 C1257 1.499 . S
C1260 C1261 1.373 . S
C1260 C1262 1.389 . S
C1261 H1240 0.950 . S
C1261 C1260 1.373 . S
C1261 C1277 1.377 . S
C1262 C1260 1.389 . S
C1262 C1263 1.524 . S
C1262 C1276 1.377 . S
C1263 C1262 1.524 . S
C1263 C1264 1.397 . S
C1263 C1268 1.363 . S
C1264 H1241 0.950 . S
C1264 C1263 1.397 . S
C1264 C1265 1.334 . S
C1265 H1242 0.950 . S
C1265 C1264 1.334 . S
C1265 C1266 1.287 . S
C1266 C1265 1.287 . S
C1266 C1267 1.524 . S
C1266 H1285 0.913 . S
C1267 H1243 0.950 . S
C1267 C1266 1.524 . S
C1267 C1268 1.415 . S
C1268 H1244 0.950 . S
C1268 C1263 1.363 . S
C1268 C1267 1.415 . S
C1269 H1245 0.951 . S
C1269 C1270 1.366 . S
C1269 C1271 1.388 . S
C1270 C1269 1.366 . S
C1270 C1274 1.385 . S
C1271 H1246 0.951 . S
C1271 C1269 1.388 . S
C1271 C1272 1.366 . S
C1272 C1271 1.366 . S
C1272 C1273 1.414 . S
C1272 C1275 1.499 . S
C1273 H1247 0.950 . S
C1273 C1272 1.414 . S
C1273 C1274 1.374 . S
C1274 H1248 0.950 . S
C1274 C1270 1.385 . S
C1274 C1273 1.374 . S
C1275 C1272 1.499 . S
C1275 C1276 1.373 . S
C1275 C1277 1.389 . S
C1276 H1249 0.950 . S
C1276 C1262 1.377 . S
C1276 C1275 1.373 . S
C1277 C1261 1.377 . S
C1277 C1275 1.389 . S
C1277 C1278 1.524 . S
C1278 C1277 1.524 . S
C1278 C1279 1.397 . S
C1278 C1283 1.363 . S
C1279 H1250 0.950 . S
C1279 C1278 1.397 . S
C1279 C1280 1.334 . S
C1280 H1251 0.950 . S
C1280 C1279 1.334 . S
C1280 C1281 1.287 . S
C1281 C1280 1.287 . S
C1281 C1282 1.524 . S
C1281 H1284 1.021 . S
C1282 H1252 0.950 . S
C1282 C1281 1.524 . S
C1282 C1283 1.415 . S
C1283 H1253 0.950 . S
C1283 C1278 1.363 . S
C1283 C1282 1.415 . S
H1284 C1281 1.021 . S
H1285 C1266 0.913 . S
H1286 C1304 0.951 . S
H1287 C1306 0.951 . S
H1288 C1308 0.950 . S
H1289 C1309 0.950 . S
H1290 C1311 0.950 . S
H1291 C1314 0.950 . S
H1292 C1315 0.950 . S
H1293 C1317 0.950 . S
H1294 C1318 0.950 . S
H1295 C1319 0.951 . S
H1296 C1321 0.951 . S
H1297 C1323 0.950 . S
H1298 C1324 0.950 . S
H1299 C1326 0.950 . S
H1300 C1329 0.950 . S
H1301 C1330 0.950 . S
H1302 C1332 0.950 . S
H1303 C1333 0.950 . S
C1304 H1286 0.951 . S
C1304 C1305 1.366 . S
C1304 C1306 1.388 . S
C1305 C1304 1.366 . S
C1305 C1309 1.385 . S
C1306 H1287 0.951 . S
C1306 C1304 1.388 . S
C1306 C1307 1.366 . S
C1307 C1306 1.366 . S
C1307 C1308 1.414 . S
C1307 C1310 1.499 . S
C1308 H1288 0.950 . S
C1308 C1307 1.414 . S
C1308 C1309 1.374 . S
C1309 H1289 0.950 . S
C1309 C1305 1.385 . S
C1309 C1308 1.374 . S
C1310 C1307 1.499 . S
C1310 C1311 1.373 . S
C1310 C1312 1.389 . S
C1311 H1290 0.950 . S
C1311 C1310 1.373 . S
C1311 C1327 1.377 . S
C1312 C1310 1.389 . S
C1312 C1313 1.524 . S
C1312 C1326 1.377 . S
C1313 C1312 1.524 . S
C1313 C1314 1.397 . S
C1313 C1318 1.363 . S
C1314 H1291 0.950 . S
C1314 C1313 1.397 . S
C1314 C1315 1.334 . S
C1315 H1292 0.950 . S
C1315 C1314 1.334 . S
C1315 C1316 1.287 . S
C1316 C1315 1.287 . S
C1316 C1317 1.524 . S
C1316 H1335 0.913 . S
C1317 H1293 0.950 . S
C1317 C1316 1.524 . S
C1317 C1318 1.415 . S
C1318 H1294 0.950 . S
C1318 C1313 1.363 . S
C1318 C1317 1.415 . S
C1319 H1295 0.951 . S
C1319 C1320 1.366 . S
C1319 C1321 1.388 . S
C1320 C1319 1.366 . S
C1320 C1324 1.385 . S
C1321 H1296 0.951 . S
C1321 C1319 1.388 . S
C1321 C1322 1.366 . S
C1322 C1321 1.366 . S
C1322 C1323 1.414 . S
C1322 C1325 1.499 . S
C1323 H1297 0.950 . S
C1323 C1322 1.414 . S
C1323 C1324 1.374 . S
C1324 H1298 0.950 . S
C1324 C1320 1.385 . S
C1324 C1323 1.374 . S
C1325 C1322 1.499 . S
C1325 C1326 1.373 . S
C1325 C1327 1.389 . S
C1326 H1299 0.950 . S
C1326 C1312 1.377 . S
C1326 C1325 1.373 . S
C1327 C1311 1.377 . S
C1327 C1325 1.389 . S
C1327 C1328 1.524 . S
C1328 C1327 1.524 . S
C1328 C1329 1.397 . S
C1328 C1333 1.363 . S
C1329 H1300 0.950 . S
C1329 C1328 1.397 . S
C1329 C1330 1.334 1_655 S
C1330 H1301 0.950 . S
C1330 C1329 1.334 1_455 S
C1330 C1331 1.287 . S
C1331 C1330 1.287 . S
C1331 C1332 1.524 1_455 S
C1331 H1334 0.999 . S
C1332 H1302 0.950 . S
C1332 C1331 1.524 1_655 S
C1332 C1333 1.415 . S
C1333 H1303 0.950 . S
C1333 C1328 1.363 . S
C1333 C1332 1.415 . S
H1334 C1331 0.999 . S
H1335 C1316 0.913 . S
H1336 C1354 0.951 . S
H1337 C1356 0.951 . S
H1338 C1358 0.950 . S
H1339 C1359 0.950 . S
H1340 C1361 0.950 . S
H1341 C1364 0.950 . S
H1342 C1365 0.950 . S
H1343 C1367 0.950 . S
H1344 C1368 0.950 . S
H1345 C1369 0.951 . S
H1346 C1371 0.951 . S
H1347 C1373 0.950 . S
H1348 C1374 0.950 . S
H1349 C1376 0.950 . S
H1350 C1379 0.950 . S
H1351 C1380 0.950 . S
H1352 C1382 0.950 . S
H1353 C1383 0.950 . S
C1354 H1336 0.951 . S
C1354 C1355 1.366 . S
C1354 C1356 1.388 . S
C1355 C1354 1.366 . S
C1355 C1359 1.385 . S
C1356 H1337 0.951 . S
C1356 C1354 1.388 . S
C1356 C1357 1.366 . S
C1357 C1356 1.366 . S
C1357 C1358 1.414 . S
C1357 C1360 1.499 . S
C1358 H1338 0.950 . S
C1358 C1357 1.414 . S
C1358 C1359 1.374 . S
C1359 H1339 0.950 . S
C1359 C1355 1.385 . S
C1359 C1358 1.374 . S
C1360 C1357 1.499 . S
C1360 C1361 1.373 . S
C1360 C1362 1.389 . S
C1361 H1340 0.950 . S
C1361 C1360 1.373 . S
C1361 C1377 1.377 . S
C1362 C1360 1.389 . S
C1362 C1363 1.524 . S
C1362 C1376 1.377 . S
C1363 C1362 1.524 . S
C1363 C1364 1.397 . S
C1363 C1368 1.363 . S
C1364 H1341 0.950 . S
C1364 C1363 1.397 . S
C1364 C1365 1.334 . S
C1365 H1342 0.950 . S
C1365 C1364 1.334 . S
C1365 C1366 1.287 . S
C1366 C1365 1.287 . S
C1366 C1367 1.524 . S
C1366 H1385 0.913 . S
C1367 H1343 0.950 . S
C1367 C1366 1.524 . S
C1367 C1368 1.415 . S
C1368 H1344 0.950 . S
C1368 C1363 1.363 . S
C1368 C1367 1.415 . S
C1369 H1345 0.951 . S
C1369 C1370 1.366 . S
C1369 C1371 1.388 . S
C1370 C1369 1.366 . S
C1370 C1374 1.385 . S
C1371 H1346 0.951 . S
C1371 C1369 1.388 . S
C1371 C1372 1.366 . S
C1372 C1371 1.366 . S
C1372 C1373 1.414 . S
C1372 C1375 1.499 . S
C1373 H1347 0.950 . S
C1373 C1372 1.414 . S
C1373 C1374 1.374 . S
C1374 H1348 0.950 . S
C1374 C1370 1.385 . S
C1374 C1373 1.374 . S
C1375 C1372 1.499 . S
C1375 C1376 1.373 . S
C1375 C1377 1.389 . S
C1376 H1349 0.950 . S
C1376 C1362 1.377 . S
C1376 C1375 1.373 . S
C1377 C1361 1.377 . S
C1377 C1375 1.389 . S
C1377 C1378 1.524 . S
C1378 C1377 1.524 . S
C1378 C1379 1.397 . S
C1378 C1383 1.363 . S
C1379 H1350 0.950 . S
C1379 C1378 1.397 . S
C1379 C1380 1.334 . S
C1380 H1351 0.950 . S
C1380 C1379 1.334 . S
C1380 C1381 1.287 . S
C1381 C1380 1.287 . S
C1381 C1382 1.524 . S
C1381 H1384 0.999 . S
C1382 H1352 0.950 . S
C1382 C1381 1.524 . S
C1382 C1383 1.415 . S
C1383 H1353 0.950 . S
C1383 C1378 1.363 . S
C1383 C1382 1.415 . S
H1384 C1381 0.999 . S
H1385 C1366 0.913 . S
H1386 C1404 0.951 . S
H1387 C1406 0.951 . S
H1388 C1408 0.950 . S
H1389 C1409 0.950 . S
H1390 C1411 0.950 . S
H1391 C1414 0.950 . S
H1392 C1415 0.950 . S
H1393 C1417 0.950 . S
H1394 C1418 0.950 . S
H1395 C1419 0.951 . S
H1396 C1421 0.951 . S
H1397 C1423 0.950 . S
H1398 C1424 0.950 . S
H1399 C1426 0.950 . S
H1400 C1429 0.950 . S
H1401 C1430 0.950 . S
H1402 C1432 0.950 . S
H1403 C1433 0.950 . S
C1404 H1386 0.951 . S
C1404 C1405 1.366 . S
C1404 C1406 1.388 . S
C1405 C1404 1.366 . S
C1405 C1409 1.385 . S
C1406 H1387 0.951 . S
C1406 C1404 1.388 . S
C1406 C1407 1.366 . S
C1407 C1406 1.366 . S
C1407 C1408 1.414 . S
C1407 C1410 1.499 . S
C1408 H1388 0.950 . S
C1408 C1407 1.414 . S
C1408 C1409 1.374 . S
C1409 H1389 0.950 . S
C1409 C1405 1.385 . S
C1409 C1408 1.374 . S
C1410 C1407 1.499 . S
C1410 C1411 1.373 . S
C1410 C1412 1.389 . S
C1411 H1390 0.950 . S
C1411 C1410 1.373 . S
C1411 C1427 1.377 . S
C1412 C1410 1.389 . S
C1412 C1413 1.524 . S
C1412 C1426 1.377 . S
C1413 C1412 1.524 . S
C1413 C1414 1.397 . S
C1413 C1418 1.363 . S
C1414 H1391 0.950 . S
C1414 C1413 1.397 . S
C1414 C1415 1.334 . S
C1415 H1392 0.950 . S
C1415 C1414 1.334 . S
C1415 C1416 1.287 . S
C1416 C1415 1.287 . S
C1416 C1417 1.524 . S
C1416 H1435 0.913 . S
C1417 H1393 0.950 . S
C1417 C1416 1.524 . S
C1417 C1418 1.415 . S
C1418 H1394 0.950 . S
C1418 C1413 1.363 . S
C1418 C1417 1.415 . S
C1419 H1395 0.951 . S
C1419 C1420 1.366 . S
C1419 C1421 1.388 . S
C1420 C1419 1.366 . S
C1420 C1424 1.385 . S
C1421 H1396 0.951 . S
C1421 C1419 1.388 . S
C1421 C1422 1.366 . S
C1422 C1421 1.366 . S
C1422 C1423 1.414 . S
C1422 C1425 1.499 . S
C1423 H1397 0.950 . S
C1423 C1422 1.414 . S
C1423 C1424 1.374 . S
C1424 H1398 0.950 . S
C1424 C1420 1.385 . S
C1424 C1423 1.374 . S
C1425 C1422 1.499 . S
C1425 C1426 1.373 . S
C1425 C1427 1.389 . S
C1426 H1399 0.950 . S
C1426 C1412 1.377 . S
C1426 C1425 1.373 . S
C1427 C1411 1.377 . S
C1427 C1425 1.389 . S
C1427 C1428 1.524 . S
C1428 C1427 1.524 . S
C1428 C1429 1.397 . S
C1428 C1433 1.363 . S
C1429 H1400 0.950 . S
C1429 C1428 1.397 . S
C1429 C1430 1.334 . S
C1430 H1401 0.950 . S
C1430 C1429 1.334 . S
C1430 C1431 1.287 . S
C1431 C1430 1.287 . S
C1431 C1432 1.524 . S
C1431 H1434 0.999 . S
C1432 H1402 0.950 . S
C1432 C1431 1.524 . S
C1432 C1433 1.415 . S
C1433 H1403 0.950 . S
C1433 C1428 1.363 . S
C1433 C1432 1.415 . S
H1434 C1431 0.999 . S
H1435 C1416 0.913 . S
H1436 C1454 0.951 . S
H1437 C1456 0.951 . S
H1438 C1458 0.950 . S
H1439 C1459 0.950 . S
H1440 C1461 0.950 . S
H1441 C1464 0.950 . S
H1442 C1465 0.950 . S
H1443 C1467 0.950 . S
H1444 C1468 0.950 . S
H1445 C1469 0.951 . S
H1446 C1471 0.951 . S
H1447 C1473 0.950 . S
H1448 C1474 0.950 . S
H1449 C1476 0.950 . S
H1450 C1479 0.950 . S
H1451 C1480 0.950 . S
H1452 C1482 0.950 . S
H1453 C1483 0.950 . S
C1454 H1436 0.951 . S
C1454 C1455 1.366 . S
C1454 C1456 1.388 . S
C1455 C1454 1.366 . S
C1455 C1459 1.385 . S
C1456 H1437 0.951 . S
C1456 C1454 1.388 . S
C1456 C1457 1.366 . S
C1457 C1456 1.366 . S
C1457 C1458 1.414 . S
C1457 C1460 1.499 . S
C1458 H1438 0.950 . S
C1458 C1457 1.414 . S
C1458 C1459 1.374 . S
C1459 H1439 0.950 . S
C1459 C1455 1.385 . S
C1459 C1458 1.374 . S
C1460 C1457 1.499 . S
C1460 C1461 1.373 . S
C1460 C1462 1.389 . S
C1461 H1440 0.950 . S
C1461 C1460 1.373 . S
C1461 C1477 1.377 . S
C1462 C1460 1.389 . S
C1462 C1463 1.524 . S
C1462 C1476 1.377 . S
C1463 C1462 1.524 . S
C1463 C1464 1.397 . S
C1463 C1468 1.363 . S
C1464 H1441 0.950 . S
C1464 C1463 1.397 . S
C1464 C1465 1.334 . S
C1465 H1442 0.950 . S
C1465 C1464 1.334 . S
C1465 C1466 1.287 . S
C1466 C1465 1.287 . S
C1466 C1467 1.524 . S
C1466 H1485 0.913 . S
C1467 H1443 0.950 . S
C1467 C1466 1.524 . S
C1467 C1468 1.415 . S
C1468 H1444 0.950 . S
C1468 C1463 1.363 . S
C1468 C1467 1.415 . S
C1469 H1445 0.951 . S
C1469 C1470 1.366 . S
C1469 C1471 1.388 . S
C1470 C1469 1.366 . S
C1470 C1474 1.385 . S
C1471 H1446 0.951 . S
C1471 C1469 1.388 . S
C1471 C1472 1.366 . S
C1472 C1471 1.366 . S
C1472 C1473 1.414 . S
C1472 C1475 1.499 . S
C1473 H1447 0.950 . S
C1473 C1472 1.414 . S
C1473 C1474 1.374 . S
C1474 H1448 0.950 . S
C1474 C1470 1.385 . S
C1474 C1473 1.374 . S
C1475 C1472 1.499 . S
C1475 C1476 1.373 . S
C1475 C1477 1.389 . S
C1476 H1449 0.950 . S
C1476 C1462 1.377 . S
C1476 C1475 1.373 . S
C1477 C1461 1.377 . S
C1477 C1475 1.389 . S
C1477 C1478 1.524 . S
C1478 C1477 1.524 . S
C1478 C1479 1.397 . S
C1478 C1483 1.363 . S
C1479 H1450 0.950 . S
C1479 C1478 1.397 . S
C1479 C1480 1.334 1_554 S
C1480 H1451 0.950 . S
C1480 C1479 1.334 1_556 S
C1480 C1481 1.287 . S
C1481 C1480 1.287 . S
C1481 C1482 1.524 . S
C1481 H1484 0.999 . S
C1482 H1452 0.950 . S
C1482 C1481 1.524 . S
C1482 C1483 1.415 1_556 S
C1483 H1453 0.950 . S
C1483 C1478 1.363 . S
C1483 C1482 1.415 1_554 S
H1484 C1481 0.999 . S
H1485 C1466 0.913 . S
H1486 C1504 0.951 . S
H1487 C1506 0.951 . S
H1488 C1508 0.950 . S
H1489 C1509 0.950 . S
H1490 C1511 0.950 . S
H1491 C1514 0.950 . S
H1492 C1515 0.950 . S
H1493 C1517 0.950 . S
H1494 C1518 0.950 . S
H1495 C1519 0.995 . S
H1496 C1521 0.951 . S
H1497 C1523 0.950 . S
H1498 C1524 0.950 . S
H1499 C1526 0.950 . S
H1500 C1529 0.950 . S
H1501 C1530 0.950 . S
H1502 C1532 0.950 . S
H1503 C1533 0.950 . S
C1504 H1486 0.951 . S
C1504 C1505 1.366 . S
C1504 C1506 1.388 . S
C1505 C1504 1.366 . S
C1505 C1509 1.385 . S
C1506 H1487 0.951 . S
C1506 C1504 1.388 . S
C1506 C1507 1.366 . S
C1507 C1506 1.366 . S
C1507 C1508 1.414 . S
C1507 C1510 1.499 . S
C1508 H1488 0.950 . S
C1508 C1507 1.414 . S
C1508 C1509 1.374 . S
C1509 H1489 0.950 . S
C1509 C1505 1.385 . S
C1509 C1508 1.374 . S
C1510 C1507 1.499 . S
C1510 C1511 1.373 . S
C1510 C1512 1.389 . S
C1511 H1490 0.950 . S
C1511 C1510 1.373 . S
C1511 C1527 1.377 . S
C1512 C1510 1.389 . S
C1512 C1513 1.524 . S
C1512 C1526 1.377 . S
C1513 C1512 1.524 . S
C1513 C1514 1.397 . S
C1513 C1518 1.363 . S
C1514 H1491 0.950 . S
C1514 C1513 1.397 . S
C1514 C1515 1.334 . S
C1515 H1492 0.950 . S
C1515 C1514 1.334 . S
C1515 C1516 1.287 . S
C1516 C1515 1.287 . S
C1516 C1517 1.524 . S
C1516 H1535 0.913 . S
C1517 H1493 0.950 . S
C1517 C1516 1.524 . S
C1517 C1518 1.415 . S
C1518 H1494 0.950 . S
C1518 C1513 1.363 . S
C1518 C1517 1.415 . S
C1519 H1495 0.995 . S
C1519 C1520 1.366 . S
C1519 C1521 1.388 . S
C1520 C1519 1.366 . S
C1520 C1524 1.385 . S
C1521 H1496 0.951 . S
C1521 C1519 1.388 . S
C1521 C1522 1.366 . S
C1522 C1521 1.366 . S
C1522 C1523 1.414 . S
C1522 C1525 1.499 . S
C1523 H1497 0.950 . S
C1523 C1522 1.414 . S
C1523 C1524 1.374 . S
C1524 H1498 0.950 . S
C1524 C1520 1.385 . S
C1524 C1523 1.374 . S
C1525 C1522 1.499 . S
C1525 C1526 1.373 . S
C1525 C1527 1.389 . S
C1526 H1499 0.950 . S
C1526 C1512 1.377 . S
C1526 C1525 1.373 . S
C1527 C1511 1.377 . S
C1527 C1525 1.389 . S
C1527 C1528 1.524 . S
C1528 C1527 1.524 . S
C1528 C1529 1.397 . S
C1528 C1533 1.363 . S
C1529 H1500 0.950 . S
C1529 C1528 1.397 . S
C1529 C1530 1.334 1_565 S
C1530 H1501 0.950 . S
C1530 C1529 1.334 1_545 S
C1530 C1531 1.287 . S
C1531 C1530 1.287 . S
C1531 C1532 1.524 . S
C1531 H1534 0.999 . S
C1532 H1502 0.950 . S
C1532 C1531 1.524 . S
C1532 C1533 1.415 1_545 S
C1533 H1503 0.950 . S
C1533 C1528 1.363 . S
C1533 C1532 1.415 1_565 S
H1534 C1531 0.999 . S
H1535 C1516 0.913 . S
H1536 C1554 0.951 . S
H1537 C1556 0.951 . S
H1538 C1558 0.950 . S
H1539 C1559 0.950 . S
H1540 C1561 0.950 . S
H1541 C1564 0.950 . S
H1542 C1565 0.950 . S
H1543 C1567 0.950 . S
H1544 C1568 0.950 . S
H1545 C1569 0.951 . S
H1546 C1571 0.951 . S
H1547 C1573 0.950 . S
H1548 C1574 0.950 . S
H1549 C1576 0.950 . S
H1550 C1579 0.950 . S
H1551 C1580 0.950 . S
H1552 C1582 0.950 . S
H1553 C1583 0.950 . S
C1554 H1536 0.951 . S
C1554 C1555 1.366 . S
C1554 C1556 1.388 . S
C1555 C1554 1.366 . S
C1555 C1559 1.385 . S
C1556 H1537 0.951 . S
C1556 C1554 1.388 . S
C1556 C1557 1.366 . S
C1557 C1556 1.366 . S
C1557 C1558 1.414 . S
C1557 C1560 1.499 . S
C1558 H1538 0.950 . S
C1558 C1557 1.414 . S
C1558 C1559 1.374 . S
C1559 H1539 0.950 . S
C1559 C1555 1.385 . S
C1559 C1558 1.374 . S
C1560 C1557 1.499 . S
C1560 C1561 1.373 . S
C1560 C1562 1.389 . S
C1561 H1540 0.950 . S
C1561 C1560 1.373 . S
C1561 C1577 1.377 . S
C1562 C1560 1.389 . S
C1562 C1563 1.524 . S
C1562 C1576 1.377 . S
C1563 C1562 1.524 . S
C1563 C1564 1.397 . S
C1563 C1568 1.363 . S
C1564 H1541 0.950 . S
C1564 C1563 1.397 . S
C1564 C1565 1.334 . S
C1565 H1542 0.950 . S
C1565 C1564 1.334 . S
C1565 C1566 1.287 . S
C1566 C1565 1.287 . S
C1566 C1567 1.524 . S
C1566 H1585 0.913 . S
C1567 H1543 0.950 . S
C1567 C1566 1.524 . S
C1567 C1568 1.415 . S
C1568 H1544 0.950 . S
C1568 C1563 1.363 . S
C1568 C1567 1.415 . S
C1569 H1545 0.951 . S
C1569 C1570 1.366 . S
C1569 C1571 1.388 . S
C1570 C1569 1.366 . S
C1570 C1574 1.385 . S
C1571 H1546 0.951 . S
C1571 C1569 1.388 . S
C1571 C1572 1.366 . S
C1572 C1571 1.366 . S
C1572 C1573 1.414 . S
C1572 C1575 1.499 . S
C1573 H1547 0.950 . S
C1573 C1572 1.414 . S
C1573 C1574 1.374 . S
C1574 H1548 0.950 . S
C1574 C1570 1.385 . S
C1574 C1573 1.374 . S
C1575 C1572 1.499 . S
C1575 C1576 1.373 . S
C1575 C1577 1.389 . S
C1576 H1549 0.950 . S
C1576 C1562 1.377 . S
C1576 C1575 1.373 . S
C1577 C1561 1.377 . S
C1577 C1575 1.389 . S
C1577 C1578 1.524 . S
C1578 C1577 1.524 . S
C1578 C1579 1.397 . S
C1578 C1583 1.363 . S
C1579 H1550 0.950 . S
C1579 C1578 1.397 . S
C1579 C1580 1.334 . S
C1580 H1551 0.950 . S
C1580 C1579 1.334 . S
C1580 C1581 1.287 . S
C1581 C1580 1.287 . S
C1581 C1582 1.524 . S
C1581 H1584 0.999 . S
C1582 H1552 0.950 . S
C1582 C1581 1.524 . S
C1582 C1583 1.415 . S
C1583 H1553 0.950 . S
C1583 C1578 1.363 . S
C1583 C1582 1.415 . S
H1584 C1581 0.999 . S
H1585 C1566 0.913 . S
H1586 C1604 0.951 . S
H1587 C1606 0.951 . S
H1588 C1608 0.950 . S
H1589 C1609 0.950 . S
H1590 C1611 0.950 . S
H1591 C1614 0.950 . S
H1592 C1615 0.950 . S
H1593 C1617 0.950 1_565 S
H1594 C1618 0.950 . S
H1595 C1619 0.951 . S
H1596 C1621 0.951 . S
H1597 C1623 0.950 . S
H1598 C1624 0.950 . S
H1599 C1626 0.950 . S
H1600 C1629 0.950 . S
H1601 C1630 0.950 . S
H1602 C1632 0.950 . S
H1603 C1633 0.950 . S
C1604 H1586 0.951 . S
C1604 C1605 1.366 . S
C1604 C1606 1.388 . S
C1605 C1604 1.366 . S
C1605 C1609 1.385 . S
C1606 H1587 0.951 . S
C1606 C1604 1.388 . S
C1606 C1607 1.366 . S
C1607 C1606 1.366 . S
C1607 C1608 1.414 . S
C1607 C1610 1.499 . S
C1608 H1588 0.950 . S
C1608 C1607 1.414 . S
C1608 C1609 1.374 . S
C1609 H1589 0.950 . S
C1609 C1605 1.385 . S
C1609 C1608 1.374 . S
C1610 C1607 1.499 . S
C1610 C1611 1.373 . S
C1610 C1612 1.389 . S
C1611 H1590 0.950 . S
C1611 C1610 1.373 . S
C1611 C1627 1.377 . S
C1612 C1610 1.389 . S
C1612 C1613 1.524 . S
C1612 C1626 1.377 . S
C1613 C1612 1.524 . S
C1613 C1614 1.397 . S
C1613 C1618 1.363 . S
C1614 H1591 0.950 . S
C1614 C1613 1.397 . S
C1614 C1615 1.334 . S
C1615 H1592 0.950 . S
C1615 C1614 1.334 . S
C1615 C1616 1.287 . S
C1616 C1615 1.287 . S
C1616 C1617 1.524 . S
C1616 H1635 0.913 . S
C1617 H1593 0.950 1_545 S
C1617 C1616 1.524 . S
C1617 C1618 1.415 . S
C1618 H1594 0.950 . S
C1618 C1613 1.363 . S
C1618 C1617 1.415 . S
C1619 H1595 0.951 . S
C1619 C1620 1.366 . S
C1619 C1621 1.388 . S
C1620 C1619 1.366 . S
C1620 C1624 1.385 . S
C1621 H1596 0.951 . S
C1621 C1619 1.388 . S
C1621 C1622 1.366 . S
C1622 C1621 1.366 . S
C1622 C1623 1.414 . S
C1622 C1625 1.499 . S
C1623 H1597 0.950 . S
C1623 C1622 1.414 . S
C1623 C1624 1.374 . S
C1624 H1598 0.950 . S
C1624 C1620 1.385 . S
C1624 C1623 1.374 . S
C1625 C1622 1.499 . S
C1625 C1626 1.373 . S
C1625 C1627 1.389 . S
C1626 H1599 0.950 . S
C1626 C1612 1.377 . S
C1626 C1625 1.373 . S
C1627 C1611 1.377 . S
C1627 C1625 1.389 . S
C1627 C1628 1.524 . S
C1628 C1627 1.524 . S
C1628 C1629 1.397 . S
C1628 C1633 1.363 . S
C1629 H1600 0.950 . S
C1629 C1628 1.397 . S
C1629 C1630 1.334 . S
C1630 H1601 0.950 . S
C1630 C1629 1.334 . S
C1630 C1631 1.287 . S
C1631 C1630 1.287 . S
C1631 C1632 1.524 . S
C1631 H1634 0.999 . S
C1632 H1602 0.950 . S
C1632 C1631 1.524 . S
C1632 C1633 1.415 . S
C1633 H1603 0.950 . S
C1633 C1628 1.363 . S
C1633 C1632 1.415 . S
H1634 C1631 0.999 . S
H1635 C1616 0.913 . S
H1636 C1654 0.951 . S
H1637 C1656 0.951 . S
H1638 C1658 0.950 . S
H1639 C1659 0.950 . S
H1640 C1661 0.950 . S
H1641 C1664 0.950 . S
H1642 C1665 0.950 . S
H1643 C1667 0.950 . S
H1644 C1668 0.950 . S
H1645 C1669 0.951 . S
H1646 C1671 0.951 . S
H1647 C1673 0.950 . S
H1648 C1674 0.950 . S
H1649 C1676 0.950 . S
H1650 C1679 0.950 . S
H1651 C1680 0.950 . S
H1652 C1682 0.950 . S
H1653 C1683 0.950 . S
C1654 H1636 0.951 . S
C1654 C1655 1.366 . S
C1654 C1656 1.388 . S
C1655 C1654 1.366 . S
C1655 C1659 1.385 . S
C1656 H1637 0.951 . S
C1656 C1654 1.388 . S
C1656 C1657 1.366 . S
C1657 C1656 1.366 . S
C1657 C1658 1.414 . S
C1657 C1660 1.499 . S
C1658 H1638 0.950 . S
C1658 C1657 1.414 . S
C1658 C1659 1.374 . S
C1659 H1639 0.950 . S
C1659 C1655 1.385 . S
C1659 C1658 1.374 . S
C1660 C1657 1.499 . S
C1660 C1661 1.373 . S
C1660 C1662 1.389 . S
C1661 H1640 0.950 . S
C1661 C1660 1.373 . S
C1661 C1677 1.377 . S
C1662 C1660 1.389 . S
C1662 C1663 1.524 . S
C1662 C1676 1.377 . S
C1663 C1662 1.524 . S
C1663 C1664 1.397 . S
C1663 C1668 1.363 . S
C1664 H1641 0.950 . S
C1664 C1663 1.397 . S
C1664 C1665 1.334 . S
C1665 H1642 0.950 . S
C1665 C1664 1.334 . S
C1665 C1666 1.287 . S
C1666 C1665 1.287 . S
C1666 C1667 1.524 . S
C1666 H1685 0.913 . S
C1667 H1643 0.950 . S
C1667 C1666 1.524 . S
C1667 C1668 1.415 . S
C1668 H1644 0.950 . S
C1668 C1663 1.363 . S
C1668 C1667 1.415 . S
C1669 H1645 0.951 . S
C1669 C1670 1.366 . S
C1669 C1671 1.388 . S
C1670 C1669 1.366 . S
C1670 C1674 1.385 . S
C1671 H1646 0.951 . S
C1671 C1669 1.388 . S
C1671 C1672 1.366 . S
C1672 C1671 1.366 . S
C1672 C1673 1.414 . S
C1672 C1675 1.499 . S
C1673 H1647 0.950 . S
C1673 C1672 1.414 . S
C1673 C1674 1.374 . S
C1674 H1648 0.950 . S
C1674 C1670 1.385 . S
C1674 C1673 1.374 . S
C1675 C1672 1.499 . S
C1675 C1676 1.373 . S
C1675 C1677 1.389 . S
C1676 H1649 0.950 . S
C1676 C1662 1.377 . S
C1676 C1675 1.373 . S
C1677 C1661 1.377 . S
C1677 C1675 1.389 . S
C1677 C1678 1.524 . S
C1678 C1677 1.524 . S
C1678 C1679 1.397 . S
C1678 C1683 1.363 . S
C1679 H1650 0.950 . S
C1679 C1678 1.397 . S
C1679 C1680 1.334 . S
C1680 H1651 0.950 . S
C1680 C1679 1.334 . S
C1680 C1681 1.287 . S
C1681 C1680 1.287 . S
C1681 C1682 1.524 . S
C1681 H1684 0.999 . S
C1682 H1652 0.950 . S
C1682 C1681 1.524 . S
C1682 C1683 1.415 . S
C1683 H1653 0.950 . S
C1683 C1678 1.363 . S
C1683 C1682 1.415 . S
H1684 C1681 0.999 . S
H1685 C1666 0.913 . S
H1686 C1704 0.951 . S
H1687 C1706 0.951 . S
H1688 C1708 0.950 . S
H1689 C1709 0.950 . S
H1690 C1711 0.950 . S
H1691 C1714 0.950 . S
H1692 C1715 0.950 . S
H1693 C1717 0.950 . S
H1694 C1718 0.950 . S
H1695 C1719 0.951 1_554 S
H1696 C1721 0.951 . S
H1697 C1723 0.950 . S
H1698 C1724 0.950 . S
H1699 C1726 0.950 . S
H1700 C1729 0.950 . S
H1701 C1730 0.950 . S
H1702 C1732 0.950 . S
H1703 C1733 0.950 . S
C1704 H1686 0.951 . S
C1704 C1705 1.366 . S
C1704 C1706 1.388 . S
C1705 C1704 1.366 . S
C1705 C1709 1.385 . S
C1706 H1687 0.951 . S
C1706 C1704 1.388 . S
C1706 C1707 1.366 . S
C1707 C1706 1.366 . S
C1707 C1708 1.414 . S
C1707 C1710 1.499 . S
C1708 H1688 0.950 . S
C1708 C1707 1.414 . S
C1708 C1709 1.374 . S
C1709 H1689 0.950 . S
C1709 C1705 1.385 . S
C1709 C1708 1.374 . S
C1710 C1707 1.499 . S
C1710 C1711 1.373 . S
C1710 C1712 1.389 . S
C1711 H1690 0.950 . S
C1711 C1710 1.373 . S
C1711 C1727 1.377 . S
C1712 C1710 1.389 . S
C1712 C1713 1.524 . S
C1712 C1726 1.377 . S
C1713 C1712 1.524 . S
C1713 C1714 1.397 . S
C1713 C1718 1.363 . S
C1714 H1691 0.950 . S
C1714 C1713 1.397 . S
C1714 C1715 1.334 . S
C1715 H1692 0.950 . S
C1715 C1714 1.334 . S
C1715 C1716 1.287 . S
C1716 C1715 1.287 . S
C1716 C1717 1.524 . S
C1716 H1735 0.913 . S
C1717 H1693 0.950 . S
C1717 C1716 1.524 . S
C1717 C1718 1.415 . S
C1718 H1694 0.950 . S
C1718 C1713 1.363 . S
C1718 C1717 1.415 . S
C1719 H1695 0.951 1_556 S
C1719 C1720 1.366 . S
C1719 C1721 1.388 . S
C1720 C1719 1.366 . S
C1720 C1724 1.385 . S
C1721 H1696 0.951 . S
C1721 C1719 1.388 . S
C1721 C1722 1.366 . S
C1722 C1721 1.366 . S
C1722 C1723 1.414 . S
C1722 C1725 1.499 . S
C1723 H1697 0.950 . S
C1723 C1722 1.414 . S
C1723 C1724 1.374 . S
C1724 H1698 0.950 . S
C1724 C1720 1.385 . S
C1724 C1723 1.374 . S
C1725 C1722 1.499 . S
C1725 C1726 1.373 . S
C1725 C1727 1.389 . S
C1726 H1699 0.950 . S
C1726 C1712 1.377 . S
C1726 C1725 1.373 . S
C1727 C1711 1.377 . S
C1727 C1725 1.389 . S
C1727 C1728 1.524 . S
C1728 C1727 1.524 . S
C1728 C1729 1.397 . S
C1728 C1733 1.363 . S
C1729 H1700 0.950 . S
C1729 C1728 1.397 . S
C1729 C1730 1.334 . S
C1730 H1701 0.950 . S
C1730 C1729 1.334 . S
C1730 C1731 1.287 . S
C1731 C1730 1.287 . S
C1731 C1732 1.524 . S
C1731 H1734 0.999 . S
C1732 H1702 0.950 . S
C1732 C1731 1.524 . S
C1732 C1733 1.415 . S
C1733 H1703 0.950 . S
C1733 C1728 1.363 . S
C1733 C1732 1.415 . S
H1734 C1731 0.999 . S
H1735 C1716 0.913 . S
H1736 C1754 0.951 . S
H1737 C1756 0.951 . S
H1738 C1758 0.950 . S
H1739 C1759 0.950 . S
H1740 C1761 0.950 . S
H1741 C1764 0.950 . S
H1742 C1765 0.950 . S
H1743 C1767 0.950 . S
H1744 C1768 0.950 . S
H1745 C1769 0.951 . S
H1746 C1771 0.951 . S
H1747 C1773 0.950 . S
H1748 C1774 0.956 . S
H1749 C1776 0.950 . S
H1750 C1779 0.950 . S
H1751 C1780 0.950 . S
H1752 C1782 0.950 . S
H1753 C1783 0.950 . S
C1754 H1736 0.951 . S
C1754 C1755 1.366 . S
C1754 C1756 1.388 . S
C1755 C1754 1.366 . S
C1755 C1759 1.385 . S
C1756 H1737 0.951 . S
C1756 C1754 1.388 . S
C1756 C1757 1.366 . S
C1757 C1756 1.366 . S
C1757 C1758 1.414 . S
C1757 C1760 1.499 . S
C1758 H1738 0.950 . S
C1758 C1757 1.414 . S
C1758 C1759 1.374 . S
C1759 H1739 0.950 . S
C1759 C1755 1.385 . S
C1759 C1758 1.374 . S
C1760 C1757 1.499 . S
C1760 C1761 1.373 . S
C1760 C1762 1.389 . S
C1761 H1740 0.950 . S
C1761 C1760 1.373 . S
C1761 C1777 1.377 . S
C1762 C1760 1.389 . S
C1762 C1763 1.524 . S
C1762 C1776 1.377 . S
C1763 C1762 1.524 . S
C1763 C1764 1.397 . S
C1763 C1768 1.363 . S
C1764 H1741 0.950 . S
C1764 C1763 1.397 . S
C1764 C1765 1.334 . S
C1765 H1742 0.950 . S
C1765 C1764 1.334 . S
C1765 C1766 1.287 . S
C1766 C1765 1.287 . S
C1766 C1767 1.524 . S
C1766 H1785 0.913 . S
C1767 H1743 0.950 . S
C1767 C1766 1.524 . S
C1767 C1768 1.415 . S
C1768 H1744 0.950 . S
C1768 C1763 1.363 . S
C1768 C1767 1.415 . S
C1769 H1745 0.951 . S
C1769 C1770 1.366 . S
C1769 C1771 1.388 . S
C1770 C1769 1.366 . S
C1770 C1774 1.385 . S
C1771 H1746 0.951 . S
C1771 C1769 1.388 . S
C1771 C1772 1.366 . S
C1772 C1771 1.366 . S
C1772 C1773 1.414 . S
C1772 C1775 1.499 . S
C1773 H1747 0.950 . S
C1773 C1772 1.414 . S
C1773 C1774 1.374 . S
C1774 H1748 0.956 . S
C1774 C1770 1.385 . S
C1774 C1773 1.374 . S
C1775 C1772 1.499 . S
C1775 C1776 1.373 . S
C1775 C1777 1.389 . S
C1776 H1749 0.950 . S
C1776 C1762 1.377 . S
C1776 C1775 1.373 . S
C1777 C1761 1.377 . S
C1777 C1775 1.389 . S
C1777 C1778 1.524 . S
C1778 C1777 1.524 . S
C1778 C1779 1.397 . S
C1778 C1783 1.363 . S
C1779 H1750 0.950 . S
C1779 C1778 1.397 . S
C1779 C1780 1.334 . S
C1780 H1751 0.950 . S
C1780 C1779 1.334 . S
C1780 C1781 1.287 . S
C1781 C1780 1.287 . S
C1781 C1782 1.524 . S
C1781 H1784 0.999 . S
C1782 H1752 0.950 . S
C1782 C1781 1.524 . S
C1782 C1783 1.415 . S
C1783 H1753 0.950 . S
C1783 C1778 1.363 . S
C1783 C1782 1.415 . S
H1784 C1781 0.999 . S
H1785 C1766 0.913 . S
H1786 C1804 0.951 . S
H1787 C1806 0.951 . S
H1788 C1808 0.950 . S
H1789 C1809 0.950 . S
H1790 C1811 0.950 . S
H1791 C1814 0.950 . S
H1792 C1815 0.950 . S
H1793 C1817 0.950 . S
H1794 C1818 0.950 . S
H1795 C1819 0.951 . S
H1796 C1821 0.951 . S
H1797 C1823 0.950 . S
H1798 C1824 0.950 . S
H1799 C1826 0.950 . S
H1800 C1829 0.950 . S
H1801 C1830 0.950 . S
H1802 C1832 0.950 . S
H1803 C1833 0.950 . S
C1804 H1786 0.951 . S
C1804 C1805 1.366 . S
C1804 C1806 1.388 . S
C1805 C1804 1.366 . S
C1805 C1809 1.385 . S
C1806 H1787 0.951 . S
C1806 C1804 1.388 . S
C1806 C1807 1.366 . S
C1807 C1806 1.366 . S
C1807 C1808 1.414 . S
C1807 C1810 1.499 . S
C1808 H1788 0.950 . S
C1808 C1807 1.414 . S
C1808 C1809 1.374 . S
C1809 H1789 0.950 . S
C1809 C1805 1.385 . S
C1809 C1808 1.374 . S
C1810 C1807 1.499 . S
C1810 C1811 1.373 . S
C1810 C1812 1.389 . S
C1811 H1790 0.950 . S
C1811 C1810 1.373 . S
C1811 C1827 1.377 . S
C1812 C1810 1.389 . S
C1812 C1813 1.524 . S
C1812 C1826 1.377 . S
C1813 C1812 1.524 . S
C1813 C1814 1.397 . S
C1813 C1818 1.363 . S
C1814 H1791 0.950 . S
C1814 C1813 1.397 . S
C1814 C1815 1.334 . S
C1815 H1792 0.950 . S
C1815 C1814 1.334 . S
C1815 C1816 1.287 . S
C1816 C1815 1.287 . S
C1816 C1817 1.524 . S
C1816 H1835 0.913 . S
C1817 H1793 0.950 . S
C1817 C1816 1.524 . S
C1817 C1818 1.415 . S
C1818 H1794 0.950 . S
C1818 C1813 1.363 . S
C1818 C1817 1.415 . S
C1819 H1795 0.951 . S
C1819 C1820 1.366 . S
C1819 C1821 1.388 . S
C1820 C1819 1.366 . S
C1820 C1824 1.385 . S
C1821 H1796 0.951 . S
C1821 C1819 1.388 . S
C1821 C1822 1.366 . S
C1822 C1821 1.366 . S
C1822 C1823 1.414 . S
C1822 C1825 1.499 . S
C1823 H1797 0.950 . S
C1823 C1822 1.414 . S
C1823 C1824 1.374 . S
C1824 H1798 0.950 . S
C1824 C1820 1.385 . S
C1824 C1823 1.374 . S
C1825 C1822 1.499 . S
C1825 C1826 1.373 . S
C1825 C1827 1.389 . S
C1826 H1799 0.950 . S
C1826 C1812 1.377 . S
C1826 C1825 1.373 . S
C1827 C1811 1.377 . S
C1827 C1825 1.389 . S
C1827 C1828 1.524 . S
C1828 C1827 1.524 . S
C1828 C1829 1.397 . S
C1828 C1833 1.363 . S
C1829 H1800 0.950 . S
C1829 C1828 1.397 . S
C1829 C1830 1.334 . S
C1830 H1801 0.950 . S
C1830 C1829 1.334 . S
C1830 C1831 1.287 . S
C1831 C1830 1.287 . S
C1831 C1832 1.524 . S
C1831 H1834 0.999 . S
C1832 H1802 0.950 . S
C1832 C1831 1.524 . S
C1832 C1833 1.415 . S
C1833 H1803 0.950 . S
C1833 C1828 1.363 . S
C1833 C1832 1.415 . S
H1834 C1831 0.999 . S
H1835 C1816 0.913 . S
H1836 C1854 0.951 . S
H1837 C1856 0.951 . S
H1838 C1858 0.950 . S
H1839 C1859 0.950 . S
H1840 C1861 0.950 . S
H1841 C1864 0.950 . S
H1842 C1865 0.950 . S
H1843 C1867 0.950 . S
H1844 C1868 0.950 . S
H1845 C1869 0.951 . S
H1846 C1871 0.951 . S
H1847 C1873 0.950 . S
H1848 C1874 0.950 . S
H1849 C1876 0.950 . S
H1850 C1879 0.950 . S
H1851 C1880 0.950 . S
H1852 C1882 0.950 . S
H1853 C1883 0.950 . S
C1854 H1836 0.951 . S
C1854 C1855 1.366 . S
C1854 C1856 1.388 . S
C1855 C1854 1.366 . S
C1855 C1859 1.385 . S
C1856 H1837 0.951 . S
C1856 C1854 1.388 . S
C1856 C1857 1.366 . S
C1857 C1856 1.366 . S
C1857 C1858 1.414 . S
C1857 C1860 1.499 . S
C1858 H1838 0.950 . S
C1858 C1857 1.414 . S
C1858 C1859 1.374 . S
C1859 H1839 0.950 . S
C1859 C1855 1.385 . S
C1859 C1858 1.374 . S
C1860 C1857 1.499 . S
C1860 C1861 1.373 . S
C1860 C1862 1.389 . S
C1861 H1840 0.950 . S
C1861 C1860 1.373 . S
C1861 C1877 1.377 . S
C1862 C1860 1.389 . S
C1862 C1863 1.524 . S
C1862 C1876 1.377 . S
C1863 C1862 1.524 . S
C1863 C1864 1.397 . S
C1863 C1868 1.363 . S
C1864 H1841 0.950 . S
C1864 C1863 1.397 . S
C1864 C1865 1.334 . S
C1865 H1842 0.950 . S
C1865 C1864 1.334 . S
C1865 C1866 1.287 . S
C1866 C1865 1.287 . S
C1866 C1867 1.524 . S
C1866 H1885 0.913 . S
C1867 H1843 0.950 . S
C1867 C1866 1.524 . S
C1867 C1868 1.415 . S
C1868 H1844 0.950 . S
C1868 C1863 1.363 . S
C1868 C1867 1.415 . S
C1869 H1845 0.951 . S
C1869 C1870 1.366 . S
C1869 C1871 1.388 . S
C1870 C1869 1.366 . S
C1870 C1874 1.385 . S
C1871 H1846 0.951 . S
C1871 C1869 1.388 . S
C1871 C1872 1.366 . S
C1872 C1871 1.366 . S
C1872 C1873 1.414 . S
C1872 C1875 1.499 . S
C1873 H1847 0.950 . S
C1873 C1872 1.414 . S
C1873 C1874 1.374 . S
C1874 H1848 0.950 . S
C1874 C1870 1.385 . S
C1874 C1873 1.374 . S
C1875 C1872 1.499 . S
C1875 C1876 1.373 . S
C1875 C1877 1.389 . S
C1876 H1849 0.950 . S
C1876 C1862 1.377 . S
C1876 C1875 1.373 . S
C1877 C1861 1.377 . S
C1877 C1875 1.389 . S
C1877 C1878 1.524 . S
C1878 C1877 1.524 . S
C1878 C1879 1.397 . S
C1878 C1883 1.363 . S
C1879 H1850 0.950 . S
C1879 C1878 1.397 . S
C1879 C1880 1.334 . S
C1880 H1851 0.950 . S
C1880 C1879 1.334 . S
C1880 C1881 1.287 . S
C1881 C1880 1.287 . S
C1881 C1882 1.524 . S
C1881 H1884 0.999 . S
C1882 H1852 0.950 . S
C1882 C1881 1.524 . S
C1882 C1883 1.415 . S
C1883 H1853 0.950 . S
C1883 C1878 1.363 . S
C1883 C1882 1.415 . S
H1884 C1881 0.999 . S
H1885 C1866 0.913 . S
H1886 C1904 0.951 . S
H1887 C1906 0.951 . S
H1888 C1908 0.950 . S
H1889 C1909 0.950 . S
H1890 C1911 0.950 . S
H1891 C1914 0.950 . S
H1892 C1915 0.950 . S
H1893 C1917 0.950 . S
H1894 C1918 0.950 . S
H1895 C1919 0.951 . S
H1896 C1921 0.951 . S
H1897 C1923 0.950 . S
H1898 C1924 0.950 . S
H1899 C1926 0.950 . S
H1900 C1929 0.950 . S
H1901 C1930 0.950 . S
H1902 C1932 0.950 . S
H1903 C1933 0.950 . S
C1904 H1886 0.951 . S
C1904 C1905 1.366 . S
C1904 C1906 1.388 . S
C1905 C1904 1.366 . S
C1905 C1909 1.385 . S
C1906 H1887 0.951 . S
C1906 C1904 1.388 . S
C1906 C1907 1.366 . S
C1907 C1906 1.366 . S
C1907 C1908 1.414 . S
C1907 C1910 1.499 . S
C1908 H1888 0.950 . S
C1908 C1907 1.414 . S
C1908 C1909 1.374 . S
C1909 H1889 0.950 . S
C1909 C1905 1.385 . S
C1909 C1908 1.374 . S
C1910 C1907 1.499 . S
C1910 C1911 1.373 . S
C1910 C1912 1.389 . S
C1911 H1890 0.950 . S
C1911 C1910 1.373 . S
C1911 C1927 1.377 . S
C1912 C1910 1.389 . S
C1912 C1913 1.524 . S
C1912 C1926 1.377 . S
C1913 C1912 1.524 . S
C1913 C1914 1.397 . S
C1913 C1918 1.363 . S
C1914 H1891 0.950 . S
C1914 C1913 1.397 . S
C1914 C1915 1.334 1_655 S
C1915 H1892 0.950 . S
C1915 C1914 1.334 1_455 S
C1915 C1916 1.297 . S
C1916 C1915 1.297 . S
C1916 C1917 1.483 1_455 S
C1916 H1935 0.947 . S
C1917 H1893 0.950 . S
C1917 C1916 1.483 1_655 S
C1917 C1918 1.415 . S
C1918 H1894 0.950 . S
C1918 C1913 1.363 . S
C1918 C1917 1.415 . S
C1919 H1895 0.951 . S
C1919 C1920 1.366 . S
C1919 C1921 1.388 . S
C1920 C1919 1.366 . S
C1920 C1924 1.385 . S
C1921 H1896 0.951 . S
C1921 C1919 1.388 . S
C1921 C1922 1.366 . S
C1922 C1921 1.366 . S
C1922 C1923 1.414 . S
C1922 C1925 1.499 . S
C1923 H1897 0.950 . S
C1923 C1922 1.414 . S
C1923 C1924 1.374 . S
C1924 H1898 0.950 . S
C1924 C1920 1.385 . S
C1924 C1923 1.374 . S
C1925 C1922 1.499 . S
C1925 C1926 1.373 . S
C1925 C1927 1.389 . S
C1926 H1899 0.950 . S
C1926 C1912 1.377 . S
C1926 C1925 1.373 . S
C1927 C1911 1.377 . S
C1927 C1925 1.389 . S
C1927 C1928 1.524 . S
C1928 C1927 1.524 . S
C1928 C1929 1.397 . S
C1928 C1933 1.363 . S
C1929 H1900 0.950 . S
C1929 C1928 1.397 . S
C1929 C1930 1.334 . S
C1930 H1901 0.950 . S
C1930 C1929 1.334 . S
C1930 C1931 1.287 . S
C1931 C1930 1.287 . S
C1931 C1932 1.524 . S
C1931 H1934 0.999 . S
C1932 H1902 0.950 . S
C1932 C1931 1.524 . S
C1932 C1933 1.415 . S
C1933 H1903 0.950 . S
C1933 C1928 1.363 . S
C1933 C1932 1.415 . S
H1934 C1931 0.999 . S
H1935 C1916 0.947 . S
H1936 C1954 0.951 . S
H1937 C1956 0.951 . S
H1938 C1958 0.950 . S
H1939 C1959 0.950 . S
H1940 C1961 0.950 . S
H1941 C1964 0.950 . S
H1942 C1965 0.950 . S
H1943 C1967 0.950 . S
H1944 C1968 0.950 . S
H1945 C1969 0.951 . S
H1946 C1971 0.951 . S
H1947 C1973 0.950 . S
H1948 C1974 0.950 . S
H1949 C1976 0.950 . S
H1950 C1979 0.950 . S
H1951 C1980 0.950 . S
H1952 C1982 0.950 . S
H1953 C1983 0.950 . S
C1954 H1936 0.951 . S
C1954 C1955 1.366 . S
C1954 C1956 1.388 . S
C1955 C1954 1.366 . S
C1955 C1959 1.385 . S
C1956 H1937 0.951 . S
C1956 C1954 1.388 . S
C1956 C1957 1.366 . S
C1957 C1956 1.366 . S
C1957 C1958 1.414 . S
C1957 C1960 1.499 . S
C1958 H1938 0.950 . S
C1958 C1957 1.414 . S
C1958 C1959 1.374 . S
C1959 H1939 0.950 . S
C1959 C1955 1.385 . S
C1959 C1958 1.374 . S
C1960 C1957 1.499 . S
C1960 C1961 1.373 . S
C1960 C1962 1.389 . S
C1961 H1940 0.950 . S
C1961 C1960 1.373 . S
C1961 C1977 1.377 . S
C1962 C1960 1.389 . S
C1962 C1963 1.524 . S
C1962 C1976 1.377 . S
C1963 C1962 1.524 . S
C1963 C1964 1.397 . S
C1963 C1968 1.363 . S
C1964 H1941 0.950 . S
C1964 C1963 1.397 . S
C1964 C1965 1.334 . S
C1965 H1942 0.950 . S
C1965 C1964 1.334 . S
C1965 C1966 1.287 . S
C1966 C1965 1.287 . S
C1966 C1967 1.524 . S
C1966 H1985 0.913 . S
C1967 H1943 0.950 . S
C1967 C1966 1.524 . S
C1967 C1968 1.415 . S
C1968 H1944 0.950 . S
C1968 C1963 1.363 . S
C1968 C1967 1.415 . S
C1969 H1945 0.951 . S
C1969 C1970 1.366 . S
C1969 C1971 1.388 . S
C1970 C1969 1.366 . S
C1970 C1974 1.385 . S
C1971 H1946 0.951 . S
C1971 C1969 1.388 . S
C1971 C1972 1.366 . S
C1972 C1971 1.366 . S
C1972 C1973 1.414 . S
C1972 C1975 1.499 . S
C1973 H1947 0.950 . S
C1973 C1972 1.414 . S
C1973 C1974 1.374 . S
C1974 H1948 0.950 . S
C1974 C1970 1.385 . S
C1974 C1973 1.374 . S
C1975 C1972 1.499 . S
C1975 C1976 1.373 . S
C1975 C1977 1.389 . S
C1976 H1949 0.950 . S
C1976 C1962 1.377 . S
C1976 C1975 1.373 . S
C1977 C1961 1.377 . S
C1977 C1975 1.389 . S
C1977 C1978 1.524 . S
C1978 C1977 1.524 . S
C1978 C1979 1.397 . S
C1978 C1983 1.363 . S
C1979 H1950 0.950 . S
C1979 C1978 1.397 . S
C1979 C1980 1.334 . S
C1980 H1951 0.950 . S
C1980 C1979 1.334 . S
C1980 C1981 1.287 . S
C1981 C1980 1.287 . S
C1981 C1982 1.524 . S
C1981 H1984 0.999 . S
C1982 H1952 0.950 . S
C1982 C1981 1.524 . S
C1982 C1983 1.415 . S
C1983 H1953 0.950 . S
C1983 C1978 1.363 . S
C1983 C1982 1.415 . S
H1984 C1981 0.999 . S
H1985 C1966 0.913 . S
H1986 C2004 0.951 . S
H1987 C2006 0.951 . S
H1988 C2008 0.950 . S
H1989 C2009 0.950 . S
H1990 C2011 0.950 . S
H1991 C2014 0.950 . S
H1992 C2015 0.950 . S
H1993 C2017 0.950 . S
H1994 C2018 0.950 . S
H1995 C2019 0.951 . S
H1996 C2021 0.951 . S
H1997 C2023 0.950 . S
H1998 C2024 0.950 . S
H1999 C2026 0.950 . S
H2000 C2029 0.950 . S
H2001 C2030 0.950 . S
H2002 C2032 0.950 . S
H2003 C2033 0.950 . S
C2004 H1986 0.951 . S
C2004 C2005 1.366 . S
C2004 C2006 1.388 . S
C2005 C2004 1.366 . S
C2005 C2009 1.385 . S
C2006 H1987 0.951 . S
C2006 C2004 1.388 . S
C2006 C2007 1.366 . S
C2007 C2006 1.366 . S
C2007 C2008 1.414 . S
C2007 C2010 1.499 . S
C2008 H1988 0.950 . S
C2008 C2007 1.414 . S
C2008 C2009 1.374 . S
C2009 H1989 0.950 . S
C2009 C2005 1.385 . S
C2009 C2008 1.374 . S
C2010 C2007 1.499 . S
C2010 C2011 1.373 . S
C2010 C2012 1.389 . S
C2011 H1990 0.950 . S
C2011 C2010 1.373 . S
C2011 C2027 1.377 . S
C2012 C2010 1.389 . S
C2012 C2013 1.524 . S
C2012 C2026 1.377 . S
C2013 C2012 1.524 . S
C2013 C2014 1.397 . S
C2013 C2018 1.363 . S
C2014 H1991 0.950 . S
C2014 C2013 1.397 . S
C2014 C2015 1.334 1_556 S
C2015 H1992 0.950 . S
C2015 C2014 1.334 1_554 S
C2015 C2016 1.287 . S
C2016 C2015 1.287 . S
C2016 C2017 1.524 1_554 S
C2016 H2035 0.913 . S
C2017 H1993 0.950 . S
C2017 C2016 1.524 1_556 S
C2017 C2018 1.415 . S
C2018 H1994 0.950 . S
C2018 C2013 1.363 . S
C2018 C2017 1.415 . S
C2019 H1995 0.951 . S
C2019 C2020 1.366 . S
C2019 C2021 1.388 . S
C2020 C2019 1.366 . S
C2020 C2024 1.385 . S
C2021 H1996 0.951 . S
C2021 C2019 1.388 . S
C2021 C2022 1.366 . S
C2022 C2021 1.366 . S
C2022 C2023 1.414 . S
C2022 C2025 1.499 . S
C2023 H1997 0.950 . S
C2023 C2022 1.414 . S
C2023 C2024 1.374 . S
C2024 H1998 0.950 . S
C2024 C2020 1.385 . S
C2024 C2023 1.374 . S
C2025 C2022 1.499 . S
C2025 C2026 1.373 . S
C2025 C2027 1.389 . S
C2026 H1999 0.950 . S
C2026 C2012 1.377 . S
C2026 C2025 1.373 . S
C2027 C2011 1.377 . S
C2027 C2025 1.389 . S
C2027 C2028 1.524 . S
C2028 C2027 1.524 . S
C2028 C2029 1.397 . S
C2028 C2033 1.363 . S
C2029 H2000 0.950 . S
C2029 C2028 1.397 . S
C2029 C2030 1.334 . S
C2030 H2001 0.950 . S
C2030 C2029 1.334 . S
C2030 C2031 1.287 . S
C2031 C2030 1.287 . S
C2031 C2032 1.524 . S
C2031 H2034 0.999 . S
C2032 H2002 0.950 . S
C2032 C2031 1.524 . S
C2032 C2033 1.415 . S
C2033 H2003 0.950 . S
C2033 C2028 1.363 . S
C2033 C2032 1.415 . S
H2034 C2031 0.999 . S
H2035 C2016 0.913 . S
H2036 C2054 0.951 . S
H2037 C2056 0.951 . S
H2038 C2058 0.950 . S
H2039 C2059 0.950 . S
H2040 C2061 0.950 . S
H2041 C2064 0.950 . S
H2042 C2065 0.950 . S
H2043 C2067 0.950 . S
H2044 C2068 0.950 . S
H2045 C2069 0.951 . S
H2046 C2071 0.951 . S
H2047 C2073 0.950 . S
H2048 C2074 0.950 . S
H2049 C2076 0.950 . S
H2050 C2079 0.950 . S
H2051 C2080 0.950 . S
H2052 C2082 0.950 . S
H2053 C2083 0.950 . S
C2054 H2036 0.951 . S
C2054 C2055 1.366 . S
C2054 C2056 1.388 . S
C2055 C2054 1.366 . S
C2055 C2059 1.385 . S
C2056 H2037 0.951 . S
C2056 C2054 1.388 . S
C2056 C2057 1.366 . S
C2057 C2056 1.366 . S
C2057 C2058 1.414 . S
C2057 C2060 1.499 . S
C2058 H2038 0.950 . S
C2058 C2057 1.414 . S
C2058 C2059 1.374 . S
C2059 H2039 0.950 . S
C2059 C2055 1.385 . S
C2059 C2058 1.374 . S
C2060 C2057 1.499 . S
C2060 C2061 1.373 . S
C2060 C2062 1.389 . S
C2061 H2040 0.950 . S
C2061 C2060 1.373 . S
C2061 C2077 1.377 . S
C2062 C2060 1.389 . S
C2062 C2063 1.524 . S
C2062 C2076 1.377 . S
C2063 C2062 1.524 . S
C2063 C2064 1.397 . S
C2063 C2068 1.363 . S
C2064 H2041 0.950 . S
C2064 C2063 1.397 . S
C2064 C2065 1.334 . S
C2065 H2042 0.950 . S
C2065 C2064 1.334 . S
C2065 C2066 1.287 . S
C2066 C2065 1.287 . S
C2066 C2067 1.524 . S
C2066 H2085 0.913 . S
C2067 H2043 0.950 . S
C2067 C2066 1.524 . S
C2067 C2068 1.415 . S
C2068 H2044 0.950 . S
C2068 C2063 1.363 . S
C2068 C2067 1.415 . S
C2069 H2045 0.951 . S
C2069 C2070 1.366 . S
C2069 C2071 1.388 . S
C2070 C2069 1.366 . S
C2070 C2074 1.385 . S
C2071 H2046 0.951 . S
C2071 C2069 1.388 . S
C2071 C2072 1.366 . S
C2072 C2071 1.366 . S
C2072 C2073 1.414 . S
C2072 C2075 1.499 . S
C2073 H2047 0.950 . S
C2073 C2072 1.414 . S
C2073 C2074 1.374 . S
C2074 H2048 0.950 . S
C2074 C2070 1.385 . S
C2074 C2073 1.374 . S
C2075 C2072 1.499 . S
C2075 C2076 1.373 . S
C2075 C2077 1.389 . S
C2076 H2049 0.950 . S
C2076 C2062 1.377 . S
C2076 C2075 1.373 . S
C2077 C2061 1.377 . S
C2077 C2075 1.389 . S
C2077 C2078 1.524 . S
C2078 C2077 1.524 . S
C2078 C2079 1.397 . S
C2078 C2083 1.363 . S
C2079 H2050 0.950 . S
C2079 C2078 1.397 . S
C2079 C2080 1.334 . S
C2080 H2051 0.950 . S
C2080 C2079 1.334 . S
C2080 C2081 1.287 . S
C2081 C2080 1.287 . S
C2081 C2082 1.524 . S
C2081 H2084 0.999 . S
C2082 H2052 0.950 . S
C2082 C2081 1.524 . S
C2082 C2083 1.415 . S
C2083 H2053 0.950 . S
C2083 C2078 1.363 . S
C2083 C2082 1.415 . S
H2084 C2081 0.999 . S
H2085 C2066 0.913 . S
H2086 C2104 0.951 . S
H2087 C2106 0.951 . S
H2088 C2108 0.950 . S
H2089 C2109 0.950 . S
H2090 C2111 0.950 . S
H2091 C2114 0.950 . S
H2092 C2115 0.950 . S
H2093 C2117 0.950 . S
H2094 C2118 0.950 . S
H2095 C2119 0.951 . S
H2096 C2121 0.951 . S
H2097 C2123 0.950 . S
H2098 C2124 0.950 . S
H2099 C2126 0.950 . S
H2100 C2129 0.950 . S
H2101 C2130 0.950 . S
H2102 C2132 0.950 . S
H2103 C2133 0.950 . S
C2104 H2086 0.951 . S
C2104 C2105 1.366 . S
C2104 C2106 1.388 . S
C2105 C2104 1.366 . S
C2105 C2109 1.385 . S
C2106 H2087 0.951 . S
C2106 C2104 1.388 . S
C2106 C2107 1.366 . S
C2107 C2106 1.366 . S
C2107 C2108 1.414 . S
C2107 C2110 1.499 . S
C2108 H2088 0.950 . S
C2108 C2107 1.414 . S
C2108 C2109 1.374 . S
C2109 H2089 0.950 . S
C2109 C2105 1.385 . S
C2109 C2108 1.374 . S
C2110 C2107 1.499 . S
C2110 C2111 1.373 . S
C2110 C2112 1.389 . S
C2111 H2090 0.950 . S
C2111 C2110 1.373 . S
C2111 C2127 1.377 . S
C2112 C2110 1.389 . S
C2112 C2113 1.524 . S
C2112 C2126 1.377 . S
C2113 C2112 1.524 . S
C2113 C2114 1.397 . S
C2113 C2118 1.363 . S
C2114 H2091 0.950 . S
C2114 C2113 1.397 . S
C2114 C2115 1.334 . S
C2115 H2092 0.950 . S
C2115 C2114 1.334 . S
C2115 C2116 1.287 . S
C2116 C2115 1.287 . S
C2116 C2117 1.524 . S
C2116 H2135 0.913 . S
C2117 H2093 0.950 . S
C2117 C2116 1.524 . S
C2117 C2118 1.415 . S
C2118 H2094 0.950 . S
C2118 C2113 1.363 . S
C2118 C2117 1.415 . S
C2119 H2095 0.951 . S
C2119 C2120 1.366 . S
C2119 C2121 1.388 . S
C2120 C2119 1.366 . S
C2120 C2124 1.385 . S
C2121 H2096 0.951 . S
C2121 C2119 1.388 . S
C2121 C2122 1.366 . S
C2122 C2121 1.366 . S
C2122 C2123 1.414 . S
C2122 C2125 1.499 . S
C2123 H2097 0.950 . S
C2123 C2122 1.414 . S
C2123 C2124 1.374 . S
C2124 H2098 0.950 . S
C2124 C2120 1.385 . S
C2124 C2123 1.374 . S
C2125 C2122 1.499 . S
C2125 C2126 1.373 . S
C2125 C2127 1.389 . S
C2126 H2099 0.950 . S
C2126 C2112 1.377 . S
C2126 C2125 1.373 . S
C2127 C2111 1.377 . S
C2127 C2125 1.389 . S
C2127 C2128 1.524 . S
C2128 C2127 1.524 . S
C2128 C2129 1.397 . S
C2128 C2133 1.363 . S
C2129 H2100 0.950 . S
C2129 C2128 1.397 . S
C2129 C2130 1.334 . S
C2130 H2101 0.950 . S
C2130 C2129 1.334 . S
C2130 C2131 1.287 . S
C2131 C2130 1.287 . S
C2131 C2132 1.524 . S
C2131 H2134 0.999 . S
C2132 H2102 0.950 . S
C2132 C2131 1.524 . S
C2132 C2133 1.415 . S
C2133 H2103 0.950 . S
C2133 C2128 1.363 . S
C2133 C2132 1.415 . S
H2134 C2131 0.999 . S
H2135 C2116 0.913 . S
H2136 C2154 0.951 . S
H2137 C2156 0.951 . S
H2138 C2158 0.950 . S
H2139 C2159 0.950 . S
H2140 C2161 0.950 . S
H2141 C2164 0.950 . S
H2142 C2165 0.950 . S
H2143 C2167 0.950 . S
H2144 C2168 0.950 . S
H2145 C2169 0.951 . S
H2146 C2171 0.951 . S
H2147 C2173 0.950 . S
H2148 C2174 0.950 . S
H2149 C2176 0.950 . S
H2150 C2179 0.950 . S
H2151 C2180 0.950 . S
H2152 C2182 0.950 . S
H2153 C2183 0.950 . S
C2154 H2136 0.951 . S
C2154 C2155 1.366 . S
C2154 C2156 1.388 . S
C2155 C2154 1.366 . S
C2155 C2159 1.385 . S
C2156 H2137 0.951 . S
C2156 C2154 1.388 . S
C2156 C2157 1.366 . S
C2157 C2156 1.366 . S
C2157 C2158 1.414 . S
C2157 C2160 1.499 . S
C2158 H2138 0.950 . S
C2158 C2157 1.414 . S
C2158 C2159 1.374 . S
C2159 H2139 0.950 . S
C2159 C2155 1.385 . S
C2159 C2158 1.374 . S
C2160 C2157 1.499 . S
C2160 C2161 1.373 . S
C2160 C2162 1.389 . S
C2161 H2140 0.950 . S
C2161 C2160 1.373 . S
C2161 C2177 1.377 . S
C2162 C2160 1.389 . S
C2162 C2163 1.524 . S
C2162 C2176 1.377 . S
C2163 C2162 1.524 . S
C2163 C2164 1.397 . S
C2163 C2168 1.363 . S
C2164 H2141 0.950 . S
C2164 C2163 1.397 . S
C2164 C2165 1.334 . S
C2165 H2142 0.950 . S
C2165 C2164 1.334 . S
C2165 C2166 1.287 . S
C2166 C2165 1.287 . S
C2166 C2167 1.524 . S
C2166 H2185 0.913 . S
C2167 H2143 0.950 . S
C2167 C2166 1.524 . S
C2167 C2168 1.415 . S
C2168 H2144 0.950 . S
C2168 C2163 1.363 . S
C2168 C2167 1.415 . S
C2169 H2145 0.951 . S
C2169 C2170 1.366 . S
C2169 C2171 1.388 . S
C2170 C2169 1.366 . S
C2170 C2174 1.385 . S
C2171 H2146 0.951 . S
C2171 C2169 1.388 . S
C2171 C2172 1.366 . S
C2172 C2171 1.366 . S
C2172 C2173 1.414 . S
C2172 C2175 1.499 . S
C2173 H2147 0.950 . S
C2173 C2172 1.414 . S
C2173 C2174 1.374 . S
C2174 H2148 0.950 . S
C2174 C2170 1.385 . S
C2174 C2173 1.374 . S
C2175 C2172 1.499 . S
C2175 C2176 1.373 . S
C2175 C2177 1.389 . S
C2176 H2149 0.950 . S
C2176 C2162 1.377 . S
C2176 C2175 1.373 . S
C2177 C2161 1.377 . S
C2177 C2175 1.389 . S
C2177 C2178 1.524 . S
C2178 C2177 1.524 . S
C2178 C2179 1.397 . S
C2178 C2183 1.363 . S
C2179 H2150 0.950 . S
C2179 C2178 1.397 . S
C2179 C2180 1.334 . S
C2180 H2151 0.950 . S
C2180 C2179 1.334 . S
C2180 C2181 1.287 . S
C2181 C2180 1.287 . S
C2181 C2182 1.524 . S
C2181 H2184 0.999 . S
C2182 H2152 0.950 . S
C2182 C2181 1.524 . S
C2182 C2183 1.415 . S
C2183 H2153 0.950 . S
C2183 C2178 1.363 . S
C2183 C2182 1.415 . S
H2184 C2181 0.999 . S
H2185 C2166 0.913 . S
H2186 C2204 0.951 . S
H2187 C2206 0.951 . S
H2188 C2208 0.950 . S
H2189 C2209 0.950 . S
H2190 C2211 0.950 . S
H2191 C2214 0.950 . S
H2192 C2215 0.950 . S
H2193 C2217 0.950 . S
H2194 C2218 0.950 . S
H2195 C2219 0.951 . S
H2196 C2221 0.951 . S
H2197 C2223 0.950 . S
H2198 C2224 0.950 . S
H2199 C2226 0.950 . S
H2200 C2229 0.950 . S
H2201 C2230 0.950 . S
H2202 C2232 0.950 . S
H2203 C2233 0.950 . S
C2204 H2186 0.951 . S
C2204 C2205 1.366 . S
C2204 C2206 1.388 . S
C2205 C2204 1.366 . S
C2205 C2209 1.385 . S
C2206 H2187 0.951 . S
C2206 C2204 1.388 . S
C2206 C2207 1.366 . S
C2207 C2206 1.366 . S
C2207 C2208 1.414 . S
C2207 C2210 1.499 . S
C2208 H2188 0.950 . S
C2208 C2207 1.414 . S
C2208 C2209 1.374 . S
C2209 H2189 0.950 . S
C2209 C2205 1.385 . S
C2209 C2208 1.374 . S
C2210 C2207 1.499 . S
C2210 C2211 1.373 . S
C2210 C2212 1.389 . S
C2211 H2190 0.950 . S
C2211 C2210 1.373 . S
C2211 C2227 1.377 . S
C2212 C2210 1.389 . S
C2212 C2213 1.524 . S
C2212 C2226 1.377 . S
C2213 C2212 1.524 . S
C2213 C2214 1.397 . S
C2213 C2218 1.363 . S
C2214 H2191 0.950 . S
C2214 C2213 1.397 . S
C2214 C2215 1.334 . S
C2215 H2192 0.950 . S
C2215 C2214 1.334 . S
C2215 C2216 1.287 . S
C2216 C2215 1.287 . S
C2216 C2217 1.524 . S
C2216 H2235 0.913 . S
C2217 H2193 0.950 . S
C2217 C2216 1.524 . S
C2217 C2218 1.415 . S
C2218 H2194 0.950 . S
C2218 C2213 1.363 . S
C2218 C2217 1.415 . S
C2219 H2195 0.951 . S
C2219 C2220 1.366 . S
C2219 C2221 1.388 . S
C2220 C2219 1.366 . S
C2220 C2224 1.385 . S
C2221 H2196 0.951 . S
C2221 C2219 1.388 . S
C2221 C2222 1.366 . S
C2222 C2221 1.366 . S
C2222 C2223 1.414 . S
C2222 C2225 1.499 . S
C2223 H2197 0.950 . S
C2223 C2222 1.414 . S
C2223 C2224 1.374 . S
C2224 H2198 0.950 . S
C2224 C2220 1.385 . S
C2224 C2223 1.374 . S
C2225 C2222 1.499 . S
C2225 C2226 1.373 . S
C2225 C2227 1.389 . S
C2226 H2199 0.950 . S
C2226 C2212 1.377 . S
C2226 C2225 1.373 . S
C2227 C2211 1.377 . S
C2227 C2225 1.389 . S
C2227 C2228 1.524 . S
C2228 C2227 1.524 . S
C2228 C2229 1.397 . S
C2228 C2233 1.363 . S
C2229 H2200 0.950 . S
C2229 C2228 1.397 . S
C2229 C2230 1.334 . S
C2230 H2201 0.950 . S
C2230 C2229 1.334 . S
C2230 C2231 1.287 . S
C2231 C2230 1.287 . S
C2231 C2232 1.524 . S
C2231 H2234 0.999 . S
C2232 H2202 0.950 . S
C2232 C2231 1.524 . S
C2232 C2233 1.415 . S
C2233 H2203 0.950 . S
C2233 C2228 1.363 . S
C2233 C2232 1.415 . S
H2234 C2231 0.999 . S
H2235 C2216 0.913 . S
H2236 C2254 0.951 . S
H2237 C2256 0.951 . S
H2238 C2258 0.950 . S
H2239 C2259 0.950 . S
H2240 C2261 0.950 . S
H2241 C2264 0.950 . S
H2242 C2265 0.950 . S
H2243 C2267 0.950 . S
H2244 C2268 0.950 . S
H2245 C2269 0.951 . S
H2246 C2271 0.951 . S
H2247 C2273 0.950 . S
H2248 C2274 0.950 . S
H2249 C2276 0.950 . S
H2250 C2279 0.950 . S
H2251 C2280 0.950 . S
H2252 C2282 0.950 . S
H2253 C2283 0.950 . S
C2254 H2236 0.951 . S
C2254 C2255 1.366 . S
C2254 C2256 1.388 . S
C2255 C2254 1.366 . S
C2255 C2259 1.385 . S
C2256 H2237 0.951 . S
C2256 C2254 1.388 . S
C2256 C2257 1.366 . S
C2257 C2256 1.366 . S
C2257 C2258 1.414 . S
C2257 C2260 1.499 . S
C2258 H2238 0.950 . S
C2258 C2257 1.414 . S
C2258 C2259 1.374 . S
C2259 H2239 0.950 . S
C2259 C2255 1.385 . S
C2259 C2258 1.374 . S
C2260 C2257 1.499 . S
C2260 C2261 1.373 . S
C2260 C2262 1.389 . S
C2261 H2240 0.950 . S
C2261 C2260 1.373 . S
C2261 C2277 1.377 . S
C2262 C2260 1.389 . S
C2262 C2263 1.524 . S
C2262 C2276 1.377 . S
C2263 C2262 1.524 . S
C2263 C2264 1.397 . S
C2263 C2268 1.363 . S
C2264 H2241 0.950 . S
C2264 C2263 1.397 . S
C2264 C2265 1.334 . S
C2265 H2242 0.950 . S
C2265 C2264 1.334 . S
C2265 C2266 1.287 . S
C2266 C2265 1.287 . S
C2266 C2267 1.524 . S
C2266 H2285 0.913 . S
C2267 H2243 0.950 . S
C2267 C2266 1.524 . S
C2267 C2268 1.415 . S
C2268 H2244 0.950 . S
C2268 C2263 1.363 . S
C2268 C2267 1.415 . S
C2269 H2245 0.951 . S
C2269 C2270 1.366 . S
C2269 C2271 1.388 . S
C2270 C2269 1.366 . S
C2270 C2274 1.385 . S
C2271 H2246 0.951 . S
C2271 C2269 1.388 . S
C2271 C2272 1.366 . S
C2272 C2271 1.366 . S
C2272 C2273 1.414 . S
C2272 C2275 1.499 . S
C2273 H2247 0.950 . S
C2273 C2272 1.414 . S
C2273 C2274 1.374 . S
C2274 H2248 0.950 . S
C2274 C2270 1.385 . S
C2274 C2273 1.374 . S
C2275 C2272 1.499 . S
C2275 C2276 1.373 . S
C2275 C2277 1.389 . S
C2276 H2249 0.950 . S
C2276 C2262 1.377 . S
C2276 C2275 1.373 . S
C2277 C2261 1.377 . S
C2277 C2275 1.389 . S
C2277 C2278 1.524 . S
C2278 C2277 1.524 . S
C2278 C2279 1.397 . S
C2278 C2283 1.363 . S
C2279 H2250 0.950 . S
C2279 C2278 1.397 . S
C2279 C2280 1.334 . S
C2280 H2251 0.950 . S
C2280 C2279 1.334 . S
C2280 C2281 1.287 . S
C2281 C2280 1.287 . S
C2281 C2282 1.524 . S
C2281 H2284 0.999 . S
C2282 H2252 0.950 . S
C2282 C2281 1.524 . S
C2282 C2283 1.415 . S
C2283 H2253 0.950 . S
C2283 C2278 1.363 . S
C2283 C2282 1.415 . S
H2284 C2281 0.999 . S
H2285 C2266 0.913 . S
H2286 C2304 0.951 . S
H2287 C2306 0.951 . S
H2288 C2308 0.950 . S
H2289 C2309 0.950 . S
H2290 C2311 0.950 . S
H2291 C2314 0.950 . S
H2292 C2315 0.950 . S
H2293 C2317 0.950 . S
H2294 C2318 0.950 . S
H2295 C2319 0.951 . S
H2296 C2321 0.951 . S
H2297 C2323 0.950 . S
H2298 C2324 0.950 . S
H2299 C2326 0.950 . S
H2300 C2329 0.950 . S
H2301 C2330 0.950 . S
H2302 C2332 0.950 . S
H2303 C2333 0.950 . S
C2304 H2286 0.951 . S
C2304 C2305 1.366 . S
C2304 C2306 1.388 . S
C2305 C2304 1.366 . S
C2305 C2309 1.385 . S
C2306 H2287 0.951 . S
C2306 C2304 1.388 . S
C2306 C2307 1.366 . S
C2307 C2306 1.366 . S
C2307 C2308 1.414 . S
C2307 C2310 1.499 . S
C2308 H2288 0.950 . S
C2308 C2307 1.414 . S
C2308 C2309 1.374 . S
C2309 H2289 0.950 . S
C2309 C2305 1.385 . S
C2309 C2308 1.374 . S
C2310 C2307 1.499 . S
C2310 C2311 1.373 . S
C2310 C2312 1.389 . S
C2311 H2290 0.950 . S
C2311 C2310 1.373 . S
C2311 C2327 1.377 . S
C2312 C2310 1.389 . S
C2312 C2313 1.524 . S
C2312 C2326 1.377 . S
C2313 C2312 1.524 . S
C2313 C2314 1.397 . S
C2313 C2318 1.363 . S
C2314 H2291 0.950 . S
C2314 C2313 1.397 . S
C2314 C2315 1.334 . S
C2315 H2292 0.950 . S
C2315 C2314 1.334 . S
C2315 C2316 1.287 . S
C2316 C2315 1.287 . S
C2316 C2317 1.524 . S
C2316 H2335 0.913 . S
C2317 H2293 0.950 . S
C2317 C2316 1.524 . S
C2317 C2318 1.415 . S
C2318 H2294 0.950 . S
C2318 C2313 1.363 . S
C2318 C2317 1.415 . S
C2319 H2295 0.951 . S
C2319 C2320 1.366 . S
C2319 C2321 1.388 . S
C2320 C2319 1.366 . S
C2320 C2324 1.385 . S
C2321 H2296 0.951 . S
C2321 C2319 1.388 . S
C2321 C2322 1.366 . S
C2322 C2321 1.366 . S
C2322 C2323 1.414 . S
C2322 C2325 1.499 . S
C2323 H2297 0.950 . S
C2323 C2322 1.414 . S
C2323 C2324 1.374 . S
C2324 H2298 0.950 . S
C2324 C2320 1.385 . S
C2324 C2323 1.374 . S
C2325 C2322 1.499 . S
C2325 C2326 1.373 . S
C2325 C2327 1.389 . S
C2326 H2299 0.950 . S
C2326 C2312 1.377 . S
C2326 C2325 1.373 . S
C2327 C2311 1.377 . S
C2327 C2325 1.389 . S
C2327 C2328 1.524 . S
C2328 C2327 1.524 . S
C2328 C2329 1.397 . S
C2328 C2333 1.363 . S
C2329 H2300 0.950 . S
C2329 C2328 1.397 . S
C2329 C2330 1.334 . S
C2330 H2301 0.950 . S
C2330 C2329 1.334 . S
C2330 C2331 1.287 . S
C2331 C2330 1.287 . S
C2331 C2332 1.524 . S
C2331 H2334 0.999 . S
C2332 H2302 0.950 . S
C2332 C2331 1.524 . S
C2332 C2333 1.415 . S
C2333 H2303 0.950 . S
C2333 C2328 1.363 . S
C2333 C2332 1.415 . S
H2334 C2331 0.999 . S
H2335 C2316 0.913 . S
H2336 C2354 0.951 . S
H2337 C2356 0.951 . S
H2338 C2358 0.950 . S
H2339 C2359 0.950 . S
H2340 C2361 0.950 . S
H2341 C2364 0.950 . S
H2342 C2365 0.950 . S
H2343 C2367 0.950 . S
H2344 C2368 0.950 . S
H2345 C2369 0.951 . S
H2346 C2371 0.951 . S
H2347 C2373 0.950 . S
H2348 C2374 0.950 . S
H2349 C2376 0.950 . S
H2350 C2379 0.950 . S
H2351 C2380 0.950 . S
H2352 C2382 0.950 . S
H2353 C2383 0.950 . S
C2354 H2336 0.951 . S
C2354 C2355 1.366 . S
C2354 C2356 1.388 . S
C2355 C2354 1.366 . S
C2355 C2359 1.385 . S
C2356 H2337 0.951 . S
C2356 C2354 1.388 . S
C2356 C2357 1.366 . S
C2357 C2356 1.366 . S
C2357 C2358 1.414 . S
C2357 C2360 1.499 . S
C2358 H2338 0.950 . S
C2358 C2357 1.414 . S
C2358 C2359 1.374 . S
C2359 H2339 0.950 . S
C2359 C2355 1.385 . S
C2359 C2358 1.374 . S
C2360 C2357 1.499 . S
C2360 C2361 1.373 . S
C2360 C2362 1.389 . S
C2361 H2340 0.950 . S
C2361 C2360 1.373 . S
C2361 C2377 1.377 . S
C2362 C2360 1.389 . S
C2362 C2363 1.524 . S
C2362 C2376 1.377 . S
C2363 C2362 1.524 . S
C2363 C2364 1.397 . S
C2363 C2368 1.363 . S
C2364 H2341 0.950 . S
C2364 C2363 1.397 . S
C2364 C2365 1.334 . S
C2365 H2342 0.950 . S
C2365 C2364 1.334 . S
C2365 C2366 1.287 . S
C2366 C2365 1.287 . S
C2366 C2367 1.524 . S
C2366 H2385 0.913 . S
C2367 H2343 0.950 . S
C2367 C2366 1.524 . S
C2367 C2368 1.415 . S
C2368 H2344 0.950 . S
C2368 C2363 1.363 . S
C2368 C2367 1.415 . S
C2369 H2345 0.951 . S
C2369 C2370 1.366 . S
C2369 C2371 1.388 . S
C2370 C2369 1.366 . S
C2370 C2374 1.385 . S
C2371 H2346 0.951 . S
C2371 C2369 1.388 . S
C2371 C2372 1.366 . S
C2372 C2371 1.366 . S
C2372 C2373 1.414 . S
C2372 C2375 1.499 . S
C2373 H2347 0.950 . S
C2373 C2372 1.414 . S
C2373 C2374 1.374 . S
C2374 H2348 0.950 . S
C2374 C2370 1.385 . S
C2374 C2373 1.374 . S
C2375 C2372 1.499 . S
C2375 C2376 1.373 . S
C2375 C2377 1.389 . S
C2376 H2349 0.950 . S
C2376 C2362 1.377 . S
C2376 C2375 1.373 . S
C2377 C2361 1.377 . S
C2377 C2375 1.389 . S
C2377 C2378 1.524 . S
C2378 C2377 1.524 . S
C2378 C2379 1.397 . S
C2378 C2383 1.363 . S
C2379 H2350 0.950 . S
C2379 C2378 1.397 . S
C2379 C2380 1.334 . S
C2380 H2351 0.950 . S
C2380 C2379 1.334 . S
C2380 C2381 1.287 . S
C2381 C2380 1.287 . S
C2381 C2382 1.524 . S
C2381 H2384 0.999 . S
C2382 H2352 0.950 . S
C2382 C2381 1.524 . S
C2382 C2383 1.415 . S
C2383 H2353 0.950 . S
C2383 C2378 1.363 . S
C2383 C2382 1.415 . S
H2384 C2381 0.999 . S
H2385 C2366 0.913 . S
H2386 C2404 0.951 . S
H2387 C2406 0.951 . S
H2388 C2408 0.950 . S
H2389 C2409 0.950 . S
H2390 C2411 0.950 . S
H2391 C2414 0.950 . S
H2392 C2415 0.950 . S
H2393 C2417 0.950 . S
H2394 C2418 0.950 . S
H2395 C2419 0.951 . S
H2396 C2421 0.951 . S
H2397 C2423 0.950 . S
H2398 C2424 0.950 . S
H2399 C2426 0.950 . S
H2400 C2429 0.950 . S
H2401 C2430 0.950 . S
H2402 C2432 0.950 . S
H2403 C2433 0.950 . S
C2404 H2386 0.951 . S
C2404 C2405 1.366 . S
C2404 C2406 1.388 . S
C2405 C2404 1.366 . S
C2405 C2409 1.385 . S
C2406 H2387 0.951 . S
C2406 C2404 1.388 . S
C2406 C2407 1.366 . S
C2407 C2406 1.366 . S
C2407 C2408 1.414 . S
C2407 C2410 1.499 . S
C2408 H2388 0.950 . S
C2408 C2407 1.414 . S
C2408 C2409 1.374 . S
C2409 H2389 0.950 . S
C2409 C2405 1.385 . S
C2409 C2408 1.374 . S
C2410 C2407 1.499 . S
C2410 C2411 1.373 . S
C2410 C2412 1.389 . S
C2411 H2390 0.950 . S
C2411 C2410 1.373 . S
C2411 C2427 1.377 . S
C2412 C2410 1.389 . S
C2412 C2413 1.524 . S
C2412 C2426 1.377 . S
C2413 C2412 1.524 . S
C2413 C2414 1.397 . S
C2413 C2418 1.363 . S
C2414 H2391 0.950 . S
C2414 C2413 1.397 . S
C2414 C2415 1.334 . S
C2415 H2392 0.950 . S
C2415 C2414 1.334 . S
C2415 C2416 1.287 . S
C2416 C2415 1.287 . S
C2416 C2417 1.524 . S
C2416 H2435 0.913 . S
C2417 H2393 0.950 . S
C2417 C2416 1.524 . S
C2417 C2418 1.415 . S
C2418 H2394 0.950 . S
C2418 C2413 1.363 . S
C2418 C2417 1.415 . S
C2419 H2395 0.951 . S
C2419 C2420 1.366 . S
C2419 C2421 1.388 . S
C2420 C2419 1.366 . S
C2420 C2424 1.385 . S
C2421 H2396 0.951 . S
C2421 C2419 1.388 . S
C2421 C2422 1.366 . S
C2422 C2421 1.366 . S
C2422 C2423 1.414 . S
C2422 C2425 1.499 . S
C2423 H2397 0.950 . S
C2423 C2422 1.414 . S
C2423 C2424 1.374 . S
C2424 H2398 0.950 . S
C2424 C2420 1.385 . S
C2424 C2423 1.374 . S
C2425 C2422 1.499 . S
C2425 C2426 1.373 . S
C2425 C2427 1.389 . S
C2426 H2399 0.950 . S
C2426 C2412 1.377 . S
C2426 C2425 1.373 . S
C2427 C2411 1.377 . S
C2427 C2425 1.389 . S
C2427 C2428 1.524 . S
C2428 C2427 1.524 . S
C2428 C2429 1.397 . S
C2428 C2433 1.363 . S
C2429 H2400 0.950 . S
C2429 C2428 1.397 . S
C2429 C2430 1.334 . S
C2430 H2401 0.950 . S
C2430 C2429 1.334 . S
C2430 C2431 1.287 . S
C2431 C2430 1.287 . S
C2431 C2432 1.524 . S
C2431 H2434 0.999 . S
C2432 H2402 0.950 . S
C2432 C2431 1.524 . S
C2432 C2433 1.415 . S
C2433 H2403 0.950 . S
C2433 C2428 1.363 . S
C2433 C2432 1.415 . S
H2434 C2431 0.999 . S
H2435 C2416 0.913 . S
H2436 C2454 0.951 . S
H2437 C2456 0.951 . S
H2438 C2458 0.950 . S
H2439 C2459 0.950 . S
H2440 C2461 0.950 . S
H2441 C2464 0.950 . S
H2442 C2465 0.950 . S
H2443 C2467 0.950 . S
H2444 C2468 0.950 . S
H2445 C2469 0.951 . S
H2446 C2471 0.951 . S
H2447 C2473 0.950 . S
H2448 C2474 0.950 . S
H2449 C2476 0.950 . S
H2450 C2479 0.950 . S
H2451 C2480 0.950 . S
H2452 C2482 0.950 . S
H2453 C2483 0.950 . S
C2454 H2436 0.951 . S
C2454 C2455 1.366 . S
C2454 C2456 1.388 . S
C2455 C2454 1.366 . S
C2455 C2459 1.385 . S
C2456 H2437 0.951 . S
C2456 C2454 1.388 . S
C2456 C2457 1.366 . S
C2457 C2456 1.366 . S
C2457 C2458 1.414 . S
C2457 C2460 1.499 . S
C2458 H2438 0.950 . S
C2458 C2457 1.414 . S
C2458 C2459 1.374 . S
C2459 H2439 0.950 . S
C2459 C2455 1.385 . S
C2459 C2458 1.374 . S
C2460 C2457 1.499 . S
C2460 C2461 1.373 . S
C2460 C2462 1.389 . S
C2461 H2440 0.950 . S
C2461 C2460 1.373 . S
C2461 C2477 1.377 . S
C2462 C2460 1.389 . S
C2462 C2463 1.524 . S
C2462 C2476 1.377 . S
C2463 C2462 1.524 . S
C2463 C2464 1.397 . S
C2463 C2468 1.363 . S
C2464 H2441 0.950 . S
C2464 C2463 1.397 . S
C2464 C2465 1.334 . S
C2465 H2442 0.950 . S
C2465 C2464 1.334 . S
C2465 C2466 1.287 . S
C2466 C2465 1.287 . S
C2466 C2467 1.524 . S
C2466 H2485 0.913 . S
C2467 H2443 0.950 . S
C2467 C2466 1.524 . S
C2467 C2468 1.415 . S
C2468 H2444 0.950 . S
C2468 C2463 1.363 . S
C2468 C2467 1.415 . S
C2469 H2445 0.951 . S
C2469 C2470 1.366 . S
C2469 C2471 1.388 . S
C2470 C2469 1.366 . S
C2470 C2474 1.385 . S
C2471 H2446 0.951 . S
C2471 C2469 1.388 . S
C2471 C2472 1.366 . S
C2472 C2471 1.366 . S
C2472 C2473 1.414 . S
C2472 C2475 1.499 . S
C2473 H2447 0.950 . S
C2473 C2472 1.414 . S
C2473 C2474 1.374 . S
C2474 H2448 0.950 . S
C2474 C2470 1.385 . S
C2474 C2473 1.374 . S
C2475 C2472 1.499 . S
C2475 C2476 1.373 . S
C2475 C2477 1.389 . S
C2476 H2449 0.950 . S
C2476 C2462 1.377 . S
C2476 C2475 1.373 . S
C2477 C2461 1.377 . S
C2477 C2475 1.389 . S
C2477 C2478 1.524 . S
C2478 C2477 1.524 . S
C2478 C2479 1.397 . S
C2478 C2483 1.363 . S
C2479 H2450 0.950 . S
C2479 C2478 1.397 . S
C2479 C2480 1.334 . S
C2480 H2451 0.950 . S
C2480 C2479 1.334 . S
C2480 C2481 1.287 . S
C2481 C2480 1.287 . S
C2481 C2482 1.524 . S
C2481 H2484 0.999 . S
C2482 H2452 0.950 . S
C2482 C2481 1.524 . S
C2482 C2483 1.415 . S
C2483 H2453 0.950 . S
C2483 C2478 1.363 . S
C2483 C2482 1.415 . S
H2484 C2481 0.999 . S
H2485 C2466 0.913 . S
H2486 C2504 0.951 . S
H2487 C2506 0.951 . S
H2488 C2508 0.950 . S
H2489 C2509 0.950 . S
H2490 C2511 0.950 . S
H2491 C2514 0.950 . S
H2492 C2515 0.950 . S
H2493 C2517 0.950 . S
H2494 C2518 0.950 . S
H2495 C2519 0.951 . S
H2496 C2521 0.951 . S
H2497 C2523 0.950 . S
H2498 C2524 0.950 . S
H2499 C2526 0.950 . S
H2500 C2529 0.950 . S
H2501 C2530 0.950 . S
H2502 C2532 0.950 . S
H2503 C2533 0.950 . S
C2504 H2486 0.951 . S
C2504 C2505 1.366 . S
C2504 C2506 1.388 . S
C2505 C2504 1.366 . S
C2505 C2509 1.385 . S
C2506 H2487 0.951 . S
C2506 C2504 1.388 . S
C2506 C2507 1.366 . S
C2507 C2506 1.366 . S
C2507 C2508 1.414 . S
C2507 C2510 1.499 . S
C2508 H2488 0.950 . S
C2508 C2507 1.414 . S
C2508 C2509 1.374 . S
C2509 H2489 0.950 . S
C2509 C2505 1.385 . S
C2509 C2508 1.374 . S
C2510 C2507 1.499 . S
C2510 C2511 1.373 . S
C2510 C2512 1.389 . S
C2511 H2490 0.950 . S
C2511 C2510 1.373 . S
C2511 C2527 1.377 . S
C2512 C2510 1.389 . S
C2512 C2513 1.524 . S
C2512 C2526 1.377 . S
C2513 C2512 1.524 . S
C2513 C2514 1.397 . S
C2513 C2518 1.363 . S
C2514 H2491 0.950 . S
C2514 C2513 1.397 . S
C2514 C2515 1.334 . S
C2515 H2492 0.950 . S
C2515 C2514 1.334 . S
C2515 C2516 1.287 . S
C2516 C2515 1.287 . S
C2516 C2517 1.524 . S
C2516 H2535 0.913 . S
C2517 H2493 0.950 . S
C2517 C2516 1.524 . S
C2517 C2518 1.415 . S
C2518 H2494 0.950 . S
C2518 C2513 1.363 . S
C2518 C2517 1.415 . S
C2519 H2495 0.951 . S
C2519 C2520 1.366 . S
C2519 C2521 1.388 . S
C2520 C2519 1.366 . S
C2520 C2524 1.385 . S
C2521 H2496 0.951 . S
C2521 C2519 1.388 . S
C2521 C2522 1.366 . S
C2522 C2521 1.366 . S
C2522 C2523 1.414 . S
C2522 C2525 1.499 . S
C2523 H2497 0.950 . S
C2523 C2522 1.414 . S
C2523 C2524 1.374 . S
C2524 H2498 0.950 . S
C2524 C2520 1.385 . S
C2524 C2523 1.374 . S
C2525 C2522 1.499 . S
C2525 C2526 1.373 . S
C2525 C2527 1.389 . S
C2526 H2499 0.950 . S
C2526 C2512 1.377 . S
C2526 C2525 1.373 . S
C2527 C2511 1.377 . S
C2527 C2525 1.389 . S
C2527 C2528 1.524 . S
C2528 C2527 1.524 . S
C2528 C2529 1.397 . S
C2528 C2533 1.363 . S
C2529 H2500 0.950 . S
C2529 C2528 1.397 . S
C2529 C2530 1.334 . S
C2530 H2501 0.950 . S
C2530 C2529 1.334 . S
C2530 C2531 1.287 . S
C2531 C2530 1.287 . S
C2531 C2532 1.524 . S
C2531 H2534 0.999 . S
C2532 H2502 0.950 . S
C2532 C2531 1.524 . S
C2532 C2533 1.415 . S
C2533 H2503 0.950 . S
C2533 C2528 1.363 . S
C2533 C2532 1.415 . S
H2534 C2531 0.999 . S
H2535 C2516 0.913 . S
H2536 C2554 0.951 . S
H2537 C2556 0.951 . S
H2538 C2558 0.950 . S
H2539 C2559 0.950 . S
H2540 C2561 0.950 . S
H2541 C2564 0.950 . S
H2542 C2565 0.950 . S
H2543 C2567 0.950 . S
H2544 C2568 0.950 . S
H2545 C2569 0.951 . S
H2546 C2571 0.951 . S
H2547 C2573 0.950 . S
H2548 C2574 0.950 . S
H2549 C2576 0.950 . S
H2550 C2579 0.950 . S
H2551 C2580 0.950 . S
H2552 C2582 0.950 . S
H2553 C2583 0.950 . S
C2554 H2536 0.951 . S
C2554 C2555 1.366 . S
C2554 C2556 1.388 . S
C2555 C2554 1.366 . S
C2555 C2559 1.385 . S
C2556 H2537 0.951 . S
C2556 C2554 1.388 . S
C2556 C2557 1.366 . S
C2557 C2556 1.366 . S
C2557 C2558 1.414 . S
C2557 C2560 1.499 . S
C2558 H2538 0.950 . S
C2558 C2557 1.414 . S
C2558 C2559 1.374 . S
C2559 H2539 0.950 . S
C2559 C2555 1.385 . S
C2559 C2558 1.374 . S
C2560 C2557 1.499 . S
C2560 C2561 1.373 . S
C2560 C2562 1.389 . S
C2561 H2540 0.950 . S
C2561 C2560 1.373 . S
C2561 C2577 1.377 . S
C2562 C2560 1.389 . S
C2562 C2563 1.524 . S
C2562 C2576 1.377 . S
C2563 C2562 1.524 . S
C2563 C2564 1.397 . S
C2563 C2568 1.363 . S
C2564 H2541 0.950 . S
C2564 C2563 1.397 . S
C2564 C2565 1.334 . S
C2565 H2542 0.950 . S
C2565 C2564 1.334 . S
C2565 C2566 1.287 . S
C2566 C2565 1.287 . S
C2566 C2567 1.524 . S
C2566 H2585 0.913 . S
C2567 H2543 0.950 . S
C2567 C2566 1.524 . S
C2567 C2568 1.415 . S
C2568 H2544 0.950 . S
C2568 C2563 1.363 . S
C2568 C2567 1.415 . S
C2569 H2545 0.951 . S
C2569 C2570 1.366 . S
C2569 C2571 1.388 . S
C2570 C2569 1.366 . S
C2570 C2574 1.385 . S
C2571 H2546 0.951 . S
C2571 C2569 1.388 . S
C2571 C2572 1.366 . S
C2572 C2571 1.366 . S
C2572 C2573 1.414 . S
C2572 C2575 1.499 . S
C2573 H2547 0.950 . S
C2573 C2572 1.414 . S
C2573 C2574 1.374 . S
C2574 H2548 0.950 . S
C2574 C2570 1.385 . S
C2574 C2573 1.374 . S
C2575 C2572 1.499 . S
C2575 C2576 1.373 . S
C2575 C2577 1.389 . S
C2576 H2549 0.950 . S
C2576 C2562 1.377 . S
C2576 C2575 1.373 . S
C2577 C2561 1.377 . S
C2577 C2575 1.389 . S
C2577 C2578 1.524 . S
C2578 C2577 1.524 . S
C2578 C2579 1.397 . S
C2578 C2583 1.363 . S
C2579 H2550 0.950 . S
C2579 C2578 1.397 . S
C2579 C2580 1.334 . S
C2580 H2551 0.950 . S
C2580 C2579 1.334 . S
C2580 C2581 1.287 . S
C2581 C2580 1.287 . S
C2581 C2582 1.524 . S
C2581 H2584 0.999 . S
C2582 H2552 0.950 . S
C2582 C2581 1.524 . S
C2582 C2583 1.415 . S
C2583 H2553 0.950 . S
C2583 C2578 1.363 . S
C2583 C2582 1.415 . S
H2584 C2581 0.999 . S
H2585 C2566 0.913 . S
H2586 C2604 0.951 . S
H2587 C2606 0.951 . S
H2588 C2608 0.950 . S
H2589 C2609 0.950 . S
H2590 C2611 0.950 . S
H2591 C2614 0.950 . S
H2592 C2615 0.950 . S
H2593 C2617 0.950 . S
H2594 C2618 0.950 . S
H2595 C2619 0.951 . S
H2596 C2621 0.951 . S
H2597 C2623 0.950 . S
H2598 C2624 0.950 . S
H2599 C2626 0.950 . S
H2600 C2629 0.950 . S
H2601 C2630 0.950 . S
H2602 C2632 0.950 . S
H2603 C2633 0.950 . S
C2604 H2586 0.951 . S
C2604 C2605 1.366 . S
C2604 C2606 1.388 . S
C2605 C2604 1.366 . S
C2605 C2609 1.385 . S
C2606 H2587 0.951 . S
C2606 C2604 1.388 . S
C2606 C2607 1.366 . S
C2607 C2606 1.366 . S
C2607 C2608 1.414 . S
C2607 C2610 1.499 . S
C2608 H2588 0.950 . S
C2608 C2607 1.414 . S
C2608 C2609 1.374 . S
C2609 H2589 0.950 . S
C2609 C2605 1.385 . S
C2609 C2608 1.374 . S
C2610 C2607 1.499 . S
C2610 C2611 1.373 . S
C2610 C2612 1.389 . S
C2611 H2590 0.950 . S
C2611 C2610 1.373 . S
C2611 C2627 1.377 . S
C2612 C2610 1.389 . S
C2612 C2613 1.524 . S
C2612 C2626 1.377 . S
C2613 C2612 1.524 . S
C2613 C2614 1.397 . S
C2613 C2618 1.363 . S
C2614 H2591 0.950 . S
C2614 C2613 1.397 . S
C2614 C2615 1.334 . S
C2615 H2592 0.950 . S
C2615 C2614 1.334 . S
C2615 C2616 1.287 . S
C2616 C2615 1.287 . S
C2616 C2617 1.524 . S
C2616 H2635 0.913 . S
C2617 H2593 0.950 . S
C2617 C2616 1.524 . S
C2617 C2618 1.415 . S
C2618 H2594 0.950 . S
C2618 C2613 1.363 . S
C2618 C2617 1.415 . S
C2619 H2595 0.951 . S
C2619 C2620 1.366 . S
C2619 C2621 1.388 . S
C2620 C2619 1.366 . S
C2620 C2624 1.385 . S
C2621 H2596 0.951 . S
C2621 C2619 1.388 . S
C2621 C2622 1.366 . S
C2622 C2621 1.366 . S
C2622 C2623 1.414 . S
C2622 C2625 1.499 . S
C2623 H2597 0.950 . S
C2623 C2622 1.414 . S
C2623 C2624 1.374 . S
C2624 H2598 0.950 . S
C2624 C2620 1.385 . S
C2624 C2623 1.374 . S
C2625 C2622 1.499 . S
C2625 C2626 1.373 . S
C2625 C2627 1.389 . S
C2626 H2599 0.950 . S
C2626 C2612 1.377 . S
C2626 C2625 1.373 . S
C2627 C2611 1.377 . S
C2627 C2625 1.389 . S
C2627 C2628 1.524 . S
C2628 C2627 1.524 . S
C2628 C2629 1.397 . S
C2628 C2633 1.363 . S
C2629 H2600 0.950 . S
C2629 C2628 1.397 . S
C2629 C2630 1.334 . S
C2630 H2601 0.950 . S
C2630 C2629 1.334 . S
C2630 C2631 1.287 . S
C2631 C2630 1.287 . S
C2631 C2632 1.524 . S
C2631 H2634 0.999 . S
C2632 H2602 0.950 . S
C2632 C2631 1.524 . S
C2632 C2633 1.415 . S
C2633 H2603 0.950 . S
C2633 C2628 1.363 . S
C2633 C2632 1.415 . S
H2634 C2631 0.999 . S
H2635 C2616 0.913 . S
H2636 C2654 0.951 . S
H2637 C2656 0.951 . S
H2638 C2658 0.950 . S
H2639 C2659 0.950 . S
H2640 C2661 0.950 . S
H2641 C2664 0.950 . S
H2642 C2665 0.950 . S
H2643 C2667 0.950 . S
H2644 C2668 0.950 . S
H2645 C2669 0.951 . S
H2646 C2671 0.951 . S
H2647 C2673 0.950 . S
H2648 C2674 0.950 . S
H2649 C2676 0.950 . S
H2650 C2679 0.950 . S
H2651 C2680 0.950 . S
H2652 C2682 0.950 . S
H2653 C2683 0.950 . S
C2654 H2636 0.951 . S
C2654 C2655 1.366 . S
C2654 C2656 1.388 . S
C2655 C2654 1.366 . S
C2655 C2659 1.385 . S
C2656 H2637 0.951 . S
C2656 C2654 1.388 . S
C2656 C2657 1.366 . S
C2657 C2656 1.366 . S
C2657 C2658 1.414 . S
C2657 C2660 1.499 . S
C2658 H2638 0.950 . S
C2658 C2657 1.414 . S
C2658 C2659 1.374 . S
C2659 H2639 0.950 . S
C2659 C2655 1.385 . S
C2659 C2658 1.374 . S
C2660 C2657 1.499 . S
C2660 C2661 1.373 . S
C2660 C2662 1.389 . S
C2661 H2640 0.950 . S
C2661 C2660 1.373 . S
C2661 C2677 1.377 . S
C2662 C2660 1.389 . S
C2662 C2663 1.524 . S
C2662 C2676 1.377 . S
C2663 C2662 1.524 . S
C2663 C2664 1.397 . S
C2663 C2668 1.363 . S
C2664 H2641 0.950 . S
C2664 C2663 1.397 . S
C2664 C2665 1.334 . S
C2665 H2642 0.950 . S
C2665 C2664 1.334 . S
C2665 C2666 1.287 . S
C2666 C2665 1.287 . S
C2666 C2667 1.524 . S
C2666 H2685 0.913 . S
C2667 H2643 0.950 . S
C2667 C2666 1.524 . S
C2667 C2668 1.415 . S
C2668 H2644 0.950 . S
C2668 C2663 1.363 . S
C2668 C2667 1.415 . S
C2669 H2645 0.951 . S
C2669 C2670 1.366 . S
C2669 C2671 1.388 . S
C2670 C2669 1.366 . S
C2670 C2674 1.385 . S
C2671 H2646 0.951 . S
C2671 C2669 1.388 . S
C2671 C2672 1.366 . S
C2672 C2671 1.366 . S
C2672 C2673 1.414 . S
C2672 C2675 1.499 . S
C2673 H2647 0.950 . S
C2673 C2672 1.414 . S
C2673 C2674 1.374 . S
C2674 H2648 0.950 . S
C2674 C2670 1.385 . S
C2674 C2673 1.374 . S
C2675 C2672 1.499 . S
C2675 C2676 1.373 . S
C2675 C2677 1.389 . S
C2676 H2649 0.950 . S
C2676 C2662 1.377 . S
C2676 C2675 1.373 . S
C2677 C2661 1.377 . S
C2677 C2675 1.389 . S
C2677 C2678 1.524 . S
C2678 C2677 1.524 . S
C2678 C2679 1.397 . S
C2678 C2683 1.363 . S
C2679 H2650 0.950 . S
C2679 C2678 1.397 . S
C2679 C2680 1.334 . S
C2680 H2651 0.950 . S
C2680 C2679 1.334 . S
C2680 C2681 1.287 . S
C2681 C2680 1.287 . S
C2681 C2682 1.524 . S
C2681 H2684 0.999 . S
C2682 H2652 0.950 . S
C2682 C2681 1.524 . S
C2682 C2683 1.415 . S
C2683 H2653 0.950 . S
C2683 C2678 1.363 . S
C2683 C2682 1.415 . S
H2684 C2681 0.999 . S
H2685 C2666 0.913 . S
H2686 C2704 0.951 . S
H2687 C2706 0.951 . S
H2688 C2708 0.950 . S
H2689 C2709 0.950 . S
H2690 C2711 0.950 . S
H2691 C2714 0.950 . S
H2692 C2715 0.950 . S
H2693 C2717 0.950 . S
H2694 C2718 0.950 . S
H2695 C2719 0.951 . S
H2696 C2721 0.951 . S
H2697 C2723 0.950 . S
H2698 C2724 0.950 . S
H2699 C2726 0.950 . S
H2700 C2729 0.950 . S
H2701 C2730 0.950 . S
H2702 C2732 0.950 . S
H2703 C2733 0.950 . S
C2704 H2686 0.951 . S
C2704 C2705 1.366 . S
C2704 C2706 1.388 . S
C2705 C2704 1.366 . S
C2705 C2709 1.385 . S
C2706 H2687 0.951 . S
C2706 C2704 1.388 . S
C2706 C2707 1.366 . S
C2707 C2706 1.366 . S
C2707 C2708 1.414 . S
C2707 C2710 1.499 . S
C2708 H2688 0.950 . S
C2708 C2707 1.414 . S
C2708 C2709 1.374 . S
C2709 H2689 0.950 . S
C2709 C2705 1.385 . S
C2709 C2708 1.374 . S
C2710 C2707 1.499 . S
C2710 C2711 1.373 . S
C2710 C2712 1.389 . S
C2711 H2690 0.950 . S
C2711 C2710 1.373 . S
C2711 C2727 1.377 . S
C2712 C2710 1.389 . S
C2712 C2713 1.524 . S
C2712 C2726 1.377 . S
C2713 C2712 1.524 . S
C2713 C2714 1.397 . S
C2713 C2718 1.363 . S
C2714 H2691 0.950 . S
C2714 C2713 1.397 . S
C2714 C2715 1.334 . S
C2715 H2692 0.950 . S
C2715 C2714 1.334 . S
C2715 C2716 1.287 . S
C2716 C2715 1.287 . S
C2716 C2717 1.524 . S
C2716 H2735 0.913 . S
C2717 H2693 0.950 . S
C2717 C2716 1.524 . S
C2717 C2718 1.415 . S
C2718 H2694 0.950 . S
C2718 C2713 1.363 . S
C2718 C2717 1.415 . S
C2719 H2695 0.951 . S
C2719 C2720 1.366 . S
C2719 C2721 1.388 . S
C2720 C2719 1.366 . S
C2720 C2724 1.385 . S
C2721 H2696 0.951 . S
C2721 C2719 1.388 . S
C2721 C2722 1.366 . S
C2722 C2721 1.366 . S
C2722 C2723 1.414 . S
C2722 C2725 1.499 . S
C2723 H2697 0.950 . S
C2723 C2722 1.414 . S
C2723 C2724 1.374 . S
C2724 H2698 0.950 . S
C2724 C2720 1.385 . S
C2724 C2723 1.374 . S
C2725 C2722 1.499 . S
C2725 C2726 1.373 . S
C2725 C2727 1.389 . S
C2726 H2699 0.950 . S
C2726 C2712 1.377 . S
C2726 C2725 1.373 . S
C2727 C2711 1.377 . S
C2727 C2725 1.389 . S
C2727 C2728 1.524 . S
C2728 C2727 1.524 . S
C2728 C2729 1.397 . S
C2728 C2733 1.363 . S
C2729 H2700 0.950 . S
C2729 C2728 1.397 . S
C2729 C2730 1.334 . S
C2730 H2701 0.950 . S
C2730 C2729 1.334 . S
C2730 C2731 1.287 . S
C2731 C2730 1.287 . S
C2731 C2732 1.524 . S
C2731 H2734 0.999 . S
C2732 H2702 0.950 . S
C2732 C2731 1.524 . S
C2732 C2733 1.415 . S
C2733 H2703 0.950 . S
C2733 C2728 1.363 . S
C2733 C2732 1.415 . S
H2734 C2731 0.999 . S
H2735 C2716 0.913 . S
C355 C201 1.504 . S
C370 C11 1.501 . S
C405 C14 1.531 . S
C420 C210 1.532 . S
C455 C257 1.507 . S
C470 C33 1.507 . S
C505 C51 1.610 . S
C520 C191 1.613 . S
C555 C207 1.440 . S
C570 C67 1.439 . S
C605 C79 1.590 . S
C620 C219 1.588 . S
C655 C89 1.445 . S
C670 C263 1.444 . S
C705 C98 1.507 . S
C720 C182 1.506 . S
C755 C137 1.381 . S
C770 C123 1.382 . S
C805 C145 1.564 . S
C820 C131 1.565 . S
C855 C151 1.462 . S
C870 C165 1.461 . S
C905 C159 1.482 . S
C920 C117 1.482 . S
C955 C168 1.532 . S
C970 C42 1.531 . S
C1005 C61 1.445 . S
C1020 C235 1.444 . S
C1055 C247 1.613 . S
C1070 C23 1.610 . S
C1105 C25 1.462 . S
C1120 C303 1.456 . S
C1155 C126 1.409 . S
C1170 C9 1.406 . S
C1205 C331 1.516 . S
C1220 C47 1.525 . S
C1255 C154 1.402 . S
C1270 C28 1.403 . S
C1305 C294 1.421 . S
C1320 C109 1.422 . S
C1355 C135 1.434 . S
C1370 C84 1.437 . S
C1405 C75 1.482 . S
C1420 C322 1.479 . S
C1455 C65 1.440 . S
C1470 C163 1.439 . S
C1505 C215 1.530 . S
C1520 C275 1.521 . S
C1555 C224 1.415 . S
C1570 C221 1.415 . S
C1605 C193 1.473 . S
C1620 C233 1.468 . S
C1655 C266 1.467 . S
C1670 C187 1.471 . S
C1705 C37 1.406 . S
C1720 C280 1.409 . S
C1755 C140 1.479 . S
C1770 C103 1.482 . S
C1805 C0 1.403 . S
C1820 C308 1.402 . S
C1855 C271 1.504 . S
C1870 C39 1.501 . S
C1905 C5 1.507 . S
C1920 C229 1.507 . S
C1955 C277 1.440 . S
C1970 C95 1.439 . S
C2005 C177 1.587 . S
C2020 C107 1.590 . S
C2055 C70 1.506 . S
C2070 C238 1.506 . S
C2105 C305 1.382 . S
C2120 C291 1.381 . S
C2155 C327 1.565 . S
C2170 C285 1.565 . S
C2205 C319 1.461 . S
C2220 C333 1.462 . S
C2255 C299 1.481 . S
C2270 C313 1.482 . S
C2305 C121 1.456 . S
C2320 C53 1.461 . S
C2355 C19 1.525 . S
C2370 C149 1.516 . S
C2405 C81 1.422 . S
C2420 C112 1.421 . S
C2455 C289 1.434 . S
C2470 C56 1.437 . S
C2505 C93 1.439 . S
C2520 C317 1.439 . S
C2555 C173 1.530 . S
C2570 C205 1.521 . S
C2605 C252 1.414 . S
C2620 C179 1.415 . S
C2655 C249 1.473 . S
C2670 C261 1.468 . S
C2705 C196 1.468 . S
C2720 C243 1.471 . S
