# Generated by pormake.
# Topology wgl, (5)-cn, num edge types: 1
# Building blocks:
#     Node 0, Type 0, BuildingBlock: XOMCOT_clean_sbu_1, # of connection points: 5
#     Node 1, Type 0, BuildingBlock: XOMCOT_clean_sbu_1, # of connection points: 5
#     Node 2, Type 0, BuildingBlock: XOMCOT_clean_sbu_1, # of connection points: 5
#     Node 3, Type 0, BuildingBlock: XOMCOT_clean_sbu_1, # of connection points: 5
#     Node 4, Type 0, BuildingBlock: XOMCOT_clean_sbu_1, # of connection points: 5
#     Node 5, Type 0, BuildingBlock: XOMCOT_clean_sbu_1, # of connection points: 5
#     Node 6, Type 0, BuildingBlock: XOMCOT_clean_sbu_1, # of connection points: 5
#     Node 7, Type 0, BuildingBlock: XOMCOT_clean_sbu_1, # of connection points: 5
#     Node 8, Type 0, BuildingBlock: XOMCOT_clean_sbu_1, # of connection points: 5
#     Node 9, Type 0, BuildingBlock: XOMCOT_clean_sbu_1, # of connection points: 5
#     Node 10, Type 0, BuildingBlock: XOMCOT_clean_sbu_1, # of connection points: 5
#     Node 11, Type 0, BuildingBlock: XOMCOT_clean_sbu_1, # of connection points: 5
#     Node 12, Type 0, BuildingBlock: XOMCOT_clean_sbu_1, # of connection points: 5
#     Node 13, Type 0, BuildingBlock: XOMCOT_clean_sbu_1, # of connection points: 5
#     Node 14, Type 0, BuildingBlock: XOMCOT_clean_sbu_1, # of connection points: 5
#     Node 15, Type 0, BuildingBlock: XOMCOT_clean_sbu_1, # of connection points: 5
#     Node 16, Type 0, BuildingBlock: XOMCOT_clean_sbu_1, # of connection points: 5
#     Node 17, Type 0, BuildingBlock: XOMCOT_clean_sbu_1, # of connection points: 5
#     Node 18, Type 0, BuildingBlock: XOMCOT_clean_sbu_1, # of connection points: 5
#     Node 19, Type 0, BuildingBlock: XOMCOT_clean_sbu_1, # of connection points: 5
#     Node 20, Type 0, BuildingBlock: XOMCOT_clean_sbu_1, # of connection points: 5
#     Node 21, Type 0, BuildingBlock: XOMCOT_clean_sbu_1, # of connection points: 5
#     Node 22, Type 0, BuildingBlock: XOMCOT_clean_sbu_1, # of connection points: 5
#     Node 23, Type 0, BuildingBlock: XOMCOT_clean_sbu_1, # of connection points: 5
#     Node 24, Type 0, BuildingBlock: XOMCOT_clean_sbu_1, # of connection points: 5
#     Node 25, Type 0, BuildingBlock: XOMCOT_clean_sbu_1, # of connection points: 5
#     Node 26, Type 0, BuildingBlock: XOMCOT_clean_sbu_1, # of connection points: 5
#     Node 27, Type 0, BuildingBlock: XOMCOT_clean_sbu_1, # of connection points: 5
#     Node 28, Type 0, BuildingBlock: XOMCOT_clean_sbu_1, # of connection points: 5
#     Node 29, Type 0, BuildingBlock: XOMCOT_clean_sbu_1, # of connection points: 5
#     Node 30, Type 0, BuildingBlock: XOMCOT_clean_sbu_1, # of connection points: 5
#     Node 31, Type 0, BuildingBlock: XOMCOT_clean_sbu_1, # of connection points: 5
#     Edge 32, Type (0, 0), BuildingBlock: OJICUG_clean_linker_0, # of connection points: 2
#     Edge 33, Type (0, 0), BuildingBlock: OJICUG_clean_linker_0, # of connection points: 2
#     Edge 34, Type (0, 0), BuildingBlock: OJICUG_clean_linker_0, # of connection points: 2
#     Edge 35, Type (0, 0), BuildingBlock: OJICUG_clean_linker_0, # of connection points: 2
#     Edge 36, Type (0, 0), BuildingBlock: OJICUG_clean_linker_0, # of connection points: 2
#     Edge 37, Type (0, 0), BuildingBlock: OJICUG_clean_linker_0, # of connection points: 2
#     Edge 38, Type (0, 0), BuildingBlock: OJICUG_clean_linker_0, # of connection points: 2
#     Edge 39, Type (0, 0), BuildingBlock: OJICUG_clean_linker_0, # of connection points: 2
#     Edge 40, Type (0, 0), BuildingBlock: OJICUG_clean_linker_0, # of connection points: 2
#     Edge 41, Type (0, 0), BuildingBlock: OJICUG_clean_linker_0, # of connection points: 2
#     Edge 42, Type (0, 0), BuildingBlock: OJICUG_clean_linker_0, # of connection points: 2
#     Edge 43, Type (0, 0), BuildingBlock: OJICUG_clean_linker_0, # of connection points: 2
#     Edge 44, Type (0, 0), BuildingBlock: OJICUG_clean_linker_0, # of connection points: 2
#     Edge 45, Type (0, 0), BuildingBlock: OJICUG_clean_linker_0, # of connection points: 2
#     Edge 46, Type (0, 0), BuildingBlock: OJICUG_clean_linker_0, # of connection points: 2
#     Edge 47, Type (0, 0), BuildingBlock: OJICUG_clean_linker_0, # of connection points: 2
#     Edge 48, Type (0, 0), BuildingBlock: OJICUG_clean_linker_0, # of connection points: 2
#     Edge 49, Type (0, 0), BuildingBlock: OJICUG_clean_linker_0, # of connection points: 2
#     Edge 50, Type (0, 0), BuildingBlock: OJICUG_clean_linker_0, # of connection points: 2
#     Edge 51, Type (0, 0), BuildingBlock: OJICUG_clean_linker_0, # of connection points: 2
#     Edge 52, Type (0, 0), BuildingBlock: OJICUG_clean_linker_0, # of connection points: 2
#     Edge 53, Type (0, 0), BuildingBlock: OJICUG_clean_linker_0, # of connection points: 2
#     Edge 54, Type (0, 0), BuildingBlock: OJICUG_clean_linker_0, # of connection points: 2
#     Edge 55, Type (0, 0), BuildingBlock: OJICUG_clean_linker_0, # of connection points: 2
#     Edge 56, Type (0, 0), BuildingBlock: OJICUG_clean_linker_0, # of connection points: 2
#     Edge 57, Type (0, 0), BuildingBlock: OJICUG_clean_linker_0, # of connection points: 2
#     Edge 58, Type (0, 0), BuildingBlock: OJICUG_clean_linker_0, # of connection points: 2
#     Edge 59, Type (0, 0), BuildingBlock: OJICUG_clean_linker_0, # of connection points: 2
#     Edge 60, Type (0, 0), BuildingBlock: OJICUG_clean_linker_0, # of connection points: 2
#     Edge 61, Type (0, 0), BuildingBlock: OJICUG_clean_linker_0, # of connection points: 2
#     Edge 62, Type (0, 0), BuildingBlock: OJICUG_clean_linker_0, # of connection points: 2
#     Edge 63, Type (0, 0), BuildingBlock: OJICUG_clean_linker_0, # of connection points: 2
#     Edge 64, Type (0, 0), BuildingBlock: OJICUG_clean_linker_0, # of connection points: 2
#     Edge 65, Type (0, 0), BuildingBlock: OJICUG_clean_linker_0, # of connection points: 2
#     Edge 66, Type (0, 0), BuildingBlock: OJICUG_clean_linker_0, # of connection points: 2
#     Edge 67, Type (0, 0), BuildingBlock: OJICUG_clean_linker_0, # of connection points: 2
#     Edge 68, Type (0, 0), BuildingBlock: OJICUG_clean_linker_0, # of connection points: 2
#     Edge 69, Type (0, 0), BuildingBlock: OJICUG_clean_linker_0, # of connection points: 2
#     Edge 70, Type (0, 0), BuildingBlock: OJICUG_clean_linker_0, # of connection points: 2
#     Edge 71, Type (0, 0), BuildingBlock: OJICUG_clean_linker_0, # of connection points: 2
#     Edge 72, Type (0, 0), BuildingBlock: OJICUG_clean_linker_0, # of connection points: 2
#     Edge 73, Type (0, 0), BuildingBlock: OJICUG_clean_linker_0, # of connection points: 2
#     Edge 74, Type (0, 0), BuildingBlock: OJICUG_clean_linker_0, # of connection points: 2
#     Edge 75, Type (0, 0), BuildingBlock: OJICUG_clean_linker_0, # of connection points: 2
#     Edge 76, Type (0, 0), BuildingBlock: OJICUG_clean_linker_0, # of connection points: 2
#     Edge 77, Type (0, 0), BuildingBlock: OJICUG_clean_linker_0, # of connection points: 2
#     Edge 78, Type (0, 0), BuildingBlock: OJICUG_clean_linker_0, # of connection points: 2
#     Edge 79, Type (0, 0), BuildingBlock: OJICUG_clean_linker_0, # of connection points: 2
#     Edge 80, Type (0, 0), BuildingBlock: OJICUG_clean_linker_0, # of connection points: 2
#     Edge 81, Type (0, 0), BuildingBlock: OJICUG_clean_linker_0, # of connection points: 2
#     Edge 82, Type (0, 0), BuildingBlock: OJICUG_clean_linker_0, # of connection points: 2
#     Edge 83, Type (0, 0), BuildingBlock: OJICUG_clean_linker_0, # of connection points: 2
#     Edge 84, Type (0, 0), BuildingBlock: OJICUG_clean_linker_0, # of connection points: 2
#     Edge 85, Type (0, 0), BuildingBlock: OJICUG_clean_linker_0, # of connection points: 2
#     Edge 86, Type (0, 0), BuildingBlock: OJICUG_clean_linker_0, # of connection points: 2
#     Edge 87, Type (0, 0), BuildingBlock: OJICUG_clean_linker_0, # of connection points: 2
#     Edge 88, Type (0, 0), BuildingBlock: OJICUG_clean_linker_0, # of connection points: 2
#     Edge 89, Type (0, 0), BuildingBlock: OJICUG_clean_linker_0, # of connection points: 2
#     Edge 90, Type (0, 0), BuildingBlock: OJICUG_clean_linker_0, # of connection points: 2
#     Edge 91, Type (0, 0), BuildingBlock: OJICUG_clean_linker_0, # of connection points: 2
#     Edge 92, Type (0, 0), BuildingBlock: OJICUG_clean_linker_0, # of connection points: 2
#     Edge 93, Type (0, 0), BuildingBlock: OJICUG_clean_linker_0, # of connection points: 2
#     Edge 94, Type (0, 0), BuildingBlock: OJICUG_clean_linker_0, # of connection points: 2
#     Edge 95, Type (0, 0), BuildingBlock: OJICUG_clean_linker_0, # of connection points: 2
#     Edge 96, Type (0, 0), BuildingBlock: OJICUG_clean_linker_0, # of connection points: 2
#     Edge 97, Type (0, 0), BuildingBlock: OJICUG_clean_linker_0, # of connection points: 2
#     Edge 98, Type (0, 0), BuildingBlock: OJICUG_clean_linker_0, # of connection points: 2
#     Edge 99, Type (0, 0), BuildingBlock: OJICUG_clean_linker_0, # of connection points: 2
#     Edge 100, Type (0, 0), BuildingBlock: OJICUG_clean_linker_0, # of connection points: 2
#     Edge 101, Type (0, 0), BuildingBlock: OJICUG_clean_linker_0, # of connection points: 2
#     Edge 102, Type (0, 0), BuildingBlock: OJICUG_clean_linker_0, # of connection points: 2
#     Edge 103, Type (0, 0), BuildingBlock: OJICUG_clean_linker_0, # of connection points: 2
#     Edge 104, Type (0, 0), BuildingBlock: OJICUG_clean_linker_0, # of connection points: 2
#     Edge 105, Type (0, 0), BuildingBlock: OJICUG_clean_linker_0, # of connection points: 2
#     Edge 106, Type (0, 0), BuildingBlock: OJICUG_clean_linker_0, # of connection points: 2
#     Edge 107, Type (0, 0), BuildingBlock: OJICUG_clean_linker_0, # of connection points: 2
#     Edge 108, Type (0, 0), BuildingBlock: OJICUG_clean_linker_0, # of connection points: 2
#     Edge 109, Type (0, 0), BuildingBlock: OJICUG_clean_linker_0, # of connection points: 2
#     Edge 110, Type (0, 0), BuildingBlock: OJICUG_clean_linker_0, # of connection points: 2
#     Edge 111, Type (0, 0), BuildingBlock: OJICUG_clean_linker_0, # of connection points: 2
# Relax obj value: 0.051
# Max RMSD: 0.086
# Mean RMSD: 0.086
data_MOF--net-wgl--node1-XOMCOT_clean_sbu_1--edge1-OJICUG_clean_linker_0
_symmetry_space_group_name_H-M    P1
_symmetry_Int_Tables_number       1
_symmetry_cell_setting            triclinic
loop_
_symmetry_equiv_pos_as_xyz
'x, y, z'
_cell_length_a     44.24423
_cell_length_b     44.236709
_cell_length_c     37.465412
_cell_angle_alpha  90.000897
_cell_angle_beta   90.00831
_cell_angle_gamma 89.997018
loop_
_atom_site_label
_atom_site_type_symbol
_atom_site_fract_x
_atom_site_fract_y
_atom_site_fract_z
_atom_type_partial_charge
C0 C 0.27159 0.37934 0.22585 0.0
C1 C 0.2491 0.4006 0.22473 0.0
N2 N 0.2366 0.40029 0.1919 0.0
N3 N 0.27366 0.36554 0.19392 0.0
C4 C 0.25205 0.37874 0.17367 0.0
H5 H 0.28589 0.37454 0.24853 0.0
Co6 Co 0.30208 0.33539 0.18544 0.0
C7 C 0.29425 0.31488 0.10876 0.0
O8 O 0.32254 0.30592 0.10788 0.0
N9 N 0.33119 0.30462 0.17912 0.0
C10 C 0.37391 0.2783 0.18335 0.0
C11 C 0.36154 0.30674 0.18256 0.0
C12 C 0.32583 0.27447 0.17754 0.0
N13 N 0.35139 0.25804 0.18053 0.0
O14 O 0.27634 0.3068 0.20934 0.0
H15 H 0.37415 0.32736 0.18606 0.0
H16 H 0.30344 0.26468 0.17626 0.0
O17 O 0.28352 0.32657 0.13757 0.0
C18 C 0.2858 0.30382 0.24146 0.0
O19 O 0.30931 0.31986 0.25151 0.0
N20 N 0.32869 0.3646 0.16709 0.0
C21 C 0.38081 0.39814 0.15471 0.0
C22 C 0.36294 0.38811 0.12605 0.0
C23 C 0.33643 0.37179 0.13284 0.0
C24 C 0.34372 0.37745 0.19499 0.0
C25 C 0.36987 0.39427 0.18945 0.0
H26 H 0.32334 0.36409 0.11049 0.0
H27 H 0.33714 0.37198 0.222 0.0
H28 H 0.2478 0.37262 0.14619 0.0
H29 H 0.24312 0.41564 0.24636 0.0
H30 H 0.39762 0.27293 0.18672 0.0
H31 H 0.37018 0.39155 0.09873 0.0
H32 H 0.38286 0.40158 0.2124 0.0
C33 C 0.89241 0.02149 0.47599 0.0
C34 C 0.87113 0.99902 0.47486 0.0
N35 N 0.8713 0.98664 0.44198 0.0
N36 N 0.9061 0.02365 0.444 0.0
C37 C 0.8928 1.00213 0.42371 0.0
H38 H 0.8973 0.03571 0.49871 0.0
Co39 Co 0.9362 0.05211 0.43549 0.0
C40 C 0.95669 0.04428 0.35881 0.0
O41 O 0.96562 0.07259 0.35792 0.0
N42 N 0.96691 0.08127 0.42914 0.0
C43 C 0.99316 0.12405 0.43331 0.0
C44 C 0.96474 0.11163 0.43255 0.0
C45 C 0.99706 0.07597 0.42754 0.0
N46 N 0.01345 0.10156 0.4305 0.0
O47 O 0.96484 0.02642 0.4594 0.0
H48 H 0.9441 0.12421 0.43606 0.0
H49 H 1.00688 0.05359 0.42627 0.0
O50 O 0.94502 0.03355 0.38763 0.0
C51 C 0.96783 0.03592 0.49149 0.0
O52 O 0.9518 0.05945 0.50152 0.0
N53 N 0.90694 0.07867 0.41714 0.0
C54 C 0.87332 0.13076 0.40477 0.0
C55 C 0.88338 0.11292 0.37611 0.0
C56 C 0.89975 0.08642 0.38289 0.0
C57 C 0.89407 0.09368 0.44504 0.0
C58 C 0.8772 0.11981 0.43951 0.0
H59 H 0.90748 0.07336 0.36053 0.0
H60 H 0.89953 0.08708 0.47206 0.0
H61 H 0.8988 0.99798 0.39617 0.0
H62 H 0.85616 0.99299 0.49654 0.0
H63 H 0.99848 0.14777 0.43666 0.0
H64 H 0.87994 0.12017 0.34879 0.0
H65 H 0.86986 0.13277 0.46246 0.0
C66 C 0.24935 0.64197 0.72608 0.0
C67 C 0.27185 0.62072 0.72495 0.0
N68 N 0.28437 0.62108 0.69214 0.0
N69 N 0.2473 0.65581 0.69417 0.0
C70 C 0.26892 0.64265 0.67393 0.0
H71 H 0.23504 0.64675 0.74876 0.0
Co72 Co 0.21888 0.68596 0.68569 0.0
C73 C 0.22674 0.70649 0.60903 0.0
O74 O 0.19843 0.71539 0.6081 0.0
N75 N 0.18976 0.71673 0.67935 0.0
C76 C 0.14702 0.74304 0.68346 0.0
C77 C 0.15941 0.7146 0.6827 0.0
C78 C 0.19511 0.74687 0.6778 0.0
N79 N 0.16954 0.76331 0.68071 0.0
O80 O 0.2446 0.71455 0.70963 0.0
H81 H 0.1468 0.69397 0.68614 0.0
H82 H 0.2175 0.75667 0.67658 0.0
O83 O 0.23746 0.69481 0.63785 0.0
C84 C 0.23514 0.71751 0.74174 0.0
O85 O 0.21162 0.70146 0.75177 0.0
N86 N 0.19229 0.65675 0.6673 0.0
C87 C 0.14023 0.62313 0.65483 0.0
C88 C 0.15812 0.63316 0.62621 0.0
C89 C 0.18461 0.64953 0.63304 0.0
C90 C 0.17723 0.64391 0.69518 0.0
C91 C 0.15111 0.62705 0.6896 0.0
H92 H 0.19772 0.65722 0.61071 0.0
H93 H 0.18378 0.6494 0.7222 0.0
H94 H 0.27319 0.6488 0.64646 0.0
H95 H 0.27783 0.60566 0.74656 0.0
H96 H 0.12331 0.74839 0.68675 0.0
H97 H 0.15092 0.62969 0.59888 0.0
H98 H 0.13811 0.61974 0.71252 0.0
C99 C 0.62872 0.99943 0.97605 0.0
C100 C 0.65 0.0219 0.97495 0.0
N101 N 0.64974 0.03439 0.94212 0.0
N102 N 0.61495 0.99737 0.9441 0.0
C103 C 0.62819 0.01895 0.92386 0.0
H104 H 0.62388 0.98514 0.99873 0.0
Co105 Co 0.58483 0.96894 0.93555 0.0
C106 C 0.56443 0.97675 0.85885 0.0
O107 O 0.55558 0.94842 0.85792 0.0
N108 N 0.55408 0.93981 0.92915 0.0
C109 C 0.5278 0.89704 0.93313 0.0
C110 C 0.55623 0.90944 0.9324 0.0
C111 C 0.52394 0.94514 0.92759 0.0
N112 N 0.50752 0.91956 0.93044 0.0
O113 O 0.55621 0.99466 0.95942 0.0
H114 H 0.57686 0.89682 0.9358 0.0
H115 H 0.51413 0.96753 0.92643 0.0
O116 O 0.57604 0.98751 0.88768 0.0
C117 C 0.5532 0.98519 0.99153 0.0
O118 O 0.56922 0.96166 1.00159 0.0
N119 N 0.61408 0.94236 0.91723 0.0
C120 C 0.64779 0.89034 0.90482 0.0
C121 C 0.63782 0.90827 0.87618 0.0
C122 C 0.62141 0.93473 0.88299 0.0
C123 C 0.62685 0.92727 0.94514 0.0
C124 C 0.64375 0.90117 0.93959 0.0
H125 H 0.61378 0.94788 0.86065 0.0
H126 H 0.62128 0.93379 0.97215 0.0
H127 H 0.62212 0.02318 0.89636 0.0
H128 H 0.66502 0.02787 0.9966 0.0
H129 H 0.52246 0.87331 0.93636 0.0
H130 H 0.64139 0.90112 0.84885 0.0
H131 H 0.65101 0.88814 0.96252 0.0
C132 C 0.27133 0.64203 0.35784 0.0
C133 C 0.24884 0.62077 0.35894 0.0
N134 N 0.23638 0.62102 0.39178 0.0
N135 N 0.27344 0.65577 0.3898 0.0
C136 C 0.25186 0.64254 0.41005 0.0
H137 H 0.28559 0.64687 0.33515 0.0
Co138 Co 0.30189 0.68589 0.39831 0.0
C139 C 0.29404 0.70643 0.47498 0.0
O140 O 0.32233 0.71538 0.47589 0.0
N141 N 0.33104 0.71662 0.40465 0.0
C142 C 0.37381 0.74286 0.40047 0.0
C143 C 0.36139 0.71445 0.40127 0.0
C144 C 0.32574 0.74677 0.40621 0.0
N145 N 0.35132 0.76317 0.40324 0.0
O146 O 0.27619 0.71451 0.37442 0.0
H147 H 0.37397 0.6938 0.3978 0.0
H148 H 0.30336 0.75661 0.40744 0.0
O149 O 0.28333 0.69472 0.44617 0.0
C150 C 0.28564 0.71751 0.3423 0.0
O151 O 0.30915 0.70147 0.33223 0.0
N152 N 0.32847 0.65664 0.41666 0.0
C153 C 0.38062 0.62313 0.42904 0.0
C154 C 0.36278 0.63319 0.4577 0.0
C155 C 0.33626 0.6495 0.45092 0.0
C156 C 0.34347 0.64375 0.38877 0.0
C157 C 0.36964 0.62694 0.3943 0.0
H158 H 0.3232 0.65725 0.47328 0.0
H159 H 0.33686 0.64919 0.36176 0.0
H160 H 0.24765 0.6486 0.43756 0.0
H161 H 0.24282 0.60578 0.33728 0.0
H162 H 0.39753 0.74819 0.39713 0.0
H163 H 0.37006 0.6298 0.48502 0.0
H164 H 0.38259 0.61961 0.37136 0.0
C165 C 0.62893 0.02113 0.60761 0.0
C166 C 0.65021 0.99866 0.60874 0.0
N167 N 0.65007 0.98632 0.64164 0.0
N168 N 0.61527 0.02333 0.63961 0.0
C169 C 0.62859 1.00183 0.65992 0.0
H170 H 0.62402 0.03533 0.58488 0.0
Co171 Co 0.58519 0.05182 0.6481 0.0
C172 C 0.56459 0.04399 0.72474 0.0
O173 O 0.5557 0.07231 0.72563 0.0
N174 N 0.55451 0.08102 0.65441 0.0
C175 C 0.5283 0.12382 0.65015 0.0
C176 C 0.55671 0.11136 0.65094 0.0
C177 C 0.52436 0.07574 0.65601 0.0
N178 N 0.50799 0.10134 0.653 0.0
O179 O 0.55655 0.02617 0.62416 0.0
H180 H 0.57736 0.12391 0.64741 0.0
H181 H 0.51451 0.05338 0.6573 0.0
O182 O 0.57631 0.03325 0.69594 0.0
C183 C 0.55355 0.03566 0.59206 0.0
O184 O 0.5696 0.05918 0.58203 0.0
N185 N 0.61446 0.07835 0.66649 0.0
C186 C 0.64799 0.13048 0.67893 0.0
C187 C 0.6379 0.11263 0.70758 0.0
C188 C 0.62158 0.08611 0.70076 0.0
C189 C 0.62739 0.09335 0.63862 0.0
C190 C 0.64421 0.1195 0.64419 0.0
H191 H 0.61381 0.07305 0.7231 0.0
H192 H 0.62198 0.08673 0.6116 0.0
H193 H 0.62262 0.99772 0.68748 0.0
H194 H 0.66516 0.9926 0.58706 0.0
H195 H 0.523 0.14753 0.64676 0.0
H196 H 0.64128 0.1199 0.7349 0.0
H197 H 0.65157 0.13246 0.62125 0.0
C198 C 0.24984 0.37957 0.85755 0.0
C199 C 0.27233 0.40082 0.85868 0.0
N200 N 0.28483 0.40049 0.8915 0.0
N201 N 0.24778 0.36575 0.88946 0.0
C202 C 0.26939 0.37893 0.90972 0.0
H203 H 0.23554 0.37478 0.83486 0.0
Co204 Co 0.21934 0.33561 0.8979 0.0
C205 C 0.22709 0.31508 0.97458 0.0
O206 O 0.19876 0.30625 0.97545 0.0
N207 N 0.1902 0.30487 0.90417 0.0
C208 C 0.14748 0.27856 0.89978 0.0
C209 C 0.15987 0.307 0.90059 0.0
C210 C 0.19554 0.27473 0.90582 0.0
N211 N 0.16999 0.2583 0.90274 0.0
O212 O 0.24506 0.30701 0.87401 0.0
H213 H 0.14727 0.32762 0.89699 0.0
H214 H 0.21793 0.26493 0.90721 0.0
O215 O 0.23787 0.32674 0.94578 0.0
C216 C 0.23563 0.30403 0.84188 0.0
O217 O 0.21214 0.3201 0.83179 0.0
N218 N 0.19275 0.36485 0.91626 0.0
C219 C 0.14062 0.39835 0.92871 0.0
C220 C 0.15855 0.38838 0.95734 0.0
C221 C 0.18507 0.37207 0.95051 0.0
C222 C 0.17768 0.37768 0.88838 0.0
C223 C 0.15152 0.39448 0.89395 0.0
H224 H 0.19821 0.36442 0.97285 0.0
H225 H 0.18424 0.3722 0.86136 0.0
H226 H 0.27364 0.37279 0.9372 0.0
H227 H 0.27831 0.41588 0.83707 0.0
H228 H 0.12379 0.2732 0.89631 0.0
H229 H 0.15135 0.39184 0.98467 0.0
H230 H 0.1385 0.40176 0.87102 0.0
C231 C 0.89213 0.99995 0.10754 0.0
C232 C 0.87084 0.02241 0.10869 0.0
N233 N 0.87107 0.03481 0.14156 0.0
N234 N 0.90587 0.99782 0.1395 0.0
C235 C 0.8926 0.01934 0.1598 0.0
H236 H 0.89699 0.98571 0.08483 0.0
Co237 Co 0.93598 0.96936 0.14798 0.0
C238 C 0.95648 0.9771 0.22466 0.0
O239 O 0.96529 0.94876 0.22554 0.0
N240 N 0.96671 0.94021 0.15428 0.0
C241 C 0.99301 0.89748 0.15 0.0
C242 C 0.96458 0.90987 0.15074 0.0
C243 C 0.99684 0.94555 0.15597 0.0
N244 N 0.01327 0.91999 0.15295 0.0
O245 O 0.9646 0.99508 0.12409 0.0
H246 H 0.94396 0.89727 0.14714 0.0
H247 H 1.00664 0.96793 0.15735 0.0
O248 O 0.94484 0.9879 0.19585 0.0
C249 C 0.96761 0.98563 0.09198 0.0
O250 O 0.95157 0.96212 0.08188 0.0
N251 N 0.90674 0.94278 0.16631 0.0
C252 C 0.87315 0.8907 0.17873 0.0
C253 C 0.88314 0.90861 0.20737 0.0
C254 C 0.89949 0.93511 0.20056 0.0
C255 C 0.89392 0.92773 0.13842 0.0
C256 C 0.87707 0.90159 0.14397 0.0
H257 H 0.90714 0.94824 0.2229 0.0
H258 H 0.89941 0.93429 0.1114 0.0
H259 H 0.89864 0.02351 0.18732 0.0
H260 H 0.85583 0.02842 0.08704 0.0
H261 H 0.99837 0.87378 0.14657 0.0
H262 H 0.87965 0.90141 0.2347 0.0
H263 H 0.86979 0.88858 0.12104 0.0
C264 C 0.75024 0.64232 0.85752 0.0
C265 C 0.77271 0.62104 0.85868 0.0
N266 N 0.78498 0.62115 0.89162 0.0
N267 N 0.74798 0.65595 0.88953 0.0
C268 C 0.76943 0.64262 0.90988 0.0
H269 H 0.73608 0.64723 0.83475 0.0
Co270 Co 0.71946 0.686 0.89798 0.0
C271 C 0.72717 0.70657 0.97464 0.0
O272 O 0.69882 0.71536 0.9755 0.0
N273 N 0.69024 0.71667 0.90426 0.0
C274 C 0.64744 0.74285 0.89992 0.0
C275 C 0.65991 0.71445 0.90071 0.0
C276 C 0.69549 0.74683 0.90591 0.0
N277 N 0.66989 0.76318 0.90286 0.0
O278 O 0.74511 0.71468 0.87407 0.0
H279 H 0.64738 0.69379 0.89711 0.0
H280 H 0.71785 0.75669 0.90728 0.0
O281 O 0.73798 0.69492 0.94584 0.0
C282 C 0.73563 0.71767 0.84197 0.0
O283 O 0.71212 0.70162 0.83191 0.0
N284 N 0.69296 0.6567 0.91633 0.0
C285 C 0.64087 0.62312 0.92874 0.0
C286 C 0.65874 0.63317 0.95739 0.0
C287 C 0.68523 0.64952 0.95059 0.0
C288 C 0.67796 0.6438 0.88844 0.0
C289 C 0.65182 0.62696 0.89399 0.0
H290 H 0.69832 0.65723 0.97293 0.0
H291 H 0.68456 0.64924 0.86143 0.0
H292 H 0.77349 0.64855 0.93746 0.0
H293 H 0.77881 0.6061 0.837 0.0
H294 H 0.62373 0.74815 0.89647 0.0
H295 H 0.65149 0.62974 0.98471 0.0
H296 H 0.63885 0.61961 0.87105 0.0
C297 C 0.12925 0.99992 0.60774 0.0
C298 C 0.15052 0.0224 0.60886 0.0
N299 N 0.15029 0.03484 0.64171 0.0
N300 N 0.11551 0.99781 0.6397 0.0
C301 C 0.12876 0.01937 0.65997 0.0
H302 H 0.1244 0.98566 0.58504 0.0
Co303 Co 0.08537 0.96938 0.64819 0.0
C304 C 0.06474 0.97734 0.72482 0.0
O305 O 0.05571 0.94906 0.72573 0.0
N306 N 0.05462 0.94026 0.6545 0.0
C307 C 0.02836 0.8975 0.65023 0.0
C308 C 0.05678 0.9099 0.65107 0.0
C309 C 0.02448 0.94558 0.65603 0.0
N310 N 1.00808 0.92 0.65302 0.0
O311 O 0.05679 0.99509 0.62422 0.0
H312 H 0.07742 0.89732 0.64759 0.0
H313 H 0.01466 0.96796 0.65728 0.0
O314 O 0.07652 0.988 0.69602 0.0
C315 C 0.05381 0.9856 0.59212 0.0
O316 O 0.06984 0.96206 0.5821 0.0
N317 N 0.11458 0.94279 0.66661 0.0
C318 C 0.14801 0.8906 0.67908 0.0
C319 C 0.13789 0.90844 0.70772 0.0
C320 C 0.12162 0.93498 0.70089 0.0
C321 C 0.12751 0.92778 0.63876 0.0
C322 C 0.14428 0.9016 0.64434 0.0
H323 H 0.11383 0.94803 0.72323 0.0
H324 H 0.12214 0.93441 0.61173 0.0
H325 H 0.12271 0.02359 0.68747 0.0
H326 H 0.16552 0.0284 0.5872 0.0
H327 H 0.02303 0.87379 0.64686 0.0
H328 H 0.14121 0.90115 0.73504 0.0
H329 H 0.15166 0.88864 0.62141 0.0
C330 C 0.77104 0.37884 0.35768 0.0
C331 C 0.74857 0.40012 0.35881 0.0
N332 N 0.73629 0.40003 0.39174 0.0
N333 N 0.77329 0.36523 0.38971 0.0
C334 C 0.75184 0.37858 0.41003 0.0
H335 H 0.7852 0.3739 0.33492 0.0
Co336 Co 0.8018 0.33516 0.39822 0.0
C337 C 0.79394 0.31456 0.47487 0.0
O338 O 0.82223 0.30559 0.47577 0.0
N339 N 0.83099 0.30447 0.40455 0.0
C340 C 0.87381 0.2783 0.40034 0.0
C341 C 0.86133 0.3067 0.40113 0.0
C342 C 0.82574 0.27431 0.40612 0.0
N343 N 0.85135 0.25796 0.40315 0.0
O344 O 0.77614 0.30649 0.3743 0.0
H345 H 0.87387 0.32737 0.39763 0.0
H346 H 0.80338 0.26445 0.40738 0.0
O347 O 0.78324 0.3263 0.44607 0.0
C348 C 0.78563 0.30348 0.3422 0.0
O349 O 0.80915 0.31952 0.33216 0.0
N350 N 0.82832 0.36444 0.41657 0.0
C351 C 0.88047 0.39796 0.42892 0.0
C352 C 0.86269 0.38782 0.4576 0.0
C353 C 0.83617 0.3715 0.45083 0.0
C354 C 0.84326 0.3774 0.38868 0.0
C355 C 0.86942 0.39422 0.3942 0.0
H356 H 0.82318 0.36369 0.4732 0.0
H357 H 0.83659 0.37202 0.36167 0.0
H358 H 0.74777 0.37265 0.43761 0.0
H359 H 0.74247 0.41504 0.33711 0.0
H360 H 0.89753 0.27301 0.39698 0.0
H361 H 0.87002 0.39116 0.4849 0.0
H362 H 0.88233 0.40162 0.37124 0.0
C363 C 0.39182 0.0215 0.10771 0.0
C364 C 0.37055 0.99902 0.10886 0.0
N365 N 0.37085 0.98657 0.14171 0.0
N366 N 0.40561 0.0236 0.13964 0.0
C367 C 0.3924 1.00204 0.15993 0.0
H368 H 0.39663 0.03576 0.085 0.0
Co369 Co 0.43575 0.05204 0.14809 0.0
C370 C 0.4563 0.04423 0.22475 0.0
O371 O 0.46519 0.07255 0.22565 0.0
N372 N 0.4665 0.08117 0.15439 0.0
C373 C 0.49278 0.12392 0.15016 0.0
C374 C 0.46436 0.11153 0.15094 0.0
C375 C 0.49664 0.07584 0.15598 0.0
N376 N 0.51305 0.10141 0.15299 0.0
O377 O 0.46433 0.02631 0.12418 0.0
H378 H 0.44373 0.12413 0.14743 0.0
H379 H 0.50644 0.05345 0.15727 0.0
O380 O 0.44461 0.03349 0.19595 0.0
C381 C 0.4673 0.03575 0.09206 0.0
O382 O 0.45127 0.05927 0.08199 0.0
N383 N 0.40653 0.07864 0.16645 0.0
C384 C 0.373 0.13077 0.17886 0.0
C385 C 0.38303 0.1129 0.20751 0.0
C386 C 0.39935 0.08638 0.20071 0.0
C387 C 0.39367 0.09368 0.13856 0.0
C388 C 0.37685 0.11984 0.14411 0.0
H389 H 0.40705 0.07328 0.22306 0.0
H390 H 0.39913 0.08709 0.11155 0.0
H391 H 0.39851 0.99783 0.18742 0.0
H392 H 0.35552 0.99301 0.08724 0.0
H393 H 0.49813 0.14763 0.14679 0.0
H394 H 0.3796 0.12013 0.23483 0.0
H395 H 0.36954 0.13282 0.12118 0.0
C396 C 0.74944 0.37897 0.72613 0.0
C397 C 0.77192 0.40024 0.72501 0.0
N398 N 0.7844 0.39995 0.69218 0.0
N399 N 0.74737 0.36518 0.69419 0.0
C400 C 0.76895 0.3784 0.67394 0.0
H401 H 0.73516 0.37415 0.74881 0.0
Co402 Co 0.71893 0.33506 0.68567 0.0
C403 C 0.72671 0.31462 0.60898 0.0
O404 O 0.69838 0.3058 0.60806 0.0
N405 N 0.68979 0.30432 0.6793 0.0
C406 C 0.64705 0.27803 0.68341 0.0
C407 C 0.65944 0.30646 0.68267 0.0
C408 C 0.69513 0.27418 0.67769 0.0
N409 N 0.66956 0.25775 0.68061 0.0
O410 O 0.74464 0.30643 0.70956 0.0
H411 H 0.64683 0.32709 0.68616 0.0
H412 H 0.71751 0.26437 0.67645 0.0
O413 O 0.73749 0.32624 0.63781 0.0
C414 C 0.73517 0.30343 0.74167 0.0
O415 O 0.71168 0.31948 0.75174 0.0
N416 N 0.69236 0.36432 0.66733 0.0
C417 C 0.64033 0.39799 0.65489 0.0
C418 C 0.65825 0.38801 0.62626 0.0
C419 C 0.68472 0.37162 0.63308 0.0
C420 C 0.67728 0.37711 0.69523 0.0
C421 C 0.65117 0.39399 0.68966 0.0
H422 H 0.69787 0.36399 0.61075 0.0
H423 H 0.68381 0.37156 0.72224 0.0
H424 H 0.77319 0.37231 0.64645 0.0
H425 H 0.7779 0.41527 0.74665 0.0
H426 H 0.62334 0.27268 0.68672 0.0
H427 H 0.65109 0.39156 0.59893 0.0
H428 H 0.63815 0.40126 0.71259 0.0
C429 C 0.39199 0.99965 0.47595 0.0
C430 C 0.37074 0.02214 0.47482 0.0
N431 N 0.37103 0.03462 0.44199 0.0
N432 N 0.40577 0.99756 0.44401 0.0
C433 C 0.39257 0.01915 0.42375 0.0
H434 H 0.39681 0.98537 0.49864 0.0
Co435 Co 0.43591 0.96912 0.43552 0.0
C436 C 0.45641 0.97696 0.35884 0.0
O437 O 0.46535 0.94866 0.35794 0.0
N438 N 0.46666 0.93999 0.42918 0.0
C439 C 0.49296 0.89724 0.43337 0.0
C440 C 0.46453 0.90963 0.4326 0.0
C441 C 0.4968 0.94533 0.42759 0.0
N442 N 0.51322 0.91976 0.43056 0.0
O443 O 0.46451 0.99484 0.45942 0.0
H444 H 0.4439 0.89703 0.4361 0.0
H445 H 0.50659 0.96772 0.42632 0.0
O446 O 0.44472 0.98769 0.38766 0.0
C447 C 0.46749 0.98537 0.49153 0.0
O448 O 0.45144 0.96186 0.50157 0.0
N449 N 0.40668 0.94252 0.41717 0.0
C450 C 0.37312 0.89039 0.4048 0.0
C451 C 0.38317 0.90824 0.37613 0.0
C452 C 0.39951 0.93476 0.38292 0.0
C453 C 0.39383 0.9275 0.44507 0.0
C454 C 0.377 0.90135 0.43954 0.0
H455 H 0.40722 0.94783 0.36056 0.0
H456 H 0.3993 0.9341 0.47208 0.0
H457 H 0.39866 0.02339 0.39626 0.0
H458 H 0.35572 0.02815 0.49646 0.0
H459 H 0.49831 0.87353 0.43672 0.0
H460 H 0.37973 0.90099 0.34882 0.0
H461 H 0.36968 0.88838 0.46249 0.0
C462 C 0.77147 0.64232 0.22595 0.0
C463 C 0.74899 0.62105 0.22483 0.0
N464 N 0.73654 0.6213 0.19198 0.0
N465 N 0.77357 0.65606 0.19399 0.0
C466 C 0.75201 0.64282 0.17372 0.0
H467 H 0.78573 0.64716 0.24865 0.0
Co468 Co 0.80203 0.68618 0.18552 0.0
C469 C 0.79425 0.70673 0.10886 0.0
O470 O 0.82257 0.71563 0.108 0.0
N471 N 0.83118 0.7169 0.17922 0.0
C472 C 0.87393 0.74318 0.1835 0.0
C473 C 0.86153 0.71475 0.18272 0.0
C474 C 0.82586 0.74705 0.1776 0.0
N475 N 0.85143 0.76346 0.18061 0.0
O476 O 0.77633 0.7148 0.20942 0.0
H477 H 0.87411 0.69411 0.18627 0.0
H478 H 0.80348 0.75686 0.17627 0.0
O479 O 0.78349 0.69503 0.13765 0.0
C480 C 0.78579 0.71779 0.24153 0.0
O481 O 0.8093 0.70174 0.2516 0.0
N482 N 0.82859 0.65693 0.16716 0.0
C483 C 0.88064 0.62329 0.15471 0.0
C484 C 0.86275 0.63333 0.12608 0.0
C485 C 0.83628 0.64971 0.1329 0.0
C486 C 0.84363 0.64406 0.19504 0.0
C487 C 0.86975 0.62719 0.18947 0.0
H488 H 0.82317 0.65742 0.11057 0.0
H489 H 0.83708 0.64954 0.22206 0.0
H490 H 0.74781 0.64888 0.14621 0.0
H491 H 0.74299 0.60604 0.24648 0.0
H492 H 0.89763 0.74852 0.1869 0.0
H493 H 0.86995 0.62987 0.09875 0.0
H494 H 0.88274 0.61986 0.2124 0.0
C495 C 0.12937 0.02223 0.97599 0.0
C496 C 0.15061 0.99972 0.97493 0.0
N497 N 0.15013 0.987 0.94222 0.0
N498 N 0.11541 0.02409 0.94414 0.0
C499 C 0.12849 1.00234 0.924 0.0
H500 H 0.12467 0.03667 0.99858 0.0
Co501 Co 0.08521 0.05245 0.9356 0.0
C502 C 0.06488 0.04466 0.85888 0.0
O503 O 0.0561 0.07301 0.85794 0.0
N504 N 0.05439 0.08151 0.92921 0.0
C505 C 0.02798 0.1242 0.93325 0.0
C506 C 0.05644 0.11188 0.93253 0.0
C507 C 0.02427 0.07609 0.9276 0.0
N508 N 1.00777 0.10162 0.93049 0.0
O509 O 0.05666 0.02667 0.95946 0.0
H510 H 0.07703 0.12456 0.93598 0.0
H511 H 0.01453 0.05368 0.92638 0.0
O512 O 0.07645 0.03387 0.88773 0.0
C513 C 0.05367 0.03609 0.99159 0.0
O514 O 0.0697 0.0596 1.00168 0.0
N515 N 0.1144 0.0791 0.91729 0.0
C516 C 0.14809 0.13112 0.90483 0.0
C517 C 0.13823 0.11311 0.87621 0.0
C518 C 0.12184 0.08664 0.88305 0.0
C519 C 0.12707 0.09428 0.94519 0.0
C520 C 0.14396 0.12039 0.93962 0.0
H521 H 0.11432 0.07341 0.86072 0.0
H522 H 0.12143 0.08783 0.9722 0.0
H523 H 0.12222 0.9979 0.89661 0.0
H524 H 0.16575 0.99388 0.99651 0.0
H525 H 0.02256 0.1479 0.93653 0.0
H526 H 0.14188 0.1202 0.84887 0.0
H527 H 0.15113 0.13348 0.96253 0.0
C528 C 0.77183 0.8792 0.72587 0.0
C529 C 0.74933 0.90045 0.72479 0.0
N530 N 0.73678 0.90012 0.69199 0.0
N531 N 0.77385 0.86538 0.69395 0.0
C532 C 0.75221 0.87856 0.67374 0.0
H533 H 0.78616 0.87441 0.74853 0.0
Co534 Co 0.80227 0.83524 0.68541 0.0
C535 C 0.79441 0.81479 0.60873 0.0
O536 O 0.82272 0.8059 0.6078 0.0
N537 N 0.83139 0.80448 0.67903 0.0
C538 C 0.87415 0.77818 0.68307 0.0
C539 C 0.86175 0.80662 0.68231 0.0
C540 C 0.82605 0.77433 0.67749 0.0
N541 N 0.85163 0.75791 0.68037 0.0
O542 O 0.77656 0.80664 0.70931 0.0
H543 H 0.87436 0.82725 0.68572 0.0
H544 H 0.80366 0.76453 0.67632 0.0
O545 O 0.78368 0.82644 0.63756 0.0
C546 C 0.78603 0.80365 0.74142 0.0
O547 O 0.80954 0.81969 0.75147 0.0
N548 N 0.82885 0.86448 0.66707 0.0
C549 C 0.8809 0.89813 0.65467 0.0
C550 C 0.86301 0.88813 0.62602 0.0
C551 C 0.83653 0.87174 0.63282 0.0
C552 C 0.84392 0.87728 0.69497 0.0
C553 C 0.87003 0.89416 0.68942 0.0
H554 H 0.82341 0.86407 0.61048 0.0
H555 H 0.83738 0.87175 0.72198 0.0
H556 H 0.74791 0.87243 0.64627 0.0
H557 H 0.74337 0.91549 0.74642 0.0
H558 H 0.89786 0.77283 0.68632 0.0
H559 H 0.8702 0.89163 0.5987 0.0
H560 H 0.88304 0.90145 0.71236 0.0
C561 C 0.39245 0.52167 0.97595 0.0
C562 C 0.37117 0.4992 0.97482 0.0
N563 N 0.37138 0.48679 0.94195 0.0
N564 N 0.40617 0.5238 0.94398 0.0
C565 C 0.3929 0.50227 0.9237 0.0
H566 H 0.39733 0.5359 0.99867 0.0
Co567 Co 0.4363 0.55223 0.93548 0.0
C568 C 0.45677 0.5444 0.8588 0.0
O569 O 0.4657 0.57271 0.85789 0.0
N570 N 0.46705 0.58136 0.92913 0.0
C571 C 0.49335 0.6241 0.9333 0.0
C572 C 0.46492 0.61171 0.93255 0.0
C573 C 0.49719 0.57601 0.92751 0.0
N574 N 0.51362 0.60157 0.93046 0.0
O575 O 0.46491 0.5265 0.95937 0.0
H576 H 0.4443 0.62432 0.93607 0.0
H577 H 0.50698 0.55362 0.92624 0.0
O578 O 0.4451 0.53367 0.88761 0.0
C579 C 0.46791 0.53598 0.99147 0.0
O580 O 0.45189 0.55952 1.00151 0.0
N581 N 0.40707 0.57883 0.91715 0.0
C582 C 0.37344 0.63091 0.90481 0.0
C583 C 0.38348 0.61307 0.87614 0.0
C584 C 0.39986 0.58658 0.88291 0.0
C585 C 0.39423 0.59385 0.94506 0.0
C586 C 0.37736 0.61997 0.93955 0.0
H587 H 0.40757 0.57351 0.86054 0.0
H588 H 0.39972 0.58725 0.97207 0.0
H589 H 0.39893 0.49809 0.89618 0.0
H590 H 0.35619 0.49318 0.99648 0.0
H591 H 0.49871 0.64781 0.93665 0.0
H592 H 0.38001 0.62032 0.84883 0.0
H593 H 0.37004 0.63293 0.9625 0.0
C594 C 0.74945 0.14193 0.22599 0.0
C595 C 0.77195 0.12068 0.22485 0.0
N596 N 0.78445 0.12103 0.19204 0.0
N597 N 0.74739 0.15577 0.19408 0.0
C598 C 0.769 0.1426 0.17382 0.0
H599 H 0.73515 0.14671 0.24867 0.0
Co600 Co 0.71897 0.18592 0.1856 0.0
C601 C 0.72678 0.20643 0.10893 0.0
O602 O 0.69848 0.21534 0.10803 0.0
N603 N 0.68986 0.21669 0.17929 0.0
C604 C 0.64713 0.24301 0.18349 0.0
C605 C 0.65951 0.21457 0.1827 0.0
C606 C 0.69521 0.24683 0.17772 0.0
N607 N 0.66966 0.26327 0.18069 0.0
O608 O 0.74471 0.2145 0.20952 0.0
H609 H 0.64689 0.19395 0.18619 0.0
H610 H 0.7176 0.25662 0.17645 0.0
O611 O 0.73753 0.19475 0.13774 0.0
C612 C 0.73526 0.21747 0.24164 0.0
O613 O 0.71175 0.20142 0.25169 0.0
N614 N 0.69237 0.1567 0.16724 0.0
C615 C 0.64027 0.12314 0.1548 0.0
C616 C 0.65816 0.13315 0.12617 0.0
C617 C 0.68467 0.14949 0.13299 0.0
C618 C 0.67731 0.14388 0.19513 0.0
C619 C 0.65117 0.12704 0.18957 0.0
H620 H 0.69778 0.15716 0.11065 0.0
H621 H 0.68387 0.14936 0.22215 0.0
H622 H 0.77327 0.14874 0.14636 0.0
H623 H 0.77793 0.10562 0.24646 0.0
H624 H 0.62343 0.24838 0.18685 0.0
H625 H 0.65095 0.12968 0.09884 0.0
H626 H 0.63816 0.11974 0.21249 0.0
C627 C 0.12873 0.49976 0.47601 0.0
C628 C 0.15001 0.52224 0.47492 0.0
N629 N 0.14982 0.53466 0.44206 0.0
N630 N 0.11504 0.49764 0.44402 0.0
C631 C 0.12832 0.51918 0.42377 0.0
H632 H 0.12385 0.48551 0.4987 0.0
Co633 Co 0.08495 0.46917 0.43545 0.0
C634 C 0.06448 0.47702 0.35877 0.0
O635 O 0.05561 0.44869 0.35785 0.0
N636 N 0.05424 0.44 0.42905 0.0
C637 C 0.02803 0.39719 0.43309 0.0
C638 C 0.05643 0.40963 0.43235 0.0
C639 C 0.02409 0.44529 0.42749 0.0
N640 N 1.00772 0.41968 0.43037 0.0
O641 O 0.0563 0.49483 0.45937 0.0
H642 H 0.07709 0.39706 0.43579 0.0
H643 H 0.01425 0.46766 0.4263 0.0
O644 O 0.07613 0.48776 0.3876 0.0
C645 C 0.0533 0.48531 0.49146 0.0
O646 O 0.06935 0.46179 0.50147 0.0
N647 N 0.11423 0.44263 0.41711 0.0
C648 C 0.1479 0.39059 0.4047 0.0
C649 C 0.13786 0.40846 0.37605 0.0
C650 C 0.12147 0.43494 0.38286 0.0
C651 C 0.12708 0.4276 0.44501 0.0
C652 C 0.14396 0.40148 0.43946 0.0
H653 H 0.11376 0.44804 0.36051 0.0
H654 H 0.12157 0.43416 0.47202 0.0
H655 H 0.12231 0.52337 0.39624 0.0
H656 H 0.16497 0.52825 0.49661 0.0
H657 H 0.02272 0.37346 0.43636 0.0
H658 H 0.14134 0.40125 0.34873 0.0
H659 H 0.15128 0.3885 0.46239 0.0
C660 C 0.77111 0.14178 0.85772 0.0
C661 C 0.74862 0.12053 0.85886 0.0
N662 N 0.7362 0.12079 0.89172 0.0
N663 N 0.77325 0.15553 0.88967 0.0
C664 C 0.7517 0.14231 0.90996 0.0
H665 H 0.78535 0.14662 0.835 0.0
Co666 Co 0.80172 0.18565 0.89812 0.0
C667 C 0.79395 0.20623 0.97478 0.0
O668 O 0.82226 0.21513 0.97565 0.0
N669 N 0.83088 0.21637 0.90439 0.0
C670 C 0.87363 0.24262 0.90001 0.0
C671 C 0.86122 0.2142 0.90083 0.0
C672 C 0.82558 0.24652 0.90601 0.0
N673 N 0.85115 0.26292 0.90294 0.0
O674 O 0.77601 0.21427 0.87421 0.0
H675 H 0.87379 0.19356 0.89724 0.0
H676 H 0.8032 0.25634 0.90738 0.0
O677 O 0.78319 0.19453 0.94599 0.0
C678 C 0.78546 0.21725 0.84209 0.0
O679 O 0.80895 0.20119 0.83202 0.0
N680 N 0.8283 0.1564 0.91647 0.0
C681 C 0.88047 0.12293 0.92888 0.0
C682 C 0.86262 0.13298 0.95753 0.0
C683 C 0.83608 0.14927 0.95073 0.0
C684 C 0.8433 0.1435 0.88859 0.0
C685 C 0.86948 0.12671 0.89414 0.0
H686 H 0.82301 0.157 0.97309 0.0
H687 H 0.83668 0.14891 0.86157 0.0
H688 H 0.74751 0.14837 0.93747 0.0
H689 H 0.74258 0.10553 0.83722 0.0
H690 H 0.89733 0.24795 0.89655 0.0
H691 H 0.86989 0.1296 0.98485 0.0
H692 H 0.88244 0.11938 0.87119 0.0
C693 C 0.12897 0.5215 0.10754 0.0
C694 C 0.15025 0.49903 0.10867 0.0
N695 N 0.15002 0.48659 0.14152 0.0
N696 N 0.11523 0.5236 0.1395 0.0
C697 C 0.12849 0.50205 0.15977 0.0
H698 H 0.12411 0.53576 0.08484 0.0
Co699 Co 0.08511 0.55205 0.14799 0.0
C700 C 0.06459 0.54425 0.22465 0.0
O701 O 0.05572 0.57258 0.22555 0.0
N702 N 0.05438 0.5812 0.15431 0.0
C703 C 0.02811 0.62396 0.15011 0.0
C704 C 0.05653 0.61155 0.15089 0.0
C705 C 0.02423 0.57588 0.15589 0.0
N706 N 1.00783 0.60146 0.15292 0.0
O707 O 0.05649 0.52634 0.12409 0.0
H708 H 0.07716 0.62415 0.14739 0.0
H709 H 0.01442 0.5535 0.15717 0.0
O710 O 0.07626 0.53349 0.19585 0.0
C711 C 0.05348 0.53578 0.09197 0.0
O712 O 0.0695 0.55929 0.08188 0.0
N713 N 0.11435 0.57862 0.16635 0.0
C714 C 0.1479 0.63073 0.17883 0.0
C715 C 0.1379 0.61281 0.20745 0.0
C716 C 0.12157 0.58631 0.20061 0.0
C717 C 0.12719 0.59369 0.13848 0.0
C718 C 0.14401 0.61984 0.14406 0.0
H719 H 0.11389 0.57317 0.22294 0.0
H720 H 0.12171 0.58713 0.11145 0.0
H721 H 0.12244 0.49785 0.18729 0.0
H722 H 0.16526 0.49303 0.08702 0.0
H723 H 0.02277 0.64768 0.14675 0.0
H724 H 0.14136 0.62001 0.23478 0.0
H725 H 0.15131 0.63286 0.12114 0.0
C726 C 0.74972 0.87941 0.35762 0.0
C727 C 0.77221 0.90067 0.35875 0.0
N728 N 0.7847 0.90036 0.39157 0.0
N729 N 0.74765 0.86561 0.38955 0.0
C730 C 0.76925 0.87881 0.40981 0.0
H731 H 0.73544 0.8746 0.33493 0.0
Co732 Co 0.71922 0.83547 0.39803 0.0
C733 C 0.72708 0.81489 0.47467 0.0
O734 O 0.69878 0.80596 0.47558 0.0
N735 N 0.69009 0.80472 0.40433 0.0
C736 C 0.64735 0.77843 0.40005 0.0
C737 C 0.65974 0.80686 0.40085 0.0
C738 C 0.69542 0.77457 0.40592 0.0
N739 N 0.66986 0.75815 0.40291 0.0
O740 O 0.74493 0.80688 0.3741 0.0
H741 H 0.64715 0.8275 0.39732 0.0
H742 H 0.71781 0.76476 0.40722 0.0
O743 O 0.73779 0.82661 0.44587 0.0
C744 C 0.73547 0.8039 0.34199 0.0
O745 O 0.71197 0.81995 0.33193 0.0
N746 N 0.69263 0.86469 0.41641 0.0
C747 C 0.64048 0.89818 0.42885 0.0
C748 C 0.65835 0.88813 0.45749 0.0
C749 C 0.68488 0.87182 0.45067 0.0
C750 C 0.67759 0.87757 0.38853 0.0
C751 C 0.65143 0.89437 0.3941 0.0
H752 H 0.69797 0.8641 0.47301 0.0
H753 H 0.68418 0.87215 0.36151 0.0
H754 H 0.7735 0.8727 0.43729 0.0
H755 H 0.7782 0.91569 0.33711 0.0
H756 H 0.62365 0.77308 0.39666 0.0
H757 H 0.6511 0.89152 0.48481 0.0
H758 H 0.63844 0.90171 0.37117 0.0
C759 C 0.39217 0.50013 0.60756 0.0
C760 C 0.37088 0.52259 0.60872 0.0
N761 N 0.37105 0.53493 0.64163 0.0
N762 N 0.40585 0.49793 0.63955 0.0
C763 C 0.39255 0.51941 0.65988 0.0
H764 H 0.39705 0.48593 0.58482 0.0
Co765 Co 0.43594 0.46943 0.64801 0.0
C766 C 0.45651 0.47719 0.72467 0.0
O767 O 0.46534 0.44886 0.72555 0.0
N768 N 0.46663 0.44024 0.6543 0.0
C769 C 0.49286 0.39746 0.65001 0.0
C770 C 0.46445 0.4099 0.65078 0.0
C771 C 0.49678 0.44553 0.65595 0.0
N772 N 0.51316 0.41994 0.65293 0.0
O773 O 0.46458 0.49511 0.6241 0.0
H774 H 0.4438 0.39734 0.64721 0.0
H775 H 0.50661 0.4679 0.6573 0.0
O776 O 0.44483 0.48797 0.69587 0.0
C777 C 0.46757 0.48564 0.592 0.0
O778 O 0.45152 0.46214 0.58193 0.0
N779 N 0.40667 0.44289 0.66637 0.0
C780 C 0.37311 0.39079 0.67878 0.0
C781 C 0.38316 0.40866 0.70743 0.0
C782 C 0.3995 0.43516 0.70062 0.0
C783 C 0.39378 0.42789 0.63848 0.0
C784 C 0.37695 0.40174 0.64403 0.0
H785 H 0.40721 0.44825 0.72297 0.0
H786 H 0.39922 0.43448 0.61146 0.0
H787 H 0.39854 0.52352 0.68743 0.0
H788 H 0.35591 0.52865 0.58706 0.0
H789 H 0.49817 0.37375 0.64659 0.0
H790 H 0.37974 0.40141 0.73475 0.0
H791 H 0.36961 0.38876 0.62109 0.0
C792 C 0.24994 0.14236 0.35753 0.0
C793 C 0.2724 0.12107 0.35866 0.0
N794 N 0.28478 0.12125 0.39155 0.0
N795 N 0.24778 0.15605 0.38952 0.0
C796 C 0.26929 0.14275 0.40982 0.0
H797 H 0.23572 0.14725 0.33481 0.0
Co798 Co 0.2193 0.18615 0.39802 0.0
C799 C 0.22714 0.20669 0.47469 0.0
O800 O 0.19883 0.2156 0.47559 0.0
N801 N 0.19013 0.21685 0.40436 0.0
C802 C 0.14735 0.24308 0.40015 0.0
C803 C 0.15979 0.21466 0.40093 0.0
C804 C 0.19542 0.24701 0.40595 0.0
N805 N 0.16983 0.26339 0.40297 0.0
O806 O 0.24497 0.21479 0.3741 0.0
H807 H 0.14722 0.19401 0.39742 0.0
H808 H 0.21779 0.25685 0.40722 0.0
O809 O 0.23788 0.195 0.44588 0.0
C810 C 0.23548 0.21779 0.342 0.0
O811 O 0.21197 0.20174 0.33196 0.0
N812 N 0.19277 0.15688 0.41639 0.0
C813 C 0.14067 0.1233 0.4288 0.0
C814 C 0.15853 0.13337 0.45745 0.0
C815 C 0.18503 0.14972 0.45065 0.0
C816 C 0.17776 0.14398 0.3885 0.0
C817 C 0.15162 0.12714 0.39405 0.0
H818 H 0.1981 0.15745 0.473 0.0
H819 H 0.18435 0.14943 0.36148 0.0
H820 H 0.27343 0.14875 0.43736 0.0
H821 H 0.27844 0.1061 0.33699 0.0
H822 H 0.12363 0.24839 0.39678 0.0
H823 H 0.15128 0.12995 0.48477 0.0
H824 H 0.13865 0.1198 0.37111 0.0
C825 C 0.62925 0.49974 0.10772 0.0
C826 C 0.6505 0.52224 0.10882 0.0
N827 N 0.6502 0.53475 0.14164 0.0
N828 N 0.61547 0.49768 0.13965 0.0
C829 C 0.62866 0.51929 0.15989 0.0
H830 H 0.62443 0.48545 0.08504 0.0
Co831 Co 0.58533 0.46925 0.14815 0.0
C832 C 0.56478 0.47713 0.2248 0.0
O833 O 0.55586 0.44882 0.22571 0.0
N834 N 0.55458 0.44012 0.15448 0.0
C835 C 0.52831 0.39736 0.15031 0.0
C836 C 0.55673 0.40976 0.1511 0.0
C837 C 0.52444 0.44545 0.15604 0.0
N838 N 0.50803 0.41987 0.15308 0.0
O839 O 0.55674 0.49496 0.12422 0.0
H840 H 0.57736 0.39716 0.14764 0.0
H841 H 0.51463 0.46784 0.15727 0.0
O842 O 0.57649 0.48784 0.19599 0.0
C843 C 0.55377 0.48549 0.09211 0.0
O844 O 0.56979 0.46195 0.08208 0.0
N845 N 0.61455 0.44266 0.16654 0.0
C846 C 0.64807 0.39053 0.179 0.0
C847 C 0.63803 0.40842 0.20763 0.0
C848 C 0.62172 0.43494 0.20081 0.0
C849 C 0.62741 0.42762 0.13867 0.0
C850 C 0.64423 0.40146 0.14424 0.0
H851 H 0.614 0.44804 0.22315 0.0
H852 H 0.62196 0.43419 0.11165 0.0
H853 H 0.62256 0.52355 0.18738 0.0
H854 H 0.66552 0.52822 0.08718 0.0
H855 H 0.52296 0.37365 0.14698 0.0
H856 H 0.64145 0.40118 0.23496 0.0
H857 H 0.65155 0.38847 0.12131 0.0
C858 C 0.27072 0.87876 0.85779 0.0
C859 C 0.24825 0.90004 0.85893 0.0
N860 N 0.23606 0.90003 0.89191 0.0
N861 N 0.27306 0.86523 0.88986 0.0
C862 C 0.25166 0.87863 0.91022 0.0
H863 H 0.28482 0.87377 0.835 0.0
Co864 Co 0.30161 0.8352 0.89835 0.0
C865 C 0.29378 0.81456 0.975 0.0
O866 O 0.32207 0.80556 0.97587 0.0
N867 N 0.33085 0.80456 0.90467 0.0
C868 C 0.37371 0.77845 0.90042 0.0
C869 C 0.36119 0.80683 0.90123 0.0
C870 C 0.32565 0.77439 0.90623 0.0
N871 N 0.35128 0.75808 0.90323 0.0
O872 O 0.27599 0.8065 0.87444 0.0
H873 H 0.37369 0.82752 0.89772 0.0
H874 H 0.30331 0.76449 0.9075 0.0
O875 O 0.28307 0.82631 0.94621 0.0
C876 C 0.28549 0.80349 0.84235 0.0
O877 O 0.30901 0.81953 0.83231 0.0
N878 N 0.32809 0.86452 0.91672 0.0
C879 C 0.38025 0.89802 0.92906 0.0
C880 C 0.36249 0.88785 0.95774 0.0
C881 C 0.33597 0.87153 0.95098 0.0
C882 C 0.34299 0.87753 0.88883 0.0
C883 C 0.36916 0.89434 0.89435 0.0
H884 H 0.323 0.86368 0.97335 0.0
H885 H 0.3363 0.87218 0.86181 0.0
H886 H 0.24768 0.87278 0.93784 0.0
H887 H 0.24209 0.9149 0.8372 0.0
H888 H 0.39743 0.77321 0.89703 0.0
H889 H 0.36985 0.89114 0.98504 0.0
H890 H 0.38204 0.90177 0.87139 0.0
C891 C 0.89195 0.52117 0.6077 0.0
C892 C 0.87068 0.4987 0.60885 0.0
N893 N 0.87088 0.48633 0.64174 0.0
N894 N 0.90566 0.52335 0.63968 0.0
C895 C 0.89238 0.50184 0.65999 0.0
H896 H 0.89683 0.53538 0.58497 0.0
Co897 Co 0.93578 0.55181 0.64816 0.0
C898 C 0.95642 0.54388 0.7248 0.0
O899 O 0.96547 0.57215 0.7257 0.0
N900 N 0.96651 0.58095 0.65447 0.0
C901 C 0.99275 0.62373 0.65021 0.0
C902 C 0.96433 0.6113 0.65102 0.0
C903 C 0.99666 0.57565 0.65603 0.0
N904 N 0.01305 0.60123 0.65303 0.0
O905 O 0.96438 0.52611 0.62421 0.0
H906 H 0.94369 0.62387 0.64751 0.0
H907 H 1.00649 0.55327 0.65731 0.0
O908 O 0.94464 0.53321 0.696 0.0
C909 C 0.96735 0.53561 0.59211 0.0
O910 O 0.95131 0.55914 0.5821 0.0
N911 N 0.90656 0.57839 0.66656 0.0
C912 C 0.87315 0.63061 0.67894 0.0
C913 C 0.88329 0.61281 0.70761 0.0
C914 C 0.89956 0.58625 0.70083 0.0
C915 C 0.8936 0.59335 0.63868 0.0
C916 C 0.87683 0.61954 0.64422 0.0
H917 H 0.90738 0.57325 0.72319 0.0
H918 H 0.89894 0.58668 0.61166 0.0
H919 H 0.8984 0.49769 0.68753 0.0
H920 H 0.85571 0.49264 0.58718 0.0
H921 H 0.99807 0.64744 0.64683 0.0
H922 H 0.88 0.62015 0.73492 0.0
H923 H 0.86943 0.63247 0.62127 0.0
C924 C 0.24959 0.87913 0.22627 0.0
C925 C 0.27207 0.9004 0.22511 0.0
N926 N 0.28451 0.90011 0.19226 0.0
N927 N 0.24748 0.86535 0.19434 0.0
C928 C 0.26904 0.87856 0.17404 0.0
H929 H 0.23533 0.87432 0.24897 0.0
Co930 Co 0.21901 0.83525 0.18587 0.0
C931 C 0.22668 0.81479 0.10918 0.0
O932 O 0.19831 0.80607 0.1083 0.0
N933 N 0.18984 0.80454 0.17956 0.0
C934 C 0.14709 0.77826 0.18377 0.0
C935 C 0.1595 0.80669 0.18305 0.0
C936 C 0.19516 0.77439 0.17788 0.0
N937 N 0.16959 0.75798 0.18086 0.0
O938 O 0.2447 0.80661 0.20976 0.0
H939 H 0.14691 0.82732 0.18662 0.0
H940 H 0.21754 0.76458 0.17654 0.0
O941 O 0.23752 0.82637 0.138 0.0
C942 C 0.23526 0.80362 0.24188 0.0
O943 O 0.21178 0.81969 0.25196 0.0
N944 N 0.19246 0.86452 0.16753 0.0
C945 C 0.14046 0.89822 0.15505 0.0
C946 C 0.15842 0.88828 0.12644 0.0
C947 C 0.18488 0.87188 0.13328 0.0
C948 C 0.17737 0.87731 0.19542 0.0
C949 C 0.15127 0.89421 0.18984 0.0
H950 H 0.19806 0.86428 0.11096 0.0
H951 H 0.18388 0.87175 0.22244 0.0
H952 H 0.27323 0.87248 0.14654 0.0
H953 H 0.27808 0.91544 0.24674 0.0
H954 H 0.12339 0.77291 0.18715 0.0
H955 H 0.15129 0.89185 0.0991 0.0
H956 H 0.13823 0.90146 0.21275 0.0
C957 C 0.89176 0.49913 0.97592 0.0
C958 C 0.87051 0.52163 0.97481 0.0
N959 N 0.87097 0.53429 0.94208 0.0
N960 N 0.9057 0.49721 0.94407 0.0
C961 C 0.8926 0.51892 0.92388 0.0
H962 H 0.89647 0.48474 0.99855 0.0
Co963 Co 0.93589 0.46884 0.93559 0.0
C964 C 0.95627 0.4766 0.85888 0.0
O965 O 0.96508 0.44825 0.85798 0.0
N966 N 0.96671 0.43978 0.92927 0.0
C967 C 0.99314 0.39711 0.93345 0.0
C968 C 0.96467 0.40942 0.93271 0.0
C969 C 0.99683 0.4452 0.92762 0.0
N970 N 0.01333 0.41969 0.93058 0.0
O971 O 0.96444 0.49464 0.95945 0.0
H972 H 0.94409 0.39675 0.93625 0.0
H973 H 1.00656 0.46762 0.9263 0.0
O974 O 0.94467 0.48738 0.88772 0.0
C975 C 0.96743 0.48524 0.99159 0.0
O976 O 0.9514 0.46173 1.0017 0.0
N977 N 0.90671 0.44217 0.91728 0.0
C978 C 0.87308 0.3901 0.90487 0.0
C979 C 0.88297 0.40806 0.87623 0.0
C980 C 0.89934 0.43455 0.88305 0.0
C981 C 0.89401 0.42703 0.94519 0.0
C982 C 0.87715 0.40091 0.93964 0.0
H983 H 0.9069 0.44775 0.86071 0.0
H984 H 0.89961 0.43354 0.9722 0.0
H985 H 0.89885 0.52331 0.89648 0.0
H986 H 0.85539 0.52752 0.99639 0.0
H987 H 0.99857 0.37342 0.93682 0.0
H988 H 0.87938 0.40092 0.84891 0.0
H989 H 0.86994 0.38785 0.96257 0.0
C990 C 0.27167 0.14233 0.72598 0.0
C991 C 0.2492 0.12105 0.72488 0.0
N992 N 0.23672 0.1213 0.69204 0.0
N993 N 0.27375 0.15608 0.69403 0.0
C994 C 0.25217 0.14284 0.67378 0.0
H995 H 0.28595 0.14717 0.74867 0.0
Co996 Co 0.30218 0.18621 0.68551 0.0
C997 C 0.29438 0.20666 0.60882 0.0
O998 O 0.3227 0.21552 0.60791 0.0
N999 N 0.33131 0.21695 0.67915 0.0
C1000 C 0.37405 0.24325 0.68333 0.0
C1001 C 0.36166 0.21482 0.68258 0.0
C1002 C 0.32597 0.24709 0.67753 0.0
N1003 N 0.35153 0.26352 0.68049 0.0
O1004 O 0.27647 0.21484 0.70939 0.0
H1005 H 0.37426 0.19419 0.68611 0.0
H1006 H 0.30359 0.25689 0.67624 0.0
O1007 O 0.28362 0.19502 0.63764 0.0
C1008 C 0.28594 0.21785 0.7415 0.0
O1009 O 0.30944 0.20181 0.75158 0.0
N1010 N 0.32876 0.15696 0.66718 0.0
C1011 C 0.38082 0.12331 0.65479 0.0
C1012 C 0.36292 0.13331 0.62614 0.0
C1013 C 0.33644 0.14969 0.63294 0.0
C1014 C 0.34382 0.14414 0.69509 0.0
C1015 C 0.36994 0.12727 0.68955 0.0
H1016 H 0.32332 0.15735 0.61059 0.0
H1017 H 0.33727 0.14967 0.7221 0.0
H1018 H 0.24794 0.14891 0.64628 0.0
H1019 H 0.24321 0.10604 0.74654 0.0
H1020 H 0.39775 0.24861 0.68669 0.0
H1021 H 0.37012 0.1298 0.59882 0.0
H1022 H 0.38294 0.11998 0.71248 0.0
C1023 C 0.62925 0.52186 0.47597 0.0
C1024 C 0.65051 0.49936 0.47488 0.0
N1025 N 0.65014 0.48678 0.4421 0.0
N1026 N 0.6154 0.52385 0.44407 0.0
C1027 C 0.62856 0.50219 0.42386 0.0
H1028 H 0.62448 0.5362 0.49862 0.0
Co1029 Co 0.58524 0.55226 0.43556 0.0
C1030 C 0.56478 0.54442 0.35888 0.0
O1031 O 0.5559 0.57275 0.35796 0.0
N1032 N 0.55446 0.58136 0.4292 0.0
C1033 C 0.52813 0.6241 0.43333 0.0
C1034 C 0.55657 0.61173 0.43256 0.0
C1035 C 0.52432 0.576 0.42764 0.0
N1036 N 0.50788 0.60156 0.43058 0.0
O1037 O 0.55666 0.52651 0.45945 0.0
H1038 H 0.57719 0.62435 0.43601 0.0
H1039 H 0.51454 0.55361 0.42642 0.0
O1040 O 0.57643 0.53368 0.3877 0.0
C1041 C 0.55368 0.53597 0.49157 0.0
O1042 O 0.56972 0.55947 0.50164 0.0
N1043 N 0.61445 0.57887 0.41721 0.0
C1044 C 0.64806 0.63094 0.40476 0.0
C1045 C 0.63808 0.61301 0.37613 0.0
C1046 C 0.62172 0.58652 0.38296 0.0
C1047 C 0.62724 0.59396 0.4451 0.0
C1048 C 0.64409 0.62009 0.43953 0.0
H1049 H 0.61408 0.57337 0.36062 0.0
H1050 H 0.62171 0.58744 0.47212 0.0
H1051 H 0.62239 0.49787 0.39641 0.0
H1052 H 0.66558 0.49343 0.4965 0.0
H1053 H 0.52277 0.64781 0.43665 0.0
H1054 H 0.64159 0.62019 0.3488 0.0
H1055 H 0.65136 0.63312 0.46246 0.0
C1056 C 0.28394 0.28004 0.30213 0.0
C1057 C 0.2725 0.28194 0.26703 0.0
H1058 H 0.28145 0.25837 0.35331 0.0
C1059 C 0.24904 0.26247 0.25692 0.0
H1060 H 0.30208 0.29471 0.31088 0.0
C1061 C 0.23732 0.24159 0.28134 0.0
C1062 C 0.24877 0.23968 0.31644 0.0
H1063 H 0.23982 0.26325 0.23016 0.0
H1064 H 0.21918 0.22692 0.27258 0.0
C1065 C 0.27222 0.25916 0.32654 0.0
C1066 C 0.03003 0.98742 0.53144 0.0
C1067 C 0.03195 0.9989 0.56652 0.0
H1068 H 1.00838 0.9899 0.48025 0.0
C1069 C 0.0125 0.02238 0.57659 0.0
H1070 H 0.04469 0.96926 0.52271 0.0
C1071 C 0.99163 0.03411 0.55216 0.0
C1072 C 0.98972 0.02263 0.51708 0.0
H1073 H 0.01329 0.03163 0.60335 0.0
H1074 H 0.97698 0.05226 0.56089 0.0
C1075 C 1.00917 0.99915 0.507 0.0
C1076 C 0.24872 0.76215 0.82685 0.0
C1077 C 0.27221 0.7816 0.81677 0.0
H1078 H 0.21883 0.72664 0.81115 0.0
C1079 C 0.28367 0.77967 0.78169 0.0
H1080 H 0.23948 0.76294 0.8536 0.0
C1081 C 0.27193 0.75881 0.75726 0.0
C1082 C 0.24845 0.73937 0.76733 0.0
H1083 H 0.30183 0.79433 0.77295 0.0
H1084 H 0.28117 0.75802 0.7305 0.0
C1085 C 0.23699 0.74129 0.80242 0.0
C1086 C 0.50858 0.9989 0.07661 0.0
C1087 C 0.48916 0.0224 0.0665 0.0
H1088 H 0.54405 0.96895 0.06096 0.0
C1089 C 0.49108 0.03382 1.03139 0.0
H1090 H 0.50778 0.98969 0.10338 0.0
C1091 C 0.51192 0.02204 1.00698 0.0
C1092 C 0.53134 0.99854 1.01709 0.0
H1093 H 0.47644 0.05199 1.02263 0.0
H1094 H 0.51272 0.03125 0.98021 0.0
C1095 C 0.52942 0.98711 0.05219 0.0
C1096 C 0.23715 0.77979 0.30252 0.0
C1097 C 0.24857 0.78171 0.26741 0.0
H1098 H 0.23969 0.7581 0.35368 0.0
C1099 C 0.272 0.76223 0.25727 0.0
H1100 H 0.21903 0.79447 0.31131 0.0
C1101 C 0.28374 0.74133 0.28166 0.0
C1102 C 0.27233 0.73941 0.31676 0.0
H1103 H 0.28121 0.76303 0.2305 0.0
H1104 H 0.30187 0.72666 0.27287 0.0
C1105 C 0.24889 0.75889 0.32691 0.0
C1106 C 0.50885 0.02212 0.50699 0.0
C1107 C 0.48938 0.99866 0.5171 0.0
H1108 H 0.5444 0.05198 0.52265 0.0
C1109 C 0.4913 0.98721 0.55219 0.0
H1110 H 0.50805 0.03136 0.48023 0.0
C1111 C 0.51218 0.99892 0.5766 0.0
C1112 C 0.53165 0.02238 0.5665 0.0
H1113 H 0.47663 0.96907 0.56094 0.0
H1114 H 0.51298 0.98969 0.60336 0.0
C1115 C 0.52973 0.03384 0.53141 0.0
C1116 C 0.28405 0.24169 0.80214 0.0
C1117 C 0.27264 0.23977 0.76702 0.0
H1118 H 0.28153 0.26339 0.85329 0.0
C1119 C 0.24923 0.25928 0.75686 0.0
H1120 H 0.30215 0.22699 0.81094 0.0
C1121 C 0.23752 0.2802 0.78124 0.0
C1122 C 0.24892 0.28211 0.81635 0.0
H1123 H 0.24004 0.25849 0.73008 0.0
H1124 H 0.21942 0.2949 0.77243 0.0
C1125 C 0.27234 0.2626 0.82651 0.0
C1126 C 0.01232 0.99931 1.00696 0.0
C1127 C 0.03179 0.02275 1.01712 0.0
H1128 H 0.97675 0.96943 1.02253 0.0
C1129 C 0.02987 0.03415 0.05224 0.0
H1130 H 0.01311 0.99013 0.98017 0.0
C1131 C 1.00898 0.02239 0.07662 0.0
C1132 C 0.98951 0.99895 0.06645 0.0
H1133 H 0.04454 0.05227 0.06104 0.0
H1134 H 1.00818 0.03158 0.1034 0.0
C1135 C 0.99143 0.98756 1.03133 0.0
C1136 C 0.77241 0.759 0.82651 0.0
C1137 C 0.74893 0.73956 0.81641 0.0
H1138 H 0.80231 0.79452 0.81084 0.0
C1139 C 0.73748 0.74148 0.78131 0.0
H1140 H 0.78164 0.75821 0.85327 0.0
C1141 C 0.74923 0.76234 0.75689 0.0
C1142 C 0.77271 0.78178 0.76699 0.0
H1143 H 0.71932 0.72683 0.77256 0.0
H1144 H 0.74 0.76314 0.73013 0.0
C1145 C 0.78415 0.77987 0.80209 0.0
C1146 C 0.74887 0.26213 0.32673 0.0
C1147 C 0.77234 0.28159 0.31664 0.0
H1148 H 0.71899 0.2266 0.31106 0.0
C1149 C 0.78378 0.27967 0.28154 0.0
H1150 H 0.73964 0.26292 0.35349 0.0
C1151 C 0.77204 0.2588 0.25712 0.0
C1152 C 0.74857 0.23934 0.26722 0.0
H1153 H 0.80193 0.29433 0.27279 0.0
H1154 H 0.78127 0.25801 0.23036 0.0
C1155 C 0.73713 0.24126 0.30231 0.0
C1156 C 0.73705 0.2796 0.80232 0.0
C1157 C 0.74846 0.28151 0.76721 0.0
H1158 H 0.73956 0.2579 0.85348 0.0
C1159 C 0.77187 0.262 0.75706 0.0
H1160 H 0.71894 0.29429 0.8111 0.0
C1161 C 0.78358 0.24108 0.78145 0.0
C1162 C 0.77217 0.23917 0.81655 0.0
H1163 H 0.78107 0.26278 0.73029 0.0
H1164 H 0.80169 0.22638 0.77266 0.0
C1165 C 0.74876 0.25868 0.8267 0.0
C1166 C 0.73735 0.78009 0.28133 0.0
C1167 C 0.74877 0.782 0.31644 0.0
H1168 H 0.73986 0.7584 0.23016 0.0
C1169 C 0.7722 0.76251 0.32658 0.0
H1170 H 0.71923 0.79478 0.27255 0.0
C1171 C 0.78392 0.74161 0.30218 0.0
C1172 C 0.7725 0.7397 0.26708 0.0
H1173 H 0.78141 0.76329 0.35335 0.0
H1174 H 0.80204 0.72692 0.31096 0.0
C1175 C 0.74907 0.75919 0.25694 0.0
C1176 C 0.50917 0.49913 1.00698 0.0
C1177 C 0.48975 0.52265 1.01706 0.0
H1178 H 0.54463 0.46918 1.02269 0.0
C1179 C 0.49167 0.5341 0.05215 0.0
H1180 H 0.50837 0.4899 0.98022 0.0
C1181 C 0.51251 0.52233 0.07659 0.0
C1182 C 0.53192 0.49882 0.06651 0.0
H1183 H 0.47705 0.55228 0.06088 0.0
H1184 H 0.5133 0.53157 0.10335 0.0
C1185 C 0.53 0.48736 1.03142 0.0
C1186 C 0.99112 0.5338 0.53143 0.0
C1187 C 0.98921 0.52231 0.56651 0.0
H1188 H 0.01276 0.53134 0.48024 0.0
C1189 C 1.00866 0.49882 0.57657 0.0
H1190 H 0.97646 0.55197 0.52271 0.0
C1191 C 0.02952 0.4871 0.55213 0.0
C1192 C 0.03143 0.49859 0.51705 0.0
H1193 H 1.00788 0.48956 0.60332 0.0
H1194 H 0.04417 0.46894 0.56085 0.0
C1195 C 0.01198 0.52208 0.50699 0.0
C1196 C 0.02965 0.53382 1.03132 0.0
C1197 C 0.03158 0.52244 0.06645 0.0
H1198 H 1.00797 0.53122 0.98016 0.0
C1199 C 0.01213 0.49899 0.07662 0.0
H1200 H 0.04432 0.55195 1.02252 0.0
C1201 C 0.99124 0.48722 0.05224 0.0
C1202 C 0.98931 0.4986 1.01712 0.0
H1203 H 0.01293 0.48981 0.1034 0.0
H1204 H 0.97658 0.46909 0.06105 0.0
C1205 C 1.00877 0.52205 1.00695 0.0
C1206 C 0.52987 0.53408 0.55222 0.0
C1207 C 0.53178 0.52266 0.51711 0.0
H1208 H 0.50818 0.53157 0.60338 0.0
C1209 C 0.5123 0.49923 0.50697 0.0
H1210 H 0.54455 0.5522 0.561 0.0
C1211 C 0.4914 0.4875 0.53136 0.0
C1212 C 0.48948 0.49893 0.56646 0.0
H1213 H 0.51309 0.49002 0.4802 0.0
H1214 H 0.47672 0.46938 0.52257 0.0
C1215 C 0.50897 0.52236 0.5766 0.0
C1216 C 0.33511 0.20652 0.16361 0.0
C1217 C 0.35405 0.2257 0.18341 0.0
H1218 H 0.32593 0.16103 0.14697 0.0
C1219 C 0.37648 0.21289 0.20523 0.0
H1220 H 0.31759 0.21584 0.14669 0.0
C1221 C 0.38102 0.18169 0.20576 0.0
C1222 C 0.3634 0.16259 0.18422 0.0
H1223 H 0.39099 0.2271 0.22134 0.0
H1224 H 0.39955 0.17273 0.22143 0.0
C1225 C 0.33988 0.17524 0.1638 0.0
C1226 C 0.06497 0.08533 0.41357 0.0
C1227 C 0.04578 0.10427 0.43335 0.0
H1228 H 0.11046 0.07618 0.39694 0.0
C1229 C 0.05856 0.12673 0.45514 0.0
H1230 H 0.05567 0.06779 0.39668 0.0
C1231 C 0.08975 0.13131 0.45566 0.0
C1232 C 0.10887 0.11369 0.43414 0.0
H1233 H 0.04434 0.14124 0.47123 0.0
H1234 H 0.09869 0.14986 0.47131 0.0
C1235 C 0.09625 0.09014 0.41375 0.0
C1236 C 0.13984 0.83965 0.70583 0.0
C1237 C 0.15755 0.85876 0.68441 0.0
H1238 H 0.12979 0.79423 0.72132 0.0
C1239 C 0.18112 0.84612 0.6641 0.0
H1240 H 0.12126 0.84861 0.72143 0.0
C1241 C 0.18588 0.81483 0.6639 0.0
C1242 C 0.16687 0.79564 0.68359 0.0
H1243 H 0.19514 0.86033 0.64736 0.0
H1244 H 0.20345 0.80552 0.64707 0.0
C1245 C 0.14437 0.80844 0.7053 0.0
C1246 C 0.45598 0.9359 0.91373 0.0
C1247 C 0.4752 0.91687 0.93336 0.0
H1248 H 0.41046 0.94519 0.89731 0.0
C1249 C 0.46244 0.89434 0.95505 0.0
H1250 H 0.46526 0.9535 0.89691 0.0
C1251 C 0.43124 0.88981 0.95565 0.0
C1252 C 0.41209 0.90755 0.93431 0.0
H1253 H 0.47667 0.87974 0.97103 0.0
H1254 H 0.42232 0.87121 0.97124 0.0
C1255 C 0.4247 0.93115 0.91399 0.0
C1256 C 0.33994 0.846 0.41988 0.0
C1257 C 0.36349 0.85859 0.39948 0.0
H1258 H 0.31757 0.80544 0.437 0.0
C1259 C 0.38109 0.83944 0.37798 0.0
H1260 H 0.326 0.86024 0.43667 0.0
C1261 C 0.3765 0.80825 0.37853 0.0
C1262 C 0.35404 0.79549 0.40033 0.0
H1263 H 0.39964 0.84836 0.36231 0.0
H1264 H 0.391 0.794 0.36245 0.0
C1265 C 0.33512 0.81472 0.42009 0.0
C1266 C 0.43171 0.13116 0.62782 0.0
C1267 C 0.41259 0.11362 0.64942 0.0
H1268 H 0.47713 0.14099 0.61217 0.0
C1269 C 0.42519 0.09009 0.66986 0.0
H1270 H 0.42279 0.14969 0.61213 0.0
C1271 C 0.45646 0.08523 0.67001 0.0
C1272 C 0.47567 0.10409 0.65015 0.0
H1273 H 0.41097 0.0762 0.68672 0.0
H1274 H 0.46574 0.0677 0.68694 0.0
C1275 C 0.4629 0.12653 0.62832 0.0
C1276 C 0.1861 0.20681 0.91997 0.0
C1277 C 0.16732 0.22596 0.89993 0.0
H1278 H 0.19507 0.16136 0.93691 0.0
C1279 C 0.145 0.21313 0.87798 0.0
H1280 H 0.20353 0.21615 0.93699 0.0
C1281 C 0.14039 0.18194 0.87755 0.0
C1282 C 0.15783 0.16288 0.89935 0.0
H1283 H 0.13061 0.22733 0.86169 0.0
H1284 H 0.12194 0.17297 0.86177 0.0
C1285 C 0.18126 0.17553 0.91989 0.0
C1286 C 0.08964 0.89037 0.12789 0.0
C1287 C 0.10869 0.90789 0.1496 0.0
H1288 H 0.04427 0.88051 0.11206 0.0
C1289 C 0.09601 0.93136 0.17008 0.0
H1290 H 0.09862 0.87189 0.11216 0.0
C1291 C 0.06474 0.93617 0.17015 0.0
C1292 C 0.0456 0.91731 0.15018 0.0
H1293 H 0.11018 0.94523 0.18704 0.0
H1294 H 0.05539 0.95363 0.18712 0.0
C1295 C 0.05844 0.89495 0.1283 0.0
C1296 C 0.64473 0.80828 0.87816 0.0
C1297 C 0.66713 0.79551 0.90005 0.0
H1298 H 0.62156 0.84839 0.86196 0.0
C1299 C 0.68592 0.81471 0.92 0.0
H1300 H 0.63033 0.79405 0.86193 0.0
C1301 C 0.68103 0.84598 0.91989 0.0
C1302 C 0.65753 0.85858 0.8994 0.0
H1303 H 0.70341 0.80543 0.93698 0.0
H1304 H 0.69486 0.8602 0.93684 0.0
C1305 C 0.64007 0.83947 0.8777 0.0
C1306 C 0.95654 0.93619 0.66993 0.0
C1307 C 0.97575 0.9173 0.6501 0.0
H1308 H 0.91104 0.94525 0.6866 0.0
C1309 C 0.96299 0.89488 0.62824 0.0
H1310 H 0.96583 0.9537 0.68688 0.0
C1311 C 0.9318 0.89027 0.62771 0.0
C1312 C 0.91268 0.90782 0.64929 0.0
H1313 H 0.97723 0.88041 0.61211 0.0
H1314 H 0.92288 0.87174 0.61201 0.0
C1315 C 0.92527 0.93135 0.66974 0.0
C1316 C 0.84009 0.17513 0.41984 0.0
C1317 C 0.86365 0.16255 0.39944 0.0
H1318 H 0.81767 0.21566 0.43694 0.0
C1319 C 0.88123 0.18171 0.37793 0.0
H1320 H 0.82617 0.16087 0.43665 0.0
C1321 C 0.8766 0.2129 0.37847 0.0
C1322 C 0.85412 0.22564 0.40026 0.0
H1323 H 0.89979 0.17281 0.36227 0.0
H1324 H 0.89107 0.22716 0.36238 0.0
C1325 C 0.83523 0.2064 0.42004 0.0
C1326 C 0.55818 0.12652 0.12833 0.0
C1327 C 0.54538 0.10409 0.15014 0.0
H1328 H 0.59832 0.14962 0.11216 0.0
C1329 C 0.56456 0.08518 0.16999 0.0
H1330 H 0.54397 0.14101 0.11219 0.0
C1331 C 0.59584 0.08999 0.16984 0.0
C1332 C 0.60847 0.11351 0.14942 0.0
H1333 H 0.55525 0.06767 0.1869 0.0
H1334 H 0.61004 0.07606 0.1867 0.0
C1335 C 0.58938 0.13109 0.12784 0.0
C1336 C 0.68586 0.20624 0.66373 0.0
C1337 C 0.66688 0.22542 0.68347 0.0
H1338 H 0.6951 0.16074 0.64714 0.0
C1339 C 0.64441 0.21261 0.70522 0.0
H1340 H 0.70341 0.21555 0.64687 0.0
C1341 C 0.63988 0.18141 0.70574 0.0
C1342 C 0.65755 0.1623 0.68427 0.0
H1343 H 0.62987 0.22682 0.72128 0.0
H1344 H 0.62132 0.17245 0.72137 0.0
C1345 C 0.6811 0.17495 0.66392 0.0
C1346 C 0.59601 0.93129 0.41382 0.0
C1347 C 0.60866 0.90775 0.4342 0.0
H1348 H 0.5554 0.9536 0.39677 0.0
C1349 C 0.58957 0.89009 0.4557 0.0
H1350 H 0.6102 0.94527 0.39703 0.0
C1351 C 0.55837 0.89463 0.45518 0.0
C1352 C 0.54555 0.91709 0.43342 0.0
H1353 H 0.59853 0.87155 0.47135 0.0
H1354 H 0.54416 0.8801 0.47127 0.0
C1355 C 0.56472 0.93606 0.41365 0.0
C1356 C 0.84003 0.84625 0.16368 0.0
C1357 C 0.86353 0.8589 0.18412 0.0
H1358 H 0.81772 0.80564 0.14662 0.0
C1359 C 0.8811 0.83981 0.20574 0.0
H1360 H 0.82611 0.86044 0.1468 0.0
C1361 C 0.87653 0.80861 0.20526 0.0
C1362 C 0.85412 0.7958 0.18343 0.0
H1363 H 0.89961 0.84878 0.22144 0.0
H1364 H 0.891 0.79441 0.22143 0.0
C1365 C 0.83523 0.81496 0.16355 0.0
C1366 C 0.9626 0.12666 0.95514 0.0
C1367 C 0.97544 0.10422 0.93337 0.0
H1368 H 0.9224 0.14966 0.97133 0.0
C1369 C 0.9563 0.08521 0.91362 0.0
H1370 H 0.97678 0.14123 0.97121 0.0
C1371 C 0.925 0.08991 0.91382 0.0
C1372 C 0.91231 0.11343 0.9342 0.0
H1373 H 0.96564 0.06768 0.89674 0.0
H1374 H 0.91082 0.07589 0.89703 0.0
C1375 C 0.93139 0.13113 0.95568 0.0
C1376 C 0.88136 0.68159 0.70557 0.0
C1377 C 0.86362 0.66245 0.68421 0.0
H1378 H 0.89143 0.72703 0.72096 0.0
C1379 C 0.84003 0.67507 0.6639 0.0
H1380 H 0.89995 0.67265 0.72116 0.0
C1381 C 0.83528 0.70637 0.66365 0.0
C1382 C 0.85431 0.72557 0.68328 0.0
H1383 H 0.82598 0.66084 0.64721 0.0
H1384 H 0.81768 0.71566 0.64682 0.0
C1385 C 0.87684 0.7128 0.70498 0.0
C1386 C 0.59639 0.59003 0.91369 0.0
C1387 C 0.60905 0.61356 0.93408 0.0
H1388 H 0.55578 0.56775 0.89662 0.0
C1389 C 0.58997 0.63121 0.9556 0.0
H1390 H 0.61058 0.57606 0.89688 0.0
C1391 C 0.55877 0.62668 0.95509 0.0
C1392 C 0.54595 0.60424 0.93331 0.0
H1393 H 0.59894 0.64974 0.97126 0.0
H1394 H 0.54457 0.64121 0.9712 0.0
C1395 C 0.56511 0.58528 0.91352 0.0
C1396 C 0.68119 0.34607 0.16398 0.0
C1397 C 0.65766 0.35872 0.18437 0.0
H1398 H 0.70348 0.30546 0.1469 0.0
C1399 C 0.64003 0.33962 0.20588 0.0
H1400 H 0.69516 0.36027 0.14717 0.0
C1401 C 0.64456 0.30841 0.20536 0.0
C1402 C 0.667 0.2956 0.18357 0.0
H1403 H 0.62149 0.34858 0.22154 0.0
H1404 H 0.63004 0.29421 0.22145 0.0
C1405 C 0.68596 0.31478 0.16379 0.0
C1406 C 0.96265 0.39442 0.455 0.0
C1407 C 0.97539 0.41695 0.43327 0.0
H1408 H 0.92255 0.37126 0.47119 0.0
C1409 C 0.95616 0.43593 0.4136 0.0
H1410 H 0.9769 0.37987 0.471 0.0
C1411 C 0.92488 0.43113 0.41384 0.0
C1412 C 0.9123 0.40753 0.43418 0.0
H1413 H 0.96543 0.45353 0.39676 0.0
H1414 H 0.91063 0.44514 0.39713 0.0
C1415 C 0.93146 0.38985 0.45558 0.0
C1416 C 0.88083 0.33924 0.87774 0.0
C1417 C 0.86336 0.35833 0.89945 0.0
H1418 H 0.89062 0.29383 0.86196 0.0
C1419 C 0.8399 0.3457 0.91996 0.0
H1420 H 0.89931 0.34819 0.86198 0.0
C1421 C 0.83505 0.31443 0.92007 0.0
C1422 C 0.85385 0.29525 0.90011 0.0
H1423 H 0.82606 0.35991 0.93691 0.0
H1424 H 0.81758 0.30512 0.93707 0.0
C1425 C 0.87621 0.30804 0.87819 0.0
C1426 C 0.93153 0.6312 0.12775 0.0
C1427 C 0.91242 0.61362 0.14932 0.0
H1428 H 0.97694 0.64109 0.11212 0.0
C1429 C 0.92504 0.59009 0.16973 0.0
H1430 H 0.92259 0.64974 0.11208 0.0
C1431 C 0.95632 0.58526 0.16988 0.0
C1432 C 0.9755 0.60416 0.15006 0.0
H1433 H 0.91083 0.57616 0.18658 0.0
H1434 H 0.96562 0.56773 0.1868 0.0
C1435 C 0.96272 0.62661 0.12825 0.0
C1436 C 0.68605 0.70664 0.41994 0.0
C1437 C 0.66717 0.72582 0.40005 0.0
H1438 H 0.69512 0.66116 0.4367 0.0
C1439 C 0.64477 0.71302 0.3782 0.0
H1440 H 0.70354 0.71596 0.43689 0.0
C1441 C 0.64018 0.68182 0.37772 0.0
C1442 C 0.65773 0.66273 0.39935 0.0
H1443 H 0.63031 0.72723 0.36203 0.0
H1444 H 0.62167 0.67287 0.36202 0.0
C1445 C 0.68123 0.67536 0.4198 0.0
C1446 C 0.58946 0.39017 0.62781 0.0
C1447 C 0.60856 0.40769 0.64947 0.0
H1448 H 0.54406 0.38036 0.61206 0.0
C1449 C 0.59594 0.43119 0.66993 0.0
H1450 H 0.5984 0.37166 0.61209 0.0
C1451 C 0.56467 0.43605 0.67004 0.0
C1452 C 0.54548 0.4172 0.65012 0.0
H1453 H 0.61014 0.44506 0.68685 0.0
H1454 H 0.55536 0.45354 0.68699 0.0
C1455 C 0.55827 0.3948 0.62826 0.0
C1456 C 0.14002 0.33967 0.37776 0.0
C1457 C 0.15758 0.3588 0.39933 0.0
H1458 H 0.13018 0.29424 0.36214 0.0
C1459 C 0.18112 0.34621 0.41977 0.0
H1460 H 0.12149 0.34859 0.36207 0.0
C1461 C 0.18597 0.31493 0.41994 0.0
C1462 C 0.16709 0.29572 0.4001 0.0
H1463 H 0.19502 0.36044 0.43662 0.0
H1464 H 0.2035 0.30565 0.43686 0.0
C1465 C 0.14464 0.30848 0.37827 0.0
C1466 C 0.46293 0.39472 0.12839 0.0
C1467 C 0.4757 0.41718 0.15019 0.0
H1468 H 0.4228 0.37161 0.11218 0.0
C1469 C 0.45651 0.43611 0.16997 0.0
H1470 H 0.47715 0.38022 0.11229 0.0
C1471 C 0.42523 0.43131 0.16977 0.0
C1472 C 0.41261 0.40776 0.14937 0.0
H1473 H 0.4658 0.45365 0.18687 0.0
H1474 H 0.41101 0.44526 0.18658 0.0
C1475 C 0.43173 0.39015 0.12785 0.0
C1476 C 0.37658 0.71306 0.87852 0.0
C1477 C 0.3541 0.72576 0.90033 0.0
H1478 H 0.39982 0.67301 0.86229 0.0
C1479 C 0.33524 0.70649 0.92012 0.0
H1480 H 0.39103 0.72734 0.86243 0.0
C1481 C 0.34015 0.67523 0.91991 0.0
C1482 C 0.36372 0.66269 0.89949 0.0
H1483 H 0.31768 0.71572 0.93703 0.0
H1484 H 0.32626 0.66095 0.93672 0.0
C1485 C 0.38126 0.68188 0.87797 0.0
C1486 C 0.08933 0.63102 0.62786 0.0
C1487 C 0.10845 0.61345 0.64944 0.0
H1488 H 0.04391 0.64088 0.61222 0.0
C1489 C 0.09585 0.58991 0.66985 0.0
H1490 H 0.09825 0.64956 0.61219 0.0
C1491 C 0.06457 0.58506 0.67 0.0
C1492 C 0.04537 0.60396 0.65016 0.0
H1493 H 0.11007 0.576 0.6867 0.0
H1494 H 0.05529 0.56753 0.68691 0.0
C1495 C 0.05814 0.6264 0.62835 0.0
C1496 C 0.18101 0.67521 0.16383 0.0
C1497 C 0.1575 0.66253 0.18424 0.0
H1498 H 0.20331 0.71583 0.14683 0.0
C1499 C 0.13992 0.6816 0.20586 0.0
H1500 H 0.19494 0.66103 0.14695 0.0
C1501 C 0.14448 0.7128 0.20542 0.0
C1502 C 0.1669 0.72564 0.18363 0.0
H1503 H 0.12141 0.67262 0.22153 0.0
H1504 H 0.13 0.72699 0.2216 0.0
C1505 C 0.1858 0.70649 0.16374 0.0
C1506 C 0.06477 0.43607 0.91354 0.0
C1507 C 0.04567 0.41711 0.93341 0.0
H1508 H 0.11021 0.44533 0.8968 0.0
C1509 C 0.05856 0.39473 0.95523 0.0
H1510 H 0.05539 0.45354 0.89662 0.0
C1511 C 0.08977 0.39026 0.95571 0.0
C1512 C 0.1088 0.4079 0.93411 0.0
H1513 H 0.04441 0.3802 0.97139 0.0
H1514 H 0.09879 0.37177 0.9714 0.0
C1515 C 0.09607 0.43136 0.91367 0.0
C1516 C 0.34002 0.34632 0.66372 0.0
C1517 C 0.36353 0.35897 0.68412 0.0
H1518 H 0.31773 0.30571 0.64664 0.0
C1519 C 0.38117 0.33987 0.70566 0.0
H1520 H 0.32605 0.36052 0.6469 0.0
C1521 C 0.37663 0.30867 0.70514 0.0
C1522 C 0.3542 0.29585 0.68334 0.0
H1523 H 0.3997 0.34884 0.72133 0.0
H1524 H 0.39115 0.29447 0.72125 0.0
C1525 C 0.33525 0.31503 0.66354 0.0
C1526 C 0.42508 0.59001 0.41396 0.0
C1527 C 0.41245 0.61356 0.43436 0.0
H1528 H 0.46567 0.56771 0.39685 0.0
C1529 C 0.43156 0.63122 0.45583 0.0
H1530 H 0.41086 0.57603 0.39719 0.0
C1531 C 0.46276 0.62668 0.45527 0.0
C1532 C 0.47555 0.60422 0.43349 0.0
H1533 H 0.42262 0.64976 0.47149 0.0
H1534 H 0.47698 0.64122 0.47134 0.0
C1535 C 0.45636 0.58525 0.41375 0.0
C1536 C 0.29216 0.31533 1.04152 0.0
C1537 C 0.27682 0.31536 0.07458 0.0
H1538 H 0.28876 0.31583 0.98422 0.0
C1539 C 0.24511 0.31584 0.07428 0.0
H1540 H 0.31662 0.31527 1.04066 0.0
C1541 C 0.22918 0.31551 1.04181 0.0
C1542 C 0.24452 0.31547 1.00875 0.0
H1543 H 0.23258 0.31598 0.09912 0.0
H1544 H 0.20471 0.3156 0.04267 0.0
C1545 C 0.27623 0.31576 1.00906 0.0
C1546 C 0.95581 0.02626 0.25912 0.0
C1547 C 0.9561 0.99454 0.25882 0.0
H1548 H 0.95631 0.06666 0.29071 0.0
C1549 C 0.95605 0.9792 0.29189 0.0
H1550 H 0.95574 0.03878 0.23428 0.0
C1551 C 0.95573 0.99513 0.32435 0.0
C1552 C 0.95621 0.02685 0.32465 0.0
H1553 H 0.95596 0.95473 0.29276 0.0
H1554 H 0.95559 0.98261 0.34919 0.0
C1555 C 0.95625 0.04218 0.29158 0.0
C1556 C 0.2289 0.70601 0.54179 0.0
C1557 C 0.2442 0.70604 0.57489 0.0
H1558 H 0.23236 0.70549 0.4845 0.0
C1559 C 0.27591 0.70565 0.57464 0.0
H1560 H 0.20443 0.70599 0.54089 0.0
C1561 C 0.29187 0.70602 0.54221 0.0
C1562 C 0.27657 0.706 0.50912 0.0
H1563 H 0.28841 0.70556 0.59951 0.0
H1564 H 0.31634 0.70601 0.54311 0.0
C1565 C 0.24486 0.70561 0.50936 0.0
C1566 C 0.56498 0.97887 0.79161 0.0
C1567 C 0.5649 0.99419 0.82469 0.0
H1568 H 0.56556 0.98231 0.73431 0.0
C1569 C 0.56526 0.02591 0.82442 0.0
H1570 H 0.56502 0.9544 0.79073 0.0
C1571 C 0.56492 0.04186 0.79197 0.0
C1572 C 0.56499 0.02654 0.75889 0.0
H1573 H 0.56531 0.03843 0.84927 0.0
H1574 H 0.56491 0.06633 0.79286 0.0
C1575 C 0.5654 0.99482 0.75917 0.0
C1576 C 0.74513 0.70563 0.07434 0.0
C1577 C 0.77685 0.70628 0.07467 0.0
H1578 H 0.70476 0.70573 0.0427 0.0
C1579 C 0.7922 0.7065 1.04162 0.0
H1580 H 0.7326 0.70534 0.09917 0.0
C1581 C 0.7763 0.70607 1.00914 0.0
C1582 C 0.74458 0.70619 1.00882 0.0
H1583 H 0.81667 0.7067 1.04077 0.0
H1584 H 0.78883 0.70615 0.98431 0.0
C1585 C 0.72923 0.70596 0.04187 0.0
C1586 C 0.06546 0.04249 0.79164 0.0
C1587 C 0.0653 0.02719 0.82473 0.0
H1588 H 0.06603 0.03902 0.73435 0.0
C1589 C 0.06549 0.99547 0.82448 0.0
H1590 H 0.06563 0.06696 0.79074 0.0
C1591 C 0.06507 0.97951 0.79205 0.0
C1592 C 0.06522 0.99481 0.75896 0.0
H1593 H 0.06546 0.98297 0.84935 0.0
H1594 H 0.06493 0.95504 0.79295 0.0
C1595 C 0.0658 0.02653 0.75921 0.0
C1596 C 0.77587 0.31533 0.57455 0.0
C1597 C 0.74416 0.31504 0.57482 0.0
H1598 H 0.81628 0.31487 0.54299 0.0
C1599 C 0.72884 0.31514 0.54174 0.0
H1600 H 0.78839 0.31536 0.59941 0.0
C1601 C 0.74478 0.31551 0.5093 0.0
C1602 C 0.7765 0.31502 0.50902 0.0
H1603 H 0.70437 0.31524 0.54086 0.0
H1604 H 0.73227 0.31568 0.48444 0.0
C1605 C 0.79181 0.31493 0.54211 0.0
C1606 C 0.45552 0.02614 0.32443 0.0
C1607 C 0.45595 0.99442 0.3247 0.0
H1608 H 0.45582 0.06656 0.29288 0.0
C1609 C 0.45596 0.97911 0.29161 0.0
H1610 H 0.4554 0.03865 0.34929 0.0
C1611 C 0.45555 0.99506 0.25917 0.0
C1612 C 0.45589 0.02678 0.2589 0.0
H1613 H 0.45597 0.95464 0.29072 0.0
H1614 H 0.45545 0.98255 0.23431 0.0
C1615 C 0.45587 0.04209 0.29199 0.0
C1616 C 0.79223 0.81531 0.5415 0.0
C1617 C 0.77694 0.81525 0.57459 0.0
H1618 H 0.78876 0.81586 0.4842 0.0
C1619 C 0.74522 0.81561 0.57434 0.0
H1620 H 0.8167 0.81535 0.5406 0.0
C1621 C 0.72926 0.81526 0.54191 0.0
C1622 C 0.74455 0.8153 0.50881 0.0
H1623 H 0.73273 0.81568 0.5992 0.0
H1624 H 0.70479 0.81525 0.54281 0.0
C1625 C 0.77627 0.81572 0.50907 0.0
C1626 C 0.4558 0.49525 0.82435 0.0
C1627 C 0.45628 0.52697 0.82463 0.0
H1628 H 0.45603 0.45484 0.79277 0.0
C1629 C 0.45629 0.54229 0.79156 0.0
H1630 H 0.45568 0.48273 0.8492 0.0
C1631 C 0.45584 0.52636 0.75911 0.0
C1632 C 0.45614 0.49464 0.75882 0.0
H1633 H 0.45634 0.56676 0.79069 0.0
H1634 H 0.45576 0.53888 0.73426 0.0
C1635 C 0.45612 0.47931 0.7919 0.0
C1636 C 0.72888 0.20593 1.04169 0.0
C1637 C 0.74421 0.20595 0.07476 0.0
H1638 H 0.73228 0.20538 0.98439 0.0
C1639 C 0.77593 0.20552 0.07447 0.0
H1640 H 0.70441 0.20594 1.04082 0.0
C1641 C 0.79185 0.20585 0.04201 0.0
C1642 C 0.77652 0.20584 1.00894 0.0
H1643 H 0.78845 0.20542 0.09932 0.0
H1644 H 0.81632 0.20581 0.04288 0.0
C1645 C 0.7448 0.2055 1.00924 0.0
C1646 C 0.06533 0.52619 0.32434 0.0
C1647 C 0.06494 0.49446 0.32462 0.0
H1648 H 0.06499 0.5666 0.29277 0.0
C1649 C 0.06498 0.47914 0.29154 0.0
H1650 H 0.06542 0.5387 0.34919 0.0
C1651 C 0.06538 0.49508 0.25909 0.0
C1652 C 0.065 0.5268 0.25881 0.0
H1653 H 0.065 0.45467 0.29066 0.0
H1654 H 0.06551 0.48257 0.23424 0.0
C1655 C 0.06498 0.54213 0.29189 0.0
C1656 C 0.29225 0.2062 0.54158 0.0
C1657 C 0.27693 0.20623 0.57466 0.0
H1658 H 0.28882 0.20571 0.48428 0.0
C1659 C 0.24521 0.20587 0.57437 0.0
H1660 H 0.31671 0.20616 0.5407 0.0
C1661 C 0.22927 0.20626 0.54193 0.0
C1662 C 0.24459 0.20625 0.50885 0.0
H1663 H 0.2327 0.20579 0.59923 0.0
H1664 H 0.20481 0.20627 0.5428 0.0
C1665 C 0.27631 0.20583 0.50913 0.0
C1666 C 0.56557 0.49524 0.32447 0.0
C1667 C 0.56521 0.52696 0.32473 0.0
H1668 H 0.56518 0.45481 0.29293 0.0
C1669 C 0.56526 0.54227 0.29164 0.0
H1670 H 0.56565 0.48274 0.34933 0.0
C1671 C 0.56564 0.52631 0.25921 0.0
C1672 C 0.56522 0.49459 0.25895 0.0
H1673 H 0.5653 0.56674 0.29075 0.0
H1674 H 0.56577 0.53881 0.23435 0.0
C1675 C 0.56519 0.47928 0.29204 0.0
C1676 C 0.29171 0.81489 0.04223 0.0
C1677 C 0.27637 0.81503 1.00917 0.0
H1678 H 0.28834 0.81532 0.09954 0.0
C1679 C 0.24466 0.81562 1.00948 0.0
H1680 H 0.31618 0.81475 0.04309 0.0
C1681 C 0.22874 0.8153 0.04195 0.0
C1682 C 0.24409 0.81515 0.07501 0.0
H1683 H 0.23212 0.81584 0.98465 0.0
H1684 H 0.20428 0.81547 1.04109 0.0
C1685 C 0.27581 0.81533 0.0747 0.0
C1686 C 0.95538 0.4947 0.75921 0.0
C1687 C 0.95594 0.52642 0.75895 0.0
H1688 H 0.95558 0.45427 0.79076 0.0
C1689 C 0.95607 0.54173 0.79203 0.0
H1690 H 0.95518 0.48219 0.73435 0.0
C1691 C 0.95564 0.52577 0.82447 0.0
C1692 C 0.95586 0.49405 0.82473 0.0
H1693 H 0.95618 0.5662 0.79293 0.0
H1694 H 0.95564 0.53828 0.84933 0.0
C1695 C 0.95572 0.47874 0.79165 0.0
C1696 C 0.19514 0.43692 0.20325 0.0
C1697 C 0.21296 0.42017 0.17911 0.0
H1698 H 0.16173 0.47117 0.2106 0.0
C1699 C 0.20798 0.42421 0.14238 0.0
H1700 H 0.19755 0.43404 0.23175 0.0
C1701 C 0.1867 0.44517 0.13019 0.0
C1702 C 0.16998 0.46302 0.15433 0.0
H1703 H 0.221 0.41181 0.12284 0.0
H1704 H 0.18375 0.44751 0.10169 0.0
C1705 C 0.1741 0.45813 0.19105 0.0
C1706 C 0.84719 0.95821 0.39244 0.0
C1707 C 0.85134 0.96307 0.42917 0.0
H1708 H 0.82373 0.93415 0.35173 0.0
C1709 C 0.83463 0.94521 0.45329 0.0
H1710 H 0.85955 0.97126 0.37289 0.0
C1711 C 0.81335 0.92425 0.4411 0.0
C1712 C 0.80834 0.92024 0.40437 0.0
H1713 H 0.83759 0.94752 0.48179 0.0
H1714 H 0.80034 0.91184 0.46064 0.0
C1715 C 0.82615 0.93701 0.38024 0.0
C1716 C 0.31307 0.59729 0.6426 0.0
C1717 C 0.30803 0.60122 0.67933 0.0
H1718 H 0.33738 0.57412 0.60188 0.0
C1719 C 0.32581 0.5844 0.70345 0.0
H1720 H 0.30009 0.60975 0.62307 0.0
C1721 C 0.34687 0.56323 0.69122 0.0
C1722 C 0.35107 0.55846 0.65448 0.0
H1723 H 0.32335 0.58719 0.73195 0.0
H1724 H 0.35921 0.55013 0.71074 0.0
C1725 C 0.33438 0.57637 0.63038 0.0
C1726 C 0.67368 0.06299 0.8926 0.0
C1727 C 0.66967 0.05799 0.92933 0.0
H1728 H 0.69699 0.08719 0.85191 0.0
C1729 C 0.68649 0.07575 0.95347 0.0
H1730 H 0.66123 0.05002 0.87305 0.0
C1731 C 0.70774 0.09674 0.94127 0.0
C1732 C 0.71259 0.10088 0.90454 0.0
H1733 H 0.68364 0.07333 0.98197 0.0
H1734 H 0.72083 0.10907 0.96081 0.0
C1735 C 0.69468 0.08422 0.88041 0.0
C1736 C 0.17389 0.56318 0.39256 0.0
C1737 C 0.16978 0.55825 0.42928 0.0
H1738 H 0.1973 0.58732 0.3519 0.0
C1739 C 0.18652 0.57607 0.45344 0.0
H1740 H 0.1615 0.55017 0.373 0.0
C1741 C 0.20779 0.59704 0.44127 0.0
C1742 C 0.21275 0.60112 0.40455 0.0
H1743 H 0.18358 0.5737 0.48194 0.0
H1744 H 0.22082 0.60941 0.46084 0.0
C1745 C 0.19491 0.5844 0.3804 0.0
C1746 C 0.67431 0.958 0.69119 0.0
C1747 C 0.67005 0.96277 0.65446 0.0
H1748 H 0.69788 0.93403 0.73188 0.0
C1749 C 0.68668 0.94484 0.63033 0.0
H1750 H 0.66201 0.97111 0.71073 0.0
C1751 C 0.708 0.92391 0.64251 0.0
C1752 C 0.71311 0.91998 0.67922 0.0
H1753 H 0.68363 0.94709 0.60183 0.0
H1754 H 0.72093 0.91144 0.62295 0.0
C1755 C 0.69537 0.93682 0.70337 0.0
C1756 C 0.33472 0.44535 0.95325 0.0
C1757 C 0.35144 0.46321 0.92913 0.0
H1758 H 0.30043 0.41198 0.96058 0.0
C1759 C 0.34731 0.45834 0.8924 0.0
H1760 H 0.33766 0.44768 0.98175 0.0
C1761 C 0.32629 0.43713 0.88019 0.0
C1762 C 0.30847 0.42037 0.90432 0.0
H1763 H 0.35968 0.47139 0.87286 0.0
H1764 H 0.32388 0.43426 0.85169 0.0
C1765 C 0.31345 0.42439 0.94104 0.0
C1766 C 0.83437 0.07624 0.13028 0.0
C1767 C 0.8511 0.05837 0.15439 0.0
H1768 H 0.80007 0.10959 0.12296 0.0
C1769 C 0.84697 0.06321 0.19113 0.0
H1770 H 0.83733 0.07393 0.10178 0.0
C1771 C 0.82593 0.0844 0.20334 0.0
C1772 C 0.8081 0.10117 0.17923 0.0
H1773 H 0.85935 0.05016 0.21066 0.0
H1774 H 0.82351 0.08725 0.23185 0.0
C1775 C 0.81309 0.09718 0.1425 0.0
C1776 C 0.83424 0.57567 0.95344 0.0
C1777 C 0.85116 0.55801 0.92931 0.0
H1778 H 0.79992 0.60902 0.96074 0.0
C1779 C 0.84739 0.56323 0.89259 0.0
H1780 H 0.83691 0.57308 0.98194 0.0
C1781 C 0.82651 0.58458 0.88038 0.0
C1782 C 0.80849 0.60114 0.90449 0.0
H1783 H 0.85993 0.55035 0.87304 0.0
H1784 H 0.82437 0.58772 0.85189 0.0
C1785 C 0.81311 0.59678 0.94122 0.0
C1786 C 0.17432 0.06337 0.69123 0.0
C1787 C 0.17021 0.05845 0.6545 0.0
H1788 H 0.19771 0.08752 0.73191 0.0
C1789 C 0.18691 0.0763 0.63036 0.0
H1790 H 0.16195 0.05033 0.71078 0.0
C1791 C 0.20816 0.09731 0.64254 0.0
C1792 C 0.21312 0.10138 0.67926 0.0
H1793 H 0.18398 0.07394 0.60186 0.0
H1794 H 0.22116 0.1097 0.62298 0.0
C1795 C 0.19531 0.08462 0.70341 0.0
C1796 C 0.67387 0.45796 0.39262 0.0
C1797 C 0.67 0.4631 0.42934 0.0
H1798 H 0.697 0.43356 0.35194 0.0
C1799 C 0.68687 0.4454 0.45348 0.0
H1800 H 0.66138 0.47087 0.37306 0.0
C1801 C 0.70803 0.42432 0.4413 0.0
C1802 C 0.71276 0.42003 0.40457 0.0
H1803 H 0.68412 0.44793 0.48199 0.0
H1804 H 0.72117 0.41204 0.46084 0.0
C1805 C 0.69479 0.43664 0.38044 0.0
C1806 C 0.34693 0.95803 0.19129 0.0
C1807 C 0.35096 0.96296 0.15455 0.0
H1808 H 0.32362 0.93387 0.23203 0.0
C1809 C 0.33419 0.94511 0.13045 0.0
H1810 H 0.35934 0.97106 0.21081 0.0
C1811 C 0.31297 0.92411 0.14268 0.0
C1812 C 0.30809 0.92003 0.17942 0.0
H1813 H 0.33706 0.94748 0.10194 0.0
H1814 H 0.29992 0.91172 0.12316 0.0
C1815 C 0.32596 0.93678 0.20352 0.0
C1816 C 0.82579 0.43668 0.70351 0.0
C1817 C 0.80801 0.41987 0.67938 0.0
H1818 H 0.85913 0.47099 0.71083 0.0
C1819 C 0.81301 0.42386 0.64265 0.0
H1820 H 0.82336 0.43384 0.73201 0.0
C1821 C 0.83426 0.44484 0.63045 0.0
C1822 C 0.85094 0.46275 0.65457 0.0
H1823 H 0.80003 0.41142 0.62311 0.0
H1824 H 0.83723 0.44714 0.60195 0.0
C1825 C 0.84679 0.45791 0.6913 0.0
C1826 C 0.31319 0.09713 0.44111 0.0
C1827 C 0.30833 0.10127 0.40438 0.0
H1828 H 0.33725 0.07367 0.48182 0.0
C1829 C 0.32619 0.08455 0.38026 0.0
H1830 H 0.30015 0.1095 0.46065 0.0
C1831 C 0.34714 0.06326 0.39246 0.0
C1832 C 0.35115 0.05826 0.42918 0.0
H1833 H 0.32388 0.0875 0.35175 0.0
H1834 H 0.35954 0.05024 0.37292 0.0
C1835 C 0.33439 0.07609 0.45331 0.0
C1836 C 0.70806 0.59722 0.14245 0.0
C1837 C 0.71295 0.60136 0.17918 0.0
H1838 H 0.68397 0.57377 0.10177 0.0
C1839 C 0.69509 0.58466 0.20332 0.0
H1840 H 0.72111 0.60958 0.12291 0.0
C1841 C 0.67412 0.56339 0.19114 0.0
C1842 C 0.67009 0.55839 0.15442 0.0
H1843 H 0.69742 0.58763 0.23182 0.0
H1844 H 0.66171 0.55039 0.2107 0.0
C1845 C 0.68684 0.57619 0.13027 0.0
C1846 C 0.17362 0.95791 0.8928 0.0
C1847 C 0.16993 0.96326 0.9295 0.0
H1848 H 0.19655 0.9333 0.85214 0.0
C1849 C 0.18693 0.94569 0.95366 0.0
H1850 H 0.16102 0.97072 0.87323 0.0
C1851 C 0.20804 0.92455 0.94148 0.0
C1852 C 0.21258 0.92007 0.90476 0.0
H1853 H 0.18433 0.94838 0.98217 0.0
H1854 H 0.22129 0.91239 0.96102 0.0
C1855 C 0.19448 0.93653 0.88063 0.0
loop_
_geom_bond_atom_site_label_1
_geom_bond_atom_site_label_2
_geom_bond_distance
_geom_bond_site_symmetry_2
_ccdc_geom_bond_type
C0 C1 1.351 . S
C0 N3 1.368 . S
C0 H5 0.931 . S
C1 C0 1.351 . S
C1 N2 1.373 . S
C1 H29 0.930 . S
N2 C1 1.373 . S
N2 C4 1.340 . S
N3 C0 1.368 . S
N3 C4 1.321 . S
N3 Co6 2.135 . S
C4 N2 1.340 . S
C4 N3 1.321 . S
C4 H28 0.930 . S
H5 C0 0.931 . S
Co6 N3 2.135 . S
Co6 N9 2.121 . S
Co6 O14 2.055 . S
Co6 O17 2.039 . S
Co6 N20 2.140 . S
C7 O8 1.227 . S
C7 O17 1.265 . S
O8 C7 1.227 . S
N9 Co6 2.121 . S
N9 C11 1.375 . S
N9 C12 1.313 . S
C10 C11 1.338 . S
C10 N13 1.377 . S
C10 H30 0.930 . S
C11 N9 1.375 . S
C11 C10 1.338 . S
C11 H15 0.931 . S
C12 N9 1.313 . S
C12 N13 1.344 . S
C12 H16 0.930 . S
N13 C10 1.377 . S
N13 C12 1.344 . S
O14 Co6 2.055 . S
O14 C18 1.253 . S
H15 C11 0.931 . S
H16 C12 0.930 . S
O17 Co6 2.039 . S
O17 C7 1.265 . S
C18 O14 1.253 . S
C18 O19 1.227 . S
O19 C18 1.227 . S
N20 Co6 2.140 . S
N20 C23 1.346 . S
N20 C24 1.345 . S
C21 C22 1.387 . S
C21 C25 1.391 . S
C22 C21 1.387 . S
C22 C23 1.369 . S
C22 H31 0.929 . S
C23 N20 1.346 . S
C23 C22 1.369 . S
C23 H26 0.928 . S
C24 N20 1.345 . S
C24 C25 1.371 . S
C24 H27 0.931 . S
C25 C21 1.391 . S
C25 C24 1.371 . S
C25 H32 0.930 . S
H26 C23 0.928 . S
H27 C24 0.931 . S
H28 C4 0.930 . S
H29 C1 0.930 . S
H30 C10 0.930 . S
H31 C22 0.929 . S
H32 C25 0.930 . S
C33 C34 1.351 . S
C33 N36 1.368 . S
C33 H38 0.931 1_565 S
C34 C33 1.351 . S
C34 N35 1.373 . S
C34 H62 0.930 . S
N35 C34 1.373 . S
N35 C37 1.340 . S
N36 C33 1.368 . S
N36 C37 1.321 . S
N36 Co39 2.135 1_565 S
C37 N35 1.340 . S
C37 N36 1.321 . S
C37 H61 0.930 . S
H38 C33 0.931 1_545 S
Co39 N36 2.135 1_545 S
Co39 N42 2.121 . S
Co39 O47 2.055 . S
Co39 O50 2.039 . S
Co39 N53 2.140 . S
C40 O41 1.227 . S
C40 O50 1.265 . S
O41 C40 1.227 . S
N42 Co39 2.121 . S
N42 C44 1.375 . S
N42 C45 1.313 1_655 S
C43 C44 1.338 1_455 S
C43 N46 1.377 . S
C43 H63 0.930 . S
C44 N42 1.375 . S
C44 C43 1.338 1_655 S
C44 H48 0.931 . S
C45 N42 1.313 1_455 S
C45 N46 1.344 . S
C45 H49 0.930 . S
N46 C43 1.377 . S
N46 C45 1.344 . S
O47 Co39 2.055 . S
O47 C51 1.253 . S
H48 C44 0.931 . S
H49 C45 0.930 . S
O50 Co39 2.039 . S
O50 C40 1.265 . S
C51 O47 1.253 . S
C51 O52 1.227 . S
O52 C51 1.227 . S
N53 Co39 2.140 . S
N53 C56 1.346 . S
N53 C57 1.345 . S
C54 C55 1.387 . S
C54 C58 1.391 . S
C55 C54 1.387 . S
C55 C56 1.369 . S
C55 H64 0.929 . S
C56 N53 1.346 . S
C56 C55 1.369 . S
C56 H59 0.928 . S
C57 N53 1.345 . S
C57 C58 1.371 . S
C57 H60 0.931 . S
C58 C54 1.391 . S
C58 C57 1.371 . S
C58 H65 0.930 . S
H59 C56 0.928 . S
H60 C57 0.931 . S
H61 C37 0.930 . S
H62 C34 0.930 . S
H63 C43 0.930 . S
H64 C55 0.929 . S
H65 C58 0.930 . S
C66 C67 1.351 . S
C66 N69 1.368 . S
C66 H71 0.931 . S
C67 C66 1.351 . S
C67 N68 1.373 . S
C67 H95 0.930 . S
N68 C67 1.373 . S
N68 C70 1.340 . S
N69 C66 1.368 . S
N69 C70 1.321 . S
N69 Co72 2.135 . S
C70 N68 1.340 . S
C70 N69 1.321 . S
C70 H94 0.930 . S
H71 C66 0.931 . S
Co72 N69 2.135 . S
Co72 N75 2.121 . S
Co72 O80 2.055 . S
Co72 O83 2.039 . S
Co72 N86 2.140 . S
C73 O74 1.227 . S
C73 O83 1.265 . S
O74 C73 1.227 . S
N75 Co72 2.121 . S
N75 C77 1.375 . S
N75 C78 1.313 . S
C76 C77 1.338 . S
C76 N79 1.377 . S
C76 H96 0.930 . S
C77 N75 1.375 . S
C77 C76 1.338 . S
C77 H81 0.931 . S
C78 N75 1.313 . S
C78 N79 1.344 . S
C78 H82 0.930 . S
N79 C76 1.377 . S
N79 C78 1.344 . S
O80 Co72 2.055 . S
O80 C84 1.253 . S
H81 C77 0.931 . S
H82 C78 0.930 . S
O83 Co72 2.039 . S
O83 C73 1.265 . S
C84 O80 1.253 . S
C84 O85 1.227 . S
O85 C84 1.227 . S
N86 Co72 2.140 . S
N86 C89 1.346 . S
N86 C90 1.345 . S
C87 C88 1.387 . S
C87 C91 1.391 . S
C88 C87 1.387 . S
C88 C89 1.369 . S
C88 H97 0.929 . S
C89 N86 1.346 . S
C89 C88 1.369 . S
C89 H92 0.928 . S
C90 N86 1.345 . S
C90 C91 1.371 . S
C90 H93 0.931 . S
C91 C87 1.391 . S
C91 C90 1.371 . S
C91 H98 0.930 . S
H92 C89 0.928 . S
H93 C90 0.931 . S
H94 C70 0.930 . S
H95 C67 0.930 . S
H96 C76 0.930 . S
H97 C88 0.929 . S
H98 C91 0.930 . S
C99 C100 1.351 . S
C99 N102 1.368 . S
C99 H104 0.931 1_545 S
C100 C99 1.351 . S
C100 N101 1.373 . S
C100 H128 0.930 . S
N101 C100 1.373 . S
N101 C103 1.340 . S
N102 C99 1.368 . S
N102 C103 1.321 . S
N102 Co105 2.135 1_545 S
C103 N101 1.340 . S
C103 N102 1.321 . S
C103 H127 0.930 . S
H104 C99 0.931 1_565 S
Co105 N102 2.135 1_565 S
Co105 N108 2.121 . S
Co105 O113 2.055 . S
Co105 O116 2.039 . S
Co105 N119 2.140 . S
C106 O107 1.227 . S
C106 O116 1.265 . S
O107 C106 1.227 . S
N108 Co105 2.121 . S
N108 C110 1.375 . S
N108 C111 1.313 . S
C109 C110 1.338 . S
C109 N112 1.377 . S
C109 H129 0.930 . S
C110 N108 1.375 . S
C110 C109 1.338 . S
C110 H114 0.931 . S
C111 N108 1.313 . S
C111 N112 1.344 . S
C111 H115 0.930 . S
N112 C109 1.377 . S
N112 C111 1.344 . S
O113 Co105 2.055 . S
O113 C117 1.253 . S
H114 C110 0.931 . S
H115 C111 0.930 . S
O116 Co105 2.039 . S
O116 C106 1.265 . S
C117 O113 1.253 . S
C117 O118 1.227 . S
O118 C117 1.227 . S
N119 Co105 2.140 . S
N119 C122 1.346 . S
N119 C123 1.345 . S
C120 C121 1.387 . S
C120 C124 1.391 . S
C121 C120 1.387 . S
C121 C122 1.369 . S
C121 H130 0.929 . S
C122 N119 1.346 . S
C122 C121 1.369 . S
C122 H125 0.928 . S
C123 N119 1.345 . S
C123 C124 1.371 . S
C123 H126 0.931 . S
C124 C120 1.391 . S
C124 C123 1.371 . S
C124 H131 0.930 . S
H125 C122 0.928 . S
H126 C123 0.931 . S
H127 C103 0.930 . S
H128 C100 0.930 . S
H129 C109 0.930 . S
H130 C121 0.929 . S
H131 C124 0.930 . S
C132 C133 1.351 . S
C132 N135 1.368 . S
C132 H137 0.931 . S
C133 C132 1.351 . S
C133 N134 1.373 . S
C133 H161 0.930 . S
N134 C133 1.373 . S
N134 C136 1.340 . S
N135 C132 1.368 . S
N135 C136 1.321 . S
N135 Co138 2.135 . S
C136 N134 1.340 . S
C136 N135 1.321 . S
C136 H160 0.930 . S
H137 C132 0.931 . S
Co138 N135 2.135 . S
Co138 N141 2.121 . S
Co138 O146 2.055 . S
Co138 O149 2.039 . S
Co138 N152 2.140 . S
C139 O140 1.227 . S
C139 O149 1.265 . S
O140 C139 1.227 . S
N141 Co138 2.121 . S
N141 C143 1.375 . S
N141 C144 1.313 . S
C142 C143 1.338 . S
C142 N145 1.377 . S
C142 H162 0.930 . S
C143 N141 1.375 . S
C143 C142 1.338 . S
C143 H147 0.931 . S
C144 N141 1.313 . S
C144 N145 1.344 . S
C144 H148 0.930 . S
N145 C142 1.377 . S
N145 C144 1.344 . S
O146 Co138 2.055 . S
O146 C150 1.253 . S
H147 C143 0.931 . S
H148 C144 0.930 . S
O149 Co138 2.039 . S
O149 C139 1.265 . S
C150 O146 1.253 . S
C150 O151 1.227 . S
O151 C150 1.227 . S
N152 Co138 2.140 . S
N152 C155 1.346 . S
N152 C156 1.345 . S
C153 C154 1.387 . S
C153 C157 1.391 . S
C154 C153 1.387 . S
C154 C155 1.369 . S
C154 H163 0.929 . S
C155 N152 1.346 . S
C155 C154 1.369 . S
C155 H158 0.928 . S
C156 N152 1.345 . S
C156 C157 1.371 . S
C156 H159 0.931 . S
C157 C153 1.391 . S
C157 C156 1.371 . S
C157 H164 0.930 . S
H158 C155 0.928 . S
H159 C156 0.931 . S
H160 C136 0.930 . S
H161 C133 0.930 . S
H162 C142 0.930 . S
H163 C154 0.929 . S
H164 C157 0.930 . S
C165 C166 1.351 . S
C165 N168 1.368 . S
C165 H170 0.931 1_565 S
C166 C165 1.351 . S
C166 N167 1.373 . S
C166 H194 0.930 . S
N167 C166 1.373 . S
N167 C169 1.340 . S
N168 C165 1.368 . S
N168 C169 1.321 . S
N168 Co171 2.135 1_565 S
C169 N167 1.340 . S
C169 N168 1.321 . S
C169 H193 0.930 . S
H170 C165 0.931 1_545 S
Co171 N168 2.135 1_545 S
Co171 N174 2.121 . S
Co171 O179 2.055 . S
Co171 O182 2.039 . S
Co171 N185 2.140 . S
C172 O173 1.227 . S
C172 O182 1.265 . S
O173 C172 1.227 . S
N174 Co171 2.121 . S
N174 C176 1.375 . S
N174 C177 1.313 . S
C175 C176 1.338 . S
C175 N178 1.377 . S
C175 H195 0.930 . S
C176 N174 1.375 . S
C176 C175 1.338 . S
C176 H180 0.931 . S
C177 N174 1.313 . S
C177 N178 1.344 . S
C177 H181 0.930 . S
N178 C175 1.377 . S
N178 C177 1.344 . S
O179 Co171 2.055 . S
O179 C183 1.253 . S
H180 C176 0.931 . S
H181 C177 0.930 . S
O182 Co171 2.039 . S
O182 C172 1.265 . S
C183 O179 1.253 . S
C183 O184 1.227 . S
O184 C183 1.227 . S
N185 Co171 2.140 . S
N185 C188 1.346 . S
N185 C189 1.345 . S
C186 C187 1.387 . S
C186 C190 1.391 . S
C187 C186 1.387 . S
C187 C188 1.369 . S
C187 H196 0.929 . S
C188 N185 1.346 . S
C188 C187 1.369 . S
C188 H191 0.928 . S
C189 N185 1.345 . S
C189 C190 1.371 . S
C189 H192 0.931 . S
C190 C186 1.391 . S
C190 C189 1.371 . S
C190 H197 0.930 . S
H191 C188 0.928 . S
H192 C189 0.931 . S
H193 C169 0.930 . S
H194 C166 0.930 . S
H195 C175 0.930 . S
H196 C187 0.929 . S
H197 C190 0.930 . S
C198 C199 1.351 . S
C198 N201 1.368 . S
C198 H203 0.931 . S
C199 C198 1.351 . S
C199 N200 1.373 . S
C199 H227 0.930 . S
N200 C199 1.373 . S
N200 C202 1.340 . S
N201 C198 1.368 . S
N201 C202 1.321 . S
N201 Co204 2.135 . S
C202 N200 1.340 . S
C202 N201 1.321 . S
C202 H226 0.930 . S
H203 C198 0.931 . S
Co204 N201 2.135 . S
Co204 N207 2.121 . S
Co204 O212 2.055 . S
Co204 O215 2.039 . S
Co204 N218 2.140 . S
C205 O206 1.227 . S
C205 O215 1.265 . S
O206 C205 1.227 . S
N207 Co204 2.121 . S
N207 C209 1.375 . S
N207 C210 1.313 . S
C208 C209 1.338 . S
C208 N211 1.377 . S
C208 H228 0.930 . S
C209 N207 1.375 . S
C209 C208 1.338 . S
C209 H213 0.931 . S
C210 N207 1.313 . S
C210 N211 1.344 . S
C210 H214 0.930 . S
N211 C208 1.377 . S
N211 C210 1.344 . S
O212 Co204 2.055 . S
O212 C216 1.253 . S
H213 C209 0.931 . S
H214 C210 0.930 . S
O215 Co204 2.039 . S
O215 C205 1.265 . S
C216 O212 1.253 . S
C216 O217 1.227 . S
O217 C216 1.227 . S
N218 Co204 2.140 . S
N218 C221 1.346 . S
N218 C222 1.345 . S
C219 C220 1.387 . S
C219 C223 1.391 . S
C220 C219 1.387 . S
C220 C221 1.369 . S
C220 H229 0.929 . S
C221 N218 1.346 . S
C221 C220 1.369 . S
C221 H224 0.928 . S
C222 N218 1.345 . S
C222 C223 1.371 . S
C222 H225 0.931 . S
C223 C219 1.391 . S
C223 C222 1.371 . S
C223 H230 0.930 . S
H224 C221 0.928 . S
H225 C222 0.931 . S
H226 C202 0.930 . S
H227 C199 0.930 . S
H228 C208 0.930 . S
H229 C220 0.929 . S
H230 C223 0.930 . S
C231 C232 1.351 . S
C231 N234 1.368 . S
C231 H236 0.931 1_545 S
C232 C231 1.351 . S
C232 N233 1.373 . S
C232 H260 0.930 . S
N233 C232 1.373 . S
N233 C235 1.340 . S
N234 C231 1.368 . S
N234 C235 1.321 . S
N234 Co237 2.135 1_545 S
C235 N233 1.340 . S
C235 N234 1.321 . S
C235 H259 0.930 . S
H236 C231 0.931 1_565 S
Co237 N234 2.135 1_565 S
Co237 N240 2.121 . S
Co237 O245 2.055 . S
Co237 O248 2.039 . S
Co237 N251 2.140 . S
C238 O239 1.227 . S
C238 O248 1.265 . S
O239 C238 1.227 . S
N240 Co237 2.121 . S
N240 C242 1.375 . S
N240 C243 1.313 1_655 S
C241 C242 1.338 1_455 S
C241 N244 1.377 . S
C241 H261 0.930 . S
C242 N240 1.375 . S
C242 C241 1.338 1_655 S
C242 H246 0.931 . S
C243 N240 1.313 1_455 S
C243 N244 1.344 . S
C243 H247 0.930 . S
N244 C241 1.377 . S
N244 C243 1.344 . S
O245 Co237 2.055 . S
O245 C249 1.253 . S
H246 C242 0.931 . S
H247 C243 0.930 . S
O248 Co237 2.039 . S
O248 C238 1.265 . S
C249 O245 1.253 . S
C249 O250 1.227 . S
O250 C249 1.227 . S
N251 Co237 2.140 . S
N251 C254 1.346 . S
N251 C255 1.345 . S
C252 C253 1.387 . S
C252 C256 1.391 . S
C253 C252 1.387 . S
C253 C254 1.369 . S
C253 H262 0.929 . S
C254 N251 1.346 . S
C254 C253 1.369 . S
C254 H257 0.928 . S
C255 N251 1.345 . S
C255 C256 1.371 . S
C255 H258 0.931 . S
C256 C252 1.391 . S
C256 C255 1.371 . S
C256 H263 0.930 . S
H257 C254 0.928 . S
H258 C255 0.931 . S
H259 C235 0.930 . S
H260 C232 0.930 . S
H261 C241 0.930 . S
H262 C253 0.929 . S
H263 C256 0.930 . S
C264 C265 1.351 . S
C264 N267 1.368 . S
C264 H269 0.931 . S
C265 C264 1.351 . S
C265 N266 1.373 . S
C265 H293 0.930 . S
N266 C265 1.373 . S
N266 C268 1.340 . S
N267 C264 1.368 . S
N267 C268 1.321 . S
N267 Co270 2.135 . S
C268 N266 1.340 . S
C268 N267 1.321 . S
C268 H292 0.930 . S
H269 C264 0.931 . S
Co270 N267 2.135 . S
Co270 N273 2.121 . S
Co270 O278 2.055 . S
Co270 O281 2.039 . S
Co270 N284 2.140 . S
C271 O272 1.227 . S
C271 O281 1.265 . S
O272 C271 1.227 . S
N273 Co270 2.121 . S
N273 C275 1.375 . S
N273 C276 1.313 . S
C274 C275 1.338 . S
C274 N277 1.377 . S
C274 H294 0.930 . S
C275 N273 1.375 . S
C275 C274 1.338 . S
C275 H279 0.931 . S
C276 N273 1.313 . S
C276 N277 1.344 . S
C276 H280 0.930 . S
N277 C274 1.377 . S
N277 C276 1.344 . S
O278 Co270 2.055 . S
O278 C282 1.253 . S
H279 C275 0.931 . S
H280 C276 0.930 . S
O281 Co270 2.039 . S
O281 C271 1.265 . S
C282 O278 1.253 . S
C282 O283 1.227 . S
O283 C282 1.227 . S
N284 Co270 2.140 . S
N284 C287 1.346 . S
N284 C288 1.345 . S
C285 C286 1.387 . S
C285 C289 1.391 . S
C286 C285 1.387 . S
C286 C287 1.369 . S
C286 H295 0.929 . S
C287 N284 1.346 . S
C287 C286 1.369 . S
C287 H290 0.928 . S
C288 N284 1.345 . S
C288 C289 1.371 . S
C288 H291 0.931 . S
C289 C285 1.391 . S
C289 C288 1.371 . S
C289 H296 0.930 . S
H290 C287 0.928 . S
H291 C288 0.931 . S
H292 C268 0.930 . S
H293 C265 0.930 . S
H294 C274 0.930 . S
H295 C286 0.929 . S
H296 C289 0.930 . S
C297 C298 1.351 . S
C297 N300 1.368 . S
C297 H302 0.931 1_545 S
C298 C297 1.351 . S
C298 N299 1.373 . S
C298 H326 0.930 . S
N299 C298 1.373 . S
N299 C301 1.340 . S
N300 C297 1.368 . S
N300 C301 1.321 . S
N300 Co303 2.135 1_545 S
C301 N299 1.340 . S
C301 N300 1.321 . S
C301 H325 0.930 . S
H302 C297 0.931 1_565 S
Co303 N300 2.135 1_565 S
Co303 N306 2.121 . S
Co303 O311 2.055 . S
Co303 O314 2.039 . S
Co303 N317 2.140 . S
C304 O305 1.227 . S
C304 O314 1.265 . S
O305 C304 1.227 . S
N306 Co303 2.121 . S
N306 C308 1.375 . S
N306 C309 1.313 1_455 S
C307 C308 1.338 1_655 S
C307 N310 1.377 . S
C307 H327 0.930 . S
C308 N306 1.375 . S
C308 C307 1.338 1_455 S
C308 H312 0.931 . S
C309 N306 1.313 1_655 S
C309 N310 1.344 . S
C309 H313 0.930 . S
N310 C307 1.377 . S
N310 C309 1.344 . S
O311 Co303 2.055 . S
O311 C315 1.253 . S
H312 C308 0.931 . S
H313 C309 0.930 . S
O314 Co303 2.039 . S
O314 C304 1.265 . S
C315 O311 1.253 . S
C315 O316 1.227 . S
O316 C315 1.227 . S
N317 Co303 2.140 . S
N317 C320 1.346 . S
N317 C321 1.345 . S
C318 C319 1.387 . S
C318 C322 1.391 . S
C319 C318 1.387 . S
C319 C320 1.369 . S
C319 H328 0.929 . S
C320 N317 1.346 . S
C320 C319 1.369 . S
C320 H323 0.928 . S
C321 N317 1.345 . S
C321 C322 1.371 . S
C321 H324 0.931 . S
C322 C318 1.391 . S
C322 C321 1.371 . S
C322 H329 0.930 . S
H323 C320 0.928 . S
H324 C321 0.931 . S
H325 C301 0.930 . S
H326 C298 0.930 . S
H327 C307 0.930 . S
H328 C319 0.929 . S
H329 C322 0.930 . S
C330 C331 1.351 . S
C330 N333 1.368 . S
C330 H335 0.931 . S
C331 C330 1.351 . S
C331 N332 1.373 . S
C331 H359 0.930 . S
N332 C331 1.373 . S
N332 C334 1.340 . S
N333 C330 1.368 . S
N333 C334 1.321 . S
N333 Co336 2.135 . S
C334 N332 1.340 . S
C334 N333 1.321 . S
C334 H358 0.930 . S
H335 C330 0.931 . S
Co336 N333 2.135 . S
Co336 N339 2.121 . S
Co336 O344 2.055 . S
Co336 O347 2.039 . S
Co336 N350 2.140 . S
C337 O338 1.227 . S
C337 O347 1.265 . S
O338 C337 1.227 . S
N339 Co336 2.121 . S
N339 C341 1.375 . S
N339 C342 1.313 . S
C340 C341 1.338 . S
C340 N343 1.377 . S
C340 H360 0.930 . S
C341 N339 1.375 . S
C341 C340 1.338 . S
C341 H345 0.931 . S
C342 N339 1.313 . S
C342 N343 1.344 . S
C342 H346 0.930 . S
N343 C340 1.377 . S
N343 C342 1.344 . S
O344 Co336 2.055 . S
O344 C348 1.253 . S
H345 C341 0.931 . S
H346 C342 0.930 . S
O347 Co336 2.039 . S
O347 C337 1.265 . S
C348 O344 1.253 . S
C348 O349 1.227 . S
O349 C348 1.227 . S
N350 Co336 2.140 . S
N350 C353 1.346 . S
N350 C354 1.345 . S
C351 C352 1.387 . S
C351 C355 1.391 . S
C352 C351 1.387 . S
C352 C353 1.369 . S
C352 H361 0.929 . S
C353 N350 1.346 . S
C353 C352 1.369 . S
C353 H356 0.928 . S
C354 N350 1.345 . S
C354 C355 1.371 . S
C354 H357 0.931 . S
C355 C351 1.391 . S
C355 C354 1.371 . S
C355 H362 0.930 . S
H356 C353 0.928 . S
H357 C354 0.931 . S
H358 C334 0.930 . S
H359 C331 0.930 . S
H360 C340 0.930 . S
H361 C352 0.929 . S
H362 C355 0.930 . S
C363 C364 1.351 . S
C363 N366 1.368 . S
C363 H368 0.931 1_565 S
C364 C363 1.351 . S
C364 N365 1.373 . S
C364 H392 0.930 . S
N365 C364 1.373 . S
N365 C367 1.340 . S
N366 C363 1.368 . S
N366 C367 1.321 . S
N366 Co369 2.135 1_565 S
C367 N365 1.340 . S
C367 N366 1.321 . S
C367 H391 0.930 . S
H368 C363 0.931 1_545 S
Co369 N366 2.135 1_545 S
Co369 N372 2.121 . S
Co369 O377 2.055 . S
Co369 O380 2.039 . S
Co369 N383 2.140 . S
C370 O371 1.227 . S
C370 O380 1.265 . S
O371 C370 1.227 . S
N372 Co369 2.121 . S
N372 C374 1.375 . S
N372 C375 1.313 . S
C373 C374 1.338 . S
C373 N376 1.377 . S
C373 H393 0.930 . S
C374 N372 1.375 . S
C374 C373 1.338 . S
C374 H378 0.931 . S
C375 N372 1.313 . S
C375 N376 1.344 . S
C375 H379 0.930 . S
N376 C373 1.377 . S
N376 C375 1.344 . S
O377 Co369 2.055 . S
O377 C381 1.253 . S
H378 C374 0.931 . S
H379 C375 0.930 . S
O380 Co369 2.039 . S
O380 C370 1.265 . S
C381 O377 1.253 . S
C381 O382 1.227 . S
O382 C381 1.227 . S
N383 Co369 2.140 . S
N383 C386 1.346 . S
N383 C387 1.345 . S
C384 C385 1.387 . S
C384 C388 1.391 . S
C385 C384 1.387 . S
C385 C386 1.369 . S
C385 H394 0.929 . S
C386 N383 1.346 . S
C386 C385 1.369 . S
C386 H389 0.928 . S
C387 N383 1.345 . S
C387 C388 1.371 . S
C387 H390 0.931 . S
C388 C384 1.391 . S
C388 C387 1.371 . S
C388 H395 0.930 . S
H389 C386 0.928 . S
H390 C387 0.931 . S
H391 C367 0.930 . S
H392 C364 0.930 . S
H393 C373 0.930 . S
H394 C385 0.929 . S
H395 C388 0.930 . S
C396 C397 1.351 . S
C396 N399 1.368 . S
C396 H401 0.931 . S
C397 C396 1.351 . S
C397 N398 1.373 . S
C397 H425 0.930 . S
N398 C397 1.373 . S
N398 C400 1.340 . S
N399 C396 1.368 . S
N399 C400 1.321 . S
N399 Co402 2.135 . S
C400 N398 1.340 . S
C400 N399 1.321 . S
C400 H424 0.930 . S
H401 C396 0.931 . S
Co402 N399 2.135 . S
Co402 N405 2.121 . S
Co402 O410 2.055 . S
Co402 O413 2.039 . S
Co402 N416 2.140 . S
C403 O404 1.227 . S
C403 O413 1.265 . S
O404 C403 1.227 . S
N405 Co402 2.121 . S
N405 C407 1.375 . S
N405 C408 1.313 . S
C406 C407 1.338 . S
C406 N409 1.377 . S
C406 H426 0.930 . S
C407 N405 1.375 . S
C407 C406 1.338 . S
C407 H411 0.931 . S
C408 N405 1.313 . S
C408 N409 1.344 . S
C408 H412 0.930 . S
N409 C406 1.377 . S
N409 C408 1.344 . S
O410 Co402 2.055 . S
O410 C414 1.253 . S
H411 C407 0.931 . S
H412 C408 0.930 . S
O413 Co402 2.039 . S
O413 C403 1.265 . S
C414 O410 1.253 . S
C414 O415 1.227 . S
O415 C414 1.227 . S
N416 Co402 2.140 . S
N416 C419 1.346 . S
N416 C420 1.345 . S
C417 C418 1.387 . S
C417 C421 1.391 . S
C418 C417 1.387 . S
C418 C419 1.369 . S
C418 H427 0.929 . S
C419 N416 1.346 . S
C419 C418 1.369 . S
C419 H422 0.928 . S
C420 N416 1.345 . S
C420 C421 1.371 . S
C420 H423 0.931 . S
C421 C417 1.391 . S
C421 C420 1.371 . S
C421 H428 0.930 . S
H422 C419 0.928 . S
H423 C420 0.931 . S
H424 C400 0.930 . S
H425 C397 0.930 . S
H426 C406 0.930 . S
H427 C418 0.929 . S
H428 C421 0.930 . S
C429 C430 1.351 . S
C429 N432 1.368 . S
C429 H434 0.931 1_545 S
C430 C429 1.351 . S
C430 N431 1.373 . S
C430 H458 0.930 . S
N431 C430 1.373 . S
N431 C433 1.340 . S
N432 C429 1.368 . S
N432 C433 1.321 . S
N432 Co435 2.135 1_545 S
C433 N431 1.340 . S
C433 N432 1.321 . S
C433 H457 0.930 . S
H434 C429 0.931 1_565 S
Co435 N432 2.135 1_565 S
Co435 N438 2.121 . S
Co435 O443 2.055 . S
Co435 O446 2.039 . S
Co435 N449 2.140 . S
C436 O437 1.227 . S
C436 O446 1.265 . S
O437 C436 1.227 . S
N438 Co435 2.121 . S
N438 C440 1.375 . S
N438 C441 1.313 . S
C439 C440 1.338 . S
C439 N442 1.377 . S
C439 H459 0.930 . S
C440 N438 1.375 . S
C440 C439 1.338 . S
C440 H444 0.931 . S
C441 N438 1.313 . S
C441 N442 1.344 . S
C441 H445 0.930 . S
N442 C439 1.377 . S
N442 C441 1.344 . S
O443 Co435 2.055 . S
O443 C447 1.253 . S
H444 C440 0.931 . S
H445 C441 0.930 . S
O446 Co435 2.039 . S
O446 C436 1.265 . S
C447 O443 1.253 . S
C447 O448 1.227 . S
O448 C447 1.227 . S
N449 Co435 2.140 . S
N449 C452 1.346 . S
N449 C453 1.345 . S
C450 C451 1.387 . S
C450 C454 1.391 . S
C451 C450 1.387 . S
C451 C452 1.369 . S
C451 H460 0.929 . S
C452 N449 1.346 . S
C452 C451 1.369 . S
C452 H455 0.928 . S
C453 N449 1.345 . S
C453 C454 1.371 . S
C453 H456 0.931 . S
C454 C450 1.391 . S
C454 C453 1.371 . S
C454 H461 0.930 . S
H455 C452 0.928 . S
H456 C453 0.931 . S
H457 C433 0.930 . S
H458 C430 0.930 . S
H459 C439 0.930 . S
H460 C451 0.929 . S
H461 C454 0.930 . S
C462 C463 1.351 . S
C462 N465 1.368 . S
C462 H467 0.931 . S
C463 C462 1.351 . S
C463 N464 1.373 . S
C463 H491 0.930 . S
N464 C463 1.373 . S
N464 C466 1.340 . S
N465 C462 1.368 . S
N465 C466 1.321 . S
N465 Co468 2.135 . S
C466 N464 1.340 . S
C466 N465 1.321 . S
C466 H490 0.930 . S
H467 C462 0.931 . S
Co468 N465 2.135 . S
Co468 N471 2.121 . S
Co468 O476 2.055 . S
Co468 O479 2.039 . S
Co468 N482 2.140 . S
C469 O470 1.227 . S
C469 O479 1.265 . S
O470 C469 1.227 . S
N471 Co468 2.121 . S
N471 C473 1.375 . S
N471 C474 1.313 . S
C472 C473 1.338 . S
C472 N475 1.377 . S
C472 H492 0.930 . S
C473 N471 1.375 . S
C473 C472 1.338 . S
C473 H477 0.931 . S
C474 N471 1.313 . S
C474 N475 1.344 . S
C474 H478 0.930 . S
N475 C472 1.377 . S
N475 C474 1.344 . S
O476 Co468 2.055 . S
O476 C480 1.253 . S
H477 C473 0.931 . S
H478 C474 0.930 . S
O479 Co468 2.039 . S
O479 C469 1.265 . S
C480 O476 1.253 . S
C480 O481 1.227 . S
O481 C480 1.227 . S
N482 Co468 2.140 . S
N482 C485 1.346 . S
N482 C486 1.345 . S
C483 C484 1.387 . S
C483 C487 1.391 . S
C484 C483 1.387 . S
C484 C485 1.369 . S
C484 H493 0.929 . S
C485 N482 1.346 . S
C485 C484 1.369 . S
C485 H488 0.928 . S
C486 N482 1.345 . S
C486 C487 1.371 . S
C486 H489 0.931 . S
C487 C483 1.391 . S
C487 C486 1.371 . S
C487 H494 0.930 . S
H488 C485 0.928 . S
H489 C486 0.931 . S
H490 C466 0.930 . S
H491 C463 0.930 . S
H492 C472 0.930 . S
H493 C484 0.929 . S
H494 C487 0.930 . S
C495 C496 1.351 . S
C495 N498 1.368 . S
C495 H500 0.931 1_565 S
C496 C495 1.351 . S
C496 N497 1.373 . S
C496 H524 0.930 . S
N497 C496 1.373 . S
N497 C499 1.340 . S
N498 C495 1.368 . S
N498 C499 1.321 . S
N498 Co501 2.135 1_565 S
C499 N497 1.340 . S
C499 N498 1.321 . S
C499 H523 0.930 . S
H500 C495 0.931 1_545 S
Co501 N498 2.135 1_545 S
Co501 N504 2.121 . S
Co501 O509 2.055 . S
Co501 O512 2.039 . S
Co501 N515 2.140 . S
C502 O503 1.227 . S
C502 O512 1.265 . S
O503 C502 1.227 . S
N504 Co501 2.121 . S
N504 C506 1.375 . S
N504 C507 1.313 1_455 S
C505 C506 1.338 1_655 S
C505 N508 1.377 . S
C505 H525 0.930 . S
C506 N504 1.375 . S
C506 C505 1.338 1_455 S
C506 H510 0.931 . S
C507 N504 1.313 1_655 S
C507 N508 1.344 . S
C507 H511 0.930 . S
N508 C505 1.377 . S
N508 C507 1.344 . S
O509 Co501 2.055 . S
O509 C513 1.253 . S
H510 C506 0.931 . S
H511 C507 0.930 . S
O512 Co501 2.039 . S
O512 C502 1.265 . S
C513 O509 1.253 . S
C513 O514 1.227 . S
O514 C513 1.227 . S
N515 Co501 2.140 . S
N515 C518 1.346 . S
N515 C519 1.345 . S
C516 C517 1.387 . S
C516 C520 1.391 . S
C517 C516 1.387 . S
C517 C518 1.369 . S
C517 H526 0.929 . S
C518 N515 1.346 . S
C518 C517 1.369 . S
C518 H521 0.928 . S
C519 N515 1.345 . S
C519 C520 1.371 . S
C519 H522 0.931 . S
C520 C516 1.391 . S
C520 C519 1.371 . S
C520 H527 0.930 . S
H521 C518 0.928 . S
H522 C519 0.931 . S
H523 C499 0.930 . S
H524 C496 0.930 . S
H525 C505 0.930 . S
H526 C517 0.929 . S
H527 C520 0.930 . S
C528 C529 1.351 . S
C528 N531 1.368 . S
C528 H533 0.931 . S
C529 C528 1.351 . S
C529 N530 1.373 . S
C529 H557 0.930 . S
N530 C529 1.373 . S
N530 C532 1.340 . S
N531 C528 1.368 . S
N531 C532 1.321 . S
N531 Co534 2.135 . S
C532 N530 1.340 . S
C532 N531 1.321 . S
C532 H556 0.930 . S
H533 C528 0.931 . S
Co534 N531 2.135 . S
Co534 N537 2.121 . S
Co534 O542 2.055 . S
Co534 O545 2.039 . S
Co534 N548 2.140 . S
C535 O536 1.227 . S
C535 O545 1.265 . S
O536 C535 1.227 . S
N537 Co534 2.121 . S
N537 C539 1.375 . S
N537 C540 1.313 . S
C538 C539 1.338 . S
C538 N541 1.377 . S
C538 H558 0.930 . S
C539 N537 1.375 . S
C539 C538 1.338 . S
C539 H543 0.931 . S
C540 N537 1.313 . S
C540 N541 1.344 . S
C540 H544 0.930 . S
N541 C538 1.377 . S
N541 C540 1.344 . S
O542 Co534 2.055 . S
O542 C546 1.253 . S
H543 C539 0.931 . S
H544 C540 0.930 . S
O545 Co534 2.039 . S
O545 C535 1.265 . S
C546 O542 1.253 . S
C546 O547 1.227 . S
O547 C546 1.227 . S
N548 Co534 2.140 . S
N548 C551 1.346 . S
N548 C552 1.345 . S
C549 C550 1.387 . S
C549 C553 1.391 . S
C550 C549 1.387 . S
C550 C551 1.369 . S
C550 H559 0.929 . S
C551 N548 1.346 . S
C551 C550 1.369 . S
C551 H554 0.928 . S
C552 N548 1.345 . S
C552 C553 1.371 . S
C552 H555 0.931 . S
C553 C549 1.391 . S
C553 C552 1.371 . S
C553 H560 0.930 . S
H554 C551 0.928 . S
H555 C552 0.931 . S
H556 C532 0.930 . S
H557 C529 0.930 . S
H558 C538 0.930 . S
H559 C550 0.929 . S
H560 C553 0.930 . S
C561 C562 1.351 . S
C561 N564 1.368 . S
C561 H566 0.931 . S
C562 C561 1.351 . S
C562 N563 1.373 . S
C562 H590 0.930 . S
N563 C562 1.373 . S
N563 C565 1.340 . S
N564 C561 1.368 . S
N564 C565 1.321 . S
N564 Co567 2.135 . S
C565 N563 1.340 . S
C565 N564 1.321 . S
C565 H589 0.930 . S
H566 C561 0.931 . S
Co567 N564 2.135 . S
Co567 N570 2.121 . S
Co567 O575 2.055 . S
Co567 O578 2.039 . S
Co567 N581 2.140 . S
C568 O569 1.227 . S
C568 O578 1.265 . S
O569 C568 1.227 . S
N570 Co567 2.121 . S
N570 C572 1.375 . S
N570 C573 1.313 . S
C571 C572 1.338 . S
C571 N574 1.377 . S
C571 H591 0.930 . S
C572 N570 1.375 . S
C572 C571 1.338 . S
C572 H576 0.931 . S
C573 N570 1.313 . S
C573 N574 1.344 . S
C573 H577 0.930 . S
N574 C571 1.377 . S
N574 C573 1.344 . S
O575 Co567 2.055 . S
O575 C579 1.253 . S
H576 C572 0.931 . S
H577 C573 0.930 . S
O578 Co567 2.039 . S
O578 C568 1.265 . S
C579 O575 1.253 . S
C579 O580 1.227 . S
O580 C579 1.227 . S
N581 Co567 2.140 . S
N581 C584 1.346 . S
N581 C585 1.345 . S
C582 C583 1.387 . S
C582 C586 1.391 . S
C583 C582 1.387 . S
C583 C584 1.369 . S
C583 H592 0.929 . S
C584 N581 1.346 . S
C584 C583 1.369 . S
C584 H587 0.928 . S
C585 N581 1.345 . S
C585 C586 1.371 . S
C585 H588 0.931 . S
C586 C582 1.391 . S
C586 C585 1.371 . S
C586 H593 0.930 . S
H587 C584 0.928 . S
H588 C585 0.931 . S
H589 C565 0.930 . S
H590 C562 0.930 . S
H591 C571 0.930 . S
H592 C583 0.929 . S
H593 C586 0.930 . S
C594 C595 1.351 . S
C594 N597 1.368 . S
C594 H599 0.931 . S
C595 C594 1.351 . S
C595 N596 1.373 . S
C595 H623 0.930 . S
N596 C595 1.373 . S
N596 C598 1.340 . S
N597 C594 1.368 . S
N597 C598 1.321 . S
N597 Co600 2.135 . S
C598 N596 1.340 . S
C598 N597 1.321 . S
C598 H622 0.930 . S
H599 C594 0.931 . S
Co600 N597 2.135 . S
Co600 N603 2.121 . S
Co600 O608 2.055 . S
Co600 O611 2.039 . S
Co600 N614 2.140 . S
C601 O602 1.227 . S
C601 O611 1.265 . S
O602 C601 1.227 . S
N603 Co600 2.121 . S
N603 C605 1.375 . S
N603 C606 1.313 . S
C604 C605 1.338 . S
C604 N607 1.377 . S
C604 H624 0.930 . S
C605 N603 1.375 . S
C605 C604 1.338 . S
C605 H609 0.931 . S
C606 N603 1.313 . S
C606 N607 1.344 . S
C606 H610 0.930 . S
N607 C604 1.377 . S
N607 C606 1.344 . S
O608 Co600 2.055 . S
O608 C612 1.253 . S
H609 C605 0.931 . S
H610 C606 0.930 . S
O611 Co600 2.039 . S
O611 C601 1.265 . S
C612 O608 1.253 . S
C612 O613 1.227 . S
O613 C612 1.227 . S
N614 Co600 2.140 . S
N614 C617 1.346 . S
N614 C618 1.345 . S
C615 C616 1.387 . S
C615 C619 1.391 . S
C616 C615 1.387 . S
C616 C617 1.369 . S
C616 H625 0.929 . S
C617 N614 1.346 . S
C617 C616 1.369 . S
C617 H620 0.928 . S
C618 N614 1.345 . S
C618 C619 1.371 . S
C618 H621 0.931 . S
C619 C615 1.391 . S
C619 C618 1.371 . S
C619 H626 0.930 . S
H620 C617 0.928 . S
H621 C618 0.931 . S
H622 C598 0.930 . S
H623 C595 0.930 . S
H624 C604 0.930 . S
H625 C616 0.929 . S
H626 C619 0.930 . S
C627 C628 1.351 . S
C627 N630 1.368 . S
C627 H632 0.931 . S
C628 C627 1.351 . S
C628 N629 1.373 . S
C628 H656 0.930 . S
N629 C628 1.373 . S
N629 C631 1.340 . S
N630 C627 1.368 . S
N630 C631 1.321 . S
N630 Co633 2.135 . S
C631 N629 1.340 . S
C631 N630 1.321 . S
C631 H655 0.930 . S
H632 C627 0.931 . S
Co633 N630 2.135 . S
Co633 N636 2.121 . S
Co633 O641 2.055 . S
Co633 O644 2.039 . S
Co633 N647 2.140 . S
C634 O635 1.227 . S
C634 O644 1.265 . S
O635 C634 1.227 . S
N636 Co633 2.121 . S
N636 C638 1.375 . S
N636 C639 1.313 1_455 S
C637 C638 1.338 1_655 S
C637 N640 1.377 . S
C637 H657 0.930 . S
C638 N636 1.375 . S
C638 C637 1.338 1_455 S
C638 H642 0.931 . S
C639 N636 1.313 1_655 S
C639 N640 1.344 . S
C639 H643 0.930 . S
N640 C637 1.377 . S
N640 C639 1.344 . S
O641 Co633 2.055 . S
O641 C645 1.253 . S
H642 C638 0.931 . S
H643 C639 0.930 . S
O644 Co633 2.039 . S
O644 C634 1.265 . S
C645 O641 1.253 . S
C645 O646 1.227 . S
O646 C645 1.227 . S
N647 Co633 2.140 . S
N647 C650 1.346 . S
N647 C651 1.345 . S
C648 C649 1.387 . S
C648 C652 1.391 . S
C649 C648 1.387 . S
C649 C650 1.369 . S
C649 H658 0.929 . S
C650 N647 1.346 . S
C650 C649 1.369 . S
C650 H653 0.928 . S
C651 N647 1.345 . S
C651 C652 1.371 . S
C651 H654 0.931 . S
C652 C648 1.391 . S
C652 C651 1.371 . S
C652 H659 0.930 . S
H653 C650 0.928 . S
H654 C651 0.931 . S
H655 C631 0.930 . S
H656 C628 0.930 . S
H657 C637 0.930 . S
H658 C649 0.929 . S
H659 C652 0.930 . S
C660 C661 1.351 . S
C660 N663 1.368 . S
C660 H665 0.931 . S
C661 C660 1.351 . S
C661 N662 1.373 . S
C661 H689 0.930 . S
N662 C661 1.373 . S
N662 C664 1.340 . S
N663 C660 1.368 . S
N663 C664 1.321 . S
N663 Co666 2.135 . S
C664 N662 1.340 . S
C664 N663 1.321 . S
C664 H688 0.930 . S
H665 C660 0.931 . S
Co666 N663 2.135 . S
Co666 N669 2.121 . S
Co666 O674 2.055 . S
Co666 O677 2.039 . S
Co666 N680 2.140 . S
C667 O668 1.227 . S
C667 O677 1.265 . S
O668 C667 1.227 . S
N669 Co666 2.121 . S
N669 C671 1.375 . S
N669 C672 1.313 . S
C670 C671 1.338 . S
C670 N673 1.377 . S
C670 H690 0.930 . S
C671 N669 1.375 . S
C671 C670 1.338 . S
C671 H675 0.931 . S
C672 N669 1.313 . S
C672 N673 1.344 . S
C672 H676 0.930 . S
N673 C670 1.377 . S
N673 C672 1.344 . S
O674 Co666 2.055 . S
O674 C678 1.253 . S
H675 C671 0.931 . S
H676 C672 0.930 . S
O677 Co666 2.039 . S
O677 C667 1.265 . S
C678 O674 1.253 . S
C678 O679 1.227 . S
O679 C678 1.227 . S
N680 Co666 2.140 . S
N680 C683 1.346 . S
N680 C684 1.345 . S
C681 C682 1.387 . S
C681 C685 1.391 . S
C682 C681 1.387 . S
C682 C683 1.369 . S
C682 H691 0.929 . S
C683 N680 1.346 . S
C683 C682 1.369 . S
C683 H686 0.928 . S
C684 N680 1.345 . S
C684 C685 1.371 . S
C684 H687 0.931 . S
C685 C681 1.391 . S
C685 C684 1.371 . S
C685 H692 0.930 . S
H686 C683 0.928 . S
H687 C684 0.931 . S
H688 C664 0.930 . S
H689 C661 0.930 . S
H690 C670 0.930 . S
H691 C682 0.929 . S
H692 C685 0.930 . S
C693 C694 1.351 . S
C693 N696 1.368 . S
C693 H698 0.931 . S
C694 C693 1.351 . S
C694 N695 1.373 . S
C694 H722 0.930 . S
N695 C694 1.373 . S
N695 C697 1.340 . S
N696 C693 1.368 . S
N696 C697 1.321 . S
N696 Co699 2.135 . S
C697 N695 1.340 . S
C697 N696 1.321 . S
C697 H721 0.930 . S
H698 C693 0.931 . S
Co699 N696 2.135 . S
Co699 N702 2.121 . S
Co699 O707 2.055 . S
Co699 O710 2.039 . S
Co699 N713 2.140 . S
C700 O701 1.227 . S
C700 O710 1.265 . S
O701 C700 1.227 . S
N702 Co699 2.121 . S
N702 C704 1.375 . S
N702 C705 1.313 1_455 S
C703 C704 1.338 1_655 S
C703 N706 1.377 . S
C703 H723 0.930 . S
C704 N702 1.375 . S
C704 C703 1.338 1_455 S
C704 H708 0.931 . S
C705 N702 1.313 1_655 S
C705 N706 1.344 . S
C705 H709 0.930 . S
N706 C703 1.377 . S
N706 C705 1.344 . S
O707 Co699 2.055 . S
O707 C711 1.253 . S
H708 C704 0.931 . S
H709 C705 0.930 . S
O710 Co699 2.039 . S
O710 C700 1.265 . S
C711 O707 1.253 . S
C711 O712 1.227 . S
O712 C711 1.227 . S
N713 Co699 2.140 . S
N713 C716 1.346 . S
N713 C717 1.345 . S
C714 C715 1.387 . S
C714 C718 1.391 . S
C715 C714 1.387 . S
C715 C716 1.369 . S
C715 H724 0.929 . S
C716 N713 1.346 . S
C716 C715 1.369 . S
C716 H719 0.928 . S
C717 N713 1.345 . S
C717 C718 1.371 . S
C717 H720 0.931 . S
C718 C714 1.391 . S
C718 C717 1.371 . S
C718 H725 0.930 . S
H719 C716 0.928 . S
H720 C717 0.931 . S
H721 C697 0.930 . S
H722 C694 0.930 . S
H723 C703 0.930 . S
H724 C715 0.929 . S
H725 C718 0.930 . S
C726 C727 1.351 . S
C726 N729 1.368 . S
C726 H731 0.931 . S
C727 C726 1.351 . S
C727 N728 1.373 . S
C727 H755 0.930 . S
N728 C727 1.373 . S
N728 C730 1.340 . S
N729 C726 1.368 . S
N729 C730 1.321 . S
N729 Co732 2.135 . S
C730 N728 1.340 . S
C730 N729 1.321 . S
C730 H754 0.930 . S
H731 C726 0.931 . S
Co732 N729 2.135 . S
Co732 N735 2.121 . S
Co732 O740 2.055 . S
Co732 O743 2.039 . S
Co732 N746 2.140 . S
C733 O734 1.227 . S
C733 O743 1.265 . S
O734 C733 1.227 . S
N735 Co732 2.121 . S
N735 C737 1.375 . S
N735 C738 1.313 . S
C736 C737 1.338 . S
C736 N739 1.377 . S
C736 H756 0.930 . S
C737 N735 1.375 . S
C737 C736 1.338 . S
C737 H741 0.931 . S
C738 N735 1.313 . S
C738 N739 1.344 . S
C738 H742 0.930 . S
N739 C736 1.377 . S
N739 C738 1.344 . S
O740 Co732 2.055 . S
O740 C744 1.253 . S
H741 C737 0.931 . S
H742 C738 0.930 . S
O743 Co732 2.039 . S
O743 C733 1.265 . S
C744 O740 1.253 . S
C744 O745 1.227 . S
O745 C744 1.227 . S
N746 Co732 2.140 . S
N746 C749 1.346 . S
N746 C750 1.345 . S
C747 C748 1.387 . S
C747 C751 1.391 . S
C748 C747 1.387 . S
C748 C749 1.369 . S
C748 H757 0.929 . S
C749 N746 1.346 . S
C749 C748 1.369 . S
C749 H752 0.928 . S
C750 N746 1.345 . S
C750 C751 1.371 . S
C750 H753 0.931 . S
C751 C747 1.391 . S
C751 C750 1.371 . S
C751 H758 0.930 . S
H752 C749 0.928 . S
H753 C750 0.931 . S
H754 C730 0.930 . S
H755 C727 0.930 . S
H756 C736 0.930 . S
H757 C748 0.929 . S
H758 C751 0.930 . S
C759 C760 1.351 . S
C759 N762 1.368 . S
C759 H764 0.931 . S
C760 C759 1.351 . S
C760 N761 1.373 . S
C760 H788 0.930 . S
N761 C760 1.373 . S
N761 C763 1.340 . S
N762 C759 1.368 . S
N762 C763 1.321 . S
N762 Co765 2.135 . S
C763 N761 1.340 . S
C763 N762 1.321 . S
C763 H787 0.930 . S
H764 C759 0.931 . S
Co765 N762 2.135 . S
Co765 N768 2.121 . S
Co765 O773 2.055 . S
Co765 O776 2.039 . S
Co765 N779 2.140 . S
C766 O767 1.227 . S
C766 O776 1.265 . S
O767 C766 1.227 . S
N768 Co765 2.121 . S
N768 C770 1.375 . S
N768 C771 1.313 . S
C769 C770 1.338 . S
C769 N772 1.377 . S
C769 H789 0.930 . S
C770 N768 1.375 . S
C770 C769 1.338 . S
C770 H774 0.931 . S
C771 N768 1.313 . S
C771 N772 1.344 . S
C771 H775 0.930 . S
N772 C769 1.377 . S
N772 C771 1.344 . S
O773 Co765 2.055 . S
O773 C777 1.253 . S
H774 C770 0.931 . S
H775 C771 0.930 . S
O776 Co765 2.039 . S
O776 C766 1.265 . S
C777 O773 1.253 . S
C777 O778 1.227 . S
O778 C777 1.227 . S
N779 Co765 2.140 . S
N779 C782 1.346 . S
N779 C783 1.345 . S
C780 C781 1.387 . S
C780 C784 1.391 . S
C781 C780 1.387 . S
C781 C782 1.369 . S
C781 H790 0.929 . S
C782 N779 1.346 . S
C782 C781 1.369 . S
C782 H785 0.928 . S
C783 N779 1.345 . S
C783 C784 1.371 . S
C783 H786 0.931 . S
C784 C780 1.391 . S
C784 C783 1.371 . S
C784 H791 0.930 . S
H785 C782 0.928 . S
H786 C783 0.931 . S
H787 C763 0.930 . S
H788 C760 0.930 . S
H789 C769 0.930 . S
H790 C781 0.929 . S
H791 C784 0.930 . S
C792 C793 1.351 . S
C792 N795 1.368 . S
C792 H797 0.931 . S
C793 C792 1.351 . S
C793 N794 1.373 . S
C793 H821 0.930 . S
N794 C793 1.373 . S
N794 C796 1.340 . S
N795 C792 1.368 . S
N795 C796 1.321 . S
N795 Co798 2.135 . S
C796 N794 1.340 . S
C796 N795 1.321 . S
C796 H820 0.930 . S
H797 C792 0.931 . S
Co798 N795 2.135 . S
Co798 N801 2.121 . S
Co798 O806 2.055 . S
Co798 O809 2.039 . S
Co798 N812 2.140 . S
C799 O800 1.227 . S
C799 O809 1.265 . S
O800 C799 1.227 . S
N801 Co798 2.121 . S
N801 C803 1.375 . S
N801 C804 1.313 . S
C802 C803 1.338 . S
C802 N805 1.377 . S
C802 H822 0.930 . S
C803 N801 1.375 . S
C803 C802 1.338 . S
C803 H807 0.931 . S
C804 N801 1.313 . S
C804 N805 1.344 . S
C804 H808 0.930 . S
N805 C802 1.377 . S
N805 C804 1.344 . S
O806 Co798 2.055 . S
O806 C810 1.253 . S
H807 C803 0.931 . S
H808 C804 0.930 . S
O809 Co798 2.039 . S
O809 C799 1.265 . S
C810 O806 1.253 . S
C810 O811 1.227 . S
O811 C810 1.227 . S
N812 Co798 2.140 . S
N812 C815 1.346 . S
N812 C816 1.345 . S
C813 C814 1.387 . S
C813 C817 1.391 . S
C814 C813 1.387 . S
C814 C815 1.369 . S
C814 H823 0.929 . S
C815 N812 1.346 . S
C815 C814 1.369 . S
C815 H818 0.928 . S
C816 N812 1.345 . S
C816 C817 1.371 . S
C816 H819 0.931 . S
C817 C813 1.391 . S
C817 C816 1.371 . S
C817 H824 0.930 . S
H818 C815 0.928 . S
H819 C816 0.931 . S
H820 C796 0.930 . S
H821 C793 0.930 . S
H822 C802 0.930 . S
H823 C814 0.929 . S
H824 C817 0.930 . S
C825 C826 1.351 . S
C825 N828 1.368 . S
C825 H830 0.931 . S
C826 C825 1.351 . S
C826 N827 1.373 . S
C826 H854 0.930 . S
N827 C826 1.373 . S
N827 C829 1.340 . S
N828 C825 1.368 . S
N828 C829 1.321 . S
N828 Co831 2.135 . S
C829 N827 1.340 . S
C829 N828 1.321 . S
C829 H853 0.930 . S
H830 C825 0.931 . S
Co831 N828 2.135 . S
Co831 N834 2.121 . S
Co831 O839 2.055 . S
Co831 O842 2.039 . S
Co831 N845 2.140 . S
C832 O833 1.227 . S
C832 O842 1.265 . S
O833 C832 1.227 . S
N834 Co831 2.121 . S
N834 C836 1.375 . S
N834 C837 1.313 . S
C835 C836 1.338 . S
C835 N838 1.377 . S
C835 H855 0.930 . S
C836 N834 1.375 . S
C836 C835 1.338 . S
C836 H840 0.931 . S
C837 N834 1.313 . S
C837 N838 1.344 . S
C837 H841 0.930 . S
N838 C835 1.377 . S
N838 C837 1.344 . S
O839 Co831 2.055 . S
O839 C843 1.253 . S
H840 C836 0.931 . S
H841 C837 0.930 . S
O842 Co831 2.039 . S
O842 C832 1.265 . S
C843 O839 1.253 . S
C843 O844 1.227 . S
O844 C843 1.227 . S
N845 Co831 2.140 . S
N845 C848 1.346 . S
N845 C849 1.345 . S
C846 C847 1.387 . S
C846 C850 1.391 . S
C847 C846 1.387 . S
C847 C848 1.369 . S
C847 H856 0.929 . S
C848 N845 1.346 . S
C848 C847 1.369 . S
C848 H851 0.928 . S
C849 N845 1.345 . S
C849 C850 1.371 . S
C849 H852 0.931 . S
C850 C846 1.391 . S
C850 C849 1.371 . S
C850 H857 0.930 . S
H851 C848 0.928 . S
H852 C849 0.931 . S
H853 C829 0.930 . S
H854 C826 0.930 . S
H855 C835 0.930 . S
H856 C847 0.929 . S
H857 C850 0.930 . S
C858 C859 1.351 . S
C858 N861 1.368 . S
C858 H863 0.931 . S
C859 C858 1.351 . S
C859 N860 1.373 . S
C859 H887 0.930 . S
N860 C859 1.373 . S
N860 C862 1.340 . S
N861 C858 1.368 . S
N861 C862 1.321 . S
N861 Co864 2.135 . S
C862 N860 1.340 . S
C862 N861 1.321 . S
C862 H886 0.930 . S
H863 C858 0.931 . S
Co864 N861 2.135 . S
Co864 N867 2.121 . S
Co864 O872 2.055 . S
Co864 O875 2.039 . S
Co864 N878 2.140 . S
C865 O866 1.227 . S
C865 O875 1.265 . S
O866 C865 1.227 . S
N867 Co864 2.121 . S
N867 C869 1.375 . S
N867 C870 1.313 . S
C868 C869 1.338 . S
C868 N871 1.377 . S
C868 H888 0.930 . S
C869 N867 1.375 . S
C869 C868 1.338 . S
C869 H873 0.931 . S
C870 N867 1.313 . S
C870 N871 1.344 . S
C870 H874 0.930 . S
N871 C868 1.377 . S
N871 C870 1.344 . S
O872 Co864 2.055 . S
O872 C876 1.253 . S
H873 C869 0.931 . S
H874 C870 0.930 . S
O875 Co864 2.039 . S
O875 C865 1.265 . S
C876 O872 1.253 . S
C876 O877 1.227 . S
O877 C876 1.227 . S
N878 Co864 2.140 . S
N878 C881 1.346 . S
N878 C882 1.345 . S
C879 C880 1.387 . S
C879 C883 1.391 . S
C880 C879 1.387 . S
C880 C881 1.369 . S
C880 H889 0.929 . S
C881 N878 1.346 . S
C881 C880 1.369 . S
C881 H884 0.928 . S
C882 N878 1.345 . S
C882 C883 1.371 . S
C882 H885 0.931 . S
C883 C879 1.391 . S
C883 C882 1.371 . S
C883 H890 0.930 . S
H884 C881 0.928 . S
H885 C882 0.931 . S
H886 C862 0.930 . S
H887 C859 0.930 . S
H888 C868 0.930 . S
H889 C880 0.929 . S
H890 C883 0.930 . S
C891 C892 1.351 . S
C891 N894 1.368 . S
C891 H896 0.931 . S
C892 C891 1.351 . S
C892 N893 1.373 . S
C892 H920 0.930 . S
N893 C892 1.373 . S
N893 C895 1.340 . S
N894 C891 1.368 . S
N894 C895 1.321 . S
N894 Co897 2.135 . S
C895 N893 1.340 . S
C895 N894 1.321 . S
C895 H919 0.930 . S
H896 C891 0.931 . S
Co897 N894 2.135 . S
Co897 N900 2.121 . S
Co897 O905 2.055 . S
Co897 O908 2.039 . S
Co897 N911 2.140 . S
C898 O899 1.227 . S
C898 O908 1.265 . S
O899 C898 1.227 . S
N900 Co897 2.121 . S
N900 C902 1.375 . S
N900 C903 1.313 1_655 S
C901 C902 1.338 1_455 S
C901 N904 1.377 . S
C901 H921 0.930 . S
C902 N900 1.375 . S
C902 C901 1.338 1_655 S
C902 H906 0.931 . S
C903 N900 1.313 1_455 S
C903 N904 1.344 . S
C903 H907 0.930 . S
N904 C901 1.377 . S
N904 C903 1.344 . S
O905 Co897 2.055 . S
O905 C909 1.253 . S
H906 C902 0.931 . S
H907 C903 0.930 . S
O908 Co897 2.039 . S
O908 C898 1.265 . S
C909 O905 1.253 . S
C909 O910 1.227 . S
O910 C909 1.227 . S
N911 Co897 2.140 . S
N911 C914 1.346 . S
N911 C915 1.345 . S
C912 C913 1.387 . S
C912 C916 1.391 . S
C913 C912 1.387 . S
C913 C914 1.369 . S
C913 H922 0.929 . S
C914 N911 1.346 . S
C914 C913 1.369 . S
C914 H917 0.928 . S
C915 N911 1.345 . S
C915 C916 1.371 . S
C915 H918 0.931 . S
C916 C912 1.391 . S
C916 C915 1.371 . S
C916 H923 0.930 . S
H917 C914 0.928 . S
H918 C915 0.931 . S
H919 C895 0.930 . S
H920 C892 0.930 . S
H921 C901 0.930 . S
H922 C913 0.929 . S
H923 C916 0.930 . S
C924 C925 1.351 . S
C924 N927 1.368 . S
C924 H929 0.931 . S
C925 C924 1.351 . S
C925 N926 1.373 . S
C925 H953 0.930 . S
N926 C925 1.373 . S
N926 C928 1.340 . S
N927 C924 1.368 . S
N927 C928 1.321 . S
N927 Co930 2.135 . S
C928 N926 1.340 . S
C928 N927 1.321 . S
C928 H952 0.930 . S
H929 C924 0.931 . S
Co930 N927 2.135 . S
Co930 N933 2.121 . S
Co930 O938 2.055 . S
Co930 O941 2.039 . S
Co930 N944 2.140 . S
C931 O932 1.227 . S
C931 O941 1.265 . S
O932 C931 1.227 . S
N933 Co930 2.121 . S
N933 C935 1.375 . S
N933 C936 1.313 . S
C934 C935 1.338 . S
C934 N937 1.377 . S
C934 H954 0.930 . S
C935 N933 1.375 . S
C935 C934 1.338 . S
C935 H939 0.931 . S
C936 N933 1.313 . S
C936 N937 1.344 . S
C936 H940 0.930 . S
N937 C934 1.377 . S
N937 C936 1.344 . S
O938 Co930 2.055 . S
O938 C942 1.253 . S
H939 C935 0.931 . S
H940 C936 0.930 . S
O941 Co930 2.039 . S
O941 C931 1.265 . S
C942 O938 1.253 . S
C942 O943 1.227 . S
O943 C942 1.227 . S
N944 Co930 2.140 . S
N944 C947 1.346 . S
N944 C948 1.345 . S
C945 C946 1.387 . S
C945 C949 1.391 . S
C946 C945 1.387 . S
C946 C947 1.369 . S
C946 H955 0.929 . S
C947 N944 1.346 . S
C947 C946 1.369 . S
C947 H950 0.928 . S
C948 N944 1.345 . S
C948 C949 1.371 . S
C948 H951 0.931 . S
C949 C945 1.391 . S
C949 C948 1.371 . S
C949 H956 0.930 . S
H950 C947 0.928 . S
H951 C948 0.931 . S
H952 C928 0.930 . S
H953 C925 0.930 . S
H954 C934 0.930 . S
H955 C946 0.929 . S
H956 C949 0.930 . S
C957 C958 1.351 . S
C957 N960 1.368 . S
C957 H962 0.931 . S
C958 C957 1.351 . S
C958 N959 1.373 . S
C958 H986 0.930 . S
N959 C958 1.373 . S
N959 C961 1.340 . S
N960 C957 1.368 . S
N960 C961 1.321 . S
N960 Co963 2.135 . S
C961 N959 1.340 . S
C961 N960 1.321 . S
C961 H985 0.930 . S
H962 C957 0.931 . S
Co963 N960 2.135 . S
Co963 N966 2.121 . S
Co963 O971 2.055 . S
Co963 O974 2.039 . S
Co963 N977 2.140 . S
C964 O965 1.227 . S
C964 O974 1.265 . S
O965 C964 1.227 . S
N966 Co963 2.121 . S
N966 C968 1.375 . S
N966 C969 1.313 1_655 S
C967 C968 1.338 1_455 S
C967 N970 1.377 . S
C967 H987 0.930 . S
C968 N966 1.375 . S
C968 C967 1.338 1_655 S
C968 H972 0.931 . S
C969 N966 1.313 1_455 S
C969 N970 1.344 . S
C969 H973 0.930 . S
N970 C967 1.377 . S
N970 C969 1.344 . S
O971 Co963 2.055 . S
O971 C975 1.253 . S
H972 C968 0.931 . S
H973 C969 0.930 . S
O974 Co963 2.039 . S
O974 C964 1.265 . S
C975 O971 1.253 . S
C975 O976 1.227 . S
O976 C975 1.227 . S
N977 Co963 2.140 . S
N977 C980 1.346 . S
N977 C981 1.345 . S
C978 C979 1.387 . S
C978 C982 1.391 . S
C979 C978 1.387 . S
C979 C980 1.369 . S
C979 H988 0.929 . S
C980 N977 1.346 . S
C980 C979 1.369 . S
C980 H983 0.928 . S
C981 N977 1.345 . S
C981 C982 1.371 . S
C981 H984 0.931 . S
C982 C978 1.391 . S
C982 C981 1.371 . S
C982 H989 0.930 . S
H983 C980 0.928 . S
H984 C981 0.931 . S
H985 C961 0.930 . S
H986 C958 0.930 . S
H987 C967 0.930 . S
H988 C979 0.929 . S
H989 C982 0.930 . S
C990 C991 1.351 . S
C990 N993 1.368 . S
C990 H995 0.931 . S
C991 C990 1.351 . S
C991 N992 1.373 . S
C991 H1019 0.930 . S
N992 C991 1.373 . S
N992 C994 1.340 . S
N993 C990 1.368 . S
N993 C994 1.321 . S
N993 Co996 2.135 . S
C994 N992 1.340 . S
C994 N993 1.321 . S
C994 H1018 0.930 . S
H995 C990 0.931 . S
Co996 N993 2.135 . S
Co996 N999 2.121 . S
Co996 O1004 2.055 . S
Co996 O1007 2.039 . S
Co996 N1010 2.140 . S
C997 O998 1.227 . S
C997 O1007 1.265 . S
O998 C997 1.227 . S
N999 Co996 2.121 . S
N999 C1001 1.375 . S
N999 C1002 1.313 . S
C1000 C1001 1.338 . S
C1000 N1003 1.377 . S
C1000 H1020 0.930 . S
C1001 N999 1.375 . S
C1001 C1000 1.338 . S
C1001 H1005 0.931 . S
C1002 N999 1.313 . S
C1002 N1003 1.344 . S
C1002 H1006 0.930 . S
N1003 C1000 1.377 . S
N1003 C1002 1.344 . S
O1004 Co996 2.055 . S
O1004 C1008 1.253 . S
H1005 C1001 0.931 . S
H1006 C1002 0.930 . S
O1007 Co996 2.039 . S
O1007 C997 1.265 . S
C1008 O1004 1.253 . S
C1008 O1009 1.227 . S
O1009 C1008 1.227 . S
N1010 Co996 2.140 . S
N1010 C1013 1.346 . S
N1010 C1014 1.345 . S
C1011 C1012 1.387 . S
C1011 C1015 1.391 . S
C1012 C1011 1.387 . S
C1012 C1013 1.369 . S
C1012 H1021 0.929 . S
C1013 N1010 1.346 . S
C1013 C1012 1.369 . S
C1013 H1016 0.928 . S
C1014 N1010 1.345 . S
C1014 C1015 1.371 . S
C1014 H1017 0.931 . S
C1015 C1011 1.391 . S
C1015 C1014 1.371 . S
C1015 H1022 0.930 . S
H1016 C1013 0.928 . S
H1017 C1014 0.931 . S
H1018 C994 0.930 . S
H1019 C991 0.930 . S
H1020 C1000 0.930 . S
H1021 C1012 0.929 . S
H1022 C1015 0.930 . S
C1023 C1024 1.351 . S
C1023 N1026 1.368 . S
C1023 H1028 0.931 . S
C1024 C1023 1.351 . S
C1024 N1025 1.373 . S
C1024 H1052 0.930 . S
N1025 C1024 1.373 . S
N1025 C1027 1.340 . S
N1026 C1023 1.368 . S
N1026 C1027 1.321 . S
N1026 Co1029 2.135 . S
C1027 N1025 1.340 . S
C1027 N1026 1.321 . S
C1027 H1051 0.930 . S
H1028 C1023 0.931 . S
Co1029 N1026 2.135 . S
Co1029 N1032 2.121 . S
Co1029 O1037 2.055 . S
Co1029 O1040 2.039 . S
Co1029 N1043 2.140 . S
C1030 O1031 1.227 . S
C1030 O1040 1.265 . S
O1031 C1030 1.227 . S
N1032 Co1029 2.121 . S
N1032 C1034 1.375 . S
N1032 C1035 1.313 . S
C1033 C1034 1.338 . S
C1033 N1036 1.377 . S
C1033 H1053 0.930 . S
C1034 N1032 1.375 . S
C1034 C1033 1.338 . S
C1034 H1038 0.931 . S
C1035 N1032 1.313 . S
C1035 N1036 1.344 . S
C1035 H1039 0.930 . S
N1036 C1033 1.377 . S
N1036 C1035 1.344 . S
O1037 Co1029 2.055 . S
O1037 C1041 1.253 . S
H1038 C1034 0.931 . S
H1039 C1035 0.930 . S
O1040 Co1029 2.039 . S
O1040 C1030 1.265 . S
C1041 O1037 1.253 . S
C1041 O1042 1.227 . S
O1042 C1041 1.227 . S
N1043 Co1029 2.140 . S
N1043 C1046 1.346 . S
N1043 C1047 1.345 . S
C1044 C1045 1.387 . S
C1044 C1048 1.391 . S
C1045 C1044 1.387 . S
C1045 C1046 1.369 . S
C1045 H1054 0.929 . S
C1046 N1043 1.346 . S
C1046 C1045 1.369 . S
C1046 H1049 0.928 . S
C1047 N1043 1.345 . S
C1047 C1048 1.371 . S
C1047 H1050 0.931 . S
C1048 C1044 1.391 . S
C1048 C1047 1.371 . S
C1048 H1055 0.930 . S
H1049 C1046 0.928 . S
H1050 C1047 0.931 . S
H1051 C1027 0.930 . S
H1052 C1024 0.930 . S
H1053 C1033 0.930 . S
H1054 C1045 0.929 . S
H1055 C1048 0.930 . S
C1056 C1057 1.387 . S
C1056 H1060 0.950 . S
C1056 C1065 1.390 . S
C1057 C1056 1.387 . S
C1057 C1059 1.387 . S
H1058 C1065 0.950 . S
C1059 C1057 1.387 . S
C1059 C1061 1.390 . S
C1059 H1063 0.950 . S
H1060 C1056 0.950 . S
C1061 C1059 1.390 . S
C1061 C1062 1.387 . S
C1061 H1064 0.950 . S
C1062 C1061 1.387 . S
C1062 C1065 1.387 . S
H1063 C1059 0.950 . S
H1064 C1061 0.950 . S
C1065 C1056 1.390 . S
C1065 H1058 0.950 . S
C1065 C1062 1.387 . S
C1066 C1067 1.387 . S
C1066 H1070 0.950 . S
C1066 C1075 1.390 1_455 S
C1067 C1066 1.387 . S
C1067 C1069 1.387 1_565 S
H1068 C1075 0.950 . S
C1069 C1067 1.387 1_545 S
C1069 C1071 1.390 1_455 S
C1069 H1073 0.950 . S
H1070 C1066 0.950 . S
C1071 C1069 1.390 1_655 S
C1071 C1072 1.387 . S
C1071 H1074 0.950 . S
C1072 C1071 1.387 . S
C1072 C1075 1.387 1_545 S
H1073 C1069 0.950 . S
H1074 C1071 0.950 . S
C1075 C1066 1.390 1_655 S
C1075 H1068 0.950 . S
C1075 C1072 1.387 1_565 S
C1076 C1077 1.387 . S
C1076 H1080 0.950 . S
C1076 C1085 1.390 . S
C1077 C1076 1.387 . S
C1077 C1079 1.387 . S
H1078 C1085 0.950 . S
C1079 C1077 1.387 . S
C1079 C1081 1.390 . S
C1079 H1083 0.950 . S
H1080 C1076 0.950 . S
C1081 C1079 1.390 . S
C1081 C1082 1.387 . S
C1081 H1084 0.950 . S
C1082 C1081 1.387 . S
C1082 C1085 1.387 . S
H1083 C1079 0.950 . S
H1084 C1081 0.950 . S
C1085 C1076 1.390 . S
C1085 H1078 0.950 . S
C1085 C1082 1.387 . S
C1086 C1087 1.387 1_565 S
C1086 H1090 0.950 . S
C1086 C1095 1.390 1_554 S
C1087 C1086 1.387 1_545 S
C1087 C1089 1.387 . S
H1088 C1095 0.950 . S
C1089 C1087 1.387 . S
C1089 C1091 1.390 1_554 S
C1089 H1093 0.950 . S
H1090 C1086 0.950 . S
C1091 C1089 1.390 1_556 S
C1091 C1092 1.387 1_545 S
C1091 H1094 0.950 . S
C1092 C1091 1.387 1_565 S
C1092 C1095 1.387 . S
H1093 C1089 0.950 . S
H1094 C1091 0.950 . S
C1095 C1086 1.390 1_556 S
C1095 H1088 0.950 . S
C1095 C1092 1.387 . S
C1096 C1097 1.387 . S
C1096 H1100 0.950 . S
C1096 C1105 1.390 . S
C1097 C1096 1.387 . S
C1097 C1099 1.387 . S
H1098 C1105 0.950 . S
C1099 C1097 1.387 . S
C1099 C1101 1.390 . S
C1099 H1103 0.950 . S
H1100 C1096 0.950 . S
C1101 C1099 1.390 . S
C1101 C1102 1.387 . S
C1101 H1104 0.950 . S
C1102 C1101 1.387 . S
C1102 C1105 1.387 . S
H1103 C1099 0.950 . S
H1104 C1101 0.950 . S
C1105 C1096 1.390 . S
C1105 H1098 0.950 . S
C1105 C1102 1.387 . S
C1106 C1107 1.387 1_545 S
C1106 H1110 0.950 . S
C1106 C1115 1.390 . S
C1107 C1106 1.387 1_565 S
C1107 C1109 1.387 . S
H1108 C1115 0.950 . S
C1109 C1107 1.387 . S
C1109 C1111 1.390 . S
C1109 H1113 0.950 . S
H1110 C1106 0.950 . S
C1111 C1109 1.390 . S
C1111 C1112 1.387 1_565 S
C1111 H1114 0.950 . S
C1112 C1111 1.387 1_545 S
C1112 C1115 1.387 . S
H1113 C1109 0.950 . S
H1114 C1111 0.950 . S
C1115 C1106 1.390 . S
C1115 H1108 0.950 . S
C1115 C1112 1.387 . S
C1116 C1117 1.387 . S
C1116 H1120 0.950 . S
C1116 C1125 1.390 . S
C1117 C1116 1.387 . S
C1117 C1119 1.387 . S
H1118 C1125 0.950 . S
C1119 C1117 1.387 . S
C1119 C1121 1.390 . S
C1119 H1123 0.950 . S
H1120 C1116 0.950 . S
C1121 C1119 1.390 . S
C1121 C1122 1.387 . S
C1121 H1124 0.950 . S
C1122 C1121 1.387 . S
C1122 C1125 1.387 . S
H1123 C1119 0.950 . S
H1124 C1121 0.950 . S
C1125 C1116 1.390 . S
C1125 H1118 0.950 . S
C1125 C1122 1.387 . S
C1126 C1127 1.387 1_565 S
C1126 H1130 0.950 . S
C1126 C1135 1.390 1_456 S
C1127 C1126 1.387 1_545 S
C1127 C1129 1.387 . S
H1128 C1135 0.950 . S
C1129 C1127 1.387 . S
C1129 C1131 1.390 1_456 S
C1129 H1133 0.950 . S
H1130 C1126 0.950 . S
C1131 C1129 1.390 1_654 S
C1131 C1132 1.387 1_545 S
C1131 H1134 0.950 . S
C1132 C1131 1.387 1_565 S
C1132 C1135 1.387 . S
H1133 C1129 0.950 . S
H1134 C1131 0.950 . S
C1135 C1126 1.390 1_654 S
C1135 H1128 0.950 . S
C1135 C1132 1.387 . S
C1136 C1137 1.387 . S
C1136 H1140 0.950 . S
C1136 C1145 1.390 . S
C1137 C1136 1.387 . S
C1137 C1139 1.387 . S
H1138 C1145 0.950 . S
C1139 C1137 1.387 . S
C1139 C1141 1.390 . S
C1139 H1143 0.950 . S
H1140 C1136 0.950 . S
C1141 C1139 1.390 . S
C1141 C1142 1.387 . S
C1141 H1144 0.950 . S
C1142 C1141 1.387 . S
C1142 C1145 1.387 . S
H1143 C1139 0.950 . S
H1144 C1141 0.950 . S
C1145 C1136 1.390 . S
C1145 H1138 0.950 . S
C1145 C1142 1.387 . S
C1146 C1147 1.387 . S
C1146 H1150 0.950 . S
C1146 C1155 1.390 . S
C1147 C1146 1.387 . S
C1147 C1149 1.387 . S
H1148 C1155 0.950 . S
C1149 C1147 1.387 . S
C1149 C1151 1.390 . S
C1149 H1153 0.950 . S
H1150 C1146 0.950 . S
C1151 C1149 1.390 . S
C1151 C1152 1.387 . S
C1151 H1154 0.950 . S
C1152 C1151 1.387 . S
C1152 C1155 1.387 . S
H1153 C1149 0.950 . S
H1154 C1151 0.950 . S
C1155 C1146 1.390 . S
C1155 H1148 0.950 . S
C1155 C1152 1.387 . S
C1156 C1157 1.387 . S
C1156 H1160 0.950 . S
C1156 C1165 1.390 . S
C1157 C1156 1.387 . S
C1157 C1159 1.387 . S
H1158 C1165 0.950 . S
C1159 C1157 1.387 . S
C1159 C1161 1.390 . S
C1159 H1163 0.950 . S
H1160 C1156 0.950 . S
C1161 C1159 1.390 . S
C1161 C1162 1.387 . S
C1161 H1164 0.950 . S
C1162 C1161 1.387 . S
C1162 C1165 1.387 . S
H1163 C1159 0.950 . S
H1164 C1161 0.950 . S
C1165 C1156 1.390 . S
C1165 H1158 0.950 . S
C1165 C1162 1.387 . S
C1166 C1167 1.387 . S
C1166 H1170 0.950 . S
C1166 C1175 1.390 . S
C1167 C1166 1.387 . S
C1167 C1169 1.387 . S
H1168 C1175 0.950 . S
C1169 C1167 1.387 . S
C1169 C1171 1.390 . S
C1169 H1173 0.950 . S
H1170 C1166 0.950 . S
C1171 C1169 1.390 . S
C1171 C1172 1.387 . S
C1171 H1174 0.950 . S
C1172 C1171 1.387 . S
C1172 C1175 1.387 . S
H1173 C1169 0.950 . S
H1174 C1171 0.950 . S
C1175 C1166 1.390 . S
C1175 H1168 0.950 . S
C1175 C1172 1.387 . S
C1176 C1177 1.387 . S
C1176 H1180 0.950 . S
C1176 C1185 1.390 1_556 S
C1177 C1176 1.387 . S
C1177 C1179 1.387 . S
H1178 C1185 0.950 . S
C1179 C1177 1.387 . S
C1179 C1181 1.390 1_556 S
C1179 H1183 0.950 . S
H1180 C1176 0.950 . S
C1181 C1179 1.390 1_554 S
C1181 C1182 1.387 . S
C1181 H1184 0.950 . S
C1182 C1181 1.387 . S
C1182 C1185 1.387 . S
H1183 C1179 0.950 . S
H1184 C1181 0.950 . S
C1185 C1176 1.390 1_554 S
C1185 H1178 0.950 . S
C1185 C1182 1.387 . S
C1186 C1187 1.387 . S
C1186 H1190 0.950 . S
C1186 C1195 1.390 1_655 S
C1187 C1186 1.387 . S
C1187 C1189 1.387 . S
H1188 C1195 0.950 . S
C1189 C1187 1.387 . S
C1189 C1191 1.390 1_655 S
C1189 H1193 0.950 . S
H1190 C1186 0.950 . S
C1191 C1189 1.390 1_455 S
C1191 C1192 1.387 . S
C1191 H1194 0.950 . S
C1192 C1191 1.387 . S
C1192 C1195 1.387 . S
H1193 C1189 0.950 . S
H1194 C1191 0.950 . S
C1195 C1186 1.390 1_455 S
C1195 H1188 0.950 . S
C1195 C1192 1.387 . S
C1196 C1197 1.387 . S
C1196 H1200 0.950 . S
C1196 C1205 1.390 1_454 S
C1197 C1196 1.387 . S
C1197 C1199 1.387 . S
H1198 C1205 0.950 . S
C1199 C1197 1.387 . S
C1199 C1201 1.390 1_454 S
C1199 H1203 0.950 . S
H1200 C1196 0.950 . S
C1201 C1199 1.390 1_656 S
C1201 C1202 1.387 . S
C1201 H1204 0.950 . S
C1202 C1201 1.387 . S
C1202 C1205 1.387 . S
H1203 C1199 0.950 . S
H1204 C1201 0.950 . S
C1205 C1196 1.390 1_656 S
C1205 H1198 0.950 . S
C1205 C1202 1.387 . S
C1206 C1207 1.387 . S
C1206 H1210 0.950 . S
C1206 C1215 1.390 . S
C1207 C1206 1.387 . S
C1207 C1209 1.387 . S
H1208 C1215 0.950 . S
C1209 C1207 1.387 . S
C1209 C1211 1.390 . S
C1209 H1213 0.950 . S
H1210 C1206 0.950 . S
C1211 C1209 1.390 . S
C1211 C1212 1.387 . S
C1211 H1214 0.950 . S
C1212 C1211 1.387 . S
C1212 C1215 1.387 . S
H1213 C1209 0.950 . S
H1214 C1211 0.950 . S
C1215 C1206 1.390 . S
C1215 H1208 0.950 . S
C1215 C1212 1.387 . S
C1216 C1217 1.387 . S
C1216 H1220 0.950 . S
C1216 C1225 1.390 . S
C1217 C1216 1.387 . S
C1217 C1219 1.387 . S
H1218 C1225 0.950 . S
C1219 C1217 1.387 . S
C1219 C1221 1.390 . S
C1219 H1223 0.950 . S
H1220 C1216 0.950 . S
C1221 C1219 1.390 . S
C1221 C1222 1.387 . S
C1221 H1224 0.950 . S
C1222 C1221 1.387 . S
C1222 C1225 1.387 . S
H1223 C1219 0.950 . S
H1224 C1221 0.950 . S
C1225 C1216 1.390 . S
C1225 H1218 0.950 . S
C1225 C1222 1.387 . S
C1226 C1227 1.387 . S
C1226 H1230 0.950 . S
C1226 C1235 1.390 . S
C1227 C1226 1.387 . S
C1227 C1229 1.387 . S
H1228 C1235 0.950 . S
C1229 C1227 1.387 . S
C1229 C1231 1.390 . S
C1229 H1233 0.950 . S
H1230 C1226 0.950 . S
C1231 C1229 1.390 . S
C1231 C1232 1.387 . S
C1231 H1234 0.950 . S
C1232 C1231 1.387 . S
C1232 C1235 1.387 . S
H1233 C1229 0.950 . S
H1234 C1231 0.950 . S
C1235 C1226 1.390 . S
C1235 H1228 0.950 . S
C1235 C1232 1.387 . S
C1236 C1237 1.387 . S
C1236 H1240 0.950 . S
C1236 C1245 1.390 . S
C1237 C1236 1.387 . S
C1237 C1239 1.387 . S
H1238 C1245 0.950 . S
C1239 C1237 1.387 . S
C1239 C1241 1.390 . S
C1239 H1243 0.950 . S
H1240 C1236 0.950 . S
C1241 C1239 1.390 . S
C1241 C1242 1.387 . S
C1241 H1244 0.950 . S
C1242 C1241 1.387 . S
C1242 C1245 1.387 . S
H1243 C1239 0.950 . S
H1244 C1241 0.950 . S
C1245 C1236 1.390 . S
C1245 H1238 0.950 . S
C1245 C1242 1.387 . S
C1246 C1247 1.387 . S
C1246 H1250 0.950 . S
C1246 C1255 1.390 . S
C1247 C1246 1.387 . S
C1247 C1249 1.387 . S
H1248 C1255 0.950 . S
C1249 C1247 1.387 . S
C1249 C1251 1.390 . S
C1249 H1253 0.950 . S
H1250 C1246 0.950 . S
C1251 C1249 1.390 . S
C1251 C1252 1.387 . S
C1251 H1254 0.950 . S
C1252 C1251 1.387 . S
C1252 C1255 1.387 . S
H1253 C1249 0.950 . S
H1254 C1251 0.950 . S
C1255 C1246 1.390 . S
C1255 H1248 0.950 . S
C1255 C1252 1.387 . S
C1256 C1257 1.387 . S
C1256 H1260 0.950 . S
C1256 C1265 1.390 . S
C1257 C1256 1.387 . S
C1257 C1259 1.387 . S
H1258 C1265 0.950 . S
C1259 C1257 1.387 . S
C1259 C1261 1.390 . S
C1259 H1263 0.950 . S
H1260 C1256 0.950 . S
C1261 C1259 1.390 . S
C1261 C1262 1.387 . S
C1261 H1264 0.950 . S
C1262 C1261 1.387 . S
C1262 C1265 1.387 . S
H1263 C1259 0.950 . S
H1264 C1261 0.950 . S
C1265 C1256 1.390 . S
C1265 H1258 0.950 . S
C1265 C1262 1.387 . S
C1266 C1267 1.387 . S
C1266 H1270 0.950 . S
C1266 C1275 1.390 . S
C1267 C1266 1.387 . S
C1267 C1269 1.387 . S
H1268 C1275 0.950 . S
C1269 C1267 1.387 . S
C1269 C1271 1.390 . S
C1269 H1273 0.950 . S
H1270 C1266 0.950 . S
C1271 C1269 1.390 . S
C1271 C1272 1.387 . S
C1271 H1274 0.950 . S
C1272 C1271 1.387 . S
C1272 C1275 1.387 . S
H1273 C1269 0.950 . S
H1274 C1271 0.950 . S
C1275 C1266 1.390 . S
C1275 H1268 0.950 . S
C1275 C1272 1.387 . S
C1276 C1277 1.387 . S
C1276 H1280 0.950 . S
C1276 C1285 1.390 . S
C1277 C1276 1.387 . S
C1277 C1279 1.387 . S
H1278 C1285 0.950 . S
C1279 C1277 1.387 . S
C1279 C1281 1.390 . S
C1279 H1283 0.950 . S
H1280 C1276 0.950 . S
C1281 C1279 1.390 . S
C1281 C1282 1.387 . S
C1281 H1284 0.950 . S
C1282 C1281 1.387 . S
C1282 C1285 1.387 . S
H1283 C1279 0.950 . S
H1284 C1281 0.950 . S
C1285 C1276 1.390 . S
C1285 H1278 0.950 . S
C1285 C1282 1.387 . S
C1286 C1287 1.387 . S
C1286 H1290 0.950 . S
C1286 C1295 1.390 . S
C1287 C1286 1.387 . S
C1287 C1289 1.387 . S
H1288 C1295 0.950 . S
C1289 C1287 1.387 . S
C1289 C1291 1.390 . S
C1289 H1293 0.950 . S
H1290 C1286 0.950 . S
C1291 C1289 1.390 . S
C1291 C1292 1.387 . S
C1291 H1294 0.950 . S
C1292 C1291 1.387 . S
C1292 C1295 1.387 . S
H1293 C1289 0.950 . S
H1294 C1291 0.950 . S
C1295 C1286 1.390 . S
C1295 H1288 0.950 . S
C1295 C1292 1.387 . S
C1296 C1297 1.387 . S
C1296 H1300 0.950 . S
C1296 C1305 1.390 . S
C1297 C1296 1.387 . S
C1297 C1299 1.387 . S
H1298 C1305 0.950 . S
C1299 C1297 1.387 . S
C1299 C1301 1.390 . S
C1299 H1303 0.950 . S
H1300 C1296 0.950 . S
C1301 C1299 1.390 . S
C1301 C1302 1.387 . S
C1301 H1304 0.950 . S
C1302 C1301 1.387 . S
C1302 C1305 1.387 . S
H1303 C1299 0.950 . S
H1304 C1301 0.950 . S
C1305 C1296 1.390 . S
C1305 H1298 0.950 . S
C1305 C1302 1.387 . S
C1306 C1307 1.387 . S
C1306 H1310 0.950 . S
C1306 C1315 1.390 . S
C1307 C1306 1.387 . S
C1307 C1309 1.387 . S
H1308 C1315 0.950 . S
C1309 C1307 1.387 . S
C1309 C1311 1.390 . S
C1309 H1313 0.950 . S
H1310 C1306 0.950 . S
C1311 C1309 1.390 . S
C1311 C1312 1.387 . S
C1311 H1314 0.950 . S
C1312 C1311 1.387 . S
C1312 C1315 1.387 . S
H1313 C1309 0.950 . S
H1314 C1311 0.950 . S
C1315 C1306 1.390 . S
C1315 H1308 0.950 . S
C1315 C1312 1.387 . S
C1316 C1317 1.387 . S
C1316 H1320 0.950 . S
C1316 C1325 1.390 . S
C1317 C1316 1.387 . S
C1317 C1319 1.387 . S
H1318 C1325 0.950 . S
C1319 C1317 1.387 . S
C1319 C1321 1.390 . S
C1319 H1323 0.950 . S
H1320 C1316 0.950 . S
C1321 C1319 1.390 . S
C1321 C1322 1.387 . S
C1321 H1324 0.950 . S
C1322 C1321 1.387 . S
C1322 C1325 1.387 . S
H1323 C1319 0.950 . S
H1324 C1321 0.950 . S
C1325 C1316 1.390 . S
C1325 H1318 0.950 . S
C1325 C1322 1.387 . S
C1326 C1327 1.387 . S
C1326 H1330 0.950 . S
C1326 C1335 1.390 . S
C1327 C1326 1.387 . S
C1327 C1329 1.387 . S
H1328 C1335 0.950 . S
C1329 C1327 1.387 . S
C1329 C1331 1.390 . S
C1329 H1333 0.950 . S
H1330 C1326 0.950 . S
C1331 C1329 1.390 . S
C1331 C1332 1.387 . S
C1331 H1334 0.950 . S
C1332 C1331 1.387 . S
C1332 C1335 1.387 . S
H1333 C1329 0.950 . S
H1334 C1331 0.950 . S
C1335 C1326 1.390 . S
C1335 H1328 0.950 . S
C1335 C1332 1.387 . S
C1336 C1337 1.387 . S
C1336 H1340 0.950 . S
C1336 C1345 1.390 . S
C1337 C1336 1.387 . S
C1337 C1339 1.387 . S
H1338 C1345 0.950 . S
C1339 C1337 1.387 . S
C1339 C1341 1.390 . S
C1339 H1343 0.950 . S
H1340 C1336 0.950 . S
C1341 C1339 1.390 . S
C1341 C1342 1.387 . S
C1341 H1344 0.950 . S
C1342 C1341 1.387 . S
C1342 C1345 1.387 . S
H1343 C1339 0.950 . S
H1344 C1341 0.950 . S
C1345 C1336 1.390 . S
C1345 H1338 0.950 . S
C1345 C1342 1.387 . S
C1346 C1347 1.387 . S
C1346 H1350 0.950 . S
C1346 C1355 1.390 . S
C1347 C1346 1.387 . S
C1347 C1349 1.387 . S
H1348 C1355 0.950 . S
C1349 C1347 1.387 . S
C1349 C1351 1.390 . S
C1349 H1353 0.950 . S
H1350 C1346 0.950 . S
C1351 C1349 1.390 . S
C1351 C1352 1.387 . S
C1351 H1354 0.950 . S
C1352 C1351 1.387 . S
C1352 C1355 1.387 . S
H1353 C1349 0.950 . S
H1354 C1351 0.950 . S
C1355 C1346 1.390 . S
C1355 H1348 0.950 . S
C1355 C1352 1.387 . S
C1356 C1357 1.387 . S
C1356 H1360 0.950 . S
C1356 C1365 1.390 . S
C1357 C1356 1.387 . S
C1357 C1359 1.387 . S
H1358 C1365 0.950 . S
C1359 C1357 1.387 . S
C1359 C1361 1.390 . S
C1359 H1363 0.950 . S
H1360 C1356 0.950 . S
C1361 C1359 1.390 . S
C1361 C1362 1.387 . S
C1361 H1364 0.950 . S
C1362 C1361 1.387 . S
C1362 C1365 1.387 . S
H1363 C1359 0.950 . S
H1364 C1361 0.950 . S
C1365 C1356 1.390 . S
C1365 H1358 0.950 . S
C1365 C1362 1.387 . S
C1366 C1367 1.387 . S
C1366 H1370 0.950 . S
C1366 C1375 1.390 . S
C1367 C1366 1.387 . S
C1367 C1369 1.387 . S
H1368 C1375 0.950 . S
C1369 C1367 1.387 . S
C1369 C1371 1.390 . S
C1369 H1373 0.950 . S
H1370 C1366 0.950 . S
C1371 C1369 1.390 . S
C1371 C1372 1.387 . S
C1371 H1374 0.950 . S
C1372 C1371 1.387 . S
C1372 C1375 1.387 . S
H1373 C1369 0.950 . S
H1374 C1371 0.950 . S
C1375 C1366 1.390 . S
C1375 H1368 0.950 . S
C1375 C1372 1.387 . S
C1376 C1377 1.387 . S
C1376 H1380 0.950 . S
C1376 C1385 1.390 . S
C1377 C1376 1.387 . S
C1377 C1379 1.387 . S
H1378 C1385 0.950 . S
C1379 C1377 1.387 . S
C1379 C1381 1.390 . S
C1379 H1383 0.950 . S
H1380 C1376 0.950 . S
C1381 C1379 1.390 . S
C1381 C1382 1.387 . S
C1381 H1384 0.950 . S
C1382 C1381 1.387 . S
C1382 C1385 1.387 . S
H1383 C1379 0.950 . S
H1384 C1381 0.950 . S
C1385 C1376 1.390 . S
C1385 H1378 0.950 . S
C1385 C1382 1.387 . S
C1386 C1387 1.387 . S
C1386 H1390 0.950 . S
C1386 C1395 1.390 . S
C1387 C1386 1.387 . S
C1387 C1389 1.387 . S
H1388 C1395 0.950 . S
C1389 C1387 1.387 . S
C1389 C1391 1.390 . S
C1389 H1393 0.950 . S
H1390 C1386 0.950 . S
C1391 C1389 1.390 . S
C1391 C1392 1.387 . S
C1391 H1394 0.950 . S
C1392 C1391 1.387 . S
C1392 C1395 1.387 . S
H1393 C1389 0.950 . S
H1394 C1391 0.950 . S
C1395 C1386 1.390 . S
C1395 H1388 0.950 . S
C1395 C1392 1.387 . S
C1396 C1397 1.387 . S
C1396 H1400 0.950 . S
C1396 C1405 1.390 . S
C1397 C1396 1.387 . S
C1397 C1399 1.387 . S
H1398 C1405 0.950 . S
C1399 C1397 1.387 . S
C1399 C1401 1.390 . S
C1399 H1403 0.950 . S
H1400 C1396 0.950 . S
C1401 C1399 1.390 . S
C1401 C1402 1.387 . S
C1401 H1404 0.950 . S
C1402 C1401 1.387 . S
C1402 C1405 1.387 . S
H1403 C1399 0.950 . S
H1404 C1401 0.950 . S
C1405 C1396 1.390 . S
C1405 H1398 0.950 . S
C1405 C1402 1.387 . S
C1406 C1407 1.387 . S
C1406 H1410 0.950 . S
C1406 C1415 1.390 . S
C1407 C1406 1.387 . S
C1407 C1409 1.387 . S
H1408 C1415 0.950 . S
C1409 C1407 1.387 . S
C1409 C1411 1.390 . S
C1409 H1413 0.950 . S
H1410 C1406 0.950 . S
C1411 C1409 1.390 . S
C1411 C1412 1.387 . S
C1411 H1414 0.950 . S
C1412 C1411 1.387 . S
C1412 C1415 1.387 . S
H1413 C1409 0.950 . S
H1414 C1411 0.950 . S
C1415 C1406 1.390 . S
C1415 H1408 0.950 . S
C1415 C1412 1.387 . S
C1416 C1417 1.387 . S
C1416 H1420 0.950 . S
C1416 C1425 1.390 . S
C1417 C1416 1.387 . S
C1417 C1419 1.387 . S
H1418 C1425 0.950 . S
C1419 C1417 1.387 . S
C1419 C1421 1.390 . S
C1419 H1423 0.950 . S
H1420 C1416 0.950 . S
C1421 C1419 1.390 . S
C1421 C1422 1.387 . S
C1421 H1424 0.950 . S
C1422 C1421 1.387 . S
C1422 C1425 1.387 . S
H1423 C1419 0.950 . S
H1424 C1421 0.950 . S
C1425 C1416 1.390 . S
C1425 H1418 0.950 . S
C1425 C1422 1.387 . S
C1426 C1427 1.387 . S
C1426 H1430 0.950 . S
C1426 C1435 1.390 . S
C1427 C1426 1.387 . S
C1427 C1429 1.387 . S
H1428 C1435 0.950 . S
C1429 C1427 1.387 . S
C1429 C1431 1.390 . S
C1429 H1433 0.950 . S
H1430 C1426 0.950 . S
C1431 C1429 1.390 . S
C1431 C1432 1.387 . S
C1431 H1434 0.950 . S
C1432 C1431 1.387 . S
C1432 C1435 1.387 . S
H1433 C1429 0.950 . S
H1434 C1431 0.950 . S
C1435 C1426 1.390 . S
C1435 H1428 0.950 . S
C1435 C1432 1.387 . S
C1436 C1437 1.387 . S
C1436 H1440 0.950 . S
C1436 C1445 1.390 . S
C1437 C1436 1.387 . S
C1437 C1439 1.387 . S
H1438 C1445 0.950 . S
C1439 C1437 1.387 . S
C1439 C1441 1.390 . S
C1439 H1443 0.950 . S
H1440 C1436 0.950 . S
C1441 C1439 1.390 . S
C1441 C1442 1.387 . S
C1441 H1444 0.950 . S
C1442 C1441 1.387 . S
C1442 C1445 1.387 . S
H1443 C1439 0.950 . S
H1444 C1441 0.950 . S
C1445 C1436 1.390 . S
C1445 H1438 0.950 . S
C1445 C1442 1.387 . S
C1446 C1447 1.387 . S
C1446 H1450 0.950 . S
C1446 C1455 1.390 . S
C1447 C1446 1.387 . S
C1447 C1449 1.387 . S
H1448 C1455 0.950 . S
C1449 C1447 1.387 . S
C1449 C1451 1.390 . S
C1449 H1453 0.950 . S
H1450 C1446 0.950 . S
C1451 C1449 1.390 . S
C1451 C1452 1.387 . S
C1451 H1454 0.950 . S
C1452 C1451 1.387 . S
C1452 C1455 1.387 . S
H1453 C1449 0.950 . S
H1454 C1451 0.950 . S
C1455 C1446 1.390 . S
C1455 H1448 0.950 . S
C1455 C1452 1.387 . S
C1456 C1457 1.387 . S
C1456 H1460 0.950 . S
C1456 C1465 1.390 . S
C1457 C1456 1.387 . S
C1457 C1459 1.387 . S
H1458 C1465 0.950 . S
C1459 C1457 1.387 . S
C1459 C1461 1.390 . S
C1459 H1463 0.950 . S
H1460 C1456 0.950 . S
C1461 C1459 1.390 . S
C1461 C1462 1.387 . S
C1461 H1464 0.950 . S
C1462 C1461 1.387 . S
C1462 C1465 1.387 . S
H1463 C1459 0.950 . S
H1464 C1461 0.950 . S
C1465 C1456 1.390 . S
C1465 H1458 0.950 . S
C1465 C1462 1.387 . S
C1466 C1467 1.387 . S
C1466 H1470 0.950 . S
C1466 C1475 1.390 . S
C1467 C1466 1.387 . S
C1467 C1469 1.387 . S
H1468 C1475 0.950 . S
C1469 C1467 1.387 . S
C1469 C1471 1.390 . S
C1469 H1473 0.950 . S
H1470 C1466 0.950 . S
C1471 C1469 1.390 . S
C1471 C1472 1.387 . S
C1471 H1474 0.950 . S
C1472 C1471 1.387 . S
C1472 C1475 1.387 . S
H1473 C1469 0.950 . S
H1474 C1471 0.950 . S
C1475 C1466 1.390 . S
C1475 H1468 0.950 . S
C1475 C1472 1.387 . S
C1476 C1477 1.387 . S
C1476 H1480 0.950 . S
C1476 C1485 1.390 . S
C1477 C1476 1.387 . S
C1477 C1479 1.387 . S
H1478 C1485 0.950 . S
C1479 C1477 1.387 . S
C1479 C1481 1.390 . S
C1479 H1483 0.950 . S
H1480 C1476 0.950 . S
C1481 C1479 1.390 . S
C1481 C1482 1.387 . S
C1481 H1484 0.950 . S
C1482 C1481 1.387 . S
C1482 C1485 1.387 . S
H1483 C1479 0.950 . S
H1484 C1481 0.950 . S
C1485 C1476 1.390 . S
C1485 H1478 0.950 . S
C1485 C1482 1.387 . S
C1486 C1487 1.387 . S
C1486 H1490 0.950 . S
C1486 C1495 1.390 . S
C1487 C1486 1.387 . S
C1487 C1489 1.387 . S
H1488 C1495 0.950 . S
C1489 C1487 1.387 . S
C1489 C1491 1.390 . S
C1489 H1493 0.950 . S
H1490 C1486 0.950 . S
C1491 C1489 1.390 . S
C1491 C1492 1.387 . S
C1491 H1494 0.950 . S
C1492 C1491 1.387 . S
C1492 C1495 1.387 . S
H1493 C1489 0.950 . S
H1494 C1491 0.950 . S
C1495 C1486 1.390 . S
C1495 H1488 0.950 . S
C1495 C1492 1.387 . S
C1496 C1497 1.387 . S
C1496 H1500 0.950 . S
C1496 C1505 1.390 . S
C1497 C1496 1.387 . S
C1497 C1499 1.387 . S
H1498 C1505 0.950 . S
C1499 C1497 1.387 . S
C1499 C1501 1.390 . S
C1499 H1503 0.950 . S
H1500 C1496 0.950 . S
C1501 C1499 1.390 . S
C1501 C1502 1.387 . S
C1501 H1504 0.950 . S
C1502 C1501 1.387 . S
C1502 C1505 1.387 . S
H1503 C1499 0.950 . S
H1504 C1501 0.950 . S
C1505 C1496 1.390 . S
C1505 H1498 0.950 . S
C1505 C1502 1.387 . S
C1506 C1507 1.387 . S
C1506 H1510 0.950 . S
C1506 C1515 1.390 . S
C1507 C1506 1.387 . S
C1507 C1509 1.387 . S
H1508 C1515 0.950 . S
C1509 C1507 1.387 . S
C1509 C1511 1.390 . S
C1509 H1513 0.950 . S
H1510 C1506 0.950 . S
C1511 C1509 1.390 . S
C1511 C1512 1.387 . S
C1511 H1514 0.950 . S
C1512 C1511 1.387 . S
C1512 C1515 1.387 . S
H1513 C1509 0.950 . S
H1514 C1511 0.950 . S
C1515 C1506 1.390 . S
C1515 H1508 0.950 . S
C1515 C1512 1.387 . S
C1516 C1517 1.387 . S
C1516 H1520 0.950 . S
C1516 C1525 1.390 . S
C1517 C1516 1.387 . S
C1517 C1519 1.387 . S
H1518 C1525 0.950 . S
C1519 C1517 1.387 . S
C1519 C1521 1.390 . S
C1519 H1523 0.950 . S
H1520 C1516 0.950 . S
C1521 C1519 1.390 . S
C1521 C1522 1.387 . S
C1521 H1524 0.950 . S
C1522 C1521 1.387 . S
C1522 C1525 1.387 . S
H1523 C1519 0.950 . S
H1524 C1521 0.950 . S
C1525 C1516 1.390 . S
C1525 H1518 0.950 . S
C1525 C1522 1.387 . S
C1526 C1527 1.387 . S
C1526 H1530 0.950 . S
C1526 C1535 1.390 . S
C1527 C1526 1.387 . S
C1527 C1529 1.387 . S
H1528 C1535 0.950 . S
C1529 C1527 1.387 . S
C1529 C1531 1.390 . S
C1529 H1533 0.950 . S
H1530 C1526 0.950 . S
C1531 C1529 1.390 . S
C1531 C1532 1.387 . S
C1531 H1534 0.950 . S
C1532 C1531 1.387 . S
C1532 C1535 1.387 . S
H1533 C1529 0.950 . S
H1534 C1531 0.950 . S
C1535 C1526 1.390 . S
C1535 H1528 0.950 . S
C1535 C1532 1.387 . S
C1536 C1537 1.387 . S
C1536 H1540 0.950 . S
C1536 C1545 1.390 1_554 S
C1537 C1536 1.387 . S
C1537 C1539 1.387 . S
H1538 C1545 0.950 . S
C1539 C1537 1.387 . S
C1539 C1541 1.390 1_554 S
C1539 H1543 0.950 . S
H1540 C1536 0.950 . S
C1541 C1539 1.390 1_556 S
C1541 C1542 1.387 . S
C1541 H1544 0.950 . S
C1542 C1541 1.387 . S
C1542 C1545 1.387 . S
H1543 C1539 0.950 . S
H1544 C1541 0.950 . S
C1545 C1536 1.390 1_556 S
C1545 H1538 0.950 . S
C1545 C1542 1.387 . S
C1546 C1547 1.387 . S
C1546 H1550 0.950 . S
C1546 C1555 1.390 1_565 S
C1547 C1546 1.387 . S
C1547 C1549 1.387 . S
H1548 C1555 0.950 . S
C1549 C1547 1.387 . S
C1549 C1551 1.390 1_565 S
C1549 H1553 0.950 . S
H1550 C1546 0.950 . S
C1551 C1549 1.390 1_545 S
C1551 C1552 1.387 . S
C1551 H1554 0.950 . S
C1552 C1551 1.387 . S
C1552 C1555 1.387 . S
H1553 C1549 0.950 . S
H1554 C1551 0.950 . S
C1555 C1546 1.390 1_545 S
C1555 H1548 0.950 . S
C1555 C1552 1.387 . S
C1556 C1557 1.387 . S
C1556 H1560 0.950 . S
C1556 C1565 1.390 . S
C1557 C1556 1.387 . S
C1557 C1559 1.387 . S
H1558 C1565 0.950 . S
C1559 C1557 1.387 . S
C1559 C1561 1.390 . S
C1559 H1563 0.950 . S
H1560 C1556 0.950 . S
C1561 C1559 1.390 . S
C1561 C1562 1.387 . S
C1561 H1564 0.950 . S
C1562 C1561 1.387 . S
C1562 C1565 1.387 . S
H1563 C1559 0.950 . S
H1564 C1561 0.950 . S
C1565 C1556 1.390 . S
C1565 H1558 0.950 . S
C1565 C1562 1.387 . S
C1566 C1567 1.387 . S
C1566 H1570 0.950 . S
C1566 C1575 1.390 1_565 S
C1567 C1566 1.387 . S
C1567 C1569 1.387 . S
H1568 C1575 0.950 . S
C1569 C1567 1.387 . S
C1569 C1571 1.390 1_565 S
C1569 H1573 0.950 . S
H1570 C1566 0.950 . S
C1571 C1569 1.390 1_545 S
C1571 C1572 1.387 . S
C1571 H1574 0.950 . S
C1572 C1571 1.387 . S
C1572 C1575 1.387 . S
H1573 C1569 0.950 . S
H1574 C1571 0.950 . S
C1575 C1566 1.390 1_545 S
C1575 H1568 0.950 . S
C1575 C1572 1.387 . S
C1576 C1577 1.387 . S
C1576 H1580 0.950 . S
C1576 C1585 1.390 1_554 S
C1577 C1576 1.387 . S
C1577 C1579 1.387 . S
H1578 C1585 0.950 . S
C1579 C1577 1.387 . S
C1579 C1581 1.390 1_554 S
C1579 H1583 0.950 . S
H1580 C1576 0.950 . S
C1581 C1579 1.390 1_556 S
C1581 C1582 1.387 . S
C1581 H1584 0.950 . S
C1582 C1581 1.387 . S
C1582 C1585 1.387 . S
H1583 C1579 0.950 . S
H1584 C1581 0.950 . S
C1585 C1576 1.390 1_556 S
C1585 H1578 0.950 . S
C1585 C1582 1.387 . S
C1586 C1587 1.387 . S
C1586 H1590 0.950 . S
C1586 C1595 1.390 1_545 S
C1587 C1586 1.387 . S
C1587 C1589 1.387 . S
H1588 C1595 0.950 . S
C1589 C1587 1.387 . S
C1589 C1591 1.390 1_545 S
C1589 H1593 0.950 . S
H1590 C1586 0.950 . S
C1591 C1589 1.390 1_565 S
C1591 C1592 1.387 . S
C1591 H1594 0.950 . S
C1592 C1591 1.387 . S
C1592 C1595 1.387 . S
H1593 C1589 0.950 . S
H1594 C1591 0.950 . S
C1595 C1586 1.390 1_565 S
C1595 H1588 0.950 . S
C1595 C1592 1.387 . S
C1596 C1597 1.387 . S
C1596 H1600 0.950 . S
C1596 C1605 1.390 . S
C1597 C1596 1.387 . S
C1597 C1599 1.387 . S
H1598 C1605 0.950 . S
C1599 C1597 1.387 . S
C1599 C1601 1.390 . S
C1599 H1603 0.950 . S
H1600 C1596 0.950 . S
C1601 C1599 1.390 . S
C1601 C1602 1.387 . S
C1601 H1604 0.950 . S
C1602 C1601 1.387 . S
C1602 C1605 1.387 . S
H1603 C1599 0.950 . S
H1604 C1601 0.950 . S
C1605 C1596 1.390 . S
C1605 H1598 0.950 . S
C1605 C1602 1.387 . S
C1606 C1607 1.387 . S
C1606 H1610 0.950 . S
C1606 C1615 1.390 1_565 S
C1607 C1606 1.387 . S
C1607 C1609 1.387 . S
H1608 C1615 0.950 . S
C1609 C1607 1.387 . S
C1609 C1611 1.390 1_565 S
C1609 H1613 0.950 . S
H1610 C1606 0.950 . S
C1611 C1609 1.390 1_545 S
C1611 C1612 1.387 . S
C1611 H1614 0.950 . S
C1612 C1611 1.387 . S
C1612 C1615 1.387 . S
H1613 C1609 0.950 . S
H1614 C1611 0.950 . S
C1615 C1606 1.390 1_545 S
C1615 H1608 0.950 . S
C1615 C1612 1.387 . S
C1616 C1617 1.387 . S
C1616 H1620 0.950 . S
C1616 C1625 1.390 . S
C1617 C1616 1.387 . S
C1617 C1619 1.387 . S
H1618 C1625 0.950 . S
C1619 C1617 1.387 . S
C1619 C1621 1.390 . S
C1619 H1623 0.950 . S
H1620 C1616 0.950 . S
C1621 C1619 1.390 . S
C1621 C1622 1.387 . S
C1621 H1624 0.950 . S
C1622 C1621 1.387 . S
C1622 C1625 1.387 . S
H1623 C1619 0.950 . S
H1624 C1621 0.950 . S
C1625 C1616 1.390 . S
C1625 H1618 0.950 . S
C1625 C1622 1.387 . S
C1626 C1627 1.387 . S
C1626 H1630 0.950 . S
C1626 C1635 1.390 . S
C1627 C1626 1.387 . S
C1627 C1629 1.387 . S
H1628 C1635 0.950 . S
C1629 C1627 1.387 . S
C1629 C1631 1.390 . S
C1629 H1633 0.950 . S
H1630 C1626 0.950 . S
C1631 C1629 1.390 . S
C1631 C1632 1.387 . S
C1631 H1634 0.950 . S
C1632 C1631 1.387 . S
C1632 C1635 1.387 . S
H1633 C1629 0.950 . S
H1634 C1631 0.950 . S
C1635 C1626 1.390 . S
C1635 H1628 0.950 . S
C1635 C1632 1.387 . S
C1636 C1637 1.387 . S
C1636 H1640 0.950 . S
C1636 C1645 1.390 1_554 S
C1637 C1636 1.387 . S
C1637 C1639 1.387 . S
H1638 C1645 0.950 . S
C1639 C1637 1.387 . S
C1639 C1641 1.390 1_554 S
C1639 H1643 0.950 . S
H1640 C1636 0.950 . S
C1641 C1639 1.390 1_556 S
C1641 C1642 1.387 . S
C1641 H1644 0.950 . S
C1642 C1641 1.387 . S
C1642 C1645 1.387 . S
H1643 C1639 0.950 . S
H1644 C1641 0.950 . S
C1645 C1636 1.390 1_556 S
C1645 H1638 0.950 . S
C1645 C1642 1.387 . S
C1646 C1647 1.387 . S
C1646 H1650 0.950 . S
C1646 C1655 1.390 . S
C1647 C1646 1.387 . S
C1647 C1649 1.387 . S
H1648 C1655 0.950 . S
C1649 C1647 1.387 . S
C1649 C1651 1.390 . S
C1649 H1653 0.950 . S
H1650 C1646 0.950 . S
C1651 C1649 1.390 . S
C1651 C1652 1.387 . S
C1651 H1654 0.950 . S
C1652 C1651 1.387 . S
C1652 C1655 1.387 . S
H1653 C1649 0.950 . S
H1654 C1651 0.950 . S
C1655 C1646 1.390 . S
C1655 H1648 0.950 . S
C1655 C1652 1.387 . S
C1656 C1657 1.387 . S
C1656 H1660 0.950 . S
C1656 C1665 1.390 . S
C1657 C1656 1.387 . S
C1657 C1659 1.387 . S
H1658 C1665 0.950 . S
C1659 C1657 1.387 . S
C1659 C1661 1.390 . S
C1659 H1663 0.950 . S
H1660 C1656 0.950 . S
C1661 C1659 1.390 . S
C1661 C1662 1.387 . S
C1661 H1664 0.950 . S
C1662 C1661 1.387 . S
C1662 C1665 1.387 . S
H1663 C1659 0.950 . S
H1664 C1661 0.950 . S
C1665 C1656 1.390 . S
C1665 H1658 0.950 . S
C1665 C1662 1.387 . S
C1666 C1667 1.387 . S
C1666 H1670 0.950 . S
C1666 C1675 1.390 . S
C1667 C1666 1.387 . S
C1667 C1669 1.387 . S
H1668 C1675 0.950 . S
C1669 C1667 1.387 . S
C1669 C1671 1.390 . S
C1669 H1673 0.950 . S
H1670 C1666 0.950 . S
C1671 C1669 1.390 . S
C1671 C1672 1.387 . S
C1671 H1674 0.950 . S
C1672 C1671 1.387 . S
C1672 C1675 1.387 . S
H1673 C1669 0.950 . S
H1674 C1671 0.950 . S
C1675 C1666 1.390 . S
C1675 H1668 0.950 . S
C1675 C1672 1.387 . S
C1676 C1677 1.387 . S
C1676 H1680 0.950 . S
C1676 C1685 1.390 1_556 S
C1677 C1676 1.387 . S
C1677 C1679 1.387 . S
H1678 C1685 0.950 . S
C1679 C1677 1.387 . S
C1679 C1681 1.390 1_556 S
C1679 H1683 0.950 . S
H1680 C1676 0.950 . S
C1681 C1679 1.390 1_554 S
C1681 C1682 1.387 . S
C1681 H1684 0.950 . S
C1682 C1681 1.387 . S
C1682 C1685 1.387 . S
H1683 C1679 0.950 . S
H1684 C1681 0.950 . S
C1685 C1676 1.390 1_554 S
C1685 H1678 0.950 . S
C1685 C1682 1.387 . S
C1686 C1687 1.387 . S
C1686 H1690 0.950 . S
C1686 C1695 1.390 . S
C1687 C1686 1.387 . S
C1687 C1689 1.387 . S
H1688 C1695 0.950 . S
C1689 C1687 1.387 . S
C1689 C1691 1.390 . S
C1689 H1693 0.950 . S
H1690 C1686 0.950 . S
C1691 C1689 1.390 . S
C1691 C1692 1.387 . S
C1691 H1694 0.950 . S
C1692 C1691 1.387 . S
C1692 C1695 1.387 . S
H1693 C1689 0.950 . S
H1694 C1691 0.950 . S
C1695 C1686 1.390 . S
C1695 H1688 0.950 . S
C1695 C1692 1.387 . S
C1696 C1697 1.387 . S
C1696 H1700 0.950 . S
C1696 C1705 1.390 . S
C1697 C1696 1.387 . S
C1697 C1699 1.387 . S
H1698 C1705 0.950 . S
C1699 C1697 1.387 . S
C1699 C1701 1.390 . S
C1699 H1703 0.950 . S
H1700 C1696 0.950 . S
C1701 C1699 1.390 . S
C1701 C1702 1.387 . S
C1701 H1704 0.950 . S
C1702 C1701 1.387 . S
C1702 C1705 1.387 . S
H1703 C1699 0.950 . S
H1704 C1701 0.950 . S
C1705 C1696 1.390 . S
C1705 H1698 0.950 . S
C1705 C1702 1.387 . S
C1706 C1707 1.387 . S
C1706 H1710 0.950 . S
C1706 C1715 1.390 . S
C1707 C1706 1.387 . S
C1707 C1709 1.387 . S
H1708 C1715 0.950 . S
C1709 C1707 1.387 . S
C1709 C1711 1.390 . S
C1709 H1713 0.950 . S
H1710 C1706 0.950 . S
C1711 C1709 1.390 . S
C1711 C1712 1.387 . S
C1711 H1714 0.950 . S
C1712 C1711 1.387 . S
C1712 C1715 1.387 . S
H1713 C1709 0.950 . S
H1714 C1711 0.950 . S
C1715 C1706 1.390 . S
C1715 H1708 0.950 . S
C1715 C1712 1.387 . S
C1716 C1717 1.387 . S
C1716 H1720 0.950 . S
C1716 C1725 1.390 . S
C1717 C1716 1.387 . S
C1717 C1719 1.387 . S
H1718 C1725 0.950 . S
C1719 C1717 1.387 . S
C1719 C1721 1.390 . S
C1719 H1723 0.950 . S
H1720 C1716 0.950 . S
C1721 C1719 1.390 . S
C1721 C1722 1.387 . S
C1721 H1724 0.950 . S
C1722 C1721 1.387 . S
C1722 C1725 1.387 . S
H1723 C1719 0.950 . S
H1724 C1721 0.950 . S
C1725 C1716 1.390 . S
C1725 H1718 0.950 . S
C1725 C1722 1.387 . S
C1726 C1727 1.387 . S
C1726 H1730 0.950 . S
C1726 C1735 1.390 . S
C1727 C1726 1.387 . S
C1727 C1729 1.387 . S
H1728 C1735 0.950 . S
C1729 C1727 1.387 . S
C1729 C1731 1.390 . S
C1729 H1733 0.950 . S
H1730 C1726 0.950 . S
C1731 C1729 1.390 . S
C1731 C1732 1.387 . S
C1731 H1734 0.950 . S
C1732 C1731 1.387 . S
C1732 C1735 1.387 . S
H1733 C1729 0.950 . S
H1734 C1731 0.950 . S
C1735 C1726 1.390 . S
C1735 H1728 0.950 . S
C1735 C1732 1.387 . S
C1736 C1737 1.387 . S
C1736 H1740 0.950 . S
C1736 C1745 1.390 . S
C1737 C1736 1.387 . S
C1737 C1739 1.387 . S
H1738 C1745 0.950 . S
C1739 C1737 1.387 . S
C1739 C1741 1.390 . S
C1739 H1743 0.950 . S
H1740 C1736 0.950 . S
C1741 C1739 1.390 . S
C1741 C1742 1.387 . S
C1741 H1744 0.950 . S
C1742 C1741 1.387 . S
C1742 C1745 1.387 . S
H1743 C1739 0.950 . S
H1744 C1741 0.950 . S
C1745 C1736 1.390 . S
C1745 H1738 0.950 . S
C1745 C1742 1.387 . S
C1746 C1747 1.387 . S
C1746 H1750 0.950 . S
C1746 C1755 1.390 . S
C1747 C1746 1.387 . S
C1747 C1749 1.387 . S
H1748 C1755 0.950 . S
C1749 C1747 1.387 . S
C1749 C1751 1.390 . S
C1749 H1753 0.950 . S
H1750 C1746 0.950 . S
C1751 C1749 1.390 . S
C1751 C1752 1.387 . S
C1751 H1754 0.950 . S
C1752 C1751 1.387 . S
C1752 C1755 1.387 . S
H1753 C1749 0.950 . S
H1754 C1751 0.950 . S
C1755 C1746 1.390 . S
C1755 H1748 0.950 . S
C1755 C1752 1.387 . S
C1756 C1757 1.387 . S
C1756 H1760 0.950 . S
C1756 C1765 1.390 . S
C1757 C1756 1.387 . S
C1757 C1759 1.387 . S
H1758 C1765 0.950 . S
C1759 C1757 1.387 . S
C1759 C1761 1.390 . S
C1759 H1763 0.950 . S
H1760 C1756 0.950 . S
C1761 C1759 1.390 . S
C1761 C1762 1.387 . S
C1761 H1764 0.950 . S
C1762 C1761 1.387 . S
C1762 C1765 1.387 . S
H1763 C1759 0.950 . S
H1764 C1761 0.950 . S
C1765 C1756 1.390 . S
C1765 H1758 0.950 . S
C1765 C1762 1.387 . S
C1766 C1767 1.387 . S
C1766 H1770 0.950 . S
C1766 C1775 1.390 . S
C1767 C1766 1.387 . S
C1767 C1769 1.387 . S
H1768 C1775 0.950 . S
C1769 C1767 1.387 . S
C1769 C1771 1.390 . S
C1769 H1773 0.950 . S
H1770 C1766 0.950 . S
C1771 C1769 1.390 . S
C1771 C1772 1.387 . S
C1771 H1774 0.950 . S
C1772 C1771 1.387 . S
C1772 C1775 1.387 . S
H1773 C1769 0.950 . S
H1774 C1771 0.950 . S
C1775 C1766 1.390 . S
C1775 H1768 0.950 . S
C1775 C1772 1.387 . S
C1776 C1777 1.387 . S
C1776 H1780 0.950 . S
C1776 C1785 1.390 . S
C1777 C1776 1.387 . S
C1777 C1779 1.387 . S
H1778 C1785 0.950 . S
C1779 C1777 1.387 . S
C1779 C1781 1.390 . S
C1779 H1783 0.950 . S
H1780 C1776 0.950 . S
C1781 C1779 1.390 . S
C1781 C1782 1.387 . S
C1781 H1784 0.950 . S
C1782 C1781 1.387 . S
C1782 C1785 1.387 . S
H1783 C1779 0.950 . S
H1784 C1781 0.950 . S
C1785 C1776 1.390 . S
C1785 H1778 0.950 . S
C1785 C1782 1.387 . S
C1786 C1787 1.387 . S
C1786 H1790 0.950 . S
C1786 C1795 1.390 . S
C1787 C1786 1.387 . S
C1787 C1789 1.387 . S
H1788 C1795 0.950 . S
C1789 C1787 1.387 . S
C1789 C1791 1.390 . S
C1789 H1793 0.950 . S
H1790 C1786 0.950 . S
C1791 C1789 1.390 . S
C1791 C1792 1.387 . S
C1791 H1794 0.950 . S
C1792 C1791 1.387 . S
C1792 C1795 1.387 . S
H1793 C1789 0.950 . S
H1794 C1791 0.950 . S
C1795 C1786 1.390 . S
C1795 H1788 0.950 . S
C1795 C1792 1.387 . S
C1796 C1797 1.387 . S
C1796 H1800 0.950 . S
C1796 C1805 1.390 . S
C1797 C1796 1.387 . S
C1797 C1799 1.387 . S
H1798 C1805 0.950 . S
C1799 C1797 1.387 . S
C1799 C1801 1.390 . S
C1799 H1803 0.950 . S
H1800 C1796 0.950 . S
C1801 C1799 1.390 . S
C1801 C1802 1.387 . S
C1801 H1804 0.950 . S
C1802 C1801 1.387 . S
C1802 C1805 1.387 . S
H1803 C1799 0.950 . S
H1804 C1801 0.950 . S
C1805 C1796 1.390 . S
C1805 H1798 0.950 . S
C1805 C1802 1.387 . S
C1806 C1807 1.387 . S
C1806 H1810 0.950 . S
C1806 C1815 1.390 . S
C1807 C1806 1.387 . S
C1807 C1809 1.387 . S
H1808 C1815 0.950 . S
C1809 C1807 1.387 . S
C1809 C1811 1.390 . S
C1809 H1813 0.950 . S
H1810 C1806 0.950 . S
C1811 C1809 1.390 . S
C1811 C1812 1.387 . S
C1811 H1814 0.950 . S
C1812 C1811 1.387 . S
C1812 C1815 1.387 . S
H1813 C1809 0.950 . S
H1814 C1811 0.950 . S
C1815 C1806 1.390 . S
C1815 H1808 0.950 . S
C1815 C1812 1.387 . S
C1816 C1817 1.387 . S
C1816 H1820 0.950 . S
C1816 C1825 1.390 . S
C1817 C1816 1.387 . S
C1817 C1819 1.387 . S
H1818 C1825 0.950 . S
C1819 C1817 1.387 . S
C1819 C1821 1.390 . S
C1819 H1823 0.950 . S
H1820 C1816 0.950 . S
C1821 C1819 1.390 . S
C1821 C1822 1.387 . S
C1821 H1824 0.950 . S
C1822 C1821 1.387 . S
C1822 C1825 1.387 . S
H1823 C1819 0.950 . S
H1824 C1821 0.950 . S
C1825 C1816 1.390 . S
C1825 H1818 0.950 . S
C1825 C1822 1.387 . S
C1826 C1827 1.387 . S
C1826 H1830 0.950 . S
C1826 C1835 1.390 . S
C1827 C1826 1.387 . S
C1827 C1829 1.387 . S
H1828 C1835 0.950 . S
C1829 C1827 1.387 . S
C1829 C1831 1.390 . S
C1829 H1833 0.950 . S
H1830 C1826 0.950 . S
C1831 C1829 1.390 . S
C1831 C1832 1.387 . S
C1831 H1834 0.950 . S
C1832 C1831 1.387 . S
C1832 C1835 1.387 . S
H1833 C1829 0.950 . S
H1834 C1831 0.950 . S
C1835 C1826 1.390 . S
C1835 H1828 0.950 . S
C1835 C1832 1.387 . S
C1836 C1837 1.387 . S
C1836 H1840 0.950 . S
C1836 C1845 1.390 . S
C1837 C1836 1.387 . S
C1837 C1839 1.387 . S
H1838 C1845 0.950 . S
C1839 C1837 1.387 . S
C1839 C1841 1.390 . S
C1839 H1843 0.950 . S
H1840 C1836 0.950 . S
C1841 C1839 1.390 . S
C1841 C1842 1.387 . S
C1841 H1844 0.950 . S
C1842 C1841 1.387 . S
C1842 C1845 1.387 . S
H1843 C1839 0.950 . S
H1844 C1841 0.950 . S
C1845 C1836 1.390 . S
C1845 H1838 0.950 . S
C1845 C1842 1.387 . S
C1846 C1847 1.387 . S
C1846 H1850 0.950 . S
C1846 C1855 1.390 . S
C1847 C1846 1.387 . S
C1847 C1849 1.387 . S
H1848 C1855 0.950 . S
C1849 C1847 1.387 . S
C1849 C1851 1.390 . S
C1849 H1853 0.950 . S
H1850 C1846 0.950 . S
C1851 C1849 1.390 . S
C1851 C1852 1.387 . S
C1851 H1854 0.950 . S
C1852 C1851 1.387 . S
C1852 C1855 1.387 . S
H1853 C1849 0.950 . S
H1854 C1851 0.950 . S
C1855 C1846 1.390 . S
C1855 H1848 0.950 . S
C1855 C1852 1.387 . S
C1057 C18 1.532 . S
C1062 C810 1.532 . S
C1067 C315 1.533 . S
C1072 C51 1.533 . S
C1077 C876 1.532 . S
C1082 C84 1.532 . S
C1087 C381 1.533 . S
C1092 C117 1.533 . S
C1097 C942 1.533 . S
C1102 C150 1.533 . S
C1107 C447 1.533 . S
C1112 C183 1.533 . S
C1117 C1008 1.534 . S
C1122 C216 1.534 . S
C1127 C513 1.533 . S
C1132 C249 1.533 . S
C1137 C282 1.532 . S
C1142 C546 1.532 . S
C1147 C348 1.532 . S
C1152 C612 1.532 . S
C1157 C414 1.534 . S
C1162 C678 1.534 . S
C1167 C744 1.532 . S
C1172 C480 1.532 . S
C1177 C579 1.533 . S
C1182 C843 1.533 . S
C1187 C909 1.533 . S
C1192 C645 1.533 . S
C1197 C711 1.533 . S
C1202 C975 1.533 . S
C1207 C1041 1.533 . S
C1212 C777 1.533 . S
C1217 N13 1.386 . S
C1222 C384 1.417 . S
C1227 N46 1.386 . S
C1232 C813 1.417 . S
C1237 C318 1.418 . S
C1242 N79 1.387 . S
C1247 N112 1.387 . S
C1252 C879 1.417 . S
C1257 C450 1.417 . S
C1262 N145 1.386 . S
C1267 C1011 1.418 . S
C1272 N178 1.386 . S
C1277 N211 1.385 . S
C1282 C516 1.417 . S
C1287 C945 1.418 . S
C1292 N244 1.386 . S
C1297 N277 1.386 . S
C1302 C120 1.417 . S
C1307 N310 1.387 . S
C1312 C549 1.418 . S
C1317 C54 1.418 . S
C1322 N343 1.387 . S
C1327 N376 1.387 . S
C1332 C615 1.417 . S
C1337 N409 1.387 . S
C1342 C186 1.419 . S
C1347 C747 1.418 . S
C1352 N442 1.387 . S
C1357 C252 1.418 . S
C1362 N475 1.387 . S
C1367 N508 1.387 . S
C1372 C681 1.417 . S
C1377 C912 1.418 . S
C1382 N541 1.387 . S
C1387 C285 1.417 . S
C1392 N574 1.386 . S
C1397 C846 1.417 . S
C1402 N607 1.386 . S
C1407 N640 1.386 . S
C1412 C351 1.418 . S
C1417 C978 1.419 . S
C1422 N673 1.387 . S
C1427 C483 1.418 . S
C1432 N706 1.387 . S
C1437 N739 1.386 . S
C1442 C1044 1.417 . S
C1447 C417 1.418 . S
C1452 N772 1.386 . S
C1457 C648 1.417 . S
C1462 N805 1.386 . S
C1467 N838 1.387 . S
C1472 C21 1.417 . S
C1477 N871 1.386 . S
C1482 C582 1.417 . S
C1487 C87 1.417 . S
C1492 N904 1.387 . S
C1497 C714 1.418 . S
C1502 N937 1.387 . S
C1507 N970 1.386 . S
C1512 C219 1.418 . S
C1517 C780 1.418 . S
C1522 N1003 1.387 . S
C1527 C153 1.418 . S
C1532 N1036 1.386 . S
C1537 C7 1.188 . S
C1542 C205 1.188 . S
C1547 C238 1.188 . S
C1552 C40 1.188 . S
C1557 C73 1.188 . S
C1562 C139 1.188 . S
C1567 C106 1.190 . S
C1572 C172 1.190 . S
C1577 C469 1.188 . S
C1582 C271 1.188 . S
C1587 C502 1.188 . S
C1592 C304 1.188 . S
C1597 C403 1.190 . S
C1602 C337 1.190 . S
C1607 C436 1.188 . S
C1612 C370 1.188 . S
C1617 C535 1.190 . S
C1622 C733 1.190 . S
C1627 C568 1.190 . S
C1632 C766 1.190 . S
C1637 C601 1.188 . S
C1642 C667 1.188 . S
C1647 C634 1.188 . S
C1652 C700 1.188 . S
C1657 C997 1.190 . S
C1662 C799 1.190 . S
C1667 C1030 1.190 . S
C1672 C832 1.190 . S
C1677 C865 1.190 . S
C1682 C931 1.190 . S
C1687 C898 1.188 . S
C1692 C964 1.188 . S
C1697 N2 1.640 . S
C1702 N695 1.642 . S
C1707 N35 1.642 . S
C1712 N728 1.641 . S
C1717 N68 1.642 . S
C1722 N761 1.640 . S
C1727 N101 1.642 . S
C1732 N662 1.640 . S
C1737 N629 1.642 . S
C1742 N134 1.640 . S
C1747 N167 1.642 . S
C1752 N530 1.640 . S
C1757 N563 1.640 . S
C1762 N200 1.642 . S
C1767 N233 1.640 . S
C1772 N596 1.642 . S
C1777 N959 1.642 . S
C1782 N266 1.641 . S
C1787 N299 1.641 . S
C1792 N992 1.642 . S
C1797 N1025 1.640 . S
C1802 N332 1.642 . S
C1807 N365 1.640 . S
C1812 N926 1.642 . S
C1817 N398 1.642 . S
C1822 N893 1.640 . S
C1827 N794 1.640 . S
C1832 N431 1.642 . S
C1837 N464 1.640 . S
C1842 N827 1.642 . S
C1847 N497 1.640 . S
C1852 N860 1.641 . S
