# Generated by pormake.
# Topology smc, (6)-cn, num edge types: 1
# Building blocks:
#     Node 0, Type 0, BuildingBlock: KUMBOL_clean_sbu_1, # of connection points: 6
#     Node 1, Type 0, BuildingBlock: KUMBOL_clean_sbu_1, # of connection points: 6
#     Node 2, Type 0, BuildingBlock: KUMBOL_clean_sbu_1, # of connection points: 6
#     Node 3, Type 0, BuildingBlock: KUMBOL_clean_sbu_1, # of connection points: 6
#     Node 4, Type 0, BuildingBlock: KUMBOL_clean_sbu_1, # of connection points: 6
#     Node 5, Type 0, BuildingBlock: KUMBOL_clean_sbu_1, # of connection points: 6
#     Node 6, Type 0, BuildingBlock: KUMBOL_clean_sbu_1, # of connection points: 6
#     Node 7, Type 0, BuildingBlock: KUMBOL_clean_sbu_1, # of connection points: 6
#     Node 8, Type 0, BuildingBlock: KUMBOL_clean_sbu_1, # of connection points: 6
#     Edge 9, Type (0, 0), BuildingBlock: UVAHIK_clean_linker_0, # of connection points: 2
#     Edge 10, Type (0, 0), BuildingBlock: UVAHIK_clean_linker_0, # of connection points: 2
#     Edge 11, Type (0, 0), BuildingBlock: UVAHIK_clean_linker_0, # of connection points: 2
#     Edge 12, Type (0, 0), BuildingBlock: UVAHIK_clean_linker_0, # of connection points: 2
#     Edge 13, Type (0, 0), BuildingBlock: UVAHIK_clean_linker_0, # of connection points: 2
#     Edge 14, Type (0, 0), BuildingBlock: UVAHIK_clean_linker_0, # of connection points: 2
#     Edge 15, Type (0, 0), BuildingBlock: UVAHIK_clean_linker_0, # of connection points: 2
#     Edge 16, Type (0, 0), BuildingBlock: UVAHIK_clean_linker_0, # of connection points: 2
#     Edge 17, Type (0, 0), BuildingBlock: UVAHIK_clean_linker_0, # of connection points: 2
#     Edge 18, Type (0, 0), BuildingBlock: UVAHIK_clean_linker_0, # of connection points: 2
#     Edge 19, Type (0, 0), BuildingBlock: UVAHIK_clean_linker_0, # of connection points: 2
#     Edge 20, Type (0, 0), BuildingBlock: UVAHIK_clean_linker_0, # of connection points: 2
#     Edge 21, Type (0, 0), BuildingBlock: UVAHIK_clean_linker_0, # of connection points: 2
#     Edge 22, Type (0, 0), BuildingBlock: UVAHIK_clean_linker_0, # of connection points: 2
#     Edge 23, Type (0, 0), BuildingBlock: UVAHIK_clean_linker_0, # of connection points: 2
#     Edge 24, Type (0, 0), BuildingBlock: UVAHIK_clean_linker_0, # of connection points: 2
#     Edge 25, Type (0, 0), BuildingBlock: UVAHIK_clean_linker_0, # of connection points: 2
#     Edge 26, Type (0, 0), BuildingBlock: UVAHIK_clean_linker_0, # of connection points: 2
#     Edge 27, Type (0, 0), BuildingBlock: UVAHIK_clean_linker_0, # of connection points: 2
#     Edge 28, Type (0, 0), BuildingBlock: UVAHIK_clean_linker_0, # of connection points: 2
#     Edge 29, Type (0, 0), BuildingBlock: UVAHIK_clean_linker_0, # of connection points: 2
#     Edge 30, Type (0, 0), BuildingBlock: UVAHIK_clean_linker_0, # of connection points: 2
#     Edge 31, Type (0, 0), BuildingBlock: UVAHIK_clean_linker_0, # of connection points: 2
#     Edge 32, Type (0, 0), BuildingBlock: UVAHIK_clean_linker_0, # of connection points: 2
#     Edge 33, Type (0, 0), BuildingBlock: UVAHIK_clean_linker_0, # of connection points: 2
#     Edge 34, Type (0, 0), BuildingBlock: UVAHIK_clean_linker_0, # of connection points: 2
#     Edge 35, Type (0, 0), BuildingBlock: UVAHIK_clean_linker_0, # of connection points: 2
# Relax obj value: 0.159
# Max RMSD: 0.301
# Mean RMSD: 0.301
data_MOF--net-smc--node1-KUMBOL_clean_sbu_1--edge1-UVAHIK_clean_linker_0
_symmetry_space_group_name_H-M    P1
_symmetry_Int_Tables_number       1
_symmetry_cell_setting            triclinic
loop_
_symmetry_equiv_pos_as_xyz
'x, y, z'
_cell_length_a     47.213642
_cell_length_b     47.242146
_cell_length_c     52.267495
_cell_angle_alpha  90.013145
_cell_angle_beta   89.967992
_cell_angle_gamma 119.98531
loop_
_atom_site_label
_atom_site_type_symbol
_atom_site_fract_x
_atom_site_fract_y
_atom_site_fract_z
_atom_type_partial_charge
C0 C 0.00856 0.54033 0.04474 0.0
C1 C 0.02246 0.57332 1.00626 0.0
C2 C 0.00988 0.54254 0.01819 0.0
C3 C 0.03375 0.60159 0.02129 0.0
C4 C 0.02007 0.56868 0.05989 0.0
C5 C 0.03254 0.59928 0.04802 0.0
N6 N 0.99691 0.51051 0.05578 0.0
C7 C 0.99588 0.50714 0.08172 0.0
C8 C 0.01892 0.56544 0.08656 0.0
C9 C 0.00681 0.53453 0.0975 0.0
Gd10 Gd 0.0354 0.43008 1.00507 0.0
Gd11 Gd 0.97774 0.46581 0.02815 0.0
N12 N 0.99912 0.51469 1.0041 0.0
C13 C 0.02312 0.57482 0.97955 0.0
C14 C 0.99823 0.51605 0.97803 0.0
C15 C 0.01069 0.54603 0.96541 0.0
H16 H 0.98715 0.49431 0.96663 0.0
H17 H 0.0102 0.54686 0.94472 0.0
H18 H 0.03241 0.39631 0.06327 0.0
H19 H 0.98626 0.48324 0.09026 0.0
H20 H 0.00637 0.34181 0.08264 0.0
H21 H 0.03257 0.59798 0.96968 0.0
H22 H 0.04344 0.62539 1.01242 0.0
H23 H 0.03366 0.41872 0.94182 0.0
H24 H 0.02744 0.58663 0.09885 0.0
H25 H 0.00584 0.53179 0.11809 0.0
H26 H 0.96203 0.26888 1.01112 0.0
H27 H 0.04141 0.62132 0.05935 0.0
H28 H 0.98168 0.31582 0.92713 0.0
H29 H 0.01036 0.37273 0.91117 0.0
N30 N 0.01768 0.38815 0.97458 0.0
C31 C 0.00367 0.35713 0.98375 0.0
C32 C 0.02089 0.39395 0.9489 0.0
C33 C 0.99194 0.3359 0.94063 0.0
C34 C 0.00799 0.36798 0.93154 0.0
C35 C 0.98988 0.33012 0.96702 0.0
H36 H 0.96351 0.27726 0.96456 0.0
N37 N 0.016 0.37913 0.02561 0.0
C38 C 0.00285 0.35245 1.01002 0.0
C39 C 0.98875 0.31679 0.04669 0.0
C40 C 0.98822 0.32056 0.02019 0.0
C41 C 0.01873 0.37552 0.05122 0.0
C42 C 0.00465 0.34442 0.06222 0.0
O43 O 0.03173 0.49815 0.03293 0.0
O44 O 0.04871 0.48268 0.99754 0.0
O45 O 0.08327 0.44036 0.02032 0.0
O46 O 0.07362 0.43725 0.97917 0.0
O47 O 0.96799 0.44132 0.98834 0.0
O48 O 0.01901 0.45315 0.97514 0.0
O49 O 0.98017 0.39499 1.00544 0.0
O50 O 0.96526 0.41515 0.03897 0.0
O51 O 0.93315 0.46368 1.01334 0.0
O52 O 0.93862 0.45719 0.05417 0.0
O53 O 0.04282 0.44897 0.04593 0.0
O54 O 0.99417 0.44448 0.06082 0.0
C55 C 0.0542 0.50359 0.01603 0.0
C56 C 0.98786 0.4417 0.97027 0.0
C57 C 0.12758 0.44871 0.9908 0.0
C58 C 0.18356 0.46452 1.0022 0.0
C59 C 0.16591 0.45272 0.95798 0.0
C60 C 0.13483 0.44613 0.96507 0.0
C61 C 0.19013 0.46182 0.97639 0.0
C62 C 0.15223 0.45817 1.0095 0.0
C63 C 0.09445 0.4422 0.99719 0.0
C64 C 0.97371 0.29356 1.00363 0.0
C65 C 0.97456 0.29833 0.97711 0.0
H66 H 0.97775 0.29271 0.05527 0.0
C67 C 0.95833 0.39217 0.02231 0.0
C68 C 0.02305 0.44661 0.06474 0.0
C69 C 0.88765 0.45333 0.04165 0.0
C70 C 0.84247 0.46292 0.0329 0.0
C71 C 0.83826 0.42658 0.06735 0.0
C72 C 0.86957 0.43239 0.06178 0.0
C73 C 0.82473 0.44168 0.05298 0.0
C74 C 0.87406 0.46878 0.02715 0.0
C75 C 0.92046 0.45859 0.03614 0.0
H76 H 0.17125 0.45076 0.93813 0.0
H77 H 0.11646 0.43906 0.95027 0.0
H78 H 0.21423 0.46689 0.97047 0.0
H79 H 0.14716 0.46049 0.02939 0.0
H80 H 0.82451 0.41047 0.08294 0.0
H81 H 0.87959 0.42029 0.07315 0.0
H82 H 0.80057 0.43733 0.05787 0.0
H83 H 0.88799 0.48544 1.01183 0.0
C84 C 0.47655 0.47844 0.04569 0.0
C85 C 0.44477 0.45341 1.00742 0.0
C86 C 0.47482 0.47516 0.01925 0.0
C87 C 0.41654 0.43589 0.02244 0.0
C88 C 0.44828 0.46086 0.06084 0.0
C89 C 0.41827 0.43969 0.04906 0.0
N90 N 0.50581 0.49931 0.05659 0.0
C91 C 0.50873 0.50341 0.08246 0.0
C92 C 0.45101 0.46516 0.0874 0.0
C93 C 0.48139 0.48647 0.09825 0.0
Gd94 Gd 0.58436 0.61983 1.00349 0.0
Gd95 Gd 0.55033 0.52657 0.02887 0.0
N96 N 0.50239 0.49336 1.00512 0.0
C97 C 0.44392 0.44998 0.98082 0.0
C98 C 0.5018 0.48909 0.97923 0.0
C99 C 0.47261 0.46771 0.96672 0.0
H100 H 0.5237 0.50123 0.96799 0.0
H101 H 0.47234 0.46469 0.94618 0.0
H102 H 0.62368 0.64348 0.06061 0.0
H103 H 0.53224 0.51932 0.09103 0.0
H104 H 0.67997 0.67328 0.07653 0.0
H105 H 0.42135 0.43352 0.97103 0.0
H106 H 0.39324 0.41933 1.01364 0.0
H107 H 0.58931 0.62799 0.94006 0.0
H108 H 0.42986 0.45209 0.09969 0.0
H109 H 0.4838 0.48975 0.11879 0.0
H110 H 0.74543 0.71141 1.00052 0.0
H111 H 0.39628 0.42606 0.06038 0.0
H112 H 0.69052 0.68414 0.91951 0.0
H113 H 0.63229 0.65286 0.90687 0.0
N114 N 0.62296 0.64564 0.97096 0.0
C115 C 0.65472 0.6635 0.97837 0.0
C116 C 0.61469 0.64206 0.9457 0.0
C117 C 0.67177 0.67374 0.93413 0.0
C118 C 0.63892 0.65608 0.92691 0.0
C119 C 0.68005 0.67773 0.96012 0.0
H120 H 0.73253 0.70594 0.95456 0.0
N121 N 0.637 0.65149 0.02137 0.0
C122 C 0.66199 0.66672 1.00432 0.0
C123 C 0.70123 0.6862 0.03889 0.0
C124 C 0.69479 0.68405 1.01262 0.0
C125 C 0.64318 0.65443 0.04702 0.0
C126 C 0.67528 0.67155 0.05615 0.0
O127 O 0.51418 0.5443 0.03015 0.0
O128 O 0.53309 0.57844 0.99596 0.0
O129 O 0.57227 0.65438 0.02107 0.0
O130 O 0.57165 0.6491 0.97974 0.0
O131 O 0.5737 0.54156 0.98858 0.0
O132 O 0.5604 0.5793 0.97478 0.0
O133 O 0.62048 0.60062 1.00458 0.0
O134 O 0.59897 0.56862 0.03909 0.0
O135 O 0.56022 0.48871 0.01516 0.0
O136 O 0.563 0.49955 0.05546 0.0
O137 O 0.56637 0.60973 0.04453 0.0
O138 O 0.56746 0.56456 0.06146 0.0
C139 C 0.51136 0.5639 1.01405 0.0
C140 C 0.57247 0.56019 0.97017 0.0
C141 C 0.57479 0.69757 0.99561 0.0
C142 C 0.56111 0.73994 1.00427 0.0
C143 C 0.60086 0.74811 0.97138 0.0
C144 C 0.59685 0.71736 0.97659 0.0
C145 C 0.58314 0.75938 0.98513 0.0
C146 C 0.55687 0.70894 1.00943 0.0
C147 C 0.56671 0.66354 0.999 0.0
C148 C 0.72008 0.69817 0.99449 0.0
C149 C 0.71273 0.69504 0.96832 0.0
H150 H 0.72609 0.69915 0.04603 0.0
C151 C 0.62205 0.58169 0.02223 0.0
C152 C 0.56608 0.59193 0.06411 0.0
C153 C 0.54361 0.44434 0.04392 0.0
C154 C 0.52803 0.38789 0.03409 0.0
C155 C 0.50543 0.40008 0.0714 0.0
C156 C 0.52311 0.43324 0.06556 0.0
C157 C 0.5078 0.37751 0.05577 0.0
C158 C 0.54613 0.4214 0.02819 0.0
C159 C 0.56282 0.47969 0.03815 0.0
H160 H 0.61735 0.76304 0.95636 0.0
H161 H 0.61032 0.70875 0.96534 0.0
H162 H 0.58607 0.78305 0.98045 0.0
H163 H 0.53917 0.69346 0.02368 0.0
H164 H 0.48994 0.39184 0.08819 0.0
H165 H 0.52083 0.45012 0.07819 0.0
H166 H 0.49407 0.35182 0.06076 0.0
H167 H 0.562 0.42952 1.01157 0.0
C168 C 0.52914 0.00252 0.04506 0.0
C169 C 0.54682 0.98855 1.00583 0.0
C170 C 0.52986 0.00207 0.01843 0.0
C171 C 0.56279 0.97557 0.02023 0.0
C172 C 0.54485 0.9892 0.05955 0.0
C173 C 0.56183 0.97591 0.04699 0.0
N174 N 0.51202 0.01494 0.05679 0.0
C175 C 0.50974 0.01506 0.0828 0.0
C176 C 0.54278 0.98936 0.08628 0.0
C177 C 0.52508 0.00228 0.09793 0.0
Gd178 Gd 0.39615 0.98264 1.00575 0.0
Gd179 Gd 0.48935 0.03811 0.0302 0.0
N180 N 0.51372 0.01444 1.00492 0.0
C181 C 0.54745 0.98864 0.9791 0.0
C182 C 0.51592 0.01613 0.97885 0.0
C183 C 0.53217 0.00273 0.96559 0.0
H184 H 0.50636 0.02865 0.96797 0.0
H185 H 0.53342 0.00384 0.94491 0.0
H186 H 0.3669 0.9923 0.06253 0.0
H187 H 0.49651 0.0255 0.0919 0.0
H188 H 0.33639 0.01806 0.07851 0.0
H189 H 0.56021 0.9785 0.96873 0.0
H190 H 0.57598 0.96519 1.01082 0.0
H191 H 0.38809 0.97941 0.94228 0.0
H192 H 0.55463 0.97945 0.09807 0.0
H193 H 0.52338 0.00255 0.11857 0.0
H194 H 0.30543 0.05298 1.00257 0.0
H195 H 0.57417 0.96569 0.05781 0.0
H196 H 0.33548 0.02809 0.92151 0.0
H197 H 0.36524 0.99952 0.90897 0.0
N198 N 0.37116 0.99624 0.97308 0.0
C199 C 0.35364 0.01053 0.98041 0.0
C200 C 0.37484 0.99159 0.94785 0.0
C201 C 0.34507 0.01895 0.93616 0.0
C202 C 0.36191 0.00289 0.929 0.0
C203 C 0.34048 0.02269 0.96214 0.0
H204 H 0.31331 0.04803 0.95658 0.0
N205 N 0.3631 0.00214 0.02338 0.0
C206 C 0.34921 0.01332 1.00632 0.0
C207 C 0.32726 0.03044 0.04094 0.0
C208 C 0.3315 0.02838 0.01465 0.0
C209 C 0.35779 0.00282 0.04898 0.0
C210 C 0.34008 0.01718 0.05815 0.0
O211 O 0.46536 0.98386 0.03464 0.0
O212 O 0.43618 0.97074 0.9981 0.0
O213 O 0.3618 0.93566 0.02299 0.0
O214 O 0.36702 0.94099 0.98169 0.0
O215 O 0.47576 0.0515 0.99116 0.0
O216 O 0.43709 1.00104 0.97708 0.0
O217 O 0.41528 0.03777 1.00806 0.0
O218 O 0.45105 0.05071 0.04092 0.0
O219 O 0.53307 0.0808 0.01573 0.0
O220 O 0.52381 0.07494 0.05648 0.0
O221 O 0.40583 0.97626 0.04739 0.0
O222 O 0.45194 0.02271 0.06323 0.0
C223 C 0.44846 0.96244 0.01715 0.0
C224 C 0.45587 0.03245 0.97292 0.0
C225 C 0.31843 0.89572 0.99726 0.0
C226 C 0.27572 0.83957 1.00496 0.0
C227 C 0.26753 0.87272 0.97357 0.0
C228 C 0.29853 0.899 0.97892 0.0
C229 C 0.25614 0.84317 0.98652 0.0
C230 C 0.30697 0.86588 1.01023 0.0
C231 C 0.35258 0.92131 1.00078 0.0
C232 C 0.31882 0.04104 0.99653 0.0
C233 C 0.32332 0.03823 0.97034 0.0
H234 H 0.31383 0.04183 0.04812 0.0
C235 C 0.4359 0.05924 0.02452 0.0
C236 C 0.4239 0.99466 0.06659 0.0
C237 C 0.56472 0.12783 0.04164 0.0
C238 C 0.61618 0.1777 0.0321 0.0
C239 C 0.57831 0.17849 0.06325 0.0
C240 C 0.55724 0.14508 0.05971 0.0
C241 C 0.60753 0.19475 0.04954 0.0
C242 C 0.5944 0.14422 0.02801 0.0
C243 C 0.54408 0.09224 0.03844 0.0
H244 H 0.25249 0.87508 0.95908 0.0
H245 H 0.30721 0.92155 0.96831 0.0
H246 H 0.23225 0.82282 0.98176 0.0
H247 H 0.32253 0.8629 0.02394 0.0
H248 H 0.57236 0.19168 0.07717 0.0
H249 H 0.53542 0.13278 0.07135 0.0
H250 H 0.62407 0.22039 0.05344 0.0
H251 H 0.60096 0.13073 0.01479 0.0
C252 C 0.68727 0.87887 0.37757 0.0
C253 C 0.69429 0.91228 0.34015 0.0
C254 C 0.68335 0.88144 0.35149 0.0
C255 C 0.71028 0.94061 0.3552 0.0
C256 C 0.70234 0.90729 0.39287 0.0
C257 C 0.71437 0.93812 0.38148 0.0
N258 N 0.67471 0.84862 0.38818 0.0
C259 C 0.67404 0.84525 0.4142 0.0
C260 C 0.70375 0.90386 0.41933 0.0
C261 C 0.68911 0.87268 0.43006 0.0
Gd262 Gd 0.69913 0.76 0.33883 0.0
Gd263 Gd 0.64764 0.80433 0.35965 0.0
N264 N 0.66793 0.85366 0.33731 0.0
C265 C 0.68806 0.91367 0.31412 0.0
C266 C 0.66021 0.85472 0.31227 0.0
C267 C 0.67062 0.88473 0.3002 0.0
H268 H 0.64605 0.83233 0.30166 0.0
H269 H 0.66489 0.88553 0.28027 0.0
H270 H 0.68125 0.7208 0.39635 0.0
H271 H 0.66068 0.82153 0.42304 0.0
H272 H 0.65307 0.66441 0.41214 0.0
H273 H 0.69589 0.93689 0.30477 0.0
H274 H 0.71899 0.96453 0.3468 0.0
H275 H 0.70283 0.75474 0.27544 0.0
H276 H 0.71493 0.92507 0.43173 0.0
H277 H 0.68865 0.86974 0.45061 0.0
H278 H 0.6219 0.59889 0.33612 0.0
H279 H 0.72611 0.96017 0.39294 0.0
H280 H 0.65193 0.65346 0.25505 0.0
H281 H 0.68299 0.71165 0.24238 0.0
N282 N 0.6818 0.72124 0.30623 0.0
C283 C 0.66651 0.6895 0.31381 0.0
C284 C 0.6888 0.7294 0.2811 0.0
C285 C 0.66045 0.67227 0.26962 0.0
C286 C 0.6779 0.70508 0.26237 0.0
C287 C 0.65495 0.66409 0.29561 0.0
H288 H 0.62951 0.61162 0.29016 0.0
N289 N 0.67458 0.70744 0.35703 0.0
C290 C 0.66281 0.68236 0.33987 0.0
C291 C 0.64299 0.64317 0.37447 0.0
C292 C 0.6466 0.64956 0.34818 0.0
C293 C 0.6716 0.70127 0.38269 0.0
C294 C 0.65564 0.66913 0.39177 0.0
O295 O 0.69424 0.82994 0.33724 0.0
O296 O 0.72518 0.81117 0.35531 0.0
O297 O 0.73777 0.74898 0.3469 0.0
O298 O 0.74164 0.77986 0.31381 0.0
O299 O 0.63436 0.77625 0.32137 0.0
O300 O 0.6841 0.78356 0.30813 0.0
O301 O 0.64358 0.72938 0.34074 0.0
O302 O 0.63122 0.75352 0.37353 0.0
O303 O 0.60007 0.79324 0.34411 0.0
O304 O 0.61523 0.81487 0.38166 0.0
O305 O 0.70708 0.77668 0.37952 0.0
O306 O 0.66577 0.78614 0.3943 0.0
C307 C 0.72172 0.83545 0.34726 0.0
C308 C 0.6534 0.77471 0.30339 0.0
C309 C 0.78661 0.76994 0.3209 0.0
C310 C 0.84396 0.79013 0.33037 0.0
C311 C 0.81966 0.75881 0.29168 0.0
C312 C 0.78975 0.75605 0.29817 0.0
C313 C 0.84662 0.77572 0.30768 0.0
C314 C 0.81378 0.78714 0.33711 0.0
C315 C 0.75488 0.76633 0.3274 0.0
C316 C 0.63445 0.62421 0.33006 0.0
C317 C 0.6387 0.63146 0.30388 0.0
H318 H 0.63057 0.6183 0.3816 0.0
C319 C 0.62306 0.72891 0.358 0.0
C320 C 0.69112 0.78137 0.39819 0.0
C321 C 0.55925 0.79385 0.37125 0.0
C322 C 0.50944 0.79648 0.36472 0.0
C323 C 0.51591 0.77079 0.40289 0.0
C324 C 0.54678 0.77759 0.39456 0.0
C325 C 0.49734 0.78015 0.38812 0.0
C326 C 0.5405 0.80325 0.35636 0.0
C327 C 0.59331 0.80558 0.3638 0.0
H328 H 0.82201 0.74795 0.27416 0.0
H329 H 0.76897 0.74285 0.28556 0.0
H330 H 0.86979 0.77792 0.30221 0.0
H331 H 0.81154 0.79826 0.35457 0.0
H332 H 0.50661 0.75887 0.42113 0.0
H333 H 0.56123 0.77098 0.4066 0.0
H334 H 0.47391 0.77554 0.39537 0.0
H335 H 0.55046 0.81669 0.33871 0.0
C336 C 0.13597 0.82235 0.37698 0.0
C337 C 0.10448 0.80436 0.33768 0.0
C338 C 0.13488 0.82156 0.35033 0.0
C339 C 0.07549 0.78818 0.35203 0.0
C340 C 0.10688 0.8063 0.39141 0.0
C341 C 0.07669 0.78912 0.3788 0.0
N342 N 0.16547 0.83909 0.38879 0.0
C343 C 0.16775 0.84087 0.41482 0.0
C344 C 0.10899 0.80789 0.41815 0.0
C345 C 0.13956 0.82533 0.42988 0.0
Gd346 Gd 0.25368 0.9544 0.34001 0.0
Gd347 Gd 0.21117 0.86026 0.36207 0.0
N348 N 0.16342 0.83742 0.33684 0.0
C349 C 0.10407 0.80351 0.31095 0.0
C350 C 0.16309 0.83527 0.31079 0.0
C351 C 0.13351 0.81888 0.29748 0.0
H352 H 0.18534 0.84498 0.30003 0.0
H353 H 0.13347 0.81751 0.27681 0.0
H354 H 0.29492 0.97674 0.39594 0.0
H355 H 0.19137 0.85349 0.42403 0.0
H356 H 0.35208 0.00765 0.41033 0.0
H357 H 0.08123 0.79051 0.30055 0.0
H358 H 0.05198 0.77472 0.3426 0.0
H359 H 0.25529 0.96185 0.27625 0.0
H360 H 0.0872 0.7957 0.42989 0.0
H361 H 0.14145 0.82651 0.45054 0.0
H362 H 0.41413 0.04283 0.33246 0.0
H363 H 0.0541 0.77645 0.38958 0.0
H364 H 0.35571 0.01504 0.25299 0.0
H365 H 0.29691 0.98565 0.24192 0.0
N366 N 0.29043 0.9767 0.30604 0.0
C367 C 0.32256 0.99368 0.31269 0.0
C368 C 0.28098 0.97424 0.28109 0.0
C369 C 0.33761 0.00454 0.26807 0.0
C370 C 0.30443 0.98794 0.26172 0.0
C371 C 0.34705 0.00793 0.2938 0.0
H372 H 0.39922 0.03634 0.28688 0.0
N373 N 0.30693 0.98254 0.35638 0.0
C374 C 0.33104 0.99725 0.33853 0.0
C375 C 0.37167 0.01871 0.37207 0.0
C376 C 0.36412 0.01528 0.34594 0.0
C377 C 0.31405 0.98683 0.38187 0.0
C378 C 0.3465 0.00465 0.39009 0.0
O379 O 0.18374 0.88759 0.3653 0.0
O380 O 0.20039 0.92029 0.32978 0.0
O381 O 0.24044 0.98688 0.3596 0.0
O382 O 0.25974 0.99771 0.32108 0.0
O383 O 0.23916 0.87522 0.32375 0.0
O384 O 0.22906 0.91533 0.31022 0.0
O385 O 0.2869 0.93248 0.34401 0.0
O386 O 0.26293 0.89216 0.37443 0.0
O387 O 0.20891 0.81662 0.34599 0.0
O388 O 0.20878 0.82237 0.387 0.0
O389 O 0.2365 0.94344 0.38092 0.0
O390 O 0.23427 0.89584 0.39584 0.0
C391 C 0.1784 0.90373 0.34746 0.0
C392 C 0.24034 0.89542 0.30573 0.0
C393 C 0.22317 0.01549 0.33259 0.0
C394 C 0.20058 0.0513 0.33849 0.0
C395 C 0.18147 0.01214 0.3036 0.0
C396 C 0.20262 1.0012 0.31134 0.0
C397 C 0.18039 0.03705 0.31711 0.0
C398 C 0.22211 0.04059 0.34615 0.0
C399 C 0.24725 0.00597 0.33978 0.0
C400 C 0.38856 0.02911 0.32712 0.0
C401 C 0.38006 0.02536 0.30115 0.0
H402 H 0.39681 0.03239 0.37853 0.0
C403 C 0.28727 0.91048 0.35923 0.0
C404 C 0.23576 0.92442 0.39966 0.0
C405 C 0.22375 0.78431 0.37134 0.0
C406 C 0.22413 0.73356 0.36311 0.0
C407 C 0.26538 0.77545 0.3906 0.0
C408 C 0.25115 0.79492 0.38722 0.0
C409 C 0.25205 0.74501 0.37865 0.0
C410 C 0.21023 0.75355 0.3594 0.0
C411 C 0.20727 0.80357 0.36826 0.0
H412 H 0.16611 1.00153 0.28696 0.0
H413 H 0.20332 0.982 0.30051 0.0
H414 H 0.1642 0.04564 0.31063 0.0
H415 H 0.23821 0.05201 0.36235 0.0
H416 H 0.28649 0.7837 0.40291 0.0
H417 H 0.26146 0.81813 0.3971 0.0
H418 H 0.26289 0.72991 0.38232 0.0
H419 H 0.18856 0.74494 0.34761 0.0
C420 C 0.1965 0.3379 0.377 0.0
C421 C 0.21755 0.32678 0.33826 0.0
C422 C 0.19836 0.33808 0.35045 0.0
C423 C 0.23411 0.31477 0.35303 0.0
C424 C 0.21316 0.32594 0.39188 0.0
C425 C 0.23191 0.31433 0.37975 0.0
N426 N 0.17799 0.34901 0.38827 0.0
C427 C 0.17524 0.34915 0.41424 0.0
C428 C 0.21047 0.32598 0.41856 0.0
C429 C 0.19143 0.33766 0.42977 0.0
Gd430 Gd 0.05895 0.31409 0.33851 0.0
Gd431 Gd 0.15319 0.36944 0.36102 0.0
N432 N 0.18159 0.34942 0.3366 0.0
C433 C 0.21985 0.32821 0.31158 0.0
C434 C 0.18517 0.3523 0.31064 0.0
C435 C 0.20388 0.34135 0.29776 0.0
H436 H 0.17466 0.36385 0.29958 0.0
H437 H 0.20627 0.34341 0.27715 0.0
H438 H 0.035 0.32547 0.39721 0.0
H439 H 0.16098 0.35863 0.42305 0.0
H440 H 0.00846 0.3538 0.41587 0.0
H441 H 0.23436 0.31981 0.30153 0.0
H442 H 0.24884 0.30591 0.34395 0.0
H443 H 0.04648 0.31214 0.27546 0.0
H444 H 0.22302 0.31712 0.43065 0.0
H445 H 0.18934 0.33796 0.45038 0.0
H446 H 0.9748 0.39155 0.34314 0.0
H447 H 0.2449 0.30507 0.39088 0.0
H448 H 0.99595 0.36425 0.25968 0.0
H449 H 0.02234 0.33344 0.24444 0.0
N450 N 0.03456 0.33126 0.30778 0.0
C451 C 0.01859 0.34651 0.31669 0.0
C452 C 0.0355 0.32602 0.28223 0.0
C453 C 0.00651 0.35494 0.27337 0.0
C454 C 0.02158 0.33778 0.26466 0.0
C455 C 0.00461 0.35927 0.29969 0.0
H456 H 0.97843 0.38593 0.29664 0.0
N457 N 0.03054 0.33724 0.35882 0.0
C458 C 0.01638 0.34949 0.34295 0.0
C459 C 0.99808 0.36765 0.37934 0.0
C460 C 1.00032 0.36554 0.3528 0.0
C461 C 0.02667 0.33759 0.38465 0.0
C462 C 0.01091 0.35318 0.39531 0.0
O463 O 0.13094 0.31513 0.36424 0.0
O464 O 0.09665 0.29899 0.3298 0.0
O465 O 0.02023 0.26797 0.35552 0.0
O466 O 0.0258 0.27519 0.31403 0.0
O467 O 0.1384 0.37906 0.32108 0.0
O468 O 0.09775 0.3285 0.30822 0.0
O469 O 0.08097 0.36953 0.33869 0.0
O470 O 0.11564 0.38261 0.37227 0.0
O471 O 0.19488 0.41483 0.34633 0.0
O472 O 0.18479 0.40743 0.38738 0.0
O473 O 0.07089 0.30547 0.37874 0.0
O474 O 0.1159 0.3529 0.39407 0.0
C475 C 0.11249 0.29293 0.3476 0.0
C476 C 0.11859 0.3593 0.30307 0.0
C477 C 0.98082 0.22379 0.32744 0.0
C478 C 0.94233 0.16725 0.33862 0.0
C479 C 0.93778 0.189 0.29776 0.0
C480 C 0.96466 0.21912 0.3039 0.0
C481 C 0.92664 0.16322 0.31499 0.0
C482 C 0.96963 0.19763 0.34492 0.0
C483 C 0.00955 0.25593 0.33279 0.0
C484 C 0.98699 0.37891 0.33591 0.0
C485 C 0.98908 0.37573 0.30943 0.0
H486 H 0.98599 0.37982 0.38766 0.0
C487 C 0.1006 0.39078 0.35561 0.0
C488 C 0.08885 0.32423 0.39775 0.0
C489 C 0.23145 0.459 0.37521 0.0
C490 C 0.2855 0.50525 0.36575 0.0
C491 C 0.2559 0.50603 0.4035 0.0
C492 C 0.2301 0.4752 0.3973 0.0
C493 C 0.28337 0.52102 0.38783 0.0
C494 C 0.25942 0.47404 0.3594 0.0
C495 C 0.2036 0.42643 0.36936 0.0
H496 H 0.92557 0.18562 0.27955 0.0
H497 H 0.9728 0.23884 0.29015 0.0
H498 H 0.90578 0.13985 0.30981 0.0
H499 H 0.98202 0.20076 0.36304 0.0
H500 H 0.25471 0.51826 0.42064 0.0
H501 H 0.20895 0.46406 0.40977 0.0
H502 H 0.30345 0.54475 0.3933 0.0
H503 H 0.26106 0.46152 0.34256 0.0
C504 C 0.35301 0.21111 0.71178 0.0
C505 C 0.36017 0.24502 0.67464 0.0
C506 C 0.35009 0.21413 0.6856 0.0
C507 C 0.37421 0.27297 0.69021 0.0
C508 C 0.36632 0.23912 0.72754 0.0
C509 C 0.37734 0.27004 0.71657 0.0
N510 N 0.34127 0.18076 0.72199 0.0
C511 C 0.34043 0.17674 0.74794 0.0
C512 C 0.36711 0.23516 0.75399 0.0
C513 C 0.35382 0.20381 0.76423 0.0
Gd514 Gd 0.36819 0.09317 0.67126 0.0
Gd515 Gd 0.31569 0.13706 0.6929 0.0
N516 N 0.33619 0.18668 0.67097 0.0
C517 C 0.35483 0.24677 0.64848 0.0
C518 C 0.32933 0.18803 0.64575 0.0
C519 C 0.33906 0.21811 0.63404 0.0
H520 H 0.31626 0.16581 0.63474 0.0
H521 H 0.33396 0.21914 0.61398 0.0
H522 H 0.35845 0.05733 0.72976 0.0
H523 H 0.32824 0.15271 0.75639 0.0
H524 H 0.33159 0.00204 0.74763 0.0
H525 H 0.36199 0.27002 0.63942 0.0
H526 H 0.38211 0.2969 0.68213 0.0
H527 H 0.3645 0.08364 0.60771 0.0
H528 H 0.37693 0.25604 0.76673 0.0
H529 H 0.35313 0.20041 0.78475 0.0
H530 H 0.29182 0.93189 0.67433 0.0
H531 H 0.38761 0.29177 0.72841 0.0
H532 H 0.31369 0.98134 0.59133 0.0
H533 H 0.34267 0.03867 0.57641 0.0
N534 N 0.34749 0.05218 0.64009 0.0
C535 C 0.33348 0.02098 0.64876 0.0
C536 C 0.35169 0.05873 0.61451 0.0
C537 C 0.3233 1.00101 0.6052 0.0
C538 C 0.33955 0.03331 0.59669 0.0
C539 C 0.32035 0.99448 0.63149 0.0
H540 H 0.29477 0.94175 0.62796 0.0
N541 N 0.34634 0.04167 0.69115 0.0
C542 C 0.33265 0.01551 0.67498 0.0
C543 C 0.31684 0.97849 0.71091 0.0
C544 C 0.31752 0.98326 0.68447 0.0
C545 C 0.34661 0.03704 0.7169 0.0
C546 C 0.33161 0.0055 0.72716 0.0
O547 O 0.36297 0.16346 0.67136 0.0
O548 O 0.39505 0.14456 0.68753 0.0
O549 O 0.41027 0.08601 0.67652 0.0
O550 O 0.40525 0.10901 0.64234 0.0
O551 O 0.30203 0.10888 0.65506 0.0
O552 O 0.35203 0.11728 0.64172 0.0
O553 O 0.31263 0.06216 0.67369 0.0
O554 O 0.30008 0.08625 0.70648 0.0
O555 O 0.26914 0.12745 0.6764 0.0
O556 O 0.2816 0.14498 0.71531 0.0
O557 O 0.37708 0.11109 0.71203 0.0
O558 O 0.33411 0.11827 0.72677 0.0
C559 C 0.3904 0.16882 0.68144 0.0
C560 C 0.32113 0.10774 0.63708 0.0
C561 C 0.45932 0.12564 0.65489 0.0
C562 C 0.51542 0.14603 0.66945 0.0
C563 C 0.50467 0.17257 0.6341 0.0
C564 C 0.47139 0.15037 0.63609 0.0
C565 C 0.52655 0.17054 0.65069 0.0
C566 C 0.48172 0.1233 0.67146 0.0
C567 C 0.42391 0.1011 0.65518 0.0
C568 C 0.30359 0.95681 0.66735 0.0
C569 C 0.30517 0.9624 0.64094 0.0
H570 H 0.30528 0.9541 0.71895 0.0
C571 C 0.29207 0.06161 0.69098 0.0
C572 C 0.36024 0.11481 0.73067 0.0
C573 C 0.22627 0.12467 0.70278 0.0
C574 C 0.17681 0.12814 0.69681 0.0
C575 C 0.17923 0.09351 0.73014 0.0
C576 C 0.21124 0.10274 0.72306 0.0
C577 C 0.16207 0.10603 0.71709 0.0
C578 C 0.209 0.1374 0.68972 0.0
C579 C 0.26094 0.13765 0.69664 0.0
H580 H 0.51361 0.19116 0.61936 0.0
H581 H 0.45517 0.15237 0.62249 0.0
H582 H 0.55245 0.18764 0.64841 0.0
H583 H 0.47317 0.10384 0.68549 0.0
H584 H 0.16787 0.07705 0.7461 0.0
H585 H 0.22446 0.09335 0.73371 0.0
H586 H 0.13761 0.09927 0.72337 0.0
H587 H 0.22087 0.1551 0.67451 0.0
C588 C 0.81001 0.14794 0.71206 0.0
C589 C 0.77708 0.12767 0.67364 0.0
C590 C 0.80781 0.14659 0.68552 0.0
C591 C 0.74881 0.11077 0.68871 0.0
C592 C 0.78171 0.13098 0.72725 0.0
C593 C 0.75112 0.11239 0.71544 0.0
N594 N 0.83977 0.16679 0.72302 0.0
C595 C 0.84316 0.16964 0.74893 0.0
C596 C 0.78497 0.13351 0.75391 0.0
C597 C 0.81584 0.15292 0.76478 0.0
Gd598 Gd 0.91658 0.28616 0.67158 0.0
Gd599 Gd 0.88433 0.19347 0.69539 0.0
N600 N 0.83559 0.16394 0.67139 0.0
C601 C 0.77564 0.12614 0.64693 0.0
C602 C 0.83436 0.1609 0.64537 0.0
C603 C 0.80446 0.1425 0.63277 0.0
H604 H 0.85616 0.17161 0.634 0.0
H605 H 0.80371 0.14065 0.61212 0.0
H606 H 0.95209 0.31881 0.72866 0.0
H607 H 0.86703 0.18449 0.75737 0.0
H608 H 0.00741 0.35025 0.74645 0.0
H609 H 0.75253 0.11193 0.63709 0.0
H610 H 0.72504 0.0963 0.67987 0.0
H611 H 0.92474 0.29377 0.60786 0.0
H612 H 0.76382 0.12073 0.76624 0.0
H613 H 0.81859 0.15502 0.78536 0.0
H614 H 0.0774 0.38013 0.67285 0.0
H615 H 0.72909 0.09925 0.7268 0.0
H616 H 0.02687 0.3487 0.59028 0.0
H617 H 0.96929 0.31779 0.57596 0.0
N618 N 0.95681 0.31075 0.63979 0.0
C619 C 0.98814 0.32914 0.64806 0.0
C620 C 0.94982 0.30725 0.61427 0.0
C621 C 0.00742 0.33846 0.60435 0.0
C622 C 0.97496 0.32096 0.59618 0.0
C623 C 0.01436 0.34303 0.63055 0.0
H624 H 0.06703 0.37165 0.62658 0.0
N625 N 0.96806 0.31981 0.69054 0.0
C626 C 0.99396 0.3339 0.67418 0.0
C627 C 0.03104 0.35788 0.7098 0.0
C628 C 0.02619 0.3527 0.68342 0.0
C629 C 0.97255 0.32675 0.71604 0.0
C630 C 0.00403 0.34535 0.72612 0.0
O631 O 0.85019 0.21331 0.70059 0.0
O632 O 0.86444 0.24525 0.66505 0.0
O633 O 0.90497 0.32277 0.68692 0.0
O634 O 0.90695 0.31553 0.64574 0.0
O635 O 0.90791 0.20881 0.65545 0.0
O636 O 0.8938 0.24616 0.64212 0.0
O637 O 0.95341 0.26797 0.67194 0.0
O638 O 0.93424 0.2336 0.70581 0.0
O639 O 0.88993 0.15325 0.68072 0.0
O640 O 0.89625 0.16482 0.72093 0.0
O641 O 0.89904 0.27522 0.71298 0.0
O642 O 0.90521 0.23188 0.72764 0.0
C643 C 0.84404 0.23006 0.68388 0.0
C644 C 0.90636 0.22745 0.63729 0.0
C645 C 0.89312 0.35628 0.65745 0.0
C646 C 0.87821 0.39681 0.66954 0.0
C647 C 0.88031 0.38473 0.62473 0.0
C648 C 0.88948 0.36199 0.63154 0.0
C649 C 0.87469 0.40206 0.6436 0.0
C650 C 0.8874 0.37384 0.67659 0.0
C651 C 0.90171 0.33114 0.6638 0.0
C652 C 0.05245 0.36589 0.66608 0.0
C653 C 0.04654 0.36107 0.63973 0.0
H654 H 0.05541 0.3722 0.71767 0.0
C655 C 0.95693 0.24949 0.68893 0.0
C656 C 0.9023 0.25818 0.73166 0.0
C657 C 0.87487 0.10916 0.70955 0.0
C658 C 0.86007 0.05257 0.70091 0.0
C659 C 0.83762 0.06555 0.73791 0.0
C660 C 0.85473 0.09853 0.73137 0.0
C661 C 0.84022 0.0427 0.7228 0.0
C662 C 0.87757 0.08591 0.69428 0.0
C663 C 0.89408 0.14438 0.70332 0.0
H664 H 0.8775 0.38889 0.60476 0.0
H665 H 0.89351 0.34873 0.61641 0.0
H666 H 0.86758 0.41972 0.63797 0.0
H667 H 0.88995 0.36969 0.69664 0.0
H668 H 0.82243 0.05769 0.75487 0.0
H669 H 0.85242 0.11566 0.74367 0.0
H670 H 0.82694 0.01718 0.72834 0.0
H671 H 0.89323 0.0937 0.67754 0.0
C672 C 0.86778 0.67554 0.71116 0.0
C673 C 0.89002 0.66678 0.67206 0.0
C674 C 0.87012 0.67694 0.68461 0.0
C675 C 0.90663 0.65446 0.68642 0.0
C676 C 0.88436 0.66312 0.72563 0.0
C677 C 0.90374 0.65256 0.71311 0.0
N678 N 0.84845 0.68541 0.7228 0.0
C679 C 0.84484 0.68394 0.74874 0.0
C680 C 0.88076 0.66148 0.75228 0.0
C681 C 0.86093 0.67196 0.76387 0.0
Gd682 Gd 0.72937 0.64659 0.67072 0.0
Gd683 Gd 0.823 0.70575 0.6962 0.0
N684 N 0.85282 0.68799 0.67112 0.0
C685 C 0.89273 0.66938 0.64542 0.0
C686 C 0.85668 0.69192 0.64523 0.0
C687 C 0.87627 0.68231 0.632 0.0
H688 H 0.84569 0.70326 0.63451 0.0
H689 H 0.87888 0.68519 0.61145 0.0
H690 H 0.70126 0.65774 0.72728 0.0
H691 H 0.8298 0.69233 0.7578 0.0
H692 H 0.6682 0.68102 0.74282 0.0
H693 H 0.90779 0.66188 0.63509 0.0
H694 H 0.9218 0.64635 0.67704 0.0
H695 H 0.72041 0.64094 0.60742 0.0
H696 H 0.89315 0.65214 0.76406 0.0
H697 H 0.85808 0.67088 0.78445 0.0
H698 H 0.63279 0.71022 0.66619 0.0
H699 H 0.91663 0.64292 0.72391 0.0
H700 H 0.66388 0.68514 0.58563 0.0
H701 H 0.69567 0.65846 0.57367 0.0
N702 N 0.70292 0.65777 0.63781 0.0
C703 C 0.68433 0.67098 0.64486 0.0
C704 C 0.7065 0.65253 0.6127 0.0
C705 C 0.67444 0.67726 0.60046 0.0
C706 C 0.69242 0.66227 0.59362 0.0
C707 C 0.66989 0.68148 0.62636 0.0
H708 H 0.64054 0.70442 0.62031 0.0
N709 N 0.69534 0.66499 0.68799 0.0
C710 C 0.68005 0.67433 0.67072 0.0
C711 C 0.65712 0.69085 0.70501 0.0
C712 C 0.66114 0.6882 0.67875 0.0
C713 C 0.69056 0.66648 0.71358 0.0
C714 C 0.67156 0.67955 0.72248 0.0
O715 O 0.80303 0.65159 0.69848 0.0
O716 O 0.7718 0.63863 0.66303 0.0
O717 O 0.69603 0.59972 0.68844 0.0
O718 O 0.70183 0.60378 0.64723 0.0
O719 O 0.80888 0.71747 0.65683 0.0
O720 O 0.77105 0.66657 0.64248 0.0
O721 O 0.74627 0.70127 0.67263 0.0
O722 O 0.78058 0.71254 0.70576 0.0
O723 O 0.86279 0.75267 0.6826 0.0
O724 O 0.85352 0.74328 0.72366 0.0
O725 O 0.73973 0.63991 0.71207 0.0
O726 O 0.78465 0.68688 0.72861 0.0
C727 C 0.78438 0.62999 0.6816 0.0
C728 C 0.78955 0.69813 0.63848 0.0
C729 C 0.65173 0.56112 0.66314 0.0
C730 C 0.60483 0.50726 0.67202 0.0
C731 C 0.60062 0.54314 0.64071 0.0
C732 C 0.63297 0.56695 0.64535 0.0
C733 C 0.58663 0.51352 0.65388 0.0
C734 C 0.63761 0.53123 0.67646 0.0
C735 C 0.68666 0.58471 0.6665 0.0
C736 C 0.64712 0.69917 0.66039 0.0
C737 C 0.65154 0.69588 0.63425 0.0
H738 H 0.64274 0.70132 0.71197 0.0
C739 C 0.76675 0.72238 0.68928 0.0
C740 C 0.75737 0.65803 0.73151 0.0
C741 C 0.89912 0.79609 0.71165 0.0
C742 C 0.95304 0.84256 0.70214 0.0
C743 C 0.92217 0.84413 0.7388 0.0
C744 C 0.89688 0.81282 0.73302 0.0
C745 C 0.95 0.85897 0.72346 0.0
C746 C 0.92743 0.81094 0.69621 0.0
C747 C 0.87171 0.76331 0.70581 0.0
H748 H 0.58643 0.54749 0.62663 0.0
H749 H 0.64344 0.58964 0.6347 0.0
H750 H 0.56166 0.49518 0.64946 0.0
H751 H 0.65217 0.52657 0.69003 0.0
H752 H 0.92028 0.85687 0.75534 0.0
H753 H 0.87539 0.80178 0.74514 0.0
H754 H 0.96965 0.88306 0.72864 0.0
H755 H 0.92965 0.79796 0.67992 0.0
C756 C 0.47226 0.58281 0.02511 0.0
C757 C 0.4789 0.56078 1.01214 0.0
C758 C 0.43987 0.5756 0.02852 0.0
C759 C 0.35983 0.50594 0.03841 0.0
H760 H 0.32318 0.55911 0.01623 0.0
C761 C 0.22317 0.45311 0.02371 0.0
C762 C 0.21053 0.47412 0.02052 0.0
C763 C 0.25574 0.46553 0.03073 0.0
C764 C 0.33302 0.54428 0.02336 0.0
H765 H 0.45783 0.51575 0.99077 0.0
H766 H 0.40113 0.50199 0.99791 0.0
H767 H 0.38109 0.57856 1.00964 0.0
H768 H 0.22014 0.52357 0.02547 0.0
H769 H 0.27666 0.54522 0.03949 0.0
H770 H 0.31244 0.47195 0.05271 0.0
C771 C 0.42076 0.52478 1.0054 0.0
C772 C 0.36623 0.55539 0.01923 0.0
C773 C 0.45307 0.53249 1.00139 0.0
C774 C 0.22945 0.50692 0.02789 0.0
C775 C 0.26205 0.51937 0.03535 0.0
C776 C 0.32687 0.4952 0.04316 0.0
C777 C 0.41387 0.54587 0.01957 0.0
C778 C 0.37962 0.53584 0.02601 0.0
C779 C 0.27629 0.49927 0.03501 0.0
C780 C 0.31261 0.51364 0.0349 0.0
H781 H 0.49195 0.60473 0.03366 0.0
H782 H 0.43507 0.5923 0.03935 0.0
H783 H 0.36985 0.49069 0.0442 0.0
H784 H 0.20894 0.42773 0.01794 0.0
H785 H 0.2653 0.44897 0.03017 0.0
C786 C 0.4603 0.92233 0.99518 0.0
C787 C 0.45067 0.9325 0.01707 0.0
C788 C 0.46816 0.89743 0.99698 0.0
C789 C 0.49187 0.85492 0.04515 0.0
H790 H 0.47355 0.79372 0.98971 0.0
C791 C 0.55727 0.78133 0.03092 0.0
C792 C 0.5414 0.75194 0.01722 0.0
C793 C 0.54105 0.79849 0.03641 0.0
C794 C 0.47823 0.81013 1.00565 0.0
H795 H 0.44083 0.92456 0.05766 0.0
H796 H 0.4526 0.88009 0.06059 0.0
H797 H 0.45592 0.83391 0.98635 0.0
H798 H 0.49535 0.7153 1.001 0.0
H799 H 0.4666 0.74511 1.01087 0.0
H800 H 0.51396 0.8309 0.06452 0.0
C801 C 0.45519 0.89171 0.0422 0.0
C802 C 0.46867 0.83365 1.00348 0.0
C803 C 0.44795 0.91683 0.04048 0.0
C804 C 0.50804 0.73806 1.01153 0.0
C805 C 0.49178 0.75531 0.01692 0.0
C806 C 0.50122 0.83124 0.0474 0.0
C807 C 0.46602 0.88205 0.02063 0.0
C808 C 0.47561 0.85654 0.02309 0.0
C809 C 0.50873 0.78661 0.02807 0.0
C810 C 0.49487 0.80879 0.02754 0.0
H811 H 0.46347 0.93476 0.9771 0.0
H812 H 0.47699 0.89106 0.98005 0.0
H813 H 0.49813 0.87244 0.06051 0.0
H814 H 0.58299 0.79227 0.03558 0.0
H815 H 0.55488 0.82239 0.04513 0.0
C816 C 0.23452 0.79372 0.03128 0.0
C817 C 0.26361 0.80741 0.01713 0.0
C818 C 0.21756 0.76033 0.03664 0.0
C819 C 0.20502 0.68621 1.00499 0.0
H820 H 0.14502 0.64335 0.06117 0.0
C821 C 0.0929 0.55654 0.99487 0.0
C822 C 0.0834 0.53622 0.01642 0.0
C823 C 0.11757 0.58931 0.99691 0.0
C824 C 0.16189 0.65474 0.04542 0.0
H825 H 0.29985 0.79822 0.99976 0.0
H826 H 0.27031 0.73958 1.00928 0.0
H827 H 0.18672 0.70071 0.06494 0.0
H828 H 0.0919 0.53351 0.05679 0.0
H829 H 0.13621 0.58989 0.0601 0.0
H830 H 0.18049 0.64033 0.9855 0.0
C831 C 0.26026 0.75448 0.01588 0.0
C832 C 0.18566 0.68775 0.04755 0.0
C833 C 0.27733 0.78801 1.01065 0.0
C834 C 0.09922 0.54878 0.03984 0.0
C835 C 0.12424 0.5812 0.04179 0.0
C836 C 0.18143 0.65318 1.00293 0.0
C837 C 0.22931 0.74002 0.02768 0.0
C838 C 0.20723 0.704 0.02721 0.0
C839 C 0.1335 0.60208 0.02046 0.0
C840 C 0.15929 0.63707 0.02298 0.0
H841 H 0.22372 0.80845 0.03655 0.0
H842 H 0.19391 0.75012 0.04584 0.0
H843 H 0.22076 0.69806 0.98872 0.0
H844 H 0.08021 0.54754 0.97683 0.0
H845 H 0.12348 0.60483 0.98022 0.0
C846 C 0.4311 0.10625 1.00634 0.0
C847 C 0.44776 0.09457 0.02133 0.0
C848 C 0.44449 0.13999 1.00246 0.0
C849 C 0.50633 0.21988 0.03061 0.0
H850 H 0.49364 0.25542 0.96763 0.0
C851 C 0.55554 0.35623 0.02346 0.0
C852 C 0.53013 0.36278 0.01878 0.0
C853 C 0.55181 0.32582 0.01692 0.0
C854 C 0.4976 0.2458 0.98523 0.0
H855 H 0.49116 0.10898 0.04393 0.0
H856 H 0.51488 0.16693 0.03665 0.0
H857 H 0.47286 0.19658 0.97116 0.0
H858 H 0.48253 0.34453 1.00152 0.0
H859 H 0.47611 0.29164 0.98972 0.0
H860 H 0.53073 0.26879 0.04479 0.0
C861 C 0.49124 0.15057 0.02832 0.0
C862 C 0.48539 0.21208 0.98738 0.0
C863 C 0.4777 0.11719 0.03243 0.0
C864 C 0.50256 0.34003 1.00502 0.0
C865 C 0.49891 0.30975 0.99832 0.0
C866 C 0.51884 0.25346 0.02833 0.0
C867 C 0.47482 0.16259 1.01345 0.0
C868 C 0.48909 0.1986 1.0103 0.0
C869 C 0.52262 0.30162 1.00559 0.0
C870 C 0.51412 0.26679 1.00582 0.0
H871 H 0.40795 0.08937 0.99748 0.0
H872 H 0.43087 0.14832 0.99115 0.0
H873 H 0.50922 0.21058 0.04877 0.0
H874 H 0.57685 0.37334 0.0343 0.0
H875 H 0.57066 0.32034 0.02247 0.0
C876 C 0.66265 0.22607 1.01056 0.0
C877 C 0.64941 0.19437 0.02065 0.0
C878 C 0.69608 0.24473 1.00518 0.0
C879 C 0.77141 0.25418 0.03106 0.0
H880 H 0.81416 0.31444 0.97497 0.0
C881 C 0.91194 0.33486 0.02523 0.0
C882 C 0.92377 0.36757 0.01856 0.0
C883 C 0.87852 0.31213 0.023 0.0
C884 C 0.8025 0.29784 0.99083 0.0
H885 H 0.6602 0.15631 0.03093 0.0
H886 H 0.71864 0.18896 0.02162 0.0
H887 H 0.75507 0.27647 0.97333 0.0
H888 H 0.91045 0.40232 1.00429 0.0
H889 H 0.85255 0.36289 0.99987 0.0
H890 H 0.81835 0.27607 0.049 0.0
C891 C 0.70318 0.19945 0.0181 0.0
C892 C 0.76876 0.27607 0.98982 0.0
C893 C 0.66971 0.18068 0.02321 0.0
C894 C 0.90195 0.37722 1.00944 0.0
C895 C 0.86878 0.35454 1.00675 0.0
C896 C 0.80501 0.27597 0.03213 0.0
C897 C 0.71689 0.23211 1.01008 0.0
C898 C 0.7529 0.25398 1.00993 0.0
C899 C 0.85659 0.32176 1.01369 0.0
C900 C 0.82097 0.29804 1.01204 0.0
H901 H 0.64741 0.23703 1.0081 0.0
H902 H 0.70593 0.26978 0.99892 0.0
H903 H 0.75971 0.23807 0.04718 0.0
H904 H 0.92835 0.32706 0.03267 0.0
H905 H 0.86985 0.28702 0.02849 0.0
C906 C 0.80003 0.46276 1.00468 0.0
C907 C 0.82799 0.48035 0.01994 0.0
C908 C 0.77925 0.47528 0.99983 0.0
C909 C 0.74872 0.51717 0.0359 0.0
H910 H 0.71438 0.53433 0.97417 0.0
C911 C 0.67117 0.58034 0.03775 0.0
C912 C 0.64536 0.56961 0.02028 0.0
C913 C 0.69275 0.56813 0.03659 0.0
C914 C 0.72344 0.5292 0.99157 0.0
H915 H 0.85772 0.52552 0.04041 0.0
H916 H 0.82116 0.54731 0.03219 0.0
H917 H 0.75554 0.51725 0.97096 0.0
H918 H 0.61983 0.53464 0.98983 0.0
H919 H 0.65782 0.5148 0.987 0.0
H920 H 0.71634 0.52818 0.05661 0.0
C921 C 0.81551 0.52408 0.02382 0.0
C922 C 0.74707 0.51965 0.98967 0.0
C923 C 0.83651 0.5118 0.02832 0.0
C924 C 0.64045 0.54516 1.00258 0.0
C925 C 0.66218 0.53337 1.00109 0.0
C926 C 0.72495 0.52634 0.03781 0.0
C927 C 0.78601 0.50522 1.01061 0.0
C928 C 0.76033 0.51427 1.01188 0.0
C929 C 0.68879 0.54494 0.01789 0.0
C930 C 0.7125 0.53311 0.01571 0.0
H931 H 0.7929 0.43825 0.99834 0.0
H932 H 0.75656 0.46034 0.98964 0.0
H933 H 0.75806 0.51225 0.05325 0.0
H934 H 0.67473 0.59826 0.05222 0.0
H935 H 0.7129 0.57736 0.04999 0.0
C936 C 0.89396 0.84239 0.34073 0.0
C937 C 0.87372 0.809 0.3458 0.0
C938 C 0.92719 0.85788 0.34692 0.0
C939 C 0.99248 0.84658 0.37747 0.0
H940 H 0.0409 0.89192 0.31655 0.0
C941 C 0.13217 0.90204 0.37095 0.0
C942 C 0.1457 0.90042 0.34745 0.0
C943 C 0.09939 0.89351 0.37272 0.0
C944 C 0.0278 0.87912 0.33365 0.0
H945 H 0.87087 0.76642 0.36366 0.0
H946 H 0.92878 0.79331 0.37467 0.0
H947 H 0.98315 0.87434 0.31967 0.0
H948 H 0.13558 0.88782 0.30745 0.0
H949 H 0.07771 0.87211 0.31044 0.0
H950 H 0.03683 0.84985 0.39085 0.0
C951 C 0.91937 0.80774 0.36597 0.0
C952 C 0.99473 0.8696 0.33568 0.0
C953 C 0.88615 0.79228 0.35975 0.0
C954 C 0.12592 0.89032 0.32558 0.0
C955 C 0.09277 0.88116 0.32741 0.0
C956 C 0.02561 0.85599 0.37539 0.0
C957 C 0.94063 0.84009 0.35806 0.0
C958 C 0.97659 0.85313 0.35756 0.0
C959 C 0.07903 0.88246 0.35109 0.0
C960 C 0.04371 0.87233 0.35338 0.0
H961 H 0.88481 0.85564 0.32984 0.0
H962 H 0.94279 0.88309 0.34121 0.0
H963 H 0.97923 0.83385 0.39455 0.0
H964 H 0.14693 0.90936 0.38817 0.0
H965 H 0.09 0.89545 0.39114 0.0
C966 C 0.13753 0.26338 0.32725 0.0
C967 C 0.11704 0.26453 0.34602 0.0
C968 C 0.14979 0.24206 0.32989 0.0
C969 C 0.15847 0.18831 0.37888 0.0
H970 H 0.18477 0.15862 0.31909 0.0
C971 C 0.17196 0.07338 0.36446 0.0
C972 C 0.20015 0.07875 0.35134 0.0
C973 C 0.16725 0.0996 0.37019 0.0
C974 C 0.17795 0.16716 0.33598 0.0
H975 H 0.09152 0.24349 0.38143 0.0
H976 H 0.10947 0.20342 0.38463 0.0
H977 H 0.16179 0.19395 0.31366 0.0
H978 H 0.24676 0.11531 0.33587 0.0
H979 H 0.23807 0.16131 0.34524 0.0
H980 H 0.17237 0.15862 0.40078 0.0
C981 C 0.11812 0.22025 0.36867 0.0
C982 C 0.16483 0.1876 0.33294 0.0
C983 C 0.10707 0.24261 0.36655 0.0
C984 C 0.22493 0.1108 0.34611 0.0
C985 C 0.21996 0.13698 0.35143 0.0
C986 C 0.17071 0.16694 0.38181 0.0
C987 C 0.14062 0.2204 0.35086 0.0
C988 C 0.15481 0.19855 0.35431 0.0
C989 C 0.1904 0.13131 0.36237 0.0
C990 C 0.18061 0.15635 0.36034 0.0
H991 H 0.14584 0.28049 0.31147 0.0
H992 H 0.16754 0.24376 0.31598 0.0
H993 H 0.15193 0.19669 0.39595 0.0
H994 H 0.15258 0.04872 0.36852 0.0
H995 H 0.14419 0.09471 0.37848 0.0
C996 C 0.89852 0.12668 0.36647 0.0
C997 C 0.92959 0.13858 0.35558 0.0
C998 C 0.87977 0.0938 0.37332 0.0
C999 C 0.87028 0.01747 0.34873 0.0
H1000 H 0.79936 0.97753 0.39786 0.0
C1001 C 0.75659 0.89214 0.33149 0.0
C1002 C 0.7475 0.86943 0.35147 0.0
C1003 C 0.78013 0.92481 0.33551 0.0
C1004 C 0.81926 0.98836 0.38419 0.0
H1005 H 0.96706 0.12688 0.34578 0.0
H1006 H 0.93474 0.06947 0.35847 0.0
H1007 H 0.8413 0.03522 0.40256 0.0
H1008 H 0.75409 0.86285 0.39155 0.0
H1009 H 0.79509 0.92051 0.39883 0.0
H1010 H 0.84796 0.97095 0.33007 0.0
C1011 C 0.9245 0.08528 0.36127 0.0
C1012 C 0.84318 0.02135 0.38681 0.0
C1013 C 0.94323 0.11821 0.35439 0.0
C1014 C 0.76152 0.87993 0.37574 0.0
C1015 C 0.78456 0.91285 0.37995 0.0
C1016 C 0.84635 0.9847 0.34605 0.0
C1017 C 0.89181 0.07228 0.36924 0.0
C1018 C 0.86883 0.03637 0.36894 0.0
C1019 C 0.79446 0.93547 0.35975 0.0
C1020 C 0.8204 0.96991 0.36354 0.0
H1021 H 0.88748 0.142 0.36724 0.0
H1022 H 0.85475 0.08472 0.37935 0.0
H1023 H 0.88919 0.02829 0.33427 0.0
H1024 H 0.74555 0.88454 0.31274 0.0
H1025 H 0.78695 0.94183 0.31971 0.0
C1026 C 0.22707 0.68719 0.34226 0.0
C1027 C 0.20819 0.69963 0.35301 0.0
C1028 C 0.21327 0.6537 0.33758 0.0
C1029 C 0.15277 0.57858 0.36668 0.0
H1030 H 0.16318 0.53432 0.30805 0.0
C1031 C 0.09232 0.43824 0.3627 0.0
C1032 C 0.11113 0.42555 0.35264 0.0
C1033 C 0.10333 0.47172 0.36084 0.0
C1034 C 0.16036 0.54641 0.32465 0.0
H1035 H 0.15944 0.68713 0.36531 0.0
H1036 H 0.13543 0.62858 0.35735 0.0
H1037 H 0.1832 0.5932 0.30595 0.0
H1038 H 0.15634 0.43755 0.33334 0.0
H1039 H 0.17527 0.49563 0.32951 0.0
H1040 H 0.13108 0.53244 0.38579 0.0
C1041 C 0.16094 0.64478 0.35269 0.0
C1042 C 0.17166 0.58002 0.32336 0.0
C1043 C 0.17463 0.67829 0.35708 0.0
C1044 C 0.14111 0.44666 0.34083 0.0
C1045 C 0.15192 0.47996 0.3386 0.0
C1046 C 0.14179 0.54518 0.36805 0.0
C1047 C 0.18044 0.63205 0.34386 0.0
C1048 C 0.1677 0.59632 0.34433 0.0
C1049 C 0.13323 0.49296 0.34867 0.0
C1050 C 0.14521 0.52861 0.34703 0.0
H1051 H 0.2529 0.70319 0.33859 0.0
H1052 H 0.22881 0.64452 0.33068 0.0
H1053 H 0.15023 0.59074 0.38336 0.0
H1054 H 0.06941 0.42239 0.3723 0.0
H1055 H 0.08832 0.48093 0.36878 0.0
C1056 C 0.32815 0.55281 0.34146 0.0
C1057 C 0.31654 0.52121 0.35129 0.0
C1058 C 0.36139 0.57296 0.33607 0.0
C1059 C 0.43627 0.58711 0.36455 0.0
H1060 H 0.48093 0.64729 0.30884 0.0
C1061 C 0.5761 0.67287 0.36571 0.0
C1062 C 0.58826 0.70425 0.35558 0.0
C1063 C 0.54295 0.64951 0.36296 0.0
C1064 C 0.46877 0.6309 0.32471 0.0
H1065 H 0.32962 0.4847 0.36095 0.0
H1066 H 0.38791 0.51999 0.35162 0.0
H1067 H 0.42262 0.60725 0.30503 0.0
H1068 H 0.57579 0.73555 0.33403 0.0
H1069 H 0.51828 0.69576 0.32996 0.0
H1070 H 0.48148 0.61146 0.38488 0.0
C1071 C 0.37132 0.52916 0.34813 0.0
C1072 C 0.43547 0.60782 0.32237 0.0
C1073 C 0.338 0.50888 0.35319 0.0
C1074 C 0.56698 0.7119 0.34259 0.0
C1075 C 0.53398 0.68873 0.33983 0.0
C1076 C 0.4693 0.61041 0.36706 0.0
C1077 C 0.3835 0.56188 0.34082 0.0
C1078 C 0.41904 0.5855 0.3422 0.0
C1079 C 0.52145 0.65716 0.34996 0.0
C1080 C 0.48611 0.63247 0.34713 0.0
H1081 H 0.31198 0.56283 0.34002 0.0
H1082 H 0.37014 0.59806 0.33045 0.0
H1083 H 0.42392 0.57083 0.38045 0.0
H1084 H 0.59216 0.66645 0.37573 0.0
H1085 H 0.53432 0.62533 0.37075 0.0
C1086 C 0.34507 0.92474 0.35055 0.0
C1087 C 0.31238 0.90122 0.35517 0.0
C1088 C 0.36818 0.91509 0.34579 0.0
C1089 C 0.37649 0.84475 0.32504 0.0
H1090 H 0.45774 0.88802 0.36308 0.0
C1091 C 0.457 0.78809 0.34635 0.0
C1092 C 0.49054 0.80885 0.35075 0.0
C1093 C 0.43715 0.80096 0.33944 0.0
C1094 C 0.43559 0.87616 0.35175 0.0
H1095 H 0.27758 0.84954 0.35652 0.0
H1096 H 0.31777 0.8324 0.34902 0.0
H1097 H 0.41897 0.90738 0.36688 0.0
H1098 H 0.53037 0.85889 0.34865 0.0
H1099 H 0.49573 0.88148 0.33624 0.0
H1100 H 0.3928 0.81293 0.31044 0.0
C1101 C 0.32582 0.85827 0.34928 0.0
C1102 C 0.41328 0.88721 0.35406 0.0
C1103 C 0.30293 0.868 0.35418 0.0
C1104 C 0.50451 0.84236 0.34552 0.0
C1105 C 0.48462 0.8553 0.33868 0.0
C1106 C 0.39891 0.83375 0.32264 0.0
C1107 C 0.35876 0.88173 0.34515 0.0
C1108 C 0.38332 0.87136 0.34103 0.0
C1109 C 0.45048 0.83491 0.33691 0.0
C1110 C 0.42855 0.84905 0.33628 0.0
H1111 H 0.3528 0.95046 0.35081 0.0
H1112 H 0.39335 0.93371 0.3424 0.0
H1113 H 0.35368 0.83227 0.31455 0.0
H1114 H 0.4458 0.76209 0.34991 0.0
H1115 H 0.41102 0.78448 0.33814 0.0
C1116 C 0.7892 0.20638 0.66342 0.0
C1117 C 0.81034 0.22409 0.68342 0.0
C1118 C 0.75561 0.19481 0.66556 0.0
C1119 C 0.69123 0.18315 0.71423 0.0
H1120 H 0.63838 0.16422 0.65312 0.0
C1121 C 0.56224 0.17028 0.69966 0.0
C1122 C 0.54043 0.14352 0.68463 0.0
C1123 C 0.59325 0.17508 0.70548 0.0
C1124 C 0.65284 0.16905 0.67035 0.0
H1125 H 0.81376 0.24513 0.72079 0.0
H1126 H 0.75599 0.2284 0.72349 0.0
H1127 H 0.69682 0.18651 0.64904 0.0
H1128 H 0.5323 0.09911 0.66616 0.0
H1129 H 0.58677 0.10768 0.67611 0.0
H1130 H 0.64667 0.16787 0.73526 0.0
C1131 C 0.76444 0.22132 0.70675 0.0
C1132 C 0.68651 0.18173 0.66809 0.0
C1133 C 0.79778 0.23162 0.70503 0.0
C1134 C 0.54859 0.1197 0.67801 0.0
C1135 C 0.57979 0.12475 0.6835 0.0
C1136 C 0.65755 0.17137 0.71644 0.0
C1137 C 0.74254 0.20192 0.68736 0.0
C1138 C 0.70639 0.18884 0.68996 0.0
C1139 C 0.6029 0.15339 0.69603 0.0
C1140 C 0.63809 0.16392 0.69449 0.0
H1141 H 0.79835 0.19986 0.64676 0.0
H1142 H 0.73997 0.17935 0.65039 0.0
H1143 H 0.70515 0.18751 0.73166 0.0
H1144 H 0.55653 0.18913 0.70468 0.0
H1145 H 0.61072 0.19741 0.71506 0.0
C1146 C 0.89643 0.44916 0.69153 0.0
C1147 C 0.87227 0.41635 0.68834 0.0
C1148 C 0.88762 0.47226 0.69839 0.0
C1149 C 0.82367 0.48997 0.71756 0.0
H1150 H 0.84477 0.5381 0.65384 0.0
C1151 C 0.77151 0.57536 0.69721 0.0
C1152 C 0.78757 0.6008 0.67961 0.0
C1153 C 0.78035 0.5513 0.69966 0.0
C1154 C 0.83915 0.526 0.67219 0.0
H1155 H 0.82091 0.38098 0.69281 0.0
H1156 H 0.8055 0.42137 0.70545 0.0
H1157 H 0.86661 0.50281 0.66232 0.0
H1158 H 0.82418 0.62076 0.65007 0.0
H1159 H 0.84273 0.58218 0.65609 0.0
H1160 H 0.7977 0.51404 0.72839 0.0
C1161 C 0.83113 0.42927 0.70265 0.0
C1162 C 0.8517 0.50538 0.6769 0.0
C1163 C 0.83994 0.40616 0.69556 0.0
C1164 C 0.81171 0.60136 0.66387 0.0
C1165 C 0.82194 0.57857 0.66725 0.0
C1166 C 0.81207 0.51168 0.71334 0.0
C1167 C 0.85459 0.46268 0.70226 0.0
C1168 C 0.84389 0.487 0.69947 0.0
C1169 C 0.80683 0.55325 0.68556 0.0
C1170 C 0.81927 0.52993 0.69037 0.0
H1171 H 0.92141 0.45748 0.68572 0.0
H1172 H 0.90609 0.49793 0.6981 0.0
H1173 H 0.81705 0.47567 0.735 0.0
H1174 H 0.75277 0.57465 0.70963 0.0
H1175 H 0.76673 0.53183 0.71316 0.0
C1176 C 0.60518 0.45631 0.68555 0.0
C1177 C 0.58949 0.47493 0.68494 0.0
C1178 C 0.5877 0.42321 0.69242 0.0
C1179 C 0.50607 0.35687 0.71641 0.0
H1180 H 0.52064 0.30437 0.66687 0.0
C1181 C 0.42642 0.21506 0.71013 0.0
C1182 C 0.41645 0.20273 0.68534 0.0
C1183 C 0.44935 0.24814 0.71383 0.0
C1184 C 0.51626 0.31871 0.68083 0.0
H1185 H 0.54467 0.47478 0.69403 0.0
H1186 H 0.51405 0.41732 0.70524 0.0
H1187 H 0.55901 0.3627 0.66949 0.0
H1188 H 0.42176 0.21464 0.64505 0.0
H1189 H 0.463 0.27216 0.65131 0.0
H1190 H 0.46222 0.31276 0.72671 0.0
C1191 C 0.53967 0.4278 0.70049 0.0
C1192 C 0.53857 0.35214 0.68266 0.0
C1193 C 0.55713 0.46077 0.69376 0.0
C1194 C 0.42964 0.22369 0.6643 0.0
C1195 C 0.45315 0.25649 0.66792 0.0
C1196 C 0.48369 0.32335 0.71455 0.0
C1197 C 0.55423 0.40817 0.69873 0.0
C1198 C 0.53343 0.37187 0.70005 0.0
C1199 C 0.46327 0.26911 0.69272 0.0
C1200 C 0.48821 0.30407 0.69634 0.0
H1201 H 0.63022 0.46664 0.67908 0.0
H1202 H 0.59997 0.40905 0.69154 0.0
H1203 H 0.50146 0.37116 0.73024 0.0
H1204 H 0.41578 0.19932 0.72662 0.0
H1205 H 0.45646 0.25722 0.73315 0.0
C1206 C 0.76508 0.77029 0.66953 0.0
C1207 C 0.77941 0.75796 0.68643 0.0
C1208 C 0.77885 0.80415 0.66619 0.0
C1209 C 0.83734 0.88329 0.69791 0.0
H1210 H 0.82877 0.92071 0.6344 0.0
C1211 C 0.88729 0.02017 0.69189 0.0
C1212 C 0.8624 0.02715 0.68615 0.0
C1213 C 0.88358 0.98968 0.6856 0.0
C1214 C 0.83158 0.91057 0.65217 0.0
H1215 H 0.81866 0.77167 0.71374 0.0
H1216 H 0.84394 0.82962 0.70656 0.0
H1217 H 0.80867 0.86197 0.63698 0.0
H1218 H 0.81566 0.00936 0.66754 0.0
H1219 H 0.80932 0.95633 0.6561 0.0
H1220 H 0.86022 0.93173 0.71307 0.0
C1221 C 0.82163 0.81371 0.6963 0.0
C1222 C 0.81973 0.87684 0.65379 0.0
C1223 C 0.80738 0.78016 0.70012 0.0
C1224 C 0.83535 0.0046 0.6718 0.0
C1225 C 0.83173 0.97423 0.66533 0.0
C1226 C 0.84964 0.91691 0.69613 0.0
C1227 C 0.80747 0.82639 0.67949 0.0
C1228 C 0.82187 0.86259 0.67687 0.0
C1229 C 0.85491 0.96578 0.67345 0.0
C1230 C 0.8464 0.93091 0.67344 0.0
H1231 H 0.74334 0.7538 0.65883 0.0
H1232 H 0.76675 0.81279 0.65345 0.0
H1233 H 0.83893 0.87355 0.71625 0.0
H1234 H 0.90816 0.03707 0.70323 0.0
H1235 H 0.90202 0.98396 0.69185 0.0
C1236 C 0.99683 0.89009 0.67837 0.0
C1237 C 0.98439 0.85827 0.688 0.0
C1238 C 0.03005 0.90928 0.67245 0.0
C1239 C 0.10506 0.9205 0.69876 0.0
H1240 H 0.14878 0.981 0.64303 0.0
C1241 C 0.24529 0.00514 0.69787 0.0
C1242 C 0.25725 0.03688 0.68855 0.0
C1243 C 0.21206 0.98185 0.69532 0.0
C1244 C 0.1369 0.96448 0.65889 0.0
H1245 H 0.99594 0.8204 0.6967 0.0
H1246 H 0.0542 0.85407 0.68653 0.0
H1247 H 0.09008 0.94201 0.64023 0.0
H1248 H 0.24425 0.06888 0.66864 0.0
H1249 H 0.18675 0.0291 0.66462 0.0
H1250 H 0.15103 0.94373 0.71811 0.0
C1251 C 0.03827 0.86416 0.68364 0.0
C1252 C 0.10336 0.94201 0.65713 0.0
C1253 C 0.00495 0.84482 0.68922 0.0
C1254 C 0.23567 0.0449 0.67647 0.0
C1255 C 0.20264 0.02176 0.67378 0.0
C1256 C 0.13837 0.94318 0.70069 0.0
C1257 C 0.05136 0.89705 0.67643 0.0
C1258 C 0.0872 0.91967 0.67701 0.0
C1259 C 0.1903 0.98989 0.6832 0.0
C1260 C 0.15482 0.96542 0.68077 0.0
H1261 H 0.98135 0.90093 0.67729 0.0
H1262 H 0.03947 0.93452 0.6669 0.0
H1263 H 0.093 0.90418 0.7147 0.0
H1264 H 0.26157 0.99843 0.70721 0.0
H1265 H 0.20354 0.95745 0.70259 0.0
C1266 C 0.12773 0.12422 0.67512 0.0
C1267 C 0.15932 0.14364 0.68518 0.0
C1268 C 0.10805 0.1379 0.66981 0.0
C1269 C 0.09388 0.19866 0.6981 0.0
H1270 H 0.03862 0.18827 0.63993 0.0
C1271 C 0.01328 0.25869 0.6952 0.0
C1272 C 0.98175 0.23973 0.68522 0.0
C1273 C 0.03599 0.24794 0.69312 0.0
C1274 C 0.05372 0.19111 0.65641 0.0
H1275 H 0.19616 0.19285 0.69562 0.0
H1276 H 0.16146 0.21667 0.68687 0.0
H1277 H 0.07737 0.16808 0.63745 0.0
H1278 H 0.94893 0.19428 0.66599 0.0
H1279 H 0.98833 0.17609 0.66169 0.0
H1280 H 0.06964 0.22039 0.71753 0.0
C1281 C 0.15202 0.19095 0.68302 0.0
C1282 C 0.07596 0.17972 0.65489 0.0
C1283 C 0.17189 0.1774 0.68788 0.0
C1284 C 0.97317 0.20981 0.6734 0.0
C1285 C 0.99589 0.19937 0.67086 0.0
C1286 C 0.07151 0.2097 0.69972 0.0
C1287 C 0.1195 0.17104 0.67499 0.0
C1288 C 0.09646 0.18373 0.67567 0.0
C1289 C 0.02756 0.21819 0.68079 0.0
C1290 C 0.05134 0.20634 0.67886 0.0
H1291 H 0.11767 0.09815 0.67275 0.0
H1292 H 0.0831 0.12207 0.66355 0.0
H1293 H 0.10876 0.20118 0.71466 0.0
H1294 H 0.02014 0.28148 0.70494 0.0
H1295 H 0.0602 0.263 0.70105 0.0
C1296 C 0.12255 0.40471 0.27462 0.0
C1297 C 0.11661 0.37254 0.27741 0.0
C1298 C 0.11489 0.41505 0.25165 0.0
C1299 C 0.05944 0.38102 0.19547 0.0
H1300 H 0.11184 0.46743 0.16639 0.0
C1301 C 0.01123 0.42553 0.1105 0.0
C1302 C 0.03378 0.4437 0.09116 0.0
C1303 C 0.02184 0.41862 0.1337 0.0
C1304 C 0.09682 0.44312 0.17414 0.0
H1305 H 0.10076 0.32711 0.25713 0.0
H1306 H 0.08698 0.34479 0.21742 0.0
H1307 H 0.13107 0.45205 0.20447 0.0
H1308 H 0.08543 0.46977 0.08169 0.0
H1309 H 0.10371 0.45803 0.12169 0.0
H1310 H 0.02533 0.37185 0.16515 0.0
C1311 C 0.09697 0.36196 0.23312 0.0
C1312 C 0.10781 0.43438 0.19622 0.0
C1313 C 0.1051 0.35186 0.25591 0.0
C1314 C 0.06726 0.45579 0.09611 0.0
C1315 C 0.07783 0.44911 0.11925 0.0
C1316 C 0.04828 0.38984 0.1736 0.0
C1317 C 0.10092 0.39345 0.23081 0.0
C1318 C 0.08938 0.4031 0.20719 0.0
C1319 C 0.05533 0.42993 0.13834 0.0
C1320 C 0.06679 0.42101 0.16244 0.0
H1321 H 0.13161 0.42148 0.29057 0.0
H1322 H 0.11855 0.43955 0.25066 0.0
H1323 H 0.04435 0.35679 0.2033 0.0
H1324 H 0.98529 0.41547 0.1073 0.0
H1325 H 0.00366 0.40411 0.14794 0.0
C1326 C 0.61031 0.72713 0.278 0.0
C1327 C 0.63919 0.75771 0.27864 0.0
C1328 C 0.60003 0.70865 0.25529 0.0
C1329 C 0.61639 0.71469 0.18396 0.0
H1330 H 0.57017 0.62016 0.18805 0.0
C1331 C 0.56935 0.63699 0.09203 0.0
C1332 C 0.56932 0.60716 0.09006 0.0
C1333 C 0.57584 0.6539 0.11524 0.0
C1334 C 0.5834 0.64653 0.18642 0.0
H1335 H 0.67951 0.79304 0.25573 0.0
H1336 H 0.66221 0.76123 0.21646 0.0
H1337 H 0.58567 0.65247 0.22717 0.0
H1338 H 0.5752 0.57155 0.11197 0.0
H1339 H 0.58649 0.60103 0.15266 0.0
H1340 H 0.6159 0.709 0.14342 0.0
C1341 C 0.64678 0.75136 0.23315 0.0
C1342 C 0.59187 0.66526 0.20905 0.0
C1343 C 0.65691 0.76978 0.25581 0.0
C1344 C 0.57491 0.59431 0.11256 0.0
C1345 C 0.58139 0.61135 0.13601 0.0
C1346 C 0.6084 0.69605 0.16145 0.0
C1347 C 0.61836 0.72017 0.23246 0.0
C1348 C 0.60854 0.69977 0.20827 0.0
C1349 C 0.58263 0.64185 0.13765 0.0
C1350 C 0.59156 0.66158 0.16215 0.0
H1351 H 0.59642 0.71675 0.29531 0.0
H1352 H 0.57779 0.68515 0.2558 0.0
H1353 H 0.62864 0.741 0.1821 0.0
H1354 H 0.565 0.64795 0.07541 0.0
H1355 H 0.5755 0.67664 0.11544 0.0
C1356 C 0.41831 0.00446 0.11395 0.0
C1357 C 0.40947 0.98329 0.09281 0.0
C1358 C 0.40118 0.99374 0.13738 0.0
C1359 C 0.32211 0.92433 0.16493 0.0
H1360 H 0.36129 0.96532 0.2295 0.0
C1361 C 0.24459 0.89895 0.25771 0.0
C1362 C 0.25864 0.89927 0.28146 0.0
C1363 C 0.26319 0.90723 0.23508 0.0
C1364 C 0.34995 0.95321 0.21172 0.0
H1365 H 0.37644 0.93345 0.08057 0.0
H1366 H 0.34819 0.91472 0.12083 0.0
H1367 H 0.39382 0.98329 0.19053 0.0
H1368 H 0.30337 0.90825 0.29996 0.0
H1369 H 0.33595 0.92287 0.2607 0.0
H1370 H 0.27865 0.89346 0.1863 0.0
C1371 C 0.36723 0.94004 0.1195 0.0
C1372 C 0.36861 0.96397 0.18906 0.0
C1373 C 0.38396 0.95081 0.09619 0.0
C1374 C 0.29164 0.90731 0.28195 0.0
C1375 C 0.31046 0.91615 0.25938 0.0
C1376 C 0.30364 0.91339 0.18757 0.0
C1377 C 0.37488 0.96137 0.14051 0.0
C1378 C 0.35509 0.94983 0.16511 0.0
C1379 C 0.29668 0.91664 0.23553 0.0
C1380 C 0.31708 0.92771 0.21139 0.0
H1381 H 0.43766 0.02965 0.11214 0.0
H1382 H 0.40806 0.01133 0.15273 0.0
H1383 H 0.31 0.91287 0.1472 0.0
H1384 H 0.21932 0.89314 0.25674 0.0
H1385 H 0.25152 0.90751 0.21735 0.0
C1386 C 0.4502 0.07475 0.94707 0.0
C1387 C 0.45271 0.04632 0.94796 0.0
C1388 C 0.4415 0.08448 0.92425 0.0
C1389 C 0.43369 0.06942 0.8528 0.0
H1390 H 0.37962 0.10968 0.85602 0.0
C1391 C 0.40236 0.11479 0.76019 0.0
C1392 C 0.37162 0.11268 0.75724 0.0
C1393 C 0.41257 0.10883 0.78373 0.0
C1394 C 0.39443 0.09816 0.85461 0.0
H1395 H 0.44979 0.0069 0.92501 0.0
H1396 H 0.43522 0.02369 0.88542 0.0
H1397 H 0.39693 0.09513 0.89548 0.0
H1398 H 0.32823 0.1038 0.77793 0.0
H1399 H 0.34603 0.09339 0.8193 0.0
H1400 H 0.43006 0.07084 0.81215 0.0
C1401 C 0.43978 0.03877 0.90221 0.0
C1402 C 0.40491 0.09022 0.87745 0.0
C1403 C 0.44812 0.02895 0.92505 0.0
C1404 C 0.35202 0.10575 0.77926 0.0
C1405 C 0.36235 0.09972 0.80309 0.0
C1406 C 0.423 0.07702 0.83008 0.0
C1407 C 0.43561 0.06637 0.9014 0.0
C1408 C 0.42479 0.07568 0.877 0.0
C1409 C 0.39257 0.10039 0.80561 0.0
C1410 C 0.4033 0.09175 0.83041 0.0
H1411 H 0.45379 0.08885 0.96425 0.0
H1412 H 0.4393 0.10621 0.92463 0.0
H1413 H 0.44926 0.05876 0.85123 0.0
H1414 H 0.41868 0.12045 0.74402 0.0
H1415 H 0.43641 0.11085 0.78457 0.0
C1416 C 0.94454 0.39624 0.94321 0.0
C1417 C 0.97449 0.42577 0.94488 0.0
C1418 C 0.9347 0.37828 0.9202 0.0
C1419 C 0.96984 0.36924 0.85805 0.0
H1420 H 0.8789 0.31309 0.83976 0.0
C1421 C 0.93181 0.27581 0.77407 0.0
C1422 C 0.90627 0.27205 0.75803 0.0
C1423 C 0.93897 0.29397 0.79692 0.0
C1424 C 0.90448 0.32876 0.84439 0.0
H1425 H 0.01641 0.46056 0.923 0.0
H1426 H 0.99907 0.43009 0.88287 0.0
H1427 H 0.89287 0.34718 0.87794 0.0
H1428 H 0.86781 0.28395 0.7538 0.0
H1429 H 0.87937 0.31446 0.79388 0.0
H1430 H 0.98146 0.35139 0.82422 0.0
C1431 C 0.98345 0.42 0.89946 0.0
C1432 C 0.91256 0.34819 0.86662 0.0
C1433 C 0.9933 0.43783 0.92247 0.0
C1434 C 0.88743 0.28605 0.76586 0.0
C1435 C 0.89413 0.30361 0.78892 0.0
C1436 C 0.96177 0.34983 0.83587 0.0
C1437 C 0.95438 0.38942 0.89801 0.0
C1438 C 0.94543 0.36886 0.87391 0.0
C1439 C 0.92043 0.30845 0.80468 0.0
C1440 C 0.92894 0.32913 0.82863 0.0
H1441 H 0.92948 0.38604 0.96004 0.0
H1442 H 0.91227 0.35492 0.92024 0.0
H1443 H 0.99543 0.38422 0.86292 0.0
H1444 H 0.94731 0.26607 0.76832 0.0
H1445 H 0.95926 0.29679 0.80845 0.0
C1446 C 0.75296 0.66673 0.77918 0.0
C1447 C 0.74225 0.64648 0.75745 0.0
C1448 C 0.73551 0.6564 0.80244 0.0
C1449 C 0.65281 0.59263 0.82836 0.0
H1450 H 0.69485 0.62614 0.89363 0.0
C1451 C 0.57606 0.5639 0.92205 0.0
C1452 C 0.59068 0.56494 0.94568 0.0
C1453 C 0.59444 0.57266 0.89926 0.0
C1454 C 0.68247 0.61581 0.87575 0.0
H1455 H 0.70534 0.59848 0.74396 0.0
H1456 H 0.6762 0.58044 0.78387 0.0
H1457 H 0.72737 0.64229 0.85498 0.0
H1458 H 0.637 0.5785 0.9636 0.0
H1459 H 0.66794 0.59008 0.92456 0.0
H1460 H 0.60832 0.56452 0.84908 0.0
C1461 C 0.69724 0.60482 0.78313 0.0
C1462 C 0.70131 0.62581 0.85324 0.0
C1463 C 0.71444 0.61515 0.76003 0.0
C1464 C 0.62415 0.57492 0.94584 0.0
C1465 C 0.64239 0.58299 0.92314 0.0
C1466 C 0.63412 0.58202 0.85088 0.0
C1467 C 0.70691 0.6254 0.80471 0.0
C1468 C 0.68687 0.61455 0.82905 0.0
C1469 C 0.62813 0.58261 0.89934 0.0
C1470 C 0.64845 0.5935 0.87509 0.0
H1471 H 0.77417 0.69099 0.77803 0.0
H1472 H 0.74399 0.67328 0.81836 0.0
H1473 H 0.64017 0.58368 0.81034 0.0
H1474 H 0.55053 0.55722 0.9213 0.0
H1475 H 0.58222 0.57261 0.88177 0.0
C1476 C 0.73049 0.77451 0.42629 0.0
C1477 C 0.70294 0.7788 0.42453 0.0
C1478 C 0.74115 0.76885 0.44961 0.0
C1479 C 0.73472 0.77184 0.52104 0.0
H1480 H 0.77031 0.7138 0.51706 0.0
C1481 C 0.78839 0.74258 0.61203 0.0
C1482 C 0.78654 0.71197 0.6135 0.0
C1483 C 0.78001 0.75283 0.58932 0.0
C1484 C 0.76002 0.72961 0.51905 0.0
H1485 H 0.66619 0.78172 0.44732 0.0
H1486 H 0.68528 0.77225 0.48857 0.0
H1487 H 0.74945 0.72558 0.47912 0.0
H1488 H 0.77716 0.66948 0.59145 0.0
H1489 H 0.7616 0.68608 0.55272 0.0
H1490 H 0.74351 0.77417 0.56143 0.0
C1491 C 0.69837 0.77305 0.47134 0.0
C1492 C 0.74852 0.73707 0.49678 0.0
C1493 C 0.68734 0.77856 0.44759 0.0
C1494 C 0.77835 0.69298 0.59118 0.0
C1495 C 0.76969 0.70292 0.56863 0.0
C1496 C 0.74568 0.76382 0.54359 0.0
C1497 C 0.72502 0.76723 0.4726 0.0
C1498 C 0.73592 0.75856 0.49719 0.0
C1499 C 0.76969 0.73281 0.56724 0.0
C1500 C 0.7586 0.74246 0.54309 0.0
H1501 H 0.74394 0.7748 0.40941 0.0
H1502 H 0.76234 0.76568 0.44942 0.0
H1503 H 0.72558 0.78873 0.52234 0.0
H1504 H 0.79533 0.75822 0.62868 0.0
H1505 H 0.78154 0.77645 0.58929 0.0
C1506 C 0.23203 0.96418 0.42919 0.0
C1507 C 0.23831 0.93818 0.42595 0.0
C1508 C 0.2381 0.98086 0.45242 0.0
C1509 C 0.25779 0.97864 0.52195 0.0
H1510 H 0.28524 0.07073 0.51734 0.0
C1511 C 0.2798 0.05799 0.6131 0.0
C1512 C 0.30655 0.09005 0.61277 0.0
C1513 C 0.26951 0.03914 0.59064 0.0
C1514 C 0.27792 0.04514 0.51913 0.0
H1515 H 0.25475 0.90864 0.44548 0.0
H1516 H 0.26594 0.93812 0.48625 0.0
H1517 H 0.27292 0.03853 0.4787 0.0
H1518 H 0.3428 0.12782 0.58852 0.0
H1519 H 0.32487 0.09544 0.54931 0.0
H1520 H 0.26461 0.986 0.56248 0.0
C1521 C 0.256 0.9455 0.47066 0.0
C1522 C 0.27021 0.02629 0.49678 0.0
C1523 C 0.24961 0.92848 0.44721 0.0
C1524 C 0.3219 0.10331 0.58929 0.0
C1525 C 0.31151 0.08462 0.56679 0.0
C1526 C 0.26591 0.99766 0.54435 0.0
C1527 C 0.25103 0.97253 0.47346 0.0
C1528 C 0.25979 0.9926 0.4977 0.0
C1529 C 0.28554 0.05196 0.56714 0.0
C1530 C 0.27608 0.03126 0.54332 0.0
H1531 H 0.22279 0.97225 0.41352 0.0
H1532 H 0.23265 1.00051 0.45367 0.0
H1533 H 0.24965 0.95287 0.52376 0.0
H1534 H 0.26792 0.04679 0.63095 0.0
H1535 H 0.24926 0.01433 0.59182 0.0
C1536 C 0.9564 0.2379 0.61239 0.0
C1537 C 0.92397 0.23161 0.61254 0.0
C1538 C 0.97482 0.24637 0.5897 0.0
C1539 C 0.96758 0.2479 0.51796 0.0
H1540 H 0.06047 0.30994 0.52196 0.0
C1541 C 0.04829 0.28089 0.42734 0.0
C1542 C 0.07488 0.31287 0.42409 0.0
C1543 C 0.03142 0.27063 0.4506 0.0
C1544 C 0.03453 0.29286 0.52029 0.0
H1545 H 0.88528 0.22868 0.58862 0.0
H1546 H 0.91707 0.24335 0.54899 0.0
H1547 H 0.02773 0.29288 0.56085 0.0
H1548 H 0.10513 0.35862 0.44374 0.0
H1549 H 0.07562 0.34088 0.48447 0.0
H1550 H 0.97384 0.24904 0.47743 0.0
C1551 C 0.92846 0.24144 0.56636 0.0
C1552 C 0.01566 0.28255 0.54284 0.0
C1553 C 0.91009 0.23305 0.58915 0.0
C1554 C 0.0849 0.33384 0.44542 0.0
C1555 C 0.06782 0.32353 0.46888 0.0
C1556 C 0.98632 0.25847 0.49544 0.0
C1557 C 0.9614 0.24882 0.56626 0.0
C1558 C 0.9818 0.25977 0.54211 0.0
C1559 C 0.04025 0.29189 0.47172 0.0
C1560 C 0.02025 0.28104 0.49611 0.0
H1561 H 0.96821 0.23789 0.63003 0.0
H1562 H 0.9998 0.25134 0.59068 0.0
H1563 H 0.94182 0.23011 0.51631 0.0
H1564 H 0.03977 0.26368 0.41159 0.0
H1565 H 0.01122 0.24581 0.45183 0.0
loop_
_geom_bond_atom_site_label_1
_geom_bond_atom_site_label_2
_geom_bond_distance
_geom_bond_site_symmetry_2
_ccdc_geom_bond_type
C0 C2 1.422 . S
C0 C4 1.415 . S
C0 N6 1.374 1_455 S
C1 C2 1.438 . S
C1 C3 1.446 . S
C1 C13 1.377 1_554 S
C2 C0 1.422 . S
C2 C1 1.438 . S
C2 N12 1.359 1_454 S
C3 C1 1.446 . S
C3 C5 1.329 . S
C3 H22 0.930 . S
C4 C0 1.415 . S
C4 C5 1.437 . S
C4 C8 1.413 . S
C5 C3 1.329 . S
C5 C4 1.437 . S
C5 H27 0.929 . S
N6 C0 1.374 1_655 S
N6 C7 1.334 1_655 S
N6 Gd11 2.618 . S
C7 N6 1.334 1_455 S
C7 C9 1.378 . S
C7 H19 0.929 1_455 S
C8 C4 1.413 . S
C8 C9 1.348 . S
C8 H24 0.931 . S
C9 C7 1.378 . S
C9 C8 1.348 . S
C9 H25 0.930 . S
Gd10 N30 2.622 . S
Gd10 N37 2.570 1_556 S
Gd10 O44 2.353 . S
Gd10 O45 2.468 1_556 S
Gd10 O46 2.427 . S
Gd10 O48 2.388 . S
Gd10 O49 2.386 1_455 S
Gd10 O53 2.307 1_556 S
Gd10 C63 2.805 . S
Gd11 N6 2.618 . S
Gd11 N12 2.570 1_554 S
Gd11 O43 2.386 1_655 S
Gd11 O47 2.307 1_554 S
Gd11 O50 2.353 . S
Gd11 O51 2.468 1_554 S
Gd11 O52 2.427 . S
Gd11 O54 2.388 . S
Gd11 C75 2.805 . S
N12 C2 1.359 1_656 S
N12 Gd11 2.570 1_556 S
N12 C14 1.343 . S
C13 C1 1.377 1_556 S
C13 C15 1.321 . S
C13 H21 0.931 . S
C14 N12 1.343 . S
C14 C15 1.390 1_655 S
C14 H16 0.931 . S
C15 C13 1.321 . S
C15 C14 1.390 1_455 S
C15 H17 0.930 . S
H16 C14 0.931 . S
H17 C15 0.930 . S
H18 C41 0.931 . S
H19 C7 0.929 1_655 S
H20 C42 0.930 . S
H21 C13 0.931 . S
H22 C3 0.930 . S
H23 C32 0.929 . S
H24 C8 0.931 . S
H25 C9 0.930 . S
H26 C64 0.930 . S
H27 C5 0.929 . S
H28 C33 0.931 . S
H29 C34 0.930 . S
N30 Gd10 2.622 . S
N30 C31 1.369 . S
N30 C32 1.338 . S
C31 N30 1.369 . S
C31 C35 1.415 1_455 S
C31 C38 1.422 . S
C32 H23 0.929 . S
C32 N30 1.338 . S
C32 C34 1.378 1_455 S
C33 H28 0.931 . S
C33 C34 1.348 . S
C33 C35 1.413 . S
C34 H29 0.930 . S
C34 C32 1.378 1_655 S
C34 C33 1.348 . S
C35 C31 1.415 1_655 S
C35 C33 1.413 . S
C35 C65 1.437 . S
H36 C65 0.929 . S
N37 Gd10 2.570 1_554 S
N37 C38 1.359 1_554 S
N37 C41 1.343 . S
C38 C31 1.422 . S
C38 N37 1.359 1_556 S
C38 C40 1.421 1_456 S
C39 C40 1.422 . S
C39 C42 1.321 1_655 S
C39 H66 0.931 . S
C40 C38 1.421 1_654 S
C40 C39 1.422 . S
C40 C64 1.417 1_554 S
C41 H18 0.931 . S
C41 N37 1.343 . S
C41 C42 1.390 . S
C42 H20 0.930 . S
C42 C39 1.321 1_455 S
C42 C41 1.390 . S
O43 Gd11 2.386 1_455 S
O43 C55 1.265 1_554 S
O44 Gd10 2.353 . S
O44 C55 1.242 . S
O45 Gd10 2.468 1_554 S
O45 C63 1.263 1_554 S
O46 Gd10 2.427 . S
O46 C63 1.252 . S
O47 Gd11 2.307 1_556 S
O47 C56 1.261 . S
O48 Gd10 2.388 . S
O48 C56 1.252 1_455 S
O49 Gd10 2.386 1_655 S
O49 C67 1.265 1_556 S
O50 Gd11 2.353 . S
O50 C67 1.242 . S
O51 Gd11 2.468 1_556 S
O51 C75 1.263 1_556 S
O52 Gd11 2.427 . S
O52 C75 1.252 . S
O53 Gd10 2.307 1_554 S
O53 C68 1.261 . S
O54 Gd11 2.388 . S
O54 C68 1.252 1_655 S
C55 O43 1.265 1_556 S
C55 O44 1.242 . S
C56 O47 1.261 . S
C56 O48 1.252 1_655 S
C57 C60 1.394 . S
C57 C62 1.370 1_556 S
C57 C63 1.500 . S
C58 C61 1.383 1_554 S
C58 C62 1.395 . S
C59 C60 1.396 . S
C59 C61 1.365 . S
C59 H76 0.929 . S
C60 C57 1.394 . S
C60 C59 1.396 . S
C60 H77 0.930 . S
C61 C58 1.383 1_556 S
C61 C59 1.365 . S
C61 H78 0.931 . S
C62 C57 1.370 1_554 S
C62 C58 1.395 . S
C62 H79 0.930 . S
C63 Gd10 2.805 . S
C63 O45 1.263 1_556 S
C63 O46 1.252 . S
C63 C57 1.500 . S
C64 H26 0.930 . S
C64 C40 1.417 1_556 S
C64 C65 1.329 . S
C65 C35 1.437 . S
C65 H36 0.929 . S
C65 C64 1.329 . S
H66 C39 0.931 . S
C67 O49 1.265 1_554 S
C67 O50 1.242 . S
C68 O53 1.261 . S
C68 O54 1.252 1_455 S
C69 C72 1.394 . S
C69 C74 1.370 1_554 S
C69 C75 1.500 . S
C70 C73 1.383 1_556 S
C70 C74 1.395 . S
C71 C72 1.396 . S
C71 C73 1.365 . S
C71 H80 0.929 . S
C72 C69 1.394 . S
C72 C71 1.396 . S
C72 H81 0.930 . S
C73 C70 1.383 1_554 S
C73 C71 1.365 . S
C73 H82 0.931 . S
C74 C69 1.370 1_556 S
C74 C70 1.395 . S
C74 H83 0.930 . S
C75 Gd11 2.805 . S
C75 O51 1.263 1_554 S
C75 O52 1.252 . S
C75 C69 1.500 . S
H76 C59 0.929 . S
H77 C60 0.930 . S
H78 C61 0.931 . S
H79 C62 0.930 . S
H80 C71 0.929 . S
H81 C72 0.930 . S
H82 C73 0.931 . S
H83 C74 0.930 . S
C84 C86 1.422 . S
C84 C88 1.415 . S
C84 N90 1.369 . S
C85 C86 1.438 . S
C85 C87 1.446 . S
C85 C97 1.377 1_554 S
C86 C84 1.422 . S
C86 C85 1.438 . S
C86 N96 1.359 1_554 S
C87 C85 1.446 . S
C87 C89 1.329 . S
C87 H106 0.930 . S
C88 C84 1.415 . S
C88 C89 1.437 . S
C88 C92 1.413 . S
C89 C87 1.329 . S
C89 C88 1.437 . S
C89 H111 0.929 . S
N90 C84 1.369 . S
N90 C91 1.338 . S
N90 Gd95 2.622 . S
C91 N90 1.338 . S
C91 C93 1.378 . S
C91 H103 0.929 . S
C92 C88 1.413 . S
C92 C93 1.348 . S
C92 H108 0.931 . S
C93 C91 1.378 . S
C93 C92 1.348 . S
C93 H109 0.930 . S
Gd94 N114 2.622 . S
Gd94 N121 2.570 1_556 S
Gd94 O128 2.353 . S
Gd94 O129 2.468 1_556 S
Gd94 O130 2.427 . S
Gd94 O132 2.388 . S
Gd94 O133 2.386 . S
Gd94 O137 2.307 1_556 S
Gd94 C147 2.805 . S
Gd95 N90 2.622 . S
Gd95 N96 2.570 1_554 S
Gd95 O127 2.386 . S
Gd95 O131 2.307 1_554 S
Gd95 O134 2.353 . S
Gd95 O135 2.468 1_554 S
Gd95 O136 2.427 . S
Gd95 O138 2.388 . S
Gd95 C159 2.805 . S
N96 C86 1.359 1_556 S
N96 Gd95 2.570 1_556 S
N96 C98 1.343 . S
C97 C85 1.377 1_556 S
C97 C99 1.321 . S
C97 H105 0.931 . S
C98 N96 1.343 . S
C98 C99 1.390 . S
C98 H100 0.931 . S
C99 C97 1.321 . S
C99 C98 1.390 . S
C99 H101 0.930 . S
H100 C98 0.931 . S
H101 C99 0.930 . S
H102 C125 0.931 . S
H103 C91 0.929 . S
H104 C126 0.930 . S
H105 C97 0.931 . S
H106 C87 0.930 . S
H107 C116 0.929 . S
H108 C92 0.931 . S
H109 C93 0.930 . S
H110 C148 0.930 . S
H111 C89 0.929 . S
H112 C117 0.931 . S
H113 C118 0.930 . S
N114 Gd94 2.622 . S
N114 C115 1.369 . S
N114 C116 1.338 . S
C115 N114 1.369 . S
C115 C119 1.415 . S
C115 C122 1.422 . S
C116 H107 0.929 . S
C116 N114 1.338 . S
C116 C118 1.378 . S
C117 H112 0.931 . S
C117 C118 1.348 . S
C117 C119 1.413 . S
C118 H113 0.930 . S
C118 C116 1.378 . S
C118 C117 1.348 . S
C119 C115 1.415 . S
C119 C117 1.413 . S
C119 C149 1.437 . S
H120 C149 0.929 . S
N121 Gd94 2.570 1_554 S
N121 C122 1.359 1_554 S
N121 C125 1.343 . S
C122 C115 1.422 . S
C122 N121 1.359 1_556 S
C122 C124 1.421 1_556 S
C123 C124 1.422 . S
C123 C126 1.321 . S
C123 H150 0.931 . S
C124 C122 1.421 1_554 S
C124 C123 1.422 . S
C124 C148 1.417 1_554 S
C125 H102 0.931 . S
C125 N121 1.343 . S
C125 C126 1.390 . S
C126 H104 0.930 . S
C126 C123 1.321 . S
C126 C125 1.390 . S
O127 Gd95 2.386 . S
O127 C139 1.265 1_554 S
O128 Gd94 2.353 . S
O128 C139 1.242 . S
O129 Gd94 2.468 1_554 S
O129 C147 1.263 1_554 S
O130 Gd94 2.427 . S
O130 C147 1.252 . S
O131 Gd95 2.307 1_556 S
O131 C140 1.261 . S
O132 Gd94 2.388 . S
O132 C140 1.252 . S
O133 Gd94 2.386 . S
O133 C151 1.265 1_556 S
O134 Gd95 2.353 . S
O134 C151 1.242 . S
O135 Gd95 2.468 1_556 S
O135 C159 1.263 1_556 S
O136 Gd95 2.427 . S
O136 C159 1.252 . S
O137 Gd94 2.307 1_554 S
O137 C152 1.261 . S
O138 Gd95 2.388 . S
O138 C152 1.252 . S
C139 O127 1.265 1_556 S
C139 O128 1.242 . S
C140 O131 1.261 . S
C140 O132 1.252 . S
C141 C144 1.394 . S
C141 C146 1.370 1_556 S
C141 C147 1.500 . S
C142 C145 1.383 1_554 S
C142 C146 1.395 . S
C143 C144 1.396 . S
C143 C145 1.365 . S
C143 H160 0.929 . S
C144 C141 1.394 . S
C144 C143 1.396 . S
C144 H161 0.930 . S
C145 C142 1.383 1_556 S
C145 C143 1.365 . S
C145 H162 0.931 . S
C146 C141 1.370 1_554 S
C146 C142 1.395 . S
C146 H163 0.930 . S
C147 Gd94 2.805 . S
C147 O129 1.263 1_556 S
C147 O130 1.252 . S
C147 C141 1.500 . S
C148 H110 0.930 . S
C148 C124 1.417 1_556 S
C148 C149 1.329 . S
C149 C119 1.437 . S
C149 H120 0.929 . S
C149 C148 1.329 . S
H150 C123 0.931 . S
C151 O133 1.265 1_554 S
C151 O134 1.242 . S
C152 O137 1.261 . S
C152 O138 1.252 . S
C153 C156 1.394 . S
C153 C158 1.370 1_554 S
C153 C159 1.500 . S
C154 C157 1.383 1_556 S
C154 C158 1.395 . S
C155 C156 1.396 . S
C155 C157 1.365 . S
C155 H164 0.929 . S
C156 C153 1.394 . S
C156 C155 1.396 . S
C156 H165 0.930 . S
C157 C154 1.383 1_554 S
C157 C155 1.365 . S
C157 H166 0.931 . S
C158 C153 1.370 1_556 S
C158 C154 1.395 . S
C158 H167 0.930 . S
C159 Gd95 2.805 . S
C159 O135 1.263 1_554 S
C159 O136 1.252 . S
C159 C153 1.500 . S
H160 C143 0.929 . S
H161 C144 0.930 . S
H162 C145 0.931 . S
H163 C146 0.930 . S
H164 C155 0.929 . S
H165 C156 0.930 . S
H166 C157 0.931 . S
H167 C158 0.930 . S
C168 C170 1.422 . S
C168 C172 1.412 1_545 S
C168 N174 1.373 . S
C169 C170 1.438 1_565 S
C169 C171 1.446 . S
C169 C181 1.377 1_554 S
C170 C168 1.422 . S
C170 C169 1.438 1_545 S
C170 N180 1.359 1_554 S
C171 C169 1.446 . S
C171 C173 1.329 . S
C171 H190 0.930 . S
C172 C168 1.412 1_565 S
C172 C173 1.437 . S
C172 C176 1.413 . S
C173 C171 1.329 . S
C173 C172 1.437 . S
C173 H195 0.929 . S
N174 C168 1.373 . S
N174 C175 1.338 . S
N174 Gd179 2.622 . S
C175 N174 1.338 . S
C175 C177 1.378 1_545 S
C175 H187 0.929 . S
C176 C172 1.413 . S
C176 C177 1.348 . S
C176 H192 0.931 . S
C177 C175 1.378 1_565 S
C177 C176 1.348 . S
C177 H193 0.930 . S
Gd178 N198 2.622 . S
Gd178 N205 2.570 1_556 S
Gd178 O212 2.353 . S
Gd178 O213 2.468 1_556 S
Gd178 O214 2.427 . S
Gd178 O216 2.388 . S
Gd178 O217 2.386 1_565 S
Gd178 O221 2.307 1_556 S
Gd178 C231 2.805 . S
Gd179 N174 2.622 . S
Gd179 N180 2.570 1_554 S
Gd179 O211 2.386 1_545 S
Gd179 O215 2.307 1_554 S
Gd179 O218 2.353 . S
Gd179 O219 2.468 1_554 S
Gd179 O220 2.427 . S
Gd179 O222 2.388 . S
Gd179 C243 2.805 . S
N180 C170 1.359 1_556 S
N180 Gd179 2.570 1_556 S
N180 C182 1.343 . S
C181 C169 1.377 1_556 S
C181 C183 1.321 1_565 S
C181 H189 0.931 . S
C182 N180 1.343 . S
C182 C183 1.390 . S
C182 H184 0.931 . S
C183 C181 1.321 1_545 S
C183 C182 1.390 . S
C183 H185 0.930 . S
H184 C182 0.931 . S
H185 C183 0.930 . S
H186 C209 0.931 . S
H187 C175 0.929 . S
H188 C210 0.930 . S
H189 C181 0.931 . S
H190 C171 0.930 . S
H191 C200 0.950 . S
H192 C176 0.931 . S
H193 C177 0.930 . S
H194 C232 0.930 . S
H195 C173 0.929 . S
H196 C201 0.931 . S
H197 C202 0.930 . S
N198 Gd178 2.622 . S
N198 C199 1.369 1_565 S
N198 C200 1.337 . S
C199 N198 1.369 1_545 S
C199 C203 1.415 . S
C199 C206 1.422 . S
C200 H191 0.950 . S
C200 N198 1.337 . S
C200 C202 1.359 1_565 S
C201 H196 0.931 . S
C201 C202 1.348 . S
C201 C203 1.413 . S
C202 H197 0.930 . S
C202 C200 1.359 1_545 S
C202 C201 1.348 . S
C203 C199 1.415 . S
C203 C201 1.413 . S
C203 C233 1.437 . S
H204 C233 0.929 . S
N205 Gd178 2.570 1_554 S
N205 C206 1.359 1_564 S
N205 C209 1.343 . S
C206 C199 1.422 . S
C206 N205 1.359 1_546 S
C206 C208 1.421 1_556 S
C207 C208 1.422 . S
C207 C210 1.321 . S
C207 H234 0.931 . S
C208 C206 1.421 1_554 S
C208 C207 1.422 . S
C208 C232 1.417 1_554 S
C209 H186 0.931 . S
C209 N205 1.343 . S
C209 C210 1.390 1_565 S
C210 H188 0.930 . S
C210 C207 1.321 . S
C210 C209 1.390 1_545 S
O211 Gd179 2.386 1_565 S
O211 C223 1.265 1_554 S
O212 Gd178 2.353 . S
O212 C223 1.242 . S
O213 Gd178 2.468 1_554 S
O213 C231 1.263 1_554 S
O214 Gd178 2.427 . S
O214 C231 1.252 . S
O215 Gd179 2.307 1_556 S
O215 C224 1.261 . S
O216 Gd178 2.388 . S
O216 C224 1.252 1_565 S
O217 Gd178 2.386 1_545 S
O217 C235 1.265 1_556 S
O218 Gd179 2.353 . S
O218 C235 1.242 . S
O219 Gd179 2.468 1_556 S
O219 C243 1.263 1_556 S
O220 Gd179 2.427 . S
O220 C243 1.252 . S
O221 Gd178 2.307 1_554 S
O221 C236 1.261 . S
O222 Gd179 2.388 . S
O222 C236 1.252 1_545 S
C223 O211 1.265 1_556 S
C223 O212 1.242 . S
C224 O215 1.261 . S
C224 O216 1.252 1_545 S
C225 C228 1.394 . S
C225 C230 1.370 1_556 S
C225 C231 1.500 . S
C226 C229 1.383 1_554 S
C226 C230 1.395 . S
C227 C228 1.396 . S
C227 C229 1.365 . S
C227 H244 0.929 . S
C228 C225 1.394 . S
C228 C227 1.396 . S
C228 H245 0.930 . S
C229 C226 1.383 1_556 S
C229 C227 1.365 . S
C229 H246 0.931 . S
C230 C225 1.370 1_554 S
C230 C226 1.395 . S
C230 H247 0.930 . S
C231 Gd178 2.805 . S
C231 O213 1.263 1_556 S
C231 O214 1.252 . S
C231 C225 1.500 . S
C232 H194 0.930 . S
C232 C208 1.417 1_556 S
C232 C233 1.329 . S
C233 C203 1.437 . S
C233 H204 0.929 . S
C233 C232 1.329 . S
H234 C207 0.931 . S
C235 O217 1.265 1_554 S
C235 O218 1.242 . S
C236 O221 1.261 . S
C236 O222 1.252 1_565 S
C237 C240 1.394 . S
C237 C242 1.370 1_554 S
C237 C243 1.500 . S
C238 C241 1.383 1_556 S
C238 C242 1.395 . S
C239 C240 1.396 . S
C239 C241 1.365 . S
C239 H248 0.929 . S
C240 C237 1.394 . S
C240 C239 1.396 . S
C240 H249 0.930 . S
C241 C238 1.383 1_554 S
C241 C239 1.365 . S
C241 H250 0.931 . S
C242 C237 1.370 1_556 S
C242 C238 1.395 . S
C242 H251 0.930 . S
C243 Gd179 2.805 . S
C243 O219 1.263 1_554 S
C243 O220 1.252 . S
C243 C237 1.500 . S
H244 C227 0.929 . S
H245 C228 0.930 . S
H246 C229 0.931 . S
H247 C230 0.930 . S
H248 C239 0.929 . S
H249 C240 0.930 . S
H250 C241 0.931 . S
H251 C242 0.930 . S
C252 C254 1.422 . S
C252 C256 1.415 . S
C252 N258 1.369 . S
C253 C254 1.421 . S
C253 C255 1.417 . S
C253 C265 1.422 . S
C254 C252 1.422 . S
C254 C253 1.421 . S
C254 N264 1.359 . S
C255 C253 1.417 . S
C255 C257 1.329 . S
C255 H274 0.930 . S
C256 C252 1.415 . S
C256 C257 1.437 . S
C256 C260 1.413 . S
C257 C255 1.329 . S
C257 C256 1.437 . S
C257 H279 0.929 . S
N258 C252 1.369 . S
N258 C259 1.338 . S
N258 Gd263 2.622 . S
C259 N258 1.338 . S
C259 C261 1.378 . S
C259 H271 0.929 . S
C260 C256 1.413 . S
C260 C261 1.348 . S
C260 H276 0.931 . S
C261 C259 1.378 . S
C261 C260 1.348 . S
C261 H277 0.930 . S
Gd262 N282 2.622 . S
Gd262 N289 2.570 . S
Gd262 O296 2.353 . S
Gd262 O297 2.468 . S
Gd262 O298 2.427 . S
Gd262 O300 2.388 . S
Gd262 O301 2.386 . S
Gd262 O305 2.307 . S
Gd262 C315 2.805 . S
Gd263 N258 2.622 . S
Gd263 N264 2.570 . S
Gd263 O295 2.386 . S
Gd263 O299 2.307 . S
Gd263 O302 2.353 . S
Gd263 O303 2.468 . S
Gd263 O304 2.427 . S
Gd263 O306 2.388 . S
Gd263 C327 2.805 . S
N264 C254 1.359 . S
N264 Gd263 2.570 . S
N264 C266 1.343 . S
C265 C253 1.422 . S
C265 C267 1.321 . S
C265 H273 0.931 . S
C266 N264 1.343 . S
C266 C267 1.390 . S
C266 H268 0.931 . S
C267 C265 1.321 . S
C267 C266 1.390 . S
C267 H269 0.930 . S
H268 C266 0.931 . S
H269 C267 0.930 . S
H270 C293 0.931 . S
H271 C259 0.929 . S
H272 C294 0.930 . S
H273 C265 0.931 . S
H274 C255 0.930 . S
H275 C284 0.929 . S
H276 C260 0.931 . S
H277 C261 0.930 . S
H278 C316 0.930 . S
H279 C257 0.929 . S
H280 C285 0.931 . S
H281 C286 0.930 . S
N282 Gd262 2.622 . S
N282 C283 1.369 . S
N282 C284 1.338 . S
C283 N282 1.369 . S
C283 C287 1.415 . S
C283 C290 1.422 . S
C284 H275 0.929 . S
C284 N282 1.338 . S
C284 C286 1.378 . S
C285 H280 0.931 . S
C285 C286 1.348 . S
C285 C287 1.413 . S
C286 H281 0.930 . S
C286 C284 1.378 . S
C286 C285 1.348 . S
C287 C283 1.415 . S
C287 C285 1.413 . S
C287 C317 1.437 . S
H288 C317 0.929 . S
N289 Gd262 2.570 . S
N289 C290 1.359 . S
N289 C293 1.343 . S
C290 C283 1.422 . S
C290 N289 1.359 . S
C290 C292 1.421 . S
C291 C292 1.422 . S
C291 C294 1.321 . S
C291 H318 0.931 . S
C292 C290 1.421 . S
C292 C291 1.422 . S
C292 C316 1.417 . S
C293 H270 0.931 . S
C293 N289 1.343 . S
C293 C294 1.390 . S
C294 H272 0.930 . S
C294 C291 1.321 . S
C294 C293 1.390 . S
O295 Gd263 2.386 . S
O295 C307 1.265 . S
O296 Gd262 2.353 . S
O296 C307 1.242 . S
O297 Gd262 2.468 . S
O297 C315 1.263 . S
O298 Gd262 2.427 . S
O298 C315 1.252 . S
O299 Gd263 2.307 . S
O299 C308 1.261 . S
O300 Gd262 2.388 . S
O300 C308 1.252 . S
O301 Gd262 2.386 . S
O301 C319 1.265 . S
O302 Gd263 2.353 . S
O302 C319 1.242 . S
O303 Gd263 2.468 . S
O303 C327 1.263 . S
O304 Gd263 2.427 . S
O304 C327 1.252 . S
O305 Gd262 2.307 . S
O305 C320 1.261 . S
O306 Gd263 2.388 . S
O306 C320 1.252 . S
C307 O295 1.265 . S
C307 O296 1.242 . S
C308 O299 1.261 . S
C308 O300 1.252 . S
C309 C312 1.394 . S
C309 C314 1.370 . S
C309 C315 1.500 . S
C310 C313 1.383 . S
C310 C314 1.395 . S
C311 C312 1.396 . S
C311 C313 1.365 . S
C311 H328 0.929 . S
C312 C309 1.394 . S
C312 C311 1.396 . S
C312 H329 0.930 . S
C313 C310 1.383 . S
C313 C311 1.365 . S
C313 H330 0.931 . S
C314 C309 1.370 . S
C314 C310 1.395 . S
C314 H331 0.930 . S
C315 Gd262 2.805 . S
C315 O297 1.263 . S
C315 O298 1.252 . S
C315 C309 1.500 . S
C316 H278 0.930 . S
C316 C292 1.417 . S
C316 C317 1.329 . S
C317 C287 1.437 . S
C317 H288 0.929 . S
C317 C316 1.329 . S
H318 C291 0.931 . S
C319 O301 1.265 . S
C319 O302 1.242 . S
C320 O305 1.261 . S
C320 O306 1.252 . S
C321 C324 1.394 . S
C321 C326 1.370 . S
C321 C327 1.500 . S
C322 C325 1.383 . S
C322 C326 1.395 . S
C323 C324 1.396 . S
C323 C325 1.365 . S
C323 H332 0.929 . S
C324 C321 1.394 . S
C324 C323 1.396 . S
C324 H333 0.930 . S
C325 C322 1.383 . S
C325 C323 1.365 . S
C325 H334 0.931 . S
C326 C321 1.370 . S
C326 C322 1.395 . S
C326 H335 0.930 . S
C327 Gd263 2.805 . S
C327 O303 1.263 . S
C327 O304 1.252 . S
C327 C321 1.500 . S
H328 C311 0.929 . S
H329 C312 0.930 . S
H330 C313 0.931 . S
H331 C314 0.930 . S
H332 C323 0.929 . S
H333 C324 0.930 . S
H334 C325 0.931 . S
H335 C326 0.930 . S
C336 C338 1.422 . S
C336 C340 1.415 . S
C336 N342 1.369 . S
C337 C338 1.421 . S
C337 C339 1.417 . S
C337 C349 1.422 . S
C338 C336 1.422 . S
C338 C337 1.421 . S
C338 N348 1.359 . S
C339 C337 1.417 . S
C339 C341 1.329 . S
C339 H358 0.930 . S
C340 C336 1.415 . S
C340 C341 1.437 . S
C340 C344 1.413 . S
C341 C339 1.329 . S
C341 C340 1.437 . S
C341 H363 0.929 . S
N342 C336 1.369 . S
N342 C343 1.338 . S
N342 Gd347 2.622 . S
C343 N342 1.338 . S
C343 C345 1.378 . S
C343 H355 0.929 . S
C344 C340 1.413 . S
C344 C345 1.348 . S
C344 H360 0.931 . S
C345 C343 1.378 . S
C345 C344 1.348 . S
C345 H361 0.930 . S
Gd346 N366 2.622 . S
Gd346 N373 2.570 . S
Gd346 O380 2.353 . S
Gd346 O381 2.468 . S
Gd346 O382 2.427 . S
Gd346 O384 2.388 . S
Gd346 O385 2.386 . S
Gd346 O389 2.307 . S
Gd346 C399 2.805 . S
Gd347 N342 2.622 . S
Gd347 N348 2.570 . S
Gd347 O379 2.386 . S
Gd347 O383 2.307 . S
Gd347 O386 2.353 . S
Gd347 O387 2.468 . S
Gd347 O388 2.427 . S
Gd347 O390 2.388 . S
Gd347 C411 2.805 . S
N348 C338 1.359 . S
N348 Gd347 2.570 . S
N348 C350 1.343 . S
C349 C337 1.422 . S
C349 C351 1.321 . S
C349 H357 0.931 . S
C350 N348 1.343 . S
C350 C351 1.390 . S
C350 H352 0.931 . S
C351 C349 1.321 . S
C351 C350 1.390 . S
C351 H353 0.930 . S
H352 C350 0.931 . S
H353 C351 0.930 . S
H354 C377 0.931 . S
H355 C343 0.929 . S
H356 C378 0.930 . S
H357 C349 0.931 . S
H358 C339 0.930 . S
H359 C368 0.929 . S
H360 C344 0.931 . S
H361 C345 0.930 . S
H362 C400 0.930 . S
H363 C341 0.929 . S
H364 C369 0.931 . S
H365 C370 0.930 . S
N366 Gd346 2.622 . S
N366 C367 1.369 . S
N366 C368 1.338 . S
C367 N366 1.369 . S
C367 C371 1.415 . S
C367 C374 1.422 . S
C368 H359 0.929 . S
C368 N366 1.338 . S
C368 C370 1.378 . S
C369 H364 0.931 . S
C369 C370 1.348 . S
C369 C371 1.413 . S
C370 H365 0.930 . S
C370 C368 1.378 . S
C370 C369 1.348 . S
C371 C367 1.415 . S
C371 C369 1.413 . S
C371 C401 1.437 1_565 S
H372 C401 0.929 . S
N373 Gd346 2.570 . S
N373 C374 1.359 . S
N373 C377 1.343 . S
C374 C367 1.422 . S
C374 N373 1.359 . S
C374 C376 1.421 1_565 S
C375 C376 1.422 . S
C375 C378 1.321 . S
C375 H402 0.931 . S
C376 C374 1.421 1_545 S
C376 C375 1.422 . S
C376 C400 1.417 . S
C377 H354 0.931 . S
C377 N373 1.343 . S
C377 C378 1.390 1_565 S
C378 H356 0.930 . S
C378 C375 1.321 . S
C378 C377 1.390 1_545 S
O379 Gd347 2.386 . S
O379 C391 1.265 . S
O380 Gd346 2.353 . S
O380 C391 1.242 . S
O381 Gd346 2.468 . S
O381 C399 1.263 . S
O382 Gd346 2.427 . S
O382 C399 1.252 . S
O383 Gd347 2.307 . S
O383 C392 1.261 . S
O384 Gd346 2.388 . S
O384 C392 1.252 . S
O385 Gd346 2.386 . S
O385 C403 1.265 . S
O386 Gd347 2.353 . S
O386 C403 1.242 . S
O387 Gd347 2.468 . S
O387 C411 1.263 . S
O388 Gd347 2.427 . S
O388 C411 1.252 . S
O389 Gd346 2.307 . S
O389 C404 1.261 . S
O390 Gd347 2.388 . S
O390 C404 1.252 . S
C391 O379 1.265 . S
C391 O380 1.242 . S
C392 O383 1.261 . S
C392 O384 1.252 . S
C393 C396 1.394 . S
C393 C398 1.370 . S
C393 C399 1.500 1_545 S
C394 C397 1.383 . S
C394 C398 1.395 . S
C395 C396 1.396 . S
C395 C397 1.365 . S
C395 H412 0.929 . S
C396 C393 1.394 . S
C396 C395 1.396 . S
C396 H413 0.930 . S
C397 C394 1.383 . S
C397 C395 1.365 . S
C397 H414 0.931 . S
C398 C393 1.370 . S
C398 C394 1.395 . S
C398 H415 0.930 . S
C399 Gd346 2.805 . S
C399 O381 1.263 . S
C399 O382 1.252 . S
C399 C393 1.500 1_565 S
C400 H362 0.930 . S
C400 C376 1.417 . S
C400 C401 1.329 . S
C401 C371 1.437 1_545 S
C401 H372 0.929 . S
C401 C400 1.329 . S
H402 C375 0.931 . S
C403 O385 1.265 . S
C403 O386 1.242 . S
C404 O389 1.261 . S
C404 O390 1.252 . S
C405 C408 1.394 . S
C405 C410 1.370 . S
C405 C411 1.500 . S
C406 C409 1.383 . S
C406 C410 1.395 . S
C407 C408 1.396 . S
C407 C409 1.365 . S
C407 H416 0.929 . S
C408 C405 1.394 . S
C408 C407 1.396 . S
C408 H417 0.930 . S
C409 C406 1.383 . S
C409 C407 1.365 . S
C409 H418 0.931 . S
C410 C405 1.370 . S
C410 C406 1.395 . S
C410 H419 0.930 . S
C411 Gd347 2.805 . S
C411 O387 1.263 . S
C411 O388 1.252 . S
C411 C405 1.500 . S
H412 C395 0.929 . S
H413 C396 0.930 . S
H414 C397 0.931 . S
H415 C398 0.930 . S
H416 C407 0.929 . S
H417 C408 0.930 . S
H418 C409 0.931 . S
H419 C410 0.930 . S
C420 C422 1.422 . S
C420 C424 1.415 . S
C420 N426 1.369 . S
C421 C422 1.421 . S
C421 C423 1.417 . S
C421 C433 1.422 . S
C422 C420 1.422 . S
C422 C421 1.421 . S
C422 N432 1.359 . S
C423 C421 1.417 . S
C423 C425 1.329 . S
C423 H442 0.930 . S
C424 C420 1.415 . S
C424 C425 1.437 . S
C424 C428 1.413 . S
C425 C423 1.329 . S
C425 C424 1.437 . S
C425 H447 0.929 . S
N426 C420 1.369 . S
N426 C427 1.338 . S
N426 Gd431 2.622 . S
C427 N426 1.338 . S
C427 C429 1.378 . S
C427 H439 0.929 . S
C428 C424 1.413 . S
C428 C429 1.348 . S
C428 H444 0.931 . S
C429 C427 1.378 . S
C429 C428 1.348 . S
C429 H445 0.930 . S
Gd430 N450 2.622 . S
Gd430 N457 2.570 . S
Gd430 O464 2.353 . S
Gd430 O465 2.468 . S
Gd430 O466 2.427 . S
Gd430 O468 2.388 . S
Gd430 O469 2.386 . S
Gd430 O473 2.307 . S
Gd430 C483 2.805 . S
Gd431 N426 2.622 . S
Gd431 N432 2.570 . S
Gd431 O463 2.386 . S
Gd431 O467 2.307 . S
Gd431 O470 2.353 . S
Gd431 O471 2.468 . S
Gd431 O472 2.427 . S
Gd431 O474 2.388 . S
Gd431 C495 2.805 . S
N432 C422 1.359 . S
N432 Gd431 2.570 . S
N432 C434 1.343 . S
C433 C421 1.422 . S
C433 C435 1.321 . S
C433 H441 0.931 . S
C434 N432 1.343 . S
C434 C435 1.390 . S
C434 H436 0.931 . S
C435 C433 1.321 . S
C435 C434 1.390 . S
C435 H437 0.930 . S
H436 C434 0.931 . S
H437 C435 0.930 . S
H438 C461 0.931 . S
H439 C427 0.929 . S
H440 C462 0.930 . S
H441 C433 0.931 . S
H442 C423 0.930 . S
H443 C452 0.929 . S
H444 C428 0.931 . S
H445 C429 0.930 . S
H446 C484 0.930 . S
H447 C425 0.929 . S
H448 C453 0.931 . S
H449 C454 0.930 . S
N450 Gd430 2.622 . S
N450 C451 1.369 . S
N450 C452 1.338 . S
C451 N450 1.369 . S
C451 C455 1.415 . S
C451 C458 1.422 . S
C452 H443 0.929 . S
C452 N450 1.338 . S
C452 C454 1.378 . S
C453 H448 0.931 . S
C453 C454 1.348 . S
C453 C455 1.413 . S
C454 H449 0.930 . S
C454 C452 1.378 . S
C454 C453 1.348 . S
C455 C451 1.415 . S
C455 C453 1.413 . S
C455 C485 1.437 1_455 S
H456 C485 0.929 . S
N457 Gd430 2.570 . S
N457 C458 1.359 . S
N457 C461 1.343 . S
C458 C451 1.422 . S
C458 N457 1.359 . S
C458 C460 1.428 . S
C459 C460 1.421 1_655 S
C459 C462 1.321 1_655 S
C459 H486 0.931 . S
C460 C458 1.428 . S
C460 C459 1.421 1_455 S
C460 C484 1.412 1_455 S
C461 H438 0.931 . S
C461 N457 1.343 . S
C461 C462 1.390 . S
C462 H440 0.930 . S
C462 C459 1.321 1_455 S
C462 C461 1.390 . S
O463 Gd431 2.386 . S
O463 C475 1.265 . S
O464 Gd430 2.353 . S
O464 C475 1.242 . S
O465 Gd430 2.468 . S
O465 C483 1.263 . S
O466 Gd430 2.427 . S
O466 C483 1.252 . S
O467 Gd431 2.307 . S
O467 C476 1.261 . S
O468 Gd430 2.388 . S
O468 C476 1.252 . S
O469 Gd430 2.386 . S
O469 C487 1.265 . S
O470 Gd431 2.353 . S
O470 C487 1.242 . S
O471 Gd431 2.468 . S
O471 C495 1.263 . S
O472 Gd431 2.427 . S
O472 C495 1.252 . S
O473 Gd430 2.307 . S
O473 C488 1.261 . S
O474 Gd431 2.388 . S
O474 C488 1.252 . S
C475 O463 1.265 . S
C475 O464 1.242 . S
C476 O467 1.261 . S
C476 O468 1.252 . S
C477 C480 1.394 . S
C477 C482 1.370 . S
C477 C483 1.500 1_655 S
C478 C481 1.383 . S
C478 C482 1.395 . S
C479 C480 1.396 . S
C479 C481 1.365 . S
C479 H496 0.929 . S
C480 C477 1.394 . S
C480 C479 1.396 . S
C480 H497 0.930 . S
C481 C478 1.383 . S
C481 C479 1.365 . S
C481 H498 0.931 . S
C482 C477 1.370 . S
C482 C478 1.395 . S
C482 H499 0.930 . S
C483 Gd430 2.805 . S
C483 O465 1.263 . S
C483 O466 1.252 . S
C483 C477 1.500 1_455 S
C484 H446 0.930 . S
C484 C460 1.412 1_655 S
C484 C485 1.329 . S
C485 C455 1.437 1_655 S
C485 H456 0.929 . S
C485 C484 1.329 . S
H486 C459 0.931 . S
C487 O469 1.265 . S
C487 O470 1.242 . S
C488 O473 1.261 . S
C488 O474 1.252 . S
C489 C492 1.394 . S
C489 C494 1.370 . S
C489 C495 1.500 . S
C490 C493 1.383 . S
C490 C494 1.395 . S
C491 C492 1.396 . S
C491 C493 1.365 . S
C491 H500 0.929 . S
C492 C489 1.394 . S
C492 C491 1.396 . S
C492 H501 0.930 . S
C493 C490 1.383 . S
C493 C491 1.365 . S
C493 H502 0.931 . S
C494 C489 1.370 . S
C494 C490 1.395 . S
C494 H503 0.930 . S
C495 Gd431 2.805 . S
C495 O471 1.263 . S
C495 O472 1.252 . S
C495 C489 1.500 . S
H496 C479 0.929 . S
H497 C480 0.930 . S
H498 C481 0.931 . S
H499 C482 0.930 . S
H500 C491 0.929 . S
H501 C492 0.930 . S
H502 C493 0.931 . S
H503 C494 0.930 . S
C504 C506 1.422 . S
C504 C508 1.415 . S
C504 N510 1.369 . S
C505 C506 1.421 . S
C505 C507 1.417 . S
C505 C517 1.422 . S
C506 C504 1.422 . S
C506 C505 1.421 . S
C506 N516 1.359 . S
C507 C505 1.417 . S
C507 C509 1.329 . S
C507 H526 0.930 . S
C508 C504 1.415 . S
C508 C509 1.437 . S
C508 C512 1.413 . S
C509 C507 1.329 . S
C509 C508 1.437 . S
C509 H531 0.929 . S
N510 C504 1.369 . S
N510 C511 1.338 . S
N510 Gd515 2.622 . S
C511 N510 1.338 . S
C511 C513 1.378 . S
C511 H523 0.929 . S
C512 C508 1.413 . S
C512 C513 1.348 . S
C512 H528 0.931 . S
C513 C511 1.378 . S
C513 C512 1.348 . S
C513 H529 0.930 . S
Gd514 N534 2.622 . S
Gd514 N541 2.570 . S
Gd514 O548 2.353 . S
Gd514 O549 2.468 . S
Gd514 O550 2.427 . S
Gd514 O552 2.388 . S
Gd514 O553 2.386 . S
Gd514 O557 2.307 . S
Gd514 C567 2.805 . S
Gd515 N510 2.622 . S
Gd515 N516 2.570 . S
Gd515 O547 2.386 . S
Gd515 O551 2.307 . S
Gd515 O554 2.353 . S
Gd515 O555 2.468 . S
Gd515 O556 2.427 . S
Gd515 O558 2.388 . S
Gd515 C579 2.805 . S
N516 C506 1.359 . S
N516 Gd515 2.570 . S
N516 C518 1.343 . S
C517 C505 1.422 . S
C517 C519 1.321 . S
C517 H525 0.931 . S
C518 N516 1.343 . S
C518 C519 1.390 . S
C518 H520 0.931 . S
C519 C517 1.321 . S
C519 C518 1.390 . S
C519 H521 0.930 . S
H520 C518 0.931 . S
H521 C519 0.930 . S
H522 C545 0.931 . S
H523 C511 0.929 . S
H524 C546 0.930 . S
H525 C517 0.931 . S
H526 C507 0.930 . S
H527 C536 0.929 . S
H528 C512 0.931 . S
H529 C513 0.930 . S
H530 C568 0.930 . S
H531 C509 0.929 . S
H532 C537 0.931 1_565 S
H533 C538 0.930 . S
N534 Gd514 2.622 . S
N534 C535 1.369 . S
N534 C536 1.338 . S
C535 N534 1.369 . S
C535 C539 1.415 . S
C535 C542 1.422 . S
C536 H527 0.929 . S
C536 N534 1.338 . S
C536 C538 1.378 . S
C537 H532 0.931 1_545 S
C537 C538 1.348 . S
C537 C539 1.413 . S
C538 H533 0.930 . S
C538 C536 1.378 . S
C538 C537 1.348 . S
C539 C535 1.415 . S
C539 C537 1.413 . S
C539 C569 1.437 1_545 S
H540 C569 0.929 . S
N541 Gd514 2.570 . S
N541 C542 1.359 . S
N541 C545 1.343 . S
C542 C535 1.422 . S
C542 N541 1.359 . S
C542 C544 1.421 1_545 S
C543 C544 1.422 . S
C543 C546 1.321 1_565 S
C543 H570 0.931 . S
C544 C542 1.421 1_565 S
C544 C543 1.422 . S
C544 C568 1.417 . S
C545 H522 0.931 . S
C545 N541 1.343 . S
C545 C546 1.390 . S
C546 H524 0.930 . S
C546 C543 1.321 1_545 S
C546 C545 1.390 . S
O547 Gd515 2.386 . S
O547 C559 1.265 . S
O548 Gd514 2.353 . S
O548 C559 1.242 . S
O549 Gd514 2.468 . S
O549 C567 1.263 . S
O550 Gd514 2.427 . S
O550 C567 1.252 . S
O551 Gd515 2.307 . S
O551 C560 1.261 . S
O552 Gd514 2.388 . S
O552 C560 1.252 . S
O553 Gd514 2.386 . S
O553 C571 1.265 . S
O554 Gd515 2.353 . S
O554 C571 1.242 . S
O555 Gd515 2.468 . S
O555 C579 1.263 . S
O556 Gd515 2.427 . S
O556 C579 1.252 . S
O557 Gd514 2.307 . S
O557 C572 1.261 . S
O558 Gd515 2.388 . S
O558 C572 1.252 . S
C559 O547 1.265 . S
C559 O548 1.242 . S
C560 O551 1.261 . S
C560 O552 1.252 . S
C561 C564 1.394 . S
C561 C566 1.370 . S
C561 C567 1.500 . S
C562 C565 1.383 . S
C562 C566 1.395 . S
C563 C564 1.396 . S
C563 C565 1.365 . S
C563 H580 0.929 . S
C564 C561 1.394 . S
C564 C563 1.396 . S
C564 H581 0.930 . S
C565 C562 1.383 . S
C565 C563 1.365 . S
C565 H582 0.931 . S
C566 C561 1.370 . S
C566 C562 1.395 . S
C566 H583 0.930 . S
C567 Gd514 2.805 . S
C567 O549 1.263 . S
C567 O550 1.252 . S
C567 C561 1.500 . S
C568 H530 0.930 . S
C568 C544 1.417 . S
C568 C569 1.329 . S
C569 C539 1.437 1_565 S
C569 H540 0.929 . S
C569 C568 1.329 . S
H570 C543 0.931 . S
C571 O553 1.265 . S
C571 O554 1.242 . S
C572 O557 1.261 . S
C572 O558 1.252 . S
C573 C576 1.394 . S
C573 C578 1.370 . S
C573 C579 1.500 . S
C574 C577 1.383 . S
C574 C578 1.395 . S
C575 C576 1.396 . S
C575 C577 1.365 . S
C575 H584 0.929 . S
C576 C573 1.394 . S
C576 C575 1.396 . S
C576 H585 0.930 . S
C577 C574 1.383 . S
C577 C575 1.365 . S
C577 H586 0.931 . S
C578 C573 1.370 . S
C578 C574 1.395 . S
C578 H587 0.930 . S
C579 Gd515 2.805 . S
C579 O555 1.263 . S
C579 O556 1.252 . S
C579 C573 1.500 . S
H580 C563 0.929 . S
H581 C564 0.930 . S
H582 C565 0.931 . S
H583 C566 0.930 . S
H584 C575 0.929 . S
H585 C576 0.930 . S
H586 C577 0.931 . S
H587 C578 0.930 . S
C588 C590 1.422 . S
C588 C592 1.415 . S
C588 N594 1.369 . S
C589 C590 1.421 . S
C589 C591 1.417 . S
C589 C601 1.422 . S
C590 C588 1.422 . S
C590 C589 1.421 . S
C590 N600 1.359 . S
C591 C589 1.417 . S
C591 C593 1.329 . S
C591 H610 0.930 . S
C592 C588 1.415 . S
C592 C593 1.437 . S
C592 C596 1.413 . S
C593 C591 1.329 . S
C593 C592 1.437 . S
C593 H615 0.929 . S
N594 C588 1.369 . S
N594 C595 1.338 . S
N594 Gd599 2.622 . S
C595 N594 1.338 . S
C595 C597 1.378 . S
C595 H607 0.929 . S
C596 C592 1.413 . S
C596 C597 1.348 . S
C596 H612 0.931 . S
C597 C595 1.378 . S
C597 C596 1.348 . S
C597 H613 0.930 . S
Gd598 N618 2.622 . S
Gd598 N625 2.570 . S
Gd598 O632 2.353 . S
Gd598 O633 2.468 . S
Gd598 O634 2.427 . S
Gd598 O636 2.388 . S
Gd598 O637 2.386 . S
Gd598 O641 2.307 . S
Gd598 C651 2.805 . S
Gd599 N594 2.622 . S
Gd599 N600 2.570 . S
Gd599 O631 2.386 . S
Gd599 O635 2.307 . S
Gd599 O638 2.353 . S
Gd599 O639 2.468 . S
Gd599 O640 2.427 . S
Gd599 O642 2.388 . S
Gd599 C663 2.805 . S
N600 C590 1.359 . S
N600 Gd599 2.570 . S
N600 C602 1.343 . S
C601 C589 1.422 . S
C601 C603 1.321 . S
C601 H609 0.931 . S
C602 N600 1.343 . S
C602 C603 1.390 . S
C602 H604 0.931 . S
C603 C601 1.321 . S
C603 C602 1.390 . S
C603 H605 0.930 . S
H604 C602 0.931 . S
H605 C603 0.930 . S
H606 C629 0.931 . S
H607 C595 0.929 . S
H608 C630 0.930 . S
H609 C601 0.931 . S
H610 C591 0.930 . S
H611 C620 0.929 . S
H612 C596 0.931 . S
H613 C597 0.930 . S
H614 C652 0.930 . S
H615 C593 0.929 . S
H616 C621 0.931 1_455 S
H617 C622 0.930 . S
N618 Gd598 2.622 . S
N618 C619 1.369 . S
N618 C620 1.338 . S
C619 N618 1.369 . S
C619 C623 1.415 1_655 S
C619 C626 1.422 . S
C620 H611 0.929 . S
C620 N618 1.338 . S
C620 C622 1.378 . S
C621 H616 0.931 1_655 S
C621 C622 1.348 . S
C621 C623 1.413 1_655 S
C622 H617 0.930 . S
C622 C620 1.378 . S
C622 C621 1.348 . S
C623 C619 1.415 1_455 S
C623 C621 1.413 1_455 S
C623 C653 1.437 . S
H624 C653 0.929 . S
N625 Gd598 2.570 . S
N625 C626 1.359 . S
N625 C629 1.343 . S
C626 C619 1.422 . S
C626 N625 1.359 . S
C626 C628 1.421 1_655 S
C627 C628 1.422 . S
C627 C630 1.321 1_455 S
C627 H654 0.931 . S
C628 C626 1.421 1_455 S
C628 C627 1.422 . S
C628 C652 1.417 . S
C629 H606 0.931 . S
C629 N625 1.343 . S
C629 C630 1.390 . S
C630 H608 0.930 . S
C630 C627 1.321 1_655 S
C630 C629 1.390 . S
O631 Gd599 2.386 . S
O631 C643 1.265 . S
O632 Gd598 2.353 . S
O632 C643 1.242 . S
O633 Gd598 2.468 . S
O633 C651 1.263 . S
O634 Gd598 2.427 . S
O634 C651 1.252 . S
O635 Gd599 2.307 . S
O635 C644 1.261 . S
O636 Gd598 2.388 . S
O636 C644 1.252 . S
O637 Gd598 2.386 . S
O637 C655 1.265 . S
O638 Gd599 2.353 . S
O638 C655 1.242 . S
O639 Gd599 2.468 . S
O639 C663 1.263 . S
O640 Gd599 2.427 . S
O640 C663 1.252 . S
O641 Gd598 2.307 . S
O641 C656 1.261 . S
O642 Gd599 2.388 . S
O642 C656 1.252 . S
C643 O631 1.265 . S
C643 O632 1.242 . S
C644 O635 1.261 . S
C644 O636 1.252 . S
C645 C648 1.394 . S
C645 C650 1.370 . S
C645 C651 1.500 . S
C646 C649 1.383 . S
C646 C650 1.395 . S
C647 C648 1.396 . S
C647 C649 1.365 . S
C647 H664 0.929 . S
C648 C645 1.394 . S
C648 C647 1.396 . S
C648 H665 0.930 . S
C649 C646 1.383 . S
C649 C647 1.365 . S
C649 H666 0.931 . S
C650 C645 1.370 . S
C650 C646 1.395 . S
C650 H667 0.930 . S
C651 Gd598 2.805 . S
C651 O633 1.263 . S
C651 O634 1.252 . S
C651 C645 1.500 . S
C652 H614 0.930 . S
C652 C628 1.417 . S
C652 C653 1.329 . S
C653 C623 1.437 . S
C653 H624 0.929 . S
C653 C652 1.329 . S
H654 C627 0.931 . S
C655 O637 1.265 . S
C655 O638 1.242 . S
C656 O641 1.261 . S
C656 O642 1.252 . S
C657 C660 1.394 . S
C657 C662 1.370 . S
C657 C663 1.500 . S
C658 C661 1.383 . S
C658 C662 1.395 . S
C659 C660 1.396 . S
C659 C661 1.365 . S
C659 H668 0.929 . S
C660 C657 1.394 . S
C660 C659 1.396 . S
C660 H669 0.930 . S
C661 C658 1.383 . S
C661 C659 1.365 . S
C661 H670 0.931 . S
C662 C657 1.370 . S
C662 C658 1.395 . S
C662 H671 0.930 . S
C663 Gd599 2.805 . S
C663 O639 1.263 . S
C663 O640 1.252 . S
C663 C657 1.500 . S
H664 C647 0.929 . S
H665 C648 0.930 . S
H666 C649 0.931 . S
H667 C650 0.930 . S
H668 C659 0.929 . S
H669 C660 0.930 . S
H670 C661 0.931 . S
H671 C662 0.930 . S
C672 C674 1.422 . S
C672 C676 1.415 . S
C672 N678 1.369 . S
C673 C674 1.421 . S
C673 C675 1.417 . S
C673 C685 1.422 . S
C674 C672 1.422 . S
C674 C673 1.421 . S
C674 N684 1.359 . S
C675 C673 1.417 . S
C675 C677 1.329 . S
C675 H694 0.930 . S
C676 C672 1.415 . S
C676 C677 1.437 . S
C676 C680 1.413 . S
C677 C675 1.329 . S
C677 C676 1.437 . S
C677 H699 0.929 . S
N678 C672 1.369 . S
N678 C679 1.338 . S
N678 Gd683 2.622 . S
C679 N678 1.338 . S
C679 C681 1.378 . S
C679 H691 0.929 . S
C680 C676 1.413 . S
C680 C681 1.348 . S
C680 H696 0.931 . S
C681 C679 1.378 . S
C681 C680 1.348 . S
C681 H697 0.930 . S
Gd682 N702 2.622 . S
Gd682 N709 2.570 . S
Gd682 O716 2.353 . S
Gd682 O717 2.468 . S
Gd682 O718 2.427 . S
Gd682 O720 2.388 . S
Gd682 O721 2.386 . S
Gd682 O725 2.307 . S
Gd682 C735 2.805 . S
Gd683 N678 2.622 . S
Gd683 N684 2.570 . S
Gd683 O715 2.386 . S
Gd683 O719 2.307 . S
Gd683 O722 2.353 . S
Gd683 O723 2.468 . S
Gd683 O724 2.427 . S
Gd683 O726 2.388 . S
Gd683 C747 2.805 . S
N684 C674 1.359 . S
N684 Gd683 2.570 . S
N684 C686 1.343 . S
C685 C673 1.422 . S
C685 C687 1.321 . S
C685 H693 0.931 . S
C686 N684 1.343 . S
C686 C687 1.390 . S
C686 H688 0.931 . S
C687 C685 1.321 . S
C687 C686 1.390 . S
C687 H689 0.930 . S
H688 C686 0.931 . S
H689 C687 0.930 . S
H690 C713 0.931 . S
H691 C679 0.929 . S
H692 C714 0.930 . S
H693 C685 0.931 . S
H694 C675 0.930 . S
H695 C704 0.929 . S
H696 C680 0.931 . S
H697 C681 0.930 . S
H698 C736 0.930 . S
H699 C677 0.929 . S
H700 C705 0.931 . S
H701 C706 0.930 . S
N702 Gd682 2.622 . S
N702 C703 1.369 . S
N702 C704 1.338 . S
C703 N702 1.369 . S
C703 C707 1.415 . S
C703 C710 1.422 . S
C704 H695 0.929 . S
C704 N702 1.338 . S
C704 C706 1.378 . S
C705 H700 0.931 . S
C705 C706 1.348 . S
C705 C707 1.413 . S
C706 H701 0.930 . S
C706 C704 1.378 . S
C706 C705 1.348 . S
C707 C703 1.415 . S
C707 C705 1.413 . S
C707 C737 1.437 . S
H708 C737 0.929 . S
N709 Gd682 2.570 . S
N709 C710 1.359 . S
N709 C713 1.343 . S
C710 C703 1.422 . S
C710 N709 1.359 . S
C710 C712 1.421 . S
C711 C712 1.422 . S
C711 C714 1.321 . S
C711 H738 0.931 . S
C712 C710 1.421 . S
C712 C711 1.422 . S
C712 C736 1.417 . S
C713 H690 0.931 . S
C713 N709 1.343 . S
C713 C714 1.390 . S
C714 H692 0.930 . S
C714 C711 1.321 . S
C714 C713 1.390 . S
O715 Gd683 2.386 . S
O715 C727 1.265 . S
O716 Gd682 2.353 . S
O716 C727 1.242 . S
O717 Gd682 2.468 . S
O717 C735 1.263 . S
O718 Gd682 2.427 . S
O718 C735 1.252 . S
O719 Gd683 2.307 . S
O719 C728 1.261 . S
O720 Gd682 2.388 . S
O720 C728 1.252 . S
O721 Gd682 2.386 . S
O721 C739 1.265 . S
O722 Gd683 2.353 . S
O722 C739 1.242 . S
O723 Gd683 2.468 . S
O723 C747 1.263 . S
O724 Gd683 2.427 . S
O724 C747 1.252 . S
O725 Gd682 2.307 . S
O725 C740 1.261 . S
O726 Gd683 2.388 . S
O726 C740 1.252 . S
C727 O715 1.265 . S
C727 O716 1.242 . S
C728 O719 1.261 . S
C728 O720 1.252 . S
C729 C732 1.394 . S
C729 C734 1.370 . S
C729 C735 1.500 . S
C730 C733 1.383 . S
C730 C734 1.395 . S
C731 C732 1.396 . S
C731 C733 1.365 . S
C731 H748 0.929 . S
C732 C729 1.394 . S
C732 C731 1.396 . S
C732 H749 0.930 . S
C733 C730 1.383 . S
C733 C731 1.365 . S
C733 H750 0.931 . S
C734 C729 1.370 . S
C734 C730 1.395 . S
C734 H751 0.930 . S
C735 Gd682 2.805 . S
C735 O717 1.263 . S
C735 O718 1.252 . S
C735 C729 1.500 . S
C736 H698 0.930 . S
C736 C712 1.417 . S
C736 C737 1.329 . S
C737 C707 1.437 . S
C737 H708 0.929 . S
C737 C736 1.329 . S
H738 C711 0.931 . S
C739 O721 1.265 . S
C739 O722 1.242 . S
C740 O725 1.261 . S
C740 O726 1.252 . S
C741 C744 1.394 . S
C741 C746 1.370 . S
C741 C747 1.500 . S
C742 C745 1.383 . S
C742 C746 1.395 . S
C743 C744 1.396 . S
C743 C745 1.365 . S
C743 H752 0.929 . S
C744 C741 1.394 . S
C744 C743 1.396 . S
C744 H753 0.930 . S
C745 C742 1.383 . S
C745 C743 1.365 . S
C745 H754 0.931 . S
C746 C741 1.370 . S
C746 C742 1.395 . S
C746 H755 0.930 . S
C747 Gd683 2.805 . S
C747 O723 1.263 . S
C747 O724 1.252 . S
C747 C741 1.500 . S
H748 C731 0.929 . S
H749 C732 0.930 . S
H750 C733 0.931 . S
H751 C734 0.930 . S
H752 C743 0.929 . S
H753 C744 0.930 . S
H754 C745 0.931 . S
H755 C746 0.930 . S
C756 C757 1.349 . S
C756 C758 1.327 . S
C756 H781 0.950 . S
C757 C756 1.349 . S
C757 C773 1.349 . S
C758 C756 1.327 . S
C758 C777 1.429 1_556 S
C758 H782 0.951 . S
C759 C776 1.574 . S
C759 C778 1.368 . S
C759 H783 0.949 . S
H760 C764 0.949 . S
C761 C762 1.349 . S
C761 C763 1.327 . S
C761 H784 0.950 . S
C762 C761 1.349 . S
C762 C774 1.349 . S
C763 C761 1.327 . S
C763 C779 1.429 . S
C763 H785 0.950 . S
C764 H760 0.949 . S
C764 C772 1.574 . S
C764 C780 1.368 . S
H765 C773 0.950 . S
H766 C771 0.952 . S
H767 C772 0.949 . S
H768 C774 0.950 . S
H769 C775 0.950 . S
H770 C776 0.949 . S
C771 H766 0.952 . S
C771 C773 1.325 1_554 S
C771 C777 1.429 . S
C772 C764 1.574 . S
C772 H767 0.949 . S
C772 C778 1.368 . S
C773 C757 1.349 . S
C773 H765 0.950 . S
C773 C771 1.325 1_556 S
C774 C762 1.349 . S
C774 H768 0.950 . S
C774 C775 1.327 . S
C775 H769 0.950 . S
C775 C774 1.327 . S
C775 C779 1.429 . S
C776 C759 1.574 . S
C776 H770 0.949 . S
C776 C780 1.368 . S
C777 C758 1.429 1_554 S
C777 C771 1.429 . S
C777 C778 1.523 . S
C778 C759 1.368 . S
C778 C772 1.368 . S
C778 C777 1.523 . S
C779 C763 1.429 . S
C779 C775 1.429 . S
C779 C780 1.523 . S
C780 C764 1.368 . S
C780 C776 1.368 . S
C780 C779 1.523 . S
H781 C756 0.950 . S
H782 C758 0.951 . S
H783 C759 0.949 . S
H784 C761 0.950 . S
H785 C763 0.950 . S
C786 C787 1.349 . S
C786 C788 1.327 . S
C786 H811 0.950 . S
C787 C786 1.349 . S
C787 C803 1.349 1_556 S
C788 C786 1.327 . S
C788 C807 1.429 1_556 S
C788 H812 0.950 . S
C789 C806 1.574 . S
C789 C808 1.368 . S
C789 H813 0.949 . S
H790 C794 0.949 . S
C791 C792 1.349 . S
C791 C793 1.327 . S
C791 H814 0.950 . S
C792 C791 1.349 . S
C792 C804 1.349 1_554 S
C793 C791 1.327 . S
C793 C809 1.429 . S
C793 H815 0.950 . S
C794 H790 0.949 . S
C794 C802 1.574 . S
C794 C810 1.368 1_556 S
H795 C803 0.950 . S
H796 C801 0.950 . S
H797 C802 0.949 . S
H798 C804 0.950 . S
H799 C805 0.950 . S
H800 C806 0.949 . S
C801 H796 0.950 . S
C801 C803 1.327 . S
C801 C807 1.429 . S
C802 C794 1.574 . S
C802 H797 0.949 . S
C802 C808 1.368 1_556 S
C803 C787 1.349 1_554 S
C803 H795 0.950 . S
C803 C801 1.327 . S
C804 C792 1.349 1_556 S
C804 H798 0.950 . S
C804 C805 1.327 . S
C805 H799 0.950 . S
C805 C804 1.327 . S
C805 C809 1.429 1_556 S
C806 C789 1.574 . S
C806 H800 0.949 . S
C806 C810 1.368 . S
C807 C788 1.429 1_554 S
C807 C801 1.429 . S
C807 C808 1.523 . S
C808 C789 1.368 . S
C808 C802 1.368 1_554 S
C808 C807 1.523 . S
C809 C793 1.429 . S
C809 C805 1.429 1_554 S
C809 C810 1.523 . S
C810 C794 1.368 1_554 S
C810 C806 1.368 . S
C810 C809 1.523 . S
H811 C786 0.950 . S
H812 C788 0.950 . S
H813 C789 0.949 . S
H814 C791 0.950 . S
H815 C793 0.950 . S
C816 C817 1.349 . S
C816 C818 1.327 . S
C816 H841 0.950 . S
C817 C816 1.349 . S
C817 C833 1.349 1_554 S
C818 C816 1.327 . S
C818 C837 1.429 . S
C818 H842 0.950 . S
C819 C836 1.574 . S
C819 C838 1.368 1_556 S
C819 H843 0.949 . S
H820 C824 0.949 . S
C821 C822 1.349 . S
C821 C823 1.327 . S
C821 H844 0.950 . S
C822 C821 1.349 . S
C822 C834 1.349 1_556 S
C823 C821 1.327 . S
C823 C839 1.429 1_556 S
C823 H845 0.950 . S
C824 H820 0.949 . S
C824 C832 1.574 . S
C824 C840 1.368 . S
H825 C833 0.950 . S
H826 C831 0.950 . S
H827 C832 0.949 . S
H828 C834 0.950 . S
H829 C835 0.950 . S
H830 C836 0.949 . S
C831 H826 0.950 . S
C831 C833 1.327 . S
C831 C837 1.429 1_556 S
C832 C824 1.574 . S
C832 H827 0.949 . S
C832 C838 1.368 . S
C833 C817 1.349 1_556 S
C833 H825 0.950 . S
C833 C831 1.327 . S
C834 C822 1.349 1_554 S
C834 H828 0.950 . S
C834 C835 1.327 . S
C835 H829 0.950 . S
C835 C834 1.327 . S
C835 C839 1.429 . S
C836 C819 1.574 . S
C836 H830 0.949 . S
C836 C840 1.368 1_556 S
C837 C818 1.429 . S
C837 C831 1.429 1_554 S
C837 C838 1.523 . S
C838 C819 1.368 1_554 S
C838 C832 1.368 . S
C838 C837 1.523 . S
C839 C823 1.429 1_554 S
C839 C835 1.429 . S
C839 C840 1.523 . S
C840 C824 1.368 . S
C840 C836 1.368 1_554 S
C840 C839 1.523 . S
H841 C816 0.950 . S
H842 C818 0.950 . S
H843 C819 0.949 . S
H844 C821 0.950 . S
H845 C823 0.950 . S
C846 C847 1.349 1_556 S
C846 C848 1.327 . S
C846 H871 0.950 . S
C847 C846 1.349 1_554 S
C847 C863 1.349 . S
C848 C846 1.327 . S
C848 C867 1.429 1_556 S
C848 H872 0.950 . S
C849 C866 1.574 . S
C849 C868 1.362 1_554 S
C849 H873 0.949 . S
H850 C854 0.949 . S
C851 C852 1.349 1_554 S
C851 C853 1.327 . S
C851 H874 0.950 . S
C852 C851 1.349 1_556 S
C852 C864 1.349 . S
C853 C851 1.327 . S
C853 C869 1.429 1_554 S
C853 H875 0.950 . S
C854 H850 0.949 . S
C854 C862 1.574 . S
C854 C870 1.368 . S
H855 C863 0.950 . S
H856 C861 0.950 . S
H857 C862 0.949 . S
H858 C864 0.950 . S
H859 C865 0.950 . S
H860 C866 0.949 . S
C861 H856 0.950 . S
C861 C863 1.327 . S
C861 C867 1.429 . S
C862 C854 1.574 . S
C862 H857 0.949 . S
C862 C868 1.375 . S
C863 C847 1.349 . S
C863 H855 0.950 . S
C863 C861 1.327 . S
C864 C852 1.349 . S
C864 H858 0.950 . S
C864 C865 1.327 . S
C865 H859 0.950 . S
C865 C864 1.327 . S
C865 C869 1.429 . S
C866 C849 1.574 . S
C866 H860 0.949 . S
C866 C870 1.368 1_554 S
C867 C848 1.429 1_554 S
C867 C861 1.429 . S
C867 C868 1.522 1_554 S
C868 C849 1.362 1_556 S
C868 C862 1.375 . S
C868 C867 1.522 1_556 S
C869 C853 1.429 1_556 S
C869 C865 1.429 . S
C869 C870 1.523 . S
C870 C854 1.368 . S
C870 C866 1.368 1_556 S
C870 C869 1.523 . S
H871 C846 0.950 . S
H872 C848 0.950 . S
H873 C849 0.949 . S
H874 C851 0.950 . S
H875 C853 0.950 . S
C876 C877 1.349 . S
C876 C878 1.327 . S
C876 H901 0.950 . S
C877 C876 1.349 . S
C877 C893 1.349 1_556 S
C878 C876 1.327 . S
C878 C897 1.429 . S
C878 H902 0.950 . S
C879 C896 1.574 . S
C879 C898 1.368 1_554 S
C879 H903 0.949 . S
H880 C884 0.949 . S
C881 C882 1.349 . S
C881 C883 1.327 . S
C881 H904 0.950 . S
C882 C881 1.349 . S
C882 C894 1.349 1_554 S
C883 C881 1.327 . S
C883 C899 1.429 . S
C883 H905 0.950 . S
C884 H880 0.949 . S
C884 C892 1.574 . S
C884 C900 1.375 . S
H885 C893 0.950 . S
H886 C891 0.950 . S
H887 C892 0.949 . S
H888 C894 0.950 . S
H889 C895 0.950 . S
H890 C896 0.949 . S
C891 H886 0.950 . S
C891 C893 1.327 . S
C891 C897 1.429 1_554 S
C892 C884 1.574 . S
C892 H887 0.949 . S
C892 C898 1.368 . S
C893 C877 1.349 1_554 S
C893 H885 0.950 . S
C893 C891 1.327 . S
C894 C882 1.349 1_556 S
C894 H888 0.950 . S
C894 C895 1.327 . S
C895 H889 0.950 . S
C895 C894 1.327 . S
C895 C899 1.429 1_556 S
C896 C879 1.574 . S
C896 H890 0.949 . S
C896 C900 1.363 1_554 S
C897 C878 1.429 . S
C897 C891 1.429 1_556 S
C897 C898 1.523 . S
C898 C879 1.368 1_556 S
C898 C892 1.368 . S
C898 C897 1.523 . S
C899 C883 1.429 . S
C899 C895 1.429 1_554 S
C899 C900 1.522 1_554 S
C900 C884 1.375 . S
C900 C896 1.363 1_556 S
C900 C899 1.522 1_556 S
H901 C876 0.950 . S
H902 C878 0.950 . S
H903 C879 0.949 . S
H904 C881 0.950 . S
H905 C883 0.950 . S
C906 C907 1.349 . S
C906 C908 1.327 . S
C906 H931 0.950 . S
C907 C906 1.349 . S
C907 C923 1.349 1_556 S
C908 C906 1.327 . S
C908 C927 1.429 . S
C908 H932 0.950 . S
C909 C926 1.574 . S
C909 C928 1.368 1_554 S
C909 H933 0.949 . S
H910 C914 0.949 . S
C911 C912 1.349 . S
C911 C913 1.327 . S
C911 H934 0.950 . S
C912 C911 1.349 . S
C912 C924 1.349 1_554 S
C913 C911 1.327 . S
C913 C929 1.429 . S
C913 H935 0.950 . S
C914 H910 0.949 . S
C914 C922 1.574 . S
C914 C930 1.376 . S
H915 C923 0.950 . S
H916 C921 0.950 . S
H917 C922 0.949 . S
H918 C924 0.950 . S
H919 C925 0.950 . S
H920 C926 0.949 . S
C921 H916 0.950 . S
C921 C923 1.327 . S
C921 C927 1.429 1_554 S
C922 C914 1.574 . S
C922 H917 0.949 . S
C922 C928 1.368 . S
C923 C907 1.349 1_554 S
C923 H915 0.950 . S
C923 C921 1.327 . S
C924 C912 1.349 1_556 S
C924 H918 0.950 . S
C924 C925 1.327 . S
C925 H919 0.950 . S
C925 C924 1.327 . S
C925 C929 1.429 1_556 S
C926 C909 1.574 . S
C926 H920 0.949 . S
C926 C930 1.361 1_554 S
C927 C908 1.429 . S
C927 C921 1.429 1_556 S
C927 C928 1.523 . S
C928 C909 1.368 1_556 S
C928 C922 1.368 . S
C928 C927 1.523 . S
C929 C913 1.429 . S
C929 C925 1.429 1_554 S
C929 C930 1.522 1_554 S
C930 C914 1.376 . S
C930 C926 1.361 1_556 S
C930 C929 1.522 1_556 S
H931 C906 0.950 . S
H932 C908 0.950 . S
H933 C909 0.949 . S
H934 C911 0.950 . S
H935 C913 0.950 . S
C936 C937 1.349 . S
C936 C938 1.327 . S
C936 H961 0.950 . S
C937 C936 1.349 . S
C937 C953 1.349 . S
C938 C936 1.327 . S
C938 C957 1.429 . S
C938 H962 0.950 . S
C939 C956 1.574 1_655 S
C939 C958 1.368 . S
C939 H963 0.949 . S
H940 C944 0.949 . S
C941 C942 1.349 . S
C941 C943 1.327 . S
C941 H964 0.950 . S
C942 C941 1.349 . S
C942 C954 1.349 . S
C943 C941 1.327 . S
C943 C959 1.429 . S
C943 H965 0.950 . S
C944 H940 0.949 . S
C944 C952 1.574 1_455 S
C944 C960 1.368 . S
H945 C953 0.950 . S
H946 C951 0.950 . S
H947 C952 0.949 . S
H948 C954 0.950 . S
H949 C955 0.950 . S
H950 C956 0.949 . S
C951 H946 0.950 . S
C951 C953 1.327 . S
C951 C957 1.429 . S
C952 C944 1.574 1_655 S
C952 H947 0.949 . S
C952 C958 1.368 . S
C953 C937 1.349 . S
C953 H945 0.950 . S
C953 C951 1.327 . S
C954 C942 1.349 . S
C954 H948 0.950 . S
C954 C955 1.327 . S
C955 H949 0.950 . S
C955 C954 1.327 . S
C955 C959 1.429 . S
C956 C939 1.574 1_455 S
C956 H950 0.949 . S
C956 C960 1.368 . S
C957 C938 1.429 . S
C957 C951 1.429 . S
C957 C958 1.523 . S
C958 C939 1.368 . S
C958 C952 1.368 . S
C958 C957 1.523 . S
C959 C943 1.429 . S
C959 C955 1.429 . S
C959 C960 1.523 . S
C960 C944 1.368 . S
C960 C956 1.368 . S
C960 C959 1.523 . S
H961 C936 0.950 . S
H962 C938 0.950 . S
H963 C939 0.949 . S
H964 C941 0.950 . S
H965 C943 0.950 . S
C966 C967 1.349 . S
C966 C968 1.327 . S
C966 H991 0.950 . S
C967 C966 1.349 . S
C967 C983 1.349 . S
C968 C966 1.327 . S
C968 C987 1.429 . S
C968 H992 0.950 . S
C969 C986 1.574 . S
C969 C988 1.368 . S
C969 H993 0.949 . S
H970 C974 0.949 . S
C971 C972 1.349 . S
C971 C973 1.327 . S
C971 H994 0.950 . S
C972 C971 1.349 . S
C972 C984 1.349 . S
C973 C971 1.327 . S
C973 C989 1.429 . S
C973 H995 0.950 . S
C974 H970 0.949 . S
C974 C982 1.574 . S
C974 C990 1.368 . S
H975 C983 0.950 . S
H976 C981 0.950 . S
H977 C982 0.949 . S
H978 C984 0.950 . S
H979 C985 0.950 . S
H980 C986 0.949 . S
C981 H976 0.950 . S
C981 C983 1.327 . S
C981 C987 1.429 . S
C982 C974 1.574 . S
C982 H977 0.949 . S
C982 C988 1.368 . S
C983 C967 1.349 . S
C983 H975 0.950 . S
C983 C981 1.327 . S
C984 C972 1.349 . S
C984 H978 0.950 . S
C984 C985 1.327 . S
C985 H979 0.950 . S
C985 C984 1.327 . S
C985 C989 1.429 . S
C986 C969 1.574 . S
C986 H980 0.949 . S
C986 C990 1.368 . S
C987 C968 1.429 . S
C987 C981 1.429 . S
C987 C988 1.523 . S
C988 C969 1.368 . S
C988 C982 1.368 . S
C988 C987 1.523 . S
C989 C973 1.429 . S
C989 C985 1.429 . S
C989 C990 1.523 . S
C990 C974 1.368 . S
C990 C986 1.368 . S
C990 C989 1.523 . S
H991 C966 0.950 . S
H992 C968 0.950 . S
H993 C969 0.949 . S
H994 C971 0.950 . S
H995 C973 0.950 . S
C996 C997 1.349 . S
C996 C998 1.327 . S
C996 H1021 0.950 . S
C997 C996 1.349 . S
C997 C1013 1.349 . S
C998 C996 1.327 . S
C998 C1017 1.429 . S
C998 H1022 0.950 . S
C999 C1016 1.574 1_545 S
C999 C1018 1.368 . S
C999 H1023 0.949 . S
H1000 C1004 0.949 . S
C1001 C1002 1.349 . S
C1001 C1003 1.327 . S
C1001 H1024 0.950 . S
C1002 C1001 1.349 . S
C1002 C1014 1.349 . S
C1003 C1001 1.327 . S
C1003 C1019 1.429 . S
C1003 H1025 0.950 . S
C1004 H1000 0.949 . S
C1004 C1012 1.576 1_565 S
C1004 C1020 1.366 . S
H1005 C1013 0.950 . S
H1006 C1011 0.950 . S
H1007 C1012 0.949 . S
H1008 C1014 0.950 . S
H1009 C1015 0.950 . S
H1010 C1016 0.949 . S
C1011 H1006 0.950 . S
C1011 C1013 1.327 . S
C1011 C1017 1.429 . S
C1012 C1004 1.576 1_545 S
C1012 H1007 0.949 . S
C1012 C1018 1.368 . S
C1013 C997 1.349 . S
C1013 H1005 0.950 . S
C1013 C1011 1.327 . S
C1014 C1002 1.349 . S
C1014 H1008 0.950 . S
C1014 C1015 1.327 . S
C1015 H1009 0.950 . S
C1015 C1014 1.327 . S
C1015 C1019 1.429 . S
C1016 C999 1.574 1_565 S
C1016 H1010 0.949 . S
C1016 C1020 1.368 . S
C1017 C998 1.429 . S
C1017 C1011 1.429 . S
C1017 C1018 1.523 . S
C1018 C999 1.368 . S
C1018 C1012 1.368 . S
C1018 C1017 1.523 . S
C1019 C1003 1.429 . S
C1019 C1015 1.429 . S
C1019 C1020 1.523 . S
C1020 C1004 1.366 . S
C1020 C1016 1.368 . S
C1020 C1019 1.523 . S
H1021 C996 0.950 . S
H1022 C998 0.950 . S
H1023 C999 0.949 . S
H1024 C1001 0.950 . S
H1025 C1003 0.950 . S
C1026 C1027 1.349 . S
C1026 C1028 1.327 . S
C1026 H1051 0.950 . S
C1027 C1026 1.349 . S
C1027 C1043 1.349 . S
C1028 C1026 1.327 . S
C1028 C1047 1.429 . S
C1028 H1052 0.950 . S
C1029 C1046 1.574 . S
C1029 C1048 1.368 . S
C1029 H1053 0.949 . S
H1030 C1034 0.949 . S
C1031 C1032 1.349 . S
C1031 C1033 1.327 . S
C1031 H1054 0.950 . S
C1032 C1031 1.349 . S
C1032 C1044 1.349 . S
C1033 C1031 1.327 . S
C1033 C1049 1.429 . S
C1033 H1055 0.950 . S
C1034 H1030 0.949 . S
C1034 C1042 1.574 . S
C1034 C1050 1.368 . S
H1035 C1043 0.950 . S
H1036 C1041 0.950 . S
H1037 C1042 0.949 . S
H1038 C1044 0.950 . S
H1039 C1045 0.950 . S
H1040 C1046 0.949 . S
C1041 H1036 0.950 . S
C1041 C1043 1.327 . S
C1041 C1047 1.429 . S
C1042 C1034 1.574 . S
C1042 H1037 0.949 . S
C1042 C1048 1.368 . S
C1043 C1027 1.349 . S
C1043 H1035 0.950 . S
C1043 C1041 1.327 . S
C1044 C1032 1.349 . S
C1044 H1038 0.950 . S
C1044 C1045 1.327 . S
C1045 H1039 0.950 . S
C1045 C1044 1.327 . S
C1045 C1049 1.429 . S
C1046 C1029 1.574 . S
C1046 H1040 0.949 . S
C1046 C1050 1.368 . S
C1047 C1028 1.429 . S
C1047 C1041 1.429 . S
C1047 C1048 1.523 . S
C1048 C1029 1.368 . S
C1048 C1042 1.368 . S
C1048 C1047 1.523 . S
C1049 C1033 1.429 . S
C1049 C1045 1.429 . S
C1049 C1050 1.523 . S
C1050 C1034 1.368 . S
C1050 C1046 1.368 . S
C1050 C1049 1.523 . S
H1051 C1026 0.950 . S
H1052 C1028 0.950 . S
H1053 C1029 0.949 . S
H1054 C1031 0.950 . S
H1055 C1033 0.950 . S
C1056 C1057 1.349 . S
C1056 C1058 1.327 . S
C1056 H1081 0.950 . S
C1057 C1056 1.349 . S
C1057 C1073 1.349 . S
C1058 C1056 1.327 . S
C1058 C1077 1.429 . S
C1058 H1082 0.950 . S
C1059 C1076 1.574 . S
C1059 C1078 1.368 . S
C1059 H1083 0.949 . S
H1060 C1064 0.949 . S
C1061 C1062 1.349 . S
C1061 C1063 1.327 . S
C1061 H1084 0.950 . S
C1062 C1061 1.349 . S
C1062 C1074 1.349 . S
C1063 C1061 1.327 . S
C1063 C1079 1.429 . S
C1063 H1085 0.950 . S
C1064 H1060 0.949 . S
C1064 C1072 1.574 . S
C1064 C1080 1.368 . S
H1065 C1073 0.950 . S
H1066 C1071 0.950 . S
H1067 C1072 0.949 . S
H1068 C1074 0.950 . S
H1069 C1075 0.950 . S
H1070 C1076 0.949 . S
C1071 H1066 0.950 . S
C1071 C1073 1.327 . S
C1071 C1077 1.429 . S
C1072 C1064 1.574 . S
C1072 H1067 0.949 . S
C1072 C1078 1.368 . S
C1073 C1057 1.349 . S
C1073 H1065 0.950 . S
C1073 C1071 1.327 . S
C1074 C1062 1.349 . S
C1074 H1068 0.950 . S
C1074 C1075 1.327 . S
C1075 H1069 0.950 . S
C1075 C1074 1.327 . S
C1075 C1079 1.429 . S
C1076 C1059 1.574 . S
C1076 H1070 0.949 . S
C1076 C1080 1.368 . S
C1077 C1058 1.429 . S
C1077 C1071 1.429 . S
C1077 C1078 1.523 . S
C1078 C1059 1.368 . S
C1078 C1072 1.368 . S
C1078 C1077 1.523 . S
C1079 C1063 1.429 . S
C1079 C1075 1.429 . S
C1079 C1080 1.523 . S
C1080 C1064 1.368 . S
C1080 C1076 1.368 . S
C1080 C1079 1.523 . S
H1081 C1056 0.950 . S
H1082 C1058 0.950 . S
H1083 C1059 0.949 . S
H1084 C1061 0.950 . S
H1085 C1063 0.950 . S
C1086 C1087 1.349 . S
C1086 C1088 1.327 . S
C1086 H1111 0.950 . S
C1087 C1086 1.349 . S
C1087 C1103 1.349 . S
C1088 C1086 1.327 . S
C1088 C1107 1.429 . S
C1088 H1112 0.950 . S
C1089 C1106 1.574 . S
C1089 C1108 1.368 . S
C1089 H1113 0.949 . S
H1090 C1094 0.949 . S
C1091 C1092 1.349 . S
C1091 C1093 1.327 . S
C1091 H1114 0.950 . S
C1092 C1091 1.349 . S
C1092 C1104 1.349 . S
C1093 C1091 1.327 . S
C1093 C1109 1.429 . S
C1093 H1115 0.950 . S
C1094 H1090 0.949 . S
C1094 C1102 1.574 . S
C1094 C1110 1.368 . S
H1095 C1103 0.950 . S
H1096 C1101 0.950 . S
H1097 C1102 0.949 . S
H1098 C1104 0.950 . S
H1099 C1105 0.950 . S
H1100 C1106 0.949 . S
C1101 H1096 0.950 . S
C1101 C1103 1.327 . S
C1101 C1107 1.429 . S
C1102 C1094 1.574 . S
C1102 H1097 0.949 . S
C1102 C1108 1.368 . S
C1103 C1087 1.349 . S
C1103 H1095 0.950 . S
C1103 C1101 1.327 . S
C1104 C1092 1.349 . S
C1104 H1098 0.950 . S
C1104 C1105 1.327 . S
C1105 H1099 0.950 . S
C1105 C1104 1.327 . S
C1105 C1109 1.429 . S
C1106 C1089 1.574 . S
C1106 H1100 0.949 . S
C1106 C1110 1.368 . S
C1107 C1088 1.429 . S
C1107 C1101 1.429 . S
C1107 C1108 1.523 . S
C1108 C1089 1.368 . S
C1108 C1102 1.368 . S
C1108 C1107 1.523 . S
C1109 C1093 1.429 . S
C1109 C1105 1.429 . S
C1109 C1110 1.523 . S
C1110 C1094 1.368 . S
C1110 C1106 1.368 . S
C1110 C1109 1.523 . S
H1111 C1086 0.950 . S
H1112 C1088 0.950 . S
H1113 C1089 0.949 . S
H1114 C1091 0.950 . S
H1115 C1093 0.950 . S
C1116 C1117 1.349 . S
C1116 C1118 1.327 . S
C1116 H1141 0.950 . S
C1117 C1116 1.349 . S
C1117 C1133 1.349 . S
C1118 C1116 1.327 . S
C1118 C1137 1.429 . S
C1118 H1142 0.950 . S
C1119 C1136 1.574 . S
C1119 C1138 1.368 . S
C1119 H1143 0.949 . S
H1120 C1124 0.949 . S
C1121 C1122 1.349 . S
C1121 C1123 1.327 . S
C1121 H1144 0.950 . S
C1122 C1121 1.349 . S
C1122 C1134 1.349 . S
C1123 C1121 1.327 . S
C1123 C1139 1.429 . S
C1123 H1145 0.950 . S
C1124 H1120 0.949 . S
C1124 C1132 1.574 . S
C1124 C1140 1.368 . S
H1125 C1133 0.950 . S
H1126 C1131 0.950 . S
H1127 C1132 0.949 . S
H1128 C1134 0.950 . S
H1129 C1135 0.950 . S
H1130 C1136 0.949 . S
C1131 H1126 0.950 . S
C1131 C1133 1.327 . S
C1131 C1137 1.429 . S
C1132 C1124 1.574 . S
C1132 H1127 0.949 . S
C1132 C1138 1.368 . S
C1133 C1117 1.349 . S
C1133 H1125 0.950 . S
C1133 C1131 1.327 . S
C1134 C1122 1.349 . S
C1134 H1128 0.950 . S
C1134 C1135 1.327 . S
C1135 H1129 0.950 . S
C1135 C1134 1.327 . S
C1135 C1139 1.429 . S
C1136 C1119 1.574 . S
C1136 H1130 0.949 . S
C1136 C1140 1.368 . S
C1137 C1118 1.429 . S
C1137 C1131 1.429 . S
C1137 C1138 1.523 . S
C1138 C1119 1.368 . S
C1138 C1132 1.368 . S
C1138 C1137 1.523 . S
C1139 C1123 1.429 . S
C1139 C1135 1.429 . S
C1139 C1140 1.523 . S
C1140 C1124 1.368 . S
C1140 C1136 1.368 . S
C1140 C1139 1.523 . S
H1141 C1116 0.950 . S
H1142 C1118 0.950 . S
H1143 C1119 0.949 . S
H1144 C1121 0.950 . S
H1145 C1123 0.950 . S
C1146 C1147 1.349 . S
C1146 C1148 1.327 . S
C1146 H1171 0.950 . S
C1147 C1146 1.349 . S
C1147 C1163 1.349 . S
C1148 C1146 1.327 . S
C1148 C1167 1.429 . S
C1148 H1172 0.950 . S
C1149 C1166 1.574 . S
C1149 C1168 1.368 . S
C1149 H1173 0.949 . S
H1150 C1154 0.949 . S
C1151 C1152 1.349 . S
C1151 C1153 1.327 . S
C1151 H1174 0.950 . S
C1152 C1151 1.349 . S
C1152 C1164 1.349 . S
C1153 C1151 1.327 . S
C1153 C1169 1.429 . S
C1153 H1175 0.950 . S
C1154 H1150 0.949 . S
C1154 C1162 1.574 . S
C1154 C1170 1.368 . S
H1155 C1163 0.950 . S
H1156 C1161 0.950 . S
H1157 C1162 0.949 . S
H1158 C1164 0.950 . S
H1159 C1165 0.950 . S
H1160 C1166 0.949 . S
C1161 H1156 0.950 . S
C1161 C1163 1.327 . S
C1161 C1167 1.429 . S
C1162 C1154 1.574 . S
C1162 H1157 0.949 . S
C1162 C1168 1.368 . S
C1163 C1147 1.349 . S
C1163 H1155 0.950 . S
C1163 C1161 1.327 . S
C1164 C1152 1.349 . S
C1164 H1158 0.950 . S
C1164 C1165 1.327 . S
C1165 H1159 0.950 . S
C1165 C1164 1.327 . S
C1165 C1169 1.429 . S
C1166 C1149 1.574 . S
C1166 H1160 0.949 . S
C1166 C1170 1.368 . S
C1167 C1148 1.429 . S
C1167 C1161 1.429 . S
C1167 C1168 1.523 . S
C1168 C1149 1.368 . S
C1168 C1162 1.368 . S
C1168 C1167 1.523 . S
C1169 C1153 1.429 . S
C1169 C1165 1.429 . S
C1169 C1170 1.523 . S
C1170 C1154 1.368 . S
C1170 C1166 1.368 . S
C1170 C1169 1.523 . S
H1171 C1146 0.950 . S
H1172 C1148 0.950 . S
H1173 C1149 0.949 . S
H1174 C1151 0.950 . S
H1175 C1153 0.950 . S
C1176 C1177 1.349 . S
C1176 C1178 1.327 . S
C1176 H1201 0.950 . S
C1177 C1176 1.349 . S
C1177 C1193 1.349 . S
C1178 C1176 1.327 . S
C1178 C1197 1.429 . S
C1178 H1202 0.950 . S
C1179 C1196 1.574 . S
C1179 C1198 1.368 . S
C1179 H1203 0.949 . S
H1180 C1184 0.949 . S
C1181 C1182 1.349 . S
C1181 C1183 1.327 . S
C1181 H1204 0.950 . S
C1182 C1181 1.349 . S
C1182 C1194 1.349 . S
C1183 C1181 1.327 . S
C1183 C1199 1.429 . S
C1183 H1205 0.950 . S
C1184 H1180 0.949 . S
C1184 C1192 1.574 . S
C1184 C1200 1.368 . S
H1185 C1193 0.950 . S
H1186 C1191 0.950 . S
H1187 C1192 0.949 . S
H1188 C1194 0.950 . S
H1189 C1195 0.950 . S
H1190 C1196 0.949 . S
C1191 H1186 0.950 . S
C1191 C1193 1.327 . S
C1191 C1197 1.429 . S
C1192 C1184 1.574 . S
C1192 H1187 0.949 . S
C1192 C1198 1.368 . S
C1193 C1177 1.349 . S
C1193 H1185 0.950 . S
C1193 C1191 1.327 . S
C1194 C1182 1.349 . S
C1194 H1188 0.950 . S
C1194 C1195 1.327 . S
C1195 H1189 0.950 . S
C1195 C1194 1.327 . S
C1195 C1199 1.429 . S
C1196 C1179 1.574 . S
C1196 H1190 0.949 . S
C1196 C1200 1.368 . S
C1197 C1178 1.429 . S
C1197 C1191 1.429 . S
C1197 C1198 1.523 . S
C1198 C1179 1.368 . S
C1198 C1192 1.368 . S
C1198 C1197 1.523 . S
C1199 C1183 1.429 . S
C1199 C1195 1.429 . S
C1199 C1200 1.523 . S
C1200 C1184 1.368 . S
C1200 C1196 1.368 . S
C1200 C1199 1.523 . S
H1201 C1176 0.950 . S
H1202 C1178 0.950 . S
H1203 C1179 0.949 . S
H1204 C1181 0.950 . S
H1205 C1183 0.950 . S
C1206 C1207 1.349 . S
C1206 C1208 1.327 . S
C1206 H1231 0.950 . S
C1207 C1206 1.349 . S
C1207 C1223 1.349 . S
C1208 C1206 1.327 . S
C1208 C1227 1.429 . S
C1208 H1232 0.950 . S
C1209 C1226 1.574 . S
C1209 C1228 1.368 . S
C1209 H1233 0.949 . S
H1210 C1214 0.949 . S
C1211 C1212 1.349 . S
C1211 C1213 1.327 1_545 S
C1211 H1234 0.950 . S
C1212 C1211 1.349 . S
C1212 C1224 1.336 1_545 S
C1213 C1211 1.327 1_565 S
C1213 C1229 1.429 . S
C1213 H1235 0.950 . S
C1214 H1210 0.949 . S
C1214 C1222 1.574 . S
C1214 C1230 1.368 . S
H1215 C1223 0.950 . S
H1216 C1221 0.950 . S
H1217 C1222 0.949 . S
H1218 C1224 0.936 1_545 S
H1219 C1225 0.950 . S
H1220 C1226 0.949 . S
C1221 H1216 0.950 . S
C1221 C1223 1.327 . S
C1221 C1227 1.429 . S
C1222 C1214 1.574 . S
C1222 H1217 0.949 . S
C1222 C1228 1.368 . S
C1223 C1207 1.349 . S
C1223 H1215 0.950 . S
C1223 C1221 1.327 . S
C1224 C1212 1.336 1_565 S
C1224 H1218 0.936 1_565 S
C1224 C1225 1.354 . S
C1225 H1219 0.950 . S
C1225 C1224 1.354 . S
C1225 C1229 1.429 . S
C1226 C1209 1.574 . S
C1226 H1220 0.949 . S
C1226 C1230 1.368 . S
C1227 C1208 1.429 . S
C1227 C1221 1.429 . S
C1227 C1228 1.523 . S
C1228 C1209 1.368 . S
C1228 C1222 1.368 . S
C1228 C1227 1.523 . S
C1229 C1213 1.429 . S
C1229 C1225 1.429 . S
C1229 C1230 1.523 . S
C1230 C1214 1.368 . S
C1230 C1226 1.368 . S
C1230 C1229 1.523 . S
H1231 C1206 0.950 . S
H1232 C1208 0.950 . S
H1233 C1209 0.949 . S
H1234 C1211 0.950 . S
H1235 C1213 0.950 . S
C1236 C1237 1.349 1_455 S
C1236 C1238 1.327 . S
C1236 H1261 0.950 1_455 S
C1237 C1236 1.349 1_655 S
C1237 C1253 1.349 1_655 S
C1238 C1236 1.327 . S
C1238 C1257 1.429 . S
C1238 H1262 0.950 . S
C1239 C1256 1.574 . S
C1239 C1258 1.368 . S
C1239 H1263 0.949 . S
H1240 C1244 0.949 1_545 S
C1241 C1242 1.349 . S
C1241 C1243 1.327 . S
C1241 H1264 0.950 . S
C1242 C1241 1.349 . S
C1242 C1254 1.349 . S
C1243 C1241 1.327 . S
C1243 C1259 1.429 . S
C1243 H1265 0.950 1_545 S
C1244 H1240 0.949 1_565 S
C1244 C1252 1.574 . S
C1244 C1260 1.368 . S
H1245 C1253 0.950 1_655 S
H1246 C1251 0.950 . S
H1247 C1252 0.949 . S
H1248 C1254 0.950 . S
H1249 C1255 0.950 . S
H1250 C1256 0.949 . S
C1251 H1246 0.950 . S
C1251 C1253 1.327 . S
C1251 C1257 1.429 . S
C1252 C1244 1.574 . S
C1252 H1247 0.949 . S
C1252 C1258 1.368 . S
C1253 C1237 1.349 1_455 S
C1253 H1245 0.950 1_455 S
C1253 C1251 1.327 . S
C1254 C1242 1.349 . S
C1254 H1248 0.950 . S
C1254 C1255 1.327 . S
C1255 H1249 0.950 . S
C1255 C1254 1.327 . S
C1255 C1259 1.429 . S
C1256 C1239 1.574 . S
C1256 H1250 0.949 . S
C1256 C1260 1.368 . S
C1257 C1238 1.429 . S
C1257 C1251 1.429 . S
C1257 C1258 1.523 . S
C1258 C1239 1.368 . S
C1258 C1252 1.368 . S
C1258 C1257 1.523 . S
C1259 C1243 1.429 . S
C1259 C1255 1.429 . S
C1259 C1260 1.523 1_545 S
C1260 C1244 1.368 . S
C1260 C1256 1.368 . S
C1260 C1259 1.523 1_565 S
H1261 C1236 0.950 1_655 S
H1262 C1238 0.950 . S
H1263 C1239 0.949 . S
H1264 C1241 0.950 . S
H1265 C1243 0.950 1_565 S
C1266 C1267 1.349 . S
C1266 C1268 1.327 . S
C1266 H1291 0.950 . S
C1267 C1266 1.349 . S
C1267 C1283 1.349 . S
C1268 C1266 1.327 . S
C1268 C1287 1.429 . S
C1268 H1292 0.950 . S
C1269 C1286 1.574 . S
C1269 C1288 1.368 . S
C1269 H1293 0.949 . S
H1270 C1274 0.949 . S
C1271 C1272 1.349 . S
C1271 C1273 1.327 1_655 S
C1271 H1294 0.950 . S
C1272 C1271 1.349 . S
C1272 C1284 1.349 . S
C1273 C1271 1.327 1_455 S
C1273 C1289 1.429 . S
C1273 H1295 0.950 . S
C1274 H1270 0.949 . S
C1274 C1282 1.574 . S
C1274 C1290 1.368 . S
H1275 C1283 0.950 . S
H1276 C1281 0.950 . S
H1277 C1282 0.949 . S
H1278 C1284 0.950 . S
H1279 C1285 0.950 . S
H1280 C1286 0.949 . S
C1281 H1276 0.950 . S
C1281 C1283 1.327 . S
C1281 C1287 1.429 . S
C1282 C1274 1.574 . S
C1282 H1277 0.949 . S
C1282 C1288 1.368 . S
C1283 C1267 1.349 . S
C1283 H1275 0.950 . S
C1283 C1281 1.327 . S
C1284 C1272 1.349 . S
C1284 H1278 0.950 . S
C1284 C1285 1.327 . S
C1285 H1279 0.950 . S
C1285 C1284 1.327 . S
C1285 C1289 1.429 1_655 S
C1286 C1269 1.574 . S
C1286 H1280 0.949 . S
C1286 C1290 1.368 . S
C1287 C1268 1.429 . S
C1287 C1281 1.429 . S
C1287 C1288 1.523 . S
C1288 C1269 1.368 . S
C1288 C1282 1.368 . S
C1288 C1287 1.523 . S
C1289 C1273 1.429 . S
C1289 C1285 1.429 1_455 S
C1289 C1290 1.523 . S
C1290 C1274 1.368 . S
C1290 C1286 1.368 . S
C1290 C1289 1.523 . S
H1291 C1266 0.950 . S
H1292 C1268 0.950 . S
H1293 C1269 0.949 . S
H1294 C1271 0.950 . S
H1295 C1273 0.950 . S
C1296 C1297 1.349 . S
C1296 C1298 1.327 . S
C1296 H1321 0.950 . S
C1297 C1296 1.349 . S
C1297 C1313 1.349 . S
C1298 C1296 1.327 . S
C1298 C1317 1.429 . S
C1298 H1322 0.950 . S
C1299 C1316 1.574 . S
C1299 C1318 1.368 . S
C1299 H1323 0.949 . S
H1300 C1304 0.949 . S
C1301 C1302 1.349 . S
C1301 C1303 1.327 . S
C1301 H1324 0.927 1_455 S
C1302 C1301 1.349 . S
C1302 C1314 1.349 . S
C1303 C1301 1.327 . S
C1303 C1319 1.429 . S
C1303 H1325 0.950 . S
C1304 H1300 0.949 . S
C1304 C1312 1.574 . S
C1304 C1320 1.368 . S
H1305 C1313 0.950 . S
H1306 C1311 0.950 . S
H1307 C1312 0.949 . S
H1308 C1314 0.950 . S
H1309 C1315 0.950 . S
H1310 C1316 0.949 . S
C1311 H1306 0.950 . S
C1311 C1313 1.327 . S
C1311 C1317 1.429 . S
C1312 C1304 1.574 . S
C1312 H1307 0.949 . S
C1312 C1318 1.368 . S
C1313 C1297 1.349 . S
C1313 H1305 0.950 . S
C1313 C1311 1.327 . S
C1314 C1302 1.349 . S
C1314 H1308 0.950 . S
C1314 C1315 1.327 . S
C1315 H1309 0.950 . S
C1315 C1314 1.327 . S
C1315 C1319 1.429 . S
C1316 C1299 1.574 . S
C1316 H1310 0.949 . S
C1316 C1320 1.368 . S
C1317 C1298 1.429 . S
C1317 C1311 1.429 . S
C1317 C1318 1.523 . S
C1318 C1299 1.368 . S
C1318 C1312 1.368 . S
C1318 C1317 1.523 . S
C1319 C1303 1.429 . S
C1319 C1315 1.429 . S
C1319 C1320 1.523 . S
C1320 C1304 1.368 . S
C1320 C1316 1.368 . S
C1320 C1319 1.523 . S
H1321 C1296 0.950 . S
H1322 C1298 0.950 . S
H1323 C1299 0.949 . S
H1324 C1301 0.927 1_655 S
H1325 C1303 0.950 . S
C1326 C1327 1.349 . S
C1326 C1328 1.327 . S
C1326 H1351 0.950 . S
C1327 C1326 1.349 . S
C1327 C1343 1.349 . S
C1328 C1326 1.327 . S
C1328 C1347 1.429 . S
C1328 H1352 0.950 . S
C1329 C1346 1.574 . S
C1329 C1348 1.368 . S
C1329 H1353 0.949 . S
H1330 C1334 0.949 . S
C1331 C1332 1.349 . S
C1331 C1333 1.327 . S
C1331 H1354 0.950 . S
C1332 C1331 1.349 . S
C1332 C1344 1.349 . S
C1333 C1331 1.327 . S
C1333 C1349 1.429 . S
C1333 H1355 0.950 . S
C1334 H1330 0.949 . S
C1334 C1342 1.574 . S
C1334 C1350 1.368 . S
H1335 C1343 0.950 . S
H1336 C1341 0.950 . S
H1337 C1342 0.949 . S
H1338 C1344 0.950 . S
H1339 C1345 0.950 . S
H1340 C1346 0.949 . S
C1341 H1336 0.950 . S
C1341 C1343 1.327 . S
C1341 C1347 1.429 . S
C1342 C1334 1.574 . S
C1342 H1337 0.949 . S
C1342 C1348 1.368 . S
C1343 C1327 1.349 . S
C1343 H1335 0.950 . S
C1343 C1341 1.327 . S
C1344 C1332 1.349 . S
C1344 H1338 0.950 . S
C1344 C1345 1.327 . S
C1345 H1339 0.950 . S
C1345 C1344 1.327 . S
C1345 C1349 1.429 . S
C1346 C1329 1.574 . S
C1346 H1340 0.949 . S
C1346 C1350 1.368 . S
C1347 C1328 1.429 . S
C1347 C1341 1.429 . S
C1347 C1348 1.523 . S
C1348 C1329 1.368 . S
C1348 C1342 1.368 . S
C1348 C1347 1.523 . S
C1349 C1333 1.429 . S
C1349 C1345 1.429 . S
C1349 C1350 1.523 . S
C1350 C1334 1.368 . S
C1350 C1346 1.368 . S
C1350 C1349 1.523 . S
H1351 C1326 0.950 . S
H1352 C1328 0.950 . S
H1353 C1329 0.949 . S
H1354 C1331 0.950 . S
H1355 C1333 0.950 . S
C1356 C1357 1.349 . S
C1356 C1358 1.327 . S
C1356 H1381 0.950 1_565 S
C1357 C1356 1.349 . S
C1357 C1373 1.349 . S
C1358 C1356 1.327 . S
C1358 C1377 1.429 . S
C1358 H1382 0.950 . S
C1359 C1376 1.574 . S
C1359 C1378 1.368 . S
C1359 H1383 0.949 . S
H1360 C1364 0.949 . S
C1361 C1362 1.349 . S
C1361 C1363 1.327 . S
C1361 H1384 0.950 . S
C1362 C1361 1.349 . S
C1362 C1374 1.349 . S
C1363 C1361 1.327 . S
C1363 C1379 1.429 . S
C1363 H1385 0.950 . S
C1364 H1360 0.949 . S
C1364 C1372 1.574 . S
C1364 C1380 1.368 . S
H1365 C1373 0.950 . S
H1366 C1371 0.950 . S
H1367 C1372 0.949 . S
H1368 C1374 0.950 . S
H1369 C1375 0.950 . S
H1370 C1376 0.949 . S
C1371 H1366 0.950 . S
C1371 C1373 1.327 . S
C1371 C1377 1.429 . S
C1372 C1364 1.574 . S
C1372 H1367 0.949 . S
C1372 C1378 1.368 . S
C1373 C1357 1.349 . S
C1373 H1365 0.950 . S
C1373 C1371 1.327 . S
C1374 C1362 1.349 . S
C1374 H1368 0.950 . S
C1374 C1375 1.327 . S
C1375 H1369 0.950 . S
C1375 C1374 1.327 . S
C1375 C1379 1.429 . S
C1376 C1359 1.574 . S
C1376 H1370 0.949 . S
C1376 C1380 1.368 . S
C1377 C1358 1.429 . S
C1377 C1371 1.429 . S
C1377 C1378 1.523 . S
C1378 C1359 1.368 . S
C1378 C1372 1.368 . S
C1378 C1377 1.523 . S
C1379 C1363 1.429 . S
C1379 C1375 1.429 . S
C1379 C1380 1.523 . S
C1380 C1364 1.368 . S
C1380 C1376 1.368 . S
C1380 C1379 1.523 . S
H1381 C1356 0.950 1_545 S
H1382 C1358 0.950 . S
H1383 C1359 0.949 . S
H1384 C1361 0.950 . S
H1385 C1363 0.950 . S
C1386 C1387 1.349 . S
C1386 C1388 1.327 . S
C1386 H1411 0.950 . S
C1387 C1386 1.349 . S
C1387 C1403 1.349 . S
C1388 C1386 1.327 . S
C1388 C1407 1.429 . S
C1388 H1412 0.950 . S
C1389 C1406 1.574 . S
C1389 C1408 1.368 . S
C1389 H1413 0.949 . S
H1390 C1394 0.949 . S
C1391 C1392 1.349 . S
C1391 C1393 1.327 . S
C1391 H1414 0.950 . S
C1392 C1391 1.349 . S
C1392 C1404 1.349 . S
C1393 C1391 1.327 . S
C1393 C1409 1.429 . S
C1393 H1415 0.950 . S
C1394 H1390 0.949 . S
C1394 C1402 1.574 . S
C1394 C1410 1.368 . S
H1395 C1403 0.950 . S
H1396 C1401 0.950 . S
H1397 C1402 0.949 . S
H1398 C1404 0.950 . S
H1399 C1405 0.950 . S
H1400 C1406 0.949 . S
C1401 H1396 0.950 . S
C1401 C1403 1.327 . S
C1401 C1407 1.429 . S
C1402 C1394 1.574 . S
C1402 H1397 0.949 . S
C1402 C1408 1.368 . S
C1403 C1387 1.349 . S
C1403 H1395 0.950 . S
C1403 C1401 1.327 . S
C1404 C1392 1.349 . S
C1404 H1398 0.950 . S
C1404 C1405 1.327 . S
C1405 H1399 0.950 . S
C1405 C1404 1.327 . S
C1405 C1409 1.429 . S
C1406 C1389 1.574 . S
C1406 H1400 0.949 . S
C1406 C1410 1.368 . S
C1407 C1388 1.429 . S
C1407 C1401 1.429 . S
C1407 C1408 1.523 . S
C1408 C1389 1.368 . S
C1408 C1402 1.368 . S
C1408 C1407 1.523 . S
C1409 C1393 1.429 . S
C1409 C1405 1.429 . S
C1409 C1410 1.523 . S
C1410 C1394 1.368 . S
C1410 C1406 1.368 . S
C1410 C1409 1.523 . S
H1411 C1386 0.950 . S
H1412 C1388 0.950 . S
H1413 C1389 0.949 . S
H1414 C1391 0.950 . S
H1415 C1393 0.950 . S
C1416 C1417 1.349 . S
C1416 C1418 1.327 . S
C1416 H1441 0.950 . S
C1417 C1416 1.349 . S
C1417 C1433 1.349 . S
C1418 C1416 1.327 . S
C1418 C1437 1.429 . S
C1418 H1442 0.950 . S
C1419 C1436 1.574 . S
C1419 C1438 1.368 . S
C1419 H1443 0.949 . S
H1420 C1424 0.949 . S
C1421 C1422 1.349 . S
C1421 C1423 1.327 . S
C1421 H1444 0.950 . S
C1422 C1421 1.349 . S
C1422 C1434 1.349 . S
C1423 C1421 1.327 . S
C1423 C1439 1.429 . S
C1423 H1445 0.950 . S
C1424 H1420 0.949 . S
C1424 C1432 1.574 . S
C1424 C1440 1.368 . S
H1425 C1433 0.950 1_455 S
H1426 C1431 0.979 . S
H1427 C1432 0.949 . S
H1428 C1434 0.950 . S
H1429 C1435 0.950 . S
H1430 C1436 0.949 . S
C1431 H1426 0.979 . S
C1431 C1433 1.327 . S
C1431 C1437 1.429 . S
C1432 C1424 1.574 . S
C1432 H1427 0.949 . S
C1432 C1438 1.368 . S
C1433 C1417 1.349 . S
C1433 H1425 0.950 1_655 S
C1433 C1431 1.327 . S
C1434 C1422 1.349 . S
C1434 H1428 0.950 . S
C1434 C1435 1.327 . S
C1435 H1429 0.950 . S
C1435 C1434 1.327 . S
C1435 C1439 1.429 . S
C1436 C1419 1.574 . S
C1436 H1430 0.949 . S
C1436 C1440 1.368 . S
C1437 C1418 1.429 . S
C1437 C1431 1.429 . S
C1437 C1438 1.523 . S
C1438 C1419 1.368 . S
C1438 C1432 1.368 . S
C1438 C1437 1.523 . S
C1439 C1423 1.429 . S
C1439 C1435 1.429 . S
C1439 C1440 1.523 . S
C1440 C1424 1.368 . S
C1440 C1436 1.368 . S
C1440 C1439 1.523 . S
H1441 C1416 0.950 . S
H1442 C1418 0.950 . S
H1443 C1419 0.949 . S
H1444 C1421 0.950 . S
H1445 C1423 0.950 . S
C1446 C1447 1.349 . S
C1446 C1448 1.327 . S
C1446 H1471 0.950 . S
C1447 C1446 1.349 . S
C1447 C1463 1.349 . S
C1448 C1446 1.327 . S
C1448 C1467 1.429 . S
C1448 H1472 0.950 . S
C1449 C1466 1.574 . S
C1449 C1468 1.368 . S
C1449 H1473 0.949 . S
H1450 C1454 0.949 . S
C1451 C1452 1.349 . S
C1451 C1453 1.327 . S
C1451 H1474 0.950 . S
C1452 C1451 1.349 . S
C1452 C1464 1.349 . S
C1453 C1451 1.327 . S
C1453 C1469 1.429 . S
C1453 H1475 0.950 . S
C1454 H1450 0.949 . S
C1454 C1462 1.574 . S
C1454 C1470 1.368 . S
H1455 C1463 0.950 . S
H1456 C1461 0.950 . S
H1457 C1462 0.949 . S
H1458 C1464 0.950 . S
H1459 C1465 0.950 . S
H1460 C1466 0.949 . S
C1461 H1456 0.950 . S
C1461 C1463 1.327 . S
C1461 C1467 1.429 . S
C1462 C1454 1.574 . S
C1462 H1457 0.949 . S
C1462 C1468 1.368 . S
C1463 C1447 1.349 . S
C1463 H1455 0.950 . S
C1463 C1461 1.327 . S
C1464 C1452 1.349 . S
C1464 H1458 0.950 . S
C1464 C1465 1.327 . S
C1465 H1459 0.950 . S
C1465 C1464 1.327 . S
C1465 C1469 1.429 . S
C1466 C1449 1.574 . S
C1466 H1460 0.949 . S
C1466 C1470 1.368 . S
C1467 C1448 1.429 . S
C1467 C1461 1.429 . S
C1467 C1468 1.523 . S
C1468 C1449 1.368 . S
C1468 C1462 1.368 . S
C1468 C1467 1.523 . S
C1469 C1453 1.429 . S
C1469 C1465 1.429 . S
C1469 C1470 1.523 . S
C1470 C1454 1.368 . S
C1470 C1466 1.368 . S
C1470 C1469 1.523 . S
H1471 C1446 0.950 . S
H1472 C1448 0.950 . S
H1473 C1449 0.949 . S
H1474 C1451 0.950 . S
H1475 C1453 0.950 . S
C1476 C1477 1.349 . S
C1476 C1478 1.327 . S
C1476 H1501 0.950 . S
C1477 C1476 1.349 . S
C1477 C1493 1.349 . S
C1478 C1476 1.327 . S
C1478 C1497 1.429 . S
C1478 H1502 0.950 . S
C1479 C1496 1.574 . S
C1479 C1498 1.368 . S
C1479 H1503 0.949 . S
H1480 C1484 0.949 . S
C1481 C1482 1.349 . S
C1481 C1483 1.327 . S
C1481 H1504 0.950 . S
C1482 C1481 1.349 . S
C1482 C1494 1.349 . S
C1483 C1481 1.327 . S
C1483 C1499 1.429 . S
C1483 H1505 0.950 . S
C1484 H1480 0.949 . S
C1484 C1492 1.574 . S
C1484 C1500 1.368 . S
H1485 C1493 0.950 . S
H1486 C1491 0.950 . S
H1487 C1492 0.949 . S
H1488 C1494 0.950 . S
H1489 C1495 0.950 . S
H1490 C1496 0.949 . S
C1491 H1486 0.950 . S
C1491 C1493 1.327 . S
C1491 C1497 1.429 . S
C1492 C1484 1.574 . S
C1492 H1487 0.949 . S
C1492 C1498 1.368 . S
C1493 C1477 1.349 . S
C1493 H1485 0.950 . S
C1493 C1491 1.327 . S
C1494 C1482 1.349 . S
C1494 H1488 0.950 . S
C1494 C1495 1.327 . S
C1495 H1489 0.950 . S
C1495 C1494 1.327 . S
C1495 C1499 1.429 . S
C1496 C1479 1.574 . S
C1496 H1490 0.949 . S
C1496 C1500 1.368 . S
C1497 C1478 1.429 . S
C1497 C1491 1.429 . S
C1497 C1498 1.523 . S
C1498 C1479 1.368 . S
C1498 C1492 1.368 . S
C1498 C1497 1.523 . S
C1499 C1483 1.429 . S
C1499 C1495 1.429 . S
C1499 C1500 1.523 . S
C1500 C1484 1.368 . S
C1500 C1496 1.368 . S
C1500 C1499 1.523 . S
H1501 C1476 0.950 . S
H1502 C1478 0.950 . S
H1503 C1479 0.949 . S
H1504 C1481 0.950 . S
H1505 C1483 0.950 . S
C1506 C1507 1.349 . S
C1506 C1508 1.327 . S
C1506 H1531 0.950 . S
C1507 C1506 1.349 . S
C1507 C1523 1.349 . S
C1508 C1506 1.327 . S
C1508 C1527 1.429 . S
C1508 H1532 0.950 1_565 S
C1509 C1526 1.574 1_565 S
C1509 C1528 1.368 1_565 S
C1509 H1533 0.949 . S
H1510 C1514 0.949 . S
C1511 C1512 1.349 . S
C1511 C1513 1.327 . S
C1511 H1534 0.950 . S
C1512 C1511 1.349 . S
C1512 C1524 1.349 . S
C1513 C1511 1.327 . S
C1513 C1529 1.429 . S
C1513 H1535 0.950 . S
C1514 H1510 0.949 . S
C1514 C1522 1.574 . S
C1514 C1530 1.368 . S
H1515 C1523 0.950 . S
H1516 C1521 0.950 . S
H1517 C1522 0.949 . S
H1518 C1524 0.950 . S
H1519 C1525 0.950 . S
H1520 C1526 0.949 . S
C1521 H1516 0.950 . S
C1521 C1523 1.327 . S
C1521 C1527 1.429 . S
C1522 C1514 1.574 . S
C1522 H1517 0.949 . S
C1522 C1528 1.368 . S
C1523 C1507 1.349 . S
C1523 H1515 0.950 . S
C1523 C1521 1.327 . S
C1524 C1512 1.349 . S
C1524 H1518 0.950 . S
C1524 C1525 1.327 . S
C1525 H1519 0.950 . S
C1525 C1524 1.327 . S
C1525 C1529 1.429 . S
C1526 C1509 1.574 1_545 S
C1526 H1520 0.949 . S
C1526 C1530 1.368 . S
C1527 C1508 1.429 . S
C1527 C1521 1.429 . S
C1527 C1528 1.523 1_565 S
C1528 C1509 1.368 1_545 S
C1528 C1522 1.368 . S
C1528 C1527 1.523 1_545 S
C1529 C1513 1.429 . S
C1529 C1525 1.429 . S
C1529 C1530 1.523 . S
C1530 C1514 1.368 . S
C1530 C1526 1.368 . S
C1530 C1529 1.523 . S
H1531 C1506 0.950 . S
H1532 C1508 0.950 1_545 S
H1533 C1509 0.949 . S
H1534 C1511 0.950 . S
H1535 C1513 0.950 . S
C1536 C1537 1.349 . S
C1536 C1538 1.327 . S
C1536 H1561 0.950 . S
C1537 C1536 1.349 . S
C1537 C1553 1.349 . S
C1538 C1536 1.327 . S
C1538 C1557 1.429 . S
C1538 H1562 0.950 . S
C1539 C1556 1.574 . S
C1539 C1558 1.368 . S
C1539 H1563 0.949 . S
H1540 C1544 0.949 . S
C1541 C1542 1.349 . S
C1541 C1543 1.327 . S
C1541 H1564 0.950 . S
C1542 C1541 1.349 . S
C1542 C1554 1.349 . S
C1543 C1541 1.327 . S
C1543 C1559 1.429 . S
C1543 H1565 0.977 . S
C1544 H1540 0.949 . S
C1544 C1552 1.567 1_455 S
C1544 C1560 1.368 . S
H1545 C1553 0.950 . S
H1546 C1551 0.950 . S
H1547 C1552 0.948 1_455 S
H1548 C1554 0.950 . S
H1549 C1555 0.950 . S
H1550 C1556 0.949 . S
C1551 H1546 0.950 . S
C1551 C1553 1.327 . S
C1551 C1557 1.429 . S
C1552 C1544 1.567 1_655 S
C1552 H1547 0.948 1_655 S
C1552 C1558 1.377 . S
C1553 C1537 1.349 . S
C1553 H1545 0.950 . S
C1553 C1551 1.327 . S
C1554 C1542 1.349 . S
C1554 H1548 0.950 . S
C1554 C1555 1.327 . S
C1555 H1549 0.950 . S
C1555 C1554 1.327 . S
C1555 C1559 1.429 . S
C1556 C1539 1.574 . S
C1556 H1550 0.949 . S
C1556 C1560 1.368 1_655 S
C1557 C1538 1.429 . S
C1557 C1551 1.429 . S
C1557 C1558 1.523 . S
C1558 C1539 1.368 . S
C1558 C1552 1.377 . S
C1558 C1557 1.523 . S
C1559 C1543 1.429 . S
C1559 C1555 1.429 . S
C1559 C1560 1.523 . S
C1560 C1544 1.368 . S
C1560 C1556 1.368 1_455 S
C1560 C1559 1.523 . S
H1561 C1536 0.950 . S
H1562 C1538 0.950 . S
H1563 C1539 0.949 . S
H1564 C1541 0.950 . S
H1565 C1543 0.977 . S
C757 C139 1.094 . S
C762 C58 0.971 . S
C787 C223 1.094 . S
C792 C142 0.971 . S
C817 C226 0.971 . S
C822 C55 1.094 . S
C847 C235 1.420 . S
C852 C154 1.223 . S
C877 C238 1.223 . S
C882 C67 1.421 . S
C907 C70 1.223 . S
C912 C151 1.421 . S
C937 C310 0.971 . S
C942 C391 1.094 . S
C967 C475 1.094 . S
C972 C394 0.971 . S
C997 C478 0.971 . S
C1002 C307 1.094 . S
C1027 C406 1.223 . S
C1032 C487 1.421 . S
C1057 C490 1.223 . S
C1062 C319 1.421 . S
C1087 C403 1.421 . S
C1092 C322 1.223 . S
C1117 C643 1.094 . S
C1122 C562 0.971 . S
C1147 C646 0.971 . S
C1152 C727 1.094 . S
C1177 C730 0.971 . S
C1182 C559 1.094 . S
C1207 C739 1.421 . S
C1212 C658 1.223 . S
C1237 C742 1.223 . S
C1242 C571 1.421 . S
C1267 C574 1.223 . S
C1272 C655 1.421 . S
C1297 C476 2.458 . S
C1302 C68 2.585 . S
C1327 C308 2.458 . S
C1332 C152 2.585 . S
C1357 C236 2.585 . S
C1362 C392 2.458 . S
C1387 C224 2.458 . S
C1392 C572 2.585 . S
C1417 C56 2.458 . S
C1422 C656 2.585 . S
C1447 C740 2.585 . S
C1452 C140 2.458 . S
C1477 C320 2.585 . S
C1482 C728 2.458 . S
C1507 C404 2.585 . S
C1512 C560 2.458 . S
C1537 C644 2.458 . S
C1542 C488 2.585 . S
