# Generated by pormake.
# Topology wgr, (5)-cn, num edge types: 1
# Building blocks:
#     Node 0, Type 0, BuildingBlock: BEQFEK_clean_sbu_0, # of connection points: 5
#     Node 1, Type 0, BuildingBlock: BEQFEK_clean_sbu_0, # of connection points: 5
#     Node 2, Type 0, BuildingBlock: BEQFEK_clean_sbu_0, # of connection points: 5
#     Node 3, Type 0, BuildingBlock: BEQFEK_clean_sbu_0, # of connection points: 5
#     Node 4, Type 0, BuildingBlock: BEQFEK_clean_sbu_0, # of connection points: 5
#     Node 5, Type 0, BuildingBlock: BEQFEK_clean_sbu_0, # of connection points: 5
#     Node 6, Type 0, BuildingBlock: BEQFEK_clean_sbu_0, # of connection points: 5
#     Node 7, Type 0, BuildingBlock: BEQFEK_clean_sbu_0, # of connection points: 5
#     Node 8, Type 0, BuildingBlock: BEQFEK_clean_sbu_0, # of connection points: 5
#     Node 9, Type 0, BuildingBlock: BEQFEK_clean_sbu_0, # of connection points: 5
#     Node 10, Type 0, BuildingBlock: BEQFEK_clean_sbu_0, # of connection points: 5
#     Node 11, Type 0, BuildingBlock: BEQFEK_clean_sbu_0, # of connection points: 5
#     Node 12, Type 0, BuildingBlock: BEQFEK_clean_sbu_0, # of connection points: 5
#     Node 13, Type 0, BuildingBlock: BEQFEK_clean_sbu_0, # of connection points: 5
#     Node 14, Type 0, BuildingBlock: BEQFEK_clean_sbu_0, # of connection points: 5
#     Node 15, Type 0, BuildingBlock: BEQFEK_clean_sbu_0, # of connection points: 5
#     Node 16, Type 0, BuildingBlock: BEQFEK_clean_sbu_0, # of connection points: 5
#     Node 17, Type 0, BuildingBlock: BEQFEK_clean_sbu_0, # of connection points: 5
#     Node 18, Type 0, BuildingBlock: BEQFEK_clean_sbu_0, # of connection points: 5
#     Node 19, Type 0, BuildingBlock: BEQFEK_clean_sbu_0, # of connection points: 5
#     Node 20, Type 0, BuildingBlock: BEQFEK_clean_sbu_0, # of connection points: 5
#     Node 21, Type 0, BuildingBlock: BEQFEK_clean_sbu_0, # of connection points: 5
#     Node 22, Type 0, BuildingBlock: BEQFEK_clean_sbu_0, # of connection points: 5
#     Node 23, Type 0, BuildingBlock: BEQFEK_clean_sbu_0, # of connection points: 5
#     Node 24, Type 0, BuildingBlock: BEQFEK_clean_sbu_0, # of connection points: 5
#     Node 25, Type 0, BuildingBlock: BEQFEK_clean_sbu_0, # of connection points: 5
#     Node 26, Type 0, BuildingBlock: BEQFEK_clean_sbu_0, # of connection points: 5
#     Node 27, Type 0, BuildingBlock: BEQFEK_clean_sbu_0, # of connection points: 5
#     Node 28, Type 0, BuildingBlock: BEQFEK_clean_sbu_0, # of connection points: 5
#     Node 29, Type 0, BuildingBlock: BEQFEK_clean_sbu_0, # of connection points: 5
#     Node 30, Type 0, BuildingBlock: BEQFEK_clean_sbu_0, # of connection points: 5
#     Node 31, Type 0, BuildingBlock: BEQFEK_clean_sbu_0, # of connection points: 5
#     Edge 32, Type (0, 0), BuildingBlock: CIFDUS_clean_linker_0, # of connection points: 2
#     Edge 33, Type (0, 0), BuildingBlock: CIFDUS_clean_linker_0, # of connection points: 2
#     Edge 34, Type (0, 0), BuildingBlock: CIFDUS_clean_linker_0, # of connection points: 2
#     Edge 35, Type (0, 0), BuildingBlock: CIFDUS_clean_linker_0, # of connection points: 2
#     Edge 36, Type (0, 0), BuildingBlock: CIFDUS_clean_linker_0, # of connection points: 2
#     Edge 37, Type (0, 0), BuildingBlock: CIFDUS_clean_linker_0, # of connection points: 2
#     Edge 38, Type (0, 0), BuildingBlock: CIFDUS_clean_linker_0, # of connection points: 2
#     Edge 39, Type (0, 0), BuildingBlock: CIFDUS_clean_linker_0, # of connection points: 2
#     Edge 40, Type (0, 0), BuildingBlock: CIFDUS_clean_linker_0, # of connection points: 2
#     Edge 41, Type (0, 0), BuildingBlock: CIFDUS_clean_linker_0, # of connection points: 2
#     Edge 42, Type (0, 0), BuildingBlock: CIFDUS_clean_linker_0, # of connection points: 2
#     Edge 43, Type (0, 0), BuildingBlock: CIFDUS_clean_linker_0, # of connection points: 2
#     Edge 44, Type (0, 0), BuildingBlock: CIFDUS_clean_linker_0, # of connection points: 2
#     Edge 45, Type (0, 0), BuildingBlock: CIFDUS_clean_linker_0, # of connection points: 2
#     Edge 46, Type (0, 0), BuildingBlock: CIFDUS_clean_linker_0, # of connection points: 2
#     Edge 47, Type (0, 0), BuildingBlock: CIFDUS_clean_linker_0, # of connection points: 2
#     Edge 48, Type (0, 0), BuildingBlock: CIFDUS_clean_linker_0, # of connection points: 2
#     Edge 49, Type (0, 0), BuildingBlock: CIFDUS_clean_linker_0, # of connection points: 2
#     Edge 50, Type (0, 0), BuildingBlock: CIFDUS_clean_linker_0, # of connection points: 2
#     Edge 51, Type (0, 0), BuildingBlock: CIFDUS_clean_linker_0, # of connection points: 2
#     Edge 52, Type (0, 0), BuildingBlock: CIFDUS_clean_linker_0, # of connection points: 2
#     Edge 53, Type (0, 0), BuildingBlock: CIFDUS_clean_linker_0, # of connection points: 2
#     Edge 54, Type (0, 0), BuildingBlock: CIFDUS_clean_linker_0, # of connection points: 2
#     Edge 55, Type (0, 0), BuildingBlock: CIFDUS_clean_linker_0, # of connection points: 2
#     Edge 56, Type (0, 0), BuildingBlock: CIFDUS_clean_linker_0, # of connection points: 2
#     Edge 57, Type (0, 0), BuildingBlock: CIFDUS_clean_linker_0, # of connection points: 2
#     Edge 58, Type (0, 0), BuildingBlock: CIFDUS_clean_linker_0, # of connection points: 2
#     Edge 59, Type (0, 0), BuildingBlock: CIFDUS_clean_linker_0, # of connection points: 2
#     Edge 60, Type (0, 0), BuildingBlock: CIFDUS_clean_linker_0, # of connection points: 2
#     Edge 61, Type (0, 0), BuildingBlock: CIFDUS_clean_linker_0, # of connection points: 2
#     Edge 62, Type (0, 0), BuildingBlock: CIFDUS_clean_linker_0, # of connection points: 2
#     Edge 63, Type (0, 0), BuildingBlock: CIFDUS_clean_linker_0, # of connection points: 2
#     Edge 64, Type (0, 0), BuildingBlock: CIFDUS_clean_linker_0, # of connection points: 2
#     Edge 65, Type (0, 0), BuildingBlock: CIFDUS_clean_linker_0, # of connection points: 2
#     Edge 66, Type (0, 0), BuildingBlock: CIFDUS_clean_linker_0, # of connection points: 2
#     Edge 67, Type (0, 0), BuildingBlock: CIFDUS_clean_linker_0, # of connection points: 2
#     Edge 68, Type (0, 0), BuildingBlock: CIFDUS_clean_linker_0, # of connection points: 2
#     Edge 69, Type (0, 0), BuildingBlock: CIFDUS_clean_linker_0, # of connection points: 2
#     Edge 70, Type (0, 0), BuildingBlock: CIFDUS_clean_linker_0, # of connection points: 2
#     Edge 71, Type (0, 0), BuildingBlock: CIFDUS_clean_linker_0, # of connection points: 2
#     Edge 72, Type (0, 0), BuildingBlock: CIFDUS_clean_linker_0, # of connection points: 2
#     Edge 73, Type (0, 0), BuildingBlock: CIFDUS_clean_linker_0, # of connection points: 2
#     Edge 74, Type (0, 0), BuildingBlock: CIFDUS_clean_linker_0, # of connection points: 2
#     Edge 75, Type (0, 0), BuildingBlock: CIFDUS_clean_linker_0, # of connection points: 2
#     Edge 76, Type (0, 0), BuildingBlock: CIFDUS_clean_linker_0, # of connection points: 2
#     Edge 77, Type (0, 0), BuildingBlock: CIFDUS_clean_linker_0, # of connection points: 2
#     Edge 78, Type (0, 0), BuildingBlock: CIFDUS_clean_linker_0, # of connection points: 2
#     Edge 79, Type (0, 0), BuildingBlock: CIFDUS_clean_linker_0, # of connection points: 2
#     Edge 80, Type (0, 0), BuildingBlock: CIFDUS_clean_linker_0, # of connection points: 2
#     Edge 81, Type (0, 0), BuildingBlock: CIFDUS_clean_linker_0, # of connection points: 2
#     Edge 82, Type (0, 0), BuildingBlock: CIFDUS_clean_linker_0, # of connection points: 2
#     Edge 83, Type (0, 0), BuildingBlock: CIFDUS_clean_linker_0, # of connection points: 2
#     Edge 84, Type (0, 0), BuildingBlock: CIFDUS_clean_linker_0, # of connection points: 2
#     Edge 85, Type (0, 0), BuildingBlock: CIFDUS_clean_linker_0, # of connection points: 2
#     Edge 86, Type (0, 0), BuildingBlock: CIFDUS_clean_linker_0, # of connection points: 2
#     Edge 87, Type (0, 0), BuildingBlock: CIFDUS_clean_linker_0, # of connection points: 2
#     Edge 88, Type (0, 0), BuildingBlock: CIFDUS_clean_linker_0, # of connection points: 2
#     Edge 89, Type (0, 0), BuildingBlock: CIFDUS_clean_linker_0, # of connection points: 2
#     Edge 90, Type (0, 0), BuildingBlock: CIFDUS_clean_linker_0, # of connection points: 2
#     Edge 91, Type (0, 0), BuildingBlock: CIFDUS_clean_linker_0, # of connection points: 2
#     Edge 92, Type (0, 0), BuildingBlock: CIFDUS_clean_linker_0, # of connection points: 2
#     Edge 93, Type (0, 0), BuildingBlock: CIFDUS_clean_linker_0, # of connection points: 2
#     Edge 94, Type (0, 0), BuildingBlock: CIFDUS_clean_linker_0, # of connection points: 2
#     Edge 95, Type (0, 0), BuildingBlock: CIFDUS_clean_linker_0, # of connection points: 2
#     Edge 96, Type (0, 0), BuildingBlock: CIFDUS_clean_linker_0, # of connection points: 2
#     Edge 97, Type (0, 0), BuildingBlock: CIFDUS_clean_linker_0, # of connection points: 2
#     Edge 98, Type (0, 0), BuildingBlock: CIFDUS_clean_linker_0, # of connection points: 2
#     Edge 99, Type (0, 0), BuildingBlock: CIFDUS_clean_linker_0, # of connection points: 2
#     Edge 100, Type (0, 0), BuildingBlock: CIFDUS_clean_linker_0, # of connection points: 2
#     Edge 101, Type (0, 0), BuildingBlock: CIFDUS_clean_linker_0, # of connection points: 2
#     Edge 102, Type (0, 0), BuildingBlock: CIFDUS_clean_linker_0, # of connection points: 2
#     Edge 103, Type (0, 0), BuildingBlock: CIFDUS_clean_linker_0, # of connection points: 2
#     Edge 104, Type (0, 0), BuildingBlock: CIFDUS_clean_linker_0, # of connection points: 2
#     Edge 105, Type (0, 0), BuildingBlock: CIFDUS_clean_linker_0, # of connection points: 2
#     Edge 106, Type (0, 0), BuildingBlock: CIFDUS_clean_linker_0, # of connection points: 2
#     Edge 107, Type (0, 0), BuildingBlock: CIFDUS_clean_linker_0, # of connection points: 2
#     Edge 108, Type (0, 0), BuildingBlock: CIFDUS_clean_linker_0, # of connection points: 2
#     Edge 109, Type (0, 0), BuildingBlock: CIFDUS_clean_linker_0, # of connection points: 2
#     Edge 110, Type (0, 0), BuildingBlock: CIFDUS_clean_linker_0, # of connection points: 2
#     Edge 111, Type (0, 0), BuildingBlock: CIFDUS_clean_linker_0, # of connection points: 2
# Relax obj value: 0.166
# Max RMSD: 0.223
# Mean RMSD: 0.223
data_MOF--net-wgr--node1-BEQFEK_clean_sbu_0--edge1-CIFDUS_clean_linker_0
_symmetry_space_group_name_H-M    P1
_symmetry_Int_Tables_number       1
_symmetry_cell_setting            triclinic
loop_
_symmetry_equiv_pos_as_xyz
'x, y, z'
_cell_length_a     24.376158
_cell_length_b     24.363452
_cell_length_c     139.04483
_cell_angle_alpha  90.09135
_cell_angle_beta   89.933887
_cell_angle_gamma 89.982152
loop_
_atom_site_label
_atom_site_type_symbol
_atom_site_fract_x
_atom_site_fract_y
_atom_site_fract_z
_atom_type_partial_charge
Co0 Co 0.36691 0.02336 0.20808 0.0
Co1 Co 0.349 0.02694 0.18547 0.0
C2 C 0.26657 0.07509 0.19819 0.0
O3 O 0.29642 0.06206 0.20538 0.0
O4 O 0.27979 0.06118 0.18966 0.0
C5 C 0.32781 0.99656 0.22705 0.0
O6 O 0.28069 0.99275 0.22252 0.0
C7 C 0.31783 0.01516 0.16462 0.0
C8 C 0.40056 0.01831 0.15812 0.0
C9 C 0.34553 0.01356 0.15588 0.0
N10 N 0.35513 0.02023 0.17173 0.0
N11 N 0.40436 0.02215 0.16775 0.0
C12 C 0.257 0.0146 0.16609 0.0
H13 H 0.24598 0.03285 0.17313 0.0
H14 H 0.24207 0.97162 0.16594 0.0
H15 H 0.23625 0.03729 0.16021 0.0
C16 C 0.38148 0.90496 0.20351 0.0
N17 N 0.37305 0.9574 0.20081 0.0
N18 N 0.36116 0.95851 0.1916 0.0
C19 C 0.35917 0.90675 0.18821 0.0
C20 C 0.37258 0.87055 0.19561 0.0
C21 C 0.39831 0.88885 0.21346 0.0
H22 H 0.42594 0.92049 0.21653 0.0
H23 H 0.36134 0.88627 0.2181 0.0
H24 H 0.41957 0.84856 0.21344 0.0
O25 O 0.42395 0.07758 0.2046 0.0
O26 O 0.40647 0.08102 0.18895 0.0
H27 H 0.37099 0.8931 0.17315 0.0
H28 H 0.31702 0.85183 0.1784 0.0
C29 C 0.33703 0.89266 0.17848 0.0
H30 H 0.30617 0.92351 0.17633 0.0
H31 H 0.44076 0.02631 0.17162 0.0
O32 O 0.37072 0.00849 0.22225 0.0
C33 C 0.43238 0.09812 0.19631 0.0
Co34 Co 0.21841 0.11296 0.45896 0.0
Co35 Co 0.22797 0.10488 0.43634 0.0
C36 C 0.17391 0.01689 0.44674 0.0
O37 O 0.18246 0.04445 0.45442 0.0
O38 O 0.1925 0.03291 0.43863 0.0
C39 C 0.24055 0.07032 0.47789 0.0
O40 O 0.25552 0.0261 0.47314 0.0
C41 C 0.25619 0.08437 0.41547 0.0
C42 C 0.27398 0.16968 0.41112 0.0
C43 C 0.27381 0.1162 0.40772 0.0
N44 N 0.24688 0.11786 0.42306 0.0
N45 N 0.25708 0.16873 0.42032 0.0
C46 C 0.25268 0.02315 0.41592 0.0
H47 H 0.25479 0.00877 0.42347 0.0
H48 H 0.28624 0.0042 0.41165 0.0
H49 H 0.21294 0.00981 0.41281 0.0
C50 C 0.33657 0.12827 0.4574 0.0
N51 N 0.28709 0.12267 0.4533 0.0
N52 N 0.29286 0.11293 0.44407 0.0
C53 C 0.34698 0.10841 0.4421 0.0
C54 C 0.37675 0.11782 0.45054 0.0
C55 C 0.34491 0.14438 0.4677 0.0
H56 H 0.31197 0.17295 0.47001 0.0
H57 H 0.34305 0.10746 0.47232 0.0
H58 H 0.38546 0.16432 0.46869 0.0
O59 O 0.1699 0.17196 0.45546 0.0
O60 O 0.16853 0.16036 0.43961 0.0
H61 H 0.37589 0.12363 0.42786 0.0
H62 H 0.40794 0.06551 0.4336 0.0
C63 C 0.36882 0.0881 0.43268 0.0
H64 H 0.33862 0.06043 0.42925 0.0
H65 H 0.2539 0.20282 0.42484 0.0
O66 O 0.22355 0.11183 0.47323 0.0
C67 C 0.15055 0.18353 0.44725 0.0
Co68 Co 0.12657 0.96057 0.70794 0.0
Co69 Co 0.14837 0.96489 0.68563 0.0
C70 C 0.22566 0.90699 0.69789 0.0
O71 O 0.19427 0.91914 0.7049 0.0
O72 O 0.21592 0.92484 0.68944 0.0
C73 C 0.17163 0.98583 0.72579 0.0
O74 O 0.21383 0.99406 0.72009 0.0
C75 C 0.18539 0.98383 0.66548 0.0
C76 C 0.10672 0.0082 0.65884 0.0
C77 C 0.16206 0.00167 0.65691 0.0
N78 N 0.14561 0.98101 0.67219 0.0
N79 N 0.09871 0.99512 0.66813 0.0
C80 C 0.24383 0.96788 0.66724 0.0
H81 H 0.24546 0.93105 0.67189 0.0
H82 H 0.26518 0.00181 0.67102 0.0
H83 H 0.26551 0.95885 0.66039 0.0
C84 C 0.11874 0.07988 0.70526 0.0
N85 N 0.12467 0.02884 0.70172 0.0
N86 N 0.1395 0.03153 0.69266 0.0
C87 C 0.14634 0.08471 0.69025 0.0
C88 C 0.13316 0.1175 0.69817 0.0
C89 C 0.09877 0.092 0.71523 0.0
H90 H 0.06883 0.06029 0.71752 0.0
H91 H 0.13384 0.09115 0.7203 0.0
H92 H 0.07923 0.13312 0.71558 0.0
O93 O 0.06757 0.91232 0.70366 0.0
O94 O 0.08718 0.91174 0.68802 0.0
H95 H 0.13967 0.10884 0.67553 0.0
H96 H 0.19523 0.14166 0.6819 0.0
C97 C 0.17217 0.10277 0.68101 0.0
H98 H 0.2009 0.07091 0.67838 0.0
H99 H 0.06129 0.99685 0.67177 0.0
O100 O 0.12626 0.97086 0.72212 0.0
C101 C 0.05952 0.89424 0.69518 0.0
Co102 Co 0.269 0.90608 0.9587 0.0
Co103 Co 0.28259 0.8995 0.93608 0.0
C104 C 0.32407 0.99543 0.94778 0.0
O105 O 0.30653 0.97533 0.95565 0.0
O106 O 0.31575 0.97141 0.93975 0.0
C107 C 0.26765 0.93707 0.97878 0.0
O108 O 0.30076 0.97618 0.97585 0.0
C109 C 0.25739 0.93197 0.91614 0.0
C110 C 0.28647 0.85992 0.90793 0.0
C111 C 0.26096 0.9104 0.90689 0.0
N112 N 0.27886 0.8954 0.92233 0.0
N113 N 0.29662 0.85267 0.91736 0.0
C114 C 0.23585 0.98714 0.91906 0.0
H115 H 0.2425 0.01759 0.91324 0.0
H116 H 0.25601 0.00143 0.92573 0.0
H117 H 0.19121 0.9843 0.9205 0.0
C118 C 0.15204 0.89988 0.9529 0.0
N119 N 0.20602 0.89718 0.95087 0.0
N120 N 0.2124 0.88794 0.94163 0.0
C121 C 0.16282 0.87997 0.9376 0.0
C122 C 0.12237 0.88882 0.94453 0.0
C123 C 0.13023 0.92049 0.96231 0.0
H124 H 0.16173 0.94514 0.96609 0.0
H125 H 0.09339 0.94649 0.96124 0.0
H126 H 0.11892 0.88499 0.96689 0.0
O127 O 0.32559 0.84787 0.95654 0.0
O128 O 0.33536 0.8449 0.94065 0.0
H129 H 0.18866 0.83225 0.92541 0.0
H130 H 0.11508 0.83773 0.92683 0.0
C131 C 0.15461 0.86001 0.92751 0.0
H132 H 0.15415 0.89516 0.92249 0.0
H133 H 0.31496 0.81818 0.92042 0.0
O134 O 0.24891 0.90305 0.97265 0.0
C135 C 0.3494 0.82942 0.94903 0.0
Co136 Co 0.33781 0.95452 0.30287 0.0
Co137 Co 0.34431 0.97255 0.32552 0.0
C138 C 0.25154 0.91163 0.3167 0.0
O139 O 0.27009 0.9188 0.30819 0.0
O140 O 0.27573 0.93172 0.32401 0.0
C141 C 0.28854 0.95831 0.28392 0.0
O142 O 0.24244 0.95699 0.28882 0.0
C143 C 0.31865 0.99685 0.3461 0.0
C144 C 0.40063 0.01948 0.35154 0.0
C145 C 0.34645 0.01319 0.35439 0.0
N146 N 0.35496 0.99344 0.33878 0.0
N147 N 0.40384 0.00691 0.34213 0.0
C148 C 0.25818 0.98886 0.3449 0.0
H149 H 0.24564 0.9988 0.33744 0.0
H150 H 0.2349 0.01518 0.34999 0.0
H151 H 0.2479 0.94526 0.34632 0.0
C152 C 0.35067 0.0745 0.30335 0.0
N153 N 0.34861 0.02599 0.30792 0.0
N154 N 0.34539 0.03452 0.31723 0.0
C155 C 0.3414 0.08897 0.31886 0.0
C156 C 0.34479 0.11662 0.31008 0.0
C157 C 0.35965 0.07971 0.29273 0.0
H158 H 0.38911 0.04794 0.29027 0.0
H159 H 0.32027 0.07293 0.28892 0.0
H160 H 0.37599 0.12083 0.29085 0.0
O161 O 0.39818 0.90569 0.30642 0.0
O162 O 0.40312 0.91814 0.32224 0.0
H163 H 0.36456 0.12426 0.33235 0.0
H164 H 0.30028 0.14969 0.32768 0.0
C165 C 0.32652 0.1128 0.32846 0.0
H166 H 0.30383 0.08232 0.3328 0.0
H167 H 0.43945 0.00774 0.33796 0.0
O168 O 0.33381 0.95716 0.28846 0.0
C169 C 0.41903 0.89415 0.31456 0.0
Co170 Co 0.29289 0.08854 0.55329 0.0
Co171 Co 0.28561 0.10726 0.57563 0.0
C172 C 0.33798 0.00608 0.56628 0.0
O173 O 0.32343 0.01888 0.55781 0.0
O174 O 0.3262 0.03675 0.57344 0.0
C175 C 0.31025 0.04958 0.53398 0.0
O176 O 0.34245 0.01421 0.53832 0.0
C177 C 0.24523 0.07644 0.59475 0.0
C178 C 0.27312 0.1463 0.60364 0.0
C179 C 0.24616 0.0963 0.60413 0.0
N180 N 0.27022 0.11319 0.58903 0.0
N181 N 0.28666 0.15491 0.59438 0.0
C182 C 0.22418 0.02216 0.59131 0.0
H183 H 0.23322 0.98961 0.59665 0.0
H184 H 0.24247 0.01134 0.58425 0.0
H185 H 0.17907 0.0246 0.59037 0.0
C186 C 0.17187 0.09995 0.5555 0.0
N187 N 0.22327 0.10131 0.55904 0.0
N188 N 0.22121 0.11434 0.5682 0.0
C189 C 0.1691 0.12616 0.57062 0.0
C190 C 0.13518 0.11619 0.56272 0.0
C191 C 0.15849 0.07666 0.54581 0.0
H192 H 0.19171 0.04896 0.54333 0.0
H193 H 0.11965 0.05299 0.54602 0.0
H194 H 0.1542 0.11067 0.54056 0.0
O195 O 0.34928 0.14613 0.55675 0.0
O196 O 0.3371 0.1647 0.57228 0.0
H197 H 0.11537 0.17573 0.57945 0.0
H198 H 0.14682 0.1181 0.58546 0.0
C199 C 0.15345 0.15103 0.5801 0.0
H200 H 0.18702 0.17779 0.58275 0.0
H201 H 0.30788 0.18886 0.59173 0.0
O202 O 0.28562 0.08586 0.53897 0.0
C203 C 0.36187 0.17275 0.56437 0.0
Co204 Co 0.12548 0.03052 0.80256 0.0
Co205 Co 0.146 0.01863 0.82487 0.0
C206 C 0.22729 0.07484 0.81275 0.0
O207 O 0.19649 0.0664 0.80548 0.0
O208 O 0.2148 0.0563 0.82104 0.0
C209 C 0.15781 0.02438 0.78282 0.0
O210 O 0.20726 0.02715 0.78653 0.0
C211 C 0.18692 0.99782 0.8447 0.0
C212 C 0.11083 0.96895 0.85171 0.0
C213 C 0.16593 0.97883 0.85339 0.0
N214 N 0.14605 0.99843 0.83819 0.0
N215 N 0.10074 0.9813 0.84246 0.0
C216 C 0.2437 0.01822 0.8427 0.0
H217 H 0.2414 0.05815 0.83891 0.0
H218 H 0.26507 0.98868 0.8379 0.0
H219 H 0.26766 0.02381 0.8494 0.0
C220 C 0.11815 0.9112 0.80386 0.0
N221 N 0.12121 0.96064 0.80811 0.0
N222 N 0.13475 0.95454 0.81718 0.0
C223 C 0.1435 0.90071 0.81889 0.0
C224 C 0.13335 0.87121 0.81045 0.0
C225 C 0.10311 0.90292 0.79352 0.0
H226 H 0.06941 0.9313 0.79152 0.0
H227 H 0.13908 0.91225 0.78891 0.0
H228 H 0.08989 0.86001 0.79216 0.0
O229 O 0.07025 0.08002 0.80764 0.0
O230 O 0.08665 0.07548 0.82334 0.0
H231 H 0.13731 0.8732 0.83342 0.0
H232 H 0.19151 0.8404 0.82668 0.0
C233 C 0.1696 0.87966 0.8279 0.0
H234 H 0.19914 0.91029 0.83071 0.0
H235 H 0.06286 0.97783 0.83902 0.0
O236 O 0.11645 0.02561 0.78839 0.0
C237 C 0.06136 0.0963 0.81619 0.0
Co238 Co 0.19921 0.9029 0.05368 0.0
Co239 Co 0.2116 0.90546 0.07634 0.0
C240 C 0.16006 0.99809 0.06613 0.0
O241 O 0.16775 0.97434 0.05806 0.0
O242 O 0.17677 0.97689 0.07398 0.0
C243 C 0.22634 0.95052 0.03587 0.0
O244 O 0.24123 0.98997 0.04177 0.0
C245 C 0.22981 0.9304 0.09705 0.0
C246 C 0.24798 0.84732 0.10257 0.0
C247 C 0.24197 0.90148 0.1054 0.0
N248 N 0.22893 0.89474 0.08964 0.0
N249 N 0.23991 0.84526 0.09301 0.0
C250 C 0.21533 0.98987 0.09616 0.0
H251 H 0.17436 0.99367 0.09277 0.0
H252 H 0.24541 0.01036 0.09137 0.0
H253 H 0.21442 0.01082 0.10324 0.0
C254 C 0.31815 0.8816 0.05525 0.0
N255 N 0.26858 0.88874 0.05932 0.0
N256 N 0.27479 0.89669 0.06859 0.0
C257 C 0.32872 0.89902 0.07064 0.0
C258 C 0.35858 0.8892 0.06222 0.0
C259 C 0.32604 0.86592 0.04492 0.0
H260 H 0.29146 0.83979 0.04248 0.0
H261 H 0.32674 0.90332 0.0404 0.0
H262 H 0.36525 0.84344 0.04391 0.0
O263 O 0.14429 0.84807 0.05749 0.0
O264 O 0.15409 0.84998 0.0734 0.0
H265 H 0.36066 0.88336 0.08469 0.0
H266 H 0.38739 0.94475 0.07914 0.0
C267 C 0.35024 0.9191 0.0801 0.0
H268 H 0.31884 0.94414 0.08383 0.0
H269 H 0.24128 0.80988 0.08877 0.0
O270 O 0.20611 0.90678 0.03938 0.0
C271 C 0.13027 0.83225 0.06587 0.0
Co272 Co 0.62799 0.96305 0.80613 0.0
Co273 Co 0.65077 0.95659 0.82865 0.0
C274 C 0.73036 0.90994 0.81524 0.0
O275 O 0.69856 0.92487 0.80845 0.0
O276 O 0.71982 0.92217 0.82398 0.0
C277 C 0.66369 0.0066 0.78831 0.0
O278 O 0.70312 0.02443 0.79395 0.0
C279 C 0.68328 0.97071 0.84954 0.0
C280 C 0.60099 0.96486 0.85614 0.0
C281 C 0.6558 0.97224 0.85833 0.0
N282 N 0.64599 0.96317 0.84248 0.0
N283 N 0.59706 0.95966 0.84654 0.0
C284 C 0.74394 0.97355 0.84798 0.0
H285 H 0.75493 0.95852 0.8407 0.0
H286 H 0.75784 0.0167 0.8487 0.0
H287 H 0.76549 0.94902 0.85354 0.0
C288 C 0.60928 0.07926 0.81119 0.0
N289 N 0.62128 0.02725 0.81366 0.0
N290 N 0.63692 0.02591 0.82269 0.0
C291 C 0.63878 0.07769 0.8261 0.0
C292 C 0.62086 0.11375 0.81895 0.0
C293 C 0.58443 0.09461 0.80172 0.0
H294 H 0.55901 0.06029 0.79895 0.0
H295 H 0.61741 0.10274 0.79642 0.0
H296 H 0.55873 0.13202 0.80245 0.0
O297 O 0.57308 0.90845 0.80968 0.0
O298 O 0.59291 0.90133 0.82525 0.0
H299 H 0.63229 0.09292 0.84121 0.0
H300 H 0.68508 0.13261 0.83528 0.0
C301 C 0.66439 0.09214 0.83555 0.0
H302 H 0.69538 0.06091 0.83746 0.0
H303 H 0.56069 0.95374 0.84272 0.0
O304 O 0.62461 0.97915 0.79201 0.0
C305 C 0.56635 0.88576 0.81783 0.0
Co306 Co 0.78356 0.9162 0.55577 0.0
Co307 Co 0.79702 0.89451 0.5781 0.0
C308 C 0.8404 0.99671 0.56789 0.0
O309 O 0.82199 0.9849 0.55956 0.0
O310 O 0.83174 0.96525 0.57503 0.0
C311 C 0.80234 0.91767 0.53558 0.0
O312 O 0.85337 0.91614 0.5386 0.0
C313 C 0.77637 0.93112 0.59773 0.0
C314 C 0.80617 0.86217 0.60657 0.0
C315 C 0.78331 0.91432 0.60726 0.0
N316 N 0.7944 0.89109 0.59186 0.0
N317 N 0.81237 0.85 0.59717 0.0
C318 C 0.75042 0.98266 0.59404 0.0
H319 H 0.73771 0.97748 0.58644 0.0
H320 H 0.7141 0.99379 0.59845 0.0
H321 H 0.78072 0.01659 0.59435 0.0
C322 C 0.66607 0.90755 0.56165 0.0
N323 N 0.72016 0.90318 0.56352 0.0
N324 N 0.72654 0.88911 0.57258 0.0
C325 C 0.67696 0.8816 0.57664 0.0
C326 C 0.63667 0.89407 0.56993 0.0
C327 C 0.64368 0.9308 0.5525 0.0
H328 H 0.67457 0.95751 0.54899 0.0
H329 H 0.60587 0.95497 0.55386 0.0
H330 H 0.6335 0.8966 0.54754 0.0
O331 O 0.83975 0.85681 0.55726 0.0
O332 O 0.84765 0.83929 0.57291 0.0
H333 H 0.62795 0.84131 0.58745 0.0
H334 H 0.66913 0.89743 0.59174 0.0
C335 C 0.6683 0.86203 0.58673 0.0
H336 H 0.70142 0.83316 0.5888 0.0
H337 H 0.82895 0.81384 0.5944 0.0
O338 O 0.76392 0.91883 0.54178 0.0
C339 C 0.86211 0.83101 0.56421 0.0
Co340 Co 0.83817 0.04034 0.303 0.0
Co341 Co 0.83298 0.0264 0.32558 0.0
C342 C 0.74224 0.08004 0.31508 0.0
O343 O 0.767 0.07251 0.30712 0.0
O344 O 0.76213 0.06261 0.32298 0.0
C345 C 0.79242 0.01957 0.28472 0.0
O346 O 0.74904 0.00997 0.29008 0.0
C347 C 0.80096 0.00023 0.34576 0.0
C348 C 0.88235 0.9895 0.35248 0.0
C349 C 0.82667 0.98821 0.35444 0.0
N350 N 0.83984 0.0078 0.33899 0.0
N351 N 0.88832 0.0014 0.34309 0.0
C352 C 0.7409 0.00808 0.344 0.0
H353 H 0.7338 0.05022 0.34126 0.0
H354 H 0.72697 0.97901 0.33836 0.0
H355 H 0.7163 0.00229 0.35063 0.0
C356 C 0.86032 0.92261 0.30407 0.0
N357 N 0.85137 0.97102 0.30843 0.0
N358 N 0.84283 0.96309 0.31764 0.0
C359 C 0.84225 0.90853 0.31934 0.0
C360 C 0.85331 0.88071 0.31074 0.0
C361 C 0.87746 0.91719 0.29376 0.0
H362 H 0.9044 0.95202 0.29173 0.0
H363 H 0.84075 0.91819 0.28907 0.0
H364 H 0.89969 0.87802 0.29253 0.0
O365 O 0.89369 0.0929 0.30698 0.0
O366 O 0.88948 0.08459 0.3229 0.0
H367 H 0.86113 0.87476 0.33311 0.0
H368 H 0.80106 0.84546 0.32754 0.0
C369 C 0.8244 0.88397 0.32869 0.0
H370 H 0.79802 0.91306 0.33269 0.0
H371 H 0.92561 0.0053 0.33946 0.0
O372 O 0.8368 0.0343 0.28877 0.0
C373 C 0.90856 0.1077 0.31536 0.0
Co374 Co 0.71156 0.09487 0.05573 0.0
Co375 Co 0.70184 0.10377 0.07834 0.0
C376 C 0.65369 0.0094 0.06709 0.0
O377 O 0.6717 0.02813 0.05917 0.0
O378 O 0.66296 0.03401 0.07501 0.0
C379 C 0.72962 0.04437 0.03742 0.0
O380 O 0.72344 -0.00021 0.0426 0.0
C381 C 0.73065 0.06875 0.09779 0.0
C382 C 0.71401 0.14352 0.10631 0.0
C383 C 0.73532 0.09086 0.10698 0.0
N384 N 0.7093 0.1072 0.09196 0.0
N385 N 0.6986 0.15149 0.09713 0.0
C386 C 0.74596 0.01223 0.09447 0.0
H387 H 0.72006 -0.00062 0.08835 0.0
H388 H 0.7892 0.01219 0.09198 0.0
H389 H 0.74129 0.98206 0.10039 0.0
C390 C 0.83089 0.09832 0.06106 0.0
N391 N 0.77692 0.10149 0.0632 0.0
N392 N 0.77159 0.11105 0.07246 0.0
C393 C 0.82154 0.11869 0.07635 0.0
C394 C 0.86124 0.10916 0.06936 0.0
C395 C 0.85235 0.07902 0.05155 0.0
H396 H 0.8589 0.11498 0.0468 0.0
H397 H 0.82241 0.05123 0.0481 0.0
H398 H 0.89168 0.05664 0.05235 0.0
O399 O 0.65754 0.15614 0.05822 0.0
O400 O 0.65404 0.16307 0.07419 0.0
H401 H 0.79827 0.16909 0.08836 0.0
H402 H 0.87134 0.16096 0.08684 0.0
C403 C 0.83112 0.1398 0.08633 0.0
H404 H 0.83096 0.10529 0.0915 0.0
H405 H 0.68248 0.18774 0.09432 0.0
O406 O 0.72762 0.09098 0.04157 0.0
C407 C 0.6385 0.17822 0.06588 0.0
Co408 Co 0.64749 0.02159 0.71064 0.0
Co409 Co 0.6561 0.03736 0.68809 0.0
C410 C 0.74284 0.07893 0.70189 0.0
O411 O 0.71785 0.05956 0.70917 0.0
O412 O 0.72461 0.07153 0.69338 0.0
C413 C 0.65296 0.03561 0.73096 0.0
O414 O 0.67429 0.08258 0.72822 0.0
C415 C 0.69943 0.00783 0.66893 0.0
C416 C 0.63931 0.04731 0.65929 0.0
C417 C 0.6859 0.01476 0.65931 0.0
N418 N 0.662 0.03434 0.67434 0.0
N419 N 0.62649 0.05826 0.66852 0.0
C420 C 0.74836 0.97861 0.67293 0.0
H421 H 0.75387 0.98869 0.68065 0.0
H422 H 0.74302 0.93362 0.67221 0.0
H423 H 0.78562 0.99016 0.66881 0.0
C424 C 0.64591 0.90448 0.70425 0.0
N425 N 0.64481 0.95889 0.7025 0.0
N426 N 0.64068 0.96678 0.69319 0.0
C427 C 0.63361 0.91809 0.68879 0.0
C428 C 0.63887 0.87625 0.69556 0.0
C429 C 0.66015 0.88087 0.71386 0.0
H430 H 0.68001 0.91225 0.71847 0.0
H431 H 0.68845 0.84549 0.71306 0.0
H432 H 0.6221 0.86659 0.71746 0.0
O433 O 0.59056 0.07828 0.70729 0.0
O434 O 0.59769 0.08863 0.69145 0.0
H435 H 0.58964 0.94857 0.67651 0.0
H436 H 0.58941 0.87457 0.67773 0.0
C437 C 0.61445 0.91231 0.6786 0.0
H438 H 0.64986 0.90953 0.67365 0.0
H439 H 0.593 0.08143 0.67085 0.0
O440 O 0.63747 0.00162 0.72454 0.0
C441 C 0.5765 0.10203 0.69948 0.0
Co442 Co 0.72104 0.90356 0.46092 0.0
Co443 Co 0.72548 0.91234 0.43819 0.0
C444 C 0.67603 0.00095 0.44932 0.0
O445 O 0.685 0.97347 0.45698 0.0
O446 O 0.69316 0.98436 0.44116 0.0
C447 C 0.69346 0.91033 0.48116 0.0
O448 O 0.64296 0.91396 0.47792 0.0
C449 C 0.74384 0.94299 0.41769 0.0
C450 C 0.75533 0.86136 0.41105 0.0
C451 C 0.75481 0.91694 0.40898 0.0
N452 N 0.73878 0.90446 0.42459 0.0
N453 N 0.74538 0.85581 0.42053 0.0
C454 C 0.73518 0.00307 0.41939 0.0
H455 H 0.73717 0.02698 0.41262 0.0
H456 H 0.6943 0.00941 0.42272 0.0
H457 H 0.76637 0.01853 0.42453 0.0
C458 C 0.83847 0.88604 0.45826 0.0
N459 N 0.78812 0.89251 0.45454 0.0
N460 N 0.79191 0.90185 0.44527 0.0
C461 C 0.84556 0.90522 0.44289 0.0
C462 C 0.8773 0.89539 0.45109 0.0
C463 C 0.84838 0.87101 0.46856 0.0
H464 H 0.81712 0.84083 0.47094 0.0
H465 H 0.84414 0.90813 0.47313 0.0
H466 H 0.88988 0.85314 0.46954 0.0
O467 O 0.6689 0.84618 0.45763 0.0
O468 O 0.6662 0.858 0.44176 0.0
H469 H 0.87476 0.88995 0.42864 0.0
H470 H 0.90284 0.95096 0.43412 0.0
C471 C 0.86536 0.92558 0.43334 0.0
H472 H 0.8334 0.95077 0.42986 0.0
H473 H 0.74356 0.81872 0.42426 0.0
O474 O 0.73264 0.90544 0.47516 0.0
C475 C 0.6482 0.83545 0.44944 0.0
Co476 Co 0.86785 0.95926 0.20893 0.0
Co477 Co 0.8777 0.96334 0.18647 0.0
C478 C 0.78289 0.90788 0.19726 0.0
O479 O 0.79817 0.92427 0.20551 0.0
O480 O 0.81034 0.91973 0.18972 0.0
C481 C 0.82927 0.9646 0.22843 0.0
O482 O 0.78209 0.95231 0.22441 0.0
C483 C 0.83613 0.00023 0.16784 0.0
C484 C 0.9068 0.98427 0.15828 0.0
C485 C 0.85375 0.00502 0.15834 0.0
N486 N 0.87706 0.97838 0.17305 0.0
N487 N 0.91914 0.96882 0.1673 0.0
C488 C 0.78127 0.01464 0.17199 0.0
H489 H 0.77483 0.99399 0.17898 0.0
H490 H 0.77938 0.05953 0.17329 0.0
H491 H 0.74797 0.003 0.16694 0.0
C492 C 0.87205 0.08053 0.20602 0.0
N493 N 0.87482 0.02845 0.20276 0.0
N494 N 0.88453 0.02922 0.19349 0.0
C495 C 0.89258 0.08133 0.19064 0.0
C496 C 0.88363 0.11628 0.19843 0.0
C497 C 0.85164 0.09516 0.21586 0.0
H498 H 0.82415 0.06258 0.21859 0.0
H499 H 0.82846 0.13431 0.2158 0.0
H500 H 0.88707 0.09917 0.22081 0.0
O501 O 0.92624 0.90493 0.20495 0.0
O502 O 0.93906 0.91543 0.18921 0.0
H503 H 0.94115 0.06471 0.17808 0.0
H504 H 0.93422 0.13671 0.18095 0.0
C505 C 0.91262 0.09661 0.18081 0.0
H506 H 0.8774 0.09936 0.17581 0.0
H507 H 0.95629 0.95193 0.16954 0.0
O508 O 0.87169 0.96926 0.22315 0.0
C509 C 0.95077 0.89228 0.19712 0.0
Co510 Co 0.78174 0.1029 0.96083 0.0
Co511 Co 0.77373 0.09986 0.93808 0.0
C512 C 0.82715 0.00925 0.94876 0.0
O513 O 0.81775 0.0325 0.95684 0.0
O514 O 0.81054 0.03002 0.94088 0.0
C515 C 0.77086 0.06343 0.98039 0.0
O516 O 0.77235 0.01454 0.9764 0.0
C517 C 0.75913 0.07032 0.91735 0.0
C518 C 0.74035 0.15175 0.91121 0.0
C519 C 0.74768 0.09715 0.90874 0.0
N520 N 0.7583 0.10755 0.92454 0.0
N521 N 0.74693 0.15602 0.92079 0.0
C522 C 0.77458 0.0114 0.9187 0.0
H523 H 0.81504 0.00916 0.92231 0.0
H524 H 0.74412 0.99133 0.92348 0.0
H525 H 0.77714 0.98897 0.91177 0.0
C526 C 0.66303 0.11712 0.95885 0.0
N527 N 0.71308 0.11287 0.95488 0.0
N528 N 0.7083 0.10625 0.94554 0.0
C529 C 0.65453 0.10219 0.94334 0.0
C530 C 0.62363 0.10903 0.95174 0.0
C531 C 0.6538 0.12966 0.96928 0.0
H532 H 0.68448 0.16012 0.97177 0.0
H533 H 0.65924 0.09168 0.97356 0.0
H534 H 0.61203 0.14635 0.97053 0.0
O535 O 0.8318 0.1614 0.95723 0.0
O536 O 0.8296 0.15768 0.94127 0.0
H537 H 0.62474 0.1207 0.92927 0.0
H538 H 0.59664 0.05865 0.93435 0.0
C539 C 0.6342 0.08402 0.93369 0.0
H540 H 0.66601 0.05952 0.92995 0.0
H541 H 0.74428 0.19226 0.92477 0.0
O542 O 0.77425 0.1057 0.97508 0.0
C543 C 0.8487 0.17759 0.94908 0.0
Co544 Co 0.84672 0.52768 0.70824 0.0
Co545 Co 0.84234 0.52706 0.68551 0.0
C546 C 0.7518 0.5758 0.697 0.0
O547 O 0.77521 0.56352 0.70492 0.0
O548 O 0.77247 0.56197 0.68893 0.0
C549 C 0.81444 0.49585 0.7275 0.0
O550 O 0.77153 0.47399 0.72326 0.0
C551 C 0.80812 0.50904 0.66517 0.0
C552 C 0.88879 0.49882 0.65814 0.0
C553 C 0.83291 0.49792 0.65637 0.0
N554 N 0.84767 0.51525 0.67186 0.0
N555 N 0.89573 0.50964 0.66755 0.0
C556 C 0.74812 0.51562 0.66719 0.0
H557 H 0.74114 0.55499 0.67101 0.0
H558 H 0.73404 0.48212 0.67199 0.0
H559 H 0.72353 0.51543 0.66049 0.0
C560 C 0.86923 0.40967 0.70482 0.0
N561 N 0.85878 0.46074 0.70163 0.0
N562 N 0.85171 0.45941 0.69227 0.0
C563 C 0.8532 0.40672 0.68929 0.0
C564 C 0.86506 0.37292 0.69714 0.0
C565 C 0.88644 0.39746 0.71493 0.0
H566 H 0.91039 0.43233 0.71788 0.0
H567 H 0.84954 0.39179 0.71949 0.0
H568 H 0.9118 0.35965 0.71523 0.0
O569 O 0.9032 0.5804 0.70483 0.0
O570 O 0.89963 0.58313 0.68888 0.0
H571 H 0.87223 0.38826 0.6746 0.0
H572 H 0.81628 0.34816 0.67948 0.0
C573 C 0.83589 0.38917 0.67942 0.0
H574 H 0.80572 0.41852 0.6765 0.0
H575 H 0.93336 0.51222 0.67109 0.0
O576 O 0.85094 0.51922 0.72243 0.0
C577 C 0.91906 0.60023 0.69686 0.0
Co578 Co 0.71392 0.60319 0.95593 0.0
Co579 Co 0.6981 0.59656 0.9335 0.0
C580 C 0.65484 0.50931 0.94673 0.0
O581 O 0.6748 0.53429 0.95395 0.0
O582 O 0.66155 0.52762 0.93822 0.0
C583 C 0.69105 0.59384 0.97526 0.0
O584 O 0.6434 0.5827 0.97131 0.0
C585 C 0.7118 0.55897 0.91329 0.0
C586 C 0.68632 0.63372 0.90549 0.0
C587 C 0.70497 0.58059 0.90411 0.0
N588 N 0.69828 0.59794 0.91975 0.0
N589 N 0.68289 0.64233 0.91502 0.0
C590 C 0.72823 0.50173 0.91592 0.0
H591 H 0.71279 0.49103 0.92318 0.0
H592 H 0.77361 0.49868 0.91605 0.0
H593 H 0.71241 0.47197 0.91054 0.0
C594 C 0.83132 0.60162 0.94978 0.0
N595 N 0.77714 0.60503 0.94792 0.0
N596 N 0.76984 0.6073 0.93857 0.0
C597 C 0.81906 0.61004 0.93421 0.0
C598 C 0.86022 0.60472 0.94111 0.0
C599 C 0.85381 0.58797 0.95951 0.0
H600 H 0.8683 0.62619 0.96303 0.0
H601 H 0.82175 0.56905 0.96407 0.0
H602 H 0.8888 0.55903 0.95891 0.0
O603 O 0.65967 0.66289 0.95323 0.0
O604 O 0.65043 0.65684 0.93739 0.0
H605 H 0.79434 0.65077 0.92125 0.0
H606 H 0.86726 0.63939 0.92221 0.0
C607 C 0.82623 0.62155 0.9237 0.0
H608 H 0.82172 0.583 0.91955 0.0
H609 H 0.67022 0.67873 0.9183 0.0
O610 O 0.73118 0.60672 0.96986 0.0
C611 C 0.63774 0.67861 0.94539 0.0
Co612 Co 0.67215 0.46134 0.20627 0.0
Co613 Co 0.64667 0.45605 0.18386 0.0
C614 C 0.74848 0.40557 0.19311 0.0
O615 O 0.73839 0.4223 0.20161 0.0
O616 O 0.71651 0.41699 0.18615 0.0
C617 C 0.72327 0.47276 0.22498 0.0
O618 O 0.76826 0.46261 0.22008 0.0
C619 C 0.67587 0.48616 0.16395 0.0
C620 C 0.60201 0.46166 0.15584 0.0
C621 C 0.65336 0.48534 0.15476 0.0
N622 N 0.63918 0.46482 0.17016 0.0
N623 N 0.59525 0.44995 0.16524 0.0
C624 C 0.7323 0.5046 0.16675 0.0
H625 H 0.74531 0.48508 0.17355 0.0
H626 H 0.73252 0.54963 0.16788 0.0
H627 H 0.76215 0.49477 0.16096 0.0
C628 C 0.66859 0.58092 0.20153 0.0
N629 N 0.66075 0.52767 0.19923 0.0
N630 N 0.64445 0.52462 0.19023 0.0
C631 C 0.63811 0.57566 0.18672 0.0
C632 C 0.65461 0.61332 0.19363 0.0
C633 C 0.69571 0.59935 0.21063 0.0
H634 H 0.66379 0.60705 0.21616 0.0
H635 H 0.72368 0.56699 0.21331 0.0
H636 H 0.71952 0.63761 0.20953 0.0
O637 O 0.61081 0.40734 0.20445 0.0
O638 O 0.5907 0.40576 0.18883 0.0
H639 H 0.58355 0.55669 0.17504 0.0
H640 H 0.59394 0.62933 0.17716 0.0
C641 C 0.61405 0.58844 0.17707 0.0
H642 H 0.64671 0.58922 0.17154 0.0
H643 H 0.56055 0.43202 0.1683 0.0
O644 O 0.67778 0.47544 0.22051 0.0
C645 C 0.58332 0.38833 0.19737 0.0
Co646 Co 0.78228 0.38354 0.45703 0.0
Co647 Co 0.7857 0.39515 0.43447 0.0
C648 C 0.84214 0.47562 0.44772 0.0
O649 O 0.82365 0.45043 0.45501 0.0
O650 O 0.82992 0.46033 0.43919 0.0
C651 C 0.77856 0.4135 0.47684 0.0
O652 O 0.79452 0.46104 0.4734 0.0
C653 C 0.75922 0.44146 0.41532 0.0
C654 C 0.76933 0.36778 0.40621 0.0
C655 C 0.75448 0.42271 0.40587 0.0
N656 N 0.77524 0.39921 0.42089 0.0
N657 N 0.78156 0.3555 0.41537 0.0
C658 C 0.75035 0.49835 0.41909 0.0
H659 H 0.77163 0.50409 0.42605 0.0
H660 H 0.70589 0.50511 0.42031 0.0
H661 H 0.76541 0.52918 0.41384 0.0
C662 C 0.66305 0.39003 0.4533 0.0
N663 N 0.71541 0.38619 0.45026 0.0
N664 N 0.71656 0.38607 0.44082 0.0
C665 C 0.66455 0.38548 0.43754 0.0
C666 C 0.62843 0.38926 0.44533 0.0
C667 C 0.64784 0.40236 0.46352 0.0
H668 H 0.68106 0.42579 0.46705 0.0
H669 H 0.60981 0.42717 0.46399 0.0
H670 H 0.6418 0.36326 0.46747 0.0
O671 O 0.83313 0.32483 0.45259 0.0
O672 O 0.83377 0.33168 0.43666 0.0
H673 H 0.67888 0.34873 0.42374 0.0
H674 H 0.60765 0.3616 0.42637 0.0
C675 C 0.64992 0.37788 0.42716 0.0
H676 H 0.65289 0.41777 0.42338 0.0
H677 H 0.79343 0.31699 0.4179 0.0
O678 O 0.76998 0.37385 0.47107 0.0
C679 C 0.85085 0.30968 0.44437 0.0
Co680 Co 0.84055 0.46195 0.80325 0.0
Co681 Co 0.83151 0.45333 0.82581 0.0
C682 C 0.74456 0.40702 0.81399 0.0
O683 O 0.77185 0.42195 0.80662 0.0
O684 O 0.76071 0.4191 0.82245 0.0
C685 C 0.82081 0.43656 0.78401 0.0
O686 O 0.80888 0.38986 0.78823 0.0
C687 C 0.80511 0.45869 0.8467 0.0
C688 C 0.88743 0.47592 0.85264 0.0
C689 C 0.83303 0.46902 0.85524 0.0
N690 N 0.84143 0.46034 0.8394 0.0
N691 N 0.89054 0.47015 0.84303 0.0
C692 C 0.74561 0.44527 0.84548 0.0
H693 H 0.74112 0.41032 0.84043 0.0
H694 H 0.72412 0.48114 0.84233 0.0
H695 H 0.72613 0.43422 0.85242 0.0
C696 C 0.85674 0.57904 0.80808 0.0
N697 N 0.84865 0.5264 0.81061 0.0
N698 N 0.83969 0.5236 0.81991 0.0
C699 C 0.83837 0.5749 0.82354 0.0
C700 C 0.84993 0.61235 0.8162 0.0
C701 C 0.87243 0.59583 0.7981 0.0
H702 H 0.89793 0.56337 0.79471 0.0
H703 H 0.8348 0.60069 0.7937 0.0
H704 H 0.89563 0.63502 0.79815 0.0
O705 O 0.9001 0.41054 0.80581 0.0
O706 O 0.8888 0.39962 0.82153 0.0
H707 H 0.85435 0.58897 0.83847 0.0
H708 H 0.79664 0.62721 0.83382 0.0
C709 C 0.81871 0.58745 0.83352 0.0
H710 H 0.79028 0.555 0.836 0.0
H711 H 0.92616 0.47375 0.83891 0.0
O712 O 0.83756 0.47646 0.78914 0.0
C713 C 0.91232 0.38671 0.81365 0.0
Co714 Co 0.77454 0.63057 0.05064 0.0
Co715 Co 0.76968 0.60286 0.07276 0.0
C716 C 0.83138 0.53124 0.05984 0.0
O717 O 0.81884 0.56404 0.05306 0.0
O718 O 0.8126 0.53815 0.06832 0.0
C719 C 0.75453 0.59833 0.03145 0.0
O720 O 0.74089 0.55215 0.03569 0.0
C721 C 0.74879 0.55875 0.09263 0.0
C722 C 0.72706 0.6359 0.10009 0.0
C723 C 0.73226 0.5799 0.1015 0.0
N724 N 0.75236 0.60048 0.08629 0.0
N725 N 0.73954 0.64635 0.09085 0.0
C726 C 0.76325 0.50048 0.09034 0.0
H727 H 0.79679 0.49901 0.08497 0.0
H728 H 0.72693 0.47955 0.08723 0.0
H729 H 0.7762 0.47813 0.0969 0.0
C730 C 0.65494 0.62922 0.05279 0.0
N731 N 0.70568 0.62625 0.05651 0.0
N732 N 0.70284 0.61054 0.06554 0.0
C733 C 0.64978 0.6004 0.06771 0.0
C734 C 0.6175 0.61188 0.05967 0.0
C735 C 0.64253 0.64899 0.04284 0.0
H736 H 0.67249 0.68095 0.04067 0.0
H737 H 0.64559 0.61428 0.0377 0.0
H738 H 0.60035 0.66605 0.04245 0.0
O739 O 0.81573 0.69174 0.05567 0.0
O740 O 0.82143 0.66706 0.07101 0.0
H741 H 0.62896 0.60532 0.08261 0.0
H742 H 0.59137 0.55328 0.07611 0.0
C743 C 0.63174 0.57372 0.07687 0.0
H744 H 0.66247 0.54277 0.07909 0.0
H745 H 0.7388 0.68494 0.08761 0.0
O746 O 0.76938 0.63896 0.03654 0.0
C747 C 0.83491 0.69859 0.06406 0.0
Co748 Co 0.65489 0.52737 0.3016 0.0
Co749 Co 0.64844 0.54204 0.32425 0.0
C750 C 0.74481 0.58153 0.31242 0.0
O751 O 0.72502 0.56402 0.30452 0.0
O752 O 0.71973 0.57452 0.32036 0.0
C753 C 0.69405 0.5104 0.28209 0.0
O754 O 0.7419 0.52156 0.28596 0.0
C755 C 0.68528 0.5178 0.34391 0.0
C756 C 0.61334 0.54244 0.35258 0.0
C757 C 0.66507 0.51908 0.35328 0.0
N758 N 0.64671 0.53814 0.33799 0.0
N759 N 0.60408 0.55341 0.34323 0.0
C760 C 0.74047 0.49842 0.34058 0.0
H761 H 0.73847 0.45394 0.3389 0.0
H762 H 0.77195 0.50529 0.34621 0.0
H763 H 0.75304 0.51995 0.33395 0.0
C764 C 0.64707 0.40974 0.30779 0.0
N765 N 0.6453 0.46422 0.30955 0.0
N766 N 0.63626 0.4719 0.31878 0.0
C767 C 0.62791 0.42309 0.32303 0.0
C768 C 0.63621 0.38154 0.31632 0.0
C769 C 0.6656 0.38575 0.29841 0.0
H770 H 0.62911 0.37397 0.29412 0.0
H771 H 0.68982 0.41616 0.2943 0.0
H772 H 0.6911 0.34864 0.29959 0.0
O773 O 0.59737 0.58504 0.30405 0.0
O774 O 0.59328 0.59441 0.31995 0.0
H775 H 0.58043 0.4506 0.33513 0.0
H776 H 0.58664 0.3769 0.33413 0.0
C777 C 0.6085 0.41651 0.3332 0.0
H778 H 0.64394 0.41731 0.33816 0.0
H779 H 0.56826 0.57029 0.3404 0.0
O780 O 0.65171 0.509 0.28748 0.0
C781 C 0.57826 0.6086 0.31156 0.0
Co782 Co 0.72231 0.38024 0.55153 0.0
Co783 Co 0.72799 0.39274 0.57395 0.0
C784 C 0.67036 0.4754 0.56283 0.0
O785 O 0.68017 0.44658 0.55537 0.0
O786 O 0.68967 0.46204 0.57099 0.0
C787 C 0.74337 0.42986 0.53379 0.0
O788 O 0.75111 0.47212 0.53951 0.0
C789 C 0.74812 0.42974 0.59394 0.0
C790 C 0.7632 0.35088 0.60131 0.0
C791 C 0.76092 0.40702 0.60283 0.0
N792 N 0.74353 0.38882 0.58747 0.0
N793 N 0.75237 0.34183 0.59194 0.0
C794 C 0.73628 0.48872 0.59174 0.0
H795 H 0.6925 0.4927 0.58968 0.0
H796 H 0.76115 0.50222 0.58549 0.0
H797 H 0.74412 0.51587 0.59799 0.0
C798 C 0.84118 0.37426 0.55358 0.0
N799 N 0.7909 0.37657 0.55749 0.0
N800 N 0.79484 0.38704 0.56673 0.0
C801 C 0.84832 0.39501 0.56889 0.0
C802 C 0.87963 0.38759 0.56055 0.0
C803 C 0.85213 0.35944 0.54329 0.0
H804 H 0.82183 0.32857 0.5408 0.0
H805 H 0.8482 0.39639 0.53871 0.0
H806 H 0.89423 0.34273 0.54243 0.0
O807 O 0.67817 0.3176 0.55494 0.0
O808 O 0.67323 0.33256 0.57071 0.0
H809 H 0.86812 0.38173 0.58365 0.0
H810 H 0.90918 0.4343 0.57798 0.0
C811 C 0.86763 0.41606 0.57842 0.0
H812 H 0.83873 0.44755 0.58112 0.0
H813 H 0.75137 0.30352 0.58858 0.0
O814 O 0.73061 0.38382 0.53744 0.0
C815 C 0.65845 0.3064 0.56316 0.0
Co816 Co 0.14087 0.46835 0.30079 0.0
Co817 Co 0.13432 0.46655 0.32336 0.0
C818 C 0.22927 0.4171 0.31219 0.0
O819 O 0.20989 0.4326 0.30415 0.0
O820 O 0.20515 0.42857 0.32009 0.0
C821 C 0.16469 0.45079 0.28086 0.0
O822 O 0.19622 0.41162 0.28424 0.0
C823 C 0.16968 0.50547 0.34231 0.0
C824 C 0.1003 0.48061 0.35156 0.0
C825 C 0.1503 0.50773 0.35171 0.0
N826 N 0.13239 0.47913 0.33688 0.0
N827 N 0.09117 0.46409 0.34246 0.0
C828 C 0.2234 0.5261 0.33853 0.0
H829 H 0.23524 0.50366 0.33191 0.0
H830 H 0.21957 0.57017 0.33667 0.0
H831 H 0.256 0.52165 0.34404 0.0
C832 C 0.1328 0.5874 0.30434 0.0
N833 N 0.13267 0.53511 0.30742 0.0
N834 N 0.1236 0.53408 0.31671 0.0
C835 C 0.11327 0.58561 0.31976 0.0
C836 C 0.11992 0.62177 0.31206 0.0
C837 C 0.15189 0.6036 0.2945 0.0
H838 H 0.17861 0.57128 0.2914 0.0
H839 H 0.17547 0.6425 0.29472 0.0
H840 H 0.11578 0.60906 0.28974 0.0
O841 O 0.08222 0.41484 0.30405 0.0
O842 O 0.07697 0.41315 0.32001 0.0
H843 H 0.06766 0.63734 0.32953 0.0
H844 H 0.12737 0.60494 0.3346 0.0
C845 C 0.09242 0.5991 0.32963 0.0
H846 H 0.06675 0.56497 0.33238 0.0
H847 H 0.05654 0.4431 0.34004 0.0
O848 O 0.13731 0.48027 0.28669 0.0
C849 C 0.06184 0.39567 0.3118 0.0
Co850 Co 0.26997 0.39086 0.05097 0.0
Co851 Co 0.27565 0.39804 0.0738 0.0
C852 C 0.32144 0.48681 0.06224 0.0
O853 O 0.30941 0.4603 0.05458 0.0
O854 O 0.3072 0.46956 0.07052 0.0
C855 C 0.27807 0.42068 0.03076 0.0
O856 O 0.31607 0.4546 0.03385 0.0
C857 C 0.26955 0.42584 0.09478 0.0
C858 C 0.25682 0.34338 0.10097 0.0
C859 C 0.26194 0.39822 0.10345 0.0
N860 N 0.26837 0.38886 0.08754 0.0
N861 N 0.2609 0.33973 0.09134 0.0
C862 C 0.28096 0.48565 0.09339 0.0
H863 H 0.31796 0.49057 0.08882 0.0
H864 H 0.24602 0.50492 0.08956 0.0
H865 H 0.28787 0.50704 0.10033 0.0
C866 C 0.15283 0.37601 0.05545 0.0
N867 N 0.20525 0.38128 0.0583 0.0
N868 N 0.2066 0.38904 0.06765 0.0
C869 C 0.15475 0.39235 0.07098 0.0
C870 C 0.1184 0.38391 0.06336 0.0
C871 C 0.13688 0.36325 0.04529 0.0
H872 H 0.16626 0.33335 0.04216 0.0
H873 H 0.1389 0.40131 0.04093 0.0
H874 H 0.09485 0.34587 0.04492 0.0
O875 O 0.32247 0.33204 0.05352 0.0
O876 O 0.3317 0.34314 0.06931 0.0
H877 H 0.13674 0.37594 0.08575 0.0
H878 H 0.10235 0.43579 0.08104 0.0
C879 C 0.14103 0.41189 0.08092 0.0
H880 H 0.17422 0.43848 0.08369 0.0
H881 H 0.25846 0.30358 0.08733 0.0
O882 O 0.25314 0.39042 0.03681 0.0
C883 C 0.34612 0.32054 0.06141 0.0
Co884 Co 0.35835 0.52692 0.79879 0.0
Co885 Co 0.34713 0.51841 0.82137 0.0
C886 C 0.2625 0.57539 0.81017 0.0
O887 O 0.28964 0.56647 0.80246 0.0
O888 O 0.27817 0.5563 0.81823 0.0
C889 C 0.32026 0.51905 0.77915 0.0
O890 O 0.27143 0.52256 0.78312 0.0
C891 C 0.30918 0.49741 0.84128 0.0
C892 C 0.38775 0.48069 0.84864 0.0
C893 C 0.33167 0.48369 0.85014 0.0
N894 N 0.35019 0.50175 0.83483 0.0
N895 N 0.397 0.49198 0.8393 0.0
C896 C 0.25035 0.50961 0.83906 0.0
H897 H 0.24681 0.55311 0.8368 0.0
H898 H 0.23651 0.48384 0.83294 0.0
H899 H 0.22328 0.50298 0.84536 0.0
C900 C 0.36629 0.40725 0.80067 0.0
N901 N 0.36335 0.45749 0.80463 0.0
N902 N 0.35454 0.45291 0.81392 0.0
C903 C 0.34855 0.39925 0.81609 0.0
C904 C 0.35586 0.36816 0.80773 0.0
C905 C 0.37852 0.39741 0.79025 0.0
H906 H 0.41074 0.42633 0.78779 0.0
H907 H 0.34101 0.4051 0.78595 0.0
H908 H 0.39269 0.3547 0.78899 0.0
O909 O 0.41809 0.57423 0.80293 0.0
O910 O 0.40652 0.57372 0.81878 0.0
H911 H 0.36328 0.37492 0.83062 0.0
H912 H 0.30635 0.33966 0.82504 0.0
C913 C 0.32806 0.37945 0.82563 0.0
H914 H 0.29925 0.40977 0.82872 0.0
H915 H 0.43532 0.49267 0.83595 0.0
O916 O 0.3625 0.52014 0.78451 0.0
C917 C 0.43055 0.59175 0.81126 0.0
Co918 Co 0.2206 0.61499 0.54934 0.0
Co919 Co 0.23095 0.60207 0.57196 0.0
C920 C 0.17576 0.51683 0.56076 0.0
O921 O 0.18384 0.54485 0.55311 0.0
O922 O 0.19481 0.5321 0.56887 0.0
C923 C 0.19416 0.60414 0.52887 0.0
O924 O 0.14545 0.58866 0.53187 0.0
C925 C 0.24696 0.57161 0.59252 0.0
C926 C 0.26376 0.65331 0.5988 0.0
C927 C 0.2577 0.59847 0.60115 0.0
N928 N 0.24688 0.60912 0.58541 0.0
N929 N 0.2571 0.65773 0.58923 0.0
C930 C 0.23271 0.51242 0.59109 0.0
H931 H 0.19086 0.50949 0.588 0.0
H932 H 0.26146 0.49382 0.58582 0.0
H933 H 0.23393 0.48912 0.59793 0.0
C934 C 0.34038 0.62418 0.55128 0.0
N935 N 0.29019 0.62161 0.55528 0.0
N936 N 0.2952 0.61113 0.5645 0.0
C937 C 0.34869 0.6039 0.56659 0.0
C938 C 0.37953 0.61192 0.55825 0.0
C939 C 0.35007 0.63656 0.54087 0.0
H940 H 0.32195 0.66972 0.53851 0.0
H941 H 0.34112 0.59944 0.53652 0.0
H942 H 0.39309 0.64956 0.53958 0.0
O943 O 0.16921 0.67292 0.55345 0.0
O944 O 0.17516 0.65955 0.56922 0.0
H945 H 0.37896 0.61516 0.58087 0.0
H946 H 0.40494 0.55446 0.57497 0.0
C947 C 0.3683 0.58085 0.57596 0.0
H948 H 0.3356 0.55601 0.57935 0.0
H949 H 0.25874 0.69417 0.58531 0.0
O950 O 0.2305 0.61703 0.53503 0.0
C951 C 0.15376 0.68361 0.56201 0.0
Co952 Co 0.14474 0.51684 0.20626 0.0
Co953 Co 0.16468 0.52871 0.18396 0.0
C954 C 0.2436 0.5765 0.19708 0.0
O955 O 0.21221 0.5604 0.20385 0.0
O956 O 0.2338 0.56361 0.18835 0.0
C957 C 0.1859 0.4741 0.22372 0.0
O958 O 0.22688 0.45987 0.21809 0.0
C959 C 0.19511 0.51884 0.16292 0.0
C960 C 0.11232 0.52406 0.15655 0.0
C961 C 0.1671 0.51773 0.15419 0.0
N962 N 0.15821 0.52497 0.17011 0.0
N963 N 0.10895 0.52821 0.16618 0.0
C964 C 0.25595 0.51695 0.16431 0.0
H965 H 0.27669 0.54175 0.15869 0.0
H966 H 0.26729 0.53224 0.17155 0.0
H967 H 0.27056 0.47404 0.16358 0.0
C968 C 0.12983 0.40172 0.20092 0.0
N969 N 0.14021 0.4541 0.19856 0.0
N970 N 0.15434 0.45709 0.18946 0.0
C971 C 0.15703 0.40561 0.18588 0.0
C972 C 0.1414 0.36835 0.19303 0.0
C973 C 0.10566 0.38512 0.21039 0.0
H974 H 0.07877 0.41829 0.21318 0.0
H975 H 0.13896 0.37843 0.21568 0.0
H976 H 0.08154 0.3467 0.20966 0.0
O977 O 0.0844 0.56563 0.20359 0.0
O978 O 0.1062 0.58248 0.18834 0.0
H979 H 0.14656 0.3908 0.17084 0.0
H980 H 0.20244 0.35287 0.1762 0.0
C981 C 0.1803 0.39262 0.17618 0.0
H982 H 0.20937 0.4251 0.17402 0.0
H983 H 0.07276 0.53301 0.17011 0.0
O984 O 0.14464 0.49826 0.22009 0.0
C985 C 0.07774 0.5926 0.19587 0.0
Co986 Co 0.21028 0.39754 0.95539 0.0
Co987 Co 0.21214 0.4005 0.93257 0.0
C988 C 0.16144 0.4909 0.94376 0.0
O989 O 0.17374 0.46853 0.95177 0.0
O990 O 0.17608 0.46973 0.93578 0.0
C991 C 0.24631 0.43981 0.97342 0.0
O992 O 0.26286 0.47966 0.96776 0.0
C993 C 0.2292 0.43396 0.91226 0.0
C994 C 0.24127 0.35333 0.90527 0.0
C995 C 0.24089 0.4092 0.90348 0.0
N996 N 0.22389 0.39441 0.91896 0.0
N997 N 0.23054 0.34635 0.91469 0.0
C998 C 0.22127 0.49386 0.91425 0.0
H999 H 0.18046 0.50021 0.91761 0.0
H1000 H 0.25259 0.50818 0.91946 0.0
H1001 H 0.22361 0.51874 0.90759 0.0
C1002 C 0.3288 0.37445 0.95181 0.0
N1003 N 0.27756 0.38511 0.9487 0.0
N1004 N 0.27883 0.39221 0.93934 0.0
C1005 C 0.33119 0.39037 0.93627 0.0
C1006 C 0.36517 0.37807 0.94405 0.0
C1007 C 0.34165 0.35815 0.96194 0.0
H1008 H 0.30673 0.33502 0.96506 0.0
H1009 H 0.3482 0.3955 0.96636 0.0
H1010 H 0.37917 0.33237 0.96221 0.0
O1011 O 0.15587 0.34084 0.95205 0.0
O1012 O 0.1583 0.34263 0.93605 0.0
H1013 H 0.34883 0.37236 0.92151 0.0
H1014 H 0.38927 0.42796 0.92644 0.0
C1015 C 0.34828 0.40834 0.92641 0.0
H1016 H 0.31895 0.43891 0.92362 0.0
H1017 H 0.22881 0.30874 0.91826 0.0
O1018 O 0.22227 0.39863 0.96968 0.0
C1019 C 0.13858 0.32424 0.9439 0.0
Co1020 Co 0.35023 0.46215 0.70394 0.0
Co1021 Co 0.3439 0.46037 0.68118 0.0
C1022 C 0.25495 0.4121 0.69243 0.0
O1023 O 0.28139 0.42417 0.70006 0.0
O1024 O 0.27241 0.42642 0.68416 0.0
C1025 C 0.30046 0.48834 0.72192 0.0
O1026 O 0.25698 0.49314 0.71641 0.0
C1027 C 0.32103 0.47428 0.66006 0.0
C1028 C 0.40607 0.47587 0.65454 0.0
C1029 C 0.35185 0.47905 0.65167 0.0
N1030 N 0.35572 0.46911 0.66756 0.0
N1031 N 0.40638 0.46993 0.66416 0.0
C1032 C 0.25979 0.47218 0.66081 0.0
H1033 H 0.24702 0.44722 0.66706 0.0
H1034 H 0.24355 0.51435 0.66177 0.0
H1035 H 0.24171 0.45479 0.65414 0.0
C1036 C 0.36795 0.57987 0.7002 0.0
N1037 N 0.3608 0.52816 0.69705 0.0
N1038 N 0.35262 0.52864 0.68772 0.0
C1039 C 0.35103 0.58117 0.68469 0.0
C1040 C 0.361 0.61598 0.6925 0.0
C1041 C 0.38255 0.59348 0.71039 0.0
H1042 H 0.40947 0.56102 0.71338 0.0
H1043 H 0.34465 0.59495 0.7148 0.0
H1044 H 0.40388 0.63363 0.71084 0.0
O1045 O 0.40833 0.40889 0.7013 0.0
O1046 O 0.39979 0.405 0.6854 0.0
H1047 H 0.36876 0.60196 0.67008 0.0
H1048 H 0.30898 0.63613 0.67495 0.0
C1049 C 0.33245 0.59717 0.67483 0.0
H1050 H 0.3057 0.56487 0.67182 0.0
H1051 H 0.44137 0.46643 0.66843 0.0
O1052 O 0.34621 0.47598 0.71807 0.0
C1053 C 0.42131 0.38804 0.69321 0.0
Co1054 Co 0.28569 0.61967 0.45442 0.0
Co1055 Co 0.28034 0.63086 0.43171 0.0
C1056 C 0.34105 0.53888 0.4413 0.0
O1057 O 0.32718 0.55285 0.44983 0.0
O1058 O 0.32388 0.56517 0.43401 0.0
C1059 C 0.30935 0.62681 0.47491 0.0
O1060 O 0.358 0.64304 0.472 0.0
C1061 C 0.26369 0.59775 0.41158 0.0
C1062 C 0.23494 0.67489 0.40495 0.0
C1063 C 0.24354 0.61969 0.40308 0.0
N1064 N 0.26544 0.63781 0.41824 0.0
N1065 N 0.2491 0.68402 0.41418 0.0
C1066 C 0.28156 0.53986 0.41339 0.0
H1067 H 0.32404 0.54009 0.4162 0.0
H1068 H 0.25476 0.52107 0.41893 0.0
H1069 H 0.28105 0.51459 0.40676 0.0
C1070 C 0.16518 0.63017 0.45176 0.0
N1071 N 0.2166 0.62918 0.4482 0.0
N1072 N 0.21416 0.62864 0.43877 0.0
C1073 C 0.16127 0.62532 0.43601 0.0
C1074 C 0.12788 0.62696 0.44415 0.0
C1075 C 0.15266 0.6357 0.46226 0.0
H1076 H 0.18181 0.66493 0.46562 0.0
H1077 H 0.15789 0.59525 0.46581 0.0
H1078 H 0.11023 0.65075 0.46346 0.0
O1079 O 0.33608 0.68108 0.45154 0.0
O1080 O 0.32944 0.69194 0.43568 0.0
H1081 H 0.14217 0.64977 0.42161 0.0
H1082 H 0.10405 0.59048 0.42567 0.0
C1083 C 0.14424 0.61158 0.42593 0.0
H1084 H 0.17463 0.58361 0.42265 0.0
H1085 H 0.24567 0.72138 0.41781 0.0
O1086 O 0.27338 0.61426 0.46866 0.0
C1087 C 0.35051 0.70485 0.44377 0.0
H1088 H 0.26909 0.93964 0.14993 0.0
H1089 H 0.37617 0.06774 0.13975 0.0
H1090 H 0.34977 0.04785 0.12314 0.0
H1091 H 0.30217 0.98875 0.11145 0.0
H1092 H 0.19936 0.85719 0.12162 0.0
H1093 H 0.21773 0.8837 0.13829 0.0
C1094 C 0.28538 0.96416 0.1441 0.0
C1095 C 0.32382 0.00563 0.14605 0.0
C1096 C 0.27115 0.95145 0.13455 0.0
C1097 C 0.34625 0.03577 0.13839 0.0
C1098 C 0.33128 0.02435 0.1289 0.0
C1099 C 0.28275 0.96688 0.11733 0.0
C1100 C 0.24878 0.92172 0.11535 0.0
C1101 C 0.29456 0.98159 0.12688 0.0
C1102 C 0.22538 0.89236 0.12301 0.0
C1103 C 0.23591 0.90745 0.13252 0.0
H1104 H 0.23539 0.03487 0.39562 0.0
H1105 H 0.35797 0.16194 0.39799 0.0
H1106 H 0.39068 0.14135 0.38184 0.0
H1107 H 0.38395 0.089 0.36691 0.0
H1108 H 0.26302 0.96079 0.36426 0.0
H1109 H 0.23021 0.98014 0.38055 0.0
C1110 C 0.26982 0.05734 0.39266 0.0
C1111 C 0.29447 0.0996 0.39808 0.0
C1112 C 0.28832 0.04563 0.38325 0.0
C1113 C 0.33814 0.12929 0.394 0.0
C1114 C 0.35698 0.11756 0.38475 0.0
C1115 C 0.3504 0.06519 0.36989 0.0
C1116 C 0.32523 0.0244 0.36425 0.0
C1117 C 0.33218 0.07614 0.37928 0.0
C1118 C 0.282 0.99377 0.36827 0.0
C1119 C 0.26362 0.00438 0.37766 0.0
H1120 H 0.12168 0.98708 0.63902 0.0
H1121 H 0.26051 0.05375 0.65429 0.0
H1122 H 0.29997 0.086 0.63918 0.0
H1123 H 0.29247 0.09987 0.62174 0.0
H1124 H 0.15129 0.03738 0.60659 0.0
H1125 H 0.11538 -0.00116 0.6215 0.0
C1126 C 0.16089 0.00814 0.63901 0.0
C1127 C 0.18875 0.01682 0.64773 0.0
C1128 C 0.18277 0.02757 0.63032 0.0
C1129 C 0.23917 0.04472 0.64765 0.0
C1130 C 0.2614 0.06389 0.63902 0.0
C1131 C 0.25398 0.07752 0.6217 0.0
C1132 C 0.22512 0.07066 0.61304 0.0
C1133 C 0.23323 0.05611 0.63033 0.0
C1134 C 0.17523 0.04182 0.61309 0.0
C1135 C 0.15433 0.02027 0.62165 0.0
H1136 H 0.12767 -0.00071 0.87126 0.0
H1137 H 0.26655 0.93141 0.85614 0.0
H1138 H 0.30976 0.90746 0.87143 0.0
H1139 H 0.30558 0.90131 0.88912 0.0
H1140 H 0.16444 0.96574 0.90409 0.0
H1141 H 0.12488 0.99588 0.88891 0.0
C1142 C 0.16766 0.97974 0.87133 0.0
C1143 C 0.19439 0.96815 0.8626 0.0
C1144 C 0.19184 0.96546 0.88014 0.0
C1145 C 0.24591 0.94233 0.86277 0.0
C1146 C 0.27034 0.92806 0.87152 0.0
C1147 C 0.26641 0.92245 0.88905 0.0
C1148 C 0.23868 0.93237 0.89776 0.0
C1149 C 0.24341 0.93892 0.88024 0.0
C1150 C 0.18771 0.95931 0.89756 0.0
C1151 C 0.16463 0.97594 0.88885 0.0
H1152 H 0.69258 0.00582 0.9028 0.0
H1153 H 0.7901 0.14083 0.89243 0.0
H1154 H 0.77548 0.11089 0.87583 0.0
H1155 H 0.72854 0.05063 0.8642 0.0
H1156 H 0.62726 0.91844 0.8746 0.0
H1157 H 0.65032 0.9422 0.8912 0.0
C1158 C 0.71182 0.02772 0.89691 0.0
C1159 C 0.74315 0.0749 0.89884 0.0
C1160 C 0.70232 0.01084 0.88737 0.0
C1161 C 0.7661 0.10416 0.89112 0.0
C1162 C 0.75773 0.08708 0.88162 0.0
C1163 C 0.71292 0.02605 0.87009 0.0
C1164 C 0.67695 0.98229 0.86817 0.0
C1165 C 0.72517 0.04096 0.87964 0.0
C1166 C 0.65532 0.95211 0.87591 0.0
C1167 C 0.66833 0.96579 0.8854 0.0
H1168 H 0.71246 0.06403 0.64253 0.0
H1169 H 0.71158 0.90683 0.65669 0.0
H1170 H 0.74266 0.86228 0.64188 0.0
H1171 H 0.765 0.86746 0.62467 0.0
H1172 H 0.7732 0.02609 0.61093 0.0
H1173 H 0.74339 0.07014 0.62568 0.0
C1174 C 0.71976 0.0201 0.64237 0.0
C1175 C 0.7105 0.98884 0.6507 0.0
C1176 C 0.73774 0.9948 0.63384 0.0
C1177 C 0.71984 0.93198 0.65044 0.0
C1178 C 0.73697 0.9064 0.64194 0.0
C1179 C 0.7605 0.91173 0.62487 0.0
C1180 C 0.76874 0.94274 0.61644 0.0
C1181 C 0.7454 0.93734 0.63356 0.0
C1182 C 0.76388 0.00024 0.617 0.0
C1183 C 0.74777 0.02587 0.62555 0.0
H1184 H 0.71668 0.88613 0.39149 0.0
H1185 H 0.82664 3e-05 0.40531 0.0
H1186 H 0.85667 0.03405 0.38962 0.0
H1187 H 0.85547 0.02767 0.37191 0.0
H1188 H 0.74515 0.91432 0.35806 0.0
H1189 H 0.71113 0.884 0.37376 0.0
C1190 C 0.74671 0.91888 0.39104 0.0
C1191 C 0.76882 0.94116 0.39953 0.0
C1192 C 0.76376 0.93818 0.38198 0.0
C1193 C 0.80803 0.98322 0.39887 0.0
C1194 C 0.82559 0.0023 0.3899 0.0
C1195 C 0.8235 0.99681 0.37236 0.0
C1196 C 0.80226 0.97377 0.36386 0.0
C1197 C 0.8042 0.97966 0.38141 0.0
C1198 C 0.76117 0.93354 0.3645 0.0
C1199 C 0.7421 0.91587 0.37347 0.0
H1200 H 0.87259 0.97719 0.13985 0.0
H1201 H 0.77126 0.08335 0.1573 0.0
H1202 H 0.72331 0.11489 0.14307 0.0
H1203 H 0.71135 0.11436 0.12553 0.0
H1204 H 0.82228 0.01862 0.10803 0.0
H1205 H 0.86483 0.98121 0.12235 0.0
C1206 C 0.83994 0.00718 0.14057 0.0
C1207 C 0.82429 0.02589 0.14975 0.0
C1208 C 0.81392 0.027 0.13229 0.0
C1209 C 0.78251 0.06556 0.15048 0.0
C1210 C 0.75551 0.08452 0.14227 0.0
C1211 C 0.74464 0.08504 0.12485 0.0
C1212 C 0.76154 0.06739 0.11567 0.0
C1213 C 0.77084 0.06547 0.13314 0.0
C1214 C 0.80574 0.0305 0.11493 0.0
C1215 C 0.83104 0.00979 0.12315 0.0
H1216 H 0.8611 0.53172 0.63851 0.0
H1217 H 0.75029 0.42409 0.65359 0.0
H1218 H 0.71597 0.38842 0.63829 0.0
H1219 H 0.72202 0.38345 0.62058 0.0
H1220 H 0.83271 0.49117 0.60552 0.0
H1221 H 0.86242 0.53142 0.62078 0.0
C1222 C 0.82887 0.50102 0.63842 0.0
C1223 C 0.80762 0.48116 0.64714 0.0
C1224 C 0.80954 0.48058 0.62958 0.0
C1225 C 0.76625 0.44105 0.64696 0.0
C1226 C 0.74705 0.42022 0.63821 0.0
C1227 C 0.75211 0.41624 0.62067 0.0
C1228 C 0.77463 0.43495 0.61196 0.0
C1229 C 0.76895 0.43911 0.62948 0.0
C1230 C 0.81391 0.47708 0.61213 0.0
C1231 C 0.83123 0.49973 0.62086 0.0
H1232 H 0.73946 0.52237 0.86045 0.0
H1233 H 0.8801 0.43808 0.87204 0.0
H1234 H 0.85088 0.4614 0.88838 0.0
H1235 H 0.78944 0.51218 0.89919 0.0
H1236 H 0.64899 0.5967 0.88754 0.0
H1237 H 0.67373 0.56628 0.87137 0.0
C1238 C 0.76268 0.50744 0.86655 0.0
C1239 C 0.81124 0.47754 0.86506 0.0
C1240 C 0.74591 0.52146 0.8759 0.0
C1241 C 0.8423 0.4608 0.87304 0.0
C1242 C 0.82567 0.47417 0.88237 0.0
C1243 C 0.76318 0.52241 0.89318 0.0
C1244 C 0.71693 0.55594 0.8946 0.0
C1245 C 0.77799 0.50524 0.88388 0.0
C1246 C 0.68474 0.57076 0.88664 0.0
C1247 C 0.69886 0.55344 0.87739 0.0
H1248 H 0.75134 0.61651 0.11954 0.0
H1249 H 0.681 0.48042 0.10399 0.0
H1250 H 0.65287 0.43799 0.11913 0.0
H1251 H 0.64389 0.44204 0.13683 0.0
H1252 H 0.71147 0.58028 0.15218 0.0
H1253 H 0.74503 0.61914 0.13715 0.0
C1254 C 0.73031 0.57727 0.11947 0.0
C1255 C 0.71926 0.55123 0.11064 0.0
C1256 C 0.71358 0.55352 0.1282 0.0
C1257 C 0.69162 0.50061 0.11067 0.0
C1258 C 0.67487 0.47662 0.11934 0.0
C1259 C 0.66638 0.48045 0.13687 0.0
C1260 C 0.67622 0.50751 0.14566 0.0
C1261 C 0.6851 0.503 0.12814 0.0
C1262 C 0.70497 0.55749 0.1456 0.0
C1263 C 0.72363 0.58017 0.13697 0.0
H1264 H 0.77924 0.39476 0.38761 0.0
H1265 H 0.68527 0.51284 0.40395 0.0
H1266 H 0.65381 0.55521 0.38916 0.0
H1267 H 0.64902 0.5561 0.37146 0.0
H1268 H 0.73285 0.4295 0.35541 0.0
H1269 H 0.77184 0.39342 0.37013 0.0
C1270 C 0.75208 0.42998 0.38798 0.0
C1271 C 0.73632 0.45135 0.39698 0.0
C1272 C 0.73211 0.45276 0.37942 0.0
C1273 C 0.70052 0.49666 0.39724 0.0
C1274 C 0.68157 0.52052 0.38872 0.0
C1275 C 0.67614 0.52083 0.37118 0.0
C1276 C 0.68977 0.49722 0.36224 0.0
C1277 C 0.69676 0.49863 0.37977 0.0
C1278 C 0.72398 0.45075 0.36205 0.0
C1279 C 0.74563 0.4293 0.37053 0.0
H1280 H 0.14334 0.4732 0.37008 0.0
H1281 H 0.20954 0.60373 0.35266 0.0
H1282 H 0.24662 0.64815 0.36696 0.0
H1283 H 0.25751 0.65173 0.38459 0.0
H1284 H 0.18604 0.52404 0.402 0.0
H1285 H 0.15368 0.4769 0.3876 0.0
C1286 C 0.16617 0.51122 0.36941 0.0
C1287 C 0.17489 0.53421 0.36028 0.0
C1288 C 0.18641 0.53715 0.37769 0.0
C1289 C 0.20403 0.58382 0.35953 0.0
C1290 C 0.22464 0.60975 0.36774 0.0
C1291 C 0.23524 0.61334 0.38519 0.0
C1292 C 0.22576 0.59041 0.3943 0.0
C1293 C 0.21589 0.5869 0.37687 0.0
C1294 C 0.19586 0.5413 0.39504 0.0
C1295 C 0.17675 0.51466 0.38681 0.0
H1296 H 0.24223 0.44205 0.14807 0.0
H1297 H 0.13543 0.57064 0.138 0.0
H1298 H 0.15887 0.54848 0.12134 0.0
H1299 H 0.20351 0.48723 0.10959 0.0
H1300 H 0.30684 0.35583 0.11965 0.0
H1301 H 0.29137 0.38438 0.13631 0.0
C1302 C 0.22544 0.46628 0.14224 0.0
C1303 C 0.18785 0.50855 0.14428 0.0
C1304 C 0.23807 0.45233 0.13265 0.0
C1305 C 0.16473 0.53812 0.13661 0.0
C1306 C 0.178 0.52537 0.12708 0.0
C1307 C 0.22384 0.46586 0.11542 0.0
C1308 C 0.25707 0.42008 0.11338 0.0
C1309 C 0.21381 0.48187 0.125 0.0
C1310 C 0.28139 0.39145 0.12104 0.0
C1311 C 0.27251 0.40772 0.13057 0.0
H1312 H 0.35562 0.52133 0.86793 0.0
H1313 H 0.24674 0.41266 0.85265 0.0
H1314 H 0.20644 0.38221 0.86787 0.0
H1315 H 0.20655 0.38224 0.88561 0.0
H1316 H 0.3152 0.49127 0.90087 0.0
H1317 H 0.35095 0.52631 0.88563 0.0
C1318 C 0.32255 0.49154 0.86797 0.0
C1319 C 0.30356 0.46974 0.85923 0.0
C1320 C 0.29968 0.47431 0.87674 0.0
C1321 C 0.26107 0.43086 0.85931 0.0
C1322 C 0.2384 0.41312 0.868 0.0
C1323 C 0.23747 0.41425 0.88556 0.0
C1324 C 0.25766 0.43481 0.89431 0.0
C1325 C 0.25788 0.43403 0.87677 0.0
C1326 C 0.29808 0.47586 0.89421 0.0
C1327 C 0.31891 0.49548 0.8855 0.0
H1328 H 0.27385 0.55074 0.64554 0.0
H1329 H 0.39107 0.4314 0.63542 0.0
H1330 H 0.36852 0.45392 0.61874 0.0
H1331 H 0.32048 0.51277 0.60705 0.0
H1332 H 0.208 0.63626 0.61726 0.0
H1333 H 0.22302 0.60674 0.63386 0.0
C1334 C 0.29335 0.52871 0.63968 0.0
C1335 C 0.33339 0.48886 0.64169 0.0
C1336 C 0.28123 0.54297 0.63012 0.0
C1337 C 0.35986 0.46203 0.63403 0.0
C1338 C 0.34705 0.47494 0.6245 0.0
C1339 C 0.29839 0.53221 0.61291 0.0
C1340 C 0.26257 0.57597 0.61097 0.0
C1341 C 0.30845 0.516 0.62246 0.0
C1342 C 0.23547 0.60219 0.61862 0.0
C1343 C 0.24413 0.58541 0.6281 0.0
H1344 H 0.31799 0.62626 0.185 0.0
H1345 H 0.25716 0.62889 0.21421 0.0
H1346 H 0.29653 0.71912 0.21667 0.0
H1347 H 0.33123 0.80359 0.20954 0.0
H1348 H 0.40338 0.79971 0.18122 0.0
H1349 H 0.37547 0.70385 0.17935 0.0
C1350 C 0.31478 0.64581 0.192 0.0
C1351 C 0.28296 0.6213 0.19928 0.0
C1352 C 0.33802 0.69812 0.19344 0.0
C1353 C 0.28036 0.64691 0.20837 0.0
C1354 C 0.30261 0.69893 0.20979 0.0
C1355 C 0.34325 0.78154 0.20311 0.0
C1356 C 0.36787 0.80958 0.19541 0.0
C1357 C 0.32903 0.72598 0.20223 0.0
C1358 C 0.3824 0.77974 0.18712 0.0
C1359 C 0.36681 0.72477 0.18606 0.0
H1360 H 0.46814 0.14143 0.43971 0.0
H1361 H 0.41587 0.05954 0.46567 0.0
H1362 H 0.50875 0.03072 0.46887 0.0
H1363 H 0.60085 0.01568 0.46323 0.0
H1364 H 0.65178 0.07944 0.4357 0.0
H1365 H 0.56445 0.12869 0.43422 0.0
C1366 C 0.47734 0.11752 0.44608 0.0
C1367 C 0.43496 0.10387 0.45254 0.0
C1368 C 0.53086 0.09741 0.44757 0.0
C1369 C 0.44756 0.07285 0.46076 0.0
C1370 C 0.50083 0.05546 0.46255 0.0
C1371 C 0.59377 0.04154 0.457 0.0
C1372 C 0.63273 0.04355 0.44956 0.0
C1373 C 0.54237 0.06611 0.45588 0.0
C1374 C 0.62239 0.07707 0.44153 0.0
C1375 C 0.57221 0.10474 0.44064 0.0
H1376 H 0.23229 0.34784 0.7077 0.0
H1377 H 0.18184 0.37911 0.67847 0.0
H1378 H 0.13068 0.29261 0.67829 0.0
H1379 H 0.11367 0.20145 0.68557 0.0
H1380 H 0.18096 0.16685 0.71362 0.0
H1381 H 0.21059 0.26119 0.71523 0.0
C1382 C 0.20902 0.33668 0.70135 0.0
C1383 C 0.21153 0.3697 0.69307 0.0
C1384 C 0.183 0.28552 0.70107 0.0
C1385 C 0.18093 0.35431 0.68493 0.0
C1386 C 0.15207 0.30458 0.6848 0.0
C1387 C 0.13454 0.21479 0.69205 0.0
C1388 C 0.14468 0.17692 0.69948 0.0
C1389 C 0.15513 0.26864 0.69267 0.0
C1390 C 0.17108 0.19502 0.70788 0.0
C1391 C 0.18888 0.24906 0.70877 0.0
H1392 H 0.03538 0.86611 0.95643 0.0
H1393 H 0.07553 0.93672 0.92883 0.0
H1394 H 0.98157 0.96557 0.92673 0.0
H1395 H 0.89381 0.98723 0.93386 0.0
H1396 H 0.85761 0.93629 0.96287 0.0
H1397 H 0.94358 0.88405 0.96337 0.0
C1398 C 0.0235 0.88772 0.94995 0.0
C1399 C 0.06296 0.89886 0.94281 0.0
C1400 C 0.9699 0.90862 0.94911 0.0
C1401 C 0.04636 0.92584 0.93436 0.0
C1402 C 0.99246 0.94338 0.9332 0.0
C1403 C 0.90369 0.96335 0.9402 0.0
C1404 C 0.8694 0.96575 0.94832 0.0
C1405 C 0.95461 0.93704 0.94068 0.0
C1406 C 0.8834 0.93512 0.95653 0.0
C1407 C 0.93275 0.90567 0.95683 0.0
H1408 H 0.3718 0.20799 0.32075 0.0
H1409 H 0.28466 0.15733 0.29518 0.0
H1410 H 0.25566 0.25051 0.29237 0.0
H1411 H 0.24126 0.34197 0.29837 0.0
H1412 H 0.30585 0.38962 0.326 0.0
H1413 H 0.35648 0.30245 0.32695 0.0
C1414 C 0.34631 0.21732 0.31459 0.0
C1415 C 0.33148 0.17521 0.30811 0.0
C1416 C 0.325 0.27067 0.31347 0.0
C1417 C 0.29903 0.18853 0.30009 0.0
C1418 C 0.28135 0.24201 0.29855 0.0
C1419 C 0.26767 0.33424 0.3045 0.0
C1420 C 0.2703 0.37245 0.31206 0.0
C1421 C 0.29258 0.28287 0.30534 0.0
C1422 C 0.30358 0.36096 0.32005 0.0
C1423 C 0.33204 0.31096 0.32062 0.0
H1424 H 0.88871 0.06064 0.55394 0.0
H1425 H 0.89087 0.02754 0.58447 0.0
H1426 H 0.98228 0.06599 0.58568 0.0
H1427 H 0.06719 0.08819 0.57749 0.0
H1428 H 0.06411 0.13682 0.54766 0.0
H1429 H 0.96744 0.11067 0.54669 0.0
C1430 C 0.9083 0.06362 0.56092 0.0
C1431 C 0.88374 0.03894 0.56901 0.0
C1432 C 0.9613 0.08628 0.56163 0.0
C1433 C 0.90928 0.0446 0.57804 0.0
C1434 C 0.9619 0.06629 0.57875 0.0
C1435 C 0.04547 0.09613 0.57087 0.0
C1436 C 0.07403 0.11285 0.56258 0.0
C1437 C 0.98936 0.08415 0.5705 0.0
C1438 C 0.04413 0.12132 0.55406 0.0
C1439 C 0.98852 0.10712 0.55352 0.0
H1440 H 0.11426 0.77731 0.82068 0.0
H1441 H 0.19503 0.83848 0.79523 0.0
H1442 H 0.23074 0.74779 0.79173 0.0
H1443 H 0.24999 0.65506 0.79695 0.0
H1444 H 0.18217 0.59528 0.82362 0.0
H1445 H 0.13011 0.68064 0.82554 0.0
C1446 C 0.1393 0.77041 0.81434 0.0
C1447 C 0.15114 0.81447 0.80815 0.0
C1448 C 0.16234 0.71832 0.81261 0.0
C1449 C 0.18373 0.80515 0.79996 0.0
C1450 C 0.20482 0.75327 0.798 0.0
C1451 C 0.22268 0.65988 0.80306 0.0
C1452 C 0.22017 0.61893 0.81015 0.0
C1453 C 0.19558 0.70998 0.80439 0.0
C1454 C 0.18495 0.62629 0.81807 0.0
C1455 C 0.15555 0.67528 0.81921 0.0
H1456 H 0.44466 0.86568 0.07424 0.0
H1457 H 0.40695 0.93814 0.04669 0.0
H1458 H 0.50098 0.96653 0.04482 0.0
H1459 H 0.58805 0.98759 0.05214 0.0
H1460 H 0.62085 0.93805 0.08134 0.0
H1461 H 0.53511 0.88517 0.08157 0.0
C1462 C 0.45701 0.88775 0.06784 0.0
C1463 C 0.41814 0.89921 0.06061 0.0
C1464 C 0.51047 0.90918 0.0672 0.0
C1465 C 0.4355 0.92668 0.05226 0.0
C1466 C 0.48949 0.94412 0.05124 0.0
C1467 C 0.57738 0.96405 0.05849 0.0
C1468 C 0.61068 0.96676 0.06671 0.0
C1469 C 0.52653 0.93769 0.05882 0.0
C1470 C 0.59577 0.93658 0.07491 0.0
C1471 C 0.54661 0.90673 0.07506 0.0
H1472 H 0.67868 0.35945 0.8277 0.0
H1473 H 0.71569 0.35583 0.7973 0.0
H1474 H 0.67556 0.26514 0.79598 0.0
H1475 H 0.64989 0.18075 0.8041 0.0
H1476 H 0.59958 0.18537 0.83385 0.0
H1477 H 0.62685 0.28184 0.83483 0.0
C1478 C 0.67642 0.33962 0.82073 0.0
C1479 C 0.70246 0.36364 0.81271 0.0
C1480 C 0.65281 0.28708 0.81996 0.0
C1481 C 0.69756 0.33792 0.80368 0.0
C1482 C 0.67483 0.28569 0.8029 0.0
C1483 C 0.64204 0.20288 0.8107 0.0
C1484 C 0.62436 0.17486 0.81898 0.0
C1485 C 0.6553 0.25876 0.8111 0.0
C1486 C 0.61558 0.20512 0.82747 0.0
C1487 C 0.63061 0.26051 0.82802 0.0
H1488 H 0.5481 0.86671 0.55894 0.0
H1489 H 0.59391 0.94864 0.58526 0.0
H1490 H 0.49986 0.97832 0.58771 0.0
H1491 H 0.40924 0.99487 0.58104 0.0
H1492 H 0.36493 0.9235 0.55371 0.0
H1493 H 0.45273 0.87512 0.55308 0.0
C1494 C 0.53713 0.89046 0.56526 0.0
C1495 C 0.57794 0.90521 0.57191 0.0
C1496 C 0.48309 0.90966 0.56642 0.0
C1497 C 0.56325 0.93563 0.58012 0.0
C1498 C 0.50942 0.95323 0.58148 0.0
C1499 C 0.41789 0.96737 0.57509 0.0
C1500 C 0.38084 0.96347 0.56738 0.0
C1501 C 0.46951 0.94219 0.57451 0.0
C1502 C 0.39293 0.92761 0.55972 0.0
C1503 C 0.44339 0.90035 0.5593 0.0
H1504 H 0.76404 0.65142 0.298 0.0
H1505 H 0.81969 0.60838 0.32642 0.0
H1506 H 0.86858 0.6961 0.32764 0.0
H1507 H 0.88082 0.79117 0.32171 0.0
H1508 H 0.80328 0.83698 0.29498 0.0
H1509 H 0.77963 0.7426 0.29186 0.0
C1510 C 0.78843 0.6603 0.30434 0.0
C1511 C 0.78827 0.6236 0.3121 0.0
C1512 C 0.81211 0.71225 0.30532 0.0
C1513 C 0.81935 0.6361 0.32033 0.0
C1514 C 0.84671 0.68649 0.32107 0.0
C1515 C 0.85888 0.78038 0.31521 0.0
C1516 C 0.84466 0.82156 0.30856 0.0
C1517 C 0.84082 0.72608 0.31381 0.0
C1518 C 0.81687 0.80656 0.30009 0.0
C1519 C 0.80231 0.75232 0.29835 0.0
H1520 H 0.0917 0.01763 0.08085 0.0
H1521 H 0.13111 0.07272 0.05221 0.0
H1522 H 0.04314 0.12132 0.05133 0.0
H1523 H 0.94895 0.13411 0.05771 0.0
H1524 H 0.90692 0.05905 0.08485 0.0
H1525 H 0.00158 0.03395 0.08743 0.0
C1526 C 0.08204 0.04179 0.07453 0.0
C1527 C 0.11782 0.0415 0.06661 0.0
C1528 C 0.02999 0.06554 0.07377 0.0
C1529 C 0.10418 0.07241 0.05842 0.0
C1530 C 0.05362 0.09961 0.05787 0.0
C1531 C 0.96065 0.11237 0.06418 0.0
C1532 C 0.92056 0.09912 0.0711 0.0
C1533 C 0.01503 0.09399 0.06532 0.0
C1534 C 0.93667 0.07159 0.07952 0.0
C1535 C 0.99098 0.05635 0.08096 0.0
H1536 H 0.61439 0.78589 0.70678 0.0
H1537 H 0.68932 0.83247 0.67982 0.0
H1538 H 0.71502 0.73867 0.67679 0.0
H1539 H 0.73198 0.64778 0.68286 0.0
H1540 H 0.67947 0.60402 0.71147 0.0
H1541 H 0.6301 0.69154 0.71286 0.0
C1542 C 0.63655 0.77565 0.70027 0.0
C1543 C 0.64904 0.81697 0.69351 0.0
C1544 C 0.65603 0.7217 0.69892 0.0
C1545 C 0.67676 0.80212 0.68501 0.0
C1546 C 0.69262 0.74816 0.68332 0.0
C1547 C 0.70845 0.65643 0.68932 0.0
C1548 C 0.70944 0.61936 0.69705 0.0
C1549 C 0.68428 0.70815 0.69036 0.0
C1550 C 0.67927 0.63185 0.7054 0.0
C1551 C 0.65155 0.68212 0.70623 0.0
H1552 H 0.96413 0.87436 0.43893 0.0
H1553 H 0.92376 0.94831 0.46631 0.0
H1554 H 0.01751 0.97698 0.4684 0.0
H1555 H 0.10589 0.99563 0.46152 0.0
H1556 H 0.14308 0.94335 0.43256 0.0
H1557 H 0.05653 0.89199 0.432 0.0
C1558 C 0.97594 0.89669 0.44535 0.0
C1559 C 0.93652 0.908 0.45252 0.0
C1560 C 0.0296 0.91773 0.44616 0.0
C1561 C 0.95293 0.93659 0.46083 0.0
C1562 C 0.00674 0.9541 0.46197 0.0
C1563 C 0.09599 0.97213 0.45511 0.0
C1564 C 0.13083 0.97392 0.44706 0.0
C1565 C 0.04479 0.94661 0.45456 0.0
C1566 C 0.11694 0.94292 0.43887 0.0
C1567 C 0.06718 0.914 0.43851 0.0
H1568 H 0.8418 0.17733 0.18386 0.0
H1569 H 0.90866 0.19251 0.21245 0.0
H1570 H 0.87871 0.28839 0.21306 0.0
H1571 H 0.82179 0.3629 0.2061 0.0
H1572 H 0.76735 0.3482 0.17662 0.0
H1573 H 0.80865 0.25793 0.1755 0.0
C1574 C 0.8526 0.20173 0.19007 0.0
C1575 C 0.87636 0.17696 0.19818 0.0
C1576 C 0.83778 0.25718 0.1902 0.0
C1577 C 0.88839 0.20983 0.20624 0.0
C1578 C 0.87184 0.26487 0.20655 0.0
C1579 C 0.82044 0.34072 0.19934 0.0
C1580 C 0.78966 0.36164 0.19159 0.0
C1581 C 0.84456 0.28836 0.19868 0.0
C1582 C 0.78957 0.33282 0.1828 0.0
C1583 C 0.81287 0.28082 0.18215 0.0
H1584 H 0.39411 0.01043 0.96231 0.0
H1585 H 0.35461 0.07091 0.93403 0.0
H1586 H 0.4425 0.1201 0.93345 0.0
H1587 H 0.53597 0.134 0.94011 0.0
H1588 H 0.57847 0.05204 0.9666 0.0
H1589 H 0.48425 0.02483 0.9689 0.0
C1590 C 0.40377 0.03575 0.95612 0.0
C1591 C 0.36776 0.03734 0.94826 0.0
C1592 C 0.45571 0.05975 0.95551 0.0
C1593 C 0.38159 0.06939 0.94021 0.0
C1594 C 0.43207 0.09695 0.93984 0.0
C1595 C 0.52452 0.11022 0.94638 0.0
C1596 C 0.56456 0.09628 0.95326 0.0
C1597 C 0.4705 0.09034 0.94728 0.0
C1598 C 0.54873 0.06569 0.96137 0.0
C1599 C 0.49467 0.04913 0.96263 0.0
H1600 H 0.82692 0.30882 0.71176 0.0
H1601 H 0.89847 0.29786 0.68343 0.0
H1602 H 0.8724 0.20104 0.68254 0.0
H1603 H 0.81579 0.1245 0.68907 0.0
H1604 H 0.7606 0.13425 0.71857 0.0
H1605 H 0.79817 0.22586 0.71998 0.0
C1606 C 0.8397 0.28535 0.70555 0.0
C1607 C 0.86266 0.31172 0.69752 0.0
C1608 C 0.82774 0.22915 0.70531 0.0
C1609 C 0.87796 0.27951 0.68953 0.0
C1610 C 0.86371 0.22388 0.68906 0.0
C1611 C 0.81371 0.1459 0.6959 0.0
C1612 C 0.78354 0.1231 0.70357 0.0
C1613 C 0.8363 0.19889 0.69677 0.0
C1614 C 0.78251 0.15089 0.71246 0.0
C1615 C 0.80362 0.20375 0.71328 0.0
H1616 H 0.08771 0.50363 0.92971 0.0
H1617 H 0.13235 0.56708 0.95759 0.0
H1618 H 0.04458 0.61653 0.9585 0.0
H1619 H 0.9504 0.63098 0.95218 0.0
H1620 H 0.90295 0.54555 0.92623 0.0
H1621 H 0.99653 0.5174 0.92358 0.0
C1622 C 0.07918 0.52949 0.93589 0.0
C1623 C 0.11673 0.53198 0.94354 0.0
C1624 C 0.02742 0.55373 0.93671 0.0
C1625 C 0.10423 0.5648 0.95158 0.0
C1626 C 0.05385 0.59257 0.95213 0.0
C1627 C 0.96045 0.60602 0.94597 0.0
C1628 C 0.91912 0.59154 0.93934 0.0
C1629 C 0.01416 0.58541 0.9449 0.0
C1630 C 0.93352 0.55973 0.93127 0.0
C1631 C 0.98726 0.54256 0.92981 0.0
H1632 H 0.63751 0.70139 0.20547 0.0
H1633 H 0.70723 0.65537 0.17809 0.0
H1634 H 0.74191 0.74777 0.17583 0.0
H1635 H 0.76519 0.83665 0.18265 0.0
H1636 H 0.70622 0.88071 0.2109 0.0
H1637 H 0.65434 0.79497 0.21176 0.0
C1638 C 0.65979 0.71198 0.19898 0.0
C1639 C 0.66938 0.67158 0.19195 0.0
C1640 C 0.68205 0.76491 0.19791 0.0
C1641 C 0.698 0.68581 0.18353 0.0
C1642 C 0.71854 0.73865 0.18227 0.0
C1643 C 0.73981 0.82836 0.18889 0.0
C1644 C 0.74011 0.86483 0.19673 0.0
C1645 C 0.71237 0.77795 0.18954 0.0
C1646 C 0.70704 0.85316 0.20478 0.0
C1647 C 0.67768 0.8039 0.20531 0.0
H1648 H 0.57395 0.45062 0.43218 0.0
H1649 H 0.5475 0.35665 0.45803 0.0
H1650 H 0.45363 0.39224 0.45909 0.0
H1651 H 0.38228 0.45807 0.45326 0.0
H1652 H 0.40837 0.53784 0.42587 0.0
H1653 H 0.49789 0.49641 0.42452 0.0
C1654 C 0.54742 0.43545 0.43782 0.0
C1655 C 0.56855 0.40174 0.4451 0.0
C1656 C 0.49293 0.45339 0.43809 0.0
C1657 C 0.53306 0.38426 0.45249 0.0
C1658 C 0.47914 0.40417 0.45305 0.0
C1659 C 0.40703 0.46514 0.44689 0.0
C1660 C 0.38848 0.50174 0.43977 0.0
C1661 C 0.45906 0.44014 0.44601 0.0
C1662 C 0.42098 0.50993 0.4315 0.0
C1663 C 0.47278 0.48665 0.43073 0.0
H1664 H 0.81216 0.68293 0.80246 0.0
H1665 H 0.88074 0.68071 0.83104 0.0
H1666 H 0.85581 0.77717 0.83316 0.0
H1667 H 0.80193 0.85753 0.82751 0.0
H1668 H 0.74846 0.86126 0.79788 0.0
H1669 H 0.78447 0.76973 0.79535 0.0
C1670 C 0.82438 0.70353 0.809 0.0
C1671 C 0.84659 0.6735 0.81669 0.0
C1672 C 0.81288 0.75965 0.80998 0.0
C1673 C 0.86102 0.7019 0.82515 0.0
C1674 C 0.84744 0.75736 0.82633 0.0
C1675 C 0.7998 0.83915 0.82041 0.0
C1676 C 0.77042 0.86568 0.81303 0.0
C1677 C 0.82126 0.7861 0.81891 0.0
C1678 C 0.76947 0.84158 0.80381 0.0
C1679 C 0.78973 0.78881 0.80234 0.0
H1680 H 0.39491 0.50203 0.048 0.0
H1681 H 0.34628 0.5656 0.0757 0.0
H1682 H 0.43278 0.61621 0.07688 0.0
H1683 H 0.52786 0.63079 0.07106 0.0
H1684 H 0.57809 0.55489 0.04441 0.0
H1685 H 0.48561 0.52154 0.04174 0.0
C1686 C 0.4023 0.52827 0.05417 0.0
C1687 C 0.36427 0.52977 0.06177 0.0
C1688 C 0.45318 0.55445 0.05505 0.0
C1689 C 0.37498 0.56362 0.06976 0.0
C1690 C 0.42468 0.59212 0.07048 0.0
C1691 C 0.51821 0.60729 0.06465 0.0
C1692 C 0.55972 0.59581 0.05791 0.0
C1693 C 0.46511 0.58581 0.06336 0.0
C1694 C 0.54677 0.56557 0.0496 0.0
C1695 C 0.49387 0.54591 0.04811 0.0
H1696 H 0.60993 0.29146 0.30533 0.0
H1697 H 0.68722 0.33884 0.33201 0.0
H1698 H 0.71114 0.24449 0.33524 0.0
H1699 H 0.72533 0.15222 0.32933 0.0
H1700 H 0.66712 0.1068 0.30116 0.0
H1701 H 0.62036 0.19551 0.29968 0.0
C1702 C 0.63182 0.28101 0.31186 0.0
C1703 C 0.64589 0.32252 0.31846 0.0
C1704 C 0.64927 0.22659 0.31338 0.0
C1705 C 0.67385 0.30803 0.32693 0.0
C1706 C 0.68842 0.25385 0.32875 0.0
C1707 C 0.70077 0.16084 0.323 0.0
C1708 C 0.69957 0.12303 0.31538 0.0
C1709 C 0.67802 0.21319 0.32188 0.0
C1710 C 0.6684 0.13527 0.30715 0.0
C1711 C 0.64231 0.18625 0.30625 0.0
H1712 H 0.9739 0.36702 0.57078 0.0
H1713 H 0.91172 0.45461 0.54613 0.0
H1714 H 0.00221 0.49021 0.54271 0.0
H1715 H 0.09534 0.50665 0.54771 0.0
H1716 H 0.1564 0.43461 0.57392 0.0
H1717 H 0.07091 0.38246 0.5757 0.0
C1718 C 0.98048 0.39375 0.56466 0.0
C1719 C 0.93621 0.40706 0.55861 0.0
C1720 C 0.03257 0.41706 0.56302 0.0
C1721 C 0.9452 0.44186 0.55071 0.0
C1722 C 0.99699 0.46293 0.54879 0.0
C1723 C 0.09082 0.47844 0.55369 0.0
C1724 C 0.13225 0.47451 0.56065 0.0
C1725 C 0.04061 0.45178 0.555 0.0
C1726 C 0.12511 0.43827 0.56843 0.0
C1727 C 0.07602 0.40891 0.5695 0.0
H1728 H 0.17872 0.8673 0.30381 0.0
H1729 H 0.2323 0.85699 0.33337 0.0
H1730 H 0.19051 0.76714 0.33487 0.0
H1731 H 0.15781 0.68509 0.32677 0.0
H1732 H 0.09116 0.69673 0.29812 0.0
H1733 H 0.12059 0.79251 0.29721 0.0
C1734 C 0.17967 0.84616 0.31067 0.0
C1735 C 0.21019 0.86819 0.31835 0.0
C1736 C 0.15504 0.79419 0.31156 0.0
C1737 C 0.20991 0.84085 0.32726 0.0
C1738 C 0.18639 0.78904 0.32813 0.0
C1739 C 0.14698 0.70869 0.32047 0.0
C1740 C 0.12409 0.68274 0.31239 0.0
C1741 C 0.16156 0.76422 0.32017 0.0
C1742 C 0.1113 0.71481 0.30428 0.0
C1743 C 0.12757 0.76981 0.30379 0.0
H1744 H 0.87452 0.45378 0.07212 0.0
H1745 H 0.89183 0.52098 0.04351 0.0
H1746 H 0.98085 0.47796 0.04187 0.0
H1747 H 0.05957 0.43628 0.04956 0.0
H1748 H 0.04148 0.35692 0.07708 0.0
H1749 H 0.94726 0.39137 0.07826 0.0
C1750 C 0.89712 0.45781 0.06544 0.0
C1751 C 0.87695 0.49208 0.05809 0.0
C1752 C 0.9487 0.43227 0.06444 0.0
C1753 C 0.90644 0.49584 0.0494 0.0
C1754 C 0.95773 0.47144 0.04844 0.0
C1755 C 0.03472 0.42393 0.05563 0.0
C1756 C 0.05825 0.39474 0.06329 0.0
C1757 C 0.98017 0.44167 0.05607 0.0
C1758 C 0.02501 0.38086 0.0712 0.0
C1759 C 0.97097 0.40019 0.07185 0.0
H1760 H 0.24135 0.14525 0.79804 0.0
H1761 H 0.30908 0.10144 0.82565 0.0
H1762 H 0.36318 0.18627 0.82574 0.0
H1763 H 0.37977 0.27918 0.81903 0.0
H1764 H 0.29501 0.32629 0.79307 0.0
H1765 H 0.2606 0.23387 0.79114 0.0
C1766 C 0.26884 0.15333 0.80401 0.0
C1767 C 0.27065 0.11718 0.81187 0.0
C1768 C 0.29667 0.20347 0.80431 0.0
C1769 C 0.30663 0.1287 0.81952 0.0
C1770 C 0.33723 0.17742 0.8196 0.0
C1771 C 0.35398 0.26897 0.81294 0.0
C1772 C 0.3406 0.30977 0.80617 0.0
C1773 C 0.33061 0.21627 0.81223 0.0
C1774 C 0.30759 0.29575 0.79825 0.0
C1775 C 0.28705 0.24285 0.7972 0.0
H1776 H 0.59849 0.49022 0.54836 0.0
H1777 H 0.64424 0.55537 0.5761 0.0
H1778 H 0.56068 0.61136 0.57636 0.0
H1779 H 0.46873 0.63151 0.56965 0.0
H1780 H 0.41953 0.55123 0.54334 0.0
H1781 H 0.51058 0.51314 0.54143 0.0
C1782 C 0.59104 0.51752 0.5544 0.0
C1783 C 0.62742 0.51825 0.56223 0.0
C1784 C 0.5418 0.54693 0.55475 0.0
C1785 C 0.61674 0.5538 0.56999 0.0
C1786 C 0.56882 0.58557 0.57017 0.0
C1787 C 0.47825 0.60602 0.56347 0.0
C1788 C 0.43731 0.59497 0.5566 0.0
C1789 C 0.53 0.58075 0.56275 0.0
C1790 C 0.45032 0.56212 0.54859 0.0
C1791 C 0.50237 0.53942 0.54756 0.0
H1792 H 0.17514 0.30306 0.20771 0.0
H1793 H 0.12062 0.29562 0.17823 0.0
H1794 H 0.14743 0.19884 0.17746 0.0
H1795 H 0.19868 0.12124 0.18469 0.0
H1796 H 0.24136 0.12869 0.21483 0.0
H1797 H 0.20191 0.21985 0.216 0.0
C1798 C 0.16622 0.28026 0.20123 0.0
C1799 C 0.14696 0.30741 0.19298 0.0
C1800 C 0.17918 0.22434 0.20098 0.0
C1801 C 0.13749 0.27647 0.18459 0.0
C1802 C 0.15219 0.22091 0.18418 0.0
C1803 C 0.19776 0.142 0.19159 0.0
C1804 C 0.2249 0.11877 0.19957 0.0
C1805 C 0.17506 0.19499 0.19225 0.0
C1806 C 0.222 0.14582 0.2085 0.0
C1807 C 0.19983 0.19835 0.20918 0.0
H1808 H 0.60833 0.43501 0.93419 0.0
H1809 H 0.60438 0.48937 0.96379 0.0
H1810 H 0.5152 0.44794 0.96597 0.0
H1811 H 0.43134 0.41598 0.95842 0.0
H1812 H 0.43808 0.34357 0.93011 0.0
H1813 H 0.53336 0.37348 0.92842 0.0
C1814 C 0.58876 0.4362 0.94119 0.0
C1815 C 0.6121 0.46751 0.94866 0.0
C1816 C 0.53745 0.41076 0.94255 0.0
C1817 C 0.58695 0.46708 0.95779 0.0
C1818 C 0.53556 0.44351 0.95907 0.0
C1819 C 0.45372 0.40386 0.95205 0.0
C1820 C 0.4263 0.38006 0.94421 0.0
C1821 C 0.5092 0.41809 0.95134 0.0
C1822 C 0.45718 0.36498 0.93606 0.0
C1823 C 0.51191 0.38154 0.93511 0.0
H1824 H 0.31558 0.67638 0.70696 0.0
H1825 H 0.38919 0.6933 0.67889 0.0
H1826 H 0.35847 0.78889 0.67822 0.0
H1827 H 0.2997 0.86321 0.68497 0.0
H1828 H 0.24046 0.84719 0.71416 0.0
H1829 H 0.28062 0.75659 0.71526 0.0
C1830 C 0.32769 0.70106 0.70086 0.0
C1831 C 0.35353 0.67673 0.69289 0.0
C1832 C 0.31259 0.75649 0.70074 0.0
C1833 C 0.36725 0.71016 0.68499 0.0
C1834 C 0.35021 0.76506 0.68464 0.0
C1835 C 0.29699 0.84061 0.69166 0.0
C1836 C 0.26531 0.86151 0.69933 0.0
C1837 C 0.32099 0.78811 0.69236 0.0
C1838 C 0.26341 0.832 0.70803 0.0
C1839 C 0.28614 0.77978 0.70868 0.0
H1840 H 0.88269 0.55847 0.43612 0.0
H1841 H 0.90866 0.47538 0.46319 0.0
H1842 H 0.99775 0.5176 0.46478 0.0
H1843 H 0.07376 0.56506 0.45731 0.0
H1844 H 0.04637 0.66304 0.43198 0.0
H1845 H 0.9528 0.62695 0.43076 0.0
C1846 C 0.90734 0.55081 0.44246 0.0
C1847 C 0.88918 0.51288 0.4494 0.0
C1848 C 0.95881 0.57661 0.44354 0.0
C1849 C 0.92133 0.50406 0.45768 0.0
C1850 C 0.97276 0.52791 0.4586 0.0
C1851 C 0.04703 0.5809 0.45176 0.0
C1852 C 0.06788 0.61559 0.4446 0.0
C1853 C 0.99269 0.56254 0.45141 0.0
C1854 C 0.03207 0.63453 0.43739 0.0
C1855 C 0.9784 0.61423 0.43672 0.0
H1856 H 0.37531 0.97261 0.27165 0.0
H1857 H 0.19914 0.95441 0.27216 0.0
H1858 H 0.19605 0.96348 0.25471 0.0
H1859 H 0.24275 0.97791 0.23931 0.0
H1860 H 0.41871 0.99722 0.23865 0.0
H1861 H 0.42236 0.98621 0.25611 0.0
C1862 C 0.33625 0.9704 0.26795 0.0
C1863 C 0.28753 0.96279 0.27326 0.0
C1864 C 0.33465 0.97592 0.25787 0.0
C1865 C 0.2373 0.9603 0.2683 0.0
C1866 C 0.23545 0.96546 0.2583 0.0
C1867 C 0.282 0.97956 0.24296 0.0
C1868 C 0.33037 0.98847 0.23764 0.0
C1869 C 0.2838 0.97349 0.25301 0.0
C1870 C 0.38078 0.99053 0.24254 0.0
C1871 C 0.38292 0.98424 0.25254 0.0
H1872 H 0.25202 0.11929 0.52251 0.0
H1873 H 0.3494 0.97127 0.52173 0.0
H1874 H 0.33519 0.96384 0.50443 0.0
H1875 H 0.29583 -0.00053 0.48946 0.0
H1876 H 0.20052 0.14875 0.49008 0.0
H1877 H 0.21314 0.1554 0.50747 0.0
C1878 C 0.27016 0.08543 0.51856 0.0
C1879 C 0.30177 0.04596 0.52344 0.0
C1880 C 0.26215 0.0815 0.50856 0.0
C1881 C 0.325 0.00237 0.51818 0.0
C1882 C 0.31684 0.99798 0.50827 0.0
C1883 C 0.27757 0.03332 0.4934 0.0
C1884 C 0.24713 0.07342 0.48847 0.0
C1885 C 0.28553 0.03729 0.50338 0.0
C1886 C 0.22419 0.11729 0.49369 0.0
C1887 C 0.23138 0.12116 0.50364 0.0
H1888 H 0.09114 0.98348 0.73947 0.0
H1889 H 0.2651 0.00909 0.73566 0.0
H1890 H 0.27586 0.02383 0.75288 0.0
H1891 H 0.2365 0.02864 0.76904 0.0
H1892 H 0.06263 0.00391 0.77302 0.0
H1893 H 0.05131 0.98982 0.75573 0.0
C1894 C 0.13139 0.99222 0.74241 0.0
C1895 C 0.17723 0.99497 0.73627 0.0
C1896 C 0.13737 0.0009 0.75235 0.0
C1897 C 0.22906 0.00669 0.7402 0.0
C1898 C 0.23533 0.01512 0.75006 0.0
C1899 C 0.19608 0.02022 0.76614 0.0
C1900 C 0.15054 0.01729 0.77232 0.0
C1901 C 0.18984 0.0122 0.7562 0.0
C1902 C 0.09842 0.00654 0.76842 0.0
C1903 C 0.0919 0.99835 0.75853 0.0
H1904 H 0.19532 0.88078 0.0214 0.0
H1905 H 0.28101 0.03286 0.02677 0.0
H1906 H 0.30072 0.04214 0.00968 0.0
H1907 H 0.29499 0.00696 0.99323 0.0
H1908 H 0.20841 0.85581 0.98761 0.0
H1909 H 0.18763 0.84652 1.00473 0.0
C1910 C 0.21821 0.91599 0.01883 0.0
C1911 C 0.23667 0.95599 0.02539 0.0
C1912 C 0.22931 0.92131 0.00893 0.0
C1913 C 0.26616 0.00143 0.02191 0.0
C1914 C 0.27757 0.00681 0.01212 0.0
C1915 C 0.2715 0.97196 0.99573 0.0
C1916 C 0.25352 0.93206 0.98912 0.0
C1917 C 0.25953 0.96696 0.00557 0.0
C1918 C 0.22286 0.88716 0.99252 0.0
C1919 C 0.21098 0.88176 1.00232 0.0
H1920 H 0.69995 0.09009 0.74584 0.0
H1921 H 0.59521 0.95203 0.7395 0.0
H1922 H 0.58721 0.93197 0.7567 0.0
H1923 H 0.6111 0.95331 0.77362 0.0
H1924 H 0.71955 0.08908 0.7796 0.0
H1925 H 0.72469 0.11044 0.7625 0.0
C1926 C 0.67519 0.05566 0.7482 0.0
C1927 C 0.64804 0.02277 0.74137 0.0
C1928 C 0.67142 0.04396 0.75807 0.0
C1929 C 0.61659 0.97802 0.74458 0.0
C1930 C 0.61193 0.96658 0.75443 0.0
C1931 C 0.63558 0.98772 0.77117 0.0
C1932 C 0.66483 0.0196 0.77789 0.0
C1933 C 0.63924 -0.00076 0.76125 0.0
C1934 C 0.69683 0.06372 0.77459 0.0
C1935 C 0.69977 0.07604 0.7648 0.0
H1936 H 0.79282 0.90763 0.49015 0.0
H1937 H 0.61901 0.91757 0.49586 0.0
H1938 H 0.63697 0.92102 0.51312 0.0
H1939 H 0.70215 0.92104 0.52669 0.0
H1940 H 0.87591 0.91161 0.52083 0.0
H1941 H 0.8577 0.90827 0.50362 0.0
C1942 C 0.75879 0.91054 0.49516 0.0
C1943 C 0.70462 0.91229 0.49167 0.0
C1944 C 0.76938 0.91268 0.5051 0.0
C1945 C 0.66115 0.91614 0.4983 0.0
C1946 C 0.67137 0.91813 0.5082 0.0
C1947 C 0.73605 0.91833 0.52165 0.0
C1948 C 0.79035 0.91659 0.5251 0.0
C1949 C 0.72534 0.91643 0.51169 0.0
C1950 C 0.83369 0.91308 0.51843 0.0
C1951 C 0.82335 0.91111 0.50855 0.0
H1952 H 0.87724 0.02265 0.27193 0.0
H1953 H 0.70299 0.99277 0.27397 0.0
H1954 H 0.69936 0.97271 0.2568 0.0
H1955 H 0.74536 0.96297 0.24126 0.0
H1956 H 0.91951 0.99273 0.23907 0.0
H1957 H 0.92339 0.01334 0.25626 0.0
C1958 C 0.83842 0.01201 0.26861 0.0
C1959 C 0.79046 0.00933 0.27424 0.0
C1960 C 0.83659 0.00025 0.25872 0.0
C1961 C 0.74057 0.99517 0.26982 0.0
C1962 C 0.73841 0.98361 0.26 0.0
C1963 C 0.78425 0.97387 0.24452 0.0
C1964 C 0.83207 0.97616 0.23887 0.0
C1965 C 0.78616 0.98585 0.25439 0.0
C1966 C 0.88205 0.99052 0.24325 0.0
C1967 C 0.88431 0.0024 0.25308 0.0
H1968 H 0.73913 0.127 0.02421 0.0
H1969 H 0.74131 0.95048 0.02697 0.0
H1970 H 0.75468 0.94094 0.00969 0.0
H1971 H 0.76458 0.98214 0.99374 0.0
H1972 H 0.76189 0.15847 0.9908 0.0
H1973 H 0.74994 0.16844 0.00815 0.0
C1974 C 0.74268 0.08647 0.02103 0.0
C1975 C 0.73911 0.0396 0.02691 0.0
C1976 C 0.75018 0.08111 0.01103 0.0
C1977 C 0.74377 0.98737 0.02265 0.0
C1978 C 0.75142 0.98177 0.01275 0.0
C1979 C 0.76144 0.02279 0.99688 0.0
C1980 C 0.76415 0.06941 0.99095 0.0
C1981 C 0.75446 0.02829 0.00686 0.0
C1982 C 0.76002 0.12178 0.99517 0.0
C1983 C 0.75314 0.12757 0.00511 0.0
H1984 H 0.86827 0.51099 0.77193 0.0
H1985 H 0.75607 0.37407 0.77252 0.0
H1986 H 0.74294 0.38123 0.75518 0.0
H1987 H 0.764 0.42544 0.73978 0.0
H1988 H 0.88013 0.55892 0.73893 0.0
H1989 H 0.89111 0.55399 0.75637 0.0
C1990 C 0.84084 0.48292 0.76825 0.0
C1991 C 0.81314 0.44216 0.77351 0.0
C1992 C 0.83425 0.48652 0.75822 0.0
C1993 C 0.7781 0.40569 0.76864 0.0
C1994 C 0.77045 0.40978 0.75872 0.0
C1995 C 0.79154 0.45358 0.74342 0.0
C1996 C 0.82097 0.49261 0.73807 0.0
C1997 C 0.79842 0.44989 0.75343 0.0
C1998 C 0.85703 0.52838 0.74288 0.0
C1999 C 0.86328 0.52567 0.75286 0.0
H2000 H 0.68759 0.54162 0.01958 0.0
H2001 H 0.81161 0.66777 0.01978 0.0
H2002 H 0.80486 0.67624 1.00228 0.0
H2003 H 0.7628 0.64798 0.98689 0.0
H2004 H 0.63379 0.52678 0.98707 0.0
H2005 H 0.64343 0.51601 1.00442 0.0
C2006 C 0.71329 0.57077 0.01578 0.0
C2007 C 0.75029 0.60371 0.02092 0.0
C2008 C 0.70823 0.57631 0.00578 0.0
C2009 C 0.78275 0.64199 0.01595 0.0
C2010 C 0.779 0.64677 0.00595 0.0
C2011 C 0.73703 0.61916 0.99075 0.0
C2012 C 0.69782 0.5881 0.98574 0.0
C2013 C 0.7418 0.61417 1.00079 0.0
C2014 C 0.66413 0.55133 0.9908 0.0
C2015 C 0.66967 0.54503 1.00071 0.0
H2016 H 0.63828 0.47778 0.23789 0.0
H2017 H 0.81492 0.4852 0.23594 0.0
H2018 H 0.82123 0.49678 0.25331 0.0
H2019 H 0.77721 0.50492 0.26908 0.0
H2020 H 0.60085 0.49599 0.27131 0.0
H2021 H 0.59398 0.4846 0.25386 0.0
C2022 C 0.67814 0.4821 0.24127 0.0
C2023 C 0.72604 0.48074 0.23557 0.0
C2024 C 0.68162 0.48827 0.25133 0.0
C2025 C 0.77733 0.48603 0.2401 0.0
C2026 C 0.78104 0.49266 0.25006 0.0
C2027 C 0.73719 0.5004 0.26578 0.0
C2028 C 0.68963 0.50143 0.27153 0.0
C2029 C 0.73353 0.49377 0.25575 0.0
C2030 C 0.63819 0.49529 0.26708 0.0
C2031 C 0.63421 0.4889 0.25709 0.0
H2032 H 0.79281 0.49053 0.49066 0.0
H2033 H 0.74327 0.32205 0.48646 0.0
H2034 H 0.72794 0.31224 0.50375 0.0
H2035 H 0.72871 0.35166 0.52003 0.0
H2036 H 0.77785 0.52045 0.52406 0.0
H2037 H 0.79322 0.52986 0.50682 0.0
C2038 C 0.77864 0.4516 0.49351 0.0
C2039 C 0.76925 0.40709 0.48728 0.0
C2040 C 0.76982 0.44629 0.50342 0.0
C2041 C 0.75089 0.35697 0.4911 0.0
C2042 C 0.74209 0.35132 0.50098 0.0
C2043 C 0.74273 0.39052 0.51714 0.0
C2044 C 0.75205 0.43529 0.52333 0.0
C2045 C 0.75143 0.39573 0.5072 0.0
C2046 C 0.77023 0.48535 0.51946 0.0
C2047 C 0.77909 0.4908 0.5096 0.0
H2048 H 0.12045 0.51668 0.23768 0.0
H2049 H 0.25643 0.40603 0.23316 0.0
H2050 H 0.26123 0.38839 0.25043 0.0
H2051 H 0.22759 0.40524 0.26681 0.0
H2052 H 0.09364 0.51837 0.27137 0.0
H2053 H 0.08737 0.5342 0.25407 0.0
C2054 C 0.15099 0.48851 0.24047 0.0
C2055 C 0.18796 0.46263 0.23414 0.0
C2056 C 0.154 0.47912 0.25041 0.0
C2057 C 0.22757 0.4266 0.23788 0.0
C2058 C 0.23033 0.41645 0.24775 0.0
C2059 C 0.19693 0.43328 0.26402 0.0
C2060 C 0.16107 0.46045 0.27038 0.0
C2061 C 0.19389 0.44264 0.25408 0.0
C2062 C 0.12181 0.49693 0.26664 0.0
C2063 C 0.11813 0.50598 0.25675 0.0
H2064 H 0.20579 0.3736 0.9877 0.0
H2065 H 0.31168 0.51282 0.98281 0.0
H2066 H 0.33058 0.51905 0.99998 0.0
H2067 H 0.3175 0.4854 0.01641 0.0
H2068 H 0.21021 0.34769 0.02157 0.0
H2069 H 0.1914 0.34067 1.00434 0.0
C2070 C 0.23305 0.40524 0.99039 0.0
C2071 C 0.25727 0.44264 0.98393 0.0
C2072 C 0.24348 0.409 1.00035 0.0
C2073 C 0.29229 0.48354 0.98758 0.0
C2074 C 0.30322 0.48716 0.99742 0.0
C2075 C 0.28996 0.4538 0.01379 0.0
C2076 C 0.26549 0.41705 0.02031 0.0
C2077 C 0.27906 0.45018 1.00387 0.0
C2078 C 0.22968 0.37658 0.01674 0.0
C2079 C 0.21893 0.37247 0.00687 0.0
H2080 H 0.23922 0.52119 0.76571 0.0
H2081 H 0.41451 0.50326 0.7688 0.0
H2082 H 0.42405 0.4927 0.7514 0.0
H2083 H 0.38254 0.48786 0.73529 0.0
H2084 H 0.20721 0.50636 0.7323 0.0
H2085 H 0.19798 0.51743 0.74965 0.0
C2086 C 0.27956 0.51498 0.7626 0.0
C2087 C 0.32603 0.51301 0.76858 0.0
C2088 C 0.28481 0.50903 0.75258 0.0
C2089 C 0.37798 0.50504 0.76438 0.0
C2090 C 0.38351 0.49894 0.75442 0.0
C2091 C 0.34231 0.49435 0.73843 0.0
C2092 C 0.29567 0.49617 0.73247 0.0
C2093 C 0.3372 0.50078 0.74845 0.0
C2094 C 0.24388 0.50482 0.73668 0.0
C2095 C 0.23849 0.5111 0.74663 0.0
H2096 H 0.29144 0.63088 0.52032 0.0
H2097 H 0.12559 0.5813 0.51381 0.0
H2098 H 0.14643 0.58355 0.49663 0.0
H2099 H 0.21175 0.5996 0.48339 0.0
H2100 H 0.37761 0.64899 0.48999 0.0
H2101 H 0.35666 0.64661 0.50714 0.0
C2102 C 0.25977 0.62055 0.51516 0.0
C2103 C 0.20697 0.60594 0.5184 0.0
C2104 C 0.27205 0.62179 0.50527 0.0
C2105 C 0.16658 0.5927 0.51156 0.0
C2106 C 0.17847 0.59395 0.50171 0.0
C2107 C 0.2434 0.60975 0.48857 0.0
C2108 C 0.29626 0.62441 0.48536 0.0
C2109 C 0.23108 0.60839 0.49847 0.0
C2110 C 0.33659 0.63754 0.49221 0.0
C2111 C 0.32466 0.63623 0.50205 0.0
H2112 H 0.55364 0.31428 0.18384 0.0
H2113 H 0.54033 0.34844 0.21422 0.0
H2114 H 0.49587 0.25948 0.21673 0.0
H2115 H 0.46166 0.17148 0.21025 0.0
H2116 H 0.47765 0.13798 0.17987 0.0
H2117 H 0.52149 0.22678 0.17747 0.0
C2118 C 0.54028 0.3028 0.191 0.0
C2119 C 0.5497 0.33836 0.19881 0.0
C2120 C 0.51633 0.25113 0.19243 0.0
C2121 C 0.53311 0.32209 0.20807 0.0
C2122 C 0.50811 0.27103 0.20952 0.0
C2123 C 0.47563 0.18322 0.20314 0.0
C2124 C 0.46661 0.14794 0.19526 0.0
C2125 C 0.50009 0.23493 0.20176 0.0
C2126 C 0.4842 0.16422 0.18606 0.0
C2127 C 0.50893 0.21518 0.18467 0.0
H2128 H 0.06709 0.17953 0.4342 0.0
H2129 H 0.11996 0.26104 0.46017 0.0
H2130 H 0.02959 0.30232 0.46206 0.0
H2131 H 0.93506 0.31296 0.45672 0.0
H2132 H 0.88154 0.2365 0.43038 0.0
H2133 H 0.97223 0.19411 0.42837 0.0
C2134 C 0.05914 0.20735 0.44013 0.0
C2135 C 0.10025 0.21731 0.44702 0.0
C2136 C 0.00655 0.23035 0.44128 0.0
C2137 C 0.08906 0.2528 0.45477 0.0
C2138 C 0.03724 0.276 0.45591 0.0
C2139 C 0.94284 0.28601 0.45065 0.0
C2140 C 0.90137 0.27652 0.44385 0.0
C2141 C 0.99543 0.26409 0.44933 0.0
C2142 C 0.91264 0.24332 0.43582 0.0
C2143 C 0.96459 0.21972 0.43461 0.0
H2144 H 0.93046 0.68009 0.68321 0.0
H2145 H 0.98524 0.63196 0.7115 0.0
H2146 H 0.02925 0.72067 0.71368 0.0
H2147 H 0.04927 0.81266 0.70794 0.0
H2148 H 0.00013 0.86142 0.67943 0.0
H2149 H 0.95558 0.77203 0.67701 0.0
C2150 C 0.95299 0.68866 0.68976 0.0
C2151 C 0.9544 0.64946 0.69719 0.0
C2152 C 0.97784 0.74028 0.69103 0.0
C2153 C 0.98336 0.66141 0.70568 0.0
C2154 C 0.00821 0.7123 0.70697 0.0
C2155 C 0.02795 0.80416 0.70125 0.0
C2156 C 0.02665 0.84393 0.69396 0.0
C2157 C 0.00466 0.75235 0.6998 0.0
C2158 C 0.00068 0.83164 0.68521 0.0
C2159 C 0.97575 0.78045 0.6838 0.0
H2160 H 0.43028 0.81938 0.93594 0.0
H2161 H 0.38419 0.76899 0.96457 0.0
H2162 H 0.47272 0.72232 0.96644 0.0
H2163 H 0.56243 0.69407 0.95964 0.0
H2164 H 0.60674 0.74682 0.93105 0.0
H2165 H 0.52005 0.79584 0.92957 0.0
C2166 C 0.43914 0.79767 0.94256 0.0
C2167 C 0.40025 0.79678 0.95004 0.0
C2168 C 0.49027 0.77237 0.94366 0.0
C2169 C 0.41317 0.76964 0.95866 0.0
C2170 C 0.46391 0.74335 0.95975 0.0
C2171 C 0.55355 0.71742 0.9532 0.0
C2172 C 0.59095 0.717 0.94547 0.0
C2173 C 0.50287 0.74458 0.9523 0.0
C2174 C 0.57861 0.74663 0.93709 0.0
C2175 C 0.52889 0.77427 0.93621 0.0
H2176 H 0.4432 0.82014 0.3005 0.0
H2177 H 0.47621 0.85849 0.33029 0.0
H2178 H 0.52578 0.77201 0.33203 0.0
H2179 H 0.55709 0.68477 0.32529 0.0
H2180 H 0.52494 0.6462 0.2955 0.0
H2181 H 0.47644 0.73347 0.29364 0.0
C2182 C 0.46184 0.81009 0.30735 0.0
C2183 C 0.45597 0.84599 0.31525 0.0
C2184 C 0.4894 0.75984 0.30836 0.0
C2185 C 0.48014 0.83184 0.32408 0.0
C2186 C 0.50816 0.78218 0.3251 0.0
C2187 C 0.53898 0.695 0.3184 0.0
C2188 C 0.54416 0.65859 0.31057 0.0
C2189 C 0.51226 0.74557 0.31734 0.0
C2190 C 0.5212 0.67319 0.30166 0.0
C2191 C 0.4938 0.72324 0.30058 0.0
H2192 H 0.56825 0.31714 0.57433 0.0
H2193 H 0.63914 0.21713 0.55192 0.0
H2194 H 0.55167 0.16968 0.54973 0.0
H2195 H 0.45413 0.15914 0.55377 0.0
H2196 H 0.38302 0.25961 0.57611 0.0
H2197 H 0.47102 0.3056 0.57855 0.0
C2198 C 0.56485 0.28398 0.56915 0.0
C2199 C 0.61016 0.27005 0.56339 0.0
C2200 C 0.51397 0.25827 0.5677 0.0
C2201 C 0.60487 0.22805 0.55651 0.0
C2202 C 0.55475 0.20141 0.55518 0.0
C2203 C 0.45767 0.19187 0.55903 0.0
C2204 C 0.41201 0.20661 0.56464 0.0
C2205 C 0.50873 0.21701 0.56059 0.0
C2206 C 0.41752 0.24805 0.57163 0.0
C2207 C 0.46792 0.27393 0.57309 0.0
H2208 H 0.92962 0.31015 0.8277 0.0
H2209 H 0.97491 0.35249 0.79858 0.0
H2210 H 0.022 0.26509 0.79678 0.0
H2211 H 0.04707 0.17582 0.8031 0.0
H2212 H 0.00651 0.13251 0.83233 0.0
H2213 H 0.95981 0.22112 0.83442 0.0
C2214 C 0.95052 0.30064 0.82102 0.0
C2215 C 0.94841 0.33788 0.81327 0.0
C2216 C 0.97726 0.2498 0.81998 0.0
C2217 C 0.97564 0.3247 0.80465 0.0
C2218 C 0.00232 0.27452 0.80359 0.0
C2219 C 0.02739 0.18527 0.80991 0.0
C2220 C 0.02912 0.14716 0.81749 0.0
C2221 C 0.00241 0.23646 0.81112 0.0
C2222 C 0.00497 0.16089 0.82635 0.0
C2223 C 0.97866 0.21162 0.82755 0.0
H2224 H 0.03773 0.84749 0.05589 0.0
H2225 H 0.10667 0.75148 0.0789 0.0
H2226 H 0.01786 0.70592 0.08135 0.0
H2227 H 0.92177 0.69076 0.07629 0.0
H2228 H 0.85373 0.79037 0.05359 0.0
H2229 H 0.94065 0.8388 0.05192 0.0
C2230 C 0.03344 0.81605 0.06136 0.0
C2231 C 0.07878 0.80142 0.06701 0.0
C2232 C 0.98218 0.79177 0.06293 0.0
C2233 C 0.07237 0.76234 0.07433 0.0
C2234 C 0.0216 0.73677 0.07579 0.0
C2235 C 0.92555 0.72415 0.07118 0.0
C2236 C 0.88146 0.73687 0.06504 0.0
C2237 C 0.97621 0.75106 0.07009 0.0
C2238 C 0.88713 0.7798 0.05838 0.0
C2239 C 0.93697 0.80711 0.05734 0.0
H2240 H 0.56207 0.80878 0.80408 0.0
H2241 H 0.5061 0.84443 0.83283 0.0
H2242 H 0.46299 0.75347 0.83377 0.0
H2243 H 0.43971 0.66476 0.82612 0.0
H2244 H 0.50069 0.62951 0.79758 0.0
H2245 H 0.54488 0.71897 0.79698 0.0
C2246 C 0.5397 0.79697 0.8105 0.0
C2247 C 0.53583 0.83361 0.81828 0.0
C2248 C 0.51704 0.74432 0.8111 0.0
C2249 C 0.5086 0.8171 0.82669 0.0
C2250 C 0.48444 0.76505 0.82725 0.0
C2251 C 0.46363 0.67618 0.81986 0.0
C2252 C 0.46657 0.6405 0.81189 0.0
C2253 C 0.4885 0.72823 0.81949 0.0
C2254 C 0.49752 0.65618 0.8038 0.0
C2255 C 0.52248 0.70753 0.80341 0.0
H2256 H 0.07458 0.71053 0.54903 0.0
H2257 H 0.12069 0.73105 0.5788 0.0
H2258 H 0.03266 0.77454 0.5822 0.0
H2259 H 0.94214 0.80479 0.57688 0.0
H2260 H 0.8957 0.78629 0.5471 0.0
H2261 H 0.98399 0.74273 0.5436 0.0
C2262 C 0.06578 0.72539 0.55622 0.0
C2263 C 0.10437 0.71776 0.56363 0.0
C2264 C 0.01458 0.74951 0.55818 0.0
C2265 C 0.09187 0.73654 0.57295 0.0
C2266 C 0.04135 0.76105 0.57493 0.0
C2267 C 0.95086 0.79048 0.56964 0.0
C2268 C 0.91202 0.79814 0.56229 0.0
C2269 C 0.00213 0.76696 0.56764 0.0
C2270 C 0.92465 0.7804 0.55292 0.0
C2271 C 0.9753 0.75592 0.5509 0.0
H2272 H 0.03806 0.32347 0.32613 0.0
H2273 H 0.00794 0.35625 0.29607 0.0
H2274 H 0.9609 0.2684 0.29448 0.0
H2275 H 0.93068 0.18186 0.30143 0.0
H2276 H 0.95952 0.14818 0.33148 0.0
H2277 H 0.00597 0.23671 0.3332 0.0
C2278 C 0.02045 0.31184 0.31926 0.0
C2279 C 0.02636 0.34656 0.31123 0.0
C2280 C 0.99434 0.26074 0.31834 0.0
C2281 C 0.00388 0.33044 0.30236 0.0
C2282 C 0.9773 0.28004 0.30143 0.0
C2283 C 0.94763 0.19339 0.30835 0.0
C2284 C 0.94206 0.15808 0.3163 0.0
C2285 C 0.97307 0.2446 0.30933 0.0
C2286 C 0.96359 0.17434 0.32523 0.0
C2287 C 0.98979 0.22511 0.32623 0.0
H2288 H 0.55749 0.17938 0.05249 0.0
H2289 H 0.61122 0.25819 0.07864 0.0
H2290 H 0.52384 0.30668 0.07987 0.0
H2291 H 0.43089 0.32349 0.07395 0.0
H2292 H 0.37633 0.2452 0.0478 0.0
H2293 H 0.46485 0.19866 0.04625 0.0
C2294 C 0.55051 0.2082 0.05832 0.0
C2295 C 0.59089 0.21559 0.06542 0.0
C2296 C 0.49951 0.23479 0.05913 0.0
C2297 C 0.58085 0.25213 0.07305 0.0
C2298 C 0.53073 0.27943 0.07381 0.0
C2299 C 0.43802 0.29562 0.06798 0.0
C2300 C 0.39679 0.28718 0.06108 0.0
C2301 C 0.48936 0.27014 0.06701 0.0
C2302 C 0.40723 0.25195 0.05327 0.0
C2303 C 0.45798 0.22569 0.05233 0.0
H2304 H 0.5532 0.17119 0.68476 0.0
H2305 H 0.52236 0.14591 0.71503 0.0
H2306 H 0.47466 0.2341 0.71586 0.0
H2307 H 0.44328 0.31891 0.70805 0.0
H2308 H 0.47448 0.34344 0.67778 0.0
H2309 H 0.52183 0.2552 0.67698 0.0
C2310 C 0.53559 0.18447 0.69154 0.0
C2311 C 0.54127 0.15165 0.69982 0.0
C2312 C 0.50927 0.23557 0.69201 0.0
C2313 C 0.5184 0.17005 0.70854 0.0
C2314 C 0.49149 0.2207 0.70903 0.0
C2315 C 0.46113 0.30537 0.7013 0.0
C2316 C 0.45575 0.33802 0.693 0.0
C2317 C 0.4873 0.25407 0.70084 0.0
C2318 C 0.47828 0.31931 0.68428 0.0
C2319 C 0.50504 0.2687 0.6838 0.0
H2320 H 0.43001 0.70563 0.4573 0.0
H2321 H 0.38544 0.77811 0.4301 0.0
H2322 H 0.47566 0.82193 0.42908 0.0
H2323 H 0.56802 0.83774 0.4358 0.0
H2324 H 0.61189 0.76268 0.46283 0.0
H2325 H 0.52143 0.72047 0.46388 0.0
C2326 C 0.43947 0.73185 0.45122 0.0
C2327 C 0.40067 0.73913 0.44385 0.0
C2328 C 0.49184 0.75526 0.45053 0.0
C2329 C 0.41432 0.77229 0.43593 0.0
C2330 C 0.4661 0.79688 0.4353 0.0
C2331 C 0.55811 0.81134 0.44183 0.0
C2332 C 0.59688 0.80306 0.44919 0.0
C2333 C 0.5055 0.78793 0.44249 0.0
C2334 C 0.58297 0.76952 0.45704 0.0
C2335 C 0.53108 0.74572 0.45769 0.0
H2336 H 0.93832 0.7995 0.20746 0.0
H2337 H 0.03705 0.87274 0.18515 0.0
H2338 H 0.08185 0.78449 0.18215 0.0
H2339 H 0.09127 0.68614 0.18563 0.0
H2340 H 0.99131 0.61278 0.20778 0.0
H2341 H 0.94728 0.70116 0.21086 0.0
C2342 C 0.97059 0.79637 0.2021 0.0
C2343 C 0.98515 0.84263 0.19665 0.0
C2344 C 0.99463 0.74519 0.20018 0.0
C2345 C 0.0258 0.83773 0.18953 0.0
C2346 C 0.05091 0.78721 0.18773 0.0
C2347 C 0.05903 0.68926 0.19099 0.0
C2348 C 0.04413 0.6429 0.1964 0.0
C2349 C 0.03495 0.74047 0.1929 0.0
C2350 C 0.00314 0.64784 0.20347 0.0
C2351 C 0.97838 0.69844 0.20531 0.0
H2352 H 0.92521 0.18689 0.93488 0.0
H2353 H 0.88216 0.24779 0.96308 0.0
H2354 H 0.96996 0.29517 0.96419 0.0
H2355 H 0.05981 0.31678 0.95748 0.0
H2356 H 0.10352 0.25824 0.92919 0.0
H2357 H 0.01497 0.21134 0.92788 0.0
C2358 C 0.93463 0.21145 0.94118 0.0
C2359 C 0.89714 0.21396 0.94887 0.0
C2360 C 0.98577 0.2378 0.94187 0.0
C2361 C 0.91029 0.24527 0.95705 0.0
C2362 C 0.96064 0.27203 0.95773 0.0
C2363 C 0.0504 0.29305 0.95108 0.0
C2364 C 0.0885 0.29023 0.9435 0.0
C2365 C -0.00095 0.26769 0.95027 0.0
C2366 C 0.07504 0.2605 0.93516 0.0
C2367 C 0.0243 0.23408 0.93438 0.0
loop_
_geom_bond_atom_site_label_1
_geom_bond_atom_site_label_2
_geom_bond_distance
_geom_bond_site_symmetry_2
_ccdc_geom_bond_type
Co0 O3 1.970 . S
Co0 N17 1.989 1_545 S
Co0 O25 1.967 . S
Co0 O32 1.920 . S
Co1 O4 1.966 . S
Co1 N10 2.022 . S
Co1 N18 1.993 1_545 S
Co1 O26 1.941 . S
C2 O3 1.258 . S
C2 O4 1.263 . S
O3 Co0 1.970 . S
O3 C2 1.258 . S
O4 Co1 1.966 . S
O4 C2 1.263 . S
C5 O6 1.235 . S
C5 O32 1.289 . S
O6 C5 1.235 . S
C7 C9 1.400 . S
C7 N10 1.351 . S
C7 C12 1.501 . S
C8 C9 1.387 . S
C8 N11 1.341 . S
C9 C7 1.400 . S
C9 C8 1.387 . S
N10 Co1 2.022 . S
N10 C7 1.351 . S
N10 N11 1.365 . S
N11 C8 1.341 . S
N11 N10 1.365 . S
N11 H31 0.862 . S
C12 C7 1.501 . S
C12 H13 0.961 . S
C12 H14 0.961 . S
C12 H15 0.960 . S
H13 C12 0.961 . S
H14 C12 0.961 . S
H15 C12 0.960 . S
C16 N17 1.342 . S
C16 C20 1.401 . S
C16 C21 1.499 . S
N17 Co0 1.989 1_565 S
N17 C16 1.342 . S
N17 N18 1.388 . S
N18 Co1 1.993 1_565 S
N18 N17 1.388 . S
N18 C19 1.346 . S
C19 N18 1.346 . S
C19 C20 1.396 . S
C19 C29 1.510 . S
C20 C16 1.401 . S
C20 C19 1.396 . S
C21 C16 1.499 . S
C21 H22 0.959 . S
C21 H23 0.960 . S
C21 H24 0.961 . S
H22 C21 0.959 . S
H23 C21 0.960 . S
H24 C21 0.961 . S
O25 Co0 1.967 . S
O25 C33 1.258 . S
O26 Co1 1.941 . S
O26 C33 1.266 . S
H27 C29 0.959 . S
H28 C29 0.961 . S
C29 C19 1.510 . S
C29 H27 0.959 . S
C29 H28 0.961 . S
C29 H30 0.960 . S
H30 C29 0.960 . S
H31 N11 0.862 . S
O32 Co0 1.920 . S
O32 C5 1.289 . S
C33 O25 1.258 . S
C33 O26 1.266 . S
Co34 O37 1.970 . S
Co34 N51 1.989 . S
Co34 O59 1.967 . S
Co34 O66 1.920 . S
Co35 O38 1.966 . S
Co35 N44 2.022 . S
Co35 N52 1.993 . S
Co35 O60 1.941 . S
C36 O37 1.258 . S
C36 O38 1.263 . S
O37 Co34 1.970 . S
O37 C36 1.258 . S
O38 Co35 1.966 . S
O38 C36 1.263 . S
C39 O40 1.235 1_545 S
C39 O66 1.289 . S
O40 C39 1.235 1_565 S
C41 C43 1.400 . S
C41 N44 1.351 . S
C41 C46 1.501 1_545 S
C42 C43 1.387 . S
C42 N45 1.341 . S
C43 C41 1.400 . S
C43 C42 1.387 . S
N44 Co35 2.022 . S
N44 C41 1.351 . S
N44 N45 1.365 . S
N45 C42 1.341 . S
N45 N44 1.365 . S
N45 H65 0.862 . S
C46 C41 1.501 1_565 S
C46 H47 0.961 . S
C46 H48 0.961 . S
C46 H49 0.960 . S
H47 C46 0.961 . S
H48 C46 0.961 . S
H49 C46 0.960 . S
C50 N51 1.342 . S
C50 C54 1.401 . S
C50 C55 1.499 . S
N51 Co34 1.989 . S
N51 C50 1.342 . S
N51 N52 1.388 . S
N52 Co35 1.993 . S
N52 N51 1.388 . S
N52 C53 1.346 . S
C53 N52 1.346 . S
C53 C54 1.396 . S
C53 C63 1.510 . S
C54 C50 1.401 . S
C54 C53 1.396 . S
C55 C50 1.499 . S
C55 H56 0.959 . S
C55 H57 0.960 . S
C55 H58 0.961 . S
H56 C55 0.959 . S
H57 C55 0.960 . S
H58 C55 0.961 . S
O59 Co34 1.967 . S
O59 C67 1.258 . S
O60 Co35 1.941 . S
O60 C67 1.266 . S
H61 C63 0.959 . S
H62 C63 0.961 . S
C63 C53 1.510 . S
C63 H61 0.959 . S
C63 H62 0.961 . S
C63 H64 0.960 . S
H64 C63 0.960 . S
H65 N45 0.862 . S
O66 Co34 1.920 . S
O66 C39 1.289 . S
C67 O59 1.258 . S
C67 O60 1.266 . S
Co68 O71 1.970 . S
Co68 N85 1.989 1_565 S
Co68 O93 1.967 . S
Co68 O100 1.920 . S
Co69 O72 1.966 . S
Co69 N78 2.022 . S
Co69 N86 1.993 1_565 S
Co69 O94 1.941 . S
C70 O71 1.258 . S
C70 O72 1.263 . S
O71 Co68 1.970 . S
O71 C70 1.258 . S
O72 Co69 1.966 . S
O72 C70 1.263 . S
C73 O74 1.235 . S
C73 O100 1.289 . S
O74 C73 1.235 . S
C75 C77 1.400 . S
C75 N78 1.351 . S
C75 C80 1.501 . S
C76 C77 1.387 . S
C76 N79 1.341 . S
C77 C75 1.400 . S
C77 C76 1.387 . S
N78 Co69 2.022 . S
N78 C75 1.351 . S
N78 N79 1.365 . S
N79 C76 1.341 . S
N79 N78 1.365 . S
N79 H99 0.862 . S
C80 C75 1.501 . S
C80 H81 0.961 . S
C80 H82 0.961 . S
C80 H83 0.960 . S
H81 C80 0.961 . S
H82 C80 0.961 . S
H83 C80 0.960 . S
C84 N85 1.342 . S
C84 C88 1.401 . S
C84 C89 1.499 . S
N85 Co68 1.989 1_545 S
N85 C84 1.342 . S
N85 N86 1.388 . S
N86 Co69 1.993 1_545 S
N86 N85 1.388 . S
N86 C87 1.346 . S
C87 N86 1.346 . S
C87 C88 1.396 . S
C87 C97 1.510 . S
C88 C84 1.401 . S
C88 C87 1.396 . S
C89 C84 1.499 . S
C89 H90 0.959 . S
C89 H91 0.960 . S
C89 H92 0.961 . S
H90 C89 0.959 . S
H91 C89 0.960 . S
H92 C89 0.961 . S
O93 Co68 1.967 . S
O93 C101 1.258 . S
O94 Co69 1.941 . S
O94 C101 1.266 . S
H95 C97 0.959 . S
H96 C97 0.961 . S
C97 C87 1.510 . S
C97 H95 0.959 . S
C97 H96 0.961 . S
C97 H98 0.960 . S
H98 C97 0.960 . S
H99 N79 0.862 . S
O100 Co68 1.920 . S
O100 C73 1.289 . S
C101 O93 1.258 . S
C101 O94 1.266 . S
Co102 O105 1.970 . S
Co102 N119 1.989 . S
Co102 O127 1.967 . S
Co102 O134 1.920 . S
Co103 O106 1.966 . S
Co103 N112 2.022 . S
Co103 N120 1.993 . S
Co103 O128 1.941 . S
C104 O105 1.258 . S
C104 O106 1.263 . S
O105 Co102 1.970 . S
O105 C104 1.258 . S
O106 Co103 1.966 . S
O106 C104 1.263 . S
C107 O108 1.235 1_565 S
C107 O134 1.289 . S
O108 C107 1.235 1_545 S
C109 C111 1.400 . S
C109 N112 1.351 . S
C109 C114 1.501 1_565 S
C110 C111 1.387 . S
C110 N113 1.341 . S
C111 C109 1.400 . S
C111 C110 1.387 . S
N112 Co103 2.022 . S
N112 C109 1.351 . S
N112 N113 1.365 . S
N113 C110 1.341 . S
N113 N112 1.365 . S
N113 H133 0.862 . S
C114 C109 1.501 1_545 S
C114 H115 0.961 . S
C114 H116 0.961 . S
C114 H117 0.960 . S
H115 C114 0.961 . S
H116 C114 0.961 . S
H117 C114 0.960 . S
C118 N119 1.342 . S
C118 C122 1.401 . S
C118 C123 1.499 . S
N119 Co102 1.989 . S
N119 C118 1.342 . S
N119 N120 1.388 . S
N120 Co103 1.993 . S
N120 N119 1.388 . S
N120 C121 1.346 . S
C121 N120 1.346 . S
C121 C122 1.396 . S
C121 C131 1.510 . S
C122 C118 1.401 . S
C122 C121 1.396 . S
C123 C118 1.499 . S
C123 H124 0.959 . S
C123 H125 0.960 . S
C123 H126 0.961 . S
H124 C123 0.959 . S
H125 C123 0.960 . S
H126 C123 0.961 . S
O127 Co102 1.967 . S
O127 C135 1.258 . S
O128 Co103 1.941 . S
O128 C135 1.266 . S
H129 C131 0.959 . S
H130 C131 0.961 . S
C131 C121 1.510 . S
C131 H129 0.959 . S
C131 H130 0.961 . S
C131 H132 0.960 . S
H132 C131 0.960 . S
H133 N113 0.862 . S
O134 Co102 1.920 . S
O134 C107 1.289 . S
C135 O127 1.258 . S
C135 O128 1.266 . S
Co136 O139 1.970 . S
Co136 N153 1.989 1_565 S
Co136 O161 1.967 . S
Co136 O168 1.920 . S
Co137 O140 1.966 . S
Co137 N146 2.022 . S
Co137 N154 1.993 1_565 S
Co137 O162 1.941 . S
C138 O139 1.258 . S
C138 O140 1.263 . S
O139 Co136 1.970 . S
O139 C138 1.258 . S
O140 Co137 1.966 . S
O140 C138 1.263 . S
C141 O142 1.235 . S
C141 O168 1.289 . S
O142 C141 1.235 . S
C143 C145 1.400 . S
C143 N146 1.351 . S
C143 C148 1.501 . S
C144 C145 1.387 . S
C144 N147 1.341 . S
C145 C143 1.400 . S
C145 C144 1.387 . S
N146 Co137 2.022 . S
N146 C143 1.351 . S
N146 N147 1.365 . S
N147 C144 1.341 . S
N147 N146 1.365 . S
N147 H167 0.862 . S
C148 C143 1.501 . S
C148 H149 0.961 . S
C148 H150 0.961 . S
C148 H151 0.960 . S
H149 C148 0.961 . S
H150 C148 0.961 . S
H151 C148 0.960 . S
C152 N153 1.342 . S
C152 C156 1.401 . S
C152 C157 1.499 . S
N153 Co136 1.989 1_545 S
N153 C152 1.342 . S
N153 N154 1.388 . S
N154 Co137 1.993 1_545 S
N154 N153 1.388 . S
N154 C155 1.346 . S
C155 N154 1.346 . S
C155 C156 1.396 . S
C155 C165 1.510 . S
C156 C152 1.401 . S
C156 C155 1.396 . S
C157 C152 1.499 . S
C157 H158 0.959 . S
C157 H159 0.960 . S
C157 H160 0.961 . S
H158 C157 0.959 . S
H159 C157 0.960 . S
H160 C157 0.961 . S
O161 Co136 1.967 . S
O161 C169 1.258 . S
O162 Co137 1.941 . S
O162 C169 1.266 . S
H163 C165 0.959 . S
H164 C165 0.961 . S
C165 C155 1.510 . S
C165 H163 0.959 . S
C165 H164 0.961 . S
C165 H166 0.960 . S
H166 C165 0.960 . S
H167 N147 0.862 . S
O168 Co136 1.920 . S
O168 C141 1.289 . S
C169 O161 1.258 . S
C169 O162 1.266 . S
Co170 O173 1.970 . S
Co170 N187 1.989 . S
Co170 O195 1.967 . S
Co170 O202 1.920 . S
Co171 O174 1.966 . S
Co171 N180 2.022 . S
Co171 N188 1.993 . S
Co171 O196 1.941 . S
C172 O173 1.258 . S
C172 O174 1.263 . S
O173 Co170 1.970 . S
O173 C172 1.258 . S
O174 Co171 1.966 . S
O174 C172 1.263 . S
C175 O176 1.235 1_545 S
C175 O202 1.289 . S
O176 C175 1.235 1_565 S
C177 C179 1.400 . S
C177 N180 1.351 . S
C177 C182 1.501 1_545 S
C178 C179 1.387 . S
C178 N181 1.341 . S
C179 C177 1.400 . S
C179 C178 1.387 . S
N180 Co171 2.022 . S
N180 C177 1.351 . S
N180 N181 1.365 . S
N181 C178 1.341 . S
N181 N180 1.365 . S
N181 H201 0.862 . S
C182 C177 1.501 1_565 S
C182 H183 0.961 . S
C182 H184 0.961 . S
C182 H185 0.960 . S
H183 C182 0.961 . S
H184 C182 0.961 . S
H185 C182 0.960 . S
C186 N187 1.342 . S
C186 C190 1.401 . S
C186 C191 1.499 . S
N187 Co170 1.989 . S
N187 C186 1.342 . S
N187 N188 1.388 . S
N188 Co171 1.993 . S
N188 N187 1.388 . S
N188 C189 1.346 . S
C189 N188 1.346 . S
C189 C190 1.396 . S
C189 C199 1.510 . S
C190 C186 1.401 . S
C190 C189 1.396 . S
C191 C186 1.499 . S
C191 H192 0.959 . S
C191 H193 0.960 . S
C191 H194 0.961 . S
H192 C191 0.959 . S
H193 C191 0.960 . S
H194 C191 0.961 . S
O195 Co170 1.967 . S
O195 C203 1.258 . S
O196 Co171 1.941 . S
O196 C203 1.266 . S
H197 C199 0.959 . S
H198 C199 0.961 . S
C199 C189 1.510 . S
C199 H197 0.959 . S
C199 H198 0.961 . S
C199 H200 0.960 . S
H200 C199 0.960 . S
H201 N181 0.862 . S
O202 Co170 1.920 . S
O202 C175 1.289 . S
C203 O195 1.258 . S
C203 O196 1.266 . S
Co204 O207 1.970 . S
Co204 N221 1.989 1_545 S
Co204 O229 1.967 . S
Co204 O236 1.920 . S
Co205 O208 1.966 . S
Co205 N214 2.022 . S
Co205 N222 1.993 1_545 S
Co205 O230 1.941 . S
C206 O207 1.258 . S
C206 O208 1.263 . S
O207 Co204 1.970 . S
O207 C206 1.258 . S
O208 Co205 1.966 . S
O208 C206 1.263 . S
C209 O210 1.235 . S
C209 O236 1.289 . S
O210 C209 1.235 . S
C211 C213 1.400 . S
C211 N214 1.351 . S
C211 C216 1.501 . S
C212 C213 1.387 . S
C212 N215 1.341 . S
C213 C211 1.400 . S
C213 C212 1.387 . S
N214 Co205 2.022 . S
N214 C211 1.351 . S
N214 N215 1.365 . S
N215 C212 1.341 . S
N215 N214 1.365 . S
N215 H235 0.862 . S
C216 C211 1.501 . S
C216 H217 0.961 . S
C216 H218 0.961 . S
C216 H219 0.960 . S
H217 C216 0.961 . S
H218 C216 0.961 . S
H219 C216 0.960 . S
C220 N221 1.342 . S
C220 C224 1.401 . S
C220 C225 1.499 . S
N221 Co204 1.989 1_565 S
N221 C220 1.342 . S
N221 N222 1.388 . S
N222 Co205 1.993 1_565 S
N222 N221 1.388 . S
N222 C223 1.346 . S
C223 N222 1.346 . S
C223 C224 1.396 . S
C223 C233 1.510 . S
C224 C220 1.401 . S
C224 C223 1.396 . S
C225 C220 1.499 . S
C225 H226 0.959 . S
C225 H227 0.960 . S
C225 H228 0.961 . S
H226 C225 0.959 . S
H227 C225 0.960 . S
H228 C225 0.961 . S
O229 Co204 1.967 . S
O229 C237 1.258 . S
O230 Co205 1.941 . S
O230 C237 1.266 . S
H231 C233 0.959 . S
H232 C233 0.961 . S
C233 C223 1.510 . S
C233 H231 0.959 . S
C233 H232 0.961 . S
C233 H234 0.960 . S
H234 C233 0.960 . S
H235 N215 0.862 . S
O236 Co204 1.920 . S
O236 C209 1.289 . S
C237 O229 1.258 . S
C237 O230 1.266 . S
Co238 O241 1.970 . S
Co238 N255 1.989 . S
Co238 O263 1.967 . S
Co238 O270 1.920 . S
Co239 O242 1.966 . S
Co239 N248 2.022 . S
Co239 N256 1.993 . S
Co239 O264 1.941 . S
C240 O241 1.258 . S
C240 O242 1.263 . S
O241 Co238 1.970 . S
O241 C240 1.258 . S
O242 Co239 1.966 . S
O242 C240 1.263 . S
C243 O244 1.235 1_565 S
C243 O270 1.289 . S
O244 C243 1.235 1_545 S
C245 C247 1.400 . S
C245 N248 1.351 . S
C245 C250 1.501 1_565 S
C246 C247 1.387 . S
C246 N249 1.341 . S
C247 C245 1.400 . S
C247 C246 1.387 . S
N248 Co239 2.022 . S
N248 C245 1.351 . S
N248 N249 1.365 . S
N249 C246 1.341 . S
N249 N248 1.365 . S
N249 H269 0.862 . S
C250 C245 1.501 1_545 S
C250 H251 0.961 . S
C250 H252 0.961 . S
C250 H253 0.960 . S
H251 C250 0.961 . S
H252 C250 0.961 . S
H253 C250 0.960 . S
C254 N255 1.342 . S
C254 C258 1.401 . S
C254 C259 1.499 . S
N255 Co238 1.989 . S
N255 C254 1.342 . S
N255 N256 1.388 . S
N256 Co239 1.993 . S
N256 N255 1.388 . S
N256 C257 1.346 . S
C257 N256 1.346 . S
C257 C258 1.396 . S
C257 C267 1.510 . S
C258 C254 1.401 . S
C258 C257 1.396 . S
C259 C254 1.499 . S
C259 H260 0.959 . S
C259 H261 0.960 . S
C259 H262 0.961 . S
H260 C259 0.959 . S
H261 C259 0.960 . S
H262 C259 0.961 . S
O263 Co238 1.967 . S
O263 C271 1.258 . S
O264 Co239 1.941 . S
O264 C271 1.266 . S
H265 C267 0.959 . S
H266 C267 0.961 . S
C267 C257 1.510 . S
C267 H265 0.959 . S
C267 H266 0.961 . S
C267 H268 0.960 . S
H268 C267 0.960 . S
H269 N249 0.862 . S
O270 Co238 1.920 . S
O270 C243 1.289 . S
C271 O263 1.258 . S
C271 O264 1.266 . S
Co272 O275 1.970 . S
Co272 N289 1.989 1_565 S
Co272 O297 1.967 . S
Co272 O304 1.920 . S
Co273 O276 1.966 . S
Co273 N282 2.022 . S
Co273 N290 1.993 1_565 S
Co273 O298 1.941 . S
C274 O275 1.258 . S
C274 O276 1.263 . S
O275 Co272 1.970 . S
O275 C274 1.258 . S
O276 Co273 1.966 . S
O276 C274 1.263 . S
C277 O278 1.235 . S
C277 O304 1.289 . S
O278 C277 1.235 . S
C279 C281 1.400 . S
C279 N282 1.351 . S
C279 C284 1.501 . S
C280 C281 1.387 . S
C280 N283 1.341 . S
C281 C279 1.400 . S
C281 C280 1.387 . S
N282 Co273 2.022 . S
N282 C279 1.351 . S
N282 N283 1.365 . S
N283 C280 1.341 . S
N283 N282 1.365 . S
N283 H303 0.862 . S
C284 C279 1.501 . S
C284 H285 0.961 . S
C284 H286 0.961 . S
C284 H287 0.960 . S
H285 C284 0.961 . S
H286 C284 0.961 . S
H287 C284 0.960 . S
C288 N289 1.342 . S
C288 C292 1.401 . S
C288 C293 1.499 . S
N289 Co272 1.989 1_545 S
N289 C288 1.342 . S
N289 N290 1.388 . S
N290 Co273 1.993 1_545 S
N290 N289 1.388 . S
N290 C291 1.346 . S
C291 N290 1.346 . S
C291 C292 1.396 . S
C291 C301 1.510 . S
C292 C288 1.401 . S
C292 C291 1.396 . S
C293 C288 1.499 . S
C293 H294 0.959 . S
C293 H295 0.960 . S
C293 H296 0.961 . S
H294 C293 0.959 . S
H295 C293 0.960 . S
H296 C293 0.961 . S
O297 Co272 1.967 . S
O297 C305 1.258 . S
O298 Co273 1.941 . S
O298 C305 1.266 . S
H299 C301 0.959 . S
H300 C301 0.961 . S
C301 C291 1.510 . S
C301 H299 0.959 . S
C301 H300 0.961 . S
C301 H302 0.960 . S
H302 C301 0.960 . S
H303 N283 0.862 . S
O304 Co272 1.920 . S
O304 C277 1.289 . S
C305 O297 1.258 . S
C305 O298 1.266 . S
Co306 O309 1.970 . S
Co306 N323 1.989 . S
Co306 O331 1.967 . S
Co306 O338 1.920 . S
Co307 O310 1.966 . S
Co307 N316 2.022 . S
Co307 N324 1.993 . S
Co307 O332 1.941 . S
C308 O309 1.258 . S
C308 O310 1.263 . S
O309 Co306 1.970 . S
O309 C308 1.258 . S
O310 Co307 1.966 . S
O310 C308 1.263 . S
C311 O312 1.235 1_565 S
C311 O338 1.289 . S
O312 C311 1.235 1_545 S
C313 C315 1.400 . S
C313 N316 1.351 . S
C313 C318 1.501 1_565 S
C314 C315 1.387 . S
C314 N317 1.341 . S
C315 C313 1.400 . S
C315 C314 1.387 . S
N316 Co307 2.022 . S
N316 C313 1.351 . S
N316 N317 1.365 . S
N317 C314 1.341 . S
N317 N316 1.365 . S
N317 H337 0.862 . S
C318 C313 1.501 1_545 S
C318 H319 0.961 . S
C318 H320 0.961 . S
C318 H321 0.960 . S
H319 C318 0.961 . S
H320 C318 0.961 . S
H321 C318 0.960 . S
C322 N323 1.342 . S
C322 C326 1.401 . S
C322 C327 1.499 . S
N323 Co306 1.989 . S
N323 C322 1.342 . S
N323 N324 1.388 . S
N324 Co307 1.993 . S
N324 N323 1.388 . S
N324 C325 1.346 . S
C325 N324 1.346 . S
C325 C326 1.396 . S
C325 C335 1.510 . S
C326 C322 1.401 . S
C326 C325 1.396 . S
C327 C322 1.499 . S
C327 H328 0.959 . S
C327 H329 0.960 . S
C327 H330 0.961 . S
H328 C327 0.959 . S
H329 C327 0.960 . S
H330 C327 0.961 . S
O331 Co306 1.967 . S
O331 C339 1.258 . S
O332 Co307 1.941 . S
O332 C339 1.266 . S
H333 C335 0.959 . S
H334 C335 0.961 . S
C335 C325 1.510 . S
C335 H333 0.959 . S
C335 H334 0.961 . S
C335 H336 0.960 . S
H336 C335 0.960 . S
H337 N317 0.862 . S
O338 Co306 1.920 . S
O338 C311 1.289 . S
C339 O331 1.258 . S
C339 O332 1.266 . S
Co340 O343 1.970 . S
Co340 N357 1.989 1_545 S
Co340 O365 1.967 . S
Co340 O372 1.920 . S
Co341 O344 1.966 . S
Co341 N350 2.022 . S
Co341 N358 1.993 1_545 S
Co341 O366 1.941 . S
C342 O343 1.258 . S
C342 O344 1.263 . S
O343 Co340 1.970 . S
O343 C342 1.258 . S
O344 Co341 1.966 . S
O344 C342 1.263 . S
C345 O346 1.235 . S
C345 O372 1.289 . S
O346 C345 1.235 . S
C347 C349 1.400 . S
C347 N350 1.351 . S
C347 C352 1.501 . S
C348 C349 1.387 . S
C348 N351 1.341 . S
C349 C347 1.400 . S
C349 C348 1.387 . S
N350 Co341 2.022 . S
N350 C347 1.351 . S
N350 N351 1.365 . S
N351 C348 1.341 . S
N351 N350 1.365 . S
N351 H371 0.862 . S
C352 C347 1.501 . S
C352 H353 0.961 . S
C352 H354 0.961 . S
C352 H355 0.960 . S
H353 C352 0.961 . S
H354 C352 0.961 . S
H355 C352 0.960 . S
C356 N357 1.342 . S
C356 C360 1.401 . S
C356 C361 1.499 . S
N357 Co340 1.989 1_565 S
N357 C356 1.342 . S
N357 N358 1.388 . S
N358 Co341 1.993 1_565 S
N358 N357 1.388 . S
N358 C359 1.346 . S
C359 N358 1.346 . S
C359 C360 1.396 . S
C359 C369 1.510 . S
C360 C356 1.401 . S
C360 C359 1.396 . S
C361 C356 1.499 . S
C361 H362 0.959 . S
C361 H363 0.960 . S
C361 H364 0.961 . S
H362 C361 0.959 . S
H363 C361 0.960 . S
H364 C361 0.961 . S
O365 Co340 1.967 . S
O365 C373 1.258 . S
O366 Co341 1.941 . S
O366 C373 1.266 . S
H367 C369 0.959 . S
H368 C369 0.961 . S
C369 C359 1.510 . S
C369 H367 0.959 . S
C369 H368 0.961 . S
C369 H370 0.960 . S
H370 C369 0.960 . S
H371 N351 0.862 . S
O372 Co340 1.920 . S
O372 C345 1.289 . S
C373 O365 1.258 . S
C373 O366 1.266 . S
Co374 O377 1.970 . S
Co374 N391 1.989 . S
Co374 O399 1.967 . S
Co374 O406 1.920 . S
Co375 O378 1.966 . S
Co375 N384 2.022 . S
Co375 N392 1.993 . S
Co375 O400 1.941 . S
C376 O377 1.258 . S
C376 O378 1.263 . S
O377 Co374 1.970 . S
O377 C376 1.258 . S
O378 Co375 1.966 . S
O378 C376 1.263 . S
C379 O380 1.235 1_545 S
C379 O406 1.289 . S
O380 C379 1.235 1_565 S
C381 C383 1.400 . S
C381 N384 1.351 . S
C381 C386 1.501 1_545 S
C382 C383 1.387 . S
C382 N385 1.341 . S
C383 C381 1.400 . S
C383 C382 1.387 . S
N384 Co375 2.022 . S
N384 C381 1.351 . S
N384 N385 1.365 . S
N385 C382 1.341 . S
N385 N384 1.365 . S
N385 H405 0.862 . S
C386 C381 1.501 1_565 S
C386 H387 0.961 . S
C386 H388 0.961 . S
C386 H389 0.960 . S
H387 C386 0.961 . S
H388 C386 0.961 . S
H389 C386 0.960 . S
C390 N391 1.342 . S
C390 C394 1.401 . S
C390 C395 1.499 . S
N391 Co374 1.989 . S
N391 C390 1.342 . S
N391 N392 1.388 . S
N392 Co375 1.993 . S
N392 N391 1.388 . S
N392 C393 1.346 . S
C393 N392 1.346 . S
C393 C394 1.396 . S
C393 C403 1.510 . S
C394 C390 1.401 . S
C394 C393 1.396 . S
C395 C390 1.499 . S
C395 H396 0.959 . S
C395 H397 0.960 . S
C395 H398 0.961 . S
H396 C395 0.959 . S
H397 C395 0.960 . S
H398 C395 0.961 . S
O399 Co374 1.967 . S
O399 C407 1.258 . S
O400 Co375 1.941 . S
O400 C407 1.266 . S
H401 C403 0.959 . S
H402 C403 0.961 . S
C403 C393 1.510 . S
C403 H401 0.959 . S
C403 H402 0.961 . S
C403 H404 0.960 . S
H404 C403 0.960 . S
H405 N385 0.862 . S
O406 Co374 1.920 . S
O406 C379 1.289 . S
C407 O399 1.258 . S
C407 O400 1.266 . S
Co408 O411 1.970 . S
Co408 N425 1.989 1_545 S
Co408 O433 1.967 . S
Co408 O440 1.920 . S
Co409 O412 1.966 . S
Co409 N418 2.022 . S
Co409 N426 1.993 1_545 S
Co409 O434 1.941 . S
C410 O411 1.258 . S
C410 O412 1.263 . S
O411 Co408 1.970 . S
O411 C410 1.258 . S
O412 Co409 1.966 . S
O412 C410 1.263 . S
C413 O414 1.235 . S
C413 O440 1.289 . S
O414 C413 1.235 . S
C415 C417 1.400 . S
C415 N418 1.351 . S
C415 C420 1.501 . S
C416 C417 1.387 . S
C416 N419 1.341 . S
C417 C415 1.400 . S
C417 C416 1.387 . S
N418 Co409 2.022 . S
N418 C415 1.351 . S
N418 N419 1.365 . S
N419 C416 1.341 . S
N419 N418 1.365 . S
N419 H439 0.862 . S
C420 C415 1.501 . S
C420 H421 0.961 . S
C420 H422 0.961 . S
C420 H423 0.960 . S
H421 C420 0.961 . S
H422 C420 0.961 . S
H423 C420 0.960 . S
C424 N425 1.342 . S
C424 C428 1.401 . S
C424 C429 1.499 . S
N425 Co408 1.989 1_565 S
N425 C424 1.342 . S
N425 N426 1.388 . S
N426 Co409 1.993 1_565 S
N426 N425 1.388 . S
N426 C427 1.346 . S
C427 N426 1.346 . S
C427 C428 1.396 . S
C427 C437 1.510 . S
C428 C424 1.401 . S
C428 C427 1.396 . S
C429 C424 1.499 . S
C429 H430 0.959 . S
C429 H431 0.960 . S
C429 H432 0.961 . S
H430 C429 0.959 . S
H431 C429 0.960 . S
H432 C429 0.961 . S
O433 Co408 1.967 . S
O433 C441 1.258 . S
O434 Co409 1.941 . S
O434 C441 1.266 . S
H435 C437 0.959 . S
H436 C437 0.961 . S
C437 C427 1.510 . S
C437 H435 0.959 . S
C437 H436 0.961 . S
C437 H438 0.960 . S
H438 C437 0.960 . S
H439 N419 0.862 . S
O440 Co408 1.920 . S
O440 C413 1.289 . S
C441 O433 1.258 . S
C441 O434 1.266 . S
Co442 O445 1.970 . S
Co442 N459 1.989 . S
Co442 O467 1.967 . S
Co442 O474 1.920 . S
Co443 O446 1.966 . S
Co443 N452 2.022 . S
Co443 N460 1.993 . S
Co443 O468 1.941 . S
C444 O445 1.258 . S
C444 O446 1.263 . S
O445 Co442 1.970 . S
O445 C444 1.258 . S
O446 Co443 1.966 . S
O446 C444 1.263 . S
C447 O448 1.235 1_565 S
C447 O474 1.289 . S
O448 C447 1.235 1_545 S
C449 C451 1.400 . S
C449 N452 1.351 . S
C449 C454 1.501 1_565 S
C450 C451 1.387 . S
C450 N453 1.341 . S
C451 C449 1.400 . S
C451 C450 1.387 . S
N452 Co443 2.022 . S
N452 C449 1.351 . S
N452 N453 1.365 . S
N453 C450 1.341 . S
N453 N452 1.365 . S
N453 H473 0.862 . S
C454 C449 1.501 1_545 S
C454 H455 0.961 . S
C454 H456 0.961 . S
C454 H457 0.960 . S
H455 C454 0.961 . S
H456 C454 0.961 . S
H457 C454 0.960 . S
C458 N459 1.342 . S
C458 C462 1.401 . S
C458 C463 1.499 . S
N459 Co442 1.989 . S
N459 C458 1.342 . S
N459 N460 1.388 . S
N460 Co443 1.993 . S
N460 N459 1.388 . S
N460 C461 1.346 . S
C461 N460 1.346 . S
C461 C462 1.396 . S
C461 C471 1.510 . S
C462 C458 1.401 . S
C462 C461 1.396 . S
C463 C458 1.499 . S
C463 H464 0.959 . S
C463 H465 0.960 . S
C463 H466 0.961 . S
H464 C463 0.959 . S
H465 C463 0.960 . S
H466 C463 0.961 . S
O467 Co442 1.967 . S
O467 C475 1.258 . S
O468 Co443 1.941 . S
O468 C475 1.266 . S
H469 C471 0.959 . S
H470 C471 0.961 . S
C471 C461 1.510 . S
C471 H469 0.959 . S
C471 H470 0.961 . S
C471 H472 0.960 . S
H472 C471 0.960 . S
H473 N453 0.862 . S
O474 Co442 1.920 . S
O474 C447 1.289 . S
C475 O467 1.258 . S
C475 O468 1.266 . S
Co476 O479 1.970 . S
Co476 N493 1.989 1_565 S
Co476 O501 1.967 . S
Co476 O508 1.920 . S
Co477 O480 1.966 . S
Co477 N486 2.022 . S
Co477 N494 1.993 1_565 S
Co477 O502 1.941 . S
C478 O479 1.258 . S
C478 O480 1.263 . S
O479 Co476 1.970 . S
O479 C478 1.258 . S
O480 Co477 1.966 . S
O480 C478 1.263 . S
C481 O482 1.235 . S
C481 O508 1.289 . S
O482 C481 1.235 . S
C483 C485 1.400 . S
C483 N486 1.351 . S
C483 C488 1.501 . S
C484 C485 1.387 . S
C484 N487 1.341 . S
C485 C483 1.400 . S
C485 C484 1.387 . S
N486 Co477 2.022 . S
N486 C483 1.351 . S
N486 N487 1.365 . S
N487 C484 1.341 . S
N487 N486 1.365 . S
N487 H507 0.862 . S
C488 C483 1.501 . S
C488 H489 0.961 . S
C488 H490 0.961 . S
C488 H491 0.960 . S
H489 C488 0.961 . S
H490 C488 0.961 . S
H491 C488 0.960 . S
C492 N493 1.342 . S
C492 C496 1.401 . S
C492 C497 1.499 . S
N493 Co476 1.989 1_545 S
N493 C492 1.342 . S
N493 N494 1.388 . S
N494 Co477 1.993 1_545 S
N494 N493 1.388 . S
N494 C495 1.346 . S
C495 N494 1.346 . S
C495 C496 1.396 . S
C495 C505 1.510 . S
C496 C492 1.401 . S
C496 C495 1.396 . S
C497 C492 1.499 . S
C497 H498 0.959 . S
C497 H499 0.960 . S
C497 H500 0.961 . S
H498 C497 0.959 . S
H499 C497 0.960 . S
H500 C497 0.961 . S
O501 Co476 1.967 . S
O501 C509 1.258 . S
O502 Co477 1.941 . S
O502 C509 1.266 . S
H503 C505 0.959 . S
H504 C505 0.961 . S
C505 C495 1.510 . S
C505 H503 0.959 . S
C505 H504 0.961 . S
C505 H506 0.960 . S
H506 C505 0.960 . S
H507 N487 0.862 . S
O508 Co476 1.920 . S
O508 C481 1.289 . S
C509 O501 1.258 . S
C509 O502 1.266 . S
Co510 O513 1.970 . S
Co510 N527 1.989 . S
Co510 O535 1.967 . S
Co510 O542 1.920 . S
Co511 O514 1.966 . S
Co511 N520 2.022 . S
Co511 N528 1.993 . S
Co511 O536 1.941 . S
C512 O513 1.258 . S
C512 O514 1.263 . S
O513 Co510 1.970 . S
O513 C512 1.258 . S
O514 Co511 1.966 . S
O514 C512 1.263 . S
C515 O516 1.235 1_545 S
C515 O542 1.289 . S
O516 C515 1.235 1_565 S
C517 C519 1.400 . S
C517 N520 1.351 . S
C517 C522 1.501 1_545 S
C518 C519 1.387 . S
C518 N521 1.341 . S
C519 C517 1.400 . S
C519 C518 1.387 . S
N520 Co511 2.022 . S
N520 C517 1.351 . S
N520 N521 1.365 . S
N521 C518 1.341 . S
N521 N520 1.365 . S
N521 H541 0.862 . S
C522 C517 1.501 1_565 S
C522 H523 0.961 . S
C522 H524 0.961 . S
C522 H525 0.960 . S
H523 C522 0.961 . S
H524 C522 0.961 . S
H525 C522 0.960 . S
C526 N527 1.342 . S
C526 C530 1.401 . S
C526 C531 1.499 . S
N527 Co510 1.989 . S
N527 C526 1.342 . S
N527 N528 1.388 . S
N528 Co511 1.993 . S
N528 N527 1.388 . S
N528 C529 1.346 . S
C529 N528 1.346 . S
C529 C530 1.396 . S
C529 C539 1.510 . S
C530 C526 1.401 . S
C530 C529 1.396 . S
C531 C526 1.499 . S
C531 H532 0.959 . S
C531 H533 0.960 . S
C531 H534 0.961 . S
H532 C531 0.959 . S
H533 C531 0.960 . S
H534 C531 0.961 . S
O535 Co510 1.967 . S
O535 C543 1.258 . S
O536 Co511 1.941 . S
O536 C543 1.266 . S
H537 C539 0.959 . S
H538 C539 0.961 . S
C539 C529 1.510 . S
C539 H537 0.959 . S
C539 H538 0.961 . S
C539 H540 0.960 . S
H540 C539 0.960 . S
H541 N521 0.862 . S
O542 Co510 1.920 . S
O542 C515 1.289 . S
C543 O535 1.258 . S
C543 O536 1.266 . S
Co544 O547 1.970 . S
Co544 N561 1.989 . S
Co544 O569 1.967 . S
Co544 O576 1.920 . S
Co545 O548 1.966 . S
Co545 N554 2.022 . S
Co545 N562 1.993 . S
Co545 O570 1.941 . S
C546 O547 1.258 . S
C546 O548 1.263 . S
O547 Co544 1.970 . S
O547 C546 1.258 . S
O548 Co545 1.966 . S
O548 C546 1.263 . S
C549 O550 1.235 . S
C549 O576 1.289 . S
O550 C549 1.235 . S
C551 C553 1.400 . S
C551 N554 1.351 . S
C551 C556 1.501 . S
C552 C553 1.387 . S
C552 N555 1.341 . S
C553 C551 1.400 . S
C553 C552 1.387 . S
N554 Co545 2.022 . S
N554 C551 1.351 . S
N554 N555 1.365 . S
N555 C552 1.341 . S
N555 N554 1.365 . S
N555 H575 0.862 . S
C556 C551 1.501 . S
C556 H557 0.961 . S
C556 H558 0.961 . S
C556 H559 0.960 . S
H557 C556 0.961 . S
H558 C556 0.961 . S
H559 C556 0.960 . S
C560 N561 1.342 . S
C560 C564 1.401 . S
C560 C565 1.499 . S
N561 Co544 1.989 . S
N561 C560 1.342 . S
N561 N562 1.388 . S
N562 Co545 1.993 . S
N562 N561 1.388 . S
N562 C563 1.346 . S
C563 N562 1.346 . S
C563 C564 1.396 . S
C563 C573 1.510 . S
C564 C560 1.401 . S
C564 C563 1.396 . S
C565 C560 1.499 . S
C565 H566 0.959 . S
C565 H567 0.960 . S
C565 H568 0.961 . S
H566 C565 0.959 . S
H567 C565 0.960 . S
H568 C565 0.961 . S
O569 Co544 1.967 . S
O569 C577 1.258 . S
O570 Co545 1.941 . S
O570 C577 1.266 . S
H571 C573 0.959 . S
H572 C573 0.961 . S
C573 C563 1.510 . S
C573 H571 0.959 . S
C573 H572 0.961 . S
C573 H574 0.960 . S
H574 C573 0.960 . S
H575 N555 0.862 . S
O576 Co544 1.920 . S
O576 C549 1.289 . S
C577 O569 1.258 . S
C577 O570 1.266 . S
Co578 O581 1.970 . S
Co578 N595 1.989 . S
Co578 O603 1.967 . S
Co578 O610 1.920 . S
Co579 O582 1.966 . S
Co579 N588 2.022 . S
Co579 N596 1.993 . S
Co579 O604 1.941 . S
C580 O581 1.258 . S
C580 O582 1.263 . S
O581 Co578 1.970 . S
O581 C580 1.258 . S
O582 Co579 1.966 . S
O582 C580 1.263 . S
C583 O584 1.235 . S
C583 O610 1.289 . S
O584 C583 1.235 . S
C585 C587 1.400 . S
C585 N588 1.351 . S
C585 C590 1.501 . S
C586 C587 1.387 . S
C586 N589 1.341 . S
C587 C585 1.400 . S
C587 C586 1.387 . S
N588 Co579 2.022 . S
N588 C585 1.351 . S
N588 N589 1.365 . S
N589 C586 1.341 . S
N589 N588 1.365 . S
N589 H609 0.862 . S
C590 C585 1.501 . S
C590 H591 0.961 . S
C590 H592 0.961 . S
C590 H593 0.960 . S
H591 C590 0.961 . S
H592 C590 0.961 . S
H593 C590 0.960 . S
C594 N595 1.342 . S
C594 C598 1.401 . S
C594 C599 1.499 . S
N595 Co578 1.989 . S
N595 C594 1.342 . S
N595 N596 1.388 . S
N596 Co579 1.993 . S
N596 N595 1.388 . S
N596 C597 1.346 . S
C597 N596 1.346 . S
C597 C598 1.396 . S
C597 C607 1.510 . S
C598 C594 1.401 . S
C598 C597 1.396 . S
C599 C594 1.499 . S
C599 H600 0.959 . S
C599 H601 0.960 . S
C599 H602 0.961 . S
H600 C599 0.959 . S
H601 C599 0.960 . S
H602 C599 0.961 . S
O603 Co578 1.967 . S
O603 C611 1.258 . S
O604 Co579 1.941 . S
O604 C611 1.266 . S
H605 C607 0.959 . S
H606 C607 0.961 . S
C607 C597 1.510 . S
C607 H605 0.959 . S
C607 H606 0.961 . S
C607 H608 0.960 . S
H608 C607 0.960 . S
H609 N589 0.862 . S
O610 Co578 1.920 . S
O610 C583 1.289 . S
C611 O603 1.258 . S
C611 O604 1.266 . S
Co612 O615 1.970 . S
Co612 N629 1.989 . S
Co612 O637 1.967 . S
Co612 O644 1.920 . S
Co613 O616 1.966 . S
Co613 N622 2.022 . S
Co613 N630 1.993 . S
Co613 O638 1.941 . S
C614 O615 1.258 . S
C614 O616 1.263 . S
O615 Co612 1.970 . S
O615 C614 1.258 . S
O616 Co613 1.966 . S
O616 C614 1.263 . S
C617 O618 1.235 . S
C617 O644 1.289 . S
O618 C617 1.235 . S
C619 C621 1.400 . S
C619 N622 1.351 . S
C619 C624 1.501 . S
C620 C621 1.387 . S
C620 N623 1.341 . S
C621 C619 1.400 . S
C621 C620 1.387 . S
N622 Co613 2.022 . S
N622 C619 1.351 . S
N622 N623 1.365 . S
N623 C620 1.341 . S
N623 N622 1.365 . S
N623 H643 0.862 . S
C624 C619 1.501 . S
C624 H625 0.961 . S
C624 H626 0.961 . S
C624 H627 0.960 . S
H625 C624 0.961 . S
H626 C624 0.961 . S
H627 C624 0.960 . S
C628 N629 1.342 . S
C628 C632 1.401 . S
C628 C633 1.499 . S
N629 Co612 1.989 . S
N629 C628 1.342 . S
N629 N630 1.388 . S
N630 Co613 1.993 . S
N630 N629 1.388 . S
N630 C631 1.346 . S
C631 N630 1.346 . S
C631 C632 1.396 . S
C631 C641 1.510 . S
C632 C628 1.401 . S
C632 C631 1.396 . S
C633 C628 1.499 . S
C633 H634 0.959 . S
C633 H635 0.960 . S
C633 H636 0.961 . S
H634 C633 0.959 . S
H635 C633 0.960 . S
H636 C633 0.961 . S
O637 Co612 1.967 . S
O637 C645 1.258 . S
O638 Co613 1.941 . S
O638 C645 1.266 . S
H639 C641 0.959 . S
H640 C641 0.961 . S
C641 C631 1.510 . S
C641 H639 0.959 . S
C641 H640 0.961 . S
C641 H642 0.960 . S
H642 C641 0.960 . S
H643 N623 0.862 . S
O644 Co612 1.920 . S
O644 C617 1.289 . S
C645 O637 1.258 . S
C645 O638 1.266 . S
Co646 O649 1.970 . S
Co646 N663 1.989 . S
Co646 O671 1.967 . S
Co646 O678 1.920 . S
Co647 O650 1.966 . S
Co647 N656 2.022 . S
Co647 N664 1.993 . S
Co647 O672 1.941 . S
C648 O649 1.258 . S
C648 O650 1.263 . S
O649 Co646 1.970 . S
O649 C648 1.258 . S
O650 Co647 1.966 . S
O650 C648 1.263 . S
C651 O652 1.235 . S
C651 O678 1.289 . S
O652 C651 1.235 . S
C653 C655 1.400 . S
C653 N656 1.351 . S
C653 C658 1.501 . S
C654 C655 1.387 . S
C654 N657 1.341 . S
C655 C653 1.400 . S
C655 C654 1.387 . S
N656 Co647 2.022 . S
N656 C653 1.351 . S
N656 N657 1.365 . S
N657 C654 1.341 . S
N657 N656 1.365 . S
N657 H677 0.862 . S
C658 C653 1.501 . S
C658 H659 0.961 . S
C658 H660 0.961 . S
C658 H661 0.960 . S
H659 C658 0.961 . S
H660 C658 0.961 . S
H661 C658 0.960 . S
C662 N663 1.342 . S
C662 C666 1.401 . S
C662 C667 1.499 . S
N663 Co646 1.989 . S
N663 C662 1.342 . S
N663 N664 1.388 . S
N664 Co647 1.993 . S
N664 N663 1.388 . S
N664 C665 1.346 . S
C665 N664 1.346 . S
C665 C666 1.396 . S
C665 C675 1.510 . S
C666 C662 1.401 . S
C666 C665 1.396 . S
C667 C662 1.499 . S
C667 H668 0.959 . S
C667 H669 0.960 . S
C667 H670 0.961 . S
H668 C667 0.959 . S
H669 C667 0.960 . S
H670 C667 0.961 . S
O671 Co646 1.967 . S
O671 C679 1.258 . S
O672 Co647 1.941 . S
O672 C679 1.266 . S
H673 C675 0.959 . S
H674 C675 0.961 . S
C675 C665 1.510 . S
C675 H673 0.959 . S
C675 H674 0.961 . S
C675 H676 0.960 . S
H676 C675 0.960 . S
H677 N657 0.862 . S
O678 Co646 1.920 . S
O678 C651 1.289 . S
C679 O671 1.258 . S
C679 O672 1.266 . S
Co680 O683 1.970 . S
Co680 N697 1.989 . S
Co680 O705 1.967 . S
Co680 O712 1.920 . S
Co681 O684 1.966 . S
Co681 N690 2.022 . S
Co681 N698 1.993 . S
Co681 O706 1.941 . S
C682 O683 1.258 . S
C682 O684 1.263 . S
O683 Co680 1.970 . S
O683 C682 1.258 . S
O684 Co681 1.966 . S
O684 C682 1.263 . S
C685 O686 1.235 . S
C685 O712 1.289 . S
O686 C685 1.235 . S
C687 C689 1.400 . S
C687 N690 1.351 . S
C687 C692 1.501 . S
C688 C689 1.387 . S
C688 N691 1.341 . S
C689 C687 1.400 . S
C689 C688 1.387 . S
N690 Co681 2.022 . S
N690 C687 1.351 . S
N690 N691 1.365 . S
N691 C688 1.341 . S
N691 N690 1.365 . S
N691 H711 0.862 . S
C692 C687 1.501 . S
C692 H693 0.961 . S
C692 H694 0.961 . S
C692 H695 0.960 . S
H693 C692 0.961 . S
H694 C692 0.961 . S
H695 C692 0.960 . S
C696 N697 1.342 . S
C696 C700 1.401 . S
C696 C701 1.499 . S
N697 Co680 1.989 . S
N697 C696 1.342 . S
N697 N698 1.388 . S
N698 Co681 1.993 . S
N698 N697 1.388 . S
N698 C699 1.346 . S
C699 N698 1.346 . S
C699 C700 1.396 . S
C699 C709 1.510 . S
C700 C696 1.401 . S
C700 C699 1.396 . S
C701 C696 1.499 . S
C701 H702 0.959 . S
C701 H703 0.960 . S
C701 H704 0.961 . S
H702 C701 0.959 . S
H703 C701 0.960 . S
H704 C701 0.961 . S
O705 Co680 1.967 . S
O705 C713 1.258 . S
O706 Co681 1.941 . S
O706 C713 1.266 . S
H707 C709 0.959 . S
H708 C709 0.961 . S
C709 C699 1.510 . S
C709 H707 0.959 . S
C709 H708 0.961 . S
C709 H710 0.960 . S
H710 C709 0.960 . S
H711 N691 0.862 . S
O712 Co680 1.920 . S
O712 C685 1.289 . S
C713 O705 1.258 . S
C713 O706 1.266 . S
Co714 O717 1.970 . S
Co714 N731 1.989 . S
Co714 O739 1.967 . S
Co714 O746 1.920 . S
Co715 O718 1.966 . S
Co715 N724 2.022 . S
Co715 N732 1.993 . S
Co715 O740 1.941 . S
C716 O717 1.258 . S
C716 O718 1.263 . S
O717 Co714 1.970 . S
O717 C716 1.258 . S
O718 Co715 1.966 . S
O718 C716 1.263 . S
C719 O720 1.235 . S
C719 O746 1.289 . S
O720 C719 1.235 . S
C721 C723 1.400 . S
C721 N724 1.351 . S
C721 C726 1.501 . S
C722 C723 1.387 . S
C722 N725 1.341 . S
C723 C721 1.400 . S
C723 C722 1.387 . S
N724 Co715 2.022 . S
N724 C721 1.351 . S
N724 N725 1.365 . S
N725 C722 1.341 . S
N725 N724 1.365 . S
N725 H745 0.862 . S
C726 C721 1.501 . S
C726 H727 0.961 . S
C726 H728 0.961 . S
C726 H729 0.960 . S
H727 C726 0.961 . S
H728 C726 0.961 . S
H729 C726 0.960 . S
C730 N731 1.342 . S
C730 C734 1.401 . S
C730 C735 1.499 . S
N731 Co714 1.989 . S
N731 C730 1.342 . S
N731 N732 1.388 . S
N732 Co715 1.993 . S
N732 N731 1.388 . S
N732 C733 1.346 . S
C733 N732 1.346 . S
C733 C734 1.396 . S
C733 C743 1.510 . S
C734 C730 1.401 . S
C734 C733 1.396 . S
C735 C730 1.499 . S
C735 H736 0.959 . S
C735 H737 0.960 . S
C735 H738 0.961 . S
H736 C735 0.959 . S
H737 C735 0.960 . S
H738 C735 0.961 . S
O739 Co714 1.967 . S
O739 C747 1.258 . S
O740 Co715 1.941 . S
O740 C747 1.266 . S
H741 C743 0.959 . S
H742 C743 0.961 . S
C743 C733 1.510 . S
C743 H741 0.959 . S
C743 H742 0.961 . S
C743 H744 0.960 . S
H744 C743 0.960 . S
H745 N725 0.862 . S
O746 Co714 1.920 . S
O746 C719 1.289 . S
C747 O739 1.258 . S
C747 O740 1.266 . S
Co748 O751 1.970 . S
Co748 N765 1.989 . S
Co748 O773 1.967 . S
Co748 O780 1.920 . S
Co749 O752 1.966 . S
Co749 N758 2.022 . S
Co749 N766 1.993 . S
Co749 O774 1.941 . S
C750 O751 1.258 . S
C750 O752 1.263 . S
O751 Co748 1.970 . S
O751 C750 1.258 . S
O752 Co749 1.966 . S
O752 C750 1.263 . S
C753 O754 1.235 . S
C753 O780 1.289 . S
O754 C753 1.235 . S
C755 C757 1.400 . S
C755 N758 1.351 . S
C755 C760 1.501 . S
C756 C757 1.387 . S
C756 N759 1.341 . S
C757 C755 1.400 . S
C757 C756 1.387 . S
N758 Co749 2.022 . S
N758 C755 1.351 . S
N758 N759 1.365 . S
N759 C756 1.341 . S
N759 N758 1.365 . S
N759 H779 0.862 . S
C760 C755 1.501 . S
C760 H761 0.961 . S
C760 H762 0.961 . S
C760 H763 0.960 . S
H761 C760 0.961 . S
H762 C760 0.961 . S
H763 C760 0.960 . S
C764 N765 1.342 . S
C764 C768 1.401 . S
C764 C769 1.499 . S
N765 Co748 1.989 . S
N765 C764 1.342 . S
N765 N766 1.388 . S
N766 Co749 1.993 . S
N766 N765 1.388 . S
N766 C767 1.346 . S
C767 N766 1.346 . S
C767 C768 1.396 . S
C767 C777 1.510 . S
C768 C764 1.401 . S
C768 C767 1.396 . S
C769 C764 1.499 . S
C769 H770 0.959 . S
C769 H771 0.960 . S
C769 H772 0.961 . S
H770 C769 0.959 . S
H771 C769 0.960 . S
H772 C769 0.961 . S
O773 Co748 1.967 . S
O773 C781 1.258 . S
O774 Co749 1.941 . S
O774 C781 1.266 . S
H775 C777 0.959 . S
H776 C777 0.961 . S
C777 C767 1.510 . S
C777 H775 0.959 . S
C777 H776 0.961 . S
C777 H778 0.960 . S
H778 C777 0.960 . S
H779 N759 0.862 . S
O780 Co748 1.920 . S
O780 C753 1.289 . S
C781 O773 1.258 . S
C781 O774 1.266 . S
Co782 O785 1.970 . S
Co782 N799 1.989 . S
Co782 O807 1.967 . S
Co782 O814 1.920 . S
Co783 O786 1.966 . S
Co783 N792 2.022 . S
Co783 N800 1.993 . S
Co783 O808 1.941 . S
C784 O785 1.258 . S
C784 O786 1.263 . S
O785 Co782 1.970 . S
O785 C784 1.258 . S
O786 Co783 1.966 . S
O786 C784 1.263 . S
C787 O788 1.235 . S
C787 O814 1.289 . S
O788 C787 1.235 . S
C789 C791 1.400 . S
C789 N792 1.351 . S
C789 C794 1.501 . S
C790 C791 1.387 . S
C790 N793 1.341 . S
C791 C789 1.400 . S
C791 C790 1.387 . S
N792 Co783 2.022 . S
N792 C789 1.351 . S
N792 N793 1.365 . S
N793 C790 1.341 . S
N793 N792 1.365 . S
N793 H813 0.862 . S
C794 C789 1.501 . S
C794 H795 0.961 . S
C794 H796 0.961 . S
C794 H797 0.960 . S
H795 C794 0.961 . S
H796 C794 0.961 . S
H797 C794 0.960 . S
C798 N799 1.342 . S
C798 C802 1.401 . S
C798 C803 1.499 . S
N799 Co782 1.989 . S
N799 C798 1.342 . S
N799 N800 1.388 . S
N800 Co783 1.993 . S
N800 N799 1.388 . S
N800 C801 1.346 . S
C801 N800 1.346 . S
C801 C802 1.396 . S
C801 C811 1.510 . S
C802 C798 1.401 . S
C802 C801 1.396 . S
C803 C798 1.499 . S
C803 H804 0.959 . S
C803 H805 0.960 . S
C803 H806 0.961 . S
H804 C803 0.959 . S
H805 C803 0.960 . S
H806 C803 0.961 . S
O807 Co782 1.967 . S
O807 C815 1.258 . S
O808 Co783 1.941 . S
O808 C815 1.266 . S
H809 C811 0.959 . S
H810 C811 0.961 . S
C811 C801 1.510 . S
C811 H809 0.959 . S
C811 H810 0.961 . S
C811 H812 0.960 . S
H812 C811 0.960 . S
H813 N793 0.862 . S
O814 Co782 1.920 . S
O814 C787 1.289 . S
C815 O807 1.258 . S
C815 O808 1.266 . S
Co816 O819 1.970 . S
Co816 N833 1.989 . S
Co816 O841 1.967 . S
Co816 O848 1.920 . S
Co817 O820 1.966 . S
Co817 N826 2.022 . S
Co817 N834 1.993 . S
Co817 O842 1.941 . S
C818 O819 1.258 . S
C818 O820 1.263 . S
O819 Co816 1.970 . S
O819 C818 1.258 . S
O820 Co817 1.966 . S
O820 C818 1.263 . S
C821 O822 1.235 . S
C821 O848 1.289 . S
O822 C821 1.235 . S
C823 C825 1.400 . S
C823 N826 1.351 . S
C823 C828 1.501 . S
C824 C825 1.387 . S
C824 N827 1.341 . S
C825 C823 1.400 . S
C825 C824 1.387 . S
N826 Co817 2.022 . S
N826 C823 1.351 . S
N826 N827 1.365 . S
N827 C824 1.341 . S
N827 N826 1.365 . S
N827 H847 0.862 . S
C828 C823 1.501 . S
C828 H829 0.961 . S
C828 H830 0.961 . S
C828 H831 0.960 . S
H829 C828 0.961 . S
H830 C828 0.961 . S
H831 C828 0.960 . S
C832 N833 1.342 . S
C832 C836 1.401 . S
C832 C837 1.499 . S
N833 Co816 1.989 . S
N833 C832 1.342 . S
N833 N834 1.388 . S
N834 Co817 1.993 . S
N834 N833 1.388 . S
N834 C835 1.346 . S
C835 N834 1.346 . S
C835 C836 1.396 . S
C835 C845 1.510 . S
C836 C832 1.401 . S
C836 C835 1.396 . S
C837 C832 1.499 . S
C837 H838 0.959 . S
C837 H839 0.960 . S
C837 H840 0.961 . S
H838 C837 0.959 . S
H839 C837 0.960 . S
H840 C837 0.961 . S
O841 Co816 1.967 . S
O841 C849 1.258 . S
O842 Co817 1.941 . S
O842 C849 1.266 . S
H843 C845 0.959 . S
H844 C845 0.961 . S
C845 C835 1.510 . S
C845 H843 0.959 . S
C845 H844 0.961 . S
C845 H846 0.960 . S
H846 C845 0.960 . S
H847 N827 0.862 . S
O848 Co816 1.920 . S
O848 C821 1.289 . S
C849 O841 1.258 . S
C849 O842 1.266 . S
Co850 O853 1.970 . S
Co850 N867 1.989 . S
Co850 O875 1.967 . S
Co850 O882 1.920 . S
Co851 O854 1.966 . S
Co851 N860 2.022 . S
Co851 N868 1.993 . S
Co851 O876 1.941 . S
C852 O853 1.258 . S
C852 O854 1.263 . S
O853 Co850 1.970 . S
O853 C852 1.258 . S
O854 Co851 1.966 . S
O854 C852 1.263 . S
C855 O856 1.235 . S
C855 O882 1.289 . S
O856 C855 1.235 . S
C857 C859 1.400 . S
C857 N860 1.351 . S
C857 C862 1.501 . S
C858 C859 1.387 . S
C858 N861 1.341 . S
C859 C857 1.400 . S
C859 C858 1.387 . S
N860 Co851 2.022 . S
N860 C857 1.351 . S
N860 N861 1.365 . S
N861 C858 1.341 . S
N861 N860 1.365 . S
N861 H881 0.862 . S
C862 C857 1.501 . S
C862 H863 0.961 . S
C862 H864 0.961 . S
C862 H865 0.960 . S
H863 C862 0.961 . S
H864 C862 0.961 . S
H865 C862 0.960 . S
C866 N867 1.342 . S
C866 C870 1.401 . S
C866 C871 1.499 . S
N867 Co850 1.989 . S
N867 C866 1.342 . S
N867 N868 1.388 . S
N868 Co851 1.993 . S
N868 N867 1.388 . S
N868 C869 1.346 . S
C869 N868 1.346 . S
C869 C870 1.396 . S
C869 C879 1.510 . S
C870 C866 1.401 . S
C870 C869 1.396 . S
C871 C866 1.499 . S
C871 H872 0.959 . S
C871 H873 0.960 . S
C871 H874 0.961 . S
H872 C871 0.959 . S
H873 C871 0.960 . S
H874 C871 0.961 . S
O875 Co850 1.967 . S
O875 C883 1.258 . S
O876 Co851 1.941 . S
O876 C883 1.266 . S
H877 C879 0.959 . S
H878 C879 0.961 . S
C879 C869 1.510 . S
C879 H877 0.959 . S
C879 H878 0.961 . S
C879 H880 0.960 . S
H880 C879 0.960 . S
H881 N861 0.862 . S
O882 Co850 1.920 . S
O882 C855 1.289 . S
C883 O875 1.258 . S
C883 O876 1.266 . S
Co884 O887 1.970 . S
Co884 N901 1.989 . S
Co884 O909 1.967 . S
Co884 O916 1.920 . S
Co885 O888 1.966 . S
Co885 N894 2.022 . S
Co885 N902 1.993 . S
Co885 O910 1.941 . S
C886 O887 1.258 . S
C886 O888 1.263 . S
O887 Co884 1.970 . S
O887 C886 1.258 . S
O888 Co885 1.966 . S
O888 C886 1.263 . S
C889 O890 1.235 . S
C889 O916 1.289 . S
O890 C889 1.235 . S
C891 C893 1.400 . S
C891 N894 1.351 . S
C891 C896 1.501 . S
C892 C893 1.387 . S
C892 N895 1.341 . S
C893 C891 1.400 . S
C893 C892 1.387 . S
N894 Co885 2.022 . S
N894 C891 1.351 . S
N894 N895 1.365 . S
N895 C892 1.341 . S
N895 N894 1.365 . S
N895 H915 0.862 . S
C896 C891 1.501 . S
C896 H897 0.961 . S
C896 H898 0.961 . S
C896 H899 0.960 . S
H897 C896 0.961 . S
H898 C896 0.961 . S
H899 C896 0.960 . S
C900 N901 1.342 . S
C900 C904 1.401 . S
C900 C905 1.499 . S
N901 Co884 1.989 . S
N901 C900 1.342 . S
N901 N902 1.388 . S
N902 Co885 1.993 . S
N902 N901 1.388 . S
N902 C903 1.346 . S
C903 N902 1.346 . S
C903 C904 1.396 . S
C903 C913 1.510 . S
C904 C900 1.401 . S
C904 C903 1.396 . S
C905 C900 1.499 . S
C905 H906 0.959 . S
C905 H907 0.960 . S
C905 H908 0.961 . S
H906 C905 0.959 . S
H907 C905 0.960 . S
H908 C905 0.961 . S
O909 Co884 1.967 . S
O909 C917 1.258 . S
O910 Co885 1.941 . S
O910 C917 1.266 . S
H911 C913 0.959 . S
H912 C913 0.961 . S
C913 C903 1.510 . S
C913 H911 0.959 . S
C913 H912 0.961 . S
C913 H914 0.960 . S
H914 C913 0.960 . S
H915 N895 0.862 . S
O916 Co884 1.920 . S
O916 C889 1.289 . S
C917 O909 1.258 . S
C917 O910 1.266 . S
Co918 O921 1.970 . S
Co918 N935 1.989 . S
Co918 O943 1.967 . S
Co918 O950 1.920 . S
Co919 O922 1.966 . S
Co919 N928 2.022 . S
Co919 N936 1.993 . S
Co919 O944 1.941 . S
C920 O921 1.258 . S
C920 O922 1.263 . S
O921 Co918 1.970 . S
O921 C920 1.258 . S
O922 Co919 1.966 . S
O922 C920 1.263 . S
C923 O924 1.235 . S
C923 O950 1.289 . S
O924 C923 1.235 . S
C925 C927 1.400 . S
C925 N928 1.351 . S
C925 C930 1.501 . S
C926 C927 1.387 . S
C926 N929 1.341 . S
C927 C925 1.400 . S
C927 C926 1.387 . S
N928 Co919 2.022 . S
N928 C925 1.351 . S
N928 N929 1.365 . S
N929 C926 1.341 . S
N929 N928 1.365 . S
N929 H949 0.862 . S
C930 C925 1.501 . S
C930 H931 0.961 . S
C930 H932 0.961 . S
C930 H933 0.960 . S
H931 C930 0.961 . S
H932 C930 0.961 . S
H933 C930 0.960 . S
C934 N935 1.342 . S
C934 C938 1.401 . S
C934 C939 1.499 . S
N935 Co918 1.989 . S
N935 C934 1.342 . S
N935 N936 1.388 . S
N936 Co919 1.993 . S
N936 N935 1.388 . S
N936 C937 1.346 . S
C937 N936 1.346 . S
C937 C938 1.396 . S
C937 C947 1.510 . S
C938 C934 1.401 . S
C938 C937 1.396 . S
C939 C934 1.499 . S
C939 H940 0.959 . S
C939 H941 0.960 . S
C939 H942 0.961 . S
H940 C939 0.959 . S
H941 C939 0.960 . S
H942 C939 0.961 . S
O943 Co918 1.967 . S
O943 C951 1.258 . S
O944 Co919 1.941 . S
O944 C951 1.266 . S
H945 C947 0.959 . S
H946 C947 0.961 . S
C947 C937 1.510 . S
C947 H945 0.959 . S
C947 H946 0.961 . S
C947 H948 0.960 . S
H948 C947 0.960 . S
H949 N929 0.862 . S
O950 Co918 1.920 . S
O950 C923 1.289 . S
C951 O943 1.258 . S
C951 O944 1.266 . S
Co952 O955 1.970 . S
Co952 N969 1.989 . S
Co952 O977 1.967 . S
Co952 O984 1.920 . S
Co953 O956 1.966 . S
Co953 N962 2.022 . S
Co953 N970 1.993 . S
Co953 O978 1.941 . S
C954 O955 1.258 . S
C954 O956 1.263 . S
O955 Co952 1.970 . S
O955 C954 1.258 . S
O956 Co953 1.966 . S
O956 C954 1.263 . S
C957 O958 1.235 . S
C957 O984 1.289 . S
O958 C957 1.235 . S
C959 C961 1.400 . S
C959 N962 1.351 . S
C959 C964 1.501 . S
C960 C961 1.387 . S
C960 N963 1.341 . S
C961 C959 1.400 . S
C961 C960 1.387 . S
N962 Co953 2.022 . S
N962 C959 1.351 . S
N962 N963 1.365 . S
N963 C960 1.341 . S
N963 N962 1.365 . S
N963 H983 0.862 . S
C964 C959 1.501 . S
C964 H965 0.961 . S
C964 H966 0.961 . S
C964 H967 0.960 . S
H965 C964 0.961 . S
H966 C964 0.961 . S
H967 C964 0.960 . S
C968 N969 1.342 . S
C968 C972 1.401 . S
C968 C973 1.499 . S
N969 Co952 1.989 . S
N969 C968 1.342 . S
N969 N970 1.388 . S
N970 Co953 1.993 . S
N970 N969 1.388 . S
N970 C971 1.346 . S
C971 N970 1.346 . S
C971 C972 1.396 . S
C971 C981 1.510 . S
C972 C968 1.401 . S
C972 C971 1.396 . S
C973 C968 1.499 . S
C973 H974 0.959 . S
C973 H975 0.960 . S
C973 H976 0.961 . S
H974 C973 0.959 . S
H975 C973 0.960 . S
H976 C973 0.961 . S
O977 Co952 1.967 . S
O977 C985 1.258 . S
O978 Co953 1.941 . S
O978 C985 1.266 . S
H979 C981 0.959 . S
H980 C981 0.961 . S
C981 C971 1.510 . S
C981 H979 0.959 . S
C981 H980 0.961 . S
C981 H982 0.960 . S
H982 C981 0.960 . S
H983 N963 0.862 . S
O984 Co952 1.920 . S
O984 C957 1.289 . S
C985 O977 1.258 . S
C985 O978 1.266 . S
Co986 O989 1.970 . S
Co986 N1003 1.989 . S
Co986 O1011 1.967 . S
Co986 O1018 1.920 . S
Co987 O990 1.966 . S
Co987 N996 2.022 . S
Co987 N1004 1.993 . S
Co987 O1012 1.941 . S
C988 O989 1.258 . S
C988 O990 1.263 . S
O989 Co986 1.970 . S
O989 C988 1.258 . S
O990 Co987 1.966 . S
O990 C988 1.263 . S
C991 O992 1.235 . S
C991 O1018 1.289 . S
O992 C991 1.235 . S
C993 C995 1.400 . S
C993 N996 1.351 . S
C993 C998 1.501 . S
C994 C995 1.387 . S
C994 N997 1.341 . S
C995 C993 1.400 . S
C995 C994 1.387 . S
N996 Co987 2.022 . S
N996 C993 1.351 . S
N996 N997 1.365 . S
N997 C994 1.341 . S
N997 N996 1.365 . S
N997 H1017 0.862 . S
C998 C993 1.501 . S
C998 H999 0.961 . S
C998 H1000 0.961 . S
C998 H1001 0.960 . S
H999 C998 0.961 . S
H1000 C998 0.961 . S
H1001 C998 0.960 . S
C1002 N1003 1.342 . S
C1002 C1006 1.401 . S
C1002 C1007 1.499 . S
N1003 Co986 1.989 . S
N1003 C1002 1.342 . S
N1003 N1004 1.388 . S
N1004 Co987 1.993 . S
N1004 N1003 1.388 . S
N1004 C1005 1.346 . S
C1005 N1004 1.346 . S
C1005 C1006 1.396 . S
C1005 C1015 1.510 . S
C1006 C1002 1.401 . S
C1006 C1005 1.396 . S
C1007 C1002 1.499 . S
C1007 H1008 0.959 . S
C1007 H1009 0.960 . S
C1007 H1010 0.961 . S
H1008 C1007 0.959 . S
H1009 C1007 0.960 . S
H1010 C1007 0.961 . S
O1011 Co986 1.967 . S
O1011 C1019 1.258 . S
O1012 Co987 1.941 . S
O1012 C1019 1.266 . S
H1013 C1015 0.959 . S
H1014 C1015 0.961 . S
C1015 C1005 1.510 . S
C1015 H1013 0.959 . S
C1015 H1014 0.961 . S
C1015 H1016 0.960 . S
H1016 C1015 0.960 . S
H1017 N997 0.862 . S
O1018 Co986 1.920 . S
O1018 C991 1.289 . S
C1019 O1011 1.258 . S
C1019 O1012 1.266 . S
Co1020 O1023 1.970 . S
Co1020 N1037 1.989 . S
Co1020 O1045 1.967 . S
Co1020 O1052 1.920 . S
Co1021 O1024 1.966 . S
Co1021 N1030 2.022 . S
Co1021 N1038 1.993 . S
Co1021 O1046 1.941 . S
C1022 O1023 1.258 . S
C1022 O1024 1.263 . S
O1023 Co1020 1.970 . S
O1023 C1022 1.258 . S
O1024 Co1021 1.966 . S
O1024 C1022 1.263 . S
C1025 O1026 1.235 . S
C1025 O1052 1.289 . S
O1026 C1025 1.235 . S
C1027 C1029 1.400 . S
C1027 N1030 1.351 . S
C1027 C1032 1.501 . S
C1028 C1029 1.387 . S
C1028 N1031 1.341 . S
C1029 C1027 1.400 . S
C1029 C1028 1.387 . S
N1030 Co1021 2.022 . S
N1030 C1027 1.351 . S
N1030 N1031 1.365 . S
N1031 C1028 1.341 . S
N1031 N1030 1.365 . S
N1031 H1051 0.862 . S
C1032 C1027 1.501 . S
C1032 H1033 0.961 . S
C1032 H1034 0.961 . S
C1032 H1035 0.960 . S
H1033 C1032 0.961 . S
H1034 C1032 0.961 . S
H1035 C1032 0.960 . S
C1036 N1037 1.342 . S
C1036 C1040 1.401 . S
C1036 C1041 1.499 . S
N1037 Co1020 1.989 . S
N1037 C1036 1.342 . S
N1037 N1038 1.388 . S
N1038 Co1021 1.993 . S
N1038 N1037 1.388 . S
N1038 C1039 1.346 . S
C1039 N1038 1.346 . S
C1039 C1040 1.396 . S
C1039 C1049 1.510 . S
C1040 C1036 1.401 . S
C1040 C1039 1.396 . S
C1041 C1036 1.499 . S
C1041 H1042 0.959 . S
C1041 H1043 0.960 . S
C1041 H1044 0.961 . S
H1042 C1041 0.959 . S
H1043 C1041 0.960 . S
H1044 C1041 0.961 . S
O1045 Co1020 1.967 . S
O1045 C1053 1.258 . S
O1046 Co1021 1.941 . S
O1046 C1053 1.266 . S
H1047 C1049 0.959 . S
H1048 C1049 0.961 . S
C1049 C1039 1.510 . S
C1049 H1047 0.959 . S
C1049 H1048 0.961 . S
C1049 H1050 0.960 . S
H1050 C1049 0.960 . S
H1051 N1031 0.862 . S
O1052 Co1020 1.920 . S
O1052 C1025 1.289 . S
C1053 O1045 1.258 . S
C1053 O1046 1.266 . S
Co1054 O1057 1.970 . S
Co1054 N1071 1.989 . S
Co1054 O1079 1.967 . S
Co1054 O1086 1.920 . S
Co1055 O1058 1.966 . S
Co1055 N1064 2.022 . S
Co1055 N1072 1.993 . S
Co1055 O1080 1.941 . S
C1056 O1057 1.258 . S
C1056 O1058 1.263 . S
O1057 Co1054 1.970 . S
O1057 C1056 1.258 . S
O1058 Co1055 1.966 . S
O1058 C1056 1.263 . S
C1059 O1060 1.235 . S
C1059 O1086 1.289 . S
O1060 C1059 1.235 . S
C1061 C1063 1.400 . S
C1061 N1064 1.351 . S
C1061 C1066 1.501 . S
C1062 C1063 1.387 . S
C1062 N1065 1.341 . S
C1063 C1061 1.400 . S
C1063 C1062 1.387 . S
N1064 Co1055 2.022 . S
N1064 C1061 1.351 . S
N1064 N1065 1.365 . S
N1065 C1062 1.341 . S
N1065 N1064 1.365 . S
N1065 H1085 0.862 . S
C1066 C1061 1.501 . S
C1066 H1067 0.961 . S
C1066 H1068 0.961 . S
C1066 H1069 0.960 . S
H1067 C1066 0.961 . S
H1068 C1066 0.961 . S
H1069 C1066 0.960 . S
C1070 N1071 1.342 . S
C1070 C1074 1.401 . S
C1070 C1075 1.499 . S
N1071 Co1054 1.989 . S
N1071 C1070 1.342 . S
N1071 N1072 1.388 . S
N1072 Co1055 1.993 . S
N1072 N1071 1.388 . S
N1072 C1073 1.346 . S
C1073 N1072 1.346 . S
C1073 C1074 1.396 . S
C1073 C1083 1.510 . S
C1074 C1070 1.401 . S
C1074 C1073 1.396 . S
C1075 C1070 1.499 . S
C1075 H1076 0.959 . S
C1075 H1077 0.960 . S
C1075 H1078 0.961 . S
H1076 C1075 0.959 . S
H1077 C1075 0.960 . S
H1078 C1075 0.961 . S
O1079 Co1054 1.967 . S
O1079 C1087 1.258 . S
O1080 Co1055 1.941 . S
O1080 C1087 1.266 . S
H1081 C1083 0.959 . S
H1082 C1083 0.961 . S
C1083 C1073 1.510 . S
C1083 H1081 0.959 . S
C1083 H1082 0.961 . S
C1083 H1084 0.960 . S
H1084 C1083 0.960 . S
H1085 N1065 0.862 . S
O1086 Co1054 1.920 . S
O1086 C1059 1.289 . S
C1087 O1079 1.258 . S
C1087 O1080 1.266 . S
H1088 C1094 0.919 1_565 S
H1089 C1097 0.930 . S
H1090 C1098 0.930 . S
H1091 C1099 0.930 . S
H1092 C1102 0.930 . S
H1093 C1103 0.930 . S
C1094 H1088 0.919 1_545 S
C1094 C1095 1.366 . S
C1094 C1096 1.414 1_545 S
C1095 C1094 1.366 . S
C1095 C1097 1.419 . S
C1096 C1094 1.414 1_565 S
C1096 C1101 1.425 1_565 S
C1096 C1103 1.409 . S
C1097 H1089 0.930 . S
C1097 C1095 1.419 . S
C1097 C1098 1.362 . S
C1098 H1090 0.930 . S
C1098 C1097 1.362 . S
C1098 C1101 1.409 . S
C1099 H1091 0.930 . S
C1099 C1100 1.355 1_545 S
C1099 C1101 1.415 . S
C1100 C1099 1.355 1_565 S
C1100 C1102 1.419 . S
C1101 C1096 1.425 1_545 S
C1101 C1098 1.409 . S
C1101 C1099 1.415 . S
C1102 H1092 0.930 . S
C1102 C1100 1.419 . S
C1102 C1103 1.362 . S
C1103 H1093 0.930 . S
C1103 C1096 1.409 . S
C1103 C1102 1.362 . S
H1104 C1110 0.930 . S
H1105 C1113 0.930 . S
H1106 C1114 0.930 . S
H1107 C1115 0.930 . S
H1108 C1118 0.930 . S
H1109 C1119 0.930 . S
C1110 H1104 0.930 . S
C1110 C1111 1.355 1_565 S
C1110 C1112 1.415 . S
C1111 C1110 1.355 1_545 S
C1111 C1113 1.419 . S
C1112 C1110 1.415 . S
C1112 C1117 1.425 1_565 S
C1112 C1119 1.409 . S
C1113 H1105 0.930 . S
C1113 C1111 1.419 . S
C1113 C1114 1.362 . S
C1114 H1106 0.930 . S
C1114 C1113 1.362 . S
C1114 C1117 1.409 . S
C1115 H1107 0.930 . S
C1115 C1116 1.355 1_545 S
C1115 C1117 1.415 . S
C1116 C1115 1.355 1_565 S
C1116 C1118 1.419 . S
C1117 C1112 1.425 1_545 S
C1117 C1114 1.409 . S
C1117 C1115 1.415 . S
C1118 H1108 0.930 . S
C1118 C1116 1.419 . S
C1118 C1119 1.362 . S
C1119 H1109 0.930 . S
C1119 C1112 1.409 . S
C1119 C1118 1.362 . S
H1120 C1126 0.930 1_545 S
H1121 C1129 0.930 . S
H1122 C1130 0.930 . S
H1123 C1131 0.930 . S
H1124 C1134 0.930 . S
H1125 C1135 0.930 . S
C1126 H1120 0.930 1_565 S
C1126 C1127 1.355 . S
C1126 C1128 1.415 1_565 S
C1127 C1126 1.355 . S
C1127 C1129 1.419 . S
C1128 C1126 1.415 1_545 S
C1128 C1133 1.425 1_545 S
C1128 C1135 1.409 . S
C1129 H1121 0.930 . S
C1129 C1127 1.419 . S
C1129 C1130 1.362 . S
C1130 H1122 0.930 . S
C1130 C1129 1.362 . S
C1130 C1133 1.409 . S
C1131 H1123 0.930 . S
C1131 C1132 1.355 1_565 S
C1131 C1133 1.415 . S
C1132 C1131 1.355 1_545 S
C1132 C1134 1.419 . S
C1133 C1128 1.425 1_565 S
C1133 C1130 1.409 . S
C1133 C1131 1.415 . S
C1134 H1124 0.930 . S
C1134 C1132 1.419 . S
C1134 C1135 1.362 . S
C1135 H1125 0.930 . S
C1135 C1128 1.409 . S
C1135 C1134 1.362 . S
H1136 C1142 0.930 . S
H1137 C1145 0.930 . S
H1138 C1146 0.930 . S
H1139 C1147 0.930 . S
H1140 C1150 0.930 . S
H1141 C1151 0.930 . S
C1142 H1136 0.930 . S
C1142 C1143 1.355 . S
C1142 C1144 1.415 . S
C1143 C1142 1.355 . S
C1143 C1145 1.419 . S
C1144 C1142 1.415 . S
C1144 C1149 1.425 . S
C1144 C1151 1.409 1_545 S
C1145 H1137 0.930 . S
C1145 C1143 1.419 . S
C1145 C1146 1.362 . S
C1146 H1138 0.930 . S
C1146 C1145 1.362 . S
C1146 C1149 1.409 . S
C1147 H1139 0.930 . S
C1147 C1148 1.355 1_545 S
C1147 C1149 1.415 . S
C1148 C1147 1.355 1_565 S
C1148 C1150 1.419 . S
C1149 C1144 1.425 . S
C1149 C1146 1.409 . S
C1149 C1147 1.415 . S
C1150 H1140 0.930 . S
C1150 C1148 1.419 . S
C1150 C1151 1.362 . S
C1151 H1141 0.930 . S
C1151 C1144 1.409 1_565 S
C1151 C1150 1.362 . S
H1152 C1158 0.930 . S
H1153 C1161 0.930 . S
H1154 C1162 0.930 . S
H1155 C1163 0.930 . S
H1156 C1166 0.930 . S
H1157 C1167 0.928 1_545 S
C1158 H1152 0.930 . S
C1158 C1159 1.355 . S
C1158 C1160 1.415 1_545 S
C1159 C1158 1.355 . S
C1159 C1161 1.419 1_545 S
C1160 C1158 1.415 1_565 S
C1160 C1165 1.425 . S
C1160 C1167 1.410 . S
C1161 H1153 0.930 . S
C1161 C1159 1.419 1_565 S
C1161 C1162 1.362 . S
C1162 H1154 0.930 . S
C1162 C1161 1.362 . S
C1162 C1165 1.409 . S
C1163 H1155 0.930 . S
C1163 C1164 1.355 . S
C1163 C1165 1.415 . S
C1164 C1163 1.355 . S
C1164 C1166 1.419 . S
C1165 C1160 1.425 . S
C1165 C1162 1.409 . S
C1165 C1163 1.415 . S
C1166 H1156 0.930 . S
C1166 C1164 1.419 . S
C1166 C1167 1.364 . S
C1167 H1157 0.928 1_565 S
C1167 C1160 1.410 . S
C1167 C1166 1.364 . S
H1168 C1174 0.930 . S
H1169 C1177 0.930 . S
H1170 C1178 0.930 . S
H1171 C1179 0.930 . S
H1172 C1182 0.930 . S
H1173 C1183 0.930 . S
C1174 H1168 0.930 . S
C1174 C1175 1.355 . S
C1174 C1176 1.415 . S
C1175 C1174 1.355 . S
C1175 C1177 1.419 1_545 S
C1176 C1174 1.415 . S
C1176 C1181 1.425 1_545 S
C1176 C1183 1.409 . S
C1177 H1169 0.930 . S
C1177 C1175 1.419 1_565 S
C1177 C1178 1.362 . S
C1178 H1170 0.930 . S
C1178 C1177 1.362 . S
C1178 C1181 1.409 . S
C1179 H1171 0.930 . S
C1179 C1180 1.345 1_565 S
C1179 C1181 1.415 . S
C1180 C1179 1.345 1_545 S
C1180 C1182 1.434 . S
C1181 C1176 1.425 1_565 S
C1181 C1178 1.409 . S
C1181 C1179 1.415 . S
C1182 H1172 0.930 . S
C1182 C1180 1.434 . S
C1182 C1183 1.362 . S
C1183 H1173 0.930 . S
C1183 C1176 1.409 . S
C1183 C1182 1.362 . S
H1184 C1190 0.930 . S
H1185 C1193 0.930 . S
H1186 C1194 0.930 . S
H1187 C1195 0.930 1_565 S
H1188 C1198 0.930 . S
H1189 C1199 0.930 . S
C1190 H1184 0.930 . S
C1190 C1191 1.355 1_545 S
C1190 C1192 1.415 . S
C1191 C1190 1.355 1_565 S
C1191 C1193 1.419 . S
C1192 C1190 1.415 . S
C1192 C1197 1.425 . S
C1192 C1199 1.409 . S
C1193 H1185 0.930 . S
C1193 C1191 1.419 . S
C1193 C1194 1.362 . S
C1194 H1186 0.930 . S
C1194 C1193 1.362 . S
C1194 C1197 1.409 1_565 S
C1195 H1187 0.930 1_545 S
C1195 C1196 1.355 . S
C1195 C1197 1.415 . S
C1196 C1195 1.355 . S
C1196 C1198 1.419 . S
C1197 C1192 1.425 . S
C1197 C1194 1.409 1_545 S
C1197 C1195 1.415 . S
C1198 H1188 0.930 . S
C1198 C1196 1.419 . S
C1198 C1199 1.362 . S
C1199 H1189 0.930 . S
C1199 C1192 1.409 . S
C1199 C1198 1.362 . S
H1200 C1206 0.930 1_545 S
H1201 C1209 0.930 . S
H1202 C1210 0.930 . S
H1203 C1211 0.930 . S
H1204 C1214 0.930 . S
H1205 C1215 0.930 . S
C1206 H1200 0.930 1_565 S
C1206 C1207 1.355 . S
C1206 C1208 1.415 . S
C1207 C1206 1.355 . S
C1207 C1209 1.419 . S
C1208 C1206 1.415 . S
C1208 C1213 1.425 . S
C1208 C1215 1.409 1_565 S
C1209 H1201 0.930 . S
C1209 C1207 1.419 . S
C1209 C1210 1.362 . S
C1210 H1202 0.930 . S
C1210 C1209 1.362 . S
C1210 C1213 1.409 . S
C1211 H1203 0.930 . S
C1211 C1212 1.355 1_565 S
C1211 C1213 1.415 . S
C1212 C1211 1.355 1_545 S
C1212 C1214 1.419 . S
C1213 C1208 1.425 . S
C1213 C1210 1.409 . S
C1213 C1211 1.415 . S
C1214 H1204 0.930 . S
C1214 C1212 1.419 . S
C1214 C1215 1.362 . S
C1215 H1205 0.930 . S
C1215 C1208 1.409 1_545 S
C1215 C1214 1.362 . S
H1216 C1222 0.930 . S
H1217 C1225 0.930 . S
H1218 C1226 0.930 . S
H1219 C1227 0.930 . S
H1220 C1230 0.930 . S
H1221 C1231 0.930 . S
C1222 H1216 0.930 . S
C1222 C1223 1.355 . S
C1222 C1224 1.415 . S
C1223 C1222 1.355 . S
C1223 C1225 1.419 . S
C1224 C1222 1.415 . S
C1224 C1229 1.425 . S
C1224 C1231 1.409 . S
C1225 H1217 0.930 . S
C1225 C1223 1.419 . S
C1225 C1226 1.362 . S
C1226 H1218 0.930 . S
C1226 C1225 1.362 . S
C1226 C1229 1.409 . S
C1227 H1219 0.930 . S
C1227 C1228 1.355 . S
C1227 C1229 1.415 . S
C1228 C1227 1.355 . S
C1228 C1230 1.419 . S
C1229 C1224 1.425 . S
C1229 C1226 1.409 . S
C1229 C1227 1.415 . S
C1230 H1220 0.930 . S
C1230 C1228 1.419 . S
C1230 C1231 1.362 . S
C1231 H1221 0.930 . S
C1231 C1224 1.409 . S
C1231 C1230 1.362 . S
H1232 C1238 0.930 . S
H1233 C1241 0.930 . S
H1234 C1242 0.930 . S
H1235 C1243 0.930 . S
H1236 C1246 0.930 . S
H1237 C1247 0.930 . S
C1238 H1232 0.930 . S
C1238 C1239 1.355 . S
C1238 C1240 1.415 . S
C1239 C1238 1.355 . S
C1239 C1241 1.419 . S
C1240 C1238 1.415 . S
C1240 C1245 1.425 . S
C1240 C1247 1.409 . S
C1241 H1233 0.930 . S
C1241 C1239 1.419 . S
C1241 C1242 1.362 . S
C1242 H1234 0.930 . S
C1242 C1241 1.362 . S
C1242 C1245 1.409 . S
C1243 H1235 0.930 . S
C1243 C1244 1.355 . S
C1243 C1245 1.415 . S
C1244 C1243 1.355 . S
C1244 C1246 1.419 . S
C1245 C1240 1.425 . S
C1245 C1242 1.409 . S
C1245 C1243 1.415 . S
C1246 H1236 0.930 . S
C1246 C1244 1.419 . S
C1246 C1247 1.362 . S
C1247 H1237 0.930 . S
C1247 C1240 1.409 . S
C1247 C1246 1.362 . S
H1248 C1254 0.930 . S
H1249 C1257 0.930 . S
H1250 C1258 0.930 . S
H1251 C1259 0.930 . S
H1252 C1262 0.930 . S
H1253 C1263 0.930 . S
C1254 H1248 0.930 . S
C1254 C1255 1.355 . S
C1254 C1256 1.415 . S
C1255 C1254 1.355 . S
C1255 C1257 1.419 . S
C1256 C1254 1.415 . S
C1256 C1261 1.425 . S
C1256 C1263 1.409 . S
C1257 H1249 0.930 . S
C1257 C1255 1.419 . S
C1257 C1258 1.362 . S
C1258 H1250 0.930 . S
C1258 C1257 1.362 . S
C1258 C1261 1.409 . S
C1259 H1251 0.930 . S
C1259 C1260 1.355 . S
C1259 C1261 1.415 . S
C1260 C1259 1.355 . S
C1260 C1262 1.419 . S
C1261 C1256 1.425 . S
C1261 C1258 1.409 . S
C1261 C1259 1.415 . S
C1262 H1252 0.930 . S
C1262 C1260 1.419 . S
C1262 C1263 1.362 . S
C1263 H1253 0.930 . S
C1263 C1256 1.409 . S
C1263 C1262 1.362 . S
H1264 C1270 0.930 . S
H1265 C1273 0.930 . S
H1266 C1274 0.930 . S
H1267 C1275 0.930 . S
H1268 C1278 0.930 . S
H1269 C1279 0.930 . S
C1270 H1264 0.930 . S
C1270 C1271 1.355 . S
C1270 C1272 1.415 . S
C1271 C1270 1.355 . S
C1271 C1273 1.419 . S
C1272 C1270 1.415 . S
C1272 C1277 1.425 . S
C1272 C1279 1.409 . S
C1273 H1265 0.930 . S
C1273 C1271 1.419 . S
C1273 C1274 1.362 . S
C1274 H1266 0.930 . S
C1274 C1273 1.362 . S
C1274 C1277 1.409 . S
C1275 H1267 0.930 . S
C1275 C1276 1.355 . S
C1275 C1277 1.415 . S
C1276 C1275 1.355 . S
C1276 C1278 1.419 . S
C1277 C1272 1.425 . S
C1277 C1274 1.409 . S
C1277 C1275 1.415 . S
C1278 H1268 0.930 . S
C1278 C1276 1.419 . S
C1278 C1279 1.362 . S
C1279 H1269 0.930 . S
C1279 C1272 1.409 . S
C1279 C1278 1.362 . S
H1280 C1286 0.930 . S
H1281 C1289 0.930 . S
H1282 C1290 0.930 . S
H1283 C1291 0.930 . S
H1284 C1294 0.930 . S
H1285 C1295 0.930 . S
C1286 H1280 0.930 . S
C1286 C1287 1.355 . S
C1286 C1288 1.415 . S
C1287 C1286 1.355 . S
C1287 C1289 1.419 . S
C1288 C1286 1.415 . S
C1288 C1293 1.425 . S
C1288 C1295 1.409 . S
C1289 H1281 0.930 . S
C1289 C1287 1.419 . S
C1289 C1290 1.362 . S
C1290 H1282 0.930 . S
C1290 C1289 1.362 . S
C1290 C1293 1.409 . S
C1291 H1283 0.930 . S
C1291 C1292 1.355 . S
C1291 C1293 1.415 . S
C1292 C1291 1.355 . S
C1292 C1294 1.419 . S
C1293 C1288 1.425 . S
C1293 C1290 1.409 . S
C1293 C1291 1.415 . S
C1294 H1284 0.930 . S
C1294 C1292 1.419 . S
C1294 C1295 1.362 . S
C1295 H1285 0.930 . S
C1295 C1288 1.409 . S
C1295 C1294 1.362 . S
H1296 C1302 0.930 . S
H1297 C1305 0.930 . S
H1298 C1306 0.930 . S
H1299 C1307 0.930 . S
H1300 C1310 0.930 . S
H1301 C1311 0.930 . S
C1302 H1296 0.930 . S
C1302 C1303 1.355 . S
C1302 C1304 1.415 . S
C1303 C1302 1.355 . S
C1303 C1305 1.419 . S
C1304 C1302 1.415 . S
C1304 C1309 1.425 . S
C1304 C1311 1.409 . S
C1305 H1297 0.930 . S
C1305 C1303 1.419 . S
C1305 C1306 1.362 . S
C1306 H1298 0.930 . S
C1306 C1305 1.362 . S
C1306 C1309 1.409 . S
C1307 H1299 0.930 . S
C1307 C1308 1.355 . S
C1307 C1309 1.415 . S
C1308 C1307 1.355 . S
C1308 C1310 1.419 . S
C1309 C1304 1.425 . S
C1309 C1306 1.409 . S
C1309 C1307 1.415 . S
C1310 H1300 0.930 . S
C1310 C1308 1.419 . S
C1310 C1311 1.362 . S
C1311 H1301 0.930 . S
C1311 C1304 1.409 . S
C1311 C1310 1.362 . S
H1312 C1318 0.930 . S
H1313 C1321 0.930 . S
H1314 C1322 0.930 . S
H1315 C1323 0.930 . S
H1316 C1326 0.930 . S
H1317 C1327 0.930 . S
C1318 H1312 0.930 . S
C1318 C1319 1.355 . S
C1318 C1320 1.415 . S
C1319 C1318 1.355 . S
C1319 C1321 1.419 . S
C1320 C1318 1.415 . S
C1320 C1325 1.425 . S
C1320 C1327 1.409 . S
C1321 H1313 0.930 . S
C1321 C1319 1.419 . S
C1321 C1322 1.362 . S
C1322 H1314 0.930 . S
C1322 C1321 1.362 . S
C1322 C1325 1.409 . S
C1323 H1315 0.930 . S
C1323 C1324 1.355 . S
C1323 C1325 1.415 . S
C1324 C1323 1.355 . S
C1324 C1326 1.419 . S
C1325 C1320 1.425 . S
C1325 C1322 1.409 . S
C1325 C1323 1.415 . S
C1326 H1316 0.930 . S
C1326 C1324 1.419 . S
C1326 C1327 1.362 . S
C1327 H1317 0.930 . S
C1327 C1320 1.409 . S
C1327 C1326 1.362 . S
H1328 C1334 0.930 . S
H1329 C1337 0.930 . S
H1330 C1338 0.930 . S
H1331 C1339 0.930 . S
H1332 C1342 0.930 . S
H1333 C1343 0.930 . S
C1334 H1328 0.930 . S
C1334 C1335 1.355 . S
C1334 C1336 1.415 . S
C1335 C1334 1.355 . S
C1335 C1337 1.419 . S
C1336 C1334 1.415 . S
C1336 C1341 1.425 . S
C1336 C1343 1.409 . S
C1337 H1329 0.930 . S
C1337 C1335 1.419 . S
C1337 C1338 1.362 . S
C1338 H1330 0.930 . S
C1338 C1337 1.362 . S
C1338 C1341 1.409 . S
C1339 H1331 0.930 . S
C1339 C1340 1.355 . S
C1339 C1341 1.415 . S
C1340 C1339 1.355 . S
C1340 C1342 1.419 . S
C1341 C1336 1.425 . S
C1341 C1338 1.409 . S
C1341 C1339 1.415 . S
C1342 H1332 0.930 . S
C1342 C1340 1.419 . S
C1342 C1343 1.362 . S
C1343 H1333 0.930 . S
C1343 C1336 1.409 . S
C1343 C1342 1.362 . S
H1344 C1350 0.930 . S
H1345 C1353 0.930 . S
H1346 C1354 0.930 . S
H1347 C1355 0.930 . S
H1348 C1358 0.930 . S
H1349 C1359 0.930 . S
C1350 H1344 0.930 . S
C1350 C1351 1.355 . S
C1350 C1352 1.415 . S
C1351 C1350 1.355 . S
C1351 C1353 1.419 . S
C1352 C1350 1.415 . S
C1352 C1357 1.425 . S
C1352 C1359 1.409 . S
C1353 H1345 0.930 . S
C1353 C1351 1.419 . S
C1353 C1354 1.362 . S
C1354 H1346 0.930 . S
C1354 C1353 1.362 . S
C1354 C1357 1.409 . S
C1355 H1347 0.930 . S
C1355 C1356 1.355 . S
C1355 C1357 1.415 . S
C1356 C1355 1.355 . S
C1356 C1358 1.419 . S
C1357 C1352 1.425 . S
C1357 C1354 1.409 . S
C1357 C1355 1.415 . S
C1358 H1348 0.930 . S
C1358 C1356 1.419 . S
C1358 C1359 1.362 . S
C1359 H1349 0.930 . S
C1359 C1352 1.409 . S
C1359 C1358 1.362 . S
H1360 C1366 0.930 . S
H1361 C1369 0.930 . S
H1362 C1370 0.930 . S
H1363 C1371 0.930 . S
H1364 C1374 0.930 . S
H1365 C1375 0.930 . S
C1366 H1360 0.930 . S
C1366 C1367 1.355 . S
C1366 C1368 1.415 . S
C1367 C1366 1.355 . S
C1367 C1369 1.419 1_545 S
C1368 C1366 1.415 . S
C1368 C1373 1.425 1_545 S
C1368 C1375 1.409 . S
C1369 H1361 0.930 . S
C1369 C1367 1.419 1_565 S
C1369 C1370 1.362 . S
C1370 H1362 0.930 . S
C1370 C1369 1.362 . S
C1370 C1373 1.409 . S
C1371 H1363 0.930 . S
C1371 C1372 1.355 1_565 S
C1371 C1373 1.415 . S
C1372 C1371 1.355 1_545 S
C1372 C1374 1.419 . S
C1373 C1368 1.425 1_565 S
C1373 C1370 1.409 . S
C1373 C1371 1.415 . S
C1374 H1364 0.930 . S
C1374 C1372 1.419 . S
C1374 C1375 1.362 . S
C1375 H1365 0.930 . S
C1375 C1368 1.409 . S
C1375 C1374 1.362 . S
H1376 C1382 0.930 . S
H1377 C1385 0.930 . S
H1378 C1386 0.930 . S
H1379 C1387 0.930 . S
H1380 C1390 0.930 . S
H1381 C1391 0.930 . S
C1382 H1376 0.930 . S
C1382 C1383 1.355 . S
C1382 C1384 1.415 . S
C1383 C1382 1.355 . S
C1383 C1385 1.419 . S
C1384 C1382 1.415 . S
C1384 C1389 1.425 . S
C1384 C1391 1.409 . S
C1385 H1377 0.930 . S
C1385 C1383 1.419 . S
C1385 C1386 1.362 . S
C1386 H1378 0.930 . S
C1386 C1385 1.362 . S
C1386 C1389 1.409 . S
C1387 H1379 0.930 . S
C1387 C1388 1.355 . S
C1387 C1389 1.415 . S
C1388 C1387 1.355 . S
C1388 C1390 1.419 . S
C1389 C1384 1.425 . S
C1389 C1386 1.409 . S
C1389 C1387 1.415 . S
C1390 H1380 0.930 . S
C1390 C1388 1.419 . S
C1390 C1391 1.362 . S
C1391 H1381 0.930 . S
C1391 C1384 1.409 . S
C1391 C1390 1.362 . S
H1392 C1398 0.930 . S
H1393 C1401 0.930 . S
H1394 C1402 0.930 . S
H1395 C1403 0.930 . S
H1396 C1406 0.930 . S
H1397 C1407 0.930 . S
C1398 H1392 0.930 . S
C1398 C1399 1.355 . S
C1398 C1400 1.415 . S
C1399 C1398 1.355 . S
C1399 C1401 1.419 1_565 S
C1400 C1398 1.415 . S
C1400 C1405 1.425 1_565 S
C1400 C1407 1.409 1_455 S
C1401 H1393 0.930 . S
C1401 C1399 1.419 1_545 S
C1401 C1402 1.362 . S
C1402 H1394 0.930 . S
C1402 C1401 1.362 . S
C1402 C1405 1.409 . S
C1403 H1395 0.930 . S
C1403 C1404 1.355 1_545 S
C1403 C1405 1.415 1_655 S
C1404 C1403 1.355 1_565 S
C1404 C1406 1.419 . S
C1405 C1400 1.425 1_545 S
C1405 C1402 1.409 . S
C1405 C1403 1.415 1_455 S
C1406 H1396 0.930 . S
C1406 C1404 1.419 . S
C1406 C1407 1.362 . S
C1407 H1397 0.930 . S
C1407 C1400 1.409 1_655 S
C1407 C1406 1.362 . S
H1408 C1414 0.930 . S
H1409 C1417 0.930 . S
H1410 C1418 0.930 . S
H1411 C1419 0.930 . S
H1412 C1422 0.930 . S
H1413 C1423 0.930 . S
C1414 H1408 0.930 . S
C1414 C1415 1.355 . S
C1414 C1416 1.415 . S
C1415 C1414 1.355 . S
C1415 C1417 1.419 . S
C1416 C1414 1.415 . S
C1416 C1421 1.425 . S
C1416 C1423 1.409 . S
C1417 H1409 0.930 . S
C1417 C1415 1.419 . S
C1417 C1418 1.362 . S
C1418 H1410 0.930 . S
C1418 C1417 1.362 . S
C1418 C1421 1.409 . S
C1419 H1411 0.930 . S
C1419 C1420 1.355 . S
C1419 C1421 1.415 . S
C1420 C1419 1.355 . S
C1420 C1422 1.419 . S
C1421 C1416 1.425 . S
C1421 C1418 1.409 . S
C1421 C1419 1.415 . S
C1422 H1412 0.930 . S
C1422 C1420 1.419 . S
C1422 C1423 1.362 . S
C1423 H1413 0.930 . S
C1423 C1416 1.409 . S
C1423 C1422 1.362 . S
H1424 C1430 0.930 . S
H1425 C1433 0.930 . S
H1426 C1434 0.930 . S
H1427 C1435 0.930 . S
H1428 C1438 0.930 . S
H1429 C1439 0.930 . S
C1430 H1424 0.930 . S
C1430 C1431 1.349 1_545 S
C1430 C1432 1.415 1_655 S
C1431 C1430 1.349 1_565 S
C1431 C1433 1.423 . S
C1432 C1430 1.415 1_455 S
C1432 C1437 1.425 . S
C1432 C1439 1.409 . S
C1433 H1425 0.930 . S
C1433 C1431 1.423 . S
C1433 C1434 1.362 1_655 S
C1434 H1426 0.930 . S
C1434 C1433 1.362 1_455 S
C1434 C1437 1.409 1_565 S
C1435 H1427 0.930 . S
C1435 C1436 1.355 . S
C1435 C1437 1.415 . S
C1436 C1435 1.355 . S
C1436 C1438 1.419 . S
C1437 C1432 1.425 . S
C1437 C1434 1.409 1_545 S
C1437 C1435 1.415 . S
C1438 H1428 0.930 . S
C1438 C1436 1.419 . S
C1438 C1439 1.362 . S
C1439 H1429 0.930 . S
C1439 C1432 1.409 . S
C1439 C1438 1.362 . S
H1440 C1446 0.930 . S
H1441 C1449 0.930 . S
H1442 C1450 0.930 . S
H1443 C1451 0.930 . S
H1444 C1454 0.930 . S
H1445 C1455 0.930 . S
C1446 H1440 0.930 . S
C1446 C1447 1.355 . S
C1446 C1448 1.415 . S
C1447 C1446 1.355 . S
C1447 C1449 1.419 . S
C1448 C1446 1.415 . S
C1448 C1453 1.425 . S
C1448 C1455 1.409 . S
C1449 H1441 0.930 . S
C1449 C1447 1.419 . S
C1449 C1450 1.362 . S
C1450 H1442 0.930 . S
C1450 C1449 1.362 . S
C1450 C1453 1.409 . S
C1451 H1443 0.930 . S
C1451 C1452 1.355 . S
C1451 C1453 1.415 . S
C1452 C1451 1.355 . S
C1452 C1454 1.419 . S
C1453 C1448 1.425 . S
C1453 C1450 1.409 . S
C1453 C1451 1.415 . S
C1454 H1444 0.930 . S
C1454 C1452 1.419 . S
C1454 C1455 1.362 . S
C1455 H1445 0.930 . S
C1455 C1448 1.409 . S
C1455 C1454 1.362 . S
H1456 C1462 0.930 . S
H1457 C1465 0.930 1_545 S
H1458 C1466 0.930 . S
H1459 C1467 0.930 . S
H1460 C1470 0.930 . S
H1461 C1471 0.930 . S
C1462 H1456 0.930 . S
C1462 C1463 1.355 . S
C1462 C1464 1.415 . S
C1463 C1462 1.355 . S
C1463 C1465 1.419 . S
C1464 C1462 1.415 . S
C1464 C1469 1.425 . S
C1464 C1471 1.409 . S
C1465 H1457 0.930 1_565 S
C1465 C1463 1.419 . S
C1465 C1466 1.362 1_565 S
C1466 H1458 0.930 . S
C1466 C1465 1.362 1_545 S
C1466 C1469 1.409 1_545 S
C1467 H1459 0.930 . S
C1467 C1468 1.355 1_545 S
C1467 C1469 1.415 1_545 S
C1468 C1467 1.355 1_565 S
C1468 C1470 1.419 . S
C1469 C1464 1.425 . S
C1469 C1466 1.409 1_565 S
C1469 C1467 1.415 1_565 S
C1470 H1460 0.930 . S
C1470 C1468 1.419 . S
C1470 C1471 1.362 . S
C1471 H1461 0.930 . S
C1471 C1464 1.409 . S
C1471 C1470 1.362 . S
H1472 C1478 0.930 . S
H1473 C1481 0.930 . S
H1474 C1482 0.930 . S
H1475 C1483 0.930 . S
H1476 C1486 0.930 . S
H1477 C1487 0.930 . S
C1478 H1472 0.930 . S
C1478 C1479 1.355 . S
C1478 C1480 1.415 . S
C1479 C1478 1.355 . S
C1479 C1481 1.419 . S
C1480 C1478 1.415 . S
C1480 C1485 1.425 . S
C1480 C1487 1.409 . S
C1481 H1473 0.930 . S
C1481 C1479 1.419 . S
C1481 C1482 1.362 . S
C1482 H1474 0.930 . S
C1482 C1481 1.362 . S
C1482 C1485 1.409 . S
C1483 H1475 0.930 . S
C1483 C1484 1.355 . S
C1483 C1485 1.415 . S
C1484 C1483 1.355 . S
C1484 C1486 1.419 . S
C1485 C1480 1.425 . S
C1485 C1482 1.409 . S
C1485 C1483 1.415 . S
C1486 H1476 0.930 . S
C1486 C1484 1.419 . S
C1486 C1487 1.362 . S
C1487 H1477 0.930 . S
C1487 C1480 1.409 . S
C1487 C1486 1.362 . S
H1488 C1494 0.930 . S
H1489 C1497 0.930 1_545 S
H1490 C1498 0.930 . S
H1491 C1499 0.930 . S
H1492 C1502 0.930 . S
H1493 C1503 0.930 . S
C1494 H1488 0.930 . S
C1494 C1495 1.355 . S
C1494 C1496 1.415 . S
C1495 C1494 1.355 . S
C1495 C1497 1.419 . S
C1496 C1494 1.415 . S
C1496 C1501 1.425 . S
C1496 C1503 1.409 . S
C1497 H1489 0.930 1_565 S
C1497 C1495 1.419 . S
C1497 C1498 1.362 1_565 S
C1498 H1490 0.930 . S
C1498 C1497 1.362 1_545 S
C1498 C1501 1.409 1_545 S
C1499 H1491 0.930 . S
C1499 C1500 1.355 1_545 S
C1499 C1501 1.415 1_545 S
C1500 C1499 1.355 1_565 S
C1500 C1502 1.419 . S
C1501 C1496 1.425 . S
C1501 C1498 1.409 1_565 S
C1501 C1499 1.415 1_565 S
C1502 H1492 0.930 . S
C1502 C1500 1.419 . S
C1502 C1503 1.362 . S
C1503 H1493 0.930 . S
C1503 C1496 1.409 . S
C1503 C1502 1.362 . S
H1504 C1510 0.930 . S
H1505 C1513 0.930 . S
H1506 C1514 0.930 . S
H1507 C1515 0.930 . S
H1508 C1518 0.930 . S
H1509 C1519 0.930 . S
C1510 H1504 0.930 . S
C1510 C1511 1.355 . S
C1510 C1512 1.415 . S
C1511 C1510 1.355 . S
C1511 C1513 1.419 . S
C1512 C1510 1.415 . S
C1512 C1517 1.425 . S
C1512 C1519 1.409 . S
C1513 H1505 0.930 . S
C1513 C1511 1.419 . S
C1513 C1514 1.362 . S
C1514 H1506 0.930 . S
C1514 C1513 1.362 . S
C1514 C1517 1.409 . S
C1515 H1507 0.930 . S
C1515 C1516 1.355 . S
C1515 C1517 1.415 . S
C1516 C1515 1.355 . S
C1516 C1518 1.419 . S
C1517 C1512 1.425 . S
C1517 C1514 1.409 . S
C1517 C1515 1.415 . S
C1518 H1508 0.930 . S
C1518 C1516 1.419 . S
C1518 C1519 1.362 . S
C1519 H1509 0.930 . S
C1519 C1512 1.409 . S
C1519 C1518 1.362 . S
H1520 C1526 0.930 . S
H1521 C1529 0.930 . S
H1522 C1530 0.930 . S
H1523 C1531 0.930 . S
H1524 C1534 0.930 . S
H1525 C1535 0.930 . S
C1526 H1520 0.930 . S
C1526 C1527 1.355 1_565 S
C1526 C1528 1.415 1_455 S
C1527 C1526 1.355 1_545 S
C1527 C1529 1.419 . S
C1528 C1526 1.415 1_655 S
C1528 C1533 1.425 1_565 S
C1528 C1535 1.409 . S
C1529 H1521 0.930 . S
C1529 C1527 1.419 . S
C1529 C1530 1.362 . S
C1530 H1522 0.930 . S
C1530 C1529 1.362 . S
C1530 C1533 1.409 1_455 S
C1531 H1523 0.930 . S
C1531 C1532 1.355 . S
C1531 C1533 1.415 . S
C1532 C1531 1.355 . S
C1532 C1534 1.419 1_545 S
C1533 C1528 1.425 1_545 S
C1533 C1530 1.409 1_655 S
C1533 C1531 1.415 . S
C1534 H1524 0.930 . S
C1534 C1532 1.419 1_565 S
C1534 C1535 1.362 . S
C1535 H1525 0.930 . S
C1535 C1528 1.409 . S
C1535 C1534 1.362 . S
H1536 C1542 0.930 . S
H1537 C1545 0.930 . S
H1538 C1546 0.930 . S
H1539 C1547 0.930 . S
H1540 C1550 0.930 . S
H1541 C1551 0.930 . S
C1542 H1536 0.930 . S
C1542 C1543 1.355 . S
C1542 C1544 1.415 . S
C1543 C1542 1.355 . S
C1543 C1545 1.419 . S
C1544 C1542 1.415 . S
C1544 C1549 1.425 . S
C1544 C1551 1.409 . S
C1545 H1537 0.930 . S
C1545 C1543 1.419 . S
C1545 C1546 1.362 . S
C1546 H1538 0.930 . S
C1546 C1545 1.362 . S
C1546 C1549 1.409 . S
C1547 H1539 0.930 . S
C1547 C1548 1.355 . S
C1547 C1549 1.415 . S
C1548 C1547 1.355 . S
C1548 C1550 1.419 . S
C1549 C1544 1.425 . S
C1549 C1546 1.409 . S
C1549 C1547 1.415 . S
C1550 H1540 0.930 . S
C1550 C1548 1.419 . S
C1550 C1551 1.362 . S
C1551 H1541 0.930 . S
C1551 C1544 1.409 . S
C1551 C1550 1.362 . S
H1552 C1558 0.930 . S
H1553 C1561 0.930 . S
H1554 C1562 0.930 . S
H1555 C1563 0.930 . S
H1556 C1566 0.930 . S
H1557 C1567 0.930 . S
C1558 H1552 0.930 . S
C1558 C1559 1.355 . S
C1558 C1560 1.415 . S
C1559 C1558 1.355 . S
C1559 C1561 1.419 1_565 S
C1560 C1558 1.415 . S
C1560 C1565 1.431 . S
C1560 C1567 1.409 1_655 S
C1561 H1553 0.930 . S
C1561 C1559 1.419 1_545 S
C1561 C1562 1.362 . S
C1562 H1554 0.930 . S
C1562 C1561 1.362 . S
C1562 C1565 1.406 1_545 S
C1563 H1555 0.930 . S
C1563 C1564 1.355 1_545 S
C1563 C1565 1.412 1_445 S
C1564 C1563 1.355 1_565 S
C1564 C1566 1.419 . S
C1565 C1560 1.431 . S
C1565 C1562 1.406 1_565 S
C1565 C1563 1.412 1_665 S
C1566 H1556 0.930 . S
C1566 C1564 1.419 . S
C1566 C1567 1.362 . S
C1567 H1557 0.930 . S
C1567 C1560 1.409 1_455 S
C1567 C1566 1.362 . S
H1568 C1574 0.930 . S
H1569 C1577 0.930 . S
H1570 C1578 0.930 . S
H1571 C1579 0.930 . S
H1572 C1582 0.930 . S
H1573 C1583 0.930 . S
C1574 H1568 0.930 . S
C1574 C1575 1.355 . S
C1574 C1576 1.415 . S
C1575 C1574 1.355 . S
C1575 C1577 1.419 . S
C1576 C1574 1.415 . S
C1576 C1581 1.425 . S
C1576 C1583 1.409 . S
C1577 H1569 0.930 . S
C1577 C1575 1.419 . S
C1577 C1578 1.362 . S
C1578 H1570 0.930 . S
C1578 C1577 1.362 . S
C1578 C1581 1.409 . S
C1579 H1571 0.930 . S
C1579 C1580 1.355 . S
C1579 C1581 1.415 . S
C1580 C1579 1.355 . S
C1580 C1582 1.419 . S
C1581 C1576 1.425 . S
C1581 C1578 1.409 . S
C1581 C1579 1.415 . S
C1582 H1572 0.930 . S
C1582 C1580 1.419 . S
C1582 C1583 1.362 . S
C1583 H1573 0.930 . S
C1583 C1576 1.409 . S
C1583 C1582 1.362 . S
H1584 C1590 0.930 . S
H1585 C1593 0.930 . S
H1586 C1594 0.930 . S
H1587 C1595 0.930 . S
H1588 C1598 0.930 . S
H1589 C1599 0.930 . S
C1590 H1584 0.930 . S
C1590 C1591 1.355 1_565 S
C1590 C1592 1.415 1_565 S
C1591 C1590 1.355 1_545 S
C1591 C1593 1.419 . S
C1592 C1590 1.415 1_545 S
C1592 C1597 1.425 . S
C1592 C1599 1.409 1_545 S
C1593 H1585 0.930 . S
C1593 C1591 1.419 . S
C1593 C1594 1.362 . S
C1594 H1586 0.930 . S
C1594 C1593 1.362 . S
C1594 C1597 1.409 . S
C1595 H1587 0.930 . S
C1595 C1596 1.355 . S
C1595 C1597 1.415 . S
C1596 C1595 1.355 . S
C1596 C1598 1.419 . S
C1597 C1592 1.425 . S
C1597 C1594 1.409 . S
C1597 C1595 1.415 . S
C1598 H1588 0.930 . S
C1598 C1596 1.419 . S
C1598 C1599 1.362 1_545 S
C1599 H1589 0.930 . S
C1599 C1592 1.409 1_565 S
C1599 C1598 1.362 1_565 S
H1600 C1606 0.930 . S
H1601 C1609 0.930 . S
H1602 C1610 0.930 . S
H1603 C1611 0.930 . S
H1604 C1614 0.930 . S
H1605 C1615 0.930 . S
C1606 H1600 0.930 . S
C1606 C1607 1.355 . S
C1606 C1608 1.415 . S
C1607 C1606 1.355 . S
C1607 C1609 1.419 . S
C1608 C1606 1.415 . S
C1608 C1613 1.425 . S
C1608 C1615 1.409 . S
C1609 H1601 0.930 . S
C1609 C1607 1.419 . S
C1609 C1610 1.362 . S
C1610 H1602 0.930 . S
C1610 C1609 1.362 . S
C1610 C1613 1.409 . S
C1611 H1603 0.930 . S
C1611 C1612 1.355 . S
C1611 C1613 1.415 . S
C1612 C1611 1.355 . S
C1612 C1614 1.419 . S
C1613 C1608 1.425 . S
C1613 C1610 1.409 . S
C1613 C1611 1.415 . S
C1614 H1604 0.930 . S
C1614 C1612 1.419 . S
C1614 C1615 1.362 . S
C1615 H1605 0.930 . S
C1615 C1608 1.409 . S
C1615 C1614 1.362 . S
H1616 C1622 0.930 . S
H1617 C1625 0.930 . S
H1618 C1626 0.930 . S
H1619 C1627 0.930 . S
H1620 C1630 0.930 . S
H1621 C1631 0.930 . S
C1622 H1616 0.930 . S
C1622 C1623 1.355 . S
C1622 C1624 1.415 1_455 S
C1623 C1622 1.355 . S
C1623 C1625 1.419 . S
C1624 C1622 1.415 1_655 S
C1624 C1629 1.425 . S
C1624 C1631 1.409 . S
C1625 H1617 0.930 . S
C1625 C1623 1.419 . S
C1625 C1626 1.362 . S
C1626 H1618 0.930 . S
C1626 C1625 1.362 . S
C1626 C1629 1.409 1_455 S
C1627 H1619 0.930 . S
C1627 C1628 1.355 . S
C1627 C1629 1.415 . S
C1628 C1627 1.355 . S
C1628 C1630 1.419 . S
C1629 C1624 1.425 . S
C1629 C1626 1.409 1_655 S
C1629 C1627 1.415 . S
C1630 H1620 0.930 . S
C1630 C1628 1.419 . S
C1630 C1631 1.362 . S
C1631 H1621 0.930 . S
C1631 C1624 1.409 . S
C1631 C1630 1.362 . S
H1632 C1638 0.930 . S
H1633 C1641 0.930 . S
H1634 C1642 0.930 . S
H1635 C1643 0.930 . S
H1636 C1646 0.930 . S
H1637 C1647 0.930 . S
C1638 H1632 0.930 . S
C1638 C1639 1.355 . S
C1638 C1640 1.415 . S
C1639 C1638 1.355 . S
C1639 C1641 1.419 . S
C1640 C1638 1.415 . S
C1640 C1645 1.425 . S
C1640 C1647 1.409 . S
C1641 H1633 0.930 . S
C1641 C1639 1.419 . S
C1641 C1642 1.362 . S
C1642 H1634 0.930 . S
C1642 C1641 1.362 . S
C1642 C1645 1.409 . S
C1643 H1635 0.930 . S
C1643 C1644 1.355 . S
C1643 C1645 1.415 . S
C1644 C1643 1.355 . S
C1644 C1646 1.419 . S
C1645 C1640 1.425 . S
C1645 C1642 1.409 . S
C1645 C1643 1.415 . S
C1646 H1636 0.930 . S
C1646 C1644 1.419 . S
C1646 C1647 1.362 . S
C1647 H1637 0.930 . S
C1647 C1640 1.409 . S
C1647 C1646 1.362 . S
H1648 C1654 0.930 . S
H1649 C1657 0.930 . S
H1650 C1658 0.930 . S
H1651 C1659 0.930 . S
H1652 C1662 0.930 . S
H1653 C1663 0.930 . S
C1654 H1648 0.930 . S
C1654 C1655 1.355 . S
C1654 C1656 1.415 . S
C1655 C1654 1.355 . S
C1655 C1657 1.419 . S
C1656 C1654 1.415 . S
C1656 C1661 1.425 . S
C1656 C1663 1.409 . S
C1657 H1649 0.930 . S
C1657 C1655 1.419 . S
C1657 C1658 1.362 . S
C1658 H1650 0.930 . S
C1658 C1657 1.362 . S
C1658 C1661 1.409 . S
C1659 H1651 0.930 . S
C1659 C1660 1.355 . S
C1659 C1661 1.415 . S
C1660 C1659 1.355 . S
C1660 C1662 1.419 . S
C1661 C1656 1.425 . S
C1661 C1658 1.409 . S
C1661 C1659 1.415 . S
C1662 H1652 0.930 . S
C1662 C1660 1.419 . S
C1662 C1663 1.362 . S
C1663 H1653 0.930 . S
C1663 C1656 1.409 . S
C1663 C1662 1.362 . S
H1664 C1670 0.930 . S
H1665 C1673 0.930 . S
H1666 C1674 0.930 . S
H1667 C1675 0.930 . S
H1668 C1678 0.930 . S
H1669 C1679 0.930 . S
C1670 H1664 0.930 . S
C1670 C1671 1.355 . S
C1670 C1672 1.415 . S
C1671 C1670 1.355 . S
C1671 C1673 1.419 . S
C1672 C1670 1.415 . S
C1672 C1677 1.425 . S
C1672 C1679 1.409 . S
C1673 H1665 0.930 . S
C1673 C1671 1.419 . S
C1673 C1674 1.362 . S
C1674 H1666 0.930 . S
C1674 C1673 1.362 . S
C1674 C1677 1.409 . S
C1675 H1667 0.930 . S
C1675 C1676 1.355 . S
C1675 C1677 1.415 . S
C1676 C1675 1.355 . S
C1676 C1678 1.419 . S
C1677 C1672 1.425 . S
C1677 C1674 1.409 . S
C1677 C1675 1.415 . S
C1678 H1668 0.930 . S
C1678 C1676 1.419 . S
C1678 C1679 1.362 . S
C1679 H1669 0.930 . S
C1679 C1672 1.409 . S
C1679 C1678 1.362 . S
H1680 C1686 0.930 . S
H1681 C1689 0.930 . S
H1682 C1690 0.930 . S
H1683 C1691 0.930 . S
H1684 C1694 0.930 . S
H1685 C1695 0.930 . S
C1686 H1680 0.930 . S
C1686 C1687 1.355 . S
C1686 C1688 1.415 . S
C1687 C1686 1.355 . S
C1687 C1689 1.419 . S
C1688 C1686 1.415 . S
C1688 C1693 1.425 . S
C1688 C1695 1.409 . S
C1689 H1681 0.930 . S
C1689 C1687 1.419 . S
C1689 C1690 1.362 . S
C1690 H1682 0.930 . S
C1690 C1689 1.362 . S
C1690 C1693 1.409 . S
C1691 H1683 0.930 . S
C1691 C1692 1.355 . S
C1691 C1693 1.415 . S
C1692 C1691 1.355 . S
C1692 C1694 1.419 . S
C1693 C1688 1.425 . S
C1693 C1690 1.409 . S
C1693 C1691 1.415 . S
C1694 H1684 0.930 . S
C1694 C1692 1.419 . S
C1694 C1695 1.362 . S
C1695 H1685 0.930 . S
C1695 C1688 1.409 . S
C1695 C1694 1.362 . S
H1696 C1702 0.930 . S
H1697 C1705 0.930 . S
H1698 C1706 0.930 . S
H1699 C1707 0.930 . S
H1700 C1710 0.930 . S
H1701 C1711 0.930 . S
C1702 H1696 0.930 . S
C1702 C1703 1.355 . S
C1702 C1704 1.415 . S
C1703 C1702 1.355 . S
C1703 C1705 1.419 . S
C1704 C1702 1.415 . S
C1704 C1709 1.425 . S
C1704 C1711 1.409 . S
C1705 H1697 0.930 . S
C1705 C1703 1.419 . S
C1705 C1706 1.362 . S
C1706 H1698 0.930 . S
C1706 C1705 1.362 . S
C1706 C1709 1.409 . S
C1707 H1699 0.930 . S
C1707 C1708 1.355 . S
C1707 C1709 1.415 . S
C1708 C1707 1.355 . S
C1708 C1710 1.419 . S
C1709 C1704 1.425 . S
C1709 C1706 1.409 . S
C1709 C1707 1.415 . S
C1710 H1700 0.930 . S
C1710 C1708 1.419 . S
C1710 C1711 1.362 . S
C1711 H1701 0.930 . S
C1711 C1704 1.409 . S
C1711 C1710 1.362 . S
H1712 C1718 0.930 . S
H1713 C1721 0.930 . S
H1714 C1722 0.930 . S
H1715 C1723 0.930 . S
H1716 C1726 0.930 . S
H1717 C1727 0.930 . S
C1718 H1712 0.930 . S
C1718 C1719 1.355 . S
C1718 C1720 1.415 . S
C1719 C1718 1.355 . S
C1719 C1721 1.419 . S
C1720 C1718 1.415 . S
C1720 C1725 1.425 . S
C1720 C1727 1.409 1_655 S
C1721 H1713 0.930 . S
C1721 C1719 1.419 . S
C1721 C1722 1.362 . S
C1722 H1714 0.930 . S
C1722 C1721 1.362 . S
C1722 C1725 1.409 . S
C1723 H1715 0.930 . S
C1723 C1724 1.355 . S
C1723 C1725 1.415 1_455 S
C1724 C1723 1.355 . S
C1724 C1726 1.419 . S
C1725 C1720 1.425 . S
C1725 C1722 1.409 . S
C1725 C1723 1.415 1_655 S
C1726 H1716 0.930 . S
C1726 C1724 1.419 . S
C1726 C1727 1.362 . S
C1727 H1717 0.930 . S
C1727 C1720 1.409 1_455 S
C1727 C1726 1.362 . S
H1728 C1734 0.930 . S
H1729 C1737 0.930 . S
H1730 C1738 0.930 . S
H1731 C1739 0.930 . S
H1732 C1742 0.930 . S
H1733 C1743 0.930 . S
C1734 H1728 0.930 . S
C1734 C1735 1.355 . S
C1734 C1736 1.415 . S
C1735 C1734 1.355 . S
C1735 C1737 1.419 . S
C1736 C1734 1.415 . S
C1736 C1741 1.425 . S
C1736 C1743 1.409 . S
C1737 H1729 0.930 . S
C1737 C1735 1.419 . S
C1737 C1738 1.362 . S
C1738 H1730 0.930 . S
C1738 C1737 1.362 . S
C1738 C1741 1.409 . S
C1739 H1731 0.930 . S
C1739 C1740 1.355 . S
C1739 C1741 1.415 . S
C1740 C1739 1.355 . S
C1740 C1742 1.419 . S
C1741 C1736 1.425 . S
C1741 C1738 1.409 . S
C1741 C1739 1.415 . S
C1742 H1732 0.930 . S
C1742 C1740 1.419 . S
C1742 C1743 1.362 . S
C1743 H1733 0.930 . S
C1743 C1736 1.409 . S
C1743 C1742 1.362 . S
H1744 C1750 0.930 . S
H1745 C1753 0.930 . S
H1746 C1754 0.930 . S
H1747 C1755 0.930 . S
H1748 C1758 0.930 . S
H1749 C1759 0.930 . S
C1750 H1744 0.930 . S
C1750 C1751 1.355 . S
C1750 C1752 1.415 1_655 S
C1751 C1750 1.355 . S
C1751 C1753 1.419 . S
C1752 C1750 1.415 1_455 S
C1752 C1757 1.425 . S
C1752 C1759 1.409 . S
C1753 H1745 0.930 . S
C1753 C1751 1.419 . S
C1753 C1754 1.362 1_655 S
C1754 H1746 0.930 . S
C1754 C1753 1.362 1_455 S
C1754 C1757 1.409 . S
C1755 H1747 0.930 . S
C1755 C1756 1.355 . S
C1755 C1757 1.415 . S
C1756 C1755 1.355 . S
C1756 C1758 1.419 . S
C1757 C1752 1.425 . S
C1757 C1754 1.409 . S
C1757 C1755 1.415 . S
C1758 H1748 0.930 . S
C1758 C1756 1.419 . S
C1758 C1759 1.362 . S
C1759 H1749 0.930 . S
C1759 C1752 1.409 . S
C1759 C1758 1.362 . S
H1760 C1766 0.930 . S
H1761 C1769 0.930 . S
H1762 C1770 0.930 . S
H1763 C1771 0.930 . S
H1764 C1774 0.930 . S
H1765 C1775 0.930 . S
C1766 H1760 0.930 . S
C1766 C1767 1.355 . S
C1766 C1768 1.415 . S
C1767 C1766 1.355 . S
C1767 C1769 1.419 . S
C1768 C1766 1.415 . S
C1768 C1773 1.425 . S
C1768 C1775 1.409 . S
C1769 H1761 0.930 . S
C1769 C1767 1.419 . S
C1769 C1770 1.362 . S
C1770 H1762 0.930 . S
C1770 C1769 1.362 . S
C1770 C1773 1.409 . S
C1771 H1763 0.930 . S
C1771 C1772 1.355 . S
C1771 C1773 1.415 . S
C1772 C1771 1.355 . S
C1772 C1774 1.419 . S
C1773 C1768 1.425 . S
C1773 C1770 1.409 . S
C1773 C1771 1.415 . S
C1774 H1764 0.930 . S
C1774 C1772 1.419 . S
C1774 C1775 1.362 . S
C1775 H1765 0.930 . S
C1775 C1768 1.409 . S
C1775 C1774 1.362 . S
H1776 C1782 0.930 . S
H1777 C1785 0.930 . S
H1778 C1786 0.930 . S
H1779 C1787 0.930 . S
H1780 C1790 0.930 . S
H1781 C1791 0.930 . S
C1782 H1776 0.930 . S
C1782 C1783 1.355 . S
C1782 C1784 1.415 . S
C1783 C1782 1.355 . S
C1783 C1785 1.419 . S
C1784 C1782 1.415 . S
C1784 C1789 1.425 . S
C1784 C1791 1.409 . S
C1785 H1777 0.930 . S
C1785 C1783 1.419 . S
C1785 C1786 1.362 . S
C1786 H1778 0.930 . S
C1786 C1785 1.362 . S
C1786 C1789 1.409 . S
C1787 H1779 0.930 . S
C1787 C1788 1.355 . S
C1787 C1789 1.415 . S
C1788 C1787 1.355 . S
C1788 C1790 1.419 . S
C1789 C1784 1.425 . S
C1789 C1786 1.409 . S
C1789 C1787 1.415 . S
C1790 H1780 0.930 . S
C1790 C1788 1.419 . S
C1790 C1791 1.362 . S
C1791 H1781 0.930 . S
C1791 C1784 1.409 . S
C1791 C1790 1.362 . S
H1792 C1798 0.930 . S
H1793 C1801 0.930 . S
H1794 C1802 0.930 . S
H1795 C1803 0.930 . S
H1796 C1806 0.930 . S
H1797 C1807 0.930 . S
C1798 H1792 0.930 . S
C1798 C1799 1.355 . S
C1798 C1800 1.415 . S
C1799 C1798 1.355 . S
C1799 C1801 1.419 . S
C1800 C1798 1.415 . S
C1800 C1805 1.425 . S
C1800 C1807 1.409 . S
C1801 H1793 0.930 . S
C1801 C1799 1.419 . S
C1801 C1802 1.362 . S
C1802 H1794 0.930 . S
C1802 C1801 1.362 . S
C1802 C1805 1.409 . S
C1803 H1795 0.930 . S
C1803 C1804 1.355 . S
C1803 C1805 1.415 . S
C1804 C1803 1.355 . S
C1804 C1806 1.419 . S
C1805 C1800 1.425 . S
C1805 C1802 1.409 . S
C1805 C1803 1.415 . S
C1806 H1796 0.930 . S
C1806 C1804 1.419 . S
C1806 C1807 1.362 . S
C1807 H1797 0.930 . S
C1807 C1800 1.409 . S
C1807 C1806 1.362 . S
H1808 C1814 0.930 . S
H1809 C1817 0.930 . S
H1810 C1818 0.930 . S
H1811 C1819 0.930 . S
H1812 C1822 0.930 . S
H1813 C1823 0.930 . S
C1814 H1808 0.930 . S
C1814 C1815 1.355 . S
C1814 C1816 1.415 . S
C1815 C1814 1.355 . S
C1815 C1817 1.419 . S
C1816 C1814 1.415 . S
C1816 C1821 1.425 . S
C1816 C1823 1.409 . S
C1817 H1809 0.930 . S
C1817 C1815 1.419 . S
C1817 C1818 1.362 . S
C1818 H1810 0.930 . S
C1818 C1817 1.362 . S
C1818 C1821 1.409 . S
C1819 H1811 0.930 . S
C1819 C1820 1.355 . S
C1819 C1821 1.415 . S
C1820 C1819 1.355 . S
C1820 C1822 1.419 . S
C1821 C1816 1.425 . S
C1821 C1818 1.409 . S
C1821 C1819 1.415 . S
C1822 H1812 0.930 . S
C1822 C1820 1.419 . S
C1822 C1823 1.362 . S
C1823 H1813 0.930 . S
C1823 C1816 1.409 . S
C1823 C1822 1.362 . S
H1824 C1830 0.930 . S
H1825 C1833 0.930 . S
H1826 C1834 0.930 . S
H1827 C1835 0.930 . S
H1828 C1838 0.930 . S
H1829 C1839 0.930 . S
C1830 H1824 0.930 . S
C1830 C1831 1.355 . S
C1830 C1832 1.415 . S
C1831 C1830 1.355 . S
C1831 C1833 1.419 . S
C1832 C1830 1.415 . S
C1832 C1837 1.425 . S
C1832 C1839 1.409 . S
C1833 H1825 0.930 . S
C1833 C1831 1.419 . S
C1833 C1834 1.362 . S
C1834 H1826 0.930 . S
C1834 C1833 1.362 . S
C1834 C1837 1.409 . S
C1835 H1827 0.930 . S
C1835 C1836 1.355 . S
C1835 C1837 1.415 . S
C1836 C1835 1.355 . S
C1836 C1838 1.419 . S
C1837 C1832 1.425 . S
C1837 C1834 1.409 . S
C1837 C1835 1.415 . S
C1838 H1828 0.930 . S
C1838 C1836 1.419 . S
C1838 C1839 1.362 . S
C1839 H1829 0.930 . S
C1839 C1832 1.409 . S
C1839 C1838 1.362 . S
H1840 C1846 0.930 . S
H1841 C1849 0.930 . S
H1842 C1850 0.930 . S
H1843 C1851 0.930 . S
H1844 C1854 0.930 . S
H1845 C1855 0.930 . S
C1846 H1840 0.930 . S
C1846 C1847 1.355 . S
C1846 C1848 1.415 1_655 S
C1847 C1846 1.355 . S
C1847 C1849 1.419 . S
C1848 C1846 1.415 1_455 S
C1848 C1853 1.425 . S
C1848 C1855 1.409 . S
C1849 H1841 0.930 . S
C1849 C1847 1.419 . S
C1849 C1850 1.362 1_655 S
C1850 H1842 0.930 . S
C1850 C1849 1.362 1_455 S
C1850 C1853 1.409 . S
C1851 H1843 0.930 . S
C1851 C1852 1.355 . S
C1851 C1853 1.415 . S
C1852 C1851 1.355 . S
C1852 C1854 1.419 . S
C1853 C1848 1.425 . S
C1853 C1850 1.409 . S
C1853 C1851 1.415 . S
C1854 H1844 0.930 . S
C1854 C1852 1.419 . S
C1854 C1855 1.362 . S
C1855 H1845 0.930 . S
C1855 C1848 1.409 . S
C1855 C1854 1.362 . S
H1856 C1862 0.923 1_545 S
H1857 C1865 0.930 . S
H1858 C1866 0.930 . S
H1859 C1867 0.923 1_565 S
H1860 C1870 0.930 . S
H1861 C1871 0.930 . S
C1862 H1856 0.923 1_565 S
C1862 C1863 1.364 . S
C1862 C1864 1.411 1_565 S
C1863 C1862 1.364 . S
C1863 C1865 1.419 . S
C1864 C1862 1.411 1_545 S
C1864 C1869 1.425 1_545 S
C1864 C1871 1.409 . S
C1865 H1857 0.930 . S
C1865 C1863 1.419 . S
C1865 C1866 1.362 . S
C1866 H1858 0.930 . S
C1866 C1865 1.362 . S
C1866 C1869 1.409 . S
C1867 H1859 0.923 1_545 S
C1867 C1868 1.365 . S
C1867 C1869 1.411 1_545 S
C1868 C1867 1.365 . S
C1868 C1870 1.419 . S
C1869 C1864 1.425 1_565 S
C1869 C1866 1.409 . S
C1869 C1867 1.411 1_565 S
C1870 H1860 0.930 . S
C1870 C1868 1.419 . S
C1870 C1871 1.362 . S
C1871 H1861 0.930 . S
C1871 C1864 1.409 . S
C1871 C1870 1.362 . S
H1872 C1878 0.930 . S
H1873 C1881 0.930 . S
H1874 C1882 0.930 . S
H1875 C1883 0.930 . S
H1876 C1886 0.930 . S
H1877 C1887 0.930 . S
C1878 H1872 0.930 . S
C1878 C1879 1.355 . S
C1878 C1880 1.415 . S
C1879 C1878 1.355 . S
C1879 C1881 1.419 . S
C1880 C1878 1.415 . S
C1880 C1885 1.425 . S
C1880 C1887 1.409 . S
C1881 H1873 0.930 . S
C1881 C1879 1.419 . S
C1881 C1882 1.362 . S
C1882 H1874 0.930 . S
C1882 C1881 1.362 . S
C1882 C1885 1.409 . S
C1883 H1875 0.930 . S
C1883 C1884 1.355 . S
C1883 C1885 1.415 . S
C1884 C1883 1.355 . S
C1884 C1886 1.419 . S
C1885 C1880 1.425 . S
C1885 C1882 1.409 . S
C1885 C1883 1.415 . S
C1886 H1876 0.930 . S
C1886 C1884 1.419 . S
C1886 C1887 1.362 . S
C1887 H1877 0.930 . S
C1887 C1880 1.409 . S
C1887 C1886 1.362 . S
H1888 C1894 0.930 . S
H1889 C1897 0.930 . S
H1890 C1898 0.930 . S
H1891 C1899 0.930 . S
H1892 C1902 0.930 . S
H1893 C1903 0.930 . S
C1894 H1888 0.930 . S
C1894 C1895 1.355 . S
C1894 C1896 1.415 . S
C1895 C1894 1.355 . S
C1895 C1897 1.419 . S
C1896 C1894 1.415 . S
C1896 C1901 1.425 1_565 S
C1896 C1903 1.409 . S
C1897 H1889 0.930 . S
C1897 C1895 1.419 . S
C1897 C1898 1.362 1_565 S
C1898 H1890 0.930 . S
C1898 C1897 1.362 1_545 S
C1898 C1901 1.409 . S
C1899 H1891 0.930 . S
C1899 C1900 1.355 . S
C1899 C1901 1.415 . S
C1900 C1899 1.355 . S
C1900 C1902 1.419 . S
C1901 C1896 1.425 1_545 S
C1901 C1898 1.409 . S
C1901 C1899 1.415 . S
C1902 H1892 0.930 . S
C1902 C1900 1.419 . S
C1902 C1903 1.362 1_545 S
C1903 H1893 0.930 . S
C1903 C1896 1.409 . S
C1903 C1902 1.362 1_565 S
H1904 C1910 0.930 . S
H1905 C1913 0.930 . S
H1906 C1914 0.930 . S
H1907 C1915 0.930 . S
H1908 C1918 0.930 . S
H1909 C1919 0.930 . S
C1910 H1904 0.930 . S
C1910 C1911 1.355 . S
C1910 C1912 1.406 1_554 S
C1911 C1910 1.355 . S
C1911 C1913 1.419 . S
C1912 C1910 1.406 1_556 S
C1912 C1917 1.425 1_556 S
C1912 C1919 1.418 . S
C1913 H1905 0.930 . S
C1913 C1911 1.419 . S
C1913 C1914 1.362 . S
C1914 H1906 0.930 . S
C1914 C1913 1.362 . S
C1914 C1917 1.418 . S
C1915 H1907 0.930 . S
C1915 C1916 1.355 . S
C1915 C1917 1.406 1_556 S
C1916 C1915 1.355 . S
C1916 C1918 1.419 . S
C1917 C1912 1.425 1_554 S
C1917 C1914 1.418 . S
C1917 C1915 1.406 1_554 S
C1918 H1908 0.930 . S
C1918 C1916 1.419 . S
C1918 C1919 1.362 . S
C1919 H1909 0.930 . S
C1919 C1912 1.418 . S
C1919 C1918 1.362 . S
H1920 C1926 0.930 . S
H1921 C1929 0.930 . S
H1922 C1930 0.930 . S
H1923 C1931 0.930 . S
H1924 C1934 0.930 . S
H1925 C1935 0.930 . S
C1926 H1920 0.930 . S
C1926 C1927 1.355 . S
C1926 C1928 1.415 . S
C1927 C1926 1.355 . S
C1927 C1929 1.419 1_545 S
C1928 C1926 1.415 . S
C1928 C1933 1.425 1_545 S
C1928 C1935 1.409 . S
C1929 H1921 0.930 . S
C1929 C1927 1.419 1_565 S
C1929 C1930 1.362 . S
C1930 H1922 0.930 . S
C1930 C1929 1.362 . S
C1930 C1933 1.409 . S
C1931 H1923 0.930 . S
C1931 C1932 1.355 . S
C1931 C1933 1.415 . S
C1932 C1931 1.355 . S
C1932 C1934 1.419 1_565 S
C1933 C1928 1.425 1_565 S
C1933 C1930 1.409 . S
C1933 C1931 1.415 . S
C1934 H1924 0.930 . S
C1934 C1932 1.419 1_545 S
C1934 C1935 1.362 . S
C1935 H1925 0.930 . S
C1935 C1928 1.409 . S
C1935 C1934 1.362 . S
H1936 C1942 0.930 . S
H1937 C1945 0.930 . S
H1938 C1946 0.930 . S
H1939 C1947 0.930 . S
H1940 C1950 0.930 . S
H1941 C1951 0.930 . S
C1942 H1936 0.930 . S
C1942 C1943 1.355 . S
C1942 C1944 1.415 . S
C1943 C1942 1.355 . S
C1943 C1945 1.419 . S
C1944 C1942 1.415 . S
C1944 C1949 1.425 . S
C1944 C1951 1.409 . S
C1945 H1937 0.930 . S
C1945 C1943 1.419 . S
C1945 C1946 1.362 . S
C1946 H1938 0.930 . S
C1946 C1945 1.362 . S
C1946 C1949 1.409 . S
C1947 H1939 0.930 . S
C1947 C1948 1.355 . S
C1947 C1949 1.415 . S
C1948 C1947 1.355 . S
C1948 C1950 1.419 . S
C1949 C1944 1.425 . S
C1949 C1946 1.409 . S
C1949 C1947 1.415 . S
C1950 H1940 0.930 . S
C1950 C1948 1.419 . S
C1950 C1951 1.362 . S
C1951 H1941 0.930 . S
C1951 C1944 1.409 . S
C1951 C1950 1.362 . S
H1952 C1958 0.930 . S
H1953 C1961 0.930 . S
H1954 C1962 0.930 . S
H1955 C1963 0.930 . S
H1956 C1966 0.930 . S
H1957 C1967 0.930 . S
C1958 H1952 0.930 . S
C1958 C1959 1.355 . S
C1958 C1960 1.415 . S
C1959 C1958 1.355 . S
C1959 C1961 1.419 . S
C1960 C1958 1.415 . S
C1960 C1965 1.425 1_545 S
C1960 C1967 1.409 . S
C1961 H1953 0.930 . S
C1961 C1959 1.419 . S
C1961 C1962 1.362 1_545 S
C1962 H1954 0.930 . S
C1962 C1961 1.362 1_565 S
C1962 C1965 1.409 . S
C1963 H1955 0.930 . S
C1963 C1964 1.355 . S
C1963 C1965 1.415 . S
C1964 C1963 1.355 . S
C1964 C1966 1.419 . S
C1965 C1960 1.425 1_565 S
C1965 C1962 1.409 . S
C1965 C1963 1.415 . S
C1966 H1956 0.930 . S
C1966 C1964 1.419 . S
C1966 C1967 1.362 1_565 S
C1967 H1957 0.930 . S
C1967 C1960 1.409 . S
C1967 C1966 1.362 1_545 S
H1968 C1974 0.930 . S
H1969 C1977 0.930 . S
H1970 C1978 0.930 . S
H1971 C1979 0.930 1_565 S
H1972 C1982 0.930 . S
H1973 C1983 0.930 . S
C1974 H1968 0.930 . S
C1974 C1975 1.355 . S
C1974 C1976 1.415 . S
C1975 C1974 1.355 . S
C1975 C1977 1.419 1_545 S
C1976 C1974 1.415 . S
C1976 C1981 1.425 1_554 S
C1976 C1983 1.409 1_554 S
C1977 H1969 0.930 . S
C1977 C1975 1.419 1_565 S
C1977 C1978 1.362 . S
C1978 H1970 0.930 . S
C1978 C1977 1.362 . S
C1978 C1981 1.409 1_564 S
C1979 H1971 0.930 1_545 S
C1979 C1980 1.355 . S
C1979 C1981 1.415 . S
C1980 C1979 1.355 . S
C1980 C1982 1.419 . S
C1981 C1976 1.425 1_556 S
C1981 C1978 1.409 1_546 S
C1981 C1979 1.415 . S
C1982 H1972 0.930 . S
C1982 C1980 1.419 . S
C1982 C1983 1.362 . S
C1983 H1973 0.930 . S
C1983 C1976 1.409 1_556 S
C1983 C1982 1.362 . S
H1984 C1990 0.930 . S
H1985 C1993 0.930 . S
H1986 C1994 0.930 . S
H1987 C1995 0.930 . S
H1988 C1998 0.930 . S
H1989 C1999 0.930 . S
C1990 H1984 0.930 . S
C1990 C1991 1.355 . S
C1990 C1992 1.415 . S
C1991 C1990 1.355 . S
C1991 C1993 1.419 . S
C1992 C1990 1.415 . S
C1992 C1997 1.425 . S
C1992 C1999 1.409 . S
C1993 H1985 0.930 . S
C1993 C1991 1.419 . S
C1993 C1994 1.362 . S
C1994 H1986 0.930 . S
C1994 C1993 1.362 . S
C1994 C1997 1.409 . S
C1995 H1987 0.930 . S
C1995 C1996 1.355 . S
C1995 C1997 1.415 . S
C1996 C1995 1.355 . S
C1996 C1998 1.419 . S
C1997 C1992 1.425 . S
C1997 C1994 1.409 . S
C1997 C1995 1.415 . S
C1998 H1988 0.930 . S
C1998 C1996 1.419 . S
C1998 C1999 1.362 . S
C1999 H1989 0.930 . S
C1999 C1992 1.409 . S
C1999 C1998 1.362 . S
H2000 C2006 0.930 . S
H2001 C2009 0.930 . S
H2002 C2010 0.930 1_556 S
H2003 C2011 0.930 . S
H2004 C2014 0.930 . S
H2005 C2015 0.930 1_554 S
C2006 H2000 0.930 . S
C2006 C2007 1.355 . S
C2006 C2008 1.415 . S
C2007 C2006 1.355 . S
C2007 C2009 1.419 . S
C2008 C2006 1.415 . S
C2008 C2013 1.425 1_554 S
C2008 C2015 1.409 1_554 S
C2009 H2001 0.930 . S
C2009 C2007 1.419 . S
C2009 C2010 1.363 . S
C2010 H2002 0.930 1_554 S
C2010 C2009 1.363 . S
C2010 C2013 1.409 1_554 S
C2011 H2003 0.930 . S
C2011 C2012 1.355 . S
C2011 C2013 1.415 . S
C2012 C2011 1.355 . S
C2012 C2014 1.419 . S
C2013 C2008 1.425 1_556 S
C2013 C2010 1.409 1_556 S
C2013 C2011 1.415 . S
C2014 H2004 0.930 . S
C2014 C2012 1.419 . S
C2014 C2015 1.363 . S
C2015 H2005 0.930 1_556 S
C2015 C2008 1.409 1_556 S
C2015 C2014 1.363 . S
H2016 C2022 0.930 . S
H2017 C2025 0.930 . S
H2018 C2026 0.930 . S
H2019 C2027 0.930 . S
H2020 C2030 0.930 . S
H2021 C2031 0.930 . S
C2022 H2016 0.930 . S
C2022 C2023 1.355 . S
C2022 C2024 1.415 . S
C2023 C2022 1.355 . S
C2023 C2025 1.419 . S
C2024 C2022 1.415 . S
C2024 C2029 1.425 . S
C2024 C2031 1.409 . S
C2025 H2017 0.930 . S
C2025 C2023 1.419 . S
C2025 C2026 1.362 . S
C2026 H2018 0.930 . S
C2026 C2025 1.362 . S
C2026 C2029 1.409 . S
C2027 H2019 0.930 . S
C2027 C2028 1.355 . S
C2027 C2029 1.415 . S
C2028 C2027 1.355 . S
C2028 C2030 1.419 . S
C2029 C2024 1.425 . S
C2029 C2026 1.409 . S
C2029 C2027 1.415 . S
C2030 H2020 0.930 . S
C2030 C2028 1.419 . S
C2030 C2031 1.362 . S
C2031 H2021 0.930 . S
C2031 C2024 1.409 . S
C2031 C2030 1.362 . S
H2032 C2038 0.930 . S
H2033 C2041 0.930 . S
H2034 C2042 0.930 . S
H2035 C2043 0.930 . S
H2036 C2046 0.930 . S
H2037 C2047 0.930 . S
C2038 H2032 0.930 . S
C2038 C2039 1.355 . S
C2038 C2040 1.415 . S
C2039 C2038 1.355 . S
C2039 C2041 1.419 . S
C2040 C2038 1.415 . S
C2040 C2045 1.425 . S
C2040 C2047 1.409 . S
C2041 H2033 0.930 . S
C2041 C2039 1.419 . S
C2041 C2042 1.362 . S
C2042 H2034 0.930 . S
C2042 C2041 1.362 . S
C2042 C2045 1.409 . S
C2043 H2035 0.930 . S
C2043 C2044 1.355 . S
C2043 C2045 1.415 . S
C2044 C2043 1.355 . S
C2044 C2046 1.419 . S
C2045 C2040 1.425 . S
C2045 C2042 1.409 . S
C2045 C2043 1.415 . S
C2046 H2036 0.930 . S
C2046 C2044 1.419 . S
C2046 C2047 1.362 . S
C2047 H2037 0.930 . S
C2047 C2040 1.409 . S
C2047 C2046 1.362 . S
H2048 C2054 0.930 . S
H2049 C2057 0.930 . S
H2050 C2058 0.930 . S
H2051 C2059 0.930 . S
H2052 C2062 0.930 . S
H2053 C2063 0.930 . S
C2054 H2048 0.930 . S
C2054 C2055 1.355 . S
C2054 C2056 1.415 . S
C2055 C2054 1.355 . S
C2055 C2057 1.419 . S
C2056 C2054 1.415 . S
C2056 C2061 1.425 . S
C2056 C2063 1.409 . S
C2057 H2049 0.930 . S
C2057 C2055 1.419 . S
C2057 C2058 1.362 . S
C2058 H2050 0.930 . S
C2058 C2057 1.362 . S
C2058 C2061 1.409 . S
C2059 H2051 0.930 . S
C2059 C2060 1.355 . S
C2059 C2061 1.415 . S
C2060 C2059 1.355 . S
C2060 C2062 1.419 . S
C2061 C2056 1.425 . S
C2061 C2058 1.409 . S
C2061 C2059 1.415 . S
C2062 H2052 0.930 . S
C2062 C2060 1.419 . S
C2062 C2063 1.362 . S
C2063 H2053 0.930 . S
C2063 C2056 1.409 . S
C2063 C2062 1.362 . S
H2064 C2070 0.930 . S
H2065 C2073 0.930 . S
H2066 C2074 0.930 . S
H2067 C2075 0.930 . S
H2068 C2078 0.930 . S
H2069 C2079 0.930 . S
C2070 H2064 0.930 . S
C2070 C2071 1.355 . S
C2070 C2072 1.465 . S
C2071 C2070 1.355 . S
C2071 C2073 1.419 . S
C2072 C2070 1.465 . S
C2072 C2077 1.418 1_556 S
C2072 C2079 1.365 1_556 S
C2073 H2065 0.930 . S
C2073 C2071 1.419 . S
C2073 C2074 1.362 . S
C2074 H2066 0.930 . S
C2074 C2073 1.362 . S
C2074 C2077 1.365 1_556 S
C2075 H2067 0.930 . S
C2075 C2076 1.355 . S
C2075 C2077 1.465 . S
C2076 C2075 1.355 . S
C2076 C2078 1.419 . S
C2077 C2072 1.418 1_554 S
C2077 C2074 1.365 1_554 S
C2077 C2075 1.465 . S
C2078 H2068 0.930 . S
C2078 C2076 1.419 . S
C2078 C2079 1.362 . S
C2079 H2069 0.930 . S
C2079 C2072 1.365 1_554 S
C2079 C2078 1.362 . S
H2080 C2086 0.930 . S
H2081 C2089 0.930 . S
H2082 C2090 0.930 . S
H2083 C2091 0.930 . S
H2084 C2094 0.930 . S
H2085 C2095 0.930 . S
C2086 H2080 0.930 . S
C2086 C2087 1.355 . S
C2086 C2088 1.415 . S
C2087 C2086 1.355 . S
C2087 C2089 1.419 . S
C2088 C2086 1.415 . S
C2088 C2093 1.425 . S
C2088 C2095 1.409 . S
C2089 H2081 0.930 . S
C2089 C2087 1.419 . S
C2089 C2090 1.362 . S
C2090 H2082 0.930 . S
C2090 C2089 1.362 . S
C2090 C2093 1.409 . S
C2091 H2083 0.930 . S
C2091 C2092 1.355 . S
C2091 C2093 1.415 . S
C2092 C2091 1.355 . S
C2092 C2094 1.419 . S
C2093 C2088 1.425 . S
C2093 C2090 1.409 . S
C2093 C2091 1.415 . S
C2094 H2084 0.930 . S
C2094 C2092 1.419 . S
C2094 C2095 1.362 . S
C2095 H2085 0.930 . S
C2095 C2088 1.409 . S
C2095 C2094 1.362 . S
H2096 C2102 0.930 . S
H2097 C2105 0.930 . S
H2098 C2106 0.930 . S
H2099 C2107 0.930 . S
H2100 C2110 0.930 . S
H2101 C2111 0.930 . S
C2102 H2096 0.930 . S
C2102 C2103 1.355 . S
C2102 C2104 1.415 . S
C2103 C2102 1.355 . S
C2103 C2105 1.419 . S
C2104 C2102 1.415 . S
C2104 C2109 1.425 . S
C2104 C2111 1.409 . S
C2105 H2097 0.930 . S
C2105 C2103 1.419 . S
C2105 C2106 1.362 . S
C2106 H2098 0.930 . S
C2106 C2105 1.362 . S
C2106 C2109 1.409 . S
C2107 H2099 0.930 . S
C2107 C2108 1.355 . S
C2107 C2109 1.415 . S
C2108 C2107 1.355 . S
C2108 C2110 1.419 . S
C2109 C2104 1.425 . S
C2109 C2106 1.409 . S
C2109 C2107 1.415 . S
C2110 H2100 0.930 . S
C2110 C2108 1.419 . S
C2110 C2111 1.362 . S
C2111 H2101 0.930 . S
C2111 C2104 1.409 . S
C2111 C2110 1.362 . S
H2112 C2118 0.930 . S
H2113 C2121 0.930 . S
H2114 C2122 0.930 . S
H2115 C2123 0.930 . S
H2116 C2126 0.930 . S
H2117 C2127 0.930 . S
C2118 H2112 0.930 . S
C2118 C2119 1.355 . S
C2118 C2120 1.415 . S
C2119 C2118 1.355 . S
C2119 C2121 1.419 . S
C2120 C2118 1.415 . S
C2120 C2125 1.425 . S
C2120 C2127 1.409 . S
C2121 H2113 0.930 . S
C2121 C2119 1.419 . S
C2121 C2122 1.362 . S
C2122 H2114 0.930 . S
C2122 C2121 1.362 . S
C2122 C2125 1.409 . S
C2123 H2115 0.930 . S
C2123 C2124 1.355 . S
C2123 C2125 1.415 . S
C2124 C2123 1.355 . S
C2124 C2126 1.419 . S
C2125 C2120 1.425 . S
C2125 C2122 1.409 . S
C2125 C2123 1.415 . S
C2126 H2116 0.930 . S
C2126 C2124 1.419 . S
C2126 C2127 1.362 . S
C2127 H2117 0.930 . S
C2127 C2120 1.409 . S
C2127 C2126 1.362 . S
H2128 C2134 0.930 . S
H2129 C2137 0.930 . S
H2130 C2138 0.930 1_655 S
H2131 C2139 0.930 . S
H2132 C2142 0.930 . S
H2133 C2143 0.930 1_455 S
C2134 H2128 0.930 . S
C2134 C2135 1.355 . S
C2134 C2136 1.415 . S
C2135 C2134 1.355 . S
C2135 C2137 1.419 . S
C2136 C2134 1.415 . S
C2136 C2141 1.425 1_455 S
C2136 C2143 1.409 1_455 S
C2137 H2129 0.930 . S
C2137 C2135 1.419 . S
C2137 C2138 1.362 . S
C2138 H2130 0.930 1_455 S
C2138 C2137 1.362 . S
C2138 C2141 1.409 1_455 S
C2139 H2131 0.930 . S
C2139 C2140 1.355 . S
C2139 C2141 1.415 . S
C2140 C2139 1.355 . S
C2140 C2142 1.419 . S
C2141 C2136 1.425 1_655 S
C2141 C2138 1.409 1_655 S
C2141 C2139 1.415 . S
C2142 H2132 0.930 . S
C2142 C2140 1.419 . S
C2142 C2143 1.362 . S
C2143 H2133 0.930 1_655 S
C2143 C2136 1.409 1_655 S
C2143 C2142 1.362 . S
H2144 C2150 0.930 1_455 S
H2145 C2153 0.930 . S
H2146 C2154 0.930 . S
H2147 C2155 0.929 1_655 S
H2148 C2158 0.930 . S
H2149 C2159 0.930 . S
C2150 H2144 0.930 1_655 S
C2150 C2151 1.355 . S
C2150 C2152 1.415 1_655 S
C2151 C2150 1.355 . S
C2151 C2153 1.419 . S
C2152 C2150 1.415 1_455 S
C2152 C2157 1.425 1_455 S
C2152 C2159 1.409 . S
C2153 H2145 0.930 . S
C2153 C2151 1.419 . S
C2153 C2154 1.362 . S
C2154 H2146 0.930 . S
C2154 C2153 1.362 . S
C2154 C2157 1.409 . S
C2155 H2147 0.929 1_455 S
C2155 C2156 1.355 . S
C2155 C2157 1.415 1_455 S
C2156 C2155 1.355 . S
C2156 C2158 1.419 . S
C2157 C2152 1.425 1_655 S
C2157 C2154 1.409 . S
C2157 C2155 1.415 1_655 S
C2158 H2148 0.930 . S
C2158 C2156 1.419 . S
C2158 C2159 1.362 . S
C2159 H2149 0.930 . S
C2159 C2152 1.409 . S
C2159 C2158 1.362 . S
H2160 C2166 0.930 . S
H2161 C2169 0.930 . S
H2162 C2170 0.930 . S
H2163 C2171 0.930 . S
H2164 C2174 0.930 . S
H2165 C2175 0.930 . S
C2166 H2160 0.930 . S
C2166 C2167 1.355 . S
C2166 C2168 1.415 . S
C2167 C2166 1.355 . S
C2167 C2169 1.419 . S
C2168 C2166 1.415 . S
C2168 C2173 1.425 . S
C2168 C2175 1.409 . S
C2169 H2161 0.930 . S
C2169 C2167 1.419 . S
C2169 C2170 1.362 . S
C2170 H2162 0.930 . S
C2170 C2169 1.362 . S
C2170 C2173 1.409 . S
C2171 H2163 0.930 . S
C2171 C2172 1.355 . S
C2171 C2173 1.415 . S
C2172 C2171 1.355 . S
C2172 C2174 1.419 . S
C2173 C2168 1.425 . S
C2173 C2170 1.409 . S
C2173 C2171 1.415 . S
C2174 H2164 0.930 . S
C2174 C2172 1.419 . S
C2174 C2175 1.362 . S
C2175 H2165 0.930 . S
C2175 C2168 1.409 . S
C2175 C2174 1.362 . S
H2176 C2182 0.930 . S
H2177 C2185 0.930 . S
H2178 C2186 0.930 . S
H2179 C2187 0.930 . S
H2180 C2190 0.930 . S
H2181 C2191 0.930 . S
C2182 H2176 0.930 . S
C2182 C2183 1.355 . S
C2182 C2184 1.415 . S
C2183 C2182 1.355 . S
C2183 C2185 1.419 . S
C2184 C2182 1.415 . S
C2184 C2189 1.425 . S
C2184 C2191 1.409 . S
C2185 H2177 0.930 . S
C2185 C2183 1.419 . S
C2185 C2186 1.362 . S
C2186 H2178 0.930 . S
C2186 C2185 1.362 . S
C2186 C2189 1.409 . S
C2187 H2179 0.930 . S
C2187 C2188 1.355 . S
C2187 C2189 1.415 . S
C2188 C2187 1.355 . S
C2188 C2190 1.419 . S
C2189 C2184 1.425 . S
C2189 C2186 1.409 . S
C2189 C2187 1.415 . S
C2190 H2180 0.930 . S
C2190 C2188 1.419 . S
C2190 C2191 1.362 . S
C2191 H2181 0.930 . S
C2191 C2184 1.409 . S
C2191 C2190 1.362 . S
H2192 C2198 0.930 . S
H2193 C2201 0.930 . S
H2194 C2202 0.930 . S
H2195 C2203 0.930 . S
H2196 C2206 0.930 . S
H2197 C2207 0.930 . S
C2198 H2192 0.930 . S
C2198 C2199 1.355 . S
C2198 C2200 1.415 . S
C2199 C2198 1.355 . S
C2199 C2201 1.419 . S
C2200 C2198 1.415 . S
C2200 C2205 1.425 . S
C2200 C2207 1.409 . S
C2201 H2193 0.930 . S
C2201 C2199 1.419 . S
C2201 C2202 1.362 . S
C2202 H2194 0.930 . S
C2202 C2201 1.362 . S
C2202 C2205 1.409 . S
C2203 H2195 0.930 . S
C2203 C2204 1.355 . S
C2203 C2205 1.415 . S
C2204 C2203 1.355 . S
C2204 C2206 1.419 . S
C2205 C2200 1.425 . S
C2205 C2202 1.409 . S
C2205 C2203 1.415 . S
C2206 H2196 0.930 . S
C2206 C2204 1.419 . S
C2206 C2207 1.362 . S
C2207 H2197 0.930 . S
C2207 C2200 1.409 . S
C2207 C2206 1.362 . S
H2208 C2214 0.930 . S
H2209 C2217 0.930 . S
H2210 C2218 0.930 . S
H2211 C2219 0.930 . S
H2212 C2222 0.930 . S
H2213 C2223 0.930 . S
C2214 H2208 0.930 . S
C2214 C2215 1.355 . S
C2214 C2216 1.415 . S
C2215 C2214 1.355 . S
C2215 C2217 1.419 . S
C2216 C2214 1.415 . S
C2216 C2221 1.425 1_655 S
C2216 C2223 1.409 . S
C2217 H2209 0.930 . S
C2217 C2215 1.419 . S
C2217 C2218 1.362 1_655 S
C2218 H2210 0.930 . S
C2218 C2217 1.362 1_455 S
C2218 C2221 1.409 . S
C2219 H2211 0.930 . S
C2219 C2220 1.355 . S
C2219 C2221 1.415 . S
C2220 C2219 1.355 . S
C2220 C2222 1.419 . S
C2221 C2216 1.425 1_455 S
C2221 C2218 1.409 . S
C2221 C2219 1.415 . S
C2222 H2212 0.930 . S
C2222 C2220 1.419 . S
C2222 C2223 1.362 1_455 S
C2223 H2213 0.930 . S
C2223 C2216 1.409 . S
C2223 C2222 1.362 1_655 S
H2224 C2230 0.930 . S
H2225 C2233 0.930 . S
H2226 C2234 0.930 1_655 S
H2227 C2235 0.930 . S
H2228 C2238 0.930 . S
H2229 C2239 0.930 1_455 S
C2230 H2224 0.930 . S
C2230 C2231 1.355 . S
C2230 C2232 1.415 . S
C2231 C2230 1.355 . S
C2231 C2233 1.419 . S
C2232 C2230 1.415 . S
C2232 C2237 1.425 1_455 S
C2232 C2239 1.409 1_455 S
C2233 H2225 0.930 . S
C2233 C2231 1.419 . S
C2233 C2234 1.362 . S
C2234 H2226 0.930 1_455 S
C2234 C2233 1.362 . S
C2234 C2237 1.409 1_455 S
C2235 H2227 0.930 . S
C2235 C2236 1.355 . S
C2235 C2237 1.415 . S
C2236 C2235 1.355 . S
C2236 C2238 1.419 . S
C2237 C2232 1.425 1_655 S
C2237 C2234 1.409 1_655 S
C2237 C2235 1.415 . S
C2238 H2228 0.930 . S
C2238 C2236 1.419 . S
C2238 C2239 1.362 . S
C2239 H2229 0.930 1_655 S
C2239 C2232 1.409 1_655 S
C2239 C2238 1.362 . S
H2240 C2246 0.930 . S
H2241 C2249 0.930 . S
H2242 C2250 0.930 . S
H2243 C2251 0.930 . S
H2244 C2254 0.930 . S
H2245 C2255 0.930 . S
C2246 H2240 0.930 . S
C2246 C2247 1.355 . S
C2246 C2248 1.415 . S
C2247 C2246 1.355 . S
C2247 C2249 1.419 . S
C2248 C2246 1.415 . S
C2248 C2253 1.425 . S
C2248 C2255 1.409 . S
C2249 H2241 0.930 . S
C2249 C2247 1.419 . S
C2249 C2250 1.362 . S
C2250 H2242 0.930 . S
C2250 C2249 1.362 . S
C2250 C2253 1.409 . S
C2251 H2243 0.930 . S
C2251 C2252 1.355 . S
C2251 C2253 1.415 . S
C2252 C2251 1.355 . S
C2252 C2254 1.419 . S
C2253 C2248 1.425 . S
C2253 C2250 1.409 . S
C2253 C2251 1.415 . S
C2254 H2244 0.930 . S
C2254 C2252 1.419 . S
C2254 C2255 1.362 . S
C2255 H2245 0.930 . S
C2255 C2248 1.409 . S
C2255 C2254 1.362 . S
H2256 C2262 0.930 . S
H2257 C2265 0.930 . S
H2258 C2266 0.930 1_655 S
H2259 C2267 0.930 . S
H2260 C2270 0.930 . S
H2261 C2271 0.930 1_455 S
C2262 H2256 0.930 . S
C2262 C2263 1.355 . S
C2262 C2264 1.415 . S
C2263 C2262 1.355 . S
C2263 C2265 1.419 . S
C2264 C2262 1.415 . S
C2264 C2269 1.425 1_455 S
C2264 C2271 1.409 1_455 S
C2265 H2257 0.930 . S
C2265 C2263 1.419 . S
C2265 C2266 1.362 . S
C2266 H2258 0.930 1_455 S
C2266 C2265 1.362 . S
C2266 C2269 1.409 1_455 S
C2267 H2259 0.930 . S
C2267 C2268 1.355 . S
C2267 C2269 1.415 . S
C2268 C2267 1.355 . S
C2268 C2270 1.419 . S
C2269 C2264 1.425 1_655 S
C2269 C2266 1.409 1_655 S
C2269 C2267 1.415 . S
C2270 H2260 0.930 . S
C2270 C2268 1.419 . S
C2270 C2271 1.362 . S
C2271 H2261 0.930 1_655 S
C2271 C2264 1.409 1_655 S
C2271 C2270 1.362 . S
H2272 C2278 0.930 . S
H2273 C2281 0.930 . S
H2274 C2282 0.930 . S
H2275 C2283 0.930 . S
H2276 C2286 0.930 . S
H2277 C2287 0.930 . S
C2278 H2272 0.930 . S
C2278 C2279 1.355 . S
C2278 C2280 1.415 . S
C2279 C2278 1.355 . S
C2279 C2281 1.419 . S
C2280 C2278 1.415 . S
C2280 C2285 1.425 1_455 S
C2280 C2287 1.409 1_455 S
C2281 H2273 0.930 . S
C2281 C2279 1.419 . S
C2281 C2282 1.362 . S
C2282 H2274 0.930 . S
C2282 C2281 1.362 . S
C2282 C2285 1.409 1_455 S
C2283 H2275 0.930 . S
C2283 C2284 1.355 . S
C2283 C2285 1.415 . S
C2284 C2283 1.355 . S
C2284 C2286 1.419 . S
C2285 C2280 1.425 1_655 S
C2285 C2282 1.409 1_655 S
C2285 C2283 1.415 . S
C2286 H2276 0.930 . S
C2286 C2284 1.419 . S
C2286 C2287 1.362 . S
C2287 H2277 0.930 . S
C2287 C2280 1.409 1_655 S
C2287 C2286 1.362 . S
H2288 C2294 0.930 . S
H2289 C2297 0.930 . S
H2290 C2298 0.930 . S
H2291 C2299 0.930 . S
H2292 C2302 0.930 . S
H2293 C2303 0.930 . S
C2294 H2288 0.930 . S
C2294 C2295 1.355 . S
C2294 C2296 1.415 . S
C2295 C2294 1.355 . S
C2295 C2297 1.419 . S
C2296 C2294 1.415 . S
C2296 C2301 1.425 . S
C2296 C2303 1.409 . S
C2297 H2289 0.930 . S
C2297 C2295 1.419 . S
C2297 C2298 1.362 . S
C2298 H2290 0.930 . S
C2298 C2297 1.362 . S
C2298 C2301 1.409 . S
C2299 H2291 0.930 . S
C2299 C2300 1.355 . S
C2299 C2301 1.415 . S
C2300 C2299 1.355 . S
C2300 C2302 1.419 . S
C2301 C2296 1.425 . S
C2301 C2298 1.409 . S
C2301 C2299 1.415 . S
C2302 H2292 0.930 . S
C2302 C2300 1.419 . S
C2302 C2303 1.362 . S
C2303 H2293 0.930 . S
C2303 C2296 1.409 . S
C2303 C2302 1.362 . S
H2304 C2310 0.930 . S
H2305 C2313 0.930 . S
H2306 C2314 0.930 . S
H2307 C2315 0.930 . S
H2308 C2318 0.930 . S
H2309 C2319 0.930 . S
C2310 H2304 0.930 . S
C2310 C2311 1.355 . S
C2310 C2312 1.415 . S
C2311 C2310 1.355 . S
C2311 C2313 1.419 . S
C2312 C2310 1.415 . S
C2312 C2317 1.425 . S
C2312 C2319 1.409 . S
C2313 H2305 0.930 . S
C2313 C2311 1.419 . S
C2313 C2314 1.362 . S
C2314 H2306 0.930 . S
C2314 C2313 1.362 . S
C2314 C2317 1.409 . S
C2315 H2307 0.930 . S
C2315 C2316 1.355 . S
C2315 C2317 1.415 . S
C2316 C2315 1.355 . S
C2316 C2318 1.419 . S
C2317 C2312 1.425 . S
C2317 C2314 1.409 . S
C2317 C2315 1.415 . S
C2318 H2308 0.930 . S
C2318 C2316 1.419 . S
C2318 C2319 1.362 . S
C2319 H2309 0.930 . S
C2319 C2312 1.409 . S
C2319 C2318 1.362 . S
H2320 C2326 0.930 . S
H2321 C2329 0.930 . S
H2322 C2330 0.930 . S
H2323 C2331 0.930 . S
H2324 C2334 0.930 . S
H2325 C2335 0.930 . S
C2326 H2320 0.930 . S
C2326 C2327 1.355 . S
C2326 C2328 1.415 . S
C2327 C2326 1.355 . S
C2327 C2329 1.419 . S
C2328 C2326 1.415 . S
C2328 C2333 1.425 . S
C2328 C2335 1.409 . S
C2329 H2321 0.930 . S
C2329 C2327 1.419 . S
C2329 C2330 1.362 . S
C2330 H2322 0.930 . S
C2330 C2329 1.362 . S
C2330 C2333 1.409 . S
C2331 H2323 0.930 . S
C2331 C2332 1.355 . S
C2331 C2333 1.415 . S
C2332 C2331 1.355 . S
C2332 C2334 1.419 . S
C2333 C2328 1.425 . S
C2333 C2330 1.409 . S
C2333 C2331 1.415 . S
C2334 H2324 0.930 . S
C2334 C2332 1.419 . S
C2334 C2335 1.362 . S
C2335 H2325 0.930 . S
C2335 C2328 1.409 . S
C2335 C2334 1.362 . S
H2336 C2342 0.930 . S
H2337 C2345 0.930 . S
H2338 C2346 0.930 . S
H2339 C2347 0.930 . S
H2340 C2350 0.930 . S
H2341 C2351 0.930 . S
C2342 H2336 0.930 . S
C2342 C2343 1.355 . S
C2342 C2344 1.415 . S
C2343 C2342 1.355 . S
C2343 C2345 1.419 1_655 S
C2344 C2342 1.415 . S
C2344 C2349 1.425 1_655 S
C2344 C2351 1.409 . S
C2345 H2337 0.930 . S
C2345 C2343 1.419 1_455 S
C2345 C2346 1.362 . S
C2346 H2338 0.930 . S
C2346 C2345 1.362 . S
C2346 C2349 1.409 . S
C2347 H2339 0.930 . S
C2347 C2348 1.355 . S
C2347 C2349 1.415 . S
C2348 C2347 1.355 . S
C2348 C2350 1.419 1_455 S
C2349 C2344 1.425 1_455 S
C2349 C2346 1.409 . S
C2349 C2347 1.415 . S
C2350 H2340 0.930 . S
C2350 C2348 1.419 1_655 S
C2350 C2351 1.362 . S
C2351 H2341 0.930 . S
C2351 C2344 1.409 . S
C2351 C2350 1.362 . S
H2352 C2358 0.930 . S
H2353 C2361 0.930 . S
H2354 C2362 0.930 . S
H2355 C2363 0.930 . S
H2356 C2366 0.930 . S
H2357 C2367 0.930 . S
C2358 H2352 0.930 . S
C2358 C2359 1.355 . S
C2358 C2360 1.415 1_655 S
C2359 C2358 1.355 . S
C2359 C2361 1.419 . S
C2360 C2358 1.415 1_455 S
C2360 C2365 1.425 1_455 S
C2360 C2367 1.409 . S
C2361 H2353 0.930 . S
C2361 C2359 1.419 . S
C2361 C2362 1.362 . S
C2362 H2354 0.930 . S
C2362 C2361 1.362 . S
C2362 C2365 1.426 . S
C2363 H2355 0.930 . S
C2363 C2364 1.355 . S
C2363 C2365 1.399 1_455 S
C2364 C2363 1.355 . S
C2364 C2366 1.419 . S
C2365 C2360 1.425 1_655 S
C2365 C2362 1.426 . S
C2365 C2363 1.399 1_655 S
C2366 H2356 0.930 . S
C2366 C2364 1.419 . S
C2366 C2367 1.362 . S
C2367 H2357 0.930 . S
C2367 C2360 1.409 . S
C2367 C2366 1.362 . S
C1095 C9 1.474 . S
C1100 C247 1.493 . S
C1111 C43 1.469 . S
C1116 C145 1.534 . S
C1127 C77 1.525 . S
C1132 C179 1.463 . S
C1143 C213 1.534 . S
C1148 C111 1.468 . S
C1159 C519 1.530 . S
C1164 C281 1.465 . S
C1175 C417 1.467 . S
C1180 C315 1.526 1_545 S
C1191 C451 1.466 . S
C1196 C349 1.531 . S
C1207 C485 1.538 . S
C1212 C383 1.487 . S
C1223 C553 1.538 . S
C1228 C791 1.490 . S
C1239 C689 1.492 . S
C1244 C587 1.477 . S
C1255 C723 1.535 . S
C1260 C621 1.469 . S
C1271 C655 1.532 . S
C1276 C757 1.505 . S
C1287 C825 1.465 . S
C1292 C1063 1.528 . S
C1303 C961 1.534 . S
C1308 C859 1.467 . S
C1319 C893 1.527 . S
C1324 C995 1.513 . S
C1335 C1029 1.466 . S
C1340 C927 1.510 . S
C1351 C954 0.751 . S
C1356 C20 0.818 . S
C1367 C54 0.774 . S
C1372 C444 0.829 1_545 S
C1383 C1022 0.830 . S
C1388 C88 0.770 . S
C1399 C122 0.777 . S
C1404 C512 0.826 1_565 S
C1415 C156 0.771 . S
C1420 C818 0.827 . S
C1431 C308 0.776 . S
C1436 C190 0.804 . S
C1447 C224 0.770 . S
C1452 C886 0.832 . S
C1463 C258 0.770 . S
C1468 C376 0.830 1_565 S
C1479 C682 0.757 . S
C1484 C292 0.816 . S
C1495 C326 0.777 . S
C1500 C172 0.826 1_565 S
C1511 C750 0.810 . S
C1516 C360 0.781 . S
C1527 C240 0.820 1_545 S
C1532 C394 0.781 . S
C1543 C428 0.769 . S
C1548 C546 0.833 . S
C1559 C462 0.775 . S
C1564 C36 0.820 1_565 S
C1575 C496 0.815 . S
C1580 C614 0.754 . S
C1591 C104 0.826 1_545 S
C1596 C530 0.772 . S
C1607 C564 0.816 . S
C1612 C410 0.758 . S
C1623 C988 0.832 . S
C1628 C598 0.769 . S
C1639 C632 0.782 . S
C1644 C478 0.817 . S
C1655 C666 0.805 . S
C1660 C1056 0.767 . S
C1671 C700 0.817 . S
C1676 C274 0.754 . S
C1687 C852 0.831 . S
C1692 C734 0.769 . S
C1703 C768 0.784 . S
C1708 C342 0.815 . S
C1719 C802 0.771 . S
C1724 C920 0.832 . S
C1735 C138 0.776 . S
C1740 C836 0.800 . S
C1751 C716 0.755 . S
C1756 C870 0.813 . S
C1767 C206 0.816 . S
C1772 C904 0.777 . S
C1783 C784 0.832 . S
C1788 C938 0.771 . S
C1799 C972 0.813 . S
C1804 C2 0.765 . S
C1815 C580 0.757 . S
C1820 C1006 0.812 . S
C1831 C1040 0.817 . S
C1836 C70 0.755 . S
C1847 C648 0.750 . S
C1852 C1074 0.817 . S
C1863 C141 1.660 . S
C1868 C5 1.684 . S
C1879 C175 1.675 . S
C1884 C39 1.689 . S
C1895 C73 1.637 . S
C1900 C209 1.659 . S
C1911 C243 1.640 . S
C1916 C107 1.640 . S
C1927 C413 1.642 . S
C1932 C277 1.637 . S
C1943 C447 1.687 . S
C1948 C311 1.684 . S
C1959 C345 1.652 . S
C1964 C481 1.678 . S
C1975 C379 1.650 . S
C1980 C515 1.677 . S
C1991 C685 1.672 . S
C1996 C549 1.688 . S
C2007 C719 1.684 . S
C2012 C583 1.685 . S
C2023 C617 1.668 . S
C2028 C753 1.688 . S
C2039 C651 1.654 . S
C2044 C787 1.635 . S
C2055 C957 1.636 . S
C2060 C821 1.656 . S
C2071 C991 1.643 . S
C2076 C855 1.669 . S
C2087 C889 1.683 . S
C2092 C1025 1.658 . S
C2103 C923 1.686 . S
C2108 C1059 1.680 . S
C2119 C645 1.581 . S
C2124 C33 1.570 . S
C2135 C67 1.515 . S
C2140 C679 1.512 . S
C2151 C577 1.562 . S
C2156 C101 1.551 . S
C2167 C135 1.564 . S
C2172 C611 1.553 . S
C2183 C169 1.512 . S
C2188 C781 1.511 . S
C2199 C815 1.584 . S
C2204 C203 1.573 . S
C2215 C713 1.591 . S
C2220 C237 1.582 . S
C2231 C271 1.512 . S
C2236 C747 1.516 . S
C2247 C305 1.607 . S
C2252 C917 1.606 . S
C2263 C951 1.512 . S
C2268 C339 1.516 . S
C2279 C849 1.549 . S
C2284 C373 1.539 . S
C2295 C407 1.585 . S
C2300 C883 1.593 . S
C2311 C441 1.539 . S
C2316 C1053 1.530 . S
C2327 C1087 1.562 . S
C2332 C475 1.573 . S
C2343 C509 1.607 . S
C2348 C985 1.606 . S
C2359 C543 1.605 . S
C2364 C1019 1.601 . S
