# Generated by pormake.
# Topology fny, (5)-cn, num edge types: 1
# Building blocks:
#     Node 0, Type 0, BuildingBlock: XOMCOT_clean_sbu_0, # of connection points: 5
#     Node 1, Type 0, BuildingBlock: XOMCOT_clean_sbu_0, # of connection points: 5
#     Node 2, Type 0, BuildingBlock: XOMCOT_clean_sbu_0, # of connection points: 5
#     Node 3, Type 0, BuildingBlock: XOMCOT_clean_sbu_0, # of connection points: 5
#     Node 4, Type 0, BuildingBlock: XOMCOT_clean_sbu_0, # of connection points: 5
#     Node 5, Type 0, BuildingBlock: XOMCOT_clean_sbu_0, # of connection points: 5
#     Node 6, Type 0, BuildingBlock: XOMCOT_clean_sbu_0, # of connection points: 5
#     Node 7, Type 0, BuildingBlock: XOMCOT_clean_sbu_0, # of connection points: 5
#     Node 8, Type 0, BuildingBlock: XOMCOT_clean_sbu_0, # of connection points: 5
#     Node 9, Type 0, BuildingBlock: XOMCOT_clean_sbu_0, # of connection points: 5
#     Node 10, Type 0, BuildingBlock: XOMCOT_clean_sbu_0, # of connection points: 5
#     Node 11, Type 0, BuildingBlock: XOMCOT_clean_sbu_0, # of connection points: 5
#     Edge 12, Type (0, 0), None
#     Edge 13, Type (0, 0), None
#     Edge 14, Type (0, 0), None
#     Edge 15, Type (0, 0), None
#     Edge 16, Type (0, 0), None
#     Edge 17, Type (0, 0), None
#     Edge 18, Type (0, 0), None
#     Edge 19, Type (0, 0), None
#     Edge 20, Type (0, 0), None
#     Edge 21, Type (0, 0), None
#     Edge 22, Type (0, 0), None
#     Edge 23, Type (0, 0), None
#     Edge 24, Type (0, 0), None
#     Edge 25, Type (0, 0), None
#     Edge 26, Type (0, 0), None
#     Edge 27, Type (0, 0), None
#     Edge 28, Type (0, 0), None
#     Edge 29, Type (0, 0), None
#     Edge 30, Type (0, 0), None
#     Edge 31, Type (0, 0), None
#     Edge 32, Type (0, 0), None
#     Edge 33, Type (0, 0), None
#     Edge 34, Type (0, 0), None
#     Edge 35, Type (0, 0), None
#     Edge 36, Type (0, 0), None
#     Edge 37, Type (0, 0), None
#     Edge 38, Type (0, 0), None
#     Edge 39, Type (0, 0), None
#     Edge 40, Type (0, 0), None
#     Edge 41, Type (0, 0), None
# Relax obj value: 0.392
# Max RMSD: 0.230
# Mean RMSD: 0.230
data_MOF--net-fny--node1-XOMCOT_clean_sbu_0--edge1-none
_symmetry_space_group_name_H-M    P1
_symmetry_Int_Tables_number       1
_symmetry_cell_setting            triclinic
loop_
_symmetry_equiv_pos_as_xyz
'x, y, z'
_cell_length_a     29.335644
_cell_length_b     29.335951
_cell_length_c     12.027194
_cell_angle_alpha  89.998444
_cell_angle_beta   90.003108
_cell_angle_gamma 120.00039
loop_
_atom_site_label
_atom_site_type_symbol
_atom_site_fract_x
_atom_site_fract_y
_atom_site_fract_z
_atom_type_partial_charge
Co0 Co 0.43138 0.60162 0.32865 0.0
C1 C 0.5018 0.59009 0.46381 0.0
C2 C 0.5462 0.65233 0.351 0.0
C3 C 0.57917 0.63874 0.40486 0.0
N4 N 0.49761 0.62298 0.39365 0.0
N5 N 0.55181 0.60399 0.48729 0.0
H6 H 0.4686 0.56036 0.50994 0.0
H7 H 0.55721 0.68105 0.28526 0.0
C8 C 0.47871 0.64674 0.07788 0.0
O9 O 0.45249 0.60045 1.03065 0.0
N10 N 0.36313 0.57474 0.26638 0.0
C11 C 0.32631 0.52303 0.27325 0.0
C12 C 0.31077 0.50371 0.16781 0.0
C13 C 0.36139 0.58787 0.16301 0.0
N14 N 0.33519 0.54518 0.09984 0.0
C15 C 0.41123 0.49465 0.33416 0.0
C16 C 0.49833 0.51362 0.21177 0.0
C17 C 0.47478 0.4693 0.28028 0.0
C18 C 0.42933 0.45857 0.33804 0.0
C19 C 0.47917 0.54872 0.21021 0.0
N20 N 0.437 0.54061 0.27413 0.0
H21 H 0.38136 0.48863 0.39345 0.0
H22 H 0.50432 0.58594 0.17175 0.0
H23 H 0.3167 0.49938 0.34748 0.0
H24 H 0.38573 0.62727 0.13262 0.0
O25 O 0.39371 0.57146 0.47147 0.0
O26 O 0.41782 0.65134 0.4225 0.0
O27 O 0.47342 0.65079 0.18593 0.0
C28 C 0.39253 0.61388 0.49537 0.0
H29 H 0.62171 0.66098 0.39978 0.0
H30 H 0.2878 0.4629 0.14289 0.0
H31 H 0.53452 0.52384 0.16804 0.0
H32 H 0.41085 0.42528 0.39414 0.0
Co33 Co 0.89761 0.39746 0.82866 0.0
C34 C 0.97956 0.46788 0.96382 0.0
C35 C 0.96171 0.51228 0.851 0.0
C36 C 1.00828 0.54525 0.90485 0.0
N37 N 0.94248 0.46369 0.89365 0.0
N38 N 1.01568 0.5179 0.98728 0.0
H39 H 0.9761 0.43469 1.00995 0.0
H40 H 0.94401 0.52329 0.78526 0.0
C41 C 0.89981 0.44479 0.57789 0.0
O42 O 0.91988 0.41857 0.53066 0.0
N43 N 0.85623 0.32921 0.76641 0.0
C44 C 0.87112 0.29239 0.77329 0.0
C45 C 0.8749 0.27685 0.66785 0.0
C46 C 0.84136 0.32747 0.66303 0.0
N47 N 0.85785 0.30126 0.59987 0.0
C48 C 0.98443 0.37731 0.83418 0.0
C49 C 1.05255 0.46441 0.71179 0.0
C50 C 1.07333 0.44086 0.7803 0.0
C51 C 1.0386 0.39541 0.83807 0.0
C52 C 0.99829 0.44525 0.71022 0.0
N53 N 0.96423 0.40308 0.77415 0.0
H54 H 0.96058 0.34744 0.89347 0.0
H55 H 0.98623 0.4704 0.67176 0.0
H56 H 0.88515 0.28278 0.84752 0.0
H57 H 0.8263 0.35181 0.63264 0.0
O58 O 0.8901 0.35979 0.97149 0.0
O59 O 0.83433 0.3839 0.92251 0.0
O60 O 0.89047 0.4395 0.68593 0.0
C61 C 0.84649 0.35861 0.99539 0.0
H62 H 1.02857 0.58779 0.89977 0.0
H63 H 0.89274 0.25388 0.64294 0.0
H64 H 1.07853 0.5006 0.66805 0.0
H65 H 1.05342 0.37694 0.89417 0.0
Co66 Co 0.56799 0.86369 0.32865 0.0
C67 C 0.57951 0.94563 0.4638 0.0
C68 C 0.51727 0.92779 0.35097 0.0
C69 C 0.53087 0.97436 0.40482 0.0
N70 N 0.54663 0.90856 0.39364 0.0
N71 N 0.56562 0.98175 0.48725 0.0
H72 H 0.60925 0.94217 0.50994 0.0
H73 H 0.48856 0.91008 0.28524 0.0
C74 C 0.52287 0.86589 0.07787 0.0
O75 O 0.56916 0.88596 1.03065 0.0
N76 N 0.59487 0.82231 0.26641 0.0
C77 C 0.64657 0.8372 0.27329 0.0
C78 C 0.6659 0.84098 0.16785 0.0
C79 C 0.58174 0.80744 0.16303 0.0
N80 N 0.62443 0.82393 0.09988 0.0
C81 C 0.67496 0.95051 0.33418 0.0
C82 C 0.65598 1.01864 0.21179 0.0
C83 C 0.70031 1.03941 0.28031 0.0
C84 C 0.71103 1.00468 0.33807 0.0
C85 C 0.62089 0.96437 0.21021 0.0
N86 N 0.62899 0.93031 0.27414 0.0
H87 H 0.68098 0.92666 0.39348 0.0
H88 H 0.58367 0.95231 0.17174 0.0
H89 H 0.67022 0.85124 0.34752 0.0
H90 H 0.54234 0.79238 0.13264 0.0
O91 O 0.59815 0.85617 0.47149 0.0
O92 O 0.51826 0.8004 0.42251 0.0
O93 O 0.51881 0.85655 0.18592 0.0
C94 C 0.55572 0.81257 0.49539 0.0
H95 H 0.50863 0.99465 0.39973 0.0
H96 H 0.70671 0.85882 0.14294 0.0
H97 H 0.64577 1.04461 0.16805 0.0
H98 H 0.74433 1.0195 0.39418 0.0
Co99 Co 0.77215 0.53406 0.82863 0.0
C100 C 0.70172 0.54558 0.96378 0.0
C101 C 0.65733 0.48334 0.85095 0.0
C102 C 0.62436 0.49694 0.90479 0.0
N103 N 0.70591 0.5127 0.89361 0.0
N104 N 0.65171 0.53169 0.98722 0.0
H105 H 0.73492 0.57531 1.00991 0.0
H106 H 0.64632 0.45463 0.78522 0.0
C107 C 0.72482 0.48895 0.57785 0.0
O108 O 0.75104 0.53524 0.53063 0.0
N109 N 0.8404 0.56095 0.76638 0.0
C110 C 0.87722 0.61265 0.77326 0.0
C111 C 0.89276 0.63198 0.66781 0.0
C112 C 0.84214 0.54782 0.66301 0.0
N113 N 0.86834 0.59051 0.59984 0.0
C114 C 0.79229 0.64103 0.83416 0.0
C115 C 0.70519 0.62206 0.71177 0.0
C116 C 0.72873 0.66638 0.7803 0.0
C117 C 0.77419 0.6771 0.83806 0.0
C118 C 0.72435 0.58696 0.71019 0.0
N119 N 0.76653 0.59507 0.77412 0.0
H120 H 0.82216 0.64705 0.89346 0.0
H121 H 0.69921 0.54975 0.67172 0.0
H122 H 0.88683 0.6363 0.84748 0.0
H123 H 0.8178 0.50841 0.63262 0.0
O124 O 0.80982 0.56422 0.97146 0.0
O125 O 0.78571 0.48434 0.92249 0.0
O126 O 0.73011 0.48489 0.6859 0.0
C127 C 0.811 0.5218 0.99536 0.0
H128 H 0.58182 0.4747 0.8997 0.0
H129 H 0.91573 0.67279 0.64289 0.0
H130 H 0.669 0.61184 0.66804 0.0
H131 H 0.79266 0.71039 0.89417 0.0
Co132 Co 0.30593 0.73823 0.32862 0.0
C133 C 0.224 0.66781 0.46377 0.0
C134 C 0.24184 0.62341 0.35095 0.0
C135 C 0.19527 0.59044 0.40479 0.0
N136 N 0.26107 0.672 0.39361 0.0
N137 N 0.18787 0.61779 0.48722 0.0
H138 H 0.22745 0.701 0.50991 0.0
H139 H 0.25955 0.61241 0.28522 0.0
C140 C 0.30372 0.6909 0.07785 0.0
O141 O 0.28365 0.71712 1.03062 0.0
N142 N 0.3473 0.80648 0.26636 0.0
C143 C 0.3324 0.8433 0.27322 0.0
C144 C 0.32862 0.85883 0.16777 0.0
C145 C 0.36217 0.80823 0.16298 0.0
N146 N 0.34567 0.83442 0.09981 0.0
C147 C 0.2191 0.75837 0.33415 0.0
C148 C 0.15098 0.67126 0.21176 0.0
C149 C 0.1302 0.69481 0.28028 0.0
C150 C 0.16493 0.74027 0.33804 0.0
C151 C 0.20524 0.69043 0.21019 0.0
N152 N 0.2393 0.73261 0.27411 0.0
H153 H 0.24296 0.78824 0.39344 0.0
H154 H 0.21731 0.66529 0.17172 0.0
H155 H 0.31837 0.85291 0.34744 0.0
H156 H 0.37723 0.78388 0.1326 0.0
O157 O 0.31345 0.7759 0.47144 0.0
O158 O 0.36922 0.7518 0.42247 0.0
O159 O 0.31307 0.6962 0.18589 0.0
C160 C 0.35706 0.77709 0.49534 0.0
H161 H 0.17498 0.5479 0.3997 0.0
H162 H 0.31078 0.8818 0.14285 0.0
H163 H 0.125 0.63507 0.16803 0.0
H164 H 0.15011 0.75874 0.39414 0.0
Co165 Co 0.63554 0.27201 0.82863 0.0
C166 C 0.62402 0.19007 0.96379 0.0
C167 C 0.68626 0.20791 0.85098 0.0
C168 C 0.67267 0.16134 0.90483 0.0
N169 N 0.65691 0.22715 0.89363 0.0
N170 N 0.63792 0.15395 0.98725 0.0
H171 H 0.59429 0.19353 1.00992 0.0
H172 H 0.71498 0.22562 0.78524 0.0
C173 C 0.68066 0.2698 0.57786 0.0
O174 O 0.63437 0.24973 0.53063 0.0
N175 N 0.60866 0.31338 0.76636 0.0
C176 C 0.55695 0.29848 0.77322 0.0
C177 C 0.53763 0.2947 0.66777 0.0
C178 C 0.62179 0.32825 0.66298 0.0
N179 N 0.5791 0.31175 0.59981 0.0
C180 C 0.52858 0.18518 0.83415 0.0
C181 C 0.54755 0.11706 0.71176 0.0
C182 C 0.50323 0.09628 0.78028 0.0
C183 C 0.4925 0.13101 0.83803 0.0
C184 C 0.58264 0.17132 0.71019 0.0
N185 N 0.57454 0.20538 0.77412 0.0
H186 H 0.52255 0.20903 0.89344 0.0
H187 H 0.61986 0.18338 0.67173 0.0
H188 H 0.5333 0.28444 0.84744 0.0
H189 H 0.66119 0.34331 0.6326 0.0
O190 O 0.60538 0.27952 0.97145 0.0
O191 O 0.68526 0.33529 0.92248 0.0
O192 O 0.68471 0.27914 0.68591 0.0
C193 C 0.6478 0.32313 0.99535 0.0
H194 H 0.69491 0.14105 0.89974 0.0
H195 H 0.49682 0.27686 0.64285 0.0
H196 H 0.55776 0.09108 0.66803 0.0
H197 H 0.45921 0.11619 0.89413 0.0
Co198 Co 0.56787 0.73837 0.75756 0.0
C199 C 0.57939 0.66817 0.6218 0.0
C200 C 0.51727 0.62361 0.73484 0.0
C201 C 0.53102 0.59072 0.68109 0.0
N202 N 0.54649 0.67222 0.69213 0.0
N203 N 0.56575 0.61819 0.59876 0.0
H204 H 0.60903 0.70138 0.57556 0.0
H205 H 0.48858 0.61252 0.80064 0.0
C206 C 0.52271 0.69073 1.00815 0.0
O207 O 0.569 0.71689 0.05541 0.0
N208 N 0.59476 0.80654 0.82026 0.0
C209 C 0.6465 0.84331 0.81351 0.0
C210 C 0.66589 0.85851 0.91903 0.0
C211 C 0.58171 0.80803 0.92382 0.0
N212 N 0.62445 0.83392 0.98698 0.0
C213 C 0.67482 0.75847 0.7519 0.0
C214 C 0.65583 0.67126 0.87389 0.0
C215 C 0.70016 0.69487 0.80543 0.0
C216 C 0.7109 0.74038 0.74787 0.0
C217 C 0.62073 0.69041 0.8756 0.0
N218 N 0.62885 0.73265 0.81188 0.0
H219 H 0.68087 0.78842 0.69281 0.0
H220 H 0.58352 0.66523 0.91402 0.0
H221 H 0.6701 0.8531 0.73919 0.0
H222 H 0.54229 0.78376 0.95416 0.0
O223 O 0.5981 0.77624 0.61495 0.0
O224 O 0.51821 0.75209 0.66383 0.0
O225 O 0.51864 0.69615 0.90016 0.0
C226 C 0.55571 0.77747 0.59109 0.0
H227 H 0.50894 0.54818 0.68624 0.0
H228 H 0.70671 0.88141 0.94393 0.0
H229 H 0.64562 0.63503 0.91749 0.0
H230 H 0.74422 0.75892 0.69184 0.0
Co231 Co 0.89734 0.53394 0.25754 0.0
C232 C 0.97908 0.54547 0.1218 0.0
C233 C 0.96152 0.48335 0.23484 0.0
C234 C 1.00815 0.4971 0.18109 0.0
N235 N 0.94211 0.51257 0.19213 0.0
N236 N 1.01542 0.53183 0.09876 0.0
H237 H 0.9755 0.57511 0.07555 0.0
H238 H 0.94391 0.45466 0.30064 0.0
C239 C 0.89982 0.48879 0.50815 0.0
O240 O 0.91996 0.53508 0.5554 0.0
N241 N 0.85606 0.56083 0.32024 0.0
C242 C 0.87102 0.61256 0.31347 0.0
C243 C 0.87521 0.63196 0.41899 0.0
C244 C 0.84152 0.54778 0.4238 0.0
N245 N 0.85837 0.59052 0.48695 0.0
C246 C 0.9842 0.6409 0.25189 0.0
C247 C 1.05242 0.62191 0.37388 0.0
C248 C 1.07313 0.66624 0.30541 0.0
C249 C 1.03836 0.67698 0.24785 0.0
C250 C 0.99816 0.58681 0.37559 0.0
N251 N 0.96404 0.59492 0.31187 0.0
H252 H 0.96029 0.64695 0.19279 0.0
H253 H 0.98613 0.54959 0.41401 0.0
H254 H 0.88484 0.63617 0.23914 0.0
H255 H 0.82637 0.50836 0.45415 0.0
O256 O 0.88972 0.56418 0.11493 0.0
O257 O 0.83396 0.48428 0.16382 0.0
O258 O 0.89034 0.48472 0.40015 0.0
C259 C 0.84608 0.52178 0.09107 0.0
H260 H 1.02861 0.47502 0.18624 0.0
H261 H 0.89314 0.67278 0.44388 0.0
H262 H 1.07843 0.6117 0.41748 0.0
H263 H 1.05314 0.7103 0.19182 0.0
Co264 Co 0.43125 0.86343 0.75752 0.0
C265 C 0.50145 0.94517 0.62178 0.0
C266 C 0.54601 0.92761 0.73482 0.0
C267 C 0.5789 0.97424 0.68106 0.0
N268 N 0.49739 0.9082 0.69211 0.0
N269 N 0.55143 0.98151 0.59873 0.0
H270 H 0.46823 0.94159 0.57553 0.0
H271 H 0.5571 0.91 0.80062 0.0
C272 C 0.47888 0.8659 1.00813 0.0
O273 O 0.45272 0.88604 0.05537 0.0
N274 N 0.36307 0.82214 0.82021 0.0
C275 C 0.3263 0.8371 0.81344 0.0
C276 C 0.31109 0.84129 0.91895 0.0
C277 C 0.36159 0.8076 0.92377 0.0
N278 N 0.33569 0.82444 0.98691 0.0
C279 C 0.41114 0.95028 0.75187 0.0
C280 C 0.49835 1.0185 0.87387 0.0
C281 C 0.47473 1.03921 0.80541 0.0
C282 C 0.42922 1.00444 0.74784 0.0
C283 C 0.47919 0.96424 0.87557 0.0
N284 N 0.43696 0.93012 0.81185 0.0
H285 H 0.38118 0.92637 0.69277 0.0
H286 H 0.50438 0.95221 0.91399 0.0
H287 H 0.31651 0.85092 0.7391 0.0
H288 H 0.38586 0.79245 0.95413 0.0
O289 O 0.39338 0.8558 0.6149 0.0
O290 O 0.41754 0.80005 0.66379 0.0
O291 O 0.47346 0.85642 0.90013 0.0
C292 C 0.39215 0.81217 0.59105 0.0
H293 H 0.62144 0.9947 0.6862 0.0
H294 H 0.28819 0.85921 0.94383 0.0
H295 H 0.53457 1.04451 0.91747 0.0
H296 H 0.41068 1.01922 0.69181 0.0
Co297 Co 0.63566 0.39732 0.25751 0.0
C298 C 0.62412 0.46752 0.12176 0.0
C299 C 0.68624 0.51209 0.2348 0.0
C300 C 0.67249 0.54497 0.18103 0.0
N301 N 0.65703 0.46347 0.19209 0.0
N302 N 0.63776 0.5175 0.09869 0.0
H303 H 0.59448 0.4343 0.07552 0.0
H304 H 0.71493 0.52317 0.30059 0.0
C305 C 0.68082 0.44496 0.50811 0.0
O306 O 0.63453 0.4188 0.55536 0.0
N307 N 0.60878 0.32915 0.32021 0.0
C308 C 0.55704 0.29238 0.31344 0.0
C309 C 0.53765 0.27717 0.41896 0.0
C310 C 0.62183 0.32766 0.42377 0.0
N311 N 0.57909 0.30176 0.48692 0.0
C312 C 0.5287 0.37721 0.25186 0.0
C313 C 0.54769 0.46442 0.37387 0.0
C314 C 0.50335 0.4408 0.30541 0.0
C315 C 0.49262 0.3953 0.24784 0.0
C316 C 0.5828 0.44527 0.37557 0.0
N317 N 0.57468 0.40303 0.31184 0.0
H318 H 0.52265 0.34726 0.19277 0.0
H319 H 0.62001 0.47045 0.41398 0.0
H320 H 0.53344 0.28259 0.23911 0.0
H321 H 0.66125 0.35194 0.45413 0.0
O322 O 0.60542 0.35946 0.1149 0.0
O323 O 0.68532 0.38361 0.16379 0.0
O324 O 0.68489 0.43954 0.40011 0.0
C325 C 0.64782 0.35823 0.09105 0.0
H326 H 0.69457 0.58751 0.18616 0.0
H327 H 0.49682 0.25427 0.44384 0.0
H328 H 0.5579 0.50064 0.41747 0.0
H329 H 0.45929 0.37676 0.19181 0.0
Co330 Co 0.30619 0.60174 0.75753 0.0
C331 C 0.22445 0.5902 0.62176 0.0
C332 C 0.242 0.65232 0.73479 0.0
C333 C 0.19537 0.63857 0.68102 0.0
N334 N 0.26141 0.62311 0.6921 0.0
N335 N 0.18811 0.60384 0.59869 0.0
H336 H 0.22803 0.56056 0.57553 0.0
H337 H 0.25961 0.68101 0.80059 0.0
C338 C 0.30371 0.6469 1.00812 0.0
O339 O 0.28358 0.60061 0.05537 0.0
N340 N 0.34748 0.57486 0.82024 0.0
C341 C 0.33251 0.52312 0.81348 0.0
C342 C 0.32832 0.50373 0.919 0.0
C343 C 0.36201 0.58791 0.9238 0.0
N344 N 0.34517 0.54517 0.98695 0.0
C345 C 0.21933 0.49478 0.75189 0.0
C346 C 0.15112 0.51377 0.87388 0.0
C347 C 0.1304 0.46943 0.80543 0.0
C348 C 0.16517 0.4587 0.74786 0.0
C349 C 0.20537 0.54888 0.87558 0.0
N350 N 0.23949 0.54076 0.81186 0.0
H351 H 0.24324 0.48873 0.6928 0.0
H352 H 0.2174 0.58609 0.91398 0.0
H353 H 0.31869 0.49952 0.73914 0.0
H354 H 0.37716 0.62733 0.95415 0.0
O355 O 0.31381 0.5715 0.61492 0.0
O356 O 0.36956 0.6514 0.6638 0.0
O357 O 0.31319 0.65097 0.90012 0.0
C358 C 0.35744 0.6139 0.59107 0.0
H359 H 0.17491 0.66065 0.68615 0.0
H360 H 0.31039 0.4629 0.94388 0.0
H361 H 0.12511 0.52398 0.91748 0.0
H362 H 0.15039 0.42538 0.69185 0.0
Co363 Co 0.77229 0.27227 0.25755 0.0
C364 C 0.70209 0.19053 0.12178 0.0
C365 C 0.65753 0.20809 0.23482 0.0
C366 C 0.62464 0.16146 0.18105 0.0
N367 N 0.70615 0.2275 0.19212 0.0
N368 N 0.65211 0.1542 0.09873 0.0
H369 H 0.73531 0.19411 0.07555 0.0
H370 H 0.64644 0.2257 0.30061 0.0
C371 C 0.72465 0.26979 0.50814 0.0
O372 O 0.75081 0.24965 0.5554 0.0
N373 N 0.84047 0.31355 0.32026 0.0
C374 C 0.87724 0.29859 0.31351 0.0
C375 C 0.89244 0.29439 0.41903 0.0
C376 C 0.84195 0.32809 0.42382 0.0
N377 N 0.86784 0.31124 0.48698 0.0
C378 C 0.79239 0.18541 0.2519 0.0
C379 C 0.70518 0.11719 0.37389 0.0
C380 C 0.7288 0.09648 0.30544 0.0
C381 C 0.77431 0.13125 0.24788 0.0
C382 C 0.72434 0.17145 0.37559 0.0
N383 N 0.76657 0.20557 0.31188 0.0
H384 H 0.82235 0.20932 0.19281 0.0
H385 H 0.69915 0.18348 0.414 0.0
H386 H 0.88702 0.28476 0.23918 0.0
H387 H 0.81768 0.34324 0.45416 0.0
O388 O 0.81016 0.27989 0.11494 0.0
O389 O 0.78601 0.33564 0.16382 0.0
O390 O 0.73007 0.27927 0.40014 0.0
C391 C 0.81139 0.32352 0.09109 0.0
H392 H 0.5821 0.141 0.18619 0.0
H393 H 0.91533 0.27646 0.44393 0.0
H394 H 0.66896 0.09118 0.41749 0.0
H395 H 0.79285 0.11647 0.19186 0.0
loop_
_geom_bond_atom_site_label_1
_geom_bond_atom_site_label_2
_geom_bond_distance
_geom_bond_site_symmetry_2
_ccdc_geom_bond_type
Co0 N4 2.148 . S
Co0 N10 2.128 . S
Co0 N20 2.194 . S
Co0 O25 2.351 . S
Co0 O26 2.155 . S
Co0 O27 2.096 . S
C1 N4 1.301 . S
C1 N5 1.328 . S
C1 H6 0.930 . S
C2 C3 1.333 . S
C2 N4 1.317 . S
C2 H7 0.930 . S
C3 C2 1.333 . S
C3 N5 1.350 . S
C3 H29 0.931 . S
N4 Co0 2.148 . S
N4 C1 1.301 . S
N4 C2 1.317 . S
N5 C1 1.328 . S
N5 C3 1.350 . S
H6 C1 0.930 . S
H7 C2 0.930 . S
C8 O9 1.224 . S
C8 O27 1.247 . S
O9 C8 1.224 . S
N10 Co0 2.128 . S
N10 C11 1.355 . S
N10 C13 1.311 . S
C11 N10 1.355 . S
C11 C12 1.363 . S
C11 H23 0.929 . S
C12 C11 1.363 . S
C12 N14 1.375 . S
C12 H30 0.931 . S
C13 N10 1.311 . S
C13 N14 1.347 . S
C13 H24 0.929 . S
N14 C12 1.375 . S
N14 C13 1.347 . S
C15 C18 1.365 . S
C15 N20 1.328 . S
C15 H21 0.929 . S
C16 C17 1.362 . S
C16 C19 1.378 . S
C16 H31 0.929 . S
C17 C16 1.362 . S
C17 C18 1.366 . S
C18 C15 1.365 . S
C18 C17 1.366 . S
C18 H32 0.930 . S
C19 C16 1.378 . S
C19 N20 1.315 . S
C19 H22 0.930 . S
N20 Co0 2.194 . S
N20 C15 1.328 . S
N20 C19 1.315 . S
H21 C15 0.929 . S
H22 C19 0.930 . S
H23 C11 0.929 . S
H24 C13 0.929 . S
O25 Co0 2.351 . S
O25 C28 1.244 . S
O26 Co0 2.155 . S
O26 C28 1.240 . S
O27 Co0 2.096 . S
O27 C8 1.247 . S
C28 O25 1.244 . S
C28 O26 1.240 . S
H29 C3 0.931 . S
H30 C12 0.931 . S
H31 C16 0.929 . S
H32 C18 0.930 . S
Co33 N37 2.148 . S
Co33 N43 2.128 . S
Co33 N53 2.194 . S
Co33 O58 2.351 . S
Co33 O59 2.155 . S
Co33 O60 2.096 . S
C34 N37 1.301 . S
C34 N38 1.328 . S
C34 H39 0.930 . S
C35 C36 1.333 . S
C35 N37 1.317 . S
C35 H40 0.930 . S
C36 C35 1.333 . S
C36 N38 1.350 . S
C36 H62 0.931 . S
N37 Co33 2.148 . S
N37 C34 1.301 . S
N37 C35 1.317 . S
N38 C34 1.328 . S
N38 C36 1.350 . S
H39 C34 0.930 . S
H40 C35 0.930 . S
C41 O42 1.224 . S
C41 O60 1.247 . S
O42 C41 1.224 . S
N43 Co33 2.128 . S
N43 C44 1.355 . S
N43 C46 1.311 . S
C44 N43 1.355 . S
C44 C45 1.363 . S
C44 H56 0.929 . S
C45 C44 1.363 . S
C45 N47 1.375 . S
C45 H63 0.931 . S
C46 N43 1.311 . S
C46 N47 1.347 . S
C46 H57 0.929 . S
N47 C45 1.375 . S
N47 C46 1.347 . S
C48 C51 1.365 . S
C48 N53 1.328 . S
C48 H54 0.929 . S
C49 C50 1.362 . S
C49 C52 1.378 . S
C49 H64 0.929 . S
C50 C49 1.362 . S
C50 C51 1.366 . S
C51 C48 1.365 . S
C51 C50 1.366 . S
C51 H65 0.930 . S
C52 C49 1.378 . S
C52 N53 1.315 . S
C52 H55 0.930 . S
N53 Co33 2.194 . S
N53 C48 1.328 . S
N53 C52 1.315 . S
H54 C48 0.929 . S
H55 C52 0.930 . S
H56 C44 0.929 . S
H57 C46 0.929 . S
O58 Co33 2.351 . S
O58 C61 1.244 . S
O59 Co33 2.155 . S
O59 C61 1.240 . S
O60 Co33 2.096 . S
O60 C41 1.247 . S
C61 O58 1.244 . S
C61 O59 1.240 . S
H62 C36 0.931 . S
H63 C45 0.931 . S
H64 C49 0.929 . S
H65 C51 0.930 . S
Co66 N70 2.148 . S
Co66 N76 2.128 . S
Co66 N86 2.194 . S
Co66 O91 2.351 . S
Co66 O92 2.155 . S
Co66 O93 2.096 . S
C67 N70 1.301 . S
C67 N71 1.328 . S
C67 H72 0.930 . S
C68 C69 1.333 . S
C68 N70 1.317 . S
C68 H73 0.930 . S
C69 C68 1.333 . S
C69 N71 1.350 . S
C69 H95 0.931 . S
N70 Co66 2.148 . S
N70 C67 1.301 . S
N70 C68 1.317 . S
N71 C67 1.328 . S
N71 C69 1.350 . S
H72 C67 0.930 . S
H73 C68 0.930 . S
C74 O75 1.224 . S
C74 O93 1.247 . S
O75 C74 1.224 . S
N76 Co66 2.128 . S
N76 C77 1.355 . S
N76 C79 1.311 . S
C77 N76 1.355 . S
C77 C78 1.363 . S
C77 H89 0.929 . S
C78 C77 1.363 . S
C78 N80 1.375 . S
C78 H96 0.931 . S
C79 N76 1.311 . S
C79 N80 1.347 . S
C79 H90 0.929 . S
N80 C78 1.375 . S
N80 C79 1.347 . S
C81 C84 1.365 . S
C81 N86 1.328 . S
C81 H87 0.929 . S
C82 C83 1.362 . S
C82 C85 1.378 . S
C82 H97 0.929 . S
C83 C82 1.362 . S
C83 C84 1.366 . S
C84 C81 1.365 . S
C84 C83 1.366 . S
C84 H98 0.930 . S
C85 C82 1.378 . S
C85 N86 1.315 . S
C85 H88 0.930 . S
N86 Co66 2.194 . S
N86 C81 1.328 . S
N86 C85 1.315 . S
H87 C81 0.929 . S
H88 C85 0.930 . S
H89 C77 0.929 . S
H90 C79 0.929 . S
O91 Co66 2.351 . S
O91 C94 1.244 . S
O92 Co66 2.155 . S
O92 C94 1.240 . S
O93 Co66 2.096 . S
O93 C74 1.247 . S
C94 O91 1.244 . S
C94 O92 1.240 . S
H95 C69 0.931 . S
H96 C78 0.931 . S
H97 C82 0.929 . S
H98 C84 0.930 . S
Co99 N103 2.148 . S
Co99 N109 2.128 . S
Co99 N119 2.194 . S
Co99 O124 2.351 . S
Co99 O125 2.155 . S
Co99 O126 2.096 . S
C100 N103 1.301 . S
C100 N104 1.328 . S
C100 H105 0.930 . S
C101 C102 1.333 . S
C101 N103 1.317 . S
C101 H106 0.930 . S
C102 C101 1.333 . S
C102 N104 1.350 . S
C102 H128 0.931 . S
N103 Co99 2.148 . S
N103 C100 1.301 . S
N103 C101 1.317 . S
N104 C100 1.328 . S
N104 C102 1.350 . S
H105 C100 0.930 . S
H106 C101 0.930 . S
C107 O108 1.224 . S
C107 O126 1.247 . S
O108 C107 1.224 . S
N109 Co99 2.128 . S
N109 C110 1.355 . S
N109 C112 1.311 . S
C110 N109 1.355 . S
C110 C111 1.363 . S
C110 H122 0.929 . S
C111 C110 1.363 . S
C111 N113 1.375 . S
C111 H129 0.931 . S
C112 N109 1.311 . S
C112 N113 1.347 . S
C112 H123 0.929 . S
N113 C111 1.375 . S
N113 C112 1.347 . S
C114 C117 1.365 . S
C114 N119 1.328 . S
C114 H120 0.929 . S
C115 C116 1.362 . S
C115 C118 1.378 . S
C115 H130 0.929 . S
C116 C115 1.362 . S
C116 C117 1.366 . S
C117 C114 1.365 . S
C117 C116 1.366 . S
C117 H131 0.930 . S
C118 C115 1.378 . S
C118 N119 1.315 . S
C118 H121 0.930 . S
N119 Co99 2.194 . S
N119 C114 1.328 . S
N119 C118 1.315 . S
H120 C114 0.929 . S
H121 C118 0.930 . S
H122 C110 0.929 . S
H123 C112 0.929 . S
O124 Co99 2.351 . S
O124 C127 1.244 . S
O125 Co99 2.155 . S
O125 C127 1.240 . S
O126 Co99 2.096 . S
O126 C107 1.247 . S
C127 O124 1.244 . S
C127 O125 1.240 . S
H128 C102 0.931 . S
H129 C111 0.931 . S
H130 C115 0.929 . S
H131 C117 0.930 . S
Co132 N136 2.148 . S
Co132 N142 2.128 . S
Co132 N152 2.194 . S
Co132 O157 2.351 . S
Co132 O158 2.155 . S
Co132 O159 2.096 . S
C133 N136 1.301 . S
C133 N137 1.328 . S
C133 H138 0.930 . S
C134 C135 1.333 . S
C134 N136 1.317 . S
C134 H139 0.930 . S
C135 C134 1.333 . S
C135 N137 1.350 . S
C135 H161 0.931 . S
N136 Co132 2.148 . S
N136 C133 1.301 . S
N136 C134 1.317 . S
N137 C133 1.328 . S
N137 C135 1.350 . S
H138 C133 0.930 . S
H139 C134 0.930 . S
C140 O141 1.224 . S
C140 O159 1.247 . S
O141 C140 1.224 . S
N142 Co132 2.128 . S
N142 C143 1.355 . S
N142 C145 1.311 . S
C143 N142 1.355 . S
C143 C144 1.363 . S
C143 H155 0.929 . S
C144 C143 1.363 . S
C144 N146 1.375 . S
C144 H162 0.931 . S
C145 N142 1.311 . S
C145 N146 1.347 . S
C145 H156 0.929 . S
N146 C144 1.375 . S
N146 C145 1.347 . S
C147 C150 1.365 . S
C147 N152 1.328 . S
C147 H153 0.929 . S
C148 C149 1.362 . S
C148 C151 1.378 . S
C148 H163 0.929 . S
C149 C148 1.362 . S
C149 C150 1.366 . S
C150 C147 1.365 . S
C150 C149 1.366 . S
C150 H164 0.930 . S
C151 C148 1.378 . S
C151 N152 1.315 . S
C151 H154 0.930 . S
N152 Co132 2.194 . S
N152 C147 1.328 . S
N152 C151 1.315 . S
H153 C147 0.929 . S
H154 C151 0.930 . S
H155 C143 0.929 . S
H156 C145 0.929 . S
O157 Co132 2.351 . S
O157 C160 1.244 . S
O158 Co132 2.155 . S
O158 C160 1.240 . S
O159 Co132 2.096 . S
O159 C140 1.247 . S
C160 O157 1.244 . S
C160 O158 1.240 . S
H161 C135 0.931 . S
H162 C144 0.931 . S
H163 C148 0.929 . S
H164 C150 0.930 . S
Co165 N169 2.148 . S
Co165 N175 2.128 . S
Co165 N185 2.194 . S
Co165 O190 2.351 . S
Co165 O191 2.155 . S
Co165 O192 2.096 . S
C166 N169 1.301 . S
C166 N170 1.328 . S
C166 H171 0.930 . S
C167 C168 1.333 . S
C167 N169 1.317 . S
C167 H172 0.930 . S
C168 C167 1.333 . S
C168 N170 1.350 . S
C168 H194 0.931 . S
N169 Co165 2.148 . S
N169 C166 1.301 . S
N169 C167 1.317 . S
N170 C166 1.328 . S
N170 C168 1.350 . S
H171 C166 0.930 . S
H172 C167 0.930 . S
C173 O174 1.224 . S
C173 O192 1.247 . S
O174 C173 1.224 . S
N175 Co165 2.128 . S
N175 C176 1.355 . S
N175 C178 1.311 . S
C176 N175 1.355 . S
C176 C177 1.363 . S
C176 H188 0.929 . S
C177 C176 1.363 . S
C177 N179 1.375 . S
C177 H195 0.931 . S
C178 N175 1.311 . S
C178 N179 1.347 . S
C178 H189 0.929 . S
N179 C177 1.375 . S
N179 C178 1.347 . S
C180 C183 1.365 . S
C180 N185 1.328 . S
C180 H186 0.929 . S
C181 C182 1.362 . S
C181 C184 1.378 . S
C181 H196 0.929 . S
C182 C181 1.362 . S
C182 C183 1.366 . S
C183 C180 1.365 . S
C183 C182 1.366 . S
C183 H197 0.930 . S
C184 C181 1.378 . S
C184 N185 1.315 . S
C184 H187 0.930 . S
N185 Co165 2.194 . S
N185 C180 1.328 . S
N185 C184 1.315 . S
H186 C180 0.929 . S
H187 C184 0.930 . S
H188 C176 0.929 . S
H189 C178 0.929 . S
O190 Co165 2.351 . S
O190 C193 1.244 . S
O191 Co165 2.155 . S
O191 C193 1.240 . S
O192 Co165 2.096 . S
O192 C173 1.247 . S
C193 O190 1.244 . S
C193 O191 1.240 . S
H194 C168 0.931 . S
H195 C177 0.931 . S
H196 C181 0.929 . S
H197 C183 0.930 . S
Co198 N202 2.148 . S
Co198 N208 2.128 . S
Co198 N218 2.194 . S
Co198 O223 2.351 . S
Co198 O224 2.155 . S
Co198 O225 2.096 . S
C199 N202 1.301 . S
C199 N203 1.328 . S
C199 H204 0.930 . S
C200 C201 1.333 . S
C200 N202 1.317 . S
C200 H205 0.930 . S
C201 C200 1.333 . S
C201 N203 1.350 . S
C201 H227 0.931 . S
N202 Co198 2.148 . S
N202 C199 1.301 . S
N202 C200 1.317 . S
N203 C199 1.328 . S
N203 C201 1.350 . S
H204 C199 0.930 . S
H205 C200 0.930 . S
C206 O207 1.224 . S
C206 O225 1.247 . S
O207 C206 1.224 . S
N208 Co198 2.128 . S
N208 C209 1.355 . S
N208 C211 1.311 . S
C209 N208 1.355 . S
C209 C210 1.363 . S
C209 H221 0.929 . S
C210 C209 1.363 . S
C210 N212 1.375 . S
C210 H228 0.931 . S
C211 N208 1.311 . S
C211 N212 1.347 . S
C211 H222 0.929 . S
N212 C210 1.375 . S
N212 C211 1.347 . S
C213 C216 1.365 . S
C213 N218 1.328 . S
C213 H219 0.929 . S
C214 C215 1.362 . S
C214 C217 1.378 . S
C214 H229 0.929 . S
C215 C214 1.362 . S
C215 C216 1.366 . S
C216 C213 1.365 . S
C216 C215 1.366 . S
C216 H230 0.930 . S
C217 C214 1.378 . S
C217 N218 1.315 . S
C217 H220 0.930 . S
N218 Co198 2.194 . S
N218 C213 1.328 . S
N218 C217 1.315 . S
H219 C213 0.929 . S
H220 C217 0.930 . S
H221 C209 0.929 . S
H222 C211 0.929 . S
O223 Co198 2.351 . S
O223 C226 1.244 . S
O224 Co198 2.155 . S
O224 C226 1.240 . S
O225 Co198 2.096 . S
O225 C206 1.247 . S
C226 O223 1.244 . S
C226 O224 1.240 . S
H227 C201 0.931 . S
H228 C210 0.931 . S
H229 C214 0.929 . S
H230 C216 0.930 . S
Co231 N235 2.148 . S
Co231 N241 2.128 . S
Co231 N251 2.194 . S
Co231 O256 2.351 . S
Co231 O257 2.155 . S
Co231 O258 2.096 . S
C232 N235 1.301 . S
C232 N236 1.328 . S
C232 H237 0.930 . S
C233 C234 1.333 . S
C233 N235 1.317 . S
C233 H238 0.930 . S
C234 C233 1.333 . S
C234 N236 1.350 . S
C234 H260 0.931 . S
N235 Co231 2.148 . S
N235 C232 1.301 . S
N235 C233 1.317 . S
N236 C232 1.328 . S
N236 C234 1.350 . S
H237 C232 0.930 . S
H238 C233 0.930 . S
C239 O240 1.224 . S
C239 O258 1.247 . S
O240 C239 1.224 . S
N241 Co231 2.128 . S
N241 C242 1.355 . S
N241 C244 1.311 . S
C242 N241 1.355 . S
C242 C243 1.363 . S
C242 H254 0.929 . S
C243 C242 1.363 . S
C243 N245 1.375 . S
C243 H261 0.931 . S
C244 N241 1.311 . S
C244 N245 1.347 . S
C244 H255 0.929 . S
N245 C243 1.375 . S
N245 C244 1.347 . S
C246 C249 1.365 . S
C246 N251 1.328 . S
C246 H252 0.929 . S
C247 C248 1.362 . S
C247 C250 1.378 . S
C247 H262 0.929 . S
C248 C247 1.362 . S
C248 C249 1.366 . S
C249 C246 1.365 . S
C249 C248 1.366 . S
C249 H263 0.930 . S
C250 C247 1.378 . S
C250 N251 1.315 . S
C250 H253 0.930 . S
N251 Co231 2.194 . S
N251 C246 1.328 . S
N251 C250 1.315 . S
H252 C246 0.929 . S
H253 C250 0.930 . S
H254 C242 0.929 . S
H255 C244 0.929 . S
O256 Co231 2.351 . S
O256 C259 1.244 . S
O257 Co231 2.155 . S
O257 C259 1.240 . S
O258 Co231 2.096 . S
O258 C239 1.247 . S
C259 O256 1.244 . S
C259 O257 1.240 . S
H260 C234 0.931 . S
H261 C243 0.931 . S
H262 C247 0.929 . S
H263 C249 0.930 . S
Co264 N268 2.148 . S
Co264 N274 2.128 . S
Co264 N284 2.194 . S
Co264 O289 2.351 . S
Co264 O290 2.155 . S
Co264 O291 2.096 . S
C265 N268 1.301 . S
C265 N269 1.328 . S
C265 H270 0.930 . S
C266 C267 1.333 . S
C266 N268 1.317 . S
C266 H271 0.930 . S
C267 C266 1.333 . S
C267 N269 1.350 . S
C267 H293 0.931 . S
N268 Co264 2.148 . S
N268 C265 1.301 . S
N268 C266 1.317 . S
N269 C265 1.328 . S
N269 C267 1.350 . S
H270 C265 0.930 . S
H271 C266 0.930 . S
C272 O273 1.224 . S
C272 O291 1.247 . S
O273 C272 1.224 . S
N274 Co264 2.128 . S
N274 C275 1.355 . S
N274 C277 1.311 . S
C275 N274 1.355 . S
C275 C276 1.363 . S
C275 H287 0.929 . S
C276 C275 1.363 . S
C276 N278 1.375 . S
C276 H294 0.931 . S
C277 N274 1.311 . S
C277 N278 1.347 . S
C277 H288 0.929 . S
N278 C276 1.375 . S
N278 C277 1.347 . S
C279 C282 1.365 . S
C279 N284 1.328 . S
C279 H285 0.929 . S
C280 C281 1.362 . S
C280 C283 1.378 . S
C280 H295 0.929 . S
C281 C280 1.362 . S
C281 C282 1.366 . S
C282 C279 1.365 . S
C282 C281 1.366 . S
C282 H296 0.930 . S
C283 C280 1.378 . S
C283 N284 1.315 . S
C283 H286 0.930 . S
N284 Co264 2.194 . S
N284 C279 1.328 . S
N284 C283 1.315 . S
H285 C279 0.929 . S
H286 C283 0.930 . S
H287 C275 0.929 . S
H288 C277 0.929 . S
O289 Co264 2.351 . S
O289 C292 1.244 . S
O290 Co264 2.155 . S
O290 C292 1.240 . S
O291 Co264 2.096 . S
O291 C272 1.247 . S
C292 O289 1.244 . S
C292 O290 1.240 . S
H293 C267 0.931 . S
H294 C276 0.931 . S
H295 C280 0.929 . S
H296 C282 0.930 . S
Co297 N301 2.148 . S
Co297 N307 2.128 . S
Co297 N317 2.194 . S
Co297 O322 2.351 . S
Co297 O323 2.155 . S
Co297 O324 2.096 . S
C298 N301 1.301 . S
C298 N302 1.328 . S
C298 H303 0.930 . S
C299 C300 1.333 . S
C299 N301 1.317 . S
C299 H304 0.930 . S
C300 C299 1.333 . S
C300 N302 1.350 . S
C300 H326 0.931 . S
N301 Co297 2.148 . S
N301 C298 1.301 . S
N301 C299 1.317 . S
N302 C298 1.328 . S
N302 C300 1.350 . S
H303 C298 0.930 . S
H304 C299 0.930 . S
C305 O306 1.224 . S
C305 O324 1.247 . S
O306 C305 1.224 . S
N307 Co297 2.128 . S
N307 C308 1.355 . S
N307 C310 1.311 . S
C308 N307 1.355 . S
C308 C309 1.363 . S
C308 H320 0.929 . S
C309 C308 1.363 . S
C309 N311 1.375 . S
C309 H327 0.931 . S
C310 N307 1.311 . S
C310 N311 1.347 . S
C310 H321 0.929 . S
N311 C309 1.375 . S
N311 C310 1.347 . S
C312 C315 1.365 . S
C312 N317 1.328 . S
C312 H318 0.929 . S
C313 C314 1.362 . S
C313 C316 1.378 . S
C313 H328 0.929 . S
C314 C313 1.362 . S
C314 C315 1.366 . S
C315 C312 1.365 . S
C315 C314 1.366 . S
C315 H329 0.930 . S
C316 C313 1.378 . S
C316 N317 1.315 . S
C316 H319 0.930 . S
N317 Co297 2.194 . S
N317 C312 1.328 . S
N317 C316 1.315 . S
H318 C312 0.929 . S
H319 C316 0.930 . S
H320 C308 0.929 . S
H321 C310 0.929 . S
O322 Co297 2.351 . S
O322 C325 1.244 . S
O323 Co297 2.155 . S
O323 C325 1.240 . S
O324 Co297 2.096 . S
O324 C305 1.247 . S
C325 O322 1.244 . S
C325 O323 1.240 . S
H326 C300 0.931 . S
H327 C309 0.931 . S
H328 C313 0.929 . S
H329 C315 0.930 . S
Co330 N334 2.148 . S
Co330 N340 2.128 . S
Co330 N350 2.194 . S
Co330 O355 2.351 . S
Co330 O356 2.155 . S
Co330 O357 2.096 . S
C331 N334 1.301 . S
C331 N335 1.328 . S
C331 H336 0.930 . S
C332 C333 1.333 . S
C332 N334 1.317 . S
C332 H337 0.930 . S
C333 C332 1.333 . S
C333 N335 1.350 . S
C333 H359 0.931 . S
N334 Co330 2.148 . S
N334 C331 1.301 . S
N334 C332 1.317 . S
N335 C331 1.328 . S
N335 C333 1.350 . S
H336 C331 0.930 . S
H337 C332 0.930 . S
C338 O339 1.224 . S
C338 O357 1.247 . S
O339 C338 1.224 . S
N340 Co330 2.128 . S
N340 C341 1.355 . S
N340 C343 1.311 . S
C341 N340 1.355 . S
C341 C342 1.363 . S
C341 H353 0.929 . S
C342 C341 1.363 . S
C342 N344 1.375 . S
C342 H360 0.931 . S
C343 N340 1.311 . S
C343 N344 1.347 . S
C343 H354 0.929 . S
N344 C342 1.375 . S
N344 C343 1.347 . S
C345 C348 1.365 . S
C345 N350 1.328 . S
C345 H351 0.929 . S
C346 C347 1.362 . S
C346 C349 1.378 . S
C346 H361 0.929 . S
C347 C346 1.362 . S
C347 C348 1.366 . S
C348 C345 1.365 . S
C348 C347 1.366 . S
C348 H362 0.930 . S
C349 C346 1.378 . S
C349 N350 1.315 . S
C349 H352 0.930 . S
N350 Co330 2.194 . S
N350 C345 1.328 . S
N350 C349 1.315 . S
H351 C345 0.929 . S
H352 C349 0.930 . S
H353 C341 0.929 . S
H354 C343 0.929 . S
O355 Co330 2.351 . S
O355 C358 1.244 . S
O356 Co330 2.155 . S
O356 C358 1.240 . S
O357 Co330 2.096 . S
O357 C338 1.247 . S
C358 O355 1.244 . S
C358 O356 1.240 . S
H359 C333 0.931 . S
H360 C342 0.931 . S
H361 C346 0.929 . S
H362 C348 0.930 . S
Co363 N367 2.148 . S
Co363 N373 2.128 . S
Co363 N383 2.194 . S
Co363 O388 2.351 . S
Co363 O389 2.155 . S
Co363 O390 2.096 . S
C364 N367 1.301 . S
C364 N368 1.328 . S
C364 H369 0.930 . S
C365 C366 1.333 . S
C365 N367 1.317 . S
C365 H370 0.930 . S
C366 C365 1.333 . S
C366 N368 1.350 . S
C366 H392 0.931 . S
N367 Co363 2.148 . S
N367 C364 1.301 . S
N367 C365 1.317 . S
N368 C364 1.328 . S
N368 C366 1.350 . S
H369 C364 0.930 . S
H370 C365 0.930 . S
C371 O372 1.224 . S
C371 O390 1.247 . S
O372 C371 1.224 . S
N373 Co363 2.128 . S
N373 C374 1.355 . S
N373 C376 1.311 . S
C374 N373 1.355 . S
C374 C375 1.363 . S
C374 H386 0.929 . S
C375 C374 1.363 . S
C375 N377 1.375 . S
C375 H393 0.931 . S
C376 N373 1.311 . S
C376 N377 1.347 . S
C376 H387 0.929 . S
N377 C375 1.375 . S
N377 C376 1.347 . S
C378 C381 1.365 . S
C378 N383 1.328 . S
C378 H384 0.929 . S
C379 C380 1.362 . S
C379 C382 1.378 . S
C379 H394 0.929 . S
C380 C379 1.362 . S
C380 C381 1.366 . S
C381 C378 1.365 . S
C381 C380 1.366 . S
C381 H395 0.930 . S
C382 C379 1.378 . S
C382 N383 1.315 . S
C382 H385 0.930 . S
N383 Co363 2.194 . S
N383 C378 1.328 . S
N383 C382 1.315 . S
H384 C378 0.929 . S
H385 C382 0.930 . S
H386 C374 0.929 . S
H387 C376 0.929 . S
O388 Co363 2.351 . S
O388 C391 1.244 . S
O389 Co363 2.155 . S
O389 C391 1.240 . S
O390 Co363 2.096 . S
O390 C371 1.247 . S
C391 O388 1.244 . S
C391 O389 1.240 . S
H392 C366 0.931 . S
H393 C375 0.931 . S
H394 C379 0.929 . S
H395 C381 0.930 . S
C8 C206 3.249 1_554 S
C41 C239 3.250 . S
C74 C272 3.250 1_554 S
C305 C107 3.249 . S
C140 C338 3.250 1_554 S
C371 C173 3.250 . S
N302 N104 0.161 1_554 S
N137 N335 0.161 . S
N368 N170 0.161 1_554 S
N203 N5 0.161 . S
N236 N38 0.161 1_554 S
N71 N269 0.161 . S
N344 N14 0.528 1_556 S
N47 N377 0.528 . S
N80 N212 0.528 1_554 S
N113 N245 0.528 . S
N146 N278 0.528 1_554 S
N179 N311 0.528 . S
C127 C259 2.817 1_556 S
C160 C292 2.817 . S
C325 C193 2.817 1_554 S
C28 C358 2.817 . S
C391 C61 2.817 1_554 S
C94 C226 2.817 . S
C17 C314 1.444 . S
C347 C50 1.444 1_455 S
C380 C83 1.444 1_545 S
C215 C116 1.444 . S
C149 C248 1.444 1_455 S
C281 C182 1.444 1_565 S
