# Generated by pormake.
# Topology sxb, (6)-cn, num edge types: 1
# Building blocks:
#     Node 0, Type 0, BuildingBlock: JUFBIX_clean_sbu_0, # of connection points: 6
#     Node 1, Type 0, BuildingBlock: JUFBIX_clean_sbu_0, # of connection points: 6
#     Node 2, Type 0, BuildingBlock: JUFBIX_clean_sbu_0, # of connection points: 6
#     Node 3, Type 0, BuildingBlock: JUFBIX_clean_sbu_0, # of connection points: 6
#     Edge 4, Type (0, 0), BuildingBlock: ZUJKAS_clean_linker_0, # of connection points: 2
#     Edge 5, Type (0, 0), BuildingBlock: ZUJKAS_clean_linker_0, # of connection points: 2
#     Edge 6, Type (0, 0), BuildingBlock: ZUJKAS_clean_linker_0, # of connection points: 2
#     Edge 7, Type (0, 0), BuildingBlock: ZUJKAS_clean_linker_0, # of connection points: 2
#     Edge 8, Type (0, 0), BuildingBlock: ZUJKAS_clean_linker_0, # of connection points: 2
#     Edge 9, Type (0, 0), BuildingBlock: ZUJKAS_clean_linker_0, # of connection points: 2
#     Edge 10, Type (0, 0), BuildingBlock: ZUJKAS_clean_linker_0, # of connection points: 2
#     Edge 11, Type (0, 0), BuildingBlock: ZUJKAS_clean_linker_0, # of connection points: 2
#     Edge 12, Type (0, 0), BuildingBlock: ZUJKAS_clean_linker_0, # of connection points: 2
#     Edge 13, Type (0, 0), BuildingBlock: ZUJKAS_clean_linker_0, # of connection points: 2
#     Edge 14, Type (0, 0), BuildingBlock: ZUJKAS_clean_linker_0, # of connection points: 2
#     Edge 15, Type (0, 0), BuildingBlock: ZUJKAS_clean_linker_0, # of connection points: 2
# Relax obj value: 0.067
# Max RMSD: 0.087
# Mean RMSD: 0.087
data_MOF--net-sxb--node1-JUFBIX_clean_sbu_0--edge1-ZUJKAS_clean_linker_0
_symmetry_space_group_name_H-M    P1
_symmetry_Int_Tables_number       1
_symmetry_cell_setting            triclinic
loop_
_symmetry_equiv_pos_as_xyz
'x, y, z'
_cell_length_a     18.934549
_cell_length_b     44.151727
_cell_length_c     38.623064
_cell_angle_alpha  90.069513
_cell_angle_beta   96.12199
_cell_angle_gamma 90.004477
loop_
_atom_site_label
_atom_site_type_symbol
_atom_site_fract_x
_atom_site_fract_y
_atom_site_fract_z
_atom_type_partial_charge
Co0 Co 0.97134 1.01391 1.00733 0.0
C1 C 0.95366 0.04514 0.06858 0.0
Co2 Co 0.96605 0.06391 1.00165 0.0
C3 C 0.02488 0.95228 1.00522 0.0
C4 C 0.92751 0.95512 0.02854 0.0
N5 N 0.97477 0.9721 0.01341 0.0
N6 N 0.01071 0.92358 0.01464 0.0
C7 C 0.94928 0.92539 0.02927 0.0
H8 H 0.07088 0.95886 0.99261 0.0
H9 H 0.88077 0.9639 0.03893 0.0
C10 C -0.0166 1.03273 0.94049 0.0
N11 N 0.96256 0.10571 0.99558 0.0
C12 C 0.91305 0.12557 1.00434 0.0
C13 C 0.00894 0.12264 0.9798 0.0
N14 N 0.92671 0.15424 0.99463 0.0
C15 C -0.01278 0.15238 0.97923 0.0
C16 C 0.1009 0.04159 0.01864 0.0
O17 O -0.01536 1.0093 0.95963 0.0
O18 O 0.97531 0.05873 0.95368 0.0
O19 O 0.06536 0.06557 0.01153 0.0
O20 O 0.0694 1.01625 0.0186 0.0
O21 O 0.95631 0.06858 0.04967 0.0
H22 H 0.055 0.11383 0.96882 0.0
H23 H 0.86781 0.11903 0.01755 0.0
O24 O 0.95839 1.01907 0.05499 0.0
O25 O 0.87241 1.0121 0.99592 0.0
O26 O 0.86763 0.06167 0.99186 0.0
C27 C 0.83652 1.0362 0.99023 0.0
H28 H 0.92283 0.90672 0.04065 0.0
H29 H 0.01301 0.171 0.96743 0.0
Co30 Co -0.02135 1.01138 0.50188 0.0
C31 C 0.97323 0.04377 0.4397 0.0
Co32 Co -0.01155 0.06112 0.50826 0.0
C33 C 0.9246 0.94997 0.50547 0.0
C34 C 0.01377 0.95294 0.47595 0.0
N35 N 0.97224 0.96976 0.49475 0.0
N36 N 0.9348 0.92148 0.49409 0.0
C37 C -0.00891 0.92334 0.47558 0.0
H38 H 0.8831 0.95643 0.52125 0.0
H39 H 0.05697 0.96176 0.46275 0.0
C40 C -0.00561 1.02865 0.57031 0.0
N41 N -0.00504 0.10277 0.51563 0.0
C42 C 0.04003 0.12308 0.50366 0.0
C43 C 0.9557 0.11905 0.53611 0.0
N44 N 0.03018 0.15135 0.51584 0.0
C45 C -0.02305 0.14881 0.53619 0.0
C46 C 0.8516 0.03936 0.50449 0.0
O47 O -0.01905 1.00584 0.55061 0.0
O48 O 0.00175 0.05467 0.5571 0.0
O49 O 0.88974 0.06282 0.51001 0.0
O50 O 0.87978 1.01418 0.49834 0.0
O51 O 0.97571 0.06697 0.45936 0.0
H52 H 0.9151 0.10975 0.55071 0.0
H53 H 0.07949 0.11718 0.48648 0.0
O54 O 0.97599 1.01749 0.45325 0.0
O55 O 0.0785 1.00905 0.50608 0.0
O56 O 0.08637 0.05877 0.50691 0.0
C57 C 0.11577 1.03297 0.50733 0.0
H58 H 0.01308 0.90482 0.46179 0.0
H59 H 0.95633 0.16697 0.55105 0.0
Co60 Co 0.47275 0.51438 0.00993 0.0
C61 C 0.45862 0.54568 0.07147 0.0
Co62 Co 0.47013 0.56442 1.00438 0.0
C63 C 0.5244 0.45262 1.00698 0.0
C64 C 0.42872 0.45572 0.03168 0.0
N65 N 0.47522 0.47257 0.01588 0.0
N66 N 0.51048 0.42396 0.01666 0.0
C67 C 0.45009 0.42593 0.03214 0.0
H68 H 0.56965 0.45908 0.99374 0.0
H69 H 0.38289 0.46464 0.04277 0.0
C70 C 0.48431 0.53309 0.94283 0.0
N71 N 0.46771 0.60624 0.99838 0.0
C72 C 0.41811 0.62625 1.00672 0.0
C73 C 0.51488 0.62304 0.98296 0.0
N74 N 0.43245 0.65487 0.99708 0.0
C75 C 0.49353 0.65283 0.98219 0.0
C76 C 0.60381 0.54126 0.0208 0.0
O77 O 0.48262 0.5097 0.96191 0.0
O78 O 0.48004 0.5592 0.9564 0.0
O79 O 0.5692 0.56559 0.01449 0.0
O80 O 0.57137 0.51611 0.01996 0.0
O81 O 0.46029 0.5691 0.05243 0.0
H82 H 0.56117 0.61409 0.97231 0.0
H83 H 0.37222 0.61984 0.01953 0.0
O84 O 0.46283 0.51959 0.05787 0.0
O85 O 0.37379 0.51318 0.99987 0.0
O86 O 0.37141 0.56267 0.9944 0.0
C87 C 0.33904 0.53749 0.99369 0.0
H88 H 0.42418 0.40735 0.04396 0.0
H89 H 0.51993 0.67138 0.97055 0.0
Co90 Co 0.47494 0.51346 0.50439 0.0
C91 C 0.48778 0.54504 0.4429 0.0
Co92 Co 0.47685 0.56346 0.51014 0.0
C93 C 0.42456 0.45141 0.5065 0.0
C94 C 0.52016 0.4553 0.48187 0.0
N95 N 0.47334 0.4717 0.49802 0.0
N96 N 0.43901 0.42297 0.4962 0.0
C97 C 0.49936 0.42544 0.48076 0.0
H98 H 0.37913 0.4575 0.51982 0.0
H99 H 0.56572 0.46458 0.47089 0.0
C100 C 0.4639 0.53192 0.57163 0.0
N101 N 0.47865 0.60521 0.51638 0.0
C102 C 0.52727 0.62531 0.5073 0.0
C103 C 0.43247 0.62187 0.53265 0.0
N104 N 0.51341 0.65387 0.51734 0.0
C105 C 0.45355 0.65171 0.53323 0.0
C106 C 0.34365 0.53995 0.49409 0.0
O107 O 0.46571 0.50854 0.55247 0.0
O108 O 0.46752 0.55804 0.55809 0.0
O109 O 0.37805 0.56435 0.50031 0.0
O110 O 0.37631 0.51486 0.49468 0.0
O111 O 0.48614 0.56838 0.46211 0.0
H112 H 0.38712 0.6128 0.54398 0.0
H113 H 0.57213 0.61899 0.49368 0.0
O114 O 0.48414 0.5189 0.45639 0.0
O115 O 0.57385 0.5126 0.51424 0.0
O116 O 0.57537 0.56207 0.51996 0.0
C117 C 0.6081 0.537 0.52066 0.0
H118 H 0.52559 0.40717 0.4685 0.0
H119 H 0.42783 0.67018 0.5454 0.0
H120 H 0.28986 0.65814 1.0006 0.0
H121 H 0.21834 0.70412 1.00332 0.0
H122 H 0.40708 0.75875 1.00345 0.0
H123 H 0.47887 0.71302 1.00089 0.0
H124 H 0.22636 0.75079 0.05257 0.0
H125 H 0.27661 0.79483 0.92295 0.0
H126 H 0.2968 0.75636 0.93631 0.0
H127 H 0.35579 0.78669 0.95124 0.0
C128 C 0.31631 0.6799 1.0015 0.0
C129 C 0.3902 0.68182 1.00022 0.0
C130 C 0.27525 0.70619 1.00287 0.0
C131 C 0.30713 0.73492 1.00285 0.0
C132 C 0.38102 0.73688 1.00252 0.0
H133 H 0.15341 0.92051 0.01132 0.0
H134 H 0.22526 0.87463 0.00845 0.0
C135 C 0.42204 0.71066 1.00109 0.0
C136 C 0.26335 0.76283 1.00363 0.0
H137 H 0.21752 0.82791 0.95887 0.0
C138 C 0.22411 0.76758 0.032 0.0
C139 C 0.26062 0.78478 0.97681 0.0
C140 C 0.29915 0.78038 0.94493 0.0
C141 C 0.18326 0.79391 0.03462 0.0
C142 C 0.18053 0.81586 0.0078 0.0
C143 C 0.21979 0.81112 0.97944 0.0
C144 C 0.1366 0.84373 0.00856 0.0
C145 C 0.14465 0.7983 0.06648 0.0
C146 C 0.0627 0.84166 0.00873 0.0
C147 C 0.0215 0.86782 0.01024 0.0
C148 C 0.05318 0.89671 0.01138 0.0
C149 C 0.1271 0.89873 0.01024 0.0
C150 C 0.16833 0.87249 0.00878 0.0
H151 H 0.16708 0.78382 0.08845 0.0
H152 H 0.14702 0.82231 0.07512 0.0
H153 H 0.088 0.79202 0.06011 0.0
H154 H 0.03676 0.81977 0.00763 0.0
H155 H 0.96466 0.86538 0.01031 0.0
H156 H 0.46439 0.36572 0.01361 0.0
H157 H 0.53626 0.32005 0.01046 0.0
H158 H 0.72358 0.37498 1.0069 0.0
H159 H 0.6524 0.42082 0.01111 0.0
H160 H 0.62104 0.30148 0.95956 0.0
H161 H 0.78192 0.31663 0.08724 0.0
H162 H 0.70166 0.33784 0.075 0.0
H163 H 0.78326 0.34843 0.05837 0.0
C164 C 0.52095 0.36816 0.0125 0.0
C165 C 0.55256 0.39705 0.01295 0.0
C166 C 0.56192 0.34199 0.01046 0.0
C167 C 0.63548 0.34405 0.00904 0.0
C168 C 0.6671 0.37281 0.00865 0.0
H169 H 0.97249 0.21251 0.99776 0.0
H170 H 0.90037 0.25811 1.00078 0.0
C171 C 0.62612 0.39905 0.01065 0.0
C172 C 0.67876 0.31605 0.00773 0.0
H173 H 0.81556 0.27658 0.05153 0.0
C174 C 0.66341 0.29596 0.97972 0.0
C175 C 0.73399 0.30888 0.03408 0.0
C176 C 0.75098 0.3289 0.06556 0.0
C177 C 0.70262 0.26918 0.97701 0.0
C178 C 0.75785 0.262 1.00336 0.0
C179 C 0.77318 0.28209 0.03137 0.0
C180 C 0.80122 0.23403 1.00205 0.0
C181 C 0.6857 0.24917 0.94551 0.0
C182 C 0.76971 0.20524 1.00238 0.0
C183 C 0.81085 0.17904 1.00045 0.0
C184 C 0.88444 0.18111 0.99827 0.0
C185 C 0.91591 0.21002 0.99877 0.0
C186 C 0.8748 0.23615 1.00074 0.0
H187 H 0.65476 0.26145 0.92383 0.0
H188 H 0.73504 0.24025 0.93608 0.0
H189 H 0.65343 0.22963 0.95268 0.0
H190 H 0.71322 0.20302 1.00405 0.0
H191 H 0.78469 0.15723 0.99995 0.0
H192 H -0.01694 0.2092 0.51625 0.0
H193 H 0.05253 0.25531 0.5111 0.0
H194 H 0.23801 0.20137 0.49859 0.0
H195 H 0.16851 0.15509 0.50352 0.0
H196 H 0.16808 0.27415 0.55369 0.0
H197 H 0.23942 0.26095 0.41887 0.0
H198 H 0.1714 0.23838 0.43577 0.0
H199 H 0.26364 0.22907 0.4464 0.0
C200 C 0.03857 0.20713 0.51228 0.0
C201 C 0.07022 0.17843 0.51032 0.0
C202 C 0.07818 0.23352 0.50923 0.0
C203 C 0.15033 0.23187 0.50409 0.0
C204 C 0.18204 0.20326 0.50175 0.0
H205 H 0.48578 0.36483 0.49701 0.0
H206 H 0.41475 0.31887 0.49949 0.0
C207 C 0.14226 0.17679 0.5046 0.0
C208 C 0.19283 0.26012 0.50293 0.0
H209 H 0.29784 0.30034 0.45283 0.0
C210 C 0.19613 0.27996 0.53154 0.0
C211 C 0.2295 0.26768 0.47405 0.0
C212 C 0.22542 0.24807 0.44188 0.0
C213 C 0.23598 0.30684 0.53233 0.0
C214 C 0.27284 0.31433 0.50353 0.0
C215 C 0.2696 0.29453 0.47491 0.0
C216 C 0.3156 0.34248 0.50267 0.0
C217 C 0.23958 0.32668 0.56431 0.0
C218 C 0.28343 0.37109 0.50348 0.0
C219 C 0.32391 0.3975 0.50191 0.0
C220 C 0.3974 0.39583 0.49926 0.0
C221 C 0.42931 0.36706 0.49858 0.0
C222 C 0.38882 0.34071 0.50014 0.0
H223 H 0.223 0.31431 0.58713 0.0
H224 H 0.2942 0.33555 0.57109 0.0
H225 H 0.20338 0.34628 0.55903 0.0
H226 H 0.22673 0.37299 0.50476 0.0
H227 H 0.29725 0.41917 0.50191 0.0
H228 H 0.795 0.91921 0.50421 0.0
H229 H 0.72303 0.87369 0.50971 0.0
H230 H 0.90615 0.81776 0.49917 0.0
H231 H -0.02135 0.86304 0.49447 0.0
H232 H 0.69915 0.82635 0.46001 0.0
H233 H 0.82788 0.78335 0.58626 0.0
H234 H 0.839 0.8218 0.57188 0.0
H235 H 0.88832 0.79152 0.55468 0.0
C236 C 0.82025 0.89726 0.50366 0.0
C237 C 0.89272 0.89482 0.49894 0.0
C238 C 0.77892 0.87126 0.50656 0.0
C239 C 0.80939 0.84234 0.50522 0.0
C240 C 0.88174 0.83983 0.50081 0.0
H241 H 0.65482 0.65717 0.51069 0.0
H242 H 0.72555 0.70308 0.50606 0.0
C243 C 0.92298 0.86577 0.49777 0.0
C244 C 0.76508 0.81474 0.50699 0.0
H245 H 0.74697 0.75018 0.55392 0.0
C246 C 0.70923 0.80978 0.48066 0.0
C247 C 0.77867 0.79307 0.53383 0.0
C248 C 0.8363 0.79772 0.56347 0.0
C249 C 0.66744 0.78343 0.48006 0.0
C250 C 0.68099 0.76175 0.50692 0.0
C251 C 0.73677 0.76676 0.53329 0.0
C252 C 0.63736 0.73389 0.50843 0.0
C253 C 0.6103 0.77871 0.4502 0.0
C254 C 0.56431 0.73592 0.51142 0.0
C255 C 0.52362 0.70972 0.51381 0.0
C256 C 0.55516 0.68085 0.51353 0.0
C257 C 0.62845 0.67892 0.51047 0.0
C258 C 0.66913 0.70517 0.50809 0.0
H259 H 0.61958 0.79282 0.42731 0.0
H260 H 0.60726 0.75458 0.44203 0.0
H261 H 0.55818 0.78527 0.45859 0.0
H262 H 0.53882 0.75782 0.51237 0.0
H263 H 0.46736 0.71213 0.51584 0.0
H264 H 0.1856 0.09083 0.01289 0.0
H265 H 0.31363 0.09022 0.00915 0.0
H266 H 0.31888 0.9942 0.02973 0.0
H267 H 0.19124 0.99445 0.03383 0.0
H268 H 0.43651 1.03064 0.0637 0.0
H269 H 0.37978 0.04748 0.92051 0.0
H270 H 0.34061 0.0745 0.94765 0.0
H271 H 0.3126 1.03565 0.94748 0.0
C272 C 0.21425 0.06971 0.01735 0.0
C273 C 0.17855 0.04258 0.02302 0.0
C274 C 0.28704 0.06943 0.01508 0.0
C275 C 0.3244 0.04206 0.01848 0.0
C276 C 0.2901 1.01542 0.02681 0.0
H277 H 0.75249 0.98648 0.99405 0.0
H278 H 0.62416 0.98643 0.99696 0.0
C279 C 0.21739 1.01564 0.02908 0.0
C280 C 0.39795 0.04061 0.0105 0.0
H281 H 0.50054 0.0457 0.94347 0.0
C282 C 0.45082 1.03388 0.03749 0.0
C283 C 0.41523 0.04463 0.97611 0.0
C284 C 0.35916 0.05074 0.94613 0.0
C285 C 0.52177 1.03162 0.03103 0.0
C286 C 0.53907 1.03574 0.99666 0.0
C287 C 0.4862 0.0424 0.96966 0.0
C288 C 0.61274 1.03472 0.98884 0.0
C289 C 0.57787 1.02546 0.06099 0.0
C290 C 0.64682 0.06171 0.98155 0.0
C291 C 0.71971 0.06187 0.97984 0.0
C292 C 0.75892 1.03498 0.9854 0.0
C293 C 0.72352 1.00756 0.98999 0.0
C294 C 0.65055 1.00746 0.99173 0.0
H295 H 0.55699 1.02815 0.08663 0.0
H296 H 0.5974 1.00188 0.05904 0.0
H297 H 0.62384 0.04093 0.05997 0.0
H298 H 0.61769 0.08286 0.97907 0.0
H299 H 0.74565 0.08328 0.97589 0.0
H300 H 0.19352 0.99481 0.55062 0.0
H301 H 0.32257 0.99593 0.56539 0.0
H302 H 0.33832 0.06708 0.48981 0.0
H303 H 0.20925 0.06747 0.4771 0.0
H304 H 0.42537 0.98416 0.53165 0.0
H305 H 0.45502 0.10367 0.56937 0.0
H306 H 0.36901 0.08573 0.56283 0.0
H307 H 0.40804 0.10252 0.52669 0.0
C308 C 0.22505 1.01058 0.53725 0.0
C309 C 0.19264 1.03109 0.51285 0.0
C310 C 0.2983 1.01137 0.54583 0.0
C311 C 0.33961 1.03229 0.52954 0.0
C312 C 0.30709 0.05174 0.50387 0.0
H313 H 0.74241 1.01138 0.46651 0.0
H314 H 0.61941 1.00888 0.48009 0.0
C315 C 0.2338 0.05162 0.49614 0.0
C316 C 0.41727 1.03266 0.53739 0.0
H317 H 0.55682 0.08143 0.54357 0.0
C318 C 0.45429 1.00534 0.53519 0.0
C319 C 0.45522 0.06004 0.54359 0.0
C320 C 0.41945 0.08951 0.55121 0.0
C321 C 0.52807 1.00514 0.53552 0.0
C322 C 0.56459 1.03309 0.5361 0.0
C323 C 0.52844 0.06004 0.54188 0.0
C324 C 0.63835 1.0352 0.5277 0.0
C325 C 0.56551 0.97501 0.5345 0.0
C326 C 0.68818 0.05263 0.54854 0.0
C327 C 0.75718 0.05537 0.5397 0.0
C328 C 0.77722 0.04017 0.5104 0.0
C329 C 0.72744 1.02317 0.48924 0.0
C330 C 0.65787 1.02128 0.4974 0.0
H331 H 0.53805 0.95753 0.54883 0.0
H332 H 0.56407 0.96727 0.50709 0.0
H333 H 0.62169 0.97646 0.54603 0.0
H334 H 0.67395 0.06379 0.57181 0.0
H335 H 0.79561 0.06824 0.55657 0.0
H336 H 0.6924 0.4935 0.03587 0.0
H337 H 0.82097 0.49307 0.03471 0.0
H338 H 0.81851 0.58936 0.01557 0.0
H339 H 0.69007 0.5902 0.01705 0.0
H340 H 0.87554 0.51194 0.97253 0.0
H341 H -0.00802 0.57657 0.08847 0.0
H342 H 0.90448 0.55981 0.08569 0.0
H343 H 0.91834 0.59469 0.06349 0.0
C344 C 0.71942 0.51471 0.03222 0.0
C345 C 0.68142 0.54184 0.02609 0.0
C346 C 0.79264 0.51439 0.03165 0.0
C347 C 0.82844 0.54118 0.02517 0.0
C348 C 0.79139 0.56859 0.02113 0.0
H349 H 0.24976 0.58526 0.9799 0.0
H350 H 0.12154 0.58549 0.98245 0.0
C351 C 0.71814 0.56898 0.02177 0.0
C352 C 0.90252 0.53981 0.0179 0.0
H353 H 0.06788 0.56631 0.04467 0.0
C354 C 0.91791 0.5236 0.98838 0.0
C355 C 0.95664 0.55538 0.03859 0.0
C356 C 0.94238 0.57241 0.07101 0.0
C357 C -0.01324 0.52285 0.97862 0.0
C358 C 0.04088 0.53845 0.99928 0.0
C359 C 0.02552 0.55462 0.02884 0.0
C360 C 0.11482 0.53732 0.99174 0.0
C361 C 0.00091 0.50586 0.94614 0.0
C362 C 0.15213 0.50994 0.99519 0.0
C363 C 0.22512 0.50966 0.99369 0.0
C364 C 0.2614 0.53686 0.98911 0.0
C365 C 0.22308 0.56399 0.98367 0.0
C366 C 0.15009 0.5642 0.9851 0.0
H367 H 0.95127 0.50173 0.92871 0.0
H368 H 0.03875 0.51849 0.93145 0.0
H369 H 0.02494 0.48357 0.9536 0.0
H370 H 0.12544 0.4891 1.00086 0.0
H371 H 0.25343 0.48844 0.99793 0.0
H372 H 0.25775 0.58901 0.49738 0.0
H373 H 0.12999 0.58818 0.50132 0.0
H374 H 0.12695 0.49145 0.48523 0.0
H375 H 0.25485 0.49183 0.48155 0.0
H376 H 0.0106 0.56349 0.45559 0.0
H377 H 0.06218 0.50662 0.58446 0.0
H378 H 0.13116 0.52524 0.56355 0.0
H379 H 0.09967 0.48857 0.54887 0.0
C380 C 0.22971 0.56764 0.49404 0.0
C381 C 0.26611 0.54039 0.48985 0.0
C382 C 0.15701 0.56725 0.49627 0.0
C383 C 0.12044 0.53968 0.49428 0.0
C384 C 0.15538 0.51279 0.48738 0.0
H385 H 0.69469 0.48819 0.51708 0.0
H386 H 0.82306 0.48936 0.515 0.0
C387 C 0.2281 0.5131 0.48521 0.0
C388 C 0.04689 0.53881 0.50212 0.0
H389 H 0.94193 0.51432 0.56271 0.0
C390 C -0.00472 0.55283 0.47896 0.0
C391 C 0.02837 0.525 0.53287 0.0
C392 C 0.08321 0.51069 0.55909 0.0
C393 C 0.92424 0.55288 0.48548 0.0
C394 C 0.90567 0.53897 0.51616 0.0
C395 C 0.9573 0.52502 0.53937 0.0
C396 C 0.83193 0.53769 0.5236 0.0
C397 C 0.86942 0.56724 0.45929 0.0
C398 C 0.79634 0.56436 0.53072 0.0
C399 C 0.72329 0.56386 0.53177 0.0
C400 C 0.68561 0.53662 0.52578 0.0
C401 C 0.7225 0.50953 0.52143 0.0
C402 C 0.79555 0.5101 0.52031 0.0
H403 H 0.89075 0.57183 0.43411 0.0
H404 H 0.82198 0.55244 0.45436 0.0
H405 H 0.852 0.58908 0.46982 0.0
H406 H 0.82457 0.58571 0.53377 0.0
H407 H 0.69613 0.585 0.53563 0.0
H408 H 0.96595 0.99854 0.39142 0.0
H409 H 0.96023 1.00342 0.32832 0.0
H410 H 0.96304 0.10074 0.33787 0.0
H411 H 0.96827 0.09616 0.4014 0.0
H412 H 0.85884 0.07641 0.28467 0.0
H413 H 0.1294 1.03064 0.2763 0.0
H414 H 0.07481 1.0071 0.30044 0.0
H415 H 0.10026 0.04417 0.31658 0.0
C416 C 0.96536 1.02103 0.38021 0.0
C417 C 0.96807 0.04699 0.40145 0.0
C418 C 0.96233 1.02375 0.34415 0.0
C419 C 0.96234 0.05241 0.3286 0.0
C420 C 0.96343 0.07842 0.34953 0.0
H421 H 0.94816 0.0972 0.1069 0.0
H422 H 0.94736 0.10141 0.17011 0.0
C423 C 0.96652 0.07575 0.38574 0.0
C424 C 0.96143 0.05489 0.29044 0.0
H425 H 0.05367 1.03405 0.22309 0.0
C426 C 0.90168 0.06752 0.27111 0.0
C427 C 0.01764 0.04332 0.27303 0.0
C428 C 0.0845 1.03079 0.29263 0.0
C429 C 0.89534 0.06766 0.23455 0.0
C430 C 0.95062 0.05519 0.21718 0.0
C431 C 0.0112 0.0434 0.23658 0.0
C432 C 0.94601 0.05303 0.17884 0.0
C433 C 0.82862 0.08006 0.21475 0.0
C434 C 0.9458 1.02445 0.16299 0.0
C435 C 0.94658 1.02194 0.12705 0.0
C436 C 0.94803 0.04802 0.10629 0.0
C437 C 0.94692 0.07668 0.12218 0.0
C438 C 0.94611 0.07915 0.15823 0.0
H439 H 0.78563 0.08347 0.23183 0.0
H440 H 0.84053 0.10225 0.20321 0.0
H441 H 0.80906 0.06459 0.19314 0.0
H442 H 0.94592 1.00404 0.17855 0.0
H443 H 0.94729 0.99952 0.11565 0.0
H444 H 0.91223 0.06573 0.88922 0.0
H445 H 0.9177 0.06112 0.82661 0.0
H446 H 0.07546 0.99061 0.8448 0.0
H447 H 0.06564 0.99368 0.90751 0.0
H448 H 0.0152 0.07197 0.78942 0.0
H449 H 0.95084 0.95034 0.77088 0.0
H450 H 0.9431 0.96958 0.81146 0.0
H451 H 0.02817 0.95592 0.80119 0.0
C452 C 0.94753 0.04906 0.87973 0.0
C453 C -0.01178 1.02992 0.90293 0.0
C454 C 0.95076 0.04643 0.84398 0.0
C455 C -0.00387 1.02515 0.83075 0.0
C456 C 0.03819 1.00646 0.85413 0.0
H457 H 0.09609 0.05234 0.6171 0.0
H458 H 0.10324 0.04915 0.68064 0.0
C459 C 0.03315 1.00841 0.88993 0.0
C460 C 0.00082 1.02366 0.79263 0.0
H461 H -0.00693 0.97576 0.72287 0.0
C462 C 0.00981 0.0509 0.77488 0.0
C463 C -0.00692 0.99626 0.77347 0.0
C464 C -0.0225 0.96645 0.79019 0.0
C465 C 0.00996 0.05169 0.73864 0.0
C466 C 0.00547 1.02416 0.71965 0.0
C467 C -0.00262 0.99683 0.73741 0.0
C468 C 0.00593 1.02337 0.68124 0.0
C469 C 0.01176 0.08225 0.72118 0.0
C470 C 0.95184 1.00807 0.66035 0.0
C471 C 0.94962 1.00875 0.62409 0.0
C472 C 0.00049 1.02531 0.60825 0.0
C473 C 0.05569 0.03984 0.62896 0.0
C474 C 0.05934 0.03827 0.66519 0.0
H475 H -0.0085 0.10041 0.73745 0.0
H476 H 0.06746 0.08801 0.71741 0.0
H477 H -0.02053 0.08233 0.69545 0.0
H478 H 0.91025 0.99624 0.67206 0.0
H479 H 0.90659 0.9974 0.60844 0.0
H480 H 0.48994 0.49965 0.39509 0.0
H481 H 0.48407 0.50445 0.3319 0.0
H482 H 0.48239 0.60178 0.34127 0.0
H483 H 0.48884 0.59727 0.40473 0.0
H484 H 0.37231 0.53443 0.28962 0.0
H485 H 0.63777 0.58444 0.27583 0.0
H486 H 0.61789 0.56538 0.315 0.0
H487 H 0.58552 0.60304 0.3058 0.0
C488 C 0.48911 0.52211 0.38381 0.0
C489 C 0.48978 0.54809 0.40493 0.0
C490 C 0.48564 0.52479 0.3477 0.0
C491 C 0.48323 0.55344 0.33204 0.0
C492 C 0.48521 0.57947 0.35297 0.0
H493 H 0.45799 0.59775 0.11012 0.0
H494 H 0.45816 0.60194 0.17342 0.0
C495 C 0.48865 0.57683 0.38918 0.0
C496 C 0.47511 0.5558 0.29367 0.0
H497 H 0.56052 0.57758 0.22433 0.0
C498 C 0.41329 0.54396 0.27531 0.0
C499 C 0.52847 0.56849 0.27523 0.0
C500 C 0.59648 0.58091 0.29383 0.0
C501 C 0.40376 0.54409 0.23883 0.0
C502 C 0.45809 0.55589 0.22034 0.0
C503 C 0.51903 0.56855 0.23868 0.0
C504 C 0.45464 0.55358 0.18202 0.0
C505 C 0.33566 0.53158 0.22041 0.0
C506 C 0.45288 0.52501 0.16606 0.0
C507 C 0.45273 0.52252 0.13007 0.0
C508 C 0.45482 0.54859 0.10934 0.0
C509 C 0.4561 0.57724 0.12537 0.0
C510 C 0.45634 0.57969 0.16148 0.0
H511 H 0.29209 0.53183 0.23754 0.0
H512 H 0.31853 0.54469 0.19646 0.0
H513 H 0.34432 0.50773 0.21281 0.0
H514 H 0.45297 0.50457 0.18156 0.0
H515 H 0.45205 0.50011 0.11858 0.0
H516 H 0.46314 0.47981 0.61008 0.0
H517 H 0.46812 0.47558 0.67355 0.0
H518 H 0.46456 0.57294 0.68226 0.0
H519 H 0.46016 0.57746 0.61911 0.0
H520 H 0.57567 0.54353 0.72545 0.0
H521 H 0.31031 0.49277 0.73768 0.0
H522 H 0.36394 0.47419 0.7083 0.0
H523 H 0.33106 0.51168 0.69857 0.0
C524 C 0.46265 0.50031 0.62549 0.0
C525 C 0.46138 0.52897 0.60958 0.0
C526 C 0.46525 0.49783 0.6617 0.0
C527 C 0.46623 0.52395 0.68245 0.0
C528 C 0.46377 0.55253 0.66661 0.0
H529 H 0.49039 0.57854 0.89549 0.0
H530 H 0.49081 0.57382 0.83258 0.0
C531 C 0.46114 0.55504 0.63051 0.0
C532 C 0.47325 0.52181 0.72083 0.0
H533 H 0.38587 0.50026 0.78961 0.0
C534 C 0.53434 0.53397 0.73952 0.0
C535 C 0.41943 0.50909 0.73896 0.0
C536 C 0.35215 0.49634 0.71999 0.0
C537 C 0.54269 0.53414 0.77601 0.0
C538 C 0.4879 0.52231 0.79417 0.0
C539 C 0.4277 0.50933 0.77551 0.0
C540 C 0.49019 0.52481 0.83243 0.0
C541 C 0.61007 0.54699 0.79479 0.0
C542 C 0.48858 0.49878 0.8531 0.0
C543 C 0.48805 0.50137 0.88915 0.0
C544 C 0.48849 0.53009 0.90501 0.0
C545 C 0.49036 0.55609 0.88415 0.0
C546 C 0.49097 0.55345 0.84819 0.0
H547 H 0.65422 0.54683 0.77801 0.0
H548 H 0.60063 0.57083 0.80216 0.0
H549 H 0.62679 0.53405 0.81892 0.0
H550 H 0.48752 0.47648 0.84131 0.0
H551 H 0.48637 0.48092 0.9045 0.0
loop_
_geom_bond_atom_site_label_1
_geom_bond_atom_site_label_2
_geom_bond_distance
_geom_bond_site_symmetry_2
_ccdc_geom_bond_type
Co0 N5 2.057 1_556 S
Co0 O17 2.021 . S
Co0 O20 2.062 . S
Co0 O24 2.117 1_556 S
Co0 O25 2.020 1_455 S
C1 O21 1.259 1_455 S
C1 O24 1.258 1_545 S
Co2 N11 2.057 1_554 S
Co2 O18 2.117 1_554 S
Co2 O19 2.020 1_655 S
Co2 O21 2.021 . S
Co2 O26 2.062 . S
C3 N5 1.316 1_556 S
C3 N6 1.347 1_556 S
C3 H8 0.931 . S
C4 N5 1.375 . S
C4 C7 1.350 . S
C4 H9 0.930 . S
N5 Co0 2.057 1_554 S
N5 C3 1.316 1_554 S
N5 C4 1.375 . S
N6 C3 1.347 1_554 S
N6 C7 1.373 . S
C7 C4 1.350 . S
C7 N6 1.373 . S
C7 H28 0.931 . S
H8 C3 0.931 . S
H9 C4 0.930 . S
C10 O17 1.259 1_655 S
C10 O18 1.258 1_565 S
N11 Co2 2.057 1_556 S
N11 C12 1.316 1_556 S
N11 C13 1.375 . S
C12 N11 1.316 1_554 S
C12 N14 1.347 1_554 S
C12 H23 0.931 . S
C13 N11 1.375 . S
C13 C15 1.350 . S
C13 H22 0.930 . S
N14 C12 1.347 1_556 S
N14 C15 1.373 . S
C15 C13 1.350 . S
C15 N14 1.373 . S
C15 H29 0.931 . S
C16 O19 1.257 . S
C16 O20 1.254 1_544 S
O17 Co0 2.021 . S
O17 C10 1.259 1_455 S
O18 Co2 2.117 1_556 S
O18 C10 1.258 1_545 S
O19 Co2 2.020 1_455 S
O19 C16 1.257 . S
O20 Co0 2.062 . S
O20 C16 1.254 1_566 S
O21 C1 1.259 1_655 S
O21 Co2 2.021 . S
H22 C13 0.930 . S
H23 C12 0.931 . S
O24 Co0 2.117 1_554 S
O24 C1 1.258 1_565 S
O25 Co0 2.020 1_655 S
O25 C27 1.256 . S
O26 Co2 2.062 . S
O26 C27 1.254 1_544 S
C27 O25 1.256 . S
C27 O26 1.254 1_566 S
H28 C7 0.931 . S
H29 C15 0.931 . S
Co30 N35 2.057 . S
Co30 O47 2.021 . S
Co30 O50 2.062 . S
Co30 O54 2.117 . S
Co30 O55 2.020 1_655 S
C31 O51 1.259 1_655 S
C31 O54 1.258 1_545 S
Co32 N41 2.057 . S
Co32 O48 2.117 . S
Co32 O49 2.020 1_455 S
Co32 O51 2.021 . S
Co32 O56 2.062 . S
C33 N35 1.316 . S
C33 N36 1.347 . S
C33 H38 0.931 . S
C34 N35 1.375 . S
C34 C37 1.350 . S
C34 H39 0.930 . S
N35 Co30 2.057 . S
N35 C33 1.316 . S
N35 C34 1.375 . S
N36 C33 1.347 . S
N36 C37 1.373 . S
C37 C34 1.350 . S
C37 N36 1.373 . S
C37 H58 0.931 . S
H38 C33 0.931 . S
H39 C34 0.930 . S
C40 O47 1.259 1_455 S
C40 O48 1.258 1_565 S
N41 Co32 2.057 . S
N41 C42 1.316 . S
N41 C43 1.375 . S
C42 N41 1.316 . S
C42 N44 1.347 . S
C42 H53 0.931 . S
C43 N41 1.375 . S
C43 C45 1.350 . S
C43 H52 0.930 . S
N44 C42 1.347 . S
N44 C45 1.373 . S
C45 C43 1.350 . S
C45 N44 1.373 . S
C45 H59 0.931 . S
C46 O49 1.256 . S
C46 O50 1.255 1_545 S
O47 Co30 2.021 . S
O47 C40 1.259 1_655 S
O48 Co32 2.117 . S
O48 C40 1.258 1_545 S
O49 Co32 2.020 1_655 S
O49 C46 1.256 . S
O50 Co30 2.062 . S
O50 C46 1.255 1_565 S
O51 C31 1.259 1_455 S
O51 Co32 2.021 . S
H52 C43 0.930 . S
H53 C42 0.931 . S
O54 Co30 2.117 . S
O54 C31 1.258 1_565 S
O55 Co30 2.020 1_455 S
O55 C57 1.256 . S
O56 Co32 2.062 . S
O56 C57 1.255 1_545 S
C57 O55 1.256 . S
C57 O56 1.255 1_565 S
H58 C37 0.931 . S
H59 C45 0.931 . S
Co60 N65 2.057 1_556 S
Co60 O77 2.021 . S
Co60 O80 2.062 . S
Co60 O84 2.117 1_556 S
Co60 O85 2.020 . S
C61 O81 1.259 . S
C61 O84 1.258 . S
Co62 N71 2.057 1_554 S
Co62 O78 2.117 1_554 S
Co62 O79 2.020 . S
Co62 O81 2.021 . S
Co62 O86 2.062 . S
C63 N65 1.316 1_556 S
C63 N66 1.347 1_556 S
C63 H68 0.931 . S
C64 N65 1.375 . S
C64 C67 1.350 . S
C64 H69 0.930 . S
N65 Co60 2.057 1_554 S
N65 C63 1.316 1_554 S
N65 C64 1.375 . S
N66 C63 1.347 1_554 S
N66 C67 1.373 . S
C67 C64 1.350 . S
C67 N66 1.373 . S
C67 H88 0.931 . S
H68 C63 0.931 . S
H69 C64 0.930 . S
C70 O77 1.259 . S
C70 O78 1.258 . S
N71 Co62 2.057 1_556 S
N71 C72 1.316 1_556 S
N71 C73 1.375 . S
C72 N71 1.316 1_554 S
C72 N74 1.347 1_554 S
C72 H83 0.931 . S
C73 N71 1.375 . S
C73 C75 1.350 . S
C73 H82 0.930 . S
N74 C72 1.347 1_556 S
N74 C75 1.373 . S
C75 C73 1.350 . S
C75 N74 1.373 . S
C75 H89 0.931 . S
C76 O79 1.257 . S
C76 O80 1.254 1_554 S
O77 Co60 2.021 . S
O77 C70 1.259 . S
O78 Co62 2.117 1_556 S
O78 C70 1.258 . S
O79 Co62 2.020 . S
O79 C76 1.257 . S
O80 Co60 2.062 . S
O80 C76 1.254 1_556 S
O81 C61 1.259 . S
O81 Co62 2.021 . S
H82 C73 0.930 . S
H83 C72 0.931 . S
O84 Co60 2.117 1_554 S
O84 C61 1.258 . S
O85 Co60 2.020 . S
O85 C87 1.256 . S
O86 Co62 2.062 . S
O86 C87 1.254 1_554 S
C87 O85 1.256 . S
C87 O86 1.254 1_556 S
H88 C67 0.931 . S
H89 C75 0.931 . S
Co90 N95 2.057 . S
Co90 O107 2.021 . S
Co90 O110 2.062 . S
Co90 O114 2.117 . S
Co90 O115 2.020 . S
C91 O111 1.259 . S
C91 O114 1.258 . S
Co92 N101 2.057 . S
Co92 O108 2.117 . S
Co92 O109 2.020 . S
Co92 O111 2.021 . S
Co92 O116 2.062 . S
C93 N95 1.316 . S
C93 N96 1.347 . S
C93 H98 0.931 . S
C94 N95 1.375 . S
C94 C97 1.350 . S
C94 H99 0.930 . S
N95 Co90 2.057 . S
N95 C93 1.316 . S
N95 C94 1.375 . S
N96 C93 1.347 . S
N96 C97 1.373 . S
C97 C94 1.350 . S
C97 N96 1.373 . S
C97 H118 0.931 . S
H98 C93 0.931 . S
H99 C94 0.930 . S
C100 O107 1.259 . S
C100 O108 1.258 . S
N101 Co92 2.057 . S
N101 C102 1.316 . S
N101 C103 1.375 . S
C102 N101 1.316 . S
C102 N104 1.347 . S
C102 H113 0.931 . S
C103 N101 1.375 . S
C103 C105 1.350 . S
C103 H112 0.930 . S
N104 C102 1.347 . S
N104 C105 1.373 . S
C105 C103 1.350 . S
C105 N104 1.373 . S
C105 H119 0.931 . S
C106 O109 1.256 . S
C106 O110 1.255 . S
O107 Co90 2.021 . S
O107 C100 1.259 . S
O108 Co92 2.117 . S
O108 C100 1.258 . S
O109 Co92 2.020 . S
O109 C106 1.256 . S
O110 Co90 2.062 . S
O110 C106 1.255 . S
O111 C91 1.259 . S
O111 Co92 2.021 . S
H112 C103 0.930 . S
H113 C102 0.931 . S
O114 Co90 2.117 . S
O114 C91 1.258 . S
O115 Co90 2.020 . S
O115 C117 1.256 . S
O116 Co92 2.062 . S
O116 C117 1.255 . S
C117 O115 1.256 . S
C117 O116 1.255 . S
H118 C97 0.931 . S
H119 C105 0.931 . S
H120 C128 0.929 . S
H121 C130 0.930 . S
H122 C132 0.930 . S
H123 C135 0.929 . S
H124 C138 0.930 . S
H125 C140 0.960 . S
H126 C140 0.960 . S
H127 C140 0.960 . S
C128 H120 0.929 . S
C128 C129 1.377 1_556 S
C128 C130 1.384 . S
C129 C128 1.377 1_554 S
C129 C135 1.390 . S
C130 H121 0.930 . S
C130 C128 1.384 . S
C130 C131 1.372 1_556 S
C131 C130 1.372 1_554 S
C131 C132 1.400 . S
C131 C136 1.490 . S
C132 H122 0.930 . S
C132 C131 1.400 . S
C132 C135 1.386 . S
H133 C149 0.930 . S
H134 C150 0.931 . S
C135 H123 0.929 . S
C135 C129 1.390 . S
C135 C132 1.386 . S
C136 C131 1.490 . S
C136 C138 1.397 . S
C136 C139 1.401 1_554 S
H137 C143 0.930 . S
C138 H124 0.930 . S
C138 C136 1.397 . S
C138 C141 1.403 . S
C139 C136 1.401 1_556 S
C139 C140 1.524 . S
C139 C143 1.400 . S
C140 H125 0.960 . S
C140 H126 0.960 . S
C140 H127 0.960 . S
C140 C139 1.524 . S
C141 C138 1.403 . S
C141 C142 1.392 . S
C141 C145 1.495 . S
C142 C141 1.392 . S
C142 C143 1.385 1_554 S
C142 C144 1.478 . S
C143 H137 0.930 . S
C143 C139 1.400 . S
C143 C142 1.385 1_556 S
C144 C142 1.478 . S
C144 C146 1.381 1_554 S
C144 C150 1.383 . S
C145 C141 1.495 . S
C145 H151 0.959 . S
C145 H152 0.961 . S
C145 H153 0.960 . S
C146 C144 1.381 1_556 S
C146 C147 1.394 . S
C146 H154 0.930 . S
C147 C146 1.394 . S
C147 C148 1.392 . S
C147 H155 0.929 . S
C148 C147 1.392 . S
C148 C149 1.368 1_556 S
C149 H133 0.930 . S
C149 C148 1.368 1_554 S
C149 C150 1.379 . S
C150 H134 0.931 . S
C150 C144 1.383 . S
C150 C149 1.379 . S
H151 C145 0.959 . S
H152 C145 0.961 . S
H153 C145 0.960 . S
H154 C146 0.930 . S
H155 C147 0.929 . S
H156 C164 0.929 . S
H157 C166 0.930 . S
H158 C168 0.930 . S
H159 C171 0.929 . S
H160 C174 0.930 . S
H161 C176 0.960 . S
H162 C176 0.960 . S
H163 C176 0.960 . S
C164 H156 0.929 . S
C164 C165 1.377 1_554 S
C164 C166 1.384 . S
C165 C164 1.377 1_556 S
C165 C171 1.390 . S
C166 H157 0.930 . S
C166 C164 1.384 . S
C166 C167 1.369 1_554 S
C167 C166 1.369 1_556 S
C167 C168 1.402 . S
C167 C172 1.489 . S
C168 H158 0.930 . S
C168 C167 1.402 . S
C168 C171 1.386 . S
H169 C185 0.930 . S
H170 C186 0.931 . S
C171 H159 0.929 . S
C171 C165 1.390 . S
C171 C168 1.386 . S
C172 C167 1.489 . S
C172 C174 1.414 . S
C172 C175 1.385 1_556 S
H173 C179 0.930 . S
C174 H160 0.930 . S
C174 C172 1.414 . S
C174 C177 1.403 . S
C175 C172 1.385 1_554 S
C175 C176 1.524 . S
C175 C179 1.400 . S
C176 H161 0.960 . S
C176 H162 0.960 . S
C176 H163 0.960 . S
C176 C175 1.524 . S
C177 C174 1.403 . S
C177 C178 1.392 . S
C177 C181 1.495 . S
C178 C177 1.392 . S
C178 C179 1.385 1_556 S
C178 C180 1.478 . S
C179 H173 0.930 . S
C179 C175 1.400 . S
C179 C178 1.385 1_554 S
C180 C178 1.478 . S
C180 C182 1.381 1_556 S
C180 C186 1.383 . S
C181 C177 1.495 . S
C181 H187 0.959 . S
C181 H188 0.961 . S
C181 H189 0.960 . S
C182 C180 1.381 1_554 S
C182 C183 1.394 . S
C182 H190 0.930 . S
C183 C182 1.394 . S
C183 C184 1.385 . S
C183 H191 0.929 . S
C184 C183 1.385 . S
C184 C185 1.374 1_554 S
C185 H169 0.930 . S
C185 C184 1.374 1_556 S
C185 C186 1.379 . S
C186 H170 0.931 . S
C186 C180 1.383 . S
C186 C185 1.379 . S
H187 C181 0.959 . S
H188 C181 0.961 . S
H189 C181 0.960 . S
H190 C182 0.930 . S
H191 C183 0.929 . S
H192 C200 0.929 . S
H193 C202 0.930 . S
H194 C204 0.930 . S
H195 C207 0.929 . S
H196 C210 0.930 . S
H197 C212 0.960 . S
H198 C212 0.960 . S
H199 C212 0.960 . S
C200 H192 0.929 . S
C200 C201 1.377 . S
C200 C202 1.384 . S
C201 C200 1.377 . S
C201 C207 1.390 . S
C202 H193 0.930 . S
C202 C200 1.384 . S
C202 C203 1.372 . S
C203 C202 1.372 . S
C203 C204 1.400 . S
C203 C208 1.490 . S
C204 H194 0.930 . S
C204 C203 1.400 . S
C204 C207 1.386 . S
H205 C221 0.930 . S
H206 C222 0.931 . S
C207 H195 0.929 . S
C207 C201 1.390 . S
C207 C204 1.386 . S
C208 C203 1.490 . S
C208 C210 1.395 . S
C208 C211 1.403 . S
H209 C215 0.930 . S
C210 H196 0.930 . S
C210 C208 1.395 . S
C210 C213 1.403 . S
C211 C208 1.403 . S
C211 C212 1.524 . S
C211 C215 1.400 . S
C212 H197 0.960 . S
C212 H198 0.960 . S
C212 H199 0.960 . S
C212 C211 1.524 . S
C213 C210 1.403 . S
C213 C214 1.392 . S
C213 C217 1.495 . S
C214 C213 1.392 . S
C214 C215 1.385 . S
C214 C216 1.478 . S
C215 H209 0.930 . S
C215 C211 1.400 . S
C215 C214 1.385 . S
C216 C214 1.478 . S
C216 C218 1.381 . S
C216 C222 1.383 . S
C217 C213 1.495 . S
C217 H223 0.959 . S
C217 H224 0.961 . S
C217 H225 0.960 . S
C218 C216 1.381 . S
C218 C219 1.394 . S
C218 H226 0.930 . S
C219 C218 1.394 . S
C219 C220 1.383 . S
C219 H227 0.929 . S
C220 C219 1.383 . S
C220 C221 1.377 . S
C221 H205 0.930 . S
C221 C220 1.377 . S
C221 C222 1.379 . S
C222 H206 0.931 . S
C222 C216 1.383 . S
C222 C221 1.379 . S
H223 C217 0.959 . S
H224 C217 0.961 . S
H225 C217 0.960 . S
H226 C218 0.930 . S
H227 C219 0.929 . S
H228 C236 0.929 . S
H229 C238 0.930 . S
H230 C240 0.930 . S
H231 C243 0.929 . S
H232 C246 0.930 . S
H233 C248 0.960 . S
H234 C248 0.960 . S
H235 C248 0.960 . S
C236 H228 0.929 . S
C236 C237 1.377 . S
C236 C238 1.384 . S
C237 C236 1.377 . S
C237 C243 1.390 . S
C238 H229 0.930 . S
C238 C236 1.384 . S
C238 C239 1.372 . S
C239 C238 1.372 . S
C239 C240 1.400 . S
C239 C244 1.490 . S
C240 H230 0.930 . S
C240 C239 1.400 . S
C240 C243 1.386 . S
H241 C257 0.930 . S
H242 C258 0.931 . S
C243 H231 0.929 . S
C243 C237 1.390 . S
C243 C240 1.386 . S
C244 C239 1.490 . S
C244 C246 1.395 . S
C244 C247 1.403 . S
H245 C251 0.930 . S
C246 H232 0.930 . S
C246 C244 1.395 . S
C246 C249 1.403 . S
C247 C244 1.403 . S
C247 C248 1.524 . S
C247 C251 1.400 . S
C248 H233 0.960 . S
C248 H234 0.960 . S
C248 H235 0.960 . S
C248 C247 1.524 . S
C249 C246 1.403 . S
C249 C250 1.392 . S
C249 C253 1.495 . S
C250 C249 1.392 . S
C250 C251 1.385 . S
C250 C252 1.478 . S
C251 H245 0.930 . S
C251 C247 1.400 . S
C251 C250 1.385 . S
C252 C250 1.478 . S
C252 C254 1.381 . S
C252 C258 1.383 . S
C253 C249 1.495 . S
C253 H259 0.959 . S
C253 H260 0.961 . S
C253 H261 0.960 . S
C254 C252 1.381 . S
C254 C255 1.394 . S
C254 H262 0.930 . S
C255 C254 1.394 . S
C255 C256 1.383 . S
C255 H263 0.929 . S
C256 C255 1.383 . S
C256 C257 1.377 . S
C257 H241 0.930 . S
C257 C256 1.377 . S
C257 C258 1.379 . S
C258 H242 0.931 . S
C258 C252 1.383 . S
C258 C257 1.379 . S
H259 C253 0.959 . S
H260 C253 0.961 . S
H261 C253 0.960 . S
H262 C254 0.930 . S
H263 C255 0.929 . S
H264 C272 0.929 . S
H265 C274 0.930 . S
H266 C276 0.930 . S
H267 C279 0.929 . S
H268 C282 0.930 . S
H269 C284 0.960 . S
H270 C284 0.960 . S
H271 C284 0.960 . S
C272 H264 0.929 . S
C272 C273 1.374 1_556 S
C272 C274 1.384 . S
C273 C272 1.374 1_554 S
C273 C279 1.391 1_545 S
C274 H265 0.930 . S
C274 C272 1.384 . S
C274 C275 1.372 1_556 S
C275 C274 1.372 1_554 S
C275 C276 1.399 1_545 S
C275 C280 1.492 . S
C276 H266 0.930 . S
C276 C275 1.399 1_565 S
C276 C279 1.386 . S
H277 C293 0.930 . S
H278 C294 0.931 . S
C279 H267 0.929 . S
C279 C273 1.391 1_565 S
C279 C276 1.386 . S
C280 C275 1.492 . S
C280 C282 1.413 . S
C280 C283 1.383 1_544 S
H281 C287 0.930 . S
C282 H268 0.930 . S
C282 C280 1.413 . S
C282 C285 1.403 . S
C283 C280 1.383 1_566 S
C283 C284 1.524 . S
C283 C287 1.400 . S
C284 H269 0.960 . S
C284 H270 0.960 . S
C284 H271 0.960 . S
C284 C283 1.524 . S
C285 C282 1.403 . S
C285 C286 1.392 . S
C285 C289 1.495 . S
C286 C285 1.392 . S
C286 C287 1.385 1_544 S
C286 C288 1.477 1_545 S
C287 H281 0.930 . S
C287 C283 1.400 . S
C287 C286 1.385 1_566 S
C288 C286 1.477 1_565 S
C288 C290 1.378 1_564 S
C288 C294 1.386 . S
C289 C285 1.495 . S
C289 H295 0.959 . S
C289 H296 0.961 . S
C289 H297 0.960 . S
C290 C288 1.378 1_546 S
C290 C291 1.394 . S
C290 H298 0.930 . S
C291 C290 1.394 . S
C291 C292 1.383 1_546 S
C291 H299 0.929 . S
C292 C291 1.383 1_564 S
C292 C293 1.377 . S
C293 H277 0.930 . S
C293 C292 1.377 . S
C293 C294 1.379 . S
C294 H278 0.931 . S
C294 C288 1.386 . S
C294 C293 1.379 . S
H295 C289 0.959 . S
H296 C289 0.961 . S
H297 C289 0.960 . S
H298 C290 0.930 . S
H299 C291 0.929 . S
H300 C308 0.929 . S
H301 C310 0.930 . S
H302 C312 0.930 . S
H303 C315 0.929 . S
H304 C318 0.930 . S
H305 C320 0.960 . S
H306 C320 0.960 . S
H307 C320 0.960 . S
C308 H300 0.929 . S
C308 C309 1.377 . S
C308 C310 1.384 . S
C309 C308 1.377 . S
C309 C315 1.390 1_565 S
C310 H301 0.930 . S
C310 C308 1.384 . S
C310 C311 1.372 . S
C311 C310 1.372 . S
C311 C312 1.400 1_565 S
C311 C316 1.490 . S
C312 H302 0.930 . S
C312 C311 1.400 1_545 S
C312 C315 1.386 . S
H313 C329 0.930 . S
H314 C330 0.931 . S
C315 H303 0.929 . S
C315 C309 1.390 1_545 S
C315 C312 1.386 . S
C316 C311 1.490 . S
C316 C318 1.395 . S
C316 C319 1.403 1_565 S
H317 C323 0.930 . S
C318 H304 0.930 . S
C318 C316 1.395 . S
C318 C321 1.403 . S
C319 C316 1.403 1_545 S
C319 C320 1.524 . S
C319 C323 1.400 . S
C320 H305 0.960 . S
C320 H306 0.960 . S
C320 H307 0.960 . S
C320 C319 1.524 . S
C321 C318 1.403 . S
C321 C322 1.392 . S
C321 C325 1.495 . S
C322 C321 1.392 . S
C322 C323 1.385 1_565 S
C322 C324 1.478 . S
C323 H317 0.930 . S
C323 C319 1.400 . S
C323 C322 1.385 1_545 S
C324 C322 1.478 . S
C324 C326 1.381 . S
C324 C330 1.383 1_565 S
C325 C321 1.495 . S
C325 H331 0.959 . S
C325 H332 0.961 . S
C325 H333 0.960 . S
C326 C324 1.381 . S
C326 C327 1.394 . S
C326 H334 0.930 . S
C327 C326 1.394 . S
C327 C328 1.383 1_565 S
C327 H335 0.929 . S
C328 C327 1.383 1_545 S
C328 C329 1.377 . S
C329 H313 0.930 . S
C329 C328 1.377 . S
C329 C330 1.379 . S
C330 H314 0.931 . S
C330 C324 1.383 1_545 S
C330 C329 1.379 . S
H331 C325 0.959 . S
H332 C325 0.961 . S
H333 C325 0.960 . S
H334 C326 0.930 . S
H335 C327 0.929 . S
H336 C344 0.929 . S
H337 C346 0.930 . S
H338 C348 0.930 . S
H339 C351 0.929 . S
H340 C354 0.930 . S
H341 C356 0.960 . S
H342 C356 0.960 . S
H343 C356 0.960 . S
C344 H336 0.929 . S
C344 C345 1.377 . S
C344 C346 1.384 . S
C345 C344 1.377 . S
C345 C351 1.390 1_554 S
C346 H337 0.930 . S
C346 C344 1.384 . S
C346 C347 1.372 . S
C347 C346 1.372 . S
C347 C348 1.400 1_554 S
C347 C352 1.490 . S
C348 H338 0.930 . S
C348 C347 1.400 1_556 S
C348 C351 1.386 . S
H349 C365 0.930 . S
H350 C366 0.931 . S
C351 H339 0.929 . S
C351 C345 1.390 1_556 S
C351 C348 1.386 . S
C352 C347 1.490 . S
C352 C354 1.395 . S
C352 C355 1.403 1_554 S
H353 C359 0.930 . S
C354 H340 0.930 . S
C354 C352 1.395 . S
C354 C357 1.403 1_655 S
C355 C352 1.403 1_556 S
C355 C356 1.524 . S
C355 C359 1.400 1_655 S
C356 H341 0.960 . S
C356 H342 0.960 . S
C356 H343 0.960 . S
C356 C355 1.524 . S
C357 C354 1.403 1_455 S
C357 C358 1.392 . S
C357 C361 1.495 . S
C358 C357 1.392 . S
C358 C359 1.385 1_554 S
C358 C360 1.478 . S
C359 H353 0.930 . S
C359 C355 1.400 1_455 S
C359 C358 1.385 1_556 S
C360 C358 1.478 . S
C360 C362 1.381 . S
C360 C366 1.383 1_554 S
C361 C357 1.495 . S
C361 H367 0.959 . S
C361 H368 0.961 . S
C361 H369 0.960 . S
C362 C360 1.381 . S
C362 C363 1.394 . S
C362 H370 0.930 . S
C363 C362 1.394 . S
C363 C364 1.384 . S
C363 H371 0.929 . S
C364 C363 1.384 . S
C364 C365 1.376 1_554 S
C365 H349 0.930 . S
C365 C364 1.376 1_556 S
C365 C366 1.379 . S
C366 H350 0.931 . S
C366 C360 1.383 1_556 S
C366 C365 1.379 . S
H367 C361 0.959 . S
H368 C361 0.961 . S
H369 C361 0.960 . S
H370 C362 0.930 . S
H371 C363 0.929 . S
H372 C380 0.929 . S
H373 C382 0.930 . S
H374 C384 0.930 . S
H375 C387 0.929 . S
H376 C390 0.930 . S
H377 C392 0.960 . S
H378 C392 0.960 . S
H379 C392 0.960 . S
C380 H372 0.929 . S
C380 C381 1.377 . S
C380 C382 1.384 . S
C381 C380 1.377 . S
C381 C387 1.390 . S
C382 H373 0.930 . S
C382 C380 1.384 . S
C382 C383 1.372 . S
C383 C382 1.372 . S
C383 C384 1.400 . S
C383 C388 1.490 . S
C384 H374 0.930 . S
C384 C383 1.400 . S
C384 C387 1.386 . S
H385 C401 0.930 . S
H386 C402 0.931 . S
C387 H375 0.929 . S
C387 C381 1.390 . S
C387 C384 1.386 . S
C388 C383 1.490 . S
C388 C390 1.395 . S
C388 C391 1.403 . S
H389 C395 0.930 . S
C390 H376 0.930 . S
C390 C388 1.395 . S
C390 C393 1.403 1_455 S
C391 C388 1.403 . S
C391 C392 1.524 . S
C391 C395 1.400 1_455 S
C392 H377 0.960 . S
C392 H378 0.960 . S
C392 H379 0.960 . S
C392 C391 1.524 . S
C393 C390 1.403 1_655 S
C393 C394 1.392 . S
C393 C397 1.495 . S
C394 C393 1.392 . S
C394 C395 1.385 . S
C394 C396 1.478 . S
C395 H389 0.930 . S
C395 C391 1.400 1_655 S
C395 C394 1.385 . S
C396 C394 1.478 . S
C396 C398 1.381 . S
C396 C402 1.383 . S
C397 C393 1.495 . S
C397 H403 0.959 . S
C397 H404 0.961 . S
C397 H405 0.960 . S
C398 C396 1.381 . S
C398 C399 1.394 . S
C398 H406 0.930 . S
C399 C398 1.394 . S
C399 C400 1.383 . S
C399 H407 0.929 . S
C400 C399 1.383 . S
C400 C401 1.377 . S
C401 H385 0.930 . S
C401 C400 1.377 . S
C401 C402 1.379 . S
C402 H386 0.931 . S
C402 C396 1.383 . S
C402 C401 1.379 . S
H403 C397 0.959 . S
H404 C397 0.961 . S
H405 C397 0.960 . S
H406 C398 0.930 . S
H407 C399 0.929 . S
H408 C416 0.929 . S
H409 C418 0.930 . S
H410 C420 0.930 . S
H411 C423 0.929 . S
H412 C426 0.930 . S
H413 C428 0.960 . S
H414 C428 0.960 . S
H415 C428 0.960 . S
C416 H408 0.929 . S
C416 C417 1.363 1_565 S
C416 C418 1.384 . S
C417 C416 1.363 1_545 S
C417 C423 1.404 1_655 S
C418 H409 0.930 . S
C418 C416 1.384 . S
C418 C419 1.371 1_565 S
C419 C418 1.371 1_545 S
C419 C420 1.400 1_655 S
C419 C424 1.490 . S
C420 H410 0.930 . S
C420 C419 1.400 1_455 S
C420 C423 1.386 . S
H421 C437 0.930 . S
H422 C438 0.931 . S
C423 H411 0.929 . S
C423 C417 1.404 1_455 S
C423 C420 1.386 . S
C424 C419 1.490 . S
C424 C426 1.405 . S
C424 C427 1.393 1_645 S
H425 C431 0.930 . S
C426 H412 0.930 . S
C426 C424 1.405 . S
C426 C429 1.403 . S
C427 C424 1.393 1_465 S
C427 C428 1.524 . S
C427 C431 1.400 . S
C428 H413 0.960 . S
C428 H414 0.960 . S
C428 H415 0.960 . S
C428 C427 1.524 . S
C429 C426 1.403 . S
C429 C430 1.392 . S
C429 C433 1.495 . S
C430 C429 1.392 . S
C430 C431 1.385 1_645 S
C430 C432 1.478 . S
C431 H425 0.930 . S
C431 C427 1.400 . S
C431 C430 1.385 1_465 S
C432 C430 1.478 . S
C432 C434 1.381 1_545 S
C432 C438 1.383 1_655 S
C433 C429 1.495 . S
C433 H439 0.959 . S
C433 H440 0.961 . S
C433 H441 0.960 . S
C434 C432 1.381 1_565 S
C434 C435 1.394 . S
C434 H442 0.930 . S
C435 C434 1.394 . S
C435 C436 1.383 1_565 S
C435 H443 0.929 . S
C436 C435 1.383 1_545 S
C436 C437 1.377 1_655 S
C437 H421 0.930 . S
C437 C436 1.377 1_455 S
C437 C438 1.379 . S
C438 H422 0.931 . S
C438 C432 1.383 1_455 S
C438 C437 1.379 . S
H439 C433 0.959 . S
H440 C433 0.961 . S
H441 C433 0.960 . S
H442 C434 0.930 . S
H443 C435 0.929 . S
H444 C452 0.929 . S
H445 C454 0.930 . S
H446 C456 0.930 . S
H447 C459 0.929 . S
H448 C462 0.930 . S
H449 C464 0.960 . S
H450 C464 0.960 1_655 S
H451 C464 0.960 . S
C452 H444 0.929 . S
C452 C453 1.377 1_545 S
C452 C454 1.384 . S
C453 C452 1.377 1_565 S
C453 C459 1.390 1_655 S
C454 H445 0.930 . S
C454 C452 1.384 . S
C454 C455 1.365 1_545 S
C455 C454 1.365 1_565 S
C455 C456 1.409 1_655 S
C455 C460 1.489 1_565 S
C456 H446 0.930 . S
C456 C455 1.409 1_455 S
C456 C459 1.386 . S
H457 C473 0.930 . S
H458 C474 0.928 1_565 S
C459 H447 0.929 . S
C459 C453 1.390 1_455 S
C459 C456 1.386 . S
C460 C455 1.489 1_545 S
C460 C462 1.393 . S
C460 C463 1.404 1_645 S
H461 C467 0.930 . S
C462 H448 0.930 . S
C462 C460 1.393 . S
C462 C465 1.403 . S
C463 C460 1.404 1_465 S
C463 C464 1.524 . S
C463 C467 1.400 . S
C464 H449 0.960 . S
C464 H450 0.960 1_455 S
C464 H451 0.960 . S
C464 C463 1.524 . S
C465 C462 1.403 . S
C465 C466 1.392 . S
C465 C469 1.495 . S
C466 C465 1.392 . S
C466 C467 1.385 1_645 S
C466 C468 1.478 . S
C467 H461 0.930 . S
C467 C463 1.400 . S
C467 C466 1.385 1_465 S
C468 C466 1.478 . S
C468 C470 1.381 . S
C468 C474 1.386 1_655 S
C469 C465 1.495 . S
C469 H475 0.959 . S
C469 H476 0.961 . S
C469 H477 0.960 . S
C470 C468 1.381 . S
C470 C471 1.394 . S
C470 H478 0.930 . S
C471 C470 1.394 . S
C471 C472 1.383 1_655 S
C471 H479 0.929 . S
C472 C471 1.383 1_455 S
C472 C473 1.377 1_545 S
C473 H457 0.930 . S
C473 C472 1.377 1_565 S
C473 C474 1.378 1_565 S
C474 H458 0.928 1_545 S
C474 C468 1.386 1_455 S
C474 C473 1.378 1_545 S
H475 C469 0.959 . S
H476 C469 0.961 . S
H477 C469 0.960 . S
H478 C470 0.930 . S
H479 C471 0.929 . S
H480 C488 0.929 . S
H481 C490 0.930 . S
H482 C492 0.930 . S
H483 C495 0.929 . S
H484 C498 0.930 . S
H485 C500 0.960 . S
H486 C500 0.960 . S
H487 C500 0.960 . S
C488 H480 0.929 . S
C488 C489 1.377 . S
C488 C490 1.384 . S
C489 C488 1.377 . S
C489 C495 1.390 . S
C490 H481 0.930 . S
C490 C488 1.384 . S
C490 C491 1.372 . S
C491 C490 1.372 . S
C491 C492 1.400 . S
C491 C496 1.490 . S
C492 H482 0.930 . S
C492 C491 1.400 . S
C492 C495 1.386 . S
H493 C509 0.930 . S
H494 C510 0.931 . S
C495 H483 0.929 . S
C495 C489 1.390 . S
C495 C492 1.386 . S
C496 C491 1.490 . S
C496 C498 1.395 . S
C496 C499 1.403 . S
H497 C503 0.930 . S
C498 H484 0.930 . S
C498 C496 1.395 . S
C498 C501 1.403 . S
C499 C496 1.403 . S
C499 C500 1.524 . S
C499 C503 1.400 . S
C500 H485 0.960 . S
C500 H486 0.960 . S
C500 H487 0.960 . S
C500 C499 1.524 . S
C501 C498 1.403 . S
C501 C502 1.392 . S
C501 C505 1.495 . S
C502 C501 1.392 . S
C502 C503 1.385 . S
C502 C504 1.478 . S
C503 H497 0.930 . S
C503 C499 1.400 . S
C503 C502 1.385 . S
C504 C502 1.478 . S
C504 C506 1.381 . S
C504 C510 1.383 . S
C505 C501 1.495 . S
C505 H511 0.959 . S
C505 H512 0.961 . S
C505 H513 0.960 . S
C506 C504 1.381 . S
C506 C507 1.394 . S
C506 H514 0.930 . S
C507 C506 1.394 . S
C507 C508 1.383 . S
C507 H515 0.929 . S
C508 C507 1.383 . S
C508 C509 1.377 . S
C509 H493 0.930 . S
C509 C508 1.377 . S
C509 C510 1.379 . S
C510 H494 0.931 . S
C510 C504 1.383 . S
C510 C509 1.379 . S
H511 C505 0.959 . S
H512 C505 0.961 . S
H513 C505 0.960 . S
H514 C506 0.930 . S
H515 C507 0.929 . S
H516 C524 0.929 . S
H517 C526 0.930 . S
H518 C528 0.930 . S
H519 C531 0.929 . S
H520 C534 0.930 . S
H521 C536 0.960 . S
H522 C536 0.960 . S
H523 C536 0.960 . S
C524 H516 0.929 . S
C524 C525 1.377 . S
C524 C526 1.384 . S
C525 C524 1.377 . S
C525 C531 1.390 . S
C526 H517 0.930 . S
C526 C524 1.384 . S
C526 C527 1.372 . S
C527 C526 1.372 . S
C527 C528 1.400 . S
C527 C532 1.490 . S
C528 H518 0.930 . S
C528 C527 1.400 . S
C528 C531 1.386 . S
H529 C545 0.930 . S
H530 C546 0.931 . S
C531 H519 0.929 . S
C531 C525 1.390 . S
C531 C528 1.386 . S
C532 C527 1.490 . S
C532 C534 1.395 . S
C532 C535 1.403 . S
H533 C539 0.930 . S
C534 H520 0.930 . S
C534 C532 1.395 . S
C534 C537 1.403 . S
C535 C532 1.403 . S
C535 C536 1.524 . S
C535 C539 1.400 . S
C536 H521 0.960 . S
C536 H522 0.960 . S
C536 H523 0.960 . S
C536 C535 1.524 . S
C537 C534 1.403 . S
C537 C538 1.392 . S
C537 C541 1.495 . S
C538 C537 1.392 . S
C538 C539 1.385 . S
C538 C540 1.478 . S
C539 H533 0.930 . S
C539 C535 1.400 . S
C539 C538 1.385 . S
C540 C538 1.478 . S
C540 C542 1.381 . S
C540 C546 1.383 . S
C541 C537 1.495 . S
C541 H547 0.959 . S
C541 H548 0.961 . S
C541 H549 0.960 . S
C542 C540 1.381 . S
C542 C543 1.394 . S
C542 H550 0.930 . S
C543 C542 1.394 . S
C543 C544 1.383 . S
C543 H551 0.929 . S
C544 C543 1.383 . S
C544 C545 1.377 . S
C545 H529 0.930 . S
C545 C544 1.377 . S
C545 C546 1.379 . S
C546 H530 0.931 . S
C546 C540 1.383 . S
C546 C545 1.379 . S
H547 C541 0.959 . S
H548 C541 0.961 . S
H549 C541 0.960 . S
H550 C542 0.930 . S
H551 C543 0.929 . S
C129 N74 1.534 1_554 S
C148 N6 1.522 1_556 S
C165 N66 1.534 1_556 S
C184 N14 1.516 1_554 S
C201 N44 1.541 . S
C220 N96 1.548 . S
C237 N36 1.540 . S
C256 N104 1.558 . S
C273 C16 0.763 . S
C292 C27 0.749 1_554 S
C309 C57 0.762 . S
C328 C46 0.748 . S
C345 C76 0.764 . S
C364 C87 0.773 1_554 S
C381 C106 0.758 . S
C400 C117 0.747 . S
C417 C31 1.501 . S
C436 C1 1.487 1_655 S
C453 C10 1.496 . S
C472 C40 1.504 1_545 S
C489 C91 1.497 . S
C508 C61 1.496 . S
C525 C100 1.496 . S
C544 C70 1.501 . S
