# Generated by pormake.
# Topology wjg, (4)-cn, num edge types: 1
# Building blocks:
#     Node 0, Type 0, BuildingBlock: ICAMEG_clean_sbu_1, # of connection points: 4
#     Node 1, Type 0, BuildingBlock: ICAMEG_clean_sbu_1, # of connection points: 4
#     Node 2, Type 0, BuildingBlock: ICAMEG_clean_sbu_1, # of connection points: 4
#     Node 3, Type 0, BuildingBlock: ICAMEG_clean_sbu_1, # of connection points: 4
#     Node 4, Type 0, BuildingBlock: ICAMEG_clean_sbu_1, # of connection points: 4
#     Node 5, Type 0, BuildingBlock: ICAMEG_clean_sbu_1, # of connection points: 4
#     Node 6, Type 0, BuildingBlock: ICAMEG_clean_sbu_1, # of connection points: 4
#     Node 7, Type 0, BuildingBlock: ICAMEG_clean_sbu_1, # of connection points: 4
#     Node 8, Type 0, BuildingBlock: ICAMEG_clean_sbu_1, # of connection points: 4
#     Node 9, Type 0, BuildingBlock: ICAMEG_clean_sbu_1, # of connection points: 4
#     Node 10, Type 0, BuildingBlock: ICAMEG_clean_sbu_1, # of connection points: 4
#     Node 11, Type 0, BuildingBlock: ICAMEG_clean_sbu_1, # of connection points: 4
#     Edge 12, Type (0, 0), BuildingBlock: XIVTED_clean_linker_0, # of connection points: 2
#     Edge 13, Type (0, 0), BuildingBlock: XIVTED_clean_linker_0, # of connection points: 2
#     Edge 14, Type (0, 0), BuildingBlock: XIVTED_clean_linker_0, # of connection points: 2
#     Edge 15, Type (0, 0), BuildingBlock: XIVTED_clean_linker_0, # of connection points: 2
#     Edge 16, Type (0, 0), BuildingBlock: XIVTED_clean_linker_0, # of connection points: 2
#     Edge 17, Type (0, 0), BuildingBlock: XIVTED_clean_linker_0, # of connection points: 2
#     Edge 18, Type (0, 0), BuildingBlock: XIVTED_clean_linker_0, # of connection points: 2
#     Edge 19, Type (0, 0), BuildingBlock: XIVTED_clean_linker_0, # of connection points: 2
#     Edge 20, Type (0, 0), BuildingBlock: XIVTED_clean_linker_0, # of connection points: 2
#     Edge 21, Type (0, 0), BuildingBlock: XIVTED_clean_linker_0, # of connection points: 2
#     Edge 22, Type (0, 0), BuildingBlock: XIVTED_clean_linker_0, # of connection points: 2
#     Edge 23, Type (0, 0), BuildingBlock: XIVTED_clean_linker_0, # of connection points: 2
#     Edge 24, Type (0, 0), BuildingBlock: XIVTED_clean_linker_0, # of connection points: 2
#     Edge 25, Type (0, 0), BuildingBlock: XIVTED_clean_linker_0, # of connection points: 2
#     Edge 26, Type (0, 0), BuildingBlock: XIVTED_clean_linker_0, # of connection points: 2
#     Edge 27, Type (0, 0), BuildingBlock: XIVTED_clean_linker_0, # of connection points: 2
#     Edge 28, Type (0, 0), BuildingBlock: XIVTED_clean_linker_0, # of connection points: 2
#     Edge 29, Type (0, 0), BuildingBlock: XIVTED_clean_linker_0, # of connection points: 2
#     Edge 30, Type (0, 0), BuildingBlock: XIVTED_clean_linker_0, # of connection points: 2
#     Edge 31, Type (0, 0), BuildingBlock: XIVTED_clean_linker_0, # of connection points: 2
#     Edge 32, Type (0, 0), BuildingBlock: XIVTED_clean_linker_0, # of connection points: 2
#     Edge 33, Type (0, 0), BuildingBlock: XIVTED_clean_linker_0, # of connection points: 2
#     Edge 34, Type (0, 0), BuildingBlock: XIVTED_clean_linker_0, # of connection points: 2
#     Edge 35, Type (0, 0), BuildingBlock: XIVTED_clean_linker_0, # of connection points: 2
# Relax obj value: 0.331
# Max RMSD: 0.124
# Mean RMSD: 0.120
data_MOF--net-wjg--node1-ICAMEG_clean_sbu_1--edge1-XIVTED_clean_linker_0
_symmetry_space_group_name_H-M    P1
_symmetry_Int_Tables_number       1
_symmetry_cell_setting            triclinic
loop_
_symmetry_equiv_pos_as_xyz
'x, y, z'
_cell_length_a     33.245537
_cell_length_b     33.078322
_cell_length_c     43.050319
_cell_angle_alpha  89.981489
_cell_angle_beta   90.075304
_cell_angle_gamma 120.16739
loop_
_atom_site_label
_atom_site_type_symbol
_atom_site_fract_x
_atom_site_fract_y
_atom_site_fract_z
_atom_type_partial_charge
Co0 Co 0.19945 0.43774 0.3363 0.0
Co1 Co 0.08456 0.35258 0.33686 0.0
O2 O 0.13618 0.41129 0.3207 0.0
C3 C 0.18663 0.52101 0.32387 0.0
O4 O 0.14399 0.49519 0.31356 0.0
C5 C 0.08104 0.34068 0.2691 0.0
O6 O 0.12533 0.35383 0.27133 0.0
O7 O 0.11878 0.31877 0.32862 0.0
O8 O 0.19071 0.37399 0.34259 0.0
H9 H 0.00989 0.20434 0.3996 0.0
H10 H 0.18369 0.46835 0.27438 0.0
O11 O 0.21122 0.50315 0.33195 0.0
H12 H 0.28769 0.40547 0.25444 0.0
H13 H 0.37198 0.55071 0.33876 0.0
H14 H 0.24115 0.41528 0.38976 0.0
H15 H 0.26095 0.40681 0.30758 0.0
H16 H 0.29231 0.51754 0.31825 0.0
O17 O 0.05786 0.33727 0.29358 0.0
H18 H 0.07527 0.27857 0.38032 0.0
H19 H 0.98257 0.30114 0.32493 0.0
H20 H 0.32023 0.44769 0.41114 0.0
H21 H 0.21007 0.46829 0.22108 0.0
H22 H 0.38646 0.51598 0.38551 0.0
H23 H 0.26239 0.43653 0.21073 0.0
O24 O 0.17693 0.43671 0.37877 0.0
H25 H 0.01918 0.45639 0.31048 0.0
H26 H 0.03518 0.36078 0.39211 0.0
H27 H 0.99327 0.4029 0.40363 0.0
H28 H 0.98501 0.4511 0.36263 0.0
H29 H 0.06127 0.41413 0.30007 0.0
H30 H 0.91617 0.22693 0.34341 0.0
H31 H 0.92964 0.17809 0.38113 0.0
O32 O 0.11165 0.36661 0.38045 0.0
C33 C 0.16033 0.33167 0.33667 0.0
C34 C 0.00355 0.22542 0.38327 0.0
C35 C 0.95096 0.23806 0.3517 0.0
N36 N 0.03267 0.29439 0.35179 0.0
C37 C 0.04042 0.26757 0.37236 0.0
C38 C 0.98869 0.28 0.34128 0.0
C39 C 0.95854 0.21068 0.37287 0.0
C40 C 0.20711 0.45535 0.27034 0.0
N41 N 0.22132 0.43842 0.29431 0.0
C42 C 0.22166 0.45502 0.23996 0.0
C43 C 0.2509 0.43707 0.23416 0.0
C44 C 0.26508 0.41962 0.25867 0.0
C45 C 0.24975 0.42044 0.28872 0.0
C46 C 0.34349 0.52111 0.35013 0.0
C47 C 0.26974 0.44487 0.37842 0.0
C48 C 0.29828 0.5021 0.33861 0.0
N49 N 0.26215 0.46411 0.35256 0.0
C50 C 0.31446 0.46316 0.39069 0.0
C51 C 0.35157 0.50149 0.37634 0.0
C52 C 0.1457 0.4019 0.39374 0.0
C53 C 0.02257 0.43552 0.32854 0.0
C54 C 0.03212 0.38201 0.37423 0.0
C55 C 0.00814 0.4056 0.38085 0.0
C56 C 0.00344 0.43258 0.35782 0.0
N57 N 0.05092 0.3852 0.34549 0.0
C58 C 0.04627 0.4114 0.32276 0.0
Co59 Co 0.75803 0.19961 0.65468 0.0
Co60 Co 0.73752 0.08769 0.66565 0.0
O61 O 0.72288 0.13285 0.64724 0.0
C62 C 0.66524 0.18723 0.67254 0.0
O63 O 0.66322 0.16264 0.69703 0.0
C64 C 0.7419 0.07788 0.59849 0.0
O65 O 0.7703 0.12325 0.59887 0.0
O66 O 0.80507 0.12615 0.65537 0.0
O67 O 0.81748 0.19927 0.65511 0.0
H68 H 0.82631 0.03333 0.73141 0.0
H69 H 0.69187 0.16231 0.60193 0.0
O70 O 0.69928 0.20224 0.65374 0.0
H71 H 0.84429 0.26939 0.55485 0.0
H72 H 0.79795 0.36705 0.64074 0.0
H73 H 0.83635 0.26032 0.69618 0.0
H74 H 0.83648 0.25841 0.61163 0.0
H75 H 0.75363 0.28216 0.6305 0.0
O76 O 0.72524 0.05601 0.62396 0.0
H77 H 0.80908 0.09155 0.70888 0.0
H78 H 0.69428 0.98458 0.65943 0.0
H79 H 0.8816 0.34481 0.70697 0.0
H80 H 0.698 0.17254 0.54505 0.0
H81 H 0.8627 0.39874 0.67925 0.0
H82 H 0.77468 0.22626 0.52115 0.0
O83 O 0.75293 0.1889 0.70029 0.0
H84 H 0.56549 0.00844 0.64496 0.0
H85 H 0.68618 0.04044 0.72341 0.0
H86 H 0.60334 0.99425 0.73801 0.0
H87 H 0.54235 0.97795 0.69861 0.0
H88 H 0.64872 0.05474 0.63141 0.0
H89 H 0.71047 0.92516 0.68121 0.0
H90 H 0.77679 0.94944 0.71759 0.0
O91 O 0.75108 0.1203 0.70706 0.0
C92 C 0.83201 0.17031 0.6543 0.0
C93 C 0.79719 0.02228 0.7157 0.0
C94 C 0.73221 0.96159 0.68749 0.0
N95 N 0.75041 0.04138 0.68317 0.0
C96 C 0.78715 0.05508 0.70298 0.0
C97 C 0.72326 0.99537 0.67519 0.0
C98 C 0.76942 0.97523 0.7079 0.0
C99 C 0.72527 0.18613 0.59172 0.0
N100 N 0.76376 0.20983 0.61011 0.0
C101 C 0.72856 0.19163 0.55949 0.0
C102 C 0.77161 0.22171 0.5461 0.0
C103 C 0.81068 0.24588 0.56499 0.0
C104 C 0.80609 0.23943 0.59713 0.0
C105 C 0.80663 0.34385 0.65298 0.0
C106 C 0.82793 0.28358 0.68384 0.0
C107 C 0.7816 0.29576 0.64731 0.0
N108 N 0.79268 0.26637 0.66251 0.0
C109 C 0.85363 0.33139 0.69011 0.0
C110 C 0.84291 0.36165 0.67451 0.0
C111 C 0.75464 0.15826 0.71744 0.0
C112 C 0.59175 0.0152 0.6623 0.0
C113 C 0.65983 0.03355 0.70616 0.0
C114 C 0.61299 0.00731 0.71454 0.0
C115 C 0.57878 0.99815 0.69242 0.0
N116 N 0.67226 0.05005 0.67655 0.0
C117 C 0.63893 0.04127 0.65474 0.0
Co118 Co 0.64221 0.73753 0.99849 0.0
Co119 Co 0.55531 0.76342 0.99072 0.0
O120 O 0.58529 0.72849 0.97876 0.0
C121 C 0.66206 0.74864 0.9318 0.0
O122 O 0.6482 0.77942 0.93269 0.0
C123 C 0.47221 0.66763 0.99486 0.0
O124 O 0.49325 0.65661 0.01625 0.0
O125 O 0.55255 0.74355 0.03445 0.0
O126 O 0.62166 0.74753 0.04042 0.0
H127 H 0.52986 0.87087 0.05954 0.0
H128 H 0.58474 0.6534 0.9598 0.0
O129 O 0.66338 0.72848 0.95674 0.0
H130 H 0.58886 0.59325 0.06387 0.0
H131 H 0.77005 0.70021 0.01421 0.0
H132 H 0.70892 0.80255 0.04541 0.0
H133 H 0.63102 0.6781 0.05352 0.0
H134 H 0.69773 0.6903 0.99097 0.0
O135 O 0.49299 0.70762 0.98188 0.0
H136 H 0.56741 0.82655 0.04301 0.0
H137 H 0.47628 0.77226 0.96554 0.0
H138 H 0.78109 0.81342 0.06945 0.0
H139 H 0.54234 0.56828 0.96907 0.0
H140 H 0.81211 0.76201 0.05386 0.0
H141 H 0.5441 0.53771 0.02145 0.0
O142 O 0.67483 0.80654 0.99148 0.0
H143 H 0.5377 0.7393 0.87519 0.0
H144 H 0.58777 0.85546 0.95967 0.0
H145 H 0.59486 0.88153 0.90525 0.0
H146 H 0.56968 0.82325 0.86257 0.0
H147 H 0.53163 0.71479 0.92992 0.0
H148 H 0.4375 0.81581 0.98128 0.0
H149 H 0.46472 0.86599 0.02871 0.0
O150 O 0.61624 0.8203 0.99974 0.0
C151 C 0.58517 0.74602 0.05143 0.0
C152 C 0.51798 0.84948 0.03881 0.0
C153 C 0.46609 0.81855 0.99494 0.0
N154 N 0.52461 0.79751 0.00304 0.0
C155 C 0.53924 0.82444 0.02925 0.0
C156 C 0.48817 0.79392 0.98611 0.0
C157 C 0.48129 0.8466 0.02145 0.0
C158 C 0.58604 0.64036 0.98258 0.0
N159 N 0.61056 0.67067 0.00604 0.0
C160 C 0.56182 0.59213 0.98772 0.0
C161 C 0.56278 0.57499 0.01712 0.0
C162 C 0.58786 0.60614 0.04094 0.0
C163 C 0.61161 0.65415 0.03496 0.0
C164 C 0.75681 0.72274 0.02126 0.0
C165 C 0.722 0.7798 0.0387 0.0
C166 C 0.71594 0.71734 0.00815 0.0
N167 N 0.69889 0.74549 0.01709 0.0
C168 C 0.76297 0.78624 0.0523 0.0
C169 C 0.78039 0.75741 0.04352 0.0
C170 C 0.65939 0.83409 0.99714 0.0
C171 C 0.54861 0.765 0.89359 0.0
C172 C 0.57683 0.82989 0.94122 0.0
C173 C 0.58083 0.84485 0.91046 0.0
C174 C 0.56665 0.81212 0.88652 0.0
N175 N 0.5591 0.7836 0.94796 0.0
C176 C 0.54504 0.7513 0.92462 0.0
Co177 Co 0.78512 0.54567 0.32261 0.0
Co178 Co 0.89644 0.63663 0.33528 0.0
O179 O 0.8517 0.57783 0.31544 0.0
C180 C 0.80008 0.4659 0.33757 0.0
O181 O 0.8276 0.48965 0.36073 0.0
C182 C 0.90816 0.65552 0.26851 0.0
O183 O 0.86293 0.63796 0.26808 0.0
O184 O 0.85831 0.66637 0.32601 0.0
O185 O 0.78535 0.60573 0.32482 0.0
H186 H 0.94897 0.77638 0.40482 0.0
H187 H 0.82243 0.51925 0.2687 0.0
O188 O 0.78263 0.48418 0.3201 0.0
H189 H 0.71746 0.56888 0.224 0.0
H190 H 0.61919 0.41786 0.3057 0.0
H191 H 0.7235 0.5605 0.36488 0.0
H192 H 0.72769 0.56865 0.28073 0.0
H193 H 0.70391 0.45961 0.29647 0.0
O194 O 0.92887 0.65892 0.29419 0.0
H195 H 0.89161 0.70192 0.38038 0.0
H196 H -0.00077 0.69718 0.33046 0.0
H197 H 0.63904 0.5202 0.37452 0.0
H198 H 0.81295 0.51859 0.21184 0.0
H199 H 0.5864 0.44875 0.34466 0.0
H200 H 0.76029 0.54372 0.18914 0.0
O201 O 0.79508 0.54845 0.36836 0.0
H202 H 0.97541 0.54458 0.31116 0.0
H203 H 0.94277 0.62911 0.3925 0.0
H204 H 0.9885 0.5914 0.40557 0.0
H205 H 0.00512 0.54879 0.36472 0.0
H206 H 0.92955 0.58252 0.29915 0.0
H207 H 0.05778 0.77182 0.35415 0.0
H208 H 0.03275 0.81181 0.39173 0.0
O209 O 0.86354 0.61481 0.37622 0.0
C210 C 0.81441 0.64943 0.32486 0.0
C211 C 0.96034 0.75918 0.3886 0.0
C212 C 0.0214 0.75665 0.36012 0.0
N213 N 0.94215 0.69499 0.35433 0.0
C214 C 0.92804 0.71692 0.37479 0.0
C215 C 0.98811 0.71445 0.34675 0.0
C216 C 0.00733 0.77907 0.38121 0.0
C217 C 0.79907 0.52975 0.25901 0.0
N218 N 0.77552 0.54381 0.27804 0.0
C219 C 0.79399 0.5295 0.22679 0.0
C220 C 0.7645 0.54368 0.21407 0.0
C221 C 0.7405 0.55784 0.23362 0.0
C222 C 0.74651 0.55774 0.26573 0.0
C223 C 0.64186 0.44921 0.31872 0.0
C224 C 0.70076 0.52941 0.35171 0.0
C225 C 0.68985 0.47292 0.31367 0.0
N226 N 0.71857 0.51273 0.32989 0.0
C227 C 0.65299 0.50668 0.35735 0.0
C228 C 0.62344 0.46644 0.34062 0.0
C229 C 0.8258 0.57973 0.38609 0.0
C230 C 0.9685 0.56315 0.32914 0.0
C231 C 0.9498 0.61057 0.37461 0.0
C232 C 0.97578 0.58936 0.38214 0.0
C233 C 0.98512 0.56548 0.3592 0.0
N234 N 0.93373 0.60823 0.34505 0.0
C235 C 0.94269 0.58484 0.32245 0.0
Co236 Co 0.23504 0.78422 0.6683 0.0
Co237 Co 0.26438 0.89903 0.6711 0.0
O238 O 0.27107 0.84821 0.65378 0.0
C239 C 0.32937 0.79406 0.67305 0.0
O240 O 0.34103 0.82557 0.695 0.0
C241 C 0.25278 0.90314 0.60381 0.0
O242 O 0.22181 0.85846 0.60575 0.0
O243 O 0.19575 0.86357 0.66439 0.0
O244 O 0.17958 0.79093 0.6764 0.0
H245 H 0.19321 0.97134 0.73775 0.0
H246 H 0.28159 0.80274 0.60699 0.0
O247 O 0.28946 0.77551 0.66022 0.0
H248 H 0.11448 0.69968 0.58525 0.0
H249 H 0.17994 0.61214 0.6664 0.0
H250 H 0.17203 0.7382 0.72165 0.0
H251 H 0.14221 0.72345 0.63896 0.0
H252 H 0.22394 0.69319 0.6473 0.0
O253 O 0.27333 0.92611 0.62825 0.0
H254 H 0.20173 0.90663 0.71681 0.0
H255 H 0.31361 0.00165 0.65968 0.0
H256 H 0.12743 0.6575 0.74143 0.0
H257 H 0.2554 0.77941 0.55297 0.0
H258 H 0.13122 0.59365 0.71367 0.0
H259 H 0.17127 0.72767 0.54181 0.0
O260 O 0.2563 0.80488 0.71137 0.0
H261 H 0.43162 0.96208 0.64126 0.0
H262 H 0.32522 0.95127 0.72475 0.0
H263 H 0.40985 0.99335 0.73439 0.0
H264 H 0.46368 0.99898 0.69244 0.0
H265 H 0.34674 0.92008 0.63268 0.0
H266 H 0.30605 0.06738 0.67978 0.0
H267 H 0.24562 0.05241 0.7192 0.0
O268 O 0.25464 0.87189 0.71426 0.0
C269 C 0.16729 0.82121 0.67157 0.0
C270 C 0.2198 0.97834 0.72067 0.0
C271 C 0.28309 0.03223 0.6881 0.0
N272 N 0.25845 0.95046 0.68732 0.0
C273 C 0.2249 0.94186 0.70883 0.0
C274 C 0.28716 0.99488 0.67677 0.0
C275 C 0.24919 0.02381 0.71023 0.0
C276 C 0.24499 0.77975 0.60236 0.0
N277 N 0.21351 0.76431 0.62612 0.0
C278 C 0.23034 0.76685 0.57171 0.0
C279 C 0.18312 0.73789 0.56546 0.0
C280 C 0.15123 0.72222 0.58982 0.0
C281 C 0.16714 0.7359 0.62018 0.0
C282 C 0.17796 0.63951 0.67861 0.0
C283 C 0.17361 0.7106 0.70931 0.0
C284 C 0.2028 0.68553 0.66792 0.0
N285 N 0.2001 0.72032 0.68312 0.0
C286 C 0.14839 0.66498 0.7207 0.0
C287 C 0.15059 0.62921 0.70515 0.0
C288 C 0.25578 0.83743 0.72688 0.0
C289 C 0.40853 0.95997 0.65969 0.0
C290 C 0.34842 0.95352 0.7064 0.0
C291 C 0.39631 0.97745 0.71198 0.0
C292 C 0.42649 0.98063 0.68842 0.0
N293 N 0.33108 0.93347 0.67813 0.0
C294 C 0.36044 0.93637 0.65494 0.0
Co295 Co 0.35597 0.27801 0.01055 0.0
Co296 Co 0.45532 0.27021 0.0071 0.0
O297 O 0.41864 0.29844 0.9952 0.0
C298 C 0.34642 0.26968 0.94272 0.0
O299 O 0.36782 0.24557 0.94494 0.0
C300 C 0.54326 0.35281 0.02734 0.0
O301 O 0.53296 0.33576 0.05559 0.0
O302 O 0.44543 0.27826 0.05161 0.0
O303 O 0.37358 0.26909 0.0538 0.0
H304 H 0.49241 0.16496 0.07008 0.0
H305 H 0.40756 0.36703 0.97549 0.0
O306 O 0.3377 0.28562 0.96724 0.0
H307 H 0.37592 0.41099 0.07819 0.0
H308 H 0.20902 0.28609 0.01621 0.0
H309 H 0.2891 0.20353 0.05277 0.0
H310 H 0.34881 0.3284 0.0657 0.0
H311 H 0.28864 0.31056 0.99856 0.0
O312 O 0.51329 0.33359 0.00565 0.0
H313 H 0.4455 0.20028 0.05427 0.0
H314 H 0.54567 0.28127 0.98567 0.0
H315 H 0.20968 0.17812 0.07122 0.0
H316 H 0.43506 0.45 0.98693 0.0
H317 H 0.1691 0.21954 0.05291 0.0
H318 H 0.41933 0.47242 0.03861 0.0
O319 O 0.33448 0.21109 0.00171 0.0
H320 H 0.49168 0.32107 0.89571 0.0
H321 H 0.44395 0.18986 0.96871 0.0
H322 H 0.45169 0.17788 0.91301 0.0
H323 H 0.47579 0.24381 0.87609 0.0
H324 H 0.48302 0.33141 0.95156 0.0
H325 H 0.59352 0.24702 1.00066 0.0
H326 H 0.56702 0.18823 0.0432 0.0
O327 O 0.39906 0.20671 0.00849 0.0
C328 C 0.40978 0.27218 0.06666 0.0
C329 C 0.50435 0.19047 0.05153 0.0
C330 C 0.56115 0.23649 0.01262 0.0
N331 N 0.49275 0.24273 0.01903 0.0
C332 C 0.47793 0.21057 0.04247 0.0
C333 C 0.53386 0.25583 0.00422 0.0
C334 C 0.54623 0.20356 0.03645 0.0
C335 C 0.4003 0.37648 0.99796 0.0
N336 N 0.37641 0.3429 0.01985 0.0
C337 C 0.41608 0.42353 0.00433 0.0
C338 C 0.40728 0.4361 0.03335 0.0
C339 C 0.38296 0.40165 0.05557 0.0
C340 C 0.36779 0.35496 0.0484 0.0
C341 C 0.22639 0.26787 0.02443 0.0
C342 C 0.27184 0.22198 0.04493 0.0
C343 C 0.27143 0.28153 0.01449 0.0
N344 N 0.29366 0.25883 0.02493 0.0
C345 C 0.22679 0.20732 0.05535 0.0
C346 C 0.20402 0.23053 0.04503 0.0
C347 C 0.35523 0.18776 0.00472 0.0
C348 C 0.48134 0.29213 0.91158 0.0
C349 C 0.45432 0.21869 0.9528 0.0
C350 C 0.45876 0.21173 0.92128 0.0
C351 C 0.47233 0.24875 0.90058 0.0
N352 N 0.46331 0.26139 0.96343 0.0
C353 C 0.47661 0.29784 0.94326 0.0
Co354 Co 0.54103 0.79942 0.33397 0.0
Co355 Co 0.63458 0.91059 0.3237 0.0
O356 O 0.57428 0.86623 0.34171 0.0
C357 C 0.4597 0.808 0.31185 0.0
O358 O 0.48044 0.82609 0.28535 0.0
C359 C 0.64892 0.91802 0.39101 0.0
O360 O 0.62912 0.87231 0.39027 0.0
O361 O 0.66139 0.86989 0.3331 0.0
O362 O 0.59975 0.79728 0.33488 0.0
H363 H 0.77702 0.96216 0.25793 0.0
H364 H 0.51186 0.83782 0.38588 0.0
O365 O 0.48073 0.79949 0.33341 0.0
H366 H 0.55054 0.72648 0.43435 0.0
H367 H 0.40608 0.63536 0.3445 0.0
H368 H 0.55694 0.73628 0.29355 0.0
H369 H 0.55656 0.7385 0.37762 0.0
H370 H 0.45123 0.71948 0.35644 0.0
O371 O 0.65511 0.94073 0.36578 0.0
H372 H 0.70063 0.90524 0.27986 0.0
H373 H 0.69751 0.01308 0.33137 0.0
H374 H 0.51328 0.65212 0.28131 0.0
H375 H 0.50503 0.82663 0.44269 0.0
H376 H 0.43724 0.60107 0.3066 0.0
H377 H 0.52462 0.77074 0.46729 0.0
O378 O 0.54891 0.81029 0.28859 0.0
H379 H 0.54743 0.99485 0.34695 0.0
H380 H 0.63268 0.96117 0.26698 0.0
H381 H 0.59916 0.01075 0.25377 0.0
H382 H 0.55626 0.02795 0.29395 0.0
H383 H 0.58127 0.94521 0.3591 0.0
H384 H 0.77409 0.07117 0.31021 0.0
H385 H 0.81425 0.0458 0.2731 0.0
O386 O 0.61462 0.87969 0.28184 0.0
C387 C 0.64345 0.8257 0.33506 0.0
C388 C 0.75977 0.97368 0.27396 0.0
C389 C 0.75815 0.03485 0.30334 0.0
N390 N 0.69443 0.95595 0.30657 0.0
C391 C 0.71643 0.94164 0.28634 0.0
C392 C 0.71485 0.00182 0.31527 0.0
C393 C 0.78067 0.02059 0.28252 0.0
C394 C 0.51998 0.81308 0.39639 0.0
N395 N 0.5344 0.78869 0.37845 0.0
C396 C 0.51624 0.80704 0.42858 0.0
C397 C 0.5273 0.77573 0.44237 0.0
C398 C 0.54188 0.75091 0.4239 0.0
C399 C 0.54531 0.75792 0.3918 0.0
C400 C 0.43928 0.65713 0.33333 0.0
C401 C 0.52412 0.71419 0.30503 0.0
C402 C 0.46497 0.70487 0.33997 0.0
N403 N 0.50686 0.73273 0.32588 0.0
C404 C 0.49947 0.66658 0.29789 0.0
C405 C 0.45674 0.63795 0.31212 0.0
C406 C 0.58052 0.84153 0.27143 0.0
C407 C 0.56617 0.98771 0.32928 0.0
C408 C 0.61394 0.9684 0.28456 0.0
C409 C 0.59512 0.99657 0.27696 0.0
C410 C 0.57108 0.00623 0.29952 0.0
N411 N 0.60914 0.95053 0.31383 0.0
C412 C 0.58553 0.95975 0.33605 0.0
Co413 Co 0.75513 0.54725 0.67413 0.0
Co414 Co 0.72616 0.63268 0.6616 0.0
O415 O 0.71652 0.57503 0.68109 0.0
C416 C 0.6638 0.46386 0.65595 0.0
O417 O 0.65989 0.48648 0.63216 0.0
C418 C 0.73423 0.65082 0.72847 0.0
O419 O 0.76263 0.63415 0.72814 0.0
O420 O 0.79456 0.66642 0.66983 0.0
O421 O 0.81262 0.60977 0.675 0.0
H422 H 0.80317 0.77287 0.59142 0.0
H423 H 0.6876 0.5155 0.72611 0.0
O424 O 0.69848 0.48364 0.67426 0.0
H425 H 0.83978 0.5653 0.77488 0.0
H426 H 0.80201 0.42525 0.68749 0.0
H427 H 0.83623 0.57098 0.6341 0.0
H428 H 0.83286 0.56835 0.71798 0.0
H429 H 0.75473 0.46202 0.69779 0.0
O430 O 0.71573 0.65372 0.70318 0.0
H431 H 0.79204 0.70029 0.61556 0.0
H432 H 0.67824 0.68775 0.668 0.0
H433 H 0.88454 0.5355 0.6232 0.0
H434 H 0.69278 0.51133 0.78308 0.0
H435 H 0.86757 0.46219 0.64979 0.0
H436 H 0.76935 0.53662 0.80784 0.0
O437 O 0.75063 0.55248 0.62832 0.0
H438 H 0.55692 0.53139 0.68835 0.0
H439 H 0.66884 0.62106 0.60542 0.0
H440 H 0.58479 0.57825 0.59369 0.0
H441 H 0.52819 0.533 0.63535 0.0
H442 H 0.64127 0.57445 0.69902 0.0
H443 H 0.68835 0.76044 0.64465 0.0
H444 H 0.75107 0.80339 0.60596 0.0
O445 O 0.73776 0.61243 0.62029 0.0
C446 C 0.82376 0.65263 0.67369 0.0
C447 C 0.77559 0.75437 0.60815 0.0
C448 C 0.71119 0.74743 0.63806 0.0
N449 N 0.73423 0.68959 0.64288 0.0
C450 C 0.76902 0.71317 0.6218 0.0
C451 C 0.70568 0.70635 0.65124 0.0
C452 C 0.74638 0.7715 0.61635 0.0
C453 C 0.72099 0.52626 0.73671 0.0
N454 N 0.75998 0.54251 0.71877 0.0
C455 C 0.72372 0.52393 0.76898 0.0
C456 C 0.7667 0.53818 0.78286 0.0
C457 C 0.80624 0.55434 0.76439 0.0
C458 C 0.80218 0.55624 0.7322 0.0
C459 C 0.80985 0.45726 0.67569 0.0
C460 C 0.82882 0.5392 0.64602 0.0
C461 C 0.78312 0.47821 0.68141 0.0
N462 N 0.79297 0.51883 0.66676 0.0
C463 C 0.8562 0.51921 0.63967 0.0
C464 C 0.8466 0.47798 0.65463 0.0
C465 C 0.74603 0.5808 0.61051 0.0
C466 C 0.58123 0.55108 0.67004 0.0
C467 C 0.64442 0.60142 0.62366 0.0
C468 C 0.59687 0.57732 0.61689 0.0
C469 C 0.56513 0.55196 0.64028 0.0
N470 N 0.65992 0.60046 0.65292 0.0
C471 C 0.62902 0.57567 0.67596 0.0
Co472 Co 0.10009 0.74397 0.00175 0.0
Co473 Co 0.21084 0.76328 0.01488 0.0
O474 O 0.14389 0.72784 0.02058 0.0
C475 C 0.0883 0.74722 0.06888 0.0
O476 O 0.13373 0.7737 0.06959 0.0
C477 C 0.19615 0.67109 0.99287 0.0
O478 O 0.16912 0.67059 0.97043 0.0
O479 O 0.20296 0.76289 0.96909 0.0
O480 O 0.1332 0.75702 0.96083 0.0
H481 H 0.35808 0.89276 0.9692 0.0
H482 H 0.06498 0.65426 0.0357 0.0
O483 O 0.06748 0.73193 0.04293 0.0
H484 H 0.00661 0.61027 0.92851 0.0
H485 H 0.94012 0.7206 0.98417 0.0
H486 H 0.10664 0.81679 0.95831 0.0
H487 H 0.05365 0.69329 0.94352 0.0
H488 H 0.99753 0.70248 0.00675 0.0
O489 O 0.21309 0.70404 0.01276 0.0
H490 H 0.27346 0.84586 0.97722 0.0
H491 H 0.29146 0.75583 0.03888 0.0
H492 H 0.05042 0.83593 0.935 0.0
H493 H 0.01779 0.57083 0.02175 0.0
H494 H 0.96648 0.78765 0.94791 0.0
H495 H 0.98836 0.54838 0.9678 0.0
O496 O 0.13906 0.81178 0.01251 0.0
H497 H 0.17707 0.69144 0.12131 0.0
H498 H 0.26737 0.83714 0.06165 0.0
H499 H 0.27492 0.83886 0.11869 0.0
H500 H 0.22953 0.76561 0.14892 0.0
H501 H 0.17032 0.69142 0.06423 0.0
H502 H 0.37645 0.80169 0.03134 0.0
H503 H 0.41017 0.87125 0.99638 0.0
O504 O 0.2111 0.82317 0.01725 0.0
C505 C 0.17216 0.76274 0.95126 0.0
C506 C 0.34379 0.86282 0.98456 0.0
C507 C 0.35411 0.81167 0.0194 0.0
N508 N 0.2776 0.79848 0.0088 0.0
C509 C 0.2959 0.83615 0.98927 0.0
C510 C 0.30595 0.78575 0.02354 0.0
C511 C 0.37302 0.85056 0.99985 0.0
C512 C 0.05198 0.64478 0.01224 0.0
N513 N 0.06183 0.6786 0.99049 0.0
C514 C 0.02541 0.59748 0.00445 0.0
C515 C 0.00895 0.5849 0.97416 0.0
C516 C 0.0192 0.61961 0.95211 0.0
C517 C 0.04593 0.66655 0.96072 0.0
C518 C 0.97658 0.74183 0.9783 0.0
C519 C 0.07013 0.79541 0.96385 0.0
C520 C 0.00924 0.73178 0.99106 0.0
N521 N 0.05529 0.75829 0.98361 0.0
C522 C 0.03848 0.80652 0.95067 0.0
C523 C 0.9914 0.77944 0.95795 0.0
C524 C 0.1827 0.83825 0.01645 0.0
C525 C 0.1971 0.72357 0.10839 0.0
C526 C 0.24743 0.80518 0.07463 0.0
C527 C 0.25193 0.80632 0.10693 0.0
C528 C 0.22649 0.76521 0.12387 0.0
N529 N 0.21849 0.76422 0.05962 0.0
C530 C 0.19356 0.72374 0.07607 0.0
Co531 Co 0.4335 0.20204 0.35127 0.0
Co532 Co 0.35463 0.08704 0.33296 0.0
O533 O 0.4099 0.13538 0.35427 0.0
C534 C 0.51631 0.1959 0.33203 0.0
O535 O 0.49131 0.16546 0.31047 0.0
C536 C 0.33524 0.07126 0.39929 0.0
O537 O 0.34908 0.11598 0.39986 0.0
O538 O 0.31726 0.11752 0.34238 0.0
O539 O 0.36958 0.1924 0.3533 0.0
H540 H 0.21793 0.02286 0.2601 0.0
H541 H 0.46992 0.16473 0.3995 0.0
O542 O 0.49837 0.21339 0.34973 0.0
H543 H 0.4077 0.25033 0.45694 0.0
H544 H 0.54425 0.3717 0.37561 0.0
H545 H 0.40513 0.26068 0.31625 0.0
H546 H 0.40537 0.24758 0.39968 0.0
H547 H 0.51456 0.28686 0.37879 0.0
O548 O 0.33381 0.05156 0.37346 0.0
H549 H 0.28738 0.08501 0.28661 0.0
H550 H 0.3045 0.98316 0.33553 0.0
H551 H 0.43348 0.34516 0.3125 0.0
H552 H 0.47343 0.16698 0.45675 0.0
H553 H 0.50301 0.40122 0.34259 0.0
H554 H 0.44197 0.20984 0.48586 0.0
O555 O 0.42892 0.19785 0.30515 0.0
H556 H 0.46151 0.02464 0.35671 0.0
H557 H 0.37182 0.0491 0.27498 0.0
H558 H 0.41852 0.01262 0.26146 0.0
H559 H 0.46372 0.00011 0.30253 0.0
H560 H 0.41461 0.06127 0.36916 0.0
H561 H 0.23496 0.91982 0.30975 0.0
H562 H 0.19129 0.93956 0.27164 0.0
O563 O 0.37489 0.12348 0.29308 0.0
C564 C 0.328 0.15919 0.34932 0.0
C565 C 0.23676 0.01381 0.27657 0.0
C566 C 0.24628 0.95598 0.30448 0.0
N567 N 0.30018 0.03769 0.31234 0.0
C568 C 0.2762 0.04886 0.29157 0.0
C569 C 0.28556 0.99197 0.31904 0.0
C570 C 0.2218 0.96708 0.28308 0.0
C571 C 0.45655 0.18382 0.412 0.0
N572 N 0.43744 0.20599 0.39626 0.0
C573 C 0.45849 0.18483 0.44441 0.0
C574 C 0.44077 0.20883 0.46073 0.0
C575 C 0.42149 0.2315 0.44453 0.0
C576 C 0.42009 0.22968 0.41211 0.0
C577 C 0.51372 0.34759 0.36248 0.0
C578 C 0.43555 0.28489 0.32938 0.0
C579 C 0.49682 0.29953 0.36414 0.0
N580 N 0.45783 0.26884 0.34802 0.0
C581 C 0.45149 0.33268 0.32711 0.0
C582 C 0.49066 0.36415 0.34394 0.0
C583 C 0.4036 0.16598 0.2856 0.0
C584 C 0.44184 0.02977 0.33864 0.0
C585 C 0.39147 0.04384 0.29295 0.0
C586 C 0.41778 0.0231 0.28517 0.0
C587 C 0.44312 0.01607 0.30822 0.0
N588 N 0.39026 0.05702 0.32285 0.0
C589 C 0.41508 0.05033 0.34557 0.0
Co590 Co 0.25786 0.44231 0.67097 0.0
Co591 Co 0.26963 0.34516 0.6631 0.0
O592 O 0.2885 0.40704 0.68022 0.0
C593 C 0.34857 0.52412 0.65001 0.0
O594 O 0.34551 0.50402 0.62315 0.0
C595 C 0.26387 0.33363 0.73066 0.0
O596 O 0.23804 0.35322 0.72924 0.0
O597 O 0.2027 0.32053 0.67306 0.0
O598 O 0.19589 0.38453 0.67087 0.0
H599 H 0.17297 0.19984 0.59998 0.0
H600 H 0.32216 0.46938 0.7247 0.0
O601 O 0.3195 0.502 0.6716 0.0
H602 H 0.17173 0.43664 0.76849 0.0
H603 H 0.23504 0.58166 0.6763 0.0
H604 H 0.18234 0.4279 0.62802 0.0
H605 H 0.18041 0.4301 0.71213 0.0
H606 H 0.26976 0.53406 0.69185 0.0
O607 O 0.27969 0.32605 0.70563 0.0
H608 H 0.19576 0.27809 0.62052 0.0
H609 H 0.30583 0.28 0.67189 0.0
H610 H 0.14624 0.47392 0.61219 0.0
H611 H 0.31514 0.47667 0.7812 0.0
H612 H 0.17287 0.55146 0.63586 0.0
H613 H 0.23944 0.46006 0.80344 0.0
O614 O 0.26273 0.43374 0.62597 0.0
H615 H 0.44178 0.42984 0.68407 0.0
H616 H 0.31918 0.34284 0.60616 0.0
H617 H 0.40148 0.37408 0.59195 0.0
H618 H 0.46342 0.41793 0.63108 0.0
H619 H 0.35909 0.39825 0.69723 0.0
H620 H 0.28401 0.20155 0.65212 0.0
H621 H 0.21725 0.16105 0.61579 0.0
O622 O 0.25813 0.36377 0.62074 0.0
C623 C 0.17837 0.34043 0.67281 0.0
C624 C 0.20225 0.21722 0.61569 0.0
C625 C 0.26453 0.21815 0.64499 0.0
N626 N 0.25239 0.28376 0.6471 0.0
C627 C 0.21543 0.26161 0.62729 0.0
C628 C 0.27668 0.26251 0.65614 0.0
C629 C 0.22707 0.19545 0.6246 0.0
C630 C 0.28925 0.46257 0.73419 0.0
N631 N 0.25178 0.44949 0.71514 0.0
C632 C 0.28543 0.46657 0.7662 0.0
C633 C 0.24292 0.45717 0.77867 0.0
C634 C 0.20491 0.44399 0.75908 0.0
C635 C 0.20999 0.44026 0.72719 0.0
C636 C 0.22303 0.54779 0.66575 0.0
C637 C 0.19363 0.46132 0.63897 0.0
C638 C 0.24262 0.52072 0.67444 0.0
N639 N 0.22793 0.47812 0.66099 0.0
C640 C 0.17318 0.48731 0.62978 0.0
C641 C 0.18818 0.5309 0.64317 0.0
C642 C 0.25785 0.39952 0.60951 0.0
C643 C 0.41509 0.41069 0.66685 0.0
C644 C 0.34596 0.36195 0.62329 0.0
C645 C 0.39248 0.37947 0.61513 0.0
C646 C 0.42722 0.40404 0.6371 0.0
N647 N 0.33434 0.36852 0.65253 0.0
C648 C 0.3682 0.39259 0.67419 0.0
Co649 Co 0.92389 0.27458 0.99024 0.0
Co650 Co 0.81363 0.25833 0.001 0.0
O651 O 0.88049 0.29228 0.00731 0.0
C652 C 0.93108 0.27048 0.05792 0.0
O653 O 0.88556 0.24527 0.05703 0.0
C654 C 0.79981 0.33302 0.97426 0.0
O655 O 0.78756 0.30885 0.94839 0.0
O656 O 0.82273 0.25586 0.95552 0.0
O657 O 0.89302 0.26254 0.9483 0.0
H658 H 0.66306 0.13292 0.95507 0.0
H659 H 0.95986 0.36439 0.02422 0.0
O660 O 0.95392 0.28542 0.0326 0.0
H661 H 0.02535 0.40757 0.91868 0.0
H662 H 0.08244 0.29218 0.97832 0.0
H663 H 0.91747 0.20139 0.9472 0.0
H664 H 0.9746 0.32474 0.933 0.0
H665 H 0.02552 0.31265 0.99857 0.0
O666 O 0.81499 0.31968 0.99699 0.0
H667 H 0.74801 0.17593 0.9635 0.0
H668 H 0.73563 0.26985 0.02463 0.0
H669 H 0.97323 0.17996 0.92618 0.0
H670 H 0.0107 0.44763 0.01097 0.0
H671 H 0.05639 0.22551 0.94176 0.0
H672 H 0.04377 0.46966 0.95785 0.0
O673 O 0.88259 0.20719 1.00051 0.0
H674 H 0.84768 0.33541 0.10587 0.0
H675 H 0.75506 0.18755 0.04875 0.0
H676 H 0.74677 0.18877 0.1056 0.0
H677 H 0.79327 0.26314 0.13454 0.0
H678 H 0.85526 0.33248 0.04906 0.0
H679 H 0.65078 0.22757 0.01729 0.0
H680 H 0.61376 0.15868 0.98212 0.0
O681 O 0.81081 0.19703 0.0053 0.0
C682 C 0.8539 0.25594 0.93815 0.0
C683 C 0.67871 0.16291 0.97041 0.0
C684 C 0.67175 0.21609 0.00521 0.0
N685 N 0.74675 0.22524 0.99462 0.0
C686 C 0.72678 0.18739 0.97526 0.0
C687 C 0.7199 0.23987 0.00935 0.0
C688 C 0.65107 0.1774 0.98556 0.0
C689 C 0.97438 0.37369 0.00112 0.0
N690 N 0.9645 0.33976 0.97945 0.0
C691 C 0.00303 0.42088 0.99372 0.0
C692 C 0.02153 0.43323 0.9639 0.0
C693 C 0.01119 0.39841 0.94191 0.0
C694 C 0.98235 0.35158 0.95013 0.0
C695 C 0.04632 0.27213 0.97131 0.0
C696 C 0.95365 0.22158 0.9539 0.0
C697 C 0.01393 0.28349 0.98275 0.0
N698 N 0.96833 0.25846 0.97387 0.0
C699 C 0.98504 0.20919 0.94201 0.0
C700 C 0.03168 0.23473 0.95079 0.0
C701 C 0.83892 0.18142 0.00469 0.0
C702 C 0.82713 0.30282 0.09351 0.0
C703 C 0.77555 0.21997 0.06118 0.0
C704 C 0.7706 0.2205 0.09337 0.0
C705 C 0.79665 0.26224 0.10959 0.0
N706 N 0.80549 0.25991 0.04556 0.0
C707 C 0.83111 0.30099 0.06132 0.0
H708 H 0.19457 0.57909 0.27604 0.0
H709 H 0.40773 0.78617 0.36455 0.0
H710 H 0.23215 0.57842 0.37176 0.0
H711 H 0.39535 0.77525 0.26474 0.0
H712 H 0.32626 0.72539 0.36901 0.0
H713 H 0.25085 0.66359 0.27371 0.0
C714 C 0.21343 0.59717 0.29683 0.0
C715 C 0.20932 0.57219 0.32406 0.0
C716 C 0.34095 0.7371 0.34609 0.0
C717 C 0.27325 0.66781 0.32163 0.0
C718 C 0.38742 0.772 0.34354 0.0
C719 C 0.40858 0.78485 0.31425 0.0
C720 C 0.31573 0.71441 0.3192 0.0
C721 C 0.38051 0.76585 0.28779 0.0
C722 C 0.24563 0.64516 0.29547 0.0
C723 C 0.23476 0.59669 0.3503 0.0
N724 N 0.33573 0.73054 0.29088 0.0
N725 N 0.26601 0.64304 0.34835 0.0
H726 H 0.6231 0.20859 0.71925 0.0
H727 H 0.62184 0.3997 0.60924 0.0
H728 H 0.64039 0.21451 0.61978 0.0
H729 H 0.64047 0.4117 0.70863 0.0
H730 H 0.59597 0.31621 0.61317 0.0
H731 H 0.59663 0.26542 0.71531 0.0
C732 C 0.61963 0.22047 0.69648 0.0
C733 C 0.63496 0.20778 0.66987 0.0
C734 C 0.60436 0.33685 0.63421 0.0
C735 C 0.60548 0.27306 0.66524 0.0
C736 C 0.6188 0.38441 0.63199 0.0
C737 C 0.63426 0.41266 0.65858 0.0
C738 C 0.60542 0.31776 0.66321 0.0
C739 C 0.62969 0.39115 0.68749 0.0
C740 C 0.60485 0.25317 0.69425 0.0
C741 C 0.62976 0.22424 0.64094 0.0
N742 N 0.61655 0.34516 0.68899 0.0
N743 N 0.61637 0.25677 0.63944 0.0
H744 H 0.40654 0.61227 0.03756 0.0
H745 H 0.21597 0.63646 0.94108 0.0
H746 H 0.42241 0.66084 0.94295 0.0
H747 H 0.22631 0.63988 0.04101 0.0
H748 H 0.27332 0.61068 0.93858 0.0
H749 H 0.32372 0.5879 0.035 0.0
C750 C 0.39224 0.61613 0.01587 0.0
C751 C 0.42138 0.63941 0.99062 0.0
C752 C 0.26183 0.61559 0.96107 0.0
C753 C 0.3272 0.61202 0.98763 0.0
C754 C 0.22886 0.62995 0.96252 0.0
C755 C 0.21717 0.6411 0.99128 0.0
C756 C 0.28276 0.61215 0.98857 0.0
C757 C 0.23508 0.63232 0.01835 0.0
C758 C 0.34508 0.60251 0.0145 0.0
C759 C 0.40113 0.6437 0.96311 0.0
N760 N 0.26764 0.61915 0.01633 0.0
N761 N 0.35542 0.63092 0.96251 0.0
H762 H 0.57622 0.21048 0.28404 0.0
H763 H 0.7812 0.40458 0.38548 0.0
H764 H 0.57192 0.22924 0.38285 0.0
H765 H 0.76784 0.41081 0.2862 0.0
H766 H 0.72101 0.32182 0.38435 0.0
H767 H 0.66063 0.26428 0.28506 0.0
C768 C 0.59328 0.22464 0.30609 0.0
C769 C 0.56718 0.21643 0.33329 0.0
C770 C 0.7324 0.34093 0.36268 0.0
C771 C 0.66308 0.27774 0.33463 0.0
C772 C 0.76705 0.38806 0.36329 0.0
C773 C 0.77857 0.41465 0.33598 0.0
C774 C 0.70946 0.32064 0.33459 0.0
C775 C 0.75912 0.39157 0.30786 0.0
C776 C 0.64135 0.25546 0.30665 0.0
C777 C 0.59085 0.23557 0.36126 0.0
N778 N 0.72473 0.34608 0.30795 0.0
N779 N 0.63737 0.26597 0.36114 0.0
H780 H 0.33952 0.76044 0.61793 0.0
H781 H 0.37592 0.57687 0.70292 0.0
H782 H 0.3828 0.77761 0.71377 0.0
H783 H 0.38001 0.58858 0.60302 0.0
H784 H 0.39438 0.65798 0.70684 0.0
H785 H 0.369 0.7069 0.61047 0.0
C786 C 0.35647 0.75384 0.63719 0.0
C787 C 0.35825 0.77285 0.66659 0.0
C788 C 0.3927 0.64338 0.68405 0.0
C789 C 0.39074 0.71047 0.65857 0.0
C790 C 0.38226 0.59702 0.6818 0.0
C791 C 0.37533 0.57563 0.65259 0.0
C792 C 0.39524 0.6681 0.65689 0.0
C793 C 0.38439 0.60346 0.62602 0.0
C794 C 0.37333 0.72326 0.63296 0.0
C795 C 0.38065 0.76344 0.69076 0.0
N796 N 0.39255 0.6479 0.62879 0.0
N797 N 0.39491 0.73182 0.68645 0.0
H798 H 0.79963 0.37498 0.02929 0.0
H799 H 0.58098 0.3817 0.9692 0.0
H800 H 0.75986 0.36527 0.93289 0.0
H801 H 0.61929 0.38916 0.06577 0.0
H802 H 0.66008 0.40333 0.95458 0.0
H803 H 0.74971 0.4072 0.04143 0.0
C804 C 0.78149 0.38086 0.01049 0.0
C805 C 0.78269 0.36586 0.98017 0.0
C806 C 0.65158 0.40145 0.97901 0.0
C807 C 0.72482 0.40201 0.99404 0.0
C808 C 0.60633 0.38929 0.98741 0.0
C809 C 0.59294 0.3818 0.01877 0.0
C810 C 0.6834 0.40572 0.00212 0.0
C811 C 0.62764 0.39309 0.04126 0.0
C812 C 0.75278 0.39916 0.01748 0.0
C813 C 0.75898 0.37509 0.95675 0.0
N814 N 0.67094 0.40321 0.03249 0.0
N815 N 0.7301 0.39146 0.96429 0.0
H816 H 0.21186 0.3305 0.38446 0.0
H817 H 0.24963 0.12957 0.31366 0.0
H818 H 0.13867 0.25241 0.3029 0.0
H819 H 0.32302 0.216 0.39238 0.0
H820 H 0.19785 0.1627 0.31406 0.0
H821 H 0.24175 0.27785 0.39248 0.0
C822 C 0.20213 0.30207 0.36819 0.0
C823 C 0.17376 0.2963 0.34258 0.0
C824 C 0.2248 0.17373 0.33155 0.0
C825 C 0.20819 0.23575 0.35142 0.0
C826 C 0.25408 0.15467 0.33144 0.0
C827 C 0.29098 0.17081 0.35272 0.0
C828 C 0.23258 0.20868 0.35326 0.0
C829 C 0.29557 0.2034 0.37519 0.0
C830 C 0.219 0.27178 0.37285 0.0
C831 C 0.16096 0.25812 0.32274 0.0
N832 N 0.26703 0.2215 0.37469 0.0
N833 N 0.17902 0.22958 0.32724 0.0
H834 H 0.88299 0.12615 0.66455 0.0
H835 H 0.11695 0.37143 0.67835 0.0
H836 H 0.89778 0.26076 0.6436 0.0
H837 H 0.1223 0.24432 0.6673 0.0
H838 H 0.0335 0.327 0.67293 0.0
H839 H 0.96822 0.16464 0.67021 0.0
C840 C 0.90399 0.16348 0.66071 0.0
C841 C 0.88303 0.19027 0.65383 0.0
C842 C 0.05272 0.30859 0.67168 0.0
C843 C 0.97961 0.23409 0.66076 0.0
C844 C 0.10062 0.334 0.675 0.0
C845 C 0.127 0.31174 0.67305 0.0
C846 C 0.03038 0.26027 0.66635 0.0
C847 C 0.10332 0.26293 0.66888 0.0
C848 C 0.95246 0.18533 0.66407 0.0
C849 C 0.91195 0.23851 0.64919 0.0
N850 N 0.05613 0.23867 0.66551 0.0
N851 N 0.95845 0.25872 0.65298 0.0
H852 H 0.8767 0.12729 0.98732 0.0
H853 H 0.6443 0.8919 0.0332 0.0
H854 H 0.75521 0.11907 0.02979 0.0
H855 H 0.74857 0.89062 0.97428 0.0
H856 H 0.69285 0.97547 0.03935 0.0
H857 H 0.83806 0.04145 0.98892 0.0
C858 C 0.84227 0.10759 0.99737 0.0
C859 C 0.81901 0.13043 0.00829 0.0
C860 C 0.70542 0.95721 0.02505 0.0
C861 C 0.77504 0.0328 0.01021 0.0
C862 C 0.67753 0.90929 0.02143 0.0
C863 C 0.69191 0.88433 0.0026 0.0
C864 C 0.74819 0.981 0.00953 0.0
C865 C 0.73605 0.90873 0.98874 0.0
C866 C 0.82025 0.05868 0.99812 0.0
C867 C 0.77443 0.10318 0.0209 0.0
N868 N 0.76256 0.95607 0.99215 0.0
N869 N 0.754 0.056 0.02142 0.0
H870 H 0.73891 0.87046 0.32814 0.0
H871 H 0.86046 0.74552 0.33228 0.0
H872 H 0.61824 0.73436 0.34383 0.0
H873 H 0.72366 0.62547 0.31802 0.0
H874 H 0.82497 0.79476 0.33641 0.0
H875 H 0.78689 0.83369 0.325 0.0
C876 C 0.72262 0.83301 0.33143 0.0
C877 C 0.67436 0.80552 0.33623 0.0
C878 C 0.80286 0.75782 0.33185 0.0
C879 C 0.72905 0.76322 0.33283 0.0
C880 C 0.82314 0.72963 0.32955 0.0
C881 C 0.79511 0.6812 0.32475 0.0
C882 C 0.75426 0.73721 0.3293 0.0
C883 C 0.7469 0.66248 0.32174 0.0
C884 C 0.75013 0.81202 0.32971 0.0
C885 C 0.65515 0.75714 0.34002 0.0
N886 N 0.72819 0.69041 0.32423 0.0
N887 N 0.68245 0.73769 0.33803 0.0
H888 H 0.10924 0.75798 0.71324 0.0
H889 H 0.87699 0.73463 0.6416 0.0
H890 H 0.11272 0.8492 0.64038 0.0
H891 H 0.88315 0.64946 0.71512 0.0
H892 H 0.96236 0.78454 0.64435 0.0
H893 H 0.02603 0.72545 0.71799 0.0
C894 C 0.09232 0.77123 0.69822 0.0
C895 C 0.11768 0.80572 0.67603 0.0
C896 C 0.94482 0.75523 0.6601 0.0
C897 C 0.02166 0.76816 0.68107 0.0
C898 C 0.89625 0.72697 0.65863 0.0
C899 C 0.87335 0.68743 0.67777 0.0
C900 C 0.97006 0.74377 0.68106 0.0
C901 C 0.89959 0.67885 0.69941 0.0
C902 C 0.04468 0.75274 0.701 0.0
C903 C 0.09417 0.82238 0.65766 0.0
N904 N 0.94641 0.70651 0.70031 0.0
N905 N 0.04712 0.80286 0.66024 0.0
H906 H 0.38768 0.12716 0.01059 0.0
H907 H 0.14196 0.89147 0.0028 0.0
H908 H 0.25972 0.13008 0.00097 0.0
H909 H 0.27058 0.90245 0.0342 0.0
H910 H 0.1818 0.97742 1.00001 0.0
H911 H 0.3431 0.04308 0.01544 0.0
C912 C 0.3501 0.11018 0.00935 0.0
C913 C 0.32752 0.13603 0.00543 0.0
C914 C 0.2009 0.96072 0.0078 0.0
C915 C 0.27576 0.03869 0.01126 0.0
C916 C 0.1782 0.91178 0.00954 0.0
C917 C 0.20298 0.88955 0.01854 0.0
C918 C 0.24856 0.9872 0.01496 0.0
C919 C 0.24993 0.91766 0.02689 0.0
C920 C 0.32454 0.0619 0.01231 0.0
C921 C 0.2786 0.11157 0.00395 0.0
N922 N 0.27108 0.96473 0.02466 0.0
N923 N 0.25424 0.06411 0.00688 0.0
H924 H 0.02512 0.31517 0.07051 0.0
H925 H 0.9888 0.30597 0.25527 0.0
H926 H 0.89088 0.25254 0.11523 0.0
H927 H 0.12232 0.35319 0.21216 0.0
H928 H 0.95296 0.28993 0.20377 0.0
H929 H 0.06221 0.33318 0.12191 0.0
C930 C 0.00348 0.30522 0.09108 0.0
C931 C 0.95482 0.28211 0.08851 0.0
C932 C 0.9901 0.30375 0.20556 0.0
C933 C 0.99693 0.30274 0.14731 0.0
C934 C 0.0106 0.31296 0.235 0.0
C935 C 0.05862 0.33075 0.2381 0.0
C936 C 0.0178 0.3126 0.17894 0.0
C937 C 0.08511 0.33922 0.21092 0.0
C938 C 0.02463 0.31545 0.1204 0.0
C939 C 0.92849 0.27014 0.11598 0.0
N940 N 0.06438 0.33011 0.18252 0.0
N941 N 0.94985 0.2806 0.14413 0.0
H942 H 0.68741 0.98352 0.58758 0.0
H943 H 0.69721 0.01258 0.40225 0.0
H944 H 0.76444 0.11625 0.5405 0.0
H945 H 0.63213 0.8789 0.44884 0.0
H946 H 0.71975 0.0514 0.45287 0.0
H947 H 0.66443 0.9445 0.53699 0.0
C948 C 0.69956 0.00443 0.56664 0.0
C949 C 0.72804 0.05319 0.5683 0.0
C950 C 0.70059 0.01356 0.45199 0.0
C951 C 0.70173 0.00887 0.51038 0.0
C952 C 0.68768 0.99141 0.42309 0.0
C953 C 0.66293 0.94244 0.42128 0.0
C954 C 0.68847 0.98657 0.47928 0.0
C955 C 0.65143 0.91675 0.44908 0.0
C956 C 0.68645 0.98216 0.53777 0.0
C957 C 0.74265 0.07855 0.5404 0.0
N958 N 0.66426 0.93911 0.4769 0.0
N959 N 0.72928 0.05612 0.51264 0.0
H960 H 0.65037 0.77464 0.87366 0.0
H961 H 0.75741 0.63663 0.78661 0.0
H962 H 0.69944 0.69257 0.92113 0.0
H963 H 0.68663 0.69767 0.7386 0.0
H964 H 0.74041 0.66087 0.83595 0.0
H965 H 0.66761 0.75106 0.82395 0.0
C966 C 0.66498 0.75184 0.87366 0.0
C967 C 0.67359 0.73564 0.90164 0.0
C968 C 0.72854 0.66897 0.81467 0.0
C969 C 0.69329 0.70846 0.84475 0.0
C970 C 0.73834 0.65524 0.78642 0.0
C971 C 0.72352 0.66527 0.75838 0.0
C972 C 0.70395 0.6932 0.815 0.0
C973 C 0.69869 0.68922 0.75966 0.0
C974 C 0.67463 0.73825 0.84524 0.0
C975 C 0.69226 0.70592 0.90016 0.0
N976 N 0.68981 0.70252 0.78752 0.0
N977 N 0.70156 0.69338 0.8722 0.0
H978 H 0.12314 0.76597 0.12793 0.0
H979 H 0.87329 0.64381 0.20958 0.0
H980 H 0.99353 0.69874 0.0771 0.0
H981 H 0.00268 0.69884 0.26006 0.0
H982 H 0.91674 0.66618 0.16094 0.0
H983 H 0.07961 0.74415 0.17649 0.0
C984 C 0.08548 0.74672 0.12695 0.0
C985 C 0.06193 0.73429 0.09835 0.0
C986 C 0.93566 0.67341 0.18264 0.0
C987 C 0.01182 0.70909 0.15405 0.0
C988 C 0.91088 0.66076 0.21047 0.0
C989 C 0.93441 0.6696 0.23899 0.0
C990 C 0.98438 0.69522 0.18324 0.0
C991 C 0.98312 0.69139 0.23863 0.0
C992 C 0.06064 0.73417 0.15475 0.0
C993 C 0.01311 0.70909 0.0986 0.0
N994 N 0.00649 0.70351 0.21119 0.0
N995 N 0.98967 0.69739 0.12602 0.0
H996 H 0.34987 0.1079 0.45743 0.0
H997 H 0.22587 0.86287 0.54621 0.0
H998 H 0.2939 0.97607 0.40909 0.0
H999 H 0.307 0.99655 0.59158 0.0
H1000 H 0.24632 0.90256 0.49581 0.0
H1001 H 0.33027 0.06657 0.50662 0.0
C1002 C 0.33334 0.07013 0.45711 0.0
C1003 C 0.32337 0.04538 0.42901 0.0
C1004 C 0.25965 0.92312 0.51681 0.0
C1005 C 0.30068 0.99761 0.48568 0.0
C1006 C 0.24787 0.90056 0.5456 0.0
C1007 C 0.2646 0.92649 0.57318 0.0
C1008 C 0.28806 0.97195 0.51563 0.0
C1009 C 0.29325 0.97514 0.57096 0.0
C1010 C 0.32228 0.04653 0.48533 0.0
C1011 C 0.30218 0.99648 0.43022 0.0
N1012 N 0.30389 0.99625 0.54272 0.0
N1013 N 0.2913 0.97409 0.45816 0.0
H1014 H 0.29769 0.31409 0.92859 0.0
H1015 H 0.31477 0.29095 0.74407 0.0
H1016 H 0.36597 0.24646 0.88596 0.0
H1017 H 0.24054 0.35169 0.78764 0.0
H1018 H 0.33474 0.27491 0.7957 0.0
H1019 H 0.27733 0.32897 0.87692 0.0
C1020 C 0.30837 0.30232 0.90839 0.0
C1021 C 0.33346 0.27887 0.91166 0.0
C1022 C 0.31399 0.29165 0.79391 0.0
C1023 C 0.31035 0.29588 0.85235 0.0
C1024 C 0.30258 0.30079 0.76444 0.0
C1025 C 0.27582 0.32256 0.76147 0.0
C1026 C 0.29867 0.30453 0.82059 0.0
C1027 C 0.26108 0.33467 0.78872 0.0
C1028 C 0.29671 0.31081 0.87886 0.0
C1029 C 0.34641 0.2645 0.8846 0.0
N1030 N 0.27274 0.32555 0.81705 0.0
N1031 N 0.33475 0.27326 0.85612 0.0
H1032 H 0.11711 0.32431 0.43069 0.0
H1033 H 0.27402 0.47494 0.57448 0.0
H1034 H 0.19721 0.47507 0.43264 0.0
H1035 H 0.2126 0.32501 0.56926 0.0
H1036 H 0.24322 0.47457 0.52319 0.0
H1037 H 0.14602 0.32264 0.48292 0.0
C1038 C 0.13985 0.35704 0.44236 0.0
C1039 C 0.15462 0.39992 0.42728 0.0
C1040 C 0.23669 0.4417 0.53305 0.0
C1041 C 0.18859 0.39821 0.48664 0.0
C1042 C 0.25456 0.4419 0.56237 0.0
C1043 C 0.246 0.39991 0.57631 0.0
C1044 C 0.20954 0.39916 0.5174 0.0
C1045 C 0.22038 0.35824 0.55937 0.0
C1046 C 0.15686 0.35604 0.47198 0.0
C1047 C 0.18485 0.44121 0.44332 0.0
N1048 N 0.20269 0.35886 0.53089 0.0
N1049 N 0.20089 0.43929 0.47197 0.0
H1050 H 0.89752 0.22997 0.89463 0.0
H1051 H 0.73676 0.21574 0.75319 0.0
H1052 H 0.78189 0.2537 0.90557 0.0
H1053 H 0.79904 0.12859 0.75718 0.0
H1054 H 0.76246 0.24096 0.8066 0.0
H1055 H 0.87211 0.20432 0.84103 0.0
C1056 C 0.86728 0.23049 0.88577 0.0
C1057 C 0.84211 0.2445 0.90478 0.0
C1058 C 0.77021 0.21608 0.79581 0.0
C1059 C 0.81311 0.21534 0.84355 0.0
C1060 C 0.75549 0.2016 0.76538 0.0
C1061 C 0.76547 0.16974 0.75076 0.0
C1062 C 0.79606 0.19947 0.81153 0.0
C1063 C 0.79013 0.15278 0.76766 0.0
C1064 C 0.85264 0.21548 0.85528 0.0
C1065 C 0.80285 0.24385 0.89194 0.0
N1066 N 0.80504 0.16824 0.79706 0.0
N1067 N 0.78977 0.22979 0.86218 0.0
H1068 H 0.50552 0.77885 0.23724 0.0
H1069 H 0.65727 0.78295 0.09315 0.0
H1070 H 0.65278 0.8771 0.22983 0.0
H1071 H 0.50946 0.72996 0.08613 0.0
H1072 H 0.65574 0.80792 0.14636 0.0
H1073 H 0.50588 0.753 0.18414 0.0
C1074 C 0.53786 0.79537 0.22435 0.0
C1075 C 0.57921 0.8303 0.23804 0.0
C1076 C 0.62365 0.79059 0.13318 0.0
C1077 C 0.57995 0.79995 0.17751 0.0
C1078 C 0.62435 0.77581 0.10291 0.0
C1079 C 0.58342 0.75433 0.08507 0.0
C1080 C 0.58164 0.78325 0.14588 0.0
C1081 C 0.54187 0.74645 0.09898 0.0
C1082 C 0.53801 0.78047 0.19407 0.0
C1083 C 0.62006 0.85031 0.22019 0.0
N1084 N 0.54204 0.76089 0.12856 0.0
N1085 N 0.61951 0.83447 0.19095 0.0
H1086 H 0.76578 0.50268 0.42037 0.0
H1087 H 0.77067 0.64991 0.56722 0.0
H1088 H 0.86102 0.65119 0.42827 0.0
H1089 H 0.73991 0.50724 0.57704 0.0
H1090 H 0.79071 0.64841 0.51278 0.0
H1091 H 0.74434 0.50124 0.47512 0.0
C1092 C 0.78237 0.53489 0.43363 0.0
C1093 C 0.81535 0.57713 0.41971 0.0
C1094 C 0.77941 0.61742 0.52688 0.0
C1095 C 0.7901 0.57579 0.48187 0.0
C1096 C 0.7676 0.61809 0.55789 0.0
C1097 C 0.75376 0.57869 0.57681 0.0
C1098 C 0.77647 0.57681 0.51446 0.0
C1099 C 0.75066 0.53849 0.56335 0.0
C1100 C 0.77011 0.53399 0.46479 0.0
C1101 C 0.83569 0.61781 0.43801 0.0
N1102 N 0.76176 0.53849 0.53292 0.0
N1103 N 0.82234 0.61622 0.46801 0.0
H1104 H 0.1328 0.79339 0.9081 0.0
H1105 H 0.2775 0.7842 0.76435 0.0
H1106 H 0.23828 0.75464 0.91839 0.0
H1107 H 0.21957 0.87532 0.7668 0.0
H1108 H 0.25773 0.76598 0.81928 0.0
H1109 H 0.15676 0.81489 0.85407 0.0
C1110 C 0.1607 0.789 0.89897 0.0
C1111 C 0.1836 0.77224 0.91786 0.0
C1112 C 0.24982 0.79033 0.80783 0.0
C1113 C 0.21113 0.79682 0.85608 0.0
C1114 C 0.26116 0.80083 0.77653 0.0
C1115 C 0.25026 0.83142 0.76095 0.0
C1116 C 0.22657 0.80979 0.82351 0.0
C1117 C 0.22893 0.85182 0.77789 0.0
C1118 C 0.1746 0.80167 0.86821 0.0
C1119 C 0.21975 0.76758 0.90473 0.0
N1120 N 0.21725 0.84018 0.80816 0.0
N1121 N 0.23226 0.7796 0.87461 0.0
H1122 H 0.33917 0.12085 0.23941 0.0
H1123 H 0.48347 0.30406 0.10677 0.0
H1124 H 0.47197 0.24457 0.25701 0.0
H1125 H 0.33407 0.21707 0.10303 0.0
H1126 H 0.48238 0.2783 0.16011 0.0
H1127 H 0.33967 0.14971 0.18695 0.0
C1128 C 0.36865 0.1538 0.2322 0.0
C1129 C 0.40556 0.18033 0.25274 0.0
C1130 C 0.4498 0.26522 0.14772 0.0
C1131 C 0.4062 0.21351 0.19274 0.0
C1132 C 0.45037 0.27997 0.11727 0.0
C1133 C 0.40879 0.26278 0.10037 0.0
C1134 C 0.40745 0.23225 0.16123 0.0
C1135 C 0.3669 0.23156 0.11525 0.0
C1136 C 0.36867 0.17044 0.20234 0.0
C1137 C 0.4427 0.22297 0.24205 0.0
N1138 N 0.36733 0.2168 0.14471 0.0
N1139 N 0.44214 0.23812 0.21278 0.0
loop_
_geom_bond_atom_site_label_1
_geom_bond_atom_site_label_2
_geom_bond_distance
_geom_bond_site_symmetry_2
_ccdc_geom_bond_type
Co0 O2 2.143 . S
Co0 O8 2.074 . S
Co0 O11 2.093 . S
Co0 O24 2.097 . S
Co0 N41 2.151 . S
Co0 N49 2.214 . S
Co1 O2 2.160 . S
Co1 O7 2.058 . S
Co1 O17 2.057 . S
Co1 O32 2.037 . S
Co1 N36 2.145 1_455 S
Co1 N57 2.257 . S
O2 Co0 2.143 . S
O2 Co1 2.160 . S
C3 O4 1.278 . S
C3 O11 1.224 . S
O4 C3 1.278 . S
C5 O6 1.245 . S
C5 O17 1.232 . S
O6 C5 1.245 . S
O7 Co1 2.058 . S
O7 C33 1.269 . S
O8 Co0 2.074 . S
O8 C33 1.257 . S
H9 C34 0.930 . S
H10 C40 0.930 . S
O11 Co0 2.093 . S
O11 C3 1.224 . S
H12 C44 0.929 . S
H13 C46 0.930 . S
H14 C47 0.930 . S
H15 C45 0.929 . S
H16 C48 0.928 . S
O17 Co1 2.057 . S
O17 C5 1.232 . S
H18 C37 0.929 1_455 S
H19 C38 0.929 . S
H20 C50 0.931 . S
H21 C42 0.929 . S
H22 C51 0.930 . S
H23 C43 0.931 . S
O24 Co0 2.097 . S
O24 C52 1.214 . S
H25 C53 0.929 . S
H26 C54 0.929 . S
H27 C55 0.930 1_655 S
H28 C56 0.929 1_655 S
H29 C58 0.930 . S
H30 C35 0.930 . S
H31 C39 0.930 . S
O32 Co1 2.037 . S
O32 C52 1.234 . S
C33 O7 1.269 . S
C33 O8 1.257 . S
C34 H9 0.930 . S
C34 C37 1.388 . S
C34 C39 1.418 . S
C35 H30 0.930 . S
C35 C38 1.404 . S
C35 C39 1.353 . S
N36 Co1 2.145 1_655 S
N36 C37 1.397 . S
N36 C38 1.334 . S
C37 H18 0.929 1_655 S
C37 C34 1.388 . S
C37 N36 1.397 . S
C38 H19 0.929 . S
C38 C35 1.404 . S
C38 N36 1.334 . S
C39 H31 0.930 . S
C39 C34 1.418 . S
C39 C35 1.353 . S
C40 H10 0.930 . S
C40 N41 1.330 . S
C40 C42 1.446 . S
N41 Co0 2.151 . S
N41 C40 1.330 . S
N41 C45 1.418 . S
C42 H21 0.929 . S
C42 C40 1.446 . S
C42 C43 1.332 . S
C43 H23 0.931 . S
C43 C42 1.332 . S
C43 C44 1.267 . S
C44 H12 0.929 . S
C44 C43 1.267 . S
C44 C45 1.251 . S
C45 H15 0.929 . S
C45 N41 1.418 . S
C45 C44 1.251 . S
C46 H13 0.930 . S
C46 C48 1.406 . S
C46 C51 1.261 . S
C47 H14 0.930 . S
C47 N49 1.325 . S
C47 C50 1.357 . S
C48 H16 0.928 . S
C48 C46 1.406 . S
C48 N49 1.261 . S
N49 Co0 2.214 . S
N49 C47 1.325 . S
N49 C48 1.261 . S
C50 H20 0.931 . S
C50 C47 1.357 . S
C50 C51 1.312 . S
C51 H22 0.930 . S
C51 C46 1.261 . S
C51 C50 1.312 . S
C52 O24 1.214 . S
C52 O32 1.234 . S
C53 H25 0.929 . S
C53 C56 1.391 . S
C53 C58 1.391 . S
C54 H26 0.929 . S
C54 C55 1.390 . S
C54 N57 1.391 . S
C55 H27 0.930 1_455 S
C55 C54 1.390 . S
C55 C56 1.392 . S
C56 H28 0.929 1_455 S
C56 C53 1.391 . S
C56 C55 1.392 . S
N57 Co1 2.257 . S
N57 C54 1.391 . S
N57 C58 1.388 . S
C58 H29 0.930 . S
C58 C53 1.391 . S
C58 N57 1.388 . S
Co59 O61 2.143 . S
Co59 O67 2.074 . S
Co59 O70 2.093 . S
Co59 O83 2.097 . S
Co59 N100 2.151 . S
Co59 N108 2.214 . S
Co60 O61 2.160 . S
Co60 O66 2.058 . S
Co60 O76 2.057 . S
Co60 O91 2.037 . S
Co60 N95 2.145 1_545 S
Co60 N116 2.257 . S
O61 Co59 2.143 . S
O61 Co60 2.160 . S
C62 O63 1.278 . S
C62 O70 1.224 . S
O63 C62 1.278 . S
C64 O65 1.245 . S
C64 O76 1.232 . S
O65 C64 1.245 . S
O66 Co60 2.058 . S
O66 C92 1.269 . S
O67 Co59 2.074 . S
O67 C92 1.257 . S
H68 C93 0.930 . S
H69 C99 0.930 . S
O70 Co59 2.093 . S
O70 C62 1.224 . S
H71 C103 0.929 . S
H72 C105 0.930 . S
H73 C106 0.930 . S
H74 C104 0.929 . S
H75 C107 0.928 . S
O76 Co60 2.057 . S
O76 C64 1.232 . S
H77 C96 0.929 1_545 S
H78 C97 0.929 . S
H79 C109 0.931 . S
H80 C101 0.929 . S
H81 C110 0.930 . S
H82 C102 0.931 . S
O83 Co59 2.097 . S
O83 C111 1.214 . S
H84 C112 0.929 . S
H85 C113 0.929 . S
H86 C114 0.935 . S
H87 C115 0.929 1_565 S
H88 C117 0.930 . S
H89 C94 0.930 . S
H90 C98 0.930 . S
O91 Co60 2.037 . S
O91 C111 1.234 . S
C92 O66 1.269 . S
C92 O67 1.257 . S
C93 H68 0.930 . S
C93 C96 1.388 . S
C93 C98 1.418 . S
C94 H89 0.930 . S
C94 C97 1.404 . S
C94 C98 1.353 . S
N95 Co60 2.145 1_565 S
N95 C96 1.397 . S
N95 C97 1.334 . S
C96 H77 0.929 1_565 S
C96 C93 1.388 . S
C96 N95 1.397 . S
C97 H78 0.929 . S
C97 C94 1.404 . S
C97 N95 1.334 . S
C98 H90 0.930 . S
C98 C93 1.418 . S
C98 C94 1.353 . S
C99 H69 0.930 . S
C99 N100 1.330 . S
C99 C101 1.446 . S
N100 Co59 2.151 . S
N100 C99 1.330 . S
N100 C104 1.418 . S
C101 H80 0.929 . S
C101 C99 1.446 . S
C101 C102 1.332 . S
C102 H82 0.931 . S
C102 C101 1.332 . S
C102 C103 1.267 . S
C103 H71 0.929 . S
C103 C102 1.267 . S
C103 C104 1.251 . S
C104 H74 0.929 . S
C104 N100 1.418 . S
C104 C103 1.251 . S
C105 H72 0.930 . S
C105 C107 1.406 . S
C105 C110 1.261 . S
C106 H73 0.930 . S
C106 N108 1.325 . S
C106 C109 1.357 . S
C107 H75 0.928 . S
C107 C105 1.406 . S
C107 N108 1.261 . S
N108 Co59 2.214 . S
N108 C106 1.325 . S
N108 C107 1.261 . S
C109 H79 0.931 . S
C109 C106 1.357 . S
C109 C110 1.312 . S
C110 H81 0.930 . S
C110 C105 1.261 . S
C110 C109 1.312 . S
C111 O83 1.214 . S
C111 O91 1.234 . S
C112 H84 0.929 . S
C112 C115 1.391 . S
C112 C117 1.391 . S
C113 H85 0.929 . S
C113 C114 1.394 1_545 S
C113 N116 1.391 . S
C114 H86 0.935 . S
C114 C113 1.394 1_565 S
C114 C115 1.382 1_565 S
C115 H87 0.929 1_545 S
C115 C112 1.391 . S
C115 C114 1.382 1_545 S
N116 Co60 2.257 . S
N116 C113 1.391 . S
N116 C117 1.388 . S
C117 H88 0.930 . S
C117 C112 1.391 . S
C117 N116 1.388 . S
Co118 O120 2.143 1_554 S
Co118 O126 2.074 . S
Co118 O129 2.093 1_554 S
Co118 O142 2.097 1_554 S
Co118 N159 2.151 . S
Co118 N167 2.214 . S
Co119 O120 2.160 1_554 S
Co119 O125 2.058 . S
Co119 O135 2.057 . S
Co119 O150 2.037 . S
Co119 N154 2.145 . S
Co119 N175 2.257 1_554 S
O120 Co118 2.143 1_556 S
O120 Co119 2.160 1_556 S
C121 O122 1.278 . S
C121 O129 1.224 . S
O122 C121 1.278 . S
C123 O124 1.245 . S
C123 O135 1.232 1_556 S
O124 C123 1.245 . S
O125 Co119 2.058 . S
O125 C151 1.269 . S
O126 Co118 2.074 . S
O126 C151 1.257 . S
H127 C152 0.930 . S
H128 C158 0.930 . S
O129 Co118 2.093 1_556 S
O129 C121 1.224 . S
H130 C162 0.929 . S
H131 C164 0.930 . S
H132 C165 0.930 . S
H133 C163 0.929 . S
H134 C166 0.928 1_556 S
O135 Co119 2.057 . S
O135 C123 1.232 1_554 S
H136 C155 0.929 . S
H137 C156 0.929 . S
H138 C168 0.931 . S
H139 C160 0.929 1_556 S
H140 C169 0.930 . S
H141 C161 0.931 . S
O142 Co118 2.097 1_556 S
O142 C170 1.216 . S
H143 C171 0.929 . S
H144 C172 0.929 . S
H145 C173 0.930 . S
H146 C174 0.929 . S
H147 C176 0.930 . S
H148 C153 0.930 . S
H149 C157 0.930 . S
O150 Co119 2.037 . S
O150 C170 1.232 1_554 S
C151 O125 1.269 . S
C151 O126 1.257 . S
C152 H127 0.930 . S
C152 C155 1.388 . S
C152 C157 1.418 . S
C153 H148 0.930 . S
C153 C156 1.404 . S
C153 C157 1.353 . S
N154 Co119 2.145 . S
N154 C155 1.397 . S
N154 C156 1.334 . S
C155 H136 0.929 . S
C155 C152 1.388 . S
C155 N154 1.397 . S
C156 H137 0.929 . S
C156 C153 1.404 . S
C156 N154 1.334 . S
C157 H149 0.930 . S
C157 C152 1.418 . S
C157 C153 1.353 . S
C158 H128 0.930 . S
C158 N159 1.330 1_556 S
C158 C160 1.446 1_556 S
N159 Co118 2.151 . S
N159 C158 1.330 1_554 S
N159 C163 1.418 . S
C160 H139 0.929 1_554 S
C160 C158 1.446 1_554 S
C160 C161 1.332 . S
C161 H141 0.931 . S
C161 C160 1.332 . S
C161 C162 1.267 . S
C162 H130 0.929 . S
C162 C161 1.267 . S
C162 C163 1.251 . S
C163 H133 0.929 . S
C163 N159 1.418 . S
C163 C162 1.251 . S
C164 H131 0.930 . S
C164 C166 1.406 . S
C164 C169 1.261 . S
C165 H132 0.930 . S
C165 N167 1.325 . S
C165 C168 1.357 . S
C166 H134 0.928 1_554 S
C166 C164 1.406 . S
C166 N167 1.261 . S
N167 Co118 2.214 . S
N167 C165 1.325 . S
N167 C166 1.261 . S
C168 H138 0.931 . S
C168 C165 1.357 . S
C168 C169 1.312 . S
C169 H140 0.930 . S
C169 C164 1.261 . S
C169 C168 1.312 . S
C170 O142 1.216 . S
C170 O150 1.232 1_556 S
C171 H143 0.929 . S
C171 C174 1.391 . S
C171 C176 1.391 . S
C172 H144 0.929 . S
C172 C173 1.390 . S
C172 N175 1.391 . S
C173 H145 0.930 . S
C173 C172 1.390 . S
C173 C174 1.392 . S
C174 H146 0.929 . S
C174 C171 1.391 . S
C174 C173 1.392 . S
N175 Co119 2.257 1_556 S
N175 C172 1.391 . S
N175 C176 1.388 . S
C176 H147 0.930 . S
C176 C171 1.391 . S
C176 N175 1.388 . S
Co177 O179 2.143 . S
Co177 O185 2.074 . S
Co177 O188 2.093 . S
Co177 O201 2.097 . S
Co177 N218 2.151 . S
Co177 N226 2.214 . S
Co178 O179 2.160 . S
Co178 O184 2.058 . S
Co178 O194 2.057 . S
Co178 O209 2.037 . S
Co178 N213 2.145 1_655 S
Co178 N234 2.257 . S
O179 Co177 2.143 . S
O179 Co178 2.160 . S
C180 O181 1.278 . S
C180 O188 1.224 . S
O181 C180 1.278 . S
C182 O183 1.245 . S
C182 O194 1.232 . S
O183 C182 1.245 . S
O184 Co178 2.058 . S
O184 C210 1.269 . S
O185 Co177 2.074 . S
O185 C210 1.257 . S
H186 C211 0.930 . S
H187 C217 0.930 . S
O188 Co177 2.093 . S
O188 C180 1.224 . S
H189 C221 0.929 . S
H190 C223 0.930 . S
H191 C224 0.930 . S
H192 C222 0.929 . S
H193 C225 0.928 . S
O194 Co178 2.057 . S
O194 C182 1.232 . S
H195 C214 0.929 1_655 S
H196 C215 0.929 . S
H197 C227 0.931 . S
H198 C219 0.929 . S
H199 C228 0.930 . S
H200 C220 0.931 . S
O201 Co177 2.097 . S
O201 C229 1.214 . S
H202 C230 0.929 . S
H203 C231 0.929 . S
H204 C232 0.930 1_455 S
H205 C233 0.929 1_455 S
H206 C235 0.930 . S
H207 C212 0.930 . S
H208 C216 0.930 . S
O209 Co178 2.037 . S
O209 C229 1.234 . S
C210 O184 1.269 . S
C210 O185 1.257 . S
C211 H186 0.930 . S
C211 C214 1.388 . S
C211 C216 1.418 . S
C212 H207 0.930 . S
C212 C215 1.404 . S
C212 C216 1.353 . S
N213 Co178 2.145 1_455 S
N213 C214 1.397 . S
N213 C215 1.334 . S
C214 H195 0.929 1_455 S
C214 C211 1.388 . S
C214 N213 1.397 . S
C215 H196 0.929 . S
C215 C212 1.404 . S
C215 N213 1.334 . S
C216 H208 0.930 . S
C216 C211 1.418 . S
C216 C212 1.353 . S
C217 H187 0.930 . S
C217 N218 1.330 . S
C217 C219 1.446 . S
N218 Co177 2.151 . S
N218 C217 1.330 . S
N218 C222 1.418 . S
C219 H198 0.929 . S
C219 C217 1.446 . S
C219 C220 1.332 . S
C220 H200 0.931 . S
C220 C219 1.332 . S
C220 C221 1.267 . S
C221 H189 0.929 . S
C221 C220 1.267 . S
C221 C222 1.251 . S
C222 H192 0.929 . S
C222 N218 1.418 . S
C222 C221 1.251 . S
C223 H190 0.930 . S
C223 C225 1.406 . S
C223 C228 1.261 . S
C224 H191 0.930 . S
C224 N226 1.325 . S
C224 C227 1.357 . S
C225 H193 0.928 . S
C225 C223 1.406 . S
C225 N226 1.261 . S
N226 Co177 2.214 . S
N226 C224 1.325 . S
N226 C225 1.261 . S
C227 H197 0.931 . S
C227 C224 1.357 . S
C227 C228 1.312 . S
C228 H199 0.930 . S
C228 C223 1.261 . S
C228 C227 1.312 . S
C229 O201 1.214 . S
C229 O209 1.234 . S
C230 H202 0.929 . S
C230 C233 1.391 . S
C230 C235 1.391 . S
C231 H203 0.929 . S
C231 C232 1.390 . S
C231 N234 1.391 . S
C232 H204 0.930 1_655 S
C232 C231 1.390 . S
C232 C233 1.392 . S
C233 H205 0.929 1_655 S
C233 C230 1.391 . S
C233 C232 1.392 . S
N234 Co178 2.257 . S
N234 C231 1.391 . S
N234 C235 1.388 . S
C235 H206 0.930 . S
C235 C230 1.391 . S
C235 N234 1.388 . S
Co236 O238 2.143 . S
Co236 O244 2.074 . S
Co236 O247 2.093 . S
Co236 O260 2.097 . S
Co236 N277 2.151 . S
Co236 N285 2.214 . S
Co237 O238 2.160 . S
Co237 O243 2.058 . S
Co237 O253 2.057 . S
Co237 O268 2.037 . S
Co237 N272 2.145 1_565 S
Co237 N293 2.257 . S
O238 Co236 2.143 . S
O238 Co237 2.160 . S
C239 O240 1.278 . S
C239 O247 1.224 . S
O240 C239 1.278 . S
C241 O242 1.245 . S
C241 O253 1.232 . S
O242 C241 1.245 . S
O243 Co237 2.058 . S
O243 C269 1.269 . S
O244 Co236 2.074 . S
O244 C269 1.257 . S
H245 C270 0.930 . S
H246 C276 0.930 . S
O247 Co236 2.093 . S
O247 C239 1.224 . S
H248 C280 0.929 . S
H249 C282 0.930 . S
H250 C283 0.930 . S
H251 C281 0.929 . S
H252 C284 0.928 . S
O253 Co237 2.057 . S
O253 C241 1.232 . S
H254 C273 0.929 1_565 S
H255 C274 0.929 . S
H256 C286 0.931 . S
H257 C278 0.929 . S
H258 C287 0.930 . S
H259 C279 0.931 . S
O260 Co236 2.097 . S
O260 C288 1.214 . S
H261 C289 0.929 . S
H262 C290 0.929 . S
H263 C291 0.935 . S
H264 C292 0.929 1_545 S
H265 C294 0.930 . S
H266 C271 0.930 . S
H267 C275 0.930 . S
O268 Co237 2.037 . S
O268 C288 1.234 . S
C269 O243 1.269 . S
C269 O244 1.257 . S
C270 H245 0.930 . S
C270 C273 1.388 . S
C270 C275 1.418 . S
C271 H266 0.930 . S
C271 C274 1.404 . S
C271 C275 1.353 . S
N272 Co237 2.145 1_545 S
N272 C273 1.397 . S
N272 C274 1.334 . S
C273 H254 0.929 1_545 S
C273 C270 1.388 . S
C273 N272 1.397 . S
C274 H255 0.929 . S
C274 C271 1.404 . S
C274 N272 1.334 . S
C275 H267 0.930 . S
C275 C270 1.418 . S
C275 C271 1.353 . S
C276 H246 0.930 . S
C276 N277 1.330 . S
C276 C278 1.446 . S
N277 Co236 2.151 . S
N277 C276 1.330 . S
N277 C281 1.418 . S
C278 H257 0.929 . S
C278 C276 1.446 . S
C278 C279 1.332 . S
C279 H259 0.931 . S
C279 C278 1.332 . S
C279 C280 1.267 . S
C280 H248 0.929 . S
C280 C279 1.267 . S
C280 C281 1.251 . S
C281 H251 0.929 . S
C281 N277 1.418 . S
C281 C280 1.251 . S
C282 H249 0.930 . S
C282 C284 1.406 . S
C282 C287 1.261 . S
C283 H250 0.930 . S
C283 N285 1.325 . S
C283 C286 1.357 . S
C284 H252 0.928 . S
C284 C282 1.406 . S
C284 N285 1.261 . S
N285 Co236 2.214 . S
N285 C283 1.325 . S
N285 C284 1.261 . S
C286 H256 0.931 . S
C286 C283 1.357 . S
C286 C287 1.312 . S
C287 H258 0.930 . S
C287 C282 1.261 . S
C287 C286 1.312 . S
C288 O260 1.214 . S
C288 O268 1.234 . S
C289 H261 0.929 . S
C289 C292 1.391 . S
C289 C294 1.391 . S
C290 H262 0.929 . S
C290 C291 1.394 1_565 S
C290 N293 1.391 . S
C291 H263 0.935 . S
C291 C290 1.394 1_545 S
C291 C292 1.382 1_545 S
C292 H264 0.929 1_565 S
C292 C289 1.391 . S
C292 C291 1.382 1_565 S
N293 Co237 2.257 . S
N293 C290 1.391 . S
N293 C294 1.388 . S
C294 H265 0.930 . S
C294 C289 1.391 . S
C294 N293 1.388 . S
Co295 O297 2.143 1_554 S
Co295 O303 2.074 . S
Co295 O306 2.093 1_554 S
Co295 O319 2.097 1_554 S
Co295 N336 2.151 . S
Co295 N344 2.214 . S
Co296 O297 2.160 1_554 S
Co296 O302 2.058 . S
Co296 O312 2.057 . S
Co296 O327 2.037 . S
Co296 N331 2.145 . S
Co296 N352 2.257 1_554 S
O297 Co295 2.143 1_556 S
O297 Co296 2.160 1_556 S
C298 O299 1.278 . S
C298 O306 1.224 . S
O299 C298 1.278 . S
C300 O301 1.245 . S
C300 O312 1.232 1_556 S
O301 C300 1.245 . S
O302 Co296 2.058 . S
O302 C328 1.269 . S
O303 Co295 2.074 . S
O303 C328 1.257 . S
H304 C329 0.930 . S
H305 C335 0.930 . S
O306 Co295 2.093 1_556 S
O306 C298 1.224 . S
H307 C339 0.929 . S
H308 C341 0.930 . S
H309 C342 0.930 . S
H310 C340 0.929 . S
H311 C343 0.928 1_556 S
O312 Co296 2.057 . S
O312 C300 1.232 1_554 S
H313 C332 0.929 . S
H314 C333 0.929 . S
H315 C345 0.931 . S
H316 C337 0.929 1_556 S
H317 C346 0.930 . S
H318 C338 0.931 . S
O319 Co295 2.097 1_556 S
O319 C347 1.216 . S
H320 C348 0.929 . S
H321 C349 0.929 . S
H322 C350 0.930 . S
H323 C351 0.929 . S
H324 C353 0.930 . S
H325 C330 0.930 . S
H326 C334 0.930 . S
O327 Co296 2.037 . S
O327 C347 1.232 1_554 S
C328 O302 1.269 . S
C328 O303 1.257 . S
C329 H304 0.930 . S
C329 C332 1.388 . S
C329 C334 1.418 . S
C330 H325 0.930 . S
C330 C333 1.404 . S
C330 C334 1.353 . S
N331 Co296 2.145 . S
N331 C332 1.397 . S
N331 C333 1.334 . S
C332 H313 0.929 . S
C332 C329 1.388 . S
C332 N331 1.397 . S
C333 H314 0.929 . S
C333 C330 1.404 . S
C333 N331 1.334 . S
C334 H326 0.930 . S
C334 C329 1.418 . S
C334 C330 1.353 . S
C335 H305 0.930 . S
C335 N336 1.330 1_556 S
C335 C337 1.446 1_556 S
N336 Co295 2.151 . S
N336 C335 1.330 1_554 S
N336 C340 1.418 . S
C337 H316 0.929 1_554 S
C337 C335 1.446 1_554 S
C337 C338 1.332 . S
C338 H318 0.931 . S
C338 C337 1.332 . S
C338 C339 1.267 . S
C339 H307 0.929 . S
C339 C338 1.267 . S
C339 C340 1.251 . S
C340 H310 0.929 . S
C340 N336 1.418 . S
C340 C339 1.251 . S
C341 H308 0.930 . S
C341 C343 1.406 . S
C341 C346 1.261 . S
C342 H309 0.930 . S
C342 N344 1.325 . S
C342 C345 1.357 . S
C343 H311 0.928 1_554 S
C343 C341 1.406 . S
C343 N344 1.261 . S
N344 Co295 2.214 . S
N344 C342 1.325 . S
N344 C343 1.261 . S
C345 H315 0.931 . S
C345 C342 1.357 . S
C345 C346 1.312 . S
C346 H317 0.930 . S
C346 C341 1.261 . S
C346 C345 1.312 . S
C347 O319 1.216 . S
C347 O327 1.232 1_556 S
C348 H320 0.929 . S
C348 C351 1.391 . S
C348 C353 1.391 . S
C349 H321 0.929 . S
C349 C350 1.390 . S
C349 N352 1.391 . S
C350 H322 0.930 . S
C350 C349 1.390 . S
C350 C351 1.392 . S
C351 H323 0.929 . S
C351 C348 1.391 . S
C351 C350 1.392 . S
N352 Co296 2.257 1_556 S
N352 C349 1.391 . S
N352 C353 1.388 . S
C353 H324 0.930 . S
C353 C348 1.391 . S
C353 N352 1.388 . S
Co354 O356 2.143 . S
Co354 O362 2.074 . S
Co354 O365 2.093 . S
Co354 O378 2.097 . S
Co354 N395 2.151 . S
Co354 N403 2.214 . S
Co355 O356 2.160 . S
Co355 O361 2.058 . S
Co355 O371 2.057 . S
Co355 O386 2.037 . S
Co355 N390 2.145 1_565 S
Co355 N411 2.257 . S
O356 Co354 2.143 . S
O356 Co355 2.160 . S
C357 O358 1.278 . S
C357 O365 1.224 . S
O358 C357 1.278 . S
C359 O360 1.245 . S
C359 O371 1.232 . S
O360 C359 1.245 . S
O361 Co355 2.058 . S
O361 C387 1.269 . S
O362 Co354 2.074 . S
O362 C387 1.257 . S
H363 C388 0.930 . S
H364 C394 0.930 . S
O365 Co354 2.093 . S
O365 C357 1.224 . S
H366 C398 0.929 . S
H367 C400 0.930 . S
H368 C401 0.930 . S
H369 C399 0.929 . S
H370 C402 0.928 . S
O371 Co355 2.057 . S
O371 C359 1.232 . S
H372 C391 0.929 1_565 S
H373 C392 0.929 . S
H374 C404 0.931 . S
H375 C396 0.929 . S
H376 C405 0.930 . S
H377 C397 0.931 . S
O378 Co354 2.097 . S
O378 C406 1.214 . S
H379 C407 0.929 . S
H380 C408 0.929 . S
H381 C409 0.938 . S
H382 C410 0.929 1_545 S
H383 C412 0.930 . S
H384 C389 0.930 . S
H385 C393 0.930 . S
O386 Co355 2.037 . S
O386 C406 1.234 . S
C387 O361 1.269 . S
C387 O362 1.257 . S
C388 H363 0.930 . S
C388 C391 1.388 . S
C388 C393 1.418 . S
C389 H384 0.930 . S
C389 C392 1.404 . S
C389 C393 1.353 . S
N390 Co355 2.145 1_545 S
N390 C391 1.397 . S
N390 C392 1.334 . S
C391 H372 0.929 1_545 S
C391 C388 1.388 . S
C391 N390 1.397 . S
C392 H373 0.929 . S
C392 C389 1.404 . S
C392 N390 1.334 . S
C393 H385 0.930 . S
C393 C388 1.418 . S
C393 C389 1.353 . S
C394 H364 0.930 . S
C394 N395 1.330 . S
C394 C396 1.446 . S
N395 Co354 2.151 . S
N395 C394 1.330 . S
N395 C399 1.418 . S
C396 H375 0.929 . S
C396 C394 1.446 . S
C396 C397 1.332 . S
C397 H377 0.931 . S
C397 C396 1.332 . S
C397 C398 1.267 . S
C398 H366 0.929 . S
C398 C397 1.267 . S
C398 C399 1.251 . S
C399 H369 0.929 . S
C399 N395 1.418 . S
C399 C398 1.251 . S
C400 H367 0.930 . S
C400 C402 1.406 . S
C400 C405 1.261 . S
C401 H368 0.930 . S
C401 N403 1.325 . S
C401 C404 1.357 . S
C402 H370 0.928 . S
C402 C400 1.406 . S
C402 N403 1.261 . S
N403 Co354 2.214 . S
N403 C401 1.325 . S
N403 C402 1.261 . S
C404 H374 0.931 . S
C404 C401 1.357 . S
C404 C405 1.312 . S
C405 H376 0.930 . S
C405 C400 1.261 . S
C405 C404 1.312 . S
C406 O378 1.214 . S
C406 O386 1.234 . S
C407 H379 0.929 . S
C407 C410 1.391 . S
C407 C412 1.391 . S
C408 H380 0.929 . S
C408 C409 1.375 1_565 S
C408 N411 1.391 . S
C409 H381 0.938 . S
C409 C408 1.375 1_545 S
C409 C410 1.399 1_545 S
C410 H382 0.929 1_565 S
C410 C407 1.391 . S
C410 C409 1.399 1_565 S
N411 Co355 2.257 . S
N411 C408 1.391 . S
N411 C412 1.388 . S
C412 H383 0.930 . S
C412 C407 1.391 . S
C412 N411 1.388 . S
Co413 O415 2.143 . S
Co413 O421 2.074 . S
Co413 O424 2.093 . S
Co413 O437 2.097 . S
Co413 N454 2.151 . S
Co413 N462 2.214 . S
Co414 O415 2.160 . S
Co414 O420 2.058 . S
Co414 O430 2.057 . S
Co414 O445 2.037 . S
Co414 N449 2.145 . S
Co414 N470 2.257 . S
O415 Co413 2.143 . S
O415 Co414 2.160 . S
C416 O417 1.278 . S
C416 O424 1.224 . S
O417 C416 1.278 . S
C418 O419 1.245 . S
C418 O430 1.232 . S
O419 C418 1.245 . S
O420 Co414 2.058 . S
O420 C446 1.269 . S
O421 Co413 2.074 . S
O421 C446 1.257 . S
H422 C447 0.930 . S
H423 C453 0.930 . S
O424 Co413 2.093 . S
O424 C416 1.224 . S
H425 C457 0.929 . S
H426 C459 0.930 . S
H427 C460 0.930 . S
H428 C458 0.929 . S
H429 C461 0.928 . S
O430 Co414 2.057 . S
O430 C418 1.232 . S
H431 C450 0.929 . S
H432 C451 0.929 . S
H433 C463 0.931 . S
H434 C455 0.929 . S
H435 C464 0.930 . S
H436 C456 0.931 . S
O437 Co413 2.097 . S
O437 C465 1.214 . S
H438 C466 0.929 . S
H439 C467 0.929 . S
H440 C468 0.930 . S
H441 C469 0.929 . S
H442 C471 0.930 . S
H443 C448 0.930 . S
H444 C452 0.930 . S
O445 Co414 2.037 . S
O445 C465 1.234 . S
C446 O420 1.269 . S
C446 O421 1.257 . S
C447 H422 0.930 . S
C447 C450 1.388 . S
C447 C452 1.418 . S
C448 H443 0.930 . S
C448 C451 1.404 . S
C448 C452 1.353 . S
N449 Co414 2.145 . S
N449 C450 1.397 . S
N449 C451 1.334 . S
C450 H431 0.929 . S
C450 C447 1.388 . S
C450 N449 1.397 . S
C451 H432 0.929 . S
C451 C448 1.404 . S
C451 N449 1.334 . S
C452 H444 0.930 . S
C452 C447 1.418 . S
C452 C448 1.353 . S
C453 H423 0.930 . S
C453 N454 1.330 . S
C453 C455 1.446 . S
N454 Co413 2.151 . S
N454 C453 1.330 . S
N454 C458 1.418 . S
C455 H434 0.929 . S
C455 C453 1.446 . S
C455 C456 1.332 . S
C456 H436 0.931 . S
C456 C455 1.332 . S
C456 C457 1.267 . S
C457 H425 0.929 . S
C457 C456 1.267 . S
C457 C458 1.251 . S
C458 H428 0.929 . S
C458 N454 1.418 . S
C458 C457 1.251 . S
C459 H426 0.930 . S
C459 C461 1.406 . S
C459 C464 1.261 . S
C460 H427 0.930 . S
C460 N462 1.325 . S
C460 C463 1.357 . S
C461 H429 0.928 . S
C461 C459 1.406 . S
C461 N462 1.261 . S
N462 Co413 2.214 . S
N462 C460 1.325 . S
N462 C461 1.261 . S
C463 H433 0.931 . S
C463 C460 1.357 . S
C463 C464 1.312 . S
C464 H435 0.930 . S
C464 C459 1.261 . S
C464 C463 1.312 . S
C465 O437 1.214 . S
C465 O445 1.234 . S
C466 H438 0.929 . S
C466 C469 1.391 . S
C466 C471 1.391 . S
C467 H439 0.929 . S
C467 C468 1.390 . S
C467 N470 1.391 . S
C468 H440 0.930 . S
C468 C467 1.390 . S
C468 C469 1.392 . S
C469 H441 0.929 . S
C469 C466 1.391 . S
C469 C468 1.392 . S
N470 Co414 2.257 . S
N470 C467 1.391 . S
N470 C471 1.388 . S
C471 H442 0.930 . S
C471 C466 1.391 . S
C471 N470 1.388 . S
Co472 O474 2.143 1_556 S
Co472 O480 2.074 . S
Co472 O483 2.093 1_556 S
Co472 O496 2.097 1_556 S
Co472 N513 2.151 . S
Co472 N521 2.214 . S
Co473 O474 2.160 1_556 S
Co473 O479 2.058 . S
Co473 O489 2.057 . S
Co473 O504 2.037 . S
Co473 N508 2.145 . S
Co473 N529 2.257 1_556 S
O474 Co472 2.143 1_554 S
O474 Co473 2.160 1_554 S
C475 O476 1.278 . S
C475 O483 1.224 . S
O476 C475 1.278 . S
C477 O478 1.245 . S
C477 O489 1.232 1_554 S
O478 C477 1.245 . S
O479 Co473 2.058 . S
O479 C505 1.269 . S
O480 Co472 2.074 . S
O480 C505 1.257 . S
H481 C506 0.930 . S
H482 C512 0.930 . S
O483 Co472 2.093 1_554 S
O483 C475 1.224 . S
H484 C516 0.929 . S
H485 C518 0.930 . S
H486 C519 0.930 . S
H487 C517 0.929 . S
H488 C520 0.928 1_554 S
O489 Co473 2.057 . S
O489 C477 1.232 1_556 S
H490 C509 0.929 . S
H491 C510 0.929 . S
H492 C522 0.931 . S
H493 C514 0.929 1_554 S
H494 C523 0.930 . S
H495 C515 0.931 . S
O496 Co472 2.097 1_554 S
O496 C524 1.216 . S
H497 C525 0.929 . S
H498 C526 0.929 . S
H499 C527 0.930 . S
H500 C528 0.929 . S
H501 C530 0.930 . S
H502 C507 0.930 . S
H503 C511 0.930 . S
O504 Co473 2.037 . S
O504 C524 1.232 1_556 S
C505 O479 1.269 . S
C505 O480 1.257 . S
C506 H481 0.930 . S
C506 C509 1.388 . S
C506 C511 1.418 . S
C507 H502 0.930 . S
C507 C510 1.404 . S
C507 C511 1.353 . S
N508 Co473 2.145 . S
N508 C509 1.397 . S
N508 C510 1.334 . S
C509 H490 0.929 . S
C509 C506 1.388 . S
C509 N508 1.397 . S
C510 H491 0.929 . S
C510 C507 1.404 . S
C510 N508 1.334 . S
C511 H503 0.930 . S
C511 C506 1.418 . S
C511 C507 1.353 . S
C512 H482 0.930 . S
C512 N513 1.330 1_554 S
C512 C514 1.446 1_454 S
N513 Co472 2.151 . S
N513 C512 1.330 1_556 S
N513 C517 1.418 1_455 S
C514 H493 0.929 1_556 S
C514 C512 1.446 1_656 S
C514 C515 1.332 . S
C515 H495 0.931 . S
C515 C514 1.332 . S
C515 C516 1.267 . S
C516 H484 0.929 . S
C516 C515 1.267 . S
C516 C517 1.251 . S
C517 H487 0.929 . S
C517 N513 1.418 1_655 S
C517 C516 1.251 . S
C518 H485 0.930 . S
C518 C520 1.406 . S
C518 C523 1.261 . S
C519 H486 0.930 . S
C519 N521 1.325 . S
C519 C522 1.357 1_455 S
C520 H488 0.928 1_556 S
C520 C518 1.406 . S
C520 N521 1.261 1_655 S
N521 Co472 2.214 . S
N521 C519 1.325 . S
N521 C520 1.261 1_455 S
C522 H492 0.931 . S
C522 C519 1.357 1_655 S
C522 C523 1.312 . S
C523 H494 0.930 . S
C523 C518 1.261 . S
C523 C522 1.312 . S
C524 O496 1.216 . S
C524 O504 1.232 1_554 S
C525 H497 0.929 . S
C525 C528 1.391 . S
C525 C530 1.391 . S
C526 H498 0.929 . S
C526 C527 1.390 . S
C526 N529 1.391 . S
C527 H499 0.930 . S
C527 C526 1.390 . S
C527 C528 1.392 . S
C528 H500 0.929 . S
C528 C525 1.391 . S
C528 C527 1.392 . S
N529 Co473 2.257 1_554 S
N529 C526 1.391 . S
N529 C530 1.388 . S
C530 H501 0.930 . S
C530 C525 1.391 . S
C530 N529 1.388 . S
Co531 O533 2.143 . S
Co531 O539 2.074 . S
Co531 O542 2.093 . S
Co531 O555 2.097 . S
Co531 N572 2.151 . S
Co531 N580 2.214 . S
Co532 O533 2.160 . S
Co532 O538 2.058 . S
Co532 O548 2.057 . S
Co532 O563 2.037 . S
Co532 N567 2.145 1_545 S
Co532 N588 2.257 . S
O533 Co531 2.143 . S
O533 Co532 2.160 . S
C534 O535 1.278 . S
C534 O542 1.224 . S
O535 C534 1.278 . S
C536 O537 1.245 . S
C536 O548 1.232 . S
O537 C536 1.245 . S
O538 Co532 2.058 . S
O538 C564 1.269 . S
O539 Co531 2.074 . S
O539 C564 1.257 . S
H540 C565 0.930 . S
H541 C571 0.930 . S
O542 Co531 2.093 . S
O542 C534 1.224 . S
H543 C575 0.929 . S
H544 C577 0.930 . S
H545 C578 0.930 . S
H546 C576 0.929 . S
H547 C579 0.928 . S
O548 Co532 2.057 . S
O548 C536 1.232 . S
H549 C568 0.929 1_545 S
H550 C569 0.929 . S
H551 C581 0.931 . S
H552 C573 0.929 . S
H553 C582 0.930 . S
H554 C574 0.931 . S
O555 Co531 2.097 . S
O555 C583 1.214 . S
H556 C584 0.929 . S
H557 C585 0.929 . S
H558 C586 0.938 . S
H559 C587 0.929 1_565 S
H560 C589 0.930 . S
H561 C566 0.930 . S
H562 C570 0.930 . S
O563 Co532 2.037 . S
O563 C583 1.234 . S
C564 O538 1.269 . S
C564 O539 1.257 . S
C565 H540 0.930 . S
C565 C568 1.388 . S
C565 C570 1.418 . S
C566 H561 0.930 . S
C566 C569 1.404 . S
C566 C570 1.353 . S
N567 Co532 2.145 1_565 S
N567 C568 1.397 . S
N567 C569 1.334 . S
C568 H549 0.929 1_565 S
C568 C565 1.388 . S
C568 N567 1.397 . S
C569 H550 0.929 . S
C569 C566 1.404 . S
C569 N567 1.334 . S
C570 H562 0.930 . S
C570 C565 1.418 . S
C570 C566 1.353 . S
C571 H541 0.930 . S
C571 N572 1.330 . S
C571 C573 1.446 . S
N572 Co531 2.151 . S
N572 C571 1.330 . S
N572 C576 1.418 . S
C573 H552 0.929 . S
C573 C571 1.446 . S
C573 C574 1.332 . S
C574 H554 0.931 . S
C574 C573 1.332 . S
C574 C575 1.267 . S
C575 H543 0.929 . S
C575 C574 1.267 . S
C575 C576 1.251 . S
C576 H546 0.929 . S
C576 N572 1.418 . S
C576 C575 1.251 . S
C577 H544 0.930 . S
C577 C579 1.406 . S
C577 C582 1.261 . S
C578 H545 0.930 . S
C578 N580 1.325 . S
C578 C581 1.357 . S
C579 H547 0.928 . S
C579 C577 1.406 . S
C579 N580 1.261 . S
N580 Co531 2.214 . S
N580 C578 1.325 . S
N580 C579 1.261 . S
C581 H551 0.931 . S
C581 C578 1.357 . S
C581 C582 1.312 . S
C582 H553 0.930 . S
C582 C577 1.261 . S
C582 C581 1.312 . S
C583 O555 1.214 . S
C583 O563 1.234 . S
C584 H556 0.929 . S
C584 C587 1.391 . S
C584 C589 1.391 . S
C585 H557 0.929 . S
C585 C586 1.375 1_545 S
C585 N588 1.391 . S
C586 H558 0.938 . S
C586 C585 1.375 1_565 S
C586 C587 1.399 1_565 S
C587 H559 0.929 1_545 S
C587 C584 1.391 . S
C587 C586 1.399 1_545 S
N588 Co532 2.257 . S
N588 C585 1.391 . S
N588 C589 1.388 . S
C589 H560 0.930 . S
C589 C584 1.391 . S
C589 N588 1.388 . S
Co590 O592 2.143 . S
Co590 O598 2.074 . S
Co590 O601 2.093 . S
Co590 O614 2.097 . S
Co590 N631 2.151 . S
Co590 N639 2.214 . S
Co591 O592 2.160 . S
Co591 O597 2.058 . S
Co591 O607 2.057 . S
Co591 O622 2.037 . S
Co591 N626 2.145 . S
Co591 N647 2.257 . S
O592 Co590 2.143 . S
O592 Co591 2.160 . S
C593 O594 1.278 . S
C593 O601 1.224 . S
O594 C593 1.278 . S
C595 O596 1.245 . S
C595 O607 1.232 . S
O596 C595 1.245 . S
O597 Co591 2.058 . S
O597 C623 1.269 . S
O598 Co590 2.074 . S
O598 C623 1.257 . S
H599 C624 0.930 . S
H600 C630 0.930 . S
O601 Co590 2.093 . S
O601 C593 1.224 . S
H602 C634 0.929 . S
H603 C636 0.930 . S
H604 C637 0.930 . S
H605 C635 0.929 . S
H606 C638 0.928 . S
O607 Co591 2.057 . S
O607 C595 1.232 . S
H608 C627 0.929 . S
H609 C628 0.929 . S
H610 C640 0.931 . S
H611 C632 0.929 . S
H612 C641 0.930 . S
H613 C633 0.931 . S
O614 Co590 2.097 . S
O614 C642 1.214 . S
H615 C643 0.929 . S
H616 C644 0.929 . S
H617 C645 0.930 . S
H618 C646 0.929 . S
H619 C648 0.930 . S
H620 C625 0.930 . S
H621 C629 0.930 . S
O622 Co591 2.037 . S
O622 C642 1.234 . S
C623 O597 1.269 . S
C623 O598 1.257 . S
C624 H599 0.930 . S
C624 C627 1.388 . S
C624 C629 1.418 . S
C625 H620 0.930 . S
C625 C628 1.404 . S
C625 C629 1.353 . S
N626 Co591 2.145 . S
N626 C627 1.397 . S
N626 C628 1.334 . S
C627 H608 0.929 . S
C627 C624 1.388 . S
C627 N626 1.397 . S
C628 H609 0.929 . S
C628 C625 1.404 . S
C628 N626 1.334 . S
C629 H621 0.930 . S
C629 C624 1.418 . S
C629 C625 1.353 . S
C630 H600 0.930 . S
C630 N631 1.330 . S
C630 C632 1.446 . S
N631 Co590 2.151 . S
N631 C630 1.330 . S
N631 C635 1.418 . S
C632 H611 0.929 . S
C632 C630 1.446 . S
C632 C633 1.332 . S
C633 H613 0.931 . S
C633 C632 1.332 . S
C633 C634 1.267 . S
C634 H602 0.929 . S
C634 C633 1.267 . S
C634 C635 1.251 . S
C635 H605 0.929 . S
C635 N631 1.418 . S
C635 C634 1.251 . S
C636 H603 0.930 . S
C636 C638 1.406 . S
C636 C641 1.261 . S
C637 H604 0.930 . S
C637 N639 1.325 . S
C637 C640 1.357 . S
C638 H606 0.928 . S
C638 C636 1.406 . S
C638 N639 1.261 . S
N639 Co590 2.214 . S
N639 C637 1.325 . S
N639 C638 1.261 . S
C640 H610 0.931 . S
C640 C637 1.357 . S
C640 C641 1.312 . S
C641 H612 0.930 . S
C641 C636 1.261 . S
C641 C640 1.312 . S
C642 O614 1.214 . S
C642 O622 1.234 . S
C643 H615 0.929 . S
C643 C646 1.391 . S
C643 C648 1.391 . S
C644 H616 0.929 . S
C644 C645 1.390 . S
C644 N647 1.391 . S
C645 H617 0.930 . S
C645 C644 1.390 . S
C645 C646 1.392 . S
C646 H618 0.929 . S
C646 C643 1.391 . S
C646 C645 1.392 . S
N647 Co591 2.257 . S
N647 C644 1.391 . S
N647 C648 1.388 . S
C648 H619 0.930 . S
C648 C643 1.391 . S
C648 N647 1.388 . S
Co649 O651 2.143 1_556 S
Co649 O657 2.074 . S
Co649 O660 2.093 1_556 S
Co649 O673 2.097 1_556 S
Co649 N690 2.151 . S
Co649 N698 2.214 . S
Co650 O651 2.160 1_556 S
Co650 O656 2.058 . S
Co650 O666 2.057 . S
Co650 O681 2.037 . S
Co650 N685 2.145 . S
Co650 N706 2.257 1_556 S
O651 Co649 2.143 1_554 S
O651 Co650 2.160 1_554 S
C652 O653 1.278 . S
C652 O660 1.224 . S
O653 C652 1.278 . S
C654 O655 1.245 . S
C654 O666 1.232 1_554 S
O655 C654 1.245 . S
O656 Co650 2.058 . S
O656 C682 1.269 . S
O657 Co649 2.074 . S
O657 C682 1.257 . S
H658 C683 0.930 . S
H659 C689 0.930 . S
O660 Co649 2.093 1_554 S
O660 C652 1.224 . S
H661 C693 0.929 . S
H662 C695 0.930 . S
H663 C696 0.930 . S
H664 C694 0.929 . S
H665 C697 0.928 1_554 S
O666 Co650 2.057 . S
O666 C654 1.232 1_556 S
H667 C686 0.929 . S
H668 C687 0.929 . S
H669 C699 0.931 . S
H670 C691 0.929 1_554 S
H671 C700 0.930 . S
H672 C692 0.931 . S
O673 Co649 2.097 1_554 S
O673 C701 1.216 . S
H674 C702 0.929 . S
H675 C703 0.929 . S
H676 C704 0.930 . S
H677 C705 0.929 . S
H678 C707 0.930 . S
H679 C684 0.930 . S
H680 C688 0.930 . S
O681 Co650 2.037 . S
O681 C701 1.232 1_556 S
C682 O656 1.269 . S
C682 O657 1.257 . S
C683 H658 0.930 . S
C683 C686 1.388 . S
C683 C688 1.418 . S
C684 H679 0.930 . S
C684 C687 1.404 . S
C684 C688 1.353 . S
N685 Co650 2.145 . S
N685 C686 1.397 . S
N685 C687 1.334 . S
C686 H667 0.929 . S
C686 C683 1.388 . S
C686 N685 1.397 . S
C687 H668 0.929 . S
C687 C684 1.404 . S
C687 N685 1.334 . S
C688 H680 0.930 . S
C688 C683 1.418 . S
C688 C684 1.353 . S
C689 H659 0.930 . S
C689 N690 1.330 1_554 S
C689 C691 1.446 1_654 S
N690 Co649 2.151 . S
N690 C689 1.330 1_556 S
N690 C694 1.418 1_655 S
C691 H670 0.929 1_556 S
C691 C689 1.446 1_456 S
C691 C692 1.332 . S
C692 H672 0.931 . S
C692 C691 1.332 . S
C692 C693 1.267 . S
C693 H661 0.929 . S
C693 C692 1.267 . S
C693 C694 1.251 . S
C694 H664 0.929 . S
C694 N690 1.418 1_455 S
C694 C693 1.251 . S
C695 H662 0.930 . S
C695 C697 1.406 . S
C695 C700 1.261 . S
C696 H663 0.930 . S
C696 N698 1.325 . S
C696 C699 1.357 1_655 S
C697 H665 0.928 1_556 S
C697 C695 1.406 . S
C697 N698 1.261 1_455 S
N698 Co649 2.214 . S
N698 C696 1.325 . S
N698 C697 1.261 1_655 S
C699 H669 0.931 . S
C699 C696 1.357 1_455 S
C699 C700 1.312 . S
C700 H671 0.930 . S
C700 C695 1.261 . S
C700 C699 1.312 . S
C701 O673 1.216 . S
C701 O681 1.232 1_554 S
C702 H674 0.929 . S
C702 C705 1.391 . S
C702 C707 1.391 . S
C703 H675 0.929 . S
C703 C704 1.390 . S
C703 N706 1.391 . S
C704 H676 0.930 . S
C704 C703 1.390 . S
C704 C705 1.392 . S
C705 H677 0.929 . S
C705 C702 1.391 . S
C705 C704 1.392 . S
N706 Co650 2.257 1_554 S
N706 C703 1.391 . S
N706 C707 1.388 . S
C707 H678 0.930 . S
C707 C702 1.391 . S
C707 N706 1.388 . S
H708 C714 0.930 . S
H709 C718 0.930 . S
H710 C723 0.929 . S
H711 C721 0.929 . S
H712 C716 0.929 . S
H713 C722 0.929 . S
C714 H708 0.930 . S
C714 C715 1.367 . S
C714 C722 1.378 . S
C715 C714 1.367 . S
C715 C723 1.433 . S
C716 H712 0.929 . S
C716 C718 1.378 . S
C716 C720 1.350 . S
C717 C720 1.463 . S
C717 C722 1.350 . S
C717 N725 1.427 . S
C718 H709 0.930 . S
C718 C716 1.378 . S
C718 C719 1.367 . S
C719 C718 1.367 . S
C719 C721 1.433 . S
C720 C716 1.350 . S
C720 C717 1.463 . S
C720 N724 1.427 . S
C721 H711 0.929 . S
C721 C719 1.433 . S
C721 N724 1.384 . S
C722 H713 0.929 . S
C722 C714 1.378 . S
C722 C717 1.350 . S
C723 H710 0.929 . S
C723 C715 1.433 . S
C723 N725 1.384 . S
N724 C720 1.427 . S
N724 C721 1.384 . S
N725 C717 1.427 . S
N725 C723 1.384 . S
H726 C732 0.930 . S
H727 C736 0.930 . S
H728 C741 0.929 . S
H729 C739 0.929 . S
H730 C734 0.929 . S
H731 C740 0.929 . S
C732 H726 0.930 . S
C732 C733 1.367 . S
C732 C740 1.378 . S
C733 C732 1.367 . S
C733 C741 1.433 . S
C734 H730 0.929 . S
C734 C736 1.378 . S
C734 C738 1.350 . S
C735 C738 1.463 . S
C735 C740 1.350 . S
C735 N743 1.427 . S
C736 H727 0.930 . S
C736 C734 1.378 . S
C736 C737 1.367 . S
C737 C736 1.367 . S
C737 C739 1.433 . S
C738 C734 1.350 . S
C738 C735 1.463 . S
C738 N742 1.427 . S
C739 H729 0.929 . S
C739 C737 1.433 . S
C739 N742 1.384 . S
C740 H731 0.929 . S
C740 C732 1.378 . S
C740 C735 1.350 . S
C741 H728 0.929 . S
C741 C733 1.433 . S
C741 N743 1.384 . S
N742 C738 1.427 . S
N742 C739 1.384 . S
N743 C735 1.427 . S
N743 C741 1.384 . S
H744 C750 0.930 . S
H745 C754 0.930 . S
H746 C759 0.929 . S
H747 C757 0.929 . S
H748 C752 0.929 . S
H749 C758 0.929 . S
C750 H744 0.930 . S
C750 C751 1.367 1_554 S
C750 C758 1.378 . S
C751 C750 1.367 1_556 S
C751 C759 1.433 . S
C752 H748 0.929 . S
C752 C754 1.378 . S
C752 C756 1.360 . S
C753 C756 1.462 1_554 S
C753 C758 1.353 . S
C753 N761 1.424 1_554 S
C754 H745 0.930 . S
C754 C752 1.378 . S
C754 C755 1.367 1_556 S
C755 C754 1.367 1_554 S
C755 C757 1.433 . S
C756 C752 1.360 . S
C756 C753 1.462 1_556 S
C756 N760 1.416 1_556 S
C757 H747 0.929 . S
C757 C755 1.433 . S
C757 N760 1.384 . S
C758 H749 0.929 . S
C758 C750 1.378 . S
C758 C753 1.353 . S
C759 H746 0.929 . S
C759 C751 1.433 . S
C759 N761 1.384 . S
N760 C756 1.416 1_554 S
N760 C757 1.384 . S
N761 C753 1.424 1_556 S
N761 C759 1.384 . S
H762 C768 0.930 . S
H763 C772 0.930 . S
H764 C777 0.929 . S
H765 C775 0.929 . S
H766 C770 0.929 . S
H767 C776 0.929 . S
C768 H762 0.930 . S
C768 C769 1.367 . S
C768 C776 1.378 . S
C769 C768 1.367 . S
C769 C777 1.433 . S
C770 H766 0.929 . S
C770 C772 1.378 . S
C770 C774 1.350 . S
C771 C774 1.463 . S
C771 C776 1.350 . S
C771 N779 1.427 . S
C772 H763 0.930 . S
C772 C770 1.378 . S
C772 C773 1.367 . S
C773 C772 1.367 . S
C773 C775 1.433 . S
C774 C770 1.350 . S
C774 C771 1.463 . S
C774 N778 1.427 . S
C775 H765 0.929 . S
C775 C773 1.433 . S
C775 N778 1.384 . S
C776 H767 0.929 . S
C776 C768 1.378 . S
C776 C771 1.350 . S
C777 H764 0.929 . S
C777 C769 1.433 . S
C777 N779 1.384 . S
N778 C774 1.427 . S
N778 C775 1.384 . S
N779 C771 1.427 . S
N779 C777 1.384 . S
H780 C786 0.930 . S
H781 C790 0.930 . S
H782 C795 0.929 . S
H783 C793 0.929 . S
H784 C788 0.929 . S
H785 C794 0.929 . S
C786 H780 0.930 . S
C786 C787 1.367 . S
C786 C794 1.378 . S
C787 C786 1.367 . S
C787 C795 1.433 . S
C788 H784 0.929 . S
C788 C790 1.378 . S
C788 C792 1.350 . S
C789 C792 1.463 . S
C789 C794 1.350 . S
C789 N797 1.427 . S
C790 H781 0.930 . S
C790 C788 1.378 . S
C790 C791 1.367 . S
C791 C790 1.367 . S
C791 C793 1.433 . S
C792 C788 1.350 . S
C792 C789 1.463 . S
C792 N796 1.427 . S
C793 H783 0.929 . S
C793 C791 1.433 . S
C793 N796 1.384 . S
C794 H785 0.929 . S
C794 C786 1.378 . S
C794 C789 1.350 . S
C795 H782 0.929 . S
C795 C787 1.433 . S
C795 N797 1.384 . S
N796 C792 1.427 . S
N796 C793 1.384 . S
N797 C789 1.427 . S
N797 C795 1.384 . S
H798 C804 0.930 . S
H799 C808 0.930 . S
H800 C813 0.929 . S
H801 C811 0.929 . S
H802 C806 0.929 . S
H803 C812 0.929 . S
C804 H798 0.930 . S
C804 C805 1.367 . S
C804 C812 1.378 . S
C805 C804 1.367 . S
C805 C813 1.433 1_554 S
C806 H802 0.929 . S
C806 C808 1.378 . S
C806 C810 1.350 . S
C807 C810 1.463 1_554 S
C807 C812 1.350 . S
C807 N815 1.427 1_554 S
C808 H799 0.930 . S
C808 C806 1.378 . S
C808 C809 1.367 . S
C809 C808 1.367 . S
C809 C811 1.433 1_556 S
C810 C806 1.350 . S
C810 C807 1.463 1_556 S
C810 N814 1.427 1_556 S
C811 H801 0.929 . S
C811 C809 1.433 1_554 S
C811 N814 1.384 . S
C812 H803 0.929 . S
C812 C804 1.378 . S
C812 C807 1.350 . S
C813 H800 0.929 . S
C813 C805 1.433 1_556 S
C813 N815 1.384 . S
N814 C810 1.427 1_554 S
N814 C811 1.384 . S
N815 C807 1.427 1_556 S
N815 C813 1.384 . S
H816 C822 0.930 . S
H817 C826 0.930 . S
H818 C831 0.929 . S
H819 C829 0.929 . S
H820 C824 0.929 . S
H821 C830 0.929 . S
C822 H816 0.930 . S
C822 C823 1.367 . S
C822 C830 1.378 . S
C823 C822 1.367 . S
C823 C831 1.433 . S
C824 H820 0.929 . S
C824 C826 1.378 . S
C824 C828 1.350 . S
C825 C828 1.463 . S
C825 C830 1.350 . S
C825 N833 1.427 . S
C826 H817 0.930 . S
C826 C824 1.378 . S
C826 C827 1.367 . S
C827 C826 1.367 . S
C827 C829 1.433 . S
C828 C824 1.350 . S
C828 C825 1.463 . S
C828 N832 1.427 . S
C829 H819 0.929 . S
C829 C827 1.433 . S
C829 N832 1.384 . S
C830 H821 0.929 . S
C830 C822 1.378 . S
C830 C825 1.350 . S
C831 H818 0.929 . S
C831 C823 1.433 . S
C831 N833 1.384 . S
N832 C828 1.427 . S
N832 C829 1.384 . S
N833 C825 1.427 . S
N833 C831 1.384 . S
H834 C840 0.930 . S
H835 C844 0.930 . S
H836 C849 0.929 . S
H837 C847 0.929 . S
H838 C842 0.929 . S
H839 C848 0.929 . S
C840 H834 0.930 . S
C840 C841 1.367 . S
C840 C848 1.378 . S
C841 C840 1.367 . S
C841 C849 1.433 . S
C842 H838 0.929 . S
C842 C844 1.378 . S
C842 C846 1.350 . S
C843 C846 1.463 1_655 S
C843 C848 1.350 . S
C843 N851 1.427 . S
C844 H835 0.930 . S
C844 C842 1.378 . S
C844 C845 1.367 . S
C845 C844 1.367 . S
C845 C847 1.433 . S
C846 C842 1.350 . S
C846 C843 1.463 1_455 S
C846 N850 1.427 . S
C847 H837 0.929 . S
C847 C845 1.433 . S
C847 N850 1.384 . S
C848 H839 0.929 . S
C848 C840 1.378 . S
C848 C843 1.350 . S
C849 H836 0.929 . S
C849 C841 1.433 . S
C849 N851 1.384 . S
N850 C846 1.427 . S
N850 C847 1.384 . S
N851 C843 1.427 . S
N851 C849 1.384 . S
H852 C858 0.930 . S
H853 C862 0.930 . S
H854 C867 0.929 . S
H855 C865 0.929 . S
H856 C860 0.929 . S
H857 C866 0.929 . S
C858 H852 0.930 . S
C858 C859 1.367 . S
C858 C866 1.378 . S
C859 C858 1.367 . S
C859 C867 1.433 1_556 S
C860 H856 0.929 . S
C860 C862 1.378 . S
C860 C864 1.373 . S
C861 C864 1.461 1_546 S
C861 C866 1.368 . S
C861 N869 1.410 1_556 S
C862 H853 0.930 . S
C862 C860 1.378 . S
C862 C863 1.367 . S
C863 C862 1.367 . S
C863 C865 1.433 1_554 S
C864 C860 1.373 . S
C864 C861 1.461 1_564 S
C864 N868 1.404 1_554 S
C865 H855 0.929 . S
C865 C863 1.433 1_556 S
C865 N868 1.384 . S
C866 H857 0.929 . S
C866 C858 1.378 . S
C866 C861 1.368 . S
C867 H854 0.929 . S
C867 C859 1.433 1_554 S
C867 N869 1.384 . S
N868 C864 1.404 1_556 S
N868 C865 1.384 . S
N869 C861 1.410 1_554 S
N869 C867 1.384 . S
H870 C876 0.930 . S
H871 C880 0.930 . S
H872 C885 0.929 . S
H873 C883 0.929 . S
H874 C878 0.929 . S
H875 C884 0.929 . S
C876 H870 0.930 . S
C876 C877 1.367 . S
C876 C884 1.378 . S
C877 C876 1.367 . S
C877 C885 1.433 . S
C878 H874 0.929 . S
C878 C880 1.378 . S
C878 C882 1.350 . S
C879 C882 1.463 . S
C879 C884 1.350 . S
C879 N887 1.427 . S
C880 H871 0.930 . S
C880 C878 1.378 . S
C880 C881 1.367 . S
C881 C880 1.367 . S
C881 C883 1.433 . S
C882 C878 1.350 . S
C882 C879 1.463 . S
C882 N886 1.427 . S
C883 H873 0.929 . S
C883 C881 1.433 . S
C883 N886 1.384 . S
C884 H875 0.929 . S
C884 C876 1.378 . S
C884 C879 1.350 . S
C885 H872 0.929 . S
C885 C877 1.433 . S
C885 N887 1.384 . S
N886 C882 1.427 . S
N886 C883 1.384 . S
N887 C879 1.427 . S
N887 C885 1.384 . S
H888 C894 0.930 . S
H889 C898 0.930 . S
H890 C903 0.929 . S
H891 C901 0.929 . S
H892 C896 0.929 . S
H893 C902 0.929 . S
C894 H888 0.930 . S
C894 C895 1.367 . S
C894 C902 1.378 . S
C895 C894 1.367 . S
C895 C903 1.433 . S
C896 H892 0.929 . S
C896 C898 1.378 . S
C896 C900 1.350 . S
C897 C900 1.463 1_455 S
C897 C902 1.350 . S
C897 N905 1.427 . S
C898 H889 0.930 . S
C898 C896 1.378 . S
C898 C899 1.367 . S
C899 C898 1.367 . S
C899 C901 1.433 . S
C900 C896 1.350 . S
C900 C897 1.463 1_655 S
C900 N904 1.427 . S
C901 H891 0.929 . S
C901 C899 1.433 . S
C901 N904 1.384 . S
C902 H893 0.929 . S
C902 C894 1.378 . S
C902 C897 1.350 . S
C903 H890 0.929 . S
C903 C895 1.433 . S
C903 N905 1.384 . S
N904 C900 1.427 . S
N904 C901 1.384 . S
N905 C897 1.427 . S
N905 C903 1.384 . S
H906 C912 0.930 . S
H907 C916 0.930 . S
H908 C921 0.929 . S
H909 C919 0.929 . S
H910 C914 0.929 . S
H911 C920 0.929 . S
C912 H906 0.930 . S
C912 C913 1.367 . S
C912 C920 1.378 . S
C913 C912 1.367 . S
C913 C921 1.433 1_554 S
C914 H910 0.929 . S
C914 C916 1.378 . S
C914 C918 1.350 . S
C915 C918 1.461 1_544 S
C915 C920 1.376 . S
C915 N923 1.402 1_554 S
C916 H907 0.930 . S
C916 C914 1.378 . S
C916 C917 1.367 . S
C917 C916 1.367 . S
C917 C919 1.433 1_556 S
C918 C914 1.350 . S
C918 C915 1.461 1_566 S
C918 N922 1.427 1_556 S
C919 H909 0.929 . S
C919 C917 1.433 1_554 S
C919 N922 1.384 . S
C920 H911 0.929 . S
C920 C912 1.378 . S
C920 C915 1.376 . S
C921 H908 0.929 . S
C921 C913 1.433 1_556 S
C921 N923 1.384 . S
N922 C918 1.427 1_554 S
N922 C919 1.384 . S
N923 C915 1.402 1_556 S
N923 C921 1.384 . S
H924 C930 0.930 . S
H925 C934 0.930 . S
H926 C939 0.929 . S
H927 C937 0.929 . S
H928 C932 0.929 . S
H929 C938 0.929 . S
C930 H924 0.930 . S
C930 C931 1.367 . S
C930 C938 1.378 . S
C931 C930 1.367 . S
C931 C939 1.433 . S
C932 H928 0.929 . S
C932 C934 1.378 . S
C932 C936 1.350 . S
C933 C936 1.463 1_655 S
C933 C938 1.350 . S
C933 N941 1.427 . S
C934 H925 0.930 . S
C934 C932 1.378 . S
C934 C935 1.367 . S
C935 C934 1.367 . S
C935 C937 1.433 . S
C936 C932 1.350 . S
C936 C933 1.463 1_455 S
C936 N940 1.427 . S
C937 H927 0.929 . S
C937 C935 1.433 . S
C937 N940 1.384 . S
C938 H929 0.929 . S
C938 C930 1.378 . S
C938 C933 1.350 . S
C939 H926 0.929 . S
C939 C931 1.433 . S
C939 N941 1.384 . S
N940 C936 1.427 . S
N940 C937 1.384 . S
N941 C933 1.427 . S
N941 C939 1.384 . S
H942 C948 0.930 . S
H943 C952 0.930 . S
H944 C957 0.929 . S
H945 C955 0.929 . S
H946 C950 0.929 . S
H947 C956 0.929 . S
C948 H942 0.930 . S
C948 C949 1.367 1_565 S
C948 C956 1.378 . S
C949 C948 1.367 1_545 S
C949 C957 1.433 . S
C950 H946 0.929 . S
C950 C952 1.378 . S
C950 C954 1.350 1_545 S
C951 C954 1.463 1_545 S
C951 C956 1.350 1_545 S
C951 N959 1.427 . S
C952 H943 0.930 . S
C952 C950 1.378 . S
C952 C953 1.367 1_545 S
C953 C952 1.367 1_565 S
C953 C955 1.433 . S
C954 C950 1.350 1_565 S
C954 C951 1.463 1_565 S
C954 N958 1.427 . S
C955 H945 0.929 . S
C955 C953 1.433 . S
C955 N958 1.384 . S
C956 H947 0.929 . S
C956 C948 1.378 . S
C956 C951 1.350 1_565 S
C957 H944 0.929 . S
C957 C949 1.433 . S
C957 N959 1.384 . S
N958 C954 1.427 . S
N958 C955 1.384 . S
N959 C951 1.427 . S
N959 C957 1.384 . S
H960 C966 0.930 . S
H961 C970 0.930 . S
H962 C975 0.929 . S
H963 C973 0.929 . S
H964 C968 0.929 . S
H965 C974 0.929 . S
C966 H960 0.930 . S
C966 C967 1.367 . S
C966 C974 1.378 . S
C967 C966 1.367 . S
C967 C975 1.433 . S
C968 H964 0.929 . S
C968 C970 1.378 . S
C968 C972 1.350 . S
C969 C972 1.463 . S
C969 C974 1.350 . S
C969 N977 1.427 . S
C970 H961 0.930 . S
C970 C968 1.378 . S
C970 C971 1.367 . S
C971 C970 1.367 . S
C971 C973 1.433 . S
C972 C968 1.350 . S
C972 C969 1.463 . S
C972 N976 1.427 . S
C973 H963 0.929 . S
C973 C971 1.433 . S
C973 N976 1.384 . S
C974 H965 0.929 . S
C974 C966 1.378 . S
C974 C969 1.350 . S
C975 H962 0.929 . S
C975 C967 1.433 . S
C975 N977 1.384 . S
N976 C972 1.427 . S
N976 C973 1.384 . S
N977 C969 1.427 . S
N977 C975 1.384 . S
H978 C984 0.930 . S
H979 C988 0.930 . S
H980 C993 0.929 . S
H981 C991 0.929 . S
H982 C986 0.929 . S
H983 C992 0.929 . S
C984 H978 0.930 . S
C984 C985 1.367 . S
C984 C992 1.378 . S
C985 C984 1.367 . S
C985 C993 1.433 . S
C986 H982 0.929 . S
C986 C988 1.378 . S
C986 C990 1.350 . S
C987 C990 1.463 1_455 S
C987 C992 1.350 . S
C987 N995 1.427 . S
C988 H979 0.930 . S
C988 C986 1.378 . S
C988 C989 1.367 . S
C989 C988 1.367 . S
C989 C991 1.433 . S
C990 C986 1.350 . S
C990 C987 1.463 1_655 S
C990 N994 1.427 1_655 S
C991 H981 0.929 . S
C991 C989 1.433 . S
C991 N994 1.384 1_655 S
C992 H983 0.929 . S
C992 C984 1.378 . S
C992 C987 1.350 . S
C993 H980 0.929 . S
C993 C985 1.433 . S
C993 N995 1.384 . S
N994 C990 1.427 1_455 S
N994 C991 1.384 1_455 S
N995 C987 1.427 . S
N995 C993 1.384 . S
H996 C1002 0.930 . S
H997 C1006 0.930 . S
H998 C1011 0.929 . S
H999 C1009 0.929 . S
H1000 C1004 0.929 . S
H1001 C1010 0.929 . S
C1002 H996 0.930 . S
C1002 C1003 1.367 . S
C1002 C1010 1.378 . S
C1003 C1002 1.367 . S
C1003 C1011 1.433 1_545 S
C1004 H1000 0.929 . S
C1004 C1006 1.378 . S
C1004 C1008 1.350 . S
C1005 C1008 1.463 1_545 S
C1005 C1010 1.350 . S
C1005 N1013 1.427 1_545 S
C1006 H997 0.930 . S
C1006 C1004 1.378 . S
C1006 C1007 1.367 . S
C1007 C1006 1.367 . S
C1007 C1009 1.433 1_565 S
C1008 C1004 1.350 . S
C1008 C1005 1.463 1_565 S
C1008 N1012 1.427 1_565 S
C1009 H999 0.929 . S
C1009 C1007 1.433 1_545 S
C1009 N1012 1.384 . S
C1010 H1001 0.929 . S
C1010 C1002 1.378 . S
C1010 C1005 1.350 . S
C1011 H998 0.929 . S
C1011 C1003 1.433 1_565 S
C1011 N1013 1.384 . S
N1012 C1008 1.427 1_545 S
N1012 C1009 1.384 . S
N1013 C1005 1.427 1_565 S
N1013 C1011 1.384 . S
H1014 C1020 0.930 . S
H1015 C1024 0.930 . S
H1016 C1029 0.929 . S
H1017 C1027 0.929 . S
H1018 C1022 0.929 . S
H1019 C1028 0.929 . S
C1020 H1014 0.930 . S
C1020 C1021 1.367 . S
C1020 C1028 1.378 . S
C1021 C1020 1.367 . S
C1021 C1029 1.433 . S
C1022 H1018 0.929 . S
C1022 C1024 1.378 . S
C1022 C1026 1.350 . S
C1023 C1026 1.463 . S
C1023 C1028 1.350 . S
C1023 N1031 1.427 . S
C1024 H1015 0.930 . S
C1024 C1022 1.378 . S
C1024 C1025 1.367 . S
C1025 C1024 1.367 . S
C1025 C1027 1.433 . S
C1026 C1022 1.350 . S
C1026 C1023 1.463 . S
C1026 N1030 1.427 . S
C1027 H1017 0.929 . S
C1027 C1025 1.433 . S
C1027 N1030 1.384 . S
C1028 H1019 0.929 . S
C1028 C1020 1.378 . S
C1028 C1023 1.350 . S
C1029 H1016 0.929 . S
C1029 C1021 1.433 . S
C1029 N1031 1.384 . S
N1030 C1026 1.427 . S
N1030 C1027 1.384 . S
N1031 C1023 1.427 . S
N1031 C1029 1.384 . S
H1032 C1038 0.930 . S
H1033 C1042 0.930 . S
H1034 C1047 0.929 . S
H1035 C1045 0.929 . S
H1036 C1040 0.929 . S
H1037 C1046 0.929 . S
C1038 H1032 0.930 . S
C1038 C1039 1.367 . S
C1038 C1046 1.378 . S
C1039 C1038 1.367 . S
C1039 C1047 1.433 . S
C1040 H1036 0.929 . S
C1040 C1042 1.378 . S
C1040 C1044 1.350 . S
C1041 C1044 1.463 . S
C1041 C1046 1.350 . S
C1041 N1049 1.427 . S
C1042 H1033 0.930 . S
C1042 C1040 1.378 . S
C1042 C1043 1.367 . S
C1043 C1042 1.367 . S
C1043 C1045 1.433 . S
C1044 C1040 1.350 . S
C1044 C1041 1.463 . S
C1044 N1048 1.427 . S
C1045 H1035 0.929 . S
C1045 C1043 1.433 . S
C1045 N1048 1.384 . S
C1046 H1037 0.929 . S
C1046 C1038 1.378 . S
C1046 C1041 1.350 . S
C1047 H1034 0.929 . S
C1047 C1039 1.433 . S
C1047 N1049 1.384 . S
N1048 C1044 1.427 . S
N1048 C1045 1.384 . S
N1049 C1041 1.427 . S
N1049 C1047 1.384 . S
H1050 C1056 0.930 . S
H1051 C1060 0.930 . S
H1052 C1065 0.929 . S
H1053 C1063 0.929 . S
H1054 C1058 0.929 . S
H1055 C1064 0.929 . S
C1056 H1050 0.930 . S
C1056 C1057 1.367 . S
C1056 C1064 1.378 . S
C1057 C1056 1.367 . S
C1057 C1065 1.433 . S
C1058 H1054 0.929 . S
C1058 C1060 1.378 . S
C1058 C1062 1.350 . S
C1059 C1062 1.463 . S
C1059 C1064 1.350 . S
C1059 N1067 1.427 . S
C1060 H1051 0.930 . S
C1060 C1058 1.378 . S
C1060 C1061 1.367 . S
C1061 C1060 1.367 . S
C1061 C1063 1.433 . S
C1062 C1058 1.350 . S
C1062 C1059 1.463 . S
C1062 N1066 1.427 . S
C1063 H1053 0.929 . S
C1063 C1061 1.433 . S
C1063 N1066 1.384 . S
C1064 H1055 0.929 . S
C1064 C1056 1.378 . S
C1064 C1059 1.350 . S
C1065 H1052 0.929 . S
C1065 C1057 1.433 . S
C1065 N1067 1.384 . S
N1066 C1062 1.427 . S
N1066 C1063 1.384 . S
N1067 C1059 1.427 . S
N1067 C1065 1.384 . S
H1068 C1074 0.930 . S
H1069 C1078 0.930 . S
H1070 C1083 0.929 . S
H1071 C1081 0.929 . S
H1072 C1076 0.929 . S
H1073 C1082 0.929 . S
C1074 H1068 0.930 . S
C1074 C1075 1.367 . S
C1074 C1082 1.378 . S
C1075 C1074 1.367 . S
C1075 C1083 1.433 . S
C1076 H1072 0.929 . S
C1076 C1078 1.378 . S
C1076 C1080 1.350 . S
C1077 C1080 1.463 . S
C1077 C1082 1.350 . S
C1077 N1085 1.427 . S
C1078 H1069 0.930 . S
C1078 C1076 1.378 . S
C1078 C1079 1.367 . S
C1079 C1078 1.367 . S
C1079 C1081 1.433 . S
C1080 C1076 1.350 . S
C1080 C1077 1.463 . S
C1080 N1084 1.427 . S
C1081 H1071 0.929 . S
C1081 C1079 1.433 . S
C1081 N1084 1.384 . S
C1082 H1073 0.929 . S
C1082 C1074 1.378 . S
C1082 C1077 1.350 . S
C1083 H1070 0.929 . S
C1083 C1075 1.433 . S
C1083 N1085 1.384 . S
N1084 C1080 1.427 . S
N1084 C1081 1.384 . S
N1085 C1077 1.427 . S
N1085 C1083 1.384 . S
H1086 C1092 0.930 . S
H1087 C1096 0.930 . S
H1088 C1101 0.929 . S
H1089 C1099 0.929 . S
H1090 C1094 0.929 . S
H1091 C1100 0.929 . S
C1092 H1086 0.930 . S
C1092 C1093 1.367 . S
C1092 C1100 1.378 . S
C1093 C1092 1.367 . S
C1093 C1101 1.433 . S
C1094 H1090 0.929 . S
C1094 C1096 1.378 . S
C1094 C1098 1.350 . S
C1095 C1098 1.463 . S
C1095 C1100 1.350 . S
C1095 N1103 1.427 . S
C1096 H1087 0.930 . S
C1096 C1094 1.378 . S
C1096 C1097 1.367 . S
C1097 C1096 1.367 . S
C1097 C1099 1.433 . S
C1098 C1094 1.350 . S
C1098 C1095 1.463 . S
C1098 N1102 1.427 . S
C1099 H1089 0.929 . S
C1099 C1097 1.433 . S
C1099 N1102 1.384 . S
C1100 H1091 0.929 . S
C1100 C1092 1.378 . S
C1100 C1095 1.350 . S
C1101 H1088 0.929 . S
C1101 C1093 1.433 . S
C1101 N1103 1.384 . S
N1102 C1098 1.427 . S
N1102 C1099 1.384 . S
N1103 C1095 1.427 . S
N1103 C1101 1.384 . S
H1104 C1110 0.930 . S
H1105 C1114 0.930 . S
H1106 C1119 0.929 . S
H1107 C1117 0.929 . S
H1108 C1112 0.929 . S
H1109 C1118 0.929 . S
C1110 H1104 0.930 . S
C1110 C1111 1.367 . S
C1110 C1118 1.378 . S
C1111 C1110 1.367 . S
C1111 C1119 1.433 . S
C1112 H1108 0.929 . S
C1112 C1114 1.378 . S
C1112 C1116 1.350 . S
C1113 C1116 1.463 . S
C1113 C1118 1.350 . S
C1113 N1121 1.427 . S
C1114 H1105 0.930 . S
C1114 C1112 1.378 . S
C1114 C1115 1.367 . S
C1115 C1114 1.367 . S
C1115 C1117 1.433 . S
C1116 C1112 1.350 . S
C1116 C1113 1.463 . S
C1116 N1120 1.427 . S
C1117 H1107 0.929 . S
C1117 C1115 1.433 . S
C1117 N1120 1.384 . S
C1118 H1109 0.929 . S
C1118 C1110 1.378 . S
C1118 C1113 1.350 . S
C1119 H1106 0.929 . S
C1119 C1111 1.433 . S
C1119 N1121 1.384 . S
N1120 C1116 1.427 . S
N1120 C1117 1.384 . S
N1121 C1113 1.427 . S
N1121 C1119 1.384 . S
H1122 C1128 0.930 . S
H1123 C1132 0.930 . S
H1124 C1137 0.929 . S
H1125 C1135 0.929 . S
H1126 C1130 0.929 . S
H1127 C1136 0.929 . S
C1128 H1122 0.930 . S
C1128 C1129 1.367 . S
C1128 C1136 1.378 . S
C1129 C1128 1.367 . S
C1129 C1137 1.433 . S
C1130 H1126 0.929 . S
C1130 C1132 1.378 . S
C1130 C1134 1.350 . S
C1131 C1134 1.463 . S
C1131 C1136 1.350 . S
C1131 N1139 1.427 . S
C1132 H1123 0.930 . S
C1132 C1130 1.378 . S
C1132 C1133 1.367 . S
C1133 C1132 1.367 . S
C1133 C1135 1.433 . S
C1134 C1130 1.350 . S
C1134 C1131 1.463 . S
C1134 N1138 1.427 . S
C1135 H1125 0.929 . S
C1135 C1133 1.433 . S
C1135 N1138 1.384 . S
C1136 H1127 0.929 . S
C1136 C1128 1.378 . S
C1136 C1131 1.350 . S
C1137 H1124 0.929 . S
C1137 C1129 1.433 . S
C1137 N1139 1.384 . S
N1138 C1134 1.427 . S
N1138 C1135 1.384 . S
N1139 C1131 1.427 . S
N1139 C1137 1.384 . S
C715 C3 1.738 . S
C719 C357 1.740 . S
C733 C62 1.744 . S
C737 C416 1.726 . S
C751 C123 1.654 . S
C755 C477 1.656 . S
C769 C534 1.739 . S
C773 C180 1.729 . S
C787 C239 1.747 . S
C791 C593 1.729 . S
C805 C654 1.661 . S
C809 C300 1.657 . S
C823 C33 1.529 . S
C827 C564 1.529 . S
C841 C92 1.529 . S
C845 C623 1.530 . S
C859 C701 1.439 1_556 S
C863 C170 1.432 1_554 S
C877 C387 1.535 . S
C881 C210 1.522 . S
C895 C269 1.531 . S
C899 C446 1.528 . S
C913 C347 1.438 1_554 S
C917 C524 1.433 1_556 S
C931 C652 1.540 . S
C935 C5 1.529 . S
C949 C64 1.756 . S
C953 C359 1.753 . S
C967 C121 1.535 . S
C971 C418 1.525 . S
C985 C475 1.531 . S
C989 C182 1.533 . S
C1003 C536 1.750 . S
C1007 C241 1.746 . S
C1021 C298 1.532 . S
C1025 C595 1.534 . S
C1039 C52 1.123 . S
C1043 C642 1.118 . S
C1057 C682 1.296 . S
C1061 C111 1.316 . S
C1075 C406 1.313 . S
C1079 C151 1.303 . S
C1093 C229 1.129 . S
C1097 C465 1.133 . S
C1111 C505 1.315 . S
C1115 C288 1.334 . S
C1129 C583 1.330 . S
C1133 C328 1.319 . S
