# Generated by pormake.
# Topology uod, (4)-cn, num edge types: 1
# Building blocks:
#     Node 0, Type 0, BuildingBlock: GALJAG_clean_sbu_0, # of connection points: 4
#     Node 1, Type 0, BuildingBlock: GALJAG_clean_sbu_0, # of connection points: 4
#     Node 2, Type 0, BuildingBlock: GALJAG_clean_sbu_0, # of connection points: 4
#     Node 3, Type 0, BuildingBlock: GALJAG_clean_sbu_0, # of connection points: 4
#     Node 4, Type 0, BuildingBlock: GALJAG_clean_sbu_0, # of connection points: 4
#     Node 5, Type 0, BuildingBlock: GALJAG_clean_sbu_0, # of connection points: 4
#     Node 6, Type 0, BuildingBlock: GALJAG_clean_sbu_0, # of connection points: 4
#     Node 7, Type 0, BuildingBlock: GALJAG_clean_sbu_0, # of connection points: 4
#     Node 8, Type 0, BuildingBlock: GALJAG_clean_sbu_0, # of connection points: 4
#     Node 9, Type 0, BuildingBlock: GALJAG_clean_sbu_0, # of connection points: 4
#     Node 10, Type 0, BuildingBlock: GALJAG_clean_sbu_0, # of connection points: 4
#     Node 11, Type 0, BuildingBlock: GALJAG_clean_sbu_0, # of connection points: 4
#     Node 12, Type 0, BuildingBlock: GALJAG_clean_sbu_0, # of connection points: 4
#     Node 13, Type 0, BuildingBlock: GALJAG_clean_sbu_0, # of connection points: 4
#     Node 14, Type 0, BuildingBlock: GALJAG_clean_sbu_0, # of connection points: 4
#     Node 15, Type 0, BuildingBlock: GALJAG_clean_sbu_0, # of connection points: 4
#     Node 16, Type 0, BuildingBlock: GALJAG_clean_sbu_0, # of connection points: 4
#     Node 17, Type 0, BuildingBlock: GALJAG_clean_sbu_0, # of connection points: 4
#     Node 18, Type 0, BuildingBlock: GALJAG_clean_sbu_0, # of connection points: 4
#     Node 19, Type 0, BuildingBlock: GALJAG_clean_sbu_0, # of connection points: 4
#     Node 20, Type 0, BuildingBlock: GALJAG_clean_sbu_0, # of connection points: 4
#     Node 21, Type 0, BuildingBlock: GALJAG_clean_sbu_0, # of connection points: 4
#     Node 22, Type 0, BuildingBlock: GALJAG_clean_sbu_0, # of connection points: 4
#     Node 23, Type 0, BuildingBlock: GALJAG_clean_sbu_0, # of connection points: 4
#     Node 24, Type 0, BuildingBlock: GALJAG_clean_sbu_0, # of connection points: 4
#     Node 25, Type 0, BuildingBlock: GALJAG_clean_sbu_0, # of connection points: 4
#     Node 26, Type 0, BuildingBlock: GALJAG_clean_sbu_0, # of connection points: 4
#     Node 27, Type 0, BuildingBlock: GALJAG_clean_sbu_0, # of connection points: 4
#     Node 28, Type 0, BuildingBlock: GALJAG_clean_sbu_0, # of connection points: 4
#     Node 29, Type 0, BuildingBlock: GALJAG_clean_sbu_0, # of connection points: 4
#     Node 30, Type 0, BuildingBlock: GALJAG_clean_sbu_0, # of connection points: 4
#     Node 31, Type 0, BuildingBlock: GALJAG_clean_sbu_0, # of connection points: 4
#     Edge 32, Type (0, 0), BuildingBlock: KIFKEQ_clean_linker_1, # of connection points: 2
#     Edge 33, Type (0, 0), BuildingBlock: KIFKEQ_clean_linker_1, # of connection points: 2
#     Edge 34, Type (0, 0), BuildingBlock: KIFKEQ_clean_linker_1, # of connection points: 2
#     Edge 35, Type (0, 0), BuildingBlock: KIFKEQ_clean_linker_1, # of connection points: 2
#     Edge 36, Type (0, 0), BuildingBlock: KIFKEQ_clean_linker_1, # of connection points: 2
#     Edge 37, Type (0, 0), BuildingBlock: KIFKEQ_clean_linker_1, # of connection points: 2
#     Edge 38, Type (0, 0), BuildingBlock: KIFKEQ_clean_linker_1, # of connection points: 2
#     Edge 39, Type (0, 0), BuildingBlock: KIFKEQ_clean_linker_1, # of connection points: 2
#     Edge 40, Type (0, 0), BuildingBlock: KIFKEQ_clean_linker_1, # of connection points: 2
#     Edge 41, Type (0, 0), BuildingBlock: KIFKEQ_clean_linker_1, # of connection points: 2
#     Edge 42, Type (0, 0), BuildingBlock: KIFKEQ_clean_linker_1, # of connection points: 2
#     Edge 43, Type (0, 0), BuildingBlock: KIFKEQ_clean_linker_1, # of connection points: 2
#     Edge 44, Type (0, 0), BuildingBlock: KIFKEQ_clean_linker_1, # of connection points: 2
#     Edge 45, Type (0, 0), BuildingBlock: KIFKEQ_clean_linker_1, # of connection points: 2
#     Edge 46, Type (0, 0), BuildingBlock: KIFKEQ_clean_linker_1, # of connection points: 2
#     Edge 47, Type (0, 0), BuildingBlock: KIFKEQ_clean_linker_1, # of connection points: 2
#     Edge 48, Type (0, 0), BuildingBlock: KIFKEQ_clean_linker_1, # of connection points: 2
#     Edge 49, Type (0, 0), BuildingBlock: KIFKEQ_clean_linker_1, # of connection points: 2
#     Edge 50, Type (0, 0), BuildingBlock: KIFKEQ_clean_linker_1, # of connection points: 2
#     Edge 51, Type (0, 0), BuildingBlock: KIFKEQ_clean_linker_1, # of connection points: 2
#     Edge 52, Type (0, 0), BuildingBlock: KIFKEQ_clean_linker_1, # of connection points: 2
#     Edge 53, Type (0, 0), BuildingBlock: KIFKEQ_clean_linker_1, # of connection points: 2
#     Edge 54, Type (0, 0), BuildingBlock: KIFKEQ_clean_linker_1, # of connection points: 2
#     Edge 55, Type (0, 0), BuildingBlock: KIFKEQ_clean_linker_1, # of connection points: 2
#     Edge 56, Type (0, 0), BuildingBlock: KIFKEQ_clean_linker_1, # of connection points: 2
#     Edge 57, Type (0, 0), BuildingBlock: KIFKEQ_clean_linker_1, # of connection points: 2
#     Edge 58, Type (0, 0), BuildingBlock: KIFKEQ_clean_linker_1, # of connection points: 2
#     Edge 59, Type (0, 0), BuildingBlock: KIFKEQ_clean_linker_1, # of connection points: 2
#     Edge 60, Type (0, 0), BuildingBlock: KIFKEQ_clean_linker_1, # of connection points: 2
#     Edge 61, Type (0, 0), BuildingBlock: KIFKEQ_clean_linker_1, # of connection points: 2
#     Edge 62, Type (0, 0), BuildingBlock: KIFKEQ_clean_linker_1, # of connection points: 2
#     Edge 63, Type (0, 0), BuildingBlock: KIFKEQ_clean_linker_1, # of connection points: 2
#     Edge 64, Type (0, 0), BuildingBlock: KIFKEQ_clean_linker_1, # of connection points: 2
#     Edge 65, Type (0, 0), BuildingBlock: KIFKEQ_clean_linker_1, # of connection points: 2
#     Edge 66, Type (0, 0), BuildingBlock: KIFKEQ_clean_linker_1, # of connection points: 2
#     Edge 67, Type (0, 0), BuildingBlock: KIFKEQ_clean_linker_1, # of connection points: 2
#     Edge 68, Type (0, 0), BuildingBlock: KIFKEQ_clean_linker_1, # of connection points: 2
#     Edge 69, Type (0, 0), BuildingBlock: KIFKEQ_clean_linker_1, # of connection points: 2
#     Edge 70, Type (0, 0), BuildingBlock: KIFKEQ_clean_linker_1, # of connection points: 2
#     Edge 71, Type (0, 0), BuildingBlock: KIFKEQ_clean_linker_1, # of connection points: 2
#     Edge 72, Type (0, 0), BuildingBlock: KIFKEQ_clean_linker_1, # of connection points: 2
#     Edge 73, Type (0, 0), BuildingBlock: KIFKEQ_clean_linker_1, # of connection points: 2
#     Edge 74, Type (0, 0), BuildingBlock: KIFKEQ_clean_linker_1, # of connection points: 2
#     Edge 75, Type (0, 0), BuildingBlock: KIFKEQ_clean_linker_1, # of connection points: 2
#     Edge 76, Type (0, 0), BuildingBlock: KIFKEQ_clean_linker_1, # of connection points: 2
#     Edge 77, Type (0, 0), BuildingBlock: KIFKEQ_clean_linker_1, # of connection points: 2
#     Edge 78, Type (0, 0), BuildingBlock: KIFKEQ_clean_linker_1, # of connection points: 2
#     Edge 79, Type (0, 0), BuildingBlock: KIFKEQ_clean_linker_1, # of connection points: 2
#     Edge 80, Type (0, 0), BuildingBlock: KIFKEQ_clean_linker_1, # of connection points: 2
#     Edge 81, Type (0, 0), BuildingBlock: KIFKEQ_clean_linker_1, # of connection points: 2
#     Edge 82, Type (0, 0), BuildingBlock: KIFKEQ_clean_linker_1, # of connection points: 2
#     Edge 83, Type (0, 0), BuildingBlock: KIFKEQ_clean_linker_1, # of connection points: 2
#     Edge 84, Type (0, 0), BuildingBlock: KIFKEQ_clean_linker_1, # of connection points: 2
#     Edge 85, Type (0, 0), BuildingBlock: KIFKEQ_clean_linker_1, # of connection points: 2
#     Edge 86, Type (0, 0), BuildingBlock: KIFKEQ_clean_linker_1, # of connection points: 2
#     Edge 87, Type (0, 0), BuildingBlock: KIFKEQ_clean_linker_1, # of connection points: 2
#     Edge 88, Type (0, 0), BuildingBlock: KIFKEQ_clean_linker_1, # of connection points: 2
#     Edge 89, Type (0, 0), BuildingBlock: KIFKEQ_clean_linker_1, # of connection points: 2
#     Edge 90, Type (0, 0), BuildingBlock: KIFKEQ_clean_linker_1, # of connection points: 2
#     Edge 91, Type (0, 0), BuildingBlock: KIFKEQ_clean_linker_1, # of connection points: 2
#     Edge 92, Type (0, 0), BuildingBlock: KIFKEQ_clean_linker_1, # of connection points: 2
#     Edge 93, Type (0, 0), BuildingBlock: KIFKEQ_clean_linker_1, # of connection points: 2
#     Edge 94, Type (0, 0), BuildingBlock: KIFKEQ_clean_linker_1, # of connection points: 2
#     Edge 95, Type (0, 0), BuildingBlock: KIFKEQ_clean_linker_1, # of connection points: 2
# Relax obj value: 0.120
# Max RMSD: 0.152
# Mean RMSD: 0.152
data_MOF--net-uod--node1-GALJAG_clean_sbu_0--edge1-KIFKEQ_clean_linker_1
_symmetry_space_group_name_H-M    P1
_symmetry_Int_Tables_number       1
_symmetry_cell_setting            triclinic
loop_
_symmetry_equiv_pos_as_xyz
'x, y, z'
_cell_length_a     97.10481
_cell_length_b     28.520441
_cell_length_c     53.537639
_cell_angle_alpha  89.994688
_cell_angle_beta   89.923731
_cell_angle_gamma 90.053237
loop_
_atom_site_label
_atom_site_type_symbol
_atom_site_fract_x
_atom_site_fract_y
_atom_site_fract_z
_atom_type_partial_charge
In0 In 0.05352 0.37562 0.09612 0.0
O1 O 0.05332 0.43904 0.07014 0.0
O2 O 0.04099 0.38023 0.06034 0.0
C3 C 0.08111 0.37345 0.10335 0.0
C4 C 0.03979 0.43505 0.12603 0.0
C5 C 0.04639 0.28522 0.10139 0.0
O6 O 0.07595 0.3789 0.08186 0.0
O7 O 0.07241 0.36908 0.12065 0.0
O8 O 0.04517 0.31482 0.11873 0.0
O9 O 0.05106 0.30128 0.0811 0.0
C10 C 0.04423 0.4223 0.05583 0.0
O11 O 0.03372 0.40899 0.11056 0.0
O12 O 0.05255 0.42772 0.12792 0.0
In13 In 0.2105 0.85672 0.09234 0.0
O14 O 0.22129 0.80291 0.11737 0.0
O15 O 0.20562 0.78023 0.0921 0.0
C16 C 0.21721 0.94335 0.10672 0.0
C17 C 0.2281 0.84264 0.05426 0.0
C18 C 0.18327 0.86511 0.10088 0.0
O19 O 0.21871 0.90837 0.1211 0.0
O20 O 0.21248 0.93411 0.08525 0.0
O21 O 0.18814 0.86392 0.07885 0.0
O22 O 0.19212 0.86222 0.1181 0.0
C23 C 0.21467 0.76901 0.10787 0.0
O24 O 0.21515 0.84138 0.05098 0.0
O25 O 0.23184 0.85392 0.07599 0.0
In26 In 0.05403 0.85569 0.14874 0.0
O27 O 0.05038 0.83544 0.1899 0.0
O28 O 0.0331 0.85017 0.16666 0.0
C29 C 0.08136 0.86677 0.14182 0.0
C30 C 0.04928 0.77089 0.12939 0.0
C31 C 0.04646 0.94185 0.13532 0.0
O32 O 0.07622 0.86195 0.1635 0.0
O33 O 0.07272 0.86643 0.12422 0.0
O34 O 0.04685 0.90842 0.11978 0.0
O35 O 0.04984 0.93161 0.15746 0.0
C36 C 0.03737 0.8368 0.18771 0.0
O37 O 0.042 0.80576 0.12324 0.0
O38 O 0.05924 0.77998 0.14365 0.0
In39 In 0.21041 0.37343 0.15215 0.0
O40 O 0.21095 0.4407 0.17485 0.0
O41 O 0.22008 0.3802 0.191 0.0
C42 C 0.18301 0.37207 0.14262 0.0
C43 C 0.22439 0.43068 0.12138 0.0
C44 C 0.21826 0.28287 0.15016 0.0
O45 O 0.18778 0.3818 0.16395 0.0
O46 O 0.19202 0.36272 0.1264 0.0
O47 O 0.22217 0.31305 0.13446 0.0
O48 O 0.21057 0.29856 0.16724 0.0
C49 C 0.21795 0.42383 0.1925 0.0
O50 O 0.2301 0.4093 0.13919 0.0
O51 O 0.212 0.41924 0.11765 0.0
In52 In 0.95987 0.62013 0.91816 0.0
O53 O 0.9628 0.60084 0.95935 0.0
O54 O 0.9799 0.62827 0.93899 0.0
C55 C 0.93284 0.61499 0.90644 0.0
C56 C 0.96916 0.53872 0.9007 0.0
C57 C 0.96533 0.70779 0.90374 0.0
O58 O 0.93677 0.6253 0.92834 0.0
O59 O 0.94245 0.60676 0.89125 0.0
O60 O 0.96942 0.67258 0.89143 0.0
O61 O 0.95865 0.69853 0.92341 0.0
C62 C 0.97556 0.61044 0.9591 0.0
O63 O 0.97035 0.57607 0.88808 0.0
O64 O 0.963 0.54259 0.92133 0.0
In65 In 0.80524 0.12508 0.91624 0.0
O66 O 0.8004 0.13937 0.95765 0.0
O67 O 0.78389 0.12864 0.93193 0.0
C68 C 0.83218 0.12233 0.9042 0.0
C69 C 0.79955 0.21047 0.89957 0.0
C70 C 0.79877 0.03779 0.90324 0.0
O71 O 0.82826 0.12349 0.92685 0.0
O72 O 0.82258 0.12247 0.88833 0.0
O73 O 0.79588 0.07276 0.88964 0.0
O74 O 0.8048 0.04717 0.92361 0.0
C75 C 0.78747 0.1394 0.95384 0.0
O76 O 0.79534 0.1743 0.88812 0.0
O77 O 0.80709 0.20293 0.91833 0.0
In78 In 0.95826 0.1274 0.83173 0.0
O79 O 0.96176 0.14519 0.79035 0.0
O80 O 0.97884 0.12325 0.81254 0.0
C81 C 0.9313 0.12784 0.84436 0.0
C82 C 0.96649 0.20974 0.84969 0.0
C83 C 0.96438 0.03921 0.84387 0.0
O84 O 0.9351 0.12745 0.82167 0.0
O85 O 0.941 0.1286 0.85996 0.0
O86 O 0.9683 0.07383 0.85684 0.0
O87 O 0.95747 0.04931 0.82458 0.0
C88 C 0.97468 0.13862 0.79177 0.0
O89 O 0.96827 0.17231 0.86196 0.0
O90 O 0.96012 0.20552 0.82932 0.0
In91 In 0.80791 0.62087 0.82934 0.0
O92 O 0.80647 0.59768 0.78847 0.0
O93 O 0.78842 0.62352 0.80649 0.0
C94 C 0.83453 0.6208 0.84384 0.0
C95 C 0.79947 0.53805 0.84613 0.0
C96 C 0.80088 0.70785 0.84229 0.0
O97 O 0.83115 0.62859 0.82134 0.0
O98 O 0.82457 0.61323 0.85843 0.0
O99 O 0.79729 0.67243 0.85497 0.0
O100 O 0.80789 0.69913 0.8229 0.0
C101 C 0.79357 0.60425 0.78744 0.0
O102 O 0.79585 0.57561 0.85693 0.0
O103 O 0.80771 0.54286 0.8281 0.0
In104 In 0.05246 0.88033 0.59451 0.0
O105 O 0.05186 0.93278 0.56219 0.0
O106 O 0.03717 0.8776 0.56237 0.0
C107 C 0.08009 0.88165 0.60042 0.0
C108 C 0.04052 0.9478 0.6224 0.0
C109 C 0.04719 0.78868 0.60227 0.0
O110 O 0.07452 0.88784 0.5793 0.0
O111 O 0.07174 0.8746 0.61812 0.0
O112 O 0.04408 0.81986 0.61807 0.0
O113 O 0.05273 0.80393 0.58253 0.0
C114 C 0.04122 0.91523 0.55237 0.0
O115 O 0.03358 0.91782 0.61057 0.0
O116 O 0.0533 0.94037 0.62229 0.0
In117 In 0.21299 0.36235 0.60195 0.0
O118 O 0.21346 0.30612 0.57172 0.0
O119 O 0.22657 0.36513 0.56709 0.0
C120 C 0.18543 0.35899 0.60932 0.0
C121 C 0.22696 0.29666 0.62785 0.0
C122 C 0.2179 0.45485 0.60864 0.0
O123 O 0.19077 0.35486 0.58786 0.0
O124 O 0.19397 0.36472 0.62681 0.0
O125 O 0.22101 0.42454 0.62492 0.0
O126 O 0.2126 0.43831 0.58901 0.0
C127 C 0.22313 0.3249 0.55949 0.0
O128 O 0.23291 0.32826 0.61541 0.0
O129 O 0.21412 0.30211 0.62991 0.0
In130 In 0.05481 0.35195 0.64623 0.0
O131 O 0.03587 0.31562 0.62977 0.0
O132 O 0.05558 0.29058 0.61929 0.0
C133 C 0.04889 0.44297 0.63819 0.0
C134 C 0.04371 0.31576 0.68827 0.0
C135 C 0.08247 0.35336 0.64018 0.0
O136 O 0.04626 0.41145 0.6223 0.0
O137 O 0.05431 0.42837 0.65816 0.0
O138 O 0.07693 0.34757 0.66139 0.0
O139 O 0.07407 0.3584 0.62241 0.0
C140 C 0.04273 0.28441 0.61869 0.0
O141 O 0.05411 0.29789 0.67778 0.0
O142 O 0.03991 0.35437 0.67909 0.0
In143 In 0.20993 0.89581 0.64412 0.0
O144 O 0.23054 0.9284 0.63329 0.0
O145 O 0.21256 0.95539 0.61608 0.0
C146 C 0.21596 0.80393 0.63783 0.0
C147 C 0.21789 0.93503 0.68761 0.0
C148 C 0.18254 0.89694 0.63457 0.0
O149 O 0.21893 0.83455 0.6216 0.0
O150 O 0.21025 0.81989 0.65722 0.0
O151 O 0.18734 0.9014 0.65637 0.0
O152 O 0.19153 0.89232 0.61772 0.0
C153 C 0.22532 0.96003 0.61984 0.0
O154 O 0.2101 0.95564 0.67231 0.0
O155 O 0.22051 0.89285 0.68222 0.0
In156 In 0.95718 0.10259 0.40545 0.0
O157 O 0.96087 0.08787 0.44716 0.0
O158 O 0.97805 0.10226 0.42349 0.0
C159 C 0.93007 0.10686 0.39512 0.0
C160 C 0.9628 0.01529 0.39096 0.0
C161 C 0.96377 0.18896 0.39034 0.0
O162 O 0.93458 0.11204 0.41722 0.0
O163 O 0.93923 0.09981 0.37876 0.0
O164 O 0.96573 0.15346 0.37654 0.0
O165 O 0.95856 0.18045 0.41153 0.0
C166 C 0.97387 0.0905 0.4449 0.0
O167 O 0.96888 0.05003 0.38109 0.0
O168 O 0.9536 0.02532 0.40672 0.0
In169 In 0.8062 0.62406 0.4074 0.0
O170 O 0.80494 0.68663 0.43391 0.0
O171 O 0.79374 0.62541 0.44365 0.0
C172 C 0.83365 0.62082 0.3983 0.0
C173 C 0.79429 0.68496 0.37574 0.0
C174 C 0.79849 0.53382 0.40278 0.0
O175 O 0.82894 0.63144 0.41965 0.0
O176 O 0.82458 0.61144 0.38224 0.0
O177 O 0.79468 0.56538 0.38778 0.0
O178 O 0.80608 0.54791 0.4204 0.0
C179 C 0.79616 0.66804 0.44822 0.0
O180 O 0.78738 0.66096 0.39105 0.0
O181 O 0.80694 0.67536 0.37512 0.0
In182 In 0.96185 0.61841 0.33903 0.0
O183 O 0.98104 0.65883 0.35115 0.0
O184 O 0.96291 0.66674 0.3727 0.0
C185 C 0.96827 0.52701 0.34344 0.0
C186 C 0.97093 0.6584 0.29636 0.0
C187 C 0.93455 0.61986 0.34967 0.0
O188 O 0.97297 0.55794 0.35799 0.0
O189 O 0.96052 0.54236 0.3264 0.0
O190 O 0.93905 0.62824 0.32789 0.0
O191 O 0.94375 0.61072 0.3655 0.0
C192 C 0.97513 0.67966 0.36888 0.0
O193 O 0.96182 0.67729 0.30992 0.0
O194 O 0.97433 0.61758 0.30305 0.0
In195 In 0.80189 0.10981 0.33775 0.0
O196 O 0.79751 0.101 0.29607 0.0
O197 O 0.78065 0.11317 0.32099 0.0
C198 C 0.82908 0.10872 0.3478 0.0
C199 C 0.79517 0.02121 0.34742 0.0
C200 C 0.79633 0.19629 0.35398 0.0
O201 O 0.82456 0.11805 0.32613 0.0
O202 O 0.81992 0.09972 0.36387 0.0
O203 O 0.7936 0.16046 0.36716 0.0
O204 O 0.80166 0.18791 0.33288 0.0
C205 C 0.78454 0.10353 0.29904 0.0
O206 O 0.79176 0.05372 0.36243 0.0
O207 O 0.80254 0.0336 0.32914 0.0
In208 In 0.55117 0.3748 0.59272 0.0
O209 O 0.5476 0.39176 0.55126 0.0
O210 O 0.53028 0.37741 0.57462 0.0
C211 C 0.57824 0.36813 0.60261 0.0
C212 C 0.54628 0.46103 0.60969 0.0
C213 C 0.54477 0.2873 0.6057 0.0
O214 O 0.57376 0.3703 0.58036 0.0
O215 O 0.56907 0.36897 0.61939 0.0
O216 O 0.54277 0.32153 0.62037 0.0
O217 O 0.5498 0.29771 0.58459 0.0
C218 C 0.53459 0.38972 0.55338 0.0
O219 O 0.53944 0.42636 0.61782 0.0
O220 O 0.55576 0.45119 0.59448 0.0
In221 In 0.7087 0.87304 0.58048 0.0
O222 O 0.71113 0.82803 0.54503 0.0
O223 O 0.72524 0.88371 0.55102 0.0
C224 C 0.68109 0.85673 0.58359 0.0
C225 C 0.72151 0.81068 0.61018 0.0
C226 C 0.71281 0.96299 0.59412 0.0
O227 O 0.68615 0.88497 0.56787 0.0
O228 O 0.68992 0.83537 0.59639 0.0
O229 O 0.71673 0.92901 0.60738 0.0
O230 O 0.70685 0.95154 0.57416 0.0
C231 C 0.722 0.84868 0.53792 0.0
O232 O 0.72589 0.82195 0.5889 0.0
O233 O 0.71118 0.83387 0.61749 0.0
In234 In 0.55426 0.85632 0.65169 0.0
O235 O 0.55442 0.79496 0.67933 0.0
O236 O 0.54352 0.85656 0.68948 0.0
C237 C 0.58122 0.85499 0.63824 0.0
C238 C 0.53916 0.79711 0.62378 0.0
C239 C 0.54736 0.94724 0.64756 0.0
O240 O 0.57745 0.84945 0.66071 0.0
O241 O 0.57148 0.86119 0.62308 0.0
O242 O 0.54286 0.91613 0.63295 0.0
O243 O 0.55535 0.93247 0.66439 0.0
C244 C 0.54627 0.81437 0.69455 0.0
O245 O 0.53397 0.82127 0.64107 0.0
O246 O 0.55168 0.80564 0.61942 0.0
In247 In 0.70628 0.38817 0.65729 0.0
O248 O 0.7126 0.40709 0.69749 0.0
O249 O 0.7281 0.39748 0.66956 0.0
C250 C 0.67922 0.37794 0.64892 0.0
C251 C 0.70927 0.47438 0.63936 0.0
C252 C 0.71304 0.3003 0.64591 0.0
O253 O 0.68393 0.3821 0.67097 0.0
O254 O 0.68816 0.379 0.63171 0.0
O255 O 0.71468 0.33378 0.63059 0.0
O256 O 0.70821 0.31163 0.66707 0.0
C257 C 0.72529 0.40947 0.69167 0.0
O258 O 0.71555 0.43996 0.62957 0.0
O259 O 0.70099 0.46431 0.65675 0.0
In260 In 0.45999 0.61506 0.40518 0.0
O261 O 0.46001 0.55264 0.43198 0.0
O262 O 0.47129 0.61336 0.4424 0.0
C263 C 0.43276 0.61455 0.39412 0.0
C264 C 0.4741 0.55721 0.37472 0.0
C265 C 0.467 0.70616 0.40335 0.0
O266 O 0.43725 0.60164 0.4152 0.0
O267 O 0.44193 0.62811 0.37908 0.0
O268 O 0.4715 0.67633 0.38797 0.0
O269 O 0.45899 0.68996 0.41982 0.0
C270 C 0.46836 0.57115 0.44714 0.0
O271 O 0.47972 0.57899 0.39242 0.0
O272 O 0.46166 0.5678 0.37113 0.0
In273 In 0.30442 0.11075 0.41635 0.0
O274 O 0.28713 0.16098 0.4052 0.0
O275 O 0.30428 0.15505 0.38104 0.0
C276 C 0.2985 0.02015 0.407 0.0
C277 C 0.29272 0.14238 0.45888 0.0
C278 C 0.33199 0.11819 0.40931 0.0
O279 O 0.29358 0.0533 0.39425 0.0
O280 O 0.3063 0.03273 0.42455 0.0
O281 O 0.32695 0.11272 0.43098 0.0
O282 O 0.32319 0.12025 0.39213 0.0
C283 C 0.29309 0.17542 0.3858 0.0
O284 O 0.30312 0.16235 0.44931 0.0
O285 O 0.2892 0.1048 0.44821 0.0
In286 In 0.45961 0.13221 0.34862 0.0
O287 O 0.46278 0.14598 0.30674 0.0
O288 O 0.4803 0.13316 0.32982 0.0
C289 C 0.43278 0.1266 0.36077 0.0
C290 C 0.46484 0.22059 0.3613 0.0
C291 C 0.46653 0.04607 0.36311 0.0
O292 O 0.43692 0.12098 0.33844 0.0
O293 O 0.44217 0.13485 0.37651 0.0
O294 O 0.46855 0.08132 0.3771 0.0
O295 O 0.46115 0.05486 0.34212 0.0
C296 C 0.47582 0.14409 0.3085 0.0
O297 O 0.47134 0.18705 0.37145 0.0
O298 O 0.45544 0.20879 0.34632 0.0
In299 In 0.30481 0.59942 0.33618 0.0
O300 O 0.2977 0.59513 0.29535 0.0
O301 O 0.28271 0.59703 0.32476 0.0
C302 C 0.33204 0.60125 0.34525 0.0
C303 C 0.2998 0.51019 0.34695 0.0
C304 C 0.2991 0.68564 0.35206 0.0
O305 O 0.32738 0.60424 0.32311 0.0
O306 O 0.32299 0.59698 0.36207 0.0
O307 O 0.29677 0.64986 0.36552 0.0
O308 O 0.3042 0.67744 0.33073 0.0
C309 C 0.28506 0.59273 0.30164 0.0
O310 O 0.29661 0.5426 0.36216 0.0
O311 O 0.30618 0.52307 0.32753 0.0
In312 In 0.55435 0.88697 0.09205 0.0
O313 O 0.54239 0.93752 0.11728 0.0
O314 O 0.55885 0.96369 0.09476 0.0
C315 C 0.54703 0.80008 0.10511 0.0
C316 C 0.53853 0.90378 0.05186 0.0
C317 C 0.58143 0.87837 0.1019 0.0
O318 O 0.54525 0.83472 0.11957 0.0
O319 O 0.55237 0.8097 0.08416 0.0
O320 O 0.57691 0.88006 0.07968 0.0
O321 O 0.57231 0.88088 0.11869 0.0
C322 C 0.54918 0.97272 0.10972 0.0
O323 O 0.55157 0.90499 0.05052 0.0
O324 O 0.53379 0.89128 0.07275 0.0
In325 In 0.70664 0.3455 0.10176 0.0
O326 O 0.72052 0.29773 0.12537 0.0
O327 O 0.70193 0.27041 0.11002 0.0
C328 C 0.71404 0.43274 0.11436 0.0
C329 C 0.7209 0.32173 0.06049 0.0
C330 C 0.67949 0.3546 0.11083 0.0
O331 O 0.71543 0.39862 0.1293 0.0
O332 O 0.70911 0.42239 0.09323 0.0
O333 O 0.68438 0.35766 0.08889 0.0
O334 O 0.6883 0.34741 0.12774 0.0
C335 C 0.71288 0.26237 0.12184 0.0
O336 O 0.70798 0.31599 0.0619 0.0
O337 O 0.72617 0.34292 0.07878 0.0
In338 In 0.55014 0.37092 0.15946 0.0
O339 O 0.53104 0.32916 0.14849 0.0
O340 O 0.5488 0.32325 0.12562 0.0
C341 C 0.54375 0.46191 0.15226 0.0
C342 C 0.54098 0.32928 0.20161 0.0
C343 C 0.57766 0.36706 0.15133 0.0
O344 O 0.5399 0.42995 0.13758 0.0
O345 O 0.55067 0.4479 0.17069 0.0
O346 O 0.5727 0.37281 0.17297 0.0
O347 O 0.56881 0.36307 0.13429 0.0
C348 C 0.53677 0.30903 0.13031 0.0
O349 O 0.55067 0.31231 0.18867 0.0
O350 O 0.53693 0.36917 0.19455 0.0
In351 In 0.70991 0.86532 0.15715 0.0
O352 O 0.72932 0.90222 0.1432 0.0
O353 O 0.71061 0.91537 0.12423 0.0
C354 C 0.71677 0.7741 0.15418 0.0
C355 C 0.71867 0.91049 0.19849 0.0
C356 C 0.68254 0.86394 0.14756 0.0
O357 O 0.72073 0.80408 0.13837 0.0
O358 O 0.70951 0.7903 0.17174 0.0
O359 O 0.68725 0.87413 0.16892 0.0
O360 O 0.6916 0.85419 0.13147 0.0
C361 C 0.72314 0.92584 0.12683 0.0
O362 O 0.7093 0.92668 0.18463 0.0
O363 O 0.72252 0.86953 0.19291 0.0
In364 In 0.45903 0.12365 0.90232 0.0
O365 O 0.46236 0.09077 0.94157 0.0
O366 O 0.47891 0.09231 0.91561 0.0
C367 C 0.43161 0.13342 0.89584 0.0
C368 C 0.46311 0.05809 0.86753 0.0
C369 C 0.46791 0.21253 0.90168 0.0
O370 O 0.43662 0.11468 0.9153 0.0
O371 O 0.44043 0.14833 0.8804 0.0
O372 O 0.46951 0.18474 0.88358 0.0
O373 O 0.46166 0.19561 0.92034 0.0
C374 C 0.47471 0.07961 0.93676 0.0
O375 O 0.47108 0.09284 0.8696 0.0
O376 O 0.45302 0.05753 0.88234 0.0
In377 In 0.30522 0.61757 0.91041 0.0
O378 O 0.30564 0.67747 0.93901 0.0
O379 O 0.29285 0.61874 0.9465 0.0
C380 C 0.33258 0.61781 0.90016 0.0
C381 C 0.29206 0.67954 0.88109 0.0
C382 C 0.29766 0.52753 0.90391 0.0
O383 O 0.32811 0.61577 0.92237 0.0
O384 O 0.32333 0.61994 0.88373 0.0
O385 O 0.29362 0.56008 0.88978 0.0
O386 O 0.30545 0.54045 0.92142 0.0
C387 C 0.29642 0.65964 0.95274 0.0
O388 O 0.2862 0.65916 0.89906 0.0
O389 O 0.30419 0.66597 0.87684 0.0
In390 In 0.46005 0.62939 0.83836 0.0
O391 O 0.47009 0.68777 0.86105 0.0
O392 O 0.45398 0.70423 0.83506 0.0
C393 C 0.46782 0.54601 0.85528 0.0
C394 C 0.47744 0.64139 0.79984 0.0
C395 C 0.43321 0.61998 0.84977 0.0
O396 O 0.46932 0.58278 0.86834 0.0
O397 O 0.46248 0.5519 0.83396 0.0
O398 O 0.43756 0.61436 0.82753 0.0
O399 O 0.44241 0.62956 0.86566 0.0
C400 C 0.46274 0.71881 0.85061 0.0
O401 O 0.46447 0.64138 0.79659 0.0
O402 O 0.4813 0.63275 0.82185 0.0
In403 In 0.30354 0.10571 0.84031 0.0
O404 O 0.29732 0.09646 0.799 0.0
O405 O 0.28193 0.09378 0.82759 0.0
C406 C 0.33062 0.11529 0.84963 0.0
C407 C 0.30062 0.01744 0.85514 0.0
C408 C 0.29615 0.19155 0.85455 0.0
O409 O 0.32603 0.11416 0.82739 0.0
O410 O 0.32156 0.11155 0.8665 0.0
O411 O 0.29488 0.15647 0.86893 0.0
O412 O 0.30097 0.18282 0.83308 0.0
C413 C 0.28475 0.08963 0.80469 0.0
O414 O 0.29451 0.05066 0.86636 0.0
O415 O 0.30864 0.02949 0.83766 0.0
H416 H 0.066 0.69577 0.12984 0.0
H417 H 0.02348 0.73603 0.12011 0.0
H418 H 0.05914 0.61419 0.13341 0.0
H419 H 0.01652 0.65334 0.12385 0.0
H420 H 0.02072 0.48681 0.10135 0.0
H421 H 0.02024 0.5723 0.102 0.0
H422 H 0.04595 0.57197 0.16773 0.0
H423 H 0.04683 0.4866 0.16658 0.0
C424 C 0.05519 0.68695 0.128 0.0
C425 C 0.04526 0.72203 0.12483 0.0
C426 C 0.05124 0.64039 0.13044 0.0
C427 C 0.03725 0.62788 0.12988 0.0
C428 C 0.02734 0.66239 0.12477 0.0
C429 C 0.03133 0.70941 0.12231 0.0
C430 C 0.02565 0.50491 0.11674 0.0
C431 C 0.03406 0.4804 0.13368 0.0
C432 C 0.02543 0.5539 0.11697 0.0
C433 C 0.03346 0.57844 0.13437 0.0
C434 C 0.03999 0.55361 0.1537 0.0
C435 C 0.04036 0.50482 0.15326 0.0
H436 H 0.19811 0.69457 0.1004 0.0
H437 H 0.23944 0.73199 0.12246 0.0
H438 H 0.20458 0.6126 0.09909 0.0
H439 H 0.24615 0.64907 0.12053 0.0
H440 H 0.24222 0.48876 0.14519 0.0
H441 H 0.24219 0.5736 0.14087 0.0
H442 H 0.2181 0.56102 0.07337 0.0
H443 H 0.2175 0.47615 0.07855 0.0
C444 C 0.20859 0.68506 0.10515 0.0
C445 C 0.21827 0.71946 0.11159 0.0
C446 C 0.21239 0.63816 0.10396 0.0
C447 C 0.22601 0.62443 0.10889 0.0
C448 C 0.23561 0.65864 0.1164 0.0
C449 C 0.23175 0.70592 0.11776 0.0
C450 C 0.23744 0.50396 0.1288 0.0
C451 C 0.22959 0.47611 0.11246 0.0
C452 C 0.23738 0.55273 0.1264 0.0
C453 C 0.22968 0.57403 0.10734 0.0
C454 C 0.22368 0.54557 0.08882 0.0
C455 C 0.22351 0.49695 0.09151 0.0
H456 H 0.96625 0.24515 0.89679 0.0
H457 H 0.97792 0.27668 0.82087 0.0
H458 H 0.97081 0.32606 0.90867 0.0
H459 H 0.98359 0.35674 0.83284 0.0
H460 H 0.96793 0.50437 0.85353 0.0
H461 H 0.97097 0.42297 0.84125 0.0
H462 H 0.98487 0.38954 0.91602 0.0
H463 H 0.98072 0.47045 0.92848 0.0
C464 C 0.97023 0.26926 0.88289 0.0
C465 C 0.97152 0.25547 0.85795 0.0
C466 C 0.97297 0.3156 0.88964 0.0
C467 C 0.9774 0.34844 0.87161 0.0
C468 C 0.97978 0.33301 0.84705 0.0
C469 C 0.97663 0.28715 0.8402 0.0
C470 C 0.9719 0.47961 0.86707 0.0
C471 C 0.9739 0.49299 0.89192 0.0
C472 C 0.97374 0.43291 0.8601 0.0
C473 C 0.97797 0.39919 0.87778 0.0
C474 C 0.98118 0.41405 0.90212 0.0
C475 C 0.97894 0.46039 0.90923 0.0
H476 H 0.78768 0.51172 0.89046 0.0
H477 H 0.80026 0.45954 0.81818 0.0
H478 H 0.78297 0.43118 0.90406 0.0
H479 H 0.79579 0.37988 0.8317 0.0
H480 H 0.78474 0.23856 0.85878 0.0
H481 H 0.77962 0.31937 0.8464 0.0
H482 H 0.80039 0.37008 0.91246 0.0
H483 H 0.80529 0.29013 0.92489 0.0
C484 C 0.78918 0.48315 0.87741 0.0
C485 C 0.79464 0.49142 0.85356 0.0
C486 C 0.78649 0.43725 0.88513 0.0
C487 C 0.78914 0.39937 0.86898 0.0
C488 C 0.79354 0.4083 0.84448 0.0
C489 C 0.79629 0.4539 0.83688 0.0
C490 C 0.78804 0.26709 0.87071 0.0
C491 C 0.79564 0.25833 0.89247 0.0
C492 C 0.78507 0.31315 0.86373 0.0
C493 C 0.78961 0.35089 0.8785 0.0
C494 C 0.79657 0.34175 0.90091 0.0
C495 C 0.79957 0.29593 0.90781 0.0
H496 H 0.01729 0.98902 0.60397 0.0
H497 H 0.05213 0.01348 0.65237 0.0
H498 H 0.01361 0.07383 0.6007 0.0
H499 H 0.04834 0.09785 0.64912 0.0
H500 H 0.05429 0.21599 0.59043 0.0
H501 H 0.04931 0.13234 0.59396 0.0
H502 H 0.01379 0.16266 0.63953 0.0
H503 H 0.01866 0.24679 0.63599 0.0
C504 C 0.02372 0.01229 0.6149 0.0
C505 C 0.03509 -0.00523 0.62827 0.0
C506 C 0.02165 0.06073 0.61285 0.0
C507 C 0.03082 0.0918 0.6244 0.0
C508 C 0.0412 0.07419 0.63999 0.0
C509 C 0.04331 0.02601 0.64196 0.0
C510 C 0.04508 0.20503 0.60029 0.0
C511 C 0.03694 0.23782 0.61306 0.0
C512 C 0.04229 0.15726 0.60243 0.0
C513 C 0.0313 0.14159 0.61728 0.0
C514 C 0.02229 0.17426 0.62796 0.0
C515 C 0.02505 0.22229 0.62574 0.0
H516 H 0.2447 -0.00143 0.64999 0.0
H517 H 0.22011 0.02674 0.58453 0.0
H518 H 0.24971 0.08227 0.65406 0.0
H519 H 0.22572 0.1103 0.58802 0.0
H520 H 0.24647 0.25617 0.59874 0.0
H521 H 0.25069 0.17194 0.59481 0.0
H522 H 0.22523 0.1464 0.65945 0.0
H523 H 0.22042 0.23053 0.66274 0.0
C524 C 0.24096 0.02226 0.63571 0.0
C525 C 0.23204 0.00615 0.61684 0.0
C526 C 0.24377 0.07014 0.6382 0.0
C527 C 0.2381 0.10235 0.62134 0.0
C528 C 0.23029 0.08585 0.60109 0.0
C529 C 0.22713 0.03813 0.59903 0.0
C530 C 0.24224 0.23284 0.61278 0.0
C531 C 0.23316 0.24987 0.63119 0.0
C532 C 0.24459 0.18467 0.61035 0.0
C533 C 0.23829 0.15306 0.62685 0.0
C534 C 0.23029 0.17037 0.64667 0.0
C535 C 0.22759 0.2184 0.64864 0.0
H536 H 0.9475 0.93847 0.40031 0.0
H537 H 0.98755 0.98186 0.37382 0.0
H538 H 0.95475 0.85735 0.39948 0.0
H539 H 0.99511 0.89973 0.37365 0.0
H540 H 0.99156 0.74211 0.34494 0.0
H541 H 0.99116 0.82632 0.35203 0.0
H542 H 0.9693 0.80414 0.42143 0.0
H543 H 0.969 0.72002 0.41347 0.0
C544 C 0.95789 0.9305 0.39426 0.0
C545 C 0.96695 0.96629 0.38706 0.0
C546 C 0.96215 0.88402 0.39419 0.0
C547 C 0.97566 0.87209 0.38722 0.0
C548 C 0.98467 0.90784 0.37929 0.0
C549 C 0.98032 0.95469 0.37917 0.0
C550 C 0.9872 0.75511 0.36225 0.0
C551 C 0.98005 0.72488 0.37846 0.0
C552 C 0.98693 0.80349 0.36627 0.0
C553 C 0.97972 0.82197 0.3868 0.0
C554 C 0.97447 0.79096 0.40493 0.0
C555 C 0.97446 0.74277 0.40061 0.0
H556 H 0.80512 0.73301 0.33677 0.0
H557 H 0.77227 0.73658 0.39118 0.0
H558 H 0.80136 0.81533 0.32761 0.0
H559 H 0.76838 0.81947 0.38188 0.0
H560 H 0.78768 0.9726 0.38963 0.0
H561 H 0.78299 0.88823 0.39235 0.0
H562 H 0.78662 0.87699 0.31209 0.0
H563 H 0.79171 0.96029 0.30957 0.0
C564 C 0.79673 0.75104 0.34605 0.0
C565 C 0.78905 0.72862 0.36473 0.0
C566 C 0.79454 0.79827 0.34082 0.0
C567 C 0.78468 0.82407 0.3543 0.0
C568 C 0.77617 0.80057 0.37147 0.0
C569 C 0.77828 0.75302 0.37653 0.0
C570 C 0.78726 0.95202 0.37264 0.0
C571 C 0.79043 0.97241 0.34952 0.0
C572 C 0.78446 0.9039 0.37411 0.0
C573 C 0.78463 0.8759 0.35241 0.0
C574 C 0.7867 0.89742 0.32915 0.0
C575 C 0.78967 0.94506 0.32775 0.0
H576 H 0.52124 0.74239 0.64961 0.0
H577 H 0.5439 0.75101 0.58032 0.0
H578 H 0.51989 0.65743 0.64528 0.0
H579 H 0.54204 0.66628 0.57543 0.0
H580 H 0.56296 0.53563 0.60461 0.0
H581 H 0.55645 0.61752 0.60367 0.0
H582 H 0.51459 0.58041 0.62282 0.0
H583 H 0.52125 0.49715 0.62396 0.0
C584 C 0.52521 0.72642 0.63271 0.0
C585 C 0.53296 0.75286 0.61552 0.0
C586 C 0.52448 0.67769 0.63031 0.0
C587 C 0.5313 0.65535 0.61051 0.0
C588 C 0.53705 0.68273 0.59128 0.0
C589 C 0.538 0.7312 0.5939 0.0
C590 C 0.5524 0.54486 0.60891 0.0
C591 C 0.54259 0.5102 0.61427 0.0
C592 C 0.54861 0.5917 0.60798 0.0
C593 C 0.53489 0.6051 0.61224 0.0
C594 C 0.52518 0.5708 0.61906 0.0
C595 C 0.52902 0.52343 0.62 0.0
H596 H 0.73874 0.74509 0.59084 0.0
H597 H 0.71243 0.77325 0.65422 0.0
H598 H 0.73762 0.66193 0.59961 0.0
H599 H 0.71198 0.68982 0.66402 0.0
H600 H 0.69272 0.54947 0.64525 0.0
H601 H 0.69917 0.63159 0.64314 0.0
H602 H 0.74065 0.59212 0.62236 0.0
H603 H 0.73386 0.50952 0.62337 0.0
C604 C 0.73322 0.73368 0.60737 0.0
C605 C 0.72531 0.76543 0.62142 0.0
C606 C 0.73259 0.68579 0.61241 0.0
C607 C 0.72425 0.66901 0.63193 0.0
C608 C 0.71802 0.70155 0.64818 0.0
C609 C 0.71844 0.74942 0.64284 0.0
C610 C 0.70316 0.55849 0.63984 0.0
C611 C 0.71276 0.52345 0.63416 0.0
C612 C 0.70696 0.6055 0.63913 0.0
C613 C 0.72054 0.61856 0.6332 0.0
C614 C 0.7301 0.58334 0.62698 0.0
C615 C 0.72621 0.53612 0.62731 0.0
H616 H 0.46784 0.51332 0.33112 0.0
H617 H 0.49217 0.49969 0.39817 0.0
H618 H 0.46908 0.4288 0.32483 0.0
H619 H 0.49273 0.41512 0.39277 0.0
H620 H 0.48981 0.25737 0.37515 0.0
H621 H 0.49679 0.34004 0.37243 0.0
H622 H 0.45543 0.37679 0.34988 0.0
H623 H 0.44872 0.2952 0.35199 0.0
C624 C 0.4739 0.49242 0.34394 0.0
C625 C 0.47966 0.51271 0.36534 0.0
C626 C 0.47446 0.444 0.34058 0.0
C627 C 0.48046 0.41521 0.35894 0.0
C628 C 0.48791 0.43624 0.37842 0.0
C629 C 0.48762 0.48485 0.38147 0.0
C630 C 0.48224 0.28347 0.36995 0.0
C631 C 0.46874 0.27014 0.36382 0.0
C632 C 0.48625 0.33057 0.36813 0.0
C633 C 0.47678 0.3648 0.36021 0.0
C634 C 0.46316 0.35123 0.35506 0.0
C635 C 0.45922 0.30452 0.35671 0.0
H636 H 0.2917 0.46625 0.39 0.0
H637 H 0.29808 0.44387 0.31105 0.0
H638 H 0.28621 0.38314 0.39512 0.0
H639 H 0.29205 0.36165 0.31585 0.0
H640 H 0.30533 0.21529 0.34546 0.0
H641 H 0.30394 0.29707 0.33352 0.0
H642 H 0.27088 0.31807 0.38655 0.0
H643 H 0.27258 0.23595 0.39903 0.0
C644 C 0.29174 0.44364 0.37375 0.0
C645 C 0.29563 0.46104 0.3503 0.0
C646 C 0.28843 0.39622 0.37656 0.0
C647 C 0.28878 0.36569 0.35588 0.0
C648 C 0.29195 0.38398 0.33222 0.0
C649 C 0.29544 0.43104 0.3295 0.0
C650 C 0.29747 0.23696 0.35402 0.0
C651 C 0.28923 0.21954 0.37344 0.0
C652 C 0.29664 0.28395 0.34714 0.0
C653 C 0.28747 0.31435 0.35946 0.0
C654 C 0.27826 0.29572 0.37714 0.0
C655 C 0.27912 0.2486 0.38407 0.0
H656 H 0.54366 0.26664 0.08663 0.0
H657 H 0.51994 0.24738 0.15414 0.0
H658 H 0.54369 0.18213 0.07992 0.0
H659 H 0.5205 0.1628 0.14808 0.0
H660 H 0.52405 0.00602 0.12499 0.0
H661 H 0.51669 0.08841 0.12529 0.0
H662 H 0.55799 0.13068 0.1051 0.0
H663 H 0.56515 0.04934 0.10436 0.0
C664 C 0.53801 0.24444 0.09949 0.0
C665 C 0.53203 0.26328 0.12109 0.0
C666 C 0.53817 0.19606 0.09586 0.0
C667 C 0.53259 0.16588 0.11405 0.0
C668 C 0.52499 0.18513 0.13387 0.0
C669 C 0.52462 0.23368 0.13727 0.0
C670 C 0.53154 0.03319 0.12104 0.0
C671 C 0.54515 0.02152 0.1146 0.0
C672 C 0.52731 0.08016 0.12096 0.0
C673 C 0.53665 0.11585 0.11442 0.0
C674 C 0.5504 0.10393 0.10925 0.0
C675 C 0.55457 0.05736 0.10924 0.0
H676 H 0.71429 0.97672 0.08715 0.0
H677 H 0.74289 0.97952 0.14886 0.0
H678 H 0.71494 0.06206 0.08522 0.0
H679 H 0.74324 0.06504 0.14729 0.0
H680 H 0.73918 0.22841 0.12676 0.0
H681 H 0.74606 0.14564 0.12303 0.0
H682 H 0.70321 0.10518 0.12167 0.0
H683 H 0.69641 0.18673 0.12541 0.0
C684 C 0.7212 -0.00454 0.09951 0.0
C685 C 0.72829 0.97172 0.11845 0.0
C686 C 0.72147 0.04425 0.09859 0.0
C687 C 0.72875 0.06986 0.11671 0.0
C688 C 0.73746 0.04601 0.13327 0.0
C689 C 0.7373 -0.003 0.13404 0.0
C690 C 0.7313 0.20154 0.12637 0.0
C691 C 0.71727 0.21377 0.12625 0.0
C692 C 0.73523 0.15445 0.12391 0.0
C693 C 0.72515 0.11947 0.12113 0.0
C694 C 0.71118 0.13169 0.12287 0.0
C695 C 0.70729 0.17828 0.1254 0.0
H696 H 0.48696 0.76674 0.85063 0.0
H697 H 0.44293 0.78317 0.85649 0.0
H698 H 0.48961 0.85198 0.84699 0.0
H699 H 0.44544 0.86769 0.85447 0.0
H700 H 0.44809 0.0105 0.83351 0.0
H701 H 0.45022 0.92669 0.82554 0.0
H702 H 0.4879 0.92399 0.86858 0.0
H703 H 0.48623 0.00839 0.87458 0.0
C704 C 0.47793 0.78889 0.85192 0.0
C705 C 0.46476 0.76907 0.85401 0.0
C706 C 0.4794 0.8375 0.84961 0.0
C707 C 0.46771 0.86668 0.84971 0.0
C708 C 0.45464 0.84636 0.85322 0.0
C709 C 0.45318 0.79805 0.85496 0.0
C710 C 0.45718 0.99218 0.83998 0.0
C711 C 0.46701 0.01528 0.85454 0.0
C712 C 0.45829 0.94412 0.83594 0.0
C713 C 0.46891 0.91832 0.84741 0.0
C714 C 0.47957 0.94261 0.85958 0.0
C715 C 0.47867 0.99104 0.8629 0.0
H716 H 0.29816 0.71943 0.83634 0.0
H717 H 0.2757 0.74208 0.90491 0.0
H718 H 0.2973 0.80321 0.82753 0.0
H719 H 0.27559 0.82592 0.89709 0.0
H720 H 0.27704 0.97991 0.87454 0.0
H721 H 0.27074 0.89681 0.87577 0.0
H722 H 0.31098 0.861 0.84669 0.0
H723 H 0.31688 0.94347 0.84447 0.0
C724 C 0.29266 0.74224 0.84909 0.0
C725 C 0.28717 0.72463 0.8714 0.0
C726 C 0.29234 0.79026 0.84431 0.0
C727 C 0.2869 0.82146 0.86215 0.0
C728 C 0.27995 0.80306 0.88301 0.0
C729 C 0.27996 0.75485 0.88746 0.0
C730 C 0.28452 0.95399 0.8687 0.0
C731 C 0.29745 0.96781 0.85952 0.0
C732 C 0.2809 0.90651 0.86922 0.0
C733 C 0.29023 0.87219 0.86081 0.0
C734 C 0.30332 0.88639 0.85244 0.0
C735 C 0.30683 0.93363 0.85159 0.0
H736 H 0.97074 0.54511 0.99542 0.0
H737 H 1.00265 0.63305 0.96425 0.0
H738 H 0.9881 0.50171 0.01895 0.0
H739 H 0.02 0.58948 0.98758 0.0
H740 H 0.04577 0.51741 0.04994 0.0
H741 H 0.02893 0.56809 0.02947 0.0
H742 H 1.00626 0.44597 0.00525 0.0
H743 H 0.02299 0.3954 0.02583 0.0
C744 C 0.98141 0.556 0.99412 0.0
C745 C 0.98534 0.59237 0.97793 0.0
C746 C 0.99138 0.53073 0.0073 0.0
C747 C 1.00545 0.54157 0.0047 0.0
C748 C 0.00926 0.58021 0.98996 0.0
C749 C 0.99931 0.60523 0.97664 0.0
C750 C 0.03736 0.50137 0.03977 0.0
C751 C 0.03575 0.45236 0.03941 0.0
C752 C 0.02766 0.53043 0.0282 0.0
C753 C 0.01613 0.51106 0.01615 0.0
C754 C 0.01486 0.462 0.01491 0.0
C755 C 0.02456 0.43299 0.02637 0.0
H756 H 0.2742 0.63096 0.97982 0.0
H757 H 0.29931 0.75271 0.96445 0.0
H758 H 0.25775 0.68004 0.00215 0.0
H759 H 0.28278 0.80193 0.98694 0.0
H760 H 0.25576 0.85743 0.054 0.0
H761 H 0.27307 0.81492 0.02992 0.0
H762 H 0.24081 0.74262 0.99 0.0
H763 H 0.22344 0.78527 0.01417 0.0
C764 C 0.27635 0.66809 0.9816 0.0
C765 C 0.2881 0.68789 0.97041 0.0
C766 C 0.26681 0.69631 0.9941 0.0
C767 C 0.26883 0.74498 0.99589 0.0
C768 C 0.28093 0.76454 0.98581 0.0
C769 C 0.29044 0.7363 0.97309 0.0
C770 C 0.25236 0.83324 0.03967 0.0
C771 C 0.23824 0.82462 0.03598 0.0
C772 C 0.26229 0.80887 0.0259 0.0
C773 C 0.25832 0.77489 0.00835 0.0
C774 C 0.24418 0.76806 0.00372 0.0
C775 C 0.23423 0.7929 0.0173 0.0
H776 H 0.00972 0.85061 0.1899 0.0
H777 H 0.04296 0.77871 0.22718 0.0
H778 H 0.99302 0.8086 0.21555 0.0
H779 H 0.02619 0.73666 0.25306 0.0
H780 H 0.99272 0.62738 0.26884 0.0
H781 H 0.00882 0.67439 0.24439 0.0
H782 H 0.98437 0.79788 0.25877 0.0
H783 H 0.96818 0.75072 0.28321 0.0
C784 C 0.01347 0.82647 0.20396 0.0
C785 C 0.02766 0.81791 0.20652 0.0
C786 C 1.00388 0.80241 0.21866 0.0
C787 C 0.00826 0.76884 0.23611 0.0
C788 C 0.02249 0.76178 0.23946 0.0
C789 C 0.03211 0.78626 0.22489 0.0
C790 C 0.99063 0.6644 0.26644 0.0
C791 C 0.97914 0.68526 0.2779 0.0
C792 C 0.99997 0.69147 0.25272 0.0
C793 C 0.99801 0.74001 0.25 0.0
C794 C 0.98618 0.76056 0.26052 0.0
C795 C 0.97686 0.73349 0.2744 0.0
H796 H 0.2288 0.39996 0.23782 0.0
H797 H 0.22486 0.51536 0.18606 0.0
H798 H 0.24419 0.44765 0.26379 0.0
H799 H 0.2406 0.56221 0.2116 0.0
H800 H 0.28619 0.58002 0.25066 0.0
H801 H 0.26839 0.54373 0.22432 0.0
H802 H 0.2414 0.53339 0.2881 0.0
H803 H 0.25879 0.57056 0.31416 0.0
C804 C 0.23106 0.43566 0.23223 0.0
C805 C 0.22552 0.45413 0.21013 0.0
C806 C 0.23988 0.46281 0.24698 0.0
C807 C 0.24359 0.50835 0.23951 0.0
C808 C 0.2379 0.52712 0.21764 0.0
C809 C 0.2288 0.50045 0.20323 0.0
C810 C 0.27634 0.57102 0.25887 0.0
C811 C 0.27392 0.5781 0.28447 0.0
C812 C 0.26619 0.55025 0.24385 0.0
C813 C 0.25363 0.53552 0.25437 0.0
C814 C 0.25104 0.5442 0.27967 0.0
C815 C 0.26101 0.5657 0.2945 0.0
H816 H 0.79199 0.17864 6e-05 0.0
H817 H 0.75983 0.14548 0.94728 0.0
H818 H 0.77535 0.22212 0.02537 0.0
H819 H 0.74348 0.19038 0.97163 0.0
H820 H 0.71436 0.24598 0.03167 0.0
H821 H 0.73024 0.19705 0.00789 0.0
H822 H 0.76331 0.29405 0.02404 0.0
H823 H 0.74751 0.34158 0.04869 0.0
C824 C 0.78134 0.18007 0.99405 0.0
C825 C 0.77725 0.15864 0.97167 0.0
C826 C 0.77183 0.20561 0.00833 0.0
C827 C 0.75806 0.21056 0.00039 0.0
C828 C 0.7539 0.1872 0.97855 0.0
C829 C 0.76334 0.16142 0.96449 0.0
C830 C 0.72496 0.25727 0.02967 0.0
C831 C 0.72968 0.29771 0.04191 0.0
C832 C 0.73412 0.22911 0.01613 0.0
C833 C 0.74817 0.2411 0.01426 0.0
C834 C 0.75269 0.28287 0.0256 0.0
C835 C 0.74358 0.31061 0.0394 0.0
H836 H 1.0022 0.12176 0.78995 0.0
H837 H 0.96978 0.19673 0.75198 0.0
H838 H 0.01939 0.16359 0.76548 0.0
H839 H 0.98703 0.2381 0.72696 0.0
H840 H 0.0207 0.34638 0.71253 0.0
H841 H 1.00395 0.29918 0.73536 0.0
H842 H 0.02939 0.17657 0.72475 0.0
H843 H 0.04629 0.22409 0.70236 0.0
C844 C 0.99873 0.14636 0.77589 0.0
C845 C 0.98462 0.15606 0.77296 0.0
C846 C 0.0086 0.17039 0.76184 0.0
C847 C 1.00462 0.2048 0.74453 0.0
C848 C 0.99046 0.21252 0.74054 0.0
C849 C 0.98056 0.18833 0.75459 0.0
C850 C 0.02284 0.30954 0.71548 0.0
C851 C 0.03487 0.28907 0.70579 0.0
C852 C 0.01313 0.28229 0.72823 0.0
C853 C 0.01519 0.23388 0.73154 0.0
C854 C 0.02748 0.21376 0.72263 0.0
C855 C 0.03721 0.24107 0.70991 0.0
H856 H 0.72215 0.45271 0.73726 0.0
H857 H 0.75243 0.41926 0.68088 0.0
H858 H 0.73922 0.50085 0.75899 0.0
H859 H 0.76916 0.46859 0.7017 0.0
H860 H 0.79987 0.52938 0.75792 0.0
H861 H 0.78364 0.47866 0.73619 0.0
H862 H 0.75056 0.57417 0.75437 0.0
H863 H 0.76676 0.6237 0.77698 0.0
C864 C 0.73248 0.45512 0.72971 0.0
C865 C 0.73592 0.43212 0.70739 0.0
C866 C 0.74222 0.4833 0.7419 0.0
C867 C 0.75556 0.48933 0.73192 0.0
C868 C 0.75909 0.46466 0.71013 0.0
C869 C 0.74943 0.43631 0.69812 0.0
C870 C 0.7892 0.54014 0.75669 0.0
C871 C 0.7846 0.58062 0.76905 0.0
C872 C 0.77984 0.51088 0.74436 0.0
C873 C 0.76569 0.52176 0.74384 0.0
C874 C 0.76128 0.56386 0.75497 0.0
C875 C 0.77061 0.59276 0.76755 0.0
H876 H 0.96842 0.03828 0.48678 0.0
H877 H 1.00161 0.10226 0.44521 0.0
H878 H 0.98525 -0.00269 0.51284 0.0
H879 H 0.01835 0.06088 0.47075 0.0
H880 H 0.04482 0.0048 0.53538 0.0
H881 H 0.02838 0.05208 0.51186 0.0
H882 H 1.00126 0.93241 0.5061 0.0
H883 H 0.01757 0.88549 0.52998 0.0
C884 C 0.97929 0.04437 0.48357 0.0
C885 C 0.98369 0.0734 0.46393 0.0
C886 C 0.98894 0.02042 0.49823 0.0
C887 C 1.00316 0.0252 0.49361 0.0
C888 C 0.00751 0.05644 0.47491 0.0
C889 C 0.99789 0.08018 0.46024 0.0
C890 C 0.03546 0.98837 0.52868 0.0
C891 C 0.03253 0.94132 0.53443 0.0
C892 C 0.026 0.01554 0.51532 0.0
C893 C 0.0134 -0.00375 0.5074 0.0
C894 C 0.01071 0.9487 0.51241 0.0
C895 C 0.02016 0.92158 0.52577 0.0
H896 H 0.29645 0.22661 0.48286 0.0
H897 H 0.26772 0.11198 0.4749 0.0
H898 H 0.27934 0.27008 0.50703 0.0
H899 H 0.25045 0.15591 0.49757 0.0
H900 H 0.22522 0.23017 0.55659 0.0
H901 H 0.24276 0.185 0.53512 0.0
H902 H 0.25887 0.31245 0.50232 0.0
H903 H 0.24172 0.35787 0.52529 0.0
C904 C 0.28654 0.21047 0.48654 0.0
C905 C 0.28348 0.16577 0.47706 0.0
C906 C 0.27662 0.23569 0.50004 0.0
C907 C 0.26335 0.217 0.50407 0.0
C908 C 0.26054 0.17151 0.49526 0.0
C909 C 0.27049 0.14615 0.48214 0.0
C910 C 0.23233 0.24846 0.54437 0.0
C911 C 0.23199 0.29755 0.54238 0.0
C912 C 0.24247 0.22251 0.53205 0.0
C913 C 0.25239 0.24485 0.51694 0.0
C914 C 0.25166 0.29395 0.5142 0.0
C915 C 0.24167 0.32002 0.527 0.0
H916 H 0.2302 0.89986 0.72941 0.0
H917 H 0.22407 0.02801 0.68793 0.0
H918 H 0.24604 0.94108 0.75751 0.0
H919 H 0.24026 0.06865 0.71551 0.0
H920 H 0.28553 0.0879 0.75312 0.0
H921 H 0.26819 0.05328 0.72506 0.0
H922 H 0.24322 0.01602 0.78874 0.0
H923 H 0.26011 0.05125 0.81652 0.0
C924 C 0.23208 0.93692 0.72655 0.0
C925 C 0.22576 0.96087 0.70676 0.0
C926 C 0.24118 0.96038 0.74248 0.0
C927 C 0.24441 0.00785 0.73847 0.0
C928 C 0.23799 0.03199 0.71886 0.0
C929 C 0.2286 0.00885 0.70333 0.0
C930 C 0.27625 0.07287 0.76101 0.0
C931 C 0.27418 0.07244 0.78699 0.0
C932 C 0.26635 0.05318 0.74503 0.0
C933 C 0.25444 0.03188 0.75487 0.0
C934 C 0.25234 0.03202 0.78074 0.0
C935 C 0.26201 0.05245 0.79658 0.0
H936 H 0.79364 0.76316 0.4491 0.0
H937 H 0.77714 0.63694 0.48213 0.0
H938 H 0.77523 0.80869 0.46804 0.0
H939 H 0.75899 0.68273 0.50207 0.0
H940 H 0.71983 0.76504 0.51293 0.0
H941 H 0.73832 0.72264 0.4918 0.0
H942 H 0.76586 0.83922 0.50494 0.0
H943 H 0.74729 0.88199 0.52498 0.0
C944 C 0.78632 0.74531 0.46107 0.0
C945 C 0.7869 0.69642 0.46421 0.0
C946 C 0.77568 0.77145 0.47189 0.0
C947 C 0.76543 0.74945 0.48637 0.0
C948 C 0.76645 0.70079 0.49051 0.0
C949 C 0.77701 0.67457 0.47944 0.0
C950 C 0.72974 0.78203 0.51069 0.0
C951 C 0.73207 0.82693 0.52061 0.0
C952 C 0.74043 0.75742 0.49896 0.0
C953 C 0.75373 0.77702 0.49703 0.0
C954 C 0.7558 0.82293 0.50587 0.0
C955 C 0.7451 0.8476 0.51739 0.0
H956 H 0.71447 0.00313 0.20958 0.0
H957 H 0.74139 0.88635 0.22535 0.0
H958 H 0.73026 0.05572 0.23161 0.0
H959 H 0.75711 0.93881 0.24725 0.0
H960 H 0.7898 0.04916 0.25817 0.0
H961 H 0.77296 0.00434 0.23407 0.0
H962 H 0.7399 0.07092 0.2747 0.0
H963 H 0.75672 0.11572 0.2988 0.0
C964 C 0.7236 0.98851 0.21819 0.0
C965 C 0.72666 0.94053 0.21577 0.0
C966 C 0.73267 0.01869 0.23065 0.0
C967 C 0.74505 0.00153 0.24072 0.0
C968 C 0.7478 0.95324 0.23919 0.0
C969 C 0.7387 0.92307 0.22694 0.0
C970 C 0.77894 0.05525 0.26144 0.0
C971 C 0.77458 0.0859 0.28039 0.0
C972 C 0.7693 0.02911 0.2479 0.0
C973 C 0.75512 0.03349 0.25285 0.0
C974 C 0.75074 0.06672 0.2705 0.0
C975 C 0.76038 0.09246 0.28424 0.0
H976 H 0.46589 0.47755 0.45753 0.0
H977 H 0.48958 0.60079 0.47642 0.0
H978 H 0.48202 0.42894 0.48116 0.0
H979 H 0.50566 0.55226 0.49993 0.0
H980 H 0.54018 0.44861 0.51433 0.0
H981 H 0.52337 0.49103 0.48888 0.0
H982 H 0.4903 0.41575 0.52507 0.0
H983 H 0.50706 0.3735 0.55044 0.0
C984 C 0.47437 0.49438 0.46715 0.0
C985 C 0.47643 0.54305 0.46517 0.0
C986 C 0.48365 0.46651 0.48054 0.0
C987 C 0.49524 0.48671 0.492 0.0
C988 C 0.49699 0.53558 0.49083 0.0
C989 C 0.48766 0.56345 0.47766 0.0
C990 C 0.52935 0.44032 0.51637 0.0
C991 C 0.52493 0.40782 0.53437 0.0
C992 C 0.51972 0.465 0.50206 0.0
C993 C 0.5055 0.4572 0.50528 0.0
C994 C 0.50116 0.42253 0.52216 0.0
C995 C 0.51077 0.39831 0.53666 0.0
H996 H 0.52513 0.84615 0.72342 0.0
H997 H 0.548 0.72069 0.70555 0.0
H998 H 0.50842 0.79932 0.74658 0.0
H999 H 0.53125 0.6738 0.72899 0.0
H1000 H 0.50487 0.62316 0.79846 0.0
H1001 H 0.52232 0.663 0.77332 0.0
H1002 H 0.49035 0.73863 0.7345 0.0
H1003 H 0.47284 0.69841 0.75962 0.0
C1004 C 0.52675 0.80868 0.72484 0.0
C1005 C 0.53793 0.78719 0.7127 0.0
C1006 C 0.51706 0.78179 0.73782 0.0
C1007 C 0.51838 0.73281 0.73919 0.0
C1008 C 0.52994 0.71148 0.72816 0.0
C1009 C 0.53958 0.73837 0.71491 0.0
C1010 C 0.50155 0.64745 0.78412 0.0
C1011 C 0.48749 0.65768 0.78096 0.0
C1012 C 0.51155 0.6703 0.76977 0.0
C1013 C 0.50772 0.70442 0.75222 0.0
C1014 C 0.49361 0.71294 0.74817 0.0
C1015 C 0.48358 0.68952 0.76229 0.0
H1016 H 0.50347 0.13054 0.30582 0.0
H1017 H 0.46977 0.19922 0.26813 0.0
H1018 H 0.5199 0.17361 0.2801 0.0
H1019 H 0.48626 0.24219 0.24215 0.0
H1020 H 0.51851 0.35634 0.22846 0.0
H1021 H 0.50274 0.30632 0.25182 0.0
H1022 H 0.52886 0.18686 0.23739 0.0
H1023 H 0.54475 0.2371 0.21409 0.0
C1024 C 0.49957 0.154 0.29157 0.0
C1025 C 0.48533 0.16165 0.28904 0.0
C1026 C 0.50899 0.1787 0.27685 0.0
C1027 C 0.50439 0.2119 0.2594 0.0
C1028 C 0.49012 0.21746 0.2558 0.0
C1029 C 0.48067 0.1924 0.27042 0.0
C1030 C 0.52103 0.31957 0.23062 0.0
C1031 C 0.53292 0.30074 0.2195 0.0
C1032 C 0.51188 0.29077 0.2437 0.0
C1033 C 0.51441 0.24246 0.24605 0.0
C1034 C 0.52661 0.22394 0.23588 0.0
C1035 C 0.53575 0.25278 0.22267 0.0
H1036 H 0.47077 0.05664 0.98629 0.0
H1037 H 0.49891 0.03869 0.92451 0.0
H1038 H 0.48625 0.0109 0.01296 0.0
H1039 H 0.51398 0.99195 0.95053 0.0
H1040 H 0.54545 0.95747 0.01142 0.0
H1041 H 0.52976 -0.00082 0.98371 0.0
H1042 H 0.49502 0.93403 0.02056 0.0
H1043 H 0.51073 0.89372 0.04874 0.0
C1044 C 0.4802 0.04274 0.97841 0.0
C1045 C 0.48368 0.05168 0.95342 0.0
C1046 C 0.48904 0.01623 0.99358 0.0
C1047 C 0.50144 -0.00221 0.98394 0.0
C1048 C 0.50471 0.0063 0.9588 0.0
C1049 C 0.496 0.03303 0.94381 0.0
C1050 C 0.53447 0.95143 0.01326 0.0
C1051 C 0.52933 0.92231 0.03222 0.0
C1052 C 0.52544 0.97539 0.99741 0.0
C1053 C 0.51106 0.9704 1e-05 0.0
C1054 C 0.50599 0.9396 0.01834 0.0
C1055 C 0.51501 0.916 0.0343 0.0
H1056 H 0.16177 0.40091 0.17244 0.0
H1057 H 0.17062 0.34394 0.09946 0.0
H1058 H 0.13728 0.40253 0.16233 0.0
H1059 H 0.14613 0.34398 0.08959 0.0
H1060 H 0.10235 0.3928 0.07102 0.0
H1061 H 0.12701 0.39369 0.08038 0.0
H1062 H 0.11822 0.35179 0.15635 0.0
H1063 H 0.09373 0.35249 0.14719 0.0
C1064 C 0.15846 0.3884 0.15431 0.0
C1065 C 0.16811 0.37223 0.13678 0.0
C1066 C 0.14441 0.38908 0.14852 0.0
C1067 C 0.13967 0.37325 0.12512 0.0
C1068 C 0.14938 0.35709 0.10762 0.0
C1069 C 0.16343 0.35672 0.11336 0.0
C1070 C 0.10574 0.38379 0.08969 0.0
C1071 C 0.0961 0.37271 0.10837 0.0
C1072 C 0.11986 0.38406 0.09506 0.0
C1073 C 0.12466 0.37299 0.11919 0.0
C1074 C 0.11496 0.36143 0.13772 0.0
C1075 C 0.10088 0.36147 0.1324 0.0
H1076 H 0.10284 0.84442 0.17284 0.0
H1077 H 0.09369 0.8972 0.09919 0.0
H1078 H 0.12738 0.84476 0.16277 0.0
H1079 H 0.11814 0.89986 0.08942 0.0
H1080 H 0.16145 0.85125 0.06923 0.0
H1081 H 0.13697 0.85269 0.07961 0.0
H1082 H 0.147 0.8902 0.15572 0.0
H1083 H 0.17138 0.88643 0.1455 0.0
C1084 C 0.10611 0.85682 0.15465 0.0
C1085 C 0.09634 0.8706 0.1368 0.0
C1086 C 0.1202 0.85725 0.14884 0.0
C1087 C 0.12487 0.87212 0.12514 0.0
C1088 C 0.11502 0.8871 0.10762 0.0
C1089 C 0.10097 0.88601 0.11331 0.0
C1090 C 0.15838 0.85992 0.08813 0.0
C1091 C 0.16835 0.86858 0.10654 0.0
C1092 C 0.14433 0.86104 0.09413 0.0
C1093 C 0.13988 0.87151 0.11861 0.0
C1094 C 0.14993 0.88102 0.13683 0.0
C1095 C 0.16395 0.87925 0.13091 0.0
H1096 H 0.84344 0.59939 0.89061 0.0
H1097 H 0.85818 0.64115 0.81779 0.0
H1098 H 0.86696 0.5975 0.90613 0.0
H1099 H 0.88181 0.64055 0.83352 0.0
H1100 H 0.92289 0.58537 0.86177 0.0
H1101 H 0.89928 0.58701 0.84686 0.0
H1102 H 0.88612 0.64634 0.91722 0.0
H1103 H 0.90987 0.64345 0.93243 0.0
C1104 C 0.85172 0.60846 0.87792 0.0
C1105 C 0.84895 0.62032 0.85292 0.0
C1106 C 0.86522 0.6077 0.8869 0.0
C1107 C 0.87633 0.61892 0.87115 0.0
C1108 C 0.87354 0.63105 0.84613 0.0
C1109 C 0.86 0.63165 0.8371 0.0
C1110 C 0.91496 0.59859 0.87415 0.0
C1111 C 0.91826 0.61429 0.89831 0.0
C1112 C 0.90141 0.59992 0.86548 0.0
C1113 C 0.89076 0.6172 0.88069 0.0
C1114 C 0.89403 0.63239 0.90504 0.0
C1115 C 0.90764 0.63087 0.91378 0.0
H1116 H 0.90794 0.14554 0.81697 0.0
H1117 H 0.92178 0.10737 0.89077 0.0
H1118 H 0.88412 0.14539 0.8318 0.0
H1119 H 0.89812 0.10474 0.90535 0.0
H1120 H 0.85518 0.14592 0.93131 0.0
H1121 H 0.87899 0.14893 0.91656 0.0
H1122 H 0.86588 0.09794 0.8443 0.0
H1123 H 0.84216 0.09741 0.85874 0.0
C1124 C 0.90587 0.13668 0.83628 0.0
C1125 C 0.91673 0.12663 0.85268 0.0
C1126 C 0.8922 0.13628 0.84483 0.0
C1127 C 0.88906 0.12507 0.86991 0.0
C1128 C 0.90002 0.11456 0.88612 0.0
C1129 C 0.91364 0.11567 0.87767 0.0
C1130 C 0.85745 0.13528 0.91232 0.0
C1131 C 0.8468 0.12155 0.8962 0.0
C1132 C 0.87112 0.13678 0.90382 0.0
C1133 C 0.87448 0.12383 0.87909 0.0
C1134 C 0.86377 0.10927 0.86322 0.0
C1135 C 0.85013 0.1085 0.8716 0.0
H1136 H 0.1613 0.91664 0.66643 0.0
H1137 H 0.16998 0.87552 0.59043 0.0
H1138 H 0.13669 0.91444 0.65758 0.0
H1139 H 0.14538 0.87146 0.58175 0.0
H1140 H 0.10027 0.91019 0.56787 0.0
H1141 H 0.12499 0.9159 0.57588 0.0
H1142 H 0.11858 0.86112 0.6503 0.0
H1143 H 0.09395 0.85723 0.64255 0.0
C1144 C 0.15794 0.9069 0.64786 0.0
C1145 C 0.16758 0.89621 0.62915 0.0
C1146 C 0.14381 0.9053 0.64279 0.0
C1147 C 0.13896 0.89248 0.61895 0.0
C1148 C 0.14867 0.88211 0.60021 0.0
C1149 C 0.1628 0.88414 0.60523 0.0
C1150 C 0.10419 0.89935 0.5859 0.0
C1151 C 0.09516 0.8834 0.60459 0.0
C1152 C 0.11837 0.90241 0.5905 0.0
C1153 C 0.12386 0.8892 0.61383 0.0
C1154 C 0.11477 0.8726 0.63232 0.0
C1155 C 0.10062 0.86997 0.6278 0.0
H1156 H 0.09616 0.3779 0.59776 0.0
H1157 H 0.10289 0.33014 0.67327 0.0
H1158 H 0.12088 0.37926 0.59051 0.0
H1159 H 0.12771 0.32958 0.66579 0.0
H1160 H 0.17179 0.37975 0.65246 0.0
H1161 H 0.14707 0.37852 0.66007 0.0
H1162 H 0.14031 0.3314 0.58431 0.0
H1163 H 0.16505 0.33457 0.57651 0.0
C1164 C 0.10295 0.36734 0.61279 0.0
C1165 C 0.09757 0.35398 0.63611 0.0
C1166 C 0.11716 0.36775 0.60857 0.0
C1167 C 0.1264 0.35432 0.62748 0.0
C1168 C 0.12097 0.34083 0.65085 0.0
C1169 C 0.10673 0.34088 0.65515 0.0
C1170 C 0.16501 0.36917 0.63742 0.0
C1171 C 0.17037 0.35741 0.61385 0.0
C1172 C 0.15081 0.36811 0.64184 0.0
C1173 C 0.14159 0.35483 0.62285 0.0
C1174 C 0.14702 0.34263 0.5993 0.0
C1175 C 0.16123 0.34415 0.59482 0.0
H1176 H 0.85098 0.13677 0.31898 0.0
H1177 H 0.8407 0.0811 0.39164 0.0
H1178 H 0.87529 0.13855 0.3307 0.0
H1179 H 0.86493 0.08135 0.40311 0.0
H1180 H 0.90806 0.12883 0.42519 0.0
H1181 H 0.88373 0.13115 0.41357 0.0
H1182 H 0.89438 0.08868 0.33849 0.0
H1183 H 0.91859 0.08793 0.34992 0.0
C1184 C 0.85393 0.12459 0.33738 0.0
C1185 C 0.84392 0.10881 0.35436 0.0
C1186 C 0.86787 0.12539 0.3441 0.0
C1187 C 0.87214 0.11014 0.36792 0.0
C1188 C 0.86206 0.09417 0.3848 0.0
C1189 C 0.84815 0.09365 0.37813 0.0
C1190 C 0.90517 0.12013 0.40621 0.0
C1191 C 0.91525 0.10826 0.3885 0.0
C1192 C 0.89121 0.12119 0.39954 0.0
C1193 C 0.88702 0.11011 0.37503 0.0
C1194 C 0.89717 0.09823 0.35739 0.0
C1195 C 0.91109 0.09746 0.36402 0.0
H1196 H 0.91242 0.64395 0.32046 0.0
H1197 H 0.92324 0.59814 0.39475 0.0
H1198 H 0.88814 0.64594 0.33264 0.0
H1199 H 0.89907 0.59885 0.40673 0.0
H1200 H 0.85562 0.6475 0.42741 0.0
H1201 H 0.87996 0.64933 0.41552 0.0
H1202 H 0.86948 0.59451 0.34272 0.0
H1203 H 0.84528 0.59392 0.35437 0.0
C1204 C 0.9096 0.63409 0.33933 0.0
C1205 C 0.91975 0.62083 0.3566 0.0
C1206 C 0.89568 0.63501 0.34632 0.0
C1207 C 0.89159 0.62252 0.37072 0.0
C1208 C 0.9018 0.6094 0.38793 0.0
C1209 C 0.91568 0.60864 0.38098 0.0
C1210 C 0.85855 0.63579 0.40891 0.0
C1211 C 0.84852 0.62057 0.39187 0.0
C1212 C 0.87251 0.63667 0.40208 0.0
C1213 C 0.87673 0.62221 0.37807 0.0
C1214 C 0.86664 0.60673 0.36117 0.0
C1215 C 0.85274 0.606 0.36796 0.0
H1216 H 0.60035 0.38703 0.57242 0.0
H1217 H 0.58957 0.34569 0.64749 0.0
H1218 H 0.62462 0.38879 0.58413 0.0
H1219 H 0.6138 0.3452 0.65901 0.0
H1220 H 0.65701 0.39697 0.67903 0.0
H1221 H 0.63266 0.3939 0.66767 0.0
H1222 H 0.64375 0.34305 0.59425 0.0
H1223 H 0.66796 0.34834 0.60531 0.0
C1224 C 0.6032 0.37766 0.59132 0.0
C1225 C 0.59306 0.36632 0.60902 0.0
C1226 C 0.61714 0.37842 0.59808 0.0
C1227 C 0.62128 0.3672 0.62261 0.0
C1228 C 0.61107 0.355 0.64012 0.0
C1229 C 0.59715 0.35487 0.63344 0.0
C1230 C 0.65419 0.385 0.66053 0.0
C1231 C 0.66439 0.37314 0.64305 0.0
C1232 C 0.64022 0.38299 0.65399 0.0
C1233 C 0.63614 0.36845 0.62991 0.0
C1234 C 0.64642 0.35549 0.61273 0.0
C1235 C 0.66034 0.35814 0.61915 0.0
H1236 H 0.59092 0.86533 0.5908 0.0
H1237 H 0.6045 0.84252 0.66658 0.0
H1238 H 0.61469 0.86333 0.57636 0.0
H1239 H 0.62842 0.84149 0.65221 0.0
H1240 H 0.66854 0.79617 0.61573 0.0
H1241 H 0.64445 0.79461 0.62843 0.0
H1242 H 0.63575 0.90807 0.57737 0.0
H1243 H 0.65988 0.9089 0.56429 0.0
C1244 C 0.599 0.86008 0.60443 0.0
C1245 C 0.59581 0.85408 0.62987 0.0
C1246 C 0.61267 0.8592 0.59614 0.0
C1247 C 0.62353 0.85228 0.61306 0.0
C1248 C 0.62032 0.84625 0.63856 0.0
C1249 C 0.60662 0.84714 0.64686 0.0
C1250 C 0.66146 0.82043 0.60697 0.0
C1251 C 0.66613 0.85264 0.58896 0.0
C1252 C 0.64765 0.81985 0.61446 0.0
C1253 C 0.63813 0.85154 0.60417 0.0
C1254 C 0.64274 0.88288 0.58558 0.0
C1255 C 0.65658 0.8834 0.57806 0.0
H1256 H 0.41149 0.57296 0.4194 0.0
H1257 H 0.42075 0.65184 0.35264 0.0
H1258 H 0.3874 0.56797 0.40679 0.0
H1259 H 0.39661 0.64865 0.34045 0.0
H1260 H 0.35443 0.59769 0.31369 0.0
H1261 H 0.3788 0.59949 0.32529 0.0
H1262 H 0.36731 0.61302 0.403 0.0
H1263 H 0.34319 0.60933 0.39149 0.0
C1264 C 0.40834 0.58966 0.40216 0.0
C1265 C 0.41801 0.61286 0.38707 0.0
C1266 C 0.3945 0.58702 0.39492 0.0
C1267 C 0.38996 0.608 0.37255 0.0
C1268 C 0.39969 0.63137 0.35755 0.0
C1269 C 0.41354 0.63358 0.36467 0.0
C1270 C 0.35716 0.60093 0.33322 0.0
C1271 C 0.34688 0.60317 0.35164 0.0
C1272 C 0.37113 0.60224 0.33991 0.0
C1273 C 0.37511 0.60622 0.36517 0.0
C1274 C 0.36474 0.60889 0.38345 0.0
C1275 C 0.35085 0.60714 0.3768 0.0
H1276 H 0.42167 0.15012 0.40581 0.0
H1277 H 0.41072 0.09792 0.3328 0.0
H1278 H 0.39755 0.14844 0.41829 0.0
H1279 H 0.38659 0.09448 0.34552 0.0
H1280 H 0.34365 0.14288 0.36526 0.0
H1281 H 0.36784 0.14451 0.35412 0.0
H1282 H 0.37848 0.09938 0.42872 0.0
H1283 H 0.35403 0.09931 0.44013 0.0
C1284 C 0.4141 0.13789 0.39247 0.0
C1285 C 0.41809 0.12437 0.36825 0.0
C1286 C 0.40026 0.13659 0.39971 0.0
C1287 C 0.39004 0.12143 0.38296 0.0
C1288 C 0.3941 0.10722 0.35881 0.0
C1289 C 0.40795 0.10892 0.35151 0.0
C1290 C 0.35114 0.13344 0.37938 0.0
C1291 C 0.34691 0.12088 0.40361 0.0
C1292 C 0.36505 0.13396 0.37289 0.0
C1293 C 0.37519 0.12152 0.39036 0.0
C1294 C 0.37099 0.10955 0.41479 0.0
C1295 C 0.35698 0.10937 0.42137 0.0
H1296 H 0.67034 0.83161 0.10514 0.0
H1297 H 0.66118 0.89774 0.17574 0.0
H1298 H 0.64604 0.83356 0.09411 0.0
H1299 H 0.63687 0.90151 0.16437 0.0
H1300 H 0.6037 0.8874 0.07066 0.0
H1301 H 0.62805 0.88423 0.08187 0.0
H1302 H 0.61687 0.85594 0.15861 0.0
H1303 H 0.59264 0.861 0.14751 0.0
C1304 C 0.66312 0.84678 0.11829 0.0
C1305 C 0.66768 0.86445 0.14135 0.0
C1306 C 0.64917 0.84826 0.11186 0.0
C1307 C 0.63941 0.86788 0.12824 0.0
C1308 C 0.64401 0.88546 0.15139 0.0
C1309 C 0.65797 0.88355 0.15791 0.0
C1310 C 0.60648 0.88045 0.08989 0.0
C1311 C 0.59625 0.87458 0.10819 0.0
C1312 C 0.62045 0.87837 0.09635 0.0
C1313 C 0.62452 0.86992 0.12123 0.0
C1314 C 0.61421 0.86345 0.13939 0.0
C1315 C 0.60028 0.86598 0.13298 0.0
H1316 H 0.65843 0.38116 0.07979 0.0
H1317 H 0.66691 0.33538 0.15507 0.0
H1318 H 0.63394 0.38625 0.08988 0.0
H1319 H 0.64249 0.33851 0.16493 0.0
H1320 H 0.59913 0.38916 0.18243 0.0
H1321 H 0.62369 0.38876 0.17247 0.0
H1322 H 0.61441 0.33942 0.098 0.0
H1323 H 0.58996 0.34173 0.10771 0.0
C1324 C 0.65505 0.37196 0.09844 0.0
C1325 C 0.6646 0.35794 0.11661 0.0
C1326 C 0.64099 0.37456 0.10423 0.0
C1327 C 0.63614 0.36273 0.12827 0.0
C1328 C 0.64578 0.34874 0.14638 0.0
C1329 C 0.65981 0.3466 0.14066 0.0
C1330 C 0.60238 0.37825 0.16396 0.0
C1331 C 0.59262 0.36553 0.14587 0.0
C1332 C 0.61647 0.37779 0.15823 0.0
C1333 C 0.62112 0.36412 0.13436 0.0
C1334 C 0.61128 0.35106 0.1164 0.0
C1335 C 0.59723 0.35199 0.12204 0.0
H1336 H 0.41059 0.09178 0.92188 0.0
H1337 H 0.41886 0.17626 0.85665 0.0
H1338 H 0.38631 0.08779 0.91032 0.0
H1339 H 0.39457 0.1735 0.84541 0.0
H1340 H 0.35302 0.11547 0.81809 0.0
H1341 H 0.37735 0.12099 0.82965 0.0
H1342 H 0.36578 0.13287 0.90737 0.0
H1343 H 0.34167 0.12601 0.89589 0.0
C1344 C 0.40718 0.11007 0.90528 0.0
C1345 C 0.41665 0.13435 0.89022 0.0
C1346 C 0.39324 0.10791 0.89863 0.0
C1347 C 0.38842 0.13019 0.87682 0.0
C1348 C 0.3979 0.15521 0.86206 0.0
C1349 C 0.41183 0.15717 0.86865 0.0
C1350 C 0.35571 0.11931 0.83761 0.0
C1351 C 0.34541 0.12012 0.85604 0.0
C1352 C 0.36965 0.12273 0.84427 0.0
C1353 C 0.37359 0.12722 0.86951 0.0
C1354 C 0.36322 0.12857 0.88782 0.0
C1355 C 0.34934 0.12496 0.88119 0.0
H1356 H 0.41117 0.59055 0.82162 0.0
H1357 H 0.42196 0.64374 0.89451 0.0
H1358 H 0.38698 0.58741 0.83422 0.0
H1359 H 0.39789 0.64253 0.90678 0.0
H1360 H 0.3548 0.59778 0.93 0.0
H1361 H 0.37905 0.59493 0.91775 0.0
H1362 H 0.36791 0.63583 0.84267 0.0
H1363 H 0.34378 0.63669 0.85473 0.0
C1364 C 0.40837 0.60173 0.84028 0.0
C1365 C 0.41849 0.61733 0.85703 0.0
C1366 C 0.39448 0.60025 0.84751 0.0
C1367 C 0.39038 0.6148 0.87159 0.0
C1368 C 0.40059 0.63022 0.88829 0.0
C1369 C 0.41443 0.63125 0.88115 0.0
C1370 C 0.35758 0.60612 0.91091 0.0
C1371 C 0.34738 0.61742 0.89336 0.0
C1372 C 0.37149 0.60471 0.90385 0.0
C1373 C 0.37553 0.61506 0.87912 0.0
C1374 C 0.36526 0.62668 0.86171 0.0
C1375 C 0.35139 0.6276 0.8687 0.0
H1376 H 0.05239 0.98497 0.09139 0.0
H1377 H 0.03333 0.00712 0.16322 0.0
H1378 H 0.0503 0.06823 0.0821 0.0
H1379 H 0.03012 0.08969 0.15337 0.0
H1380 H 0.04569 0.23898 0.14546 0.0
H1381 H 0.04356 0.15537 0.15216 0.0
H1382 H 0.03783 0.13472 0.0727 0.0
H1383 H 0.041 0.21872 0.06604 0.0
C1384 C 0.04737 0.00764 0.10485 0.0
C1385 C 0.04317 0.99014 0.1281 0.0
C1386 C 0.04607 0.05537 0.09952 0.0
C1387 C 0.04021 0.08621 0.11713 0.0
C1388 C 0.03511 0.06755 0.13968 0.0
C1389 C 0.03681 0.02017 0.14527 0.0
C1390 C 0.04385 0.21655 0.12947 0.0
C1391 C 0.04359 0.2351 0.10525 0.0
C1392 C 0.04249 0.16847 0.13329 0.0
C1393 C 0.04048 0.13783 0.11298 0.0
C1394 C 0.03964 0.15692 0.08876 0.0
C1395 C 0.04135 0.20506 0.08491 0.0
H1396 H 0.21741 0.02088 0.07739 0.0
H1397 H 0.22345 0.97554 0.15359 0.0
H1398 H 0.22021 0.10201 0.09022 0.0
H1399 H 0.22642 0.05736 0.1665 0.0
H1400 H 0.20873 0.21014 0.17853 0.0
H1401 H 0.21095 0.12653 0.16963 0.0
H1402 H 0.237 0.15843 0.10638 0.0
H1403 H 0.23458 0.24195 0.11501 0.0
C1404 C 0.21951 0.02826 0.09686 0.0
C1405 C 0.22015 0.99193 0.11451 0.0
C1406 C 0.22123 0.07476 0.1042 0.0
C1407 C 0.22357 0.08608 0.12937 0.0
C1408 C 0.22454 0.04966 0.14699 0.0
C1409 C 0.22291 0.00291 0.13959 0.0
C1410 C 0.21512 0.19921 0.163 0.0
C1411 C 0.22133 0.23251 0.14726 0.0
C1412 C 0.21645 0.15133 0.15798 0.0
C1413 C 0.22402 0.13597 0.13713 0.0
C1414 C 0.23091 0.16928 0.12233 0.0
C1415 C 0.22957 0.21707 0.12733 0.0
H1416 H 0.95975 0.78801 0.92919 0.0
H1417 H 0.97592 0.73675 0.85909 0.0
H1418 H 0.96167 0.86827 0.91399 0.0
H1419 H 0.97791 0.81736 0.84391 0.0
H1420 H 0.95805 0.95954 0.81825 0.0
H1421 H 0.96044 0.8788 0.83266 0.0
H1422 H 0.97908 0.92817 0.90101 0.0
H1423 H 0.97661 0.009 0.88669 0.0
C1424 C 0.96386 0.79397 0.91064 0.0
C1425 C 0.96762 0.75624 0.89525 0.0
C1426 C 0.96505 0.8399 0.90201 0.0
C1427 C 0.96993 0.84893 0.87778 0.0
C1428 C 0.97402 0.81125 0.8626 0.0
C1429 C 0.97293 0.76525 0.87132 0.0
C1430 C 0.9628 0.95309 0.83621 0.0
C1431 C 0.96704 0.99046 0.85145 0.0
C1432 C 0.96425 0.90691 0.84438 0.0
C1433 C 0.96989 0.89736 0.86798 0.0
C1434 C 0.97457 0.93467 0.88284 0.0
C1435 C 0.9732 0.98084 0.87461 0.0
H1436 H 0.78816 0.00882 0.85874 0.0
H1437 H 0.8036 0.95749 0.9293 0.0
H1438 H 0.78611 0.92835 0.84363 0.0
H1439 H 0.80168 0.8772 0.9141 0.0
H1440 H 0.78826 0.73567 0.88532 0.0
H1441 H 0.78514 0.81589 0.90028 0.0
H1442 H 0.80366 0.86868 0.83244 0.0
H1443 H 0.80665 0.78872 0.8174 0.0
C1444 C 0.79096 0.98032 0.87111 0.0
C1445 C 0.79615 0.98932 0.89511 0.0
C1446 C 0.78983 0.93436 0.86243 0.0
C1447 C 0.79381 0.89663 0.87765 0.0
C1448 C 0.79842 0.90559 0.90205 0.0
C1449 C 0.7996 0.95155 0.91069 0.0
C1450 C 0.7915 0.76448 0.87349 0.0
C1451 C 0.79779 0.75607 0.85029 0.0
C1452 C 0.78976 0.81029 0.88209 0.0
C1453 C 0.79421 0.84842 0.86756 0.0
C1454 C 0.8 0.83998 0.84392 0.0
C1455 C 0.80179 0.79421 0.83538 0.0
H1456 H 0.05327 0.71629 0.57097 0.0
H1457 H 0.03693 0.7467 0.64428 0.0
H1458 H 0.05199 0.63263 0.57983 0.0
H1459 H 0.03541 0.66275 0.65303 0.0
H1460 H 0.0539 0.51612 0.66963 0.0
H1461 H 0.05178 0.59956 0.66072 0.0
H1462 H 0.03628 0.56728 0.58708 0.0
H1463 H 0.03864 0.4836 0.59588 0.0
C1464 C 0.04923 0.70505 0.58887 0.0
C1465 C 0.04527 0.73804 0.60698 0.0
C1466 C 0.04842 0.65707 0.5939 0.0
C1467 C 0.04363 0.64099 0.61717 0.0
C1468 C 0.03931 0.67403 0.63504 0.0
C1469 C 0.0401 0.72208 0.62998 0.0
C1470 C 0.04993 0.52682 0.65162 0.0
C1471 C 0.04651 0.49334 0.6334 0.0
C1472 C 0.04863 0.57466 0.64656 0.0
C1473 C 0.04389 0.59011 0.62316 0.0
C1474 C 0.04012 0.55652 0.60518 0.0
C1475 C 0.0414 0.50862 0.61026 0.0
H1476 H 0.21212 0.5252 0.57583 0.0
H1477 H 0.22737 0.50006 0.65037 0.0
H1478 H 0.21318 0.60943 0.58309 0.0
H1479 H 0.22866 0.58463 0.65754 0.0
H1480 H 0.22643 0.75985 0.59652 0.0
H1481 H 0.22865 0.67549 0.58946 0.0
H1482 H 0.21251 0.6489 0.66336 0.0
H1483 H 0.21052 0.73298 0.67051 0.0
C1484 C 0.21586 0.5377 0.59369 0.0
C1485 C 0.21961 0.50595 0.61257 0.0
C1486 C 0.21655 0.58605 0.5978 0.0
C1487 C 0.22099 0.6039 0.62092 0.0
C1488 C 0.22504 0.57208 0.63962 0.0
C1489 C 0.22438 0.52364 0.63548 0.0
C1490 C 0.22349 0.73595 0.61132 0.0
C1491 C 0.21826 0.75307 0.63403 0.0
C1492 C 0.22469 0.68761 0.60724 0.0
C1493 C 0.22071 0.65534 0.62581 0.0
C1494 C 0.21583 0.67266 0.64876 0.0
C1495 C 0.2146 0.72092 0.65281 0.0
H1496 H 0.95842 0.45415 0.31569 0.0
H1497 H 0.98332 0.48592 0.38034 0.0
H1498 H 0.95965 0.37078 0.32571 0.0
H1499 H 0.9847 0.40252 0.39017 0.0
H1500 H 0.96332 0.26746 0.41892 0.0
H1501 H 0.96686 0.34806 0.40564 0.0
H1502 H 0.97487 0.30072 0.33037 0.0
H1503 H 0.97121 0.21945 0.34372 0.0
C1504 C 0.96437 0.44322 0.33176 0.0
C1505 C 0.97064 0.4765 0.34741 0.0
C1506 C 0.96514 0.39548 0.33742 0.0
C1507 C 0.97216 0.38022 0.35886 0.0
C1508 C 0.97905 0.41338 0.37373 0.0
C1509 C 0.9783 0.46106 0.36805 0.0
C1510 C 0.96595 0.27414 0.39958 0.0
C1511 C 0.96692 0.23724 0.38232 0.0
C1512 C 0.96809 0.32031 0.39201 0.0
C1513 C 0.97119 0.33068 0.36698 0.0
C1514 C 0.97243 0.2937 0.34976 0.0
C1515 C 0.97039 0.24729 0.3574 0.0
H1516 H 0.78987 0.22682 0.40117 0.0
H1517 H 0.79776 0.27532 0.32605 0.0
H1518 H 0.78793 0.30841 0.41529 0.0
H1519 H 0.79594 0.35603 0.34004 0.0
H1520 H 0.80727 0.45861 0.43009 0.0
H1521 H 0.80437 0.37567 0.41989 0.0
H1522 H 0.77937 0.41344 0.35634 0.0
H1523 H 0.78243 0.4962 0.36628 0.0
C1524 C 0.79103 0.25484 0.38768 0.0
C1525 C 0.79401 0.2448 0.36255 0.0
C1526 C 0.78999 0.30143 0.39575 0.0
C1527 C 0.79174 0.33858 0.37875 0.0
C1528 C 0.79433 0.32825 0.35353 0.0
C1529 C 0.79547 0.28195 0.34555 0.0
C1530 C 0.80099 0.44911 0.41417 0.0
C1531 C 0.79523 0.48383 0.39878 0.0
C1532 C 0.79926 0.40164 0.40843 0.0
C1533 C 0.79176 0.38812 0.38717 0.0
C1534 C 0.78538 0.42286 0.37262 0.0
C1535 C 0.7871 0.47023 0.37835 0.0
H1536 H 0.5308 0.98639 0.61231 0.0
H1537 H 0.55678 0.02103 0.67515 0.0
H1538 H 0.52747 0.06962 0.60385 0.0
H1539 H 0.55359 0.10435 0.66645 0.0
H1540 H 0.54538 0.21095 0.57555 0.0
H1541 H 0.54362 0.12907 0.58769 0.0
H1542 H 0.53675 0.17043 0.66434 0.0
H1543 H 0.53864 0.25297 0.65213 0.0
C1544 C 0.53568 0.01181 0.62446 0.0
C1545 C 0.54418 -0.00267 0.6442 0.0
C1546 C 0.5338 0.0594 0.61958 0.0
C1547 C 0.54037 0.0934 0.63436 0.0
C1548 C 0.54831 0.07892 0.65487 0.0
C1549 C 0.55021 0.03126 0.65974 0.0
C1550 C 0.54333 0.20265 0.59494 0.0
C1551 C 0.54222 0.23824 0.61293 0.0
C1552 C 0.54222 0.15574 0.60187 0.0
C1553 C 0.54004 0.14339 0.62697 0.0
C1554 C 0.53852 0.17903 0.64489 0.0
C1555 C 0.53954 0.22615 0.6379 0.0
H1556 H 0.72226 0.26641 0.60126 0.0
H1557 H 0.70943 0.22297 0.67503 0.0
H1558 H 0.72423 0.18437 0.58873 0.0
H1559 H 0.71113 0.14114 0.6624 0.0
H1560 H 0.72458 -0.0034 0.63686 0.0
H1561 H 0.72688 0.07857 0.64956 0.0
H1562 H 0.70747 0.12221 0.5808 0.0
H1563 H 0.70541 0.04065 0.56797 0.0
C1564 C 0.71999 0.23933 0.61486 0.0
C1565 C 0.7156 0.25102 0.63906 0.0
C1566 C 0.72104 0.19241 0.60765 0.0
C1567 C 0.71773 0.15634 0.62452 0.0
C1568 C 0.71388 0.1681 0.64904 0.0
C1569 C 0.71283 0.21499 0.65624 0.0
C1570 C 0.72091 0.02381 0.62441 0.0
C1571 C 0.71476 0.01233 0.60149 0.0
C1572 C 0.72218 0.07065 0.63171 0.0
C1573 C 0.71736 0.10681 0.61617 0.0
C1574 C 0.71148 0.09522 0.59302 0.0
C1575 C 0.71019 0.04847 0.58576 0.0
H1576 H 0.45683 0.77795 0.4316 0.0
H1577 H 0.48412 0.74805 0.36982 0.0
H1578 H 0.4595 0.86186 0.42386 0.0
H1579 H 0.48695 0.83184 0.36236 0.0
H1580 H 0.46733 0.96955 0.33328 0.0
H1581 H 0.47014 0.88825 0.34563 0.0
H1582 H 0.47549 0.93107 0.42243 0.0
H1583 H 0.47257 0.01325 0.40996 0.0
C1584 C 0.46361 0.78935 0.41669 0.0
C1585 C 0.4701 0.75656 0.40105 0.0
C1586 C 0.46521 0.83737 0.41238 0.0
C1587 C 0.47333 0.85331 0.39235 0.0
C1588 C 0.48047 0.82047 0.3777 0.0
C1589 C 0.47887 0.77255 0.382 0.0
C1590 C 0.46926 0.96175 0.35277 0.0
C1591 C 0.46965 -0.00238 0.3707 0.0
C1592 C 0.47099 0.91517 0.35982 0.0
C1593 C 0.47307 0.90333 0.38499 0.0
C1594 C 0.47384 0.93928 0.40291 0.0
C1595 C 0.47223 0.98618 0.39578 0.0
H1596 H 0.30097 0.76566 0.3248 0.0
H1597 H 0.29162 0.71444 0.39888 0.0
H1598 H 0.29861 0.84595 0.33948 0.0
H1599 H 0.28912 0.79527 0.41359 0.0
H1600 H 0.28377 0.98488 0.36797 0.0
H1601 H 0.28156 0.90277 0.3557 0.0
H1602 H 0.30555 0.86147 0.41993 0.0
H1603 H 0.30764 0.94345 0.43235 0.0
C1604 C 0.29825 0.77159 0.34418 0.0
C1605 C 0.29655 0.73387 0.36075 0.0
C1606 C 0.29679 0.81758 0.35254 0.0
C1607 C 0.29367 0.82683 0.37767 0.0
C1608 C 0.29163 0.78907 0.39415 0.0
C1609 C 0.29301 0.74292 0.38573 0.0
C1610 C 0.28842 0.95819 0.37963 0.0
C1611 C 0.29599 0.97049 0.40097 0.0
C1612 C 0.28719 0.91127 0.37256 0.0
C1613 C 0.29346 0.87582 0.38678 0.0
C1614 C 0.30051 0.88801 0.40874 0.0
C1615 C 0.30178 0.93495 0.41575 0.0
H1616 H 0.55183 0.53648 0.18048 0.0
H1617 H 0.53015 0.50035 0.11272 0.0
H1618 H 0.55019 0.61933 0.16974 0.0
H1619 H 0.5283 0.58337 0.10217 0.0
H1620 H 0.54874 0.72218 0.0761 0.0
H1621 H 0.54548 0.64106 0.08875 0.0
H1622 H 0.53467 0.68665 0.1632 0.0
H1623 H 0.53814 0.76827 0.15056 0.0
C1624 C 0.54651 0.54632 0.16351 0.0
C1625 C 0.54125 0.51201 0.14729 0.0
C1626 C 0.54548 0.59379 0.15744 0.0
C1627 C 0.5392 0.60781 0.13502 0.0
C1628 C 0.53337 0.57353 0.1194 0.0
C1629 C 0.53439 0.52607 0.12549 0.0
C1630 C 0.54553 0.71497 0.0951 0.0
C1631 C 0.54378 0.75148 0.1124 0.0
C1632 C 0.54356 0.66848 0.1023 0.0
C1633 C 0.53982 0.65748 0.12698 0.0
C1634 C 0.53767 0.69411 0.14412 0.0
C1635 C 0.5396 0.74075 0.13686 0.0
H1636 H 0.7139 0.50875 0.08388 0.0
H1637 H 0.72128 0.46709 0.16029 0.0
H1638 H 0.71705 0.59045 0.0954 0.0
H1639 H 0.72462 0.54941 0.17185 0.0
H1640 H 0.70753 0.70238 0.18352 0.0
H1641 H 0.70934 0.61852 0.17514 0.0
H1642 H 0.73398 0.64783 0.10971 0.0
H1643 H 0.73195 0.73168 0.11783 0.0
C1644 C 0.71638 0.51705 0.1031 0.0
C1645 C 0.71727 0.48161 0.12122 0.0
C1646 C 0.71829 0.56388 0.10967 0.0
C1647 C 0.7211 0.57639 0.13453 0.0
C1648 C 0.72236 0.54081 0.15258 0.0
C1649 C 0.72052 0.49376 0.14595 0.0
C1650 C 0.71351 0.69084 0.16757 0.0
C1651 C 0.71945 0.72352 0.15114 0.0
C1652 C 0.71462 0.64281 0.16285 0.0
C1653 C 0.7217 0.62661 0.14162 0.0
C1654 C 0.72827 0.65931 0.12598 0.0
C1655 C 0.72716 0.70729 0.13069 0.0
H1656 H 0.4859 0.25073 0.86874 0.0
H1657 H 0.45921 0.28567 0.93058 0.0
H1658 H 0.48966 0.33376 0.8606 0.0
H1659 H 0.46263 0.36904 0.92196 0.0
H1660 H 0.4743 0.5192 0.90302 0.0
H1661 H 0.47799 0.43888 0.918 0.0
H1662 H 0.47286 0.38733 0.84265 0.0
H1663 H 0.46937 0.46667 0.82785 0.0
C1664 C 0.481 0.27625 0.88082 0.0
C1665 C 0.47205 0.262 0.89995 0.0
C1666 C 0.48315 0.32372 0.87615 0.0
C1667 C 0.47622 0.35779 0.89032 0.0
C1668 C 0.46814 0.34354 0.91078 0.0
C1669 C 0.46611 0.29588 0.91562 0.0
C1670 C 0.47421 0.49062 0.8897 0.0
C1671 C 0.47146 0.49896 0.86433 0.0
C1672 C 0.47627 0.44479 0.89826 0.0
C1673 C 0.47577 0.40691 0.88149 0.0
C1674 C 0.47356 0.41578 0.856 0.0
C1675 C 0.47142 0.46125 0.84754 0.0
H1676 H 0.29639 0.27002 0.82587 0.0
H1677 H 0.28924 0.22205 0.90135 0.0
H1678 H 0.29407 0.35082 0.83962 0.0
H1679 H 0.28671 0.3034 0.91514 0.0
H1680 H 0.30631 0.4514 0.93032 0.0
H1681 H 0.30313 0.36907 0.91954 0.0
H1682 H 0.27813 0.40936 0.85638 0.0
H1683 H 0.28152 0.4918 0.86692 0.0
C1684 C 0.2941 0.27676 0.84535 0.0
C1685 C 0.29311 0.23983 0.86259 0.0
C1686 C 0.29266 0.32307 0.8532 0.0
C1687 C 0.29023 0.33344 0.87847 0.0
C1688 C 0.28871 0.29639 0.89558 0.0
C1689 C 0.29009 0.24992 0.88768 0.0
C1690 C 0.29997 0.44262 0.91435 0.0
C1691 C 0.29431 0.47792 0.89926 0.0
C1692 C 0.29807 0.39547 0.90828 0.0
C1693 C 0.29046 0.38281 0.88701 0.0
C1694 C 0.2842 0.41814 0.87268 0.0
C1695 C 0.28611 0.46528 0.87875 0.0
loop_
_geom_bond_atom_site_label_1
_geom_bond_atom_site_label_2
_geom_bond_distance
_geom_bond_site_symmetry_2
_ccdc_geom_bond_type
In0 O1 2.294 . S
In0 O2 2.326 . S
In0 O6 2.266 . S
In0 O7 2.326 . S
In0 O8 2.266 . S
In0 O9 2.326 . S
In0 O11 2.294 . S
In0 O12 2.326 . S
O1 In0 2.294 . S
O1 C10 1.240 . S
O2 In0 2.326 . S
O2 C10 1.252 . S
C3 O6 1.252 . S
C3 O7 1.260 . S
C4 O11 1.240 . S
C4 O12 1.252 . S
C5 O8 1.252 . S
C5 O9 1.260 . S
O6 In0 2.266 . S
O6 C3 1.252 . S
O7 In0 2.326 . S
O7 C3 1.260 . S
O8 In0 2.266 . S
O8 C5 1.252 . S
O9 In0 2.326 . S
O9 C5 1.260 . S
C10 O1 1.240 . S
C10 O2 1.252 . S
O11 In0 2.294 . S
O11 C4 1.240 . S
O12 In0 2.326 . S
O12 C4 1.252 . S
In13 O14 2.294 . S
In13 O15 2.326 . S
In13 O19 2.266 . S
In13 O20 2.326 . S
In13 O21 2.266 . S
In13 O22 2.326 . S
In13 O24 2.294 . S
In13 O25 2.326 . S
O14 In13 2.294 . S
O14 C23 1.240 . S
O15 In13 2.326 . S
O15 C23 1.252 . S
C16 O19 1.252 . S
C16 O20 1.260 . S
C17 O24 1.240 . S
C17 O25 1.252 . S
C18 O21 1.252 . S
C18 O22 1.260 . S
O19 In13 2.266 . S
O19 C16 1.252 . S
O20 In13 2.326 . S
O20 C16 1.260 . S
O21 In13 2.266 . S
O21 C18 1.252 . S
O22 In13 2.326 . S
O22 C18 1.260 . S
C23 O14 1.240 . S
C23 O15 1.252 . S
O24 In13 2.294 . S
O24 C17 1.240 . S
O25 In13 2.326 . S
O25 C17 1.252 . S
In26 O27 2.294 . S
In26 O28 2.326 . S
In26 O32 2.266 . S
In26 O33 2.326 . S
In26 O34 2.266 . S
In26 O35 2.326 . S
In26 O37 2.294 . S
In26 O38 2.326 . S
O27 In26 2.294 . S
O27 C36 1.240 . S
O28 In26 2.326 . S
O28 C36 1.252 . S
C29 O32 1.252 . S
C29 O33 1.260 . S
C30 O37 1.240 . S
C30 O38 1.252 . S
C31 O34 1.252 . S
C31 O35 1.260 . S
O32 In26 2.266 . S
O32 C29 1.252 . S
O33 In26 2.326 . S
O33 C29 1.260 . S
O34 In26 2.266 . S
O34 C31 1.252 . S
O35 In26 2.326 . S
O35 C31 1.260 . S
C36 O27 1.240 . S
C36 O28 1.252 . S
O37 In26 2.294 . S
O37 C30 1.240 . S
O38 In26 2.326 . S
O38 C30 1.252 . S
In39 O40 2.294 . S
In39 O41 2.326 . S
In39 O45 2.266 . S
In39 O46 2.326 . S
In39 O47 2.266 . S
In39 O48 2.326 . S
In39 O50 2.294 . S
In39 O51 2.326 . S
O40 In39 2.294 . S
O40 C49 1.240 . S
O41 In39 2.326 . S
O41 C49 1.252 . S
C42 O45 1.252 . S
C42 O46 1.260 . S
C43 O50 1.240 . S
C43 O51 1.252 . S
C44 O47 1.252 . S
C44 O48 1.260 . S
O45 In39 2.266 . S
O45 C42 1.252 . S
O46 In39 2.326 . S
O46 C42 1.260 . S
O47 In39 2.266 . S
O47 C44 1.252 . S
O48 In39 2.326 . S
O48 C44 1.260 . S
C49 O40 1.240 . S
C49 O41 1.252 . S
O50 In39 2.294 . S
O50 C43 1.240 . S
O51 In39 2.326 . S
O51 C43 1.252 . S
In52 O53 2.294 . S
In52 O54 2.326 . S
In52 O58 2.266 . S
In52 O59 2.326 . S
In52 O60 2.266 . S
In52 O61 2.326 . S
In52 O63 2.294 . S
In52 O64 2.326 . S
O53 In52 2.294 . S
O53 C62 1.240 . S
O54 In52 2.326 . S
O54 C62 1.252 . S
C55 O58 1.252 . S
C55 O59 1.260 . S
C56 O63 1.240 . S
C56 O64 1.252 . S
C57 O60 1.252 . S
C57 O61 1.260 . S
O58 In52 2.266 . S
O58 C55 1.252 . S
O59 In52 2.326 . S
O59 C55 1.260 . S
O60 In52 2.266 . S
O60 C57 1.252 . S
O61 In52 2.326 . S
O61 C57 1.260 . S
C62 O53 1.240 . S
C62 O54 1.252 . S
O63 In52 2.294 . S
O63 C56 1.240 . S
O64 In52 2.326 . S
O64 C56 1.252 . S
In65 O66 2.294 . S
In65 O67 2.326 . S
In65 O71 2.266 . S
In65 O72 2.326 . S
In65 O73 2.266 . S
In65 O74 2.326 . S
In65 O76 2.294 . S
In65 O77 2.326 . S
O66 In65 2.294 . S
O66 C75 1.240 . S
O67 In65 2.326 . S
O67 C75 1.252 . S
C68 O71 1.252 . S
C68 O72 1.260 . S
C69 O76 1.240 . S
C69 O77 1.252 . S
C70 O73 1.252 . S
C70 O74 1.260 . S
O71 In65 2.266 . S
O71 C68 1.252 . S
O72 In65 2.326 . S
O72 C68 1.260 . S
O73 In65 2.266 . S
O73 C70 1.252 . S
O74 In65 2.326 . S
O74 C70 1.260 . S
C75 O66 1.240 . S
C75 O67 1.252 . S
O76 In65 2.294 . S
O76 C69 1.240 . S
O77 In65 2.326 . S
O77 C69 1.252 . S
In78 O79 2.294 . S
In78 O80 2.326 . S
In78 O84 2.266 . S
In78 O85 2.326 . S
In78 O86 2.266 . S
In78 O87 2.326 . S
In78 O89 2.294 . S
In78 O90 2.326 . S
O79 In78 2.294 . S
O79 C88 1.240 . S
O80 In78 2.326 . S
O80 C88 1.252 . S
C81 O84 1.252 . S
C81 O85 1.260 . S
C82 O89 1.240 . S
C82 O90 1.252 . S
C83 O86 1.252 . S
C83 O87 1.260 . S
O84 In78 2.266 . S
O84 C81 1.252 . S
O85 In78 2.326 . S
O85 C81 1.260 . S
O86 In78 2.266 . S
O86 C83 1.252 . S
O87 In78 2.326 . S
O87 C83 1.260 . S
C88 O79 1.240 . S
C88 O80 1.252 . S
O89 In78 2.294 . S
O89 C82 1.240 . S
O90 In78 2.326 . S
O90 C82 1.252 . S
In91 O92 2.294 . S
In91 O93 2.326 . S
In91 O97 2.266 . S
In91 O98 2.326 . S
In91 O99 2.266 . S
In91 O100 2.326 . S
In91 O102 2.294 . S
In91 O103 2.326 . S
O92 In91 2.294 . S
O92 C101 1.240 . S
O93 In91 2.326 . S
O93 C101 1.252 . S
C94 O97 1.252 . S
C94 O98 1.260 . S
C95 O102 1.240 . S
C95 O103 1.252 . S
C96 O99 1.252 . S
C96 O100 1.260 . S
O97 In91 2.266 . S
O97 C94 1.252 . S
O98 In91 2.326 . S
O98 C94 1.260 . S
O99 In91 2.266 . S
O99 C96 1.252 . S
O100 In91 2.326 . S
O100 C96 1.260 . S
C101 O92 1.240 . S
C101 O93 1.252 . S
O102 In91 2.294 . S
O102 C95 1.240 . S
O103 In91 2.326 . S
O103 C95 1.252 . S
In104 O105 2.294 . S
In104 O106 2.326 . S
In104 O110 2.266 . S
In104 O111 2.326 . S
In104 O112 2.266 . S
In104 O113 2.326 . S
In104 O115 2.294 . S
In104 O116 2.326 . S
O105 In104 2.294 . S
O105 C114 1.240 . S
O106 In104 2.326 . S
O106 C114 1.252 . S
C107 O110 1.252 . S
C107 O111 1.260 . S
C108 O115 1.240 . S
C108 O116 1.252 . S
C109 O112 1.252 . S
C109 O113 1.260 . S
O110 In104 2.266 . S
O110 C107 1.252 . S
O111 In104 2.326 . S
O111 C107 1.260 . S
O112 In104 2.266 . S
O112 C109 1.252 . S
O113 In104 2.326 . S
O113 C109 1.260 . S
C114 O105 1.240 . S
C114 O106 1.252 . S
O115 In104 2.294 . S
O115 C108 1.240 . S
O116 In104 2.326 . S
O116 C108 1.252 . S
In117 O118 2.294 . S
In117 O119 2.326 . S
In117 O123 2.266 . S
In117 O124 2.326 . S
In117 O125 2.266 . S
In117 O126 2.326 . S
In117 O128 2.294 . S
In117 O129 2.326 . S
O118 In117 2.294 . S
O118 C127 1.240 . S
O119 In117 2.326 . S
O119 C127 1.252 . S
C120 O123 1.252 . S
C120 O124 1.260 . S
C121 O128 1.240 . S
C121 O129 1.252 . S
C122 O125 1.252 . S
C122 O126 1.260 . S
O123 In117 2.266 . S
O123 C120 1.252 . S
O124 In117 2.326 . S
O124 C120 1.260 . S
O125 In117 2.266 . S
O125 C122 1.252 . S
O126 In117 2.326 . S
O126 C122 1.260 . S
C127 O118 1.240 . S
C127 O119 1.252 . S
O128 In117 2.294 . S
O128 C121 1.240 . S
O129 In117 2.326 . S
O129 C121 1.252 . S
In130 O131 2.294 . S
In130 O132 2.326 . S
In130 O136 2.266 . S
In130 O137 2.326 . S
In130 O138 2.266 . S
In130 O139 2.326 . S
In130 O141 2.294 . S
In130 O142 2.326 . S
O131 In130 2.294 . S
O131 C140 1.240 . S
O132 In130 2.326 . S
O132 C140 1.252 . S
C133 O136 1.252 . S
C133 O137 1.260 . S
C134 O141 1.240 . S
C134 O142 1.252 . S
C135 O138 1.252 . S
C135 O139 1.260 . S
O136 In130 2.266 . S
O136 C133 1.252 . S
O137 In130 2.326 . S
O137 C133 1.260 . S
O138 In130 2.266 . S
O138 C135 1.252 . S
O139 In130 2.326 . S
O139 C135 1.260 . S
C140 O131 1.240 . S
C140 O132 1.252 . S
O141 In130 2.294 . S
O141 C134 1.240 . S
O142 In130 2.326 . S
O142 C134 1.252 . S
In143 O144 2.294 . S
In143 O145 2.326 . S
In143 O149 2.266 . S
In143 O150 2.326 . S
In143 O151 2.266 . S
In143 O152 2.326 . S
In143 O154 2.294 . S
In143 O155 2.326 . S
O144 In143 2.294 . S
O144 C153 1.240 . S
O145 In143 2.326 . S
O145 C153 1.252 . S
C146 O149 1.252 . S
C146 O150 1.260 . S
C147 O154 1.240 . S
C147 O155 1.252 . S
C148 O151 1.252 . S
C148 O152 1.260 . S
O149 In143 2.266 . S
O149 C146 1.252 . S
O150 In143 2.326 . S
O150 C146 1.260 . S
O151 In143 2.266 . S
O151 C148 1.252 . S
O152 In143 2.326 . S
O152 C148 1.260 . S
C153 O144 1.240 . S
C153 O145 1.252 . S
O154 In143 2.294 . S
O154 C147 1.240 . S
O155 In143 2.326 . S
O155 C147 1.252 . S
In156 O157 2.294 . S
In156 O158 2.326 . S
In156 O162 2.266 . S
In156 O163 2.326 . S
In156 O164 2.266 . S
In156 O165 2.326 . S
In156 O167 2.294 . S
In156 O168 2.326 . S
O157 In156 2.294 . S
O157 C166 1.240 . S
O158 In156 2.326 . S
O158 C166 1.252 . S
C159 O162 1.252 . S
C159 O163 1.260 . S
C160 O167 1.240 . S
C160 O168 1.252 . S
C161 O164 1.252 . S
C161 O165 1.260 . S
O162 In156 2.266 . S
O162 C159 1.252 . S
O163 In156 2.326 . S
O163 C159 1.260 . S
O164 In156 2.266 . S
O164 C161 1.252 . S
O165 In156 2.326 . S
O165 C161 1.260 . S
C166 O157 1.240 . S
C166 O158 1.252 . S
O167 In156 2.294 . S
O167 C160 1.240 . S
O168 In156 2.326 . S
O168 C160 1.252 . S
In169 O170 2.294 . S
In169 O171 2.326 . S
In169 O175 2.266 . S
In169 O176 2.326 . S
In169 O177 2.266 . S
In169 O178 2.326 . S
In169 O180 2.294 . S
In169 O181 2.326 . S
O170 In169 2.294 . S
O170 C179 1.240 . S
O171 In169 2.326 . S
O171 C179 1.252 . S
C172 O175 1.252 . S
C172 O176 1.260 . S
C173 O180 1.240 . S
C173 O181 1.252 . S
C174 O177 1.252 . S
C174 O178 1.260 . S
O175 In169 2.266 . S
O175 C172 1.252 . S
O176 In169 2.326 . S
O176 C172 1.260 . S
O177 In169 2.266 . S
O177 C174 1.252 . S
O178 In169 2.326 . S
O178 C174 1.260 . S
C179 O170 1.240 . S
C179 O171 1.252 . S
O180 In169 2.294 . S
O180 C173 1.240 . S
O181 In169 2.326 . S
O181 C173 1.252 . S
In182 O183 2.294 . S
In182 O184 2.326 . S
In182 O188 2.266 . S
In182 O189 2.326 . S
In182 O190 2.266 . S
In182 O191 2.326 . S
In182 O193 2.294 . S
In182 O194 2.326 . S
O183 In182 2.294 . S
O183 C192 1.240 . S
O184 In182 2.326 . S
O184 C192 1.252 . S
C185 O188 1.252 . S
C185 O189 1.260 . S
C186 O193 1.240 . S
C186 O194 1.252 . S
C187 O190 1.252 . S
C187 O191 1.260 . S
O188 In182 2.266 . S
O188 C185 1.252 . S
O189 In182 2.326 . S
O189 C185 1.260 . S
O190 In182 2.266 . S
O190 C187 1.252 . S
O191 In182 2.326 . S
O191 C187 1.260 . S
C192 O183 1.240 . S
C192 O184 1.252 . S
O193 In182 2.294 . S
O193 C186 1.240 . S
O194 In182 2.326 . S
O194 C186 1.252 . S
In195 O196 2.294 . S
In195 O197 2.326 . S
In195 O201 2.266 . S
In195 O202 2.326 . S
In195 O203 2.266 . S
In195 O204 2.326 . S
In195 O206 2.294 . S
In195 O207 2.326 . S
O196 In195 2.294 . S
O196 C205 1.240 . S
O197 In195 2.326 . S
O197 C205 1.252 . S
C198 O201 1.252 . S
C198 O202 1.260 . S
C199 O206 1.240 . S
C199 O207 1.252 . S
C200 O203 1.252 . S
C200 O204 1.260 . S
O201 In195 2.266 . S
O201 C198 1.252 . S
O202 In195 2.326 . S
O202 C198 1.260 . S
O203 In195 2.266 . S
O203 C200 1.252 . S
O204 In195 2.326 . S
O204 C200 1.260 . S
C205 O196 1.240 . S
C205 O197 1.252 . S
O206 In195 2.294 . S
O206 C199 1.240 . S
O207 In195 2.326 . S
O207 C199 1.252 . S
In208 O209 2.294 . S
In208 O210 2.326 . S
In208 O214 2.266 . S
In208 O215 2.326 . S
In208 O216 2.266 . S
In208 O217 2.326 . S
In208 O219 2.294 . S
In208 O220 2.326 . S
O209 In208 2.294 . S
O209 C218 1.240 . S
O210 In208 2.326 . S
O210 C218 1.252 . S
C211 O214 1.252 . S
C211 O215 1.260 . S
C212 O219 1.240 . S
C212 O220 1.252 . S
C213 O216 1.252 . S
C213 O217 1.260 . S
O214 In208 2.266 . S
O214 C211 1.252 . S
O215 In208 2.326 . S
O215 C211 1.260 . S
O216 In208 2.266 . S
O216 C213 1.252 . S
O217 In208 2.326 . S
O217 C213 1.260 . S
C218 O209 1.240 . S
C218 O210 1.252 . S
O219 In208 2.294 . S
O219 C212 1.240 . S
O220 In208 2.326 . S
O220 C212 1.252 . S
In221 O222 2.294 . S
In221 O223 2.326 . S
In221 O227 2.266 . S
In221 O228 2.326 . S
In221 O229 2.266 . S
In221 O230 2.326 . S
In221 O232 2.294 . S
In221 O233 2.326 . S
O222 In221 2.294 . S
O222 C231 1.240 . S
O223 In221 2.326 . S
O223 C231 1.252 . S
C224 O227 1.252 . S
C224 O228 1.260 . S
C225 O232 1.240 . S
C225 O233 1.252 . S
C226 O229 1.252 . S
C226 O230 1.260 . S
O227 In221 2.266 . S
O227 C224 1.252 . S
O228 In221 2.326 . S
O228 C224 1.260 . S
O229 In221 2.266 . S
O229 C226 1.252 . S
O230 In221 2.326 . S
O230 C226 1.260 . S
C231 O222 1.240 . S
C231 O223 1.252 . S
O232 In221 2.294 . S
O232 C225 1.240 . S
O233 In221 2.326 . S
O233 C225 1.252 . S
In234 O235 2.294 . S
In234 O236 2.326 . S
In234 O240 2.266 . S
In234 O241 2.326 . S
In234 O242 2.266 . S
In234 O243 2.326 . S
In234 O245 2.294 . S
In234 O246 2.326 . S
O235 In234 2.294 . S
O235 C244 1.240 . S
O236 In234 2.326 . S
O236 C244 1.252 . S
C237 O240 1.252 . S
C237 O241 1.260 . S
C238 O245 1.240 . S
C238 O246 1.252 . S
C239 O242 1.252 . S
C239 O243 1.260 . S
O240 In234 2.266 . S
O240 C237 1.252 . S
O241 In234 2.326 . S
O241 C237 1.260 . S
O242 In234 2.266 . S
O242 C239 1.252 . S
O243 In234 2.326 . S
O243 C239 1.260 . S
C244 O235 1.240 . S
C244 O236 1.252 . S
O245 In234 2.294 . S
O245 C238 1.240 . S
O246 In234 2.326 . S
O246 C238 1.252 . S
In247 O248 2.294 . S
In247 O249 2.326 . S
In247 O253 2.266 . S
In247 O254 2.326 . S
In247 O255 2.266 . S
In247 O256 2.326 . S
In247 O258 2.294 . S
In247 O259 2.326 . S
O248 In247 2.294 . S
O248 C257 1.240 . S
O249 In247 2.326 . S
O249 C257 1.252 . S
C250 O253 1.252 . S
C250 O254 1.260 . S
C251 O258 1.240 . S
C251 O259 1.252 . S
C252 O255 1.252 . S
C252 O256 1.260 . S
O253 In247 2.266 . S
O253 C250 1.252 . S
O254 In247 2.326 . S
O254 C250 1.260 . S
O255 In247 2.266 . S
O255 C252 1.252 . S
O256 In247 2.326 . S
O256 C252 1.260 . S
C257 O248 1.240 . S
C257 O249 1.252 . S
O258 In247 2.294 . S
O258 C251 1.240 . S
O259 In247 2.326 . S
O259 C251 1.252 . S
In260 O261 2.294 . S
In260 O262 2.326 . S
In260 O266 2.266 . S
In260 O267 2.326 . S
In260 O268 2.266 . S
In260 O269 2.326 . S
In260 O271 2.294 . S
In260 O272 2.326 . S
O261 In260 2.294 . S
O261 C270 1.240 . S
O262 In260 2.326 . S
O262 C270 1.252 . S
C263 O266 1.252 . S
C263 O267 1.260 . S
C264 O271 1.240 . S
C264 O272 1.252 . S
C265 O268 1.252 . S
C265 O269 1.260 . S
O266 In260 2.266 . S
O266 C263 1.252 . S
O267 In260 2.326 . S
O267 C263 1.260 . S
O268 In260 2.266 . S
O268 C265 1.252 . S
O269 In260 2.326 . S
O269 C265 1.260 . S
C270 O261 1.240 . S
C270 O262 1.252 . S
O271 In260 2.294 . S
O271 C264 1.240 . S
O272 In260 2.326 . S
O272 C264 1.252 . S
In273 O274 2.294 . S
In273 O275 2.326 . S
In273 O279 2.266 . S
In273 O280 2.326 . S
In273 O281 2.266 . S
In273 O282 2.326 . S
In273 O284 2.294 . S
In273 O285 2.326 . S
O274 In273 2.294 . S
O274 C283 1.240 . S
O275 In273 2.326 . S
O275 C283 1.252 . S
C276 O279 1.252 . S
C276 O280 1.260 . S
C277 O284 1.240 . S
C277 O285 1.252 . S
C278 O281 1.252 . S
C278 O282 1.260 . S
O279 In273 2.266 . S
O279 C276 1.252 . S
O280 In273 2.326 . S
O280 C276 1.260 . S
O281 In273 2.266 . S
O281 C278 1.252 . S
O282 In273 2.326 . S
O282 C278 1.260 . S
C283 O274 1.240 . S
C283 O275 1.252 . S
O284 In273 2.294 . S
O284 C277 1.240 . S
O285 In273 2.326 . S
O285 C277 1.252 . S
In286 O287 2.294 . S
In286 O288 2.326 . S
In286 O292 2.266 . S
In286 O293 2.326 . S
In286 O294 2.266 . S
In286 O295 2.326 . S
In286 O297 2.294 . S
In286 O298 2.326 . S
O287 In286 2.294 . S
O287 C296 1.240 . S
O288 In286 2.326 . S
O288 C296 1.252 . S
C289 O292 1.252 . S
C289 O293 1.260 . S
C290 O297 1.240 . S
C290 O298 1.252 . S
C291 O294 1.252 . S
C291 O295 1.260 . S
O292 In286 2.266 . S
O292 C289 1.252 . S
O293 In286 2.326 . S
O293 C289 1.260 . S
O294 In286 2.266 . S
O294 C291 1.252 . S
O295 In286 2.326 . S
O295 C291 1.260 . S
C296 O287 1.240 . S
C296 O288 1.252 . S
O297 In286 2.294 . S
O297 C290 1.240 . S
O298 In286 2.326 . S
O298 C290 1.252 . S
In299 O300 2.294 . S
In299 O301 2.326 . S
In299 O305 2.266 . S
In299 O306 2.326 . S
In299 O307 2.266 . S
In299 O308 2.326 . S
In299 O310 2.294 . S
In299 O311 2.326 . S
O300 In299 2.294 . S
O300 C309 1.240 . S
O301 In299 2.326 . S
O301 C309 1.252 . S
C302 O305 1.252 . S
C302 O306 1.260 . S
C303 O310 1.240 . S
C303 O311 1.252 . S
C304 O307 1.252 . S
C304 O308 1.260 . S
O305 In299 2.266 . S
O305 C302 1.252 . S
O306 In299 2.326 . S
O306 C302 1.260 . S
O307 In299 2.266 . S
O307 C304 1.252 . S
O308 In299 2.326 . S
O308 C304 1.260 . S
C309 O300 1.240 . S
C309 O301 1.252 . S
O310 In299 2.294 . S
O310 C303 1.240 . S
O311 In299 2.326 . S
O311 C303 1.252 . S
In312 O313 2.294 . S
In312 O314 2.326 . S
In312 O318 2.266 . S
In312 O319 2.326 . S
In312 O320 2.266 . S
In312 O321 2.326 . S
In312 O323 2.294 . S
In312 O324 2.326 . S
O313 In312 2.294 . S
O313 C322 1.240 . S
O314 In312 2.326 . S
O314 C322 1.252 . S
C315 O318 1.252 . S
C315 O319 1.260 . S
C316 O323 1.240 . S
C316 O324 1.252 . S
C317 O320 1.252 . S
C317 O321 1.260 . S
O318 In312 2.266 . S
O318 C315 1.252 . S
O319 In312 2.326 . S
O319 C315 1.260 . S
O320 In312 2.266 . S
O320 C317 1.252 . S
O321 In312 2.326 . S
O321 C317 1.260 . S
C322 O313 1.240 . S
C322 O314 1.252 . S
O323 In312 2.294 . S
O323 C316 1.240 . S
O324 In312 2.326 . S
O324 C316 1.252 . S
In325 O326 2.294 . S
In325 O327 2.326 . S
In325 O331 2.266 . S
In325 O332 2.326 . S
In325 O333 2.266 . S
In325 O334 2.326 . S
In325 O336 2.294 . S
In325 O337 2.326 . S
O326 In325 2.294 . S
O326 C335 1.240 . S
O327 In325 2.326 . S
O327 C335 1.252 . S
C328 O331 1.252 . S
C328 O332 1.260 . S
C329 O336 1.240 . S
C329 O337 1.252 . S
C330 O333 1.252 . S
C330 O334 1.260 . S
O331 In325 2.266 . S
O331 C328 1.252 . S
O332 In325 2.326 . S
O332 C328 1.260 . S
O333 In325 2.266 . S
O333 C330 1.252 . S
O334 In325 2.326 . S
O334 C330 1.260 . S
C335 O326 1.240 . S
C335 O327 1.252 . S
O336 In325 2.294 . S
O336 C329 1.240 . S
O337 In325 2.326 . S
O337 C329 1.252 . S
In338 O339 2.294 . S
In338 O340 2.326 . S
In338 O344 2.266 . S
In338 O345 2.326 . S
In338 O346 2.266 . S
In338 O347 2.326 . S
In338 O349 2.294 . S
In338 O350 2.326 . S
O339 In338 2.294 . S
O339 C348 1.240 . S
O340 In338 2.326 . S
O340 C348 1.252 . S
C341 O344 1.252 . S
C341 O345 1.260 . S
C342 O349 1.240 . S
C342 O350 1.252 . S
C343 O346 1.252 . S
C343 O347 1.260 . S
O344 In338 2.266 . S
O344 C341 1.252 . S
O345 In338 2.326 . S
O345 C341 1.260 . S
O346 In338 2.266 . S
O346 C343 1.252 . S
O347 In338 2.326 . S
O347 C343 1.260 . S
C348 O339 1.240 . S
C348 O340 1.252 . S
O349 In338 2.294 . S
O349 C342 1.240 . S
O350 In338 2.326 . S
O350 C342 1.252 . S
In351 O352 2.294 . S
In351 O353 2.326 . S
In351 O357 2.266 . S
In351 O358 2.326 . S
In351 O359 2.266 . S
In351 O360 2.326 . S
In351 O362 2.294 . S
In351 O363 2.326 . S
O352 In351 2.294 . S
O352 C361 1.240 . S
O353 In351 2.326 . S
O353 C361 1.252 . S
C354 O357 1.252 . S
C354 O358 1.260 . S
C355 O362 1.240 . S
C355 O363 1.252 . S
C356 O359 1.252 . S
C356 O360 1.260 . S
O357 In351 2.266 . S
O357 C354 1.252 . S
O358 In351 2.326 . S
O358 C354 1.260 . S
O359 In351 2.266 . S
O359 C356 1.252 . S
O360 In351 2.326 . S
O360 C356 1.260 . S
C361 O352 1.240 . S
C361 O353 1.252 . S
O362 In351 2.294 . S
O362 C355 1.240 . S
O363 In351 2.326 . S
O363 C355 1.252 . S
In364 O365 2.294 . S
In364 O366 2.326 . S
In364 O370 2.266 . S
In364 O371 2.326 . S
In364 O372 2.266 . S
In364 O373 2.326 . S
In364 O375 2.294 . S
In364 O376 2.326 . S
O365 In364 2.294 . S
O365 C374 1.240 . S
O366 In364 2.326 . S
O366 C374 1.252 . S
C367 O370 1.252 . S
C367 O371 1.260 . S
C368 O375 1.240 . S
C368 O376 1.252 . S
C369 O372 1.252 . S
C369 O373 1.260 . S
O370 In364 2.266 . S
O370 C367 1.252 . S
O371 In364 2.326 . S
O371 C367 1.260 . S
O372 In364 2.266 . S
O372 C369 1.252 . S
O373 In364 2.326 . S
O373 C369 1.260 . S
C374 O365 1.240 . S
C374 O366 1.252 . S
O375 In364 2.294 . S
O375 C368 1.240 . S
O376 In364 2.326 . S
O376 C368 1.252 . S
In377 O378 2.294 . S
In377 O379 2.326 . S
In377 O383 2.266 . S
In377 O384 2.326 . S
In377 O385 2.266 . S
In377 O386 2.326 . S
In377 O388 2.294 . S
In377 O389 2.326 . S
O378 In377 2.294 . S
O378 C387 1.240 . S
O379 In377 2.326 . S
O379 C387 1.252 . S
C380 O383 1.252 . S
C380 O384 1.260 . S
C381 O388 1.240 . S
C381 O389 1.252 . S
C382 O385 1.252 . S
C382 O386 1.260 . S
O383 In377 2.266 . S
O383 C380 1.252 . S
O384 In377 2.326 . S
O384 C380 1.260 . S
O385 In377 2.266 . S
O385 C382 1.252 . S
O386 In377 2.326 . S
O386 C382 1.260 . S
C387 O378 1.240 . S
C387 O379 1.252 . S
O388 In377 2.294 . S
O388 C381 1.240 . S
O389 In377 2.326 . S
O389 C381 1.252 . S
In390 O391 2.294 . S
In390 O392 2.326 . S
In390 O396 2.266 . S
In390 O397 2.326 . S
In390 O398 2.266 . S
In390 O399 2.326 . S
In390 O401 2.294 . S
In390 O402 2.326 . S
O391 In390 2.294 . S
O391 C400 1.240 . S
O392 In390 2.326 . S
O392 C400 1.252 . S
C393 O396 1.252 . S
C393 O397 1.260 . S
C394 O401 1.240 . S
C394 O402 1.252 . S
C395 O398 1.252 . S
C395 O399 1.260 . S
O396 In390 2.266 . S
O396 C393 1.252 . S
O397 In390 2.326 . S
O397 C393 1.260 . S
O398 In390 2.266 . S
O398 C395 1.252 . S
O399 In390 2.326 . S
O399 C395 1.260 . S
C400 O391 1.240 . S
C400 O392 1.252 . S
O401 In390 2.294 . S
O401 C394 1.240 . S
O402 In390 2.326 . S
O402 C394 1.252 . S
In403 O404 2.294 . S
In403 O405 2.326 . S
In403 O409 2.266 . S
In403 O410 2.326 . S
In403 O411 2.266 . S
In403 O412 2.326 . S
In403 O414 2.294 . S
In403 O415 2.326 . S
O404 In403 2.294 . S
O404 C413 1.240 . S
O405 In403 2.326 . S
O405 C413 1.252 . S
C406 O409 1.252 . S
C406 O410 1.260 . S
C407 O414 1.240 . S
C407 O415 1.252 . S
C408 O411 1.252 . S
C408 O412 1.260 . S
O409 In403 2.266 . S
O409 C406 1.252 . S
O410 In403 2.326 . S
O410 C406 1.260 . S
O411 In403 2.266 . S
O411 C408 1.252 . S
O412 In403 2.326 . S
O412 C408 1.260 . S
C413 O404 1.240 . S
C413 O405 1.252 . S
O414 In403 2.294 . S
O414 C407 1.240 . S
O415 In403 2.326 . S
O415 C407 1.252 . S
H416 C424 0.950 . S
H417 C429 0.950 . S
H418 C426 0.950 . S
H419 C428 0.950 . S
H420 C430 0.950 . S
H421 C432 0.950 . S
H422 C434 0.950 . S
H423 C435 0.950 . S
C424 H416 0.950 . S
C424 C425 1.386 . S
C424 C426 1.391 . S
C425 C424 1.386 . S
C425 C429 1.393 . S
C426 H418 0.950 . S
C426 C424 1.391 . S
C426 C427 1.400 . S
C427 C426 1.400 . S
C427 C428 1.398 . S
C427 C433 1.491 . S
C428 H419 0.950 . S
C428 C427 1.398 . S
C428 C429 1.391 . S
C429 H417 0.950 . S
C429 C425 1.393 . S
C429 C428 1.391 . S
C430 H420 0.950 . S
C430 C431 1.386 . S
C430 C432 1.391 . S
C431 C430 1.386 . S
C431 C435 1.393 . S
C432 H421 0.950 . S
C432 C430 1.391 . S
C432 C433 1.400 . S
C433 C427 1.491 . S
C433 C432 1.400 . S
C433 C434 1.398 . S
C434 H422 0.950 . S
C434 C433 1.398 . S
C434 C435 1.391 . S
C435 H423 0.950 . S
C435 C431 1.393 . S
C435 C434 1.391 . S
H436 C444 0.950 . S
H437 C449 0.950 . S
H438 C446 0.950 . S
H439 C448 0.950 . S
H440 C450 0.950 . S
H441 C452 0.950 . S
H442 C454 0.950 . S
H443 C455 0.950 . S
C444 H436 0.950 . S
C444 C445 1.386 . S
C444 C446 1.391 . S
C445 C444 1.386 . S
C445 C449 1.393 . S
C446 H438 0.950 . S
C446 C444 1.391 . S
C446 C447 1.400 . S
C447 C446 1.400 . S
C447 C448 1.398 . S
C447 C453 1.491 . S
C448 H439 0.950 . S
C448 C447 1.398 . S
C448 C449 1.391 . S
C449 H437 0.950 . S
C449 C445 1.393 . S
C449 C448 1.391 . S
C450 H440 0.950 . S
C450 C451 1.386 . S
C450 C452 1.391 . S
C451 C450 1.386 . S
C451 C455 1.393 . S
C452 H441 0.950 . S
C452 C450 1.391 . S
C452 C453 1.400 . S
C453 C447 1.491 . S
C453 C452 1.400 . S
C453 C454 1.398 . S
C454 H442 0.950 . S
C454 C453 1.398 . S
C454 C455 1.391 . S
C455 H443 0.950 . S
C455 C451 1.393 . S
C455 C454 1.391 . S
H456 C464 0.950 . S
H457 C469 0.950 . S
H458 C466 0.950 . S
H459 C468 0.950 . S
H460 C470 0.950 . S
H461 C472 0.950 . S
H462 C474 0.950 . S
H463 C475 0.950 . S
C464 H456 0.950 . S
C464 C465 1.386 . S
C464 C466 1.391 . S
C465 C464 1.386 . S
C465 C469 1.393 . S
C466 H458 0.950 . S
C466 C464 1.391 . S
C466 C467 1.400 . S
C467 C466 1.400 . S
C467 C468 1.398 . S
C467 C473 1.491 . S
C468 H459 0.950 . S
C468 C467 1.398 . S
C468 C469 1.391 . S
C469 H457 0.950 . S
C469 C465 1.393 . S
C469 C468 1.391 . S
C470 H460 0.950 . S
C470 C471 1.386 . S
C470 C472 1.391 . S
C471 C470 1.386 . S
C471 C475 1.393 . S
C472 H461 0.950 . S
C472 C470 1.391 . S
C472 C473 1.400 . S
C473 C467 1.491 . S
C473 C472 1.400 . S
C473 C474 1.398 . S
C474 H462 0.950 . S
C474 C473 1.398 . S
C474 C475 1.391 . S
C475 H463 0.950 . S
C475 C471 1.393 . S
C475 C474 1.391 . S
H476 C484 0.950 . S
H477 C489 0.950 . S
H478 C486 0.950 . S
H479 C488 0.950 . S
H480 C490 0.950 . S
H481 C492 0.950 . S
H482 C494 0.950 . S
H483 C495 0.950 . S
C484 H476 0.950 . S
C484 C485 1.386 . S
C484 C486 1.391 . S
C485 C484 1.386 . S
C485 C489 1.393 . S
C486 H478 0.950 . S
C486 C484 1.391 . S
C486 C487 1.400 . S
C487 C486 1.400 . S
C487 C488 1.398 . S
C487 C493 1.491 . S
C488 H479 0.950 . S
C488 C487 1.398 . S
C488 C489 1.391 . S
C489 H477 0.950 . S
C489 C485 1.393 . S
C489 C488 1.391 . S
C490 H480 0.950 . S
C490 C491 1.386 . S
C490 C492 1.391 . S
C491 C490 1.386 . S
C491 C495 1.393 . S
C492 H481 0.950 . S
C492 C490 1.391 . S
C492 C493 1.400 . S
C493 C487 1.491 . S
C493 C492 1.400 . S
C493 C494 1.398 . S
C494 H482 0.950 . S
C494 C493 1.398 . S
C494 C495 1.391 . S
C495 H483 0.950 . S
C495 C491 1.393 . S
C495 C494 1.391 . S
H496 C504 0.950 . S
H497 C509 0.950 . S
H498 C506 0.950 . S
H499 C508 0.950 . S
H500 C510 0.950 . S
H501 C512 0.950 . S
H502 C514 0.950 . S
H503 C515 0.950 . S
C504 H496 0.950 . S
C504 C505 1.386 1_545 S
C504 C506 1.391 . S
C505 C504 1.386 1_565 S
C505 C509 1.393 1_565 S
C506 H498 0.950 . S
C506 C504 1.391 . S
C506 C507 1.400 . S
C507 C506 1.400 . S
C507 C508 1.398 . S
C507 C513 1.491 . S
C508 H499 0.950 . S
C508 C507 1.398 . S
C508 C509 1.391 . S
C509 H497 0.950 . S
C509 C505 1.393 1_545 S
C509 C508 1.391 . S
C510 H500 0.950 . S
C510 C511 1.386 . S
C510 C512 1.391 . S
C511 C510 1.386 . S
C511 C515 1.393 . S
C512 H501 0.950 . S
C512 C510 1.391 . S
C512 C513 1.400 . S
C513 C507 1.491 . S
C513 C512 1.400 . S
C513 C514 1.398 . S
C514 H502 0.950 . S
C514 C513 1.398 . S
C514 C515 1.391 . S
C515 H503 0.950 . S
C515 C511 1.393 . S
C515 C514 1.391 . S
H516 C524 0.950 . S
H517 C529 0.950 . S
H518 C526 0.950 . S
H519 C528 0.950 . S
H520 C530 0.950 . S
H521 C532 0.950 . S
H522 C534 0.950 . S
H523 C535 0.950 . S
C524 H516 0.950 . S
C524 C525 1.386 1_545 S
C524 C526 1.391 . S
C525 C524 1.386 1_565 S
C525 C529 1.393 1_565 S
C526 H518 0.950 . S
C526 C524 1.391 . S
C526 C527 1.400 . S
C527 C526 1.400 . S
C527 C528 1.398 . S
C527 C533 1.491 . S
C528 H519 0.950 . S
C528 C527 1.398 . S
C528 C529 1.391 . S
C529 H517 0.950 . S
C529 C525 1.393 1_545 S
C529 C528 1.391 . S
C530 H520 0.950 . S
C530 C531 1.386 . S
C530 C532 1.391 . S
C531 C530 1.386 . S
C531 C535 1.393 . S
C532 H521 0.950 . S
C532 C530 1.391 . S
C532 C533 1.400 . S
C533 C527 1.491 . S
C533 C532 1.400 . S
C533 C534 1.398 . S
C534 H522 0.950 . S
C534 C533 1.398 . S
C534 C535 1.391 . S
C535 H523 0.950 . S
C535 C531 1.393 . S
C535 C534 1.391 . S
H536 C544 0.950 . S
H537 C549 0.950 . S
H538 C546 0.950 . S
H539 C548 0.950 . S
H540 C550 0.950 . S
H541 C552 0.950 . S
H542 C554 0.950 . S
H543 C555 0.950 . S
C544 H536 0.950 . S
C544 C545 1.386 1_565 S
C544 C546 1.391 . S
C545 C544 1.386 1_545 S
C545 C549 1.393 1_545 S
C546 H538 0.950 . S
C546 C544 1.391 . S
C546 C547 1.400 . S
C547 C546 1.400 . S
C547 C548 1.398 . S
C547 C553 1.491 . S
C548 H539 0.950 . S
C548 C547 1.398 . S
C548 C549 1.391 . S
C549 H537 0.950 . S
C549 C545 1.393 1_565 S
C549 C548 1.391 . S
C550 H540 0.950 . S
C550 C551 1.386 . S
C550 C552 1.391 . S
C551 C550 1.386 . S
C551 C555 1.393 . S
C552 H541 0.950 . S
C552 C550 1.391 . S
C552 C553 1.400 . S
C553 C547 1.491 . S
C553 C552 1.400 . S
C553 C554 1.398 . S
C554 H542 0.950 . S
C554 C553 1.398 . S
C554 C555 1.391 . S
C555 H543 0.950 . S
C555 C551 1.393 . S
C555 C554 1.391 . S
H556 C564 0.950 . S
H557 C569 0.950 . S
H558 C566 0.950 . S
H559 C568 0.950 . S
H560 C570 0.950 . S
H561 C572 0.950 . S
H562 C574 0.950 . S
H563 C575 0.950 . S
C564 H556 0.950 . S
C564 C565 1.386 . S
C564 C566 1.391 . S
C565 C564 1.386 . S
C565 C569 1.393 . S
C566 H558 0.950 . S
C566 C564 1.391 . S
C566 C567 1.400 . S
C567 C566 1.400 . S
C567 C568 1.398 . S
C567 C573 1.491 . S
C568 H559 0.950 . S
C568 C567 1.398 . S
C568 C569 1.391 . S
C569 H557 0.950 . S
C569 C565 1.393 . S
C569 C568 1.391 . S
C570 H560 0.950 . S
C570 C571 1.386 1_565 S
C570 C572 1.391 . S
C571 C570 1.386 1_545 S
C571 C575 1.393 1_545 S
C572 H561 0.950 . S
C572 C570 1.391 . S
C572 C573 1.400 . S
C573 C567 1.491 . S
C573 C572 1.400 . S
C573 C574 1.398 . S
C574 H562 0.950 . S
C574 C573 1.398 . S
C574 C575 1.391 . S
C575 H563 0.950 . S
C575 C571 1.393 1_565 S
C575 C574 1.391 . S
H576 C584 0.950 . S
H577 C589 0.950 . S
H578 C586 0.950 . S
H579 C588 0.950 . S
H580 C590 0.950 . S
H581 C592 0.950 . S
H582 C594 0.950 . S
H583 C595 0.950 . S
C584 H576 0.950 . S
C584 C585 1.386 . S
C584 C586 1.391 . S
C585 C584 1.386 . S
C585 C589 1.393 . S
C586 H578 0.950 . S
C586 C584 1.391 . S
C586 C587 1.400 . S
C587 C586 1.400 . S
C587 C588 1.398 . S
C587 C593 1.491 . S
C588 H579 0.950 . S
C588 C587 1.398 . S
C588 C589 1.391 . S
C589 H577 0.950 . S
C589 C585 1.393 . S
C589 C588 1.391 . S
C590 H580 0.950 . S
C590 C591 1.386 . S
C590 C592 1.391 . S
C591 C590 1.386 . S
C591 C595 1.393 . S
C592 H581 0.950 . S
C592 C590 1.391 . S
C592 C593 1.400 . S
C593 C587 1.491 . S
C593 C592 1.400 . S
C593 C594 1.398 . S
C594 H582 0.950 . S
C594 C593 1.398 . S
C594 C595 1.391 . S
C595 H583 0.950 . S
C595 C591 1.393 . S
C595 C594 1.391 . S
H596 C604 0.950 . S
H597 C609 0.950 . S
H598 C606 0.950 . S
H599 C608 0.950 . S
H600 C610 0.950 . S
H601 C612 0.950 . S
H602 C614 0.950 . S
H603 C615 0.950 . S
C604 H596 0.950 . S
C604 C605 1.386 . S
C604 C606 1.391 . S
C605 C604 1.386 . S
C605 C609 1.393 . S
C606 H598 0.950 . S
C606 C604 1.391 . S
C606 C607 1.400 . S
C607 C606 1.400 . S
C607 C608 1.398 . S
C607 C613 1.491 . S
C608 H599 0.950 . S
C608 C607 1.398 . S
C608 C609 1.391 . S
C609 H597 0.950 . S
C609 C605 1.393 . S
C609 C608 1.391 . S
C610 H600 0.950 . S
C610 C611 1.386 . S
C610 C612 1.391 . S
C611 C610 1.386 . S
C611 C615 1.393 . S
C612 H601 0.950 . S
C612 C610 1.391 . S
C612 C613 1.400 . S
C613 C607 1.491 . S
C613 C612 1.400 . S
C613 C614 1.398 . S
C614 H602 0.950 . S
C614 C613 1.398 . S
C614 C615 1.391 . S
C615 H603 0.950 . S
C615 C611 1.393 . S
C615 C614 1.391 . S
H616 C624 0.950 . S
H617 C629 0.950 . S
H618 C626 0.950 . S
H619 C628 0.950 . S
H620 C630 0.950 . S
H621 C632 0.950 . S
H622 C634 0.950 . S
H623 C635 0.950 . S
C624 H616 0.950 . S
C624 C625 1.386 . S
C624 C626 1.391 . S
C625 C624 1.386 . S
C625 C629 1.393 . S
C626 H618 0.950 . S
C626 C624 1.391 . S
C626 C627 1.400 . S
C627 C626 1.400 . S
C627 C628 1.398 . S
C627 C633 1.491 . S
C628 H619 0.950 . S
C628 C627 1.398 . S
C628 C629 1.391 . S
C629 H617 0.950 . S
C629 C625 1.393 . S
C629 C628 1.391 . S
C630 H620 0.950 . S
C630 C631 1.386 . S
C630 C632 1.391 . S
C631 C630 1.386 . S
C631 C635 1.393 . S
C632 H621 0.950 . S
C632 C630 1.391 . S
C632 C633 1.400 . S
C633 C627 1.491 . S
C633 C632 1.400 . S
C633 C634 1.398 . S
C634 H622 0.950 . S
C634 C633 1.398 . S
C634 C635 1.391 . S
C635 H623 0.950 . S
C635 C631 1.393 . S
C635 C634 1.391 . S
H636 C644 0.950 . S
H637 C649 0.950 . S
H638 C646 0.950 . S
H639 C648 0.950 . S
H640 C650 0.950 . S
H641 C652 0.950 . S
H642 C654 0.950 . S
H643 C655 0.950 . S
C644 H636 0.950 . S
C644 C645 1.386 . S
C644 C646 1.391 . S
C645 C644 1.386 . S
C645 C649 1.393 . S
C646 H638 0.950 . S
C646 C644 1.391 . S
C646 C647 1.400 . S
C647 C646 1.400 . S
C647 C648 1.398 . S
C647 C653 1.491 . S
C648 H639 0.950 . S
C648 C647 1.398 . S
C648 C649 1.391 . S
C649 H637 0.950 . S
C649 C645 1.393 . S
C649 C648 1.391 . S
C650 H640 0.950 . S
C650 C651 1.386 . S
C650 C652 1.391 . S
C651 C650 1.386 . S
C651 C655 1.393 . S
C652 H641 0.950 . S
C652 C650 1.391 . S
C652 C653 1.400 . S
C653 C647 1.491 . S
C653 C652 1.400 . S
C653 C654 1.398 . S
C654 H642 0.950 . S
C654 C653 1.398 . S
C654 C655 1.391 . S
C655 H643 0.950 . S
C655 C651 1.393 . S
C655 C654 1.391 . S
H656 C664 0.950 . S
H657 C669 0.950 . S
H658 C666 0.950 . S
H659 C668 0.950 . S
H660 C670 0.950 . S
H661 C672 0.950 . S
H662 C674 0.950 . S
H663 C675 0.950 . S
C664 H656 0.950 . S
C664 C665 1.386 . S
C664 C666 1.391 . S
C665 C664 1.386 . S
C665 C669 1.393 . S
C666 H658 0.950 . S
C666 C664 1.391 . S
C666 C667 1.400 . S
C667 C666 1.400 . S
C667 C668 1.398 . S
C667 C673 1.491 . S
C668 H659 0.950 . S
C668 C667 1.398 . S
C668 C669 1.391 . S
C669 H657 0.950 . S
C669 C665 1.393 . S
C669 C668 1.391 . S
C670 H660 0.950 . S
C670 C671 1.386 1_545 S
C670 C672 1.391 . S
C671 C670 1.386 1_565 S
C671 C675 1.393 1_565 S
C672 H661 0.950 . S
C672 C670 1.391 . S
C672 C673 1.400 . S
C673 C667 1.491 . S
C673 C672 1.400 . S
C673 C674 1.398 . S
C674 H662 0.950 . S
C674 C673 1.398 . S
C674 C675 1.391 . S
C675 H663 0.950 . S
C675 C671 1.393 1_545 S
C675 C674 1.391 . S
H676 C684 0.950 . S
H677 C689 0.950 . S
H678 C686 0.950 . S
H679 C688 0.950 . S
H680 C690 0.950 . S
H681 C692 0.950 . S
H682 C694 0.950 . S
H683 C695 0.950 . S
C684 H676 0.950 . S
C684 C685 1.386 1_545 S
C684 C686 1.391 . S
C685 C684 1.386 1_565 S
C685 C689 1.393 1_565 S
C686 H678 0.950 . S
C686 C684 1.391 . S
C686 C687 1.400 . S
C687 C686 1.400 . S
C687 C688 1.398 . S
C687 C693 1.491 . S
C688 H679 0.950 . S
C688 C687 1.398 . S
C688 C689 1.391 . S
C689 H677 0.950 . S
C689 C685 1.393 1_545 S
C689 C688 1.391 . S
C690 H680 0.950 . S
C690 C691 1.386 . S
C690 C692 1.391 . S
C691 C690 1.386 . S
C691 C695 1.393 . S
C692 H681 0.950 . S
C692 C690 1.391 . S
C692 C693 1.400 . S
C693 C687 1.491 . S
C693 C692 1.400 . S
C693 C694 1.398 . S
C694 H682 0.950 . S
C694 C693 1.398 . S
C694 C695 1.391 . S
C695 H683 0.950 . S
C695 C691 1.393 . S
C695 C694 1.391 . S
H696 C704 0.950 . S
H697 C709 0.950 . S
H698 C706 0.950 . S
H699 C708 0.950 . S
H700 C710 0.950 . S
H701 C712 0.950 . S
H702 C714 0.950 . S
H703 C715 0.950 . S
C704 H696 0.950 . S
C704 C705 1.386 . S
C704 C706 1.391 . S
C705 C704 1.386 . S
C705 C709 1.393 . S
C706 H698 0.950 . S
C706 C704 1.391 . S
C706 C707 1.400 . S
C707 C706 1.400 . S
C707 C708 1.398 . S
C707 C713 1.491 . S
C708 H699 0.950 . S
C708 C707 1.398 . S
C708 C709 1.391 . S
C709 H697 0.950 . S
C709 C705 1.393 . S
C709 C708 1.391 . S
C710 H700 0.950 . S
C710 C711 1.386 1_565 S
C710 C712 1.391 . S
C711 C710 1.386 1_545 S
C711 C715 1.393 1_545 S
C712 H701 0.950 . S
C712 C710 1.391 . S
C712 C713 1.400 . S
C713 C707 1.491 . S
C713 C712 1.400 . S
C713 C714 1.398 . S
C714 H702 0.950 . S
C714 C713 1.398 . S
C714 C715 1.391 . S
C715 H703 0.950 . S
C715 C711 1.393 1_565 S
C715 C714 1.391 . S
H716 C724 0.950 . S
H717 C729 0.950 . S
H718 C726 0.950 . S
H719 C728 0.950 . S
H720 C730 0.950 . S
H721 C732 0.950 . S
H722 C734 0.950 . S
H723 C735 0.950 . S
C724 H716 0.950 . S
C724 C725 1.386 . S
C724 C726 1.391 . S
C725 C724 1.386 . S
C725 C729 1.393 . S
C726 H718 0.950 . S
C726 C724 1.391 . S
C726 C727 1.400 . S
C727 C726 1.400 . S
C727 C728 1.398 . S
C727 C733 1.491 . S
C728 H719 0.950 . S
C728 C727 1.398 . S
C728 C729 1.391 . S
C729 H717 0.950 . S
C729 C725 1.393 . S
C729 C728 1.391 . S
C730 H720 0.950 . S
C730 C731 1.386 1_565 S
C730 C732 1.391 . S
C731 C730 1.386 1_545 S
C731 C735 1.393 1_545 S
C732 H721 0.950 . S
C732 C730 1.391 . S
C732 C733 1.400 . S
C733 C727 1.491 . S
C733 C732 1.400 . S
C733 C734 1.398 . S
C734 H722 0.950 . S
C734 C733 1.398 . S
C734 C735 1.391 . S
C735 H723 0.950 . S
C735 C731 1.393 1_565 S
C735 C734 1.391 . S
H736 C744 0.950 . S
H737 C749 0.950 . S
H738 C746 0.950 1_554 S
H739 C748 0.950 . S
H740 C750 0.950 . S
H741 C752 0.950 1_556 S
H742 C754 0.950 . S
H743 C755 0.950 . S
C744 H736 0.950 . S
C744 C745 1.386 . S
C744 C746 1.391 . S
C745 C744 1.386 . S
C745 C749 1.393 . S
C746 H738 0.950 1_556 S
C746 C744 1.391 . S
C746 C747 1.400 . S
C747 C746 1.400 . S
C747 C748 1.398 1_655 S
C747 C753 1.491 1_656 S
C748 H739 0.950 . S
C748 C747 1.398 1_455 S
C748 C749 1.391 1_455 S
C749 H737 0.950 . S
C749 C745 1.393 . S
C749 C748 1.391 1_655 S
C750 H740 0.950 . S
C750 C751 1.386 . S
C750 C752 1.391 . S
C751 C750 1.386 . S
C751 C755 1.393 . S
C752 H741 0.950 1_554 S
C752 C750 1.391 . S
C752 C753 1.400 . S
C753 C747 1.491 1_454 S
C753 C752 1.400 . S
C753 C754 1.398 1_455 S
C754 H742 0.950 . S
C754 C753 1.398 1_655 S
C754 C755 1.391 1_655 S
C755 H743 0.950 . S
C755 C751 1.393 . S
C755 C754 1.391 1_455 S
H756 C764 0.950 . S
H757 C769 0.950 . S
H758 C766 0.950 . S
H759 C768 0.950 . S
H760 C770 0.950 . S
H761 C772 0.950 . S
H762 C774 0.950 . S
H763 C775 0.950 . S
C764 H756 0.950 . S
C764 C765 1.386 . S
C764 C766 1.391 . S
C765 C764 1.386 . S
C765 C769 1.393 . S
C766 H758 0.950 . S
C766 C764 1.391 . S
C766 C767 1.400 . S
C767 C766 1.400 . S
C767 C768 1.398 . S
C767 C773 1.491 1_556 S
C768 H759 0.950 . S
C768 C767 1.398 . S
C768 C769 1.391 . S
C769 H757 0.950 . S
C769 C765 1.393 . S
C769 C768 1.391 . S
C770 H760 0.950 . S
C770 C771 1.386 . S
C770 C772 1.391 . S
C771 C770 1.386 . S
C771 C775 1.393 . S
C772 H761 0.950 . S
C772 C770 1.391 . S
C772 C773 1.400 . S
C773 C767 1.491 1_554 S
C773 C772 1.400 . S
C773 C774 1.398 . S
C774 H762 0.950 . S
C774 C773 1.398 . S
C774 C775 1.391 . S
C775 H763 0.950 . S
C775 C771 1.393 . S
C775 C774 1.391 . S
H776 C784 0.950 . S
H777 C789 0.950 . S
H778 C786 1.020 . S
H779 C788 0.950 . S
H780 C790 0.950 . S
H781 C792 1.020 . S
H782 C794 0.950 . S
H783 C795 0.950 . S
C784 H776 0.950 . S
C784 C785 1.386 . S
C784 C786 1.351 1_455 S
C785 C784 1.386 . S
C785 C789 1.393 . S
C786 H778 1.020 . S
C786 C784 1.351 1_655 S
C786 C787 1.375 1_655 S
C787 C786 1.375 1_455 S
C787 C788 1.398 . S
C787 C793 1.491 1_455 S
C788 H779 0.950 . S
C788 C787 1.398 . S
C788 C789 1.391 . S
C789 H777 0.950 . S
C789 C785 1.393 . S
C789 C788 1.391 . S
C790 H780 0.950 . S
C790 C791 1.386 . S
C790 C792 1.351 1_655 S
C791 C790 1.386 . S
C791 C795 1.393 . S
C792 H781 1.020 . S
C792 C790 1.351 1_455 S
C792 C793 1.375 1_455 S
C793 C787 1.491 1_655 S
C793 C792 1.375 1_655 S
C793 C794 1.398 . S
C794 H782 0.950 . S
C794 C793 1.398 . S
C794 C795 1.391 . S
C795 H783 0.950 . S
C795 C791 1.393 . S
C795 C794 1.391 . S
H796 C804 0.950 . S
H797 C809 0.950 . S
H798 C806 0.950 . S
H799 C808 0.950 . S
H800 C810 0.950 . S
H801 C812 0.950 . S
H802 C814 0.950 . S
H803 C815 0.950 . S
C804 H796 0.950 . S
C804 C805 1.386 . S
C804 C806 1.391 . S
C805 C804 1.386 . S
C805 C809 1.393 . S
C806 H798 0.950 . S
C806 C804 1.391 . S
C806 C807 1.400 . S
C807 C806 1.400 . S
C807 C808 1.398 . S
C807 C813 1.491 . S
C808 H799 0.950 . S
C808 C807 1.398 . S
C808 C809 1.391 . S
C809 H797 0.950 . S
C809 C805 1.393 . S
C809 C808 1.391 . S
C810 H800 0.950 . S
C810 C811 1.386 . S
C810 C812 1.391 . S
C811 C810 1.386 . S
C811 C815 1.393 . S
C812 H801 0.950 . S
C812 C810 1.391 . S
C812 C813 1.400 . S
C813 C807 1.491 . S
C813 C812 1.400 . S
C813 C814 1.398 . S
C814 H802 0.950 . S
C814 C813 1.398 . S
C814 C815 1.391 . S
C815 H803 0.950 . S
C815 C811 1.393 . S
C815 C814 1.391 . S
H816 C824 0.950 . S
H817 C829 0.950 . S
H818 C826 0.950 1_554 S
H819 C828 0.950 . S
H820 C830 0.950 . S
H821 C832 0.950 1_556 S
H822 C834 0.950 . S
H823 C835 0.950 . S
C824 H816 0.950 . S
C824 C825 1.386 . S
C824 C826 1.391 . S
C825 C824 1.386 . S
C825 C829 1.393 . S
C826 H818 0.950 1_556 S
C826 C824 1.391 . S
C826 C827 1.400 . S
C827 C826 1.400 . S
C827 C828 1.398 . S
C827 C833 1.491 1_556 S
C828 H819 0.950 . S
C828 C827 1.398 . S
C828 C829 1.391 . S
C829 H817 0.950 . S
C829 C825 1.393 . S
C829 C828 1.391 . S
C830 H820 0.950 . S
C830 C831 1.386 . S
C830 C832 1.391 . S
C831 C830 1.386 . S
C831 C835 1.393 . S
C832 H821 0.950 1_554 S
C832 C830 1.391 . S
C832 C833 1.400 . S
C833 C827 1.491 1_554 S
C833 C832 1.400 . S
C833 C834 1.398 . S
C834 H822 0.950 . S
C834 C833 1.398 . S
C834 C835 1.391 . S
C835 H823 0.950 . S
C835 C831 1.393 . S
C835 C834 1.391 . S
H836 C844 0.950 . S
H837 C849 0.950 . S
H838 C846 0.950 1_455 S
H839 C848 0.950 . S
H840 C850 0.950 . S
H841 C852 0.950 1_655 S
H842 C854 0.950 . S
H843 C855 0.950 . S
C844 H836 0.950 . S
C844 C845 1.386 . S
C844 C846 1.391 . S
C845 C844 1.386 . S
C845 C849 1.393 . S
C846 H838 0.950 1_655 S
C846 C844 1.391 . S
C846 C847 1.400 . S
C847 C846 1.400 . S
C847 C848 1.398 . S
C847 C853 1.491 1_655 S
C848 H839 0.950 . S
C848 C847 1.398 . S
C848 C849 1.391 . S
C849 H837 0.950 . S
C849 C845 1.393 . S
C849 C848 1.391 . S
C850 H840 0.950 . S
C850 C851 1.386 . S
C850 C852 1.391 . S
C851 C850 1.386 . S
C851 C855 1.393 . S
C852 H841 0.950 1_455 S
C852 C850 1.391 . S
C852 C853 1.400 . S
C853 C847 1.491 1_455 S
C853 C852 1.400 . S
C853 C854 1.398 . S
C854 H842 0.950 . S
C854 C853 1.398 . S
C854 C855 1.391 . S
C855 H843 0.950 . S
C855 C851 1.393 . S
C855 C854 1.391 . S
H856 C864 0.950 . S
H857 C869 0.950 . S
H858 C866 0.950 . S
H859 C868 0.950 . S
H860 C870 0.950 . S
H861 C872 0.950 . S
H862 C874 0.950 . S
H863 C875 0.950 . S
C864 H856 0.950 . S
C864 C865 1.386 . S
C864 C866 1.391 . S
C865 C864 1.386 . S
C865 C869 1.393 . S
C866 H858 0.950 . S
C866 C864 1.391 . S
C866 C867 1.400 . S
C867 C866 1.400 . S
C867 C868 1.398 . S
C867 C873 1.491 . S
C868 H859 0.950 . S
C868 C867 1.398 . S
C868 C869 1.391 . S
C869 H857 0.950 . S
C869 C865 1.393 . S
C869 C868 1.391 . S
C870 H860 0.950 . S
C870 C871 1.386 . S
C870 C872 1.391 . S
C871 C870 1.386 . S
C871 C875 1.393 . S
C872 H861 0.950 . S
C872 C870 1.391 . S
C872 C873 1.400 . S
C873 C867 1.491 . S
C873 C872 1.400 . S
C873 C874 1.398 . S
C874 H862 0.950 . S
C874 C873 1.398 . S
C874 C875 1.391 . S
C875 H863 0.950 . S
C875 C871 1.393 . S
C875 C874 1.391 . S
H876 C884 0.950 . S
H877 C889 0.950 . S
H878 C886 0.950 . S
H879 C888 0.950 1_455 S
H880 C890 0.950 . S
H881 C892 0.950 . S
H882 C894 0.950 1_655 S
H883 C895 0.950 . S
C884 H876 0.950 . S
C884 C885 1.386 . S
C884 C886 1.391 1_545 S
C885 C884 1.386 . S
C885 C889 1.393 . S
C886 H878 0.950 . S
C886 C884 1.391 1_565 S
C886 C887 1.400 1_565 S
C887 C886 1.400 1_545 S
C887 C888 1.398 . S
C887 C893 1.491 1_645 S
C888 H879 0.950 1_655 S
C888 C887 1.398 . S
C888 C889 1.391 . S
C889 H877 0.950 . S
C889 C885 1.393 . S
C889 C888 1.391 . S
C890 H880 0.950 . S
C890 C891 1.386 . S
C890 C892 1.391 1_565 S
C891 C890 1.386 . S
C891 C895 1.393 . S
C892 H881 0.950 . S
C892 C890 1.391 1_545 S
C892 C893 1.400 1_545 S
C893 C887 1.491 1_465 S
C893 C892 1.400 1_565 S
C893 C894 1.398 . S
C894 H882 0.950 1_455 S
C894 C893 1.398 . S
C894 C895 1.391 . S
C895 H883 0.950 . S
C895 C891 1.393 . S
C895 C894 1.391 . S
H896 C904 0.950 . S
H897 C909 0.950 . S
H898 C906 0.950 . S
H899 C908 0.950 . S
H900 C910 0.950 . S
H901 C912 0.950 . S
H902 C914 0.950 . S
H903 C915 0.950 . S
C904 H896 0.950 . S
C904 C905 1.386 . S
C904 C906 1.391 . S
C905 C904 1.386 . S
C905 C909 1.393 . S
C906 H898 0.950 . S
C906 C904 1.391 . S
C906 C907 1.400 . S
C907 C906 1.400 . S
C907 C908 1.398 . S
C907 C913 1.491 . S
C908 H899 0.950 . S
C908 C907 1.398 . S
C908 C909 1.391 . S
C909 H897 0.950 . S
C909 C905 1.393 . S
C909 C908 1.391 . S
C910 H900 0.950 . S
C910 C911 1.386 . S
C910 C912 1.391 . S
C911 C910 1.386 . S
C911 C915 1.393 . S
C912 H901 0.950 . S
C912 C910 1.391 . S
C912 C913 1.400 . S
C913 C907 1.491 . S
C913 C912 1.400 . S
C913 C914 1.398 . S
C914 H902 0.950 . S
C914 C913 1.398 . S
C914 C915 1.391 . S
C915 H903 0.950 . S
C915 C911 1.393 . S
C915 C914 1.391 . S
H916 C924 0.950 . S
H917 C929 0.950 . S
H918 C926 0.950 . S
H919 C928 0.950 . S
H920 C930 0.950 . S
H921 C932 0.950 . S
H922 C934 0.950 . S
H923 C935 0.950 . S
C924 H916 0.950 . S
C924 C925 1.386 . S
C924 C926 1.391 . S
C925 C924 1.386 . S
C925 C929 1.393 . S
C926 H918 0.950 . S
C926 C924 1.391 . S
C926 C927 1.400 . S
C927 C926 1.400 . S
C927 C928 1.398 1_565 S
C927 C933 1.491 1_565 S
C928 H919 0.950 . S
C928 C927 1.398 1_545 S
C928 C929 1.391 1_545 S
C929 H917 0.950 . S
C929 C925 1.393 . S
C929 C928 1.391 1_565 S
C930 H920 0.950 . S
C930 C931 1.386 . S
C930 C932 1.391 . S
C931 C930 1.386 . S
C931 C935 1.393 . S
C932 H921 0.950 . S
C932 C930 1.391 . S
C932 C933 1.400 . S
C933 C927 1.491 1_545 S
C933 C932 1.400 . S
C933 C934 1.398 1_545 S
C934 H922 0.950 . S
C934 C933 1.398 1_565 S
C934 C935 1.391 1_565 S
C935 H923 0.950 . S
C935 C931 1.393 . S
C935 C934 1.391 1_545 S
H936 C944 0.950 . S
H937 C949 0.950 . S
H938 C946 0.950 . S
H939 C948 0.950 . S
H940 C950 0.950 . S
H941 C952 0.950 . S
H942 C954 0.950 . S
H943 C955 0.950 . S
C944 H936 0.950 . S
C944 C945 1.386 . S
C944 C946 1.391 . S
C945 C944 1.386 . S
C945 C949 1.393 . S
C946 H938 0.950 . S
C946 C944 1.391 . S
C946 C947 1.400 . S
C947 C946 1.400 . S
C947 C948 1.398 . S
C947 C953 1.491 . S
C948 H939 0.950 . S
C948 C947 1.398 . S
C948 C949 1.391 . S
C949 H937 0.950 . S
C949 C945 1.393 . S
C949 C948 1.391 . S
C950 H940 0.950 . S
C950 C951 1.386 . S
C950 C952 1.391 . S
C951 C950 1.386 . S
C951 C955 1.393 . S
C952 H941 0.950 . S
C952 C950 1.391 . S
C952 C953 1.400 . S
C953 C947 1.491 . S
C953 C952 1.400 . S
C953 C954 1.398 . S
C954 H942 0.950 . S
C954 C953 1.398 . S
C954 C955 1.391 . S
C955 H943 0.950 . S
C955 C951 1.393 . S
C955 C954 1.391 . S
H956 C964 0.950 . S
H957 C969 0.950 . S
H958 C966 0.950 . S
H959 C968 0.950 . S
H960 C970 0.950 . S
H961 C972 0.950 . S
H962 C974 0.950 . S
H963 C975 0.950 . S
C964 H956 0.950 . S
C964 C965 1.386 . S
C964 C966 1.391 . S
C965 C964 1.386 . S
C965 C969 1.393 . S
C966 H958 0.950 . S
C966 C964 1.391 . S
C966 C967 1.400 . S
C967 C966 1.400 . S
C967 C968 1.398 . S
C967 C973 1.491 1_565 S
C968 H959 0.950 . S
C968 C967 1.398 . S
C968 C969 1.391 . S
C969 H957 0.950 . S
C969 C965 1.393 . S
C969 C968 1.391 . S
C970 H960 0.950 . S
C970 C971 1.386 . S
C970 C972 1.391 . S
C971 C970 1.386 . S
C971 C975 1.393 . S
C972 H961 0.950 . S
C972 C970 1.391 . S
C972 C973 1.400 . S
C973 C967 1.491 1_545 S
C973 C972 1.400 . S
C973 C974 1.398 . S
C974 H962 0.950 . S
C974 C973 1.398 . S
C974 C975 1.391 . S
C975 H963 0.950 . S
C975 C971 1.393 . S
C975 C974 1.391 . S
H976 C984 0.950 . S
H977 C989 0.950 . S
H978 C986 0.950 . S
H979 C988 0.950 . S
H980 C990 0.950 . S
H981 C992 0.950 . S
H982 C994 0.950 . S
H983 C995 0.950 . S
C984 H976 0.950 . S
C984 C985 1.386 . S
C984 C986 1.391 . S
C985 C984 1.386 . S
C985 C989 1.393 . S
C986 H978 0.950 . S
C986 C984 1.391 . S
C986 C987 1.400 . S
C987 C986 1.400 . S
C987 C988 1.398 . S
C987 C993 1.491 . S
C988 H979 0.950 . S
C988 C987 1.398 . S
C988 C989 1.391 . S
C989 H977 0.950 . S
C989 C985 1.393 . S
C989 C988 1.391 . S
C990 H980 0.950 . S
C990 C991 1.386 . S
C990 C992 1.391 . S
C991 C990 1.386 . S
C991 C995 1.393 . S
C992 H981 0.950 . S
C992 C990 1.391 . S
C992 C993 1.400 . S
C993 C987 1.491 . S
C993 C992 1.400 . S
C993 C994 1.398 . S
C994 H982 0.950 . S
C994 C993 1.398 . S
C994 C995 1.391 . S
C995 H983 0.950 . S
C995 C991 1.393 . S
C995 C994 1.391 . S
H996 C1004 0.950 . S
H997 C1009 0.950 . S
H998 C1006 0.950 . S
H999 C1008 0.950 . S
H1000 C1010 0.950 . S
H1001 C1012 0.950 . S
H1002 C1014 0.950 . S
H1003 C1015 0.950 . S
C1004 H996 0.950 . S
C1004 C1005 1.386 . S
C1004 C1006 1.391 . S
C1005 C1004 1.386 . S
C1005 C1009 1.393 . S
C1006 H998 0.950 . S
C1006 C1004 1.391 . S
C1006 C1007 1.400 . S
C1007 C1006 1.400 . S
C1007 C1008 1.398 . S
C1007 C1013 1.491 . S
C1008 H999 0.950 . S
C1008 C1007 1.398 . S
C1008 C1009 1.391 . S
C1009 H997 0.950 . S
C1009 C1005 1.393 . S
C1009 C1008 1.391 . S
C1010 H1000 0.950 . S
C1010 C1011 1.386 . S
C1010 C1012 1.391 . S
C1011 C1010 1.386 . S
C1011 C1015 1.393 . S
C1012 H1001 0.950 . S
C1012 C1010 1.391 . S
C1012 C1013 1.400 . S
C1013 C1007 1.491 . S
C1013 C1012 1.400 . S
C1013 C1014 1.398 . S
C1014 H1002 0.950 . S
C1014 C1013 1.398 . S
C1014 C1015 1.391 . S
C1015 H1003 0.950 . S
C1015 C1011 1.393 . S
C1015 C1014 1.391 . S
H1016 C1024 0.950 . S
H1017 C1029 0.950 . S
H1018 C1026 0.950 . S
H1019 C1028 0.950 . S
H1020 C1030 0.950 . S
H1021 C1032 0.950 . S
H1022 C1034 0.950 . S
H1023 C1035 0.950 . S
C1024 H1016 0.950 . S
C1024 C1025 1.386 . S
C1024 C1026 1.391 . S
C1025 C1024 1.386 . S
C1025 C1029 1.393 . S
C1026 H1018 0.950 . S
C1026 C1024 1.391 . S
C1026 C1027 1.400 . S
C1027 C1026 1.400 . S
C1027 C1028 1.398 . S
C1027 C1033 1.491 . S
C1028 H1019 0.950 . S
C1028 C1027 1.398 . S
C1028 C1029 1.391 . S
C1029 H1017 0.950 . S
C1029 C1025 1.393 . S
C1029 C1028 1.391 . S
C1030 H1020 0.950 . S
C1030 C1031 1.386 . S
C1030 C1032 1.391 . S
C1031 C1030 1.386 . S
C1031 C1035 1.393 . S
C1032 H1021 0.950 . S
C1032 C1030 1.391 . S
C1032 C1033 1.400 . S
C1033 C1027 1.491 . S
C1033 C1032 1.400 . S
C1033 C1034 1.398 . S
C1034 H1022 0.950 . S
C1034 C1033 1.398 . S
C1034 C1035 1.391 . S
C1035 H1023 0.950 . S
C1035 C1031 1.393 . S
C1035 C1034 1.391 . S
H1036 C1044 0.950 . S
H1037 C1049 0.950 . S
H1038 C1046 0.954 1_554 S
H1039 C1048 0.945 1_565 S
H1040 C1050 0.950 . S
H1041 C1052 0.954 1_556 S
H1042 C1054 0.945 1_545 S
H1043 C1055 0.950 . S
C1044 H1036 0.950 . S
C1044 C1045 1.386 . S
C1044 C1046 1.388 . S
C1045 C1044 1.386 . S
C1045 C1049 1.393 . S
C1046 H1038 0.954 1_556 S
C1046 C1044 1.388 . S
C1046 C1047 1.399 . S
C1047 C1046 1.399 . S
C1047 C1048 1.400 . S
C1047 C1053 1.491 1_546 S
C1048 H1039 0.945 1_545 S
C1048 C1047 1.400 . S
C1048 C1049 1.394 . S
C1049 H1037 0.950 . S
C1049 C1045 1.393 . S
C1049 C1048 1.394 . S
C1050 H1040 0.950 . S
C1050 C1051 1.386 . S
C1050 C1052 1.388 . S
C1051 C1050 1.386 . S
C1051 C1055 1.393 . S
C1052 H1041 0.954 1_554 S
C1052 C1050 1.388 . S
C1052 C1053 1.399 . S
C1053 C1047 1.491 1_564 S
C1053 C1052 1.399 . S
C1053 C1054 1.400 . S
C1054 H1042 0.945 1_565 S
C1054 C1053 1.400 . S
C1054 C1055 1.394 . S
C1055 H1043 0.950 . S
C1055 C1051 1.393 . S
C1055 C1054 1.394 . S
H1056 C1064 0.950 . S
H1057 C1069 0.950 . S
H1058 C1066 0.950 . S
H1059 C1068 0.950 . S
H1060 C1070 0.950 . S
H1061 C1072 0.950 . S
H1062 C1074 0.950 . S
H1063 C1075 0.950 . S
C1064 H1056 0.950 . S
C1064 C1065 1.386 . S
C1064 C1066 1.391 . S
C1065 C1064 1.386 . S
C1065 C1069 1.393 . S
C1066 H1058 0.950 . S
C1066 C1064 1.391 . S
C1066 C1067 1.400 . S
C1067 C1066 1.400 . S
C1067 C1068 1.398 . S
C1067 C1073 1.491 . S
C1068 H1059 0.950 . S
C1068 C1067 1.398 . S
C1068 C1069 1.391 . S
C1069 H1057 0.950 . S
C1069 C1065 1.393 . S
C1069 C1068 1.391 . S
C1070 H1060 0.950 . S
C1070 C1071 1.386 . S
C1070 C1072 1.391 . S
C1071 C1070 1.386 . S
C1071 C1075 1.393 . S
C1072 H1061 0.950 . S
C1072 C1070 1.391 . S
C1072 C1073 1.400 . S
C1073 C1067 1.491 . S
C1073 C1072 1.400 . S
C1073 C1074 1.398 . S
C1074 H1062 0.950 . S
C1074 C1073 1.398 . S
C1074 C1075 1.391 . S
C1075 H1063 0.950 . S
C1075 C1071 1.393 . S
C1075 C1074 1.391 . S
H1076 C1084 0.950 . S
H1077 C1089 0.950 . S
H1078 C1086 0.950 . S
H1079 C1088 0.950 . S
H1080 C1090 0.950 . S
H1081 C1092 0.950 . S
H1082 C1094 0.950 . S
H1083 C1095 0.950 . S
C1084 H1076 0.950 . S
C1084 C1085 1.386 . S
C1084 C1086 1.391 . S
C1085 C1084 1.386 . S
C1085 C1089 1.393 . S
C1086 H1078 0.950 . S
C1086 C1084 1.391 . S
C1086 C1087 1.400 . S
C1087 C1086 1.400 . S
C1087 C1088 1.398 . S
C1087 C1093 1.491 . S
C1088 H1079 0.950 . S
C1088 C1087 1.398 . S
C1088 C1089 1.391 . S
C1089 H1077 0.950 . S
C1089 C1085 1.393 . S
C1089 C1088 1.391 . S
C1090 H1080 0.950 . S
C1090 C1091 1.386 . S
C1090 C1092 1.391 . S
C1091 C1090 1.386 . S
C1091 C1095 1.393 . S
C1092 H1081 0.950 . S
C1092 C1090 1.391 . S
C1092 C1093 1.400 . S
C1093 C1087 1.491 . S
C1093 C1092 1.400 . S
C1093 C1094 1.398 . S
C1094 H1082 0.950 . S
C1094 C1093 1.398 . S
C1094 C1095 1.391 . S
C1095 H1083 0.950 . S
C1095 C1091 1.393 . S
C1095 C1094 1.391 . S
H1096 C1104 0.950 . S
H1097 C1109 0.950 . S
H1098 C1106 0.950 . S
H1099 C1108 0.950 . S
H1100 C1110 0.950 . S
H1101 C1112 0.950 . S
H1102 C1114 0.950 . S
H1103 C1115 0.950 . S
C1104 H1096 0.950 . S
C1104 C1105 1.386 . S
C1104 C1106 1.391 . S
C1105 C1104 1.386 . S
C1105 C1109 1.393 . S
C1106 H1098 0.950 . S
C1106 C1104 1.391 . S
C1106 C1107 1.400 . S
C1107 C1106 1.400 . S
C1107 C1108 1.398 . S
C1107 C1113 1.491 . S
C1108 H1099 0.950 . S
C1108 C1107 1.398 . S
C1108 C1109 1.391 . S
C1109 H1097 0.950 . S
C1109 C1105 1.393 . S
C1109 C1108 1.391 . S
C1110 H1100 0.950 . S
C1110 C1111 1.386 . S
C1110 C1112 1.391 . S
C1111 C1110 1.386 . S
C1111 C1115 1.393 . S
C1112 H1101 0.950 . S
C1112 C1110 1.391 . S
C1112 C1113 1.400 . S
C1113 C1107 1.491 . S
C1113 C1112 1.400 . S
C1113 C1114 1.398 . S
C1114 H1102 0.950 . S
C1114 C1113 1.398 . S
C1114 C1115 1.391 . S
C1115 H1103 0.950 . S
C1115 C1111 1.393 . S
C1115 C1114 1.391 . S
H1116 C1124 0.950 . S
H1117 C1129 0.950 . S
H1118 C1126 0.950 . S
H1119 C1128 0.950 . S
H1120 C1130 0.950 . S
H1121 C1132 0.950 . S
H1122 C1134 0.950 . S
H1123 C1135 0.950 . S
C1124 H1116 0.950 . S
C1124 C1125 1.386 . S
C1124 C1126 1.391 . S
C1125 C1124 1.386 . S
C1125 C1129 1.393 . S
C1126 H1118 0.950 . S
C1126 C1124 1.391 . S
C1126 C1127 1.400 . S
C1127 C1126 1.400 . S
C1127 C1128 1.398 . S
C1127 C1133 1.491 . S
C1128 H1119 0.950 . S
C1128 C1127 1.398 . S
C1128 C1129 1.391 . S
C1129 H1117 0.950 . S
C1129 C1125 1.393 . S
C1129 C1128 1.391 . S
C1130 H1120 0.950 . S
C1130 C1131 1.386 . S
C1130 C1132 1.391 . S
C1131 C1130 1.386 . S
C1131 C1135 1.393 . S
C1132 H1121 0.950 . S
C1132 C1130 1.391 . S
C1132 C1133 1.400 . S
C1133 C1127 1.491 . S
C1133 C1132 1.400 . S
C1133 C1134 1.398 . S
C1134 H1122 0.950 . S
C1134 C1133 1.398 . S
C1134 C1135 1.391 . S
C1135 H1123 0.950 . S
C1135 C1131 1.393 . S
C1135 C1134 1.391 . S
H1136 C1144 0.950 . S
H1137 C1149 0.950 . S
H1138 C1146 0.950 . S
H1139 C1148 0.950 . S
H1140 C1150 0.950 . S
H1141 C1152 0.950 . S
H1142 C1154 0.950 . S
H1143 C1155 0.950 . S
C1144 H1136 0.950 . S
C1144 C1145 1.386 . S
C1144 C1146 1.391 . S
C1145 C1144 1.386 . S
C1145 C1149 1.393 . S
C1146 H1138 0.950 . S
C1146 C1144 1.391 . S
C1146 C1147 1.400 . S
C1147 C1146 1.400 . S
C1147 C1148 1.398 . S
C1147 C1153 1.491 . S
C1148 H1139 0.950 . S
C1148 C1147 1.398 . S
C1148 C1149 1.391 . S
C1149 H1137 0.950 . S
C1149 C1145 1.393 . S
C1149 C1148 1.391 . S
C1150 H1140 0.950 . S
C1150 C1151 1.386 . S
C1150 C1152 1.391 . S
C1151 C1150 1.386 . S
C1151 C1155 1.393 . S
C1152 H1141 0.950 . S
C1152 C1150 1.391 . S
C1152 C1153 1.400 . S
C1153 C1147 1.491 . S
C1153 C1152 1.400 . S
C1153 C1154 1.398 . S
C1154 H1142 0.950 . S
C1154 C1153 1.398 . S
C1154 C1155 1.391 . S
C1155 H1143 0.950 . S
C1155 C1151 1.393 . S
C1155 C1154 1.391 . S
H1156 C1164 0.950 . S
H1157 C1169 0.950 . S
H1158 C1166 0.950 . S
H1159 C1168 0.950 . S
H1160 C1170 0.950 . S
H1161 C1172 0.950 . S
H1162 C1174 0.950 . S
H1163 C1175 0.950 . S
C1164 H1156 0.950 . S
C1164 C1165 1.386 . S
C1164 C1166 1.391 . S
C1165 C1164 1.386 . S
C1165 C1169 1.393 . S
C1166 H1158 0.950 . S
C1166 C1164 1.391 . S
C1166 C1167 1.400 . S
C1167 C1166 1.400 . S
C1167 C1168 1.398 . S
C1167 C1173 1.491 . S
C1168 H1159 0.950 . S
C1168 C1167 1.398 . S
C1168 C1169 1.391 . S
C1169 H1157 0.950 . S
C1169 C1165 1.393 . S
C1169 C1168 1.391 . S
C1170 H1160 0.950 . S
C1170 C1171 1.386 . S
C1170 C1172 1.391 . S
C1171 C1170 1.386 . S
C1171 C1175 1.393 . S
C1172 H1161 0.950 . S
C1172 C1170 1.391 . S
C1172 C1173 1.400 . S
C1173 C1167 1.491 . S
C1173 C1172 1.400 . S
C1173 C1174 1.398 . S
C1174 H1162 0.950 . S
C1174 C1173 1.398 . S
C1174 C1175 1.391 . S
C1175 H1163 0.950 . S
C1175 C1171 1.393 . S
C1175 C1174 1.391 . S
H1176 C1184 0.950 . S
H1177 C1189 0.950 . S
H1178 C1186 0.950 . S
H1179 C1188 0.950 . S
H1180 C1190 0.950 . S
H1181 C1192 0.950 . S
H1182 C1194 0.950 . S
H1183 C1195 0.950 . S
C1184 H1176 0.950 . S
C1184 C1185 1.386 . S
C1184 C1186 1.391 . S
C1185 C1184 1.386 . S
C1185 C1189 1.393 . S
C1186 H1178 0.950 . S
C1186 C1184 1.391 . S
C1186 C1187 1.400 . S
C1187 C1186 1.400 . S
C1187 C1188 1.398 . S
C1187 C1193 1.491 . S
C1188 H1179 0.950 . S
C1188 C1187 1.398 . S
C1188 C1189 1.391 . S
C1189 H1177 0.950 . S
C1189 C1185 1.393 . S
C1189 C1188 1.391 . S
C1190 H1180 0.950 . S
C1190 C1191 1.386 . S
C1190 C1192 1.391 . S
C1191 C1190 1.386 . S
C1191 C1195 1.393 . S
C1192 H1181 0.950 . S
C1192 C1190 1.391 . S
C1192 C1193 1.400 . S
C1193 C1187 1.491 . S
C1193 C1192 1.400 . S
C1193 C1194 1.398 . S
C1194 H1182 0.950 . S
C1194 C1193 1.398 . S
C1194 C1195 1.391 . S
C1195 H1183 0.950 . S
C1195 C1191 1.393 . S
C1195 C1194 1.391 . S
H1196 C1204 0.950 . S
H1197 C1209 0.950 . S
H1198 C1206 0.950 . S
H1199 C1208 0.950 . S
H1200 C1210 0.950 . S
H1201 C1212 0.950 . S
H1202 C1214 0.950 . S
H1203 C1215 0.950 . S
C1204 H1196 0.950 . S
C1204 C1205 1.386 . S
C1204 C1206 1.391 . S
C1205 C1204 1.386 . S
C1205 C1209 1.393 . S
C1206 H1198 0.950 . S
C1206 C1204 1.391 . S
C1206 C1207 1.400 . S
C1207 C1206 1.400 . S
C1207 C1208 1.398 . S
C1207 C1213 1.491 . S
C1208 H1199 0.950 . S
C1208 C1207 1.398 . S
C1208 C1209 1.391 . S
C1209 H1197 0.950 . S
C1209 C1205 1.393 . S
C1209 C1208 1.391 . S
C1210 H1200 0.950 . S
C1210 C1211 1.386 . S
C1210 C1212 1.391 . S
C1211 C1210 1.386 . S
C1211 C1215 1.393 . S
C1212 H1201 0.950 . S
C1212 C1210 1.391 . S
C1212 C1213 1.400 . S
C1213 C1207 1.491 . S
C1213 C1212 1.400 . S
C1213 C1214 1.398 . S
C1214 H1202 0.950 . S
C1214 C1213 1.398 . S
C1214 C1215 1.391 . S
C1215 H1203 0.950 . S
C1215 C1211 1.393 . S
C1215 C1214 1.391 . S
H1216 C1224 0.950 . S
H1217 C1229 0.950 . S
H1218 C1226 0.950 . S
H1219 C1228 0.950 . S
H1220 C1230 0.950 . S
H1221 C1232 0.950 . S
H1222 C1234 0.950 . S
H1223 C1235 0.950 . S
C1224 H1216 0.950 . S
C1224 C1225 1.386 . S
C1224 C1226 1.391 . S
C1225 C1224 1.386 . S
C1225 C1229 1.393 . S
C1226 H1218 0.950 . S
C1226 C1224 1.391 . S
C1226 C1227 1.400 . S
C1227 C1226 1.400 . S
C1227 C1228 1.398 . S
C1227 C1233 1.491 . S
C1228 H1219 0.950 . S
C1228 C1227 1.398 . S
C1228 C1229 1.391 . S
C1229 H1217 0.950 . S
C1229 C1225 1.393 . S
C1229 C1228 1.391 . S
C1230 H1220 0.950 . S
C1230 C1231 1.386 . S
C1230 C1232 1.391 . S
C1231 C1230 1.386 . S
C1231 C1235 1.393 . S
C1232 H1221 0.950 . S
C1232 C1230 1.391 . S
C1232 C1233 1.400 . S
C1233 C1227 1.491 . S
C1233 C1232 1.400 . S
C1233 C1234 1.398 . S
C1234 H1222 0.950 . S
C1234 C1233 1.398 . S
C1234 C1235 1.391 . S
C1235 H1223 0.950 . S
C1235 C1231 1.393 . S
C1235 C1234 1.391 . S
H1236 C1244 0.950 . S
H1237 C1249 0.950 . S
H1238 C1246 0.950 . S
H1239 C1248 0.950 . S
H1240 C1250 0.950 . S
H1241 C1252 0.950 . S
H1242 C1254 0.950 . S
H1243 C1255 0.950 . S
C1244 H1236 0.950 . S
C1244 C1245 1.386 . S
C1244 C1246 1.391 . S
C1245 C1244 1.386 . S
C1245 C1249 1.393 . S
C1246 H1238 0.950 . S
C1246 C1244 1.391 . S
C1246 C1247 1.400 . S
C1247 C1246 1.400 . S
C1247 C1248 1.398 . S
C1247 C1253 1.491 . S
C1248 H1239 0.950 . S
C1248 C1247 1.398 . S
C1248 C1249 1.391 . S
C1249 H1237 0.950 . S
C1249 C1245 1.393 . S
C1249 C1248 1.391 . S
C1250 H1240 0.950 . S
C1250 C1251 1.386 . S
C1250 C1252 1.391 . S
C1251 C1250 1.386 . S
C1251 C1255 1.393 . S
C1252 H1241 0.950 . S
C1252 C1250 1.391 . S
C1252 C1253 1.400 . S
C1253 C1247 1.491 . S
C1253 C1252 1.400 . S
C1253 C1254 1.398 . S
C1254 H1242 0.950 . S
C1254 C1253 1.398 . S
C1254 C1255 1.391 . S
C1255 H1243 0.950 . S
C1255 C1251 1.393 . S
C1255 C1254 1.391 . S
H1256 C1264 0.950 . S
H1257 C1269 0.950 . S
H1258 C1266 0.950 . S
H1259 C1268 0.950 . S
H1260 C1270 0.950 . S
H1261 C1272 0.950 . S
H1262 C1274 0.950 . S
H1263 C1275 0.950 . S
C1264 H1256 0.950 . S
C1264 C1265 1.386 . S
C1264 C1266 1.391 . S
C1265 C1264 1.386 . S
C1265 C1269 1.393 . S
C1266 H1258 0.950 . S
C1266 C1264 1.391 . S
C1266 C1267 1.400 . S
C1267 C1266 1.400 . S
C1267 C1268 1.398 . S
C1267 C1273 1.491 . S
C1268 H1259 0.950 . S
C1268 C1267 1.398 . S
C1268 C1269 1.391 . S
C1269 H1257 0.950 . S
C1269 C1265 1.393 . S
C1269 C1268 1.391 . S
C1270 H1260 0.950 . S
C1270 C1271 1.386 . S
C1270 C1272 1.391 . S
C1271 C1270 1.386 . S
C1271 C1275 1.393 . S
C1272 H1261 0.950 . S
C1272 C1270 1.391 . S
C1272 C1273 1.400 . S
C1273 C1267 1.491 . S
C1273 C1272 1.400 . S
C1273 C1274 1.398 . S
C1274 H1262 0.950 . S
C1274 C1273 1.398 . S
C1274 C1275 1.391 . S
C1275 H1263 0.950 . S
C1275 C1271 1.393 . S
C1275 C1274 1.391 . S
H1276 C1284 0.950 . S
H1277 C1289 0.950 . S
H1278 C1286 0.950 . S
H1279 C1288 0.950 . S
H1280 C1290 0.950 . S
H1281 C1292 0.950 . S
H1282 C1294 0.950 . S
H1283 C1295 0.950 . S
C1284 H1276 0.950 . S
C1284 C1285 1.386 . S
C1284 C1286 1.391 . S
C1285 C1284 1.386 . S
C1285 C1289 1.393 . S
C1286 H1278 0.950 . S
C1286 C1284 1.391 . S
C1286 C1287 1.400 . S
C1287 C1286 1.400 . S
C1287 C1288 1.398 . S
C1287 C1293 1.491 . S
C1288 H1279 0.950 . S
C1288 C1287 1.398 . S
C1288 C1289 1.391 . S
C1289 H1277 0.950 . S
C1289 C1285 1.393 . S
C1289 C1288 1.391 . S
C1290 H1280 0.950 . S
C1290 C1291 1.386 . S
C1290 C1292 1.391 . S
C1291 C1290 1.386 . S
C1291 C1295 1.393 . S
C1292 H1281 0.950 . S
C1292 C1290 1.391 . S
C1292 C1293 1.400 . S
C1293 C1287 1.491 . S
C1293 C1292 1.400 . S
C1293 C1294 1.398 . S
C1294 H1282 0.950 . S
C1294 C1293 1.398 . S
C1294 C1295 1.391 . S
C1295 H1283 0.950 . S
C1295 C1291 1.393 . S
C1295 C1294 1.391 . S
H1296 C1304 0.950 . S
H1297 C1309 0.950 . S
H1298 C1306 0.950 . S
H1299 C1308 0.950 . S
H1300 C1310 0.950 . S
H1301 C1312 0.950 . S
H1302 C1314 0.950 . S
H1303 C1315 0.950 . S
C1304 H1296 0.950 . S
C1304 C1305 1.386 . S
C1304 C1306 1.391 . S
C1305 C1304 1.386 . S
C1305 C1309 1.393 . S
C1306 H1298 0.950 . S
C1306 C1304 1.391 . S
C1306 C1307 1.400 . S
C1307 C1306 1.400 . S
C1307 C1308 1.398 . S
C1307 C1313 1.491 . S
C1308 H1299 0.950 . S
C1308 C1307 1.398 . S
C1308 C1309 1.391 . S
C1309 H1297 0.950 . S
C1309 C1305 1.393 . S
C1309 C1308 1.391 . S
C1310 H1300 0.950 . S
C1310 C1311 1.386 . S
C1310 C1312 1.391 . S
C1311 C1310 1.386 . S
C1311 C1315 1.393 . S
C1312 H1301 0.950 . S
C1312 C1310 1.391 . S
C1312 C1313 1.400 . S
C1313 C1307 1.491 . S
C1313 C1312 1.400 . S
C1313 C1314 1.398 . S
C1314 H1302 0.950 . S
C1314 C1313 1.398 . S
C1314 C1315 1.391 . S
C1315 H1303 0.950 . S
C1315 C1311 1.393 . S
C1315 C1314 1.391 . S
H1316 C1324 0.950 . S
H1317 C1329 0.950 . S
H1318 C1326 0.950 . S
H1319 C1328 0.950 . S
H1320 C1330 0.950 . S
H1321 C1332 0.950 . S
H1322 C1334 0.950 . S
H1323 C1335 0.950 . S
C1324 H1316 0.950 . S
C1324 C1325 1.386 . S
C1324 C1326 1.391 . S
C1325 C1324 1.386 . S
C1325 C1329 1.393 . S
C1326 H1318 0.950 . S
C1326 C1324 1.391 . S
C1326 C1327 1.400 . S
C1327 C1326 1.400 . S
C1327 C1328 1.398 . S
C1327 C1333 1.491 . S
C1328 H1319 0.950 . S
C1328 C1327 1.398 . S
C1328 C1329 1.391 . S
C1329 H1317 0.950 . S
C1329 C1325 1.393 . S
C1329 C1328 1.391 . S
C1330 H1320 0.950 . S
C1330 C1331 1.386 . S
C1330 C1332 1.391 . S
C1331 C1330 1.386 . S
C1331 C1335 1.393 . S
C1332 H1321 0.950 . S
C1332 C1330 1.391 . S
C1332 C1333 1.400 . S
C1333 C1327 1.491 . S
C1333 C1332 1.400 . S
C1333 C1334 1.398 . S
C1334 H1322 0.950 . S
C1334 C1333 1.398 . S
C1334 C1335 1.391 . S
C1335 H1323 0.950 . S
C1335 C1331 1.393 . S
C1335 C1334 1.391 . S
H1336 C1344 0.950 . S
H1337 C1349 0.950 . S
H1338 C1346 0.950 . S
H1339 C1348 0.950 . S
H1340 C1350 0.950 . S
H1341 C1352 0.950 . S
H1342 C1354 0.950 . S
H1343 C1355 0.950 . S
C1344 H1336 0.950 . S
C1344 C1345 1.386 . S
C1344 C1346 1.391 . S
C1345 C1344 1.386 . S
C1345 C1349 1.393 . S
C1346 H1338 0.950 . S
C1346 C1344 1.391 . S
C1346 C1347 1.400 . S
C1347 C1346 1.400 . S
C1347 C1348 1.398 . S
C1347 C1353 1.491 . S
C1348 H1339 0.950 . S
C1348 C1347 1.398 . S
C1348 C1349 1.391 . S
C1349 H1337 0.950 . S
C1349 C1345 1.393 . S
C1349 C1348 1.391 . S
C1350 H1340 0.950 . S
C1350 C1351 1.386 . S
C1350 C1352 1.391 . S
C1351 C1350 1.386 . S
C1351 C1355 1.393 . S
C1352 H1341 0.950 . S
C1352 C1350 1.391 . S
C1352 C1353 1.400 . S
C1353 C1347 1.491 . S
C1353 C1352 1.400 . S
C1353 C1354 1.398 . S
C1354 H1342 0.950 . S
C1354 C1353 1.398 . S
C1354 C1355 1.391 . S
C1355 H1343 0.950 . S
C1355 C1351 1.393 . S
C1355 C1354 1.391 . S
H1356 C1364 0.950 . S
H1357 C1369 0.950 . S
H1358 C1366 0.950 . S
H1359 C1368 0.950 . S
H1360 C1370 0.950 . S
H1361 C1372 0.950 . S
H1362 C1374 0.950 . S
H1363 C1375 0.950 . S
C1364 H1356 0.950 . S
C1364 C1365 1.386 . S
C1364 C1366 1.391 . S
C1365 C1364 1.386 . S
C1365 C1369 1.393 . S
C1366 H1358 0.950 . S
C1366 C1364 1.391 . S
C1366 C1367 1.400 . S
C1367 C1366 1.400 . S
C1367 C1368 1.398 . S
C1367 C1373 1.491 . S
C1368 H1359 0.950 . S
C1368 C1367 1.398 . S
C1368 C1369 1.391 . S
C1369 H1357 0.950 . S
C1369 C1365 1.393 . S
C1369 C1368 1.391 . S
C1370 H1360 0.950 . S
C1370 C1371 1.386 . S
C1370 C1372 1.391 . S
C1371 C1370 1.386 . S
C1371 C1375 1.393 . S
C1372 H1361 0.950 . S
C1372 C1370 1.391 . S
C1372 C1373 1.400 . S
C1373 C1367 1.491 . S
C1373 C1372 1.400 . S
C1373 C1374 1.398 . S
C1374 H1362 0.950 . S
C1374 C1373 1.398 . S
C1374 C1375 1.391 . S
C1375 H1363 0.950 . S
C1375 C1371 1.393 . S
C1375 C1374 1.391 . S
H1376 C1384 0.943 1_565 S
H1377 C1389 0.950 . S
H1378 C1386 0.950 . S
H1379 C1388 0.950 . S
H1380 C1390 0.950 . S
H1381 C1392 0.950 . S
H1382 C1394 0.950 . S
H1383 C1395 0.950 . S
C1384 H1376 0.943 1_545 S
C1384 C1385 1.378 1_545 S
C1384 C1386 1.391 . S
C1385 C1384 1.378 1_565 S
C1385 C1389 1.381 1_565 S
C1386 H1378 0.950 . S
C1386 C1384 1.391 . S
C1386 C1387 1.400 . S
C1387 C1386 1.400 . S
C1387 C1388 1.398 . S
C1387 C1393 1.491 . S
C1388 H1379 0.950 . S
C1388 C1387 1.398 . S
C1388 C1389 1.391 . S
C1389 H1377 0.950 . S
C1389 C1385 1.381 1_545 S
C1389 C1388 1.391 . S
C1390 H1380 0.950 . S
C1390 C1391 1.386 . S
C1390 C1392 1.391 . S
C1391 C1390 1.386 . S
C1391 C1395 1.393 . S
C1392 H1381 0.950 . S
C1392 C1390 1.391 . S
C1392 C1393 1.400 . S
C1393 C1387 1.491 . S
C1393 C1392 1.400 . S
C1393 C1394 1.398 . S
C1394 H1382 0.950 . S
C1394 C1393 1.398 . S
C1394 C1395 1.391 . S
C1395 H1383 0.950 . S
C1395 C1391 1.393 . S
C1395 C1394 1.391 . S
H1396 C1404 0.950 . S
H1397 C1409 0.950 . S
H1398 C1406 0.950 . S
H1399 C1408 0.950 . S
H1400 C1410 0.950 . S
H1401 C1412 0.950 . S
H1402 C1414 0.950 . S
H1403 C1415 0.950 . S
C1404 H1396 0.950 . S
C1404 C1405 1.372 1_545 S
C1404 C1406 1.391 . S
C1405 C1404 1.372 1_565 S
C1405 C1409 1.382 1_565 S
C1406 H1398 0.950 . S
C1406 C1404 1.391 . S
C1406 C1407 1.400 . S
C1407 C1406 1.400 . S
C1407 C1408 1.398 . S
C1407 C1413 1.491 . S
C1408 H1399 0.950 . S
C1408 C1407 1.398 . S
C1408 C1409 1.391 . S
C1409 H1397 0.950 . S
C1409 C1405 1.382 1_545 S
C1409 C1408 1.391 . S
C1410 H1400 0.950 . S
C1410 C1411 1.386 . S
C1410 C1412 1.391 . S
C1411 C1410 1.386 . S
C1411 C1415 1.393 . S
C1412 H1401 0.950 . S
C1412 C1410 1.391 . S
C1412 C1413 1.400 . S
C1413 C1407 1.491 . S
C1413 C1412 1.400 . S
C1413 C1414 1.398 . S
C1414 H1402 0.950 . S
C1414 C1413 1.398 . S
C1414 C1415 1.391 . S
C1415 H1403 0.950 . S
C1415 C1411 1.393 . S
C1415 C1414 1.391 . S
H1416 C1424 0.950 . S
H1417 C1429 0.950 . S
H1418 C1426 0.950 . S
H1419 C1428 0.950 . S
H1420 C1430 0.950 . S
H1421 C1432 0.950 . S
H1422 C1434 0.950 . S
H1423 C1435 0.950 . S
C1424 H1416 0.950 . S
C1424 C1425 1.386 . S
C1424 C1426 1.391 . S
C1425 C1424 1.386 . S
C1425 C1429 1.393 . S
C1426 H1418 0.950 . S
C1426 C1424 1.391 . S
C1426 C1427 1.400 . S
C1427 C1426 1.400 . S
C1427 C1428 1.398 . S
C1427 C1433 1.491 . S
C1428 H1419 0.950 . S
C1428 C1427 1.398 . S
C1428 C1429 1.391 . S
C1429 H1417 0.950 . S
C1429 C1425 1.393 . S
C1429 C1428 1.391 . S
C1430 H1420 0.950 . S
C1430 C1431 1.372 1_565 S
C1430 C1432 1.391 . S
C1431 C1430 1.372 1_545 S
C1431 C1435 1.382 1_545 S
C1432 H1421 0.950 . S
C1432 C1430 1.391 . S
C1432 C1433 1.400 . S
C1433 C1427 1.491 . S
C1433 C1432 1.400 . S
C1433 C1434 1.398 . S
C1434 H1422 0.950 . S
C1434 C1433 1.398 . S
C1434 C1435 1.391 . S
C1435 H1423 0.950 . S
C1435 C1431 1.382 1_565 S
C1435 C1434 1.391 . S
H1436 C1444 0.950 1_545 S
H1437 C1449 0.950 . S
H1438 C1446 0.950 . S
H1439 C1448 0.950 . S
H1440 C1450 0.950 . S
H1441 C1452 0.950 . S
H1442 C1454 0.950 . S
H1443 C1455 0.950 . S
C1444 H1436 0.950 1_565 S
C1444 C1445 1.378 1_565 S
C1444 C1446 1.391 . S
C1445 C1444 1.378 1_545 S
C1445 C1449 1.382 1_545 S
C1446 H1438 0.950 . S
C1446 C1444 1.391 . S
C1446 C1447 1.400 . S
C1447 C1446 1.400 . S
C1447 C1448 1.398 . S
C1447 C1453 1.491 . S
C1448 H1439 0.950 . S
C1448 C1447 1.398 . S
C1448 C1449 1.391 . S
C1449 H1437 0.950 . S
C1449 C1445 1.382 1_565 S
C1449 C1448 1.391 . S
C1450 H1440 0.950 . S
C1450 C1451 1.386 . S
C1450 C1452 1.391 . S
C1451 C1450 1.386 . S
C1451 C1455 1.393 . S
C1452 H1441 0.950 . S
C1452 C1450 1.391 . S
C1452 C1453 1.400 . S
C1453 C1447 1.491 . S
C1453 C1452 1.400 . S
C1453 C1454 1.398 . S
C1454 H1442 0.950 . S
C1454 C1453 1.398 . S
C1454 C1455 1.391 . S
C1455 H1443 0.950 . S
C1455 C1451 1.393 . S
C1455 C1454 1.391 . S
H1456 C1464 0.950 . S
H1457 C1469 0.950 . S
H1458 C1466 0.950 . S
H1459 C1468 0.950 . S
H1460 C1470 0.950 . S
H1461 C1472 0.950 . S
H1462 C1474 0.950 . S
H1463 C1475 0.950 . S
C1464 H1456 0.950 . S
C1464 C1465 1.386 . S
C1464 C1466 1.391 . S
C1465 C1464 1.386 . S
C1465 C1469 1.393 . S
C1466 H1458 0.950 . S
C1466 C1464 1.391 . S
C1466 C1467 1.400 . S
C1467 C1466 1.400 . S
C1467 C1468 1.398 . S
C1467 C1473 1.491 . S
C1468 H1459 0.950 . S
C1468 C1467 1.398 . S
C1468 C1469 1.391 . S
C1469 H1457 0.950 . S
C1469 C1465 1.393 . S
C1469 C1468 1.391 . S
C1470 H1460 0.950 . S
C1470 C1471 1.386 . S
C1470 C1472 1.391 . S
C1471 C1470 1.386 . S
C1471 C1475 1.393 . S
C1472 H1461 0.950 . S
C1472 C1470 1.391 . S
C1472 C1473 1.400 . S
C1473 C1467 1.491 . S
C1473 C1472 1.400 . S
C1473 C1474 1.398 . S
C1474 H1462 0.950 . S
C1474 C1473 1.398 . S
C1474 C1475 1.391 . S
C1475 H1463 0.950 . S
C1475 C1471 1.393 . S
C1475 C1474 1.391 . S
H1476 C1484 0.950 . S
H1477 C1489 0.950 . S
H1478 C1486 0.950 . S
H1479 C1488 0.950 . S
H1480 C1490 0.950 . S
H1481 C1492 0.950 . S
H1482 C1494 0.950 . S
H1483 C1495 0.950 . S
C1484 H1476 0.950 . S
C1484 C1485 1.386 . S
C1484 C1486 1.391 . S
C1485 C1484 1.386 . S
C1485 C1489 1.393 . S
C1486 H1478 0.950 . S
C1486 C1484 1.391 . S
C1486 C1487 1.400 . S
C1487 C1486 1.400 . S
C1487 C1488 1.398 . S
C1487 C1493 1.491 . S
C1488 H1479 0.950 . S
C1488 C1487 1.398 . S
C1488 C1489 1.391 . S
C1489 H1477 0.950 . S
C1489 C1485 1.393 . S
C1489 C1488 1.391 . S
C1490 H1480 0.950 . S
C1490 C1491 1.386 . S
C1490 C1492 1.391 . S
C1491 C1490 1.386 . S
C1491 C1495 1.393 . S
C1492 H1481 0.950 . S
C1492 C1490 1.391 . S
C1492 C1493 1.400 . S
C1493 C1487 1.491 . S
C1493 C1492 1.400 . S
C1493 C1494 1.398 . S
C1494 H1482 0.950 . S
C1494 C1493 1.398 . S
C1494 C1495 1.391 . S
C1495 H1483 0.950 . S
C1495 C1491 1.393 . S
C1495 C1494 1.391 . S
H1496 C1504 0.950 . S
H1497 C1509 0.950 . S
H1498 C1506 0.950 . S
H1499 C1508 0.950 . S
H1500 C1510 0.950 . S
H1501 C1512 0.950 . S
H1502 C1514 0.950 . S
H1503 C1515 0.950 . S
C1504 H1496 0.950 . S
C1504 C1505 1.386 . S
C1504 C1506 1.391 . S
C1505 C1504 1.386 . S
C1505 C1509 1.393 . S
C1506 H1498 0.950 . S
C1506 C1504 1.391 . S
C1506 C1507 1.400 . S
C1507 C1506 1.400 . S
C1507 C1508 1.398 . S
C1507 C1513 1.491 . S
C1508 H1499 0.950 . S
C1508 C1507 1.398 . S
C1508 C1509 1.391 . S
C1509 H1497 0.950 . S
C1509 C1505 1.393 . S
C1509 C1508 1.391 . S
C1510 H1500 0.950 . S
C1510 C1511 1.386 . S
C1510 C1512 1.391 . S
C1511 C1510 1.386 . S
C1511 C1515 1.393 . S
C1512 H1501 0.950 . S
C1512 C1510 1.391 . S
C1512 C1513 1.400 . S
C1513 C1507 1.491 . S
C1513 C1512 1.400 . S
C1513 C1514 1.398 . S
C1514 H1502 0.950 . S
C1514 C1513 1.398 . S
C1514 C1515 1.391 . S
C1515 H1503 0.950 . S
C1515 C1511 1.393 . S
C1515 C1514 1.391 . S
H1516 C1524 0.950 . S
H1517 C1529 0.950 . S
H1518 C1526 0.950 . S
H1519 C1528 0.950 . S
H1520 C1530 0.950 . S
H1521 C1532 0.950 . S
H1522 C1534 0.950 . S
H1523 C1535 0.950 . S
C1524 H1516 0.950 . S
C1524 C1525 1.386 . S
C1524 C1526 1.391 . S
C1525 C1524 1.386 . S
C1525 C1529 1.393 . S
C1526 H1518 0.950 . S
C1526 C1524 1.391 . S
C1526 C1527 1.400 . S
C1527 C1526 1.400 . S
C1527 C1528 1.398 . S
C1527 C1533 1.491 . S
C1528 H1519 0.950 . S
C1528 C1527 1.398 . S
C1528 C1529 1.391 . S
C1529 H1517 0.950 . S
C1529 C1525 1.393 . S
C1529 C1528 1.391 . S
C1530 H1520 0.950 . S
C1530 C1531 1.386 . S
C1530 C1532 1.391 . S
C1531 C1530 1.386 . S
C1531 C1535 1.393 . S
C1532 H1521 0.950 . S
C1532 C1530 1.391 . S
C1532 C1533 1.400 . S
C1533 C1527 1.491 . S
C1533 C1532 1.400 . S
C1533 C1534 1.398 . S
C1534 H1522 0.950 . S
C1534 C1533 1.398 . S
C1534 C1535 1.391 . S
C1535 H1523 0.950 . S
C1535 C1531 1.393 . S
C1535 C1534 1.391 . S
H1536 C1544 0.950 . S
H1537 C1549 0.950 . S
H1538 C1546 0.950 . S
H1539 C1548 0.950 . S
H1540 C1550 0.950 . S
H1541 C1552 0.950 . S
H1542 C1554 0.950 . S
H1543 C1555 0.950 . S
C1544 H1536 0.950 . S
C1544 C1545 1.378 1_545 S
C1544 C1546 1.391 . S
C1545 C1544 1.378 1_565 S
C1545 C1549 1.385 1_565 S
C1546 H1538 0.950 . S
C1546 C1544 1.391 . S
C1546 C1547 1.400 . S
C1547 C1546 1.400 . S
C1547 C1548 1.398 . S
C1547 C1553 1.491 . S
C1548 H1539 0.950 . S
C1548 C1547 1.398 . S
C1548 C1549 1.391 . S
C1549 H1537 0.950 . S
C1549 C1545 1.385 1_545 S
C1549 C1548 1.391 . S
C1550 H1540 0.950 . S
C1550 C1551 1.386 . S
C1550 C1552 1.391 . S
C1551 C1550 1.386 . S
C1551 C1555 1.393 . S
C1552 H1541 0.950 . S
C1552 C1550 1.391 . S
C1552 C1553 1.400 . S
C1553 C1547 1.491 . S
C1553 C1552 1.400 . S
C1553 C1554 1.398 . S
C1554 H1542 0.950 . S
C1554 C1553 1.398 . S
C1554 C1555 1.391 . S
C1555 H1543 0.950 . S
C1555 C1551 1.393 . S
C1555 C1554 1.391 . S
H1556 C1564 0.950 . S
H1557 C1569 0.950 . S
H1558 C1566 0.950 . S
H1559 C1568 0.950 . S
H1560 C1570 0.950 . S
H1561 C1572 0.950 . S
H1562 C1574 0.950 . S
H1563 C1575 0.950 . S
C1564 H1556 0.950 . S
C1564 C1565 1.386 . S
C1564 C1566 1.391 . S
C1565 C1564 1.386 . S
C1565 C1569 1.393 . S
C1566 H1558 0.950 . S
C1566 C1564 1.391 . S
C1566 C1567 1.400 . S
C1567 C1566 1.400 . S
C1567 C1568 1.398 . S
C1567 C1573 1.491 . S
C1568 H1559 0.950 . S
C1568 C1567 1.398 . S
C1568 C1569 1.391 . S
C1569 H1557 0.950 . S
C1569 C1565 1.393 . S
C1569 C1568 1.391 . S
C1570 H1560 0.950 . S
C1570 C1571 1.374 1_545 S
C1570 C1572 1.391 . S
C1571 C1570 1.374 1_565 S
C1571 C1575 1.379 1_565 S
C1572 H1561 0.950 . S
C1572 C1570 1.391 . S
C1572 C1573 1.400 . S
C1573 C1567 1.491 . S
C1573 C1572 1.400 . S
C1573 C1574 1.398 . S
C1574 H1562 0.950 . S
C1574 C1573 1.398 . S
C1574 C1575 1.391 . S
C1575 H1563 0.950 . S
C1575 C1571 1.379 1_545 S
C1575 C1574 1.391 . S
H1576 C1584 0.950 . S
H1577 C1589 0.950 . S
H1578 C1586 0.950 . S
H1579 C1588 0.950 . S
H1580 C1590 0.950 . S
H1581 C1592 0.950 . S
H1582 C1594 0.950 . S
H1583 C1595 0.950 . S
C1584 H1576 0.950 . S
C1584 C1585 1.386 . S
C1584 C1586 1.391 . S
C1585 C1584 1.386 . S
C1585 C1589 1.393 . S
C1586 H1578 0.950 . S
C1586 C1584 1.391 . S
C1586 C1587 1.400 . S
C1587 C1586 1.400 . S
C1587 C1588 1.398 . S
C1587 C1593 1.491 . S
C1588 H1579 0.950 . S
C1588 C1587 1.398 . S
C1588 C1589 1.391 . S
C1589 H1577 0.950 . S
C1589 C1585 1.393 . S
C1589 C1588 1.391 . S
C1590 H1580 0.950 . S
C1590 C1591 1.376 1_565 S
C1590 C1592 1.391 . S
C1591 C1590 1.376 1_545 S
C1591 C1595 1.385 1_545 S
C1592 H1581 0.950 . S
C1592 C1590 1.391 . S
C1592 C1593 1.400 . S
C1593 C1587 1.491 . S
C1593 C1592 1.400 . S
C1593 C1594 1.398 . S
C1594 H1582 0.950 . S
C1594 C1593 1.398 . S
C1594 C1595 1.391 . S
C1595 H1583 0.950 . S
C1595 C1591 1.385 1_565 S
C1595 C1594 1.391 . S
H1596 C1604 0.950 . S
H1597 C1609 0.950 . S
H1598 C1606 0.950 . S
H1599 C1608 0.950 . S
H1600 C1610 0.950 . S
H1601 C1612 0.950 . S
H1602 C1614 0.950 . S
H1603 C1615 0.950 . S
C1604 H1596 0.950 . S
C1604 C1605 1.386 . S
C1604 C1606 1.391 . S
C1605 C1604 1.386 . S
C1605 C1609 1.393 . S
C1606 H1598 0.950 . S
C1606 C1604 1.391 . S
C1606 C1607 1.400 . S
C1607 C1606 1.400 . S
C1607 C1608 1.398 . S
C1607 C1613 1.491 . S
C1608 H1599 0.950 . S
C1608 C1607 1.398 . S
C1608 C1609 1.391 . S
C1609 H1597 0.950 . S
C1609 C1605 1.393 . S
C1609 C1608 1.391 . S
C1610 H1600 0.950 . S
C1610 C1611 1.378 1_565 S
C1610 C1612 1.391 . S
C1611 C1610 1.378 1_545 S
C1611 C1615 1.385 1_545 S
C1612 H1601 0.950 . S
C1612 C1610 1.391 . S
C1612 C1613 1.400 . S
C1613 C1607 1.491 . S
C1613 C1612 1.400 . S
C1613 C1614 1.398 . S
C1614 H1602 0.950 . S
C1614 C1613 1.398 . S
C1614 C1615 1.391 . S
C1615 H1603 0.950 . S
C1615 C1611 1.385 1_565 S
C1615 C1614 1.391 . S
H1616 C1624 0.950 . S
H1617 C1629 0.950 . S
H1618 C1626 0.950 . S
H1619 C1628 0.950 . S
H1620 C1630 0.950 . S
H1621 C1632 0.950 . S
H1622 C1634 0.950 . S
H1623 C1635 0.950 . S
C1624 H1616 0.950 . S
C1624 C1625 1.386 . S
C1624 C1626 1.391 . S
C1625 C1624 1.386 . S
C1625 C1629 1.393 . S
C1626 H1618 0.950 . S
C1626 C1624 1.391 . S
C1626 C1627 1.400 . S
C1627 C1626 1.400 . S
C1627 C1628 1.398 . S
C1627 C1633 1.491 . S
C1628 H1619 0.950 . S
C1628 C1627 1.398 . S
C1628 C1629 1.391 . S
C1629 H1617 0.950 . S
C1629 C1625 1.393 . S
C1629 C1628 1.391 . S
C1630 H1620 0.950 . S
C1630 C1631 1.386 . S
C1630 C1632 1.391 . S
C1631 C1630 1.386 . S
C1631 C1635 1.393 . S
C1632 H1621 0.950 . S
C1632 C1630 1.391 . S
C1632 C1633 1.400 . S
C1633 C1627 1.491 . S
C1633 C1632 1.400 . S
C1633 C1634 1.398 . S
C1634 H1622 0.950 . S
C1634 C1633 1.398 . S
C1634 C1635 1.391 . S
C1635 H1623 0.950 . S
C1635 C1631 1.393 . S
C1635 C1634 1.391 . S
H1636 C1644 0.950 . S
H1637 C1649 0.950 . S
H1638 C1646 0.950 . S
H1639 C1648 0.950 . S
H1640 C1650 0.950 . S
H1641 C1652 0.950 . S
H1642 C1654 0.950 . S
H1643 C1655 0.950 . S
C1644 H1636 0.950 . S
C1644 C1645 1.386 . S
C1644 C1646 1.391 . S
C1645 C1644 1.386 . S
C1645 C1649 1.393 . S
C1646 H1638 0.950 . S
C1646 C1644 1.391 . S
C1646 C1647 1.400 . S
C1647 C1646 1.400 . S
C1647 C1648 1.398 . S
C1647 C1653 1.491 . S
C1648 H1639 0.950 . S
C1648 C1647 1.398 . S
C1648 C1649 1.391 . S
C1649 H1637 0.950 . S
C1649 C1645 1.393 . S
C1649 C1648 1.391 . S
C1650 H1640 0.950 . S
C1650 C1651 1.386 . S
C1650 C1652 1.391 . S
C1651 C1650 1.386 . S
C1651 C1655 1.393 . S
C1652 H1641 0.950 . S
C1652 C1650 1.391 . S
C1652 C1653 1.400 . S
C1653 C1647 1.491 . S
C1653 C1652 1.400 . S
C1653 C1654 1.398 . S
C1654 H1642 0.950 . S
C1654 C1653 1.398 . S
C1654 C1655 1.391 . S
C1655 H1643 0.950 . S
C1655 C1651 1.393 . S
C1655 C1654 1.391 . S
H1656 C1664 0.950 . S
H1657 C1669 0.950 . S
H1658 C1666 0.950 . S
H1659 C1668 0.950 . S
H1660 C1670 0.950 . S
H1661 C1672 0.950 . S
H1662 C1674 0.950 . S
H1663 C1675 0.950 . S
C1664 H1656 0.950 . S
C1664 C1665 1.386 . S
C1664 C1666 1.391 . S
C1665 C1664 1.386 . S
C1665 C1669 1.393 . S
C1666 H1658 0.950 . S
C1666 C1664 1.391 . S
C1666 C1667 1.400 . S
C1667 C1666 1.400 . S
C1667 C1668 1.398 . S
C1667 C1673 1.491 . S
C1668 H1659 0.950 . S
C1668 C1667 1.398 . S
C1668 C1669 1.391 . S
C1669 H1657 0.950 . S
C1669 C1665 1.393 . S
C1669 C1668 1.391 . S
C1670 H1660 0.950 . S
C1670 C1671 1.386 . S
C1670 C1672 1.391 . S
C1671 C1670 1.386 . S
C1671 C1675 1.393 . S
C1672 H1661 0.950 . S
C1672 C1670 1.391 . S
C1672 C1673 1.400 . S
C1673 C1667 1.491 . S
C1673 C1672 1.400 . S
C1673 C1674 1.398 . S
C1674 H1662 0.950 . S
C1674 C1673 1.398 . S
C1674 C1675 1.391 . S
C1675 H1663 0.950 . S
C1675 C1671 1.393 . S
C1675 C1674 1.391 . S
H1676 C1684 0.950 . S
H1677 C1689 0.950 . S
H1678 C1686 0.950 . S
H1679 C1688 0.950 . S
H1680 C1690 0.950 . S
H1681 C1692 0.950 . S
H1682 C1694 0.950 . S
H1683 C1695 0.950 . S
C1684 H1676 0.950 . S
C1684 C1685 1.386 . S
C1684 C1686 1.391 . S
C1685 C1684 1.386 . S
C1685 C1689 1.393 . S
C1686 H1678 0.950 . S
C1686 C1684 1.391 . S
C1686 C1687 1.400 . S
C1687 C1686 1.400 . S
C1687 C1688 1.398 . S
C1687 C1693 1.491 . S
C1688 H1679 0.950 . S
C1688 C1687 1.398 . S
C1688 C1689 1.391 . S
C1689 H1677 0.950 . S
C1689 C1685 1.393 . S
C1689 C1688 1.391 . S
C1690 H1680 0.950 . S
C1690 C1691 1.386 . S
C1690 C1692 1.391 . S
C1691 C1690 1.386 . S
C1691 C1695 1.393 . S
C1692 H1681 0.950 . S
C1692 C1690 1.391 . S
C1692 C1693 1.400 . S
C1693 C1687 1.491 . S
C1693 C1692 1.400 . S
C1693 C1694 1.398 . S
C1694 H1682 0.950 . S
C1694 C1693 1.398 . S
C1694 C1695 1.391 . S
C1695 H1683 0.950 . S
C1695 C1691 1.393 . S
C1695 C1694 1.391 . S
C425 C30 0.707 . S
C431 C4 0.704 . S
C445 C23 0.722 . S
C451 C43 0.708 . S
C465 C82 0.727 . S
C471 C56 0.711 . S
C485 C95 0.743 . S
C491 C69 0.728 . S
C505 C108 0.748 . S
C511 C140 0.738 . S
C525 C153 0.746 . S
C531 C121 0.733 . S
C545 C160 0.746 . S
C551 C192 0.749 . S
C565 C173 0.720 . S
C571 C199 0.707 . S
C585 C238 0.749 . S
C591 C212 0.741 . S
C605 C225 0.747 . S
C611 C251 0.736 . S
C625 C264 0.749 . S
C631 C290 0.740 . S
C645 C303 0.734 . S
C651 C283 0.718 . S
C665 C348 0.703 . S
C671 C322 0.709 . S
C685 C361 0.703 . S
C691 C335 0.709 . S
C705 C400 0.703 . S
C711 C368 0.711 . S
C725 C381 0.747 . S
C731 C407 0.735 . S
C745 C62 1.569 . S
C751 C10 1.569 . S
C765 C387 1.584 . S
C771 C17 1.584 . S
C785 C36 1.568 . S
C791 C186 1.568 . S
C805 C49 1.579 . S
C811 C309 1.579 . S
C825 C75 1.573 . S
C831 C329 1.573 . S
C845 C88 1.580 . S
C851 C134 1.580 . S
C865 C257 1.585 . S
C871 C101 1.585 . S
C885 C166 1.575 . S
C891 C114 1.575 . S
C905 C277 1.577 . S
C911 C127 1.577 . S
C925 C147 1.577 . S
C931 C413 1.577 . S
C945 C179 1.576 . S
C951 C231 1.576 . S
C965 C355 1.586 . S
C971 C205 1.586 . S
C985 C270 1.569 . S
C991 C218 1.569 . S
C1005 C244 1.570 . S
C1011 C394 1.570 . S
C1025 C296 1.586 . S
C1031 C342 1.586 . S
C1045 C374 1.572 . S
C1051 C316 1.572 . S
C1065 C42 1.552 . S
C1071 C3 1.558 . S
C1085 C29 1.550 . S
C1091 C18 1.555 . S
C1105 C94 1.560 . S
C1111 C55 1.560 . S
C1125 C81 1.556 . S
C1131 C68 1.550 . S
C1145 C148 1.551 . S
C1151 C107 1.557 . S
C1165 C135 1.557 . S
C1171 C120 1.551 . S
C1185 C198 1.560 . S
C1191 C159 1.553 . S
C1205 C187 1.560 . S
C1211 C172 1.554 . S
C1225 C211 1.552 . S
C1231 C250 1.559 . S
C1245 C237 1.560 . S
C1251 C224 1.558 . S
C1265 C263 1.553 . S
C1271 C302 1.551 . S
C1285 C289 1.556 . S
C1291 C278 1.561 . S
C1305 C356 1.560 . S
C1311 C317 1.560 . S
C1325 C330 1.553 . S
C1331 C343 1.560 . S
C1345 C367 1.559 . S
C1351 C406 1.552 . S
C1365 C395 1.559 . S
C1371 C380 1.553 . S
C1385 C31 1.460 . S
C1391 C5 1.432 . S
C1405 C16 1.464 . S
C1411 C44 1.444 . S
C1425 C57 1.445 . S
C1431 C83 1.463 . S
C1445 C70 1.450 . S
C1451 C96 1.440 . S
C1465 C109 1.438 . S
C1471 C133 1.445 . S
C1485 C122 1.443 . S
C1491 C146 1.443 . S
C1505 C185 1.439 . S
C1511 C161 1.431 . S
C1525 C200 1.443 . S
C1531 C174 1.443 . S
C1545 C239 1.449 . S
C1551 C213 1.432 . S
C1565 C252 1.444 . S
C1571 C226 1.463 . S
C1585 C265 1.438 . S
C1591 C291 1.448 . S
C1605 C304 1.434 . S
C1611 C276 1.448 . S
C1625 C341 1.436 . S
C1631 C315 1.444 . S
C1645 C328 1.431 . S
C1651 C354 1.437 . S
C1665 C369 1.438 . S
C1671 C393 1.445 . S
C1685 C408 1.445 . S
C1691 C382 1.439 . S
