# Generated by pormake.
# Topology wla, (5)-cn, num edge types: 1
# Building blocks:
#     Node 0, Type 0, BuildingBlock: BEQFEK_clean_sbu_0, # of connection points: 5
#     Node 1, Type 0, BuildingBlock: BEQFEK_clean_sbu_0, # of connection points: 5
#     Node 2, Type 0, BuildingBlock: BEQFEK_clean_sbu_0, # of connection points: 5
#     Node 3, Type 0, BuildingBlock: BEQFEK_clean_sbu_0, # of connection points: 5
#     Node 4, Type 0, BuildingBlock: BEQFEK_clean_sbu_0, # of connection points: 5
#     Node 5, Type 0, BuildingBlock: BEQFEK_clean_sbu_0, # of connection points: 5
#     Node 6, Type 0, BuildingBlock: BEQFEK_clean_sbu_0, # of connection points: 5
#     Node 7, Type 0, BuildingBlock: BEQFEK_clean_sbu_0, # of connection points: 5
#     Node 8, Type 0, BuildingBlock: BEQFEK_clean_sbu_0, # of connection points: 5
#     Node 9, Type 0, BuildingBlock: BEQFEK_clean_sbu_0, # of connection points: 5
#     Node 10, Type 0, BuildingBlock: BEQFEK_clean_sbu_0, # of connection points: 5
#     Node 11, Type 0, BuildingBlock: BEQFEK_clean_sbu_0, # of connection points: 5
#     Node 12, Type 0, BuildingBlock: BEQFEK_clean_sbu_0, # of connection points: 5
#     Node 13, Type 0, BuildingBlock: BEQFEK_clean_sbu_0, # of connection points: 5
#     Node 14, Type 0, BuildingBlock: BEQFEK_clean_sbu_0, # of connection points: 5
#     Node 15, Type 0, BuildingBlock: BEQFEK_clean_sbu_0, # of connection points: 5
#     Node 16, Type 0, BuildingBlock: BEQFEK_clean_sbu_0, # of connection points: 5
#     Node 17, Type 0, BuildingBlock: BEQFEK_clean_sbu_0, # of connection points: 5
#     Edge 18, Type (0, 0), None
#     Edge 19, Type (0, 0), None
#     Edge 20, Type (0, 0), None
#     Edge 21, Type (0, 0), None
#     Edge 22, Type (0, 0), None
#     Edge 23, Type (0, 0), None
#     Edge 24, Type (0, 0), None
#     Edge 25, Type (0, 0), None
#     Edge 26, Type (0, 0), None
#     Edge 27, Type (0, 0), None
#     Edge 28, Type (0, 0), None
#     Edge 29, Type (0, 0), None
#     Edge 30, Type (0, 0), None
#     Edge 31, Type (0, 0), None
#     Edge 32, Type (0, 0), None
#     Edge 33, Type (0, 0), None
#     Edge 34, Type (0, 0), None
#     Edge 35, Type (0, 0), None
#     Edge 36, Type (0, 0), None
#     Edge 37, Type (0, 0), None
#     Edge 38, Type (0, 0), None
#     Edge 39, Type (0, 0), None
#     Edge 40, Type (0, 0), None
#     Edge 41, Type (0, 0), None
#     Edge 42, Type (0, 0), None
#     Edge 43, Type (0, 0), None
#     Edge 44, Type (0, 0), None
#     Edge 45, Type (0, 0), None
#     Edge 46, Type (0, 0), None
#     Edge 47, Type (0, 0), None
#     Edge 48, Type (0, 0), None
#     Edge 49, Type (0, 0), None
#     Edge 50, Type (0, 0), None
#     Edge 51, Type (0, 0), None
#     Edge 52, Type (0, 0), None
#     Edge 53, Type (0, 0), None
#     Edge 54, Type (0, 0), None
#     Edge 55, Type (0, 0), None
#     Edge 56, Type (0, 0), None
#     Edge 57, Type (0, 0), None
#     Edge 58, Type (0, 0), None
#     Edge 59, Type (0, 0), None
#     Edge 60, Type (0, 0), None
#     Edge 61, Type (0, 0), None
#     Edge 62, Type (0, 0), None
# Relax obj value: 0.255
# Max RMSD: 0.183
# Mean RMSD: 0.183
data_MOF--net-wla--node1-BEQFEK_clean_sbu_0--edge1-none
_symmetry_space_group_name_H-M    P1
_symmetry_Int_Tables_number       1
_symmetry_cell_setting            triclinic
loop_
_symmetry_equiv_pos_as_xyz
'x, y, z'
_cell_length_a     35.35043
_cell_length_b     35.350216
_cell_length_c     14.517468
_cell_angle_alpha  90.000442
_cell_angle_beta   89.998542
_cell_angle_gamma 119.99741
loop_
_atom_site_label
_atom_site_type_symbol
_atom_site_fract_x
_atom_site_fract_y
_atom_site_fract_z
_atom_type_partial_charge
Co0 Co 0.08965 0.98485 0.28955 0.0
Co1 Co 0.18473 0.06609 0.28468 0.0
C2 C 0.15199 -0.00095 0.44063 0.0
O3 O 0.11594 0.97594 0.39914 0.0
O4 O 0.18165 0.03555 0.40702 0.0
C5 C 0.00578 0.90008 0.30727 0.0
O6 O 0.025 0.8804 0.34536 0.0
C7 C 0.27892 0.11777 0.22486 0.0
C8 C 0.27946 0.17861 0.18726 0.0
C9 C 0.30369 0.15787 0.17981 0.0
N10 N 0.2409 0.11468 0.25213 0.0
N11 N 0.24226 0.1517 0.2311 0.0
C12 C 0.29113 0.08388 0.2461 0.0
H13 H 0.27049 0.06253 0.30297 0.0
H14 H 0.28576 0.06301 0.18507 0.0
H15 H 0.32603 0.09975 0.26612 0.0
C16 C 0.11082 0.97299 0.10288 0.0
N17 N 0.12314 0.99219 0.1857 0.0
N18 N 0.16216 0.0273 0.17996 0.0
C19 C 0.17538 0.03184 0.09123 0.0
C20 C 0.14368 -0.00257 0.04076 0.0
C21 C 0.06564 0.93677 0.08156 0.0
H22 H 0.04217 0.94852 0.09262 0.0
H23 H 0.05687 0.90918 0.12958 0.0
H24 H 0.06267 0.92523 0.00947 0.0
O25 O 0.08297 0.03645 0.30059 0.0
O26 O 0.149 0.09471 0.30132 0.0
H27 H 0.2155 0.10125 0.07741 0.0
H28 H 0.2131 0.07149 0.97509 0.0
C29 C 0.21414 0.07118 0.05139 0.0
H30 H 0.24414 0.07087 0.07095 0.0
H31 H 0.21675 0.15796 0.24181 0.0
O32 O 0.02796 0.93918 0.2791 0.0
C33 C 0.10784 0.07753 0.30391 0.0
Co34 Co 0.00258 0.10378 0.2896 0.0
Co35 Co 0.92131 0.11758 0.28485 0.0
C36 C 0.9884 0.15191 0.44073 0.0
O37 O 0.01153 0.139 0.3992 0.0
O38 O 0.95188 0.14503 0.40715 0.0
C39 C 0.08735 0.10466 0.3072 0.0
O40 O 0.10702 0.14354 0.34536 0.0
C41 C 0.86968 0.16011 0.22499 0.0
C42 C 0.80875 0.09983 0.18784 0.0
C43 C 0.82954 0.14479 0.18008 0.0
N44 N 0.87272 0.12519 0.25245 0.0
N45 N 0.83564 0.08953 0.2317 0.0
C46 C 0.90366 0.20622 0.24591 0.0
H47 H 0.92506 0.20696 0.30269 0.0
H48 H 0.92445 0.22161 0.18474 0.0
H49 H 0.88787 0.22533 0.26593 0.0
C50 C 0.01438 0.1368 0.10294 0.0
N51 N -0.0048 0.12993 0.18578 0.0
N52 N 0.96005 0.13377 0.18006 0.0
C53 C 0.95545 0.14238 0.09131 0.0
C54 C -0.01013 0.14513 0.04082 0.0
C55 C 0.05065 0.12792 0.08161 0.0
H56 H 0.03894 0.0927 0.09253 0.0
H57 H 0.07821 0.14672 0.1297 0.0
H58 H 0.06222 0.13656 0.00955 0.0
O59 O 0.95097 0.04549 0.30069 0.0
O60 O 0.89269 0.05323 0.30147 0.0
H61 H 0.88601 0.11298 0.07783 0.0
H62 H 0.91562 0.1401 0.97521 0.0
C63 C 0.91603 0.14164 0.05149 0.0
H64 H 0.91633 0.17199 0.07071 0.0
H65 H 0.82934 0.05777 0.24261 0.0
O66 O 0.04825 0.08776 0.27904 0.0
C67 C 0.90989 0.02926 0.30405 0.0
Co68 Co 0.88366 0.89776 0.28958 0.0
Co69 Co 0.86985 0.80269 0.28475 0.0
C70 C 0.83552 0.83544 0.44066 0.0
O71 O 0.84844 0.87148 0.39915 0.0
O72 O 0.8424 0.80579 0.40707 0.0
C73 C 0.88278 0.98164 0.30732 0.0
O74 O 0.84392 0.96243 0.34553 0.0
C75 C 0.82733 0.70851 0.22491 0.0
C76 C 0.88762 0.70791 0.18757 0.0
C77 C 0.84266 0.68372 0.17995 0.0
N78 N 0.86226 0.7465 0.25228 0.0
N79 N 0.89792 0.74511 0.2314 0.0
C80 C 0.78123 0.69636 0.24597 0.0
H81 H 0.7805 0.717 0.30279 0.0
H82 H 0.76579 0.70175 0.18486 0.0
H83 H 0.76215 0.66146 0.26598 0.0
C84 C 0.85066 0.87658 0.1029 0.0
N85 N 0.85752 0.86426 0.18573 0.0
N86 N 0.85365 0.82526 0.17999 0.0
C87 C 0.84502 0.81205 0.09125 0.0
C88 C 0.8423 0.84373 0.04077 0.0
C89 C 0.85958 0.92174 0.08158 0.0
H90 H 0.8948 0.94524 0.09256 0.0
H91 H 0.84077 0.93051 0.12964 0.0
H92 H 0.85096 0.9247 0.0095 0.0
O93 O 0.94194 0.90443 0.30068 0.0
O94 O 0.9342 0.83841 0.30139 0.0
H95 H 0.87437 0.77197 0.07762 0.0
H96 H 0.84715 0.77442 0.97513 0.0
C97 C 0.84569 0.77333 0.05143 0.0
H98 H 0.81536 0.7433 0.0708 0.0
H99 H 0.92968 0.77059 0.24222 0.0
O100 O 0.89969 0.95946 0.27908 0.0
C101 C 0.95816 0.87958 0.30401 0.0
Co102 Co 0.98128 0.09311 0.69167 0.0
Co103 Co 0.06255 0.18819 0.69617 0.0
C104 C -0.00467 0.15539 0.54058 0.0
O105 O 0.97224 0.11935 0.5821 0.0
O106 O 0.03188 0.18504 0.574 0.0
C107 C 0.89664 0.00923 0.67358 0.0
O108 O 0.87713 0.02844 0.63468 0.0
C109 C 0.11417 0.28237 0.75589 0.0
C110 C 0.17518 0.28309 0.79267 0.0
C111 C 0.15436 0.30722 0.80057 0.0
N112 N 0.11114 0.24441 0.7284 0.0
N113 N 0.14826 0.24587 0.74894 0.0
C114 C 0.08014 0.29445 0.7352 0.0
H115 H 0.0587 0.27379 0.67847 0.0
H116 H 0.05939 0.28902 0.79647 0.0
H117 H 0.09588 0.32935 0.71522 0.0
C118 C 0.96962 0.11439 0.87839 0.0
N119 N 0.98873 0.12667 0.79548 0.0
N120 N 0.02389 0.16566 0.80109 0.0
C121 C 0.02858 0.17889 0.88983 0.0
C122 C -0.00579 0.14723 0.94044 0.0
C123 C 0.93334 0.06926 0.89982 0.0
H124 H 0.94504 0.04574 0.88898 0.0
H125 H 0.90578 0.06049 0.85173 0.0
H126 H 0.92178 0.06637 0.97188 0.0
O127 O 0.0329 0.08644 0.68047 0.0
O128 O 0.09117 0.15246 0.67944 0.0
H129 H 0.09803 0.21895 0.90299 0.0
H130 H 0.06853 0.21644 0.0058 0.0
C131 C 0.06803 0.21758 0.92952 0.0
H132 H 0.0677 0.24763 0.91042 0.0
H133 H 0.15458 0.22043 0.73795 0.0
O134 O 0.93563 0.03142 0.70238 0.0
C135 C 0.07397 0.11129 0.67697 0.0
Co136 Co 0.89431 0.88709 0.69159 0.0
Co137 Co 0.79924 0.87331 0.69609 0.0
C138 C 0.83203 0.83887 0.54051 0.0
O139 O 0.86807 0.8518 0.58204 0.0
O140 O 0.8024 0.8458 0.57393 0.0
C141 C 0.9782 0.88634 0.67352 0.0
O142 O 0.95899 0.84764 0.63458 0.0
C143 C 0.70507 0.83075 0.75586 0.0
C144 C 0.70429 0.89102 0.79243 0.0
C145 C 0.6802 0.84607 0.80047 0.0
N146 N 0.74301 0.86567 0.72828 0.0
N147 N 0.74151 0.90132 0.74869 0.0
C148 C 0.69303 0.78463 0.73531 0.0
H149 H 0.7137 0.78384 0.67861 0.0
H150 H 0.69848 0.76937 0.79665 0.0
H151 H 0.65813 0.76543 0.71535 0.0
C152 C 0.87302 0.85417 0.87833 0.0
N153 N 0.86074 0.861 0.79541 0.0
N154 N 0.82176 0.8572 0.80103 0.0
C155 C 0.80855 0.8487 0.88978 0.0
C156 C 0.8402 0.84598 0.94039 0.0
C157 C 0.91814 0.86299 0.89975 0.0
H158 H 0.94168 0.89821 0.88896 0.0
H159 H 0.9269 0.84421 0.85162 0.0
H160 H 0.92101 0.85429 0.97179 0.0
O161 O 0.90097 0.94538 0.68036 0.0
O162 O 0.83496 0.93765 0.67935 0.0
H163 H 0.76852 0.87814 0.9028 0.0
H164 H 0.77107 0.85125 0.00574 0.0
C165 C 0.76989 0.84953 0.92947 0.0
H166 H 0.73982 0.81915 0.91053 0.0
H167 H 0.76694 0.93309 0.73761 0.0
O168 O 0.95601 0.90314 0.70233 0.0
C169 C 0.87613 0.96161 0.67687 0.0
Co170 Co 0.10035 0.00615 0.6916 0.0
Co171 Co 0.11411 0.92485 0.69601 0.0
C172 C 0.14857 0.99212 0.54048 0.0
O173 O 0.13565 0.01523 0.58204 0.0
O174 O 0.14163 0.95555 0.57387 0.0
C175 C 0.1011 0.0908 0.67366 0.0
O176 O 0.1398 0.11031 0.63472 0.0
C177 C 0.15671 0.87328 0.7558 0.0
C178 C 0.09644 0.81217 0.79212 0.0
C179 C 0.14138 0.83306 0.80033 0.0
N180 N 0.12178 0.87627 0.7281 0.0
N181 N 0.08613 0.83909 0.74837 0.0
C182 C 0.20282 0.9074 0.73541 0.0
H183 H 0.20363 0.9289 0.67877 0.0
H184 H 0.21803 0.92808 0.79682 0.0
H185 H 0.22206 0.89174 0.71544 0.0
C186 C 0.13328 0.01775 0.87833 0.0
N187 N 0.12645 -0.00135 0.7954 0.0
N188 N 0.13021 0.96345 0.801 0.0
C189 C 0.13868 0.95871 0.88975 0.0
C190 C 0.14143 -0.00691 0.94038 0.0
C191 C 0.1245 0.05408 0.89976 0.0
H192 H 0.08928 0.04242 0.88904 0.0
H193 H 0.14328 0.08161 0.85159 0.0
H194 H 0.13324 0.06567 0.97179 0.0
O195 O 0.04206 0.95452 0.68033 0.0
O196 O 0.04977 0.89623 0.67928 0.0
H197 H 0.10919 0.88923 0.90259 0.0
H198 H 0.13595 0.91859 0.00569 0.0
C199 C 0.13777 0.91917 0.92943 0.0
H200 H 0.16817 0.91949 0.91067 0.0
H201 H 0.05437 0.83272 0.73718 0.0
O202 O 0.0843 0.0518 0.70241 0.0
C203 C 0.02582 0.91345 0.67682 0.0
Co204 Co 0.7563 0.31812 0.62292 0.0
Co205 Co 0.8514 0.39932 0.61806 0.0
C206 C 0.81862 0.33228 0.774 0.0
O207 O 0.78257 0.30918 0.7325 0.0
O208 O 0.84828 0.36878 0.74039 0.0
C209 C 0.67239 0.23337 0.64056 0.0
O210 O 0.69157 0.21366 0.6786 0.0
C211 C 0.94559 0.45098 0.55823 0.0
C212 C 0.94617 0.51185 0.52077 0.0
C213 C 0.97038 0.49109 0.51325 0.0
N214 N 0.90758 0.4479 0.58553 0.0
N215 N 0.90897 0.48494 0.56458 0.0
C216 C 0.95777 0.41706 0.57937 0.0
H217 H 0.93713 0.39569 0.63621 0.0
H218 H 0.9524 0.39622 0.51829 0.0
H219 H -0.00732 0.4329 0.59938 0.0
C220 C 0.77745 0.30626 0.43624 0.0
N221 N 0.78979 0.32545 0.51906 0.0
N222 N 0.82881 0.36055 0.51332 0.0
C223 C 0.84202 0.3651 0.42459 0.0
C224 C 0.81031 0.33071 0.37411 0.0
C225 C 0.73227 0.27006 0.41491 0.0
H226 H 0.7088 0.28182 0.42598 0.0
H227 H 0.72348 0.24246 0.46292 0.0
H228 H 0.72929 0.25852 0.34282 0.0
O229 O 0.74965 0.36974 0.63398 0.0
O230 O 0.8157 0.42798 0.63471 0.0
H231 H 0.88216 0.43451 0.41084 0.0
H232 H 0.87972 0.40477 0.30846 0.0
C233 C 0.88078 0.40444 0.38476 0.0
H234 H 0.91078 0.40411 0.40426 0.0
H235 H 0.88347 0.49122 0.57534 0.0
O236 O 0.6946 0.27248 0.61245 0.0
C237 C 0.77454 0.41081 0.63731 0.0
Co238 Co 0.66933 0.43714 0.62292 0.0
Co239 Co 0.58812 0.45103 0.61808 0.0
C240 C 0.65517 0.4853 0.77401 0.0
O241 O 0.67827 0.47236 0.7325 0.0
O242 O 0.61867 0.47846 0.74041 0.0
C243 C 0.75407 0.43797 0.64059 0.0
O244 O 0.77377 0.47685 0.67871 0.0
C245 C 0.53647 0.49356 0.55826 0.0
C246 C 0.47559 0.43328 0.52083 0.0
C247 C 0.49635 0.47824 0.51328 0.0
N248 N 0.53954 0.45863 0.58558 0.0
N249 N 0.50249 0.42298 0.56465 0.0
C250 C 0.57039 0.53966 0.57938 0.0
H251 H 0.59176 0.54039 0.63622 0.0
H252 H 0.59123 0.55512 0.51829 0.0
H253 H 0.55456 0.55873 0.59939 0.0
C254 C 0.68118 0.47014 0.43624 0.0
N255 N 0.66199 0.46329 0.51907 0.0
N256 N 0.62689 0.46721 0.51334 0.0
C257 C 0.62233 0.47586 0.4246 0.0
C258 C 0.65672 0.47855 0.37412 0.0
C259 C 0.71738 0.46117 0.41491 0.0
H260 H 0.70563 0.42594 0.42596 0.0
H261 H 0.74498 0.47998 0.46293 0.0
H262 H 0.72893 0.46974 0.34282 0.0
O263 O 0.61771 0.37887 0.634 0.0
O264 O 0.55947 0.38668 0.63473 0.0
H265 H 0.55292 0.44658 0.41089 0.0
H266 H 0.58263 0.47386 0.30848 0.0
C267 C 0.58298 0.47526 0.38478 0.0
H268 H 0.58331 0.5056 0.40425 0.0
H269 H 0.49621 0.39121 0.57543 0.0
O270 O 0.71497 0.42108 0.61243 0.0
C271 C 0.57664 0.36268 0.63734 0.0
Co272 Co 0.55032 0.23116 0.6229 0.0
Co273 Co 0.53642 0.13605 0.61802 0.0
C274 C 0.50216 0.16883 0.77398 0.0
O275 O 0.51511 0.20488 0.73248 0.0
O276 O 0.50899 0.13916 0.74036 0.0
C277 C 0.54949 0.31506 0.64061 0.0
O278 O 0.51061 0.29588 0.67873 0.0
C279 C 0.49389 0.04186 0.5582 0.0
C280 C 0.55418 0.0413 0.52064 0.0
C281 C 0.50922 0.01708 0.51317 0.0
N282 N 0.52882 0.07987 0.58547 0.0
N283 N 0.56448 0.0785 0.56447 0.0
C284 C 0.44779 0.02967 0.5794 0.0
H285 H 0.44708 0.05031 0.63625 0.0
H286 H 0.43231 0.03504 0.51834 0.0
H287 H 0.42875 -0.00523 0.59941 0.0
C288 C 0.51732 0.21002 0.43622 0.0
N289 N 0.52417 0.19768 0.51904 0.0
N290 N 0.52023 0.15865 0.5133 0.0
C291 C 0.51156 0.14544 0.42456 0.0
C292 C 0.50889 0.17715 0.37409 0.0
C293 C 0.52631 0.25521 0.4149 0.0
H294 H 0.56153 0.27866 0.42598 0.0
H295 H 0.5075 0.264 0.4629 0.0
H296 H 0.51775 0.25819 0.3428 0.0
O297 O 0.60859 0.2378 0.63397 0.0
O298 O 0.60077 0.17175 0.63466 0.0
H299 H 0.54081 0.10528 0.41076 0.0
H300 H 0.51348 0.10771 0.30843 0.0
C301 C 0.51212 0.10667 0.38473 0.0
H302 H 0.48179 0.07667 0.40428 0.0
H303 H 0.59624 0.10399 0.57519 0.0
O304 O 0.56638 0.29286 0.61244 0.0
C305 C 0.62477 0.21291 0.63729 0.0
Co306 Co 0.64802 0.42651 0.02495 0.0
Co307 Co 0.72934 0.52155 0.02941 0.0
C308 C 0.66209 0.48878 0.87386 0.0
O309 O 0.63897 0.45275 0.9154 0.0
O310 O 0.69866 0.5184 0.90727 0.0
C311 C 0.56334 0.34265 0.00691 0.0
O312 O 0.54387 0.36189 0.96799 0.0
C313 C 0.7809 0.61571 0.08915 0.0
C314 C 0.842 0.61654 0.1256 0.0
C315 C 0.82111 0.64061 0.13369 0.0
N316 N 0.77792 0.57778 0.06154 0.0
N317 N 0.81509 0.57931 0.08188 0.0
C318 C 0.74679 0.62771 0.06869 0.0
H319 H 0.72532 0.60703 0.01201 0.0
H320 H 0.72609 0.62223 0.13006 0.0
H321 H 0.76246 0.66261 0.04874 0.0
C322 C 0.63641 0.44783 0.21168 0.0
N323 N 0.65551 0.46009 0.12876 0.0
N324 N 0.69071 0.49905 0.13437 0.0
C325 C 0.69545 0.51227 0.22312 0.0
C326 C 0.66107 0.48064 0.27374 0.0
C327 C 0.60008 0.40273 0.23311 0.0
H328 H 0.61173 0.37916 0.22237 0.0
H329 H 0.57254 0.39398 0.18496 0.0
H330 H 0.58849 0.39987 0.30514 0.0
O331 O 0.69963 0.41981 0.01372 0.0
O332 O 0.75794 0.48581 0.0127 0.0
H333 H 0.76492 0.55224 0.23603 0.0
H334 H 0.73554 0.54967 0.33907 0.0
C335 C 0.73498 0.55089 0.2628 0.0
H336 H 0.73468 0.58098 0.24397 0.0
H337 H 0.82145 0.5539 0.07076 0.0
O338 O 0.60234 0.36482 0.0357 0.0
C339 C 0.74071 0.44463 0.01023 0.0
Co340 Co 0.56093 0.22046 0.02492 0.0
Co341 Co 0.46589 0.20676 0.02937 0.0
C342 C 0.49867 0.17226 0.87383 0.0
O343 O 0.5347 0.18516 0.91537 0.0
O344 O 0.46906 0.17923 0.90723 0.0
C345 C 0.64479 0.21964 0.00693 0.0
O346 O 0.62557 0.18093 0.96803 0.0
C347 C 0.37173 0.16415 0.08912 0.0
C348 C 0.37086 0.2244 0.12542 0.0
C349 C 0.34681 0.17945 0.1336 0.0
N350 N 0.40965 0.19909 0.06147 0.0
N351 N 0.40809 0.23472 0.08172 0.0
C352 C 0.35976 0.11803 0.06877 0.0
H353 H 0.38045 0.11723 0.01212 0.0
H354 H 0.36526 0.10285 0.13019 0.0
H355 H 0.32487 0.09877 0.04883 0.0
C356 C 0.53959 0.18753 0.21166 0.0
N357 N 0.52734 0.19437 0.12873 0.0
N358 N 0.48839 0.19064 0.13434 0.0
C359 C 0.47517 0.18218 0.2231 0.0
C360 C 0.50679 0.1794 0.27372 0.0
C361 C 0.58469 0.19628 0.23308 0.0
H362 H 0.60827 0.2315 0.22236 0.0
H363 H 0.59343 0.17749 0.1849 0.0
H364 H 0.58754 0.18753 0.3051 0.0
O365 O 0.56762 0.27876 0.01367 0.0
O366 O 0.50163 0.2711 0.01268 0.0
H367 H 0.43523 0.21172 0.23591 0.0
H368 H 0.43782 0.18497 0.33904 0.0
C369 C 0.43658 0.18313 0.26278 0.0
H370 H 0.40647 0.15273 0.24405 0.0
H371 H 0.43349 0.26649 0.07055 0.0
O372 O 0.62262 0.23648 0.0357 0.0
C373 C 0.5428 0.29503 0.01019 0.0
Co374 Co 0.76698 0.33942 0.02495 0.0
Co375 Co 0.7807 0.25809 0.0294 0.0
C376 C 0.81518 0.32535 0.87385 0.0
O377 O 0.80227 0.34848 0.91539 0.0
O378 O 0.80822 0.28878 0.90725 0.0
C379 C 0.7678 0.42409 0.00694 0.0
O380 O 0.80649 0.44357 0.96799 0.0
C381 C 0.8233 0.20653 0.08917 0.0
C382 C 0.76304 0.14543 0.12558 0.0
C383 C 0.80799 0.16632 0.13373 0.0
N384 N 0.78836 0.20951 0.06151 0.0
N385 N 0.75272 0.17234 0.08182 0.0
C386 C 0.86941 0.24066 0.06874 0.0
H387 H 0.8702 0.26214 0.01208 0.0
H388 H 0.88462 0.26135 0.13013 0.0
H389 H 0.88865 0.225 0.04877 0.0
C390 C 0.79992 0.35103 0.21168 0.0
N391 N 0.79307 0.33192 0.12875 0.0
N392 N 0.79682 0.29671 0.13436 0.0
C393 C 0.8053 0.29197 0.22312 0.0
C394 C 0.80806 0.32636 0.27374 0.0
C395 C 0.79116 0.38736 0.2331 0.0
H396 H 0.75593 0.37571 0.22238 0.0
H397 H 0.80994 0.41489 0.18493 0.0
H398 H 0.79989 0.39895 0.30513 0.0
O399 O 0.70868 0.28781 0.01371 0.0
O400 O 0.71636 0.22949 0.0127 0.0
H401 H 0.77578 0.22249 0.23599 0.0
H402 H 0.80256 0.25186 0.33907 0.0
C403 C 0.80437 0.25243 0.2628 0.0
H404 H 0.83477 0.25273 0.24403 0.0
H405 H 0.72095 0.16597 0.07067 0.0
O406 O 0.75097 0.3851 0.03573 0.0
C407 C 0.69242 0.24673 0.01023 0.0
Co408 Co 0.42301 0.65153 0.95628 0.0
Co409 Co 0.51809 0.73277 0.95143 0.0
C410 C 0.48534 0.66572 0.10736 0.0
O411 O 0.4493 0.6426 0.06586 0.0
O412 O 0.51498 0.70223 0.07375 0.0
C413 C 0.33914 0.56675 0.97392 0.0
O414 O 0.35835 0.54706 0.01196 0.0
C415 C 0.61226 0.7844 0.89161 0.0
C416 C 0.61289 0.84531 0.85427 0.0
C417 C 0.63708 0.82452 0.84669 0.0
N418 N 0.57427 0.78135 0.91895 0.0
N419 N 0.57569 0.81841 0.89807 0.0
C420 C 0.6244 0.75044 0.91266 0.0
H421 H 0.60375 0.72906 0.96949 0.0
H422 H 0.619 0.72961 0.85155 0.0
H423 H 0.6593 0.76624 0.93266 0.0
C424 C 0.44419 0.6397 0.76959 0.0
N425 N 0.45651 0.65888 0.85243 0.0
N426 N 0.49552 0.69401 0.84668 0.0
C427 C 0.50872 0.69858 0.75794 0.0
C428 C 0.47704 0.66418 0.70746 0.0
C429 C 0.39903 0.60346 0.74828 0.0
H430 H 0.37553 0.61519 0.7593 0.0
H431 H 0.39027 0.57588 0.79631 0.0
H432 H 0.39607 0.59191 0.67619 0.0
O433 O 0.41634 0.70314 0.96734 0.0
O434 O 0.48236 0.76141 0.96805 0.0
H435 H 0.5488 0.76801 0.7443 0.0
H436 H 0.54635 0.73833 0.64182 0.0
C437 C 0.54744 0.73797 0.71811 0.0
H438 H 0.57747 0.73766 0.73749 0.0
H439 H 0.55021 0.82471 0.90887 0.0
O440 O 0.36132 0.60586 0.9458 0.0
C441 C 0.4412 0.74422 0.97066 0.0
Co442 Co 0.33593 0.77044 0.95623 0.0
Co443 Co 0.25468 0.78427 0.9514 0.0
C444 C 0.32174 0.81857 0.10732 0.0
O445 O 0.34486 0.80565 0.06581 0.0
O446 O 0.28522 0.81171 0.07372 0.0
C447 C 0.4207 0.77134 0.97391 0.0
O448 O 0.44036 0.81022 0.01206 0.0
C449 C 0.20305 0.82682 0.89158 0.0
C450 C 0.14215 0.76654 0.85421 0.0
C451 C 0.16293 0.81151 0.84662 0.0
N452 N 0.2061 0.79188 0.91894 0.0
N453 N 0.16904 0.75623 0.89804 0.0
C454 C 0.237 0.87291 0.91265 0.0
H455 H 0.25838 0.87363 0.96947 0.0
H456 H 0.25783 0.88835 0.85154 0.0
H457 H 0.22119 0.892 0.93267 0.0
C458 C 0.34776 0.80346 0.76955 0.0
N459 N 0.32857 0.79659 0.85238 0.0
N460 N 0.29344 0.80047 0.84665 0.0
C461 C 0.28887 0.80911 0.75791 0.0
C462 C 0.32328 0.81183 0.70743 0.0
C463 C 0.384 0.79453 0.74822 0.0
H464 H 0.37227 0.75931 0.75923 0.0
H465 H 0.41157 0.81334 0.79626 0.0
H466 H 0.39555 0.80313 0.67614 0.0
O467 O 0.28432 0.71216 0.96729 0.0
O468 O 0.22605 0.71991 0.96801 0.0
H469 H 0.21945 0.77977 0.74427 0.0
H470 H 0.24912 0.80699 0.64179 0.0
C471 C 0.24949 0.80844 0.71809 0.0
H472 H 0.24979 0.83878 0.73746 0.0
H473 H 0.16275 0.72446 0.90885 0.0
O474 O 0.3816 0.75442 0.94573 0.0
C475 C 0.24325 0.69594 0.97061 0.0
Co476 Co 0.21701 0.56444 0.95623 0.0
Co477 Co 0.2032 0.46937 0.95141 0.0
C478 C 0.16888 0.50213 0.10732 0.0
O479 O 0.18178 0.53816 0.0658 0.0
O480 O 0.17576 0.47249 0.07373 0.0
C481 C 0.21612 0.64832 0.97388 0.0
O482 O 0.17724 0.62911 0.01202 0.0
C483 C 0.16063 0.37519 0.89161 0.0
C484 C 0.22089 0.37451 0.8544 0.0
C485 C 0.17593 0.35035 0.84675 0.0
N486 N 0.19557 0.41317 0.91898 0.0
N487 N 0.23121 0.41173 0.89818 0.0
C488 C 0.11453 0.36308 0.91256 0.0
H489 H 0.1138 0.38374 0.96936 0.0
H490 H 0.09914 0.3685 0.8514 0.0
H491 H 0.09541 0.32818 0.93256 0.0
C492 C 0.18401 0.54325 0.76955 0.0
N493 N 0.19087 0.53093 0.85238 0.0
N494 N 0.18701 0.49193 0.84665 0.0
C495 C 0.1784 0.47873 0.75791 0.0
C496 C 0.17566 0.5104 0.70742 0.0
C497 C 0.19291 0.58841 0.74822 0.0
H498 H 0.22813 0.61191 0.7592 0.0
H499 H 0.1741 0.59717 0.79628 0.0
H500 H 0.1843 0.59135 0.67615 0.0
O501 O 0.27529 0.5711 0.96733 0.0
O502 O 0.26755 0.50508 0.96802 0.0
H503 H 0.20777 0.43866 0.74436 0.0
H504 H 0.18061 0.44114 0.6418 0.0
C505 C 0.1791 0.44002 0.71809 0.0
H506 H 0.14876 0.40999 0.73737 0.0
H507 H 0.26298 0.43719 0.90902 0.0
O508 O 0.23304 0.62613 0.94571 0.0
C509 C 0.29152 0.54625 0.97065 0.0
Co510 Co 0.31462 0.75981 0.35827 0.0
Co511 Co 0.3959 0.85487 0.36273 0.0
C512 C 0.32865 0.82207 0.20717 0.0
O513 O 0.30555 0.78603 0.24871 0.0
O514 O 0.36522 0.8517 0.24058 0.0
C515 C 0.22996 0.67592 0.34028 0.0
O516 O 0.21044 0.69512 0.30145 0.0
C517 C 0.44745 0.94904 0.42247 0.0
C518 C 0.50855 0.94988 0.45894 0.0
C519 C 0.48766 0.97395 0.467 0.0
N520 N 0.44446 0.91111 0.39488 0.0
N521 N 0.48163 0.91264 0.41524 0.0
C522 C 0.41335 0.96105 0.40199 0.0
H523 H 0.39188 0.94037 0.34531 0.0
H524 H 0.39265 0.95558 0.46336 0.0
H525 H 0.42902 -0.00405 0.38204 0.0
C526 C 0.30299 0.78111 0.545 0.0
N527 N 0.32209 0.79338 0.46207 0.0
N528 N 0.35727 0.83235 0.46768 0.0
C529 C 0.36199 0.84557 0.55643 0.0
C530 C 0.32762 0.81393 0.60705 0.0
C531 C 0.26669 0.73599 0.56643 0.0
H532 H 0.27837 0.71244 0.55563 0.0
H533 H 0.23914 0.72722 0.51831 0.0
H534 H 0.25512 0.73311 0.63848 0.0
O535 O 0.36624 0.75315 0.34703 0.0
O536 O 0.42453 0.81916 0.34602 0.0
H537 H 0.43146 0.88559 0.56938 0.0
H538 H 0.40205 0.88302 0.67238 0.0
C539 C 0.40149 0.88422 0.59611 0.0
H540 H 0.40117 0.91429 0.57722 0.0
H541 H 0.48799 0.88723 0.40415 0.0
O542 O 0.26897 0.69811 0.36901 0.0
C543 C 0.40732 0.77799 0.34355 0.0
Co544 Co 0.22766 0.55379 0.35825 0.0
Co545 Co 0.13259 0.53998 0.36277 0.0
C546 C 0.16539 0.50556 0.20717 0.0
O547 O 0.20143 0.5185 0.2487 0.0
O548 O 0.13575 0.51248 0.2406 0.0
C549 C 0.31155 0.55302 0.34025 0.0
O550 O 0.29235 0.5143 0.30143 0.0
C551 C 0.03841 0.49737 0.42251 0.0
C552 C 0.0376 0.55763 0.4591 0.0
C553 C 0.01351 0.51267 0.46709 0.0
N554 N 0.07635 0.53231 0.39497 0.0
N555 N 0.07483 0.56795 0.4154 0.0
C556 C 0.02639 0.45126 0.40195 0.0
H557 H 0.04707 0.45048 0.34524 0.0
H558 H 0.03185 0.436 0.46328 0.0
H559 H -0.00851 0.43205 0.38199 0.0
C560 C 0.20638 0.52085 0.54498 0.0
N561 N 0.1941 0.52768 0.46207 0.0
N562 N 0.15512 0.52387 0.46769 0.0
C563 C 0.1419 0.51535 0.55644 0.0
C564 C 0.17356 0.51265 0.60705 0.0
C565 C 0.25151 0.5297 0.5664 0.0
H566 H 0.27504 0.56492 0.55557 0.0
H567 H 0.26028 0.51091 0.5183 0.0
H568 H 0.2544 0.52102 0.63846 0.0
O569 O 0.23431 0.61207 0.34704 0.0
O570 O 0.16829 0.60433 0.34607 0.0
H571 H 0.10186 0.54478 0.56949 0.0
H572 H 0.10441 0.51788 0.67241 0.0
C573 C 0.10323 0.51617 0.59613 0.0
H574 H 0.07318 0.48578 0.57717 0.0
H575 H 0.10025 0.59972 0.40436 0.0
O576 O 0.28936 0.56984 0.36896 0.0
C577 C 0.20946 0.62829 0.34357 0.0
Co578 Co 0.43369 0.67284 0.35829 0.0
Co579 Co 0.44748 0.59156 0.36277 0.0
C580 C 0.48192 0.6588 0.2072 0.0
O581 O 0.46899 0.68191 0.24874 0.0
O582 O 0.47498 0.62224 0.24062 0.0
C583 C 0.43444 0.75748 0.34026 0.0
O584 O 0.47314 0.77699 0.30133 0.0
C585 C 0.49009 0.54 0.42251 0.0
C586 C 0.42983 0.47891 0.45901 0.0
C587 C 0.47478 0.49979 0.46707 0.0
N588 N 0.45515 0.54299 0.39493 0.0
N589 N 0.41951 0.50583 0.4153 0.0
C590 C 0.5362 0.5741 0.40202 0.0
H591 H 0.53699 0.59557 0.34534 0.0
H592 H 0.55143 0.59481 0.46338 0.0
H593 H 0.55542 0.55843 0.38206 0.0
C594 C 0.46661 0.68447 0.54503 0.0
N595 N 0.45978 0.66537 0.46211 0.0
N596 N 0.46358 0.63019 0.46772 0.0
C597 C 0.47207 0.62546 0.55647 0.0
C598 C 0.47479 0.65983 0.60709 0.0
C599 C 0.45779 0.72077 0.56646 0.0
H600 H 0.42256 0.70909 0.55567 0.0
H601 H 0.47657 0.74832 0.51833 0.0
H602 H 0.46649 0.73234 0.6385 0.0
O603 O 0.3754 0.62122 0.34703 0.0
O604 O 0.38314 0.56293 0.34605 0.0
H605 H 0.44263 0.556 0.56944 0.0
H606 H 0.46947 0.58541 0.67242 0.0
C607 C 0.47122 0.58596 0.59615 0.0
H608 H 0.50162 0.58629 0.57726 0.0
H609 H 0.38774 0.49947 0.4042 0.0
O610 O 0.41763 0.71849 0.36904 0.0
C611 C 0.35918 0.58014 0.34355 0.0
loop_
_geom_bond_atom_site_label_1
_geom_bond_atom_site_label_2
_geom_bond_distance
_geom_bond_site_symmetry_2
_ccdc_geom_bond_type
Co0 O3 1.970 . S
Co0 N17 1.989 . S
Co0 O25 1.967 1_565 S
Co0 O32 1.920 . S
Co1 O4 1.966 . S
Co1 N10 2.022 . S
Co1 N18 1.993 . S
Co1 O26 1.941 . S
C2 O3 1.258 . S
C2 O4 1.263 1_565 S
O3 Co0 1.970 . S
O3 C2 1.258 . S
O4 Co1 1.966 . S
O4 C2 1.263 1_545 S
C5 O6 1.235 . S
C5 O32 1.289 . S
O6 C5 1.235 . S
C7 C9 1.400 . S
C7 N10 1.351 . S
C7 C12 1.501 . S
C8 C9 1.387 . S
C8 N11 1.341 . S
C9 C7 1.400 . S
C9 C8 1.387 . S
N10 Co1 2.022 . S
N10 C7 1.351 . S
N10 N11 1.365 . S
N11 C8 1.341 . S
N11 N10 1.365 . S
N11 H31 0.862 . S
C12 C7 1.501 . S
C12 H13 0.961 . S
C12 H14 0.961 . S
C12 H15 0.960 . S
H13 C12 0.961 . S
H14 C12 0.961 . S
H15 C12 0.960 . S
C16 N17 1.342 . S
C16 C20 1.401 . S
C16 C21 1.499 . S
N17 Co0 1.989 . S
N17 C16 1.342 . S
N17 N18 1.388 1_565 S
N18 Co1 1.993 . S
N18 N17 1.388 1_545 S
N18 C19 1.350 . S
C19 N18 1.350 . S
C19 C20 1.391 1_545 S
C19 C29 1.511 . S
C20 C16 1.401 . S
C20 C19 1.391 1_565 S
C21 C16 1.499 . S
C21 H22 0.959 . S
C21 H23 0.960 . S
C21 H24 0.961 . S
H22 C21 0.959 . S
H23 C21 0.960 . S
H24 C21 0.961 . S
O25 Co0 1.967 1_545 S
O25 C33 1.258 . S
O26 Co1 1.941 . S
O26 C33 1.266 . S
H27 C29 0.959 . S
H28 C29 0.961 . S
C29 C19 1.511 . S
C29 H27 0.959 . S
C29 H28 0.961 . S
C29 H30 0.960 . S
H30 C29 0.960 . S
H31 N11 0.862 . S
O32 Co0 1.920 . S
O32 C5 1.289 . S
C33 O25 1.258 . S
C33 O26 1.266 . S
Co34 O37 1.970 . S
Co34 N51 1.989 . S
Co34 O59 1.967 1_455 S
Co34 O66 1.920 . S
Co35 O38 1.966 . S
Co35 N44 2.022 . S
Co35 N52 1.993 1_655 S
Co35 O60 1.941 . S
C36 O37 1.258 . S
C36 O38 1.263 1_455 S
O37 Co34 1.970 . S
O37 C36 1.258 . S
O38 Co35 1.966 . S
O38 C36 1.263 1_655 S
C39 O40 1.235 . S
C39 O66 1.289 . S
O40 C39 1.235 . S
C41 C43 1.400 . S
C41 N44 1.351 . S
C41 C46 1.501 . S
C42 C43 1.387 . S
C42 N45 1.341 . S
C43 C41 1.400 . S
C43 C42 1.387 . S
N44 Co35 2.022 . S
N44 C41 1.351 . S
N44 N45 1.365 . S
N45 C42 1.341 . S
N45 N44 1.365 . S
N45 H65 0.862 . S
C46 C41 1.501 . S
C46 H47 0.961 . S
C46 H48 0.961 . S
C46 H49 0.960 . S
H47 C46 0.961 . S
H48 C46 0.961 . S
H49 C46 0.960 . S
C50 N51 1.342 . S
C50 C54 1.401 . S
C50 C55 1.499 . S
N51 Co34 1.989 . S
N51 C50 1.342 . S
N51 N52 1.388 . S
N52 Co35 1.993 1_455 S
N52 N51 1.388 . S
N52 C53 1.346 . S
C53 N52 1.346 . S
C53 C54 1.396 . S
C53 C63 1.510 1_455 S
C54 C50 1.401 . S
C54 C53 1.396 . S
C55 C50 1.499 . S
C55 H56 0.959 . S
C55 H57 0.960 . S
C55 H58 0.961 . S
H56 C55 0.959 . S
H57 C55 0.960 . S
H58 C55 0.961 . S
O59 Co34 1.967 1_655 S
O59 C67 1.258 . S
O60 Co35 1.941 . S
O60 C67 1.266 . S
H61 C63 0.959 . S
H62 C63 0.961 . S
C63 C53 1.510 1_655 S
C63 H61 0.959 . S
C63 H62 0.961 . S
C63 H64 0.960 . S
H64 C63 0.960 . S
H65 N45 0.862 . S
O66 Co34 1.920 . S
O66 C39 1.289 . S
C67 O59 1.258 . S
C67 O60 1.266 . S
Co68 O71 1.970 . S
Co68 N85 1.989 . S
Co68 O93 1.967 . S
Co68 O100 1.920 . S
Co69 O72 1.966 . S
Co69 N78 2.022 . S
Co69 N86 1.993 . S
Co69 O94 1.941 . S
C70 O71 1.258 . S
C70 O72 1.263 . S
O71 Co68 1.970 . S
O71 C70 1.258 . S
O72 Co69 1.966 . S
O72 C70 1.263 . S
C73 O74 1.235 1_545 S
C73 O100 1.289 1_545 S
O74 C73 1.235 1_565 S
C75 C77 1.400 . S
C75 N78 1.351 . S
C75 C80 1.501 . S
C76 C77 1.387 . S
C76 N79 1.341 . S
C77 C75 1.400 . S
C77 C76 1.387 . S
N78 Co69 2.022 . S
N78 C75 1.351 . S
N78 N79 1.365 . S
N79 C76 1.341 . S
N79 N78 1.365 . S
N79 H99 0.862 . S
C80 C75 1.501 . S
C80 H81 0.961 . S
C80 H82 0.961 . S
C80 H83 0.960 . S
H81 C80 0.961 . S
H82 C80 0.961 . S
H83 C80 0.960 . S
C84 N85 1.342 . S
C84 C88 1.401 . S
C84 C89 1.499 . S
N85 Co68 1.989 . S
N85 C84 1.342 . S
N85 N86 1.388 . S
N86 Co69 1.993 . S
N86 N85 1.388 . S
N86 C87 1.346 . S
C87 N86 1.346 . S
C87 C88 1.396 . S
C87 C97 1.510 . S
C88 C84 1.401 . S
C88 C87 1.396 . S
C89 C84 1.499 . S
C89 H90 0.959 . S
C89 H91 0.960 . S
C89 H92 0.961 . S
H90 C89 0.959 . S
H91 C89 0.960 . S
H92 C89 0.961 . S
O93 Co68 1.967 . S
O93 C101 1.258 . S
O94 Co69 1.941 . S
O94 C101 1.266 . S
H95 C97 0.959 . S
H96 C97 0.961 . S
C97 C87 1.510 . S
C97 H95 0.959 . S
C97 H96 0.961 . S
C97 H98 0.960 . S
H98 C97 0.960 . S
H99 N79 0.862 . S
O100 Co68 1.920 . S
O100 C73 1.289 1_565 S
C101 O93 1.258 . S
C101 O94 1.266 . S
Co102 O105 1.970 . S
Co102 N119 1.989 . S
Co102 O127 1.967 1_655 S
Co102 O134 1.920 . S
Co103 O106 1.966 . S
Co103 N112 2.022 . S
Co103 N120 1.993 . S
Co103 O128 1.941 . S
C104 O105 1.258 . S
C104 O106 1.263 1_655 S
O105 Co102 1.970 . S
O105 C104 1.258 . S
O106 Co103 1.966 . S
O106 C104 1.263 1_455 S
C107 O108 1.235 . S
C107 O134 1.289 . S
O108 C107 1.235 . S
C109 C111 1.400 . S
C109 N112 1.351 . S
C109 C114 1.501 . S
C110 C111 1.387 . S
C110 N113 1.341 . S
C111 C109 1.400 . S
C111 C110 1.387 . S
N112 Co103 2.022 . S
N112 C109 1.351 . S
N112 N113 1.365 . S
N113 C110 1.341 . S
N113 N112 1.365 . S
N113 H133 0.862 . S
C114 C109 1.501 . S
C114 H115 0.961 . S
C114 H116 0.961 . S
C114 H117 0.960 . S
H115 C114 0.961 . S
H116 C114 0.961 . S
H117 C114 0.960 . S
C118 N119 1.342 . S
C118 C122 1.401 . S
C118 C123 1.499 . S
N119 Co102 1.989 . S
N119 C118 1.342 . S
N119 N120 1.388 1_655 S
N120 Co103 1.993 . S
N120 N119 1.388 1_455 S
N120 C121 1.350 . S
C121 N120 1.350 . S
C121 C122 1.391 1_455 S
C121 C131 1.511 . S
C122 C118 1.401 . S
C122 C121 1.391 1_655 S
C123 C118 1.499 . S
C123 H124 0.959 . S
C123 H125 0.960 . S
C123 H126 0.961 . S
H124 C123 0.959 . S
H125 C123 0.960 . S
H126 C123 0.961 . S
O127 Co102 1.967 1_455 S
O127 C135 1.258 . S
O128 Co103 1.941 . S
O128 C135 1.266 . S
H129 C131 0.959 . S
H130 C131 0.961 . S
C131 C121 1.511 . S
C131 H129 0.959 . S
C131 H130 0.961 . S
C131 H132 0.960 . S
H132 C131 0.960 . S
H133 N113 0.862 . S
O134 Co102 1.920 . S
O134 C107 1.289 . S
C135 O127 1.258 . S
C135 O128 1.266 . S
Co136 O139 1.970 . S
Co136 N153 1.989 . S
Co136 O161 1.967 . S
Co136 O168 1.920 . S
Co137 O140 1.966 . S
Co137 N146 2.022 . S
Co137 N154 1.993 . S
Co137 O162 1.941 . S
C138 O139 1.258 . S
C138 O140 1.263 . S
O139 Co136 1.970 . S
O139 C138 1.258 . S
O140 Co137 1.966 . S
O140 C138 1.263 . S
C141 O142 1.235 1_455 S
C141 O168 1.289 1_455 S
O142 C141 1.235 1_655 S
C143 C145 1.400 . S
C143 N146 1.351 . S
C143 C148 1.501 . S
C144 C145 1.387 . S
C144 N147 1.341 . S
C145 C143 1.400 . S
C145 C144 1.387 . S
N146 Co137 2.022 . S
N146 C143 1.351 . S
N146 N147 1.365 . S
N147 C144 1.341 . S
N147 N146 1.365 . S
N147 H167 0.862 . S
C148 C143 1.501 . S
C148 H149 0.961 . S
C148 H150 0.961 . S
C148 H151 0.960 . S
H149 C148 0.961 . S
H150 C148 0.961 . S
H151 C148 0.960 . S
C152 N153 1.342 . S
C152 C156 1.401 . S
C152 C157 1.499 . S
N153 Co136 1.989 . S
N153 C152 1.342 . S
N153 N154 1.388 . S
N154 Co137 1.993 . S
N154 N153 1.388 . S
N154 C155 1.346 . S
C155 N154 1.346 . S
C155 C156 1.396 . S
C155 C165 1.510 . S
C156 C152 1.401 . S
C156 C155 1.396 . S
C157 C152 1.499 . S
C157 H158 0.959 . S
C157 H159 0.960 . S
C157 H160 0.961 . S
H158 C157 0.959 . S
H159 C157 0.960 . S
H160 C157 0.961 . S
O161 Co136 1.967 . S
O161 C169 1.258 . S
O162 Co137 1.941 . S
O162 C169 1.266 . S
H163 C165 0.959 . S
H164 C165 0.961 . S
C165 C155 1.510 . S
C165 H163 0.959 . S
C165 H164 0.961 . S
C165 H166 0.960 . S
H166 C165 0.960 . S
H167 N147 0.862 . S
O168 Co136 1.920 . S
O168 C141 1.289 1_655 S
C169 O161 1.258 . S
C169 O162 1.266 . S
Co170 O173 1.970 . S
Co170 N187 1.989 . S
Co170 O195 1.967 1_545 S
Co170 O202 1.920 . S
Co171 O174 1.966 . S
Co171 N180 2.022 . S
Co171 N188 1.993 1_565 S
Co171 O196 1.941 . S
C172 O173 1.258 . S
C172 O174 1.263 1_545 S
O173 Co170 1.970 . S
O173 C172 1.258 . S
O174 Co171 1.966 . S
O174 C172 1.263 1_565 S
C175 O176 1.235 . S
C175 O202 1.289 . S
O176 C175 1.235 . S
C177 C179 1.400 . S
C177 N180 1.351 . S
C177 C182 1.501 . S
C178 C179 1.387 . S
C178 N181 1.341 . S
C179 C177 1.400 . S
C179 C178 1.387 . S
N180 Co171 2.022 . S
N180 C177 1.351 . S
N180 N181 1.365 . S
N181 C178 1.341 . S
N181 N180 1.365 . S
N181 H201 0.862 . S
C182 C177 1.501 . S
C182 H183 0.961 . S
C182 H184 0.961 . S
C182 H185 0.960 . S
H183 C182 0.961 . S
H184 C182 0.961 . S
H185 C182 0.960 . S
C186 N187 1.342 . S
C186 C190 1.401 . S
C186 C191 1.499 . S
N187 Co170 1.989 . S
N187 C186 1.342 . S
N187 N188 1.388 . S
N188 Co171 1.993 1_545 S
N188 N187 1.388 . S
N188 C189 1.346 . S
C189 N188 1.346 . S
C189 C190 1.396 . S
C189 C199 1.510 1_545 S
C190 C186 1.401 . S
C190 C189 1.396 . S
C191 C186 1.499 . S
C191 H192 0.959 . S
C191 H193 0.960 . S
C191 H194 0.961 . S
H192 C191 0.959 . S
H193 C191 0.960 . S
H194 C191 0.961 . S
O195 Co170 1.967 1_565 S
O195 C203 1.258 . S
O196 Co171 1.941 . S
O196 C203 1.266 . S
H197 C199 0.959 . S
H198 C199 0.961 . S
C199 C189 1.510 1_565 S
C199 H197 0.959 . S
C199 H198 0.961 . S
C199 H200 0.960 . S
H200 C199 0.960 . S
H201 N181 0.862 . S
O202 Co170 1.920 . S
O202 C175 1.289 . S
C203 O195 1.258 . S
C203 O196 1.266 . S
Co204 O207 1.970 . S
Co204 N221 1.989 . S
Co204 O229 1.967 . S
Co204 O236 1.920 . S
Co205 O208 1.966 . S
Co205 N214 2.022 . S
Co205 N222 1.993 . S
Co205 O230 1.941 . S
C206 O207 1.258 . S
C206 O208 1.263 . S
O207 Co204 1.970 . S
O207 C206 1.258 . S
O208 Co205 1.966 . S
O208 C206 1.263 . S
C209 O210 1.235 . S
C209 O236 1.289 . S
O210 C209 1.235 . S
C211 C213 1.400 . S
C211 N214 1.351 . S
C211 C216 1.501 . S
C212 C213 1.387 . S
C212 N215 1.341 . S
C213 C211 1.400 . S
C213 C212 1.387 . S
N214 Co205 2.022 . S
N214 C211 1.351 . S
N214 N215 1.365 . S
N215 C212 1.341 . S
N215 N214 1.365 . S
N215 H235 0.862 . S
C216 C211 1.501 . S
C216 H217 0.961 . S
C216 H218 0.961 . S
C216 H219 0.960 . S
H217 C216 0.961 . S
H218 C216 0.961 . S
H219 C216 0.960 . S
C220 N221 1.342 . S
C220 C224 1.401 . S
C220 C225 1.499 . S
N221 Co204 1.989 . S
N221 C220 1.342 . S
N221 N222 1.388 . S
N222 Co205 1.993 . S
N222 N221 1.388 . S
N222 C223 1.346 . S
C223 N222 1.346 . S
C223 C224 1.396 . S
C223 C233 1.510 . S
C224 C220 1.401 . S
C224 C223 1.396 . S
C225 C220 1.499 . S
C225 H226 0.959 . S
C225 H227 0.960 . S
C225 H228 0.961 . S
H226 C225 0.959 . S
H227 C225 0.960 . S
H228 C225 0.961 . S
O229 Co204 1.967 . S
O229 C237 1.258 . S
O230 Co205 1.941 . S
O230 C237 1.266 . S
H231 C233 0.959 . S
H232 C233 0.961 . S
C233 C223 1.510 . S
C233 H231 0.959 . S
C233 H232 0.961 . S
C233 H234 0.960 . S
H234 C233 0.960 . S
H235 N215 0.862 . S
O236 Co204 1.920 . S
O236 C209 1.289 . S
C237 O229 1.258 . S
C237 O230 1.266 . S
Co238 O241 1.970 . S
Co238 N255 1.989 . S
Co238 O263 1.967 . S
Co238 O270 1.920 . S
Co239 O242 1.966 . S
Co239 N248 2.022 . S
Co239 N256 1.993 . S
Co239 O264 1.941 . S
C240 O241 1.258 . S
C240 O242 1.263 . S
O241 Co238 1.970 . S
O241 C240 1.258 . S
O242 Co239 1.966 . S
O242 C240 1.263 . S
C243 O244 1.235 . S
C243 O270 1.289 . S
O244 C243 1.235 . S
C245 C247 1.400 . S
C245 N248 1.351 . S
C245 C250 1.501 . S
C246 C247 1.387 . S
C246 N249 1.341 . S
C247 C245 1.400 . S
C247 C246 1.387 . S
N248 Co239 2.022 . S
N248 C245 1.351 . S
N248 N249 1.365 . S
N249 C246 1.341 . S
N249 N248 1.365 . S
N249 H269 0.862 . S
C250 C245 1.501 . S
C250 H251 0.961 . S
C250 H252 0.961 . S
C250 H253 0.960 . S
H251 C250 0.961 . S
H252 C250 0.961 . S
H253 C250 0.960 . S
C254 N255 1.342 . S
C254 C258 1.401 . S
C254 C259 1.499 . S
N255 Co238 1.989 . S
N255 C254 1.342 . S
N255 N256 1.388 . S
N256 Co239 1.993 . S
N256 N255 1.388 . S
N256 C257 1.346 . S
C257 N256 1.346 . S
C257 C258 1.396 . S
C257 C267 1.510 . S
C258 C254 1.401 . S
C258 C257 1.396 . S
C259 C254 1.499 . S
C259 H260 0.959 . S
C259 H261 0.960 . S
C259 H262 0.961 . S
H260 C259 0.959 . S
H261 C259 0.960 . S
H262 C259 0.961 . S
O263 Co238 1.967 . S
O263 C271 1.258 . S
O264 Co239 1.941 . S
O264 C271 1.266 . S
H265 C267 0.959 . S
H266 C267 0.961 . S
C267 C257 1.510 . S
C267 H265 0.959 . S
C267 H266 0.961 . S
C267 H268 0.960 . S
H268 C267 0.960 . S
H269 N249 0.862 . S
O270 Co238 1.920 . S
O270 C243 1.289 . S
C271 O263 1.258 . S
C271 O264 1.266 . S
Co272 O275 1.970 . S
Co272 N289 1.989 . S
Co272 O297 1.967 . S
Co272 O304 1.920 . S
Co273 O276 1.966 . S
Co273 N282 2.022 . S
Co273 N290 1.993 . S
Co273 O298 1.941 . S
C274 O275 1.258 . S
C274 O276 1.263 . S
O275 Co272 1.970 . S
O275 C274 1.258 . S
O276 Co273 1.966 . S
O276 C274 1.263 . S
C277 O278 1.235 . S
C277 O304 1.289 . S
O278 C277 1.235 . S
C279 C281 1.400 . S
C279 N282 1.351 . S
C279 C284 1.501 . S
C280 C281 1.387 . S
C280 N283 1.341 . S
C281 C279 1.400 . S
C281 C280 1.387 . S
N282 Co273 2.022 . S
N282 C279 1.351 . S
N282 N283 1.365 . S
N283 C280 1.341 . S
N283 N282 1.365 . S
N283 H303 0.862 . S
C284 C279 1.501 . S
C284 H285 0.961 . S
C284 H286 0.961 . S
C284 H287 0.960 . S
H285 C284 0.961 . S
H286 C284 0.961 . S
H287 C284 0.960 . S
C288 N289 1.342 . S
C288 C292 1.401 . S
C288 C293 1.499 . S
N289 Co272 1.989 . S
N289 C288 1.342 . S
N289 N290 1.388 . S
N290 Co273 1.993 . S
N290 N289 1.388 . S
N290 C291 1.346 . S
C291 N290 1.346 . S
C291 C292 1.396 . S
C291 C301 1.510 . S
C292 C288 1.401 . S
C292 C291 1.396 . S
C293 C288 1.499 . S
C293 H294 0.959 . S
C293 H295 0.960 . S
C293 H296 0.961 . S
H294 C293 0.959 . S
H295 C293 0.960 . S
H296 C293 0.961 . S
O297 Co272 1.967 . S
O297 C305 1.258 . S
O298 Co273 1.941 . S
O298 C305 1.266 . S
H299 C301 0.959 . S
H300 C301 0.961 . S
C301 C291 1.510 . S
C301 H299 0.959 . S
C301 H300 0.961 . S
C301 H302 0.960 . S
H302 C301 0.960 . S
H303 N283 0.862 . S
O304 Co272 1.920 . S
O304 C277 1.289 . S
C305 O297 1.258 . S
C305 O298 1.266 . S
Co306 O309 1.970 1_554 S
Co306 N323 1.989 . S
Co306 O331 1.967 . S
Co306 O338 1.920 . S
Co307 O310 1.966 1_554 S
Co307 N316 2.022 . S
Co307 N324 1.993 . S
Co307 O332 1.941 . S
C308 O309 1.258 . S
C308 O310 1.263 . S
O309 Co306 1.970 1_556 S
O309 C308 1.258 . S
O310 Co307 1.966 1_556 S
O310 C308 1.263 . S
C311 O312 1.235 . S
C311 O338 1.289 . S
O312 C311 1.235 . S
C313 C315 1.400 . S
C313 N316 1.351 . S
C313 C318 1.501 1_554 S
C314 C315 1.387 . S
C314 N317 1.341 . S
C315 C313 1.400 . S
C315 C314 1.387 . S
N316 Co307 2.022 . S
N316 C313 1.351 . S
N316 N317 1.365 . S
N317 C314 1.341 . S
N317 N316 1.365 . S
N317 H337 0.862 . S
C318 C313 1.501 1_556 S
C318 H319 0.961 . S
C318 H320 0.961 . S
C318 H321 0.960 . S
H319 C318 0.961 . S
H320 C318 0.961 . S
H321 C318 0.960 . S
C322 N323 1.342 . S
C322 C326 1.401 . S
C322 C327 1.499 . S
N323 Co306 1.989 . S
N323 C322 1.342 . S
N323 N324 1.388 . S
N324 Co307 1.993 . S
N324 N323 1.388 . S
N324 C325 1.346 . S
C325 N324 1.346 . S
C325 C326 1.396 . S
C325 C335 1.510 . S
C326 C322 1.401 . S
C326 C325 1.396 . S
C327 C322 1.499 . S
C327 H328 0.959 . S
C327 H329 0.960 . S
C327 H330 0.961 . S
H328 C327 0.959 . S
H329 C327 0.960 . S
H330 C327 0.961 . S
O331 Co306 1.967 . S
O331 C339 1.258 . S
O332 Co307 1.941 . S
O332 C339 1.266 . S
H333 C335 0.959 . S
H334 C335 0.961 . S
C335 C325 1.510 . S
C335 H333 0.959 . S
C335 H334 0.961 . S
C335 H336 0.960 . S
H336 C335 0.960 . S
H337 N317 0.862 . S
O338 Co306 1.920 . S
O338 C311 1.289 . S
C339 O331 1.258 . S
C339 O332 1.266 . S
Co340 O343 1.970 1_554 S
Co340 N357 1.989 . S
Co340 O365 1.967 . S
Co340 O372 1.920 . S
Co341 O344 1.966 1_554 S
Co341 N350 2.022 . S
Co341 N358 1.993 . S
Co341 O366 1.941 . S
C342 O343 1.258 . S
C342 O344 1.263 . S
O343 Co340 1.970 1_556 S
O343 C342 1.258 . S
O344 Co341 1.966 1_556 S
O344 C342 1.263 . S
C345 O346 1.235 . S
C345 O372 1.289 . S
O346 C345 1.235 . S
C347 C349 1.400 . S
C347 N350 1.351 . S
C347 C352 1.501 1_554 S
C348 C349 1.387 . S
C348 N351 1.341 . S
C349 C347 1.400 . S
C349 C348 1.387 . S
N350 Co341 2.022 . S
N350 C347 1.351 . S
N350 N351 1.365 . S
N351 C348 1.341 . S
N351 N350 1.365 . S
N351 H371 0.862 . S
C352 C347 1.501 1_556 S
C352 H353 0.961 . S
C352 H354 0.961 . S
C352 H355 0.960 . S
H353 C352 0.961 . S
H354 C352 0.961 . S
H355 C352 0.960 . S
C356 N357 1.342 . S
C356 C360 1.401 . S
C356 C361 1.499 . S
N357 Co340 1.989 . S
N357 C356 1.342 . S
N357 N358 1.388 . S
N358 Co341 1.993 . S
N358 N357 1.388 . S
N358 C359 1.346 . S
C359 N358 1.346 . S
C359 C360 1.396 . S
C359 C369 1.510 . S
C360 C356 1.401 . S
C360 C359 1.396 . S
C361 C356 1.499 . S
C361 H362 0.959 . S
C361 H363 0.960 . S
C361 H364 0.961 . S
H362 C361 0.959 . S
H363 C361 0.960 . S
H364 C361 0.961 . S
O365 Co340 1.967 . S
O365 C373 1.258 . S
O366 Co341 1.941 . S
O366 C373 1.266 . S
H367 C369 0.959 . S
H368 C369 0.961 . S
C369 C359 1.510 . S
C369 H367 0.959 . S
C369 H368 0.961 . S
C369 H370 0.960 . S
H370 C369 0.960 . S
H371 N351 0.862 . S
O372 Co340 1.920 . S
O372 C345 1.289 . S
C373 O365 1.258 . S
C373 O366 1.266 . S
Co374 O377 1.970 1_554 S
Co374 N391 1.989 . S
Co374 O399 1.967 . S
Co374 O406 1.920 . S
Co375 O378 1.966 1_554 S
Co375 N384 2.022 . S
Co375 N392 1.993 . S
Co375 O400 1.941 . S
C376 O377 1.258 . S
C376 O378 1.263 . S
O377 Co374 1.970 1_556 S
O377 C376 1.258 . S
O378 Co375 1.966 1_556 S
O378 C376 1.263 . S
C379 O380 1.235 . S
C379 O406 1.289 . S
O380 C379 1.235 . S
C381 C383 1.400 . S
C381 N384 1.351 . S
C381 C386 1.501 1_554 S
C382 C383 1.387 . S
C382 N385 1.341 . S
C383 C381 1.400 . S
C383 C382 1.387 . S
N384 Co375 2.022 . S
N384 C381 1.351 . S
N384 N385 1.365 . S
N385 C382 1.341 . S
N385 N384 1.365 . S
N385 H405 0.862 . S
C386 C381 1.501 1_556 S
C386 H387 0.961 . S
C386 H388 0.961 . S
C386 H389 0.960 . S
H387 C386 0.961 . S
H388 C386 0.961 . S
H389 C386 0.960 . S
C390 N391 1.342 . S
C390 C394 1.401 . S
C390 C395 1.499 . S
N391 Co374 1.989 . S
N391 C390 1.342 . S
N391 N392 1.388 . S
N392 Co375 1.993 . S
N392 N391 1.388 . S
N392 C393 1.346 . S
C393 N392 1.346 . S
C393 C394 1.396 . S
C393 C403 1.510 . S
C394 C390 1.401 . S
C394 C393 1.396 . S
C395 C390 1.499 . S
C395 H396 0.959 . S
C395 H397 0.960 . S
C395 H398 0.961 . S
H396 C395 0.959 . S
H397 C395 0.960 . S
H398 C395 0.961 . S
O399 Co374 1.967 . S
O399 C407 1.258 . S
O400 Co375 1.941 . S
O400 C407 1.266 . S
H401 C403 0.959 . S
H402 C403 0.961 . S
C403 C393 1.510 . S
C403 H401 0.959 . S
C403 H402 0.961 . S
C403 H404 0.960 . S
H404 C403 0.960 . S
H405 N385 0.862 . S
O406 Co374 1.920 . S
O406 C379 1.289 . S
C407 O399 1.258 . S
C407 O400 1.266 . S
Co408 O411 1.970 1_556 S
Co408 N425 1.989 . S
Co408 O433 1.967 . S
Co408 O440 1.920 . S
Co409 O412 1.966 1_556 S
Co409 N418 2.022 . S
Co409 N426 1.993 . S
Co409 O434 1.941 . S
C410 O411 1.258 . S
C410 O412 1.263 . S
O411 Co408 1.970 1_554 S
O411 C410 1.258 . S
O412 Co409 1.966 1_554 S
O412 C410 1.263 . S
C413 O414 1.235 . S
C413 O440 1.289 . S
O414 C413 1.235 . S
C415 C417 1.400 . S
C415 N418 1.351 . S
C415 C420 1.501 1_556 S
C416 C417 1.387 . S
C416 N419 1.341 . S
C417 C415 1.400 . S
C417 C416 1.387 . S
N418 Co409 2.022 . S
N418 C415 1.351 . S
N418 N419 1.365 . S
N419 C416 1.341 . S
N419 N418 1.365 . S
N419 H439 0.862 . S
C420 C415 1.501 1_554 S
C420 H421 0.961 . S
C420 H422 0.961 . S
C420 H423 0.960 . S
H421 C420 0.961 . S
H422 C420 0.961 . S
H423 C420 0.960 . S
C424 N425 1.342 . S
C424 C428 1.401 . S
C424 C429 1.499 . S
N425 Co408 1.989 . S
N425 C424 1.342 . S
N425 N426 1.388 . S
N426 Co409 1.993 . S
N426 N425 1.388 . S
N426 C427 1.346 . S
C427 N426 1.346 . S
C427 C428 1.396 . S
C427 C437 1.510 . S
C428 C424 1.401 . S
C428 C427 1.396 . S
C429 C424 1.499 . S
C429 H430 0.959 . S
C429 H431 0.960 . S
C429 H432 0.961 . S
H430 C429 0.959 . S
H431 C429 0.960 . S
H432 C429 0.961 . S
O433 Co408 1.967 . S
O433 C441 1.258 . S
O434 Co409 1.941 . S
O434 C441 1.266 . S
H435 C437 0.959 . S
H436 C437 0.961 . S
C437 C427 1.510 . S
C437 H435 0.959 . S
C437 H436 0.961 . S
C437 H438 0.960 . S
H438 C437 0.960 . S
H439 N419 0.862 . S
O440 Co408 1.920 . S
O440 C413 1.289 . S
C441 O433 1.258 . S
C441 O434 1.266 . S
Co442 O445 1.970 1_556 S
Co442 N459 1.989 . S
Co442 O467 1.967 . S
Co442 O474 1.920 . S
Co443 O446 1.966 1_556 S
Co443 N452 2.022 . S
Co443 N460 1.993 . S
Co443 O468 1.941 . S
C444 O445 1.258 . S
C444 O446 1.263 . S
O445 Co442 1.970 1_554 S
O445 C444 1.258 . S
O446 Co443 1.966 1_554 S
O446 C444 1.263 . S
C447 O448 1.235 . S
C447 O474 1.289 . S
O448 C447 1.235 . S
C449 C451 1.400 . S
C449 N452 1.351 . S
C449 C454 1.501 1_556 S
C450 C451 1.387 . S
C450 N453 1.341 . S
C451 C449 1.400 . S
C451 C450 1.387 . S
N452 Co443 2.022 . S
N452 C449 1.351 . S
N452 N453 1.365 . S
N453 C450 1.341 . S
N453 N452 1.365 . S
N453 H473 0.862 . S
C454 C449 1.501 1_554 S
C454 H455 0.961 . S
C454 H456 0.961 . S
C454 H457 0.960 . S
H455 C454 0.961 . S
H456 C454 0.961 . S
H457 C454 0.960 . S
C458 N459 1.342 . S
C458 C462 1.401 . S
C458 C463 1.499 . S
N459 Co442 1.989 . S
N459 C458 1.342 . S
N459 N460 1.388 . S
N460 Co443 1.993 . S
N460 N459 1.388 . S
N460 C461 1.346 . S
C461 N460 1.346 . S
C461 C462 1.396 . S
C461 C471 1.510 . S
C462 C458 1.401 . S
C462 C461 1.396 . S
C463 C458 1.499 . S
C463 H464 0.959 . S
C463 H465 0.960 . S
C463 H466 0.961 . S
H464 C463 0.959 . S
H465 C463 0.960 . S
H466 C463 0.961 . S
O467 Co442 1.967 . S
O467 C475 1.258 . S
O468 Co443 1.941 . S
O468 C475 1.266 . S
H469 C471 0.959 . S
H470 C471 0.961 . S
C471 C461 1.510 . S
C471 H469 0.959 . S
C471 H470 0.961 . S
C471 H472 0.960 . S
H472 C471 0.960 . S
H473 N453 0.862 . S
O474 Co442 1.920 . S
O474 C447 1.289 . S
C475 O467 1.258 . S
C475 O468 1.266 . S
Co476 O479 1.970 1_556 S
Co476 N493 1.989 . S
Co476 O501 1.967 . S
Co476 O508 1.920 . S
Co477 O480 1.966 1_556 S
Co477 N486 2.022 . S
Co477 N494 1.993 . S
Co477 O502 1.941 . S
C478 O479 1.258 . S
C478 O480 1.263 . S
O479 Co476 1.970 1_554 S
O479 C478 1.258 . S
O480 Co477 1.966 1_554 S
O480 C478 1.263 . S
C481 O482 1.235 . S
C481 O508 1.289 . S
O482 C481 1.235 . S
C483 C485 1.400 . S
C483 N486 1.351 . S
C483 C488 1.501 1_556 S
C484 C485 1.387 . S
C484 N487 1.341 . S
C485 C483 1.400 . S
C485 C484 1.387 . S
N486 Co477 2.022 . S
N486 C483 1.351 . S
N486 N487 1.365 . S
N487 C484 1.341 . S
N487 N486 1.365 . S
N487 H507 0.862 . S
C488 C483 1.501 1_554 S
C488 H489 0.961 . S
C488 H490 0.961 . S
C488 H491 0.960 . S
H489 C488 0.961 . S
H490 C488 0.961 . S
H491 C488 0.960 . S
C492 N493 1.342 . S
C492 C496 1.401 . S
C492 C497 1.499 . S
N493 Co476 1.989 . S
N493 C492 1.342 . S
N493 N494 1.388 . S
N494 Co477 1.993 . S
N494 N493 1.388 . S
N494 C495 1.346 . S
C495 N494 1.346 . S
C495 C496 1.396 . S
C495 C505 1.510 . S
C496 C492 1.401 . S
C496 C495 1.396 . S
C497 C492 1.499 . S
C497 H498 0.959 . S
C497 H499 0.960 . S
C497 H500 0.961 . S
H498 C497 0.959 . S
H499 C497 0.960 . S
H500 C497 0.961 . S
O501 Co476 1.967 . S
O501 C509 1.258 . S
O502 Co477 1.941 . S
O502 C509 1.266 . S
H503 C505 0.959 . S
H504 C505 0.961 . S
C505 C495 1.510 . S
C505 H503 0.959 . S
C505 H504 0.961 . S
C505 H506 0.960 . S
H506 C505 0.960 . S
H507 N487 0.862 . S
O508 Co476 1.920 . S
O508 C481 1.289 . S
C509 O501 1.258 . S
C509 O502 1.266 . S
Co510 O513 1.970 . S
Co510 N527 1.989 . S
Co510 O535 1.967 . S
Co510 O542 1.920 . S
Co511 O514 1.966 . S
Co511 N520 2.022 . S
Co511 N528 1.993 . S
Co511 O536 1.941 . S
C512 O513 1.258 . S
C512 O514 1.263 . S
O513 Co510 1.970 . S
O513 C512 1.258 . S
O514 Co511 1.966 . S
O514 C512 1.263 . S
C515 O516 1.235 . S
C515 O542 1.289 . S
O516 C515 1.235 . S
C517 C519 1.400 . S
C517 N520 1.351 . S
C517 C522 1.501 . S
C518 C519 1.387 . S
C518 N521 1.341 . S
C519 C517 1.400 . S
C519 C518 1.387 . S
N520 Co511 2.022 . S
N520 C517 1.351 . S
N520 N521 1.365 . S
N521 C518 1.341 . S
N521 N520 1.365 . S
N521 H541 0.862 . S
C522 C517 1.501 . S
C522 H523 0.961 . S
C522 H524 0.961 . S
C522 H525 0.960 . S
H523 C522 0.961 . S
H524 C522 0.961 . S
H525 C522 0.960 . S
C526 N527 1.342 . S
C526 C530 1.401 . S
C526 C531 1.499 . S
N527 Co510 1.989 . S
N527 C526 1.342 . S
N527 N528 1.388 . S
N528 Co511 1.993 . S
N528 N527 1.388 . S
N528 C529 1.346 . S
C529 N528 1.346 . S
C529 C530 1.396 . S
C529 C539 1.510 . S
C530 C526 1.401 . S
C530 C529 1.396 . S
C531 C526 1.499 . S
C531 H532 0.959 . S
C531 H533 0.960 . S
C531 H534 0.961 . S
H532 C531 0.959 . S
H533 C531 0.960 . S
H534 C531 0.961 . S
O535 Co510 1.967 . S
O535 C543 1.258 . S
O536 Co511 1.941 . S
O536 C543 1.266 . S
H537 C539 0.959 . S
H538 C539 0.961 . S
C539 C529 1.510 . S
C539 H537 0.959 . S
C539 H538 0.961 . S
C539 H540 0.960 . S
H540 C539 0.960 . S
H541 N521 0.862 . S
O542 Co510 1.920 . S
O542 C515 1.289 . S
C543 O535 1.258 . S
C543 O536 1.266 . S
Co544 O547 1.970 . S
Co544 N561 1.989 . S
Co544 O569 1.967 . S
Co544 O576 1.920 . S
Co545 O548 1.966 . S
Co545 N554 2.022 . S
Co545 N562 1.993 . S
Co545 O570 1.941 . S
C546 O547 1.258 . S
C546 O548 1.263 . S
O547 Co544 1.970 . S
O547 C546 1.258 . S
O548 Co545 1.966 . S
O548 C546 1.263 . S
C549 O550 1.235 . S
C549 O576 1.289 . S
O550 C549 1.235 . S
C551 C553 1.400 . S
C551 N554 1.351 . S
C551 C556 1.501 . S
C552 C553 1.387 . S
C552 N555 1.341 . S
C553 C551 1.400 . S
C553 C552 1.387 . S
N554 Co545 2.022 . S
N554 C551 1.351 . S
N554 N555 1.365 . S
N555 C552 1.341 . S
N555 N554 1.365 . S
N555 H575 0.862 . S
C556 C551 1.501 . S
C556 H557 0.961 . S
C556 H558 0.961 . S
C556 H559 0.960 . S
H557 C556 0.961 . S
H558 C556 0.961 . S
H559 C556 0.960 . S
C560 N561 1.342 . S
C560 C564 1.401 . S
C560 C565 1.499 . S
N561 Co544 1.989 . S
N561 C560 1.342 . S
N561 N562 1.388 . S
N562 Co545 1.993 . S
N562 N561 1.388 . S
N562 C563 1.346 . S
C563 N562 1.346 . S
C563 C564 1.396 . S
C563 C573 1.510 . S
C564 C560 1.401 . S
C564 C563 1.396 . S
C565 C560 1.499 . S
C565 H566 0.959 . S
C565 H567 0.960 . S
C565 H568 0.961 . S
H566 C565 0.959 . S
H567 C565 0.960 . S
H568 C565 0.961 . S
O569 Co544 1.967 . S
O569 C577 1.258 . S
O570 Co545 1.941 . S
O570 C577 1.266 . S
H571 C573 0.959 . S
H572 C573 0.961 . S
C573 C563 1.510 . S
C573 H571 0.959 . S
C573 H572 0.961 . S
C573 H574 0.960 . S
H574 C573 0.960 . S
H575 N555 0.862 . S
O576 Co544 1.920 . S
O576 C549 1.289 . S
C577 O569 1.258 . S
C577 O570 1.266 . S
Co578 O581 1.970 . S
Co578 N595 1.989 . S
Co578 O603 1.967 . S
Co578 O610 1.920 . S
Co579 O582 1.966 . S
Co579 N588 2.022 . S
Co579 N596 1.993 . S
Co579 O604 1.941 . S
C580 O581 1.258 . S
C580 O582 1.263 . S
O581 Co578 1.970 . S
O581 C580 1.258 . S
O582 Co579 1.966 . S
O582 C580 1.263 . S
C583 O584 1.235 . S
C583 O610 1.289 . S
O584 C583 1.235 . S
C585 C587 1.400 . S
C585 N588 1.351 . S
C585 C590 1.501 . S
C586 C587 1.387 . S
C586 N589 1.341 . S
C587 C585 1.400 . S
C587 C586 1.387 . S
N588 Co579 2.022 . S
N588 C585 1.351 . S
N588 N589 1.365 . S
N589 C586 1.341 . S
N589 N588 1.365 . S
N589 H609 0.862 . S
C590 C585 1.501 . S
C590 H591 0.961 . S
C590 H592 0.961 . S
C590 H593 0.960 . S
H591 C590 0.961 . S
H592 C590 0.961 . S
H593 C590 0.960 . S
C594 N595 1.342 . S
C594 C598 1.401 . S
C594 C599 1.499 . S
N595 Co578 1.989 . S
N595 C594 1.342 . S
N595 N596 1.388 . S
N596 Co579 1.993 . S
N596 N595 1.388 . S
N596 C597 1.346 . S
C597 N596 1.346 . S
C597 C598 1.396 . S
C597 C607 1.510 . S
C598 C594 1.401 . S
C598 C597 1.396 . S
C599 C594 1.499 . S
C599 H600 0.959 . S
C599 H601 0.960 . S
C599 H602 0.961 . S
H600 C599 0.959 . S
H601 C599 0.960 . S
H602 C599 0.961 . S
O603 Co578 1.967 . S
O603 C611 1.258 . S
O604 Co579 1.941 . S
O604 C611 1.266 . S
H605 C607 0.959 . S
H606 C607 0.961 . S
C607 C597 1.510 . S
C607 H605 0.959 . S
C607 H606 0.961 . S
C607 H608 0.960 . S
H608 C607 0.960 . S
H609 N589 0.862 . S
O610 Co578 1.920 . S
O610 C583 1.289 . S
C611 O603 1.258 . S
C611 O604 1.266 . S
C33 C39 1.572 . S
C73 C67 1.569 . S
C101 C5 1.571 1_655 S
C175 C135 1.572 . S
C107 C169 1.571 1_545 S
C203 C141 1.569 . S
C243 C237 1.571 . S
C271 C277 1.571 . S
C305 C209 1.571 . S
C379 C339 1.571 . S
C311 C373 1.571 . S
C407 C345 1.571 . S
C447 C441 1.571 . S
C475 C481 1.571 . S
C509 C413 1.571 . S
C583 C543 1.571 . S
C515 C577 1.571 . S
C611 C549 1.571 . S
C349 C9 2.168 . S
C383 C43 2.166 . S
C315 C77 2.168 . S
C111 C485 2.168 . S
C417 C145 2.168 . S
C451 C179 2.166 . S
C213 C553 2.167 1_655 S
C587 C247 2.167 . S
C519 C281 2.167 1_565 S
C2 C172 1.853 1_565 S
C104 C36 1.853 1_655 S
C138 C70 1.855 . S
C376 C206 1.854 . S
C308 C240 1.855 . S
C274 C342 1.854 . S
C580 C410 1.855 . S
C444 C512 1.854 . S
C546 C478 1.854 . S
C20 C190 2.229 1_564 S
C54 C122 2.229 1_454 S
C156 C88 2.232 1_556 S
C394 C224 2.232 . S
C326 C258 2.233 . S
C360 C292 2.232 . S
C428 C598 2.233 . S
C462 C530 2.232 . S
C564 C496 2.232 . S
