# Generated by pormake.
# Topology wna, (6)-cn, num edge types: 1
# Building blocks:
#     Node 0, Type 0, BuildingBlock: CUKXOW_clean_sbu_0, # of connection points: 6
#     Node 1, Type 0, BuildingBlock: CUKXOW_clean_sbu_0, # of connection points: 6
#     Node 2, Type 0, BuildingBlock: CUKXOW_clean_sbu_0, # of connection points: 6
#     Node 3, Type 0, BuildingBlock: CUKXOW_clean_sbu_0, # of connection points: 6
#     Node 4, Type 0, BuildingBlock: CUKXOW_clean_sbu_0, # of connection points: 6
#     Node 5, Type 0, BuildingBlock: CUKXOW_clean_sbu_0, # of connection points: 6
#     Node 6, Type 0, BuildingBlock: CUKXOW_clean_sbu_0, # of connection points: 6
#     Node 7, Type 0, BuildingBlock: CUKXOW_clean_sbu_0, # of connection points: 6
#     Node 8, Type 0, BuildingBlock: CUKXOW_clean_sbu_0, # of connection points: 6
#     Node 9, Type 0, BuildingBlock: CUKXOW_clean_sbu_0, # of connection points: 6
#     Node 10, Type 0, BuildingBlock: CUKXOW_clean_sbu_0, # of connection points: 6
#     Node 11, Type 0, BuildingBlock: CUKXOW_clean_sbu_0, # of connection points: 6
#     Node 12, Type 0, BuildingBlock: CUKXOW_clean_sbu_0, # of connection points: 6
#     Node 13, Type 0, BuildingBlock: CUKXOW_clean_sbu_0, # of connection points: 6
#     Node 14, Type 0, BuildingBlock: CUKXOW_clean_sbu_0, # of connection points: 6
#     Node 15, Type 0, BuildingBlock: CUKXOW_clean_sbu_0, # of connection points: 6
#     Node 16, Type 0, BuildingBlock: CUKXOW_clean_sbu_0, # of connection points: 6
#     Node 17, Type 0, BuildingBlock: CUKXOW_clean_sbu_0, # of connection points: 6
#     Node 18, Type 0, BuildingBlock: CUKXOW_clean_sbu_0, # of connection points: 6
#     Node 19, Type 0, BuildingBlock: CUKXOW_clean_sbu_0, # of connection points: 6
#     Node 20, Type 0, BuildingBlock: CUKXOW_clean_sbu_0, # of connection points: 6
#     Node 21, Type 0, BuildingBlock: CUKXOW_clean_sbu_0, # of connection points: 6
#     Node 22, Type 0, BuildingBlock: CUKXOW_clean_sbu_0, # of connection points: 6
#     Node 23, Type 0, BuildingBlock: CUKXOW_clean_sbu_0, # of connection points: 6
#     Node 24, Type 0, BuildingBlock: CUKXOW_clean_sbu_0, # of connection points: 6
#     Node 25, Type 0, BuildingBlock: CUKXOW_clean_sbu_0, # of connection points: 6
#     Node 26, Type 0, BuildingBlock: CUKXOW_clean_sbu_0, # of connection points: 6
#     Node 27, Type 0, BuildingBlock: CUKXOW_clean_sbu_0, # of connection points: 6
#     Node 28, Type 0, BuildingBlock: CUKXOW_clean_sbu_0, # of connection points: 6
#     Node 29, Type 0, BuildingBlock: CUKXOW_clean_sbu_0, # of connection points: 6
#     Node 30, Type 0, BuildingBlock: CUKXOW_clean_sbu_0, # of connection points: 6
#     Node 31, Type 0, BuildingBlock: CUKXOW_clean_sbu_0, # of connection points: 6
#     Node 32, Type 0, BuildingBlock: CUKXOW_clean_sbu_0, # of connection points: 6
#     Node 33, Type 0, BuildingBlock: CUKXOW_clean_sbu_0, # of connection points: 6
#     Node 34, Type 0, BuildingBlock: CUKXOW_clean_sbu_0, # of connection points: 6
#     Node 35, Type 0, BuildingBlock: CUKXOW_clean_sbu_0, # of connection points: 6
#     Edge 36, Type (0, 0), BuildingBlock: KIFKEQ_clean_linker_1, # of connection points: 2
#     Edge 37, Type (0, 0), BuildingBlock: KIFKEQ_clean_linker_1, # of connection points: 2
#     Edge 38, Type (0, 0), BuildingBlock: KIFKEQ_clean_linker_1, # of connection points: 2
#     Edge 39, Type (0, 0), BuildingBlock: KIFKEQ_clean_linker_1, # of connection points: 2
#     Edge 40, Type (0, 0), BuildingBlock: KIFKEQ_clean_linker_1, # of connection points: 2
#     Edge 41, Type (0, 0), BuildingBlock: KIFKEQ_clean_linker_1, # of connection points: 2
#     Edge 42, Type (0, 0), BuildingBlock: KIFKEQ_clean_linker_1, # of connection points: 2
#     Edge 43, Type (0, 0), BuildingBlock: KIFKEQ_clean_linker_1, # of connection points: 2
#     Edge 44, Type (0, 0), BuildingBlock: KIFKEQ_clean_linker_1, # of connection points: 2
#     Edge 45, Type (0, 0), BuildingBlock: KIFKEQ_clean_linker_1, # of connection points: 2
#     Edge 46, Type (0, 0), BuildingBlock: KIFKEQ_clean_linker_1, # of connection points: 2
#     Edge 47, Type (0, 0), BuildingBlock: KIFKEQ_clean_linker_1, # of connection points: 2
#     Edge 48, Type (0, 0), BuildingBlock: KIFKEQ_clean_linker_1, # of connection points: 2
#     Edge 49, Type (0, 0), BuildingBlock: KIFKEQ_clean_linker_1, # of connection points: 2
#     Edge 50, Type (0, 0), BuildingBlock: KIFKEQ_clean_linker_1, # of connection points: 2
#     Edge 51, Type (0, 0), BuildingBlock: KIFKEQ_clean_linker_1, # of connection points: 2
#     Edge 52, Type (0, 0), BuildingBlock: KIFKEQ_clean_linker_1, # of connection points: 2
#     Edge 53, Type (0, 0), BuildingBlock: KIFKEQ_clean_linker_1, # of connection points: 2
#     Edge 54, Type (0, 0), BuildingBlock: KIFKEQ_clean_linker_1, # of connection points: 2
#     Edge 55, Type (0, 0), BuildingBlock: KIFKEQ_clean_linker_1, # of connection points: 2
#     Edge 56, Type (0, 0), BuildingBlock: KIFKEQ_clean_linker_1, # of connection points: 2
#     Edge 57, Type (0, 0), BuildingBlock: KIFKEQ_clean_linker_1, # of connection points: 2
#     Edge 58, Type (0, 0), BuildingBlock: KIFKEQ_clean_linker_1, # of connection points: 2
#     Edge 59, Type (0, 0), BuildingBlock: KIFKEQ_clean_linker_1, # of connection points: 2
#     Edge 60, Type (0, 0), BuildingBlock: KIFKEQ_clean_linker_1, # of connection points: 2
#     Edge 61, Type (0, 0), BuildingBlock: KIFKEQ_clean_linker_1, # of connection points: 2
#     Edge 62, Type (0, 0), BuildingBlock: KIFKEQ_clean_linker_1, # of connection points: 2
#     Edge 63, Type (0, 0), BuildingBlock: KIFKEQ_clean_linker_1, # of connection points: 2
#     Edge 64, Type (0, 0), BuildingBlock: KIFKEQ_clean_linker_1, # of connection points: 2
#     Edge 65, Type (0, 0), BuildingBlock: KIFKEQ_clean_linker_1, # of connection points: 2
#     Edge 66, Type (0, 0), BuildingBlock: KIFKEQ_clean_linker_1, # of connection points: 2
#     Edge 67, Type (0, 0), BuildingBlock: KIFKEQ_clean_linker_1, # of connection points: 2
#     Edge 68, Type (0, 0), BuildingBlock: KIFKEQ_clean_linker_1, # of connection points: 2
#     Edge 69, Type (0, 0), BuildingBlock: KIFKEQ_clean_linker_1, # of connection points: 2
#     Edge 70, Type (0, 0), BuildingBlock: KIFKEQ_clean_linker_1, # of connection points: 2
#     Edge 71, Type (0, 0), BuildingBlock: KIFKEQ_clean_linker_1, # of connection points: 2
#     Edge 72, Type (0, 0), BuildingBlock: KIFKEQ_clean_linker_1, # of connection points: 2
#     Edge 73, Type (0, 0), BuildingBlock: KIFKEQ_clean_linker_1, # of connection points: 2
#     Edge 74, Type (0, 0), BuildingBlock: KIFKEQ_clean_linker_1, # of connection points: 2
#     Edge 75, Type (0, 0), BuildingBlock: KIFKEQ_clean_linker_1, # of connection points: 2
#     Edge 76, Type (0, 0), BuildingBlock: KIFKEQ_clean_linker_1, # of connection points: 2
#     Edge 77, Type (0, 0), BuildingBlock: KIFKEQ_clean_linker_1, # of connection points: 2
#     Edge 78, Type (0, 0), BuildingBlock: KIFKEQ_clean_linker_1, # of connection points: 2
#     Edge 79, Type (0, 0), BuildingBlock: KIFKEQ_clean_linker_1, # of connection points: 2
#     Edge 80, Type (0, 0), BuildingBlock: KIFKEQ_clean_linker_1, # of connection points: 2
#     Edge 81, Type (0, 0), BuildingBlock: KIFKEQ_clean_linker_1, # of connection points: 2
#     Edge 82, Type (0, 0), BuildingBlock: KIFKEQ_clean_linker_1, # of connection points: 2
#     Edge 83, Type (0, 0), BuildingBlock: KIFKEQ_clean_linker_1, # of connection points: 2
#     Edge 84, Type (0, 0), BuildingBlock: KIFKEQ_clean_linker_1, # of connection points: 2
#     Edge 85, Type (0, 0), BuildingBlock: KIFKEQ_clean_linker_1, # of connection points: 2
#     Edge 86, Type (0, 0), BuildingBlock: KIFKEQ_clean_linker_1, # of connection points: 2
#     Edge 87, Type (0, 0), BuildingBlock: KIFKEQ_clean_linker_1, # of connection points: 2
#     Edge 88, Type (0, 0), BuildingBlock: KIFKEQ_clean_linker_1, # of connection points: 2
#     Edge 89, Type (0, 0), BuildingBlock: KIFKEQ_clean_linker_1, # of connection points: 2
#     Edge 90, Type (0, 0), BuildingBlock: KIFKEQ_clean_linker_1, # of connection points: 2
#     Edge 91, Type (0, 0), BuildingBlock: KIFKEQ_clean_linker_1, # of connection points: 2
#     Edge 92, Type (0, 0), BuildingBlock: KIFKEQ_clean_linker_1, # of connection points: 2
#     Edge 93, Type (0, 0), BuildingBlock: KIFKEQ_clean_linker_1, # of connection points: 2
#     Edge 94, Type (0, 0), BuildingBlock: KIFKEQ_clean_linker_1, # of connection points: 2
#     Edge 95, Type (0, 0), BuildingBlock: KIFKEQ_clean_linker_1, # of connection points: 2
#     Edge 96, Type (0, 0), BuildingBlock: KIFKEQ_clean_linker_1, # of connection points: 2
#     Edge 97, Type (0, 0), BuildingBlock: KIFKEQ_clean_linker_1, # of connection points: 2
#     Edge 98, Type (0, 0), BuildingBlock: KIFKEQ_clean_linker_1, # of connection points: 2
#     Edge 99, Type (0, 0), BuildingBlock: KIFKEQ_clean_linker_1, # of connection points: 2
#     Edge 100, Type (0, 0), BuildingBlock: KIFKEQ_clean_linker_1, # of connection points: 2
#     Edge 101, Type (0, 0), BuildingBlock: KIFKEQ_clean_linker_1, # of connection points: 2
#     Edge 102, Type (0, 0), BuildingBlock: KIFKEQ_clean_linker_1, # of connection points: 2
#     Edge 103, Type (0, 0), BuildingBlock: KIFKEQ_clean_linker_1, # of connection points: 2
#     Edge 104, Type (0, 0), BuildingBlock: KIFKEQ_clean_linker_1, # of connection points: 2
#     Edge 105, Type (0, 0), BuildingBlock: KIFKEQ_clean_linker_1, # of connection points: 2
#     Edge 106, Type (0, 0), BuildingBlock: KIFKEQ_clean_linker_1, # of connection points: 2
#     Edge 107, Type (0, 0), BuildingBlock: KIFKEQ_clean_linker_1, # of connection points: 2
#     Edge 108, Type (0, 0), BuildingBlock: KIFKEQ_clean_linker_1, # of connection points: 2
#     Edge 109, Type (0, 0), BuildingBlock: KIFKEQ_clean_linker_1, # of connection points: 2
#     Edge 110, Type (0, 0), BuildingBlock: KIFKEQ_clean_linker_1, # of connection points: 2
#     Edge 111, Type (0, 0), BuildingBlock: KIFKEQ_clean_linker_1, # of connection points: 2
#     Edge 112, Type (0, 0), BuildingBlock: KIFKEQ_clean_linker_1, # of connection points: 2
#     Edge 113, Type (0, 0), BuildingBlock: KIFKEQ_clean_linker_1, # of connection points: 2
#     Edge 114, Type (0, 0), BuildingBlock: KIFKEQ_clean_linker_1, # of connection points: 2
#     Edge 115, Type (0, 0), BuildingBlock: KIFKEQ_clean_linker_1, # of connection points: 2
#     Edge 116, Type (0, 0), BuildingBlock: KIFKEQ_clean_linker_1, # of connection points: 2
#     Edge 117, Type (0, 0), BuildingBlock: KIFKEQ_clean_linker_1, # of connection points: 2
#     Edge 118, Type (0, 0), BuildingBlock: KIFKEQ_clean_linker_1, # of connection points: 2
#     Edge 119, Type (0, 0), BuildingBlock: KIFKEQ_clean_linker_1, # of connection points: 2
#     Edge 120, Type (0, 0), BuildingBlock: KIFKEQ_clean_linker_1, # of connection points: 2
#     Edge 121, Type (0, 0), BuildingBlock: KIFKEQ_clean_linker_1, # of connection points: 2
#     Edge 122, Type (0, 0), BuildingBlock: KIFKEQ_clean_linker_1, # of connection points: 2
#     Edge 123, Type (0, 0), BuildingBlock: KIFKEQ_clean_linker_1, # of connection points: 2
#     Edge 124, Type (0, 0), BuildingBlock: KIFKEQ_clean_linker_1, # of connection points: 2
#     Edge 125, Type (0, 0), BuildingBlock: KIFKEQ_clean_linker_1, # of connection points: 2
#     Edge 126, Type (0, 0), BuildingBlock: KIFKEQ_clean_linker_1, # of connection points: 2
#     Edge 127, Type (0, 0), BuildingBlock: KIFKEQ_clean_linker_1, # of connection points: 2
#     Edge 128, Type (0, 0), BuildingBlock: KIFKEQ_clean_linker_1, # of connection points: 2
#     Edge 129, Type (0, 0), BuildingBlock: KIFKEQ_clean_linker_1, # of connection points: 2
#     Edge 130, Type (0, 0), BuildingBlock: KIFKEQ_clean_linker_1, # of connection points: 2
#     Edge 131, Type (0, 0), BuildingBlock: KIFKEQ_clean_linker_1, # of connection points: 2
#     Edge 132, Type (0, 0), BuildingBlock: KIFKEQ_clean_linker_1, # of connection points: 2
#     Edge 133, Type (0, 0), BuildingBlock: KIFKEQ_clean_linker_1, # of connection points: 2
#     Edge 134, Type (0, 0), BuildingBlock: KIFKEQ_clean_linker_1, # of connection points: 2
#     Edge 135, Type (0, 0), BuildingBlock: KIFKEQ_clean_linker_1, # of connection points: 2
#     Edge 136, Type (0, 0), BuildingBlock: KIFKEQ_clean_linker_1, # of connection points: 2
#     Edge 137, Type (0, 0), BuildingBlock: KIFKEQ_clean_linker_1, # of connection points: 2
#     Edge 138, Type (0, 0), BuildingBlock: KIFKEQ_clean_linker_1, # of connection points: 2
#     Edge 139, Type (0, 0), BuildingBlock: KIFKEQ_clean_linker_1, # of connection points: 2
#     Edge 140, Type (0, 0), BuildingBlock: KIFKEQ_clean_linker_1, # of connection points: 2
#     Edge 141, Type (0, 0), BuildingBlock: KIFKEQ_clean_linker_1, # of connection points: 2
#     Edge 142, Type (0, 0), BuildingBlock: KIFKEQ_clean_linker_1, # of connection points: 2
#     Edge 143, Type (0, 0), BuildingBlock: KIFKEQ_clean_linker_1, # of connection points: 2
# Relax obj value: 0.208
# Max RMSD: 0.246
# Mean RMSD: 0.232
data_MOF--net-wna--node1-CUKXOW_clean_sbu_0--edge1-KIFKEQ_clean_linker_1
_symmetry_space_group_name_H-M    P1
_symmetry_Int_Tables_number       1
_symmetry_cell_setting            triclinic
loop_
_symmetry_equiv_pos_as_xyz
'x, y, z'
_cell_length_a     45.245313
_cell_length_b     45.289692
_cell_length_c     72.805178
_cell_angle_alpha  89.870932
_cell_angle_beta   90.323594
_cell_angle_gamma 120.07376
loop_
_atom_site_label
_atom_site_type_symbol
_atom_site_fract_x
_atom_site_fract_y
_atom_site_fract_z
_atom_type_partial_charge
Tb0 Tb 0.12436 0.26729 0.21391 0.0
C1 C 0.1097 0.1915 0.20969 0.0
Tb2 Tb 0.05109 0.21019 0.20686 0.0
O3 O 0.10922 0.27656 0.24099 0.0
O4 O 0.08479 0.228 0.22944 0.0
O5 O 0.13302 0.22444 0.20991 0.0
C6 C 0.98979 0.15443 0.20649 0.0
O7 O 0.07639 0.18025 0.20964 0.0
C8 C 0.08211 0.2472 0.17801 0.0
C9 C 0.06677 0.28553 0.21054 0.0
O10 O 0.01289 0.16313 0.19393 0.0
O11 O 0.00115 0.17723 0.21949 0.0
O12 O 0.0494 0.23187 0.18049 0.0
O13 O 0.09567 0.23898 0.19072 0.0
O14 O 0.04421 0.25313 0.21434 0.0
O15 O 0.09927 0.29601 0.20695 0.0
C16 C 0.19123 0.31077 0.21362 0.0
O17 O 0.17497 0.28772 0.22604 0.0
O18 O 0.16971 0.30974 0.20139 0.0
C19 C 0.08454 0.24532 0.24279 0.0
Tb20 Tb 0.7185 0.85413 0.21401 0.0
C21 C 0.79483 0.91436 0.21038 0.0
Tb22 Tb 0.77492 0.83643 0.20782 0.0
O23 O 0.70872 0.83042 0.24135 0.0
O24 O 0.75743 0.8535 0.22986 0.0
O25 O 0.76224 0.90564 0.21194 0.0
C26 C 0.83203 0.83331 0.20752 0.0
O27 O 0.80519 0.89174 0.20927 0.0
C28 C 0.73731 0.82977 0.17903 0.0
C29 C 0.69951 0.77779 0.21246 0.0
O30 O 0.81001 0.82231 0.22086 0.0
O31 O 0.82144 0.8453 0.19447 0.0
O32 O 0.75133 0.81127 0.18198 0.0
O33 O 0.74668 0.85231 0.19133 0.0
O34 O 0.73193 0.78737 0.21617 0.0
O35 O 0.6892 0.79975 0.20822 0.0
C36 C 0.67529 0.87738 0.21025 0.0
O37 O 0.68155 0.86086 0.19776 0.0
O38 O 0.69289 0.88024 0.22496 0.0
C39 C 0.73986 0.83649 0.24334 0.0
Tb40 Tb 0.13138 0.86401 0.20326 0.0
C41 C 0.07517 0.88547 0.20603 0.0
Tb42 Tb 0.15327 0.94058 0.1979 0.0
O43 O 0.12563 0.86891 0.23319 0.0
O44 O 0.15938 0.91031 0.21759 0.0
O45 O 0.0818 0.86014 0.20557 0.0
C46 C 0.1639 0.00286 0.20528 0.0
O47 O 0.09884 0.91795 0.20364 0.0
C48 C 0.14279 0.90698 0.16735 0.0
C49 C 0.20863 0.9183 0.19524 0.0
O50 O 0.14912 0.97662 0.21607 0.0
O51 O 0.17327 -0.00583 0.19036 0.0
O52 O 0.16035 0.94006 0.16841 0.0
O53 O 0.12778 0.89501 0.18248 0.0
O54 O 0.20253 0.94305 0.20027 0.0
O55 O 0.18393 0.8859 0.19323 0.0
C56 C 0.10788 0.79764 0.19761 0.0
O57 O 0.12984 0.81593 0.21031 0.0
O58 O 0.09987 0.81687 0.18813 0.0
C59 C 0.14631 0.90175 0.23316 0.0
Tb60 Tb 0.26031 0.11852 0.36305 0.0
C61 C 0.18386 0.10031 0.36998 0.0
Tb62 Tb 0.20728 0.04506 0.3739 0.0
O63 O 0.26678 0.10031 0.3363 0.0
O64 O 0.22014 0.07506 0.34996 0.0
O65 O 0.21567 0.12443 0.36633 0.0
C66 C 0.15314 0.98265 0.37638 0.0
O67 O 0.17488 0.0679 0.37279 0.0
C68 C 0.24817 0.08218 0.40034 0.0
C69 C 0.28338 0.06426 0.36726 0.0
O70 O 0.16313 0.00635 0.38877 0.0
O71 O 0.17392 -0.00605 0.36251 0.0
O72 O 0.23428 0.04926 0.39944 0.0
O73 O 0.23645 0.09242 0.38763 0.0
O74 O 0.25083 0.03968 0.36599 0.0
O75 O 0.29287 0.09704 0.36893 0.0
C76 C 0.3018 0.18596 0.36235 0.0
O77 O 0.28121 0.16786 0.34918 0.0
O78 O 0.2994 0.166 0.3758 0.0
C79 C 0.23619 0.07386 0.33622 0.0
Tb80 Tb 0.85965 0.13218 0.36744 0.0
C81 C 0.87077 0.06962 0.37482 0.0
Tb82 Tb 0.93069 0.14602 0.37769 0.0
O83 O 0.87964 0.15934 0.34153 0.0
O84 O 0.90082 0.13228 0.35358 0.0
O85 O 0.84875 0.07987 0.37086 0.0
C86 C -0.00866 0.14979 0.37818 0.0
O87 O 0.90374 0.09068 0.37773 0.0
C88 C 0.89807 0.15364 0.40501 0.0
C89 C 0.91719 0.20724 0.37274 0.0
O90 O 0.96859 0.13681 0.39103 0.0
O91 O 0.98012 0.1611 0.36503 0.0
O92 O 0.93108 0.16968 0.40348 0.0
O93 O 0.88459 0.13167 0.3923 0.0
O94 O 0.93983 0.19691 0.37076 0.0
O95 O 0.88401 0.18566 0.37464 0.0
C96 C 0.79333 0.10944 0.3627 0.0
O97 O 0.813 0.10568 0.35126 0.0
O98 O 0.81106 0.1264 0.37698 0.0
C99 C 0.90357 0.15164 0.34046 0.0
Tb100 Tb 0.8481 0.71764 0.36787 0.0
C101 C 0.91026 0.79262 0.37345 0.0
Tb102 Tb 0.83338 0.77461 0.37662 0.0
O103 O 0.8221 0.70987 0.34122 0.0
O104 O 0.84796 0.75801 0.35322 0.0
O105 O 0.90019 0.7597 0.37216 0.0
C106 C 0.83026 0.83155 0.37795 0.0
O107 O 0.88854 0.80414 0.37406 0.0
C108 C 0.82702 0.73598 0.40478 0.0
C109 C 0.77276 0.69999 0.37184 0.0
O110 O 0.84721 0.82329 0.3892 0.0
O111 O 0.81451 0.80748 0.36584 0.0
O112 O 0.81053 0.75235 0.40283 0.0
O113 O 0.84869 0.74435 0.39206 0.0
O114 O 0.78311 0.73268 0.36875 0.0
O115 O 0.79439 0.68882 0.37505 0.0
C116 C 0.87182 0.67455 0.3655 0.0
O117 O 0.87788 0.69877 0.35398 0.0
O118 O 0.85174 0.67409 0.37833 0.0
C119 C 0.82938 0.74137 0.3399 0.0
Tb120 Tb 0.93315 0.77199 0.8711 0.0
C121 C 0.91101 0.6953 0.86741 0.0
Tb122 Tb 0.85805 0.71929 0.86258 0.0
O123 O 0.93202 0.74912 0.89774 0.0
O124 O 0.88747 0.74432 0.88621 0.0
O125 O 0.93534 0.72677 0.86324 0.0
C126 C 0.79032 0.68396 0.86676 0.0
O127 O 0.87928 0.68761 0.87125 0.0
C128 C 0.89886 0.74111 0.83411 0.0
C129 C 0.87931 0.79708 0.86546 0.0
O130 O 0.80786 0.67331 0.85772 0.0
O131 O 0.81081 0.71391 0.87333 0.0
O132 O 0.87084 0.71166 0.83442 0.0
O133 O 0.9001 0.75749 0.84822 0.0
O134 O 0.85542 0.76599 0.86028 0.0
O135 O 0.91067 0.80479 0.87048 0.0
C136 C -0.00344 0.82461 0.87086 0.0
O137 O 0.97475 0.81692 0.88404 0.0
O138 O 0.98272 0.80249 0.85763 0.0
C139 C 0.89909 0.73471 0.89924 0.0
Tb140 Tb 0.20241 0.14205 0.86425 0.0
C141 C 0.2781 0.20305 0.8625 0.0
Tb142 Tb 0.26114 0.12792 0.85822 0.0
O143 O 0.22057 0.16427 0.89103 0.0
O144 O 0.23162 0.12737 0.8812 0.0
O145 O 0.2457 0.19272 0.8582 0.0
C146 C 0.30518 0.10485 0.8586 0.0
O147 O 0.28908 0.18135 0.86591 0.0
C148 C 0.23887 0.1459 0.82919 0.0
C149 C 0.18565 0.06547 0.86194 0.0
O150 O 0.28518 0.10189 0.84502 0.0
O151 O 0.30085 0.12141 0.87185 0.0
O152 O 0.2706 0.15425 0.83152 0.0
O153 O 0.22171 0.12725 0.84225 0.0
O154 O 0.2187 0.07573 0.86104 0.0
O155 O 0.17369 0.08685 0.86234 0.0
C156 C 0.14608 0.14646 0.86174 0.0
O157 O 0.15258 0.13032 0.87442 0.0
O158 O 0.17152 0.16047 0.85035 0.0
C159 C 0.23759 0.14868 0.89397 0.0
Tb160 Tb 0.83792 0.05461 0.86807 0.0
C161 C 0.77621 0.06779 0.87114 0.0
Tb162 Tb 0.851 0.12608 0.85966 0.0
O163 O 0.83055 0.05868 0.89704 0.0
O164 O 0.86241 0.10272 0.88188 0.0
O165 O 0.78559 0.0443 0.86969 0.0
C166 C 0.86489 0.19086 0.85962 0.0
O167 O 0.79774 0.10104 0.86869 0.0
C168 C 0.83616 0.08531 0.831 0.0
C169 C 0.91032 0.11165 0.85584 0.0
O170 O 0.87201 0.17599 0.84665 0.0
O171 O 0.84889 0.16885 0.87255 0.0
O172 O 0.85404 0.11825 0.82991 0.0
O173 O 0.82479 0.07765 0.84696 0.0
O174 O 0.90265 0.1345 0.86193 0.0
O175 O 0.88633 0.07946 0.8535 0.0
C176 C 0.83922 -0.00352 0.86789 0.0
O177 O 0.86118 0.02452 0.87591 0.0
O178 O 0.81567 0.00069 0.86008 0.0
C179 C 0.84791 0.09175 0.89725 0.0
Tb180 Tb 0.77653 0.93836 0.69044 0.0
C181 C 0.70147 0.9243 0.69436 0.0
Tb182 Tb 0.71932 0.86709 0.70234 0.0
O183 O 0.75492 0.93373 0.66302 0.0
O184 O 0.74566 0.8902 0.67772 0.0
O185 O 0.73446 0.9476 0.69594 0.0
C186 C 0.67516 0.80048 0.70527 0.0
O187 O 0.69019 0.891 0.69379 0.0
C188 C 0.74336 0.91406 0.72794 0.0
C189 C 0.79482 0.88055 0.69928 0.0
O190 O 0.69432 0.82004 0.71847 0.0
O191 O 0.68066 0.8185 0.69048 0.0
O192 O 0.71217 0.88867 0.72769 0.0
O193 O 0.75989 0.91052 0.71514 0.0
O194 O 0.76217 0.8577 0.70191 0.0
O195 O 0.80573 0.9131 0.69569 0.0
C196 C 0.83506 -0.00255 0.68848 0.0
O197 O 0.82642 0.97089 0.67827 0.0
O198 O 0.81016 0.99122 0.69959 0.0
C199 C 0.73725 0.90067 0.66363 0.0
Tb200 Tb 0.04956 0.83971 0.70057 0.0
C201 C 0.06567 0.78039 0.70548 0.0
Tb202 Tb 0.12255 0.85663 0.70883 0.0
O203 O 0.04892 0.81471 0.67506 0.0
O204 O 0.09474 0.85554 0.68502 0.0
O205 O 0.04275 0.79004 0.70847 0.0
C206 C 0.18959 0.88081 0.70821 0.0
O207 O 0.09836 0.80257 0.70233 0.0
C208 C 0.08111 0.83761 0.737 0.0
C209 C 0.10767 0.91751 0.70322 0.0
O210 O 0.17252 0.88177 0.72223 0.0
O211 O 0.16882 0.86568 0.69457 0.0
O212 O 0.10581 0.83099 0.73551 0.0
O213 O 0.08207 0.85576 0.72367 0.0
O214 O 0.13074 0.90822 0.70652 0.0
O215 O 0.0747 0.89526 0.70078 0.0
C216 C 0.98768 0.83282 0.69985 0.0
O217 O 0.00994 0.84531 0.68675 0.0
O218 O 0.00024 0.82414 0.71357 0.0
C219 C 0.08166 0.83288 0.67273 0.0
Tb220 Tb 0.15854 0.21594 0.69269 0.0
C221 C 0.21401 0.29386 0.69649 0.0
Tb222 Tb 0.13492 0.26726 0.70364 0.0
O223 O 0.17226 0.23577 0.66514 0.0
O224 O 0.13441 0.24017 0.67973 0.0
O225 O 0.20814 0.26187 0.69649 0.0
C226 C 0.11259 0.31178 0.70144 0.0
O227 O 0.18927 0.30169 0.69765 0.0
C228 C 0.14692 0.23582 0.73063 0.0
C229 C 0.07908 0.18998 0.69905 0.0
O230 O 0.12856 0.30844 0.71551 0.0
O231 O 0.11005 0.29068 0.68871 0.0
O232 O 0.12561 0.2471 0.73208 0.0
O233 O 0.16174 0.24539 0.71552 0.0
O234 O 0.0852 0.22139 0.70195 0.0
O235 O 0.10337 0.18242 0.69581 0.0
C236 C 0.16844 0.16259 0.69436 0.0
O237 O 0.16539 0.17845 0.7084 0.0
O238 O 0.16671 0.17731 0.6794 0.0
C239 C 0.15316 0.2497 0.66556 0.0
Tb240 Tb 0.78583 0.59924 0.55102 0.0
C241 C 0.77038 0.52357 0.54458 0.0
Tb242 Tb 0.71337 0.54401 0.53915 0.0
O243 O 0.7669 0.60429 0.57779 0.0
O244 O 0.74275 0.55813 0.56352 0.0
O245 O 0.794 0.55596 0.5474 0.0
C246 C 0.65227 0.488 0.53674 0.0
O247 O 0.73755 0.51329 0.54216 0.0
C248 C 0.75103 0.58488 0.51295 0.0
C249 C 0.72895 0.6188 0.5454 0.0
O250 O 0.67714 0.49693 0.52524 0.0
O251 O 0.66152 0.51108 0.54948 0.0
O252 O 0.7179 0.56846 0.51257 0.0
O253 O 0.76119 0.57456 0.52632 0.0
O254 O 0.70545 0.58597 0.5467 0.0
O255 O 0.76216 0.62966 0.54449 0.0
C256 C 0.85279 0.64248 0.5526 0.0
O257 O 0.83529 0.61908 0.56468 0.0
O258 O 0.83246 0.64183 0.53975 0.0
C259 C 0.74078 0.57352 0.57739 0.0
Tb260 Tb 0.38103 0.18942 0.54279 0.0
C261 C 0.45841 0.24596 0.54163 0.0
Tb262 Tb 0.43431 0.16753 0.53365 0.0
O263 O 0.39828 0.19849 0.57178 0.0
O264 O 0.40267 0.16319 0.55563 0.0
O265 O 0.4264 0.23942 0.54161 0.0
C266 C 0.48735 0.15706 0.53411 0.0
O267 O 0.46675 0.22181 0.54 0.0
C268 C 0.40285 0.17464 0.50555 0.0
C269 C 0.35694 0.11079 0.53649 0.0
O270 O 0.47142 0.1586 0.54853 0.0
O271 O 0.47312 0.161 0.51953 0.0
O272 O 0.41584 0.15477 0.50552 0.0
O273 O 0.41129 0.19222 0.5201 0.0
O274 O 0.38918 0.1176 0.5377 0.0
O275 O 0.34824 0.13491 0.53649 0.0
C276 C 0.33432 0.20822 0.53788 0.0
O277 O 0.3399 0.19718 0.55329 0.0
O278 O 0.35466 0.2082 0.52547 0.0
C279 C 0.4105 0.17787 0.57091 0.0
Tb280 Tb 0.79054 0.19347 0.54415 0.0
C281 C 0.72941 0.20827 0.5387 0.0
Tb282 Tb 0.80678 0.26647 0.53721 0.0
O283 O 0.81605 0.20914 0.57108 0.0
O284 O 0.79111 0.2331 0.55984 0.0
O285 O 0.73893 0.18502 0.54031 0.0
C286 C 0.81373 0.32826 0.53804 0.0
O287 O 0.75144 0.24148 0.53798 0.0
C288 C 0.81314 0.23609 0.50826 0.0
C289 C 0.86644 0.25064 0.54044 0.0
O290 O 0.80005 0.30638 0.52478 0.0
O291 O 0.82355 0.31536 0.55106 0.0
O292 O 0.83032 0.26876 0.51102 0.0
O293 O 0.79114 0.22204 0.52079 0.0
O294 O 0.85673 0.27316 0.54441 0.0
O295 O 0.84428 0.21807 0.537 0.0
C296 C 0.76553 0.1262 0.54398 0.0
O297 O 0.75967 0.14312 0.55637 0.0
O298 O 0.78623 0.14733 0.53178 0.0
C299 C 0.80924 0.23359 0.57309 0.0
Tb300 Tb 0.93061 0.46016 0.69767 0.0
C301 C 0.85361 0.4423 0.70499 0.0
Tb302 Tb 0.87363 0.38434 0.70763 0.0
O303 O 0.93458 0.44267 0.67031 0.0
O304 O 0.88848 0.41786 0.68479 0.0
O305 O 0.88607 0.46614 0.70235 0.0
C306 C 0.82124 0.32089 0.70705 0.0
O307 O 0.84301 0.40914 0.70598 0.0
C308 C 0.9091 0.41942 0.73669 0.0
C309 C 0.95095 0.40342 0.70223 0.0
O310 O 0.8276 0.34337 0.71972 0.0
O311 O 0.84462 0.33406 0.69441 0.0
O312 O 0.88537 0.38757 0.73739 0.0
O313 O 0.91045 0.42845 0.72033 0.0
O314 O 0.91806 0.37922 0.70116 0.0
O315 O 0.96159 0.43667 0.7035 0.0
C316 C 0.9721 0.52757 0.69888 0.0
O317 O 0.95827 0.50992 0.68407 0.0
O318 O 0.96302 0.50717 0.71288 0.0
C319 C 0.90355 0.41679 0.6705 0.0
Tb320 Tb 0.52949 0.47114 0.70687 0.0
C321 C 0.5465 0.41338 0.71334 0.0
Tb322 Tb 0.60368 0.49227 0.71749 0.0
O323 O 0.53742 0.45503 0.67965 0.0
O324 O 0.5775 0.49371 0.69398 0.0
O325 O 0.52176 0.42077 0.71208 0.0
C326 C 0.66591 0.49905 0.7168 0.0
O327 O 0.5794 0.43682 0.71433 0.0
C328 C 0.566 0.49277 0.74412 0.0
C329 C 0.58555 0.54976 0.71113 0.0
O330 O 0.64729 0.49325 0.73135 0.0
O331 O 0.64978 0.50189 0.70271 0.0
O332 O 0.59902 0.51263 0.7436 0.0
O333 O 0.55614 0.47165 0.731 0.0
O334 O 0.6104 0.54212 0.7109 0.0
O335 O 0.55247 0.52624 0.71152 0.0
C336 C 0.46444 0.45621 0.70496 0.0
O337 O 0.48551 0.46553 0.69129 0.0
O338 O 0.48031 0.45613 0.71986 0.0
C339 C 0.57026 0.4753 0.68001 0.0
Tb340 Tb 0.5166 0.05794 0.69623 0.0
C341 C 0.5796 0.13213 0.70162 0.0
Tb342 Tb 0.50348 0.11488 0.70798 0.0
O343 O 0.48834 0.05196 0.67059 0.0
O344 O 0.51547 0.09936 0.6833 0.0
O345 O 0.56911 0.09924 0.69978 0.0
C346 C 0.5027 0.17282 0.71156 0.0
O347 O 0.55825 0.14388 0.7036 0.0
C348 C 0.49921 0.07451 0.7348 0.0
C349 C 0.44201 0.04055 0.70312 0.0
O350 O 0.52072 0.16366 0.72137 0.0
O351 O 0.48437 0.149 0.69972 0.0
O352 O 0.48324 0.09157 0.73441 0.0
O353 O 0.51954 0.08331 0.72137 0.0
O354 O 0.45226 0.07348 0.7009 0.0
O355 O 0.46372 0.02906 0.70479 0.0
C356 C 0.53994 0.01507 0.69093 0.0
O357 O 0.54503 0.04003 0.68019 0.0
O358 O 0.52092 0.01368 0.70459 0.0
C359 C 0.49556 0.08352 0.67026 0.0
Tb360 Tb 0.59737 0.1093 0.1965 0.0
C361 C 0.58226 0.03447 0.19213 0.0
Tb362 Tb 0.52509 0.05285 0.18649 0.0
O363 O 0.59553 0.08604 0.22288 0.0
O364 O 0.55054 0.0795 0.21089 0.0
O365 O 0.60536 0.06704 0.18926 0.0
C366 C 0.45851 0.00756 0.185 0.0
O367 O 0.54938 0.02384 0.19441 0.0
C368 C 0.56899 0.07676 0.15928 0.0
C369 C 0.53921 0.12828 0.19085 0.0
O370 O 0.47554 0.03026 0.17253 0.0
O371 O 0.47905 0.01021 0.19823 0.0
O372 O 0.5438 0.04555 0.15998 0.0
O373 O 0.56688 0.09306 0.17263 0.0
O374 O 0.5158 0.09546 0.18944 0.0
O375 O 0.57234 0.13923 0.19259 0.0
C376 C 0.65826 0.16559 0.19919 0.0
O377 O 0.6333 0.15608 0.21067 0.0
O378 O 0.64909 0.14321 0.18606 0.0
C379 C 0.56255 0.07053 0.2241 0.0
Tb380 Tb 0.87382 0.48491 0.2026 0.0
C381 C 0.94909 0.54379 0.19613 0.0
Tb382 Tb 0.92959 0.46705 0.19503 0.0
O383 O 0.89865 0.51085 0.22791 0.0
O384 O 0.90348 0.46978 0.21853 0.0
O385 O 0.91624 0.53384 0.1935 0.0
C386 C 0.97251 0.44311 0.19756 0.0
O387 O 0.95977 0.52188 0.1998 0.0
C388 C 0.90534 0.4833 0.16633 0.0
C389 C 0.8534 0.40683 0.19985 0.0
O390 O 0.9545 0.44092 0.18315 0.0
O391 O 0.96689 0.45943 0.21046 0.0
O392 O 0.93667 0.48958 0.16742 0.0
O393 O 0.8893 0.46688 0.18025 0.0
O394 O 0.88591 0.41554 0.19779 0.0
O395 O 0.8432 0.42956 0.20121 0.0
C396 C 0.81694 0.48824 0.20366 0.0
O397 O 0.82618 0.47321 0.21567 0.0
O398 O 0.84016 0.50219 0.19102 0.0
C399 C 0.91356 0.49307 0.23044 0.0
Tb400 Tb 0.49776 0.38143 0.19799 0.0
C401 C 0.44061 0.4016 0.19462 0.0
Tb402 Tb 0.51696 0.45895 0.19019 0.0
O403 O 0.49369 0.38348 0.22827 0.0
O404 O 0.50596 0.42469 0.21172 0.0
O405 O 0.44908 0.37791 0.19104 0.0
C406 C 0.54635 0.52502 0.198 0.0
O407 O 0.46342 0.43426 0.19779 0.0
C408 C 0.50076 0.41929 0.16137 0.0
C409 C 0.57531 0.44015 0.19634 0.0
O410 O 0.52234 0.50945 0.18575 0.0
O411 O 0.55325 0.50341 0.20574 0.0
O412 O 0.50172 0.44857 0.16097 0.0
O413 O 0.51352 0.41705 0.17631 0.0
O414 O 0.56691 0.46257 0.19002 0.0
O415 O 0.553 0.40834 0.2013 0.0
C416 C 0.49057 0.3205 0.19082 0.0
O417 O 0.51215 0.34898 0.18301 0.0
O418 O 0.47262 0.32617 0.20271 0.0
C419 C 0.50044 0.41507 0.2281 0.0
Tb420 Tb 0.4423 0.27299 1.02678 0.0
C421 C 0.36621 0.25231 1.03429 0.0
Tb422 Tb 0.38948 0.19853 1.03447 0.0
O423 O 0.41637 0.2737 1.00176 0.0
O424 O 0.41309 0.2282 1.01071 0.0
O425 O 0.39864 0.27638 0.03682 0.0
C426 C 0.34896 0.13131 0.03552 0.0
O427 O 0.35705 0.22041 1.03 0.0
C428 C 0.41356 0.2385 0.06337 0.0
C429 C 0.46536 0.21743 1.02567 0.0
O430 O 0.3737 0.14922 0.0469 0.0
O431 O 0.34677 0.15129 1.02342 0.0
O432 O 0.38279 0.21264 0.06235 0.0
O433 O 0.42952 0.23937 0.04914 0.0
O434 O 0.43314 0.19284 1.02758 0.0
O435 O 0.47488 0.25032 1.02602 0.0
C436 C 0.49622 0.33564 1.02705 0.0
O437 O 0.48809 0.31351 1.01393 0.0
O438 O 0.4736 0.32267 0.04 0.0
C439 C 0.40206 0.24107 0.99906 0.0
Tb440 Tb 0.71784 0.17186 1.02021 0.0
C441 C 0.73403 0.11259 1.02658 0.0
Tb442 Tb 0.79245 0.18883 1.03349 0.0
O443 O 0.7262 0.15776 0.99274 0.0
O444 O 0.76727 0.19088 1.00928 0.0
O445 O 0.71016 0.12166 1.02694 0.0
C446 C 0.85958 0.21346 1.03179 0.0
O447 O 0.76753 0.13479 1.02591 0.0
C448 C 0.74914 0.17481 0.06092 0.0
C449 C 0.77395 0.24755 1.03299 0.0
O450 O 0.83937 0.19158 0.04389 0.0
O451 O 0.84181 0.22065 1.02053 0.0
O452 O 0.78081 0.18273 0.0634 0.0
O453 O 0.74538 0.17671 0.04401 0.0
O454 O 0.79817 0.23933 1.03478 0.0
O455 O 0.74155 0.22529 1.02878 0.0
C456 C 0.65746 0.16789 1.01635 0.0
O457 O 0.68395 0.18577 1.00609 0.0
O458 O 0.66479 0.15175 1.02871 0.0
C459 C 0.75922 0.1739 0.9946 0.0
Tb460 Tb 0.81632 0.54373 1.03036 0.0
C461 C 0.87489 0.62085 1.03077 0.0
Tb462 Tb 0.79823 0.59996 0.04014 0.0
O463 O 0.82186 0.55496 1.00105 0.0
O464 O 0.79236 0.56797 1.01758 0.0
O465 O 0.8671 0.58844 1.03275 0.0
C466 C 0.7789 0.64669 0.0377 0.0
O467 O 0.85172 0.63078 1.03164 0.0
C468 C 0.81153 0.57055 0.06763 0.0
C469 C 0.73891 0.52315 0.03874 0.0
O470 O 0.79568 0.64363 0.05145 0.0
O471 O 0.77385 0.62402 1.02538 0.0
O472 O 0.7918 0.58366 0.06924 0.0
O473 O 0.8245 0.5774 0.05198 0.0
O474 O 0.74723 0.55557 0.04032 0.0
O475 O 0.76153 0.51333 1.03542 0.0
C476 C 0.82292 0.48905 0.03555 0.0
O477 O 0.80889 0.50033 0.0469 0.0
O478 O 0.83378 0.5089 1.02125 0.0
C479 C 0.80596 0.57218 1.00195 0.0
Tb480 Tb 0.45655 0.92805 0.87529 0.0
C481 C 0.44158 0.85208 0.8711 0.0
Tb482 Tb 0.38394 0.87121 0.86401 0.0
O483 O 0.43787 0.93587 0.90152 0.0
O484 O 0.41294 0.88857 0.88844 0.0
O485 O 0.46503 0.8849 0.87226 0.0
C486 C 0.32246 0.81506 0.86294 0.0
O487 O 0.40849 0.84111 0.86913 0.0
C488 C 0.42148 0.90933 0.83689 0.0
C489 C 0.39993 0.94702 0.86765 0.0
O490 O 0.34687 0.82287 0.85126 0.0
O491 O 0.33251 0.83916 0.87511 0.0
O492 O 0.38834 0.89243 0.83651 0.0
O493 O 0.43189 0.90098 0.85101 0.0
O494 O 0.37632 0.91431 0.86961 0.0
O495 O 0.43313 0.95779 0.86664 0.0
C496 C 0.52351 0.96981 0.87944 0.0
O497 O 0.504 0.94572 0.8907 0.0
O498 O 0.50525 0.97067 0.86585 0.0
C499 C 0.411 0.90571 0.90145 0.0
Tb500 Tb 0.05021 0.51667 0.88301 0.0
C501 C 0.12652 0.57511 0.87642 0.0
Tb502 Tb 0.10325 0.49664 0.8719 0.0
O503 O 0.04332 0.49307 0.91018 0.0
O504 O 0.08939 0.51168 0.89622 0.0
O505 O 0.09439 0.56743 0.87883 0.0
C506 C 0.15925 0.49189 0.86839 0.0
O507 O 0.13556 0.55156 0.87485 0.0
C508 C 0.06305 0.49323 0.84511 0.0
C509 C 0.02723 0.43931 0.87784 0.0
O510 O 0.15047 0.50932 0.85784 0.0
O511 O 0.13611 0.47644 0.88089 0.0
O512 O 0.07864 0.47581 0.84566 0.0
O513 O 0.07379 0.51472 0.85812 0.0
O514 O 0.05974 0.44724 0.8791 0.0
O515 O 0.01781 0.46271 0.87665 0.0
C516 C 0.0078 0.5415 0.88382 0.0
O517 O 0.03131 0.54774 0.896 0.0
O518 O 0.00807 0.52113 0.87147 0.0
C519 C 0.07266 0.49445 0.90989 0.0
Tb520 Tb 0.45989 0.52225 0.88438 0.0
C521 C 0.40029 0.53875 0.87635 0.0
Tb522 Tb 0.47776 0.59636 0.87532 0.0
O523 O 0.47481 0.5344 0.91338 0.0
O524 O 0.45886 0.56281 0.89782 0.0
O525 O 0.40898 0.51577 0.88095 0.0
C526 C 0.49044 0.66027 0.87898 0.0
O527 O 0.42252 0.57153 0.87385 0.0
C528 C 0.46768 0.55677 0.84682 0.0
C529 C 0.53683 0.57878 0.88213 0.0
O530 O 0.47138 0.63491 0.88966 0.0
O531 O 0.50303 0.64982 0.86617 0.0
O532 O 0.46362 0.58326 0.84638 0.0
O533 O 0.48057 0.55648 0.86212 0.0
O534 O 0.52755 0.60242 0.88303 0.0
O535 O 0.51459 0.54575 0.8797 0.0
C536 C 0.4335 0.45573 0.87832 0.0
O537 O 0.44945 0.47151 0.89328 0.0
O538 O 0.43288 0.47744 0.86694 0.0
C539 C 0.47243 0.56189 0.91284 0.0
Tb540 Tb 0.59603 0.79211 0.03572 0.0
C541 C 0.51889 0.77419 0.0413 0.0
Tb542 Tb 0.53854 0.7165 0.04566 0.0
O543 O 0.60074 0.77338 1.00874 0.0
O544 O 0.55435 0.74958 1.02271 0.0
O545 O 0.55168 0.7982 0.04066 0.0
C546 C 0.4879 0.65219 0.04381 0.0
O547 O 0.50807 0.74094 0.04135 0.0
C548 C 0.57156 0.75202 0.07517 0.0
C549 C 0.61652 0.73623 0.04182 0.0
O550 O 0.49117 0.67427 0.05615 0.0
O551 O 0.51329 0.66623 1.0324 0.0
O552 O 0.54739 0.72031 0.07565 0.0
O553 O 0.57469 0.76097 0.05866 0.0
O554 O 0.58373 0.71195 0.04036 0.0
O555 O 0.62697 0.76941 0.04294 0.0
C556 C 0.63774 0.85954 1.03393 0.0
O557 O 0.62211 0.83972 1.02008 0.0
O558 O 0.63013 0.84134 0.0488 0.0
C559 C 0.56957 0.74787 1.0087 0.0
Tb560 Tb 0.19406 0.80195 1.02956 0.0
C561 C 0.20932 0.74289 0.03986 0.0
Tb562 Tb 0.26707 0.82066 0.04015 0.0
O563 O 0.21112 0.82383 1.00232 0.0
O564 O 0.23584 0.80203 1.01646 0.0
O565 O 0.18617 0.75108 1.03472 0.0
C566 C 0.32901 0.82727 0.04107 0.0
O567 O 0.24194 0.76558 0.04277 0.0
C568 C 0.23271 0.83014 0.06589 0.0
C569 C 0.25094 0.87867 1.03088 0.0
O570 O 0.30833 0.81868 0.0549 0.0
O571 O 0.31499 0.8326 1.0268 0.0
O572 O 0.26569 0.84832 0.06428 0.0
O573 O 0.22087 0.80625 0.05427 0.0
O574 O 0.27411 0.86889 1.02988 0.0
O575 O 0.21796 0.85683 1.03354 0.0
C576 C 0.12717 0.77762 1.02676 0.0
O577 O 0.14574 0.77259 1.0151 0.0
O578 O 0.1463 0.79658 0.0402 0.0
C579 C 0.23656 0.81824 1.0022 0.0
Tb580 Tb 0.18516 0.38698 0.03832 0.0
C581 C 0.25028 0.46061 0.03796 0.0
Tb582 Tb 0.17605 0.44861 0.04449 0.0
O583 O 0.15639 0.37611 1.01233 0.0
O584 O 0.18544 0.42582 1.02189 0.0
O585 O 0.2385 0.42743 0.03974 0.0
C586 C 0.17642 0.50734 0.0438 0.0
O587 O 0.23013 0.47405 0.03768 0.0
C588 C 0.1719 0.41491 0.07453 0.0
C589 C 0.11204 0.37468 0.04368 0.0
O590 O 0.19644 0.50088 0.05367 0.0
O591 O 0.15576 0.48055 1.03422 0.0
O592 O 0.15741 0.43308 0.07222 0.0
O593 O 0.19092 0.41917 0.06096 0.0
O594 O 0.12385 0.40722 0.03921 0.0
O595 O 0.13262 0.36244 0.04734 0.0
C596 C 0.20417 0.34014 0.03783 0.0
O597 O 0.2073 0.3602 1.02434 0.0
O598 O 0.18989 0.34612 0.05165 0.0
C599 C 0.16489 0.40768 1.00955 0.0
Tb600 Tb 0.26191 0.44232 0.53058 0.0
C601 C 0.24049 0.36538 0.52515 0.0
Tb602 Tb 0.18642 0.38897 0.52265 0.0
O603 O 0.26183 0.41888 0.55681 0.0
O604 O 0.21661 0.41413 0.54607 0.0
O605 O 0.26492 0.39755 0.52236 0.0
C606 C 0.11863 0.34945 0.52422 0.0
O607 O 0.20816 0.35652 0.52823 0.0
C608 C 0.2271 0.41079 0.49421 0.0
C609 C 0.20695 0.46628 0.52965 0.0
O610 O 0.13548 0.36753 0.51012 0.0
O611 O 0.13995 0.35332 0.5372 0.0
O612 O 0.20083 0.38019 0.49533 0.0
O613 O 0.22795 0.4278 0.50804 0.0
O614 O 0.18219 0.43448 0.52646 0.0
O615 O 0.23959 0.4751 0.53132 0.0
C616 C 0.32515 0.49556 0.52915 0.0
O617 O 0.30544 0.48619 0.54342 0.0
O618 O 0.30935 0.47474 0.51563 0.0
C619 C 0.22891 0.40395 0.55855 0.0
Tb620 Tb 0.53436 0.81341 0.53158 0.0
C621 C 0.60932 0.87423 0.52743 0.0
Tb622 Tb 0.59229 0.79864 0.52368 0.0
O623 O 0.55616 0.83588 0.55814 0.0
O624 O 0.56442 0.79811 0.54716 0.0
O625 O 0.57651 0.86376 0.52435 0.0
C626 C 0.63636 0.77592 0.52398 0.0
O627 O 0.62075 0.85271 0.53028 0.0
C628 C 0.56856 0.81638 0.49526 0.0
C629 C 0.5167 0.73669 0.52763 0.0
O630 O 0.61278 0.76857 0.51169 0.0
O631 O 0.63564 0.79676 0.53596 0.0
O632 O 0.59989 0.82283 0.49649 0.0
O633 O 0.55214 0.79861 0.50876 0.0
O634 O 0.54976 0.74674 0.52766 0.0
O635 O 0.50501 0.75833 0.5278 0.0
C636 C 0.47812 0.81802 0.53192 0.0
O637 O 0.4863 0.80222 0.54403 0.0
O638 O 0.50178 0.83149 0.51948 0.0
C639 C 0.57257 0.81943 0.56006 0.0
Tb640 Tb 0.1631 0.71967 0.54001 0.0
C641 C 0.10349 0.73603 0.53527 0.0
Tb642 Tb 0.18036 0.79522 0.52923 0.0
O643 O 0.14776 0.72587 0.56726 0.0
O644 O 0.18379 0.76848 0.55255 0.0
O645 O 0.11246 0.71212 0.53476 0.0
C646 C 0.19859 0.86073 0.53137 0.0
O647 O 0.12572 0.76952 0.53515 0.0
C648 C 0.16295 0.75312 0.50085 0.0
C649 C 0.23923 0.77711 0.53007 0.0
O650 O 0.18413 0.83861 0.54451 0.0
O651 O 0.20259 0.8459 0.51716 0.0
O652 O 0.16986 0.78455 0.49923 0.0
O653 O 0.16689 0.74892 0.51741 0.0
O654 O 0.23148 0.8018 0.53069 0.0
O655 O 0.2162 0.74416 0.5315 0.0
C656 C 0.15923 0.65921 0.54182 0.0
O657 O 0.17575 0.68419 0.5533 0.0
O658 O 0.14445 0.66811 0.52941 0.0
C659 C 0.16596 0.75896 0.56697 0.0
Tb660 Tb 0.10645 0.59855 0.36697 0.0
C661 C 0.03178 0.5826 0.37418 0.0
Tb662 Tb 0.05199 0.52619 0.37712 0.0
O663 O 0.07922 0.59688 0.34202 0.0
O664 O 0.07577 0.55211 0.35246 0.0
O665 O 0.06469 0.60593 0.3759 0.0
C666 C 0.01025 0.4593 0.37938 0.0
O667 O 0.02102 0.54966 0.37173 0.0
C668 C 0.07677 0.56934 0.40455 0.0
C669 C 0.12711 0.5414 0.36981 0.0
O670 O 0.03397 0.47782 0.39115 0.0
O671 O 0.00954 0.47858 0.36631 0.0
O672 O 0.04581 0.54367 0.40407 0.0
O673 O 0.09281 0.56817 0.39078 0.0
O674 O 0.09472 0.51784 0.37231 0.0
O675 O 0.13749 0.57436 0.36852 0.0
C676 C 0.16279 0.65874 0.36321 0.0
O677 O 0.15268 0.63295 0.35222 0.0
O678 O 0.14081 0.65099 0.37639 0.0
C679 C 0.06465 0.56406 0.34035 0.0
Tb680 Tb 0.3787 0.49672 0.35931 0.0
C681 C 0.39654 0.4389 0.3659 0.0
Tb682 Tb 0.45217 0.51575 0.36947 0.0
O683 O 0.38026 0.47425 0.33312 0.0
O684 O 0.42518 0.513 0.34504 0.0
O685 O 0.37282 0.44779 0.36791 0.0
C686 C 0.51964 0.54232 0.37153 0.0
O687 O 0.42935 0.46156 0.36337 0.0
C688 C 0.40867 0.49681 0.39669 0.0
C689 C 0.43507 0.575 0.36253 0.0
O690 O 0.50053 0.54299 0.38454 0.0
O691 O 0.50072 0.52633 0.35745 0.0
O692 O 0.43406 0.49109 0.3963 0.0
O693 O 0.41008 0.51414 0.38287 0.0
O694 O 0.45906 0.56669 0.36523 0.0
O695 O 0.40219 0.55197 0.36076 0.0
C696 C 0.31652 0.48911 0.35846 0.0
O697 O 0.33954 0.50366 0.34584 0.0
O698 O 0.32836 0.47836 0.37159 0.0
C699 C 0.41334 0.49109 0.33231 0.0
Tb700 Tb 0.48114 0.87433 0.35396 0.0
C701 C 0.54108 0.95053 0.35854 0.0
Tb702 Tb 0.46386 0.9294 0.36648 0.0
O703 O 0.49053 0.89158 0.32554 0.0
O704 O 0.45853 0.90104 0.34235 0.0
O705 O 0.53246 0.91771 0.35814 0.0
C706 C 0.44856 0.97914 0.36784 0.0
O707 O 0.51835 0.96081 0.36047 0.0
C708 C 0.47393 0.89502 0.39256 0.0
C709 C 0.40346 0.85445 0.36079 0.0
O710 O 0.45548 0.96598 0.38192 0.0
O711 O 0.45113 0.96485 0.35299 0.0
O712 O 0.45443 0.90824 0.39453 0.0
O713 O 0.4886 0.90429 0.37735 0.0
O714 O 0.41225 0.88661 0.36393 0.0
O715 O 0.42562 0.84432 0.35686 0.0
C716 C 0.48526 0.81781 0.35755 0.0
O717 O 0.47273 0.82962 0.36953 0.0
O718 O 0.49597 0.83812 0.34341 0.0
C719 C 0.47425 0.90835 0.32721 0.0
H720 H 0.0713 0.12351 0.21704 0.0
H721 H 0.17388 0.20184 0.20305 0.0
H722 H 0.08953 0.08132 0.21757 0.0
H723 H 0.19207 0.1592 0.20357 0.0
H724 H 0.18869 0.05788 0.18235 0.0
H725 H 0.17918 0.10644 0.18464 0.0
H726 H 0.12822 0.06802 0.2365 0.0
H727 H 0.13771 0.01963 0.23422 0.0
C728 C 0.09776 0.13177 0.21408 0.0
C729 C 0.12111 0.16606 0.20996 0.0
C730 C 0.10826 0.10761 0.21455 0.0
C731 C 0.14227 0.11704 0.21075 0.0
C732 C 0.16568 0.15126 0.20653 0.0
C733 C 0.15526 0.17562 0.20628 0.0
C734 C 0.17611 0.06027 0.1944 0.0
C735 C 0.16364 0.03494 0.20803 0.0
C736 C 0.17073 0.08805 0.19573 0.0
C737 C 0.15257 0.09071 0.21063 0.0
C738 C 0.14183 0.0663 0.22473 0.0
C739 C 0.14743 0.03874 0.22347 0.0
H740 H 0.96496 0.10797 0.17918 0.0
H741 H 0.94164 0.12782 0.23365 0.0
H742 H 0.91488 0.05112 0.17989 0.0
H743 H 0.89115 0.07031 0.23439 0.0
H744 H 0.78813 0.96988 0.21886 0.0
H745 H 0.83277 0.03022 0.2177 0.0
H746 H 0.90529 0.00105 0.19966 0.0
H747 H 0.86135 0.9414 0.20075 0.0
C748 C 0.94885 0.10026 0.19123 0.0
C749 C 0.95725 0.122 0.20645 0.0
C750 C 0.92026 0.06773 0.19164 0.0
C751 C 0.8995 0.05628 0.20728 0.0
C752 C 0.90678 0.07866 0.22216 0.0
C753 C 0.93562 0.11139 0.22176 0.0
C754 C 0.81361 0.97644 0.21462 0.0
C755 C 0.82118 0.95086 0.20985 0.0
C756 C 0.83909 0.01088 0.21405 0.0
C757 C 0.87228 0.02016 0.20844 0.0
C758 C 0.87976 -0.00542 0.20378 0.0
C759 C 0.85457 0.96037 0.20452 0.0
H760 H 0.02027 0.82414 0.21606 0.0
H761 H 0.04883 0.92757 0.20114 0.0
H762 H 0.96039 0.80936 0.21753 0.0
H763 H 0.98918 0.9126 0.20261 0.0
H764 H 0.8798 0.86095 0.18108 0.0
H765 H 0.93843 0.87265 0.18224 0.0
H766 H 0.92038 0.82551 0.23574 0.0
H767 H 0.86112 0.81388 0.23465 0.0
C768 C 0.01386 0.84376 0.21321 0.0
C769 C 0.0393 0.87696 0.20829 0.0
C770 C 0.97964 0.83529 0.21417 0.0
C771 C 0.97027 0.85977 0.21001 0.0
C772 C -0.00424 0.89316 0.20565 0.0
C773 C 0.02993 0.90173 0.20488 0.0
C774 C 0.88818 0.85279 0.19304 0.0
C775 C 0.86606 0.83662 0.20782 0.0
C776 C 0.92179 0.8597 0.19374 0.0
C777 C 0.93395 0.85038 0.20917 0.0
C778 C 0.91151 0.83295 0.2237 0.0
C779 C 0.87775 0.82629 0.22307 0.0
H780 H 0.18881 0.16162 0.3612 0.0
H781 H 0.11808 0.06049 0.38138 0.0
H782 H 0.14429 0.17699 0.36365 0.0
H783 H 0.07394 0.07586 0.38367 0.0
H784 H 0.01449 0.12409 0.40454 0.0
H785 H 0.06296 0.11471 0.4028 0.0
H786 H 0.08722 0.16081 0.34893 0.0
H787 H 0.03859 0.17043 0.35075 0.0
C788 C 0.16385 0.14268 0.36614 0.0
C789 C 0.15705 0.10983 0.37113 0.0
C790 C 0.13837 0.15147 0.36746 0.0
C791 C 0.10577 0.1277 0.37397 0.0
C792 C 0.09899 0.09488 0.37887 0.0
C793 C 0.12428 0.08602 0.37743 0.0
C794 C 0.03042 0.13258 0.39242 0.0
C795 C 0.0228 0.1478 0.37774 0.0
C796 C 0.05801 0.12704 0.39138 0.0
C797 C 0.0786 0.13668 0.37564 0.0
C798 C 0.07185 0.15326 0.36125 0.0
C799 C 0.04405 0.15869 0.36227 0.0
H800 H 0.78717 0.84938 0.36109 0.0
H801 H 0.87742 0.88834 0.39514 0.0
H802 H 0.79128 0.90541 0.36175 0.0
H803 H 0.8832 0.94432 0.39482 0.0
H804 H 0.87845 0.03722 0.40387 0.0
H805 H 0.86261 0.97747 0.40598 0.0
H806 H 0.82196 0.96099 0.35058 0.0
H807 H 0.83538 0.02039 0.34935 0.0
C808 C 0.8079 0.87003 0.36863 0.0
C809 C 0.83182 0.86469 0.37818 0.0
C810 C 0.81046 0.90215 0.36894 0.0
C811 C 0.83743 0.92956 0.37848 0.0
C812 C 0.86142 0.92384 0.38782 0.0
C813 C 0.85836 0.89173 0.38787 0.0
C814 C 0.8656 0.02049 0.39233 0.0
C815 C 0.85826 0.03305 0.37643 0.0
C816 C 0.8568 0.98635 0.3934 0.0
C817 C 0.84175 0.96438 0.37827 0.0
C818 C 0.83325 0.9769 0.36257 0.0
C819 C 0.8411 0.01093 0.36177 0.0
H820 H 0.96433 0.78371 0.36471 0.0
H821 H 0.93966 0.85883 0.38431 0.0
H822 H 0.02532 0.82662 0.36613 0.0
H823 H 2e-05 0.90111 0.38573 0.0
H824 H 0.10854 0.95897 0.4046 0.0
H825 H 0.05091 0.90983 0.40456 0.0
H826 H 0.06599 0.88413 0.34966 0.0
H827 H 0.1241 0.93361 0.3497 0.0
C828 C 0.97188 0.80924 0.36938 0.0
C829 C 0.94717 0.81787 0.3744 0.0
C830 C 0.0067 0.83374 0.3701 0.0
C831 C 0.01731 0.86704 0.37616 0.0
C832 C -0.00742 0.8755 0.38125 0.0
C833 C 0.95796 0.85129 0.3803 0.0
C834 C 0.09978 0.94254 0.39263 0.0
C835 C 0.12055 0.95018 0.37708 0.0
C836 C 0.06678 0.91451 0.39259 0.0
C837 C 0.05391 0.89348 0.37703 0.0
C838 C 0.07538 0.89991 0.36185 0.0
C839 C 0.1085 0.92819 0.36185 0.0
H840 H 0.83275 0.8036 0.84415 0.0
H841 H 0.90679 0.85237 0.88767 0.0
H842 H 0.82159 0.85117 0.84402 0.0
H843 H 0.89438 0.89853 0.88842 0.0
H844 H 0.89715 -0.00527 0.87296 0.0
H845 H 0.90539 0.94597 0.87144 0.0
H846 H 0.79786 0.88048 0.85943 0.0
H847 H 0.79028 0.93047 0.85985 0.0
C848 C 0.84632 0.82433 0.85381 0.0
C849 C 0.87101 0.82465 0.86571 0.0
C850 C 0.8398 0.85147 0.85384 0.0
C851 C 0.85742 0.87907 0.86602 0.0
C852 C 0.88111 0.87842 0.8784 0.0
C853 C 0.88813 0.85181 0.87807 0.0
C854 C 0.87526 0.9699 0.86999 0.0
C855 C 0.84302 0.96617 0.86672 0.0
C856 C 0.87989 0.94181 0.86925 0.0
C857 C 0.85217 0.909 0.86569 0.0
C858 C 0.81984 0.90535 0.86212 0.0
C859 C 0.81538 0.93383 0.86247 0.0
H860 H 0.11974 0.036 0.87303 0.0
H861 H 0.19502 0.01169 0.85322 0.0
H862 H 0.07827 0.97562 0.87545 0.0
H863 H 0.15276 0.95059 0.85557 0.0
H864 H 0.04096 0.85059 0.84199 0.0
H865 H 0.09101 0.90825 0.83993 0.0
H866 H 0.07584 0.92741 0.89617 0.0
H867 H 0.02629 0.8703 0.89827 0.0
C868 C 0.12744 0.01778 0.86912 0.0
C869 C 0.1607 0.02862 0.86297 0.0
C870 C 0.10372 0.9832 0.87062 0.0
C871 C 0.11254 0.95863 0.86585 0.0
C872 C 0.14551 0.96921 0.85935 0.0
C873 C 0.16959 0.00404 0.85809 0.0
C874 C 0.04892 0.86694 0.854 0.0
C875 C 0.02969 0.85634 0.87022 0.0
C876 C 0.07748 0.89975 0.85283 0.0
C877 C 0.08682 0.92219 0.86783 0.0
C878 C 0.06881 0.91064 0.88437 0.0
C879 C 0.04054 0.878 0.88556 0.0
H880 H 0.93398 0.0688 0.84731 0.0
H881 H 0.96819 0.17485 0.85889 0.0
H882 H -0.00715 0.08138 0.84734 0.0
H883 H 0.02767 0.18729 0.85862 0.0
H884 H 0.12871 0.18115 0.837 0.0
H885 H 0.07239 0.17673 0.8335 0.0
H886 H 0.0342 0.10579 0.87875 0.0
H887 H 0.08998 0.11057 0.88251 0.0
C888 C 0.95402 0.09494 0.84954 0.0
C889 C 0.94632 0.12078 0.85333 0.0
C890 C 0.98772 0.10204 0.84954 0.0
C891 C 0.01449 0.13518 0.85307 0.0
C892 C 0.00725 0.16156 0.85579 0.0
C893 C 0.9733 0.15438 0.85602 0.0
C894 C 0.1083 0.16499 0.8463 0.0
C895 C 0.11351 0.14612 0.85999 0.0
C896 C 0.07631 0.16256 0.84432 0.0
C897 C 0.04923 0.14081 0.85582 0.0
C898 C 0.05477 0.12257 0.86969 0.0
C899 C 0.08665 0.12536 0.87183 0.0
H900 H 0.86115 0.91748 0.68885 0.0
H901 H 0.78729 0.81946 0.71139 0.0
H902 H 0.90402 0.90045 0.68914 0.0
H903 H 0.83103 0.80244 0.71165 0.0
H904 H 0.94172 0.8161 0.72783 0.0
H905 H 0.8913 0.82323 0.7279 0.0
H906 H 0.91014 0.85537 0.67122 0.0
H907 H 0.96014 0.84848 0.67115 0.0
C908 C 0.85399 0.89228 0.69393 0.0
C909 C 0.82068 0.86976 0.70004 0.0
C910 C 0.8786 0.88248 0.69397 0.0
C911 C 0.87065 0.85003 0.70022 0.0
C912 C 0.83765 0.8276 0.70674 0.0
C913 C 0.81271 0.83731 0.70652 0.0
C914 C 0.93459 0.82409 0.71534 0.0
C915 C 0.95491 0.8322 0.69955 0.0
C916 C 0.90579 0.82802 0.71536 0.0
C917 C 0.89724 0.84025 0.69963 0.0
C918 C 0.91653 0.84638 0.68359 0.0
C919 C 0.94508 0.8424 0.68356 0.0
H920 H 0.1745 0.13045 0.72464 0.0
H921 H 0.15733 0.11923 0.66604 0.0
H922 H 0.16286 0.07152 0.72656 0.0
H923 H 0.1452 0.06028 0.66801 0.0
H924 H 0.07497 0.94721 0.68655 0.0
H925 H 0.09439 0.00797 0.68393 0.0
H926 H 0.18587 0.03203 0.71439 0.0
H927 H 0.16675 0.97111 0.71684 0.0
C928 C 0.16883 0.11556 0.71216 0.0
C929 C 0.16671 0.12925 0.6952 0.0
C930 C 0.1622 0.08192 0.71325 0.0
C931 C 0.15282 0.06135 0.69745 0.0
C932 C 0.15205 0.07555 0.68041 0.0
C933 C 0.1592 0.10929 0.67927 0.0
C934 C 0.09922 0.9654 0.6927 0.0
C935 C 0.1193 0.95434 0.70192 0.0
C936 C 0.11043 0.00017 0.69107 0.0
C937 C 0.14169 0.02461 0.69887 0.0
C938 C 0.16166 0.01365 0.70827 0.0
C939 C 0.15073 0.97883 0.70962 0.0
H940 H 0.85596 0.06198 0.70117 0.0
H941 H 0.8928 -0.00152 0.67866 0.0
H942 H 0.91461 0.1097 0.70319 0.0
H943 H 0.95107 0.04437 0.68211 0.0
H944 H 0.05212 0.13811 0.67457 0.0
H945 H -0.00711 0.09395 0.67101 0.0
H946 H 0.96618 0.13412 0.71804 0.0
H947 H 0.02542 0.18021 0.72034 0.0
C948 C 0.87672 0.05831 0.69675 0.0
C949 C 0.86998 0.02687 0.68952 0.0
C950 C 0.91042 0.08547 0.69809 0.0
C951 C 0.93808 0.08132 0.69274 0.0
C952 C 0.93086 0.04935 0.68582 0.0
C953 C 0.89729 0.02275 0.68395 0.0
C954 C 0.03349 0.13735 0.68414 0.0
C955 C 0.04326 0.1623 0.69781 0.0
C956 C -0.0006 0.11182 0.68223 0.0
C957 C 0.97428 0.1098 0.69437 0.0
C958 C 0.98436 0.13489 0.70818 0.0
C959 C 0.0184 0.16116 0.70968 0.0
H960 H 0.83287 0.37343 0.56668 0.0
H961 H 0.7965 0.35686 0.51057 0.0
H962 H 0.82677 0.42433 0.56823 0.0
H963 H 0.7907 0.40738 0.51207 0.0
H964 H 0.73202 0.4583 0.53257 0.0
H965 H 0.74783 0.41459 0.53099 0.0
H966 H 0.84745 0.48478 0.5533 0.0
H967 H 0.83162 0.52926 0.55498 0.0
C968 C 0.82421 0.38106 0.55462 0.0
C969 C 0.81471 0.36114 0.53859 0.0
C970 C 0.82086 0.41013 0.55548 0.0
C971 C 0.80787 0.41939 0.54033 0.0
C972 C 0.80028 0.40045 0.52402 0.0
C973 C 0.80365 0.3716 0.52316 0.0
C974 C 0.75733 0.46463 0.53719 0.0
C975 C 0.78061 0.49734 0.54386 0.0
C976 C 0.76643 0.43958 0.53616 0.0
C977 C 0.79895 0.44649 0.54185 0.0
C978 C 0.82221 0.47894 0.54883 0.0
C979 C 0.8132 0.50432 0.54969 0.0
H980 H 0.45302 0.30269 0.54802 0.0
H981 H 0.52669 0.27091 0.53663 0.0
H982 H 0.49847 0.36232 0.54682 0.0
H983 H 0.57186 0.33038 0.53555 0.0
H984 H 0.63408 0.43702 0.5121 0.0
H985 H 0.5862 0.37881 0.51398 0.0
H986 H 0.55258 0.40434 0.56382 0.0
H987 H 0.60073 0.46293 0.56189 0.0
C988 C 0.47887 0.30835 0.54539 0.0
C989 C 0.48616 0.28199 0.5423 0.0
C990 C 0.50488 0.3425 0.54477 0.0
C991 C 0.53857 0.35092 0.5409 0.0
C992 C 0.54598 0.3246 0.53826 0.0
C993 C 0.5201 0.29051 0.53901 0.0
C994 C 0.61623 0.43032 0.52333 0.0
C995 C 0.62104 0.45434 0.53687 0.0
C996 C 0.58901 0.39696 0.52449 0.0
C997 C 0.56597 0.38699 0.53917 0.0
C998 C 0.56996 0.4114 0.55234 0.0
C999 C 0.59742 0.44484 0.55124 0.0
H1000 H 0.51977 0.14809 0.56353 0.0
H1001 H 0.52835 0.16661 0.50506 0.0
H1002 H 0.57763 0.15618 0.56414 0.0
H1003 H 0.5861 0.17515 0.50575 0.0
H1004 H 0.7003 0.24276 0.52382 0.0
H1005 H 0.6398 0.22491 0.52221 0.0
H1006 H 0.61466 0.1306 0.54957 0.0
H1007 H 0.67552 0.14818 0.55097 0.0
C1008 C 0.53381 0.1533 0.5508 0.0
C1009 C 0.51982 0.15695 0.53427 0.0
C1010 C 0.56677 0.15782 0.55114 0.0
C1011 C 0.58626 0.16654 0.53501 0.0
C1012 C 0.57162 0.1687 0.51838 0.0
C1013 C 0.53859 0.16371 0.51799 0.0
C1014 C 0.68193 0.21817 0.52946 0.0
C1015 C 0.69264 0.19687 0.53753 0.0
C1016 C 0.64732 0.20789 0.52842 0.0
C1017 C 0.6227 0.17636 0.5357 0.0
C1018 C 0.63326 0.15504 0.54388 0.0
C1019 C 0.66797 0.16505 0.5446 0.0
H1020 H 0.85895 0.50328 0.69491 0.0
H1021 H 0.78962 0.40572 0.71941 0.0
H1022 H 0.81589 0.52057 0.69827 0.0
H1023 H 0.74701 0.42318 0.72286 0.0
H1024 H 0.69364 0.4791 0.74395 0.0
H1025 H 0.74086 0.46768 0.74138 0.0
H1026 H 0.75568 0.50131 0.68494 0.0
H1027 H 0.70809 0.51241 0.68745 0.0
C1028 C 0.83462 0.48557 0.70104 0.0
C1029 C 0.82772 0.45307 0.70685 0.0
C1030 C 0.80997 0.49545 0.7029 0.0
C1031 C 0.77819 0.47329 0.71092 0.0
C1032 C 0.77142 0.44094 0.71682 0.0
C1033 C 0.79577 0.43086 0.7147 0.0
C1034 C 0.7073 0.48451 0.73108 0.0
C1035 C 0.6972 0.49656 0.71589 0.0
C1036 C 0.73416 0.47777 0.72958 0.0
C1037 C 0.75177 0.48337 0.71292 0.0
C1038 C 0.74266 0.49691 0.69796 0.0
C1039 C 0.71544 0.50321 0.69939 0.0
H1040 H 0.55814 0.23024 0.72309 0.0
H1041 H 0.45641 0.1921 0.70152 0.0
H1042 H 0.56722 0.28756 0.72349 0.0
H1043 H 0.46403 0.24945 0.70339 0.0
H1044 H 0.50156 0.36201 0.69126 0.0
H1045 H 0.4894 0.3031 0.69093 0.0
H1046 H 0.55624 0.32489 0.73802 0.0
H1047 H 0.57046 0.3842 0.73701 0.0
C1048 C 0.53741 0.23419 0.71879 0.0
C1049 C 0.50656 0.20694 0.71235 0.0
C1050 C 0.54242 0.26711 0.71919 0.0
C1051 C 0.51624 0.27348 0.71374 0.0
C1052 C 0.48505 0.24584 0.70745 0.0
C1053 C 0.48046 0.21291 0.70651 0.0
C1054 C 0.51354 0.35391 0.70147 0.0
C1055 C 0.53719 0.37739 0.71402 0.0
C1056 C 0.50641 0.32009 0.70143 0.0
C1057 C 0.52206 0.30894 0.71432 0.0
C1058 C 0.54454 0.3325 0.72742 0.0
C1059 C 0.55252 0.36648 0.72702 0.0
H1060 H 0.77746 0.29048 0.7349 0.0
H1061 H 0.79384 0.27666 0.67792 0.0
H1062 H 0.72025 0.24108 0.73324 0.0
H1063 H 0.73587 0.22667 0.67627 0.0
H1064 H 0.6324 0.12255 0.69089 0.0
H1065 H 0.69377 0.16463 0.6919 0.0
H1066 H 0.67106 0.23954 0.71372 0.0
H1067 H 0.61042 0.19825 0.71266 0.0
C1068 C 0.76899 0.27643 0.7221 0.0
C1069 C 0.78975 0.28752 0.70646 0.0
C1070 C 0.73627 0.24823 0.72116 0.0
C1071 C 0.72363 0.23054 0.70457 0.0
C1072 C 0.7452 0.24 0.68922 0.0
C1073 C 0.7782 0.26848 0.69015 0.0
C1074 C 0.64061 0.14804 0.69588 0.0
C1075 C 0.61658 0.15705 0.70177 0.0
C1076 C 0.6756 0.17203 0.69636 0.0
C1077 C 0.68694 0.20506 0.70305 0.0
C1078 C 0.66291 0.21405 0.70873 0.0
C1079 C 0.62816 0.1904 0.70803 0.0
H1080 H 0.58007 0.19702 0.18744 0.0
H1081 H 0.47404 0.11827 0.19201 0.0
H1082 H 0.56324 0.24002 0.18565 0.0
H1083 H 0.45719 0.16189 0.19011 0.0
H1084 H 0.45611 0.26167 0.21078 0.0
H1085 H 0.46413 0.21202 0.20941 0.0
H1086 H 0.53263 0.2574 0.1636 0.0
H1087 H 0.52495 0.30688 0.16511 0.0
C1088 C 0.55312 0.1888 0.18805 0.0
C1089 C 0.52841 0.15414 0.18988 0.0
C1090 C 0.54347 0.2135 0.18685 0.0
C1091 C 0.50888 0.20426 0.18754 0.0
C1092 C 0.48404 0.16967 0.18955 0.0
C1093 C 0.49371 0.14477 0.19058 0.0
C1094 C 0.47232 0.2606 0.20022 0.0
C1095 C 0.49032 0.28819 0.18822 0.0
C1096 C 0.47683 0.23221 0.1994 0.0
C1097 C 0.49944 0.23118 0.1866 0.0
C1098 C 0.51558 0.25785 0.17384 0.0
C1099 C 0.51108 0.28609 0.17466 0.0
H1100 H 0.78639 0.37973 0.20872 0.0
H1101 H 0.86016 0.35117 0.19179 0.0
H1102 H 0.7421 0.32016 0.20897 0.0
H1103 H 0.81528 0.29095 0.19219 0.0
H1104 H 0.71004 0.19365 0.17404 0.0
H1105 H 0.76001 0.25143 0.17474 0.0
H1106 H 0.72823 0.26883 0.22751 0.0
H1107 H 0.67853 0.21169 0.22671 0.0
C1108 C 0.79325 0.36075 0.2051 0.0
C1109 C 0.8269 0.37027 0.20026 0.0
C1110 C 0.76783 0.32654 0.20536 0.0
C1111 C 0.77531 0.30091 0.20074 0.0
C1112 C 0.80884 0.31025 0.19577 0.0
C1113 C 0.83451 0.34466 0.19564 0.0
C1114 C 0.71414 0.20977 0.18586 0.0
C1115 C 0.69039 0.19846 0.20024 0.0
C1116 C 0.74271 0.2427 0.1863 0.0
C1117 C 0.74773 0.2647 0.20108 0.0
C1118 C 0.72469 0.25264 0.2158 0.0
C1119 C 0.69633 0.21989 0.21537 0.0
H1120 H 0.79658 0.52782 0.18516 0.0
H1121 H 0.76092 0.44068 0.22102 0.0
H1122 H 0.73913 0.52039 0.18445 0.0
H1123 H 0.70356 0.43134 0.21924 0.0
H1124 H 0.60712 0.43187 0.22564 0.0
H1125 H 0.66705 0.44866 0.22857 0.0
H1126 H 0.68448 0.48769 0.17292 0.0
H1127 H 0.62489 0.47346 0.17086 0.0
C1128 C 0.77635 0.50707 0.19283 0.0
C1129 C 0.78304 0.48504 0.20329 0.0
C1130 C 0.74337 0.50253 0.19231 0.0
C1131 C 0.71642 0.47532 0.20188 0.0
C1132 C 0.72353 0.45325 0.21217 0.0
C1133 C 0.75649 0.45838 0.21308 0.0
C1134 C 0.62401 0.44431 0.21415 0.0
C1135 C 0.61166 0.45117 0.198 0.0
C1136 C 0.65832 0.45371 0.21571 0.0
C1137 C 0.68079 0.46898 0.20085 0.0
C1138 C 0.66829 0.47641 0.18476 0.0
C1139 C 0.6341 0.468 0.18347 0.0
H1140 H 0.6418 0.20349 0.99205 0.0
H1141 H 0.6028 0.13753 0.03937 0.0
H1142 H 0.59329 0.21295 0.99304 0.0
H1143 H 0.55432 0.14731 0.04053 0.0
H1144 H 0.45801 0.15363 1.02759 0.0
H1145 H 0.50225 0.13831 1.02379 0.0
H1146 H 0.5769 0.24424 1.01447 0.0
H1147 H 0.5329 0.25959 1.01803 0.0
C1148 C 0.6226 0.19071 1.00253 0.0
C1149 C 0.62603 0.16993 1.0157 0.0
C1150 C 0.59498 0.19629 1.00317 0.0
C1151 C 0.57024 0.18118 1.01698 0.0
C1152 C 0.57289 0.15914 1.02966 0.0
C1153 C 0.60063 0.15361 1.02904 0.0
C1154 C 0.48383 0.17364 1.02465 0.0
C1155 C 0.4919 0.20786 1.02313 0.0
C1156 C 0.50916 0.16485 1.02256 0.0
C1157 C 0.54297 0.19004 1.01876 0.0
C1158 C 0.55095 0.22417 1.01711 0.0
C1159 C 0.52574 0.233 1.01929 0.0
H1160 H 0.83797 0.30363 1.03151 0.0
H1161 H 0.73193 0.27332 0.03977 0.0
H1162 H 0.85352 0.36357 1.03379 0.0
H1163 H 0.74764 0.33315 0.04215 0.0
H1164 H 0.79169 0.44202 0.06239 0.0
H1165 H 0.78231 0.38402 0.06343 0.0
H1166 H 0.84105 0.40327 1.01382 0.0
H1167 H 0.85023 0.46136 1.01268 0.0
C1168 C 0.81803 0.30971 1.03399 0.0
C1169 C 0.78368 0.28372 1.03542 0.0
C1170 C 0.82696 0.34401 1.0352 0.0
C1171 C 0.80179 0.35292 0.03817 0.0
C1172 C 0.76759 0.32695 0.04003 0.0
C1173 C 0.75859 0.29271 0.03855 0.0
C1174 C 0.80299 0.43401 0.05185 0.0
C1175 C 0.82149 0.45599 0.03738 0.0
C1176 C 0.79748 0.40081 0.05241 0.0
C1177 C 0.81072 0.38915 0.03863 0.0
C1178 C 0.83071 0.41172 1.02466 0.0
C1179 C 0.83589 0.44486 1.02398 0.0
H1180 H 0.5461 0.36157 1.00155 0.0
H1181 H 0.52077 0.38072 0.05569 0.0
H1182 H 0.60427 0.40888 1.00535 0.0
H1183 H 0.57937 0.42846 0.05947 0.0
H1184 H 0.68411 0.53066 0.04757 0.0
H1185 H 0.62349 0.48763 0.0449 0.0
H1186 H 0.6507 0.41335 1.0275 0.0
H1187 H 0.7109 0.45579 1.03016 0.0
C1188 C 0.55286 0.3763 1.01414 0.0
C1189 C 0.52917 0.36746 1.02838 0.0
C1190 C 0.58615 0.40319 1.01635 0.0
C1191 C 0.59629 0.42185 1.0328 0.0
C1192 C 0.57206 0.41437 0.04666 0.0
C1193 C 0.53867 0.38718 0.0445 0.0
C1194 C 0.67715 0.50506 0.04332 0.0
C1195 C 0.70236 0.49674 0.03893 0.0
C1196 C 0.6425 0.48051 0.04184 0.0
C1197 C 0.63261 0.44746 0.03574 0.0
C1198 C 0.65776 0.43888 1.03193 0.0
C1199 C 0.69224 0.46319 1.03358 0.0
H1200 H 0.50624 0.86165 0.86754 0.0
H1201 H 0.40155 0.78419 0.878 0.0
H1202 H 0.52361 0.81849 0.87049 0.0
H1203 H 0.41899 0.74163 0.88104 0.0
H1204 H 0.46396 0.68207 0.90526 0.0
H1205 H 0.45605 0.73144 0.90401 0.0
H1206 H 0.51122 0.76252 0.85287 0.0
H1207 H 0.5191 0.71267 0.85408 0.0
C1208 C 0.48699 0.83552 0.87048 0.0
C1209 C 0.45251 0.82635 0.87255 0.0
C1210 C 0.49695 0.81089 0.87211 0.0
C1211 C 0.47268 0.77688 0.87616 0.0
C1212 C 0.4383 0.76779 0.87817 0.0
C1213 C 0.42829 0.79216 0.87629 0.0
C1214 C 0.47494 0.69974 0.89391 0.0
C1215 C 0.49177 0.69341 0.87964 0.0
C1216 C 0.47029 0.7279 0.89317 0.0
C1217 C 0.48255 0.75042 0.8782 0.0
C1218 C 0.50154 0.74549 0.86456 0.0
C1219 C 0.50602 0.71705 0.86524 0.0
H1220 H 0.12126 0.63276 0.88058 0.0
H1221 H 0.19366 0.59965 0.8685 0.0
H1222 H 0.16649 0.69221 0.87654 0.0
H1223 H 0.2383 0.65852 0.86464 0.0
H1224 H 0.3016 0.76196 0.83932 0.0
H1225 H 0.25218 0.70481 0.84229 0.0
H1226 H 0.22207 0.7359 0.89147 0.0
H1227 H 0.27159 0.79341 0.88837 0.0
C1228 C 0.14673 0.63808 0.87714 0.0
C1229 C 0.15373 0.61135 0.87481 0.0
C1230 C 0.1726 0.67211 0.87488 0.0
C1231 C 0.20583 0.67998 0.87007 0.0
C1232 C 0.21282 0.65327 0.868 0.0
C1233 C 0.18717 0.61945 0.87036 0.0
C1234 C 0.28418 0.75671 0.85062 0.0
C1235 C 0.29046 0.78196 0.86367 0.0
C1236 C 0.25601 0.72396 0.8524 0.0
C1237 C 0.23349 0.71577 0.86725 0.0
C1238 C 0.23891 0.74151 0.87985 0.0
C1239 C 0.26725 0.77434 0.87811 0.0
H1240 H 0.37093 0.55213 0.84766 0.0
H1241 H 0.34836 0.49991 0.89969 0.0
H1242 H 0.31116 0.53544 0.84379 0.0
H1243 H 0.28887 0.48563 0.89689 0.0
H1244 H 0.17824 0.44863 0.88373 0.0
H1245 H 0.23541 0.45548 0.88398 0.0
H1246 H 0.27317 0.55012 0.85382 0.0
H1247 H 0.21602 0.54147 0.85238 0.0
C1248 C 0.35299 0.53731 0.85835 0.0
C1249 C 0.36397 0.52748 0.87401 0.0
C1250 C 0.31874 0.52795 0.85628 0.0
C1251 C 0.29492 0.50968 0.87019 0.0
C1252 C 0.30609 0.49926 0.88574 0.0
C1253 C 0.34023 0.50767 0.88748 0.0
C1254 C 0.19887 0.47048 0.87692 0.0
C1255 C 0.19287 0.49438 0.86793 0.0
C1256 C 0.23172 0.47469 0.8772 0.0
C1257 C 0.25929 0.5034 0.86891 0.0
C1258 C 0.25279 0.52714 0.85991 0.0
C1259 C 0.21994 0.52239 0.8592 0.0
H1260 H 0.52501 0.83341 0.05461 0.0
H1261 H 0.45437 0.73913 1.02736 0.0
H1262 H 0.48132 0.85046 0.05443 0.0
H1263 H 0.41133 0.7567 1.02676 0.0
H1264 H 0.36241 0.82299 1.01121 0.0
H1265 H 0.41069 0.81271 1.01099 0.0
H1266 H 0.41545 0.81803 0.07017 0.0
H1267 H 0.36644 0.82727 0.07048 0.0
C1268 C 0.50029 0.8165 0.04848 0.0
C1269 C 0.49299 0.7849 0.04106 0.0
C1270 C 0.4754 0.82623 0.04842 0.0
C1271 C 0.44323 0.80491 0.04049 0.0
C1272 C 0.43611 0.77361 1.03283 0.0
C1273 C 0.46063 0.76352 1.03329 0.0
C1274 C 0.3741 0.82246 1.02414 0.0
C1275 C 0.36077 0.8258 0.04087 0.0
C1276 C 0.40155 0.81647 1.024 0.0
C1277 C 0.41655 0.81458 0.04056 0.0
C1278 C 0.40431 0.81959 0.05725 0.0
C1279 C 0.37634 0.82479 0.05741 0.0
H1280 H 0.22946 0.7151 0.06649 0.0
H1281 H 0.16589 0.68979 1.01809 0.0
H1282 H 0.21707 0.65643 0.06868 0.0
H1283 H 0.15534 0.63139 1.01929 0.0
H1284 H 0.12738 0.52183 1.03234 0.0
H1285 H 0.13081 0.57754 1.03305 0.0
H1286 H 0.23439 0.62307 0.05382 0.0
H1287 H 0.2298 0.56749 0.05423 0.0
C1288 C 0.21283 0.6968 0.0563 0.0
C1289 C 0.19881 0.70677 0.04206 0.0
C1290 C 0.20596 0.66325 0.05741 0.0
C1291 C 0.18587 0.6392 0.04389 0.0
C1292 C 0.17071 0.64902 1.03002 0.0
C1293 C 0.17684 0.68248 1.02925 0.0
C1294 C 0.15069 0.54391 0.03713 0.0
C1295 C 0.17823 0.54057 0.04337 0.0
C1296 C 0.15278 0.57582 0.03747 0.0
C1297 C 0.18275 0.60491 0.04372 0.0
C1298 C 0.21047 0.60126 0.04951 0.0
C1299 C 0.20804 0.56942 0.04956 0.0
H1300 H 0.28269 0.52069 1.01942 0.0
H1301 H 0.30137 0.45302 0.05312 0.0
H1302 H 0.34396 0.56187 1.01905 0.0
H1303 H 0.36273 0.49495 0.0532 0.0
H1304 H 0.44558 0.61367 0.07097 0.0
H1305 H 0.39015 0.56157 0.06762 0.0
H1306 H 0.40523 0.5633 1.00907 0.0
H1307 H 0.46154 0.61493 1.01251 0.0
C1308 C 0.29996 0.51452 1.02659 0.0
C1309 C 0.28739 0.48384 0.03639 0.0
C1310 C 0.33494 0.5379 1.02623 0.0
C1311 C 0.35781 0.53132 0.03601 0.0
C1312 C 0.34544 0.50031 0.04546 0.0
C1313 C 0.31047 0.47648 0.04542 0.0
C1314 C 0.43743 0.60236 0.05746 0.0
C1315 C 0.45757 0.61816 0.04198 0.0
C1316 C 0.40588 0.57258 0.05557 0.0
C1317 C 0.39366 0.55865 0.03811 0.0
C1318 C 0.41436 0.57365 1.02267 0.0
C1319 C 0.44643 0.60301 1.02463 0.0
H1320 H 0.14393 0.46045 0.52543 0.0
H1321 H 0.2493 0.53321 0.53856 0.0
H1322 H 0.12916 0.50502 0.52944 0.0
H1323 H 0.2345 0.5775 0.54233 0.0
H1324 H 0.19249 0.64045 0.56607 0.0
H1325 H 0.2016 0.59187 0.56377 0.0
H1326 H 0.14041 0.55913 0.51422 0.0
H1327 H 0.13096 0.60767 0.51669 0.0
C1328 C 0.16395 0.48588 0.52913 0.0
C1329 C 0.19781 0.49321 0.5317 0.0
C1330 C 0.15546 0.5114 0.53136 0.0
C1331 C 0.18062 0.54464 0.53633 0.0
C1332 C 0.21444 0.55196 0.53881 0.0
C1333 C 0.22295 0.52658 0.5365 0.0
C1334 C 0.18062 0.6226 0.55484 0.0
C1335 C 0.16118 0.62778 0.54151 0.0
C1336 C 0.18601 0.59495 0.55345 0.0
C1337 C 0.17204 0.57196 0.5387 0.0
C1338 C 0.15134 0.57635 0.52579 0.0
C1339 C 0.146 0.60412 0.52717 0.0
H1340 H 0.45307 0.70662 0.51262 0.0
H1341 H 0.52371 0.68369 0.54054 0.0
H1342 H 0.41068 0.64586 0.51159 0.0
H1343 H 0.48062 0.62269 0.53992 0.0
H1344 H 0.36637 0.53276 0.55736 0.0
H1345 H 0.41677 0.58991 0.5558 0.0
H1346 H 0.40712 0.58857 0.49676 0.0
H1347 H 0.35722 0.53088 0.49826 0.0
C1348 C 0.45951 0.68858 0.51854 0.0
C1349 C 0.49159 0.69984 0.52676 0.0
C1350 C 0.43538 0.65385 0.5178 0.0
C1351 C 0.44257 0.62978 0.52559 0.0
C1352 C 0.47464 0.6409 0.53377 0.0
C1353 C 0.49918 0.67567 0.53412 0.0
C1354 C 0.37552 0.54441 0.54404 0.0
C1355 C 0.35802 0.52762 0.52793 0.0
C1356 C 0.40434 0.57696 0.54315 0.0
C1357 C 0.41561 0.59349 0.52618 0.0
C1358 C 0.39881 0.57623 0.51 0.0
C1359 C 0.37043 0.54331 0.51086 0.0
H1360 H 0.45492 0.84666 0.50658 0.0
H1361 H 0.42766 0.78816 0.55684 0.0
H1362 H 0.39762 0.84024 0.50523 0.0
H1363 H 0.37097 0.78172 0.55543 0.0
H1364 H 0.26443 0.73375 0.53117 0.0
H1365 H 0.3236 0.74789 0.53112 0.0
H1366 H 0.35604 0.85472 0.52539 0.0
H1367 H 0.2961 0.84075 0.52551 0.0
C1368 C 0.43687 0.83288 0.51742 0.0
C1369 C 0.44545 0.81764 0.53173 0.0
C1370 C 0.40428 0.82932 0.51667 0.0
C1371 C 0.37997 0.8102 0.53013 0.0
C1372 C 0.38919 0.79623 0.54478 0.0
C1373 C 0.42162 0.79998 0.54559 0.0
C1374 C 0.28393 0.76033 0.52979 0.0
C1375 C 0.27542 0.78618 0.52855 0.0
C1376 C 0.31788 0.76836 0.52981 0.0
C1377 C 0.34423 0.80238 0.52849 0.0
C1378 C 0.33602 0.82829 0.52646 0.0
C1379 C 0.3018 0.82026 0.5266 0.0
H1380 H 0.19289 0.58001 0.35837 0.0
H1381 H 0.11974 0.47859 0.37719 0.0
H1382 H 0.23545 0.56272 0.35497 0.0
H1383 H 0.16278 0.46133 0.3737 0.0
H1384 H 0.26941 0.46718 0.386 0.0
H1385 H 0.22066 0.47656 0.38835 0.0
H1386 H 0.24337 0.52261 0.33447 0.0
H1387 H 0.29188 0.5134 0.33216 0.0
C1388 C 0.18585 0.55401 0.36181 0.0
C1389 C 0.15289 0.53066 0.36804 0.0
C1390 C 0.2102 0.54406 0.35972 0.0
C1391 C 0.20227 0.51062 0.36392 0.0
C1392 C 0.1695 0.48729 0.37039 0.0
C1393 C 0.14491 0.49716 0.37231 0.0
C1394 C 0.26348 0.4787 0.37456 0.0
C1395 C 0.28443 0.48983 0.35897 0.0
C1396 C 0.23564 0.484 0.37588 0.0
C1397 C 0.2286 0.50069 0.36168 0.0
C1398 C 0.2486 0.51018 0.34573 0.0
C1399 C 0.27622 0.50476 0.34438 0.0
H1400 H 0.49872 0.63048 0.35655 0.0
H1401 H 0.39382 0.6022 0.36696 0.0
H1402 H 0.51437 0.69076 0.35558 0.0
H1403 H 0.40957 0.66205 0.36616 0.0
H1404 H 0.45657 0.772 0.38509 0.0
H1405 H 0.44702 0.71407 0.38648 0.0
H1406 H 0.49952 0.72969 0.33493 0.0
H1407 H 0.50886 0.78799 0.33341 0.0
C1408 C 0.47906 0.63708 0.35867 0.0
C1409 C 0.44503 0.61154 0.36186 0.0
C1410 C 0.48801 0.67152 0.35802 0.0
C1411 C 0.46321 0.68101 0.3609 0.0
C1412 C 0.42927 0.65547 0.36409 0.0
C1413 C 0.42025 0.62116 0.36444 0.0
C1414 C 0.46639 0.76324 0.37412 0.0
C1415 C 0.48323 0.78434 0.35906 0.0
C1416 C 0.4608 0.73005 0.3749 0.0
C1417 C 0.47225 0.71733 0.36074 0.0
C1418 C 0.49052 0.73894 0.34605 0.0
C1419 C 0.49578 0.77218 0.34516 0.0
H1420 H 0.18402 0.7211 0.37902 0.0
H1421 H 0.21734 0.66541 0.34509 0.0
H1422 H 0.24105 0.77161 0.37716 0.0
H1423 H 0.2744 0.71409 0.34438 0.0
H1424 H 0.3693 0.81033 0.33336 0.0
H1425 H 0.30931 0.76653 0.33258 0.0
H1426 H 0.29679 0.79578 0.38735 0.0
H1427 H 0.35633 0.84168 0.38713 0.0
C1428 C 0.20366 0.71976 0.37123 0.0
C1429 C 0.19642 0.68969 0.36205 0.0
C1430 C 0.23639 0.7485 0.37028 0.0
C1431 C 0.26259 0.74725 0.36051 0.0
C1432 C 0.25495 0.71673 0.35152 0.0
C1433 C 0.22219 0.68855 0.35206 0.0
C1434 C 0.35344 0.80741 0.3451 0.0
C1435 C 0.3671 0.82887 0.36035 0.0
C1436 C 0.31912 0.78214 0.34479 0.0
C1437 C 0.29806 0.7769 0.36007 0.0
C1438 C 0.31188 0.79912 0.37522 0.0
C1439 C 0.34603 0.82522 0.37522 0.0
H1440 H 0.22932 0.35704 0.18719 0.0
H1441 H 0.23701 0.30733 0.23622 0.0
H1442 H 0.29098 0.38219 0.18226 0.0
H1443 H 0.29814 0.33201 0.23117 0.0
H1444 H 0.3876 0.3368 0.1989 0.0
H1445 H 0.32779 0.31886 0.20399 0.0
H1446 H 0.35076 0.42326 0.19929 0.0
H1447 H 0.41106 0.4416 0.19433 0.0
C1448 C 0.24431 0.35204 0.19705 0.0
C1449 C 0.22857 0.33016 0.212 0.0
C1450 C 0.27942 0.36637 0.19423 0.0
C1451 C 0.29895 0.35855 0.20622 0.0
C1452 C 0.28341 0.33798 0.22162 0.0
C1453 C 0.24855 0.32405 0.22454 0.0
C1454 C 0.37998 0.35598 0.19879 0.0
C1455 C 0.40407 0.39064 0.19629 0.0
C1456 C 0.3458 0.3457 0.20183 0.0
C1457 C 0.33495 0.36979 0.20219 0.0
C1458 C 0.35867 0.4043 0.19908 0.0
C1459 C 0.39308 0.41471 0.1963 0.0
H1460 H 0.55165 0.97541 0.21157 0.0
H1461 H 0.6382 0.03667 0.17667 0.0
H1462 H 0.57091 0.93409 0.21541 0.0
H1463 H 0.65709 -0.00519 0.18031 0.0
H1464 H 0.65593 0.89147 0.17751 0.0
H1465 H 0.63129 0.92822 0.17228 0.0
H1466 H 0.62756 0.94065 0.23084 0.0
H1467 H 0.6529 0.9046 0.23608 0.0
C1468 C 0.57457 0.97982 0.20455 0.0
C1469 C 0.59349 0.00919 0.19381 0.0
C1470 C 0.58559 0.95627 0.20682 0.0
C1471 C 0.61531 0.96134 0.19809 0.0
C1472 C 0.6339 0.99032 0.18704 0.0
C1473 C 0.62325 0.01428 0.18506 0.0
C1474 C 0.64936 0.90168 0.18924 0.0
C1475 C 0.65624 0.89534 0.2072 0.0
C1476 C 0.63554 0.92281 0.18624 0.0
C1477 C 0.62778 0.93724 0.20117 0.0
C1478 C 0.63326 0.92965 0.21914 0.0
C1479 C 0.6477 0.9091 0.22212 0.0
H1480 H 0.0657 0.75983 0.17001 0.0
H1481 H 0.10964 0.75114 0.22109 0.0
H1482 H 0.02971 0.69803 0.16859 0.0
H1483 H 0.07297 0.68895 0.2199 0.0
H1484 H 0.01744 0.57517 0.20433 0.0
H1485 H 0.05915 0.63608 0.20346 0.0
H1486 H 0.98012 0.65681 0.18563 0.0
H1487 H 0.93864 0.5961 0.18615 0.0
C1488 C 0.06789 0.7446 0.18085 0.0
C1489 C 0.09025 0.7602 0.19573 0.0
C1490 C 0.04708 0.7092 0.18011 0.0
C1491 C 0.04802 0.68857 0.19428 0.0
C1492 C 0.0717 0.70411 0.20873 0.0
C1493 C 0.09268 0.73968 0.20944 0.0
C1494 C 0.00899 0.5927 0.2001 0.0
C1495 C 0.97465 0.58069 0.19527 0.0
C1496 C 0.0329 0.62764 0.19973 0.0
C1497 C 0.02303 0.65132 0.19442 0.0
C1498 C 0.98873 0.63924 0.1895 0.0
C1499 C 0.96485 0.60439 0.18993 0.0
H1500 H 0.31822 0.2299 0.33363 0.0
H1501 H 0.32759 0.22642 0.39254 0.0
H1502 H 0.34485 0.29218 0.33505 0.0
H1503 H 0.35332 0.28861 0.39398 0.0
H1504 H 0.34374 0.38821 0.38487 0.0
H1505 H 0.3248 0.32718 0.3845 0.0
H1506 H 0.40553 0.34599 0.34672 0.0
H1507 H 0.42511 0.40723 0.34741 0.0
C1508 C 0.32633 0.24253 0.34683 0.0
C1509 C 0.32094 0.22351 0.36297 0.0
C1510 C 0.34157 0.27805 0.34763 0.0
C1511 C 0.35094 0.29499 0.36463 0.0
C1512 C 0.34617 0.27602 0.38074 0.0
C1513 C 0.33164 0.24058 0.37989 0.0
C1514 C 0.35755 0.37931 0.37658 0.0
C1515 C 0.38585 0.40233 0.36617 0.0
C1516 C 0.34685 0.34451 0.37647 0.0
C1517 C 0.3638 0.33208 0.36561 0.0
C1518 C 0.39212 0.35507 0.3552 0.0
C1519 C 0.40333 0.39 0.35565 0.0
H1520 H 0.59423 0.9417 0.34891 0.0
H1521 H 0.57066 0.01834 0.36721 0.0
H1522 H 0.65476 0.98418 0.34897 0.0
H1523 H 0.63153 0.06091 0.36723 0.0
H1524 H 0.74683 0.10667 0.38753 0.0
H1525 H 0.6845 0.07065 0.38552 0.0
H1526 H 0.69408 0.03756 0.3314 0.0
H1527 H 0.75595 0.07322 0.33342 0.0
C1528 C 0.60193 0.96761 0.3529 0.0
C1529 C 0.57766 0.97663 0.35808 0.0
C1530 C 0.63658 0.99198 0.35281 0.0
C1531 C 0.64772 0.02582 0.35804 0.0
C1532 C 0.62354 0.03494 0.36322 0.0
C1533 C 0.58876 0.0106 0.36311 0.0
C1534 C 0.73544 0.09216 0.3751 0.0
C1535 C 0.75603 0.09237 0.36071 0.0
C1536 C 0.69989 0.07165 0.37393 0.0
C1537 C 0.68465 0.05104 0.3584 0.0
C1538 C 0.70527 0.05279 0.34364 0.0
C1539 C 0.74062 0.0733 0.34478 0.0
H1540 H 0.91923 0.68005 0.34116 0.0
H1541 H 0.86649 0.62683 0.39042 0.0
H1542 H 0.95623 0.65546 0.34361 0.0
H1543 H 0.90364 0.60189 0.3928 0.0
H1544 H 0.96226 0.54334 0.37706 0.0
H1545 H 0.92032 0.56228 0.3746 0.0
H1546 H 0.00204 0.66622 0.36794 0.0
H1547 H 0.04391 0.64761 0.37048 0.0
C1548 C 0.9152 0.66264 0.35235 0.0
C1549 C 0.8902 0.65545 0.36567 0.0
C1550 C 0.9365 0.64876 0.3538 0.0
C1551 C 0.93301 0.6272 0.36852 0.0
C1552 C 0.90676 0.61846 0.38132 0.0
C1553 C 0.88558 0.63267 0.37997 0.0
C1554 C 0.97127 0.57026 0.37518 0.0
C1555 C 0.0064 0.59399 0.37392 0.0
C1556 C 0.94727 0.58103 0.37383 0.0
C1557 C 0.95803 0.6156 0.37092 0.0
C1558 C -0.00688 0.63934 0.36996 0.0
C1559 C 0.01707 0.62869 0.37155 0.0
H1560 H 0.58719 0.63108 0.90146 0.0
H1561 H 0.5689 0.55265 0.86204 0.0
H1562 H 0.64842 0.65347 0.89917 0.0
H1563 H 0.63026 0.57632 0.85862 0.0
H1564 H 0.74449 0.61538 0.86429 0.0
H1565 H 0.68293 0.58694 0.87001 0.0
H1566 H 0.69153 0.68543 0.879 0.0
H1567 H 0.75263 0.71296 0.87455 0.0
C1568 C 0.59643 0.61874 0.89226 0.0
C1569 C 0.57353 0.59035 0.88187 0.0
C1570 C 0.63153 0.6317 0.89078 0.0
C1571 C 0.64457 0.61723 0.87839 0.0
C1572 C 0.62137 0.58802 0.86843 0.0
C1573 C 0.58617 0.5745 0.87031 0.0
C1574 C 0.73294 0.63066 0.86754 0.0
C1575 C 0.75309 0.66621 0.86909 0.0
C1576 C 0.69772 0.6145 0.87076 0.0
C1577 C 0.68206 0.63376 0.87521 0.0
C1578 C 0.70254 0.66949 0.87624 0.0
C1579 C 0.73762 0.68541 0.87347 0.0
H1580 H 0.32451 0.0786 0.83059 0.0
H1581 H 0.32901 0.08994 0.88957 0.0
H1582 H 0.35091 0.04284 0.83309 0.0
H1583 H 0.35447 0.05337 0.89206 0.0
H1584 H 0.3446 0.94412 0.88401 0.0
H1585 H 0.3258 0.98622 0.88218 0.0
H1586 H 0.4106 0.04896 0.84671 0.0
H1587 H 0.43005 0.00728 0.8489 0.0
C1588 C 0.33157 0.07379 0.84404 0.0
C1589 C 0.32482 0.08699 0.85989 0.0
C1590 C 0.34666 0.05342 0.84546 0.0
C1591 C 0.35448 0.04532 0.86277 0.0
C1592 C 0.34851 0.05921 0.87858 0.0
C1593 C 0.33415 0.08022 0.87714 0.0
C1594 C 0.35927 0.96695 0.87588 0.0
C1595 C 0.38876 0.9725 0.8666 0.0
C1596 C 0.34866 0.99107 0.87494 0.0
C1597 C 0.36688 0.02077 0.86437 0.0
C1598 C 0.39621 0.02624 0.85497 0.0
C1599 C 0.40733 0.0025 0.85627 0.0
H1600 H 0.90434 0.23812 0.83449 0.0
H1601 H 0.86264 0.22751 0.88892 0.0
H1602 H 0.94124 0.2992 0.83954 0.0
H1603 H 0.89951 0.28919 0.89384 0.0
H1604 H 0.95837 0.41068 0.88337 0.0
H1605 H 0.9142 0.3508 0.87884 0.0
H1606 H -0.00813 0.32654 0.86418 0.0
H1607 H 0.03595 0.38584 0.86892 0.0
C1608 C 0.90245 0.24901 0.84736 0.0
C1609 C 0.88088 0.22815 0.86138 0.0
C1610 C 0.92369 0.28389 0.85026 0.0
C1611 C 0.92346 0.29861 0.86715 0.0
C1612 C 0.90007 0.27828 0.88071 0.0
C1613 C 0.87899 0.24314 0.87788 0.0
C1614 C 0.966 0.39247 0.87931 0.0
C1615 C 0.00064 0.40297 0.87645 0.0
C1616 C 0.94075 0.35831 0.87678 0.0
C1617 C 0.94975 0.33435 0.87099 0.0
C1618 C 0.98434 0.34471 0.86845 0.0
C1619 C 0.00955 0.3786 0.87129 0.0
H1620 H 0.55266 0.58019 0.72646 0.0
H1621 H 0.63993 0.60055 0.69346 0.0
H1622 H 0.56961 0.64087 0.72501 0.0
H1623 H 0.65621 0.66074 0.69166 0.0
H1624 H 0.65022 0.75631 0.6766 0.0
H1625 H 0.62458 0.6942 0.67781 0.0
H1626 H 0.62902 0.6983 0.73703 0.0
H1627 H 0.65552 0.7606 0.73586 0.0
C1628 C 0.57523 0.59759 0.71879 0.0
C1629 C 0.5951 0.58589 0.71011 0.0
C1630 C 0.58489 0.63214 0.71801 0.0
C1631 C 0.61399 0.65514 0.70812 0.0
C1632 C 0.63349 0.6433 0.69922 0.0
C1633 C 0.62433 0.60902 0.70037 0.0
C1634 C 0.64516 0.74387 0.68987 0.0
C1635 C 0.65496 0.76307 0.70614 0.0
C1636 C 0.63064 0.70847 0.69054 0.0
C1637 C 0.62506 0.69177 0.7075 0.0
C1638 C 0.63299 0.71075 0.72381 0.0
C1639 C 0.64817 0.74625 0.72313 0.0
H1640 H 0.39034 0.04531 0.68658 0.0
H1641 H 0.41093 0.97946 0.72074 0.0
H1642 H 0.32923 0.00306 0.68716 0.0
H1643 H 0.34984 0.93762 0.72155 0.0
H1644 H 0.23464 0.9037 0.73663 0.0
H1645 H 0.29669 0.94076 0.73496 0.0
H1646 H 0.29061 0.93816 0.67574 0.0
H1647 H 0.22855 0.90038 0.67739 0.0
C1648 C 0.38176 0.0219 0.69425 0.0
C1649 C 0.40522 0.01558 0.70363 0.0
C1650 C 0.34696 -0.00231 0.69445 0.0
C1651 C 0.33508 0.96717 0.70433 0.0
C1652 C 0.3585 0.961 0.71383 0.0
C1653 C 0.39334 0.98486 0.71333 0.0
C1654 C 0.24669 0.91056 0.72328 0.0
C1655 C 0.22703 0.89927 0.70714 0.0
C1656 C 0.28207 0.93169 0.72233 0.0
C1657 C 0.29817 0.94236 0.70523 0.0
C1658 C 0.2786 0.93036 0.68907 0.0
C1659 C 0.24328 0.90864 0.69002 0.0
H1660 H 0.01787 0.43966 0.7135 0.0
H1661 H 0.94279 0.34267 0.6904 0.0
H1662 H 0.06041 0.42129 0.71298 0.0
H1663 H 0.98514 0.32452 0.68992 0.0
H1664 H 0.07623 0.31608 0.67297 0.0
H1665 H 0.03936 0.34096 0.67293 0.0
H1666 H 0.07047 0.37609 0.72857 0.0
H1667 H 0.1076 0.35097 0.72862 0.0
C1668 C 0.01047 0.41451 0.70826 0.0
C1669 C 0.97694 0.39264 0.70195 0.0
C1670 C 0.03477 0.40396 0.70807 0.0
C1671 C 0.02616 0.37157 0.70131 0.0
C1672 C -0.00733 0.3498 0.69499 0.0
C1673 C 0.96832 0.36013 0.69539 0.0
C1674 C 0.07559 0.32952 0.68512 0.0
C1675 C 0.09458 0.3314 0.70085 0.0
C1676 C 0.05432 0.34358 0.68513 0.0
C1677 C 0.05166 0.36005 0.70082 0.0
C1678 C 0.07206 0.36358 0.71626 0.0
C1679 C 0.09326 0.34922 0.7163 0.0
H1680 H 0.89241 0.68985 0.52711 0.0
H1681 H 0.89739 0.63853 0.57611 0.0
H1682 H 0.95421 0.7155 0.52325 0.0
H1683 H 0.95899 0.6641 0.57226 0.0
H1684 H 0.05163 0.67159 0.54242 0.0
H1685 H -0.0081 0.6531 0.54779 0.0
H1686 H 0.01212 0.75576 0.53855 0.0
H1687 H 0.07233 0.77462 0.53314 0.0
C1688 C 0.90685 0.68461 0.53723 0.0
C1689 C 0.89026 0.66209 0.55183 0.0
C1690 C 0.94213 0.6993 0.53503 0.0
C1691 C 0.96118 0.69138 0.54733 0.0
C1692 C 0.94475 0.67019 0.56244 0.0
C1693 C 0.90959 0.65575 0.5647 0.0
C1694 C 0.04348 0.6903 0.54141 0.0
C1695 C 0.06682 0.72461 0.53734 0.0
C1696 C 0.00928 0.67972 0.54466 0.0
C1697 C -0.00245 0.70311 0.54378 0.0
C1698 C 0.02059 0.73726 0.53931 0.0
C1699 C 0.055 0.74799 0.53623 0.0
H1700 H 0.29855 0.22112 0.56379 0.0
H1701 H 0.32273 0.23147 0.506 0.0
H1702 H 0.27147 0.256 0.55971 0.0
H1703 H 0.29576 0.26605 0.50193 0.0
H1704 H 0.29719 0.3681 0.51064 0.0
H1705 H 0.31468 0.32535 0.51308 0.0
H1706 H 0.22313 0.25953 0.54351 0.0
H1707 H 0.20551 0.30242 0.5411 0.0
C1708 C 0.2974 0.23023 0.55018 0.0
C1709 C 0.31297 0.22397 0.53525 0.0
C1710 C 0.28192 0.25012 0.54783 0.0
C1711 C 0.28199 0.26409 0.53054 0.0
C1712 C 0.29587 0.25609 0.51545 0.0
C1713 C 0.31114 0.23617 0.51778 0.0
C1714 C 0.28068 0.34445 0.51776 0.0
C1715 C 0.25 0.33862 0.52567 0.0
C1716 C 0.29058 0.31987 0.51905 0.0
C1717 C 0.27018 0.28909 0.52845 0.0
C1718 C 0.23935 0.28309 0.53625 0.0
C1719 C 0.22922 0.30754 0.53475 0.0
H1720 H 0.67913 0.90667 0.52637 0.0
H1721 H 0.59482 0.92547 0.53157 0.0
H1722 H 0.71941 0.96763 0.53052 0.0
H1723 H 0.63508 0.98613 0.53582 0.0
H1724 H 0.71473 0.08141 0.56602 0.0
H1725 H 0.67816 0.02012 0.56144 0.0
H1726 H 0.7366 0.02507 0.51367 0.0
H1727 H 0.77323 0.08682 0.51816 0.0
C1728 C 0.6692 0.92378 0.52831 0.0
C1729 C 0.63378 0.91124 0.52869 0.0
C1730 C 0.69226 0.95863 0.53061 0.0
C1731 C 0.68029 0.98142 0.53364 0.0
C1732 C 0.64494 0.96897 0.53372 0.0
C1733 C 0.62191 0.93429 0.53116 0.0
C1734 C 0.72005 0.06937 0.55467 0.0
C1735 C 0.74669 0.08877 0.5424 0.0
C1736 C 0.69899 0.03438 0.55199 0.0
C1737 C 0.70437 0.01803 0.53709 0.0
C1738 C 0.73199 0.03713 0.52527 0.0
C1739 C 0.75288 0.07235 0.52784 0.0
H1740 H 0.09504 0.7492 0.68731 0.0
H1741 H 0.01042 0.72878 0.72261 0.0
H1742 H 0.07528 0.68811 0.68595 0.0
H1743 H -0.00909 0.66773 0.72135 0.0
H1744 H 0.98901 0.56618 0.7298 0.0
H1745 H 0.01372 0.62805 0.73181 0.0
H1746 H 0.02121 0.63526 0.6727 0.0
H1747 H -0.00398 0.57322 0.67066 0.0
C1748 C 0.0724 0.73168 0.6949 0.0
C1749 C 0.05425 0.74366 0.70509 0.0
C1750 C 0.06104 0.69678 0.69402 0.0
C1751 C 0.03168 0.67333 0.70358 0.0
C1752 C 0.01381 0.68536 0.71399 0.0
C1753 C 0.02482 0.7202 0.71461 0.0
C1754 C -0.00368 0.58105 0.71726 0.0
C1755 C -0.00941 0.56505 0.70006 0.0
C1756 C 0.01023 0.61635 0.71841 0.0
C1757 C 0.01914 0.63629 0.70241 0.0
C1758 C 0.01468 0.62043 0.68524 0.0
C1759 C 0.00026 0.58502 0.68407 0.0
H1760 H 0.26841 0.29316 0.68129 0.0
H1761 H 0.24053 0.3576 0.71138 0.0
H1762 H 0.32834 0.33813 0.68243 0.0
H1763 H 0.30085 0.40238 0.71288 0.0
H1764 H 0.41737 0.43754 0.73231 0.0
H1765 H 0.35515 0.40222 0.72913 0.0
H1766 H 0.36545 0.40242 0.67024 0.0
H1767 H 0.42741 0.43827 0.67333 0.0
C1768 C 0.2751 0.31699 0.68807 0.0
C1769 C 0.24986 0.32189 0.69626 0.0
C1770 C 0.30932 0.34275 0.68863 0.0
C1771 C 0.31906 0.37364 0.69771 0.0
C1772 C 0.29388 0.37874 0.7058 0.0
C1773 C 0.25946 0.35322 0.70487 0.0
C1774 C 0.40621 0.43075 0.71868 0.0
C1775 C 0.4271 0.44045 0.70307 0.0
C1776 C 0.3707 0.41064 0.71687 0.0
C1777 C 0.3557 0.39948 0.69945 0.0
C1778 C 0.3765 0.41059 0.68381 0.0
C1779 C 0.41188 0.43119 0.68559 0.0
H1780 H 0.63215 0.88536 0.69772 0.0
H1781 H 0.71334 0.98895 0.68845 0.0
H1782 H 0.5902 0.90413 0.69575 0.0
H1783 H 0.6713 0.00753 0.68649 0.0
H1784 H 0.58567 0.02247 0.6649 0.0
H1785 H 0.62332 -0.00159 0.66503 0.0
H1786 H 0.57487 0.94219 0.71438 0.0
H1787 H 0.53708 0.96641 0.71428 0.0
C1788 C 0.64107 0.9121 0.69523 0.0
C1789 C 0.67611 0.93569 0.69324 0.0
C1790 C 0.61703 0.9228 0.69419 0.0
C1791 C 0.62751 0.9572 0.69089 0.0
C1792 C 0.6625 0.98076 0.68883 0.0
C1793 C 0.68657 0.97015 0.69007 0.0
C1794 C 0.5827 0.00455 0.67562 0.0
C1795 C 0.55863 -0.00365 0.68963 0.0
C1796 C 0.60439 0.99101 0.67575 0.0
C1797 C 0.60225 0.9688 0.68983 0.0
C1798 C 0.57696 0.95919 0.70334 0.0
C1799 C 0.55538 0.97301 0.70329 0.0
H1800 H 0.23462 0.88871 0.1727 0.0
H1801 H 0.2632 0.9671 0.21387 0.0
H1802 H 0.29495 0.90459 0.16957 0.0
H1803 H 0.32286 0.98215 0.21107 0.0
H1804 H 0.41936 0.97437 0.21449 0.0
H1805 H 0.3572 0.94759 0.21675 0.0
H1806 H 0.35121 0.96656 0.15913 0.0
H1807 H 0.41355 -0.00586 0.15691 0.0
C1808 C 0.25373 0.90904 0.18116 0.0
C1809 C 0.24443 0.92681 0.19346 0.0
C1810 C 0.28806 0.91809 0.17935 0.0
C1811 C 0.31324 0.94433 0.19021 0.0
C1812 C 0.30377 0.96159 0.20271 0.0
C1813 C 0.26974 0.95315 0.20419 0.0
C1814 C 0.40469 0.97218 0.20223 0.0
C1815 C 0.42109 0.98646 0.18555 0.0
C1816 C 0.36926 0.95696 0.20355 0.0
C1817 C 0.34969 0.9552 0.18812 0.0
C1818 C 0.36586 0.96748 0.17116 0.0
C1819 C 0.4014 0.98331 0.16992 0.0
H1820 H -0.00654 0.41633 0.17073 0.0
H1821 H -0.00684 0.42777 0.22958 0.0
H1822 H 0.01889 0.38006 0.17463 0.0
H1823 H 0.01799 0.39087 0.23349 0.0
H1824 H 0.01264 0.28377 0.22807 0.0
H1825 H -0.0067 0.32543 0.22562 0.0
H1826 H 0.07533 0.38527 0.18798 0.0
H1827 H 0.09497 0.34406 0.19057 0.0
C1828 C -0.00074 0.41141 0.18447 0.0
C1829 C -0.00851 0.4248 0.19985 0.0
C1830 C 0.01378 0.39072 0.18669 0.0
C1831 C 0.02015 0.3826 0.20436 0.0
C1832 C 0.01306 0.39662 0.21974 0.0
C1833 C -0.00086 0.41787 0.2175 0.0
C1834 C 0.02658 0.3059 0.21935 0.0
C1835 C 0.05529 0.31074 0.20953 0.0
C1836 C 0.01568 0.32979 0.21805 0.0
C1837 C 0.03293 0.3585 0.20664 0.0
C1838 C 0.06162 0.3633 0.19684 0.0
C1839 C 0.07289 0.33981 0.1984 0.0
H1840 H 0.60874 0.55989 0.21342 0.0
H1841 H 0.52801 0.57294 0.19032 0.0
H1842 H 0.64366 0.62081 0.2178 0.0
H1843 H 0.56196 0.63436 0.196 0.0
H1844 H 0.64722 0.74504 0.18832 0.0
H1845 H 0.6082 0.68395 0.18574 0.0
H1846 H 0.65415 0.66771 0.23423 0.0
H1847 H 0.69494 0.72867 0.23567 0.0
C1848 C 0.59824 0.57593 0.20961 0.0
C1849 C 0.56582 0.5619 0.20148 0.0
C1850 C 0.61815 0.61098 0.21231 0.0
C1851 C 0.60576 0.63289 0.2074 0.0
C1852 C 0.57274 0.61853 0.19966 0.0
C1853 C 0.55311 0.58335 0.19651 0.0
C1854 C 0.64879 0.72824 0.1984 0.0
C1855 C 0.67421 0.74125 0.21204 0.0
C1856 C 0.62621 0.69319 0.19706 0.0
C1857 C 0.62798 0.6705 0.20967 0.0
C1858 C 0.65256 0.68406 0.22389 0.0
C1859 C 0.67582 0.71901 0.22485 0.0
H1860 H 0.21224 0.90971 1.02868 0.0
H1861 H 0.31669 0.93096 1.0312 0.0
H1862 H 0.23278 0.97109 1.02958 0.0
H1863 H 0.33676 0.99172 1.03218 0.0
H1864 H 0.35552 0.0893 0.05937 0.0
H1865 H 0.32896 0.02751 0.05748 0.0
H1866 H 0.27226 0.0268 1.00941 0.0
H1867 H 0.29919 0.08924 1.01124 0.0
C1868 C 0.23949 0.92738 1.0293 0.0
C1869 C 0.26284 0.91548 1.03 0.0
C1870 C 0.25114 0.9624 1.02974 0.0
C1871 C 0.28623 0.98585 1.03115 0.0
C1872 C 0.30952 0.97399 1.03134 0.0
C1873 C 0.29798 0.93919 1.03069 0.0
C1874 C 0.33712 0.07597 0.04851 0.0
C1875 C 0.32955 0.09389 1.03535 0.0
C1876 C 0.32205 0.04069 0.0474 0.0
C1877 C 0.29899 0.02266 1.03317 0.0
C1878 C 0.29001 0.0403 1.0205 0.0
C1879 C 0.30538 0.07585 1.02153 0.0
H1880 H 0.06125 0.38699 1.03274 0.0
H1881 H 0.07867 0.3073 0.05332 0.0
H1882 H 0.0005 0.34582 1.02981 0.0
H1883 H 0.01809 0.26611 0.04998 0.0
H1884 H 0.90068 0.21186 0.05891 0.0
H1885 H 0.96215 0.25067 0.0625 0.0
H1886 H 0.96407 0.29716 1.01028 0.0
H1887 H 0.90274 0.25892 1.00693 0.0
C1888 C 0.05215 0.36077 0.03671 0.0
C1889 C 0.07486 0.35045 0.04319 0.0
C1890 C 0.01738 0.3371 1.03487 0.0
C1891 C 0.00457 0.30262 0.03946 0.0
C1892 C 0.02714 0.2925 0.04641 0.0
C1893 C 0.0619 0.31614 0.04824 0.0
C1894 C 0.91444 0.23003 0.0481 0.0
C1895 C 0.89709 0.23259 1.0327 0.0
C1896 C 0.94958 0.25226 0.05015 0.0
C1897 C 0.96784 0.27734 0.0368 0.0
C1898 C 0.95058 0.27867 1.021 0.0
C1899 C 0.91555 0.25655 1.01899 0.0
H1900 H 0.77655 0.68696 0.06507 0.0
H1901 H 0.74186 0.65153 1.00983 0.0
H1902 H 0.7393 0.71189 0.06606 0.0
H1903 H 0.70489 0.67625 1.01081 0.0
H1904 H 0.60847 0.67514 1.0308 0.0
H1905 H 0.65163 0.65818 1.02945 0.0
H1906 H 0.72715 0.7564 0.05089 0.0
H1907 H 0.6838 0.77362 0.05229 0.0
C1908 C 0.76156 0.68518 0.05303 0.0
C1909 C 0.7618 0.66711 0.03744 0.0
C1910 C 0.74027 0.69939 0.05359 0.0
C1911 C 0.71882 0.69546 0.03862 0.0
C1912 C 0.72068 0.67909 1.02267 0.0
C1913 C 0.74201 0.66515 1.02208 0.0
C1914 C 0.6342 0.69315 1.03531 0.0
C1915 C 0.64269 0.72577 0.04161 0.0
C1916 C 0.65899 0.68351 1.03439 0.0
C1917 C 0.6928 0.70611 0.0399 0.0
C1918 C 0.70126 0.7385 0.04656 0.0
C1919 C 0.67648 0.74835 0.04728 0.0
H1920 H 0.74416 0.10541 0.86896 0.0
H1921 H 0.72589 0.00405 0.88097 0.0
H1922 H 0.68347 0.08534 0.87302 0.0
H1923 H 0.6654 0.98415 0.88488 0.0
H1924 H 0.56762 0.01856 0.85581 0.0
H1925 H 0.6299 0.04539 0.8557 0.0
H1926 H 0.62582 0.99153 0.90553 0.0
H1927 H 0.56366 0.96462 0.90556 0.0
C1928 C 0.7273 0.07894 0.87258 0.0
C1929 C 0.73985 0.05626 0.87453 0.0
C1930 C 0.69256 0.06747 0.87482 0.0
C1931 C 0.66977 0.03323 0.87926 0.0
C1932 C 0.68245 0.01079 0.88167 0.0
C1933 C 0.71708 0.02216 0.87928 0.0
C1934 C 0.58016 0.01295 0.86687 0.0
C1935 C 0.56098 0.98942 0.88062 0.0
C1936 C 0.61574 0.02836 0.86686 0.0
C1937 C 0.63262 0.02028 0.88052 0.0
C1938 C 0.61342 -0.00216 0.8947 0.0
C1939 C 0.57791 0.98261 0.89476 0.0
H1940 H 0.95834 0.68917 0.84766 0.0
H1941 H 0.88566 0.64238 0.89163 0.0
H1942 H 0.97715 0.6475 0.8521 0.0
H1943 H 0.90528 0.60122 0.89639 0.0
H1944 H -0.00058 0.5799 0.90992 0.0
H1945 H 0.97103 0.61367 0.90593 0.0
H1946 H 0.94422 0.57694 0.85027 0.0
H1947 H 0.97162 0.54255 0.85434 0.0
C1948 C 0.94632 0.66985 0.85819 0.0
C1949 C 0.92053 0.66879 0.86926 0.0
C1950 C 0.95697 0.64605 0.86069 0.0
C1951 C 0.94257 0.62135 0.87457 0.0
C1952 C 0.91666 0.62012 0.88561 0.0
C1953 C 0.90537 0.64344 0.88281 0.0
C1954 C 0.98687 0.5786 0.89698 0.0
C1955 C 0.98771 0.55879 0.88242 0.0
C1956 C 0.97063 0.59777 0.89473 0.0
C1957 C 0.95567 0.59782 0.87779 0.0
C1958 C 0.95568 0.57725 0.86343 0.0
C1959 C 0.97126 0.5576 0.86579 0.0
H1960 H 0.26883 0.25599 0.85224 0.0
H1961 H 0.34304 0.2338 0.87645 0.0
H1962 H 0.30887 0.31685 0.85572 0.0
H1963 H 0.38318 0.29474 0.8797 0.0
H1964 H 0.42526 0.40553 0.90227 0.0
H1965 H 0.38896 0.34381 0.89792 0.0
H1966 H 0.36386 0.36105 0.84307 0.0
H1967 H 0.39968 0.4224 0.8475 0.0
C1968 C 0.29371 0.26406 0.85822 0.0
C1969 C 0.30272 0.24002 0.86404 0.0
C1970 C 0.31673 0.29895 0.86011 0.0
C1971 C 0.34921 0.31056 0.86795 0.0
C1972 C 0.35825 0.28655 0.87375 0.0
C1973 C 0.3353 0.25164 0.87176 0.0
C1974 C 0.41228 0.39598 0.88924 0.0
C1975 C 0.41504 0.4186 0.87527 0.0
C1976 C 0.39158 0.36073 0.88672 0.0
C1977 C 0.37328 0.34765 0.87021 0.0
C1978 C 0.37714 0.37039 0.85605 0.0
C1979 C 0.39782 0.40548 0.85855 0.0
H1980 H 0.65622 0.9039 0.06256 0.0
H1981 H 0.66243 0.89962 1.00355 0.0
H1982 H 0.68241 0.96607 0.06095 0.0
H1983 H 0.68933 0.96191 1.00202 0.0
H1984 H 0.7655 0.07925 1.01275 0.0
H1985 H 0.7457 0.01797 1.01475 0.0
H1986 H 0.65751 0.00235 0.04526 0.0
H1987 H 0.67672 0.06312 0.04299 0.0
C1988 C 0.66375 0.91634 0.0493 0.0
C1989 C 0.65723 0.89709 1.03317 0.0
C1990 C 0.67858 0.95179 0.04839 0.0
C1991 C 0.68772 0.96861 1.03136 0.0
C1992 C 0.68266 0.94949 1.0153 0.0
C1993 C 0.66722 0.91395 1.01618 0.0
C1994 C 0.74192 0.06266 1.01988 0.0
C1995 C 0.72255 0.07585 1.02765 0.0
C1996 C 0.73061 0.02771 1.02098 0.0
C1997 C 0.70024 0.00564 1.03025 0.0
C1998 C 0.68116 0.01894 0.03818 0.0
C1999 C 0.69203 0.05363 0.03674 0.0
H2000 H 0.90505 0.68995 0.03609 0.0
H2001 H 0.92684 0.61065 1.02076 0.0
H2002 H 0.96596 0.73233 1.03385 0.0
H2003 H 0.98718 0.65277 1.01855 0.0
H2004 H 0.087 0.73796 0.99909 0.0
H2005 H 0.02493 0.70334 0.99863 0.0
H2006 H 0.02063 0.74387 0.05156 0.0
H2007 H 0.08318 0.77888 0.05199 0.0
C2008 C 0.92274 0.68161 1.03213 0.0
C2009 C 0.9112 0.64696 1.02866 0.0
C2010 C 0.95753 0.70582 1.03094 0.0
C2011 C 0.98114 0.69578 1.02597 0.0
C2012 C 0.96945 0.66126 1.0222 0.0
C2013 C 0.93491 0.6371 1.0236 0.0
C2014 C 0.0728 0.73988 1.01051 0.0
C2015 C 0.08975 0.76073 1.02568 0.0
C2016 C 0.03733 0.72001 1.01026 0.0
C2017 C 0.01812 0.72067 1.02515 0.0
C2018 C 0.03492 0.74303 0.03988 0.0
C2019 C 0.0706 0.76291 0.04016 0.0
H2020 H 0.2233 0.31806 0.06801 0.0
H2021 H 0.22286 0.3164 1.00871 0.0
H2022 H 0.26004 0.29254 0.06845 0.0
H2023 H 0.25885 0.29036 1.00915 0.0
H2024 H 0.30307 0.22001 1.01858 0.0
H2025 H 0.25867 0.2355 1.02076 0.0
H2026 H 0.32366 0.31958 0.05645 0.0
H2027 H 0.36837 0.30437 0.05416 0.0
C2028 C 0.23033 0.31138 0.05512 0.0
C2029 C 0.22048 0.31917 0.03832 0.0
C2030 C 0.25145 0.29707 0.05538 0.0
C2031 C 0.26229 0.28974 0.03883 0.0
C2032 C 0.25065 0.29563 1.02208 0.0
C2033 C 0.23015 0.31053 1.02182 0.0
C2034 C 0.30778 0.24163 1.02702 0.0
C2035 C 0.33919 0.26116 0.03613 0.0
C2036 C 0.28241 0.25045 1.02823 0.0
C2037 C 0.2878 0.27855 0.03884 0.0
C2038 C 0.31884 0.29754 0.04835 0.0
C2039 C 0.34447 0.28909 0.04689 0.0
H2040 H 0.08291 0.32493 0.55573 0.0
H2041 H 0.07044 0.33337 0.49744 0.0
H2042 H 0.02128 0.29923 0.55991 0.0
H2043 H 0.00849 0.30685 0.50162 0.0
H2044 H 0.89629 0.22513 0.51812 0.0
H2045 H 0.95747 0.24697 0.5139 0.0
H2046 H 0.98037 0.32509 0.55441 0.0
H2047 H 0.91923 0.30373 0.55842 0.0
C2048 C 0.0669 0.32085 0.54379 0.0
C2049 C 0.08129 0.33114 0.52627 0.0
C2050 C 0.03175 0.30633 0.54621 0.0
C2051 C 0.01035 0.30126 0.5311 0.0
C2052 C 0.02457 0.31043 0.51346 0.0
C2053 C 0.05987 0.32559 0.51108 0.0
C2054 C 0.91442 0.24679 0.52623 0.0
C2055 C 0.90316 0.26272 0.53865 0.0
C2056 C 0.94931 0.25936 0.52371 0.0
C2057 C 0.97343 0.28759 0.53386 0.0
C2058 C 0.96216 0.30314 0.54652 0.0
C2059 C 0.9273 0.29103 0.54876 0.0
H2060 H 0.63269 0.72605 0.50198 0.0
H2061 H 0.68289 0.78469 0.55061 0.0
H2062 H 0.6575 0.68988 0.50762 0.0
H2063 H 0.70802 0.7484 0.5562 0.0
H2064 H 0.76778 0.6886 0.5469 0.0
H2065 H 0.74883 0.72987 0.54126 0.0
H2066 H 0.64547 0.64716 0.53371 0.0
H2067 H 0.66403 0.60599 0.53941 0.0
C2068 C 0.64952 0.73155 0.5137 0.0
C2069 C 0.65578 0.75799 0.52592 0.0
C2070 C 0.66351 0.71073 0.51698 0.0
C2071 C 0.68425 0.71613 0.53247 0.0
C2072 C 0.69211 0.74378 0.54416 0.0
C2073 C 0.67778 0.76448 0.54096 0.0
C2074 C 0.74097 0.67924 0.54419 0.0
C2075 C 0.71743 0.64399 0.54355 0.0
C2076 C 0.73019 0.70287 0.541 0.0
C2077 C 0.69582 0.69162 0.53685 0.0
C2078 C 0.67222 0.65647 0.53661 0.0
C2079 C 0.68286 0.63291 0.54002 0.0
H2080 H 0.21502 0.89827 0.5628 0.0
H2081 H 0.21635 0.90645 0.50368 0.0
H2082 H 0.24956 0.9606 0.5652 0.0
H2083 H 0.25005 0.96864 0.50611 0.0
H2084 H 0.29339 0.08305 0.52107 0.0
H2085 H 0.24861 0.02264 0.52094 0.0
H2086 H 0.31396 -0.00223 0.55277 0.0
H2087 H 0.35882 0.05766 0.55258 0.0
C2088 C 0.22188 0.91347 0.55038 0.0
C2089 C 0.21337 0.8978 0.53306 0.0
C2090 C 0.24165 0.94897 0.55175 0.0
C2091 C 0.25242 0.96917 0.53582 0.0
C2092 C 0.24182 0.95355 0.51856 0.0
C2093 C 0.22271 0.91807 0.51718 0.0
C2094 C 0.29801 0.06462 0.5281 0.0
C2095 C 0.32956 0.07483 0.5367 0.0
C2096 C 0.27248 0.03023 0.52804 0.0
C2097 C 0.27789 0.00584 0.53699 0.0
C2098 C 0.3091 0.01625 0.54598 0.0
C2099 C 0.33484 0.05039 0.54568 0.0
H2100 H 0.96324 0.41623 0.35435 0.0
H2101 H 0.01616 0.41832 0.40434 0.0
H2102 H 0.93868 0.35416 0.35258 0.0
H2103 H -0.00812 0.35672 0.40253 0.0
H2104 H 0.98255 0.25937 0.37752 0.0
H2105 H 0.00211 0.32019 0.37949 0.0
H2106 H 0.89886 0.29926 0.37092 0.0
H2107 H 0.87908 0.2383 0.36897 0.0
C2108 C 0.96913 0.40333 0.36507 0.0
C2109 C -0.00836 0.42188 0.37942 0.0
C2110 C 0.95515 0.36797 0.36407 0.0
C2111 C 0.96385 0.35093 0.3773 0.0
C2112 C 0.98526 0.36941 0.39201 0.0
C2113 C -0.00107 0.40457 0.3931 0.0
C2114 C 0.96403 0.26771 0.37597 0.0
C2115 C 0.92928 0.24408 0.37317 0.0
C2116 C 0.97519 0.30245 0.37721 0.0
C2117 C 0.95188 0.31421 0.37548 0.0
C2118 C 0.91728 0.29074 0.37226 0.0
C2119 C 0.90602 0.25591 0.37123 0.0
H2120 H 0.72313 0.70359 0.35239 0.0
H2121 H 0.7396 0.64038 0.39086 0.0
H2122 H 0.66185 0.66208 0.35211 0.0
H2123 H 0.67818 0.59926 0.39082 0.0
H2124 H 0.56156 0.56869 0.40122 0.0
H2125 H 0.62388 0.60506 0.40113 0.0
H2126 H 0.6241 0.59584 0.34214 0.0
H2127 H 0.56192 0.5588 0.34225 0.0
C2128 C 0.7136 0.6809 0.36082 0.0
C2129 C 0.73595 0.67511 0.37165 0.0
C2130 C 0.6787 0.65713 0.36055 0.0
C2131 C 0.66556 0.62759 0.37141 0.0
C2132 C 0.68784 0.62191 0.38236 0.0
C2133 C 0.72286 0.64531 0.38232 0.0
C2134 C 0.57505 0.57403 0.3883 0.0
C2135 C 0.55714 0.56108 0.37175 0.0
C2136 C 0.61057 0.59472 0.38825 0.0
C2137 C 0.62851 0.60326 0.37162 0.0
C2138 C 0.61066 0.58968 0.35511 0.0
C2139 C 0.57524 0.56843 0.35519 0.0
H2140 H 0.3498 0.10314 0.35661 0.0
H2141 H 0.27743 0.00413 0.37845 0.0
H2142 H 0.39444 0.08752 0.35743 0.0
H2143 H 0.32224 0.98898 0.37963 0.0
H2144 H 0.42052 0.99101 0.3978 0.0
H2145 H 0.38246 0.01482 0.39804 0.0
H2146 H 0.40009 0.03696 0.34016 0.0
H2147 H 0.43756 0.01233 0.33977 0.0
C2148 C 0.34349 0.07814 0.36164 0.0
C2149 C 0.31015 0.05476 0.36741 0.0
C2150 C 0.36898 0.06927 0.36208 0.0
C2151 C 0.3617 0.03723 0.36873 0.0
C2152 C 0.32847 0.01398 0.37462 0.0
C2153 C 0.30283 0.02253 0.3738 0.0
C2154 C 0.41687 0.00166 0.38523 0.0
C2155 C 0.43179 -0.00023 0.36874 0.0
C2156 C 0.39497 0.01503 0.38536 0.0
C2157 C 0.38825 0.02736 0.36909 0.0
C2158 C 0.405 0.02763 0.35287 0.0
C2159 C 0.42639 0.01361 0.35266 0.0
H2160 H 0.19779 0.3724 0.08303 0.0
H2161 H 0.13341 0.40996 0.10352 0.0
H2162 H 0.17945 0.33128 0.10861 0.0
H2163 H 0.11691 0.37102 0.12918 0.0
H2164 H 0.1505 0.28061 0.16859 0.0
H2165 H 0.17781 0.32358 0.14411 0.0
H2166 H 0.07905 0.30905 0.12865 0.0
H2167 H 0.05252 0.26786 0.15306 0.0
C2168 C 0.17988 0.3719 0.09296 0.0
C2169 C 0.16592 0.3933 0.09087 0.0
C2170 C 0.16981 0.34883 0.10772 0.0
C2171 C 0.14604 0.34737 0.12061 0.0
C2172 C 0.13444 0.37079 0.11918 0.0
C2173 C 0.14403 0.39323 0.10446 0.0
C2174 C 0.13492 0.287 0.15999 0.0
C2175 C 0.09955 0.27152 0.16293 0.0
C2176 C 0.15042 0.31122 0.14591 0.0
C2177 C 0.13063 0.3201 0.1347 0.0
C2178 C 0.09515 0.30343 0.13733 0.0
C2179 C 0.07988 0.27963 0.15129 0.0
H2180 H 0.55768 0.73533 0.1108 0.0
H2181 H 0.63579 0.80889 0.0751 0.0
H2182 H 0.59672 0.75859 0.13692 0.0
H2183 H 0.67467 0.83301 0.1015 0.0
H2184 H 0.69876 0.76957 0.16203 0.0
H2185 H 0.65686 0.75597 0.13758 0.0
H2186 H 0.67641 0.85952 0.13843 0.0
H2187 H 0.71823 0.87313 0.16352 0.0
C2188 C 0.5829 0.75712 0.10862 0.0
C2189 C 0.59369 0.7705 0.09093 0.0
C2190 C 0.60512 0.77043 0.12357 0.0
C2191 C 0.63849 0.79759 0.12116 0.0
C2192 C 0.6488 0.81238 0.10369 0.0
C2193 C 0.62655 0.79874 0.08862 0.0
C2194 C 0.69406 0.78944 0.15708 0.0
C2195 C 0.71157 0.82235 0.16463 0.0
C2196 C 0.67005 0.78162 0.14316 0.0
C2197 C 0.66355 0.80673 0.13622 0.0
C2198 C 0.68115 0.83983 0.14362 0.0
C2199 C 0.70481 0.84751 0.15795 0.0
H2200 H 0.14455 0.84714 0.16588 0.0
H2201 H 0.14731 0.92684 0.13221 0.0
H2202 H 0.15834 0.82385 0.13918 0.0
H2203 H 0.1625 0.90447 0.10565 0.0
H2204 H 0.16919 0.78675 0.07994 0.0
H2205 H 0.13896 0.8004 0.10354 0.0
H2206 H 0.22138 0.90496 0.10404 0.0
H2207 H 0.25166 0.89128 0.08107 0.0
C2208 C 0.14623 0.85857 0.15267 0.0
C2209 C 0.14391 0.88823 0.15108 0.0
C2210 C 0.15463 0.84553 0.13738 0.0
C2211 C 0.16144 0.86241 0.12039 0.0
C2212 C 0.15733 0.89099 0.11861 0.0
C2213 C 0.14864 0.90374 0.13379 0.0
C2214 C 0.18054 0.81263 0.08507 0.0
C2215 C 0.21276 0.83797 0.07887 0.0
C2216 C 0.16337 0.82037 0.09852 0.0
C2217 C 0.17785 0.85373 0.10548 0.0
C2218 C 0.20953 0.87913 0.09877 0.0
C2219 C 0.22693 0.87126 0.08573 0.0
H2220 H 0.33517 0.15461 0.50611 0.0
H2221 H 0.42262 0.19265 0.47054 0.0
H2222 H 0.29773 0.14055 0.47935 0.0
H2223 H 0.38491 0.17818 0.44367 0.0
H2224 H 0.27063 0.14937 0.40908 0.0
H2225 H 0.30969 0.18239 0.43444 0.0
H2226 H 0.31692 0.09433 0.45008 0.0
H2227 H 0.27889 0.06174 0.42487 0.0
C2228 C 0.3466 0.16187 0.49267 0.0
C2229 C 0.38186 0.17561 0.49038 0.0
C2230 C 0.32513 0.15361 0.47735 0.0
C2231 C 0.33868 0.15891 0.45959 0.0
C2232 C 0.37412 0.17468 0.45729 0.0
C2233 C 0.39557 0.18284 0.47261 0.0
C2234 C 0.281 0.13736 0.41782 0.0
C2235 C 0.27201 0.10314 0.41499 0.0
C2236 C 0.30302 0.1561 0.43231 0.0
C2237 C 0.31595 0.14061 0.44405 0.0
C2238 C 0.30707 0.10659 0.44113 0.0
C2239 C 0.28534 0.08804 0.42674 0.0
H2240 H 0.82871 0.12606 0.41153 0.0
H2241 H 0.92886 0.19335 0.43424 0.0
H2242 H 0.80299 0.14204 0.43667 0.0
H2243 H 0.9036 0.2081 0.45916 0.0
H2244 H 0.85959 0.26787 0.48189 0.0
H2245 H 0.87494 0.24317 0.45692 0.0
H2246 H 0.79736 0.14221 0.47362 0.0
H2247 H 0.78085 0.16752 0.49874 0.0
C2248 C 0.84509 0.14392 0.4219 0.0
C2249 C 0.88079 0.15911 0.42068 0.0
C2250 C 0.83043 0.1528 0.43633 0.0
C2251 C 0.85141 0.1768 0.44965 0.0
C2252 C 0.88683 0.19014 0.44889 0.0
C2253 C 0.9013 0.1816 0.43458 0.0
C2254 C 0.84548 0.24039 0.48026 0.0
C2255 C 0.81953 0.21955 0.49254 0.0
C2256 C 0.85438 0.22623 0.46594 0.0
C2257 C 0.83783 0.19074 0.46355 0.0
C2258 C 0.81063 0.16967 0.47524 0.0
C2259 C 0.80147 0.18406 0.48969 0.0
H2260 H 0.79409 0.73337 0.43594 0.0
H2261 H 0.85333 0.6935 0.41109 0.0
H2262 H 0.78477 0.69794 0.46284 0.0
H2263 H 0.84234 0.65628 0.43797 0.0
H2264 H 0.74964 0.5669 0.47745 0.0
H2265 H 0.77711 0.60536 0.45136 0.0
H2266 H 0.82538 0.69077 0.48864 0.0
H2267 H 0.7983 0.65237 0.51461 0.0
C2268 C 0.80523 0.71705 0.43624 0.0
C2269 C 0.82404 0.71578 0.42129 0.0
C2270 C 0.80002 0.69694 0.45169 0.0
C2271 C 0.81292 0.67456 0.45242 0.0
C2272 C 0.8322 0.67346 0.43765 0.0
C2273 C 0.83826 0.69447 0.42228 0.0
C2274 C 0.76707 0.59375 0.48003 0.0
C2275 C 0.77237 0.60674 0.49797 0.0
C2276 C 0.78287 0.61562 0.46518 0.0
C2277 C 0.80347 0.65086 0.4681 0.0
C2278 C 0.80992 0.66359 0.48613 0.0
C2279 C 0.7946 0.64163 0.50098 0.0
H2280 H 0.92274 0.73264 0.93301 0.0
H2281 H 0.83126 0.68616 0.89971 0.0
H2282 H 0.89163 0.69391 0.95817 0.0
H2283 H 0.80008 0.64654 0.92489 0.0
H2284 H 0.79606 0.55773 0.9658 0.0
H2285 H 0.81196 0.5986 0.94051 0.0
H2286 H 0.83836 0.67967 0.97959 0.0
H2287 H 0.82238 0.63895 1.00469 0.0
C2288 C 0.89586 0.71428 0.93116 0.0
C2289 C 0.87927 0.71237 0.91451 0.0
C2290 C 0.87803 0.69234 0.94557 0.0
C2291 C 0.84344 0.66757 0.94347 0.0
C2292 C 0.82669 0.66568 0.92684 0.0
C2293 C 0.84442 0.68829 0.91251 0.0
C2294 C 0.80402 0.58409 0.9689 0.0
C2295 C 0.8074 0.59509 0.9872 0.0
C2296 C 0.81302 0.60738 0.95447 0.0
C2297 C 0.82634 0.64217 0.95818 0.0
C2298 C 0.82793 0.65288 0.97642 0.0
C2299 C 0.81837 0.62946 0.99081 0.0
H2300 H 0.28135 0.12458 0.90315 0.0
H2301 H 0.23817 0.18409 0.92355 0.0
H2302 H 0.3211 0.14334 0.92945 0.0
H2303 H 0.27565 0.20083 0.94999 0.0
H2304 H 0.37139 0.17314 0.98914 0.0
H2305 H 0.32861 0.14463 0.96458 0.0
H2306 H 0.33669 0.24118 0.95057 0.0
H2307 H 0.37779 0.26885 0.97505 0.0
C2308 C 0.28022 0.14138 0.91324 0.0
C2309 C 0.25778 0.15406 0.91088 0.0
C2310 C 0.30254 0.15172 0.92842 0.0
C2311 C 0.30211 0.17437 0.94148 0.0
C2312 C 0.27741 0.18431 0.93984 0.0
C2313 C 0.25581 0.17457 0.92468 0.0
C2314 C 0.36365 0.18797 0.98083 0.0
C2315 C 0.37742 0.22304 0.98414 0.0
C2316 C 0.33948 0.17179 0.96672 0.0
C2317 C 0.32888 0.19057 0.95587 0.0
C2318 C 0.34363 0.22579 0.95897 0.0
C2319 C 0.3674 0.24173 0.97295 0.0
H2320 H 0.81936 0.06699 0.93014 0.0
H2321 H 0.87538 0.16167 0.90042 0.0
H2322 H 0.80837 0.09644 0.95466 0.0
H2323 H 0.86162 0.19097 0.92459 0.0
H2324 H 0.75556 0.1775 0.95771 0.0
H2325 H 0.78876 0.1671 0.93477 0.0
H2326 H 0.84721 0.155 0.9781 0.0
H2327 H 0.81458 0.16617 1.00099 0.0
C2328 C 0.82949 0.09423 0.92886 0.0
C2329 C 0.84697 0.11184 0.91296 0.0
C2330 C 0.82328 0.11105 0.94296 0.0
C2331 C 0.83387 0.14576 0.94136 0.0
C2332 C 0.85302 0.16404 0.92599 0.0
C2333 C 0.86033 0.14727 0.91206 0.0
C2334 C 0.77625 0.1737 0.96227 0.0
C2335 C 0.7828 0.17296 0.98108 0.0
C2336 C 0.79539 0.1681 0.94917 0.0
C2337 C 0.82077 0.16079 0.95473 0.0
C2338 C 0.82821 0.16131 0.97353 0.0
C2339 C 0.80959 0.16774 0.98661 0.0
H2340 H 0.60788 0.78583 0.56794 0.0
H2341 H 0.59052 0.86611 0.587 0.0
H2342 H 0.64962 0.79919 0.59302 0.0
H2343 H 0.63066 0.87816 0.6122 0.0
H2344 H 0.67049 0.8504 0.66593 0.0
H2345 H 0.63035 0.82368 0.64048 0.0
H2346 H 0.71173 0.87902 0.60188 0.0
H2347 H 0.7521 0.9059 0.62746 0.0
C2348 C 0.61306 0.80629 0.57738 0.0
C2349 C 0.59647 0.82534 0.57535 0.0
C2350 C 0.63658 0.81367 0.59175 0.0
C2351 C 0.64303 0.8396 0.6044 0.0
C2352 C 0.62588 0.85799 0.60258 0.0
C2353 C 0.60298 0.85107 0.58816 0.0
C2354 C 0.68021 0.85553 0.65211 0.0
C2355 C 0.71453 0.87952 0.64867 0.0
C2356 C 0.65717 0.84045 0.63754 0.0
C2357 C 0.66826 0.84893 0.61934 0.0
C2358 C 0.70289 0.87162 0.61584 0.0
C2359 C 0.72582 0.88703 0.63043 0.0
H2360 H 0.21025 0.81078 0.5896 0.0
H2361 H 0.10478 0.75307 0.57259 0.0
H2362 H 0.19364 0.83353 0.61582 0.0
H2363 H 0.08853 0.77719 0.59751 0.0
H2364 H 0.06075 0.77321 0.65582 0.0
H2365 H 0.08523 0.76176 0.6292 0.0
H2366 H 0.16742 0.86665 0.62892 0.0
H2367 H 0.14303 0.87779 0.65648 0.0
C2368 C 0.18382 0.8042 0.59104 0.0
C2369 C 0.15872 0.78028 0.57916 0.0
C2370 C 0.17429 0.8171 0.60601 0.0
C2371 C 0.13962 0.80635 0.60903 0.0
C2372 C 0.1153 0.78513 0.59594 0.0
C2373 C 0.12464 0.7717 0.58144 0.0
C2374 C 0.08415 0.79383 0.65016 0.0
C2375 C 0.09972 0.82648 0.65793 0.0
C2376 C 0.09808 0.78738 0.6348 0.0
C2377 C 0.12765 0.81362 0.62652 0.0
C2378 C 0.14442 0.84603 0.63488 0.0
C2379 C 0.13055 0.85241 0.65059 0.0
H2380 H 0.2459 0.41851 0.5944 0.0
H2381 H 0.17234 0.34071 0.55849 0.0
H2382 H 0.21937 0.3811 0.62078 0.0
H2383 H 0.14398 0.30429 0.58468 0.0
H2384 H 0.14791 0.234 0.62982 0.0
H2385 H 0.16008 0.27233 0.60397 0.0
H2386 H 0.17076 0.35158 0.64107 0.0
H2387 H 0.15997 0.31318 0.66704 0.0
C2388 C 0.22328 0.39383 0.59224 0.0
C2389 C 0.21029 0.38293 0.57448 0.0
C2390 C 0.20785 0.37252 0.60734 0.0
C2391 C 0.17928 0.33975 0.6049 0.0
C2392 C 0.16585 0.32938 0.58709 0.0
C2393 C 0.1815 0.35061 0.57205 0.0
C2394 C 0.15179 0.25929 0.63235 0.0
C2395 C 0.15211 0.27041 0.65033 0.0
C2396 C 0.15867 0.28129 0.61754 0.0
C2397 C 0.16636 0.3151 0.62041 0.0
C2398 C 0.16502 0.32572 0.6384 0.0
C2399 C 0.15808 0.30354 0.65327 0.0
H2400 H 0.89497 0.40739 0.77262 0.0
H2401 H 0.97521 0.47268 0.7354 0.0
H2402 H 0.93366 0.43294 0.79852 0.0
H2403 H 0.01392 0.49973 0.76142 0.0
H2404 H 0.07928 0.49237 0.80959 0.0
H2405 H 0.0428 0.48156 0.78273 0.0
H2406 H 0.96571 0.4821 0.81731 0.0
H2407 H 0.00142 0.49044 0.84407 0.0
C2408 C 0.92074 0.42792 0.77004 0.0
C2409 C 0.93198 0.4385 0.75205 0.0
C2410 C 0.94287 0.44283 0.7849 0.0
C2411 C 0.9769 0.46863 0.7821 0.0
C2412 C 0.98788 0.47991 0.76406 0.0
C2413 C 0.96559 0.46487 0.74915 0.0
C2414 C 0.05483 0.49095 0.81132 0.0
C2415 C 0.04354 0.49331 0.82889 0.0
C2416 C 0.03401 0.48501 0.79593 0.0
C2417 C 0.00128 0.481 0.79783 0.0
C2418 C -0.00927 0.48496 0.81534 0.0
C2419 C 0.01155 0.49069 0.83072 0.0
H2420 H 0.50519 0.44519 0.7592 0.0
H2421 H 0.57727 0.55328 0.75697 0.0
H2422 H 0.47262 0.45552 0.78288 0.0
H2423 H 0.54425 0.56362 0.77988 0.0
H2424 H 0.4852 0.50734 0.84512 0.0
H2425 H 0.5002 0.48663 0.81778 0.0
H2426 H 0.47701 0.55055 0.78377 0.0
H2427 H 0.46036 0.5702 0.81107 0.0
C2428 C 0.51355 0.4711 0.7635 0.0
C2429 C 0.54378 0.49844 0.75651 0.0
C2430 C 0.49503 0.47697 0.77696 0.0
C2431 C 0.50598 0.51035 0.78304 0.0
C2432 C 0.53519 0.53772 0.77527 0.0
C2433 C 0.55415 0.53178 0.7623 0.0
C2434 C 0.48196 0.51595 0.83178 0.0
C2435 C 0.47145 0.54027 0.83023 0.0
C2436 C 0.49058 0.5041 0.81615 0.0
C2437 C 0.4896 0.51696 0.79875 0.0
C2438 C 0.47771 0.54015 0.79707 0.0
C2439 C 0.4683 0.5514 0.81267 0.0
H2440 H 0.4652 0.06615 0.76633 0.0
H2441 H 0.5252 0.03096 0.73779 0.0
H2442 H 0.45489 0.02597 0.79104 0.0
H2443 H 0.51308 0.98892 0.7624 0.0
H2444 H 0.41423 0.89541 0.80049 0.0
H2445 H 0.44155 0.9361 0.77525 0.0
H2446 H 0.50105 0.01538 0.81452 0.0
H2447 H 0.47402 0.97488 0.83954 0.0
C2448 C 0.47624 0.0498 0.76532 0.0
C2449 C 0.49558 0.05128 0.74996 0.0
C2450 C 0.47038 0.02692 0.77951 0.0
C2451 C 0.48319 0.00452 0.77853 0.0
C2452 C 0.50296 0.00605 0.76335 0.0
C2453 C 0.50964 0.0298 0.74927 0.0
C2454 C 0.43407 0.92125 0.80364 0.0
C2455 C 0.44262 0.93189 0.82197 0.0
C2456 C 0.44978 0.94436 0.78924 0.0
C2457 C 0.47366 0.9786 0.79304 0.0
C2458 C 0.48322 0.98889 0.81131 0.0
C2459 C 0.46795 0.96563 0.82565 0.0
H2460 H 0.49291 0.03525 0.23028 0.0
H2461 H 0.58962 0.05646 0.25354 0.0
H2462 H 0.46302 -0.00449 0.25576 0.0
H2463 H 0.56012 0.01882 0.2792 0.0
H2464 H 0.4996 0.97668 0.33084 0.0
H2465 H 0.51452 0.01791 0.30597 0.0
H2466 H 0.46905 0.93566 0.26668 0.0
H2467 H 0.45442 0.89423 0.29169 0.0
C2468 C 0.50769 0.03139 0.24074 0.0
C2469 C 0.54351 0.04831 0.2397 0.0
C2470 C 0.49067 0.00905 0.25536 0.0
C2471 C 0.50942 0.00445 0.2694 0.0
C2472 C 0.54517 0.02224 0.26861 0.0
C2473 C 0.56199 0.04367 0.25387 0.0
C2474 C 0.49126 0.96729 0.31707 0.0
C2475 C 0.4752 0.93228 0.31322 0.0
C2476 C 0.50005 0.99091 0.30281 0.0
C2477 C 0.49262 0.97983 0.28449 0.0
C2478 C 0.47448 0.94472 0.28073 0.0
C2479 C 0.46622 0.92112 0.295 0.0
H2480 H 0.05741 0.51209 0.31805 0.0
H2481 H 0.01249 0.57357 0.33186 0.0
H2482 H 0.02048 0.49077 0.29062 0.0
H2483 H 0.97462 0.55121 0.30544 0.0
H2484 H 0.9538 0.55336 0.24647 0.0
H2485 H 0.98876 0.56509 0.27379 0.0
H2486 H 0.96221 0.45921 0.27637 0.0
H2487 H 0.92784 0.4478 0.24813 0.0
C2488 C 0.03882 0.52006 0.31551 0.0
C2489 C 0.03788 0.54471 0.32674 0.0
C2490 C 0.01778 0.50795 0.29987 0.0
C2491 C -0.00458 0.52016 0.29557 0.0
C2492 C -0.00755 0.54228 0.30797 0.0
C2493 C 0.01384 0.55484 0.3232 0.0
C2494 C 0.95566 0.53263 0.25277 0.0
C2495 C 0.9378 0.49963 0.24548 0.0
C2496 C 0.97544 0.53924 0.26852 0.0
C2497 C 0.97728 0.51281 0.27764 0.0
C2498 C 0.96098 0.48 0.26974 0.0
C2499 C 0.9414 0.47347 0.25364 0.0
H2500 H 0.49305 0.39646 0.26384 0.0
H2501 H 0.49689 0.47364 0.22744 0.0
H2502 H 0.47752 0.42093 0.28923 0.0
H2503 H 0.4814 0.49834 0.25291 0.0
H2504 H 0.39941 0.48898 0.29604 0.0
H2505 H 0.42694 0.4766 0.27075 0.0
H2506 H 0.49738 0.47172 0.30923 0.0
H2507 H 0.46904 0.48298 0.33437 0.0
C2508 C 0.49122 0.41909 0.26138 0.0
C2509 C 0.49609 0.43314 0.24371 0.0
C2510 C 0.48248 0.43321 0.27592 0.0
C2511 C 0.47815 0.46151 0.27305 0.0
C2512 C 0.48433 0.47638 0.25549 0.0
C2513 C 0.49341 0.4624 0.24095 0.0
C2514 C 0.42125 0.48595 0.29897 0.0
C2515 C 0.43284 0.48796 0.31709 0.0
C2516 C 0.43713 0.47908 0.28452 0.0
C2517 C 0.4645 0.47344 0.288 0.0
C2518 C 0.47646 0.47612 0.30612 0.0
C2519 C 0.46071 0.48326 0.32052 0.0
H2520 H 0.94793 0.12936 0.33229 0.0
H2521 H 0.92109 0.20545 0.31777 0.0
H2522 H -0.00655 0.15283 0.30933 0.0
H2523 H 0.96623 0.2287 0.29474 0.0
H2524 H 0.07296 0.28175 0.26864 0.0
H2525 H 0.03016 0.25939 0.29306 0.0
H2526 H -0.00324 0.15658 0.27491 0.0
H2527 H 0.03964 0.17895 0.25066 0.0
C2528 C 0.95191 0.15117 0.32423 0.0
C2529 C 0.93115 0.16567 0.32678 0.0
C2530 C 0.97775 0.16446 0.31104 0.0
C2531 C 0.98339 0.19262 0.30025 0.0
C2532 C 0.96273 0.20724 0.30297 0.0
C2533 C 0.93675 0.19378 0.31604 0.0
C2534 C 0.05654 0.2544 0.26997 0.0
C2535 C 0.05943 0.23205 0.25778 0.0
C2536 C 0.03198 0.24162 0.28386 0.0
C2537 C 0.01014 0.20624 0.28589 0.0
C2538 C 0.01345 0.18393 0.27381 0.0
C2539 C 0.03779 0.19673 0.25985 0.0
H2540 H 0.77746 0.70564 0.31556 0.0
H2541 H 0.85026 0.80795 0.33309 0.0
H2542 H 0.75478 0.72872 0.29252 0.0
H2543 H 0.82762 0.83103 0.31017 0.0
H2544 H 0.8057 0.85703 0.25211 0.0
H2545 H 0.82675 0.83361 0.27569 0.0
H2546 H 0.72294 0.76161 0.29116 0.0
H2547 H 0.70187 0.78508 0.26741 0.0
C2548 C 0.78859 0.73304 0.31444 0.0
C2549 C 0.81565 0.75507 0.326 0.0
C2550 C 0.77547 0.74622 0.30139 0.0
C2551 C 0.78949 0.78167 0.29953 0.0
C2552 C 0.81654 0.80362 0.31116 0.0
C2553 C 0.82939 0.79044 0.32432 0.0
C2554 C 0.78741 0.83622 0.26057 0.0
C2555 C 0.7522 0.82282 0.25799 0.0
C2556 C 0.79945 0.82296 0.27412 0.0
C2557 C 0.77648 0.79583 0.28528 0.0
C2558 C 0.7412 0.78237 0.28267 0.0
C2559 C 0.72916 0.79592 0.26921 0.0
H2560 H 0.27183 0.06156 0.31049 0.0
H2561 H 0.16968 0.02464 0.33057 0.0
H2562 H 0.2495 0.01755 0.28682 0.0
H2563 H 0.14698 0.98087 0.30657 0.0
H2564 H 0.12217 0.8889 0.26866 0.0
H2565 H 0.1437 0.92874 0.29476 0.0
H2566 H 0.21773 0.00705 0.25912 0.0
H2567 H 0.19735 0.96738 0.23367 0.0
C2568 C 0.24455 0.04401 0.30978 0.0
C2569 C 0.22247 0.04654 0.32227 0.0
C2570 C 0.23168 0.01884 0.29619 0.0
C2571 C 0.19634 -0.00417 0.29463 0.0
C2572 C 0.17431 -0.00207 0.30745 0.0
C2573 C 0.18728 0.02307 0.32114 0.0
C2574 C 0.14308 0.91463 0.26654 0.0
C2575 C 0.15797 0.92506 0.24914 0.0
C2576 C 0.15531 0.93749 0.28142 0.0
C2577 C 0.18269 0.97108 0.27909 0.0
C2578 C 0.19717 0.98127 0.26158 0.0
C2579 C 0.18515 0.95855 0.24688 0.0
H2580 H 0.94624 0.80723 0.82771 0.0
H2581 H 0.90886 0.70517 0.80717 0.0
H2582 H 0.98975 0.82991 0.8038 0.0
H2583 H 0.95263 0.72792 0.78313 0.0
H2584 H 0.06391 0.78281 0.75913 0.0
H2585 H 0.01836 0.75831 0.78207 0.0
H2586 H -0.0087 0.83481 0.76889 0.0
H2587 H 0.03674 0.85918 0.74596 0.0
C2588 C 0.94738 0.78967 0.81805 0.0
C2589 C 0.92433 0.75447 0.81927 0.0
C2590 C 0.97212 0.80267 0.80431 0.0
C2591 C 0.97454 0.78068 0.7916 0.0
C2592 C 0.95144 0.74541 0.79282 0.0
C2593 C 0.92634 0.73243 0.80647 0.0
C2594 C 0.04821 0.79435 0.76119 0.0
C2595 C 0.05382 0.82291 0.75087 0.0
C2596 C 0.02202 0.78019 0.77418 0.0
C2597 C 0.00135 0.79469 0.77727 0.0
C2598 C 0.00703 0.82328 0.7669 0.0
C2599 C 0.0329 0.83713 0.75375 0.0
H2600 H 0.11855 0.21219 0.76465 0.0
H2601 H 0.20397 0.23076 0.73059 0.0
H2602 H 0.14091 0.19149 0.78925 0.0
H2603 H 0.22527 0.2089 0.75445 0.0
H2604 H 0.27484 0.20033 0.80655 0.0
H2605 H 0.25205 0.22336 0.78372 0.0
H2606 H 0.14941 0.14432 0.79705 0.0
H2607 H 0.17238 0.12196 0.82014 0.0
C2608 C 0.14188 0.21158 0.76239 0.0
C2609 C 0.15925 0.22267 0.74564 0.0
C2610 C 0.15462 0.19958 0.77639 0.0
C2611 C 0.185 0.19858 0.77386 0.0
C2612 C 0.20219 0.20979 0.75706 0.0
C2613 C 0.18964 0.22188 0.74323 0.0
C2614 C 0.24745 0.18791 0.80452 0.0
C2615 C 0.22537 0.15941 0.81504 0.0
C2616 C 0.23432 0.20101 0.79143 0.0
C2617 C 0.19881 0.18564 0.78847 0.0
C2618 C 0.17679 0.15711 0.79911 0.0
C2619 C 0.18996 0.14415 0.81224 0.0
H2620 H 0.78856 0.01813 0.83181 0.0
H2621 H 0.85692 0.09818 0.79519 0.0
H2622 H 0.76736 0.97796 0.80635 0.0
H2623 H 0.83505 0.05792 0.76938 0.0
H2624 H 0.81019 0.963 0.73307 0.0
H2625 H 0.83391 0.00585 0.75754 0.0
H2626 H 0.73237 0.96836 0.77897 0.0
H2627 H 0.70889 0.92558 0.75466 0.0
C2628 C 0.79917 0.02708 0.81829 0.0
C2629 C 0.82442 0.0612 0.81546 0.0
C2630 C 0.78677 0.00415 0.80366 0.0
C2631 C 0.79929 0.01482 0.7858 0.0
C2632 C 0.82503 0.04891 0.783 0.0
C2633 C 0.83743 0.07195 0.79771 0.0
C2634 C 0.793 0.96424 0.74293 0.0
C2635 C 0.75775 0.94101 0.74205 0.0
C2636 C 0.80655 0.98877 0.7569 0.0
C2637 C 0.78505 0.99031 0.77027 0.0
C2638 C 0.74968 0.96744 0.76907 0.0
C2639 C 0.7362 0.94305 0.75512 0.0
H2640 H 0.59783 0.53758 0.66487 0.0
H2641 H 0.59117 0.43981 0.65865 0.0
H2642 H 0.63709 0.56005 0.6392 0.0
H2643 H 0.63258 0.46272 0.63354 0.0
H2644 H 0.6889 0.50747 0.57979 0.0
H2645 H 0.64484 0.48244 0.60326 0.0
H2646 H 0.69342 0.57864 0.6325 0.0
H2647 H 0.73541 0.60405 0.6082 0.0
C2648 C 0.60494 0.52095 0.6579 0.0
C2649 C 0.5916 0.48705 0.66355 0.0
C2650 C 0.62779 0.53389 0.64333 0.0
C2651 C 0.63866 0.51349 0.6344 0.0
C2652 C 0.6246 0.47915 0.63991 0.0
C2653 C 0.601 0.46596 0.6543 0.0
C2654 C 0.68953 0.52336 0.59103 0.0
C2655 C 0.71494 0.55791 0.59194 0.0
C2656 C 0.66465 0.50888 0.60469 0.0
C2657 C 0.66516 0.5285 0.61979 0.0
C2658 C 0.6914 0.56288 0.62087 0.0
C2659 C 0.71578 0.57746 0.60702 0.0
H2660 H 0.51627 0.15076 0.66476 0.0
H2661 H 0.44284 0.04922 0.64648 0.0
H2662 H 0.4948 0.17494 0.64172 0.0
H2663 H 0.42057 0.07305 0.62395 0.0
H2664 H 0.42001 0.12362 0.57102 0.0
H2665 H 0.44013 0.10251 0.59574 0.0
H2666 H 0.44726 0.18208 0.63138 0.0
H2667 H 0.42834 0.20446 0.60588 0.0
C2668 C 0.49528 0.13365 0.65592 0.0
C2669 C 0.48148 0.09818 0.65716 0.0
C2670 C 0.48283 0.14747 0.64283 0.0
C2671 C 0.45624 0.12598 0.63081 0.0
C2672 C 0.44164 0.09041 0.63266 0.0
C2673 C 0.45428 0.07669 0.6456 0.0
C2674 C 0.42631 0.13704 0.58401 0.0
C2675 C 0.42303 0.16601 0.58643 0.0
C2676 C 0.43736 0.12454 0.59834 0.0
C2677 C 0.44495 0.14028 0.61567 0.0
C2678 C 0.4418 0.16945 0.61816 0.0
C2679 C 0.43085 0.18219 0.60363 0.0
H2680 H 0.93836 0.40182 0.64541 0.0
H2681 H 0.8365 0.36959 0.6645 0.0
H2682 H 0.91497 0.35639 0.62236 0.0
H2683 H 0.813 0.32402 0.64142 0.0
H2684 H 0.78661 0.27697 0.58246 0.0
H2685 H 0.80895 0.32056 0.60654 0.0
H2686 H 0.88362 0.2917 0.62126 0.0
H2687 H 0.86118 0.24805 0.59714 0.0
C2688 C 0.91096 0.38497 0.64466 0.0
C2689 C 0.88921 0.38913 0.65672 0.0
C2690 C 0.8976 0.35885 0.63156 0.0
C2691 C 0.86216 0.33664 0.63009 0.0
C2692 C 0.84039 0.3409 0.64215 0.0
C2693 C 0.85382 0.36681 0.6554 0.0
C2694 C 0.80775 0.27994 0.59088 0.0
C2695 C 0.82225 0.25926 0.58795 0.0
C2696 C 0.82038 0.30472 0.60472 0.0
C2697 C 0.84802 0.30953 0.61579 0.0
C2698 C 0.86245 0.28872 0.61286 0.0
C2699 C 0.84952 0.26366 0.59915 0.0
H2700 H 0.68101 0.13073 0.05652 0.0
H2701 H 0.7575 0.18853 0.09748 0.0
H2702 H 0.63708 0.10771 0.08018 0.0
H2703 H 0.71371 0.16505 0.12138 0.0
H2704 H 0.61814 0.14327 0.15493 0.0
H2705 H 0.66196 0.16768 0.13121 0.0
H2706 H 0.62194 0.06788 0.10682 0.0
H2707 H 0.57839 0.04342 0.13078 0.0
C2708 C 0.68825 0.13908 0.07052 0.0
C2709 C 0.72241 0.16203 0.07511 0.0
C2710 C 0.66324 0.12544 0.08414 0.0
C2711 C 0.67192 0.13461 0.10265 0.0
C2712 C 0.70617 0.1578 0.10721 0.0
C2713 C 0.73122 0.17114 0.09358 0.0
C2714 C 0.61899 0.12651 0.14463 0.0
C2715 C 0.59516 0.0914 0.14479 0.0
C2716 C 0.64403 0.14049 0.13103 0.0
C2717 C 0.64543 0.11971 0.11716 0.0
C2718 C 0.62131 0.0846 0.11724 0.0
C2719 C 0.59648 0.07057 0.13096 0.0
H2720 H 0.94021 0.53082 0.13996 0.0
H2721 H 0.83879 0.46463 0.16082 0.0
H2722 H 0.91676 0.55262 0.11679 0.0
H2723 H 0.81511 0.48594 0.13752 0.0
H2724 H 0.78974 0.55688 0.10343 0.0
H2725 H 0.81246 0.53638 0.12793 0.0
H2726 H 0.88271 0.53259 0.08932 0.0
H2727 H 0.86101 0.55391 0.06534 0.0
C2728 C 0.91289 0.52084 0.13949 0.0
C2729 C 0.8913 0.49611 0.15212 0.0
C2730 C 0.89939 0.53323 0.12623 0.0
C2731 C 0.86399 0.52094 0.12526 0.0
C2732 C 0.84248 0.49627 0.13802 0.0
C2733 C 0.85601 0.48395 0.15129 0.0
C2734 C 0.80999 0.55158 0.10028 0.0
C2735 C 0.8235 0.55685 0.0825 0.0
C2736 C 0.82292 0.53973 0.11424 0.0
C2737 C 0.84961 0.53308 0.11061 0.0
C2738 C 0.86267 0.53806 0.09272 0.0
C2739 C 0.8499 0.54993 0.07889 0.0
H2740 H 0.46421 0.35041 0.1654 0.0
H2741 H 0.50605 0.42967 0.1244 0.0
H2742 H 0.44322 0.30705 0.14143 0.0
H2743 H 0.48506 0.38597 0.10014 0.0
H2744 H 0.4787 0.29078 0.06838 0.0
H2745 H 0.49916 0.33636 0.09138 0.0
H2746 H 0.398 0.28998 0.11449 0.0
H2747 H 0.37719 0.24532 0.09098 0.0
C2748 C 0.4693 0.35854 0.15127 0.0
C2749 C 0.48727 0.3933 0.14676 0.0
C2750 C 0.45692 0.33373 0.13754 0.0
C2751 C 0.46266 0.34324 0.11899 0.0
C2752 C 0.48053 0.37807 0.11439 0.0
C2753 C 0.49236 0.40295 0.1282 0.0
C2754 C 0.46076 0.29075 0.07816 0.0
C2755 C 0.42629 0.26497 0.07774 0.0
C2756 C 0.47247 0.3167 0.09132 0.0
C2757 C 0.45006 0.31669 0.10457 0.0
C2758 C 0.41573 0.29049 0.10439 0.0
C2759 C 0.40389 0.26495 0.091 0.0
H2760 H 0.42266 0.89856 0.93731 0.0
H2761 H 0.34323 0.88343 0.89905 0.0
H2762 H 0.38066 0.87638 0.96225 0.0
H2763 H 0.3012 0.86051 0.92358 0.0
H2764 H 0.2467 0.86376 0.97544 0.0
H2765 H 0.28954 0.88449 0.95129 0.0
H2766 H 0.32844 0.82113 0.97221 0.0
H2767 H 0.28499 0.79994 0.99635 0.0
C2768 C 0.39613 0.8901 0.93426 0.0
C2769 C 0.38583 0.89185 0.91628 0.0
C2770 C 0.37214 0.87728 0.94843 0.0
C2771 C 0.33765 0.8666 0.94483 0.0
C2772 C 0.3276 0.86862 0.92679 0.0
C2773 C 0.35151 0.88119 0.91266 0.0
C2774 C 0.26436 0.8542 0.97486 0.0
C2775 C 0.26281 0.83051 0.98782 0.0
C2776 C 0.28881 0.866 0.96102 0.0
C2777 C 0.31226 0.85437 0.95985 0.0
C2778 C 0.31089 0.83079 0.97291 0.0
C2779 C 0.28616 0.81876 0.98672 0.0
H2780 H 0.11727 0.37028 0.98346 0.0
H2781 H 0.18155 0.47338 1.00288 0.0
H2782 H 0.09418 0.39125 0.95951 0.0
H2783 H 0.15783 0.49424 0.97927 0.0
H2784 H 0.07726 0.50925 0.94629 0.0
H2785 H 0.09931 0.48817 0.97089 0.0
H2786 H 0.11832 0.42913 0.93111 0.0
H2787 H 0.09614 0.44997 0.90683 0.0
C2788 C 0.12634 0.39738 0.98263 0.0
C2789 C 0.15098 0.4202 0.99507 0.0
C2790 C 0.11318 0.40937 0.96895 0.0
C2791 C 0.12413 0.44435 0.9676 0.0
C2792 C 0.14863 0.46711 0.98014 0.0
C2793 C 0.16217 0.45518 0.99364 0.0
C2794 C 0.08635 0.49189 0.94289 0.0
C2795 C 0.08593 0.48189 0.92463 0.0
C2796 C 0.09902 0.47995 0.9569 0.0
C2797 C 0.11067 0.45715 0.95287 0.0
C2798 C 0.10953 0.44668 0.93462 0.0
C2799 C 0.09739 0.45906 0.92064 0.0
H2800 H 0.46154 0.55374 0.94972 0.0
H2801 H 0.51482 0.6303 0.90835 0.0
H2802 H 0.48437 0.59841 0.97349 0.0
H2803 H 0.5373 0.67456 0.93172 0.0
H2804 H 0.6031 0.73579 0.98147 0.0
H2805 H 0.57903 0.68999 0.95863 0.0
H2806 H 0.47886 0.65172 0.98196 0.0
H2807 H 0.50283 0.69813 1.00454 0.0
C2808 C 0.47789 0.58009 0.94571 0.0
C2809 C 0.4857 0.58868 0.92712 0.0
C2810 C 0.49083 0.60559 0.95924 0.0
C2811 C 0.51254 0.63996 0.95442 0.0
C2812 C 0.52068 0.64831 0.93586 0.0
C2813 C 0.50732 0.62296 0.92239 0.0
C2814 C 0.57594 0.71763 0.98169 0.0
C2815 C 0.55488 0.72023 0.9949 0.0
C2816 C 0.56218 0.69145 0.96863 0.0
C2817 C 0.52711 0.66718 0.96861 0.0
C2818 C 0.50604 0.66976 0.98185 0.0
C2819 C 0.51976 0.69628 0.99475 0.0
H2820 H 0.27239 0.47668 0.48531 0.0
H2821 H 0.23998 0.37269 0.4702 0.0
H2822 H 0.31613 0.49727 0.46142 0.0
H2823 H 0.28369 0.39323 0.44625 0.0
H2824 H 0.39347 0.44654 0.42172 0.0
H2825 H 0.34872 0.42523 0.44509 0.0
H2826 H 0.31823 0.49671 0.42649 0.0
H2827 H 0.36298 0.51797 0.40314 0.0
C2828 C 0.2747 0.45827 0.47687 0.0
C2829 C 0.253 0.42314 0.47959 0.0
C2830 C 0.29952 0.47003 0.46314 0.0
C2831 C 0.3033 0.44684 0.45199 0.0
C2832 C 0.28152 0.41166 0.45474 0.0
C2833 C 0.25642 0.39992 0.46834 0.0
C2834 C 0.37718 0.45765 0.42267 0.0
C2835 C 0.38161 0.48386 0.41069 0.0
C2836 C 0.35148 0.44534 0.43594 0.0
C2837 C 0.33005 0.45935 0.43762 0.0
C2838 C 0.33457 0.48564 0.42561 0.0
C2839 C 0.36001 0.49766 0.41221 0.0
H2840 H 0.45065 0.88065 0.4279 0.0
H2841 H 0.5237 0.8783 0.39093 0.0
H2842 H 0.47316 0.86142 0.45301 0.0
H2843 H 0.54534 0.85807 0.41565 0.0
H2844 H 0.60279 0.86166 0.46788 0.0
H2845 H 0.57869 0.87986 0.44322 0.0
H2846 H 0.47723 0.81311 0.46418 0.0
H2847 H 0.50156 0.79543 0.48896 0.0
C2848 C 0.47119 0.87559 0.42511 0.0
C2849 C 0.48537 0.88089 0.40748 0.0
C2850 C 0.48402 0.86446 0.43944 0.0
C2851 C 0.51126 0.85843 0.43638 0.0
C2852 C 0.52481 0.86306 0.4186 0.0
C2853 C 0.51212 0.87429 0.40436 0.0
C2854 C 0.57537 0.85092 0.46717 0.0
C2855 C 0.55404 0.82728 0.48032 0.0
C2856 C 0.56149 0.86118 0.45301 0.0
C2857 C 0.52596 0.84785 0.45166 0.0
C2858 C 0.50469 0.82421 0.46492 0.0
C2859 C 0.51861 0.81401 0.47909 0.0
H2860 H 0.17746 0.76258 0.46436 0.0
H2861 H 0.11891 0.68536 0.50453 0.0
H2862 H 0.15691 0.71865 0.44031 0.0
H2863 H 0.09935 0.64146 0.48095 0.0
H2864 H 0.04067 0.57855 0.43121 0.0
H2865 H 0.06154 0.62423 0.45392 0.0
H2866 H 0.16309 0.66827 0.43138 0.0
H2867 H 0.14206 0.62228 0.40862 0.0
C2868 C 0.16041 0.73617 0.46804 0.0
C2869 C 0.15039 0.72705 0.48634 0.0
C2870 C 0.14886 0.71107 0.45436 0.0
C2871 C 0.12668 0.67661 0.45878 0.0
C2872 C 0.11635 0.66778 0.47709 0.0
C2873 C 0.12804 0.69279 0.49069 0.0
C2874 C 0.06746 0.59797 0.43114 0.0
C2875 C 0.08979 0.59702 0.41819 0.0
C2876 C 0.07941 0.62407 0.44414 0.0
C2877 C 0.11396 0.64977 0.44445 0.0
C2878 C 0.13627 0.649 0.43134 0.0
C2879 C 0.12429 0.62271 0.41836 0.0
loop_
_geom_bond_atom_site_label_1
_geom_bond_atom_site_label_2
_geom_bond_distance
_geom_bond_site_symmetry_2
_ccdc_geom_bond_type
Tb0 O3 2.453 . S
Tb0 O4 2.596 . S
Tb0 O5 2.374 . S
Tb0 O13 2.343 . S
Tb0 O15 2.353 . S
Tb0 O17 2.427 . S
Tb0 O18 2.513 . S
C1 O5 1.251 . S
C1 O7 1.263 . S
Tb2 O4 2.343 . S
Tb2 O7 2.353 . S
Tb2 O10 2.427 . S
Tb2 O11 2.513 . S
Tb2 O12 2.453 . S
Tb2 O13 2.596 . S
Tb2 O14 2.374 . S
O3 Tb0 2.453 . S
O3 C19 1.245 . S
O4 Tb0 2.596 . S
O4 Tb2 2.343 . S
O4 C19 1.259 . S
O5 Tb0 2.374 . S
O5 C1 1.251 . S
C6 O10 1.275 . S
C6 O11 1.246 . S
O7 C1 1.263 . S
O7 Tb2 2.353 . S
C8 O12 1.245 . S
C8 O13 1.259 . S
C9 O14 1.250 . S
C9 O15 1.263 . S
O10 Tb2 2.427 . S
O10 C6 1.275 . S
O11 Tb2 2.513 . S
O11 C6 1.246 . S
O12 Tb2 2.453 . S
O12 C8 1.245 . S
O13 Tb0 2.343 . S
O13 Tb2 2.596 . S
O13 C8 1.259 . S
O14 Tb2 2.374 . S
O14 C9 1.250 . S
O15 Tb0 2.353 . S
O15 C9 1.263 . S
C16 O17 1.275 . S
C16 O18 1.246 . S
O17 Tb0 2.427 . S
O17 C16 1.275 . S
O18 Tb0 2.513 . S
O18 C16 1.246 . S
C19 O3 1.245 . S
C19 O4 1.259 . S
Tb20 O23 2.453 . S
Tb20 O24 2.596 . S
Tb20 O25 2.374 . S
Tb20 O33 2.343 . S
Tb20 O35 2.353 . S
Tb20 O37 2.427 . S
Tb20 O38 2.513 . S
C21 O25 1.251 . S
C21 O27 1.263 . S
Tb22 O24 2.343 . S
Tb22 O27 2.353 . S
Tb22 O30 2.427 . S
Tb22 O31 2.513 . S
Tb22 O32 2.453 . S
Tb22 O33 2.596 . S
Tb22 O34 2.374 . S
O23 Tb20 2.453 . S
O23 C39 1.245 . S
O24 Tb20 2.596 . S
O24 Tb22 2.343 . S
O24 C39 1.259 . S
O25 Tb20 2.374 . S
O25 C21 1.251 . S
C26 O30 1.275 . S
C26 O31 1.246 . S
O27 C21 1.263 . S
O27 Tb22 2.353 . S
C28 O32 1.245 . S
C28 O33 1.259 . S
C29 O34 1.250 . S
C29 O35 1.263 . S
O30 Tb22 2.427 . S
O30 C26 1.275 . S
O31 Tb22 2.513 . S
O31 C26 1.246 . S
O32 Tb22 2.453 . S
O32 C28 1.245 . S
O33 Tb20 2.343 . S
O33 Tb22 2.596 . S
O33 C28 1.259 . S
O34 Tb22 2.374 . S
O34 C29 1.250 . S
O35 Tb20 2.353 . S
O35 C29 1.263 . S
C36 O37 1.275 . S
C36 O38 1.246 . S
O37 Tb20 2.427 . S
O37 C36 1.275 . S
O38 Tb20 2.513 . S
O38 C36 1.246 . S
C39 O23 1.245 . S
C39 O24 1.259 . S
Tb40 O43 2.453 . S
Tb40 O44 2.596 . S
Tb40 O45 2.374 . S
Tb40 O53 2.343 . S
Tb40 O55 2.353 . S
Tb40 O57 2.427 . S
Tb40 O58 2.513 . S
C41 O45 1.251 . S
C41 O47 1.263 . S
Tb42 O44 2.343 . S
Tb42 O47 2.353 . S
Tb42 O50 2.427 . S
Tb42 O51 2.513 . S
Tb42 O52 2.453 . S
Tb42 O53 2.596 . S
Tb42 O54 2.374 . S
O43 Tb40 2.453 . S
O43 C59 1.245 . S
O44 Tb40 2.596 . S
O44 Tb42 2.343 . S
O44 C59 1.259 . S
O45 Tb40 2.374 . S
O45 C41 1.251 . S
C46 O50 1.275 . S
C46 O51 1.246 . S
O47 C41 1.263 . S
O47 Tb42 2.353 . S
C48 O52 1.245 . S
C48 O53 1.259 . S
C49 O54 1.250 . S
C49 O55 1.263 . S
O50 Tb42 2.427 . S
O50 C46 1.275 . S
O51 Tb42 2.513 . S
O51 C46 1.246 . S
O52 Tb42 2.453 . S
O52 C48 1.245 . S
O53 Tb40 2.343 . S
O53 Tb42 2.596 . S
O53 C48 1.259 . S
O54 Tb42 2.374 . S
O54 C49 1.250 . S
O55 Tb40 2.353 . S
O55 C49 1.263 . S
C56 O57 1.275 . S
C56 O58 1.246 . S
O57 Tb40 2.427 . S
O57 C56 1.275 . S
O58 Tb40 2.513 . S
O58 C56 1.246 . S
C59 O43 1.245 . S
C59 O44 1.259 . S
Tb60 O63 2.453 . S
Tb60 O64 2.596 . S
Tb60 O65 2.374 . S
Tb60 O73 2.343 . S
Tb60 O75 2.353 . S
Tb60 O77 2.427 . S
Tb60 O78 2.513 . S
C61 O65 1.251 . S
C61 O67 1.263 . S
Tb62 O64 2.343 . S
Tb62 O67 2.353 . S
Tb62 O70 2.427 . S
Tb62 O71 2.513 . S
Tb62 O72 2.453 . S
Tb62 O73 2.596 . S
Tb62 O74 2.374 . S
O63 Tb60 2.453 . S
O63 C79 1.245 . S
O64 Tb60 2.596 . S
O64 Tb62 2.343 . S
O64 C79 1.259 . S
O65 Tb60 2.374 . S
O65 C61 1.251 . S
C66 O70 1.275 . S
C66 O71 1.246 . S
O67 C61 1.263 . S
O67 Tb62 2.353 . S
C68 O72 1.245 . S
C68 O73 1.259 . S
C69 O74 1.250 . S
C69 O75 1.263 . S
O70 Tb62 2.427 . S
O70 C66 1.275 . S
O71 Tb62 2.513 . S
O71 C66 1.246 . S
O72 Tb62 2.453 . S
O72 C68 1.245 . S
O73 Tb60 2.343 . S
O73 Tb62 2.596 . S
O73 C68 1.259 . S
O74 Tb62 2.374 . S
O74 C69 1.250 . S
O75 Tb60 2.353 . S
O75 C69 1.263 . S
C76 O77 1.275 . S
C76 O78 1.246 . S
O77 Tb60 2.427 . S
O77 C76 1.275 . S
O78 Tb60 2.513 . S
O78 C76 1.246 . S
C79 O63 1.245 . S
C79 O64 1.259 . S
Tb80 O83 2.453 . S
Tb80 O84 2.596 . S
Tb80 O85 2.374 . S
Tb80 O93 2.343 . S
Tb80 O95 2.353 . S
Tb80 O97 2.427 . S
Tb80 O98 2.513 . S
C81 O85 1.251 . S
C81 O87 1.263 . S
Tb82 O84 2.343 . S
Tb82 O87 2.353 . S
Tb82 O90 2.427 . S
Tb82 O91 2.513 . S
Tb82 O92 2.453 . S
Tb82 O93 2.596 . S
Tb82 O94 2.374 . S
O83 Tb80 2.453 . S
O83 C99 1.245 . S
O84 Tb80 2.596 . S
O84 Tb82 2.343 . S
O84 C99 1.259 . S
O85 Tb80 2.374 . S
O85 C81 1.251 . S
C86 O90 1.275 . S
C86 O91 1.246 . S
O87 C81 1.263 . S
O87 Tb82 2.353 . S
C88 O92 1.245 . S
C88 O93 1.259 . S
C89 O94 1.250 . S
C89 O95 1.263 . S
O90 Tb82 2.427 . S
O90 C86 1.275 . S
O91 Tb82 2.513 . S
O91 C86 1.246 . S
O92 Tb82 2.453 . S
O92 C88 1.245 . S
O93 Tb80 2.343 . S
O93 Tb82 2.596 . S
O93 C88 1.259 . S
O94 Tb82 2.374 . S
O94 C89 1.250 . S
O95 Tb80 2.353 . S
O95 C89 1.263 . S
C96 O97 1.275 . S
C96 O98 1.246 . S
O97 Tb80 2.427 . S
O97 C96 1.275 . S
O98 Tb80 2.513 . S
O98 C96 1.246 . S
C99 O83 1.245 . S
C99 O84 1.259 . S
Tb100 O103 2.453 . S
Tb100 O104 2.596 . S
Tb100 O105 2.374 . S
Tb100 O113 2.343 . S
Tb100 O115 2.353 . S
Tb100 O117 2.427 . S
Tb100 O118 2.513 . S
C101 O105 1.251 . S
C101 O107 1.263 . S
Tb102 O104 2.343 . S
Tb102 O107 2.353 . S
Tb102 O110 2.427 . S
Tb102 O111 2.513 . S
Tb102 O112 2.453 . S
Tb102 O113 2.596 . S
Tb102 O114 2.374 . S
O103 Tb100 2.453 . S
O103 C119 1.245 . S
O104 Tb100 2.596 . S
O104 Tb102 2.343 . S
O104 C119 1.259 . S
O105 Tb100 2.374 . S
O105 C101 1.251 . S
C106 O110 1.275 . S
C106 O111 1.246 . S
O107 C101 1.263 . S
O107 Tb102 2.353 . S
C108 O112 1.245 . S
C108 O113 1.259 . S
C109 O114 1.250 . S
C109 O115 1.263 . S
O110 Tb102 2.427 . S
O110 C106 1.275 . S
O111 Tb102 2.513 . S
O111 C106 1.246 . S
O112 Tb102 2.453 . S
O112 C108 1.245 . S
O113 Tb100 2.343 . S
O113 Tb102 2.596 . S
O113 C108 1.259 . S
O114 Tb102 2.374 . S
O114 C109 1.250 . S
O115 Tb100 2.353 . S
O115 C109 1.263 . S
C116 O117 1.275 . S
C116 O118 1.246 . S
O117 Tb100 2.427 . S
O117 C116 1.275 . S
O118 Tb100 2.513 . S
O118 C116 1.246 . S
C119 O103 1.245 . S
C119 O104 1.259 . S
Tb120 O123 2.453 . S
Tb120 O124 2.596 . S
Tb120 O125 2.374 . S
Tb120 O133 2.343 . S
Tb120 O135 2.353 . S
Tb120 O137 2.427 . S
Tb120 O138 2.513 . S
C121 O125 1.251 . S
C121 O127 1.263 . S
Tb122 O124 2.343 . S
Tb122 O127 2.353 . S
Tb122 O130 2.427 . S
Tb122 O131 2.513 . S
Tb122 O132 2.453 . S
Tb122 O133 2.596 . S
Tb122 O134 2.374 . S
O123 Tb120 2.453 . S
O123 C139 1.245 . S
O124 Tb120 2.596 . S
O124 Tb122 2.343 . S
O124 C139 1.259 . S
O125 Tb120 2.374 . S
O125 C121 1.251 . S
C126 O130 1.275 . S
C126 O131 1.246 . S
O127 C121 1.263 . S
O127 Tb122 2.353 . S
C128 O132 1.245 . S
C128 O133 1.259 . S
C129 O134 1.250 . S
C129 O135 1.263 . S
O130 Tb122 2.427 . S
O130 C126 1.275 . S
O131 Tb122 2.513 . S
O131 C126 1.246 . S
O132 Tb122 2.453 . S
O132 C128 1.245 . S
O133 Tb120 2.343 . S
O133 Tb122 2.596 . S
O133 C128 1.259 . S
O134 Tb122 2.374 . S
O134 C129 1.250 . S
O135 Tb120 2.353 . S
O135 C129 1.263 . S
C136 O137 1.275 . S
C136 O138 1.246 . S
O137 Tb120 2.427 . S
O137 C136 1.275 . S
O138 Tb120 2.513 . S
O138 C136 1.246 . S
C139 O123 1.245 . S
C139 O124 1.259 . S
Tb140 O143 2.453 . S
Tb140 O144 2.596 . S
Tb140 O145 2.374 . S
Tb140 O153 2.343 . S
Tb140 O155 2.353 . S
Tb140 O157 2.427 . S
Tb140 O158 2.513 . S
C141 O145 1.251 . S
C141 O147 1.263 . S
Tb142 O144 2.343 . S
Tb142 O147 2.353 . S
Tb142 O150 2.427 . S
Tb142 O151 2.513 . S
Tb142 O152 2.453 . S
Tb142 O153 2.596 . S
Tb142 O154 2.374 . S
O143 Tb140 2.453 . S
O143 C159 1.245 . S
O144 Tb140 2.596 . S
O144 Tb142 2.343 . S
O144 C159 1.259 . S
O145 Tb140 2.374 . S
O145 C141 1.251 . S
C146 O150 1.275 . S
C146 O151 1.246 . S
O147 C141 1.263 . S
O147 Tb142 2.353 . S
C148 O152 1.245 . S
C148 O153 1.259 . S
C149 O154 1.250 . S
C149 O155 1.263 . S
O150 Tb142 2.427 . S
O150 C146 1.275 . S
O151 Tb142 2.513 . S
O151 C146 1.246 . S
O152 Tb142 2.453 . S
O152 C148 1.245 . S
O153 Tb140 2.343 . S
O153 Tb142 2.596 . S
O153 C148 1.259 . S
O154 Tb142 2.374 . S
O154 C149 1.250 . S
O155 Tb140 2.353 . S
O155 C149 1.263 . S
C156 O157 1.275 . S
C156 O158 1.246 . S
O157 Tb140 2.427 . S
O157 C156 1.275 . S
O158 Tb140 2.513 . S
O158 C156 1.246 . S
C159 O143 1.245 . S
C159 O144 1.259 . S
Tb160 O163 2.453 . S
Tb160 O164 2.596 . S
Tb160 O165 2.374 . S
Tb160 O173 2.343 . S
Tb160 O175 2.353 . S
Tb160 O177 2.427 . S
Tb160 O178 2.513 . S
C161 O165 1.251 . S
C161 O167 1.263 . S
Tb162 O164 2.343 . S
Tb162 O167 2.353 . S
Tb162 O170 2.427 . S
Tb162 O171 2.513 . S
Tb162 O172 2.453 . S
Tb162 O173 2.596 . S
Tb162 O174 2.374 . S
O163 Tb160 2.453 . S
O163 C179 1.245 . S
O164 Tb160 2.596 . S
O164 Tb162 2.343 . S
O164 C179 1.259 . S
O165 Tb160 2.374 . S
O165 C161 1.251 . S
C166 O170 1.275 . S
C166 O171 1.246 . S
O167 C161 1.263 . S
O167 Tb162 2.353 . S
C168 O172 1.245 . S
C168 O173 1.259 . S
C169 O174 1.250 . S
C169 O175 1.263 . S
O170 Tb162 2.427 . S
O170 C166 1.275 . S
O171 Tb162 2.513 . S
O171 C166 1.246 . S
O172 Tb162 2.453 . S
O172 C168 1.245 . S
O173 Tb160 2.343 . S
O173 Tb162 2.596 . S
O173 C168 1.259 . S
O174 Tb162 2.374 . S
O174 C169 1.250 . S
O175 Tb160 2.353 . S
O175 C169 1.263 . S
C176 O177 1.275 . S
C176 O178 1.246 . S
O177 Tb160 2.427 . S
O177 C176 1.275 . S
O178 Tb160 2.513 . S
O178 C176 1.246 . S
C179 O163 1.245 . S
C179 O164 1.259 . S
Tb180 O183 2.453 . S
Tb180 O184 2.596 . S
Tb180 O185 2.374 . S
Tb180 O193 2.343 . S
Tb180 O195 2.353 . S
Tb180 O197 2.427 . S
Tb180 O198 2.513 . S
C181 O185 1.251 . S
C181 O187 1.263 . S
Tb182 O184 2.343 . S
Tb182 O187 2.353 . S
Tb182 O190 2.427 . S
Tb182 O191 2.513 . S
Tb182 O192 2.453 . S
Tb182 O193 2.596 . S
Tb182 O194 2.374 . S
O183 Tb180 2.453 . S
O183 C199 1.245 . S
O184 Tb180 2.596 . S
O184 Tb182 2.343 . S
O184 C199 1.259 . S
O185 Tb180 2.374 . S
O185 C181 1.251 . S
C186 O190 1.275 . S
C186 O191 1.246 . S
O187 C181 1.263 . S
O187 Tb182 2.353 . S
C188 O192 1.245 . S
C188 O193 1.259 . S
C189 O194 1.250 . S
C189 O195 1.263 . S
O190 Tb182 2.427 . S
O190 C186 1.275 . S
O191 Tb182 2.513 . S
O191 C186 1.246 . S
O192 Tb182 2.453 . S
O192 C188 1.245 . S
O193 Tb180 2.343 . S
O193 Tb182 2.596 . S
O193 C188 1.259 . S
O194 Tb182 2.374 . S
O194 C189 1.250 . S
O195 Tb180 2.353 . S
O195 C189 1.263 . S
C196 O197 1.275 . S
C196 O198 1.246 . S
O197 Tb180 2.427 . S
O197 C196 1.275 . S
O198 Tb180 2.513 . S
O198 C196 1.246 . S
C199 O183 1.245 . S
C199 O184 1.259 . S
Tb200 O203 2.453 . S
Tb200 O204 2.596 . S
Tb200 O205 2.374 . S
Tb200 O213 2.343 . S
Tb200 O215 2.353 . S
Tb200 O217 2.427 . S
Tb200 O218 2.513 . S
C201 O205 1.251 . S
C201 O207 1.263 . S
Tb202 O204 2.343 . S
Tb202 O207 2.353 . S
Tb202 O210 2.427 . S
Tb202 O211 2.513 . S
Tb202 O212 2.453 . S
Tb202 O213 2.596 . S
Tb202 O214 2.374 . S
O203 Tb200 2.453 . S
O203 C219 1.245 . S
O204 Tb200 2.596 . S
O204 Tb202 2.343 . S
O204 C219 1.259 . S
O205 Tb200 2.374 . S
O205 C201 1.251 . S
C206 O210 1.275 . S
C206 O211 1.246 . S
O207 C201 1.263 . S
O207 Tb202 2.353 . S
C208 O212 1.245 . S
C208 O213 1.259 . S
C209 O214 1.250 . S
C209 O215 1.263 . S
O210 Tb202 2.427 . S
O210 C206 1.275 . S
O211 Tb202 2.513 . S
O211 C206 1.246 . S
O212 Tb202 2.453 . S
O212 C208 1.245 . S
O213 Tb200 2.343 . S
O213 Tb202 2.596 . S
O213 C208 1.259 . S
O214 Tb202 2.374 . S
O214 C209 1.250 . S
O215 Tb200 2.353 . S
O215 C209 1.263 . S
C216 O217 1.275 . S
C216 O218 1.246 . S
O217 Tb200 2.427 . S
O217 C216 1.275 . S
O218 Tb200 2.513 . S
O218 C216 1.246 . S
C219 O203 1.245 . S
C219 O204 1.259 . S
Tb220 O223 2.453 . S
Tb220 O224 2.596 . S
Tb220 O225 2.374 . S
Tb220 O233 2.343 . S
Tb220 O235 2.353 . S
Tb220 O237 2.427 . S
Tb220 O238 2.513 . S
C221 O225 1.251 . S
C221 O227 1.263 . S
Tb222 O224 2.343 . S
Tb222 O227 2.353 . S
Tb222 O230 2.427 . S
Tb222 O231 2.513 . S
Tb222 O232 2.453 . S
Tb222 O233 2.596 . S
Tb222 O234 2.374 . S
O223 Tb220 2.453 . S
O223 C239 1.245 . S
O224 Tb220 2.596 . S
O224 Tb222 2.343 . S
O224 C239 1.259 . S
O225 Tb220 2.374 . S
O225 C221 1.251 . S
C226 O230 1.275 . S
C226 O231 1.246 . S
O227 C221 1.263 . S
O227 Tb222 2.353 . S
C228 O232 1.245 . S
C228 O233 1.259 . S
C229 O234 1.250 . S
C229 O235 1.263 . S
O230 Tb222 2.427 . S
O230 C226 1.275 . S
O231 Tb222 2.513 . S
O231 C226 1.246 . S
O232 Tb222 2.453 . S
O232 C228 1.245 . S
O233 Tb220 2.343 . S
O233 Tb222 2.596 . S
O233 C228 1.259 . S
O234 Tb222 2.374 . S
O234 C229 1.250 . S
O235 Tb220 2.353 . S
O235 C229 1.263 . S
C236 O237 1.275 . S
C236 O238 1.246 . S
O237 Tb220 2.427 . S
O237 C236 1.275 . S
O238 Tb220 2.513 . S
O238 C236 1.246 . S
C239 O223 1.245 . S
C239 O224 1.259 . S
Tb240 O243 2.453 . S
Tb240 O244 2.596 . S
Tb240 O245 2.374 . S
Tb240 O253 2.343 . S
Tb240 O255 2.353 . S
Tb240 O257 2.427 . S
Tb240 O258 2.513 . S
C241 O245 1.251 . S
C241 O247 1.263 . S
Tb242 O244 2.343 . S
Tb242 O247 2.353 . S
Tb242 O250 2.427 . S
Tb242 O251 2.513 . S
Tb242 O252 2.453 . S
Tb242 O253 2.596 . S
Tb242 O254 2.374 . S
O243 Tb240 2.453 . S
O243 C259 1.245 . S
O244 Tb240 2.596 . S
O244 Tb242 2.343 . S
O244 C259 1.259 . S
O245 Tb240 2.374 . S
O245 C241 1.251 . S
C246 O250 1.275 . S
C246 O251 1.246 . S
O247 C241 1.263 . S
O247 Tb242 2.353 . S
C248 O252 1.245 . S
C248 O253 1.259 . S
C249 O254 1.250 . S
C249 O255 1.263 . S
O250 Tb242 2.427 . S
O250 C246 1.275 . S
O251 Tb242 2.513 . S
O251 C246 1.246 . S
O252 Tb242 2.453 . S
O252 C248 1.245 . S
O253 Tb240 2.343 . S
O253 Tb242 2.596 . S
O253 C248 1.259 . S
O254 Tb242 2.374 . S
O254 C249 1.250 . S
O255 Tb240 2.353 . S
O255 C249 1.263 . S
C256 O257 1.275 . S
C256 O258 1.246 . S
O257 Tb240 2.427 . S
O257 C256 1.275 . S
O258 Tb240 2.513 . S
O258 C256 1.246 . S
C259 O243 1.245 . S
C259 O244 1.259 . S
Tb260 O263 2.453 . S
Tb260 O264 2.596 . S
Tb260 O265 2.374 . S
Tb260 O273 2.343 . S
Tb260 O275 2.353 . S
Tb260 O277 2.427 . S
Tb260 O278 2.513 . S
C261 O265 1.251 . S
C261 O267 1.263 . S
Tb262 O264 2.343 . S
Tb262 O267 2.353 . S
Tb262 O270 2.427 . S
Tb262 O271 2.513 . S
Tb262 O272 2.453 . S
Tb262 O273 2.596 . S
Tb262 O274 2.374 . S
O263 Tb260 2.453 . S
O263 C279 1.245 . S
O264 Tb260 2.596 . S
O264 Tb262 2.343 . S
O264 C279 1.259 . S
O265 Tb260 2.374 . S
O265 C261 1.251 . S
C266 O270 1.275 . S
C266 O271 1.246 . S
O267 C261 1.263 . S
O267 Tb262 2.353 . S
C268 O272 1.245 . S
C268 O273 1.259 . S
C269 O274 1.250 . S
C269 O275 1.263 . S
O270 Tb262 2.427 . S
O270 C266 1.275 . S
O271 Tb262 2.513 . S
O271 C266 1.246 . S
O272 Tb262 2.453 . S
O272 C268 1.245 . S
O273 Tb260 2.343 . S
O273 Tb262 2.596 . S
O273 C268 1.259 . S
O274 Tb262 2.374 . S
O274 C269 1.250 . S
O275 Tb260 2.353 . S
O275 C269 1.263 . S
C276 O277 1.275 . S
C276 O278 1.246 . S
O277 Tb260 2.427 . S
O277 C276 1.275 . S
O278 Tb260 2.513 . S
O278 C276 1.246 . S
C279 O263 1.245 . S
C279 O264 1.259 . S
Tb280 O283 2.453 . S
Tb280 O284 2.596 . S
Tb280 O285 2.374 . S
Tb280 O293 2.343 . S
Tb280 O295 2.353 . S
Tb280 O297 2.427 . S
Tb280 O298 2.513 . S
C281 O285 1.251 . S
C281 O287 1.263 . S
Tb282 O284 2.343 . S
Tb282 O287 2.353 . S
Tb282 O290 2.427 . S
Tb282 O291 2.513 . S
Tb282 O292 2.453 . S
Tb282 O293 2.596 . S
Tb282 O294 2.374 . S
O283 Tb280 2.453 . S
O283 C299 1.245 . S
O284 Tb280 2.596 . S
O284 Tb282 2.343 . S
O284 C299 1.259 . S
O285 Tb280 2.374 . S
O285 C281 1.251 . S
C286 O290 1.275 . S
C286 O291 1.246 . S
O287 C281 1.263 . S
O287 Tb282 2.353 . S
C288 O292 1.245 . S
C288 O293 1.259 . S
C289 O294 1.250 . S
C289 O295 1.263 . S
O290 Tb282 2.427 . S
O290 C286 1.275 . S
O291 Tb282 2.513 . S
O291 C286 1.246 . S
O292 Tb282 2.453 . S
O292 C288 1.245 . S
O293 Tb280 2.343 . S
O293 Tb282 2.596 . S
O293 C288 1.259 . S
O294 Tb282 2.374 . S
O294 C289 1.250 . S
O295 Tb280 2.353 . S
O295 C289 1.263 . S
C296 O297 1.275 . S
C296 O298 1.246 . S
O297 Tb280 2.427 . S
O297 C296 1.275 . S
O298 Tb280 2.513 . S
O298 C296 1.246 . S
C299 O283 1.245 . S
C299 O284 1.259 . S
Tb300 O303 2.453 . S
Tb300 O304 2.596 . S
Tb300 O305 2.374 . S
Tb300 O313 2.343 . S
Tb300 O315 2.353 . S
Tb300 O317 2.427 1_655 S
Tb300 O318 2.513 . S
C301 O305 1.251 . S
C301 O307 1.263 . S
Tb302 O304 2.343 . S
Tb302 O307 2.353 . S
Tb302 O310 2.427 . S
Tb302 O311 2.513 . S
Tb302 O312 2.453 . S
Tb302 O313 2.596 . S
Tb302 O314 2.374 . S
O303 Tb300 2.453 . S
O303 C319 1.245 . S
O304 Tb300 2.596 . S
O304 Tb302 2.343 . S
O304 C319 1.259 . S
O305 Tb300 2.374 . S
O305 C301 1.251 . S
C306 O310 1.275 . S
C306 O311 1.246 . S
O307 C301 1.263 . S
O307 Tb302 2.353 . S
C308 O312 1.245 . S
C308 O313 1.259 . S
C309 O314 1.250 . S
C309 O315 1.263 . S
O310 Tb302 2.427 . S
O310 C306 1.275 . S
O311 Tb302 2.513 . S
O311 C306 1.246 . S
O312 Tb302 2.453 . S
O312 C308 1.245 . S
O313 Tb300 2.343 . S
O313 Tb302 2.596 . S
O313 C308 1.259 . S
O314 Tb302 2.374 . S
O314 C309 1.250 . S
O315 Tb300 2.353 . S
O315 C309 1.263 . S
C316 O317 1.275 1_655 S
C316 O318 1.246 . S
O317 Tb300 2.427 1_455 S
O317 C316 1.275 1_455 S
O318 Tb300 2.513 . S
O318 C316 1.246 . S
C319 O303 1.245 . S
C319 O304 1.259 . S
Tb320 O323 2.453 . S
Tb320 O324 2.596 . S
Tb320 O325 2.374 . S
Tb320 O333 2.343 . S
Tb320 O335 2.353 . S
Tb320 O337 2.427 . S
Tb320 O338 2.513 . S
C321 O325 1.251 . S
C321 O327 1.263 . S
Tb322 O324 2.343 . S
Tb322 O327 2.353 . S
Tb322 O330 2.427 . S
Tb322 O331 2.513 . S
Tb322 O332 2.453 . S
Tb322 O333 2.596 . S
Tb322 O334 2.374 . S
O323 Tb320 2.453 . S
O323 C339 1.245 . S
O324 Tb320 2.596 . S
O324 Tb322 2.343 . S
O324 C339 1.259 . S
O325 Tb320 2.374 . S
O325 C321 1.251 . S
C326 O330 1.275 . S
C326 O331 1.246 . S
O327 C321 1.263 . S
O327 Tb322 2.353 . S
C328 O332 1.245 . S
C328 O333 1.259 . S
C329 O334 1.250 . S
C329 O335 1.263 . S
O330 Tb322 2.427 . S
O330 C326 1.275 . S
O331 Tb322 2.513 . S
O331 C326 1.246 . S
O332 Tb322 2.453 . S
O332 C328 1.245 . S
O333 Tb320 2.343 . S
O333 Tb322 2.596 . S
O333 C328 1.259 . S
O334 Tb322 2.374 . S
O334 C329 1.250 . S
O335 Tb320 2.353 . S
O335 C329 1.263 . S
C336 O337 1.275 . S
C336 O338 1.246 . S
O337 Tb320 2.427 . S
O337 C336 1.275 . S
O338 Tb320 2.513 . S
O338 C336 1.246 . S
C339 O323 1.245 . S
C339 O324 1.259 . S
Tb340 O343 2.453 . S
Tb340 O344 2.596 . S
Tb340 O345 2.374 . S
Tb340 O353 2.343 . S
Tb340 O355 2.353 . S
Tb340 O357 2.427 1_545 S
Tb340 O358 2.513 . S
C341 O345 1.251 . S
C341 O347 1.263 . S
Tb342 O344 2.343 . S
Tb342 O347 2.353 . S
Tb342 O350 2.427 . S
Tb342 O351 2.513 . S
Tb342 O352 2.453 . S
Tb342 O353 2.596 . S
Tb342 O354 2.374 . S
O343 Tb340 2.453 . S
O343 C359 1.245 . S
O344 Tb340 2.596 . S
O344 Tb342 2.343 . S
O344 C359 1.259 . S
O345 Tb340 2.374 . S
O345 C341 1.251 . S
C346 O350 1.275 . S
C346 O351 1.246 . S
O347 C341 1.263 . S
O347 Tb342 2.353 . S
C348 O352 1.245 . S
C348 O353 1.259 . S
C349 O354 1.250 . S
C349 O355 1.263 . S
O350 Tb342 2.427 . S
O350 C346 1.275 . S
O351 Tb342 2.513 . S
O351 C346 1.246 . S
O352 Tb342 2.453 . S
O352 C348 1.245 . S
O353 Tb340 2.343 . S
O353 Tb342 2.596 . S
O353 C348 1.259 . S
O354 Tb342 2.374 . S
O354 C349 1.250 . S
O355 Tb340 2.353 . S
O355 C349 1.263 . S
C356 O357 1.275 1_545 S
C356 O358 1.246 . S
O357 Tb340 2.427 1_565 S
O357 C356 1.275 1_565 S
O358 Tb340 2.513 . S
O358 C356 1.246 . S
C359 O343 1.245 . S
C359 O344 1.259 . S
Tb360 O363 2.453 . S
Tb360 O364 2.596 . S
Tb360 O365 2.374 . S
Tb360 O373 2.343 . S
Tb360 O375 2.353 . S
Tb360 O377 2.427 . S
Tb360 O378 2.513 . S
C361 O365 1.251 . S
C361 O367 1.263 . S
Tb362 O364 2.343 . S
Tb362 O367 2.353 . S
Tb362 O370 2.427 1_545 S
Tb362 O371 2.513 . S
Tb362 O372 2.453 . S
Tb362 O373 2.596 . S
Tb362 O374 2.374 . S
O363 Tb360 2.453 . S
O363 C379 1.245 . S
O364 Tb360 2.596 . S
O364 Tb362 2.343 . S
O364 C379 1.259 . S
O365 Tb360 2.374 . S
O365 C361 1.251 . S
C366 O370 1.275 1_545 S
C366 O371 1.246 . S
O367 C361 1.263 . S
O367 Tb362 2.353 . S
C368 O372 1.245 . S
C368 O373 1.259 . S
C369 O374 1.250 . S
C369 O375 1.263 . S
O370 Tb362 2.427 1_565 S
O370 C366 1.275 1_565 S
O371 Tb362 2.513 . S
O371 C366 1.246 . S
O372 Tb362 2.453 . S
O372 C368 1.245 . S
O373 Tb360 2.343 . S
O373 Tb362 2.596 . S
O373 C368 1.259 . S
O374 Tb362 2.374 . S
O374 C369 1.250 . S
O375 Tb360 2.353 . S
O375 C369 1.263 . S
C376 O377 1.275 . S
C376 O378 1.246 . S
O377 Tb360 2.427 . S
O377 C376 1.275 . S
O378 Tb360 2.513 . S
O378 C376 1.246 . S
C379 O363 1.245 . S
C379 O364 1.259 . S
Tb380 O383 2.453 . S
Tb380 O384 2.596 . S
Tb380 O385 2.374 . S
Tb380 O393 2.343 . S
Tb380 O395 2.353 . S
Tb380 O397 2.427 . S
Tb380 O398 2.513 . S
C381 O385 1.251 . S
C381 O387 1.263 . S
Tb382 O384 2.343 . S
Tb382 O387 2.353 . S
Tb382 O390 2.427 1_655 S
Tb382 O391 2.513 . S
Tb382 O392 2.453 . S
Tb382 O393 2.596 . S
Tb382 O394 2.374 . S
O383 Tb380 2.453 . S
O383 C399 1.245 . S
O384 Tb380 2.596 . S
O384 Tb382 2.343 . S
O384 C399 1.259 . S
O385 Tb380 2.374 . S
O385 C381 1.251 . S
C386 O390 1.275 1_655 S
C386 O391 1.246 . S
O387 C381 1.263 . S
O387 Tb382 2.353 . S
C388 O392 1.245 . S
C388 O393 1.259 . S
C389 O394 1.250 . S
C389 O395 1.263 . S
O390 Tb382 2.427 1_455 S
O390 C386 1.275 1_455 S
O391 Tb382 2.513 . S
O391 C386 1.246 . S
O392 Tb382 2.453 . S
O392 C388 1.245 . S
O393 Tb380 2.343 . S
O393 Tb382 2.596 . S
O393 C388 1.259 . S
O394 Tb382 2.374 . S
O394 C389 1.250 . S
O395 Tb380 2.353 . S
O395 C389 1.263 . S
C396 O397 1.275 . S
C396 O398 1.246 . S
O397 Tb380 2.427 . S
O397 C396 1.275 . S
O398 Tb380 2.513 . S
O398 C396 1.246 . S
C399 O383 1.245 . S
C399 O384 1.259 . S
Tb400 O403 2.453 . S
Tb400 O404 2.596 . S
Tb400 O405 2.374 . S
Tb400 O413 2.343 . S
Tb400 O415 2.353 . S
Tb400 O417 2.427 . S
Tb400 O418 2.513 . S
C401 O405 1.251 . S
C401 O407 1.263 . S
Tb402 O404 2.343 . S
Tb402 O407 2.353 . S
Tb402 O410 2.427 . S
Tb402 O411 2.513 . S
Tb402 O412 2.453 . S
Tb402 O413 2.596 . S
Tb402 O414 2.374 . S
O403 Tb400 2.453 . S
O403 C419 1.245 . S
O404 Tb400 2.596 . S
O404 Tb402 2.343 . S
O404 C419 1.259 . S
O405 Tb400 2.374 . S
O405 C401 1.251 . S
C406 O410 1.275 . S
C406 O411 1.246 . S
O407 C401 1.263 . S
O407 Tb402 2.353 . S
C408 O412 1.245 . S
C408 O413 1.259 . S
C409 O414 1.250 . S
C409 O415 1.263 . S
O410 Tb402 2.427 . S
O410 C406 1.275 . S
O411 Tb402 2.513 . S
O411 C406 1.246 . S
O412 Tb402 2.453 . S
O412 C408 1.245 . S
O413 Tb400 2.343 . S
O413 Tb402 2.596 . S
O413 C408 1.259 . S
O414 Tb402 2.374 . S
O414 C409 1.250 . S
O415 Tb400 2.353 . S
O415 C409 1.263 . S
C416 O417 1.275 . S
C416 O418 1.246 . S
O417 Tb400 2.427 . S
O417 C416 1.275 . S
O418 Tb400 2.513 . S
O418 C416 1.246 . S
C419 O403 1.245 . S
C419 O404 1.259 . S
Tb420 O423 2.453 . S
Tb420 O424 2.596 . S
Tb420 O425 2.374 . S
Tb420 O433 2.343 1_556 S
Tb420 O435 2.353 . S
Tb420 O437 2.427 . S
Tb420 O438 2.531 . S
C421 O425 1.251 . S
C421 O427 1.263 1_556 S
Tb422 O424 2.343 1_554 S
Tb422 O427 2.353 . S
Tb422 O430 2.427 . S
Tb422 O431 2.524 . S
Tb422 O432 2.453 . S
Tb422 O433 2.596 . S
Tb422 O434 2.374 . S
O423 Tb420 2.453 . S
O423 C439 1.245 . S
O424 Tb420 2.596 . S
O424 Tb422 2.343 1_556 S
O424 C439 1.259 . S
O425 Tb420 2.374 . S
O425 C421 1.251 . S
C426 O430 1.268 1_556 S
C426 O431 1.245 1_556 S
O427 C421 1.263 1_554 S
O427 Tb422 2.353 . S
C428 O432 1.245 . S
C428 O433 1.259 . S
C429 O434 1.250 . S
C429 O435 1.263 1_554 S
O430 Tb422 2.427 . S
O430 C426 1.268 1_554 S
O431 Tb422 2.524 . S
O431 C426 1.245 1_554 S
O432 Tb422 2.453 . S
O432 C428 1.245 . S
O433 Tb420 2.343 1_554 S
O433 Tb422 2.596 . S
O433 C428 1.259 . S
O434 Tb422 2.374 . S
O434 C429 1.250 . S
O435 Tb420 2.353 . S
O435 C429 1.263 1_556 S
C436 O437 1.274 1_554 S
C436 O438 1.245 1_554 S
O437 Tb420 2.427 . S
O437 C436 1.274 1_556 S
O438 Tb420 2.531 . S
O438 C436 1.245 1_556 S
C439 O423 1.245 . S
C439 O424 1.259 . S
Tb440 O443 2.453 . S
Tb440 O444 2.596 . S
Tb440 O445 2.374 . S
Tb440 O453 2.343 1_556 S
Tb440 O455 2.353 . S
Tb440 O457 2.427 . S
Tb440 O458 2.532 . S
C441 O445 1.251 . S
C441 O447 1.263 1_556 S
Tb442 O444 2.343 1_554 S
Tb442 O447 2.353 . S
Tb442 O450 2.427 . S
Tb442 O451 2.524 . S
Tb442 O452 2.453 . S
Tb442 O453 2.596 . S
Tb442 O454 2.374 . S
O443 Tb440 2.453 . S
O443 C459 1.245 . S
O444 Tb440 2.596 . S
O444 Tb442 2.343 1_556 S
O444 C459 1.259 . S
O445 Tb440 2.374 . S
O445 C441 1.251 . S
C446 O450 1.268 1_556 S
C446 O451 1.245 1_556 S
O447 C441 1.263 1_554 S
O447 Tb442 2.353 . S
C448 O452 1.245 . S
C448 O453 1.259 . S
C449 O454 1.250 . S
C449 O455 1.263 1_554 S
O450 Tb442 2.427 . S
O450 C446 1.268 1_554 S
O451 Tb442 2.524 . S
O451 C446 1.245 1_554 S
O452 Tb442 2.453 . S
O452 C448 1.245 . S
O453 Tb440 2.343 1_554 S
O453 Tb442 2.596 . S
O453 C448 1.259 . S
O454 Tb442 2.374 . S
O454 C449 1.250 . S
O455 Tb440 2.353 . S
O455 C449 1.263 1_556 S
C456 O457 1.274 1_554 S
C456 O458 1.245 1_554 S
O457 Tb440 2.427 . S
O457 C456 1.274 1_556 S
O458 Tb440 2.532 . S
O458 C456 1.245 1_556 S
C459 O443 1.245 . S
C459 O444 1.259 . S
Tb460 O463 2.453 . S
Tb460 O464 2.596 . S
Tb460 O465 2.374 . S
Tb460 O473 2.343 1_556 S
Tb460 O475 2.353 . S
Tb460 O477 2.427 . S
Tb460 O478 2.532 . S
C461 O465 1.251 . S
C461 O467 1.263 1_556 S
Tb462 O464 2.343 1_554 S
Tb462 O467 2.353 . S
Tb462 O470 2.427 . S
Tb462 O471 2.524 . S
Tb462 O472 2.453 . S
Tb462 O473 2.596 . S
Tb462 O474 2.374 . S
O463 Tb460 2.453 . S
O463 C479 1.245 . S
O464 Tb460 2.596 . S
O464 Tb462 2.343 1_556 S
O464 C479 1.259 . S
O465 Tb460 2.374 . S
O465 C461 1.251 . S
C466 O470 1.268 1_556 S
C466 O471 1.245 1_556 S
O467 C461 1.263 1_554 S
O467 Tb462 2.353 . S
C468 O472 1.245 . S
C468 O473 1.259 . S
C469 O474 1.250 . S
C469 O475 1.263 1_554 S
O470 Tb462 2.427 . S
O470 C466 1.268 1_554 S
O471 Tb462 2.524 . S
O471 C466 1.245 1_554 S
O472 Tb462 2.453 . S
O472 C468 1.245 . S
O473 Tb460 2.343 1_554 S
O473 Tb462 2.596 . S
O473 C468 1.259 . S
O474 Tb462 2.374 . S
O474 C469 1.250 . S
O475 Tb460 2.353 . S
O475 C469 1.263 1_556 S
C476 O477 1.274 1_554 S
C476 O478 1.245 1_554 S
O477 Tb460 2.427 . S
O477 C476 1.274 1_556 S
O478 Tb460 2.532 . S
O478 C476 1.245 1_556 S
C479 O463 1.245 . S
C479 O464 1.259 . S
Tb480 O483 2.453 . S
Tb480 O484 2.596 . S
Tb480 O485 2.374 . S
Tb480 O493 2.343 . S
Tb480 O495 2.353 . S
Tb480 O497 2.427 1_565 S
Tb480 O498 2.513 . S
C481 O485 1.251 . S
C481 O487 1.263 . S
Tb482 O484 2.343 . S
Tb482 O487 2.353 . S
Tb482 O490 2.427 . S
Tb482 O491 2.513 . S
Tb482 O492 2.453 . S
Tb482 O493 2.596 . S
Tb482 O494 2.374 . S
O483 Tb480 2.453 . S
O483 C499 1.245 . S
O484 Tb480 2.596 . S
O484 Tb482 2.343 . S
O484 C499 1.259 . S
O485 Tb480 2.374 . S
O485 C481 1.251 . S
C486 O490 1.275 . S
C486 O491 1.246 . S
O487 C481 1.263 . S
O487 Tb482 2.353 . S
C488 O492 1.245 . S
C488 O493 1.259 . S
C489 O494 1.250 . S
C489 O495 1.263 . S
O490 Tb482 2.427 . S
O490 C486 1.275 . S
O491 Tb482 2.513 . S
O491 C486 1.246 . S
O492 Tb482 2.453 . S
O492 C488 1.245 . S
O493 Tb480 2.343 . S
O493 Tb482 2.596 . S
O493 C488 1.259 . S
O494 Tb482 2.374 . S
O494 C489 1.250 . S
O495 Tb480 2.353 . S
O495 C489 1.263 . S
C496 O497 1.275 1_565 S
C496 O498 1.246 . S
O497 Tb480 2.427 1_545 S
O497 C496 1.275 1_545 S
O498 Tb480 2.513 . S
O498 C496 1.246 . S
C499 O483 1.245 . S
C499 O484 1.259 . S
Tb500 O503 2.453 . S
Tb500 O504 2.596 . S
Tb500 O505 2.374 . S
Tb500 O513 2.343 . S
Tb500 O515 2.353 . S
Tb500 O517 2.427 1_455 S
Tb500 O518 2.513 . S
C501 O505 1.251 . S
C501 O507 1.263 . S
Tb502 O504 2.343 . S
Tb502 O507 2.353 . S
Tb502 O510 2.427 . S
Tb502 O511 2.513 . S
Tb502 O512 2.453 . S
Tb502 O513 2.596 . S
Tb502 O514 2.374 . S
O503 Tb500 2.453 . S
O503 C519 1.245 . S
O504 Tb500 2.596 . S
O504 Tb502 2.343 . S
O504 C519 1.259 . S
O505 Tb500 2.374 . S
O505 C501 1.251 . S
C506 O510 1.275 . S
C506 O511 1.246 . S
O507 C501 1.263 . S
O507 Tb502 2.353 . S
C508 O512 1.245 . S
C508 O513 1.259 . S
C509 O514 1.250 . S
C509 O515 1.263 . S
O510 Tb502 2.427 . S
O510 C506 1.275 . S
O511 Tb502 2.513 . S
O511 C506 1.246 . S
O512 Tb502 2.453 . S
O512 C508 1.245 . S
O513 Tb500 2.343 . S
O513 Tb502 2.596 . S
O513 C508 1.259 . S
O514 Tb502 2.374 . S
O514 C509 1.250 . S
O515 Tb500 2.353 . S
O515 C509 1.263 . S
C516 O517 1.275 1_455 S
C516 O518 1.246 . S
O517 Tb500 2.427 1_655 S
O517 C516 1.275 1_655 S
O518 Tb500 2.513 . S
O518 C516 1.246 . S
C519 O503 1.245 . S
C519 O504 1.259 . S
Tb520 O523 2.453 . S
Tb520 O524 2.596 . S
Tb520 O525 2.374 . S
Tb520 O533 2.343 . S
Tb520 O535 2.353 . S
Tb520 O537 2.427 . S
Tb520 O538 2.513 . S
C521 O525 1.251 . S
C521 O527 1.263 . S
Tb522 O524 2.343 . S
Tb522 O527 2.353 . S
Tb522 O530 2.427 . S
Tb522 O531 2.513 . S
Tb522 O532 2.453 . S
Tb522 O533 2.596 . S
Tb522 O534 2.374 . S
O523 Tb520 2.453 . S
O523 C539 1.245 . S
O524 Tb520 2.596 . S
O524 Tb522 2.343 . S
O524 C539 1.259 . S
O525 Tb520 2.374 . S
O525 C521 1.251 . S
C526 O530 1.275 . S
C526 O531 1.246 . S
O527 C521 1.263 . S
O527 Tb522 2.353 . S
C528 O532 1.245 . S
C528 O533 1.259 . S
C529 O534 1.250 . S
C529 O535 1.263 . S
O530 Tb522 2.427 . S
O530 C526 1.275 . S
O531 Tb522 2.513 . S
O531 C526 1.246 . S
O532 Tb522 2.453 . S
O532 C528 1.245 . S
O533 Tb520 2.343 . S
O533 Tb522 2.596 . S
O533 C528 1.259 . S
O534 Tb522 2.374 . S
O534 C529 1.250 . S
O535 Tb520 2.353 . S
O535 C529 1.263 . S
C536 O537 1.275 . S
C536 O538 1.246 . S
O537 Tb520 2.427 . S
O537 C536 1.275 . S
O538 Tb520 2.513 . S
O538 C536 1.246 . S
C539 O523 1.245 . S
C539 O524 1.259 . S
Tb540 O543 2.453 . S
Tb540 O544 2.596 . S
Tb540 O545 2.374 . S
Tb540 O553 2.343 1_556 S
Tb540 O555 2.353 . S
Tb540 O557 2.427 . S
Tb540 O558 2.524 . S
C541 O545 1.251 . S
C541 O547 1.263 1_556 S
Tb542 O544 2.343 1_554 S
Tb542 O547 2.353 . S
Tb542 O550 2.427 . S
Tb542 O551 2.531 . S
Tb542 O552 2.453 . S
Tb542 O553 2.596 . S
Tb542 O554 2.374 . S
O543 Tb540 2.453 . S
O543 C559 1.245 . S
O544 Tb540 2.596 . S
O544 Tb542 2.343 1_556 S
O544 C559 1.259 . S
O545 Tb540 2.374 . S
O545 C541 1.251 . S
C546 O550 1.274 1_556 S
C546 O551 1.245 1_556 S
O547 C541 1.263 1_554 S
O547 Tb542 2.353 . S
C548 O552 1.245 . S
C548 O553 1.259 . S
C549 O554 1.250 . S
C549 O555 1.263 1_554 S
O550 Tb542 2.427 . S
O550 C546 1.274 1_554 S
O551 Tb542 2.531 . S
O551 C546 1.245 1_554 S
O552 Tb542 2.453 . S
O552 C548 1.245 . S
O553 Tb540 2.343 1_554 S
O553 Tb542 2.596 . S
O553 C548 1.259 . S
O554 Tb542 2.374 . S
O554 C549 1.250 . S
O555 Tb540 2.353 . S
O555 C549 1.263 1_556 S
C556 O557 1.268 1_554 S
C556 O558 1.245 1_554 S
O557 Tb540 2.427 . S
O557 C556 1.268 1_556 S
O558 Tb540 2.524 . S
O558 C556 1.245 1_556 S
C559 O543 1.245 . S
C559 O544 1.259 . S
Tb560 O563 2.453 . S
Tb560 O564 2.596 . S
Tb560 O565 2.374 . S
Tb560 O573 2.343 1_556 S
Tb560 O575 2.353 . S
Tb560 O577 2.427 . S
Tb560 O578 2.524 . S
C561 O565 1.251 . S
C561 O567 1.263 1_556 S
Tb562 O564 2.343 1_554 S
Tb562 O567 2.353 . S
Tb562 O570 2.427 . S
Tb562 O571 2.532 . S
Tb562 O572 2.453 . S
Tb562 O573 2.596 . S
Tb562 O574 2.374 . S
O563 Tb560 2.453 . S
O563 C579 1.245 . S
O564 Tb560 2.596 . S
O564 Tb562 2.343 1_556 S
O564 C579 1.259 . S
O565 Tb560 2.374 . S
O565 C561 1.251 . S
C566 O570 1.274 1_556 S
C566 O571 1.245 1_556 S
O567 C561 1.263 1_554 S
O567 Tb562 2.353 . S
C568 O572 1.245 . S
C568 O573 1.259 . S
C569 O574 1.250 . S
C569 O575 1.263 1_554 S
O570 Tb562 2.427 . S
O570 C566 1.274 1_554 S
O571 Tb562 2.532 . S
O571 C566 1.245 1_554 S
O572 Tb562 2.453 . S
O572 C568 1.245 . S
O573 Tb560 2.343 1_554 S
O573 Tb562 2.596 . S
O573 C568 1.259 . S
O574 Tb562 2.374 . S
O574 C569 1.250 . S
O575 Tb560 2.353 . S
O575 C569 1.263 1_556 S
C576 O577 1.268 1_554 S
C576 O578 1.245 1_554 S
O577 Tb560 2.427 . S
O577 C576 1.268 1_556 S
O578 Tb560 2.524 . S
O578 C576 1.245 1_556 S
C579 O563 1.245 . S
C579 O564 1.259 . S
Tb580 O583 2.453 . S
Tb580 O584 2.596 . S
Tb580 O585 2.374 . S
Tb580 O593 2.343 1_556 S
Tb580 O595 2.353 . S
Tb580 O597 2.427 . S
Tb580 O598 2.524 . S
C581 O585 1.251 . S
C581 O587 1.263 1_556 S
Tb582 O584 2.343 1_554 S
Tb582 O587 2.353 . S
Tb582 O590 2.427 . S
Tb582 O591 2.532 . S
Tb582 O592 2.453 . S
Tb582 O593 2.596 . S
Tb582 O594 2.374 . S
O583 Tb580 2.453 . S
O583 C599 1.245 . S
O584 Tb580 2.596 . S
O584 Tb582 2.343 1_556 S
O584 C599 1.259 . S
O585 Tb580 2.374 . S
O585 C581 1.251 . S
C586 O590 1.274 1_556 S
C586 O591 1.245 1_556 S
O587 C581 1.263 1_554 S
O587 Tb582 2.353 . S
C588 O592 1.245 . S
C588 O593 1.259 . S
C589 O594 1.250 . S
C589 O595 1.263 1_554 S
O590 Tb582 2.427 . S
O590 C586 1.274 1_554 S
O591 Tb582 2.532 . S
O591 C586 1.245 1_554 S
O592 Tb582 2.453 . S
O592 C588 1.245 . S
O593 Tb580 2.343 1_554 S
O593 Tb582 2.596 . S
O593 C588 1.259 . S
O594 Tb582 2.374 . S
O594 C589 1.250 . S
O595 Tb580 2.353 . S
O595 C589 1.263 1_556 S
C596 O597 1.268 1_554 S
C596 O598 1.245 1_554 S
O597 Tb580 2.427 . S
O597 C596 1.268 1_556 S
O598 Tb580 2.524 . S
O598 C596 1.245 1_556 S
C599 O583 1.245 . S
C599 O584 1.259 . S
Tb600 O603 2.453 . S
Tb600 O604 2.596 . S
Tb600 O605 2.374 . S
Tb600 O613 2.343 . S
Tb600 O615 2.353 . S
Tb600 O617 2.427 . S
Tb600 O618 2.513 . S
C601 O605 1.251 . S
C601 O607 1.263 . S
Tb602 O604 2.343 . S
Tb602 O607 2.353 . S
Tb602 O610 2.427 . S
Tb602 O611 2.513 . S
Tb602 O612 2.453 . S
Tb602 O613 2.596 . S
Tb602 O614 2.374 . S
O603 Tb600 2.453 . S
O603 C619 1.245 . S
O604 Tb600 2.596 . S
O604 Tb602 2.343 . S
O604 C619 1.259 . S
O605 Tb600 2.374 . S
O605 C601 1.251 . S
C606 O610 1.275 . S
C606 O611 1.246 . S
O607 C601 1.263 . S
O607 Tb602 2.353 . S
C608 O612 1.245 . S
C608 O613 1.259 . S
C609 O614 1.250 . S
C609 O615 1.263 . S
O610 Tb602 2.427 . S
O610 C606 1.275 . S
O611 Tb602 2.513 . S
O611 C606 1.246 . S
O612 Tb602 2.453 . S
O612 C608 1.245 . S
O613 Tb600 2.343 . S
O613 Tb602 2.596 . S
O613 C608 1.259 . S
O614 Tb602 2.374 . S
O614 C609 1.250 . S
O615 Tb600 2.353 . S
O615 C609 1.263 . S
C616 O617 1.275 . S
C616 O618 1.246 . S
O617 Tb600 2.427 . S
O617 C616 1.275 . S
O618 Tb600 2.513 . S
O618 C616 1.246 . S
C619 O603 1.245 . S
C619 O604 1.259 . S
Tb620 O623 2.453 . S
Tb620 O624 2.596 . S
Tb620 O625 2.374 . S
Tb620 O633 2.343 . S
Tb620 O635 2.353 . S
Tb620 O637 2.427 . S
Tb620 O638 2.513 . S
C621 O625 1.251 . S
C621 O627 1.263 . S
Tb622 O624 2.343 . S
Tb622 O627 2.353 . S
Tb622 O630 2.427 . S
Tb622 O631 2.513 . S
Tb622 O632 2.453 . S
Tb622 O633 2.596 . S
Tb622 O634 2.374 . S
O623 Tb620 2.453 . S
O623 C639 1.245 . S
O624 Tb620 2.596 . S
O624 Tb622 2.343 . S
O624 C639 1.259 . S
O625 Tb620 2.374 . S
O625 C621 1.251 . S
C626 O630 1.275 . S
C626 O631 1.246 . S
O627 C621 1.263 . S
O627 Tb622 2.353 . S
C628 O632 1.245 . S
C628 O633 1.259 . S
C629 O634 1.250 . S
C629 O635 1.263 . S
O630 Tb622 2.427 . S
O630 C626 1.275 . S
O631 Tb622 2.513 . S
O631 C626 1.246 . S
O632 Tb622 2.453 . S
O632 C628 1.245 . S
O633 Tb620 2.343 . S
O633 Tb622 2.596 . S
O633 C628 1.259 . S
O634 Tb622 2.374 . S
O634 C629 1.250 . S
O635 Tb620 2.353 . S
O635 C629 1.263 . S
C636 O637 1.275 . S
C636 O638 1.246 . S
O637 Tb620 2.427 . S
O637 C636 1.275 . S
O638 Tb620 2.513 . S
O638 C636 1.246 . S
C639 O623 1.245 . S
C639 O624 1.259 . S
Tb640 O643 2.453 . S
Tb640 O644 2.596 . S
Tb640 O645 2.374 . S
Tb640 O653 2.343 . S
Tb640 O655 2.353 . S
Tb640 O657 2.427 . S
Tb640 O658 2.513 . S
C641 O645 1.251 . S
C641 O647 1.263 . S
Tb642 O644 2.343 . S
Tb642 O647 2.353 . S
Tb642 O650 2.427 . S
Tb642 O651 2.513 . S
Tb642 O652 2.453 . S
Tb642 O653 2.596 . S
Tb642 O654 2.374 . S
O643 Tb640 2.453 . S
O643 C659 1.245 . S
O644 Tb640 2.596 . S
O644 Tb642 2.343 . S
O644 C659 1.259 . S
O645 Tb640 2.374 . S
O645 C641 1.251 . S
C646 O650 1.275 . S
C646 O651 1.246 . S
O647 C641 1.263 . S
O647 Tb642 2.353 . S
C648 O652 1.245 . S
C648 O653 1.259 . S
C649 O654 1.250 . S
C649 O655 1.263 . S
O650 Tb642 2.427 . S
O650 C646 1.275 . S
O651 Tb642 2.513 . S
O651 C646 1.246 . S
O652 Tb642 2.453 . S
O652 C648 1.245 . S
O653 Tb640 2.343 . S
O653 Tb642 2.596 . S
O653 C648 1.259 . S
O654 Tb642 2.374 . S
O654 C649 1.250 . S
O655 Tb640 2.353 . S
O655 C649 1.263 . S
C656 O657 1.275 . S
C656 O658 1.246 . S
O657 Tb640 2.427 . S
O657 C656 1.275 . S
O658 Tb640 2.513 . S
O658 C656 1.246 . S
C659 O643 1.245 . S
C659 O644 1.259 . S
Tb660 O663 2.453 . S
Tb660 O664 2.596 . S
Tb660 O665 2.374 . S
Tb660 O673 2.343 . S
Tb660 O675 2.353 . S
Tb660 O677 2.427 . S
Tb660 O678 2.513 . S
C661 O665 1.251 . S
C661 O667 1.263 . S
Tb662 O664 2.343 . S
Tb662 O667 2.353 . S
Tb662 O670 2.427 1_455 S
Tb662 O671 2.513 . S
Tb662 O672 2.453 . S
Tb662 O673 2.596 . S
Tb662 O674 2.374 . S
O663 Tb660 2.453 . S
O663 C679 1.245 . S
O664 Tb660 2.596 . S
O664 Tb662 2.343 . S
O664 C679 1.259 . S
O665 Tb660 2.374 . S
O665 C661 1.251 . S
C666 O670 1.275 1_455 S
C666 O671 1.246 . S
O667 C661 1.263 . S
O667 Tb662 2.353 . S
C668 O672 1.245 . S
C668 O673 1.259 . S
C669 O674 1.250 . S
C669 O675 1.263 . S
O670 Tb662 2.427 1_655 S
O670 C666 1.275 1_655 S
O671 Tb662 2.513 . S
O671 C666 1.246 . S
O672 Tb662 2.453 . S
O672 C668 1.245 . S
O673 Tb660 2.343 . S
O673 Tb662 2.596 . S
O673 C668 1.259 . S
O674 Tb662 2.374 . S
O674 C669 1.250 . S
O675 Tb660 2.353 . S
O675 C669 1.263 . S
C676 O677 1.275 . S
C676 O678 1.246 . S
O677 Tb660 2.427 . S
O677 C676 1.275 . S
O678 Tb660 2.513 . S
O678 C676 1.246 . S
C679 O663 1.245 . S
C679 O664 1.259 . S
Tb680 O683 2.453 . S
Tb680 O684 2.596 . S
Tb680 O685 2.374 . S
Tb680 O693 2.343 . S
Tb680 O695 2.353 . S
Tb680 O697 2.427 . S
Tb680 O698 2.513 . S
C681 O685 1.251 . S
C681 O687 1.263 . S
Tb682 O684 2.343 . S
Tb682 O687 2.353 . S
Tb682 O690 2.427 . S
Tb682 O691 2.513 . S
Tb682 O692 2.453 . S
Tb682 O693 2.596 . S
Tb682 O694 2.374 . S
O683 Tb680 2.453 . S
O683 C699 1.245 . S
O684 Tb680 2.596 . S
O684 Tb682 2.343 . S
O684 C699 1.259 . S
O685 Tb680 2.374 . S
O685 C681 1.251 . S
C686 O690 1.275 . S
C686 O691 1.246 . S
O687 C681 1.263 . S
O687 Tb682 2.353 . S
C688 O692 1.245 . S
C688 O693 1.259 . S
C689 O694 1.250 . S
C689 O695 1.263 . S
O690 Tb682 2.427 . S
O690 C686 1.275 . S
O691 Tb682 2.513 . S
O691 C686 1.246 . S
O692 Tb682 2.453 . S
O692 C688 1.245 . S
O693 Tb680 2.343 . S
O693 Tb682 2.596 . S
O693 C688 1.259 . S
O694 Tb682 2.374 . S
O694 C689 1.250 . S
O695 Tb680 2.353 . S
O695 C689 1.263 . S
C696 O697 1.275 . S
C696 O698 1.246 . S
O697 Tb680 2.427 . S
O697 C696 1.275 . S
O698 Tb680 2.513 . S
O698 C696 1.246 . S
C699 O683 1.245 . S
C699 O684 1.259 . S
Tb700 O703 2.453 . S
Tb700 O704 2.596 . S
Tb700 O705 2.374 . S
Tb700 O713 2.343 . S
Tb700 O715 2.353 . S
Tb700 O717 2.427 . S
Tb700 O718 2.513 . S
C701 O705 1.251 . S
C701 O707 1.263 . S
Tb702 O704 2.343 . S
Tb702 O707 2.353 . S
Tb702 O710 2.427 1_565 S
Tb702 O711 2.513 . S
Tb702 O712 2.453 . S
Tb702 O713 2.596 . S
Tb702 O714 2.374 . S
O703 Tb700 2.453 . S
O703 C719 1.245 . S
O704 Tb700 2.596 . S
O704 Tb702 2.343 . S
O704 C719 1.259 . S
O705 Tb700 2.374 . S
O705 C701 1.251 . S
C706 O710 1.275 1_565 S
C706 O711 1.246 . S
O707 C701 1.263 . S
O707 Tb702 2.353 . S
C708 O712 1.245 . S
C708 O713 1.259 . S
C709 O714 1.250 . S
C709 O715 1.263 . S
O710 Tb702 2.427 1_545 S
O710 C706 1.275 1_545 S
O711 Tb702 2.513 . S
O711 C706 1.246 . S
O712 Tb702 2.453 . S
O712 C708 1.245 . S
O713 Tb700 2.343 . S
O713 Tb702 2.596 . S
O713 C708 1.259 . S
O714 Tb702 2.374 . S
O714 C709 1.250 . S
O715 Tb700 2.353 . S
O715 C709 1.263 . S
C716 O717 1.275 . S
C716 O718 1.246 . S
O717 Tb700 2.427 . S
O717 C716 1.275 . S
O718 Tb700 2.513 . S
O718 C716 1.246 . S
C719 O703 1.245 . S
C719 O704 1.259 . S
H720 C728 0.950 . S
H721 C733 0.950 . S
H722 C730 0.950 . S
H723 C732 0.950 . S
H724 C734 0.950 . S
H725 C736 0.950 . S
H726 C738 0.950 . S
H727 C739 0.950 1_565 S
C728 H720 0.950 . S
C728 C729 1.386 . S
C728 C730 1.391 . S
C729 C728 1.386 . S
C729 C733 1.393 . S
C730 H722 0.950 . S
C730 C728 1.391 . S
C730 C731 1.400 . S
C731 C730 1.400 . S
C731 C732 1.398 . S
C731 C737 1.491 . S
C732 H723 0.950 . S
C732 C731 1.398 . S
C732 C733 1.391 . S
C733 H721 0.950 . S
C733 C729 1.393 . S
C733 C732 1.391 . S
C734 H724 0.950 . S
C734 C735 1.386 . S
C734 C736 1.391 . S
C735 C734 1.386 . S
C735 C739 1.393 . S
C736 H725 0.950 . S
C736 C734 1.391 . S
C736 C737 1.400 . S
C737 C731 1.491 . S
C737 C736 1.400 . S
C737 C738 1.398 . S
C738 H726 0.950 . S
C738 C737 1.398 . S
C738 C739 1.391 . S
C739 H727 0.950 1_545 S
C739 C735 1.393 . S
C739 C738 1.391 . S
H740 C748 0.933 1_455 S
H741 C753 0.950 . S
H742 C750 0.950 . S
H743 C752 0.950 . S
H744 C754 0.944 . S
H745 C756 0.950 . S
H746 C758 0.950 . S
H747 C759 0.950 . S
C748 H740 0.933 1_655 S
C748 C749 1.386 . S
C748 C750 1.391 . S
C749 C748 1.386 . S
C749 C753 1.393 . S
C750 H742 0.950 . S
C750 C748 1.391 . S
C750 C751 1.400 . S
C751 C750 1.400 . S
C751 C752 1.398 . S
C751 C757 1.491 . S
C752 H743 0.950 . S
C752 C751 1.398 . S
C752 C753 1.391 . S
C753 H741 0.950 . S
C753 C749 1.393 . S
C753 C752 1.391 . S
C754 H744 0.944 . S
C754 C755 1.407 . S
C754 C756 1.377 1_565 S
C755 C754 1.407 . S
C755 C759 1.393 . S
C756 H745 0.950 . S
C756 C754 1.377 1_545 S
C756 C757 1.400 . S
C757 C751 1.491 . S
C757 C756 1.400 . S
C757 C758 1.398 . S
C758 H746 0.950 . S
C758 C757 1.398 . S
C758 C759 1.391 1_545 S
C759 H747 0.950 . S
C759 C755 1.393 . S
C759 C758 1.391 1_565 S
H760 C768 0.950 . S
H761 C773 0.950 . S
H762 C770 0.950 . S
H763 C772 0.950 . S
H764 C774 0.950 . S
H765 C776 0.950 . S
H766 C778 0.950 . S
H767 C779 0.950 . S
C768 H760 0.950 . S
C768 C769 1.386 . S
C768 C770 1.391 1_455 S
C769 C768 1.386 . S
C769 C773 1.393 . S
C770 H762 0.950 . S
C770 C768 1.391 1_655 S
C770 C771 1.400 . S
C771 C770 1.400 . S
C771 C772 1.398 . S
C771 C777 1.491 . S
C772 H763 0.950 . S
C772 C771 1.398 . S
C772 C773 1.391 1_655 S
C773 H761 0.950 . S
C773 C769 1.393 . S
C773 C772 1.391 1_455 S
C774 H764 0.950 . S
C774 C775 1.386 . S
C774 C776 1.391 . S
C775 C774 1.386 . S
C775 C779 1.393 . S
C776 H765 0.950 . S
C776 C774 1.391 . S
C776 C777 1.400 . S
C777 C771 1.491 . S
C777 C776 1.400 . S
C777 C778 1.398 . S
C778 H766 0.950 . S
C778 C777 1.398 . S
C778 C779 1.391 . S
C779 H767 0.950 . S
C779 C775 1.393 . S
C779 C778 1.391 . S
H780 C788 0.950 . S
H781 C793 0.950 . S
H782 C790 0.950 . S
H783 C792 0.950 . S
H784 C794 0.950 . S
H785 C796 0.950 . S
H786 C798 0.950 . S
H787 C799 0.950 . S
C788 H780 0.950 . S
C788 C789 1.386 . S
C788 C790 1.391 . S
C789 C788 1.386 . S
C789 C793 1.393 . S
C790 H782 0.950 . S
C790 C788 1.391 . S
C790 C791 1.400 . S
C791 C790 1.400 . S
C791 C792 1.398 . S
C791 C797 1.491 . S
C792 H783 0.950 . S
C792 C791 1.398 . S
C792 C793 1.391 . S
C793 H781 0.950 . S
C793 C789 1.393 . S
C793 C792 1.391 . S
C794 H784 0.950 . S
C794 C795 1.386 . S
C794 C796 1.391 . S
C795 C794 1.386 . S
C795 C799 1.393 . S
C796 H785 0.950 . S
C796 C794 1.391 . S
C796 C797 1.400 . S
C797 C791 1.491 . S
C797 C796 1.400 . S
C797 C798 1.398 . S
C798 H786 0.950 . S
C798 C797 1.398 . S
C798 C799 1.391 . S
C799 H787 0.950 . S
C799 C795 1.393 . S
C799 C798 1.391 . S
H800 C808 0.950 . S
H801 C813 0.950 . S
H802 C810 0.950 . S
H803 C812 0.950 . S
H804 C814 0.950 . S
H805 C816 0.950 . S
H806 C818 0.950 . S
H807 C819 0.959 . S
C808 H800 0.950 . S
C808 C809 1.386 . S
C808 C810 1.391 . S
C809 C808 1.386 . S
C809 C813 1.393 . S
C810 H802 0.950 . S
C810 C808 1.391 . S
C810 C811 1.400 . S
C811 C810 1.400 . S
C811 C812 1.398 . S
C811 C817 1.491 . S
C812 H803 0.950 . S
C812 C811 1.398 . S
C812 C813 1.391 . S
C813 H801 0.950 . S
C813 C809 1.393 . S
C813 C812 1.391 . S
C814 H804 0.950 . S
C814 C815 1.386 . S
C814 C816 1.391 1_545 S
C815 C814 1.386 . S
C815 C819 1.393 1_545 S
C816 H805 0.950 . S
C816 C814 1.391 1_565 S
C816 C817 1.400 . S
C817 C811 1.491 . S
C817 C816 1.400 . S
C817 C818 1.398 . S
C818 H806 0.950 . S
C818 C817 1.398 . S
C818 C819 1.391 . S
C819 H807 0.959 . S
C819 C815 1.393 1_565 S
C819 C818 1.391 . S
H820 C828 0.950 . S
H821 C833 0.950 . S
H822 C830 0.950 . S
H823 C832 0.950 . S
H824 C834 0.950 . S
H825 C836 0.950 . S
H826 C838 0.950 . S
H827 C839 0.950 . S
C828 H820 0.950 . S
C828 C829 1.386 . S
C828 C830 1.391 1_655 S
C829 C828 1.386 . S
C829 C833 1.393 . S
C830 H822 0.950 . S
C830 C828 1.391 1_455 S
C830 C831 1.400 . S
C831 C830 1.400 . S
C831 C832 1.398 . S
C831 C837 1.491 . S
C832 H823 0.950 . S
C832 C831 1.398 . S
C832 C833 1.391 1_455 S
C833 H821 0.950 . S
C833 C829 1.393 . S
C833 C832 1.391 1_655 S
C834 H824 0.950 . S
C834 C835 1.386 . S
C834 C836 1.391 . S
C835 C834 1.386 . S
C835 C839 1.393 . S
C836 H825 0.950 . S
C836 C834 1.391 . S
C836 C837 1.400 . S
C837 C831 1.491 . S
C837 C836 1.400 . S
C837 C838 1.398 . S
C838 H826 0.950 . S
C838 C837 1.398 . S
C838 C839 1.391 . S
C839 H827 0.950 . S
C839 C835 1.393 . S
C839 C838 1.391 . S
H840 C848 0.950 . S
H841 C853 0.950 . S
H842 C850 0.950 . S
H843 C852 0.950 . S
H844 C854 0.942 1_545 S
H845 C856 0.950 . S
H846 C858 0.950 . S
H847 C859 0.950 . S
C848 H840 0.950 . S
C848 C849 1.386 . S
C848 C850 1.391 . S
C849 C848 1.386 . S
C849 C853 1.393 . S
C850 H842 0.950 . S
C850 C848 1.391 . S
C850 C851 1.400 . S
C851 C850 1.400 . S
C851 C852 1.398 . S
C851 C857 1.491 . S
C852 H843 0.950 . S
C852 C851 1.398 . S
C852 C853 1.391 . S
C853 H841 0.950 . S
C853 C849 1.393 . S
C853 C852 1.391 . S
C854 H844 0.942 1_565 S
C854 C855 1.386 . S
C854 C856 1.391 . S
C855 C854 1.386 . S
C855 C859 1.393 . S
C856 H845 0.950 . S
C856 C854 1.391 . S
C856 C857 1.400 . S
C857 C851 1.491 . S
C857 C856 1.400 . S
C857 C858 1.398 . S
C858 H846 0.950 . S
C858 C857 1.398 . S
C858 C859 1.391 . S
C859 H847 0.950 . S
C859 C855 1.393 . S
C859 C858 1.391 . S
H860 C868 0.950 . S
H861 C873 0.950 . S
H862 C870 0.950 . S
H863 C872 0.950 . S
H864 C874 0.950 . S
H865 C876 0.950 . S
H866 C878 0.950 . S
H867 C879 0.950 1_655 S
C868 H860 0.950 . S
C868 C869 1.386 . S
C868 C870 1.391 1_545 S
C869 C868 1.386 . S
C869 C873 1.393 1_545 S
C870 H862 0.950 . S
C870 C868 1.391 1_565 S
C870 C871 1.400 . S
C871 C870 1.400 . S
C871 C872 1.398 . S
C871 C877 1.491 . S
C872 H863 0.950 . S
C872 C871 1.398 . S
C872 C873 1.391 . S
C873 H861 0.950 . S
C873 C869 1.393 1_565 S
C873 C872 1.391 . S
C874 H864 0.950 . S
C874 C875 1.386 . S
C874 C876 1.391 . S
C875 C874 1.386 . S
C875 C879 1.393 . S
C876 H865 0.950 . S
C876 C874 1.391 . S
C876 C877 1.400 . S
C877 C871 1.491 . S
C877 C876 1.400 . S
C877 C878 1.398 . S
C878 H866 0.950 . S
C878 C877 1.398 . S
C878 C879 1.391 . S
C879 H867 0.950 1_455 S
C879 C875 1.393 . S
C879 C878 1.391 . S
H880 C888 0.950 . S
H881 C893 0.950 . S
H882 C890 0.950 . S
H883 C892 0.950 . S
H884 C894 0.950 . S
H885 C896 0.950 . S
H886 C898 0.950 . S
H887 C899 0.950 . S
C888 H880 0.950 . S
C888 C889 1.386 . S
C888 C890 1.391 1_655 S
C889 C888 1.386 . S
C889 C893 1.393 . S
C890 H882 0.950 . S
C890 C888 1.391 1_455 S
C890 C891 1.400 . S
C891 C890 1.400 . S
C891 C892 1.398 . S
C891 C897 1.491 . S
C892 H883 0.950 . S
C892 C891 1.398 . S
C892 C893 1.391 1_455 S
C893 H881 0.950 . S
C893 C889 1.393 . S
C893 C892 1.391 1_655 S
C894 H884 0.950 . S
C894 C895 1.386 . S
C894 C896 1.391 . S
C895 C894 1.386 . S
C895 C899 1.393 . S
C896 H885 0.950 . S
C896 C894 1.391 . S
C896 C897 1.400 . S
C897 C891 1.491 . S
C897 C896 1.400 . S
C897 C898 1.398 . S
C898 H886 0.950 . S
C898 C897 1.398 . S
C898 C899 1.391 . S
C899 H887 0.950 . S
C899 C895 1.393 . S
C899 C898 1.391 . S
H900 C908 0.950 . S
H901 C913 0.950 . S
H902 C910 0.950 . S
H903 C912 0.950 . S
H904 C914 0.950 . S
H905 C916 0.950 . S
H906 C918 0.950 . S
H907 C919 0.950 . S
C908 H900 0.950 . S
C908 C909 1.386 . S
C908 C910 1.391 . S
C909 C908 1.386 . S
C909 C913 1.393 . S
C910 H902 0.950 . S
C910 C908 1.391 . S
C910 C911 1.400 . S
C911 C910 1.400 . S
C911 C912 1.398 . S
C911 C917 1.491 . S
C912 H903 0.950 . S
C912 C911 1.398 . S
C912 C913 1.391 . S
C913 H901 0.950 . S
C913 C909 1.393 . S
C913 C912 1.391 . S
C914 H904 0.950 . S
C914 C915 1.386 . S
C914 C916 1.391 . S
C915 C914 1.386 . S
C915 C919 1.393 . S
C916 H905 0.950 . S
C916 C914 1.391 . S
C916 C917 1.400 . S
C917 C911 1.491 . S
C917 C916 1.400 . S
C917 C918 1.398 . S
C918 H906 0.950 . S
C918 C917 1.398 . S
C918 C919 1.391 . S
C919 H907 0.950 . S
C919 C915 1.393 . S
C919 C918 1.391 . S
H920 C928 0.950 . S
H921 C933 0.950 . S
H922 C930 0.950 . S
H923 C932 0.950 . S
H924 C934 0.950 . S
H925 C936 0.950 . S
H926 C938 0.950 . S
H927 C939 0.950 . S
C928 H920 0.950 . S
C928 C929 1.386 . S
C928 C930 1.391 . S
C929 C928 1.386 . S
C929 C933 1.393 . S
C930 H922 0.950 . S
C930 C928 1.391 . S
C930 C931 1.400 . S
C931 C930 1.400 . S
C931 C932 1.398 . S
C931 C937 1.491 . S
C932 H923 0.950 . S
C932 C931 1.398 . S
C932 C933 1.391 . S
C933 H921 0.950 . S
C933 C929 1.393 . S
C933 C932 1.391 . S
C934 H924 0.950 . S
C934 C935 1.386 . S
C934 C936 1.391 1_565 S
C935 C934 1.386 . S
C935 C939 1.393 . S
C936 H925 0.950 . S
C936 C934 1.391 1_545 S
C936 C937 1.400 . S
C937 C931 1.491 . S
C937 C936 1.400 . S
C937 C938 1.398 . S
C938 H926 0.950 . S
C938 C937 1.398 . S
C938 C939 1.391 1_545 S
C939 H927 0.950 . S
C939 C935 1.393 . S
C939 C938 1.391 1_565 S
H940 C948 0.950 . S
H941 C953 0.950 1_565 S
H942 C950 0.950 . S
H943 C952 0.950 . S
H944 C954 0.950 . S
H945 C956 0.950 . S
H946 C958 0.950 . S
H947 C959 0.959 1_455 S
C948 H940 0.950 . S
C948 C949 1.386 . S
C948 C950 1.391 . S
C949 C948 1.386 . S
C949 C953 1.393 . S
C950 H942 0.950 . S
C950 C948 1.391 . S
C950 C951 1.400 . S
C951 C950 1.400 . S
C951 C952 1.398 . S
C951 C957 1.491 . S
C952 H943 0.950 . S
C952 C951 1.398 . S
C952 C953 1.391 . S
C953 H941 0.950 1_545 S
C953 C949 1.393 . S
C953 C952 1.391 . S
C954 H944 0.950 . S
C954 C955 1.386 . S
C954 C956 1.391 1_455 S
C955 C954 1.386 . S
C955 C959 1.365 1_455 S
C956 H945 0.950 . S
C956 C954 1.391 1_655 S
C956 C957 1.400 . S
C957 C951 1.491 . S
C957 C956 1.400 . S
C957 C958 1.398 . S
C958 H946 0.950 . S
C958 C957 1.398 . S
C958 C959 1.410 . S
C959 H947 0.959 1_655 S
C959 C955 1.365 1_655 S
C959 C958 1.410 . S
H960 C968 0.950 . S
H961 C973 0.950 . S
H962 C970 0.950 . S
H963 C972 0.950 . S
H964 C974 0.950 . S
H965 C976 0.950 . S
H966 C978 0.950 . S
H967 C979 0.950 . S
C968 H960 0.950 . S
C968 C969 1.386 . S
C968 C970 1.391 . S
C969 C968 1.386 . S
C969 C973 1.393 . S
C970 H962 0.950 . S
C970 C968 1.391 . S
C970 C971 1.400 . S
C971 C970 1.400 . S
C971 C972 1.398 . S
C971 C977 1.491 . S
C972 H963 0.950 . S
C972 C971 1.398 . S
C972 C973 1.391 . S
C973 H961 0.950 . S
C973 C969 1.393 . S
C973 C972 1.391 . S
C974 H964 0.950 . S
C974 C975 1.386 . S
C974 C976 1.391 . S
C975 C974 1.386 . S
C975 C979 1.393 . S
C976 H965 0.950 . S
C976 C974 1.391 . S
C976 C977 1.400 . S
C977 C971 1.491 . S
C977 C976 1.400 . S
C977 C978 1.398 . S
C978 H966 0.950 . S
C978 C977 1.398 . S
C978 C979 1.391 . S
C979 H967 0.950 . S
C979 C975 1.393 . S
C979 C978 1.391 . S
H980 C988 0.950 . S
H981 C993 0.950 . S
H982 C990 0.950 . S
H983 C992 0.950 . S
H984 C994 0.950 . S
H985 C996 0.950 . S
H986 C998 0.950 . S
H987 C999 0.950 . S
C988 H980 0.950 . S
C988 C989 1.386 . S
C988 C990 1.391 . S
C989 C988 1.386 . S
C989 C993 1.393 . S
C990 H982 0.950 . S
C990 C988 1.391 . S
C990 C991 1.400 . S
C991 C990 1.400 . S
C991 C992 1.398 . S
C991 C997 1.491 . S
C992 H983 0.950 . S
C992 C991 1.398 . S
C992 C993 1.391 . S
C993 H981 0.950 . S
C993 C989 1.393 . S
C993 C992 1.391 . S
C994 H984 0.950 . S
C994 C995 1.386 . S
C994 C996 1.391 . S
C995 C994 1.386 . S
C995 C999 1.393 . S
C996 H985 0.950 . S
C996 C994 1.391 . S
C996 C997 1.400 . S
C997 C991 1.491 . S
C997 C996 1.400 . S
C997 C998 1.398 . S
C998 H986 0.950 . S
C998 C997 1.398 . S
C998 C999 1.391 . S
C999 H987 0.950 . S
C999 C995 1.393 . S
C999 C998 1.391 . S
H1000 C1008 0.950 . S
H1001 C1013 0.950 . S
H1002 C1010 0.950 . S
H1003 C1012 0.950 . S
H1004 C1014 0.950 . S
H1005 C1016 0.950 . S
H1006 C1018 0.950 . S
H1007 C1019 0.950 . S
C1008 H1000 0.950 . S
C1008 C1009 1.386 . S
C1008 C1010 1.391 . S
C1009 C1008 1.386 . S
C1009 C1013 1.393 . S
C1010 H1002 0.950 . S
C1010 C1008 1.391 . S
C1010 C1011 1.400 . S
C1011 C1010 1.400 . S
C1011 C1012 1.398 . S
C1011 C1017 1.491 . S
C1012 H1003 0.950 . S
C1012 C1011 1.398 . S
C1012 C1013 1.391 . S
C1013 H1001 0.950 . S
C1013 C1009 1.393 . S
C1013 C1012 1.391 . S
C1014 H1004 0.950 . S
C1014 C1015 1.386 . S
C1014 C1016 1.391 . S
C1015 C1014 1.386 . S
C1015 C1019 1.393 . S
C1016 H1005 0.950 . S
C1016 C1014 1.391 . S
C1016 C1017 1.400 . S
C1017 C1011 1.491 . S
C1017 C1016 1.400 . S
C1017 C1018 1.398 . S
C1018 H1006 0.950 . S
C1018 C1017 1.398 . S
C1018 C1019 1.391 . S
C1019 H1007 0.950 . S
C1019 C1015 1.393 . S
C1019 C1018 1.391 . S
H1020 C1028 0.950 . S
H1021 C1033 0.950 . S
H1022 C1030 0.950 . S
H1023 C1032 0.950 . S
H1024 C1034 0.950 . S
H1025 C1036 0.950 . S
H1026 C1038 0.950 . S
H1027 C1039 0.950 . S
C1028 H1020 0.950 . S
C1028 C1029 1.386 . S
C1028 C1030 1.391 . S
C1029 C1028 1.386 . S
C1029 C1033 1.393 . S
C1030 H1022 0.950 . S
C1030 C1028 1.391 . S
C1030 C1031 1.400 . S
C1031 C1030 1.400 . S
C1031 C1032 1.398 . S
C1031 C1037 1.491 . S
C1032 H1023 0.950 . S
C1032 C1031 1.398 . S
C1032 C1033 1.391 . S
C1033 H1021 0.950 . S
C1033 C1029 1.393 . S
C1033 C1032 1.391 . S
C1034 H1024 0.950 . S
C1034 C1035 1.386 . S
C1034 C1036 1.391 . S
C1035 C1034 1.386 . S
C1035 C1039 1.393 . S
C1036 H1025 0.950 . S
C1036 C1034 1.391 . S
C1036 C1037 1.400 . S
C1037 C1031 1.491 . S
C1037 C1036 1.400 . S
C1037 C1038 1.398 . S
C1038 H1026 0.950 . S
C1038 C1037 1.398 . S
C1038 C1039 1.391 . S
C1039 H1027 0.950 . S
C1039 C1035 1.393 . S
C1039 C1038 1.391 . S
H1040 C1048 0.950 . S
H1041 C1053 0.950 . S
H1042 C1050 0.950 . S
H1043 C1052 0.950 . S
H1044 C1054 0.950 . S
H1045 C1056 0.950 . S
H1046 C1058 0.950 . S
H1047 C1059 0.950 . S
C1048 H1040 0.950 . S
C1048 C1049 1.386 . S
C1048 C1050 1.391 . S
C1049 C1048 1.386 . S
C1049 C1053 1.393 . S
C1050 H1042 0.950 . S
C1050 C1048 1.391 . S
C1050 C1051 1.400 . S
C1051 C1050 1.400 . S
C1051 C1052 1.398 . S
C1051 C1057 1.491 . S
C1052 H1043 0.950 . S
C1052 C1051 1.398 . S
C1052 C1053 1.391 . S
C1053 H1041 0.950 . S
C1053 C1049 1.393 . S
C1053 C1052 1.391 . S
C1054 H1044 0.950 . S
C1054 C1055 1.386 . S
C1054 C1056 1.391 . S
C1055 C1054 1.386 . S
C1055 C1059 1.393 . S
C1056 H1045 0.950 . S
C1056 C1054 1.391 . S
C1056 C1057 1.400 . S
C1057 C1051 1.491 . S
C1057 C1056 1.400 . S
C1057 C1058 1.398 . S
C1058 H1046 0.950 . S
C1058 C1057 1.398 . S
C1058 C1059 1.391 . S
C1059 H1047 0.950 . S
C1059 C1055 1.393 . S
C1059 C1058 1.391 . S
H1060 C1068 0.950 . S
H1061 C1073 0.950 . S
H1062 C1070 0.950 . S
H1063 C1072 0.950 . S
H1064 C1074 0.950 . S
H1065 C1076 0.950 . S
H1066 C1078 0.950 . S
H1067 C1079 0.950 . S
C1068 H1060 0.950 . S
C1068 C1069 1.386 . S
C1068 C1070 1.391 . S
C1069 C1068 1.386 . S
C1069 C1073 1.393 . S
C1070 H1062 0.950 . S
C1070 C1068 1.391 . S
C1070 C1071 1.400 . S
C1071 C1070 1.400 . S
C1071 C1072 1.398 . S
C1071 C1077 1.491 . S
C1072 H1063 0.950 . S
C1072 C1071 1.398 . S
C1072 C1073 1.391 . S
C1073 H1061 0.950 . S
C1073 C1069 1.393 . S
C1073 C1072 1.391 . S
C1074 H1064 0.950 . S
C1074 C1075 1.386 . S
C1074 C1076 1.391 . S
C1075 C1074 1.386 . S
C1075 C1079 1.393 . S
C1076 H1065 0.950 . S
C1076 C1074 1.391 . S
C1076 C1077 1.400 . S
C1077 C1071 1.491 . S
C1077 C1076 1.400 . S
C1077 C1078 1.398 . S
C1078 H1066 0.950 . S
C1078 C1077 1.398 . S
C1078 C1079 1.391 . S
C1079 H1067 0.950 . S
C1079 C1075 1.393 . S
C1079 C1078 1.391 . S
H1080 C1088 0.950 . S
H1081 C1093 0.950 . S
H1082 C1090 0.950 . S
H1083 C1092 0.950 . S
H1084 C1094 0.950 . S
H1085 C1096 0.950 . S
H1086 C1098 0.950 . S
H1087 C1099 0.950 . S
C1088 H1080 0.950 . S
C1088 C1089 1.386 . S
C1088 C1090 1.391 . S
C1089 C1088 1.386 . S
C1089 C1093 1.393 . S
C1090 H1082 0.950 . S
C1090 C1088 1.391 . S
C1090 C1091 1.400 . S
C1091 C1090 1.400 . S
C1091 C1092 1.398 . S
C1091 C1097 1.491 . S
C1092 H1083 0.950 . S
C1092 C1091 1.398 . S
C1092 C1093 1.391 . S
C1093 H1081 0.950 . S
C1093 C1089 1.393 . S
C1093 C1092 1.391 . S
C1094 H1084 0.950 . S
C1094 C1095 1.386 . S
C1094 C1096 1.391 . S
C1095 C1094 1.386 . S
C1095 C1099 1.393 . S
C1096 H1085 0.950 . S
C1096 C1094 1.391 . S
C1096 C1097 1.400 . S
C1097 C1091 1.491 . S
C1097 C1096 1.400 . S
C1097 C1098 1.398 . S
C1098 H1086 0.950 . S
C1098 C1097 1.398 . S
C1098 C1099 1.391 . S
C1099 H1087 0.950 . S
C1099 C1095 1.393 . S
C1099 C1098 1.391 . S
H1100 C1108 0.950 . S
H1101 C1113 0.950 . S
H1102 C1110 0.950 . S
H1103 C1112 0.950 . S
H1104 C1114 0.950 . S
H1105 C1116 0.950 . S
H1106 C1118 0.950 . S
H1107 C1119 0.950 . S
C1108 H1100 0.950 . S
C1108 C1109 1.386 . S
C1108 C1110 1.391 . S
C1109 C1108 1.386 . S
C1109 C1113 1.393 . S
C1110 H1102 0.950 . S
C1110 C1108 1.391 . S
C1110 C1111 1.400 . S
C1111 C1110 1.400 . S
C1111 C1112 1.398 . S
C1111 C1117 1.491 . S
C1112 H1103 0.950 . S
C1112 C1111 1.398 . S
C1112 C1113 1.391 . S
C1113 H1101 0.950 . S
C1113 C1109 1.393 . S
C1113 C1112 1.391 . S
C1114 H1104 0.950 . S
C1114 C1115 1.386 . S
C1114 C1116 1.391 . S
C1115 C1114 1.386 . S
C1115 C1119 1.393 . S
C1116 H1105 0.950 . S
C1116 C1114 1.391 . S
C1116 C1117 1.400 . S
C1117 C1111 1.491 . S
C1117 C1116 1.400 . S
C1117 C1118 1.398 . S
C1118 H1106 0.950 . S
C1118 C1117 1.398 . S
C1118 C1119 1.391 . S
C1119 H1107 0.950 . S
C1119 C1115 1.393 . S
C1119 C1118 1.391 . S
H1120 C1128 0.950 . S
H1121 C1133 0.950 . S
H1122 C1130 0.950 . S
H1123 C1132 0.950 . S
H1124 C1134 0.950 . S
H1125 C1136 0.950 . S
H1126 C1138 0.950 . S
H1127 C1139 0.950 . S
C1128 H1120 0.950 . S
C1128 C1129 1.386 . S
C1128 C1130 1.391 . S
C1129 C1128 1.386 . S
C1129 C1133 1.393 . S
C1130 H1122 0.950 . S
C1130 C1128 1.391 . S
C1130 C1131 1.400 . S
C1131 C1130 1.400 . S
C1131 C1132 1.398 . S
C1131 C1137 1.491 . S
C1132 H1123 0.950 . S
C1132 C1131 1.398 . S
C1132 C1133 1.391 . S
C1133 H1121 0.950 . S
C1133 C1129 1.393 . S
C1133 C1132 1.391 . S
C1134 H1124 0.950 . S
C1134 C1135 1.386 . S
C1134 C1136 1.391 . S
C1135 C1134 1.386 . S
C1135 C1139 1.393 . S
C1136 H1125 0.950 . S
C1136 C1134 1.391 . S
C1136 C1137 1.400 . S
C1137 C1131 1.491 . S
C1137 C1136 1.400 . S
C1137 C1138 1.398 . S
C1138 H1126 0.950 . S
C1138 C1137 1.398 . S
C1138 C1139 1.391 . S
C1139 H1127 0.950 . S
C1139 C1135 1.393 . S
C1139 C1138 1.391 . S
H1140 C1148 0.950 . S
H1141 C1153 0.950 . S
H1142 C1150 0.950 . S
H1143 C1152 0.950 . S
H1144 C1154 0.950 . S
H1145 C1156 0.950 . S
H1146 C1158 0.950 . S
H1147 C1159 0.950 . S
C1148 H1140 0.950 . S
C1148 C1149 1.386 1_556 S
C1148 C1150 1.391 . S
C1149 C1148 1.386 1_554 S
C1149 C1153 1.393 . S
C1150 H1142 0.950 . S
C1150 C1148 1.391 . S
C1150 C1151 1.400 1_556 S
C1151 C1150 1.400 1_554 S
C1151 C1152 1.398 . S
C1151 C1157 1.491 . S
C1152 H1143 0.950 . S
C1152 C1151 1.398 . S
C1152 C1153 1.391 . S
C1153 H1141 0.950 . S
C1153 C1149 1.393 . S
C1153 C1152 1.391 . S
C1154 H1144 0.950 . S
C1154 C1155 1.386 . S
C1154 C1156 1.391 . S
C1155 C1154 1.386 . S
C1155 C1159 1.393 1_554 S
C1156 H1145 0.950 . S
C1156 C1154 1.391 . S
C1156 C1157 1.400 . S
C1157 C1151 1.491 . S
C1157 C1156 1.400 . S
C1157 C1158 1.398 1_554 S
C1158 H1146 0.950 . S
C1158 C1157 1.398 1_556 S
C1158 C1159 1.391 . S
C1159 H1147 0.950 . S
C1159 C1155 1.393 1_556 S
C1159 C1158 1.391 . S
H1160 C1168 0.950 . S
H1161 C1173 0.950 . S
H1162 C1170 0.950 . S
H1163 C1172 0.950 . S
H1164 C1174 0.950 . S
H1165 C1176 0.950 . S
H1166 C1178 0.950 . S
H1167 C1179 0.950 . S
C1168 H1160 0.950 . S
C1168 C1169 1.386 . S
C1168 C1170 1.391 . S
C1169 C1168 1.386 . S
C1169 C1173 1.393 . S
C1170 H1162 0.950 . S
C1170 C1168 1.391 . S
C1170 C1171 1.400 . S
C1171 C1170 1.400 . S
C1171 C1172 1.398 . S
C1171 C1177 1.491 . S
C1172 H1163 0.950 . S
C1172 C1171 1.398 . S
C1172 C1173 1.391 . S
C1173 H1161 0.950 . S
C1173 C1169 1.393 . S
C1173 C1172 1.391 . S
C1174 H1164 0.950 . S
C1174 C1175 1.386 . S
C1174 C1176 1.391 . S
C1175 C1174 1.386 . S
C1175 C1179 1.393 . S
C1176 H1165 0.950 . S
C1176 C1174 1.391 . S
C1176 C1177 1.400 . S
C1177 C1171 1.491 . S
C1177 C1176 1.400 . S
C1177 C1178 1.398 . S
C1178 H1166 0.950 . S
C1178 C1177 1.398 . S
C1178 C1179 1.391 . S
C1179 H1167 0.950 . S
C1179 C1175 1.393 . S
C1179 C1178 1.391 . S
H1180 C1188 0.950 . S
H1181 C1193 0.950 . S
H1182 C1190 0.950 . S
H1183 C1192 0.950 . S
H1184 C1194 0.950 . S
H1185 C1196 0.950 . S
H1186 C1198 0.950 . S
H1187 C1199 0.950 . S
C1188 H1180 0.950 . S
C1188 C1189 1.386 . S
C1188 C1190 1.391 . S
C1189 C1188 1.386 . S
C1189 C1193 1.393 1_554 S
C1190 H1182 0.950 . S
C1190 C1188 1.391 . S
C1190 C1191 1.400 . S
C1191 C1190 1.400 . S
C1191 C1192 1.398 1_554 S
C1191 C1197 1.491 . S
C1192 H1183 0.950 . S
C1192 C1191 1.398 1_556 S
C1192 C1193 1.391 . S
C1193 H1181 0.950 . S
C1193 C1189 1.393 1_556 S
C1193 C1192 1.391 . S
C1194 H1184 0.950 . S
C1194 C1195 1.386 1_556 S
C1194 C1196 1.391 . S
C1195 C1194 1.386 1_554 S
C1195 C1199 1.393 . S
C1196 H1185 0.950 . S
C1196 C1194 1.391 . S
C1196 C1197 1.400 1_556 S
C1197 C1191 1.491 . S
C1197 C1196 1.400 1_554 S
C1197 C1198 1.398 . S
C1198 H1186 0.950 . S
C1198 C1197 1.398 . S
C1198 C1199 1.391 . S
C1199 H1187 0.950 . S
C1199 C1195 1.393 . S
C1199 C1198 1.391 . S
H1200 C1208 0.950 . S
H1201 C1213 0.950 . S
H1202 C1210 0.950 . S
H1203 C1212 0.950 . S
H1204 C1214 0.950 . S
H1205 C1216 0.950 . S
H1206 C1218 0.950 . S
H1207 C1219 0.950 . S
C1208 H1200 0.950 . S
C1208 C1209 1.386 . S
C1208 C1210 1.391 . S
C1209 C1208 1.386 . S
C1209 C1213 1.393 . S
C1210 H1202 0.950 . S
C1210 C1208 1.391 . S
C1210 C1211 1.400 . S
C1211 C1210 1.400 . S
C1211 C1212 1.398 . S
C1211 C1217 1.491 . S
C1212 H1203 0.950 . S
C1212 C1211 1.398 . S
C1212 C1213 1.391 . S
C1213 H1201 0.950 . S
C1213 C1209 1.393 . S
C1213 C1212 1.391 . S
C1214 H1204 0.950 . S
C1214 C1215 1.386 . S
C1214 C1216 1.391 . S
C1215 C1214 1.386 . S
C1215 C1219 1.393 . S
C1216 H1205 0.950 . S
C1216 C1214 1.391 . S
C1216 C1217 1.400 . S
C1217 C1211 1.491 . S
C1217 C1216 1.400 . S
C1217 C1218 1.398 . S
C1218 H1206 0.950 . S
C1218 C1217 1.398 . S
C1218 C1219 1.391 . S
C1219 H1207 0.950 . S
C1219 C1215 1.393 . S
C1219 C1218 1.391 . S
H1220 C1228 0.950 . S
H1221 C1233 0.950 . S
H1222 C1230 0.950 . S
H1223 C1232 0.950 . S
H1224 C1234 0.950 . S
H1225 C1236 0.950 . S
H1226 C1238 0.950 . S
H1227 C1239 0.950 . S
C1228 H1220 0.950 . S
C1228 C1229 1.386 . S
C1228 C1230 1.391 . S
C1229 C1228 1.386 . S
C1229 C1233 1.393 . S
C1230 H1222 0.950 . S
C1230 C1228 1.391 . S
C1230 C1231 1.400 . S
C1231 C1230 1.400 . S
C1231 C1232 1.398 . S
C1231 C1237 1.491 . S
C1232 H1223 0.950 . S
C1232 C1231 1.398 . S
C1232 C1233 1.391 . S
C1233 H1221 0.950 . S
C1233 C1229 1.393 . S
C1233 C1232 1.391 . S
C1234 H1224 0.950 . S
C1234 C1235 1.386 . S
C1234 C1236 1.391 . S
C1235 C1234 1.386 . S
C1235 C1239 1.393 . S
C1236 H1225 0.950 . S
C1236 C1234 1.391 . S
C1236 C1237 1.400 . S
C1237 C1231 1.491 . S
C1237 C1236 1.400 . S
C1237 C1238 1.398 . S
C1238 H1226 0.950 . S
C1238 C1237 1.398 . S
C1238 C1239 1.391 . S
C1239 H1227 0.950 . S
C1239 C1235 1.393 . S
C1239 C1238 1.391 . S
H1240 C1248 0.950 . S
H1241 C1253 0.950 . S
H1242 C1250 0.950 . S
H1243 C1252 0.950 . S
H1244 C1254 0.950 . S
H1245 C1256 0.950 . S
H1246 C1258 0.950 . S
H1247 C1259 0.950 . S
C1248 H1240 0.950 . S
C1248 C1249 1.386 . S
C1248 C1250 1.391 . S
C1249 C1248 1.386 . S
C1249 C1253 1.393 . S
C1250 H1242 0.950 . S
C1250 C1248 1.391 . S
C1250 C1251 1.400 . S
C1251 C1250 1.400 . S
C1251 C1252 1.398 . S
C1251 C1257 1.491 . S
C1252 H1243 0.950 . S
C1252 C1251 1.398 . S
C1252 C1253 1.391 . S
C1253 H1241 0.950 . S
C1253 C1249 1.393 . S
C1253 C1252 1.391 . S
C1254 H1244 0.950 . S
C1254 C1255 1.386 . S
C1254 C1256 1.391 . S
C1255 C1254 1.386 . S
C1255 C1259 1.393 . S
C1256 H1245 0.950 . S
C1256 C1254 1.391 . S
C1256 C1257 1.400 . S
C1257 C1251 1.491 . S
C1257 C1256 1.400 . S
C1257 C1258 1.398 . S
C1258 H1246 0.950 . S
C1258 C1257 1.398 . S
C1258 C1259 1.391 . S
C1259 H1247 0.950 . S
C1259 C1255 1.393 . S
C1259 C1258 1.391 . S
H1260 C1268 0.950 . S
H1261 C1273 0.950 . S
H1262 C1270 0.950 . S
H1263 C1272 0.950 . S
H1264 C1274 0.950 . S
H1265 C1276 0.950 . S
H1266 C1278 0.950 . S
H1267 C1279 0.950 . S
C1268 H1260 0.950 . S
C1268 C1269 1.386 1_554 S
C1268 C1270 1.391 . S
C1269 C1268 1.386 1_556 S
C1269 C1273 1.393 . S
C1270 H1262 0.950 . S
C1270 C1268 1.391 . S
C1270 C1271 1.400 1_554 S
C1271 C1270 1.400 1_556 S
C1271 C1272 1.398 . S
C1271 C1277 1.491 . S
C1272 H1263 0.950 . S
C1272 C1271 1.398 . S
C1272 C1273 1.391 . S
C1273 H1261 0.950 . S
C1273 C1269 1.393 . S
C1273 C1272 1.391 . S
C1274 H1264 0.950 . S
C1274 C1275 1.386 . S
C1274 C1276 1.391 . S
C1275 C1274 1.386 . S
C1275 C1279 1.393 1_556 S
C1276 H1265 0.950 . S
C1276 C1274 1.391 . S
C1276 C1277 1.400 . S
C1277 C1271 1.491 . S
C1277 C1276 1.400 . S
C1277 C1278 1.398 1_556 S
C1278 H1266 0.950 . S
C1278 C1277 1.398 1_554 S
C1278 C1279 1.391 . S
C1279 H1267 0.950 . S
C1279 C1275 1.393 1_554 S
C1279 C1278 1.391 . S
H1280 C1288 0.950 . S
H1281 C1293 0.950 . S
H1282 C1290 0.950 . S
H1283 C1292 0.950 . S
H1284 C1294 0.950 . S
H1285 C1296 0.950 . S
H1286 C1298 0.950 . S
H1287 C1299 0.950 . S
C1288 H1280 0.950 . S
C1288 C1289 1.386 1_554 S
C1288 C1290 1.391 . S
C1289 C1288 1.386 1_556 S
C1289 C1293 1.393 . S
C1290 H1282 0.950 . S
C1290 C1288 1.391 . S
C1290 C1291 1.400 1_554 S
C1291 C1290 1.400 1_556 S
C1291 C1292 1.398 . S
C1291 C1297 1.491 . S
C1292 H1283 0.950 . S
C1292 C1291 1.398 . S
C1292 C1293 1.391 . S
C1293 H1281 0.950 . S
C1293 C1289 1.393 . S
C1293 C1292 1.391 . S
C1294 H1284 0.950 . S
C1294 C1295 1.386 . S
C1294 C1296 1.391 . S
C1295 C1294 1.386 . S
C1295 C1299 1.393 1_556 S
C1296 H1285 0.950 . S
C1296 C1294 1.391 . S
C1296 C1297 1.400 . S
C1297 C1291 1.491 . S
C1297 C1296 1.400 . S
C1297 C1298 1.398 1_556 S
C1298 H1286 0.950 . S
C1298 C1297 1.398 1_554 S
C1298 C1299 1.391 . S
C1299 H1287 0.950 . S
C1299 C1295 1.393 1_554 S
C1299 C1298 1.391 . S
H1300 C1308 0.950 . S
H1301 C1313 0.950 . S
H1302 C1310 0.950 . S
H1303 C1312 0.950 . S
H1304 C1314 0.950 . S
H1305 C1316 0.950 . S
H1306 C1318 0.950 . S
H1307 C1319 0.950 . S
C1308 H1300 0.950 . S
C1308 C1309 1.386 . S
C1308 C1310 1.391 . S
C1309 C1308 1.386 . S
C1309 C1313 1.393 1_556 S
C1310 H1302 0.950 . S
C1310 C1308 1.391 . S
C1310 C1311 1.400 . S
C1311 C1310 1.400 . S
C1311 C1312 1.398 1_556 S
C1311 C1317 1.491 . S
C1312 H1303 0.950 . S
C1312 C1311 1.398 1_554 S
C1312 C1313 1.391 . S
C1313 H1301 0.950 . S
C1313 C1309 1.393 1_554 S
C1313 C1312 1.391 . S
C1314 H1304 0.950 . S
C1314 C1315 1.386 1_554 S
C1314 C1316 1.391 . S
C1315 C1314 1.386 1_556 S
C1315 C1319 1.393 . S
C1316 H1305 0.950 . S
C1316 C1314 1.391 . S
C1316 C1317 1.400 1_554 S
C1317 C1311 1.491 . S
C1317 C1316 1.400 1_556 S
C1317 C1318 1.398 . S
C1318 H1306 0.950 . S
C1318 C1317 1.398 . S
C1318 C1319 1.391 . S
C1319 H1307 0.950 . S
C1319 C1315 1.393 . S
C1319 C1318 1.391 . S
H1320 C1328 0.950 . S
H1321 C1333 0.950 . S
H1322 C1330 0.950 . S
H1323 C1332 0.950 . S
H1324 C1334 0.950 . S
H1325 C1336 0.950 . S
H1326 C1338 0.950 . S
H1327 C1339 0.950 . S
C1328 H1320 0.950 . S
C1328 C1329 1.386 . S
C1328 C1330 1.391 . S
C1329 C1328 1.386 . S
C1329 C1333 1.393 . S
C1330 H1322 0.950 . S
C1330 C1328 1.391 . S
C1330 C1331 1.400 . S
C1331 C1330 1.400 . S
C1331 C1332 1.398 . S
C1331 C1337 1.491 . S
C1332 H1323 0.950 . S
C1332 C1331 1.398 . S
C1332 C1333 1.391 . S
C1333 H1321 0.950 . S
C1333 C1329 1.393 . S
C1333 C1332 1.391 . S
C1334 H1324 0.950 . S
C1334 C1335 1.386 . S
C1334 C1336 1.391 . S
C1335 C1334 1.386 . S
C1335 C1339 1.393 . S
C1336 H1325 0.950 . S
C1336 C1334 1.391 . S
C1336 C1337 1.400 . S
C1337 C1331 1.491 . S
C1337 C1336 1.400 . S
C1337 C1338 1.398 . S
C1338 H1326 0.950 . S
C1338 C1337 1.398 . S
C1338 C1339 1.391 . S
C1339 H1327 0.950 . S
C1339 C1335 1.393 . S
C1339 C1338 1.391 . S
H1340 C1348 0.950 . S
H1341 C1353 0.950 . S
H1342 C1350 0.950 . S
H1343 C1352 0.950 . S
H1344 C1354 0.950 . S
H1345 C1356 0.950 . S
H1346 C1358 0.950 . S
H1347 C1359 0.950 . S
C1348 H1340 0.950 . S
C1348 C1349 1.386 . S
C1348 C1350 1.391 . S
C1349 C1348 1.386 . S
C1349 C1353 1.393 . S
C1350 H1342 0.950 . S
C1350 C1348 1.391 . S
C1350 C1351 1.400 . S
C1351 C1350 1.400 . S
C1351 C1352 1.398 . S
C1351 C1357 1.491 . S
C1352 H1343 0.950 . S
C1352 C1351 1.398 . S
C1352 C1353 1.391 . S
C1353 H1341 0.950 . S
C1353 C1349 1.393 . S
C1353 C1352 1.391 . S
C1354 H1344 0.950 . S
C1354 C1355 1.386 . S
C1354 C1356 1.391 . S
C1355 C1354 1.386 . S
C1355 C1359 1.393 . S
C1356 H1345 0.950 . S
C1356 C1354 1.391 . S
C1356 C1357 1.400 . S
C1357 C1351 1.491 . S
C1357 C1356 1.400 . S
C1357 C1358 1.398 . S
C1358 H1346 0.950 . S
C1358 C1357 1.398 . S
C1358 C1359 1.391 . S
C1359 H1347 0.950 . S
C1359 C1355 1.393 . S
C1359 C1358 1.391 . S
H1360 C1368 0.950 . S
H1361 C1373 0.950 . S
H1362 C1370 0.950 . S
H1363 C1372 0.950 . S
H1364 C1374 0.950 . S
H1365 C1376 0.950 . S
H1366 C1378 0.950 . S
H1367 C1379 0.950 . S
C1368 H1360 0.950 . S
C1368 C1369 1.386 . S
C1368 C1370 1.391 . S
C1369 C1368 1.386 . S
C1369 C1373 1.393 . S
C1370 H1362 0.950 . S
C1370 C1368 1.391 . S
C1370 C1371 1.400 . S
C1371 C1370 1.400 . S
C1371 C1372 1.398 . S
C1371 C1377 1.491 . S
C1372 H1363 0.950 . S
C1372 C1371 1.398 . S
C1372 C1373 1.391 . S
C1373 H1361 0.950 . S
C1373 C1369 1.393 . S
C1373 C1372 1.391 . S
C1374 H1364 0.950 . S
C1374 C1375 1.386 . S
C1374 C1376 1.391 . S
C1375 C1374 1.386 . S
C1375 C1379 1.393 . S
C1376 H1365 0.950 . S
C1376 C1374 1.391 . S
C1376 C1377 1.400 . S
C1377 C1371 1.491 . S
C1377 C1376 1.400 . S
C1377 C1378 1.398 . S
C1378 H1366 0.950 . S
C1378 C1377 1.398 . S
C1378 C1379 1.391 . S
C1379 H1367 0.950 . S
C1379 C1375 1.393 . S
C1379 C1378 1.391 . S
H1380 C1388 0.950 . S
H1381 C1393 0.950 . S
H1382 C1390 0.950 . S
H1383 C1392 0.950 . S
H1384 C1394 0.950 . S
H1385 C1396 0.950 . S
H1386 C1398 0.950 . S
H1387 C1399 0.950 . S
C1388 H1380 0.950 . S
C1388 C1389 1.386 . S
C1388 C1390 1.391 . S
C1389 C1388 1.386 . S
C1389 C1393 1.393 . S
C1390 H1382 0.950 . S
C1390 C1388 1.391 . S
C1390 C1391 1.400 . S
C1391 C1390 1.400 . S
C1391 C1392 1.398 . S
C1391 C1397 1.491 . S
C1392 H1383 0.950 . S
C1392 C1391 1.398 . S
C1392 C1393 1.391 . S
C1393 H1381 0.950 . S
C1393 C1389 1.393 . S
C1393 C1392 1.391 . S
C1394 H1384 0.950 . S
C1394 C1395 1.386 . S
C1394 C1396 1.391 . S
C1395 C1394 1.386 . S
C1395 C1399 1.393 . S
C1396 H1385 0.950 . S
C1396 C1394 1.391 . S
C1396 C1397 1.400 . S
C1397 C1391 1.491 . S
C1397 C1396 1.400 . S
C1397 C1398 1.398 . S
C1398 H1386 0.950 . S
C1398 C1397 1.398 . S
C1398 C1399 1.391 . S
C1399 H1387 0.950 . S
C1399 C1395 1.393 . S
C1399 C1398 1.391 . S
H1400 C1408 0.950 . S
H1401 C1413 0.950 . S
H1402 C1410 0.950 . S
H1403 C1412 0.950 . S
H1404 C1414 0.950 . S
H1405 C1416 0.950 . S
H1406 C1418 0.950 . S
H1407 C1419 0.950 . S
C1408 H1400 0.950 . S
C1408 C1409 1.386 . S
C1408 C1410 1.391 . S
C1409 C1408 1.386 . S
C1409 C1413 1.393 . S
C1410 H1402 0.950 . S
C1410 C1408 1.391 . S
C1410 C1411 1.400 . S
C1411 C1410 1.400 . S
C1411 C1412 1.398 . S
C1411 C1417 1.491 . S
C1412 H1403 0.950 . S
C1412 C1411 1.398 . S
C1412 C1413 1.391 . S
C1413 H1401 0.950 . S
C1413 C1409 1.393 . S
C1413 C1412 1.391 . S
C1414 H1404 0.950 . S
C1414 C1415 1.386 . S
C1414 C1416 1.391 . S
C1415 C1414 1.386 . S
C1415 C1419 1.393 . S
C1416 H1405 0.950 . S
C1416 C1414 1.391 . S
C1416 C1417 1.400 . S
C1417 C1411 1.491 . S
C1417 C1416 1.400 . S
C1417 C1418 1.398 . S
C1418 H1406 0.950 . S
C1418 C1417 1.398 . S
C1418 C1419 1.391 . S
C1419 H1407 0.950 . S
C1419 C1415 1.393 . S
C1419 C1418 1.391 . S
H1420 C1428 0.950 . S
H1421 C1433 0.950 . S
H1422 C1430 0.950 . S
H1423 C1432 0.950 . S
H1424 C1434 0.950 . S
H1425 C1436 0.950 . S
H1426 C1438 0.950 . S
H1427 C1439 0.950 . S
C1428 H1420 0.950 . S
C1428 C1429 1.386 . S
C1428 C1430 1.391 . S
C1429 C1428 1.386 . S
C1429 C1433 1.393 . S
C1430 H1422 0.950 . S
C1430 C1428 1.391 . S
C1430 C1431 1.400 . S
C1431 C1430 1.400 . S
C1431 C1432 1.398 . S
C1431 C1437 1.491 . S
C1432 H1423 0.950 . S
C1432 C1431 1.398 . S
C1432 C1433 1.391 . S
C1433 H1421 0.950 . S
C1433 C1429 1.393 . S
C1433 C1432 1.391 . S
C1434 H1424 0.950 . S
C1434 C1435 1.386 . S
C1434 C1436 1.391 . S
C1435 C1434 1.386 . S
C1435 C1439 1.393 . S
C1436 H1425 0.950 . S
C1436 C1434 1.391 . S
C1436 C1437 1.400 . S
C1437 C1431 1.491 . S
C1437 C1436 1.400 . S
C1437 C1438 1.398 . S
C1438 H1426 0.950 . S
C1438 C1437 1.398 . S
C1438 C1439 1.391 . S
C1439 H1427 0.950 . S
C1439 C1435 1.393 . S
C1439 C1438 1.391 . S
H1440 C1448 0.950 . S
H1441 C1453 0.950 . S
H1442 C1450 0.950 . S
H1443 C1452 0.950 . S
H1444 C1454 0.950 . S
H1445 C1456 0.950 . S
H1446 C1458 0.950 . S
H1447 C1459 0.950 . S
C1448 H1440 0.950 . S
C1448 C1449 1.386 . S
C1448 C1450 1.391 . S
C1449 C1448 1.386 . S
C1449 C1453 1.393 . S
C1450 H1442 0.950 . S
C1450 C1448 1.391 . S
C1450 C1451 1.400 . S
C1451 C1450 1.400 . S
C1451 C1452 1.398 . S
C1451 C1457 1.491 . S
C1452 H1443 0.950 . S
C1452 C1451 1.398 . S
C1452 C1453 1.391 . S
C1453 H1441 0.950 . S
C1453 C1449 1.393 . S
C1453 C1452 1.391 . S
C1454 H1444 0.950 . S
C1454 C1455 1.386 . S
C1454 C1456 1.391 . S
C1455 C1454 1.386 . S
C1455 C1459 1.393 . S
C1456 H1445 0.950 . S
C1456 C1454 1.391 . S
C1456 C1457 1.400 . S
C1457 C1451 1.491 . S
C1457 C1456 1.400 . S
C1457 C1458 1.398 . S
C1458 H1446 0.950 . S
C1458 C1457 1.398 . S
C1458 C1459 1.391 . S
C1459 H1447 0.950 . S
C1459 C1455 1.393 . S
C1459 C1458 1.391 . S
H1460 C1468 0.950 . S
H1461 C1473 0.950 . S
H1462 C1470 0.950 . S
H1463 C1472 0.950 . S
H1464 C1474 0.950 . S
H1465 C1476 0.950 . S
H1466 C1478 0.950 . S
H1467 C1479 0.950 . S
C1468 H1460 0.950 . S
C1468 C1469 1.386 . S
C1468 C1470 1.391 . S
C1469 C1468 1.386 . S
C1469 C1473 1.393 1_545 S
C1470 H1462 0.950 . S
C1470 C1468 1.391 . S
C1470 C1471 1.400 1_545 S
C1471 C1470 1.400 1_565 S
C1471 C1472 1.398 . S
C1471 C1477 1.491 . S
C1472 H1463 0.950 . S
C1472 C1471 1.398 . S
C1472 C1473 1.391 . S
C1473 H1461 0.950 . S
C1473 C1469 1.393 1_565 S
C1473 C1472 1.391 . S
C1474 H1464 0.950 . S
C1474 C1475 1.386 . S
C1474 C1476 1.391 . S
C1475 C1474 1.386 . S
C1475 C1479 1.393 . S
C1476 H1465 0.950 . S
C1476 C1474 1.391 . S
C1476 C1477 1.400 . S
C1477 C1471 1.491 . S
C1477 C1476 1.400 . S
C1477 C1478 1.398 . S
C1478 H1466 0.950 . S
C1478 C1477 1.398 . S
C1478 C1479 1.391 . S
C1479 H1467 0.950 . S
C1479 C1475 1.393 . S
C1479 C1478 1.391 . S
H1480 C1488 0.950 . S
H1481 C1493 0.950 . S
H1482 C1490 0.950 . S
H1483 C1492 0.950 . S
H1484 C1494 0.950 . S
H1485 C1496 0.950 . S
H1486 C1498 0.932 1_655 S
H1487 C1499 0.950 . S
C1488 H1480 0.950 . S
C1488 C1489 1.386 . S
C1488 C1490 1.391 . S
C1489 C1488 1.386 . S
C1489 C1493 1.393 . S
C1490 H1482 0.950 . S
C1490 C1488 1.391 . S
C1490 C1491 1.400 . S
C1491 C1490 1.400 . S
C1491 C1492 1.398 . S
C1491 C1497 1.491 . S
C1492 H1483 0.950 . S
C1492 C1491 1.398 . S
C1492 C1493 1.391 . S
C1493 H1481 0.950 . S
C1493 C1489 1.393 . S
C1493 C1492 1.391 . S
C1494 H1484 0.950 . S
C1494 C1495 1.386 1_455 S
C1494 C1496 1.391 . S
C1495 C1494 1.386 1_655 S
C1495 C1499 1.393 . S
C1496 H1485 0.950 . S
C1496 C1494 1.391 . S
C1496 C1497 1.400 . S
C1497 C1491 1.491 . S
C1497 C1496 1.400 . S
C1497 C1498 1.398 . S
C1498 H1486 0.932 1_455 S
C1498 C1497 1.398 . S
C1498 C1499 1.391 1_455 S
C1499 H1487 0.950 . S
C1499 C1495 1.393 . S
C1499 C1498 1.391 1_655 S
H1500 C1508 0.950 . S
H1501 C1513 0.950 . S
H1502 C1510 0.950 . S
H1503 C1512 0.950 . S
H1504 C1514 0.950 . S
H1505 C1516 0.950 . S
H1506 C1518 0.950 . S
H1507 C1519 0.950 . S
C1508 H1500 0.950 . S
C1508 C1509 1.386 . S
C1508 C1510 1.391 . S
C1509 C1508 1.386 . S
C1509 C1513 1.393 . S
C1510 H1502 0.950 . S
C1510 C1508 1.391 . S
C1510 C1511 1.400 . S
C1511 C1510 1.400 . S
C1511 C1512 1.398 . S
C1511 C1517 1.491 . S
C1512 H1503 0.950 . S
C1512 C1511 1.398 . S
C1512 C1513 1.391 . S
C1513 H1501 0.950 . S
C1513 C1509 1.393 . S
C1513 C1512 1.391 . S
C1514 H1504 0.950 . S
C1514 C1515 1.386 . S
C1514 C1516 1.391 . S
C1515 C1514 1.386 . S
C1515 C1519 1.393 . S
C1516 H1505 0.950 . S
C1516 C1514 1.391 . S
C1516 C1517 1.400 . S
C1517 C1511 1.491 . S
C1517 C1516 1.400 . S
C1517 C1518 1.398 . S
C1518 H1506 0.950 . S
C1518 C1517 1.398 . S
C1518 C1519 1.391 . S
C1519 H1507 0.950 . S
C1519 C1515 1.393 . S
C1519 C1518 1.391 . S
H1520 C1528 0.954 1_565 S
H1521 C1533 0.950 . S
H1522 C1530 0.950 . S
H1523 C1532 0.950 . S
H1524 C1534 0.950 . S
H1525 C1536 0.950 . S
H1526 C1538 0.950 . S
H1527 C1539 0.950 . S
C1528 H1520 0.954 1_545 S
C1528 C1529 1.386 1_545 S
C1528 C1530 1.391 . S
C1529 C1528 1.386 1_565 S
C1529 C1533 1.393 . S
C1530 H1522 0.950 . S
C1530 C1528 1.391 . S
C1530 C1531 1.400 . S
C1531 C1530 1.400 . S
C1531 C1532 1.398 . S
C1531 C1537 1.491 . S
C1532 H1523 0.950 . S
C1532 C1531 1.398 . S
C1532 C1533 1.391 1_545 S
C1533 H1521 0.950 . S
C1533 C1529 1.393 . S
C1533 C1532 1.391 1_565 S
C1534 H1524 0.950 . S
C1534 C1535 1.386 . S
C1534 C1536 1.391 . S
C1535 C1534 1.386 . S
C1535 C1539 1.393 . S
C1536 H1525 0.950 . S
C1536 C1534 1.391 . S
C1536 C1537 1.400 . S
C1537 C1531 1.491 . S
C1537 C1536 1.400 . S
C1537 C1538 1.398 . S
C1538 H1526 0.950 . S
C1538 C1537 1.398 . S
C1538 C1539 1.391 . S
C1539 H1527 0.950 . S
C1539 C1535 1.393 . S
C1539 C1538 1.391 . S
H1540 C1548 0.950 . S
H1541 C1553 0.950 . S
H1542 C1550 0.950 . S
H1543 C1552 0.950 . S
H1544 C1554 0.950 . S
H1545 C1556 0.950 . S
H1546 C1558 0.950 . S
H1547 C1559 0.950 . S
C1548 H1540 0.950 . S
C1548 C1549 1.386 . S
C1548 C1550 1.391 . S
C1549 C1548 1.386 . S
C1549 C1553 1.393 . S
C1550 H1542 0.950 . S
C1550 C1548 1.391 . S
C1550 C1551 1.400 . S
C1551 C1550 1.400 . S
C1551 C1552 1.398 . S
C1551 C1557 1.491 . S
C1552 H1543 0.950 . S
C1552 C1551 1.398 . S
C1552 C1553 1.391 . S
C1553 H1541 0.950 . S
C1553 C1549 1.393 . S
C1553 C1552 1.391 . S
C1554 H1544 0.950 . S
C1554 C1555 1.386 1_655 S
C1554 C1556 1.391 . S
C1555 C1554 1.386 1_455 S
C1555 C1559 1.393 . S
C1556 H1545 0.950 . S
C1556 C1554 1.391 . S
C1556 C1557 1.400 . S
C1557 C1551 1.491 . S
C1557 C1556 1.400 . S
C1557 C1558 1.398 . S
C1558 H1546 0.950 . S
C1558 C1557 1.398 . S
C1558 C1559 1.391 1_655 S
C1559 H1547 0.950 . S
C1559 C1555 1.393 . S
C1559 C1558 1.391 1_455 S
H1560 C1568 0.950 . S
H1561 C1573 0.950 . S
H1562 C1570 0.950 . S
H1563 C1572 0.950 . S
H1564 C1574 0.950 . S
H1565 C1576 0.950 . S
H1566 C1578 0.950 . S
H1567 C1579 0.950 . S
C1568 H1560 0.950 . S
C1568 C1569 1.386 . S
C1568 C1570 1.391 . S
C1569 C1568 1.386 . S
C1569 C1573 1.393 . S
C1570 H1562 0.950 . S
C1570 C1568 1.391 . S
C1570 C1571 1.400 . S
C1571 C1570 1.400 . S
C1571 C1572 1.398 . S
C1571 C1577 1.491 . S
C1572 H1563 0.950 . S
C1572 C1571 1.398 . S
C1572 C1573 1.391 . S
C1573 H1561 0.950 . S
C1573 C1569 1.393 . S
C1573 C1572 1.391 . S
C1574 H1564 0.950 . S
C1574 C1575 1.386 . S
C1574 C1576 1.391 . S
C1575 C1574 1.386 . S
C1575 C1579 1.393 . S
C1576 H1565 0.950 . S
C1576 C1574 1.391 . S
C1576 C1577 1.400 . S
C1577 C1571 1.491 . S
C1577 C1576 1.400 . S
C1577 C1578 1.398 . S
C1578 H1566 0.950 . S
C1578 C1577 1.398 . S
C1578 C1579 1.391 . S
C1579 H1567 0.950 . S
C1579 C1575 1.393 . S
C1579 C1578 1.391 . S
H1580 C1588 0.950 . S
H1581 C1593 0.950 . S
H1582 C1590 0.950 . S
H1583 C1592 0.950 . S
H1584 C1594 0.950 . S
H1585 C1596 0.950 . S
H1586 C1598 0.950 . S
H1587 C1599 0.950 . S
C1588 H1580 0.950 . S
C1588 C1589 1.386 . S
C1588 C1590 1.391 . S
C1589 C1588 1.386 . S
C1589 C1593 1.393 . S
C1590 H1582 0.950 . S
C1590 C1588 1.391 . S
C1590 C1591 1.400 . S
C1591 C1590 1.400 . S
C1591 C1592 1.398 . S
C1591 C1597 1.491 . S
C1592 H1583 0.950 . S
C1592 C1591 1.398 . S
C1592 C1593 1.391 . S
C1593 H1581 0.950 . S
C1593 C1589 1.393 . S
C1593 C1592 1.391 . S
C1594 H1584 0.950 . S
C1594 C1595 1.386 . S
C1594 C1596 1.391 . S
C1595 C1594 1.386 . S
C1595 C1599 1.393 1_565 S
C1596 H1585 0.950 . S
C1596 C1594 1.391 . S
C1596 C1597 1.400 1_565 S
C1597 C1591 1.491 . S
C1597 C1596 1.400 1_545 S
C1597 C1598 1.398 . S
C1598 H1586 0.950 . S
C1598 C1597 1.398 . S
C1598 C1599 1.391 . S
C1599 H1587 0.950 . S
C1599 C1595 1.393 1_545 S
C1599 C1598 1.391 . S
H1600 C1608 0.950 . S
H1601 C1613 0.950 . S
H1602 C1610 0.950 . S
H1603 C1612 0.950 . S
H1604 C1614 0.950 . S
H1605 C1616 0.950 . S
H1606 C1618 0.950 . S
H1607 C1619 0.950 . S
C1608 H1600 0.950 . S
C1608 C1609 1.386 . S
C1608 C1610 1.391 . S
C1609 C1608 1.386 . S
C1609 C1613 1.393 . S
C1610 H1602 0.950 . S
C1610 C1608 1.391 . S
C1610 C1611 1.400 . S
C1611 C1610 1.400 . S
C1611 C1612 1.398 . S
C1611 C1617 1.491 . S
C1612 H1603 0.950 . S
C1612 C1611 1.398 . S
C1612 C1613 1.391 . S
C1613 H1601 0.950 . S
C1613 C1609 1.393 . S
C1613 C1612 1.391 . S
C1614 H1604 0.950 . S
C1614 C1615 1.386 1_655 S
C1614 C1616 1.391 . S
C1615 C1614 1.386 1_455 S
C1615 C1619 1.393 . S
C1616 H1605 0.950 . S
C1616 C1614 1.391 . S
C1616 C1617 1.400 . S
C1617 C1611 1.491 . S
C1617 C1616 1.400 . S
C1617 C1618 1.398 1_655 S
C1618 H1606 0.950 . S
C1618 C1617 1.398 1_455 S
C1618 C1619 1.391 . S
C1619 H1607 0.950 . S
C1619 C1615 1.393 . S
C1619 C1618 1.391 . S
H1620 C1628 0.950 . S
H1621 C1633 0.950 . S
H1622 C1630 0.950 . S
H1623 C1632 0.950 . S
H1624 C1634 0.950 . S
H1625 C1636 0.950 . S
H1626 C1638 0.950 . S
H1627 C1639 0.950 . S
C1628 H1620 0.950 . S
C1628 C1629 1.386 . S
C1628 C1630 1.391 . S
C1629 C1628 1.386 . S
C1629 C1633 1.393 . S
C1630 H1622 0.950 . S
C1630 C1628 1.391 . S
C1630 C1631 1.400 . S
C1631 C1630 1.400 . S
C1631 C1632 1.398 . S
C1631 C1637 1.491 . S
C1632 H1623 0.950 . S
C1632 C1631 1.398 . S
C1632 C1633 1.391 . S
C1633 H1621 0.950 . S
C1633 C1629 1.393 . S
C1633 C1632 1.391 . S
C1634 H1624 0.950 . S
C1634 C1635 1.386 . S
C1634 C1636 1.391 . S
C1635 C1634 1.386 . S
C1635 C1639 1.393 . S
C1636 H1625 0.950 . S
C1636 C1634 1.391 . S
C1636 C1637 1.400 . S
C1637 C1631 1.491 . S
C1637 C1636 1.400 . S
C1637 C1638 1.398 . S
C1638 H1626 0.950 . S
C1638 C1637 1.398 . S
C1638 C1639 1.391 . S
C1639 H1627 0.950 . S
C1639 C1635 1.393 . S
C1639 C1638 1.391 . S
H1640 C1648 0.950 . S
H1641 C1653 0.950 . S
H1642 C1650 0.950 . S
H1643 C1652 0.950 . S
H1644 C1654 0.950 . S
H1645 C1656 0.950 . S
H1646 C1658 0.950 . S
H1647 C1659 0.950 . S
C1648 H1640 0.950 . S
C1648 C1649 1.386 . S
C1648 C1650 1.391 . S
C1649 C1648 1.386 . S
C1649 C1653 1.393 1_545 S
C1650 H1642 0.950 . S
C1650 C1648 1.391 . S
C1650 C1651 1.400 1_545 S
C1651 C1650 1.400 1_565 S
C1651 C1652 1.398 . S
C1651 C1657 1.491 . S
C1652 H1643 0.950 . S
C1652 C1651 1.398 . S
C1652 C1653 1.391 . S
C1653 H1641 0.950 . S
C1653 C1649 1.393 1_565 S
C1653 C1652 1.391 . S
C1654 H1644 0.950 . S
C1654 C1655 1.386 . S
C1654 C1656 1.391 . S
C1655 C1654 1.386 . S
C1655 C1659 1.393 . S
C1656 H1645 0.950 . S
C1656 C1654 1.391 . S
C1656 C1657 1.400 . S
C1657 C1651 1.491 . S
C1657 C1656 1.400 . S
C1657 C1658 1.398 . S
C1658 H1646 0.950 . S
C1658 C1657 1.398 . S
C1658 C1659 1.391 . S
C1659 H1647 0.950 . S
C1659 C1655 1.393 . S
C1659 C1658 1.391 . S
H1660 C1668 0.950 . S
H1661 C1673 0.950 . S
H1662 C1670 0.950 . S
H1663 C1672 0.950 . S
H1664 C1674 0.950 . S
H1665 C1676 0.950 . S
H1666 C1678 0.950 . S
H1667 C1679 0.950 . S
C1668 H1660 0.950 . S
C1668 C1669 1.386 1_455 S
C1668 C1670 1.391 . S
C1669 C1668 1.386 1_655 S
C1669 C1673 1.393 . S
C1670 H1662 0.950 . S
C1670 C1668 1.391 . S
C1670 C1671 1.400 . S
C1671 C1670 1.400 . S
C1671 C1672 1.398 1_455 S
C1671 C1677 1.491 . S
C1672 H1663 0.950 . S
C1672 C1671 1.398 1_655 S
C1672 C1673 1.391 . S
C1673 H1661 0.950 . S
C1673 C1669 1.393 . S
C1673 C1672 1.391 . S
C1674 H1664 0.950 . S
C1674 C1675 1.386 . S
C1674 C1676 1.391 . S
C1675 C1674 1.386 . S
C1675 C1679 1.393 . S
C1676 H1665 0.950 . S
C1676 C1674 1.391 . S
C1676 C1677 1.400 . S
C1677 C1671 1.491 . S
C1677 C1676 1.400 . S
C1677 C1678 1.398 . S
C1678 H1666 0.950 . S
C1678 C1677 1.398 . S
C1678 C1679 1.391 . S
C1679 H1667 0.950 . S
C1679 C1675 1.393 . S
C1679 C1678 1.391 . S
H1680 C1688 0.950 . S
H1681 C1693 0.950 . S
H1682 C1690 0.950 . S
H1683 C1692 0.950 . S
H1684 C1694 0.950 . S
H1685 C1696 0.950 . S
H1686 C1698 0.950 . S
H1687 C1699 0.950 . S
C1688 H1680 0.950 . S
C1688 C1689 1.386 . S
C1688 C1690 1.391 . S
C1689 C1688 1.386 . S
C1689 C1693 1.393 . S
C1690 H1682 0.950 . S
C1690 C1688 1.391 . S
C1690 C1691 1.400 . S
C1691 C1690 1.400 . S
C1691 C1692 1.398 . S
C1691 C1697 1.491 1_655 S
C1692 H1683 0.950 . S
C1692 C1691 1.398 . S
C1692 C1693 1.391 . S
C1693 H1681 0.950 . S
C1693 C1689 1.393 . S
C1693 C1692 1.391 . S
C1694 H1684 0.950 . S
C1694 C1695 1.386 . S
C1694 C1696 1.391 . S
C1695 C1694 1.386 . S
C1695 C1699 1.393 . S
C1696 H1685 0.950 . S
C1696 C1694 1.391 . S
C1696 C1697 1.400 . S
C1697 C1691 1.491 1_455 S
C1697 C1696 1.400 . S
C1697 C1698 1.398 . S
C1698 H1686 0.950 . S
C1698 C1697 1.398 . S
C1698 C1699 1.391 . S
C1699 H1687 0.950 . S
C1699 C1695 1.393 . S
C1699 C1698 1.391 . S
H1700 C1708 0.950 . S
H1701 C1713 0.950 . S
H1702 C1710 0.950 . S
H1703 C1712 0.950 . S
H1704 C1714 0.950 . S
H1705 C1716 0.950 . S
H1706 C1718 0.950 . S
H1707 C1719 0.950 . S
C1708 H1700 0.950 . S
C1708 C1709 1.386 . S
C1708 C1710 1.391 . S
C1709 C1708 1.386 . S
C1709 C1713 1.393 . S
C1710 H1702 0.950 . S
C1710 C1708 1.391 . S
C1710 C1711 1.400 . S
C1711 C1710 1.400 . S
C1711 C1712 1.398 . S
C1711 C1717 1.491 . S
C1712 H1703 0.950 . S
C1712 C1711 1.398 . S
C1712 C1713 1.391 . S
C1713 H1701 0.950 . S
C1713 C1709 1.393 . S
C1713 C1712 1.391 . S
C1714 H1704 0.950 . S
C1714 C1715 1.386 . S
C1714 C1716 1.391 . S
C1715 C1714 1.386 . S
C1715 C1719 1.393 . S
C1716 H1705 0.950 . S
C1716 C1714 1.391 . S
C1716 C1717 1.400 . S
C1717 C1711 1.491 . S
C1717 C1716 1.400 . S
C1717 C1718 1.398 . S
C1718 H1706 0.950 . S
C1718 C1717 1.398 . S
C1718 C1719 1.391 . S
C1719 H1707 0.950 . S
C1719 C1715 1.393 . S
C1719 C1718 1.391 . S
H1720 C1728 0.950 . S
H1721 C1733 0.950 . S
H1722 C1730 0.950 . S
H1723 C1732 0.950 . S
H1724 C1734 0.950 . S
H1725 C1736 0.957 . S
H1726 C1738 0.950 . S
H1727 C1739 0.950 . S
C1728 H1720 0.950 . S
C1728 C1729 1.386 . S
C1728 C1730 1.391 . S
C1729 C1728 1.386 . S
C1729 C1733 1.393 . S
C1730 H1722 0.950 . S
C1730 C1728 1.391 . S
C1730 C1731 1.400 . S
C1731 C1730 1.400 . S
C1731 C1732 1.398 . S
C1731 C1737 1.491 1_565 S
C1732 H1723 0.950 . S
C1732 C1731 1.398 . S
C1732 C1733 1.391 . S
C1733 H1721 0.950 . S
C1733 C1729 1.393 . S
C1733 C1732 1.391 . S
C1734 H1724 0.950 . S
C1734 C1735 1.386 . S
C1734 C1736 1.391 . S
C1735 C1734 1.386 . S
C1735 C1739 1.393 . S
C1736 H1725 0.957 . S
C1736 C1734 1.391 . S
C1736 C1737 1.400 . S
C1737 C1731 1.491 1_545 S
C1737 C1736 1.400 . S
C1737 C1738 1.398 . S
C1738 H1726 0.950 . S
C1738 C1737 1.398 . S
C1738 C1739 1.391 . S
C1739 H1727 0.950 . S
C1739 C1735 1.393 . S
C1739 C1738 1.391 . S
H1740 C1748 0.950 . S
H1741 C1753 0.950 . S
H1742 C1750 0.950 . S
H1743 C1752 0.950 . S
H1744 C1754 0.950 . S
H1745 C1756 0.950 1_655 S
H1746 C1758 0.950 . S
H1747 C1759 0.950 . S
C1748 H1740 0.950 . S
C1748 C1749 1.386 . S
C1748 C1750 1.391 . S
C1749 C1748 1.386 . S
C1749 C1753 1.393 . S
C1750 H1742 0.950 . S
C1750 C1748 1.391 . S
C1750 C1751 1.400 . S
C1751 C1750 1.400 . S
C1751 C1752 1.398 . S
C1751 C1757 1.491 . S
C1752 H1743 0.950 . S
C1752 C1751 1.398 . S
C1752 C1753 1.391 . S
C1753 H1741 0.950 . S
C1753 C1749 1.393 . S
C1753 C1752 1.391 . S
C1754 H1744 0.950 . S
C1754 C1755 1.386 1_655 S
C1754 C1756 1.391 1_655 S
C1755 C1754 1.386 1_455 S
C1755 C1759 1.393 . S
C1756 H1745 0.950 1_455 S
C1756 C1754 1.391 1_455 S
C1756 C1757 1.400 . S
C1757 C1751 1.491 . S
C1757 C1756 1.400 . S
C1757 C1758 1.398 . S
C1758 H1746 0.950 . S
C1758 C1757 1.398 . S
C1758 C1759 1.391 . S
C1759 H1747 0.950 . S
C1759 C1755 1.393 . S
C1759 C1758 1.391 . S
H1760 C1768 0.950 . S
H1761 C1773 0.950 . S
H1762 C1770 0.950 . S
H1763 C1772 0.950 . S
H1764 C1774 0.950 . S
H1765 C1776 0.950 . S
H1766 C1778 0.950 . S
H1767 C1779 0.950 . S
C1768 H1760 0.950 . S
C1768 C1769 1.386 . S
C1768 C1770 1.391 . S
C1769 C1768 1.386 . S
C1769 C1773 1.393 . S
C1770 H1762 0.950 . S
C1770 C1768 1.391 . S
C1770 C1771 1.400 . S
C1771 C1770 1.400 . S
C1771 C1772 1.398 . S
C1771 C1777 1.491 . S
C1772 H1763 0.950 . S
C1772 C1771 1.398 . S
C1772 C1773 1.391 . S
C1773 H1761 0.950 . S
C1773 C1769 1.393 . S
C1773 C1772 1.391 . S
C1774 H1764 0.950 . S
C1774 C1775 1.386 . S
C1774 C1776 1.391 . S
C1775 C1774 1.386 . S
C1775 C1779 1.393 . S
C1776 H1765 0.950 . S
C1776 C1774 1.391 . S
C1776 C1777 1.400 . S
C1777 C1771 1.491 . S
C1777 C1776 1.400 . S
C1777 C1778 1.398 . S
C1778 H1766 0.950 . S
C1778 C1777 1.398 . S
C1778 C1779 1.391 . S
C1779 H1767 0.950 . S
C1779 C1775 1.393 . S
C1779 C1778 1.391 . S
H1780 C1788 0.950 . S
H1781 C1793 0.950 . S
H1782 C1790 0.950 . S
H1783 C1792 0.950 . S
H1784 C1794 0.950 1_545 S
H1785 C1796 0.950 . S
H1786 C1798 0.950 . S
H1787 C1799 0.950 . S
C1788 H1780 0.950 . S
C1788 C1789 1.386 . S
C1788 C1790 1.391 . S
C1789 C1788 1.386 . S
C1789 C1793 1.393 . S
C1790 H1782 0.950 . S
C1790 C1788 1.391 . S
C1790 C1791 1.400 . S
C1791 C1790 1.400 . S
C1791 C1792 1.398 . S
C1791 C1797 1.491 . S
C1792 H1783 0.950 . S
C1792 C1791 1.398 . S
C1792 C1793 1.391 . S
C1793 H1781 0.950 . S
C1793 C1789 1.393 . S
C1793 C1792 1.391 . S
C1794 H1784 0.950 1_565 S
C1794 C1795 1.386 . S
C1794 C1796 1.391 . S
C1795 C1794 1.386 . S
C1795 C1799 1.393 . S
C1796 H1785 0.950 . S
C1796 C1794 1.391 . S
C1796 C1797 1.400 . S
C1797 C1791 1.491 . S
C1797 C1796 1.400 . S
C1797 C1798 1.398 . S
C1798 H1786 0.950 . S
C1798 C1797 1.398 . S
C1798 C1799 1.391 . S
C1799 H1787 0.950 . S
C1799 C1795 1.393 . S
C1799 C1798 1.391 . S
H1800 C1808 0.950 . S
H1801 C1813 0.950 . S
H1802 C1810 0.950 . S
H1803 C1812 0.950 . S
H1804 C1814 0.950 . S
H1805 C1816 0.950 1_545 S
H1806 C1818 0.950 . S
H1807 C1819 0.950 . S
C1808 H1800 0.950 . S
C1808 C1809 1.386 . S
C1808 C1810 1.391 . S
C1809 C1808 1.386 . S
C1809 C1813 1.393 . S
C1810 H1802 0.950 . S
C1810 C1808 1.391 . S
C1810 C1811 1.400 . S
C1811 C1810 1.400 . S
C1811 C1812 1.398 . S
C1811 C1817 1.491 . S
C1812 H1803 0.950 . S
C1812 C1811 1.398 . S
C1812 C1813 1.391 . S
C1813 H1801 0.950 . S
C1813 C1809 1.393 . S
C1813 C1812 1.391 . S
C1814 H1804 0.950 . S
C1814 C1815 1.386 1_545 S
C1814 C1816 1.391 1_545 S
C1815 C1814 1.386 1_565 S
C1815 C1819 1.393 . S
C1816 H1805 0.950 1_565 S
C1816 C1814 1.391 1_565 S
C1816 C1817 1.400 . S
C1817 C1811 1.491 . S
C1817 C1816 1.400 . S
C1817 C1818 1.398 . S
C1818 H1806 0.950 . S
C1818 C1817 1.398 . S
C1818 C1819 1.391 . S
C1819 H1807 0.950 . S
C1819 C1815 1.393 . S
C1819 C1818 1.391 . S
H1820 C1828 0.950 . S
H1821 C1833 0.950 . S
H1822 C1830 0.950 . S
H1823 C1832 0.950 1_655 S
H1824 C1834 0.950 . S
H1825 C1836 0.950 . S
H1826 C1838 0.950 . S
H1827 C1839 0.950 . S
C1828 H1820 0.950 . S
C1828 C1829 1.386 . S
C1828 C1830 1.391 . S
C1829 C1828 1.386 . S
C1829 C1833 1.393 1_455 S
C1830 H1822 0.950 . S
C1830 C1828 1.391 . S
C1830 C1831 1.400 . S
C1831 C1830 1.400 . S
C1831 C1832 1.398 . S
C1831 C1837 1.491 . S
C1832 H1823 0.950 1_455 S
C1832 C1831 1.398 . S
C1832 C1833 1.391 1_455 S
C1833 H1821 0.950 . S
C1833 C1829 1.393 1_655 S
C1833 C1832 1.391 1_655 S
C1834 H1824 0.950 . S
C1834 C1835 1.386 . S
C1834 C1836 1.391 . S
C1835 C1834 1.386 . S
C1835 C1839 1.393 . S
C1836 H1825 0.950 . S
C1836 C1834 1.391 . S
C1836 C1837 1.400 . S
C1837 C1831 1.491 . S
C1837 C1836 1.400 . S
C1837 C1838 1.398 . S
C1838 H1826 0.950 . S
C1838 C1837 1.398 . S
C1838 C1839 1.391 . S
C1839 H1827 0.950 . S
C1839 C1835 1.393 . S
C1839 C1838 1.391 . S
H1840 C1848 0.950 . S
H1841 C1853 0.950 . S
H1842 C1850 0.950 . S
H1843 C1852 0.950 . S
H1844 C1854 0.950 . S
H1845 C1856 0.950 . S
H1846 C1858 0.950 . S
H1847 C1859 0.950 . S
C1848 H1840 0.950 . S
C1848 C1849 1.386 . S
C1848 C1850 1.391 . S
C1849 C1848 1.386 . S
C1849 C1853 1.393 . S
C1850 H1842 0.950 . S
C1850 C1848 1.391 . S
C1850 C1851 1.400 . S
C1851 C1850 1.400 . S
C1851 C1852 1.398 . S
C1851 C1857 1.491 . S
C1852 H1843 0.950 . S
C1852 C1851 1.398 . S
C1852 C1853 1.391 . S
C1853 H1841 0.950 . S
C1853 C1849 1.393 . S
C1853 C1852 1.391 . S
C1854 H1844 0.950 . S
C1854 C1855 1.386 . S
C1854 C1856 1.391 . S
C1855 C1854 1.386 . S
C1855 C1859 1.393 . S
C1856 H1845 0.950 . S
C1856 C1854 1.391 . S
C1856 C1857 1.400 . S
C1857 C1851 1.491 . S
C1857 C1856 1.400 . S
C1857 C1858 1.398 . S
C1858 H1846 0.950 . S
C1858 C1857 1.398 . S
C1858 C1859 1.391 . S
C1859 H1847 0.950 . S
C1859 C1855 1.393 . S
C1859 C1858 1.391 . S
H1860 C1868 0.950 . S
H1861 C1873 0.950 . S
H1862 C1870 0.950 . S
H1863 C1872 0.950 . S
H1864 C1874 0.950 . S
H1865 C1876 0.950 . S
H1866 C1878 0.950 . S
H1867 C1879 0.950 . S
C1868 H1860 0.950 . S
C1868 C1869 1.386 1_556 S
C1868 C1870 1.391 . S
C1869 C1868 1.386 1_554 S
C1869 C1873 1.393 . S
C1870 H1862 0.950 . S
C1870 C1868 1.391 . S
C1870 C1871 1.345 1_556 S
C1871 C1870 1.345 1_554 S
C1871 C1872 1.461 . S
C1871 C1877 1.485 1_564 S
C1872 H1863 0.950 . S
C1872 C1871 1.461 . S
C1872 C1873 1.391 . S
C1873 H1861 0.950 . S
C1873 C1869 1.393 . S
C1873 C1872 1.391 . S
C1874 H1864 0.950 . S
C1874 C1875 1.386 1_554 S
C1874 C1876 1.391 . S
C1875 C1874 1.386 1_556 S
C1875 C1879 1.393 . S
C1876 H1865 0.950 . S
C1876 C1874 1.391 . S
C1876 C1877 1.366 1_554 S
C1877 C1871 1.485 1_546 S
C1877 C1876 1.366 1_556 S
C1877 C1878 1.437 . S
C1878 H1866 0.950 . S
C1878 C1877 1.437 . S
C1878 C1879 1.391 . S
C1879 H1867 0.950 . S
C1879 C1875 1.393 . S
C1879 C1878 1.391 . S
H1880 C1888 0.950 . S
H1881 C1893 0.950 . S
H1882 C1890 0.950 . S
H1883 C1892 0.950 . S
H1884 C1894 0.950 . S
H1885 C1896 0.950 . S
H1886 C1898 0.950 . S
H1887 C1899 0.950 . S
C1888 H1880 0.950 . S
C1888 C1889 1.386 1_556 S
C1888 C1890 1.391 . S
C1889 C1888 1.386 1_554 S
C1889 C1893 1.393 . S
C1890 H1882 0.950 . S
C1890 C1888 1.391 . S
C1890 C1891 1.377 1_556 S
C1891 C1890 1.377 1_554 S
C1891 C1892 1.425 . S
C1891 C1897 1.489 1_454 S
C1892 H1883 0.950 . S
C1892 C1891 1.425 . S
C1892 C1893 1.391 . S
C1893 H1881 0.950 . S
C1893 C1889 1.393 . S
C1893 C1892 1.391 . S
C1894 H1884 0.950 . S
C1894 C1895 1.386 1_554 S
C1894 C1896 1.391 . S
C1895 C1894 1.386 1_556 S
C1895 C1899 1.393 . S
C1896 H1885 0.950 . S
C1896 C1894 1.391 . S
C1896 C1897 1.390 1_554 S
C1897 C1891 1.489 1_656 S
C1897 C1896 1.390 1_556 S
C1897 C1898 1.409 . S
C1898 H1886 0.950 . S
C1898 C1897 1.409 . S
C1898 C1899 1.391 . S
C1899 H1887 0.950 . S
C1899 C1895 1.393 . S
C1899 C1898 1.391 . S
H1900 C1908 0.950 . S
H1901 C1913 0.950 . S
H1902 C1910 0.950 . S
H1903 C1912 0.950 . S
H1904 C1914 0.950 . S
H1905 C1916 0.950 . S
H1906 C1918 0.950 . S
H1907 C1919 0.950 . S
C1908 H1900 0.950 . S
C1908 C1909 1.386 . S
C1908 C1910 1.391 . S
C1909 C1908 1.386 . S
C1909 C1913 1.393 1_556 S
C1910 H1902 0.950 . S
C1910 C1908 1.391 . S
C1910 C1911 1.444 . S
C1911 C1910 1.444 . S
C1911 C1912 1.364 1_556 S
C1911 C1917 1.483 1_556 S
C1912 H1903 0.950 . S
C1912 C1911 1.364 1_554 S
C1912 C1913 1.391 . S
C1913 H1901 0.950 . S
C1913 C1909 1.393 1_554 S
C1913 C1912 1.391 . S
C1914 H1904 0.950 . S
C1914 C1915 1.386 . S
C1914 C1916 1.391 . S
C1915 C1914 1.386 . S
C1915 C1919 1.393 1_554 S
C1916 H1905 0.950 . S
C1916 C1914 1.391 . S
C1916 C1917 1.442 . S
C1917 C1911 1.483 1_554 S
C1917 C1916 1.442 . S
C1917 C1918 1.366 1_554 S
C1918 H1906 0.950 . S
C1918 C1917 1.366 1_556 S
C1918 C1919 1.391 . S
C1919 H1907 0.950 . S
C1919 C1915 1.393 1_556 S
C1919 C1918 1.391 . S
H1920 C1928 0.950 . S
H1921 C1933 0.950 . S
H1922 C1930 0.950 . S
H1923 C1932 0.950 . S
H1924 C1934 0.971 . S
H1925 C1936 0.950 . S
H1926 C1938 0.950 . S
H1927 C1939 0.950 . S
C1928 H1920 0.950 . S
C1928 C1929 1.386 . S
C1928 C1930 1.391 . S
C1929 C1928 1.386 . S
C1929 C1933 1.393 . S
C1930 H1922 0.950 . S
C1930 C1928 1.391 . S
C1930 C1931 1.400 . S
C1931 C1930 1.400 . S
C1931 C1932 1.398 . S
C1931 C1937 1.491 . S
C1932 H1923 0.950 . S
C1932 C1931 1.398 . S
C1932 C1933 1.391 . S
C1933 H1921 0.950 . S
C1933 C1929 1.393 . S
C1933 C1932 1.391 . S
C1934 H1924 0.971 . S
C1934 C1935 1.363 1_565 S
C1934 C1936 1.394 1_565 S
C1935 C1934 1.363 1_545 S
C1935 C1939 1.393 . S
C1936 H1925 0.950 . S
C1936 C1934 1.394 1_545 S
C1936 C1937 1.400 . S
C1937 C1931 1.491 . S
C1937 C1936 1.400 . S
C1937 C1938 1.398 . S
C1938 H1926 0.950 . S
C1938 C1937 1.398 . S
C1938 C1939 1.391 . S
C1939 H1927 0.950 . S
C1939 C1935 1.393 . S
C1939 C1938 1.391 . S
H1940 C1948 0.950 . S
H1941 C1953 0.950 . S
H1942 C1950 0.950 . S
H1943 C1952 0.950 . S
H1944 C1954 0.950 . S
H1945 C1956 0.950 . S
H1946 C1958 0.950 . S
H1947 C1959 0.950 1_455 S
C1948 H1940 0.950 . S
C1948 C1949 1.386 . S
C1948 C1950 1.391 . S
C1949 C1948 1.386 . S
C1949 C1953 1.393 . S
C1950 H1942 0.950 . S
C1950 C1948 1.391 . S
C1950 C1951 1.400 . S
C1951 C1950 1.400 . S
C1951 C1952 1.398 . S
C1951 C1957 1.491 . S
C1952 H1943 0.950 . S
C1952 C1951 1.398 . S
C1952 C1953 1.391 . S
C1953 H1941 0.950 . S
C1953 C1949 1.393 . S
C1953 C1952 1.391 . S
C1954 H1944 0.950 . S
C1954 C1955 1.386 . S
C1954 C1956 1.391 . S
C1955 C1954 1.386 . S
C1955 C1959 1.393 . S
C1956 H1945 0.950 . S
C1956 C1954 1.391 . S
C1956 C1957 1.400 . S
C1957 C1951 1.491 . S
C1957 C1956 1.400 . S
C1957 C1958 1.398 . S
C1958 H1946 0.950 . S
C1958 C1957 1.398 . S
C1958 C1959 1.391 . S
C1959 H1947 0.950 1_655 S
C1959 C1955 1.393 . S
C1959 C1958 1.391 . S
H1960 C1968 0.950 . S
H1961 C1973 0.950 . S
H1962 C1970 0.950 . S
H1963 C1972 0.950 . S
H1964 C1974 0.950 . S
H1965 C1976 0.950 . S
H1966 C1978 0.950 . S
H1967 C1979 0.950 . S
C1968 H1960 0.950 . S
C1968 C1969 1.386 . S
C1968 C1970 1.391 . S
C1969 C1968 1.386 . S
C1969 C1973 1.393 . S
C1970 H1962 0.950 . S
C1970 C1968 1.391 . S
C1970 C1971 1.400 . S
C1971 C1970 1.400 . S
C1971 C1972 1.398 . S
C1971 C1977 1.491 . S
C1972 H1963 0.950 . S
C1972 C1971 1.398 . S
C1972 C1973 1.391 . S
C1973 H1961 0.950 . S
C1973 C1969 1.393 . S
C1973 C1972 1.391 . S
C1974 H1964 0.950 . S
C1974 C1975 1.386 . S
C1974 C1976 1.391 . S
C1975 C1974 1.386 . S
C1975 C1979 1.393 . S
C1976 H1965 0.950 . S
C1976 C1974 1.391 . S
C1976 C1977 1.400 . S
C1977 C1971 1.491 . S
C1977 C1976 1.400 . S
C1977 C1978 1.398 . S
C1978 H1966 0.950 . S
C1978 C1977 1.398 . S
C1978 C1979 1.391 . S
C1979 H1967 0.950 . S
C1979 C1975 1.393 . S
C1979 C1978 1.391 . S
H1980 C1988 0.950 . S
H1981 C1993 0.950 . S
H1982 C1990 0.950 . S
H1983 C1992 0.950 . S
H1984 C1994 0.950 . S
H1985 C1996 0.950 . S
H1986 C1998 0.950 . S
H1987 C1999 0.950 . S
C1988 H1980 0.950 . S
C1988 C1989 1.386 1_556 S
C1988 C1990 1.391 . S
C1989 C1988 1.386 1_554 S
C1989 C1993 1.393 . S
C1990 H1982 0.950 . S
C1990 C1988 1.391 . S
C1990 C1991 1.400 1_556 S
C1991 C1990 1.400 1_554 S
C1991 C1992 1.398 . S
C1991 C1997 1.491 1_564 S
C1992 H1983 0.950 . S
C1992 C1991 1.398 . S
C1992 C1993 1.391 . S
C1993 H1981 0.950 . S
C1993 C1989 1.393 . S
C1993 C1992 1.391 . S
C1994 H1984 0.950 . S
C1994 C1995 1.386 1_554 S
C1994 C1996 1.391 . S
C1995 C1994 1.386 1_556 S
C1995 C1999 1.393 . S
C1996 H1985 0.950 . S
C1996 C1994 1.391 . S
C1996 C1997 1.400 1_554 S
C1997 C1991 1.491 1_546 S
C1997 C1996 1.400 1_556 S
C1997 C1998 1.398 . S
C1998 H1986 0.950 . S
C1998 C1997 1.398 . S
C1998 C1999 1.391 . S
C1999 H1987 0.950 . S
C1999 C1995 1.393 . S
C1999 C1998 1.391 . S
H2000 C2008 0.950 . S
H2001 C2013 0.950 . S
H2002 C2010 0.950 . S
H2003 C2012 0.950 . S
H2004 C2014 0.950 . S
H2005 C2016 0.950 . S
H2006 C2018 0.950 . S
H2007 C2019 0.950 . S
C2008 H2000 0.950 . S
C2008 C2009 1.386 1_554 S
C2008 C2010 1.391 . S
C2009 C2008 1.386 1_556 S
C2009 C2013 1.393 . S
C2010 H2002 0.950 . S
C2010 C2008 1.391 . S
C2010 C2011 1.371 1_554 S
C2011 C2010 1.371 1_556 S
C2011 C2012 1.432 . S
C2011 C2017 1.488 1_656 S
C2012 H2003 0.950 . S
C2012 C2011 1.432 . S
C2012 C2013 1.391 . S
C2013 H2001 0.950 . S
C2013 C2009 1.393 . S
C2013 C2012 1.391 . S
C2014 H2004 0.950 . S
C2014 C2015 1.386 1_556 S
C2014 C2016 1.391 . S
C2015 C2014 1.386 1_554 S
C2015 C2019 1.393 . S
C2016 H2005 0.950 . S
C2016 C2014 1.391 . S
C2016 C2017 1.387 1_556 S
C2017 C2011 1.488 1_454 S
C2017 C2016 1.387 1_554 S
C2017 C2018 1.413 . S
C2018 H2006 0.950 . S
C2018 C2017 1.413 . S
C2018 C2019 1.391 . S
C2019 H2007 0.950 . S
C2019 C2015 1.393 . S
C2019 C2018 1.391 . S
H2020 C2028 0.950 . S
H2021 C2033 0.953 . S
H2022 C2030 0.950 . S
H2023 C2032 0.949 1_556 S
H2024 C2034 0.950 . S
H2025 C2036 0.950 . S
H2026 C2038 0.949 1_554 S
H2027 C2039 0.952 . S
C2028 H2020 0.950 . S
C2028 C2029 1.386 . S
C2028 C2030 1.391 . S
C2029 C2028 1.386 . S
C2029 C2033 1.393 . S
C2030 H2022 0.950 . S
C2030 C2028 1.391 . S
C2030 C2031 1.400 . S
C2031 C2030 1.400 . S
C2031 C2032 1.399 . S
C2031 C2037 1.491 1_554 S
C2032 H2023 0.949 1_554 S
C2032 C2031 1.399 . S
C2032 C2033 1.392 . S
C2033 H2021 0.953 . S
C2033 C2029 1.393 . S
C2033 C2032 1.392 . S
C2034 H2024 0.950 . S
C2034 C2035 1.386 . S
C2034 C2036 1.391 . S
C2035 C2034 1.386 . S
C2035 C2039 1.393 . S
C2036 H2025 0.950 . S
C2036 C2034 1.391 . S
C2036 C2037 1.400 . S
C2037 C2031 1.491 1_556 S
C2037 C2036 1.400 . S
C2037 C2038 1.399 . S
C2038 H2026 0.949 1_556 S
C2038 C2037 1.399 . S
C2038 C2039 1.391 . S
C2039 H2027 0.952 . S
C2039 C2035 1.393 . S
C2039 C2038 1.391 . S
H2040 C2048 0.950 . S
H2041 C2053 0.950 . S
H2042 C2050 0.950 . S
H2043 C2052 0.950 . S
H2044 C2054 0.950 . S
H2045 C2056 0.950 . S
H2046 C2058 0.950 . S
H2047 C2059 0.950 . S
C2048 H2040 0.950 . S
C2048 C2049 1.386 . S
C2048 C2050 1.391 . S
C2049 C2048 1.386 . S
C2049 C2053 1.393 . S
C2050 H2042 0.950 . S
C2050 C2048 1.391 . S
C2050 C2051 1.400 . S
C2051 C2050 1.400 . S
C2051 C2052 1.398 . S
C2051 C2057 1.491 1_455 S
C2052 H2043 0.950 . S
C2052 C2051 1.398 . S
C2052 C2053 1.391 . S
C2053 H2041 0.950 . S
C2053 C2049 1.393 . S
C2053 C2052 1.391 . S
C2054 H2044 0.950 . S
C2054 C2055 1.386 . S
C2054 C2056 1.391 . S
C2055 C2054 1.386 . S
C2055 C2059 1.393 . S
C2056 H2045 0.950 . S
C2056 C2054 1.391 . S
C2056 C2057 1.400 . S
C2057 C2051 1.491 1_655 S
C2057 C2056 1.400 . S
C2057 C2058 1.398 . S
C2058 H2046 0.950 . S
C2058 C2057 1.398 . S
C2058 C2059 1.391 . S
C2059 H2047 0.950 . S
C2059 C2055 1.393 . S
C2059 C2058 1.391 . S
H2060 C2068 0.950 . S
H2061 C2073 0.950 . S
H2062 C2070 0.950 . S
H2063 C2072 0.950 . S
H2064 C2074 0.950 . S
H2065 C2076 0.950 . S
H2066 C2078 0.950 . S
H2067 C2079 0.950 . S
C2068 H2060 0.950 . S
C2068 C2069 1.386 . S
C2068 C2070 1.391 . S
C2069 C2068 1.386 . S
C2069 C2073 1.393 . S
C2070 H2062 0.950 . S
C2070 C2068 1.391 . S
C2070 C2071 1.400 . S
C2071 C2070 1.400 . S
C2071 C2072 1.398 . S
C2071 C2077 1.491 . S
C2072 H2063 0.950 . S
C2072 C2071 1.398 . S
C2072 C2073 1.391 . S
C2073 H2061 0.950 . S
C2073 C2069 1.393 . S
C2073 C2072 1.391 . S
C2074 H2064 0.950 . S
C2074 C2075 1.386 . S
C2074 C2076 1.391 . S
C2075 C2074 1.386 . S
C2075 C2079 1.393 . S
C2076 H2065 0.950 . S
C2076 C2074 1.391 . S
C2076 C2077 1.400 . S
C2077 C2071 1.491 . S
C2077 C2076 1.400 . S
C2077 C2078 1.398 . S
C2078 H2066 0.950 . S
C2078 C2077 1.398 . S
C2078 C2079 1.391 . S
C2079 H2067 0.950 . S
C2079 C2075 1.393 . S
C2079 C2078 1.391 . S
H2080 C2088 0.950 . S
H2081 C2093 0.950 . S
H2082 C2090 0.950 . S
H2083 C2092 0.950 . S
H2084 C2094 0.950 . S
H2085 C2096 0.950 . S
H2086 C2098 0.950 . S
H2087 C2099 0.950 . S
C2088 H2080 0.950 . S
C2088 C2089 1.386 . S
C2088 C2090 1.391 . S
C2089 C2088 1.386 . S
C2089 C2093 1.393 . S
C2090 H2082 0.950 . S
C2090 C2088 1.391 . S
C2090 C2091 1.400 . S
C2091 C2090 1.400 . S
C2091 C2092 1.398 . S
C2091 C2097 1.491 1_565 S
C2092 H2083 0.950 . S
C2092 C2091 1.398 . S
C2092 C2093 1.391 . S
C2093 H2081 0.950 . S
C2093 C2089 1.393 . S
C2093 C2092 1.391 . S
C2094 H2084 0.950 . S
C2094 C2095 1.386 . S
C2094 C2096 1.391 . S
C2095 C2094 1.386 . S
C2095 C2099 1.393 . S
C2096 H2085 0.950 . S
C2096 C2094 1.391 . S
C2096 C2097 1.400 . S
C2097 C2091 1.491 1_545 S
C2097 C2096 1.400 . S
C2097 C2098 1.398 . S
C2098 H2086 0.950 . S
C2098 C2097 1.398 . S
C2098 C2099 1.391 . S
C2099 H2087 0.950 . S
C2099 C2095 1.393 . S
C2099 C2098 1.391 . S
H2100 C2108 0.950 . S
H2101 C2113 0.950 . S
H2102 C2110 0.950 . S
H2103 C2112 0.950 . S
H2104 C2114 0.950 . S
H2105 C2116 0.950 . S
H2106 C2118 0.950 . S
H2107 C2119 0.950 . S
C2108 H2100 0.950 . S
C2108 C2109 1.386 . S
C2108 C2110 1.391 . S
C2109 C2108 1.386 . S
C2109 C2113 1.393 . S
C2110 H2102 0.950 . S
C2110 C2108 1.391 . S
C2110 C2111 1.400 . S
C2111 C2110 1.400 . S
C2111 C2112 1.398 . S
C2111 C2117 1.491 . S
C2112 H2103 0.950 . S
C2112 C2111 1.398 . S
C2112 C2113 1.391 . S
C2113 H2101 0.950 . S
C2113 C2109 1.393 . S
C2113 C2112 1.391 . S
C2114 H2104 0.950 . S
C2114 C2115 1.386 . S
C2114 C2116 1.391 . S
C2115 C2114 1.386 . S
C2115 C2119 1.393 . S
C2116 H2105 0.950 . S
C2116 C2114 1.391 . S
C2116 C2117 1.400 . S
C2117 C2111 1.491 . S
C2117 C2116 1.400 . S
C2117 C2118 1.398 . S
C2118 H2106 0.950 . S
C2118 C2117 1.398 . S
C2118 C2119 1.391 . S
C2119 H2107 0.950 . S
C2119 C2115 1.393 . S
C2119 C2118 1.391 . S
H2120 C2128 0.950 . S
H2121 C2133 0.950 . S
H2122 C2130 0.950 . S
H2123 C2132 0.950 . S
H2124 C2134 0.950 . S
H2125 C2136 0.950 . S
H2126 C2138 0.950 . S
H2127 C2139 0.950 . S
C2128 H2120 0.950 . S
C2128 C2129 1.386 . S
C2128 C2130 1.391 . S
C2129 C2128 1.386 . S
C2129 C2133 1.393 . S
C2130 H2122 0.950 . S
C2130 C2128 1.391 . S
C2130 C2131 1.400 . S
C2131 C2130 1.400 . S
C2131 C2132 1.398 . S
C2131 C2137 1.491 . S
C2132 H2123 0.950 . S
C2132 C2131 1.398 . S
C2132 C2133 1.391 . S
C2133 H2121 0.950 . S
C2133 C2129 1.393 . S
C2133 C2132 1.391 . S
C2134 H2124 0.950 . S
C2134 C2135 1.386 . S
C2134 C2136 1.391 . S
C2135 C2134 1.386 . S
C2135 C2139 1.393 . S
C2136 H2125 0.950 . S
C2136 C2134 1.391 . S
C2136 C2137 1.400 . S
C2137 C2131 1.491 . S
C2137 C2136 1.400 . S
C2137 C2138 1.398 . S
C2138 H2126 0.950 . S
C2138 C2137 1.398 . S
C2138 C2139 1.391 . S
C2139 H2127 0.950 . S
C2139 C2135 1.393 . S
C2139 C2138 1.391 . S
H2140 C2148 0.950 . S
H2141 C2153 0.950 . S
H2142 C2150 0.950 . S
H2143 C2152 0.950 . S
H2144 C2154 0.968 . S
H2145 C2156 0.950 . S
H2146 C2158 0.950 . S
H2147 C2159 0.950 . S
C2148 H2140 0.950 . S
C2148 C2149 1.386 . S
C2148 C2150 1.391 . S
C2149 C2148 1.386 . S
C2149 C2153 1.393 . S
C2150 H2142 0.950 . S
C2150 C2148 1.391 . S
C2150 C2151 1.400 . S
C2151 C2150 1.400 . S
C2151 C2152 1.398 . S
C2151 C2157 1.491 . S
C2152 H2143 0.950 . S
C2152 C2151 1.398 . S
C2152 C2153 1.391 . S
C2153 H2141 0.950 . S
C2153 C2149 1.393 . S
C2153 C2152 1.391 . S
C2154 H2144 0.968 . S
C2154 C2155 1.386 . S
C2154 C2156 1.391 . S
C2155 C2154 1.386 . S
C2155 C2159 1.393 . S
C2156 H2145 0.950 . S
C2156 C2154 1.391 . S
C2156 C2157 1.400 . S
C2157 C2151 1.491 . S
C2157 C2156 1.400 . S
C2157 C2158 1.398 . S
C2158 H2146 0.950 . S
C2158 C2157 1.398 . S
C2158 C2159 1.391 . S
C2159 H2147 0.950 . S
C2159 C2155 1.393 . S
C2159 C2158 1.391 . S
H2160 C2168 0.950 . S
H2161 C2173 0.950 . S
H2162 C2170 0.950 . S
H2163 C2172 0.950 . S
H2164 C2174 0.950 . S
H2165 C2176 0.950 . S
H2166 C2178 0.950 . S
H2167 C2179 0.950 . S
C2168 H2160 0.950 . S
C2168 C2169 1.386 . S
C2168 C2170 1.391 . S
C2169 C2168 1.386 . S
C2169 C2173 1.393 . S
C2170 H2162 0.950 . S
C2170 C2168 1.391 . S
C2170 C2171 1.400 . S
C2171 C2170 1.400 . S
C2171 C2172 1.398 . S
C2171 C2177 1.491 . S
C2172 H2163 0.950 . S
C2172 C2171 1.398 . S
C2172 C2173 1.391 . S
C2173 H2161 0.950 . S
C2173 C2169 1.393 . S
C2173 C2172 1.391 . S
C2174 H2164 0.950 . S
C2174 C2175 1.386 . S
C2174 C2176 1.391 . S
C2175 C2174 1.386 . S
C2175 C2179 1.393 . S
C2176 H2165 0.950 . S
C2176 C2174 1.391 . S
C2176 C2177 1.400 . S
C2177 C2171 1.491 . S
C2177 C2176 1.400 . S
C2177 C2178 1.398 . S
C2178 H2166 0.950 . S
C2178 C2177 1.398 . S
C2178 C2179 1.391 . S
C2179 H2167 0.950 . S
C2179 C2175 1.393 . S
C2179 C2178 1.391 . S
H2180 C2188 0.950 . S
H2181 C2193 0.950 . S
H2182 C2190 0.950 . S
H2183 C2192 0.950 . S
H2184 C2194 0.950 . S
H2185 C2196 0.950 . S
H2186 C2198 0.950 . S
H2187 C2199 0.950 . S
C2188 H2180 0.950 . S
C2188 C2189 1.386 . S
C2188 C2190 1.391 . S
C2189 C2188 1.386 . S
C2189 C2193 1.393 . S
C2190 H2182 0.950 . S
C2190 C2188 1.391 . S
C2190 C2191 1.400 . S
C2191 C2190 1.400 . S
C2191 C2192 1.398 . S
C2191 C2197 1.491 . S
C2192 H2183 0.950 . S
C2192 C2191 1.398 . S
C2192 C2193 1.391 . S
C2193 H2181 0.950 . S
C2193 C2189 1.393 . S
C2193 C2192 1.391 . S
C2194 H2184 0.950 . S
C2194 C2195 1.386 . S
C2194 C2196 1.391 . S
C2195 C2194 1.386 . S
C2195 C2199 1.393 . S
C2196 H2185 0.950 . S
C2196 C2194 1.391 . S
C2196 C2197 1.400 . S
C2197 C2191 1.491 . S
C2197 C2196 1.400 . S
C2197 C2198 1.398 . S
C2198 H2186 0.950 . S
C2198 C2197 1.398 . S
C2198 C2199 1.391 . S
C2199 H2187 0.950 . S
C2199 C2195 1.393 . S
C2199 C2198 1.391 . S
H2200 C2208 0.950 . S
H2201 C2213 0.950 . S
H2202 C2210 0.950 . S
H2203 C2212 0.950 . S
H2204 C2214 0.950 . S
H2205 C2216 0.950 . S
H2206 C2218 0.950 . S
H2207 C2219 0.950 . S
C2208 H2200 0.950 . S
C2208 C2209 1.386 . S
C2208 C2210 1.391 . S
C2209 C2208 1.386 . S
C2209 C2213 1.393 . S
C2210 H2202 0.950 . S
C2210 C2208 1.391 . S
C2210 C2211 1.400 . S
C2211 C2210 1.400 . S
C2211 C2212 1.398 . S
C2211 C2217 1.491 . S
C2212 H2203 0.950 . S
C2212 C2211 1.398 . S
C2212 C2213 1.391 . S
C2213 H2201 0.950 . S
C2213 C2209 1.393 . S
C2213 C2212 1.391 . S
C2214 H2204 0.950 . S
C2214 C2215 1.386 . S
C2214 C2216 1.391 . S
C2215 C2214 1.386 . S
C2215 C2219 1.393 . S
C2216 H2205 0.950 . S
C2216 C2214 1.391 . S
C2216 C2217 1.400 . S
C2217 C2211 1.491 . S
C2217 C2216 1.400 . S
C2217 C2218 1.398 . S
C2218 H2206 0.950 . S
C2218 C2217 1.398 . S
C2218 C2219 1.391 . S
C2219 H2207 0.950 . S
C2219 C2215 1.393 . S
C2219 C2218 1.391 . S
H2220 C2228 0.950 . S
H2221 C2233 0.950 . S
H2222 C2230 0.950 . S
H2223 C2232 0.950 . S
H2224 C2234 0.950 . S
H2225 C2236 0.950 . S
H2226 C2238 0.950 . S
H2227 C2239 0.950 . S
C2228 H2220 0.950 . S
C2228 C2229 1.386 . S
C2228 C2230 1.391 . S
C2229 C2228 1.386 . S
C2229 C2233 1.393 . S
C2230 H2222 0.950 . S
C2230 C2228 1.391 . S
C2230 C2231 1.400 . S
C2231 C2230 1.400 . S
C2231 C2232 1.398 . S
C2231 C2237 1.491 . S
C2232 H2223 0.950 . S
C2232 C2231 1.398 . S
C2232 C2233 1.391 . S
C2233 H2221 0.950 . S
C2233 C2229 1.393 . S
C2233 C2232 1.391 . S
C2234 H2224 0.950 . S
C2234 C2235 1.386 . S
C2234 C2236 1.391 . S
C2235 C2234 1.386 . S
C2235 C2239 1.393 . S
C2236 H2225 0.950 . S
C2236 C2234 1.391 . S
C2236 C2237 1.400 . S
C2237 C2231 1.491 . S
C2237 C2236 1.400 . S
C2237 C2238 1.398 . S
C2238 H2226 0.950 . S
C2238 C2237 1.398 . S
C2238 C2239 1.391 . S
C2239 H2227 0.950 . S
C2239 C2235 1.393 . S
C2239 C2238 1.391 . S
H2240 C2248 0.950 . S
H2241 C2253 0.950 . S
H2242 C2250 0.950 . S
H2243 C2252 0.950 . S
H2244 C2254 0.950 . S
H2245 C2256 0.950 . S
H2246 C2258 0.950 . S
H2247 C2259 0.950 . S
C2248 H2240 0.950 . S
C2248 C2249 1.386 . S
C2248 C2250 1.391 . S
C2249 C2248 1.386 . S
C2249 C2253 1.393 . S
C2250 H2242 0.950 . S
C2250 C2248 1.391 . S
C2250 C2251 1.400 . S
C2251 C2250 1.400 . S
C2251 C2252 1.398 . S
C2251 C2257 1.491 . S
C2252 H2243 0.950 . S
C2252 C2251 1.398 . S
C2252 C2253 1.391 . S
C2253 H2241 0.950 . S
C2253 C2249 1.393 . S
C2253 C2252 1.391 . S
C2254 H2244 0.950 . S
C2254 C2255 1.386 . S
C2254 C2256 1.391 . S
C2255 C2254 1.386 . S
C2255 C2259 1.393 . S
C2256 H2245 0.950 . S
C2256 C2254 1.391 . S
C2256 C2257 1.400 . S
C2257 C2251 1.491 . S
C2257 C2256 1.400 . S
C2257 C2258 1.398 . S
C2258 H2246 0.950 . S
C2258 C2257 1.398 . S
C2258 C2259 1.391 . S
C2259 H2247 0.950 . S
C2259 C2255 1.393 . S
C2259 C2258 1.391 . S
H2260 C2268 0.950 . S
H2261 C2273 0.950 . S
H2262 C2270 0.950 . S
H2263 C2272 0.950 . S
H2264 C2274 0.950 . S
H2265 C2276 0.950 . S
H2266 C2278 0.950 . S
H2267 C2279 0.950 . S
C2268 H2260 0.950 . S
C2268 C2269 1.386 . S
C2268 C2270 1.391 . S
C2269 C2268 1.386 . S
C2269 C2273 1.393 . S
C2270 H2262 0.950 . S
C2270 C2268 1.391 . S
C2270 C2271 1.400 . S
C2271 C2270 1.400 . S
C2271 C2272 1.398 . S
C2271 C2277 1.491 . S
C2272 H2263 0.950 . S
C2272 C2271 1.398 . S
C2272 C2273 1.391 . S
C2273 H2261 0.950 . S
C2273 C2269 1.393 . S
C2273 C2272 1.391 . S
C2274 H2264 0.950 . S
C2274 C2275 1.386 . S
C2274 C2276 1.391 . S
C2275 C2274 1.386 . S
C2275 C2279 1.393 . S
C2276 H2265 0.950 . S
C2276 C2274 1.391 . S
C2276 C2277 1.400 . S
C2277 C2271 1.491 . S
C2277 C2276 1.400 . S
C2277 C2278 1.398 . S
C2278 H2266 0.950 . S
C2278 C2277 1.398 . S
C2278 C2279 1.391 . S
C2279 H2267 0.950 . S
C2279 C2275 1.393 . S
C2279 C2278 1.391 . S
H2280 C2288 0.950 . S
H2281 C2293 0.950 . S
H2282 C2290 0.950 . S
H2283 C2292 0.950 . S
H2284 C2294 0.950 . S
H2285 C2296 0.950 . S
H2286 C2298 0.950 . S
H2287 C2299 0.950 . S
C2288 H2280 0.950 . S
C2288 C2289 1.386 . S
C2288 C2290 1.391 . S
C2289 C2288 1.386 . S
C2289 C2293 1.393 . S
C2290 H2282 0.950 . S
C2290 C2288 1.391 . S
C2290 C2291 1.400 . S
C2291 C2290 1.400 . S
C2291 C2292 1.398 . S
C2291 C2297 1.491 . S
C2292 H2283 0.950 . S
C2292 C2291 1.398 . S
C2292 C2293 1.391 . S
C2293 H2281 0.950 . S
C2293 C2289 1.393 . S
C2293 C2292 1.391 . S
C2294 H2284 0.950 . S
C2294 C2295 1.386 . S
C2294 C2296 1.391 . S
C2295 C2294 1.386 . S
C2295 C2299 1.393 . S
C2296 H2285 0.950 . S
C2296 C2294 1.391 . S
C2296 C2297 1.400 . S
C2297 C2291 1.491 . S
C2297 C2296 1.400 . S
C2297 C2298 1.398 . S
C2298 H2286 0.950 . S
C2298 C2297 1.398 . S
C2298 C2299 1.391 . S
C2299 H2287 0.950 . S
C2299 C2295 1.393 . S
C2299 C2298 1.391 . S
H2300 C2308 0.950 . S
H2301 C2313 0.950 . S
H2302 C2310 0.950 . S
H2303 C2312 0.950 . S
H2304 C2314 0.950 . S
H2305 C2316 0.950 . S
H2306 C2318 0.950 . S
H2307 C2319 0.950 . S
C2308 H2300 0.950 . S
C2308 C2309 1.386 . S
C2308 C2310 1.391 . S
C2309 C2308 1.386 . S
C2309 C2313 1.393 . S
C2310 H2302 0.950 . S
C2310 C2308 1.391 . S
C2310 C2311 1.400 . S
C2311 C2310 1.400 . S
C2311 C2312 1.398 . S
C2311 C2317 1.491 . S
C2312 H2303 0.950 . S
C2312 C2311 1.398 . S
C2312 C2313 1.391 . S
C2313 H2301 0.950 . S
C2313 C2309 1.393 . S
C2313 C2312 1.391 . S
C2314 H2304 0.950 . S
C2314 C2315 1.386 . S
C2314 C2316 1.391 . S
C2315 C2314 1.386 . S
C2315 C2319 1.393 . S
C2316 H2305 0.950 . S
C2316 C2314 1.391 . S
C2316 C2317 1.400 . S
C2317 C2311 1.491 . S
C2317 C2316 1.400 . S
C2317 C2318 1.398 . S
C2318 H2306 0.950 . S
C2318 C2317 1.398 . S
C2318 C2319 1.391 . S
C2319 H2307 0.950 . S
C2319 C2315 1.393 . S
C2319 C2318 1.391 . S
H2320 C2328 0.950 . S
H2321 C2333 0.950 . S
H2322 C2330 0.950 . S
H2323 C2332 0.950 . S
H2324 C2334 0.950 . S
H2325 C2336 0.950 . S
H2326 C2338 0.950 . S
H2327 C2339 0.950 . S
C2328 H2320 0.950 . S
C2328 C2329 1.386 . S
C2328 C2330 1.391 . S
C2329 C2328 1.386 . S
C2329 C2333 1.393 . S
C2330 H2322 0.950 . S
C2330 C2328 1.391 . S
C2330 C2331 1.400 . S
C2331 C2330 1.400 . S
C2331 C2332 1.398 . S
C2331 C2337 1.491 . S
C2332 H2323 0.950 . S
C2332 C2331 1.398 . S
C2332 C2333 1.391 . S
C2333 H2321 0.950 . S
C2333 C2329 1.393 . S
C2333 C2332 1.391 . S
C2334 H2324 0.950 . S
C2334 C2335 1.386 . S
C2334 C2336 1.391 . S
C2335 C2334 1.386 . S
C2335 C2339 1.393 . S
C2336 H2325 0.950 . S
C2336 C2334 1.391 . S
C2336 C2337 1.400 . S
C2337 C2331 1.491 . S
C2337 C2336 1.400 . S
C2337 C2338 1.398 . S
C2338 H2326 0.950 . S
C2338 C2337 1.398 . S
C2338 C2339 1.391 . S
C2339 H2327 0.950 . S
C2339 C2335 1.393 . S
C2339 C2338 1.391 . S
H2340 C2348 0.950 . S
H2341 C2353 0.950 . S
H2342 C2350 0.950 . S
H2343 C2352 0.950 . S
H2344 C2354 0.950 . S
H2345 C2356 0.950 . S
H2346 C2358 0.950 . S
H2347 C2359 0.950 . S
C2348 H2340 0.950 . S
C2348 C2349 1.386 . S
C2348 C2350 1.391 . S
C2349 C2348 1.386 . S
C2349 C2353 1.393 . S
C2350 H2342 0.950 . S
C2350 C2348 1.391 . S
C2350 C2351 1.400 . S
C2351 C2350 1.400 . S
C2351 C2352 1.398 . S
C2351 C2357 1.491 . S
C2352 H2343 0.950 . S
C2352 C2351 1.398 . S
C2352 C2353 1.391 . S
C2353 H2341 0.950 . S
C2353 C2349 1.393 . S
C2353 C2352 1.391 . S
C2354 H2344 0.950 . S
C2354 C2355 1.386 . S
C2354 C2356 1.391 . S
C2355 C2354 1.386 . S
C2355 C2359 1.393 . S
C2356 H2345 0.950 . S
C2356 C2354 1.391 . S
C2356 C2357 1.400 . S
C2357 C2351 1.491 . S
C2357 C2356 1.400 . S
C2357 C2358 1.398 . S
C2358 H2346 0.950 . S
C2358 C2357 1.398 . S
C2358 C2359 1.391 . S
C2359 H2347 0.950 . S
C2359 C2355 1.393 . S
C2359 C2358 1.391 . S
H2360 C2368 0.950 . S
H2361 C2373 0.950 . S
H2362 C2370 0.950 . S
H2363 C2372 0.950 . S
H2364 C2374 0.950 . S
H2365 C2376 0.950 . S
H2366 C2378 0.950 . S
H2367 C2379 0.950 . S
C2368 H2360 0.950 . S
C2368 C2369 1.386 . S
C2368 C2370 1.391 . S
C2369 C2368 1.386 . S
C2369 C2373 1.393 . S
C2370 H2362 0.950 . S
C2370 C2368 1.391 . S
C2370 C2371 1.400 . S
C2371 C2370 1.400 . S
C2371 C2372 1.398 . S
C2371 C2377 1.491 . S
C2372 H2363 0.950 . S
C2372 C2371 1.398 . S
C2372 C2373 1.391 . S
C2373 H2361 0.950 . S
C2373 C2369 1.393 . S
C2373 C2372 1.391 . S
C2374 H2364 0.950 . S
C2374 C2375 1.386 . S
C2374 C2376 1.391 . S
C2375 C2374 1.386 . S
C2375 C2379 1.393 . S
C2376 H2365 0.950 . S
C2376 C2374 1.391 . S
C2376 C2377 1.400 . S
C2377 C2371 1.491 . S
C2377 C2376 1.400 . S
C2377 C2378 1.398 . S
C2378 H2366 0.950 . S
C2378 C2377 1.398 . S
C2378 C2379 1.391 . S
C2379 H2367 0.950 . S
C2379 C2375 1.393 . S
C2379 C2378 1.391 . S
H2380 C2388 0.950 . S
H2381 C2393 0.950 . S
H2382 C2390 0.950 . S
H2383 C2392 0.950 . S
H2384 C2394 0.950 . S
H2385 C2396 0.950 . S
H2386 C2398 0.950 . S
H2387 C2399 0.950 . S
C2388 H2380 0.950 . S
C2388 C2389 1.386 . S
C2388 C2390 1.391 . S
C2389 C2388 1.386 . S
C2389 C2393 1.393 . S
C2390 H2382 0.950 . S
C2390 C2388 1.391 . S
C2390 C2391 1.400 . S
C2391 C2390 1.400 . S
C2391 C2392 1.398 . S
C2391 C2397 1.491 . S
C2392 H2383 0.950 . S
C2392 C2391 1.398 . S
C2392 C2393 1.391 . S
C2393 H2381 0.950 . S
C2393 C2389 1.393 . S
C2393 C2392 1.391 . S
C2394 H2384 0.950 . S
C2394 C2395 1.386 . S
C2394 C2396 1.391 . S
C2395 C2394 1.386 . S
C2395 C2399 1.393 . S
C2396 H2385 0.950 . S
C2396 C2394 1.391 . S
C2396 C2397 1.400 . S
C2397 C2391 1.491 . S
C2397 C2396 1.400 . S
C2397 C2398 1.398 . S
C2398 H2386 0.950 . S
C2398 C2397 1.398 . S
C2398 C2399 1.391 . S
C2399 H2387 0.950 . S
C2399 C2395 1.393 . S
C2399 C2398 1.391 . S
H2400 C2408 0.950 . S
H2401 C2413 0.928 1_455 S
H2402 C2410 0.950 . S
H2403 C2412 0.950 . S
H2404 C2414 0.950 . S
H2405 C2416 0.950 . S
H2406 C2418 0.950 . S
H2407 C2419 0.950 1_655 S
C2408 H2400 0.950 . S
C2408 C2409 1.386 . S
C2408 C2410 1.391 . S
C2409 C2408 1.386 . S
C2409 C2413 1.424 . S
C2410 H2402 0.950 . S
C2410 C2408 1.391 . S
C2410 C2411 1.400 . S
C2411 C2410 1.400 . S
C2411 C2412 1.398 1_655 S
C2411 C2417 1.491 1_655 S
C2412 H2403 0.950 . S
C2412 C2411 1.398 1_455 S
C2412 C2413 1.381 1_455 S
C2413 H2401 0.928 1_655 S
C2413 C2409 1.424 . S
C2413 C2412 1.381 1_655 S
C2414 H2404 0.950 . S
C2414 C2415 1.386 . S
C2414 C2416 1.391 . S
C2415 C2414 1.386 . S
C2415 C2419 1.393 . S
C2416 H2405 0.950 . S
C2416 C2414 1.391 . S
C2416 C2417 1.400 . S
C2417 C2411 1.491 1_455 S
C2417 C2416 1.400 . S
C2417 C2418 1.398 1_455 S
C2418 H2406 0.950 . S
C2418 C2417 1.398 1_655 S
C2418 C2419 1.391 1_655 S
C2419 H2407 0.950 1_455 S
C2419 C2415 1.393 . S
C2419 C2418 1.391 1_455 S
H2420 C2428 0.950 . S
H2421 C2433 0.950 . S
H2422 C2430 0.950 . S
H2423 C2432 0.950 . S
H2424 C2434 0.950 . S
H2425 C2436 0.950 . S
H2426 C2438 0.950 . S
H2427 C2439 0.950 . S
C2428 H2420 0.950 . S
C2428 C2429 1.386 . S
C2428 C2430 1.391 . S
C2429 C2428 1.386 . S
C2429 C2433 1.393 . S
C2430 H2422 0.950 . S
C2430 C2428 1.391 . S
C2430 C2431 1.400 . S
C2431 C2430 1.400 . S
C2431 C2432 1.398 . S
C2431 C2437 1.491 . S
C2432 H2423 0.950 . S
C2432 C2431 1.398 . S
C2432 C2433 1.391 . S
C2433 H2421 0.950 . S
C2433 C2429 1.393 . S
C2433 C2432 1.391 . S
C2434 H2424 0.950 . S
C2434 C2435 1.386 . S
C2434 C2436 1.391 . S
C2435 C2434 1.386 . S
C2435 C2439 1.393 . S
C2436 H2425 0.950 . S
C2436 C2434 1.391 . S
C2436 C2437 1.400 . S
C2437 C2431 1.491 . S
C2437 C2436 1.400 . S
C2437 C2438 1.398 . S
C2438 H2426 0.950 . S
C2438 C2437 1.398 . S
C2438 C2439 1.391 . S
C2439 H2427 0.950 . S
C2439 C2435 1.393 . S
C2439 C2438 1.391 . S
H2440 C2448 0.950 . S
H2441 C2453 0.950 . S
H2442 C2450 0.950 . S
H2443 C2452 0.950 . S
H2444 C2454 0.950 . S
H2445 C2456 0.950 . S
H2446 C2458 0.950 . S
H2447 C2459 0.950 . S
C2448 H2440 0.950 . S
C2448 C2449 1.386 . S
C2448 C2450 1.391 . S
C2449 C2448 1.386 . S
C2449 C2453 1.393 1_545 S
C2450 H2442 0.950 . S
C2450 C2448 1.391 . S
C2450 C2451 1.400 . S
C2451 C2450 1.400 . S
C2451 C2452 1.398 1_545 S
C2451 C2457 1.491 1_545 S
C2452 H2443 0.950 . S
C2452 C2451 1.398 1_565 S
C2452 C2453 1.391 . S
C2453 H2441 0.950 . S
C2453 C2449 1.393 1_565 S
C2453 C2452 1.391 . S
C2454 H2444 0.950 . S
C2454 C2455 1.386 . S
C2454 C2456 1.391 . S
C2455 C2454 1.386 . S
C2455 C2459 1.393 1_565 S
C2456 H2445 0.950 . S
C2456 C2454 1.391 . S
C2456 C2457 1.400 . S
C2457 C2451 1.491 1_565 S
C2457 C2456 1.400 . S
C2457 C2458 1.398 1_565 S
C2458 H2446 0.950 . S
C2458 C2457 1.398 1_545 S
C2458 C2459 1.391 . S
C2459 H2447 0.950 . S
C2459 C2455 1.393 1_545 S
C2459 C2458 1.391 . S
H2460 C2468 0.950 . S
H2461 C2473 0.950 . S
H2462 C2470 0.950 1_565 S
H2463 C2472 0.950 . S
H2464 C2474 0.950 . S
H2465 C2476 0.950 1_545 S
H2466 C2478 0.950 . S
H2467 C2479 0.950 . S
C2468 H2460 0.950 . S
C2468 C2469 1.386 . S
C2468 C2470 1.391 . S
C2469 C2468 1.386 . S
C2469 C2473 1.393 . S
C2470 H2462 0.950 1_545 S
C2470 C2468 1.391 . S
C2470 C2471 1.400 . S
C2471 C2470 1.400 . S
C2471 C2472 1.398 . S
C2471 C2477 1.491 1_545 S
C2472 H2463 0.950 . S
C2472 C2471 1.398 . S
C2472 C2473 1.391 . S
C2473 H2461 0.950 . S
C2473 C2469 1.393 . S
C2473 C2472 1.391 . S
C2474 H2464 0.950 . S
C2474 C2475 1.386 . S
C2474 C2476 1.391 . S
C2475 C2474 1.386 . S
C2475 C2479 1.393 . S
C2476 H2465 0.950 1_565 S
C2476 C2474 1.391 . S
C2476 C2477 1.400 . S
C2477 C2471 1.491 1_565 S
C2477 C2476 1.400 . S
C2477 C2478 1.398 . S
C2478 H2466 0.950 . S
C2478 C2477 1.398 . S
C2478 C2479 1.391 . S
C2479 H2467 0.950 . S
C2479 C2475 1.393 . S
C2479 C2478 1.391 . S
H2480 C2488 0.950 . S
H2481 C2493 0.950 . S
H2482 C2490 0.950 . S
H2483 C2492 0.950 1_655 S
H2484 C2494 0.950 . S
H2485 C2496 0.950 . S
H2486 C2498 0.950 1_455 S
H2487 C2499 0.950 . S
C2488 H2480 0.950 . S
C2488 C2489 1.386 . S
C2488 C2490 1.391 . S
C2489 C2488 1.386 . S
C2489 C2493 1.393 . S
C2490 H2482 0.950 . S
C2490 C2488 1.391 . S
C2490 C2491 1.400 . S
C2491 C2490 1.400 . S
C2491 C2492 1.398 . S
C2491 C2497 1.491 1_455 S
C2492 H2483 0.950 1_455 S
C2492 C2491 1.398 . S
C2492 C2493 1.391 . S
C2493 H2481 0.950 . S
C2493 C2489 1.393 . S
C2493 C2492 1.391 . S
C2494 H2484 0.950 . S
C2494 C2495 1.386 . S
C2494 C2496 1.391 . S
C2495 C2494 1.386 . S
C2495 C2499 1.393 . S
C2496 H2485 0.950 . S
C2496 C2494 1.391 . S
C2496 C2497 1.400 . S
C2497 C2491 1.491 1_655 S
C2497 C2496 1.400 . S
C2497 C2498 1.398 . S
C2498 H2486 0.950 1_655 S
C2498 C2497 1.398 . S
C2498 C2499 1.391 . S
C2499 H2487 0.950 . S
C2499 C2495 1.393 . S
C2499 C2498 1.391 . S
H2500 C2508 0.950 . S
H2501 C2513 0.950 . S
H2502 C2510 0.950 . S
H2503 C2512 0.950 . S
H2504 C2514 0.950 . S
H2505 C2516 0.950 . S
H2506 C2518 0.950 . S
H2507 C2519 0.950 . S
C2508 H2500 0.950 . S
C2508 C2509 1.386 . S
C2508 C2510 1.391 . S
C2509 C2508 1.386 . S
C2509 C2513 1.393 . S
C2510 H2502 0.950 . S
C2510 C2508 1.391 . S
C2510 C2511 1.400 . S
C2511 C2510 1.400 . S
C2511 C2512 1.398 . S
C2511 C2517 1.491 . S
C2512 H2503 0.950 . S
C2512 C2511 1.398 . S
C2512 C2513 1.391 . S
C2513 H2501 0.950 . S
C2513 C2509 1.393 . S
C2513 C2512 1.391 . S
C2514 H2504 0.950 . S
C2514 C2515 1.386 . S
C2514 C2516 1.391 . S
C2515 C2514 1.386 . S
C2515 C2519 1.393 . S
C2516 H2505 0.950 . S
C2516 C2514 1.391 . S
C2516 C2517 1.400 . S
C2517 C2511 1.491 . S
C2517 C2516 1.400 . S
C2517 C2518 1.398 . S
C2518 H2506 0.950 . S
C2518 C2517 1.398 . S
C2518 C2519 1.391 . S
C2519 H2507 0.950 . S
C2519 C2515 1.393 . S
C2519 C2518 1.391 . S
H2520 C2528 0.950 . S
H2521 C2533 0.950 . S
H2522 C2530 0.950 . S
H2523 C2532 0.950 . S
H2524 C2534 0.950 . S
H2525 C2536 0.950 . S
H2526 C2538 0.950 . S
H2527 C2539 0.950 . S
C2528 H2520 0.950 . S
C2528 C2529 1.386 . S
C2528 C2530 1.391 . S
C2529 C2528 1.386 . S
C2529 C2533 1.393 . S
C2530 H2522 0.950 . S
C2530 C2528 1.391 . S
C2530 C2531 1.400 . S
C2531 C2530 1.400 . S
C2531 C2532 1.398 . S
C2531 C2537 1.491 1_655 S
C2532 H2523 0.950 . S
C2532 C2531 1.398 . S
C2532 C2533 1.391 . S
C2533 H2521 0.950 . S
C2533 C2529 1.393 . S
C2533 C2532 1.391 . S
C2534 H2524 0.950 . S
C2534 C2535 1.386 . S
C2534 C2536 1.391 . S
C2535 C2534 1.386 . S
C2535 C2539 1.393 . S
C2536 H2525 0.950 . S
C2536 C2534 1.391 . S
C2536 C2537 1.400 . S
C2537 C2531 1.491 1_455 S
C2537 C2536 1.400 . S
C2537 C2538 1.398 . S
C2538 H2526 0.950 . S
C2538 C2537 1.398 . S
C2538 C2539 1.391 . S
C2539 H2527 0.950 . S
C2539 C2535 1.393 . S
C2539 C2538 1.391 . S
H2540 C2548 0.950 . S
H2541 C2553 0.950 . S
H2542 C2550 0.950 . S
H2543 C2552 0.950 . S
H2544 C2554 0.950 . S
H2545 C2556 0.950 . S
H2546 C2558 0.950 . S
H2547 C2559 0.950 . S
C2548 H2540 0.950 . S
C2548 C2549 1.386 . S
C2548 C2550 1.391 . S
C2549 C2548 1.386 . S
C2549 C2553 1.393 . S
C2550 H2542 0.950 . S
C2550 C2548 1.391 . S
C2550 C2551 1.400 . S
C2551 C2550 1.400 . S
C2551 C2552 1.398 . S
C2551 C2557 1.491 . S
C2552 H2543 0.950 . S
C2552 C2551 1.398 . S
C2552 C2553 1.391 . S
C2553 H2541 0.950 . S
C2553 C2549 1.393 . S
C2553 C2552 1.391 . S
C2554 H2544 0.950 . S
C2554 C2555 1.386 . S
C2554 C2556 1.391 . S
C2555 C2554 1.386 . S
C2555 C2559 1.393 . S
C2556 H2545 0.950 . S
C2556 C2554 1.391 . S
C2556 C2557 1.400 . S
C2557 C2551 1.491 . S
C2557 C2556 1.400 . S
C2557 C2558 1.398 . S
C2558 H2546 0.950 . S
C2558 C2557 1.398 . S
C2558 C2559 1.391 . S
C2559 H2547 0.950 . S
C2559 C2555 1.393 . S
C2559 C2558 1.391 . S
H2560 C2568 0.950 . S
H2561 C2573 0.950 . S
H2562 C2570 0.950 . S
H2563 C2572 0.950 1_565 S
H2564 C2574 0.950 . S
H2565 C2576 0.950 . S
H2566 C2578 0.950 1_545 S
H2567 C2579 0.950 . S
C2568 H2560 0.950 . S
C2568 C2569 1.386 . S
C2568 C2570 1.391 . S
C2569 C2568 1.386 . S
C2569 C2573 1.393 . S
C2570 H2562 0.950 . S
C2570 C2568 1.391 . S
C2570 C2571 1.400 . S
C2571 C2570 1.400 . S
C2571 C2572 1.398 . S
C2571 C2577 1.491 1_545 S
C2572 H2563 0.950 1_545 S
C2572 C2571 1.398 . S
C2572 C2573 1.391 . S
C2573 H2561 0.950 . S
C2573 C2569 1.393 . S
C2573 C2572 1.391 . S
C2574 H2564 0.950 . S
C2574 C2575 1.386 . S
C2574 C2576 1.391 . S
C2575 C2574 1.386 . S
C2575 C2579 1.393 . S
C2576 H2565 0.950 . S
C2576 C2574 1.391 . S
C2576 C2577 1.400 . S
C2577 C2571 1.491 1_565 S
C2577 C2576 1.400 . S
C2577 C2578 1.398 . S
C2578 H2566 0.950 1_565 S
C2578 C2577 1.398 . S
C2578 C2579 1.391 . S
C2579 H2567 0.950 . S
C2579 C2575 1.393 . S
C2579 C2578 1.391 . S
H2580 C2588 0.950 . S
H2581 C2593 0.950 . S
H2582 C2590 0.950 . S
H2583 C2592 0.950 . S
H2584 C2594 0.950 . S
H2585 C2596 0.950 . S
H2586 C2598 0.950 . S
H2587 C2599 0.950 . S
C2588 H2580 0.950 . S
C2588 C2589 1.386 . S
C2588 C2590 1.391 . S
C2589 C2588 1.386 . S
C2589 C2593 1.393 . S
C2590 H2582 0.950 . S
C2590 C2588 1.391 . S
C2590 C2591 1.400 . S
C2591 C2590 1.400 . S
C2591 C2592 1.398 . S
C2591 C2597 1.491 1_655 S
C2592 H2583 0.950 . S
C2592 C2591 1.398 . S
C2592 C2593 1.391 . S
C2593 H2581 0.950 . S
C2593 C2589 1.393 . S
C2593 C2592 1.391 . S
C2594 H2584 0.950 . S
C2594 C2595 1.386 . S
C2594 C2596 1.391 . S
C2595 C2594 1.386 . S
C2595 C2599 1.393 . S
C2596 H2585 0.950 . S
C2596 C2594 1.391 . S
C2596 C2597 1.400 . S
C2597 C2591 1.491 1_455 S
C2597 C2596 1.400 . S
C2597 C2598 1.398 . S
C2598 H2586 0.950 . S
C2598 C2597 1.398 . S
C2598 C2599 1.391 . S
C2599 H2587 0.950 . S
C2599 C2595 1.393 . S
C2599 C2598 1.391 . S
H2600 C2608 0.950 . S
H2601 C2613 0.950 . S
H2602 C2610 0.950 . S
H2603 C2612 0.950 . S
H2604 C2614 0.950 . S
H2605 C2616 0.950 . S
H2606 C2618 0.950 . S
H2607 C2619 0.950 . S
C2608 H2600 0.950 . S
C2608 C2609 1.386 . S
C2608 C2610 1.391 . S
C2609 C2608 1.386 . S
C2609 C2613 1.393 . S
C2610 H2602 0.950 . S
C2610 C2608 1.391 . S
C2610 C2611 1.400 . S
C2611 C2610 1.400 . S
C2611 C2612 1.398 . S
C2611 C2617 1.491 . S
C2612 H2603 0.950 . S
C2612 C2611 1.398 . S
C2612 C2613 1.391 . S
C2613 H2601 0.950 . S
C2613 C2609 1.393 . S
C2613 C2612 1.391 . S
C2614 H2604 0.950 . S
C2614 C2615 1.386 . S
C2614 C2616 1.391 . S
C2615 C2614 1.386 . S
C2615 C2619 1.393 . S
C2616 H2605 0.950 . S
C2616 C2614 1.391 . S
C2616 C2617 1.400 . S
C2617 C2611 1.491 . S
C2617 C2616 1.400 . S
C2617 C2618 1.398 . S
C2618 H2606 0.950 . S
C2618 C2617 1.398 . S
C2618 C2619 1.391 . S
C2619 H2607 0.950 . S
C2619 C2615 1.393 . S
C2619 C2618 1.391 . S
H2620 C2628 0.950 . S
H2621 C2633 0.950 . S
H2622 C2630 0.950 1_565 S
H2623 C2632 0.950 . S
H2624 C2634 0.950 . S
H2625 C2636 0.950 1_545 S
H2626 C2638 0.950 . S
H2627 C2639 0.950 . S
C2628 H2620 0.950 . S
C2628 C2629 1.386 . S
C2628 C2630 1.391 . S
C2629 C2628 1.386 . S
C2629 C2633 1.393 . S
C2630 H2622 0.950 1_545 S
C2630 C2628 1.391 . S
C2630 C2631 1.400 . S
C2631 C2630 1.400 . S
C2631 C2632 1.398 . S
C2631 C2637 1.491 1_545 S
C2632 H2623 0.950 . S
C2632 C2631 1.398 . S
C2632 C2633 1.391 . S
C2633 H2621 0.950 . S
C2633 C2629 1.393 . S
C2633 C2632 1.391 . S
C2634 H2624 0.950 . S
C2634 C2635 1.386 . S
C2634 C2636 1.391 . S
C2635 C2634 1.386 . S
C2635 C2639 1.393 . S
C2636 H2625 0.950 1_565 S
C2636 C2634 1.391 . S
C2636 C2637 1.400 . S
C2637 C2631 1.491 1_565 S
C2637 C2636 1.400 . S
C2637 C2638 1.398 . S
C2638 H2626 0.950 . S
C2638 C2637 1.398 . S
C2638 C2639 1.391 . S
C2639 H2627 0.950 . S
C2639 C2635 1.393 . S
C2639 C2638 1.391 . S
H2640 C2648 0.950 . S
H2641 C2653 0.950 . S
H2642 C2650 0.950 . S
H2643 C2652 0.950 . S
H2644 C2654 0.950 . S
H2645 C2656 0.950 . S
H2646 C2658 0.950 . S
H2647 C2659 0.950 . S
C2648 H2640 0.950 . S
C2648 C2649 1.386 . S
C2648 C2650 1.391 . S
C2649 C2648 1.386 . S
C2649 C2653 1.393 . S
C2650 H2642 0.950 . S
C2650 C2648 1.391 . S
C2650 C2651 1.400 . S
C2651 C2650 1.400 . S
C2651 C2652 1.398 . S
C2651 C2657 1.491 . S
C2652 H2643 0.950 . S
C2652 C2651 1.398 . S
C2652 C2653 1.391 . S
C2653 H2641 0.950 . S
C2653 C2649 1.393 . S
C2653 C2652 1.391 . S
C2654 H2644 0.950 . S
C2654 C2655 1.386 . S
C2654 C2656 1.391 . S
C2655 C2654 1.386 . S
C2655 C2659 1.393 . S
C2656 H2645 0.950 . S
C2656 C2654 1.391 . S
C2656 C2657 1.400 . S
C2657 C2651 1.491 . S
C2657 C2656 1.400 . S
C2657 C2658 1.398 . S
C2658 H2646 0.950 . S
C2658 C2657 1.398 . S
C2658 C2659 1.391 . S
C2659 H2647 0.950 . S
C2659 C2655 1.393 . S
C2659 C2658 1.391 . S
H2660 C2668 0.950 . S
H2661 C2673 0.950 . S
H2662 C2670 0.950 . S
H2663 C2672 0.950 . S
H2664 C2674 0.950 . S
H2665 C2676 0.950 . S
H2666 C2678 0.950 . S
H2667 C2679 0.950 . S
C2668 H2660 0.950 . S
C2668 C2669 1.386 . S
C2668 C2670 1.391 . S
C2669 C2668 1.386 . S
C2669 C2673 1.393 . S
C2670 H2662 0.950 . S
C2670 C2668 1.391 . S
C2670 C2671 1.400 . S
C2671 C2670 1.400 . S
C2671 C2672 1.398 . S
C2671 C2677 1.491 . S
C2672 H2663 0.950 . S
C2672 C2671 1.398 . S
C2672 C2673 1.391 . S
C2673 H2661 0.950 . S
C2673 C2669 1.393 . S
C2673 C2672 1.391 . S
C2674 H2664 0.950 . S
C2674 C2675 1.386 . S
C2674 C2676 1.391 . S
C2675 C2674 1.386 . S
C2675 C2679 1.393 . S
C2676 H2665 0.950 . S
C2676 C2674 1.391 . S
C2676 C2677 1.400 . S
C2677 C2671 1.491 . S
C2677 C2676 1.400 . S
C2677 C2678 1.398 . S
C2678 H2666 0.950 . S
C2678 C2677 1.398 . S
C2678 C2679 1.391 . S
C2679 H2667 0.950 . S
C2679 C2675 1.393 . S
C2679 C2678 1.391 . S
H2680 C2688 0.950 . S
H2681 C2693 0.950 . S
H2682 C2690 0.950 . S
H2683 C2692 0.950 . S
H2684 C2694 0.950 . S
H2685 C2696 0.950 . S
H2686 C2698 0.950 . S
H2687 C2699 0.950 . S
C2688 H2680 0.950 . S
C2688 C2689 1.386 . S
C2688 C2690 1.391 . S
C2689 C2688 1.386 . S
C2689 C2693 1.393 . S
C2690 H2682 0.950 . S
C2690 C2688 1.391 . S
C2690 C2691 1.400 . S
C2691 C2690 1.400 . S
C2691 C2692 1.398 . S
C2691 C2697 1.491 . S
C2692 H2683 0.950 . S
C2692 C2691 1.398 . S
C2692 C2693 1.391 . S
C2693 H2681 0.950 . S
C2693 C2689 1.393 . S
C2693 C2692 1.391 . S
C2694 H2684 0.950 . S
C2694 C2695 1.386 . S
C2694 C2696 1.391 . S
C2695 C2694 1.386 . S
C2695 C2699 1.393 . S
C2696 H2685 0.950 . S
C2696 C2694 1.391 . S
C2696 C2697 1.400 . S
C2697 C2691 1.491 . S
C2697 C2696 1.400 . S
C2697 C2698 1.398 . S
C2698 H2686 0.950 . S
C2698 C2697 1.398 . S
C2698 C2699 1.391 . S
C2699 H2687 0.950 . S
C2699 C2695 1.393 . S
C2699 C2698 1.391 . S
H2700 C2708 0.950 . S
H2701 C2713 0.950 . S
H2702 C2710 0.950 . S
H2703 C2712 0.950 . S
H2704 C2714 0.950 . S
H2705 C2716 0.950 . S
H2706 C2718 0.950 . S
H2707 C2719 0.950 . S
C2708 H2700 0.950 . S
C2708 C2709 1.386 . S
C2708 C2710 1.391 . S
C2709 C2708 1.386 . S
C2709 C2713 1.393 . S
C2710 H2702 0.950 . S
C2710 C2708 1.391 . S
C2710 C2711 1.400 . S
C2711 C2710 1.400 . S
C2711 C2712 1.398 . S
C2711 C2717 1.491 . S
C2712 H2703 0.950 . S
C2712 C2711 1.398 . S
C2712 C2713 1.391 . S
C2713 H2701 0.950 . S
C2713 C2709 1.393 . S
C2713 C2712 1.391 . S
C2714 H2704 0.950 . S
C2714 C2715 1.386 . S
C2714 C2716 1.391 . S
C2715 C2714 1.386 . S
C2715 C2719 1.393 . S
C2716 H2705 0.950 . S
C2716 C2714 1.391 . S
C2716 C2717 1.400 . S
C2717 C2711 1.491 . S
C2717 C2716 1.400 . S
C2717 C2718 1.398 . S
C2718 H2706 0.950 . S
C2718 C2717 1.398 . S
C2718 C2719 1.391 . S
C2719 H2707 0.950 . S
C2719 C2715 1.393 . S
C2719 C2718 1.391 . S
H2720 C2728 0.950 . S
H2721 C2733 0.950 . S
H2722 C2730 0.950 . S
H2723 C2732 0.950 . S
H2724 C2734 0.950 . S
H2725 C2736 0.950 . S
H2726 C2738 0.950 . S
H2727 C2739 0.950 . S
C2728 H2720 0.950 . S
C2728 C2729 1.386 . S
C2728 C2730 1.391 . S
C2729 C2728 1.386 . S
C2729 C2733 1.393 . S
C2730 H2722 0.950 . S
C2730 C2728 1.391 . S
C2730 C2731 1.400 . S
C2731 C2730 1.400 . S
C2731 C2732 1.398 . S
C2731 C2737 1.491 . S
C2732 H2723 0.950 . S
C2732 C2731 1.398 . S
C2732 C2733 1.391 . S
C2733 H2721 0.950 . S
C2733 C2729 1.393 . S
C2733 C2732 1.391 . S
C2734 H2724 0.950 . S
C2734 C2735 1.386 . S
C2734 C2736 1.391 . S
C2735 C2734 1.386 . S
C2735 C2739 1.393 . S
C2736 H2725 0.950 . S
C2736 C2734 1.391 . S
C2736 C2737 1.400 . S
C2737 C2731 1.491 . S
C2737 C2736 1.400 . S
C2737 C2738 1.398 . S
C2738 H2726 0.950 . S
C2738 C2737 1.398 . S
C2738 C2739 1.391 . S
C2739 H2727 0.950 . S
C2739 C2735 1.393 . S
C2739 C2738 1.391 . S
H2740 C2748 0.950 . S
H2741 C2753 0.950 . S
H2742 C2750 0.950 . S
H2743 C2752 0.950 . S
H2744 C2754 0.950 . S
H2745 C2756 0.950 . S
H2746 C2758 0.950 . S
H2747 C2759 0.950 . S
C2748 H2740 0.950 . S
C2748 C2749 1.386 . S
C2748 C2750 1.391 . S
C2749 C2748 1.386 . S
C2749 C2753 1.393 . S
C2750 H2742 0.950 . S
C2750 C2748 1.391 . S
C2750 C2751 1.400 . S
C2751 C2750 1.400 . S
C2751 C2752 1.398 . S
C2751 C2757 1.491 . S
C2752 H2743 0.950 . S
C2752 C2751 1.398 . S
C2752 C2753 1.391 . S
C2753 H2741 0.950 . S
C2753 C2749 1.393 . S
C2753 C2752 1.391 . S
C2754 H2744 0.950 . S
C2754 C2755 1.386 . S
C2754 C2756 1.391 . S
C2755 C2754 1.386 . S
C2755 C2759 1.393 . S
C2756 H2745 0.950 . S
C2756 C2754 1.391 . S
C2756 C2757 1.400 . S
C2757 C2751 1.491 . S
C2757 C2756 1.400 . S
C2757 C2758 1.398 . S
C2758 H2746 0.950 . S
C2758 C2757 1.398 . S
C2758 C2759 1.391 . S
C2759 H2747 0.950 . S
C2759 C2755 1.393 . S
C2759 C2758 1.391 . S
H2760 C2768 0.950 . S
H2761 C2773 0.950 . S
H2762 C2770 0.950 . S
H2763 C2772 0.950 . S
H2764 C2774 0.950 . S
H2765 C2776 0.950 . S
H2766 C2778 0.950 . S
H2767 C2779 0.950 . S
C2768 H2760 0.950 . S
C2768 C2769 1.386 . S
C2768 C2770 1.391 . S
C2769 C2768 1.386 . S
C2769 C2773 1.393 . S
C2770 H2762 0.950 . S
C2770 C2768 1.391 . S
C2770 C2771 1.400 . S
C2771 C2770 1.400 . S
C2771 C2772 1.398 . S
C2771 C2777 1.491 . S
C2772 H2763 0.950 . S
C2772 C2771 1.398 . S
C2772 C2773 1.391 . S
C2773 H2761 0.950 . S
C2773 C2769 1.393 . S
C2773 C2772 1.391 . S
C2774 H2764 0.950 . S
C2774 C2775 1.386 . S
C2774 C2776 1.391 . S
C2775 C2774 1.386 . S
C2775 C2779 1.393 . S
C2776 H2765 0.950 . S
C2776 C2774 1.391 . S
C2776 C2777 1.400 . S
C2777 C2771 1.491 . S
C2777 C2776 1.400 . S
C2777 C2778 1.398 . S
C2778 H2766 0.950 . S
C2778 C2777 1.398 . S
C2778 C2779 1.391 . S
C2779 H2767 0.950 . S
C2779 C2775 1.393 . S
C2779 C2778 1.391 . S
H2780 C2788 0.950 . S
H2781 C2793 0.950 . S
H2782 C2790 0.950 . S
H2783 C2792 0.950 . S
H2784 C2794 0.950 . S
H2785 C2796 0.950 . S
H2786 C2798 0.950 . S
H2787 C2799 0.950 . S
C2788 H2780 0.950 . S
C2788 C2789 1.386 . S
C2788 C2790 1.391 . S
C2789 C2788 1.386 . S
C2789 C2793 1.393 . S
C2790 H2782 0.950 . S
C2790 C2788 1.391 . S
C2790 C2791 1.400 . S
C2791 C2790 1.400 . S
C2791 C2792 1.398 . S
C2791 C2797 1.491 . S
C2792 H2783 0.950 . S
C2792 C2791 1.398 . S
C2792 C2793 1.391 . S
C2793 H2781 0.950 . S
C2793 C2789 1.393 . S
C2793 C2792 1.391 . S
C2794 H2784 0.950 . S
C2794 C2795 1.386 . S
C2794 C2796 1.391 . S
C2795 C2794 1.386 . S
C2795 C2799 1.393 . S
C2796 H2785 0.950 . S
C2796 C2794 1.391 . S
C2796 C2797 1.400 . S
C2797 C2791 1.491 . S
C2797 C2796 1.400 . S
C2797 C2798 1.398 . S
C2798 H2786 0.950 . S
C2798 C2797 1.398 . S
C2798 C2799 1.391 . S
C2799 H2787 0.950 . S
C2799 C2795 1.393 . S
C2799 C2798 1.391 . S
H2800 C2808 0.950 . S
H2801 C2813 0.950 . S
H2802 C2810 0.950 . S
H2803 C2812 0.950 . S
H2804 C2814 0.950 . S
H2805 C2816 0.950 . S
H2806 C2818 0.950 . S
H2807 C2819 0.950 . S
C2808 H2800 0.950 . S
C2808 C2809 1.386 . S
C2808 C2810 1.391 . S
C2809 C2808 1.386 . S
C2809 C2813 1.393 . S
C2810 H2802 0.950 . S
C2810 C2808 1.391 . S
C2810 C2811 1.400 . S
C2811 C2810 1.400 . S
C2811 C2812 1.398 . S
C2811 C2817 1.491 . S
C2812 H2803 0.950 . S
C2812 C2811 1.398 . S
C2812 C2813 1.391 . S
C2813 H2801 0.950 . S
C2813 C2809 1.393 . S
C2813 C2812 1.391 . S
C2814 H2804 0.950 . S
C2814 C2815 1.386 . S
C2814 C2816 1.391 . S
C2815 C2814 1.386 . S
C2815 C2819 1.393 . S
C2816 H2805 0.950 . S
C2816 C2814 1.391 . S
C2816 C2817 1.400 . S
C2817 C2811 1.491 . S
C2817 C2816 1.400 . S
C2817 C2818 1.398 . S
C2818 H2806 0.950 . S
C2818 C2817 1.398 . S
C2818 C2819 1.391 . S
C2819 H2807 0.950 . S
C2819 C2815 1.393 . S
C2819 C2818 1.391 . S
H2820 C2828 0.950 . S
H2821 C2833 0.950 . S
H2822 C2830 0.950 . S
H2823 C2832 0.950 . S
H2824 C2834 0.950 . S
H2825 C2836 0.950 . S
H2826 C2838 0.950 . S
H2827 C2839 0.950 . S
C2828 H2820 0.950 . S
C2828 C2829 1.386 . S
C2828 C2830 1.391 . S
C2829 C2828 1.386 . S
C2829 C2833 1.393 . S
C2830 H2822 0.950 . S
C2830 C2828 1.391 . S
C2830 C2831 1.400 . S
C2831 C2830 1.400 . S
C2831 C2832 1.398 . S
C2831 C2837 1.491 . S
C2832 H2823 0.950 . S
C2832 C2831 1.398 . S
C2832 C2833 1.391 . S
C2833 H2821 0.950 . S
C2833 C2829 1.393 . S
C2833 C2832 1.391 . S
C2834 H2824 0.950 . S
C2834 C2835 1.386 . S
C2834 C2836 1.391 . S
C2835 C2834 1.386 . S
C2835 C2839 1.393 . S
C2836 H2825 0.950 . S
C2836 C2834 1.391 . S
C2836 C2837 1.400 . S
C2837 C2831 1.491 . S
C2837 C2836 1.400 . S
C2837 C2838 1.398 . S
C2838 H2826 0.950 . S
C2838 C2837 1.398 . S
C2838 C2839 1.391 . S
C2839 H2827 0.950 . S
C2839 C2835 1.393 . S
C2839 C2838 1.391 . S
H2840 C2848 0.950 . S
H2841 C2853 0.950 . S
H2842 C2850 0.950 . S
H2843 C2852 0.950 . S
H2844 C2854 0.950 . S
H2845 C2856 0.950 . S
H2846 C2858 0.950 . S
H2847 C2859 0.950 . S
C2848 H2840 0.950 . S
C2848 C2849 1.386 . S
C2848 C2850 1.391 . S
C2849 C2848 1.386 . S
C2849 C2853 1.393 . S
C2850 H2842 0.950 . S
C2850 C2848 1.391 . S
C2850 C2851 1.400 . S
C2851 C2850 1.400 . S
C2851 C2852 1.398 . S
C2851 C2857 1.491 . S
C2852 H2843 0.950 . S
C2852 C2851 1.398 . S
C2852 C2853 1.391 . S
C2853 H2841 0.950 . S
C2853 C2849 1.393 . S
C2853 C2852 1.391 . S
C2854 H2844 0.950 . S
C2854 C2855 1.386 . S
C2854 C2856 1.391 . S
C2855 C2854 1.386 . S
C2855 C2859 1.393 . S
C2856 H2845 0.950 . S
C2856 C2854 1.391 . S
C2856 C2857 1.400 . S
C2857 C2851 1.491 . S
C2857 C2856 1.400 . S
C2857 C2858 1.398 . S
C2858 H2846 0.950 . S
C2858 C2857 1.398 . S
C2858 C2859 1.391 . S
C2859 H2847 0.950 . S
C2859 C2855 1.393 . S
C2859 C2858 1.391 . S
H2860 C2868 0.950 . S
H2861 C2873 0.950 . S
H2862 C2870 0.950 . S
H2863 C2872 0.950 . S
H2864 C2874 0.950 . S
H2865 C2876 0.950 . S
H2866 C2878 0.950 . S
H2867 C2879 0.950 . S
C2868 H2860 0.950 . S
C2868 C2869 1.386 . S
C2868 C2870 1.391 . S
C2869 C2868 1.386 . S
C2869 C2873 1.393 . S
C2870 H2862 0.950 . S
C2870 C2868 1.391 . S
C2870 C2871 1.400 . S
C2871 C2870 1.400 . S
C2871 C2872 1.398 . S
C2871 C2877 1.491 . S
C2872 H2863 0.950 . S
C2872 C2871 1.398 . S
C2872 C2873 1.391 . S
C2873 H2861 0.950 . S
C2873 C2869 1.393 . S
C2873 C2872 1.391 . S
C2874 H2864 0.950 . S
C2874 C2875 1.386 . S
C2874 C2876 1.391 . S
C2875 C2874 1.386 . S
C2875 C2879 1.393 . S
C2876 H2865 0.950 . S
C2876 C2874 1.391 . S
C2876 C2877 1.400 . S
C2877 C2871 1.491 . S
C2877 C2876 1.400 . S
C2877 C2878 1.398 . S
C2878 H2866 0.950 . S
C2878 C2877 1.398 . S
C2878 C2879 1.391 . S
C2879 H2867 0.950 . S
C2879 C2875 1.393 . S
C2879 C2878 1.391 . S
C729 C1 1.452 . S
C735 C46 1.438 1_545 S
C749 C6 1.444 1_655 S
C755 C21 1.453 . S
C769 C41 1.458 . S
C775 C26 1.439 . S
C789 C61 1.488 . S
C795 C86 1.464 1_455 S
C809 C106 1.451 . S
C815 C81 1.494 . S
C829 C101 1.489 . S
C835 C66 1.451 1_565 S
C849 C129 1.452 . S
C855 C176 1.438 1_565 S
C869 C149 1.467 . S
C875 C136 1.421 1_455 S
C889 C169 1.461 . S
C895 C156 1.424 . S
C909 C189 1.485 . S
C915 C216 1.467 1_655 S
C929 C236 1.452 . S
C935 C209 1.488 . S
C949 C196 1.464 1_545 S
C955 C229 1.481 . S
C969 C286 1.450 . S
C975 C241 1.497 . S
C989 C261 1.497 . S
C995 C246 1.450 . S
C1009 C266 1.469 . S
C1015 C281 1.489 . S
C1029 C301 1.504 . S
C1035 C326 1.474 . S
C1049 C346 1.480 . S
C1055 C321 1.494 . S
C1069 C306 1.484 . S
C1075 C341 1.496 . S
C1089 C369 1.502 . S
C1095 C416 1.452 . S
C1109 C389 1.500 . S
C1115 C376 1.451 . S
C1129 C396 1.461 . S
C1135 C409 1.492 . S
C1149 C456 1.380 . S
C1155 C429 1.405 . S
C1169 C449 1.394 . S
C1175 C476 1.389 . S
C1189 C436 1.366 . S
C1195 C469 1.405 . S
C1209 C481 1.502 . S
C1215 C526 1.450 . S
C1229 C501 1.493 . S
C1235 C486 1.470 . S
C1249 C521 1.491 . S
C1255 C506 1.464 . S
C1269 C541 1.401 . S
C1275 C566 1.370 . S
C1289 C561 1.395 . S
C1295 C586 1.381 . S
C1309 C581 1.403 . S
C1315 C546 1.383 . S
C1329 C609 1.484 . S
C1335 C656 1.474 . S
C1349 C629 1.487 . S
C1355 C616 1.461 . S
C1369 C636 1.474 . S
C1375 C649 1.482 . S
C1389 C669 1.506 . S
C1395 C696 1.462 . S
C1409 C689 1.494 . S
C1415 C716 1.485 . S
C1429 C676 1.477 . S
C1435 C709 1.495 . S
C1449 C16 1.440 . S
C1455 C401 1.441 . S
C1469 C361 1.453 . S
C1475 C36 1.443 . S
C1489 C56 1.450 . S
C1495 C381 1.443 . S
C1509 C76 1.269 . S
C1515 C681 1.298 . S
C1529 C701 1.304 . S
C1535 C96 1.270 . S
C1549 C116 1.278 . S
C1555 C661 1.308 . S
C1569 C529 1.451 . S
C1575 C126 1.430 . S
C1589 C146 1.448 . S
C1595 C489 1.448 . S
C1609 C166 1.439 . S
C1615 C509 1.441 . S
C1629 C329 1.296 . S
C1635 C186 1.297 . S
C1649 C349 1.295 . S
C1655 C206 1.270 . S
C1669 C309 1.305 . S
C1675 C226 1.287 . S
C1689 C256 1.364 . S
C1695 C641 1.369 . S
C1709 C276 1.354 . S
C1715 C601 1.381 . S
C1729 C621 1.368 . S
C1735 C296 1.378 . S
C1749 C201 1.313 . S
C1755 C316 1.297 1_455 S
C1769 C221 1.331 . S
C1775 C336 1.297 . S
C1789 C181 1.308 . S
C1795 C356 1.306 1_565 S
C1809 C49 1.441 . S
C1815 C366 1.437 1_565 S
C1829 C386 1.433 1_455 S
C1835 C9 1.445 . S
C1849 C406 1.424 . S
C1855 C29 1.435 . S
C1869 C569 1.332 . S
C1875 C426 1.290 . S
C1889 C589 1.321 . S
C1895 C446 1.280 . S
C1909 C466 1.300 . S
C1915 C549 1.331 . S
C1929 C161 1.443 . S
C1935 C496 1.419 1_545 S
C1949 C121 1.437 . S
C1955 C516 1.439 1_655 S
C1969 C141 1.449 . S
C1975 C536 1.424 . S
C1989 C556 1.311 . S
C1995 C441 1.329 . S
C2009 C461 1.305 . S
C2015 C576 1.300 . S
C2029 C596 1.316 . S
C2035 C421 1.323 . S
C2049 C606 1.357 . S
C2055 C289 1.375 . S
C2069 C626 1.368 . S
C2075 C249 1.367 . S
C2089 C646 1.358 . S
C2095 C269 1.373 . S
C2109 C666 1.293 1_655 S
C2115 C89 1.327 . S
C2129 C109 1.323 . S
C2135 C686 1.292 . S
C2149 C69 1.332 . S
C2155 C706 1.302 1_545 S
C2169 C588 2.026 . S
C2175 C8 2.025 . S
C2189 C548 2.024 . S
C2195 C28 2.045 . S
C2209 C48 2.054 . S
C2215 C568 2.023 . S
C2229 C268 2.302 . S
C2235 C68 2.289 . S
C2249 C88 2.273 . S
C2255 C288 2.287 . S
C2269 C108 2.283 . S
C2275 C248 2.300 . S
C2289 C139 2.041 . S
C2295 C479 2.010 . S
C2309 C159 2.046 . S
C2315 C439 2.034 . S
C2329 C179 2.047 . S
C2335 C459 2.013 . S
C2349 C639 2.282 . S
C2355 C199 2.285 . S
C2369 C659 2.300 . S
C2375 C219 2.294 . S
C2389 C619 2.302 . S
C2395 C239 2.289 . S
C2409 C308 2.343 . S
C2415 C508 2.365 . S
C2429 C328 2.346 . S
C2435 C528 2.354 . S
C2449 C348 2.348 . S
C2455 C488 2.370 . S
C2469 C379 2.370 . S
C2475 C719 2.363 . S
C2489 C679 2.362 . S
C2495 C399 2.372 . S
C2509 C419 2.361 . S
C2515 C699 2.342 . S
C2529 C99 1.221 . S
C2535 C19 1.230 . S
C2549 C119 1.241 . S
C2555 C39 1.212 . S
C2569 C79 1.216 . S
C2575 C59 1.237 . S
C2589 C128 1.229 . S
C2595 C208 1.225 . S
C2609 C228 1.236 . S
C2615 C148 1.218 . S
C2629 C168 1.216 . S
C2635 C188 1.235 . S
C2649 C339 1.346 . S
C2655 C259 1.323 . S
C2669 C359 1.341 . S
C2675 C279 1.324 . S
C2689 C319 1.331 . S
C2695 C299 1.339 . S
C2709 C448 1.500 . S
C2715 C368 1.546 . S
C2729 C388 1.545 . S
C2735 C468 1.504 . S
C2749 C408 1.522 . S
C2755 C428 1.527 . S
C2769 C499 1.522 . S
C2775 C579 1.527 . S
C2789 C599 1.511 . S
C2795 C519 1.545 . S
C2809 C539 1.521 . S
C2815 C559 1.529 . S
C2829 C608 1.332 . S
C2835 C688 1.338 . S
C2849 C708 1.346 . S
C2855 C628 1.322 . S
C2869 C648 1.348 . S
C2875 C668 1.320 . S
