# Generated by pormake.
# Topology zfk, (5)-cn, num edge types: 1
# Building blocks:
#     Node 0, Type 0, BuildingBlock: XOMCOT_clean_sbu_1, # of connection points: 5
#     Node 1, Type 0, BuildingBlock: XOMCOT_clean_sbu_1, # of connection points: 5
#     Node 2, Type 0, BuildingBlock: XOMCOT_clean_sbu_1, # of connection points: 5
#     Node 3, Type 0, BuildingBlock: XOMCOT_clean_sbu_1, # of connection points: 5
#     Node 4, Type 0, BuildingBlock: XOMCOT_clean_sbu_1, # of connection points: 5
#     Node 5, Type 0, BuildingBlock: XOMCOT_clean_sbu_1, # of connection points: 5
#     Node 6, Type 0, BuildingBlock: XOMCOT_clean_sbu_1, # of connection points: 5
#     Node 7, Type 0, BuildingBlock: XOMCOT_clean_sbu_1, # of connection points: 5
#     Node 8, Type 0, BuildingBlock: XOMCOT_clean_sbu_1, # of connection points: 5
#     Node 9, Type 0, BuildingBlock: XOMCOT_clean_sbu_1, # of connection points: 5
#     Node 10, Type 0, BuildingBlock: XOMCOT_clean_sbu_1, # of connection points: 5
#     Node 11, Type 0, BuildingBlock: XOMCOT_clean_sbu_1, # of connection points: 5
#     Node 12, Type 0, BuildingBlock: XOMCOT_clean_sbu_1, # of connection points: 5
#     Node 13, Type 0, BuildingBlock: XOMCOT_clean_sbu_1, # of connection points: 5
#     Node 14, Type 0, BuildingBlock: XOMCOT_clean_sbu_1, # of connection points: 5
#     Node 15, Type 0, BuildingBlock: XOMCOT_clean_sbu_1, # of connection points: 5
#     Edge 16, Type (0, 0), BuildingBlock: XIVTED_clean_linker_0, # of connection points: 2
#     Edge 17, Type (0, 0), BuildingBlock: XIVTED_clean_linker_0, # of connection points: 2
#     Edge 18, Type (0, 0), BuildingBlock: XIVTED_clean_linker_0, # of connection points: 2
#     Edge 19, Type (0, 0), BuildingBlock: XIVTED_clean_linker_0, # of connection points: 2
#     Edge 20, Type (0, 0), BuildingBlock: XIVTED_clean_linker_0, # of connection points: 2
#     Edge 21, Type (0, 0), BuildingBlock: XIVTED_clean_linker_0, # of connection points: 2
#     Edge 22, Type (0, 0), BuildingBlock: XIVTED_clean_linker_0, # of connection points: 2
#     Edge 23, Type (0, 0), BuildingBlock: XIVTED_clean_linker_0, # of connection points: 2
#     Edge 24, Type (0, 0), BuildingBlock: XIVTED_clean_linker_0, # of connection points: 2
#     Edge 25, Type (0, 0), BuildingBlock: XIVTED_clean_linker_0, # of connection points: 2
#     Edge 26, Type (0, 0), BuildingBlock: XIVTED_clean_linker_0, # of connection points: 2
#     Edge 27, Type (0, 0), BuildingBlock: XIVTED_clean_linker_0, # of connection points: 2
#     Edge 28, Type (0, 0), BuildingBlock: XIVTED_clean_linker_0, # of connection points: 2
#     Edge 29, Type (0, 0), BuildingBlock: XIVTED_clean_linker_0, # of connection points: 2
#     Edge 30, Type (0, 0), BuildingBlock: XIVTED_clean_linker_0, # of connection points: 2
#     Edge 31, Type (0, 0), BuildingBlock: XIVTED_clean_linker_0, # of connection points: 2
#     Edge 32, Type (0, 0), BuildingBlock: XIVTED_clean_linker_0, # of connection points: 2
#     Edge 33, Type (0, 0), BuildingBlock: XIVTED_clean_linker_0, # of connection points: 2
#     Edge 34, Type (0, 0), BuildingBlock: XIVTED_clean_linker_0, # of connection points: 2
#     Edge 35, Type (0, 0), BuildingBlock: XIVTED_clean_linker_0, # of connection points: 2
#     Edge 36, Type (0, 0), BuildingBlock: XIVTED_clean_linker_0, # of connection points: 2
#     Edge 37, Type (0, 0), BuildingBlock: XIVTED_clean_linker_0, # of connection points: 2
#     Edge 38, Type (0, 0), BuildingBlock: XIVTED_clean_linker_0, # of connection points: 2
#     Edge 39, Type (0, 0), BuildingBlock: XIVTED_clean_linker_0, # of connection points: 2
#     Edge 40, Type (0, 0), BuildingBlock: XIVTED_clean_linker_0, # of connection points: 2
#     Edge 41, Type (0, 0), BuildingBlock: XIVTED_clean_linker_0, # of connection points: 2
#     Edge 42, Type (0, 0), BuildingBlock: XIVTED_clean_linker_0, # of connection points: 2
#     Edge 43, Type (0, 0), BuildingBlock: XIVTED_clean_linker_0, # of connection points: 2
#     Edge 44, Type (0, 0), BuildingBlock: XIVTED_clean_linker_0, # of connection points: 2
#     Edge 45, Type (0, 0), BuildingBlock: XIVTED_clean_linker_0, # of connection points: 2
#     Edge 46, Type (0, 0), BuildingBlock: XIVTED_clean_linker_0, # of connection points: 2
#     Edge 47, Type (0, 0), BuildingBlock: XIVTED_clean_linker_0, # of connection points: 2
#     Edge 48, Type (0, 0), BuildingBlock: XIVTED_clean_linker_0, # of connection points: 2
#     Edge 49, Type (0, 0), BuildingBlock: XIVTED_clean_linker_0, # of connection points: 2
#     Edge 50, Type (0, 0), BuildingBlock: XIVTED_clean_linker_0, # of connection points: 2
#     Edge 51, Type (0, 0), BuildingBlock: XIVTED_clean_linker_0, # of connection points: 2
#     Edge 52, Type (0, 0), BuildingBlock: XIVTED_clean_linker_0, # of connection points: 2
#     Edge 53, Type (0, 0), BuildingBlock: XIVTED_clean_linker_0, # of connection points: 2
#     Edge 54, Type (0, 0), BuildingBlock: XIVTED_clean_linker_0, # of connection points: 2
#     Edge 55, Type (0, 0), BuildingBlock: XIVTED_clean_linker_0, # of connection points: 2
# Relax obj value: 0.303
# Max RMSD: 0.176
# Mean RMSD: 0.176
data_MOF--net-zfk--node1-XOMCOT_clean_sbu_1--edge1-XIVTED_clean_linker_0
_symmetry_space_group_name_H-M    P1
_symmetry_Int_Tables_number       1
_symmetry_cell_setting            triclinic
loop_
_symmetry_equiv_pos_as_xyz
'x, y, z'
_cell_length_a     29.671281
_cell_length_b     29.748447
_cell_length_c     67.073193
_cell_angle_alpha  90.058626
_cell_angle_beta   89.754192
_cell_angle_gamma 89.43519
loop_
_atom_site_label
_atom_site_type_symbol
_atom_site_fract_x
_atom_site_fract_y
_atom_site_fract_z
_atom_type_partial_charge
C0 C 0.12151 0.27103 0.12703 0.0
C1 C 0.12273 0.25891 0.10727 0.0
N2 N 0.10904 0.21607 0.10562 0.0
N3 N 0.10662 0.23638 0.13814 0.0
C4 C 0.1 0.20296 0.1246 0.0
H5 H 0.13152 0.30324 0.13283 0.0
Co6 Co 0.09895 0.23938 0.16642 0.0
C7 C 0.02502 0.16783 0.17489 0.0
O8 O 1.01459 0.18246 0.19277 0.0
N9 N 0.09233 0.24514 0.1944 0.0
C10 C 0.06576 0.27025 0.22349 0.0
C11 C 0.05531 0.26073 0.20402 0.0
C12 C 0.12546 0.24746 0.20827 0.0
N13 N 0.11004 0.26223 0.22623 0.0
O14 O 0.05983 0.29383 0.16305 0.0
H15 H 0.02323 0.26761 0.197 0.0
H16 H 0.16062 0.24084 0.20494 0.0
O17 O 0.04987 0.1923 0.16352 0.0
C18 C 0.08293 0.32986 0.1656 0.0
O19 O 0.12582 0.32507 0.17003 0.0
N20 N 0.13942 0.19041 0.16976 0.0
C21 C 0.18192 0.10976 0.16096 0.0
C22 C 0.14748 0.111 0.17516 0.0
C23 C 0.12812 0.15256 0.18016 0.0
C24 C 0.17799 0.19076 0.15872 0.0
C25 C 0.19991 0.15048 0.15408 0.0
H26 H 0.10144 0.15349 0.19109 0.0
H27 H 0.18887 0.22147 0.15164 0.0
H28 H 0.08901 0.16971 0.12856 0.0
H29 H 0.13379 0.27991 0.09506 0.0
H30 H 0.04311 0.28523 0.23437 0.0
H31 H 0.13377 0.08031 0.18126 0.0
H32 H 0.22742 0.15076 0.14342 0.0
C33 C 0.06954 0.10289 0.61632 0.0
C34 C 0.07654 0.10834 0.5961 0.0
N35 N 0.10231 0.07395 0.58951 0.0
N36 N 0.09207 0.06599 0.62281 0.0
C37 C 0.10926 0.04788 0.60571 0.0
H38 H 0.04801 0.12403 0.62544 0.0
Co39 Co 0.09216 0.03976 0.64907 0.0
C40 C 0.18491 0.01968 0.63402 0.0
O41 O 0.18403 0.06211 0.62855 0.0
N42 N 0.09016 1.01243 0.67445 0.0
C43 C 0.09817 0.96264 0.69888 0.0
C44 C 0.10074 0.9693 0.67859 0.0
C45 C 0.08031 0.03113 0.69242 0.0
N46 N 0.08553 1.00163 0.70764 0.0
O47 O 0.04514 0.99858 0.63979 0.0
H48 H 0.11049 0.94444 0.66757 0.0
H49 H 0.07136 0.06624 0.69432 0.0
O50 O 0.14873 1.00215 0.64165 0.0
C51 C 1.00953 0.01996 0.6458 0.0
O52 O 1.01531 0.05836 0.65513 0.0
N53 N 0.1311 0.08361 0.65983 0.0
C54 C 0.18384 0.14836 0.67835 0.0
C55 C 0.19408 0.10266 0.6805 0.0
C56 C 0.16702 0.0709 0.67138 0.0
C57 C 0.11863 0.12777 0.659 0.0
C58 C 0.14503 0.16082 0.66778 0.0
H59 H 0.17493 0.03581 0.67378 0.0
H60 H 0.08759 0.13772 0.65204 0.0
H61 H 0.12646 1.01573 0.60496 0.0
H62 H 0.06412 0.13582 0.58702 0.0
H63 H 0.10516 0.9314 0.70657 0.0
H64 H 0.22271 0.09141 0.6892 0.0
H65 H 0.13534 0.19578 0.66603 0.0
C66 C 0.50956 0.25901 0.12256 0.0
C67 C 0.51837 0.27523 0.10375 0.0
N68 N 0.48566 0.30485 0.09889 0.0
N69 N 0.47032 0.27654 0.1295 0.0
C70 C 0.45796 0.30599 0.11498 0.0
H71 H 0.53127 0.23653 0.13088 0.0
Co72 Co 0.44857 0.26794 0.15612 0.0
C73 C 0.40466 0.35816 0.16605 0.0
O74 O 0.37732 0.34228 0.17971 0.0
N75 N 0.43195 0.2612 0.18328 0.0
C76 C 0.45038 0.25731 0.21538 0.0
C77 C 0.46576 0.26561 0.19643 0.0
C78 C 0.39567 0.25051 0.19484 0.0
N79 N 0.40621 0.24754 0.21449 0.0
O80 O 0.46898 0.20346 0.15583 0.0
H81 H 0.50012 0.27327 0.19232 0.0
H82 H 0.36222 0.24491 0.18907 0.0
O83 O 0.43126 0.33159 0.15659 0.0
C84 C 0.46586 0.17344 0.1421 0.0
O85 O 0.44995 0.18491 0.12455 0.0
N86 N 0.38992 0.24936 0.14702 0.0
C87 C 0.33396 0.20021 0.12242 0.0
C88 C 0.33972 0.24618 0.11898 0.0
C89 C 0.36696 0.27074 0.13207 0.0
C90 C 0.37583 0.20774 0.15285 0.0
C91 C 0.34855 0.1823 0.14057 0.0
H92 H 0.37128 0.30604 0.12948 0.0
H93 H 0.39057 0.191 0.16555 0.0
H94 H 0.43071 0.32981 0.11646 0.0
H95 H 0.54762 0.267 0.09472 0.0
H96 H 0.47081 0.25675 0.22871 0.0
H97 H 0.32542 0.26225 0.10595 0.0
H98 H 0.34176 0.1477 0.14455 0.0
C99 C 0.46469 0.4492 0.61852 0.0
C100 C 0.45012 0.44241 0.59931 0.0
N101 N 0.43004 0.48047 0.59285 0.0
N102 N 0.45415 0.49147 0.62426 0.0
C103 C 0.43296 0.50973 0.60827 0.0
H104 H 0.48192 0.42479 0.62777 0.0
Co105 Co 0.46832 0.51645 0.64931 0.0
C106 C 0.39057 0.57609 0.65918 0.0
O107 O 0.39959 0.57142 0.6782 0.0
N108 N 0.48376 0.54237 0.67464 0.0
C109 C 0.50571 0.59458 0.69644 0.0
C110 C 0.4982 0.58515 0.67668 0.0
C111 C 0.48283 0.52677 0.69372 0.0
N112 N 0.49586 0.55785 0.7072 0.0
O113 O 0.51131 0.55506 0.63678 0.0
H114 H 0.50167 0.60892 0.66461 0.0
H115 H 0.47237 0.49365 0.69801 0.0
O116 O 0.41788 0.5596 0.64616 0.0
C117 C 0.54702 0.53119 0.63468 0.0
O118 O 0.54534 0.4884 0.63943 0.0
N119 N 0.43059 0.47448 0.66124 0.0
C120 C 0.38393 0.40338 0.67821 0.0
C121 C 0.36106 0.43663 0.66727 0.0
C122 C 0.38517 0.4714 0.65852 0.0
C123 C 0.45366 0.44063 0.67042 0.0
C124 C 0.43097 0.40553 0.67961 0.0
H125 H 0.36746 0.49424 0.6488 0.0
H126 H 0.49008 0.44154 0.67095 0.0
H127 H 0.42065 0.54404 0.60777 0.0
H128 H 0.45341 0.41152 0.59086 0.0
H129 H 0.51618 0.62659 0.70244 0.0
H130 H 0.32514 0.4347 0.66466 0.0
H131 H 0.45021 0.38015 0.68751 0.0
C132 C 0.15857 0.04403 0.9442 0.0
C133 C 0.16378 0.05043 0.96448 0.0
N134 N 0.12504 0.06739 0.97194 0.0
N135 N 0.11716 0.05832 0.93854 0.0
C136 C 0.09694 0.06968 0.95614 0.0
H137 H 0.18333 0.02857 0.93449 0.0
Co138 Co 0.08845 0.05603 0.91279 0.0
C139 C 0.06006 0.14405 0.92948 0.0
O140 O 0.10281 0.14684 0.93435 0.0
N141 N 0.05898 0.05097 0.88797 0.0
C142 C 1.00701 0.05305 0.86423 0.0
C143 C 1.01468 0.05702 0.88441 0.0
C144 C 0.07742 0.04239 0.86981 0.0
N145 N 0.04656 0.04403 0.855 0.0
O146 O 0.05379 1.00519 0.92256 0.0
H147 H 0.98966 0.06461 0.89572 0.0
H148 H 0.11317 0.03686 0.86748 0.0
O149 O 0.04547 0.10713 0.92149 0.0
C150 C 0.07803 0.97225 0.91595 0.0
O151 O 0.11565 0.98199 0.90653 0.0
N152 N 0.12564 0.10071 0.90121 0.0
C153 C 0.17719 0.16297 0.88034 0.0
C154 C 0.19795 0.12715 0.89049 0.0
C155 C 0.17136 0.09578 0.9005 0.0
C156 C 0.10529 0.1339 0.89019 0.0
C157 C 0.13026 0.16534 0.87987 0.0
H158 H 0.18752 0.06702 0.90711 0.0
H159 H 0.06912 0.13603 0.88894 0.0
H160 H 0.06198 0.07995 0.95742 0.0
H161 H 0.19407 0.04383 0.97297 0.0
H162 H 0.97468 0.05655 0.85695 0.0
H163 H 0.23429 0.12361 0.89088 0.0
H164 H 0.11276 0.19129 0.87154 0.0
C165 C 0.28256 0.11964 0.43183 0.0
C166 C 0.27838 0.1147 0.45214 0.0
N167 N 0.25011 0.08067 0.45572 0.0
N168 N 0.25589 0.08996 0.4223 0.0
C169 C 0.23911 0.06469 0.43749 0.0
H170 H 0.3035 0.14422 0.42458 0.0
Co171 Co 0.24869 0.08919 0.39362 0.0
C172 C 0.15923 0.04954 0.40719 0.0
O173 O 0.15891 0.0812 0.42086 0.0
N174 N 0.24464 0.08939 0.36569 0.0
C175 C 0.23615 0.07079 0.33384 0.0
C176 C 0.22823 0.05793 0.35331 0.0
C177 C 0.26231 0.12092 0.35346 0.0
N178 N 0.25786 0.11048 0.33388 0.0
O179 O 0.29761 0.04294 0.3921 0.0
H180 H 0.21287 0.0269 0.35806 0.0
H181 H 0.27882 0.15066 0.35897 0.0
O182 O 0.1943 0.04553 0.39558 0.0
C183 C 0.33401 0.06575 0.38964 0.0
O184 O 0.32978 0.10971 0.38873 0.0
N185 N 0.20788 0.1386 0.3944 0.0
C186 C 0.15172 0.2025 0.41091 0.0
C187 C 0.13359 0.16912 0.39868 0.0
C188 C 0.16329 0.13885 0.38919 0.0
C189 C 0.22607 0.17693 0.40166 0.0
C190 C 0.19842 0.2094 0.41033 0.0
H191 H 0.14965 0.11201 0.38026 0.0
H192 H 0.26213 0.18031 0.40252 0.0
H193 H 0.21848 0.03534 0.43547 0.0
H194 H 0.29313 0.13607 0.46339 0.0
H195 H 0.22804 0.05129 0.32074 0.0
H196 H 0.09757 0.16384 0.39803 0.0
H197 H 0.2138 0.23575 0.41897 0.0
C198 C 0.4041 0.50381 0.94526 0.0
C199 C 0.39896 0.48885 0.96457 0.0
N200 N 0.43828 0.4703 0.97057 0.0
N201 N 0.44651 0.49493 0.93905 0.0
C202 C 0.46657 0.47467 0.95482 0.0
H203 H 0.37833 0.51942 0.93617 0.0
Co204 Co 0.47035 0.5066 0.91361 0.0
C205 C 0.52489 0.42379 0.90392 0.0
O206 O 0.51792 0.43356 0.8851 0.0
N207 N 0.49616 0.5196 0.88799 0.0
C208 C 0.55139 0.53636 0.86655 0.0
C209 C 0.54074 0.52791 0.88613 0.0
C210 C 0.48055 0.52391 0.86902 0.0
N211 N 0.51349 0.53365 0.85574 0.0
O212 O 0.50859 0.55371 0.92476 0.0
H213 H 0.56457 0.52676 0.89828 0.0
H214 H 0.44594 0.52057 0.86464 0.0
O215 O 0.51408 0.4535 0.91726 0.0
C216 C 0.48375 0.58929 0.92623 0.0
O217 O 0.44045 0.58553 0.92272 0.0
N218 N 0.42832 0.46688 0.90282 0.0
C219 C 0.37102 0.41038 0.88254 0.0
C220 C 0.39833 0.39363 0.89785 0.0
C221 C 0.4255 0.4229 0.90836 0.0
C222 C 0.39628 0.48484 0.89063 0.0
C223 C 0.36799 0.45693 0.87971 0.0
H224 H 0.44469 0.40999 0.92075 0.0
H225 H 0.39399 0.52089 0.88876 0.0
H226 H 0.5013 0.4633 0.95476 0.0
H227 H 0.36821 0.49037 0.97329 0.0
H228 H 0.58474 0.5428 0.86069 0.0
H229 H 0.39849 0.35829 0.90175 0.0
H230 H 0.34495 0.47141 0.86895 0.0
C231 C 0.21875 0.45898 0.44188 0.0
C232 C 0.22843 0.46915 0.46141 0.0
N233 N 0.27073 0.48502 0.46224 0.0
N234 N 0.25456 0.46857 0.43025 0.0
C235 C 0.2855 0.48512 0.4431 0.0
H236 H 0.18854 0.44271 0.43672 0.0
Co237 Co 0.2593 0.45047 0.40329 0.0
C238 C 0.35501 0.46613 0.39191 0.0
O239 O 0.35121 0.42639 0.38353 0.0
N240 N 0.26218 0.43303 0.37566 0.0
C241 C 0.26858 0.44429 0.34284 0.0
C242 C 0.2748 0.46254 0.36142 0.0
C243 C 0.24664 0.39737 0.36501 0.0
N244 N 0.25064 0.40326 0.34502 0.0
O245 O 0.21774 0.50013 0.39556 0.0
H246 H 0.2862 0.49632 0.36433 0.0
H247 H 0.23094 0.3683 0.37149 0.0
O248 O 0.31949 0.48399 0.40018 0.0
C249 C 0.1789 0.48089 0.39468 0.0
O250 O 0.17754 0.43741 0.39793 0.0
N251 N 0.29033 0.39845 0.41216 0.0
C252 C 0.29411 0.33404 0.44215 0.0
C253 C 0.3271 0.36713 0.44105 0.0
C254 C 0.32544 0.39851 0.42546 0.0
C255 C 0.26088 0.36373 0.41215 0.0
C256 C 0.26304 0.33055 0.4266 0.0
H257 H 0.34818 0.42645 0.42627 0.0
H258 H 0.23057 0.36582 0.40348 0.0
H259 H 0.31925 0.49453 0.43875 0.0
H260 H 0.20724 0.46207 0.47418 0.0
H261 H 0.27438 0.46111 0.32877 0.0
H262 H 0.35095 0.37142 0.45307 0.0
H263 H 0.2357 0.30683 0.42749 0.0
C264 C 0.91645 0.54668 0.93921 0.0
C265 C 0.91349 0.55333 0.95956 0.0
N266 N 0.95373 0.56736 0.9662 0.0
N267 N 0.95796 0.55801 0.93265 0.0
C268 C 0.98042 0.56748 0.9498 0.0
H269 H 0.88984 0.53347 0.9301 0.0
Co270 Co 0.98448 0.55697 0.90632 0.0
C271 C 1.01302 0.64346 0.92389 0.0
O272 O 0.97044 0.64657 0.92926 0.0
N273 N 1.01184 0.55355 0.88077 0.0
C274 C 0.06141 0.55891 0.85596 0.0
C275 C 0.05576 0.55927 0.87638 0.0
C276 C 0.99161 0.54875 0.86278 0.0
N277 N 0.02094 0.55261 0.84734 0.0
O278 O 0.02073 0.50569 0.91509 0.0
H279 H 0.08183 0.56467 0.88732 0.0
H280 H 0.95559 0.54492 0.86109 0.0
O281 O 0.0274 0.60728 0.91491 0.0
C282 C 0.9972 0.47228 0.90904 0.0
O283 O 0.95981 0.48139 0.89933 0.0
N284 N 0.94569 0.60228 0.89609 0.0
C285 C 0.89025 0.668 0.87936 0.0
C286 C 0.93699 0.67047 0.87732 0.0
C287 C 0.96396 0.63719 0.88558 0.0
C288 C 0.90019 0.59666 0.89612 0.0
C289 C 0.87166 0.62978 0.88833 0.0
H290 H 0.99992 0.63965 0.88346 0.0
H291 H 0.88571 0.56623 0.90174 0.0
H292 H 1.01589 0.57542 0.95022 0.0
H293 H 0.88357 0.54922 0.96864 0.0
H294 H 0.09297 0.56338 0.84809 0.0
H295 H 0.95277 0.6982 0.86961 0.0
H296 H 0.83555 0.62582 0.88972 0.0
C297 C 0.76422 0.90112 0.42143 0.0
C298 C 0.75689 0.89983 0.44163 0.0
N299 N 0.72276 0.92822 0.44612 0.0
N300 N 0.7351 0.93029 0.41292 0.0
C301 C 0.70981 0.94625 0.42841 0.0
H302 H 0.79018 0.8827 0.41343 0.0
Co303 Co 0.74208 0.94407 0.38562 0.0
C304 C 0.6732 0.02966 0.39072 0.0
O305 O 0.69156 0.06943 0.39262 0.0
N306 N 0.75163 0.95589 0.35829 0.0
C307 C 0.76128 0.98492 0.32801 0.0
C308 C 0.74731 0.99369 0.34737 0.0
C309 C 0.76819 0.92486 0.34533 0.0
N310 N 0.77482 0.94155 0.32679 0.0
O311 O 0.79723 0.97904 0.39198 0.0
H312 H 0.73569 0.02574 0.35314 0.0
H313 H 0.77548 0.89046 0.34955 0.0
O314 O 0.69954 0.99544 0.38868 0.0
C315 C 0.8337 0.9575 0.3873 0.0
O316 O 0.82979 0.91669 0.38007 0.0
N317 N 0.69319 0.90781 0.37856 0.0
C318 C 0.6594 0.84949 0.35018 0.0
C319 C 0.68415 0.83289 0.36647 0.0
C320 C 0.70131 0.86293 0.38044 0.0
C321 C 0.66193 0.92311 0.36515 0.0
C322 C 0.64466 0.89429 0.3507 0.0
H323 H 0.72678 0.85103 0.39066 0.0
H324 H 0.65631 0.95862 0.36302 0.0
H325 H 0.68397 0.97193 0.42696 0.0
H326 H 0.77566 0.87988 0.4523 0.0
H327 H 0.76274 1.00906 0.31597 0.0
H328 H 0.69655 0.79851 0.36666 0.0
H329 H 0.62568 0.90836 0.33839 0.0
C330 C 0.60811 1.01138 0.95071 0.0
C331 C 0.60748 0.9962 0.97013 0.0
N332 N 0.5701 0.97151 0.97292 0.0
N333 N 0.57122 0.99665 0.94115 0.0
C334 C 0.54861 0.97263 0.95512 0.0
H335 H 0.63454 0.0308 0.9438 0.0
Co336 Co 0.55848 1.00513 0.91377 0.0
C337 C 0.51168 0.92043 0.90173 0.0
O338 O 0.52735 0.9278 0.88373 0.0
N339 N 0.54407 1.01437 0.88589 0.0
C340 C 0.4981 0.02272 0.85975 0.0
C341 C 0.50095 0.02197 0.8802 0.0
C342 C 0.56694 1.01192 0.86819 0.0
N343 N 0.53961 1.01617 0.85215 0.0
O344 O 0.51488 0.05293 0.9206 0.0
H345 H 0.47258 0.02452 0.89032 0.0
H346 H 0.6024 1.00482 0.86664 0.0
O347 O 0.51552 0.95178 0.91499 0.0
C348 C 0.53864 0.08888 0.92174 0.0
O349 O 0.58248 0.08496 0.91952 0.0
N350 N 0.6057 0.96568 0.90766 0.0
C351 C 0.67573 0.91172 0.89419 0.0
C352 C 0.64243 0.89401 0.9067 0.0
C353 C 0.6084 0.92209 0.91387 0.0
C354 C 0.64171 0.98485 0.89849 0.0
C355 C 0.6767 0.95819 0.89097 0.0
H356 H 0.58404 0.90856 0.92416 0.0
H357 H 0.6418 0.02075 0.8959 0.0
H358 H 0.51712 0.95588 0.95231 0.0
H359 H 0.63351 1.00153 0.98111 0.0
H360 H 0.46759 0.0269 0.85112 0.0
H361 H 0.64261 0.85881 0.91084 0.0
H362 H 0.7031 0.9735 0.88218 0.0
C363 C 0.75715 0.63552 0.42258 0.0
C364 C 0.76932 0.63697 0.44227 0.0
N365 N 0.80043 0.60462 0.44558 0.0
N366 N 0.78051 0.60268 0.41313 0.0
C367 C 0.80674 0.58428 0.42762 0.0
H368 H 0.7321 0.6569 0.41565 0.0
Co369 Co 0.76868 0.58788 0.38624 0.0
C370 C 0.84255 0.50576 0.38867 0.0
O371 O 0.82671 0.46469 0.3891 0.0
N372 N 0.75453 0.57476 0.35956 0.0
C373 C 0.74439 0.54415 0.32968 0.0
C374 C 0.76094 0.53713 0.34867 0.0
C375 C 0.73371 0.60386 0.34701 0.0
N376 N 0.72709 0.58622 0.32864 0.0
O377 O 0.7169 0.55053 0.39474 0.0
H378 H 0.77639 0.50651 0.35413 0.0
H379 H 0.72418 0.63774 0.35128 0.0
O380 O 0.81413 0.53854 0.3877 0.0
C381 C 0.67969 0.57322 0.39451 0.0
O382 O 0.68181 0.61612 0.39003 0.0
N383 N 0.8142 0.62633 0.37701 0.0
C384 C 0.8402 0.68474 0.34698 0.0
C385 C 0.85702 0.64066 0.34727 0.0
C386 C 0.84397 0.61188 0.36264 0.0
C387 C 0.80395 0.67087 0.37869 0.0
C388 C 0.81732 0.70095 0.36395 0.0
H389 H 0.85145 0.57662 0.36073 0.0
H390 H 0.77947 0.68221 0.38955 0.0
H391 H 0.82875 0.55556 0.42532 0.0
H392 H 0.75611 0.66021 0.45331 0.0
H393 H 0.7444 0.51975 0.31771 0.0
H394 H 0.87458 0.6269 0.33441 0.0
H395 H 0.80329 0.73472 0.3643 0.0
C396 C 0.97884 0.78525 0.11576 0.0
C397 C 0.98495 0.77221 0.09626 0.0
N398 N 0.99357 0.72773 0.09584 0.0
N399 N 0.98385 0.74943 0.1279 0.0
C400 C 0.99346 0.71481 0.11523 0.0
H401 H 0.96844 0.81842 0.12056 0.0
Co402 Co 0.96803 0.75146 0.15544 0.0
C403 C 0.98866 0.65957 0.17133 0.0
O404 O 0.95125 0.66575 0.18158 0.0
N405 N 0.95257 0.756 0.18321 0.0
C406 C 0.96712 0.76108 0.21572 0.0
C407 C 0.98379 0.74845 0.19745 0.0
C408 C 0.91737 0.77508 0.1934 0.0
N409 N 0.92532 0.77811 0.21331 0.0
O410 O 1.01777 0.79363 0.16054 0.0
H411 H 1.01769 0.73635 0.19458 0.0
H412 H 0.88733 0.78828 0.18639 0.0
O413 O 1.00313 0.69245 0.16044 0.0
C414 C 0.99874 0.83288 0.16038 0.0
O415 O 0.955 0.83514 0.15768 0.0
N416 N 0.91591 0.71906 0.14908 0.0
C417 C 0.86049 0.7098 0.11633 0.0
C418 C 0.88719 0.67358 0.12241 0.0
C419 C 0.91492 0.6788 0.13904 0.0
C420 C 0.88409 0.75111 0.14528 0.0
C421 C 0.85623 0.74734 0.12881 0.0
H422 H 0.94007 0.65311 0.14126 0.0
H423 H 0.88571 0.78333 0.15259 0.0
H424 H 0.99808 0.68035 0.11998 0.0
H425 H 0.98019 0.79332 0.08329 0.0
H426 H 0.98554 0.7602 0.22962 0.0
H427 H 0.89013 0.6436 0.1133 0.0
H428 H 0.83458 0.77545 0.12481 0.0
C429 C 0.58846 0.91169 0.61606 0.0
C430 C 0.59247 0.90388 0.59587 0.0
N431 N 0.62007 0.93495 0.58803 0.0
N432 N 0.61363 0.94739 0.62119 0.0
C433 C 0.63224 0.96099 0.60366 0.0
H434 H 0.56779 0.89293 0.62636 0.0
Co435 Co 0.61188 0.97369 0.6471 0.0
C436 C 0.67592 0.05029 0.63078 0.0
O437 O 0.67035 0.09083 0.62342 0.0
N438 N 0.60699 1.00096 0.67266 0.0
C439 C 0.60242 0.05373 0.69615 0.0
C440 C 0.60523 0.04571 0.676 0.0
C441 C 0.60368 0.98241 0.69112 0.0
N442 N 0.60142 1.014 0.70571 0.0
O443 O 0.54979 0.99435 0.64136 0.0
H444 H 0.60589 0.07119 0.66454 0.0
H445 H 0.60379 0.94654 0.69381 0.0
O446 O 0.64013 0.02848 0.63576 0.0
C447 C 0.51948 0.96999 0.64963 0.0
O448 O 0.53306 0.93655 0.66097 0.0
N449 N 0.67027 0.95034 0.65353 0.0
C450 C 0.75804 0.91878 0.6594 0.0
C451 C 0.74254 0.95694 0.66951 0.0
C452 C 0.69859 0.97238 0.66626 0.0
C453 C 0.68337 0.90966 0.64589 0.0
C454 C 0.7274 0.89394 0.64816 0.0
H455 H 0.68901 1.00402 0.67295 0.0
H456 H 0.66033 0.88922 0.63757 0.0
H457 H 0.65235 0.99072 0.60202 0.0
H458 H 0.57612 0.87743 0.58759 0.0
H459 H 0.60045 0.0864 0.70325 0.0
H460 H 0.76502 0.9765 0.6787 0.0
H461 H 0.73757 0.86281 0.64096 0.0
C462 C 0.52522 0.72552 0.11411 0.0
C463 C 0.52336 0.74098 0.09481 0.0
N464 N 0.51654 0.78578 0.09518 0.0
N465 N 0.51927 0.76013 0.12689 0.0
C466 C 0.51351 0.79643 0.11482 0.0
H467 H 0.53349 0.69151 0.11847 0.0
Co468 Co 0.52953 0.75515 0.15481 0.0
C469 C 0.50675 0.84454 0.17196 0.0
O470 O 0.53972 0.83778 0.18466 0.0
N471 N 0.53974 0.74794 0.18282 0.0
C472 C 0.52166 0.74075 0.21495 0.0
C473 C 0.5061 0.75199 0.19636 0.0
C474 C 0.57544 0.73275 0.19371 0.0
N475 N 0.56532 0.72848 0.2134 0.0
O476 O 0.47556 0.71919 0.15747 0.0
H477 H 0.47185 0.7618 0.19284 0.0
H478 H 0.60796 0.72421 0.18738 0.0
O479 O 0.49723 0.81351 0.15933 0.0
C480 C 0.48954 0.67831 0.15701 0.0
O481 O 0.53315 0.67066 0.15592 0.0
N482 N 0.58451 0.78422 0.15086 0.0
C483 C 0.64153 0.79342 0.11852 0.0
C484 C 0.61784 0.83088 0.1257 0.0
C485 C 0.58939 0.82569 0.14222 0.0
C486 C 0.61386 0.75032 0.14628 0.0
C487 C 0.64242 0.75404 0.12994 0.0
H488 H 0.56666 0.85308 0.14546 0.0
H489 H 0.60923 0.71741 0.1527 0.0
H490 H 0.50976 0.83043 0.12029 0.0
H491 H 0.52981 0.7211 0.08155 0.0
H492 H 0.50171 0.73997 0.22849 0.0
H493 H 0.61766 0.86224 0.11751 0.0
H494 H 0.66189 0.7249 0.12519 0.0
C495 C 0.994 0.51927 0.60026 0.0
C496 C 0.98491 0.52017 0.58025 0.0
N497 N 0.95059 0.54908 0.57711 0.0
N498 N 0.9671 0.54878 0.61014 0.0
C499 C 0.93954 0.56501 0.59551 0.0
H500 H 1.01779 0.49666 0.60731 0.0
Co501 Co 0.96733 0.54715 0.63877 0.0
C502 C 0.87381 0.57091 0.65018 0.0
O503 O 0.88935 0.59419 0.66526 0.0
N504 N 0.96675 0.53804 0.66688 0.0
C505 C 0.9589 0.48996 0.69213 0.0
C506 C 0.95943 0.49481 0.67181 0.0
C507 C 0.97082 0.55908 0.68488 0.0
N508 N 0.96613 0.53034 0.70047 0.0
O509 O 0.03396 0.54351 0.63887 0.0
H510 H 0.95471 0.46817 0.66105 0.0
H511 H 0.97566 0.59475 0.68679 0.0
O512 O 0.9013 0.55 0.63862 0.0
C513 C 0.06159 0.56603 0.62811 0.0
O514 O 0.04606 0.59445 0.61474 0.0
N515 N 0.9713 0.6116 0.64152 0.0
C516 C 0.97633 0.70477 0.64664 0.0
C517 C 0.94396 0.68599 0.63414 0.0
C518 C 0.94172 0.63959 0.63198 0.0
C519 C 1.004 0.62991 0.65336 0.0
C520 C 1.0067 0.67629 0.65634 0.0
H521 H 0.91426 0.62663 0.62353 0.0
H522 H 0.02779 0.6087 0.66116 0.0
H523 H 0.91007 0.58555 0.59818 0.0
H524 H 1.00079 0.49903 0.56907 0.0
H525 H 0.95435 0.45878 0.70017 0.0
H526 H 0.91872 0.70691 0.62695 0.0
H527 H 0.0317 0.68965 0.66641 0.0
H528 H 0.0725 0.13886 0.9824 0.0
H529 H 0.12059 0.12577 0.09989 0.0
H530 H 0.16043 0.03722 1.00707 0.0
H531 H 0.0889 0.24875 0.06895 0.0
H532 H 0.12199 0.08586 0.06756 0.0
H533 H 0.0643 0.17233 1.0156 0.0
C534 C 0.08955 0.12312 0.99485 0.0
C535 C 0.11722 0.08507 0.99186 0.0
C536 C 0.11462 0.12157 0.06793 0.0
C537 C 0.10792 0.12346 0.03013 0.0
C538 C 0.11368 0.14426 0.08636 0.0
C539 C 0.10564 0.19085 0.08715 0.0
C540 C 0.10594 0.14542 0.05021 0.0
C541 C 0.09629 0.21308 0.0691 0.0
C542 C 0.08513 0.14248 1.0138 0.0
C543 C 0.13903 0.06668 1.00863 0.0
N544 N 0.09659 0.19027 0.0515 0.0
N545 N 0.13384 0.08592 0.02702 0.0
H546 H 0.16131 0.06578 0.46248 0.0
H547 H 0.18568 0.0412 0.58077 0.0
H548 H 0.28913 0.07671 0.49219 0.0
H549 H 0.06583 0.09584 0.55357 0.0
H550 H 0.2219 0.03784 0.54781 0.0
H551 H 0.12376 0.06034 0.49513 0.0
C552 C 0.18156 0.06601 0.47587 0.0
C553 C 0.22849 0.07134 0.47462 0.0
C554 C 0.18757 0.05027 0.54905 0.0
C555 C 0.18573 0.06524 0.51202 0.0
C556 C 0.16676 0.05188 0.56782 0.0
C557 C 0.1226 0.0688 0.56995 0.0
C558 C 0.16385 0.0648 0.53212 0.0
C559 C 0.09995 0.08281 0.55263 0.0
C560 C 0.16007 0.06341 0.49448 0.0
C561 C 0.25295 0.0725 0.4925 0.0
N562 N 0.12069 0.08029 0.53446 0.0
N563 N 0.23137 0.06929 0.51043 0.0
H564 H 0.52447 0.28599 0.06285 0.0
H565 H 0.39811 0.48776 1.00627 0.0
H566 H 0.4368 0.38206 0.09237 0.0
H567 H 0.4985 0.40275 0.97823 0.0
H568 H 0.41105 0.44858 0.03778 0.0
H569 H 0.51519 0.32769 0.0318 0.0
C570 C 0.50357 0.31597 0.06295 0.0
C571 C 0.48142 0.33019 0.08049 0.0
C572 C 0.4304 0.43855 0.02476 0.0
C573 C 0.47007 0.37801 0.0446 0.0
C574 C 0.42285 0.46081 1.00671 0.0
C575 C 0.44714 0.44856 0.98948 0.0
C576 C 0.4623 0.40339 0.0257 0.0
C577 C 0.47927 0.41371 0.99111 0.0
C578 C 0.4981 0.33971 0.0451 0.0
C579 C 0.45414 0.3691 0.07936 0.0
N580 N 0.48572 0.39224 1.00882 0.0
N581 N 0.4492 0.39144 0.06177 0.0
H582 H 0.35956 0.46579 0.46792 0.0
H583 H 0.35593 0.53144 0.58421 0.0
H584 H 0.24101 0.51722 0.49787 0.0
H585 H 0.45645 0.44468 0.55744 0.0
H586 H 0.31846 0.53773 0.55167 0.0
H587 H 0.40071 0.46933 0.4995 0.0
C588 C 0.3424 0.47861 0.48106 0.0
C589 C 0.29674 0.49134 0.48022 0.0
C590 C 0.34887 0.51751 0.55292 0.0
C591 C 0.3436 0.4951 0.51655 0.0
C592 C 0.37039 0.51416 0.57145 0.0
C593 C 0.40925 0.48727 0.57359 0.0
C594 C 0.36668 0.49437 0.5363 0.0
C595 C 0.42628 0.46528 0.55655 0.0
C596 C 0.36579 0.48022 0.49914 0.0
C597 C 0.27606 0.50685 0.49787 0.0
N598 N 0.405 0.46933 0.53869 0.0
N599 N 0.29957 0.50831 0.51527 0.0
H600 H 0.02938 0.7491 0.05996 0.0
H601 H 0.91433 0.54599 1.00181 0.0
H602 H 0.95881 0.64388 0.09073 0.0
H603 H 1.01625 0.63017 0.97572 0.0
H604 H 0.92797 0.58158 0.03426 0.0
H605 H 0.02322 0.70658 0.02885 0.0
C606 C 1.01289 0.7168 0.06019 0.0
C607 C 0.99463 0.7001 0.07802 0.0
C608 C 0.94761 0.59195 1.02145 0.0
C609 C 0.98672 0.6512 0.04222 0.0
C610 C 0.93972 0.57174 1.00287 0.0
C611 C 0.96407 0.585 0.98585 0.0
C612 C 0.97965 0.62628 1.02307 0.0
C613 C 0.99684 0.61842 0.98831 0.0
C614 C 1.0094 0.69246 0.04241 0.0
C615 C 0.97369 0.6579 0.0774 0.0
N616 N 1.00327 0.63809 1.00643 0.0
N617 N 0.96983 0.63518 0.05978 0.0
H618 H 0.77354 0.94153 0.47884 0.0
H619 H 0.56979 0.91483 0.55543 0.0
H620 H 0.63581 0.93573 0.45916 0.0
H621 H 0.69922 0.96582 0.57289 0.0
H622 H 0.59313 0.91935 0.52037 0.0
H623 H 0.74726 0.9483 0.51336 0.0
C624 C 0.73764 0.94211 0.48182 0.0
C625 C 0.70681 0.938 0.4661 0.0
C626 C 0.61632 0.92986 0.53185 0.0
C627 C 0.67628 0.94494 0.5058 0.0
C628 C 0.60314 0.92698 0.5519 0.0
C629 C 0.63267 0.93972 0.56722 0.0
C630 C 0.65973 0.94485 0.52694 0.0
C631 C 0.67527 0.95585 0.56165 0.0
C632 C 0.72263 0.94604 0.50154 0.0
C633 C 0.66065 0.93912 0.47082 0.0
N634 N 0.68765 0.95745 0.54204 0.0
N635 N 0.64678 0.94184 0.49026 0.0
H636 H 0.52089 0.89469 0.97535 0.0
H637 H 0.54676 0.87221 0.09432 0.0
H638 H 0.59188 0.99072 1.01141 0.0
H639 H 0.49356 0.76771 0.05685 0.0
H640 H 0.557 0.91941 0.0647 0.0
H641 H 0.50419 0.85127 1.00544 0.0
C642 C 0.53259 0.90698 0.98959 0.0
C643 C 0.55796 0.94656 0.99072 0.0
C644 C 0.54286 0.88623 0.06297 0.0
C645 C 0.53913 0.89654 0.02544 0.0
C646 C 0.53668 0.85934 0.07993 0.0
C647 C 0.51931 0.81573 0.07816 0.0
C648 C 0.53128 0.86968 0.04401 0.0
C649 C 0.50747 0.80083 0.05898 0.0
C650 C 0.52329 0.88194 1.0068 0.0
C651 C 0.5727 0.96024 1.00969 0.0
N652 N 0.51367 0.82762 0.04274 0.0
N653 N 0.5631 0.93538 0.02622 0.0
H654 H 0.76437 0.61797 0.48247 0.0
H655 H 0.98726 0.53888 0.54011 0.0
H656 H 0.88333 0.56726 0.45252 0.0
H657 H 0.86445 0.57938 0.57013 0.0
H658 H 0.95027 0.55011 0.50812 0.0
H659 H 0.80067 0.60489 0.51452 0.0
C660 C 0.79825 0.6042 0.48258 0.0
C661 C 0.82092 0.59414 0.46462 0.0
C662 C 0.93133 0.5565 0.52168 0.0
C663 C 0.86286 0.57872 0.50162 0.0
C664 C 0.95241 0.54988 0.54007 0.0
C665 C 0.92902 0.55773 0.55807 0.0
C666 C 0.88634 0.57136 0.52107 0.0
C667 C 0.88414 0.57309 0.5568 0.0
C668 C 0.81891 0.59653 0.50098 0.0
C669 C 0.86445 0.57538 0.4659 0.0
N670 N 0.86433 0.57929 0.53867 0.0
N671 N 0.88405 0.56854 0.48404 0.0
H672 H 0.04037 0.11797 0.13998 0.0
H673 H 1.01358 0.8783 0.19498 0.0
H674 H 1.00431 0.10164 0.20186 0.0
H675 H 0.02789 0.89024 0.1314 0.0
H676 H 0.02194 0.96001 0.19809 0.0
H677 H 0.04455 0.03568 0.13658 0.0
C678 C 0.03328 0.09744 0.15285 0.0
C679 C 0.02211 0.11767 0.17125 0.0
C680 C 0.02451 0.94481 0.18345 0.0
C681 C 0.02711 0.02242 0.16749 0.0
C682 C 0.02077 0.89784 0.18173 0.0
C683 C 0.0219 0.87681 0.16297 0.0
C684 C 0.02876 0.97164 0.16624 0.0
C685 C 0.02857 0.90461 0.14623 0.0
C686 C 0.03567 0.05018 0.15089 0.0
C687 C 1.01275 0.08838 0.18727 0.0
N688 N 0.03147 0.95032 0.14822 0.0
N689 N 1.01566 0.04281 0.18504 0.0
H690 H 0.22523 0.96497 0.66265 0.0
H691 H 0.47401 0.02081 0.62107 0.0
H692 H 0.25058 0.02972 0.60634 0.0
H693 H 0.45067 0.93326 0.67118 0.0
H694 H 0.39194 0.02589 0.616 0.0
H695 H 0.30703 0.95136 0.6661 0.0
C696 C 0.24768 0.97487 0.65069 0.0
C697 C 0.23069 0.9981 0.63407 0.0
C698 C 0.40482 1.00552 0.62811 0.0
C699 C 0.32476 0.98448 0.63829 0.0
C700 C 0.45179 1.00292 0.63108 0.0
C701 C 0.46969 0.9766 0.64657 0.0
C702 C 0.37519 0.982 0.64083 0.0
C703 C 0.43878 0.95391 0.65897 0.0
C704 C 0.29456 0.96781 0.6528 0.0
C705 C 0.26193 1.01142 0.61937 0.0
N706 N 0.39344 0.95723 0.65589 0.0
N707 N 0.30707 1.00496 0.62191 0.0
H708 H 0.42907 0.64609 0.18472 0.0
H709 H 0.4465 0.40205 0.13531 0.0
H710 H 0.48693 0.61868 0.12696 0.0
H711 H 0.36991 0.42729 0.18906 0.0
H712 H 0.45611 0.48274 0.13116 0.0
H713 H 0.40007 0.56865 0.18564 0.0
C714 C 0.43405 0.62436 0.17192 0.0
C715 C 0.45977 0.6389 0.1556 0.0
C716 C 0.43683 0.47084 0.1438 0.0
C717 C 0.42852 0.55006 0.15682 0.0
C718 C 0.43138 0.42454 0.1462 0.0
C719 C 0.40751 0.40758 0.16262 0.0
C720 C 0.41887 0.50086 0.15806 0.0
C721 C 0.3886 0.43873 0.17617 0.0
C722 C 0.4181 0.57998 0.17254 0.0
C723 C 0.46675 0.60892 0.1397 0.0
N724 N 0.39511 0.48376 0.17372 0.0
N725 N 0.45171 0.566 0.1408 0.0
H726 H 0.35343 0.5814 0.62155 0.0
H727 H 0.10469 0.5422 0.66266 0.0
H728 H 0.31834 0.58862 0.68404 0.0
H729 H 0.12955 0.58963 0.60289 0.0
H730 H 0.18524 0.54973 0.66987 0.0
H731 H 0.273 0.57857 0.61347 0.0
C732 C 0.32898 0.58323 0.63354 0.0
C733 C 0.34293 0.5849 0.65352 0.0
C734 C 0.17301 0.55837 0.65516 0.0
C735 C 0.25101 0.58045 0.6444 0.0
C736 C 0.12719 0.55359 0.65099 0.0
C737 C 0.1105 0.56531 0.63217 0.0
C738 C 0.20237 0.57433 0.64031 0.0
C739 C 0.14107 0.58039 0.61763 0.0
C740 C 0.28307 0.58132 0.62892 0.0
C741 C 0.30946 0.58715 0.66842 0.0
N742 N 0.18556 0.58435 0.62198 0.0
N743 N 0.26521 0.58417 0.66358 0.0
H744 H 0.04832 0.43229 0.93918 0.0
H745 H 1.00334 0.17976 0.90061 0.0
H746 H 0.96989 0.40114 0.88707 0.0
H747 H 0.06483 0.21012 0.95706 0.0
H748 H 0.98804 0.26047 0.89588 0.0
H749 H 0.05611 0.35096 0.94578 0.0
C750 C 0.03332 0.4085 0.929 0.0
C751 C 1.00844 0.4238 0.91255 0.0
C752 C 1.00414 0.24938 0.9095 0.0
C753 C 1.01649 0.33062 0.92013 0.0
C754 C 1.01214 0.20308 0.91234 0.0
C755 C 0.0353 0.18792 0.92929 0.0
C756 C 0.01962 0.2808 0.92365 0.0
C757 C 0.04675 0.22019 0.94377 0.0
C758 C 0.03727 0.36204 0.93287 0.0
C759 C 0.98921 0.39115 0.90002 0.0
N760 N 0.03945 0.26486 0.94052 0.0
N761 N 0.99362 0.34649 0.90403 0.0
H762 H 0.86922 1.01573 0.41575 0.0
H763 H 0.12386 1.01059 0.37247 0.0
H764 H 0.90608 0.93935 0.36345 0.0
H765 H 0.09016 0.04166 0.43358 0.0
H766 H 0.04417 0.99033 0.36687 0.0
H767 H 0.94935 0.03494 0.42017 0.0
C768 C 0.89388 1.00367 0.40501 0.0
C769 C 0.88057 0.97585 0.38921 0.0
C770 C 0.0545 1.00125 0.38154 0.0
C771 C 0.9728 0.9975 0.39419 0.0
C772 C 0.10022 1.01225 0.38479 0.0
C773 C 0.11433 0.02775 0.40356 0.0
C774 C 0.0224 1.00647 0.39704 0.0
C775 C 0.08134 0.03008 0.41881 0.0
C776 C 0.9398 1.01422 0.40762 0.0
C777 C 0.91457 0.96075 0.37592 0.0
N778 N 0.03738 0.02018 0.41518 0.0
N779 N 0.95871 0.97175 0.37865 0.0
H780 H 0.53898 0.35462 0.87782 0.0
H781 H 0.54159 0.14831 0.95278 0.0
H782 H 0.52002 0.37865 0.94077 0.0
H783 H 0.5013 0.1375 0.89147 0.0
H784 H 0.53753 0.23088 0.9501 0.0
H785 H 0.53316 0.27441 0.88362 0.0
C786 C 0.53421 0.34325 0.89301 0.0
C787 C 0.52993 0.37438 0.9088 0.0
C788 C 0.5283 0.2105 0.93739 0.0
C789 C 0.52302 0.28049 0.91554 0.0
C790 C 0.5299 0.16328 0.939 0.0
C791 C 0.52011 0.13566 0.92254 0.0
C792 C 0.5185 0.23057 0.91893 0.0
C793 C 0.50753 0.15718 0.90475 0.0
C794 C 0.5304 0.29701 0.89624 0.0
C795 C 0.52386 0.35642 0.92809 0.0
N796 N 0.50776 0.20303 0.90335 0.0
N797 N 0.52069 0.31079 0.93091 0.0
H798 H 0.64912 0.48641 0.3871 0.0
H799 H 0.38659 0.54429 0.41083 0.0
H800 H 0.60402 0.61619 0.40818 0.0
H801 H 0.43255 0.42934 0.37683 0.0
H802 H 0.4659 0.56856 0.41358 0.0
H803 H 0.57021 0.46109 0.38755 0.0
C804 C 0.6229 0.50929 0.39221 0.0
C805 C 0.63361 0.55354 0.39761 0.0
C806 C 0.4584 0.53802 0.40551 0.0
C807 C 0.54256 0.52495 0.398 0.0
C808 C 0.41297 0.52428 0.40387 0.0
C809 C 0.40212 0.48474 0.39347 0.0
C810 C 0.4935 0.51182 0.39693 0.0
C811 C 0.43846 0.46012 0.38498 0.0
C812 C 0.57764 0.49502 0.39228 0.0
C813 C 0.59763 0.58181 0.4038 0.0
N814 N 0.48191 0.47384 0.38694 0.0
N815 N 0.55411 0.56719 0.4038 0.0
H816 H 1.01437 0.70085 0.95508 0.0
H817 H 0.09698 0.90809 0.88863 0.0
H818 H 0.06382 0.68617 0.89494 0.0
H819 H 0.03388 0.92502 0.94619 0.0
H820 H 0.08935 0.82695 0.8916 0.0
H821 H 0.02953 0.78133 0.95363 0.0
C822 C 0.0301 0.71429 0.94178 0.0
C823 C 0.03833 0.68631 0.92519 0.0
C824 C 0.07691 0.84815 0.90359 0.0
C825 C 0.054 0.77958 0.92311 0.0
C826 C 0.08102 0.89472 0.90189 0.0
C827 C 0.06593 0.92372 0.91718 0.0
C828 C 0.05786 0.82964 0.92084 0.0
C829 C 0.04552 0.90417 0.93394 0.0
C830 C 0.03793 0.76055 0.94085 0.0
C831 C 0.05764 0.70603 0.90822 0.0
N832 N 0.04236 0.85835 0.93537 0.0
N833 N 0.06429 0.75145 0.90754 0.0
H834 H 0.61475 0.96105 0.40282 0.0
H835 H 0.39554 0.0941 0.36303 0.0
H836 H 0.61503 0.09255 0.37598 0.0
H837 H 0.38136 0.99762 0.41042 0.0
H838 H 0.47648 0.08031 0.36256 0.0
H839 H 0.53116 0.96202 0.4016 0.0
C840 C 0.59746 0.98989 0.39651 0.0
C841 C 0.62245 0.02679 0.38944 0.0
C842 C 0.45592 0.06152 0.37294 0.0
C843 C 0.52655 0.02786 0.38782 0.0
C844 C 0.40931 0.06908 0.3731 0.0
C845 C 0.38095 0.04693 0.38671 0.0
C846 C 0.47563 0.03137 0.38652 0.0
C847 C 0.40148 1.01507 0.39944 0.0
C848 C 0.54967 0.9905 0.39592 0.0
C849 C 0.59774 0.06332 0.38165 0.0
N850 N 0.44754 1.00848 0.39915 0.0
N851 N 0.55181 0.06273 0.38095 0.0
H852 H 0.46038 0.65361 0.95341 0.0
H853 H 0.51515 0.84775 0.87693 0.0
H854 H 0.54134 0.63252 0.90079 0.0
H855 H 0.49422 0.88056 0.939 0.0
H856 H 0.51689 0.76854 0.88537 0.0
H857 H 0.4681 0.73535 0.94924 0.0
C858 C 0.48134 0.66617 0.94142 0.0
C859 C 0.50134 0.63594 0.92775 0.0
C860 C 0.51184 0.79289 0.89721 0.0
C861 C 0.5079 0.72986 0.92216 0.0
C862 C 0.51033 0.83857 0.89241 0.0
C863 C 0.5046 0.87181 0.90725 0.0
C864 C 0.50667 0.77915 0.91705 0.0
C865 C 0.49854 0.85664 0.92698 0.0
C866 C 0.48522 0.71291 0.93891 0.0
C867 C 0.52652 0.65431 0.91203 0.0
N868 N 0.49952 0.81151 0.93129 0.0
N869 N 0.52837 0.69986 0.90948 0.0
H870 H 0.89606 0.57581 0.40316 0.0
H871 H 0.12662 0.46175 0.3631 0.0
H872 H 0.90509 0.44922 0.37207 0.0
H873 H 0.12776 0.54401 0.41588 0.0
H874 H 0.04524 0.47379 0.36042 0.0
H875 H 0.97953 0.57934 0.40306 0.0
C876 C 0.91534 0.54902 0.39615 0.0
C877 C 0.89303 0.51197 0.3877 0.0
C878 C 0.06324 0.4903 0.37233 0.0
C879 C 0.98884 0.51637 0.38715 0.0
C880 C 0.11006 0.48408 0.37368 0.0
C881 C 0.13479 0.50288 0.38941 0.0
C882 C 0.03991 0.51553 0.38688 0.0
C883 C 0.11064 0.53002 0.40312 0.0
C884 C 0.96307 0.551 0.39617 0.0
C885 C 0.92031 0.47833 0.37889 0.0
N886 N 0.06465 0.5353 0.40163 0.0
N887 N 0.96618 0.48149 0.37875 0.0
H888 H 0.06044 0.62309 0.14877 0.0
H889 H 0.99799 0.36531 0.17502 0.0
H890 H 0.95469 0.58513 0.18959 0.0
H891 H 0.12779 0.40292 0.15175 0.0
H892 H 0.97584 0.44558 0.17551 0.0
H893 H 0.08141 0.54268 0.14547 0.0
C894 C 0.04183 0.59824 0.15713 0.0
C895 C 1.00585 0.61166 0.1696 0.0
C896 C 1.00905 0.43617 0.1701 0.0
C897 C 0.02884 0.51902 0.16543 0.0
C898 C 0.02148 0.3902 0.16965 0.0
C899 C 0.06484 0.37702 0.16334 0.0
C900 C 0.03987 0.46941 0.16392 0.0
C901 C 0.09405 0.41129 0.15682 0.0
C902 C 0.05364 0.55219 0.15517 0.0
C903 C 0.98278 0.57719 0.17983 0.0
N904 N 0.08115 0.45549 0.15726 0.0
N905 N 0.99438 0.53305 0.17743 0.0
H906 H 0.73456 0.08335 0.65762 0.0
H907 H 0.96304 0.98867 0.61229 0.0
H908 H 0.72767 0.98599 0.61022 0.0
H909 H 0.94594 0.02121 0.67446 0.0
H910 H 0.87984 0.9887 0.60871 0.0
H911 H 0.81495 0.06614 0.66134 0.0
C912 C 0.74982 0.0578 0.64818 0.0
C913 C 0.72355 0.0349 0.63416 0.0
C914 C 0.89448 0.99479 0.62321 0.0
C915 C 0.81697 1.0163 0.63766 0.0
C916 C 0.94199 0.99416 0.62531 0.0
C917 C 0.96175 1.00476 0.64375 0.0
C918 C 0.8668 1.00711 0.63954 0.0
C919 C 0.93245 1.01287 0.65995 0.0
C920 C 0.79585 0.04804 0.65025 0.0
C921 C 0.74587 1.00335 0.62175 0.0
N922 N 0.88699 1.01467 0.65741 0.0
N923 N 0.79125 0.99521 0.62368 0.0
H924 H 0.5136 0.91422 0.19817 0.0
H925 H 0.45391 0.10203 0.117 0.0
H926 H 0.46488 0.88322 0.13929 0.0
H927 H 0.4888 0.1332 0.17784 0.0
H928 H 0.45721 0.02216 0.125 0.0
H929 H 0.50187 0.99404 0.19146 0.0
C930 C 0.49978 0.9241 0.18389 0.0
C931 C 0.49067 0.89171 0.1692 0.0
C932 C 0.46419 0.04637 0.13662 0.0
C933 C 0.47788 0.98375 0.16127 0.0
C934 C 0.46259 0.09218 0.13205 0.0
C935 C 0.47136 0.12471 0.14674 0.0
C936 C 0.47485 0.03252 0.15605 0.0
C937 C 0.48212 0.1095 0.16598 0.0
C938 C 0.49331 0.96986 0.18004 0.0
C939 C 0.47263 0.90679 0.15104 0.0
N940 N 0.48364 0.06459 0.17005 0.0
N941 N 0.46737 0.95169 0.14751 0.0
H942 H 0.58029 0.61303 0.64652 0.0
H943 H 0.80761 0.61809 0.66989 0.0
H944 H 0.61619 0.49153 0.61493 0.0
H945 H 0.82849 0.52862 0.61992 0.0
H946 H 0.72731 0.61978 0.6628 0.0
H947 H 0.66035 0.63248 0.64803 0.0
C948 C 0.60496 0.59108 0.63946 0.0
C949 C 0.59182 0.55042 0.63078 0.0
C950 C 0.74931 0.60058 0.65304 0.0
C951 C 0.68341 0.57106 0.63325 0.0
C952 C 0.79535 0.59906 0.65728 0.0
C953 C 0.82495 0.5728 0.6456 0.0
C954 C 0.7325 0.57559 0.63696 0.0
C955 C 0.80698 0.54903 0.62944 0.0
C956 C 0.65081 0.60163 0.6407 0.0
C957 C 0.62508 0.523 0.62196 0.0
N958 N 0.76192 0.55062 0.62575 0.0
N959 N 0.66929 0.53355 0.6236 0.0
H960 H 0.179 0.34642 0.34562 0.0
H961 H 0.19716 0.29075 0.22843 0.0
H962 H 0.28494 0.39576 0.30755 0.0
H963 H 0.08058 0.26154 0.26456 0.0
H964 H 0.23544 0.31898 0.25824 0.0
H965 H 0.14819 0.30512 0.31718 0.0
C966 C 0.1962 0.34807 0.33139 0.0
C967 C 0.23449 0.37497 0.329 0.0
C968 C 0.20157 0.30609 0.25966 0.0
C969 C 0.19912 0.32794 0.29622 0.0
C970 C 0.17983 0.28962 0.24264 0.0
C971 C 0.13532 0.27409 0.24389 0.0
C972 C 0.17884 0.30683 0.27814 0.0
C973 C 0.11454 0.27386 0.26279 0.0
C974 C 0.17839 0.32472 0.31508 0.0
C975 C 0.25499 0.37607 0.31004 0.0
N976 N 0.13629 0.29013 0.27907 0.0
N977 N 0.23703 0.35315 0.29443 0.0
H978 H 0.03139 0.06364 0.72608 0.0
H979 H 0.113 0.99595 0.83629 0.0
H980 H 0.12929 0.95903 0.73789 0.0
H981 H 0.99758 0.08116 0.82487 0.0
H982 H 0.12407 0.98722 0.80024 0.0
H983 H 0.0231 0.07576 0.76211 0.0
C984 C 0.05131 0.04338 0.73621 0.0
C985 C 0.08084 1.01002 0.72885 0.0
C986 C 0.0963 1.00783 0.80563 0.0
C987 C 0.07154 0.02371 0.77023 0.0
C988 C 0.09012 1.01302 0.82624 0.0
C989 C 0.05412 0.03911 0.83373 0.0
C990 C 0.06656 0.02924 0.79229 0.0
C991 C 0.02535 0.06014 0.81987 0.0
C992 C 0.0464 0.05014 0.7568 0.0
C993 C 0.10555 0.98459 0.74279 0.0
N994 N 0.03222 0.05482 0.79991 0.0
N995 N 0.10041 0.99199 0.76272 0.0
H996 H 0.32336 0.1746 0.33326 0.0
H997 H 0.33289 0.19241 0.21382 0.0
H998 H 0.23342 0.10186 0.29474 0.0
H999 H 0.41635 0.269 0.25359 0.0
H1000 H 0.29272 0.16204 0.24289 0.0
H1001 H 0.35471 0.21201 0.30413 0.0
C1002 C 0.30974 0.16661 0.31877 0.0
C1003 C 0.27555 0.13454 0.3167 0.0
C1004 C 0.31968 0.1857 0.24522 0.0
C1005 C 0.31224 0.17738 0.28284 0.0
C1006 C 0.34245 0.20332 0.22859 0.0
C1007 C 0.37857 0.23301 0.23116 0.0
C1008 C 0.33303 0.19783 0.26461 0.0
C1009 C 0.38949 0.24556 0.25078 0.0
C1010 C 0.32797 0.18798 0.30202 0.0
C1011 C 0.26011 0.12564 0.29724 0.0
N1012 N 0.36715 0.22778 0.26664 0.0
N1013 N 0.27863 0.14671 0.28115 0.0
H1014 H 0.56589 0.58405 0.83138 0.0
H1015 H 0.44559 0.50295 0.73089 0.0
H1016 H 0.45258 0.49434 0.83105 0.0
H1017 H 0.54977 0.60298 0.73282 0.0
H1018 H 0.44873 0.49722 0.76729 0.0
H1019 H 0.56129 0.58967 0.79515 0.0
C1020 C 0.54007 0.56543 0.8237 0.0
C1021 C 0.50966 0.5386 0.83436 0.0
C1022 C 0.47087 0.52044 0.75974 0.0
C1023 C 0.50404 0.54499 0.79264 0.0
C1024 C 0.46934 0.5235 0.73891 0.0
C1025 C 0.49752 0.55349 0.72868 0.0
C1026 C 0.50099 0.54736 0.77047 0.0
C1027 C 0.52707 0.57978 0.74 0.0
C1028 C 0.53731 0.56882 0.80297 0.0
C1029 C 0.47645 0.51579 0.82352 0.0
N1030 N 0.52808 0.57601 0.7602 0.0
N1031 N 0.47466 0.51933 0.80328 0.0
H1032 H 0.06778 0.59433 0.81769 0.0
H1033 H 0.91922 0.48986 0.73005 0.0
H1034 H 0.95132 0.51191 0.82821 0.0
H1035 H 0.02057 0.58991 0.71955 0.0
H1036 H 0.93043 0.49796 0.76594 0.0
H1037 H 0.05175 0.59296 0.78196 0.0
C1038 C 0.03892 0.57573 0.81254 0.0
C1039 C 1.0111 0.55286 0.82614 0.0
C1040 C 0.95008 0.51844 0.75586 0.0
C1041 C 0.9923 0.55148 0.78493 0.0
C1042 C 0.94376 0.51375 0.73532 0.0
C1043 C 0.96921 0.53902 0.72169 0.0
C1044 C 0.98257 0.54833 0.76306 0.0
C1045 C 1.00008 0.56991 0.72947 0.0
C1046 C 0.02959 0.57529 0.79207 0.0
C1047 C 0.97365 0.53017 0.81842 0.0
N1048 N 1.00624 0.57334 0.7496 0.0
N1049 N 0.96559 0.52981 0.7984 0.0
H1050 H 0.92296 0.75471 0.25228 0.0
H1051 H 0.76176 0.95906 0.2872 0.0
H1052 H 0.86635 0.84946 0.21052 0.0
H1053 H 0.83399 0.87113 0.3272 0.0
H1054 H 0.79537 0.91837 0.25877 0.0
H1055 H 0.88499 0.79437 0.27946 0.0
C1056 C 0.90242 0.78391 0.24879 0.0
C1057 C 0.89836 0.79889 0.229 0.0
C1058 C 0.80381 0.90802 0.27378 0.0
C1059 C 0.85443 0.84515 0.26041 0.0
C1060 C 0.78478 0.93139 0.29005 0.0
C1061 C 0.79465 0.91842 0.30975 0.0
C1062 C 0.83313 0.87138 0.27716 0.0
C1063 C 0.82459 0.88203 0.31241 0.0
C1064 C 0.88067 0.80666 0.26439 0.0
C1065 C 0.8704 0.83654 0.22548 0.0
N1066 N 0.84261 0.86 0.2964 0.0
N1067 N 0.84979 0.85854 0.24102 0.0
H1068 H 0.48941 0.97782 0.82308 0.0
H1069 H 0.64497 0.06131 0.73397 0.0
H1070 H 0.61646 0.0426 0.83335 0.0
H1071 H 0.54948 0.95473 0.72626 0.0
H1072 H 0.63307 0.05786 0.77013 0.0
H1073 H 0.50799 0.97216 0.78751 0.0
C1074 C 0.52121 0.99096 0.81784 0.0
C1075 C 0.55127 1.01108 0.83124 0.0
C1076 C 0.61501 0.03487 0.7606 0.0
C1077 C 0.57275 1.00481 0.79037 0.0
C1078 C 0.62172 0.0369 0.73996 0.0
C1079 C 0.59813 1.00829 0.72709 0.0
C1080 C 0.58362 1.00467 0.76856 0.0
C1081 C 0.56854 0.97715 0.73566 0.0
C1082 C 0.53195 0.98738 0.79754 0.0
C1083 C 0.59235 0.0268 0.8236 0.0
N1084 N 0.56163 0.97659 0.75581 0.0
N1085 N 0.60162 0.02384 0.80368 0.0
H1086 H 0.56033 0.75233 0.25236 0.0
H1087 H 0.7402 0.56713 0.28921 0.0
H1088 H 0.63335 0.6657 0.21177 0.0
H1089 H 0.66491 0.65441 0.32879 0.0
H1090 H 0.70355 0.60338 0.2607 0.0
H1091 H 0.60111 0.71874 0.28022 0.0
C1092 C 0.58503 0.7262 0.24928 0.0
C1093 C 0.59298 0.71162 0.22961 0.0
C1094 C 0.69505 0.61461 0.27561 0.0
C1095 C 0.64015 0.6725 0.26175 0.0
C1096 C 0.7158 0.59369 0.29197 0.0
C1097 C 0.70573 0.60751 0.31158 0.0
C1098 C 0.6637 0.64967 0.27876 0.0
C1099 C 0.6742 0.64272 0.31406 0.0
C1100 C 0.60843 0.70701 0.26525 0.0
C1101 C 0.62616 0.67816 0.22661 0.0
N1102 N 0.65436 0.66237 0.29792 0.0
N1103 N 0.64821 0.65952 0.24249 0.0
H1104 H 0.24961 0.20586 0.10602 0.0
H1105 H 0.13311 0.07195 0.13135 0.0
H1106 H 0.37002 0.12407 0.10602 0.0
H1107 H 0.25714 0.05452 0.16328 0.0
H1108 H 0.17413 0.06294 0.09998 0.0
H1109 H 0.20585 0.13959 0.09878 0.0
C1110 C 0.26711 0.17421 0.10349 0.0
C1111 C 0.31283 0.16958 0.10796 0.0
C1112 C 0.1921 0.05854 0.11387 0.0
C1113 C 0.26281 0.09306 0.10129 0.0
C1114 C 0.16861 0.06309 0.13188 0.0
C1115 C 0.19292 0.06862 0.14964 0.0
C1116 C 0.23935 0.06056 0.11429 0.0
C1117 C 0.23791 0.0543 0.1496 0.0
C1118 C 0.24211 0.13584 0.09929 0.0
C1119 C 0.33405 0.12812 0.10389 0.0
N1120 N 0.26049 0.05266 0.13198 0.0
N1121 N 0.30864 0.0908 0.10159 0.0
H1122 H 0.41124 0.31518 0.67873 0.0
H1123 H 0.16294 0.22931 0.69616 0.0
H1124 H 0.30012 0.40224 0.6957 0.0
H1125 H 0.27572 0.14574 0.678 0.0
H1126 H 0.2153 0.29 0.70354 0.0
H1127 H 0.36561 0.25038 0.68667 0.0
C1128 C 0.37757 0.32081 0.68456 0.0
C1129 C 0.35918 0.3643 0.68616 0.0
C1130 C 0.22858 0.25807 0.69828 0.0
C1131 C 0.30614 0.2899 0.69466 0.0
C1132 C 0.19871 0.22357 0.69393 0.0
C1133 C 0.21491 0.18276 0.68605 0.0
C1134 C 0.27482 0.25167 0.69459 0.0
C1135 C 0.26164 0.17663 0.68401 0.0
C1136 C 0.35133 0.28364 0.68895 0.0
C1137 C 0.31515 0.36924 0.69365 0.0
N1138 N 0.28986 0.21096 0.68796 0.0
N1139 N 0.28978 0.33242 0.69728 0.0
H1140 H 0.25596 0.15653 0.85866 0.0
H1141 H 0.39914 0.33242 0.86518 0.0
H1142 H 0.15826 0.25257 0.88121 0.0
H1143 H 0.28146 0.41664 0.87345 0.0
H1144 H 0.35145 0.27142 0.85457 0.0
H1145 H 0.3031 0.21862 0.84778 0.0
C1146 C 0.2445 0.19072 0.8613 0.0
C1147 C 0.20379 0.19941 0.87132 0.0
C1148 C 0.33566 0.30338 0.85799 0.0
C1149 C 0.25777 0.27073 0.8594 0.0
C1150 C 0.3631 0.33825 0.86421 0.0
C1151 C 0.34389 0.37885 0.87083 0.0
C1152 C 0.28862 0.30927 0.85862 0.0
C1153 C 0.29743 0.38546 0.8688 0.0
C1154 C 0.27143 0.2263 0.8551 0.0
C1155 C 0.18957 0.2442 0.87367 0.0
N1156 N 0.2712 0.35053 0.86333 0.0
N1157 N 0.21684 0.27807 0.86805 0.0
H1158 H 0.30518 0.24566 0.45286 0.0
H1159 H 0.12263 0.28892 0.4182 0.0
H1160 H 0.25043 0.37138 0.4738 0.0
H1161 H 0.12972 0.15762 0.44467 0.0
H1162 H 0.14772 0.32138 0.44932 0.0
H1163 H 0.23746 0.20822 0.46402 0.0
C1164 C 0.28015 0.26503 0.46108 0.0
C1165 C 0.28169 0.31206 0.46107 0.0
C1166 C 0.14157 0.28555 0.44889 0.0
C1167 C 0.20291 0.27029 0.47243 0.0
C1168 C 0.12647 0.26708 0.43101 0.0
C1169 C 0.12749 0.22037 0.42849 0.0
C1170 C 0.15949 0.25665 0.46356 0.0
C1171 C 0.13138 0.1939 0.44576 0.0
C1172 C 0.2408 0.24371 0.46727 0.0
C1173 C 0.24898 0.33514 0.47243 0.0
N1174 N 0.1504 0.21193 0.4623 0.0
N1175 N 0.20919 0.31468 0.47646 0.0
H1176 H 0.80641 0.66764 0.86198 0.0
H1177 H 0.76679 0.9237 0.89075 0.0
H1178 H 0.90912 0.75684 0.88386 0.0
H1179 H 0.66043 0.83154 0.87609 0.0
H1180 H 0.82213 0.86831 0.87904 0.0
H1181 H 0.75567 0.73229 0.85822 0.0
C1182 C 0.81844 0.70081 0.86576 0.0
C1183 C 0.86168 0.70673 0.87363 0.0
C1184 C 0.78663 0.86045 0.87812 0.0
C1185 C 0.80423 0.78054 0.86926 0.0
C1186 C 0.75511 0.89208 0.88476 0.0
C1187 C 0.70923 0.88151 0.88486 0.0
C1188 C 0.77199 0.81806 0.8717 0.0
C1189 C 0.69574 0.84026 0.87684 0.0
C1190 C 0.78964 0.73769 0.86348 0.0
C1191 C 0.87607 0.75058 0.87774 0.0
N1192 N 0.72707 0.80967 0.87086 0.0
N1193 N 0.84715 0.78571 0.87579 0.0
H1194 H 0.80144 0.64872 0.31404 0.0
H1195 H 0.69253 0.88408 0.31561 0.0
H1196 H 0.85499 0.77294 0.33642 0.0
H1197 H 0.64172 0.76106 0.3406 0.0
H1198 H 0.7428 0.84024 0.29421 0.0
H1199 H 0.74668 0.69155 0.29455 0.0
C1200 C 0.80361 0.68505 0.31397 0.0
C1201 C 0.83111 0.70745 0.32775 0.0
C1202 C 0.7189 0.82289 0.30359 0.0
C1203 C 0.76804 0.75576 0.30588 0.0
C1204 C 0.68978 0.8478 0.3158 0.0
C1205 C 0.66482 0.82606 0.33078 0.0
C1206 C 0.72286 0.77649 0.30659 0.0
C1207 C 0.66204 0.77911 0.32988 0.0
C1208 C 0.77192 0.70933 0.30293 0.0
C1209 C 0.83304 0.75438 0.32661 0.0
N1210 N 0.69214 0.75571 0.31851 0.0
N1211 N 0.80054 0.77711 0.31648 0.0
H1212 H 0.87496 0.77061 0.08691 0.0
H1213 H 0.62712 0.73515 0.08801 0.0
H1214 H 0.79784 0.65279 0.10068 0.0
H1215 H 0.70521 0.85095 0.10382 0.0
H1216 H 0.68547 0.71272 0.06417 0.0
H1217 H 0.81566 0.79563 0.06426 0.0
C1218 C 0.84639 0.74892 0.08437 0.0
C1219 C 0.83925 0.71133 0.09657 0.0
C1220 C 0.68878 0.74439 0.072 0.0
C1221 C 0.7717 0.74008 0.07131 0.0
C1222 C 0.65576 0.75693 0.08579 0.0
C1223 C 0.66341 0.79306 0.09877 0.0
C1224 C 0.72989 0.76726 0.07204 0.0
C1225 C 0.69954 0.8214 0.09477 0.0
C1226 C 0.81278 0.763 0.0713 0.0
C1227 C 0.80313 0.68332 0.09226 0.0
N1228 N 0.73243 0.80714 0.08207 0.0
N1229 N 0.76969 0.69897 0.0803 0.0
H1230 H 0.81548 0.91265 0.69144 0.0
H1231 H 0.96574 0.74261 0.68327 0.0
H1232 H 0.81062 0.89759 0.62756 0.0
H1233 H 0.97671 0.77571 0.62096 0.0
H1234 H 0.9292 0.81471 0.68943 0.0
H1235 H 0.89165 0.88008 0.69124 0.0
C1236 C 0.83069 0.9028 0.67738 0.0
C1237 C 0.80616 0.90572 0.65959 0.0
C1238 C 0.9413 0.80759 0.67453 0.0
C1239 C 0.89246 0.86787 0.6592 0.0
C1240 C 0.96242 0.76619 0.67105 0.0
C1241 C 0.9729 0.75298 0.6515 0.0
C1242 C 0.93046 0.83541 0.65824 0.0
C1243 C 0.96798 0.78449 0.63617 0.0
C1244 C 0.87406 0.88395 0.67725 0.0
C1245 C 0.8277 0.8939 0.64171 0.0
N1246 N 0.94598 0.82383 0.63977 0.0
N1247 N 0.8693 0.87491 0.64201 0.0
loop_
_geom_bond_atom_site_label_1
_geom_bond_atom_site_label_2
_geom_bond_distance
_geom_bond_site_symmetry_2
_ccdc_geom_bond_type
C0 C1 1.351 . S
C0 N3 1.368 . S
C0 H5 0.931 . S
C1 C0 1.351 . S
C1 N2 1.373 . S
C1 H29 0.930 . S
N2 C1 1.373 . S
N2 C4 1.340 . S
N3 C0 1.368 . S
N3 C4 1.322 . S
N3 Co6 2.135 . S
C4 N2 1.340 . S
C4 N3 1.322 . S
C4 H28 0.929 1_455 S
H5 C0 0.931 . S
Co6 N3 2.135 . S
Co6 N9 2.121 . S
Co6 O14 2.055 1_455 S
Co6 O17 2.039 1_455 S
Co6 N20 2.140 . S
C7 O8 1.227 1_655 S
C7 O17 1.265 . S
O8 C7 1.227 1_455 S
N9 Co6 2.121 . S
N9 C11 1.375 . S
N9 C12 1.313 . S
C10 C11 1.338 . S
C10 N13 1.377 . S
C10 H30 0.930 . S
C11 N9 1.375 . S
C11 C10 1.338 . S
C11 H15 0.931 . S
C12 N9 1.313 . S
C12 N13 1.344 . S
C12 H16 0.930 . S
N13 C10 1.377 . S
N13 C12 1.344 . S
O14 Co6 2.055 1_655 S
O14 C18 1.252 . S
H15 C11 0.931 . S
H16 C12 0.930 . S
O17 Co6 2.039 1_655 S
O17 C7 1.265 . S
C18 O14 1.252 . S
C18 O19 1.227 1_655 S
O19 C18 1.227 1_455 S
N20 Co6 2.140 . S
N20 C23 1.346 . S
N20 C24 1.345 . S
C21 C22 1.387 . S
C21 C25 1.391 . S
C22 C21 1.387 . S
C22 C23 1.369 . S
C22 H31 0.929 . S
C23 N20 1.346 . S
C23 C22 1.369 . S
C23 H26 0.928 . S
C24 N20 1.345 . S
C24 C25 1.371 . S
C24 H27 0.931 . S
C25 C21 1.391 . S
C25 C24 1.371 . S
C25 H32 0.930 . S
H26 C23 0.928 . S
H27 C24 0.931 . S
H28 C4 0.929 1_655 S
H29 C1 0.930 . S
H30 C10 0.930 . S
H31 C22 0.929 . S
H32 C25 0.930 . S
C33 C34 1.351 . S
C33 N36 1.368 . S
C33 H38 0.931 . S
C34 C33 1.351 . S
C34 N35 1.373 . S
C34 H62 0.930 . S
N35 C34 1.373 . S
N35 C37 1.340 . S
N36 C33 1.368 . S
N36 C37 1.322 . S
N36 Co39 2.135 . S
C37 N35 1.340 . S
C37 N36 1.322 . S
C37 H61 0.929 1_545 S
H38 C33 0.931 . S
Co39 N36 2.135 . S
Co39 N42 2.121 . S
Co39 O47 2.055 1_545 S
Co39 O50 2.039 1_545 S
Co39 N53 2.140 . S
C40 O41 1.227 1_565 S
C40 O50 1.265 . S
O41 C40 1.227 1_545 S
N42 Co39 2.121 . S
N42 C44 1.375 . S
N42 C45 1.313 . S
C43 C44 1.338 . S
C43 N46 1.377 . S
C43 H63 0.930 . S
C44 N42 1.375 . S
C44 C43 1.338 . S
C44 H48 0.931 . S
C45 N42 1.313 . S
C45 N46 1.344 . S
C45 H49 0.930 . S
N46 C43 1.377 . S
N46 C45 1.344 . S
O47 Co39 2.055 1_565 S
O47 C51 1.253 . S
H48 C44 0.931 . S
H49 C45 0.930 . S
O50 Co39 2.039 1_565 S
O50 C40 1.265 . S
C51 O47 1.253 . S
C51 O52 1.227 1_565 S
O52 C51 1.227 1_545 S
N53 Co39 2.140 . S
N53 C56 1.346 . S
N53 C57 1.345 . S
C54 C55 1.387 . S
C54 C58 1.391 . S
C55 C54 1.387 . S
C55 C56 1.369 . S
C55 H64 0.929 . S
C56 N53 1.346 . S
C56 C55 1.369 . S
C56 H59 0.928 . S
C57 N53 1.345 . S
C57 C58 1.371 . S
C57 H60 0.931 . S
C58 C54 1.391 . S
C58 C57 1.371 . S
C58 H65 0.930 . S
H59 C56 0.928 . S
H60 C57 0.931 . S
H61 C37 0.929 1_565 S
H62 C34 0.930 . S
H63 C43 0.930 . S
H64 C55 0.929 . S
H65 C58 0.930 . S
C66 C67 1.351 . S
C66 N69 1.368 . S
C66 H71 0.931 . S
C67 C66 1.351 . S
C67 N68 1.373 . S
C67 H95 0.930 . S
N68 C67 1.373 . S
N68 C70 1.340 . S
N69 C66 1.368 . S
N69 C70 1.321 . S
N69 Co72 2.135 . S
C70 N68 1.340 . S
C70 N69 1.321 . S
C70 H94 0.930 . S
H71 C66 0.931 . S
Co72 N69 2.135 . S
Co72 N75 2.121 . S
Co72 O80 2.055 . S
Co72 O83 2.039 . S
Co72 N86 2.140 . S
C73 O74 1.227 . S
C73 O83 1.265 . S
O74 C73 1.227 . S
N75 Co72 2.121 . S
N75 C77 1.375 . S
N75 C78 1.313 . S
C76 C77 1.338 . S
C76 N79 1.377 . S
C76 H96 0.930 . S
C77 N75 1.375 . S
C77 C76 1.338 . S
C77 H81 0.931 . S
C78 N75 1.313 . S
C78 N79 1.344 . S
C78 H82 0.930 . S
N79 C76 1.377 . S
N79 C78 1.344 . S
O80 Co72 2.055 . S
O80 C84 1.253 . S
H81 C77 0.931 . S
H82 C78 0.930 . S
O83 Co72 2.039 . S
O83 C73 1.265 . S
C84 O80 1.253 . S
C84 O85 1.227 . S
O85 C84 1.227 . S
N86 Co72 2.140 . S
N86 C89 1.346 . S
N86 C90 1.345 . S
C87 C88 1.387 . S
C87 C91 1.391 . S
C88 C87 1.387 . S
C88 C89 1.369 . S
C88 H97 0.929 . S
C89 N86 1.346 . S
C89 C88 1.369 . S
C89 H92 0.928 . S
C90 N86 1.345 . S
C90 C91 1.371 . S
C90 H93 0.931 . S
C91 C87 1.391 . S
C91 C90 1.371 . S
C91 H98 0.930 . S
H92 C89 0.928 . S
H93 C90 0.931 . S
H94 C70 0.930 . S
H95 C67 0.930 . S
H96 C76 0.930 . S
H97 C88 0.929 . S
H98 C91 0.930 . S
C99 C100 1.351 . S
C99 N102 1.368 . S
C99 H104 0.931 . S
C100 C99 1.351 . S
C100 N101 1.373 . S
C100 H128 0.930 . S
N101 C100 1.373 . S
N101 C103 1.340 . S
N102 C99 1.368 . S
N102 C103 1.321 . S
N102 Co105 2.135 . S
C103 N101 1.340 . S
C103 N102 1.321 . S
C103 H127 0.930 . S
H104 C99 0.931 . S
Co105 N102 2.135 . S
Co105 N108 2.121 . S
Co105 O113 2.055 . S
Co105 O116 2.039 . S
Co105 N119 2.140 . S
C106 O107 1.227 . S
C106 O116 1.265 . S
O107 C106 1.227 . S
N108 Co105 2.121 . S
N108 C110 1.375 . S
N108 C111 1.313 . S
C109 C110 1.338 . S
C109 N112 1.377 . S
C109 H129 0.930 . S
C110 N108 1.375 . S
C110 C109 1.338 . S
C110 H114 0.931 . S
C111 N108 1.313 . S
C111 N112 1.344 . S
C111 H115 0.930 . S
N112 C109 1.377 . S
N112 C111 1.344 . S
O113 Co105 2.055 . S
O113 C117 1.253 . S
H114 C110 0.931 . S
H115 C111 0.930 . S
O116 Co105 2.039 . S
O116 C106 1.265 . S
C117 O113 1.253 . S
C117 O118 1.227 . S
O118 C117 1.227 . S
N119 Co105 2.140 . S
N119 C122 1.346 . S
N119 C123 1.345 . S
C120 C121 1.387 . S
C120 C124 1.391 . S
C121 C120 1.387 . S
C121 C122 1.369 . S
C121 H130 0.929 . S
C122 N119 1.346 . S
C122 C121 1.369 . S
C122 H125 0.928 . S
C123 N119 1.345 . S
C123 C124 1.371 . S
C123 H126 0.931 . S
C124 C120 1.391 . S
C124 C123 1.371 . S
C124 H131 0.930 . S
H125 C122 0.928 . S
H126 C123 0.931 . S
H127 C103 0.930 . S
H128 C100 0.930 . S
H129 C109 0.930 . S
H130 C121 0.929 . S
H131 C124 0.930 . S
C132 C133 1.351 . S
C132 N135 1.368 . S
C132 H137 0.931 . S
C133 C132 1.351 . S
C133 N134 1.373 . S
C133 H161 0.930 . S
N134 C133 1.373 . S
N134 C136 1.340 . S
N135 C132 1.368 . S
N135 C136 1.322 . S
N135 Co138 2.135 . S
C136 N134 1.340 . S
C136 N135 1.322 . S
C136 H160 0.929 1_455 S
H137 C132 0.931 . S
Co138 N135 2.135 . S
Co138 N141 2.121 . S
Co138 O146 2.055 1_455 S
Co138 O149 2.039 1_455 S
Co138 N152 2.140 . S
C139 O140 1.227 1_655 S
C139 O149 1.265 . S
O140 C139 1.227 1_455 S
N141 Co138 2.121 . S
N141 C143 1.375 . S
N141 C144 1.313 . S
C142 C143 1.338 . S
C142 N145 1.377 . S
C142 H162 0.930 . S
C143 N141 1.375 . S
C143 C142 1.338 . S
C143 H147 0.931 . S
C144 N141 1.313 . S
C144 N145 1.344 . S
C144 H148 0.930 . S
N145 C142 1.377 . S
N145 C144 1.344 . S
O146 Co138 2.055 1_655 S
O146 C150 1.253 . S
H147 C143 0.931 . S
H148 C144 0.930 . S
O149 Co138 2.039 1_655 S
O149 C139 1.265 . S
C150 O146 1.253 . S
C150 O151 1.227 1_655 S
O151 C150 1.227 1_455 S
N152 Co138 2.140 . S
N152 C155 1.346 . S
N152 C156 1.345 . S
C153 C154 1.387 . S
C153 C157 1.391 . S
C154 C153 1.387 . S
C154 C155 1.369 . S
C154 H163 0.929 . S
C155 N152 1.346 . S
C155 C154 1.369 . S
C155 H158 0.928 . S
C156 N152 1.345 . S
C156 C157 1.371 . S
C156 H159 0.931 . S
C157 C153 1.391 . S
C157 C156 1.371 . S
C157 H164 0.930 . S
H158 C155 0.928 . S
H159 C156 0.931 . S
H160 C136 0.929 1_655 S
H161 C133 0.930 . S
H162 C142 0.930 . S
H163 C154 0.929 . S
H164 C157 0.930 . S
C165 C166 1.351 . S
C165 N168 1.368 . S
C165 H170 0.931 . S
C166 C165 1.351 . S
C166 N167 1.373 . S
C166 H194 0.930 . S
N167 C166 1.373 . S
N167 C169 1.340 . S
N168 C165 1.368 . S
N168 C169 1.322 . S
N168 Co171 2.135 . S
C169 N167 1.340 . S
C169 N168 1.322 . S
C169 H193 0.929 1_545 S
H170 C165 0.931 . S
Co171 N168 2.135 . S
Co171 N174 2.121 . S
Co171 O179 2.055 1_545 S
Co171 O182 2.039 1_545 S
Co171 N185 2.140 . S
C172 O173 1.227 1_565 S
C172 O182 1.265 . S
O173 C172 1.227 1_545 S
N174 Co171 2.121 . S
N174 C176 1.375 . S
N174 C177 1.313 . S
C175 C176 1.338 . S
C175 N178 1.377 . S
C175 H195 0.930 . S
C176 N174 1.375 . S
C176 C175 1.338 . S
C176 H180 0.931 . S
C177 N174 1.313 . S
C177 N178 1.344 . S
C177 H181 0.930 . S
N178 C175 1.377 . S
N178 C177 1.344 . S
O179 Co171 2.055 1_565 S
O179 C183 1.252 . S
H180 C176 0.931 . S
H181 C177 0.930 . S
O182 Co171 2.039 1_565 S
O182 C172 1.265 . S
C183 O179 1.252 . S
C183 O184 1.227 1_565 S
O184 C183 1.227 1_545 S
N185 Co171 2.140 . S
N185 C188 1.346 . S
N185 C189 1.345 . S
C186 C187 1.387 . S
C186 C190 1.391 . S
C187 C186 1.387 . S
C187 C188 1.369 . S
C187 H196 0.929 . S
C188 N185 1.346 . S
C188 C187 1.369 . S
C188 H191 0.928 . S
C189 N185 1.345 . S
C189 C190 1.371 . S
C189 H192 0.931 . S
C190 C186 1.391 . S
C190 C189 1.371 . S
C190 H197 0.930 . S
H191 C188 0.928 . S
H192 C189 0.931 . S
H193 C169 0.929 1_565 S
H194 C166 0.930 . S
H195 C175 0.930 . S
H196 C187 0.929 . S
H197 C190 0.930 . S
C198 C199 1.351 . S
C198 N201 1.368 . S
C198 H203 0.931 . S
C199 C198 1.351 . S
C199 N200 1.373 . S
C199 H227 0.930 . S
N200 C199 1.373 . S
N200 C202 1.340 . S
N201 C198 1.368 . S
N201 C202 1.321 . S
N201 Co204 2.135 . S
C202 N200 1.340 . S
C202 N201 1.321 . S
C202 H226 0.930 . S
H203 C198 0.931 . S
Co204 N201 2.135 . S
Co204 N207 2.121 . S
Co204 O212 2.055 . S
Co204 O215 2.039 . S
Co204 N218 2.140 . S
C205 O206 1.227 . S
C205 O215 1.265 . S
O206 C205 1.227 . S
N207 Co204 2.121 . S
N207 C209 1.375 . S
N207 C210 1.313 . S
C208 C209 1.338 . S
C208 N211 1.377 . S
C208 H228 0.930 . S
C209 N207 1.375 . S
C209 C208 1.338 . S
C209 H213 0.931 . S
C210 N207 1.313 . S
C210 N211 1.344 . S
C210 H214 0.930 . S
N211 C208 1.377 . S
N211 C210 1.344 . S
O212 Co204 2.055 . S
O212 C216 1.253 . S
H213 C209 0.931 . S
H214 C210 0.930 . S
O215 Co204 2.039 . S
O215 C205 1.265 . S
C216 O212 1.253 . S
C216 O217 1.227 . S
O217 C216 1.227 . S
N218 Co204 2.140 . S
N218 C221 1.346 . S
N218 C222 1.345 . S
C219 C220 1.387 . S
C219 C223 1.391 . S
C220 C219 1.387 . S
C220 C221 1.369 . S
C220 H229 0.929 . S
C221 N218 1.346 . S
C221 C220 1.369 . S
C221 H224 0.928 . S
C222 N218 1.345 . S
C222 C223 1.371 . S
C222 H225 0.931 . S
C223 C219 1.391 . S
C223 C222 1.371 . S
C223 H230 0.930 . S
H224 C221 0.928 . S
H225 C222 0.931 . S
H226 C202 0.930 . S
H227 C199 0.930 . S
H228 C208 0.930 . S
H229 C220 0.929 . S
H230 C223 0.930 . S
C231 C232 1.351 . S
C231 N234 1.368 . S
C231 H236 0.931 . S
C232 C231 1.351 . S
C232 N233 1.373 . S
C232 H260 0.930 . S
N233 C232 1.373 . S
N233 C235 1.340 . S
N234 C231 1.368 . S
N234 C235 1.321 . S
N234 Co237 2.135 . S
C235 N233 1.340 . S
C235 N234 1.321 . S
C235 H259 0.930 . S
H236 C231 0.931 . S
Co237 N234 2.135 . S
Co237 N240 2.121 . S
Co237 O245 2.055 . S
Co237 O248 2.039 . S
Co237 N251 2.140 . S
C238 O239 1.227 . S
C238 O248 1.265 . S
O239 C238 1.227 . S
N240 Co237 2.121 . S
N240 C242 1.375 . S
N240 C243 1.313 . S
C241 C242 1.338 . S
C241 N244 1.377 . S
C241 H261 0.930 . S
C242 N240 1.375 . S
C242 C241 1.338 . S
C242 H246 0.931 . S
C243 N240 1.313 . S
C243 N244 1.344 . S
C243 H247 0.930 . S
N244 C241 1.377 . S
N244 C243 1.344 . S
O245 Co237 2.055 . S
O245 C249 1.253 . S
H246 C242 0.931 . S
H247 C243 0.930 . S
O248 Co237 2.039 . S
O248 C238 1.265 . S
C249 O245 1.253 . S
C249 O250 1.227 . S
O250 C249 1.227 . S
N251 Co237 2.140 . S
N251 C254 1.346 . S
N251 C255 1.345 . S
C252 C253 1.387 . S
C252 C256 1.391 . S
C253 C252 1.387 . S
C253 C254 1.369 . S
C253 H262 0.929 . S
C254 N251 1.346 . S
C254 C253 1.369 . S
C254 H257 0.928 . S
C255 N251 1.345 . S
C255 C256 1.371 . S
C255 H258 0.931 . S
C256 C252 1.391 . S
C256 C255 1.371 . S
C256 H263 0.930 . S
H257 C254 0.928 . S
H258 C255 0.931 . S
H259 C235 0.930 . S
H260 C232 0.930 . S
H261 C241 0.930 . S
H262 C253 0.929 . S
H263 C256 0.930 . S
C264 C265 1.351 . S
C264 N267 1.368 . S
C264 H269 0.931 . S
C265 C264 1.351 . S
C265 N266 1.373 . S
C265 H293 0.930 . S
N266 C265 1.373 . S
N266 C268 1.340 . S
N267 C264 1.368 . S
N267 C268 1.322 . S
N267 Co270 2.135 . S
C268 N266 1.340 . S
C268 N267 1.322 . S
C268 H292 0.929 1_655 S
H269 C264 0.931 . S
Co270 N267 2.135 . S
Co270 N273 2.121 . S
Co270 O278 2.055 1_655 S
Co270 O281 2.039 1_655 S
Co270 N284 2.140 . S
C271 O272 1.227 1_455 S
C271 O281 1.265 . S
O272 C271 1.227 1_655 S
N273 Co270 2.121 . S
N273 C275 1.375 . S
N273 C276 1.313 . S
C274 C275 1.338 . S
C274 N277 1.377 . S
C274 H294 0.930 . S
C275 N273 1.375 . S
C275 C274 1.338 . S
C275 H279 0.931 . S
C276 N273 1.313 . S
C276 N277 1.344 . S
C276 H280 0.930 . S
N277 C274 1.377 . S
N277 C276 1.344 . S
O278 Co270 2.055 1_455 S
O278 C282 1.252 . S
H279 C275 0.931 . S
H280 C276 0.930 . S
O281 Co270 2.039 1_455 S
O281 C271 1.265 . S
C282 O278 1.252 . S
C282 O283 1.227 1_455 S
O283 C282 1.227 1_655 S
N284 Co270 2.140 . S
N284 C287 1.346 . S
N284 C288 1.345 . S
C285 C286 1.387 . S
C285 C289 1.391 . S
C286 C285 1.387 . S
C286 C287 1.369 . S
C286 H295 0.929 . S
C287 N284 1.346 . S
C287 C286 1.369 . S
C287 H290 0.928 . S
C288 N284 1.345 . S
C288 C289 1.371 . S
C288 H291 0.931 . S
C289 C285 1.391 . S
C289 C288 1.371 . S
C289 H296 0.930 . S
H290 C287 0.928 . S
H291 C288 0.931 . S
H292 C268 0.929 1_455 S
H293 C265 0.930 . S
H294 C274 0.930 . S
H295 C286 0.929 . S
H296 C289 0.930 . S
C297 C298 1.351 . S
C297 N300 1.368 . S
C297 H302 0.931 . S
C298 C297 1.351 . S
C298 N299 1.373 . S
C298 H326 0.930 . S
N299 C298 1.373 . S
N299 C301 1.340 . S
N300 C297 1.368 . S
N300 C301 1.322 . S
N300 Co303 2.135 . S
C301 N299 1.340 . S
C301 N300 1.322 . S
C301 H325 0.929 1_565 S
H302 C297 0.931 . S
Co303 N300 2.135 . S
Co303 N306 2.121 . S
Co303 O311 2.055 1_565 S
Co303 O314 2.039 1_565 S
Co303 N317 2.140 . S
C304 O305 1.227 1_545 S
C304 O314 1.265 . S
O305 C304 1.227 1_565 S
N306 Co303 2.121 . S
N306 C308 1.375 . S
N306 C309 1.313 . S
C307 C308 1.338 . S
C307 N310 1.377 . S
C307 H327 0.930 . S
C308 N306 1.375 . S
C308 C307 1.338 . S
C308 H312 0.931 . S
C309 N306 1.313 . S
C309 N310 1.344 . S
C309 H313 0.930 . S
N310 C307 1.377 . S
N310 C309 1.344 . S
O311 Co303 2.055 1_545 S
O311 C315 1.253 . S
H312 C308 0.931 . S
H313 C309 0.930 . S
O314 Co303 2.039 1_545 S
O314 C304 1.265 . S
C315 O311 1.253 . S
C315 O316 1.227 1_545 S
O316 C315 1.227 1_565 S
N317 Co303 2.140 . S
N317 C320 1.346 . S
N317 C321 1.345 . S
C318 C319 1.387 . S
C318 C322 1.391 . S
C319 C318 1.387 . S
C319 C320 1.369 . S
C319 H328 0.929 . S
C320 N317 1.346 . S
C320 C319 1.369 . S
C320 H323 0.928 . S
C321 N317 1.345 . S
C321 C322 1.371 . S
C321 H324 0.931 . S
C322 C318 1.391 . S
C322 C321 1.371 . S
C322 H329 0.930 . S
H323 C320 0.928 . S
H324 C321 0.931 . S
H325 C301 0.929 1_545 S
H326 C298 0.930 . S
H327 C307 0.930 . S
H328 C319 0.929 . S
H329 C322 0.930 . S
C330 C331 1.351 . S
C330 N333 1.368 . S
C330 H335 0.931 . S
C331 C330 1.351 . S
C331 N332 1.373 . S
C331 H359 0.930 . S
N332 C331 1.373 . S
N332 C334 1.340 . S
N333 C330 1.368 . S
N333 C334 1.321 . S
N333 Co336 2.135 . S
C334 N332 1.340 . S
C334 N333 1.321 . S
C334 H358 0.930 . S
H335 C330 0.931 . S
Co336 N333 2.135 . S
Co336 N339 2.121 . S
Co336 O344 2.055 . S
Co336 O347 2.039 . S
Co336 N350 2.140 . S
C337 O338 1.227 . S
C337 O347 1.265 . S
O338 C337 1.227 . S
N339 Co336 2.121 . S
N339 C341 1.375 . S
N339 C342 1.313 . S
C340 C341 1.338 . S
C340 N343 1.377 . S
C340 H360 0.930 . S
C341 N339 1.375 . S
C341 C340 1.338 . S
C341 H345 0.931 . S
C342 N339 1.313 . S
C342 N343 1.344 . S
C342 H346 0.930 . S
N343 C340 1.377 . S
N343 C342 1.344 . S
O344 Co336 2.055 . S
O344 C348 1.253 . S
H345 C341 0.931 . S
H346 C342 0.930 . S
O347 Co336 2.039 . S
O347 C337 1.265 . S
C348 O344 1.253 . S
C348 O349 1.227 . S
O349 C348 1.227 . S
N350 Co336 2.140 . S
N350 C353 1.346 . S
N350 C354 1.345 . S
C351 C352 1.387 . S
C351 C355 1.391 . S
C352 C351 1.387 . S
C352 C353 1.369 . S
C352 H361 0.929 . S
C353 N350 1.346 . S
C353 C352 1.369 . S
C353 H356 0.928 . S
C354 N350 1.345 . S
C354 C355 1.371 . S
C354 H357 0.931 . S
C355 C351 1.391 . S
C355 C354 1.371 . S
C355 H362 0.930 . S
H356 C353 0.928 . S
H357 C354 0.931 . S
H358 C334 0.930 . S
H359 C331 0.930 . S
H360 C340 0.930 . S
H361 C352 0.929 . S
H362 C355 0.930 . S
C363 C364 1.351 . S
C363 N366 1.368 . S
C363 H368 0.931 . S
C364 C363 1.351 . S
C364 N365 1.373 . S
C364 H392 0.930 . S
N365 C364 1.373 . S
N365 C367 1.340 . S
N366 C363 1.368 . S
N366 C367 1.321 . S
N366 Co369 2.135 . S
C367 N365 1.340 . S
C367 N366 1.321 . S
C367 H391 0.930 . S
H368 C363 0.931 . S
Co369 N366 2.135 . S
Co369 N372 2.121 . S
Co369 O377 2.055 . S
Co369 O380 2.039 . S
Co369 N383 2.140 . S
C370 O371 1.227 . S
C370 O380 1.265 . S
O371 C370 1.227 . S
N372 Co369 2.121 . S
N372 C374 1.375 . S
N372 C375 1.313 . S
C373 C374 1.338 . S
C373 N376 1.377 . S
C373 H393 0.930 . S
C374 N372 1.375 . S
C374 C373 1.338 . S
C374 H378 0.931 . S
C375 N372 1.313 . S
C375 N376 1.344 . S
C375 H379 0.930 . S
N376 C373 1.377 . S
N376 C375 1.344 . S
O377 Co369 2.055 . S
O377 C381 1.253 . S
H378 C374 0.931 . S
H379 C375 0.930 . S
O380 Co369 2.039 . S
O380 C370 1.265 . S
C381 O377 1.253 . S
C381 O382 1.227 . S
O382 C381 1.227 . S
N383 Co369 2.140 . S
N383 C386 1.346 . S
N383 C387 1.345 . S
C384 C385 1.387 . S
C384 C388 1.391 . S
C385 C384 1.387 . S
C385 C386 1.369 . S
C385 H394 0.929 . S
C386 N383 1.346 . S
C386 C385 1.369 . S
C386 H389 0.928 . S
C387 N383 1.345 . S
C387 C388 1.371 . S
C387 H390 0.931 . S
C388 C384 1.391 . S
C388 C387 1.371 . S
C388 H395 0.930 . S
H389 C386 0.928 . S
H390 C387 0.931 . S
H391 C367 0.930 . S
H392 C364 0.930 . S
H393 C373 0.930 . S
H394 C385 0.929 . S
H395 C388 0.930 . S
C396 C397 1.351 . S
C396 N399 1.368 . S
C396 H401 0.931 . S
C397 C396 1.351 . S
C397 N398 1.373 . S
C397 H425 0.930 . S
N398 C397 1.373 . S
N398 C400 1.340 . S
N399 C396 1.368 . S
N399 C400 1.322 . S
N399 Co402 2.135 . S
C400 N398 1.340 . S
C400 N399 1.322 . S
C400 H424 0.929 1_655 S
H401 C396 0.931 . S
Co402 N399 2.135 . S
Co402 N405 2.121 . S
Co402 O410 2.055 1_655 S
Co402 O413 2.039 1_655 S
Co402 N416 2.140 . S
C403 O404 1.227 1_455 S
C403 O413 1.265 . S
O404 C403 1.227 1_655 S
N405 Co402 2.121 . S
N405 C407 1.375 . S
N405 C408 1.313 . S
C406 C407 1.338 . S
C406 N409 1.377 . S
C406 H426 0.930 . S
C407 N405 1.375 . S
C407 C406 1.338 . S
C407 H411 0.931 . S
C408 N405 1.313 . S
C408 N409 1.344 . S
C408 H412 0.930 . S
N409 C406 1.377 . S
N409 C408 1.344 . S
O410 Co402 2.055 1_455 S
O410 C414 1.253 . S
H411 C407 0.931 . S
H412 C408 0.930 . S
O413 Co402 2.039 1_455 S
O413 C403 1.265 . S
C414 O410 1.253 . S
C414 O415 1.227 1_455 S
O415 C414 1.227 1_655 S
N416 Co402 2.140 . S
N416 C419 1.346 . S
N416 C420 1.345 . S
C417 C418 1.387 . S
C417 C421 1.391 . S
C418 C417 1.387 . S
C418 C419 1.369 . S
C418 H427 0.929 . S
C419 N416 1.346 . S
C419 C418 1.369 . S
C419 H422 0.928 . S
C420 N416 1.345 . S
C420 C421 1.371 . S
C420 H423 0.931 . S
C421 C417 1.391 . S
C421 C420 1.371 . S
C421 H428 0.930 . S
H422 C419 0.928 . S
H423 C420 0.931 . S
H424 C400 0.929 1_455 S
H425 C397 0.930 . S
H426 C406 0.930 . S
H427 C418 0.929 . S
H428 C421 0.930 . S
C429 C430 1.351 . S
C429 N432 1.368 . S
C429 H434 0.931 . S
C430 C429 1.351 . S
C430 N431 1.373 . S
C430 H458 0.930 . S
N431 C430 1.373 . S
N431 C433 1.340 . S
N432 C429 1.368 . S
N432 C433 1.322 . S
N432 Co435 2.135 . S
C433 N431 1.340 . S
C433 N432 1.322 . S
C433 H457 0.929 1_565 S
H434 C429 0.931 . S
Co435 N432 2.135 . S
Co435 N438 2.121 . S
Co435 O443 2.055 1_565 S
Co435 O446 2.039 1_565 S
Co435 N449 2.140 . S
C436 O437 1.227 1_545 S
C436 O446 1.265 . S
O437 C436 1.227 1_565 S
N438 Co435 2.121 . S
N438 C440 1.375 . S
N438 C441 1.313 . S
C439 C440 1.338 . S
C439 N442 1.377 . S
C439 H459 0.930 . S
C440 N438 1.375 . S
C440 C439 1.338 . S
C440 H444 0.931 . S
C441 N438 1.313 . S
C441 N442 1.344 . S
C441 H445 0.930 . S
N442 C439 1.377 . S
N442 C441 1.344 . S
O443 Co435 2.055 1_545 S
O443 C447 1.252 . S
H444 C440 0.931 . S
H445 C441 0.930 . S
O446 Co435 2.039 1_545 S
O446 C436 1.265 . S
C447 O443 1.252 . S
C447 O448 1.227 1_545 S
O448 C447 1.227 1_565 S
N449 Co435 2.140 . S
N449 C452 1.346 . S
N449 C453 1.345 . S
C450 C451 1.387 . S
C450 C454 1.391 . S
C451 C450 1.387 . S
C451 C452 1.369 . S
C451 H460 0.929 . S
C452 N449 1.346 . S
C452 C451 1.369 . S
C452 H455 0.928 . S
C453 N449 1.345 . S
C453 C454 1.371 . S
C453 H456 0.931 . S
C454 C450 1.391 . S
C454 C453 1.371 . S
C454 H461 0.930 . S
H455 C452 0.928 . S
H456 C453 0.931 . S
H457 C433 0.929 1_545 S
H458 C430 0.930 . S
H459 C439 0.930 . S
H460 C451 0.929 . S
H461 C454 0.930 . S
C462 C463 1.351 . S
C462 N465 1.368 . S
C462 H467 0.931 . S
C463 C462 1.351 . S
C463 N464 1.373 . S
C463 H491 0.930 . S
N464 C463 1.373 . S
N464 C466 1.340 . S
N465 C462 1.368 . S
N465 C466 1.321 . S
N465 Co468 2.135 . S
C466 N464 1.340 . S
C466 N465 1.321 . S
C466 H490 0.930 . S
H467 C462 0.931 . S
Co468 N465 2.135 . S
Co468 N471 2.121 . S
Co468 O476 2.055 . S
Co468 O479 2.039 . S
Co468 N482 2.140 . S
C469 O470 1.227 . S
C469 O479 1.265 . S
O470 C469 1.227 . S
N471 Co468 2.121 . S
N471 C473 1.375 . S
N471 C474 1.313 . S
C472 C473 1.338 . S
C472 N475 1.377 . S
C472 H492 0.930 . S
C473 N471 1.375 . S
C473 C472 1.338 . S
C473 H477 0.931 . S
C474 N471 1.313 . S
C474 N475 1.344 . S
C474 H478 0.930 . S
N475 C472 1.377 . S
N475 C474 1.344 . S
O476 Co468 2.055 . S
O476 C480 1.253 . S
H477 C473 0.931 . S
H478 C474 0.930 . S
O479 Co468 2.039 . S
O479 C469 1.265 . S
C480 O476 1.253 . S
C480 O481 1.227 . S
O481 C480 1.227 . S
N482 Co468 2.140 . S
N482 C485 1.346 . S
N482 C486 1.345 . S
C483 C484 1.387 . S
C483 C487 1.391 . S
C484 C483 1.387 . S
C484 C485 1.369 . S
C484 H493 0.929 . S
C485 N482 1.346 . S
C485 C484 1.369 . S
C485 H488 0.928 . S
C486 N482 1.345 . S
C486 C487 1.371 . S
C486 H489 0.931 . S
C487 C483 1.391 . S
C487 C486 1.371 . S
C487 H494 0.930 . S
H488 C485 0.928 . S
H489 C486 0.931 . S
H490 C466 0.930 . S
H491 C463 0.930 . S
H492 C472 0.930 . S
H493 C484 0.929 . S
H494 C487 0.930 . S
C495 C496 1.351 . S
C495 N498 1.368 . S
C495 H500 0.931 . S
C496 C495 1.351 . S
C496 N497 1.373 . S
C496 H524 0.930 . S
N497 C496 1.373 . S
N497 C499 1.340 . S
N498 C495 1.368 . S
N498 C499 1.321 . S
N498 Co501 2.135 . S
C499 N497 1.340 . S
C499 N498 1.321 . S
C499 H523 0.930 . S
H500 C495 0.931 . S
Co501 N498 2.135 . S
Co501 N504 2.121 . S
Co501 O509 2.055 . S
Co501 O512 2.039 . S
Co501 N515 2.140 . S
C502 O503 1.227 . S
C502 O512 1.265 . S
O503 C502 1.227 . S
N504 Co501 2.121 . S
N504 C506 1.375 . S
N504 C507 1.313 . S
C505 C506 1.338 . S
C505 N508 1.377 . S
C505 H525 0.930 . S
C506 N504 1.375 . S
C506 C505 1.338 . S
C506 H510 0.931 . S
C507 N504 1.313 . S
C507 N508 1.344 . S
C507 H511 0.930 . S
N508 C505 1.377 . S
N508 C507 1.344 . S
O509 Co501 2.055 . S
O509 C513 1.253 . S
H510 C506 0.931 . S
H511 C507 0.930 . S
O512 Co501 2.039 . S
O512 C502 1.265 . S
C513 O509 1.253 . S
C513 O514 1.227 . S
O514 C513 1.227 . S
N515 Co501 2.140 . S
N515 C518 1.346 . S
N515 C519 1.345 . S
C516 C517 1.387 . S
C516 C520 1.391 . S
C517 C516 1.387 . S
C517 C518 1.369 . S
C517 H526 0.929 . S
C518 N515 1.346 . S
C518 C517 1.369 . S
C518 H521 0.928 . S
C519 N515 1.345 . S
C519 C520 1.371 . S
C519 H522 0.931 . S
C520 C516 1.391 . S
C520 C519 1.371 . S
C520 H527 0.930 . S
H521 C518 0.928 . S
H522 C519 0.931 . S
H523 C499 0.930 . S
H524 C496 0.930 . S
H525 C505 0.930 . S
H526 C517 0.929 . S
H527 C520 0.930 . S
H528 C534 0.930 . S
H529 C538 0.930 . S
H530 C543 0.929 . S
H531 C541 0.929 . S
H532 C536 0.929 . S
H533 C542 0.929 . S
C534 H528 0.930 . S
C534 C535 1.367 1_655 S
C534 C542 1.378 . S
C535 C534 1.367 1_455 S
C535 C543 1.433 . S
C536 H532 0.929 . S
C536 C538 1.378 . S
C536 C540 1.350 . S
C537 C540 1.463 1_556 S
C537 C542 1.350 1_455 S
C537 N545 1.427 . S
C538 H529 0.930 . S
C538 C536 1.378 . S
C538 C539 1.367 . S
C539 C538 1.367 . S
C539 C541 1.433 1_455 S
C540 C536 1.350 . S
C540 C537 1.463 1_554 S
C540 N544 1.427 1_455 S
C541 H531 0.929 . S
C541 C539 1.433 1_655 S
C541 N544 1.384 . S
C542 H533 0.929 . S
C542 C534 1.378 . S
C542 C537 1.350 1_655 S
C543 H530 0.929 . S
C543 C535 1.433 . S
C543 N545 1.384 . S
N544 C540 1.427 1_655 S
N544 C541 1.384 . S
N545 C537 1.427 . S
N545 C543 1.384 . S
H546 C552 0.930 . S
H547 C556 0.930 . S
H548 C561 0.929 . S
H549 C559 0.929 . S
H550 C554 0.929 . S
H551 C560 0.929 . S
C552 H546 0.930 . S
C552 C553 1.367 . S
C552 C560 1.378 . S
C553 C552 1.367 . S
C553 C561 1.433 1_545 S
C554 H550 0.929 . S
C554 C556 1.378 . S
C554 C558 1.350 1_565 S
C555 C558 1.463 . S
C555 C560 1.350 . S
C555 N563 1.427 1_545 S
C556 H547 0.930 . S
C556 C554 1.378 . S
C556 C557 1.367 1_565 S
C557 C556 1.367 1_545 S
C557 C559 1.433 . S
C558 C554 1.350 1_545 S
C558 C555 1.463 . S
C558 N562 1.427 . S
C559 H549 0.929 . S
C559 C557 1.433 . S
C559 N562 1.384 . S
C560 H551 0.929 . S
C560 C552 1.378 . S
C560 C555 1.350 . S
C561 H548 0.929 . S
C561 C553 1.433 1_565 S
C561 N563 1.384 . S
N562 C558 1.427 . S
N562 C559 1.384 . S
N563 C555 1.427 1_565 S
N563 C561 1.384 . S
H564 C570 0.930 . S
H565 C574 0.930 . S
H566 C579 0.929 . S
H567 C577 0.929 . S
H568 C572 0.929 . S
H569 C578 0.929 . S
C570 H564 0.930 . S
C570 C571 1.367 . S
C570 C578 1.378 . S
C571 C570 1.367 . S
C571 C579 1.433 . S
C572 H568 0.929 . S
C572 C574 1.378 . S
C572 C576 1.350 . S
C573 C576 1.463 1_554 S
C573 C578 1.350 . S
C573 N581 1.427 . S
C574 H565 0.930 . S
C574 C572 1.378 . S
C574 C575 1.367 . S
C575 C574 1.367 . S
C575 C577 1.433 . S
C576 C572 1.350 . S
C576 C573 1.463 1_556 S
C576 N580 1.427 . S
C577 H567 0.929 . S
C577 C575 1.433 . S
C577 N580 1.384 . S
C578 H569 0.929 . S
C578 C570 1.378 . S
C578 C573 1.350 . S
C579 H566 0.929 . S
C579 C571 1.433 . S
C579 N581 1.384 . S
N580 C576 1.427 . S
N580 C577 1.384 . S
N581 C573 1.427 . S
N581 C579 1.384 . S
H582 C588 0.930 . S
H583 C592 0.930 . S
H584 C597 0.929 . S
H585 C595 0.929 . S
H586 C590 0.929 . S
H587 C596 0.929 . S
C588 H582 0.930 . S
C588 C589 1.367 . S
C588 C596 1.378 . S
C589 C588 1.367 . S
C589 C597 1.433 . S
C590 H586 0.929 . S
C590 C592 1.378 . S
C590 C594 1.350 . S
C591 C594 1.463 . S
C591 C596 1.350 . S
C591 N599 1.427 . S
C592 H583 0.930 . S
C592 C590 1.378 . S
C592 C593 1.367 . S
C593 C592 1.367 . S
C593 C595 1.433 . S
C594 C590 1.350 . S
C594 C591 1.463 . S
C594 N598 1.427 . S
C595 H585 0.929 . S
C595 C593 1.433 . S
C595 N598 1.384 . S
C596 H587 0.929 . S
C596 C588 1.378 . S
C596 C591 1.350 . S
C597 H584 0.929 . S
C597 C589 1.433 . S
C597 N599 1.384 . S
N598 C594 1.427 . S
N598 C595 1.384 . S
N599 C591 1.427 . S
N599 C597 1.384 . S
H600 C606 0.930 . S
H601 C610 0.930 . S
H602 C615 0.929 . S
H603 C613 0.929 . S
H604 C608 0.929 . S
H605 C614 0.929 . S
C606 H600 0.930 . S
C606 C607 1.367 1_455 S
C606 C614 1.378 . S
C607 C606 1.367 1_655 S
C607 C615 1.433 . S
C608 H604 0.929 . S
C608 C610 1.378 . S
C608 C612 1.350 . S
C609 C612 1.463 1_554 S
C609 C614 1.350 1_655 S
C609 N617 1.427 . S
C610 H601 0.930 . S
C610 C608 1.378 . S
C610 C611 1.367 . S
C611 C610 1.367 . S
C611 C613 1.433 1_655 S
C612 C608 1.350 . S
C612 C609 1.463 1_556 S
C612 N616 1.427 1_655 S
C613 H603 0.929 . S
C613 C611 1.433 1_455 S
C613 N616 1.384 . S
C614 H605 0.929 . S
C614 C606 1.378 . S
C614 C609 1.350 1_455 S
C615 H602 0.929 . S
C615 C607 1.433 . S
C615 N617 1.384 . S
N616 C612 1.427 1_455 S
N616 C613 1.384 . S
N617 C609 1.427 . S
N617 C615 1.384 . S
H618 C624 0.930 . S
H619 C628 0.930 . S
H620 C633 0.929 . S
H621 C631 0.929 . S
H622 C626 0.929 . S
H623 C632 0.929 . S
C624 H618 0.930 . S
C624 C625 1.367 1_545 S
C624 C632 1.378 . S
C625 C624 1.367 1_565 S
C625 C633 1.433 . S
C626 H622 0.929 . S
C626 C628 1.378 . S
C626 C630 1.350 . S
C627 C630 1.463 . S
C627 C632 1.350 1_565 S
C627 N635 1.427 . S
C628 H619 0.930 . S
C628 C626 1.378 . S
C628 C629 1.367 . S
C629 C628 1.367 . S
C629 C631 1.433 1_565 S
C630 C626 1.350 . S
C630 C627 1.463 . S
C630 N634 1.427 1_565 S
C631 H621 0.929 . S
C631 C629 1.433 1_545 S
C631 N634 1.384 . S
C632 H623 0.929 . S
C632 C624 1.378 . S
C632 C627 1.350 1_545 S
C633 H620 0.929 . S
C633 C625 1.433 . S
C633 N635 1.384 . S
N634 C630 1.427 1_545 S
N634 C631 1.384 . S
N635 C627 1.427 . S
N635 C633 1.384 . S
H636 C642 0.930 . S
H637 C646 0.930 . S
H638 C651 0.929 . S
H639 C649 0.929 . S
H640 C644 0.929 . S
H641 C650 0.929 . S
C642 H636 0.930 . S
C642 C643 1.367 . S
C642 C650 1.378 . S
C643 C642 1.367 . S
C643 C651 1.433 . S
C644 H640 0.929 . S
C644 C646 1.378 . S
C644 C648 1.350 . S
C645 C648 1.463 1_556 S
C645 C650 1.350 . S
C645 N653 1.427 . S
C646 H637 0.930 . S
C646 C644 1.378 . S
C646 C647 1.367 . S
C647 C646 1.367 . S
C647 C649 1.433 . S
C648 C644 1.350 . S
C648 C645 1.463 1_554 S
C648 N652 1.427 . S
C649 H639 0.929 . S
C649 C647 1.433 . S
C649 N652 1.384 . S
C650 H641 0.929 . S
C650 C642 1.378 . S
C650 C645 1.350 . S
C651 H638 0.929 . S
C651 C643 1.433 . S
C651 N653 1.384 . S
N652 C648 1.427 . S
N652 C649 1.384 . S
N653 C645 1.427 . S
N653 C651 1.384 . S
H654 C660 0.930 . S
H655 C664 0.930 . S
H656 C669 0.929 . S
H657 C667 0.929 . S
H658 C662 0.929 . S
H659 C668 0.929 . S
C660 H654 0.930 . S
C660 C661 1.367 . S
C660 C668 1.378 . S
C661 C660 1.367 . S
C661 C669 1.433 . S
C662 H658 0.929 . S
C662 C664 1.378 . S
C662 C666 1.350 . S
C663 C666 1.463 . S
C663 C668 1.350 . S
C663 N671 1.427 . S
C664 H655 0.930 . S
C664 C662 1.378 . S
C664 C665 1.367 . S
C665 C664 1.367 . S
C665 C667 1.433 . S
C666 C662 1.350 . S
C666 C663 1.463 . S
C666 N670 1.427 . S
C667 H657 0.929 . S
C667 C665 1.433 . S
C667 N670 1.384 . S
C668 H659 0.929 . S
C668 C660 1.378 . S
C668 C663 1.350 . S
C669 H656 0.929 . S
C669 C661 1.433 . S
C669 N671 1.384 . S
N670 C666 1.427 . S
N670 C667 1.384 . S
N671 C663 1.427 . S
N671 C669 1.384 . S
H672 C678 0.930 . S
H673 C682 0.930 . S
H674 C687 0.929 . S
H675 C685 0.929 . S
H676 C680 0.929 . S
H677 C686 0.929 . S
C678 H672 0.930 . S
C678 C679 1.367 1_455 S
C678 C686 1.378 . S
C679 C678 1.367 1_655 S
C679 C687 1.433 . S
C680 H676 0.929 . S
C680 C682 1.378 1_545 S
C680 C684 1.350 . S
C681 C684 1.463 . S
C681 C686 1.350 1_655 S
C681 N689 1.427 . S
C682 H673 0.930 . S
C682 C680 1.378 1_565 S
C682 C683 1.367 1_655 S
C683 C682 1.367 1_455 S
C683 C685 1.433 . S
C684 C680 1.350 . S
C684 C681 1.463 . S
C684 N688 1.427 1_655 S
C685 H675 0.929 . S
C685 C683 1.433 . S
C685 N688 1.384 1_565 S
C686 H677 0.929 . S
C686 C678 1.378 . S
C686 C681 1.350 1_455 S
C687 H674 0.929 . S
C687 C679 1.433 . S
C687 N689 1.384 . S
N688 C684 1.427 1_455 S
N688 C685 1.384 1_545 S
N689 C681 1.427 . S
N689 C687 1.384 . S
H690 C696 0.930 . S
H691 C700 0.930 . S
H692 C705 0.929 . S
H693 C703 0.929 . S
H694 C698 0.929 . S
H695 C704 0.929 . S
C696 H690 0.930 . S
C696 C697 1.367 . S
C696 C704 1.378 . S
C697 C696 1.367 . S
C697 C705 1.433 1_565 S
C698 H694 0.929 . S
C698 C700 1.378 . S
C698 C702 1.350 1_545 S
C699 C702 1.463 . S
C699 C704 1.350 . S
C699 N707 1.427 1_565 S
C700 H691 0.930 . S
C700 C698 1.378 . S
C700 C701 1.367 . S
C701 C700 1.367 . S
C701 C703 1.433 1_545 S
C702 C698 1.350 1_565 S
C702 C699 1.463 . S
C702 N706 1.427 . S
C703 H693 0.929 . S
C703 C701 1.433 1_565 S
C703 N706 1.384 . S
C704 H695 0.929 . S
C704 C696 1.378 . S
C704 C699 1.350 . S
C705 H692 0.929 . S
C705 C697 1.433 1_545 S
C705 N707 1.384 . S
N706 C702 1.427 . S
N706 C703 1.384 . S
N707 C699 1.427 1_545 S
N707 C705 1.384 . S
H708 C714 0.930 . S
H709 C718 0.930 . S
H710 C723 0.929 . S
H711 C721 0.929 . S
H712 C716 0.929 . S
H713 C722 0.929 . S
C714 H708 0.930 . S
C714 C715 1.367 . S
C714 C722 1.378 . S
C715 C714 1.367 . S
C715 C723 1.433 . S
C716 H712 0.929 . S
C716 C718 1.378 . S
C716 C720 1.350 . S
C717 C720 1.463 . S
C717 C722 1.350 . S
C717 N725 1.427 . S
C718 H709 0.930 . S
C718 C716 1.378 . S
C718 C719 1.367 . S
C719 C718 1.367 . S
C719 C721 1.433 . S
C720 C716 1.350 . S
C720 C717 1.463 . S
C720 N724 1.427 . S
C721 H711 0.929 . S
C721 C719 1.433 . S
C721 N724 1.384 . S
C722 H713 0.929 . S
C722 C714 1.378 . S
C722 C717 1.350 . S
C723 H710 0.929 . S
C723 C715 1.433 . S
C723 N725 1.384 . S
N724 C720 1.427 . S
N724 C721 1.384 . S
N725 C717 1.427 . S
N725 C723 1.384 . S
H726 C732 0.930 . S
H727 C736 0.930 . S
H728 C741 0.929 . S
H729 C739 0.929 . S
H730 C734 0.929 . S
H731 C740 0.929 . S
C732 H726 0.930 . S
C732 C733 1.367 . S
C732 C740 1.378 . S
C733 C732 1.367 . S
C733 C741 1.433 . S
C734 H730 0.929 . S
C734 C736 1.378 1_455 S
C734 C738 1.350 . S
C735 C738 1.463 . S
C735 C740 1.350 . S
C735 N743 1.427 . S
C736 H727 0.930 . S
C736 C734 1.378 1_655 S
C736 C737 1.367 . S
C737 C736 1.367 . S
C737 C739 1.433 . S
C738 C734 1.350 . S
C738 C735 1.463 . S
C738 N742 1.427 . S
C739 H729 0.929 . S
C739 C737 1.433 . S
C739 N742 1.384 1_655 S
C740 H731 0.929 . S
C740 C732 1.378 . S
C740 C735 1.350 . S
C741 H728 0.929 . S
C741 C733 1.433 . S
C741 N743 1.384 . S
N742 C738 1.427 . S
N742 C739 1.384 1_455 S
N743 C735 1.427 . S
N743 C741 1.384 . S
H744 C750 0.930 . S
H745 C754 0.930 . S
H746 C759 0.929 . S
H747 C757 0.929 . S
H748 C752 0.929 . S
H749 C758 0.929 . S
C750 H744 0.930 . S
C750 C751 1.367 1_655 S
C750 C758 1.378 . S
C751 C750 1.367 1_455 S
C751 C759 1.433 . S
C752 H748 0.929 . S
C752 C754 1.378 . S
C752 C756 1.350 1_455 S
C753 C756 1.463 . S
C753 C758 1.350 . S
C753 N761 1.427 1_655 S
C754 H745 0.930 . S
C754 C752 1.378 . S
C754 C755 1.367 1_455 S
C755 C754 1.367 1_655 S
C755 C757 1.433 . S
C756 C752 1.350 1_655 S
C756 C753 1.463 . S
C756 N760 1.427 . S
C757 H747 0.929 . S
C757 C755 1.433 . S
C757 N760 1.384 . S
C758 H749 0.929 . S
C758 C750 1.378 . S
C758 C753 1.350 . S
C759 H746 0.929 . S
C759 C751 1.433 . S
C759 N761 1.384 . S
N760 C756 1.427 . S
N760 C757 1.384 . S
N761 C753 1.427 1_455 S
N761 C759 1.384 . S
H762 C768 0.930 . S
H763 C772 0.930 . S
H764 C777 0.929 . S
H765 C775 0.929 . S
H766 C770 0.929 . S
H767 C776 0.929 . S
C768 H762 0.930 . S
C768 C769 1.367 1_565 S
C768 C776 1.378 1_655 S
C769 C768 1.367 1_545 S
C769 C777 1.433 . S
C770 H766 0.929 . S
C770 C772 1.378 . S
C770 C774 1.350 1_545 S
C771 C774 1.463 . S
C771 C776 1.350 . S
C771 N779 1.427 1_565 S
C772 H763 0.930 . S
C772 C770 1.378 . S
C772 C773 1.367 1_545 S
C773 C772 1.367 1_565 S
C773 C775 1.433 . S
C774 C770 1.350 1_565 S
C774 C771 1.463 . S
C774 N778 1.427 . S
C775 H765 0.929 . S
C775 C773 1.433 . S
C775 N778 1.384 . S
C776 H767 0.929 . S
C776 C768 1.378 1_455 S
C776 C771 1.350 . S
C777 H764 0.929 . S
C777 C769 1.433 . S
C777 N779 1.384 1_655 S
N778 C774 1.427 . S
N778 C775 1.384 . S
N779 C771 1.427 1_545 S
N779 C777 1.384 1_455 S
H780 C786 0.930 . S
H781 C790 0.930 . S
H782 C795 0.929 . S
H783 C793 0.929 . S
H784 C788 0.929 . S
H785 C794 0.929 . S
C786 H780 0.930 . S
C786 C787 1.367 . S
C786 C794 1.378 . S
C787 C786 1.367 . S
C787 C795 1.433 . S
C788 H784 0.929 . S
C788 C790 1.378 1_545 S
C788 C792 1.350 . S
C789 C792 1.463 . S
C789 C794 1.350 . S
C789 N797 1.427 . S
C790 H781 0.930 . S
C790 C788 1.378 1_565 S
C790 C791 1.367 . S
C791 C790 1.367 . S
C791 C793 1.433 . S
C792 C788 1.350 . S
C792 C789 1.463 . S
C792 N796 1.427 . S
C793 H783 0.929 . S
C793 C791 1.433 . S
C793 N796 1.384 1_565 S
C794 H785 0.929 . S
C794 C786 1.378 . S
C794 C789 1.350 . S
C795 H782 0.929 . S
C795 C787 1.433 . S
C795 N797 1.384 . S
N796 C792 1.427 . S
N796 C793 1.384 1_545 S
N797 C789 1.427 . S
N797 C795 1.384 . S
H798 C804 0.930 . S
H799 C808 0.930 . S
H800 C813 0.929 . S
H801 C811 0.929 . S
H802 C806 0.929 . S
H803 C812 0.929 . S
C804 H798 0.930 . S
C804 C805 1.367 . S
C804 C812 1.378 . S
C805 C804 1.367 . S
C805 C813 1.433 . S
C806 H802 0.929 . S
C806 C808 1.378 . S
C806 C810 1.350 . S
C807 C810 1.463 . S
C807 C812 1.350 . S
C807 N815 1.427 . S
C808 H799 0.930 . S
C808 C806 1.378 . S
C808 C809 1.367 . S
C809 C808 1.367 . S
C809 C811 1.433 . S
C810 C806 1.350 . S
C810 C807 1.463 . S
C810 N814 1.427 . S
C811 H801 0.929 . S
C811 C809 1.433 . S
C811 N814 1.384 . S
C812 H803 0.929 . S
C812 C804 1.378 . S
C812 C807 1.350 . S
C813 H800 0.929 . S
C813 C805 1.433 . S
C813 N815 1.384 . S
N814 C810 1.427 . S
N814 C811 1.384 . S
N815 C807 1.427 . S
N815 C813 1.384 . S
H816 C822 0.930 . S
H817 C826 0.930 . S
H818 C831 0.929 . S
H819 C829 0.929 . S
H820 C824 0.929 . S
H821 C830 0.929 . S
C822 H816 0.930 . S
C822 C823 1.367 . S
C822 C830 1.378 . S
C823 C822 1.367 . S
C823 C831 1.433 1_455 S
C824 H820 0.929 . S
C824 C826 1.378 1_565 S
C824 C828 1.350 1_655 S
C825 C828 1.463 . S
C825 C830 1.350 . S
C825 N833 1.427 1_455 S
C826 H817 0.930 . S
C826 C824 1.378 1_545 S
C826 C827 1.367 . S
C827 C826 1.367 . S
C827 C829 1.433 1_655 S
C828 C824 1.350 1_455 S
C828 C825 1.463 . S
C828 N832 1.427 . S
C829 H819 0.929 . S
C829 C827 1.433 1_455 S
C829 N832 1.384 1_545 S
C830 H821 0.929 . S
C830 C822 1.378 . S
C830 C825 1.350 . S
C831 H818 0.929 . S
C831 C823 1.433 1_655 S
C831 N833 1.384 . S
N832 C828 1.427 . S
N832 C829 1.384 1_565 S
N833 C825 1.427 1_655 S
N833 C831 1.384 . S
H834 C840 0.930 . S
H835 C844 0.930 . S
H836 C849 0.929 . S
H837 C847 0.929 . S
H838 C842 0.929 . S
H839 C848 0.929 . S
C840 H834 0.930 . S
C840 C841 1.367 . S
C840 C848 1.378 . S
C841 C840 1.367 . S
C841 C849 1.433 1_545 S
C842 H838 0.929 . S
C842 C844 1.378 . S
C842 C846 1.350 1_565 S
C843 C846 1.463 . S
C843 C848 1.350 . S
C843 N851 1.427 1_545 S
C844 H835 0.930 . S
C844 C842 1.378 . S
C844 C845 1.367 . S
C845 C844 1.367 . S
C845 C847 1.433 1_565 S
C846 C842 1.350 1_545 S
C846 C843 1.463 . S
C846 N850 1.427 . S
C847 H837 0.929 . S
C847 C845 1.433 1_545 S
C847 N850 1.384 . S
C848 H839 0.929 . S
C848 C840 1.378 . S
C848 C843 1.350 . S
C849 H836 0.929 . S
C849 C841 1.433 1_565 S
C849 N851 1.384 . S
N850 C846 1.427 . S
N850 C847 1.384 . S
N851 C843 1.427 1_565 S
N851 C849 1.384 . S
H852 C858 0.930 . S
H853 C862 0.930 . S
H854 C867 0.929 . S
H855 C865 0.929 . S
H856 C860 0.929 . S
H857 C866 0.929 . S
C858 H852 0.930 . S
C858 C859 1.367 . S
C858 C866 1.378 . S
C859 C858 1.367 . S
C859 C867 1.433 . S
C860 H856 0.929 . S
C860 C862 1.378 . S
C860 C864 1.350 . S
C861 C864 1.463 . S
C861 C866 1.350 . S
C861 N869 1.427 . S
C862 H853 0.930 . S
C862 C860 1.378 . S
C862 C863 1.367 . S
C863 C862 1.367 . S
C863 C865 1.433 . S
C864 C860 1.350 . S
C864 C861 1.463 . S
C864 N868 1.427 . S
C865 H855 0.929 . S
C865 C863 1.433 . S
C865 N868 1.384 . S
C866 H857 0.929 . S
C866 C858 1.378 . S
C866 C861 1.350 . S
C867 H854 0.929 . S
C867 C859 1.433 . S
C867 N869 1.384 . S
N868 C864 1.427 . S
N868 C865 1.384 . S
N869 C861 1.427 . S
N869 C867 1.384 . S
H870 C876 0.930 . S
H871 C880 0.930 . S
H872 C885 0.929 . S
H873 C883 0.929 . S
H874 C878 0.929 . S
H875 C884 0.929 . S
C876 H870 0.930 . S
C876 C877 1.367 . S
C876 C884 1.378 . S
C877 C876 1.367 . S
C877 C885 1.433 . S
C878 H874 0.929 . S
C878 C880 1.378 1_655 S
C878 C882 1.350 . S
C879 C882 1.463 . S
C879 C884 1.350 . S
C879 N887 1.427 . S
C880 H871 0.930 . S
C880 C878 1.378 1_455 S
C880 C881 1.367 . S
C881 C880 1.367 . S
C881 C883 1.433 . S
C882 C878 1.350 . S
C882 C879 1.463 . S
C882 N886 1.427 . S
C883 H873 0.929 . S
C883 C881 1.433 . S
C883 N886 1.384 1_455 S
C884 H875 0.929 . S
C884 C876 1.378 . S
C884 C879 1.350 . S
C885 H872 0.929 . S
C885 C877 1.433 . S
C885 N887 1.384 . S
N886 C882 1.427 . S
N886 C883 1.384 1_655 S
N887 C879 1.427 . S
N887 C885 1.384 . S
H888 C894 0.930 . S
H889 C898 0.930 . S
H890 C903 0.929 . S
H891 C901 0.929 . S
H892 C896 0.929 . S
H893 C902 0.929 . S
C894 H888 0.930 . S
C894 C895 1.367 . S
C894 C902 1.378 . S
C895 C894 1.367 . S
C895 C903 1.433 . S
C896 H892 0.929 . S
C896 C898 1.378 . S
C896 C900 1.350 1_655 S
C897 C900 1.463 . S
C897 C902 1.350 . S
C897 N905 1.427 . S
C898 H889 0.930 . S
C898 C896 1.378 . S
C898 C899 1.367 . S
C899 C898 1.367 . S
C899 C901 1.433 1_655 S
C900 C896 1.350 1_455 S
C900 C897 1.463 . S
C900 N904 1.427 . S
C901 H891 0.929 . S
C901 C899 1.433 1_455 S
C901 N904 1.384 . S
C902 H893 0.929 . S
C902 C894 1.378 . S
C902 C897 1.350 . S
C903 H890 0.929 . S
C903 C895 1.433 . S
C903 N905 1.384 . S
N904 C900 1.427 . S
N904 C901 1.384 . S
N905 C897 1.427 . S
N905 C903 1.384 . S
H906 C912 0.930 . S
H907 C916 0.930 . S
H908 C921 0.929 . S
H909 C919 0.929 . S
H910 C914 0.929 . S
H911 C920 0.929 1_565 S
C912 H906 0.930 . S
C912 C913 1.367 . S
C912 C920 1.378 . S
C913 C912 1.367 . S
C913 C921 1.433 . S
C914 H910 0.929 . S
C914 C916 1.378 1_655 S
C914 C918 1.350 . S
C915 C918 1.463 . S
C915 C920 1.350 . S
C915 N923 1.427 . S
C916 H907 0.930 . S
C916 C914 1.378 1_455 S
C916 C917 1.367 1_545 S
C917 C916 1.367 1_565 S
C917 C919 1.433 . S
C918 C914 1.350 . S
C918 C915 1.463 . S
C918 N922 1.427 1_545 S
C919 H909 0.929 . S
C919 C917 1.433 . S
C919 N922 1.384 1_455 S
C920 H911 0.929 1_545 S
C920 C912 1.378 . S
C920 C915 1.350 . S
C921 H908 0.929 . S
C921 C913 1.433 . S
C921 N923 1.384 . S
N922 C918 1.427 1_565 S
N922 C919 1.384 1_655 S
N923 C915 1.427 . S
N923 C921 1.384 . S
H924 C930 0.930 . S
H925 C934 0.930 . S
H926 C939 0.929 . S
H927 C937 0.929 . S
H928 C932 0.929 . S
H929 C938 0.929 . S
C930 H924 0.930 . S
C930 C931 1.367 . S
C930 C938 1.378 . S
C931 C930 1.367 . S
C931 C939 1.433 . S
C932 H928 0.929 . S
C932 C934 1.378 1_565 S
C932 C936 1.350 . S
C933 C936 1.463 . S
C933 C938 1.350 . S
C933 N941 1.427 . S
C934 H925 0.930 . S
C934 C932 1.378 1_545 S
C934 C935 1.367 . S
C935 C934 1.367 . S
C935 C937 1.433 . S
C936 C932 1.350 . S
C936 C933 1.463 . S
C936 N940 1.427 . S
C937 H927 0.929 . S
C937 C935 1.433 . S
C937 N940 1.384 1_545 S
C938 H929 0.929 . S
C938 C930 1.378 . S
C938 C933 1.350 . S
C939 H926 0.929 . S
C939 C931 1.433 . S
C939 N941 1.384 . S
N940 C936 1.427 . S
N940 C937 1.384 1_565 S
N941 C933 1.427 . S
N941 C939 1.384 . S
H942 C948 0.930 . S
H943 C952 0.930 . S
H944 C957 0.929 . S
H945 C955 0.929 . S
H946 C950 0.929 . S
H947 C956 0.929 . S
C948 H942 0.930 . S
C948 C949 1.367 . S
C948 C956 1.378 . S
C949 C948 1.367 . S
C949 C957 1.433 . S
C950 H946 0.929 . S
C950 C952 1.378 . S
C950 C954 1.350 . S
C951 C954 1.463 . S
C951 C956 1.350 . S
C951 N959 1.427 . S
C952 H943 0.930 . S
C952 C950 1.378 . S
C952 C953 1.367 . S
C953 C952 1.367 . S
C953 C955 1.433 . S
C954 C950 1.350 . S
C954 C951 1.463 . S
C954 N958 1.427 . S
C955 H945 0.929 . S
C955 C953 1.433 . S
C955 N958 1.384 . S
C956 H947 0.929 . S
C956 C948 1.378 . S
C956 C951 1.350 . S
C957 H944 0.929 . S
C957 C949 1.433 . S
C957 N959 1.384 . S
N958 C954 1.427 . S
N958 C955 1.384 . S
N959 C951 1.427 . S
N959 C957 1.384 . S
H960 C966 0.930 . S
H961 C970 0.930 . S
H962 C975 0.929 . S
H963 C973 0.929 . S
H964 C968 0.929 . S
H965 C974 0.929 . S
C966 H960 0.930 . S
C966 C967 1.367 . S
C966 C974 1.378 . S
C967 C966 1.367 . S
C967 C975 1.433 . S
C968 H964 0.929 . S
C968 C970 1.378 . S
C968 C972 1.350 . S
C969 C972 1.463 . S
C969 C974 1.350 . S
C969 N977 1.427 . S
C970 H961 0.930 . S
C970 C968 1.378 . S
C970 C971 1.367 . S
C971 C970 1.367 . S
C971 C973 1.433 . S
C972 C968 1.350 . S
C972 C969 1.463 . S
C972 N976 1.427 . S
C973 H963 0.929 . S
C973 C971 1.433 . S
C973 N976 1.384 . S
C974 H965 0.929 . S
C974 C966 1.378 . S
C974 C969 1.350 . S
C975 H962 0.929 . S
C975 C967 1.433 . S
C975 N977 1.384 . S
N976 C972 1.427 . S
N976 C973 1.384 . S
N977 C969 1.427 . S
N977 C975 1.384 . S
H978 C984 0.930 . S
H979 C988 0.930 . S
H980 C993 0.929 1_565 S
H981 C991 0.929 . S
H982 C986 0.929 . S
H983 C992 0.929 . S
C984 H978 0.930 . S
C984 C985 1.367 . S
C984 C992 1.378 . S
C985 C984 1.367 . S
C985 C993 1.433 . S
C986 H982 0.929 . S
C986 C988 1.378 . S
C986 C990 1.350 . S
C987 C990 1.463 . S
C987 C992 1.350 . S
C987 N995 1.427 . S
C988 H979 0.930 . S
C988 C986 1.378 . S
C988 C989 1.367 . S
C989 C988 1.367 . S
C989 C991 1.433 . S
C990 C986 1.350 . S
C990 C987 1.463 . S
C990 N994 1.427 . S
C991 H981 0.929 . S
C991 C989 1.433 . S
C991 N994 1.384 . S
C992 H983 0.929 . S
C992 C984 1.378 . S
C992 C987 1.350 . S
C993 H980 0.929 1_545 S
C993 C985 1.433 . S
C993 N995 1.384 . S
N994 C990 1.427 . S
N994 C991 1.384 . S
N995 C987 1.427 . S
N995 C993 1.384 . S
H996 C1002 0.930 . S
H997 C1006 0.930 . S
H998 C1011 0.929 . S
H999 C1009 0.929 . S
H1000 C1004 0.929 . S
H1001 C1010 0.929 . S
C1002 H996 0.930 . S
C1002 C1003 1.367 . S
C1002 C1010 1.378 . S
C1003 C1002 1.367 . S
C1003 C1011 1.433 . S
C1004 H1000 0.929 . S
C1004 C1006 1.378 . S
C1004 C1008 1.350 . S
C1005 C1008 1.463 . S
C1005 C1010 1.350 . S
C1005 N1013 1.427 . S
C1006 H997 0.930 . S
C1006 C1004 1.378 . S
C1006 C1007 1.367 . S
C1007 C1006 1.367 . S
C1007 C1009 1.433 . S
C1008 C1004 1.350 . S
C1008 C1005 1.463 . S
C1008 N1012 1.427 . S
C1009 H999 0.929 . S
C1009 C1007 1.433 . S
C1009 N1012 1.384 . S
C1010 H1001 0.929 . S
C1010 C1002 1.378 . S
C1010 C1005 1.350 . S
C1011 H998 0.929 . S
C1011 C1003 1.433 . S
C1011 N1013 1.384 . S
N1012 C1008 1.427 . S
N1012 C1009 1.384 . S
N1013 C1005 1.427 . S
N1013 C1011 1.384 . S
H1014 C1020 0.930 . S
H1015 C1024 0.930 . S
H1016 C1029 0.929 . S
H1017 C1027 0.929 . S
H1018 C1022 0.929 . S
H1019 C1028 0.929 . S
C1020 H1014 0.930 . S
C1020 C1021 1.367 . S
C1020 C1028 1.378 . S
C1021 C1020 1.367 . S
C1021 C1029 1.433 . S
C1022 H1018 0.929 . S
C1022 C1024 1.378 . S
C1022 C1026 1.350 . S
C1023 C1026 1.463 . S
C1023 C1028 1.350 . S
C1023 N1031 1.427 . S
C1024 H1015 0.930 . S
C1024 C1022 1.378 . S
C1024 C1025 1.367 . S
C1025 C1024 1.367 . S
C1025 C1027 1.433 . S
C1026 C1022 1.350 . S
C1026 C1023 1.463 . S
C1026 N1030 1.427 . S
C1027 H1017 0.929 . S
C1027 C1025 1.433 . S
C1027 N1030 1.384 . S
C1028 H1019 0.929 . S
C1028 C1020 1.378 . S
C1028 C1023 1.350 . S
C1029 H1016 0.929 . S
C1029 C1021 1.433 . S
C1029 N1031 1.384 . S
N1030 C1026 1.427 . S
N1030 C1027 1.384 . S
N1031 C1023 1.427 . S
N1031 C1029 1.384 . S
H1032 C1038 0.930 1_455 S
H1033 C1042 0.930 . S
H1034 C1047 0.929 . S
H1035 C1045 0.929 . S
H1036 C1040 0.929 . S
H1037 C1046 0.929 . S
C1038 H1032 0.930 1_655 S
C1038 C1039 1.367 . S
C1038 C1046 1.378 . S
C1039 C1038 1.367 . S
C1039 C1047 1.433 . S
C1040 H1036 0.929 . S
C1040 C1042 1.378 . S
C1040 C1044 1.350 . S
C1041 C1044 1.463 . S
C1041 C1046 1.350 . S
C1041 N1049 1.427 . S
C1042 H1033 0.930 . S
C1042 C1040 1.378 . S
C1042 C1043 1.367 . S
C1043 C1042 1.367 . S
C1043 C1045 1.433 . S
C1044 C1040 1.350 . S
C1044 C1041 1.463 . S
C1044 N1048 1.427 . S
C1045 H1035 0.929 . S
C1045 C1043 1.433 . S
C1045 N1048 1.384 . S
C1046 H1037 0.929 . S
C1046 C1038 1.378 . S
C1046 C1041 1.350 . S
C1047 H1034 0.929 . S
C1047 C1039 1.433 . S
C1047 N1049 1.384 . S
N1048 C1044 1.427 . S
N1048 C1045 1.384 . S
N1049 C1041 1.427 . S
N1049 C1047 1.384 . S
H1050 C1056 0.930 . S
H1051 C1060 0.931 1_545 S
H1052 C1065 0.929 . S
H1053 C1063 0.929 . S
H1054 C1058 0.929 . S
H1055 C1064 0.929 . S
C1056 H1050 0.930 . S
C1056 C1057 1.367 . S
C1056 C1064 1.378 . S
C1057 C1056 1.367 . S
C1057 C1065 1.433 . S
C1058 H1054 0.929 . S
C1058 C1060 1.378 . S
C1058 C1062 1.350 . S
C1059 C1062 1.463 . S
C1059 C1064 1.350 . S
C1059 N1067 1.427 . S
C1060 H1051 0.931 1_565 S
C1060 C1058 1.378 . S
C1060 C1061 1.367 . S
C1061 C1060 1.367 . S
C1061 C1063 1.433 . S
C1062 C1058 1.350 . S
C1062 C1059 1.463 . S
C1062 N1066 1.427 . S
C1063 H1053 0.929 . S
C1063 C1061 1.433 . S
C1063 N1066 1.384 . S
C1064 H1055 0.929 . S
C1064 C1056 1.378 . S
C1064 C1059 1.350 . S
C1065 H1052 0.929 . S
C1065 C1057 1.433 . S
C1065 N1067 1.384 . S
N1066 C1062 1.427 . S
N1066 C1063 1.384 . S
N1067 C1059 1.427 . S
N1067 C1065 1.384 . S
H1068 C1074 0.930 . S
H1069 C1078 0.930 . S
H1070 C1083 0.929 . S
H1071 C1081 0.929 . S
H1072 C1076 0.929 . S
H1073 C1082 0.929 . S
C1074 H1068 0.930 . S
C1074 C1075 1.367 . S
C1074 C1082 1.378 . S
C1075 C1074 1.367 . S
C1075 C1083 1.433 . S
C1076 H1072 0.929 . S
C1076 C1078 1.378 . S
C1076 C1080 1.350 . S
C1077 C1080 1.463 . S
C1077 C1082 1.350 . S
C1077 N1085 1.427 . S
C1078 H1069 0.930 . S
C1078 C1076 1.378 . S
C1078 C1079 1.367 . S
C1079 C1078 1.367 . S
C1079 C1081 1.433 . S
C1080 C1076 1.350 . S
C1080 C1077 1.463 . S
C1080 N1084 1.427 . S
C1081 H1071 0.929 . S
C1081 C1079 1.433 . S
C1081 N1084 1.384 . S
C1082 H1073 0.929 . S
C1082 C1074 1.378 . S
C1082 C1077 1.350 . S
C1083 H1070 0.929 . S
C1083 C1075 1.433 . S
C1083 N1085 1.384 . S
N1084 C1080 1.427 . S
N1084 C1081 1.384 . S
N1085 C1077 1.427 . S
N1085 C1083 1.384 . S
H1086 C1092 0.930 . S
H1087 C1096 0.930 . S
H1088 C1101 0.929 . S
H1089 C1099 0.929 . S
H1090 C1094 0.929 . S
H1091 C1100 0.929 . S
C1092 H1086 0.930 . S
C1092 C1093 1.367 . S
C1092 C1100 1.378 . S
C1093 C1092 1.367 . S
C1093 C1101 1.433 . S
C1094 H1090 0.929 . S
C1094 C1096 1.378 . S
C1094 C1098 1.350 . S
C1095 C1098 1.463 . S
C1095 C1100 1.350 . S
C1095 N1103 1.427 . S
C1096 H1087 0.930 . S
C1096 C1094 1.378 . S
C1096 C1097 1.367 . S
C1097 C1096 1.367 . S
C1097 C1099 1.433 . S
C1098 C1094 1.350 . S
C1098 C1095 1.463 . S
C1098 N1102 1.427 . S
C1099 H1089 0.929 . S
C1099 C1097 1.433 . S
C1099 N1102 1.384 . S
C1100 H1091 0.929 . S
C1100 C1092 1.378 . S
C1100 C1095 1.350 . S
C1101 H1088 0.929 . S
C1101 C1093 1.433 . S
C1101 N1103 1.384 . S
N1102 C1098 1.427 . S
N1102 C1099 1.384 . S
N1103 C1095 1.427 . S
N1103 C1101 1.384 . S
H1104 C1110 0.930 . S
H1105 C1114 0.930 . S
H1106 C1119 0.929 . S
H1107 C1117 0.929 . S
H1108 C1112 0.929 . S
H1109 C1118 0.929 . S
C1110 H1104 0.930 . S
C1110 C1111 1.367 . S
C1110 C1118 1.378 . S
C1111 C1110 1.367 . S
C1111 C1119 1.433 . S
C1112 H1108 0.929 . S
C1112 C1114 1.378 . S
C1112 C1116 1.350 . S
C1113 C1116 1.463 . S
C1113 C1118 1.350 . S
C1113 N1121 1.427 . S
C1114 H1105 0.930 . S
C1114 C1112 1.378 . S
C1114 C1115 1.367 . S
C1115 C1114 1.367 . S
C1115 C1117 1.433 . S
C1116 C1112 1.350 . S
C1116 C1113 1.463 . S
C1116 N1120 1.427 . S
C1117 H1107 0.929 . S
C1117 C1115 1.433 . S
C1117 N1120 1.384 . S
C1118 H1109 0.929 . S
C1118 C1110 1.378 . S
C1118 C1113 1.350 . S
C1119 H1106 0.929 . S
C1119 C1111 1.433 . S
C1119 N1121 1.384 . S
N1120 C1116 1.427 . S
N1120 C1117 1.384 . S
N1121 C1113 1.427 . S
N1121 C1119 1.384 . S
H1122 C1128 0.930 . S
H1123 C1132 0.930 . S
H1124 C1137 0.929 . S
H1125 C1135 0.929 . S
H1126 C1130 0.929 . S
H1127 C1136 0.929 . S
C1128 H1122 0.930 . S
C1128 C1129 1.367 . S
C1128 C1136 1.378 . S
C1129 C1128 1.367 . S
C1129 C1137 1.433 . S
C1130 H1126 0.929 . S
C1130 C1132 1.378 . S
C1130 C1134 1.350 . S
C1131 C1134 1.463 . S
C1131 C1136 1.350 . S
C1131 N1139 1.427 . S
C1132 H1123 0.930 . S
C1132 C1130 1.378 . S
C1132 C1133 1.367 . S
C1133 C1132 1.367 . S
C1133 C1135 1.433 . S
C1134 C1130 1.350 . S
C1134 C1131 1.463 . S
C1134 N1138 1.427 . S
C1135 H1125 0.929 . S
C1135 C1133 1.433 . S
C1135 N1138 1.384 . S
C1136 H1127 0.929 . S
C1136 C1128 1.378 . S
C1136 C1131 1.350 . S
C1137 H1124 0.929 . S
C1137 C1129 1.433 . S
C1137 N1139 1.384 . S
N1138 C1134 1.427 . S
N1138 C1135 1.384 . S
N1139 C1131 1.427 . S
N1139 C1137 1.384 . S
H1140 C1146 0.930 . S
H1141 C1150 0.930 . S
H1142 C1155 0.929 . S
H1143 C1153 0.929 . S
H1144 C1148 0.929 . S
H1145 C1154 0.929 . S
C1146 H1140 0.930 . S
C1146 C1147 1.367 . S
C1146 C1154 1.378 . S
C1147 C1146 1.367 . S
C1147 C1155 1.433 . S
C1148 H1144 0.929 . S
C1148 C1150 1.378 . S
C1148 C1152 1.350 . S
C1149 C1152 1.463 . S
C1149 C1154 1.350 . S
C1149 N1157 1.427 . S
C1150 H1141 0.930 . S
C1150 C1148 1.378 . S
C1150 C1151 1.367 . S
C1151 C1150 1.367 . S
C1151 C1153 1.433 . S
C1152 C1148 1.350 . S
C1152 C1149 1.463 . S
C1152 N1156 1.427 . S
C1153 H1143 0.929 . S
C1153 C1151 1.433 . S
C1153 N1156 1.384 . S
C1154 H1145 0.929 . S
C1154 C1146 1.378 . S
C1154 C1149 1.350 . S
C1155 H1142 0.929 . S
C1155 C1147 1.433 . S
C1155 N1157 1.384 . S
N1156 C1152 1.427 . S
N1156 C1153 1.384 . S
N1157 C1149 1.427 . S
N1157 C1155 1.384 . S
H1158 C1164 0.930 . S
H1159 C1168 0.930 . S
H1160 C1173 0.929 . S
H1161 C1171 0.929 . S
H1162 C1166 0.929 . S
H1163 C1172 0.929 . S
C1164 H1158 0.930 . S
C1164 C1165 1.367 . S
C1164 C1172 1.378 . S
C1165 C1164 1.367 . S
C1165 C1173 1.433 . S
C1166 H1162 0.929 . S
C1166 C1168 1.378 . S
C1166 C1170 1.350 . S
C1167 C1170 1.463 . S
C1167 C1172 1.350 . S
C1167 N1175 1.427 . S
C1168 H1159 0.930 . S
C1168 C1166 1.378 . S
C1168 C1169 1.367 . S
C1169 C1168 1.367 . S
C1169 C1171 1.433 . S
C1170 C1166 1.350 . S
C1170 C1167 1.463 . S
C1170 N1174 1.427 . S
C1171 H1161 0.929 . S
C1171 C1169 1.433 . S
C1171 N1174 1.384 . S
C1172 H1163 0.929 . S
C1172 C1164 1.378 . S
C1172 C1167 1.350 . S
C1173 H1160 0.929 . S
C1173 C1165 1.433 . S
C1173 N1175 1.384 . S
N1174 C1170 1.427 . S
N1174 C1171 1.384 . S
N1175 C1167 1.427 . S
N1175 C1173 1.384 . S
H1176 C1182 0.930 . S
H1177 C1186 0.930 . S
H1178 C1191 0.929 . S
H1179 C1189 0.929 . S
H1180 C1184 0.929 . S
H1181 C1190 0.929 . S
C1182 H1176 0.930 . S
C1182 C1183 1.367 . S
C1182 C1190 1.378 . S
C1183 C1182 1.367 . S
C1183 C1191 1.433 . S
C1184 H1180 0.929 . S
C1184 C1186 1.378 . S
C1184 C1188 1.350 . S
C1185 C1188 1.463 . S
C1185 C1190 1.350 . S
C1185 N1193 1.427 . S
C1186 H1177 0.930 . S
C1186 C1184 1.378 . S
C1186 C1187 1.367 . S
C1187 C1186 1.367 . S
C1187 C1189 1.433 . S
C1188 C1184 1.350 . S
C1188 C1185 1.463 . S
C1188 N1192 1.427 . S
C1189 H1179 0.929 . S
C1189 C1187 1.433 . S
C1189 N1192 1.384 . S
C1190 H1181 0.929 . S
C1190 C1182 1.378 . S
C1190 C1185 1.350 . S
C1191 H1178 0.929 . S
C1191 C1183 1.433 . S
C1191 N1193 1.384 . S
N1192 C1188 1.427 . S
N1192 C1189 1.384 . S
N1193 C1185 1.427 . S
N1193 C1191 1.384 . S
H1194 C1200 0.930 . S
H1195 C1204 0.930 . S
H1196 C1209 0.929 . S
H1197 C1207 0.929 . S
H1198 C1202 0.929 . S
H1199 C1208 0.929 . S
C1200 H1194 0.930 . S
C1200 C1201 1.367 . S
C1200 C1208 1.378 . S
C1201 C1200 1.367 . S
C1201 C1209 1.433 . S
C1202 H1198 0.929 . S
C1202 C1204 1.378 . S
C1202 C1206 1.350 . S
C1203 C1206 1.463 . S
C1203 C1208 1.350 . S
C1203 N1211 1.427 . S
C1204 H1195 0.930 . S
C1204 C1202 1.378 . S
C1204 C1205 1.367 . S
C1205 C1204 1.367 . S
C1205 C1207 1.433 . S
C1206 C1202 1.350 . S
C1206 C1203 1.463 . S
C1206 N1210 1.427 . S
C1207 H1197 0.929 . S
C1207 C1205 1.433 . S
C1207 N1210 1.384 . S
C1208 H1199 0.929 . S
C1208 C1200 1.378 . S
C1208 C1203 1.350 . S
C1209 H1196 0.929 . S
C1209 C1201 1.433 . S
C1209 N1211 1.384 . S
N1210 C1206 1.427 . S
N1210 C1207 1.384 . S
N1211 C1203 1.427 . S
N1211 C1209 1.384 . S
H1212 C1218 0.930 . S
H1213 C1222 0.930 . S
H1214 C1227 0.929 . S
H1215 C1225 0.929 . S
H1216 C1220 0.929 . S
H1217 C1226 0.929 . S
C1218 H1212 0.930 . S
C1218 C1219 1.367 . S
C1218 C1226 1.378 . S
C1219 C1218 1.367 . S
C1219 C1227 1.433 . S
C1220 H1216 0.929 . S
C1220 C1222 1.378 . S
C1220 C1224 1.350 . S
C1221 C1224 1.463 . S
C1221 C1226 1.350 . S
C1221 N1229 1.427 . S
C1222 H1213 0.930 . S
C1222 C1220 1.378 . S
C1222 C1223 1.367 . S
C1223 C1222 1.367 . S
C1223 C1225 1.433 . S
C1224 C1220 1.350 . S
C1224 C1221 1.463 . S
C1224 N1228 1.427 . S
C1225 H1215 0.929 . S
C1225 C1223 1.433 . S
C1225 N1228 1.384 . S
C1226 H1217 0.929 . S
C1226 C1218 1.378 . S
C1226 C1221 1.350 . S
C1227 H1214 0.929 . S
C1227 C1219 1.433 . S
C1227 N1229 1.384 . S
N1228 C1224 1.427 . S
N1228 C1225 1.384 . S
N1229 C1221 1.427 . S
N1229 C1227 1.384 . S
H1230 C1236 0.930 . S
H1231 C1240 0.930 . S
H1232 C1245 0.929 . S
H1233 C1243 0.929 . S
H1234 C1238 0.929 . S
H1235 C1244 0.929 . S
C1236 H1230 0.930 . S
C1236 C1237 1.367 . S
C1236 C1244 1.378 . S
C1237 C1236 1.367 . S
C1237 C1245 1.433 . S
C1238 H1234 0.929 . S
C1238 C1240 1.378 . S
C1238 C1242 1.350 . S
C1239 C1242 1.463 . S
C1239 C1244 1.350 . S
C1239 N1247 1.427 . S
C1240 H1231 0.930 . S
C1240 C1238 1.378 . S
C1240 C1241 1.367 . S
C1241 C1240 1.367 . S
C1241 C1243 1.433 . S
C1242 C1238 1.350 . S
C1242 C1239 1.463 . S
C1242 N1246 1.427 . S
C1243 H1233 0.929 . S
C1243 C1241 1.433 . S
C1243 N1246 1.384 . S
C1244 H1235 0.929 . S
C1244 C1236 1.378 . S
C1244 C1239 1.350 . S
C1245 H1232 0.929 . S
C1245 C1237 1.433 . S
C1245 N1247 1.384 . S
N1246 C1242 1.427 . S
N1246 C1243 1.384 . S
N1247 C1239 1.427 . S
N1247 C1245 1.384 . S
C535 N134 1.576 . S
C539 N2 1.575 . S
C553 N167 1.575 . S
C557 N35 1.576 . S
C571 N68 1.567 . S
C575 N200 1.568 . S
C589 N233 1.573 . S
C593 N101 1.574 . S
C607 N398 1.567 . S
C611 N266 1.566 . S
C625 N299 1.567 . S
C629 N431 1.566 . S
C643 N332 1.576 . S
C647 N464 1.576 . S
C661 N365 1.569 . S
C665 N497 1.571 . S
C679 C7 1.611 . S
C683 C414 1.707 . S
C697 C40 1.631 . S
C701 C447 1.719 . S
C715 C480 1.719 . S
C719 C73 1.631 . S
C733 C106 1.613 . S
C737 C513 1.708 . S
C751 C282 1.708 . S
C755 C139 1.615 . S
C769 C315 1.707 . S
C773 C172 1.613 . S
C787 C205 1.630 . S
C791 C348 1.717 . S
C805 C381 1.714 . S
C809 C238 1.621 . S
C823 C271 1.630 . S
C827 C150 1.719 . S
C841 C304 1.630 . S
C845 C183 1.719 . S
C859 C216 1.710 . S
C863 C337 1.618 . S
C877 C370 1.623 . S
C881 C249 1.715 . S
C895 C403 1.620 . S
C899 C18 1.713 . S
C913 C436 1.622 . S
C917 C51 1.712 . S
C931 C469 1.630 . S
C935 C84 1.718 . S
C949 C117 1.707 . S
C953 C502 1.612 . S
C967 N244 1.827 . S
C971 N13 1.834 . S
C985 N46 1.828 . S
C989 N145 1.833 . S
C1003 N178 1.834 . S
C1007 N79 1.827 . S
C1021 N211 1.835 . S
C1025 N112 1.827 . S
C1039 N277 1.835 . S
C1043 N508 1.829 . S
C1057 N409 1.831 . S
C1061 N310 1.833 . S
C1075 N343 1.833 . S
C1079 N442 1.831 . S
C1093 N475 1.831 . S
C1097 N376 1.833 . S
C1111 C87 0.817 . S
C1115 C21 0.815 . S
C1129 C120 0.814 . S
C1133 C54 0.810 . S
C1147 C153 0.816 . S
C1151 C219 0.813 . S
C1165 C252 0.797 . S
C1169 C186 0.798 . S
C1183 C285 0.807 . S
C1187 C351 0.811 . S
C1201 C384 0.810 . S
C1205 C318 0.813 . S
C1219 C417 0.814 . S
C1223 C483 0.817 . S
C1237 C450 0.803 . S
C1241 C516 0.800 . S
