# Generated by pormake.
# Topology sml, (6)-cn, num edge types: 1
# Building blocks:
#     Node 0, Type 0, BuildingBlock: MIFKUJ_clean_sbu_0, # of connection points: 6
#     Node 1, Type 0, BuildingBlock: MIFKUJ_clean_sbu_0, # of connection points: 6
#     Node 2, Type 0, BuildingBlock: MIFKUJ_clean_sbu_0, # of connection points: 6
#     Node 3, Type 0, BuildingBlock: MIFKUJ_clean_sbu_0, # of connection points: 6
#     Node 4, Type 0, BuildingBlock: MIFKUJ_clean_sbu_0, # of connection points: 6
#     Node 5, Type 0, BuildingBlock: MIFKUJ_clean_sbu_0, # of connection points: 6
#     Edge 6, Type (0, 0), BuildingBlock: AJUNOK_clean_linker_0, # of connection points: 2
#     Edge 7, Type (0, 0), BuildingBlock: AJUNOK_clean_linker_0, # of connection points: 2
#     Edge 8, Type (0, 0), BuildingBlock: AJUNOK_clean_linker_0, # of connection points: 2
#     Edge 9, Type (0, 0), BuildingBlock: AJUNOK_clean_linker_0, # of connection points: 2
#     Edge 10, Type (0, 0), BuildingBlock: AJUNOK_clean_linker_0, # of connection points: 2
#     Edge 11, Type (0, 0), BuildingBlock: AJUNOK_clean_linker_0, # of connection points: 2
#     Edge 12, Type (0, 0), BuildingBlock: AJUNOK_clean_linker_0, # of connection points: 2
#     Edge 13, Type (0, 0), BuildingBlock: AJUNOK_clean_linker_0, # of connection points: 2
#     Edge 14, Type (0, 0), BuildingBlock: AJUNOK_clean_linker_0, # of connection points: 2
#     Edge 15, Type (0, 0), BuildingBlock: AJUNOK_clean_linker_0, # of connection points: 2
#     Edge 16, Type (0, 0), BuildingBlock: AJUNOK_clean_linker_0, # of connection points: 2
#     Edge 17, Type (0, 0), BuildingBlock: AJUNOK_clean_linker_0, # of connection points: 2
#     Edge 18, Type (0, 0), BuildingBlock: AJUNOK_clean_linker_0, # of connection points: 2
#     Edge 19, Type (0, 0), BuildingBlock: AJUNOK_clean_linker_0, # of connection points: 2
#     Edge 20, Type (0, 0), BuildingBlock: AJUNOK_clean_linker_0, # of connection points: 2
#     Edge 21, Type (0, 0), BuildingBlock: AJUNOK_clean_linker_0, # of connection points: 2
#     Edge 22, Type (0, 0), BuildingBlock: AJUNOK_clean_linker_0, # of connection points: 2
#     Edge 23, Type (0, 0), BuildingBlock: AJUNOK_clean_linker_0, # of connection points: 2
# Relax obj value: 0.139
# Max RMSD: 0.180
# Mean RMSD: 0.180
data_MOF--net-sml--node1-MIFKUJ_clean_sbu_0--edge1-AJUNOK_clean_linker_0
_symmetry_space_group_name_H-M    P1
_symmetry_Int_Tables_number       1
_symmetry_cell_setting            triclinic
loop_
_symmetry_equiv_pos_as_xyz
'x, y, z'
_cell_length_a     28.396982
_cell_length_b     28.299159
_cell_length_c     14.248686
_cell_angle_alpha  89.999442
_cell_angle_beta   90.106946
_cell_angle_gamma 119.84917
loop_
_atom_site_label
_atom_site_type_symbol
_atom_site_fract_x
_atom_site_fract_y
_atom_site_fract_z
_atom_type_partial_charge
Zn0 Zn 0.24489 0.46291 0.11134 0.0
Zn1 Zn 0.21156 0.43749 0.89761 0.0
C2 C 0.25564 0.5661 0.14122 0.0
O3 O 0.30612 0.57678 0.14858 0.0
C4 C 0.225 0.34396 0.87295 0.0
O5 O 0.1726 0.32015 0.85626 0.0
O6 O 0.26531 0.46191 0.24663 0.0
O7 O 0.18149 0.38645 0.08937 0.0
O8 O 0.14236 0.4047 0.97249 0.0
C9 C 0.22539 0.4495 0.3014 0.0
O10 O 0.17808 0.43668 0.26435 0.0
O11 O 0.21898 0.51812 0.11868 0.0
C12 C 0.24049 0.45618 0.70978 0.0
O13 O 0.28706 0.4732 0.75308 0.0
O14 O 0.19752 0.43824 0.75904 0.0
O15 O 0.26399 0.51476 0.92834 0.0
O16 O 0.31144 0.49467 0.02531 0.0
O17 O 0.24969 0.39307 0.90154 0.0
C18 C 0.13879 0.37914 0.04777 0.0
C19 C 0.30969 0.52423 0.95959 0.0
Zn20 Zn 0.77372 0.21466 0.44604 0.0
Zn21 Zn 0.81332 0.1932 0.21467 0.0
C22 C 0.66993 0.18235 0.5351 0.0
O23 O 0.68701 0.15936 0.59611 0.0
C24 C 0.9261 0.23234 0.20331 0.0
O25 O 0.90727 0.18061 0.18378 0.0
O26 O 0.80762 0.23599 0.57477 0.0
O27 O 0.76376 0.13979 0.41974 0.0
O28 O 0.78918 0.12293 0.28321 0.0
C29 C 0.82331 0.20692 0.61804 0.0
O30 O 0.82561 0.16778 0.57266 0.0
O31 O 0.69925 0.20606 0.46389 0.0
C32 C 0.82622 0.22008 0.02494 0.0
O33 O 0.84175 0.26749 0.06477 0.0
O34 O 0.80934 0.17812 0.07668 0.0
O35 O 0.76743 0.22857 0.23088 0.0
O36 O 0.81188 0.27762 0.35339 0.0
O37 O 0.89307 0.24742 0.23116 0.0
C38 C 0.76966 0.10771 0.3649 0.0
C39 C 0.787 0.27279 0.27662 0.0
Zn40 Zn 0.59654 0.7972 0.7547 0.0
Zn41 Zn 0.61251 0.78191 0.54027 0.0
C42 C 0.49787 0.71565 0.81129 0.0
O43 O 0.49687 0.76111 0.82428 0.0
C44 C 0.70035 0.88699 0.49613 0.0
O45 O 0.71658 0.85606 0.45496 0.0
O46 O 0.60622 0.8238 0.88908 0.0
O47 O 0.66985 0.80548 0.72073 0.0
O48 O 0.64061 0.74081 0.6151 0.0
C49 C 0.6199 0.79589 0.94105 0.0
O50 O 0.62916 0.75951 0.90103 0.0
O51 O 0.5398 0.71804 0.77439 0.0
C52 C 0.59978 0.79479 0.34802 0.0
O53 O 0.58207 0.82532 0.38609 0.0
O54 O 0.61367 0.76783 0.40176 0.0
O55 O 0.53597 0.75996 0.56991 0.0
O56 O 0.55799 0.8269 0.6707 0.0
O57 O 0.65876 0.86434 0.54893 0.0
C58 C 0.67001 0.76429 0.68608 0.0
C59 C 0.52464 0.79266 0.61155 0.0
Zn60 Zn 0.76684 0.55298 0.12139 0.0
Zn61 Zn 0.80095 0.57882 0.90782 0.0
C62 C 0.75311 0.44954 0.15403 0.0
O63 O 0.70404 0.44218 0.16602 0.0
C64 C 0.78566 0.6696 0.873 0.0
O65 O 0.83719 0.69175 0.85048 0.0
O66 O 0.7465 0.55527 0.2563 0.0
O67 O 0.83053 0.62914 0.10004 0.0
O68 O 0.87048 0.61287 0.98242 0.0
C69 C 0.7865 0.5676 0.31118 0.0
O70 O 0.83331 0.57886 0.2742 0.0
O71 O 0.7911 0.49646 0.12964 0.0
C72 C 0.77208 0.56081 0.71962 0.0
O73 O 0.72534 0.54206 0.76277 0.0
O74 O 0.81506 0.57861 0.76911 0.0
O75 O 0.74884 0.50127 0.9384 0.0
O76 O 0.70073 0.52123 0.03395 0.0
O77 O 0.76234 0.62278 0.91125 0.0
C78 C 0.87356 0.63828 0.05768 0.0
C79 C 0.70299 0.49112 0.96976 0.0
Zn80 Zn 0.23752 0.79825 0.45398 0.0
Zn81 Zn 0.19905 0.82063 0.22609 0.0
C82 C 0.31544 0.77079 0.51591 0.0
O83 O 0.26984 0.72585 0.53444 0.0
C84 C 0.08601 0.78369 0.21801 0.0
O85 O 0.10508 0.83622 0.20737 0.0
O86 O 0.20244 0.77747 0.57954 0.0
O87 O 0.24423 0.87196 0.42981 0.0
O88 O 0.22156 0.89099 0.29282 0.0
C89 C 0.22902 0.8146 0.63955 0.0
O90 O 0.27296 0.85895 0.61232 0.0
O91 O 0.31308 0.80996 0.4768 0.0
C92 C 0.18726 0.79344 0.03877 0.0
O93 O 0.16541 0.74558 0.07976 0.0
O94 O 0.20664 0.836 0.08951 0.0
O95 O 0.24499 0.7853 0.24479 0.0
O96 O 0.19976 0.73413 0.36378 0.0
O97 O 0.11884 0.76681 0.23776 0.0
C98 C 0.23884 0.90476 0.37608 0.0
C99 C 0.22182 0.7391 0.2843 0.0
Zn100 Zn 0.41625 0.21237 0.7761 0.0
Zn101 Zn 0.40162 0.22731 0.56319 0.0
C102 C 0.51722 0.29434 0.82732 0.0
O103 O 0.51822 0.24907 0.84287 0.0
C104 C 0.30998 0.12473 0.51331 0.0
O105 O 0.29656 0.15746 0.47053 0.0
O106 O 0.40776 0.18883 0.9118 0.0
O107 O 0.3436 0.20582 0.74355 0.0
O108 O 0.37546 0.27046 0.63797 0.0
C109 C 0.39705 0.21918 0.96312 0.0
O110 O 0.38938 0.25637 0.92207 0.0
O111 O 0.47512 0.29127 0.78962 0.0
C112 C 0.41307 0.2143 0.3706 0.0
O113 O 0.42456 0.17871 0.40773 0.0
O114 O 0.40298 0.2438 0.42516 0.0
O115 O 0.47654 0.2421 0.59241 0.0
O116 O 0.44934 0.17612 0.69598 0.0
O117 O 0.35074 0.14547 0.56844 0.0
C118 C 0.34407 0.24686 0.70668 0.0
C119 C 0.48211 0.20478 0.63115 0.0
C120 C 0.33403 0.32716 0.74949 0.0
C121 C 0.31307 0.27043 0.75076 0.0
C122 C 0.30653 0.35081 0.79339 0.0
C123 C 0.25638 0.31852 0.83837 0.0
H124 H 0.37228 0.35364 0.71506 0.0
H125 H 0.3239 0.3946 0.78931 0.0
S126 S 0.18456 0.16823 0.86331 0.0
N127 N 0.24002 0.18276 0.80377 0.0
N128 N 0.18738 0.22711 0.88307 0.0
C129 C 0.23513 0.26185 0.84067 0.0
C130 C 0.26374 0.23785 0.79784 0.0
C131 C 0.07311 0.29253 0.12805 0.0
C132 C 0.08526 0.3433 0.09068 0.0
C133 C 0.02203 0.25756 0.16741 0.0
C134 C 0.98193 0.27289 0.17361 0.0
H135 H 0.10274 0.27908 0.12438 0.0
H136 H 0.01362 0.2179 0.19207 0.0
S137 S 0.99614 0.40434 0.0939 0.0
N138 N 0.05469 0.40871 0.06675 0.0
N139 N 0.95945 0.34409 0.14352 0.0
C140 C 0.9947 0.32479 0.14029 0.0
C141 C 0.04615 0.35968 0.09799 0.0
C142 C 0.72255 0.03099 0.48014 0.0
C143 C 0.75463 0.05214 0.3989 0.0
C144 C 0.7067 0.97836 0.51285 0.0
C145 C 0.72275 0.94475 0.4665 0.0
H146 H 0.70859 0.05486 0.51811 0.0
H147 H 0.6809 0.96365 0.57423 0.0
S148 S 0.80974 0.98181 0.2538 0.0
N149 N 0.80382 0.03592 0.27517 0.0
N150 N 0.77458 0.93752 0.33671 0.0
C151 C 0.75625 0.966 0.38678 0.0
C152 C 0.77194 0.01942 0.35294 0.0
C153 C 0.75127 0.77273 0.77035 0.0
C154 C 0.69817 0.73976 0.73644 0.0
C155 C 0.77873 0.74988 0.81737 0.0
C156 C 0.75337 0.69351 0.83515 0.0
H157 H 0.77226 0.81628 0.75814 0.0
H158 H 0.82039 0.77651 0.83902 0.0
S159 S 0.61224 0.59051 0.76897 0.0
N160 N 0.61997 0.64858 0.72822 0.0
N161 N 0.67044 0.60583 0.81979 0.0
C162 C 0.69919 0.66053 0.80547 0.0
C163 C 0.67191 0.6836 0.7552 0.0
C164 C 0.02085 0.6989 0.13251 0.0
C165 C 0.03037 0.7449 0.18526 0.0
C166 C 0.97035 0.66534 0.08987 0.0
C167 C 0.92708 0.67576 0.10026 0.0
H168 H 0.05316 0.6897 0.12138 0.0
H169 H 0.96503 0.63065 0.04924 0.0
S170 S 0.93046 0.78972 0.2347 0.0
N171 N 0.99228 0.79872 0.2466 0.0
N172 N 0.89668 0.73448 0.16959 0.0
C173 C 0.93565 0.72079 0.15491 0.0
C174 C 0.98747 0.75567 0.1965 0.0
C175 C 0.30028 0.03204 0.52946 0.0
C176 C 0.28628 0.06702 0.48235 0.0
C177 C 0.28407 0.97962 0.49533 0.0
C178 C 0.25344 0.95987 0.4121 0.0
H179 H 0.32504 0.04559 0.59236 0.0
H180 H 0.29695 0.95498 0.5336 0.0
S181 S 0.20381 0.03415 0.264 0.0
N182 N 0.23792 0.07716 0.34942 0.0
N183 N 0.20775 0.97892 0.28545 0.0
C184 C 0.23798 0.9939 0.36539 0.0
C185 C 0.25418 0.04724 0.40053 0.0
C186 C 0.18784 0.43319 0.55954 0.0
C187 C 0.23824 0.45572 0.60563 0.0
C188 C 0.1844 0.43105 0.46146 0.0
C189 C 0.23119 0.45124 0.40505 0.0
H190 H 0.15052 0.41678 0.59937 0.0
H191 H 0.14445 0.41323 0.4298 0.0
S192 S 0.37342 0.51574 0.49056 0.0
N193 N 0.33647 0.49963 0.58693 0.0
N194 N 0.32973 0.49547 0.40262 0.0
C195 C 0.28197 0.47409 0.44999 0.0
C196 C 0.28555 0.4764 0.55014 0.0
C197 C 0.83538 0.26045 0.86572 0.0
C198 C 0.8283 0.21635 0.92156 0.0
C199 C 0.83555 0.25773 0.76766 0.0
C200 C 0.82936 0.21108 0.72143 0.0
H201 H 0.83965 0.2971 0.89777 0.0
H202 H 0.83973 0.29221 0.72781 0.0
S203 S 0.81251 0.08544 0.83538 0.0
N204 N 0.8171 0.12535 0.92354 0.0
N205 N 0.81782 0.12026 0.73923 0.0
C206 C 0.82401 0.16728 0.77643 0.0
C207 C 0.82327 0.16986 0.87644 0.0
C208 C 0.58729 0.82251 0.18714 0.0
C209 C 0.60653 0.79517 0.24465 0.0
C210 C 0.59328 0.82415 0.08932 0.0
C211 C 0.61878 0.79851 0.04496 0.0
H212 H 0.56684 0.84248 0.21763 0.0
H213 H 0.57667 0.84464 0.04819 0.0
S214 S 0.67996 0.72479 0.16364 0.0
N215 N 0.65463 0.74413 0.2499 0.0
N216 N 0.6661 0.74731 0.06656 0.0
C217 C 0.63946 0.77217 0.10174 0.0
C218 C 0.63326 0.77042 0.20133 0.0
C219 C 0.82362 0.57811 0.56944 0.0
C220 C 0.77436 0.56263 0.6155 0.0
C221 C 0.82693 0.58011 0.47137 0.0
C222 C 0.78116 0.56685 0.4149 0.0
H223 H 0.86004 0.5885 0.60928 0.0
H224 H 0.86592 0.59193 0.43982 0.0
S225 S 0.64267 0.52572 0.50069 0.0
N226 N 0.67872 0.53516 0.59696 0.0
N227 N 0.68514 0.53889 0.41266 0.0
C228 C 0.73169 0.55195 0.45991 0.0
C229 C 0.72825 0.54982 0.56007 0.0
C230 C 0.2379 0.8537 0.79879 0.0
C231 C 0.21337 0.80801 0.73928 0.0
C232 C 0.2278 0.84877 0.8951 0.0
C233 C 0.19305 0.79786 0.93583 0.0
H234 H 0.26592 0.89371 0.77118 0.0
H235 H 0.24866 0.88506 0.93809 0.0
S236 S 0.11537 0.66608 0.80974 0.0
N237 N 0.15032 0.71059 0.72689 0.0
N238 N 0.13121 0.70117 0.90857 0.0
C239 C 0.16662 0.75201 0.87677 0.0
C240 C 0.17676 0.75713 0.77828 0.0
C241 C 0.42052 0.18359 0.20942 0.0
C242 C 0.40849 0.21664 0.26711 0.0
C243 C 0.41566 0.18376 0.11154 0.0
C244 C 0.39856 0.21702 0.06714 0.0
H245 H 0.43405 0.1573 0.23986 0.0
H246 H 0.42607 0.15806 0.07048 0.0
S247 S 0.36042 0.31015 0.1861 0.0
N248 N 0.37763 0.28284 0.27242 0.0
N249 N 0.36828 0.28318 0.08888 0.0
C250 C 0.38579 0.24991 0.12401 0.0
C251 C 0.39085 0.24977 0.22376 0.0
C252 C 0.27998 0.66346 0.15188 0.0
C253 C 0.24227 0.60839 0.16916 0.0
C254 C 0.27212 0.70522 0.18725 0.0
C255 C 0.22696 0.69363 0.2436 0.0
H256 H 0.31635 0.67443 0.11165 0.0
H257 H 0.30268 0.74702 0.17277 0.0
S258 S 0.11534 0.55587 0.30702 0.0
N259 N 0.15695 0.54419 0.24302 0.0
N260 N 0.14284 0.62281 0.31196 0.0
C261 C 0.18837 0.63864 0.26006 0.0
C262 C 0.19579 0.59599 0.2221 0.0
C263 C 0.58935 0.1613 0.63608 0.0
C264 C 0.6198 0.18513 0.55413 0.0
C265 C 0.54427 0.16678 0.65959 0.0
C266 C 0.52798 0.19667 0.60251 0.0
H267 H 0.60086 0.13891 0.68363 0.0
H268 H 0.52286 0.14848 0.72417 0.0
S269 S 0.59151 0.26408 0.37661 0.0
N270 N 0.62832 0.23733 0.41304 0.0
N271 N 0.54447 0.2482 0.45746 0.0
C272 C 0.55725 0.21957 0.51904 0.0
C273 C 0.60283 0.21362 0.49478 0.0
C274 C 0.35461 0.61429 0.88093 0.0
C275 C 0.35922 0.57152 0.92184 0.0
C276 C 0.3996 0.65972 0.84301 0.0
C277 C 0.45104 0.66405 0.8429 0.0
H278 H 0.31595 0.61325 0.87941 0.0
H279 H 0.394 0.69199 0.81397 0.0
S280 S 0.48493 0.5625 0.93731 0.0
N281 N 0.41923 0.53559 0.95768 0.0
N282 N 0.50427 0.6214 0.88476 0.0
C283 C 0.45635 0.62116 0.88125 0.0
C284 C 0.41036 0.57489 0.92146 0.0
C285 C 0.81842 0.37238 0.25814 0.0
C286 C 0.77892 0.31762 0.24174 0.0
C287 C 0.81122 0.41526 0.22538 0.0
C288 C 0.76369 0.40472 0.17712 0.0
H289 H 0.85522 0.38217 0.29628 0.0
H290 H 0.84214 0.45682 0.24087 0.0
S291 S 0.64842 0.26879 0.11486 0.0
N292 N 0.69125 0.25549 0.17164 0.0
N293 N 0.67722 0.33583 0.11271 0.0
C294 C 0.72422 0.35026 0.15958 0.0
C295 C 0.73197 0.30676 0.19115 0.0
C296 C 0.41487 0.82775 0.5541 0.0
C297 C 0.36834 0.77597 0.54304 0.0
C298 C 0.46517 0.83329 0.5804 0.0
C299 C 0.4708 0.78722 0.59456 0.0
H300 H 0.41244 0.86432 0.54262 0.0
H301 H 0.50015 0.87375 0.58674 0.0
S302 S 0.36158 0.64264 0.5784 0.0
N303 N 0.33126 0.67782 0.55208 0.0
N304 N 0.42562 0.68834 0.59915 0.0
C305 C 0.42457 0.73535 0.58504 0.0
C306 C 0.37339 0.72968 0.5599 0.0
C307 C 0.6589 0.39721 0.90583 0.0
C308 C 0.65399 0.44196 0.93538 0.0
C309 C 0.61455 0.35038 0.86941 0.0
C310 C 0.56353 0.34656 0.85939 0.0
H311 H 0.69735 0.39804 0.91186 0.0
H312 H 0.62042 0.31679 0.84896 0.0
S313 S 0.52931 0.45289 0.92428 0.0
N314 N 0.59429 0.48004 0.9515 0.0
N315 N 0.51048 0.39174 0.8814 0.0
C316 C 0.55797 0.39124 0.88743 0.0
C317 C 0.60326 0.43892 0.92615 0.0
loop_
_geom_bond_atom_site_label_1
_geom_bond_atom_site_label_2
_geom_bond_distance
_geom_bond_site_symmetry_2
_ccdc_geom_bond_type
Zn0 O6 1.969 . S
Zn0 O7 1.965 . S
Zn0 O11 2.024 . S
Zn0 O16 1.969 . S
Zn1 O8 1.969 . S
Zn1 O14 1.969 . S
Zn1 O15 1.965 . S
Zn1 O17 2.024 . S
C2 O3 1.229 . S
C2 O11 1.058 . S
O3 C2 1.229 . S
C4 O5 1.229 . S
C4 O17 1.058 . S
O5 C4 1.229 . S
O6 Zn0 1.969 . S
O6 C9 1.267 . S
O7 Zn0 1.965 . S
O7 C18 1.260 . S
O8 Zn1 1.969 . S
O8 C18 1.258 1_556 S
C9 O6 1.267 . S
C9 O10 1.228 . S
O10 C9 1.228 . S
O11 Zn0 2.024 . S
O11 C2 1.058 . S
C12 O13 1.228 . S
C12 O14 1.267 . S
O13 C12 1.228 . S
O14 Zn1 1.969 . S
O14 C12 1.267 . S
O15 Zn1 1.965 . S
O15 C19 1.260 . S
O16 Zn0 1.969 . S
O16 C19 1.258 1_554 S
O17 Zn1 2.024 . S
O17 C4 1.058 . S
C18 O7 1.260 . S
C18 O8 1.258 1_554 S
C19 O15 1.260 . S
C19 O16 1.258 1_556 S
Zn20 O26 1.969 . S
Zn20 O27 1.965 . S
Zn20 O31 2.024 . S
Zn20 O36 1.969 . S
Zn21 O28 1.969 . S
Zn21 O34 1.969 . S
Zn21 O35 1.965 . S
Zn21 O37 2.024 . S
C22 O23 1.229 . S
C22 O31 1.058 . S
O23 C22 1.229 . S
C24 O25 1.229 . S
C24 O37 1.058 . S
O25 C24 1.229 . S
O26 Zn20 1.969 . S
O26 C29 1.267 . S
O27 Zn20 1.965 . S
O27 C38 1.260 . S
O28 Zn21 1.969 . S
O28 C38 1.258 . S
C29 O26 1.267 . S
C29 O30 1.228 . S
O30 C29 1.228 . S
O31 Zn20 2.024 . S
O31 C22 1.058 . S
C32 O33 1.228 . S
C32 O34 1.267 . S
O33 C32 1.228 . S
O34 Zn21 1.969 . S
O34 C32 1.267 . S
O35 Zn21 1.965 . S
O35 C39 1.260 . S
O36 Zn20 1.969 . S
O36 C39 1.258 . S
O37 Zn21 2.024 . S
O37 C24 1.058 . S
C38 O27 1.260 . S
C38 O28 1.258 . S
C39 O35 1.260 . S
C39 O36 1.258 . S
Zn40 O46 1.969 . S
Zn40 O47 1.965 . S
Zn40 O51 2.024 . S
Zn40 O56 1.969 . S
Zn41 O48 1.969 . S
Zn41 O54 1.969 . S
Zn41 O55 1.965 . S
Zn41 O57 2.024 . S
C42 O43 1.229 . S
C42 O51 1.058 . S
O43 C42 1.229 . S
C44 O45 1.229 . S
C44 O57 1.058 . S
O45 C44 1.229 . S
O46 Zn40 1.969 . S
O46 C49 1.267 . S
O47 Zn40 1.965 . S
O47 C58 1.260 . S
O48 Zn41 1.969 . S
O48 C58 1.258 . S
C49 O46 1.267 . S
C49 O50 1.228 . S
O50 C49 1.228 . S
O51 Zn40 2.024 . S
O51 C42 1.058 . S
C52 O53 1.228 . S
C52 O54 1.267 . S
O53 C52 1.228 . S
O54 Zn41 1.969 . S
O54 C52 1.267 . S
O55 Zn41 1.965 . S
O55 C59 1.260 . S
O56 Zn40 1.969 . S
O56 C59 1.258 . S
O57 Zn41 2.024 . S
O57 C44 1.058 . S
C58 O47 1.260 . S
C58 O48 1.258 . S
C59 O55 1.260 . S
C59 O56 1.258 . S
Zn60 O66 1.969 . S
Zn60 O67 1.965 . S
Zn60 O71 2.024 . S
Zn60 O76 1.969 . S
Zn61 O68 1.969 . S
Zn61 O74 1.969 . S
Zn61 O75 1.965 . S
Zn61 O77 2.024 . S
C62 O63 1.229 . S
C62 O71 1.058 . S
O63 C62 1.229 . S
C64 O65 1.229 . S
C64 O77 1.058 . S
O65 C64 1.229 . S
O66 Zn60 1.969 . S
O66 C69 1.267 . S
O67 Zn60 1.965 . S
O67 C78 1.260 . S
O68 Zn61 1.969 . S
O68 C78 1.258 1_556 S
C69 O66 1.267 . S
C69 O70 1.228 . S
O70 C69 1.228 . S
O71 Zn60 2.024 . S
O71 C62 1.058 . S
C72 O73 1.228 . S
C72 O74 1.267 . S
O73 C72 1.228 . S
O74 Zn61 1.969 . S
O74 C72 1.267 . S
O75 Zn61 1.965 . S
O75 C79 1.260 . S
O76 Zn60 1.969 . S
O76 C79 1.258 1_554 S
O77 Zn61 2.024 . S
O77 C64 1.058 . S
C78 O67 1.260 . S
C78 O68 1.258 1_554 S
C79 O75 1.260 . S
C79 O76 1.258 1_556 S
Zn80 O86 1.969 . S
Zn80 O87 1.965 . S
Zn80 O91 2.024 . S
Zn80 O96 1.969 . S
Zn81 O88 1.969 . S
Zn81 O94 1.969 . S
Zn81 O95 1.965 . S
Zn81 O97 2.024 . S
C82 O83 1.229 . S
C82 O91 1.058 . S
O83 C82 1.229 . S
C84 O85 1.229 . S
C84 O97 1.058 . S
O85 C84 1.229 . S
O86 Zn80 1.969 . S
O86 C89 1.267 . S
O87 Zn80 1.965 . S
O87 C98 1.260 . S
O88 Zn81 1.969 . S
O88 C98 1.258 . S
C89 O86 1.267 . S
C89 O90 1.228 . S
O90 C89 1.228 . S
O91 Zn80 2.024 . S
O91 C82 1.058 . S
C92 O93 1.228 . S
C92 O94 1.267 . S
O93 C92 1.228 . S
O94 Zn81 1.969 . S
O94 C92 1.267 . S
O95 Zn81 1.965 . S
O95 C99 1.260 . S
O96 Zn80 1.969 . S
O96 C99 1.258 . S
O97 Zn81 2.024 . S
O97 C84 1.058 . S
C98 O87 1.260 . S
C98 O88 1.258 . S
C99 O95 1.260 . S
C99 O96 1.258 . S
Zn100 O106 1.969 . S
Zn100 O107 1.965 . S
Zn100 O111 2.024 . S
Zn100 O116 1.969 . S
Zn101 O108 1.969 . S
Zn101 O114 1.969 . S
Zn101 O115 1.965 . S
Zn101 O117 2.024 . S
C102 O103 1.229 . S
C102 O111 1.058 . S
O103 C102 1.229 . S
C104 O105 1.229 . S
C104 O117 1.058 . S
O105 C104 1.229 . S
O106 Zn100 1.969 . S
O106 C109 1.267 . S
O107 Zn100 1.965 . S
O107 C118 1.260 . S
O108 Zn101 1.969 . S
O108 C118 1.258 . S
C109 O106 1.267 . S
C109 O110 1.228 . S
O110 C109 1.228 . S
O111 Zn100 2.024 . S
O111 C102 1.058 . S
C112 O113 1.228 . S
C112 O114 1.267 . S
O113 C112 1.228 . S
O114 Zn101 1.969 . S
O114 C112 1.267 . S
O115 Zn101 1.965 . S
O115 C119 1.260 . S
O116 Zn100 1.969 . S
O116 C119 1.258 . S
O117 Zn101 2.024 . S
O117 C104 1.058 . S
C118 O107 1.260 . S
C118 O108 1.258 . S
C119 O115 1.260 . S
C119 O116 1.258 . S
C120 C121 1.369 . S
C120 C122 1.419 . S
C120 H124 0.930 . S
C121 C120 1.369 . S
C121 C130 1.429 . S
C122 C120 1.419 . S
C122 C123 1.363 . S
C122 H125 0.929 . S
C123 C122 1.363 . S
C123 C129 1.428 . S
H124 C120 0.930 . S
H125 C122 0.929 . S
S126 N127 1.613 . S
S126 N128 1.610 . S
N127 S126 1.613 . S
N127 C130 1.350 . S
N128 S126 1.610 . S
N128 C129 1.351 . S
C129 C123 1.428 . S
C129 N128 1.351 . S
C129 C130 1.434 . S
C130 C121 1.429 . S
C130 N127 1.350 . S
C130 C129 1.434 . S
C131 C132 1.369 . S
C131 C133 1.419 . S
C131 H135 0.930 . S
C132 C131 1.369 . S
C132 C141 1.429 . S
C133 C131 1.419 . S
C133 C134 1.363 1_455 S
C133 H136 0.929 1_455 S
C134 C133 1.363 1_655 S
C134 C140 1.429 1_655 S
H135 C131 0.930 . S
H136 C133 0.929 1_655 S
S137 N138 1.613 . S
S137 N139 1.610 1_455 S
N138 S137 1.613 . S
N138 C141 1.350 . S
N139 S137 1.610 1_655 S
N139 C140 1.344 1_655 S
C140 C134 1.429 1_455 S
C140 N139 1.344 1_455 S
C140 C141 1.440 . S
C141 C132 1.429 . S
C141 N138 1.350 . S
C141 C140 1.440 . S
C142 C143 1.369 . S
C142 C144 1.419 . S
C142 H146 0.930 . S
C143 C142 1.369 . S
C143 C152 1.429 . S
C144 C142 1.419 . S
C144 C145 1.363 1_545 S
C144 H147 0.929 . S
C145 C144 1.363 1_565 S
C145 C151 1.428 . S
H146 C142 0.930 . S
H147 C144 0.929 . S
S148 N149 1.613 1_565 S
S148 N150 1.610 . S
N149 S148 1.613 1_545 S
N149 C152 1.350 . S
N150 S148 1.610 . S
N150 C151 1.351 . S
C151 C145 1.428 . S
C151 N150 1.351 . S
C151 C152 1.434 1_565 S
C152 C143 1.429 . S
C152 N149 1.350 . S
C152 C151 1.434 1_545 S
C153 C154 1.369 . S
C153 C155 1.419 . S
C153 H157 0.930 . S
C154 C153 1.369 . S
C154 C163 1.429 . S
C155 C153 1.419 . S
C155 C156 1.363 . S
C155 H158 0.929 . S
C156 C155 1.363 . S
C156 C162 1.428 . S
H157 C153 0.930 . S
H158 C155 0.929 . S
S159 N160 1.613 . S
S159 N161 1.610 . S
N160 S159 1.613 . S
N160 C163 1.350 . S
N161 S159 1.610 . S
N161 C162 1.351 . S
C162 C156 1.428 . S
C162 N161 1.351 . S
C162 C163 1.434 . S
C163 C154 1.429 . S
C163 N160 1.350 . S
C163 C162 1.434 . S
C164 C165 1.369 . S
C164 C166 1.419 1_455 S
C164 H168 0.930 . S
C165 C164 1.369 . S
C165 C174 1.429 1_455 S
C166 C164 1.419 1_655 S
C166 C167 1.363 . S
C166 H169 0.929 . S
C167 C166 1.363 . S
C167 C173 1.428 . S
H168 C164 0.930 . S
H169 C166 0.929 . S
S170 N171 1.613 . S
S170 N172 1.610 . S
N171 S170 1.613 . S
N171 C174 1.350 . S
N172 S170 1.610 . S
N172 C173 1.351 . S
C173 C167 1.428 . S
C173 N172 1.351 . S
C173 C174 1.434 . S
C174 C165 1.429 1_655 S
C174 N171 1.350 . S
C174 C173 1.434 . S
C175 C176 1.369 1_565 S
C175 C177 1.419 . S
C175 H179 0.930 . S
C176 C175 1.369 1_545 S
C176 C185 1.429 . S
C177 C175 1.419 . S
C177 C178 1.363 . S
C177 H180 0.929 . S
C178 C177 1.363 . S
C178 C184 1.428 . S
H179 C175 0.930 . S
H180 C177 0.929 . S
S181 N182 1.613 . S
S181 N183 1.610 1_545 S
N182 S181 1.613 . S
N182 C185 1.350 . S
N183 S181 1.610 1_565 S
N183 C184 1.351 . S
C184 C178 1.428 . S
C184 N183 1.351 . S
C184 C185 1.434 1_565 S
C185 C176 1.429 . S
C185 N182 1.350 . S
C185 C184 1.434 1_545 S
C186 C187 1.369 . S
C186 C188 1.419 . S
C186 H190 0.930 . S
C187 C186 1.369 . S
C187 C196 1.429 . S
C188 C186 1.419 . S
C188 C189 1.363 . S
C188 H191 0.929 . S
C189 C188 1.363 . S
C189 C195 1.428 . S
H190 C186 0.930 . S
H191 C188 0.929 . S
S192 N193 1.613 . S
S192 N194 1.610 . S
N193 S192 1.613 . S
N193 C196 1.350 . S
N194 S192 1.610 . S
N194 C195 1.351 . S
C195 C189 1.428 . S
C195 N194 1.351 . S
C195 C196 1.434 . S
C196 C187 1.429 . S
C196 N193 1.350 . S
C196 C195 1.434 . S
C197 C198 1.369 . S
C197 C199 1.419 . S
C197 H201 0.930 . S
C198 C197 1.369 . S
C198 C207 1.429 . S
C199 C197 1.419 . S
C199 C200 1.363 . S
C199 H202 0.929 . S
C200 C199 1.363 . S
C200 C206 1.428 . S
H201 C197 0.930 . S
H202 C199 0.929 . S
S203 N204 1.613 . S
S203 N205 1.610 . S
N204 S203 1.613 . S
N204 C207 1.350 . S
N205 S203 1.610 . S
N205 C206 1.351 . S
C206 C200 1.428 . S
C206 N205 1.351 . S
C206 C207 1.434 . S
C207 C198 1.429 . S
C207 N204 1.350 . S
C207 C206 1.434 . S
C208 C209 1.369 . S
C208 C210 1.419 . S
C208 H212 0.930 . S
C209 C208 1.369 . S
C209 C218 1.429 . S
C210 C208 1.419 . S
C210 C211 1.363 . S
C210 H213 0.929 . S
C211 C210 1.363 . S
C211 C217 1.428 . S
H212 C208 0.930 . S
H213 C210 0.929 . S
S214 N215 1.613 . S
S214 N216 1.610 . S
N215 S214 1.613 . S
N215 C218 1.350 . S
N216 S214 1.610 . S
N216 C217 1.351 . S
C217 C211 1.428 . S
C217 N216 1.351 . S
C217 C218 1.434 . S
C218 C209 1.429 . S
C218 N215 1.350 . S
C218 C217 1.434 . S
C219 C220 1.369 . S
C219 C221 1.419 . S
C219 H223 0.930 . S
C220 C219 1.369 . S
C220 C229 1.429 . S
C221 C219 1.419 . S
C221 C222 1.363 . S
C221 H224 0.929 . S
C222 C221 1.363 . S
C222 C228 1.428 . S
H223 C219 0.930 . S
H224 C221 0.929 . S
S225 N226 1.613 . S
S225 N227 1.610 . S
N226 S225 1.613 . S
N226 C229 1.350 . S
N227 S225 1.610 . S
N227 C228 1.351 . S
C228 C222 1.428 . S
C228 N227 1.351 . S
C228 C229 1.434 . S
C229 C220 1.429 . S
C229 N226 1.350 . S
C229 C228 1.434 . S
C230 C231 1.369 . S
C230 C232 1.419 . S
C230 H234 0.930 . S
C231 C230 1.369 . S
C231 C240 1.429 . S
C232 C230 1.419 . S
C232 C233 1.363 . S
C232 H235 0.929 . S
C233 C232 1.363 . S
C233 C239 1.428 . S
H234 C230 0.930 . S
H235 C232 0.929 . S
S236 N237 1.613 . S
S236 N238 1.610 . S
N237 S236 1.613 . S
N237 C240 1.350 . S
N238 S236 1.610 . S
N238 C239 1.351 . S
C239 C233 1.428 . S
C239 N238 1.351 . S
C239 C240 1.434 . S
C240 C231 1.429 . S
C240 N237 1.350 . S
C240 C239 1.434 . S
C241 C242 1.369 . S
C241 C243 1.419 . S
C241 H245 0.930 . S
C242 C241 1.369 . S
C242 C251 1.429 . S
C243 C241 1.419 . S
C243 C244 1.363 . S
C243 H246 0.929 . S
C244 C243 1.363 . S
C244 C250 1.428 . S
H245 C241 0.930 . S
H246 C243 0.929 . S
S247 N248 1.613 . S
S247 N249 1.610 . S
N248 S247 1.613 . S
N248 C251 1.350 . S
N249 S247 1.610 . S
N249 C250 1.351 . S
C250 C244 1.428 . S
C250 N249 1.351 . S
C250 C251 1.434 . S
C251 C242 1.429 . S
C251 N248 1.350 . S
C251 C250 1.434 . S
C252 C253 1.369 . S
C252 C254 1.419 . S
C252 H256 0.930 . S
C253 C252 1.369 . S
C253 C262 1.429 . S
C254 C252 1.419 . S
C254 C255 1.363 . S
C254 H257 0.929 . S
C255 C254 1.363 . S
C255 C261 1.428 . S
H256 C252 0.930 . S
H257 C254 0.929 . S
S258 N259 1.613 . S
S258 N260 1.610 . S
N259 S258 1.613 . S
N259 C262 1.350 . S
N260 S258 1.610 . S
N260 C261 1.351 . S
C261 C255 1.428 . S
C261 N260 1.351 . S
C261 C262 1.434 . S
C262 C253 1.429 . S
C262 N259 1.350 . S
C262 C261 1.434 . S
C263 C264 1.369 . S
C263 C265 1.419 . S
C263 H267 0.930 . S
C264 C263 1.369 . S
C264 C273 1.429 . S
C265 C263 1.419 . S
C265 C266 1.363 . S
C265 H268 0.929 . S
C266 C265 1.363 . S
C266 C272 1.428 . S
H267 C263 0.930 . S
H268 C265 0.929 . S
S269 N270 1.613 . S
S269 N271 1.610 . S
N270 S269 1.613 . S
N270 C273 1.350 . S
N271 S269 1.610 . S
N271 C272 1.351 . S
C272 C266 1.428 . S
C272 N271 1.351 . S
C272 C273 1.434 . S
C273 C264 1.429 . S
C273 N270 1.350 . S
C273 C272 1.434 . S
C274 C275 1.369 . S
C274 C276 1.419 . S
C274 H278 0.930 . S
C275 C274 1.369 . S
C275 C284 1.429 . S
C276 C274 1.419 . S
C276 C277 1.363 . S
C276 H279 0.929 . S
C277 C276 1.363 . S
C277 C283 1.428 . S
H278 C274 0.930 . S
H279 C276 0.929 . S
S280 N281 1.613 . S
S280 N282 1.610 . S
N281 S280 1.613 . S
N281 C284 1.350 . S
N282 S280 1.610 . S
N282 C283 1.351 . S
C283 C277 1.428 . S
C283 N282 1.351 . S
C283 C284 1.434 . S
C284 C275 1.429 . S
C284 N281 1.350 . S
C284 C283 1.434 . S
C285 C286 1.369 . S
C285 C287 1.419 . S
C285 H289 0.930 . S
C286 C285 1.369 . S
C286 C295 1.429 . S
C287 C285 1.419 . S
C287 C288 1.363 . S
C287 H290 0.929 . S
C288 C287 1.363 . S
C288 C294 1.428 . S
H289 C285 0.930 . S
H290 C287 0.929 . S
S291 N292 1.613 . S
S291 N293 1.610 . S
N292 S291 1.613 . S
N292 C295 1.350 . S
N293 S291 1.610 . S
N293 C294 1.351 . S
C294 C288 1.428 . S
C294 N293 1.351 . S
C294 C295 1.434 . S
C295 C286 1.429 . S
C295 N292 1.350 . S
C295 C294 1.434 . S
C296 C297 1.369 . S
C296 C298 1.419 . S
C296 H300 0.930 . S
C297 C296 1.369 . S
C297 C306 1.429 . S
C298 C296 1.419 . S
C298 C299 1.363 . S
C298 H301 0.929 . S
C299 C298 1.363 . S
C299 C305 1.428 . S
H300 C296 0.930 . S
H301 C298 0.929 . S
S302 N303 1.613 . S
S302 N304 1.610 . S
N303 S302 1.613 . S
N303 C306 1.350 . S
N304 S302 1.610 . S
N304 C305 1.351 . S
C305 C299 1.428 . S
C305 N304 1.351 . S
C305 C306 1.434 . S
C306 C297 1.429 . S
C306 N303 1.350 . S
C306 C305 1.434 . S
C307 C308 1.369 . S
C307 C309 1.419 . S
C307 H311 0.930 . S
C308 C307 1.369 . S
C308 C317 1.429 . S
C309 C307 1.419 . S
C309 C310 1.363 . S
C309 H312 0.929 . S
C310 C309 1.363 . S
C310 C316 1.428 . S
H311 C307 0.930 . S
H312 C309 0.929 . S
S313 N314 1.613 . S
S313 N315 1.610 1_554 S
N314 S313 1.613 . S
N314 C317 1.350 1_554 S
N315 S313 1.610 1_556 S
N315 C316 1.351 . S
C316 C310 1.428 . S
C316 N315 1.351 . S
C316 C317 1.434 . S
C317 C308 1.429 . S
C317 N314 1.350 1_556 S
C317 C316 1.434 . S
C121 C118 1.483 . S
C123 C4 1.392 . S
C132 C18 1.484 . S
C134 C24 1.394 . S
C143 C38 1.484 . S
C145 C44 1.389 . S
C154 C58 1.485 . S
C156 C64 1.391 . S
C165 C84 1.398 . S
C167 C78 1.483 . S
C176 C104 1.388 . S
C178 C98 1.484 . S
C187 C12 1.288 . S
C189 C9 1.291 . S
C198 C32 1.296 1_556 S
C200 C29 1.284 . S
C209 C52 1.289 . S
C211 C49 1.289 1_554 S
C220 C72 1.288 . S
C222 C69 1.291 . S
C231 C89 1.294 . S
C233 C92 1.286 1_556 S
C242 C112 1.296 . S
C244 C109 1.284 1_554 S
C253 C2 1.434 . S
C255 C99 1.533 . S
C264 C22 1.430 . S
C266 C119 1.530 . S
C275 C19 1.535 . S
C277 C42 1.431 . S
C286 C39 1.528 . S
C288 C62 1.426 . S
C297 C82 1.421 . S
C299 C59 1.529 . S
C308 C79 1.531 . S
C310 C102 1.423 . S
