# Generated by pormake.
# Topology zni, (4)-cn, num edge types: 1
# Building blocks:
#     Node 0, Type 0, BuildingBlock: QUQFOY_clean_sbu_1, # of connection points: 4
#     Node 1, Type 0, BuildingBlock: QUQFOY_clean_sbu_1, # of connection points: 4
#     Node 2, Type 0, BuildingBlock: QUQFOY_clean_sbu_1, # of connection points: 4
#     Node 3, Type 0, BuildingBlock: QUQFOY_clean_sbu_1, # of connection points: 4
#     Node 4, Type 0, BuildingBlock: QUQFOY_clean_sbu_1, # of connection points: 4
#     Node 5, Type 0, BuildingBlock: QUQFOY_clean_sbu_1, # of connection points: 4
#     Node 6, Type 0, BuildingBlock: QUQFOY_clean_sbu_1, # of connection points: 4
#     Node 7, Type 0, BuildingBlock: QUQFOY_clean_sbu_1, # of connection points: 4
#     Node 8, Type 0, BuildingBlock: QUQFOY_clean_sbu_1, # of connection points: 4
#     Node 9, Type 0, BuildingBlock: QUQFOY_clean_sbu_1, # of connection points: 4
#     Node 10, Type 0, BuildingBlock: QUQFOY_clean_sbu_1, # of connection points: 4
#     Node 11, Type 0, BuildingBlock: QUQFOY_clean_sbu_1, # of connection points: 4
#     Node 12, Type 0, BuildingBlock: QUQFOY_clean_sbu_1, # of connection points: 4
#     Node 13, Type 0, BuildingBlock: QUQFOY_clean_sbu_1, # of connection points: 4
#     Node 14, Type 0, BuildingBlock: QUQFOY_clean_sbu_1, # of connection points: 4
#     Node 15, Type 0, BuildingBlock: QUQFOY_clean_sbu_1, # of connection points: 4
#     Node 16, Type 0, BuildingBlock: QUQFOY_clean_sbu_1, # of connection points: 4
#     Node 17, Type 0, BuildingBlock: QUQFOY_clean_sbu_1, # of connection points: 4
#     Node 18, Type 0, BuildingBlock: QUQFOY_clean_sbu_1, # of connection points: 4
#     Node 19, Type 0, BuildingBlock: QUQFOY_clean_sbu_1, # of connection points: 4
#     Node 20, Type 0, BuildingBlock: QUQFOY_clean_sbu_1, # of connection points: 4
#     Node 21, Type 0, BuildingBlock: QUQFOY_clean_sbu_1, # of connection points: 4
#     Node 22, Type 0, BuildingBlock: QUQFOY_clean_sbu_1, # of connection points: 4
#     Node 23, Type 0, BuildingBlock: QUQFOY_clean_sbu_1, # of connection points: 4
#     Node 24, Type 0, BuildingBlock: QUQFOY_clean_sbu_1, # of connection points: 4
#     Node 25, Type 0, BuildingBlock: QUQFOY_clean_sbu_1, # of connection points: 4
#     Node 26, Type 0, BuildingBlock: QUQFOY_clean_sbu_1, # of connection points: 4
#     Node 27, Type 0, BuildingBlock: QUQFOY_clean_sbu_1, # of connection points: 4
#     Node 28, Type 0, BuildingBlock: QUQFOY_clean_sbu_1, # of connection points: 4
#     Node 29, Type 0, BuildingBlock: QUQFOY_clean_sbu_1, # of connection points: 4
#     Node 30, Type 0, BuildingBlock: QUQFOY_clean_sbu_1, # of connection points: 4
#     Node 31, Type 0, BuildingBlock: QUQFOY_clean_sbu_1, # of connection points: 4
#     Edge 32, Type (0, 0), BuildingBlock: AJUNOK_clean_linker_0, # of connection points: 2
#     Edge 33, Type (0, 0), BuildingBlock: AJUNOK_clean_linker_0, # of connection points: 2
#     Edge 34, Type (0, 0), BuildingBlock: AJUNOK_clean_linker_0, # of connection points: 2
#     Edge 35, Type (0, 0), BuildingBlock: AJUNOK_clean_linker_0, # of connection points: 2
#     Edge 36, Type (0, 0), BuildingBlock: AJUNOK_clean_linker_0, # of connection points: 2
#     Edge 37, Type (0, 0), BuildingBlock: AJUNOK_clean_linker_0, # of connection points: 2
#     Edge 38, Type (0, 0), BuildingBlock: AJUNOK_clean_linker_0, # of connection points: 2
#     Edge 39, Type (0, 0), BuildingBlock: AJUNOK_clean_linker_0, # of connection points: 2
#     Edge 40, Type (0, 0), BuildingBlock: AJUNOK_clean_linker_0, # of connection points: 2
#     Edge 41, Type (0, 0), BuildingBlock: AJUNOK_clean_linker_0, # of connection points: 2
#     Edge 42, Type (0, 0), BuildingBlock: AJUNOK_clean_linker_0, # of connection points: 2
#     Edge 43, Type (0, 0), BuildingBlock: AJUNOK_clean_linker_0, # of connection points: 2
#     Edge 44, Type (0, 0), BuildingBlock: AJUNOK_clean_linker_0, # of connection points: 2
#     Edge 45, Type (0, 0), BuildingBlock: AJUNOK_clean_linker_0, # of connection points: 2
#     Edge 46, Type (0, 0), BuildingBlock: AJUNOK_clean_linker_0, # of connection points: 2
#     Edge 47, Type (0, 0), BuildingBlock: AJUNOK_clean_linker_0, # of connection points: 2
#     Edge 48, Type (0, 0), BuildingBlock: AJUNOK_clean_linker_0, # of connection points: 2
#     Edge 49, Type (0, 0), BuildingBlock: AJUNOK_clean_linker_0, # of connection points: 2
#     Edge 50, Type (0, 0), BuildingBlock: AJUNOK_clean_linker_0, # of connection points: 2
#     Edge 51, Type (0, 0), BuildingBlock: AJUNOK_clean_linker_0, # of connection points: 2
#     Edge 52, Type (0, 0), BuildingBlock: AJUNOK_clean_linker_0, # of connection points: 2
#     Edge 53, Type (0, 0), BuildingBlock: AJUNOK_clean_linker_0, # of connection points: 2
#     Edge 54, Type (0, 0), BuildingBlock: AJUNOK_clean_linker_0, # of connection points: 2
#     Edge 55, Type (0, 0), BuildingBlock: AJUNOK_clean_linker_0, # of connection points: 2
#     Edge 56, Type (0, 0), BuildingBlock: AJUNOK_clean_linker_0, # of connection points: 2
#     Edge 57, Type (0, 0), BuildingBlock: AJUNOK_clean_linker_0, # of connection points: 2
#     Edge 58, Type (0, 0), BuildingBlock: AJUNOK_clean_linker_0, # of connection points: 2
#     Edge 59, Type (0, 0), BuildingBlock: AJUNOK_clean_linker_0, # of connection points: 2
#     Edge 60, Type (0, 0), BuildingBlock: AJUNOK_clean_linker_0, # of connection points: 2
#     Edge 61, Type (0, 0), BuildingBlock: AJUNOK_clean_linker_0, # of connection points: 2
#     Edge 62, Type (0, 0), BuildingBlock: AJUNOK_clean_linker_0, # of connection points: 2
#     Edge 63, Type (0, 0), BuildingBlock: AJUNOK_clean_linker_0, # of connection points: 2
#     Edge 64, Type (0, 0), BuildingBlock: AJUNOK_clean_linker_0, # of connection points: 2
#     Edge 65, Type (0, 0), BuildingBlock: AJUNOK_clean_linker_0, # of connection points: 2
#     Edge 66, Type (0, 0), BuildingBlock: AJUNOK_clean_linker_0, # of connection points: 2
#     Edge 67, Type (0, 0), BuildingBlock: AJUNOK_clean_linker_0, # of connection points: 2
#     Edge 68, Type (0, 0), BuildingBlock: AJUNOK_clean_linker_0, # of connection points: 2
#     Edge 69, Type (0, 0), BuildingBlock: AJUNOK_clean_linker_0, # of connection points: 2
#     Edge 70, Type (0, 0), BuildingBlock: AJUNOK_clean_linker_0, # of connection points: 2
#     Edge 71, Type (0, 0), BuildingBlock: AJUNOK_clean_linker_0, # of connection points: 2
#     Edge 72, Type (0, 0), BuildingBlock: AJUNOK_clean_linker_0, # of connection points: 2
#     Edge 73, Type (0, 0), BuildingBlock: AJUNOK_clean_linker_0, # of connection points: 2
#     Edge 74, Type (0, 0), BuildingBlock: AJUNOK_clean_linker_0, # of connection points: 2
#     Edge 75, Type (0, 0), BuildingBlock: AJUNOK_clean_linker_0, # of connection points: 2
#     Edge 76, Type (0, 0), BuildingBlock: AJUNOK_clean_linker_0, # of connection points: 2
#     Edge 77, Type (0, 0), BuildingBlock: AJUNOK_clean_linker_0, # of connection points: 2
#     Edge 78, Type (0, 0), BuildingBlock: AJUNOK_clean_linker_0, # of connection points: 2
#     Edge 79, Type (0, 0), BuildingBlock: AJUNOK_clean_linker_0, # of connection points: 2
#     Edge 80, Type (0, 0), BuildingBlock: AJUNOK_clean_linker_0, # of connection points: 2
#     Edge 81, Type (0, 0), BuildingBlock: AJUNOK_clean_linker_0, # of connection points: 2
#     Edge 82, Type (0, 0), BuildingBlock: AJUNOK_clean_linker_0, # of connection points: 2
#     Edge 83, Type (0, 0), BuildingBlock: AJUNOK_clean_linker_0, # of connection points: 2
#     Edge 84, Type (0, 0), BuildingBlock: AJUNOK_clean_linker_0, # of connection points: 2
#     Edge 85, Type (0, 0), BuildingBlock: AJUNOK_clean_linker_0, # of connection points: 2
#     Edge 86, Type (0, 0), BuildingBlock: AJUNOK_clean_linker_0, # of connection points: 2
#     Edge 87, Type (0, 0), BuildingBlock: AJUNOK_clean_linker_0, # of connection points: 2
#     Edge 88, Type (0, 0), BuildingBlock: AJUNOK_clean_linker_0, # of connection points: 2
#     Edge 89, Type (0, 0), BuildingBlock: AJUNOK_clean_linker_0, # of connection points: 2
#     Edge 90, Type (0, 0), BuildingBlock: AJUNOK_clean_linker_0, # of connection points: 2
#     Edge 91, Type (0, 0), BuildingBlock: AJUNOK_clean_linker_0, # of connection points: 2
#     Edge 92, Type (0, 0), BuildingBlock: AJUNOK_clean_linker_0, # of connection points: 2
#     Edge 93, Type (0, 0), BuildingBlock: AJUNOK_clean_linker_0, # of connection points: 2
#     Edge 94, Type (0, 0), BuildingBlock: AJUNOK_clean_linker_0, # of connection points: 2
#     Edge 95, Type (0, 0), BuildingBlock: AJUNOK_clean_linker_0, # of connection points: 2
# Relax obj value: 0.190
# Max RMSD: 0.170
# Mean RMSD: 0.170
data_MOF--net-zni--node1-QUQFOY_clean_sbu_1--edge1-AJUNOK_clean_linker_0
_symmetry_space_group_name_H-M    P1
_symmetry_Int_Tables_number       1
_symmetry_cell_setting            triclinic
loop_
_symmetry_equiv_pos_as_xyz
'x, y, z'
_cell_length_a     44.628812
_cell_length_b     44.612363
_cell_length_c     26.236206
_cell_angle_alpha  90.000146
_cell_angle_beta   90.008735
_cell_angle_gamma 89.97849
loop_
_atom_site_label
_atom_site_type_symbol
_atom_site_fract_x
_atom_site_fract_y
_atom_site_fract_z
_atom_type_partial_charge
O0 O 0.05263 0.11008 0.32953 0.0
Cd1 Cd 0.09846 0.1068 0.3216 0.0
Cd2 Cd 0.09649 0.11411 0.42799 0.0
O3 O 0.05212 0.10445 0.41287 0.0
O4 O 0.10621 0.08286 0.25893 0.0
O5 O 0.11655 0.0667 0.3368 0.0
C6 C 0.11527 0.06148 0.28834 0.0
C7 C 0.10852 0.10892 0.51458 0.0
C8 C 0.03819 0.10649 0.37082 0.0
C9 C 0.12403 0.16316 0.35951 0.0
O10 O 0.11402 0.15398 0.40202 0.0
O11 O 0.12229 0.14652 0.32031 0.0
O12 O 0.08903 0.12774 0.49843 0.0
O13 O 0.12134 0.09182 0.48153 0.0
O14 O 0.14761 0.79998 0.60149 0.0
Cd15 Cd 0.15076 0.84596 0.59456 0.0
Cd16 Cd 0.14441 0.84369 0.69689 0.0
O17 O 0.154 0.79902 0.68454 0.0
O18 O 0.17394 0.85425 0.53133 0.0
O19 O 0.19084 0.86432 0.60883 0.0
C20 C 0.1955 0.86347 0.56018 0.0
C21 C 0.1564 0.86223 0.77756 0.0
C22 C 0.15137 0.78523 0.64247 0.0
C23 C 0.09387 0.87003 0.63307 0.0
O24 O 0.10282 0.85897 0.67498 0.0
O25 O 0.11105 0.8698 0.59446 0.0
O26 O 0.13742 0.841 0.77108 0.0
O27 O 0.16986 0.87291 0.73808 0.0
O28 O 0.45127 0.89471 0.82661 0.0
Cd29 Cd 0.40532 0.89818 0.81997 0.0
Cd30 Cd 0.40962 0.88728 0.92863 0.0
O31 O 0.45391 0.89576 0.91051 0.0
O32 O 0.39763 0.92055 0.75556 0.0
O33 O 0.38701 0.93869 0.83196 0.0
C34 C 0.38801 0.94249 0.78311 0.0
C35 C 0.39975 0.88877 0.01663 0.0
C36 C 0.46673 0.89577 0.86727 0.0
C37 C 0.37876 0.84165 0.85665 0.0
O38 O 0.38933 0.84964 0.89944 0.0
O39 O 0.38109 0.85875 0.81815 0.0
O40 O 0.41795 0.86994 0.99657 0.0
O41 O 0.38739 0.90817 0.98689 0.0
O42 O 0.3558 0.20159 0.10669 0.0
Cd43 Cd 0.35425 0.15565 0.09697 0.0
Cd44 Cd 0.36219 0.15766 0.19964 0.0
O45 O 0.35224 0.20252 0.19044 0.0
O46 O 0.33304 0.14875 0.03113 0.0
O47 O 0.31414 0.13592 0.106 0.0
C48 C 0.31097 0.13804 0.05713 0.0
C49 C 0.3506 0.13388 0.27613 0.0
C50 C 0.35302 0.21623 0.14802 0.0
C51 C 0.41243 0.133 0.13363 0.0
O52 O 0.40374 0.14368 0.17593 0.0
O53 O 0.39483 0.13302 0.09552 0.0
O54 O 0.36917 0.1558 0.27396 0.0
O55 O 0.3367 0.12618 0.23508 0.0
O56 O 0.05086 0.89977 0.1405 0.0
Cd57 Cd 0.09597 0.89972 0.15836 0.0
Cd58 Cd 0.09918 0.88902 0.05292 0.0
O59 O 0.05381 0.8981 0.05653 0.0
O60 O 0.09983 0.92229 0.22357 0.0
O61 O 0.11803 0.93867 0.15021 0.0
C62 C 0.11322 0.94314 0.19823 0.0
C63 C 0.12347 0.89409 0.97474 0.0
C64 C 0.03829 0.90026 0.09697 0.0
C65 C 0.12092 0.84114 0.12906 0.0
O66 O 0.11405 0.84968 0.08449 0.0
O67 O 0.11698 0.85855 0.16679 0.0
O68 O 0.10241 0.87498 0.98184 0.0
O69 O 0.12969 0.91254 0.01104 0.0
O70 O 0.36018 0.80436 0.41268 0.0
Cd71 Cd 0.35714 0.84968 0.42735 0.0
Cd72 Cd 0.36968 0.85053 0.31551 0.0
O73 O 0.36184 0.80541 0.32858 0.0
O74 O 0.33489 0.85352 0.49284 0.0
O75 O 0.31681 0.86904 0.41885 0.0
C76 C 0.31307 0.8651 0.46728 0.0
C77 C 0.37345 0.8632 0.22863 0.0
C78 C 0.3605 0.79076 0.37006 0.0
C79 C 0.41283 0.8796 0.39549 0.0
O80 O 0.40482 0.87164 0.35115 0.0
O81 O 0.39658 0.87359 0.43386 0.0
O82 O 0.39184 0.84542 0.25082 0.0
O83 O 0.35118 0.873 0.25514 0.0
O84 O 0.45002 0.10562 0.64196 0.0
Cd85 Cd 0.4044 0.10448 0.65421 0.0
Cd86 Cd 0.40369 0.11242 0.55021 0.0
O87 O 0.44887 0.10332 0.5581 0.0
O88 O 0.39827 0.08153 0.71844 0.0
O89 O 0.38405 0.06502 0.64264 0.0
C90 C 0.38707 0.06026 0.69101 0.0
C91 C 0.38176 0.10102 0.47191 0.0
C92 C 0.46359 0.10333 0.59954 0.0
C93 C 0.37927 0.16197 0.61935 0.0
O94 O 0.38806 0.15309 0.5759 0.0
O95 O 0.38204 0.14507 0.65808 0.0
O96 O 0.40255 0.12071 0.4762 0.0
O97 O 0.37374 0.08636 0.512 0.0
O98 O 0.14951 0.19776 0.90284 0.0
Cd99 Cd 0.15049 0.15274 0.92033 0.0
Cd100 Cd 0.13845 0.15037 0.80938 0.0
O101 O 0.14677 0.19567 0.81876 0.0
O102 O 0.17337 0.14933 0.98535 0.0
O103 O 0.18998 0.13173 0.91174 0.0
C104 C 0.1946 0.13677 0.95965 0.0
C105 C 0.13555 0.13447 0.72426 0.0
C106 C 0.14926 0.21072 0.85966 0.0
C107 C 0.09362 0.12473 0.88989 0.0
O108 O 0.10232 0.13139 0.84533 0.0
O109 O 0.10985 0.13082 0.92829 0.0
O110 O 0.11709 0.15326 0.74371 0.0
O111 O 0.15761 0.12565 0.75222 0.0
O112 O 0.95113 0.89246 0.66294 0.0
Cd113 Cd 0.90524 0.89708 0.66742 0.0
Cd114 Cd 0.90926 0.89179 0.56303 0.0
O115 O 0.95346 0.9008 0.58046 0.0
O116 O 0.89625 0.92109 0.72951 0.0
O117 O 0.88873 0.93764 0.65092 0.0
C118 C 0.88867 0.94275 0.69947 0.0
C119 C 0.89733 0.90073 0.47747 0.0
C120 C 0.96653 0.89694 0.62291 0.0
C121 C 0.88008 0.84164 0.62575 0.0
O122 O 0.89175 0.85104 0.58464 0.0
O123 O 0.88036 0.85807 0.66531 0.0
O124 O 0.91699 0.88139 0.49109 0.0
O125 O 0.8842 0.9161 0.51255 0.0
O126 O 0.85885 0.20206 0.41198 0.0
Cd127 Cd 0.85567 0.156 0.41575 0.0
Cd128 Cd 0.8601 0.1611 0.31083 0.0
O129 O 0.85017 0.20499 0.32955 0.0
O130 O 0.8317 0.14578 0.47723 0.0
O131 O 0.81574 0.13848 0.39822 0.0
C132 C 0.81042 0.1378 0.44669 0.0
C133 C 0.85305 0.14925 0.22473 0.0
C134 C 0.8537 0.2177 0.37245 0.0
C135 C 0.91087 0.13173 0.37237 0.0
O136 O 0.90093 0.14373 0.33196 0.0
O137 O 0.89517 0.13191 0.41276 0.0
O138 O 0.87118 0.16973 0.23956 0.0
O139 O 0.83722 0.1358 0.25885 0.0
O140 O 0.55445 0.10968 0.16749 0.0
Cd141 Cd 0.60019 0.10656 0.17761 0.0
Cd142 Cd 0.59872 0.11631 0.06801 0.0
O143 O 0.5542 0.10744 0.08358 0.0
O144 O 0.6066 0.0844 0.24266 0.0
O145 O 0.61903 0.06613 0.16711 0.0
C146 C 0.61695 0.06245 0.21589 0.0
C147 C 0.60909 0.11538 0.98011 0.0
C148 C 0.54016 0.10804 0.12565 0.0
C149 C 0.62711 0.16299 0.14142 0.0
O150 O 0.61803 0.15428 0.09804 0.0
O151 O 0.62381 0.14637 0.18032 0.0
O152 O 0.59074 0.134 0.00026 0.0
O153 O 0.62157 0.09601 0.00973 0.0
O154 O 0.64967 0.80187 0.88852 0.0
Cd155 Cd 0.65137 0.84771 0.89812 0.0
Cd156 Cd 0.64592 0.84629 0.7946 0.0
O157 O 0.65561 0.80146 0.8052 0.0
O158 O 0.67195 0.85469 0.96449 0.0
O159 O 0.69176 0.86686 0.88994 0.0
C160 C 0.69448 0.86483 0.93892 0.0
C161 C 0.6595 0.8682 0.71728 0.0
C162 C 0.65365 0.78749 0.84724 0.0
C163 C 0.59443 0.87135 0.85749 0.0
O164 O 0.60396 0.86084 0.81557 0.0
O165 O 0.61097 0.87063 0.89694 0.0
O166 O 0.64085 0.84636 0.71972 0.0
O167 O 0.67198 0.87724 0.75885 0.0
O168 O 0.95373 0.10453 0.84772 0.0
Cd169 Cd 0.90888 0.10474 0.82839 0.0
Cd170 Cd 0.9051 0.1169 0.93761 0.0
O171 O 0.95041 0.10748 0.93162 0.0
O172 O 0.90552 0.08187 0.76344 0.0
O173 O 0.88639 0.06603 0.83646 0.0
C174 C 0.89162 0.0613 0.78864 0.0
C175 C 0.88574 0.11919 0.02048 0.0
C176 C 0.96607 0.10457 0.89145 0.0
C177 C 0.88251 0.16271 0.85638 0.0
O178 O 0.88829 0.15399 0.90129 0.0
O179 O 0.88822 0.14589 0.81858 0.0
O180 O 0.9059 0.13728 0.00431 0.0
O181 O 0.8777 0.09759 0.99086 0.0
O182 O 0.64483 0.19926 0.58297 0.0
Cd183 Cd 0.64697 0.15372 0.57033 0.0
Cd184 Cd 0.6362 0.15434 0.68109 0.0
O185 O 0.64491 0.19917 0.66714 0.0
O186 O 0.66983 0.14822 0.50585 0.0
O187 O 0.68676 0.1338 0.58128 0.0
C188 C 0.69118 0.13687 0.53283 0.0
C189 C 0.63385 0.1416 0.768 0.0
C190 C 0.64575 0.21332 0.6251 0.0
C191 C 0.59083 0.12601 0.60424 0.0
O192 O 0.59958 0.13444 0.6479 0.0
O193 O 0.60697 0.13065 0.56519 0.0
O194 O 0.61564 0.16008 0.74706 0.0
O195 O 0.6553 0.13121 0.74022 0.0
O196 O 0.55264 0.90139 0.36081 0.0
Cd197 Cd 0.59824 0.90141 0.34755 0.0
Cd198 Cd 0.59884 0.89302 0.44989 0.0
O199 O 0.55409 0.90433 0.44461 0.0
O200 O 0.6043 0.9241 0.28296 0.0
O201 O 0.61964 0.94043 0.35822 0.0
C202 C 0.61623 0.94517 0.30992 0.0
C203 C 0.62481 0.90308 0.52495 0.0
C204 C 0.53925 0.90438 0.4033 0.0
C205 C 0.61995 0.84235 0.38079 0.0
O206 O 0.61097 0.85125 0.4241 0.0
O207 O 0.61928 0.86006 0.34285 0.0
O208 O 0.60236 0.88513 0.52373 0.0
O209 O 0.63187 0.91726 0.48385 0.0
O210 O 0.85645 0.80388 0.09928 0.0
Cd211 Cd 0.85461 0.84841 0.07821 0.0
Cd212 Cd 0.86768 0.85427 0.18787 0.0
O213 O 0.86046 0.8085 0.18284 0.0
O214 O 0.83129 0.85007 0.01344 0.0
O215 O 0.81511 0.86961 0.0859 0.0
C216 C 0.81031 0.86354 0.03839 0.0
C217 C 0.87043 0.87367 0.27071 0.0
C218 C 0.85787 0.79213 0.14343 0.0
C219 C 0.91134 0.87819 0.10425 0.0
O220 O 0.90322 0.87288 0.14964 0.0
O221 O 0.89486 0.87049 0.06703 0.0
O222 O 0.8893 0.85454 0.25351 0.0
O223 O 0.84788 0.88053 0.2423 0.0
O224 O 0.55262 0.60934 0.82837 0.0
Cd225 Cd 0.59834 0.60565 0.81876 0.0
Cd226 Cd 0.59684 0.61552 0.92894 0.0
O227 O 0.55226 0.60744 0.91233 0.0
O228 O 0.60496 0.58268 0.75467 0.0
O229 O 0.61674 0.56527 0.83114 0.0
C230 C 0.61499 0.561 0.78245 0.0
C231 C 0.60634 0.61539 0.01713 0.0
C232 C 0.53827 0.60797 0.87018 0.0
C233 C 0.6272 0.66097 0.85532 0.0
O234 O 0.61786 0.65245 0.89861 0.0
O235 O 0.62281 0.64489 0.81607 0.0
O236 O 0.58874 0.63429 0.9958 0.0
O237 O 0.61844 0.59524 0.98857 0.0
O238 O 0.649 0.30342 0.10126 0.0
Cd239 Cd 0.6508 0.34866 0.08507 0.0
Cd240 Cd 0.64353 0.35132 0.19202 0.0
O241 O 0.65221 0.30596 0.18505 0.0
O242 O 0.67354 0.35315 0.02019 0.0
O243 O 0.69059 0.36877 0.09492 0.0
C244 C 0.69494 0.36489 0.04661 0.0
C245 C 0.64704 0.37219 0.2734 0.0
C246 C 0.65134 0.29053 0.14436 0.0
C247 C 0.59442 0.37536 0.11919 0.0
O248 O 0.60415 0.36761 0.16259 0.0
O249 O 0.6104 0.3713 0.07974 0.0
O250 O 0.6281 0.35161 0.2624 0.0
O251 O 0.66638 0.37973 0.23926 0.0
O252 O 0.94878 0.39656 0.34224 0.0
Cd253 Cd 0.90288 0.40056 0.33636 0.0
Cd254 Cd 0.90643 0.39609 0.44147 0.0
O255 O 0.95063 0.40548 0.42461 0.0
O256 O 0.89446 0.42262 0.27201 0.0
O257 O 0.88579 0.44144 0.34876 0.0
C258 C 0.88616 0.44501 0.29981 0.0
C259 C 0.89371 0.40489 0.52672 0.0
C260 C 0.96393 0.40147 0.38241 0.0
C261 C 0.87785 0.34532 0.3794 0.0
O262 O 0.88941 0.35504 0.42035 0.0
O263 O 0.87835 0.36134 0.33934 0.0
O264 O 0.91397 0.38607 0.51359 0.0
O265 O 0.88063 0.42008 0.49135 0.0
O266 O 0.85935 0.69977 0.58574 0.0
Cd267 Cd 0.85591 0.65392 0.57794 0.0
Cd268 Cd 0.86149 0.65538 0.68365 0.0
O269 O 0.85169 0.69974 0.66851 0.0
O270 O 0.83151 0.64576 0.516 0.0
O271 O 0.81603 0.63595 0.59448 0.0
C272 C 0.81041 0.63685 0.54612 0.0
C273 C 0.85513 0.64347 0.76997 0.0
C274 C 0.85482 0.71399 0.627 0.0
C275 C 0.9116 0.62802 0.61747 0.0
O276 O 0.90192 0.63806 0.65963 0.0
O277 O 0.89542 0.6298 0.57773 0.0
O278 O 0.87398 0.66311 0.75452 0.0
O279 O 0.83869 0.63035 0.73632 0.0
O280 O 0.55202 0.39501 0.6499 0.0
Cd281 Cd 0.59772 0.39726 0.66045 0.0
Cd282 Cd 0.5982 0.39232 0.55623 0.0
O283 O 0.55323 0.40144 0.56681 0.0
O284 O 0.60509 0.42094 0.72347 0.0
O285 O 0.61701 0.43685 0.6461 0.0
C286 C 0.61517 0.44208 0.69452 0.0
C287 C 0.61588 0.40264 0.47427 0.0
C288 C 0.53841 0.39894 0.60785 0.0
C289 C 0.62337 0.34123 0.62164 0.0
O290 O 0.61423 0.35121 0.5791 0.0
O291 O 0.62081 0.35709 0.66164 0.0
O292 O 0.59508 0.38348 0.48277 0.0
O293 O 0.62666 0.41726 0.51245 0.0
O294 O 0.85896 0.30188 0.89928 0.0
Cd295 Cd 0.85784 0.34652 0.91975 0.0
Cd296 Cd 0.86985 0.35258 0.81335 0.0
O297 O 0.8622 0.30686 0.81576 0.0
O298 O 0.83322 0.34936 0.98289 0.0
O299 O 0.81915 0.36856 0.90884 0.0
C300 C 0.81311 0.36296 0.9561 0.0
C301 C 0.86913 0.37435 0.73213 0.0
C302 C 0.85986 0.29031 0.85497 0.0
C303 C 0.91573 0.37379 0.89483 0.0
O304 O 0.90726 0.36893 0.84945 0.0
O305 O 0.89863 0.3674 0.93193 0.0
O306 O 0.88869 0.35483 0.74546 0.0
O307 O 0.848 0.3806 0.7639 0.0
O308 O 0.95199 0.60705 0.15045 0.0
Cd309 Cd 0.90719 0.60674 0.16991 0.0
Cd310 Cd 0.90205 0.61755 0.06156 0.0
O311 O 0.94748 0.60874 0.06673 0.0
O312 O 0.90358 0.58298 0.23385 0.0
O313 O 0.88477 0.56822 0.15993 0.0
C314 C 0.88991 0.56271 0.20754 0.0
C315 C 0.88317 0.61864 0.9782 0.0
C316 C 0.96378 0.60685 0.10629 0.0
C317 C 0.88004 0.66424 0.14169 0.0
O318 O 0.8852 0.65508 0.09679 0.0
O319 O 0.88636 0.64777 0.17967 0.0
O320 O 0.90279 0.6373 0.99437 0.0
O321 O 0.87513 0.59734 0.00844 0.0
O322 O 0.64257 0.70007 0.41381 0.0
Cd323 Cd 0.64568 0.65452 0.42635 0.0
Cd324 Cd 0.6324 0.65443 0.31694 0.0
O325 O 0.64027 0.69952 0.32981 0.0
O326 O 0.66959 0.64927 0.48981 0.0
O327 O 0.68551 0.63494 0.4137 0.0
C328 C 0.69057 0.63795 0.46198 0.0
C329 C 0.62978 0.64158 0.23 0.0
C330 C 0.64187 0.71395 0.37147 0.0
C331 C 0.58893 0.62603 0.39648 0.0
O332 O 0.59657 0.63408 0.35197 0.0
O333 O 0.60608 0.63103 0.43415 0.0
O334 O 0.61118 0.65949 0.25134 0.0
O335 O 0.65153 0.63159 0.25753 0.0
O336 O 0.45276 0.39721 0.15862 0.0
Cd337 Cd 0.40704 0.39951 0.16979 0.0
Cd338 Cd 0.40705 0.38927 0.06222 0.0
O339 O 0.45214 0.3971 0.07462 0.0
O340 O 0.40071 0.42262 0.23393 0.0
O341 O 0.38745 0.43942 0.15784 0.0
C342 C 0.38994 0.44402 0.20633 0.0
C343 C 0.39309 0.39474 0.97674 0.0
C344 C 0.46659 0.39789 0.11628 0.0
C345 C 0.3793 0.34281 0.13533 0.0
O346 O 0.38792 0.35104 0.09143 0.0
O347 O 0.38364 0.35952 0.17387 0.0
O348 O 0.38194 0.41254 0.01045 0.0
O349 O 0.4119 0.37485 0.99152 0.0
O350 O 0.35499 0.70096 0.89154 0.0
Cd351 Cd 0.35285 0.65518 0.90203 0.0
Cd352 Cd 0.35853 0.6555 0.79891 0.0
O353 O 0.34883 0.70039 0.80837 0.0
O354 O 0.33179 0.64861 0.96804 0.0
O355 O 0.31256 0.63595 0.89327 0.0
C356 C 0.3095 0.63821 0.94216 0.0
C357 C 0.34511 0.63413 0.72098 0.0
C358 C 0.35119 0.71491 0.84978 0.0
C359 C 0.41007 0.63149 0.86313 0.0
O360 O 0.40054 0.64126 0.82067 0.0
O361 O 0.39321 0.63231 0.90216 0.0
O362 O 0.36418 0.65556 0.72418 0.0
O363 O 0.33237 0.62493 0.76219 0.0
O364 O 0.05297 0.60486 0.65864 0.0
Cd365 Cd 0.09873 0.6014 0.66841 0.0
Cd366 Cd 0.09848 0.60942 0.56221 0.0
O367 O 0.0538 0.60011 0.5752 0.0
O368 O 0.10563 0.57773 0.73166 0.0
O369 O 0.11726 0.56129 0.6545 0.0
C370 C 0.11544 0.55634 0.70299 0.0
C371 C 0.1115 0.60456 0.47606 0.0
C372 C 0.03916 0.60195 0.61655 0.0
C373 C 0.12528 0.65786 0.63247 0.0
O374 O 0.1159 0.64907 0.58931 0.0
O375 O 0.1227 0.64097 0.67121 0.0
O376 O 0.09191 0.6234 0.49177 0.0
O377 O 0.12395 0.5873 0.50926 0.0
O378 O 0.14587 0.3047 0.39844 0.0
Cd379 Cd 0.14828 0.35047 0.40946 0.0
Cd380 Cd 0.14181 0.35092 0.30547 0.0
O381 O 0.15012 0.30572 0.31493 0.0
O382 O 0.16983 0.35684 0.47506 0.0
O383 O 0.18849 0.36975 0.4 0.0
C384 C 0.19186 0.36746 0.44883 0.0
C385 C 0.15433 0.37049 0.2258 0.0
C386 C 0.14857 0.29097 0.35621 0.0
C387 C 0.09153 0.37608 0.37176 0.0
O388 O 0.10083 0.36696 0.32875 0.0
O389 O 0.10823 0.37379 0.4108 0.0
O390 O 0.13402 0.35043 0.23136 0.0
O391 O 0.16874 0.37942 0.26556 0.0
O392 O 0.44928 0.60407 0.36109 0.0
Cd393 Cd 0.40399 0.60355 0.34506 0.0
Cd394 Cd 0.40156 0.61155 0.44892 0.0
O395 O 0.44656 0.60107 0.44479 0.0
O396 O 0.39984 0.58235 0.27857 0.0
O397 O 0.38298 0.56392 0.35144 0.0
C398 C 0.38744 0.56056 0.30306 0.0
C399 C 0.3763 0.60235 0.52511 0.0
C400 C 0.46207 0.60146 0.40421 0.0
C401 C 0.38086 0.6621 0.37832 0.0
O402 O 0.38879 0.65291 0.42206 0.0
O403 O 0.38273 0.64475 0.34004 0.0
O404 O 0.39811 0.62098 0.52225 0.0
O405 O 0.36944 0.58704 0.4851 0.0
O406 O 0.14604 0.70075 0.09335 0.0
Cd407 Cd 0.1484 0.65561 0.07666 0.0
Cd408 Cd 0.13772 0.6527 0.18495 0.0
O409 O 0.14499 0.69828 0.17735 0.0
O410 O 0.17181 0.65193 0.01231 0.0
O411 O 0.18803 0.6351 0.08671 0.0
C412 C 0.19289 0.63963 0.03873 0.0
C413 C 0.13728 0.63461 0.26884 0.0
C414 C 0.14588 0.71365 0.13661 0.0
C415 C 0.09159 0.62786 0.10655 0.0
O416 O 0.10044 0.6346 0.151 0.0
O417 O 0.10815 0.63317 0.06825 0.0
O418 O 0.11828 0.65385 0.2524 0.0
O419 O 0.15867 0.62673 0.23868 0.0
O420 O 0.05576 0.39461 0.85719 0.0
Cd421 Cd 0.10055 0.39549 0.8379 0.0
Cd422 Cd 0.10575 0.38538 0.94414 0.0
O423 O 0.05982 0.39185 0.94089 0.0
O424 O 0.10319 0.41761 0.77208 0.0
O425 O 0.1219 0.43492 0.84446 0.0
C426 C 0.11647 0.43891 0.7965 0.0
C427 C 0.12895 0.39336 0.02277 0.0
C428 C 0.04369 0.39391 0.90111 0.0
C429 C 0.12863 0.33825 0.86732 0.0
O430 O 0.12312 0.34703 0.91232 0.0
O431 O 0.12204 0.35469 0.82941 0.0
O432 O 0.11021 0.37199 0.01557 0.0
O433 O 0.13378 0.41187 0.98595 0.0
O434 O 0.35594 0.30419 0.59087 0.0
Cd435 Cd 0.35347 0.34997 0.58009 0.0
Cd436 Cd 0.36429 0.34756 0.68734 0.0
O437 O 0.35522 0.30269 0.67495 0.0
O438 O 0.3303 0.35596 0.51602 0.0
O439 O 0.3136 0.3696 0.59196 0.0
C440 C 0.30892 0.36683 0.54353 0.0
C441 C 0.36446 0.36477 0.77147 0.0
C442 C 0.35482 0.2893 0.63217 0.0
C443 C 0.41087 0.37493 0.6129 0.0
O444 O 0.40251 0.36511 0.65592 0.0
O445 O 0.39352 0.37306 0.57467 0.0
O446 O 0.38241 0.34434 0.7557 0.0
O447 O 0.34378 0.37386 0.74083 0.0
C448 C 0.12225 0.02709 0.21387 0.0
C449 C 0.12075 0.03107 0.26708 0.0
C450 C 0.12191 0.9984 0.19198 0.0
C451 C 0.11967 0.97254 0.22239 0.0
H452 H 0.12245 0.04632 0.18866 0.0
H453 H 0.12167 0.99664 0.1508 0.0
S454 S 0.11917 0.97034 0.36386 0.0
N455 N 0.12018 0.0064 0.34982 0.0
N456 N 0.11917 0.95258 0.30866 0.0
C457 C 0.12013 0.97607 0.27571 0.0
C458 C 0.12081 0.0053 0.29806 0.0
C459 C 0.22898 0.8706 0.48462 0.0
C460 C 0.2255 0.86975 0.53798 0.0
C461 C 0.25745 0.87114 0.46204 0.0
C462 C 0.28362 0.87052 0.49189 0.0
H463 H 0.20957 0.86959 0.45987 0.0
H464 H 0.25888 0.87033 0.42085 0.0
S465 S 0.28699 0.87261 0.63326 0.0
N466 N 0.25083 0.87171 0.62009 0.0
N467 N 0.30428 0.87243 0.57764 0.0
C468 C 0.28051 0.87172 0.54526 0.0
C469 C 0.25148 0.87145 0.5683 0.0
C470 C 0.38329 0.02675 0.76724 0.0
C471 C 0.38116 0.03038 0.71401 0.0
C472 C 0.38339 0.99821 0.78966 0.0
C473 C 0.38167 0.97212 0.75972 0.0
H474 H 0.38623 0.04604 0.79181 0.0
H475 H 0.38658 0.99663 0.83051 0.0
S476 S 0.3712 0.96926 0.61941 0.0
N477 N 0.37375 0.00536 0.63253 0.0
N478 N 0.37422 0.95178 0.67464 0.0
C479 C 0.3774 0.97544 0.70685 0.0
C480 C 0.37704 0.00454 0.68401 0.0
C481 C 0.22702 0.13299 0.03726 0.0
C482 C 0.22422 0.13127 0.98386 0.0
C483 C 0.2552 0.13305 0.06097 0.0
C484 C 0.28176 0.1318 0.03217 0.0
H485 H 0.20731 0.1355 0.06099 0.0
H486 H 0.25612 0.13582 0.10196 0.0
S487 S 0.28685 0.12329 0.89167 0.0
N488 N 0.25054 0.12522 0.90328 0.0
N489 N 0.30344 0.12575 0.94776 0.0
C490 C 0.27928 0.1282 0.97902 0.0
C491 C 0.25055 0.12779 0.95489 0.0
C492 C 0.88154 0.97745 0.77351 0.0
C493 C 0.88342 0.97329 0.72036 0.0
C494 C 0.88213 0.00619 0.79518 0.0
C495 C 0.88496 0.03193 0.76461 0.0
H496 H 0.8809 0.9583 0.79888 0.0
H497 H 0.8821 0.00806 0.83635 0.0
S498 S 0.88633 0.03375 0.62316 0.0
N499 N 0.8848 0.99774 0.63745 0.0
N500 N 0.88624 0.05165 0.67822 0.0
C501 C 0.8848 0.02825 0.71132 0.0
C502 C 0.8839 0.99898 0.68919 0.0
C503 C 0.77546 0.13017 0.52012 0.0
C504 C 0.77999 0.1314 0.46702 0.0
C505 C 0.74656 0.12982 0.54107 0.0
C506 C 0.72099 0.13095 0.50978 0.0
H507 H 0.79437 0.13083 0.546 0.0
H508 H 0.74435 0.1304 0.58217 0.0
S509 S 0.72037 0.12968 0.36826 0.0
N510 N 0.75626 0.13014 0.38349 0.0
N511 N 0.702 0.12971 0.42288 0.0
C512 C 0.72513 0.12998 0.4566 0.0
C513 C 0.7546 0.13011 0.43522 0.0
C514 C 0.62086 0.97823 0.23321 0.0
C515 C 0.62256 0.97487 0.28654 0.0
C516 C 0.62119 0.00665 0.21033 0.0
C517 C 0.62287 0.03289 0.23989 0.0
H518 H 0.61796 0.95881 0.20891 0.0
H519 H 0.61834 0.00803 0.16939 0.0
S520 S 0.6321 0.03646 0.3804 0.0
N521 N 0.62942 1.0003 0.36779 0.0
N522 N 0.62969 0.05365 0.32482 0.0
C523 C 0.62664 0.02984 0.29292 0.0
C524 C 0.62662 1.00086 0.31622 0.0
C525 C 0.75035 0.86835 0.93612 0.0
C526 C 0.72366 0.87033 0.96444 0.0
C527 C 0.77838 0.86766 0.96031 0.0
C528 C 0.7809 0.86936 0.01374 0.0
H529 H 0.74961 0.86562 0.89511 0.0
H530 H 0.79816 0.8647 0.93693 0.0
S531 S 0.71797 0.87884 0.10488 0.0
N532 N 0.70164 0.87685 0.04851 0.0
N533 N 0.75429 0.876 0.09389 0.0
C534 C 0.7545 0.87347 0.04227 0.0
C535 C 0.72591 0.87381 0.01765 0.0
C536 C 0.62021 0.47659 0.76924 0.0
C537 C 0.62117 0.47232 0.71606 0.0
C538 C 0.62028 0.5054 0.79062 0.0
C539 C 0.62102 0.53113 0.75968 0.0
H540 H 0.61808 0.45758 0.79466 0.0
H541 H 0.61802 0.50745 0.83159 0.0
S542 S 0.62822 0.53235 0.61869 0.0
N543 N 0.6264 0.49639 0.63326 0.0
N544 N 0.62626 0.55047 0.67344 0.0
C545 C 0.6241 0.5272 0.70668 0.0
C546 C 0.62429 0.49782 0.68489 0.0
C547 C 0.77926 0.36823 0.03157 0.0
C548 C 0.78314 0.36921 0.97832 0.0
C549 C 0.75063 0.36902 0.05359 0.0
C550 C 0.7247 0.37032 0.02317 0.0
H551 H 0.79844 0.36572 0.05652 0.0
H552 H 0.74881 0.36683 0.09459 0.0
S553 S 0.72257 0.37695 0.88219 0.0
N554 N 0.75859 0.37459 0.89601 0.0
N555 N 0.7048 0.37553 0.93734 0.0
C556 C 0.72828 0.37312 0.97009 0.0
C557 C 0.75749 0.37274 0.94768 0.0
C558 C 0.8844 0.50088 0.30634 0.0
C559 C 0.88097 0.4749 0.27653 0.0
C560 C 0.88561 0.52937 0.28386 0.0
C561 C 0.88308 0.53309 0.23072 0.0
H562 H 0.88792 0.49916 0.34709 0.0
H563 H 0.88977 0.5485 0.30828 0.0
S564 S 0.86924 0.47256 0.13648 0.0
N565 N 0.8718 0.45495 0.19166 0.0
N566 N 0.87372 0.50849 0.14947 0.0
C567 C 0.87735 0.5075 0.20088 0.0
C568 C 0.87642 0.47842 0.22376 0.0
C569 C 0.74595 0.6316 0.45222 0.0
C570 C 0.72058 0.63176 0.48401 0.0
C571 C 0.77498 0.63144 0.47269 0.0
C572 C 0.77984 0.63114 0.52576 0.0
H573 H 0.74347 0.63331 0.41125 0.0
H574 H 0.79373 0.63287 0.44659 0.0
S575 S 0.7208 0.6265 0.62524 0.0
N576 N 0.70211 0.62806 0.571 0.0
N577 N 0.7566 0.62748 0.60948 0.0
C578 C 0.75463 0.62893 0.55784 0.0
C579 C 0.72504 0.62935 0.53697 0.0
C580 C 0.38272 0.47662 0.28301 0.0
C581 C 0.3835 0.47373 0.22955 0.0
C582 C 0.3818 0.50485 0.30652 0.0
C583 C 0.38204 0.53136 0.27752 0.0
H584 H 0.38401 0.45694 0.30711 0.0
H585 H 0.38268 0.50584 0.34775 0.0
S586 S 0.37994 0.53626 0.13631 0.0
N587 N 0.38123 0.49995 0.14829 0.0
N588 N 0.37992 0.55295 0.19248 0.0
C589 C 0.38087 0.52882 0.22407 0.0
C590 C 0.38145 0.50003 0.20009 0.0
C591 C 0.22548 0.63466 0.9616 0.0
C592 C 0.22254 0.6336 0.01502 0.0
C593 C 0.2537 0.634 0.93812 0.0
C594 C 0.28017 0.63265 0.96715 0.0
H595 H 0.20587 0.63716 0.93763 0.0
H596 H 0.25475 0.63627 0.89705 0.0
S597 S 0.2848 0.62562 0.10794 0.0
N598 N 0.24856 0.62803 0.096 0.0
N599 N 0.30157 0.62719 0.05192 0.0
C600 C 0.27753 0.6297 0.02039 0.0
C601 C 0.24873 0.63004 0.04431 0.0
C602 C 0.12352 0.49442 0.80115 0.0
C603 C 0.12206 0.46821 0.77148 0.0
C604 C 0.12304 0.52288 0.77844 0.0
C605 C 0.12148 0.52628 0.72512 0.0
H606 H 0.12331 0.49306 0.84238 0.0
H607 H 0.1227 0.54235 0.80309 0.0
S608 S 0.12175 0.46457 0.63011 0.0
N609 N 0.12219 0.44736 0.68582 0.0
N610 N 0.12169 0.50078 0.6431 0.0
C611 C 0.12229 0.50022 0.69488 0.0
C612 C 0.12243 0.47121 0.71807 0.0
C613 C 0.24756 0.37248 0.44392 0.0
C614 C 0.22125 0.37335 0.47337 0.0
C615 C 0.27591 0.37211 0.46696 0.0
C616 C 0.27914 0.37293 0.52037 0.0
H617 H 0.24632 0.37032 0.40285 0.0
H618 H 0.2954 0.3699 0.44264 0.0
S619 S 0.21728 0.38015 0.61425 0.0
N620 N 0.20024 0.37848 0.55847 0.0
N621 N 0.25349 0.37811 0.60176 0.0
C622 C 0.25306 0.37616 0.55007 0.0
C623 C 0.22414 0.37625 0.52659 0.0
C624 C 0.1393 0.21089 0.40179 0.0
C625 C 0.13523 0.19451 0.35637 0.0
C626 C 0.14508 0.24169 0.40113 0.0
C627 C 0.14712 0.25763 0.35503 0.0
H628 H 0.13694 0.20009 0.43855 0.0
H629 H 0.14689 0.25322 0.43734 0.0
S630 S 0.14207 0.22473 0.22507 0.0
N631 N 0.13648 0.19607 0.26373 0.0
N632 N 0.14752 0.25406 0.26232 0.0
C633 C 0.14508 0.24124 0.30913 0.0
C634 C 0.13913 0.2097 0.30984 0.0
C635 C 0.01389 0.88792 0.67145 0.0
C636 C 0.99977 0.89459 0.6249 0.0
C637 C 0.04451 0.88135 0.67373 0.0
C638 C 0.06249 0.88111 0.62956 0.0
H639 H 1.00106 0.88671 0.70643 0.0
H640 H 0.05389 0.87548 0.71048 0.0
S641 S 0.03733 0.90056 0.49877 0.0
N642 N 0.00678 0.90325 0.53393 0.0
N643 N 0.06437 0.89078 0.53835 0.0
C644 C 0.0491 0.88944 0.5831 0.0
C645 C 0.01777 0.89619 0.58074 0.0
C646 C 0.36074 0.79444 0.89717 0.0
C647 C 0.3662 0.81091 0.8523 0.0
C648 C 0.35419 0.76383 0.89565 0.0
C649 C 0.35271 0.74821 0.84918 0.0
H650 H 0.36275 0.80496 0.93424 0.0
H651 H 0.35147 0.75212 0.93153 0.0
S652 S 0.36091 0.7817 0.72016 0.0
N653 N 0.36651 0.80999 0.75961 0.0
N654 N 0.35402 0.75231 0.75655 0.0
C655 C 0.35586 0.76481 0.80369 0.0
C656 C 0.36262 0.79617 0.80529 0.0
C657 C 0.46079 0.11819 0.17428 0.0
C658 C 0.44387 0.12228 0.12946 0.0
C659 C 0.49152 0.11211 0.17251 0.0
C660 C 0.50684 0.10985 0.12582 0.0
H661 H 0.45043 0.12057 0.21141 0.0
H662 H 0.50349 0.11021 0.20828 0.0
S663 S 0.47232 0.11533 0.99708 0.0
N664 N 0.44423 0.12113 0.03681 0.0
N665 N 0.50205 0.10959 0.03322 0.0
C666 C 0.48988 0.11211 0.08051 0.0
C667 C 0.45842 0.11832 0.08239 0.0
C668 C 0.1481 0.76356 0.0938 0.0
C669 C 0.14409 0.74694 0.13881 0.0
C670 C 0.14215 0.7943 0.09216 0.0
C671 C 0.13187 0.80993 0.13543 0.0
H672 H 0.15492 0.75262 0.05881 0.0
H673 H 0.14468 0.80569 0.05593 0.0
S674 S 0.1208 0.77773 0.2644 0.0
N675 N 0.13165 0.74902 0.22921 0.0
N676 N 0.12037 0.80698 0.22585 0.0
C677 C 0.12958 0.7941 0.18161 0.0
C678 C 0.13568 0.76259 0.18335 0.0
C679 C 0.49073 0.89345 0.44779 0.0
C680 C 0.50603 0.90442 0.40465 0.0
C681 C 0.4598 0.88762 0.44622 0.0
C682 C 0.44316 0.89266 0.40149 0.0
H683 H 0.50298 0.88748 0.48196 0.0
H684 H 0.44935 0.87725 0.47904 0.0
S685 S 0.47145 0.92725 0.28203 0.0
N686 N 0.50133 0.92438 0.3188 0.0
N687 N 0.44337 0.91373 0.3159 0.0
C688 C 0.45772 0.90626 0.35984 0.0
C689 C 0.48912 0.91203 0.36138 0.0
C690 C 0.3711 0.20873 0.67069 0.0
C691 C 0.36802 0.19312 0.62442 0.0
C692 C 0.36525 0.23963 0.6736 0.0
C693 C 0.35607 0.25602 0.63037 0.0
H694 H 0.37957 0.1974 0.70425 0.0
H695 H 0.36937 0.25094 0.70945 0.0
S696 S 0.33943 0.22438 0.50252 0.0
N697 N 0.35141 0.19551 0.53616 0.0
N698 N 0.34044 0.25335 0.54161 0.0
C699 C 0.35083 0.24016 0.58487 0.0
C700 C 0.35679 0.20879 0.58191 0.0
C701 C 0.0451 0.12111 0.93787 0.0
C702 C 0.06268 0.11309 0.89554 0.0
C703 C 0.01391 0.11659 0.93768 0.0
C704 C 0.99928 0.10398 0.8951 0.0
H705 H 0.05511 0.13276 0.96984 0.0
H706 H 1.00103 0.12471 0.96984 0.0
S707 S 0.03619 0.07376 0.7792 0.0
N708 N 0.06385 0.08787 0.81333 0.0
N709 N 0.0055 0.07957 0.81289 0.0
C710 C 0.01703 0.09358 0.85452 0.0
C711 C 0.04866 0.09806 0.8548 0.0
C712 C 0.86146 0.76288 0.58181 0.0
C713 C 0.85629 0.74731 0.62756 0.0
C714 C 0.8675 0.79364 0.58166 0.0
C715 C 0.86868 0.81032 0.62726 0.0
H716 H 0.86201 0.75107 0.54575 0.0
H717 H 0.87235 0.80415 0.54537 0.0
S718 S 0.8529 0.78116 0.75701 0.0
N719 N 0.84974 0.75161 0.71954 0.0
N720 N 0.86127 0.80947 0.71909 0.0
C721 C 0.86163 0.79551 0.67305 0.0
C722 C 0.85541 0.76404 0.67324 0.0
C723 C 0.95857 0.11877 0.41781 0.0
C724 C 0.94199 0.12004 0.37233 0.0
C725 C 0.98945 0.11281 0.41718 0.0
C726 C 0.00492 0.10789 0.37103 0.0
H727 H 0.94801 0.12393 0.45394 0.0
H728 H 1.00145 0.1135 0.45304 0.0
S729 S 0.97062 0.10348 0.24232 0.0
N730 N 0.9425 0.11196 0.28053 0.0
N731 N 1.0004 0.10091 0.27938 0.0
C732 C 0.98813 0.10696 0.32569 0.0
C733 C 0.95673 0.11299 0.32634 0.0
C734 C 0.65158 0.24063 0.1013 0.0
C735 C 0.65036 0.25722 0.14683 0.0
C736 C 0.64598 0.20981 0.10076 0.0
C737 C 0.63883 0.19408 0.14569 0.0
H738 H 0.65577 0.25167 0.06522 0.0
H739 H 0.64607 0.1985 0.06421 0.0
S740 S 0.63667 0.2261 0.27619 0.0
N741 N 0.64454 0.25495 0.23911 0.0
N742 N 0.63385 0.19687 0.23788 0.0
C743 C 0.63965 0.20987 0.19209 0.0
C744 C 0.64542 0.24145 0.1927 0.0
C745 C 0.54756 0.88195 0.90705 0.0
C746 C 0.56302 0.88218 0.86037 0.0
C747 C 0.51667 0.88773 0.9092 0.0
C748 C 0.50001 0.89406 0.86476 0.0
H749 H 0.55906 0.87588 0.94192 0.0
H750 H 0.50561 0.88599 0.94583 0.0
S751 S 0.53103 0.90229 0.73414 0.0
N752 N 0.56012 0.89281 0.7695 0.0
N753 N 0.50222 0.90367 0.77351 0.0
C754 C 0.51564 0.89631 0.81833 0.0
C755 C 0.54706 0.89038 0.81615 0.0
C756 C 0.85367 0.23936 0.89262 0.0
C757 C 0.86067 0.25711 0.84999 0.0
C758 C 0.85887 0.20848 0.89263 0.0
C759 C 0.87138 0.19385 0.85007 0.0
H760 H 0.84518 0.24952 0.92723 0.0
H761 H 0.85421 0.19618 0.92736 0.0
S762 S 0.89021 0.22927 0.72626 0.0
N763 N 0.87796 0.25723 0.76188 0.0
N764 N 0.8879 0.19897 0.76222 0.0
C765 C 0.87643 0.21083 0.80575 0.0
C766 C 0.87107 0.2425 0.80566 0.0
C767 C 0.5432 0.11844 0.55508 0.0
C768 C 0.55999 0.11393 0.59979 0.0
C769 C 0.51215 0.11327 0.55434 0.0
C770 C 0.49683 0.10348 0.59831 0.0
H771 H 0.5537 0.12779 0.52142 0.0
H772 H 0.49987 0.11862 0.51991 0.0
S773 S 0.53162 0.08274 0.72189 0.0
N774 N 0.55977 0.09489 0.68675 0.0
N775 N 0.50161 0.08542 0.6854 0.0
C776 C 0.51382 0.09657 0.64188 0.0
C777 C 0.54534 0.10171 0.64257 0.0
C778 C 0.64076 0.76293 0.4178 0.0
C779 C 0.64035 0.74731 0.37122 0.0
C780 C 0.63548 0.79381 0.41991 0.0
C781 C 0.62959 0.8106 0.37555 0.0
H782 H 0.64425 0.75113 0.45339 0.0
H783 H 0.63524 0.80442 0.45706 0.0
S784 S 0.62908 0.7813 0.24319 0.0
N785 N 0.63595 0.7516 0.27887 0.0
N786 N 0.62597 0.80975 0.2831 0.0
C787 C 0.63077 0.79571 0.32835 0.0
C788 C 0.63612 0.76408 0.32613 0.0
C789 C 0.95924 0.88103 0.05441 0.0
C790 C 0.94195 0.89021 0.09644 0.0
C791 C 0.99033 0.88612 0.05314 0.0
C792 C 0.00511 0.90043 0.09393 0.0
H793 H 0.94913 0.86808 0.02403 0.0
H794 H 0.00307 0.87707 0.02155 0.0
S795 S 0.9689 0.93433 0.20738 0.0
N796 N 0.94113 0.91845 0.17578 0.0
N797 N 0.99935 0.92773 0.1735 0.0
C798 C 0.98762 0.91198 0.13388 0.0
C799 C 0.95609 0.90696 0.13506 0.0
C800 C 0.6441 0.73846 0.80343 0.0
C801 C 0.65273 0.75425 0.8476 0.0
C802 C 0.63787 0.70762 0.80514 0.0
C803 C 0.64012 0.69149 0.85105 0.0
H804 H 0.64043 0.75026 0.76789 0.0
H805 H 0.62951 0.69682 0.771 0.0
S806 S 0.66771 0.72112 0.97481 0.0
N807 N 0.66736 0.75053 0.93665 0.0
N808 N 0.65593 0.69272 0.93986 0.0
C809 C 0.65121 0.70653 0.89435 0.0
C810 C 0.65742 0.73787 0.89265 0.0
C811 C 0.51504 0.38708 0.07113 0.0
C812 C 0.49988 0.39697 0.11525 0.0
C813 C 0.5461 0.38193 0.07139 0.0
C814 C 0.56315 0.38652 0.11576 0.0
H815 H 0.50265 0.38186 0.03674 0.0
H816 H 0.55648 0.37275 0.03748 0.0
S817 S 0.53527 0.41749 0.23844 0.0
N818 N 0.50508 0.41481 0.20239 0.0
N819 N 0.56326 0.40538 0.20286 0.0
C820 C 0.54863 0.39854 0.15889 0.0
C821 C 0.51707 0.40368 0.15867 0.0
C822 C 0.85844 0.26779 0.32988 0.0
C823 C 0.85495 0.25095 0.37499 0.0
C824 C 0.86414 0.2987 0.33137 0.0
C825 C 0.86657 0.31401 0.37803 0.0
H826 H 0.85816 0.25684 0.29304 0.0
H827 H 0.86813 0.31031 0.29575 0.0
S828 S 0.85409 0.28141 0.50668 0.0
N829 N 0.85066 0.25273 0.46738 0.0
N830 N 0.8612 0.31071 0.47026 0.0
C831 C 0.86099 0.29787 0.42325 0.0
C832 C 0.85525 0.2664 0.42173 0.0
C833 C 0.95915 0.61333 0.66111 0.0
C834 C 0.94291 0.61662 0.61534 0.0
C835 C 0.98987 0.60708 0.66105 0.0
C836 C 0.00586 0.60378 0.61522 0.0
H837 H 0.94831 0.61663 0.69762 0.0
H838 H 1.00131 0.60592 0.69741 0.0
S839 S 0.97329 0.60651 0.48476 0.0
N840 N 0.94466 0.61335 0.52285 0.0
N841 N 0.00244 0.60145 0.52254 0.0
C842 C 0.98958 0.6051 0.56909 0.0
C843 C 0.95815 0.61153 0.5692 0.0
C844 C 0.63664 0.26218 0.66999 0.0
C845 C 0.64497 0.24664 0.62536 0.0
C846 C 0.63144 0.29322 0.66943 0.0
C847 C 0.63433 0.30988 0.62421 0.0
H848 H 0.63272 0.25014 0.7052 0.0
H849 H 0.62357 0.30389 0.70402 0.0
S850 S 0.66081 0.28101 0.49927 0.0
N851 N 0.65962 0.25113 0.53632 0.0
N852 N 0.64987 0.30928 0.5353 0.0
C853 C 0.64474 0.29502 0.58027 0.0
C854 C 0.65004 0.26347 0.58082 0.0
C855 C 0.99333 0.40136 0.86195 0.0
C856 C 0.01045 0.39349 0.9049 0.0
C857 C 0.96235 0.39689 0.86082 0.0
C858 C 0.947 0.38424 0.9025 0.0
H859 H 0.00404 0.41005 0.82798 0.0
H860 H 0.95054 0.40223 0.82588 0.0
S861 S 0.98072 0.36307 0.02665 0.0
N862 N 0.0093 0.37512 0.99232 0.0
N863 N 0.95086 0.36652 0.98989 0.0
C864 C 0.96341 0.37825 0.94714 0.0
C865 C 0.99517 0.38289 0.94838 0.0
C866 C 0.85205 0.74125 0.10513 0.0
C867 C 0.85883 0.75889 0.14801 0.0
C868 C 0.85708 0.71033 0.10505 0.0
C869 C 0.86922 0.69553 0.14778 0.0
H870 H 0.84379 0.7515 0.07043 0.0
H871 H 0.85255 0.69812 0.07017 0.0
S872 S 0.88747 0.73066 0.27212 0.0
N873 N 0.8756 0.75875 0.23642 0.0
N874 N 0.88523 0.70045 0.23595 0.0
C875 C 0.87413 0.71244 0.19224 0.0
C876 C 0.86893 0.74414 0.19241 0.0
C877 C 0.54261 0.60363 0.35989 0.0
C878 C 0.55831 0.61366 0.40324 0.0
C879 C 0.51185 0.59793 0.36154 0.0
C880 C 0.49533 0.60189 0.40666 0.0
H881 H 0.55388 0.60151 0.32349 0.0
H882 H 0.50073 0.59163 0.32643 0.0
S883 S 0.52647 0.6235 0.5328 0.0
N884 N 0.55565 0.62411 0.4941 0.0
N885 N 0.49764 0.6132 0.49744 0.0
C886 C 0.51112 0.60949 0.45143 0.0
C887 C 0.54265 0.61539 0.44967 0.0
C888 C 0.37023 0.29639 0.18711 0.0
C889 C 0.36682 0.31218 0.14106 0.0
C890 C 0.36395 0.26558 0.18998 0.0
C891 C 0.35407 0.24948 0.1469 0.0
H892 H 0.37947 0.30744 0.22034 0.0
H893 H 0.36851 0.25403 0.22547 0.0
S894 S 0.33589 0.28174 0.02021 0.0
N895 N 0.34874 0.31035 0.05357 0.0
N896 N 0.33712 0.25262 0.05897 0.0
C897 C 0.34829 0.26556 0.10187 0.0
C898 C 0.3546 0.29685 0.09897 0.0
C899 C 0.45883 0.61855 0.82173 0.0
C900 C 0.44176 0.6213 0.86668 0.0
C901 C 0.48967 0.61289 0.8233 0.0
C902 C 0.50494 0.60973 0.86989 0.0
H903 H 0.44853 0.62168 0.78473 0.0
H904 H 0.50172 0.612 0.7875 0.0
S905 S 0.47015 0.61165 -0.00131 0.0
N906 N 0.44205 0.61798 0.95922 0.0
N907 N 0.50002 0.60725 0.96235 0.0
C908 C 0.48788 0.61076 0.91519 0.0
C909 C 0.45634 0.61653 0.91355 0.0
C910 C 0.14017 0.70638 0.59235 0.0
C911 C 0.13675 0.68906 0.63691 0.0
C912 C 0.14642 0.73707 0.59462 0.0
C913 C 0.14962 0.75193 0.64156 0.0
H914 H 0.13693 0.69646 0.55507 0.0
H915 H 0.14765 0.74938 0.5591 0.0
S916 S 0.14677 0.71624 0.76956 0.0
N917 N 0.13995 0.68855 0.72947 0.0
N918 N 0.15186 0.7463 0.7339 0.0
C919 C 0.14826 0.73456 0.68648 0.0
C920 C 0.14181 0.70316 0.68413 0.0
C921 C 0.04235 0.38858 0.33146 0.0
C922 C 0.06011 0.387 0.37582 0.0
C923 C 0.01165 0.39468 0.33389 0.0
C924 C 0.99721 0.39959 0.38077 0.0
H925 H 0.05196 0.38404 0.29433 0.0
H926 H 0.999 0.39453 0.29864 0.0
S927 S 0.03407 0.40171 0.50788 0.0
N928 N 0.06143 0.39359 0.46785 0.0
N929 N 0.00366 0.40523 0.47255 0.0
C930 C 0.01498 0.39993 0.4253 0.0
C931 C 0.04639 0.39361 0.42279 0.0
C932 C 0.36492 0.71053 0.41737 0.0
C933 C 0.37141 0.69391 0.37307 0.0
C934 C 0.36014 0.74149 0.41553 0.0
C935 C 0.36163 0.75738 0.36928 0.0
H936 H 0.36438 0.69972 0.45434 0.0
H937 H 0.35617 0.75314 0.45113 0.0
S938 S 0.37468 0.72399 0.2413 0.0
N939 N 0.37666 0.69527 0.28085 0.0
N940 N 0.36759 0.75357 0.27714 0.0
C941 C 0.36638 0.74081 0.32413 0.0
C942 C 0.37125 0.7091 0.32607 0.0
C943 C 0.01456 0.60114 0.14498 0.0
C944 C 0.997 0.60698 0.10161 0.0
C945 C 0.04552 0.60584 0.14469 0.0
C946 C 0.06041 0.6167 0.10108 0.0
H947 H 0.00421 0.594 0.18029 0.0
H948 H 0.05767 0.6022 0.17992 0.0
S949 S 0.02553 0.63178 0.97533 0.0
N950 N 0.99733 0.6212 0.01191 0.0
N951 N 0.05569 0.63024 0.0117 0.0
C952 C 0.04359 0.62048 0.05622 0.0
C953 C 0.01186 0.61561 0.05643 0.0
C954 C 0.13537 0.25901 0.81658 0.0
C955 C 0.14927 0.24394 0.85748 0.0
C956 C 0.13066 0.29015 0.818 0.0
C957 C 0.13974 0.30722 0.86034 0.0
H958 H 0.12651 0.24649 0.78457 0.0
H959 H 0.11818 0.30053 0.7873 0.0
S960 S 0.18268 0.27945 0.97196 0.0
N961 N 0.17603 0.24916 0.93767 0.0
N962 N 0.16727 0.3075 0.94037 0.0
C963 C 0.1559 0.29277 0.89932 0.0
C964 C 0.16063 0.26118 0.89791 0.0
C965 C 0.45827 0.39221 0.65352 0.0
C966 C 0.44205 0.3863 0.60852 0.0
C967 C 0.48907 0.3978 0.65252 0.0
C968 C 0.50512 0.39786 0.60645 0.0
H969 H 0.44734 0.39141 0.69037 0.0
H970 H 0.5005 0.40104 0.68853 0.0
S971 S 0.47268 0.38742 0.4771 0.0
N972 N 0.44385 0.38363 0.51602 0.0
N973 N 0.50189 0.39438 0.51387 0.0
C974 C 0.48888 0.39408 0.5607 0.0
C975 C 0.45733 0.38827 0.56179 0.0
C976 C 0.09343 0.11712 0.60373 0.0
C977 C 0.11597 0.10875 0.56928 0.0
C978 C 0.10016 0.12401 0.65419 0.0
C979 C 0.12976 0.12291 0.67245 0.0
H980 H 0.07045 0.11963 0.59105 0.0
H981 H 0.08198 0.13119 0.6787 0.0
S982 S 0.19664 0.09927 0.59893 0.0
N983 N 0.16879 0.0973 0.55749 0.0
N984 N 0.18157 0.11025 0.65339 0.0
C985 C 0.15235 0.11255 0.6395 0.0
C986 C 0.14541 0.10545 0.58758 0.0
C987 C 0.1481 0.90372 0.83888 0.0
C988 C 0.1597 0.87498 0.82877 0.0
C989 C 0.13916 0.91174 0.88848 0.0
C990 C 0.14193 0.8912 0.92877 0.0
H991 H 0.14291 0.91877 0.80767 0.0
H992 H 0.12751 0.93277 0.89429 0.0
S993 S 0.17565 0.81542 0.92311 0.0
N994 N 0.17696 0.82773 0.86378 0.0
N995 N 0.1607 0.84288 0.95683 0.0
C996 C 0.15646 0.86382 0.91986 0.0
C997 C 0.16528 0.85566 0.86973 0.0
C998 C 0.41364 0.87137 0.10286 0.0
C999 C 0.393 0.88645 0.07165 0.0
C1000 C 0.40698 0.86454 0.15339 0.0
C1001 C 0.37929 0.87241 0.17527 0.0
H1002 H 0.43508 0.86413 0.08786 0.0
H1003 H 0.42377 0.85258 0.1752 0.0
S1004 S 0.31791 0.91374 0.11068 0.0
N1005 N 0.3441 0.91035 0.06652 0.0
N1006 N 0.33147 0.89753 0.16243 0.0
C1007 C 0.35873 0.88856 0.14521 0.0
C1008 C 0.36562 0.89561 0.09322 0.0
C1009 C 0.34115 0.11689 0.41434 0.0
C1010 C 0.36619 0.09841 0.42296 0.0
C1011 C 0.33326 0.12566 0.36473 0.0
C1012 C 0.34992 0.11573 0.32263 0.0
H1013 H 0.32973 0.12726 0.44624 0.0
H1014 H 0.31599 0.14249 0.35975 0.0
S1015 S 0.41509 0.06437 0.32495 0.0
N1016 N 0.40581 0.06847 0.38552 0.0
N1017 N 0.39048 0.08424 0.29217 0.0
C1018 C 0.37301 0.09488 0.33056 0.0
C1019 C 0.3813 0.08636 0.38093 0.0
C1020 C 0.85293 0.89235 0.35612 0.0
C1021 C 0.87609 0.88774 0.3206 0.0
C1022 C 0.85961 0.8998 0.40705 0.0
C1023 C 0.88952 0.90294 0.4232 0.0
H1024 H 0.82988 0.88804 0.34552 0.0
H1025 H 0.84154 0.90068 0.43458 0.0
S1026 S 0.95741 0.89945 0.34228 0.0
N1027 N 0.92949 0.89156 0.30324 0.0
N1028 N 0.94184 0.9054 0.39844 0.0
C1029 C 0.91242 0.90127 0.38681 0.0
C1030 C 0.90574 0.89369 0.33552 0.0
C1031 C 0.86907 0.15542 0.08546 0.0
C1032 C 0.87135 0.12535 0.06995 0.0
C1033 C 0.86016 0.1629 0.1347 0.0
C1034 C 0.85321 0.14063 0.17056 0.0
H1035 H 0.87542 0.17342 0.0599 0.0
H1036 H 0.8604 0.18633 0.14565 0.0
S1037 S 0.85224 0.05866 0.14744 0.0
N1038 N 0.86308 0.07317 0.09248 0.0
N1039 N 0.8465 0.08732 0.18618 0.0
C1040 C 0.85304 0.11053 0.1546 0.0
C1041 C 0.86211 0.10284 0.1039 0.0
C1042 C 0.60061 0.13904 0.84339 0.0
C1043 C 0.62847 0.13207 0.8213 0.0
C1044 C 0.59434 0.13207 0.89399 0.0
C1045 C 0.61559 0.11775 0.92505 0.0
H1046 H 0.58336 0.1504 0.82166 0.0
H1047 H 0.57272 0.13861 0.90917 0.0
S1048 S 0.69137 0.09285 0.88537 0.0
N1049 N 0.67712 0.10852 0.83368 0.0
N1050 N 0.66524 0.09543 0.92979 0.0
C1051 C 0.64316 0.1094 0.90324 0.0
C1052 C 0.64963 0.11659 0.85114 0.0
C1053 C 0.63642 0.91951 0.61303 0.0
C1054 C 0.64419 0.90251 0.57 0.0
C1055 C 0.64577 0.91065 0.66189 0.0
C1056 C 0.6625 0.88423 0.66879 0.0
H1057 H 0.62068 0.93789 0.6095 0.0
H1058 H 0.63687 0.92248 0.69465 0.0
S1059 S 0.69121 0.83415 0.56757 0.0
N1060 N 0.67233 0.86031 0.53664 0.0
N1061 N 0.68898 0.8431 0.62856 0.0
C1062 C 0.67265 0.86877 0.62567 0.0
C1063 C 0.66367 0.87808 0.57608 0.0
C1064 C 0.59179 0.63421 0.10212 0.0
C1065 C 0.61246 0.61825 0.07227 0.0
C1066 C 0.59776 0.64114 0.15285 0.0
C1067 C 0.62475 0.63247 0.17634 0.0
H1068 H 0.57083 0.64198 0.08594 0.0
H1069 H 0.58096 0.65375 0.17356 0.0
S1070 S 0.68598 0.589 0.11555 0.0
N1071 N 0.66069 0.59291 0.07001 0.0
N1072 N 0.67203 0.6059 0.16633 0.0
C1073 C 0.64537 0.6156 0.14757 0.0
C1074 C 0.63918 0.60845 0.09535 0.0
C1075 C 0.60636 0.407 0.38252 0.0
C1076 C 0.6274 0.40546 0.42213 0.0
C1077 C 0.6141 0.39876 0.33298 0.0
C1078 C 0.64311 0.38867 0.32136 0.0
H1079 H 0.58312 0.41221 0.39069 0.0
H1080 H 0.59663 0.3982 0.30429 0.0
S1081 S 0.70728 0.38396 0.41026 0.0
N1082 N 0.67919 0.396 0.44589 0.0
N1083 N 0.6938 0.38047 0.35184 0.0
C1084 C 0.66515 0.38968 0.3594 0.0
C1085 C 0.65723 0.39815 0.41022 0.0
C1086 C 0.9023 0.39611 0.66705 0.0
C1087 C 0.87292 0.38977 0.68298 0.0
C1088 C 0.90838 0.40439 0.6169 0.0
C1089 C 0.88532 0.40667 0.58079 0.0
H1090 H 0.92101 0.39296 0.69284 0.0
H1091 H 0.93158 0.40695 0.60543 0.0
S1092 S 0.80419 0.39607 0.60468 0.0
N1093 N 0.82013 0.38938 0.66044 0.0
N1094 N 0.83166 0.40489 0.56516 0.0
C1095 C 0.85553 0.40308 0.59712 0.0
C1096 C 0.84928 0.39461 0.64865 0.0
C1097 C 0.86814 0.65316 0.90954 0.0
C1098 C 0.86977 0.62353 0.92753 0.0
C1099 C 0.86058 0.65934 0.85916 0.0
C1100 C 0.85431 0.63617 0.82463 0.0
H1101 H 0.87402 0.67181 0.93407 0.0
H1102 H 0.86127 0.68245 0.84642 0.0
S1103 S 0.85189 0.55495 0.85398 0.0
N1104 N 0.86156 0.57085 0.90849 0.0
N1105 N 0.8474 0.58257 0.81266 0.0
C1106 C 0.85343 0.60655 0.84286 0.0
C1107 C 0.86117 0.60018 0.89471 0.0
C1108 C 0.34749 0.38375 0.85709 0.0
C1109 C 0.37034 0.379 0.82108 0.0
C1110 C 0.35462 0.3919 0.90756 0.0
C1111 C 0.38467 0.39561 0.92266 0.0
H1112 H 0.32437 0.37918 0.84724 0.0
H1113 H 0.33684 0.39304 0.9356 0.0
S1114 S 0.45175 0.39156 0.83991 0.0
N1115 N 0.4235 0.38298 0.802 0.0
N1116 N 0.43671 0.39802 0.89634 0.0
C1117 C 0.40722 0.39352 0.88574 0.0
C1118 C 0.40008 0.38527 0.83495 0.0
C1119 C 0.35674 0.59244 0.66235 0.0
C1120 C 0.34115 0.61931 0.67159 0.0
C1121 C 0.36514 0.58437 0.61259 0.0
C1122 C 0.35766 0.60275 0.57106 0.0
H1123 H 0.36547 0.5795 0.694 0.0
H1124 H 0.38003 0.56544 0.60725 0.0
S1125 S 0.31328 0.67283 0.57486 0.0
N1126 N 0.31581 0.66232 0.63509 0.0
N1127 N 0.33086 0.64678 0.54156 0.0
C1128 C 0.33928 0.62778 0.57947 0.0
C1129 C 0.33115 0.63618 0.62991 0.0
C1130 C 0.09626 0.61045 0.38668 0.0
C1131 C 0.11929 0.60446 0.4216 0.0
C1132 C 0.10266 0.61855 0.33662 0.0
C1133 C 0.13237 0.62105 0.31938 0.0
H1134 H 0.07305 0.61043 0.39888 0.0
H1135 H 0.08407 0.62407 0.31173 0.0
S1136 S 0.20077 0.60458 0.39436 0.0
N1137 N 0.17293 0.599 0.43485 0.0
N1138 N 0.18508 0.61419 0.33963 0.0
C1139 C 0.15567 0.61288 0.35263 0.0
C1140 C 0.14908 0.60457 0.40415 0.0
C1141 C 0.14369 0.40909 0.16064 0.0
C1142 C 0.15922 0.38294 0.17484 0.0
C1143 C 0.13683 0.41478 0.10924 0.0
C1144 C 0.14537 0.39438 0.07115 0.0
H1145 H 0.1341 0.42348 0.18964 0.0
H1146 H 0.12229 0.43345 0.09997 0.0
S1147 S 0.19013 0.32523 0.08847 0.0
N1148 N 0.18586 0.33861 0.14671 0.0
N1149 N 0.17315 0.34925 0.05022 0.0
C1150 C 0.16345 0.36989 0.08458 0.0
C1151 C 0.17037 0.36416 0.13658 0.0
loop_
_geom_bond_atom_site_label_1
_geom_bond_atom_site_label_2
_geom_bond_distance
_geom_bond_site_symmetry_2
_ccdc_geom_bond_type
O0 Cd1 2.223 . S
O0 C8 1.315 . S
Cd1 O0 2.223 . S
Cd1 O4 2.297 . S
Cd1 O5 2.439 . S
Cd1 O11 2.240 . S
Cd2 O3 2.240 . S
Cd2 O10 2.223 . S
Cd2 O12 2.297 . S
Cd2 O13 2.439 . S
O3 Cd2 2.240 . S
O3 C8 1.279 . S
O4 Cd1 2.297 . S
O4 C6 1.247 . S
O5 Cd1 2.439 . S
O5 C6 1.208 . S
C6 O4 1.247 . S
C6 O5 1.208 . S
C7 O12 1.247 . S
C7 O13 1.208 . S
C8 O0 1.315 . S
C8 O3 1.279 . S
C9 O10 1.315 . S
C9 O11 1.279 . S
O10 Cd2 2.223 . S
O10 C9 1.315 . S
O11 Cd1 2.240 . S
O11 C9 1.279 . S
O12 Cd2 2.297 . S
O12 C7 1.247 . S
O13 Cd2 2.439 . S
O13 C7 1.208 . S
O14 Cd15 2.223 . S
O14 C22 1.315 . S
Cd15 O14 2.223 . S
Cd15 O18 2.297 . S
Cd15 O19 2.439 . S
Cd15 O25 2.240 . S
Cd16 O17 2.240 . S
Cd16 O24 2.223 . S
Cd16 O26 2.297 . S
Cd16 O27 2.439 . S
O17 Cd16 2.240 . S
O17 C22 1.279 . S
O18 Cd15 2.297 . S
O18 C20 1.247 . S
O19 Cd15 2.439 . S
O19 C20 1.208 . S
C20 O18 1.247 . S
C20 O19 1.208 . S
C21 O26 1.247 . S
C21 O27 1.208 . S
C22 O14 1.315 . S
C22 O17 1.279 . S
C23 O24 1.315 . S
C23 O25 1.279 . S
O24 Cd16 2.223 . S
O24 C23 1.315 . S
O25 Cd15 2.240 . S
O25 C23 1.279 . S
O26 Cd16 2.297 . S
O26 C21 1.247 . S
O27 Cd16 2.439 . S
O27 C21 1.208 . S
O28 Cd29 2.223 . S
O28 C36 1.315 . S
Cd29 O28 2.223 . S
Cd29 O32 2.297 . S
Cd29 O33 2.439 . S
Cd29 O39 2.240 . S
Cd30 O31 2.240 . S
Cd30 O38 2.223 . S
Cd30 O40 2.297 1_556 S
Cd30 O41 2.439 . S
O31 Cd30 2.240 . S
O31 C36 1.279 . S
O32 Cd29 2.297 . S
O32 C34 1.247 . S
O33 Cd29 2.439 . S
O33 C34 1.208 . S
C34 O32 1.247 . S
C34 O33 1.208 . S
C35 O40 1.247 . S
C35 O41 1.208 1_554 S
C36 O28 1.315 . S
C36 O31 1.279 . S
C37 O38 1.315 . S
C37 O39 1.279 . S
O38 Cd30 2.223 . S
O38 C37 1.315 . S
O39 Cd29 2.240 . S
O39 C37 1.279 . S
O40 Cd30 2.297 1_554 S
O40 C35 1.247 . S
O41 Cd30 2.439 . S
O41 C35 1.208 1_556 S
O42 Cd43 2.223 . S
O42 C50 1.315 . S
Cd43 O42 2.223 . S
Cd43 O46 2.297 . S
Cd43 O47 2.439 . S
Cd43 O53 2.240 . S
Cd44 O45 2.240 . S
Cd44 O52 2.223 . S
Cd44 O54 2.297 . S
Cd44 O55 2.439 . S
O45 Cd44 2.240 . S
O45 C50 1.279 . S
O46 Cd43 2.297 . S
O46 C48 1.247 . S
O47 Cd43 2.439 . S
O47 C48 1.208 . S
C48 O46 1.247 . S
C48 O47 1.208 . S
C49 O54 1.247 . S
C49 O55 1.208 . S
C50 O42 1.315 . S
C50 O45 1.279 . S
C51 O52 1.315 . S
C51 O53 1.279 . S
O52 Cd44 2.223 . S
O52 C51 1.315 . S
O53 Cd43 2.240 . S
O53 C51 1.279 . S
O54 Cd44 2.297 . S
O54 C49 1.247 . S
O55 Cd44 2.439 . S
O55 C49 1.208 . S
O56 Cd57 2.223 . S
O56 C64 1.315 . S
Cd57 O56 2.223 . S
Cd57 O60 2.297 . S
Cd57 O61 2.439 . S
Cd57 O67 2.240 . S
Cd58 O59 2.240 . S
Cd58 O66 2.223 . S
Cd58 O68 2.297 1_554 S
Cd58 O69 2.439 . S
O59 Cd58 2.240 . S
O59 C64 1.279 . S
O60 Cd57 2.297 . S
O60 C62 1.247 . S
O61 Cd57 2.439 . S
O61 C62 1.208 . S
C62 O60 1.247 . S
C62 O61 1.208 . S
C63 O68 1.247 . S
C63 O69 1.208 1_556 S
C64 O56 1.315 . S
C64 O59 1.279 . S
C65 O66 1.315 . S
C65 O67 1.279 . S
O66 Cd58 2.223 . S
O66 C65 1.315 . S
O67 Cd57 2.240 . S
O67 C65 1.279 . S
O68 Cd58 2.297 1_556 S
O68 C63 1.247 . S
O69 Cd58 2.439 . S
O69 C63 1.208 1_554 S
O70 Cd71 2.223 . S
O70 C78 1.315 . S
Cd71 O70 2.223 . S
Cd71 O74 2.297 . S
Cd71 O75 2.439 . S
Cd71 O81 2.240 . S
Cd72 O73 2.240 . S
Cd72 O80 2.223 . S
Cd72 O82 2.297 . S
Cd72 O83 2.439 . S
O73 Cd72 2.240 . S
O73 C78 1.279 . S
O74 Cd71 2.297 . S
O74 C76 1.247 . S
O75 Cd71 2.439 . S
O75 C76 1.208 . S
C76 O74 1.247 . S
C76 O75 1.208 . S
C77 O82 1.247 . S
C77 O83 1.208 . S
C78 O70 1.315 . S
C78 O73 1.279 . S
C79 O80 1.315 . S
C79 O81 1.279 . S
O80 Cd72 2.223 . S
O80 C79 1.315 . S
O81 Cd71 2.240 . S
O81 C79 1.279 . S
O82 Cd72 2.297 . S
O82 C77 1.247 . S
O83 Cd72 2.439 . S
O83 C77 1.208 . S
O84 Cd85 2.223 . S
O84 C92 1.315 . S
Cd85 O84 2.223 . S
Cd85 O88 2.297 . S
Cd85 O89 2.439 . S
Cd85 O95 2.240 . S
Cd86 O87 2.240 . S
Cd86 O94 2.223 . S
Cd86 O96 2.297 . S
Cd86 O97 2.439 . S
O87 Cd86 2.240 . S
O87 C92 1.279 . S
O88 Cd85 2.297 . S
O88 C90 1.247 . S
O89 Cd85 2.439 . S
O89 C90 1.208 . S
C90 O88 1.247 . S
C90 O89 1.208 . S
C91 O96 1.247 . S
C91 O97 1.208 . S
C92 O84 1.315 . S
C92 O87 1.279 . S
C93 O94 1.315 . S
C93 O95 1.279 . S
O94 Cd86 2.223 . S
O94 C93 1.315 . S
O95 Cd85 2.240 . S
O95 C93 1.279 . S
O96 Cd86 2.297 . S
O96 C91 1.247 . S
O97 Cd86 2.439 . S
O97 C91 1.208 . S
O98 Cd99 2.223 . S
O98 C106 1.315 . S
Cd99 O98 2.223 . S
Cd99 O102 2.297 . S
Cd99 O103 2.439 . S
Cd99 O109 2.240 . S
Cd100 O101 2.240 . S
Cd100 O108 2.223 . S
Cd100 O110 2.297 . S
Cd100 O111 2.439 . S
O101 Cd100 2.240 . S
O101 C106 1.279 . S
O102 Cd99 2.297 . S
O102 C104 1.247 . S
O103 Cd99 2.439 . S
O103 C104 1.208 . S
C104 O102 1.247 . S
C104 O103 1.208 . S
C105 O110 1.247 . S
C105 O111 1.208 . S
C106 O98 1.315 . S
C106 O101 1.279 . S
C107 O108 1.315 . S
C107 O109 1.279 . S
O108 Cd100 2.223 . S
O108 C107 1.315 . S
O109 Cd99 2.240 . S
O109 C107 1.279 . S
O110 Cd100 2.297 . S
O110 C105 1.247 . S
O111 Cd100 2.439 . S
O111 C105 1.208 . S
O112 Cd113 2.223 . S
O112 C120 1.315 . S
Cd113 O112 2.223 . S
Cd113 O116 2.297 . S
Cd113 O117 2.439 . S
Cd113 O123 2.240 . S
Cd114 O115 2.240 . S
Cd114 O122 2.223 . S
Cd114 O124 2.297 . S
Cd114 O125 2.439 . S
O115 Cd114 2.240 . S
O115 C120 1.279 . S
O116 Cd113 2.297 . S
O116 C118 1.247 . S
O117 Cd113 2.439 . S
O117 C118 1.208 . S
C118 O116 1.247 . S
C118 O117 1.208 . S
C119 O124 1.247 . S
C119 O125 1.208 . S
C120 O112 1.315 . S
C120 O115 1.279 . S
C121 O122 1.315 . S
C121 O123 1.279 . S
O122 Cd114 2.223 . S
O122 C121 1.315 . S
O123 Cd113 2.240 . S
O123 C121 1.279 . S
O124 Cd114 2.297 . S
O124 C119 1.247 . S
O125 Cd114 2.439 . S
O125 C119 1.208 . S
O126 Cd127 2.223 . S
O126 C134 1.315 . S
Cd127 O126 2.223 . S
Cd127 O130 2.297 . S
Cd127 O131 2.439 . S
Cd127 O137 2.240 . S
Cd128 O129 2.240 . S
Cd128 O136 2.223 . S
Cd128 O138 2.297 . S
Cd128 O139 2.439 . S
O129 Cd128 2.240 . S
O129 C134 1.279 . S
O130 Cd127 2.297 . S
O130 C132 1.247 . S
O131 Cd127 2.439 . S
O131 C132 1.208 . S
C132 O130 1.247 . S
C132 O131 1.208 . S
C133 O138 1.247 . S
C133 O139 1.208 . S
C134 O126 1.315 . S
C134 O129 1.279 . S
C135 O136 1.315 . S
C135 O137 1.279 . S
O136 Cd128 2.223 . S
O136 C135 1.315 . S
O137 Cd127 2.240 . S
O137 C135 1.279 . S
O138 Cd128 2.297 . S
O138 C133 1.247 . S
O139 Cd128 2.439 . S
O139 C133 1.208 . S
O140 Cd141 2.223 . S
O140 C148 1.315 . S
Cd141 O140 2.223 . S
Cd141 O144 2.297 . S
Cd141 O145 2.439 . S
Cd141 O151 2.240 . S
Cd142 O143 2.240 . S
Cd142 O150 2.223 . S
Cd142 O152 2.297 1_554 S
Cd142 O153 2.439 . S
O143 Cd142 2.240 . S
O143 C148 1.279 . S
O144 Cd141 2.297 . S
O144 C146 1.247 . S
O145 Cd141 2.439 . S
O145 C146 1.208 . S
C146 O144 1.247 . S
C146 O145 1.208 . S
C147 O152 1.247 . S
C147 O153 1.208 1_556 S
C148 O140 1.315 . S
C148 O143 1.279 . S
C149 O150 1.315 . S
C149 O151 1.279 . S
O150 Cd142 2.223 . S
O150 C149 1.315 . S
O151 Cd141 2.240 . S
O151 C149 1.279 . S
O152 Cd142 2.297 1_556 S
O152 C147 1.247 . S
O153 Cd142 2.439 . S
O153 C147 1.208 1_554 S
O154 Cd155 2.223 . S
O154 C162 1.315 . S
Cd155 O154 2.223 . S
Cd155 O158 2.297 . S
Cd155 O159 2.439 . S
Cd155 O165 2.240 . S
Cd156 O157 2.240 . S
Cd156 O164 2.223 . S
Cd156 O166 2.297 . S
Cd156 O167 2.439 . S
O157 Cd156 2.240 . S
O157 C162 1.279 . S
O158 Cd155 2.297 . S
O158 C160 1.247 . S
O159 Cd155 2.439 . S
O159 C160 1.208 . S
C160 O158 1.247 . S
C160 O159 1.208 . S
C161 O166 1.247 . S
C161 O167 1.208 . S
C162 O154 1.315 . S
C162 O157 1.279 . S
C163 O164 1.315 . S
C163 O165 1.279 . S
O164 Cd156 2.223 . S
O164 C163 1.315 . S
O165 Cd155 2.240 . S
O165 C163 1.279 . S
O166 Cd156 2.297 . S
O166 C161 1.247 . S
O167 Cd156 2.439 . S
O167 C161 1.208 . S
O168 Cd169 2.223 . S
O168 C176 1.315 . S
Cd169 O168 2.223 . S
Cd169 O172 2.297 . S
Cd169 O173 2.439 . S
Cd169 O179 2.240 . S
Cd170 O171 2.240 . S
Cd170 O178 2.223 . S
Cd170 O180 2.297 1_556 S
Cd170 O181 2.439 . S
O171 Cd170 2.240 . S
O171 C176 1.279 . S
O172 Cd169 2.297 . S
O172 C174 1.247 . S
O173 Cd169 2.439 . S
O173 C174 1.208 . S
C174 O172 1.247 . S
C174 O173 1.208 . S
C175 O180 1.247 . S
C175 O181 1.208 1_554 S
C176 O168 1.315 . S
C176 O171 1.279 . S
C177 O178 1.315 . S
C177 O179 1.279 . S
O178 Cd170 2.223 . S
O178 C177 1.315 . S
O179 Cd169 2.240 . S
O179 C177 1.279 . S
O180 Cd170 2.297 1_554 S
O180 C175 1.247 . S
O181 Cd170 2.439 . S
O181 C175 1.208 1_556 S
O182 Cd183 2.223 . S
O182 C190 1.315 . S
Cd183 O182 2.223 . S
Cd183 O186 2.297 . S
Cd183 O187 2.439 . S
Cd183 O193 2.240 . S
Cd184 O185 2.240 . S
Cd184 O192 2.223 . S
Cd184 O194 2.297 . S
Cd184 O195 2.439 . S
O185 Cd184 2.240 . S
O185 C190 1.279 . S
O186 Cd183 2.297 . S
O186 C188 1.247 . S
O187 Cd183 2.439 . S
O187 C188 1.208 . S
C188 O186 1.247 . S
C188 O187 1.208 . S
C189 O194 1.247 . S
C189 O195 1.208 . S
C190 O182 1.315 . S
C190 O185 1.279 . S
C191 O192 1.315 . S
C191 O193 1.279 . S
O192 Cd184 2.223 . S
O192 C191 1.315 . S
O193 Cd183 2.240 . S
O193 C191 1.279 . S
O194 Cd184 2.297 . S
O194 C189 1.247 . S
O195 Cd184 2.439 . S
O195 C189 1.208 . S
O196 Cd197 2.223 . S
O196 C204 1.315 . S
Cd197 O196 2.223 . S
Cd197 O200 2.297 . S
Cd197 O201 2.439 . S
Cd197 O207 2.240 . S
Cd198 O199 2.240 . S
Cd198 O206 2.223 . S
Cd198 O208 2.297 . S
Cd198 O209 2.439 . S
O199 Cd198 2.240 . S
O199 C204 1.279 . S
O200 Cd197 2.297 . S
O200 C202 1.247 . S
O201 Cd197 2.439 . S
O201 C202 1.208 . S
C202 O200 1.247 . S
C202 O201 1.208 . S
C203 O208 1.247 . S
C203 O209 1.208 . S
C204 O196 1.315 . S
C204 O199 1.279 . S
C205 O206 1.315 . S
C205 O207 1.279 . S
O206 Cd198 2.223 . S
O206 C205 1.315 . S
O207 Cd197 2.240 . S
O207 C205 1.279 . S
O208 Cd198 2.297 . S
O208 C203 1.247 . S
O209 Cd198 2.439 . S
O209 C203 1.208 . S
O210 Cd211 2.223 . S
O210 C218 1.315 . S
Cd211 O210 2.223 . S
Cd211 O214 2.297 . S
Cd211 O215 2.439 . S
Cd211 O221 2.240 . S
Cd212 O213 2.240 . S
Cd212 O220 2.223 . S
Cd212 O222 2.297 . S
Cd212 O223 2.439 . S
O213 Cd212 2.240 . S
O213 C218 1.279 . S
O214 Cd211 2.297 . S
O214 C216 1.247 . S
O215 Cd211 2.439 . S
O215 C216 1.208 . S
C216 O214 1.247 . S
C216 O215 1.208 . S
C217 O222 1.247 . S
C217 O223 1.208 . S
C218 O210 1.315 . S
C218 O213 1.279 . S
C219 O220 1.315 . S
C219 O221 1.279 . S
O220 Cd212 2.223 . S
O220 C219 1.315 . S
O221 Cd211 2.240 . S
O221 C219 1.279 . S
O222 Cd212 2.297 . S
O222 C217 1.247 . S
O223 Cd212 2.439 . S
O223 C217 1.208 . S
O224 Cd225 2.223 . S
O224 C232 1.315 . S
Cd225 O224 2.223 . S
Cd225 O228 2.297 . S
Cd225 O229 2.439 . S
Cd225 O235 2.240 . S
Cd226 O227 2.240 . S
Cd226 O234 2.223 . S
Cd226 O236 2.297 1_556 S
Cd226 O237 2.439 . S
O227 Cd226 2.240 . S
O227 C232 1.279 . S
O228 Cd225 2.297 . S
O228 C230 1.247 . S
O229 Cd225 2.439 . S
O229 C230 1.208 . S
C230 O228 1.247 . S
C230 O229 1.208 . S
C231 O236 1.247 . S
C231 O237 1.208 1_554 S
C232 O224 1.315 . S
C232 O227 1.279 . S
C233 O234 1.315 . S
C233 O235 1.279 . S
O234 Cd226 2.223 . S
O234 C233 1.315 . S
O235 Cd225 2.240 . S
O235 C233 1.279 . S
O236 Cd226 2.297 1_554 S
O236 C231 1.247 . S
O237 Cd226 2.439 . S
O237 C231 1.208 1_556 S
O238 Cd239 2.223 . S
O238 C246 1.315 . S
Cd239 O238 2.223 . S
Cd239 O242 2.297 . S
Cd239 O243 2.439 . S
Cd239 O249 2.240 . S
Cd240 O241 2.240 . S
Cd240 O248 2.223 . S
Cd240 O250 2.297 . S
Cd240 O251 2.439 . S
O241 Cd240 2.240 . S
O241 C246 1.279 . S
O242 Cd239 2.297 . S
O242 C244 1.247 . S
O243 Cd239 2.439 . S
O243 C244 1.208 . S
C244 O242 1.247 . S
C244 O243 1.208 . S
C245 O250 1.247 . S
C245 O251 1.208 . S
C246 O238 1.315 . S
C246 O241 1.279 . S
C247 O248 1.315 . S
C247 O249 1.279 . S
O248 Cd240 2.223 . S
O248 C247 1.315 . S
O249 Cd239 2.240 . S
O249 C247 1.279 . S
O250 Cd240 2.297 . S
O250 C245 1.247 . S
O251 Cd240 2.439 . S
O251 C245 1.208 . S
O252 Cd253 2.223 . S
O252 C260 1.315 . S
Cd253 O252 2.223 . S
Cd253 O256 2.297 . S
Cd253 O257 2.439 . S
Cd253 O263 2.240 . S
Cd254 O255 2.240 . S
Cd254 O262 2.223 . S
Cd254 O264 2.297 . S
Cd254 O265 2.439 . S
O255 Cd254 2.240 . S
O255 C260 1.279 . S
O256 Cd253 2.297 . S
O256 C258 1.247 . S
O257 Cd253 2.439 . S
O257 C258 1.208 . S
C258 O256 1.247 . S
C258 O257 1.208 . S
C259 O264 1.247 . S
C259 O265 1.208 . S
C260 O252 1.315 . S
C260 O255 1.279 . S
C261 O262 1.315 . S
C261 O263 1.279 . S
O262 Cd254 2.223 . S
O262 C261 1.315 . S
O263 Cd253 2.240 . S
O263 C261 1.279 . S
O264 Cd254 2.297 . S
O264 C259 1.247 . S
O265 Cd254 2.439 . S
O265 C259 1.208 . S
O266 Cd267 2.223 . S
O266 C274 1.315 . S
Cd267 O266 2.223 . S
Cd267 O270 2.297 . S
Cd267 O271 2.439 . S
Cd267 O277 2.240 . S
Cd268 O269 2.240 . S
Cd268 O276 2.223 . S
Cd268 O278 2.297 . S
Cd268 O279 2.439 . S
O269 Cd268 2.240 . S
O269 C274 1.279 . S
O270 Cd267 2.297 . S
O270 C272 1.247 . S
O271 Cd267 2.439 . S
O271 C272 1.208 . S
C272 O270 1.247 . S
C272 O271 1.208 . S
C273 O278 1.247 . S
C273 O279 1.208 . S
C274 O266 1.315 . S
C274 O269 1.279 . S
C275 O276 1.315 . S
C275 O277 1.279 . S
O276 Cd268 2.223 . S
O276 C275 1.315 . S
O277 Cd267 2.240 . S
O277 C275 1.279 . S
O278 Cd268 2.297 . S
O278 C273 1.247 . S
O279 Cd268 2.439 . S
O279 C273 1.208 . S
O280 Cd281 2.223 . S
O280 C288 1.315 . S
Cd281 O280 2.223 . S
Cd281 O284 2.297 . S
Cd281 O285 2.439 . S
Cd281 O291 2.240 . S
Cd282 O283 2.240 . S
Cd282 O290 2.223 . S
Cd282 O292 2.297 . S
Cd282 O293 2.439 . S
O283 Cd282 2.240 . S
O283 C288 1.279 . S
O284 Cd281 2.297 . S
O284 C286 1.247 . S
O285 Cd281 2.439 . S
O285 C286 1.208 . S
C286 O284 1.247 . S
C286 O285 1.208 . S
C287 O292 1.247 . S
C287 O293 1.208 . S
C288 O280 1.315 . S
C288 O283 1.279 . S
C289 O290 1.315 . S
C289 O291 1.279 . S
O290 Cd282 2.223 . S
O290 C289 1.315 . S
O291 Cd281 2.240 . S
O291 C289 1.279 . S
O292 Cd282 2.297 . S
O292 C287 1.247 . S
O293 Cd282 2.439 . S
O293 C287 1.208 . S
O294 Cd295 2.223 . S
O294 C302 1.315 . S
Cd295 O294 2.223 . S
Cd295 O298 2.297 . S
Cd295 O299 2.439 . S
Cd295 O305 2.240 . S
Cd296 O297 2.240 . S
Cd296 O304 2.223 . S
Cd296 O306 2.297 . S
Cd296 O307 2.439 . S
O297 Cd296 2.240 . S
O297 C302 1.279 . S
O298 Cd295 2.297 . S
O298 C300 1.247 . S
O299 Cd295 2.439 . S
O299 C300 1.208 . S
C300 O298 1.247 . S
C300 O299 1.208 . S
C301 O306 1.247 . S
C301 O307 1.208 . S
C302 O294 1.315 . S
C302 O297 1.279 . S
C303 O304 1.315 . S
C303 O305 1.279 . S
O304 Cd296 2.223 . S
O304 C303 1.315 . S
O305 Cd295 2.240 . S
O305 C303 1.279 . S
O306 Cd296 2.297 . S
O306 C301 1.247 . S
O307 Cd296 2.439 . S
O307 C301 1.208 . S
O308 Cd309 2.223 . S
O308 C316 1.315 . S
Cd309 O308 2.223 . S
Cd309 O312 2.297 . S
Cd309 O313 2.439 . S
Cd309 O319 2.240 . S
Cd310 O311 2.240 . S
Cd310 O318 2.223 . S
Cd310 O320 2.297 1_554 S
Cd310 O321 2.439 . S
O311 Cd310 2.240 . S
O311 C316 1.279 . S
O312 Cd309 2.297 . S
O312 C314 1.247 . S
O313 Cd309 2.439 . S
O313 C314 1.208 . S
C314 O312 1.247 . S
C314 O313 1.208 . S
C315 O320 1.247 . S
C315 O321 1.208 1_556 S
C316 O308 1.315 . S
C316 O311 1.279 . S
C317 O318 1.315 . S
C317 O319 1.279 . S
O318 Cd310 2.223 . S
O318 C317 1.315 . S
O319 Cd309 2.240 . S
O319 C317 1.279 . S
O320 Cd310 2.297 1_556 S
O320 C315 1.247 . S
O321 Cd310 2.439 . S
O321 C315 1.208 1_554 S
O322 Cd323 2.223 . S
O322 C330 1.315 . S
Cd323 O322 2.223 . S
Cd323 O326 2.297 . S
Cd323 O327 2.439 . S
Cd323 O333 2.240 . S
Cd324 O325 2.240 . S
Cd324 O332 2.223 . S
Cd324 O334 2.297 . S
Cd324 O335 2.439 . S
O325 Cd324 2.240 . S
O325 C330 1.279 . S
O326 Cd323 2.297 . S
O326 C328 1.247 . S
O327 Cd323 2.439 . S
O327 C328 1.208 . S
C328 O326 1.247 . S
C328 O327 1.208 . S
C329 O334 1.247 . S
C329 O335 1.208 . S
C330 O322 1.315 . S
C330 O325 1.279 . S
C331 O332 1.315 . S
C331 O333 1.279 . S
O332 Cd324 2.223 . S
O332 C331 1.315 . S
O333 Cd323 2.240 . S
O333 C331 1.279 . S
O334 Cd324 2.297 . S
O334 C329 1.247 . S
O335 Cd324 2.439 . S
O335 C329 1.208 . S
O336 Cd337 2.223 . S
O336 C344 1.315 . S
Cd337 O336 2.223 . S
Cd337 O340 2.297 . S
Cd337 O341 2.439 . S
Cd337 O347 2.240 . S
Cd338 O339 2.240 . S
Cd338 O346 2.223 . S
Cd338 O348 2.297 1_554 S
Cd338 O349 2.439 . S
O339 Cd338 2.240 . S
O339 C344 1.279 . S
O340 Cd337 2.297 . S
O340 C342 1.247 . S
O341 Cd337 2.439 . S
O341 C342 1.208 . S
C342 O340 1.247 . S
C342 O341 1.208 . S
C343 O348 1.247 . S
C343 O349 1.208 1_556 S
C344 O336 1.315 . S
C344 O339 1.279 . S
C345 O346 1.315 . S
C345 O347 1.279 . S
O346 Cd338 2.223 . S
O346 C345 1.315 . S
O347 Cd337 2.240 . S
O347 C345 1.279 . S
O348 Cd338 2.297 1_556 S
O348 C343 1.247 . S
O349 Cd338 2.439 . S
O349 C343 1.208 1_554 S
O350 Cd351 2.223 . S
O350 C358 1.315 . S
Cd351 O350 2.223 . S
Cd351 O354 2.297 . S
Cd351 O355 2.439 . S
Cd351 O361 2.240 . S
Cd352 O353 2.240 . S
Cd352 O360 2.223 . S
Cd352 O362 2.297 . S
Cd352 O363 2.439 . S
O353 Cd352 2.240 . S
O353 C358 1.279 . S
O354 Cd351 2.297 . S
O354 C356 1.247 . S
O355 Cd351 2.439 . S
O355 C356 1.208 . S
C356 O354 1.247 . S
C356 O355 1.208 . S
C357 O362 1.247 . S
C357 O363 1.208 . S
C358 O350 1.315 . S
C358 O353 1.279 . S
C359 O360 1.315 . S
C359 O361 1.279 . S
O360 Cd352 2.223 . S
O360 C359 1.315 . S
O361 Cd351 2.240 . S
O361 C359 1.279 . S
O362 Cd352 2.297 . S
O362 C357 1.247 . S
O363 Cd352 2.439 . S
O363 C357 1.208 . S
O364 Cd365 2.223 . S
O364 C372 1.315 . S
Cd365 O364 2.223 . S
Cd365 O368 2.297 . S
Cd365 O369 2.439 . S
Cd365 O375 2.240 . S
Cd366 O367 2.240 . S
Cd366 O374 2.223 . S
Cd366 O376 2.297 . S
Cd366 O377 2.439 . S
O367 Cd366 2.240 . S
O367 C372 1.279 . S
O368 Cd365 2.297 . S
O368 C370 1.247 . S
O369 Cd365 2.439 . S
O369 C370 1.208 . S
C370 O368 1.247 . S
C370 O369 1.208 . S
C371 O376 1.247 . S
C371 O377 1.208 . S
C372 O364 1.315 . S
C372 O367 1.279 . S
C373 O374 1.315 . S
C373 O375 1.279 . S
O374 Cd366 2.223 . S
O374 C373 1.315 . S
O375 Cd365 2.240 . S
O375 C373 1.279 . S
O376 Cd366 2.297 . S
O376 C371 1.247 . S
O377 Cd366 2.439 . S
O377 C371 1.208 . S
O378 Cd379 2.223 . S
O378 C386 1.315 . S
Cd379 O378 2.223 . S
Cd379 O382 2.297 . S
Cd379 O383 2.439 . S
Cd379 O389 2.240 . S
Cd380 O381 2.240 . S
Cd380 O388 2.223 . S
Cd380 O390 2.297 . S
Cd380 O391 2.439 . S
O381 Cd380 2.240 . S
O381 C386 1.279 . S
O382 Cd379 2.297 . S
O382 C384 1.247 . S
O383 Cd379 2.439 . S
O383 C384 1.208 . S
C384 O382 1.247 . S
C384 O383 1.208 . S
C385 O390 1.247 . S
C385 O391 1.208 . S
C386 O378 1.315 . S
C386 O381 1.279 . S
C387 O388 1.315 . S
C387 O389 1.279 . S
O388 Cd380 2.223 . S
O388 C387 1.315 . S
O389 Cd379 2.240 . S
O389 C387 1.279 . S
O390 Cd380 2.297 . S
O390 C385 1.247 . S
O391 Cd380 2.439 . S
O391 C385 1.208 . S
O392 Cd393 2.223 . S
O392 C400 1.315 . S
Cd393 O392 2.223 . S
Cd393 O396 2.297 . S
Cd393 O397 2.439 . S
Cd393 O403 2.240 . S
Cd394 O395 2.240 . S
Cd394 O402 2.223 . S
Cd394 O404 2.297 . S
Cd394 O405 2.439 . S
O395 Cd394 2.240 . S
O395 C400 1.279 . S
O396 Cd393 2.297 . S
O396 C398 1.247 . S
O397 Cd393 2.439 . S
O397 C398 1.208 . S
C398 O396 1.247 . S
C398 O397 1.208 . S
C399 O404 1.247 . S
C399 O405 1.208 . S
C400 O392 1.315 . S
C400 O395 1.279 . S
C401 O402 1.315 . S
C401 O403 1.279 . S
O402 Cd394 2.223 . S
O402 C401 1.315 . S
O403 Cd393 2.240 . S
O403 C401 1.279 . S
O404 Cd394 2.297 . S
O404 C399 1.247 . S
O405 Cd394 2.439 . S
O405 C399 1.208 . S
O406 Cd407 2.223 . S
O406 C414 1.315 . S
Cd407 O406 2.223 . S
Cd407 O410 2.297 . S
Cd407 O411 2.439 . S
Cd407 O417 2.240 . S
Cd408 O409 2.240 . S
Cd408 O416 2.223 . S
Cd408 O418 2.297 . S
Cd408 O419 2.439 . S
O409 Cd408 2.240 . S
O409 C414 1.279 . S
O410 Cd407 2.297 . S
O410 C412 1.247 . S
O411 Cd407 2.439 . S
O411 C412 1.208 . S
C412 O410 1.247 . S
C412 O411 1.208 . S
C413 O418 1.247 . S
C413 O419 1.208 . S
C414 O406 1.315 . S
C414 O409 1.279 . S
C415 O416 1.315 . S
C415 O417 1.279 . S
O416 Cd408 2.223 . S
O416 C415 1.315 . S
O417 Cd407 2.240 . S
O417 C415 1.279 . S
O418 Cd408 2.297 . S
O418 C413 1.247 . S
O419 Cd408 2.439 . S
O419 C413 1.208 . S
O420 Cd421 2.223 . S
O420 C428 1.315 . S
Cd421 O420 2.223 . S
Cd421 O424 2.297 . S
Cd421 O425 2.439 . S
Cd421 O431 2.240 . S
Cd422 O423 2.240 . S
Cd422 O430 2.223 . S
Cd422 O432 2.297 1_556 S
Cd422 O433 2.439 . S
O423 Cd422 2.240 . S
O423 C428 1.279 . S
O424 Cd421 2.297 . S
O424 C426 1.247 . S
O425 Cd421 2.439 . S
O425 C426 1.208 . S
C426 O424 1.247 . S
C426 O425 1.208 . S
C427 O432 1.247 . S
C427 O433 1.208 1_554 S
C428 O420 1.315 . S
C428 O423 1.279 . S
C429 O430 1.315 . S
C429 O431 1.279 . S
O430 Cd422 2.223 . S
O430 C429 1.315 . S
O431 Cd421 2.240 . S
O431 C429 1.279 . S
O432 Cd422 2.297 1_554 S
O432 C427 1.247 . S
O433 Cd422 2.439 . S
O433 C427 1.208 1_556 S
O434 Cd435 2.223 . S
O434 C442 1.315 . S
Cd435 O434 2.223 . S
Cd435 O438 2.297 . S
Cd435 O439 2.439 . S
Cd435 O445 2.240 . S
Cd436 O437 2.240 . S
Cd436 O444 2.223 . S
Cd436 O446 2.297 . S
Cd436 O447 2.439 . S
O437 Cd436 2.240 . S
O437 C442 1.279 . S
O438 Cd435 2.297 . S
O438 C440 1.247 . S
O439 Cd435 2.439 . S
O439 C440 1.208 . S
C440 O438 1.247 . S
C440 O439 1.208 . S
C441 O446 1.247 . S
C441 O447 1.208 . S
C442 O434 1.315 . S
C442 O437 1.279 . S
C443 O444 1.315 . S
C443 O445 1.279 . S
O444 Cd436 2.223 . S
O444 C443 1.315 . S
O445 Cd435 2.240 . S
O445 C443 1.279 . S
O446 Cd436 2.297 . S
O446 C441 1.247 . S
O447 Cd436 2.439 . S
O447 C441 1.208 . S
C448 C449 1.369 . S
C448 C450 1.419 1_545 S
C448 H452 0.930 . S
C449 C448 1.369 . S
C449 C458 1.429 . S
C450 C448 1.419 1_565 S
C450 C451 1.363 . S
C450 H453 0.929 . S
C451 C450 1.363 . S
C451 C457 1.428 . S
H452 C448 0.930 . S
H453 C450 0.929 . S
S454 N455 1.613 1_565 S
S454 N456 1.610 . S
N455 S454 1.613 1_545 S
N455 C458 1.350 . S
N456 S454 1.610 . S
N456 C457 1.351 . S
C457 C451 1.428 . S
C457 N456 1.351 . S
C457 C458 1.434 1_565 S
C458 C449 1.429 . S
C458 N455 1.350 . S
C458 C457 1.434 1_545 S
C459 C460 1.369 . S
C459 C461 1.419 . S
C459 H463 0.930 . S
C460 C459 1.369 . S
C460 C469 1.429 . S
C461 C459 1.419 . S
C461 C462 1.363 . S
C461 H464 0.929 . S
C462 C461 1.363 . S
C462 C468 1.428 . S
H463 C459 0.930 . S
H464 C461 0.929 . S
S465 N466 1.613 . S
S465 N467 1.610 . S
N466 S465 1.613 . S
N466 C469 1.350 . S
N467 S465 1.610 . S
N467 C468 1.351 . S
C468 C462 1.428 . S
C468 N467 1.351 . S
C468 C469 1.434 . S
C469 C460 1.429 . S
C469 N466 1.350 . S
C469 C468 1.434 . S
C470 C471 1.369 . S
C470 C472 1.419 . S
C470 H474 0.930 . S
C471 C470 1.369 . S
C471 C480 1.429 1_545 S
C472 C470 1.419 . S
C472 C473 1.363 1_545 S
C472 H475 0.929 . S
C473 C472 1.363 1_565 S
C473 C479 1.428 . S
H474 C470 0.930 . S
H475 C472 0.929 . S
S476 N477 1.613 . S
S476 N478 1.610 . S
N477 S476 1.613 . S
N477 C480 1.350 . S
N478 S476 1.610 . S
N478 C479 1.351 . S
C479 C473 1.428 . S
C479 N478 1.351 . S
C479 C480 1.434 . S
C480 C471 1.429 1_565 S
C480 N477 1.350 . S
C480 C479 1.434 . S
C481 C482 1.369 1_554 S
C481 C483 1.419 . S
C481 H485 0.930 . S
C482 C481 1.369 1_556 S
C482 C491 1.429 . S
C483 C481 1.419 . S
C483 C484 1.363 . S
C483 H486 0.929 . S
C484 C483 1.363 . S
C484 C490 1.428 1_554 S
H485 C481 0.930 . S
H486 C483 0.929 . S
S487 N488 1.613 . S
S487 N489 1.610 . S
N488 S487 1.613 . S
N488 C491 1.350 . S
N489 S487 1.610 . S
N489 C490 1.351 . S
C490 C484 1.428 1_556 S
C490 N489 1.351 . S
C490 C491 1.434 . S
C491 C482 1.429 . S
C491 N488 1.350 . S
C491 C490 1.434 . S
C492 C493 1.369 . S
C492 C494 1.405 1_565 S
C492 H496 0.930 . S
C493 C492 1.369 . S
C493 C502 1.440 . S
C494 C492 1.405 1_545 S
C494 C495 1.378 . S
C494 H497 0.929 . S
C495 C494 1.378 . S
C495 C501 1.428 . S
H496 C492 0.930 . S
H497 C494 0.929 . S
S498 N499 1.629 . S
S498 N500 1.610 . S
N499 S498 1.629 . S
N499 C502 1.349 1_545 S
N500 S498 1.610 . S
N500 C501 1.351 . S
C501 C495 1.428 . S
C501 N500 1.351 . S
C501 C502 1.423 1_545 S
C502 C493 1.440 . S
C502 N499 1.349 1_565 S
C502 C501 1.423 1_565 S
C503 C504 1.369 . S
C503 C505 1.419 . S
C503 H507 0.930 . S
C504 C503 1.369 . S
C504 C513 1.429 . S
C505 C503 1.419 . S
C505 C506 1.363 . S
C505 H508 0.929 . S
C506 C505 1.363 . S
C506 C512 1.428 . S
H507 C503 0.930 . S
H508 C505 0.929 . S
S509 N510 1.613 . S
S509 N511 1.610 . S
N510 S509 1.613 . S
N510 C513 1.350 . S
N511 S509 1.610 . S
N511 C512 1.351 . S
C512 C506 1.428 . S
C512 N511 1.351 . S
C512 C513 1.434 . S
C513 C504 1.429 . S
C513 N510 1.350 . S
C513 C512 1.434 . S
C514 C515 1.369 . S
C514 C516 1.433 . S
C514 H518 0.930 . S
C515 C514 1.369 . S
C515 C524 1.429 1_565 S
C516 C514 1.433 . S
C516 C517 1.347 1_565 S
C516 H519 0.931 . S
C517 C516 1.347 1_545 S
C517 C523 1.428 . S
H518 C514 0.930 . S
H519 C516 0.931 . S
S520 N521 1.613 . S
S520 N522 1.610 . S
N521 S520 1.613 . S
N521 C524 1.350 . S
N522 S520 1.610 . S
N522 C523 1.351 . S
C523 C517 1.428 . S
C523 N522 1.351 . S
C523 C524 1.434 . S
C524 C515 1.429 1_545 S
C524 N521 1.350 . S
C524 C523 1.434 . S
C525 C526 1.369 . S
C525 C527 1.419 . S
C525 H529 0.930 . S
C526 C525 1.369 . S
C526 C535 1.429 1_556 S
C527 C525 1.419 . S
C527 C528 1.363 1_556 S
C527 H530 0.929 . S
C528 C527 1.363 1_554 S
C528 C534 1.428 . S
H529 C525 0.930 . S
H530 C527 0.929 . S
S531 N532 1.613 . S
S531 N533 1.610 . S
N532 S531 1.613 . S
N532 C535 1.350 . S
N533 S531 1.610 . S
N533 C534 1.351 . S
C534 C528 1.428 . S
C534 N533 1.351 . S
C534 C535 1.434 . S
C535 C526 1.429 1_554 S
C535 N532 1.350 . S
C535 C534 1.434 . S
C536 C537 1.369 . S
C536 C538 1.419 . S
C536 H540 0.930 . S
C537 C536 1.369 . S
C537 C546 1.429 . S
C538 C536 1.419 . S
C538 C539 1.363 . S
C538 H541 0.929 . S
C539 C538 1.363 . S
C539 C545 1.428 . S
H540 C536 0.930 . S
H541 C538 0.929 . S
S542 N543 1.613 . S
S542 N544 1.610 . S
N543 S542 1.613 . S
N543 C546 1.350 . S
N544 S542 1.610 . S
N544 C545 1.351 . S
C545 C539 1.428 . S
C545 N544 1.351 . S
C545 C546 1.434 . S
C546 C537 1.429 . S
C546 N543 1.350 . S
C546 C545 1.434 . S
C547 C548 1.369 . S
C547 C549 1.419 1_556 S
C547 H551 0.930 . S
C548 C547 1.369 . S
C548 C557 1.429 . S
C549 C547 1.419 1_554 S
C549 C550 1.363 . S
C549 H552 0.929 . S
C550 C549 1.363 . S
C550 C556 1.428 . S
H551 C547 0.930 . S
H552 C549 0.929 . S
S553 N554 1.613 . S
S553 N555 1.610 1_556 S
N554 S553 1.613 . S
N554 C557 1.350 . S
N555 S553 1.610 1_554 S
N555 C556 1.351 . S
C556 C550 1.428 . S
C556 N555 1.351 . S
C556 C557 1.434 1_554 S
C557 C548 1.429 . S
C557 N554 1.350 . S
C557 C556 1.434 1_556 S
C558 C559 1.369 . S
C558 C560 1.419 . S
C558 H562 0.930 . S
C559 C558 1.369 . S
C559 C568 1.429 . S
C560 C558 1.419 . S
C560 C561 1.363 . S
C560 H563 0.929 . S
C561 C560 1.363 . S
C561 C567 1.428 . S
H562 C558 0.930 . S
H563 C560 0.929 . S
S564 N565 1.613 . S
S564 N566 1.610 . S
N565 S564 1.613 . S
N565 C568 1.350 . S
N566 S564 1.610 . S
N566 C567 1.351 . S
C567 C561 1.428 . S
C567 N566 1.351 . S
C567 C568 1.434 . S
C568 C559 1.429 . S
C568 N565 1.350 . S
C568 C567 1.434 . S
C569 C570 1.369 . S
C569 C571 1.419 . S
C569 H573 0.930 . S
C570 C569 1.369 . S
C570 C579 1.429 . S
C571 C569 1.419 . S
C571 C572 1.363 . S
C571 H574 0.929 . S
C572 C571 1.363 . S
C572 C578 1.428 . S
H573 C569 0.930 . S
H574 C571 0.929 . S
S575 N576 1.613 . S
S575 N577 1.610 . S
N576 S575 1.613 . S
N576 C579 1.350 . S
N577 S575 1.610 . S
N577 C578 1.351 . S
C578 C572 1.428 . S
C578 N577 1.351 . S
C578 C579 1.434 . S
C579 C570 1.429 . S
C579 N576 1.350 . S
C579 C578 1.434 . S
C580 C581 1.369 . S
C580 C582 1.419 . S
C580 H584 0.930 . S
C581 C580 1.369 . S
C581 C590 1.429 . S
C582 C580 1.419 . S
C582 C583 1.363 . S
C582 H585 0.929 . S
C583 C582 1.363 . S
C583 C589 1.428 . S
H584 C580 0.930 . S
H585 C582 0.929 . S
S586 N587 1.613 . S
S586 N588 1.610 . S
N587 S586 1.613 . S
N587 C590 1.350 . S
N588 S586 1.610 . S
N588 C589 1.351 . S
C589 C583 1.428 . S
C589 N588 1.351 . S
C589 C590 1.434 . S
C590 C581 1.429 . S
C590 N587 1.350 . S
C590 C589 1.434 . S
C591 C592 1.369 . S
C591 C593 1.419 1_554 S
C591 H595 0.930 . S
C592 C591 1.369 . S
C592 C601 1.429 . S
C593 C591 1.419 1_556 S
C593 C594 1.363 . S
C593 H596 0.929 . S
C594 C593 1.363 . S
C594 C600 1.428 . S
H595 C591 0.930 . S
H596 C593 0.929 . S
S597 N598 1.613 . S
S597 N599 1.610 1_554 S
N598 S597 1.613 . S
N598 C601 1.350 . S
N599 S597 1.610 1_556 S
N599 C600 1.351 . S
C600 C594 1.428 . S
C600 N599 1.351 . S
C600 C601 1.434 1_556 S
C601 C592 1.429 . S
C601 N598 1.350 . S
C601 C600 1.434 1_554 S
C602 C603 1.369 . S
C602 C604 1.419 . S
C602 H606 0.930 . S
C603 C602 1.369 . S
C603 C612 1.429 . S
C604 C602 1.419 . S
C604 C605 1.363 . S
C604 H607 0.929 . S
C605 C604 1.363 . S
C605 C611 1.428 . S
H606 C602 0.930 . S
H607 C604 0.929 . S
S608 N609 1.613 . S
S608 N610 1.610 . S
N609 S608 1.613 . S
N609 C612 1.350 . S
N610 S608 1.610 . S
N610 C611 1.351 . S
C611 C605 1.428 . S
C611 N610 1.351 . S
C611 C612 1.434 . S
C612 C603 1.429 . S
C612 N609 1.350 . S
C612 C611 1.434 . S
C613 C614 1.369 . S
C613 C615 1.419 . S
C613 H617 0.930 . S
C614 C613 1.369 . S
C614 C623 1.429 . S
C615 C613 1.419 . S
C615 C616 1.363 . S
C615 H618 0.929 . S
C616 C615 1.363 . S
C616 C622 1.428 . S
H617 C613 0.930 . S
H618 C615 0.929 . S
S619 N620 1.613 . S
S619 N621 1.610 . S
N620 S619 1.613 . S
N620 C623 1.350 . S
N621 S619 1.610 . S
N621 C622 1.351 . S
C622 C616 1.428 . S
C622 N621 1.351 . S
C622 C623 1.434 . S
C623 C614 1.429 . S
C623 N620 1.350 . S
C623 C622 1.434 . S
C624 C625 1.369 . S
C624 C626 1.419 . S
C624 H628 0.930 . S
C625 C624 1.369 . S
C625 C634 1.429 . S
C626 C624 1.419 . S
C626 C627 1.363 . S
C626 H629 0.929 . S
C627 C626 1.363 . S
C627 C633 1.428 . S
H628 C624 0.930 . S
H629 C626 0.929 . S
S630 N631 1.613 . S
S630 N632 1.610 . S
N631 S630 1.613 . S
N631 C634 1.350 . S
N632 S630 1.610 . S
N632 C633 1.351 . S
C633 C627 1.428 . S
C633 N632 1.351 . S
C633 C634 1.434 . S
C634 C625 1.429 . S
C634 N631 1.350 . S
C634 C633 1.434 . S
C635 C636 1.370 . S
C635 C637 1.418 1_655 S
C635 H639 0.931 . S
C636 C635 1.370 . S
C636 C645 1.429 1_655 S
C637 C635 1.418 1_455 S
C637 C638 1.363 . S
C637 H640 0.929 . S
C638 C637 1.363 . S
C638 C644 1.428 . S
H639 C635 0.931 . S
H640 C637 0.929 . S
S641 N642 1.613 1_455 S
S641 N643 1.610 . S
N642 S641 1.613 1_655 S
N642 C645 1.350 1_655 S
N643 S641 1.610 . S
N643 C644 1.351 . S
C644 C638 1.428 . S
C644 N643 1.351 . S
C644 C645 1.434 . S
C645 C636 1.429 1_455 S
C645 N642 1.350 1_455 S
C645 C644 1.434 . S
C646 C647 1.369 . S
C646 C648 1.419 . S
C646 H650 0.930 . S
C647 C646 1.369 . S
C647 C656 1.429 . S
C648 C646 1.419 . S
C648 C649 1.363 . S
C648 H651 0.929 . S
C649 C648 1.363 . S
C649 C655 1.428 . S
H650 C646 0.930 . S
H651 C648 0.929 . S
S652 N653 1.613 . S
S652 N654 1.610 . S
N653 S652 1.613 . S
N653 C656 1.350 . S
N654 S652 1.610 . S
N654 C655 1.351 . S
C655 C649 1.428 . S
C655 N654 1.351 . S
C655 C656 1.434 . S
C656 C647 1.429 . S
C656 N653 1.350 . S
C656 C655 1.434 . S
C657 C658 1.369 . S
C657 C659 1.419 . S
C657 H661 0.930 . S
C658 C657 1.369 . S
C658 C667 1.429 . S
C659 C657 1.419 . S
C659 C660 1.363 . S
C659 H662 0.929 . S
C660 C659 1.363 . S
C660 C666 1.428 . S
H661 C657 0.930 . S
H662 C659 0.929 . S
S663 N664 1.613 . S
S663 N665 1.610 . S
N664 S663 1.613 . S
N664 C667 1.350 . S
N665 S663 1.610 . S
N665 C666 1.351 . S
C666 C660 1.428 . S
C666 N665 1.351 . S
C666 C667 1.434 . S
C667 C658 1.429 . S
C667 N664 1.350 . S
C667 C666 1.434 . S
C668 C669 1.369 . S
C668 C670 1.419 . S
C668 H672 0.930 . S
C669 C668 1.369 . S
C669 C678 1.429 . S
C670 C668 1.419 . S
C670 C671 1.363 . S
C670 H673 0.929 . S
C671 C670 1.363 . S
C671 C677 1.428 . S
H672 C668 0.930 . S
H673 C670 0.929 . S
S674 N675 1.613 . S
S674 N676 1.610 . S
N675 S674 1.613 . S
N675 C678 1.350 . S
N676 S674 1.610 . S
N676 C677 1.351 . S
C677 C671 1.428 . S
C677 N676 1.351 . S
C677 C678 1.434 . S
C678 C669 1.429 . S
C678 N675 1.350 . S
C678 C677 1.434 . S
C679 C680 1.369 . S
C679 C681 1.419 . S
C679 H683 0.930 . S
C680 C679 1.369 . S
C680 C689 1.429 . S
C681 C679 1.419 . S
C681 C682 1.363 . S
C681 H684 0.929 . S
C682 C681 1.363 . S
C682 C688 1.428 . S
H683 C679 0.930 . S
H684 C681 0.929 . S
S685 N686 1.613 . S
S685 N687 1.610 . S
N686 S685 1.613 . S
N686 C689 1.350 . S
N687 S685 1.610 . S
N687 C688 1.351 . S
C688 C682 1.428 . S
C688 N687 1.351 . S
C688 C689 1.434 . S
C689 C680 1.429 . S
C689 N686 1.350 . S
C689 C688 1.434 . S
C690 C691 1.369 . S
C690 C692 1.419 . S
C690 H694 0.930 . S
C691 C690 1.369 . S
C691 C700 1.429 . S
C692 C690 1.419 . S
C692 C693 1.363 . S
C692 H695 0.929 . S
C693 C692 1.363 . S
C693 C699 1.428 . S
H694 C690 0.930 . S
H695 C692 0.929 . S
S696 N697 1.613 . S
S696 N698 1.610 . S
N697 S696 1.613 . S
N697 C700 1.350 . S
N698 S696 1.610 . S
N698 C699 1.351 . S
C699 C693 1.428 . S
C699 N698 1.351 . S
C699 C700 1.434 . S
C700 C691 1.429 . S
C700 N697 1.350 . S
C700 C699 1.434 . S
C701 C702 1.369 . S
C701 C703 1.407 1_455 S
C701 H705 0.930 . S
C702 C701 1.369 . S
C702 C711 1.429 . S
C703 C701 1.407 1_655 S
C703 C704 1.369 . S
C703 H706 0.936 . S
C704 C703 1.369 . S
C704 C710 1.428 1_655 S
H705 C701 0.930 . S
H706 C703 0.936 . S
S707 N708 1.613 . S
S707 N709 1.610 1_455 S
N708 S707 1.613 . S
N708 C711 1.350 . S
N709 S707 1.610 1_655 S
N709 C710 1.351 1_655 S
C710 C704 1.428 1_455 S
C710 N709 1.351 1_455 S
C710 C711 1.434 . S
C711 C702 1.429 . S
C711 N708 1.350 . S
C711 C710 1.434 . S
C712 C713 1.369 . S
C712 C714 1.419 . S
C712 H716 0.930 . S
C713 C712 1.369 . S
C713 C722 1.429 . S
C714 C712 1.419 . S
C714 C715 1.363 . S
C714 H717 0.929 . S
C715 C714 1.363 . S
C715 C721 1.428 . S
H716 C712 0.930 . S
H717 C714 0.929 . S
S718 N719 1.613 . S
S718 N720 1.610 . S
N719 S718 1.613 . S
N719 C722 1.350 . S
N720 S718 1.610 . S
N720 C721 1.351 . S
C721 C715 1.428 . S
C721 N720 1.351 . S
C721 C722 1.434 . S
C722 C713 1.429 . S
C722 N719 1.350 . S
C722 C721 1.434 . S
C723 C724 1.369 . S
C723 C725 1.419 . S
C723 H727 0.930 . S
C724 C723 1.369 . S
C724 C733 1.429 . S
C725 C723 1.419 . S
C725 C726 1.363 1_655 S
C725 H728 0.929 1_655 S
C726 C725 1.363 1_455 S
C726 C732 1.428 . S
H727 C723 0.930 . S
H728 C725 0.929 1_455 S
S729 N730 1.613 . S
S729 N731 1.610 1_655 S
N730 S729 1.613 . S
N730 C733 1.350 . S
N731 S729 1.610 1_455 S
N731 C732 1.351 . S
C732 C726 1.428 . S
C732 N731 1.351 . S
C732 C733 1.434 1_455 S
C733 C724 1.429 . S
C733 N730 1.350 . S
C733 C732 1.434 1_655 S
C734 C735 1.369 . S
C734 C736 1.419 . S
C734 H738 0.930 . S
C735 C734 1.369 . S
C735 C744 1.429 . S
C736 C734 1.419 . S
C736 C737 1.363 . S
C736 H739 0.929 . S
C737 C736 1.363 . S
C737 C743 1.428 . S
H738 C734 0.930 . S
H739 C736 0.929 . S
S740 N741 1.613 . S
S740 N742 1.610 . S
N741 S740 1.613 . S
N741 C744 1.350 . S
N742 S740 1.610 . S
N742 C743 1.351 . S
C743 C737 1.428 . S
C743 N742 1.351 . S
C743 C744 1.434 . S
C744 C735 1.429 . S
C744 N741 1.350 . S
C744 C743 1.434 . S
C745 C746 1.369 . S
C745 C747 1.419 . S
C745 H749 0.930 . S
C746 C745 1.369 . S
C746 C755 1.429 . S
C747 C745 1.419 . S
C747 C748 1.363 . S
C747 H750 0.929 . S
C748 C747 1.363 . S
C748 C754 1.428 . S
H749 C745 0.930 . S
H750 C747 0.929 . S
S751 N752 1.613 . S
S751 N753 1.610 . S
N752 S751 1.613 . S
N752 C755 1.350 . S
N753 S751 1.610 . S
N753 C754 1.351 . S
C754 C748 1.428 . S
C754 N753 1.351 . S
C754 C755 1.434 . S
C755 C746 1.429 . S
C755 N752 1.350 . S
C755 C754 1.434 . S
C756 C757 1.369 . S
C756 C758 1.419 . S
C756 H760 0.930 . S
C757 C756 1.369 . S
C757 C766 1.429 . S
C758 C756 1.419 . S
C758 C759 1.363 . S
C758 H761 0.929 . S
C759 C758 1.363 . S
C759 C765 1.428 . S
H760 C756 0.930 . S
H761 C758 0.929 . S
S762 N763 1.613 . S
S762 N764 1.610 . S
N763 S762 1.613 . S
N763 C766 1.350 . S
N764 S762 1.610 . S
N764 C765 1.351 . S
C765 C759 1.428 . S
C765 N764 1.351 . S
C765 C766 1.434 . S
C766 C757 1.429 . S
C766 N763 1.350 . S
C766 C765 1.434 . S
C767 C768 1.369 . S
C767 C769 1.419 . S
C767 H771 0.930 . S
C768 C767 1.369 . S
C768 C777 1.429 . S
C769 C767 1.419 . S
C769 C770 1.363 . S
C769 H772 0.929 . S
C770 C769 1.363 . S
C770 C776 1.428 . S
H771 C767 0.930 . S
H772 C769 0.929 . S
S773 N774 1.613 . S
S773 N775 1.610 . S
N774 S773 1.613 . S
N774 C777 1.350 . S
N775 S773 1.610 . S
N775 C776 1.351 . S
C776 C770 1.428 . S
C776 N775 1.351 . S
C776 C777 1.434 . S
C777 C768 1.429 . S
C777 N774 1.350 . S
C777 C776 1.434 . S
C778 C779 1.369 . S
C778 C780 1.419 . S
C778 H782 0.930 . S
C779 C778 1.369 . S
C779 C788 1.429 . S
C780 C778 1.419 . S
C780 C781 1.363 . S
C780 H783 0.929 . S
C781 C780 1.363 . S
C781 C787 1.428 . S
H782 C778 0.930 . S
H783 C780 0.929 . S
S784 N785 1.613 . S
S784 N786 1.610 . S
N785 S784 1.613 . S
N785 C788 1.350 . S
N786 S784 1.610 . S
N786 C787 1.351 . S
C787 C781 1.428 . S
C787 N786 1.351 . S
C787 C788 1.434 . S
C788 C779 1.429 . S
C788 N785 1.350 . S
C788 C787 1.434 . S
C789 C790 1.369 . S
C789 C791 1.419 . S
C789 H793 0.930 . S
C790 C789 1.369 . S
C790 C799 1.429 . S
C791 C789 1.419 . S
C791 C792 1.363 1_655 S
C791 H794 0.929 1_655 S
C792 C791 1.363 1_455 S
C792 C798 1.428 1_455 S
H793 C789 0.930 . S
H794 C791 0.929 1_455 S
S795 N796 1.613 . S
S795 N797 1.610 1_655 S
N796 S795 1.613 . S
N796 C799 1.350 . S
N797 S795 1.610 1_455 S
N797 C798 1.351 1_455 S
C798 C792 1.428 1_655 S
C798 N797 1.351 1_655 S
C798 C799 1.434 . S
C799 C790 1.429 . S
C799 N796 1.350 . S
C799 C798 1.434 . S
C800 C801 1.369 . S
C800 C802 1.419 . S
C800 H804 0.930 . S
C801 C800 1.369 . S
C801 C810 1.429 . S
C802 C800 1.419 . S
C802 C803 1.363 . S
C802 H805 0.929 . S
C803 C802 1.363 . S
C803 C809 1.428 . S
H804 C800 0.930 . S
H805 C802 0.929 . S
S806 N807 1.613 1_554 S
S806 N808 1.610 1_554 S
N807 S806 1.613 1_556 S
N807 C810 1.350 . S
N808 S806 1.610 1_556 S
N808 C809 1.351 . S
C809 C803 1.428 . S
C809 N808 1.351 . S
C809 C810 1.434 . S
C810 C801 1.429 . S
C810 N807 1.350 . S
C810 C809 1.434 . S
C811 C812 1.369 . S
C811 C813 1.419 . S
C811 H815 0.930 . S
C812 C811 1.369 . S
C812 C821 1.429 . S
C813 C811 1.419 . S
C813 C814 1.363 . S
C813 H816 0.929 . S
C814 C813 1.363 . S
C814 C820 1.428 . S
H815 C811 0.930 . S
H816 C813 0.929 . S
S817 N818 1.613 . S
S817 N819 1.610 . S
N818 S817 1.613 . S
N818 C821 1.350 . S
N819 S817 1.610 . S
N819 C820 1.351 . S
C820 C814 1.428 . S
C820 N819 1.351 . S
C820 C821 1.434 . S
C821 C812 1.429 . S
C821 N818 1.350 . S
C821 C820 1.434 . S
C822 C823 1.369 . S
C822 C824 1.419 . S
C822 H826 0.930 . S
C823 C822 1.369 . S
C823 C832 1.429 . S
C824 C822 1.419 . S
C824 C825 1.363 . S
C824 H827 0.929 . S
C825 C824 1.363 . S
C825 C831 1.428 . S
H826 C822 0.930 . S
H827 C824 0.929 . S
S828 N829 1.613 . S
S828 N830 1.610 . S
N829 S828 1.613 . S
N829 C832 1.350 . S
N830 S828 1.610 . S
N830 C831 1.351 . S
C831 C825 1.428 . S
C831 N830 1.351 . S
C831 C832 1.434 . S
C832 C823 1.429 . S
C832 N829 1.350 . S
C832 C831 1.434 . S
C833 C834 1.369 . S
C833 C835 1.419 . S
C833 H837 0.930 . S
C834 C833 1.369 . S
C834 C843 1.429 . S
C835 C833 1.419 . S
C835 C836 1.363 1_655 S
C835 H838 0.929 1_655 S
C836 C835 1.363 1_455 S
C836 C842 1.441 . S
H837 C833 0.930 . S
H838 C835 0.929 1_455 S
S839 N840 1.613 . S
S839 N841 1.610 1_655 S
N840 S839 1.613 . S
N840 C843 1.350 . S
N841 S839 1.610 1_455 S
N841 C842 1.365 . S
C842 C836 1.441 . S
C842 N841 1.365 . S
C842 C843 1.405 1_455 S
C843 C834 1.429 . S
C843 N840 1.350 . S
C843 C842 1.405 1_655 S
C844 C845 1.369 . S
C844 C846 1.419 . S
C844 H848 0.930 . S
C845 C844 1.369 . S
C845 C854 1.429 . S
C846 C844 1.419 . S
C846 C847 1.363 . S
C846 H849 0.929 . S
C847 C846 1.363 . S
C847 C853 1.428 . S
H848 C844 0.930 . S
H849 C846 0.929 . S
S850 N851 1.613 . S
S850 N852 1.610 . S
N851 S850 1.613 . S
N851 C854 1.350 . S
N852 S850 1.610 . S
N852 C853 1.351 . S
C853 C847 1.428 . S
C853 N852 1.351 . S
C853 C854 1.434 . S
C854 C845 1.429 . S
C854 N851 1.350 . S
C854 C853 1.434 . S
C855 C856 1.369 1_655 S
C855 C857 1.419 . S
C855 H859 0.930 1_655 S
C856 C855 1.369 1_455 S
C856 C865 1.429 . S
C857 C855 1.419 . S
C857 C858 1.363 . S
C857 H860 0.929 . S
C858 C857 1.363 . S
C858 C864 1.428 . S
H859 C855 0.930 1_455 S
H860 C857 0.929 . S
S861 N862 1.613 1_655 S
S861 N863 1.610 . S
N862 S861 1.613 1_455 S
N862 C865 1.350 . S
N863 S861 1.610 . S
N863 C864 1.351 . S
C864 C858 1.428 . S
C864 N863 1.351 . S
C864 C865 1.434 1_655 S
C865 C856 1.429 . S
C865 N862 1.350 . S
C865 C864 1.434 1_455 S
C866 C867 1.369 . S
C866 C868 1.419 . S
C866 H870 0.930 . S
C867 C866 1.369 . S
C867 C876 1.429 . S
C868 C866 1.419 . S
C868 C869 1.363 . S
C868 H871 0.929 . S
C869 C868 1.363 . S
C869 C875 1.428 . S
H870 C866 0.930 . S
H871 C868 0.929 . S
S872 N873 1.613 . S
S872 N874 1.610 . S
N873 S872 1.613 . S
N873 C876 1.350 . S
N874 S872 1.610 . S
N874 C875 1.351 . S
C875 C869 1.428 . S
C875 N874 1.351 . S
C875 C876 1.434 . S
C876 C867 1.429 . S
C876 N873 1.350 . S
C876 C875 1.434 . S
C877 C878 1.369 . S
C877 C879 1.419 . S
C877 H881 0.930 . S
C878 C877 1.369 . S
C878 C887 1.429 . S
C879 C877 1.419 . S
C879 C880 1.363 . S
C879 H882 0.929 . S
C880 C879 1.363 . S
C880 C886 1.428 . S
H881 C877 0.930 . S
H882 C879 0.929 . S
S883 N884 1.613 . S
S883 N885 1.610 . S
N884 S883 1.613 . S
N884 C887 1.350 . S
N885 S883 1.610 . S
N885 C886 1.351 . S
C886 C880 1.428 . S
C886 N885 1.351 . S
C886 C887 1.434 . S
C887 C878 1.429 . S
C887 N884 1.350 . S
C887 C886 1.434 . S
C888 C889 1.369 . S
C888 C890 1.419 . S
C888 H892 0.930 . S
C889 C888 1.369 . S
C889 C898 1.429 . S
C890 C888 1.419 . S
C890 C891 1.363 . S
C890 H893 0.929 . S
C891 C890 1.363 . S
C891 C897 1.428 . S
H892 C888 0.930 . S
H893 C890 0.929 . S
S894 N895 1.613 1_556 S
S894 N896 1.610 1_556 S
N895 S894 1.613 1_554 S
N895 C898 1.350 . S
N896 S894 1.610 1_554 S
N896 C897 1.351 . S
C897 C891 1.428 . S
C897 N896 1.351 . S
C897 C898 1.434 . S
C898 C889 1.429 . S
C898 N895 1.350 . S
C898 C897 1.434 . S
C899 C900 1.369 . S
C899 C901 1.419 . S
C899 H903 0.930 . S
C900 C899 1.369 . S
C900 C909 1.429 . S
C901 C899 1.419 . S
C901 C902 1.363 . S
C901 H904 0.929 . S
C902 C901 1.363 . S
C902 C908 1.428 . S
H903 C899 0.930 . S
H904 C901 0.929 . S
S905 N906 1.613 . S
S905 N907 1.610 . S
N906 S905 1.613 . S
N906 C909 1.350 . S
N907 S905 1.610 . S
N907 C908 1.351 . S
C908 C902 1.428 . S
C908 N907 1.351 . S
C908 C909 1.434 . S
C909 C900 1.429 . S
C909 N906 1.350 . S
C909 C908 1.434 . S
C910 C911 1.369 . S
C910 C912 1.419 . S
C910 H914 0.930 . S
C911 C910 1.369 . S
C911 C920 1.429 . S
C912 C910 1.419 . S
C912 C913 1.363 . S
C912 H915 0.929 . S
C913 C912 1.363 . S
C913 C919 1.428 . S
H914 C910 0.930 . S
H915 C912 0.929 . S
S916 N917 1.613 . S
S916 N918 1.610 . S
N917 S916 1.613 . S
N917 C920 1.350 . S
N918 S916 1.610 . S
N918 C919 1.351 . S
C919 C913 1.428 . S
C919 N918 1.351 . S
C919 C920 1.434 . S
C920 C911 1.429 . S
C920 N917 1.350 . S
C920 C919 1.434 . S
C921 C922 1.369 . S
C921 C923 1.420 . S
C921 H925 0.930 . S
C922 C921 1.369 . S
C922 C931 1.429 . S
C923 C921 1.420 . S
C923 C924 1.362 1_455 S
C923 H926 0.928 1_455 S
C924 C923 1.362 1_655 S
C924 C930 1.428 1_655 S
H925 C921 0.930 . S
H926 C923 0.928 1_655 S
S927 N928 1.613 . S
S927 N929 1.610 1_455 S
N928 S927 1.613 . S
N928 C931 1.350 . S
N929 S927 1.610 1_655 S
N929 C930 1.351 1_655 S
C930 C924 1.428 1_455 S
C930 N929 1.351 1_455 S
C930 C931 1.434 . S
C931 C922 1.429 . S
C931 N928 1.350 . S
C931 C930 1.434 . S
C932 C933 1.369 . S
C932 C934 1.419 . S
C932 H936 0.930 . S
C933 C932 1.369 . S
C933 C942 1.429 . S
C934 C932 1.419 . S
C934 C935 1.363 . S
C934 H937 0.929 . S
C935 C934 1.363 . S
C935 C941 1.428 . S
H936 C932 0.930 . S
H937 C934 0.929 . S
S938 N939 1.613 . S
S938 N940 1.610 . S
N939 S938 1.613 . S
N939 C942 1.350 . S
N940 S938 1.610 . S
N940 C941 1.351 . S
C941 C935 1.428 . S
C941 N940 1.351 . S
C941 C942 1.434 . S
C942 C933 1.429 . S
C942 N939 1.350 . S
C942 C941 1.434 . S
C943 C944 1.369 1_455 S
C943 C945 1.419 . S
C943 H947 0.930 1_455 S
C944 C943 1.369 1_655 S
C944 C953 1.429 . S
C945 C943 1.419 . S
C945 C946 1.363 . S
C945 H948 0.929 . S
C946 C945 1.363 . S
C946 C952 1.428 . S
H947 C943 0.930 1_655 S
H948 C945 0.929 . S
S949 N950 1.613 1_455 S
S949 N951 1.610 . S
N950 S949 1.613 1_655 S
N950 C953 1.350 . S
N951 S949 1.610 . S
N951 C952 1.351 . S
C952 C946 1.428 . S
C952 N951 1.351 . S
C952 C953 1.434 1_455 S
C953 C944 1.429 . S
C953 N950 1.350 . S
C953 C952 1.434 1_655 S
C954 C955 1.369 . S
C954 C956 1.419 . S
C954 H958 0.930 . S
C955 C954 1.369 . S
C955 C964 1.429 . S
C956 C954 1.419 . S
C956 C957 1.363 . S
C956 H959 0.929 . S
C957 C956 1.363 . S
C957 C963 1.428 . S
H958 C954 0.930 . S
H959 C956 0.929 . S
S960 N961 1.613 . S
S960 N962 1.610 . S
N961 S960 1.613 . S
N961 C964 1.350 . S
N962 S960 1.610 . S
N962 C963 1.351 . S
C963 C957 1.428 . S
C963 N962 1.351 . S
C963 C964 1.434 . S
C964 C955 1.429 . S
C964 N961 1.350 . S
C964 C963 1.434 . S
C965 C966 1.369 . S
C965 C967 1.419 . S
C965 H969 0.930 . S
C966 C965 1.369 . S
C966 C975 1.429 . S
C967 C965 1.419 . S
C967 C968 1.363 . S
C967 H970 0.929 . S
C968 C967 1.363 . S
C968 C974 1.428 . S
H969 C965 0.930 . S
H970 C967 0.929 . S
S971 N972 1.613 . S
S971 N973 1.610 . S
N972 S971 1.613 . S
N972 C975 1.350 . S
N973 S971 1.610 . S
N973 C974 1.351 . S
C974 C968 1.428 . S
C974 N973 1.351 . S
C974 C975 1.434 . S
C975 C966 1.429 . S
C975 N972 1.350 . S
C975 C974 1.434 . S
C976 C977 1.369 . S
C976 C978 1.419 . S
C976 H980 0.930 . S
C977 C976 1.369 . S
C977 C986 1.429 . S
C978 C976 1.419 . S
C978 C979 1.363 . S
C978 H981 0.929 . S
C979 C978 1.363 . S
C979 C985 1.428 . S
H980 C976 0.930 . S
H981 C978 0.929 . S
S982 N983 1.613 . S
S982 N984 1.610 . S
N983 S982 1.613 . S
N983 C986 1.350 . S
N984 S982 1.610 . S
N984 C985 1.351 . S
C985 C979 1.428 . S
C985 N984 1.351 . S
C985 C986 1.434 . S
C986 C977 1.429 . S
C986 N983 1.350 . S
C986 C985 1.434 . S
C987 C988 1.369 . S
C987 C989 1.419 . S
C987 H991 0.930 . S
C988 C987 1.369 . S
C988 C997 1.429 . S
C989 C987 1.419 . S
C989 C990 1.363 . S
C989 H992 0.929 . S
C990 C989 1.363 . S
C990 C996 1.428 . S
H991 C987 0.930 . S
H992 C989 0.929 . S
S993 N994 1.613 . S
S993 N995 1.610 . S
N994 S993 1.613 . S
N994 C997 1.350 . S
N995 S993 1.610 . S
N995 C996 1.351 . S
C996 C990 1.428 . S
C996 N995 1.351 . S
C996 C997 1.434 . S
C997 C988 1.429 . S
C997 N994 1.350 . S
C997 C996 1.434 . S
C998 C999 1.369 . S
C998 C1000 1.419 . S
C998 H1002 0.930 . S
C999 C998 1.369 . S
C999 C1008 1.429 . S
C1000 C998 1.419 . S
C1000 C1001 1.363 . S
C1000 H1003 0.929 . S
C1001 C1000 1.363 . S
C1001 C1007 1.428 . S
H1002 C998 0.930 . S
H1003 C1000 0.929 . S
S1004 N1005 1.613 . S
S1004 N1006 1.610 . S
N1005 S1004 1.613 . S
N1005 C1008 1.350 . S
N1006 S1004 1.610 . S
N1006 C1007 1.351 . S
C1007 C1001 1.428 . S
C1007 N1006 1.351 . S
C1007 C1008 1.434 . S
C1008 C999 1.429 . S
C1008 N1005 1.350 . S
C1008 C1007 1.434 . S
C1009 C1010 1.369 . S
C1009 C1011 1.419 . S
C1009 H1013 0.930 . S
C1010 C1009 1.369 . S
C1010 C1019 1.429 . S
C1011 C1009 1.419 . S
C1011 C1012 1.363 . S
C1011 H1014 0.929 . S
C1012 C1011 1.363 . S
C1012 C1018 1.428 . S
H1013 C1009 0.930 . S
H1014 C1011 0.929 . S
S1015 N1016 1.613 . S
S1015 N1017 1.610 . S
N1016 S1015 1.613 . S
N1016 C1019 1.350 . S
N1017 S1015 1.610 . S
N1017 C1018 1.351 . S
C1018 C1012 1.428 . S
C1018 N1017 1.351 . S
C1018 C1019 1.434 . S
C1019 C1010 1.429 . S
C1019 N1016 1.350 . S
C1019 C1018 1.434 . S
C1020 C1021 1.369 . S
C1020 C1022 1.419 . S
C1020 H1024 0.930 . S
C1021 C1020 1.369 . S
C1021 C1030 1.429 . S
C1022 C1020 1.419 . S
C1022 C1023 1.363 . S
C1022 H1025 0.929 . S
C1023 C1022 1.363 . S
C1023 C1029 1.428 . S
H1024 C1020 0.930 . S
H1025 C1022 0.929 . S
S1026 N1027 1.613 . S
S1026 N1028 1.610 . S
N1027 S1026 1.613 . S
N1027 C1030 1.350 . S
N1028 S1026 1.610 . S
N1028 C1029 1.351 . S
C1029 C1023 1.428 . S
C1029 N1028 1.351 . S
C1029 C1030 1.434 . S
C1030 C1021 1.429 . S
C1030 N1027 1.350 . S
C1030 C1029 1.434 . S
C1031 C1032 1.369 . S
C1031 C1033 1.419 . S
C1031 H1035 0.930 . S
C1032 C1031 1.369 . S
C1032 C1041 1.429 . S
C1033 C1031 1.419 . S
C1033 C1034 1.363 . S
C1033 H1036 0.929 . S
C1034 C1033 1.363 . S
C1034 C1040 1.428 . S
H1035 C1031 0.930 . S
H1036 C1033 0.929 . S
S1037 N1038 1.613 . S
S1037 N1039 1.610 . S
N1038 S1037 1.613 . S
N1038 C1041 1.350 . S
N1039 S1037 1.610 . S
N1039 C1040 1.351 . S
C1040 C1034 1.428 . S
C1040 N1039 1.351 . S
C1040 C1041 1.434 . S
C1041 C1032 1.429 . S
C1041 N1038 1.350 . S
C1041 C1040 1.434 . S
C1042 C1043 1.369 . S
C1042 C1044 1.419 . S
C1042 H1046 0.930 . S
C1043 C1042 1.369 . S
C1043 C1052 1.429 . S
C1044 C1042 1.419 . S
C1044 C1045 1.363 . S
C1044 H1047 0.929 . S
C1045 C1044 1.363 . S
C1045 C1051 1.428 . S
H1046 C1042 0.930 . S
H1047 C1044 0.929 . S
S1048 N1049 1.613 . S
S1048 N1050 1.610 . S
N1049 S1048 1.613 . S
N1049 C1052 1.350 . S
N1050 S1048 1.610 . S
N1050 C1051 1.351 . S
C1051 C1045 1.428 . S
C1051 N1050 1.351 . S
C1051 C1052 1.434 . S
C1052 C1043 1.429 . S
C1052 N1049 1.350 . S
C1052 C1051 1.434 . S
C1053 C1054 1.369 . S
C1053 C1055 1.419 . S
C1053 H1057 0.930 . S
C1054 C1053 1.369 . S
C1054 C1063 1.429 . S
C1055 C1053 1.419 . S
C1055 C1056 1.363 . S
C1055 H1058 0.929 . S
C1056 C1055 1.363 . S
C1056 C1062 1.428 . S
H1057 C1053 0.930 . S
H1058 C1055 0.929 . S
S1059 N1060 1.613 . S
S1059 N1061 1.610 . S
N1060 S1059 1.613 . S
N1060 C1063 1.350 . S
N1061 S1059 1.610 . S
N1061 C1062 1.351 . S
C1062 C1056 1.428 . S
C1062 N1061 1.351 . S
C1062 C1063 1.434 . S
C1063 C1054 1.429 . S
C1063 N1060 1.350 . S
C1063 C1062 1.434 . S
C1064 C1065 1.369 . S
C1064 C1066 1.419 . S
C1064 H1068 0.930 . S
C1065 C1064 1.369 . S
C1065 C1074 1.429 . S
C1066 C1064 1.419 . S
C1066 C1067 1.363 . S
C1066 H1069 0.929 . S
C1067 C1066 1.363 . S
C1067 C1073 1.428 . S
H1068 C1064 0.930 . S
H1069 C1066 0.929 . S
S1070 N1071 1.613 . S
S1070 N1072 1.610 . S
N1071 S1070 1.613 . S
N1071 C1074 1.350 . S
N1072 S1070 1.610 . S
N1072 C1073 1.351 . S
C1073 C1067 1.428 . S
C1073 N1072 1.351 . S
C1073 C1074 1.434 . S
C1074 C1065 1.429 . S
C1074 N1071 1.350 . S
C1074 C1073 1.434 . S
C1075 C1076 1.369 . S
C1075 C1077 1.419 . S
C1075 H1079 0.930 . S
C1076 C1075 1.369 . S
C1076 C1085 1.429 . S
C1077 C1075 1.419 . S
C1077 C1078 1.363 . S
C1077 H1080 0.929 . S
C1078 C1077 1.363 . S
C1078 C1084 1.428 . S
H1079 C1075 0.930 . S
H1080 C1077 0.929 . S
S1081 N1082 1.613 . S
S1081 N1083 1.610 . S
N1082 S1081 1.613 . S
N1082 C1085 1.350 . S
N1083 S1081 1.610 . S
N1083 C1084 1.351 . S
C1084 C1078 1.428 . S
C1084 N1083 1.351 . S
C1084 C1085 1.434 . S
C1085 C1076 1.429 . S
C1085 N1082 1.350 . S
C1085 C1084 1.434 . S
C1086 C1087 1.369 . S
C1086 C1088 1.419 . S
C1086 H1090 0.930 . S
C1087 C1086 1.369 . S
C1087 C1096 1.429 . S
C1088 C1086 1.419 . S
C1088 C1089 1.363 . S
C1088 H1091 0.929 . S
C1089 C1088 1.363 . S
C1089 C1095 1.428 . S
H1090 C1086 0.930 . S
H1091 C1088 0.929 . S
S1092 N1093 1.613 . S
S1092 N1094 1.610 . S
N1093 S1092 1.613 . S
N1093 C1096 1.350 . S
N1094 S1092 1.610 . S
N1094 C1095 1.351 . S
C1095 C1089 1.428 . S
C1095 N1094 1.351 . S
C1095 C1096 1.434 . S
C1096 C1087 1.429 . S
C1096 N1093 1.350 . S
C1096 C1095 1.434 . S
C1097 C1098 1.369 . S
C1097 C1099 1.419 . S
C1097 H1101 0.930 . S
C1098 C1097 1.369 . S
C1098 C1107 1.429 . S
C1099 C1097 1.419 . S
C1099 C1100 1.363 . S
C1099 H1102 0.929 . S
C1100 C1099 1.363 . S
C1100 C1106 1.428 . S
H1101 C1097 0.930 . S
H1102 C1099 0.929 . S
S1103 N1104 1.613 . S
S1103 N1105 1.610 . S
N1104 S1103 1.613 . S
N1104 C1107 1.350 . S
N1105 S1103 1.610 . S
N1105 C1106 1.351 . S
C1106 C1100 1.428 . S
C1106 N1105 1.351 . S
C1106 C1107 1.434 . S
C1107 C1098 1.429 . S
C1107 N1104 1.350 . S
C1107 C1106 1.434 . S
C1108 C1109 1.369 . S
C1108 C1110 1.419 . S
C1108 H1112 0.930 . S
C1109 C1108 1.369 . S
C1109 C1118 1.429 . S
C1110 C1108 1.419 . S
C1110 C1111 1.363 . S
C1110 H1113 0.929 . S
C1111 C1110 1.363 . S
C1111 C1117 1.428 . S
H1112 C1108 0.930 . S
H1113 C1110 0.929 . S
S1114 N1115 1.613 . S
S1114 N1116 1.610 . S
N1115 S1114 1.613 . S
N1115 C1118 1.350 . S
N1116 S1114 1.610 . S
N1116 C1117 1.351 . S
C1117 C1111 1.428 . S
C1117 N1116 1.351 . S
C1117 C1118 1.434 . S
C1118 C1109 1.429 . S
C1118 N1115 1.350 . S
C1118 C1117 1.434 . S
C1119 C1120 1.369 . S
C1119 C1121 1.419 . S
C1119 H1123 0.930 . S
C1120 C1119 1.369 . S
C1120 C1129 1.429 . S
C1121 C1119 1.419 . S
C1121 C1122 1.363 . S
C1121 H1124 0.929 . S
C1122 C1121 1.363 . S
C1122 C1128 1.428 . S
H1123 C1119 0.930 . S
H1124 C1121 0.929 . S
S1125 N1126 1.613 . S
S1125 N1127 1.610 . S
N1126 S1125 1.613 . S
N1126 C1129 1.350 . S
N1127 S1125 1.610 . S
N1127 C1128 1.351 . S
C1128 C1122 1.428 . S
C1128 N1127 1.351 . S
C1128 C1129 1.434 . S
C1129 C1120 1.429 . S
C1129 N1126 1.350 . S
C1129 C1128 1.434 . S
C1130 C1131 1.369 . S
C1130 C1132 1.419 . S
C1130 H1134 0.930 . S
C1131 C1130 1.369 . S
C1131 C1140 1.429 . S
C1132 C1130 1.419 . S
C1132 C1133 1.363 . S
C1132 H1135 0.929 . S
C1133 C1132 1.363 . S
C1133 C1139 1.428 . S
H1134 C1130 0.930 . S
H1135 C1132 0.929 . S
S1136 N1137 1.613 . S
S1136 N1138 1.610 . S
N1137 S1136 1.613 . S
N1137 C1140 1.350 . S
N1138 S1136 1.610 . S
N1138 C1139 1.351 . S
C1139 C1133 1.428 . S
C1139 N1138 1.351 . S
C1139 C1140 1.434 . S
C1140 C1131 1.429 . S
C1140 N1137 1.350 . S
C1140 C1139 1.434 . S
C1141 C1142 1.369 . S
C1141 C1143 1.419 . S
C1141 H1145 0.930 . S
C1142 C1141 1.369 . S
C1142 C1151 1.429 . S
C1143 C1141 1.419 . S
C1143 C1144 1.363 . S
C1143 H1146 0.929 . S
C1144 C1143 1.363 . S
C1144 C1150 1.428 . S
H1145 C1141 0.930 . S
H1146 C1143 0.929 . S
S1147 N1148 1.613 . S
S1147 N1149 1.610 . S
N1148 S1147 1.613 . S
N1148 C1151 1.350 . S
N1149 S1147 1.610 . S
N1149 C1150 1.351 . S
C1150 C1144 1.428 . S
C1150 N1149 1.351 . S
C1150 C1151 1.434 . S
C1151 C1142 1.429 . S
C1151 N1148 1.350 . S
C1151 C1150 1.434 . S
C449 C6 1.518 . S
C451 C62 1.519 . S
C460 C20 1.521 . S
C462 C76 1.515 . S
C471 C90 1.523 . S
C473 C34 1.515 . S
C482 C104 1.522 . S
C484 C48 1.515 . S
C493 C118 1.518 . S
C495 C174 1.517 . S
C504 C132 1.515 . S
C506 C188 1.519 . S
C515 C202 1.523 . S
C517 C146 1.515 . S
C526 C160 1.512 . S
C528 C216 1.523 . S
C537 C286 1.524 . S
C539 C230 1.514 . S
C548 C300 1.517 . S
C550 C244 1.520 . S
C559 C258 1.516 . S
C561 C314 1.519 . S
C570 C328 1.512 . S
C572 C272 1.523 . S
C581 C342 1.524 . S
C583 C398 1.514 . S
C592 C412 1.519 . S
C594 C356 1.517 . S
C603 C426 1.515 . S
C605 C370 1.522 . S
C614 C384 1.514 . S
C616 C440 1.522 . S
C625 C9 1.598 . S
C627 C386 1.653 . S
C636 C120 1.652 . S
C638 C23 1.598 . S
C647 C37 1.599 . S
C649 C358 1.653 . S
C658 C51 1.599 . S
C660 C148 1.653 . S
C669 C414 1.654 . S
C671 C65 1.594 . S
C680 C204 1.653 . S
C682 C79 1.592 . S
C691 C93 1.591 . S
C693 C442 1.653 . S
C702 C107 1.591 . S
C704 C176 1.653 . S
C713 C274 1.652 . S
C715 C121 1.596 . S
C724 C135 1.592 . S
C726 C8 1.654 . S
C735 C246 1.652 . S
C737 C149 1.598 . S
C746 C163 1.592 . S
C748 C36 1.653 . S
C757 C302 1.653 . S
C759 C177 1.598 . S
C768 C191 1.593 . S
C770 C92 1.652 . S
C779 C330 1.652 . S
C781 C205 1.598 . S
C790 C219 1.592 . S
C792 C64 1.653 . S
C801 C162 1.652 . S
C803 C233 1.593 . S
C812 C344 1.652 . S
C814 C247 1.596 . S
C823 C134 1.654 . S
C825 C261 1.592 . S
C834 C275 1.599 . S
C836 C372 1.653 . S
C845 C190 1.654 . S
C847 C289 1.592 . S
C856 C428 1.654 . S
C858 C303 1.595 . S
C867 C218 1.653 . S
C869 C317 1.598 . S
C878 C331 1.598 . S
C880 C400 1.653 . S
C889 C345 1.593 . S
C891 C50 1.653 . S
C900 C359 1.593 . S
C902 C232 1.654 . S
C911 C373 1.599 . S
C913 C22 1.652 . S
C922 C387 1.599 . S
C924 C260 1.653 . S
C933 C401 1.599 . S
C935 C78 1.652 . S
C944 C316 1.653 . S
C946 C415 1.597 . S
C955 C106 1.653 . S
C957 C429 1.593 . S
C966 C443 1.597 . S
C968 C288 1.653 . S
C977 C7 1.234 . S
C979 C105 1.229 . S
C988 C21 1.218 . S
C990 C63 1.222 . S
C999 C35 1.232 . S
C1001 C77 1.231 . S
C1010 C91 1.218 . S
C1012 C49 1.222 . S
C1021 C217 1.219 . S
C1023 C119 1.220 . S
C1032 C175 1.231 . S
C1034 C133 1.232 . S
C1043 C189 1.233 . S
C1045 C147 1.231 . S
C1054 C203 1.223 . S
C1056 C161 1.220 . S
C1065 C231 1.232 . S
C1067 C329 1.231 . S
C1076 C287 1.234 . S
C1078 C245 1.230 . S
C1087 C301 1.223 . S
C1089 C259 1.229 . S
C1098 C315 1.230 . S
C1100 C273 1.232 . S
C1109 C441 1.218 . S
C1111 C343 1.221 . S
C1120 C357 1.220 . S
C1122 C399 1.226 . S
C1131 C371 1.232 . S
C1133 C413 1.226 . S
C1142 C385 1.221 . S
C1144 C427 1.228 . S
