# Generated by pormake.
# Topology wku, (7)-cn, num edge types: 1
# Building blocks:
#     Node 0, Type 0, BuildingBlock: OLANEW_clean_sbu_3, # of connection points: 7
#     Node 1, Type 0, BuildingBlock: OLANEW_clean_sbu_3, # of connection points: 7
#     Node 2, Type 0, BuildingBlock: OLANEW_clean_sbu_3, # of connection points: 7
#     Node 3, Type 0, BuildingBlock: OLANEW_clean_sbu_3, # of connection points: 7
#     Node 4, Type 0, BuildingBlock: OLANEW_clean_sbu_3, # of connection points: 7
#     Node 5, Type 0, BuildingBlock: OLANEW_clean_sbu_3, # of connection points: 7
#     Node 6, Type 0, BuildingBlock: OLANEW_clean_sbu_3, # of connection points: 7
#     Node 7, Type 0, BuildingBlock: OLANEW_clean_sbu_3, # of connection points: 7
#     Node 8, Type 0, BuildingBlock: OLANEW_clean_sbu_3, # of connection points: 7
#     Node 9, Type 0, BuildingBlock: OLANEW_clean_sbu_3, # of connection points: 7
#     Node 10, Type 0, BuildingBlock: OLANEW_clean_sbu_3, # of connection points: 7
#     Node 11, Type 0, BuildingBlock: OLANEW_clean_sbu_3, # of connection points: 7
#     Edge 12, Type (0, 0), BuildingBlock: CIFDUS_clean_linker_0, # of connection points: 2
#     Edge 13, Type (0, 0), BuildingBlock: CIFDUS_clean_linker_0, # of connection points: 2
#     Edge 14, Type (0, 0), BuildingBlock: CIFDUS_clean_linker_0, # of connection points: 2
#     Edge 15, Type (0, 0), BuildingBlock: CIFDUS_clean_linker_0, # of connection points: 2
#     Edge 16, Type (0, 0), BuildingBlock: CIFDUS_clean_linker_0, # of connection points: 2
#     Edge 17, Type (0, 0), BuildingBlock: CIFDUS_clean_linker_0, # of connection points: 2
#     Edge 18, Type (0, 0), BuildingBlock: CIFDUS_clean_linker_0, # of connection points: 2
#     Edge 19, Type (0, 0), BuildingBlock: CIFDUS_clean_linker_0, # of connection points: 2
#     Edge 20, Type (0, 0), BuildingBlock: CIFDUS_clean_linker_0, # of connection points: 2
#     Edge 21, Type (0, 0), BuildingBlock: CIFDUS_clean_linker_0, # of connection points: 2
#     Edge 22, Type (0, 0), BuildingBlock: CIFDUS_clean_linker_0, # of connection points: 2
#     Edge 23, Type (0, 0), BuildingBlock: CIFDUS_clean_linker_0, # of connection points: 2
#     Edge 24, Type (0, 0), BuildingBlock: CIFDUS_clean_linker_0, # of connection points: 2
#     Edge 25, Type (0, 0), BuildingBlock: CIFDUS_clean_linker_0, # of connection points: 2
#     Edge 26, Type (0, 0), BuildingBlock: CIFDUS_clean_linker_0, # of connection points: 2
#     Edge 27, Type (0, 0), BuildingBlock: CIFDUS_clean_linker_0, # of connection points: 2
#     Edge 28, Type (0, 0), BuildingBlock: CIFDUS_clean_linker_0, # of connection points: 2
#     Edge 29, Type (0, 0), BuildingBlock: CIFDUS_clean_linker_0, # of connection points: 2
#     Edge 30, Type (0, 0), BuildingBlock: CIFDUS_clean_linker_0, # of connection points: 2
#     Edge 31, Type (0, 0), BuildingBlock: CIFDUS_clean_linker_0, # of connection points: 2
#     Edge 32, Type (0, 0), BuildingBlock: CIFDUS_clean_linker_0, # of connection points: 2
#     Edge 33, Type (0, 0), BuildingBlock: CIFDUS_clean_linker_0, # of connection points: 2
#     Edge 34, Type (0, 0), BuildingBlock: CIFDUS_clean_linker_0, # of connection points: 2
#     Edge 35, Type (0, 0), BuildingBlock: CIFDUS_clean_linker_0, # of connection points: 2
#     Edge 36, Type (0, 0), BuildingBlock: CIFDUS_clean_linker_0, # of connection points: 2
#     Edge 37, Type (0, 0), BuildingBlock: CIFDUS_clean_linker_0, # of connection points: 2
#     Edge 38, Type (0, 0), BuildingBlock: CIFDUS_clean_linker_0, # of connection points: 2
#     Edge 39, Type (0, 0), BuildingBlock: CIFDUS_clean_linker_0, # of connection points: 2
#     Edge 40, Type (0, 0), BuildingBlock: CIFDUS_clean_linker_0, # of connection points: 2
#     Edge 41, Type (0, 0), BuildingBlock: CIFDUS_clean_linker_0, # of connection points: 2
#     Edge 42, Type (0, 0), BuildingBlock: CIFDUS_clean_linker_0, # of connection points: 2
#     Edge 43, Type (0, 0), BuildingBlock: CIFDUS_clean_linker_0, # of connection points: 2
#     Edge 44, Type (0, 0), BuildingBlock: CIFDUS_clean_linker_0, # of connection points: 2
#     Edge 45, Type (0, 0), BuildingBlock: CIFDUS_clean_linker_0, # of connection points: 2
#     Edge 46, Type (0, 0), BuildingBlock: CIFDUS_clean_linker_0, # of connection points: 2
#     Edge 47, Type (0, 0), BuildingBlock: CIFDUS_clean_linker_0, # of connection points: 2
#     Edge 48, Type (0, 0), BuildingBlock: CIFDUS_clean_linker_0, # of connection points: 2
#     Edge 49, Type (0, 0), BuildingBlock: CIFDUS_clean_linker_0, # of connection points: 2
#     Edge 50, Type (0, 0), BuildingBlock: CIFDUS_clean_linker_0, # of connection points: 2
#     Edge 51, Type (0, 0), BuildingBlock: CIFDUS_clean_linker_0, # of connection points: 2
#     Edge 52, Type (0, 0), BuildingBlock: CIFDUS_clean_linker_0, # of connection points: 2
#     Edge 53, Type (0, 0), BuildingBlock: CIFDUS_clean_linker_0, # of connection points: 2
# Relax obj value: 0.105
# Max RMSD: 0.199
# Mean RMSD: 0.198
data_MOF--net-wku--node1-OLANEW_clean_sbu_3--edge1-CIFDUS_clean_linker_0
_symmetry_space_group_name_H-M    P1
_symmetry_Int_Tables_number       1
_symmetry_cell_setting            triclinic
loop_
_symmetry_equiv_pos_as_xyz
'x, y, z'
_cell_length_a     28.025431
_cell_length_b     28.050999
_cell_length_c     116.46348
_cell_angle_alpha  89.998442
_cell_angle_beta   90.003329
_cell_angle_gamma 119.79195
loop_
_atom_site_label
_atom_site_type_symbol
_atom_site_fract_x
_atom_site_fract_y
_atom_site_fract_z
_atom_type_partial_charge
C0 C 0.25929 0.35517 0.04579 0.0
C1 C 0.21023 0.31183 0.04148 0.0
C2 C 0.21344 0.27237 0.03443 0.0
C3 C 0.2648 0.27654 0.03193 0.0
C4 C 0.31201 0.32076 0.03661 0.0
N5 N 0.30629 0.35661 0.04318 0.0
C6 C 0.36992 0.33576 0.03494 0.0
C7 C 0.46603 0.40917 0.03869 0.0
C8 C 0.49214 0.38122 0.04298 0.0
C9 C 0.54901 0.40397 0.04183 0.0
C10 C 0.58006 0.45444 0.03631 0.0
C11 C 0.55419 0.48192 0.03182 0.0
C12 C 0.49737 0.45934 0.03297 0.0
Cd13 Cd 0.38542 0.27931 0.00893 0.0
Cd14 Cd 0.30908 0.26197 0.99291 0.0
C15 C 0.33061 0.45421 0.06926 0.0
C16 C 0.36953 0.53327 0.08213 0.0
C17 C 0.35181 0.49709 0.09153 0.0
C18 C 0.31457 0.44119 0.09 0.0
C19 C 0.30625 0.41945 0.07882 0.0
C20 C 0.36033 0.51132 0.07094 0.0
Co21 Co 0.36914 0.41433 0.04913 0.0
N22 N 0.37349 0.37369 0.06215 0.0
N23 N 0.43184 0.47331 0.055 0.0
C24 C 0.44801 0.46583 0.06526 0.0
C25 C 0.48964 0.51128 0.07102 0.0
C26 C 0.51133 0.56337 0.06574 0.0
C27 C 0.49034 0.56917 0.05511 0.0
C28 C 0.44855 0.52177 0.04991 0.0
N29 N 0.3744 0.46541 0.03728 0.0
N30 N 0.40762 0.38578 0.0397 0.0
N31 N 0.31984 0.43148 0.05782 0.0
O32 O 0.35509 0.25783 0.97665 0.0
O33 O 0.39575 0.236 0.9902 0.0
C34 C 0.49828 0.34898 0.00926 0.0
O35 O 0.46676 0.3574 1.00276 0.0
O36 O 0.47672 0.30618 0.01555 0.0
C37 C 0.27828 0.15055 0.00731 0.0
O38 O 0.32442 0.18049 0.01221 0.0
O39 O 0.25933 0.1711 1.00016 0.0
C40 C 0.41481 0.40925 0.06937 0.0
O41 O 0.42414 0.39374 0.07938 0.0
O42 O 0.34074 0.33297 0.00711 0.0
O43 O 0.2784 0.32747 0.99506 0.0
C44 C 0.41579 0.5173 0.0397 0.0
O45 O 0.42729 0.55941 0.03301 0.0
C46 C 0.3418 0.45136 0.02713 0.0
C47 C 0.34764 0.41885 0.01898 0.0
C48 C 0.30952 0.39504 0.01006 0.0
C49 C 0.27015 0.41097 0.00834 0.0
C50 C 0.2688 0.44966 0.01575 0.0
C51 C 0.30318 0.46821 0.02544 0.0
C52 C 0.38392 0.23653 0.97958 0.0
O53 O 0.38377 0.30039 0.02996 0.0
C54 C 0.31002 0.35088 1.00349 0.0
C55 C 0.35076 0.31534 0.063 0.0
C56 C 0.29373 0.27944 0.06333 0.0
C57 C 0.2729 0.2252 0.06695 0.0
C58 C 0.30871 0.2081 0.07109 0.0
C59 C 0.36526 0.24582 0.07166 0.0
C60 C 0.38606 0.29534 0.06584 0.0
C61 C 0.2669 0.39805 0.05409 0.0
O62 O 0.22472 0.39794 0.05907 0.0
H63 H 0.17087 0.30803 0.04357 0.0
H64 H 0.17619 0.23848 0.03096 0.0
H65 H 0.26739 0.24668 0.02647 0.0
H66 H 0.46863 0.34187 0.04717 0.0
H67 H 0.62402 0.47193 0.03539 0.0
H68 H 0.47794 0.48045 0.02916 0.0
H69 H 0.35989 0.51389 0.10013 0.0
H70 H 0.27865 0.37595 0.07748 0.0
H71 H 0.37278 0.53818 0.06354 0.0
H72 H 0.5039 0.50706 0.07939 0.0
H73 H 0.54312 0.59937 0.07005 0.0
H74 H 0.50511 0.60929 0.05131 0.0
H75 H 0.38113 0.41053 0.01991 0.0
H76 H 0.24213 0.39497 1.00112 0.0
H77 H 0.30054 0.49617 0.0315 0.0
H78 H 0.26509 0.29362 0.0617 0.0
H79 H 0.29172 0.16857 0.07531 0.0
H80 H 0.43001 0.32354 0.06612 0.0
C81 C 0.89291 0.25864 0.21368 0.0
C82 C 0.89062 0.21051 0.20967 0.0
C83 C 0.93292 0.21567 0.20224 0.0
C84 C 0.97629 0.26805 0.19903 0.0
C85 C 0.97588 0.31432 0.20338 0.0
N86 N 0.93487 0.30676 0.21038 0.0
C87 C 0.01547 0.37276 0.20119 0.0
C88 C 0.03217 0.46774 0.20444 0.0
C89 C 0.08898 0.49729 0.2067 0.0
C90 C 0.11829 0.55443 0.2056 0.0
C91 C 0.09179 0.58256 0.20187 0.0
C92 C 0.03622 0.55337 0.19894 0.0
C93 C 0.00669 0.49628 0.20013 0.0
Cd94 Cd 0.09133 0.38808 0.17517 0.0
Cd95 Cd 0.03577 0.32421 0.15975 0.0
C96 C 0.85937 0.32843 0.23668 0.0
C97 C 0.818 0.36737 0.2494 0.0
C98 C 0.83812 0.35148 0.25884 0.0
C99 C 0.85715 0.31435 0.25745 0.0
C100 C 0.87088 0.30559 0.24636 0.0
C101 C 0.83013 0.3568 0.23823 0.0
Co102 Co 0.9358 0.36823 0.21611 0.0
N103 N 0.98368 0.37689 0.22888 0.0
N104 N 0.93533 0.42922 0.22183 0.0
C105 C 0.95978 0.44741 0.23196 0.0
C106 C 0.95355 0.48803 0.2376 0.0
C107 C 0.91976 0.50619 0.23241 0.0
C108 C 0.89188 0.48257 0.22201 0.0
C109 C 0.89992 0.4419 0.21693 0.0
N110 N 0.88594 0.36793 0.20459 0.0
N111 N 0.00096 0.40906 0.20602 0.0
N112 N 0.8722 0.31722 0.22532 0.0
O113 O 0.08365 0.36667 0.1431 0.0
O114 O 0.14537 0.39135 0.15681 0.0
C115 C 0.13457 0.50062 0.17315 0.0
O116 O 0.09818 0.46679 0.16629 0.0
O117 O 0.15257 0.48152 0.18092 0.0
C118 C 0.10778 0.27819 0.17238 0.0
O119 O 0.12965 0.32506 0.17728 0.0
O120 O 0.06631 0.26303 0.1659 0.0
C121 C 0.98716 0.4175 0.23603 0.0
O122 O 0.01766 0.43241 0.24536 0.0
O123 O 0.99209 0.34598 0.17462 0.0
O124 O 0.93963 0.29061 0.16104 0.0
C125 C 0.87139 0.40666 0.207 0.0
O126 O 0.83791 0.41459 0.2004 0.0
C127 C 0.86964 0.33493 0.1945 0.0
C128 C 0.90802 0.34704 0.1859 0.0
C129 C 0.898 0.3097 0.17702 0.0
C130 C 0.84586 0.26384 0.17584 0.0
C131 C 0.80487 0.25446 0.18388 0.0
C132 C 0.81745 0.28877 0.19352 0.0
C133 C 0.1332 0.38504 0.14609 0.0
O134 O 0.06526 0.38838 0.19619 0.0
C135 C 0.94483 0.31636 0.1703 0.0
C136 C 0.0279 0.36542 0.22816 0.0
C137 C 0.01878 0.31164 0.22821 0.0
C138 C 0.06347 0.30263 0.22763 0.0
C139 C 0.1172 0.34715 0.22753 0.0
C140 C 0.12651 0.40131 0.22812 0.0
C141 C 0.08147 0.40948 0.22766 0.0
C142 C 0.85663 0.26446 0.22203 0.0
O143 O 0.81663 0.22154 0.22722 0.0
H144 H 0.85788 0.17045 0.21226 0.0
H145 H 0.93224 0.17915 0.19903 0.0
H146 H 0.00861 0.27207 0.19334 0.0
H147 H 0.11103 0.47663 0.20925 0.0
H148 H 0.11459 0.62677 0.20099 0.0
H149 H 0.96459 0.47465 0.19732 0.0
H150 H 0.83055 0.3607 0.26745 0.0
H151 H 0.88764 0.27845 0.24519 0.0
H152 H 0.81426 0.36741 0.23078 0.0
H153 H 0.97278 0.50412 0.24583 0.0
H154 H 0.91372 0.53716 0.23663 0.0
H155 H 0.86391 0.49448 0.21831 0.0
H156 H 0.94722 0.38448 0.18652 0.0
H157 H 0.83688 0.23585 0.16869 0.0
H158 H 0.78651 0.28099 0.19997 0.0
H159 H 0.97762 0.27694 0.22882 0.0
H160 H 0.15093 0.3388 0.228 0.0
H161 H 0.08807 0.45089 0.22801 0.0
C162 C 0.62898 0.9083 0.38362 0.0
C163 C 0.67665 0.90714 0.3805 0.0
C164 C 0.71463 0.94896 0.37314 0.0
C165 C 0.70479 0.99094 0.36918 0.0
C166 C 0.65641 0.98959 0.3727 0.0
N167 N 0.62181 0.94872 0.37955 0.0
C168 C 0.63736 0.02857 0.36988 0.0
C169 C 0.55741 0.04411 0.37147 0.0
C170 C 0.58395 0.10161 0.37274 0.0
C171 C 0.55635 0.1303 0.37019 0.0
C172 C 0.50246 0.10226 0.3661 0.0
C173 C 0.47672 0.04572 0.36425 0.0
C174 C 0.50416 0.01691 0.36683 0.0
Cd175 Cd 0.69877 0.09619 0.34331 0.0
Cd176 Cd 0.70964 0.03592 0.32738 0.0
C177 C 0.52055 0.87509 0.40549 0.0
C178 C 0.43683 0.82829 0.41688 0.0
C179 C 0.46828 0.84782 0.42691 0.0
C180 C 0.52535 0.87235 0.42648 0.0
C181 C 0.55168 0.88761 0.41574 0.0
C182 C 0.46296 0.84319 0.40613 0.0
Co183 Co 0.56023 0.95003 0.38462 0.0
N184 N 0.59731 -0.0002 0.3973 0.0
N185 N 0.49785 0.94991 0.38974 0.0
C186 C 0.50264 0.97541 0.39969 0.0
C187 C 0.45502 0.96862 0.40508 0.0
C188 C 0.4038 0.9331 0.39988 0.0
C189 C 0.40107 0.90417 0.38974 0.0
C190 C 0.4505 0.91298 0.38489 0.0
N191 N 0.51179 0.89788 0.37308 0.0
N192 N 0.58545 0.01406 0.37411 0.0
N193 N 0.54786 0.8882 0.39447 0.0
O194 O 0.7088 0.08381 0.31108 0.0
O195 O 0.74533 0.14671 0.32455 0.0
C196 C 0.63728 0.14785 0.3412 0.0
O197 O 0.62373 0.10284 0.33608 0.0
O198 O 0.68026 0.16912 0.34745 0.0
C199 C 0.82493 0.11134 0.34097 0.0
O200 O 0.7978 0.13075 0.34595 0.0
O201 O 0.80187 0.07181 0.33392 0.0
C202 C 0.5593 0.00404 0.40401 0.0
O203 O 0.57364 0.03658 0.41301 0.0
O204 O 0.64291 -0.00251 0.34236 0.0
O205 O 0.64472 0.94065 0.32972 0.0
C206 C 0.45831 0.88315 0.37536 0.0
O207 O 0.41741 0.84915 0.36876 0.0
C208 C 0.52779 0.8801 0.363 0.0
C209 C 0.56073 0.91876 0.35497 0.0
C210 C 0.58141 0.90447 0.34547 0.0
C211 C 0.56112 0.84912 0.34293 0.0
C212 C 0.52094 0.80921 0.35007 0.0
C213 C 0.50626 0.82444 0.36042 0.0
C214 C 0.73836 0.13376 0.31389 0.0
O215 O 0.67112 0.07681 0.36438 0.0
C216 C 0.6242 0.94896 0.33866 0.0
C217 C 0.65249 0.04418 0.39663 0.0
C218 C 0.697 0.03494 0.39718 0.0
C219 C 0.74992 0.07822 0.39522 0.0
C220 C 0.75874 0.1311 0.39326 0.0
C221 C 0.71442 0.14204 0.39362 0.0
C222 C 0.66141 0.09726 0.39487 0.0
C223 C 0.58641 0.87318 0.39194 0.0
O224 O 0.58982 0.83482 0.39777 0.0
H225 H 0.68484 0.87579 0.38377 0.0
H226 H 0.75192 0.9492 0.37063 0.0
H227 H 0.734 0.02323 0.36363 0.0
H228 H 0.62603 0.12472 0.37561 0.0
H229 H 0.48116 0.1245 0.36411 0.0
H230 H 0.48438 0.97398 0.36473 0.0
H231 H 0.44795 0.83432 0.43518 0.0
H232 H 0.59602 0.90643 0.41531 0.0
H233 H 0.43923 0.82624 0.39837 0.0
H234 H 0.45705 0.9886 0.41316 0.0
H235 H 0.36622 0.92649 0.40392 0.0
H236 H 0.36181 0.87476 0.38607 0.0
H237 H 0.56903 0.9602 0.35595 0.0
H238 H 0.57361 0.8372 0.33513 0.0
H239 H 0.47617 0.79338 0.36608 0.0
H240 H 0.69077 0.99435 0.39886 0.0
H241 H 0.80093 0.16334 0.39226 0.0
H242 H 0.62633 0.1035 0.39483 0.0
C243 C 0.71881 0.64279 0.54886 0.0
C244 C 0.76619 0.69021 0.54519 0.0
C245 C 0.75988 0.72561 0.53746 0.0
C246 C 0.70714 0.71324 0.53357 0.0
C247 C 0.66167 0.66514 0.5376 0.0
N248 N 0.67022 0.63366 0.54499 0.0
C249 C 0.60337 0.64202 0.53443 0.0
C250 C 0.51009 0.56047 0.53692 0.0
C251 C 0.4777 0.58546 0.5385 0.0
C252 C 0.42079 0.5554 0.53696 0.0
C253 C 0.39572 0.50071 0.53344 0.0
C254 C 0.42781 0.47649 0.53117 0.0
C255 C 0.48471 0.50633 0.53281 0.0
Cd256 Cd 0.59989 0.70167 0.50713 0.0
Cd257 Cd 0.67751 0.72123 0.49267 0.0
C258 C 0.64924 0.53806 0.57151 0.0
C259 C 0.61316 0.45797 0.58415 0.0
C260 C 0.62842 0.49332 0.59365 0.0
C261 C 0.66383 0.54966 0.59232 0.0
C262 C 0.67106 0.57227 0.58125 0.0
C263 C 0.62269 0.48073 0.57302 0.0
Co264 Co 0.60993 0.57 0.54997 0.0
N265 N 0.5921 0.60458 0.56239 0.0
N266 N 0.5503 0.50551 0.5549 0.0
C267 C 0.52636 0.50849 0.56455 0.0
C268 C 0.48551 0.45974 0.5695 0.0
C269 C 0.47309 0.40956 0.56416 0.0
C270 C 0.50244 0.40895 0.55433 0.0
C271 C 0.54297 0.45941 0.54993 0.0
N272 N 0.61923 0.52429 0.53868 0.0
N273 N 0.5685 0.59037 0.53902 0.0
N274 N 0.66142 0.56203 0.56013 0.0
O275 O 0.62159 0.70364 0.47651 0.0
O276 O 0.59669 0.74896 0.48811 0.0
C277 C 0.49129 0.62713 0.5022 0.0
O278 O 0.53015 0.62776 0.49644 0.0
O279 O 0.50368 0.6621 0.51028 0.0
C280 C 0.69903 0.83265 0.50636 0.0
O281 O 0.65535 0.80001 0.51179 0.0
O282 O 0.7179 0.8149 0.49858 0.0
C283 C 0.55024 0.56494 0.56887 0.0
O284 O 0.52928 0.57726 0.57773 0.0
O285 O 0.6506 0.65435 0.50798 0.0
O286 O 0.71864 0.66617 0.49694 0.0
C287 C 0.58263 0.47006 0.54063 0.0
O288 O 0.58054 0.43074 0.53413 0.0
C289 C 0.65723 0.54382 0.52934 0.0
C290 C 0.64977 0.57311 0.52065 0.0
C291 C 0.69069 0.60135 0.51242 0.0
C292 C 0.73541 0.59274 0.51183 0.0
C293 C 0.73934 0.55704 0.51967 0.0
C294 C 0.70174 0.53448 0.52879 0.0
C295 C 0.60078 0.73429 0.47791 0.0
O296 O 0.58599 0.67216 0.52831 0.0
C297 C 0.6863 0.6415 0.50519 0.0
C298 C 0.60049 0.65905 0.56172 0.0
C299 C 0.65331 0.7047 0.56203 0.0
C300 C 0.66074 0.75669 0.55982 0.0
C301 C 0.61537 0.7636 0.55791 0.0
C302 C 0.56101 0.71836 0.55867 0.0
C303 C 0.55501 0.66616 0.56012 0.0
C304 C 0.71401 0.6015 0.55728 0.0
O305 O 0.75715 0.60675 0.56287 0.0
H306 H 0.8065 0.69988 0.54824 0.0
H307 H 0.7958 0.76254 0.53448 0.0
H308 H 0.70231 0.73996 0.52755 0.0
H309 H 0.496 0.62813 0.54087 0.0
H310 H 0.35168 0.47755 0.53221 0.0
H311 H 0.50872 0.4875 0.5305 0.0
H312 H 0.62053 0.47592 0.60221 0.0
H313 H 0.69687 0.61622 0.58014 0.0
H314 H 0.6133 0.4545 0.56558 0.0
H315 H 0.46478 0.46018 0.57731 0.0
H316 H 0.442 0.37116 0.56785 0.0
H317 H 0.4947 0.37054 0.55054 0.0
H318 H 0.61217 0.57482 0.5205 0.0
H319 H 0.76538 0.6112 0.50499 0.0
H320 H 0.70534 0.50767 0.535 0.0
H321 H 0.68872 0.70009 0.56371 0.0
H322 H 0.62374 0.8052 0.55664 0.0
H323 H 0.51444 0.63037 0.56033 0.0
C324 C 0.0814 0.73119 0.71543 0.0
C325 C 0.08101 0.77864 0.71185 0.0
C326 C 0.03788 0.7724 0.70456 0.0
C327 C -0.00403 0.71962 0.70116 0.0
C328 C -0.00109 0.67406 0.70512 0.0
N329 N 0.04145 0.68261 0.71173 0.0
C330 C 0.96004 0.61535 0.70306 0.0
C331 C 0.94669 0.52145 0.70589 0.0
C332 C 0.89145 0.48921 0.70921 0.0
C333 C 0.86434 0.43217 0.70791 0.0
C334 C 0.89148 0.40697 0.70294 0.0
C335 C 0.94531 0.43897 0.69899 0.0
C336 C 0.97266 0.49596 0.70039 0.0
Cd337 Cd 0.89582 0.60648 0.67618 0.0
Cd338 Cd 0.95434 0.67792 0.65901 0.0
C339 C 0.12502 0.66089 0.73686 0.0
C340 C 0.17875 0.62445 0.74566 0.0
C341 C 0.16403 0.63399 0.7565 0.0
C342 C 0.13884 0.66611 0.75768 0.0
C343 C 0.11665 0.6772 0.74784 0.0
C344 C 0.15872 0.63746 0.73585 0.0
Co345 Co 0.0413 0.62155 0.71758 0.0
N346 N -0.00552 0.61403 0.73051 0.0
N347 N 0.04208 0.56087 0.72353 0.0
C348 C 0.02073 0.54559 0.73401 0.0
C349 C 0.02888 0.50688 0.73997 0.0
C350 C 0.06142 0.48747 0.73471 0.0
C351 C 0.08622 0.50808 0.72391 0.0
C352 C 0.0762 0.54684 0.71851 0.0
N353 N 0.09079 0.62046 0.70591 0.0
N354 N 0.97583 0.57984 0.70776 0.0
N355 N 0.1047 0.6736 0.72663 0.0
O356 O 0.89881 0.61966 0.64433 0.0
O357 O 0.83935 0.60129 0.65833 0.0
C358 C 0.85418 0.49414 0.67391 0.0
O359 O 0.89112 0.52825 0.66717 0.0
O360 O 0.83549 0.51289 0.68158 0.0
C361 C 0.87621 0.71463 0.67357 0.0
O362 O 0.8621 0.6714 0.67948 0.0
O363 O 0.91141 0.72851 0.66556 0.0
C364 C -0.00531 0.57661 0.7381 0.0
O365 O 0.96792 0.56486 0.74791 0.0
O366 O -0.00641 0.65152 0.67447 0.0
O367 O 0.05084 0.70822 0.66176 0.0
C368 C 0.10384 0.58062 0.7084 0.0
O369 O 0.13601 0.57079 0.70179 0.0
C370 C 0.10932 0.65299 0.69569 0.0
C371 C 0.07102 0.6488 0.68771 0.0
C372 C 0.08638 0.6819 0.6779 0.0
C373 C 0.14208 0.71359 0.67516 0.0
C374 C 0.18124 0.7118 0.6824 0.0
C375 C 0.1651 0.68384 0.69295 0.0
C376 C 0.84987 0.60333 0.64757 0.0
O377 O 0.91168 0.59877 0.69743 0.0
C378 C 0.04235 0.68074 0.6709 0.0
C379 C 0.94778 0.6218 0.72995 0.0
C380 C 0.95329 0.67421 0.72959 0.0
C381 C 0.90643 0.67976 0.73001 0.0
C382 C 0.85445 0.63335 0.73138 0.0
C383 C 0.84939 0.58108 0.73244 0.0
C384 C 0.89551 0.57565 0.73077 0.0
C385 C 0.11775 0.72618 0.72388 0.0
O386 O 0.15672 0.76913 0.72926 0.0
H387 H 0.1121 0.81892 0.71475 0.0
H388 H 0.03644 0.80837 0.7017 0.0
H389 H 0.96249 0.71473 0.69573 0.0
H390 H 0.86903 0.50784 0.71273 0.0
H391 H 0.8704 0.36284 0.7019 0.0
H392 H 0.0134 0.51992 0.69688 0.0
H393 H 0.18187 0.62597 0.76402 0.0
H394 H 0.09618 0.7012 0.74859 0.0
H395 H 0.17279 0.63329 0.72746 0.0
H396 H 0.01219 0.49334 0.74849 0.0
H397 H 0.06911 0.45812 0.73917 0.0
H398 H 0.11382 0.49578 0.72018 0.0
H399 H 0.0289 0.61794 0.68898 0.0
H400 H 0.15461 0.73648 0.66719 0.0
H401 H 0.19551 0.6839 0.69871 0.0
H402 H -0.00665 0.71063 0.72932 0.0
H403 H 0.8194 0.63907 0.73273 0.0
H404 H 0.89144 0.53532 0.73165 0.0
C405 C 0.34775 0.07909 0.87948 0.0
C406 C 0.30237 0.08233 0.87545 0.0
C407 C 0.26413 0.03949 0.86832 0.0
C408 C 0.27133 -0.00559 0.86551 0.0
C409 C 0.31744 0.99382 0.86993 0.0
N410 N 0.35269 0.03599 0.87639 0.0
C411 C 0.33422 0.95219 0.86833 0.0
C412 C 0.41116 0.93343 0.87162 0.0
C413 C 0.38712 0.87919 0.87564 0.0
C414 C 0.41493 0.84962 0.87457 0.0
C415 C 0.46625 0.87343 0.8692 0.0
C416 C 0.48912 0.92631 0.86465 0.0
C417 C 0.46156 0.95606 0.86578 0.0
Cd418 Cd 0.28612 0.89599 0.84123 0.0
Cd419 Cd 0.26617 0.96802 0.81993 0.0
C420 C 0.45556 0.11599 0.90182 0.0
C421 C 0.5405 0.17441 0.91202 0.0
C422 C 0.51172 0.16113 0.92241 0.0
C423 C 0.45423 0.12863 0.92266 0.0
C424 C 0.42656 0.1046 0.91229 0.0
C425 C 0.51238 0.15167 0.90174 0.0
Co426 Co 0.41087 0.0319 0.88261 0.0
N427 N 0.36931 0.98788 0.89563 0.0
N428 N 0.46984 0.02908 0.88896 0.0
C429 C 0.46202 0.00859 0.89956 0.0
C430 C 0.5075 0.01549 0.90588 0.0
C431 C 0.56009 0.04602 0.90083 0.0
C432 C 0.56624 0.07004 0.88987 0.0
C433 C 0.51873 0.06128 0.8841 0.0
N434 N 0.46281 0.07715 0.8708 0.0
N435 N 0.38423 0.96511 0.87323 0.0
N436 N 0.42612 0.09797 0.89112 0.0
O437 O 0.29012 0.9072 0.81028 0.0
O438 O 0.24387 0.84189 0.8231 0.0
C439 C 0.35908 0.8565 0.84054 0.0
O440 O 0.3666 0.89729 0.83444 0.0
O441 O 0.31633 0.83352 0.84684 0.0
C442 C 0.15826 0.87567 0.83737 0.0
O443 O 0.1885 0.86332 0.84339 0.0
O444 O 0.1778 0.91061 0.82925 0.0
C445 C 0.40502 0.98556 0.90341 0.0
O446 O 0.38836 0.96021 0.91333 0.0
O447 O 0.33205 0.99154 0.83778 0.0
O448 O 0.33769 0.05678 0.82693 0.0
C449 C 0.51477 0.08834 0.87366 0.0
O450 O 0.55775 0.11868 0.86716 0.0
C451 C 0.45105 0.09809 0.86064 0.0
C452 C 0.41427 0.06211 0.85257 0.0
C453 C 0.39938 0.08161 0.84293 0.0
C454 C 0.42782 0.1379 0.84055 0.0
C455 C 0.46998 0.17383 0.84793 0.0
C456 C 0.47946 0.15424 0.85826 0.0
C457 C 0.26087 0.85673 0.81284 0.0
O458 O 0.30183 0.90505 0.86251 0.0
C459 C 0.355 0.04213 0.83548 0.0
C460 C 0.31308 0.94487 0.89524 0.0
C461 C 0.26963 0.95607 0.8947 0.0
C462 C 0.21549 0.91339 0.89603 0.0
C463 C 0.20504 0.86038 0.89863 0.0
C464 C 0.24911 0.85041 0.89995 0.0
C465 C 0.3016 0.8909 0.89689 0.0
C466 C 0.38983 0.11475 0.88782 0.0
O467 O 0.3881 0.15572 0.89291 0.0
H468 H 0.29606 0.11604 0.87787 0.0
H469 H 0.22862 0.04087 0.86509 0.0
H470 H 0.24192 0.96137 0.86013 0.0
H471 H 0.34699 0.85961 0.87958 0.0
H472 H 0.48768 0.85048 0.86835 0.0
H473 H 0.47914 -0.00389 0.86188 0.0
H474 H 0.53376 0.18311 0.93005 0.0
H475 H 0.38217 0.07947 0.91219 0.0
H476 H 0.53391 0.16491 0.89361 0.0
H477 H 0.50289 -0.00046 0.91452 0.0
H478 H 0.59612 0.05278 0.90558 0.0
H479 H 0.60667 0.0961 0.88627 0.0
H480 H 0.39829 0.01879 0.85362 0.0
H481 H 0.41929 0.15327 0.83273 0.0
H482 H 0.51022 0.18235 0.86425 0.0
H483 H 0.2773 -0.00245 0.89377 0.0
H484 H 0.16369 0.82936 0.90097 0.0
H485 H 0.33524 0.88269 0.89803 0.0
C486 C 0.63545 0.72899 0.79449 0.0
C487 C 0.68076 0.77738 0.79848 0.0
C488 C 0.71731 0.77272 0.80617 0.0
C489 C 0.7082 0.72057 0.80967 0.0
C490 C 0.66199 0.67401 0.80533 0.0
N491 N 0.62914 0.68105 0.79806 0.0
C492 C 0.64308 0.61581 0.80785 0.0
C493 C 0.56727 0.52004 0.8042 0.0
C494 C 0.59737 0.49258 0.80259 0.0
C495 C 0.57117 0.43528 0.80303 0.0
C496 C 0.51507 0.40475 0.80542 0.0
C497 C 0.48563 0.43164 0.80781 0.0
C498 C 0.51177 0.48894 0.80737 0.0
Cd499 Cd 0.7013 0.60272 0.83449 0.0
Cd500 Cd 0.7202 0.68051 0.84815 0.0
C501 C 0.53183 0.65764 0.77159 0.0
C502 C 0.45016 0.61809 0.75951 0.0
C503 C 0.48356 0.63772 0.74975 0.0
C504 C 0.53977 0.67466 0.75082 0.0
C505 C 0.56431 0.68186 0.7617 0.0
C506 C 0.47436 0.62802 0.77044 0.0
Co507 Co 0.56896 0.61912 0.79242 0.0
N508 N 0.60846 0.60921 0.77988 0.0
N509 N 0.50782 0.55783 0.78678 0.0
C510 C 0.51436 0.53897 0.77675 0.0
C511 C 0.46784 0.49791 0.77116 0.0
C512 C 0.41588 0.48009 0.77627 0.0
C513 C 0.41126 0.50456 0.78652 0.0
C514 C 0.45968 0.54552 0.79158 0.0
N515 N 0.51903 0.62049 0.80375 0.0
N516 N 0.5929 0.57889 0.8029 0.0
N517 N 0.55704 0.6697 0.78283 0.0
O518 O 0.71132 0.64026 0.866 0.0
O519 O 0.73882 0.59604 0.85469 0.0
C520 C 0.63184 0.48976 0.83403 0.0
O521 O 0.61872 0.52157 0.83914 0.0
O522 O 0.67913 0.51067 0.82938 0.0
C523 C 0.83256 0.70636 0.83502 0.0
O524 O 0.80066 0.66105 0.83001 0.0
O525 O 0.81367 0.72602 0.84238 0.0
C526 C 0.57158 0.56853 0.77274 0.0
O527 O 0.58739 0.55291 0.76353 0.0
O528 O 0.6472 0.64819 0.83423 0.0
O529 O 0.66312 0.7193 0.84473 0.0
C530 C 0.46603 0.5815 0.80136 0.0
O531 O 0.42445 0.57442 0.80779 0.0
C532 C 0.5352 0.6554 0.81355 0.0
C533 C 0.56354 0.64655 0.82225 0.0
C534 C 0.5919 0.68686 0.83058 0.0
C535 C 0.58347 0.73172 0.83133 0.0
C536 C 0.54897 0.73713 0.82339 0.0
C537 C 0.5269 0.70046 0.81413 0.0
C538 C 0.73273 0.61009 0.86483 0.0
O539 O 0.67671 0.6009 0.81334 0.0
C540 C 0.63442 0.68377 0.83726 0.0
C541 C 0.6636 0.61949 0.78087 0.0
C542 C 0.70871 0.67283 0.7809 0.0
C543 C 0.76185 0.68067 0.78178 0.0
C544 C 0.77008 0.63541 0.78209 0.0
C545 C 0.72483 0.58164 0.7814 0.0
C546 C 0.6721 0.57469 0.7816 0.0
C547 C 0.59392 0.72266 0.78597 0.0
O548 O 0.59643 0.76528 0.78068 0.0
H549 H 0.68808 0.81726 0.79569 0.0
H550 H 0.75275 0.80945 0.80938 0.0
H551 H 0.73602 0.71693 0.81558 0.0
H552 H 0.64094 0.51493 0.80088 0.0
H553 H 0.4948 0.36041 0.80575 0.0
H554 H 0.48882 0.50862 0.80985 0.0
H555 H 0.46385 0.63286 0.74147 0.0
H556 H 0.60815 0.70938 0.76261 0.0
H557 H 0.44866 0.61694 0.778 0.0
H558 H 0.47122 0.48118 0.76302 0.0
H559 H 0.37914 0.44873 0.77209 0.0
H560 H 0.37137 0.49298 0.79014 0.0
H561 H 0.56621 0.60944 0.82205 0.0
H562 H 0.60249 0.76161 0.83816 0.0
H563 H 0.50185 0.7056 0.8077 0.0
H564 H 0.70305 0.70809 0.78013 0.0
H565 H 0.81185 0.6429 0.78183 0.0
H566 H 0.637 0.53358 0.7812 0.0
C567 C 0.89937 0.63086 0.95929 0.0
C568 C 0.89768 0.67808 0.96251 0.0
C569 C 0.93823 0.71505 0.97023 0.0
C570 C 0.97955 0.7047 0.97445 0.0
C571 C 0.97877 0.65679 0.97083 0.0
N572 N 0.93907 0.62319 0.96363 0.0
C573 C 0.01736 0.63734 0.97385 0.0
C574 C 0.03465 0.55881 0.97161 0.0
C575 C 0.09219 0.58584 0.9703 0.0
C576 C 0.1212 0.55814 0.97242 0.0
C577 C 0.09345 0.50364 0.97612 0.0
C578 C 0.0369 0.47739 0.97806 0.0
C579 C 0.00778 0.50494 0.97591 0.0
Cd580 Cd 0.08926 0.6974 1.00055 0.0
Cd581 Cd 0.02986 0.71181 0.01427 0.0
C582 C 0.86932 0.52383 0.93705 0.0
C583 C 0.82392 0.43927 0.92591 0.0
C584 C 0.84197 0.46995 0.91577 0.0
C585 C 0.86589 0.52699 0.91601 0.0
C586 C 0.88124 0.55414 0.92669 0.0
C587 C 0.83838 0.46622 0.93656 0.0
Co588 Co 0.94201 0.56304 0.95827 0.0
N589 N -0.00633 0.60271 0.94616 0.0
N590 N 0.94391 0.50228 0.95294 0.0
C591 C 0.97362 0.50954 0.9435 0.0
C592 C 0.97062 0.46337 0.93819 0.0
C593 C 0.93474 0.41115 0.94298 0.0
C594 C 0.90213 0.40598 0.9527 0.0
C595 C 0.90733 0.45405 0.95751 0.0
N596 N 0.88849 0.51287 0.96924 0.0
N597 N 0.00408 0.58657 0.96922 0.0
N598 N 0.8819 0.55167 0.94801 0.0
O599 O 0.05749 0.69766 0.03212 0.0
O600 O 0.13019 0.73289 0.02098 0.0
C601 C 0.14712 0.64092 1.00039 0.0
O602 O 0.10102 0.62211 0.00543 0.0
O603 O 0.1666 0.6869 0.99526 0.0
C604 C 0.11341 0.82668 1.00218 0.0
O605 O 0.12591 0.79579 0.99645 0.0
O606 O 0.07708 0.80695 0.00997 0.0
C607 C 0.00302 0.56719 0.93973 0.0
O608 O 0.03899 0.58421 0.9313 0.0
O609 O 0.99013 0.63926 0.99997 0.0
O610 O 0.93519 0.65628 0.01039 0.0
C611 C 0.8752 0.45997 0.96686 0.0
O612 O 0.84053 0.41831 0.97321 0.0
C613 C 0.87036 0.52888 0.97921 0.0
C614 C 0.90802 0.55712 0.98782 0.0
C615 C 0.8963 0.58476 0.99638 0.0
C616 C 0.84287 0.57543 0.9975 0.0
C617 C 0.80244 0.54013 0.98979 0.0
C618 C 0.8165 0.51884 0.98028 0.0
C619 C 0.10924 0.72277 0.03108 0.0
O620 O 0.06538 0.67066 0.97949 0.0
C621 C 0.94194 0.62698 1.00303 0.0
C622 C 0.03192 0.66013 0.94666 0.0
C623 C 0.01542 0.69901 0.94474 0.0
C624 C 0.05336 0.75475 0.94595 0.0
C625 C 0.10819 0.77177 0.94857 0.0
C626 C 0.12592 0.73281 0.94976 0.0
C627 C 0.08637 0.67715 0.94939 0.0
C628 C 0.86626 0.58976 0.95051 0.0
O629 O 0.82883 0.59377 0.94444 0.0
H630 H 0.86703 0.6868 0.95903 0.0
H631 H 0.93808 0.75203 0.97281 0.0
H632 H 0.0109 0.73319 0.98027 0.0
H633 H 0.1151 0.62839 0.96778 0.0
H634 H 0.11594 0.48227 0.97777 0.0
H635 H 0.96478 0.48459 0.97804 0.0
H636 H 0.82805 0.44871 0.9076 0.0
H637 H 0.89975 0.59844 0.92698 0.0
H638 H 0.82162 0.44288 0.94436 0.0
H639 H -0.00602 0.46721 0.93051 0.0
H640 H 0.93115 0.37465 0.939 0.0
H641 H 0.87316 0.36596 0.9561 0.0
H642 H 0.94764 0.55963 0.98752 0.0
H643 H 0.83214 0.59354 0.00456 0.0
H644 H 0.78559 0.493 0.97407 0.0
H645 H 0.97361 0.68642 0.9423 0.0
H646 H 0.13701 0.81544 0.94862 0.0
H647 H 0.09846 0.64632 0.95027 0.0
C648 C 0.26047 0.90955 0.12466 0.0
C649 C 0.21271 0.90961 0.12815 0.0
C650 C 0.21825 0.95098 0.13589 0.0
C651 C 0.27066 0.99122 0.13988 0.0
C652 C 0.31653 0.98857 0.13601 0.0
N653 N 0.30869 0.9484 0.12875 0.0
C654 C 0.37478 0.02498 0.13896 0.0
C655 C 0.46881 0.03718 0.13673 0.0
C656 C 0.50178 0.09384 0.13468 0.0
C657 C 0.55875 0.11971 0.13605 0.0
C658 C 0.58326 0.09003 0.14002 0.0
C659 C 0.55054 0.03477 0.14291 0.0
C660 C 0.4936 0.00863 0.14137 0.0
Cd661 Cd 0.38433 0.09343 0.1656 0.0
Cd662 Cd 0.29195 0.03581 0.17833 0.0
C663 C 0.33206 0.86541 0.10365 0.0
C664 C 0.36224 0.80592 0.09481 0.0
C665 C 0.34795 0.81685 0.08399 0.0
C666 C 0.32182 0.84807 0.08294 0.0
C667 C 0.3149 0.87329 0.09276 0.0
C668 C 0.35413 0.83043 0.10459 0.0
Co669 Co 0.36993 0.94626 0.12378 0.0
N670 N 0.38504 -0.00337 0.11108 0.0
N671 N 0.43051 0.94271 0.11881 0.0
C672 C 0.45179 0.96716 0.1088 0.0
C673 C 0.49171 0.95826 0.1036 0.0
C674 C 0.50588 0.92194 0.10906 0.0
C675 C 0.47931 0.89452 0.1193 0.0
C676 C 0.43981 0.90554 0.12398 0.0
N677 N 0.36344 0.89362 0.13535 0.0
N678 N 0.41057 0.00904 0.13443 0.0
N679 N 0.31893 0.88561 0.11389 0.0
O680 O 0.32255 0.08306 0.19599 0.0
O681 O 0.39613 0.13461 0.18556 0.0
C682 C 0.49683 0.1328 0.16646 0.0
O683 O 0.46359 0.09378 0.1729 0.0
O684 O 0.47716 0.15439 0.1597 0.0
C685 C 0.28152 0.12701 0.16451 0.0
O686 O 0.33305 0.14527 0.16332 0.0
O687 O 0.25064 0.07825 0.16802 0.0
C688 C 0.42597 -0.00203 0.10437 0.0
O689 O 0.44548 0.03017 0.09534 0.0
O690 O 0.33304 -0.0054 0.16582 0.0
O691 O 0.26054 0.93974 0.17591 0.0
C692 C 0.40133 0.87729 0.1335 0.0
O693 O 0.40511 0.84144 0.14015 0.0
C694 C 0.32665 0.87598 0.14489 0.0
C695 C 0.33458 0.91313 0.15354 0.0
C696 C 0.2942 0.90084 0.1619 0.0
C697 C 0.25017 0.84722 0.16274 0.0
C698 C 0.24586 0.8073 0.15488 0.0
C699 C 0.28255 0.82244 0.14558 0.0
C700 C 0.36983 0.12499 0.19502 0.0
O701 O 0.39113 0.07338 0.14455 0.0
C702 C 0.2968 0.94634 0.16861 0.0
C703 C 0.37718 0.04311 0.11181 0.0
C704 C 0.32454 0.03679 0.11183 0.0
C705 C 0.3177 0.08136 0.11451 0.0
C706 C 0.36341 0.13285 0.1166 0.0
C707 C 0.41758 0.14136 0.11549 0.0
C708 C 0.42303 0.09513 0.11341 0.0
C709 C 0.26616 0.87363 0.11624 0.0
O710 O 0.22362 0.8355 0.11059 0.0
H711 H 0.1727 0.87931 0.12496 0.0
H712 H 0.18204 0.95206 0.13872 0.0
H713 H 0.27499 0.02295 0.14578 0.0
H714 H 0.48396 0.11843 0.13207 0.0
H715 H 0.62735 0.11021 0.14114 0.0
H716 H 0.46918 0.9667 0.14415 0.0
H717 H 0.35016 0.79488 0.07653 0.0
H718 H 0.29336 0.89628 0.09205 0.0
H719 H 0.36111 0.81897 0.11301 0.0
H720 H 0.51022 0.97738 0.0955 0.0
H721 H 0.53609 0.9137 0.10515 0.0
H722 H 0.48804 0.86459 0.12317 0.0
H723 H 0.37157 0.95272 0.15343 0.0
H724 H 0.2202 0.83614 0.16956 0.0
H725 H 0.27861 0.79236 0.13925 0.0
H726 H 0.2888 -0.00271 0.11013 0.0
H727 H 0.35541 0.16607 0.11833 0.0
H728 H 0.46336 0.09919 0.11289 0.0
C729 C 0.33453 0.25654 0.29335 0.0
C730 C 0.2875 0.20887 0.29705 0.0
C731 C 0.25134 0.2147 0.30465 0.0
C732 C 0.26243 0.26729 0.30832 0.0
C733 C 0.31015 0.31306 0.30424 0.0
N734 N 0.34288 0.30496 0.29713 0.0
C735 C 0.33084 0.37144 0.30685 0.0
C736 C 0.40944 0.46573 0.30389 0.0
C737 C 0.38291 0.496 0.3015 0.0
C738 C 0.41011 0.55281 0.30322 0.0
C739 C 0.46359 0.57983 0.30755 0.0
C740 C 0.4893 0.54982 0.31048 0.0
C741 C 0.46219 0.49302 0.30876 0.0
Cd742 Cd 0.28089 0.38499 0.33422 0.0
Cd743 Cd 0.25749 0.30114 0.34979 0.0
C744 C 0.44951 0.32633 0.27218 0.0
C745 C 0.53976 0.36077 0.26337 0.0
C746 C 0.51452 0.34468 0.25259 0.0
C747 C 0.4571 0.31283 0.25155 0.0
C748 C 0.42473 0.3061 0.26137 0.0
C749 C 0.50672 0.35126 0.27313 0.0
Co750 Co 0.40512 0.36612 0.29183 0.0
N751 N 0.36856 0.37805 0.27895 0.0
N752 N 0.46807 0.42677 0.28654 0.0
C753 C 0.46416 0.44469 0.27618 0.0
C754 C 0.5122 0.48411 0.27073 0.0
C755 C 0.56293 0.50127 0.27634 0.0
C756 C 0.56479 0.47785 0.28697 0.0
C757 C 0.51495 0.43865 0.29186 0.0
N758 N 0.45266 0.36291 0.30354 0.0
N759 N 0.38171 0.40725 0.30208 0.0
N760 N 0.41616 0.31433 0.2824 0.0
O761 O 0.25554 0.34674 0.36641 0.0
O762 O 0.24069 0.39546 0.35353 0.0
C763 C 0.36045 0.49568 0.33462 0.0
O764 O 0.36722 0.46014 0.34003 0.0
O765 O 0.31529 0.4794 0.32927 0.0
C766 C 0.14909 0.28218 0.335 0.0
O767 O 0.1804 0.33035 0.33107 0.0
O768 O 0.16862 0.25913 0.34133 0.0
C769 C 0.40777 0.41608 0.27171 0.0
O770 O 0.3948 0.43074 0.262 0.0
O771 O 0.32519 0.33072 0.33505 0.0
O772 O 0.31835 0.26541 0.34633 0.0
C773 C 0.50616 0.4021 0.30166 0.0
O774 O 0.54645 0.40781 0.30835 0.0
C775 C 0.43533 0.32633 0.31308 0.0
C776 C 0.4046 0.33241 0.32162 0.0
C777 C 0.38106 0.29366 0.33042 0.0
C778 C 0.39557 0.25295 0.3316 0.0
C779 C 0.43284 0.25125 0.32379 0.0
C780 C 0.45049 0.28618 0.31418 0.0
C781 C 0.23896 0.38015 0.36399 0.0
O782 O 0.29944 0.38776 0.31278 0.0
C783 C 0.34048 0.29675 0.3378 0.0
C784 C 0.31492 0.37243 0.27946 0.0
C785 C 0.26723 0.32083 0.2799 0.0
C786 C 0.21564 0.31707 0.27961 0.0
C787 C 0.21154 0.36444 0.27828 0.0
C788 C 0.25941 0.41594 0.27708 0.0
C789 C 0.31031 0.4197 0.27866 0.0
C790 C 0.3763 0.26173 0.28503 0.0
O791 O 0.37298 0.2187 0.27976 0.0
H792 H 0.27862 0.16869 0.29411 0.0
H793 H 0.21465 0.17856 0.30764 0.0
H794 H 0.23482 0.27184 0.31413 0.0
H795 H 0.3411 0.47592 0.2984 0.0
H796 H 0.4846 0.62378 0.30889 0.0
H797 H 0.48184 0.47055 0.31164 0.0
H798 H 0.53999 0.35192 0.24509 0.0
H799 H 0.38034 0.28237 0.26085 0.0
H800 H 0.52524 0.36015 0.28155 0.0
H801 H 0.51086 0.49999 0.26234 0.0
H802 H 0.60082 0.53113 0.27226 0.0
H803 H 0.60373 0.48847 0.29094 0.0
H804 H 0.39879 0.36761 0.32129 0.0
H805 H 0.38073 0.2251 0.33886 0.0
H806 H 0.47805 0.28404 0.30794 0.0
H807 H 0.26958 0.28358 0.28013 0.0
H808 H 0.17123 0.35996 0.27701 0.0
H809 H 0.34704 0.45959 0.27787 0.0
C810 C 0.08423 0.3513 0.46492 0.0
C811 C 0.08801 0.30682 0.4693 0.0
C812 C 0.04373 0.26751 0.47601 0.0
C813 C -0.00308 0.27295 0.47811 0.0
C814 C -0.00415 0.31817 0.47335 0.0
N815 N 0.03887 0.35384 0.46713 0.0
C816 C 0.95412 0.33503 0.47475 0.0
C817 C 0.93499 0.41118 0.47104 0.0
C818 C 0.88295 0.38719 0.46587 0.0
C819 C 0.85084 0.41243 0.46675 0.0
C820 C 0.87024 0.46141 0.47289 0.0
C821 C 0.92146 0.4848 0.47828 0.0
C822 C 0.95367 0.4597 0.47741 0.0
Cd823 Cd 0.88693 0.28706 0.50111 0.0
Cd824 Cd 0.95674 0.25773 0.52461 0.0
C825 C 0.12199 0.45785 0.4424 0.0
C826 C 0.17636 0.54216 0.43165 0.0
C827 C 0.16499 0.51194 0.42147 0.0
C828 C 0.13593 0.45434 0.42162 0.0
C829 C 0.11309 0.42749 0.43215 0.0
C830 C 0.15435 0.51506 0.44207 0.0
Co831 Co 0.03683 0.4137 0.46137 0.0
N832 N -0.00485 0.37644 0.44781 0.0
N833 N 0.0363 0.4748 0.45568 0.0
C834 C 0.01596 0.46998 0.44514 0.0
C835 C 0.02331 0.51723 0.43951 0.0
C836 C 0.05354 0.56817 0.44522 0.0
C837 C 0.07661 0.57103 0.45618 0.0
C838 C 0.06754 0.52194 0.46124 0.0
N839 N 0.07959 0.46147 0.4739 0.0
N840 N 0.96828 0.38572 0.4701 0.0
N841 N 0.1045 0.43022 0.45332 0.0
O842 O 0.90374 0.29976 0.53007 0.0
O843 O 0.83374 0.24415 0.51944 0.0
C844 C 0.84973 0.36197 0.50077 0.0
O845 O 0.892 0.37087 0.50652 0.0
O846 O 0.82424 0.31697 0.49525 0.0
C847 C 0.86099 0.15801 0.50497 0.0
O848 O 0.85079 0.18934 0.49878 0.0
O849 O 0.89463 0.17643 0.51336 0.0
C850 C -0.00769 0.41397 0.44065 0.0
O851 O 0.96994 0.40072 0.43038 0.0
O852 O 0.98126 0.32517 0.50578 0.0
O853 O 0.04389 0.32508 0.51668 0.0
C854 C 0.09212 0.51436 0.47174 0.0
O855 O 0.12197 0.55501 0.4788 0.0
C856 C 0.09697 0.44531 0.48399 0.0
C857 C 0.05807 0.40997 0.49187 0.0
C858 C 0.07367 0.38876 0.5011 0.0
C859 C 0.12947 0.40872 0.50322 0.0
C860 C 0.16914 0.4485 0.49598 0.0
C861 C 0.15275 0.4652 0.4861 0.0
C862 C 0.85333 0.26373 0.52932 0.0
O863 O 0.90536 0.30195 0.47999 0.0
C864 C 0.03147 0.34537 0.5083 0.0
C865 C 0.95961 0.31849 0.44639 0.0
C866 C 0.98036 0.28209 0.44611 0.0
C867 C 0.9474 0.22839 0.44219 0.0
C868 C 0.89537 0.21231 0.43772 0.0
C869 C 0.87701 0.25055 0.43712 0.0
C870 C 0.9053 0.29977 0.44304 0.0
C871 C 0.12173 0.39476 0.45699 0.0
O872 O 0.16422 0.39417 0.45236 0.0
H873 H 0.12339 0.30218 0.46754 0.0
H874 H 0.04563 0.23282 0.47955 0.0
H875 H 0.96332 0.2433 0.48334 0.0
H876 H 0.86724 0.34911 0.46117 0.0
H877 H 0.84534 0.48085 0.47358 0.0
H878 H -0.0075 0.47762 0.48188 0.0
H879 H 0.18613 0.53345 0.41372 0.0
H880 H 0.09075 0.38303 0.43253 0.0
H881 H 0.16601 0.53805 0.45004 0.0
H882 H 0.0077 0.51519 0.43092 0.0
H883 H 0.06049 0.6055 0.44102 0.0
H884 H 0.10187 0.61022 0.46034 0.0
H885 H 0.01562 0.39895 0.4908 0.0
H886 H 0.14224 0.39423 0.5106 0.0
H887 H 0.18304 0.49497 0.48026 0.0
H888 H 0.02271 0.29558 0.448 0.0
H889 H 0.87319 0.17314 0.43336 0.0
H890 H 0.89007 0.32851 0.44266 0.0
C891 C 0.73489 0.09267 0.62685 0.0
C892 C 0.7836 0.09676 0.63104 0.0
C893 C 0.77941 0.05504 0.63853 0.0
C894 C 0.72746 0.01034 0.64156 0.0
C895 C 0.68061 0.00892 0.637 0.0
N896 N 0.6872 0.04966 0.63006 0.0
C897 C 0.62237 0.9681 0.63901 0.0
C898 C 0.52667 0.94659 0.63485 0.0
C899 C 0.50094 0.89188 0.63103 0.0
C900 C 0.44378 0.85889 0.63165 0.0
C901 C 0.41197 0.88005 0.63618 0.0
C902 C 0.43738 0.93391 0.64027 0.0
C903 C 0.49451 0.96691 0.6397 0.0
Cd904 Cd 0.60659 0.90191 0.66561 0.0
Cd905 Cd 0.68411 0.96229 0.68297 0.0
C906 C 0.66093 0.13154 0.60521 0.0
C907 C 0.62748 0.18913 0.59686 0.0
C908 C 0.63905 0.17708 0.58588 0.0
C909 C 0.66447 0.14532 0.58439 0.0
C910 C 0.67526 0.12231 0.59414 0.0
C911 C 0.63815 0.16571 0.60648 0.0
Co912 Co 0.62469 0.04652 0.62428 0.0
N913 N 0.61826 0.00022 0.61141 0.0
N914 N 0.5625 0.04479 0.61853 0.0
C915 C 0.54617 0.02187 0.60822 0.0
C916 C 0.50565 0.0278 0.60244 0.0
C917 C 0.48535 0.05954 0.60774 0.0
C918 C 0.5066 0.08551 0.61842 0.0
C919 C 0.54713 0.07766 0.62366 0.0
N920 N 0.62208 0.09419 0.63597 0.0
N921 N 0.58526 0.98102 0.63406 0.0
N922 N 0.67463 0.11095 0.61528 0.0
O923 O 0.62511 0.91161 0.69805 0.0
O924 O 0.59557 0.84916 0.68439 0.0
C925 C 0.49436 0.86529 0.66564 0.0
O926 O 0.52828 0.90916 0.67079 0.0
O927 O 0.51294 0.83753 0.66062 0.0
C928 C 0.71181 0.8765 0.66852 0.0
O929 O 0.66788 0.86309 0.66289 0.0
O930 O 0.7288 0.91405 0.67609 0.0
C931 C 0.57794 -0.00337 0.60413 0.0
O932 O 0.56718 0.97073 0.59423 0.0
O933 O 0.65602 -0.00034 0.66729 0.0
O934 O 0.71695 0.05807 0.67924 0.0
C935 C 0.58096 0.10563 0.63377 0.0
O936 O 0.57165 0.13817 0.64037 0.0
C937 C 0.65716 0.11399 0.64574 0.0
C938 C 0.65045 0.07743 0.65439 0.0
C939 C 0.68956 0.09232 0.66313 0.0
C940 C 0.73172 0.14681 0.66399 0.0
C941 C 0.73546 0.1855 0.65586 0.0
C942 C 0.69937 0.16848 0.64644 0.0
C943 C 0.60122 0.86152 0.69508 0.0
O944 O 0.60758 0.91956 0.64437 0.0
C945 C 0.68715 0.04876 0.67043 0.0
C946 C 0.63763 0.96158 0.61086 0.0
C947 C 0.694 0.9789 0.61043 0.0
C948 C 0.71142 0.94207 0.60718 0.0
C949 C 0.6729 0.88939 0.60349 0.0
C950 C 0.61712 0.87429 0.60298 0.0
C951 C 0.59957 0.90674 0.60847 0.0
C952 C 0.72786 0.12744 0.6183 0.0
O953 O 0.76995 0.16838 0.61311 0.0
H954 H 0.82335 0.13036 0.62855 0.0
H955 H 0.81638 0.05716 0.64191 0.0
H956 H 0.72419 0.97847 0.64729 0.0
H957 H 0.52491 0.87468 0.6276 0.0
H958 H 0.36776 0.85452 0.63665 0.0
H959 H 0.51343 0.00772 0.64329 0.0
H960 H 0.63416 0.19779 0.57849 0.0
H961 H 0.69602 0.09868 0.59318 0.0
H962 H 0.63149 0.17638 0.61502 0.0
H963 H 0.49124 0.00991 0.59404 0.0
H964 H 0.45452 0.06544 0.60341 0.0
H965 H 0.49315 0.11207 0.62221 0.0
H966 H 0.61543 0.03637 0.65401 0.0
H967 H 0.76101 0.15936 0.67099 0.0
H968 H 0.70265 0.19755 0.63992 0.0
H969 H 0.72472 0.02119 0.61169 0.0
H970 H 0.68735 0.86398 0.59953 0.0
H971 H 0.55617 0.894 0.60819 0.0
H972 H 0.42993 0.78275 0.08185 0.0
H973 H 0.31389 0.72191 0.10994 0.0
H974 H 0.31044 0.63402 0.10895 0.0
H975 H 0.32732 0.57104 0.09829 0.0
H976 H 0.4442 0.62716 0.07035 0.0
H977 H 0.45853 0.72036 0.0728 0.0
C978 C 0.40499 0.75054 0.08791 0.0
C979 C 0.37219 0.75896 0.09595 0.0
C980 C 0.40201 0.69908 0.08711 0.0
C981 C 0.34023 0.7171 0.1038 0.0
C982 C 0.33754 0.6664 0.10313 0.0
C983 C 0.35807 0.60361 0.093 0.0
C984 C 0.38523 0.59173 0.08422 0.0
C985 C 0.3666 0.65649 0.09457 0.0
C986 C 0.42247 0.63482 0.07714 0.0
C987 C 0.43083 0.68815 0.07858 0.0
H988 H 0.74243 0.33095 0.26654 0.0
H989 H 0.79414 0.43746 0.23685 0.0
H990 H 0.71615 0.45299 0.23969 0.0
H991 H 0.62803 0.42766 0.24963 0.0
H992 H 0.58175 0.32126 0.27932 0.0
H993 H 0.66665 0.31897 0.27802 0.0
C994 C 0.73917 0.35995 0.26092 0.0
C995 C 0.77537 0.38362 0.25155 0.0
C996 C 0.69541 0.3694 0.26272 0.0
C997 C 0.76709 0.41833 0.2441 0.0
C998 C 0.72263 0.42747 0.24576 0.0
C999 C 0.6372 0.40497 0.25595 0.0
C1000 C 0.59796 0.37416 0.26448 0.0
C1001 C 0.68569 0.40199 0.25491 0.0
C1002 C 0.61095 0.34585 0.27273 0.0
C1003 C 0.65926 0.34367 0.27189 0.0
H1004 H 0.18984 0.63552 0.42111 0.0
H1005 H 0.27263 0.56898 0.44115 0.0
H1006 H 0.36086 0.65027 0.43735 0.0
H1007 H 0.41454 0.73677 0.42772 0.0
H1008 H 0.33625 0.81112 0.40881 0.0
H1009 H 0.24552 0.72966 0.41257 0.0
C1010 C 0.22721 0.64009 0.42492 0.0
C1011 C 0.22506 0.59727 0.43162 0.0
C1012 C 0.27814 0.68738 0.42271 0.0
C1013 C 0.27345 0.60236 0.43629 0.0
C1014 C 0.32387 0.6483 0.43397 0.0
C1015 C 0.37752 0.7355 0.42451 0.0
C1016 C 0.38158 0.7797 0.41812 0.0
C1017 C 0.32662 0.69043 0.42708 0.0
C1018 C 0.33376 0.77722 0.41374 0.0
C1019 C 0.28215 0.73102 0.41599 0.0
H1020 H 0.65709 0.42196 0.60034 0.0
H1021 H 0.54134 0.36352 0.57221 0.0
H1022 H 0.52832 0.27102 0.57486 0.0
H1023 H 0.55753 0.20992 0.58413 0.0
H1024 H 0.67381 0.27299 0.61217 0.0
H1025 H 0.67512 0.35991 0.61116 0.0
C1026 C 0.62695 0.38899 0.59503 0.0
C1027 C 0.59951 0.40001 0.58617 0.0
C1028 C 0.61926 0.33644 0.5967 0.0
C1029 C 0.56312 0.35651 0.57907 0.0
C1030 C 0.55549 0.30356 0.58063 0.0
C1031 C 0.58225 0.24243 0.59016 0.0
C1032 C 0.61588 0.23499 0.59815 0.0
C1033 C 0.58442 0.29344 0.58927 0.0
C1034 C 0.64707 0.27708 0.60602 0.0
C1035 C 0.64857 0.32727 0.60533 0.0
H1036 H 0.19872 0.54147 0.75174 0.0
H1037 H 0.27463 0.70869 0.73958 0.0
H1038 H 0.3651 0.72236 0.74415 0.0
H1039 H 0.42188 0.68948 0.75248 0.0
H1040 H 0.35229 0.52071 0.76296 0.0
H1041 H 0.25931 0.50445 0.75836 0.0
C1042 C 0.23543 0.57995 0.74971 0.0
C1043 C 0.23059 0.62371 0.7451 0.0
C1044 C 0.28777 0.58753 0.75234 0.0
C1045 C 0.27787 0.67407 0.74276 0.0
C1046 C 0.32941 0.68224 0.74557 0.0
C1047 C 0.38623 0.64904 0.75375 0.0
C1048 C 0.3932 0.60644 0.75812 0.0
C1049 C 0.33457 0.63973 0.75055 0.0
C1050 C 0.34728 0.55421 0.75978 0.0
C1051 C 0.29453 0.54492 0.75701 0.0
H1052 H 0.72812 0.41556 0.91706 0.0
H1053 H 0.81403 0.33932 0.93207 0.0
H1054 H 0.73431 0.2477 0.9281 0.0
H1055 H 0.63844 0.19044 0.92052 0.0
H1056 H 0.55962 0.27134 0.90424 0.0
H1057 H 0.63913 0.36072 0.9083 0.0
C1058 C 0.72937 0.37876 0.91945 0.0
C1059 C 0.77622 0.38356 0.92485 0.0
C1060 C 0.6852 0.3275 0.91671 0.0
C1061 C 0.77777 0.33611 0.92802 0.0
C1062 C 0.7326 0.28407 0.92563 0.0
C1063 C 0.63991 0.22781 0.91757 0.0
C1064 C 0.59421 0.22484 0.91187 0.0
C1065 C 0.6861 0.27933 0.91992 0.0
C1066 C 0.59526 0.27305 0.9083 0.0
C1067 C 0.64018 0.32401 0.91078 0.0
H1068 H 0.1717 0.89863 0.01856 0.0
H1069 H 0.12542 0.88662 0.98294 0.0
H1070 H 0.17157 0.98723 0.98161 0.0
H1071 H 0.22202 0.07732 0.99083 0.0
H1072 H 0.27502 0.09008 0.02604 0.0
H1073 H 0.22919 0.98956 0.02736 0.0
C1074 C 0.17216 0.91838 0.01051 0.0
C1075 C 0.14509 0.88622 1.00088 0.0
C1076 C 0.19938 0.9757 0.00981 0.0
C1077 C 0.14622 0.91126 0.99041 0.0
C1078 C 0.17224 0.96844 0.98969 0.0
C1079 C 0.223 0.05804 0.99884 0.0
C1080 C 0.25033 0.09056 0.00845 0.0
C1081 C 0.19822 0.00087 0.99939 0.0
C1082 C 0.25328 0.06549 0.01863 0.0
C1083 C 0.22732 0.00828 0.01936 0.0
H1084 H 0.17434 0.09806 0.16529 0.0
H1085 H 0.3369 0.24012 0.16389 0.0
H1086 H 0.29805 0.30008 0.16749 0.0
H1087 H 0.21708 0.31143 0.17149 0.0
H1088 H 0.05578 0.16767 0.17286 0.0
H1089 H 0.09529 0.10883 0.16926 0.0
C1090 C 0.20144 0.1422 0.16564 0.0
C1091 C 0.25845 0.16445 0.16428 0.0
C1092 C 0.17913 0.17599 0.16805 0.0
C1093 C 0.29276 0.22183 0.16475 0.0
C1094 C 0.27064 0.25609 0.16698 0.0
C1095 C 0.19097 0.26713 0.17129 0.0
C1096 C 0.13372 0.24366 0.17264 0.0
C1097 C 0.2139 0.2335 0.16885 0.0
C1098 C 0.1 0.18642 0.17201 0.0
C1099 C 0.12247 0.15286 0.16981 0.0
H1100 H 0.07423 0.18417 0.34377 0.0
H1101 H 0.08794 0.32097 0.32409 0.0
H1102 H 0.98795 0.28163 0.32498 0.0
H1103 H 0.89685 0.20896 0.33188 0.0
H1104 H 0.88511 0.07281 0.3513 0.0
H1105 H 0.98508 0.11246 0.35035 0.0
C1106 C 0.05559 0.20543 0.33957 0.0
C1107 C 0.08864 0.25554 0.33387 0.0
C1108 C -0.00126 0.1834 0.34036 0.0
C1109 C 0.06347 0.28222 0.32848 0.0
C1110 C 0.0064 0.26004 0.32909 0.0
C1111 C 0.91669 0.18887 0.33608 0.0
C1112 C 0.88469 0.13907 0.34193 0.0
C1113 C 0.9738 0.2111 0.33518 0.0
C1114 C 0.9097 0.11186 0.34701 0.0
C1115 C 0.9665 0.13418 0.34635 0.0
H1116 H 0.72867 0.9097 0.49017 0.0
H1117 H 0.72902 0.88735 0.52677 0.0
H1118 H 0.78116 0.98737 0.52949 0.0
H1119 H 0.82832 0.08025 0.5213 0.0
H1120 H 0.82163 0.10263 0.4848 0.0
H1121 H 0.76962 0.0028 0.48211 0.0
C1122 C 0.74014 0.92699 0.49873 0.0
C1123 C 0.72602 0.89198 0.50827 0.0
C1124 C 0.76884 0.984 0.50019 0.0
C1125 C 0.73977 0.91406 0.51936 0.0
C1126 C 0.76964 0.97096 0.52088 0.0
C1127 C 0.81575 0.06317 0.51275 0.0
C1128 C 0.82953 0.09831 0.50321 0.0
C1129 C 0.78483 0.00618 0.51134 0.0
C1130 C 0.81178 0.07607 0.49222 0.0
C1131 C 0.78214 0.01921 0.4907 0.0
H1132 H 0.81989 0.73134 0.65708 0.0
H1133 H 0.86601 0.76465 0.69271 0.0
H1134 H 0.82045 0.82 0.69406 0.0
H1135 H 0.76901 0.85934 0.68496 0.0
H1136 H 0.71609 0.81993 0.64973 0.0
H1137 H 0.76276 0.7658 0.6483 0.0
C1138 C 0.81976 0.75083 0.66512 0.0
C1139 C 0.84651 0.74497 0.67477 0.0
C1140 C 0.79258 0.78125 0.66585 0.0
C1141 C 0.84558 0.76907 0.68523 0.0
C1142 C 0.81978 0.80067 0.68596 0.0
C1143 C 0.76813 0.83935 0.67692 0.0
C1144 C 0.74026 0.84449 0.66737 0.0
C1145 C 0.79358 0.80732 0.6763 0.0
C1146 C 0.7379 0.81701 0.65714 0.0
C1147 C 0.76445 0.7861 0.65633 0.0
H1148 H 0.90907 0.75753 0.8512 0.0
H1149 H 0.8896 0.71527 0.81524 0.0
H1150 H 0.98997 0.76532 0.81281 0.0
H1151 H 0.08274 0.82336 0.82097 0.0
H1152 H 0.1013 0.85802 0.85726 0.0
H1153 H 0.00105 0.80849 0.8596 0.0
C1154 C 0.92686 0.75952 0.84282 0.0
C1155 C 0.89242 0.73398 0.83334 0.0
C1156 C 0.98402 0.78698 0.84159 0.0
C1157 C 0.91562 0.73521 0.8226 0.0
C1158 C 0.97278 0.76381 0.82123 0.0
C1159 C 0.06452 0.82005 0.82936 0.0
C1160 C 0.09856 0.84487 0.83893 0.0
C1161 C 0.00726 0.79029 0.83065 0.0
C1162 C 0.07535 0.83942 0.84983 0.0
C1163 C 0.01831 0.81125 0.85114 0.0
H1164 H 0.48211 0.13178 0.94546 0.0
H1165 H 0.35963 0.13461 0.92335 0.0
H1166 H 0.32549 0.16469 0.93931 0.0
H1167 H 0.33831 0.20287 0.9586 0.0
H1168 H 0.4637 0.20657 0.98069 0.0
H1169 H 0.49016 0.16345 0.96553 0.0
C1170 C 0.44767 0.13857 0.94413 0.0
C1171 C 0.42437 0.13165 0.93305 0.0
C1172 C 0.42988 0.15888 0.95324 0.0
C1173 C 0.3785 0.13897 0.93168 0.0
C1174 C 0.35942 0.15725 0.94079 0.0
C1175 C 0.37153 0.19436 0.96014 0.0
C1176 C 0.39976 0.20902 0.97069 0.0
C1177 C 0.38629 0.16958 0.95144 0.0
C1178 C 0.44172 0.19632 0.9726 0.0
C1179 C 0.4567 0.1715 0.96395 0.0
H1180 H 0.11547 0.36434 0.12333 0.0
H1181 H 0.2446 0.42564 0.14874 0.0
H1182 H 0.31179 0.43957 0.13375 0.0
H1183 H 0.33431 0.44005 0.11315 0.0
H1184 H 0.20356 0.38041 0.08809 0.0
H1185 H 0.13642 0.35789 0.10331 0.0
C1186 C 0.15829 0.38076 0.12566 0.0
C1187 C 0.17496 0.39469 0.13716 0.0
C1188 C 0.19636 0.38802 0.11706 0.0
C1189 C 0.23063 0.41525 0.13995 0.0
C1190 C 0.26902 0.42288 0.13139 0.0
C1191 C 0.29096 0.42098 0.11105 0.0
C1192 C 0.27431 0.41205 0.09942 0.0
C1193 C 0.2524 0.40995 0.11987 0.0
C1194 C 0.21784 0.38691 0.0969 0.0
C1195 C 0.17933 0.37495 0.10561 0.0
H1196 H 0.88007 0.33374 0.2805 0.0
H1197 H 0.80224 0.20367 0.2555 0.0
H1198 H 0.75767 0.13697 0.27078 0.0
H1199 H 0.7343 0.11628 0.29097 0.0
H1200 H 0.81028 0.24465 0.31637 0.0
H1201 H 0.86113 0.31138 0.30119 0.0
C1202 C 0.85449 0.29055 0.27844 0.0
C1203 C 0.84511 0.27386 0.26683 0.0
C1204 C 0.82745 0.25229 0.28731 0.0
C1205 C 0.81153 0.21772 0.26431 0.0
C1206 C 0.78506 0.17956 0.27306 0.0
C1207 C 0.76196 0.15883 0.29324 0.0
C1208 C 0.76792 0.17539 0.30481 0.0
C1209 C 0.79158 0.1966 0.28453 0.0
C1210 C 0.80432 0.23077 0.30753 0.0
C1211 C 0.83373 0.26889 0.29886 0.0
H1212 H 0.55347 0.79514 0.42866 0.0
H1213 H 0.54893 0.92505 0.44734 0.0
H1214 H 0.57032 0.89313 0.46528 0.0
H1215 H 0.58587 0.8243 0.47576 0.0
H1216 H 0.58267 0.69099 0.45656 0.0
H1217 H 0.56742 0.72717 0.43887 0.0
C1218 C 0.55911 0.81755 0.43661 0.0
C1219 C 0.55204 0.8637 0.43664 0.0
C1220 C 0.56838 0.79721 0.44688 0.0
C1221 C 0.55638 0.8907 0.44708 0.0
C1222 C 0.56762 0.87181 0.45734 0.0
C1223 C 0.58144 0.80307 0.46771 0.0
C1224 C 0.58582 0.75506 0.46754 0.0
C1225 C 0.57274 0.82436 0.4574 0.0
C1226 C 0.58 0.72818 0.457 0.0
C1227 C 0.57148 0.74896 0.44682 0.0
H1228 H 0.64586 0.54882 0.6156 0.0
H1229 H 0.77456 0.61138 0.59006 0.0
H1230 H 0.84299 0.63259 0.60494 0.0
H1231 H 0.86569 0.62462 0.62478 0.0
H1232 H 0.73861 0.56125 0.65064 0.0
H1233 H 0.6701 0.54779 0.63601 0.0
C1234 C 0.68905 0.56835 0.61333 0.0
C1235 C 0.70474 0.57849 0.60166 0.0
C1236 C 0.72837 0.5787 0.62194 0.0
C1237 C 0.76102 0.60403 0.59892 0.0
C1238 C 0.80027 0.61521 0.60743 0.0
C1239 C 0.82301 0.60773 0.62727 0.0
C1240 C 0.8073 0.59315 0.6388 0.0
C1241 C 0.7842 0.60102 0.61889 0.0
C1242 C 0.75183 0.57217 0.64183 0.0
C1243 C 0.7127 0.56482 0.63347 0.0
H1244 H 0.15765 0.79125 0.8045 0.0
H1245 H 0.32729 0.83524 0.7999 0.0
H1246 H 0.30354 0.78006 0.78239 0.0
H1247 H 0.23665 0.72502 0.7679 0.0
H1248 H 0.0665 0.68083 0.77153 0.0
H1249 H 0.08837 0.73214 0.78977 0.0
C1250 C 0.18893 0.78755 0.79975 0.0
C1251 C 0.24401 0.81627 0.8035 0.0
C1252 C 0.17509 0.75707 0.78944 0.0
C1253 C 0.28469 0.81278 0.79719 0.0
C1254 C 0.27116 0.78169 0.78716 0.0
C1255 C 0.20397 0.72581 0.77275 0.0
C1256 C 0.14977 0.69832 0.76848 0.0
C1257 C 0.21682 0.75459 0.78313 0.0
C1258 C 0.10842 0.70146 0.77466 0.0
C1259 C 0.12095 0.73045 0.78511 0.0
H1260 H 0.80313 0.57394 0.91413 0.0
H1261 H 0.90643 0.53164 0.89435 0.0
H1262 H 0.87291 0.55131 0.87648 0.0
H1263 H 0.8095 0.57588 0.86646 0.0
H1264 H 0.70334 0.61302 0.88683 0.0
H1265 H 0.74167 0.59902 0.90437 0.0
C1266 C 0.81978 0.57101 0.90592 0.0
C1267 C 0.85855 0.55318 0.90557 0.0
C1268 C 0.79844 0.57989 0.89573 0.0
C1269 C 0.87785 0.547 0.89483 0.0
C1270 C 0.85795 0.55734 0.88462 0.0
C1271 C 0.79454 0.58046 0.87473 0.0
C1272 C 0.75349 0.59556 0.87526 0.0
C1273 C 0.81726 0.57272 0.88494 0.0
C1274 C 0.73492 0.60163 0.8861 0.0
C1275 C 0.75704 0.59391 0.89618 0.0
H1276 H 0.21323 0.78574 0.08066 0.0
H1277 H 0.35998 0.88904 0.06141 0.0
H1278 H 0.30753 0.85923 0.04336 0.0
H1279 H 0.21973 0.7989 0.03307 0.0
H1280 H 0.07562 0.69146 0.05296 0.0
H1281 H 0.12722 0.72668 0.07064 0.0
C1282 C 0.23327 0.80284 0.07252 0.0
C1283 C 0.28979 0.84071 0.07233 0.0
C1284 C 0.20349 0.78355 0.06225 0.0
C1285 C 0.31606 0.86097 0.06173 0.0
C1286 C 0.28621 0.84331 0.05143 0.0
C1287 C 0.19981 0.78305 0.04127 0.0
C1288 C 0.14367 0.74253 0.04162 0.0
C1289 C 0.22996 0.80366 0.05156 0.0
C1290 C 0.11857 0.7227 0.05236 0.0
C1291 C 0.148 0.74298 0.06253 0.0
H1292 H 0.50329 0.27075 0.23689 0.0
H1293 H 0.35497 0.27976 0.24176 0.0
H1294 H 0.31443 0.22123 0.2249 0.0
H1295 H 0.32088 0.16596 0.20891 0.0
H1296 H 0.47407 0.16867 0.203 0.0
H1297 H 0.51395 0.22649 0.21998 0.0
C1298 C 0.46282 0.26209 0.23416 0.0
C1299 C 0.43276 0.28072 0.24071 0.0
C1300 C 0.4406 0.23033 0.22424 0.0
C1301 C 0.37921 0.26589 0.23709 0.0
C1302 C 0.35603 0.2326 0.22737 0.0
C1303 C 0.36303 0.17947 0.21137 0.0
C1304 C 0.39441 0.16255 0.20487 0.0
C1305 C 0.38621 0.21417 0.22095 0.0
C1306 C 0.44924 0.18105 0.20793 0.0
C1307 C 0.47191 0.21395 0.21763 0.0
H1308 H 0.13295 0.47603 0.39864 0.0
H1309 H 0.1542 0.36722 0.42166 0.0
H1310 H 0.18631 0.33424 0.40578 0.0
H1311 H 0.21813 0.34321 0.38597 0.0
H1312 H 0.20173 0.45446 0.36284 0.0
H1313 H 0.15976 0.48078 0.37825 0.0
C1314 C 0.14405 0.44465 0.40017 0.0
C1315 C 0.14138 0.42464 0.41145 0.0
C1316 C 0.16494 0.42741 0.39105 0.0
C1317 C 0.15492 0.38311 0.41315 0.0
C1318 C 0.17432 0.36481 0.40407 0.0
C1319 C 0.20555 0.37334 0.38424 0.0
C1320 C 0.21403 0.39742 0.37325 0.0
C1321 C 0.18125 0.388 0.3931 0.0
C1322 C 0.19646 0.43572 0.37122 0.0
C1323 C 0.17215 0.45056 0.38002 0.0
H1324 H 0.74157 0.20026 0.53302 0.0
H1325 H 0.89896 0.26324 0.54979 0.0
H1326 H 0.85383 0.22243 0.56782 0.0
H1327 H 0.77052 0.17833 0.57951 0.0
H1328 H 0.61255 0.11972 0.56353 0.0
H1329 H 0.65648 0.14797 0.54465 0.0
C1330 C 0.76583 0.20465 0.54061 0.0
C1331 C 0.82365 0.23579 0.54003 0.0
C1332 C 0.73944 0.18159 0.55117 0.0
C1333 C 0.85444 0.24067 0.54997 0.0
C1334 C 0.82868 0.21697 0.56033 0.0
C1335 C 0.7456 0.16995 0.57184 0.0
C1336 C 0.68843 0.14666 0.57291 0.0
C1337 C 0.77131 0.18848 0.56111 0.0
C1338 C 0.65671 0.13725 0.5629 0.0
C1339 C 0.68189 0.154 0.55212 0.0
H1340 H 0.53784 0.65707 0.72758 0.0
H1341 H 0.59681 0.78542 0.75312 0.0
H1342 H 0.61836 0.85378 0.73817 0.0
H1343 H 0.61511 0.87685 0.71811 0.0
H1344 H 0.5559 0.74986 0.69226 0.0
H1345 H 0.53861 0.6812 0.70709 0.0
C1346 C 0.55668 0.7002 0.72983 0.0
C1347 C 0.56642 0.71598 0.74149 0.0
C1348 C 0.56758 0.73941 0.72117 0.0
C1349 C 0.59033 0.77204 0.74424 0.0
C1350 C 0.6017 0.81117 0.7357 0.0
C1351 C 0.59825 0.83416 0.71567 0.0
C1352 C 0.58645 0.81866 0.70405 0.0
C1353 C 0.58942 0.79519 0.72418 0.0
C1354 C 0.56487 0.76303 0.70112 0.0
C1355 C 0.55539 0.72377 0.7096 0.0
H1356 H 0.55181 0.44654 0.99844 0.0
H1357 H 0.57784 0.33345 0.01906 0.0
H1358 H 0.67652 0.38691 0.01538 0.0
H1359 H 0.75276 0.45877 0.00445 0.0
H1360 H 0.72701 0.56913 0.98305 0.0
H1361 H 0.62971 0.52345 0.98884 0.0
C1362 C 0.57915 0.43386 1.0022 0.0
C1363 C 0.55782 0.38555 0.00875 0.0
C1364 C 0.63523 0.46374 0.99978 0.0
C1365 C 0.59352 0.37018 0.01385 0.0
C1366 C 0.64973 0.4005 0.01171 0.0
C1367 C 0.72553 0.47268 1.00114 0.0
C1368 C 0.74536 0.51592 0.99326 0.0
C1369 C 0.67051 0.44603 0.00437 0.0
C1370 C 0.71124 0.53497 0.989 0.0
C1371 C 0.65618 0.50912 0.99234 0.0
H1372 H 0.11378 0.5513 0.15581 0.0
H1373 H 0.20042 0.58195 0.18804 0.0
H1374 H 0.23406 0.68022 0.18603 0.0
H1375 H 0.24611 0.75725 0.17422 0.0
H1376 H 0.16899 0.72786 0.14097 0.0
H1377 H 0.12338 0.62841 0.14427 0.0
C1378 C 0.13978 0.57945 0.16243 0.0
C1379 C 0.15462 0.55965 0.17207 0.0
C1380 C 0.1604 0.63575 0.16101 0.0
C1381 C 0.18851 0.59642 0.18055 0.0
C1382 C 0.20767 0.65247 0.17941 0.0
C1383 C 0.21807 0.72892 0.16786 0.0
C1384 C 0.21004 0.74904 0.15745 0.0
C1385 C 0.19466 0.67252 0.16958 0.0
C1386 C 0.17504 0.7126 0.14907 0.0
C1387 C 0.14948 0.65609 0.15093 0.0
H1388 H 0.54043 0.29631 0.32664 0.0
H1389 H 0.38881 0.14196 0.32865 0.0
H1390 H 0.43951 0.09604 0.33501 0.0
H1391 H 0.52775 0.10058 0.33928 0.0
H1392 H 0.67785 0.25689 0.33849 0.0
H1393 H 0.62677 0.30219 0.33235 0.0
C1394 C 0.51875 0.25243 0.32832 0.0
C1395 C 0.46167 0.22179 0.3269 0.0
C1396 C 0.54769 0.22726 0.33224 0.0
C1397 C 0.43313 0.16559 0.32949 0.0
C1398 C 0.46195 0.13967 0.33316 0.0
C1399 C 0.54888 0.14463 0.33786 0.0
C1400 C 0.60602 0.17572 0.33922 0.0
C1401 C 0.51926 0.17017 0.33449 0.0
C1402 C 0.6336 0.23267 0.33755 0.0
C1403 C 0.60461 0.25833 0.33396 0.0
H1404 H 0.25602 0.46753 0.48266 0.0
H1405 H 0.21144 0.49149 0.51676 0.0
H1406 H 0.3082 0.5472 0.52191 0.0
H1407 H 0.40442 0.5959 0.51611 0.0
H1408 H 0.45044 0.57051 0.48229 0.0
H1409 H 0.35376 0.50916 0.4775 0.0
C1410 C 0.26779 0.48474 0.49122 0.0
C1411 C 0.22725 0.47608 0.49931 0.0
C1412 C 0.32333 0.51694 0.49409 0.0
C1413 C 0.24235 0.49761 0.51044 0.0
C1414 C 0.29748 0.52975 0.51336 0.0
C1415 C 0.39326 0.57634 0.50776 0.0
C1416 C 0.43394 0.58771 0.49954 0.0
C1417 C 0.33813 0.5407 0.50516 0.0
C1418 C 0.41939 0.56221 0.48873 0.0
C1419 C 0.3643 0.52727 0.48599 0.0
H1420 H 0.87088 0.44226 0.65613 0.0
H1421 H 0.79119 0.41398 0.68915 0.0
H1422 H 0.75528 0.31544 0.68712 0.0
H1423 H 0.73894 0.23759 0.6752 0.0
H1424 H 0.8092 0.26404 0.64128 0.0
H1425 H 0.8569 0.36374 0.64438 0.0
C1426 C 0.84596 0.4145 0.66291 0.0
C1427 C 0.8337 0.43507 0.67279 0.0
C1428 C 0.82375 0.35792 0.66148 0.0
C1429 C 0.80113 0.39889 0.68148 0.0
C1430 C 0.7806 0.34267 0.68032 0.0
C1431 C 0.76583 0.26527 0.66861 0.0
C1432 C 0.77124 0.24422 0.65809 0.0
C1433 C 0.79077 0.3218 0.67027 0.0
C1434 C 0.8049 0.27996 0.64945 0.0
C1435 C 0.8318 0.33664 0.65121 0.0
H1436 H 0.48681 0.72681 0.84123 0.0
H1437 H 0.56163 0.82609 0.81124 0.0
H1438 H 0.51356 0.87783 0.81496 0.0
H1439 H 0.44297 0.88683 0.82561 0.0
H1440 H 0.36006 0.77823 0.85412 0.0
H1441 H 0.41921 0.73792 0.85223 0.0
C1442 C 0.49323 0.76059 0.83567 0.0
C1443 C 0.52742 0.77351 0.82607 0.0
C1444 C 0.46375 0.78768 0.83755 0.0
C1445 C 0.53529 0.81621 0.8187 0.0
C1446 C 0.50779 0.84534 0.82081 0.0
C1447 C 0.43826 0.85471 0.83147 0.0
C1448 C 0.39729 0.83528 0.83996 0.0
C1449 C 0.47073 0.83025 0.83003 0.0
C1450 C 0.39128 0.79359 0.84749 0.0
C1451 C 0.42498 0.77056 0.84642 0.0
H1452 H 0.65947 0.41155 0.83649 0.0
H1453 H 0.5211 0.43727 0.83238 0.0
H1454 H 0.45747 0.33914 0.83518 0.0
H1455 H 0.44191 0.24824 0.84087 0.0
H1456 H 0.58083 0.22535 0.84717 0.0
H1457 H 0.64398 0.3205 0.84172 0.0
C1458 C 0.61537 0.39524 0.83603 0.0
C1459 C 0.5945 0.43067 0.83421 0.0
C1460 C 0.57942 0.33977 0.83832 0.0
C1461 C 0.53755 0.41002 0.8338 0.0
C1462 C 0.50135 0.35424 0.83545 0.0
C1463 C 0.48601 0.26426 0.84094 0.0
C1464 C 0.50711 0.23072 0.84447 0.0
C1465 C 0.52188 0.31909 0.83806 0.0
C1466 C 0.56413 0.25128 0.84462 0.0
C1467 C 0.60009 0.30532 0.84144 0.0
H1468 H 0.10547 0.53206 1.00235 0.0
H1469 H 0.25796 0.68609 1.00082 0.0
H1470 H 0.30918 0.63935 0.00574 0.0
H1471 H 0.30947 0.55589 0.01162 0.0
H1472 H 0.1582 0.40089 0.01222 0.0
H1473 H 0.10674 0.4468 0.00644 0.0
C1474 C 0.14998 0.55508 1.00297 0.0
C1475 C 0.17821 0.61214 1.00137 0.0
C1476 C 0.17885 0.52801 0.00573 0.0
C1477 C 0.23574 0.64193 1.00199 0.0
C1478 C 0.26485 0.6154 0.00489 0.0
C1479 C 0.26515 0.53248 0.01056 0.0
C1480 C 0.23694 0.47585 0.01258 0.0
C1481 C 0.23663 0.55877 0.00702 0.0
C1482 C 0.18002 0.44492 0.01086 0.0
C1483 C 0.15092 0.47102 0.00753 0.0
H1484 H 0.75336 0.25675 0.16506 0.0
H1485 H 0.72907 0.16878 0.19682 0.0
H1486 H 0.62951 0.11682 0.19327 0.0
H1487 H 0.55006 0.10603 0.18228 0.0
H1488 H 0.57596 0.20581 0.15214 0.0
H1489 H 0.67494 0.24347 0.15377 0.0
C1490 C 0.72622 0.2251 0.17104 0.0
C1491 C 0.74756 0.21582 0.18111 0.0
C1492 C 0.6697 0.19834 0.16926 0.0
C1493 C 0.71271 0.17594 0.18899 0.0
C1494 C 0.65617 0.14673 0.18698 0.0
C1495 C 0.57739 0.13563 0.17601 0.0
C1496 C 0.55603 0.15315 0.16709 0.0
C1497 C 0.63419 0.15911 0.17734 0.0
C1498 C 0.59166 0.19179 0.15908 0.0
C1499 C 0.64812 0.2133 0.16 0.0
H1500 H 0.34193 0.58004 0.33207 0.0
H1501 H 0.46993 0.54126 0.33907 0.0
H1502 H 0.53421 0.63781 0.34348 0.0
H1503 H 0.54994 0.73105 0.34759 0.0
H1504 H 0.41795 0.76568 0.34241 0.0
H1505 H 0.35878 0.67285 0.33508 0.0
C1506 C 0.38413 0.59294 0.3344 0.0
C1507 C 0.40124 0.55405 0.33544 0.0
C1508 C 0.41961 0.64746 0.33745 0.0
C1509 C 0.45591 0.57086 0.33842 0.0
C1510 C 0.4925 0.62583 0.34096 0.0
C1511 C 0.50821 0.71778 0.34482 0.0
C1512 C 0.48727 0.75367 0.34568 0.0
C1513 C 0.47413 0.66405 0.34092 0.0
C1514 C 0.43379 0.73746 0.34198 0.0
C1515 C 0.4003 0.68483 0.33775 0.0
H1516 H 0.71289 0.48155 0.50379 0.0
H1517 H 0.83865 0.57869 0.52843 0.0
H1518 H 0.88933 0.53095 0.52326 0.0
H1519 H 0.89151 0.4555 0.51314 0.0
H1520 H 0.76109 0.3544 0.48951 0.0
H1521 H 0.71847 0.41082 0.49268 0.0
C1522 C 0.75173 0.49233 0.50791 0.0
C1523 C 0.77246 0.53253 0.51648 0.0
C1524 C 0.77924 0.46418 0.50509 0.0
C1525 C 0.82241 0.54711 0.52188 0.0
C1526 C 0.85107 0.52004 0.51891 0.0
C1527 C 0.85408 0.44618 0.5086 0.0
C1528 C 0.82875 0.40038 0.50129 0.0
C1529 C 0.82901 0.47756 0.51074 0.0
C1530 C 0.78079 0.38908 0.49531 0.0
C1531 C 0.7564 0.42116 0.49712 0.0
H1532 H 0.25507 0.81603 0.67638 0.0
H1533 H 0.23102 0.65227 0.67905 0.0
H1534 H 0.32459 0.68447 0.67225 0.0
H1535 H 0.41488 0.76014 0.66701 0.0
H1536 H 0.44322 0.92586 0.66654 0.0
H1537 H 0.34593 0.89222 0.67067 0.0
C1538 C 0.27067 0.78776 0.6754 0.0
C1539 C 0.23734 0.73236 0.67828 0.0
C1540 C 0.32482 0.80684 0.67181 0.0
C1541 C 0.25699 0.69541 0.67702 0.0
C1542 C 0.31009 0.71365 0.67308 0.0
C1543 C 0.39937 0.78863 0.66763 0.0
C1544 C 0.4354 0.84505 0.66648 0.0
C1545 C 0.34459 0.76938 0.67063 0.0
C1546 C 0.41563 0.88207 0.66745 0.0
C1547 C 0.36031 0.86295 0.66985 0.0
H1548 H 0.43626 0.24677 0.12181 0.0
H1549 H 0.52618 0.17996 0.10596 0.0
H1550 H 0.51872 0.21484 0.08721 0.0
H1551 H 0.45182 0.2281 0.07504 0.0
H1552 H 0.34669 0.27852 0.09171 0.0
H1553 H 0.38986 0.28369 0.11018 0.0
C1554 C 0.45494 0.24086 0.11418 0.0
C1555 C 0.46672 0.1979 0.11403 0.0
C1556 C 0.44335 0.25528 0.10346 0.0
C1557 C 0.50419 0.20248 0.1054 0.0
C1558 C 0.49959 0.22185 0.09461 0.0
C1559 C 0.43888 0.24031 0.08274 0.0
C1560 C 0.3941 0.24931 0.08235 0.0
C1561 C 0.46261 0.24152 0.09339 0.0
C1562 C 0.37915 0.26819 0.09214 0.0
C1563 C 0.40454 0.27243 0.10261 0.0
H1564 H 0.13729 0.47352 0.24459 0.0
H1565 H 0.23339 0.42956 0.2226 0.0
H1566 H 0.3052 0.46167 0.23722 0.0
H1567 H 0.31535 0.45907 0.25776 0.0
H1568 H 0.19781 0.46666 0.28047 0.0
H1569 H 0.1611 0.4946 0.26442 0.0
C1570 C 0.17495 0.47312 0.24269 0.0
C1571 C 0.1787 0.44596 0.23283 0.0
C1572 C 0.21165 0.48405 0.25168 0.0
C1573 C 0.22869 0.44809 0.23037 0.0
C1574 C 0.26937 0.46593 0.23879 0.0
C1575 C 0.28348 0.4695 0.25931 0.0
C1576 C 0.25754 0.45878 0.27012 0.0
C1577 C 0.25775 0.47733 0.24986 0.0
C1578 C 0.21722 0.47338 0.27213 0.0
C1579 C 0.19596 0.48864 0.26291 0.0
H1580 H 0.7733 0.2342 0.43414 0.0
H1581 H 0.92655 0.28162 0.41688 0.0
H1582 H 0.88671 0.28462 0.39848 0.0
H1583 H 0.80233 0.24509 0.38728 0.0
H1584 H 0.64756 0.18115 0.40402 0.0
H1585 H 0.69223 0.21968 0.42231 0.0
C1586 C 0.79756 0.2454 0.42632 0.0
C1587 C 0.8511 0.25391 0.42653 0.0
C1588 C 0.77396 0.24537 0.41573 0.0
C1589 C 0.88388 0.27158 0.41659 0.0
C1590 C 0.86165 0.27454 0.40616 0.0
C1591 C 0.77863 0.24113 0.39494 0.0
C1592 C 0.72377 0.19909 0.39541 0.0
C1593 C 0.80571 0.25738 0.40552 0.0
C1594 C 0.69201 0.20435 0.40421 0.0
C1595 C 0.71736 0.22566 0.41478 0.0
H1596 H 0.54223 0.8055 0.55302 0.0
H1597 H 0.4546 0.64893 0.56888 0.0
H1598 H 0.46318 0.69088 0.58768 0.0
H1599 H 0.53051 0.77052 0.59975 0.0
H1600 H 0.6341 0.92552 0.58301 0.0
H1601 H 0.58933 0.88814 0.56466 0.0
C1602 C 0.52403 0.78083 0.56065 0.0
C1603 C 0.51228 0.72621 0.56064 0.0
C1604 C 0.53644 0.80652 0.5714 0.0
C1605 C 0.47605 0.69328 0.56943 0.0
C1606 C 0.48141 0.71704 0.58025 0.0
C1607 C 0.54268 0.79569 0.59206 0.0
C1608 C 0.58725 0.84922 0.5924 0.0
C1609 C 0.51816 0.77346 0.58146 0.0
C1610 C 0.60149 0.88302 0.58262 0.0
C1611 C 0.57525 0.86219 0.57222 0.0
H1612 H 0.86072 0.53555 0.75156 0.0
H1613 H 0.73771 0.53301 0.72891 0.0
H1614 H 0.67079 0.49839 0.74457 0.0
H1615 H 0.66384 0.51031 0.76474 0.0
H1616 H 0.80168 0.55077 0.78708 0.0
H1617 H 0.84461 0.52457 0.77199 0.0
C1618 C 0.81849 0.52486 0.74989 0.0
C1619 C 0.80421 0.53835 0.73926 0.0
C1620 C 0.78324 0.51247 0.7592 0.0
C1621 C 0.74955 0.52399 0.73713 0.0
C1622 C 0.71166 0.50464 0.74611 0.0
C1623 C 0.70226 0.51134 0.76656 0.0
C1624 C 0.73181 0.53651 0.77668 0.0
C1625 C 0.73021 0.50505 0.75735 0.0
C1626 C 0.7796 0.53416 0.77911 0.0
C1627 C 0.80442 0.51998 0.77041 0.0
H1628 H 0.16576 0.67679 0.9375 0.0
H1629 H 0.22231 0.82563 0.95703 0.0
H1630 H 0.28567 0.87777 0.94159 0.0
H1631 H 0.28778 0.88424 0.92071 0.0
H1632 H 0.2054 0.73803 0.89997 0.0
H1633 H 0.18529 0.68107 0.91729 0.0
C1634 C 0.19295 0.72051 0.93861 0.0
C1635 C 0.18429 0.74891 0.94763 0.0
C1636 C 0.2213 0.75062 0.92897 0.0
C1637 C 0.22496 0.80365 0.94962 0.0
C1638 C 0.26012 0.83365 0.94066 0.0
C1639 C 0.26734 0.83983 0.91998 0.0
C1640 C 0.24682 0.81464 0.9093 0.0
C1641 C 0.2528 0.80833 0.9299 0.0
C1642 C 0.2202 0.75753 0.90824 0.0
C1643 C 0.2092 0.72537 0.9181 0.0
loop_
_geom_bond_atom_site_label_1
_geom_bond_atom_site_label_2
_geom_bond_distance
_geom_bond_site_symmetry_2
_ccdc_geom_bond_type
C0 C1 1.359 . S
C0 N5 1.330 . S
C0 C61 1.504 . S
C1 C0 1.359 . S
C1 C2 1.366 . S
C1 H63 0.929 . S
C2 C1 1.366 . S
C2 C3 1.415 . S
C2 H64 0.932 . S
C3 C2 1.415 . S
C3 C4 1.366 . S
C3 H65 0.931 . S
C4 C3 1.366 . S
C4 N5 1.325 . S
C4 C6 1.516 . S
N5 C0 1.330 . S
N5 C4 1.325 . S
N5 Co21 1.869 . S
C6 C4 1.516 . S
C6 N30 1.316 . S
C6 O53 1.263 . S
C7 C8 1.421 . S
C7 C12 1.360 . S
C7 N30 1.436 . S
C8 C7 1.421 . S
C8 C9 1.379 . S
C8 H66 0.929 . S
C9 C8 1.379 . S
C9 C10 1.417 . S
C10 C9 1.417 . S
C10 C11 1.352 . S
C10 H67 0.929 . S
C11 C10 1.352 . S
C11 C12 1.393 . S
C12 C7 1.360 . S
C12 C11 1.393 . S
C12 H68 0.931 . S
Cd13 O33 2.329 1_554 S
Cd13 O35 2.350 . S
Cd13 O36 2.277 . S
Cd13 O38 2.173 . S
Cd13 O42 2.263 . S
Cd13 O53 2.366 . S
Cd14 O32 2.352 . S
Cd14 O39 2.250 . S
Cd14 O43 2.308 . S
C15 C19 1.403 . S
C15 C20 1.370 . S
C15 N31 1.423 . S
C16 C17 1.389 . S
C16 C20 1.389 . S
C17 C16 1.389 . S
C17 C18 1.379 . S
C17 H69 0.929 . S
C18 C17 1.379 . S
C18 C19 1.405 . S
C19 C15 1.403 . S
C19 C18 1.405 . S
C19 H70 0.932 . S
C20 C15 1.370 . S
C20 C16 1.389 . S
C20 H71 0.931 . S
Co21 N5 1.869 . S
Co21 N22 1.955 . S
Co21 N23 1.864 . S
Co21 N29 1.958 . S
Co21 N30 1.953 . S
Co21 N31 1.974 . S
N22 Co21 1.955 . S
N22 C40 1.329 . S
N22 C55 1.432 . S
N23 Co21 1.864 . S
N23 C24 1.327 . S
N23 C28 1.342 . S
C24 N23 1.327 . S
C24 C25 1.407 . S
C24 C40 1.481 . S
C25 C24 1.407 . S
C25 C26 1.364 . S
C25 H72 0.930 . S
C26 C25 1.364 . S
C26 C27 1.390 . S
C26 H73 0.931 . S
C27 C26 1.390 . S
C27 C28 1.346 . S
C27 H74 0.930 . S
C28 N23 1.342 . S
C28 C27 1.346 . S
C28 C44 1.516 . S
N29 Co21 1.958 . S
N29 C44 1.324 . S
N29 C46 1.427 . S
N30 C6 1.316 . S
N30 C7 1.436 . S
N30 Co21 1.953 . S
N31 C15 1.423 . S
N31 Co21 1.974 . S
N31 C61 1.309 . S
O32 Cd14 2.352 . S
O32 C52 1.235 . S
O33 Cd13 2.329 1_556 S
O33 C52 1.270 . S
C34 O35 1.270 . S
C34 O36 1.248 . S
O35 Cd13 2.350 . S
O35 C34 1.270 . S
O36 Cd13 2.277 . S
O36 C34 1.248 . S
C37 O38 1.277 . S
C37 O39 1.230 1_554 S
O38 Cd13 2.173 . S
O38 C37 1.277 . S
O39 Cd14 2.250 . S
O39 C37 1.230 1_556 S
C40 N22 1.329 . S
C40 C24 1.481 . S
C40 O41 1.246 . S
O41 C40 1.246 . S
O42 Cd13 2.263 . S
O42 C54 1.258 1_554 S
O43 Cd14 2.308 . S
O43 C54 1.275 . S
C44 C28 1.516 . S
C44 N29 1.324 . S
C44 O45 1.238 . S
O45 C44 1.238 . S
C46 N29 1.427 . S
C46 C47 1.394 . S
C46 C51 1.395 . S
C47 C46 1.394 . S
C47 C48 1.380 . S
C47 H75 0.929 . S
C48 C47 1.380 . S
C48 C49 1.384 . S
C48 C54 1.493 1_554 S
C49 C48 1.384 . S
C49 C50 1.382 . S
C49 H76 1.010 . S
C50 C49 1.382 . S
C50 C51 1.398 . S
C51 C46 1.395 . S
C51 C50 1.398 . S
C51 H77 0.930 . S
C52 O32 1.235 . S
C52 O33 1.270 . S
O53 C6 1.263 . S
O53 Cd13 2.366 . S
C54 O42 1.258 1_556 S
C54 O43 1.275 . S
C54 C48 1.493 1_556 S
C55 N22 1.432 . S
C55 C56 1.381 . S
C55 C60 1.385 . S
C56 C55 1.381 . S
C56 C57 1.371 . S
C56 H78 0.932 . S
C57 C56 1.371 . S
C57 C58 1.400 . S
C58 C57 1.400 . S
C58 C59 1.351 . S
C58 H79 0.930 . S
C59 C58 1.351 . S
C59 C60 1.388 . S
C60 C55 1.385 . S
C60 C59 1.388 . S
C60 H80 0.929 . S
C61 C0 1.504 . S
C61 N31 1.309 . S
C61 O62 1.258 . S
O62 C61 1.258 . S
H63 C1 0.929 . S
H64 C2 0.932 . S
H65 C3 0.931 . S
H66 C8 0.929 . S
H67 C10 0.929 . S
H68 C12 0.931 . S
H69 C17 0.929 . S
H70 C19 0.932 . S
H71 C20 0.931 . S
H72 C25 0.930 . S
H73 C26 0.931 . S
H74 C27 0.930 . S
H75 C47 0.929 . S
H76 C49 1.010 . S
H77 C51 0.930 . S
H78 C56 0.932 . S
H79 C58 0.930 . S
H80 C60 0.929 . S
C81 C82 1.359 . S
C81 N86 1.330 . S
C81 C142 1.504 . S
C82 C81 1.359 . S
C82 C83 1.366 . S
C82 H144 0.929 . S
C83 C82 1.366 . S
C83 C84 1.415 1_655 S
C83 H145 0.932 1_655 S
C84 C83 1.415 1_455 S
C84 C85 1.366 . S
C84 H146 0.931 . S
C85 C84 1.366 . S
C85 N86 1.325 1_455 S
C85 C87 1.516 . S
N86 C81 1.330 . S
N86 C85 1.325 1_655 S
N86 Co102 1.869 . S
C87 C85 1.516 . S
C87 N111 1.316 . S
C87 O134 1.263 . S
C88 C89 1.421 . S
C88 C93 1.360 . S
C88 N111 1.436 . S
C89 C88 1.421 . S
C89 C90 1.379 . S
C89 H147 0.929 . S
C90 C89 1.379 . S
C90 C91 1.417 . S
C91 C90 1.417 . S
C91 C92 1.352 . S
C91 H148 0.929 . S
C92 C91 1.352 . S
C92 C93 1.393 . S
C93 C88 1.360 . S
C93 C92 1.393 . S
C93 H149 0.931 1_455 S
Cd94 O114 2.329 . S
Cd94 O116 2.350 . S
Cd94 O117 2.277 . S
Cd94 O119 2.173 . S
Cd94 O123 2.263 . S
Cd94 O134 2.366 . S
Cd95 O113 2.352 . S
Cd95 O120 2.250 . S
Cd95 O124 2.308 1_455 S
C96 C100 1.403 . S
C96 C101 1.370 . S
C96 N112 1.423 . S
C97 C98 1.389 . S
C97 C101 1.389 . S
C98 C97 1.389 . S
C98 C99 1.379 . S
C98 H150 0.929 . S
C99 C98 1.379 . S
C99 C100 1.405 . S
C100 C96 1.403 . S
C100 C99 1.405 . S
C100 H151 0.932 . S
C101 C96 1.370 . S
C101 C97 1.389 . S
C101 H152 0.931 . S
Co102 N86 1.869 . S
Co102 N103 1.955 1_655 S
Co102 N104 1.864 . S
Co102 N110 1.958 . S
Co102 N111 1.953 1_655 S
Co102 N112 1.974 . S
N103 Co102 1.955 1_455 S
N103 C121 1.329 . S
N103 C136 1.432 . S
N104 Co102 1.864 . S
N104 C105 1.327 . S
N104 C109 1.342 . S
C105 N104 1.327 . S
C105 C106 1.407 . S
C105 C121 1.481 1_655 S
C106 C105 1.407 . S
C106 C107 1.364 . S
C106 H153 0.930 . S
C107 C106 1.364 . S
C107 C108 1.390 . S
C107 H154 0.931 . S
C108 C107 1.390 . S
C108 C109 1.346 . S
C108 H155 0.930 . S
C109 N104 1.342 . S
C109 C108 1.346 . S
C109 C125 1.516 . S
N110 Co102 1.958 . S
N110 C125 1.324 . S
N110 C127 1.427 . S
N111 C87 1.316 . S
N111 C88 1.436 . S
N111 Co102 1.953 1_455 S
N112 C96 1.423 . S
N112 Co102 1.974 . S
N112 C142 1.309 . S
O113 Cd95 2.352 . S
O113 C133 1.235 . S
O114 Cd94 2.329 . S
O114 C133 1.270 . S
C115 O116 1.270 . S
C115 O117 1.248 . S
O116 Cd94 2.350 . S
O116 C115 1.270 . S
O117 Cd94 2.277 . S
O117 C115 1.248 . S
C118 O119 1.277 . S
C118 O120 1.230 . S
O119 Cd94 2.173 . S
O119 C118 1.277 . S
O120 Cd95 2.250 . S
O120 C118 1.230 . S
C121 N103 1.329 . S
C121 C105 1.481 1_455 S
C121 O122 1.246 . S
O122 C121 1.246 . S
O123 Cd94 2.263 . S
O123 C135 1.258 1_455 S
O124 Cd95 2.308 1_655 S
O124 C135 1.274 . S
C125 C109 1.516 . S
C125 N110 1.324 . S
C125 O126 1.238 . S
O126 C125 1.238 . S
C127 N110 1.427 . S
C127 C128 1.394 . S
C127 C132 1.395 . S
C128 C127 1.394 . S
C128 C129 1.380 . S
C128 H156 0.929 . S
C129 C128 1.380 . S
C129 C130 1.384 . S
C129 C135 1.495 . S
C130 C129 1.384 . S
C130 C131 1.382 . S
C130 H157 0.930 . S
C131 C130 1.382 . S
C131 C132 1.398 . S
C132 C127 1.395 . S
C132 C131 1.398 . S
C132 H158 0.930 . S
C133 O113 1.235 . S
C133 O114 1.270 . S
O134 C87 1.263 . S
O134 Cd94 2.366 . S
C135 O123 1.258 1_655 S
C135 O124 1.274 . S
C135 C129 1.495 . S
C136 N103 1.432 . S
C136 C137 1.381 . S
C136 C141 1.385 . S
C137 C136 1.381 . S
C137 C138 1.371 . S
C137 H159 0.932 1_455 S
C138 C137 1.371 . S
C138 C139 1.400 . S
C139 C138 1.400 . S
C139 C140 1.351 . S
C139 H160 0.930 . S
C140 C139 1.351 . S
C140 C141 1.388 . S
C141 C136 1.385 . S
C141 C140 1.388 . S
C141 H161 0.929 . S
C142 C81 1.504 . S
C142 N112 1.309 . S
C142 O143 1.258 . S
O143 C142 1.258 . S
H144 C82 0.929 . S
H145 C83 0.932 1_455 S
H146 C84 0.931 . S
H147 C89 0.929 . S
H148 C91 0.929 . S
H149 C93 0.931 1_655 S
H150 C98 0.929 . S
H151 C100 0.932 . S
H152 C101 0.931 . S
H153 C106 0.930 . S
H154 C107 0.931 . S
H155 C108 0.930 . S
H156 C128 0.929 . S
H157 C130 0.930 . S
H158 C132 0.930 . S
H159 C137 0.932 1_655 S
H160 C139 0.930 . S
H161 C141 0.929 . S
C162 C163 1.359 . S
C162 N167 1.330 . S
C162 C223 1.504 . S
C163 C162 1.359 . S
C163 C164 1.366 . S
C163 H225 0.929 . S
C164 C163 1.366 . S
C164 C165 1.415 1_565 S
C164 H226 0.932 1_565 S
C165 C164 1.415 1_545 S
C165 C166 1.366 . S
C165 H227 0.931 . S
C166 C165 1.366 . S
C166 N167 1.325 1_545 S
C166 C168 1.516 . S
N167 C162 1.330 . S
N167 C166 1.325 1_565 S
N167 Co183 1.869 . S
C168 C166 1.516 . S
C168 N192 1.316 . S
C168 O215 1.263 . S
C169 C170 1.421 . S
C169 C174 1.360 . S
C169 N192 1.436 . S
C170 C169 1.421 . S
C170 C171 1.379 . S
C170 H228 0.929 . S
C171 C170 1.379 . S
C171 C172 1.417 . S
C172 C171 1.417 . S
C172 C173 1.352 . S
C172 H229 0.929 . S
C173 C172 1.352 . S
C173 C174 1.393 . S
C174 C169 1.360 . S
C174 C173 1.393 . S
C174 H230 0.931 1_545 S
Cd175 O195 2.329 . S
Cd175 O197 2.350 . S
Cd175 O198 2.277 . S
Cd175 O200 2.173 . S
Cd175 O204 2.263 . S
Cd175 O215 2.366 . S
Cd176 O194 2.352 . S
Cd176 O201 2.250 . S
Cd176 O205 2.308 1_545 S
C177 C181 1.403 . S
C177 C182 1.370 . S
C177 N193 1.423 . S
C178 C179 1.389 . S
C178 C182 1.389 . S
C179 C178 1.389 . S
C179 C180 1.379 . S
C179 H231 0.929 . S
C180 C179 1.379 . S
C180 C181 1.405 . S
C181 C177 1.403 . S
C181 C180 1.405 . S
C181 H232 0.932 . S
C182 C177 1.370 . S
C182 C178 1.389 . S
C182 H233 0.931 . S
Co183 N167 1.869 . S
Co183 N184 1.955 1_565 S
Co183 N185 1.864 . S
Co183 N191 1.958 . S
Co183 N192 1.953 1_565 S
Co183 N193 1.974 . S
N184 Co183 1.955 1_545 S
N184 C202 1.329 . S
N184 C217 1.432 . S
N185 Co183 1.864 . S
N185 C186 1.327 . S
N185 C190 1.342 . S
C186 N185 1.327 . S
C186 C187 1.407 . S
C186 C202 1.481 1_565 S
C187 C186 1.407 . S
C187 C188 1.364 . S
C187 H234 0.930 . S
C188 C187 1.364 . S
C188 C189 1.390 . S
C188 H235 0.931 . S
C189 C188 1.390 . S
C189 C190 1.346 . S
C189 H236 0.930 . S
C190 N185 1.342 . S
C190 C189 1.346 . S
C190 C206 1.516 . S
N191 Co183 1.958 . S
N191 C206 1.324 . S
N191 C208 1.427 . S
N192 C168 1.316 . S
N192 C169 1.436 . S
N192 Co183 1.953 1_545 S
N193 C177 1.423 . S
N193 Co183 1.974 . S
N193 C223 1.309 . S
O194 Cd176 2.352 . S
O194 C214 1.235 . S
O195 Cd175 2.329 . S
O195 C214 1.270 . S
C196 O197 1.270 . S
C196 O198 1.248 . S
O197 Cd175 2.350 . S
O197 C196 1.270 . S
O198 Cd175 2.277 . S
O198 C196 1.248 . S
C199 O200 1.277 . S
C199 O201 1.230 . S
O200 Cd175 2.173 . S
O200 C199 1.277 . S
O201 Cd176 2.250 . S
O201 C199 1.230 . S
C202 N184 1.329 . S
C202 C186 1.481 1_545 S
C202 O203 1.246 . S
O203 C202 1.246 . S
O204 Cd175 2.263 . S
O204 C216 1.258 1_545 S
O205 Cd176 2.308 1_565 S
O205 C216 1.274 . S
C206 C190 1.516 . S
C206 N191 1.324 . S
C206 O207 1.238 . S
O207 C206 1.238 . S
C208 N191 1.427 . S
C208 C209 1.394 . S
C208 C213 1.395 . S
C209 C208 1.394 . S
C209 C210 1.380 . S
C209 H237 0.929 . S
C210 C209 1.380 . S
C210 C211 1.384 . S
C210 C216 1.495 . S
C211 C210 1.384 . S
C211 C212 1.382 . S
C211 H238 0.930 . S
C212 C211 1.382 . S
C212 C213 1.398 . S
C213 C208 1.395 . S
C213 C212 1.398 . S
C213 H239 0.930 . S
C214 O194 1.235 . S
C214 O195 1.270 . S
O215 C168 1.263 . S
O215 Cd175 2.366 . S
C216 O204 1.258 1_565 S
C216 O205 1.274 . S
C216 C210 1.495 . S
C217 N184 1.432 . S
C217 C218 1.381 . S
C217 C222 1.385 . S
C218 C217 1.381 . S
C218 C219 1.371 . S
C218 H240 0.932 1_545 S
C219 C218 1.371 . S
C219 C220 1.400 . S
C220 C219 1.400 . S
C220 C221 1.351 . S
C220 H241 0.930 . S
C221 C220 1.351 . S
C221 C222 1.388 . S
C222 C217 1.385 . S
C222 C221 1.388 . S
C222 H242 0.929 . S
C223 C162 1.504 . S
C223 N193 1.309 . S
C223 O224 1.258 . S
O224 C223 1.258 . S
H225 C163 0.929 . S
H226 C164 0.932 1_545 S
H227 C165 0.931 . S
H228 C170 0.929 . S
H229 C172 0.929 . S
H230 C174 0.931 1_565 S
H231 C179 0.929 . S
H232 C181 0.932 . S
H233 C182 0.931 . S
H234 C187 0.930 . S
H235 C188 0.931 . S
H236 C189 0.930 . S
H237 C209 0.929 . S
H238 C211 0.930 . S
H239 C213 0.930 . S
H240 C218 0.932 1_565 S
H241 C220 0.930 . S
H242 C222 0.929 . S
C243 C244 1.359 . S
C243 N248 1.330 . S
C243 C304 1.504 . S
C244 C243 1.359 . S
C244 C245 1.366 . S
C244 H306 0.929 . S
C245 C244 1.366 . S
C245 C246 1.415 . S
C245 H307 0.932 . S
C246 C245 1.415 . S
C246 C247 1.366 . S
C246 H308 0.931 . S
C247 C246 1.366 . S
C247 N248 1.325 . S
C247 C249 1.516 . S
N248 C243 1.330 . S
N248 C247 1.325 . S
N248 Co264 1.869 . S
C249 C247 1.516 . S
C249 N273 1.316 . S
C249 O296 1.263 . S
C250 C251 1.421 . S
C250 C255 1.360 . S
C250 N273 1.436 . S
C251 C250 1.421 . S
C251 C252 1.379 . S
C251 H309 0.929 . S
C252 C251 1.379 . S
C252 C253 1.417 . S
C253 C252 1.417 . S
C253 C254 1.352 . S
C253 H310 0.929 . S
C254 C253 1.352 . S
C254 C255 1.393 . S
C255 C250 1.360 . S
C255 C254 1.393 . S
C255 H311 0.931 . S
Cd256 O276 2.329 . S
Cd256 O278 2.350 . S
Cd256 O279 2.277 . S
Cd256 O281 2.173 . S
Cd256 O285 2.263 . S
Cd256 O296 2.366 . S
Cd257 O275 2.352 . S
Cd257 O282 2.250 . S
Cd257 O286 2.308 . S
C258 C262 1.403 . S
C258 C263 1.370 . S
C258 N274 1.423 . S
C259 C260 1.389 . S
C259 C263 1.389 . S
C260 C259 1.389 . S
C260 C261 1.379 . S
C260 H312 0.929 . S
C261 C260 1.379 . S
C261 C262 1.405 . S
C262 C258 1.403 . S
C262 C261 1.405 . S
C262 H313 0.932 . S
C263 C258 1.370 . S
C263 C259 1.389 . S
C263 H314 0.931 . S
Co264 N248 1.869 . S
Co264 N265 1.955 . S
Co264 N266 1.864 . S
Co264 N272 1.958 . S
Co264 N273 1.953 . S
Co264 N274 1.974 . S
N265 Co264 1.955 . S
N265 C283 1.329 . S
N265 C298 1.432 . S
N266 Co264 1.864 . S
N266 C267 1.327 . S
N266 C271 1.342 . S
C267 N266 1.327 . S
C267 C268 1.407 . S
C267 C283 1.481 . S
C268 C267 1.407 . S
C268 C269 1.364 . S
C268 H315 0.930 . S
C269 C268 1.364 . S
C269 C270 1.390 . S
C269 H316 0.931 . S
C270 C269 1.390 . S
C270 C271 1.346 . S
C270 H317 0.930 . S
C271 N266 1.342 . S
C271 C270 1.346 . S
C271 C287 1.516 . S
N272 Co264 1.958 . S
N272 C287 1.324 . S
N272 C289 1.427 . S
N273 C249 1.316 . S
N273 C250 1.436 . S
N273 Co264 1.953 . S
N274 C258 1.423 . S
N274 Co264 1.974 . S
N274 C304 1.309 . S
O275 Cd257 2.352 . S
O275 C295 1.235 . S
O276 Cd256 2.329 . S
O276 C295 1.270 . S
C277 O278 1.270 . S
C277 O279 1.248 . S
O278 Cd256 2.350 . S
O278 C277 1.270 . S
O279 Cd256 2.277 . S
O279 C277 1.248 . S
C280 O281 1.277 . S
C280 O282 1.230 . S
O281 Cd256 2.173 . S
O281 C280 1.277 . S
O282 Cd257 2.250 . S
O282 C280 1.230 . S
C283 N265 1.329 . S
C283 C267 1.481 . S
C283 O284 1.246 . S
O284 C283 1.246 . S
O285 Cd256 2.263 . S
O285 C297 1.258 . S
O286 Cd257 2.308 . S
O286 C297 1.274 . S
C287 C271 1.516 . S
C287 N272 1.324 . S
C287 O288 1.238 . S
O288 C287 1.238 . S
C289 N272 1.427 . S
C289 C290 1.394 . S
C289 C294 1.395 . S
C290 C289 1.394 . S
C290 C291 1.380 . S
C290 H318 0.929 . S
C291 C290 1.380 . S
C291 C292 1.384 . S
C291 C297 1.495 . S
C292 C291 1.384 . S
C292 C293 1.382 . S
C292 H319 0.930 . S
C293 C292 1.382 . S
C293 C294 1.398 . S
C294 C289 1.395 . S
C294 C293 1.398 . S
C294 H320 0.930 . S
C295 O275 1.235 . S
C295 O276 1.270 . S
O296 C249 1.263 . S
O296 Cd256 2.366 . S
C297 O285 1.258 . S
C297 O286 1.274 . S
C297 C291 1.495 . S
C298 N265 1.432 . S
C298 C299 1.381 . S
C298 C303 1.385 . S
C299 C298 1.381 . S
C299 C300 1.371 . S
C299 H321 0.932 . S
C300 C299 1.371 . S
C300 C301 1.400 . S
C301 C300 1.400 . S
C301 C302 1.351 . S
C301 H322 0.930 . S
C302 C301 1.351 . S
C302 C303 1.388 . S
C303 C298 1.385 . S
C303 C302 1.388 . S
C303 H323 0.929 . S
C304 C243 1.504 . S
C304 N274 1.309 . S
C304 O305 1.258 . S
O305 C304 1.258 . S
H306 C244 0.929 . S
H307 C245 0.932 . S
H308 C246 0.931 . S
H309 C251 0.929 . S
H310 C253 0.929 . S
H311 C255 0.931 . S
H312 C260 0.929 . S
H313 C262 0.932 . S
H314 C263 0.931 . S
H315 C268 0.930 . S
H316 C269 0.931 . S
H317 C270 0.930 . S
H318 C290 0.929 . S
H319 C292 0.930 . S
H320 C294 0.930 . S
H321 C299 0.932 . S
H322 C301 0.930 . S
H323 C303 0.929 . S
C324 C325 1.359 . S
C324 N329 1.330 . S
C324 C385 1.504 . S
C325 C324 1.359 . S
C325 C326 1.366 . S
C325 H387 0.929 . S
C326 C325 1.366 . S
C326 C327 1.415 1_455 S
C326 H388 0.932 1_455 S
C327 C326 1.415 1_655 S
C327 C328 1.366 . S
C327 H389 0.931 . S
C328 C327 1.366 . S
C328 N329 1.325 1_655 S
C328 C330 1.516 . S
N329 C324 1.330 . S
N329 C328 1.325 1_455 S
N329 Co345 1.869 . S
C330 C328 1.516 . S
C330 N354 1.316 . S
C330 O377 1.263 . S
C331 C332 1.421 . S
C331 C336 1.360 . S
C331 N354 1.436 . S
C332 C331 1.421 . S
C332 C333 1.379 . S
C332 H390 0.929 . S
C333 C332 1.379 . S
C333 C334 1.417 . S
C334 C333 1.417 . S
C334 C335 1.352 . S
C334 H391 0.929 . S
C335 C334 1.352 . S
C335 C336 1.393 . S
C336 C331 1.360 . S
C336 C335 1.393 . S
C336 H392 0.931 1_655 S
Cd337 O357 2.329 . S
Cd337 O359 2.350 . S
Cd337 O360 2.277 . S
Cd337 O362 2.173 . S
Cd337 O366 2.263 . S
Cd337 O377 2.366 . S
Cd338 O356 2.352 . S
Cd338 O363 2.250 . S
Cd338 O367 2.308 1_655 S
C339 C343 1.403 . S
C339 C344 1.370 . S
C339 N355 1.423 . S
C340 C341 1.389 . S
C340 C344 1.389 . S
C341 C340 1.389 . S
C341 C342 1.379 . S
C341 H393 0.929 . S
C342 C341 1.379 . S
C342 C343 1.405 . S
C343 C339 1.403 . S
C343 C342 1.405 . S
C343 H394 0.932 . S
C344 C339 1.370 . S
C344 C340 1.389 . S
C344 H395 0.931 . S
Co345 N329 1.869 . S
Co345 N346 1.955 1_455 S
Co345 N347 1.864 . S
Co345 N353 1.958 . S
Co345 N354 1.953 1_455 S
Co345 N355 1.974 . S
N346 Co345 1.955 1_655 S
N346 C364 1.329 . S
N346 C379 1.432 . S
N347 Co345 1.864 . S
N347 C348 1.327 . S
N347 C352 1.342 . S
C348 N347 1.327 . S
C348 C349 1.407 . S
C348 C364 1.481 1_455 S
C349 C348 1.407 . S
C349 C350 1.364 . S
C349 H396 0.930 . S
C350 C349 1.364 . S
C350 C351 1.390 . S
C350 H397 0.931 . S
C351 C350 1.390 . S
C351 C352 1.346 . S
C351 H398 0.930 . S
C352 N347 1.342 . S
C352 C351 1.346 . S
C352 C368 1.516 . S
N353 Co345 1.958 . S
N353 C368 1.324 . S
N353 C370 1.427 . S
N354 C330 1.316 . S
N354 C331 1.436 . S
N354 Co345 1.953 1_655 S
N355 C339 1.423 . S
N355 Co345 1.974 . S
N355 C385 1.309 . S
O356 Cd338 2.352 . S
O356 C376 1.235 . S
O357 Cd337 2.329 . S
O357 C376 1.270 . S
C358 O359 1.270 . S
C358 O360 1.248 . S
O359 Cd337 2.350 . S
O359 C358 1.270 . S
O360 Cd337 2.277 . S
O360 C358 1.248 . S
C361 O362 1.277 . S
C361 O363 1.230 . S
O362 Cd337 2.173 . S
O362 C361 1.277 . S
O363 Cd338 2.250 . S
O363 C361 1.230 . S
C364 N346 1.329 . S
C364 C348 1.481 1_655 S
C364 O365 1.246 . S
O365 C364 1.246 . S
O366 Cd337 2.263 . S
O366 C378 1.258 1_655 S
O367 Cd338 2.308 1_455 S
O367 C378 1.274 . S
C368 C352 1.516 . S
C368 N353 1.324 . S
C368 O369 1.238 . S
O369 C368 1.238 . S
C370 N353 1.427 . S
C370 C371 1.394 . S
C370 C375 1.395 . S
C371 C370 1.394 . S
C371 C372 1.380 . S
C371 H399 0.929 . S
C372 C371 1.380 . S
C372 C373 1.384 . S
C372 C378 1.495 . S
C373 C372 1.384 . S
C373 C374 1.382 . S
C373 H400 0.930 . S
C374 C373 1.382 . S
C374 C375 1.398 . S
C375 C370 1.395 . S
C375 C374 1.398 . S
C375 H401 0.930 . S
C376 O356 1.235 . S
C376 O357 1.270 . S
O377 C330 1.263 . S
O377 Cd337 2.366 . S
C378 O366 1.258 1_455 S
C378 O367 1.274 . S
C378 C372 1.495 . S
C379 N346 1.432 . S
C379 C380 1.381 . S
C379 C384 1.385 . S
C380 C379 1.381 . S
C380 C381 1.371 . S
C380 H402 0.932 1_655 S
C381 C380 1.371 . S
C381 C382 1.400 . S
C382 C381 1.400 . S
C382 C383 1.351 . S
C382 H403 0.930 . S
C383 C382 1.351 . S
C383 C384 1.388 . S
C384 C379 1.385 . S
C384 C383 1.388 . S
C384 H404 0.929 . S
C385 C324 1.504 . S
C385 N355 1.309 . S
C385 O386 1.258 . S
O386 C385 1.258 . S
H387 C325 0.929 . S
H388 C326 0.932 1_655 S
H389 C327 0.931 . S
H390 C332 0.929 . S
H391 C334 0.929 . S
H392 C336 0.931 1_455 S
H393 C341 0.929 . S
H394 C343 0.932 . S
H395 C344 0.931 . S
H396 C349 0.930 . S
H397 C350 0.931 . S
H398 C351 0.930 . S
H399 C371 0.929 . S
H400 C373 0.930 . S
H401 C375 0.930 . S
H402 C380 0.932 1_455 S
H403 C382 0.930 . S
H404 C384 0.929 . S
C405 C406 1.359 . S
C405 N410 1.330 . S
C405 C466 1.504 . S
C406 C405 1.359 . S
C406 C407 1.366 . S
C406 H468 0.929 . S
C407 C406 1.366 . S
C407 C408 1.415 1_545 S
C407 H469 0.932 1_545 S
C408 C407 1.415 1_565 S
C408 C409 1.366 . S
C408 H470 0.931 . S
C409 C408 1.366 . S
C409 N410 1.325 1_565 S
C409 C411 1.516 . S
N410 C405 1.330 . S
N410 C409 1.325 1_545 S
N410 Co426 1.869 . S
C411 C409 1.516 . S
C411 N435 1.316 . S
C411 O458 1.263 . S
C412 C413 1.421 . S
C412 C417 1.360 . S
C412 N435 1.436 . S
C413 C412 1.421 . S
C413 C414 1.379 . S
C413 H471 0.929 . S
C414 C413 1.379 . S
C414 C415 1.417 . S
C415 C414 1.417 . S
C415 C416 1.352 . S
C415 H472 0.929 . S
C416 C415 1.352 . S
C416 C417 1.393 . S
C417 C412 1.360 . S
C417 C416 1.393 . S
C417 H473 0.931 1_565 S
Cd418 O438 2.329 . S
Cd418 O440 2.350 . S
Cd418 O441 2.277 . S
Cd418 O443 2.173 . S
Cd418 O447 2.263 . S
Cd418 O458 2.366 . S
Cd419 O437 2.352 . S
Cd419 O444 2.250 . S
Cd419 O448 2.308 1_565 S
C420 C424 1.403 . S
C420 C425 1.370 . S
C420 N436 1.423 . S
C421 C422 1.389 . S
C421 C425 1.389 . S
C422 C421 1.389 . S
C422 C423 1.379 . S
C422 H474 0.929 . S
C423 C422 1.379 . S
C423 C424 1.405 . S
C424 C420 1.403 . S
C424 C423 1.405 . S
C424 H475 0.932 . S
C425 C420 1.370 . S
C425 C421 1.389 . S
C425 H476 0.931 . S
Co426 N410 1.869 . S
Co426 N427 1.955 1_545 S
Co426 N428 1.864 . S
Co426 N434 1.958 . S
Co426 N435 1.953 1_545 S
Co426 N436 1.974 . S
N427 Co426 1.955 1_565 S
N427 C445 1.329 . S
N427 C460 1.432 . S
N428 Co426 1.864 . S
N428 C429 1.327 . S
N428 C433 1.342 . S
C429 N428 1.327 . S
C429 C430 1.407 . S
C429 C445 1.481 1_545 S
C430 C429 1.407 . S
C430 C431 1.364 . S
C430 H477 0.930 . S
C431 C430 1.364 . S
C431 C432 1.390 . S
C431 H478 0.931 . S
C432 C431 1.390 . S
C432 C433 1.346 . S
C432 H479 0.930 . S
C433 N428 1.342 . S
C433 C432 1.346 . S
C433 C449 1.516 . S
N434 Co426 1.958 . S
N434 C449 1.324 . S
N434 C451 1.427 . S
N435 C411 1.316 . S
N435 C412 1.436 . S
N435 Co426 1.953 1_565 S
N436 C420 1.423 . S
N436 Co426 1.974 . S
N436 C466 1.309 . S
O437 Cd419 2.352 . S
O437 C457 1.235 . S
O438 Cd418 2.329 . S
O438 C457 1.270 . S
C439 O440 1.270 . S
C439 O441 1.248 . S
O440 Cd418 2.350 . S
O440 C439 1.270 . S
O441 Cd418 2.277 . S
O441 C439 1.248 . S
C442 O443 1.277 . S
C442 O444 1.230 . S
O443 Cd418 2.173 . S
O443 C442 1.277 . S
O444 Cd419 2.250 . S
O444 C442 1.230 . S
C445 N427 1.329 . S
C445 C429 1.481 1_565 S
C445 O446 1.246 . S
O446 C445 1.246 . S
O447 Cd418 2.263 . S
O447 C459 1.258 1_565 S
O448 Cd419 2.308 1_545 S
O448 C459 1.274 . S
C449 C433 1.516 . S
C449 N434 1.324 . S
C449 O450 1.238 . S
O450 C449 1.238 . S
C451 N434 1.427 . S
C451 C452 1.394 . S
C451 C456 1.395 . S
C452 C451 1.394 . S
C452 C453 1.380 . S
C452 H480 0.929 . S
C453 C452 1.380 . S
C453 C454 1.384 . S
C453 C459 1.495 . S
C454 C453 1.384 . S
C454 C455 1.382 . S
C454 H481 0.930 . S
C455 C454 1.382 . S
C455 C456 1.398 . S
C456 C451 1.395 . S
C456 C455 1.398 . S
C456 H482 0.930 . S
C457 O437 1.235 . S
C457 O438 1.270 . S
O458 C411 1.263 . S
O458 Cd418 2.366 . S
C459 O447 1.258 1_545 S
C459 O448 1.274 . S
C459 C453 1.495 . S
C460 N427 1.432 . S
C460 C461 1.381 . S
C460 C465 1.385 . S
C461 C460 1.381 . S
C461 C462 1.371 . S
C461 H483 0.932 1_565 S
C462 C461 1.371 . S
C462 C463 1.400 . S
C463 C462 1.400 . S
C463 C464 1.351 . S
C463 H484 0.930 . S
C464 C463 1.351 . S
C464 C465 1.388 . S
C465 C460 1.385 . S
C465 C464 1.388 . S
C465 H485 0.929 . S
C466 C405 1.504 . S
C466 N436 1.309 . S
C466 O467 1.258 . S
O467 C466 1.258 . S
H468 C406 0.929 . S
H469 C407 0.932 1_565 S
H470 C408 0.931 . S
H471 C413 0.929 . S
H472 C415 0.929 . S
H473 C417 0.931 1_545 S
H474 C422 0.929 . S
H475 C424 0.932 . S
H476 C425 0.931 . S
H477 C430 0.930 . S
H478 C431 0.931 . S
H479 C432 0.930 . S
H480 C452 0.929 . S
H481 C454 0.930 . S
H482 C456 0.930 . S
H483 C461 0.932 1_545 S
H484 C463 0.930 . S
H485 C465 0.929 . S
C486 C487 1.359 . S
C486 N491 1.330 . S
C486 C547 1.504 . S
C487 C486 1.359 . S
C487 C488 1.366 . S
C487 H549 0.929 . S
C488 C487 1.366 . S
C488 C489 1.415 . S
C488 H550 0.932 . S
C489 C488 1.415 . S
C489 C490 1.366 . S
C489 H551 0.931 . S
C490 C489 1.366 . S
C490 N491 1.325 . S
C490 C492 1.516 . S
N491 C486 1.330 . S
N491 C490 1.325 . S
N491 Co507 1.869 . S
C492 C490 1.516 . S
C492 N516 1.316 . S
C492 O539 1.263 . S
C493 C494 1.421 . S
C493 C498 1.360 . S
C493 N516 1.436 . S
C494 C493 1.421 . S
C494 C495 1.379 . S
C494 H552 0.929 . S
C495 C494 1.379 . S
C495 C496 1.417 . S
C496 C495 1.417 . S
C496 C497 1.352 . S
C496 H553 0.929 . S
C497 C496 1.352 . S
C497 C498 1.393 . S
C498 C493 1.360 . S
C498 C497 1.393 . S
C498 H554 0.931 . S
Cd499 O519 2.329 . S
Cd499 O521 2.350 . S
Cd499 O522 2.277 . S
Cd499 O524 2.173 . S
Cd499 O528 2.263 . S
Cd499 O539 2.366 . S
Cd500 O518 2.352 . S
Cd500 O525 2.250 . S
Cd500 O529 2.308 . S
C501 C505 1.403 . S
C501 C506 1.370 . S
C501 N517 1.423 . S
C502 C503 1.389 . S
C502 C506 1.389 . S
C503 C502 1.389 . S
C503 C504 1.379 . S
C503 H555 0.929 . S
C504 C503 1.379 . S
C504 C505 1.405 . S
C505 C501 1.403 . S
C505 C504 1.405 . S
C505 H556 0.932 . S
C506 C501 1.370 . S
C506 C502 1.389 . S
C506 H557 0.931 . S
Co507 N491 1.869 . S
Co507 N508 1.955 . S
Co507 N509 1.864 . S
Co507 N515 1.958 . S
Co507 N516 1.953 . S
Co507 N517 1.974 . S
N508 Co507 1.955 . S
N508 C526 1.329 . S
N508 C541 1.432 . S
N509 Co507 1.864 . S
N509 C510 1.327 . S
N509 C514 1.342 . S
C510 N509 1.327 . S
C510 C511 1.407 . S
C510 C526 1.481 . S
C511 C510 1.407 . S
C511 C512 1.364 . S
C511 H558 0.930 . S
C512 C511 1.364 . S
C512 C513 1.390 . S
C512 H559 0.931 . S
C513 C512 1.390 . S
C513 C514 1.346 . S
C513 H560 0.930 . S
C514 N509 1.342 . S
C514 C513 1.346 . S
C514 C530 1.516 . S
N515 Co507 1.958 . S
N515 C530 1.324 . S
N515 C532 1.427 . S
N516 C492 1.316 . S
N516 C493 1.436 . S
N516 Co507 1.953 . S
N517 C501 1.423 . S
N517 Co507 1.974 . S
N517 C547 1.309 . S
O518 Cd500 2.352 . S
O518 C538 1.235 . S
O519 Cd499 2.329 . S
O519 C538 1.270 . S
C520 O521 1.270 . S
C520 O522 1.248 . S
O521 Cd499 2.350 . S
O521 C520 1.270 . S
O522 Cd499 2.277 . S
O522 C520 1.248 . S
C523 O524 1.277 . S
C523 O525 1.230 . S
O524 Cd499 2.173 . S
O524 C523 1.277 . S
O525 Cd500 2.250 . S
O525 C523 1.230 . S
C526 N508 1.329 . S
C526 C510 1.481 . S
C526 O527 1.246 . S
O527 C526 1.246 . S
O528 Cd499 2.263 . S
O528 C540 1.258 . S
O529 Cd500 2.308 . S
O529 C540 1.274 . S
C530 C514 1.516 . S
C530 N515 1.324 . S
C530 O531 1.238 . S
O531 C530 1.238 . S
C532 N515 1.427 . S
C532 C533 1.394 . S
C532 C537 1.395 . S
C533 C532 1.394 . S
C533 C534 1.380 . S
C533 H561 0.929 . S
C534 C533 1.380 . S
C534 C535 1.384 . S
C534 C540 1.495 . S
C535 C534 1.384 . S
C535 C536 1.382 . S
C535 H562 0.930 . S
C536 C535 1.382 . S
C536 C537 1.398 . S
C537 C532 1.395 . S
C537 C536 1.398 . S
C537 H563 0.930 . S
C538 O518 1.235 . S
C538 O519 1.270 . S
O539 C492 1.263 . S
O539 Cd499 2.366 . S
C540 O528 1.258 . S
C540 O529 1.274 . S
C540 C534 1.495 . S
C541 N508 1.432 . S
C541 C542 1.381 . S
C541 C546 1.385 . S
C542 C541 1.381 . S
C542 C543 1.371 . S
C542 H564 0.932 . S
C543 C542 1.371 . S
C543 C544 1.400 . S
C544 C543 1.400 . S
C544 C545 1.351 . S
C544 H565 0.930 . S
C545 C544 1.351 . S
C545 C546 1.388 . S
C546 C541 1.385 . S
C546 C545 1.388 . S
C546 H566 0.929 . S
C547 C486 1.504 . S
C547 N517 1.309 . S
C547 O548 1.258 . S
O548 C547 1.258 . S
H549 C487 0.929 . S
H550 C488 0.932 . S
H551 C489 0.931 . S
H552 C494 0.929 . S
H553 C496 0.929 . S
H554 C498 0.931 . S
H555 C503 0.929 . S
H556 C505 0.932 . S
H557 C506 0.931 . S
H558 C511 0.930 . S
H559 C512 0.931 . S
H560 C513 0.930 . S
H561 C533 0.929 . S
H562 C535 0.930 . S
H563 C537 0.930 . S
H564 C542 0.932 . S
H565 C544 0.930 . S
H566 C546 0.929 . S
C567 C568 1.359 . S
C567 N572 1.330 . S
C567 C628 1.504 . S
C568 C567 1.359 . S
C568 C569 1.366 . S
C568 H630 0.929 . S
C569 C568 1.366 . S
C569 C570 1.415 1_655 S
C569 H631 0.932 1_655 S
C570 C569 1.415 1_455 S
C570 C571 1.366 . S
C570 H632 0.931 . S
C571 C570 1.366 . S
C571 N572 1.325 1_455 S
C571 C573 1.516 . S
N572 C567 1.330 . S
N572 C571 1.325 1_655 S
N572 Co588 1.869 . S
C573 C571 1.516 . S
C573 N597 1.316 . S
C573 O620 1.263 . S
C574 C575 1.421 . S
C574 C579 1.360 . S
C574 N597 1.436 . S
C575 C574 1.421 . S
C575 C576 1.379 . S
C575 H633 0.929 . S
C576 C575 1.379 . S
C576 C577 1.417 . S
C577 C576 1.417 . S
C577 C578 1.352 . S
C577 H634 0.929 . S
C578 C577 1.352 . S
C578 C579 1.393 . S
C579 C574 1.360 . S
C579 C578 1.393 . S
C579 H635 0.931 1_455 S
Cd580 O600 2.329 1_556 S
Cd580 O602 2.350 . S
Cd580 O603 2.277 . S
Cd580 O605 2.173 . S
Cd580 O609 2.285 . S
Cd580 O620 2.366 . S
Cd581 O599 2.352 . S
Cd581 O606 2.250 . S
Cd581 O610 2.308 1_455 S
C582 C586 1.403 . S
C582 C587 1.370 . S
C582 N598 1.423 . S
C583 C584 1.389 . S
C583 C587 1.389 . S
C584 C583 1.389 . S
C584 C585 1.379 . S
C584 H636 0.929 . S
C585 C584 1.379 . S
C585 C586 1.405 . S
C586 C582 1.403 . S
C586 C585 1.405 . S
C586 H637 0.932 . S
C587 C582 1.370 . S
C587 C583 1.389 . S
C587 H638 0.931 . S
Co588 N572 1.869 . S
Co588 N589 1.955 1_655 S
Co588 N590 1.864 . S
Co588 N596 1.958 . S
Co588 N597 1.953 1_655 S
Co588 N598 1.974 . S
N589 Co588 1.955 1_455 S
N589 C607 1.329 . S
N589 C622 1.432 . S
N590 Co588 1.864 . S
N590 C591 1.327 . S
N590 C595 1.342 . S
C591 N590 1.327 . S
C591 C592 1.407 . S
C591 C607 1.481 1_655 S
C592 C591 1.407 . S
C592 C593 1.364 . S
C592 H639 0.930 . S
C593 C592 1.364 . S
C593 C594 1.390 . S
C593 H640 0.931 . S
C594 C593 1.390 . S
C594 C595 1.346 . S
C594 H641 0.930 . S
C595 N590 1.342 . S
C595 C594 1.346 . S
C595 C611 1.516 . S
N596 Co588 1.958 . S
N596 C611 1.324 . S
N596 C613 1.427 . S
N597 C573 1.316 . S
N597 C574 1.436 . S
N597 Co588 1.953 1_455 S
N598 C582 1.423 . S
N598 Co588 1.974 . S
N598 C628 1.309 . S
O599 Cd581 2.352 . S
O599 C619 1.235 . S
O600 Cd580 2.329 1_554 S
O600 C619 1.270 . S
C601 O602 1.270 . S
C601 O603 1.248 . S
O602 Cd580 2.350 . S
O602 C601 1.270 . S
O603 Cd580 2.277 . S
O603 C601 1.248 . S
C604 O605 1.277 . S
C604 O606 1.230 1_556 S
O605 Cd580 2.173 . S
O605 C604 1.277 . S
O606 Cd581 2.250 . S
O606 C604 1.230 1_554 S
C607 N589 1.329 . S
C607 C591 1.481 1_455 S
C607 O608 1.246 . S
O608 C607 1.246 . S
O609 Cd580 2.285 . S
O609 C621 1.247 1_456 S
O610 Cd581 2.308 1_655 S
O610 C621 1.343 . S
C611 C595 1.516 . S
C611 N596 1.324 . S
C611 O612 1.238 . S
O612 C611 1.238 . S
C613 N596 1.427 . S
C613 C614 1.394 . S
C613 C618 1.395 . S
C614 C613 1.394 . S
C614 C615 1.380 . S
C614 H642 0.929 . S
C615 C614 1.380 . S
C615 C616 1.384 . S
C615 C621 1.438 1_556 S
C616 C615 1.384 . S
C616 C617 1.382 . S
C616 H643 0.945 . S
C617 C616 1.382 . S
C617 C618 1.398 . S
C618 C613 1.395 . S
C618 C617 1.398 . S
C618 H644 0.930 . S
C619 O599 1.235 . S
C619 O600 1.270 . S
O620 C573 1.263 . S
O620 Cd580 2.366 . S
C621 O609 1.247 1_654 S
C621 O610 1.343 . S
C621 C615 1.438 1_554 S
C622 N589 1.432 . S
C622 C623 1.381 . S
C622 C627 1.385 . S
C623 C622 1.381 . S
C623 C624 1.371 . S
C623 H645 0.932 1_455 S
C624 C623 1.371 . S
C624 C625 1.400 . S
C625 C624 1.400 . S
C625 C626 1.351 . S
C625 H646 0.930 . S
C626 C625 1.351 . S
C626 C627 1.388 . S
C627 C622 1.385 . S
C627 C626 1.388 . S
C627 H647 0.929 . S
C628 C567 1.504 . S
C628 N598 1.309 . S
C628 O629 1.258 . S
O629 C628 1.258 . S
H630 C568 0.929 . S
H631 C569 0.932 1_455 S
H632 C570 0.931 . S
H633 C575 0.929 . S
H634 C577 0.929 . S
H635 C579 0.931 1_655 S
H636 C584 0.929 . S
H637 C586 0.932 . S
H638 C587 0.931 . S
H639 C592 0.930 . S
H640 C593 0.931 . S
H641 C594 0.930 . S
H642 C614 0.929 . S
H643 C616 0.945 . S
H644 C618 0.930 . S
H645 C623 0.932 1_655 S
H646 C625 0.930 . S
H647 C627 0.929 . S
C648 C649 1.359 . S
C648 N653 1.330 . S
C648 C709 1.504 . S
C649 C648 1.359 . S
C649 C650 1.366 . S
C649 H711 0.929 . S
C650 C649 1.366 . S
C650 C651 1.415 1_565 S
C650 H712 0.932 1_565 S
C651 C650 1.415 1_545 S
C651 C652 1.366 . S
C651 H713 0.931 . S
C652 C651 1.366 . S
C652 N653 1.325 1_545 S
C652 C654 1.516 . S
N653 C648 1.330 . S
N653 C652 1.325 1_565 S
N653 Co669 1.869 . S
C654 C652 1.516 . S
C654 N678 1.316 . S
C654 O701 1.263 . S
C655 C656 1.421 . S
C655 C660 1.360 . S
C655 N678 1.436 . S
C656 C655 1.421 . S
C656 C657 1.379 . S
C656 H714 0.929 . S
C657 C656 1.379 . S
C657 C658 1.417 . S
C658 C657 1.417 . S
C658 C659 1.352 . S
C658 H715 0.929 . S
C659 C658 1.352 . S
C659 C660 1.393 . S
C660 C655 1.360 . S
C660 C659 1.393 . S
C660 H716 0.931 1_545 S
Cd661 O681 2.329 . S
Cd661 O683 2.350 . S
Cd661 O684 2.277 . S
Cd661 O686 2.173 . S
Cd661 O690 2.263 . S
Cd661 O701 2.366 . S
Cd662 O680 2.352 . S
Cd662 O687 2.250 . S
Cd662 O691 2.308 1_545 S
C663 C667 1.403 . S
C663 C668 1.370 . S
C663 N679 1.423 . S
C664 C665 1.389 . S
C664 C668 1.389 . S
C665 C664 1.389 . S
C665 C666 1.379 . S
C665 H717 0.929 . S
C666 C665 1.379 . S
C666 C667 1.405 . S
C667 C663 1.403 . S
C667 C666 1.405 . S
C667 H718 0.932 . S
C668 C663 1.370 . S
C668 C664 1.389 . S
C668 H719 0.931 . S
Co669 N653 1.869 . S
Co669 N670 1.955 1_565 S
Co669 N671 1.864 . S
Co669 N677 1.958 . S
Co669 N678 1.953 1_565 S
Co669 N679 1.974 . S
N670 Co669 1.955 1_545 S
N670 C688 1.329 . S
N670 C703 1.432 . S
N671 Co669 1.864 . S
N671 C672 1.327 . S
N671 C676 1.342 . S
C672 N671 1.327 . S
C672 C673 1.407 . S
C672 C688 1.481 1_565 S
C673 C672 1.407 . S
C673 C674 1.364 . S
C673 H720 0.930 . S
C674 C673 1.364 . S
C674 C675 1.390 . S
C674 H721 0.931 . S
C675 C674 1.390 . S
C675 C676 1.346 . S
C675 H722 0.930 . S
C676 N671 1.342 . S
C676 C675 1.346 . S
C676 C692 1.516 . S
N677 Co669 1.958 . S
N677 C692 1.324 . S
N677 C694 1.427 . S
N678 C654 1.316 . S
N678 C655 1.436 . S
N678 Co669 1.953 1_545 S
N679 C663 1.423 . S
N679 Co669 1.974 . S
N679 C709 1.309 . S
O680 Cd662 2.352 . S
O680 C700 1.235 . S
O681 Cd661 2.329 . S
O681 C700 1.270 . S
C682 O683 1.270 . S
C682 O684 1.248 . S
O683 Cd661 2.350 . S
O683 C682 1.270 . S
O684 Cd661 2.277 . S
O684 C682 1.248 . S
C685 O686 1.277 . S
C685 O687 1.230 . S
O686 Cd661 2.173 . S
O686 C685 1.277 . S
O687 Cd662 2.250 . S
O687 C685 1.230 . S
C688 N670 1.329 . S
C688 C672 1.481 1_545 S
C688 O689 1.246 . S
O689 C688 1.246 . S
O690 Cd661 2.263 . S
O690 C702 1.258 1_545 S
O691 Cd662 2.308 1_565 S
O691 C702 1.274 . S
C692 C676 1.516 . S
C692 N677 1.324 . S
C692 O693 1.238 . S
O693 C692 1.238 . S
C694 N677 1.427 . S
C694 C695 1.394 . S
C694 C699 1.395 . S
C695 C694 1.394 . S
C695 C696 1.380 . S
C695 H723 0.929 . S
C696 C695 1.380 . S
C696 C697 1.384 . S
C696 C702 1.495 . S
C697 C696 1.384 . S
C697 C698 1.382 . S
C697 H724 0.930 . S
C698 C697 1.382 . S
C698 C699 1.398 . S
C699 C694 1.395 . S
C699 C698 1.398 . S
C699 H725 0.930 . S
C700 O680 1.235 . S
C700 O681 1.270 . S
O701 C654 1.263 . S
O701 Cd661 2.366 . S
C702 O690 1.258 1_565 S
C702 O691 1.274 . S
C702 C696 1.495 . S
C703 N670 1.432 . S
C703 C704 1.381 . S
C703 C708 1.385 . S
C704 C703 1.381 . S
C704 C705 1.371 . S
C704 H726 0.932 1_545 S
C705 C704 1.371 . S
C705 C706 1.400 . S
C706 C705 1.400 . S
C706 C707 1.351 . S
C706 H727 0.930 . S
C707 C706 1.351 . S
C707 C708 1.388 . S
C708 C703 1.385 . S
C708 C707 1.388 . S
C708 H728 0.929 . S
C709 C648 1.504 . S
C709 N679 1.309 . S
C709 O710 1.258 . S
O710 C709 1.258 . S
H711 C649 0.929 . S
H712 C650 0.932 1_545 S
H713 C651 0.931 . S
H714 C656 0.929 . S
H715 C658 0.929 . S
H716 C660 0.931 1_565 S
H717 C665 0.929 . S
H718 C667 0.932 . S
H719 C668 0.931 . S
H720 C673 0.930 . S
H721 C674 0.931 . S
H722 C675 0.930 . S
H723 C695 0.929 . S
H724 C697 0.930 . S
H725 C699 0.930 . S
H726 C704 0.932 1_565 S
H727 C706 0.930 . S
H728 C708 0.929 . S
C729 C730 1.359 . S
C729 N734 1.330 . S
C729 C790 1.504 . S
C730 C729 1.359 . S
C730 C731 1.366 . S
C730 H792 0.929 . S
C731 C730 1.366 . S
C731 C732 1.415 . S
C731 H793 0.932 . S
C732 C731 1.415 . S
C732 C733 1.366 . S
C732 H794 0.931 . S
C733 C732 1.366 . S
C733 N734 1.325 . S
C733 C735 1.516 . S
N734 C729 1.330 . S
N734 C733 1.325 . S
N734 Co750 1.869 . S
C735 C733 1.516 . S
C735 N759 1.316 . S
C735 O782 1.263 . S
C736 C737 1.421 . S
C736 C741 1.360 . S
C736 N759 1.436 . S
C737 C736 1.421 . S
C737 C738 1.379 . S
C737 H795 0.929 . S
C738 C737 1.379 . S
C738 C739 1.417 . S
C739 C738 1.417 . S
C739 C740 1.352 . S
C739 H796 0.929 . S
C740 C739 1.352 . S
C740 C741 1.393 . S
C741 C736 1.360 . S
C741 C740 1.393 . S
C741 H797 0.931 . S
Cd742 O762 2.329 . S
Cd742 O764 2.350 . S
Cd742 O765 2.277 . S
Cd742 O767 2.173 . S
Cd742 O771 2.263 . S
Cd742 O782 2.366 . S
Cd743 O761 2.352 . S
Cd743 O768 2.250 . S
Cd743 O772 2.308 . S
C744 C748 1.403 . S
C744 C749 1.370 . S
C744 N760 1.423 . S
C745 C746 1.389 . S
C745 C749 1.389 . S
C746 C745 1.389 . S
C746 C747 1.379 . S
C746 H798 0.929 . S
C747 C746 1.379 . S
C747 C748 1.405 . S
C748 C744 1.403 . S
C748 C747 1.405 . S
C748 H799 0.932 . S
C749 C744 1.370 . S
C749 C745 1.389 . S
C749 H800 0.931 . S
Co750 N734 1.869 . S
Co750 N751 1.955 . S
Co750 N752 1.864 . S
Co750 N758 1.958 . S
Co750 N759 1.953 . S
Co750 N760 1.974 . S
N751 Co750 1.955 . S
N751 C769 1.329 . S
N751 C784 1.432 . S
N752 Co750 1.864 . S
N752 C753 1.327 . S
N752 C757 1.342 . S
C753 N752 1.327 . S
C753 C754 1.407 . S
C753 C769 1.481 . S
C754 C753 1.407 . S
C754 C755 1.364 . S
C754 H801 0.930 . S
C755 C754 1.364 . S
C755 C756 1.390 . S
C755 H802 0.931 . S
C756 C755 1.390 . S
C756 C757 1.346 . S
C756 H803 0.930 . S
C757 N752 1.342 . S
C757 C756 1.346 . S
C757 C773 1.516 . S
N758 Co750 1.958 . S
N758 C773 1.324 . S
N758 C775 1.427 . S
N759 C735 1.316 . S
N759 C736 1.436 . S
N759 Co750 1.953 . S
N760 C744 1.423 . S
N760 Co750 1.974 . S
N760 C790 1.309 . S
O761 Cd743 2.352 . S
O761 C781 1.235 . S
O762 Cd742 2.329 . S
O762 C781 1.270 . S
C763 O764 1.270 . S
C763 O765 1.248 . S
O764 Cd742 2.350 . S
O764 C763 1.270 . S
O765 Cd742 2.277 . S
O765 C763 1.248 . S
C766 O767 1.277 . S
C766 O768 1.230 . S
O767 Cd742 2.173 . S
O767 C766 1.277 . S
O768 Cd743 2.250 . S
O768 C766 1.230 . S
C769 N751 1.329 . S
C769 C753 1.481 . S
C769 O770 1.246 . S
O770 C769 1.246 . S
O771 Cd742 2.263 . S
O771 C783 1.258 . S
O772 Cd743 2.308 . S
O772 C783 1.274 . S
C773 C757 1.516 . S
C773 N758 1.324 . S
C773 O774 1.238 . S
O774 C773 1.238 . S
C775 N758 1.427 . S
C775 C776 1.394 . S
C775 C780 1.395 . S
C776 C775 1.394 . S
C776 C777 1.380 . S
C776 H804 0.929 . S
C777 C776 1.380 . S
C777 C778 1.384 . S
C777 C783 1.495 . S
C778 C777 1.384 . S
C778 C779 1.382 . S
C778 H805 0.930 . S
C779 C778 1.382 . S
C779 C780 1.398 . S
C780 C775 1.395 . S
C780 C779 1.398 . S
C780 H806 0.930 . S
C781 O761 1.235 . S
C781 O762 1.270 . S
O782 C735 1.263 . S
O782 Cd742 2.366 . S
C783 O771 1.258 . S
C783 O772 1.274 . S
C783 C777 1.495 . S
C784 N751 1.432 . S
C784 C785 1.381 . S
C784 C789 1.385 . S
C785 C784 1.381 . S
C785 C786 1.371 . S
C785 H807 0.932 . S
C786 C785 1.371 . S
C786 C787 1.400 . S
C787 C786 1.400 . S
C787 C788 1.351 . S
C787 H808 0.930 . S
C788 C787 1.351 . S
C788 C789 1.388 . S
C789 C784 1.385 . S
C789 C788 1.388 . S
C789 H809 0.929 . S
C790 C729 1.504 . S
C790 N760 1.309 . S
C790 O791 1.258 . S
O791 C790 1.258 . S
H792 C730 0.929 . S
H793 C731 0.932 . S
H794 C732 0.931 . S
H795 C737 0.929 . S
H796 C739 0.929 . S
H797 C741 0.931 . S
H798 C746 0.929 . S
H799 C748 0.932 . S
H800 C749 0.931 . S
H801 C754 0.930 . S
H802 C755 0.931 . S
H803 C756 0.930 . S
H804 C776 0.929 . S
H805 C778 0.930 . S
H806 C780 0.930 . S
H807 C785 0.932 . S
H808 C787 0.930 . S
H809 C789 0.929 . S
C810 C811 1.359 . S
C810 N815 1.330 . S
C810 C871 1.504 . S
C811 C810 1.359 . S
C811 C812 1.366 . S
C811 H873 0.929 . S
C812 C811 1.366 . S
C812 C813 1.415 1_455 S
C812 H874 0.932 1_455 S
C813 C812 1.415 1_655 S
C813 C814 1.366 . S
C813 H875 0.931 . S
C814 C813 1.366 . S
C814 N815 1.325 1_655 S
C814 C816 1.516 . S
N815 C810 1.330 . S
N815 C814 1.325 1_455 S
N815 Co831 1.869 . S
C816 C814 1.516 . S
C816 N840 1.316 . S
C816 O863 1.263 . S
C817 C818 1.421 . S
C817 C822 1.360 . S
C817 N840 1.436 . S
C818 C817 1.421 . S
C818 C819 1.379 . S
C818 H876 0.929 . S
C819 C818 1.379 . S
C819 C820 1.417 . S
C820 C819 1.417 . S
C820 C821 1.352 . S
C820 H877 0.929 . S
C821 C820 1.352 . S
C821 C822 1.393 . S
C822 C817 1.360 . S
C822 C821 1.393 . S
C822 H878 0.931 1_655 S
Cd823 O843 2.329 . S
Cd823 O845 2.350 . S
Cd823 O846 2.277 . S
Cd823 O848 2.173 . S
Cd823 O852 2.263 . S
Cd823 O863 2.366 . S
Cd824 O842 2.352 . S
Cd824 O849 2.250 . S
Cd824 O853 2.308 1_655 S
C825 C829 1.403 . S
C825 C830 1.370 . S
C825 N841 1.423 . S
C826 C827 1.389 . S
C826 C830 1.389 . S
C827 C826 1.389 . S
C827 C828 1.379 . S
C827 H879 0.929 . S
C828 C827 1.379 . S
C828 C829 1.405 . S
C829 C825 1.403 . S
C829 C828 1.405 . S
C829 H880 0.932 . S
C830 C825 1.370 . S
C830 C826 1.389 . S
C830 H881 0.931 . S
Co831 N815 1.869 . S
Co831 N832 1.955 1_455 S
Co831 N833 1.864 . S
Co831 N839 1.958 . S
Co831 N840 1.953 1_455 S
Co831 N841 1.974 . S
N832 Co831 1.955 1_655 S
N832 C850 1.329 . S
N832 C865 1.432 . S
N833 Co831 1.864 . S
N833 C834 1.327 . S
N833 C838 1.342 . S
C834 N833 1.327 . S
C834 C835 1.407 . S
C834 C850 1.481 1_455 S
C835 C834 1.407 . S
C835 C836 1.364 . S
C835 H882 0.930 . S
C836 C835 1.364 . S
C836 C837 1.390 . S
C836 H883 0.931 . S
C837 C836 1.390 . S
C837 C838 1.346 . S
C837 H884 0.930 . S
C838 N833 1.342 . S
C838 C837 1.346 . S
C838 C854 1.516 . S
N839 Co831 1.958 . S
N839 C854 1.324 . S
N839 C856 1.427 . S
N840 C816 1.316 . S
N840 C817 1.436 . S
N840 Co831 1.953 1_655 S
N841 C825 1.423 . S
N841 Co831 1.974 . S
N841 C871 1.309 . S
O842 Cd824 2.352 . S
O842 C862 1.235 . S
O843 Cd823 2.329 . S
O843 C862 1.270 . S
C844 O845 1.270 . S
C844 O846 1.248 . S
O845 Cd823 2.350 . S
O845 C844 1.270 . S
O846 Cd823 2.277 . S
O846 C844 1.248 . S
C847 O848 1.277 . S
C847 O849 1.230 . S
O848 Cd823 2.173 . S
O848 C847 1.277 . S
O849 Cd824 2.250 . S
O849 C847 1.230 . S
C850 N832 1.329 . S
C850 C834 1.481 1_655 S
C850 O851 1.246 . S
O851 C850 1.246 . S
O852 Cd823 2.263 . S
O852 C864 1.258 1_655 S
O853 Cd824 2.308 1_455 S
O853 C864 1.274 . S
C854 C838 1.516 . S
C854 N839 1.324 . S
C854 O855 1.238 . S
O855 C854 1.238 . S
C856 N839 1.427 . S
C856 C857 1.394 . S
C856 C861 1.395 . S
C857 C856 1.394 . S
C857 C858 1.380 . S
C857 H885 0.929 . S
C858 C857 1.380 . S
C858 C859 1.384 . S
C858 C864 1.495 . S
C859 C858 1.384 . S
C859 C860 1.382 . S
C859 H886 0.930 . S
C860 C859 1.382 . S
C860 C861 1.398 . S
C861 C856 1.395 . S
C861 C860 1.398 . S
C861 H887 0.930 . S
C862 O842 1.235 . S
C862 O843 1.270 . S
O863 C816 1.263 . S
O863 Cd823 2.366 . S
C864 O852 1.258 1_455 S
C864 O853 1.274 . S
C864 C858 1.495 . S
C865 N832 1.432 . S
C865 C866 1.381 . S
C865 C870 1.385 . S
C866 C865 1.381 . S
C866 C867 1.371 . S
C866 H888 0.932 1_655 S
C867 C866 1.371 . S
C867 C868 1.400 . S
C868 C867 1.400 . S
C868 C869 1.351 . S
C868 H889 0.930 . S
C869 C868 1.351 . S
C869 C870 1.388 . S
C870 C865 1.385 . S
C870 C869 1.388 . S
C870 H890 0.929 . S
C871 C810 1.504 . S
C871 N841 1.309 . S
C871 O872 1.258 . S
O872 C871 1.258 . S
H873 C811 0.929 . S
H874 C812 0.932 1_655 S
H875 C813 0.931 . S
H876 C818 0.929 . S
H877 C820 0.929 . S
H878 C822 0.931 1_455 S
H879 C827 0.929 . S
H880 C829 0.932 . S
H881 C830 0.931 . S
H882 C835 0.930 . S
H883 C836 0.931 . S
H884 C837 0.930 . S
H885 C857 0.929 . S
H886 C859 0.930 . S
H887 C861 0.930 . S
H888 C866 0.932 1_455 S
H889 C868 0.930 . S
H890 C870 0.929 . S
C891 C892 1.359 . S
C891 N896 1.330 . S
C891 C952 1.504 . S
C892 C891 1.359 . S
C892 C893 1.366 . S
C892 H954 0.929 . S
C893 C892 1.366 . S
C893 C894 1.415 1_545 S
C893 H955 0.932 1_545 S
C894 C893 1.415 1_565 S
C894 C895 1.366 . S
C894 H956 0.931 . S
C895 C894 1.366 . S
C895 N896 1.325 1_565 S
C895 C897 1.516 . S
N896 C891 1.330 . S
N896 C895 1.325 1_545 S
N896 Co912 1.869 . S
C897 C895 1.516 . S
C897 N921 1.316 . S
C897 O944 1.263 . S
C898 C899 1.421 . S
C898 C903 1.360 . S
C898 N921 1.436 . S
C899 C898 1.421 . S
C899 C900 1.379 . S
C899 H957 0.929 . S
C900 C899 1.379 . S
C900 C901 1.417 . S
C901 C900 1.417 . S
C901 C902 1.352 . S
C901 H958 0.929 . S
C902 C901 1.352 . S
C902 C903 1.393 . S
C903 C898 1.360 . S
C903 C902 1.393 . S
C903 H959 0.931 1_565 S
Cd904 O924 2.329 . S
Cd904 O926 2.350 . S
Cd904 O927 2.277 . S
Cd904 O929 2.173 . S
Cd904 O933 2.263 . S
Cd904 O944 2.366 . S
Cd905 O923 2.352 . S
Cd905 O930 2.250 . S
Cd905 O934 2.308 1_565 S
C906 C910 1.403 . S
C906 C911 1.370 . S
C906 N922 1.423 . S
C907 C908 1.389 . S
C907 C911 1.389 . S
C908 C907 1.389 . S
C908 C909 1.379 . S
C908 H960 0.929 . S
C909 C908 1.379 . S
C909 C910 1.405 . S
C910 C906 1.403 . S
C910 C909 1.405 . S
C910 H961 0.932 . S
C911 C906 1.370 . S
C911 C907 1.389 . S
C911 H962 0.931 . S
Co912 N896 1.869 . S
Co912 N913 1.955 1_545 S
Co912 N914 1.864 . S
Co912 N920 1.958 . S
Co912 N921 1.953 1_545 S
Co912 N922 1.974 . S
N913 Co912 1.955 1_565 S
N913 C931 1.329 . S
N913 C946 1.432 . S
N914 Co912 1.864 . S
N914 C915 1.327 . S
N914 C919 1.342 . S
C915 N914 1.327 . S
C915 C916 1.407 . S
C915 C931 1.481 1_545 S
C916 C915 1.407 . S
C916 C917 1.364 . S
C916 H963 0.930 . S
C917 C916 1.364 . S
C917 C918 1.390 . S
C917 H964 0.931 . S
C918 C917 1.390 . S
C918 C919 1.346 . S
C918 H965 0.930 . S
C919 N914 1.342 . S
C919 C918 1.346 . S
C919 C935 1.516 . S
N920 Co912 1.958 . S
N920 C935 1.324 . S
N920 C937 1.427 . S
N921 C897 1.316 . S
N921 C898 1.436 . S
N921 Co912 1.953 1_565 S
N922 C906 1.423 . S
N922 Co912 1.974 . S
N922 C952 1.309 . S
O923 Cd905 2.352 . S
O923 C943 1.235 . S
O924 Cd904 2.329 . S
O924 C943 1.270 . S
C925 O926 1.270 . S
C925 O927 1.248 . S
O926 Cd904 2.350 . S
O926 C925 1.270 . S
O927 Cd904 2.277 . S
O927 C925 1.248 . S
C928 O929 1.277 . S
C928 O930 1.230 . S
O929 Cd904 2.173 . S
O929 C928 1.277 . S
O930 Cd905 2.250 . S
O930 C928 1.230 . S
C931 N913 1.329 . S
C931 C915 1.481 1_565 S
C931 O932 1.246 . S
O932 C931 1.246 . S
O933 Cd904 2.263 . S
O933 C945 1.258 1_565 S
O934 Cd905 2.308 1_545 S
O934 C945 1.274 . S
C935 C919 1.516 . S
C935 N920 1.324 . S
C935 O936 1.238 . S
O936 C935 1.238 . S
C937 N920 1.427 . S
C937 C938 1.394 . S
C937 C942 1.395 . S
C938 C937 1.394 . S
C938 C939 1.380 . S
C938 H966 0.929 . S
C939 C938 1.380 . S
C939 C940 1.384 . S
C939 C945 1.495 . S
C940 C939 1.384 . S
C940 C941 1.382 . S
C940 H967 0.930 . S
C941 C940 1.382 . S
C941 C942 1.398 . S
C942 C937 1.395 . S
C942 C941 1.398 . S
C942 H968 0.930 . S
C943 O923 1.235 . S
C943 O924 1.270 . S
O944 C897 1.263 . S
O944 Cd904 2.366 . S
C945 O933 1.258 1_545 S
C945 O934 1.274 . S
C945 C939 1.495 . S
C946 N913 1.432 . S
C946 C947 1.381 . S
C946 C951 1.385 . S
C947 C946 1.381 . S
C947 C948 1.371 . S
C947 H969 0.932 1_565 S
C948 C947 1.371 . S
C948 C949 1.400 . S
C949 C948 1.400 . S
C949 C950 1.351 . S
C949 H970 0.930 . S
C950 C949 1.351 . S
C950 C951 1.388 . S
C951 C946 1.385 . S
C951 C950 1.388 . S
C951 H971 0.929 . S
C952 C891 1.504 . S
C952 N922 1.309 . S
C952 O953 1.258 . S
O953 C952 1.258 . S
H954 C892 0.929 . S
H955 C893 0.932 1_565 S
H956 C894 0.931 . S
H957 C899 0.929 . S
H958 C901 0.929 . S
H959 C903 0.931 1_545 S
H960 C908 0.929 . S
H961 C910 0.932 . S
H962 C911 0.931 . S
H963 C916 0.930 . S
H964 C917 0.931 . S
H965 C918 0.930 . S
H966 C938 0.929 . S
H967 C940 0.930 . S
H968 C942 0.930 . S
H969 C947 0.932 1_545 S
H970 C949 0.930 . S
H971 C951 0.929 . S
H972 C978 0.930 . S
H973 C981 0.930 . S
H974 C982 0.930 . S
H975 C983 0.930 . S
H976 C986 0.930 . S
H977 C987 0.930 . S
C978 H972 0.930 . S
C978 C979 1.355 . S
C978 C980 1.415 . S
C979 C978 1.355 . S
C979 C981 1.419 . S
C980 C978 1.415 . S
C980 C985 1.425 . S
C980 C987 1.409 . S
C981 H973 0.930 . S
C981 C979 1.419 . S
C981 C982 1.362 . S
C982 H974 0.930 . S
C982 C981 1.362 . S
C982 C985 1.409 . S
C983 H975 0.930 . S
C983 C984 1.355 . S
C983 C985 1.415 . S
C984 C983 1.355 . S
C984 C986 1.419 . S
C985 C980 1.425 . S
C985 C982 1.409 . S
C985 C983 1.415 . S
C986 H976 0.930 . S
C986 C984 1.419 . S
C986 C987 1.362 . S
C987 H977 0.930 . S
C987 C980 1.409 . S
C987 C986 1.362 . S
H988 C994 0.930 . S
H989 C997 0.930 . S
H990 C998 0.930 . S
H991 C999 0.930 . S
H992 C1002 0.930 . S
H993 C1003 0.930 . S
C994 H988 0.930 . S
C994 C995 1.355 . S
C994 C996 1.415 . S
C995 C994 1.355 . S
C995 C997 1.419 . S
C996 C994 1.415 . S
C996 C1001 1.425 . S
C996 C1003 1.409 . S
C997 H989 0.930 . S
C997 C995 1.419 . S
C997 C998 1.362 . S
C998 H990 0.930 . S
C998 C997 1.362 . S
C998 C1001 1.409 . S
C999 H991 0.930 . S
C999 C1000 1.355 . S
C999 C1001 1.415 . S
C1000 C999 1.355 . S
C1000 C1002 1.419 . S
C1001 C996 1.425 . S
C1001 C998 1.409 . S
C1001 C999 1.415 . S
C1002 H992 0.930 . S
C1002 C1000 1.419 . S
C1002 C1003 1.362 . S
C1003 H993 0.930 . S
C1003 C996 1.409 . S
C1003 C1002 1.362 . S
H1004 C1010 0.930 . S
H1005 C1013 0.930 . S
H1006 C1014 0.930 . S
H1007 C1015 0.930 . S
H1008 C1018 0.930 . S
H1009 C1019 0.930 . S
C1010 H1004 0.930 . S
C1010 C1011 1.355 . S
C1010 C1012 1.415 . S
C1011 C1010 1.355 . S
C1011 C1013 1.419 . S
C1012 C1010 1.415 . S
C1012 C1017 1.425 . S
C1012 C1019 1.409 . S
C1013 H1005 0.930 . S
C1013 C1011 1.419 . S
C1013 C1014 1.362 . S
C1014 H1006 0.930 . S
C1014 C1013 1.362 . S
C1014 C1017 1.409 . S
C1015 H1007 0.930 . S
C1015 C1016 1.355 . S
C1015 C1017 1.415 . S
C1016 C1015 1.355 . S
C1016 C1018 1.419 . S
C1017 C1012 1.425 . S
C1017 C1014 1.409 . S
C1017 C1015 1.415 . S
C1018 H1008 0.930 . S
C1018 C1016 1.419 . S
C1018 C1019 1.362 . S
C1019 H1009 0.930 . S
C1019 C1012 1.409 . S
C1019 C1018 1.362 . S
H1020 C1026 0.930 . S
H1021 C1029 0.930 . S
H1022 C1030 0.930 . S
H1023 C1031 0.930 . S
H1024 C1034 0.930 . S
H1025 C1035 0.930 . S
C1026 H1020 0.930 . S
C1026 C1027 1.355 . S
C1026 C1028 1.415 . S
C1027 C1026 1.355 . S
C1027 C1029 1.419 . S
C1028 C1026 1.415 . S
C1028 C1033 1.425 . S
C1028 C1035 1.409 . S
C1029 H1021 0.930 . S
C1029 C1027 1.419 . S
C1029 C1030 1.362 . S
C1030 H1022 0.930 . S
C1030 C1029 1.362 . S
C1030 C1033 1.409 . S
C1031 H1023 0.930 . S
C1031 C1032 1.355 . S
C1031 C1033 1.415 . S
C1032 C1031 1.355 . S
C1032 C1034 1.419 . S
C1033 C1028 1.425 . S
C1033 C1030 1.409 . S
C1033 C1031 1.415 . S
C1034 H1024 0.930 . S
C1034 C1032 1.419 . S
C1034 C1035 1.362 . S
C1035 H1025 0.930 . S
C1035 C1028 1.409 . S
C1035 C1034 1.362 . S
H1036 C1042 0.930 . S
H1037 C1045 0.930 . S
H1038 C1046 0.930 . S
H1039 C1047 0.930 . S
H1040 C1050 0.930 . S
H1041 C1051 0.930 . S
C1042 H1036 0.930 . S
C1042 C1043 1.355 . S
C1042 C1044 1.415 . S
C1043 C1042 1.355 . S
C1043 C1045 1.419 . S
C1044 C1042 1.415 . S
C1044 C1049 1.425 . S
C1044 C1051 1.409 . S
C1045 H1037 0.930 . S
C1045 C1043 1.419 . S
C1045 C1046 1.362 . S
C1046 H1038 0.930 . S
C1046 C1045 1.362 . S
C1046 C1049 1.409 . S
C1047 H1039 0.930 . S
C1047 C1048 1.355 . S
C1047 C1049 1.415 . S
C1048 C1047 1.355 . S
C1048 C1050 1.419 . S
C1049 C1044 1.425 . S
C1049 C1046 1.409 . S
C1049 C1047 1.415 . S
C1050 H1040 0.930 . S
C1050 C1048 1.419 . S
C1050 C1051 1.362 . S
C1051 H1041 0.930 . S
C1051 C1044 1.409 . S
C1051 C1050 1.362 . S
H1052 C1058 0.930 . S
H1053 C1061 0.930 . S
H1054 C1062 0.930 . S
H1055 C1063 0.930 . S
H1056 C1066 0.930 . S
H1057 C1067 0.930 . S
C1058 H1052 0.930 . S
C1058 C1059 1.355 . S
C1058 C1060 1.415 . S
C1059 C1058 1.355 . S
C1059 C1061 1.419 . S
C1060 C1058 1.415 . S
C1060 C1065 1.425 . S
C1060 C1067 1.409 . S
C1061 H1053 0.930 . S
C1061 C1059 1.419 . S
C1061 C1062 1.362 . S
C1062 H1054 0.930 . S
C1062 C1061 1.362 . S
C1062 C1065 1.409 . S
C1063 H1055 0.930 . S
C1063 C1064 1.355 . S
C1063 C1065 1.415 . S
C1064 C1063 1.355 . S
C1064 C1066 1.419 . S
C1065 C1060 1.425 . S
C1065 C1062 1.409 . S
C1065 C1063 1.415 . S
C1066 H1056 0.930 . S
C1066 C1064 1.419 . S
C1066 C1067 1.362 . S
C1067 H1057 0.930 . S
C1067 C1060 1.409 . S
C1067 C1066 1.362 . S
H1068 C1074 0.930 . S
H1069 C1077 0.930 . S
H1070 C1078 0.930 . S
H1071 C1079 0.930 . S
H1072 C1082 0.930 . S
H1073 C1083 0.930 1_565 S
C1074 H1068 0.930 . S
C1074 C1075 1.355 1_554 S
C1074 C1076 1.415 . S
C1075 C1074 1.355 1_556 S
C1075 C1077 1.419 . S
C1076 C1074 1.415 . S
C1076 C1081 1.425 1_564 S
C1076 C1083 1.409 1_565 S
C1077 H1069 0.930 . S
C1077 C1075 1.419 . S
C1077 C1078 1.362 . S
C1078 H1070 0.930 . S
C1078 C1077 1.362 . S
C1078 C1081 1.409 1_565 S
C1079 H1071 0.930 . S
C1079 C1080 1.355 1_556 S
C1079 C1081 1.415 . S
C1080 C1079 1.355 1_554 S
C1080 C1082 1.419 . S
C1081 C1076 1.425 1_546 S
C1081 C1078 1.409 1_545 S
C1081 C1079 1.415 . S
C1082 H1072 0.930 . S
C1082 C1080 1.419 . S
C1082 C1083 1.362 . S
C1083 H1073 0.930 1_545 S
C1083 C1076 1.409 1_545 S
C1083 C1082 1.362 . S
H1084 C1090 0.930 . S
H1085 C1093 0.930 . S
H1086 C1094 0.930 . S
H1087 C1095 0.930 . S
H1088 C1098 0.930 . S
H1089 C1099 0.930 . S
C1090 H1084 0.930 . S
C1090 C1091 1.355 . S
C1090 C1092 1.415 . S
C1091 C1090 1.355 . S
C1091 C1093 1.419 . S
C1092 C1090 1.415 . S
C1092 C1097 1.425 . S
C1092 C1099 1.409 . S
C1093 H1085 0.930 . S
C1093 C1091 1.419 . S
C1093 C1094 1.362 . S
C1094 H1086 0.930 . S
C1094 C1093 1.362 . S
C1094 C1097 1.409 . S
C1095 H1087 0.930 . S
C1095 C1096 1.355 . S
C1095 C1097 1.415 . S
C1096 C1095 1.355 . S
C1096 C1098 1.419 . S
C1097 C1092 1.425 . S
C1097 C1094 1.409 . S
C1097 C1095 1.415 . S
C1098 H1088 0.930 . S
C1098 C1096 1.419 . S
C1098 C1099 1.362 . S
C1099 H1089 0.930 . S
C1099 C1092 1.409 . S
C1099 C1098 1.362 . S
H1100 C1106 0.930 . S
H1101 C1109 0.930 . S
H1102 C1110 0.930 . S
H1103 C1111 0.930 . S
H1104 C1114 0.930 . S
H1105 C1115 0.930 . S
C1106 H1100 0.930 . S
C1106 C1107 1.355 . S
C1106 C1108 1.415 . S
C1107 C1106 1.355 . S
C1107 C1109 1.419 . S
C1108 C1106 1.415 . S
C1108 C1113 1.425 1_455 S
C1108 C1115 1.409 1_455 S
C1109 H1101 0.930 . S
C1109 C1107 1.419 . S
C1109 C1110 1.362 . S
C1110 H1102 0.930 . S
C1110 C1109 1.362 . S
C1110 C1113 1.409 1_455 S
C1111 H1103 0.930 . S
C1111 C1112 1.355 . S
C1111 C1113 1.415 . S
C1112 C1111 1.355 . S
C1112 C1114 1.419 . S
C1113 C1108 1.425 1_655 S
C1113 C1110 1.409 1_655 S
C1113 C1111 1.415 . S
C1114 H1104 0.930 . S
C1114 C1112 1.419 . S
C1114 C1115 1.362 . S
C1115 H1105 0.930 . S
C1115 C1108 1.409 1_655 S
C1115 C1114 1.362 . S
H1116 C1122 0.930 . S
H1117 C1125 0.930 . S
H1118 C1126 0.930 1_545 S
H1119 C1127 0.930 . S
H1120 C1130 0.930 . S
H1121 C1131 0.930 . S
C1122 H1116 0.930 . S
C1122 C1123 1.355 . S
C1122 C1124 1.415 . S
C1123 C1122 1.355 . S
C1123 C1125 1.419 . S
C1124 C1122 1.415 . S
C1124 C1129 1.425 1_565 S
C1124 C1131 1.409 1_565 S
C1125 H1117 0.930 . S
C1125 C1123 1.419 . S
C1125 C1126 1.362 . S
C1126 H1118 0.930 1_565 S
C1126 C1125 1.362 . S
C1126 C1129 1.409 1_565 S
C1127 H1119 0.930 . S
C1127 C1128 1.355 . S
C1127 C1129 1.415 . S
C1128 C1127 1.355 . S
C1128 C1130 1.419 . S
C1129 C1124 1.425 1_545 S
C1129 C1126 1.409 1_545 S
C1129 C1127 1.415 . S
C1130 H1120 0.930 . S
C1130 C1128 1.419 . S
C1130 C1131 1.362 . S
C1131 H1121 0.930 . S
C1131 C1124 1.409 1_545 S
C1131 C1130 1.362 . S
H1132 C1138 0.930 . S
H1133 C1141 0.930 . S
H1134 C1142 0.930 . S
H1135 C1143 0.930 . S
H1136 C1146 0.930 . S
H1137 C1147 0.930 . S
C1138 H1132 0.930 . S
C1138 C1139 1.355 . S
C1138 C1140 1.415 . S
C1139 C1138 1.355 . S
C1139 C1141 1.419 . S
C1140 C1138 1.415 . S
C1140 C1145 1.425 . S
C1140 C1147 1.409 . S
C1141 H1133 0.930 . S
C1141 C1139 1.419 . S
C1141 C1142 1.362 . S
C1142 H1134 0.930 . S
C1142 C1141 1.362 . S
C1142 C1145 1.409 . S
C1143 H1135 0.930 . S
C1143 C1144 1.355 . S
C1143 C1145 1.415 . S
C1144 C1143 1.355 . S
C1144 C1146 1.419 . S
C1145 C1140 1.425 . S
C1145 C1142 1.409 . S
C1145 C1143 1.415 . S
C1146 H1136 0.930 . S
C1146 C1144 1.419 . S
C1146 C1147 1.362 . S
C1147 H1137 0.930 . S
C1147 C1140 1.409 . S
C1147 C1146 1.362 . S
H1148 C1154 0.930 . S
H1149 C1157 0.930 . S
H1150 C1158 0.930 1_455 S
H1151 C1159 0.930 . S
H1152 C1162 0.930 . S
H1153 C1163 0.930 . S
C1154 H1148 0.930 . S
C1154 C1155 1.355 . S
C1154 C1156 1.415 . S
C1155 C1154 1.355 . S
C1155 C1157 1.419 . S
C1156 C1154 1.415 . S
C1156 C1161 1.425 1_655 S
C1156 C1163 1.409 1_655 S
C1157 H1149 0.930 . S
C1157 C1155 1.419 . S
C1157 C1158 1.362 . S
C1158 H1150 0.930 1_655 S
C1158 C1157 1.362 . S
C1158 C1161 1.409 1_655 S
C1159 H1151 0.930 . S
C1159 C1160 1.355 . S
C1159 C1161 1.415 . S
C1160 C1159 1.355 . S
C1160 C1162 1.419 . S
C1161 C1156 1.425 1_455 S
C1161 C1158 1.409 1_455 S
C1161 C1159 1.415 . S
C1162 H1152 0.930 . S
C1162 C1160 1.419 . S
C1162 C1163 1.362 . S
C1163 H1153 0.930 . S
C1163 C1156 1.409 1_455 S
C1163 C1162 1.362 . S
H1164 C1170 0.930 . S
H1165 C1173 0.930 . S
H1166 C1174 0.930 . S
H1167 C1175 0.930 . S
H1168 C1178 0.930 . S
H1169 C1179 0.930 . S
C1170 H1164 0.930 . S
C1170 C1171 1.355 . S
C1170 C1172 1.415 . S
C1171 C1170 1.355 . S
C1171 C1173 1.419 . S
C1172 C1170 1.415 . S
C1172 C1177 1.425 . S
C1172 C1179 1.409 . S
C1173 H1165 0.930 . S
C1173 C1171 1.419 . S
C1173 C1174 1.362 . S
C1174 H1166 0.930 . S
C1174 C1173 1.362 . S
C1174 C1177 1.409 . S
C1175 H1167 0.930 . S
C1175 C1176 1.355 . S
C1175 C1177 1.415 . S
C1176 C1175 1.355 . S
C1176 C1178 1.419 . S
C1177 C1172 1.425 . S
C1177 C1174 1.409 . S
C1177 C1175 1.415 . S
C1178 H1168 0.930 . S
C1178 C1176 1.419 . S
C1178 C1179 1.362 . S
C1179 H1169 0.930 . S
C1179 C1172 1.409 . S
C1179 C1178 1.362 . S
H1180 C1186 0.930 . S
H1181 C1189 0.930 . S
H1182 C1190 0.930 . S
H1183 C1191 0.930 . S
H1184 C1194 0.930 . S
H1185 C1195 0.930 . S
C1186 H1180 0.930 . S
C1186 C1187 1.355 . S
C1186 C1188 1.415 . S
C1187 C1186 1.355 . S
C1187 C1189 1.419 . S
C1188 C1186 1.415 . S
C1188 C1193 1.425 . S
C1188 C1195 1.409 . S
C1189 H1181 0.930 . S
C1189 C1187 1.419 . S
C1189 C1190 1.362 . S
C1190 H1182 0.930 . S
C1190 C1189 1.362 . S
C1190 C1193 1.409 . S
C1191 H1183 0.930 . S
C1191 C1192 1.355 . S
C1191 C1193 1.415 . S
C1192 C1191 1.355 . S
C1192 C1194 1.419 . S
C1193 C1188 1.425 . S
C1193 C1190 1.409 . S
C1193 C1191 1.415 . S
C1194 H1184 0.930 . S
C1194 C1192 1.419 . S
C1194 C1195 1.362 . S
C1195 H1185 0.930 . S
C1195 C1188 1.409 . S
C1195 C1194 1.362 . S
H1196 C1202 0.930 . S
H1197 C1205 0.930 . S
H1198 C1206 0.930 . S
H1199 C1207 0.930 . S
H1200 C1210 0.930 . S
H1201 C1211 0.930 . S
C1202 H1196 0.930 . S
C1202 C1203 1.355 . S
C1202 C1204 1.415 . S
C1203 C1202 1.355 . S
C1203 C1205 1.419 . S
C1204 C1202 1.415 . S
C1204 C1209 1.425 . S
C1204 C1211 1.409 . S
C1205 H1197 0.930 . S
C1205 C1203 1.419 . S
C1205 C1206 1.362 . S
C1206 H1198 0.930 . S
C1206 C1205 1.362 . S
C1206 C1209 1.409 . S
C1207 H1199 0.930 . S
C1207 C1208 1.355 . S
C1207 C1209 1.415 . S
C1208 C1207 1.355 . S
C1208 C1210 1.419 . S
C1209 C1204 1.425 . S
C1209 C1206 1.409 . S
C1209 C1207 1.415 . S
C1210 H1200 0.930 . S
C1210 C1208 1.419 . S
C1210 C1211 1.362 . S
C1211 H1201 0.930 . S
C1211 C1204 1.409 . S
C1211 C1210 1.362 . S
H1212 C1218 0.930 . S
H1213 C1221 0.930 . S
H1214 C1222 0.930 . S
H1215 C1223 0.930 . S
H1216 C1226 0.930 . S
H1217 C1227 0.930 . S
C1218 H1212 0.930 . S
C1218 C1219 1.355 . S
C1218 C1220 1.415 . S
C1219 C1218 1.355 . S
C1219 C1221 1.419 . S
C1220 C1218 1.415 . S
C1220 C1225 1.425 . S
C1220 C1227 1.409 . S
C1221 H1213 0.930 . S
C1221 C1219 1.419 . S
C1221 C1222 1.362 . S
C1222 H1214 0.930 . S
C1222 C1221 1.362 . S
C1222 C1225 1.409 . S
C1223 H1215 0.930 . S
C1223 C1224 1.355 . S
C1223 C1225 1.415 . S
C1224 C1223 1.355 . S
C1224 C1226 1.419 . S
C1225 C1220 1.425 . S
C1225 C1222 1.409 . S
C1225 C1223 1.415 . S
C1226 H1216 0.930 . S
C1226 C1224 1.419 . S
C1226 C1227 1.362 . S
C1227 H1217 0.930 . S
C1227 C1220 1.409 . S
C1227 C1226 1.362 . S
H1228 C1234 0.930 . S
H1229 C1237 0.930 . S
H1230 C1238 0.930 . S
H1231 C1239 0.930 . S
H1232 C1242 0.930 . S
H1233 C1243 0.930 . S
C1234 H1228 0.930 . S
C1234 C1235 1.355 . S
C1234 C1236 1.415 . S
C1235 C1234 1.355 . S
C1235 C1237 1.419 . S
C1236 C1234 1.415 . S
C1236 C1241 1.425 . S
C1236 C1243 1.409 . S
C1237 H1229 0.930 . S
C1237 C1235 1.419 . S
C1237 C1238 1.362 . S
C1238 H1230 0.930 . S
C1238 C1237 1.362 . S
C1238 C1241 1.409 . S
C1239 H1231 0.930 . S
C1239 C1240 1.355 . S
C1239 C1241 1.415 . S
C1240 C1239 1.355 . S
C1240 C1242 1.419 . S
C1241 C1236 1.425 . S
C1241 C1238 1.409 . S
C1241 C1239 1.415 . S
C1242 H1232 0.930 . S
C1242 C1240 1.419 . S
C1242 C1243 1.362 . S
C1243 H1233 0.930 . S
C1243 C1236 1.409 . S
C1243 C1242 1.362 . S
H1244 C1250 0.930 . S
H1245 C1253 0.930 . S
H1246 C1254 0.930 . S
H1247 C1255 0.930 . S
H1248 C1258 0.930 . S
H1249 C1259 0.930 . S
C1250 H1244 0.930 . S
C1250 C1251 1.355 . S
C1250 C1252 1.415 . S
C1251 C1250 1.355 . S
C1251 C1253 1.419 . S
C1252 C1250 1.415 . S
C1252 C1257 1.425 . S
C1252 C1259 1.409 . S
C1253 H1245 0.930 . S
C1253 C1251 1.419 . S
C1253 C1254 1.362 . S
C1254 H1246 0.930 . S
C1254 C1253 1.362 . S
C1254 C1257 1.409 . S
C1255 H1247 0.930 . S
C1255 C1256 1.355 . S
C1255 C1257 1.415 . S
C1256 C1255 1.355 . S
C1256 C1258 1.419 . S
C1257 C1252 1.425 . S
C1257 C1254 1.409 . S
C1257 C1255 1.415 . S
C1258 H1248 0.930 . S
C1258 C1256 1.419 . S
C1258 C1259 1.362 . S
C1259 H1249 0.930 . S
C1259 C1252 1.409 . S
C1259 C1258 1.362 . S
H1260 C1266 0.930 . S
H1261 C1269 0.930 . S
H1262 C1270 0.930 . S
H1263 C1271 0.930 . S
H1264 C1274 0.930 . S
H1265 C1275 0.930 . S
C1266 H1260 0.930 . S
C1266 C1267 1.355 . S
C1266 C1268 1.415 . S
C1267 C1266 1.355 . S
C1267 C1269 1.419 . S
C1268 C1266 1.415 . S
C1268 C1273 1.425 . S
C1268 C1275 1.409 . S
C1269 H1261 0.930 . S
C1269 C1267 1.419 . S
C1269 C1270 1.362 . S
C1270 H1262 0.930 . S
C1270 C1269 1.362 . S
C1270 C1273 1.409 . S
C1271 H1263 0.930 . S
C1271 C1272 1.355 . S
C1271 C1273 1.415 . S
C1272 C1271 1.355 . S
C1272 C1274 1.419 . S
C1273 C1268 1.425 . S
C1273 C1270 1.409 . S
C1273 C1271 1.415 . S
C1274 H1264 0.930 . S
C1274 C1272 1.419 . S
C1274 C1275 1.362 . S
C1275 H1265 0.930 . S
C1275 C1268 1.409 . S
C1275 C1274 1.362 . S
H1276 C1282 0.930 . S
H1277 C1285 0.930 . S
H1278 C1286 0.930 . S
H1279 C1287 0.930 . S
H1280 C1290 0.930 . S
H1281 C1291 0.930 . S
C1282 H1276 0.930 . S
C1282 C1283 1.355 . S
C1282 C1284 1.415 . S
C1283 C1282 1.355 . S
C1283 C1285 1.419 . S
C1284 C1282 1.415 . S
C1284 C1289 1.425 . S
C1284 C1291 1.409 . S
C1285 H1277 0.930 . S
C1285 C1283 1.419 . S
C1285 C1286 1.362 . S
C1286 H1278 0.930 . S
C1286 C1285 1.362 . S
C1286 C1289 1.409 . S
C1287 H1279 0.930 . S
C1287 C1288 1.355 . S
C1287 C1289 1.415 . S
C1288 C1287 1.355 . S
C1288 C1290 1.419 . S
C1289 C1284 1.425 . S
C1289 C1286 1.409 . S
C1289 C1287 1.415 . S
C1290 H1280 0.930 . S
C1290 C1288 1.419 . S
C1290 C1291 1.362 . S
C1291 H1281 0.930 . S
C1291 C1284 1.409 . S
C1291 C1290 1.362 . S
H1292 C1298 0.930 . S
H1293 C1301 0.930 . S
H1294 C1302 0.930 . S
H1295 C1303 0.930 . S
H1296 C1306 0.930 . S
H1297 C1307 0.930 . S
C1298 H1292 0.930 . S
C1298 C1299 1.355 . S
C1298 C1300 1.415 . S
C1299 C1298 1.355 . S
C1299 C1301 1.419 . S
C1300 C1298 1.415 . S
C1300 C1305 1.425 . S
C1300 C1307 1.409 . S
C1301 H1293 0.930 . S
C1301 C1299 1.419 . S
C1301 C1302 1.362 . S
C1302 H1294 0.930 . S
C1302 C1301 1.362 . S
C1302 C1305 1.409 . S
C1303 H1295 0.930 . S
C1303 C1304 1.355 . S
C1303 C1305 1.415 . S
C1304 C1303 1.355 . S
C1304 C1306 1.419 . S
C1305 C1300 1.425 . S
C1305 C1302 1.409 . S
C1305 C1303 1.415 . S
C1306 H1296 0.930 . S
C1306 C1304 1.419 . S
C1306 C1307 1.362 . S
C1307 H1297 0.930 . S
C1307 C1300 1.409 . S
C1307 C1306 1.362 . S
H1308 C1314 0.930 . S
H1309 C1317 0.930 . S
H1310 C1318 0.930 . S
H1311 C1319 0.930 . S
H1312 C1322 0.930 . S
H1313 C1323 0.930 . S
C1314 H1308 0.930 . S
C1314 C1315 1.355 . S
C1314 C1316 1.415 . S
C1315 C1314 1.355 . S
C1315 C1317 1.419 . S
C1316 C1314 1.415 . S
C1316 C1321 1.425 . S
C1316 C1323 1.409 . S
C1317 H1309 0.930 . S
C1317 C1315 1.419 . S
C1317 C1318 1.362 . S
C1318 H1310 0.930 . S
C1318 C1317 1.362 . S
C1318 C1321 1.409 . S
C1319 H1311 0.930 . S
C1319 C1320 1.355 . S
C1319 C1321 1.415 . S
C1320 C1319 1.355 . S
C1320 C1322 1.419 . S
C1321 C1316 1.425 . S
C1321 C1318 1.409 . S
C1321 C1319 1.415 . S
C1322 H1312 0.930 . S
C1322 C1320 1.419 . S
C1322 C1323 1.362 . S
C1323 H1313 0.930 . S
C1323 C1316 1.409 . S
C1323 C1322 1.362 . S
H1324 C1330 0.930 . S
H1325 C1333 0.930 . S
H1326 C1334 0.930 . S
H1327 C1335 0.930 . S
H1328 C1338 0.930 . S
H1329 C1339 0.930 . S
C1330 H1324 0.930 . S
C1330 C1331 1.355 . S
C1330 C1332 1.415 . S
C1331 C1330 1.355 . S
C1331 C1333 1.419 . S
C1332 C1330 1.415 . S
C1332 C1337 1.425 . S
C1332 C1339 1.409 . S
C1333 H1325 0.930 . S
C1333 C1331 1.419 . S
C1333 C1334 1.362 . S
C1334 H1326 0.930 . S
C1334 C1333 1.362 . S
C1334 C1337 1.409 . S
C1335 H1327 0.930 . S
C1335 C1336 1.355 . S
C1335 C1337 1.415 . S
C1336 C1335 1.355 . S
C1336 C1338 1.419 . S
C1337 C1332 1.425 . S
C1337 C1334 1.409 . S
C1337 C1335 1.415 . S
C1338 H1328 0.930 . S
C1338 C1336 1.419 . S
C1338 C1339 1.362 . S
C1339 H1329 0.930 . S
C1339 C1332 1.409 . S
C1339 C1338 1.362 . S
H1340 C1346 0.930 . S
H1341 C1349 0.930 . S
H1342 C1350 0.930 . S
H1343 C1351 0.930 . S
H1344 C1354 0.930 . S
H1345 C1355 0.930 . S
C1346 H1340 0.930 . S
C1346 C1347 1.355 . S
C1346 C1348 1.415 . S
C1347 C1346 1.355 . S
C1347 C1349 1.419 . S
C1348 C1346 1.415 . S
C1348 C1353 1.425 . S
C1348 C1355 1.409 . S
C1349 H1341 0.930 . S
C1349 C1347 1.419 . S
C1349 C1350 1.362 . S
C1350 H1342 0.930 . S
C1350 C1349 1.362 . S
C1350 C1353 1.409 . S
C1351 H1343 0.930 . S
C1351 C1352 1.355 . S
C1351 C1353 1.415 . S
C1352 C1351 1.355 . S
C1352 C1354 1.419 . S
C1353 C1348 1.425 . S
C1353 C1350 1.409 . S
C1353 C1351 1.415 . S
C1354 H1344 0.930 . S
C1354 C1352 1.419 . S
C1354 C1355 1.362 . S
C1355 H1345 0.930 . S
C1355 C1348 1.409 . S
C1355 C1354 1.362 . S
H1356 C1362 0.930 . S
H1357 C1365 0.930 . S
H1358 C1366 0.930 . S
H1359 C1367 0.930 . S
H1360 C1370 0.930 . S
H1361 C1371 0.930 . S
C1362 H1356 0.930 . S
C1362 C1363 1.355 . S
C1362 C1364 1.377 1_554 S
C1363 C1362 1.355 . S
C1363 C1365 1.419 . S
C1364 C1362 1.377 1_556 S
C1364 C1369 1.422 1_556 S
C1364 C1371 1.456 . S
C1365 H1357 0.930 . S
C1365 C1363 1.419 . S
C1365 C1366 1.362 . S
C1366 H1358 0.930 . S
C1366 C1365 1.362 . S
C1366 C1369 1.404 . S
C1367 H1359 0.930 . S
C1367 C1368 1.355 . S
C1367 C1369 1.419 1_556 S
C1368 C1367 1.355 . S
C1368 C1370 1.419 . S
C1369 C1364 1.422 1_554 S
C1369 C1366 1.404 . S
C1369 C1367 1.419 1_554 S
C1370 H1360 0.930 . S
C1370 C1368 1.419 . S
C1370 C1371 1.362 . S
C1371 H1361 0.930 . S
C1371 C1364 1.456 . S
C1371 C1370 1.362 . S
H1372 C1378 0.930 . S
H1373 C1381 0.930 . S
H1374 C1382 0.930 . S
H1375 C1383 0.930 . S
H1376 C1386 0.930 . S
H1377 C1387 0.930 . S
C1378 H1372 0.930 . S
C1378 C1379 1.355 . S
C1378 C1380 1.415 . S
C1379 C1378 1.355 . S
C1379 C1381 1.419 . S
C1380 C1378 1.415 . S
C1380 C1385 1.425 . S
C1380 C1387 1.409 . S
C1381 H1373 0.930 . S
C1381 C1379 1.419 . S
C1381 C1382 1.362 . S
C1382 H1374 0.930 . S
C1382 C1381 1.362 . S
C1382 C1385 1.409 . S
C1383 H1375 0.930 . S
C1383 C1384 1.355 . S
C1383 C1385 1.415 . S
C1384 C1383 1.355 . S
C1384 C1386 1.419 . S
C1385 C1380 1.425 . S
C1385 C1382 1.409 . S
C1385 C1383 1.415 . S
C1386 H1376 0.930 . S
C1386 C1384 1.419 . S
C1386 C1387 1.362 . S
C1387 H1377 0.930 . S
C1387 C1380 1.409 . S
C1387 C1386 1.362 . S
H1388 C1394 0.930 . S
H1389 C1397 0.930 . S
H1390 C1398 0.930 . S
H1391 C1399 0.930 . S
H1392 C1402 0.930 . S
H1393 C1403 0.930 . S
C1394 H1388 0.930 . S
C1394 C1395 1.355 . S
C1394 C1396 1.415 . S
C1395 C1394 1.355 . S
C1395 C1397 1.419 . S
C1396 C1394 1.415 . S
C1396 C1401 1.425 . S
C1396 C1403 1.409 . S
C1397 H1389 0.930 . S
C1397 C1395 1.419 . S
C1397 C1398 1.362 . S
C1398 H1390 0.930 . S
C1398 C1397 1.362 . S
C1398 C1401 1.409 . S
C1399 H1391 0.930 . S
C1399 C1400 1.355 . S
C1399 C1401 1.415 . S
C1400 C1399 1.355 . S
C1400 C1402 1.419 . S
C1401 C1396 1.425 . S
C1401 C1398 1.409 . S
C1401 C1399 1.415 . S
C1402 H1392 0.930 . S
C1402 C1400 1.419 . S
C1402 C1403 1.362 . S
C1403 H1393 0.930 . S
C1403 C1396 1.409 . S
C1403 C1402 1.362 . S
H1404 C1410 0.930 . S
H1405 C1413 0.930 . S
H1406 C1414 0.930 . S
H1407 C1415 0.930 . S
H1408 C1418 0.930 . S
H1409 C1419 0.930 . S
C1410 H1404 0.930 . S
C1410 C1411 1.355 . S
C1410 C1412 1.415 . S
C1411 C1410 1.355 . S
C1411 C1413 1.419 . S
C1412 C1410 1.415 . S
C1412 C1417 1.425 . S
C1412 C1419 1.409 . S
C1413 H1405 0.930 . S
C1413 C1411 1.419 . S
C1413 C1414 1.362 . S
C1414 H1406 0.930 . S
C1414 C1413 1.362 . S
C1414 C1417 1.409 . S
C1415 H1407 0.930 . S
C1415 C1416 1.355 . S
C1415 C1417 1.415 . S
C1416 C1415 1.355 . S
C1416 C1418 1.419 . S
C1417 C1412 1.425 . S
C1417 C1414 1.409 . S
C1417 C1415 1.415 . S
C1418 H1408 0.930 . S
C1418 C1416 1.419 . S
C1418 C1419 1.362 . S
C1419 H1409 0.930 . S
C1419 C1412 1.409 . S
C1419 C1418 1.362 . S
H1420 C1426 0.930 . S
H1421 C1429 0.930 . S
H1422 C1430 0.930 . S
H1423 C1431 0.930 . S
H1424 C1434 0.930 . S
H1425 C1435 0.930 . S
C1426 H1420 0.930 . S
C1426 C1427 1.355 . S
C1426 C1428 1.415 . S
C1427 C1426 1.355 . S
C1427 C1429 1.419 . S
C1428 C1426 1.415 . S
C1428 C1433 1.425 . S
C1428 C1435 1.409 . S
C1429 H1421 0.930 . S
C1429 C1427 1.419 . S
C1429 C1430 1.362 . S
C1430 H1422 0.930 . S
C1430 C1429 1.362 . S
C1430 C1433 1.409 . S
C1431 H1423 0.930 . S
C1431 C1432 1.355 . S
C1431 C1433 1.415 . S
C1432 C1431 1.355 . S
C1432 C1434 1.419 . S
C1433 C1428 1.425 . S
C1433 C1430 1.409 . S
C1433 C1431 1.415 . S
C1434 H1424 0.930 . S
C1434 C1432 1.419 . S
C1434 C1435 1.362 . S
C1435 H1425 0.930 . S
C1435 C1428 1.409 . S
C1435 C1434 1.362 . S
H1436 C1442 0.930 . S
H1437 C1445 0.930 . S
H1438 C1446 0.930 . S
H1439 C1447 0.930 . S
H1440 C1450 0.930 . S
H1441 C1451 0.930 . S
C1442 H1436 0.930 . S
C1442 C1443 1.355 . S
C1442 C1444 1.415 . S
C1443 C1442 1.355 . S
C1443 C1445 1.419 . S
C1444 C1442 1.415 . S
C1444 C1449 1.425 . S
C1444 C1451 1.409 . S
C1445 H1437 0.930 . S
C1445 C1443 1.419 . S
C1445 C1446 1.362 . S
C1446 H1438 0.930 . S
C1446 C1445 1.362 . S
C1446 C1449 1.409 . S
C1447 H1439 0.930 . S
C1447 C1448 1.355 . S
C1447 C1449 1.415 . S
C1448 C1447 1.355 . S
C1448 C1450 1.419 . S
C1449 C1444 1.425 . S
C1449 C1446 1.409 . S
C1449 C1447 1.415 . S
C1450 H1440 0.930 . S
C1450 C1448 1.419 . S
C1450 C1451 1.362 . S
C1451 H1441 0.930 . S
C1451 C1444 1.409 . S
C1451 C1450 1.362 . S
H1452 C1458 0.930 . S
H1453 C1461 0.930 . S
H1454 C1462 0.930 . S
H1455 C1463 0.930 . S
H1456 C1466 0.930 . S
H1457 C1467 0.930 . S
C1458 H1452 0.930 . S
C1458 C1459 1.355 . S
C1458 C1460 1.415 . S
C1459 C1458 1.355 . S
C1459 C1461 1.419 . S
C1460 C1458 1.415 . S
C1460 C1465 1.425 . S
C1460 C1467 1.409 . S
C1461 H1453 0.930 . S
C1461 C1459 1.419 . S
C1461 C1462 1.362 . S
C1462 H1454 0.930 . S
C1462 C1461 1.362 . S
C1462 C1465 1.409 . S
C1463 H1455 0.930 . S
C1463 C1464 1.355 . S
C1463 C1465 1.415 . S
C1464 C1463 1.355 . S
C1464 C1466 1.419 . S
C1465 C1460 1.425 . S
C1465 C1462 1.409 . S
C1465 C1463 1.415 . S
C1466 H1456 0.930 . S
C1466 C1464 1.419 . S
C1466 C1467 1.362 . S
C1467 H1457 0.930 . S
C1467 C1460 1.409 . S
C1467 C1466 1.362 . S
H1468 C1474 0.930 . S
H1469 C1477 0.927 . S
H1470 C1478 0.930 . S
H1471 C1479 0.930 . S
H1472 C1482 0.930 . S
H1473 C1483 0.930 . S
C1474 H1468 0.930 . S
C1474 C1475 1.355 . S
C1474 C1476 1.415 . S
C1475 C1474 1.355 . S
C1475 C1477 1.490 . S
C1476 C1474 1.415 . S
C1476 C1481 1.425 1_556 S
C1476 C1483 1.409 . S
C1477 H1469 0.927 . S
C1477 C1475 1.490 . S
C1477 C1478 1.303 1_556 S
C1478 H1470 0.930 . S
C1478 C1477 1.303 1_554 S
C1478 C1481 1.409 . S
C1479 H1471 0.930 . S
C1479 C1480 1.355 . S
C1479 C1481 1.415 . S
C1480 C1479 1.355 . S
C1480 C1482 1.419 . S
C1481 C1476 1.425 1_554 S
C1481 C1478 1.409 . S
C1481 C1479 1.415 . S
C1482 H1472 0.930 . S
C1482 C1480 1.419 . S
C1482 C1483 1.362 1_554 S
C1483 H1473 0.930 . S
C1483 C1476 1.409 . S
C1483 C1482 1.362 1_556 S
H1484 C1490 0.930 . S
H1485 C1493 0.930 . S
H1486 C1494 0.930 . S
H1487 C1495 0.930 . S
H1488 C1498 0.930 . S
H1489 C1499 0.930 . S
C1490 H1484 0.930 . S
C1490 C1491 1.355 . S
C1490 C1492 1.415 . S
C1491 C1490 1.355 . S
C1491 C1493 1.419 . S
C1492 C1490 1.415 . S
C1492 C1497 1.425 . S
C1492 C1499 1.409 . S
C1493 H1485 0.930 . S
C1493 C1491 1.419 . S
C1493 C1494 1.362 . S
C1494 H1486 0.930 . S
C1494 C1493 1.362 . S
C1494 C1497 1.409 . S
C1495 H1487 0.930 . S
C1495 C1496 1.355 . S
C1495 C1497 1.415 . S
C1496 C1495 1.355 . S
C1496 C1498 1.419 . S
C1497 C1492 1.425 . S
C1497 C1494 1.409 . S
C1497 C1495 1.415 . S
C1498 H1488 0.930 . S
C1498 C1496 1.419 . S
C1498 C1499 1.362 . S
C1499 H1489 0.930 . S
C1499 C1492 1.409 . S
C1499 C1498 1.362 . S
H1500 C1506 0.930 . S
H1501 C1509 0.930 . S
H1502 C1510 0.930 . S
H1503 C1511 0.930 . S
H1504 C1514 0.930 . S
H1505 C1515 0.930 . S
C1506 H1500 0.930 . S
C1506 C1507 1.355 . S
C1506 C1508 1.415 . S
C1507 C1506 1.355 . S
C1507 C1509 1.419 . S
C1508 C1506 1.415 . S
C1508 C1513 1.425 . S
C1508 C1515 1.409 . S
C1509 H1501 0.930 . S
C1509 C1507 1.419 . S
C1509 C1510 1.362 . S
C1510 H1502 0.930 . S
C1510 C1509 1.362 . S
C1510 C1513 1.409 . S
C1511 H1503 0.930 . S
C1511 C1512 1.355 . S
C1511 C1513 1.415 . S
C1512 C1511 1.355 . S
C1512 C1514 1.419 . S
C1513 C1508 1.425 . S
C1513 C1510 1.409 . S
C1513 C1511 1.415 . S
C1514 H1504 0.930 . S
C1514 C1512 1.419 . S
C1514 C1515 1.362 . S
C1515 H1505 0.930 . S
C1515 C1508 1.409 . S
C1515 C1514 1.362 . S
H1516 C1522 0.930 . S
H1517 C1525 0.930 . S
H1518 C1526 0.930 . S
H1519 C1527 0.930 . S
H1520 C1530 0.930 . S
H1521 C1531 0.930 . S
C1522 H1516 0.930 . S
C1522 C1523 1.355 . S
C1522 C1524 1.415 . S
C1523 C1522 1.355 . S
C1523 C1525 1.419 . S
C1524 C1522 1.415 . S
C1524 C1529 1.425 . S
C1524 C1531 1.409 . S
C1525 H1517 0.930 . S
C1525 C1523 1.419 . S
C1525 C1526 1.362 . S
C1526 H1518 0.930 . S
C1526 C1525 1.362 . S
C1526 C1529 1.409 . S
C1527 H1519 0.930 . S
C1527 C1528 1.355 . S
C1527 C1529 1.415 . S
C1528 C1527 1.355 . S
C1528 C1530 1.419 . S
C1529 C1524 1.425 . S
C1529 C1526 1.409 . S
C1529 C1527 1.415 . S
C1530 H1520 0.930 . S
C1530 C1528 1.419 . S
C1530 C1531 1.362 . S
C1531 H1521 0.930 . S
C1531 C1524 1.409 . S
C1531 C1530 1.362 . S
H1532 C1538 0.930 . S
H1533 C1541 0.930 . S
H1534 C1542 0.930 . S
H1535 C1543 0.930 . S
H1536 C1546 0.930 . S
H1537 C1547 0.930 . S
C1538 H1532 0.930 . S
C1538 C1539 1.355 . S
C1538 C1540 1.415 . S
C1539 C1538 1.355 . S
C1539 C1541 1.419 . S
C1540 C1538 1.415 . S
C1540 C1545 1.425 . S
C1540 C1547 1.409 . S
C1541 H1533 0.930 . S
C1541 C1539 1.419 . S
C1541 C1542 1.362 . S
C1542 H1534 0.930 . S
C1542 C1541 1.362 . S
C1542 C1545 1.409 . S
C1543 H1535 0.930 . S
C1543 C1544 1.355 . S
C1543 C1545 1.415 . S
C1544 C1543 1.355 . S
C1544 C1546 1.419 . S
C1545 C1540 1.425 . S
C1545 C1542 1.409 . S
C1545 C1543 1.415 . S
C1546 H1536 0.930 . S
C1546 C1544 1.419 . S
C1546 C1547 1.362 . S
C1547 H1537 0.930 . S
C1547 C1540 1.409 . S
C1547 C1546 1.362 . S
H1548 C1554 0.930 . S
H1549 C1557 0.930 . S
H1550 C1558 0.930 . S
H1551 C1559 0.930 . S
H1552 C1562 0.930 . S
H1553 C1563 0.930 . S
C1554 H1548 0.930 . S
C1554 C1555 1.355 . S
C1554 C1556 1.415 . S
C1555 C1554 1.355 . S
C1555 C1557 1.419 . S
C1556 C1554 1.415 . S
C1556 C1561 1.425 . S
C1556 C1563 1.409 . S
C1557 H1549 0.930 . S
C1557 C1555 1.419 . S
C1557 C1558 1.362 . S
C1558 H1550 0.930 . S
C1558 C1557 1.362 . S
C1558 C1561 1.409 . S
C1559 H1551 0.930 . S
C1559 C1560 1.355 . S
C1559 C1561 1.415 . S
C1560 C1559 1.355 . S
C1560 C1562 1.419 . S
C1561 C1556 1.425 . S
C1561 C1558 1.409 . S
C1561 C1559 1.415 . S
C1562 H1552 0.930 . S
C1562 C1560 1.419 . S
C1562 C1563 1.362 . S
C1563 H1553 0.930 . S
C1563 C1556 1.409 . S
C1563 C1562 1.362 . S
H1564 C1570 0.930 . S
H1565 C1573 0.930 . S
H1566 C1574 0.930 . S
H1567 C1575 0.930 . S
H1568 C1578 0.930 . S
H1569 C1579 0.930 . S
C1570 H1564 0.930 . S
C1570 C1571 1.355 . S
C1570 C1572 1.415 . S
C1571 C1570 1.355 . S
C1571 C1573 1.419 . S
C1572 C1570 1.415 . S
C1572 C1577 1.425 . S
C1572 C1579 1.409 . S
C1573 H1565 0.930 . S
C1573 C1571 1.419 . S
C1573 C1574 1.362 . S
C1574 H1566 0.930 . S
C1574 C1573 1.362 . S
C1574 C1577 1.409 . S
C1575 H1567 0.930 . S
C1575 C1576 1.355 . S
C1575 C1577 1.415 . S
C1576 C1575 1.355 . S
C1576 C1578 1.419 . S
C1577 C1572 1.425 . S
C1577 C1574 1.409 . S
C1577 C1575 1.415 . S
C1578 H1568 0.930 . S
C1578 C1576 1.419 . S
C1578 C1579 1.362 . S
C1579 H1569 0.930 . S
C1579 C1572 1.409 . S
C1579 C1578 1.362 . S
H1580 C1586 0.930 . S
H1581 C1589 0.930 . S
H1582 C1590 0.930 . S
H1583 C1591 0.930 . S
H1584 C1594 0.930 . S
H1585 C1595 0.930 . S
C1586 H1580 0.930 . S
C1586 C1587 1.355 . S
C1586 C1588 1.415 . S
C1587 C1586 1.355 . S
C1587 C1589 1.419 . S
C1588 C1586 1.415 . S
C1588 C1593 1.425 . S
C1588 C1595 1.409 . S
C1589 H1581 0.930 . S
C1589 C1587 1.419 . S
C1589 C1590 1.362 . S
C1590 H1582 0.930 . S
C1590 C1589 1.362 . S
C1590 C1593 1.409 . S
C1591 H1583 0.930 . S
C1591 C1592 1.355 . S
C1591 C1593 1.415 . S
C1592 C1591 1.355 . S
C1592 C1594 1.419 . S
C1593 C1588 1.425 . S
C1593 C1590 1.409 . S
C1593 C1591 1.415 . S
C1594 H1584 0.930 . S
C1594 C1592 1.419 . S
C1594 C1595 1.362 . S
C1595 H1585 0.930 . S
C1595 C1588 1.409 . S
C1595 C1594 1.362 . S
H1596 C1602 0.930 . S
H1597 C1605 0.930 . S
H1598 C1606 0.930 . S
H1599 C1607 0.930 . S
H1600 C1610 0.930 . S
H1601 C1611 0.930 . S
C1602 H1596 0.930 . S
C1602 C1603 1.355 . S
C1602 C1604 1.415 . S
C1603 C1602 1.355 . S
C1603 C1605 1.419 . S
C1604 C1602 1.415 . S
C1604 C1609 1.425 . S
C1604 C1611 1.409 . S
C1605 H1597 0.930 . S
C1605 C1603 1.419 . S
C1605 C1606 1.362 . S
C1606 H1598 0.930 . S
C1606 C1605 1.362 . S
C1606 C1609 1.409 . S
C1607 H1599 0.930 . S
C1607 C1608 1.355 . S
C1607 C1609 1.415 . S
C1608 C1607 1.355 . S
C1608 C1610 1.419 . S
C1609 C1604 1.425 . S
C1609 C1606 1.409 . S
C1609 C1607 1.415 . S
C1610 H1600 0.930 . S
C1610 C1608 1.419 . S
C1610 C1611 1.362 . S
C1611 H1601 0.930 . S
C1611 C1604 1.409 . S
C1611 C1610 1.362 . S
H1612 C1618 0.930 . S
H1613 C1621 0.930 . S
H1614 C1622 0.930 . S
H1615 C1623 0.930 . S
H1616 C1626 0.930 . S
H1617 C1627 0.930 . S
C1618 H1612 0.930 . S
C1618 C1619 1.355 . S
C1618 C1620 1.415 . S
C1619 C1618 1.355 . S
C1619 C1621 1.419 . S
C1620 C1618 1.415 . S
C1620 C1625 1.425 . S
C1620 C1627 1.409 . S
C1621 H1613 0.930 . S
C1621 C1619 1.419 . S
C1621 C1622 1.362 . S
C1622 H1614 0.930 . S
C1622 C1621 1.362 . S
C1622 C1625 1.409 . S
C1623 H1615 0.930 . S
C1623 C1624 1.355 . S
C1623 C1625 1.415 . S
C1624 C1623 1.355 . S
C1624 C1626 1.419 . S
C1625 C1620 1.425 . S
C1625 C1622 1.409 . S
C1625 C1623 1.415 . S
C1626 H1616 0.930 . S
C1626 C1624 1.419 . S
C1626 C1627 1.362 . S
C1627 H1617 0.930 . S
C1627 C1620 1.409 . S
C1627 C1626 1.362 . S
H1628 C1634 0.930 . S
H1629 C1637 0.930 . S
H1630 C1638 0.930 . S
H1631 C1639 0.930 . S
H1632 C1642 0.930 . S
H1633 C1643 0.930 . S
C1634 H1628 0.930 . S
C1634 C1635 1.355 . S
C1634 C1636 1.415 . S
C1635 C1634 1.355 . S
C1635 C1637 1.419 . S
C1636 C1634 1.415 . S
C1636 C1641 1.425 . S
C1636 C1643 1.409 . S
C1637 H1629 0.930 . S
C1637 C1635 1.419 . S
C1637 C1638 1.362 . S
C1638 H1630 0.930 . S
C1638 C1637 1.362 . S
C1638 C1641 1.409 . S
C1639 H1631 0.930 . S
C1639 C1640 1.355 . S
C1639 C1641 1.415 . S
C1640 C1639 1.355 . S
C1640 C1642 1.419 . S
C1641 C1636 1.425 . S
C1641 C1638 1.409 . S
C1641 C1639 1.415 . S
C1642 H1632 0.930 . S
C1642 C1640 1.419 . S
C1642 C1643 1.362 . S
C1643 H1633 0.930 . S
C1643 C1636 1.409 . S
C1643 C1642 1.362 . S
C979 C664 1.266 . S
C984 C16 1.305 . S
C995 C97 1.330 . S
C1000 C745 1.312 . S
C1011 C826 1.123 . S
C1016 C178 1.167 . S
C1027 C259 1.329 . S
C1032 C907 1.315 . S
C1043 C340 1.209 . S
C1048 C502 1.222 . S
C1059 C583 1.192 . S
C1064 C421 1.140 . S
C1075 C604 3.159 . S
C1080 C37 3.150 . S
C1091 C685 3.118 . S
C1096 C118 3.145 . S
C1107 C766 3.151 . S
C1112 C199 3.159 . S
C1123 C280 3.166 . S
C1128 C847 3.144 . S
C1139 C361 3.147 . S
C1144 C928 3.134 . S
C1155 C523 3.163 . S
C1160 C442 3.155 . S
C1171 C423 1.962 . S
C1176 C52 1.768 . S
C1187 C133 1.772 . S
C1192 C18 1.938 . S
C1203 C99 1.938 . S
C1208 C214 1.789 . S
C1219 C180 1.954 . S
C1224 C295 1.676 . S
C1235 C261 1.944 . S
C1240 C376 1.807 . S
C1251 C457 1.773 . S
C1256 C342 1.984 . S
C1267 C585 1.945 . S
C1272 C538 1.680 . S
C1283 C666 1.963 . S
C1288 C619 1.711 . S
C1299 C747 1.988 . S
C1304 C700 1.752 . S
C1315 C828 1.948 . S
C1320 C781 1.780 . S
C1331 C862 1.713 . S
C1336 C909 1.958 . S
C1347 C504 1.940 . S
C1352 C943 1.798 . S
C1363 C34 1.321 . S
C1368 C617 1.392 . S
C1379 C115 1.404 . S
C1384 C698 1.415 . S
C1395 C779 1.459 . S
C1400 C196 1.376 . S
C1411 C860 1.336 . S
C1416 C277 1.258 . S
C1427 C358 1.404 . S
C1432 C941 1.413 . S
C1443 C536 1.483 . S
C1448 C439 1.448 . S
C1459 C520 1.362 . S
C1464 C455 1.352 . S
C1475 C601 1.353 . S
C1480 C50 1.439 . S
C1491 C131 1.412 . S
C1496 C682 1.401 . S
C1507 C763 1.312 . S
C1512 C212 1.310 . S
C1523 C293 1.485 . S
C1528 C844 1.441 . S
C1539 C374 1.349 . S
C1544 C925 1.348 . S
C1555 C707 0.699 . S
C1560 C59 0.558 . S
C1571 C140 0.777 . S
C1576 C788 0.794 . S
C1587 C869 0.639 . S
C1592 C221 0.818 . S
C1603 C302 0.695 . S
C1608 C950 0.554 . S
C1619 C383 0.816 . S
C1624 C545 0.709 . S
C1635 C626 0.709 . S
C1640 C464 0.855 . S
