# Generated by pormake.
# Topology crr, (4)-cn, num edge types: 1
# Building blocks:
#     Node 0, Type 0, BuildingBlock: KOZSID_clean_sbu_0, # of connection points: 4
#     Node 1, Type 0, BuildingBlock: KOZSID_clean_sbu_0, # of connection points: 4
#     Node 2, Type 0, BuildingBlock: KOZSID_clean_sbu_0, # of connection points: 4
#     Node 3, Type 0, BuildingBlock: KOZSID_clean_sbu_0, # of connection points: 4
#     Node 4, Type 0, BuildingBlock: KOZSID_clean_sbu_0, # of connection points: 4
#     Node 5, Type 0, BuildingBlock: KOZSID_clean_sbu_0, # of connection points: 4
#     Node 6, Type 0, BuildingBlock: KOZSID_clean_sbu_0, # of connection points: 4
#     Node 7, Type 0, BuildingBlock: KOZSID_clean_sbu_0, # of connection points: 4
#     Node 8, Type 0, BuildingBlock: KOZSID_clean_sbu_0, # of connection points: 4
#     Node 9, Type 0, BuildingBlock: KOZSID_clean_sbu_0, # of connection points: 4
#     Node 10, Type 0, BuildingBlock: KOZSID_clean_sbu_0, # of connection points: 4
#     Node 11, Type 0, BuildingBlock: KOZSID_clean_sbu_0, # of connection points: 4
#     Edge 12, Type (0, 0), BuildingBlock: XIVTED_clean_linker_0, # of connection points: 2
#     Edge 13, Type (0, 0), BuildingBlock: XIVTED_clean_linker_0, # of connection points: 2
#     Edge 14, Type (0, 0), BuildingBlock: XIVTED_clean_linker_0, # of connection points: 2
#     Edge 15, Type (0, 0), BuildingBlock: XIVTED_clean_linker_0, # of connection points: 2
#     Edge 16, Type (0, 0), BuildingBlock: XIVTED_clean_linker_0, # of connection points: 2
#     Edge 17, Type (0, 0), BuildingBlock: XIVTED_clean_linker_0, # of connection points: 2
#     Edge 18, Type (0, 0), BuildingBlock: XIVTED_clean_linker_0, # of connection points: 2
#     Edge 19, Type (0, 0), BuildingBlock: XIVTED_clean_linker_0, # of connection points: 2
#     Edge 20, Type (0, 0), BuildingBlock: XIVTED_clean_linker_0, # of connection points: 2
#     Edge 21, Type (0, 0), BuildingBlock: XIVTED_clean_linker_0, # of connection points: 2
#     Edge 22, Type (0, 0), BuildingBlock: XIVTED_clean_linker_0, # of connection points: 2
#     Edge 23, Type (0, 0), BuildingBlock: XIVTED_clean_linker_0, # of connection points: 2
#     Edge 24, Type (0, 0), BuildingBlock: XIVTED_clean_linker_0, # of connection points: 2
#     Edge 25, Type (0, 0), BuildingBlock: XIVTED_clean_linker_0, # of connection points: 2
#     Edge 26, Type (0, 0), BuildingBlock: XIVTED_clean_linker_0, # of connection points: 2
#     Edge 27, Type (0, 0), BuildingBlock: XIVTED_clean_linker_0, # of connection points: 2
#     Edge 28, Type (0, 0), BuildingBlock: XIVTED_clean_linker_0, # of connection points: 2
#     Edge 29, Type (0, 0), BuildingBlock: XIVTED_clean_linker_0, # of connection points: 2
#     Edge 30, Type (0, 0), BuildingBlock: XIVTED_clean_linker_0, # of connection points: 2
#     Edge 31, Type (0, 0), BuildingBlock: XIVTED_clean_linker_0, # of connection points: 2
#     Edge 32, Type (0, 0), BuildingBlock: XIVTED_clean_linker_0, # of connection points: 2
#     Edge 33, Type (0, 0), BuildingBlock: XIVTED_clean_linker_0, # of connection points: 2
#     Edge 34, Type (0, 0), BuildingBlock: XIVTED_clean_linker_0, # of connection points: 2
#     Edge 35, Type (0, 0), BuildingBlock: XIVTED_clean_linker_0, # of connection points: 2
# Relax obj value: 0.019
# Max RMSD: 0.095
# Mean RMSD: 0.070
data_MOF--net-crr--node1-KOZSID_clean_sbu_0--edge1-XIVTED_clean_linker_0
_symmetry_space_group_name_H-M    P1
_symmetry_Int_Tables_number       1
_symmetry_cell_setting            triclinic
loop_
_symmetry_equiv_pos_as_xyz
'x, y, z'
_cell_length_a     52.507933
_cell_length_b     50.666752
_cell_length_c     48.91992
_cell_angle_alpha  91.892632
_cell_angle_beta   86.237037
_cell_angle_gamma 88.011058
loop_
_atom_site_label
_atom_site_type_symbol
_atom_site_fract_x
_atom_site_fract_y
_atom_site_fract_z
_atom_type_partial_charge
C0 C 0.05168 0.33022 0.38092 0.0
C1 C 0.03167 0.31325 0.37849 0.0
C2 C 0.03203 0.30536 0.35155 0.0
C3 C 0.05206 0.31795 0.33906 0.0
N4 N 0.0646 0.33342 0.35638 0.0
Co5 Co 0.09466 0.35551 0.3466 0.0
N6 N 0.09424 0.34489 0.30674 0.0
C7 C 0.07698 0.32977 0.29494 0.0
C8 C 0.08202 0.32531 0.26731 0.0
C9 C 0.10397 0.33811 0.26109 0.0
C10 C 0.11103 0.34975 0.28541 0.0
N11 N 0.12525 0.37685 0.33703 0.0
C12 C 0.13925 0.37834 0.31291 0.0
C13 C 0.15965 0.39481 0.31519 0.0
C14 C 0.15893 0.40351 0.34191 0.0
C15 C 0.13819 0.39197 0.3543 0.0
N16 N 0.09464 0.36681 0.38632 0.0
C17 C 0.11071 0.38363 0.39777 0.0
C18 C 0.10601 0.38772 0.42548 0.0
C19 C 0.08549 0.37291 0.43215 0.0
C20 C 0.07873 0.3607 0.40797 0.0
N21 N 0.11807 0.32481 0.3524 0.0
C22 C 0.15472 0.28318 0.35574 0.0
C23 C 0.15636 0.30683 0.37091 0.0
C24 C 0.13804 0.32723 0.36891 0.0
C25 C 0.13382 0.28032 0.33976 0.0
C26 C 0.11571 0.3011 0.33864 0.0
N27 N 0.07136 0.38637 0.34047 0.0
C28 C 0.06232 0.43361 0.34272 0.0
C29 C 0.03948 0.43051 0.3301 0.0
C30 C 0.03261 0.40489 0.32316 0.0
C31 C 0.04875 0.38331 0.32834 0.0
C32 C 0.07769 0.41152 0.34786 0.0
H33 H 0.04251 0.36438 0.32226 0.0
H34 H 0.09456 0.41539 0.35792 0.0
H35 H 0.14079 0.345 0.3804 0.0
H36 H 0.10022 0.29771 0.32609 0.0
C37 C 0.05822 0.31738 0.31085 0.0
C38 C 0.05688 0.34376 0.40667 0.0
C39 C 0.13466 0.36368 0.28768 0.0
C40 C 0.13062 0.39456 0.38215 0.0
H41 H 0.01782 0.30757 0.39437 0.0
H42 H 0.01878 0.29258 0.34206 0.0
H43 H 0.07165 0.31317 0.25356 0.0
H44 H 0.11404 0.33809 0.24108 0.0
H45 H 0.17386 0.39962 0.29928 0.0
H46 H 0.17222 0.41631 0.35129 0.0
H47 H 0.11635 0.39992 0.43921 0.0
H48 H 0.07651 0.37133 0.45255 0.0
H49 H 0.17224 0.31 0.38355 0.0
H50 H 0.13149 0.26214 0.32805 0.0
H51 H 0.06818 0.45305 0.34906 0.0
H52 H 0.01503 0.40151 0.31339 0.0
C53 C 0.28812 0.89426 0.67503 0.0
C54 C 0.26632 0.90725 0.68718 0.0
C55 C 0.27406 0.92998 0.69923 0.0
C56 C 0.29997 0.92967 0.69362 0.0
N57 N 0.3093 0.90819 0.67856 0.0
Co58 Co 0.34584 0.90016 0.6653 0.0
N59 N 0.35734 0.93287 0.68437 0.0
C60 C 0.34272 0.95025 0.70072 0.0
C61 C 0.35604 0.97043 0.71151 0.0
C62 C 0.38064 0.96583 0.70129 0.0
C63 C 0.38084 0.94312 0.68457 0.0
N64 N 0.38231 0.89259 0.6513 0.0
C65 C 0.40323 0.90727 0.65358 0.0
C66 C 0.4245 0.89568 0.63886 0.0
C67 C 0.41684 0.87282 0.62705 0.0
C68 C 0.3914 0.87185 0.63491 0.0
N69 N 0.33443 0.86702 0.64686 0.0
C70 C 0.34939 0.8485 0.63235 0.0
C71 C 0.33643 0.82722 0.62343 0.0
C72 C 0.31173 0.83225 0.63301 0.0
C73 C 0.311 0.85655 0.64712 0.0
N74 N 0.34045 0.92027 0.63195 0.0
C75 C 0.33769 0.95025 0.58484 0.0
C76 C 0.34703 0.92412 0.58295 0.0
C77 C 0.34799 0.90954 0.60651 0.0
C78 C 0.32861 0.96082 0.61048 0.0
C79 C 0.33024 0.9456 0.63367 0.0
N80 N 0.35133 0.87998 0.69865 0.0
C81 C 0.36935 0.84178 0.71975 0.0
C82 C 0.35692 0.84932 0.74502 0.0
C83 C 0.34209 0.8728 0.74691 0.0
C84 C 0.33975 0.88784 0.72369 0.0
C85 C 0.36629 0.85721 0.69707 0.0
H86 H 0.32824 0.90557 0.72646 0.0
H87 H 0.37592 0.84998 0.67842 0.0
H88 H 0.35535 0.88977 0.60363 0.0
H89 H 0.32366 0.95491 0.65281 0.0
C90 C 0.31627 0.94821 0.70386 0.0
C91 C 0.28775 0.86843 0.66109 0.0
C92 C 0.40368 0.93257 0.66873 0.0
C93 C 0.3755 0.85181 0.62711 0.0
H94 H 0.24689 0.90074 0.68765 0.0
H95 H 0.26227 0.94469 0.71119 0.0
H96 H 0.34864 0.98688 0.72472 0.0
H97 H 0.39655 0.97807 0.70534 0.0
H98 H 0.44356 0.90308 0.63648 0.0
H99 H 0.42835 0.85878 0.61394 0.0
H100 H 0.34409 0.81 0.61156 0.0
H101 H 0.2961 0.8193 0.63014 0.0
H102 H 0.3538 0.91501 0.56334 0.0
H103 H 0.32116 0.98104 0.6128 0.0
H104 H 0.3808 0.82356 0.71719 0.0
H105 H 0.33231 0.87954 0.7662 0.0
C106 C 0.92681 0.60065 0.37837 0.0
C107 C 0.92526 0.58108 0.39768 0.0
C108 C 0.90735 0.58981 0.41796 0.0
C109 C 0.89974 0.61459 0.41065 0.0
N110 N 0.91176 0.62188 0.3871 0.0
Co111 Co 0.91205 0.65847 0.37441 0.0
N112 N 0.87899 0.66755 0.39465 0.0
C113 C 0.86876 0.65471 0.41609 0.0
C114 C 0.84521 0.66521 0.42544 0.0
C115 C 0.84059 0.68604 0.40893 0.0
C116 C 0.86181 0.68728 0.39054 0.0
N117 N 0.91232 0.69515 0.36218 0.0
C118 C 0.89259 0.7128 0.36073 0.0
C119 C 0.90123 0.73665 0.3513 0.0
C120 C 0.92736 0.73359 0.34693 0.0
C121 C 0.93318 0.70813 0.35392 0.0
N122 N 0.94531 0.64957 0.35435 0.0
C123 C 0.96336 0.66724 0.34902 0.0
C124 C 0.98682 0.65549 0.34179 0.0
C125 C 0.98314 0.62881 0.34259 0.0
C126 C 0.9572 0.62559 0.34887 0.0
N127 N 0.89425 0.64811 0.34235 0.0
C128 C 0.86285 0.64175 0.29895 0.0
C129 C 0.88583 0.65484 0.29534 0.0
C130 C 0.90134 0.65771 0.31731 0.0
C131 C 0.85704 0.63007 0.32407 0.0
C132 C 0.87302 0.63341 0.34546 0.0
N133 N 0.92986 0.66895 0.40679 0.0
C134 C 0.96066 0.65834 0.43931 0.0
C135 C 0.95264 0.68062 0.45556 0.0
C136 C 0.93374 0.69772 0.44643 0.0
C137 C 0.92245 0.69143 0.42199 0.0
C138 C 0.94925 0.653 0.41501 0.0
H139 H 0.90733 0.70438 0.4157 0.0
H140 H 0.95581 0.63548 0.4033 0.0
H141 H 0.91837 0.66892 0.31453 0.0
H142 H 0.86755 0.62525 0.36499 0.0
C143 C 0.87995 0.6307 0.4237 0.0
C144 C 0.94482 0.60013 0.35378 0.0
C145 C 0.86614 0.7082 0.37072 0.0
C146 C 0.95692 0.69446 0.34942 0.0
H147 H 0.93642 0.56274 0.39771 0.0
H148 H 0.90084 0.57938 0.43591 0.0
H149 H 0.83246 0.658 0.44157 0.0
H150 H 0.82357 0.69878 0.41044 0.0
H151 H 0.88992 0.75447 0.34836 0.0
H152 H 0.94038 0.74797 0.3389 0.0
H153 H 0.00462 0.66509 0.33723 0.0
H154 H 0.99837 0.61384 0.3407 0.0
H155 H 0.8911 0.6641 0.27624 0.0
H156 H 0.83978 0.6192 0.32752 0.0
H157 H 0.97556 0.6449 0.4455 0.0
H158 H 0.92717 0.71525 0.45849 0.0
C159 C 0.61806 0.13092 0.66979 0.0
C160 C 0.60325 0.154 0.66808 0.0
C161 C 0.59672 0.15515 0.64162 0.0
C162 C 0.60791 0.13291 0.62868 0.0
N163 N 0.62097 0.1174 0.64535 0.0
Co164 Co 0.64063 0.08353 0.63485 0.0
N165 N 0.63447 0.08756 0.59514 0.0
C166 C 0.62211 0.10799 0.58392 0.0
C167 C 0.62174 0.10574 0.55598 0.0
C168 C 0.63448 0.08237 0.54888 0.0
C169 C 0.64166 0.07156 0.57307 0.0
N170 N 0.65956 0.0492 0.62445 0.0
C171 C 0.66324 0.03617 0.59975 0.0
C172 C 0.67607 0.01197 0.60184 0.0
C173 C 0.68069 0.00962 0.62878 0.0
C174 C 0.67032 0.03231 0.6416 0.0
N175 N 0.64766 0.08012 0.67443 0.0
C176 C 0.66074 0.06018 0.68564 0.0
C177 C 0.6635 0.06399 0.71313 0.0
C178 C 0.65198 0.0881 0.71981 0.0
C179 C 0.64286 0.09758 0.69587 0.0
N180 N 0.60855 0.064 0.64042 0.0
C181 C 0.563 0.03625 0.64824 0.0
C182 C 0.58448 0.02977 0.66242 0.0
C183 C 0.60685 0.0436 0.65809 0.0
C184 C 0.5648 0.05691 0.63004 0.0
C185 C 0.58743 0.07047 0.62663 0.0
N186 N 0.67255 0.10303 0.62939 0.0
C187 C 0.71751 0.10741 0.63588 0.0
C188 C 0.71726 0.13211 0.62402 0.0
C189 C 0.69434 0.1418 0.61454 0.0
C190 C 0.67242 0.12709 0.61744 0.0
C191 C 0.69514 0.09324 0.63821 0.0
H192 H 0.65549 0.1358 0.61022 0.0
H193 H 0.69651 0.07453 0.64744 0.0
H194 H 0.62247 0.03732 0.66933 0.0
H195 H 0.58733 0.08603 0.61257 0.0
C196 C 0.60952 0.12805 0.60037 0.0
C197 C 0.63061 0.12367 0.69435 0.0
C198 C 0.65409 0.04547 0.5741 0.0
C199 C 0.67056 0.03839 0.66962 0.0
H200 H 0.5984 0.16904 0.68392 0.0
H201 H 0.58622 0.17103 0.63258 0.0
H202 H 0.61279 0.1192 0.54245 0.0
H203 H 0.63765 0.07396 0.52826 0.0
H204 H 0.68129 0.99732 0.58568 0.0
H205 H 0.69025 0.9932 0.63797 0.0
H206 H 0.67318 0.05103 0.72659 0.0
H207 H 0.65077 0.09785 0.7399 0.0
H208 H 0.58411 0.01423 0.67709 0.0
H209 H 0.54896 0.0625 0.6181 0.0
H210 H 0.7349 0.09896 0.64325 0.0
H211 H 0.69309 0.16101 0.60553 0.0
C212 C 0.11023 0.65889 0.72824 0.0
C213 C 0.10088 0.6645 0.75509 0.0
C214 C 0.07794 0.67769 0.75378 0.0
C215 C 0.07453 0.6792 0.72634 0.0
N216 N 0.09376 0.66749 0.71001 0.0
Co217 Co 0.09644 0.66478 0.66892 0.0
N218 N 0.06391 0.6864 0.66697 0.0
C219 C 0.04922 0.69775 0.68821 0.0
C220 C 0.02806 0.71144 0.68045 0.0
C221 C 0.02918 0.70854 0.65258 0.0
C222 C 0.05101 0.69311 0.64498 0.0
N223 N 0.09876 0.66152 0.62779 0.0
C224 C 0.08224 0.67019 0.60961 0.0
C225 C 0.09058 0.6628 0.58283 0.0
C226 C 0.1131 0.6488 0.58413 0.0
C227 C 0.11716 0.64836 0.61149 0.0
N228 N 0.12936 0.64375 0.67089 0.0
C229 C 0.14467 0.63342 0.64956 0.0
C230 C 0.16674 0.62142 0.65719 0.0
C231 C 0.16572 0.62455 0.68503 0.0
C232 C 0.14287 0.63821 0.69284 0.0
N233 N 0.07689 0.6319 0.67016 0.0
C234 C 0.04818 0.58595 0.66916 0.0
C235 C 0.07164 0.58688 0.65419 0.0
C236 C 0.0856 0.60974 0.65511 0.0
C237 C 0.03957 0.60816 0.68525 0.0
C238 C 0.05407 0.63082 0.68536 0.0
N239 N 0.11604 0.69758 0.6676 0.0
C240 C 0.15122 0.72182 0.64806 0.0
C241 C 0.14587 0.74274 0.66705 0.0
C242 C 0.12505 0.74093 0.6861 0.0
C243 C 0.11033 0.71841 0.68586 0.0
C244 C 0.13628 0.69965 0.64876 0.0
H245 H 0.09461 0.71818 0.70079 0.0
H246 H 0.14182 0.68429 0.63407 0.0
H247 H 0.10328 0.60902 0.64322 0.0
H248 H 0.04627 0.6473 0.69759 0.0
C249 C 0.05468 0.69343 0.71526 0.0
C250 C 0.13539 0.64658 0.72115 0.0
C251 C 0.05803 0.68446 0.61676 0.0
C252 C 0.13811 0.63591 0.62253 0.0
H253 H 0.11003 0.66007 0.77369 0.0
H254 H 0.06561 0.68593 0.77076 0.0
H255 H 0.01323 0.7217 0.69355 0.0
H256 H 0.01528 0.71643 0.63933 0.0
H257 H 0.0812 0.66684 0.56429 0.0
H258 H 0.12497 0.6398 0.56718 0.0
H259 H 0.18203 0.61202 0.64402 0.0
H260 H 0.18043 0.61798 0.69799 0.0
H261 H 0.0793 0.56995 0.6418 0.0
H262 H 0.02141 0.60833 0.69714 0.0
H263 H 0.16739 0.72214 0.63315 0.0
H264 H 0.1201 0.7568 0.70109 0.0
C265 C 0.64174 0.90662 0.40612 0.0
C266 C 0.63195 0.89796 0.43121 0.0
C267 C 0.61827 0.87627 0.42575 0.0
C268 C 0.62061 0.87281 0.39781 0.0
N269 N 0.63524 0.89079 0.38504 0.0
Co270 Co 0.6439 0.8929 0.34462 0.0
N271 N 0.62354 0.86111 0.33667 0.0
C272 C 0.60983 0.84686 0.35493 0.0
C273 C 0.59845 0.8257 0.34333 0.0
C274 C 0.60567 0.82615 0.31607 0.0
C275 C 0.62115 0.84761 0.31269 0.0
N276 N 0.65233 0.89507 0.30414 0.0
C277 C 0.64711 0.87827 0.28328 0.0
C278 C 0.65719 0.88654 0.25819 0.0
C279 C 0.66948 0.90927 0.26341 0.0
C280 C 0.66625 0.91351 0.29125 0.0
N281 N 0.66453 0.92452 0.35265 0.0
C282 C 0.67797 0.93887 0.33426 0.0
C283 C 0.68973 0.95979 0.34581 0.0
C284 C 0.68333 0.9589 0.37323 0.0
C285 C 0.66804 0.93731 0.37684 0.0
N286 N 0.6747 0.86941 0.34759 0.0
C287 C 0.71822 0.83583 0.35165 0.0
C288 C 0.71919 0.85773 0.33508 0.0
C289 C 0.69744 0.87427 0.33355 0.0
C290 C 0.6951 0.83093 0.36601 0.0
C291 C 0.67372 0.84767 0.36351 0.0
N292 N 0.61304 0.91645 0.34163 0.0
C293 C 0.59303 0.95636 0.32554 0.0
C294 C 0.56945 0.95035 0.33831 0.0
C295 C 0.56808 0.92697 0.35263 0.0
C296 C 0.58985 0.91048 0.35398 0.0
C297 C 0.61436 0.93935 0.32749 0.0
H298 H 0.58739 0.89306 0.36523 0.0
H299 H 0.63173 0.94531 0.31755 0.0
H300 H 0.69951 0.89086 0.32088 0.0
H301 H 0.65659 0.84252 0.37458 0.0
C302 C 0.6092 0.85295 0.38299 0.0
C303 C 0.65636 0.93045 0.40343 0.0
C304 C 0.63419 0.85351 0.28655 0.0
C305 C 0.67796 0.93314 0.30613 0.0
H306 H 0.63424 0.90661 0.45139 0.0
H307 H 0.60773 0.86453 0.44038 0.0
H308 H 0.58689 0.81124 0.35358 0.0
H309 H 0.60064 0.81193 0.30051 0.0
H310 H 0.65638 0.87676 0.23828 0.0
H311 H 0.68032 0.92076 0.24878 0.0
H312 H 0.70108 0.97435 0.33545 0.0
H313 H 0.68891 0.97291 0.38869 0.0
H314 H 0.73677 0.86239 0.32372 0.0
H315 H 0.69337 0.81398 0.37885 0.0
H316 H 0.59523 0.97439 0.31448 0.0
H317 H 0.5502 0.92119 0.36259 0.0
C318 C 0.88734 0.33813 0.69864 0.0
C319 C 0.89601 0.32707 0.72206 0.0
C320 C 0.91913 0.31493 0.71458 0.0
C321 C 0.92315 0.31916 0.68714 0.0
N322 N 0.90423 0.33364 0.67667 0.0
Co323 Co 0.90146 0.34284 0.63731 0.0
N324 N 0.93458 0.32332 0.6259 0.0
C325 C 0.95029 0.31062 0.6424 0.0
C326 C 0.97239 0.30044 0.62907 0.0
C327 C 0.97092 0.30728 0.60249 0.0
C328 C 0.94777 0.32114 0.60107 0.0
N329 N 0.89829 0.35149 0.59791 0.0
C330 C 0.91439 0.34565 0.57558 0.0
C331 C 0.90451 0.35469 0.5518 0.0
C332 C 0.88169 0.36732 0.55946 0.0
C333 C 0.8788 0.36507 0.58731 0.0
N334 N 0.86865 0.36285 0.64874 0.0
C335 C 0.85377 0.3771 0.63264 0.0
C336 C 0.83239 0.38857 0.64637 0.0
C337 C 0.8335 0.38093 0.67276 0.0
C338 C 0.85552 0.36508 0.67353 0.0
N339 N 0.92048 0.37557 0.64326 0.0
C340 C 0.94794 0.42186 0.65041 0.0
C341 C 0.92707 0.42156 0.63419 0.0
C342 C 0.91367 0.39849 0.63104 0.0
C343 C 0.95469 0.39871 0.66331 0.0
C344 C 0.94091 0.37592 0.65935 0.0
N345 N 0.88237 0.31021 0.63144 0.0
C346 C 0.84498 0.28904 0.61629 0.0
C347 C 0.85341 0.26477 0.62573 0.0
C348 C 0.87685 0.2635 0.63769 0.0
C349 C 0.891 0.28627 0.64017 0.0
C350 C 0.85959 0.31126 0.61934 0.0
H351 H 0.90871 0.28409 0.64947 0.0
H352 H 0.85177 0.32915 0.61214 0.0
H353 H 0.89796 0.39974 0.61848 0.0
H354 H 0.94731 0.3588 0.66932 0.0
C355 C 0.94408 0.30914 0.67047 0.0
C356 C 0.86243 0.35155 0.69793 0.0
C357 C 0.93965 0.33278 0.576 0.0
C358 C 0.85897 0.37707 0.60427 0.0
H359 H 0.8864 0.32728 0.74232 0.0
H360 H 0.93126 0.30382 0.72746 0.0
H361 H 0.98797 0.28979 0.63777 0.0
H362 H 0.98552 0.30294 0.58618 0.0
H363 H 0.91318 0.35284 0.5311 0.0
H364 H 0.86901 0.3775 0.54639 0.0
H365 H 0.81732 0.40026 0.63799 0.0
H366 H 0.81936 0.38587 0.68941 0.0
H367 H 0.92093 0.43915 0.62406 0.0
H368 H 0.9709 0.39798 0.67591 0.0
H369 H 0.82677 0.29116 0.60725 0.0
H370 H 0.88429 0.24504 0.64507 0.0
C371 C 0.30242 0.12599 0.3361 0.0
C372 C 0.28064 0.11639 0.32523 0.0
C373 C 0.28782 0.09322 0.31144 0.0
C374 C 0.31342 0.08993 0.31475 0.0
N375 N 0.323 0.10936 0.33024 0.0
Co376 Co 0.35953 0.11281 0.33921 0.0
N377 N 0.37029 0.07917 0.31805 0.0
C378 C 0.35506 0.06291 0.3046 0.0
C379 C 0.36749 0.04049 0.2934 0.0
C380 C 0.39208 0.04224 0.30049 0.0
C381 C 0.39325 0.06582 0.31557 0.0
N382 N 0.3962 0.1167 0.34751 0.0
C383 C 0.41679 0.1001 0.34166 0.0
C384 C 0.43884 0.11035 0.35124 0.0
C385 C 0.43185 0.13402 0.36414 0.0
C386 C 0.40608 0.13694 0.36157 0.0
N387 N 0.34869 0.14604 0.36109 0.0
C388 C 0.3638 0.16162 0.37556 0.0
C389 C 0.35121 0.18343 0.38788 0.0
C390 C 0.32663 0.18187 0.38074 0.0
C391 C 0.32557 0.15899 0.36446 0.0
N392 N 0.35354 0.09215 0.37262 0.0
C393 C 0.34692 0.0618 0.4195 0.0
C394 C 0.36215 0.08379 0.41953 0.0
C395 C 0.36499 0.09869 0.39616 0.0
C396 C 0.3346 0.05548 0.39587 0.0
C397 C 0.3383 0.07071 0.37273 0.0
N398 N 0.36536 0.13361 0.30583 0.0
C399 C 0.37608 0.1749 0.28547 0.0
C400 C 0.36704 0.1665 0.2606 0.0
C401 C 0.3586 0.14077 0.25813 0.0
C402 C 0.3579 0.12475 0.28089 0.0
C403 C 0.37532 0.1582 0.30753 0.0
H404 H 0.35062 0.10558 0.278 0.0
H405 H 0.38231 0.16594 0.32592 0.0
H406 H 0.37673 0.11528 0.39763 0.0
H407 H 0.32888 0.06454 0.35513 0.0
C408 C 0.329 0.06887 0.30357 0.0
C409 C 0.30262 0.15128 0.35129 0.0
C410 C 0.41623 0.07401 0.32826 0.0
C411 C 0.39022 0.15686 0.37466 0.0
H412 H 0.26157 0.12537 0.32684 0.0
H413 H 0.27585 0.08043 0.30012 0.0
H414 H 0.35947 0.02446 0.282 0.0
H415 H 0.40727 0.02753 0.29562 0.0
H416 H 0.45788 0.1013 0.34969 0.0
H417 H 0.44392 0.14707 0.37502 0.0
H418 H 0.35919 0.19919 0.39969 0.0
H419 H 0.31148 0.19645 0.38624 0.0
H420 H 0.3718 0.08955 0.43759 0.0
H421 H 0.32272 0.03845 0.39497 0.0
H422 H 0.38343 0.19449 0.28806 0.0
H423 H 0.35159 0.1334 0.23909 0.0
C424 C 0.35552 0.30274 0.09236 0.0
C425 C 0.34688 0.27968 0.08063 0.0
C426 C 0.33548 0.2867 0.05755 0.0
C427 C 0.33771 0.31352 0.05657 0.0
N428 N 0.35023 0.32406 0.07738 0.0
Co429 Co 0.35622 0.36248 0.08498 0.0
N430 N 0.3368 0.37313 0.05289 0.0
C431 C 0.32524 0.35696 0.03535 0.0
C432 C 0.31284 0.36999 0.01574 0.0
C433 C 0.317 0.39605 0.02076 0.0
C434 C 0.33202 0.39739 0.04309 0.0
N435 N 0.36207 0.4009 0.09276 0.0
C436 C 0.35571 0.42249 0.0786 0.0
C437 C 0.36491 0.44537 0.09025 0.0
C438 C 0.37716 0.43808 0.11266 0.0
C439 C 0.37507 0.41127 0.11335 0.0
N440 N 0.37574 0.3518 0.117 0.0
C441 C 0.38799 0.36775 0.13412 0.0
C442 C 0.39936 0.35465 0.15443 0.0
C443 C 0.39363 0.32883 0.15037 0.0
C444 C 0.37894 0.32776 0.12781 0.0
N445 N 0.38826 0.35965 0.0609 0.0
C446 C 0.43406 0.35564 0.02729 0.0
C447 C 0.4329 0.36897 0.05277 0.0
C448 C 0.41008 0.37075 0.06901 0.0
C449 C 0.41187 0.34429 0.01886 0.0
C450 C 0.38933 0.3466 0.03582 0.0
N451 N 0.32432 0.36515 0.10912 0.0
C452 C 0.30277 0.37629 0.15335 0.0
C453 C 0.28047 0.36493 0.14538 0.0
C454 C 0.28014 0.35449 0.11865 0.0
C455 C 0.30217 0.35471 0.10101 0.0
C456 C 0.32421 0.37639 0.13498 0.0
H457 H 0.30095 0.34586 0.08112 0.0
H458 H 0.3406 0.38532 0.14233 0.0
H459 H 0.41071 0.38122 0.08806 0.0
H460 H 0.37304 0.33775 0.02813 0.0
C461 C 0.32638 0.32958 0.0378 0.0
C462 C 0.36708 0.30378 0.11861 0.0
C463 C 0.34198 0.42208 0.05351 0.0
C464 C 0.38681 0.39514 0.13183 0.0
H465 H 0.34797 0.25995 0.08835 0.0
H466 H 0.32582 0.27392 0.04373 0.0
H467 H 0.30216 0.36154 0.99962 0.0
H468 H 0.30998 0.41222 0.00908 0.0
H469 H 0.36361 0.46528 0.08307 0.0
H470 H 0.38716 0.45071 0.1263 0.0
H471 H 0.4098 0.36301 0.1708 0.0
H472 H 0.39898 0.3127 0.16306 0.0
H473 H 0.44966 0.37778 0.06044 0.0
H474 H 0.41176 0.33399 0.99911 0.0
H475 H 0.3037 0.38506 0.17375 0.0
H476 H 0.26324 0.34545 0.11163 0.0
C477 C 0.34002 0.70459 0.90351 0.0
C478 C 0.33076 0.72783 0.91705 0.0
C479 C 0.31837 0.72074 0.94091 0.0
C480 C 0.32091 0.69373 0.94064 0.0
N481 N 0.33421 0.68308 0.91808 0.0
Co482 Co 0.34313 0.64464 0.90987 0.0
N483 N 0.3242 0.63424 0.94455 0.0
C484 C 0.30999 0.65035 0.96264 0.0
C485 C 0.2982 0.63742 0.98383 0.0
C486 C 0.30549 0.6115 0.97917 0.0
C487 C 0.32166 0.61015 0.95548 0.0
N488 N 0.35289 0.60627 0.90224 0.0
C489 C 0.34934 0.58512 0.91819 0.0
C490 C 0.36169 0.56244 0.90629 0.0
C491 C 0.373 0.56936 0.88184 0.0
C492 C 0.36735 0.59581 0.88032 0.0
N493 N 0.36137 0.65498 0.87471 0.0
C494 C 0.37317 0.63856 0.85509 0.0
C495 C 0.38294 0.65123 0.83266 0.0
C496 C 0.37687 0.67733 0.83813 0.0
C497 C 0.36382 0.67908 0.8638 0.0
N498 N 0.37477 0.64847 0.9294 0.0
C499 C 0.4198 0.6522 0.9572 0.0
C500 C 0.42037 0.64123 0.93065 0.0
C501 C 0.39788 0.63973 0.91719 0.0
C502 C 0.39639 0.66179 0.96951 0.0
C503 C 0.37419 0.65958 0.95538 0.0
N504 N 0.31147 0.64089 0.89011 0.0
C505 C 0.29024 0.62396 0.85114 0.0
C506 C 0.26825 0.63935 0.85891 0.0
C507 C 0.26786 0.65472 0.88317 0.0
C508 C 0.28942 0.65502 0.89846 0.0
C509 C 0.31141 0.62501 0.86688 0.0
H510 H 0.28787 0.66715 0.91671 0.0
H511 H 0.32764 0.61317 0.85942 0.0
H512 H 0.39971 0.63128 0.89695 0.0
H513 H 0.35677 0.66673 0.96594 0.0
C514 C 0.3096 0.67772 0.9603 0.0
C515 C 0.35367 0.70399 0.8766 0.0
C516 C 0.3349 0.58574 0.94485 0.0
C517 C 0.37575 0.61146 0.85884 0.0
H518 H 0.33252 0.74783 0.91021 0.0
H519 H 0.30831 0.73369 0.95636 0.0
H520 H 0.2862 0.64591 0.00095 0.0
H521 H 0.29987 0.59547 0.99207 0.0
H522 H 0.3629 0.54291 0.91445 0.0
H523 H 0.38444 0.55673 0.86717 0.0
H524 H 0.39331 0.64254 0.81452 0.0
H525 H 0.38146 0.69324 0.82464 0.0
H526 H 0.43817 0.6339 0.92019 0.0
H527 H 0.3951 0.67033 0.99017 0.0
H528 H 0.29151 0.61181 0.83242 0.0
H529 H 0.25103 0.66661 0.89029 0.0
C530 C 0.68128 0.61255 0.06022 0.0
C531 C 0.69623 0.61458 0.03596 0.0
C532 C 0.701 0.64071 0.03347 0.0
C533 C 0.68873 0.65305 0.05623 0.0
N534 N 0.67673 0.63636 0.07338 0.0
Co535 Co 0.65542 0.64596 0.10802 0.0
N536 N 0.66117 0.68458 0.10353 0.0
C537 C 0.67518 0.69571 0.08306 0.0
C538 C 0.67669 0.72256 0.08625 0.0
C539 C 0.6632 0.72898 0.11046 0.0
C540 C 0.65412 0.70555 0.12059 0.0
N541 N 0.63365 0.65555 0.14238 0.0
C542 C 0.62894 0.67937 0.15544 0.0
C543 C 0.61286 0.67751 0.17891 0.0
C544 C 0.6076 0.65144 0.18106 0.0
C545 C 0.62063 0.63896 0.15882 0.0
N546 N 0.65012 0.60728 0.11288 0.0
C547 C 0.63685 0.59605 0.13386 0.0
C548 C 0.63633 0.56906 0.13123 0.0
C549 C 0.64979 0.56266 0.10697 0.0
C550 C 0.65772 0.58623 0.09618 0.0
N551 N 0.68606 0.64351 0.12963 0.0
C552 C 0.72757 0.64398 0.16328 0.0
C553 C 0.70489 0.63215 0.17159 0.0
C554 C 0.68465 0.63208 0.15463 0.0
C555 C 0.72961 0.65455 0.13724 0.0
C556 C 0.70872 0.65411 0.12083 0.0
N557 N 0.62465 0.64848 0.08655 0.0
C558 C 0.5817 0.63557 0.07912 0.0
C559 C 0.58104 0.65091 0.05606 0.0
C560 C 0.60242 0.66532 0.04856 0.0
C561 C 0.624 0.66363 0.06385 0.0
C562 C 0.60338 0.6348 0.09402 0.0
H563 H 0.63995 0.67457 0.0568 0.0
H564 H 0.60242 0.62287 0.11146 0.0
H565 H 0.66789 0.62306 0.1625 0.0
H566 H 0.71117 0.66291 0.10138 0.0
C567 C 0.68746 0.68028 0.06164 0.0
C568 C 0.67099 0.58777 0.06925 0.0
C569 C 0.64025 0.70396 0.14722 0.0
C570 C 0.62309 0.61156 0.15433 0.0
H571 H 0.70261 0.59883 0.02136 0.0
H572 H 0.71168 0.64971 0.01677 0.0
H573 H 0.68694 0.73578 0.07292 0.0
H574 H 0.66086 0.7486 0.11989 0.0
H575 H 0.60619 0.69329 0.19335 0.0
H576 H 0.5964 0.64253 0.19743 0.0
H577 H 0.62652 0.55573 0.14481 0.0
H578 H 0.6528 0.54295 0.09784 0.0
H579 H 0.70262 0.62309 0.19132 0.0
H580 H 0.7469 0.66385 0.12989 0.0
H581 H 0.5654 0.62432 0.08584 0.0
H582 H 0.6027 0.67735 0.03065 0.0
C583 C 0.60402 0.36068 0.89254 0.0
C584 C 0.58285 0.37285 0.882 0.0
C585 C 0.59155 0.38543 0.85922 0.0
C586 C 0.61738 0.3802 0.85712 0.0
N587 N 0.62574 0.36477 0.87701 0.0
Co588 Co 0.66192 0.35278 0.88204 0.0
N589 N 0.67461 0.37114 0.84835 0.0
C590 C 0.66057 0.38542 0.83147 0.0
C591 C 0.67453 0.39488 0.80952 0.0
C592 C 0.69893 0.38573 0.81222 0.0
C593 C 0.69836 0.37111 0.83575 0.0
N594 N 0.69822 0.34135 0.88737 0.0
C595 C 0.71979 0.34457 0.87122 0.0
C596 C 0.74108 0.33316 0.88217 0.0
C597 C 0.73264 0.32211 0.906 0.0
C598 C 0.70679 0.32737 0.90822 0.0
N599 N 0.64911 0.3338 0.9153 0.0
C600 C 0.66317 0.31914 0.93184 0.0
C601 C 0.64904 0.30851 0.95302 0.0
C602 C 0.62448 0.31693 0.94991 0.0
C603 C 0.62506 0.33225 0.92689 0.0
N604 N 0.65765 0.32039 0.85919 0.0
C605 C 0.65163 0.27443 0.82677 0.0
C606 C 0.66561 0.27355 0.85002 0.0
C607 C 0.6682 0.29654 0.86593 0.0
C608 C 0.64073 0.29864 0.81996 0.0
C609 C 0.64412 0.32124 0.8362 0.0
N610 N 0.66612 0.38522 0.90503 0.0
C611 C 0.67716 0.40607 0.94764 0.0
C612 C 0.66946 0.4309 0.93895 0.0
C613 C 0.66059 0.43253 0.91275 0.0
C614 C 0.65912 0.40968 0.89628 0.0
C615 C 0.67539 0.38372 0.9305 0.0
H616 H 0.65205 0.41234 0.87666 0.0
H617 H 0.68132 0.36545 0.93853 0.0
H618 H 0.67884 0.29452 0.88357 0.0
H619 H 0.63575 0.33918 0.82963 0.0
C620 C 0.6342 0.3891 0.83644 0.0
C621 C 0.60248 0.34588 0.91758 0.0
C622 C 0.72071 0.35681 0.84467 0.0
C623 C 0.68978 0.31713 0.92797 0.0
H624 H 0.56315 0.37274 0.89003 0.0
H625 H 0.58038 0.39703 0.84581 0.0
H626 H 0.66771 0.40663 0.79323 0.0
H627 H 0.71524 0.38907 0.79822 0.0
H628 H 0.76059 0.33224 0.87345 0.0
H629 H 0.74385 0.3107 0.91953 0.0
H630 H 0.65587 0.29658 0.96916 0.0
H631 H 0.60806 0.31266 0.96336 0.0
H632 H 0.67425 0.25511 0.85612 0.0
H633 H 0.63001 0.30025 0.80186 0.0
H634 H 0.68396 0.40368 0.96788 0.0
H635 H 0.65481 0.45139 0.90486 0.0
H636 H 0.17834 0.26383 0.39974 0.0
H637 H 0.28367 0.17662 0.30833 0.0
H638 H 0.17798 0.255 0.31176 0.0
H639 H 0.27019 0.16761 0.39525 0.0
H640 H 0.24655 0.20754 0.30928 0.0
H641 H 0.21363 0.23078 0.39884 0.0
C642 C 0.18567 0.25489 0.38025 0.0
C643 C 0.17519 0.26216 0.35578 0.0
C644 C 0.25164 0.19878 0.32815 0.0
C645 C 0.21565 0.22448 0.35459 0.0
C646 C 0.27279 0.18122 0.32759 0.0
C647 C 0.27996 0.16984 0.35178 0.0
C648 C 0.23771 0.20517 0.35316 0.0
C649 C 0.26531 0.17626 0.37625 0.0
C650 C 0.20572 0.23596 0.37976 0.0
C651 C 0.1853 0.24979 0.33113 0.0
N652 N 0.24497 0.19366 0.37637 0.0
N653 N 0.20508 0.23173 0.33113 0.0
H654 H 0.25695 0.85748 0.61972 0.0
H655 H 0.16531 0.76722 0.71148 0.0
H656 H 0.26493 0.84572 0.70556 0.0
H657 H 0.16526 0.76985 0.62342 0.0
H658 H 0.19733 0.80125 0.71094 0.0
H659 H 0.21913 0.83029 0.62181 0.0
C660 C 0.25052 0.84922 0.63901 0.0
C661 C 0.26396 0.85346 0.66244 0.0
C662 C 0.19014 0.79454 0.69176 0.0
C663 C 0.22096 0.82259 0.66515 0.0
C664 C 0.17174 0.77528 0.69208 0.0
C665 C 0.16281 0.76555 0.66743 0.0
C666 C 0.19958 0.80419 0.66661 0.0
C667 C 0.17195 0.7765 0.64285 0.0
C668 C 0.22903 0.83376 0.64025 0.0
C669 C 0.25499 0.84265 0.68707 0.0
N670 N 0.18994 0.79512 0.64305 0.0
N671 N 0.23408 0.82756 0.68778 0.0
H672 H 0.73706 0.81771 0.39854 0.0
H673 H 0.84233 0.71796 0.32394 0.0
H674 H 0.7514 0.81397 0.31066 0.0
H675 H 0.84436 0.74475 0.40821 0.0
H676 H 0.8072 0.75044 0.31834 0.0
H677 H 0.77419 0.7879 0.40258 0.0
C678 C 0.74804 0.81055 0.38009 0.0
C679 C 0.74113 0.81826 0.35423 0.0
C680 C 0.81538 0.74923 0.33803 0.0
C681 C 0.78361 0.78405 0.35867 0.0
C682 C 0.83531 0.73073 0.3412 0.0
C683 C 0.84568 0.72842 0.36671 0.0
C684 C 0.80577 0.76532 0.36062 0.0
C685 C 0.83635 0.74559 0.3884 0.0
C686 C 0.7693 0.79367 0.38241 0.0
C687 C 0.75618 0.80862 0.33099 0.0
N688 N 0.81673 0.7631 0.38497 0.0
N689 N 0.7766 0.79181 0.33373 0.0
H690 H 0.84356 0.2279 0.66455 0.0
H691 H 0.73527 0.16101 0.58103 0.0
H692 H 0.82613 0.24858 0.58279 0.0
H693 H 0.75189 0.13986 0.66289 0.0
H694 H 0.77122 0.19029 0.57987 0.0
H695 H 0.81323 0.19238 0.66273 0.0
C696 C 0.83365 0.22473 0.64607 0.0
C697 C 0.83721 0.24141 0.62389 0.0
C698 C 0.76715 0.17913 0.59804 0.0
C699 C 0.80223 0.20104 0.6218 0.0
C700 C 0.74654 0.16249 0.59875 0.0
C701 C 0.74041 0.14815 0.62219 0.0
C702 C 0.78173 0.18163 0.62099 0.0
C703 C 0.756 0.15045 0.64435 0.0
C704 C 0.81621 0.20455 0.6451 0.0
C705 C 0.82364 0.23653 0.60057 0.0
N706 N 0.7758 0.16706 0.6433 0.0
N707 N 0.80665 0.21693 0.60021 0.0
H708 H 0.33758 0.30377 0.1661 0.0
H709 H 0.38231 0.1581 0.2061 0.0
H710 H 0.39077 0.25463 0.11448 0.0
H711 H 0.34764 0.21703 0.26387 0.0
H712 H 0.3803 0.19028 0.1697 0.0
H713 H 0.33556 0.26902 0.19973 0.0
C714 C 0.34861 0.28545 0.16185 0.0
C715 C 0.36426 0.2818 0.13766 0.0
C716 C 0.37311 0.19608 0.19035 0.0
C717 C 0.36227 0.24215 0.17583 0.0
C718 C 0.37417 0.17775 0.21104 0.0
C719 C 0.36537 0.18507 0.23801 0.0
C720 C 0.36285 0.2217 0.19672 0.0
C721 C 0.35501 0.21074 0.24341 0.0
C722 C 0.34756 0.2657 0.18098 0.0
C723 C 0.37835 0.25791 0.13292 0.0
N724 N 0.35403 0.22811 0.22297 0.0
N725 N 0.37706 0.2389 0.15191 0.0
H726 H 0.2402 0.68278 0.84498 0.0
H727 H 0.15427 0.60216 0.74416 0.0
H728 H 0.24702 0.59811 0.83188 0.0
H729 H 0.15815 0.68696 0.74672 0.0
H730 H 0.18524 0.59992 0.77964 0.0
H731 H 0.20653 0.68439 0.81284 0.0
C732 C 0.23438 0.66448 0.8356 0.0
C733 C 0.24648 0.64027 0.84106 0.0
C734 C 0.17934 0.61902 0.77244 0.0
C735 C 0.20817 0.642 0.80397 0.0
C736 C 0.16178 0.62025 0.75224 0.0
C737 C 0.15407 0.64474 0.74251 0.0
C738 C 0.18896 0.64251 0.78308 0.0
C739 C 0.1639 0.66773 0.75371 0.0
C740 C 0.21531 0.66543 0.81707 0.0
C741 C 0.23842 0.61723 0.828 0.0
N742 N 0.18088 0.66607 0.77342 0.0
N743 N 0.21979 0.61866 0.81002 0.0
H744 H 0.66818 0.70837 0.19168 0.0
H745 H 0.60864 0.85171 0.23971 0.0
H746 H 0.61179 0.75017 0.14787 0.0
H747 H 0.66402 0.80866 0.28373 0.0
H748 H 0.61058 0.81566 0.20468 0.0
H749 H 0.66787 0.74567 0.22493 0.0
C750 C 0.65576 0.72553 0.1892 0.0
C751 C 0.64004 0.7265 0.16724 0.0
C752 C 0.62242 0.81413 0.2219 0.0
C753 C 0.63946 0.76907 0.20487 0.0
C754 C 0.62136 0.83469 0.24172 0.0
C755 C 0.63632 0.83295 0.26427 0.0
C756 C 0.63848 0.79175 0.22488 0.0
C757 C 0.65233 0.81057 0.26641 0.0
C758 C 0.65557 0.74678 0.20806 0.0
C759 C 0.6242 0.74895 0.16465 0.0
N760 N 0.65297 0.79077 0.24696 0.0
N761 N 0.62429 0.76943 0.18329 0.0
H762 H 0.76582 0.38178 0.84682 0.0
H763 H 0.82101 0.32101 0.70054 0.0
H764 H 0.72711 0.32467 0.79911 0.0
H765 H 0.86017 0.3784 0.74743 0.0
H766 H 0.78773 0.31987 0.738 0.0
H767 H 0.80216 0.37864 0.81241 0.0
C768 C 0.76525 0.36835 0.8292 0.0
C769 C 0.74376 0.35335 0.82561 0.0
C770 C 0.80365 0.33261 0.74026 0.0
C771 C 0.78471 0.34985 0.78619 0.0
C772 C 0.82256 0.33321 0.71894 0.0
C773 C 0.84314 0.34976 0.7212 0.0
C774 C 0.80533 0.34884 0.76391 0.0
C775 C 0.84449 0.36534 0.74519 0.0
C776 C 0.78584 0.3666 0.80956 0.0
C777 C 0.74354 0.33642 0.80246 0.0
N778 N 0.82575 0.36459 0.76566 0.0
N779 N 0.76368 0.33519 0.78353 0.0
H780 H 0.39924 0.8234 0.76221 0.0
H781 H 0.39562 0.73326 0.86653 0.0
H782 H 0.31813 0.83509 0.78105 0.0
H783 H 0.31576 0.7301 0.85209 0.0
H784 H 0.39877 0.77238 0.83854 0.0
H785 H 0.40054 0.79035 0.79713 0.0
C786 C 0.38176 0.81928 0.77407 0.0
C787 C 0.35853 0.83193 0.76866 0.0
C788 C 0.3806 0.76306 0.84114 0.0
C789 C 0.35988 0.79444 0.80927 0.0
C790 C 0.37881 0.74094 0.85732 0.0
C791 C 0.35551 0.72855 0.86114 0.0
C792 C 0.3589 0.77257 0.82858 0.0
C793 C 0.33408 0.73918 0.84928 0.0
C794 C 0.38255 0.80058 0.7943 0.0
C795 C 0.33648 0.82597 0.78471 0.0
N796 N 0.33631 0.76056 0.8334 0.0
N797 N 0.33765 0.80739 0.80404 0.0
H798 H 0.72292 0.65749 0.21771 0.0
H799 H 0.87113 0.63447 0.24287 0.0
H800 H 0.77938 0.63497 0.15227 0.0
H801 H 0.81147 0.651 0.30671 0.0
H802 H 0.83894 0.63672 0.20868 0.0
H803 H 0.75626 0.65766 0.2499 0.0
C804 C 0.74239 0.65249 0.21013 0.0
C805 C 0.74833 0.64583 0.18233 0.0
C806 C 0.83296 0.63977 0.2302 0.0
C807 C 0.78684 0.64615 0.2192 0.0
C808 C 0.85129 0.63854 0.24968 0.0
C809 C 0.84393 0.64223 0.27771 0.0
C810 C 0.80717 0.64495 0.23886 0.0
C811 C 0.81798 0.64743 0.28541 0.0
C812 C 0.76148 0.65267 0.22853 0.0
C813 C 0.77401 0.64021 0.17355 0.0
N814 N 0.80062 0.64863 0.26613 0.0
N815 N 0.79236 0.64032 0.19199 0.0
H816 H 0.59348 0.14585 0.73066 0.0
H817 H 0.68875 0.23816 0.80747 0.0
H818 H 0.67418 0.14649 0.7083 0.0
H819 H 0.60789 0.25613 0.80684 0.0
H820 H 0.68373 0.19931 0.77737 0.0
H821 H 0.59845 0.18133 0.76518 0.0
C822 C 0.61222 0.15349 0.73319 0.0
C823 C 0.6334 0.14378 0.71652 0.0
C824 C 0.66709 0.21173 0.78391 0.0
C825 C 0.63935 0.18369 0.75591 0.0
C826 C 0.66992 0.23376 0.80116 0.0
C827 C 0.64871 0.25037 0.80948 0.0
C828 C 0.64283 0.20611 0.77526 0.0
C829 C 0.62475 0.24395 0.8006 0.0
C830 C 0.61507 0.17364 0.75276 0.0
C831 C 0.65741 0.15379 0.72072 0.0
N832 N 0.62244 0.22227 0.78398 0.0
N833 N 0.65976 0.17331 0.74 0.0
H834 H 0.23019 0.37675 0.13739 0.0
H835 H 0.18052 0.33753 0.28837 0.0
H836 H 0.27981 0.34935 0.19822 0.0
H837 H 0.13529 0.38515 0.23704 0.0
H838 H 0.21573 0.33625 0.2528 0.0
H839 H 0.19361 0.37467 0.17106 0.0
C840 C 0.23333 0.37018 0.15779 0.0
C841 C 0.25803 0.36339 0.16515 0.0
C842 C 0.19807 0.34687 0.24921 0.0
C843 C 0.21646 0.36087 0.20357 0.0
C844 C 0.17805 0.3475 0.2694 0.0
C845 C 0.15516 0.36133 0.26534 0.0
C846 C 0.19507 0.36012 0.22478 0.0
C847 C 0.1527 0.37411 0.24065 0.0
C848 C 0.21252 0.36912 0.17699 0.0
C849 C 0.26112 0.35513 0.19186 0.0
N850 N 0.17247 0.3732 0.2212 0.0
N851 N 0.24058 0.35405 0.21008 0.0
H852 H 0.95907 0.29124 0.54289 0.0
H853 H 0.02601 0.38282 0.4317 0.0
H854 H 0.96032 0.37595 0.55303 0.0
H855 H 0.04764 0.30049 0.4374 0.0
H856 H 0.99764 0.38 0.47329 0.0
H857 H 0.98783 0.29335 0.50131 0.0
C858 C 0.9656 0.31022 0.53636 0.0
C859 C 0.95765 0.33344 0.55132 0.0
C860 C 0.00856 0.36253 0.46546 0.0
C861 C 0.98984 0.33613 0.50383 0.0
C862 C 0.02463 0.36414 0.44177 0.0
C863 C 0.039 0.34184 0.43129 0.0
C864 C 0.00666 0.33835 0.47855 0.0
C865 C 0.03668 0.31804 0.44491 0.0
C866 C 0.9819 0.31145 0.51272 0.0
C867 C 0.96621 0.35764 0.54198 0.0
N868 N 0.0207 0.31686 0.46784 0.0
N869 N 0.98176 0.35839 0.51874 0.0
H870 H 0.30337 0.04383 0.44546 0.0
H871 H 0.37815 0.95561 0.54812 0.0
H872 H 0.38533 0.04201 0.44843 0.0
H873 H 0.29965 0.98198 0.56604 0.0
H874 H 0.37998 0.98255 0.50757 0.0
H875 H 0.30045 0.01649 0.48606 0.0
C876 C 0.32071 0.03758 0.45464 0.0
C877 C 0.34462 0.04519 0.44376 0.0
C878 C 0.36235 0.98247 0.52037 0.0
C879 C 0.34145 0.014 0.48975 0.0
C880 C 0.36125 0.967 0.54338 0.0
C881 C 0.33869 0.96658 0.56033 0.0
C882 C 0.34064 0.99739 0.51405 0.0
C883 C 0.31743 0.98193 0.5535 0.0
C884 C 0.31903 0.02217 0.47781 0.0
C885 C 0.36652 0.03676 0.4564 0.0
N886 N 0.31886 0.99664 0.53072 0.0
N887 N 0.36443 0.02149 0.47865 0.0
H888 H 0.0188 0.65249 0.60869 0.0
H889 H 0.97578 0.72463 0.47479 0.0
H890 H 0.0546 0.72169 0.57784 0.0
H891 H 0.95484 0.64617 0.49659 0.0
H892 H 0.99877 0.72845 0.51693 0.0
H893 H 0.98917 0.65437 0.57205 0.0
C894 C 0.02015 0.6682 0.59421 0.0
C895 C 0.03902 0.68686 0.59589 0.0
C896 C 0.9889 0.71053 0.51258 0.0
C897 C 0.00554 0.68922 0.55408 0.0
C898 C 0.9757 0.70844 0.48871 0.0
C899 C 0.96368 0.68498 0.48226 0.0
C900 C 0.98974 0.68909 0.53008 0.0
C901 C 0.96416 0.66447 0.50077 0.0
C902 C 0.00337 0.66929 0.57334 0.0
C903 C 0.04022 0.70694 0.57691 0.0
N904 N 0.97707 0.66695 0.52377 0.0
N905 N 0.02374 0.70754 0.55659 0.0
H906 H 0.61392 0.02397 0.55057 0.0
H907 H 0.69767 0.94186 0.43242 0.0
H908 H 0.69592 0.02698 0.54182 0.0
H909 H 0.61711 0.9596 0.42939 0.0
H910 H 0.69785 0.96992 0.47442 0.0
H911 H 0.61484 0.99652 0.50833 0.0
C912 C 0.63212 0.01862 0.53971 0.0
C913 C 0.65488 0.0275 0.54949 0.0
C914 C 0.68018 0.96781 0.46445 0.0
C915 C 0.65619 0.99632 0.50135 0.0
C916 C 0.68013 0.95193 0.44056 0.0
C917 C 0.65738 0.94872 0.4276 0.0
C918 C 0.65723 0.98012 0.47552 0.0
C919 C 0.63501 0.96177 0.4389 0.0
C920 C 0.63267 0.00311 0.51562 0.0
C921 C 0.67803 0.02025 0.53485 0.0
N922 N 0.63545 0.97681 0.46233 0.0
N923 N 0.67813 0.00497 0.51145 0.0
H924 H 0.45118 0.05872 0.2863 0.0
H925 H 0.53246 0.96395 0.37914 0.0
H926 H 0.43206 0.04752 0.37195 0.0
H927 H 0.55416 0.97801 0.29438 0.0
H928 H 0.49502 0.99348 0.37649 0.0
H929 H 0.48852 0.02839 0.28836 0.0
C930 C 0.45491 0.04972 0.30548 0.0
C931 C 0.43865 0.05534 0.32896 0.0
C932 C 0.50795 0.99013 0.35845 0.0
C933 C 0.48116 0.02089 0.33165 0.0
C934 C 0.52929 0.97311 0.3599 0.0
C935 C 0.54655 0.96839 0.33693 0.0
C936 C 0.50367 0.00257 0.33383 0.0
C937 C 0.54159 0.98125 0.31271 0.0
C938 C 0.47617 0.0325 0.30672 0.0
C939 C 0.44421 0.04348 0.35343 0.0
N940 N 0.52062 0.99768 0.31179 0.0
N941 N 0.46499 0.02678 0.35416 0.0
H942 H 0.023 0.56027 0.71089 0.0
H943 H 0.96436 0.45438 0.61005 0.0
H944 H 0.03809 0.5575 0.62306 0.0
H945 H 0.9652 0.44438 0.69723 0.0
H946 H 0.98812 0.49464 0.61495 0.0
H947 H 0.99832 0.5202 0.70684 0.0
C948 C 0.021 0.55129 0.69077 0.0
C949 C 0.03269 0.56211 0.66728 0.0
C950 C 0.98316 0.48365 0.63303 0.0
C951 C 0.00459 0.51646 0.6625 0.0
C952 C 0.96947 0.46075 0.63026 0.0
C953 C 0.96276 0.44607 0.65328 0.0
C954 C 0.99003 0.49214 0.65906 0.0
C955 C 0.97018 0.45504 0.67894 0.0
C956 C 0.00709 0.52838 0.68849 0.0
C957 C 0.02967 0.54962 0.64173 0.0
N958 N 0.98333 0.4776 0.68117 0.0
N959 N 0.01588 0.52753 0.64002 0.0
H960 H 0.51325 0.05528 0.64746 0.0
H961 H 0.44991 0.92013 0.68851 0.0
H962 H 0.55775 0.98346 0.6583 0.0
H963 H 0.41028 0.98035 0.64579 0.0
H964 H 0.48883 0.94566 0.68439 0.0
H965 H 0.47435 0.03045 0.6531 0.0
C966 C 0.51496 0.0343 0.65086 0.0
C967 C 0.53901 0.02152 0.65226 0.0
C968 C 0.47161 0.95328 0.67592 0.0
C969 C 0.49434 0.99316 0.65945 0.0
C970 C 0.44951 0.93877 0.6783 0.0
C971 C 0.42714 0.94815 0.66721 0.0
C972 C 0.47111 0.97753 0.66281 0.0
C973 C 0.4273 0.97251 0.65446 0.0
C974 C 0.49267 0.0202 0.65424 0.0
C975 C 0.53976 0.99437 0.65745 0.0
N976 N 0.44897 0.98643 0.65263 0.0
N977 N 0.51777 0.98114 0.66092 0.0
H978 H 0.92159 0.55111 0.35474 0.0
H979 H 0.05359 0.47742 0.30862 0.0
H980 H 0.9829 0.58836 0.31029 0.0
H981 H 0.98752 0.43694 0.33999 0.0
H982 H 0.02678 0.51739 0.30494 0.0
H983 H 0.94262 0.50836 0.34346 0.0
C984 C 0.94029 0.55071 0.34406 0.0
C985 C 0.95319 0.57417 0.33879 0.0
C986 C 0.01802 0.49969 0.31225 0.0
C987 C 0.97618 0.5247 0.32303 0.0
C988 C 0.03337 0.47692 0.31455 0.0
C989 C 0.02283 0.45392 0.32497 0.0
C990 C 0.99195 0.49966 0.3208 0.0
C991 C 0.99644 0.45424 0.33188 0.0
C992 C 0.95196 0.52603 0.33693 0.0
C993 C 0.97463 0.57158 0.31985 0.0
N994 N 0.98198 0.47686 0.33009 0.0
N995 N 0.98604 0.54742 0.31358 0.0
H996 H 0.36082 0.42919 0.00112 0.0
H997 H 0.35186 0.58034 0.99598 0.0
H998 H 0.31778 0.46961 0.06907 0.0
H999 H 0.31645 0.53721 0.9321 0.0
H1000 H 0.3515 0.54041 0.02339 0.0
H1001 H 0.35691 0.46929 0.97442 0.0
C1002 C 0.35061 0.44654 0.01037 0.0
C1003 C 0.33974 0.44631 0.03732 0.0
C1004 C 0.34383 0.53986 0.00336 0.0
C1005 C 0.33594 0.49194 0.00742 0.0
C1006 C 0.34404 0.56245 0.98779 0.0
C1007 C 0.3344 0.56183 0.96172 0.0
C1008 C 0.33463 0.51647 0.99234 0.0
C1009 C 0.32442 0.53826 0.95195 0.0
C1010 C 0.3484 0.46923 0.9952 0.0
C1011 C 0.3267 0.46923 0.04846 0.0
N1012 N 0.32521 0.51626 0.96708 0.0
N1013 N 0.3255 0.49139 0.03359 0.0
H1014 H 0.43834 0.69369 0.98642 0.0
H1015 H 0.5558 0.60876 0.0372 0.0
H1016 H 0.45505 0.61213 0.9615 0.0
H1017 H 0.55424 0.69396 0.03873 0.0
H1018 H 0.51654 0.60944 0.01302 0.0
H1019 H 0.47839 0.69407 0.00974 0.0
C1020 C 0.45039 0.67587 0.98599 0.0
C1021 C 0.44349 0.65286 0.97199 0.0
C1022 C 0.52481 0.62801 0.01851 0.0
C1023 C 0.48904 0.65314 0.99849 0.0
C1024 C 0.54714 0.62762 0.03236 0.0
C1025 C 0.55816 0.65134 0.03996 0.0
C1026 C 0.51318 0.65231 0.01251 0.0
C1027 C 0.54636 0.67525 0.03304 0.0
C1028 C 0.47327 0.67615 0.99908 0.0
C1029 C 0.45982 0.63035 0.97183 0.0
N1030 N 0.52432 0.67516 0.01987 0.0
N1031 N 0.48176 0.63102 0.98498 0.0
H1032 H 0.63405 0.47198 0.94602 0.0
H1033 H 0.70667 0.54729 0.06293 0.0
H1034 H 0.70618 0.44413 0.97398 0.0
H1035 H 0.63666 0.5766 0.03187 0.0
H1036 H 0.707 0.50915 0.03051 0.0
H1037 H 0.6349 0.51056 0.97707 0.0
C1038 C 0.6502 0.47408 0.95851 0.0
C1039 C 0.67009 0.45476 0.95734 0.0
C1040 C 0.69157 0.52391 0.03072 0.0
C1041 C 0.67099 0.49878 0.99331 0.0
C1042 C 0.69142 0.54555 0.04917 0.0
C1043 C 0.6716 0.56476 0.04982 0.0
C1044 C 0.6717 0.52164 0.01294 0.0
C1045 C 0.65221 0.56197 0.03179 0.0
C1046 C 0.65058 0.49605 0.97639 0.0
C1047 C 0.69027 0.45833 0.97443 0.0
N1048 N 0.6527 0.54075 0.01405 0.0
N1049 N 0.69018 0.47989 0.99172 0.0
H1050 H 0.4549 0.31282 0.99667 0.0
H1051 H 0.58193 0.38704 0.94938 0.0
H1052 H 0.46858 0.39414 0.01836 0.0
H1053 H 0.56808 0.30695 0.92393 0.0
H1054 H 0.54054 0.3895 0.97568 0.0
H1055 H 0.49608 0.30986 0.96996 0.0
C1056 C 0.46646 0.3301 0.99564 0.0
C1057 C 0.45834 0.35373 0.0099 0.0
C1058 C 0.5465 0.37131 0.96445 0.0
C1059 C 0.50555 0.35038 0.97971 0.0
C1060 C 0.5701 0.36994 0.94959 0.0
C1061 C 0.57818 0.34675 0.93478 0.0
C1062 C 0.53091 0.3493 0.9644 0.0
C1063 C 0.56234 0.32508 0.93535 0.0
C1064 C 0.49003 0.32835 0.98056 0.0
C1065 C 0.47424 0.3754 0.0081 0.0
N1066 N 0.53936 0.32687 0.94995 0.0
N1067 N 0.49706 0.37318 0.99335 0.0
loop_
_geom_bond_atom_site_label_1
_geom_bond_atom_site_label_2
_geom_bond_distance
_geom_bond_site_symmetry_2
_ccdc_geom_bond_type
C0 C1 1.443 . S
C0 N4 1.376 . S
C0 C38 1.389 . S
C1 C0 1.443 . S
C1 C2 1.340 . S
C1 H41 0.951 . S
C2 C1 1.340 . S
C2 C3 1.439 . S
C2 H42 0.950 . S
C3 C2 1.439 . S
C3 N4 1.374 . S
C3 C37 1.395 . S
N4 C0 1.376 . S
N4 C3 1.374 . S
N4 Co5 2.008 . S
Co5 N4 2.008 . S
Co5 N6 1.995 . S
Co5 N11 2.008 . S
Co5 N16 1.995 . S
Co5 N21 2.282 . S
Co5 N27 2.282 . S
N6 Co5 1.995 . S
N6 C7 1.376 . S
N6 C10 1.383 . S
C7 N6 1.376 . S
C7 C8 1.446 . S
C7 C37 1.391 . S
C8 C7 1.446 . S
C8 C9 1.339 . S
C8 H43 0.949 . S
C9 C8 1.339 . S
C9 C10 1.439 . S
C9 H44 0.950 . S
C10 N6 1.383 . S
C10 C9 1.439 . S
C10 C39 1.392 . S
N11 Co5 2.008 . S
N11 C12 1.376 . S
N11 C15 1.374 . S
C12 N11 1.376 . S
C12 C13 1.443 . S
C12 C39 1.389 . S
C13 C12 1.443 . S
C13 C14 1.340 . S
C13 H45 0.951 . S
C14 C13 1.340 . S
C14 C15 1.439 . S
C14 H46 0.950 . S
C15 N11 1.374 . S
C15 C14 1.439 . S
C15 C40 1.395 . S
N16 Co5 1.995 . S
N16 C17 1.376 . S
N16 C20 1.383 . S
C17 N16 1.376 . S
C17 C18 1.446 . S
C17 C40 1.391 . S
C18 C17 1.446 . S
C18 C19 1.339 . S
C18 H47 0.949 . S
C19 C18 1.339 . S
C19 C20 1.439 . S
C19 H48 0.950 . S
C20 N16 1.383 . S
C20 C19 1.439 . S
C20 C38 1.392 . S
N21 Co5 2.282 . S
N21 C24 1.332 . S
N21 C26 1.332 . S
C22 C23 1.386 . S
C22 C25 1.388 . S
C23 C22 1.386 . S
C23 C24 1.382 . S
C23 H49 0.950 . S
C24 N21 1.332 . S
C24 C23 1.382 . S
C24 H35 0.952 . S
C25 C22 1.388 . S
C25 C26 1.382 . S
C25 H50 0.950 . S
C26 N21 1.332 . S
C26 C25 1.382 . S
C26 H36 0.948 . S
N27 Co5 2.282 . S
N27 C31 1.332 . S
N27 C32 1.332 . S
C28 C29 1.388 . S
C28 C32 1.382 . S
C28 H51 0.950 . S
C29 C28 1.388 . S
C29 C30 1.386 . S
C30 C29 1.386 . S
C30 C31 1.382 . S
C30 H52 0.950 . S
C31 N27 1.332 . S
C31 C30 1.382 . S
C31 H33 0.952 . S
C32 N27 1.332 . S
C32 C28 1.382 . S
C32 H34 0.948 . S
H33 C31 0.952 . S
H34 C32 0.948 . S
H35 C24 0.952 . S
H36 C26 0.948 . S
C37 C3 1.395 . S
C37 C7 1.391 . S
C38 C0 1.389 . S
C38 C20 1.392 . S
C39 C10 1.392 . S
C39 C12 1.389 . S
C40 C15 1.395 . S
C40 C17 1.391 . S
H41 C1 0.951 . S
H42 C2 0.950 . S
H43 C8 0.949 . S
H44 C9 0.950 . S
H45 C13 0.951 . S
H46 C14 0.950 . S
H47 C18 0.949 . S
H48 C19 0.950 . S
H49 C23 0.950 . S
H50 C25 0.950 . S
H51 C28 0.950 . S
H52 C30 0.950 . S
C53 C54 1.443 . S
C53 N57 1.376 . S
C53 C91 1.389 . S
C54 C53 1.443 . S
C54 C55 1.340 . S
C54 H94 0.951 . S
C55 C54 1.340 . S
C55 C56 1.439 . S
C55 H95 0.950 . S
C56 C55 1.439 . S
C56 N57 1.374 . S
C56 C90 1.395 . S
N57 C53 1.376 . S
N57 C56 1.374 . S
N57 Co58 2.008 . S
Co58 N57 2.008 . S
Co58 N59 1.995 . S
Co58 N64 2.008 . S
Co58 N69 1.995 . S
Co58 N74 2.282 . S
Co58 N80 2.282 . S
N59 Co58 1.995 . S
N59 C60 1.376 . S
N59 C63 1.383 . S
C60 N59 1.376 . S
C60 C61 1.446 . S
C60 C90 1.391 . S
C61 C60 1.446 . S
C61 C62 1.339 . S
C61 H96 0.949 . S
C62 C61 1.339 . S
C62 C63 1.439 . S
C62 H97 0.950 . S
C63 N59 1.383 . S
C63 C62 1.439 . S
C63 C92 1.392 . S
N64 Co58 2.008 . S
N64 C65 1.376 . S
N64 C68 1.374 . S
C65 N64 1.376 . S
C65 C66 1.443 . S
C65 C92 1.389 . S
C66 C65 1.443 . S
C66 C67 1.340 . S
C66 H98 0.951 . S
C67 C66 1.340 . S
C67 C68 1.439 . S
C67 H99 0.950 . S
C68 N64 1.374 . S
C68 C67 1.439 . S
C68 C93 1.395 . S
N69 Co58 1.995 . S
N69 C70 1.376 . S
N69 C73 1.383 . S
C70 N69 1.376 . S
C70 C71 1.446 . S
C70 C93 1.391 . S
C71 C70 1.446 . S
C71 C72 1.339 . S
C71 H100 0.949 . S
C72 C71 1.339 . S
C72 C73 1.439 . S
C72 H101 0.950 . S
C73 N69 1.383 . S
C73 C72 1.439 . S
C73 C91 1.392 . S
N74 Co58 2.282 . S
N74 C77 1.332 . S
N74 C79 1.332 . S
C75 C76 1.386 . S
C75 C78 1.388 . S
C76 C75 1.386 . S
C76 C77 1.382 . S
C76 H102 0.950 . S
C77 N74 1.332 . S
C77 C76 1.382 . S
C77 H88 0.952 . S
C78 C75 1.388 . S
C78 C79 1.382 . S
C78 H103 0.950 . S
C79 N74 1.332 . S
C79 C78 1.382 . S
C79 H89 0.948 . S
N80 Co58 2.282 . S
N80 C84 1.332 . S
N80 C85 1.332 . S
C81 C82 1.388 . S
C81 C85 1.382 . S
C81 H104 0.950 . S
C82 C81 1.388 . S
C82 C83 1.386 . S
C83 C82 1.386 . S
C83 C84 1.382 . S
C83 H105 0.950 . S
C84 N80 1.332 . S
C84 C83 1.382 . S
C84 H86 0.952 . S
C85 N80 1.332 . S
C85 C81 1.382 . S
C85 H87 0.948 . S
H86 C84 0.952 . S
H87 C85 0.948 . S
H88 C77 0.952 . S
H89 C79 0.948 . S
C90 C56 1.395 . S
C90 C60 1.391 . S
C91 C53 1.389 . S
C91 C73 1.392 . S
C92 C63 1.392 . S
C92 C65 1.389 . S
C93 C68 1.395 . S
C93 C70 1.391 . S
H94 C54 0.951 . S
H95 C55 0.950 . S
H96 C61 0.949 . S
H97 C62 0.950 . S
H98 C66 0.951 . S
H99 C67 0.950 . S
H100 C71 0.949 . S
H101 C72 0.950 . S
H102 C76 0.950 . S
H103 C78 0.950 . S
H104 C81 0.950 . S
H105 C83 0.950 . S
C106 C107 1.443 . S
C106 N110 1.376 . S
C106 C144 1.389 . S
C107 C106 1.443 . S
C107 C108 1.340 . S
C107 H147 0.951 . S
C108 C107 1.340 . S
C108 C109 1.439 . S
C108 H148 0.950 . S
C109 C108 1.439 . S
C109 N110 1.374 . S
C109 C143 1.395 . S
N110 C106 1.376 . S
N110 C109 1.374 . S
N110 Co111 2.008 . S
Co111 N110 2.008 . S
Co111 N112 1.995 . S
Co111 N117 2.008 . S
Co111 N122 1.995 . S
Co111 N127 2.282 . S
Co111 N133 2.282 . S
N112 Co111 1.995 . S
N112 C113 1.376 . S
N112 C116 1.383 . S
C113 N112 1.376 . S
C113 C114 1.446 . S
C113 C143 1.391 . S
C114 C113 1.446 . S
C114 C115 1.339 . S
C114 H149 0.949 . S
C115 C114 1.339 . S
C115 C116 1.439 . S
C115 H150 0.950 . S
C116 N112 1.383 . S
C116 C115 1.439 . S
C116 C145 1.392 . S
N117 Co111 2.008 . S
N117 C118 1.376 . S
N117 C121 1.374 . S
C118 N117 1.376 . S
C118 C119 1.443 . S
C118 C145 1.389 . S
C119 C118 1.443 . S
C119 C120 1.340 . S
C119 H151 0.951 . S
C120 C119 1.340 . S
C120 C121 1.439 . S
C120 H152 0.950 . S
C121 N117 1.374 . S
C121 C120 1.439 . S
C121 C146 1.395 . S
N122 Co111 1.995 . S
N122 C123 1.376 . S
N122 C126 1.383 . S
C123 N122 1.376 . S
C123 C124 1.446 . S
C123 C146 1.391 . S
C124 C123 1.446 . S
C124 C125 1.339 . S
C124 H153 0.949 1_655 S
C125 C124 1.339 . S
C125 C126 1.439 . S
C125 H154 0.950 1_655 S
C126 N122 1.383 . S
C126 C125 1.439 . S
C126 C144 1.392 . S
N127 Co111 2.282 . S
N127 C130 1.332 . S
N127 C132 1.332 . S
C128 C129 1.386 . S
C128 C131 1.388 . S
C129 C128 1.386 . S
C129 C130 1.382 . S
C129 H155 0.950 . S
C130 N127 1.332 . S
C130 C129 1.382 . S
C130 H141 0.952 . S
C131 C128 1.388 . S
C131 C132 1.382 . S
C131 H156 0.950 . S
C132 N127 1.332 . S
C132 C131 1.382 . S
C132 H142 0.948 . S
N133 Co111 2.282 . S
N133 C137 1.332 . S
N133 C138 1.332 . S
C134 C135 1.388 . S
C134 C138 1.382 . S
C134 H157 0.950 1_655 S
C135 C134 1.388 . S
C135 C136 1.386 . S
C136 C135 1.386 . S
C136 C137 1.382 . S
C136 H158 0.950 . S
C137 N133 1.332 . S
C137 C136 1.382 . S
C137 H139 0.952 . S
C138 N133 1.332 . S
C138 C134 1.382 . S
C138 H140 0.948 . S
H139 C137 0.952 . S
H140 C138 0.948 . S
H141 C130 0.952 . S
H142 C132 0.948 . S
C143 C109 1.395 . S
C143 C113 1.391 . S
C144 C106 1.389 . S
C144 C126 1.392 . S
C145 C116 1.392 . S
C145 C118 1.389 . S
C146 C121 1.395 . S
C146 C123 1.391 . S
H147 C107 0.951 . S
H148 C108 0.950 . S
H149 C114 0.949 . S
H150 C115 0.950 . S
H151 C119 0.951 . S
H152 C120 0.950 . S
H153 C124 0.949 1_455 S
H154 C125 0.950 1_455 S
H155 C129 0.950 . S
H156 C131 0.950 . S
H157 C134 0.950 1_455 S
H158 C136 0.950 . S
C159 C160 1.443 . S
C159 N163 1.376 . S
C159 C197 1.389 . S
C160 C159 1.443 . S
C160 C161 1.340 . S
C160 H200 0.951 . S
C161 C160 1.340 . S
C161 C162 1.439 . S
C161 H201 0.950 . S
C162 C161 1.439 . S
C162 N163 1.374 . S
C162 C196 1.395 . S
N163 C159 1.376 . S
N163 C162 1.374 . S
N163 Co164 2.008 . S
Co164 N163 2.008 . S
Co164 N165 1.995 . S
Co164 N170 2.008 . S
Co164 N175 1.995 . S
Co164 N180 2.282 . S
Co164 N186 2.282 . S
N165 Co164 1.995 . S
N165 C166 1.376 . S
N165 C169 1.383 . S
C166 N165 1.376 . S
C166 C167 1.446 . S
C166 C196 1.391 . S
C167 C166 1.446 . S
C167 C168 1.339 . S
C167 H202 0.949 . S
C168 C167 1.339 . S
C168 C169 1.439 . S
C168 H203 0.950 . S
C169 N165 1.383 . S
C169 C168 1.439 . S
C169 C198 1.392 . S
N170 Co164 2.008 . S
N170 C171 1.376 . S
N170 C174 1.374 . S
C171 N170 1.376 . S
C171 C172 1.443 1_545 S
C171 C198 1.389 . S
C172 C171 1.443 1_565 S
C172 C173 1.340 . S
C172 H204 0.951 . S
C173 C172 1.340 . S
C173 C174 1.439 1_565 S
C173 H205 0.950 . S
C174 N170 1.374 . S
C174 C173 1.439 1_545 S
C174 C199 1.395 . S
N175 Co164 1.995 . S
N175 C176 1.376 . S
N175 C179 1.383 . S
C176 N175 1.376 . S
C176 C177 1.446 . S
C176 C199 1.391 . S
C177 C176 1.446 . S
C177 C178 1.339 . S
C177 H206 0.949 . S
C178 C177 1.339 . S
C178 C179 1.439 . S
C178 H207 0.950 . S
C179 N175 1.383 . S
C179 C178 1.439 . S
C179 C197 1.392 . S
N180 Co164 2.282 . S
N180 C183 1.332 . S
N180 C185 1.332 . S
C181 C182 1.386 . S
C181 C184 1.388 . S
C182 C181 1.386 . S
C182 C183 1.382 . S
C182 H208 0.950 . S
C183 N180 1.332 . S
C183 C182 1.382 . S
C183 H194 0.952 . S
C184 C181 1.388 . S
C184 C185 1.382 . S
C184 H209 0.950 . S
C185 N180 1.332 . S
C185 C184 1.382 . S
C185 H195 0.948 . S
N186 Co164 2.282 . S
N186 C190 1.332 . S
N186 C191 1.332 . S
C187 C188 1.388 . S
C187 C191 1.382 . S
C187 H210 0.950 . S
C188 C187 1.388 . S
C188 C189 1.386 . S
C189 C188 1.386 . S
C189 C190 1.382 . S
C189 H211 0.950 . S
C190 N186 1.332 . S
C190 C189 1.382 . S
C190 H192 0.952 . S
C191 N186 1.332 . S
C191 C187 1.382 . S
C191 H193 0.948 . S
H192 C190 0.952 . S
H193 C191 0.948 . S
H194 C183 0.952 . S
H195 C185 0.948 . S
C196 C162 1.395 . S
C196 C166 1.391 . S
C197 C159 1.389 . S
C197 C179 1.392 . S
C198 C169 1.392 . S
C198 C171 1.389 . S
C199 C174 1.395 . S
C199 C176 1.391 . S
H200 C160 0.951 . S
H201 C161 0.950 . S
H202 C167 0.949 . S
H203 C168 0.950 . S
H204 C172 0.951 . S
H205 C173 0.950 . S
H206 C177 0.949 . S
H207 C178 0.950 . S
H208 C182 0.950 . S
H209 C184 0.950 . S
H210 C187 0.950 . S
H211 C189 0.950 . S
C212 C213 1.443 . S
C212 N216 1.376 . S
C212 C250 1.389 . S
C213 C212 1.443 . S
C213 C214 1.340 . S
C213 H253 0.951 . S
C214 C213 1.340 . S
C214 C215 1.439 . S
C214 H254 0.950 . S
C215 C214 1.439 . S
C215 N216 1.374 . S
C215 C249 1.395 . S
N216 C212 1.376 . S
N216 C215 1.374 . S
N216 Co217 2.008 . S
Co217 N216 2.008 . S
Co217 N218 1.995 . S
Co217 N223 2.008 . S
Co217 N228 1.995 . S
Co217 N233 2.282 . S
Co217 N239 2.282 . S
N218 Co217 1.995 . S
N218 C219 1.376 . S
N218 C222 1.383 . S
C219 N218 1.376 . S
C219 C220 1.446 . S
C219 C249 1.391 . S
C220 C219 1.446 . S
C220 C221 1.339 . S
C220 H255 0.949 . S
C221 C220 1.339 . S
C221 C222 1.439 . S
C221 H256 0.950 . S
C222 N218 1.383 . S
C222 C221 1.439 . S
C222 C251 1.392 . S
N223 Co217 2.008 . S
N223 C224 1.376 . S
N223 C227 1.374 . S
C224 N223 1.376 . S
C224 C225 1.443 . S
C224 C251 1.389 . S
C225 C224 1.443 . S
C225 C226 1.340 . S
C225 H257 0.951 . S
C226 C225 1.340 . S
C226 C227 1.439 . S
C226 H258 0.950 . S
C227 N223 1.374 . S
C227 C226 1.439 . S
C227 C252 1.395 . S
N228 Co217 1.995 . S
N228 C229 1.376 . S
N228 C232 1.383 . S
C229 N228 1.376 . S
C229 C230 1.446 . S
C229 C252 1.391 . S
C230 C229 1.446 . S
C230 C231 1.339 . S
C230 H259 0.949 . S
C231 C230 1.339 . S
C231 C232 1.439 . S
C231 H260 0.950 . S
C232 N228 1.383 . S
C232 C231 1.439 . S
C232 C250 1.392 . S
N233 Co217 2.282 . S
N233 C236 1.332 . S
N233 C238 1.332 . S
C234 C235 1.386 . S
C234 C237 1.388 . S
C235 C234 1.386 . S
C235 C236 1.382 . S
C235 H261 0.950 . S
C236 N233 1.332 . S
C236 C235 1.382 . S
C236 H247 0.952 . S
C237 C234 1.388 . S
C237 C238 1.382 . S
C237 H262 0.950 . S
C238 N233 1.332 . S
C238 C237 1.382 . S
C238 H248 0.948 . S
N239 Co217 2.282 . S
N239 C243 1.332 . S
N239 C244 1.332 . S
C240 C241 1.388 . S
C240 C244 1.382 . S
C240 H263 0.950 . S
C241 C240 1.388 . S
C241 C242 1.386 . S
C242 C241 1.386 . S
C242 C243 1.382 . S
C242 H264 0.950 . S
C243 N239 1.332 . S
C243 C242 1.382 . S
C243 H245 0.952 . S
C244 N239 1.332 . S
C244 C240 1.382 . S
C244 H246 0.948 . S
H245 C243 0.952 . S
H246 C244 0.948 . S
H247 C236 0.952 . S
H248 C238 0.948 . S
C249 C215 1.395 . S
C249 C219 1.391 . S
C250 C212 1.389 . S
C250 C232 1.392 . S
C251 C222 1.392 . S
C251 C224 1.389 . S
C252 C227 1.395 . S
C252 C229 1.391 . S
H253 C213 0.951 . S
H254 C214 0.950 . S
H255 C220 0.949 . S
H256 C221 0.950 . S
H257 C225 0.951 . S
H258 C226 0.950 . S
H259 C230 0.949 . S
H260 C231 0.950 . S
H261 C235 0.950 . S
H262 C237 0.950 . S
H263 C240 0.950 . S
H264 C242 0.950 . S
C265 C266 1.443 . S
C265 N269 1.376 . S
C265 C303 1.389 . S
C266 C265 1.443 . S
C266 C267 1.340 . S
C266 H306 0.951 . S
C267 C266 1.340 . S
C267 C268 1.439 . S
C267 H307 0.950 . S
C268 C267 1.439 . S
C268 N269 1.374 . S
C268 C302 1.395 . S
N269 C265 1.376 . S
N269 C268 1.374 . S
N269 Co270 2.008 . S
Co270 N269 2.008 . S
Co270 N271 1.995 . S
Co270 N276 2.008 . S
Co270 N281 1.995 . S
Co270 N286 2.282 . S
Co270 N292 2.282 . S
N271 Co270 1.995 . S
N271 C272 1.376 . S
N271 C275 1.383 . S
C272 N271 1.376 . S
C272 C273 1.446 . S
C272 C302 1.391 . S
C273 C272 1.446 . S
C273 C274 1.339 . S
C273 H308 0.949 . S
C274 C273 1.339 . S
C274 C275 1.439 . S
C274 H309 0.950 . S
C275 N271 1.383 . S
C275 C274 1.439 . S
C275 C304 1.392 . S
N276 Co270 2.008 . S
N276 C277 1.376 . S
N276 C280 1.374 . S
C277 N276 1.376 . S
C277 C278 1.443 . S
C277 C304 1.389 . S
C278 C277 1.443 . S
C278 C279 1.340 . S
C278 H310 0.951 . S
C279 C278 1.340 . S
C279 C280 1.439 . S
C279 H311 0.950 . S
C280 N276 1.374 . S
C280 C279 1.439 . S
C280 C305 1.395 . S
N281 Co270 1.995 . S
N281 C282 1.376 . S
N281 C285 1.383 . S
C282 N281 1.376 . S
C282 C283 1.446 . S
C282 C305 1.391 . S
C283 C282 1.446 . S
C283 C284 1.339 . S
C283 H312 0.949 . S
C284 C283 1.339 . S
C284 C285 1.439 . S
C284 H313 0.950 . S
C285 N281 1.383 . S
C285 C284 1.439 . S
C285 C303 1.392 . S
N286 Co270 2.282 . S
N286 C289 1.332 . S
N286 C291 1.332 . S
C287 C288 1.386 . S
C287 C290 1.388 . S
C288 C287 1.386 . S
C288 C289 1.382 . S
C288 H314 0.950 . S
C289 N286 1.332 . S
C289 C288 1.382 . S
C289 H300 0.952 . S
C290 C287 1.388 . S
C290 C291 1.382 . S
C290 H315 0.950 . S
C291 N286 1.332 . S
C291 C290 1.382 . S
C291 H301 0.948 . S
N292 Co270 2.282 . S
N292 C296 1.332 . S
N292 C297 1.332 . S
C293 C294 1.388 . S
C293 C297 1.382 . S
C293 H316 0.950 . S
C294 C293 1.388 . S
C294 C295 1.386 . S
C295 C294 1.386 . S
C295 C296 1.382 . S
C295 H317 0.950 . S
C296 N292 1.332 . S
C296 C295 1.382 . S
C296 H298 0.952 . S
C297 N292 1.332 . S
C297 C293 1.382 . S
C297 H299 0.948 . S
H298 C296 0.952 . S
H299 C297 0.948 . S
H300 C289 0.952 . S
H301 C291 0.948 . S
C302 C268 1.395 . S
C302 C272 1.391 . S
C303 C265 1.389 . S
C303 C285 1.392 . S
C304 C275 1.392 . S
C304 C277 1.389 . S
C305 C280 1.395 . S
C305 C282 1.391 . S
H306 C266 0.951 . S
H307 C267 0.950 . S
H308 C273 0.949 . S
H309 C274 0.950 . S
H310 C278 0.951 . S
H311 C279 0.950 . S
H312 C283 0.949 . S
H313 C284 0.950 . S
H314 C288 0.950 . S
H315 C290 0.950 . S
H316 C293 0.950 . S
H317 C295 0.950 . S
C318 C319 1.443 . S
C318 N322 1.376 . S
C318 C356 1.389 . S
C319 C318 1.443 . S
C319 C320 1.340 . S
C319 H359 0.951 . S
C320 C319 1.340 . S
C320 C321 1.439 . S
C320 H360 0.950 . S
C321 C320 1.439 . S
C321 N322 1.374 . S
C321 C355 1.395 . S
N322 C318 1.376 . S
N322 C321 1.374 . S
N322 Co323 2.008 . S
Co323 N322 2.008 . S
Co323 N324 1.995 . S
Co323 N329 2.008 . S
Co323 N334 1.995 . S
Co323 N339 2.282 . S
Co323 N345 2.282 . S
N324 Co323 1.995 . S
N324 C325 1.376 . S
N324 C328 1.383 . S
C325 N324 1.376 . S
C325 C326 1.446 . S
C325 C355 1.391 . S
C326 C325 1.446 . S
C326 C327 1.339 . S
C326 H361 0.949 . S
C327 C326 1.339 . S
C327 C328 1.439 . S
C327 H362 0.950 . S
C328 N324 1.383 . S
C328 C327 1.439 . S
C328 C357 1.392 . S
N329 Co323 2.008 . S
N329 C330 1.376 . S
N329 C333 1.374 . S
C330 N329 1.376 . S
C330 C331 1.443 . S
C330 C357 1.389 . S
C331 C330 1.443 . S
C331 C332 1.340 . S
C331 H363 0.951 . S
C332 C331 1.340 . S
C332 C333 1.439 . S
C332 H364 0.950 . S
C333 N329 1.374 . S
C333 C332 1.439 . S
C333 C358 1.395 . S
N334 Co323 1.995 . S
N334 C335 1.376 . S
N334 C338 1.383 . S
C335 N334 1.376 . S
C335 C336 1.446 . S
C335 C358 1.391 . S
C336 C335 1.446 . S
C336 C337 1.339 . S
C336 H365 0.949 . S
C337 C336 1.339 . S
C337 C338 1.439 . S
C337 H366 0.950 . S
C338 N334 1.383 . S
C338 C337 1.439 . S
C338 C356 1.392 . S
N339 Co323 2.282 . S
N339 C342 1.332 . S
N339 C344 1.332 . S
C340 C341 1.386 . S
C340 C343 1.388 . S
C341 C340 1.386 . S
C341 C342 1.382 . S
C341 H367 0.950 . S
C342 N339 1.332 . S
C342 C341 1.382 . S
C342 H353 0.952 . S
C343 C340 1.388 . S
C343 C344 1.382 . S
C343 H368 0.950 . S
C344 N339 1.332 . S
C344 C343 1.382 . S
C344 H354 0.948 . S
N345 Co323 2.282 . S
N345 C349 1.332 . S
N345 C350 1.332 . S
C346 C347 1.388 . S
C346 C350 1.382 . S
C346 H369 0.950 . S
C347 C346 1.388 . S
C347 C348 1.386 . S
C348 C347 1.386 . S
C348 C349 1.382 . S
C348 H370 0.950 . S
C349 N345 1.332 . S
C349 C348 1.382 . S
C349 H351 0.952 . S
C350 N345 1.332 . S
C350 C346 1.382 . S
C350 H352 0.948 . S
H351 C349 0.952 . S
H352 C350 0.948 . S
H353 C342 0.952 . S
H354 C344 0.948 . S
C355 C321 1.395 . S
C355 C325 1.391 . S
C356 C318 1.389 . S
C356 C338 1.392 . S
C357 C328 1.392 . S
C357 C330 1.389 . S
C358 C333 1.395 . S
C358 C335 1.391 . S
H359 C319 0.951 . S
H360 C320 0.950 . S
H361 C326 0.949 . S
H362 C327 0.950 . S
H363 C331 0.951 . S
H364 C332 0.950 . S
H365 C336 0.949 . S
H366 C337 0.950 . S
H367 C341 0.950 . S
H368 C343 0.950 . S
H369 C346 0.950 . S
H370 C348 0.950 . S
C371 C372 1.443 . S
C371 N375 1.376 . S
C371 C409 1.389 . S
C372 C371 1.443 . S
C372 C373 1.340 . S
C372 H412 0.951 . S
C373 C372 1.340 . S
C373 C374 1.439 . S
C373 H413 0.950 . S
C374 C373 1.439 . S
C374 N375 1.374 . S
C374 C408 1.395 . S
N375 C371 1.376 . S
N375 C374 1.374 . S
N375 Co376 2.008 . S
Co376 N375 2.008 . S
Co376 N377 1.995 . S
Co376 N382 2.008 . S
Co376 N387 1.995 . S
Co376 N392 2.282 . S
Co376 N398 2.282 . S
N377 Co376 1.995 . S
N377 C378 1.376 . S
N377 C381 1.383 . S
C378 N377 1.376 . S
C378 C379 1.446 . S
C378 C408 1.391 . S
C379 C378 1.446 . S
C379 C380 1.339 . S
C379 H414 0.949 . S
C380 C379 1.339 . S
C380 C381 1.439 . S
C380 H415 0.950 . S
C381 N377 1.383 . S
C381 C380 1.439 . S
C381 C410 1.392 . S
N382 Co376 2.008 . S
N382 C383 1.376 . S
N382 C386 1.374 . S
C383 N382 1.376 . S
C383 C384 1.443 . S
C383 C410 1.389 . S
C384 C383 1.443 . S
C384 C385 1.340 . S
C384 H416 0.951 . S
C385 C384 1.340 . S
C385 C386 1.439 . S
C385 H417 0.950 . S
C386 N382 1.374 . S
C386 C385 1.439 . S
C386 C411 1.395 . S
N387 Co376 1.995 . S
N387 C388 1.376 . S
N387 C391 1.383 . S
C388 N387 1.376 . S
C388 C389 1.446 . S
C388 C411 1.391 . S
C389 C388 1.446 . S
C389 C390 1.339 . S
C389 H418 0.949 . S
C390 C389 1.339 . S
C390 C391 1.439 . S
C390 H419 0.950 . S
C391 N387 1.383 . S
C391 C390 1.439 . S
C391 C409 1.392 . S
N392 Co376 2.282 . S
N392 C395 1.332 . S
N392 C397 1.332 . S
C393 C394 1.386 . S
C393 C396 1.388 . S
C394 C393 1.386 . S
C394 C395 1.382 . S
C394 H420 0.950 . S
C395 N392 1.332 . S
C395 C394 1.382 . S
C395 H406 0.952 . S
C396 C393 1.388 . S
C396 C397 1.382 . S
C396 H421 0.950 . S
C397 N392 1.332 . S
C397 C396 1.382 . S
C397 H407 0.948 . S
N398 Co376 2.282 . S
N398 C402 1.332 . S
N398 C403 1.332 . S
C399 C400 1.388 . S
C399 C403 1.382 . S
C399 H422 0.950 . S
C400 C399 1.388 . S
C400 C401 1.386 . S
C401 C400 1.386 . S
C401 C402 1.382 . S
C401 H423 0.950 . S
C402 N398 1.332 . S
C402 C401 1.382 . S
C402 H404 0.952 . S
C403 N398 1.332 . S
C403 C399 1.382 . S
C403 H405 0.948 . S
H404 C402 0.952 . S
H405 C403 0.948 . S
H406 C395 0.952 . S
H407 C397 0.948 . S
C408 C374 1.395 . S
C408 C378 1.391 . S
C409 C371 1.389 . S
C409 C391 1.392 . S
C410 C381 1.392 . S
C410 C383 1.389 . S
C411 C386 1.395 . S
C411 C388 1.391 . S
H412 C372 0.951 . S
H413 C373 0.950 . S
H414 C379 0.949 . S
H415 C380 0.950 . S
H416 C384 0.951 . S
H417 C385 0.950 . S
H418 C389 0.949 . S
H419 C390 0.950 . S
H420 C394 0.950 . S
H421 C396 0.950 . S
H422 C399 0.950 . S
H423 C401 0.950 . S
C424 C425 1.443 . S
C424 N428 1.376 . S
C424 C462 1.389 . S
C425 C424 1.443 . S
C425 C426 1.340 . S
C425 H465 0.951 . S
C426 C425 1.340 . S
C426 C427 1.439 . S
C426 H466 0.950 . S
C427 C426 1.439 . S
C427 N428 1.374 . S
C427 C461 1.395 . S
N428 C424 1.376 . S
N428 C427 1.374 . S
N428 Co429 2.008 . S
Co429 N428 2.008 . S
Co429 N430 1.995 . S
Co429 N435 2.008 . S
Co429 N440 1.995 . S
Co429 N445 2.282 . S
Co429 N451 2.282 . S
N430 Co429 1.995 . S
N430 C431 1.376 . S
N430 C434 1.383 . S
C431 N430 1.376 . S
C431 C432 1.446 . S
C431 C461 1.391 . S
C432 C431 1.446 . S
C432 C433 1.339 . S
C432 H467 0.949 1_554 S
C433 C432 1.339 . S
C433 C434 1.439 . S
C433 H468 0.974 . S
C434 N430 1.383 . S
C434 C433 1.439 . S
C434 C463 1.392 . S
N435 Co429 2.008 . S
N435 C436 1.376 . S
N435 C439 1.374 . S
C436 N435 1.376 . S
C436 C437 1.443 . S
C436 C463 1.389 . S
C437 C436 1.443 . S
C437 C438 1.340 . S
C437 H469 0.951 . S
C438 C437 1.340 . S
C438 C439 1.439 . S
C438 H470 0.950 . S
C439 N435 1.374 . S
C439 C438 1.439 . S
C439 C464 1.395 . S
N440 Co429 1.995 . S
N440 C441 1.376 . S
N440 C444 1.383 . S
C441 N440 1.376 . S
C441 C442 1.446 . S
C441 C464 1.391 . S
C442 C441 1.446 . S
C442 C443 1.339 . S
C442 H471 0.949 . S
C443 C442 1.339 . S
C443 C444 1.439 . S
C443 H472 0.950 . S
C444 N440 1.383 . S
C444 C443 1.439 . S
C444 C462 1.392 . S
N445 Co429 2.282 . S
N445 C448 1.332 . S
N445 C450 1.332 . S
C446 C447 1.386 . S
C446 C449 1.388 . S
C447 C446 1.386 . S
C447 C448 1.382 . S
C447 H473 0.950 . S
C448 N445 1.332 . S
C448 C447 1.382 . S
C448 H459 0.952 . S
C449 C446 1.388 . S
C449 C450 1.382 . S
C449 H474 0.950 1_554 S
C450 N445 1.332 . S
C450 C449 1.382 . S
C450 H460 0.948 . S
N451 Co429 2.282 . S
N451 C455 1.332 . S
N451 C456 1.332 . S
C452 C453 1.388 . S
C452 C456 1.382 . S
C452 H475 0.950 . S
C453 C452 1.388 . S
C453 C454 1.386 . S
C454 C453 1.386 . S
C454 C455 1.382 . S
C454 H476 0.950 . S
C455 N451 1.332 . S
C455 C454 1.382 . S
C455 H457 0.952 . S
C456 N451 1.332 . S
C456 C452 1.382 . S
C456 H458 0.948 . S
H457 C455 0.952 . S
H458 C456 0.948 . S
H459 C448 0.952 . S
H460 C450 0.948 . S
C461 C427 1.395 . S
C461 C431 1.391 . S
C462 C424 1.389 . S
C462 C444 1.392 . S
C463 C434 1.392 . S
C463 C436 1.389 . S
C464 C439 1.395 . S
C464 C441 1.391 . S
H465 C425 0.951 . S
H466 C426 0.950 . S
H467 C432 0.949 1_556 S
H468 C433 0.974 . S
H469 C437 0.951 . S
H470 C438 0.950 . S
H471 C442 0.949 . S
H472 C443 0.950 . S
H473 C447 0.950 . S
H474 C449 0.950 1_556 S
H475 C452 0.950 . S
H476 C454 0.950 . S
C477 C478 1.443 . S
C477 N481 1.376 . S
C477 C515 1.389 . S
C478 C477 1.443 . S
C478 C479 1.340 . S
C478 H518 0.951 . S
C479 C478 1.340 . S
C479 C480 1.439 . S
C479 H519 0.950 . S
C480 C479 1.439 . S
C480 N481 1.374 . S
C480 C514 1.395 . S
N481 C477 1.376 . S
N481 C480 1.374 . S
N481 Co482 2.008 . S
Co482 N481 2.008 . S
Co482 N483 1.995 . S
Co482 N488 2.008 . S
Co482 N493 1.995 . S
Co482 N498 2.282 . S
Co482 N504 2.282 . S
N483 Co482 1.995 . S
N483 C484 1.376 . S
N483 C487 1.383 . S
C484 N483 1.376 . S
C484 C485 1.446 . S
C484 C514 1.391 . S
C485 C484 1.446 . S
C485 C486 1.339 . S
C485 H520 0.949 1_556 S
C486 C485 1.339 . S
C486 C487 1.439 . S
C486 H521 0.950 1_556 S
C487 N483 1.383 . S
C487 C486 1.439 . S
C487 C516 1.392 . S
N488 Co482 2.008 . S
N488 C489 1.376 . S
N488 C492 1.374 . S
C489 N488 1.376 . S
C489 C490 1.443 . S
C489 C516 1.389 . S
C490 C489 1.443 . S
C490 C491 1.340 . S
C490 H522 0.951 . S
C491 C490 1.340 . S
C491 C492 1.439 . S
C491 H523 0.950 . S
C492 N488 1.374 . S
C492 C491 1.439 . S
C492 C517 1.395 . S
N493 Co482 1.995 . S
N493 C494 1.376 . S
N493 C497 1.383 . S
C494 N493 1.376 . S
C494 C495 1.446 . S
C494 C517 1.391 . S
C495 C494 1.446 . S
C495 C496 1.339 . S
C495 H524 0.949 . S
C496 C495 1.339 . S
C496 C497 1.439 . S
C496 H525 0.950 . S
C497 N493 1.383 . S
C497 C496 1.439 . S
C497 C515 1.392 . S
N498 Co482 2.282 . S
N498 C501 1.332 . S
N498 C503 1.332 . S
C499 C500 1.386 . S
C499 C502 1.388 . S
C500 C499 1.386 . S
C500 C501 1.382 . S
C500 H526 0.950 . S
C501 N498 1.332 . S
C501 C500 1.382 . S
C501 H512 0.952 . S
C502 C499 1.388 . S
C502 C503 1.382 . S
C502 H527 0.950 1_556 S
C503 N498 1.332 . S
C503 C502 1.382 . S
C503 H513 0.948 . S
N504 Co482 2.282 . S
N504 C508 1.332 . S
N504 C509 1.332 . S
C505 C506 1.388 . S
C505 C509 1.382 . S
C505 H528 0.950 . S
C506 C505 1.388 . S
C506 C507 1.386 . S
C507 C506 1.386 . S
C507 C508 1.382 . S
C507 H529 0.950 . S
C508 N504 1.332 . S
C508 C507 1.382 . S
C508 H510 0.952 . S
C509 N504 1.332 . S
C509 C505 1.382 . S
C509 H511 0.948 . S
H510 C508 0.952 . S
H511 C509 0.948 . S
H512 C501 0.952 . S
H513 C503 0.948 . S
C514 C480 1.395 . S
C514 C484 1.391 . S
C515 C477 1.389 . S
C515 C497 1.392 . S
C516 C487 1.392 . S
C516 C489 1.389 . S
C517 C492 1.395 . S
C517 C494 1.391 . S
H518 C478 0.951 . S
H519 C479 0.950 . S
H520 C485 0.949 1_554 S
H521 C486 0.950 1_554 S
H522 C490 0.951 . S
H523 C491 0.950 . S
H524 C495 0.949 . S
H525 C496 0.950 . S
H526 C500 0.950 . S
H527 C502 0.950 1_554 S
H528 C505 0.950 . S
H529 C507 0.950 . S
C530 C531 1.443 . S
C530 N534 1.376 . S
C530 C568 1.389 . S
C531 C530 1.443 . S
C531 C532 1.340 . S
C531 H571 0.951 . S
C532 C531 1.340 . S
C532 C533 1.439 . S
C532 H572 0.950 1_554 S
C533 C532 1.439 . S
C533 N534 1.374 . S
C533 C567 1.395 . S
N534 C530 1.376 . S
N534 C533 1.374 . S
N534 Co535 2.008 . S
Co535 N534 2.008 . S
Co535 N536 1.995 . S
Co535 N541 2.008 . S
Co535 N546 1.995 . S
Co535 N551 2.282 . S
Co535 N557 2.282 . S
N536 Co535 1.995 . S
N536 C537 1.376 . S
N536 C540 1.383 . S
C537 N536 1.376 . S
C537 C538 1.446 . S
C537 C567 1.391 . S
C538 C537 1.446 . S
C538 C539 1.339 . S
C538 H573 0.949 . S
C539 C538 1.339 . S
C539 C540 1.439 . S
C539 H574 0.950 . S
C540 N536 1.383 . S
C540 C539 1.439 . S
C540 C569 1.392 . S
N541 Co535 2.008 . S
N541 C542 1.376 . S
N541 C545 1.374 . S
C542 N541 1.376 . S
C542 C543 1.443 . S
C542 C569 1.389 . S
C543 C542 1.443 . S
C543 C544 1.340 . S
C543 H575 0.951 . S
C544 C543 1.340 . S
C544 C545 1.439 . S
C544 H576 0.950 . S
C545 N541 1.374 . S
C545 C544 1.439 . S
C545 C570 1.395 . S
N546 Co535 1.995 . S
N546 C547 1.376 . S
N546 C550 1.383 . S
C547 N546 1.376 . S
C547 C548 1.446 . S
C547 C570 1.391 . S
C548 C547 1.446 . S
C548 C549 1.339 . S
C548 H577 0.949 . S
C549 C548 1.339 . S
C549 C550 1.439 . S
C549 H578 0.950 . S
C550 N546 1.383 . S
C550 C549 1.439 . S
C550 C568 1.392 . S
N551 Co535 2.282 . S
N551 C554 1.332 . S
N551 C556 1.332 . S
C552 C553 1.386 . S
C552 C555 1.388 . S
C553 C552 1.386 . S
C553 C554 1.382 . S
C553 H579 0.950 . S
C554 N551 1.332 . S
C554 C553 1.382 . S
C554 H565 0.952 . S
C555 C552 1.388 . S
C555 C556 1.382 . S
C555 H580 0.950 . S
C556 N551 1.332 . S
C556 C555 1.382 . S
C556 H566 0.948 . S
N557 Co535 2.282 . S
N557 C561 1.332 . S
N557 C562 1.332 . S
C558 C559 1.388 . S
C558 C562 1.382 . S
C558 H581 0.950 . S
C559 C558 1.388 . S
C559 C560 1.386 . S
C560 C559 1.386 . S
C560 C561 1.382 . S
C560 H582 0.950 . S
C561 N557 1.332 . S
C561 C560 1.382 . S
C561 H563 0.952 . S
C562 N557 1.332 . S
C562 C558 1.382 . S
C562 H564 0.948 . S
H563 C561 0.952 . S
H564 C562 0.948 . S
H565 C554 0.952 . S
H566 C556 0.948 . S
C567 C533 1.395 . S
C567 C537 1.391 . S
C568 C530 1.389 . S
C568 C550 1.392 . S
C569 C540 1.392 . S
C569 C542 1.389 . S
C570 C545 1.395 . S
C570 C547 1.391 . S
H571 C531 0.951 . S
H572 C532 0.950 1_556 S
H573 C538 0.949 . S
H574 C539 0.950 . S
H575 C543 0.951 . S
H576 C544 0.950 . S
H577 C548 0.949 . S
H578 C549 0.950 . S
H579 C553 0.950 . S
H580 C555 0.950 . S
H581 C558 0.950 . S
H582 C560 0.950 . S
C583 C584 1.443 . S
C583 N587 1.376 . S
C583 C621 1.389 . S
C584 C583 1.443 . S
C584 C585 1.340 . S
C584 H624 0.951 . S
C585 C584 1.340 . S
C585 C586 1.439 . S
C585 H625 0.950 . S
C586 C585 1.439 . S
C586 N587 1.374 . S
C586 C620 1.395 . S
N587 C583 1.376 . S
N587 C586 1.374 . S
N587 Co588 2.008 . S
Co588 N587 2.008 . S
Co588 N589 1.995 . S
Co588 N594 2.008 . S
Co588 N599 1.995 . S
Co588 N604 2.282 . S
Co588 N610 2.282 . S
N589 Co588 1.995 . S
N589 C590 1.376 . S
N589 C593 1.383 . S
C590 N589 1.376 . S
C590 C591 1.446 . S
C590 C620 1.391 . S
C591 C590 1.446 . S
C591 C592 1.339 . S
C591 H626 0.949 . S
C592 C591 1.339 . S
C592 C593 1.439 . S
C592 H627 0.950 . S
C593 N589 1.383 . S
C593 C592 1.439 . S
C593 C622 1.392 . S
N594 Co588 2.008 . S
N594 C595 1.376 . S
N594 C598 1.374 . S
C595 N594 1.376 . S
C595 C596 1.443 . S
C595 C622 1.389 . S
C596 C595 1.443 . S
C596 C597 1.340 . S
C596 H628 0.951 . S
C597 C596 1.340 . S
C597 C598 1.439 . S
C597 H629 0.950 . S
C598 N594 1.374 . S
C598 C597 1.439 . S
C598 C623 1.395 . S
N599 Co588 1.995 . S
N599 C600 1.376 . S
N599 C603 1.383 . S
C600 N599 1.376 . S
C600 C601 1.446 . S
C600 C623 1.391 . S
C601 C600 1.446 . S
C601 C602 1.339 . S
C601 H630 0.949 . S
C602 C601 1.339 . S
C602 C603 1.439 . S
C602 H631 0.950 . S
C603 N599 1.383 . S
C603 C602 1.439 . S
C603 C621 1.392 . S
N604 Co588 2.282 . S
N604 C607 1.332 . S
N604 C609 1.332 . S
C605 C606 1.386 . S
C605 C608 1.388 . S
C606 C605 1.386 . S
C606 C607 1.382 . S
C606 H632 0.950 . S
C607 N604 1.332 . S
C607 C606 1.382 . S
C607 H618 0.952 . S
C608 C605 1.388 . S
C608 C609 1.382 . S
C608 H633 0.950 . S
C609 N604 1.332 . S
C609 C608 1.382 . S
C609 H619 0.948 . S
N610 Co588 2.282 . S
N610 C614 1.332 . S
N610 C615 1.332 . S
C611 C612 1.388 . S
C611 C615 1.382 . S
C611 H634 0.950 . S
C612 C611 1.388 . S
C612 C613 1.386 . S
C613 C612 1.386 . S
C613 C614 1.382 . S
C613 H635 0.950 . S
C614 N610 1.332 . S
C614 C613 1.382 . S
C614 H616 0.952 . S
C615 N610 1.332 . S
C615 C611 1.382 . S
C615 H617 0.948 . S
H616 C614 0.952 . S
H617 C615 0.948 . S
H618 C607 0.952 . S
H619 C609 0.948 . S
C620 C586 1.395 . S
C620 C590 1.391 . S
C621 C583 1.389 . S
C621 C603 1.392 . S
C622 C593 1.392 . S
C622 C595 1.389 . S
C623 C598 1.395 . S
C623 C600 1.391 . S
H624 C584 0.951 . S
H625 C585 0.950 . S
H626 C591 0.949 . S
H627 C592 0.950 . S
H628 C596 0.951 . S
H629 C597 0.950 . S
H630 C601 0.949 . S
H631 C602 0.950 . S
H632 C606 0.950 . S
H633 C608 0.950 . S
H634 C611 0.950 . S
H635 C613 0.950 . S
H636 C642 0.930 . S
H637 C646 0.930 . S
H638 C651 0.929 . S
H639 C649 0.929 . S
H640 C644 0.929 . S
H641 C650 0.929 . S
C642 H636 0.930 . S
C642 C643 1.367 . S
C642 C650 1.378 . S
C643 C642 1.367 . S
C643 C651 1.433 . S
C644 H640 0.929 . S
C644 C646 1.378 . S
C644 C648 1.350 . S
C645 C648 1.463 . S
C645 C650 1.350 . S
C645 N653 1.427 . S
C646 H637 0.930 . S
C646 C644 1.378 . S
C646 C647 1.367 . S
C647 C646 1.367 . S
C647 C649 1.433 . S
C648 C644 1.350 . S
C648 C645 1.463 . S
C648 N652 1.427 . S
C649 H639 0.929 . S
C649 C647 1.433 . S
C649 N652 1.384 . S
C650 H641 0.929 . S
C650 C642 1.378 . S
C650 C645 1.350 . S
C651 H638 0.929 . S
C651 C643 1.433 . S
C651 N653 1.384 . S
N652 C648 1.427 . S
N652 C649 1.384 . S
N653 C645 1.427 . S
N653 C651 1.384 . S
H654 C660 0.930 . S
H655 C664 0.930 . S
H656 C669 0.929 . S
H657 C667 0.929 . S
H658 C662 0.929 . S
H659 C668 0.929 . S
C660 H654 0.930 . S
C660 C661 1.367 . S
C660 C668 1.378 . S
C661 C660 1.367 . S
C661 C669 1.433 . S
C662 H658 0.929 . S
C662 C664 1.378 . S
C662 C666 1.350 . S
C663 C666 1.463 . S
C663 C668 1.350 . S
C663 N671 1.427 . S
C664 H655 0.930 . S
C664 C662 1.378 . S
C664 C665 1.367 . S
C665 C664 1.367 . S
C665 C667 1.433 . S
C666 C662 1.350 . S
C666 C663 1.463 . S
C666 N670 1.427 . S
C667 H657 0.929 . S
C667 C665 1.433 . S
C667 N670 1.384 . S
C668 H659 0.929 . S
C668 C660 1.378 . S
C668 C663 1.350 . S
C669 H656 0.929 . S
C669 C661 1.433 . S
C669 N671 1.384 . S
N670 C666 1.427 . S
N670 C667 1.384 . S
N671 C663 1.427 . S
N671 C669 1.384 . S
H672 C678 0.930 . S
H673 C682 0.930 . S
H674 C687 0.929 . S
H675 C685 0.929 . S
H676 C680 0.929 . S
H677 C686 0.929 . S
C678 H672 0.930 . S
C678 C679 1.367 . S
C678 C686 1.378 . S
C679 C678 1.367 . S
C679 C687 1.433 . S
C680 H676 0.929 . S
C680 C682 1.378 . S
C680 C684 1.350 . S
C681 C684 1.463 . S
C681 C686 1.350 . S
C681 N689 1.427 . S
C682 H673 0.930 . S
C682 C680 1.378 . S
C682 C683 1.367 . S
C683 C682 1.367 . S
C683 C685 1.433 . S
C684 C680 1.350 . S
C684 C681 1.463 . S
C684 N688 1.427 . S
C685 H675 0.929 . S
C685 C683 1.433 . S
C685 N688 1.384 . S
C686 H677 0.929 . S
C686 C678 1.378 . S
C686 C681 1.350 . S
C687 H674 0.929 . S
C687 C679 1.433 . S
C687 N689 1.384 . S
N688 C684 1.427 . S
N688 C685 1.384 . S
N689 C681 1.427 . S
N689 C687 1.384 . S
H690 C696 0.930 . S
H691 C700 0.930 . S
H692 C705 0.929 . S
H693 C703 0.929 . S
H694 C698 0.929 . S
H695 C704 0.929 . S
C696 H690 0.930 . S
C696 C697 1.367 . S
C696 C704 1.378 . S
C697 C696 1.367 . S
C697 C705 1.433 . S
C698 H694 0.929 . S
C698 C700 1.378 . S
C698 C702 1.350 . S
C699 C702 1.463 . S
C699 C704 1.350 . S
C699 N707 1.427 . S
C700 H691 0.930 . S
C700 C698 1.378 . S
C700 C701 1.367 . S
C701 C700 1.367 . S
C701 C703 1.433 . S
C702 C698 1.350 . S
C702 C699 1.463 . S
C702 N706 1.427 . S
C703 H693 0.929 . S
C703 C701 1.433 . S
C703 N706 1.384 . S
C704 H695 0.929 . S
C704 C696 1.378 . S
C704 C699 1.350 . S
C705 H692 0.929 . S
C705 C697 1.433 . S
C705 N707 1.384 . S
N706 C702 1.427 . S
N706 C703 1.384 . S
N707 C699 1.427 . S
N707 C705 1.384 . S
H708 C714 0.930 . S
H709 C718 0.930 . S
H710 C723 0.929 . S
H711 C721 0.929 . S
H712 C716 0.929 . S
H713 C722 0.929 . S
C714 H708 0.930 . S
C714 C715 1.367 . S
C714 C722 1.378 . S
C715 C714 1.367 . S
C715 C723 1.433 . S
C716 H712 0.929 . S
C716 C718 1.378 . S
C716 C720 1.350 . S
C717 C720 1.463 . S
C717 C722 1.350 . S
C717 N725 1.427 . S
C718 H709 0.930 . S
C718 C716 1.378 . S
C718 C719 1.367 . S
C719 C718 1.367 . S
C719 C721 1.433 . S
C720 C716 1.350 . S
C720 C717 1.463 . S
C720 N724 1.427 . S
C721 H711 0.929 . S
C721 C719 1.433 . S
C721 N724 1.384 . S
C722 H713 0.929 . S
C722 C714 1.378 . S
C722 C717 1.350 . S
C723 H710 0.929 . S
C723 C715 1.433 . S
C723 N725 1.384 . S
N724 C720 1.427 . S
N724 C721 1.384 . S
N725 C717 1.427 . S
N725 C723 1.384 . S
H726 C732 0.930 . S
H727 C736 0.930 . S
H728 C741 0.929 . S
H729 C739 0.929 . S
H730 C734 0.929 . S
H731 C740 0.929 . S
C732 H726 0.930 . S
C732 C733 1.367 . S
C732 C740 1.378 . S
C733 C732 1.367 . S
C733 C741 1.433 . S
C734 H730 0.929 . S
C734 C736 1.378 . S
C734 C738 1.350 . S
C735 C738 1.463 . S
C735 C740 1.350 . S
C735 N743 1.427 . S
C736 H727 0.930 . S
C736 C734 1.378 . S
C736 C737 1.367 . S
C737 C736 1.367 . S
C737 C739 1.433 . S
C738 C734 1.350 . S
C738 C735 1.463 . S
C738 N742 1.427 . S
C739 H729 0.929 . S
C739 C737 1.433 . S
C739 N742 1.384 . S
C740 H731 0.929 . S
C740 C732 1.378 . S
C740 C735 1.350 . S
C741 H728 0.929 . S
C741 C733 1.433 . S
C741 N743 1.384 . S
N742 C738 1.427 . S
N742 C739 1.384 . S
N743 C735 1.427 . S
N743 C741 1.384 . S
H744 C750 0.930 . S
H745 C754 0.930 . S
H746 C759 0.929 . S
H747 C757 0.929 . S
H748 C752 0.929 . S
H749 C758 0.929 . S
C750 H744 0.930 . S
C750 C751 1.367 . S
C750 C758 1.378 . S
C751 C750 1.367 . S
C751 C759 1.433 . S
C752 H748 0.929 . S
C752 C754 1.378 . S
C752 C756 1.350 . S
C753 C756 1.463 . S
C753 C758 1.350 . S
C753 N761 1.427 . S
C754 H745 0.930 . S
C754 C752 1.378 . S
C754 C755 1.367 . S
C755 C754 1.367 . S
C755 C757 1.433 . S
C756 C752 1.350 . S
C756 C753 1.463 . S
C756 N760 1.427 . S
C757 H747 0.929 . S
C757 C755 1.433 . S
C757 N760 1.384 . S
C758 H749 0.929 . S
C758 C750 1.378 . S
C758 C753 1.350 . S
C759 H746 0.929 . S
C759 C751 1.433 . S
C759 N761 1.384 . S
N760 C756 1.427 . S
N760 C757 1.384 . S
N761 C753 1.427 . S
N761 C759 1.384 . S
H762 C768 0.930 . S
H763 C772 0.930 . S
H764 C777 0.929 . S
H765 C775 0.929 . S
H766 C770 0.929 . S
H767 C776 0.929 . S
C768 H762 0.930 . S
C768 C769 1.367 . S
C768 C776 1.378 . S
C769 C768 1.367 . S
C769 C777 1.433 . S
C770 H766 0.929 . S
C770 C772 1.378 . S
C770 C774 1.350 . S
C771 C774 1.463 . S
C771 C776 1.350 . S
C771 N779 1.427 . S
C772 H763 0.930 . S
C772 C770 1.378 . S
C772 C773 1.367 . S
C773 C772 1.367 . S
C773 C775 1.433 . S
C774 C770 1.350 . S
C774 C771 1.463 . S
C774 N778 1.427 . S
C775 H765 0.929 . S
C775 C773 1.433 . S
C775 N778 1.384 . S
C776 H767 0.929 . S
C776 C768 1.378 . S
C776 C771 1.350 . S
C777 H764 0.929 . S
C777 C769 1.433 . S
C777 N779 1.384 . S
N778 C774 1.427 . S
N778 C775 1.384 . S
N779 C771 1.427 . S
N779 C777 1.384 . S
H780 C786 0.930 . S
H781 C790 0.930 . S
H782 C795 0.929 . S
H783 C793 0.929 . S
H784 C788 0.929 . S
H785 C794 0.929 . S
C786 H780 0.930 . S
C786 C787 1.367 . S
C786 C794 1.378 . S
C787 C786 1.367 . S
C787 C795 1.433 . S
C788 H784 0.929 . S
C788 C790 1.378 . S
C788 C792 1.350 . S
C789 C792 1.463 . S
C789 C794 1.350 . S
C789 N797 1.427 . S
C790 H781 0.930 . S
C790 C788 1.378 . S
C790 C791 1.367 . S
C791 C790 1.367 . S
C791 C793 1.433 . S
C792 C788 1.350 . S
C792 C789 1.463 . S
C792 N796 1.427 . S
C793 H783 0.929 . S
C793 C791 1.433 . S
C793 N796 1.384 . S
C794 H785 0.929 . S
C794 C786 1.378 . S
C794 C789 1.350 . S
C795 H782 0.929 . S
C795 C787 1.433 . S
C795 N797 1.384 . S
N796 C792 1.427 . S
N796 C793 1.384 . S
N797 C789 1.427 . S
N797 C795 1.384 . S
H798 C804 0.930 . S
H799 C808 0.930 . S
H800 C813 0.929 . S
H801 C811 0.929 . S
H802 C806 0.929 . S
H803 C812 0.929 . S
C804 H798 0.930 . S
C804 C805 1.367 . S
C804 C812 1.378 . S
C805 C804 1.367 . S
C805 C813 1.433 . S
C806 H802 0.929 . S
C806 C808 1.378 . S
C806 C810 1.350 . S
C807 C810 1.463 . S
C807 C812 1.350 . S
C807 N815 1.427 . S
C808 H799 0.930 . S
C808 C806 1.378 . S
C808 C809 1.367 . S
C809 C808 1.367 . S
C809 C811 1.433 . S
C810 C806 1.350 . S
C810 C807 1.463 . S
C810 N814 1.427 . S
C811 H801 0.929 . S
C811 C809 1.433 . S
C811 N814 1.384 . S
C812 H803 0.929 . S
C812 C804 1.378 . S
C812 C807 1.350 . S
C813 H800 0.929 . S
C813 C805 1.433 . S
C813 N815 1.384 . S
N814 C810 1.427 . S
N814 C811 1.384 . S
N815 C807 1.427 . S
N815 C813 1.384 . S
H816 C822 0.930 . S
H817 C826 0.930 . S
H818 C831 0.929 . S
H819 C829 0.929 . S
H820 C824 0.929 . S
H821 C830 0.929 . S
C822 H816 0.930 . S
C822 C823 1.367 . S
C822 C830 1.378 . S
C823 C822 1.367 . S
C823 C831 1.433 . S
C824 H820 0.929 . S
C824 C826 1.378 . S
C824 C828 1.350 . S
C825 C828 1.463 . S
C825 C830 1.350 . S
C825 N833 1.427 . S
C826 H817 0.930 . S
C826 C824 1.378 . S
C826 C827 1.367 . S
C827 C826 1.367 . S
C827 C829 1.433 . S
C828 C824 1.350 . S
C828 C825 1.463 . S
C828 N832 1.427 . S
C829 H819 0.929 . S
C829 C827 1.433 . S
C829 N832 1.384 . S
C830 H821 0.929 . S
C830 C822 1.378 . S
C830 C825 1.350 . S
C831 H818 0.929 . S
C831 C823 1.433 . S
C831 N833 1.384 . S
N832 C828 1.427 . S
N832 C829 1.384 . S
N833 C825 1.427 . S
N833 C831 1.384 . S
H834 C840 0.930 . S
H835 C844 0.930 . S
H836 C849 0.929 . S
H837 C847 0.929 . S
H838 C842 0.929 . S
H839 C848 0.929 . S
C840 H834 0.930 . S
C840 C841 1.367 . S
C840 C848 1.378 . S
C841 C840 1.367 . S
C841 C849 1.433 . S
C842 H838 0.929 . S
C842 C844 1.378 . S
C842 C846 1.350 . S
C843 C846 1.463 . S
C843 C848 1.350 . S
C843 N851 1.427 . S
C844 H835 0.930 . S
C844 C842 1.378 . S
C844 C845 1.367 . S
C845 C844 1.367 . S
C845 C847 1.433 . S
C846 C842 1.350 . S
C846 C843 1.463 . S
C846 N850 1.427 . S
C847 H837 0.929 . S
C847 C845 1.433 . S
C847 N850 1.384 . S
C848 H839 0.929 . S
C848 C840 1.378 . S
C848 C843 1.350 . S
C849 H836 0.929 . S
C849 C841 1.433 . S
C849 N851 1.384 . S
N850 C846 1.427 . S
N850 C847 1.384 . S
N851 C843 1.427 . S
N851 C849 1.384 . S
H852 C858 0.930 . S
H853 C862 0.930 . S
H854 C867 0.929 . S
H855 C865 0.929 . S
H856 C860 0.929 . S
H857 C866 0.929 . S
C858 H852 0.930 . S
C858 C859 1.367 . S
C858 C866 1.378 . S
C859 C858 1.367 . S
C859 C867 1.433 . S
C860 H856 0.929 . S
C860 C862 1.378 . S
C860 C864 1.350 . S
C861 C864 1.463 1_655 S
C861 C866 1.350 . S
C861 N869 1.427 . S
C862 H853 0.930 . S
C862 C860 1.378 . S
C862 C863 1.367 . S
C863 C862 1.367 . S
C863 C865 1.433 . S
C864 C860 1.350 . S
C864 C861 1.463 1_455 S
C864 N868 1.427 . S
C865 H855 0.929 . S
C865 C863 1.433 . S
C865 N868 1.384 . S
C866 H857 0.929 . S
C866 C858 1.378 . S
C866 C861 1.350 . S
C867 H854 0.929 . S
C867 C859 1.433 . S
C867 N869 1.384 . S
N868 C864 1.427 . S
N868 C865 1.384 . S
N869 C861 1.427 . S
N869 C867 1.384 . S
H870 C876 0.930 . S
H871 C880 0.930 . S
H872 C885 0.929 . S
H873 C883 0.929 . S
H874 C878 0.929 1_545 S
H875 C884 0.929 . S
C876 H870 0.930 . S
C876 C877 1.367 . S
C876 C884 1.378 . S
C877 C876 1.367 . S
C877 C885 1.433 . S
C878 H874 0.929 1_565 S
C878 C880 1.378 . S
C878 C882 1.350 . S
C879 C882 1.463 1_545 S
C879 C884 1.350 . S
C879 N887 1.427 . S
C880 H871 0.930 . S
C880 C878 1.378 . S
C880 C881 1.367 . S
C881 C880 1.367 . S
C881 C883 1.433 . S
C882 C878 1.350 . S
C882 C879 1.463 1_565 S
C882 N886 1.427 . S
C883 H873 0.929 . S
C883 C881 1.433 . S
C883 N886 1.384 . S
C884 H875 0.929 . S
C884 C876 1.378 . S
C884 C879 1.350 . S
C885 H872 0.929 . S
C885 C877 1.433 . S
C885 N887 1.384 . S
N886 C882 1.427 . S
N886 C883 1.384 . S
N887 C879 1.427 . S
N887 C885 1.384 . S
H888 C894 0.930 . S
H889 C898 0.930 . S
H890 C903 0.929 . S
H891 C901 0.929 . S
H892 C896 0.931 . S
H893 C902 0.929 . S
C894 H888 0.930 . S
C894 C895 1.367 . S
C894 C902 1.378 . S
C895 C894 1.367 . S
C895 C903 1.433 . S
C896 H892 0.931 . S
C896 C898 1.378 . S
C896 C900 1.350 1_655 S
C897 C900 1.463 . S
C897 C902 1.350 . S
C897 N905 1.427 . S
C898 H889 0.930 . S
C898 C896 1.378 . S
C898 C899 1.367 . S
C899 C898 1.367 . S
C899 C901 1.433 . S
C900 C896 1.350 1_455 S
C900 C897 1.463 . S
C900 N904 1.427 . S
C901 H891 0.929 . S
C901 C899 1.433 . S
C901 N904 1.384 1_655 S
C902 H893 0.929 . S
C902 C894 1.378 . S
C902 C897 1.350 . S
C903 H890 0.929 . S
C903 C895 1.433 . S
C903 N905 1.384 . S
N904 C900 1.427 . S
N904 C901 1.384 1_455 S
N905 C897 1.427 . S
N905 C903 1.384 . S
H906 C912 0.930 . S
H907 C916 0.930 . S
H908 C921 0.929 . S
H909 C919 0.929 . S
H910 C914 0.929 1_545 S
H911 C920 0.929 . S
C912 H906 0.930 . S
C912 C913 1.367 1_565 S
C912 C920 1.378 . S
C913 C912 1.367 1_545 S
C913 C921 1.433 . S
C914 H910 0.929 1_565 S
C914 C916 1.378 . S
C914 C918 1.350 . S
C915 C918 1.463 . S
C915 C920 1.350 . S
C915 N923 1.427 1_565 S
C916 H907 0.930 . S
C916 C914 1.378 . S
C916 C917 1.367 . S
C917 C916 1.367 . S
C917 C919 1.433 . S
C918 C914 1.350 . S
C918 C915 1.463 . S
C918 N922 1.427 . S
C919 H909 0.929 . S
C919 C917 1.433 . S
C919 N922 1.384 . S
C920 H911 0.929 . S
C920 C912 1.378 . S
C920 C915 1.350 . S
C921 H908 0.929 . S
C921 C913 1.433 . S
C921 N923 1.384 . S
N922 C918 1.427 . S
N922 C919 1.384 . S
N923 C915 1.427 1_545 S
N923 C921 1.384 . S
H924 C930 0.930 . S
H925 C934 0.930 . S
H926 C939 0.929 . S
H927 C937 0.929 . S
H928 C932 0.929 . S
H929 C938 0.929 . S
C930 H924 0.930 . S
C930 C931 1.367 . S
C930 C938 1.378 . S
C931 C930 1.367 . S
C931 C939 1.433 . S
C932 H928 0.929 . S
C932 C934 1.378 . S
C932 C936 1.350 1_565 S
C933 C936 1.463 . S
C933 C938 1.350 . S
C933 N941 1.427 . S
C934 H925 0.930 . S
C934 C932 1.378 . S
C934 C935 1.367 . S
C935 C934 1.367 . S
C935 C937 1.433 . S
C936 C932 1.350 1_545 S
C936 C933 1.463 . S
C936 N940 1.427 . S
C937 H927 0.929 . S
C937 C935 1.433 . S
C937 N940 1.384 1_565 S
C938 H929 0.929 . S
C938 C930 1.378 . S
C938 C933 1.350 . S
C939 H926 0.929 . S
C939 C931 1.433 . S
C939 N941 1.384 . S
N940 C936 1.427 . S
N940 C937 1.384 1_545 S
N941 C933 1.427 . S
N941 C939 1.384 . S
H942 C948 0.930 . S
H943 C952 0.930 . S
H944 C957 0.929 . S
H945 C955 0.929 . S
H946 C950 0.929 . S
H947 C956 0.929 . S
C948 H942 0.930 . S
C948 C949 1.367 . S
C948 C956 1.378 . S
C949 C948 1.367 . S
C949 C957 1.433 . S
C950 H946 0.929 . S
C950 C952 1.378 . S
C950 C954 1.350 . S
C951 C954 1.463 1_455 S
C951 C956 1.350 . S
C951 N959 1.427 . S
C952 H943 0.930 . S
C952 C950 1.378 . S
C952 C953 1.367 . S
C953 C952 1.367 . S
C953 C955 1.433 . S
C954 C950 1.350 . S
C954 C951 1.463 1_655 S
C954 N958 1.427 . S
C955 H945 0.929 . S
C955 C953 1.433 . S
C955 N958 1.384 . S
C956 H947 0.929 . S
C956 C948 1.378 . S
C956 C951 1.350 . S
C957 H944 0.929 . S
C957 C949 1.433 . S
C957 N959 1.384 . S
N958 C954 1.427 . S
N958 C955 1.384 . S
N959 C951 1.427 . S
N959 C957 1.384 . S
H960 C966 0.930 . S
H961 C970 0.930 . S
H962 C975 0.929 . S
H963 C973 0.929 . S
H964 C968 0.929 . S
H965 C974 0.929 . S
C966 H960 0.930 . S
C966 C967 1.367 . S
C966 C974 1.378 . S
C967 C966 1.367 . S
C967 C975 1.433 1_545 S
C968 H964 0.929 . S
C968 C970 1.378 . S
C968 C972 1.350 . S
C969 C972 1.463 . S
C969 C974 1.350 1_565 S
C969 N977 1.427 . S
C970 H961 0.930 . S
C970 C968 1.378 . S
C970 C971 1.367 . S
C971 C970 1.367 . S
C971 C973 1.433 . S
C972 C968 1.350 . S
C972 C969 1.463 . S
C972 N976 1.427 . S
C973 H963 0.929 . S
C973 C971 1.433 . S
C973 N976 1.384 . S
C974 H965 0.929 . S
C974 C966 1.378 . S
C974 C969 1.350 1_545 S
C975 H962 0.929 . S
C975 C967 1.433 1_565 S
C975 N977 1.384 . S
N976 C972 1.427 . S
N976 C973 1.384 . S
N977 C969 1.427 . S
N977 C975 1.384 . S
H978 C984 0.930 . S
H979 C988 0.930 . S
H980 C993 0.929 1_455 S
H981 C991 0.929 . S
H982 C986 0.929 . S
H983 C992 0.929 . S
C984 H978 0.930 . S
C984 C985 1.367 . S
C984 C992 1.378 . S
C985 C984 1.367 . S
C985 C993 1.433 . S
C986 H982 0.929 . S
C986 C988 1.378 . S
C986 C990 1.375 . S
C987 C990 1.451 1_655 S
C987 C992 1.350 . S
C987 N995 1.427 1_655 S
C988 H979 0.930 . S
C988 C986 1.378 . S
C988 C989 1.367 . S
C989 C988 1.367 . S
C989 C991 1.433 1_455 S
C990 C986 1.375 . S
C990 C987 1.451 1_455 S
C990 N994 1.412 1_455 S
C991 H981 0.929 . S
C991 C989 1.433 1_655 S
C991 N994 1.384 . S
C992 H983 0.929 . S
C992 C984 1.378 . S
C992 C987 1.350 . S
C993 H980 0.929 1_655 S
C993 C985 1.433 . S
C993 N995 1.384 1_655 S
N994 C990 1.412 1_655 S
N994 C991 1.384 . S
N995 C987 1.427 1_455 S
N995 C993 1.384 1_455 S
H996 C1002 0.930 1_556 S
H997 C1006 0.930 . S
H998 C1011 0.929 . S
H999 C1009 0.929 . S
H1000 C1004 0.929 . S
H1001 C1010 0.929 . S
C1002 H996 0.930 1_554 S
C1002 C1003 1.367 . S
C1002 C1010 1.378 1_554 S
C1003 C1002 1.367 . S
C1003 C1011 1.433 . S
C1004 H1000 0.929 . S
C1004 C1006 1.378 . S
C1004 C1008 1.350 1_554 S
C1005 C1008 1.463 1_554 S
C1005 C1010 1.350 1_554 S
C1005 N1013 1.427 . S
C1006 H997 0.930 . S
C1006 C1004 1.378 . S
C1006 C1007 1.367 1_554 S
C1007 C1006 1.367 1_556 S
C1007 C1009 1.433 . S
C1008 C1004 1.350 1_556 S
C1008 C1005 1.463 1_556 S
C1008 N1012 1.427 . S
C1009 H999 0.929 . S
C1009 C1007 1.433 . S
C1009 N1012 1.384 . S
C1010 H1001 0.929 . S
C1010 C1002 1.378 1_556 S
C1010 C1005 1.350 1_556 S
C1011 H998 0.929 . S
C1011 C1003 1.433 . S
C1011 N1013 1.384 . S
N1012 C1008 1.427 . S
N1012 C1009 1.384 . S
N1013 C1005 1.427 . S
N1013 C1011 1.384 . S
H1014 C1020 0.930 . S
H1015 C1024 0.930 . S
H1016 C1029 0.929 . S
H1017 C1027 0.929 . S
H1018 C1022 0.929 . S
H1019 C1028 0.925 1_554 S
C1020 H1014 0.930 . S
C1020 C1021 1.367 . S
C1020 C1028 1.388 . S
C1021 C1020 1.367 . S
C1021 C1029 1.433 . S
C1022 H1018 0.929 . S
C1022 C1024 1.378 . S
C1022 C1026 1.350 . S
C1023 C1026 1.463 . S
C1023 C1028 1.344 1_554 S
C1023 N1031 1.427 1_554 S
C1024 H1015 0.930 . S
C1024 C1022 1.378 . S
C1024 C1025 1.367 . S
C1025 C1024 1.367 . S
C1025 C1027 1.433 . S
C1026 C1022 1.350 . S
C1026 C1023 1.463 . S
C1026 N1030 1.427 . S
C1027 H1017 0.929 . S
C1027 C1025 1.433 . S
C1027 N1030 1.384 . S
C1028 H1019 0.925 1_556 S
C1028 C1020 1.388 . S
C1028 C1023 1.344 1_556 S
C1029 H1016 0.929 . S
C1029 C1021 1.433 . S
C1029 N1031 1.384 . S
N1030 C1026 1.427 . S
N1030 C1027 1.384 . S
N1031 C1023 1.427 1_556 S
N1031 C1029 1.384 . S
H1032 C1038 0.930 . S
H1033 C1042 0.930 . S
H1034 C1047 0.929 1_554 S
H1035 C1045 0.929 . S
H1036 C1040 0.929 . S
H1037 C1046 0.929 . S
C1038 H1032 0.930 . S
C1038 C1039 1.367 . S
C1038 C1046 1.378 . S
C1039 C1038 1.367 . S
C1039 C1047 1.433 . S
C1040 H1036 0.929 . S
C1040 C1042 1.378 . S
C1040 C1044 1.350 . S
C1041 C1044 1.463 1_556 S
C1041 C1046 1.350 . S
C1041 N1049 1.427 1_556 S
C1042 H1033 0.930 . S
C1042 C1040 1.378 . S
C1042 C1043 1.367 . S
C1043 C1042 1.367 . S
C1043 C1045 1.433 . S
C1044 C1040 1.350 . S
C1044 C1041 1.463 1_554 S
C1044 N1048 1.427 1_554 S
C1045 H1035 0.929 . S
C1045 C1043 1.433 . S
C1045 N1048 1.384 1_554 S
C1046 H1037 0.929 . S
C1046 C1038 1.378 . S
C1046 C1041 1.350 . S
C1047 H1034 0.929 1_556 S
C1047 C1039 1.433 . S
C1047 N1049 1.384 1_556 S
N1048 C1044 1.427 1_556 S
N1048 C1045 1.384 1_556 S
N1049 C1041 1.427 1_554 S
N1049 C1047 1.384 1_554 S
H1050 C1056 0.930 . S
H1051 C1060 0.930 . S
H1052 C1065 0.929 . S
H1053 C1063 0.929 . S
H1054 C1058 0.929 . S
H1055 C1064 0.929 . S
C1056 H1050 0.930 . S
C1056 C1057 1.367 1_556 S
C1056 C1064 1.378 . S
C1057 C1056 1.367 1_554 S
C1057 C1065 1.433 . S
C1058 H1054 0.929 . S
C1058 C1060 1.378 . S
C1058 C1062 1.350 . S
C1059 C1062 1.463 . S
C1059 C1064 1.350 . S
C1059 N1067 1.427 1_556 S
C1060 H1051 0.930 . S
C1060 C1058 1.378 . S
C1060 C1061 1.367 . S
C1061 C1060 1.367 . S
C1061 C1063 1.433 . S
C1062 C1058 1.350 . S
C1062 C1059 1.463 . S
C1062 N1066 1.427 . S
C1063 H1053 0.929 . S
C1063 C1061 1.433 . S
C1063 N1066 1.384 . S
C1064 H1055 0.929 . S
C1064 C1056 1.378 . S
C1064 C1059 1.350 . S
C1065 H1052 0.929 . S
C1065 C1057 1.433 . S
C1065 N1067 1.384 . S
N1066 C1062 1.427 . S
N1066 C1063 1.384 . S
N1067 C1059 1.427 1_554 S
N1067 C1065 1.384 . S
C643 C22 1.395 . S
C647 C409 1.401 . S
C661 C91 1.406 . S
C665 C241 1.399 . S
C679 C287 1.472 . S
C683 C145 1.467 . S
C697 C347 1.240 . S
C701 C188 1.243 . S
C715 C462 1.430 . S
C719 C400 1.423 . S
C733 C506 1.458 . S
C737 C250 1.460 . S
C751 C569 1.651 . S
C755 C304 1.651 . S
C769 C622 1.630 . S
C773 C356 1.625 . S
C787 C82 1.381 . S
C791 C515 1.394 . S
C805 C552 1.147 . S
C809 C128 1.149 . S
C823 C197 1.405 . S
C827 C605 1.414 . S
C841 C453 1.420 . S
C845 C39 1.420 . S
C859 C357 1.790 . S
C863 C38 1.794 . S
C877 C393 1.465 . S
C881 C75 1.466 . S
C895 C251 1.695 . S
C899 C135 1.701 . S
C913 C198 1.699 . S
C917 C303 1.692 . S
C931 C410 1.731 . S
C935 C294 1.733 . S
C949 C234 1.583 . S
C953 C340 1.582 . S
C967 C181 1.692 . S
C971 C92 1.692 . S
C985 C144 1.638 . S
C989 C29 1.637 . S
C1003 C463 1.767 . S
C1007 C516 1.767 . S
C1021 C499 1.492 . S
C1025 C559 1.490 . S
C1039 C612 1.606 . S
C1043 C568 1.606 . S
C1057 C446 1.597 . S
C1061 C621 1.596 . S
