# Generated by pormake.
# Topology bcu, (8)-cn, num edge types: 1
# Building blocks:
#     Node 0, Type 0, BuildingBlock: VETTIZ_charged_sbu_0, # of connection points: 8
#     Node 1, Type 0, BuildingBlock: VETTIZ_charged_sbu_0, # of connection points: 8
#     Edge 2, Type (0, 0), BuildingBlock: FUNLAD_clean_linker_1, # of connection points: 2
#     Edge 3, Type (0, 0), BuildingBlock: FUNLAD_clean_linker_1, # of connection points: 2
#     Edge 4, Type (0, 0), BuildingBlock: FUNLAD_clean_linker_1, # of connection points: 2
#     Edge 5, Type (0, 0), BuildingBlock: FUNLAD_clean_linker_1, # of connection points: 2
#     Edge 6, Type (0, 0), BuildingBlock: FUNLAD_clean_linker_1, # of connection points: 2
#     Edge 7, Type (0, 0), BuildingBlock: FUNLAD_clean_linker_1, # of connection points: 2
#     Edge 8, Type (0, 0), BuildingBlock: FUNLAD_clean_linker_1, # of connection points: 2
#     Edge 9, Type (0, 0), BuildingBlock: FUNLAD_clean_linker_1, # of connection points: 2
# Relax obj value: 0.000
# Max RMSD: 0.009
# Mean RMSD: 0.009
data_MOF--net-bcu--node1-VETTIZ_charged_sbu_0--edge1-FUNLAD_clean_linker_1
_symmetry_space_group_name_H-M    P1
_symmetry_Int_Tables_number       1
_symmetry_cell_setting            triclinic
loop_
_symmetry_equiv_pos_as_xyz
'x, y, z'
_cell_length_a     20.021095
_cell_length_b     20.876254
_cell_length_c     20.266446
_cell_angle_alpha  89.762336
_cell_angle_beta   92.132874
_cell_angle_gamma 89.560826
loop_
_atom_site_label
_atom_site_type_symbol
_atom_site_fract_x
_atom_site_fract_y
_atom_site_fract_z
_atom_type_partial_charge
Fe0 Fe 0.02333 0.9304 0.02347 0.0
O1 O 0.98197 1.00267 0.07221 0.0
Fe2 Fe 0.05081 1.00017 0.87052 0.0
Fe3 Fe 0.98691 0.00885 0.16858 0.0
O4 O 0.05869 1.00082 0.96764 0.0
O5 O 0.05774 0.00751 0.96703 0.0
O6 O 0.98143 0.00932 0.07182 0.0
Fe7 Fe 1.01739 0.07974 0.01674 0.0
C8 C 0.93175 0.87904 0.13131 0.0
O9 O 0.1089 0.93113 0.08389 0.0
O10 O 0.06104 0.93941 0.18092 0.0
O11 O 0.0627 0.14387 0.95127 0.0
O12 O 0.11401 0.07838 0.87635 0.0
O13 O 0.1207 0.92918 0.88503 0.0
O14 O 0.07403 0.86473 0.96388 0.0
O15 O 0.05914 0.07768 0.17504 0.0
O16 O 0.10297 0.08536 0.07563 0.0
C17 C 0.11662 0.87598 0.91805 0.0
O18 O 0.93143 0.07858 0.9582 0.0
O19 O 0.97457 0.06572 0.85925 0.0
O20 O 0.97713 0.86678 0.0884 0.0
O21 O 0.92198 0.93425 0.15884 0.0
C22 C 0.10933 0.92148 0.14601 0.0
C23 C 0.1065 0.09263 0.13789 0.0
C24 C 0.92588 0.13707 0.12348 0.0
O25 O 0.91911 0.08351 0.15542 0.0
O26 O 0.96829 0.1463 0.07702 0.0
C27 C 0.10496 0.13335 0.90488 0.0
O28 O 0.98032 0.92705 0.86491 0.0
O29 O 0.93787 0.92314 0.96466 0.0
C30 C 0.92702 0.0821 0.89564 0.0
C31 C 0.93486 0.90982 0.90359 0.0
Fe32 Fe 0.51929 0.59079 0.51798 0.0
O33 O 0.45637 0.51725 0.52515 0.0
Fe34 Fe 0.67436 0.50592 0.53292 0.0
Fe35 Fe 0.36122 0.51378 0.50272 0.0
O36 O 0.57949 0.51436 0.51123 0.0
O37 O 0.578 0.50448 0.53673 0.0
O38 O 0.45737 0.50779 0.49965 0.0
Fe39 Fe 0.51632 0.43179 0.51729 0.0
C40 C 0.39349 0.64557 0.56976 0.0
O41 O 0.48186 0.5969 0.41863 0.0
O42 O 0.37043 0.57474 0.42284 0.0
O43 O 0.56266 0.42755 0.42516 0.0
O44 O 0.67274 0.4483 0.45029 0.0
O45 O 0.67819 0.58699 0.47508 0.0
O46 O 0.59215 0.65537 0.49502 0.0
O47 O 0.36398 0.43285 0.44345 0.0
O48 O 0.44678 0.36686 0.48389 0.0
C49 C 0.64796 0.6414 0.46893 0.0
O50 O 0.58358 0.36264 0.54917 0.0
O51 O 0.66873 0.42374 0.5905 0.0
O52 O 0.44822 0.6584 0.54125 0.0
O53 O 0.36091 0.59305 0.56254 0.0
C54 C 0.42072 0.60053 0.39513 0.0
C55 C 0.39392 0.37806 0.44791 0.0
C56 C 0.40642 0.42784 0.62196 0.0
O57 O 0.3603 0.45366 0.58407 0.0
O58 O 0.46947 0.42698 0.60914 0.0
C59 C 0.62552 0.42632 0.41179 0.0
O60 O 0.66764 0.56558 0.61338 0.0
O61 O 0.55771 0.59582 0.61692 0.0
C62 C 0.63698 0.37046 0.58509 0.0
C63 C 0.61911 0.59575 0.64011 0.0
H64 H 0.18892 0.16221 0.13694 0.0
C65 C 0.16291 0.12832 0.16752 0.0
H66 H 0.15022 0.09103 0.26297 0.0
H67 H 0.41251 0.28923 0.29116 0.0
H68 H 0.4701 0.21658 0.219 0.0
H69 H 0.4123 0.12297 0.17048 0.0
H70 H 0.29611 0.10228 0.19283 0.0
C71 C 0.17652 0.12513 0.23285 0.0
C72 C 0.21462 0.17625 0.26757 0.0
C73 C 0.28322 0.18586 0.25613 0.0
C74 C 0.31733 0.2381 0.28648 0.0
C75 C 0.38481 0.24894 0.27135 0.0
C76 C 0.41839 0.20778 0.22971 0.0
C77 C 0.38579 0.1552 0.20222 0.0
C78 C 0.31899 0.1441 0.21512 0.0
H79 H 0.38358 0.27606 0.42137 0.0
C80 C 0.36555 0.32425 0.40993 0.0
H81 H 0.29852 0.38112 0.35139 0.0
H82 H 0.0823 0.17156 0.29981 0.0
H83 H 0.027 0.24033 0.37683 0.0
H84 H 0.08837 0.3264 0.43516 0.0
H85 H 0.2053 0.34491 0.41563 0.0
C86 C 0.31776 0.33333 0.36261 0.0
C87 C 0.28335 0.27854 0.33045 0.0
C88 C 0.21541 0.26754 0.34365 0.0
C89 C 0.18072 0.21675 0.31161 0.0
C90 C 0.11199 0.20833 0.3239 0.0
C91 C 0.07934 0.24766 0.36794 0.0
C92 C 0.11383 0.29623 0.4006 0.0
C93 C 0.18099 0.30638 0.38875 0.0
H94 H 0.89868 0.24034 0.12841 0.0
C95 C 0.8856 0.1927 0.14516 0.0
H96 H 0.82447 0.1382 0.20646 0.0
H97 H 0.7773 0.33706 0.42714 0.0
H98 H 0.85855 0.26637 0.48149 0.0
H99 H 0.91765 0.18393 0.41872 0.0
H100 H 0.89571 0.17166 0.30112 0.0
C101 C 0.83677 0.18571 0.18871 0.0
C102 C 0.80594 0.24077 0.22354 0.0
C103 C 0.82046 0.24845 0.2921 0.0
C104 C 0.78741 0.29692 0.32802 0.0
C105 C 0.80183 0.30211 0.39688 0.0
C106 C 0.84824 0.2616 0.42893 0.0
C107 C 0.88138 0.21511 0.39363 0.0
C108 C 0.86801 0.20845 0.32609 0.0
H109 H 0.61144 0.35615 0.3306 0.0
C110 C 0.64621 0.39024 0.35285 0.0
H111 H 0.74484 0.42503 0.35686 0.0
H112 H 0.76386 0.2373 0.09369 0.0
H113 H 0.68383 0.30947 0.03866 0.0
H114 H 0.63015 0.39648 0.09998 0.0
H115 H 0.65545 0.41143 0.21707 0.0
C116 C 0.71005 0.39146 0.33372 0.0
C117 C 0.74038 0.33853 0.2953 0.0
C118 C 0.72618 0.33127 0.22667 0.0
C119 C 0.75853 0.28195 0.19085 0.0
C120 C 0.74182 0.27463 0.12288 0.0
C121 C 0.69587 0.31564 0.09075 0.0
C122 C 0.66554 0.36459 0.12533 0.0
C123 C 0.68037 0.37259 0.1925 0.0
H124 H 0.91178 0.77706 0.15311 0.0
C125 C 0.89274 0.82573 0.15707 0.0
H126 H 0.81911 0.88669 0.1962 0.0
H127 H 0.62848 0.67141 0.29452 0.0
H128 H 0.56948 0.69736 0.19095 0.0
H129 H 0.62112 0.76644 0.10817 0.0
H130 H 0.73227 0.8098 0.12857 0.0
C131 C 0.83968 0.83845 0.19371 0.0
C132 C 0.81236 0.79118 0.23945 0.0
C133 C 0.74755 0.76657 0.22666 0.0
C134 C 0.7178 0.72715 0.27436 0.0
C135 C 0.65323 0.70225 0.26021 0.0
C136 C 0.61886 0.71664 0.20088 0.0
C137 C 0.64792 0.75555 0.15429 0.0
C138 C 0.71159 0.78028 0.16669 0.0
H139 H 0.65686 0.7366 0.42121 0.0
C140 C 0.67689 0.68808 0.42391 0.0
H141 H 0.74462 0.62082 0.38453 0.0
H142 H 0.93626 0.83496 0.28179 0.0
H143 H 0.99473 0.80881 0.38506 0.0
H144 H 0.94382 0.73798 0.46664 0.0
H145 H 0.83365 0.6934 0.44523 0.0
C146 C 0.72441 0.66929 0.38285 0.0
C147 C 0.75312 0.71308 0.3346 0.0
C148 C 0.81811 0.73724 0.34728 0.0
C149 C 0.84768 0.77706 0.29988 0.0
C150 C 0.91168 0.80304 0.31506 0.0
C151 C 0.94583 0.78869 0.3745 0.0
C152 C 0.91719 0.74886 0.42042 0.0
C153 C 0.854 0.72345 0.40737 0.0
H154 H 0.16052 0.87704 0.23287 0.0
C155 C 0.16341 0.88304 0.17972 0.0
H156 H 0.21317 0.85354 0.09495 0.0
H157 H 0.39618 0.76439 0.36922 0.0
H158 H 0.41113 0.87785 0.38862 0.0
H159 H 0.35803 0.9582 0.31361 0.0
H160 H 0.2884 0.92536 0.21929 0.0
C161 C 0.21125 0.85055 0.14838 0.0
C162 C 0.25574 0.8029 0.18504 0.0
C163 C 0.29915 0.82245 0.23813 0.0
C164 C 0.33206 0.77584 0.27998 0.0
C165 C 0.37142 0.79727 0.33488 0.0
C166 C 0.38037 0.86241 0.34668 0.0
C167 C 0.35033 0.90767 0.30455 0.0
C168 C 0.31014 0.8882 0.25088 0.0
H169 H 0.44754 0.66321 0.3108 0.0
C170 C 0.40612 0.64221 0.33621 0.0
H171 H 0.30127 0.6392 0.34434 0.0
H172 H 0.18425 0.74815 0.0823 0.0
H173 H 0.17629 0.63492 0.05797 0.0
H174 H 0.23622 0.55477 0.12814 0.0
H175 H 0.3046 0.58756 0.22346 0.0
C176 C 0.34271 0.66035 0.3191 0.0
C177 C 0.32357 0.70942 0.26735 0.0
C178 C 0.2853 0.69023 0.21062 0.0
C179 C 0.25137 0.73674 0.16956 0.0
C180 C 0.21171 0.71531 0.11478 0.0
C181 C 0.2066 0.65033 0.10024 0.0
C182 C 0.24027 0.60518 0.1398 0.0
C183 C 0.27908 0.62459 0.19446 0.0
H184 H 0.14985 0.77448 0.91224 0.0
C185 C 0.15977 0.82316 0.89635 0.0
H186 H 0.21686 0.88324 0.8361 0.0
H187 H 0.43978 0.70886 0.73677 0.0
H188 H 0.50317 0.7708 0.81794 0.0
H189 H 0.44589 0.83844 0.89825 0.0
H190 H 0.32459 0.84465 0.89745 0.0
C191 C 0.20488 0.83446 0.85012 0.0
C192 C 0.23755 0.78379 0.81181 0.0
C193 C 0.30833 0.78029 0.81341 0.0
C194 C 0.34137 0.74156 0.76719 0.0
C195 C 0.41212 0.73844 0.77008 0.0
C196 C 0.44915 0.77346 0.81673 0.0
C197 C 0.41688 0.8116 0.86186 0.0
C198 C 0.3473 0.81502 0.86061 0.0
H199 H 0.37849 0.74093 0.61568 0.0
C200 C 0.36903 0.68991 0.6197 0.0
H201 H 0.32877 0.61456 0.67568 0.0
H202 H 0.10002 0.78167 0.79204 0.0
H203 H 0.03771 0.71711 0.71361 0.0
H204 H 0.09539 0.64634 0.63664 0.0
H205 H 0.21624 0.64041 0.6379 0.0
C206 C 0.33652 0.66589 0.67116 0.0
C207 C 0.30331 0.70656 0.71967 0.0
C208 C 0.23253 0.70761 0.71985 0.0
C209 C 0.19937 0.74719 0.76526 0.0
C210 C 0.1285 0.75075 0.76099 0.0
C211 C 0.09174 0.71424 0.71545 0.0
C212 C 0.12419 0.67443 0.67216 0.0
C213 C 0.1937 0.67131 0.67371 0.0
H214 H 0.41888 0.35504 0.70173 0.0
C215 C 0.38413 0.38957 0.67903 0.0
H216 H 0.28458 0.42338 0.67203 0.0
H217 H 0.13605 0.16937 0.7222 0.0
H218 H 0.11664 0.18375 0.60434 0.0
H219 H 0.17619 0.26705 0.54372 0.0
H220 H 0.25537 0.33655 0.60047 0.0
C221 C 0.31947 0.38961 0.6958 0.0
C222 C 0.28914 0.33582 0.73297 0.0
C223 C 0.24344 0.29479 0.69888 0.0
C224 C 0.21016 0.24576 0.73359 0.0
C225 C 0.16386 0.20651 0.69822 0.0
C226 C 0.15194 0.21439 0.63052 0.0
C227 C 0.18534 0.26137 0.59641 0.0
C228 C 0.23054 0.30118 0.62983 0.0
H229 H 0.13002 0.23656 0.89692 0.0
C230 C 0.14328 0.18881 0.88043 0.0
H231 H 0.20406 0.13414 0.81859 0.0
H232 H 0.37102 0.40738 0.81382 0.0
H233 H 0.39418 0.39013 0.93106 0.0
H234 H 0.34083 0.30176 0.99018 0.0
H235 H 0.26322 0.23061 0.93279 0.0
C236 C 0.19161 0.18166 0.8363 0.0
C237 C 0.22312 0.23687 0.80236 0.0
C238 C 0.26946 0.27731 0.83636 0.0
C239 C 0.30189 0.32728 0.80177 0.0
C240 C 0.34626 0.36799 0.83735 0.0
C241 C 0.35985 0.3587 0.90465 0.0
C242 C 0.3297 0.30899 0.93798 0.0
C243 C 0.28505 0.2686 0.90449 0.0
H244 H 0.84234 0.15035 0.8936 0.0
C245 C 0.86942 0.11594 0.86439 0.0
H246 H 0.8835 0.07665 0.77028 0.0
H247 H 0.61754 0.27519 0.73881 0.0
H248 H 0.56121 0.20297 0.81209 0.0
H249 H 0.62035 0.10926 0.86146 0.0
H250 H 0.73668 0.08801 0.83876 0.0
C251 C 0.85612 0.11113 0.79915 0.0
C252 C 0.81689 0.16139 0.7628 0.0
C253 C 0.7482 0.1713 0.77433 0.0
C254 C 0.71335 0.22369 0.74361 0.0
C255 C 0.64583 0.23486 0.75895 0.0
C256 C 0.61296 0.19393 0.80122 0.0
C257 C 0.64632 0.14129 0.82919 0.0
C258 C 0.71316 0.12985 0.81607 0.0
H259 H 0.64499 0.26725 0.60923 0.0
C260 C 0.66411 0.31446 0.62169 0.0
H261 H 0.73268 0.36746 0.68091 0.0
H262 H 0.94894 0.15569 0.72948 0.0
H263 H 1.00306 0.22409 0.65151 0.0
H264 H 0.94049 0.31051 0.59272 0.0
H265 H 0.82347 0.32965 0.6127 0.0
C266 C 0.71251 0.32059 0.66879 0.0
C267 C 0.74675 0.26411 0.69932 0.0
C268 C 0.81461 0.25243 0.68556 0.0
C269 C 0.85001 0.20144 0.71788 0.0
C270 C 0.91873 0.19261 0.70524 0.0
C271 C 0.9507 0.23175 0.66063 0.0
C272 C 0.91554 0.2805 0.62771 0.0
C273 C 0.84836 0.29102 0.63984 0.0
H274 H 0.60557 0.68462 0.69774 0.0
C275 C 0.63829 0.64341 0.69198 0.0
H276 H 0.73296 0.60256 0.71279 0.0
H277 H 0.92629 0.82762 0.71921 0.0
H278 H 0.955 0.77233 0.61971 0.0
H279 H 0.88293 0.68727 0.5733 0.0
H280 H 0.78227 0.65627 0.62691 0.0
C281 C 0.70086 0.64407 0.71964 0.0
C282 C 0.73568 0.70405 0.74254 0.0
C283 C 0.79308 0.72421 0.70895 0.0
C284 C 0.833 0.77562 0.73402 0.0
C285 C 0.89232 0.79107 0.70137 0.0
C286 C 0.90983 0.75937 0.64415 0.0
C287 C 0.86943 0.71134 0.61816 0.0
C288 C 0.81189 0.69372 0.64991 0.0
H289 H 0.86507 0.82964 0.91551 0.0
C290 C 0.88243 0.86441 0.8801 0.0
H291 H 0.87527 0.89848 0.78266 0.0
H292 H 0.63065 0.678 0.82047 0.0
H293 H 0.59375 0.74141 0.91254 0.0
H294 H 0.65327 0.83967 0.94612 0.0
H295 H 0.7516 0.87383 0.88967 0.0
C296 C 0.85793 0.86293 0.81725 0.0
C297 C 0.81381 0.80983 0.79093 0.0
C298 C 0.75316 0.79307 0.8212 0.0
C299 C 0.7157 0.73874 0.79866 0.0
C300 C 0.65907 0.72019 0.83358 0.0
C301 C 0.63748 0.75605 0.88666 0.0
C302 C 0.6712 0.81123 0.90579 0.0
C303 C 0.72816 0.82988 0.87347 0.0
loop_
_geom_bond_atom_site_label_1
_geom_bond_atom_site_label_2
_geom_bond_distance
_geom_bond_site_symmetry_2
_ccdc_geom_bond_type
Fe0 O1 1.886 . S
Fe0 O4 1.715 1_554 S
Fe0 O9 2.077 . S
Fe0 O14 1.935 1_554 S
Fe0 O20 2.077 1_455 S
Fe0 O29 1.935 1_454 S
O1 Fe0 1.886 . S
O1 Fe3 1.715 1_565 S
Fe2 O4 1.886 . S
Fe2 O5 1.715 1_565 S
Fe2 O12 1.935 1_565 S
Fe2 O13 2.077 . S
Fe2 O19 1.935 1_465 S
Fe2 O28 2.077 1_455 S
Fe3 O1 1.715 1_545 S
Fe3 O6 1.886 . S
Fe3 O10 1.935 1_545 S
Fe3 O15 2.077 . S
Fe3 O21 1.935 1_445 S
Fe3 O25 2.077 1_455 S
O4 Fe0 1.715 1_556 S
O4 Fe2 1.886 . S
O5 Fe2 1.715 1_545 S
O5 Fe7 1.886 . S
O6 Fe3 1.886 . S
O6 Fe7 1.715 1_554 S
Fe7 O5 1.886 . S
Fe7 O6 1.715 1_556 S
Fe7 O11 2.077 . S
Fe7 O16 1.935 1_556 S
Fe7 O18 2.077 1_455 S
Fe7 O26 1.935 1_456 S
C8 O20 1.381 . S
C8 O21 1.421 . S
O9 Fe0 2.077 . S
O9 C22 1.381 . S
O10 Fe3 1.935 1_565 S
O10 C22 1.421 . S
O11 Fe7 2.077 . S
O11 C27 1.381 . S
O12 Fe2 1.935 1_545 S
O12 C27 1.421 . S
O13 Fe2 2.077 . S
O13 C17 1.381 . S
O14 Fe0 1.935 1_556 S
O14 C17 1.421 . S
O15 Fe3 2.077 . S
O15 C23 1.381 . S
O16 Fe7 1.935 1_554 S
O16 C23 1.421 . S
C17 O13 1.381 . S
C17 O14 1.421 . S
O18 Fe7 2.077 1_655 S
O18 C30 1.381 . S
O19 Fe2 1.935 1_645 S
O19 C30 1.421 . S
O20 Fe0 2.077 1_655 S
O20 C8 1.381 . S
O21 Fe3 1.935 1_665 S
O21 C8 1.421 . S
C22 O9 1.381 . S
C22 O10 1.421 . S
C23 O15 1.381 . S
C23 O16 1.421 . S
C24 O25 1.381 . S
C24 O26 1.421 . S
O25 Fe3 2.077 1_655 S
O25 C24 1.381 . S
O26 Fe7 1.935 1_654 S
O26 C24 1.421 . S
C27 O11 1.381 . S
C27 O12 1.421 . S
O28 Fe2 2.077 1_655 S
O28 C31 1.381 . S
O29 Fe0 1.935 1_656 S
O29 C31 1.421 . S
C30 O18 1.381 . S
C30 O19 1.421 . S
C31 O28 1.381 . S
C31 O29 1.421 . S
Fe32 O33 1.886 . S
Fe32 O36 1.715 . S
Fe32 O41 2.077 . S
Fe32 O46 1.935 . S
Fe32 O52 2.077 . S
Fe32 O61 1.935 . S
O33 Fe32 1.886 . S
O33 Fe35 1.715 . S
Fe34 O36 1.886 . S
Fe34 O37 1.715 . S
Fe34 O44 1.935 . S
Fe34 O45 2.077 . S
Fe34 O51 1.935 . S
Fe34 O60 2.077 . S
Fe35 O33 1.715 . S
Fe35 O38 1.886 . S
Fe35 O42 1.935 . S
Fe35 O47 2.077 . S
Fe35 O53 1.935 . S
Fe35 O57 2.077 . S
O36 Fe32 1.715 . S
O36 Fe34 1.886 . S
O37 Fe34 1.715 . S
O37 Fe39 1.886 . S
O38 Fe35 1.886 . S
O38 Fe39 1.715 . S
Fe39 O37 1.886 . S
Fe39 O38 1.715 . S
Fe39 O43 2.077 . S
Fe39 O48 1.935 . S
Fe39 O50 2.077 . S
Fe39 O58 1.935 . S
C40 O52 1.381 . S
C40 O53 1.421 . S
O41 Fe32 2.077 . S
O41 C54 1.381 . S
O42 Fe35 1.935 . S
O42 C54 1.421 . S
O43 Fe39 2.077 . S
O43 C59 1.381 . S
O44 Fe34 1.935 . S
O44 C59 1.421 . S
O45 Fe34 2.077 . S
O45 C49 1.381 . S
O46 Fe32 1.935 . S
O46 C49 1.421 . S
O47 Fe35 2.077 . S
O47 C55 1.381 . S
O48 Fe39 1.935 . S
O48 C55 1.421 . S
C49 O45 1.381 . S
C49 O46 1.421 . S
O50 Fe39 2.077 . S
O50 C62 1.381 . S
O51 Fe34 1.935 . S
O51 C62 1.421 . S
O52 Fe32 2.077 . S
O52 C40 1.381 . S
O53 Fe35 1.935 . S
O53 C40 1.421 . S
C54 O41 1.381 . S
C54 O42 1.421 . S
C55 O47 1.381 . S
C55 O48 1.421 . S
C56 O57 1.381 . S
C56 O58 1.421 . S
O57 Fe35 2.077 . S
O57 C56 1.381 . S
O58 Fe39 1.935 . S
O58 C56 1.421 . S
C59 O43 1.381 . S
C59 O44 1.421 . S
O60 Fe34 2.077 . S
O60 C63 1.381 . S
O61 Fe32 1.935 . S
O61 C63 1.421 . S
C62 O50 1.381 . S
C62 O51 1.421 . S
C63 O60 1.381 . S
C63 O61 1.421 . S
H64 C65 0.951 . S
C65 H64 0.951 . S
C65 C71 1.265 . S
H66 C71 0.950 . S
H67 C75 0.949 . S
H68 C76 0.950 . S
H69 C77 0.951 . S
H70 C78 0.951 . S
C71 C65 1.265 . S
C71 H66 0.950 . S
C71 C72 1.478 . S
C72 C71 1.478 . S
C72 C73 1.397 . S
C72 C89 1.394 . S
C73 C72 1.397 . S
C73 C74 1.438 . S
C73 C78 1.429 . S
C74 C73 1.438 . S
C74 C75 1.428 . S
C74 C87 1.394 . S
C75 H67 0.949 . S
C75 C74 1.428 . S
C75 C76 1.345 . S
C76 H68 0.950 . S
C76 C75 1.345 . S
C76 C77 1.424 . S
C77 H69 0.951 . S
C77 C76 1.424 . S
C77 C78 1.347 . S
C78 H70 0.951 . S
C78 C73 1.429 . S
C78 C77 1.347 . S
H79 C80 0.951 . S
C80 H79 0.951 . S
C80 C86 1.265 . S
H81 C86 0.950 . S
H82 C90 0.949 . S
H83 C91 0.950 . S
H84 C92 0.951 . S
H85 C93 0.951 . S
C86 C80 1.265 . S
C86 H81 0.950 . S
C86 C87 1.478 . S
C87 C74 1.394 . S
C87 C86 1.478 . S
C87 C88 1.397 . S
C88 C87 1.397 . S
C88 C89 1.438 . S
C88 C93 1.429 . S
C89 C72 1.394 . S
C89 C88 1.438 . S
C89 C90 1.428 . S
C90 H82 0.949 . S
C90 C89 1.428 . S
C90 C91 1.345 . S
C91 H83 0.950 . S
C91 C90 1.345 . S
C91 C92 1.424 . S
C92 H84 0.951 . S
C92 C91 1.424 . S
C92 C93 1.347 . S
C93 H85 0.951 . S
C93 C88 1.429 . S
C93 C92 1.347 . S
H94 C95 0.951 . S
C95 H94 0.951 . S
C95 C101 1.265 . S
H96 C101 0.950 . S
H97 C105 0.949 . S
H98 C106 0.950 . S
H99 C107 0.951 . S
H100 C108 0.951 . S
C101 C95 1.265 . S
C101 H96 0.950 . S
C101 C102 1.478 . S
C102 C101 1.478 . S
C102 C103 1.397 . S
C102 C119 1.394 . S
C103 C102 1.397 . S
C103 C104 1.438 . S
C103 C108 1.429 . S
C104 C103 1.438 . S
C104 C105 1.428 . S
C104 C117 1.394 . S
C105 H97 0.949 . S
C105 C104 1.428 . S
C105 C106 1.345 . S
C106 H98 0.950 . S
C106 C105 1.345 . S
C106 C107 1.424 . S
C107 H99 0.951 . S
C107 C106 1.424 . S
C107 C108 1.347 . S
C108 H100 0.951 . S
C108 C103 1.429 . S
C108 C107 1.347 . S
H109 C110 0.951 . S
C110 H109 0.951 . S
C110 C116 1.265 . S
H111 C116 0.950 . S
H112 C120 0.949 . S
H113 C121 0.950 . S
H114 C122 0.951 . S
H115 C123 0.951 . S
C116 C110 1.265 . S
C116 H111 0.950 . S
C116 C117 1.478 . S
C117 C104 1.394 . S
C117 C116 1.478 . S
C117 C118 1.397 . S
C118 C117 1.397 . S
C118 C119 1.438 . S
C118 C123 1.429 . S
C119 C102 1.394 . S
C119 C118 1.438 . S
C119 C120 1.428 . S
C120 H112 0.949 . S
C120 C119 1.428 . S
C120 C121 1.345 . S
C121 H113 0.950 . S
C121 C120 1.345 . S
C121 C122 1.424 . S
C122 H114 0.951 . S
C122 C121 1.424 . S
C122 C123 1.347 . S
C123 H115 0.951 . S
C123 C118 1.429 . S
C123 C122 1.347 . S
H124 C125 0.951 . S
C125 H124 0.951 . S
C125 C131 1.265 . S
H126 C131 0.950 . S
H127 C135 0.949 . S
H128 C136 0.950 . S
H129 C137 0.951 . S
H130 C138 0.951 . S
C131 C125 1.265 . S
C131 H126 0.950 . S
C131 C132 1.478 . S
C132 C131 1.478 . S
C132 C133 1.397 . S
C132 C149 1.394 . S
C133 C132 1.397 . S
C133 C134 1.438 . S
C133 C138 1.429 . S
C134 C133 1.438 . S
C134 C135 1.428 . S
C134 C147 1.394 . S
C135 H127 0.949 . S
C135 C134 1.428 . S
C135 C136 1.345 . S
C136 H128 0.950 . S
C136 C135 1.345 . S
C136 C137 1.424 . S
C137 H129 0.951 . S
C137 C136 1.424 . S
C137 C138 1.347 . S
C138 H130 0.951 . S
C138 C133 1.429 . S
C138 C137 1.347 . S
H139 C140 0.951 . S
C140 H139 0.951 . S
C140 C146 1.265 . S
H141 C146 0.950 . S
H142 C150 0.949 . S
H143 C151 0.950 . S
H144 C152 0.951 . S
H145 C153 0.951 . S
C146 C140 1.265 . S
C146 H141 0.950 . S
C146 C147 1.478 . S
C147 C134 1.394 . S
C147 C146 1.478 . S
C147 C148 1.397 . S
C148 C147 1.397 . S
C148 C149 1.438 . S
C148 C153 1.429 . S
C149 C132 1.394 . S
C149 C148 1.438 . S
C149 C150 1.428 . S
C150 H142 0.949 . S
C150 C149 1.428 . S
C150 C151 1.345 . S
C151 H143 0.950 . S
C151 C150 1.345 . S
C151 C152 1.424 . S
C152 H144 0.951 . S
C152 C151 1.424 . S
C152 C153 1.347 . S
C153 H145 0.951 . S
C153 C148 1.429 . S
C153 C152 1.347 . S
H154 C155 0.951 . S
C155 H154 0.951 . S
C155 C161 1.265 . S
H156 C161 0.950 . S
H157 C165 0.949 . S
H158 C166 0.950 . S
H159 C167 0.951 . S
H160 C168 0.951 . S
C161 C155 1.265 . S
C161 H156 0.950 . S
C161 C162 1.478 . S
C162 C161 1.478 . S
C162 C163 1.397 . S
C162 C179 1.394 . S
C163 C162 1.397 . S
C163 C164 1.438 . S
C163 C168 1.429 . S
C164 C163 1.438 . S
C164 C165 1.428 . S
C164 C177 1.394 . S
C165 H157 0.949 . S
C165 C164 1.428 . S
C165 C166 1.345 . S
C166 H158 0.950 . S
C166 C165 1.345 . S
C166 C167 1.424 . S
C167 H159 0.951 . S
C167 C166 1.424 . S
C167 C168 1.347 . S
C168 H160 0.951 . S
C168 C163 1.429 . S
C168 C167 1.347 . S
H169 C170 0.951 . S
C170 H169 0.951 . S
C170 C176 1.265 . S
H171 C176 0.950 . S
H172 C180 0.949 . S
H173 C181 0.950 . S
H174 C182 0.951 . S
H175 C183 0.951 . S
C176 C170 1.265 . S
C176 H171 0.950 . S
C176 C177 1.478 . S
C177 C164 1.394 . S
C177 C176 1.478 . S
C177 C178 1.397 . S
C178 C177 1.397 . S
C178 C179 1.438 . S
C178 C183 1.429 . S
C179 C162 1.394 . S
C179 C178 1.438 . S
C179 C180 1.428 . S
C180 H172 0.949 . S
C180 C179 1.428 . S
C180 C181 1.345 . S
C181 H173 0.950 . S
C181 C180 1.345 . S
C181 C182 1.424 . S
C182 H174 0.951 . S
C182 C181 1.424 . S
C182 C183 1.347 . S
C183 H175 0.951 . S
C183 C178 1.429 . S
C183 C182 1.347 . S
H184 C185 0.951 . S
C185 H184 0.951 . S
C185 C191 1.265 . S
H186 C191 0.950 . S
H187 C195 0.949 . S
H188 C196 0.950 . S
H189 C197 0.951 . S
H190 C198 0.951 . S
C191 C185 1.265 . S
C191 H186 0.950 . S
C191 C192 1.478 . S
C192 C191 1.478 . S
C192 C193 1.397 . S
C192 C209 1.394 . S
C193 C192 1.397 . S
C193 C194 1.438 . S
C193 C198 1.429 . S
C194 C193 1.438 . S
C194 C195 1.428 . S
C194 C207 1.394 . S
C195 H187 0.949 . S
C195 C194 1.428 . S
C195 C196 1.345 . S
C196 H188 0.950 . S
C196 C195 1.345 . S
C196 C197 1.424 . S
C197 H189 0.951 . S
C197 C196 1.424 . S
C197 C198 1.347 . S
C198 H190 0.951 . S
C198 C193 1.429 . S
C198 C197 1.347 . S
H199 C200 0.951 . S
C200 H199 0.951 . S
C200 C206 1.265 . S
H201 C206 0.950 . S
H202 C210 0.949 . S
H203 C211 0.950 . S
H204 C212 0.951 . S
H205 C213 0.951 . S
C206 C200 1.265 . S
C206 H201 0.950 . S
C206 C207 1.478 . S
C207 C194 1.394 . S
C207 C206 1.478 . S
C207 C208 1.397 . S
C208 C207 1.397 . S
C208 C209 1.438 . S
C208 C213 1.429 . S
C209 C192 1.394 . S
C209 C208 1.438 . S
C209 C210 1.428 . S
C210 H202 0.949 . S
C210 C209 1.428 . S
C210 C211 1.345 . S
C211 H203 0.950 . S
C211 C210 1.345 . S
C211 C212 1.424 . S
C212 H204 0.951 . S
C212 C211 1.424 . S
C212 C213 1.347 . S
C213 H205 0.951 . S
C213 C208 1.429 . S
C213 C212 1.347 . S
H214 C215 0.951 . S
C215 H214 0.951 . S
C215 C221 1.265 . S
H216 C221 0.950 . S
H217 C225 0.949 . S
H218 C226 0.950 . S
H219 C227 0.951 . S
H220 C228 0.951 . S
C221 C215 1.265 . S
C221 H216 0.950 . S
C221 C222 1.478 . S
C222 C221 1.478 . S
C222 C223 1.397 . S
C222 C239 1.394 . S
C223 C222 1.397 . S
C223 C224 1.438 . S
C223 C228 1.429 . S
C224 C223 1.438 . S
C224 C225 1.428 . S
C224 C237 1.394 . S
C225 H217 0.949 . S
C225 C224 1.428 . S
C225 C226 1.345 . S
C226 H218 0.950 . S
C226 C225 1.345 . S
C226 C227 1.424 . S
C227 H219 0.951 . S
C227 C226 1.424 . S
C227 C228 1.347 . S
C228 H220 0.951 . S
C228 C223 1.429 . S
C228 C227 1.347 . S
H229 C230 0.951 . S
C230 H229 0.951 . S
C230 C236 1.265 . S
H231 C236 0.950 . S
H232 C240 0.949 . S
H233 C241 0.950 . S
H234 C242 0.951 . S
H235 C243 0.951 . S
C236 C230 1.265 . S
C236 H231 0.950 . S
C236 C237 1.478 . S
C237 C224 1.394 . S
C237 C236 1.478 . S
C237 C238 1.397 . S
C238 C237 1.397 . S
C238 C239 1.438 . S
C238 C243 1.429 . S
C239 C222 1.394 . S
C239 C238 1.438 . S
C239 C240 1.428 . S
C240 H232 0.949 . S
C240 C239 1.428 . S
C240 C241 1.345 . S
C241 H233 0.950 . S
C241 C240 1.345 . S
C241 C242 1.424 . S
C242 H234 0.951 . S
C242 C241 1.424 . S
C242 C243 1.347 . S
C243 H235 0.951 . S
C243 C238 1.429 . S
C243 C242 1.347 . S
H244 C245 0.951 . S
C245 H244 0.951 . S
C245 C251 1.265 . S
H246 C251 0.950 . S
H247 C255 0.949 . S
H248 C256 0.950 . S
H249 C257 0.951 . S
H250 C258 0.951 . S
C251 C245 1.265 . S
C251 H246 0.950 . S
C251 C252 1.478 . S
C252 C251 1.478 . S
C252 C253 1.397 . S
C252 C269 1.394 . S
C253 C252 1.397 . S
C253 C254 1.438 . S
C253 C258 1.429 . S
C254 C253 1.438 . S
C254 C255 1.428 . S
C254 C267 1.394 . S
C255 H247 0.949 . S
C255 C254 1.428 . S
C255 C256 1.345 . S
C256 H248 0.950 . S
C256 C255 1.345 . S
C256 C257 1.424 . S
C257 H249 0.951 . S
C257 C256 1.424 . S
C257 C258 1.347 . S
C258 H250 0.951 . S
C258 C253 1.429 . S
C258 C257 1.347 . S
H259 C260 0.951 . S
C260 H259 0.951 . S
C260 C266 1.265 . S
H261 C266 0.950 . S
H262 C270 0.949 . S
H263 C271 0.950 . S
H264 C272 0.951 . S
H265 C273 0.951 . S
C266 C260 1.265 . S
C266 H261 0.950 . S
C266 C267 1.478 . S
C267 C254 1.394 . S
C267 C266 1.478 . S
C267 C268 1.397 . S
C268 C267 1.397 . S
C268 C269 1.438 . S
C268 C273 1.429 . S
C269 C252 1.394 . S
C269 C268 1.438 . S
C269 C270 1.428 . S
C270 H262 0.949 . S
C270 C269 1.428 . S
C270 C271 1.345 . S
C271 H263 0.950 . S
C271 C270 1.345 . S
C271 C272 1.424 . S
C272 H264 0.951 . S
C272 C271 1.424 . S
C272 C273 1.347 . S
C273 H265 0.951 . S
C273 C268 1.429 . S
C273 C272 1.347 . S
H274 C275 0.951 . S
C275 H274 0.951 . S
C275 C281 1.265 . S
H276 C281 0.950 . S
H277 C285 0.949 . S
H278 C286 0.950 . S
H279 C287 0.951 . S
H280 C288 0.951 . S
C281 C275 1.265 . S
C281 H276 0.950 . S
C281 C282 1.478 . S
C282 C281 1.478 . S
C282 C283 1.397 . S
C282 C299 1.394 . S
C283 C282 1.397 . S
C283 C284 1.438 . S
C283 C288 1.429 . S
C284 C283 1.438 . S
C284 C285 1.428 . S
C284 C297 1.394 . S
C285 H277 0.949 . S
C285 C284 1.428 . S
C285 C286 1.345 . S
C286 H278 0.950 . S
C286 C285 1.345 . S
C286 C287 1.424 . S
C287 H279 0.951 . S
C287 C286 1.424 . S
C287 C288 1.347 . S
C288 H280 0.951 . S
C288 C283 1.429 . S
C288 C287 1.347 . S
H289 C290 0.951 . S
C290 H289 0.951 . S
C290 C296 1.265 . S
H291 C296 0.950 . S
H292 C300 0.949 . S
H293 C301 0.950 . S
H294 C302 0.951 . S
H295 C303 0.951 . S
C296 C290 1.265 . S
C296 H291 0.950 . S
C296 C297 1.478 . S
C297 C284 1.394 . S
C297 C296 1.478 . S
C297 C298 1.397 . S
C298 C297 1.397 . S
C298 C299 1.438 . S
C298 C303 1.429 . S
C299 C282 1.394 . S
C299 C298 1.438 . S
C299 C300 1.428 . S
C300 H292 0.949 . S
C300 C299 1.428 . S
C300 C301 1.345 . S
C301 H293 0.950 . S
C301 C300 1.345 . S
C301 C302 1.424 . S
C302 H294 0.951 . S
C302 C301 1.424 . S
C302 C303 1.347 . S
C303 H295 0.951 . S
C303 C298 1.429 . S
C303 C302 1.347 . S
C65 C23 1.397 . S
C80 C55 1.441 . S
C95 C24 1.398 . S
C110 C59 1.471 . S
C125 C8 1.410 . S
C140 C49 1.431 . S
C155 C22 1.397 . S
C170 C54 1.474 . S
C185 C17 1.486 . S
C200 C40 1.425 . S
C215 C56 1.458 . S
C230 C27 1.396 . S
C245 C30 1.480 . S
C260 C62 1.399 . S
C275 C63 1.400 . S
C290 C31 1.467 . S
