# Generated by pormake.
# Topology snp, (6)-cn, num edge types: 1
# Building blocks:
#     Node 0, Type 0, BuildingBlock: HISSIN_clean_sbu_0, # of connection points: 6
#     Node 1, Type 0, BuildingBlock: HISSIN_clean_sbu_0, # of connection points: 6
#     Node 2, Type 0, BuildingBlock: HISSIN_clean_sbu_0, # of connection points: 6
#     Node 3, Type 0, BuildingBlock: HISSIN_clean_sbu_0, # of connection points: 6
#     Edge 4, Type (0, 0), BuildingBlock: AJUNOK_clean_linker_0, # of connection points: 2
#     Edge 5, Type (0, 0), BuildingBlock: AJUNOK_clean_linker_0, # of connection points: 2
#     Edge 6, Type (0, 0), BuildingBlock: AJUNOK_clean_linker_0, # of connection points: 2
#     Edge 7, Type (0, 0), BuildingBlock: AJUNOK_clean_linker_0, # of connection points: 2
#     Edge 8, Type (0, 0), BuildingBlock: AJUNOK_clean_linker_0, # of connection points: 2
#     Edge 9, Type (0, 0), BuildingBlock: AJUNOK_clean_linker_0, # of connection points: 2
#     Edge 10, Type (0, 0), BuildingBlock: AJUNOK_clean_linker_0, # of connection points: 2
#     Edge 11, Type (0, 0), BuildingBlock: AJUNOK_clean_linker_0, # of connection points: 2
#     Edge 12, Type (0, 0), BuildingBlock: AJUNOK_clean_linker_0, # of connection points: 2
#     Edge 13, Type (0, 0), BuildingBlock: AJUNOK_clean_linker_0, # of connection points: 2
#     Edge 14, Type (0, 0), BuildingBlock: AJUNOK_clean_linker_0, # of connection points: 2
#     Edge 15, Type (0, 0), BuildingBlock: AJUNOK_clean_linker_0, # of connection points: 2
# Relax obj value: 1.033
# Max RMSD: 0.185
# Mean RMSD: 0.185
data_MOF--net-snp--node1-HISSIN_clean_sbu_0--edge1-AJUNOK_clean_linker_0
_symmetry_space_group_name_H-M    P1
_symmetry_Int_Tables_number       1
_symmetry_cell_setting            triclinic
loop_
_symmetry_equiv_pos_as_xyz
'x, y, z'
_cell_length_a     19.93139
_cell_length_b     20.295609
_cell_length_c     20.894019
_cell_angle_alpha  90.988334
_cell_angle_beta   88.30153
_cell_angle_gamma 126.97875
loop_
_atom_site_label
_atom_site_type_symbol
_atom_site_fract_x
_atom_site_fract_y
_atom_site_fract_z
_atom_type_partial_charge
Eu0 Eu 0.20957 0.00362 0.32196 0.0
Eu1 Eu 0.33351 0.12724 0.27267 0.0
C2 C 0.31906 -0.04178 0.2601 0.0
C3 C 0.35202 0.00866 0.44767 0.0
C4 C 0.32655 0.90637 0.43531 0.0
C5 C 0.53627 0.08466 0.50166 0.0
C6 C 0.40066 0.88434 0.45252 0.0
C7 C 0.45442 0.09645 0.48062 0.0
C8 C 0.51333 -0.02345 0.48378 0.0
C9 C 0.29739 0.02586 0.42008 0.0
O10 O 0.25834 0.04614 1.1794 0.0
O11 O 0.14525 0.933 1.22848 0.0
C12 C 0.18384 -0.02854 1.17366 0.0
O13 O 0.17823 0.08595 0.27824 0.0
O14 O 0.46646 0.17734 0.26736 0.0
O15 O 0.43051 0.25571 1.24606 0.0
O16 O 0.28121 0.15972 1.20345 0.0
C17 C 0.21227 0.1386 1.22979 0.0
O18 O 0.15473 0.05326 0.38505 0.0
O19 O 0.29011 0.16674 0.37127 0.0
O20 O 0.36766 0.03879 0.2613 0.0
O21 O 0.33034 0.07418 0.36921 0.0
O22 O 0.21545 -0.03583 0.41644 0.0
O23 O 0.24013 0.91974 0.27858 0.0
C24 C 0.51094 0.24698 1.16834 0.0
C25 C 0.45301 0.17981 1.12916 0.0
C26 C 0.55683 0.33446 1.07544 0.0
C27 C 0.43829 0.19416 1.06771 0.0
C28 C 0.56987 0.32322 1.13876 0.0
C29 C 0.47856 0.27563 1.04786 0.0
C30 C 0.48656 0.24248 1.2364 0.0
C31 C 0.21497 0.12947 0.40399 0.0
H32 H 0.26642 0.85811 0.41564 0.0
H33 H 0.59814 0.13784 0.51476 0.0
H34 H 0.38674 0.82558 0.43933 0.0
H35 H 0.46791 0.15653 0.4846 0.0
H36 H 0.40969 0.11895 1.1493 0.0
H37 H 0.59871 0.39393 1.05384 0.0
H38 H 0.38303 0.1446 1.04354 0.0
H39 H 0.61874 0.3757 1.16607 0.0
Eu40 Eu -0.01372 0.27282 0.72248 0.0
Eu41 Eu 0.14146 0.33707 0.78131 0.0
C42 C 0.07951 0.44766 0.77813 0.0
C43 C -0.0175 0.37845 0.58278 0.0
C44 C -0.03154 0.4599 0.58163 0.0
C45 C 0.14294 0.4778 0.4838 0.0
C46 C 0.03743 0.55453 0.53466 0.0
C47 C 0.06797 0.38671 0.53508 0.0
C48 C 0.13305 0.56953 0.48546 0.0
C49 C -0.07077 0.30971 0.62965 0.0
O50 O 0.0474 0.27906 0.8723 0.0
O51 O 0.9198 0.21743 0.82587 0.0
C52 C -0.0368 0.23128 0.87951 0.0
O53 O -0.07527 0.14791 0.75167 0.0
O54 O 0.23668 0.42056 0.85065 0.0
O55 O 0.25057 0.33839 0.79558 0.0
O56 O 0.05672 0.19651 0.78481 0.0
C57 C -0.02436 0.13636 0.77755 0.0
O58 O 0.05127 0.23637 0.64877 0.0
O59 O 0.18411 0.32034 0.68004 0.0
O60 O 0.14552 0.45209 0.75873 0.0
O61 O -0.06793 0.24738 0.62677 0.0
O62 O -0.06893 0.33199 0.68852 0.0
O63 O 0.01475 0.37327 0.79029 0.0
C64 C 0.26977 0.3434 0.90533 0.0
C65 C 0.31239 0.29276 0.90238 0.0
C66 C 0.15789 0.26233 1.02349 0.0
C67 C 0.23557 0.1682 1.00776 0.0
C68 C 0.19901 0.32633 0.96123 0.0
C69 C 0.19793 0.21421 1.05013 0.0
C70 C 0.27266 0.38401 0.84669 0.0
C71 C 0.13055 0.26638 0.63728 0.0
H72 H 0.91971 0.45331 0.61182 0.0
H73 H 0.19639 0.48495 0.46094 0.0
H74 H 0.03234 0.60453 0.53988 0.0
H75 H 0.07563 0.3385 0.53873 0.0
H76 H 0.35635 0.30398 0.86369 0.0
H77 H 0.1143 0.26296 1.05495 0.0
H78 H 0.25088 0.12963 1.02732 0.0
H79 H 0.17242 0.35906 0.95547 0.0
Eu80 Eu 0.75084 0.00913 0.30462 0.0
Eu81 Eu 0.7286 0.91275 1.25331 0.0
C82 C 0.57027 0.90284 0.25892 0.0
C83 C 0.82328 0.20288 0.40135 0.0
C84 C 0.7971 0.24022 0.44113 0.0
C85 C -0.03265 0.31388 0.42073 0.0
C86 C 0.85666 0.31532 0.47081 0.0
C87 C 0.90824 0.23944 0.39167 0.0
C88 C -0.0575 0.35222 0.46159 0.0
C89 C 0.76178 0.12427 0.37172 0.0
O90 O 0.76477 0.024 1.18472 0.0
O91 O 0.76635 0.02385 1.18689 0.0
C92 C 0.83993 0.07732 1.15517 0.0
O93 O 0.88773 0.07374 0.29301 0.0
O94 O 0.62562 0.78302 0.26731 0.0
O95 O 0.71993 0.82263 1.18971 0.0
O96 O 0.86128 -0.03126 1.23204 0.0
C97 C 0.91483 0.04213 1.25565 0.0
O98 O 0.7532 0.91394 0.36853 0.0
O99 O 0.75304 0.91446 0.3675 0.0
O100 O 0.61901 0.90821 1.21387 0.0
O101 O 0.76079 0.12215 0.30907 0.0
O102 O 0.75403 0.06152 0.3967 0.0
O103 O 0.60662 0.92443 0.3137 0.0
C104 C 0.57625 0.72567 1.16571 0.0
C105 C 0.58586 0.76342 1.1066 0.0
C106 C 0.44691 0.60364 1.1278 0.0
C107 C 0.5316 0.71441 1.05699 0.0
C108 C 0.50022 0.64831 1.17867 0.0
C109 C 0.48238 0.62862 1.06526 0.0
C110 C 0.64383 0.76484 1.21215 0.0
C111 C 0.82345 0.92977 0.39203 0.0
H112 H 0.73089 0.21187 0.44838 0.0
H113 H 0.03297 0.34307 0.40947 0.0
H114 H 0.83605 0.34542 0.49932 0.0
H115 H -0.07134 0.21104 0.36075 0.0
H116 H 0.63823 0.82712 1.0971 0.0
H117 H 0.39063 0.54195 1.13725 0.0
H118 H 0.54406 0.7407 1.00956 0.0
H119 H 0.48488 0.621 1.22595 0.0
Eu120 Eu 0.0566 0.88278 0.75028 0.0
Eu121 Eu 0.88392 0.73079 0.78695 0.0
C122 C 0.01693 0.70011 0.74707 0.0
C123 C 0.25114 0.00304 0.65469 0.0
C124 C 0.33827 0.06061 0.65367 0.0
C125 C 0.26031 0.92341 0.57172 0.0
C126 C 0.3864 0.04975 0.61193 0.0
C127 C 0.21213 0.93431 0.61371 0.0
C128 C 0.34794 -0.0178 0.56936 0.0
C129 C 0.20202 0.006 0.70581 0.0
O130 O -0.03516 0.77464 0.88494 0.0
O131 O 0.08155 0.90287 0.85764 0.0
C132 C 0.03787 0.84667 0.90262 0.0
O133 O -0.01604 0.92324 0.80083 0.0
O134 O 0.80295 0.60278 0.81897 0.0
O135 O 0.74806 0.66454 0.79641 0.0
O136 O 0.88763 0.80934 0.85993 0.0
C137 C -0.0723 0.88627 0.84828 0.0
O138 O -0.01203 0.8617 0.65388 0.0
O139 O 0.85593 0.78118 0.695 0.0
O140 O -0.06037 0.67338 0.73869 0.0
O141 O 0.13184 -0.00868 0.68885 0.0
O142 O 0.19265 -0.03541 0.7564 0.0
O143 O 0.07416 0.77983 0.75572 0.0
C144 C 0.71369 0.5991 0.89642 0.0
C145 C 0.69363 0.66472 0.92237 0.0
C146 C 0.74195 0.55268 1.02512 0.0
C147 C 0.71055 0.68017 1.06477 0.0
C148 C 0.73636 0.55059 0.94531 0.0
C149 C 0.70566 0.59311 1.07459 0.0
C150 C 0.73951 0.60534 0.8288 0.0
C151 C 0.90759 0.82919 0.64634 0.0
H152 H 0.36914 0.11197 0.68685 0.0
H153 H 0.22933 0.86869 0.54214 0.0
H154 H 0.45417 0.09356 0.61343 0.0
H155 H 0.14467 0.88739 0.61608 0.0
H156 H 0.68232 0.69774 0.8889 0.0
H157 H 0.76117 0.51851 1.04673 0.0
H158 H 0.69852 0.71114 1.10115 0.0
H159 H 0.75544 0.51614 0.92187 0.0
C160 C 0.02053 0.066 1.17721 0.0
C161 C -3e-05 0.09316 1.23123 0.0
C162 C 0.10376 0.10192 1.16218 0.0
C163 C 0.16561 0.16269 1.20246 0.0
H164 H -0.02717 0.01207 1.15038 0.0
H165 H 0.11785 0.07084 1.12783 0.0
S166 S 0.14576 0.27844 0.32934 0.0
N167 N 0.04841 0.20236 0.31032 0.0
N168 N 0.20656 0.26966 0.28035 0.0
C169 C 0.14737 0.204 1.24471 0.0
C170 C 0.06275 0.16717 0.26124 0.0
C171 C -0.04049 0.00236 0.90487 0.0
C172 C 0.89608 0.92655 0.8789 0.0
C173 C -0.01599 0.07256 0.87219 0.0
C174 C -0.0607 0.06558 0.8182 0.0
H175 H 0.00207 0.00682 0.93894 0.0
H176 H 0.04118 0.13088 0.88626 0.0
S177 S 0.73212 0.88059 0.76897 0.0
N178 N 0.76307 0.84835 0.82493 0.0
N179 N 0.80673 -0.01913 0.76205 0.0
C180 C 0.85997 -0.00838 0.80743 0.0
C181 C 0.83592 0.92111 0.84177 0.0
C182 C 0.42209 0.85344 0.28985 0.0
C183 C 0.49219 0.89618 1.2472 0.0
C184 C 0.35675 0.86235 0.28738 0.0
C185 C 0.36136 0.91803 1.24465 0.0
H186 H 0.41948 0.81547 0.32705 0.0
H187 H 0.30589 0.83021 0.32225 0.0
S188 S 0.52307 0.03218 1.11496 0.0
N189 N 0.55362 -0.01567 1.1534 0.0
N190 N 0.43512 0.00488 1.1514 0.0
C191 C 0.42636 -0.04641 1.19742 0.0
C192 C 0.49089 -0.05783 1.19832 0.0
C193 C 0.13308 0.60062 0.76784 0.0
C194 C 0.06692 0.5152 0.77408 0.0
C195 C 0.11779 0.66011 0.75785 0.0
C196 C 0.03539 0.63755 0.75443 0.0
H197 H 0.19739 0.62205 0.77098 0.0
H198 H 0.17117 0.72438 0.75303 0.0
S199 S 0.83915 0.42525 0.78184 0.0
N200 N 0.91484 0.41515 0.78667 0.0
N201 N 0.8871 0.52354 0.7663 0.0
C202 C -0.03088 0.55314 0.76429 0.0
C203 C -0.01548 0.49342 0.77508 0.0
C204 C 0.0966 0.17988 0.53058 0.0
C205 C 0.15628 0.23583 0.57686 0.0
C206 C 0.11627 0.14832 0.47633 0.0
C207 C 0.19783 0.16992 0.46217 0.0
H208 H 0.03245 0.15916 0.53632 0.0
H209 H 0.06595 0.10628 0.44439 0.0
S210 S 0.37972 0.31151 0.56708 0.0
N211 N 0.30308 0.30898 0.60286 0.0
N212 N 0.33901 0.25191 0.50317 0.0
C213 C 0.25851 0.22617 0.50766 0.0
C214 C 0.23832 0.25793 0.5635 0.0
C215 C -0.03434 0.22812 1.00635 0.0
C216 C 0.92115 0.19039 0.94876 0.0
C217 C -0.06389 0.19172 1.06965 0.0
C218 C 0.85761 0.11378 1.08368 0.0
H219 H 0.02607 0.28795 1.00266 0.0
H220 H -0.02264 0.22605 1.10912 0.0
S221 S 0.71224 -0.01789 0.95233 0.0
N222 N 0.79018 0.06469 0.91298 0.0
N223 N 0.73596 -0.0014 1.02899 0.0
C224 C 0.81077 0.07467 1.02678 0.0
C225 C 0.84153 0.1119 0.96141 0.0
C226 C -0.06317 0.89873 0.53131 0.0
C227 C 0.87851 0.84961 0.5823 0.0
C228 C 0.91589 0.92082 0.47334 0.0
C229 C 0.83445 0.89773 0.45871 0.0
H230 H 0.00141 0.92131 0.53589 0.0
H231 H -0.03378 -0.04229 0.43842 0.0
S232 S 0.65325 0.76876 0.57365 0.0
N233 N 0.73079 0.77844 0.611 0.0
N234 N 0.69324 0.81973 0.50529 0.0
C235 C 0.77443 0.84837 0.50909 0.0
C236 C 0.79576 0.82507 0.56877 0.0
C237 C 0.15662 -0.0588 0.98481 0.0
C238 C 0.07227 0.87107 0.97344 0.0
C239 C 0.19118 -0.03004 1.04762 0.0
C240 C 0.14458 0.93372 1.1057 0.0
H241 H 0.19788 -0.02488 0.94409 0.0
H242 H 0.25636 0.02207 1.05053 0.0
S243 S 0.92174 0.74522 1.10759 0.0
N244 N -0.05518 0.76296 1.0302 0.0
N245 N 0.00706 0.81858 1.14546 0.0
C246 C 0.06048 0.86248 1.09556 0.0
C247 C 0.02553 0.83155 1.03117 0.0
C248 C 0.49166 0.51087 1.06784 0.0
C249 C 0.51735 0.58495 1.03741 0.0
C250 C 0.54972 0.49673 1.08479 0.0
C251 C 0.62441 0.5301 1.05077 0.0
H252 H 0.43223 0.47429 1.09339 0.0
H253 H 0.53795 0.46128 1.12719 0.0
S254 S 0.78476 0.78396 0.98505 0.0
N255 N 0.65947 0.72548 0.99556 0.0
N256 N 0.77571 0.6768 0.98801 0.0
C257 C 0.64605 0.57947 1.00048 0.0
C258 C 0.59505 0.62664 1.00273 0.0
C259 C 0.515 -0.05187 0.53875 0.0
C260 C 0.56627 -0.02395 0.46709 0.0
C261 C 0.43498 -0.06038 0.5743 0.0
C262 C 0.4036 -0.02923 0.52631 0.0
H263 H 0.54148 0.92829 0.57289 0.0
H264 H 0.41468 0.92138 0.62376 0.0
S265 S 0.54599 0.07578 0.31805 0.0
N266 N 0.58926 0.0391 0.35586 0.0
N267 N 0.46404 0.05438 0.36144 0.0
C268 C 0.46558 0.01347 0.4122 0.0
C269 C 0.54108 0.0061 0.40963 0.0
C270 C 0.32461 0.31091 1.11402 0.0
C271 C 0.27081 0.29605 1.06566 0.0
C272 C 0.39658 0.31468 1.10347 0.0
C273 C 0.42126 0.29958 1.04405 0.0
H274 H 0.30959 0.319 1.16228 0.0
H275 H 0.43086 0.32377 1.1458 0.0
S276 S 0.23578 0.14773 0.8956 0.0
N277 N 0.19347 0.20866 0.94137 0.0
N278 N 0.34788 0.21244 0.94015 0.0
C279 C 0.37136 0.28296 0.99143 0.0
C280 C 0.29134 0.29559 1.00323 0.0
C281 C 0.02541 0.48621 0.41999 0.0
C282 C 0.00978 0.44056 0.48275 0.0
C283 C 0.11617 0.57747 0.42565 0.0
C284 C 0.19044 0.63398 0.47969 0.0
H285 H -0.01088 0.46226 0.37669 0.0
H286 H 0.13115 0.61112 0.38 0.0
S287 S 0.21896 0.5762 0.64822 0.0
N288 N 0.12326 0.49008 0.63399 0.0
N289 N 0.25005 0.64357 0.58926 0.0
C290 C 0.18429 0.60082 0.54964 0.0
C291 C 0.10793 0.51053 0.57725 0.0
loop_
_geom_bond_atom_site_label_1
_geom_bond_atom_site_label_2
_geom_bond_distance
_geom_bond_site_symmetry_2
_ccdc_geom_bond_type
Eu0 C9 2.828 . S
Eu0 O11 2.392 1_554 S
Eu0 O13 2.418 . S
Eu0 O18 2.373 . S
Eu0 O21 2.488 . S
Eu0 O22 2.471 . S
Eu0 O23 2.349 . S
Eu1 O10 2.373 . S
Eu1 O14 2.488 . S
Eu1 O15 2.471 . S
Eu1 O16 2.349 1_556 S
Eu1 O19 2.392 1_556 S
Eu1 O20 2.418 . S
Eu1 C30 2.828 . S
C2 O20 1.244 1_554 S
C2 O23 1.265 . S
C3 C4 1.379 . S
C3 C7 1.373 1_545 S
C3 C9 1.505 . S
C4 C3 1.379 . S
C4 C6 1.369 . S
C4 H32 0.930 . S
C5 C7 1.383 . S
C5 C8 1.382 . S
C5 H33 0.930 . S
C6 C4 1.369 . S
C6 C8 1.392 1_545 S
C6 H34 0.930 . S
C7 C3 1.373 1_565 S
C7 C5 1.383 . S
C7 H35 0.931 . S
C8 C5 1.382 . S
C8 C6 1.392 1_565 S
C9 Eu0 2.828 . S
C9 C3 1.505 . S
C9 O21 1.249 . S
C9 O22 1.244 . S
O10 Eu1 2.373 . S
O10 C12 1.258 . S
O11 Eu0 2.392 1_556 S
O11 C12 1.242 . S
C12 O10 1.258 . S
C12 O11 1.242 . S
O13 Eu0 2.418 . S
O13 C17 1.244 . S
O14 Eu1 2.488 . S
O14 C30 1.249 . S
O15 Eu1 2.471 . S
O15 C30 1.244 . S
O16 Eu1 2.349 1_554 S
O16 C17 1.265 . S
C17 O13 1.244 . S
C17 O16 1.265 . S
O18 Eu0 2.373 . S
O18 C31 1.258 . S
O19 Eu1 2.392 1_554 S
O19 C31 1.242 . S
O20 Eu1 2.418 . S
O20 C2 1.244 1_556 S
O21 Eu0 2.488 . S
O21 C9 1.249 . S
O22 Eu0 2.471 . S
O22 C9 1.244 . S
O23 Eu0 2.349 . S
O23 C2 1.265 . S
C24 C25 1.379 . S
C24 C28 1.373 . S
C24 C30 1.505 . S
C25 C24 1.379 . S
C25 C27 1.369 . S
C25 H36 0.930 . S
C26 C28 1.383 . S
C26 C29 1.382 . S
C26 H37 0.930 . S
C27 C25 1.369 . S
C27 C29 1.392 . S
C27 H38 0.930 . S
C28 C24 1.373 . S
C28 C26 1.383 . S
C28 H39 0.931 . S
C29 C26 1.382 . S
C29 C27 1.392 . S
C30 Eu1 2.828 . S
C30 O14 1.249 . S
C30 O15 1.244 . S
C30 C24 1.505 . S
C31 O18 1.258 . S
C31 O19 1.242 . S
H32 C4 0.930 . S
H33 C5 0.930 . S
H34 C6 0.930 . S
H35 C7 0.931 . S
H36 C25 0.930 . S
H37 C26 0.930 . S
H38 C27 0.930 . S
H39 C28 0.931 . S
Eu40 C49 2.828 . S
Eu40 O51 2.392 . S
Eu40 O53 2.418 . S
Eu40 O58 2.373 . S
Eu40 O61 2.488 . S
Eu40 O62 2.471 . S
Eu40 O63 2.349 . S
Eu41 O50 2.373 . S
Eu41 O54 2.488 . S
Eu41 O55 2.471 . S
Eu41 O56 2.349 . S
Eu41 O59 2.392 . S
Eu41 O60 2.418 . S
Eu41 C70 2.828 . S
C42 O60 1.244 . S
C42 O63 1.265 . S
C43 C44 1.379 . S
C43 C47 1.373 1_455 S
C43 C49 1.505 . S
C44 C43 1.379 . S
C44 C46 1.369 . S
C44 H72 0.930 . S
C45 C47 1.383 . S
C45 C48 1.382 . S
C45 H73 0.930 . S
C46 C44 1.369 . S
C46 C48 1.392 1_455 S
C46 H74 0.930 . S
C47 C43 1.373 1_655 S
C47 C45 1.383 . S
C47 H75 0.931 . S
C48 C45 1.382 . S
C48 C46 1.392 1_655 S
C49 Eu40 2.828 . S
C49 C43 1.505 . S
C49 O61 1.249 . S
C49 O62 1.244 . S
O50 Eu41 2.373 . S
O50 C52 1.258 . S
O51 Eu40 2.392 . S
O51 C52 1.242 . S
C52 O50 1.258 . S
C52 O51 1.242 . S
O53 Eu40 2.418 . S
O53 C57 1.244 . S
O54 Eu41 2.488 . S
O54 C70 1.249 . S
O55 Eu41 2.471 . S
O55 C70 1.244 . S
O56 Eu41 2.349 . S
O56 C57 1.265 . S
C57 O53 1.244 . S
C57 O56 1.265 . S
O58 Eu40 2.373 . S
O58 C71 1.258 . S
O59 Eu41 2.392 . S
O59 C71 1.242 . S
O60 Eu41 2.418 . S
O60 C42 1.244 . S
O61 Eu40 2.488 . S
O61 C49 1.249 . S
O62 Eu40 2.471 . S
O62 C49 1.244 . S
O63 Eu40 2.349 . S
O63 C42 1.265 . S
C64 C65 1.379 . S
C64 C68 1.373 . S
C64 C70 1.505 . S
C65 C64 1.379 . S
C65 C67 1.369 . S
C65 H76 0.930 . S
C66 C68 1.383 . S
C66 C69 1.382 . S
C66 H77 0.930 . S
C67 C65 1.369 . S
C67 C69 1.392 . S
C67 H78 0.930 . S
C68 C64 1.373 . S
C68 C66 1.383 . S
C68 H79 0.931 . S
C69 C66 1.382 . S
C69 C67 1.392 . S
C70 Eu41 2.828 . S
C70 O54 1.249 . S
C70 O55 1.244 . S
C70 C64 1.505 . S
C71 O58 1.258 . S
C71 O59 1.242 . S
H72 C44 0.930 . S
H73 C45 0.930 . S
H74 C46 0.930 . S
H75 C47 0.931 . S
H76 C65 0.930 . S
H77 C66 0.930 . S
H78 C67 0.930 . S
H79 C68 0.931 . S
Eu80 C89 2.828 . S
Eu80 O91 2.392 1_554 S
Eu80 O93 2.418 . S
Eu80 O98 2.373 1_545 S
Eu80 O101 2.488 . S
Eu80 O102 2.471 . S
Eu80 O103 2.349 . S
Eu81 O90 2.373 1_565 S
Eu81 O94 2.488 . S
Eu81 O95 2.471 . S
Eu81 O96 2.349 1_556 S
Eu81 O99 2.392 1_556 S
Eu81 O100 2.418 . S
Eu81 C110 2.828 . S
C82 O100 1.244 1_554 S
C82 O103 1.265 1_565 S
C83 C84 1.379 . S
C83 C87 1.373 . S
C83 C89 1.505 . S
C84 C83 1.379 . S
C84 C86 1.369 . S
C84 H112 0.930 . S
C85 C87 1.383 . S
C85 C88 1.382 . S
C85 H113 0.930 1_655 S
C86 C84 1.369 . S
C86 C88 1.392 . S
C86 H114 0.930 . S
C87 C83 1.373 . S
C87 C85 1.383 . S
C87 H115 0.931 1_655 S
C88 C85 1.382 . S
C88 C86 1.392 . S
C89 Eu80 2.828 . S
C89 C83 1.505 . S
C89 O101 1.249 . S
C89 O102 1.244 . S
O90 Eu81 2.373 1_545 S
O90 C92 1.258 . S
O91 Eu80 2.392 1_556 S
O91 C92 1.242 . S
C92 O90 1.258 . S
C92 O91 1.242 . S
O93 Eu80 2.418 . S
O93 C97 1.244 . S
O94 Eu81 2.488 . S
O94 C110 1.249 . S
O95 Eu81 2.471 . S
O95 C110 1.244 . S
O96 Eu81 2.349 1_554 S
O96 C97 1.265 1_565 S
C97 O93 1.244 . S
C97 O96 1.265 1_545 S
O98 Eu80 2.373 1_565 S
O98 C111 1.258 . S
O99 Eu81 2.392 1_554 S
O99 C111 1.242 . S
O100 Eu81 2.418 . S
O100 C82 1.244 1_556 S
O101 Eu80 2.488 . S
O101 C89 1.249 . S
O102 Eu80 2.471 . S
O102 C89 1.244 . S
O103 Eu80 2.349 . S
O103 C82 1.265 1_545 S
C104 C105 1.379 . S
C104 C108 1.373 . S
C104 C110 1.505 . S
C105 C104 1.379 . S
C105 C107 1.369 . S
C105 H116 0.930 . S
C106 C108 1.383 . S
C106 C109 1.382 . S
C106 H117 0.930 . S
C107 C105 1.369 . S
C107 C109 1.392 . S
C107 H118 0.930 . S
C108 C104 1.373 . S
C108 C106 1.383 . S
C108 H119 0.931 . S
C109 C106 1.382 . S
C109 C107 1.392 . S
C110 Eu81 2.828 . S
C110 O94 1.249 . S
C110 O95 1.244 . S
C110 C104 1.505 . S
C111 O98 1.258 . S
C111 O99 1.242 . S
H112 C84 0.930 . S
H113 C85 0.930 1_455 S
H114 C86 0.930 . S
H115 C87 0.931 1_455 S
H116 C105 0.930 . S
H117 C106 0.930 . S
H118 C107 0.930 . S
H119 C108 0.931 . S
Eu120 C129 2.828 . S
Eu120 O131 2.392 . S
Eu120 O133 2.418 . S
Eu120 O138 2.373 1_455 S
Eu120 O141 2.488 . S
Eu120 O142 2.471 . S
Eu120 O143 2.349 . S
Eu121 O130 2.373 1_655 S
Eu121 O134 2.488 . S
Eu121 O135 2.471 . S
Eu121 O136 2.349 . S
Eu121 O139 2.392 . S
Eu121 O140 2.418 . S
Eu121 C150 2.828 . S
C122 O140 1.244 . S
C122 O143 1.265 1_655 S
C123 C124 1.379 . S
C123 C127 1.373 . S
C123 C129 1.505 . S
C124 C123 1.379 . S
C124 C126 1.369 . S
C124 H152 0.930 . S
C125 C127 1.383 . S
C125 C128 1.382 . S
C125 H153 0.930 1_565 S
C126 C124 1.369 . S
C126 C128 1.392 . S
C126 H154 0.930 . S
C127 C123 1.373 . S
C127 C125 1.383 . S
C127 H155 0.931 1_565 S
C128 C125 1.382 . S
C128 C126 1.392 . S
C129 Eu120 2.828 . S
C129 C123 1.505 . S
C129 O141 1.249 . S
C129 O142 1.244 . S
O130 Eu121 2.373 1_455 S
O130 C132 1.258 . S
O131 Eu120 2.392 . S
O131 C132 1.242 . S
C132 O130 1.258 . S
C132 O131 1.242 . S
O133 Eu120 2.418 . S
O133 C137 1.244 . S
O134 Eu121 2.488 . S
O134 C150 1.249 . S
O135 Eu121 2.471 . S
O135 C150 1.244 . S
O136 Eu121 2.349 . S
O136 C137 1.265 1_655 S
C137 O133 1.244 . S
C137 O136 1.265 1_455 S
O138 Eu120 2.373 1_655 S
O138 C151 1.258 . S
O139 Eu121 2.392 . S
O139 C151 1.242 . S
O140 Eu121 2.418 . S
O140 C122 1.244 . S
O141 Eu120 2.488 . S
O141 C129 1.249 . S
O142 Eu120 2.471 . S
O142 C129 1.244 . S
O143 Eu120 2.349 . S
O143 C122 1.265 1_455 S
C144 C145 1.379 . S
C144 C148 1.373 . S
C144 C150 1.505 . S
C145 C144 1.379 . S
C145 C147 1.369 . S
C145 H156 0.930 . S
C146 C148 1.383 . S
C146 C149 1.382 . S
C146 H157 0.930 . S
C147 C145 1.369 . S
C147 C149 1.392 . S
C147 H158 0.930 . S
C148 C144 1.373 . S
C148 C146 1.383 . S
C148 H159 0.931 . S
C149 C146 1.382 . S
C149 C147 1.392 . S
C150 Eu121 2.828 . S
C150 O134 1.249 . S
C150 O135 1.244 . S
C150 C144 1.505 . S
C151 O138 1.258 . S
C151 O139 1.242 . S
H152 C124 0.930 . S
H153 C125 0.930 1_545 S
H154 C126 0.930 . S
H155 C127 0.931 1_545 S
H156 C145 0.930 . S
H157 C146 0.930 . S
H158 C147 0.930 . S
H159 C148 0.931 . S
C160 C161 1.369 1_556 S
C160 C162 1.419 . S
C160 H164 0.930 1_545 S
C161 C160 1.369 1_554 S
C161 C170 1.429 . S
C162 C160 1.419 . S
C162 C163 1.363 1_556 S
C162 H165 0.929 . S
C163 C162 1.363 1_554 S
C163 C169 1.428 . S
H164 C160 0.930 1_565 S
H165 C162 0.929 . S
S166 N167 1.613 . S
S166 N168 1.610 . S
N167 S166 1.613 . S
N167 C170 1.350 . S
N168 S166 1.610 . S
N168 C169 1.351 . S
C169 C163 1.428 . S
C169 N168 1.351 . S
C169 C170 1.434 . S
C170 C161 1.429 . S
C170 N167 1.350 . S
C170 C169 1.434 . S
C171 C172 1.369 . S
C171 C173 1.419 . S
C171 H175 0.930 . S
C172 C171 1.369 . S
C172 C181 1.429 . S
C173 C171 1.419 . S
C173 C174 1.363 . S
C173 H176 0.929 . S
C174 C173 1.363 . S
C174 C180 1.428 . S
H175 C171 0.930 . S
H176 C173 0.929 . S
S177 N178 1.613 . S
S177 N179 1.610 1_655 S
N178 S177 1.613 . S
N178 C181 1.350 1_655 S
N179 S177 1.610 1_455 S
N179 C180 1.351 . S
C180 C174 1.428 . S
C180 N179 1.351 . S
C180 C181 1.434 . S
C181 C172 1.429 . S
C181 N178 1.350 1_455 S
C181 C180 1.434 . S
C182 C183 1.369 1_556 S
C182 C184 1.419 . S
C182 H186 0.930 1_545 S
C183 C182 1.369 1_554 S
C183 C192 1.429 . S
C184 C182 1.419 . S
C184 C185 1.363 1_556 S
C184 H187 0.929 . S
C185 C184 1.363 1_554 S
C185 C191 1.428 . S
H186 C182 0.930 1_565 S
H187 C184 0.929 . S
S188 N189 1.613 . S
S188 N190 1.610 . S
N189 S188 1.613 . S
N189 C192 1.350 . S
N190 S188 1.610 . S
N190 C191 1.351 . S
C191 C185 1.428 . S
C191 N190 1.351 . S
C191 C192 1.434 . S
C192 C183 1.429 . S
C192 N189 1.350 . S
C192 C191 1.434 . S
C193 C194 1.369 . S
C193 C195 1.419 . S
C193 H197 0.930 . S
C194 C193 1.369 . S
C194 C203 1.429 . S
C195 C193 1.419 . S
C195 C196 1.363 . S
C195 H198 0.929 . S
C196 C195 1.363 . S
C196 C202 1.428 . S
H197 C193 0.930 . S
H198 C195 0.929 . S
S199 N200 1.613 1_655 S
S199 N201 1.610 . S
N200 S199 1.613 1_455 S
N200 C203 1.350 . S
N201 S199 1.610 . S
N201 C202 1.351 1_655 S
C202 C196 1.428 . S
C202 N201 1.351 1_455 S
C202 C203 1.434 . S
C203 C194 1.429 . S
C203 N200 1.350 . S
C203 C202 1.434 . S
C204 C205 1.369 . S
C204 C206 1.419 . S
C204 H208 0.930 . S
C205 C204 1.369 . S
C205 C214 1.429 . S
C206 C204 1.419 . S
C206 C207 1.363 . S
C206 H209 0.929 . S
C207 C206 1.363 . S
C207 C213 1.428 . S
H208 C204 0.930 . S
H209 C206 0.929 . S
S210 N211 1.613 . S
S210 N212 1.610 . S
N211 S210 1.613 . S
N211 C214 1.350 . S
N212 S210 1.610 . S
N212 C213 1.351 . S
C213 C207 1.428 . S
C213 N212 1.351 . S
C213 C214 1.434 . S
C214 C205 1.429 . S
C214 N211 1.350 . S
C214 C213 1.434 . S
C215 C216 1.369 . S
C215 C217 1.419 . S
C215 H219 0.930 . S
C216 C215 1.369 . S
C216 C225 1.429 1_455 S
C217 C215 1.419 . S
C217 C218 1.363 1_455 S
C217 H220 0.929 . S
C218 C217 1.363 1_655 S
C218 C224 1.428 . S
H219 C215 0.930 . S
H220 C217 0.929 . S
S221 N222 1.613 . S
S221 N223 1.610 . S
N222 S221 1.613 . S
N222 C225 1.350 . S
N223 S221 1.610 . S
N223 C224 1.351 . S
C224 C218 1.428 . S
C224 N223 1.351 . S
C224 C225 1.434 . S
C225 C216 1.429 1_655 S
C225 N222 1.350 . S
C225 C224 1.434 . S
C226 C227 1.369 . S
C226 C228 1.419 . S
C226 H230 0.930 . S
C227 C226 1.369 . S
C227 C236 1.429 . S
C228 C226 1.419 . S
C228 C229 1.363 . S
C228 H231 0.929 . S
C229 C228 1.363 . S
C229 C235 1.428 . S
H230 C226 0.930 . S
H231 C228 0.929 . S
S232 N233 1.613 . S
S232 N234 1.610 . S
N233 S232 1.613 . S
N233 C236 1.350 . S
N234 S232 1.610 . S
N234 C235 1.351 . S
C235 C229 1.428 . S
C235 N234 1.351 . S
C235 C236 1.434 . S
C236 C227 1.429 . S
C236 N233 1.350 . S
C236 C235 1.434 . S
C237 C238 1.369 . S
C237 C239 1.419 1_565 S
C237 H241 0.930 . S
C238 C237 1.369 . S
C238 C247 1.429 . S
C239 C237 1.419 1_545 S
C239 C240 1.363 . S
C239 H242 0.929 . S
C240 C239 1.363 . S
C240 C246 1.428 1_545 S
H241 C237 0.930 . S
H242 C239 0.929 . S
S243 N244 1.613 . S
S243 N245 1.610 . S
N244 S243 1.613 . S
N244 C247 1.350 . S
N245 S243 1.610 . S
N245 C246 1.351 . S
C246 C240 1.428 1_565 S
C246 N245 1.351 . S
C246 C247 1.434 . S
C247 C238 1.429 . S
C247 N244 1.350 . S
C247 C246 1.434 . S
C248 C249 1.369 . S
C248 C250 1.419 . S
C248 H252 0.930 . S
C249 C248 1.369 . S
C249 C258 1.429 . S
C250 C248 1.419 . S
C250 C251 1.363 . S
C250 H253 0.929 . S
C251 C250 1.363 . S
C251 C257 1.428 . S
H252 C248 0.930 . S
H253 C250 0.929 . S
S254 N255 1.613 . S
S254 N256 1.610 . S
N255 S254 1.613 . S
N255 C258 1.350 . S
N256 S254 1.610 . S
N256 C257 1.351 . S
C257 C251 1.428 . S
C257 N256 1.351 . S
C257 C258 1.434 . S
C258 C249 1.429 . S
C258 N255 1.350 . S
C258 C257 1.434 . S
C259 C260 1.369 . S
C259 C261 1.419 . S
C259 H263 0.930 . S
C260 C259 1.369 . S
C260 C269 1.429 1_565 S
C261 C259 1.419 . S
C261 C262 1.363 . S
C261 H264 0.929 . S
C262 C261 1.363 . S
C262 C268 1.428 . S
H263 C259 0.930 . S
H264 C261 0.929 . S
S265 N266 1.613 . S
S265 N267 1.610 . S
N266 S265 1.613 . S
N266 C269 1.350 . S
N267 S265 1.610 . S
N267 C268 1.351 1_545 S
C268 C262 1.428 . S
C268 N267 1.351 1_565 S
C268 C269 1.434 1_565 S
C269 C260 1.429 1_545 S
C269 N266 1.350 . S
C269 C268 1.434 1_545 S
C270 C271 1.369 . S
C270 C272 1.419 . S
C270 H274 0.930 . S
C271 C270 1.369 . S
C271 C280 1.429 . S
C272 C270 1.419 . S
C272 C273 1.363 . S
C272 H275 0.929 . S
C273 C272 1.363 . S
C273 C279 1.428 . S
H274 C270 0.930 . S
H275 C272 0.929 . S
S276 N277 1.613 . S
S276 N278 1.610 . S
N277 S276 1.613 . S
N277 C280 1.350 . S
N278 S276 1.610 . S
N278 C279 1.351 . S
C279 C273 1.428 . S
C279 N278 1.351 . S
C279 C280 1.434 . S
C280 C271 1.429 . S
C280 N277 1.350 . S
C280 C279 1.434 . S
C281 C282 1.369 . S
C281 C283 1.419 . S
C281 H285 0.930 . S
C282 C281 1.369 . S
C282 C291 1.429 . S
C283 C281 1.419 . S
C283 C284 1.363 . S
C283 H286 0.929 . S
C284 C283 1.363 . S
C284 C290 1.428 1_655 S
H285 C281 0.930 . S
H286 C283 0.929 . S
S287 N288 1.613 . S
S287 N289 1.610 . S
N288 S287 1.613 . S
N288 C291 1.350 1_455 S
N289 S287 1.610 . S
N289 C290 1.351 . S
C290 C284 1.428 1_455 S
C290 N289 1.351 . S
C290 C291 1.434 1_455 S
C291 C282 1.429 . S
C291 N288 1.350 1_655 S
C291 C290 1.434 1_655 S
C161 C97 1.189 1_455 S
C163 C17 1.203 . S
C172 C137 1.203 1_545 S
C174 C57 1.192 . S
C183 C82 1.534 1_545 S
C185 C2 1.537 . S
C194 C42 1.528 . S
C196 C122 1.537 1_455 S
C205 C71 4.769 . S
C207 C31 4.770 . S
C216 C52 4.540 . S
C218 C92 4.540 . S
C227 C151 4.770 . S
C229 C111 4.770 . S
C238 C132 4.539 . S
C240 C12 4.539 . S
C249 C109 1.001 . S
C251 C149 0.980 . S
C260 C8 1.658 . S
C262 C128 1.665 . S
C271 C69 0.982 . S
C273 C29 0.992 . S
C282 C88 1.665 . S
C284 C48 1.659 . S
