# Generated by pormake.
# Topology lcy, (6)-cn, num edge types: 1
# Building blocks:
#     Node 0, Type 0, BuildingBlock: IZENUY_clean_sbu_0, # of connection points: 6
#     Node 1, Type 0, BuildingBlock: IZENUY_clean_sbu_0, # of connection points: 6
#     Node 2, Type 0, BuildingBlock: IZENUY_clean_sbu_0, # of connection points: 6
#     Node 3, Type 0, BuildingBlock: IZENUY_clean_sbu_0, # of connection points: 6
#     Edge 4, Type (0, 0), BuildingBlock: XUDNAN_clean_linker_2, # of connection points: 2
#     Edge 5, Type (0, 0), BuildingBlock: XUDNAN_clean_linker_2, # of connection points: 2
#     Edge 6, Type (0, 0), BuildingBlock: XUDNAN_clean_linker_2, # of connection points: 2
#     Edge 7, Type (0, 0), BuildingBlock: XUDNAN_clean_linker_2, # of connection points: 2
#     Edge 8, Type (0, 0), BuildingBlock: XUDNAN_clean_linker_2, # of connection points: 2
#     Edge 9, Type (0, 0), BuildingBlock: XUDNAN_clean_linker_2, # of connection points: 2
#     Edge 10, Type (0, 0), BuildingBlock: XUDNAN_clean_linker_2, # of connection points: 2
#     Edge 11, Type (0, 0), BuildingBlock: XUDNAN_clean_linker_2, # of connection points: 2
#     Edge 12, Type (0, 0), BuildingBlock: XUDNAN_clean_linker_2, # of connection points: 2
#     Edge 13, Type (0, 0), BuildingBlock: XUDNAN_clean_linker_2, # of connection points: 2
#     Edge 14, Type (0, 0), BuildingBlock: XUDNAN_clean_linker_2, # of connection points: 2
#     Edge 15, Type (0, 0), BuildingBlock: XUDNAN_clean_linker_2, # of connection points: 2
# Relax obj value: 0.232
# Max RMSD: 0.227
# Mean RMSD: 0.227
data_MOF--net-lcy--node1-IZENUY_clean_sbu_0--edge1-XUDNAN_clean_linker_2
_symmetry_space_group_name_H-M    P1
_symmetry_Int_Tables_number       1
_symmetry_cell_setting            triclinic
loop_
_symmetry_equiv_pos_as_xyz
'x, y, z'
_cell_length_a     25.349319
_cell_length_b     25.297828
_cell_length_c     25.401262
_cell_angle_alpha  89.904911
_cell_angle_beta   90.139522
_cell_angle_gamma 90.117033
loop_
_atom_site_label
_atom_site_type_symbol
_atom_site_fract_x
_atom_site_fract_y
_atom_site_fract_z
_atom_type_partial_charge
Fe0 Fe 0.43137 0.3881 0.3358 0.0
Fe1 Fe 0.39281 0.34125 0.43944 0.0
O2 O 0.38307 0.38356 0.38552 0.0
Fe3 Fe 0.32516 0.42123 0.38122 0.0
O4 O 0.30759 0.3891 0.32059 0.0
O5 O 0.38324 0.40364 0.28181 0.0
O6 O 0.42314 0.31882 0.31957 0.0
C7 C 0.43241 0.28256 0.35238 0.0
C8 C 0.40572 0.49127 0.34424 0.0
O9 O 0.43149 0.29224 0.40152 0.0
C10 C 0.34598 0.43202 0.48501 0.0
O11 O 0.48818 0.37369 0.38092 0.0
O12 O 0.45078 0.37757 0.45845 0.0
O13 O 0.35747 0.47728 0.34651 0.0
O14 O 0.44176 0.45748 0.34984 0.0
C15 C 0.2896 0.32198 0.42093 0.0
O16 O 0.35582 0.38283 0.48693 0.0
O17 O 0.3401 0.4552 0.44164 0.0
C18 C 0.49181 0.37865 0.43078 0.0
O19 O 0.33539 0.30312 0.42276 0.0
O20 O 0.28277 0.3715 0.41505 0.0
C21 C 0.3336 0.39563 0.27901 0.0
Fe22 Fe 0.8239 0.09223 0.63143 0.0
Fe23 Fe 0.88875 0.17517 0.57233 0.0
O24 O 0.88029 0.1326 0.62683 0.0
Fe25 Fe 0.92851 0.13049 0.67689 0.0
O26 O 0.94167 0.06181 0.6642 0.0
O27 O 0.85834 0.03752 0.66598 0.0
O28 O 0.84041 0.05898 0.5712 0.0
C29 C 0.846 0.08168 0.52756 0.0
C30 C 0.83215 0.1193 0.73355 0.0
O31 O 0.85386 0.13127 0.52496 0.0
C32 C 0.92725 0.23543 0.65972 0.0
O33 O 0.77971 0.13991 0.59752 0.0
O34 O 0.82932 0.21076 0.58748 0.0
O35 O 0.88174 0.11335 0.73027 0.0
O36 O 0.80457 0.12309 0.69249 0.0
C37 C 0.989 0.14174 0.58284 0.0
O38 O 0.9255 0.22613 0.61049 0.0
O39 O 0.91731 0.19921 0.69223 0.0
C40 C 0.7846 0.18945 0.59047 0.0
O41 O 0.94883 0.14203 0.55377 0.0
O42 O 0.98426 0.14675 0.63238 0.0
C43 C 0.90715 0.02643 0.67014 0.0
Fe44 Fe 0.08031 0.62228 0.83698 0.0
Fe45 Fe 0.18758 0.59096 0.8815 0.0
O46 O 0.12986 0.62948 0.88523 0.0
Fe47 Fe 0.12165 0.67529 0.93666 0.0
O48 O 0.06278 0.64184 0.95916 0.0
O49 O 0.02519 0.64003 0.88147 0.0
O50 O 0.07009 0.55433 0.85561 0.0
C51 C 0.10544 0.5199 0.85 0.0
C52 C 0.07881 0.72818 0.84643 0.0
O53 O 0.15392 0.53326 0.85101 0.0
C54 C 0.22512 0.69133 0.91532 0.0
O55 O 0.12631 0.60342 0.78336 0.0
O56 O 0.20387 0.61926 0.81829 0.0
O57 O 0.08298 0.72285 0.89611 0.0
O58 O 0.08833 0.68992 0.81631 0.0
C59 C 0.16941 0.58613 0.98631 0.0
O60 O 0.23095 0.64162 0.9117 0.0
O61 O 0.17985 0.71143 0.91707 0.0
C62 C 0.17542 0.61216 0.77827 0.0
O63 O 0.17472 0.56074 0.94419 0.0
O64 O 0.15837 0.6352 0.98603 0.0
C65 C 0.02183 0.63883 0.93132 0.0
Fe66 Fe 0.58248 0.88579 0.17573 0.0
Fe67 Fe 0.68684 0.92472 0.12976 0.0
O68 O 0.63103 0.88337 0.12606 0.0
Fe69 Fe 0.62368 0.83961 0.07273 0.0
O70 O 0.56281 0.87124 0.0528 0.0
O71 O 0.52706 0.86762 0.13131 0.0
O72 O 0.56833 0.95453 0.16106 0.0
C73 C 0.60266 0.9904 0.16573 0.0
C74 C 0.58649 0.77997 0.16094 0.0
O75 O 0.65149 0.9791 0.16302 0.0
C76 C 0.72809 0.82763 0.09206 0.0
O77 O 0.62925 0.90455 0.22891 0.0
O78 O 0.70672 0.89535 0.1917 0.0
O79 O 0.58834 0.78882 0.11162 0.0
O80 O 0.594 0.81715 0.19314 0.0
C81 C 0.66519 0.93249 0.02559 0.0
O82 O 0.73196 0.87747 0.09681 0.0
O83 O 0.68367 0.80556 0.08995 0.0
C84 C 0.67892 0.89875 0.23255 0.0
O85 O 0.6698 0.9565 0.0686 0.0
O86 O 0.65794 0.88281 0.02441 0.0
C87 C 0.52249 0.87182 0.08163 0.0
H88 H 0.26883 0.56327 0.01916 0.0
H89 H 0.10409 0.54502 0.06035 0.0
H90 H 0.12922 0.48559 0.13402 0.0
H91 H 0.30877 0.42928 0.0494 0.0
H92 H 0.37195 0.44815 0.07619 0.0
H93 H 0.34132 0.4882 0.026 0.0
H94 H 0.34647 0.57056 0.08618 0.0
H95 H 0.37851 0.53074 0.13548 0.0
H96 H 0.31931 0.567 0.15161 0.0
H97 H 0.17171 0.42483 0.19883 0.0
H98 H 0.22822 0.38146 0.26426 0.0
H99 H 0.36746 0.4442 0.18638 0.0
C100 C 0.23832 0.54734 0.04445 0.0
C101 C 0.18463 0.55901 0.03511 0.0
C102 C 0.1454 0.53709 0.06792 0.0
C103 C 0.15933 0.50284 0.10919 0.0
C104 C 0.21262 0.49112 0.11682 0.0
C105 C 0.25161 0.51348 0.0861 0.0
C106 C 0.306 0.4961 0.10422 0.0
C107 C 0.33363 0.4635 0.06139 0.0
C108 C 0.33956 0.544 0.12038 0.0
C109 C 0.29168 0.46178 0.15119 0.0
C110 C 0.23747 0.45811 0.15631 0.0
C111 C 0.21417 0.42799 0.19568 0.0
C112 C 0.24687 0.40328 0.23262 0.0
C113 C 0.30254 0.40991 0.23121 0.0
C114 C 0.32524 0.43812 0.18866 0.0
H115 H 0.66557 0.98889 0.28853 0.0
H116 H 0.75687 0.8446 0.28345 0.0
H117 H 0.81211 0.87707 0.35751 0.0
H118 H 0.78268 0.07232 0.31011 0.0
H119 H 0.74592 0.11945 0.34849 0.0
H120 H 0.71368 0.08194 0.29763 0.0
H121 H 0.64502 0.04994 0.3677 0.0
H122 H 0.67945 0.08644 0.41795 0.0
H123 H 0.66852 0.01644 0.42593 0.0
H124 H 0.85654 0.92569 0.43232 0.0
H125 H 0.88744 0.98678 0.50197 0.0
H126 H 0.77404 0.10395 0.45037 0.0
C127 C 0.69666 0.96393 0.30368 0.0
C128 C 0.70635 0.91377 0.28147 0.0
C129 C 0.74826 0.88259 0.30103 0.0
C130 C 0.77998 0.90094 0.34263 0.0
C131 C 0.77029 0.95131 0.36274 0.0
C132 C 0.73006 0.98267 0.34347 0.0
C133 C 0.73041 0.03676 0.36917 0.0
C134 C 0.74395 0.08019 0.32898 0.0
C135 C 0.67773 0.04802 0.39686 0.0
C136 C 0.7752 0.02998 0.40799 0.0
C137 C 0.79808 0.98059 0.40327 0.0
C138 C 0.83937 0.96465 0.43585 0.0
C139 C 0.85689 0.99964 0.47495 0.0
C140 C 0.83387 0.05026 0.48042 0.0
C141 C 0.79321 0.06599 0.44589 0.0
H142 H 0.15227 0.53117 0.71069 0.0
H143 H 0.26275 0.65937 0.73802 0.0
H144 H 0.31934 0.62594 0.66633 0.0
H145 H 0.24696 0.43336 0.69061 0.0
H146 H 0.21191 0.39846 0.63941 0.0
H147 H 0.17596 0.43581 0.68764 0.0
H148 H 0.13004 0.48968 0.61475 0.0
H149 H 0.16485 0.45214 0.56571 0.0
H150 H 0.16937 0.52324 0.56593 0.0
H151 H 0.36567 0.57685 0.59482 0.0
H152 H 0.39713 0.51671 0.52482 0.0
H153 H 0.26021 0.41667 0.54787 0.0
C154 C 0.18741 0.5532 0.7002 0.0
C155 C 0.20274 0.59854 0.72895 0.0
C156 C 0.25006 0.62512 0.71573 0.0
C157 C 0.28252 0.60625 0.67536 0.0
C158 C 0.26736 0.56038 0.64903 0.0
C159 C 0.22075 0.53436 0.6605 0.0
C160 C 0.21526 0.48426 0.62813 0.0
C161 C 0.21242 0.43504 0.66359 0.0
C162 C 0.16702 0.48755 0.59144 0.0
C163 C 0.26636 0.48586 0.5973 0.0
C164 C 0.29557 0.5304 0.60967 0.0
C165 C 0.34339 0.54166 0.58508 0.0
C166 C 0.36118 0.5072 0.54583 0.0
C167 C 0.3318 0.46162 0.53248 0.0
C168 C 0.28414 0.45044 0.55889 0.0
H169 H 0.74669 0.9157 0.95743 0.0
H170 H 0.61483 0.01926 0.98977 0.0
H171 H 0.64469 0.0802 0.91956 0.0
H172 H 0.83992 0.01759 0.93938 0.0
H173 H 0.87593 0.98558 0.88731 0.0
H174 H 0.84124 0.94644 0.93539 0.0
H175 H 0.78896 0.8992 0.86152 0.0
H176 H 0.82447 0.9373 0.8132 0.0
H177 H 0.75337 0.93802 0.81365 0.0
H178 H 0.68945 0.13043 0.84748 0.0
H179 H 0.74585 0.16615 0.77627 0.0
H180 H 0.85332 0.03451 0.79625 0.0
C181 C 0.72334 0.95036 0.94831 0.0
C182 C 0.67769 0.96241 0.97762 0.0
C183 C 0.6492 0.00911 0.96663 0.0
C184 C 0.66606 0.04399 0.92719 0.0
C185 C 0.71208 0.03196 0.89988 0.0
C186 C 0.74032 0.98622 0.9097 0.0
C187 C 0.79016 0.98442 0.8768 0.0
C188 C 0.83973 0.98347 0.91184 0.0
C189 C 0.78914 0.93693 0.83904 0.0
C190 C 0.78547 0.03633 0.84717 0.0
C191 C 0.7399 0.06287 0.86079 0.0
C192 C 0.72555 0.11038 0.83685 0.0
C193 C 0.75789 0.1306 0.79685 0.0
C194 C 0.80449 0.10392 0.7821 0.0
C195 C 0.81886 0.05669 0.80823 0.0
H196 H 0.01815 0.24096 0.55742 0.0
H197 H 0.06932 0.07796 0.54917 0.0
H198 H 0.14977 0.10654 0.50084 0.0
H199 H 0.06402 0.28495 0.43323 0.0
H200 H 0.08597 0.34864 0.45641 0.0
H201 H 0.03241 0.31522 0.48906 0.0
H202 H 0.08226 0.32127 0.57774 0.0
H203 H 0.13611 0.35486 0.54586 0.0
H204 H 0.14823 0.29533 0.58296 0.0
H205 H 0.22302 0.15344 0.45281 0.0
H206 H 0.28913 0.21461 0.4162 0.0
H207 H 0.19186 0.34827 0.46079 0.0
C208 C 0.04694 0.21146 0.54644 0.0
C209 C 0.03868 0.15747 0.55781 0.0
C210 C 0.07586 0.11956 0.54136 0.0
C211 C 0.12126 0.13548 0.51379 0.0
C212 C 0.12848 0.18933 0.50355 0.0
C213 C 0.09271 0.2268 0.52013 0.0
C214 C 0.1105 0.2823 0.50613 0.0
C215 C 0.07085 0.30934 0.46899 0.0
C216 C 0.11985 0.31536 0.55614 0.0
C217 C 0.16177 0.27032 0.47827 0.0
C218 C 0.17114 0.21643 0.47692 0.0
C219 C 0.2162 0.19564 0.45386 0.0
C220 C 0.25344 0.2308 0.43307 0.0
C221 C 0.2457 0.28629 0.43566 0.0
C222 C 0.19864 0.30614 0.45764 0.0
H223 H 0.0995 0.83388 0.82989 0.0
H224 H 0.97983 0.7126 0.81226 0.0
H225 H 0.92079 0.77649 0.76855 0.0
H226 H 0.00781 0.94634 0.84947 0.0
H227 H 0.04809 0.99104 0.8115 0.0
H228 H 0.07833 0.93748 0.84731 0.0
H229 H 0.12199 0.90487 0.76108 0.0
H230 H 0.09137 0.95788 0.72496 0.0
H231 H 0.08113 0.89037 0.7047 0.0
H232 H 0.87624 0.85199 0.72306 0.0
H233 H 0.84999 0.93446 0.67751 0.0
H234 H 1.00079 1.00482 0.71928 0.0
C235 C 0.06043 0.82144 0.81774 0.0
C236 C 0.04354 0.76891 0.8251 0.0
C237 C 0.99288 0.75313 0.80749 0.0
C238 C 0.95914 0.78903 0.78263 0.0
C239 C 0.97703 0.84042 0.77492 0.0
C240 C 0.02644 0.85673 0.79187 0.0
C241 C 0.03716 0.91324 0.77534 0.0
C242 C 0.04319 0.94914 0.82379 0.0
C243 C 0.08579 0.91676 0.73938 0.0
C244 C 0.98681 0.9254 0.74543 0.0
C245 C 0.95225 0.88323 0.74642 0.0
C246 C 0.90298 0.88537 0.7219 0.0
C247 C 0.88849 0.93218 0.69594 0.0
C248 C 0.92353 0.97575 0.69411 0.0
C249 C 0.97336 0.97194 0.7191 0.0
H250 H 0.2978 0.67285 0.99189 0.0
H251 H 0.25028 0.78765 0.87436 0.0
H252 H 0.31954 0.84936 0.90617 0.0
H253 H 0.31979 0.76431 0.09589 0.0
H254 H 0.37623 0.72984 0.12218 0.0
H255 H 0.32566 0.69378 0.08757 0.0
H256 H 0.39499 0.65657 0.0233 0.0
H257 H 0.4462 0.69199 0.05714 0.0
H258 H 0.4373 0.7014 0.98761 0.0
H259 H 0.3972 0.89648 0.94926 0.0
H260 H 0.47379 0.92656 1.00259 0.0
H261 H 0.46009 0.78678 0.09999 0.0
C262 C 0.30275 0.71064 0.97233 0.0
C263 C 0.26991 0.72531 0.92997 0.0
C264 C 0.27601 0.77562 0.90631 0.0
C265 C 0.3149 0.8109 0.9243 0.0
C266 C 0.34624 0.79564 0.96687 0.0
C267 C 0.34013 0.74689 0.99086 0.0
C268 C 0.37778 0.74039 0.03663 0.0
C269 C 0.34805 0.73159 0.08863 0.0
C270 C 0.41634 0.69493 0.0255 0.0
C271 C 0.40532 0.7936 0.03557 0.0
C272 C 0.38754 0.82446 0.99424 0.0
C273 C 0.41065 0.87319 0.98243 0.0
C274 C 0.45373 0.89019 0.01304 0.0
C275 C 0.47178 0.85946 0.05597 0.0
C276 C 0.44632 0.81133 0.06801 0.0
H277 H 0.40351 0.21168 0.27491 0.0
H278 H 0.52783 0.24999 0.38619 0.0
H279 H 0.58563 0.18353 0.34424 0.0
H280 H 0.43305 0.06788 0.27848 0.0
H281 H 0.41563 0.05817 0.21033 0.0
H282 H 0.38382 0.10924 0.24797 0.0
H283 H 0.41234 0.17818 0.17806 0.0
H284 H 0.44529 0.12749 0.14084 0.0
H285 H 0.48126 0.18521 0.16206 0.0
H286 H 0.63473 0.12862 0.28128 0.0
H287 H 0.66445 0.05697 0.22273 0.0
H288 H 0.50474 0.03914 0.16333 0.0
C289 C 0.44276 0.20553 0.29068 0.0
C290 C 0.46175 0.23629 0.33321 0.0
C291 C 0.51288 0.22699 0.35347 0.0
C292 C 0.54617 0.19015 0.3296 0.0
C293 C 0.52735 0.1622 0.28641 0.0
C294 C 0.47611 0.16722 0.26864 0.0
C295 C 0.46493 0.12787 0.2248 0.0
C296 C 0.42181 0.08844 0.2414 0.0
C297 C 0.45007 0.15641 0.1734 0.0
C298 C 0.51838 0.10111 0.22025 0.0
C299 C 0.55404 0.1232 0.25497 0.0
C300 C 0.60697 0.10907 0.2554 0.0
C301 C 0.62342 0.06862 0.22183 0.0
C302 C 0.58662 0.04103 0.19011 0.0
C303 C 0.53359 0.05868 0.1881 0.0
H304 H 0.75064 0.21239 0.49155 0.0
H305 H 0.71838 0.24119 0.65636 0.0
H306 H 0.64783 0.30436 0.63134 0.0
H307 H 0.72618 0.34863 0.44738 0.0
H308 H 0.6964 0.32857 0.38607 0.0
H309 H 0.74628 0.28786 0.41642 0.0
H310 H 0.68265 0.20689 0.41743 0.0
H311 H 0.63553 0.24816 0.38415 0.0
H312 H 0.61737 0.21488 0.44445 0.0
H313 H 0.58147 0.36316 0.58873 0.0
H314 H 0.51207 0.40168 0.53312 0.0
H315 H 0.58428 0.33265 0.39454 0.0
C316 C 0.72818 0.2318 0.52215 0.0
C317 C 0.73891 0.22182 0.57581 0.0
C318 C 0.7098 0.24809 0.61512 0.0
C319 C 0.6703 0.28436 0.60121 0.0
C320 C 0.66097 0.29402 0.54785 0.0
C321 C 0.68855 0.26802 0.5089 0.0
C322 C 0.66899 0.28382 0.45461 0.0
C323 C 0.71204 0.31401 0.42435 0.0
C324 C 0.64994 0.23543 0.42344 0.0
C325 C 0.62376 0.32023 0.46909 0.0
C326 C 0.62142 0.32707 0.52308 0.0
C327 C 0.58279 0.35796 0.54647 0.0
C328 C 0.54357 0.37984 0.51437 0.0
C329 C 0.54221 0.3697 0.45942 0.0
C330 C 0.58432 0.34146 0.43624 0.0
H331 H 1.00515 0.48058 0.84007 0.0
H332 H 0.1689 0.44449 0.80527 0.0
H333 H 0.13992 0.36858 0.75139 0.0
H334 H 0.95791 0.34297 0.84507 0.0
H335 H 0.89568 0.3597 0.81493 0.0
H336 H 0.92988 0.40765 0.85481 0.0
H337 H 0.927 0.47383 0.77689 0.0
H338 H 0.89405 0.42565 0.73629 0.0
H339 H 0.95498 0.45517 0.71445 0.0
H340 H 0.0934 0.30306 0.69423 0.0
H341 H 0.03262 0.24191 0.64945 0.0
H342 H 0.89885 0.32074 0.71987 0.0
C343 C 0.03511 0.45617 0.82202 0.0
C344 C 0.0894 0.46863 0.8269 0.0
C345 C 0.12717 0.43564 0.80247 0.0
C346 C 0.11106 0.39278 0.77132 0.0
C347 C 0.05719 0.38355 0.76506 0.0
C348 C 0.01978 0.4135 0.79064 0.0
C349 C 0.96432 0.39571 0.77673 0.0
C350 C 0.93524 0.37527 0.82581 0.0
C351 C 0.93328 0.44026 0.74948 0.0
C352 C 0.97635 0.35134 0.73875 0.0
C353 C 0.03021 0.34543 0.73226 0.0
C354 C 0.0512 0.30747 0.69885 0.0
C355 C 0.01631 0.27364 0.67258 0.0
C356 C 0.96113 0.27823 0.67937 0.0
C357 C 0.94086 0.31755 0.71291 0.0
H358 H 0.96173 0.72476 0.91038 0.0
H359 H 0.9742 0.58914 0.01378 0.0
H360 H 0.90014 0.62359 0.0673 0.0
H361 H 0.94154 0.81729 0.01067 0.0
H362 H 0.89628 0.85827 0.97411 0.0
H363 H 0.94511 0.81998 0.93982 0.0
H364 H 0.87243 0.775 0.88412 0.0
H365 H 0.82335 0.81398 0.91734 0.0
H366 H 0.81785 0.74292 0.9166 0.0
H367 H 0.82617 0.67382 0.10991 0.0
H368 H 0.75733 0.73639 0.13931 0.0
H369 H 0.79937 0.84367 0.01298 0.0
C370 C 0.94737 0.70135 0.94299 0.0
C371 C 0.97201 0.65332 0.95699 0.0
C372 C 0.95453 0.6252 1.0018 0.0
C373 C 0.91289 0.64469 0.03247 0.0
C374 C 0.89019 0.6929 0.01832 0.0
C375 C 0.90679 0.72091 0.97463 0.0
C376 C 0.87861 0.77359 0.97018 0.0
C377 C 0.91774 0.82001 0.97395 0.0
C378 C 0.84611 0.77651 0.91903 0.0
C379 C 0.84339 0.77082 0.01824 0.0
C380 C 0.85039 0.72372 0.04515 0.0
C381 C 0.82071 0.711 0.08951 0.0
C382 C 0.78204 0.74679 0.10611 0.0
C383 C 0.77428 0.79511 0.07916 0.0
C384 C 0.80583 0.80763 0.03514 0.0
H385 H 0.59439 0.73152 0.25881 0.0
H386 H 0.51909 0.71761 0.10605 0.0
H387 H 0.45725 0.65142 0.14213 0.0
H388 H 0.58892 0.58659 0.28033 0.0
H389 H 0.5814 0.59279 0.3506 0.0
H390 H 0.61709 0.64249 0.31429 0.0
H391 H 0.55529 0.71419 0.35248 0.0
H392 H 0.51858 0.6645 0.38784 0.0
H393 H 0.48502 0.70834 0.34294 0.0
H394 H 0.39587 0.59967 0.1977 0.0
H395 H 0.35955 0.53072 0.25657 0.0
H396 H 0.48582 0.56126 0.36824 0.0
C397 C 0.56518 0.7141 0.23291 0.0
C398 C 0.55954 0.73168 0.18018 0.0
C399 C 0.52236 0.70649 0.14702 0.0
C400 C 0.48705 0.66906 0.16713 0.0
C401 C 0.49143 0.65498 0.21986 0.0
C402 C 0.53144 0.67409 0.25154 0.0
C403 C 0.53128 0.64625 0.30466 0.0
C404 C 0.58272 0.61517 0.31294 0.0
C405 C 0.52199 0.68569 0.34963 0.0
C406 C 0.48429 0.60942 0.2978 0.0
C407 C 0.46082 0.61709 0.24935 0.0
C408 C 0.41475 0.59105 0.23482 0.0
C409 C 0.39401 0.55289 0.26895 0.0
C410 C 0.42014 0.54052 0.31665 0.0
C411 C 0.46524 0.56998 0.33184 0.0
loop_
_geom_bond_atom_site_label_1
_geom_bond_atom_site_label_2
_geom_bond_distance
_geom_bond_site_symmetry_2
_ccdc_geom_bond_type
Fe0 O2 1.918 . S
Fe0 O5 1.997 . S
Fe0 O6 2.002 . S
Fe0 O11 1.976 . S
Fe0 O14 1.996 . S
Fe1 O2 1.918 . S
Fe1 O9 1.997 . S
Fe1 O12 1.996 . S
Fe1 O16 1.976 . S
Fe1 O19 2.002 . S
O2 Fe0 1.918 . S
O2 Fe1 1.918 . S
O2 Fe3 1.918 . S
Fe3 O2 1.918 . S
Fe3 O4 2.002 . S
Fe3 O13 1.976 . S
Fe3 O17 1.996 . S
Fe3 O20 1.997 . S
O4 Fe3 2.002 . S
O4 C21 1.295 . S
O5 Fe0 1.997 . S
O5 C21 1.235 . S
O6 Fe0 2.002 . S
O6 C7 1.295 . S
C7 O6 1.295 . S
C7 O9 1.235 . S
C8 O13 1.287 . S
C8 O14 1.255 . S
O9 Fe1 1.997 . S
O9 C7 1.235 . S
C10 O16 1.287 . S
C10 O17 1.255 . S
O11 Fe0 1.976 . S
O11 C18 1.287 . S
O12 Fe1 1.996 . S
O12 C18 1.255 . S
O13 Fe3 1.976 . S
O13 C8 1.287 . S
O14 Fe0 1.996 . S
O14 C8 1.255 . S
C15 O19 1.295 . S
C15 O20 1.235 . S
O16 Fe1 1.976 . S
O16 C10 1.287 . S
O17 Fe3 1.996 . S
O17 C10 1.255 . S
C18 O11 1.287 . S
C18 O12 1.255 . S
O19 Fe1 2.002 . S
O19 C15 1.295 . S
O20 Fe3 1.997 . S
O20 C15 1.235 . S
C21 O4 1.295 . S
C21 O5 1.235 . S
Fe22 O24 1.918 . S
Fe22 O27 1.997 . S
Fe22 O28 2.002 . S
Fe22 O33 1.976 . S
Fe22 O36 1.996 . S
Fe23 O24 1.918 . S
Fe23 O31 1.997 . S
Fe23 O34 1.996 . S
Fe23 O38 1.976 . S
Fe23 O41 2.002 . S
O24 Fe22 1.918 . S
O24 Fe23 1.918 . S
O24 Fe25 1.918 . S
Fe25 O24 1.918 . S
Fe25 O26 2.002 . S
Fe25 O35 1.976 . S
Fe25 O39 1.996 . S
Fe25 O42 1.997 . S
O26 Fe25 2.002 . S
O26 C43 1.295 . S
O27 Fe22 1.997 . S
O27 C43 1.235 . S
O28 Fe22 2.002 . S
O28 C29 1.295 . S
C29 O28 1.295 . S
C29 O31 1.235 . S
C30 O35 1.287 . S
C30 O36 1.255 . S
O31 Fe23 1.997 . S
O31 C29 1.235 . S
C32 O38 1.287 . S
C32 O39 1.255 . S
O33 Fe22 1.976 . S
O33 C40 1.287 . S
O34 Fe23 1.996 . S
O34 C40 1.255 . S
O35 Fe25 1.976 . S
O35 C30 1.287 . S
O36 Fe22 1.996 . S
O36 C30 1.255 . S
C37 O41 1.295 . S
C37 O42 1.235 . S
O38 Fe23 1.976 . S
O38 C32 1.287 . S
O39 Fe25 1.996 . S
O39 C32 1.255 . S
C40 O33 1.287 . S
C40 O34 1.255 . S
O41 Fe23 2.002 . S
O41 C37 1.295 . S
O42 Fe25 1.997 . S
O42 C37 1.235 . S
C43 O26 1.295 . S
C43 O27 1.235 . S
Fe44 O46 1.918 . S
Fe44 O49 1.997 . S
Fe44 O50 2.002 . S
Fe44 O55 1.976 . S
Fe44 O58 1.996 . S
Fe45 O46 1.918 . S
Fe45 O53 1.997 . S
Fe45 O56 1.996 . S
Fe45 O60 1.976 . S
Fe45 O63 2.002 . S
O46 Fe44 1.918 . S
O46 Fe45 1.918 . S
O46 Fe47 1.918 . S
Fe47 O46 1.918 . S
Fe47 O48 2.002 . S
Fe47 O57 1.976 . S
Fe47 O61 1.996 . S
Fe47 O64 1.997 . S
O48 Fe47 2.002 . S
O48 C65 1.295 . S
O49 Fe44 1.997 . S
O49 C65 1.235 . S
O50 Fe44 2.002 . S
O50 C51 1.295 . S
C51 O50 1.295 . S
C51 O53 1.235 . S
C52 O57 1.287 . S
C52 O58 1.255 . S
O53 Fe45 1.997 . S
O53 C51 1.235 . S
C54 O60 1.287 . S
C54 O61 1.255 . S
O55 Fe44 1.976 . S
O55 C62 1.287 . S
O56 Fe45 1.996 . S
O56 C62 1.255 . S
O57 Fe47 1.976 . S
O57 C52 1.287 . S
O58 Fe44 1.996 . S
O58 C52 1.255 . S
C59 O63 1.295 . S
C59 O64 1.235 . S
O60 Fe45 1.976 . S
O60 C54 1.287 . S
O61 Fe47 1.996 . S
O61 C54 1.255 . S
C62 O55 1.287 . S
C62 O56 1.255 . S
O63 Fe45 2.002 . S
O63 C59 1.295 . S
O64 Fe47 1.997 . S
O64 C59 1.235 . S
C65 O48 1.295 . S
C65 O49 1.235 . S
Fe66 O68 1.918 . S
Fe66 O71 1.997 . S
Fe66 O72 2.002 . S
Fe66 O77 1.976 . S
Fe66 O80 1.996 . S
Fe67 O68 1.918 . S
Fe67 O75 1.997 . S
Fe67 O78 1.996 . S
Fe67 O82 1.976 . S
Fe67 O85 2.002 . S
O68 Fe66 1.918 . S
O68 Fe67 1.918 . S
O68 Fe69 1.918 . S
Fe69 O68 1.918 . S
Fe69 O70 2.002 . S
Fe69 O79 1.976 . S
Fe69 O83 1.996 . S
Fe69 O86 1.997 . S
O70 Fe69 2.002 . S
O70 C87 1.295 . S
O71 Fe66 1.997 . S
O71 C87 1.235 . S
O72 Fe66 2.002 . S
O72 C73 1.295 . S
C73 O72 1.295 . S
C73 O75 1.235 . S
C74 O79 1.287 . S
C74 O80 1.255 . S
O75 Fe67 1.997 . S
O75 C73 1.235 . S
C76 O82 1.287 . S
C76 O83 1.255 . S
O77 Fe66 1.976 . S
O77 C84 1.287 . S
O78 Fe67 1.996 . S
O78 C84 1.255 . S
O79 Fe69 1.976 . S
O79 C74 1.287 . S
O80 Fe66 1.996 . S
O80 C74 1.255 . S
C81 O85 1.295 . S
C81 O86 1.235 . S
O82 Fe67 1.976 . S
O82 C76 1.287 . S
O83 Fe69 1.996 . S
O83 C76 1.255 . S
C84 O77 1.287 . S
C84 O78 1.255 . S
O85 Fe67 2.002 . S
O85 C81 1.295 . S
O86 Fe69 1.997 . S
O86 C81 1.235 . S
C87 O70 1.295 . S
C87 O71 1.235 . S
H88 C100 0.930 . S
H89 C102 0.930 . S
H90 C103 0.930 . S
H91 C107 0.959 . S
H92 C107 0.959 . S
H93 C107 0.961 . S
H94 C108 0.960 . S
H95 C108 0.961 . S
H96 C108 0.959 . S
H97 C111 0.929 . S
H98 C112 0.931 . S
H99 C114 0.930 . S
C100 H88 0.930 . S
C100 C101 1.399 . S
C100 C105 1.399 . S
C101 C100 1.399 . S
C101 C102 1.376 . S
C102 H89 0.930 . S
C102 C101 1.376 . S
C102 C103 1.388 . S
C103 H90 0.930 . S
C103 C102 1.388 . S
C103 C104 1.390 . S
C104 C103 1.390 . S
C104 C105 1.394 . S
C104 C110 1.465 . S
C105 C100 1.399 . S
C105 C104 1.394 . S
C105 C106 1.516 . S
C106 C105 1.516 . S
C106 C107 1.502 . S
C106 C108 1.561 . S
C106 C109 1.526 . S
C107 H91 0.959 . S
C107 H92 0.959 . S
C107 H93 0.961 . S
C107 C106 1.502 . S
C108 H94 0.960 . S
C108 H95 0.961 . S
C108 H96 0.959 . S
C108 C106 1.561 . S
C109 C106 1.526 . S
C109 C110 1.396 . S
C109 C114 1.390 . S
C110 C104 1.465 . S
C110 C109 1.396 . S
C110 C111 1.399 . S
C111 H97 0.929 . S
C111 C110 1.399 . S
C111 C112 1.385 . S
C112 H98 0.931 . S
C112 C111 1.385 . S
C112 C113 1.389 . S
C113 C112 1.389 . S
C113 C114 1.387 . S
C114 H99 0.930 . S
C114 C109 1.390 . S
C114 C113 1.387 . S
H115 C127 0.930 . S
H116 C129 0.930 . S
H117 C130 0.930 . S
H118 C134 0.959 . S
H119 C134 0.959 . S
H120 C134 0.961 . S
H121 C135 0.960 . S
H122 C135 0.961 . S
H123 C135 0.959 . S
H124 C138 0.929 . S
H125 C139 0.931 1_565 S
H126 C141 0.930 . S
C127 H115 0.930 . S
C127 C128 1.399 . S
C127 C132 1.399 . S
C128 C127 1.399 . S
C128 C129 1.376 . S
C129 H116 0.930 . S
C129 C128 1.376 . S
C129 C130 1.388 . S
C130 H117 0.930 . S
C130 C129 1.388 . S
C130 C131 1.390 . S
C131 C130 1.390 . S
C131 C132 1.394 . S
C131 C137 1.465 . S
C132 C127 1.399 . S
C132 C131 1.394 . S
C132 C133 1.516 1_565 S
C133 C132 1.516 1_545 S
C133 C134 1.502 . S
C133 C135 1.561 . S
C133 C136 1.526 . S
C134 H118 0.959 . S
C134 H119 0.959 . S
C134 H120 0.961 . S
C134 C133 1.502 . S
C135 H121 0.960 . S
C135 H122 0.961 . S
C135 H123 0.959 . S
C135 C133 1.561 . S
C136 C133 1.526 . S
C136 C137 1.396 1_545 S
C136 C141 1.390 . S
C137 C131 1.465 . S
C137 C136 1.396 1_565 S
C137 C138 1.399 . S
C138 H124 0.929 . S
C138 C137 1.399 . S
C138 C139 1.385 1_565 S
C139 H125 0.931 1_545 S
C139 C138 1.385 1_545 S
C139 C140 1.389 . S
C140 C139 1.389 . S
C140 C141 1.387 . S
C141 H126 0.930 . S
C141 C136 1.390 . S
C141 C140 1.387 . S
H142 C154 0.930 . S
H143 C156 0.930 . S
H144 C157 0.930 . S
H145 C161 0.959 . S
H146 C161 0.959 . S
H147 C161 0.961 . S
H148 C162 0.960 . S
H149 C162 0.961 . S
H150 C162 0.959 . S
H151 C165 0.929 . S
H152 C166 0.931 . S
H153 C168 0.930 . S
C154 H142 0.930 . S
C154 C155 1.399 . S
C154 C159 1.399 . S
C155 C154 1.399 . S
C155 C156 1.376 . S
C156 H143 0.930 . S
C156 C155 1.376 . S
C156 C157 1.388 . S
C157 H144 0.930 . S
C157 C156 1.388 . S
C157 C158 1.390 . S
C158 C157 1.390 . S
C158 C159 1.394 . S
C158 C164 1.465 . S
C159 C154 1.399 . S
C159 C158 1.394 . S
C159 C160 1.516 . S
C160 C159 1.516 . S
C160 C161 1.502 . S
C160 C162 1.561 . S
C160 C163 1.526 . S
C161 H145 0.959 . S
C161 H146 0.959 . S
C161 H147 0.961 . S
C161 C160 1.502 . S
C162 H148 0.960 . S
C162 H149 0.961 . S
C162 H150 0.959 . S
C162 C160 1.561 . S
C163 C160 1.526 . S
C163 C164 1.396 . S
C163 C168 1.390 . S
C164 C158 1.465 . S
C164 C163 1.396 . S
C164 C165 1.399 . S
C165 H151 0.929 . S
C165 C164 1.399 . S
C165 C166 1.385 . S
C166 H152 0.931 . S
C166 C165 1.385 . S
C166 C167 1.389 . S
C167 C166 1.389 . S
C167 C168 1.387 . S
C168 H153 0.930 . S
C168 C163 1.390 . S
C168 C167 1.387 . S
H169 C181 0.930 . S
H170 C183 0.930 1_544 S
H171 C184 0.930 . S
H172 C188 0.959 . S
H173 C188 0.959 . S
H174 C188 0.961 . S
H175 C189 0.960 . S
H176 C189 0.961 . S
H177 C189 0.959 . S
H178 C192 0.929 . S
H179 C193 0.931 . S
H180 C195 0.930 . S
C181 H169 0.930 . S
C181 C182 1.399 . S
C181 C186 1.399 . S
C182 C181 1.399 . S
C182 C183 1.376 . S
C183 H170 0.930 1_566 S
C183 C182 1.376 . S
C183 C184 1.388 1_565 S
C184 H171 0.930 . S
C184 C183 1.388 1_545 S
C184 C185 1.390 . S
C185 C184 1.390 . S
C185 C186 1.394 1_545 S
C185 C191 1.465 . S
C186 C181 1.399 . S
C186 C185 1.394 1_565 S
C186 C187 1.516 . S
C187 C186 1.516 . S
C187 C188 1.502 . S
C187 C189 1.561 . S
C187 C190 1.526 1_565 S
C188 H172 0.959 . S
C188 H173 0.959 . S
C188 H174 0.961 . S
C188 C187 1.502 . S
C189 H175 0.960 . S
C189 H176 0.961 . S
C189 H177 0.959 . S
C189 C187 1.561 . S
C190 C187 1.526 1_545 S
C190 C191 1.396 . S
C190 C195 1.390 . S
C191 C185 1.465 . S
C191 C190 1.396 . S
C191 C192 1.399 . S
C192 H178 0.929 . S
C192 C191 1.399 . S
C192 C193 1.385 . S
C193 H179 0.931 . S
C193 C192 1.385 . S
C193 C194 1.389 . S
C194 C193 1.389 . S
C194 C195 1.387 . S
C195 H180 0.930 . S
C195 C190 1.390 . S
C195 C194 1.387 . S
H196 C208 0.930 . S
H197 C210 0.930 . S
H198 C211 0.930 . S
H199 C215 0.959 . S
H200 C215 0.959 . S
H201 C215 0.961 . S
H202 C216 0.960 . S
H203 C216 0.961 . S
H204 C216 0.959 . S
H205 C219 0.929 . S
H206 C220 0.931 . S
H207 C222 0.930 . S
C208 H196 0.930 . S
C208 C209 1.399 . S
C208 C213 1.399 . S
C209 C208 1.399 . S
C209 C210 1.376 . S
C210 H197 0.930 . S
C210 C209 1.376 . S
C210 C211 1.388 . S
C211 H198 0.930 . S
C211 C210 1.388 . S
C211 C212 1.390 . S
C212 C211 1.390 . S
C212 C213 1.394 . S
C212 C218 1.465 . S
C213 C208 1.399 . S
C213 C212 1.394 . S
C213 C214 1.516 . S
C214 C213 1.516 . S
C214 C215 1.502 . S
C214 C216 1.561 . S
C214 C217 1.526 . S
C215 H199 0.959 . S
C215 H200 0.959 . S
C215 H201 0.961 . S
C215 C214 1.502 . S
C216 H202 0.960 . S
C216 H203 0.961 . S
C216 H204 0.959 . S
C216 C214 1.561 . S
C217 C214 1.526 . S
C217 C218 1.396 . S
C217 C222 1.390 . S
C218 C212 1.465 . S
C218 C217 1.396 . S
C218 C219 1.399 . S
C219 H205 0.929 . S
C219 C218 1.399 . S
C219 C220 1.385 . S
C220 H206 0.931 . S
C220 C219 1.385 . S
C220 C221 1.389 . S
C221 C220 1.389 . S
C221 C222 1.387 . S
C222 H207 0.930 . S
C222 C217 1.390 . S
C222 C221 1.387 . S
H223 C235 0.930 . S
H224 C237 0.930 . S
H225 C238 0.930 . S
H226 C242 0.959 . S
H227 C242 0.959 . S
H228 C242 0.961 1_455 S
H229 C243 0.960 . S
H230 C243 0.961 . S
H231 C243 0.959 . S
H232 C246 0.929 . S
H233 C247 0.931 . S
H234 C249 0.930 1_545 S
C235 H223 0.930 . S
C235 C236 1.399 . S
C235 C240 1.399 . S
C236 C235 1.399 . S
C236 C237 1.376 . S
C237 H224 0.930 . S
C237 C236 1.376 . S
C237 C238 1.388 . S
C238 H225 0.930 . S
C238 C237 1.388 . S
C238 C239 1.390 . S
C239 C238 1.390 . S
C239 C240 1.394 . S
C239 C245 1.465 1_455 S
C240 C235 1.399 . S
C240 C239 1.394 . S
C240 C241 1.516 . S
C241 C240 1.516 . S
C241 C242 1.502 1_455 S
C241 C243 1.561 . S
C241 C244 1.526 1_455 S
C242 H226 0.959 . S
C242 H227 0.959 . S
C242 H228 0.961 1_655 S
C242 C241 1.502 1_655 S
C243 H229 0.960 . S
C243 H230 0.961 . S
C243 H231 0.959 . S
C243 C241 1.561 . S
C244 C241 1.526 1_655 S
C244 C245 1.396 . S
C244 C249 1.390 . S
C245 C239 1.465 1_655 S
C245 C244 1.396 . S
C245 C246 1.399 . S
C246 H232 0.929 . S
C246 C245 1.399 . S
C246 C247 1.385 . S
C247 H233 0.931 . S
C247 C246 1.385 . S
C247 C248 1.389 . S
C248 C247 1.389 . S
C248 C249 1.387 . S
C249 H234 0.930 1_565 S
C249 C244 1.390 . S
C249 C248 1.387 . S
H250 C262 0.930 . S
H251 C264 0.930 . S
H252 C265 0.930 . S
H253 C269 0.959 . S
H254 C269 0.959 . S
H255 C269 0.961 . S
H256 C270 0.960 . S
H257 C270 0.961 . S
H258 C270 0.959 . S
H259 C273 0.929 . S
H260 C274 0.931 1_556 S
H261 C276 0.930 . S
C262 H250 0.930 . S
C262 C263 1.399 . S
C262 C267 1.399 . S
C263 C262 1.399 . S
C263 C264 1.376 . S
C264 H251 0.930 . S
C264 C263 1.376 . S
C264 C265 1.388 . S
C265 H252 0.930 . S
C265 C264 1.388 . S
C265 C266 1.390 . S
C266 C265 1.390 . S
C266 C267 1.394 . S
C266 C272 1.465 . S
C267 C262 1.399 . S
C267 C266 1.394 . S
C267 C268 1.516 1_556 S
C268 C267 1.516 1_554 S
C268 C269 1.502 . S
C268 C270 1.561 . S
C268 C271 1.526 . S
C269 H253 0.959 . S
C269 H254 0.959 . S
C269 H255 0.961 . S
C269 C268 1.502 . S
C270 H256 0.960 . S
C270 H257 0.961 . S
C270 H258 0.959 . S
C270 C268 1.561 . S
C271 C268 1.526 . S
C271 C272 1.396 1_554 S
C271 C276 1.390 . S
C272 C266 1.465 . S
C272 C271 1.396 1_556 S
C272 C273 1.399 . S
C273 H259 0.929 . S
C273 C272 1.399 . S
C273 C274 1.385 1_556 S
C274 H260 0.931 1_554 S
C274 C273 1.385 1_554 S
C274 C275 1.389 . S
C275 C274 1.389 . S
C275 C276 1.387 . S
C276 H261 0.930 . S
C276 C271 1.390 . S
C276 C275 1.387 . S
H277 C289 0.930 . S
H278 C291 0.930 . S
H279 C292 0.930 . S
H280 C296 0.959 . S
H281 C296 0.959 . S
H282 C296 0.961 . S
H283 C297 0.960 . S
H284 C297 0.961 . S
H285 C297 0.959 . S
H286 C300 0.929 . S
H287 C301 0.931 . S
H288 C303 0.930 . S
C289 H277 0.930 . S
C289 C290 1.399 . S
C289 C294 1.399 . S
C290 C289 1.399 . S
C290 C291 1.376 . S
C291 H278 0.930 . S
C291 C290 1.376 . S
C291 C292 1.388 . S
C292 H279 0.930 . S
C292 C291 1.388 . S
C292 C293 1.390 . S
C293 C292 1.390 . S
C293 C294 1.394 . S
C293 C299 1.465 . S
C294 C289 1.399 . S
C294 C293 1.394 . S
C294 C295 1.516 . S
C295 C294 1.516 . S
C295 C296 1.502 . S
C295 C297 1.561 . S
C295 C298 1.526 . S
C296 H280 0.959 . S
C296 H281 0.959 . S
C296 H282 0.961 . S
C296 C295 1.502 . S
C297 H283 0.960 . S
C297 H284 0.961 . S
C297 H285 0.959 . S
C297 C295 1.561 . S
C298 C295 1.526 . S
C298 C299 1.396 . S
C298 C303 1.390 . S
C299 C293 1.465 . S
C299 C298 1.396 . S
C299 C300 1.399 . S
C300 H286 0.929 . S
C300 C299 1.399 . S
C300 C301 1.385 . S
C301 H287 0.931 . S
C301 C300 1.385 . S
C301 C302 1.389 . S
C302 C301 1.389 . S
C302 C303 1.387 . S
C303 H288 0.930 . S
C303 C298 1.390 . S
C303 C302 1.387 . S
H304 C316 0.930 . S
H305 C318 0.930 . S
H306 C319 0.930 . S
H307 C323 0.959 . S
H308 C323 0.959 . S
H309 C323 0.961 . S
H310 C324 0.960 . S
H311 C324 0.961 . S
H312 C324 0.959 . S
H313 C327 0.929 . S
H314 C328 0.931 . S
H315 C330 0.930 . S
C316 H304 0.930 . S
C316 C317 1.399 . S
C316 C321 1.399 . S
C317 C316 1.399 . S
C317 C318 1.376 . S
C318 H305 0.930 . S
C318 C317 1.376 . S
C318 C319 1.388 . S
C319 H306 0.930 . S
C319 C318 1.388 . S
C319 C320 1.390 . S
C320 C319 1.390 . S
C320 C321 1.394 . S
C320 C326 1.465 . S
C321 C316 1.399 . S
C321 C320 1.394 . S
C321 C322 1.516 . S
C322 C321 1.516 . S
C322 C323 1.502 . S
C322 C324 1.561 . S
C322 C325 1.526 . S
C323 H307 0.959 . S
C323 H308 0.959 . S
C323 H309 0.961 . S
C323 C322 1.502 . S
C324 H310 0.960 . S
C324 H311 0.961 . S
C324 H312 0.959 . S
C324 C322 1.561 . S
C325 C322 1.526 . S
C325 C326 1.396 . S
C325 C330 1.390 . S
C326 C320 1.465 . S
C326 C325 1.396 . S
C326 C327 1.399 . S
C327 H313 0.929 . S
C327 C326 1.399 . S
C327 C328 1.385 . S
C328 H314 0.931 . S
C328 C327 1.385 . S
C328 C329 1.389 . S
C329 C328 1.389 . S
C329 C330 1.387 . S
C330 H315 0.930 . S
C330 C325 1.390 . S
C330 C329 1.387 . S
H331 C343 0.930 . S
H332 C345 0.930 . S
H333 C346 0.930 . S
H334 C350 0.959 . S
H335 C350 0.959 . S
H336 C350 0.961 . S
H337 C351 0.960 . S
H338 C351 0.961 . S
H339 C351 0.959 1_455 S
H340 C354 0.930 . S
H341 C355 0.931 . S
H342 C357 0.930 . S
C343 H331 0.930 . S
C343 C344 1.399 . S
C343 C348 1.399 . S
C344 C343 1.399 . S
C344 C345 1.376 . S
C345 H332 0.930 . S
C345 C344 1.376 . S
C345 C346 1.388 . S
C346 H333 0.930 . S
C346 C345 1.388 . S
C346 C347 1.390 . S
C347 C346 1.390 . S
C347 C348 1.394 . S
C347 C353 1.465 1_455 S
C348 C343 1.399 . S
C348 C347 1.394 . S
C348 C349 1.516 1_455 S
C349 C348 1.516 1_655 S
C349 C350 1.502 . S
C349 C351 1.561 . S
C349 C352 1.526 . S
C350 H334 0.959 . S
C350 H335 0.959 . S
C350 H336 0.961 . S
C350 C349 1.502 . S
C351 H337 0.960 . S
C351 H338 0.961 . S
C351 H339 0.959 1_655 S
C351 C349 1.561 . S
C352 C349 1.526 . S
C352 C353 1.396 . S
C352 C357 1.390 . S
C353 C347 1.465 1_655 S
C353 C352 1.396 . S
C353 C354 1.399 1_655 S
C354 H340 0.930 . S
C354 C353 1.399 1_455 S
C354 C355 1.385 1_455 S
C355 H341 0.931 . S
C355 C354 1.385 1_655 S
C355 C356 1.389 . S
C356 C355 1.389 . S
C356 C357 1.387 . S
C357 H342 0.930 . S
C357 C352 1.390 . S
C357 C356 1.387 . S
H358 C370 0.930 . S
H359 C372 0.930 . S
H360 C373 0.930 . S
H361 C377 0.959 . S
H362 C377 0.959 . S
H363 C377 0.961 . S
H364 C378 0.960 . S
H365 C378 0.961 . S
H366 C378 0.959 . S
H367 C381 0.929 . S
H368 C382 0.931 . S
H369 C384 0.930 . S
C370 H358 0.930 . S
C370 C371 1.399 . S
C370 C375 1.399 . S
C371 C370 1.399 . S
C371 C372 1.376 . S
C372 H359 0.930 . S
C372 C371 1.376 . S
C372 C373 1.388 1_556 S
C373 H360 0.930 . S
C373 C372 1.388 1_554 S
C373 C374 1.390 . S
C374 C373 1.390 . S
C374 C375 1.394 1_554 S
C374 C380 1.465 . S
C375 C370 1.399 . S
C375 C374 1.394 1_556 S
C375 C376 1.516 . S
C376 C375 1.516 . S
C376 C377 1.502 . S
C376 C378 1.561 . S
C376 C379 1.526 1_556 S
C377 H361 0.959 . S
C377 H362 0.959 . S
C377 H363 0.961 . S
C377 C376 1.502 . S
C378 H364 0.960 . S
C378 H365 0.961 . S
C378 H366 0.959 . S
C378 C376 1.561 . S
C379 C376 1.526 1_554 S
C379 C380 1.396 . S
C379 C384 1.390 . S
C380 C374 1.465 . S
C380 C379 1.396 . S
C380 C381 1.399 . S
C381 H367 0.929 . S
C381 C380 1.399 . S
C381 C382 1.385 . S
C382 H368 0.931 . S
C382 C381 1.385 . S
C382 C383 1.389 . S
C383 C382 1.389 . S
C383 C384 1.387 . S
C384 H369 0.930 . S
C384 C379 1.390 . S
C384 C383 1.387 . S
H385 C397 0.930 . S
H386 C399 0.930 . S
H387 C400 0.930 . S
H388 C404 0.959 . S
H389 C404 0.959 . S
H390 C404 0.961 . S
H391 C405 0.960 . S
H392 C405 0.961 . S
H393 C405 0.959 . S
H394 C408 0.929 . S
H395 C409 0.931 . S
H396 C411 0.930 . S
C397 H385 0.930 . S
C397 C398 1.399 . S
C397 C402 1.399 . S
C398 C397 1.399 . S
C398 C399 1.376 . S
C399 H386 0.930 . S
C399 C398 1.376 . S
C399 C400 1.388 . S
C400 H387 0.930 . S
C400 C399 1.388 . S
C400 C401 1.390 . S
C401 C400 1.390 . S
C401 C402 1.394 . S
C401 C407 1.465 . S
C402 C397 1.399 . S
C402 C401 1.394 . S
C402 C403 1.516 . S
C403 C402 1.516 . S
C403 C404 1.502 . S
C403 C405 1.561 . S
C403 C406 1.526 . S
C404 H388 0.959 . S
C404 H389 0.959 . S
C404 H390 0.961 . S
C404 C403 1.502 . S
C405 H391 0.960 . S
C405 H392 0.961 . S
C405 H393 0.959 . S
C405 C403 1.561 . S
C406 C403 1.526 . S
C406 C407 1.396 . S
C406 C411 1.390 . S
C407 C401 1.465 . S
C407 C406 1.396 . S
C407 C408 1.399 . S
C408 H394 0.929 . S
C408 C407 1.399 . S
C408 C409 1.385 . S
C409 H395 0.931 . S
C409 C408 1.385 . S
C409 C410 1.389 . S
C410 C409 1.389 . S
C410 C411 1.387 . S
C411 H396 0.930 . S
C411 C406 1.390 . S
C411 C410 1.387 . S
C101 C59 1.387 1_554 S
C113 C21 1.346 . S
C128 C84 1.396 . S
C140 C29 1.356 . S
C155 C62 1.350 . S
C167 C10 1.286 . S
C182 C81 1.365 1_556 S
C194 C30 1.391 . S
C209 C37 1.437 1_455 S
C221 C15 1.394 . S
C236 C52 1.350 . S
C248 C43 1.389 1_565 S
C263 C54 1.396 . S
C275 C87 1.358 . S
C290 C7 1.344 . S
C302 C73 1.393 1_545 S
C317 C40 1.353 . S
C329 C18 1.307 . S
C344 C51 1.360 . S
C356 C32 1.325 . S
C371 C65 1.384 1_655 S
C383 C76 1.372 . S
C398 C74 1.307 . S
C410 C8 1.286 . S
