# Generated by pormake.
# Topology smd, (6)-cn, num edge types: 1
# Building blocks:
#     Node 0, Type 0, BuildingBlock: NUHQIS_clean_sbu_0, # of connection points: 6
#     Node 1, Type 0, BuildingBlock: NUHQIS_clean_sbu_0, # of connection points: 6
#     Node 2, Type 0, BuildingBlock: NUHQIS_clean_sbu_0, # of connection points: 6
#     Node 3, Type 0, BuildingBlock: NUHQIS_clean_sbu_0, # of connection points: 6
#     Node 4, Type 0, BuildingBlock: NUHQIS_clean_sbu_0, # of connection points: 6
#     Node 5, Type 0, BuildingBlock: NUHQIS_clean_sbu_0, # of connection points: 6
#     Node 6, Type 0, BuildingBlock: NUHQIS_clean_sbu_0, # of connection points: 6
#     Node 7, Type 0, BuildingBlock: NUHQIS_clean_sbu_0, # of connection points: 6
#     Node 8, Type 0, BuildingBlock: NUHQIS_clean_sbu_0, # of connection points: 6
#     Node 9, Type 0, BuildingBlock: NUHQIS_clean_sbu_0, # of connection points: 6
#     Node 10, Type 0, BuildingBlock: NUHQIS_clean_sbu_0, # of connection points: 6
#     Node 11, Type 0, BuildingBlock: NUHQIS_clean_sbu_0, # of connection points: 6
#     Node 12, Type 0, BuildingBlock: NUHQIS_clean_sbu_0, # of connection points: 6
#     Node 13, Type 0, BuildingBlock: NUHQIS_clean_sbu_0, # of connection points: 6
#     Node 14, Type 0, BuildingBlock: NUHQIS_clean_sbu_0, # of connection points: 6
#     Node 15, Type 0, BuildingBlock: NUHQIS_clean_sbu_0, # of connection points: 6
#     Node 16, Type 0, BuildingBlock: NUHQIS_clean_sbu_0, # of connection points: 6
#     Node 17, Type 0, BuildingBlock: NUHQIS_clean_sbu_0, # of connection points: 6
#     Edge 18, Type (0, 0), BuildingBlock: AJUNOK_clean_linker_0, # of connection points: 2
#     Edge 19, Type (0, 0), BuildingBlock: AJUNOK_clean_linker_0, # of connection points: 2
#     Edge 20, Type (0, 0), BuildingBlock: AJUNOK_clean_linker_0, # of connection points: 2
#     Edge 21, Type (0, 0), BuildingBlock: AJUNOK_clean_linker_0, # of connection points: 2
#     Edge 22, Type (0, 0), BuildingBlock: AJUNOK_clean_linker_0, # of connection points: 2
#     Edge 23, Type (0, 0), BuildingBlock: AJUNOK_clean_linker_0, # of connection points: 2
#     Edge 24, Type (0, 0), BuildingBlock: AJUNOK_clean_linker_0, # of connection points: 2
#     Edge 25, Type (0, 0), BuildingBlock: AJUNOK_clean_linker_0, # of connection points: 2
#     Edge 26, Type (0, 0), BuildingBlock: AJUNOK_clean_linker_0, # of connection points: 2
#     Edge 27, Type (0, 0), BuildingBlock: AJUNOK_clean_linker_0, # of connection points: 2
#     Edge 28, Type (0, 0), BuildingBlock: AJUNOK_clean_linker_0, # of connection points: 2
#     Edge 29, Type (0, 0), BuildingBlock: AJUNOK_clean_linker_0, # of connection points: 2
#     Edge 30, Type (0, 0), BuildingBlock: AJUNOK_clean_linker_0, # of connection points: 2
#     Edge 31, Type (0, 0), BuildingBlock: AJUNOK_clean_linker_0, # of connection points: 2
#     Edge 32, Type (0, 0), BuildingBlock: AJUNOK_clean_linker_0, # of connection points: 2
#     Edge 33, Type (0, 0), BuildingBlock: AJUNOK_clean_linker_0, # of connection points: 2
#     Edge 34, Type (0, 0), BuildingBlock: AJUNOK_clean_linker_0, # of connection points: 2
#     Edge 35, Type (0, 0), BuildingBlock: AJUNOK_clean_linker_0, # of connection points: 2
#     Edge 36, Type (0, 0), BuildingBlock: AJUNOK_clean_linker_0, # of connection points: 2
#     Edge 37, Type (0, 0), BuildingBlock: AJUNOK_clean_linker_0, # of connection points: 2
#     Edge 38, Type (0, 0), BuildingBlock: AJUNOK_clean_linker_0, # of connection points: 2
#     Edge 39, Type (0, 0), BuildingBlock: AJUNOK_clean_linker_0, # of connection points: 2
#     Edge 40, Type (0, 0), BuildingBlock: AJUNOK_clean_linker_0, # of connection points: 2
#     Edge 41, Type (0, 0), BuildingBlock: AJUNOK_clean_linker_0, # of connection points: 2
#     Edge 42, Type (0, 0), BuildingBlock: AJUNOK_clean_linker_0, # of connection points: 2
#     Edge 43, Type (0, 0), BuildingBlock: AJUNOK_clean_linker_0, # of connection points: 2
#     Edge 44, Type (0, 0), BuildingBlock: AJUNOK_clean_linker_0, # of connection points: 2
#     Edge 45, Type (0, 0), BuildingBlock: AJUNOK_clean_linker_0, # of connection points: 2
#     Edge 46, Type (0, 0), BuildingBlock: AJUNOK_clean_linker_0, # of connection points: 2
#     Edge 47, Type (0, 0), BuildingBlock: AJUNOK_clean_linker_0, # of connection points: 2
#     Edge 48, Type (0, 0), BuildingBlock: AJUNOK_clean_linker_0, # of connection points: 2
#     Edge 49, Type (0, 0), BuildingBlock: AJUNOK_clean_linker_0, # of connection points: 2
#     Edge 50, Type (0, 0), BuildingBlock: AJUNOK_clean_linker_0, # of connection points: 2
#     Edge 51, Type (0, 0), BuildingBlock: AJUNOK_clean_linker_0, # of connection points: 2
#     Edge 52, Type (0, 0), BuildingBlock: AJUNOK_clean_linker_0, # of connection points: 2
#     Edge 53, Type (0, 0), BuildingBlock: AJUNOK_clean_linker_0, # of connection points: 2
#     Edge 54, Type (0, 0), BuildingBlock: AJUNOK_clean_linker_0, # of connection points: 2
#     Edge 55, Type (0, 0), BuildingBlock: AJUNOK_clean_linker_0, # of connection points: 2
#     Edge 56, Type (0, 0), BuildingBlock: AJUNOK_clean_linker_0, # of connection points: 2
#     Edge 57, Type (0, 0), BuildingBlock: AJUNOK_clean_linker_0, # of connection points: 2
#     Edge 58, Type (0, 0), BuildingBlock: AJUNOK_clean_linker_0, # of connection points: 2
#     Edge 59, Type (0, 0), BuildingBlock: AJUNOK_clean_linker_0, # of connection points: 2
#     Edge 60, Type (0, 0), BuildingBlock: AJUNOK_clean_linker_0, # of connection points: 2
#     Edge 61, Type (0, 0), BuildingBlock: AJUNOK_clean_linker_0, # of connection points: 2
#     Edge 62, Type (0, 0), BuildingBlock: AJUNOK_clean_linker_0, # of connection points: 2
#     Edge 63, Type (0, 0), BuildingBlock: AJUNOK_clean_linker_0, # of connection points: 2
#     Edge 64, Type (0, 0), BuildingBlock: AJUNOK_clean_linker_0, # of connection points: 2
#     Edge 65, Type (0, 0), BuildingBlock: AJUNOK_clean_linker_0, # of connection points: 2
#     Edge 66, Type (0, 0), BuildingBlock: AJUNOK_clean_linker_0, # of connection points: 2
#     Edge 67, Type (0, 0), BuildingBlock: AJUNOK_clean_linker_0, # of connection points: 2
#     Edge 68, Type (0, 0), BuildingBlock: AJUNOK_clean_linker_0, # of connection points: 2
#     Edge 69, Type (0, 0), BuildingBlock: AJUNOK_clean_linker_0, # of connection points: 2
#     Edge 70, Type (0, 0), BuildingBlock: AJUNOK_clean_linker_0, # of connection points: 2
#     Edge 71, Type (0, 0), BuildingBlock: AJUNOK_clean_linker_0, # of connection points: 2
# Relax obj value: 0.289
# Max RMSD: 0.377
# Mean RMSD: 0.348
data_MOF--net-smd--node1-NUHQIS_clean_sbu_0--edge1-AJUNOK_clean_linker_0
_symmetry_space_group_name_H-M    P1
_symmetry_Int_Tables_number       1
_symmetry_cell_setting            triclinic
loop_
_symmetry_equiv_pos_as_xyz
'x, y, z'
_cell_length_a     46.065034
_cell_length_b     45.49645
_cell_length_c     20.714508
_cell_angle_alpha  92.408635
_cell_angle_beta   92.807115
_cell_angle_gamma 120.16234
loop_
_atom_site_label
_atom_site_type_symbol
_atom_site_fract_x
_atom_site_fract_y
_atom_site_fract_z
_atom_type_partial_charge
Tb0 Tb 0.08417 0.28955 0.59592 0.0
Eu1 Eu 1.03333 0.26156 0.46313 0.0
C2 C 0.10119 0.25715 0.4787 0.0
C3 C 0.09832 0.33328 0.47391 0.0
C4 C 0.10612 0.30426 0.77204 0.0
C5 C 0.11844 0.31511 0.88919 0.0
C6 C 0.12937 0.32012 0.82635 0.0
C7 C 0.07184 0.28338 0.78152 0.0
C8 C 1.06085 0.27889 0.84403 0.0
C9 C 0.08402 0.2946 0.89854 0.0
C10 C 0.11742 0.30868 0.70568 0.0
O11 O 1.05099 0.31022 0.59992 0.0
O12 O 1.00352 0.26754 0.54458 0.0
O13 O 1.02174 0.21513 0.5151 0.0
O14 O 1.03826 0.24207 0.61709 0.0
C15 C 1.01812 0.29182 0.59263 0.0
O16 O 1.00477 0.27022 0.38605 0.0
O17 O 1.00793 0.22446 0.37978 0.0
O18 O 0.0827 0.26438 0.43929 0.0
O19 O 0.09927 0.25841 0.54155 0.0
O20 O 0.11257 0.32413 0.51994 0.0
O21 O 0.06556 0.31807 0.466 0.0
C22 C 1.02141 0.21395 0.57811 0.0
O23 O 0.11002 0.28067 0.67196 0.0
O24 O 0.11079 0.32825 0.67126 0.0
C25 C 1.0115 0.25116 0.28282 0.0
C26 C 1.03475 0.26674 0.15735 0.0
C27 C 1.00034 0.25301 0.16731 0.0
C28 C 0.98893 0.24566 0.22951 0.0
C29 C 1.04559 0.26388 0.27286 0.0
C30 C 1.05714 0.27196 0.2112 0.0
C31 C 0.99985 0.24402 0.34878 0.0
H32 H 0.13679 0.32748 0.93048 0.0
H33 H 0.15595 0.33616 0.8202 0.0
H34 H 1.0535 0.27044 0.74045 0.0
H35 H 1.03425 0.26265 0.84987 0.0
H36 H 0.98203 0.24744 0.127 0.0
H37 H 0.96244 0.23549 0.23588 0.0
H38 H 0.06345 0.26794 0.31307 0.0
H39 H 0.08378 0.2826 0.2059 0.0
Tb40 Tb 0.85138 0.80852 0.48631 0.0
Eu41 Eu 0.83166 0.83746 0.61192 0.0
C42 C 0.90445 0.8427 0.60198 0.0
C43 C 0.82351 0.76527 0.60898 0.0
C44 C 0.85458 0.79052 0.31228 0.0
C45 C 0.84325 0.76952 0.19844 0.0
C46 C 0.85082 0.76631 0.26332 0.0
C47 C 0.8502 0.81773 0.29543 0.0
C48 C 0.84281 0.82103 0.23075 0.0
C49 C 0.8396 0.79721 0.18125 0.0
C50 C 0.86274 0.78733 0.38071 0.0
O51 O 0.79751 0.78698 0.48081 0.0
O52 O 0.79506 0.83169 0.52415 0.0
O53 O 0.86455 0.88368 0.56084 0.0
O54 O 0.85184 0.85583 0.45984 0.0
C55 C 0.78405 0.80618 0.47884 0.0
O56 O 0.79392 0.83289 0.67712 0.0
O57 O 0.84606 0.87182 0.69965 0.0
O58 O 0.87976 0.83521 0.64004 0.0
O59 O 0.89913 0.84177 0.53943 0.0
O60 O 0.84664 0.77473 0.56617 0.0
O61 O 0.80695 0.78127 0.61562 0.0
C62 C 0.86341 0.88431 0.49774 0.0
O63 O 0.88421 0.81567 0.41392 0.0
O64 O 0.83741 0.76855 0.41401 0.0
C65 C 0.81523 0.84398 0.78736 0.0
C66 C 0.81889 0.82485 0.91452 0.0
C67 C 0.82072 0.85612 0.9044 0.0
C68 C 0.81904 0.86564 0.84139 0.0
C69 C 0.81235 0.81228 0.79733 0.0
C70 C 0.81402 0.80276 0.86025 0.0
C71 C 0.81624 0.85529 0.72113 0.0
H72 H 0.84014 0.75026 0.16178 0.0
H73 H 0.85374 0.74494 0.27525 0.0
H74 H 0.85258 0.83656 0.33233 0.0
H75 H 0.84023 0.84267 0.21934 0.0
H76 H 0.82448 0.87366 0.94527 0.0
H77 H 0.82141 0.89024 0.83485 0.0
H78 H 0.80931 0.79509 0.75641 0.0
H79 H 0.81173 0.7782 0.86656 0.0
Tb80 Tb 0.27976 1.03321 0.60278 0.0
Eu81 Eu 0.30058 0.07918 0.48109 0.0
C82 C 0.22756 1.01149 0.48729 0.0
C83 C 0.31242 1.02 0.48333 0.0
C84 C 0.27682 1.00458 0.76932 0.0
C85 C 0.26425 0.99007 0.88009 0.0
C86 C 0.25619 0.98208 0.81322 0.0
C87 C 0.30635 1.03461 0.79312 0.0
C88 C 0.31441 1.04264 0.85998 0.0
C89 C 0.2931 1.02083 0.90439 0.0
C90 C 0.26633 0.99737 0.69932 0.0
O91 O 0.33216 0.07048 0.62705 0.0
O92 O 0.33661 0.11405 0.5684 0.0
O93 O 0.26887 0.09501 0.53166 0.0
O94 O 0.27788 0.08037 0.63232 0.0
C95 C 0.34677 0.10296 0.61805 0.0
O96 O 0.33879 0.10847 0.41471 0.0
O97 O 0.28785 0.09777 0.39503 0.0
O98 O 0.25285 1.0269 0.45018 0.0
O99 O 0.2327 1.0188 0.54977 0.0
O100 O 0.2862 1.00455 0.51817 0.0
O101 O 0.32963 0.05281 0.49308 0.0
C102 C 0.26884 0.09791 0.59453 0.0
O103 O 0.24825 1.00999 0.67738 0.0
O104 O 0.28954 1.00186 0.66083 0.0
C105 C 0.31625 0.09474 0.3057 0.0
C106 C 0.31321 0.06861 0.17791 0.0
C107 C 0.33537 0.1033 0.19702 0.0
C108 C 0.33681 0.11628 0.26045 0.0
C109 C 0.29491 0.05987 0.28723 0.0
C110 C 0.29324 1.04698 0.22383 0.0
C111 C 0.31705 0.10843 0.37204 0.0
H112 H 0.2475 0.97247 0.91285 0.0
H113 H 0.23338 0.95868 0.79581 0.0
H114 H 0.32269 0.05228 0.76001 0.0
H115 H 0.33661 0.06664 0.87677 0.0
H116 H 0.35081 0.12055 0.16237 0.0
H117 H 0.35364 0.14318 0.27393 0.0
H118 H 0.27924 1.04265 0.3217 0.0
H119 H 0.27613 1.02012 0.21046 0.0
Tb120 Tb 0.0928 0.83611 0.61406 0.0
Eu121 Eu 1.04276 0.80689 0.4803 0.0
C122 C 0.11185 0.80746 0.49044 0.0
C123 C 0.10981 0.88269 0.49724 0.0
C124 C 0.11065 0.84312 0.79067 0.0
C125 C 0.12041 0.8397 0.90607 0.0
C126 C 0.13274 0.84878 0.84498 0.0
C127 C 0.07602 0.8279 0.79825 0.0
C128 C 0.06365 0.81847 0.85893 0.0
C129 C 0.0857 0.82472 0.91395 0.0
C130 C 0.12343 0.85267 0.72612 0.0
O131 O 1.0451 0.8342 0.63365 0.0
O132 O 1.02956 0.84214 0.53254 0.0
O133 O 1.01419 0.77248 0.56149 0.0
O134 O 0.0626 0.78114 0.61224 0.0
C135 C 1.02785 0.84342 0.59531 0.0
O136 O 1.01593 0.81323 0.39715 0.0
O137 O 1.01367 0.76498 0.4059 0.0
O138 O 0.07957 0.78892 0.4741 0.0
O139 O 0.12375 0.83068 0.54038 0.0
O140 O 0.1095 0.88122 0.56046 0.0
O141 O 0.09036 0.85567 0.45692 0.0
C142 C 1.02972 0.765 0.60773 0.0
O143 O 0.12092 0.82806 0.6873 0.0
O144 O 0.11372 0.8712 0.69591 0.0
C145 C 1.01761 0.78478 0.3011 0.0
C146 C 1.03767 0.79255 0.17297 0.0
C147 C 1.00334 0.77695 0.18457 0.0
C148 C 0.99343 0.7732 0.24808 0.0
C149 C 1.05176 0.79907 0.28973 0.0
C150 C 0.06168 0.80281 0.22629 0.0
C151 C 1.00754 0.78375 0.36799 0.0
H152 H 0.13811 0.84491 0.94737 0.0
H153 H 0.15954 0.86042 0.84026 0.0
H154 H 1.05841 0.82298 0.75699 0.0
H155 H 1.03672 0.80608 0.86261 0.0
H156 H 0.98418 0.76807 0.1445 0.0
H157 H 0.96695 0.76189 0.2558 0.0
H158 H 0.07084 0.80813 0.33003 0.0
H159 H 0.08827 0.81487 0.21905 0.0
Tb160 Tb 0.29526 0.26498 0.46435 0.0
Eu161 Eu 0.28051 0.29847 0.59147 0.0
C162 C 0.34693 0.2969 0.58825 0.0
C163 C 0.2683 0.22125 0.5829 0.0
C164 C 0.30925 0.25633 0.29263 0.0
C165 C 0.30625 0.24444 0.1762 0.0
C166 C 0.30679 0.23489 0.23946 0.0
C167 C 0.31175 0.28778 0.28173 0.0
C168 C 0.31133 0.29741 0.21847 0.0
C169 C 0.30829 0.27571 0.1649 0.0
C170 C 0.30773 0.24513 0.35888 0.0
O171 O 0.24951 0.2681 0.43887 0.0
O172 O 0.23059 0.26253 0.53983 0.0
O173 O 0.286 0.33287 0.508 0.0
O174 O 0.32108 0.31943 0.4575 0.0
C175 C 0.22484 0.26007 0.47703 0.0
O176 O 0.24828 0.29644 0.66716 0.0
O177 O 0.29901 0.33902 0.66982 0.0
O178 O 0.33548 0.31779 0.59309 0.0
O179 O 0.33218 0.27054 0.54453 0.0
O180 O 0.26608 0.22123 0.51946 0.0
O181 O 0.27944 0.2497 0.62033 0.0
C182 C 0.30756 0.33859 0.46344 0.0
O183 O 0.33084 0.26715 0.4021 0.0
O184 O 0.27806 0.23065 0.3812 0.0
C185 C 0.27877 0.31712 0.76963 0.0
C186 C 0.2917 0.30645 0.89892 0.0
C187 C 0.28984 0.33547 0.88477 0.0
C188 C 0.2834 0.34074 0.82062 0.0
C189 C 0.28077 0.28823 0.78369 0.0
C190 C 0.2871 0.28292 0.84759 0.0
C191 C 0.27245 0.32274 0.70185 0.0
H192 H 0.30398 0.22723 0.13596 0.0
H193 H 0.30477 0.21051 0.24682 0.0
H194 H 0.31339 0.30463 0.32207 0.0
H195 H 0.31232 0.32136 0.21145 0.0
H196 H 0.29262 0.35365 0.92351 0.0
H197 H 0.28171 0.36304 0.81084 0.0
H198 H 0.27739 0.26967 0.74519 0.0
H199 H 0.28848 0.26038 0.85692 0.0
Tb200 Tb 0.82773 1.02523 0.60487 0.0
Eu201 Eu 0.84319 0.06803 0.4815 0.0
C202 C 0.77941 0.99977 0.47388 0.0
C203 C 0.85617 1.00318 0.4917 0.0
C204 C 0.8113 1.00577 0.77388 0.0
C205 C 0.79011 0.99654 0.88055 0.0
C206 C 0.7886 0.9844 0.8166 0.0
C207 C 0.83536 1.0395 0.79547 0.0
C208 C 0.83691 0.05163 0.85931 0.0
C209 C 0.81425 1.0303 0.90242 0.0
C210 C 0.80779 0.99386 0.70553 0.0
O211 O 0.88331 0.06173 0.61611 0.0
O212 O 0.88615 0.10273 0.55114 0.0
O213 O 0.81182 0.07975 0.55163 0.0
O214 O 0.8368 0.07415 0.64211 0.0
C215 C 0.89973 0.09289 0.59558 0.0
O216 O 0.87303 0.09946 0.40627 0.0
O217 O 0.82151 0.08817 0.41349 0.0
O218 O 0.80629 1.01538 0.44358 0.0
O219 O 0.78167 1.00811 0.53679 0.0
O220 O 0.83685 0.99335 0.53979 0.0
O221 O 0.8658 1.03291 0.46676 0.0
C222 C 0.82014 0.0868 0.6147 0.0
O223 O 0.78978 1.00198 0.66807 0.0
O224 O 0.83531 0.99943 0.67988 0.0
C225 C 0.84039 0.09232 0.30899 0.0
C226 C 0.82812 0.07549 0.17437 0.0
C227 C 0.85378 0.10805 0.19933 0.0
C228 C 0.85979 0.11643 0.26619 0.0
C229 C 0.81443 0.05988 0.28418 0.0
C230 C 0.80828 0.05158 0.21734 0.0
C231 C 0.84766 0.10109 0.37924 0.0
H232 H 0.77269 0.97943 0.91309 0.0
H233 H 0.76954 0.95845 0.80032 0.0
H234 H 0.8527 0.05656 0.76275 0.0
H235 H 0.85564 0.07779 0.87488 0.0
H236 H 0.8694 0.12687 0.16706 0.0
H237 H 0.87985 0.14159 0.28453 0.0
H238 H 0.79921 1.04081 0.31645 0.0
H239 H 0.78874 1.02612 0.19935 0.0
Tb240 Tb 0.70846 0.6031 0.81022 0.0
Eu241 Eu 0.75877 0.6322 0.94379 0.0
C242 C 0.69231 0.55655 0.92605 0.0
C243 C 0.69038 0.63253 0.93456 0.0
C244 C 0.68846 0.59376 0.63349 0.0
C245 C 0.67763 0.5983 0.5191 0.0
C246 C 0.66613 0.58986 0.58093 0.0
C247 C 0.72241 0.60592 0.62308 0.0
C248 C 0.73409 0.61512 0.56186 0.0
C249 C 0.71193 0.61154 0.50884 0.0
C250 C 0.67664 0.58571 0.69914 0.0
O251 O 0.73928 0.65792 0.81129 0.0
O252 O 0.78762 0.66648 0.86293 0.0
O253 O 0.77181 0.59705 0.89064 0.0
O254 O 0.75583 0.6043 0.78914 0.0
C255 C 0.77216 0.67378 0.81623 0.0
O256 O 0.78618 0.67252 1.02201 0.0
O257 O 0.78655 0.62531 1.02443 0.0
O258 O 0.71085 0.58374 0.9664 0.0
O259 O 0.69332 0.55806 0.86302 0.0
O260 O 0.67799 0.60853 0.88576 0.0
O261 O 0.72296 0.65173 0.94708 0.0
C262 C 0.77322 0.59531 0.82777 0.0
O263 O 0.68601 0.5671 0.72996 0.0
O264 O 0.68038 0.61123 0.73692 0.0
C265 C 0.78219 0.64951 0.1237 0.0
C266 C 0.76039 0.64128 0.25029 0.0
C267 C 0.794 0.6649 0.23999 0.0
C268 C 0.80476 0.66921 0.177 0.0
C269 C 0.74875 0.62562 0.13433 0.0
C270 C 0.73783 0.62185 0.19688 0.0
C271 C 0.79322 0.65342 0.05714 0.0
H272 H 0.6595 0.59396 0.47925 0.0
H273 H 0.63974 0.58013 0.5876 0.0
H274 H 0.74015 0.60899 0.66275 0.0
H275 H 0.76065 0.62537 0.5563 0.0
H276 H 0.81184 0.68 0.28066 0.0
H277 H 0.83071 0.68766 0.16999 0.0
H278 H 0.73108 0.60964 0.09417 0.0
H279 H 0.71191 0.60322 0.20376 0.0
Tb280 Tb 0.50938 0.14529 0.83213 0.0
Eu281 Eu 0.49843 0.18124 0.96063 0.0
C282 C 0.56657 0.17987 0.94266 0.0
C283 C 0.48318 0.1058 0.95916 0.0
C284 C 0.51217 0.12752 0.65821 0.0
C285 C 0.50636 0.11289 0.54207 0.0
C286 C 0.50947 0.10531 0.60617 0.0
C287 C 0.51115 0.15702 0.64533 0.0
C288 C 0.50736 0.16423 0.5817 0.0
C289 C 0.50566 0.14271 0.5291 0.0
C290 C 0.51566 0.12003 0.72584 0.0
O291 O 0.45648 0.12904 0.8311 0.0
O292 O 0.46038 0.17679 0.87873 0.0
O293 O 0.5309 0.22426 0.90158 0.0
O294 O 0.51287 0.19341 0.80313 0.0
C295 C 0.4456 0.15053 0.83496 0.0
O296 O 0.4649 0.18131 1.03172 0.0
O297 O 0.51796 0.21923 0.04319 0.0
O298 O 0.54394 0.1746 0.98414 0.0
O299 O 0.55905 0.1779 0.88037 0.0
O300 O 0.50325 0.11124 0.91164 0.0
O301 O 0.47015 0.12516 0.96834 0.0
C302 C 0.52681 0.22291 0.83833 0.0
O303 O 0.54067 0.14452 0.76227 0.0
O304 O 0.48821 0.10661 0.75584 0.0
C305 C 0.49143 0.19577 0.13751 0.0
C306 C 0.49381 0.17671 0.26446 0.0
C307 C 0.47796 0.1954 0.24961 0.0
C308 C 0.47654 0.20464 0.18631 0.0
C309 C 0.50753 0.17736 0.15267 0.0
C310 C 0.50841 0.16759 0.2155 0.0
C311 C 0.48958 0.20486 0.07056 0.0
H312 H 0.50503 0.0957 0.50272 0.0
H313 H 0.51003 0.0823 0.61508 0.0
H314 H 0.51323 0.17457 0.68455 0.0
H315 H 0.50568 0.18673 0.57385 0.0
H316 H 0.46673 0.20282 0.28699 0.0
H317 H 0.46397 0.2188 0.17555 0.0
H318 H 0.51943 0.17052 0.11579 0.0
H319 H 0.52101 0.15345 0.2262 0.0
Tb320 Tb 0.95612 0.40548 0.80748 0.0
Eu321 Eu 0.94687 0.36291 0.92969 0.0
C322 C 0.93264 0.42595 0.92845 0.0
C323 C 1.01387 0.4223 0.91287 0.0
C324 C 0.9648 0.43015 0.64106 0.0
C325 C 0.96802 0.44367 0.5287 0.0
C326 C 0.97001 0.45341 0.5945 0.0
C327 C 0.95762 0.39713 0.62141 0.0
C328 C 0.95582 0.38747 0.55594 0.0
C329 C 0.96099 0.41061 0.5089 0.0
C330 C 0.96642 0.43986 0.71006 0.0
O331 O 0.97201 0.3705 0.77328 0.0
O332 O 0.94905 0.32917 0.84579 0.0
O333 O 0.8947 0.34542 0.88895 0.0
O334 O 0.90879 0.35531 0.78482 0.0
C335 C 0.96264 0.33973 0.79019 0.0
O336 O 0.97355 0.35879 1.01462 0.0
O337 O 0.91973 0.32462 0.9983 0.0
O338 O 0.94724 0.41245 0.96319 0.0
O339 O 0.92588 0.41789 0.86621 0.0
O340 O 0.9972 0.43592 0.88668 0.0
O341 O 0.99936 0.38957 0.9018 0.0
C342 C 0.88618 0.33894 0.82675 0.0
O343 O 0.93774 0.4248 0.73613 0.0
O344 O 0.99028 0.43964 0.74624 0.0
C345 C 0.94351 0.34421 0.10612 0.0
C346 C 0.94741 0.36508 0.23728 0.0
C347 C 0.94404 0.33328 0.21961 0.0
C348 C 0.94236 0.32301 0.15427 0.0
C349 C 0.94556 0.37537 0.12363 0.0
C350 C 0.94758 0.38577 0.18879 0.0
C351 C 0.94643 0.33581 1.03863 0.0
H352 H 0.97145 0.46179 0.49331 0.0
H353 H 0.97535 0.47892 0.60895 0.0
H354 H 0.95328 0.37876 0.6567 0.0
H355 H 0.95054 0.36193 0.54206 0.0
H356 H 0.94387 0.31697 0.2564 0.0
H357 H 0.94117 0.29907 0.14147 0.0
H358 H 0.94669 0.39213 0.08699 0.0
H359 H 0.94973 0.41018 0.2014 0.0
Tb360 Tb 0.74647 0.15877 0.94087 0.0
Eu361 Eu 0.69622 0.13682 0.80875 0.0
C362 C 0.75693 0.1254 0.81488 0.0
C363 C 0.76624 0.20978 0.83218 0.0
C364 C 0.76671 0.16173 0.11621 0.0
C365 C 0.76016 0.13186 0.21455 0.0
C366 C 0.77161 0.13883 0.15231 0.0
C367 C 0.74967 0.17708 0.14337 0.0
C368 C 0.73847 0.17028 0.20543 0.0
C369 C 0.74392 0.14796 0.24205 0.0
C370 C 0.77834 0.16867 0.04988 0.0
O371 O 0.70312 0.16441 0.96696 0.0
O372 O 0.68561 0.1723 0.86668 0.0
O373 O 0.66404 0.10437 0.88815 0.0
O374 O 0.7094 0.10511 0.9371 0.0
C375 C 0.68596 0.17446 0.92998 0.0
O376 O 0.67312 0.14792 0.72592 0.0
O377 O 0.66563 0.0973 0.73099 0.0
O378 O 0.72421 0.10875 0.81088 0.0
O379 O 0.77303 0.15055 0.86084 0.0
O380 O 0.76529 0.20618 0.89468 0.0
O381 O 0.74647 0.18404 0.78939 0.0
C382 C 0.67709 0.09374 0.93334 0.0
O383 O 0.7693 0.14214 1.00975 0.0
O384 O 0.77522 0.19214 1.02166 0.0
C385 C 0.67483 0.12021 0.6288 0.0
C386 C 0.69816 0.12618 0.50347 0.0
C387 C 0.66358 0.1062 0.51211 0.0
C388 C 0.652 0.10329 0.57432 0.0
C389 C 0.70942 0.1392 0.62045 0.0
C390 C 0.72097 0.14198 0.55858 0.0
C391 C 0.66296 0.11855 0.69428 0.0
H392 H 0.7646 0.11446 0.2417 0.0
H393 H 0.78435 0.12636 0.13242 0.0
H394 H 0.74485 0.19438 0.11672 0.0
H395 H 0.72545 0.18254 0.22491 0.0
H396 H 0.64543 0.09367 0.4706 0.0
H397 H 0.62524 0.08828 0.57975 0.0
H398 H 0.72755 0.15201 0.66191 0.0
H399 H 0.74782 0.15675 0.55381 0.0
Tb400 Tb 0.94726 0.62712 0.93286 0.0
Eu401 Eu 0.9673 0.59832 0.80795 0.0
C402 C 0.97513 0.67076 0.81098 0.0
C403 C 0.8939 0.59155 0.81761 0.0
C404 C 0.9447 0.64497 0.10659 0.0
C405 C 0.94819 0.65921 0.22251 0.0
C406 C 0.94162 0.66404 0.15806 0.0
C407 C 0.95544 0.62181 0.12044 0.0
C408 C 0.9621 0.61707 0.18452 0.0
C409 C 0.95778 0.63508 0.23644 0.0
C410 C 0.93607 0.64839 1.03867 0.0
O411 O 0.94751 0.58035 0.9611 0.0
O412 O 0.93594 0.55216 0.86051 0.0
O413 O 1.00383 0.60408 0.89589 0.0
O414 O 1.00112 0.64905 0.935 0.0
C415 C 0.93705 0.55192 0.92369 0.0
O416 O 0.95348 0.56311 0.72195 0.0
O417 O 1.00501 0.60415 0.74158 0.0
O418 O 0.9915 0.65454 0.80385 0.0
O419 O 0.95169 0.66097 0.85322 0.0
O420 O 0.89961 0.59311 0.88021 0.0
O421 O 0.91858 0.59944 0.77934 0.0
C422 C 1.01463 0.62999 0.94002 0.0
O423 O 0.96114 0.66716 1.00485 0.0
O424 O 0.91461 0.61998 1.0057 0.0
C425 C 0.98237 0.59068 0.63245 0.0
C426 C 0.97701 0.607 0.50372 0.0
C427 C 0.98567 0.58211 0.517 0.0
C428 C 0.98819 0.57395 0.58074 0.0
C429 C 0.97474 0.61627 0.61975 0.0
C430 C 0.97221 0.62444 0.55601 0.0
C431 C 0.98287 0.58051 0.69907 0.0
H432 H 0.94485 0.67361 0.26145 0.0
H433 H 0.93362 0.68223 0.14848 0.0
H434 H 0.95859 0.60724 0.08161 0.0
H435 H 0.97043 0.59908 0.19348 0.0
H436 H 0.99027 0.56875 0.47796 0.0
H437 H 0.99424 0.55425 0.58954 0.0
H438 H 0.97014 0.62949 0.65907 0.0
H439 H 0.96553 0.64371 0.54745 0.0
Tb440 Tb 0.49619 0.36876 0.93128 0.0
Eu441 Eu 0.51925 0.41325 0.80676 0.0
C442 C 0.44856 0.34703 0.80042 0.0
C443 C 0.52551 0.34567 0.82116 0.0
C444 C 0.47432 0.34788 0.09935 0.0
C445 C 0.47417 0.3396 0.21431 0.0
C446 C 0.47452 0.32874 0.15037 0.0
C447 C 0.47294 0.37767 0.11281 0.0
C448 C 0.47259 0.38856 0.17681 0.0
C449 C 0.47358 0.36982 0.22823 0.0
C450 C 0.47734 0.33755 1.03293 0.0
O451 O 0.54445 0.41696 0.96163 0.0
O452 O 0.56665 0.42562 0.86353 0.0
O453 O 0.5168 0.44677 0.89099 0.0
O454 O 0.47529 0.40178 0.93665 0.0
C455 C 0.57071 0.43144 0.92637 0.0
O456 O 0.55237 0.43571 0.72933 0.0
O457 O 0.51049 0.4441 0.73885 0.0
O458 O 0.46375 0.37927 0.79036 0.0
O459 O 0.46021 0.33606 0.84766 0.0
O460 O 0.52562 0.35081 0.88378 0.0
O461 O 0.51757 0.36256 0.78006 0.0
C462 C 0.49342 0.43458 0.9327 0.0
O463 O 0.45686 0.33799 0.98785 0.0
O464 O 0.50791 0.35109 1.01521 0.0
C465 C 0.52337 0.43683 0.63276 0.0
C466 C 0.50133 0.41681 0.50048 0.0
C467 C 0.50604 0.44784 0.52789 0.0
C468 C 0.51687 0.45771 0.5937 0.0
C469 C 0.51879 0.40592 0.60515 0.0
C470 C 0.50812 0.39617 0.53958 0.0
C471 C 0.53387 0.44682 0.7024 0.0
H472 H 0.47557 0.325 0.25307 0.0
H473 H 0.47577 0.30581 0.1409 0.0
H474 H 0.47272 0.39277 0.07398 0.0
H475 H 0.47195 0.41181 0.18629 0.0
H476 H 0.50107 0.46424 0.49858 0.0
H477 H 0.52006 0.48156 0.61417 0.0
H478 H 0.52348 0.38926 0.63421 0.0
H479 H 0.50552 0.37259 0.51911 0.0
Tb480 Tb 0.41214 0.95839 0.26836 0.0
Eu481 Eu 0.36235 0.93167 0.13491 0.0
C482 C 0.43107 0.92733 0.15153 0.0
C483 C 0.43032 1.0032 0.14601 0.0
C484 C 0.43105 0.97603 0.44562 0.0
C485 C 0.43897 0.97283 0.56154 0.0
C486 C 0.45081 0.97647 0.49969 0.0
C487 C 0.39921 0.97205 0.45436 0.0
C488 C 0.38738 0.96854 0.51632 0.0
C489 C 0.40713 0.96889 0.57076 0.0
C490 C 0.44299 0.97772 0.38016 0.0
O491 O 0.38191 0.98214 0.26545 0.0
O492 O 0.33335 0.93882 0.21676 0.0
O493 O 0.35098 0.885 0.18511 0.0
O494 O 0.36546 0.91108 0.28761 0.0
C495 C 0.34911 0.96485 0.26081 0.0
O496 O 0.33227 0.94054 0.06141 0.0
O497 O 0.33643 0.89537 0.05072 0.0
O498 O 0.41108 0.93264 0.11185 0.0
O499 O 0.43057 0.93009 0.21463 0.0
O500 O 0.44245 0.99379 0.19542 0.0
O501 O 0.3981 0.98724 0.12845 0.0
C502 C 0.34942 0.88323 0.24781 0.0
O503 O 0.43417 0.94848 0.34971 0.0
O504 O 0.43908 0.99775 0.34205 0.0
C505 C 0.33781 0.92315 0.95561 0.0
C506 C 0.35875 0.94083 0.82957 0.0
C507 C 0.32771 0.93646 0.84678 0.0
C508 C 0.3174 0.92783 0.90937 0.0
C509 C 0.36869 0.92731 0.93818 0.0
C510 C 0.37888 0.93578 0.87581 0.0
C511 C 0.32749 0.915 1.02227 0.0
H512 H 0.45447 0.9723 0.60199 0.0
H513 H 0.47521 0.97903 0.49393 0.0
H514 H 0.38334 0.97128 0.41318 0.0
H515 H 0.36278 0.96555 0.52165 0.0
H516 H 0.31167 0.94018 0.81214 0.0
H517 H 0.2936 0.925 0.92178 0.0
H518 H 0.38504 0.92404 0.97285 0.0
H519 H 0.40249 0.93814 0.86345 0.0
Tb520 Tb 0.16968 0.46609 0.14371 0.0
Eu521 Eu 0.15935 0.50299 0.27173 0.0
C522 C 0.22951 0.50362 0.25075 0.0
C523 C 0.15147 0.42926 0.27618 0.0
C524 C 0.16437 0.44582 0.96761 0.0
C525 C 0.17441 0.44616 0.85331 0.0
C526 C 0.17877 0.4381 0.9163 0.0
C527 C 0.14496 0.46114 0.95478 0.0
C528 C 0.14024 0.46883 0.89173 0.0
C529 C 0.15549 0.46209 0.84032 0.0
C530 C 0.17122 0.43965 1.03466 0.0
O531 O 0.11755 0.44595 0.16098 0.0
O532 O 0.11951 0.49451 0.1886 0.0
O533 O 0.19125 0.54525 0.21127 0.0
O534 O 0.17113 0.51331 0.1142 0.0
C535 C 0.10474 0.46538 0.15268 0.0
O536 O 0.12444 0.50278 0.33986 0.0
O537 O 0.17716 0.54175 0.35287 0.0
O538 O 0.20839 0.50186 0.29364 0.0
O539 O 0.2203 0.49696 0.1886 0.0
O540 O 0.16797 0.43364 0.22315 0.0
O541 O 0.1393 0.44872 0.29265 0.0
C542 C 0.18615 0.54322 0.14819 0.0
O543 O 0.19752 0.46484 0.06702 0.0
O544 O 0.14565 0.42625 0.06994 0.0
C545 C 0.1493 0.51912 0.44715 0.0
C546 C 0.14908 0.50117 0.57642 0.0
C547 C 0.12935 0.51505 0.55503 0.0
C548 C 0.12946 0.52394 0.49092 0.0
C549 C 0.16896 0.50523 0.46841 0.0
C550 C 0.16894 0.4965 0.53239 0.0
C551 C 0.14835 0.52708 0.37886 0.0
H552 H 0.1866 0.4407 0.81504 0.0
H553 H 0.19398 0.42646 0.92516 0.0
H554 H 0.13382 0.46761 0.99369 0.0
H555 H 0.12475 0.4802 0.88339 0.0
H556 H 0.11344 0.51855 0.58759 0.0
H557 H 0.11383 0.53427 0.47534 0.0
H558 H 0.18429 0.50104 0.43543 0.0
H559 H 0.18472 0.48636 0.54784 0.0
Tb560 Tb 0.60925 0.70009 0.25668 0.0
Eu561 Eu 0.6307 0.7463 0.13541 0.0
C562 C 0.55738 0.67885 0.13846 0.0
C563 C 0.63496 0.6794 0.13063 0.0
C564 C 0.6033 0.67836 0.42667 0.0
C565 C 0.5879 0.67015 0.53753 0.0
C566 C 0.58167 0.65835 0.47213 0.0
C567 C 0.63187 0.70994 0.44758 0.0
C568 C 0.6382 0.72169 0.51312 0.0
C569 C 0.61581 0.70223 0.55841 0.0
C570 C 0.59423 0.66752 0.35728 0.0
O571 O 0.66315 0.73116 0.27095 0.0
O572 O 0.66983 0.77776 0.22195 0.0
O573 O 0.59619 0.75789 0.18766 0.0
O574 O 0.61202 0.74922 0.2872 0.0
C575 C 0.68005 0.76397 0.26602 0.0
O576 O 0.66777 0.77563 0.06734 0.0
O577 O 0.6193 0.77252 0.06149 0.0
O578 O 0.58235 0.69544 0.10132 0.0
O579 O 0.56242 0.68487 0.20133 0.0
O580 O 0.61344 0.66812 0.17638 0.0
O581 O 0.65093 0.71156 0.11963 0.0
C582 C 0.59963 0.76407 0.25036 0.0
O583 O 0.57573 0.67806 0.32868 0.0
O584 O 0.61852 0.67128 0.32257 0.0
C585 C 0.64243 0.77115 0.96317 0.0
C586 C 0.63459 0.7511 0.82989 0.0
C587 C 0.66246 0.78222 0.85547 0.0
C588 C 0.66626 0.79224 0.92167 0.0
C589 C 0.61495 0.73978 0.93784 0.0
C590 C 0.611 0.72993 0.87181 0.0
C591 C 0.64683 0.78126 1.03301 0.0
H592 H 0.57059 0.65444 0.57173 0.0
H593 H 0.55948 0.63399 0.45679 0.0
H594 H 0.64873 0.72591 0.41302 0.0
H595 H 0.65987 0.74649 0.52803 0.0
H596 H 0.68104 0.79891 0.82414 0.0
H597 H 0.68782 0.81636 0.94049 0.0
H598 H 0.59656 0.72278 0.96915 0.0
H599 H 0.58968 0.70551 0.85358 0.0
Tb600 Tb 0.42343 0.50674 0.26365 0.0
Eu601 Eu 0.37338 0.47435 0.1313 0.0
C602 C 0.44227 0.47715 0.14271 0.0
C603 C 0.43818 0.55191 0.14612 0.0
C604 C 0.44474 0.51469 0.43996 0.0
C605 C 0.45733 0.52086 0.55695 0.0
C606 C 0.46783 0.52967 0.49466 0.0
C607 C 0.41105 0.49056 0.44842 0.0
C608 C 0.40071 0.48118 0.51049 0.0
C609 C 0.42369 0.49648 0.56541 0.0
C610 C 0.45552 0.52483 0.37449 0.0
O611 O 0.37472 0.50309 0.2832 0.0
O612 O 0.35862 0.50883 0.18076 0.0
O613 O 0.34548 0.44011 0.21387 0.0
O614 O 0.39538 0.45179 0.26157 0.0
C615 C 0.35647 0.51057 0.24329 0.0
O616 O 0.34346 0.47753 0.04966 0.0
O617 O 0.35012 0.43395 0.05214 0.0
O618 O 0.40991 0.45584 0.136 0.0
O619 O 0.45446 0.50295 0.18766 0.0
O620 O 0.43765 0.55114 0.20937 0.0
O621 O 0.42009 0.52399 0.10703 0.0
C622 C 0.3626 0.43428 0.25986 0.0
O623 O 0.45434 0.50124 0.33464 0.0
O624 O 0.44292 0.54145 0.34621 0.0
C625 C 0.35243 0.45675 0.95058 0.0
C626 C 0.37617 0.46732 0.82492 0.0
C627 C 0.34446 0.43928 0.83514 0.0
C628 C 0.33276 0.43404 0.8974 0.0
C629 C 0.38387 0.48494 0.94035 0.0
C630 C 0.39567 0.49008 0.87846 0.0
C631 C 0.34055 0.45103 1.01663 0.0
H632 H 0.47546 0.53309 0.59859 0.0
H633 H 0.49388 0.54849 0.48927 0.0
H634 H 0.39269 0.47916 0.40696 0.0
H635 H 0.37457 0.46261 0.51574 0.0
H636 H 0.32841 0.4218 0.79477 0.0
H637 H 0.30822 0.41247 0.90393 0.0
H638 H 0.3995 0.50298 0.98043 0.0
H639 H 0.42021 0.51186 0.87257 0.0
Tb640 Tb 0.62722 0.93647 0.14014 0.0
Eu641 Eu 0.60702 0.96337 0.26929 0.0
C642 C 0.67572 0.96816 0.26743 0.0
C643 C 0.59902 0.88827 0.25207 0.0
C644 C 0.64786 0.9338 0.97051 0.0
C645 C 0.6471 0.92424 0.85385 0.0
C646 C 0.64618 0.9133 0.91635 0.0
C647 C 0.65129 0.9658 0.9614 0.0
C648 C 0.65223 0.97676 0.89896 0.0
C649 C 0.64966 0.95589 0.84447 0.0
C650 C 0.64461 0.92113 1.0358 0.0
O651 O 0.57958 0.93609 0.11345 0.0
O652 O 0.55817 0.92844 0.21273 0.0
O653 O 0.60916 0.99745 0.18814 0.0
O654 O 0.64783 0.9907 0.13474 0.0
C655 C 0.55395 0.92725 0.14974 0.0
O656 O 0.57549 0.95589 0.34933 0.0
O657 O 0.62085 1.00449 0.34471 0.0
O658 O 0.66256 0.98756 0.26855 0.0
O659 O 0.66313 0.94232 0.22279 0.0
O660 O 0.59767 0.8906 0.18917 0.0
O661 O 0.60853 0.91516 0.29315 0.0
C662 C 0.63073 1.00619 0.14281 0.0
O663 O 0.66578 0.94275 0.082 0.0
O664 O 0.61409 0.90466 0.0541 0.0
C665 C 0.60732 0.98381 0.44821 0.0
C666 C 0.62759 0.98126 0.57805 0.0
C667 C 0.62103 1.00709 0.56072 0.0
C668 C 0.61104 1.00837 0.49631 0.0
C669 C 0.61412 0.95818 0.46527 0.0
C670 C 0.62398 0.95683 0.52948 0.0
C671 C 0.59686 0.98511 0.38031 0.0
H672 H 0.64468 0.90746 0.81267 0.0
H673 H 0.64346 0.88851 0.92228 0.0
H674 H 0.6528 0.98213 1.0025 0.0
H675 H 0.65463 1.0014 0.8931 0.0
H676 H 0.62365 1.0263 0.59701 0.0
H677 H 0.6061 1.02845 0.48411 0.0
H678 H 0.6117 0.93908 0.42891 0.0
H679 H 0.62811 0.93618 0.54127 0.0
Tb680 Tb 0.16677 0.68456 0.27617 0.0
Eu681 Eu 0.17649 0.73067 0.15613 0.0
C682 C 0.10903 0.66732 0.16988 0.0
C683 C 0.18852 0.66657 0.14889 0.0
C684 C 0.16543 0.66167 0.4455 0.0
C685 C 0.14722 0.64937 0.55437 0.0
C686 C 0.14373 0.6392 0.48829 0.0
C687 C 0.19119 0.69427 0.47009 0.0
C688 C 0.19469 0.70446 0.53607 0.0
C689 C 0.17255 0.68227 0.57902 0.0
C690 C 0.16001 0.65164 0.37517 0.0
O691 O 0.21299 0.73506 0.30066 0.0
O692 O 0.22767 0.74458 0.19724 0.0
O693 O 0.17551 0.76239 0.24593 0.0
O694 O 0.14599 0.71607 0.30411 0.0
C695 C 0.23588 0.75132 0.25942 0.0
O696 O 0.20624 0.76645 0.08563 0.0
O697 O 0.15205 0.74305 0.07784 0.0
O698 O 0.12309 0.70024 0.1766 0.0
O699 O 0.12527 0.65367 0.19825 0.0
O700 O 0.1953 0.67255 0.21164 0.0
O701 O 0.17431 0.68128 0.11705 0.0
C702 C 0.15886 0.74871 0.29745 0.0
O703 O 0.13528 0.6527 0.34412 0.0
O704 O 0.18681 0.66467 0.34301 0.0
C705 C 0.17833 0.74957 0.98011 0.0
C706 C 0.17724 0.72872 0.84901 0.0
C707 C 0.19828 0.76299 0.87261 0.0
C708 C 0.19877 0.77332 0.93759 0.0
C709 C 0.15721 0.71532 0.95649 0.0
C710 C 0.15651 0.70508 0.89153 0.0
C711 C 0.17964 0.76035 0.04909 0.0
H712 H 0.12989 0.63157 0.58615 0.0
H713 H 0.12369 0.61395 0.4704 0.0
H714 H 0.20799 0.71233 0.43798 0.0
H715 H 0.21383 0.73028 0.55278 0.0
H716 H 0.21418 0.78184 0.84068 0.0
H717 H 0.21523 0.79982 0.95473 0.0
H718 H 0.14135 0.69636 0.98833 0.0
H719 H 0.14017 0.6785 0.87474 0.0
C720 C 0.11511 0.37015 0.30844 0.0
C721 C 0.14481 0.40184 0.32045 0.0
C722 C 0.10146 0.34799 0.3581 0.0
C723 C 0.11712 0.35588 0.42191 0.0
H724 H 0.10085 0.36354 0.2617 0.0
H725 H 0.07735 0.32505 0.347 0.0
S726 S 0.19594 0.43538 0.47862 0.0
N727 N 0.18923 0.44031 0.40178 0.0
N728 N 0.16504 0.39726 0.49309 0.0
C729 C 0.14782 0.38661 0.43376 0.0
C730 C 0.16115 0.40989 0.38367 0.0
C731 C 0.73777 0.81297 0.41853 0.0
C732 C 0.76009 0.8002 0.42038 0.0
C733 C 0.7136 0.80422 0.365 0.0
C734 C 0.71146 0.7833 0.3104 0.0
H735 H 0.73778 0.82832 0.45992 0.0
H736 H 0.6952 0.81214 0.36833 0.0
S737 S 0.76532 0.74551 0.28708 0.0
N738 N 0.77888 0.76664 0.35899 0.0
N739 N 0.73486 0.75189 0.26009 0.0
C740 C 0.73483 0.77224 0.31012 0.0
C741 C 0.7587 0.78026 0.36439 0.0
C742 C 0.30164 0.96884 0.40569 0.0
C743 C 0.31831 1.00435 0.4227 0.0
C744 C 0.30891 0.95534 0.34935 0.0
C745 C 0.33245 0.97687 0.30702 0.0
H746 H 0.28382 0.95134 0.43717 0.0
H747 H 0.29734 0.928 0.34077 0.0
S748 S 0.38071 0.07133 0.32428 0.0
N749 N 0.35893 0.06036 0.38857 0.0
N750 N 0.36979 1.03511 0.28295 0.0
C751 C 0.34735 1.01212 0.32123 0.0
C752 C 0.34112 1.02579 0.37882 0.0
C753 C 0.40703 0.13532 0.66188 0.0
C754 C 0.3734 0.12587 0.66948 0.0
C755 C 0.43069 0.14569 0.71594 0.0
C756 C 0.42213 0.1479 0.77979 0.0
H757 H 0.41444 0.13189 0.61459 0.0
H758 H 0.45559 0.15028 0.70807 0.0
S759 S 0.33795 0.1278 0.82612 0.0
N760 N 0.33281 0.11951 0.74664 0.0
N761 N 0.37814 0.14181 0.84684 0.0
C762 C 0.38927 0.14076 0.78776 0.0
C763 C 0.36475 0.129 0.733 0.0
C764 C 1.00221 0.32079 0.75653 0.0
C765 C 0.97096 0.31879 0.74576 0.0
C766 C 1.01618 0.31095 0.70705 0.0
C767 C 0.99946 0.29795 0.64442 0.0
H768 H 1.01713 0.33228 0.80222 0.0
H769 H 1.04119 0.31497 0.71752 0.0
S770 S 0.91627 0.28685 0.5916 0.0
N771 N 0.92341 0.30285 0.66767 0.0
N772 N 0.94893 0.2827 0.57582 0.0
C773 C 0.96738 0.2943 0.63386 0.0
C774 C 0.95344 0.30521 0.68407 0.0
C775 C 0.78526 0.70845 0.64844 0.0
C776 C 0.81657 0.73882 0.65602 0.0
C777 C 0.77202 0.68778 0.70027 0.0
C778 C 0.78967 0.69561 0.76215 0.0
H779 H 0.76968 0.70179 0.60325 0.0
H780 H 0.74685 0.66603 0.6923 0.0
S781 S 0.87172 0.77343 0.80971 0.0
N782 N 0.86332 0.7774 0.73323 0.0
N783 N 0.84041 0.73631 0.82775 0.0
C784 C 0.82154 0.72527 0.7701 0.0
C785 C 0.83438 0.74736 0.71795 0.0
C786 C 1.03122 0.74695 0.72053 0.0
C787 C 1.01225 0.74245 0.66137 0.0
C788 C 1.01746 0.72602 0.77179 0.0
C789 C 0.98393 0.69895 0.76701 0.0
H790 H 1.05761 0.76634 0.72699 0.0
H791 H 1.03399 0.72978 0.81429 0.0
S792 S 0.92329 0.67445 0.62223 0.0
N793 N 0.95758 0.7084 0.60162 0.0
N794 N 0.93228 0.66797 0.69663 0.0
C795 C 0.96435 0.69423 0.70862 0.0
C796 C 0.97828 0.71614 0.65638 0.0
C797 C 0.36329 0.30416 0.707 0.0
C798 C 0.37073 0.29997 0.64306 0.0
C799 C 0.38777 0.31564 0.75986 0.0
C800 C 0.42094 0.32384 0.7509 0.0
H801 H 0.33874 0.30047 0.71568 0.0
H802 H 0.38136 0.32071 0.80706 0.0
S803 S 0.45308 0.31574 0.59401 0.0
N804 N 0.41294 0.30247 0.57486 0.0
N805 N 0.4597 0.32631 0.67285 0.0
C806 C 0.42832 0.31836 0.6876 0.0
C807 C 0.40303 0.30573 0.63408 0.0
C808 C 0.80874 0.13008 0.76588 0.0
C809 C 0.77385 0.11772 0.76158 0.0
C810 C 0.82388 0.12152 0.71626 0.0
C811 C 0.80506 0.10129 0.65916 0.0
H812 H 0.8243 0.14553 0.80867 0.0
H813 H 0.85051 0.13017 0.72332 0.0
S814 S 0.71314 0.06277 0.62278 0.0
N815 N 0.721 0.08374 0.69423 0.0
N816 N 0.7499 0.06949 0.60149 0.0
C817 C 0.77056 0.08986 0.65324 0.0
C818 C 0.7549 0.09758 0.70419 0.0
C819 C 0.71993 0.95759 0.32239 0.0
C820 C 0.69945 0.97234 0.32419 0.0
C821 C 0.74386 0.96392 0.37441 0.0
C822 C 0.74754 0.98429 0.43119 0.0
H823 H 0.71858 0.94239 0.27946 0.0
H824 H 0.76083 0.95417 0.36885 0.0
S825 S 0.69881 1.02696 0.4627 0.0
N826 N 0.68381 1.00722 0.38999 0.0
N827 N 0.72767 1.01767 0.48695 0.0
C828 C 0.72587 0.9973 0.43523 0.0
C829 C 0.70221 0.99175 0.38199 0.0
C830 C 0.14257 0.81375 0.38999 0.0
C831 C 0.13368 0.7999 0.45066 0.0
C832 C 0.15289 0.79874 0.34152 0.0
C833 C 0.15366 0.76865 0.35124 0.0
H834 H 0.13945 0.83503 0.37833 0.0
H835 H 0.15812 0.80948 0.29493 0.0
S836 S 0.1329 0.72292 0.50272 0.0
N837 N 0.12714 0.75538 0.51802 0.0
N838 N 0.14601 0.72692 0.42915 0.0
C839 C 0.1461 0.75564 0.4132 0.0
C840 C 0.13614 0.7712 0.46212 0.0
C841 C 0.31223 0.39203 0.32088 0.0
C842 C 0.34727 0.41073 0.31381 0.0
C843 C 0.29891 0.37063 0.37283 0.0
C844 C 0.32013 0.36768 0.42061 0.0
H845 H 0.29494 0.39333 0.2854 0.0
H846 H 0.27184 0.35515 0.37384 0.0
S847 S 0.41335 0.41198 0.42807 0.0
N848 N 0.40259 0.42438 0.36203 0.0
N849 N 0.37764 0.38638 0.45894 0.0
C850 C 0.35497 0.38717 0.41541 0.0
C851 C 0.36846 0.40798 0.36243 0.0
C852 C 1.05224 0.41773 0.9956 0.0
C853 C 1.03943 0.43771 0.9709 0.0
C854 C 0.07164 0.42661 0.05478 0.0
C855 C 0.081 0.45698 0.09278 0.0
H856 H 1.04658 0.39404 0.96959 0.0
H857 H 0.0796 0.40916 0.07024 0.0
S858 S 1.05638 0.52037 0.04955 0.0
N859 N 1.03861 0.49045 0.98888 0.0
N860 N 0.07637 0.50795 0.09996 0.0
C861 C 0.0693 0.47805 0.06841 0.0
C862 C 1.04858 0.46848 1.00762 0.0
C863 C 0.68069 0.64023 0.05055 0.0
C864 C 0.66925 0.63581 0.98429 0.0
C865 C 0.66655 0.65027 0.09952 0.0
C866 C 0.64027 0.65666 0.08461 0.0
H867 H 0.70224 0.6378 0.0644 0.0
H868 H 0.6781 0.65569 0.14868 0.0
S869 S 0.59993 0.64789 0.91959 0.0
N870 N 0.62863 0.63706 0.9073 0.0
N871 N 0.60259 0.65689 0.99857 0.0
C872 C 0.62743 0.65083 1.01896 0.0
C873 C 0.64163 0.64008 0.96907 0.0
C874 C 0.47157 0.08832 0.07266 0.0
C875 C 0.47659 0.08043 1.00879 0.0
C876 C 0.45994 0.06411 0.11933 0.0
C877 C 0.45222 1.03052 0.1042 0.0
H878 H 0.47502 0.11314 0.08601 0.0
H879 H 0.4547 0.07116 0.16612 0.0
S880 S 0.46205 0.99643 0.94569 0.0
N881 N 0.47515 1.03687 0.93507 0.0
N882 N 0.45053 0.99046 1.0205 0.0
C883 C 0.45791 1.02235 0.04117 0.0
C884 C 0.47095 1.04749 0.99424 0.0
C885 C 0.67421 0.08539 0.05173 0.0
C886 C 0.65848 0.07406 0.98815 0.0
C887 C 0.66269 0.06452 0.10382 0.0
C888 C 0.63487 1.03127 0.09475 0.0
H889 H 0.69692 0.11008 0.06066 0.0
H890 H 0.67718 0.07363 0.15043 0.0
S891 S 0.58378 0.98965 0.9387 0.0
N892 N 0.61227 1.02814 0.92026 0.0
N893 N 0.59152 0.98817 1.01687 0.0
C894 C 0.61794 1.02017 1.03201 0.0
C895 C 0.62938 1.04177 0.97914 0.0
C896 C 0.0772 0.62667 0.06886 0.0
C897 C 0.07968 0.64978 0.1197 0.0
C898 C 1.05563 0.61927 1.01128 0.0
C899 C 1.03674 0.63569 1.00149 0.0
H900 H 0.09323 0.61567 0.07195 0.0
H901 H 1.05487 0.60175 0.9733 0.0
S902 S 1.0338 0.69733 0.1225 0.0
N903 N 1.05891 0.68611 0.1588 0.0
N904 N 1.02233 0.67593 0.0509 0.0
C905 C 1.0387 0.65809 0.05352 0.0
C906 C 1.05895 0.66401 0.11236 0.0
C907 C 0.4457 0.46722 1.02473 0.0
C908 C 0.46162 0.47529 0.08821 0.0
C909 C 0.45856 0.45802 0.97242 0.0
C910 C 0.48803 0.45627 0.98093 0.0
H911 H 0.42178 0.46599 1.01607 0.0
H912 H 0.44388 0.44971 0.92596 0.0
S913 S 0.5399 0.47513 0.13675 0.0
N914 N 0.50942 0.48225 0.15579 0.0
N915 N 0.533 0.46354 0.05824 0.0
C916 C 0.5051 0.46562 0.04356 0.0
C917 C 0.49215 0.47558 0.09693 0.0
C918 C 0.15518 0.27695 0.42542 0.0
C919 C 0.128 0.25131 0.45555 0.0
C920 C 0.18616 0.27756 0.42438 0.0
C921 C 0.19069 0.25247 0.45322 0.0
H922 H 0.15366 0.29837 0.40844 0.0
H923 H 0.20752 0.29952 0.40695 0.0
S924 S 0.12549 0.1771 0.5281 0.0
N925 N 0.10637 0.19813 0.50696 0.0
N926 N 0.16404 0.19915 0.50472 0.0
C927 C 0.16257 0.22504 0.47727 0.0
C928 C 0.13136 0.2245 0.47856 0.0
C929 C 0.84052 0.94733 0.43458 0.0
C930 C 0.8658 0.97839 0.46702 0.0
C931 C 0.842 0.91711 0.43682 0.0
C932 C 0.86856 0.91675 0.47274 0.0
H933 H 0.81775 0.9456 0.41299 0.0
H934 H 0.82046 0.89333 0.41652 0.0
S935 S 0.943 0.99194 0.5592 0.0
N936 N 0.91984 1.00737 0.52969 0.0
N937 N 0.92254 0.95093 0.53491 0.0
C938 C 0.89542 0.94823 0.50008 0.0
C939 C 0.89407 0.97894 0.497 0.0
C940 C 0.16299 0.91884 0.44255 0.0
C941 C 0.13503 0.91576 0.47334 0.0
C942 C 0.1922 0.95109 0.43851 0.0
C943 C 0.19424 0.98122 0.46488 0.0
H944 H 0.16356 0.89613 0.427 0.0
H945 H 0.21436 0.95202 0.42073 0.0
S946 S 0.12598 0.98709 0.5413 0.0
N947 N 0.10998 0.94582 0.52363 0.0
N948 N 0.16412 1.0059 0.51538 0.0
C949 C 0.16516 0.97845 0.48985 0.0
C950 C 0.1358 0.94587 0.49445 0.0
C951 C 0.23572 0.15801 0.58916 0.0
C952 C 0.26444 0.18965 0.60943 0.0
C953 C 0.23561 0.12717 0.59441 0.0
C954 C 0.26444 0.12663 0.6189 0.0
H955 H 0.21404 0.15724 0.56442 0.0
H956 H 0.21392 0.10384 0.57289 0.0
S957 S 0.34594 0.20281 0.67987 0.0
N958 N 0.32164 0.21847 0.6591 0.0
N959 N 0.32225 0.16109 0.66483 0.0
C960 C 0.29255 0.15803 0.64311 0.0
C961 C 0.29234 0.18938 0.63934 0.0
C962 C 0.9424 0.14891 0.65034 0.0
C963 C 0.93532 0.11814 0.61659 0.0
C964 C 0.97259 0.17974 0.64407 0.0
C965 C 0.99639 0.18096 0.60254 0.0
H966 H 0.92299 0.14984 0.67635 0.0
H967 H 0.97557 0.20318 0.66636 0.0
S968 S 0.99215 0.10685 0.51111 0.0
N969 N 0.95659 0.09035 0.547 0.0
N970 N 1.01284 0.14801 0.53412 0.0
C971 C 0.99104 0.14988 0.57367 0.0
C972 C 0.96066 0.11853 0.58105 0.0
C973 C 0.9975 0.87587 0.60373 0.0
C974 C 1.0 0.84734 0.61891 0.0
C975 C 0.96702 0.87583 0.60709 0.0
C976 C 0.93762 0.84701 0.62453 0.0
H977 H 1.01861 0.89749 0.58487 0.0
H978 H 0.96568 0.8974 0.59038 0.0
S979 S 0.93094 0.76545 0.66677 0.0
N980 N 0.97104 0.79009 0.65438 0.0
N981 N 0.91336 0.78893 0.65529 0.0
C982 C 0.94032 0.81889 0.64225 0.0
C983 C 0.97162 0.81934 0.64081 0.0
C984 C 0.85639 0.61164 0.76879 0.0
C985 C 0.85991 0.58544 0.7953 0.0
C986 C 0.82641 0.61282 0.77246 0.0
C987 C 0.7991 0.58806 0.80365 0.0
H988 H 0.87793 0.63318 0.75138 0.0
H989 H 0.82591 0.63498 0.75662 0.0
S990 S 0.79368 0.51174 0.87251 0.0
N991 N 0.83176 0.53207 0.84645 0.0
N992 N 0.77612 0.53464 0.85454 0.0
C993 C 0.80128 0.56031 0.82511 0.0
C994 C 0.83145 0.55889 0.82059 0.0
C995 C 0.55888 0.31676 0.83038 0.0
C996 C 0.53096 0.31718 0.80057 0.0
C997 C 0.55907 0.28615 0.83562 0.0
C998 C 0.53146 0.2546 0.81081 0.0
H999 H 0.57942 0.33988 0.85534 0.0
H1000 H 0.57981 0.28687 0.86414 0.0
S1001 S 0.45341 0.24182 0.72304 0.0
N1002 N 0.47589 0.28333 0.74224 0.0
N1003 N 0.47683 0.22613 0.74974 0.0
C1004 C 0.50485 0.25501 0.77528 0.0
C1005 C 0.50444 0.28622 0.7708 0.0
C1006 C 0.81831 0.24759 0.77519 0.0
C1007 C 0.79192 0.24381 0.81229 0.0
C1008 C 0.84792 0.27977 0.77306 0.0
C1009 C 0.85195 0.30914 0.80769 0.0
H1010 H 0.81738 0.22521 0.75246 0.0
H1011 H 0.86887 0.28099 0.74925 0.0
S1012 S 0.78804 0.31352 0.9033 0.0
N1013 N 0.77029 0.27286 0.8777 0.0
N1014 N 0.82524 0.33272 0.8734 0.0
C1015 C 0.82442 0.30595 0.83983 0.0
C1016 C 0.79463 0.27347 0.84225 0.0
C1017 C 0.95776 0.51706 0.98022 0.0
C1018 C 0.93099 0.51939 0.94973 0.0
C1019 C 0.95652 0.48533 0.98205 0.0
C1020 C 0.92863 0.455 0.95299 0.0
H1021 H 0.98106 0.54014 0.99689 0.0
H1022 H 0.97878 0.48512 1.00031 0.0
S1023 S 0.84977 0.44676 0.87822 0.0
N1024 N 0.87407 0.48799 0.89864 0.0
N1025 N 0.87174 0.42898 0.90204 0.0
C1026 C 0.90044 0.45677 0.92907 0.0
C1027 C 0.90168 0.48879 0.92726 0.0
C1028 C 0.60761 0.49083 0.9781 0.0
C1029 C 0.60437 0.46014 0.95179 0.0
C1030 C 0.63803 0.52221 0.97717 0.0
C1031 C 0.66602 0.52393 0.94903 0.0
H1032 H 0.58566 0.49132 0.99274 0.0
H1033 H 0.63845 0.54552 0.99234 0.0
S1034 S 0.67206 0.45062 0.8819 0.0
N1035 N 0.63324 0.43329 0.90424 0.0
N1036 N 0.68974 0.49198 0.90111 0.0
C1037 C 0.66398 0.49318 0.92794 0.0
C1038 C 0.63335 0.46138 0.92974 0.0
C1039 C 0.63406 0.15853 0.98843 0.0
C1040 C 0.66128 0.18282 0.95622 0.0
C1041 C 0.60409 0.15982 0.99148 0.0
C1042 C 0.60054 0.18544 0.96246 0.0
H1043 H 0.63459 0.1366 1.00549 0.0
H1044 H 0.58257 0.13886 1.01084 0.0
S1045 S 0.66644 0.25792 0.88234 0.0
N1046 N 0.68416 0.23548 0.90269 0.0
N1047 N 0.62833 0.23787 0.90833 0.0
C1048 C 0.6288 0.21154 0.93609 0.0
C1049 C 0.65905 0.21025 0.93302 0.0
C1050 C 0.49124 0.89458 0.13074 0.0
C1051 C 0.52199 0.9248 0.12481 0.0
C1052 C 0.46068 0.89467 0.13217 0.0
C1053 C 0.45981 0.92502 0.12799 0.0
H1054 H 0.49121 0.87127 0.13969 0.0
H1055 H 0.43809 0.87139 0.14168 0.0
S1056 S 0.5334 1.01115 0.11537 0.0
N1057 N 0.54927 0.98574 0.11531 0.0
N1058 N 0.49253 0.986 0.11943 0.0
C1059 C 0.49011 0.95501 0.11946 0.0
C1060 C 0.52102 0.95487 0.11739 0.0
C1061 C 0.16423 0.60802 0.09303 0.0
C1062 C 0.19264 0.63859 0.11967 0.0
C1063 C 0.1637 0.57666 0.09306 0.0
C1064 C 0.19142 0.57497 0.12028 0.0
H1065 H 0.14112 0.60766 0.07893 0.0
H1066 H 0.14031 0.55337 0.07843 0.0
S1067 S 0.27407 0.64857 0.18266 0.0
N1068 N 0.25097 0.66572 0.16289 0.0
N1069 N 0.24973 0.60718 0.16393 0.0
C1070 C 0.22116 0.60584 0.13925 0.0
C1071 C 0.22182 0.63755 0.13867 0.0
C1072 C 0.52095 0.61913 0.08736 0.0
C1073 C 0.52376 0.64951 0.11447 0.0
C1074 C 0.49122 0.58722 0.09063 0.0
C1075 C 0.46352 0.58472 0.12156 0.0
H1076 H 0.54289 0.61952 0.0698 0.0
H1077 H 0.49122 0.56423 0.07471 0.0
S1078 S 0.45642 0.65701 0.19098 0.0
N1079 N 0.49463 0.67515 0.16544 0.0
N1080 N 0.43952 0.61569 0.17237 0.0
C1081 C 0.46504 0.61516 0.14312 0.0
C1082 C 0.49492 0.64741 0.13923 0.0
C1083 C 0.56721 0.79402 0.24229 0.0
C1084 C 0.59385 0.79203 0.27413 0.0
C1085 C 0.56724 0.82488 0.24166 0.0
C1086 C 0.59371 0.85517 0.2735 0.0
H1087 H 0.54764 0.77218 0.21247 0.0
H1088 H 0.5477 0.82557 0.21159 0.0
S1089 S 0.66687 0.86304 0.37244 0.0
N1090 N 0.64538 0.82244 0.34498 0.0
N1091 N 0.64527 0.88047 0.3444 0.0
C1092 C 0.61864 0.85292 0.31137 0.0
C1093 C 0.61872 0.82131 0.31166 0.0
C1094 C 0.32395 0.82029 0.23814 0.0
C1095 C 0.32595 0.84915 0.27043 0.0
C1096 C 0.29628 0.78755 0.24225 0.0
C1097 C 0.26919 0.78216 0.27847 0.0
H1098 H 0.34278 0.82331 0.20546 0.0
H1099 H 0.29469 0.76665 0.21209 0.0
S1100 S 0.26416 0.84843 0.37953 0.0
N1101 N 0.30039 0.86966 0.3465 0.0
N1102 N 0.24788 0.80799 0.35325 0.0
C1103 C 0.27234 0.81022 0.31623 0.0
C1104 C 0.30086 0.84379 0.31238 0.0
C1105 C 0.32204 0.53869 0.23453 0.0
C1106 C 0.32853 0.51521 0.26483 0.0
C1107 C 0.29085 0.53711 0.23692 0.0
C1108 C 0.26464 0.51193 0.26952 0.0
H1109 H 0.34041 0.55696 0.20476 0.0
H1110 H 0.28632 0.55416 0.20871 0.0
S1111 S 0.26925 0.4454 0.35954 0.0
N1112 N 0.30687 0.46734 0.33209 0.0
N1113 N 0.24803 0.46388 0.33515 0.0
C1114 C 0.27158 0.48976 0.30373 0.0
C1115 C 0.3036 0.49156 0.30183 0.0
C1116 C 0.07189 0.2672 0.07111 0.0
C1117 C 1.0474 0.27485 0.09123 0.0
C1118 C 0.08415 0.27434 1.00944 0.0
C1119 C 0.07213 0.28897 0.96488 0.0
H1120 H 0.08133 0.25503 0.10283 0.0
H1121 H 0.10263 0.26761 0.99595 0.0
S1122 S 1.01024 0.31632 0.99366 0.0
N1123 N 1.01348 0.30028 0.06185 0.0
N1124 N 1.03567 0.31229 0.94537 0.0
C1125 C 1.04806 0.29713 0.98418 0.0
C1126 C 1.03589 0.29039 0.04731 0.0
C1127 C 0.80904 0.81118 0.09453 0.0
C1128 C 0.83324 0.802 0.11205 0.0
C1129 C 0.80422 0.81809 1.0306 0.0
C1130 C 0.82325 0.81593 0.98144 0.0
H1131 H 0.79376 0.81317 0.13064 0.0
H1132 H 0.78545 0.82522 1.01955 0.0
S1133 S 0.8909 0.79463 1.00204 0.0
N1134 N 0.87715 0.7922 0.07485 0.0
N1135 N 0.86789 0.80493 0.9551 0.0
C1136 C 0.84732 0.80655 0.99812 0.0
C1137 C 0.85233 0.79963 0.06319 0.0
C1138 C 0.27677 1.03874 0.07598 0.0
C1139 C 0.30898 0.05535 0.10921 0.0
C1140 C 0.27195 1.02719 1.01038 0.0
C1141 C 0.29908 1.03145 0.97529 0.0
H1142 H 0.25519 1.03541 0.10049 0.0
H1143 H 0.24678 1.01563 0.98658 0.0
S1144 S 0.38804 0.07033 0.04219 0.0
N1145 N 0.3682 0.07384 0.10371 0.0
N1146 N 0.35913 0.05134 0.98068 0.0
C1147 C 0.33136 1.04716 1.00865 0.0
C1148 C 0.33629 0.05927 0.07546 0.0
C1149 C 0.08393 0.79948 1.02102 0.0
C1150 C 0.0726 0.81603 0.97937 0.0
C1151 C 0.07229 0.7916 0.08306 0.0
C1152 C 1.04867 0.79972 0.10592 0.0
H1153 H 0.10184 0.79239 1.00543 0.0
H1154 H 0.0818 0.77894 0.11333 0.0
S1155 S 1.01285 0.84527 1.01819 0.0
N1156 N 1.03763 0.84181 0.96729 0.0
N1157 N 1.01557 0.82664 0.08305 0.0
C1158 C 1.03724 0.81636 0.06494 0.0
C1159 C 1.04922 0.82457 1.00201 0.0
C1160 C 0.27899 0.2602 0.05308 0.0
C1161 C 0.30515 0.28449 0.09731 0.0
C1162 C 0.27493 0.26761 0.98936 0.0
C1163 C 0.29683 0.29966 0.96709 0.0
H1164 H 0.26114 0.23532 0.06809 0.0
H1165 H 0.25417 0.24816 0.95743 0.0
S1166 S 0.37105 0.37136 0.06177 0.0
N1167 N 0.35442 0.34143 0.11321 0.0
N1168 N 0.3467 0.3554 0.99341 0.0
C1169 C 0.32333 0.32415 1.0105 0.0
C1170 C 0.32752 0.31657 0.07554 0.0
C1171 C 0.85192 0.07011 0.07208 0.0
C1172 C 0.8239 0.06557 0.10408 0.0
C1173 C 0.84853 0.05899 1.0067 0.0
C1174 C 0.817 1.04294 0.97085 0.0
H1175 H 0.87654 0.08155 0.09826 0.0
H1176 H 0.87067 0.06228 0.98443 0.0
S1177 S 0.73645 1.02837 1.0304 0.0
N1178 N 0.76404 1.04619 0.09422 0.0
N1179 N 0.75761 1.02532 0.97082 0.0
C1180 C 0.78888 1.03909 1.00176 0.0
C1181 C 0.79236 0.05041 0.0685 0.0
C1182 C 0.76042 0.61982 0.3595 0.0
C1183 C 0.74894 0.63563 0.31675 0.0
C1184 C 0.74834 0.61222 0.42116 0.0
C1185 C 0.72463 0.62057 0.44305 0.0
H1186 H 0.77829 0.61253 0.34451 0.0
H1187 H 0.75725 0.59906 0.45139 0.0
S1188 S 0.68921 0.66528 0.35053 0.0
N1189 N 0.71365 0.66056 0.30045 0.0
N1190 N 0.69222 0.64813 0.41744 0.0
C1191 C 0.71375 0.63738 0.40097 0.0
C1192 C 0.72561 0.64447 0.33767 0.0
C1193 C 0.48062 0.12649 0.41314 0.0
C1194 C 0.50333 0.1516 0.46117 0.0
C1195 C 0.47759 0.13469 0.34938 0.0
C1196 C 0.49681 0.16831 0.33175 0.0
H1197 H 0.46475 0.10041 0.42503 0.0
H1198 H 0.45996 0.11471 0.31375 0.0
S1199 S 0.56184 0.24278 0.43631 0.0
N1200 N 0.54725 0.21107 0.48418 0.0
N1201 N 0.54031 0.22637 0.3653 0.0
C1202 C 0.51981 0.19347 0.37857 0.0
C1203 C 0.52336 0.18516 0.44304 0.0
C1204 C 0.92725 0.3572 0.34834 0.0
C1205 C 0.95151 0.37707 0.30629 0.0
C1206 C 0.93046 0.36838 0.41371 0.0
C1207 C 0.95816 0.39969 0.43934 0.0
H1208 H 0.90544 0.33308 0.33033 0.0
H1209 H 0.91093 0.35251 0.44431 0.0
S1210 S 1.03016 0.45948 0.3502 0.0
N1211 N 1.00499 0.42849 0.29506 0.0
N1212 N 1.01134 0.44932 0.41834 0.0
C1213 C 0.98292 0.41948 0.39792 0.0
C1214 C 0.97952 0.40819 0.33129 0.0
C1215 C 0.71172 0.10939 0.32811 0.0
C1216 C 0.73334 0.14243 0.30941 0.0
C1217 C 0.70016 0.10422 0.39067 0.0
C1218 C 0.71041 0.13184 0.43719 0.0
H1219 H 0.70311 0.08747 0.29373 0.0
H1220 H 0.68319 0.07845 0.40279 0.0
S1221 S 0.76698 0.22329 0.41222 0.0
N1222 N 0.76469 0.20302 0.34247 0.0
N1223 N 0.74311 0.19343 0.45938 0.0
C1224 C 0.73222 0.16492 0.41899 0.0
C1225 C 0.74366 0.17017 0.35536 0.0
C1226 C 0.98189 0.65435 0.35264 0.0
C1227 C 0.96221 0.62771 0.30466 0.0
C1228 C 0.98662 0.64757 0.41682 0.0
C1229 C 0.97186 0.61389 0.43547 0.0
H1230 H 0.99412 0.68061 0.34029 0.0
H1231 H 1.0023 0.66884 0.45191 0.0
S1232 S 0.91506 0.53532 0.33005 0.0
N1233 N 0.92587 0.56651 0.28165 0.0
N1234 N 0.93473 0.55385 0.40161 0.0
C1235 C 0.95153 0.58714 0.38825 0.0
C1236 C 0.94671 0.59402 0.32313 0.0
C1237 C 0.50254 0.41637 0.31744 0.0
C1238 C 0.47682 0.38299 0.29658 0.0
C1239 C 0.50931 0.4278 0.3834 0.0
C1240 C 0.49066 0.40621 0.43066 0.0
H1241 H 0.51857 0.43322 0.28292 0.0
H1242 H 0.53032 0.45311 0.39777 0.0
S1243 S 0.41677 0.31894 0.40008 0.0
N1244 N 0.42982 0.3302 0.32749 0.0
N1245 N 0.44271 0.35162 0.45144 0.0
C1246 C 0.46354 0.37359 0.41001 0.0
C1247 C 0.45658 0.36203 0.34297 0.0
C1248 C 0.36132 0.93752 0.64558 0.0
C1249 C 0.3942 0.96394 0.63663 0.0
C1250 C 0.34958 0.93083 0.70781 0.0
C1251 C 0.37028 0.95024 0.76353 0.0
H1252 H 0.34488 0.92115 0.60437 0.0
H1253 H 0.32453 0.9096 0.71251 0.0
S1254 S 0.45654 1.02511 0.7661 0.0
N1255 N 0.44593 1.01169 0.68867 0.0
N1256 N 0.42393 0.999 0.80507 0.0
C1257 C 0.40259 0.9776 0.75498 0.0
C1258 C 0.41452 0.98447 0.6918 0.0
C1259 C 0.14609 0.4496 0.71899 0.0
C1260 C 0.15236 0.47215 0.77357 0.0
C1261 C 0.14459 0.459 0.6557 0.0
C1262 C 0.14909 0.49127 0.6442 0.0
H1263 H 0.1423 0.42441 0.72518 0.0
H1264 H 0.13986 0.44081 0.61533 0.0
S1265 S 0.16772 0.5604 0.76956 0.0
N1266 N 0.16427 0.52881 0.81129 0.0
N1267 N 0.16086 0.54609 0.69254 0.0
C1268 C 0.1551 0.51398 0.69813 0.0
C1269 C 0.15687 0.50452 0.76264 0.0
C1270 C 0.65636 0.73995 0.72852 0.0
C1271 C 0.63008 0.74033 0.75976 0.0
C1272 C 0.65178 0.72795 0.66311 0.0
C1273 C 0.62074 0.71587 0.62687 0.0
H1274 H 0.68036 0.74823 0.75523 0.0
H1275 H 0.67239 0.72744 0.64111 0.0
S1276 S 0.5455 0.71552 0.68392 0.0
N1277 N 0.57301 0.73036 0.74804 0.0
N1278 N 0.56439 0.70778 0.62538 0.0
C1279 C 0.59469 0.71719 0.65701 0.0
C1280 C 0.59936 0.72942 0.72337 0.0
C1281 C 0.40287 0.50705 0.73725 0.0
C1282 C 0.38852 0.47389 0.75854 0.0
C1283 C 0.41456 0.51415 0.67522 0.0
C1284 C 0.41215 0.48836 0.6316 0.0
H1285 H 0.40467 0.52769 0.7685 0.0
H1286 H 0.42507 0.53995 0.66081 0.0
S1287 S 0.37993 0.39815 0.6647 0.0
N1288 N 0.37497 0.41551 0.73186 0.0
N1289 N 0.39623 0.42887 0.61478 0.0
C1290 C 0.39836 0.45524 0.65219 0.0
C1291 C 0.38671 0.448 0.71567 0.0
C1292 C 0.62249 0.9744 0.76027 0.0
C1293 C 0.64712 0.9659 0.77785 0.0
C1294 C 0.61715 0.98053 0.6961 0.0
C1295 C 0.63632 0.9785 0.64701 0.0
H1296 H 0.60631 0.97502 0.79589 0.0
H1297 H 0.59696 0.98557 0.68441 0.0
S1298 S 0.70757 0.96266 0.67022 0.0
N1299 N 0.69323 0.9594 0.74268 0.0
N1300 N 0.68359 0.97136 0.6223 0.0
C1301 C 0.66228 0.97189 0.66481 0.0
C1302 C 0.66757 0.96548 0.73008 0.0
C1303 C 0.14493 0.68717 0.67747 0.0
C1304 C 0.17453 0.69402 0.64839 0.0
C1305 C 0.14604 0.6985 0.74215 0.0
C1306 C 0.1768 0.71741 0.78027 0.0
H1307 H 0.1207 0.67335 0.64976 0.0
H1308 H 0.12264 0.69276 0.76227 0.0
S1309 S 0.26124 0.74034 0.72925 0.0
N1310 N 0.23536 0.71951 0.66435 0.0
N1311 N 0.23739 0.7413 0.78534 0.0
C1312 C 0.20654 0.7243 0.75213 0.0
C1313 C 0.20541 0.71252 0.68643 0.0
loop_
_geom_bond_atom_site_label_1
_geom_bond_atom_site_label_2
_geom_bond_distance
_geom_bond_site_symmetry_2
_ccdc_geom_bond_type
Tb0 C10 2.825 . S
Tb0 O11 2.347 1_455 S
Tb0 O14 2.366 1_455 S
Tb0 O19 2.418 . S
Tb0 O20 2.384 . S
Tb0 O23 2.479 . S
Tb0 O24 2.471 . S
Eu1 O12 2.418 . S
Eu1 O13 2.384 . S
Eu1 O16 2.479 . S
Eu1 O17 2.471 1_655 S
Eu1 O18 2.347 1_655 S
Eu1 O21 2.366 1_655 S
Eu1 C31 2.825 . S
C2 O18 1.259 . S
C2 O19 1.265 . S
C3 O20 1.255 . S
C3 O21 1.265 . S
C4 C6 1.380 . S
C4 C7 1.374 1_455 S
C4 C10 1.507 . S
C5 C6 1.384 . S
C5 C9 1.387 . S
C5 H32 0.930 . S
C6 C4 1.380 . S
C6 C5 1.384 . S
C6 H33 0.931 . S
C7 C4 1.374 1_655 S
C7 C8 1.390 . S
C7 H34 0.930 . S
C8 C7 1.390 . S
C8 C9 1.391 1_655 S
C8 H35 0.930 . S
C9 C5 1.387 . S
C9 C8 1.391 1_455 S
C10 Tb0 2.825 . S
C10 C4 1.507 . S
C10 O23 1.238 . S
C10 O24 1.247 . S
O11 Tb0 2.347 1_655 S
O11 C15 1.259 . S
O12 Eu1 2.418 . S
O12 C15 1.265 . S
O13 Eu1 2.384 . S
O13 C22 1.255 . S
O14 Tb0 2.366 1_655 S
O14 C22 1.265 . S
C15 O11 1.259 . S
C15 O12 1.265 . S
O16 Eu1 2.479 . S
O16 C31 1.238 . S
O17 Eu1 2.471 1_455 S
O17 C31 1.247 1_455 S
O18 Eu1 2.347 1_455 S
O18 C2 1.259 . S
O19 Tb0 2.418 . S
O19 C2 1.265 . S
O20 Tb0 2.384 . S
O20 C3 1.255 . S
O21 Eu1 2.366 1_455 S
O21 C3 1.265 . S
C22 O13 1.255 . S
C22 O14 1.265 . S
O23 Tb0 2.479 . S
O23 C10 1.238 . S
O24 Tb0 2.471 . S
O24 C10 1.247 . S
C25 C28 1.380 . S
C25 C29 1.374 1_655 S
C25 C31 1.507 . S
C26 C27 1.387 1_455 S
C26 C30 1.391 . S
C27 C26 1.387 1_655 S
C27 C28 1.384 . S
C27 H36 0.930 . S
C28 C25 1.380 . S
C28 C27 1.384 . S
C28 H37 0.931 . S
C29 C25 1.374 1_455 S
C29 C30 1.390 . S
C29 H38 0.930 . S
C30 C26 1.391 . S
C30 C29 1.390 . S
C30 H39 0.930 . S
C31 Eu1 2.825 . S
C31 O16 1.238 . S
C31 O17 1.247 1_655 S
C31 C25 1.507 . S
H32 C5 0.930 . S
H33 C6 0.931 . S
H34 C7 0.930 . S
H35 C8 0.930 . S
H36 C27 0.930 . S
H37 C28 0.931 . S
H38 C29 0.930 . S
H39 C30 0.930 . S
Tb40 C50 2.825 . S
Tb40 O51 2.347 . S
Tb40 O54 2.366 . S
Tb40 O59 2.418 . S
Tb40 O60 2.384 . S
Tb40 O63 2.479 . S
Tb40 O64 2.471 . S
Eu41 O52 2.418 . S
Eu41 O53 2.384 . S
Eu41 O56 2.479 . S
Eu41 O57 2.471 . S
Eu41 O58 2.347 . S
Eu41 O61 2.366 . S
Eu41 C71 2.825 . S
C42 O58 1.259 . S
C42 O59 1.265 . S
C43 O60 1.255 . S
C43 O61 1.265 . S
C44 C46 1.380 . S
C44 C47 1.374 . S
C44 C50 1.507 . S
C45 C46 1.384 . S
C45 C49 1.387 . S
C45 H72 0.930 . S
C46 C44 1.380 . S
C46 C45 1.384 . S
C46 H73 0.931 . S
C47 C44 1.374 . S
C47 C48 1.390 . S
C47 H74 0.930 . S
C48 C47 1.390 . S
C48 C49 1.391 . S
C48 H75 0.930 . S
C49 C45 1.387 . S
C49 C48 1.391 . S
C50 Tb40 2.825 . S
C50 C44 1.507 . S
C50 O63 1.238 . S
C50 O64 1.247 . S
O51 Tb40 2.347 . S
O51 C55 1.259 . S
O52 Eu41 2.418 . S
O52 C55 1.265 . S
O53 Eu41 2.384 . S
O53 C62 1.255 . S
O54 Tb40 2.366 . S
O54 C62 1.265 . S
C55 O51 1.259 . S
C55 O52 1.265 . S
O56 Eu41 2.479 . S
O56 C71 1.238 . S
O57 Eu41 2.471 . S
O57 C71 1.247 . S
O58 Eu41 2.347 . S
O58 C42 1.259 . S
O59 Tb40 2.418 . S
O59 C42 1.265 . S
O60 Tb40 2.384 . S
O60 C43 1.255 . S
O61 Eu41 2.366 . S
O61 C43 1.265 . S
C62 O53 1.255 . S
C62 O54 1.265 . S
O63 Tb40 2.479 . S
O63 C50 1.238 . S
O64 Tb40 2.471 . S
O64 C50 1.247 . S
C65 C68 1.380 . S
C65 C69 1.374 . S
C65 C71 1.507 . S
C66 C67 1.387 . S
C66 C70 1.391 . S
C67 C66 1.387 . S
C67 C68 1.384 . S
C67 H76 0.930 . S
C68 C65 1.380 . S
C68 C67 1.384 . S
C68 H77 0.931 . S
C69 C65 1.374 . S
C69 C70 1.390 . S
C69 H78 0.930 . S
C70 C66 1.391 . S
C70 C69 1.390 . S
C70 H79 0.930 . S
C71 Eu41 2.825 . S
C71 O56 1.238 . S
C71 O57 1.247 . S
C71 C65 1.507 . S
H72 C45 0.930 . S
H73 C46 0.931 . S
H74 C47 0.930 . S
H75 C48 0.930 . S
H76 C67 0.930 . S
H77 C68 0.931 . S
H78 C69 0.930 . S
H79 C70 0.930 . S
Tb80 C90 2.825 . S
Tb80 O91 2.347 1_565 S
Tb80 O94 2.366 1_565 S
Tb80 O99 2.418 . S
Tb80 O100 2.384 . S
Tb80 O103 2.479 . S
Tb80 O104 2.471 1_565 S
Eu81 O92 2.418 . S
Eu81 O93 2.384 . S
Eu81 O96 2.479 . S
Eu81 O97 2.471 1_545 S
Eu81 O98 2.347 1_545 S
Eu81 O101 2.366 1_545 S
Eu81 C111 2.825 . S
C82 O98 1.259 . S
C82 O99 1.265 . S
C83 O100 1.255 . S
C83 O101 1.265 . S
C84 C86 1.380 . S
C84 C87 1.374 1_565 S
C84 C90 1.507 . S
C85 C86 1.384 . S
C85 C89 1.387 1_565 S
C85 H112 0.930 . S
C86 C84 1.380 . S
C86 C85 1.384 . S
C86 H113 0.931 . S
C87 C84 1.374 1_545 S
C87 C88 1.390 . S
C87 H114 0.930 . S
C88 C87 1.390 . S
C88 C89 1.391 . S
C88 H115 0.930 . S
C89 C85 1.387 1_545 S
C89 C88 1.391 . S
C90 Tb80 2.825 . S
C90 C84 1.507 . S
C90 O103 1.238 . S
C90 O104 1.247 1_565 S
O91 Tb80 2.347 1_545 S
O91 C95 1.259 . S
O92 Eu81 2.418 . S
O92 C95 1.265 . S
O93 Eu81 2.384 . S
O93 C102 1.255 . S
O94 Tb80 2.366 1_545 S
O94 C102 1.265 . S
C95 O91 1.259 . S
C95 O92 1.265 . S
O96 Eu81 2.479 . S
O96 C111 1.238 . S
O97 Eu81 2.471 1_565 S
O97 C111 1.247 1_565 S
O98 Eu81 2.347 1_565 S
O98 C82 1.259 . S
O99 Tb80 2.418 . S
O99 C82 1.265 . S
O100 Tb80 2.384 . S
O100 C83 1.255 . S
O101 Eu81 2.366 1_565 S
O101 C83 1.265 . S
C102 O93 1.255 . S
C102 O94 1.265 . S
O103 Tb80 2.479 . S
O103 C90 1.238 . S
O104 Tb80 2.471 1_545 S
O104 C90 1.247 1_545 S
C105 C108 1.380 . S
C105 C109 1.374 1_545 S
C105 C111 1.507 . S
C106 C107 1.387 1_565 S
C106 C110 1.391 . S
C107 C106 1.387 1_545 S
C107 C108 1.384 . S
C107 H116 0.930 . S
C108 C105 1.380 . S
C108 C107 1.384 . S
C108 H117 0.931 . S
C109 C105 1.374 1_565 S
C109 C110 1.390 . S
C109 H118 0.930 . S
C110 C106 1.391 . S
C110 C109 1.390 . S
C110 H119 0.930 . S
C111 Eu81 2.825 . S
C111 O96 1.238 . S
C111 O97 1.247 1_545 S
C111 C105 1.507 . S
H112 C85 0.930 . S
H113 C86 0.931 . S
H114 C87 0.930 . S
H115 C88 0.930 . S
H116 C107 0.930 . S
H117 C108 0.931 . S
H118 C109 0.930 . S
H119 C110 0.930 . S
Tb120 C130 2.825 . S
Tb120 O131 2.347 1_455 S
Tb120 O134 2.366 1_455 S
Tb120 O139 2.418 . S
Tb120 O140 2.384 . S
Tb120 O143 2.479 . S
Tb120 O144 2.471 . S
Eu121 O132 2.418 . S
Eu121 O133 2.384 . S
Eu121 O136 2.479 . S
Eu121 O137 2.471 1_655 S
Eu121 O138 2.347 1_655 S
Eu121 O141 2.366 1_655 S
Eu121 C151 2.825 . S
C122 O138 1.259 . S
C122 O139 1.265 . S
C123 O140 1.255 . S
C123 O141 1.265 . S
C124 C126 1.380 . S
C124 C127 1.374 1_455 S
C124 C130 1.507 . S
C125 C126 1.384 . S
C125 C129 1.387 . S
C125 H152 0.930 . S
C126 C124 1.380 . S
C126 C125 1.384 . S
C126 H153 0.931 . S
C127 C124 1.374 1_655 S
C127 C128 1.390 . S
C127 H154 0.930 . S
C128 C127 1.390 . S
C128 C129 1.391 1_655 S
C128 H155 0.930 . S
C129 C125 1.387 . S
C129 C128 1.391 1_455 S
C130 Tb120 2.825 . S
C130 C124 1.507 . S
C130 O143 1.238 . S
C130 O144 1.247 . S
O131 Tb120 2.347 1_655 S
O131 C135 1.259 . S
O132 Eu121 2.418 . S
O132 C135 1.265 . S
O133 Eu121 2.384 . S
O133 C142 1.255 . S
O134 Tb120 2.366 1_655 S
O134 C142 1.265 . S
C135 O131 1.259 . S
C135 O132 1.265 . S
O136 Eu121 2.479 . S
O136 C151 1.238 . S
O137 Eu121 2.471 1_455 S
O137 C151 1.247 1_455 S
O138 Eu121 2.347 1_455 S
O138 C122 1.259 . S
O139 Tb120 2.418 . S
O139 C122 1.265 . S
O140 Tb120 2.384 . S
O140 C123 1.255 . S
O141 Eu121 2.366 1_455 S
O141 C123 1.265 . S
C142 O133 1.255 . S
C142 O134 1.265 . S
O143 Tb120 2.479 . S
O143 C130 1.238 . S
O144 Tb120 2.471 . S
O144 C130 1.247 . S
C145 C148 1.380 . S
C145 C149 1.374 1_655 S
C145 C151 1.507 . S
C146 C147 1.387 1_455 S
C146 C150 1.391 . S
C147 C146 1.387 1_655 S
C147 C148 1.384 . S
C147 H156 0.930 . S
C148 C145 1.380 . S
C148 C147 1.384 . S
C148 H157 0.931 . S
C149 C145 1.374 1_455 S
C149 C150 1.390 . S
C149 H158 0.930 . S
C150 C146 1.391 . S
C150 C149 1.390 . S
C150 H159 0.930 . S
C151 Eu121 2.825 . S
C151 O136 1.238 . S
C151 O137 1.247 1_655 S
C151 C145 1.507 . S
H152 C125 0.930 . S
H153 C126 0.931 . S
H154 C127 0.930 . S
H155 C128 0.930 . S
H156 C147 0.930 . S
H157 C148 0.931 . S
H158 C149 0.930 . S
H159 C150 0.930 . S
Tb160 C170 2.825 . S
Tb160 O171 2.347 . S
Tb160 O174 2.366 . S
Tb160 O179 2.418 . S
Tb160 O180 2.384 . S
Tb160 O183 2.479 . S
Tb160 O184 2.471 . S
Eu161 O172 2.418 . S
Eu161 O173 2.384 . S
Eu161 O176 2.479 . S
Eu161 O177 2.471 . S
Eu161 O178 2.347 . S
Eu161 O181 2.366 . S
Eu161 C191 2.825 . S
C162 O178 1.259 . S
C162 O179 1.265 . S
C163 O180 1.255 . S
C163 O181 1.265 . S
C164 C166 1.380 . S
C164 C167 1.374 . S
C164 C170 1.507 . S
C165 C166 1.384 . S
C165 C169 1.387 . S
C165 H192 0.930 . S
C166 C164 1.380 . S
C166 C165 1.384 . S
C166 H193 0.931 . S
C167 C164 1.374 . S
C167 C168 1.390 . S
C167 H194 0.930 . S
C168 C167 1.390 . S
C168 C169 1.391 . S
C168 H195 0.930 . S
C169 C165 1.387 . S
C169 C168 1.391 . S
C170 Tb160 2.825 . S
C170 C164 1.507 . S
C170 O183 1.238 . S
C170 O184 1.247 . S
O171 Tb160 2.347 . S
O171 C175 1.259 . S
O172 Eu161 2.418 . S
O172 C175 1.265 . S
O173 Eu161 2.384 . S
O173 C182 1.255 . S
O174 Tb160 2.366 . S
O174 C182 1.265 . S
C175 O171 1.259 . S
C175 O172 1.265 . S
O176 Eu161 2.479 . S
O176 C191 1.238 . S
O177 Eu161 2.471 . S
O177 C191 1.247 . S
O178 Eu161 2.347 . S
O178 C162 1.259 . S
O179 Tb160 2.418 . S
O179 C162 1.265 . S
O180 Tb160 2.384 . S
O180 C163 1.255 . S
O181 Eu161 2.366 . S
O181 C163 1.265 . S
C182 O173 1.255 . S
C182 O174 1.265 . S
O183 Tb160 2.479 . S
O183 C170 1.238 . S
O184 Tb160 2.471 . S
O184 C170 1.247 . S
C185 C188 1.380 . S
C185 C189 1.374 . S
C185 C191 1.507 . S
C186 C187 1.387 . S
C186 C190 1.391 . S
C187 C186 1.387 . S
C187 C188 1.384 . S
C187 H196 0.930 . S
C188 C185 1.380 . S
C188 C187 1.384 . S
C188 H197 0.931 . S
C189 C185 1.374 . S
C189 C190 1.390 . S
C189 H198 0.930 . S
C190 C186 1.391 . S
C190 C189 1.390 . S
C190 H199 0.930 . S
C191 Eu161 2.825 . S
C191 O176 1.238 . S
C191 O177 1.247 . S
C191 C185 1.507 . S
H192 C165 0.930 . S
H193 C166 0.931 . S
H194 C167 0.930 . S
H195 C168 0.930 . S
H196 C187 0.930 . S
H197 C188 0.931 . S
H198 C189 0.930 . S
H199 C190 0.930 . S
Tb200 C210 2.825 . S
Tb200 O211 2.347 1_565 S
Tb200 O214 2.366 1_565 S
Tb200 O219 2.418 . S
Tb200 O220 2.384 . S
Tb200 O223 2.479 . S
Tb200 O224 2.471 1_565 S
Eu201 O212 2.418 . S
Eu201 O213 2.384 . S
Eu201 O216 2.479 . S
Eu201 O217 2.469 1_545 S
Eu201 O218 2.347 1_545 S
Eu201 O221 2.366 1_545 S
Eu201 C231 2.825 . S
C202 O218 1.259 . S
C202 O219 1.265 . S
C203 O220 1.255 . S
C203 O221 1.265 . S
C204 C206 1.380 1_545 S
C204 C207 1.374 . S
C204 C210 1.507 1_545 S
C205 C206 1.384 . S
C205 C209 1.387 1_565 S
C205 H232 0.930 . S
C206 C204 1.380 1_565 S
C206 C205 1.384 . S
C206 H233 0.931 . S
C207 C204 1.374 . S
C207 C208 1.390 . S
C207 H234 0.930 . S
C208 C207 1.390 . S
C208 C209 1.391 . S
C208 H235 0.930 . S
C209 C205 1.387 1_545 S
C209 C208 1.391 . S
C210 Tb200 2.825 . S
C210 C204 1.507 1_565 S
C210 O223 1.238 . S
C210 O224 1.247 1_565 S
O211 Tb200 2.347 1_545 S
O211 C215 1.259 . S
O212 Eu201 2.418 . S
O212 C215 1.265 . S
O213 Eu201 2.384 . S
O213 C222 1.255 . S
O214 Tb200 2.366 1_545 S
O214 C222 1.265 . S
C215 O211 1.259 . S
C215 O212 1.265 . S
O216 Eu201 2.479 . S
O216 C231 1.238 . S
O217 Eu201 2.469 1_565 S
O217 C231 1.246 1_565 S
O218 Eu201 2.347 1_565 S
O218 C202 1.259 . S
O219 Tb200 2.418 . S
O219 C202 1.265 . S
O220 Tb200 2.384 . S
O220 C203 1.255 . S
O221 Eu201 2.366 1_565 S
O221 C203 1.265 . S
C222 O213 1.255 . S
C222 O214 1.265 . S
O223 Tb200 2.479 . S
O223 C210 1.238 . S
O224 Tb200 2.471 1_545 S
O224 C210 1.247 1_545 S
C225 C228 1.380 . S
C225 C229 1.374 1_545 S
C225 C231 1.507 . S
C226 C227 1.387 1_565 S
C226 C230 1.391 . S
C227 C226 1.387 1_545 S
C227 C228 1.384 . S
C227 H236 0.930 . S
C228 C225 1.380 . S
C228 C227 1.384 . S
C228 H237 0.931 . S
C229 C225 1.374 1_565 S
C229 C230 1.390 . S
C229 H238 0.930 . S
C230 C226 1.391 . S
C230 C229 1.390 . S
C230 H239 0.930 . S
C231 Eu201 2.825 . S
C231 O216 1.238 . S
C231 O217 1.246 1_545 S
C231 C225 1.507 . S
H232 C205 0.930 . S
H233 C206 0.931 . S
H234 C207 0.930 . S
H235 C208 0.930 . S
H236 C227 0.930 . S
H237 C228 0.931 . S
H238 C229 0.930 . S
H239 C230 0.930 . S
Tb240 C250 2.825 . S
Tb240 O251 2.347 . S
Tb240 O254 2.366 . S
Tb240 O259 2.418 . S
Tb240 O260 2.384 . S
Tb240 O263 2.479 . S
Tb240 O264 2.471 . S
Eu241 O252 2.418 . S
Eu241 O253 2.384 . S
Eu241 O256 2.479 . S
Eu241 O257 2.471 . S
Eu241 O258 2.347 . S
Eu241 O261 2.366 . S
Eu241 C271 2.825 . S
C242 O258 1.259 . S
C242 O259 1.265 . S
C243 O260 1.255 . S
C243 O261 1.265 . S
C244 C246 1.380 . S
C244 C247 1.374 . S
C244 C250 1.507 . S
C245 C246 1.384 . S
C245 C249 1.387 . S
C245 H272 0.930 . S
C246 C244 1.380 . S
C246 C245 1.384 . S
C246 H273 0.931 . S
C247 C244 1.374 . S
C247 C248 1.390 . S
C247 H274 0.930 . S
C248 C247 1.390 . S
C248 C249 1.391 . S
C248 H275 0.930 . S
C249 C245 1.387 . S
C249 C248 1.391 . S
C250 Tb240 2.825 . S
C250 C244 1.507 . S
C250 O263 1.238 . S
C250 O264 1.247 . S
O251 Tb240 2.347 . S
O251 C255 1.259 . S
O252 Eu241 2.418 . S
O252 C255 1.265 . S
O253 Eu241 2.384 . S
O253 C262 1.255 . S
O254 Tb240 2.366 . S
O254 C262 1.265 . S
C255 O251 1.259 . S
C255 O252 1.265 . S
O256 Eu241 2.479 . S
O256 C271 1.238 . S
O257 Eu241 2.471 . S
O257 C271 1.247 . S
O258 Eu241 2.347 . S
O258 C242 1.259 . S
O259 Tb240 2.418 . S
O259 C242 1.265 . S
O260 Tb240 2.384 . S
O260 C243 1.255 . S
O261 Eu241 2.366 . S
O261 C243 1.265 . S
C262 O253 1.255 . S
C262 O254 1.265 . S
O263 Tb240 2.479 . S
O263 C250 1.238 . S
O264 Tb240 2.471 . S
O264 C250 1.247 . S
C265 C268 1.380 . S
C265 C269 1.374 . S
C265 C271 1.507 1_554 S
C266 C267 1.387 . S
C266 C270 1.391 . S
C267 C266 1.387 . S
C267 C268 1.384 . S
C267 H276 0.930 . S
C268 C265 1.380 . S
C268 C267 1.384 . S
C268 H277 0.931 . S
C269 C265 1.374 . S
C269 C270 1.390 . S
C269 H278 0.930 . S
C270 C266 1.391 . S
C270 C269 1.390 . S
C270 H279 0.930 . S
C271 Eu241 2.825 . S
C271 O256 1.238 . S
C271 O257 1.247 . S
C271 C265 1.507 1_556 S
H272 C245 0.930 . S
H273 C246 0.931 . S
H274 C247 0.930 . S
H275 C248 0.930 . S
H276 C267 0.930 . S
H277 C268 0.931 . S
H278 C269 0.930 . S
H279 C270 0.930 . S
Tb280 C290 2.825 . S
Tb280 O291 2.347 . S
Tb280 O294 2.366 . S
Tb280 O299 2.418 . S
Tb280 O300 2.384 . S
Tb280 O303 2.479 . S
Tb280 O304 2.471 . S
Eu281 O292 2.418 . S
Eu281 O293 2.384 . S
Eu281 O296 2.479 . S
Eu281 O297 2.471 . S
Eu281 O298 2.347 . S
Eu281 O301 2.366 . S
Eu281 C311 2.825 . S
C282 O298 1.259 . S
C282 O299 1.265 . S
C283 O300 1.255 . S
C283 O301 1.265 . S
C284 C286 1.380 . S
C284 C287 1.374 . S
C284 C290 1.507 . S
C285 C286 1.384 . S
C285 C289 1.387 . S
C285 H312 0.930 . S
C286 C284 1.380 . S
C286 C285 1.384 . S
C286 H313 0.931 . S
C287 C284 1.374 . S
C287 C288 1.390 . S
C287 H314 0.930 . S
C288 C287 1.390 . S
C288 C289 1.391 . S
C288 H315 0.930 . S
C289 C285 1.387 . S
C289 C288 1.391 . S
C290 Tb280 2.825 . S
C290 C284 1.507 . S
C290 O303 1.238 . S
C290 O304 1.247 . S
O291 Tb280 2.347 . S
O291 C295 1.259 . S
O292 Eu281 2.418 . S
O292 C295 1.265 . S
O293 Eu281 2.384 . S
O293 C302 1.255 . S
O294 Tb280 2.366 . S
O294 C302 1.265 . S
C295 O291 1.259 . S
C295 O292 1.265 . S
O296 Eu281 2.479 . S
O296 C311 1.238 . S
O297 Eu281 2.471 . S
O297 C311 1.247 . S
O298 Eu281 2.347 . S
O298 C282 1.259 . S
O299 Tb280 2.418 . S
O299 C282 1.265 . S
O300 Tb280 2.384 . S
O300 C283 1.255 . S
O301 Eu281 2.366 . S
O301 C283 1.265 . S
C302 O293 1.255 . S
C302 O294 1.265 . S
O303 Tb280 2.479 . S
O303 C290 1.238 . S
O304 Tb280 2.471 . S
O304 C290 1.247 . S
C305 C308 1.380 . S
C305 C309 1.374 . S
C305 C311 1.507 1_554 S
C306 C307 1.387 . S
C306 C310 1.391 . S
C307 C306 1.387 . S
C307 C308 1.384 . S
C307 H316 0.930 . S
C308 C305 1.380 . S
C308 C307 1.384 . S
C308 H317 0.931 . S
C309 C305 1.374 . S
C309 C310 1.390 . S
C309 H318 0.930 . S
C310 C306 1.391 . S
C310 C309 1.390 . S
C310 H319 0.930 . S
C311 Eu281 2.825 . S
C311 O296 1.238 . S
C311 O297 1.247 . S
C311 C305 1.507 1_556 S
H312 C285 0.930 . S
H313 C286 0.931 . S
H314 C287 0.930 . S
H315 C288 0.930 . S
H316 C307 0.930 . S
H317 C308 0.931 . S
H318 C309 0.930 . S
H319 C310 0.930 . S
Tb320 C330 2.825 . S
Tb320 O331 2.347 . S
Tb320 O334 2.366 . S
Tb320 O339 2.418 . S
Tb320 O340 2.384 . S
Tb320 O343 2.479 . S
Tb320 O344 2.471 . S
Eu321 O332 2.418 . S
Eu321 O333 2.384 . S
Eu321 O336 2.479 . S
Eu321 O337 2.471 . S
Eu321 O338 2.347 . S
Eu321 O341 2.366 . S
Eu321 C351 2.825 . S
C322 O338 1.259 . S
C322 O339 1.265 . S
C323 O340 1.255 . S
C323 O341 1.265 . S
C324 C326 1.380 . S
C324 C327 1.374 . S
C324 C330 1.507 . S
C325 C326 1.384 . S
C325 C329 1.387 . S
C325 H352 0.930 . S
C326 C324 1.380 . S
C326 C325 1.384 . S
C326 H353 0.931 . S
C327 C324 1.374 . S
C327 C328 1.390 . S
C327 H354 0.930 . S
C328 C327 1.390 . S
C328 C329 1.391 . S
C328 H355 0.930 . S
C329 C325 1.387 . S
C329 C328 1.391 . S
C330 Tb320 2.825 . S
C330 C324 1.507 . S
C330 O343 1.238 . S
C330 O344 1.247 . S
O331 Tb320 2.347 . S
O331 C335 1.259 . S
O332 Eu321 2.418 . S
O332 C335 1.265 . S
O333 Eu321 2.384 . S
O333 C342 1.255 . S
O334 Tb320 2.366 . S
O334 C342 1.265 . S
C335 O331 1.259 . S
C335 O332 1.265 . S
O336 Eu321 2.479 . S
O336 C351 1.238 . S
O337 Eu321 2.471 . S
O337 C351 1.247 . S
O338 Eu321 2.347 . S
O338 C322 1.259 . S
O339 Tb320 2.418 . S
O339 C322 1.265 . S
O340 Tb320 2.384 . S
O340 C323 1.255 . S
O341 Eu321 2.366 . S
O341 C323 1.265 . S
C342 O333 1.255 . S
C342 O334 1.265 . S
O343 Tb320 2.479 . S
O343 C330 1.238 . S
O344 Tb320 2.471 . S
O344 C330 1.247 . S
C345 C348 1.380 . S
C345 C349 1.374 . S
C345 C351 1.507 1_554 S
C346 C347 1.387 . S
C346 C350 1.391 . S
C347 C346 1.387 . S
C347 C348 1.384 . S
C347 H356 0.930 . S
C348 C345 1.380 . S
C348 C347 1.384 . S
C348 H357 0.931 . S
C349 C345 1.374 . S
C349 C350 1.390 . S
C349 H358 0.930 . S
C350 C346 1.391 . S
C350 C349 1.390 . S
C350 H359 0.930 . S
C351 Eu321 2.825 . S
C351 O336 1.238 . S
C351 O337 1.247 . S
C351 C345 1.507 1_556 S
H352 C325 0.930 . S
H353 C326 0.931 . S
H354 C327 0.930 . S
H355 C328 0.930 . S
H356 C347 0.930 . S
H357 C348 0.931 . S
H358 C349 0.930 . S
H359 C350 0.930 . S
Tb360 C370 2.825 1_556 S
Tb360 O371 2.347 . S
Tb360 O374 2.366 . S
Tb360 O379 2.418 . S
Tb360 O380 2.384 . S
Tb360 O383 2.479 . S
Tb360 O384 2.471 . S
Eu361 O372 2.418 . S
Eu361 O373 2.384 . S
Eu361 O376 2.479 . S
Eu361 O377 2.471 . S
Eu361 O378 2.347 . S
Eu361 O381 2.366 . S
Eu361 C391 2.825 . S
C362 O378 1.259 . S
C362 O379 1.265 . S
C363 O380 1.255 . S
C363 O381 1.265 . S
C364 C366 1.380 . S
C364 C367 1.374 . S
C364 C370 1.507 . S
C365 C366 1.384 . S
C365 C369 1.387 . S
C365 H392 0.930 . S
C366 C364 1.380 . S
C366 C365 1.384 . S
C366 H393 0.931 . S
C367 C364 1.374 . S
C367 C368 1.390 . S
C367 H394 0.930 . S
C368 C367 1.390 . S
C368 C369 1.391 . S
C368 H395 0.930 . S
C369 C365 1.387 . S
C369 C368 1.391 . S
C370 Tb360 2.825 1_554 S
C370 C364 1.507 . S
C370 O383 1.238 1_554 S
C370 O384 1.247 1_554 S
O371 Tb360 2.347 . S
O371 C375 1.259 . S
O372 Eu361 2.418 . S
O372 C375 1.265 . S
O373 Eu361 2.384 . S
O373 C382 1.255 . S
O374 Tb360 2.366 . S
O374 C382 1.265 . S
C375 O371 1.259 . S
C375 O372 1.265 . S
O376 Eu361 2.479 . S
O376 C391 1.238 . S
O377 Eu361 2.471 . S
O377 C391 1.247 . S
O378 Eu361 2.347 . S
O378 C362 1.259 . S
O379 Tb360 2.418 . S
O379 C362 1.265 . S
O380 Tb360 2.384 . S
O380 C363 1.255 . S
O381 Eu361 2.366 . S
O381 C363 1.265 . S
C382 O373 1.255 . S
C382 O374 1.265 . S
O383 Tb360 2.479 . S
O383 C370 1.238 1_556 S
O384 Tb360 2.471 . S
O384 C370 1.247 1_556 S
C385 C388 1.380 . S
C385 C389 1.374 . S
C385 C391 1.507 . S
C386 C387 1.387 . S
C386 C390 1.391 . S
C387 C386 1.387 . S
C387 C388 1.384 . S
C387 H396 0.930 . S
C388 C385 1.380 . S
C388 C387 1.384 . S
C388 H397 0.931 . S
C389 C385 1.374 . S
C389 C390 1.390 . S
C389 H398 0.930 . S
C390 C386 1.391 . S
C390 C389 1.390 . S
C390 H399 0.930 . S
C391 Eu361 2.825 . S
C391 O376 1.238 . S
C391 O377 1.247 . S
C391 C385 1.507 . S
H392 C365 0.930 . S
H393 C366 0.931 . S
H394 C367 0.930 . S
H395 C368 0.930 . S
H396 C387 0.930 . S
H397 C388 0.931 . S
H398 C389 0.930 . S
H399 C390 0.930 . S
Tb400 C410 2.825 1_556 S
Tb400 O411 2.347 . S
Tb400 O414 2.366 . S
Tb400 O419 2.418 . S
Tb400 O420 2.384 . S
Tb400 O423 2.479 1_556 S
Tb400 O424 2.471 . S
Eu401 O412 2.418 . S
Eu401 O413 2.384 . S
Eu401 O416 2.479 . S
Eu401 O417 2.471 . S
Eu401 O418 2.347 . S
Eu401 O421 2.366 . S
Eu401 C431 2.825 . S
C402 O418 1.259 . S
C402 O419 1.265 . S
C403 O420 1.255 . S
C403 O421 1.265 . S
C404 C406 1.380 . S
C404 C407 1.374 . S
C404 C410 1.507 . S
C405 C406 1.384 . S
C405 C409 1.387 . S
C405 H432 0.930 . S
C406 C404 1.380 . S
C406 C405 1.384 . S
C406 H433 0.931 . S
C407 C404 1.374 . S
C407 C408 1.390 . S
C407 H434 0.930 . S
C408 C407 1.390 . S
C408 C409 1.391 . S
C408 H435 0.930 . S
C409 C405 1.387 . S
C409 C408 1.391 . S
C410 Tb400 2.825 1_554 S
C410 C404 1.507 . S
C410 O423 1.238 . S
C410 O424 1.247 1_554 S
O411 Tb400 2.347 . S
O411 C415 1.259 . S
O412 Eu401 2.418 . S
O412 C415 1.265 . S
O413 Eu401 2.384 . S
O413 C422 1.255 . S
O414 Tb400 2.366 . S
O414 C422 1.265 . S
C415 O411 1.259 . S
C415 O412 1.265 . S
O416 Eu401 2.479 . S
O416 C431 1.238 . S
O417 Eu401 2.471 . S
O417 C431 1.247 . S
O418 Eu401 2.347 . S
O418 C402 1.259 . S
O419 Tb400 2.418 . S
O419 C402 1.265 . S
O420 Tb400 2.384 . S
O420 C403 1.255 . S
O421 Eu401 2.366 . S
O421 C403 1.265 . S
C422 O413 1.255 . S
C422 O414 1.265 . S
O423 Tb400 2.479 1_554 S
O423 C410 1.238 . S
O424 Tb400 2.471 . S
O424 C410 1.247 1_556 S
C425 C428 1.380 . S
C425 C429 1.374 . S
C425 C431 1.507 . S
C426 C427 1.387 . S
C426 C430 1.391 . S
C427 C426 1.387 . S
C427 C428 1.384 . S
C427 H436 0.930 . S
C428 C425 1.380 . S
C428 C427 1.384 . S
C428 H437 0.931 . S
C429 C425 1.374 . S
C429 C430 1.390 . S
C429 H438 0.930 . S
C430 C426 1.391 . S
C430 C429 1.390 . S
C430 H439 0.930 . S
C431 Eu401 2.825 . S
C431 O416 1.238 . S
C431 O417 1.247 . S
C431 C425 1.507 . S
H432 C405 0.930 . S
H433 C406 0.931 . S
H434 C407 0.930 . S
H435 C408 0.930 . S
H436 C427 0.930 . S
H437 C428 0.931 . S
H438 C429 0.930 . S
H439 C430 0.930 . S
Tb440 C450 2.825 1_556 S
Tb440 O451 2.347 . S
Tb440 O454 2.366 . S
Tb440 O459 2.418 . S
Tb440 O460 2.384 . S
Tb440 O463 2.479 . S
Tb440 O464 2.471 . S
Eu441 O452 2.418 . S
Eu441 O453 2.384 . S
Eu441 O456 2.479 . S
Eu441 O457 2.471 . S
Eu441 O458 2.347 . S
Eu441 O461 2.366 . S
Eu441 C471 2.825 . S
C442 O458 1.259 . S
C442 O459 1.265 . S
C443 O460 1.255 . S
C443 O461 1.265 . S
C444 C446 1.380 . S
C444 C447 1.374 . S
C444 C450 1.507 . S
C445 C446 1.384 . S
C445 C449 1.387 . S
C445 H472 0.930 . S
C446 C444 1.380 . S
C446 C445 1.384 . S
C446 H473 0.931 . S
C447 C444 1.374 . S
C447 C448 1.390 . S
C447 H474 0.930 . S
C448 C447 1.390 . S
C448 C449 1.391 . S
C448 H475 0.930 . S
C449 C445 1.387 . S
C449 C448 1.391 . S
C450 Tb440 2.825 1_554 S
C450 C444 1.507 . S
C450 O463 1.238 1_554 S
C450 O464 1.247 1_554 S
O451 Tb440 2.347 . S
O451 C455 1.259 . S
O452 Eu441 2.418 . S
O452 C455 1.265 . S
O453 Eu441 2.384 . S
O453 C462 1.255 . S
O454 Tb440 2.366 . S
O454 C462 1.265 . S
C455 O451 1.259 . S
C455 O452 1.265 . S
O456 Eu441 2.479 . S
O456 C471 1.238 . S
O457 Eu441 2.471 . S
O457 C471 1.247 . S
O458 Eu441 2.347 . S
O458 C442 1.259 . S
O459 Tb440 2.418 . S
O459 C442 1.265 . S
O460 Tb440 2.384 . S
O460 C443 1.255 . S
O461 Eu441 2.366 . S
O461 C443 1.265 . S
C462 O453 1.255 . S
C462 O454 1.265 . S
O463 Tb440 2.479 . S
O463 C450 1.238 1_556 S
O464 Tb440 2.471 . S
O464 C450 1.247 1_556 S
C465 C468 1.380 . S
C465 C469 1.374 . S
C465 C471 1.507 . S
C466 C467 1.387 . S
C466 C470 1.391 . S
C467 C466 1.387 . S
C467 C468 1.384 . S
C467 H476 0.930 . S
C468 C465 1.380 . S
C468 C467 1.384 . S
C468 H477 0.931 . S
C469 C465 1.374 . S
C469 C470 1.390 . S
C469 H478 0.930 . S
C470 C466 1.391 . S
C470 C469 1.390 . S
C470 H479 0.930 . S
C471 Eu441 2.825 . S
C471 O456 1.238 . S
C471 O457 1.247 . S
C471 C465 1.507 . S
H472 C445 0.930 . S
H473 C446 0.931 . S
H474 C447 0.930 . S
H475 C448 0.930 . S
H476 C467 0.930 . S
H477 C468 0.931 . S
H478 C469 0.930 . S
H479 C470 0.930 . S
Tb480 C490 2.825 . S
Tb480 O491 2.347 . S
Tb480 O494 2.366 . S
Tb480 O499 2.418 . S
Tb480 O500 2.384 . S
Tb480 O503 2.479 . S
Tb480 O504 2.471 . S
Eu481 O492 2.418 . S
Eu481 O493 2.384 . S
Eu481 O496 2.479 1_554 S
Eu481 O497 2.471 1_554 S
Eu481 O498 2.347 . S
Eu481 O501 2.366 . S
Eu481 C511 2.825 1_554 S
C482 O498 1.259 . S
C482 O499 1.265 . S
C483 O500 1.255 . S
C483 O501 1.265 . S
C484 C486 1.380 . S
C484 C487 1.374 . S
C484 C490 1.507 . S
C485 C486 1.384 . S
C485 C489 1.387 . S
C485 H512 0.930 . S
C486 C484 1.380 . S
C486 C485 1.384 . S
C486 H513 0.931 . S
C487 C484 1.374 . S
C487 C488 1.390 . S
C487 H514 0.930 . S
C488 C487 1.390 . S
C488 C489 1.391 . S
C488 H515 0.930 . S
C489 C485 1.387 . S
C489 C488 1.391 . S
C490 Tb480 2.825 . S
C490 C484 1.507 . S
C490 O503 1.238 . S
C490 O504 1.247 . S
O491 Tb480 2.347 . S
O491 C495 1.259 . S
O492 Eu481 2.418 . S
O492 C495 1.265 . S
O493 Eu481 2.384 . S
O493 C502 1.255 . S
O494 Tb480 2.366 . S
O494 C502 1.265 . S
C495 O491 1.259 . S
C495 O492 1.265 . S
O496 Eu481 2.479 1_556 S
O496 C511 1.238 . S
O497 Eu481 2.471 1_556 S
O497 C511 1.247 . S
O498 Eu481 2.347 . S
O498 C482 1.259 . S
O499 Tb480 2.418 . S
O499 C482 1.265 . S
O500 Tb480 2.384 . S
O500 C483 1.255 . S
O501 Eu481 2.366 . S
O501 C483 1.265 . S
C502 O493 1.255 . S
C502 O494 1.265 . S
O503 Tb480 2.479 . S
O503 C490 1.238 . S
O504 Tb480 2.471 . S
O504 C490 1.247 . S
C505 C508 1.380 . S
C505 C509 1.374 . S
C505 C511 1.507 . S
C506 C507 1.387 . S
C506 C510 1.391 . S
C507 C506 1.387 . S
C507 C508 1.384 . S
C507 H516 0.930 . S
C508 C505 1.380 . S
C508 C507 1.384 . S
C508 H517 0.931 . S
C509 C505 1.374 . S
C509 C510 1.390 . S
C509 H518 0.930 . S
C510 C506 1.391 . S
C510 C509 1.390 . S
C510 H519 0.930 . S
C511 Eu481 2.825 1_556 S
C511 O496 1.238 . S
C511 O497 1.247 . S
C511 C505 1.507 . S
H512 C485 0.930 . S
H513 C486 0.931 . S
H514 C487 0.930 . S
H515 C488 0.930 . S
H516 C507 0.930 . S
H517 C508 0.931 . S
H518 C509 0.930 . S
H519 C510 0.930 . S
Tb520 C530 2.825 1_554 S
Tb520 O531 2.347 . S
Tb520 O534 2.366 . S
Tb520 O539 2.418 . S
Tb520 O540 2.384 . S
Tb520 O543 2.479 1_554 S
Tb520 O544 2.471 1_554 S
Eu521 O532 2.418 . S
Eu521 O533 2.384 . S
Eu521 O536 2.479 . S
Eu521 O537 2.471 . S
Eu521 O538 2.347 . S
Eu521 O541 2.366 . S
Eu521 C551 2.825 . S
C522 O538 1.259 . S
C522 O539 1.265 . S
C523 O540 1.255 . S
C523 O541 1.265 . S
C524 C526 1.380 . S
C524 C527 1.374 . S
C524 C530 1.507 . S
C525 C526 1.384 . S
C525 C529 1.387 . S
C525 H552 0.930 . S
C526 C524 1.380 . S
C526 C525 1.384 . S
C526 H553 0.931 . S
C527 C524 1.374 . S
C527 C528 1.390 . S
C527 H554 0.930 . S
C528 C527 1.390 . S
C528 C529 1.391 . S
C528 H555 0.930 . S
C529 C525 1.387 . S
C529 C528 1.391 . S
C530 Tb520 2.825 1_556 S
C530 C524 1.507 . S
C530 O543 1.238 . S
C530 O544 1.247 . S
O531 Tb520 2.347 . S
O531 C535 1.259 . S
O532 Eu521 2.418 . S
O532 C535 1.265 . S
O533 Eu521 2.384 . S
O533 C542 1.255 . S
O534 Tb520 2.366 . S
O534 C542 1.265 . S
C535 O531 1.259 . S
C535 O532 1.265 . S
O536 Eu521 2.479 . S
O536 C551 1.238 . S
O537 Eu521 2.471 . S
O537 C551 1.247 . S
O538 Eu521 2.347 . S
O538 C522 1.259 . S
O539 Tb520 2.418 . S
O539 C522 1.265 . S
O540 Tb520 2.384 . S
O540 C523 1.255 . S
O541 Eu521 2.366 . S
O541 C523 1.265 . S
C542 O533 1.255 . S
C542 O534 1.265 . S
O543 Tb520 2.479 1_556 S
O543 C530 1.238 . S
O544 Tb520 2.471 1_556 S
O544 C530 1.247 . S
C545 C548 1.380 . S
C545 C549 1.374 . S
C545 C551 1.507 . S
C546 C547 1.387 . S
C546 C550 1.391 . S
C547 C546 1.387 . S
C547 C548 1.384 . S
C547 H556 0.930 . S
C548 C545 1.380 . S
C548 C547 1.384 . S
C548 H557 0.931 . S
C549 C545 1.374 . S
C549 C550 1.390 . S
C549 H558 0.930 . S
C550 C546 1.391 . S
C550 C549 1.390 . S
C550 H559 0.930 . S
C551 Eu521 2.825 . S
C551 O536 1.238 . S
C551 O537 1.247 . S
C551 C545 1.507 . S
H552 C525 0.930 . S
H553 C526 0.931 . S
H554 C527 0.930 . S
H555 C528 0.930 . S
H556 C547 0.930 . S
H557 C548 0.931 . S
H558 C549 0.930 . S
H559 C550 0.930 . S
Tb560 C570 2.825 . S
Tb560 O571 2.347 . S
Tb560 O574 2.366 . S
Tb560 O579 2.418 . S
Tb560 O580 2.384 . S
Tb560 O583 2.479 . S
Tb560 O584 2.471 . S
Eu561 O572 2.418 . S
Eu561 O573 2.384 . S
Eu561 O576 2.479 . S
Eu561 O577 2.471 . S
Eu561 O578 2.347 . S
Eu561 O581 2.366 . S
Eu561 C591 2.825 1_554 S
C562 O578 1.259 . S
C562 O579 1.265 . S
C563 O580 1.255 . S
C563 O581 1.265 . S
C564 C566 1.380 . S
C564 C567 1.374 . S
C564 C570 1.507 . S
C565 C566 1.384 . S
C565 C569 1.387 . S
C565 H592 0.930 . S
C566 C564 1.380 . S
C566 C565 1.384 . S
C566 H593 0.931 . S
C567 C564 1.374 . S
C567 C568 1.390 . S
C567 H594 0.930 . S
C568 C567 1.390 . S
C568 C569 1.391 . S
C568 H595 0.930 . S
C569 C565 1.387 . S
C569 C568 1.391 . S
C570 Tb560 2.825 . S
C570 C564 1.507 . S
C570 O583 1.238 . S
C570 O584 1.247 . S
O571 Tb560 2.347 . S
O571 C575 1.259 . S
O572 Eu561 2.418 . S
O572 C575 1.265 . S
O573 Eu561 2.384 . S
O573 C582 1.255 . S
O574 Tb560 2.366 . S
O574 C582 1.265 . S
C575 O571 1.259 . S
C575 O572 1.265 . S
O576 Eu561 2.479 . S
O576 C591 1.238 1_554 S
O577 Eu561 2.471 . S
O577 C591 1.247 1_554 S
O578 Eu561 2.347 . S
O578 C562 1.259 . S
O579 Tb560 2.418 . S
O579 C562 1.265 . S
O580 Tb560 2.384 . S
O580 C563 1.255 . S
O581 Eu561 2.366 . S
O581 C563 1.265 . S
C582 O573 1.255 . S
C582 O574 1.265 . S
O583 Tb560 2.479 . S
O583 C570 1.238 . S
O584 Tb560 2.471 . S
O584 C570 1.247 . S
C585 C588 1.380 . S
C585 C589 1.374 . S
C585 C591 1.507 . S
C586 C587 1.387 . S
C586 C590 1.391 . S
C587 C586 1.387 . S
C587 C588 1.384 . S
C587 H596 0.930 . S
C588 C585 1.380 . S
C588 C587 1.384 . S
C588 H597 0.931 . S
C589 C585 1.374 . S
C589 C590 1.390 . S
C589 H598 0.930 . S
C590 C586 1.391 . S
C590 C589 1.390 . S
C590 H599 0.930 . S
C591 Eu561 2.825 1_556 S
C591 O576 1.238 1_556 S
C591 O577 1.247 1_556 S
C591 C585 1.507 . S
H592 C565 0.930 . S
H593 C566 0.931 . S
H594 C567 0.930 . S
H595 C568 0.930 . S
H596 C587 0.930 . S
H597 C588 0.931 . S
H598 C589 0.930 . S
H599 C590 0.930 . S
Tb600 C610 2.825 . S
Tb600 O611 2.347 . S
Tb600 O614 2.366 . S
Tb600 O619 2.418 . S
Tb600 O620 2.384 . S
Tb600 O623 2.479 . S
Tb600 O624 2.471 . S
Eu601 O612 2.418 . S
Eu601 O613 2.384 . S
Eu601 O616 2.486 . S
Eu601 O617 2.471 . S
Eu601 O618 2.347 . S
Eu601 O621 2.366 . S
Eu601 C631 2.825 1_554 S
C602 O618 1.259 . S
C602 O619 1.265 . S
C603 O620 1.255 . S
C603 O621 1.265 . S
C604 C606 1.380 . S
C604 C607 1.374 . S
C604 C610 1.507 . S
C605 C606 1.384 . S
C605 C609 1.387 . S
C605 H632 0.930 . S
C606 C604 1.380 . S
C606 C605 1.384 . S
C606 H633 0.931 . S
C607 C604 1.374 . S
C607 C608 1.390 . S
C607 H634 0.930 . S
C608 C607 1.390 . S
C608 C609 1.391 . S
C608 H635 0.930 . S
C609 C605 1.387 . S
C609 C608 1.391 . S
C610 Tb600 2.825 . S
C610 C604 1.507 . S
C610 O623 1.238 . S
C610 O624 1.247 . S
O611 Tb600 2.347 . S
O611 C615 1.259 . S
O612 Eu601 2.418 . S
O612 C615 1.265 . S
O613 Eu601 2.384 . S
O613 C622 1.255 . S
O614 Tb600 2.366 . S
O614 C622 1.265 . S
C615 O611 1.259 . S
C615 O612 1.265 . S
O616 Eu601 2.486 . S
O616 C631 1.233 1_554 S
O617 Eu601 2.471 . S
O617 C631 1.247 1_554 S
O618 Eu601 2.347 . S
O618 C602 1.259 . S
O619 Tb600 2.418 . S
O619 C602 1.265 . S
O620 Tb600 2.384 . S
O620 C603 1.255 . S
O621 Eu601 2.366 . S
O621 C603 1.265 . S
C622 O613 1.255 . S
C622 O614 1.265 . S
O623 Tb600 2.479 . S
O623 C610 1.238 . S
O624 Tb600 2.471 . S
O624 C610 1.247 . S
C625 C628 1.380 . S
C625 C629 1.374 . S
C625 C631 1.507 . S
C626 C627 1.387 . S
C626 C630 1.391 . S
C627 C626 1.387 . S
C627 C628 1.384 . S
C627 H636 0.930 . S
C628 C625 1.380 . S
C628 C627 1.384 . S
C628 H637 0.931 . S
C629 C625 1.374 . S
C629 C630 1.390 . S
C629 H638 0.930 . S
C630 C626 1.391 . S
C630 C629 1.390 . S
C630 H639 0.930 . S
C631 Eu601 2.825 1_556 S
C631 O616 1.233 1_556 S
C631 O617 1.247 1_556 S
C631 C625 1.507 . S
H632 C605 0.930 . S
H633 C606 0.931 . S
H634 C607 0.930 . S
H635 C608 0.930 . S
H636 C627 0.930 . S
H637 C628 0.931 . S
H638 C629 0.930 . S
H639 C630 0.930 . S
Tb640 C650 2.825 . S
Tb640 O651 2.347 . S
Tb640 O654 2.366 . S
Tb640 O659 2.418 . S
Tb640 O660 2.384 . S
Tb640 O663 2.479 . S
Tb640 O664 2.471 . S
Eu641 O652 2.418 . S
Eu641 O653 2.384 . S
Eu641 O656 2.479 . S
Eu641 O657 2.471 . S
Eu641 O658 2.347 . S
Eu641 O661 2.366 . S
Eu641 C671 2.825 . S
C642 O658 1.259 . S
C642 O659 1.265 . S
C643 O660 1.255 . S
C643 O661 1.265 . S
C644 C646 1.380 . S
C644 C647 1.374 . S
C644 C650 1.507 1_556 S
C645 C646 1.384 . S
C645 C649 1.387 . S
C645 H672 0.930 . S
C646 C644 1.380 . S
C646 C645 1.384 . S
C646 H673 0.931 . S
C647 C644 1.374 . S
C647 C648 1.390 . S
C647 H674 0.930 . S
C648 C647 1.390 . S
C648 C649 1.391 . S
C648 H675 0.930 . S
C649 C645 1.387 . S
C649 C648 1.391 . S
C650 Tb640 2.825 . S
C650 C644 1.507 1_554 S
C650 O663 1.238 . S
C650 O664 1.247 . S
O651 Tb640 2.347 . S
O651 C655 1.259 . S
O652 Eu641 2.418 . S
O652 C655 1.265 . S
O653 Eu641 2.384 . S
O653 C662 1.255 . S
O654 Tb640 2.366 . S
O654 C662 1.265 . S
C655 O651 1.259 . S
C655 O652 1.265 . S
O656 Eu641 2.479 . S
O656 C671 1.238 . S
O657 Eu641 2.471 . S
O657 C671 1.247 . S
O658 Eu641 2.347 . S
O658 C642 1.259 . S
O659 Tb640 2.418 . S
O659 C642 1.265 . S
O660 Tb640 2.384 . S
O660 C643 1.255 . S
O661 Eu641 2.366 . S
O661 C643 1.265 . S
C662 O653 1.255 . S
C662 O654 1.265 . S
O663 Tb640 2.479 . S
O663 C650 1.238 . S
O664 Tb640 2.471 . S
O664 C650 1.247 . S
C665 C668 1.380 . S
C665 C669 1.374 . S
C665 C671 1.507 . S
C666 C667 1.387 . S
C666 C670 1.391 . S
C667 C666 1.387 . S
C667 C668 1.384 . S
C667 H676 0.930 . S
C668 C665 1.380 . S
C668 C667 1.384 . S
C668 H677 0.931 . S
C669 C665 1.374 . S
C669 C670 1.390 . S
C669 H678 0.930 . S
C670 C666 1.391 . S
C670 C669 1.390 . S
C670 H679 0.930 . S
C671 Eu641 2.825 . S
C671 O656 1.238 . S
C671 O657 1.247 . S
C671 C665 1.507 . S
H672 C645 0.930 . S
H673 C646 0.931 . S
H674 C647 0.930 . S
H675 C648 0.930 . S
H676 C667 0.930 . S
H677 C668 0.931 . S
H678 C669 0.930 . S
H679 C670 0.930 . S
Tb680 C690 2.825 . S
Tb680 O691 2.347 . S
Tb680 O694 2.366 . S
Tb680 O699 2.418 . S
Tb680 O700 2.384 . S
Tb680 O703 2.479 . S
Tb680 O704 2.471 . S
Eu681 O692 2.418 . S
Eu681 O693 2.384 . S
Eu681 O696 2.479 . S
Eu681 O697 2.471 . S
Eu681 O698 2.347 . S
Eu681 O701 2.366 . S
Eu681 C711 2.825 . S
C682 O698 1.259 . S
C682 O699 1.265 . S
C683 O700 1.255 . S
C683 O701 1.265 . S
C684 C686 1.380 . S
C684 C687 1.374 . S
C684 C690 1.507 . S
C685 C686 1.384 . S
C685 C689 1.387 . S
C685 H712 0.930 . S
C686 C684 1.380 . S
C686 C685 1.384 . S
C686 H713 0.931 . S
C687 C684 1.374 . S
C687 C688 1.390 . S
C687 H714 0.930 . S
C688 C687 1.390 . S
C688 C689 1.391 . S
C688 H715 0.930 . S
C689 C685 1.387 . S
C689 C688 1.391 . S
C690 Tb680 2.825 . S
C690 C684 1.507 . S
C690 O703 1.238 . S
C690 O704 1.247 . S
O691 Tb680 2.347 . S
O691 C695 1.259 . S
O692 Eu681 2.418 . S
O692 C695 1.265 . S
O693 Eu681 2.384 . S
O693 C702 1.255 . S
O694 Tb680 2.366 . S
O694 C702 1.265 . S
C695 O691 1.259 . S
C695 O692 1.265 . S
O696 Eu681 2.479 . S
O696 C711 1.238 . S
O697 Eu681 2.471 . S
O697 C711 1.247 . S
O698 Eu681 2.347 . S
O698 C682 1.259 . S
O699 Tb680 2.418 . S
O699 C682 1.265 . S
O700 Tb680 2.384 . S
O700 C683 1.255 . S
O701 Eu681 2.366 . S
O701 C683 1.265 . S
C702 O693 1.255 . S
C702 O694 1.265 . S
O703 Tb680 2.479 . S
O703 C690 1.238 . S
O704 Tb680 2.471 . S
O704 C690 1.247 . S
C705 C708 1.380 . S
C705 C709 1.374 . S
C705 C711 1.507 1_556 S
C706 C707 1.387 . S
C706 C710 1.391 . S
C707 C706 1.387 . S
C707 C708 1.384 . S
C707 H716 0.930 . S
C708 C705 1.380 . S
C708 C707 1.384 . S
C708 H717 0.931 . S
C709 C705 1.374 . S
C709 C710 1.390 . S
C709 H718 0.930 . S
C710 C706 1.391 . S
C710 C709 1.390 . S
C710 H719 0.930 . S
C711 Eu681 2.825 . S
C711 O696 1.238 . S
C711 O697 1.247 . S
C711 C705 1.507 1_554 S
H712 C685 0.930 . S
H713 C686 0.931 . S
H714 C687 0.930 . S
H715 C688 0.930 . S
H716 C707 0.930 . S
H717 C708 0.931 . S
H718 C709 0.930 . S
H719 C710 0.930 . S
C720 C721 1.369 . S
C720 C722 1.419 . S
C720 H724 0.930 . S
C721 C720 1.369 . S
C721 C730 1.429 . S
C722 C720 1.419 . S
C722 C723 1.363 . S
C722 H725 0.929 . S
C723 C722 1.363 . S
C723 C729 1.428 . S
H724 C720 0.930 . S
H725 C722 0.929 . S
S726 N727 1.613 . S
S726 N728 1.610 . S
N727 S726 1.613 . S
N727 C730 1.350 . S
N728 S726 1.610 . S
N728 C729 1.351 . S
C729 C723 1.428 . S
C729 N728 1.351 . S
C729 C730 1.434 . S
C730 C721 1.429 . S
C730 N727 1.350 . S
C730 C729 1.434 . S
C731 C732 1.369 . S
C731 C733 1.419 . S
C731 H735 0.930 . S
C732 C731 1.369 . S
C732 C741 1.429 . S
C733 C731 1.419 . S
C733 C734 1.363 . S
C733 H736 0.929 . S
C734 C733 1.363 . S
C734 C740 1.428 . S
H735 C731 0.930 . S
H736 C733 0.929 . S
S737 N738 1.613 . S
S737 N739 1.610 . S
N738 S737 1.613 . S
N738 C741 1.350 . S
N739 S737 1.610 . S
N739 C740 1.351 . S
C740 C734 1.428 . S
C740 N739 1.351 . S
C740 C741 1.434 . S
C741 C732 1.429 . S
C741 N738 1.350 . S
C741 C740 1.434 . S
C742 C743 1.369 . S
C742 C744 1.419 . S
C742 H746 0.930 . S
C743 C742 1.369 . S
C743 C752 1.429 . S
C744 C742 1.419 . S
C744 C745 1.363 . S
C744 H747 0.929 . S
C745 C744 1.363 . S
C745 C751 1.428 . S
H746 C742 0.930 . S
H747 C744 0.929 . S
S748 N749 1.613 1_545 S
S748 N750 1.610 1_545 S
N749 S748 1.613 1_565 S
N749 C752 1.350 . S
N750 S748 1.610 1_565 S
N750 C751 1.351 . S
C751 C745 1.428 . S
C751 N750 1.351 . S
C751 C752 1.434 . S
C752 C743 1.429 . S
C752 N749 1.350 . S
C752 C751 1.434 . S
C753 C754 1.369 . S
C753 C755 1.419 . S
C753 H757 0.930 . S
C754 C753 1.369 . S
C754 C763 1.429 . S
C755 C753 1.419 . S
C755 C756 1.363 . S
C755 H758 0.929 . S
C756 C755 1.363 . S
C756 C762 1.428 . S
H757 C753 0.930 . S
H758 C755 0.929 . S
S759 N760 1.613 . S
S759 N761 1.610 . S
N760 S759 1.613 . S
N760 C763 1.350 . S
N761 S759 1.610 . S
N761 C762 1.351 . S
C762 C756 1.428 . S
C762 N761 1.351 . S
C762 C763 1.434 . S
C763 C754 1.429 . S
C763 N760 1.350 . S
C763 C762 1.434 . S
C764 C765 1.369 . S
C764 C766 1.419 . S
C764 H768 0.930 . S
C765 C764 1.369 . S
C765 C774 1.429 . S
C766 C764 1.419 . S
C766 C767 1.363 . S
C766 H769 0.929 . S
C767 C766 1.363 . S
C767 C773 1.428 . S
H768 C764 0.930 . S
H769 C766 0.929 . S
S770 N771 1.613 . S
S770 N772 1.610 . S
N771 S770 1.613 . S
N771 C774 1.350 . S
N772 S770 1.610 . S
N772 C773 1.351 . S
C773 C767 1.428 . S
C773 N772 1.351 . S
C773 C774 1.434 . S
C774 C765 1.429 . S
C774 N771 1.350 . S
C774 C773 1.434 . S
C775 C776 1.369 . S
C775 C777 1.419 . S
C775 H779 0.930 . S
C776 C775 1.369 . S
C776 C785 1.429 . S
C777 C775 1.419 . S
C777 C778 1.363 . S
C777 H780 0.929 . S
C778 C777 1.363 . S
C778 C784 1.428 . S
H779 C775 0.930 . S
H780 C777 0.929 . S
S781 N782 1.613 . S
S781 N783 1.610 . S
N782 S781 1.613 . S
N782 C785 1.350 . S
N783 S781 1.610 . S
N783 C784 1.351 . S
C784 C778 1.428 . S
C784 N783 1.351 . S
C784 C785 1.434 . S
C785 C776 1.429 . S
C785 N782 1.350 . S
C785 C784 1.434 . S
C786 C787 1.369 . S
C786 C788 1.419 . S
C786 H790 0.930 . S
C787 C786 1.369 . S
C787 C796 1.429 . S
C788 C786 1.419 . S
C788 C789 1.363 . S
C788 H791 0.929 . S
C789 C788 1.363 . S
C789 C795 1.428 . S
H790 C786 0.930 . S
H791 C788 0.929 . S
S792 N793 1.613 . S
S792 N794 1.610 . S
N793 S792 1.613 . S
N793 C796 1.350 . S
N794 S792 1.610 . S
N794 C795 1.351 . S
C795 C789 1.428 . S
C795 N794 1.351 . S
C795 C796 1.434 . S
C796 C787 1.429 . S
C796 N793 1.350 . S
C796 C795 1.434 . S
C797 C798 1.369 . S
C797 C799 1.419 . S
C797 H801 0.930 . S
C798 C797 1.369 . S
C798 C807 1.429 . S
C799 C797 1.419 . S
C799 C800 1.363 . S
C799 H802 0.929 . S
C800 C799 1.363 . S
C800 C806 1.428 . S
H801 C797 0.930 . S
H802 C799 0.929 . S
S803 N804 1.613 . S
S803 N805 1.610 . S
N804 S803 1.613 . S
N804 C807 1.350 . S
N805 S803 1.610 . S
N805 C806 1.351 . S
C806 C800 1.428 . S
C806 N805 1.351 . S
C806 C807 1.434 . S
C807 C798 1.429 . S
C807 N804 1.350 . S
C807 C806 1.434 . S
C808 C809 1.369 . S
C808 C810 1.419 . S
C808 H812 0.930 . S
C809 C808 1.369 . S
C809 C818 1.429 . S
C810 C808 1.419 . S
C810 C811 1.363 . S
C810 H813 0.929 . S
C811 C810 1.363 . S
C811 C817 1.428 . S
H812 C808 0.930 . S
H813 C810 0.929 . S
S814 N815 1.613 . S
S814 N816 1.610 . S
N815 S814 1.613 . S
N815 C818 1.350 . S
N816 S814 1.610 . S
N816 C817 1.351 . S
C817 C811 1.428 . S
C817 N816 1.351 . S
C817 C818 1.434 . S
C818 C809 1.429 . S
C818 N815 1.350 . S
C818 C817 1.434 . S
C819 C820 1.369 . S
C819 C821 1.419 . S
C819 H823 0.930 . S
C820 C819 1.369 . S
C820 C829 1.429 . S
C821 C819 1.419 . S
C821 C822 1.363 . S
C821 H824 0.929 . S
C822 C821 1.363 . S
C822 C828 1.428 . S
H823 C819 0.930 . S
H824 C821 0.929 . S
S825 N826 1.613 1_545 S
S825 N827 1.619 . S
N826 S825 1.613 1_565 S
N826 C829 1.350 . S
N827 S825 1.619 . S
N827 C828 1.342 1_545 S
C828 C822 1.428 . S
C828 N827 1.342 1_565 S
C828 C829 1.434 . S
C829 C820 1.429 . S
C829 N826 1.350 . S
C829 C828 1.434 . S
C830 C831 1.369 . S
C830 C832 1.419 . S
C830 H834 0.930 . S
C831 C830 1.369 . S
C831 C840 1.429 . S
C832 C830 1.419 . S
C832 C833 1.363 . S
C832 H835 0.929 . S
C833 C832 1.363 . S
C833 C839 1.428 . S
H834 C830 0.930 . S
H835 C832 0.929 . S
S836 N837 1.613 . S
S836 N838 1.610 . S
N837 S836 1.613 . S
N837 C840 1.350 . S
N838 S836 1.610 . S
N838 C839 1.351 . S
C839 C833 1.428 . S
C839 N838 1.351 . S
C839 C840 1.434 . S
C840 C831 1.429 . S
C840 N837 1.350 . S
C840 C839 1.434 . S
C841 C842 1.369 . S
C841 C843 1.419 . S
C841 H845 0.930 . S
C842 C841 1.369 . S
C842 C851 1.429 . S
C843 C841 1.419 . S
C843 C844 1.363 . S
C843 H846 0.929 . S
C844 C843 1.363 . S
C844 C850 1.428 . S
H845 C841 0.930 . S
H846 C843 0.929 . S
S847 N848 1.613 . S
S847 N849 1.610 . S
N848 S847 1.613 . S
N848 C851 1.350 . S
N849 S847 1.610 . S
N849 C850 1.351 . S
C850 C844 1.428 . S
C850 N849 1.351 . S
C850 C851 1.434 . S
C851 C842 1.429 . S
C851 N848 1.350 . S
C851 C850 1.434 . S
C852 C853 1.369 . S
C852 C854 1.419 1_656 S
C852 H856 0.930 . S
C853 C852 1.369 . S
C853 C862 1.429 . S
C854 C852 1.419 1_454 S
C854 C855 1.363 . S
C854 H857 0.929 . S
C855 C854 1.363 . S
C855 C861 1.428 . S
H856 C852 0.930 . S
H857 C854 0.929 . S
S858 N859 1.613 1_554 S
S858 N860 1.610 1_655 S
N859 S858 1.613 1_556 S
N859 C862 1.350 . S
N860 S858 1.610 1_455 S
N860 C861 1.351 . S
C861 C855 1.428 . S
C861 N860 1.351 . S
C861 C862 1.434 1_454 S
C862 C853 1.429 . S
C862 N859 1.350 . S
C862 C861 1.434 1_656 S
C863 C864 1.369 . S
C863 C865 1.419 1_556 S
C863 H867 0.930 . S
C864 C863 1.369 . S
C864 C873 1.429 . S
C865 C863 1.419 1_554 S
C865 C866 1.363 . S
C865 H868 0.929 . S
C866 C865 1.363 . S
C866 C872 1.428 . S
H867 C863 0.930 . S
H868 C865 0.929 . S
S869 N870 1.613 . S
S869 N871 1.610 1_556 S
N870 S869 1.613 . S
N870 C873 1.350 . S
N871 S869 1.610 1_554 S
N871 C872 1.351 . S
C872 C866 1.428 . S
C872 N871 1.351 . S
C872 C873 1.434 1_554 S
C873 C864 1.429 . S
C873 N870 1.350 . S
C873 C872 1.434 1_556 S
C874 C875 1.369 . S
C874 C876 1.419 1_556 S
C874 H878 0.930 . S
C875 C874 1.369 . S
C875 C884 1.429 1_545 S
C876 C874 1.419 1_554 S
C876 C877 1.363 1_545 S
C876 H879 0.929 . S
C877 C876 1.363 1_565 S
C877 C883 1.428 1_554 S
H878 C874 0.930 . S
H879 C876 0.929 . S
S880 N881 1.613 . S
S880 N882 1.610 . S
N881 S880 1.613 . S
N881 C884 1.350 . S
N882 S880 1.610 . S
N882 C883 1.351 . S
C883 C877 1.428 1_556 S
C883 N882 1.351 . S
C883 C884 1.434 . S
C884 C875 1.429 1_565 S
C884 N881 1.350 . S
C884 C883 1.434 . S
C885 C886 1.369 1_554 S
C885 C887 1.419 . S
C885 H889 0.930 . S
C886 C885 1.369 1_556 S
C886 C895 1.429 1_545 S
C887 C885 1.419 . S
C887 C888 1.363 1_545 S
C887 H890 0.929 . S
C888 C887 1.363 1_565 S
C888 C894 1.428 . S
H889 C885 0.930 . S
H890 C887 0.929 . S
S891 N892 1.613 . S
S891 N893 1.610 . S
N892 S891 1.613 . S
N892 C895 1.350 . S
N893 S891 1.610 . S
N893 C894 1.351 1_556 S
C894 C888 1.428 . S
C894 N893 1.351 1_554 S
C894 C895 1.434 1_554 S
C895 C886 1.429 1_565 S
C895 N892 1.350 . S
C895 C894 1.434 1_556 S
C896 C897 1.369 . S
C896 C898 1.430 1_554 S
C896 H900 0.930 . S
C897 C896 1.369 . S
C897 C906 1.429 . S
C898 C896 1.430 1_556 S
C898 C899 1.341 1_455 S
C898 H901 0.941 . S
C899 C898 1.341 1_655 S
C899 C905 1.428 1_556 S
H900 C896 0.930 . S
H901 C898 0.941 . S
S902 N903 1.608 1_655 S
S902 N904 1.610 . S
N903 S902 1.608 1_455 S
N903 C906 1.353 . S
N904 S902 1.610 . S
N904 C905 1.351 . S
C905 C899 1.428 1_554 S
C905 N904 1.351 . S
C905 C906 1.434 1_655 S
C906 C897 1.429 . S
C906 N903 1.353 . S
C906 C905 1.434 1_455 S
C907 C908 1.369 . S
C907 C909 1.419 1_554 S
C907 H911 0.930 . S
C908 C907 1.369 . S
C908 C917 1.429 . S
C909 C907 1.419 1_556 S
C909 C910 1.363 . S
C909 H912 0.929 . S
C910 C909 1.363 . S
C910 C916 1.428 1_556 S
H911 C907 0.930 . S
H912 C909 0.929 . S
S913 N914 1.613 . S
S913 N915 1.610 . S
N914 S913 1.613 . S
N914 C917 1.350 . S
N915 S913 1.610 . S
N915 C916 1.351 . S
C916 C910 1.428 1_554 S
C916 N915 1.351 . S
C916 C917 1.434 . S
C917 C908 1.429 . S
C917 N914 1.350 . S
C917 C916 1.434 . S
C918 C919 1.369 . S
C918 C920 1.419 . S
C918 H922 0.930 . S
C919 C918 1.369 . S
C919 C928 1.429 . S
C920 C918 1.419 . S
C920 C921 1.363 . S
C920 H923 0.929 . S
C921 C920 1.363 . S
C921 C927 1.428 . S
H922 C918 0.930 . S
H923 C920 0.929 . S
S924 N925 1.613 . S
S924 N926 1.610 . S
N925 S924 1.613 . S
N925 C928 1.350 . S
N926 S924 1.610 . S
N926 C927 1.351 . S
C927 C921 1.428 . S
C927 N926 1.351 . S
C927 C928 1.434 . S
C928 C919 1.429 . S
C928 N925 1.350 . S
C928 C927 1.434 . S
C929 C930 1.369 . S
C929 C931 1.419 . S
C929 H933 0.930 . S
C930 C929 1.369 . S
C930 C939 1.429 . S
C931 C929 1.419 . S
C931 C932 1.363 . S
C931 H934 0.929 . S
C932 C931 1.363 . S
C932 C938 1.428 . S
H933 C929 0.930 . S
H934 C931 0.929 . S
S935 N936 1.613 . S
S935 N937 1.610 . S
N936 S935 1.613 . S
N936 C939 1.350 . S
N937 S935 1.610 . S
N937 C938 1.351 . S
C938 C932 1.428 . S
C938 N937 1.351 . S
C938 C939 1.434 . S
C939 C930 1.429 . S
C939 N936 1.350 . S
C939 C938 1.434 . S
C940 C941 1.369 . S
C940 C942 1.419 . S
C940 H944 0.930 . S
C941 C940 1.369 . S
C941 C950 1.429 . S
C942 C940 1.419 . S
C942 C943 1.363 . S
C942 H945 0.929 . S
C943 C942 1.363 . S
C943 C949 1.428 . S
H944 C940 0.930 . S
H945 C942 0.929 . S
S946 N947 1.613 . S
S946 N948 1.610 . S
N947 S946 1.613 . S
N947 C950 1.350 . S
N948 S946 1.610 . S
N948 C949 1.351 . S
C949 C943 1.428 . S
C949 N948 1.351 . S
C949 C950 1.434 . S
C950 C941 1.429 . S
C950 N947 1.350 . S
C950 C949 1.434 . S
C951 C952 1.369 . S
C951 C953 1.419 . S
C951 H955 0.930 . S
C952 C951 1.369 . S
C952 C961 1.429 . S
C953 C951 1.419 . S
C953 C954 1.363 . S
C953 H956 0.929 . S
C954 C953 1.363 . S
C954 C960 1.428 . S
H955 C951 0.930 . S
H956 C953 0.929 . S
S957 N958 1.613 . S
S957 N959 1.610 . S
N958 S957 1.613 . S
N958 C961 1.350 . S
N959 S957 1.610 . S
N959 C960 1.351 . S
C960 C954 1.428 . S
C960 N959 1.351 . S
C960 C961 1.434 . S
C961 C952 1.429 . S
C961 N958 1.350 . S
C961 C960 1.434 . S
C962 C963 1.369 . S
C962 C964 1.419 . S
C962 H966 0.930 . S
C963 C962 1.369 . S
C963 C972 1.429 . S
C964 C962 1.419 . S
C964 C965 1.363 . S
C964 H967 0.929 . S
C965 C964 1.363 . S
C965 C971 1.428 . S
H966 C962 0.930 . S
H967 C964 0.929 . S
S968 N969 1.613 . S
S968 N970 1.610 . S
N969 S968 1.613 . S
N969 C972 1.350 . S
N970 S968 1.610 . S
N970 C971 1.351 . S
C971 C965 1.428 . S
C971 N970 1.351 . S
C971 C972 1.434 . S
C972 C963 1.429 . S
C972 N969 1.350 . S
C972 C971 1.434 . S
C973 C974 1.369 . S
C973 C975 1.419 . S
C973 H977 0.930 . S
C974 C973 1.369 . S
C974 C983 1.429 . S
C975 C973 1.419 . S
C975 C976 1.363 . S
C975 H978 0.929 . S
C976 C975 1.363 . S
C976 C982 1.428 . S
H977 C973 0.930 . S
H978 C975 0.929 . S
S979 N980 1.613 . S
S979 N981 1.610 . S
N980 S979 1.613 . S
N980 C983 1.350 . S
N981 S979 1.610 . S
N981 C982 1.351 . S
C982 C976 1.428 . S
C982 N981 1.351 . S
C982 C983 1.434 . S
C983 C974 1.429 . S
C983 N980 1.350 . S
C983 C982 1.434 . S
C984 C985 1.369 . S
C984 C986 1.419 . S
C984 H988 0.930 . S
C985 C984 1.369 . S
C985 C994 1.429 . S
C986 C984 1.419 . S
C986 C987 1.363 . S
C986 H989 0.929 . S
C987 C986 1.363 . S
C987 C993 1.428 . S
H988 C984 0.930 . S
H989 C986 0.929 . S
S990 N991 1.613 . S
S990 N992 1.610 . S
N991 S990 1.613 . S
N991 C994 1.350 . S
N992 S990 1.610 . S
N992 C993 1.351 . S
C993 C987 1.428 . S
C993 N992 1.351 . S
C993 C994 1.434 . S
C994 C985 1.429 . S
C994 N991 1.350 . S
C994 C993 1.434 . S
C995 C996 1.369 . S
C995 C997 1.419 . S
C995 H999 0.930 . S
C996 C995 1.369 . S
C996 C1005 1.429 . S
C997 C995 1.419 . S
C997 C998 1.363 . S
C997 H1000 0.929 . S
C998 C997 1.363 . S
C998 C1004 1.428 . S
H999 C995 0.930 . S
H1000 C997 0.929 . S
S1001 N1002 1.613 . S
S1001 N1003 1.610 . S
N1002 S1001 1.613 . S
N1002 C1005 1.350 . S
N1003 S1001 1.610 . S
N1003 C1004 1.351 . S
C1004 C998 1.428 . S
C1004 N1003 1.351 . S
C1004 C1005 1.434 . S
C1005 C996 1.429 . S
C1005 N1002 1.350 . S
C1005 C1004 1.434 . S
C1006 C1007 1.369 . S
C1006 C1008 1.419 . S
C1006 H1010 0.930 . S
C1007 C1006 1.369 . S
C1007 C1016 1.429 . S
C1008 C1006 1.419 . S
C1008 C1009 1.363 . S
C1008 H1011 0.929 . S
C1009 C1008 1.363 . S
C1009 C1015 1.428 . S
H1010 C1006 0.930 . S
H1011 C1008 0.929 . S
S1012 N1013 1.613 . S
S1012 N1014 1.610 . S
N1013 S1012 1.613 . S
N1013 C1016 1.350 . S
N1014 S1012 1.610 . S
N1014 C1015 1.351 . S
C1015 C1009 1.428 . S
C1015 N1014 1.351 . S
C1015 C1016 1.434 . S
C1016 C1007 1.429 . S
C1016 N1013 1.350 . S
C1016 C1015 1.434 . S
C1017 C1018 1.369 . S
C1017 C1019 1.419 . S
C1017 H1021 0.930 . S
C1018 C1017 1.369 . S
C1018 C1027 1.429 . S
C1019 C1017 1.419 . S
C1019 C1020 1.363 . S
C1019 H1022 0.929 . S
C1020 C1019 1.363 . S
C1020 C1026 1.428 . S
H1021 C1017 0.930 . S
H1022 C1019 0.929 . S
S1023 N1024 1.613 . S
S1023 N1025 1.610 . S
N1024 S1023 1.613 . S
N1024 C1027 1.350 . S
N1025 S1023 1.610 . S
N1025 C1026 1.351 . S
C1026 C1020 1.428 . S
C1026 N1025 1.351 . S
C1026 C1027 1.434 . S
C1027 C1018 1.429 . S
C1027 N1024 1.350 . S
C1027 C1026 1.434 . S
C1028 C1029 1.369 . S
C1028 C1030 1.419 . S
C1028 H1032 0.930 . S
C1029 C1028 1.369 . S
C1029 C1038 1.429 . S
C1030 C1028 1.419 . S
C1030 C1031 1.363 . S
C1030 H1033 0.929 . S
C1031 C1030 1.363 . S
C1031 C1037 1.428 . S
H1032 C1028 0.930 . S
H1033 C1030 0.929 . S
S1034 N1035 1.613 . S
S1034 N1036 1.610 . S
N1035 S1034 1.613 . S
N1035 C1038 1.350 . S
N1036 S1034 1.610 . S
N1036 C1037 1.351 . S
C1037 C1031 1.428 . S
C1037 N1036 1.351 . S
C1037 C1038 1.434 . S
C1038 C1029 1.429 . S
C1038 N1035 1.350 . S
C1038 C1037 1.434 . S
C1039 C1040 1.369 . S
C1039 C1041 1.419 . S
C1039 H1043 0.930 . S
C1040 C1039 1.369 . S
C1040 C1049 1.429 . S
C1041 C1039 1.419 . S
C1041 C1042 1.363 . S
C1041 H1044 0.929 . S
C1042 C1041 1.363 . S
C1042 C1048 1.428 . S
H1043 C1039 0.930 . S
H1044 C1041 0.929 . S
S1045 N1046 1.613 . S
S1045 N1047 1.610 . S
N1046 S1045 1.613 . S
N1046 C1049 1.350 . S
N1047 S1045 1.610 . S
N1047 C1048 1.351 . S
C1048 C1042 1.428 . S
C1048 N1047 1.351 . S
C1048 C1049 1.434 . S
C1049 C1040 1.429 . S
C1049 N1046 1.350 . S
C1049 C1048 1.434 . S
C1050 C1051 1.369 . S
C1050 C1052 1.419 . S
C1050 H1054 0.930 . S
C1051 C1050 1.369 . S
C1051 C1060 1.429 . S
C1052 C1050 1.419 . S
C1052 C1053 1.363 . S
C1052 H1055 0.929 . S
C1053 C1052 1.363 . S
C1053 C1059 1.428 . S
H1054 C1050 0.930 . S
H1055 C1052 0.929 . S
S1056 N1057 1.613 . S
S1056 N1058 1.610 . S
N1057 S1056 1.613 . S
N1057 C1060 1.350 . S
N1058 S1056 1.610 . S
N1058 C1059 1.351 . S
C1059 C1053 1.428 . S
C1059 N1058 1.351 . S
C1059 C1060 1.434 . S
C1060 C1051 1.429 . S
C1060 N1057 1.350 . S
C1060 C1059 1.434 . S
C1061 C1062 1.369 . S
C1061 C1063 1.419 . S
C1061 H1065 0.930 . S
C1062 C1061 1.369 . S
C1062 C1071 1.429 . S
C1063 C1061 1.419 . S
C1063 C1064 1.363 . S
C1063 H1066 0.929 . S
C1064 C1063 1.363 . S
C1064 C1070 1.428 . S
H1065 C1061 0.930 . S
H1066 C1063 0.929 . S
S1067 N1068 1.613 . S
S1067 N1069 1.610 . S
N1068 S1067 1.613 . S
N1068 C1071 1.350 . S
N1069 S1067 1.610 . S
N1069 C1070 1.351 . S
C1070 C1064 1.428 . S
C1070 N1069 1.351 . S
C1070 C1071 1.434 . S
C1071 C1062 1.429 . S
C1071 N1068 1.350 . S
C1071 C1070 1.434 . S
C1072 C1073 1.369 . S
C1072 C1074 1.419 . S
C1072 H1076 0.930 . S
C1073 C1072 1.369 . S
C1073 C1082 1.429 . S
C1074 C1072 1.419 . S
C1074 C1075 1.363 . S
C1074 H1077 0.929 . S
C1075 C1074 1.363 . S
C1075 C1081 1.428 . S
H1076 C1072 0.930 . S
H1077 C1074 0.929 . S
S1078 N1079 1.613 . S
S1078 N1080 1.610 . S
N1079 S1078 1.613 . S
N1079 C1082 1.350 . S
N1080 S1078 1.610 . S
N1080 C1081 1.351 . S
C1081 C1075 1.428 . S
C1081 N1080 1.351 . S
C1081 C1082 1.434 . S
C1082 C1073 1.429 . S
C1082 N1079 1.350 . S
C1082 C1081 1.434 . S
C1083 C1084 1.369 . S
C1083 C1085 1.419 . S
C1083 H1087 0.930 . S
C1084 C1083 1.369 . S
C1084 C1093 1.429 . S
C1085 C1083 1.419 . S
C1085 C1086 1.363 . S
C1085 H1088 0.929 . S
C1086 C1085 1.363 . S
C1086 C1092 1.428 . S
H1087 C1083 0.930 . S
H1088 C1085 0.929 . S
S1089 N1090 1.613 . S
S1089 N1091 1.610 . S
N1090 S1089 1.613 . S
N1090 C1093 1.350 . S
N1091 S1089 1.610 . S
N1091 C1092 1.351 . S
C1092 C1086 1.428 . S
C1092 N1091 1.351 . S
C1092 C1093 1.434 . S
C1093 C1084 1.429 . S
C1093 N1090 1.350 . S
C1093 C1092 1.434 . S
C1094 C1095 1.369 . S
C1094 C1096 1.419 . S
C1094 H1098 0.930 . S
C1095 C1094 1.369 . S
C1095 C1104 1.429 . S
C1096 C1094 1.419 . S
C1096 C1097 1.363 . S
C1096 H1099 0.929 . S
C1097 C1096 1.363 . S
C1097 C1103 1.428 . S
H1098 C1094 0.930 . S
H1099 C1096 0.929 . S
S1100 N1101 1.613 . S
S1100 N1102 1.610 . S
N1101 S1100 1.613 . S
N1101 C1104 1.350 . S
N1102 S1100 1.610 . S
N1102 C1103 1.351 . S
C1103 C1097 1.428 . S
C1103 N1102 1.351 . S
C1103 C1104 1.434 . S
C1104 C1095 1.429 . S
C1104 N1101 1.350 . S
C1104 C1103 1.434 . S
C1105 C1106 1.369 . S
C1105 C1107 1.419 . S
C1105 H1109 0.930 . S
C1106 C1105 1.369 . S
C1106 C1115 1.429 . S
C1107 C1105 1.419 . S
C1107 C1108 1.363 . S
C1107 H1110 0.929 . S
C1108 C1107 1.363 . S
C1108 C1114 1.428 . S
H1109 C1105 0.930 . S
H1110 C1107 0.929 . S
S1111 N1112 1.613 . S
S1111 N1113 1.610 . S
N1112 S1111 1.613 . S
N1112 C1115 1.350 . S
N1113 S1111 1.610 . S
N1113 C1114 1.351 . S
C1114 C1108 1.428 . S
C1114 N1113 1.351 . S
C1114 C1115 1.434 . S
C1115 C1106 1.429 . S
C1115 N1112 1.350 . S
C1115 C1114 1.434 . S
C1116 C1117 1.369 . S
C1116 C1118 1.419 . S
C1116 H1120 0.930 . S
C1117 C1116 1.369 . S
C1117 C1126 1.429 1_455 S
C1118 C1116 1.419 . S
C1118 C1119 1.363 1_554 S
C1118 H1121 0.929 1_554 S
C1119 C1118 1.363 1_556 S
C1119 C1125 1.428 1_455 S
H1120 C1116 0.930 . S
H1121 C1118 0.929 1_556 S
S1122 N1123 1.613 1_556 S
S1122 N1124 1.610 . S
N1123 S1122 1.613 1_554 S
N1123 C1126 1.350 . S
N1124 S1122 1.610 . S
N1124 C1125 1.351 . S
C1125 C1119 1.428 1_655 S
C1125 N1124 1.351 . S
C1125 C1126 1.434 1_556 S
C1126 C1117 1.429 1_655 S
C1126 N1123 1.350 . S
C1126 C1125 1.434 1_554 S
C1127 C1128 1.369 . S
C1127 C1129 1.419 1_554 S
C1127 H1131 0.930 . S
C1128 C1127 1.369 . S
C1128 C1137 1.429 . S
C1129 C1127 1.419 1_556 S
C1129 C1130 1.363 . S
C1129 H1132 0.929 . S
C1130 C1129 1.363 . S
C1130 C1136 1.428 . S
H1131 C1127 0.930 . S
H1132 C1129 0.929 . S
S1133 N1134 1.613 1_556 S
S1133 N1135 1.610 . S
N1134 S1133 1.613 1_554 S
N1134 C1137 1.350 . S
N1135 S1133 1.610 . S
N1135 C1136 1.351 . S
C1136 C1130 1.428 . S
C1136 N1135 1.351 . S
C1136 C1137 1.434 1_556 S
C1137 C1128 1.429 . S
C1137 N1134 1.350 . S
C1137 C1136 1.434 1_554 S
C1138 C1139 1.369 1_545 S
C1138 C1140 1.419 1_554 S
C1138 H1142 0.930 . S
C1139 C1138 1.369 1_565 S
C1139 C1148 1.429 1_554 S
C1140 C1138 1.419 1_556 S
C1140 C1141 1.363 . S
C1140 H1143 0.929 . S
C1141 C1140 1.363 . S
C1141 C1147 1.428 1_545 S
H1142 C1138 0.930 . S
H1143 C1140 0.929 . S
S1144 N1145 1.613 . S
S1144 N1146 1.610 . S
N1145 S1144 1.613 . S
N1145 C1148 1.350 . S
N1146 S1144 1.610 . S
N1146 C1147 1.351 . S
C1147 C1141 1.428 1_565 S
C1147 N1146 1.351 . S
C1147 C1148 1.434 . S
C1148 C1139 1.429 1_556 S
C1148 N1145 1.350 . S
C1148 C1147 1.434 . S
C1149 C1150 1.369 1_554 S
C1149 C1151 1.419 . S
C1149 H1153 0.930 . S
C1150 C1149 1.369 1_556 S
C1150 C1159 1.429 1_455 S
C1151 C1149 1.419 . S
C1151 C1152 1.363 . S
C1151 H1154 0.929 . S
C1152 C1151 1.363 . S
C1152 C1158 1.428 1_455 S
H1153 C1149 0.930 . S
H1154 C1151 0.929 . S
S1155 N1156 1.613 . S
S1155 N1157 1.610 1_556 S
N1156 S1155 1.613 . S
N1156 C1159 1.350 . S
N1157 S1155 1.610 1_554 S
N1157 C1158 1.351 . S
C1158 C1152 1.428 1_655 S
C1158 N1157 1.351 . S
C1158 C1159 1.434 1_554 S
C1159 C1150 1.429 1_655 S
C1159 N1156 1.350 . S
C1159 C1158 1.434 1_556 S
C1160 C1161 1.369 . S
C1160 C1162 1.419 . S
C1160 H1164 0.930 . S
C1161 C1160 1.369 . S
C1161 C1170 1.429 . S
C1162 C1160 1.419 . S
C1162 C1163 1.363 1_554 S
C1162 H1165 0.929 . S
C1163 C1162 1.363 1_556 S
C1163 C1169 1.428 1_556 S
H1164 C1160 0.930 . S
H1165 C1162 0.929 . S
S1166 N1167 1.613 . S
S1166 N1168 1.610 1_554 S
N1167 S1166 1.613 . S
N1167 C1170 1.350 . S
N1168 S1166 1.610 1_556 S
N1168 C1169 1.351 1_556 S
C1169 C1163 1.428 1_554 S
C1169 N1168 1.351 1_554 S
C1169 C1170 1.434 . S
C1170 C1161 1.429 . S
C1170 N1167 1.350 . S
C1170 C1169 1.434 . S
C1171 C1172 1.369 1_545 S
C1171 C1173 1.419 1_554 S
C1171 H1175 0.930 . S
C1172 C1171 1.369 1_565 S
C1172 C1181 1.429 . S
C1173 C1171 1.419 1_556 S
C1173 C1174 1.363 . S
C1173 H1176 0.929 . S
C1174 C1173 1.363 . S
C1174 C1180 1.422 1_546 S
H1175 C1171 0.930 . S
H1176 C1173 0.929 . S
S1177 N1178 1.613 . S
S1177 N1179 1.610 . S
N1178 S1177 1.613 . S
N1178 C1181 1.350 . S
N1179 S1177 1.610 . S
N1179 C1180 1.342 . S
C1180 C1174 1.422 1_564 S
C1180 N1179 1.342 . S
C1180 C1181 1.454 . S
C1181 C1172 1.429 . S
C1181 N1178 1.350 . S
C1181 C1180 1.454 . S
C1182 C1183 1.369 . S
C1182 C1184 1.419 . S
C1182 H1186 0.930 . S
C1183 C1182 1.369 . S
C1183 C1192 1.429 . S
C1184 C1182 1.419 . S
C1184 C1185 1.363 . S
C1184 H1187 0.929 . S
C1185 C1184 1.363 . S
C1185 C1191 1.428 . S
H1186 C1182 0.930 . S
H1187 C1184 0.929 . S
S1188 N1189 1.613 . S
S1188 N1190 1.610 . S
N1189 S1188 1.613 . S
N1189 C1192 1.350 . S
N1190 S1188 1.610 . S
N1190 C1191 1.351 . S
C1191 C1185 1.428 . S
C1191 N1190 1.351 . S
C1191 C1192 1.434 . S
C1192 C1183 1.429 . S
C1192 N1189 1.350 . S
C1192 C1191 1.434 . S
C1193 C1194 1.369 . S
C1193 C1195 1.419 . S
C1193 H1197 0.930 . S
C1194 C1193 1.369 . S
C1194 C1203 1.429 . S
C1195 C1193 1.419 . S
C1195 C1196 1.363 . S
C1195 H1198 0.929 . S
C1196 C1195 1.363 . S
C1196 C1202 1.428 . S
H1197 C1193 0.930 . S
H1198 C1195 0.929 . S
S1199 N1200 1.613 . S
S1199 N1201 1.610 . S
N1200 S1199 1.613 . S
N1200 C1203 1.350 . S
N1201 S1199 1.610 . S
N1201 C1202 1.351 . S
C1202 C1196 1.428 . S
C1202 N1201 1.351 . S
C1202 C1203 1.434 . S
C1203 C1194 1.429 . S
C1203 N1200 1.350 . S
C1203 C1202 1.434 . S
C1204 C1205 1.369 . S
C1204 C1206 1.419 . S
C1204 H1208 0.930 . S
C1205 C1204 1.369 . S
C1205 C1214 1.429 . S
C1206 C1204 1.419 . S
C1206 C1207 1.363 . S
C1206 H1209 0.929 . S
C1207 C1206 1.363 . S
C1207 C1213 1.428 . S
H1208 C1204 0.930 . S
H1209 C1206 0.929 . S
S1210 N1211 1.613 . S
S1210 N1212 1.610 . S
N1211 S1210 1.613 . S
N1211 C1214 1.350 . S
N1212 S1210 1.610 . S
N1212 C1213 1.351 . S
C1213 C1207 1.428 . S
C1213 N1212 1.351 . S
C1213 C1214 1.434 . S
C1214 C1205 1.429 . S
C1214 N1211 1.350 . S
C1214 C1213 1.434 . S
C1215 C1216 1.369 . S
C1215 C1217 1.419 . S
C1215 H1219 0.930 . S
C1216 C1215 1.369 . S
C1216 C1225 1.429 . S
C1217 C1215 1.419 . S
C1217 C1218 1.363 . S
C1217 H1220 0.929 . S
C1218 C1217 1.363 . S
C1218 C1224 1.428 . S
H1219 C1215 0.930 . S
H1220 C1217 0.929 . S
S1221 N1222 1.613 . S
S1221 N1223 1.610 . S
N1222 S1221 1.613 . S
N1222 C1225 1.350 . S
N1223 S1221 1.610 . S
N1223 C1224 1.351 . S
C1224 C1218 1.428 . S
C1224 N1223 1.351 . S
C1224 C1225 1.434 . S
C1225 C1216 1.429 . S
C1225 N1222 1.350 . S
C1225 C1224 1.434 . S
C1226 C1227 1.369 . S
C1226 C1228 1.419 . S
C1226 H1230 0.930 . S
C1227 C1226 1.369 . S
C1227 C1236 1.429 . S
C1228 C1226 1.419 . S
C1228 C1229 1.363 . S
C1228 H1231 0.929 . S
C1229 C1228 1.363 . S
C1229 C1235 1.428 . S
H1230 C1226 0.930 . S
H1231 C1228 0.929 . S
S1232 N1233 1.613 . S
S1232 N1234 1.610 . S
N1233 S1232 1.613 . S
N1233 C1236 1.350 . S
N1234 S1232 1.610 . S
N1234 C1235 1.351 . S
C1235 C1229 1.428 . S
C1235 N1234 1.351 . S
C1235 C1236 1.434 . S
C1236 C1227 1.429 . S
C1236 N1233 1.350 . S
C1236 C1235 1.434 . S
C1237 C1238 1.369 . S
C1237 C1239 1.419 . S
C1237 H1241 0.930 . S
C1238 C1237 1.369 . S
C1238 C1247 1.429 . S
C1239 C1237 1.419 . S
C1239 C1240 1.363 . S
C1239 H1242 0.929 . S
C1240 C1239 1.363 . S
C1240 C1246 1.428 . S
H1241 C1237 0.930 . S
H1242 C1239 0.929 . S
S1243 N1244 1.613 . S
S1243 N1245 1.610 . S
N1244 S1243 1.613 . S
N1244 C1247 1.350 . S
N1245 S1243 1.610 . S
N1245 C1246 1.351 . S
C1246 C1240 1.428 . S
C1246 N1245 1.351 . S
C1246 C1247 1.434 . S
C1247 C1238 1.429 . S
C1247 N1244 1.350 . S
C1247 C1246 1.434 . S
C1248 C1249 1.369 . S
C1248 C1250 1.419 . S
C1248 H1252 0.930 . S
C1249 C1248 1.369 . S
C1249 C1258 1.429 . S
C1250 C1248 1.419 . S
C1250 C1251 1.363 . S
C1250 H1253 0.929 . S
C1251 C1250 1.363 . S
C1251 C1257 1.428 . S
H1252 C1248 0.930 . S
H1253 C1250 0.929 . S
S1254 N1255 1.613 . S
S1254 N1256 1.610 . S
N1255 S1254 1.613 . S
N1255 C1258 1.350 . S
N1256 S1254 1.610 . S
N1256 C1257 1.351 . S
C1257 C1251 1.428 . S
C1257 N1256 1.351 . S
C1257 C1258 1.434 . S
C1258 C1249 1.429 . S
C1258 N1255 1.350 . S
C1258 C1257 1.434 . S
C1259 C1260 1.369 . S
C1259 C1261 1.419 . S
C1259 H1263 0.930 . S
C1260 C1259 1.369 . S
C1260 C1269 1.429 . S
C1261 C1259 1.419 . S
C1261 C1262 1.363 . S
C1261 H1264 0.929 . S
C1262 C1261 1.363 . S
C1262 C1268 1.428 . S
H1263 C1259 0.930 . S
H1264 C1261 0.929 . S
S1265 N1266 1.613 . S
S1265 N1267 1.610 . S
N1266 S1265 1.613 . S
N1266 C1269 1.350 . S
N1267 S1265 1.610 . S
N1267 C1268 1.351 . S
C1268 C1262 1.428 . S
C1268 N1267 1.351 . S
C1268 C1269 1.434 . S
C1269 C1260 1.429 . S
C1269 N1266 1.350 . S
C1269 C1268 1.434 . S
C1270 C1271 1.369 . S
C1270 C1272 1.419 . S
C1270 H1274 0.930 . S
C1271 C1270 1.369 . S
C1271 C1280 1.429 . S
C1272 C1270 1.419 . S
C1272 C1273 1.363 . S
C1272 H1275 0.929 . S
C1273 C1272 1.363 . S
C1273 C1279 1.428 . S
H1274 C1270 0.930 . S
H1275 C1272 0.929 . S
S1276 N1277 1.613 . S
S1276 N1278 1.610 . S
N1277 S1276 1.613 . S
N1277 C1280 1.350 . S
N1278 S1276 1.610 . S
N1278 C1279 1.351 . S
C1279 C1273 1.428 . S
C1279 N1278 1.351 . S
C1279 C1280 1.434 . S
C1280 C1271 1.429 . S
C1280 N1277 1.350 . S
C1280 C1279 1.434 . S
C1281 C1282 1.369 . S
C1281 C1283 1.419 . S
C1281 H1285 0.930 . S
C1282 C1281 1.369 . S
C1282 C1291 1.429 . S
C1283 C1281 1.419 . S
C1283 C1284 1.363 . S
C1283 H1286 0.929 . S
C1284 C1283 1.363 . S
C1284 C1290 1.428 . S
H1285 C1281 0.930 . S
H1286 C1283 0.929 . S
S1287 N1288 1.613 . S
S1287 N1289 1.610 . S
N1288 S1287 1.613 . S
N1288 C1291 1.350 . S
N1289 S1287 1.610 . S
N1289 C1290 1.351 . S
C1290 C1284 1.428 . S
C1290 N1289 1.351 . S
C1290 C1291 1.434 . S
C1291 C1282 1.429 . S
C1291 N1288 1.350 . S
C1291 C1290 1.434 . S
C1292 C1293 1.369 . S
C1292 C1294 1.419 . S
C1292 H1296 0.930 . S
C1293 C1292 1.369 . S
C1293 C1302 1.429 . S
C1294 C1292 1.419 . S
C1294 C1295 1.363 . S
C1294 H1297 0.929 . S
C1295 C1294 1.363 . S
C1295 C1301 1.428 . S
H1296 C1292 0.930 . S
H1297 C1294 0.929 . S
S1298 N1299 1.613 . S
S1298 N1300 1.610 . S
N1299 S1298 1.613 . S
N1299 C1302 1.350 . S
N1300 S1298 1.610 . S
N1300 C1301 1.351 . S
C1301 C1295 1.428 . S
C1301 N1300 1.351 . S
C1301 C1302 1.434 . S
C1302 C1293 1.429 . S
C1302 N1299 1.350 . S
C1302 C1301 1.434 . S
C1303 C1304 1.369 . S
C1303 C1305 1.419 . S
C1303 H1307 0.930 . S
C1304 C1303 1.369 . S
C1304 C1313 1.429 . S
C1305 C1303 1.419 . S
C1305 C1306 1.363 . S
C1305 H1308 0.929 . S
C1306 C1305 1.363 . S
C1306 C1312 1.428 . S
H1307 C1303 0.930 . S
H1308 C1305 0.929 . S
S1309 N1310 1.613 . S
S1309 N1311 1.610 . S
N1310 S1309 1.613 . S
N1310 C1313 1.350 . S
N1311 S1309 1.610 . S
N1311 C1312 1.351 . S
C1312 C1306 1.428 . S
C1312 N1311 1.351 . S
C1312 C1313 1.434 . S
C1313 C1304 1.429 . S
C1313 N1310 1.350 . S
C1313 C1312 1.434 . S
C721 C523 2.472 . S
C723 C3 2.486 . S
C732 C55 2.053 . S
C734 C575 2.049 . S
C743 C83 2.284 . S
C745 C495 2.305 . S
C754 C95 1.911 . S
C756 C295 1.919 . S
C765 C335 2.186 . S
C767 C15 2.179 . S
C776 C43 2.345 . S
C778 C255 2.378 . S
C787 C142 2.267 . S
C789 C402 2.280 . S
C798 C162 1.800 . S
C800 C442 1.796 . S
C809 C362 2.029 . S
C811 C222 2.012 . S
C820 C642 2.064 . S
C822 C202 2.060 . S
C831 C122 2.300 . S
C833 C702 2.279 . S
C842 C622 2.489 . S
C844 C182 2.479 . S
C853 C323 2.181 . S
C855 C535 2.207 . S
C864 C243 2.381 . S
C866 C563 2.380 . S
C875 C283 2.615 . S
C877 C483 2.626 . S
C886 C382 2.729 . S
C888 C662 2.716 . S
C897 C682 2.322 . S
C899 C422 2.306 . S
C908 C602 2.574 . S
C910 C462 2.552 . S
C919 C2 1.481 . S
C921 C175 1.481 . S
C930 C203 1.876 . S
C932 C62 1.880 . S
C941 C123 1.689 . S
C943 C82 1.567 . S
C952 C163 1.901 . S
C954 C102 1.939 . S
C963 C215 1.714 . S
C965 C22 1.746 . S
C974 C135 1.570 . S
C976 C42 1.616 . S
C985 C403 1.963 . S
C987 C262 1.953 . S
C996 C443 2.017 . S
C998 C302 2.014 . S
C1007 C363 2.041 . S
C1009 C342 1.945 . S
C1018 C415 1.546 . S
C1020 C322 1.549 . S
C1029 C455 1.483 . S
C1031 C242 1.596 . S
C1040 C375 1.506 . S
C1042 C282 1.514 . S
C1051 C655 1.604 . S
C1053 C482 1.557 . S
C1062 C683 1.937 . S
C1064 C542 1.900 . S
C1073 C562 1.699 . S
C1075 C603 1.733 . S
C1084 C582 2.050 . S
C1086 C643 2.055 . S
C1095 C502 1.834 . S
C1097 C695 1.710 . S
C1106 C615 1.593 . S
C1108 C522 1.592 . S
C1117 C26 1.306 . S
C1119 C9 1.307 . S
C1128 C49 1.441 . S
C1130 C66 1.433 . S
C1139 C106 1.371 . S
C1141 C89 1.362 . S
C1150 C129 1.382 . S
C1152 C146 1.392 . S
C1161 C169 1.324 . S
C1163 C186 1.322 . S
C1172 C226 1.510 . S
C1174 C209 1.513 . S
C1183 C266 1.616 . S
C1185 C249 1.607 . S
C1194 C289 1.294 . S
C1196 C306 1.287 . S
C1205 C346 1.665 . S
C1207 C329 1.655 . S
C1216 C369 1.252 . S
C1218 C386 1.262 . S
C1227 C409 1.579 . S
C1229 C426 1.591 . S
C1238 C449 1.341 . S
C1240 C466 1.331 . S
C1249 C489 1.274 . S
C1251 C506 1.271 . S
C1260 C529 1.414 . S
C1262 C546 1.407 . S
C1271 C586 1.347 . S
C1273 C569 1.354 . S
C1282 C626 1.421 . S
C1284 C609 1.432 . S
C1293 C649 1.299 . S
C1295 C666 1.291 . S
C1304 C689 1.420 . S
C1306 C706 1.431 . S
