# Generated by pormake.
# Topology fcj, (5)-cn, num edge types: 1
# Building blocks:
#     Node 0, Type 0, BuildingBlock: XOMCOT_clean_sbu_1, # of connection points: 5
#     Node 1, Type 0, BuildingBlock: XOMCOT_clean_sbu_1, # of connection points: 5
#     Node 2, Type 0, BuildingBlock: XOMCOT_clean_sbu_1, # of connection points: 5
#     Node 3, Type 0, BuildingBlock: XOMCOT_clean_sbu_1, # of connection points: 5
#     Node 4, Type 0, BuildingBlock: XOMCOT_clean_sbu_1, # of connection points: 5
#     Node 5, Type 0, BuildingBlock: XOMCOT_clean_sbu_1, # of connection points: 5
#     Node 6, Type 0, BuildingBlock: XOMCOT_clean_sbu_1, # of connection points: 5
#     Node 7, Type 0, BuildingBlock: XOMCOT_clean_sbu_1, # of connection points: 5
#     Node 8, Type 0, BuildingBlock: XOMCOT_clean_sbu_1, # of connection points: 5
#     Node 9, Type 0, BuildingBlock: XOMCOT_clean_sbu_1, # of connection points: 5
#     Node 10, Type 0, BuildingBlock: XOMCOT_clean_sbu_1, # of connection points: 5
#     Node 11, Type 0, BuildingBlock: XOMCOT_clean_sbu_1, # of connection points: 5
#     Node 12, Type 0, BuildingBlock: XOMCOT_clean_sbu_1, # of connection points: 5
#     Node 13, Type 0, BuildingBlock: XOMCOT_clean_sbu_1, # of connection points: 5
#     Node 14, Type 0, BuildingBlock: XOMCOT_clean_sbu_1, # of connection points: 5
#     Node 15, Type 0, BuildingBlock: XOMCOT_clean_sbu_1, # of connection points: 5
#     Node 16, Type 0, BuildingBlock: XOMCOT_clean_sbu_1, # of connection points: 5
#     Node 17, Type 0, BuildingBlock: XOMCOT_clean_sbu_1, # of connection points: 5
#     Node 18, Type 0, BuildingBlock: XOMCOT_clean_sbu_1, # of connection points: 5
#     Node 19, Type 0, BuildingBlock: XOMCOT_clean_sbu_1, # of connection points: 5
#     Node 20, Type 0, BuildingBlock: XOMCOT_clean_sbu_1, # of connection points: 5
#     Node 21, Type 0, BuildingBlock: XOMCOT_clean_sbu_1, # of connection points: 5
#     Node 22, Type 0, BuildingBlock: XOMCOT_clean_sbu_1, # of connection points: 5
#     Node 23, Type 0, BuildingBlock: XOMCOT_clean_sbu_1, # of connection points: 5
#     Edge 24, Type (0, 0), BuildingBlock: XUDNAN_clean_linker_2, # of connection points: 2
#     Edge 25, Type (0, 0), BuildingBlock: XUDNAN_clean_linker_2, # of connection points: 2
#     Edge 26, Type (0, 0), BuildingBlock: XUDNAN_clean_linker_2, # of connection points: 2
#     Edge 27, Type (0, 0), BuildingBlock: XUDNAN_clean_linker_2, # of connection points: 2
#     Edge 28, Type (0, 0), BuildingBlock: XUDNAN_clean_linker_2, # of connection points: 2
#     Edge 29, Type (0, 0), BuildingBlock: XUDNAN_clean_linker_2, # of connection points: 2
#     Edge 30, Type (0, 0), BuildingBlock: XUDNAN_clean_linker_2, # of connection points: 2
#     Edge 31, Type (0, 0), BuildingBlock: XUDNAN_clean_linker_2, # of connection points: 2
#     Edge 32, Type (0, 0), BuildingBlock: XUDNAN_clean_linker_2, # of connection points: 2
#     Edge 33, Type (0, 0), BuildingBlock: XUDNAN_clean_linker_2, # of connection points: 2
#     Edge 34, Type (0, 0), BuildingBlock: XUDNAN_clean_linker_2, # of connection points: 2
#     Edge 35, Type (0, 0), BuildingBlock: XUDNAN_clean_linker_2, # of connection points: 2
#     Edge 36, Type (0, 0), BuildingBlock: XUDNAN_clean_linker_2, # of connection points: 2
#     Edge 37, Type (0, 0), BuildingBlock: XUDNAN_clean_linker_2, # of connection points: 2
#     Edge 38, Type (0, 0), BuildingBlock: XUDNAN_clean_linker_2, # of connection points: 2
#     Edge 39, Type (0, 0), BuildingBlock: XUDNAN_clean_linker_2, # of connection points: 2
#     Edge 40, Type (0, 0), BuildingBlock: XUDNAN_clean_linker_2, # of connection points: 2
#     Edge 41, Type (0, 0), BuildingBlock: XUDNAN_clean_linker_2, # of connection points: 2
#     Edge 42, Type (0, 0), BuildingBlock: XUDNAN_clean_linker_2, # of connection points: 2
#     Edge 43, Type (0, 0), BuildingBlock: XUDNAN_clean_linker_2, # of connection points: 2
#     Edge 44, Type (0, 0), BuildingBlock: XUDNAN_clean_linker_2, # of connection points: 2
#     Edge 45, Type (0, 0), BuildingBlock: XUDNAN_clean_linker_2, # of connection points: 2
#     Edge 46, Type (0, 0), BuildingBlock: XUDNAN_clean_linker_2, # of connection points: 2
#     Edge 47, Type (0, 0), BuildingBlock: XUDNAN_clean_linker_2, # of connection points: 2
#     Edge 48, Type (0, 0), BuildingBlock: XUDNAN_clean_linker_2, # of connection points: 2
#     Edge 49, Type (0, 0), BuildingBlock: XUDNAN_clean_linker_2, # of connection points: 2
#     Edge 50, Type (0, 0), BuildingBlock: XUDNAN_clean_linker_2, # of connection points: 2
#     Edge 51, Type (0, 0), BuildingBlock: XUDNAN_clean_linker_2, # of connection points: 2
#     Edge 52, Type (0, 0), BuildingBlock: XUDNAN_clean_linker_2, # of connection points: 2
#     Edge 53, Type (0, 0), BuildingBlock: XUDNAN_clean_linker_2, # of connection points: 2
#     Edge 54, Type (0, 0), BuildingBlock: XUDNAN_clean_linker_2, # of connection points: 2
#     Edge 55, Type (0, 0), BuildingBlock: XUDNAN_clean_linker_2, # of connection points: 2
#     Edge 56, Type (0, 0), BuildingBlock: XUDNAN_clean_linker_2, # of connection points: 2
#     Edge 57, Type (0, 0), BuildingBlock: XUDNAN_clean_linker_2, # of connection points: 2
#     Edge 58, Type (0, 0), BuildingBlock: XUDNAN_clean_linker_2, # of connection points: 2
#     Edge 59, Type (0, 0), BuildingBlock: XUDNAN_clean_linker_2, # of connection points: 2
#     Edge 60, Type (0, 0), BuildingBlock: XUDNAN_clean_linker_2, # of connection points: 2
#     Edge 61, Type (0, 0), BuildingBlock: XUDNAN_clean_linker_2, # of connection points: 2
#     Edge 62, Type (0, 0), BuildingBlock: XUDNAN_clean_linker_2, # of connection points: 2
#     Edge 63, Type (0, 0), BuildingBlock: XUDNAN_clean_linker_2, # of connection points: 2
#     Edge 64, Type (0, 0), BuildingBlock: XUDNAN_clean_linker_2, # of connection points: 2
#     Edge 65, Type (0, 0), BuildingBlock: XUDNAN_clean_linker_2, # of connection points: 2
#     Edge 66, Type (0, 0), BuildingBlock: XUDNAN_clean_linker_2, # of connection points: 2
#     Edge 67, Type (0, 0), BuildingBlock: XUDNAN_clean_linker_2, # of connection points: 2
#     Edge 68, Type (0, 0), BuildingBlock: XUDNAN_clean_linker_2, # of connection points: 2
#     Edge 69, Type (0, 0), BuildingBlock: XUDNAN_clean_linker_2, # of connection points: 2
#     Edge 70, Type (0, 0), BuildingBlock: XUDNAN_clean_linker_2, # of connection points: 2
#     Edge 71, Type (0, 0), BuildingBlock: XUDNAN_clean_linker_2, # of connection points: 2
#     Edge 72, Type (0, 0), BuildingBlock: XUDNAN_clean_linker_2, # of connection points: 2
#     Edge 73, Type (0, 0), BuildingBlock: XUDNAN_clean_linker_2, # of connection points: 2
#     Edge 74, Type (0, 0), BuildingBlock: XUDNAN_clean_linker_2, # of connection points: 2
#     Edge 75, Type (0, 0), BuildingBlock: XUDNAN_clean_linker_2, # of connection points: 2
#     Edge 76, Type (0, 0), BuildingBlock: XUDNAN_clean_linker_2, # of connection points: 2
#     Edge 77, Type (0, 0), BuildingBlock: XUDNAN_clean_linker_2, # of connection points: 2
#     Edge 78, Type (0, 0), BuildingBlock: XUDNAN_clean_linker_2, # of connection points: 2
#     Edge 79, Type (0, 0), BuildingBlock: XUDNAN_clean_linker_2, # of connection points: 2
#     Edge 80, Type (0, 0), BuildingBlock: XUDNAN_clean_linker_2, # of connection points: 2
#     Edge 81, Type (0, 0), BuildingBlock: XUDNAN_clean_linker_2, # of connection points: 2
#     Edge 82, Type (0, 0), BuildingBlock: XUDNAN_clean_linker_2, # of connection points: 2
#     Edge 83, Type (0, 0), BuildingBlock: XUDNAN_clean_linker_2, # of connection points: 2
# Relax obj value: 0.372
# Max RMSD: 0.198
# Mean RMSD: 0.198
data_MOF--net-fcj--node1-XOMCOT_clean_sbu_1--edge1-XUDNAN_clean_linker_2
_symmetry_space_group_name_H-M    P1
_symmetry_Int_Tables_number       1
_symmetry_cell_setting            triclinic
loop_
_symmetry_equiv_pos_as_xyz
'x, y, z'
_cell_length_a     50.700327
_cell_length_b     50.74904
_cell_length_c     50.708545
_cell_angle_alpha  90.009634
_cell_angle_beta   90.132151
_cell_angle_gamma 90.073814
loop_
_atom_site_label
_atom_site_type_symbol
_atom_site_fract_x
_atom_site_fract_y
_atom_site_fract_z
_atom_type_partial_charge
C0 C 0.08365 0.192 0.40955 0.0
C1 C 0.06726 0.20628 0.42569 0.0
N2 N 0.0638 0.23024 0.41489 0.0
N3 N 0.09083 0.20697 0.38881 0.0
C4 C 0.07829 0.23021 0.39255 0.0
H5 H 0.0892 0.17164 0.41231 0.0
Co6 Co 0.11186 0.1949 0.36123 0.0
C7 C 0.13023 0.24499 0.33768 0.0
O8 O 0.15436 0.24116 0.34632 0.0
N9 N 0.13319 0.18284 0.33328 0.0
C10 C 0.14989 0.18084 0.29276 0.0
C11 C 0.12783 0.18638 0.30739 0.0
C12 C 0.1586 0.17453 0.33373 0.0
N13 N 0.1692 0.17346 0.30937 0.0
O14 O 0.14307 0.20334 0.38159 0.0
H15 H 0.10969 0.19451 0.29967 0.0
H16 H 0.16994 0.17143 0.3515 0.0
O17 O 0.11187 0.22915 0.34434 0.0
C18 C 0.15124 0.18648 0.39842 0.0
O19 O 0.13788 0.1645 0.40141 0.0
N20 N 0.08099 0.18539 0.34238 0.0
C21 C 0.03619 0.16862 0.31497 0.0
C22 C 0.04046 0.1954 0.31977 0.0
C23 C 0.06279 0.20339 0.33385 0.0
C24 C 0.07688 0.15914 0.33826 0.0
C25 C 0.05449 0.15028 0.32458 0.0
H26 H 0.06514 0.22408 0.33804 0.0
H27 H 0.09107 0.14503 0.34561 0.0
H28 H 0.07924 0.24663 0.37898 0.0
H29 H 0.05759 0.19916 0.44332 0.0
H30 H 0.15209 0.18354 0.2717 0.0
H31 H 0.02636 0.21 0.31312 0.0
H32 H 0.05149 0.12936 0.32155 0.0
C33 C 0.55319 0.33534 0.16507 0.0
C34 C 0.53999 0.31616 0.17879 0.0
N35 N 0.51407 0.31858 0.17372 0.0
N36 N 0.53585 0.34964 0.15084 0.0
C37 C 0.51194 0.33945 0.15721 0.0
H38 H 0.57438 0.33744 0.1638 0.0
Co39 Co 0.54883 0.37225 0.12443 0.0
C40 C 0.49506 0.3621 0.09427 0.0
O41 O 0.48524 0.33956 0.10233 0.0
N42 N 0.56232 0.39462 0.09829 0.0
C43 C 0.57374 0.41025 0.05895 0.0
C44 C 0.56102 0.39025 0.07201 0.0
C45 C 0.57559 0.41766 0.10069 0.0
N46 N 0.58275 0.42741 0.07702 0.0
O47 O 0.53582 0.40255 0.14288 0.0
H48 H 0.55164 0.37338 0.06291 0.0
H49 H 0.58031 0.42693 0.11933 0.0
O50 O 0.51687 0.37062 0.10351 0.0
C51 C 0.55014 0.40944 0.16238 0.0
O52 O 0.57002 0.3943 0.16918 0.0
N53 N 0.5632 0.34285 0.10699 0.0
C54 C 0.58798 0.30029 0.08312 0.0
C55 C 0.56103 0.29927 0.08873 0.0
C56 C 0.54897 0.32084 0.10075 0.0
C57 C 0.58974 0.34358 0.10263 0.0
C58 C 0.60248 0.32265 0.09019 0.0
H59 H 0.52845 0.31943 0.10575 0.0
H60 H 0.60108 0.36061 0.1087 0.0
H61 H 0.49352 0.34598 0.14882 0.0
H62 H 0.54888 0.30053 0.1903 0.0
H63 H 0.57602 0.41223 0.03782 0.0
H64 H 0.54945 0.28198 0.08383 0.0
H65 H 0.62347 0.32378 0.08638 0.0
C66 C 0.40943 0.79244 0.92451 0.0
C67 C 0.425 0.77525 0.9383 0.0
N68 N 0.43071 0.75476 0.92254 0.0
N69 N 0.4049 0.78297 0.90006 0.0
C70 C 0.4182 0.75977 0.89943 0.0
H71 H 0.40274 0.8113 0.93166 0.0
Co72 Co 0.38613 0.80373 0.87587 0.0
C73 C 0.37702 0.77374 0.82778 0.0
O74 O 0.38558 0.7951 0.81586 0.0
N75 N 0.36612 0.82585 0.85279 0.0
C76 C 0.34718 0.85993 0.8324 0.0
C77 C 0.36914 0.85146 0.84591 0.0
C78 C 0.34175 0.81959 0.84357 0.0
N79 N 0.33008 0.83976 0.83089 0.0
O80 O 0.35456 0.7993 0.89657 0.0
H81 H 0.38527 0.8641 0.85145 0.0
H82 H 0.33218 0.80085 0.84717 0.0
O83 O 0.37698 0.77277 0.85315 0.0
C84 C 0.35143 0.82047 0.90975 0.0
O85 O 0.36929 0.83911 0.9072 0.0
N86 N 0.41806 0.80993 0.85737 0.0
C87 C 0.46255 0.82411 0.82799 0.0
C88 C 0.45474 0.79759 0.83022 0.0
C89 C 0.43251 0.79094 0.84492 0.0
C90 C 0.42807 0.83475 0.85934 0.0
C91 C 0.44949 0.84264 0.84393 0.0
H92 H 0.42651 0.77058 0.84536 0.0
H93 H 0.41902 0.84874 0.87255 0.0
H94 H 0.41914 0.747 0.8824 0.0
H95 H 0.43278 0.77833 0.95797 0.0
H96 H 0.34372 0.8796 0.82491 0.0
H97 H 0.46523 0.78194 0.82029 0.0
H98 H 0.45499 0.86322 0.84415 0.0
C99 C 0.96247 0.65266 0.67779 0.0
C100 C 0.97909 0.66821 0.69238 0.0
N101 N 0.99776 0.67774 0.67622 0.0
N102 N 0.97061 0.65204 0.6525 0.0
C103 C 0.9924 0.6675 0.65217 0.0
H104 H 0.94474 0.64338 0.68502 0.0
Co105 Co 0.9501 0.63486 0.62728 0.0
C106 C 0.98172 0.62904 0.57896 0.0
O107 O 0.96064 0.63607 0.56559 0.0
N108 N 0.92798 0.61642 0.60352 0.0
C109 C 0.89244 0.59716 0.5859 0.0
C110 C 0.90151 0.61828 0.60032 0.0
C111 C 0.93423 0.59347 0.59142 0.0
N112 N 0.91316 0.58179 0.5803 0.0
O113 O 0.95657 0.60199 0.64452 0.0
H114 H 0.88892 0.63261 0.60953 0.0
H115 H 0.95358 0.58451 0.5922 0.0
O116 O 0.98116 0.62826 0.60425 0.0
C117 C 0.93842 0.59302 0.65931 0.0
O118 O 0.91701 0.60711 0.66297 0.0
N119 N 0.94292 0.66783 0.61087 0.0
C120 C 0.92729 0.70982 0.57933 0.0
C121 C 0.95399 0.70313 0.58152 0.0
C122 C 0.96143 0.68222 0.59759 0.0
C123 C 0.91796 0.67755 0.6131 0.0
C124 C 0.90937 0.69808 0.59677 0.0
H125 H 0.9819 0.67673 0.59765 0.0
H126 H 0.90429 0.66857 0.62669 0.0
H127 H 0.00386 0.67177 0.63477 0.0
H128 H 0.97662 0.67354 0.7129 0.0
H129 H 0.87214 0.59286 0.58078 0.0
H130 H 0.96882 0.71282 0.5696 0.0
H131 H 0.88871 0.70348 0.59669 0.0
C132 C 0.60603 0.28439 0.57645 0.0
C133 C 0.5875 0.27137 0.56177 0.0
N134 N 0.56955 0.26089 0.57821 0.0
N135 N 0.60032 0.28209 0.60236 0.0
C136 C 0.57793 0.26742 0.60276 0.0
H137 H 0.62228 0.29532 0.56823 0.0
Co138 Co 0.61931 0.29881 0.6297 0.0
C139 C 0.63434 0.24263 0.65444 0.0
O140 O 0.63707 0.2227 0.63815 0.0
N141 N 0.63868 0.31566 0.65648 0.0
C142 C 0.65394 0.34514 0.6851 0.0
C143 C 0.63214 0.33669 0.6714 0.0
C144 C 0.66456 0.31165 0.66171 0.0
N145 N 0.67448 0.32962 0.67868 0.0
O146 O 0.65091 0.29821 0.60845 0.0
H147 H 0.61324 0.34636 0.67152 0.0
H148 H 0.67632 0.29684 0.65189 0.0
O149 O 0.62836 0.26521 0.64512 0.0
C150 C 0.65476 0.32119 0.59902 0.0
O151 O 0.63719 0.33949 0.60423 0.0
N152 N 0.58819 0.3019 0.64974 0.0
C153 C 0.54736 0.31797 0.68305 0.0
C154 C 0.55881 0.29283 0.68561 0.0
C155 C 0.57929 0.28521 0.66884 0.0
C156 C 0.57521 0.32488 0.64484 0.0
C157 C 0.5551 0.33357 0.66152 0.0
H158 H 0.58813 0.26616 0.67172 0.0
H159 H 0.58212 0.33765 0.62922 0.0
H160 H 0.56743 0.26241 0.62059 0.0
H161 H 0.58728 0.27004 0.54048 0.0
H162 H 0.6547 0.36202 0.69812 0.0
H163 H 0.55264 0.27937 0.70096 0.0
H164 H 0.54703 0.35306 0.65842 0.0
C165 C 0.48013 0.85506 0.32791 0.0
C166 C 0.49315 0.83436 0.31609 0.0
N167 N 0.49505 0.81484 0.33377 0.0
N168 N 0.47386 0.84879 0.35314 0.0
C169 C 0.48336 0.82392 0.35579 0.0
H170 H 0.47525 0.87321 0.31806 0.0
Co171 Co 0.45457 0.86942 0.37834 0.0
C172 C 0.50909 0.86966 0.40483 0.0
O173 O 0.52176 0.8516 0.39135 0.0
N174 N 0.43613 0.88981 0.40365 0.0
C175 C 0.42652 0.90588 0.4434 0.0
C176 C 0.43624 0.88473 0.42987 0.0
C177 C 0.42583 0.91445 0.40196 0.0
N178 N 0.42026 0.9247 0.42588 0.0
O179 O 0.46302 0.9013 0.35944 0.0
H180 H 0.44489 0.86772 0.43915 0.0
H181 H 0.42432 0.92567 0.38397 0.0
O182 O 0.48515 0.87501 0.3997 0.0
C183 C 0.44698 0.90851 0.34145 0.0
O184 O 0.42693 0.89308 0.33569 0.0
N185 N 0.4445 0.83842 0.39649 0.0
C186 C 0.42306 0.794 0.42067 0.0
C187 C 0.44858 0.80241 0.42698 0.0
C188 C 0.45883 0.82497 0.41502 0.0
C189 C 0.41963 0.83037 0.3901 0.0
C190 C 0.40836 0.80831 0.4022 0.0
H191 H 0.47836 0.83121 0.42053 0.0
H192 H 0.4084 0.84139 0.37569 0.0
H193 H 0.48195 0.8122 0.37337 0.0
H194 H 0.49968 0.83332 0.2958 0.0
H195 H 0.42558 0.90785 0.46464 0.0
H196 H 0.46035 0.79185 0.44136 0.0
H197 H 0.38851 0.80233 0.39698 0.0
C198 C 0.91697 0.69694 0.08871 0.0
C199 C 0.93492 0.70849 0.07205 0.0
N200 N 0.93327 0.73476 0.07498 0.0
N201 N 0.9041 0.71575 0.10236 0.0
C202 C 0.91405 0.73872 0.09301 0.0
H203 H 0.91415 0.676 0.09154 0.0
Co204 Co 0.87956 0.70672 0.12863 0.0
C205 C 0.89761 0.76015 0.15454 0.0
O206 O 0.92098 0.76414 0.14421 0.0
N207 N 0.85477 0.69725 0.15465 0.0
C208 C 0.83569 0.69094 0.1936 0.0
C209 C 0.85775 0.70025 0.18094 0.0
C210 C 0.8308 0.68582 0.15188 0.0
N211 N 0.81865 0.68195 0.17528 0.0
O212 O 0.85156 0.72159 0.1078 0.0
H213 H 0.87507 0.70846 0.19038 0.0
H214 H 0.82231 0.68047 0.1331 0.0
O215 O 0.88408 0.7398 0.14822 0.0
C216 C 0.84336 0.70426 0.09147 0.0
O217 O 0.85618 0.6818 0.09019 0.0
N218 N 0.90643 0.68962 0.14786 0.0
C219 C 0.94429 0.65793 0.1727 0.0
C220 C 0.94988 0.68429 0.16616 0.0
C221 C 0.93067 0.6998 0.15375 0.0
C222 C 0.90104 0.66385 0.15317 0.0
C223 C 0.91923 0.64799 0.1662 0.0
H224 H 0.9358 0.71946 0.14785 0.0
H225 H 0.88236 0.65541 0.14721 0.0
H226 H 0.90747 0.75799 0.09911 0.0
H227 H 0.94919 0.69835 0.05987 0.0
H228 H 0.83274 0.69035 0.21472 0.0
H229 H 0.96913 0.69277 0.16987 0.0
H230 H 0.91346 0.62805 0.17106 0.0
C231 C 0.03832 0.16035 0.83042 0.0
C232 C 0.02009 0.1784 0.82171 0.0
N233 N 0.00194 0.18178 0.84076 0.0
N234 N 0.03172 0.15222 0.85481 0.0
C235 C 0.0092 0.16521 0.8604 0.0
H236 H 0.05641 0.15517 0.82047 0.0
Co237 Co 0.05454 0.13317 0.87619 0.0
C238 C 0.03014 0.12815 0.92838 0.0
O239 O 0.05298 0.13515 0.93849 0.0
N240 N 0.07842 0.11304 0.89711 0.0
C241 C 0.11035 0.09771 0.92337 0.0
C242 C 0.10086 0.11946 0.91026 0.0
C243 C 0.07504 0.08709 0.9026 0.0
N244 N 0.09419 0.07742 0.91815 0.0
O245 O 0.04363 0.10137 0.85899 0.0
H246 H 0.10972 0.1387 0.91136 0.0
H247 H 0.05826 0.07554 0.89633 0.0
O248 O 0.02714 0.12737 0.90326 0.0
C249 C 0.05769 0.09417 0.83955 0.0
O250 O 0.0772 0.10942 0.83196 0.0
N251 N 0.06588 0.16544 0.89128 0.0
C252 C 0.08683 0.21187 0.91162 0.0
C253 C 0.06105 0.20439 0.91772 0.0
C254 C 0.05066 0.18141 0.90677 0.0
C255 C 0.08986 0.17418 0.88277 0.0
C256 C 0.10111 0.19708 0.8933 0.0
H257 H 0.03051 0.17644 0.91128 0.0
H258 H 0.10091 0.1625 0.86879 0.0
H259 H 0.99934 0.16388 0.87922 0.0
H260 H 0.02157 0.18993 0.80381 0.0
H261 H 0.12766 0.09684 0.93588 0.0
H262 H 0.04923 0.21598 0.93119 0.0
H263 H 0.12095 0.20274 0.88778 0.0
C264 C 0.41131 0.08343 0.19633 0.0
C265 C 0.42648 0.06447 0.20831 0.0
N266 N 0.42384 0.06701 0.23458 0.0
N267 N 0.39876 0.09765 0.2149 0.0
C268 C 0.40726 0.08752 0.23812 0.0
H269 H 0.40787 0.08536 0.17536 0.0
Co270 Co 0.37089 0.1201 0.20603 0.0
C271 C 0.34773 0.11791 0.26492 0.0
O272 O 0.35769 0.10093 0.28174 0.0
N273 N 0.34346 0.14251 0.19653 0.0
C274 C 0.3046 0.16223 0.19218 0.0
C275 C 0.31752 0.14053 0.20211 0.0
C276 C 0.34574 0.16505 0.18263 0.0
N277 N 0.32247 0.1776 0.17996 0.0
O278 O 0.39203 0.15063 0.21497 0.0
H279 H 0.30864 0.12453 0.21305 0.0
H280 H 0.36423 0.17243 0.17503 0.0
O281 O 0.35685 0.11885 0.2415 0.0
C282 C 0.41081 0.15746 0.19971 0.0
O283 O 0.4169 0.14206 0.17981 0.0
N284 N 0.35041 0.09041 0.19631 0.0
C285 C 0.32029 0.04661 0.18038 0.0
C286 C 0.33285 0.04738 0.2052 0.0
C287 C 0.34721 0.06954 0.21295 0.0
C288 C 0.33977 0.08964 0.1716 0.0
C289 C 0.32412 0.06835 0.16351 0.0
H290 H 0.35618 0.06963 0.23227 0.0
H291 H 0.34294 0.10593 0.15822 0.0
H292 H 0.39973 0.09332 0.25711 0.0
H293 H 0.43715 0.04882 0.19851 0.0
H294 H 0.28371 0.16629 0.19369 0.0
H295 H 0.33199 0.031 0.21878 0.0
H296 H 0.31495 0.06938 0.14428 0.0
C297 C 0.65491 0.67528 0.95473 0.0
C298 C 0.67172 0.69151 0.96852 0.0
N299 N 0.68149 0.67798 0.98919 0.0
N300 N 0.65378 0.65159 0.96667 0.0
C301 C 0.6702 0.65382 0.98767 0.0
H302 H 0.645 0.68016 0.93651 0.0
Co303 Co 0.63569 0.62268 0.95272 0.0
C304 C 0.61781 0.59634 0.00153 0.0
O305 O 0.59364 0.60494 0.99805 0.0
N306 N 0.6173 0.59301 0.93865 0.0
C307 C 0.6082 0.55134 0.92805 0.0
C308 C 0.62767 0.56872 0.93493 0.0
C309 C 0.59111 0.58948 0.93403 0.0
N310 N 0.58513 0.56432 0.92769 0.0
O311 O 0.60276 0.63975 0.96072 0.0
H312 H 0.64793 0.56319 0.93831 0.0
H313 H 0.57623 0.60435 0.937 0.0
O314 O 0.63621 0.60411 0.98623 0.0
C315 C 0.59255 0.6528 0.94177 0.0
O316 O 0.6049 0.65321 0.91901 0.0
N317 N 0.66829 0.60774 0.94309 0.0
C318 C 0.71377 0.58345 0.92355 0.0
C319 C 0.70836 0.58378 0.95073 0.0
C320 C 0.68579 0.59635 0.96013 0.0
C321 C 0.67366 0.60869 0.91679 0.0
C322 C 0.69622 0.59661 0.90658 0.0
H323 H 0.68233 0.59633 0.98108 0.0
H324 H 0.65991 0.6183 0.90359 0.0
H325 H 0.6743 0.63791 0.00124 0.0
H326 H 0.67737 0.7113 0.96292 0.0
H327 H 0.61076 0.53047 0.92453 0.0
H328 H 0.72105 0.57383 0.96473 0.0
H329 H 0.69977 0.59755 0.88556 0.0
C330 C 0.0916 0.91833 0.69646 0.0
C331 C 0.07679 0.93741 0.70851 0.0
N332 N 0.0798 0.93492 0.73475 0.0
N333 N 0.10431 0.90403 0.71491 0.0
C334 C 0.09607 0.91411 0.73819 0.0
H335 H 0.09439 0.91607 0.67545 0.0
Co336 Co 0.13026 0.88043 0.70405 0.0
C337 C 0.15641 0.88504 0.76109 0.0
O338 O 0.14658 0.90511 0.7741 0.0
N339 N 0.15595 0.85677 0.69229 0.0
C340 C 0.19478 0.83846 0.68357 0.0
C341 C 0.18236 0.85996 0.69427 0.0
C342 C 0.15283 0.833 0.6806 0.0
N343 N 0.17614 0.82158 0.67514 0.0
O344 O 0.10891 0.85156 0.71499 0.0
H345 H 0.19201 0.87677 0.7032 0.0
H346 H 0.134 0.82414 0.67598 0.0
O347 O 0.1485 0.88009 0.73771 0.0
C348 C 0.09109 0.84449 0.69874 0.0
O349 O 0.08763 0.85855 0.67725 0.0
N350 N 0.15074 0.90901 0.69236 0.0
C351 C 0.18282 0.94962 0.6739 0.0
C352 C 0.17442 0.94913 0.70022 0.0
C353 C 0.15827 0.92876 0.70902 0.0
C354 C 0.15719 0.91003 0.66628 0.0
C355 C 0.17347 0.93009 0.65663 0.0
H356 H 0.15176 0.92899 0.72921 0.0
H357 H 0.15028 0.89475 0.65308 0.0
H358 H 0.10277 0.90743 0.75719 0.0
H359 H 0.06587 0.95291 0.69872 0.0
H360 H 0.21585 0.83512 0.68264 0.0
H361 H 0.18035 0.96434 0.714 0.0
H362 H 0.17932 0.92982 0.63611 0.0
C363 C 0.84999 0.33092 0.46989 0.0
C364 C 0.82854 0.32215 0.48414 0.0
N365 N 0.81717 0.34311 0.49579 0.0
N366 N 0.8523 0.35724 0.47273 0.0
C367 C 0.83215 0.36398 0.48871 0.0
H368 H 0.86207 0.31908 0.45696 0.0
Co369 Co 0.87364 0.37953 0.45262 0.0
C370 C 0.88102 0.40701 0.50653 0.0
O371 O 0.87236 0.38926 0.52325 0.0
N372 N 0.89507 0.402 0.43229 0.0
C373 C 0.91111 0.42955 0.40211 0.0
C374 C 0.88945 0.41509 0.40974 0.0
C375 C 0.92026 0.40893 0.43792 0.0
N376 N 0.93031 0.42567 0.41997 0.0
O377 O 0.90392 0.35877 0.46131 0.0
H378 H 0.87091 0.41433 0.39928 0.0
H379 H 0.93124 0.40157 0.4547 0.0
O380 O 0.88087 0.40255 0.48183 0.0
C381 C 0.91233 0.34495 0.44213 0.0
O382 O 0.89921 0.34546 0.41975 0.0
N383 N 0.84371 0.39855 0.44269 0.0
C384 C 0.79838 0.42195 0.42179 0.0
C385 C 0.81065 0.4322 0.44454 0.0
C386 C 0.83362 0.42055 0.45437 0.0
C387 C 0.83153 0.38758 0.42143 0.0
C388 C 0.80927 0.39923 0.4103 0.0
H389 H 0.8429 0.42916 0.47149 0.0
H390 H 0.83985 0.37011 0.41249 0.0
H391 H 0.82792 0.38411 0.49413 0.0
H392 H 0.82095 0.30221 0.48442 0.0
H393 H 0.91272 0.44194 0.38481 0.0
H394 H 0.80276 0.44913 0.45478 0.0
H395 H 0.80126 0.39072 0.39244 0.0
C396 C 0.92281 0.41184 0.80049 0.0
C397 C 0.9356 0.42915 0.78407 0.0
N398 N 0.92107 0.43177 0.76205 0.0
N399 N 0.90021 0.40377 0.78893 0.0
C400 C 0.89961 0.41643 0.76547 0.0
H401 H 0.92885 0.40674 0.82029 0.0
Co402 Co 0.87489 0.38383 0.80625 0.0
C403 C 0.82944 0.38076 0.77129 0.0
O404 O 0.81499 0.38816 0.79143 0.0
N405 N 0.84928 0.36277 0.82423 0.0
C406 C 0.82014 0.34541 0.85216 0.0
C407 C 0.83328 0.36793 0.84495 0.0
C408 C 0.84467 0.33693 0.81891 0.0
N409 N 0.82753 0.3259 0.83589 0.0
O410 O 0.89484 0.35236 0.79943 0.0
H411 H 0.83104 0.38656 0.8548 0.0
H412 H 0.8545 0.32599 0.80349 0.0
O413 O 0.85449 0.37886 0.77368 0.0
C414 C 0.9072 0.34801 0.82091 0.0
O415 O 0.90566 0.36592 0.83957 0.0
N416 N 0.858 0.41546 0.81575 0.0
C417 C 0.83795 0.46116 0.8392 0.0
C418 C 0.83485 0.45661 0.81195 0.0
C419 C 0.84551 0.43382 0.80046 0.0
C420 C 0.86371 0.42111 0.84136 0.0
C421 C 0.85309 0.4431 0.85371 0.0
H422 H 0.84365 0.43102 0.77942 0.0
H423 H 0.87549 0.40748 0.85276 0.0
H424 H 0.88312 0.41579 0.7519 0.0
H425 H 0.95337 0.44016 0.78852 0.0
H426 H 0.80653 0.34341 0.86846 0.0
H427 H 0.8245 0.47056 0.79955 0.0
H428 H 0.85627 0.4453 0.87469 0.0
C429 C 0.34417 0.17765 0.53208 0.0
C430 C 0.32677 0.18921 0.5149 0.0
N431 N 0.31396 0.17004 0.50179 0.0
N432 N 0.34282 0.15121 0.52967 0.0
C433 C 0.32391 0.14709 0.51112 0.0
H434 H 0.35685 0.18797 0.54578 0.0
Co435 Co 0.36375 0.12939 0.55081 0.0
C436 C 0.37377 0.08003 0.52245 0.0
O437 O 0.37073 0.06757 0.54496 0.0
N438 N 0.38586 0.10853 0.57309 0.0
C439 C 0.40531 0.08927 0.6076 0.0
C440 C 0.38276 0.10145 0.59865 0.0
C441 C 0.41081 0.10071 0.56727 0.0
N442 N 0.42276 0.08885 0.58779 0.0
O443 O 0.39437 0.14932 0.54101 0.0
H444 H 0.36588 0.10569 0.61076 0.0
H445 H 0.42027 0.1042 0.54847 0.0
O446 O 0.3701 0.10498 0.52106 0.0
C447 C 0.40449 0.16289 0.55963 0.0
O448 O 0.39299 0.16296 0.58283 0.0
N449 N 0.3332 0.11136 0.56192 0.0
C450 C 0.29451 0.08356 0.5889 0.0
C451 C 0.3004 0.07724 0.56264 0.0
C452 C 0.31952 0.09187 0.5492 0.0
C453 C 0.32456 0.12036 0.58563 0.0
C454 C 0.3056 0.10643 0.59979 0.0
H455 H 0.32388 0.08666 0.52907 0.0
H456 H 0.33407 0.13727 0.59455 0.0
H457 H 0.31764 0.12782 0.50447 0.0
H458 H 0.32331 0.21014 0.51262 0.0
H459 H 0.40891 0.08192 0.62733 0.0
H460 H 0.29155 0.06028 0.55312 0.0
H461 H 0.30071 0.1127 0.6196 0.0
C462 C 0.59451 0.57859 0.30972 0.0
C463 C 0.57861 0.56037 0.29773 0.0
N464 N 0.57867 0.56502 0.27161 0.0
N465 N 0.60506 0.59469 0.2914 0.0
C466 C 0.59392 0.58672 0.26841 0.0
H467 H 0.59938 0.57914 0.33049 0.0
Co468 Co 0.6317 0.61817 0.30217 0.0
C469 C 0.65354 0.61003 0.24458 0.0
O470 O 0.64119 0.58874 0.23656 0.0
N471 N 0.65805 0.64129 0.31393 0.0
C472 C 0.69781 0.65714 0.32365 0.0
C473 C 0.68426 0.63726 0.31127 0.0
C474 C 0.65615 0.66403 0.32773 0.0
N475 N 0.6801 0.67391 0.3339 0.0
O476 O 0.60972 0.64763 0.29288 0.0
H477 H 0.69303 0.62065 0.30122 0.0
H478 H 0.63773 0.67288 0.33375 0.0
O479 O 0.64937 0.61932 0.26766 0.0
C480 C 0.59252 0.65101 0.31088 0.0
O481 O 0.59269 0.63505 0.33128 0.0
N482 N 0.65199 0.58927 0.3135 0.0
C483 C 0.67713 0.54585 0.33599 0.0
C484 C 0.67244 0.54694 0.30875 0.0
C485 C 0.65966 0.56876 0.29792 0.0
C486 C 0.65603 0.58837 0.34008 0.0
C487 C 0.66877 0.56697 0.35171 0.0
H488 H 0.65521 0.56855 0.27726 0.0
H489 H 0.64888 0.60423 0.35238 0.0
H490 H 0.59745 0.59592 0.24959 0.0
H491 H 0.56898 0.54394 0.30736 0.0
H492 H 0.71903 0.65925 0.32497 0.0
H493 H 0.67853 0.53105 0.29588 0.0
H494 H 0.67149 0.5667 0.3729 0.0
C495 C 0.16245 0.82734 0.04549 0.0
C496 C 0.18251 0.81764 0.02995 0.0
N497 N 0.18732 0.83523 0.01071 0.0
N498 N 0.15475 0.85097 0.03609 0.0
C499 C 0.16988 0.85493 0.01457 0.0
H500 H 0.15529 0.81864 0.06357 0.0
Co501 Co 0.13179 0.87394 0.05326 0.0
C502 C 0.13503 0.92334 0.0231 0.0
O503 O 0.1444 0.93463 0.04438 0.0
N504 N 0.10729 0.89748 0.07072 0.0
C505 C 0.08783 0.93163 0.091 0.0
C506 C 0.11142 0.91961 0.08533 0.0
C507 C 0.0806 0.89679 0.06825 0.0
N508 N 0.0686 0.91702 0.08036 0.0
O509 O 0.1026 0.85452 0.0385 0.0
H510 H 0.13033 0.92765 0.09088 0.0
H511 H 0.06963 0.88252 0.05694 0.0
O512 O 0.131 0.89842 0.02276 0.0
C513 C 0.09366 0.83745 0.05468 0.0
O514 O 0.10544 0.83497 0.07766 0.0
N515 N 0.16141 0.89021 0.0698 0.0
C516 C 0.20192 0.91351 0.09976 0.0
C517 C 0.20356 0.91202 0.07208 0.0
C518 C 0.1832 0.90027 0.05752 0.0
C519 C 0.16123 0.88822 0.09658 0.0
C520 C 0.18044 0.90072 0.11188 0.0
H521 H 0.18451 0.9005 0.03632 0.0
H522 H 0.14493 0.87841 0.10623 0.0
H523 H 0.16976 0.87292 0.00312 0.0
H524 H 0.19435 0.80036 0.03403 0.0
H525 H 0.085 0.94962 0.10212 0.0
H526 H 0.22019 0.92008 0.06147 0.0
H527 H 0.17763 0.90091 0.13298 0.0
C528 C 0.20472 0.41571 0.08326 0.0
C529 C 0.22201 0.42785 0.0662 0.0
N530 N 0.24622 0.41755 0.06999 0.0
N531 N 0.21784 0.39758 0.09758 0.0
C532 C 0.24326 0.40016 0.09 0.0
H533 H 0.18351 0.41801 0.0833 0.0
Co534 Co 0.20141 0.37091 0.11749 0.0
C535 C 0.24963 0.33673 0.10243 0.0
O536 O 0.24964 0.34083 0.07696 0.0
N537 N 0.1856 0.34457 0.13809 0.0
C538 C 0.174 0.30519 0.15351 0.0
C539 C 0.18722 0.31829 0.13389 0.0
C540 C 0.17172 0.34692 0.16072 0.0
N541 N 0.16441 0.32324 0.17029 0.0
O542 O 0.2137 0.38741 0.14945 0.0
H543 H 0.19741 0.30921 0.11753 0.0
H544 H 0.16713 0.3655 0.17009 0.0
O545 O 0.23275 0.34807 0.1173 0.0
C546 C 0.20039 0.40771 0.1559 0.0
O547 O 0.18167 0.41583 0.1399 0.0
N548 N 0.18682 0.3556 0.08559 0.0
C549 C 0.16298 0.33293 0.04116 0.0
C550 C 0.18743 0.34535 0.03911 0.0
C551 C 0.19883 0.35679 0.06142 0.0
C552 C 0.16159 0.34594 0.08691 0.0
C553 C 0.14975 0.33361 0.06526 0.0
H554 H 0.21702 0.36721 0.05858 0.0
H555 H 0.15028 0.34757 0.10486 0.0
H556 H 0.25905 0.38803 0.09749 0.0
H557 H 0.21654 0.44102 0.05032 0.0
H558 H 0.17206 0.28405 0.15568 0.0
H559 H 0.19775 0.34607 0.02043 0.0
H560 H 0.13024 0.3251 0.06721 0.0
C561 C 0.69965 0.08574 0.91851 0.0
C562 C 0.71361 0.07112 0.9367 0.0
N563 N 0.73875 0.07956 0.93665 0.0
N564 N 0.71585 0.10348 0.90711 0.0
C565 C 0.73976 0.09875 0.91825 0.0
H566 H 0.67854 0.08503 0.9155 0.0
Co567 Co 0.70345 0.13227 0.88701 0.0
C568 C 0.75736 0.15976 0.89616 0.0
O569 O 0.75793 0.1602 0.92198 0.0
N570 N 0.69203 0.16174 0.86666 0.0
C571 C 0.68979 0.20374 0.85412 0.0
C572 C 0.69888 0.18674 0.87296 0.0
C573 C 0.67886 0.16427 0.84346 0.0
N574 N 0.67716 0.18968 0.83548 0.0
O575 O 0.70938 0.11278 0.85485 0.0
H576 H 0.71027 0.19233 0.89013 0.0
H577 H 0.67092 0.14799 0.83241 0.0
O578 O 0.73839 0.14848 0.88395 0.0
C579 C 0.6881 0.10055 0.84908 0.0
O580 O 0.66836 0.10199 0.86577 0.0
N581 N 0.69376 0.15012 0.91879 0.0
C582 C 0.67226 0.17568 0.96261 0.0
C583 C 0.69669 0.16301 0.96444 0.0
C584 C 0.70686 0.14993 0.94243 0.0
C585 C 0.66873 0.16009 0.91782 0.0
C586 C 0.65799 0.17367 0.93909 0.0
H587 H 0.7247 0.13897 0.9451 0.0
H588 H 0.65676 0.15759 0.90033 0.0
H589 H 0.75716 0.11044 0.91474 0.0
H590 H 0.70547 0.057 0.95047 0.0
H591 H 0.69311 0.22481 0.85375 0.0
H592 H 0.70784 0.16319 0.98268 0.0
H593 H 0.63843 0.18207 0.93731 0.0
C594 C 0.67179 0.97242 0.65537 0.0
C595 C 0.6813 0.98952 0.67413 0.0
N596 N 0.66076 0.00253 0.68477 0.0
N597 N 0.64535 0.97461 0.6539 0.0
C598 C 0.63917 0.99322 0.67195 0.0
H599 H 0.68339 0.95855 0.64414 0.0
Co600 Co 0.62464 0.95179 0.63381 0.0
C601 C 0.57317 0.97767 0.62391 0.0
O602 O 0.56167 0.95474 0.62759 0.0
N603 N 0.60491 0.92789 0.61294 0.0
C604 C 0.58758 0.89206 0.59421 0.0
C605 C 0.60031 0.90182 0.61615 0.0
C606 C 0.59529 0.93322 0.5886 0.0
N607 N 0.58434 0.91196 0.57704 0.0
O608 O 0.64333 0.96197 0.60249 0.0
H609 H 0.60648 0.89009 0.63276 0.0
H610 H 0.59679 0.95234 0.57925 0.0
O611 O 0.59819 0.97995 0.62719 0.0
C612 C 0.65892 0.94407 0.59426 0.0
O613 O 0.66189 0.92275 0.60868 0.0
N614 N 0.60804 0.94016 0.6649 0.0
C615 C 0.58478 0.91242 0.70599 0.0
C616 C 0.57565 0.9376 0.69927 0.0
C617 C 0.58789 0.95144 0.67878 0.0
C618 C 0.6194 0.91757 0.67384 0.0
C619 C 0.60774 0.90301 0.69396 0.0
H620 H 0.58056 0.97073 0.67383 0.0
H621 H 0.63661 0.90987 0.66391 0.0
H622 H 0.61915 0.99891 0.67647 0.0
H623 H 0.70178 0.9918 0.67974 0.0
H624 H 0.58132 0.8719 0.59107 0.0
H625 H 0.55837 0.94586 0.70869 0.0
H626 H 0.61588 0.88399 0.69922 0.0
C627 C 0.80251 0.91711 0.41557 0.0
C628 C 0.7878 0.93114 0.43341 0.0
N629 N 0.76441 0.91899 0.43612 0.0
N630 N 0.7883 0.89644 0.40664 0.0
C631 C 0.76516 0.89791 0.41989 0.0
H632 H 0.82259 0.92146 0.40994 0.0
Co633 Co 0.80072 0.87214 0.38186 0.0
C634 C 0.75025 0.84512 0.36896 0.0
O635 O 0.74836 0.85679 0.34592 0.0
N636 N 0.8132 0.84757 0.35695 0.0
C637 C 0.81991 0.80964 0.33597 0.0
C638 C 0.81026 0.82114 0.35849 0.0
C639 C 0.82526 0.85155 0.33349 0.0
N640 N 0.82928 0.82882 0.32025 0.0
O641 O 0.78715 0.89361 0.3538 0.0
H642 H 0.80134 0.81083 0.37485 0.0
H643 H 0.83042 0.87071 0.32578 0.0
O644 O 0.7689 0.85133 0.38466 0.0
C645 C 0.80493 0.91068 0.3488 0.0
O646 O 0.82709 0.9098 0.36224 0.0
N647 N 0.81609 0.85284 0.40897 0.0
C648 C 0.84415 0.82291 0.44531 0.0
C649 C 0.81668 0.82542 0.44747 0.0
C650 C 0.80295 0.84076 0.42911 0.0
C651 C 0.84286 0.85208 0.40769 0.0
C652 C 0.85729 0.83714 0.42559 0.0
H653 H 0.78181 0.84259 0.43089 0.0
H654 H 0.85298 0.86263 0.39217 0.0
H655 H 0.74923 0.88384 0.41789 0.0
H656 H 0.7941 0.94841 0.44429 0.0
H657 H 0.82012 0.78878 0.33155 0.0
H658 H 0.80583 0.81496 0.46259 0.0
H659 H 0.87856 0.83637 0.42371 0.0
C660 C 0.82804 0.02908 0.14992 0.0
C661 C 0.81404 0.01508 0.16844 0.0
N662 N 0.83077 0.99899 0.18119 0.0
N663 N 0.85373 0.02211 0.15109 0.0
C664 C 0.85452 0.00334 0.17005 0.0
H665 H 0.82011 0.04488 0.13814 0.0
Co666 Co 0.88311 0.03806 0.13437 0.0
C667 C 0.90412 0.99229 0.12456 0.0
O668 O 0.91254 0.99842 0.14829 0.0
N669 N 0.91192 0.05308 0.11728 0.0
C670 C 0.95085 0.07042 0.10722 0.0
C671 C 0.93531 0.0608 0.12736 0.0
C672 C 0.91386 0.05762 0.09113 0.0
N673 N 0.93724 0.06832 0.08443 0.0
O674 O 0.85978 0.05233 0.10711 0.0
H675 H 0.94063 0.05954 0.14799 0.0
H676 H 0.89834 0.05317 0.07717 0.0
O677 O 0.88781 0.0076 0.11321 0.0
C678 C 0.84435 0.07054 0.09907 0.0
O679 O 0.83909 0.09073 0.11435 0.0
N680 N 0.88149 0.06749 0.15747 0.0
C681 C 0.89906 0.10279 0.19646 0.0
C682 C 0.89278 0.07671 0.20261 0.0
C683 C 0.88481 0.05947 0.18294 0.0
C684 C 0.88638 0.09323 0.15097 0.0
C685 C 0.89538 0.11124 0.17025 0.0
H686 H 0.88436 0.03896 0.18796 0.0
H687 H 0.88612 0.0993 0.13055 0.0
H688 H 0.87264 0.9952 0.17782 0.0
H689 H 0.79377 0.01862 0.17412 0.0
H690 H 0.97074 0.07795 0.10917 0.0
H691 H 0.89642 0.06881 0.22214 0.0
H692 H 0.90062 0.13111 0.16449 0.0
C693 C 0.29449 0.57868 0.5852 0.0
C694 C 0.27756 0.56955 0.566 0.0
N695 N 0.25885 0.58795 0.56176 0.0
N696 N 0.28656 0.6027 0.59314 0.0
C697 C 0.26461 0.60765 0.57887 0.0
H698 H 0.31241 0.56915 0.59172 0.0
Co699 Co 0.30669 0.62476 0.61443 0.0
C700 C 0.27698 0.67377 0.62109 0.0
O701 O 0.2992 0.68647 0.61705 0.0
N702 N 0.32773 0.64658 0.63686 0.0
C703 C 0.35729 0.67401 0.65467 0.0
C704 C 0.34987 0.66082 0.63216 0.0
C705 C 0.32248 0.65138 0.66268 0.0
N706 N 0.34016 0.66779 0.6738 0.0
O707 O 0.29645 0.60497 0.64463 0.0
H708 H 0.36002 0.66241 0.61362 0.0
H709 H 0.3055 0.64372 0.67306 0.0
O710 O 0.27651 0.64857 0.62006 0.0
C711 C 0.31343 0.58837 0.65275 0.0
O712 O 0.33489 0.58473 0.63872 0.0
N713 N 0.318 0.64254 0.58363 0.0
C714 C 0.34051 0.66531 0.53876 0.0
C715 C 0.31419 0.67045 0.54551 0.0
C716 C 0.30314 0.65846 0.56771 0.0
C717 C 0.34256 0.63513 0.57575 0.0
C718 C 0.35449 0.64679 0.55387 0.0
H719 H 0.28262 0.66208 0.57181 0.0
H720 H 0.35345 0.62094 0.58738 0.0
H721 H 0.25384 0.62595 0.58013 0.0
H722 H 0.28007 0.55161 0.55477 0.0
H723 H 0.37394 0.68721 0.65686 0.0
H724 H 0.30211 0.68349 0.53368 0.0
H725 H 0.37475 0.64182 0.54941 0.0
C726 C 0.16083 0.55847 0.32517 0.0
C727 C 0.17556 0.54629 0.30601 0.0
N728 N 0.17414 0.52005 0.30975 0.0
N729 N 0.14997 0.54011 0.34099 0.0
C730 C 0.15894 0.51686 0.33139 0.0
H731 H 0.15667 0.57934 0.32633 0.0
Co732 Co 0.123 0.54828 0.365 0.0
C733 C 0.10424 0.48788 0.36741 0.0
O734 O 0.11622 0.47038 0.3526 0.0
N735 N 0.09584 0.55666 0.38885 0.0
C736 C 0.05637 0.55805 0.40784 0.0
C737 C 0.07017 0.55008 0.38601 0.0
C738 C 0.09699 0.56905 0.41249 0.0
N739 N 0.07332 0.56984 0.4246 0.0
O740 O 0.14683 0.54328 0.39415 0.0
H741 H 0.06204 0.53945 0.36936 0.0
H742 H 0.11486 0.57668 0.42119 0.0
O743 O 0.11163 0.5119 0.3665 0.0
C744 C 0.15952 0.56473 0.3975 0.0
O745 O 0.15629 0.5835 0.37994 0.0
N746 N 0.10052 0.55535 0.3365 0.0
C747 C 0.06872 0.57112 0.29412 0.0
C748 C 0.07984 0.54567 0.29505 0.0
C749 C 0.09536 0.53806 0.31657 0.0
C750 C 0.09101 0.58042 0.3355 0.0
C751 C 0.07455 0.58847 0.31499 0.0
H752 H 0.10377 0.51852 0.31687 0.0
H753 H 0.09593 0.59419 0.35105 0.0
H754 H 0.15298 0.4979 0.33875 0.0
H755 H 0.18537 0.55595 0.28972 0.0
H756 H 0.0355 0.55511 0.41121 0.0
H757 H 0.07702 0.53167 0.27922 0.0
H758 H 0.06636 0.60809 0.3159 0.0
C759 C 0.32918 0.47087 0.85461 0.0
C760 C 0.31693 0.48767 0.83746 0.0
N761 N 0.33539 0.4987 0.82198 0.0
N762 N 0.35545 0.47134 0.85045 0.0
C763 C 0.35865 0.48831 0.83006 0.0
H764 H 0.31917 0.45844 0.86866 0.0
Co765 Co 0.37859 0.4494 0.86901 0.0
C766 C 0.408 0.50281 0.87953 0.0
O767 O 0.39311 0.5209 0.86854 0.0
N768 N 0.40083 0.427 0.88786 0.0
C769 C 0.42284 0.39232 0.90308 0.0
C770 C 0.40908 0.40245 0.88188 0.0
C771 C 0.40941 0.4312 0.9127 0.0
N772 N 0.42307 0.41063 0.92232 0.0
O773 O 0.3581 0.45399 0.9008 0.0
H774 H 0.40483 0.39235 0.86357 0.0
H775 H 0.40489 0.44876 0.92393 0.0
O776 O 0.40116 0.47861 0.87877 0.0
C777 C 0.34571 0.43304 0.90706 0.0
O778 O 0.34576 0.41321 0.89039 0.0
N779 N 0.39859 0.44314 0.83833 0.0
C780 C 0.42982 0.41857 0.80046 0.0
C781 C 0.44096 0.43623 0.81852 0.0
C782 C 0.42505 0.44831 0.83734 0.0
C783 C 0.38706 0.42762 0.81958 0.0
C784 C 0.40239 0.41514 0.80028 0.0
H785 H 0.43469 0.45962 0.85255 0.0
H786 H 0.36625 0.42311 0.82097 0.0
H787 H 0.37753 0.49269 0.82114 0.0
H788 H 0.29586 0.49068 0.83576 0.0
H789 H 0.43185 0.37304 0.90432 0.0
H790 H 0.46214 0.43902 0.81942 0.0
H791 H 0.39321 0.40125 0.78686 0.0
H792 H 0.26609 0.14585 0.49924 0.0
H793 H 0.31513 0.20483 0.46185 0.0
H794 H 0.27852 0.21635 0.43164 0.0
H795 H 0.23048 0.12408 0.44094 0.0
H796 H 0.19948 0.12074 0.45796 0.0
H797 H 0.23 0.11645 0.47567 0.0
H798 H 0.21558 0.1523 0.50904 0.0
H799 H 0.18517 0.15695 0.49121 0.0
H800 H 0.20672 0.18459 0.49718 0.0
H801 H 0.23603 0.22238 0.40634 0.0
H802 H 0.19149 0.22075 0.38632 0.0
H803 H 0.16969 0.15844 0.44071 0.0
C804 C 0.26916 0.16076 0.48429 0.0
C805 C 0.29346 0.17428 0.48255 0.0
C806 C 0.29664 0.19423 0.4633 0.0
C807 C 0.27596 0.20093 0.44615 0.0
C808 C 0.25203 0.18769 0.44869 0.0
C809 C 0.24851 0.16798 0.46723 0.0
C810 C 0.22049 0.15752 0.46641 0.0
C811 C 0.2201 0.12794 0.45984 0.0
C812 C 0.20615 0.16318 0.49251 0.0
C813 C 0.2091 0.17387 0.44408 0.0
C814 C 0.2275 0.19139 0.43433 0.0
C815 C 0.22145 0.20871 0.4138 0.0
C816 C 0.19605 0.20776 0.40264 0.0
C817 C 0.17709 0.18947 0.41189 0.0
C818 C 0.18376 0.17258 0.4331 0.0
H819 H 0.56326 0.4219 0.21254 0.0
H820 H 0.53262 0.45597 0.14039 0.0
H821 H 0.53541 0.50057 0.1605 0.0
H822 H 0.52972 0.46623 0.25806 0.0
H823 H 0.55732 0.46676 0.28052 0.0
H824 H 0.55118 0.43804 0.26054 0.0
H825 H 0.59877 0.44097 0.24204 0.0
H826 H 0.60497 0.4698 0.26175 0.0
H827 H 0.60963 0.47105 0.22655 0.0
H828 H 0.54604 0.54236 0.18852 0.0
H829 H 0.55916 0.57548 0.2224 0.0
H830 H 0.58121 0.51212 0.27522 0.0
C831 C 0.55663 0.43869 0.20113 0.0
C832 C 0.5475 0.43554 0.17506 0.0
C833 C 0.53922 0.45797 0.16063 0.0
C834 C 0.54096 0.48337 0.17182 0.0
C835 C 0.55065 0.48582 0.19754 0.0
C836 C 0.55793 0.4639 0.21205 0.0
C837 C 0.56818 0.47138 0.23899 0.0
C838 C 0.55054 0.45993 0.26081 0.0
C839 C 0.5971 0.46279 0.24252 0.0
C840 C 0.56581 0.50097 0.2375 0.0
C841 C 0.55588 0.5092 0.21348 0.0
C842 C 0.5534 0.53601 0.20753 0.0
C843 C 0.56095 0.55468 0.22678 0.0
C844 C 0.57056 0.54638 0.25167 0.0
C845 C 0.57308 0.51915 0.25678 0.0
H846 H 0.30702 0.78897 0.91867 0.0
H847 H 0.34313 0.86406 0.93912 0.0
H848 H 0.30476 0.87544 0.96579 0.0
H849 H 0.24 0.81349 0.91443 0.0
H850 H 0.22509 0.78482 0.92918 0.0
H851 H 0.2555 0.78172 0.91111 0.0
H852 H 0.27779 0.7603 0.95177 0.0
H853 H 0.24742 0.76319 0.96991 0.0
H854 H 0.27735 0.77732 0.98299 0.0
H855 H 0.26304 0.88039 0.98875 0.0
H856 H 0.21998 0.87676 0.01076 0.0
H857 H 0.20965 0.79821 0.97871 0.0
C858 C 0.30682 0.8077 0.92889 0.0
C859 C 0.32816 0.82563 0.92661 0.0
C860 C 0.32712 0.84996 0.94032 0.0
C861 C 0.30534 0.85672 0.95558 0.0
C862 C 0.2846 0.83895 0.9572 0.0
C863 C 0.28506 0.81482 0.94456 0.0
C864 C 0.25987 0.79952 0.95025 0.0
C865 C 0.24419 0.7946 0.92472 0.0
C866 C 0.26598 0.77354 0.96459 0.0
C867 C 0.24557 0.81883 0.96818 0.0
C868 C 0.26022 0.84155 0.97146 0.0
C869 C 0.25132 0.8627 0.98642 0.0
C870 C 0.22679 0.86057 0.99867 0.0
C871 C 0.21152 0.83736 0.99618 0.0
C872 C 0.22104 0.81615 0.98079 0.0
H873 H 0.90674 0.48241 0.76589 0.0
H874 H 0.94461 0.42576 0.7149 0.0
H875 H 0.95459 0.46132 0.68259 0.0
H876 H 0.87652 0.5216 0.71461 0.0
H877 H 0.88176 0.55231 0.73173 0.0
H878 H 0.87774 0.52225 0.75015 0.0
H879 H 0.9224 0.53082 0.77369 0.0
H880 H 0.92667 0.56077 0.75513 0.0
H881 H 0.95174 0.53564 0.75424 0.0
H882 H 0.96193 0.50405 0.65713 0.0
H883 H 0.96246 0.54935 0.63869 0.0
H884 H 0.9181 0.57714 0.70615 0.0
C885 C 0.91684 0.47766 0.74771 0.0
C886 C 0.92481 0.45164 0.74244 0.0
C887 C 0.93826 0.44573 0.71883 0.0
C888 C 0.94407 0.46576 0.7006 0.0
C889 C 0.9362 0.49145 0.70647 0.0
C890 C 0.92265 0.49736 0.72937 0.0
C891 C 0.91627 0.52639 0.73111 0.0
C892 C 0.88629 0.53089 0.73193 0.0
C893 C 0.9301 0.53915 0.75496 0.0
C894 C 0.92805 0.53595 0.70547 0.0
C895 C 0.93984 0.51565 0.69167 0.0
C896 C 0.95264 0.52004 0.66773 0.0
C897 C 0.95301 0.54579 0.6575 0.0
C898 C 0.94028 0.56656 0.67105 0.0
C899 C 0.92782 0.56152 0.69535 0.0
H900 H 0.79271 0.30281 0.52242 0.0
H901 H 0.78426 0.38508 0.50003 0.0
H902 H 0.74241 0.38726 0.52376 0.0
H903 H 0.72256 0.28678 0.51554 0.0
H904 H 0.72218 0.26462 0.54332 0.0
H905 H 0.75198 0.26893 0.52447 0.0
H906 H 0.77723 0.28162 0.56705 0.0
H907 H 0.74751 0.27741 0.58601 0.0
H908 H 0.76517 0.30824 0.58723 0.0
H909 H 0.70246 0.38176 0.54976 0.0
H910 H 0.66498 0.36866 0.57707 0.0
H911 H 0.69661 0.28927 0.58303 0.0
C912 C 0.78199 0.32123 0.52241 0.0
C913 C 0.79227 0.34391 0.50962 0.0
C914 C 0.77749 0.3676 0.51016 0.0
C915 C 0.75343 0.36901 0.52341 0.0
C916 C 0.74407 0.34653 0.53593 0.0
C917 C 0.75766 0.32299 0.53553 0.0
C918 C 0.74272 0.30188 0.55077 0.0
C919 C 0.73437 0.27921 0.53243 0.0
C920 C 0.75914 0.2917 0.57416 0.0
C921 C 0.71892 0.31753 0.56009 0.0
C922 C 0.72026 0.34317 0.55104 0.0
C923 C 0.70106 0.36172 0.55692 0.0
C924 C 0.6798 0.35401 0.57253 0.0
C925 C 0.67772 0.3279 0.58226 0.0
C926 C 0.6976 0.30935 0.57587 0.0
H927 H 0.413 0.01525 0.23174 0.0
H928 H 0.44941 0.07469 0.28098 0.0
H929 H 0.46186 0.04011 0.31358 0.0
H930 H 0.38496 0.97832 0.28515 0.0
H931 H 0.38937 0.947 0.26902 0.0
H932 H 0.38481 0.97638 0.24965 0.0
H933 H 0.42853 0.96682 0.22497 0.0
H934 H 0.43332 0.93752 0.24442 0.0
H935 H 0.45856 0.96255 0.24359 0.0
H936 H 0.47105 0.99769 0.34007 0.0
H937 H 0.4717 0.9531 0.36015 0.0
H938 H 0.4266 0.92291 0.29395 0.0
C939 C 0.42383 0.02085 0.2493 0.0
C940 C 0.43077 0.04738 0.25381 0.0
C941 C 0.44422 0.05432 0.27726 0.0
C942 C 0.45138 0.03483 0.29572 0.0
C943 C 0.44445 0.00867 0.29052 0.0
C944 C 0.43059 0.00182 0.26802 0.0
C945 C 0.42406 0.97276 0.26753 0.0
C946 C 0.39402 0.96837 0.26787 0.0
C947 C 0.43689 0.95912 0.24372 0.0
C948 C 0.43665 0.96407 0.29313 0.0
C949 C 0.44859 0.98491 0.30608 0.0
C950 C 0.46167 0.98132 0.33008 0.0
C951 C 0.46209 0.95592 0.34126 0.0
C952 C 0.44919 0.93459 0.32858 0.0
C953 C 0.43657 0.93884 0.30414 0.0
H954 H 0.81432 0.66429 0.07056 0.0
H955 H 0.81384 0.74905 0.08172 0.0
H956 H 0.7707 0.75144 0.05849 0.0
H957 H 0.78676 0.66243 0.00667 0.0
H958 H 0.76747 0.63318 0.01266 0.0
H959 H 0.79765 0.63853 0.03062 0.0
H960 H 0.77234 0.63391 0.07476 0.0
H961 H 0.74201 0.62865 0.05692 0.0
H962 H 0.74424 0.65468 0.08101 0.0
H963 H 0.72843 0.74414 0.03187 0.0
H964 H 0.69085 0.7282 0.00511 0.0
H965 H 0.71928 0.64803 0.0129 0.0
C966 C 0.80529 0.68346 0.06809 0.0
C967 C 0.81763 0.70659 0.07767 0.0
C968 C 0.80481 0.73113 0.07441 0.0
C969 C 0.78031 0.73262 0.0613 0.0
C970 C 0.76878 0.70934 0.05202 0.0
C971 C 0.78084 0.68521 0.05549 0.0
C972 C 0.76459 0.66302 0.04378 0.0
C973 C 0.78004 0.64845 0.02215 0.0
C974 C 0.75524 0.64394 0.06541 0.0
C975 C 0.74174 0.67842 0.03237 0.0
C976 C 0.74439 0.70509 0.03744 0.0
C977 C 0.72614 0.72329 0.02797 0.0
C978 C 0.70491 0.71406 0.01268 0.0
C979 C 0.70202 0.68684 0.00692 0.0
C980 C 0.72059 0.66885 0.0173 0.0
H981 H 0.08434 0.98738 0.72902 0.0
H982 H 0.06064 0.92676 0.78415 0.0
H983 H 0.04869 0.96138 0.81684 0.0
H984 H 0.1149 0.02871 0.77636 0.0
H985 H 0.10524 0.0588 0.76014 0.0
H986 H 0.10982 0.02922 0.74116 0.0
H987 H 0.06227 0.03368 0.72264 0.0
H988 H 0.0575 0.06319 0.74177 0.0
H989 H 0.03492 0.03595 0.74518 0.0
H990 H 0.03899 0.00388 0.84304 0.0
H991 H 0.03789 0.04888 0.86207 0.0
H992 H 0.07098 0.08014 0.78978 0.0
C993 C 0.07621 0.98141 0.74782 0.0
C994 C 0.07281 0.95453 0.75399 0.0
C995 C 0.06308 0.94735 0.7791 0.0
C996 C 0.05617 0.96685 0.79763 0.0
C997 C 0.05953 0.99331 0.79073 0.0
C998 C 0.0697 1.00047 0.76649 0.0
C999 C 0.07332 0.02993 0.76428 0.0
C1000 C 0.10255 0.03707 0.76026 0.0
C1001 C 0.05596 0.04135 0.74216 0.0
C1002 C 0.06368 0.03843 0.79108 0.0
C1003 C 0.05535 0.0172 0.80601 0.0
C1004 C 0.04556 0.02057 0.8315 0.0
C1005 C 0.04491 0.04619 0.84211 0.0
C1006 C 0.05453 0.0679 0.82741 0.0
C1007 C 0.06361 0.06388 0.80149 0.0
H1008 H 0.45886 0.17252 0.18087 0.0
H1009 H 0.38992 0.20263 0.22126 0.0
H1010 H 0.40828 0.24789 0.2185 0.0
H1011 H 0.50636 0.21627 0.21225 0.0
H1012 H 0.526 0.2193 0.18282 0.0
H1013 H 0.50739 0.18965 0.18874 0.0
H1014 H 0.48433 0.19517 0.14339 0.0
H1015 H 0.50261 0.22503 0.1375 0.0
H1016 H 0.46708 0.22537 0.13614 0.0
H1017 H 0.43355 0.29089 0.2078 0.0
H1018 H 0.46567 0.32596 0.1954 0.0
H1019 H 0.51829 0.26655 0.16446 0.0
C1020 C 0.44775 0.18858 0.18945 0.0
C1021 C 0.42301 0.18404 0.20136 0.0
C1022 C 0.40908 0.20561 0.21232 0.0
C1023 C 0.41927 0.23141 0.21064 0.0
C1024 C 0.44355 0.23526 0.19824 0.0
C1025 C 0.45778 0.21428 0.18828 0.0
C1026 C 0.48349 0.22335 0.17617 0.0
C1027 C 0.50721 0.21144 0.19088 0.0
C1028 C 0.48441 0.21684 0.14655 0.0
C1029 C 0.48158 0.25275 0.18071 0.0
C1030 C 0.45829 0.25944 0.19314 0.0
C1031 C 0.45196 0.28575 0.19837 0.0
C1032 C 0.47015 0.30554 0.19118 0.0
C1033 C 0.49445 0.29881 0.17935 0.0
C1034 C 0.49999 0.27211 0.17389 0.0
H1035 H 0.56414 0.6767 0.90262 0.0
H1036 H 0.56095 0.65648 0.98573 0.0
H1037 H 0.51678 0.67704 0.98871 0.0
H1038 H 0.53428 0.7392 0.90754 0.0
H1039 H 0.51637 0.73645 0.87691 0.0
H1040 H 0.54686 0.71887 0.88127 0.0
H1041 H 0.52308 0.67506 0.86988 0.0
H1042 H 0.49238 0.69248 0.86572 0.0
H1043 H 0.49446 0.6653 0.88852 0.0
H1044 H 0.47414 0.70209 0.98298 0.0
H1045 H 0.43716 0.73083 0.96959 0.0
H1046 H 0.46795 0.73405 0.89004 0.0
C1047 C 0.55416 0.67644 0.92147 0.0
C1048 C 0.56606 0.66499 0.94399 0.0
C1049 C 0.55226 0.66512 0.96823 0.0
C1050 C 0.52712 0.67666 0.97007 0.0
C1051 C 0.51599 0.68776 0.94743 0.0
C1052 C 0.52909 0.6877 0.9236 0.0
C1053 C 0.51329 0.7017 0.9024 0.0
C1054 C 0.52861 0.72546 0.8914 0.0
C1055 C 0.50533 0.68248 0.88033 0.0
C1056 C 0.48949 0.71036 0.91817 0.0
C1057 C 0.49132 0.70187 0.94404 0.0
C1058 C 0.47241 0.70859 0.96273 0.0
C1059 C 0.45149 0.72491 0.95495 0.0
C1060 C 0.44958 0.73445 0.92875 0.0
C1061 C 0.46856 0.72653 0.91001 0.0
H1062 H 0.06016 0.8199 0.66207 0.0
H1063 H 0.09352 0.80986 0.74036 0.0
H1064 H 0.07476 0.76485 0.74228 0.0
H1065 H 0.99972 0.78438 0.67331 0.0
H1066 H 0.99921 0.77025 0.6407 0.0
H1067 H 0.01468 0.80174 0.64616 0.0
H1068 H 0.05797 0.78386 0.62581 0.0
H1069 H 0.04276 0.75218 0.62065 0.0
H1070 H 0.07291 0.75463 0.63941 0.0
H1071 H 0.05187 0.72111 0.7356 0.0
H1072 H 0.02571 0.6824 0.72127 0.0
H1073 H 0.00925 0.72071 0.64673 0.0
C1074 C 0.06334 0.8084 0.67977 0.0
C1075 C 0.07817 0.81846 0.70116 0.0
C1076 C 0.08209 0.8026 0.72381 0.0
C1077 C 0.07161 0.77699 0.72502 0.0
C1078 C 0.05748 0.76755 0.70335 0.0
C1079 C 0.05329 0.78281 0.6812 0.0
C1080 C 0.03763 0.76804 0.66046 0.0
C1081 C 0.01124 0.78193 0.65484 0.0
C1082 C 0.05379 0.76447 0.63509 0.0
C1083 C 0.03351 0.74204 0.67443 0.0
C1084 C 0.04507 0.74216 0.69917 0.0
C1085 C 0.04293 0.72073 0.7162 0.0
C1086 C 0.02814 0.69887 0.70792 0.0
C1087 C 0.01589 0.69851 0.68281 0.0
C1088 C 0.01902 0.72022 0.66573 0.0
H1089 H 0.03112 0.26004 0.38487 0.0
H1090 H 0.05478 0.24427 0.46543 0.0
H1091 H 0.02025 0.27468 0.48159 0.0
H1092 H 0.01254 0.33019 0.39412 0.0
H1093 H 0.98471 0.32737 0.37213 0.0
H1094 H 0.01348 0.3072 0.36703 0.0
H1095 H 0.9841 0.26534 0.36846 0.0
H1096 H 0.95535 0.28536 0.37385 0.0
H1097 H 0.9635 0.25949 0.39681 0.0
H1098 H 0.98117 0.30481 0.48893 0.0
H1099 H 0.94002 0.33106 0.48672 0.0
H1100 H 0.94105 0.32513 0.40136 0.0
C1101 C 0.02947 0.26362 0.40584 0.0
C1102 C 0.04574 0.25011 0.42395 0.0
C1103 C 0.04249 0.25455 0.45132 0.0
C1104 C 0.02302 0.27182 0.46063 0.0
C1105 C 0.00685 0.28439 0.44229 0.0
C1106 C 0.00989 0.28052 0.41545 0.0
C1107 C 0.9886 0.29462 0.39998 0.0
C1108 C 1.00055 0.31612 0.38227 0.0
C1109 C 0.97191 0.27503 0.38384 0.0
C1110 C 0.97283 0.30655 0.42229 0.0
C1111 C 0.98386 0.30083 0.44655 0.0
C1112 C 0.97243 0.30951 0.47002 0.0
C1113 C 0.94907 0.32436 0.4686 0.0
C1114 C 0.93726 0.32996 0.44392 0.0
C1115 C 0.94948 0.32101 0.42056 0.0
H1116 H 0.97813 0.208 0.80004 0.0
H1117 H 0.98508 0.20582 0.88545 0.0
H1118 H 0.9588 0.24608 0.88858 0.0
H1119 H 0.98606 0.27593 0.79297 0.0
H1120 H 0.9622 0.28029 0.76693 0.0
H1121 H 0.97868 0.24912 0.7708 0.0
H1122 H 0.93363 0.22532 0.77424 0.0
H1123 H 0.91697 0.25642 0.77008 0.0
H1124 H 0.90996 0.23614 0.79839 0.0
H1125 H 0.93717 0.28834 0.8832 0.0
H1126 H 0.91774 0.33026 0.86986 0.0
H1127 H 0.92315 0.30725 0.78745 0.0
C1128 C 0.97372 0.21576 0.8194 0.0
C1129 C 0.98357 0.20341 0.84251 0.0
C1130 C 0.97739 0.21431 0.86747 0.0
C1131 C 0.96258 0.2374 0.86947 0.0
C1132 C 0.95384 0.24937 0.84639 0.0
C1133 C 0.95879 0.2389 0.82179 0.0
C1134 C 0.94797 0.25674 0.80019 0.0
C1135 C 0.97005 0.26607 0.78164 0.0
C1136 C 0.92581 0.24283 0.78482 0.0
C1137 C 0.9372 0.27934 0.81662 0.0
C1138 C 0.94074 0.27432 0.84319 0.0
C1139 C 0.93391 0.2924 0.8625 0.0
C1140 C 0.92303 0.31632 0.8546 0.0
C1141 C 0.91892 0.32216 0.82756 0.0
C1142 C 0.9259 0.30327 0.80825 0.0
H1143 H 0.44269 0.17011 0.59657 0.0
H1144 H 0.42268 0.18736 0.51519 0.0
H1145 H 0.46356 0.21391 0.51102 0.0
H1146 H 0.46941 0.23164 0.61399 0.0
H1147 H 0.49591 0.21857 0.63379 0.0
H1148 H 0.46577 0.20015 0.63004 0.0
H1149 H 0.49204 0.16001 0.61277 0.0
H1150 H 0.52237 0.17817 0.61657 0.0
H1151 H 0.51388 0.16402 0.58507 0.0
H1152 H 0.50423 0.24121 0.51708 0.0
H1153 H 0.54426 0.26451 0.53098 0.0
H1154 H 0.53965 0.22719 0.60797 0.0
C1155 C 0.44701 0.17943 0.57785 0.0
C1156 C 0.42957 0.17704 0.55622 0.0
C1157 C 0.43593 0.18903 0.53191 0.0
C1158 C 0.45899 0.20415 0.52943 0.0
C1159 C 0.47559 0.20649 0.55131 0.0
C1160 C 0.47015 0.19409 0.57491 0.0
C1161 C 0.4914 0.1995 0.59529 0.0
C1162 C 0.47993 0.21329 0.61971 0.0
C1163 C 0.50577 0.17391 0.60286 0.0
C1164 C 0.5092 0.21775 0.57977 0.0
C1165 C 0.49971 0.22141 0.55445 0.0
C1166 C 0.51214 0.23809 0.53667 0.0
C1167 C 0.53506 0.25116 0.5448 0.0
C1168 C 0.5456 0.24743 0.57051 0.0
C1169 C 0.53227 0.23052 0.58822 0.0
H1170 H 0.59874 0.70289 0.29503 0.0
H1171 H 0.5422 0.64722 0.3269 0.0
H1172 H 0.5103 0.68311 0.33355 0.0
H1173 H 0.58512 0.7533 0.34037 0.0
H1174 H 0.58868 0.78033 0.31759 0.0
H1175 H 0.60615 0.74998 0.31195 0.0
H1176 H 0.58534 0.74618 0.26556 0.0
H1177 H 0.56785 0.77661 0.27091 0.0
H1178 H 0.54995 0.74719 0.26202 0.0
H1179 H 0.48665 0.72456 0.34184 0.0
H1180 H 0.47071 0.77008 0.34811 0.0
H1181 H 0.54109 0.80026 0.3103 0.0
C1182 C 0.57929 0.69827 0.30253 0.0
C1183 C 0.57271 0.67227 0.31014 0.0
C1184 C 0.54749 0.667 0.3208 0.0
C1185 C 0.52924 0.68724 0.32467 0.0
C1186 C 0.53649 0.71277 0.31783 0.0
C1187 C 0.56074 0.71846 0.30673 0.0
C1188 C 0.56394 0.74802 0.30295 0.0
C1189 C 0.58735 0.75853 0.3192 0.0
C1190 C 0.56694 0.7549 0.27361 0.0
C1191 C 0.53782 0.75787 0.31383 0.0
C1192 C 0.52243 0.73709 0.32239 0.0
C1193 C 0.49827 0.74101 0.3348 0.0
C1194 C 0.48945 0.76686 0.33843 0.0
C1195 C 0.50455 0.7885 0.32946 0.0
C1196 C 0.529 0.78394 0.31685 0.0
H1197 H 0.96081 0.77022 0.1037 0.0
H1198 H 0.95021 0.73964 0.02479 0.0
H1199 H 0.98803 0.76654 0.00927 0.0
H1200 H 0.98526 0.83755 0.08551 0.0
H1201 H 0.00875 0.83755 0.11223 0.0
H1202 H 0.97806 0.81991 0.11551 0.0
H1203 H 0.00422 0.77736 0.12658 0.0
H1204 H 0.03485 0.79483 0.12283 0.0
H1205 H 0.02865 0.76555 0.10367 0.0
H1206 H 0.02946 0.79474 0.00333 0.0
H1207 H 0.07194 0.81881 0.00839 0.0
H1208 H 0.05682 0.82743 0.09202 0.0
C1209 C 0.96587 0.77007 0.08297 0.0
C1210 C 0.95225 0.75349 0.06521 0.0
C1211 C 0.96018 0.75267 0.03848 0.0
C1212 C 0.98159 0.76786 0.02956 0.0
C1213 C 0.99511 0.78355 0.04772 0.0
C1214 C 0.98753 0.78468 0.07392 0.0
C1215 C 0.00705 0.8005 0.09014 0.0
C1216 C 0.99399 0.82535 0.10151 0.0
C1217 C 0.01942 0.78354 0.11209 0.0
C1218 C 0.0271 0.80751 0.0692 0.0
C1219 C 0.01966 0.79817 0.0447 0.0
C1220 C 0.03541 0.80218 0.02244 0.0
C1221 C 0.05947 0.81582 0.02544 0.0
C1222 C 0.06775 0.8246 0.0506 0.0
C1223 C 0.05114 0.82059 0.07258 0.0
H1224 H 0.17417 0.52393 0.25656 0.0
H1225 H 0.1909 0.47025 0.32083 0.0
H1226 H 0.20313 0.4356 0.28842 0.0
H1227 H 0.14394 0.47672 0.21522 0.0
H1228 H 0.15641 0.49103 0.1852 0.0
H1229 H 0.15106 0.51149 0.21365 0.0
H1230 H 0.19977 0.52711 0.21173 0.0
H1231 H 0.2053 0.50655 0.18332 0.0
H1232 H 0.22587 0.50302 0.21214 0.0
H1233 H 0.21304 0.40655 0.24751 0.0
H1234 H 0.21536 0.38552 0.20329 0.0
H1235 H 0.19034 0.4588 0.16731 0.0
C1236 C 0.18096 0.5051 0.2639 0.0
C1237 C 0.18211 0.49995 0.29124 0.0
C1238 C 0.19009 0.47464 0.29995 0.0
C1239 C 0.19716 0.45493 0.28169 0.0
C1240 C 0.19589 0.46079 0.25478 0.0
C1241 C 0.18771 0.48527 0.24604 0.0
C1242 C 0.18615 0.48638 0.21631 0.0
C1243 C 0.1577 0.49171 0.20706 0.0
C1244 C 0.20543 0.50699 0.20523 0.0
C1245 C 0.19475 0.45873 0.20947 0.0
C1246 C 0.20062 0.4442 0.23178 0.0
C1247 C 0.2086 0.41789 0.22997 0.0
C1248 C 0.21007 0.40614 0.2048 0.0
C1249 C 0.20321 0.42063 0.18192 0.0
C1250 C 0.19583 0.44729 0.18445 0.0
H1251 H 0.71748 0.06665 0.81768 0.0
H1252 H 0.64466 0.11135 0.82048 0.0
H1253 H 0.63172 0.09381 0.77722 0.0
H1254 H 0.72806 0.06935 0.74561 0.0
H1255 H 0.73884 0.03558 0.74359 0.0
H1256 H 0.74447 0.05424 0.77332 0.0
H1257 H 0.72014 0.01843 0.80038 0.0
H1258 H 0.71439 0.99973 0.77074 0.0
H1259 H 0.68701 0.00917 0.79127 0.0
H1260 H 0.62488 0.06986 0.7352 0.0
H1261 H 0.62417 0.03961 0.6972 0.0
H1262 H 0.69939 0.0072 0.72238 0.0
C1263 C 0.69917 0.07314 0.80878 0.0
C1264 C 0.6824 0.09092 0.82211 0.0
C1265 C 0.65808 0.09819 0.81039 0.0
C1266 C 0.65048 0.08829 0.78581 0.0
C1267 C 0.66709 0.07051 0.7733 0.0
C1268 C 0.69083 0.06275 0.78436 0.0
C1269 C 0.70359 0.04142 0.76771 0.0
C1270 C 0.73033 0.05072 0.75691 0.0
C1271 C 0.70644 0.01567 0.78347 0.0
C1272 C 0.6833 0.03857 0.74576 0.0
C1273 C 0.66254 0.05571 0.74933 0.0
C1274 C 0.64107 0.05634 0.73211 0.0
C1275 C 0.64074 0.03892 0.71065 0.0
C1276 C 0.66166 0.0209 0.70658 0.0
C1277 C 0.68325 0.02093 0.72448 0.0
H1278 H 0.68407 0.90436 0.56832 0.0
H1279 H 0.66203 0.98662 0.56063 0.0
H1280 H 0.68373 0.9881 0.51689 0.0
H1281 H 0.7471 0.90927 0.53974 0.0
H1282 H 0.74535 0.8778 0.52333 0.0
H1283 H 0.72703 0.88321 0.55319 0.0
H1284 H 0.68392 0.86975 0.52912 0.0
H1285 H 0.70209 0.86447 0.49908 0.0
H1286 H 0.67439 0.8867 0.49936 0.0
H1287 H 0.71143 0.98135 0.47594 0.0
H1288 H 0.74179 0.96664 0.4406 0.0
H1289 H 0.74312 0.88824 0.47399 0.0
C1290 C 0.68369 0.92273 0.55747 0.0
C1291 C 0.67154 0.94548 0.56799 0.0
C1292 C 0.67133 0.969 0.553 0.0
C1293 C 0.68352 0.96998 0.52813 0.0
C1294 C 0.69545 0.94716 0.51844 0.0
C1295 C 0.69543 0.92394 0.53261 0.0
C1296 C 0.71013 0.90231 0.51823 0.0
C1297 C 0.73381 0.89259 0.53459 0.0
C1298 C 0.69152 0.87946 0.51102 0.0
C1299 C 0.71901 0.91711 0.49391 0.0
C1300 C 0.71034 0.94297 0.49439 0.0
C1301 C 0.71788 0.96105 0.47512 0.0
C1302 C 0.73506 0.95259 0.45519 0.0
C1303 C 0.74419 0.92629 0.45446 0.0
C1304 C 0.73568 0.90823 0.47378 0.0
H1305 H 0.80671 0.95388 0.19747 0.0
H1306 H 0.8463 0.02457 0.22445 0.0
H1307 H 0.83878 0.01144 0.2708 0.0
H1308 H 0.75719 0.95049 0.24981 0.0
H1309 H 0.7587 0.91515 0.25293 0.0
H1310 H 0.76567 0.93054 0.22167 0.0
H1311 H 0.81126 0.90749 0.22016 0.0
H1312 H 0.80421 0.89176 0.25117 0.0
H1313 H 0.83368 0.91129 0.24755 0.0
H1314 H 0.82846 0.99082 0.31329 0.0
H1315 H 0.8204 0.9611 0.35079 0.0
H1316 H 0.78783 0.90243 0.29771 0.0
C1317 C 0.81362 0.96645 0.21331 0.0
C1318 C 0.82699 0.99023 0.20777 0.0
C1319 C 0.83607 0.0063 0.22865 0.0
C1320 C 0.83171 0.99909 0.25488 0.0
C1321 C 0.81829 0.97566 0.25985 0.0
C1322 C 0.80966 0.95932 0.23978 0.0
C1323 C 0.79728 0.9344 0.25092 0.0
C1324 C 0.76797 0.93254 0.24338 0.0
C1325 C 0.81252 0.90979 0.24192 0.0
C1326 C 0.80065 0.93922 0.28031 0.0
C1327 C 0.81247 0.96339 0.28484 0.0
C1328 C 0.81897 0.97198 0.31007 0.0
C1329 C 0.8142 0.95504 0.33123 0.0
C1330 C 0.80307 0.9298 0.32711 0.0
C1331 C 0.79556 0.92199 0.30141 0.0
H1332 H 0.81227 0.10634 0.07313 0.0
H1333 H 0.84715 0.02864 0.06514 0.0
H1334 H 0.82524 0.02328 0.02203 0.0
H1335 H 0.74983 0.09054 0.04398 0.0
H1336 H 0.74634 0.12168 0.02725 0.0
H1337 H 0.76517 0.11971 0.05734 0.0
H1338 H 0.80554 0.13998 0.03356 0.0
H1339 H 0.78684 0.14195 0.00337 0.0
H1340 H 0.81787 0.12465 0.00399 0.0
H1341 H 0.7974 0.02511 0.9807 0.0
H1342 H 0.76704 0.03523 0.9435 0.0
H1343 H 0.75195 0.11218 0.97682 0.0
C1344 C 0.81539 0.08823 0.0623 0.0
C1345 C 0.83144 0.06789 0.07273 0.0
C1346 C 0.83498 0.04454 0.05774 0.0
C1347 C 0.82259 0.04128 0.03315 0.0
C1348 C 0.80683 0.0616 0.02353 0.0
C1349 C 0.80331 0.08471 0.03754 0.0
C1350 C 0.7852 0.10343 0.02273 0.0
C1351 C 0.76015 0.10917 0.03878 0.0
C1352 C 0.79974 0.12902 0.01548 0.0
C1353 C 0.77896 0.08717 0.99834 0.0
C1354 C 0.79154 0.06303 0.99926 0.0
C1355 C 0.78776 0.0441 0.97961 0.0
C1356 C 0.7706 0.04993 0.95858 0.0
C1357 C 0.75777 0.07457 0.95715 0.0
C1358 C 0.76212 0.09344 0.97723 0.0
H1359 H 0.36156 0.50158 0.77515 0.0
H1360 H 0.29668 0.53507 0.81947 0.0
H1361 H 0.28346 0.56122 0.78069 0.0
H1362 H 0.37738 0.56163 0.73788 0.0
H1363 H 0.38515 0.54368 0.70824 0.0
H1364 H 0.39024 0.52859 0.74 0.0
H1365 H 0.3608 0.48926 0.72569 0.0
H1366 H 0.35532 0.50442 0.69405 0.0
H1367 H 0.32763 0.49541 0.71439 0.0
H1368 H 0.27586 0.58211 0.73659 0.0
H1369 H 0.27647 0.59876 0.6908 0.0
H1370 H 0.3464 0.55202 0.67514 0.0
C1371 C 0.34495 0.51484 0.77681 0.0
C1372 C 0.33008 0.51622 0.80028 0.0
C1373 C 0.30816 0.53349 0.80157 0.0
C1374 C 0.30052 0.54847 0.77968 0.0
C1375 C 0.31507 0.54608 0.7566 0.0
C1376 C 0.33699 0.52996 0.75505 0.0
C1377 C 0.34886 0.53071 0.72767 0.0
C1378 C 0.37708 0.54182 0.7285 0.0
C1379 C 0.3481 0.50332 0.7147 0.0
C1380 C 0.33008 0.5496 0.71413 0.0
C1381 C 0.3107 0.5582 0.73114 0.0
C1382 C 0.291 0.5756 0.72307 0.0
C1383 C 0.29141 0.58482 0.69699 0.0
C1384 C 0.31143 0.57666 0.67937 0.0
C1385 C 0.3308 0.55861 0.6881 0.0
H1386 H 0.1826 0.53188 0.43518 0.0
H1387 H 0.16401 0.61362 0.41779 0.0
H1388 H 0.18389 0.6273 0.45963 0.0
H1389 H 0.17255 0.53612 0.50722 0.0
H1390 H 0.20019 0.51518 0.51495 0.0
H1391 H 0.18245 0.51076 0.48441 0.0
H1392 H 0.22597 0.51616 0.45829 0.0
H1393 H 0.24381 0.52051 0.48873 0.0
H1394 H 0.24586 0.54522 0.46329 0.0
H1395 H 0.20719 0.63324 0.50143 0.0
H1396 H 0.23538 0.63138 0.54057 0.0
H1397 H 0.24024 0.54617 0.53278 0.0
C1398 C 0.1826 0.55258 0.44038 0.0
C1399 C 0.17186 0.57167 0.42308 0.0
C1400 C 0.17239 0.59861 0.43046 0.0
C1401 C 0.18344 0.60664 0.45436 0.0
C1402 C 0.19412 0.58757 0.47081 0.0
C1403 C 0.19403 0.56111 0.46425 0.0
C1404 C 0.20855 0.54517 0.4851 0.0
C1405 C 0.18981 0.52565 0.49873 0.0
C1406 C 0.23246 0.53093 0.47313 0.0
C1407 C 0.21711 0.56696 0.50389 0.0
C1408 C 0.20816 0.59114 0.49533 0.0
C1409 C 0.21413 0.61439 0.50859 0.0
C1410 C 0.23012 0.61306 0.53105 0.0
C1411 C 0.24015 0.58861 0.54016 0.0
C1412 C 0.2331 0.56522 0.52645 0.0
H1413 H 0.25979 0.45779 0.0368 0.0
H1414 H 0.28024 0.37772 0.05888 0.0
H1415 H 0.31066 0.37509 0.02162 0.0
H1416 H 0.25852 0.44893 0.96942 0.0
H1417 H 0.27389 0.47969 0.96046 0.0
H1418 H 0.25605 0.47708 0.99097 0.0
H1419 H 0.29731 0.49259 0.0169 0.0
H1420 H 0.31526 0.49553 0.98637 0.0
H1421 H 0.32812 0.47541 0.01271 0.0
H1422 H 0.33329 0.37806 0.97894 0.0
H1423 H 0.35074 0.38821 0.93486 0.0
H1424 H 0.31876 0.4673 0.93994 0.0
C1425 C 0.27115 0.43996 0.03412 0.0
C1426 C 0.26745 0.41798 0.05098 0.0
C1427 C 0.2827 0.39497 0.04669 0.0
C1428 C 0.30008 0.39321 0.02539 0.0
C1429 C 0.30257 0.41483 0.00874 0.0
C1430 C 0.28903 0.43801 0.01308 0.0
C1431 C 0.29476 0.45788 0.99137 0.0
C1432 C 0.26928 0.46638 0.97722 0.0
C1433 C 0.30975 0.48177 0.0025 0.0
C1434 C 0.31234 0.4416 0.97345 0.0
C1435 C 0.31669 0.4169 0.98412 0.0
C1436 C 0.33052 0.39749 0.97062 0.0
C1437 C 0.34016 0.40339 0.94551 0.0
C1438 C 0.33613 0.42853 0.93413 0.0
C1439 C 0.32241 0.44807 0.94844 0.0
H1440 H 0.18141 0.333 0.2197 0.0
H1441 H 0.11783 0.29874 0.17427 0.0
H1442 H 0.09715 0.28227 0.21528 0.0
H1443 H 0.19041 0.28069 0.26002 0.0
H1444 H 0.19795 0.29862 0.2898 0.0
H1445 H 0.20407 0.31347 0.25826 0.0
H1446 H 0.17494 0.35338 0.27113 0.0
H1447 H 0.16875 0.3386 0.30288 0.0
H1448 H 0.14155 0.34791 0.28195 0.0
H1449 H 0.08677 0.26475 0.25941 0.0
H1450 H 0.08945 0.243 0.30242 0.0
H1451 H 0.16182 0.28542 0.31983 0.0
C1452 C 0.16255 0.323 0.21877 0.0
C1453 C 0.1506 0.31765 0.19422 0.0
C1454 C 0.1267 0.30342 0.19315 0.0
C1455 C 0.11487 0.29414 0.21629 0.0
C1456 C 0.1274 0.29912 0.24029 0.0
C1457 C 0.15079 0.31314 0.24174 0.0
C1458 C 0.16228 0.31214 0.26938 0.0
C1459 C 0.19032 0.30052 0.26934 0.0
C1460 C 0.16186 0.33964 0.28209 0.0
C1461 C 0.14271 0.29388 0.28271 0.0
C1462 C 0.12219 0.28758 0.26584 0.0
C1463 C 0.10248 0.26988 0.27296 0.0
C1464 C 0.10417 0.25763 0.29761 0.0
C1465 C 0.1258 0.26254 0.3147 0.0
C1466 C 0.14492 0.28147 0.30735 0.0
H1467 H 0.42525 0.36729 0.95347 0.0
H1468 H 0.44659 0.44991 0.94967 0.0
H1469 H 0.46607 0.44712 0.99429 0.0
H1470 H 0.40704 0.36748 0.02233 0.0
H1471 H 0.41983 0.33493 0.02849 0.0
H1472 H 0.4078 0.34346 0.99615 0.0
H1473 H 0.45269 0.33012 0.97573 0.0
H1474 H 0.46482 0.3214 0.00796 0.0
H1475 H 0.48261 0.34489 0.98813 0.0
H1476 H 0.4853 0.43453 0.03836 0.0
H1477 H 0.50107 0.41357 0.0795 0.0
H1478 H 0.4647 0.33987 0.05555 0.0
C1479 C 0.4342 0.38469 0.96202 0.0
C1480 C 0.43464 0.40876 0.94814 0.0
C1481 C 0.44604 0.43131 0.96007 0.0
C1482 C 0.45717 0.4299 0.98535 0.0
C1483 C 0.45636 0.40586 0.99858 0.0
C1484 C 0.44499 0.38372 0.98741 0.0
C1485 C 0.44639 0.36038 0.00592 0.0
C1486 C 0.41861 0.35102 0.01368 0.0
C1487 C 0.4626 0.33787 0.9937 0.0
C1488 C 0.46063 0.37274 0.02909 0.0
C1489 C 0.46633 0.39896 0.02443 0.0
C1490 C 0.48063 0.41411 0.0424 0.0
C1491 C 0.48948 0.40206 0.06568 0.0
C1492 C 0.48373 0.37524 0.07087 0.0
C1493 C 0.46887 0.36056 0.05241 0.0
H1494 H 0.35748 0.77968 0.77886 0.0
H1495 H 0.37311 0.71997 0.83798 0.0
H1496 H 0.36026 0.68526 0.8056 0.0
H1497 H 0.30189 0.74634 0.74578 0.0
H1498 H 0.31229 0.7582 0.71394 0.0
H1499 H 0.31872 0.77753 0.74309 0.0
H1500 H 0.36853 0.77844 0.73152 0.0
H1501 H 0.36233 0.759 0.70256 0.0
H1502 H 0.38584 0.74779 0.72679 0.0
H1503 H 0.34917 0.65721 0.76417 0.0
H1504 H 0.34322 0.63933 0.71878 0.0
H1505 H 0.33809 0.71857 0.68803 0.0
C1506 C 0.35791 0.75933 0.78527 0.0
C1507 C 0.36639 0.75245 0.81089 0.0
C1508 C 0.36646 0.72562 0.81848 0.0
C1509 C 0.35923 0.70587 0.80019 0.0
C1510 C 0.35176 0.71345 0.77469 0.0
C1511 C 0.35095 0.73967 0.76745 0.0
C1512 C 0.34445 0.74316 0.73859 0.0
C1513 C 0.31775 0.75713 0.73515 0.0
C1514 C 0.36661 0.75795 0.72403 0.0
C1515 C 0.34282 0.71473 0.73013 0.0
C1516 C 0.34636 0.69773 0.75121 0.0
C1517 C 0.3462 0.67042 0.74768 0.0
C1518 C 0.34281 0.66043 0.72197 0.0
C1519 C 0.34031 0.67774 0.70026 0.0
C1520 C 0.33998 0.7051 0.70449 0.0
H1521 H 0.03561 0.55162 0.45746 0.0
H1522 H 0.09767 0.61002 0.45084 0.0
H1523 H 0.08527 0.62806 0.49453 0.0
H1524 H 0.98854 0.59348 0.48327 0.0
H1525 H 0.97392 0.5689 0.50428 0.0
H1526 H 0.99051 0.55904 0.47471 0.0
H1527 H 0.02064 0.52819 0.50232 0.0
H1528 H 0.0042 0.53841 0.5321 0.0
H1529 H 0.03951 0.54162 0.52935 0.0
H1530 H 0.06202 0.64276 0.53699 0.0
H1531 H 0.0295 0.65333 0.57208 0.0
H1532 H 0.98339 0.58515 0.54975 0.0
C1533 C 0.04674 0.5681 0.46522 0.0
C1534 C 0.06748 0.57951 0.45067 0.0
C1535 C 0.0818 0.60084 0.46174 0.0
C1536 C 0.07491 0.61118 0.48655 0.0
C1537 C 0.05392 0.5997 0.50016 0.0
C1538 C 0.04019 0.57851 0.48981 0.0
C1539 C 0.01704 0.57096 0.50688 0.0
C1540 C 0.99098 0.57326 0.49137 0.0
C1541 C 0.02058 0.54314 0.51834 0.0
C1542 C 0.0192 0.59172 0.52813 0.0
C1543 C 0.04082 0.60793 0.52431 0.0
C1544 C 0.04542 0.6298 0.54048 0.0
C1545 C 0.02705 0.63558 0.56046 0.0
C1546 C 0.00447 0.61958 0.56385 0.0
C1547 C 1.00093 0.59716 0.54791 0.0
H1548 H 0.67245 0.16523 0.78746 0.0
H1549 H 0.6566 0.23832 0.82895 0.0
H1550 H 0.64281 0.25903 0.78735 0.0
H1551 H 0.69885 0.19322 0.73003 0.0
H1552 H 0.68379 0.17047 0.7072 0.0
H1553 H 0.69065 0.16026 0.74051 0.0
H1554 H 0.64171 0.14741 0.74699 0.0
H1555 H 0.63466 0.1573 0.71357 0.0
H1556 H 0.6163 0.17137 0.7405 0.0
H1557 H 0.63507 0.27338 0.74141 0.0
H1558 H 0.62964 0.27955 0.69377 0.0
H1559 H 0.64805 0.19698 0.68088 0.0
C1560 C 0.66552 0.18539 0.78785 0.0
C1561 C 0.66595 0.20025 0.81151 0.0
C1562 C 0.65698 0.22669 0.81108 0.0
C1563 C 0.64894 0.23861 0.78754 0.0
C1564 C 0.6496 0.2238 0.76449 0.0
C1565 C 0.65722 0.19766 0.7644 0.0
C1566 C 0.65661 0.18658 0.73656 0.0
C1567 C 0.68412 0.17708 0.72809 0.0
C1568 C 0.6361 0.16435 0.73427 0.0
C1569 C 0.64816 0.21082 0.72109 0.0
C1570 C 0.64423 0.23199 0.73771 0.0
C1571 C 0.63764 0.25685 0.72819 0.0
C1572 C 0.63469 0.26018 0.70094 0.0
C1573 C 0.63807 0.23877 0.68334 0.0
C1574 C 0.645 0.21375 0.69371 0.0
H1575 H 0.58653 0.87174 0.54193 0.0
H1576 H 0.55434 0.9498 0.55462 0.0
H1577 H 0.53289 0.94813 0.51079 0.0
H1578 H 0.60051 0.87993 0.47273 0.0
H1579 H 0.59158 0.84661 0.46418 0.0
H1580 H 0.6042 0.85388 0.49662 0.0
H1581 H 0.56255 0.83306 0.51767 0.0
H1582 H 0.54987 0.82555 0.48532 0.0
H1583 H 0.53039 0.84472 0.50797 0.0
H1584 H 0.51327 0.93696 0.46691 0.0
H1585 H 0.498 0.91794 0.42477 0.0
H1586 H 0.54495 0.84797 0.43927 0.0
C1587 C 0.57487 0.88839 0.53545 0.0
C1588 C 0.57202 0.91091 0.55153 0.0
C1589 C 0.55692 0.93251 0.54239 0.0
C1590 C 0.54463 0.93168 0.51762 0.0
C1591 C 0.54794 0.90922 0.50217 0.0
C1592 C 0.5628 0.88802 0.51063 0.0
C1593 C 0.56333 0.86633 0.49011 0.0
C1594 C 0.59159 0.86141 0.48033 0.0
C1595 C 0.55078 0.84092 0.50092 0.0
C1596 C 0.54638 0.87859 0.46878 0.0
C1597 C 0.53754 0.90326 0.47628 0.0
C1598 C 0.52038 0.91787 0.46063 0.0
C1599 C 0.51187 0.90692 0.43674 0.0
C1600 C 0.52076 0.88175 0.42858 0.0
C1601 C 0.53846 0.86755 0.4447 0.0
H1602 H 0.8149 0.79289 0.28345 0.0
H1603 H 0.8692 0.85713 0.2987 0.0
H1604 H 0.89061 0.84916 0.25554 0.0
H1605 H 0.85957 0.74978 0.25392 0.0
H1606 H 0.83673 0.7374 0.22961 0.0
H1607 H 0.82463 0.74969 0.26053 0.0
H1608 H 0.79431 0.78239 0.23554 0.0
H1609 H 0.80643 0.77006 0.20452 0.0
H1610 H 0.80847 0.80477 0.21185 0.0
H1611 H 0.90893 0.83072 0.2129 0.0
H1612 H 0.92146 0.80487 0.17363 0.0
H1613 H 0.85326 0.75442 0.18525 0.0
C1614 C 0.83119 0.80538 0.2776 0.0
C1615 C 0.84057 0.82551 0.29443 0.0
C1616 C 0.86168 0.8417 0.28599 0.0
C1617 C 0.87395 0.83727 0.26157 0.0
C1618 C 0.8645 0.8169 0.24564 0.0
C1619 C 0.84334 0.80148 0.25319 0.0
C1620 C 0.83737 0.7804 0.23289 0.0
C1621 C 0.83974 0.75269 0.24498 0.0
C1622 C 0.81002 0.78468 0.22046 0.0
C1623 C 0.85913 0.78567 0.21319 0.0
C1624 C 0.8745 0.80688 0.22079 0.0
C1625 C 0.89679 0.81433 0.20657 0.0
C1626 C 0.90376 0.79948 0.18427 0.0
C1627 C 0.88848 0.77742 0.17634 0.0
C1628 C 0.86551 0.77099 0.19074 0.0
H1629 H 0.02521 0.14291 0.97958 0.0
H1630 H 0.98755 0.09594 0.91873 0.0
H1631 H 0.95679 0.07776 0.95207 0.0
H1632 H 0.0258 0.09654 0.02806 0.0
H1633 H 0.01866 0.11839 0.05514 0.0
H1634 H 0.0347 0.1309 0.02614 0.0
H1635 H 0.99803 0.16593 0.02015 0.0
H1636 H 0.98208 0.1539 0.04952 0.0
H1637 H 0.964 0.15567 0.01893 0.0
H1638 H 0.93475 0.06022 0.99322 0.0
H1639 H 0.92083 0.04716 0.03791 0.0
H1640 H 0.97269 0.10644 0.07152 0.0
C1641 C 0.01009 0.12924 0.97312 0.0
C1642 C 0.00875 0.12071 0.94663 0.0
C1643 C 0.98874 0.10284 0.93891 0.0
C1644 C 0.97128 0.09239 0.95772 0.0
C1645 C 0.97389 0.10042 0.98395 0.0
C1646 C 0.99249 0.11886 0.99152 0.0
C1647 C 0.9924 0.12313 0.02108 0.0
C1648 C 0.01949 0.11685 0.0333 0.0
C1649 C 0.9836 0.15133 0.02781 0.0
C1650 C 0.97182 0.10318 0.02921 0.0
C1651 C 0.96108 0.09054 0.00752 0.0
C1652 C 0.94263 0.07038 0.01027 0.0
C1653 C 0.93482 0.06313 0.03579 0.0
C1654 C 0.94552 0.07589 0.0583 0.0
C1655 C 0.96423 0.09621 0.05479 0.0
H1656 H 0.30745 0.1011 0.29647 0.0
H1657 H 0.33352 0.16743 0.24935 0.0
H1658 H 0.29099 0.18988 0.25751 0.0
H1659 H 0.24143 0.10076 0.27518 0.0
H1660 H 0.22757 0.0923 0.30677 0.0
H1661 H 0.26061 0.08224 0.29871 0.0
H1662 H 0.27831 0.10553 0.34064 0.0
H1663 H 0.24527 0.11559 0.34892 0.0
H1664 H 0.27104 0.1399 0.34594 0.0
H1665 H 0.24453 0.20317 0.26755 0.0
H1666 H 0.19775 0.20761 0.28064 0.0
H1667 H 0.2023 0.13383 0.32325 0.0
C1668 C 0.30436 0.12057 0.2883 0.0
C1669 C 0.3235 0.13245 0.2719 0.0
C1670 C 0.3188 0.15784 0.26147 0.0
C1671 C 0.29482 0.17077 0.26617 0.0
C1672 C 0.276 0.1582 0.28178 0.0
C1673 C 0.28059 0.1338 0.29297 0.0
C1674 C 0.25671 0.12422 0.30822 0.0
C1675 C 0.24595 0.09835 0.29651 0.0
C1676 C 0.26323 0.12114 0.33768 0.0
C1677 C 0.23781 0.14687 0.30354 0.0
C1678 C 0.24937 0.16623 0.2882 0.0
C1679 C 0.23539 0.18831 0.27983 0.0
C1680 C 0.20887 0.19061 0.28718 0.0
C1681 C 0.19666 0.17107 0.3029 0.0
C1682 C 0.21142 0.14913 0.31149 0.0
H1683 H 0.58692 0.57777 0.04202 0.0
H1684 H 0.65761 0.56034 0.99726 0.0
H1685 H 0.66015 0.5168 0.01806 0.0
H1686 H 0.60734 0.53811 0.10323 0.0
H1687 H 0.5738 0.52771 0.1087 0.0
H1688 H 0.58045 0.55965 0.09455 0.0
H1689 H 0.55059 0.54805 0.05467 0.0
H1690 H 0.54405 0.51612 0.06848 0.0
H1691 H 0.55745 0.5188 0.03569 0.0
H1692 H 0.64977 0.47245 0.03546 0.0
H1693 H 0.62893 0.43142 0.05173 0.0
H1694 H 0.56664 0.47688 0.08778 0.0
C1695 C 0.60348 0.56515 0.03738 0.0
C1696 C 0.62225 0.57274 0.01822 0.0
C1697 C 0.64333 0.55542 0.01227 0.0
C1698 C 0.6449 0.53047 0.02395 0.0
C1699 C 0.62556 0.52321 0.042 0.0
C1700 C 0.60556 0.54023 0.04922 0.0
C1701 C 0.586 0.52664 0.06733 0.0
C1702 C 0.58696 0.53875 0.0951 0.0
C1703 C 0.55788 0.52745 0.05583 0.0
C1704 C 0.59702 0.49887 0.06747 0.0
C1705 C 0.62012 0.49746 0.05306 0.0
C1706 C 0.63226 0.47344 0.04757 0.0
C1707 C 0.62034 0.45028 0.05677 0.0
C1708 C 0.59673 0.45132 0.07146 0.0
C1709 C 0.58524 0.4759 0.07737 0.0
H1710 H 0.19223 0.90439 0.79641 0.0
H1711 H 0.17521 0.83613 0.74775 0.0
H1712 H 0.21729 0.81578 0.76196 0.0
H1713 H 0.25982 0.90757 0.78159 0.0
H1714 H 0.26981 0.91807 0.81408 0.0
H1715 H 0.23735 0.92595 0.80204 0.0
H1716 H 0.21648 0.9034 0.84289 0.0
H1717 H 0.24892 0.89558 0.85515 0.0
H1718 H 0.22493 0.86975 0.8505 0.0
H1719 H 0.26216 0.80343 0.78128 0.0
H1720 H 0.30669 0.80162 0.80172 0.0
H1721 H 0.29457 0.87909 0.83534 0.0
C1722 C 0.19706 0.88492 0.78914 0.0
C1723 C 0.18035 0.87172 0.77116 0.0
C1724 C 0.18773 0.84656 0.76159 0.0
C1725 C 0.21154 0.83483 0.76962 0.0
C1726 C 0.22776 0.84859 0.78711 0.0
C1727 C 0.22082 0.87315 0.79665 0.0
C1728 C 0.24234 0.88469 0.81385 0.0
C1729 C 0.25295 0.9106 0.80218 0.0
C1730 C 0.23258 0.88857 0.84228 0.0
C1731 C 0.26265 0.86297 0.81232 0.0
C1732 C 0.25379 0.84209 0.79717 0.0
C1733 C 0.26924 0.81969 0.79317 0.0
C1734 C 0.2944 0.81877 0.80485 0.0
C1735 C 0.30395 0.8403 0.81985 0.0
C1736 C 0.28778 0.86255 0.82366 0.0
H1737 H 0.86724 0.43456 0.55148 0.0
H1738 H 0.91633 0.43845 0.48169 0.0
H1739 H 0.9312 0.48274 0.49414 0.0
H1740 H 0.84564 0.50098 0.54833 0.0
H1741 H 0.84576 0.50637 0.58346 0.0
H1742 H 0.84053 0.47372 0.57055 0.0
H1743 H 0.87981 0.45637 0.59838 0.0
H1744 H 0.88512 0.48899 0.61144 0.0
H1745 H 0.91167 0.47186 0.59527 0.0
H1746 H 0.94032 0.52681 0.51325 0.0
H1747 H 0.94073 0.56946 0.53724 0.0
H1748 H 0.88453 0.5388 0.59337 0.0
C1749 C 0.88148 0.44459 0.53914 0.0
C1750 C 0.89086 0.43289 0.51569 0.0
C1751 C 0.90895 0.4469 0.49971 0.0
C1752 C 0.9176 0.4721 0.50667 0.0
C1753 C 0.90782 0.48324 0.52966 0.0
C1754 C 0.89006 0.4701 0.54565 0.0
C1755 C 0.88149 0.48742 0.56843 0.0
C1756 C 0.85158 0.49241 0.56763 0.0
C1757 C 0.89003 0.47544 0.59495 0.0
C1758 C 0.89688 0.51232 0.56242 0.0
C1759 C 0.91229 0.50928 0.54019 0.0
C1760 C 0.9284 0.52943 0.53073 0.0
C1761 C 0.92869 0.55341 0.54439 0.0
C1762 C 0.9128 0.55702 0.56688 0.0
C1763 C 0.89668 0.53631 0.57602 0.0
H1764 H 0.79047 0.40658 0.74624 0.0
H1765 H 0.83568 0.33438 0.74484 0.0
H1766 H 0.80275 0.31442 0.71461 0.0
H1767 H 0.73166 0.38057 0.75225 0.0
H1768 H 0.71339 0.40257 0.73114 0.0
H1769 H 0.7434 0.41362 0.74637 0.0
H1770 H 0.76324 0.42537 0.70083 0.0
H1771 H 0.73287 0.41511 0.68533 0.0
H1772 H 0.76375 0.40091 0.67505 0.0
H1773 H 0.75987 0.29959 0.69353 0.0
H1774 H 0.71355 0.29274 0.67972 0.0
H1775 H 0.69757 0.3755 0.6938 0.0
C1776 C 0.79405 0.38705 0.7384 0.0
C1777 C 0.8156 0.37205 0.74738 0.0
C1778 C 0.81954 0.3463 0.73754 0.0
C1779 C 0.80084 0.33481 0.72053 0.0
C1780 C 0.77882 0.34965 0.71321 0.0
C1781 C 0.77582 0.37555 0.72122 0.0
C1782 C 0.74925 0.38645 0.71315 0.0
C1783 C 0.73353 0.39635 0.73716 0.0
C1784 C 0.75248 0.40825 0.69235 0.0
C1785 C 0.73691 0.36209 0.70127 0.0
C1786 C 0.75432 0.34117 0.70092 0.0
C1787 C 0.74633 0.31605 0.69302 0.0
C1788 C 0.71994 0.31232 0.68528 0.0
C1789 C 0.70179 0.33355 0.68575 0.0
C1790 C 0.71072 0.35876 0.69345 0.0
H1791 H 0.43986 0.95313 0.46631 0.0
H1792 H 0.38644 0.95698 0.39969 0.0
H1793 H 0.37278 0.00195 0.41348 0.0
H1794 H 0.39943 0.98081 0.51204 0.0
H1795 H 0.42459 0.99905 0.52934 0.0
H1796 H 0.43315 0.96955 0.51181 0.0
H1797 H 0.46797 0.99515 0.48532 0.0
H1798 H 0.45959 0.02557 0.50167 0.0
H1799 H 0.45841 0.02358 0.46626 0.0
H1800 H 0.36116 0.04439 0.43856 0.0
H1801 H 0.35211 0.07848 0.47264 0.0
H1802 H 0.41342 0.04535 0.52199 0.0
C1803 C 0.42545 0.96352 0.45448 0.0
C1804 C 0.41391 0.9516 0.43214 0.0
C1805 C 0.39548 0.96593 0.41686 0.0
C1806 C 0.3877 0.99143 0.42454 0.0
C1807 C 0.39901 0.00237 0.4472 0.0
C1808 C 0.41772 0.98883 0.46174 0.0
C1809 C 0.42563 0.00371 0.4863 0.0
C1810 C 0.42037 0.98731 0.51133 0.0
C1811 C 0.45462 0.0125 0.48479 0.0
C1812 C 0.4073 0.02701 0.48428 0.0
C1813 C 0.39251 0.02644 0.46133 0.0
C1814 C 0.373 0.04526 0.45633 0.0
C1815 C 0.36804 0.0646 0.47564 0.0
C1816 C 0.38228 0.06445 0.49963 0.0
C1817 C 0.40252 0.04592 0.50358 0.0
H1818 H 0.78695 0.68926 0.21805 0.0
H1819 H 0.79191 0.64819 0.14307 0.0
H1820 H 0.74861 0.62779 0.15139 0.0
H1821 H 0.75836 0.63624 0.25402 0.0
H1822 H 0.73743 0.65702 0.27377 0.0
H1823 H 0.76814 0.66965 0.26124 0.0
H1824 H 0.74324 0.70832 0.23904 0.0
H1825 H 0.71245 0.69576 0.25154 0.0
H1826 H 0.71643 0.70139 0.21666 0.0
H1827 H 0.70603 0.60975 0.16899 0.0
H1828 H 0.66729 0.59538 0.19453 0.0
H1829 H 0.68963 0.64864 0.25781 0.0
C1830 C 0.77904 0.67593 0.20337 0.0
C1831 C 0.793 0.6704 0.17986 0.0
C1832 C 0.7816 0.65308 0.16106 0.0
C1833 C 0.757 0.64128 0.16566 0.0
C1834 C 0.74394 0.64704 0.18911 0.0
C1835 C 0.75452 0.664 0.20763 0.0
C1836 C 0.73678 0.66628 0.23157 0.0
C1837 C 0.75103 0.65672 0.25662 0.0
C1838 C 0.72662 0.69462 0.23488 0.0
C1839 C 0.71473 0.64767 0.22372 0.0
C1840 C 0.71922 0.63683 0.19914 0.0
C1841 C 0.7022 0.61826 0.18817 0.0
C1842 C 0.68021 0.61022 0.20287 0.0
C1843 C 0.67537 0.62074 0.2283 0.0
C1844 C 0.69269 0.64011 0.23853 0.0
H1845 H 0.11929 0.97333 0.02932 0.0
H1846 H 0.12913 0.9132 0.96939 0.0
H1847 H 0.1157 0.94577 0.93506 0.0
H1848 H 0.06264 0.00637 0.9992 0.0
H1849 H 0.07393 0.03821 0.01022 0.0
H1850 H 0.08137 0.0092 0.02931 0.0
H1851 H 0.13126 0.02052 0.02712 0.0
H1852 H 0.12404 0.04941 0.00797 0.0
H1853 H 0.14665 0.02508 0.99542 0.0
H1854 H 0.10344 0.9872 0.90745 0.0
H1855 H 0.09597 0.03238 0.88979 0.0
H1856 H 0.09696 0.06369 0.96905 0.0
C1857 C 0.11857 0.96679 0.00899 0.0
C1858 C 0.12551 0.94086 0.0019 0.0
C1859 C 0.12383 0.93304 0.97516 0.0
C1860 C 0.11622 0.95139 0.95564 0.0
C1861 C 0.11004 0.97713 0.96346 0.0
C1862 C 0.11104 0.98458 0.98963 0.0
C1863 C 0.10498 0.01342 0.99339 0.0
C1864 C 0.0792 0.017 0.00895 0.0
C1865 C 0.12812 0.02794 0.00675 0.0
C1866 C 0.10165 0.02168 0.96508 0.0
C1867 C 0.10388 1.00049 0.94799 0.0
C1868 C 0.10162 0.00378 0.92074 0.0
C1869 C 0.09741 0.02936 0.91088 0.0
C1870 C 0.09623 0.05116 0.92823 0.0
C1871 C 0.09806 0.04719 0.95556 0.0
H1872 H 0.28584 0.21433 0.19294 0.0
H1873 H 0.34859 0.19697 0.13763 0.0
H1874 H 0.33976 0.23884 0.11444 0.0
H1875 H 0.2412 0.24111 0.14759 0.0
H1876 H 0.22906 0.26652 0.16922 0.0
H1877 H 0.24197 0.23645 0.18284 0.0
H1878 H 0.27521 0.26329 0.21102 0.0
H1879 H 0.26239 0.29349 0.19739 0.0
H1880 H 0.29711 0.28628 0.19508 0.0
H1881 H 0.32125 0.27995 0.09474 0.0
H1882 H 0.29458 0.31781 0.07998 0.0
H1883 H 0.24458 0.30936 0.14885 0.0
C1884 C 0.29776 0.21942 0.17601 0.0
C1885 C 0.31786 0.20241 0.16702 0.0
C1886 C 0.33328 0.20985 0.14499 0.0
C1887 C 0.32839 0.23356 0.13169 0.0
C1888 C 0.30827 0.24978 0.14093 0.0
C1889 C 0.29332 0.24314 0.1627 0.0
C1890 C 0.27218 0.26355 0.16793 0.0
C1891 C 0.24447 0.25116 0.16681 0.0
C1892 C 0.27702 0.27748 0.19443 0.0
C1893 C 0.27684 0.28208 0.14501 0.0
C1894 C 0.29795 0.27393 0.12986 0.0
C1895 C 0.30494 0.28678 0.10665 0.0
C1896 C 0.28964 0.30823 0.09841 0.0
C1897 C 0.26761 0.31661 0.11334 0.0
C1898 C 0.26156 0.3037 0.13725 0.0
H1899 H 0.82239 0.29941 0.88149 0.0
H1900 H 0.81894 0.29032 0.79666 0.0
H1901 H 0.80567 0.24346 0.8023 0.0
H1902 H 0.84757 0.23309 0.89635 0.0
H1903 H 0.82827 0.2308 0.92608 0.0
H1904 H 0.8398 0.26244 0.91478 0.0
H1905 H 0.79174 0.2801 0.9148 0.0
H1906 H 0.78016 0.24864 0.92623 0.0
H1907 H 0.76674 0.26264 0.89643 0.0
H1908 H 0.78664 0.1994 0.81827 0.0
H1909 H 0.76569 0.16257 0.84255 0.0
H1910 H 0.78505 0.20088 0.91659 0.0
C1911 C 0.81898 0.2875 0.8641 0.0
C1912 C 0.82131 0.2984 0.83868 0.0
C1913 C 0.81719 0.28218 0.81632 0.0
C1914 C 0.80971 0.25563 0.81937 0.0
C1915 C 0.80707 0.24562 0.84489 0.0
C1916 C 0.81196 0.26109 0.86681 0.0
C1917 C 0.80664 0.24642 0.89212 0.0
C1918 C 0.83209 0.24298 0.90828 0.0
C1919 C 0.78504 0.26027 0.90833 0.0
C1920 C 0.7971 0.22043 0.88118 0.0
C1921 C 0.79749 0.22017 0.85392 0.0
C1922 C 0.78687 0.19917 0.83961 0.0
C1923 C 0.77504 0.17832 0.85355 0.0
C1924 C 0.77412 0.1786 0.8815 0.0
C1925 C 0.78604 0.19962 0.8953 0.0
H1926 H 0.43917 0.04059 0.57364 0.0
H1927 H 0.46504 0.11479 0.60656 0.0
H1928 H 0.50951 0.09592 0.61494 0.0
H1929 H 0.46894 1.00079 0.61964 0.0
H1930 H 0.47815 0.97474 0.59731 0.0
H1931 H 0.45035 0.99536 0.58975 0.0
H1932 H 0.47113 0.00707 0.54497 0.0
H1933 H 0.49941 0.98686 0.55214 0.0
H1934 H 0.50379 0.02108 0.54366 0.0
H1935 H 0.54969 0.067 0.62387 0.0
H1936 H 0.58094 0.03061 0.63376 0.0
H1937 H 0.52756 0.97531 0.59615 0.0
C1938 C 0.45459 0.05291 0.58186 0.0
C1939 C 0.44922 0.07911 0.58916 0.0
C1940 C 0.46928 0.09475 0.60059 0.0
C1941 C 0.49446 0.08419 0.60534 0.0
C1942 C 0.49912 0.05795 0.5985 0.0
C1943 C 0.47972 0.04258 0.58683 0.0
C1944 C 0.48877 0.01435 0.58367 0.0
C1945 C 0.47047 0.9952 0.59849 0.0
C1946 C 0.49092 0.00692 0.55436 0.0
C1947 C 0.51573 0.01593 0.59642 0.0
C1948 C 0.52172 0.04129 0.60432 0.0
C1949 C 0.54529 0.04712 0.61749 0.0
C1950 C 0.56293 0.0264 0.62302 0.0
C1951 C 0.55656 1.00021 0.61585 0.0
C1952 C 0.53288 0.99515 0.60201 0.0
H1953 H 0.66386 0.72336 0.32292 0.0
H1954 H 0.71178 0.67707 0.37616 0.0
H1955 H 0.7285 0.71784 0.39709 0.0
H1956 H 0.71038 0.76854 0.30858 0.0
H1957 H 0.68941 0.79716 0.30688 0.0
H1958 H 0.67583 0.76503 0.30078 0.0
H1959 H 0.64117 0.77231 0.33752 0.0
H1960 H 0.6545 0.80471 0.34357 0.0
H1961 H 0.65182 0.78132 0.37019 0.0
H1962 H 0.74412 0.76256 0.40821 0.0
H1963 H 0.76163 0.80748 0.40582 0.0
H1964 H 0.70669 0.82568 0.34262 0.0
C1965 C 0.67701 0.72204 0.33972 0.0
C1966 C 0.68622 0.69733 0.34848 0.0
C1967 C 0.70432 0.69597 0.36965 0.0
C1968 C 0.71375 0.71897 0.38167 0.0
C1969 C 0.70496 0.74319 0.37214 0.0
C1970 C 0.68703 0.74494 0.35159 0.0
C1971 C 0.68399 0.77327 0.34248 0.0
C1972 C 0.6903 0.77615 0.31294 0.0
C1973 C 0.65622 0.78352 0.34882 0.0
C1974 C 0.70447 0.78676 0.35966 0.0
C1975 C 0.71538 0.76921 0.37743 0.0
C1976 C 0.73548 0.77657 0.39462 0.0
C1977 C 0.7453 0.8023 0.3931 0.0
C1978 C 0.73563 0.82026 0.37395 0.0
C1979 C 0.71441 0.8125 0.35754 0.0
H1980 H 0.94063 0.00399 0.08809 0.0
H1981 H 0.90551 0.93938 0.13113 0.0
H1982 H 0.94199 0.91022 0.11732 0.0
H1983 H 0.97502 0.96289 0.03421 0.0
H1984 H 0.00332 0.98438 0.03542 0.0
H1985 H 0.97079 0.99745 0.04127 0.0
H1986 H 0.98689 0.01629 0.08584 0.0
H1987 H 0.01918 0.00282 0.08063 0.0
H1988 H 1.00109 0.99439 0.11002 0.0
H1989 H 0.98526 0.89048 0.10539 0.0
H1990 H 0.03287 0.88229 0.09809 0.0
H1991 H 0.04209 0.9613 0.06742 0.0
C1992 C 0.93987 0.98324 0.09306 0.0
C1993 C 0.91981 0.97339 0.10954 0.0
C1994 C 0.9202 0.94676 0.11751 0.0
C1995 C 0.94091 0.93017 0.10986 0.0
C1996 C 0.96118 0.94075 0.09459 0.0
C1997 C 0.96079 0.9667 0.08615 0.0
C1998 C 0.98699 0.9746 0.07414 0.0
C1999 C 0.98384 0.98015 0.0445 0.0
C2000 C 0.99924 0.99841 0.08854 0.0
C2001 C 0.0027 0.94968 0.07878 0.0
C2002 C 0.98716 0.93005 0.08961 0.0
C2003 C 0.9975 0.90555 0.09656 0.0
C2004 C 0.02445 0.90108 0.09247 0.0
C2005 C 0.04077 0.92125 0.08238 0.0
C2006 C 0.02977 0.94572 0.07523 0.0
H2007 H 0.26717 0.72252 0.60244 0.0
H2008 H 0.23319 0.6606 0.65037 0.0
H2009 H 0.19726 0.69097 0.66379 0.0
H2010 H 0.26083 0.7716 0.64511 0.0
H2011 H 0.25259 0.79714 0.6218 0.0
H2012 H 0.27125 0.7691 0.61121 0.0
H2013 H 0.23648 0.75916 0.57495 0.0
H2014 H 0.2177 0.78746 0.58534 0.0
H2015 H 0.20229 0.75547 0.58389 0.0
H2016 H 0.16991 0.73074 0.67775 0.0
H2017 H 0.15511 0.77537 0.69137 0.0
H2018 H 0.20846 0.81047 0.63505 0.0
C2019 C 0.25172 0.7151 0.61516 0.0
C2020 C 0.25285 0.68934 0.62545 0.0
C2021 C 0.23243 0.68026 0.64209 0.0
C2022 C 0.21198 0.69737 0.64976 0.0
C2023 C 0.21209 0.72317 0.64008 0.0
C2024 C 0.2313 0.73178 0.62277 0.0
C2025 C 0.22915 0.76099 0.61745 0.0
C2026 C 0.25497 0.77553 0.62433 0.0
C2027 C 0.22091 0.76606 0.5887 0.0
C2028 C 0.20718 0.76804 0.63617 0.0
C2029 C 0.19682 0.74594 0.64837 0.0
C2030 C 0.17754 0.74805 0.66789 0.0
C2031 C 0.16923 0.77336 0.67551 0.0
C2032 C 0.18075 0.79602 0.66408 0.0
C2033 C 0.19937 0.79326 0.64379 0.0
H2034 H 0.06689 0.45335 0.35065 0.0
H2035 H 0.08712 0.50475 0.41588 0.0
H2036 H 0.04507 0.49302 0.43798 0.0
H2037 H 0.99931 0.46822 0.34809 0.0
H2038 H 0.98896 0.43514 0.34021 0.0
H2039 H 0.02124 0.44636 0.33069 0.0
H2040 H 0.04241 0.40704 0.35562 0.0
H2041 H 0.01014 0.39569 0.36526 0.0
H2042 H 0.03491 0.40204 0.39 0.0
H2043 H 0.99993 0.47547 0.45243 0.0
H2044 H 0.95506 0.45597 0.45632 0.0
H2045 H 0.96472 0.41775 0.38077 0.0
C2046 C 0.06261 0.46188 0.36975 0.0
C2047 C 0.07997 0.4802 0.38149 0.0
C2048 C 0.07372 0.49106 0.4064 0.0
C2049 C 0.05005 0.48431 0.41916 0.0
C2050 C 0.03309 0.46645 0.40679 0.0
C2051 C 0.03915 0.4554 0.38262 0.0
C2052 C 0.01727 0.43761 0.37284 0.0
C2053 C 0.00603 0.44744 0.3464 0.0
C2054 C 0.02676 0.4089 0.37082 0.0
C2055 C 0.99758 0.44084 0.39489 0.0
C2056 C 0.00717 0.4571 0.41462 0.0
C2057 C 0.99231 0.46271 0.43708 0.0
C2058 C 0.96697 0.45159 0.4392 0.0
C2059 C 0.95673 0.43562 0.41873 0.0
C2060 C 0.97227 0.4301 0.39649 0.0
H2061 H 0.5406 0.58681 0.90681 0.0
H2062 H 0.57111 0.51529 0.94258 0.0
H2063 H 0.52846 0.49352 0.93569 0.0
H2064 H 0.4731 0.58054 0.9338 0.0
H2065 H 0.45745 0.59281 0.90431 0.0
H2066 H 0.49012 0.60386 0.91309 0.0
H2067 H 0.50736 0.589 0.86749 0.0
H2068 H 0.47482 0.57781 0.85856 0.0
H2069 H 0.50234 0.55541 0.857 0.0
H2070 H 0.48557 0.47793 0.92173 0.0
H2071 H 0.44205 0.46928 0.90364 0.0
H2072 H 0.43513 0.55086 0.87896 0.0
C2073 C 0.53808 0.5667 0.91347 0.0
C2074 C 0.55937 0.5526 0.92489 0.0
C2075 C 0.55539 0.52628 0.93323 0.0
C2076 C 0.53113 0.51379 0.92962 0.0
C2077 C 0.51082 0.52791 0.91782 0.0
C2078 C 0.51374 0.5538 0.91002 0.0
C2079 C 0.48851 0.5638 0.89708 0.0
C2080 C 0.47659 0.58661 0.91303 0.0
C2081 C 0.49357 0.57198 0.86833 0.0
C2082 C 0.47129 0.53924 0.89855 0.0
C2083 C 0.48484 0.51895 0.91063 0.0
C2084 C 0.4744 0.49382 0.9129 0.0
C2085 C 0.44932 0.48914 0.90269 0.0
C2086 C 0.43436 0.50946 0.89073 0.0
C2087 C 0.44564 0.53499 0.88861 0.0
H2088 H 0.94429 0.1328 0.19167 0.0
H2089 H 0.88525 0.10784 0.24822 0.0
H2090 H 0.91331 0.12379 0.28461 0.0
H2091 H 0.99913 0.11447 0.22629 0.0
H2092 H 0.01954 0.1425 0.21846 0.0
H2093 H 0.99358 0.13271 0.19627 0.0
H2094 H 0.97301 0.17933 0.19876 0.0
H2095 H 0.99928 0.18949 0.22055 0.0
H2096 H 0.9654 0.19338 0.23049 0.0
H2097 H 0.9504 0.13555 0.315 0.0
H2098 H 0.99186 0.14887 0.33736 0.0
H2099 H 0.02616 0.16896 0.26184 0.0
C2100 C 0.93678 0.13175 0.21161 0.0
C2101 C 0.91253 0.11899 0.21704 0.0
C2102 C 0.90376 0.11742 0.24355 0.0
C2103 C 0.91959 0.12639 0.26439 0.0
C2104 C 0.94398 0.13753 0.25849 0.0
C2105 C 0.95226 0.14098 0.23275 0.0
C2106 C 0.97985 0.1527 0.23204 0.0
C2107 C 0.99915 0.1345 0.2174 0.0
C2108 C 0.97935 0.18037 0.21973 0.0
C2109 C 0.98618 0.15403 0.26129 0.0
C2110 C 0.96514 0.14524 0.27619 0.0
C2111 C 0.96679 0.14302 0.30358 0.0
C2112 C 0.99039 0.15041 0.3161 0.0
C2113 C 0.01193 0.15995 0.30126 0.0
C2114 C 0.00979 0.16185 0.27354 0.0
H2115 H 0.60262 0.29798 0.03184 0.0
H2116 H 0.60199 0.25314 0.10447 0.0
H2117 H 0.62455 0.21608 0.08186 0.0
H2118 H 0.58886 0.2429 0.98899 0.0
H2119 H 0.60953 0.25494 0.96274 0.0
H2120 H 0.59402 0.27783 0.98496 0.0
H2121 H 0.63969 0.29798 0.99627 0.0
H2122 H 0.65535 0.27511 0.97414 0.0
H2123 H 0.66569 0.27684 0.00813 0.0
H2124 H 0.64828 0.18463 0.05119 0.0
H2125 H 0.66835 0.15989 0.01417 0.0
H2126 H 0.65142 0.22505 0.9615 0.0
C2127 C 0.60734 0.28031 0.04286 0.0
C2128 C 0.60094 0.27816 0.06976 0.0
C2129 C 0.60698 0.25488 0.08378 0.0
C2130 C 0.61976 0.23388 0.07114 0.0
C2131 C 0.62599 0.23658 0.04449 0.0
C2132 C 0.61972 0.25911 0.03047 0.0
C2133 C 0.6278 0.25683 0.00189 0.0
C2134 C 0.60361 0.2582 0.98357 0.0
C2135 C 0.64836 0.27794 0.9947 0.0
C2136 C 0.63979 0.22958 0.00201 0.0
C2137 C 0.63876 0.21825 0.02677 0.0
C2138 C 0.64909 0.19327 0.03169 0.0
C2139 C 0.66055 0.17944 0.01066 0.0
C2140 C 0.66127 0.19059 0.98508 0.0
C2141 C 0.65084 0.21599 0.98084 0.0
H2142 H 0.56397 0.92199 0.75545 0.0
H2143 H 0.56909 0.86307 0.69365 0.0
H2144 H 0.54032 0.83348 0.71922 0.0
H2145 H 0.5643 0.87453 0.81058 0.0
H2146 H 0.5414 0.89345 0.83002 0.0
H2147 H 0.56326 0.9099 0.80738 0.0
H2148 H 0.52313 0.93185 0.78458 0.0
H2149 H 0.50117 0.91539 0.80707 0.0
H2150 H 0.49681 0.91145 0.772 0.0
H2151 H 0.50786 0.81248 0.74848 0.0
H2152 H 0.47589 0.79899 0.78167 0.0
H2153 H 0.49515 0.86875 0.82808 0.0
C2154 C 0.55917 0.90274 0.74754 0.0
C2155 C 0.56885 0.89465 0.7227 0.0
C2156 C 0.56217 0.86942 0.71282 0.0
C2157 C 0.54577 0.85254 0.72713 0.0
C2158 C 0.53648 0.86104 0.75146 0.0
C2159 C 0.54314 0.88533 0.76185 0.0
C2160 C 0.53019 0.88942 0.7885 0.0
C2161 C 0.55103 0.89197 0.81042 0.0
C2162 C 0.51173 0.91345 0.78799 0.0
C2163 C 0.51477 0.86388 0.79101 0.0
C2164 C 0.51866 0.84797 0.76932 0.0
C2165 C 0.50518 0.82437 0.76599 0.0
C2166 C 0.48716 0.81671 0.78536 0.0
C2167 C 0.48303 0.83225 0.80832 0.0
C2168 C 0.49741 0.85615 0.81105 0.0
H2169 H 0.88871 0.74872 0.57812 0.0
H2170 H 0.94471 0.70658 0.52896 0.0
H2171 H 0.92957 0.73125 0.49028 0.0
H2172 H 0.83621 0.75008 0.53026 0.0
H2173 H 0.8252 0.7828 0.53855 0.0
H2174 H 0.84085 0.76259 0.56323 0.0
H2175 H 0.87553 0.79916 0.57166 0.0
H2176 H 0.85992 0.81954 0.54709 0.0
H2177 H 0.8945 0.81182 0.54441 0.0
H2178 H 0.9084 0.75858 0.45683 0.0
H2179 H 0.88234 0.78899 0.42958 0.0
H2180 H 0.83937 0.8145 0.49906 0.0
C2181 C 0.89779 0.74481 0.55922 0.0
C2182 C 0.91826 0.72603 0.55672 0.0
C2183 C 0.92956 0.72137 0.5316 0.0
C2184 C 0.92094 0.73511 0.50939 0.0
C2185 C 0.90088 0.75342 0.51249 0.0
C2186 C 0.88941 0.75847 0.53665 0.0
C2187 C 0.86799 0.77921 0.53406 0.0
C2188 C 0.84096 0.76799 0.542 0.0
C2189 C 0.87491 0.80389 0.55027 0.0
C2190 C 0.86925 0.78474 0.50466 0.0
C2191 C 0.88842 0.76957 0.49276 0.0
C2192 C 0.89346 0.7708 0.46587 0.0
C2193 C 0.87866 0.78825 0.4506 0.0
C2194 C 0.8591 0.80437 0.46223 0.0
C2195 C 0.85418 0.8024 0.48963 0.0
H2196 H 0.43769 0.41376 0.74658 0.0
H2197 H 0.46141 0.38222 0.82246 0.0
H2198 H 0.49218 0.35175 0.80041 0.0
H2199 H 0.4416 0.35223 0.70934 0.0
H2200 H 0.45527 0.36747 0.68031 0.0
H2201 H 0.43401 0.3861 0.70177 0.0
H2202 H 0.47029 0.42171 0.70694 0.0
H2203 H 0.49166 0.40318 0.68553 0.0
H2204 H 0.50268 0.41221 0.71812 0.0
H2205 H 0.52153 0.32645 0.77114 0.0
H2206 H 0.54872 0.30749 0.73612 0.0
H2207 H 0.50595 0.35385 0.67791 0.0
C2208 C 0.44923 0.40019 0.75836 0.0
C2209 C 0.44727 0.40016 0.78617 0.0
C2210 C 0.4628 0.38247 0.80114 0.0
C2211 C 0.48023 0.36509 0.7888 0.0
C2212 C 0.48202 0.36569 0.76143 0.0
C2213 C 0.46706 0.38276 0.7463 0.0
C2214 C 0.47388 0.37992 0.71727 0.0
C2215 C 0.44975 0.37089 0.70123 0.0
C2216 C 0.48531 0.40579 0.70633 0.0
C2217 C 0.49481 0.35853 0.71858 0.0
C2218 C 0.49911 0.35072 0.74429 0.0
C2219 C 0.5181 0.33207 0.75084 0.0
C2220 C 0.5333 0.32116 0.73061 0.0
C2221 C 0.52941 0.32863 0.7039 0.0
C2222 C 0.50965 0.34756 0.69797 0.0
H2223 H 0.33357 0.71698 0.52373 0.0
H2224 H 0.37718 0.64616 0.50361 0.0
H2225 H 0.40155 0.67099 0.46972 0.0
H2226 H 0.32807 0.74199 0.45565 0.0
H2227 H 0.33159 0.77582 0.46593 0.0
H2228 H 0.31662 0.7521 0.48773 0.0
H2229 H 0.35062 0.76406 0.52404 0.0
H2230 H 0.3658 0.78766 0.50235 0.0
H2231 H 0.38536 0.76181 0.51689 0.0
H2232 H 0.42406 0.70441 0.44094 0.0
H2233 H 0.44105 0.74367 0.41734 0.0
H2234 H 0.38075 0.79179 0.45379 0.0
C2235 C 0.34776 0.70644 0.51182 0.0
C2236 C 0.3535 0.67956 0.51658 0.0
C2237 C 0.3727 0.66682 0.50079 0.0
C2238 C 0.38653 0.68071 0.4813 0.0
C2239 C 0.3807 0.70725 0.47751 0.0
C2240 C 0.36153 0.71992 0.49208 0.0
C2241 C 0.35957 0.74876 0.48461 0.0
C2242 C 0.33234 0.75503 0.47277 0.0
C2243 C 0.36571 0.76662 0.50839 0.0
C2244 C 0.38101 0.75047 0.46393 0.0
C2245 C 0.393 0.7263 0.46016 0.0
C2246 C 0.41453 0.72332 0.44337 0.0
C2247 C 0.42408 0.74564 0.43013 0.0
C2248 C 0.4119 0.77045 0.43358 0.0
C2249 C 0.38998 0.77283 0.45049 0.0
H2250 H 0.98402 0.6722 0.20769 0.0
H2251 H 0.95049 0.60417 0.1675 0.0
H2252 H 0.97947 0.57507 0.193 0.0
H2253 H 0.05234 0.64511 0.2079 0.0
H2254 H 0.05984 0.65989 0.23936 0.0
H2255 H 0.03686 0.67566 0.21727 0.0
H2256 H 0.00165 0.67566 0.25419 0.0
H2257 H 0.02433 0.65959 0.27627 0.0
H2258 H 0.99256 0.64498 0.26966 0.0
H2259 H 0.00765 0.55302 0.22674 0.0
H2260 H 0.0373 0.53956 0.26241 0.0
H2261 H 0.05852 0.62178 0.27532 0.0
C2262 C 0.98307 0.65128 0.20368 0.0
C2263 C 0.9642 0.64067 0.18594 0.0
C2264 C 0.96382 0.61299 0.18166 0.0
C2265 C 0.9805 0.59619 0.19583 0.0
C2266 C 0.99819 0.60727 0.21365 0.0
C2267 C 1.00014 0.63419 0.21711 0.0
C2268 C 0.02108 0.64091 0.23743 0.0
C2269 C 0.04389 0.6563 0.22473 0.0
C2270 C 0.00918 0.65618 0.26076 0.0
C2271 C 0.0297 0.61348 0.24559 0.0
C2272 C 0.01618 0.59441 0.23167 0.0
C2273 C 0.01903 0.56773 0.23724 0.0
C2274 C 0.03624 0.56027 0.25756 0.0
C2275 C 0.05096 0.57936 0.2719 0.0
C2276 C 0.04767 0.60638 0.26533 0.0
H2277 H 0.15271 0.28064 0.03618 0.0
H2278 H 0.14768 0.35496 0.99452 0.0
H2279 H 0.12842 0.33202 0.95574 0.0
H2280 H 0.17181 0.24221 0.97883 0.0
H2281 H 0.15372 0.21342 0.98914 0.0
H2282 H 0.16684 0.23582 0.01343 0.0
H2283 H 0.12021 0.2415 0.03351 0.0
H2284 H 0.10698 0.21904 0.00938 0.0
H2285 H 0.09328 0.25165 0.01258 0.0
H2286 H 0.10848 0.30069 0.9221 0.0
H2287 H 0.09026 0.2633 0.89609 0.0
H2288 H 0.11012 0.2097 0.95948 0.0
C2289 C 0.1474 0.29199 0.01888 0.0
C2290 C 0.15132 0.31946 0.01817 0.0
C2291 C 0.14465 0.33384 0.99523 0.0
C2292 C 0.13377 0.32099 0.97321 0.0
C2293 C 0.13018 0.29377 0.97445 0.0
C2294 C 0.137 0.27942 0.99663 0.0
C2295 C 0.1317 0.25034 0.99282 0.0
C2296 C 0.15756 0.23452 0.9936 0.0
C2297 C 0.11185 0.24004 0.01329 0.0
C2298 C 0.12001 0.25061 0.96537 0.0
C2299 C 0.11945 0.27578 0.95496 0.0
C2300 C 0.10904 0.28088 0.92996 0.0
C2301 C 0.09881 0.25965 0.91534 0.0
C2302 C 0.09916 0.2339 0.92588 0.0
C2303 C 0.10996 0.22932 0.95107 0.0
H2304 H 0.23459 0.95494 0.08377 0.0
H2305 H 0.21532 0.90733 0.15262 0.0
H2306 H 0.24282 0.93607 0.17989 0.0
H2307 H 0.30465 0.96322 0.10388 0.0
H2308 H 0.30645 0.99585 0.08998 0.0
H2309 H 0.28488 0.97155 0.0755 0.0
H2310 H 0.24549 0.00353 0.08081 0.0
H2311 H 0.26681 0.02775 0.09567 0.0
H2312 H 0.23788 0.01656 0.11299 0.0
H2313 H 0.2677 0.97305 0.20076 0.0
H2314 H 0.29436 0.01115 0.21302 0.0
H2315 H 0.30552 0.02952 0.12981 0.0
C2316 C 0.23644 0.94985 0.10438 0.0
C2317 C 0.22167 0.92891 0.11577 0.0
C2318 C 0.22505 0.92372 0.14313 0.0
C2319 C 0.24105 0.93981 0.15895 0.0
C2320 C 0.25454 0.96052 0.14714 0.0
C2321 C 0.25315 0.96509 0.12038 0.0
C2322 C 0.27051 0.98823 0.11262 0.0
C2323 C 0.29296 0.97917 0.09442 0.0
C2324 C 0.25418 0.01031 0.09977 0.0
C2325 C 0.281 0.99652 0.13944 0.0
C2326 C 0.2713 0.98036 0.15903 0.0
C2327 C 0.27625 0.9853 0.18553 0.0
C2328 C 0.29185 0.00708 0.19226 0.0
C2329 C 0.30322 0.02354 0.17259 0.0
C2330 C 0.2975 0.01785 0.14571 0.0
H2331 H 0.79052 0.48549 0.82721 0.0
H2332 H 0.85618 0.48887 0.88245 0.0
H2333 H 0.83227 0.52152 0.90883 0.0
H2334 H 0.77667 0.55808 0.83215 0.0
H2335 H 0.74172 0.55305 0.82805 0.0
H2336 H 0.76477 0.53102 0.8124 0.0
H2337 H 0.74215 0.49131 0.83517 0.0
H2338 H 0.71923 0.51314 0.85105 0.0
H2339 H 0.73903 0.49099 0.8706 0.0
H2340 H 0.80008 0.55128 0.93121 0.0
H2341 H 0.76262 0.57775 0.94681 0.0
H2342 H 0.71825 0.55609 0.8766 0.0
C2343 C 0.80029 0.49352 0.84443 0.0
C2344 C 0.82515 0.48392 0.85285 0.0
C2345 C 0.83685 0.49502 0.87581 0.0
C2346 C 0.82355 0.51392 0.89087 0.0
C2347 C 0.79883 0.52226 0.88242 0.0
C2348 C 0.78752 0.51286 0.85946 0.0
C2349 C 0.76059 0.52505 0.85497 0.0
C2350 C 0.76096 0.54285 0.83043 0.0
C2351 C 0.73898 0.50385 0.85285 0.0
C2352 C 0.75783 0.54132 0.8799 0.0
C2353 C 0.78036 0.53985 0.89517 0.0
C2354 C 0.78238 0.55274 0.91933 0.0
C2355 C 0.7608 0.56753 0.92816 0.0
C2356 C 0.73721 0.56904 0.91311 0.0
C2357 C 0.73599 0.55583 0.88851 0.0
H2358 H 0.24838 0.05655 0.57744 0.0
H2359 H 0.30768 0.06792 0.63833 0.0
H2360 H 0.28523 0.03537 0.66637 0.0
H2361 H 0.19287 0.04832 0.62252 0.0
H2362 H 0.17701 0.02352 0.60256 0.0
H2363 H 0.19727 0.04835 0.58725 0.0
H2364 H 0.22556 0.01187 0.5655 0.0
H2365 H 0.20547 0.98694 0.58084 0.0
H2366 H 0.24067 0.98701 0.58593 0.0
H2367 H 0.25807 0.00084 0.68716 0.0
H2368 H 0.22616 0.96688 0.70063 0.0
H2369 H 0.18331 0.9777 0.62716 0.0
C2370 C 0.2565 0.05223 0.59673 0.0
C2371 C 0.2796 0.06501 0.60584 0.0
C2372 C 0.28969 0.05883 0.63118 0.0
C2373 C 0.27721 0.04021 0.64719 0.0
C2374 C 0.25458 0.02796 0.63766 0.0
C2375 C 0.24412 0.03376 0.61315 0.0
C2376 C 0.21947 0.01758 0.60789 0.0
C2377 C 0.19522 0.03551 0.60488 0.0
C2378 C 0.22302 0.9998 0.5836 0.0
C2379 C 0.21807 0.00153 0.63309 0.0
C2380 C 0.23853 0.00796 0.64994 0.0
C2381 C 0.24177 0.99578 0.67429 0.0
C2382 C 0.22345 0.97662 0.68182 0.0
C2383 C 0.20206 0.96983 0.66511 0.0
C2384 C 0.19949 0.98239 0.64032 0.0
H2385 H 0.71526 0.54633 0.37421 0.0
H2386 H 0.66975 0.49342 0.32453 0.0
H2387 H 0.69357 0.45538 0.34351 0.0
H2388 H 0.77558 0.51412 0.3687 0.0
H2389 H 0.78558 0.51969 0.40239 0.0
H2390 H 0.76329 0.54225 0.38657 0.0
H2391 H 0.72937 0.53514 0.42415 0.0
H2392 H 0.75159 0.51242 0.44006 0.0
H2393 H 0.71851 0.50221 0.4319 0.0
H2394 H 0.72313 0.42325 0.3676 0.0
H2395 H 0.75799 0.39998 0.39197 0.0
H2396 H 0.7859 0.47494 0.42309 0.0
C2397 C 0.70993 0.52671 0.36766 0.0
C2398 C 0.69061 0.52283 0.34796 0.0
C2399 C 0.68465 0.49687 0.33948 0.0
C2400 C 0.69789 0.47513 0.35031 0.0
C2401 C 0.71695 0.47972 0.36963 0.0
C2402 C 0.72297 0.50488 0.37817 0.0
C2403 C 0.74526 0.50468 0.39803 0.0
C2404 C 0.76882 0.52115 0.38832 0.0
C2405 C 0.7356 0.51418 0.42514 0.0
C2406 C 0.75158 0.47558 0.39854 0.0
C2407 C 0.73462 0.46141 0.38259 0.0
C2408 C 0.73664 0.43419 0.38002 0.0
C2409 C 0.75683 0.42118 0.39377 0.0
C2410 C 0.77529 0.43546 0.40937 0.0
C2411 C 0.77217 0.46306 0.41186 0.0
loop_
_geom_bond_atom_site_label_1
_geom_bond_atom_site_label_2
_geom_bond_distance
_geom_bond_site_symmetry_2
_ccdc_geom_bond_type
C0 C1 1.351 . S
C0 N3 1.368 . S
C0 H5 0.931 . S
C1 C0 1.351 . S
C1 N2 1.373 . S
C1 H29 0.930 . S
N2 C1 1.373 . S
N2 C4 1.340 . S
N3 C0 1.368 . S
N3 C4 1.321 . S
N3 Co6 2.135 . S
C4 N2 1.340 . S
C4 N3 1.321 . S
C4 H28 0.930 . S
H5 C0 0.931 . S
Co6 N3 2.135 . S
Co6 N9 2.121 . S
Co6 O14 2.055 . S
Co6 O17 2.039 . S
Co6 N20 2.140 . S
C7 O8 1.227 . S
C7 O17 1.265 . S
O8 C7 1.227 . S
N9 Co6 2.121 . S
N9 C11 1.375 . S
N9 C12 1.313 . S
C10 C11 1.338 . S
C10 N13 1.377 . S
C10 H30 0.930 . S
C11 N9 1.375 . S
C11 C10 1.338 . S
C11 H15 0.931 . S
C12 N9 1.313 . S
C12 N13 1.344 . S
C12 H16 0.930 . S
N13 C10 1.377 . S
N13 C12 1.344 . S
O14 Co6 2.055 . S
O14 C18 1.253 . S
H15 C11 0.931 . S
H16 C12 0.930 . S
O17 Co6 2.039 . S
O17 C7 1.265 . S
C18 O14 1.253 . S
C18 O19 1.227 . S
O19 C18 1.227 . S
N20 Co6 2.140 . S
N20 C23 1.346 . S
N20 C24 1.345 . S
C21 C22 1.387 . S
C21 C25 1.391 . S
C22 C21 1.387 . S
C22 C23 1.369 . S
C22 H31 0.929 . S
C23 N20 1.346 . S
C23 C22 1.369 . S
C23 H26 0.928 . S
C24 N20 1.345 . S
C24 C25 1.371 . S
C24 H27 0.931 . S
C25 C21 1.391 . S
C25 C24 1.371 . S
C25 H32 0.930 . S
H26 C23 0.928 . S
H27 C24 0.931 . S
H28 C4 0.930 . S
H29 C1 0.930 . S
H30 C10 0.930 . S
H31 C22 0.929 . S
H32 C25 0.930 . S
C33 C34 1.351 . S
C33 N36 1.368 . S
C33 H38 0.931 . S
C34 C33 1.351 . S
C34 N35 1.373 . S
C34 H62 0.930 . S
N35 C34 1.373 . S
N35 C37 1.340 . S
N36 C33 1.368 . S
N36 C37 1.321 . S
N36 Co39 2.135 . S
C37 N35 1.340 . S
C37 N36 1.321 . S
C37 H61 0.930 . S
H38 C33 0.931 . S
Co39 N36 2.135 . S
Co39 N42 2.121 . S
Co39 O47 2.055 . S
Co39 O50 2.039 . S
Co39 N53 2.140 . S
C40 O41 1.227 . S
C40 O50 1.265 . S
O41 C40 1.227 . S
N42 Co39 2.121 . S
N42 C44 1.375 . S
N42 C45 1.313 . S
C43 C44 1.338 . S
C43 N46 1.377 . S
C43 H63 0.930 . S
C44 N42 1.375 . S
C44 C43 1.338 . S
C44 H48 0.931 . S
C45 N42 1.313 . S
C45 N46 1.344 . S
C45 H49 0.930 . S
N46 C43 1.377 . S
N46 C45 1.344 . S
O47 Co39 2.055 . S
O47 C51 1.253 . S
H48 C44 0.931 . S
H49 C45 0.930 . S
O50 Co39 2.039 . S
O50 C40 1.265 . S
C51 O47 1.253 . S
C51 O52 1.227 . S
O52 C51 1.227 . S
N53 Co39 2.140 . S
N53 C56 1.346 . S
N53 C57 1.345 . S
C54 C55 1.387 . S
C54 C58 1.391 . S
C55 C54 1.387 . S
C55 C56 1.369 . S
C55 H64 0.929 . S
C56 N53 1.346 . S
C56 C55 1.369 . S
C56 H59 0.928 . S
C57 N53 1.345 . S
C57 C58 1.371 . S
C57 H60 0.931 . S
C58 C54 1.391 . S
C58 C57 1.371 . S
C58 H65 0.930 . S
H59 C56 0.928 . S
H60 C57 0.931 . S
H61 C37 0.930 . S
H62 C34 0.930 . S
H63 C43 0.930 . S
H64 C55 0.929 . S
H65 C58 0.930 . S
C66 C67 1.351 . S
C66 N69 1.368 . S
C66 H71 0.931 . S
C67 C66 1.351 . S
C67 N68 1.373 . S
C67 H95 0.930 . S
N68 C67 1.373 . S
N68 C70 1.340 . S
N69 C66 1.368 . S
N69 C70 1.321 . S
N69 Co72 2.135 . S
C70 N68 1.340 . S
C70 N69 1.321 . S
C70 H94 0.930 . S
H71 C66 0.931 . S
Co72 N69 2.135 . S
Co72 N75 2.121 . S
Co72 O80 2.055 . S
Co72 O83 2.039 . S
Co72 N86 2.140 . S
C73 O74 1.227 . S
C73 O83 1.265 . S
O74 C73 1.227 . S
N75 Co72 2.121 . S
N75 C77 1.375 . S
N75 C78 1.313 . S
C76 C77 1.338 . S
C76 N79 1.377 . S
C76 H96 0.930 . S
C77 N75 1.375 . S
C77 C76 1.338 . S
C77 H81 0.931 . S
C78 N75 1.313 . S
C78 N79 1.344 . S
C78 H82 0.930 . S
N79 C76 1.377 . S
N79 C78 1.344 . S
O80 Co72 2.055 . S
O80 C84 1.253 . S
H81 C77 0.931 . S
H82 C78 0.930 . S
O83 Co72 2.039 . S
O83 C73 1.265 . S
C84 O80 1.253 . S
C84 O85 1.227 . S
O85 C84 1.227 . S
N86 Co72 2.140 . S
N86 C89 1.346 . S
N86 C90 1.345 . S
C87 C88 1.387 . S
C87 C91 1.391 . S
C88 C87 1.387 . S
C88 C89 1.369 . S
C88 H97 0.929 . S
C89 N86 1.346 . S
C89 C88 1.369 . S
C89 H92 0.928 . S
C90 N86 1.345 . S
C90 C91 1.371 . S
C90 H93 0.931 . S
C91 C87 1.391 . S
C91 C90 1.371 . S
C91 H98 0.930 . S
H92 C89 0.928 . S
H93 C90 0.931 . S
H94 C70 0.930 . S
H95 C67 0.930 . S
H96 C76 0.930 . S
H97 C88 0.929 . S
H98 C91 0.930 . S
C99 C100 1.351 . S
C99 N102 1.368 . S
C99 H104 0.931 . S
C100 C99 1.351 . S
C100 N101 1.373 1_655 S
C100 H128 0.930 . S
N101 C100 1.373 1_455 S
N101 C103 1.340 1_455 S
N102 C99 1.368 . S
N102 C103 1.321 . S
N102 Co105 2.135 . S
C103 N101 1.340 1_655 S
C103 N102 1.321 . S
C103 H127 0.930 1_655 S
H104 C99 0.931 . S
Co105 N102 2.135 . S
Co105 N108 2.121 . S
Co105 O113 2.055 . S
Co105 O116 2.039 . S
Co105 N119 2.140 . S
C106 O107 1.227 . S
C106 O116 1.265 . S
O107 C106 1.227 . S
N108 Co105 2.121 . S
N108 C110 1.375 . S
N108 C111 1.313 . S
C109 C110 1.338 . S
C109 N112 1.377 . S
C109 H129 0.930 . S
C110 N108 1.375 . S
C110 C109 1.338 . S
C110 H114 0.931 . S
C111 N108 1.313 . S
C111 N112 1.344 . S
C111 H115 0.930 . S
N112 C109 1.377 . S
N112 C111 1.344 . S
O113 Co105 2.055 . S
O113 C117 1.253 . S
H114 C110 0.931 . S
H115 C111 0.930 . S
O116 Co105 2.039 . S
O116 C106 1.265 . S
C117 O113 1.253 . S
C117 O118 1.227 . S
O118 C117 1.227 . S
N119 Co105 2.140 . S
N119 C122 1.346 . S
N119 C123 1.345 . S
C120 C121 1.387 . S
C120 C124 1.391 . S
C121 C120 1.387 . S
C121 C122 1.369 . S
C121 H130 0.929 . S
C122 N119 1.346 . S
C122 C121 1.369 . S
C122 H125 0.928 . S
C123 N119 1.345 . S
C123 C124 1.371 . S
C123 H126 0.931 . S
C124 C120 1.391 . S
C124 C123 1.371 . S
C124 H131 0.930 . S
H125 C122 0.928 . S
H126 C123 0.931 . S
H127 C103 0.930 1_455 S
H128 C100 0.930 . S
H129 C109 0.930 . S
H130 C121 0.929 . S
H131 C124 0.930 . S
C132 C133 1.351 . S
C132 N135 1.368 . S
C132 H137 0.931 . S
C133 C132 1.351 . S
C133 N134 1.373 . S
C133 H161 0.930 . S
N134 C133 1.373 . S
N134 C136 1.340 . S
N135 C132 1.368 . S
N135 C136 1.321 . S
N135 Co138 2.135 . S
C136 N134 1.340 . S
C136 N135 1.321 . S
C136 H160 0.930 . S
H137 C132 0.931 . S
Co138 N135 2.135 . S
Co138 N141 2.121 . S
Co138 O146 2.055 . S
Co138 O149 2.039 . S
Co138 N152 2.140 . S
C139 O140 1.227 . S
C139 O149 1.265 . S
O140 C139 1.227 . S
N141 Co138 2.121 . S
N141 C143 1.375 . S
N141 C144 1.313 . S
C142 C143 1.338 . S
C142 N145 1.377 . S
C142 H162 0.930 . S
C143 N141 1.375 . S
C143 C142 1.338 . S
C143 H147 0.931 . S
C144 N141 1.313 . S
C144 N145 1.344 . S
C144 H148 0.930 . S
N145 C142 1.377 . S
N145 C144 1.344 . S
O146 Co138 2.055 . S
O146 C150 1.253 . S
H147 C143 0.931 . S
H148 C144 0.930 . S
O149 Co138 2.039 . S
O149 C139 1.265 . S
C150 O146 1.253 . S
C150 O151 1.227 . S
O151 C150 1.227 . S
N152 Co138 2.140 . S
N152 C155 1.346 . S
N152 C156 1.345 . S
C153 C154 1.387 . S
C153 C157 1.391 . S
C154 C153 1.387 . S
C154 C155 1.369 . S
C154 H163 0.929 . S
C155 N152 1.346 . S
C155 C154 1.369 . S
C155 H158 0.928 . S
C156 N152 1.345 . S
C156 C157 1.371 . S
C156 H159 0.931 . S
C157 C153 1.391 . S
C157 C156 1.371 . S
C157 H164 0.930 . S
H158 C155 0.928 . S
H159 C156 0.931 . S
H160 C136 0.930 . S
H161 C133 0.930 . S
H162 C142 0.930 . S
H163 C154 0.929 . S
H164 C157 0.930 . S
C165 C166 1.351 . S
C165 N168 1.368 . S
C165 H170 0.931 . S
C166 C165 1.351 . S
C166 N167 1.373 . S
C166 H194 0.930 . S
N167 C166 1.373 . S
N167 C169 1.340 . S
N168 C165 1.368 . S
N168 C169 1.321 . S
N168 Co171 2.135 . S
C169 N167 1.340 . S
C169 N168 1.321 . S
C169 H193 0.930 . S
H170 C165 0.931 . S
Co171 N168 2.135 . S
Co171 N174 2.121 . S
Co171 O179 2.055 . S
Co171 O182 2.039 . S
Co171 N185 2.140 . S
C172 O173 1.227 . S
C172 O182 1.265 . S
O173 C172 1.227 . S
N174 Co171 2.121 . S
N174 C176 1.375 . S
N174 C177 1.313 . S
C175 C176 1.338 . S
C175 N178 1.377 . S
C175 H195 0.930 . S
C176 N174 1.375 . S
C176 C175 1.338 . S
C176 H180 0.931 . S
C177 N174 1.313 . S
C177 N178 1.344 . S
C177 H181 0.930 . S
N178 C175 1.377 . S
N178 C177 1.344 . S
O179 Co171 2.055 . S
O179 C183 1.253 . S
H180 C176 0.931 . S
H181 C177 0.930 . S
O182 Co171 2.039 . S
O182 C172 1.265 . S
C183 O179 1.253 . S
C183 O184 1.227 . S
O184 C183 1.227 . S
N185 Co171 2.140 . S
N185 C188 1.346 . S
N185 C189 1.345 . S
C186 C187 1.387 . S
C186 C190 1.391 . S
C187 C186 1.387 . S
C187 C188 1.369 . S
C187 H196 0.929 . S
C188 N185 1.346 . S
C188 C187 1.369 . S
C188 H191 0.928 . S
C189 N185 1.345 . S
C189 C190 1.371 . S
C189 H192 0.931 . S
C190 C186 1.391 . S
C190 C189 1.371 . S
C190 H197 0.930 . S
H191 C188 0.928 . S
H192 C189 0.931 . S
H193 C169 0.930 . S
H194 C166 0.930 . S
H195 C175 0.930 . S
H196 C187 0.929 . S
H197 C190 0.930 . S
C198 C199 1.351 . S
C198 N201 1.368 . S
C198 H203 0.931 . S
C199 C198 1.351 . S
C199 N200 1.373 . S
C199 H227 0.930 . S
N200 C199 1.373 . S
N200 C202 1.340 . S
N201 C198 1.368 . S
N201 C202 1.321 . S
N201 Co204 2.135 . S
C202 N200 1.340 . S
C202 N201 1.321 . S
C202 H226 0.930 . S
H203 C198 0.931 . S
Co204 N201 2.135 . S
Co204 N207 2.121 . S
Co204 O212 2.055 . S
Co204 O215 2.039 . S
Co204 N218 2.140 . S
C205 O206 1.227 . S
C205 O215 1.265 . S
O206 C205 1.227 . S
N207 Co204 2.121 . S
N207 C209 1.375 . S
N207 C210 1.313 . S
C208 C209 1.338 . S
C208 N211 1.377 . S
C208 H228 0.930 . S
C209 N207 1.375 . S
C209 C208 1.338 . S
C209 H213 0.931 . S
C210 N207 1.313 . S
C210 N211 1.344 . S
C210 H214 0.930 . S
N211 C208 1.377 . S
N211 C210 1.344 . S
O212 Co204 2.055 . S
O212 C216 1.253 . S
H213 C209 0.931 . S
H214 C210 0.930 . S
O215 Co204 2.039 . S
O215 C205 1.265 . S
C216 O212 1.253 . S
C216 O217 1.227 . S
O217 C216 1.227 . S
N218 Co204 2.140 . S
N218 C221 1.346 . S
N218 C222 1.345 . S
C219 C220 1.387 . S
C219 C223 1.391 . S
C220 C219 1.387 . S
C220 C221 1.369 . S
C220 H229 0.929 . S
C221 N218 1.346 . S
C221 C220 1.369 . S
C221 H224 0.928 . S
C222 N218 1.345 . S
C222 C223 1.371 . S
C222 H225 0.931 . S
C223 C219 1.391 . S
C223 C222 1.371 . S
C223 H230 0.930 . S
H224 C221 0.928 . S
H225 C222 0.931 . S
H226 C202 0.930 . S
H227 C199 0.930 . S
H228 C208 0.930 . S
H229 C220 0.929 . S
H230 C223 0.930 . S
C231 C232 1.351 . S
C231 N234 1.368 . S
C231 H236 0.931 . S
C232 C231 1.351 . S
C232 N233 1.373 1_455 S
C232 H260 0.930 . S
N233 C232 1.373 1_655 S
N233 C235 1.340 1_655 S
N234 C231 1.368 . S
N234 C235 1.321 . S
N234 Co237 2.135 . S
C235 N233 1.340 1_455 S
C235 N234 1.321 . S
C235 H259 0.930 1_455 S
H236 C231 0.931 . S
Co237 N234 2.135 . S
Co237 N240 2.121 . S
Co237 O245 2.055 . S
Co237 O248 2.039 . S
Co237 N251 2.140 . S
C238 O239 1.227 . S
C238 O248 1.265 . S
O239 C238 1.227 . S
N240 Co237 2.121 . S
N240 C242 1.375 . S
N240 C243 1.313 . S
C241 C242 1.338 . S
C241 N244 1.377 . S
C241 H261 0.930 . S
C242 N240 1.375 . S
C242 C241 1.338 . S
C242 H246 0.931 . S
C243 N240 1.313 . S
C243 N244 1.344 . S
C243 H247 0.930 . S
N244 C241 1.377 . S
N244 C243 1.344 . S
O245 Co237 2.055 . S
O245 C249 1.253 . S
H246 C242 0.931 . S
H247 C243 0.930 . S
O248 Co237 2.039 . S
O248 C238 1.265 . S
C249 O245 1.253 . S
C249 O250 1.227 . S
O250 C249 1.227 . S
N251 Co237 2.140 . S
N251 C254 1.346 . S
N251 C255 1.345 . S
C252 C253 1.387 . S
C252 C256 1.391 . S
C253 C252 1.387 . S
C253 C254 1.369 . S
C253 H262 0.929 . S
C254 N251 1.346 . S
C254 C253 1.369 . S
C254 H257 0.928 . S
C255 N251 1.345 . S
C255 C256 1.371 . S
C255 H258 0.931 . S
C256 C252 1.391 . S
C256 C255 1.371 . S
C256 H263 0.930 . S
H257 C254 0.928 . S
H258 C255 0.931 . S
H259 C235 0.930 1_655 S
H260 C232 0.930 . S
H261 C241 0.930 . S
H262 C253 0.929 . S
H263 C256 0.930 . S
C264 C265 1.351 . S
C264 N267 1.368 . S
C264 H269 0.931 . S
C265 C264 1.351 . S
C265 N266 1.373 . S
C265 H293 0.930 . S
N266 C265 1.373 . S
N266 C268 1.340 . S
N267 C264 1.368 . S
N267 C268 1.321 . S
N267 Co270 2.135 . S
C268 N266 1.340 . S
C268 N267 1.321 . S
C268 H292 0.930 . S
H269 C264 0.931 . S
Co270 N267 2.135 . S
Co270 N273 2.121 . S
Co270 O278 2.055 . S
Co270 O281 2.039 . S
Co270 N284 2.140 . S
C271 O272 1.227 . S
C271 O281 1.265 . S
O272 C271 1.227 . S
N273 Co270 2.121 . S
N273 C275 1.375 . S
N273 C276 1.313 . S
C274 C275 1.338 . S
C274 N277 1.377 . S
C274 H294 0.930 . S
C275 N273 1.375 . S
C275 C274 1.338 . S
C275 H279 0.931 . S
C276 N273 1.313 . S
C276 N277 1.344 . S
C276 H280 0.930 . S
N277 C274 1.377 . S
N277 C276 1.344 . S
O278 Co270 2.055 . S
O278 C282 1.253 . S
H279 C275 0.931 . S
H280 C276 0.930 . S
O281 Co270 2.039 . S
O281 C271 1.265 . S
C282 O278 1.253 . S
C282 O283 1.227 . S
O283 C282 1.227 . S
N284 Co270 2.140 . S
N284 C287 1.346 . S
N284 C288 1.345 . S
C285 C286 1.387 . S
C285 C289 1.391 . S
C286 C285 1.387 . S
C286 C287 1.369 . S
C286 H295 0.929 . S
C287 N284 1.346 . S
C287 C286 1.369 . S
C287 H290 0.928 . S
C288 N284 1.345 . S
C288 C289 1.371 . S
C288 H291 0.931 . S
C289 C285 1.391 . S
C289 C288 1.371 . S
C289 H296 0.930 . S
H290 C287 0.928 . S
H291 C288 0.931 . S
H292 C268 0.930 . S
H293 C265 0.930 . S
H294 C274 0.930 . S
H295 C286 0.929 . S
H296 C289 0.930 . S
C297 C298 1.351 . S
C297 N300 1.368 . S
C297 H302 0.931 . S
C298 C297 1.351 . S
C298 N299 1.373 1_556 S
C298 H326 0.930 . S
N299 C298 1.373 1_554 S
N299 C301 1.340 1_554 S
N300 C297 1.368 . S
N300 C301 1.321 . S
N300 Co303 2.135 . S
C301 N299 1.340 1_556 S
C301 N300 1.321 . S
C301 H325 0.930 1_556 S
H302 C297 0.931 . S
Co303 N300 2.135 . S
Co303 N306 2.121 . S
Co303 O311 2.055 . S
Co303 O314 2.039 . S
Co303 N317 2.140 . S
C304 O305 1.227 . S
C304 O314 1.265 . S
O305 C304 1.227 . S
N306 Co303 2.121 . S
N306 C308 1.375 . S
N306 C309 1.313 . S
C307 C308 1.338 . S
C307 N310 1.377 . S
C307 H327 0.930 . S
C308 N306 1.375 . S
C308 C307 1.338 . S
C308 H312 0.931 . S
C309 N306 1.313 . S
C309 N310 1.344 . S
C309 H313 0.930 . S
N310 C307 1.377 . S
N310 C309 1.344 . S
O311 Co303 2.055 . S
O311 C315 1.253 . S
H312 C308 0.931 . S
H313 C309 0.930 . S
O314 Co303 2.039 . S
O314 C304 1.265 . S
C315 O311 1.253 . S
C315 O316 1.227 . S
O316 C315 1.227 . S
N317 Co303 2.140 . S
N317 C320 1.346 . S
N317 C321 1.345 . S
C318 C319 1.387 . S
C318 C322 1.391 . S
C319 C318 1.387 . S
C319 C320 1.369 . S
C319 H328 0.929 . S
C320 N317 1.346 . S
C320 C319 1.369 . S
C320 H323 0.928 . S
C321 N317 1.345 . S
C321 C322 1.371 . S
C321 H324 0.931 . S
C322 C318 1.391 . S
C322 C321 1.371 . S
C322 H329 0.930 . S
H323 C320 0.928 . S
H324 C321 0.931 . S
H325 C301 0.930 1_554 S
H326 C298 0.930 . S
H327 C307 0.930 . S
H328 C319 0.929 . S
H329 C322 0.930 . S
C330 C331 1.351 . S
C330 N333 1.368 . S
C330 H335 0.931 . S
C331 C330 1.351 . S
C331 N332 1.373 . S
C331 H359 0.930 . S
N332 C331 1.373 . S
N332 C334 1.340 . S
N333 C330 1.368 . S
N333 C334 1.321 . S
N333 Co336 2.135 . S
C334 N332 1.340 . S
C334 N333 1.321 . S
C334 H358 0.930 . S
H335 C330 0.931 . S
Co336 N333 2.135 . S
Co336 N339 2.121 . S
Co336 O344 2.055 . S
Co336 O347 2.039 . S
Co336 N350 2.140 . S
C337 O338 1.227 . S
C337 O347 1.265 . S
O338 C337 1.227 . S
N339 Co336 2.121 . S
N339 C341 1.375 . S
N339 C342 1.313 . S
C340 C341 1.338 . S
C340 N343 1.377 . S
C340 H360 0.930 . S
C341 N339 1.375 . S
C341 C340 1.338 . S
C341 H345 0.931 . S
C342 N339 1.313 . S
C342 N343 1.344 . S
C342 H346 0.930 . S
N343 C340 1.377 . S
N343 C342 1.344 . S
O344 Co336 2.055 . S
O344 C348 1.253 . S
H345 C341 0.931 . S
H346 C342 0.930 . S
O347 Co336 2.039 . S
O347 C337 1.265 . S
C348 O344 1.253 . S
C348 O349 1.227 . S
O349 C348 1.227 . S
N350 Co336 2.140 . S
N350 C353 1.346 . S
N350 C354 1.345 . S
C351 C352 1.387 . S
C351 C355 1.391 . S
C352 C351 1.387 . S
C352 C353 1.369 . S
C352 H361 0.929 . S
C353 N350 1.346 . S
C353 C352 1.369 . S
C353 H356 0.928 . S
C354 N350 1.345 . S
C354 C355 1.371 . S
C354 H357 0.931 . S
C355 C351 1.391 . S
C355 C354 1.371 . S
C355 H362 0.930 . S
H356 C353 0.928 . S
H357 C354 0.931 . S
H358 C334 0.930 . S
H359 C331 0.930 . S
H360 C340 0.930 . S
H361 C352 0.929 . S
H362 C355 0.930 . S
C363 C364 1.351 . S
C363 N366 1.368 . S
C363 H368 0.931 . S
C364 C363 1.351 . S
C364 N365 1.373 . S
C364 H392 0.930 . S
N365 C364 1.373 . S
N365 C367 1.340 . S
N366 C363 1.368 . S
N366 C367 1.321 . S
N366 Co369 2.135 . S
C367 N365 1.340 . S
C367 N366 1.321 . S
C367 H391 0.930 . S
H368 C363 0.931 . S
Co369 N366 2.135 . S
Co369 N372 2.121 . S
Co369 O377 2.055 . S
Co369 O380 2.039 . S
Co369 N383 2.140 . S
C370 O371 1.227 . S
C370 O380 1.265 . S
O371 C370 1.227 . S
N372 Co369 2.121 . S
N372 C374 1.375 . S
N372 C375 1.313 . S
C373 C374 1.338 . S
C373 N376 1.377 . S
C373 H393 0.930 . S
C374 N372 1.375 . S
C374 C373 1.338 . S
C374 H378 0.931 . S
C375 N372 1.313 . S
C375 N376 1.344 . S
C375 H379 0.930 . S
N376 C373 1.377 . S
N376 C375 1.344 . S
O377 Co369 2.055 . S
O377 C381 1.253 . S
H378 C374 0.931 . S
H379 C375 0.930 . S
O380 Co369 2.039 . S
O380 C370 1.265 . S
C381 O377 1.253 . S
C381 O382 1.227 . S
O382 C381 1.227 . S
N383 Co369 2.140 . S
N383 C386 1.346 . S
N383 C387 1.345 . S
C384 C385 1.387 . S
C384 C388 1.391 . S
C385 C384 1.387 . S
C385 C386 1.369 . S
C385 H394 0.929 . S
C386 N383 1.346 . S
C386 C385 1.369 . S
C386 H389 0.928 . S
C387 N383 1.345 . S
C387 C388 1.371 . S
C387 H390 0.931 . S
C388 C384 1.391 . S
C388 C387 1.371 . S
C388 H395 0.930 . S
H389 C386 0.928 . S
H390 C387 0.931 . S
H391 C367 0.930 . S
H392 C364 0.930 . S
H393 C373 0.930 . S
H394 C385 0.929 . S
H395 C388 0.930 . S
C396 C397 1.351 . S
C396 N399 1.368 . S
C396 H401 0.931 . S
C397 C396 1.351 . S
C397 N398 1.373 . S
C397 H425 0.930 . S
N398 C397 1.373 . S
N398 C400 1.340 . S
N399 C396 1.368 . S
N399 C400 1.321 . S
N399 Co402 2.135 . S
C400 N398 1.340 . S
C400 N399 1.321 . S
C400 H424 0.930 . S
H401 C396 0.931 . S
Co402 N399 2.135 . S
Co402 N405 2.121 . S
Co402 O410 2.055 . S
Co402 O413 2.039 . S
Co402 N416 2.140 . S
C403 O404 1.227 . S
C403 O413 1.265 . S
O404 C403 1.227 . S
N405 Co402 2.121 . S
N405 C407 1.375 . S
N405 C408 1.313 . S
C406 C407 1.338 . S
C406 N409 1.377 . S
C406 H426 0.930 . S
C407 N405 1.375 . S
C407 C406 1.338 . S
C407 H411 0.931 . S
C408 N405 1.313 . S
C408 N409 1.344 . S
C408 H412 0.930 . S
N409 C406 1.377 . S
N409 C408 1.344 . S
O410 Co402 2.055 . S
O410 C414 1.253 . S
H411 C407 0.931 . S
H412 C408 0.930 . S
O413 Co402 2.039 . S
O413 C403 1.265 . S
C414 O410 1.253 . S
C414 O415 1.227 . S
O415 C414 1.227 . S
N416 Co402 2.140 . S
N416 C419 1.346 . S
N416 C420 1.345 . S
C417 C418 1.387 . S
C417 C421 1.391 . S
C418 C417 1.387 . S
C418 C419 1.369 . S
C418 H427 0.929 . S
C419 N416 1.346 . S
C419 C418 1.369 . S
C419 H422 0.928 . S
C420 N416 1.345 . S
C420 C421 1.371 . S
C420 H423 0.931 . S
C421 C417 1.391 . S
C421 C420 1.371 . S
C421 H428 0.930 . S
H422 C419 0.928 . S
H423 C420 0.931 . S
H424 C400 0.930 . S
H425 C397 0.930 . S
H426 C406 0.930 . S
H427 C418 0.929 . S
H428 C421 0.930 . S
C429 C430 1.351 . S
C429 N432 1.368 . S
C429 H434 0.931 . S
C430 C429 1.351 . S
C430 N431 1.373 . S
C430 H458 0.930 . S
N431 C430 1.373 . S
N431 C433 1.340 . S
N432 C429 1.368 . S
N432 C433 1.321 . S
N432 Co435 2.135 . S
C433 N431 1.340 . S
C433 N432 1.321 . S
C433 H457 0.930 . S
H434 C429 0.931 . S
Co435 N432 2.135 . S
Co435 N438 2.121 . S
Co435 O443 2.055 . S
Co435 O446 2.039 . S
Co435 N449 2.140 . S
C436 O437 1.227 . S
C436 O446 1.265 . S
O437 C436 1.227 . S
N438 Co435 2.121 . S
N438 C440 1.375 . S
N438 C441 1.313 . S
C439 C440 1.338 . S
C439 N442 1.377 . S
C439 H459 0.930 . S
C440 N438 1.375 . S
C440 C439 1.338 . S
C440 H444 0.931 . S
C441 N438 1.313 . S
C441 N442 1.344 . S
C441 H445 0.930 . S
N442 C439 1.377 . S
N442 C441 1.344 . S
O443 Co435 2.055 . S
O443 C447 1.253 . S
H444 C440 0.931 . S
H445 C441 0.930 . S
O446 Co435 2.039 . S
O446 C436 1.265 . S
C447 O443 1.253 . S
C447 O448 1.227 . S
O448 C447 1.227 . S
N449 Co435 2.140 . S
N449 C452 1.346 . S
N449 C453 1.345 . S
C450 C451 1.387 . S
C450 C454 1.391 . S
C451 C450 1.387 . S
C451 C452 1.369 . S
C451 H460 0.929 . S
C452 N449 1.346 . S
C452 C451 1.369 . S
C452 H455 0.928 . S
C453 N449 1.345 . S
C453 C454 1.371 . S
C453 H456 0.931 . S
C454 C450 1.391 . S
C454 C453 1.371 . S
C454 H461 0.930 . S
H455 C452 0.928 . S
H456 C453 0.931 . S
H457 C433 0.930 . S
H458 C430 0.930 . S
H459 C439 0.930 . S
H460 C451 0.929 . S
H461 C454 0.930 . S
C462 C463 1.351 . S
C462 N465 1.368 . S
C462 H467 0.931 . S
C463 C462 1.351 . S
C463 N464 1.373 . S
C463 H491 0.930 . S
N464 C463 1.373 . S
N464 C466 1.340 . S
N465 C462 1.368 . S
N465 C466 1.321 . S
N465 Co468 2.135 . S
C466 N464 1.340 . S
C466 N465 1.321 . S
C466 H490 0.930 . S
H467 C462 0.931 . S
Co468 N465 2.135 . S
Co468 N471 2.121 . S
Co468 O476 2.055 . S
Co468 O479 2.039 . S
Co468 N482 2.140 . S
C469 O470 1.227 . S
C469 O479 1.265 . S
O470 C469 1.227 . S
N471 Co468 2.121 . S
N471 C473 1.375 . S
N471 C474 1.313 . S
C472 C473 1.338 . S
C472 N475 1.377 . S
C472 H492 0.930 . S
C473 N471 1.375 . S
C473 C472 1.338 . S
C473 H477 0.931 . S
C474 N471 1.313 . S
C474 N475 1.344 . S
C474 H478 0.930 . S
N475 C472 1.377 . S
N475 C474 1.344 . S
O476 Co468 2.055 . S
O476 C480 1.253 . S
H477 C473 0.931 . S
H478 C474 0.930 . S
O479 Co468 2.039 . S
O479 C469 1.265 . S
C480 O476 1.253 . S
C480 O481 1.227 . S
O481 C480 1.227 . S
N482 Co468 2.140 . S
N482 C485 1.346 . S
N482 C486 1.345 . S
C483 C484 1.387 . S
C483 C487 1.391 . S
C484 C483 1.387 . S
C484 C485 1.369 . S
C484 H493 0.929 . S
C485 N482 1.346 . S
C485 C484 1.369 . S
C485 H488 0.928 . S
C486 N482 1.345 . S
C486 C487 1.371 . S
C486 H489 0.931 . S
C487 C483 1.391 . S
C487 C486 1.371 . S
C487 H494 0.930 . S
H488 C485 0.928 . S
H489 C486 0.931 . S
H490 C466 0.930 . S
H491 C463 0.930 . S
H492 C472 0.930 . S
H493 C484 0.929 . S
H494 C487 0.930 . S
C495 C496 1.351 . S
C495 N498 1.368 . S
C495 H500 0.931 . S
C496 C495 1.351 . S
C496 N497 1.373 1_554 S
C496 H524 0.930 . S
N497 C496 1.373 1_556 S
N497 C499 1.340 1_556 S
N498 C495 1.368 . S
N498 C499 1.321 . S
N498 Co501 2.135 . S
C499 N497 1.340 1_554 S
C499 N498 1.321 . S
C499 H523 0.930 1_554 S
H500 C495 0.931 . S
Co501 N498 2.135 . S
Co501 N504 2.121 . S
Co501 O509 2.055 . S
Co501 O512 2.039 . S
Co501 N515 2.140 . S
C502 O503 1.227 . S
C502 O512 1.265 . S
O503 C502 1.227 . S
N504 Co501 2.121 . S
N504 C506 1.375 . S
N504 C507 1.313 . S
C505 C506 1.338 . S
C505 N508 1.377 . S
C505 H525 0.930 . S
C506 N504 1.375 . S
C506 C505 1.338 . S
C506 H510 0.931 . S
C507 N504 1.313 . S
C507 N508 1.344 . S
C507 H511 0.930 . S
N508 C505 1.377 . S
N508 C507 1.344 . S
O509 Co501 2.055 . S
O509 C513 1.253 . S
H510 C506 0.931 . S
H511 C507 0.930 . S
O512 Co501 2.039 . S
O512 C502 1.265 . S
C513 O509 1.253 . S
C513 O514 1.227 . S
O514 C513 1.227 . S
N515 Co501 2.140 . S
N515 C518 1.346 . S
N515 C519 1.345 . S
C516 C517 1.387 . S
C516 C520 1.391 . S
C517 C516 1.387 . S
C517 C518 1.369 . S
C517 H526 0.929 . S
C518 N515 1.346 . S
C518 C517 1.369 . S
C518 H521 0.928 . S
C519 N515 1.345 . S
C519 C520 1.371 . S
C519 H522 0.931 . S
C520 C516 1.391 . S
C520 C519 1.371 . S
C520 H527 0.930 . S
H521 C518 0.928 . S
H522 C519 0.931 . S
H523 C499 0.930 1_556 S
H524 C496 0.930 . S
H525 C505 0.930 . S
H526 C517 0.929 . S
H527 C520 0.930 . S
C528 C529 1.351 . S
C528 N531 1.368 . S
C528 H533 0.931 . S
C529 C528 1.351 . S
C529 N530 1.373 . S
C529 H557 0.930 . S
N530 C529 1.373 . S
N530 C532 1.340 . S
N531 C528 1.368 . S
N531 C532 1.321 . S
N531 Co534 2.135 . S
C532 N530 1.340 . S
C532 N531 1.321 . S
C532 H556 0.930 . S
H533 C528 0.931 . S
Co534 N531 2.135 . S
Co534 N537 2.121 . S
Co534 O542 2.055 . S
Co534 O545 2.039 . S
Co534 N548 2.140 . S
C535 O536 1.227 . S
C535 O545 1.265 . S
O536 C535 1.227 . S
N537 Co534 2.121 . S
N537 C539 1.375 . S
N537 C540 1.313 . S
C538 C539 1.338 . S
C538 N541 1.377 . S
C538 H558 0.930 . S
C539 N537 1.375 . S
C539 C538 1.338 . S
C539 H543 0.931 . S
C540 N537 1.313 . S
C540 N541 1.344 . S
C540 H544 0.930 . S
N541 C538 1.377 . S
N541 C540 1.344 . S
O542 Co534 2.055 . S
O542 C546 1.253 . S
H543 C539 0.931 . S
H544 C540 0.930 . S
O545 Co534 2.039 . S
O545 C535 1.265 . S
C546 O542 1.253 . S
C546 O547 1.227 . S
O547 C546 1.227 . S
N548 Co534 2.140 . S
N548 C551 1.346 . S
N548 C552 1.345 . S
C549 C550 1.387 . S
C549 C553 1.391 . S
C550 C549 1.387 . S
C550 C551 1.369 . S
C550 H559 0.929 . S
C551 N548 1.346 . S
C551 C550 1.369 . S
C551 H554 0.928 . S
C552 N548 1.345 . S
C552 C553 1.371 . S
C552 H555 0.931 . S
C553 C549 1.391 . S
C553 C552 1.371 . S
C553 H560 0.930 . S
H554 C551 0.928 . S
H555 C552 0.931 . S
H556 C532 0.930 . S
H557 C529 0.930 . S
H558 C538 0.930 . S
H559 C550 0.929 . S
H560 C553 0.930 . S
C561 C562 1.351 . S
C561 N564 1.368 . S
C561 H566 0.931 . S
C562 C561 1.351 . S
C562 N563 1.373 . S
C562 H590 0.930 . S
N563 C562 1.373 . S
N563 C565 1.340 . S
N564 C561 1.368 . S
N564 C565 1.321 . S
N564 Co567 2.135 . S
C565 N563 1.340 . S
C565 N564 1.321 . S
C565 H589 0.930 . S
H566 C561 0.931 . S
Co567 N564 2.135 . S
Co567 N570 2.121 . S
Co567 O575 2.055 . S
Co567 O578 2.039 . S
Co567 N581 2.140 . S
C568 O569 1.227 . S
C568 O578 1.265 . S
O569 C568 1.227 . S
N570 Co567 2.121 . S
N570 C572 1.375 . S
N570 C573 1.313 . S
C571 C572 1.338 . S
C571 N574 1.377 . S
C571 H591 0.930 . S
C572 N570 1.375 . S
C572 C571 1.338 . S
C572 H576 0.931 . S
C573 N570 1.313 . S
C573 N574 1.344 . S
C573 H577 0.930 . S
N574 C571 1.377 . S
N574 C573 1.344 . S
O575 Co567 2.055 . S
O575 C579 1.253 . S
H576 C572 0.931 . S
H577 C573 0.930 . S
O578 Co567 2.039 . S
O578 C568 1.265 . S
C579 O575 1.253 . S
C579 O580 1.227 . S
O580 C579 1.227 . S
N581 Co567 2.140 . S
N581 C584 1.346 . S
N581 C585 1.345 . S
C582 C583 1.387 . S
C582 C586 1.391 . S
C583 C582 1.387 . S
C583 C584 1.369 . S
C583 H592 0.929 . S
C584 N581 1.346 . S
C584 C583 1.369 . S
C584 H587 0.928 . S
C585 N581 1.345 . S
C585 C586 1.371 . S
C585 H588 0.931 . S
C586 C582 1.391 . S
C586 C585 1.371 . S
C586 H593 0.930 . S
H587 C584 0.928 . S
H588 C585 0.931 . S
H589 C565 0.930 . S
H590 C562 0.930 . S
H591 C571 0.930 . S
H592 C583 0.929 . S
H593 C586 0.930 . S
C594 C595 1.351 . S
C594 N597 1.368 . S
C594 H599 0.931 . S
C595 C594 1.351 . S
C595 N596 1.373 1_565 S
C595 H623 0.930 . S
N596 C595 1.373 1_545 S
N596 C598 1.340 1_545 S
N597 C594 1.368 . S
N597 C598 1.321 . S
N597 Co600 2.135 . S
C598 N596 1.340 1_565 S
C598 N597 1.321 . S
C598 H622 0.930 1_565 S
H599 C594 0.931 . S
Co600 N597 2.135 . S
Co600 N603 2.121 . S
Co600 O608 2.055 . S
Co600 O611 2.039 . S
Co600 N614 2.140 . S
C601 O602 1.227 . S
C601 O611 1.265 . S
O602 C601 1.227 . S
N603 Co600 2.121 . S
N603 C605 1.375 . S
N603 C606 1.313 . S
C604 C605 1.338 . S
C604 N607 1.377 . S
C604 H624 0.930 . S
C605 N603 1.375 . S
C605 C604 1.338 . S
C605 H609 0.931 . S
C606 N603 1.313 . S
C606 N607 1.344 . S
C606 H610 0.930 . S
N607 C604 1.377 . S
N607 C606 1.344 . S
O608 Co600 2.055 . S
O608 C612 1.253 . S
H609 C605 0.931 . S
H610 C606 0.930 . S
O611 Co600 2.039 . S
O611 C601 1.265 . S
C612 O608 1.253 . S
C612 O613 1.227 . S
O613 C612 1.227 . S
N614 Co600 2.140 . S
N614 C617 1.346 . S
N614 C618 1.345 . S
C615 C616 1.387 . S
C615 C619 1.391 . S
C616 C615 1.387 . S
C616 C617 1.369 . S
C616 H625 0.929 . S
C617 N614 1.346 . S
C617 C616 1.369 . S
C617 H620 0.928 . S
C618 N614 1.345 . S
C618 C619 1.371 . S
C618 H621 0.931 . S
C619 C615 1.391 . S
C619 C618 1.371 . S
C619 H626 0.930 . S
H620 C617 0.928 . S
H621 C618 0.931 . S
H622 C598 0.930 1_545 S
H623 C595 0.930 . S
H624 C604 0.930 . S
H625 C616 0.929 . S
H626 C619 0.930 . S
C627 C628 1.351 . S
C627 N630 1.368 . S
C627 H632 0.931 . S
C628 C627 1.351 . S
C628 N629 1.373 . S
C628 H656 0.930 . S
N629 C628 1.373 . S
N629 C631 1.340 . S
N630 C627 1.368 . S
N630 C631 1.321 . S
N630 Co633 2.135 . S
C631 N629 1.340 . S
C631 N630 1.321 . S
C631 H655 0.930 . S
H632 C627 0.931 . S
Co633 N630 2.135 . S
Co633 N636 2.121 . S
Co633 O641 2.055 . S
Co633 O644 2.039 . S
Co633 N647 2.140 . S
C634 O635 1.227 . S
C634 O644 1.265 . S
O635 C634 1.227 . S
N636 Co633 2.121 . S
N636 C638 1.375 . S
N636 C639 1.313 . S
C637 C638 1.338 . S
C637 N640 1.377 . S
C637 H657 0.930 . S
C638 N636 1.375 . S
C638 C637 1.338 . S
C638 H642 0.931 . S
C639 N636 1.313 . S
C639 N640 1.344 . S
C639 H643 0.930 . S
N640 C637 1.377 . S
N640 C639 1.344 . S
O641 Co633 2.055 . S
O641 C645 1.253 . S
H642 C638 0.931 . S
H643 C639 0.930 . S
O644 Co633 2.039 . S
O644 C634 1.265 . S
C645 O641 1.253 . S
C645 O646 1.227 . S
O646 C645 1.227 . S
N647 Co633 2.140 . S
N647 C650 1.346 . S
N647 C651 1.345 . S
C648 C649 1.387 . S
C648 C652 1.391 . S
C649 C648 1.387 . S
C649 C650 1.369 . S
C649 H658 0.929 . S
C650 N647 1.346 . S
C650 C649 1.369 . S
C650 H653 0.928 . S
C651 N647 1.345 . S
C651 C652 1.371 . S
C651 H654 0.931 . S
C652 C648 1.391 . S
C652 C651 1.371 . S
C652 H659 0.930 . S
H653 C650 0.928 . S
H654 C651 0.931 . S
H655 C631 0.930 . S
H656 C628 0.930 . S
H657 C637 0.930 . S
H658 C649 0.929 . S
H659 C652 0.930 . S
C660 C661 1.351 . S
C660 N663 1.368 . S
C660 H665 0.931 . S
C661 C660 1.351 . S
C661 N662 1.373 1_545 S
C661 H689 0.930 . S
N662 C661 1.373 1_565 S
N662 C664 1.340 1_565 S
N663 C660 1.368 . S
N663 C664 1.321 . S
N663 Co666 2.135 . S
C664 N662 1.340 1_545 S
C664 N663 1.321 . S
C664 H688 0.930 1_545 S
H665 C660 0.931 . S
Co666 N663 2.135 . S
Co666 N669 2.121 . S
Co666 O674 2.055 . S
Co666 O677 2.039 . S
Co666 N680 2.140 . S
C667 O668 1.227 . S
C667 O677 1.265 . S
O668 C667 1.227 . S
N669 Co666 2.121 . S
N669 C671 1.375 . S
N669 C672 1.313 . S
C670 C671 1.338 . S
C670 N673 1.377 . S
C670 H690 0.930 . S
C671 N669 1.375 . S
C671 C670 1.338 . S
C671 H675 0.931 . S
C672 N669 1.313 . S
C672 N673 1.344 . S
C672 H676 0.930 . S
N673 C670 1.377 . S
N673 C672 1.344 . S
O674 Co666 2.055 . S
O674 C678 1.253 . S
H675 C671 0.931 . S
H676 C672 0.930 . S
O677 Co666 2.039 . S
O677 C667 1.265 . S
C678 O674 1.253 . S
C678 O679 1.227 . S
O679 C678 1.227 . S
N680 Co666 2.140 . S
N680 C683 1.346 . S
N680 C684 1.345 . S
C681 C682 1.387 . S
C681 C685 1.391 . S
C682 C681 1.387 . S
C682 C683 1.369 . S
C682 H691 0.929 . S
C683 N680 1.346 . S
C683 C682 1.369 . S
C683 H686 0.928 . S
C684 N680 1.345 . S
C684 C685 1.371 . S
C684 H687 0.931 . S
C685 C681 1.391 . S
C685 C684 1.371 . S
C685 H692 0.930 . S
H686 C683 0.928 . S
H687 C684 0.931 . S
H688 C664 0.930 1_565 S
H689 C661 0.930 . S
H690 C670 0.930 . S
H691 C682 0.929 . S
H692 C685 0.930 . S
C693 C694 1.351 . S
C693 N696 1.368 . S
C693 H698 0.931 . S
C694 C693 1.351 . S
C694 N695 1.373 . S
C694 H722 0.930 . S
N695 C694 1.373 . S
N695 C697 1.340 . S
N696 C693 1.368 . S
N696 C697 1.321 . S
N696 Co699 2.135 . S
C697 N695 1.340 . S
C697 N696 1.321 . S
C697 H721 0.930 . S
H698 C693 0.931 . S
Co699 N696 2.135 . S
Co699 N702 2.121 . S
Co699 O707 2.055 . S
Co699 O710 2.039 . S
Co699 N713 2.140 . S
C700 O701 1.227 . S
C700 O710 1.265 . S
O701 C700 1.227 . S
N702 Co699 2.121 . S
N702 C704 1.375 . S
N702 C705 1.313 . S
C703 C704 1.338 . S
C703 N706 1.377 . S
C703 H723 0.930 . S
C704 N702 1.375 . S
C704 C703 1.338 . S
C704 H708 0.931 . S
C705 N702 1.313 . S
C705 N706 1.344 . S
C705 H709 0.930 . S
N706 C703 1.377 . S
N706 C705 1.344 . S
O707 Co699 2.055 . S
O707 C711 1.253 . S
H708 C704 0.931 . S
H709 C705 0.930 . S
O710 Co699 2.039 . S
O710 C700 1.265 . S
C711 O707 1.253 . S
C711 O712 1.227 . S
O712 C711 1.227 . S
N713 Co699 2.140 . S
N713 C716 1.346 . S
N713 C717 1.345 . S
C714 C715 1.387 . S
C714 C718 1.391 . S
C715 C714 1.387 . S
C715 C716 1.369 . S
C715 H724 0.929 . S
C716 N713 1.346 . S
C716 C715 1.369 . S
C716 H719 0.928 . S
C717 N713 1.345 . S
C717 C718 1.371 . S
C717 H720 0.931 . S
C718 C714 1.391 . S
C718 C717 1.371 . S
C718 H725 0.930 . S
H719 C716 0.928 . S
H720 C717 0.931 . S
H721 C697 0.930 . S
H722 C694 0.930 . S
H723 C703 0.930 . S
H724 C715 0.929 . S
H725 C718 0.930 . S
C726 C727 1.351 . S
C726 N729 1.368 . S
C726 H731 0.931 . S
C727 C726 1.351 . S
C727 N728 1.373 . S
C727 H755 0.930 . S
N728 C727 1.373 . S
N728 C730 1.340 . S
N729 C726 1.368 . S
N729 C730 1.321 . S
N729 Co732 2.135 . S
C730 N728 1.340 . S
C730 N729 1.321 . S
C730 H754 0.930 . S
H731 C726 0.931 . S
Co732 N729 2.135 . S
Co732 N735 2.121 . S
Co732 O740 2.055 . S
Co732 O743 2.039 . S
Co732 N746 2.140 . S
C733 O734 1.227 . S
C733 O743 1.265 . S
O734 C733 1.227 . S
N735 Co732 2.121 . S
N735 C737 1.375 . S
N735 C738 1.313 . S
C736 C737 1.338 . S
C736 N739 1.377 . S
C736 H756 0.930 . S
C737 N735 1.375 . S
C737 C736 1.338 . S
C737 H741 0.931 . S
C738 N735 1.313 . S
C738 N739 1.344 . S
C738 H742 0.930 . S
N739 C736 1.377 . S
N739 C738 1.344 . S
O740 Co732 2.055 . S
O740 C744 1.253 . S
H741 C737 0.931 . S
H742 C738 0.930 . S
O743 Co732 2.039 . S
O743 C733 1.265 . S
C744 O740 1.253 . S
C744 O745 1.227 . S
O745 C744 1.227 . S
N746 Co732 2.140 . S
N746 C749 1.346 . S
N746 C750 1.345 . S
C747 C748 1.387 . S
C747 C751 1.391 . S
C748 C747 1.387 . S
C748 C749 1.369 . S
C748 H757 0.929 . S
C749 N746 1.346 . S
C749 C748 1.369 . S
C749 H752 0.928 . S
C750 N746 1.345 . S
C750 C751 1.371 . S
C750 H753 0.931 . S
C751 C747 1.391 . S
C751 C750 1.371 . S
C751 H758 0.930 . S
H752 C749 0.928 . S
H753 C750 0.931 . S
H754 C730 0.930 . S
H755 C727 0.930 . S
H756 C736 0.930 . S
H757 C748 0.929 . S
H758 C751 0.930 . S
C759 C760 1.351 . S
C759 N762 1.368 . S
C759 H764 0.931 . S
C760 C759 1.351 . S
C760 N761 1.373 . S
C760 H788 0.930 . S
N761 C760 1.373 . S
N761 C763 1.340 . S
N762 C759 1.368 . S
N762 C763 1.321 . S
N762 Co765 2.135 . S
C763 N761 1.340 . S
C763 N762 1.321 . S
C763 H787 0.930 . S
H764 C759 0.931 . S
Co765 N762 2.135 . S
Co765 N768 2.121 . S
Co765 O773 2.055 . S
Co765 O776 2.039 . S
Co765 N779 2.140 . S
C766 O767 1.227 . S
C766 O776 1.265 . S
O767 C766 1.227 . S
N768 Co765 2.121 . S
N768 C770 1.375 . S
N768 C771 1.313 . S
C769 C770 1.338 . S
C769 N772 1.377 . S
C769 H789 0.930 . S
C770 N768 1.375 . S
C770 C769 1.338 . S
C770 H774 0.931 . S
C771 N768 1.313 . S
C771 N772 1.344 . S
C771 H775 0.930 . S
N772 C769 1.377 . S
N772 C771 1.344 . S
O773 Co765 2.055 . S
O773 C777 1.253 . S
H774 C770 0.931 . S
H775 C771 0.930 . S
O776 Co765 2.039 . S
O776 C766 1.265 . S
C777 O773 1.253 . S
C777 O778 1.227 . S
O778 C777 1.227 . S
N779 Co765 2.140 . S
N779 C782 1.346 . S
N779 C783 1.345 . S
C780 C781 1.387 . S
C780 C784 1.391 . S
C781 C780 1.387 . S
C781 C782 1.369 . S
C781 H790 0.929 . S
C782 N779 1.346 . S
C782 C781 1.369 . S
C782 H785 0.928 . S
C783 N779 1.345 . S
C783 C784 1.371 . S
C783 H786 0.931 . S
C784 C780 1.391 . S
C784 C783 1.371 . S
C784 H791 0.930 . S
H785 C782 0.928 . S
H786 C783 0.931 . S
H787 C763 0.930 . S
H788 C760 0.930 . S
H789 C769 0.930 . S
H790 C781 0.929 . S
H791 C784 0.930 . S
H792 C804 0.930 . S
H793 C806 0.930 . S
H794 C807 0.930 . S
H795 C811 0.959 . S
H796 C811 0.959 . S
H797 C811 0.961 . S
H798 C812 0.960 . S
H799 C812 0.961 . S
H800 C812 0.959 . S
H801 C815 0.929 . S
H802 C816 0.931 . S
H803 C818 0.930 . S
C804 H792 0.930 . S
C804 C805 1.399 . S
C804 C809 1.399 . S
C805 C804 1.399 . S
C805 C806 1.376 . S
C806 H793 0.930 . S
C806 C805 1.376 . S
C806 C807 1.388 . S
C807 H794 0.930 . S
C807 C806 1.388 . S
C807 C808 1.390 . S
C808 C807 1.390 . S
C808 C809 1.394 . S
C808 C814 1.465 . S
C809 C804 1.399 . S
C809 C808 1.394 . S
C809 C810 1.516 . S
C810 C809 1.516 . S
C810 C811 1.502 . S
C810 C812 1.561 . S
C810 C813 1.526 . S
C811 H795 0.959 . S
C811 H796 0.959 . S
C811 H797 0.961 . S
C811 C810 1.502 . S
C812 H798 0.960 . S
C812 H799 0.961 . S
C812 H800 0.959 . S
C812 C810 1.561 . S
C813 C810 1.526 . S
C813 C814 1.396 . S
C813 C818 1.390 . S
C814 C808 1.465 . S
C814 C813 1.396 . S
C814 C815 1.399 . S
C815 H801 0.929 . S
C815 C814 1.399 . S
C815 C816 1.385 . S
C816 H802 0.931 . S
C816 C815 1.385 . S
C816 C817 1.389 . S
C817 C816 1.389 . S
C817 C818 1.387 . S
C818 H803 0.930 . S
C818 C813 1.390 . S
C818 C817 1.387 . S
H819 C831 0.930 . S
H820 C833 0.930 . S
H821 C834 0.930 . S
H822 C838 0.959 . S
H823 C838 0.959 . S
H824 C838 0.961 . S
H825 C839 0.960 . S
H826 C839 0.961 . S
H827 C839 0.959 . S
H828 C842 0.929 . S
H829 C843 0.931 . S
H830 C845 0.930 . S
C831 H819 0.930 . S
C831 C832 1.399 . S
C831 C836 1.399 . S
C832 C831 1.399 . S
C832 C833 1.376 . S
C833 H820 0.930 . S
C833 C832 1.376 . S
C833 C834 1.388 . S
C834 H821 0.930 . S
C834 C833 1.388 . S
C834 C835 1.390 . S
C835 C834 1.390 . S
C835 C836 1.394 . S
C835 C841 1.465 . S
C836 C831 1.399 . S
C836 C835 1.394 . S
C836 C837 1.516 . S
C837 C836 1.516 . S
C837 C838 1.502 . S
C837 C839 1.561 . S
C837 C840 1.526 . S
C838 H822 0.959 . S
C838 H823 0.959 . S
C838 H824 0.961 . S
C838 C837 1.502 . S
C839 H825 0.960 . S
C839 H826 0.961 . S
C839 H827 0.959 . S
C839 C837 1.561 . S
C840 C837 1.526 . S
C840 C841 1.396 . S
C840 C845 1.390 . S
C841 C835 1.465 . S
C841 C840 1.396 . S
C841 C842 1.399 . S
C842 H828 0.929 . S
C842 C841 1.399 . S
C842 C843 1.385 . S
C843 H829 0.931 . S
C843 C842 1.385 . S
C843 C844 1.389 . S
C844 C843 1.389 . S
C844 C845 1.387 . S
C845 H830 0.930 . S
C845 C840 1.390 . S
C845 C844 1.387 . S
H846 C858 0.930 . S
H847 C860 0.930 . S
H848 C861 0.930 . S
H849 C865 0.959 . S
H850 C865 0.959 . S
H851 C865 0.961 . S
H852 C866 0.960 . S
H853 C866 0.961 . S
H854 C866 0.959 . S
H855 C869 0.929 . S
H856 C870 0.922 1_554 S
H857 C872 0.930 . S
C858 H846 0.930 . S
C858 C859 1.399 . S
C858 C863 1.399 . S
C859 C858 1.399 . S
C859 C860 1.376 . S
C860 H847 0.930 . S
C860 C859 1.376 . S
C860 C861 1.388 . S
C861 H848 0.930 . S
C861 C860 1.388 . S
C861 C862 1.390 . S
C862 C861 1.390 . S
C862 C863 1.394 . S
C862 C868 1.465 . S
C863 C858 1.399 . S
C863 C862 1.394 . S
C863 C864 1.516 . S
C864 C863 1.516 . S
C864 C865 1.502 . S
C864 C866 1.561 . S
C864 C867 1.526 . S
C865 H849 0.959 . S
C865 H850 0.959 . S
C865 H851 0.961 . S
C865 C864 1.502 . S
C866 H852 0.960 . S
C866 H853 0.961 . S
C866 H854 0.959 . S
C866 C864 1.561 . S
C867 C864 1.526 . S
C867 C868 1.396 . S
C867 C872 1.390 . S
C868 C862 1.465 . S
C868 C867 1.396 . S
C868 C869 1.399 . S
C869 H855 0.929 . S
C869 C868 1.399 . S
C869 C870 1.385 . S
C870 H856 0.922 1_556 S
C870 C869 1.385 . S
C870 C871 1.389 . S
C871 C870 1.389 . S
C871 C872 1.387 . S
C872 H857 0.930 . S
C872 C867 1.390 . S
C872 C871 1.387 . S
H873 C885 0.930 . S
H874 C887 0.930 . S
H875 C888 0.930 . S
H876 C892 0.959 . S
H877 C892 0.959 . S
H878 C892 0.961 . S
H879 C893 0.960 . S
H880 C893 0.961 . S
H881 C893 0.959 . S
H882 C896 0.929 . S
H883 C897 0.931 . S
H884 C899 0.930 . S
C885 H873 0.930 . S
C885 C886 1.399 . S
C885 C890 1.399 . S
C886 C885 1.399 . S
C886 C887 1.376 . S
C887 H874 0.930 . S
C887 C886 1.376 . S
C887 C888 1.388 . S
C888 H875 0.930 . S
C888 C887 1.388 . S
C888 C889 1.390 . S
C889 C888 1.390 . S
C889 C890 1.394 . S
C889 C895 1.465 . S
C890 C885 1.399 . S
C890 C889 1.394 . S
C890 C891 1.516 . S
C891 C890 1.516 . S
C891 C892 1.502 . S
C891 C893 1.561 . S
C891 C894 1.526 . S
C892 H876 0.959 . S
C892 H877 0.959 . S
C892 H878 0.961 . S
C892 C891 1.502 . S
C893 H879 0.960 . S
C893 H880 0.961 . S
C893 H881 0.959 . S
C893 C891 1.561 . S
C894 C891 1.526 . S
C894 C895 1.396 . S
C894 C899 1.390 . S
C895 C889 1.465 . S
C895 C894 1.396 . S
C895 C896 1.399 . S
C896 H882 0.929 . S
C896 C895 1.399 . S
C896 C897 1.385 . S
C897 H883 0.931 . S
C897 C896 1.385 . S
C897 C898 1.389 . S
C898 C897 1.389 . S
C898 C899 1.387 . S
C899 H884 0.930 . S
C899 C894 1.390 . S
C899 C898 1.387 . S
H900 C912 0.930 . S
H901 C914 0.930 . S
H902 C915 0.930 . S
H903 C919 0.959 . S
H904 C919 0.959 . S
H905 C919 0.961 . S
H906 C920 0.960 . S
H907 C920 0.961 . S
H908 C920 0.959 . S
H909 C923 0.929 . S
H910 C924 0.931 . S
H911 C926 0.930 . S
C912 H900 0.930 . S
C912 C913 1.399 . S
C912 C917 1.399 . S
C913 C912 1.399 . S
C913 C914 1.376 . S
C914 H901 0.930 . S
C914 C913 1.376 . S
C914 C915 1.388 . S
C915 H902 0.930 . S
C915 C914 1.388 . S
C915 C916 1.390 . S
C916 C915 1.390 . S
C916 C917 1.394 . S
C916 C922 1.465 . S
C917 C912 1.399 . S
C917 C916 1.394 . S
C917 C918 1.516 . S
C918 C917 1.516 . S
C918 C919 1.502 . S
C918 C920 1.561 . S
C918 C921 1.526 . S
C919 H903 0.959 . S
C919 H904 0.959 . S
C919 H905 0.961 . S
C919 C918 1.502 . S
C920 H906 0.960 . S
C920 H907 0.961 . S
C920 H908 0.959 . S
C920 C918 1.561 . S
C921 C918 1.526 . S
C921 C922 1.396 . S
C921 C926 1.390 . S
C922 C916 1.465 . S
C922 C921 1.396 . S
C922 C923 1.399 . S
C923 H909 0.929 . S
C923 C922 1.399 . S
C923 C924 1.385 . S
C924 H910 0.931 . S
C924 C923 1.385 . S
C924 C925 1.389 . S
C925 C924 1.389 . S
C925 C926 1.387 . S
C926 H911 0.930 . S
C926 C921 1.390 . S
C926 C925 1.387 . S
H927 C939 0.930 . S
H928 C941 0.930 . S
H929 C942 0.930 . S
H930 C946 0.959 . S
H931 C946 0.959 . S
H932 C946 0.961 . S
H933 C947 0.960 . S
H934 C947 0.961 . S
H935 C947 0.959 . S
H936 C950 0.929 . S
H937 C951 0.931 . S
H938 C953 0.930 . S
C939 H927 0.930 . S
C939 C940 1.399 . S
C939 C944 1.399 1_545 S
C940 C939 1.399 . S
C940 C941 1.376 . S
C941 H928 0.930 . S
C941 C940 1.376 . S
C941 C942 1.388 . S
C942 H929 0.930 . S
C942 C941 1.388 . S
C942 C943 1.390 1_545 S
C943 C942 1.390 1_565 S
C943 C944 1.394 . S
C943 C949 1.465 . S
C944 C939 1.399 1_565 S
C944 C943 1.394 . S
C944 C945 1.516 . S
C945 C944 1.516 . S
C945 C946 1.502 . S
C945 C947 1.561 . S
C945 C948 1.526 . S
C946 H930 0.959 . S
C946 H931 0.959 . S
C946 H932 0.961 . S
C946 C945 1.502 . S
C947 H933 0.960 . S
C947 H934 0.961 . S
C947 H935 0.959 . S
C947 C945 1.561 . S
C948 C945 1.526 . S
C948 C949 1.396 . S
C948 C953 1.390 . S
C949 C943 1.465 . S
C949 C948 1.396 . S
C949 C950 1.399 . S
C950 H936 0.929 . S
C950 C949 1.399 . S
C950 C951 1.385 . S
C951 H937 0.931 . S
C951 C950 1.385 . S
C951 C952 1.389 . S
C952 C951 1.389 . S
C952 C953 1.387 . S
C953 H938 0.930 . S
C953 C948 1.390 . S
C953 C952 1.387 . S
H954 C966 0.930 . S
H955 C968 0.930 . S
H956 C969 0.930 . S
H957 C973 0.959 . S
H958 C973 0.959 . S
H959 C973 0.961 . S
H960 C974 0.960 . S
H961 C974 0.961 . S
H962 C974 0.959 . S
H963 C977 0.929 . S
H964 C978 0.931 . S
H965 C980 0.930 . S
C966 H954 0.930 . S
C966 C967 1.399 . S
C966 C971 1.399 . S
C967 C966 1.399 . S
C967 C968 1.376 . S
C968 H955 0.930 . S
C968 C967 1.376 . S
C968 C969 1.388 . S
C969 H956 0.930 . S
C969 C968 1.388 . S
C969 C970 1.390 . S
C970 C969 1.390 . S
C970 C971 1.394 . S
C970 C976 1.465 . S
C971 C966 1.399 . S
C971 C970 1.394 . S
C971 C972 1.516 . S
C972 C971 1.516 . S
C972 C973 1.502 . S
C972 C974 1.561 . S
C972 C975 1.526 . S
C973 H957 0.959 . S
C973 H958 0.959 . S
C973 H959 0.961 . S
C973 C972 1.502 . S
C974 H960 0.960 . S
C974 H961 0.961 . S
C974 H962 0.959 . S
C974 C972 1.561 . S
C975 C972 1.526 . S
C975 C976 1.396 . S
C975 C980 1.390 . S
C976 C970 1.465 . S
C976 C975 1.396 . S
C976 C977 1.399 . S
C977 H963 0.929 . S
C977 C976 1.399 . S
C977 C978 1.385 . S
C978 H964 0.931 . S
C978 C977 1.385 . S
C978 C979 1.389 . S
C979 C978 1.389 . S
C979 C980 1.387 . S
C980 H965 0.930 . S
C980 C975 1.390 . S
C980 C979 1.387 . S
H981 C993 0.930 . S
H982 C995 0.930 . S
H983 C996 0.930 . S
H984 C1000 0.959 . S
H985 C1000 0.959 . S
H986 C1000 0.961 . S
H987 C1001 0.960 . S
H988 C1001 0.961 . S
H989 C1001 0.959 . S
H990 C1004 0.929 . S
H991 C1005 0.931 . S
H992 C1007 0.930 . S
C993 H981 0.930 . S
C993 C994 1.399 . S
C993 C998 1.399 1_565 S
C994 C993 1.399 . S
C994 C995 1.376 . S
C995 H982 0.930 . S
C995 C994 1.376 . S
C995 C996 1.388 . S
C996 H983 0.930 . S
C996 C995 1.388 . S
C996 C997 1.390 1_565 S
C997 C996 1.390 1_545 S
C997 C998 1.394 . S
C997 C1003 1.465 . S
C998 C993 1.399 1_545 S
C998 C997 1.394 . S
C998 C999 1.516 . S
C999 C998 1.516 . S
C999 C1000 1.502 . S
C999 C1001 1.561 . S
C999 C1002 1.526 . S
C1000 H984 0.959 . S
C1000 H985 0.959 . S
C1000 H986 0.961 . S
C1000 C999 1.502 . S
C1001 H987 0.960 . S
C1001 H988 0.961 . S
C1001 H989 0.959 . S
C1001 C999 1.561 . S
C1002 C999 1.526 . S
C1002 C1003 1.396 . S
C1002 C1007 1.390 . S
C1003 C997 1.465 . S
C1003 C1002 1.396 . S
C1003 C1004 1.399 . S
C1004 H990 0.929 . S
C1004 C1003 1.399 . S
C1004 C1005 1.385 . S
C1005 H991 0.931 . S
C1005 C1004 1.385 . S
C1005 C1006 1.389 . S
C1006 C1005 1.389 . S
C1006 C1007 1.387 . S
C1007 H992 0.930 . S
C1007 C1002 1.390 . S
C1007 C1006 1.387 . S
H1008 C1020 0.930 . S
H1009 C1022 0.930 . S
H1010 C1023 0.930 . S
H1011 C1027 0.959 . S
H1012 C1027 0.959 . S
H1013 C1027 0.961 . S
H1014 C1028 0.960 . S
H1015 C1028 0.961 . S
H1016 C1028 0.959 . S
H1017 C1031 0.929 . S
H1018 C1032 0.931 . S
H1019 C1034 0.930 . S
C1020 H1008 0.930 . S
C1020 C1021 1.399 . S
C1020 C1025 1.399 . S
C1021 C1020 1.399 . S
C1021 C1022 1.376 . S
C1022 H1009 0.930 . S
C1022 C1021 1.376 . S
C1022 C1023 1.388 . S
C1023 H1010 0.930 . S
C1023 C1022 1.388 . S
C1023 C1024 1.390 . S
C1024 C1023 1.390 . S
C1024 C1025 1.394 . S
C1024 C1030 1.465 . S
C1025 C1020 1.399 . S
C1025 C1024 1.394 . S
C1025 C1026 1.516 . S
C1026 C1025 1.516 . S
C1026 C1027 1.502 . S
C1026 C1028 1.561 . S
C1026 C1029 1.526 . S
C1027 H1011 0.959 . S
C1027 H1012 0.959 . S
C1027 H1013 0.961 . S
C1027 C1026 1.502 . S
C1028 H1014 0.960 . S
C1028 H1015 0.961 . S
C1028 H1016 0.959 . S
C1028 C1026 1.561 . S
C1029 C1026 1.526 . S
C1029 C1030 1.396 . S
C1029 C1034 1.390 . S
C1030 C1024 1.465 . S
C1030 C1029 1.396 . S
C1030 C1031 1.399 . S
C1031 H1017 0.929 . S
C1031 C1030 1.399 . S
C1031 C1032 1.385 . S
C1032 H1018 0.931 . S
C1032 C1031 1.385 . S
C1032 C1033 1.389 . S
C1033 C1032 1.389 . S
C1033 C1034 1.387 . S
C1034 H1019 0.930 . S
C1034 C1029 1.390 . S
C1034 C1033 1.387 . S
H1035 C1047 0.930 . S
H1036 C1049 0.930 . S
H1037 C1050 0.930 . S
H1038 C1054 0.959 . S
H1039 C1054 0.959 . S
H1040 C1054 0.961 . S
H1041 C1055 0.960 . S
H1042 C1055 0.961 . S
H1043 C1055 0.959 . S
H1044 C1058 0.929 . S
H1045 C1059 0.931 . S
H1046 C1061 0.930 . S
C1047 H1035 0.930 . S
C1047 C1048 1.399 . S
C1047 C1052 1.399 . S
C1048 C1047 1.399 . S
C1048 C1049 1.376 . S
C1049 H1036 0.930 . S
C1049 C1048 1.376 . S
C1049 C1050 1.388 . S
C1050 H1037 0.930 . S
C1050 C1049 1.388 . S
C1050 C1051 1.390 . S
C1051 C1050 1.390 . S
C1051 C1052 1.394 . S
C1051 C1057 1.465 . S
C1052 C1047 1.399 . S
C1052 C1051 1.394 . S
C1052 C1053 1.516 . S
C1053 C1052 1.516 . S
C1053 C1054 1.502 . S
C1053 C1055 1.561 . S
C1053 C1056 1.526 . S
C1054 H1038 0.959 . S
C1054 H1039 0.959 . S
C1054 H1040 0.961 . S
C1054 C1053 1.502 . S
C1055 H1041 0.960 . S
C1055 H1042 0.961 . S
C1055 H1043 0.959 . S
C1055 C1053 1.561 . S
C1056 C1053 1.526 . S
C1056 C1057 1.396 . S
C1056 C1061 1.390 . S
C1057 C1051 1.465 . S
C1057 C1056 1.396 . S
C1057 C1058 1.399 . S
C1058 H1044 0.929 . S
C1058 C1057 1.399 . S
C1058 C1059 1.385 . S
C1059 H1045 0.931 . S
C1059 C1058 1.385 . S
C1059 C1060 1.389 . S
C1060 C1059 1.389 . S
C1060 C1061 1.387 . S
C1061 H1046 0.930 . S
C1061 C1056 1.390 . S
C1061 C1060 1.387 . S
H1062 C1074 0.930 . S
H1063 C1076 0.930 . S
H1064 C1077 0.930 . S
H1065 C1081 0.959 . S
H1066 C1081 0.959 . S
H1067 C1081 0.961 . S
H1068 C1082 0.960 . S
H1069 C1082 0.961 . S
H1070 C1082 0.959 . S
H1071 C1085 0.929 . S
H1072 C1086 0.931 . S
H1073 C1088 0.930 . S
C1074 H1062 0.930 . S
C1074 C1075 1.399 . S
C1074 C1079 1.399 . S
C1075 C1074 1.399 . S
C1075 C1076 1.376 . S
C1076 H1063 0.930 . S
C1076 C1075 1.376 . S
C1076 C1077 1.388 . S
C1077 H1064 0.930 . S
C1077 C1076 1.388 . S
C1077 C1078 1.390 . S
C1078 C1077 1.390 . S
C1078 C1079 1.394 . S
C1078 C1084 1.465 . S
C1079 C1074 1.399 . S
C1079 C1078 1.394 . S
C1079 C1080 1.516 . S
C1080 C1079 1.516 . S
C1080 C1081 1.502 . S
C1080 C1082 1.561 . S
C1080 C1083 1.526 . S
C1081 H1065 0.959 . S
C1081 H1066 0.959 . S
C1081 H1067 0.961 . S
C1081 C1080 1.502 . S
C1082 H1068 0.960 . S
C1082 H1069 0.961 . S
C1082 H1070 0.959 . S
C1082 C1080 1.561 . S
C1083 C1080 1.526 . S
C1083 C1084 1.396 . S
C1083 C1088 1.390 . S
C1084 C1078 1.465 . S
C1084 C1083 1.396 . S
C1084 C1085 1.399 . S
C1085 H1071 0.929 . S
C1085 C1084 1.399 . S
C1085 C1086 1.385 . S
C1086 H1072 0.931 . S
C1086 C1085 1.385 . S
C1086 C1087 1.389 . S
C1087 C1086 1.389 . S
C1087 C1088 1.387 . S
C1088 H1073 0.930 . S
C1088 C1083 1.390 . S
C1088 C1087 1.387 . S
H1089 C1101 0.930 . S
H1090 C1103 0.930 . S
H1091 C1104 0.930 . S
H1092 C1108 0.959 . S
H1093 C1108 0.959 . S
H1094 C1108 0.961 . S
H1095 C1109 0.960 . S
H1096 C1109 0.961 . S
H1097 C1109 0.959 . S
H1098 C1112 0.929 . S
H1099 C1113 0.931 . S
H1100 C1115 0.930 . S
C1101 H1089 0.930 . S
C1101 C1102 1.399 . S
C1101 C1106 1.399 1_455 S
C1102 C1101 1.399 . S
C1102 C1103 1.376 . S
C1103 H1090 0.930 . S
C1103 C1102 1.376 . S
C1103 C1104 1.388 1_455 S
C1104 H1091 0.930 . S
C1104 C1103 1.388 1_655 S
C1104 C1105 1.390 . S
C1105 C1104 1.390 . S
C1105 C1106 1.394 . S
C1105 C1111 1.465 . S
C1106 C1101 1.399 1_655 S
C1106 C1105 1.394 . S
C1106 C1107 1.516 . S
C1107 C1106 1.516 . S
C1107 C1108 1.502 . S
C1107 C1109 1.561 . S
C1107 C1110 1.526 . S
C1108 H1092 0.959 . S
C1108 H1093 0.959 . S
C1108 H1094 0.961 . S
C1108 C1107 1.502 . S
C1109 H1095 0.960 . S
C1109 H1096 0.961 . S
C1109 H1097 0.959 . S
C1109 C1107 1.561 . S
C1110 C1107 1.526 . S
C1110 C1111 1.396 . S
C1110 C1115 1.390 . S
C1111 C1105 1.465 . S
C1111 C1110 1.396 . S
C1111 C1112 1.399 . S
C1112 H1098 0.929 . S
C1112 C1111 1.399 . S
C1112 C1113 1.385 . S
C1113 H1099 0.931 . S
C1113 C1112 1.385 . S
C1113 C1114 1.389 . S
C1114 C1113 1.389 . S
C1114 C1115 1.387 . S
C1115 H1100 0.930 . S
C1115 C1110 1.390 . S
C1115 C1114 1.387 . S
H1116 C1128 0.930 . S
H1117 C1130 0.930 . S
H1118 C1131 0.930 . S
H1119 C1135 0.959 . S
H1120 C1135 0.959 . S
H1121 C1135 0.961 . S
H1122 C1136 0.960 . S
H1123 C1136 0.961 . S
H1124 C1136 0.959 . S
H1125 C1139 0.929 . S
H1126 C1140 0.931 . S
H1127 C1142 0.930 . S
C1128 H1116 0.930 . S
C1128 C1129 1.399 . S
C1128 C1133 1.399 . S
C1129 C1128 1.399 . S
C1129 C1130 1.376 . S
C1130 H1117 0.930 . S
C1130 C1129 1.376 . S
C1130 C1131 1.388 . S
C1131 H1118 0.930 . S
C1131 C1130 1.388 . S
C1131 C1132 1.390 . S
C1132 C1131 1.390 . S
C1132 C1133 1.394 . S
C1132 C1138 1.465 . S
C1133 C1128 1.399 . S
C1133 C1132 1.394 . S
C1133 C1134 1.516 . S
C1134 C1133 1.516 . S
C1134 C1135 1.502 . S
C1134 C1136 1.561 . S
C1134 C1137 1.526 . S
C1135 H1119 0.959 . S
C1135 H1120 0.959 . S
C1135 H1121 0.961 . S
C1135 C1134 1.502 . S
C1136 H1122 0.960 . S
C1136 H1123 0.961 . S
C1136 H1124 0.959 . S
C1136 C1134 1.561 . S
C1137 C1134 1.526 . S
C1137 C1138 1.396 . S
C1137 C1142 1.390 . S
C1138 C1132 1.465 . S
C1138 C1137 1.396 . S
C1138 C1139 1.399 . S
C1139 H1125 0.929 . S
C1139 C1138 1.399 . S
C1139 C1140 1.385 . S
C1140 H1126 0.931 . S
C1140 C1139 1.385 . S
C1140 C1141 1.389 . S
C1141 C1140 1.389 . S
C1141 C1142 1.387 . S
C1142 H1127 0.930 . S
C1142 C1137 1.390 . S
C1142 C1141 1.387 . S
H1143 C1155 0.930 . S
H1144 C1157 0.930 . S
H1145 C1158 0.930 . S
H1146 C1162 0.959 . S
H1147 C1162 0.959 . S
H1148 C1162 0.961 . S
H1149 C1163 0.960 . S
H1150 C1163 0.961 . S
H1151 C1163 0.959 . S
H1152 C1166 0.929 . S
H1153 C1167 0.931 . S
H1154 C1169 0.930 . S
C1155 H1143 0.930 . S
C1155 C1156 1.399 . S
C1155 C1160 1.399 . S
C1156 C1155 1.399 . S
C1156 C1157 1.376 . S
C1157 H1144 0.930 . S
C1157 C1156 1.376 . S
C1157 C1158 1.388 . S
C1158 H1145 0.930 . S
C1158 C1157 1.388 . S
C1158 C1159 1.390 . S
C1159 C1158 1.390 . S
C1159 C1160 1.394 . S
C1159 C1165 1.465 . S
C1160 C1155 1.399 . S
C1160 C1159 1.394 . S
C1160 C1161 1.516 . S
C1161 C1160 1.516 . S
C1161 C1162 1.502 . S
C1161 C1163 1.561 . S
C1161 C1164 1.526 . S
C1162 H1146 0.959 . S
C1162 H1147 0.959 . S
C1162 H1148 0.961 . S
C1162 C1161 1.502 . S
C1163 H1149 0.960 . S
C1163 H1150 0.961 . S
C1163 H1151 0.959 . S
C1163 C1161 1.561 . S
C1164 C1161 1.526 . S
C1164 C1165 1.396 . S
C1164 C1169 1.390 . S
C1165 C1159 1.465 . S
C1165 C1164 1.396 . S
C1165 C1166 1.399 . S
C1166 H1152 0.929 . S
C1166 C1165 1.399 . S
C1166 C1167 1.385 . S
C1167 H1153 0.931 . S
C1167 C1166 1.385 . S
C1167 C1168 1.389 . S
C1168 C1167 1.389 . S
C1168 C1169 1.387 . S
C1169 H1154 0.930 . S
C1169 C1164 1.390 . S
C1169 C1168 1.387 . S
H1170 C1182 0.930 . S
H1171 C1184 0.930 . S
H1172 C1185 0.930 . S
H1173 C1189 0.959 . S
H1174 C1189 0.959 . S
H1175 C1189 0.961 . S
H1176 C1190 0.960 . S
H1177 C1190 0.961 . S
H1178 C1190 0.959 . S
H1179 C1193 0.929 . S
H1180 C1194 0.931 . S
H1181 C1196 0.930 . S
C1182 H1170 0.930 . S
C1182 C1183 1.399 . S
C1182 C1187 1.399 . S
C1183 C1182 1.399 . S
C1183 C1184 1.376 . S
C1184 H1171 0.930 . S
C1184 C1183 1.376 . S
C1184 C1185 1.388 . S
C1185 H1172 0.930 . S
C1185 C1184 1.388 . S
C1185 C1186 1.390 . S
C1186 C1185 1.390 . S
C1186 C1187 1.394 . S
C1186 C1192 1.465 . S
C1187 C1182 1.399 . S
C1187 C1186 1.394 . S
C1187 C1188 1.516 . S
C1188 C1187 1.516 . S
C1188 C1189 1.502 . S
C1188 C1190 1.561 . S
C1188 C1191 1.526 . S
C1189 H1173 0.959 . S
C1189 H1174 0.959 . S
C1189 H1175 0.961 . S
C1189 C1188 1.502 . S
C1190 H1176 0.960 . S
C1190 H1177 0.961 . S
C1190 H1178 0.959 . S
C1190 C1188 1.561 . S
C1191 C1188 1.526 . S
C1191 C1192 1.396 . S
C1191 C1196 1.390 . S
C1192 C1186 1.465 . S
C1192 C1191 1.396 . S
C1192 C1193 1.399 . S
C1193 H1179 0.929 . S
C1193 C1192 1.399 . S
C1193 C1194 1.385 . S
C1194 H1180 0.931 . S
C1194 C1193 1.385 . S
C1194 C1195 1.389 . S
C1195 C1194 1.389 . S
C1195 C1196 1.387 . S
C1196 H1181 0.930 . S
C1196 C1191 1.390 . S
C1196 C1195 1.387 . S
H1197 C1209 0.930 . S
H1198 C1211 0.930 . S
H1199 C1212 0.930 . S
H1200 C1216 0.959 . S
H1201 C1216 0.959 . S
H1202 C1216 0.982 . S
H1203 C1217 0.960 . S
H1204 C1217 0.961 . S
H1205 C1217 0.959 . S
H1206 C1220 0.929 . S
H1207 C1221 0.931 . S
H1208 C1223 0.930 . S
C1209 H1197 0.930 . S
C1209 C1210 1.399 . S
C1209 C1214 1.399 1_655 S
C1210 C1209 1.399 . S
C1210 C1211 1.376 . S
C1211 H1198 0.930 . S
C1211 C1210 1.376 . S
C1211 C1212 1.388 1_655 S
C1212 H1199 0.930 . S
C1212 C1211 1.388 1_455 S
C1212 C1213 1.390 . S
C1213 C1212 1.390 . S
C1213 C1214 1.394 . S
C1213 C1219 1.465 . S
C1214 C1209 1.399 1_455 S
C1214 C1213 1.394 . S
C1214 C1215 1.516 . S
C1215 C1214 1.516 . S
C1215 C1216 1.502 . S
C1215 C1217 1.561 . S
C1215 C1218 1.526 . S
C1216 H1200 0.959 . S
C1216 H1201 0.959 . S
C1216 H1202 0.982 . S
C1216 C1215 1.502 . S
C1217 H1203 0.960 . S
C1217 H1204 0.961 . S
C1217 H1205 0.959 . S
C1217 C1215 1.561 . S
C1218 C1215 1.526 . S
C1218 C1219 1.396 . S
C1218 C1223 1.390 . S
C1219 C1213 1.465 . S
C1219 C1218 1.396 . S
C1219 C1220 1.399 . S
C1220 H1206 0.929 . S
C1220 C1219 1.399 . S
C1220 C1221 1.385 . S
C1221 H1207 0.931 . S
C1221 C1220 1.385 . S
C1221 C1222 1.389 . S
C1222 C1221 1.389 . S
C1222 C1223 1.387 . S
C1223 H1208 0.930 . S
C1223 C1218 1.390 . S
C1223 C1222 1.387 . S
H1224 C1236 0.930 . S
H1225 C1238 0.930 . S
H1226 C1239 0.930 . S
H1227 C1243 0.959 . S
H1228 C1243 0.959 . S
H1229 C1243 0.961 . S
H1230 C1244 0.960 . S
H1231 C1244 0.961 . S
H1232 C1244 0.959 . S
H1233 C1247 0.929 . S
H1234 C1248 0.931 . S
H1235 C1250 0.930 . S
C1236 H1224 0.930 . S
C1236 C1237 1.399 . S
C1236 C1241 1.399 . S
C1237 C1236 1.399 . S
C1237 C1238 1.376 . S
C1238 H1225 0.930 . S
C1238 C1237 1.376 . S
C1238 C1239 1.388 . S
C1239 H1226 0.930 . S
C1239 C1238 1.388 . S
C1239 C1240 1.390 . S
C1240 C1239 1.390 . S
C1240 C1241 1.394 . S
C1240 C1246 1.465 . S
C1241 C1236 1.399 . S
C1241 C1240 1.394 . S
C1241 C1242 1.516 . S
C1242 C1241 1.516 . S
C1242 C1243 1.502 . S
C1242 C1244 1.561 . S
C1242 C1245 1.526 . S
C1243 H1227 0.959 . S
C1243 H1228 0.959 . S
C1243 H1229 0.961 . S
C1243 C1242 1.502 . S
C1244 H1230 0.960 . S
C1244 H1231 0.961 . S
C1244 H1232 0.959 . S
C1244 C1242 1.561 . S
C1245 C1242 1.526 . S
C1245 C1246 1.396 . S
C1245 C1250 1.390 . S
C1246 C1240 1.465 . S
C1246 C1245 1.396 . S
C1246 C1247 1.399 . S
C1247 H1233 0.929 . S
C1247 C1246 1.399 . S
C1247 C1248 1.385 . S
C1248 H1234 0.931 . S
C1248 C1247 1.385 . S
C1248 C1249 1.389 . S
C1249 C1248 1.389 . S
C1249 C1250 1.387 . S
C1250 H1235 0.930 . S
C1250 C1245 1.390 . S
C1250 C1249 1.387 . S
H1251 C1263 0.930 . S
H1252 C1265 0.930 . S
H1253 C1266 0.930 . S
H1254 C1270 0.959 . S
H1255 C1270 0.936 1_565 S
H1256 C1270 0.961 . S
H1257 C1271 0.960 . S
H1258 C1271 0.961 . S
H1259 C1271 0.959 1_545 S
H1260 C1274 0.929 . S
H1261 C1275 0.931 . S
H1262 C1277 0.930 1_565 S
C1263 H1251 0.930 . S
C1263 C1264 1.399 . S
C1263 C1268 1.399 . S
C1264 C1263 1.399 . S
C1264 C1265 1.376 . S
C1265 H1252 0.930 . S
C1265 C1264 1.376 . S
C1265 C1266 1.388 . S
C1266 H1253 0.930 . S
C1266 C1265 1.388 . S
C1266 C1267 1.390 . S
C1267 C1266 1.390 . S
C1267 C1268 1.394 . S
C1267 C1273 1.465 . S
C1268 C1263 1.399 . S
C1268 C1267 1.394 . S
C1268 C1269 1.516 . S
C1269 C1268 1.516 . S
C1269 C1270 1.502 . S
C1269 C1271 1.561 1_545 S
C1269 C1272 1.526 . S
C1270 H1254 0.959 . S
C1270 H1255 0.936 1_545 S
C1270 H1256 0.961 . S
C1270 C1269 1.502 . S
C1271 H1257 0.960 . S
C1271 H1258 0.961 . S
C1271 H1259 0.959 1_565 S
C1271 C1269 1.561 1_565 S
C1272 C1269 1.526 . S
C1272 C1273 1.396 . S
C1272 C1277 1.390 . S
C1273 C1267 1.465 . S
C1273 C1272 1.396 . S
C1273 C1274 1.399 . S
C1274 H1260 0.929 . S
C1274 C1273 1.399 . S
C1274 C1275 1.385 . S
C1275 H1261 0.931 . S
C1275 C1274 1.385 . S
C1275 C1276 1.389 . S
C1276 C1275 1.389 . S
C1276 C1277 1.387 . S
C1277 H1262 0.930 1_545 S
C1277 C1272 1.390 . S
C1277 C1276 1.387 . S
H1278 C1290 0.930 . S
H1279 C1292 0.930 . S
H1280 C1293 0.930 . S
H1281 C1297 0.959 . S
H1282 C1297 0.959 . S
H1283 C1297 0.961 . S
H1284 C1298 0.960 . S
H1285 C1298 0.961 . S
H1286 C1298 0.959 . S
H1287 C1301 0.929 . S
H1288 C1302 0.931 . S
H1289 C1304 0.930 . S
C1290 H1278 0.930 . S
C1290 C1291 1.399 . S
C1290 C1295 1.399 . S
C1291 C1290 1.399 . S
C1291 C1292 1.376 . S
C1292 H1279 0.930 . S
C1292 C1291 1.376 . S
C1292 C1293 1.388 . S
C1293 H1280 0.930 . S
C1293 C1292 1.388 . S
C1293 C1294 1.390 . S
C1294 C1293 1.390 . S
C1294 C1295 1.394 . S
C1294 C1300 1.465 . S
C1295 C1290 1.399 . S
C1295 C1294 1.394 . S
C1295 C1296 1.516 . S
C1296 C1295 1.516 . S
C1296 C1297 1.502 . S
C1296 C1298 1.561 . S
C1296 C1299 1.526 . S
C1297 H1281 0.959 . S
C1297 H1282 0.959 . S
C1297 H1283 0.961 . S
C1297 C1296 1.502 . S
C1298 H1284 0.960 . S
C1298 H1285 0.961 . S
C1298 H1286 0.959 . S
C1298 C1296 1.561 . S
C1299 C1296 1.526 . S
C1299 C1300 1.396 . S
C1299 C1304 1.390 . S
C1300 C1294 1.465 . S
C1300 C1299 1.396 . S
C1300 C1301 1.399 . S
C1301 H1287 0.929 . S
C1301 C1300 1.399 . S
C1301 C1302 1.385 . S
C1302 H1288 0.931 . S
C1302 C1301 1.385 . S
C1302 C1303 1.389 . S
C1303 C1302 1.389 . S
C1303 C1304 1.387 . S
C1304 H1289 0.930 . S
C1304 C1299 1.390 . S
C1304 C1303 1.387 . S
H1305 C1317 0.930 . S
H1306 C1319 0.930 1_545 S
H1307 C1320 0.930 . S
H1308 C1324 0.959 . S
H1309 C1324 0.959 . S
H1310 C1324 0.961 . S
H1311 C1325 0.960 . S
H1312 C1325 0.961 . S
H1313 C1325 0.959 . S
H1314 C1328 0.929 . S
H1315 C1329 0.931 . S
H1316 C1331 0.930 . S
C1317 H1305 0.930 . S
C1317 C1318 1.399 . S
C1317 C1322 1.399 . S
C1318 C1317 1.399 . S
C1318 C1319 1.376 . S
C1319 H1306 0.930 1_565 S
C1319 C1318 1.376 . S
C1319 C1320 1.388 . S
C1320 H1307 0.930 . S
C1320 C1319 1.388 . S
C1320 C1321 1.390 . S
C1321 C1320 1.390 . S
C1321 C1322 1.394 . S
C1321 C1327 1.465 . S
C1322 C1317 1.399 . S
C1322 C1321 1.394 . S
C1322 C1323 1.516 . S
C1323 C1322 1.516 . S
C1323 C1324 1.502 . S
C1323 C1325 1.561 . S
C1323 C1326 1.526 . S
C1324 H1308 0.959 . S
C1324 H1309 0.959 . S
C1324 H1310 0.961 . S
C1324 C1323 1.502 . S
C1325 H1311 0.960 . S
C1325 H1312 0.961 . S
C1325 H1313 0.959 . S
C1325 C1323 1.561 . S
C1326 C1323 1.526 . S
C1326 C1327 1.396 . S
C1326 C1331 1.390 . S
C1327 C1321 1.465 . S
C1327 C1326 1.396 . S
C1327 C1328 1.399 . S
C1328 H1314 0.929 . S
C1328 C1327 1.399 . S
C1328 C1329 1.385 . S
C1329 H1315 0.931 . S
C1329 C1328 1.385 . S
C1329 C1330 1.389 . S
C1330 C1329 1.389 . S
C1330 C1331 1.387 . S
C1331 H1316 0.930 . S
C1331 C1326 1.390 . S
C1331 C1330 1.387 . S
H1332 C1344 0.930 . S
H1333 C1346 0.930 . S
H1334 C1347 0.930 . S
H1335 C1351 0.959 . S
H1336 C1351 0.959 . S
H1337 C1351 0.961 . S
H1338 C1352 0.960 . S
H1339 C1352 0.961 . S
H1340 C1352 0.959 . S
H1341 C1355 0.929 . S
H1342 C1356 0.931 . S
H1343 C1358 0.930 . S
C1344 H1332 0.930 . S
C1344 C1345 1.399 . S
C1344 C1349 1.399 . S
C1345 C1344 1.399 . S
C1345 C1346 1.376 . S
C1346 H1333 0.930 . S
C1346 C1345 1.376 . S
C1346 C1347 1.388 . S
C1347 H1334 0.930 . S
C1347 C1346 1.388 . S
C1347 C1348 1.390 . S
C1348 C1347 1.390 . S
C1348 C1349 1.394 . S
C1348 C1354 1.465 . S
C1349 C1344 1.399 . S
C1349 C1348 1.394 . S
C1349 C1350 1.516 . S
C1350 C1349 1.516 . S
C1350 C1351 1.502 . S
C1350 C1352 1.561 . S
C1350 C1353 1.526 . S
C1351 H1335 0.959 . S
C1351 H1336 0.959 . S
C1351 H1337 0.961 . S
C1351 C1350 1.502 . S
C1352 H1338 0.960 . S
C1352 H1339 0.961 . S
C1352 H1340 0.959 . S
C1352 C1350 1.561 . S
C1353 C1350 1.526 . S
C1353 C1354 1.396 . S
C1353 C1358 1.390 1_554 S
C1354 C1348 1.465 . S
C1354 C1353 1.396 . S
C1354 C1355 1.399 1_554 S
C1355 H1341 0.929 . S
C1355 C1354 1.399 1_556 S
C1355 C1356 1.385 . S
C1356 H1342 0.931 . S
C1356 C1355 1.385 . S
C1356 C1357 1.389 . S
C1357 C1356 1.389 . S
C1357 C1358 1.387 . S
C1358 H1343 0.930 . S
C1358 C1353 1.390 1_556 S
C1358 C1357 1.387 . S
H1359 C1371 0.930 . S
H1360 C1373 0.930 . S
H1361 C1374 0.930 . S
H1362 C1378 0.959 . S
H1363 C1378 0.959 . S
H1364 C1378 0.961 . S
H1365 C1379 0.960 . S
H1366 C1379 0.961 . S
H1367 C1379 0.959 . S
H1368 C1382 0.929 . S
H1369 C1383 0.931 . S
H1370 C1385 0.930 . S
C1371 H1359 0.930 . S
C1371 C1372 1.399 . S
C1371 C1376 1.399 . S
C1372 C1371 1.399 . S
C1372 C1373 1.376 . S
C1373 H1360 0.930 . S
C1373 C1372 1.376 . S
C1373 C1374 1.388 . S
C1374 H1361 0.930 . S
C1374 C1373 1.388 . S
C1374 C1375 1.390 . S
C1375 C1374 1.390 . S
C1375 C1376 1.394 . S
C1375 C1381 1.465 . S
C1376 C1371 1.399 . S
C1376 C1375 1.394 . S
C1376 C1377 1.516 . S
C1377 C1376 1.516 . S
C1377 C1378 1.502 . S
C1377 C1379 1.561 . S
C1377 C1380 1.526 . S
C1378 H1362 0.959 . S
C1378 H1363 0.959 . S
C1378 H1364 0.961 . S
C1378 C1377 1.502 . S
C1379 H1365 0.960 . S
C1379 H1366 0.961 . S
C1379 H1367 0.959 . S
C1379 C1377 1.561 . S
C1380 C1377 1.526 . S
C1380 C1381 1.396 . S
C1380 C1385 1.390 . S
C1381 C1375 1.465 . S
C1381 C1380 1.396 . S
C1381 C1382 1.399 . S
C1382 H1368 0.929 . S
C1382 C1381 1.399 . S
C1382 C1383 1.385 . S
C1383 H1369 0.931 . S
C1383 C1382 1.385 . S
C1383 C1384 1.389 . S
C1384 C1383 1.389 . S
C1384 C1385 1.387 . S
C1385 H1370 0.930 . S
C1385 C1380 1.390 . S
C1385 C1384 1.387 . S
H1386 C1398 0.930 . S
H1387 C1400 0.930 . S
H1388 C1401 0.930 . S
H1389 C1405 0.959 . S
H1390 C1405 0.959 . S
H1391 C1405 0.961 . S
H1392 C1406 0.960 . S
H1393 C1406 0.961 . S
H1394 C1406 0.959 . S
H1395 C1409 0.929 . S
H1396 C1410 0.931 . S
H1397 C1412 0.930 . S
C1398 H1386 0.930 . S
C1398 C1399 1.399 . S
C1398 C1403 1.399 . S
C1399 C1398 1.399 . S
C1399 C1400 1.376 . S
C1400 H1387 0.930 . S
C1400 C1399 1.376 . S
C1400 C1401 1.388 . S
C1401 H1388 0.930 . S
C1401 C1400 1.388 . S
C1401 C1402 1.390 . S
C1402 C1401 1.390 . S
C1402 C1403 1.394 . S
C1402 C1408 1.465 . S
C1403 C1398 1.399 . S
C1403 C1402 1.394 . S
C1403 C1404 1.516 . S
C1404 C1403 1.516 . S
C1404 C1405 1.502 . S
C1404 C1406 1.561 . S
C1404 C1407 1.526 . S
C1405 H1389 0.959 . S
C1405 H1390 0.959 . S
C1405 H1391 0.961 . S
C1405 C1404 1.502 . S
C1406 H1392 0.960 . S
C1406 H1393 0.961 . S
C1406 H1394 0.959 . S
C1406 C1404 1.561 . S
C1407 C1404 1.526 . S
C1407 C1408 1.396 . S
C1407 C1412 1.390 . S
C1408 C1402 1.465 . S
C1408 C1407 1.396 . S
C1408 C1409 1.399 . S
C1409 H1395 0.929 . S
C1409 C1408 1.399 . S
C1409 C1410 1.385 . S
C1410 H1396 0.931 . S
C1410 C1409 1.385 . S
C1410 C1411 1.389 . S
C1411 C1410 1.389 . S
C1411 C1412 1.387 . S
C1412 H1397 0.930 . S
C1412 C1407 1.390 . S
C1412 C1411 1.387 . S
H1413 C1425 0.930 . S
H1414 C1427 0.930 . S
H1415 C1428 0.930 . S
H1416 C1432 0.959 . S
H1417 C1432 0.959 . S
H1418 C1432 0.961 . S
H1419 C1433 0.960 1_554 S
H1420 C1433 0.961 . S
H1421 C1433 0.959 . S
H1422 C1436 0.929 . S
H1423 C1437 0.931 . S
H1424 C1439 0.930 . S
C1425 H1413 0.930 . S
C1425 C1426 1.399 . S
C1425 C1430 1.399 1_554 S
C1426 C1425 1.399 . S
C1426 C1427 1.376 . S
C1427 H1414 0.930 . S
C1427 C1426 1.376 . S
C1427 C1428 1.388 1_554 S
C1428 H1415 0.930 . S
C1428 C1427 1.388 1_556 S
C1428 C1429 1.390 . S
C1429 C1428 1.390 . S
C1429 C1430 1.394 . S
C1429 C1435 1.465 . S
C1430 C1425 1.399 1_556 S
C1430 C1429 1.394 . S
C1430 C1431 1.516 . S
C1431 C1430 1.516 . S
C1431 C1432 1.502 . S
C1431 C1433 1.561 . S
C1431 C1434 1.526 . S
C1432 H1416 0.959 . S
C1432 H1417 0.959 . S
C1432 H1418 0.961 . S
C1432 C1431 1.502 . S
C1433 H1419 0.960 1_556 S
C1433 H1420 0.961 . S
C1433 H1421 0.959 . S
C1433 C1431 1.561 . S
C1434 C1431 1.526 . S
C1434 C1435 1.396 . S
C1434 C1439 1.390 . S
C1435 C1429 1.465 . S
C1435 C1434 1.396 . S
C1435 C1436 1.399 . S
C1436 H1422 0.929 . S
C1436 C1435 1.399 . S
C1436 C1437 1.385 . S
C1437 H1423 0.931 . S
C1437 C1436 1.385 . S
C1437 C1438 1.389 . S
C1438 C1437 1.389 . S
C1438 C1439 1.387 . S
C1439 H1424 0.930 . S
C1439 C1434 1.390 . S
C1439 C1438 1.387 . S
H1440 C1452 0.930 . S
H1441 C1454 0.930 . S
H1442 C1455 0.930 . S
H1443 C1459 0.959 . S
H1444 C1459 0.959 . S
H1445 C1459 0.961 . S
H1446 C1460 0.960 . S
H1447 C1460 0.961 . S
H1448 C1460 0.959 . S
H1449 C1463 0.929 . S
H1450 C1464 0.931 . S
H1451 C1466 0.930 . S
C1452 H1440 0.930 . S
C1452 C1453 1.399 . S
C1452 C1457 1.399 . S
C1453 C1452 1.399 . S
C1453 C1454 1.376 . S
C1454 H1441 0.930 . S
C1454 C1453 1.376 . S
C1454 C1455 1.388 . S
C1455 H1442 0.930 . S
C1455 C1454 1.388 . S
C1455 C1456 1.390 . S
C1456 C1455 1.390 . S
C1456 C1457 1.394 . S
C1456 C1462 1.465 . S
C1457 C1452 1.399 . S
C1457 C1456 1.394 . S
C1457 C1458 1.516 . S
C1458 C1457 1.516 . S
C1458 C1459 1.502 . S
C1458 C1460 1.561 . S
C1458 C1461 1.526 . S
C1459 H1443 0.959 . S
C1459 H1444 0.959 . S
C1459 H1445 0.961 . S
C1459 C1458 1.502 . S
C1460 H1446 0.960 . S
C1460 H1447 0.961 . S
C1460 H1448 0.959 . S
C1460 C1458 1.561 . S
C1461 C1458 1.526 . S
C1461 C1462 1.396 . S
C1461 C1466 1.390 . S
C1462 C1456 1.465 . S
C1462 C1461 1.396 . S
C1462 C1463 1.399 . S
C1463 H1449 0.929 . S
C1463 C1462 1.399 . S
C1463 C1464 1.385 . S
C1464 H1450 0.931 . S
C1464 C1463 1.385 . S
C1464 C1465 1.389 . S
C1465 C1464 1.389 . S
C1465 C1466 1.387 . S
C1466 H1451 0.930 . S
C1466 C1461 1.390 . S
C1466 C1465 1.387 . S
H1467 C1479 0.930 . S
H1468 C1481 0.930 . S
H1469 C1482 0.930 . S
H1470 C1486 0.959 . S
H1471 C1486 0.959 . S
H1472 C1486 0.961 1_556 S
H1473 C1487 0.960 . S
H1474 C1487 0.961 . S
H1475 C1487 0.959 . S
H1476 C1490 0.929 . S
H1477 C1491 0.931 . S
H1478 C1493 0.930 . S
C1479 H1467 0.930 . S
C1479 C1480 1.399 . S
C1479 C1484 1.399 . S
C1480 C1479 1.399 . S
C1480 C1481 1.376 . S
C1481 H1468 0.930 . S
C1481 C1480 1.376 . S
C1481 C1482 1.388 . S
C1482 H1469 0.930 . S
C1482 C1481 1.388 . S
C1482 C1483 1.390 . S
C1483 C1482 1.390 . S
C1483 C1484 1.394 . S
C1483 C1489 1.465 1_556 S
C1484 C1479 1.399 . S
C1484 C1483 1.394 . S
C1484 C1485 1.516 . S
C1485 C1484 1.516 . S
C1485 C1486 1.502 1_556 S
C1485 C1487 1.561 . S
C1485 C1488 1.526 1_556 S
C1486 H1470 0.959 . S
C1486 H1471 0.959 . S
C1486 H1472 0.961 1_554 S
C1486 C1485 1.502 1_554 S
C1487 H1473 0.960 . S
C1487 H1474 0.961 . S
C1487 H1475 0.959 . S
C1487 C1485 1.561 . S
C1488 C1485 1.526 1_554 S
C1488 C1489 1.396 . S
C1488 C1493 1.390 . S
C1489 C1483 1.465 1_554 S
C1489 C1488 1.396 . S
C1489 C1490 1.399 . S
C1490 H1476 0.929 . S
C1490 C1489 1.399 . S
C1490 C1491 1.385 . S
C1491 H1477 0.931 . S
C1491 C1490 1.385 . S
C1491 C1492 1.389 . S
C1492 C1491 1.389 . S
C1492 C1493 1.387 . S
C1493 H1478 0.930 . S
C1493 C1488 1.390 . S
C1493 C1492 1.387 . S
H1494 C1506 0.930 . S
H1495 C1508 0.930 . S
H1496 C1509 0.930 . S
H1497 C1513 0.959 . S
H1498 C1513 0.959 . S
H1499 C1513 0.961 . S
H1500 C1514 0.960 . S
H1501 C1514 0.961 . S
H1502 C1514 0.959 . S
H1503 C1517 0.929 . S
H1504 C1518 0.931 . S
H1505 C1520 0.930 . S
C1506 H1494 0.930 . S
C1506 C1507 1.399 . S
C1506 C1511 1.399 . S
C1507 C1506 1.399 . S
C1507 C1508 1.376 . S
C1508 H1495 0.930 . S
C1508 C1507 1.376 . S
C1508 C1509 1.388 . S
C1509 H1496 0.930 . S
C1509 C1508 1.388 . S
C1509 C1510 1.390 . S
C1510 C1509 1.390 . S
C1510 C1511 1.394 . S
C1510 C1516 1.465 . S
C1511 C1506 1.399 . S
C1511 C1510 1.394 . S
C1511 C1512 1.516 . S
C1512 C1511 1.516 . S
C1512 C1513 1.502 . S
C1512 C1514 1.561 . S
C1512 C1515 1.526 . S
C1513 H1497 0.959 . S
C1513 H1498 0.959 . S
C1513 H1499 0.961 . S
C1513 C1512 1.502 . S
C1514 H1500 0.960 . S
C1514 H1501 0.961 . S
C1514 H1502 0.959 . S
C1514 C1512 1.561 . S
C1515 C1512 1.526 . S
C1515 C1516 1.396 . S
C1515 C1520 1.390 . S
C1516 C1510 1.465 . S
C1516 C1515 1.396 . S
C1516 C1517 1.399 . S
C1517 H1503 0.929 . S
C1517 C1516 1.399 . S
C1517 C1518 1.385 . S
C1518 H1504 0.931 . S
C1518 C1517 1.385 . S
C1518 C1519 1.389 . S
C1519 C1518 1.389 . S
C1519 C1520 1.387 . S
C1520 H1505 0.930 . S
C1520 C1515 1.390 . S
C1520 C1519 1.387 . S
H1521 C1533 0.930 . S
H1522 C1535 0.930 . S
H1523 C1536 0.930 . S
H1524 C1540 0.959 . S
H1525 C1540 0.959 . S
H1526 C1540 0.961 . S
H1527 C1541 0.960 . S
H1528 C1541 0.961 . S
H1529 C1541 0.959 . S
H1530 C1544 0.929 . S
H1531 C1545 0.931 . S
H1532 C1547 0.930 1_655 S
C1533 H1521 0.930 . S
C1533 C1534 1.399 . S
C1533 C1538 1.399 . S
C1534 C1533 1.399 . S
C1534 C1535 1.376 . S
C1535 H1522 0.930 . S
C1535 C1534 1.376 . S
C1535 C1536 1.388 . S
C1536 H1523 0.930 . S
C1536 C1535 1.388 . S
C1536 C1537 1.390 . S
C1537 C1536 1.390 . S
C1537 C1538 1.394 . S
C1537 C1543 1.465 . S
C1538 C1533 1.399 . S
C1538 C1537 1.394 . S
C1538 C1539 1.516 . S
C1539 C1538 1.516 . S
C1539 C1540 1.502 1_455 S
C1539 C1541 1.561 . S
C1539 C1542 1.526 . S
C1540 H1524 0.959 . S
C1540 H1525 0.959 . S
C1540 H1526 0.961 . S
C1540 C1539 1.502 1_655 S
C1541 H1527 0.960 . S
C1541 H1528 0.961 . S
C1541 H1529 0.959 . S
C1541 C1539 1.561 . S
C1542 C1539 1.526 . S
C1542 C1543 1.396 . S
C1542 C1547 1.390 . S
C1543 C1537 1.465 . S
C1543 C1542 1.396 . S
C1543 C1544 1.399 . S
C1544 H1530 0.929 . S
C1544 C1543 1.399 . S
C1544 C1545 1.385 . S
C1545 H1531 0.931 . S
C1545 C1544 1.385 . S
C1545 C1546 1.389 . S
C1546 C1545 1.389 . S
C1546 C1547 1.387 . S
C1547 H1532 0.930 1_455 S
C1547 C1542 1.390 . S
C1547 C1546 1.387 . S
H1548 C1560 0.930 . S
H1549 C1562 0.930 . S
H1550 C1563 0.930 . S
H1551 C1567 0.959 . S
H1552 C1567 0.959 . S
H1553 C1567 0.961 . S
H1554 C1568 0.960 . S
H1555 C1568 0.961 . S
H1556 C1568 0.959 . S
H1557 C1571 0.929 . S
H1558 C1572 0.931 . S
H1559 C1574 0.930 . S
C1560 H1548 0.930 . S
C1560 C1561 1.399 . S
C1560 C1565 1.399 . S
C1561 C1560 1.399 . S
C1561 C1562 1.376 . S
C1562 H1549 0.930 . S
C1562 C1561 1.376 . S
C1562 C1563 1.388 . S
C1563 H1550 0.930 . S
C1563 C1562 1.388 . S
C1563 C1564 1.390 . S
C1564 C1563 1.390 . S
C1564 C1565 1.394 . S
C1564 C1570 1.465 . S
C1565 C1560 1.399 . S
C1565 C1564 1.394 . S
C1565 C1566 1.516 . S
C1566 C1565 1.516 . S
C1566 C1567 1.502 . S
C1566 C1568 1.561 . S
C1566 C1569 1.526 . S
C1567 H1551 0.959 . S
C1567 H1552 0.959 . S
C1567 H1553 0.961 . S
C1567 C1566 1.502 . S
C1568 H1554 0.960 . S
C1568 H1555 0.961 . S
C1568 H1556 0.959 . S
C1568 C1566 1.561 . S
C1569 C1566 1.526 . S
C1569 C1570 1.396 . S
C1569 C1574 1.390 . S
C1570 C1564 1.465 . S
C1570 C1569 1.396 . S
C1570 C1571 1.399 . S
C1571 H1557 0.929 . S
C1571 C1570 1.399 . S
C1571 C1572 1.385 . S
C1572 H1558 0.931 . S
C1572 C1571 1.385 . S
C1572 C1573 1.389 . S
C1573 C1572 1.389 . S
C1573 C1574 1.387 . S
C1574 H1559 0.930 . S
C1574 C1569 1.390 . S
C1574 C1573 1.387 . S
H1575 C1587 0.930 . S
H1576 C1589 0.930 . S
H1577 C1590 0.930 . S
H1578 C1594 0.959 . S
H1579 C1594 0.959 . S
H1580 C1594 0.961 . S
H1581 C1595 0.960 . S
H1582 C1595 0.961 . S
H1583 C1595 0.959 . S
H1584 C1598 0.929 . S
H1585 C1599 0.931 . S
H1586 C1601 0.930 . S
C1587 H1575 0.930 . S
C1587 C1588 1.399 . S
C1587 C1592 1.399 . S
C1588 C1587 1.399 . S
C1588 C1589 1.376 . S
C1589 H1576 0.930 . S
C1589 C1588 1.376 . S
C1589 C1590 1.388 . S
C1590 H1577 0.930 . S
C1590 C1589 1.388 . S
C1590 C1591 1.390 . S
C1591 C1590 1.390 . S
C1591 C1592 1.394 . S
C1591 C1597 1.465 . S
C1592 C1587 1.399 . S
C1592 C1591 1.394 . S
C1592 C1593 1.516 . S
C1593 C1592 1.516 . S
C1593 C1594 1.502 . S
C1593 C1595 1.561 . S
C1593 C1596 1.526 . S
C1594 H1578 0.959 . S
C1594 H1579 0.959 . S
C1594 H1580 0.961 . S
C1594 C1593 1.502 . S
C1595 H1581 0.960 . S
C1595 H1582 0.961 . S
C1595 H1583 0.959 . S
C1595 C1593 1.561 . S
C1596 C1593 1.526 . S
C1596 C1597 1.396 . S
C1596 C1601 1.390 . S
C1597 C1591 1.465 . S
C1597 C1596 1.396 . S
C1597 C1598 1.399 . S
C1598 H1584 0.929 . S
C1598 C1597 1.399 . S
C1598 C1599 1.385 . S
C1599 H1585 0.931 . S
C1599 C1598 1.385 . S
C1599 C1600 1.389 . S
C1600 C1599 1.389 . S
C1600 C1601 1.387 . S
C1601 H1586 0.930 . S
C1601 C1596 1.390 . S
C1601 C1600 1.387 . S
H1602 C1614 0.930 . S
H1603 C1616 0.930 . S
H1604 C1617 0.930 . S
H1605 C1621 0.959 . S
H1606 C1621 0.959 . S
H1607 C1621 0.961 . S
H1608 C1622 0.960 . S
H1609 C1622 0.961 . S
H1610 C1622 0.959 . S
H1611 C1625 0.929 . S
H1612 C1626 0.931 . S
H1613 C1628 0.930 . S
C1614 H1602 0.930 . S
C1614 C1615 1.399 . S
C1614 C1619 1.399 . S
C1615 C1614 1.399 . S
C1615 C1616 1.376 . S
C1616 H1603 0.930 . S
C1616 C1615 1.376 . S
C1616 C1617 1.388 . S
C1617 H1604 0.930 . S
C1617 C1616 1.388 . S
C1617 C1618 1.390 . S
C1618 C1617 1.390 . S
C1618 C1619 1.394 . S
C1618 C1624 1.465 . S
C1619 C1614 1.399 . S
C1619 C1618 1.394 . S
C1619 C1620 1.516 . S
C1620 C1619 1.516 . S
C1620 C1621 1.502 . S
C1620 C1622 1.561 . S
C1620 C1623 1.526 . S
C1621 H1605 0.959 . S
C1621 H1606 0.959 . S
C1621 H1607 0.961 . S
C1621 C1620 1.502 . S
C1622 H1608 0.960 . S
C1622 H1609 0.961 . S
C1622 H1610 0.959 . S
C1622 C1620 1.561 . S
C1623 C1620 1.526 . S
C1623 C1624 1.396 . S
C1623 C1628 1.390 . S
C1624 C1618 1.465 . S
C1624 C1623 1.396 . S
C1624 C1625 1.399 . S
C1625 H1611 0.929 . S
C1625 C1624 1.399 . S
C1625 C1626 1.385 . S
C1626 H1612 0.931 . S
C1626 C1625 1.385 . S
C1626 C1627 1.389 . S
C1627 C1626 1.389 . S
C1627 C1628 1.387 . S
C1628 H1613 0.930 . S
C1628 C1623 1.390 . S
C1628 C1627 1.387 . S
H1629 C1641 0.930 1_455 S
H1630 C1643 0.930 . S
H1631 C1644 0.930 . S
H1632 C1648 0.959 . S
H1633 C1648 0.959 . S
H1634 C1648 0.961 . S
H1635 C1649 0.960 . S
H1636 C1649 0.961 . S
H1637 C1649 0.959 . S
H1638 C1652 0.929 1_556 S
H1639 C1653 0.931 . S
H1640 C1655 0.930 . S
C1641 H1629 0.930 1_655 S
C1641 C1642 1.399 . S
C1641 C1646 1.399 . S
C1642 C1641 1.399 . S
C1642 C1643 1.376 . S
C1643 H1630 0.930 . S
C1643 C1642 1.376 . S
C1643 C1644 1.388 . S
C1644 H1631 0.930 . S
C1644 C1643 1.388 . S
C1644 C1645 1.390 . S
C1645 C1644 1.390 . S
C1645 C1646 1.394 . S
C1645 C1651 1.465 1_556 S
C1646 C1641 1.399 . S
C1646 C1645 1.394 . S
C1646 C1647 1.516 1_556 S
C1647 C1646 1.516 1_554 S
C1647 C1648 1.502 1_655 S
C1647 C1649 1.561 . S
C1647 C1650 1.526 . S
C1648 H1632 0.959 . S
C1648 H1633 0.959 . S
C1648 H1634 0.961 . S
C1648 C1647 1.502 1_455 S
C1649 H1635 0.960 . S
C1649 H1636 0.961 . S
C1649 H1637 0.959 . S
C1649 C1647 1.561 . S
C1650 C1647 1.526 . S
C1650 C1651 1.396 . S
C1650 C1655 1.390 . S
C1651 C1645 1.465 1_554 S
C1651 C1650 1.396 . S
C1651 C1652 1.399 . S
C1652 H1638 0.929 1_554 S
C1652 C1651 1.399 . S
C1652 C1653 1.385 . S
C1653 H1639 0.931 . S
C1653 C1652 1.385 . S
C1653 C1654 1.389 . S
C1654 C1653 1.389 . S
C1654 C1655 1.387 . S
C1655 H1640 0.930 . S
C1655 C1650 1.390 . S
C1655 C1654 1.387 . S
H1656 C1668 0.930 . S
H1657 C1670 0.930 . S
H1658 C1671 0.930 . S
H1659 C1675 0.959 . S
H1660 C1675 0.959 . S
H1661 C1675 0.961 . S
H1662 C1676 0.960 . S
H1663 C1676 0.961 . S
H1664 C1676 0.959 . S
H1665 C1679 0.929 . S
H1666 C1680 0.931 . S
H1667 C1682 0.930 . S
C1668 H1656 0.930 . S
C1668 C1669 1.399 . S
C1668 C1673 1.399 . S
C1669 C1668 1.399 . S
C1669 C1670 1.376 . S
C1670 H1657 0.930 . S
C1670 C1669 1.376 . S
C1670 C1671 1.388 . S
C1671 H1658 0.930 . S
C1671 C1670 1.388 . S
C1671 C1672 1.390 . S
C1672 C1671 1.390 . S
C1672 C1673 1.394 . S
C1672 C1678 1.465 . S
C1673 C1668 1.399 . S
C1673 C1672 1.394 . S
C1673 C1674 1.516 . S
C1674 C1673 1.516 . S
C1674 C1675 1.502 . S
C1674 C1676 1.561 . S
C1674 C1677 1.526 . S
C1675 H1659 0.959 . S
C1675 H1660 0.959 . S
C1675 H1661 0.961 . S
C1675 C1674 1.502 . S
C1676 H1662 0.960 . S
C1676 H1663 0.961 . S
C1676 H1664 0.959 . S
C1676 C1674 1.561 . S
C1677 C1674 1.526 . S
C1677 C1678 1.396 . S
C1677 C1682 1.390 . S
C1678 C1672 1.465 . S
C1678 C1677 1.396 . S
C1678 C1679 1.399 . S
C1679 H1665 0.929 . S
C1679 C1678 1.399 . S
C1679 C1680 1.385 . S
C1680 H1666 0.931 . S
C1680 C1679 1.385 . S
C1680 C1681 1.389 . S
C1681 C1680 1.389 . S
C1681 C1682 1.387 . S
C1682 H1667 0.930 . S
C1682 C1677 1.390 . S
C1682 C1681 1.387 . S
H1683 C1695 0.930 . S
H1684 C1697 0.930 . S
H1685 C1698 0.930 . S
H1686 C1702 0.959 . S
H1687 C1702 0.959 . S
H1688 C1702 0.961 . S
H1689 C1703 0.960 . S
H1690 C1703 0.961 . S
H1691 C1703 0.959 . S
H1692 C1706 0.929 . S
H1693 C1707 0.931 . S
H1694 C1709 0.930 . S
C1695 H1683 0.930 . S
C1695 C1696 1.399 . S
C1695 C1700 1.399 . S
C1696 C1695 1.399 . S
C1696 C1697 1.376 1_554 S
C1697 H1684 0.930 . S
C1697 C1696 1.376 1_556 S
C1697 C1698 1.388 . S
C1698 H1685 0.930 . S
C1698 C1697 1.388 . S
C1698 C1699 1.390 1_556 S
C1699 C1698 1.390 1_554 S
C1699 C1700 1.394 . S
C1699 C1705 1.465 . S
C1700 C1695 1.399 . S
C1700 C1699 1.394 . S
C1700 C1701 1.516 . S
C1701 C1700 1.516 . S
C1701 C1702 1.502 . S
C1701 C1703 1.561 . S
C1701 C1704 1.526 . S
C1702 H1686 0.959 . S
C1702 H1687 0.959 . S
C1702 H1688 0.961 . S
C1702 C1701 1.502 . S
C1703 H1689 0.960 . S
C1703 H1690 0.961 . S
C1703 H1691 0.959 . S
C1703 C1701 1.561 . S
C1704 C1701 1.526 . S
C1704 C1705 1.396 . S
C1704 C1709 1.390 . S
C1705 C1699 1.465 . S
C1705 C1704 1.396 . S
C1705 C1706 1.399 . S
C1706 H1692 0.929 . S
C1706 C1705 1.399 . S
C1706 C1707 1.385 . S
C1707 H1693 0.931 . S
C1707 C1706 1.385 . S
C1707 C1708 1.389 . S
C1708 C1707 1.389 . S
C1708 C1709 1.387 . S
C1709 H1694 0.930 . S
C1709 C1704 1.390 . S
C1709 C1708 1.387 . S
H1710 C1722 0.930 . S
H1711 C1724 0.930 . S
H1712 C1725 0.930 . S
H1713 C1729 0.959 . S
H1714 C1729 0.959 . S
H1715 C1729 0.961 . S
H1716 C1730 0.960 . S
H1717 C1730 0.961 . S
H1718 C1730 0.959 . S
H1719 C1733 0.929 . S
H1720 C1734 0.931 . S
H1721 C1736 0.930 . S
C1722 H1710 0.930 . S
C1722 C1723 1.399 . S
C1722 C1727 1.399 . S
C1723 C1722 1.399 . S
C1723 C1724 1.376 . S
C1724 H1711 0.930 . S
C1724 C1723 1.376 . S
C1724 C1725 1.388 . S
C1725 H1712 0.930 . S
C1725 C1724 1.388 . S
C1725 C1726 1.390 . S
C1726 C1725 1.390 . S
C1726 C1727 1.394 . S
C1726 C1732 1.465 . S
C1727 C1722 1.399 . S
C1727 C1726 1.394 . S
C1727 C1728 1.516 . S
C1728 C1727 1.516 . S
C1728 C1729 1.502 . S
C1728 C1730 1.561 . S
C1728 C1731 1.526 . S
C1729 H1713 0.959 . S
C1729 H1714 0.959 . S
C1729 H1715 0.961 . S
C1729 C1728 1.502 . S
C1730 H1716 0.960 . S
C1730 H1717 0.961 . S
C1730 H1718 0.959 . S
C1730 C1728 1.561 . S
C1731 C1728 1.526 . S
C1731 C1732 1.396 . S
C1731 C1736 1.390 . S
C1732 C1726 1.465 . S
C1732 C1731 1.396 . S
C1732 C1733 1.399 . S
C1733 H1719 0.929 . S
C1733 C1732 1.399 . S
C1733 C1734 1.385 . S
C1734 H1720 0.931 . S
C1734 C1733 1.385 . S
C1734 C1735 1.389 . S
C1735 C1734 1.389 . S
C1735 C1736 1.387 . S
C1736 H1721 0.930 . S
C1736 C1731 1.390 . S
C1736 C1735 1.387 . S
H1737 C1749 0.930 . S
H1738 C1751 0.930 . S
H1739 C1752 0.930 . S
H1740 C1756 0.959 . S
H1741 C1756 0.959 . S
H1742 C1756 0.961 . S
H1743 C1757 0.960 . S
H1744 C1757 0.961 . S
H1745 C1757 0.959 . S
H1746 C1760 0.929 . S
H1747 C1761 0.931 . S
H1748 C1763 0.930 . S
C1749 H1737 0.930 . S
C1749 C1750 1.399 . S
C1749 C1754 1.399 . S
C1750 C1749 1.399 . S
C1750 C1751 1.376 . S
C1751 H1738 0.930 . S
C1751 C1750 1.376 . S
C1751 C1752 1.388 . S
C1752 H1739 0.930 . S
C1752 C1751 1.388 . S
C1752 C1753 1.390 . S
C1753 C1752 1.390 . S
C1753 C1754 1.394 . S
C1753 C1759 1.465 . S
C1754 C1749 1.399 . S
C1754 C1753 1.394 . S
C1754 C1755 1.516 . S
C1755 C1754 1.516 . S
C1755 C1756 1.502 . S
C1755 C1757 1.561 . S
C1755 C1758 1.526 . S
C1756 H1740 0.959 . S
C1756 H1741 0.959 . S
C1756 H1742 0.961 . S
C1756 C1755 1.502 . S
C1757 H1743 0.960 . S
C1757 H1744 0.961 . S
C1757 H1745 0.959 . S
C1757 C1755 1.561 . S
C1758 C1755 1.526 . S
C1758 C1759 1.396 . S
C1758 C1763 1.390 . S
C1759 C1753 1.465 . S
C1759 C1758 1.396 . S
C1759 C1760 1.399 . S
C1760 H1746 0.929 . S
C1760 C1759 1.399 . S
C1760 C1761 1.385 . S
C1761 H1747 0.931 . S
C1761 C1760 1.385 . S
C1761 C1762 1.389 . S
C1762 C1761 1.389 . S
C1762 C1763 1.387 . S
C1763 H1748 0.930 . S
C1763 C1758 1.390 . S
C1763 C1762 1.387 . S
H1764 C1776 0.930 . S
H1765 C1778 0.930 . S
H1766 C1779 0.930 . S
H1767 C1783 0.959 . S
H1768 C1783 0.959 . S
H1769 C1783 0.961 . S
H1770 C1784 0.960 . S
H1771 C1784 0.961 . S
H1772 C1784 0.959 . S
H1773 C1787 0.929 . S
H1774 C1788 0.931 . S
H1775 C1790 0.930 . S
C1776 H1764 0.930 . S
C1776 C1777 1.399 . S
C1776 C1781 1.399 . S
C1777 C1776 1.399 . S
C1777 C1778 1.376 . S
C1778 H1765 0.930 . S
C1778 C1777 1.376 . S
C1778 C1779 1.388 . S
C1779 H1766 0.930 . S
C1779 C1778 1.388 . S
C1779 C1780 1.390 . S
C1780 C1779 1.390 . S
C1780 C1781 1.394 . S
C1780 C1786 1.465 . S
C1781 C1776 1.399 . S
C1781 C1780 1.394 . S
C1781 C1782 1.516 . S
C1782 C1781 1.516 . S
C1782 C1783 1.502 . S
C1782 C1784 1.561 . S
C1782 C1785 1.526 . S
C1783 H1767 0.959 . S
C1783 H1768 0.959 . S
C1783 H1769 0.961 . S
C1783 C1782 1.502 . S
C1784 H1770 0.960 . S
C1784 H1771 0.961 . S
C1784 H1772 0.959 . S
C1784 C1782 1.561 . S
C1785 C1782 1.526 . S
C1785 C1786 1.396 . S
C1785 C1790 1.390 . S
C1786 C1780 1.465 . S
C1786 C1785 1.396 . S
C1786 C1787 1.399 . S
C1787 H1773 0.929 . S
C1787 C1786 1.399 . S
C1787 C1788 1.385 . S
C1788 H1774 0.931 . S
C1788 C1787 1.385 . S
C1788 C1789 1.389 . S
C1789 C1788 1.389 . S
C1789 C1790 1.387 . S
C1790 H1775 0.930 . S
C1790 C1785 1.390 . S
C1790 C1789 1.387 . S
H1791 C1803 0.930 . S
H1792 C1805 0.930 . S
H1793 C1806 0.930 . S
H1794 C1810 0.959 . S
H1795 C1810 0.959 . S
H1796 C1810 0.961 . S
H1797 C1811 0.960 1_565 S
H1798 C1811 0.961 . S
H1799 C1811 0.959 . S
H1800 C1814 0.929 . S
H1801 C1815 0.931 . S
H1802 C1817 0.930 . S
C1803 H1791 0.930 . S
C1803 C1804 1.399 . S
C1803 C1808 1.399 . S
C1804 C1803 1.399 . S
C1804 C1805 1.376 . S
C1805 H1792 0.930 . S
C1805 C1804 1.376 . S
C1805 C1806 1.388 . S
C1806 H1793 0.930 . S
C1806 C1805 1.388 . S
C1806 C1807 1.390 . S
C1807 C1806 1.390 . S
C1807 C1808 1.394 . S
C1807 C1813 1.465 1_565 S
C1808 C1803 1.399 . S
C1808 C1807 1.394 . S
C1808 C1809 1.516 . S
C1809 C1808 1.516 . S
C1809 C1810 1.502 . S
C1809 C1811 1.561 1_565 S
C1809 C1812 1.526 1_565 S
C1810 H1794 0.959 . S
C1810 H1795 0.959 . S
C1810 H1796 0.961 . S
C1810 C1809 1.502 . S
C1811 H1797 0.960 1_545 S
C1811 H1798 0.961 . S
C1811 H1799 0.959 . S
C1811 C1809 1.561 1_545 S
C1812 C1809 1.526 1_545 S
C1812 C1813 1.396 . S
C1812 C1817 1.390 . S
C1813 C1807 1.465 1_545 S
C1813 C1812 1.396 . S
C1813 C1814 1.399 . S
C1814 H1800 0.929 . S
C1814 C1813 1.399 . S
C1814 C1815 1.385 . S
C1815 H1801 0.931 . S
C1815 C1814 1.385 . S
C1815 C1816 1.389 . S
C1816 C1815 1.389 . S
C1816 C1817 1.387 . S
C1817 H1802 0.930 . S
C1817 C1812 1.390 . S
C1817 C1816 1.387 . S
H1818 C1830 0.930 . S
H1819 C1832 0.930 . S
H1820 C1833 0.930 . S
H1821 C1837 0.959 . S
H1822 C1837 0.959 . S
H1823 C1837 0.961 . S
H1824 C1838 0.960 . S
H1825 C1838 0.961 . S
H1826 C1838 0.959 . S
H1827 C1841 0.929 . S
H1828 C1842 0.931 . S
H1829 C1844 0.930 . S
C1830 H1818 0.930 . S
C1830 C1831 1.399 . S
C1830 C1835 1.399 . S
C1831 C1830 1.399 . S
C1831 C1832 1.376 . S
C1832 H1819 0.930 . S
C1832 C1831 1.376 . S
C1832 C1833 1.388 . S
C1833 H1820 0.930 . S
C1833 C1832 1.388 . S
C1833 C1834 1.390 . S
C1834 C1833 1.390 . S
C1834 C1835 1.394 . S
C1834 C1840 1.465 . S
C1835 C1830 1.399 . S
C1835 C1834 1.394 . S
C1835 C1836 1.516 . S
C1836 C1835 1.516 . S
C1836 C1837 1.502 . S
C1836 C1838 1.561 . S
C1836 C1839 1.526 . S
C1837 H1821 0.959 . S
C1837 H1822 0.959 . S
C1837 H1823 0.961 . S
C1837 C1836 1.502 . S
C1838 H1824 0.960 . S
C1838 H1825 0.961 . S
C1838 H1826 0.959 . S
C1838 C1836 1.561 . S
C1839 C1836 1.526 . S
C1839 C1840 1.396 . S
C1839 C1844 1.390 . S
C1840 C1834 1.465 . S
C1840 C1839 1.396 . S
C1840 C1841 1.399 . S
C1841 H1827 0.929 . S
C1841 C1840 1.399 . S
C1841 C1842 1.385 . S
C1842 H1828 0.931 . S
C1842 C1841 1.385 . S
C1842 C1843 1.389 . S
C1843 C1842 1.389 . S
C1843 C1844 1.387 . S
C1844 H1829 0.930 . S
C1844 C1839 1.390 . S
C1844 C1843 1.387 . S
H1845 C1857 0.930 1_554 S
H1846 C1859 0.930 . S
H1847 C1860 0.930 . S
H1848 C1864 0.959 1_556 S
H1849 C1864 0.959 . S
H1850 C1864 0.961 . S
H1851 C1865 0.960 . S
H1852 C1865 0.961 . S
H1853 C1865 0.959 1_556 S
H1854 C1868 0.929 . S
H1855 C1869 0.931 . S
H1856 C1871 0.930 . S
C1857 H1845 0.930 1_556 S
C1857 C1858 1.399 . S
C1857 C1862 1.399 . S
C1858 C1857 1.399 . S
C1858 C1859 1.376 . S
C1859 H1846 0.930 . S
C1859 C1858 1.376 . S
C1859 C1860 1.388 . S
C1860 H1847 0.930 . S
C1860 C1859 1.388 . S
C1860 C1861 1.390 . S
C1861 C1860 1.390 . S
C1861 C1862 1.394 . S
C1861 C1867 1.465 1_565 S
C1862 C1857 1.399 . S
C1862 C1861 1.394 . S
C1862 C1863 1.516 1_565 S
C1863 C1862 1.516 1_545 S
C1863 C1864 1.502 1_556 S
C1863 C1865 1.561 1_556 S
C1863 C1866 1.526 . S
C1864 H1848 0.959 1_554 S
C1864 H1849 0.959 . S
C1864 H1850 0.961 . S
C1864 C1863 1.502 1_554 S
C1865 H1851 0.960 . S
C1865 H1852 0.961 . S
C1865 H1853 0.959 1_554 S
C1865 C1863 1.561 1_554 S
C1866 C1863 1.526 . S
C1866 C1867 1.396 . S
C1866 C1871 1.390 . S
C1867 C1861 1.465 1_545 S
C1867 C1866 1.396 . S
C1867 C1868 1.399 . S
C1868 H1854 0.929 . S
C1868 C1867 1.399 . S
C1868 C1869 1.385 . S
C1869 H1855 0.931 . S
C1869 C1868 1.385 . S
C1869 C1870 1.389 . S
C1870 C1869 1.389 . S
C1870 C1871 1.387 . S
C1871 H1856 0.930 . S
C1871 C1866 1.390 . S
C1871 C1870 1.387 . S
H1872 C1884 0.930 . S
H1873 C1886 0.930 . S
H1874 C1887 0.930 . S
H1875 C1891 0.959 . S
H1876 C1891 0.959 . S
H1877 C1891 0.961 . S
H1878 C1892 0.960 . S
H1879 C1892 0.961 . S
H1880 C1892 0.959 . S
H1881 C1895 0.929 . S
H1882 C1896 0.931 . S
H1883 C1898 0.930 . S
C1884 H1872 0.930 . S
C1884 C1885 1.399 . S
C1884 C1889 1.399 . S
C1885 C1884 1.399 . S
C1885 C1886 1.376 . S
C1886 H1873 0.930 . S
C1886 C1885 1.376 . S
C1886 C1887 1.388 . S
C1887 H1874 0.930 . S
C1887 C1886 1.388 . S
C1887 C1888 1.390 . S
C1888 C1887 1.390 . S
C1888 C1889 1.394 . S
C1888 C1894 1.465 . S
C1889 C1884 1.399 . S
C1889 C1888 1.394 . S
C1889 C1890 1.516 . S
C1890 C1889 1.516 . S
C1890 C1891 1.502 . S
C1890 C1892 1.561 . S
C1890 C1893 1.526 . S
C1891 H1875 0.959 . S
C1891 H1876 0.959 . S
C1891 H1877 0.961 . S
C1891 C1890 1.502 . S
C1892 H1878 0.960 . S
C1892 H1879 0.961 . S
C1892 H1880 0.959 . S
C1892 C1890 1.561 . S
C1893 C1890 1.526 . S
C1893 C1894 1.396 . S
C1893 C1898 1.390 . S
C1894 C1888 1.465 . S
C1894 C1893 1.396 . S
C1894 C1895 1.399 . S
C1895 H1881 0.929 . S
C1895 C1894 1.399 . S
C1895 C1896 1.385 . S
C1896 H1882 0.931 . S
C1896 C1895 1.385 . S
C1896 C1897 1.389 . S
C1897 C1896 1.389 . S
C1897 C1898 1.387 . S
C1898 H1883 0.930 . S
C1898 C1893 1.390 . S
C1898 C1897 1.387 . S
H1899 C1911 0.930 . S
H1900 C1913 0.930 . S
H1901 C1914 0.930 . S
H1902 C1918 0.959 . S
H1903 C1918 0.959 . S
H1904 C1918 0.961 . S
H1905 C1919 0.960 . S
H1906 C1919 0.961 . S
H1907 C1919 0.959 . S
H1908 C1922 0.929 . S
H1909 C1923 0.931 . S
H1910 C1925 0.930 . S
C1911 H1899 0.930 . S
C1911 C1912 1.399 . S
C1911 C1916 1.399 . S
C1912 C1911 1.399 . S
C1912 C1913 1.376 . S
C1913 H1900 0.930 . S
C1913 C1912 1.376 . S
C1913 C1914 1.388 . S
C1914 H1901 0.930 . S
C1914 C1913 1.388 . S
C1914 C1915 1.390 . S
C1915 C1914 1.390 . S
C1915 C1916 1.394 . S
C1915 C1921 1.465 . S
C1916 C1911 1.399 . S
C1916 C1915 1.394 . S
C1916 C1917 1.516 . S
C1917 C1916 1.516 . S
C1917 C1918 1.502 . S
C1917 C1919 1.561 . S
C1917 C1920 1.526 . S
C1918 H1902 0.959 . S
C1918 H1903 0.959 . S
C1918 H1904 0.961 . S
C1918 C1917 1.502 . S
C1919 H1905 0.960 . S
C1919 H1906 0.961 . S
C1919 H1907 0.959 . S
C1919 C1917 1.561 . S
C1920 C1917 1.526 . S
C1920 C1921 1.396 . S
C1920 C1925 1.390 . S
C1921 C1915 1.465 . S
C1921 C1920 1.396 . S
C1921 C1922 1.399 . S
C1922 H1908 0.929 . S
C1922 C1921 1.399 . S
C1922 C1923 1.385 . S
C1923 H1909 0.931 . S
C1923 C1922 1.385 . S
C1923 C1924 1.389 . S
C1924 C1923 1.389 . S
C1924 C1925 1.387 . S
C1925 H1910 0.930 . S
C1925 C1920 1.390 . S
C1925 C1924 1.387 . S
H1926 C1938 0.930 . S
H1927 C1940 0.930 . S
H1928 C1941 0.930 . S
H1929 C1945 0.959 . S
H1930 C1945 0.959 . S
H1931 C1945 0.961 . S
H1932 C1946 0.960 . S
H1933 C1946 0.961 . S
H1934 C1946 0.959 . S
H1935 C1949 0.929 . S
H1936 C1950 0.931 . S
H1937 C1952 0.930 1_565 S
C1938 H1926 0.930 . S
C1938 C1939 1.399 . S
C1938 C1943 1.399 . S
C1939 C1938 1.399 . S
C1939 C1940 1.376 . S
C1940 H1927 0.930 . S
C1940 C1939 1.376 . S
C1940 C1941 1.388 . S
C1941 H1928 0.930 . S
C1941 C1940 1.388 . S
C1941 C1942 1.390 . S
C1942 C1941 1.390 . S
C1942 C1943 1.394 . S
C1942 C1948 1.465 . S
C1943 C1938 1.399 . S
C1943 C1942 1.394 . S
C1943 C1944 1.516 . S
C1944 C1943 1.516 . S
C1944 C1945 1.502 1_545 S
C1944 C1946 1.561 . S
C1944 C1947 1.526 . S
C1945 H1929 0.959 . S
C1945 H1930 0.959 . S
C1945 H1931 0.961 . S
C1945 C1944 1.502 1_565 S
C1946 H1932 0.960 . S
C1946 H1933 0.961 . S
C1946 H1934 0.959 . S
C1946 C1944 1.561 . S
C1947 C1944 1.526 . S
C1947 C1948 1.396 . S
C1947 C1952 1.390 . S
C1948 C1942 1.465 . S
C1948 C1947 1.396 . S
C1948 C1949 1.399 . S
C1949 H1935 0.929 . S
C1949 C1948 1.399 . S
C1949 C1950 1.385 . S
C1950 H1936 0.931 . S
C1950 C1949 1.385 . S
C1950 C1951 1.389 . S
C1951 C1950 1.389 . S
C1951 C1952 1.387 . S
C1952 H1937 0.930 1_545 S
C1952 C1947 1.390 . S
C1952 C1951 1.387 . S
H1953 C1965 0.930 . S
H1954 C1967 0.930 . S
H1955 C1968 0.930 . S
H1956 C1972 0.959 . S
H1957 C1972 0.959 . S
H1958 C1972 0.961 . S
H1959 C1973 0.960 . S
H1960 C1973 0.961 . S
H1961 C1973 0.959 . S
H1962 C1976 0.929 . S
H1963 C1977 0.931 . S
H1964 C1979 0.930 . S
C1965 H1953 0.930 . S
C1965 C1966 1.399 . S
C1965 C1970 1.399 . S
C1966 C1965 1.399 . S
C1966 C1967 1.376 . S
C1967 H1954 0.930 . S
C1967 C1966 1.376 . S
C1967 C1968 1.388 . S
C1968 H1955 0.930 . S
C1968 C1967 1.388 . S
C1968 C1969 1.390 . S
C1969 C1968 1.390 . S
C1969 C1970 1.394 . S
C1969 C1975 1.465 . S
C1970 C1965 1.399 . S
C1970 C1969 1.394 . S
C1970 C1971 1.516 . S
C1971 C1970 1.516 . S
C1971 C1972 1.502 . S
C1971 C1973 1.561 . S
C1971 C1974 1.526 . S
C1972 H1956 0.959 . S
C1972 H1957 0.959 . S
C1972 H1958 0.961 . S
C1972 C1971 1.502 . S
C1973 H1959 0.960 . S
C1973 H1960 0.961 . S
C1973 H1961 0.959 . S
C1973 C1971 1.561 . S
C1974 C1971 1.526 . S
C1974 C1975 1.396 . S
C1974 C1979 1.390 . S
C1975 C1969 1.465 . S
C1975 C1974 1.396 . S
C1975 C1976 1.399 . S
C1976 H1962 0.929 . S
C1976 C1975 1.399 . S
C1976 C1977 1.385 . S
C1977 H1963 0.931 . S
C1977 C1976 1.385 . S
C1977 C1978 1.389 . S
C1978 C1977 1.389 . S
C1978 C1979 1.387 . S
C1979 H1964 0.930 . S
C1979 C1974 1.390 . S
C1979 C1978 1.387 . S
H1980 C1992 0.930 . S
H1981 C1994 0.930 . S
H1982 C1995 0.930 . S
H1983 C1999 0.959 . S
H1984 C1999 0.959 . S
H1985 C1999 0.961 . S
H1986 C2000 0.960 1_645 S
H1987 C2000 0.961 . S
H1988 C2000 0.959 1_545 S
H1989 C2003 0.929 . S
H1990 C2004 0.931 . S
H1991 C2006 0.930 . S
C1992 H1980 0.930 . S
C1992 C1993 1.399 . S
C1992 C1997 1.399 . S
C1993 C1992 1.399 . S
C1993 C1994 1.376 . S
C1994 H1981 0.930 . S
C1994 C1993 1.376 . S
C1994 C1995 1.388 . S
C1995 H1982 0.930 . S
C1995 C1994 1.388 . S
C1995 C1996 1.390 . S
C1996 C1995 1.390 . S
C1996 C1997 1.394 . S
C1996 C2002 1.465 1_655 S
C1997 C1992 1.399 . S
C1997 C1996 1.394 . S
C1997 C1998 1.516 . S
C1998 C1997 1.516 . S
C1998 C1999 1.502 . S
C1998 C2000 1.561 1_655 S
C1998 C2001 1.526 1_655 S
C1999 H1983 0.959 . S
C1999 H1984 0.959 . S
C1999 H1985 0.961 . S
C1999 C1998 1.502 . S
C2000 H1986 0.960 1_465 S
C2000 H1987 0.961 . S
C2000 H1988 0.959 1_565 S
C2000 C1998 1.561 1_455 S
C2001 C1998 1.526 1_455 S
C2001 C2002 1.396 . S
C2001 C2006 1.390 . S
C2002 C1996 1.465 1_455 S
C2002 C2001 1.396 . S
C2002 C2003 1.399 . S
C2003 H1989 0.929 . S
C2003 C2002 1.399 . S
C2003 C2004 1.385 . S
C2004 H1990 0.931 . S
C2004 C2003 1.385 . S
C2004 C2005 1.389 . S
C2005 C2004 1.389 . S
C2005 C2006 1.387 . S
C2006 H1991 0.930 . S
C2006 C2001 1.390 . S
C2006 C2005 1.387 . S
H2007 C2019 0.930 . S
H2008 C2021 0.930 . S
H2009 C2022 0.930 . S
H2010 C2026 0.959 . S
H2011 C2026 0.959 . S
H2012 C2026 0.961 . S
H2013 C2027 0.960 . S
H2014 C2027 0.961 . S
H2015 C2027 0.959 . S
H2016 C2030 0.929 . S
H2017 C2031 0.931 . S
H2018 C2033 0.930 . S
C2019 H2007 0.930 . S
C2019 C2020 1.399 . S
C2019 C2024 1.399 . S
C2020 C2019 1.399 . S
C2020 C2021 1.376 . S
C2021 H2008 0.930 . S
C2021 C2020 1.376 . S
C2021 C2022 1.388 . S
C2022 H2009 0.930 . S
C2022 C2021 1.388 . S
C2022 C2023 1.390 . S
C2023 C2022 1.390 . S
C2023 C2024 1.394 . S
C2023 C2029 1.465 . S
C2024 C2019 1.399 . S
C2024 C2023 1.394 . S
C2024 C2025 1.516 . S
C2025 C2024 1.516 . S
C2025 C2026 1.502 . S
C2025 C2027 1.561 . S
C2025 C2028 1.526 . S
C2026 H2010 0.959 . S
C2026 H2011 0.959 . S
C2026 H2012 0.961 . S
C2026 C2025 1.502 . S
C2027 H2013 0.960 . S
C2027 H2014 0.961 . S
C2027 H2015 0.959 . S
C2027 C2025 1.561 . S
C2028 C2025 1.526 . S
C2028 C2029 1.396 . S
C2028 C2033 1.390 . S
C2029 C2023 1.465 . S
C2029 C2028 1.396 . S
C2029 C2030 1.399 . S
C2030 H2016 0.929 . S
C2030 C2029 1.399 . S
C2030 C2031 1.385 . S
C2031 H2017 0.931 . S
C2031 C2030 1.385 . S
C2031 C2032 1.389 . S
C2032 C2031 1.389 . S
C2032 C2033 1.387 . S
C2033 H2018 0.930 . S
C2033 C2028 1.390 . S
C2033 C2032 1.387 . S
H2034 C2046 0.930 . S
H2035 C2048 0.930 . S
H2036 C2049 0.930 . S
H2037 C2053 0.959 . S
H2038 C2053 0.959 . S
H2039 C2053 0.961 1_455 S
H2040 C2054 0.960 . S
H2041 C2054 0.961 . S
H2042 C2054 0.959 . S
H2043 C2057 0.929 . S
H2044 C2058 0.931 . S
H2045 C2060 0.930 . S
C2046 H2034 0.930 . S
C2046 C2047 1.399 . S
C2046 C2051 1.399 . S
C2047 C2046 1.399 . S
C2047 C2048 1.376 . S
C2048 H2035 0.930 . S
C2048 C2047 1.376 . S
C2048 C2049 1.388 . S
C2049 H2036 0.930 . S
C2049 C2048 1.388 . S
C2049 C2050 1.390 . S
C2050 C2049 1.390 . S
C2050 C2051 1.394 . S
C2050 C2056 1.465 1_455 S
C2051 C2046 1.399 . S
C2051 C2050 1.394 . S
C2051 C2052 1.516 . S
C2052 C2051 1.516 . S
C2052 C2053 1.502 1_455 S
C2052 C2054 1.561 . S
C2052 C2055 1.526 1_455 S
C2053 H2037 0.959 . S
C2053 H2038 0.959 . S
C2053 H2039 0.961 1_655 S
C2053 C2052 1.502 1_655 S
C2054 H2040 0.960 . S
C2054 H2041 0.961 . S
C2054 H2042 0.959 . S
C2054 C2052 1.561 . S
C2055 C2052 1.526 1_655 S
C2055 C2056 1.396 . S
C2055 C2060 1.390 . S
C2056 C2050 1.465 1_655 S
C2056 C2055 1.396 . S
C2056 C2057 1.399 . S
C2057 H2043 0.929 . S
C2057 C2056 1.399 . S
C2057 C2058 1.385 . S
C2058 H2044 0.931 . S
C2058 C2057 1.385 . S
C2058 C2059 1.389 . S
C2059 C2058 1.389 . S
C2059 C2060 1.387 . S
C2060 H2045 0.930 . S
C2060 C2055 1.390 . S
C2060 C2059 1.387 . S
H2061 C2073 0.930 . S
H2062 C2075 0.930 . S
H2063 C2076 0.930 . S
H2064 C2080 0.959 . S
H2065 C2080 0.959 . S
H2066 C2080 0.961 . S
H2067 C2081 0.960 . S
H2068 C2081 0.961 . S
H2069 C2081 0.959 . S
H2070 C2084 0.929 . S
H2071 C2085 0.931 . S
H2072 C2087 0.930 . S
C2073 H2061 0.930 . S
C2073 C2074 1.399 . S
C2073 C2078 1.399 . S
C2074 C2073 1.399 . S
C2074 C2075 1.376 . S
C2075 H2062 0.930 . S
C2075 C2074 1.376 . S
C2075 C2076 1.388 . S
C2076 H2063 0.930 . S
C2076 C2075 1.388 . S
C2076 C2077 1.390 . S
C2077 C2076 1.390 . S
C2077 C2078 1.394 . S
C2077 C2083 1.465 . S
C2078 C2073 1.399 . S
C2078 C2077 1.394 . S
C2078 C2079 1.516 . S
C2079 C2078 1.516 . S
C2079 C2080 1.502 . S
C2079 C2081 1.561 . S
C2079 C2082 1.526 . S
C2080 H2064 0.959 . S
C2080 H2065 0.959 . S
C2080 H2066 0.961 . S
C2080 C2079 1.502 . S
C2081 H2067 0.960 . S
C2081 H2068 0.961 . S
C2081 H2069 0.959 . S
C2081 C2079 1.561 . S
C2082 C2079 1.526 . S
C2082 C2083 1.396 . S
C2082 C2087 1.390 . S
C2083 C2077 1.465 . S
C2083 C2082 1.396 . S
C2083 C2084 1.399 . S
C2084 H2070 0.929 . S
C2084 C2083 1.399 . S
C2084 C2085 1.385 . S
C2085 H2071 0.931 . S
C2085 C2084 1.385 . S
C2085 C2086 1.389 . S
C2086 C2085 1.389 . S
C2086 C2087 1.387 . S
C2087 H2072 0.930 . S
C2087 C2082 1.390 . S
C2087 C2086 1.387 . S
H2088 C2100 0.930 . S
H2089 C2102 0.930 . S
H2090 C2103 0.930 . S
H2091 C2107 0.959 . S
H2092 C2107 0.959 . S
H2093 C2107 0.961 1_655 S
H2094 C2108 0.960 . S
H2095 C2108 0.961 . S
H2096 C2108 0.959 . S
H2097 C2111 0.926 1_655 S
H2098 C2112 0.931 . S
H2099 C2114 0.930 . S
C2100 H2088 0.930 . S
C2100 C2101 1.399 . S
C2100 C2105 1.399 . S
C2101 C2100 1.399 . S
C2101 C2102 1.376 . S
C2102 H2089 0.930 . S
C2102 C2101 1.376 . S
C2102 C2103 1.388 . S
C2103 H2090 0.930 . S
C2103 C2102 1.388 . S
C2103 C2104 1.390 . S
C2104 C2103 1.390 . S
C2104 C2105 1.394 . S
C2104 C2110 1.465 . S
C2105 C2100 1.399 . S
C2105 C2104 1.394 . S
C2105 C2106 1.516 . S
C2106 C2105 1.516 . S
C2106 C2107 1.502 1_655 S
C2106 C2108 1.561 . S
C2106 C2109 1.511 1_655 S
C2107 H2091 0.959 . S
C2107 H2092 0.959 . S
C2107 H2093 0.961 1_455 S
C2107 C2106 1.502 1_455 S
C2108 H2094 0.960 . S
C2108 H2095 0.961 . S
C2108 H2096 0.959 . S
C2108 C2106 1.561 . S
C2109 C2106 1.511 1_455 S
C2109 C2110 1.385 1_455 S
C2109 C2114 1.413 . S
C2110 C2104 1.465 . S
C2110 C2109 1.385 1_655 S
C2110 C2111 1.396 1_655 S
C2111 H2097 0.926 1_455 S
C2111 C2110 1.396 1_455 S
C2111 C2112 1.391 . S
C2112 H2098 0.931 . S
C2112 C2111 1.391 . S
C2112 C2113 1.389 . S
C2113 C2112 1.389 . S
C2113 C2114 1.387 . S
C2114 H2099 0.930 . S
C2114 C2109 1.413 . S
C2114 C2113 1.387 . S
H2115 C2127 0.930 . S
H2116 C2129 0.930 . S
H2117 C2130 0.930 . S
H2118 C2134 0.959 . S
H2119 C2134 0.959 . S
H2120 C2134 0.961 . S
H2121 C2135 0.960 . S
H2122 C2135 0.961 . S
H2123 C2135 0.959 . S
H2124 C2138 0.929 . S
H2125 C2139 0.931 . S
H2126 C2141 0.930 . S
C2127 H2115 0.930 . S
C2127 C2128 1.399 . S
C2127 C2132 1.399 . S
C2128 C2127 1.399 . S
C2128 C2129 1.376 . S
C2129 H2116 0.930 . S
C2129 C2128 1.376 . S
C2129 C2130 1.388 . S
C2130 H2117 0.930 . S
C2130 C2129 1.388 . S
C2130 C2131 1.390 . S
C2131 C2130 1.390 . S
C2131 C2132 1.394 . S
C2131 C2137 1.465 . S
C2132 C2127 1.399 . S
C2132 C2131 1.394 . S
C2132 C2133 1.516 1_554 S
C2133 C2132 1.516 1_556 S
C2133 C2134 1.502 . S
C2133 C2135 1.561 . S
C2133 C2136 1.526 . S
C2134 H2118 0.959 . S
C2134 H2119 0.959 . S
C2134 H2120 0.961 . S
C2134 C2133 1.502 . S
C2135 H2121 0.960 . S
C2135 H2122 0.961 . S
C2135 H2123 0.959 . S
C2135 C2133 1.561 . S
C2136 C2133 1.526 . S
C2136 C2137 1.396 1_556 S
C2136 C2141 1.390 . S
C2137 C2131 1.465 . S
C2137 C2136 1.396 1_554 S
C2137 C2138 1.399 . S
C2138 H2124 0.929 . S
C2138 C2137 1.399 . S
C2138 C2139 1.385 1_554 S
C2139 H2125 0.931 . S
C2139 C2138 1.385 1_556 S
C2139 C2140 1.389 . S
C2140 C2139 1.389 . S
C2140 C2141 1.387 . S
C2141 H2126 0.930 . S
C2141 C2136 1.390 . S
C2141 C2140 1.387 . S
H2142 C2154 0.930 . S
H2143 C2156 0.930 . S
H2144 C2157 0.930 . S
H2145 C2161 0.959 . S
H2146 C2161 0.959 . S
H2147 C2161 0.961 . S
H2148 C2162 0.960 . S
H2149 C2162 0.961 . S
H2150 C2162 0.959 . S
H2151 C2165 0.929 . S
H2152 C2166 0.931 . S
H2153 C2168 0.930 . S
C2154 H2142 0.930 . S
C2154 C2155 1.399 . S
C2154 C2159 1.399 . S
C2155 C2154 1.399 . S
C2155 C2156 1.376 . S
C2156 H2143 0.930 . S
C2156 C2155 1.376 . S
C2156 C2157 1.388 . S
C2157 H2144 0.930 . S
C2157 C2156 1.388 . S
C2157 C2158 1.390 . S
C2158 C2157 1.390 . S
C2158 C2159 1.394 . S
C2158 C2164 1.465 . S
C2159 C2154 1.399 . S
C2159 C2158 1.394 . S
C2159 C2160 1.516 . S
C2160 C2159 1.516 . S
C2160 C2161 1.502 . S
C2160 C2162 1.561 . S
C2160 C2163 1.526 . S
C2161 H2145 0.959 . S
C2161 H2146 0.959 . S
C2161 H2147 0.961 . S
C2161 C2160 1.502 . S
C2162 H2148 0.960 . S
C2162 H2149 0.961 . S
C2162 H2150 0.959 . S
C2162 C2160 1.561 . S
C2163 C2160 1.526 . S
C2163 C2164 1.396 . S
C2163 C2168 1.390 . S
C2164 C2158 1.465 . S
C2164 C2163 1.396 . S
C2164 C2165 1.399 . S
C2165 H2151 0.929 . S
C2165 C2164 1.399 . S
C2165 C2166 1.385 . S
C2166 H2152 0.931 . S
C2166 C2165 1.385 . S
C2166 C2167 1.389 . S
C2167 C2166 1.389 . S
C2167 C2168 1.387 . S
C2168 H2153 0.930 . S
C2168 C2163 1.390 . S
C2168 C2167 1.387 . S
H2169 C2181 0.930 . S
H2170 C2183 0.930 . S
H2171 C2184 0.930 . S
H2172 C2188 0.959 . S
H2173 C2188 0.959 . S
H2174 C2188 0.961 . S
H2175 C2189 0.960 . S
H2176 C2189 0.961 . S
H2177 C2189 0.959 . S
H2178 C2192 0.929 . S
H2179 C2193 0.931 . S
H2180 C2195 0.930 . S
C2181 H2169 0.930 . S
C2181 C2182 1.399 . S
C2181 C2186 1.399 . S
C2182 C2181 1.399 . S
C2182 C2183 1.376 . S
C2183 H2170 0.930 . S
C2183 C2182 1.376 . S
C2183 C2184 1.388 . S
C2184 H2171 0.930 . S
C2184 C2183 1.388 . S
C2184 C2185 1.390 . S
C2185 C2184 1.390 . S
C2185 C2186 1.394 . S
C2185 C2191 1.465 . S
C2186 C2181 1.399 . S
C2186 C2185 1.394 . S
C2186 C2187 1.516 . S
C2187 C2186 1.516 . S
C2187 C2188 1.502 . S
C2187 C2189 1.561 . S
C2187 C2190 1.526 . S
C2188 H2172 0.959 . S
C2188 H2173 0.959 . S
C2188 H2174 0.961 . S
C2188 C2187 1.502 . S
C2189 H2175 0.960 . S
C2189 H2176 0.961 . S
C2189 H2177 0.959 . S
C2189 C2187 1.561 . S
C2190 C2187 1.526 . S
C2190 C2191 1.396 . S
C2190 C2195 1.390 . S
C2191 C2185 1.465 . S
C2191 C2190 1.396 . S
C2191 C2192 1.399 . S
C2192 H2178 0.929 . S
C2192 C2191 1.399 . S
C2192 C2193 1.385 . S
C2193 H2179 0.931 . S
C2193 C2192 1.385 . S
C2193 C2194 1.389 . S
C2194 C2193 1.389 . S
C2194 C2195 1.387 . S
C2195 H2180 0.930 . S
C2195 C2190 1.390 . S
C2195 C2194 1.387 . S
H2196 C2208 0.930 . S
H2197 C2210 0.930 . S
H2198 C2211 0.930 . S
H2199 C2215 0.959 . S
H2200 C2215 0.959 . S
H2201 C2215 0.961 . S
H2202 C2216 0.960 . S
H2203 C2216 0.961 . S
H2204 C2216 0.959 . S
H2205 C2219 0.929 . S
H2206 C2220 0.931 . S
H2207 C2222 0.930 . S
C2208 H2196 0.930 . S
C2208 C2209 1.399 . S
C2208 C2213 1.399 . S
C2209 C2208 1.399 . S
C2209 C2210 1.376 . S
C2210 H2197 0.930 . S
C2210 C2209 1.376 . S
C2210 C2211 1.388 . S
C2211 H2198 0.930 . S
C2211 C2210 1.388 . S
C2211 C2212 1.390 . S
C2212 C2211 1.390 . S
C2212 C2213 1.394 . S
C2212 C2218 1.465 . S
C2213 C2208 1.399 . S
C2213 C2212 1.394 . S
C2213 C2214 1.516 . S
C2214 C2213 1.516 . S
C2214 C2215 1.502 . S
C2214 C2216 1.561 . S
C2214 C2217 1.526 . S
C2215 H2199 0.959 . S
C2215 H2200 0.959 . S
C2215 H2201 0.961 . S
C2215 C2214 1.502 . S
C2216 H2202 0.960 . S
C2216 H2203 0.961 . S
C2216 H2204 0.959 . S
C2216 C2214 1.561 . S
C2217 C2214 1.526 . S
C2217 C2218 1.396 . S
C2217 C2222 1.390 . S
C2218 C2212 1.465 . S
C2218 C2217 1.396 . S
C2218 C2219 1.399 . S
C2219 H2205 0.929 . S
C2219 C2218 1.399 . S
C2219 C2220 1.385 . S
C2220 H2206 0.931 . S
C2220 C2219 1.385 . S
C2220 C2221 1.389 . S
C2221 C2220 1.389 . S
C2221 C2222 1.387 . S
C2222 H2207 0.930 . S
C2222 C2217 1.390 . S
C2222 C2221 1.387 . S
H2223 C2235 0.930 . S
H2224 C2237 0.930 . S
H2225 C2238 0.930 . S
H2226 C2242 0.959 . S
H2227 C2242 0.959 . S
H2228 C2242 0.961 . S
H2229 C2243 0.960 . S
H2230 C2243 0.961 . S
H2231 C2243 0.959 . S
H2232 C2246 0.929 . S
H2233 C2247 0.931 . S
H2234 C2249 0.930 . S
C2235 H2223 0.930 . S
C2235 C2236 1.399 . S
C2235 C2240 1.399 . S
C2236 C2235 1.399 . S
C2236 C2237 1.376 . S
C2237 H2224 0.930 . S
C2237 C2236 1.376 . S
C2237 C2238 1.388 . S
C2238 H2225 0.930 . S
C2238 C2237 1.388 . S
C2238 C2239 1.390 . S
C2239 C2238 1.390 . S
C2239 C2240 1.394 . S
C2239 C2245 1.465 . S
C2240 C2235 1.399 . S
C2240 C2239 1.394 . S
C2240 C2241 1.516 . S
C2241 C2240 1.516 . S
C2241 C2242 1.502 . S
C2241 C2243 1.561 . S
C2241 C2244 1.526 . S
C2242 H2226 0.959 . S
C2242 H2227 0.959 . S
C2242 H2228 0.961 . S
C2242 C2241 1.502 . S
C2243 H2229 0.960 . S
C2243 H2230 0.961 . S
C2243 H2231 0.959 . S
C2243 C2241 1.561 . S
C2244 C2241 1.526 . S
C2244 C2245 1.396 . S
C2244 C2249 1.390 . S
C2245 C2239 1.465 . S
C2245 C2244 1.396 . S
C2245 C2246 1.399 . S
C2246 H2232 0.929 . S
C2246 C2245 1.399 . S
C2246 C2247 1.385 . S
C2247 H2233 0.931 . S
C2247 C2246 1.385 . S
C2247 C2248 1.389 . S
C2248 C2247 1.389 . S
C2248 C2249 1.387 . S
C2249 H2234 0.930 . S
C2249 C2244 1.390 . S
C2249 C2248 1.387 . S
H2250 C2262 0.930 . S
H2251 C2264 0.930 . S
H2252 C2265 0.930 . S
H2253 C2269 0.959 . S
H2254 C2269 0.959 . S
H2255 C2269 0.961 . S
H2256 C2270 0.959 1_655 S
H2257 C2270 0.962 . S
H2258 C2270 0.958 1_655 S
H2259 C2273 0.929 . S
H2260 C2274 0.931 . S
H2261 C2276 0.930 . S
C2262 H2250 0.930 . S
C2262 C2263 1.399 . S
C2262 C2267 1.403 . S
C2263 C2262 1.399 . S
C2263 C2264 1.376 . S
C2264 H2251 0.930 . S
C2264 C2263 1.376 . S
C2264 C2265 1.388 . S
C2265 H2252 0.930 . S
C2265 C2264 1.388 . S
C2265 C2266 1.390 1_655 S
C2266 C2265 1.390 1_455 S
C2266 C2267 1.393 1_455 S
C2266 C2272 1.465 . S
C2267 C2262 1.403 . S
C2267 C2266 1.393 1_655 S
C2267 C2268 1.513 1_655 S
C2268 C2267 1.513 1_455 S
C2268 C2269 1.502 . S
C2268 C2270 1.563 . S
C2268 C2271 1.526 . S
C2269 H2253 0.959 . S
C2269 H2254 0.959 . S
C2269 H2255 0.961 . S
C2269 C2268 1.502 . S
C2270 H2256 0.959 1_455 S
C2270 H2257 0.962 . S
C2270 H2258 0.958 1_455 S
C2270 C2268 1.563 . S
C2271 C2268 1.526 . S
C2271 C2272 1.396 . S
C2271 C2276 1.390 . S
C2272 C2266 1.465 . S
C2272 C2271 1.396 . S
C2272 C2273 1.399 . S
C2273 H2259 0.929 . S
C2273 C2272 1.399 . S
C2273 C2274 1.385 . S
C2274 H2260 0.931 . S
C2274 C2273 1.385 . S
C2274 C2275 1.389 . S
C2275 C2274 1.389 . S
C2275 C2276 1.387 . S
C2276 H2261 0.930 . S
C2276 C2271 1.390 . S
C2276 C2275 1.387 . S
H2277 C2289 0.930 . S
H2278 C2291 0.930 . S
H2279 C2292 0.930 . S
H2280 C2296 0.959 1_556 S
H2281 C2296 0.966 . S
H2282 C2296 0.961 . S
H2283 C2297 0.960 . S
H2284 C2297 0.961 . S
H2285 C2297 0.959 . S
H2286 C2300 0.929 . S
H2287 C2301 0.931 . S
H2288 C2303 0.930 . S
C2289 H2277 0.930 . S
C2289 C2290 1.399 . S
C2289 C2294 1.399 . S
C2290 C2289 1.399 . S
C2290 C2291 1.376 . S
C2291 H2278 0.930 . S
C2291 C2290 1.376 . S
C2291 C2292 1.388 1_554 S
C2292 H2279 0.930 . S
C2292 C2291 1.388 1_556 S
C2292 C2293 1.390 . S
C2293 C2292 1.390 . S
C2293 C2294 1.394 1_556 S
C2293 C2299 1.465 . S
C2294 C2289 1.399 . S
C2294 C2293 1.394 1_554 S
C2294 C2295 1.516 . S
C2295 C2294 1.516 . S
C2295 C2296 1.502 . S
C2295 C2297 1.561 . S
C2295 C2298 1.526 1_554 S
C2296 H2280 0.959 1_554 S
C2296 H2281 0.966 . S
C2296 H2282 0.961 . S
C2296 C2295 1.502 . S
C2297 H2283 0.960 . S
C2297 H2284 0.961 . S
C2297 H2285 0.959 . S
C2297 C2295 1.561 . S
C2298 C2295 1.526 1_556 S
C2298 C2299 1.396 . S
C2298 C2303 1.390 . S
C2299 C2293 1.465 . S
C2299 C2298 1.396 . S
C2299 C2300 1.399 . S
C2300 H2286 0.929 . S
C2300 C2299 1.399 . S
C2300 C2301 1.385 . S
C2301 H2287 0.931 . S
C2301 C2300 1.385 . S
C2301 C2302 1.389 . S
C2302 C2301 1.389 . S
C2302 C2303 1.387 . S
C2303 H2288 0.930 . S
C2303 C2298 1.390 . S
C2303 C2302 1.387 . S
H2304 C2316 0.930 . S
H2305 C2318 0.930 . S
H2306 C2319 0.930 . S
H2307 C2323 0.959 . S
H2308 C2323 0.959 1_545 S
H2309 C2323 0.961 . S
H2310 C2324 0.960 . S
H2311 C2324 0.961 . S
H2312 C2324 0.959 . S
H2313 C2327 0.929 . S
H2314 C2328 0.931 . S
H2315 C2330 0.930 . S
C2316 H2304 0.930 . S
C2316 C2317 1.399 . S
C2316 C2321 1.399 . S
C2317 C2316 1.399 . S
C2317 C2318 1.376 . S
C2318 H2305 0.930 . S
C2318 C2317 1.376 . S
C2318 C2319 1.388 . S
C2319 H2306 0.930 . S
C2319 C2318 1.388 . S
C2319 C2320 1.390 . S
C2320 C2319 1.390 . S
C2320 C2321 1.394 . S
C2320 C2326 1.465 . S
C2321 C2316 1.399 . S
C2321 C2320 1.394 . S
C2321 C2322 1.516 . S
C2322 C2321 1.516 . S
C2322 C2323 1.502 . S
C2322 C2324 1.561 1_565 S
C2322 C2325 1.526 1_565 S
C2323 H2307 0.959 . S
C2323 H2308 0.959 1_565 S
C2323 H2309 0.961 . S
C2323 C2322 1.502 . S
C2324 H2310 0.960 . S
C2324 H2311 0.961 . S
C2324 H2312 0.959 . S
C2324 C2322 1.561 1_545 S
C2325 C2322 1.526 1_545 S
C2325 C2326 1.396 1_545 S
C2325 C2330 1.390 . S
C2326 C2320 1.465 . S
C2326 C2325 1.396 1_565 S
C2326 C2327 1.399 . S
C2327 H2313 0.929 . S
C2327 C2326 1.399 . S
C2327 C2328 1.385 1_565 S
C2328 H2314 0.931 . S
C2328 C2327 1.385 1_545 S
C2328 C2329 1.389 . S
C2329 C2328 1.389 . S
C2329 C2330 1.387 . S
C2330 H2315 0.930 . S
C2330 C2325 1.390 . S
C2330 C2329 1.387 . S
H2331 C2343 0.930 . S
H2332 C2345 0.930 . S
H2333 C2346 0.930 . S
H2334 C2350 0.959 . S
H2335 C2350 0.959 . S
H2336 C2350 0.961 . S
H2337 C2351 0.960 . S
H2338 C2351 0.961 . S
H2339 C2351 0.959 . S
H2340 C2354 0.929 . S
H2341 C2355 0.931 . S
H2342 C2357 0.930 . S
C2343 H2331 0.930 . S
C2343 C2344 1.399 . S
C2343 C2348 1.399 . S
C2344 C2343 1.399 . S
C2344 C2345 1.376 . S
C2345 H2332 0.930 . S
C2345 C2344 1.376 . S
C2345 C2346 1.388 . S
C2346 H2333 0.930 . S
C2346 C2345 1.388 . S
C2346 C2347 1.390 . S
C2347 C2346 1.390 . S
C2347 C2348 1.394 . S
C2347 C2353 1.465 . S
C2348 C2343 1.399 . S
C2348 C2347 1.394 . S
C2348 C2349 1.516 . S
C2349 C2348 1.516 . S
C2349 C2350 1.502 . S
C2349 C2351 1.561 . S
C2349 C2352 1.526 . S
C2350 H2334 0.959 . S
C2350 H2335 0.959 . S
C2350 H2336 0.961 . S
C2350 C2349 1.502 . S
C2351 H2337 0.960 . S
C2351 H2338 0.961 . S
C2351 H2339 0.959 . S
C2351 C2349 1.561 . S
C2352 C2349 1.526 . S
C2352 C2353 1.396 . S
C2352 C2357 1.390 . S
C2353 C2347 1.465 . S
C2353 C2352 1.396 . S
C2353 C2354 1.399 . S
C2354 H2340 0.929 . S
C2354 C2353 1.399 . S
C2354 C2355 1.385 . S
C2355 H2341 0.931 . S
C2355 C2354 1.385 . S
C2355 C2356 1.389 . S
C2356 C2355 1.389 . S
C2356 C2357 1.387 . S
C2357 H2342 0.930 . S
C2357 C2352 1.390 . S
C2357 C2356 1.387 . S
H2358 C2370 0.930 . S
H2359 C2372 0.930 . S
H2360 C2373 0.930 . S
H2361 C2377 0.959 . S
H2362 C2377 0.959 . S
H2363 C2377 0.961 . S
H2364 C2378 0.960 . S
H2365 C2378 0.961 1_565 S
H2366 C2378 0.959 1_565 S
H2367 C2381 0.929 . S
H2368 C2382 0.931 . S
H2369 C2384 0.930 . S
C2370 H2358 0.930 . S
C2370 C2371 1.399 . S
C2370 C2375 1.399 . S
C2371 C2370 1.399 . S
C2371 C2372 1.376 . S
C2372 H2359 0.930 . S
C2372 C2371 1.376 . S
C2372 C2373 1.388 . S
C2373 H2360 0.930 . S
C2373 C2372 1.388 . S
C2373 C2374 1.390 . S
C2374 C2373 1.390 . S
C2374 C2375 1.394 . S
C2374 C2380 1.465 . S
C2375 C2370 1.399 . S
C2375 C2374 1.394 . S
C2375 C2376 1.516 . S
C2376 C2375 1.516 . S
C2376 C2377 1.502 . S
C2376 C2378 1.561 . S
C2376 C2379 1.527 . S
C2377 H2361 0.959 . S
C2377 H2362 0.959 . S
C2377 H2363 0.961 . S
C2377 C2376 1.502 . S
C2378 H2364 0.960 . S
C2378 H2365 0.961 1_545 S
C2378 H2366 0.959 1_545 S
C2378 C2376 1.561 . S
C2379 C2376 1.527 . S
C2379 C2380 1.396 . S
C2379 C2384 1.388 1_545 S
C2380 C2374 1.465 . S
C2380 C2379 1.396 . S
C2380 C2381 1.399 1_545 S
C2381 H2367 0.929 . S
C2381 C2380 1.399 1_565 S
C2381 C2382 1.385 . S
C2382 H2368 0.931 . S
C2382 C2381 1.385 . S
C2382 C2383 1.389 . S
C2383 C2382 1.389 . S
C2383 C2384 1.387 . S
C2384 H2369 0.930 . S
C2384 C2379 1.388 1_565 S
C2384 C2383 1.387 . S
H2385 C2397 0.930 . S
H2386 C2399 0.930 . S
H2387 C2400 0.930 . S
H2388 C2404 0.959 . S
H2389 C2404 0.959 . S
H2390 C2404 0.961 . S
H2391 C2405 0.960 . S
H2392 C2405 0.961 . S
H2393 C2405 0.959 . S
H2394 C2408 0.929 . S
H2395 C2409 0.931 . S
H2396 C2411 0.930 . S
C2397 H2385 0.930 . S
C2397 C2398 1.399 . S
C2397 C2402 1.399 . S
C2398 C2397 1.399 . S
C2398 C2399 1.376 . S
C2399 H2386 0.930 . S
C2399 C2398 1.376 . S
C2399 C2400 1.388 . S
C2400 H2387 0.930 . S
C2400 C2399 1.388 . S
C2400 C2401 1.390 . S
C2401 C2400 1.390 . S
C2401 C2402 1.394 . S
C2401 C2407 1.465 . S
C2402 C2397 1.399 . S
C2402 C2401 1.394 . S
C2402 C2403 1.516 . S
C2403 C2402 1.516 . S
C2403 C2404 1.502 . S
C2403 C2405 1.561 . S
C2403 C2406 1.526 . S
C2404 H2388 0.959 . S
C2404 H2389 0.959 . S
C2404 H2390 0.961 . S
C2404 C2403 1.502 . S
C2405 H2391 0.960 . S
C2405 H2392 0.961 . S
C2405 H2393 0.959 . S
C2405 C2403 1.561 . S
C2406 C2403 1.526 . S
C2406 C2407 1.396 . S
C2406 C2411 1.390 . S
C2407 C2401 1.465 . S
C2407 C2406 1.396 . S
C2407 C2408 1.399 . S
C2408 H2394 0.929 . S
C2408 C2407 1.399 . S
C2408 C2409 1.385 . S
C2409 H2395 0.931 . S
C2409 C2408 1.385 . S
C2409 C2410 1.389 . S
C2410 C2409 1.389 . S
C2410 C2411 1.387 . S
C2411 H2396 0.930 . S
C2411 C2406 1.390 . S
C2411 C2410 1.387 . S
C805 N431 1.595 . S
C817 C18 1.529 . S
C832 C51 1.523 . S
C844 N464 1.621 . S
C859 C84 1.591 . S
C871 N497 1.597 . S
C886 N398 1.602 . S
C898 C117 1.522 . S
C913 N365 1.616 . S
C925 C150 1.566 . S
C940 N266 1.597 . S
C952 C183 1.526 . S
C967 C216 1.538 . S
C979 N299 1.587 . S
C994 N332 1.604 . S
C1006 C249 1.521 . S
C1021 C282 1.518 . S
C1033 N35 1.615 . S
C1048 C315 1.537 . S
C1060 N68 1.588 . S
C1075 C348 1.525 . S
C1087 N101 1.598 . S
C1102 N2 1.573 . S
C1114 C381 1.575 . S
C1129 N233 1.614 . S
C1141 C414 1.569 . S
C1156 C447 1.568 . S
C1168 N134 1.574 . S
C1183 C480 1.596 . S
C1195 N167 1.581 . S
C1210 N200 1.573 . S
C1222 C513 1.585 . S
C1237 N728 1.609 . S
C1249 C546 1.519 . S
C1264 C579 1.539 . S
C1276 N596 1.623 . S
C1291 C612 1.529 . S
C1303 N629 1.594 . S
C1318 N662 1.606 . S
C1330 C645 1.582 . S
C1345 C678 1.527 . S
C1357 N563 1.596 . S
C1372 N761 1.586 . S
C1384 C711 1.539 . S
C1399 C744 1.571 . S
C1411 N695 1.613 . S
C1426 N530 1.619 . S
C1438 C777 1.559 . S
C1453 N541 0.957 . S
C1465 C7 0.917 . S
C1480 N772 0.884 . S
C1492 C40 0.956 . S
C1507 C73 0.997 . S
C1519 N706 1.010 . S
C1534 N739 1.014 . S
C1546 C106 0.993 1_455 S
C1561 N574 0.936 . S
C1573 C139 0.919 . S
C1588 N607 0.885 . S
C1600 C172 0.953 . S
C1615 N640 1.020 . S
C1627 C205 0.977 . S
C1642 C238 1.018 1_655 S
C1654 N673 0.976 . S
C1669 C271 0.983 . S
C1681 N13 0.884 . S
C1696 C304 0.919 1_554 S
C1708 N46 0.934 . S
C1723 C337 0.975 . S
C1735 N79 0.882 . S
C1750 C370 0.954 . S
C1762 N112 0.886 . S
C1777 C403 1.007 . S
C1789 N145 0.904 . S
C1804 N178 0.997 . S
C1816 C436 1.008 . S
C1831 N211 1.004 . S
C1843 C469 1.003 . S
C1858 C502 1.000 1_556 S
C1870 N244 1.008 . S
C1885 N277 1.019 . S
C1897 C535 0.983 . S
C1912 N409 0.881 . S
C1924 C568 0.963 . S
C1939 N442 1.006 . S
C1951 C601 1.002 1_545 S
C1966 N475 0.928 . S
C1978 C634 0.921 . S
C1993 C667 0.942 1_565 S
C2005 N508 1.011 . S
C2020 C700 1.016 . S
C2032 N343 0.922 . S
C2047 C733 0.981 . S
C2059 N376 0.883 . S
C2074 N310 0.916 . S
C2086 C766 0.926 . S
C2101 C681 1.193 . S
C2113 C21 1.252 . S
C2128 C54 1.247 . S
C2140 C582 1.215 . S
C2155 C615 1.207 . S
C2167 C87 1.158 . S
C2182 C120 1.156 . S
C2194 C648 1.212 . S
C2209 C780 1.207 . S
C2221 C153 1.158 . S
C2236 C714 1.250 . S
C2248 C186 1.179 . S
C2263 C219 1.233 . S
C2275 C747 1.160 . S
C2290 C549 1.252 . S
C2302 C252 1.198 . S
C2317 C516 1.241 . S
C2329 C285 1.165 . S
C2344 C417 1.223 . S
C2356 C318 1.157 . S
C2371 C450 1.215 . S
C2383 C351 1.157 . S
C2398 C483 1.197 . S
C2410 C384 1.251 . S
