# Generated by pormake.
# Topology wkp, (6)-cn, num edge types: 1
# Building blocks:
#     Node 0, Type 0, BuildingBlock: OJICUG_clean_sbu_0, # of connection points: 6
#     Node 1, Type 0, BuildingBlock: OJICUG_clean_sbu_0, # of connection points: 6
#     Node 2, Type 0, BuildingBlock: OJICUG_clean_sbu_0, # of connection points: 6
#     Node 3, Type 0, BuildingBlock: OJICUG_clean_sbu_0, # of connection points: 6
#     Node 4, Type 0, BuildingBlock: OJICUG_clean_sbu_0, # of connection points: 6
#     Node 5, Type 0, BuildingBlock: OJICUG_clean_sbu_0, # of connection points: 6
#     Node 6, Type 0, BuildingBlock: OJICUG_clean_sbu_0, # of connection points: 6
#     Node 7, Type 0, BuildingBlock: OJICUG_clean_sbu_0, # of connection points: 6
#     Node 8, Type 0, BuildingBlock: OJICUG_clean_sbu_0, # of connection points: 6
#     Node 9, Type 0, BuildingBlock: OJICUG_clean_sbu_0, # of connection points: 6
#     Node 10, Type 0, BuildingBlock: OJICUG_clean_sbu_0, # of connection points: 6
#     Node 11, Type 0, BuildingBlock: OJICUG_clean_sbu_0, # of connection points: 6
#     Edge 12, Type (0, 0), BuildingBlock: ZUJKAS_clean_linker_0, # of connection points: 2
#     Edge 13, Type (0, 0), BuildingBlock: ZUJKAS_clean_linker_0, # of connection points: 2
#     Edge 14, Type (0, 0), BuildingBlock: ZUJKAS_clean_linker_0, # of connection points: 2
#     Edge 15, Type (0, 0), BuildingBlock: ZUJKAS_clean_linker_0, # of connection points: 2
#     Edge 16, Type (0, 0), BuildingBlock: ZUJKAS_clean_linker_0, # of connection points: 2
#     Edge 17, Type (0, 0), BuildingBlock: ZUJKAS_clean_linker_0, # of connection points: 2
#     Edge 18, Type (0, 0), BuildingBlock: ZUJKAS_clean_linker_0, # of connection points: 2
#     Edge 19, Type (0, 0), BuildingBlock: ZUJKAS_clean_linker_0, # of connection points: 2
#     Edge 20, Type (0, 0), BuildingBlock: ZUJKAS_clean_linker_0, # of connection points: 2
#     Edge 21, Type (0, 0), BuildingBlock: ZUJKAS_clean_linker_0, # of connection points: 2
#     Edge 22, Type (0, 0), BuildingBlock: ZUJKAS_clean_linker_0, # of connection points: 2
#     Edge 23, Type (0, 0), BuildingBlock: ZUJKAS_clean_linker_0, # of connection points: 2
#     Edge 24, Type (0, 0), BuildingBlock: ZUJKAS_clean_linker_0, # of connection points: 2
#     Edge 25, Type (0, 0), BuildingBlock: ZUJKAS_clean_linker_0, # of connection points: 2
#     Edge 26, Type (0, 0), BuildingBlock: ZUJKAS_clean_linker_0, # of connection points: 2
#     Edge 27, Type (0, 0), BuildingBlock: ZUJKAS_clean_linker_0, # of connection points: 2
#     Edge 28, Type (0, 0), BuildingBlock: ZUJKAS_clean_linker_0, # of connection points: 2
#     Edge 29, Type (0, 0), BuildingBlock: ZUJKAS_clean_linker_0, # of connection points: 2
#     Edge 30, Type (0, 0), BuildingBlock: ZUJKAS_clean_linker_0, # of connection points: 2
#     Edge 31, Type (0, 0), BuildingBlock: ZUJKAS_clean_linker_0, # of connection points: 2
#     Edge 32, Type (0, 0), BuildingBlock: ZUJKAS_clean_linker_0, # of connection points: 2
#     Edge 33, Type (0, 0), BuildingBlock: ZUJKAS_clean_linker_0, # of connection points: 2
#     Edge 34, Type (0, 0), BuildingBlock: ZUJKAS_clean_linker_0, # of connection points: 2
#     Edge 35, Type (0, 0), BuildingBlock: ZUJKAS_clean_linker_0, # of connection points: 2
#     Edge 36, Type (0, 0), BuildingBlock: ZUJKAS_clean_linker_0, # of connection points: 2
#     Edge 37, Type (0, 0), BuildingBlock: ZUJKAS_clean_linker_0, # of connection points: 2
#     Edge 38, Type (0, 0), BuildingBlock: ZUJKAS_clean_linker_0, # of connection points: 2
#     Edge 39, Type (0, 0), BuildingBlock: ZUJKAS_clean_linker_0, # of connection points: 2
#     Edge 40, Type (0, 0), BuildingBlock: ZUJKAS_clean_linker_0, # of connection points: 2
#     Edge 41, Type (0, 0), BuildingBlock: ZUJKAS_clean_linker_0, # of connection points: 2
#     Edge 42, Type (0, 0), BuildingBlock: ZUJKAS_clean_linker_0, # of connection points: 2
#     Edge 43, Type (0, 0), BuildingBlock: ZUJKAS_clean_linker_0, # of connection points: 2
#     Edge 44, Type (0, 0), BuildingBlock: ZUJKAS_clean_linker_0, # of connection points: 2
#     Edge 45, Type (0, 0), BuildingBlock: ZUJKAS_clean_linker_0, # of connection points: 2
#     Edge 46, Type (0, 0), BuildingBlock: ZUJKAS_clean_linker_0, # of connection points: 2
#     Edge 47, Type (0, 0), BuildingBlock: ZUJKAS_clean_linker_0, # of connection points: 2
# Relax obj value: 0.288
# Max RMSD: 0.309
# Mean RMSD: 0.309
data_MOF--net-wkp--node1-OJICUG_clean_sbu_0--edge1-ZUJKAS_clean_linker_0
_symmetry_space_group_name_H-M    P1
_symmetry_Int_Tables_number       1
_symmetry_cell_setting            triclinic
loop_
_symmetry_equiv_pos_as_xyz
'x, y, z'
_cell_length_a     55.188539
_cell_length_b     55.103752
_cell_length_c     39.115763
_cell_angle_alpha  90.01603
_cell_angle_beta   89.926447
_cell_angle_gamma 119.9462
loop_
_atom_site_label
_atom_site_type_symbol
_atom_site_fract_x
_atom_site_fract_y
_atom_site_fract_z
_atom_type_partial_charge
Sc0 Sc 0.21541 0.42523 0.01195 0.0
Sc1 Sc 0.20597 0.3574 0.00335 0.0
Sc2 Sc 0.26756 0.41102 0.04067 0.0
O3 O 0.2296 0.39785 0.01885 0.0
C4 C 0.27995 0.46467 -0.00305 0.0
C5 C 0.19695 0.39102 0.94242 0.0
C6 C 0.26719 0.37366 0.97856 0.0
C7 C 0.15987 0.36911 0.03404 0.0
C8 C 0.24195 0.44039 0.08683 0.0
C9 C 0.2332 0.3491 0.07124 0.0
O10 O 0.25466 0.45841 0.99356 0.0
O11 O 0.19533 0.36913 0.95548 0.0
O12 O 0.28037 0.39296 0.00043 0.0
O13 O 0.1741 0.39538 0.02905 0.0
O14 O 0.25807 0.43033 0.08238 0.0
O15 O 0.21413 0.33978 0.04859 0.0
O16 O 0.22552 0.4401 0.0638 0.0
O17 O 0.16892 0.3525 0.02734 0.0
O18 O 0.25316 0.37424 0.07142 0.0
O19 O 0.20452 0.41331 0.95942 0.0
O20 O 0.28739 0.44962 0.01325 0.0
O21 O 0.24071 0.35912 0.97734 0.0
Sc22 Sc 0.8512 0.27592 0.21685 0.0
Sc23 Sc 0.82874 0.20929 0.18216 0.0
Sc24 Sc 0.78184 0.23466 0.18957 0.0
O25 O 0.82061 0.23993 0.19632 0.0
C26 C 0.79796 0.26335 0.2624 0.0
C27 C 0.86559 0.23257 0.25042 0.0
C28 C 0.76873 0.1741 0.21427 0.0
C29 C 0.88321 0.26327 0.15734 0.0
C30 C 0.82075 0.29885 0.16985 0.0
C31 C 0.78963 0.20881 0.12115 0.0
O32 O 0.82399 0.27694 0.25568 0.0
O33 O 0.85532 0.21515 0.22587 0.0
O34 O 0.76149 0.19176 0.20554 0.0
O35 O 0.88176 0.27878 0.1804 0.0
O36 O 0.79708 0.2768 0.1725 0.0
O37 O 0.80466 0.20023 0.13552 0.0
O38 O 0.84286 0.30127 0.18292 0.0
O39 O 0.86458 0.23782 0.15314 0.0
O40 O 0.78098 0.22329 0.13677 0.0
O41 O 0.86323 0.2543 0.25252 0.0
O42 O 0.77988 0.24578 0.24182 0.0
O43 O 0.79336 0.17823 0.21013 0.0
Sc44 Sc 0.55695 0.79287 0.34218 0.0
Sc45 Sc 0.62387 0.85202 0.33788 0.0
Sc46 Sc 0.57194 0.85368 0.38721 0.0
O47 O 0.5843 0.83279 0.35598 0.0
C48 C 0.51853 0.82087 0.3416 0.0
C49 C 0.58824 0.81696 0.27263 0.0
C50 C 0.60911 0.89993 0.3318 0.0
C51 C 0.61413 0.79219 0.35191 0.0
C52 C 0.54188 0.79215 0.4198 0.0
C53 C 0.63313 0.87744 0.41406 0.0
O54 O 0.52219 0.80008 0.33728 0.0
O55 O 0.61127 0.83307 0.28766 0.0
O56 O 0.59348 0.89168 0.35809 0.0
O57 O 0.58833 0.78068 0.34438 0.0
O58 O 0.54848 0.8178 0.41937 0.0
O59 O 0.64206 0.87474 0.38505 0.0
O60 O 0.54627 0.78005 0.3948 0.0
O61 O 0.62989 0.81848 0.3554 0.0
O62 O 0.60725 0.86711 0.42044 0.0
O63 O 0.56538 0.80274 0.28878 0.0
O64 O 0.53603 0.84304 0.35685 0.0
O65 O 0.62016 0.88651 0.31907 0.0
Sc66 Sc 0.71452 0.57986 0.52469 0.0
Sc67 Sc 0.7782 0.63318 0.49122 0.0
Sc68 Sc 0.76763 0.56508 0.50254 0.0
O69 O 0.7535 0.59277 0.50631 0.0
C70 C 0.73588 0.54793 0.57365 0.0
C71 C 0.74935 0.64038 0.5587 0.0
C72 C 0.8227 0.62064 0.52587 0.0
C73 C 0.71881 0.62058 0.46448 0.0
C74 C 0.70395 0.52735 0.48048 0.0
C75 C 0.78815 0.59852 0.43249 0.0
O76 O 0.71918 0.55657 0.56561 0.0
O77 O 0.7685 0.65003 0.536 0.0
O78 O 0.8083 0.59443 0.52103 0.0
O79 O 0.70491 0.60145 0.48614 0.0
O80 O 0.72877 0.532 0.48354 0.0
O81 O 0.78944 0.62065 0.44434 0.0
O82 O 0.69584 0.5435 0.49257 0.0
O83 O 0.74528 0.63348 0.46277 0.0
O84 O 0.78047 0.57655 0.45026 0.0
O85 O 0.72921 0.61522 0.55849 0.0
O86 O 0.75572 0.55082 0.55434 0.0
O87 O 0.81429 0.63748 0.51759 0.0
Sc88 Sc 0.19919 0.75713 0.68634 0.0
Sc89 Sc 0.15134 0.78107 0.68043 0.0
Sc90 Sc 0.1327 0.71862 0.72329 0.0
O91 O 0.1611 0.75228 0.69683 0.0
C92 C 0.15915 0.69132 0.67697 0.0
C93 C 0.18604 0.77689 0.61716 0.0
C94 C 0.09573 0.72557 0.66521 0.0
C95 C 0.21309 0.81939 0.70373 0.0
C96 C 0.18999 0.73504 0.76214 0.0
C97 C 0.1196 0.76359 0.75288 0.0
O98 O 0.18296 0.71341 0.67615 0.0
O99 O 0.17306 0.7875 0.63224 0.0
O100 O 0.0987 0.71296 0.69074 0.0
O101 O 0.22026 0.8017 0.69466 0.0
O102 O 0.16356 0.72067 0.75866 0.0
O103 O 0.12673 0.77778 0.72532 0.0
O104 O 0.20611 0.75152 0.73911 0.0
O105 O 0.18786 0.81405 0.70425 0.0
O106 O 0.12439 0.74364 0.75821 0.0
O107 O 0.19487 0.76263 0.63283 0.0
O108 O 0.13787 0.69032 0.6908 0.0
O109 O 0.11443 0.74982 0.65567 0.0
Sc110 Sc 0.39947 0.1285 0.89312 0.0
Sc111 Sc 0.34894 0.13422 0.84427 0.0
Sc112 Sc 0.41558 0.1932 0.85681 0.0
O113 O 0.38794 0.15202 0.86494 0.0
C114 C 0.42768 0.18576 0.93462 0.0
C115 C 0.33597 0.10145 0.91568 0.0
C116 C 0.35803 0.19227 0.87082 0.0
C117 C 0.36705 0.08893 0.83015 0.0
C118 C 0.455 0.16694 0.8509 0.0
C119 C 0.38573 0.17603 0.78451 0.0
O120 O 0.41776 0.15948 0.93237 0.0
O121 O 0.32836 0.10823 0.88836 0.0
O122 O 0.38447 0.20432 0.86799 0.0
O123 O 0.3826 0.09508 0.85637 0.0
O124 O 0.44923 0.18607 0.84472 0.0
O125 O 0.36314 0.15626 0.79663 0.0
O126 O 0.43912 0.14502 0.86788 0.0
O127 O 0.35407 0.10164 0.82165 0.0
O128 O 0.40714 0.19065 0.80282 0.0
O129 O 0.36131 0.10899 0.92204 0.0
O130 O 0.42795 0.20071 0.90971 0.0
O131 O 0.34168 0.16642 0.86449 0.0
Sc132 Sc 0.57662 0.71543 0.81269 0.0
Sc133 Sc 0.62558 0.78148 0.84581 0.0
Sc134 Sc 0.55432 0.76201 0.8388 0.0
O135 O 0.58555 0.75304 0.83233 0.0
C136 C 0.54187 0.73336 0.76475 0.0
C137 C 0.63702 0.75524 0.77964 0.0
C138 C 0.60476 0.82075 0.81379 0.0
C139 C 0.61783 0.72345 0.87349 0.0
C140 C 0.52125 0.69739 0.85566 0.0
C141 C 0.58947 0.78619 0.90728 0.0
O142 O 0.55532 0.72052 0.77001 0.0
O143 O 0.64435 0.77575 0.79998 0.0
O144 O 0.57919 0.80347 0.81954 0.0
O145 O 0.59723 0.70782 0.85434 0.0
O146 O 0.52503 0.72186 0.85904 0.0
O147 O 0.61224 0.79025 0.8939 0.0
O148 O 0.53788 0.69205 0.83939 0.0
O149 O 0.63061 0.75007 0.87211 0.0
O150 O 0.56658 0.77572 0.89078 0.0
O151 O 0.61374 0.73274 0.78215 0.0
O152 O 0.53928 0.7487 0.78722 0.0
O153 O 0.62431 0.81576 0.82103 0.0
Sc154 Sc 0.78844 0.55745 0.99523 0.0
Sc155 Sc 0.84376 0.62622 0.00791 0.0
Sc156 Sc 0.85279 0.58118 0.95269 0.0
O157 O 0.82823 0.5883 0.98503 0.0
C158 C 0.8207 0.52312 0.9919 0.0
C159 C 0.80771 0.58465 0.06837 0.0
C160 C 0.89348 0.61369 0.01455 0.0
C161 C 0.78258 0.61234 0.98987 0.0
C162 C 0.79348 0.55034 0.91525 0.0
C163 C 0.87354 0.6445 0.93457 0.0
O164 O 0.7997 0.52554 -9e-05 0.0
O165 O 0.82468 0.60856 0.05618 0.0
O166 O 0.88807 0.5998 0.98692 0.0
O167 O 0.77285 0.58605 0.992 0.0
O168 O 0.81995 0.56142 0.91575 0.0
O169 O 0.86715 0.65003 0.96364 0.0
O170 O 0.77908 0.54817 0.9417 0.0
O171 O 0.80853 0.6302 0.99235 0.0
O172 O 0.86737 0.61991 0.92574 0.0
O173 O 0.79356 0.56316 0.04988 0.0
O174 O 0.84163 0.54182 0.97573 0.0
O175 O 0.87895 0.6239 0.02604 0.0
Sc176 Sc 0.25646 0.84341 0.14355 0.0
Sc177 Sc 0.19601 0.82971 0.18745 0.0
Sc178 Sc 0.21457 0.77784 0.18037 0.0
O179 O 0.22223 0.81692 0.17033 0.0
C180 C 0.23693 0.78503 0.10571 0.0
C181 C 0.21403 0.85915 0.11345 0.0
C182 C 0.1537 0.76845 0.16516 0.0
C183 C 0.25305 0.88366 0.19978 0.0
C184 C 0.28059 0.81463 0.18994 0.0
C185 C 0.19829 0.79369 0.25036 0.0
O186 O 0.25371 0.81103 0.11016 0.0
O187 O 0.20101 0.85445 0.14183 0.0
O188 O 0.17031 0.75976 0.17346 0.0
O189 O 0.26381 0.87937 0.17334 0.0
O190 O 0.25792 0.79128 0.18888 0.0
O191 O 0.1889 0.808 0.23583 0.0
O192 O 0.28296 0.83711 0.17785 0.0
O193 O 0.22938 0.86568 0.21166 0.0
O194 O 0.21078 0.78317 0.23406 0.0
O195 O 0.23204 0.85165 0.10774 0.0
O196 O 0.21813 0.76993 0.12726 0.0
O197 O 0.1608 0.79425 0.16463 0.0
Sc198 Sc 0.42616 0.21818 0.34988 0.0
Sc199 Sc 0.35858 0.20889 0.35784 0.0
Sc200 Sc 0.41254 0.2706 0.322 0.0
O201 O 0.39902 0.2325 0.34304 0.0
C202 C 0.46499 0.2831 0.36617 0.0
C203 C 0.39263 0.20093 0.41922 0.0
C204 C 0.37212 0.26929 0.38116 0.0
C205 C 0.37 0.16243 0.32907 0.0
C206 C 0.44335 0.24546 0.27691 0.0
C207 C 0.3524 0.23635 0.28835 0.0
O208 O 0.46076 0.25833 0.36372 0.0
O209 O 0.37006 0.19679 0.40514 0.0
O210 O 0.39055 0.28175 0.35821 0.0
O211 O 0.39567 0.17578 0.33726 0.0
O212 O 0.43646 0.26379 0.28372 0.0
O213 O 0.34222 0.21887 0.31288 0.0
O214 O 0.43869 0.22542 0.29702 0.0
O215 O 0.35393 0.17263 0.33163 0.0
O216 O 0.37808 0.25507 0.2869 0.0
O217 O 0.41563 0.21057 0.4031 0.0
O218 O 0.44796 0.29028 0.35495 0.0
O219 O 0.35948 0.24293 0.38539 0.0
Sc220 Sc 0.12514 0.40258 0.47105 0.0
Sc221 Sc 0.14102 0.35676 0.51386 0.0
Sc222 Sc 0.19122 0.42762 0.50726 0.0
O223 O 0.1525 0.39567 0.49721 0.0
C224 C 0.18284 0.44111 0.43173 0.0
C225 C 0.10913 0.34386 0.44169 0.0
C226 C 0.20191 0.37696 0.48993 0.0
C227 C 0.08746 0.36012 0.52994 0.0
C228 C 0.15376 0.45635 0.51674 0.0
C229 C 0.17715 0.39501 0.57658 0.0
O230 O 0.15663 0.43088 0.43573 0.0
O231 O 0.1151 0.33606 0.46953 0.0
O232 O 0.21007 0.40202 0.49913 0.0
O233 O 0.09061 0.37513 0.50373 0.0
O234 O 0.17715 0.45708 0.51686 0.0
O235 O 0.16377 0.37147 0.56148 0.0
O236 O 0.13181 0.43635 0.50379 0.0
O237 O 0.10558 0.35377 0.53951 0.0
O238 O 0.18637 0.41817 0.56093 0.0
O239 O 0.11577 0.36912 0.43598 0.0
O240 O 0.19847 0.43932 0.45425 0.0
O241 O 0.1763 0.35794 0.48935 0.0
Sc242 Sc 0.75749 0.2032 0.68438 0.0
Sc243 Sc 0.76378 0.14288 0.69118 0.0
Sc244 Sc 0.70782 0.14035 0.6449 0.0
O245 O 0.74308 0.16214 0.67333 0.0
C246 C 0.69196 0.17785 0.6911 0.0
C247 C 0.76779 0.18125 0.75501 0.0
C248 C 0.70024 0.09649 0.70286 0.0
C249 C 0.81379 0.20217 0.66932 0.0
C250 C 0.73878 0.19933 0.60648 0.0
C251 C 0.74399 0.11386 0.61762 0.0
O252 O 0.71699 0.1965 0.69726 0.0
O253 O 0.76999 0.16152 0.74128 0.0
O254 O 0.69058 0.10517 0.67932 0.0
O255 O 0.79981 0.21456 0.67332 0.0
O256 O 0.72146 0.17318 0.60753 0.0
O257 O 0.75949 0.12045 0.644 0.0
O258 O 0.75355 0.21302 0.63202 0.0
O259 O 0.80347 0.17596 0.67355 0.0
O260 O 0.72543 0.12086 0.61383 0.0
O261 O 0.76261 0.1977 0.73785 0.0
O262 O 0.68549 0.15651 0.67272 0.0
O263 O 0.72603 0.10834 0.71044 0.0
H264 H 0.19862 0.44017 0.61986 0.0
H265 H 0.20211 0.43988 0.68219 0.0
H266 H 0.16728 0.35032 0.68077 0.0
H267 H 0.16381 0.35028 0.61856 0.0
H268 H 0.15621 0.40875 0.72866 0.0
H269 H 0.23892 0.37973 0.73962 0.0
H270 H 0.23282 0.39348 0.70069 0.0
H271 H 0.21013 0.35748 0.71228 0.0
C272 C 0.19199 0.42042 0.63272 0.0
C273 C 0.181 0.39525 0.61411 0.0
C274 C 0.19391 0.42032 0.66834 0.0
C275 C 0.18519 0.39513 0.68596 0.0
C276 C 0.17451 0.37003 0.66755 0.0
H277 H 0.17762 0.34695 0.89772 0.0
H278 H 0.17303 0.34812 0.83576 0.0
C279 C 0.17246 0.37007 0.63197 0.0
C280 C 0.18624 0.39488 0.72373 0.0
H281 H 0.21571 0.37944 0.79075 0.0
C282 C 0.16931 0.40251 0.74232 0.0
C283 C 0.20327 0.38659 0.74132 0.0
C284 C 0.22252 0.37906 0.72255 0.0
C285 C 0.16852 0.40151 0.77819 0.0
C286 C 0.18555 0.39319 0.79581 0.0
C287 C 0.20259 0.3857 0.77716 0.0
C288 C 0.18627 0.39225 0.83363 0.0
C289 C 0.14895 0.40867 0.79682 0.0
C290 C 0.19506 0.41666 0.85301 0.0
C291 C 0.19756 0.41607 0.88851 0.0
C292 C 0.19163 0.39108 0.90527 0.0
C293 C 0.18236 0.36656 0.88575 0.0
C294 C 0.17977 0.36718 0.85029 0.0
H295 H 0.13207 0.40701 0.77982 0.0
H296 H 0.13925 0.39473 0.81922 0.0
H297 H 0.16092 0.43058 0.80616 0.0
H298 H 0.20075 0.43637 0.8406 0.0
H299 H 0.20497 0.4354 0.90264 0.0
H300 H 0.80131 0.17594 0.07943 0.0
H301 H 0.79569 0.17071 0.01742 0.0
H302 H 0.75922 0.22401 0.01651 0.0
H303 H 0.7648 0.22954 0.07853 0.0
H304 H 0.74566 0.15146 0.97551 0.0
H305 H 0.82722 0.26186 0.94962 0.0
H306 H 0.8241 0.24512 0.99035 0.0
H307 H 0.80017 0.25696 0.97919 0.0
C308 C 0.79188 0.18642 0.06617 0.0
C309 C 0.78368 0.20333 0.08406 0.0
C310 C 0.78869 0.18337 0.03071 0.0
C311 C 0.77745 0.19732 0.01241 0.0
C312 C 0.76834 0.21342 0.03018 0.0
H313 H 0.75757 0.21593 0.79528 0.0
H314 H 0.75918 0.21922 0.85762 0.0
C315 C 0.7714 0.2164 0.06567 0.0
C316 C 0.77586 0.19549 0.97463 0.0
H317 H 0.80275 0.23419 0.90198 0.0
C318 C 0.75812 0.1695 0.95937 0.0
C319 C 0.79214 0.21911 0.95375 0.0
C320 C 0.81218 0.24734 0.96891 0.0
C321 C 0.75594 0.16656 0.92365 0.0
C322 C 0.77249 0.19013 0.90272 0.0
C323 C 0.79012 0.21615 0.91806 0.0
C324 C 0.77189 0.18825 0.86485 0.0
C325 C 0.73552 0.13838 0.90871 0.0
C326 C 0.77907 0.17016 0.84816 0.0
C327 C 0.77809 0.16814 0.81251 0.0
C328 C 0.77021 0.18442 0.79276 0.0
C329 C 0.76374 0.20307 0.80959 0.0
C330 C 0.7646 0.20497 0.84526 0.0
H331 H 0.71911 0.12502 0.92749 0.0
H332 H 0.72521 0.14069 0.88557 0.0
H333 H 0.74691 0.12733 0.9013 0.0
H334 H 0.78547 0.1576 0.86272 0.0
H335 H 0.78342 0.15371 0.80047 0.0
H336 H 0.63454 0.81348 0.94996 0.0
H337 H 0.63418 0.8204 0.01156 0.0
H338 H 0.54416 0.77957 0.01035 0.0
H339 H 0.54425 0.77296 0.94853 0.0
H340 H 0.5683 0.82689 0.05115 0.0
H341 H 0.61214 0.75807 0.08123 0.0
H342 H 0.63344 0.78613 0.05247 0.0
H343 H 0.59916 0.75934 0.03935 0.0
C344 C 0.61463 0.80606 0.96267 0.0
C345 C 0.5894 0.79243 0.94422 0.0
C346 C 0.61447 0.8099 -0.00203 0.0
C347 C 0.58911 0.79992 0.01566 0.0
C348 C 0.56396 0.78724 -0.00277 0.0
H349 H 0.54291 0.7901 0.2301 0.0
H350 H 0.54292 0.78666 0.16777 0.0
C351 C 0.56407 0.78351 0.96185 0.0
C352 C 0.58882 0.8024 0.05342 0.0
H353 H 0.60841 0.784 0.1274 0.0
C354 C 0.57695 0.81741 0.06784 0.0
C355 C 0.60003 0.78991 0.07516 0.0
C356 C 0.61167 0.77223 0.06135 0.0
C357 C 0.5765 0.82075 0.10341 0.0
C358 C 0.58798 0.80852 0.12505 0.0
C359 C 0.59976 0.79346 0.11067 0.0
C360 C 0.58791 0.81102 0.16275 0.0
C361 C 0.56425 0.83777 0.1176 0.0
C362 C 0.61325 0.82547 0.18059 0.0
C363 C 0.61337 0.82749 0.21622 0.0
C364 C 0.58811 0.81481 0.23477 0.0
C365 C 0.56275 0.80014 0.21672 0.0
C366 C 0.56268 0.79828 0.18106 0.0
H367 H 0.56178 0.85065 0.09755 0.0
H368 H 0.54331 0.82342 0.12857 0.0
H369 H 0.57762 0.85181 0.13836 0.0
H370 H 0.63295 0.8353 0.16689 0.0
H371 H 0.63329 0.83887 0.22921 0.0
H372 H 0.80613 0.56625 0.40025 0.0
H373 H 0.81204 0.56291 0.33863 0.0
H374 H 0.78535 0.62322 0.32009 0.0
H375 H 0.78089 0.62771 0.38141 0.0
H376 H 0.77612 0.54543 0.28891 0.0
H377 H 0.85337 0.65617 0.26265 0.0
H378 H 0.8442 0.64273 0.30557 0.0
H379 H 0.82276 0.65332 0.28239 0.0
C380 C 0.80202 0.57913 0.38298 0.0
C381 C 0.79349 0.59756 0.39564 0.0
C382 C 0.80528 0.57713 0.3478 0.0
C383 C 0.79969 0.59323 0.32467 0.0
C384 C 0.79078 0.61133 0.33736 0.0
H385 H 0.76091 0.55619 0.10819 0.0
H386 H 0.75875 0.55647 0.17088 0.0
C387 C 0.78813 0.6138 0.37248 0.0
C388 C 0.80209 0.59037 0.28724 0.0
H389 H 0.82862 0.62828 0.21416 0.0
C390 C 0.78789 0.56352 0.27258 0.0
C391 C 0.81779 0.61388 0.26592 0.0
C392 C 0.83562 0.64307 0.28003 0.0
C393 C 0.78852 0.5596 0.23716 0.0
C394 C 0.80282 0.58329 0.21567 0.0
C395 C 0.81736 0.61007 0.23047 0.0
C396 C 0.80367 0.58113 0.17784 0.0
C397 C 0.77435 0.53008 0.22341 0.0
C398 C 0.82948 0.5953 0.16077 0.0
C399 C 0.83058 0.59597 0.12519 0.0
C400 C 0.80597 0.58197 0.10584 0.0
C401 C 0.78016 0.56689 0.12267 0.0
C402 C 0.77898 0.56688 0.15846 0.0
H403 H 0.77284 0.51495 0.24323 0.0
H404 H 0.75275 0.52395 0.21544 0.0
H405 H 0.7857 0.52828 0.20099 0.0
H406 H 0.84883 0.60637 0.17502 0.0
H407 H 0.85076 0.60758 0.11273 0.0
H408 H 0.1692 0.80488 0.57419 0.0
H409 H 0.17216 0.80725 0.51189 0.0
H410 H 0.21418 0.75904 0.51243 0.0
H411 H 0.21108 0.75619 0.57477 0.0
H412 H 0.21931 0.82843 0.4685 0.0
H413 H 0.14719 0.71458 0.44824 0.0
H414 H 0.15008 0.73152 0.48876 0.0
H415 H 0.17628 0.72306 0.47599 0.0
C416 C 0.17919 0.79484 0.56117 0.0
C417 C 0.18973 0.78016 0.57957 0.0
C418 C 0.18085 0.79624 0.52554 0.0
C419 C 0.19294 0.7829 0.5076 0.0
C420 C 0.20426 0.76898 0.52582 0.0
H421 H 0.21663 0.7658 0.29138 0.0
H422 H 0.21543 0.76328 0.35378 0.0
C423 C 0.20262 0.76755 0.56148 0.0
C424 C 0.19354 0.78353 0.4698 0.0
H425 H 0.16922 0.74182 0.39909 0.0
C426 C 0.20833 0.80952 0.45328 0.0
C427 C 0.17918 0.75878 0.45012 0.0
C428 C 0.16207 0.73039 0.46658 0.0
C429 C 0.20942 0.81144 0.4175 0.0
C430 C 0.19492 0.78672 0.39783 0.0
C431 C 0.18028 0.7607 0.41432 0.0
C432 C 0.19465 0.78747 0.36004 0.0
C433 C 0.22647 0.83984 0.40104 0.0
C434 C 0.18274 0.80134 0.34294 0.0
C435 C 0.18335 0.80284 0.30728 0.0
C436 C 0.19578 0.79034 0.28803 0.0
C437 C 0.20695 0.77573 0.30532 0.0
C438 C 0.20631 0.77426 0.34099 0.0
H439 H 0.24176 0.8555 0.41919 0.0
H440 H 0.23798 0.83865 0.37838 0.0
H441 H 0.21227 0.84742 0.39239 0.0
H442 H 0.17312 0.81118 0.35722 0.0
H443 H 0.17441 0.81413 0.29489 0.0
H444 H 0.4376 0.21569 0.46108 0.0
H445 H 0.43752 0.21173 0.52319 0.0
H446 H 0.34749 0.17133 0.52411 0.0
H447 H 0.34731 0.1757 0.46198 0.0
H448 H 0.37186 0.2144 0.56984 0.0
H449 H 0.41668 0.14443 0.58363 0.0
H450 H 0.43779 0.17504 0.55829 0.0
H451 H 0.40365 0.14928 0.54342 0.0
C452 C 0.41771 0.20558 0.47436 0.0
C453 C 0.39244 0.19599 0.45647 0.0
C454 C 0.41773 0.20323 0.50991 0.0
C455 C 0.39249 0.19093 0.5282 0.0
C456 C 0.3672 0.18083 0.51042 0.0
H457 H 0.34251 0.15573 0.73896 0.0
H458 H 0.34524 0.16144 0.67696 0.0
C459 C 0.36715 0.18331 0.4749 0.0
C460 C 0.3925 0.19006 0.56602 0.0
H461 H 0.41249 0.16576 0.63444 0.0
C462 C 0.38064 0.20367 0.58397 0.0
C463 C 0.40411 0.17616 0.58435 0.0
C464 C 0.41605 0.16017 0.56647 0.0
C465 C 0.38017 0.20385 0.6198 0.0
C466 C 0.39171 0.18992 0.63805 0.0
C467 C 0.40383 0.17656 0.62021 0.0
C468 C 0.39022 0.18785 0.67569 0.0
C469 C 0.36754 0.21908 0.63793 0.0
C470 C 0.41468 0.20079 0.69538 0.0
C471 C 0.41324 0.19767 0.73092 0.0
C472 C 0.3873 0.18122 0.74723 0.0
C473 C 0.36283 0.16853 0.72728 0.0
C474 C 0.3643 0.17184 0.69186 0.0
H475 H 0.36528 0.23383 0.62065 0.0
H476 H 0.34646 0.20359 0.64756 0.0
H477 H 0.38053 0.23094 0.66021 0.0
H478 H 0.43488 0.21312 0.6832 0.0
H479 H 0.43249 0.20758 0.74549 0.0
H480 H 0.3186 0.37887 0.9883 0.0
H481 H 0.33705 0.35309 0.95707 0.0
H482 H 0.26891 0.32397 0.88527 0.0
H483 H 0.25033 0.34955 0.91625 0.0
H484 H 0.27057 0.28248 0.92817 0.0
H485 H 0.37183 0.35038 0.86275 0.0
H486 H 0.36848 0.36146 0.9049 0.0
H487 H 0.34654 0.36143 0.87105 0.0
C488 C 0.30824 0.36794 0.96506 0.0
C489 C 0.28274 0.36559 0.95508 0.0
C490 C 0.31884 0.35333 0.94717 0.0
C491 C 0.30419 0.33664 0.91905 0.0
C492 C 0.28043 0.3368 0.90693 0.0
H493 H 0.30928 0.18808 0.84848 0.0
H494 H 0.29416 0.22263 0.85701 0.0
C495 C 0.2698 0.35126 0.92479 0.0
C496 C 0.3098 0.31456 0.90749 0.0
H497 H 0.3599 0.30304 0.87342 0.0
C498 C 0.28989 0.28682 0.91567 0.0
C499 C 0.33508 0.32057 0.89155 0.0
C500 C 0.35669 0.35005 0.88175 0.0
C501 C 0.29518 0.26487 0.90979 0.0
C502 C 0.32079 0.27091 0.89454 0.0
C503 C 0.34028 0.29857 0.88518 0.0
C504 C 0.32872 0.24923 0.89029 0.0
C505 C 0.27397 0.23576 0.92161 0.0
C506 C 0.35302 0.25285 0.90621 0.0
C507 C 0.3618 0.23348 0.90104 0.0
C508 C 0.34626 0.21005 0.88008 0.0
C509 C 0.32133 0.2058 0.86516 0.0
C510 C 0.31275 0.2255 0.86994 0.0
H511 H 0.25876 0.23603 0.94001 0.0
H512 H 0.26208 0.22306 0.89921 0.0
H513 H 0.28441 0.22525 0.93392 0.0
H514 H 0.36547 0.27094 0.9222 0.0
H515 H 0.38108 0.23713 0.91287 0.0
H516 H 0.89766 0.23505 0.11167 0.0
H517 H 0.94311 0.2522 0.08425 0.0
H518 H 0.97217 0.33387 0.12825 0.0
H519 H 0.92686 0.31711 0.1559 0.0
H520 H 0.98706 0.32882 0.05298 0.0
H521 H 0.01173 0.27187 0.15243 0.0
H522 H 0.97882 0.25301 0.13036 0.0
H523 H 0.98494 0.28117 0.15856 0.0
C524 C 0.9135 0.25681 0.11508 0.0
C525 C 0.90882 0.27462 0.13645 0.0
C526 C 0.93939 0.2665 0.09939 0.0
C527 C 0.96078 0.29408 0.10471 0.0
C528 C 0.95572 0.31245 0.12408 0.0
H529 H 0.13502 0.39742 0.05971 0.0
H530 H 0.08601 0.37807 0.07546 0.0
C531 C 0.92988 0.30279 0.13991 0.0
C532 C -0.01076 0.30311 0.09288 0.0
H533 H 0.0467 0.29798 0.11202 0.0
C534 C 0.00015 0.32204 0.06563 0.0
C535 C 0.00593 0.29402 0.10966 0.0
C536 C -0.00503 0.274 0.13952 0.0
C537 C 0.02772 0.3323 0.05465 0.0
C538 C 0.0447 0.3238 0.07205 0.0
C539 C 0.03353 0.30444 0.09889 0.0
C540 C 0.07438 0.33528 0.0634 0.0
C541 C 0.03835 0.35194 0.02443 0.0
C542 C 0.08412 0.31736 0.05294 0.0
C543 C 0.11218 0.32825 0.04436 0.0
C544 C 0.13085 0.35726 0.04613 0.0
C545 C 0.1211 0.37502 0.0577 0.0
C546 C 0.0931 0.36407 0.06645 0.0
H547 H 0.0209 0.34995 0.00828 0.0
H548 H 0.0502 0.37385 0.0338 0.0
H549 H 0.05256 0.34792 0.00833 0.0
H550 H 0.06992 0.29501 0.05085 0.0
H551 H 0.11903 0.31401 0.03555 0.0
H552 H 0.77515 0.13072 0.23689 0.0
H553 H 0.73881 0.08557 0.25866 0.0
H554 H 0.67747 0.11167 0.24729 0.0
H555 H 0.71353 0.15694 0.22529 0.0
H556 H 0.70055 0.07511 0.31671 0.0
H557 H 0.64814 0.03715 0.19043 0.0
H558 H 0.68357 0.0659 0.19396 0.0
H559 H 0.65488 0.07087 0.20542 0.0
C560 C 0.75399 0.12697 0.2391 0.0
C561 C 0.74721 0.14734 0.22908 0.0
C562 C 0.73331 0.10123 0.2516 0.0
C563 C 0.70561 0.09546 0.25417 0.0
C564 C 0.69878 0.11584 0.24506 0.0
H565 H 0.59075 0.93547 0.3524 0.0
H566 H 0.6077 0.98336 0.33271 0.0
C567 C 0.71944 0.14164 0.23258 0.0
C568 C 0.68395 0.06765 0.26566 0.0
H569 H 0.63272 0.00477 0.2356 0.0
C570 C 0.68527 0.05978 0.29931 0.0
C571 C 0.66427 0.04801 0.24257 0.0
C572 C 0.66252 0.05568 0.20599 0.0
C573 C 0.66833 0.03212 0.31013 0.0
C574 C 0.64949 0.01215 0.2866 0.0
C575 C 0.64712 0.02036 0.25345 0.0
C576 C 0.63539 0.98213 0.29449 0.0
C577 C 0.67202 0.02405 0.34584 0.0
C578 C 0.64458 0.96548 0.27832 0.0
C579 C 0.63503 0.93819 0.2894 0.0
C580 C 0.61617 0.92722 0.31688 0.0
C581 C 0.6056 0.94343 0.33147 0.0
C582 C 0.61517 0.97075 0.3203 0.0
H583 H 0.69004 0.04145 0.3593 0.0
H584 H 0.65285 0.01808 0.36101 0.0
H585 H 0.67521 0.00569 0.34504 0.0
H586 H 0.66021 0.97407 0.25827 0.0
H587 H 0.64335 0.92618 0.27736 0.0
H588 H 0.73214 0.6412 0.39966 0.0
H589 H 0.71204 0.66533 0.36805 0.0
H590 H 0.65353 0.64837 0.45045 0.0
H591 H 0.67234 0.62286 0.48095 0.0
H592 H 0.63001 0.64669 0.39216 0.0
H593 H 0.7345 0.74309 0.3966 0.0
H594 H 0.73373 0.71499 0.3726 0.0
H595 H 0.72736 0.71126 0.41797 0.0
C596 C 0.71457 0.64216 0.41053 0.0
C597 C 0.70395 0.63059 0.44283 0.0
C598 C 0.70328 0.65609 0.39265 0.0
C599 C 0.68198 0.65946 0.40747 0.0
C600 C 0.67011 0.64618 0.43864 0.0
H601 H 0.65214 0.79641 0.39921 0.0
H602 H 0.66871 0.76316 0.40863 0.0
C603 C 0.68085 0.63161 0.45606 0.0
C604 C 0.67346 0.67863 0.39246 0.0
H605 H 0.69791 0.74723 0.37244 0.0
C606 C 0.64484 0.66865 0.3876 0.0
C607 C 0.69291 0.70737 0.38706 0.0
C608 C 0.72379 0.71992 0.39411 0.0
C609 C 0.63494 0.6868 0.37892 0.0
C610 C 0.65441 0.71548 0.37327 0.0
C611 C 0.6831 0.72522 0.37669 0.0
C612 C 0.64546 0.73615 0.36627 0.0
C613 C 0.60372 0.67527 0.37792 0.0
C614 C 0.62749 0.73231 0.33894 0.0
C615 C 0.61746 0.75077 0.33423 0.0
C616 C 0.62606 0.77388 0.35603 0.0
C617 C 0.64526 0.77867 0.38218 0.0
C618 C 0.6547 0.75974 0.38748 0.0
H619 H 0.5922 0.65522 0.3922 0.0
H620 H 0.59806 0.69035 0.38896 0.0
H621 H 0.59648 0.67111 0.351 0.0
H622 H 0.62092 0.71485 0.32154 0.0
H623 H 0.603 0.74704 0.31349 0.0
H624 H 0.04772 0.67785 0.6832 0.0
H625 H 0.00165 0.65909 0.65706 0.0
H626 H 0.03603 0.72478 0.5814 0.0
H627 H 0.08227 0.7437 0.60705 0.0
H628 H 0.97444 0.69213 0.65021 0.0
H629 H 0.98856 0.65109 0.52626 0.0
H630 H 0.01117 0.65736 0.56254 0.0
H631 H 0.01509 0.68618 0.53703 0.0
C632 C 0.04564 0.68808 0.66067 0.0
C633 C 0.06864 0.71236 0.64731 0.0
C634 C 0.01931 0.67736 0.64587 0.0
C635 C 0.01568 0.69057 0.61735 0.0
C636 C 0.03865 0.7142 0.60322 0.0
H637 H 0.86085 0.6753 0.54111 0.0
H638 H 0.90808 0.69334 0.56393 0.0
C639 C 0.06498 0.72501 0.61803 0.0
C640 C 0.98748 0.68078 0.60387 0.0
H641 H 0.94629 0.65175 0.53391 0.0
C642 C 0.96819 0.68325 0.62482 0.0
C643 C 0.97966 0.66925 0.57079 0.0
C644 C -0.00042 0.66556 0.54784 0.0
C645 C 0.94103 0.67446 0.61341 0.0
C646 C 0.9333 0.66321 0.58021 0.0
C647 C 0.95256 0.66066 0.55928 0.0
C648 C 0.90482 0.65262 0.56727 0.0
C649 C 0.92063 0.67673 0.63707 0.0
C650 C 0.88771 0.62388 0.56163 0.0
C651 C 0.86088 0.61352 0.5487 0.0
C652 C 0.85076 0.6318 0.54095 0.0
C653 C 0.86799 0.66067 0.54686 0.0
C654 C 0.8949 0.67101 0.55993 0.0
H655 H 0.92845 0.68141 0.66378 0.0
H656 H 0.91711 0.69382 0.62808 0.0
H657 H 0.90015 0.65698 0.63688 0.0
H658 H 0.89517 0.60948 0.56721 0.0
H659 H 0.84821 0.59117 0.54447 0.0
H660 H 0.36437 0.08445 0.76092 0.0
H661 H 0.35037 0.04187 0.72739 0.0
H662 H 0.34371 -0.00338 0.82032 0.0
H663 H 0.35958 0.03947 0.85341 0.0
H664 H 0.35977 0.9766 0.76919 0.0
H665 H 0.26884 0.98726 0.72822 0.0
H666 H 0.30227 0.01463 0.7139 0.0
H667 H 0.29397 0.01063 0.75882 0.0
C668 C 0.36043 0.06545 0.77392 0.0
C669 C 0.36245 0.06483 0.80963 0.0
C670 C 0.3524 0.04122 0.75485 0.0
C671 C 0.34513 0.01594 0.77152 0.0
C672 C 0.3491 0.01589 0.80696 0.0
H673 H 0.20925 0.85561 0.74736 0.0
H674 H 0.24516 0.90377 0.75967 0.0
C675 C 0.35799 0.04028 0.82587 0.0
C676 C 0.33008 0.98891 0.75341 0.0
H677 H 0.26779 0.94567 0.7148 0.0
C678 C 0.33979 0.96984 0.75689 0.0
C679 C 0.30397 0.98025 0.73754 0.0
C680 C 0.29147 -0.00088 0.73458 0.0
C681 C 0.32321 0.94177 0.74711 0.0
C682 C 0.29676 0.93301 0.73233 0.0
C683 C 0.28805 0.95257 0.72643 0.0
C684 C 0.27625 0.90328 0.72621 0.0
C685 C 0.33334 0.92146 0.75477 0.0
C686 C 0.28205 0.88702 0.70374 0.0
C687 C 0.26173 0.85929 0.69727 0.0
C688 C 0.23518 0.84779 0.71255 0.0
C689 C 0.22951 0.86407 0.73515 0.0
C690 C 0.24997 0.89153 0.74213 0.0
H691 H 0.35126 0.93041 0.77281 0.0
H692 H 0.31628 0.90175 0.76586 0.0
H693 H 0.34031 0.91621 0.73067 0.0
H694 H 0.30197 0.89591 0.69064 0.0
H695 H 0.26645 0.84718 0.67942 0.0
H696 H 0.66753 0.74854 0.90764 0.0
H697 H 0.68894 0.72546 0.93796 0.0
H698 H 0.61437 0.64541 0.92323 0.0
H699 H 0.59286 0.66822 0.89196 0.0
H700 H 0.67587 0.68921 0.99403 0.0
H701 H 0.67461 0.63843 0.87032 0.0
H702 H 0.66626 0.66609 0.87323 0.0
H703 H 0.64104 0.63107 0.88609 0.0
C704 C 0.65544 0.72607 0.91126 0.0
C705 C 0.62876 0.7101 0.89666 0.0
C706 C 0.66769 0.71296 0.92875 0.0
C707 C 0.65339 0.68376 0.9321 0.0
C708 C 0.62587 0.66796 0.92018 0.0
H709 H 0.7261 0.58039 0.98171 0.0
H710 H 0.69269 0.59638 0.97277 0.0
C711 C 0.61367 0.68102 0.90234 0.0
C712 C 0.66867 0.66993 0.94435 0.0
H713 H 0.69641 0.63032 0.91668 0.0
C714 C 0.68015 0.67607 0.97733 0.0
C715 C 0.67433 0.65305 0.92222 0.0
C716 C 0.66365 0.64689 0.8859 0.0
C717 C 0.69758 0.66599 0.98866 0.0
C718 C 0.70369 0.64969 0.96622 0.0
C719 C 0.69153 0.64284 0.9337 0.0
C720 C 0.72363 0.6404 0.97511 0.0
C721 C 0.7095 0.673 0.0243 0.0
C722 C 0.75209 0.66002 0.97912 0.0
C723 C 0.7714 0.65101 0.98404 0.0
C724 C 0.76245 0.62224 0.98486 0.0
C725 C 0.73378 0.60272 0.98116 0.0
C726 C 0.71459 0.61175 0.97622 0.0
H727 H 0.69752 0.67963 0.04094 0.0
H728 H 0.7096 0.65476 0.03623 0.0
H729 H 0.73143 0.69049 0.02299 0.0
H730 H 0.75944 0.68225 0.97755 0.0
H731 H 0.7933 0.66657 0.98685 0.0
H732 H 0.94557 0.62884 0.99148 0.0
H733 H 0.9874 0.64429 0.02651 0.0
H734 H 0.93687 0.62287 0.11801 0.0
H735 H 0.89536 0.60902 0.08299 0.0
H736 H 0.97561 0.67358 0.12145 0.0
H737 H 0.02528 0.61283 0.08179 0.0
H738 H 0.01843 0.62736 0.04461 0.0
H739 H -0.01033 0.6023 0.07047 0.0
C740 C 0.94346 0.62687 0.01904 0.0
C741 C 0.91761 0.61822 0.03476 0.0
C742 C 0.96725 0.63536 0.03904 0.0
C743 C 0.96521 0.63441 0.07491 0.0
C744 C 0.9389 0.62375 0.09041 0.0
H745 H 0.12657 0.71276 0.18025 0.0
H746 H 0.07901 0.67755 0.16442 0.0
C747 C 0.9153 0.61599 0.07048 0.0
C748 C -0.00925 0.64897 0.09586 0.0
H749 H 0.05718 0.66047 0.10246 0.0
C750 C -0.00681 0.67018 0.11793 0.0
C751 C 0.01354 0.64429 0.09186 0.0
C752 C 0.01142 0.6202 0.07117 0.0
C753 C 0.01844 0.68815 0.13415 0.0
C754 C 0.04205 0.68541 0.12706 0.0
C755 C 0.03913 0.66292 0.10715 0.0
C756 C 0.07026 0.7068 0.13799 0.0
C757 C 0.01968 0.71024 0.15806 0.0
C758 C 0.08104 0.73481 0.12806 0.0
C759 C 0.10806 0.75504 0.13732 0.0
C760 C 0.1249 0.7474 0.15603 0.0
C761 C 0.1141 0.71925 0.16567 0.0
C762 C 0.08696 0.69912 0.15675 0.0
H763 H -0.00101 0.70332 0.1701 0.0
H764 H 0.0354 0.71534 0.17857 0.0
H765 H 0.02544 0.7296 0.14334 0.0
H766 H 0.0687 0.74097 0.11267 0.0
H767 H 0.11594 0.77649 0.12922 0.0
H768 H 0.25021 0.89731 0.26616 0.0
H769 H 0.27186 0.94442 0.29078 0.0
H770 H 0.30876 0.97978 0.19284 0.0
H771 H 0.28838 0.93287 0.16864 0.0
H772 H 0.34458 0.00595 0.24178 0.0
H773 H 0.24308 -0.00269 0.27638 0.0
H774 H 0.24847 0.97125 0.29677 0.0
H775 H 0.24539 0.97126 0.25094 0.0
C776 C 0.26314 0.91519 0.25005 0.0
C777 C 0.26757 0.91156 0.21553 0.0
C778 C 0.27528 0.94203 0.26402 0.0
C779 C 0.29129 0.96557 0.24338 0.0
C780 C 0.29637 0.96188 0.20917 0.0
H781 H 0.32649 0.13415 0.28504 0.0
H782 H 0.30814 0.08634 0.26378 0.0
C783 C 0.28476 0.93508 0.1954 0.0
C784 C 0.3026 -0.00582 0.25704 0.0
H785 H 0.28395 0.03797 0.29552 0.0
C786 C 0.33133 0.013 0.25346 0.0
C787 C 0.28513 0.00341 0.27165 0.0
C788 C 0.25378 0.98485 0.27386 0.0
C789 C 0.34315 0.04089 0.26405 0.0
C790 C 0.32589 0.04979 0.27997 0.0
C791 C 0.29715 0.03098 0.28357 0.0
C792 C 0.3371 0.07865 0.2927 0.0
C793 C 0.37379 0.06063 0.25704 0.0
C794 C 0.35916 0.08994 0.31627 0.0
C795 C 0.37001 0.11734 0.32779 0.0
C796 C 0.35842 0.13359 0.3167 0.0
C797 C 0.33577 0.12201 0.29393 0.0
C798 C 0.3253 0.09477 0.28183 0.0
H799 H 0.38148 0.0531 0.23552 0.0
H800 H 0.37787 0.082 0.2508 0.0
H801 H 0.38611 0.0619 0.28005 0.0
H802 H 0.36793 0.07755 0.32587 0.0
H803 H 0.38719 0.12565 0.34582 0.0
H804 H 0.19369 0.32706 0.4649 0.0
H805 H 0.22941 0.31467 0.45151 0.0
H806 H 0.29408 0.39741 0.48069 0.0
H807 H 0.25868 0.41016 0.4943 0.0
H808 H 0.27629 0.34561 0.4034 0.0
H809 H 0.30845 0.34011 0.53692 0.0
H810 H 0.27511 0.33716 0.52701 0.0
H811 H 0.30647 0.37061 0.5248 0.0
C812 C 0.21548 0.34265 0.46851 0.0
C813 C 0.22333 0.36957 0.48073 0.0
C814 C 0.2358 0.33552 0.46088 0.0
C815 C 0.26416 0.35509 0.46559 0.0
C816 C 0.27218 0.38201 0.47742 0.0
H817 H 0.39223 0.32578 0.37802 0.0
H818 H 0.37087 0.3512 0.40311 0.0
C819 C 0.25191 0.38923 0.48494 0.0
C820 C 0.28533 0.34736 0.45711 0.0
H821 H 0.33106 0.33002 0.49255 0.0
C822 C 0.28854 0.34247 0.42275 0.0
C823 C 0.30099 0.3433 0.48268 0.0
C824 C 0.29762 0.34788 0.52001 0.0
C825 C 0.30667 0.33284 0.41321 0.0
C826 C 0.32212 0.32841 0.4388 0.0
C827 C 0.31935 0.33384 0.47314 0.0
C828 C 0.33887 0.3153 0.43031 0.0
C829 C 0.30829 0.32634 0.37603 0.0
C830 C 0.32868 0.2872 0.43898 0.0
C831 C 0.34072 0.27255 0.42471 0.0
C832 C 0.36308 0.28589 0.40151 0.0
C833 C 0.37475 0.31477 0.39536 0.0
C834 C 0.36267 0.32938 0.40969 0.0
H835 H 0.2918 0.32693 0.36038 0.0
H836 H 0.32896 0.34198 0.3655 0.0
H837 H 0.30621 0.30531 0.37335 0.0
H838 H 0.3103 0.27613 0.45499 0.0
H839 H 0.33147 0.25044 0.43035 0.0
H840 H 0.85122 0.18436 0.65645 0.0
H841 H 0.89982 0.21294 0.63787 0.0
H842 H 0.89148 0.2867 0.63987 0.0
H843 H 0.84318 0.25862 0.65869 0.0
H844 H 0.91679 0.24549 0.57758 0.0
H845 H 0.96415 0.31015 0.69361 0.0
H846 H 0.93094 0.27792 0.69431 0.0
H847 H 0.93309 0.30965 0.67886 0.0
C848 C 0.85978 0.20669 0.65323 0.0
C849 C 0.84332 0.2192 0.65906 0.0
C850 C 0.8875 0.22293 0.64269 0.0
C851 C 0.89913 0.25186 0.63809 0.0
C852 C 0.88291 0.26445 0.64403 0.0
H853 H 0.04038 0.36214 0.51324 0.0
H854 H -0.0052 0.33724 0.54141 0.0
C855 C 0.85525 0.24829 0.65454 0.0
C856 C 0.92768 0.2687 0.62476 0.0
H857 H -0.00837 0.32479 0.64269 0.0
C858 C 0.93324 0.26271 0.59183 0.0
C859 C 0.94893 0.291 0.64368 0.0
C860 C 0.94413 0.29747 0.67971 0.0
C861 C 0.95958 0.27888 0.57693 0.0
C862 C 0.98055 0.30175 0.59539 0.0
C863 C 0.97521 0.30742 0.62859 0.0
C864 C 0.00853 0.31934 0.58087 0.0
C865 C 0.96487 0.27126 0.54171 0.0
C866 C 0.03129 0.31822 0.59477 0.0
C867 C 0.05731 0.33239 0.57888 0.0
C868 C 0.06087 0.34793 0.54889 0.0
C869 C 0.03827 0.35018 0.53614 0.0
C870 C 0.01224 0.33595 0.55207 0.0
H871 H 0.94853 0.24981 0.53411 0.0
H872 H 0.96486 0.28625 0.52278 0.0
H873 H 0.9856 0.27257 0.54054 0.0
H874 H 0.02867 0.30555 0.61716 0.0
H875 H 0.07437 0.33048 0.58958 0.0
H876 H 0.65668 0.86699 0.80492 0.0
H877 H 0.66706 0.9136 0.78605 0.0
H878 H 0.57907 0.88325 0.7718 0.0
H879 H 0.56834 0.83679 0.79047 0.0
H880 H 0.64989 0.92914 0.72194 0.0
H881 H 0.6077 0.95104 0.84013 0.0
H882 H 0.6174 0.92423 0.83817 0.0
H883 H 0.5854 0.91832 0.81896 0.0
C884 C 0.63956 0.87016 0.7975 0.0
C885 C 0.61169 0.84826 0.79957 0.0
C886 C 0.64552 0.89675 0.78682 0.0
C887 C 0.62372 0.90172 0.77822 0.0
C888 C 0.59604 0.87976 0.77898 0.0
H889 H 0.65016 0.05448 0.67931 0.0
H890 H 0.62584 0.00595 0.69948 0.0
C891 C 0.59004 0.85324 0.78957 0.0
C892 C 0.62987 0.93001 0.76877 0.0
H893 H 0.62396 0.98547 0.79677 0.0
C894 C 0.6441 0.94145 0.73809 0.0
C895 C 0.62224 0.94578 0.79018 0.0
C896 C 0.6075 0.93441 0.82385 0.0
C897 C 0.65127 0.96864 0.72832 0.0
C898 C 0.64369 0.98445 0.74975 0.0
C899 C 0.62924 0.97294 0.7803 0.0
C900 C 0.65354 0.01405 0.74237 0.0
C901 C 0.66774 0.98065 0.69578 0.0
C902 C 0.67601 0.03458 0.76114 0.0
C903 C 0.68996 0.06218 0.74972 0.0
C904 C 0.68149 0.06953 0.71944 0.0
C905 C 0.65721 0.04938 0.70265 0.0
C906 C 0.64335 0.02169 0.71401 0.0
H907 H 0.6751 0.96693 0.68456 0.0
H908 H 0.65437 0.98324 0.67665 0.0
H909 H 0.68617 0.00162 0.70066 0.0
H910 H 0.68397 0.02891 0.78321 0.0
H911 H 0.70838 0.07738 0.76345 0.0
H912 H 0.27611 0.49126 0.93997 0.0
H913 H 0.31464 0.53177 0.91117 0.0
H914 H 0.37118 0.537 0.99071 0.0
H915 H 0.33327 0.49626 0.01884 0.0
H916 H 0.35137 0.58613 0.93076 0.0
H917 H 0.40749 0.52837 0.90493 0.0
H918 H 0.37167 0.51119 0.91943 0.0
H919 H 0.39996 0.52804 0.94958 0.0
C920 C 0.29676 0.50123 0.95131 0.0
C921 C 0.30196 0.49045 0.9812 0.0
C922 C 0.31864 0.52427 0.93491 0.0
C923 C 0.34575 0.53675 0.94846 0.0
C924 C 0.35052 0.52703 0.97939 0.0
H925 H 0.49144 0.69632 0.9118 0.0
H926 H 0.44692 0.65713 0.93151 0.0
C927 C 0.32887 0.50385 0.99544 0.0
C928 C 0.3695 0.55941 0.93005 0.0
H929 H 0.43468 0.5784 0.90095 0.0
C930 C 0.3695 0.58444 0.92374 0.0
C931 C 0.39269 0.55673 0.92019 0.0
C932 C 0.39285 0.52951 0.92353 0.0
C933 C 0.39286 0.60752 0.90923 0.0
C934 C 0.41696 0.60554 0.90203 0.0
C935 C 0.41635 0.58004 0.90698 0.0
C936 C 0.4433 0.62959 0.88981 0.0
C937 C 0.39137 0.63359 0.90166 0.0
C938 C 0.45654 0.62662 0.86078 0.0
C939 C 0.48234 0.6485 0.85034 0.0
C940 C 0.4951 0.67386 0.86844 0.0
C941 C 0.48186 0.67694 0.89741 0.0
C942 C 0.45631 0.65475 0.90836 0.0
H943 H 0.36944 0.62854 0.89735 0.0
H944 H 0.39952 0.64794 0.92392 0.0
H945 H 0.40398 0.64471 0.8788 0.0
H946 H 0.4469 0.60733 0.84621 0.0
H947 H 0.492 0.64578 0.82762 0.0
H948 H 0.86556 0.51492 0.99179 0.0
H949 H 0.86784 0.4752 0.01579 0.0
H950 H 0.78035 0.43523 0.04203 0.0
H951 H 0.7777 0.47481 0.0182 0.0
H952 H 0.85168 0.45895 0.08798 0.0
H953 H 0.79264 0.37323 0.99456 0.0
H954 H 0.8091 0.40987 0.98313 0.0
H955 H 0.77678 0.39368 0.0065 0.0
C956 C 0.84666 0.49749 0.00214 0.0
C957 C 0.82146 0.49805 0.0033 0.0
C958 C 0.84805 0.47488 0.01578 0.0
C959 C 0.82422 0.45241 0.03026 0.0
C960 C 0.79882 0.45236 0.03045 0.0
H961 H 0.77789 0.30636 0.14873 0.0
H962 H 0.78104 0.34451 0.11383 0.0
C963 C 0.79742 0.47505 0.01706 0.0
C964 C 0.82645 0.43034 0.04841 0.0
H965 H 0.80257 0.36022 0.04843 0.0
C966 C 0.84129 0.43739 0.07925 0.0
C967 C 0.81265 0.40241 0.03675 0.0
C968 C 0.79703 0.39424 0.00328 0.0
C969 C 0.84179 0.41682 0.09968 0.0
C970 C 0.82761 0.38874 0.08831 0.0
C971 C 0.81338 0.38184 0.05696 0.0
C972 C 0.82613 0.36595 0.10936 0.0
C973 C 0.85642 0.42515 0.13383 0.0
C974 C 0.8505 0.36551 0.11819 0.0
C975 C 0.84884 0.34393 0.13845 0.0
C976 C 0.82271 0.32229 0.14969 0.0
C977 C 0.79832 0.32273 0.14047 0.0
C978 C 0.80005 0.34443 0.1205 0.0
H979 H 0.86037 0.4461 0.14216 0.0
H980 H 0.84391 0.4096 0.15386 0.0
H981 H 0.8769 0.42603 0.13179 0.0
H982 H 0.87076 0.38172 0.10921 0.0
H983 H 0.86796 0.34397 0.14477 0.0
H984 H 0.47295 0.7756 0.3136 0.0
H985 H 0.43176 0.77447 0.28859 0.0
H986 H 0.46571 0.86187 0.31265 0.0
H987 H 0.50688 0.86341 0.33777 0.0
H988 H 0.39558 0.79699 0.32628 0.0
H989 H 0.44788 0.84738 0.20343 0.0
H990 H 0.45916 0.82765 0.22923 0.0
H991 H 0.46665 0.86179 0.24273 0.0
C992 C 0.47164 0.79457 0.31366 0.0
C993 C 0.4932 0.81961 0.32757 0.0
C994 C 0.44814 0.79383 0.29946 0.0
C995 C 0.44609 0.81813 0.29878 0.0
C996 C 0.46725 0.84301 0.31296 0.0
H997 H 0.3304 0.86086 0.20655 0.0
H998 H 0.37043 0.86177 0.23453 0.0
C999 C 0.49065 0.84377 0.32732 0.0
C1000 C 0.4219 0.81769 0.28291 0.0
H1001 H 0.40166 0.83801 0.21142 0.0
C1002 C 0.39673 0.80583 0.30115 0.0
C1003 C 0.42395 0.82954 0.25036 0.0
C1004 C 0.45078 0.84225 0.23004 0.0
C1005 C 0.37325 0.80574 0.28758 0.0
C1006 C 0.37514 0.81728 0.25474 0.0
C1007 C 0.40043 0.82922 0.23661 0.0
C1008 C 0.35093 0.81669 0.23838 0.0
C1009 C 0.34685 0.79381 0.3087 0.0
C1010 C 0.3271 0.79101 0.23099 0.0
C1011 C 0.30423 0.79038 0.21519 0.0
C1012 C 0.30502 0.81547 0.20619 0.0
C1013 C 0.32918 0.84119 0.21316 0.0
C1014 C 0.352 0.84177 0.22915 0.0
H1015 H 0.35115 0.79304 0.3363 0.0
H1016 H 0.3363 0.80634 0.30555 0.0
H1017 H 0.33223 0.77209 0.30014 0.0
H1018 H 0.32626 0.77145 0.23723 0.0
H1019 H 0.28604 0.7702 0.20989 0.0
H1020 H 0.70994 0.48262 0.46289 0.0
H1021 H 0.67443 0.43815 0.43835 0.0
H1022 H 0.61615 0.46868 0.43513 0.0
H1023 H 0.65134 0.51319 0.45961 0.0
H1024 H 0.62021 0.40329 0.47067 0.0
H1025 H 0.6124 0.43485 0.33835 0.0
H1026 H 0.64281 0.45477 0.36495 0.0
H1027 H 0.61218 0.45794 0.37065 0.0
C1028 C 0.68969 0.48005 0.45654 0.0
C1029 C 0.68337 0.50138 0.46329 0.0
C1030 C 0.66951 0.45465 0.44257 0.0
C1031 C 0.64297 0.45046 0.43473 0.0
C1032 C 0.63678 0.47186 0.44062 0.0
H1033 H 0.47841 0.33595 0.3848 0.0
H1034 H 0.52417 0.37399 0.40182 0.0
C1035 C 0.65682 0.49716 0.4548 0.0
C1036 C 0.62077 0.42302 0.42292 0.0
H1037 H 0.57315 0.39241 0.35912 0.0
C1038 C 0.61018 0.40056 0.44601 0.0
C1039 C 0.60808 0.41981 0.39071 0.0
C1040 C 0.61959 0.44305 0.36456 0.0
C1041 C 0.58574 0.37538 0.43861 0.0
C1042 C 0.57207 0.37284 0.40723 0.0
C1043 C 0.58371 0.39469 0.3833 0.0
C1044 C 0.54429 0.34891 0.39994 0.0
C1045 C 0.57375 0.35239 0.46507 0.0
C1046 C 0.54057 0.3222 0.39403 0.0
C1047 C 0.51436 0.3003 0.38445 0.0
C1048 C 0.49172 0.30503 0.38035 0.0
C1049 C 0.49546 0.33168 0.38747 0.0
C1050 C 0.52155 0.35343 0.39715 0.0
H1051 H 0.58506 0.35917 0.48981 0.0
H1052 H 0.55131 0.34532 0.46957 0.0
H1053 H 0.57515 0.33415 0.45557 0.0
H1054 H 0.55807 0.31853 0.3958 0.0
H1055 H 0.51214 0.28001 0.37901 0.0
H1056 H 0.1067 0.45933 0.53022 0.0
H1057 H 0.10415 0.49844 0.55594 0.0
H1058 H 0.19403 0.54523 0.56414 0.0
H1059 H 0.19698 0.5064 0.53849 0.0
H1060 H 0.129 0.52448 0.62327 0.0
H1061 H 0.1698 0.59701 0.51216 0.0
H1062 H 0.15472 0.55954 0.50798 0.0
H1063 H 0.18965 0.58051 0.52402 0.0
C1064 C 0.12596 0.47798 0.53735 0.0
C1065 C 0.15207 0.47982 0.53222 0.0
C1066 C 0.1244 0.5002 0.55205 0.0
C1067 C 0.14891 0.5246 0.56144 0.0
C1068 C 0.17496 0.52655 0.55655 0.0
H1069 H 0.2007 0.68291 0.65255 0.0
H1070 H 0.1957 0.64107 0.62478 0.0
C1071 C 0.17656 0.50432 0.54206 0.0
C1072 C 0.14738 0.54794 0.57723 0.0
H1073 H 0.16608 0.61623 0.56489 0.0
C1074 C 0.13678 0.5445 0.61052 0.0
C1075 C 0.15761 0.57381 0.56023 0.0
C1076 C 0.16841 0.57802 0.524 0.0
C1077 C 0.13721 0.56688 0.62799 0.0
C1078 C 0.14801 0.59299 0.61124 0.0
C1079 C 0.15789 0.59613 0.57756 0.0
C1080 C 0.15057 0.61778 0.6287 0.0
C1081 C 0.12719 0.56277 0.66458 0.0
C1082 C 0.12675 0.61838 0.63989 0.0
C1083 C 0.1295 0.6422 0.65598 0.0
C1084 C 0.15612 0.66584 0.66072 0.0
C1085 C 0.1799 0.6651 0.64927 0.0
C1086 C 0.17711 0.64124 0.63338 0.0
H1087 H 0.12534 0.54343 0.67592 0.0
H1088 H 0.14162 0.58094 0.68058 0.0
H1089 H 0.10626 0.56098 0.66548 0.0
H1090 H 0.10607 0.60056 0.63585 0.0
H1091 H 0.11077 0.6422 0.66427 0.0
H1092 H 0.48563 0.14493 0.87682 0.0
H1093 H 0.52957 0.15072 0.85433 0.0
H1094 H 0.52689 0.20139 0.77186 0.0
H1095 H 0.48368 0.19667 0.79499 0.0
H1096 H 0.53803 0.13365 0.79566 0.0
H1097 H 0.60611 0.24861 0.80218 0.0
H1098 H 0.57261 0.23052 0.82339 0.0
H1099 H 0.57481 0.23928 0.77868 0.0
C1100 C 0.49459 0.15749 0.85406 0.0
C1101 C 0.48142 0.17044 0.83765 0.0
C1102 C 0.51967 0.16086 0.84135 0.0
C1103 C 0.53172 0.17695 0.81187 0.0
C1104 C 0.51842 0.18968 0.79529 0.0
H1105 H 0.63774 0.15452 0.6706 0.0
H1106 H 0.59956 0.15559 0.70095 0.0
C1107 C 0.49364 0.18675 0.80833 0.0
C1108 C 0.55698 0.17862 0.79688 0.0
H1109 H 0.62123 0.22425 0.76429 0.0
C1110 C 0.55638 0.15347 0.78921 0.0
C1111 C 0.58103 0.20451 0.78902 0.0
C1112 C 0.58381 0.23223 0.79911 0.0
C1113 C 0.57888 0.15346 0.77283 0.0
C1114 C 0.60205 0.17928 0.76274 0.0
C1115 C 0.60312 0.20448 0.77148 0.0
C1116 C 0.62539 0.18051 0.74313 0.0
C1117 C 0.57763 0.12579 0.76679 0.0
C1118 C 0.65268 0.19546 0.75598 0.0
C1119 C 0.67459 0.19542 0.73835 0.0
C1120 C 0.66939 0.1802 0.70779 0.0
C1121 C 0.6422 0.16607 0.69437 0.0
C1122 C 0.6204 0.16652 0.71174 0.0
H1123 H 0.56326 0.10956 0.78515 0.0
H1124 H 0.56961 0.11827 0.74065 0.0
H1125 H 0.59864 0.12786 0.76912 0.0
H1126 H 0.6569 0.20655 0.78008 0.0
H1127 H 0.69538 0.20645 0.74929 0.0
H1128 H 0.26436 0.36296 0.12942 0.0
H1129 H 0.27336 0.33242 0.1655 0.0
H1130 H 0.21389 0.26062 0.10764 0.0
H1131 H 0.20512 0.29136 0.07053 0.0
H1132 H 0.24131 0.28683 0.20642 0.0
H1133 H 0.28627 0.25802 0.09661 0.0
H1134 H 0.27822 0.28591 0.09396 0.0
H1135 H 0.25061 0.25005 0.09246 0.0
C1136 C 0.25287 0.34064 0.12448 0.0
C1137 C 0.2343 0.32969 0.09669 0.0
C1138 C 0.258 0.32316 0.14527 0.0
C1139 C 0.24475 0.2943 0.13887 0.0
C1140 C 0.22479 0.28293 0.1126 0.0
H1141 H 0.29486 0.20579 0.28651 0.0
H1142 H 0.26384 0.21311 0.24849 0.0
C1143 C 0.2196 0.3005 0.09163 0.0
C1144 C 0.25363 0.27702 0.15854 0.0
H1145 H 0.29144 0.24356 0.15104 0.0
C1146 C 0.2518 0.27686 0.19435 0.0
C1147 C 0.26757 0.2643 0.14266 0.0
C1148 C 0.27105 0.26463 0.10435 0.0
C1149 C 0.26476 0.26566 0.21479 0.0
C1150 C 0.27943 0.2537 0.19892 0.0
C1151 C 0.28003 0.25257 0.1631 0.0
C1152 C 0.29737 0.24586 0.2189 0.0
C1153 C 0.26423 0.26846 0.25315 0.0
C1154 C 0.32639 0.26071 0.21368 0.0
C1155 C 0.34414 0.25641 0.23505 0.0
C1156 C 0.33326 0.23714 0.26224 0.0
C1157 C 0.30401 0.22095 0.26603 0.0
C1158 C 0.28623 0.22524 0.24448 0.0
H1159 H 0.25632 0.28266 0.26091 0.0
H1160 H 0.2503 0.24756 0.26453 0.0
H1161 H 0.28547 0.27659 0.26403 0.0
H1162 H 0.33546 0.27661 0.19396 0.0
H1163 H 0.36649 0.2691 0.23107 0.0
H1164 H 0.06615 0.29205 0.45755 0.0
H1165 H 0.02518 0.26354 0.4223 0.0
H1166 H 0.06521 0.31883 0.33676 0.0
H1167 H 0.10567 0.34828 0.37261 0.0
H1168 H 0.01849 0.31612 0.34912 0.0
H1169 H -0.00272 0.20705 0.34791 0.0
H1170 H 0.0011 0.21985 0.39082 0.0
H1171 H 0.03037 0.23588 0.3618 0.0
C1172 C 0.06669 0.29751 0.43084 0.0
C1173 C 0.08905 0.32247 0.41785 0.0
C1174 C 0.04319 0.28108 0.4106 0.0
C1175 C 0.04199 0.28889 0.37672 0.0
C1176 C 0.06554 0.31238 0.36284 0.0
H1177 H 0.89986 0.2111 0.23774 0.0
H1178 H 0.94169 0.22107 0.2703 0.0
C1179 C 0.08873 0.32916 0.38328 0.0
C1180 C 0.01491 0.27583 0.35798 0.0
H1181 H 0.95782 0.21345 0.3355 0.0
C1182 C 0.0055 0.29366 0.34579 0.0
C1183 C -0.0022 0.24653 0.35344 0.0
C1184 C 0.00732 0.22629 0.36388 0.0
C1185 C 0.97947 0.28316 0.32986 0.0
C1186 C 0.96165 0.25384 0.32715 0.0
C1187 C 0.97123 0.23589 0.33837 0.0
C1188 C 0.93341 0.24194 0.31173 0.0
C1189 C 0.97152 0.30375 0.3157 0.0
C1190 C 0.91398 0.24874 0.32531 0.0
C1191 C 0.89031 0.24344 0.30657 0.0
C1192 C 0.88531 0.23062 0.2743 0.0
C1193 C 0.90309 0.22093 0.26258 0.0
C1194 C 0.92708 0.2267 0.28111 0.0
H1195 H -0.0098 0.32467 0.31126 0.0
H1196 H 0.96 0.29618 0.2912 0.0
H1197 H 0.95784 0.3064 0.33432 0.0
H1198 H 0.91811 0.25987 0.34936 0.0
H1199 H 0.87683 0.2509 0.31639 0.0
H1200 H 0.77466 0.08694 0.62016 0.0
H1201 H 0.76876 0.04801 0.58415 0.0
H1202 H 0.70777 0.05574 0.52345 0.0
H1203 H 0.71403 0.09488 0.55839 0.0
H1204 H 0.72214 -0.00098 0.57901 0.0
H1205 H 0.75064 0.04383 0.44955 0.0
H1206 H 0.75981 0.06559 0.48722 0.0
H1207 H 0.72581 0.052 0.46787 0.0
C1208 C 0.7606 0.08091 0.59852 0.0
C1209 C 0.74476 0.09409 0.59233 0.0
C1210 C 0.75716 0.05853 0.57804 0.0
C1211 C 0.73801 0.04904 0.55082 0.0
C1212 C 0.72318 0.06302 0.54369 0.0
H1213 H 0.62199 0.89077 0.47733 0.0
H1214 H 0.65302 0.9307 0.51235 0.0
C1215 C 0.72667 0.08538 0.56398 0.0
C1216 C 0.73094 0.02274 0.53228 0.0
H1217 H 0.71661 -0.00607 0.45249 0.0
C1218 C 0.72155 -0.002 0.5513 0.0
C1219 C 0.73065 0.0213 0.49615 0.0
C1220 C 0.74259 0.0472 0.47409 0.0
C1221 C 0.70997 0.97174 0.53524 0.0
C1222 C 0.70705 0.97009 0.49923 0.0
C1223 C 0.71839 -0.005 0.48013 0.0
C1224 C 0.68978 0.94305 0.48108 0.0
C1225 C 0.70049 0.94604 0.55716 0.0
C1226 C 0.69999 0.93631 0.4518 0.0
C1227 C 0.68206 0.91352 0.43125 0.0
C1228 C 0.65349 0.89711 0.43949 0.0
C1229 C 0.64382 0.90284 0.47008 0.0
C1230 C 0.66168 0.92567 0.49042 0.0
H1231 H 0.71362 0.95102 0.58047 0.0
H1232 H 0.67865 0.93834 0.56563 0.0
H1233 H 0.70133 0.929 0.54301 0.0
H1234 H 0.72157 0.94943 0.444 0.0
H1235 H 0.69029 0.9098 0.40792 0.0
H1236 H 0.71531 0.62663 0.61467 0.0
H1237 H 0.70895 0.65817 0.65236 0.0
H1238 H 0.77544 0.72939 0.60052 0.0
H1239 H 0.78174 0.69786 0.56198 0.0
H1240 H 0.74383 0.70138 0.69679 0.0
H1241 H 0.70768 0.74046 0.58798 0.0
H1242 H 0.71182 0.7101 0.58419 0.0
H1243 H 0.74202 0.74455 0.58461 0.0
C1244 C 0.72887 0.64899 0.61138 0.0
C1245 C 0.74878 0.65965 0.58487 0.0
C1246 C 0.72524 0.66702 0.6331 0.0
C1247 C 0.74136 0.69612 0.62887 0.0
C1248 C 0.76242 0.70698 0.60382 0.0
H1249 H 0.69457 0.78613 0.77973 0.0
H1250 H 0.72638 0.77948 0.74181 0.0
C1251 C 0.7661 0.68889 0.58196 0.0
C1252 C 0.73437 0.71452 0.64932 0.0
H1253 H 0.70211 0.75352 0.64303 0.0
C1254 C 0.73527 0.71333 0.68512 0.0
C1255 C 0.72306 0.72993 0.63392 0.0
C1256 C 0.72084 0.73132 0.59559 0.0
C1257 C 0.72369 0.72574 0.70594 0.0
C1258 C 0.71125 0.74009 0.69049 0.0
C1259 C 0.71186 0.7427 0.65476 0.0
C1260 C 0.69336 0.74806 0.71037 0.0
C1261 C 0.72302 0.72165 0.74416 0.0
C1262 C 0.66449 0.73371 0.70417 0.0
C1263 C 0.64644 0.73753 0.72551 0.0
C1264 C 0.65683 0.75592 0.75353 0.0
C1265 C 0.68595 0.77183 0.75835 0.0
C1266 C 0.70411 0.76787 0.73692 0.0
H1267 H 0.73035 0.70694 0.75161 0.0
H1268 H 0.73676 0.7421 0.75665 0.0
H1269 H 0.70148 0.7135 0.75414 0.0
H1270 H 0.65573 0.71842 0.68376 0.0
H1271 H 0.62415 0.72514 0.72088 0.0
H1272 H 0.10918 0.7476 0.81993 0.0
H1273 H 0.0676 0.73854 0.85238 0.0
H1274 H 0.04303 0.7746 0.77118 0.0
H1275 H 0.08493 0.78443 0.73891 0.0
H1276 H 0.02615 0.78222 0.83832 0.0
H1277 H -0.0031 0.67212 0.81059 0.0
H1278 H 0.02901 0.69118 0.83391 0.0
H1279 H 0.02664 0.70152 0.79098 0.0
C1280 C 0.09546 0.75451 0.8095 0.0
C1281 C 0.1001 0.76627 0.77658 0.0
C1282 C 0.07166 0.74923 0.82802 0.0
C1283 C 0.05188 0.75519 0.81371 0.0
C1284 C 0.05795 0.76967 0.78256 0.0
H1285 H 0.87865 0.64472 0.86517 0.0
H1286 H 0.91987 0.67681 0.83194 0.0
C1287 C 0.08199 0.77533 0.76417 0.0
C1288 C 0.02335 0.74246 0.82844 0.0
H1289 H 0.96661 0.67899 0.84672 0.0
C1290 C 0.013 0.75966 0.84011 0.0
C1291 C 0.00596 0.71302 0.82977 0.0
C1292 C 0.01501 0.69334 0.81535 0.0
C1293 C 0.98596 0.74809 0.8542 0.0
C1294 C 0.96913 0.71861 0.85708 0.0
C1295 C 0.97938 0.70157 0.84455 0.0
C1296 C 0.94142 0.70448 0.8744 0.0
C1297 C 0.97563 0.76751 0.86547 0.0
C1298 C 0.93901 0.71024 0.90883 0.0
C1299 C 0.91511 0.69222 0.92768 0.0
C1300 C 0.89356 0.66777 0.91261 0.0
C1301 C 0.89496 0.66336 0.87747 0.0
C1302 C 0.91857 0.68166 0.8585 0.0
H1303 H 0.98616 0.78756 0.85105 0.0
H1304 H 0.95268 0.75778 0.86201 0.0
H1305 H 0.98052 0.7725 0.89296 0.0
H1306 H 0.95646 0.72729 0.92196 0.0
H1307 H 0.9148 0.69602 0.95481 0.0
H1308 H 0.28337 0.05991 0.89919 0.0
H1309 H 0.25326 0.01864 0.93359 0.0
H1310 H 0.30986 0.05423 0.0188 0.0
H1311 H 0.34061 0.095 0.98402 0.0
H1312 H 0.30292 0.00522 0.00304 0.0
H1313 H 0.19804 -0.0051 0.01062 0.0
H1314 H 0.21042 -0.00142 0.96746 0.0
H1315 H 0.22864 0.02691 -0.00275 0.0
C1316 C 0.2889 0.05937 0.92564 0.0
C1317 C 0.31446 0.08059 0.93886 0.0
C1318 C 0.27157 0.03575 0.94536 0.0
C1319 C 0.27919 0.03328 0.97889 0.0
C1320 C 0.30356 0.0556 0.99297 0.0
H1321 H 0.19955 0.89902 0.1262 0.0
H1322 H 0.21111 0.93982 0.09054 0.0
C1323 C 0.32111 0.07893 0.97311 0.0
C1324 C 0.26451 0.00604 -0.00272 0.0
H1325 H 0.20068 0.9538 0.02458 0.0
C1326 C 0.28058 -0.00583 0.00795 0.0
C1327 C 0.23536 0.99153 0.00376 0.0
C1328 C 0.21715 0.00376 0.99448 0.0
C1329 C 0.26848 0.96829 0.02473 0.0
C1330 C 0.2392 0.95321 0.03002 0.0
C1331 C 0.22303 0.96514 0.01985 0.0
C1332 C 0.22568 0.92572 0.0477 0.0
C1333 C 0.28738 0.95767 0.03732 0.0
C1334 C 0.22833 0.90345 0.03456 0.0
C1335 C 0.22209 0.88026 0.05502 0.0
C1336 C 0.21257 0.87873 0.08874 0.0
C1337 C 0.20685 0.89954 0.10035 0.0
C1338 C 0.2135 0.92295 0.08001 0.0
H1339 H 0.30952 0.97473 0.03899 0.0
H1340 H 0.2807 0.9478 0.06291 0.0
H1341 H 0.28643 0.94171 0.01922 0.0
H1342 H 0.2371 0.90491 0.00934 0.0
H1343 H 0.22641 0.86442 0.0452 0.0
H1344 H 0.16296 0.46424 0.38607 0.0
H1345 H 0.17822 0.47754 0.32696 0.0
H1346 H 0.24451 0.45875 0.34233 0.0
H1347 H 0.2299 0.44618 0.40183 0.0
H1348 H 0.25934 0.50488 0.29817 0.0
H1349 H 0.15787 0.41144 0.26301 0.0
H1350 H 0.15502 0.43733 0.28777 0.0
H1351 H 0.17052 0.41846 0.30637 0.0
C1352 C 0.18111 0.46344 0.37703 0.0
C1353 C 0.19493 0.45366 0.39829 0.0
C1354 C 0.18979 0.47105 0.34331 0.0
C1355 C 0.21202 0.46845 0.33019 0.0
C1356 C 0.2272 0.46076 0.35204 0.0
H1357 H 0.27351 0.44474 0.14289 0.0
H1358 H 0.26857 0.45826 0.20065 0.0
C1359 C 0.21879 0.45353 0.38597 0.0
C1360 C 0.2173 0.47032 0.29304 0.0
H1361 H 0.18805 0.43684 0.21818 0.0
C1362 C 0.24371 0.49023 0.28055 0.0
C1363 C 0.19684 0.451 0.27026 0.0
C1364 C 0.16856 0.42818 0.28245 0.0
C1365 C 0.25033 0.49109 0.24574 0.0
C1366 C 0.23006 0.47137 0.22322 0.0
C1367 C 0.20342 0.45208 0.23557 0.0
C1368 C 0.2365 0.46827 0.18741 0.0
C1369 C 0.27897 0.51284 0.23342 0.0
C1370 C 0.2201 0.46946 0.16084 0.0
C1371 C 0.22261 0.46144 0.12779 0.0
C1372 C 0.24144 0.45185 0.12085 0.0
C1373 C 0.25872 0.4519 0.14731 0.0
C1374 C 0.25618 0.45994 0.18032 0.0
H1375 H 0.28866 0.5312 0.25085 0.0
H1376 H 0.29273 0.50351 0.23269 0.0
H1377 H 0.27801 0.52014 0.20726 0.0
H1378 H 0.2046 0.4756 0.16598 0.0
H1379 H 0.20907 0.46181 0.10803 0.0
H1380 H 0.77945 0.25264 0.58934 0.0
H1381 H 0.78806 0.27484 0.53304 0.0
H1382 H 0.71576 0.2016 0.49301 0.0
H1383 H 0.7068 0.17936 0.54895 0.0
H1384 H 0.79887 0.25134 0.47653 0.0
H1385 H 0.70808 0.26549 0.45115 0.0
H1386 H 0.71751 0.2604 0.4937 0.0
H1387 H 0.69804 0.23089 0.46591 0.0
C1388 C 0.76505 0.24147 0.56874 0.0
C1389 C 0.74255 0.21412 0.57361 0.0
C1390 C 0.76998 0.25422 0.53664 0.0
C1391 C 0.7523 0.24002 0.50905 0.0
C1392 C 0.72927 0.21319 0.51416 0.0
H1393 H 0.74923 0.22732 0.29512 0.0
H1394 H 0.73864 0.22764 0.35569 0.0
C1395 C 0.72438 0.20038 0.54611 0.0
C1396 C 0.7599 0.25128 0.47397 0.0
H1397 H 0.73349 0.26397 0.40165 0.0
C1398 C 0.78493 0.25477 0.4603 0.0
C1399 C 0.74152 0.2555 0.45295 0.0
C1400 C 0.7149 0.25314 0.46676 0.0
C1401 C 0.79129 0.26061 0.42555 0.0
C1402 C 0.77238 0.26377 0.40414 0.0
C1403 C 0.74793 0.26156 0.41816 0.0
C1404 C 0.77649 0.26662 0.36669 0.0
C1405 C 0.81732 0.26153 0.41172 0.0
C1406 C 0.80063 0.2891 0.35258 0.0
C1407 C 0.80694 0.28881 0.31807 0.0
C1408 C 0.78894 0.26623 0.29703 0.0
C1409 C 0.76358 0.24497 0.31065 0.0
C1410 C 0.75747 0.24513 0.34526 0.0
H1411 H 0.82636 0.25289 0.43017 0.0
H1412 H 0.81277 0.24954 0.38749 0.0
H1413 H 0.83339 0.28359 0.40638 0.0
H1414 H 0.81524 0.30621 0.3686 0.0
H1415 H 0.82643 0.30574 0.3082 0.0
H1416 H 0.51473 0.76012 0.74037 0.0
H1417 H 0.50128 0.76152 0.68119 0.0
H1418 H 0.5299 0.7046 0.65172 0.0
H1419 H 0.54286 0.70256 0.71056 0.0
H1420 H 0.54092 0.78215 0.63154 0.0
H1421 H 0.45877 0.67498 0.59605 0.0
H1422 H 0.4674 0.68611 0.63998 0.0
H1423 H 0.48844 0.67567 0.61577 0.0
C1424 C 0.51756 0.74737 0.72147 0.0
C1425 C 0.53017 0.73148 0.73019 0.0
C1426 C 0.50977 0.74813 0.6877 0.0
C1427 C 0.51428 0.7329 0.66218 0.0
C1428 C 0.52558 0.71597 0.67112 0.0
H1429 H 0.54821 0.75007 0.44768 0.0
H1430 H 0.53591 0.73194 0.50631 0.0
C1431 C 0.53331 0.71513 0.70481 0.0
C1432 C 0.51157 0.73813 0.62574 0.0
H1433 H 0.48443 0.70594 0.54936 0.0
C1434 C 0.52814 0.76557 0.61368 0.0
C1435 C 0.49519 0.71636 0.60249 0.0
C1436 C 0.47624 0.68667 0.61428 0.0
C1437 C 0.52963 0.77175 0.57883 0.0
C1438 C 0.51365 0.74994 0.55547 0.0
C1439 C 0.49661 0.72254 0.56746 0.0
C1440 C 0.51537 0.7556 0.51845 0.0
C1441 C 0.54917 0.80143 0.56716 0.0
C1442 C 0.50668 0.77376 0.50569 0.0
C1443 C 0.51401 0.78438 0.47267 0.0
C1444 C 0.52974 0.77664 0.45173 0.0
C1445 C 0.53614 0.75639 0.4634 0.0
C1446 C 0.5291 0.74602 0.49676 0.0
H1447 H 0.56435 0.81419 0.58737 0.0
H1448 H 0.56102 0.80168 0.54406 0.0
H1449 H 0.53678 0.81158 0.56052 0.0
H1450 H 0.49571 0.78103 0.52199 0.0
H1451 H 0.5084 0.79962 0.46403 0.0
H1452 H 0.81708 0.55003 0.85409 0.0
H1453 H 0.79427 0.53534 0.79883 0.0
H1454 H 0.71456 0.51128 0.84547 0.0
H1455 H 0.7373 0.52637 0.90136 0.0
H1456 H 0.74864 0.48313 0.7747 0.0
H1457 H 0.72602 0.57119 0.77361 0.0
H1458 H 0.74994 0.56987 0.8039 0.0
H1459 H 0.71297 0.54707 0.8089 0.0
C1460 C 0.79466 0.54151 0.85284 0.0
C1461 C 0.77908 0.53977 0.88216 0.0
C1462 C 0.78165 0.53291 0.8212 0.0
C1463 C 0.75284 0.52244 0.81815 0.0
C1464 C 0.73691 0.51959 0.8474 0.0
H1465 H 0.69036 0.52735 0.61568 0.0
H1466 H 0.68721 0.51211 0.67489 0.0
C1467 C 0.74995 0.52825 0.87924 0.0
C1468 C 0.74047 0.51697 0.78367 0.0
H1469 H 0.72032 0.54719 0.72254 0.0
C1470 C 0.74182 0.49668 0.76336 0.0
C1471 C 0.73148 0.53461 0.76917 0.0
C1472 C 0.73007 0.55704 0.78981 0.0
C1473 C 0.73593 0.49465 0.72828 0.0
C1474 C 0.72904 0.51375 0.71329 0.0
C1475 C 0.72569 0.53262 0.73413 0.0
C1476 C 0.7287 0.51725 0.67588 0.0
C1477 C 0.73797 0.47269 0.7075 0.0
C1478 C 0.7529 0.52465 0.65661 0.0
C1479 C 0.75478 0.5333 0.62271 0.0
C1480 C 0.73264 0.53517 0.60774 0.0
C1481 C 0.70793 0.52646 0.62662 0.0
C1482 C 0.70599 0.51758 0.66038 0.0
H1483 H 0.73294 0.45401 0.72335 0.0
H1484 H 0.72369 0.46597 0.68515 0.0
H1485 H 0.75973 0.48142 0.69808 0.0
H1486 H 0.77098 0.52528 0.66832 0.0
H1487 H 0.77411 0.53994 0.60889 0.0
H1488 H 0.24456 0.76583 0.78325 0.0
H1489 H 0.26252 0.7679 0.84092 0.0
H1490 H 0.18062 0.70386 0.87383 0.0
H1491 H 0.16261 0.7012 0.81648 0.0
H1492 H 0.24213 0.78437 0.89303 0.0
H1493 H 0.22988 0.6812 0.92494 0.0
H1494 H 0.22967 0.69208 0.8814 0.0
H1495 H 0.19842 0.67782 0.90711 0.0
C1496 C 0.23052 0.75168 0.80253 0.0
C1497 C 0.20204 0.73363 0.79533 0.0
C1498 C 0.24087 0.75282 0.83542 0.0
C1499 C 0.22298 0.7358 0.86153 0.0
C1500 C 0.19496 0.71668 0.85392 0.0
H1501 H 0.19508 0.74027 0.07196 0.0
H1502 H 0.19656 0.72621 0.01289 0.0
C1503 C 0.18462 0.71549 0.82112 0.0
C1504 C 0.23193 0.74136 0.89763 0.0
H1505 H 0.22969 0.70912 0.97303 0.0
C1506 C 0.24014 0.76813 0.91041 0.0
C1507 C 0.22901 0.72002 0.92021 0.0
C1508 C 0.22152 0.69125 0.90761 0.0
C1509 C 0.24377 0.77374 0.94547 0.0
C1510 C 0.23971 0.75208 0.96827 0.0
C1511 C 0.23274 0.72562 0.95542 0.0
C1512 C 0.24045 0.75628 0.00558 0.0
C1513 C 0.25023 0.80232 0.95792 0.0
C1514 C 0.26493 0.77687 0.02129 0.0
C1515 C 0.26403 0.78523 0.05466 0.0
C1516 C 0.23872 0.77274 0.07301 0.0
C1517 C 0.21481 0.75031 0.05832 0.0
C1518 C 0.21565 0.74223 0.02468 0.0
H1519 H 0.24705 0.81458 0.93767 0.0
H1520 H 0.2369 0.80045 0.98018 0.0
H1521 H 0.27241 0.81431 0.96614 0.0
H1522 H 0.28436 0.78756 0.00708 0.0
H1523 H 0.28291 0.80223 0.06564 0.0
H1524 H 0.44993 0.24119 0.95176 0.0
H1525 H 0.46826 0.26275 0.00752 0.0
H1526 H 0.45067 0.18267 0.0477 0.0
H1527 H 0.4328 0.16108 0.99245 0.0
H1528 H 0.43659 0.24763 0.06514 0.0
H1529 H 0.52791 0.23396 0.0863 0.0
H1530 H 0.51302 0.23141 0.04441 0.0
H1531 H 0.49806 0.20179 0.07297 0.0
C1532 C 0.45032 0.22825 0.97235 0.0
C1533 C 0.43975 0.19937 0.96768 0.0
C1534 C 0.46096 0.24065 0.00407 0.0
C1535 C 0.46141 0.22441 0.03142 0.0
C1536 C 0.45133 0.19575 0.02663 0.0
H1537 H 0.44278 0.20277 0.24068 0.0
H1538 H 0.45521 0.20393 0.1804 0.0
C1539 C 0.44072 0.18336 0.99508 0.0
C1540 C 0.46854 0.23612 0.06623 0.0
H1541 H 0.50401 0.2363 0.13767 0.0
C1542 C 0.45189 0.24597 0.08083 0.0
C1543 C 0.48851 0.23384 0.08649 0.0
C1544 C 0.50808 0.22494 0.07158 0.0
C1545 C 0.45297 0.25137 0.1159 0.0
C1546 C 0.47166 0.24731 0.13661 0.0
C1547 C 0.48965 0.23924 0.12164 0.0
C1548 C 0.47026 0.24824 0.17414 0.0
C1549 C 0.43265 0.25936 0.13083 0.0
C1550 C 0.4759 0.27304 0.1907 0.0
C1551 C 0.46847 0.27236 0.22488 0.0
C1552 C 0.45567 0.24692 0.24304 0.0
C1553 C 0.45246 0.22261 0.22724 0.0
C1554 C 0.45962 0.22326 0.19288 0.0
H1555 H 0.41649 0.25696 0.11208 0.0
H1556 H 0.42195 0.24631 0.15359 0.0
H1557 H 0.44423 0.28158 0.13906 0.0
H1558 H 0.48457 0.29257 0.17669 0.0
H1559 H 0.47169 0.29154 0.23667 0.0
loop_
_geom_bond_atom_site_label_1
_geom_bond_atom_site_label_2
_geom_bond_distance
_geom_bond_site_symmetry_2
_ccdc_geom_bond_type
Sc0 O3 2.025 . S
Sc0 O10 2.105 1_554 S
Sc0 O13 2.105 . S
Sc0 O16 2.105 . S
Sc0 O19 2.105 1_554 S
Sc1 O3 2.025 1_556 S
Sc1 O11 2.105 . S
Sc1 O15 2.105 1_556 S
Sc1 O17 2.105 1_556 S
Sc1 O21 2.105 . S
Sc2 O3 2.025 . S
Sc2 O12 2.105 1_554 S
Sc2 O14 2.105 . S
Sc2 O18 2.105 . S
Sc2 O20 2.105 . S
O3 Sc0 2.025 . S
O3 Sc1 2.025 1_554 S
O3 Sc2 2.025 . S
C4 O10 1.268 . S
C4 O20 1.268 1_556 S
C5 O11 1.268 . S
C5 O19 1.268 . S
C6 O12 1.268 . S
C6 O21 1.268 . S
C7 O13 1.268 . S
C7 O17 1.268 . S
C8 O14 1.268 . S
C8 O16 1.268 . S
C9 O15 1.268 . S
C9 O18 1.268 . S
O10 Sc0 2.105 1_556 S
O10 C4 1.268 . S
O11 Sc1 2.105 . S
O11 C5 1.268 . S
O12 Sc2 2.105 1_556 S
O12 C6 1.268 . S
O13 Sc0 2.105 . S
O13 C7 1.268 . S
O14 Sc2 2.105 . S
O14 C8 1.268 . S
O15 Sc1 2.105 1_554 S
O15 C9 1.268 . S
O16 Sc0 2.105 . S
O16 C8 1.268 . S
O17 Sc1 2.105 1_554 S
O17 C7 1.268 . S
O18 Sc2 2.105 . S
O18 C9 1.268 . S
O19 Sc0 2.105 1_556 S
O19 C5 1.268 . S
O20 Sc2 2.105 . S
O20 C4 1.268 1_554 S
O21 Sc1 2.105 . S
O21 C6 1.268 . S
Sc22 O25 2.025 . S
Sc22 O32 2.105 . S
Sc22 O35 2.105 . S
Sc22 O38 2.105 . S
Sc22 O41 2.105 . S
Sc23 O25 2.025 . S
Sc23 O33 2.105 . S
Sc23 O37 2.105 . S
Sc23 O39 2.105 . S
Sc23 O43 2.105 . S
Sc24 O25 2.025 . S
Sc24 O34 2.105 . S
Sc24 O36 2.105 . S
Sc24 O40 2.105 . S
Sc24 O42 2.105 . S
O25 Sc22 2.025 . S
O25 Sc23 2.025 . S
O25 Sc24 2.025 . S
C26 O32 1.268 . S
C26 O42 1.268 . S
C27 O33 1.268 . S
C27 O41 1.268 . S
C28 O34 1.268 . S
C28 O43 1.268 . S
C29 O35 1.268 . S
C29 O39 1.268 . S
C30 O36 1.268 . S
C30 O38 1.268 . S
C31 O37 1.268 . S
C31 O40 1.268 . S
O32 Sc22 2.105 . S
O32 C26 1.268 . S
O33 Sc23 2.105 . S
O33 C27 1.268 . S
O34 Sc24 2.105 . S
O34 C28 1.268 . S
O35 Sc22 2.105 . S
O35 C29 1.268 . S
O36 Sc24 2.105 . S
O36 C30 1.268 . S
O37 Sc23 2.105 . S
O37 C31 1.268 . S
O38 Sc22 2.105 . S
O38 C30 1.268 . S
O39 Sc23 2.105 . S
O39 C29 1.268 . S
O40 Sc24 2.105 . S
O40 C31 1.268 . S
O41 Sc22 2.105 . S
O41 C27 1.268 . S
O42 Sc24 2.105 . S
O42 C26 1.268 . S
O43 Sc23 2.105 . S
O43 C28 1.268 . S
Sc44 O47 2.025 . S
Sc44 O54 2.105 . S
Sc44 O57 2.105 . S
Sc44 O60 2.105 . S
Sc44 O63 2.105 . S
Sc45 O47 2.025 . S
Sc45 O55 2.105 . S
Sc45 O59 2.105 . S
Sc45 O61 2.105 . S
Sc45 O65 2.105 . S
Sc46 O47 2.025 . S
Sc46 O56 2.105 . S
Sc46 O58 2.105 . S
Sc46 O62 2.105 . S
Sc46 O64 2.105 . S
O47 Sc44 2.025 . S
O47 Sc45 2.025 . S
O47 Sc46 2.025 . S
C48 O54 1.268 . S
C48 O64 1.268 . S
C49 O55 1.268 . S
C49 O63 1.268 . S
C50 O56 1.268 . S
C50 O65 1.268 . S
C51 O57 1.268 . S
C51 O61 1.268 . S
C52 O58 1.268 . S
C52 O60 1.268 . S
C53 O59 1.268 . S
C53 O62 1.268 . S
O54 Sc44 2.105 . S
O54 C48 1.268 . S
O55 Sc45 2.105 . S
O55 C49 1.268 . S
O56 Sc46 2.105 . S
O56 C50 1.268 . S
O57 Sc44 2.105 . S
O57 C51 1.268 . S
O58 Sc46 2.105 . S
O58 C52 1.268 . S
O59 Sc45 2.105 . S
O59 C53 1.268 . S
O60 Sc44 2.105 . S
O60 C52 1.268 . S
O61 Sc45 2.105 . S
O61 C51 1.268 . S
O62 Sc46 2.105 . S
O62 C53 1.268 . S
O63 Sc44 2.105 . S
O63 C49 1.268 . S
O64 Sc46 2.105 . S
O64 C48 1.268 . S
O65 Sc45 2.105 . S
O65 C50 1.268 . S
Sc66 O69 2.025 . S
Sc66 O76 2.105 . S
Sc66 O79 2.105 . S
Sc66 O82 2.105 . S
Sc66 O85 2.105 . S
Sc67 O69 2.025 . S
Sc67 O77 2.105 . S
Sc67 O81 2.105 . S
Sc67 O83 2.105 . S
Sc67 O87 2.105 . S
Sc68 O69 2.025 . S
Sc68 O78 2.105 . S
Sc68 O80 2.105 . S
Sc68 O84 2.105 . S
Sc68 O86 2.105 . S
O69 Sc66 2.025 . S
O69 Sc67 2.025 . S
O69 Sc68 2.025 . S
C70 O76 1.268 . S
C70 O86 1.268 . S
C71 O77 1.268 . S
C71 O85 1.268 . S
C72 O78 1.268 . S
C72 O87 1.268 . S
C73 O79 1.268 . S
C73 O83 1.268 . S
C74 O80 1.268 . S
C74 O82 1.268 . S
C75 O81 1.268 . S
C75 O84 1.268 . S
O76 Sc66 2.105 . S
O76 C70 1.268 . S
O77 Sc67 2.105 . S
O77 C71 1.268 . S
O78 Sc68 2.105 . S
O78 C72 1.268 . S
O79 Sc66 2.105 . S
O79 C73 1.268 . S
O80 Sc68 2.105 . S
O80 C74 1.268 . S
O81 Sc67 2.105 . S
O81 C75 1.268 . S
O82 Sc66 2.105 . S
O82 C74 1.268 . S
O83 Sc67 2.105 . S
O83 C73 1.268 . S
O84 Sc68 2.105 . S
O84 C75 1.268 . S
O85 Sc66 2.105 . S
O85 C71 1.268 . S
O86 Sc68 2.105 . S
O86 C70 1.268 . S
O87 Sc67 2.105 . S
O87 C72 1.268 . S
Sc88 O91 2.025 . S
Sc88 O98 2.105 . S
Sc88 O101 2.105 . S
Sc88 O104 2.105 . S
Sc88 O107 2.105 . S
Sc89 O91 2.025 . S
Sc89 O99 2.105 . S
Sc89 O103 2.105 . S
Sc89 O105 2.105 . S
Sc89 O109 2.105 . S
Sc90 O91 2.025 . S
Sc90 O100 2.105 . S
Sc90 O102 2.105 . S
Sc90 O106 2.105 . S
Sc90 O108 2.105 . S
O91 Sc88 2.025 . S
O91 Sc89 2.025 . S
O91 Sc90 2.025 . S
C92 O98 1.268 . S
C92 O108 1.268 . S
C93 O99 1.268 . S
C93 O107 1.268 . S
C94 O100 1.268 . S
C94 O109 1.268 . S
C95 O101 1.268 . S
C95 O105 1.268 . S
C96 O102 1.268 . S
C96 O104 1.268 . S
C97 O103 1.268 . S
C97 O106 1.268 . S
O98 Sc88 2.105 . S
O98 C92 1.268 . S
O99 Sc89 2.105 . S
O99 C93 1.268 . S
O100 Sc90 2.105 . S
O100 C94 1.268 . S
O101 Sc88 2.105 . S
O101 C95 1.268 . S
O102 Sc90 2.105 . S
O102 C96 1.268 . S
O103 Sc89 2.105 . S
O103 C97 1.268 . S
O104 Sc88 2.105 . S
O104 C96 1.268 . S
O105 Sc89 2.105 . S
O105 C95 1.268 . S
O106 Sc90 2.105 . S
O106 C97 1.268 . S
O107 Sc88 2.105 . S
O107 C93 1.268 . S
O108 Sc90 2.105 . S
O108 C92 1.268 . S
O109 Sc89 2.105 . S
O109 C94 1.268 . S
Sc110 O113 2.025 . S
Sc110 O120 2.105 . S
Sc110 O123 2.105 . S
Sc110 O126 2.105 . S
Sc110 O129 2.105 . S
Sc111 O113 2.025 . S
Sc111 O121 2.105 . S
Sc111 O125 2.105 . S
Sc111 O127 2.105 . S
Sc111 O131 2.105 . S
Sc112 O113 2.025 . S
Sc112 O122 2.105 . S
Sc112 O124 2.105 . S
Sc112 O128 2.105 . S
Sc112 O130 2.105 . S
O113 Sc110 2.025 . S
O113 Sc111 2.025 . S
O113 Sc112 2.025 . S
C114 O120 1.268 . S
C114 O130 1.268 . S
C115 O121 1.268 . S
C115 O129 1.268 . S
C116 O122 1.268 . S
C116 O131 1.268 . S
C117 O123 1.268 . S
C117 O127 1.268 . S
C118 O124 1.268 . S
C118 O126 1.268 . S
C119 O125 1.268 . S
C119 O128 1.268 . S
O120 Sc110 2.105 . S
O120 C114 1.268 . S
O121 Sc111 2.105 . S
O121 C115 1.268 . S
O122 Sc112 2.105 . S
O122 C116 1.268 . S
O123 Sc110 2.105 . S
O123 C117 1.268 . S
O124 Sc112 2.105 . S
O124 C118 1.268 . S
O125 Sc111 2.105 . S
O125 C119 1.268 . S
O126 Sc110 2.105 . S
O126 C118 1.268 . S
O127 Sc111 2.105 . S
O127 C117 1.268 . S
O128 Sc112 2.105 . S
O128 C119 1.268 . S
O129 Sc110 2.105 . S
O129 C115 1.268 . S
O130 Sc112 2.105 . S
O130 C114 1.268 . S
O131 Sc111 2.105 . S
O131 C116 1.268 . S
Sc132 O135 2.025 . S
Sc132 O142 2.105 . S
Sc132 O145 2.105 . S
Sc132 O148 2.105 . S
Sc132 O151 2.105 . S
Sc133 O135 2.025 . S
Sc133 O143 2.105 . S
Sc133 O147 2.105 . S
Sc133 O149 2.105 . S
Sc133 O153 2.105 . S
Sc134 O135 2.025 . S
Sc134 O144 2.105 . S
Sc134 O146 2.105 . S
Sc134 O150 2.105 . S
Sc134 O152 2.105 . S
O135 Sc132 2.025 . S
O135 Sc133 2.025 . S
O135 Sc134 2.025 . S
C136 O142 1.268 . S
C136 O152 1.268 . S
C137 O143 1.268 . S
C137 O151 1.268 . S
C138 O144 1.268 . S
C138 O153 1.268 . S
C139 O145 1.268 . S
C139 O149 1.268 . S
C140 O146 1.268 . S
C140 O148 1.268 . S
C141 O147 1.268 . S
C141 O150 1.268 . S
O142 Sc132 2.105 . S
O142 C136 1.268 . S
O143 Sc133 2.105 . S
O143 C137 1.268 . S
O144 Sc134 2.105 . S
O144 C138 1.268 . S
O145 Sc132 2.105 . S
O145 C139 1.268 . S
O146 Sc134 2.105 . S
O146 C140 1.268 . S
O147 Sc133 2.105 . S
O147 C141 1.268 . S
O148 Sc132 2.105 . S
O148 C140 1.268 . S
O149 Sc133 2.105 . S
O149 C139 1.268 . S
O150 Sc134 2.105 . S
O150 C141 1.268 . S
O151 Sc132 2.105 . S
O151 C137 1.268 . S
O152 Sc134 2.105 . S
O152 C136 1.268 . S
O153 Sc133 2.105 . S
O153 C138 1.268 . S
Sc154 O157 2.025 . S
Sc154 O164 2.105 . S
Sc154 O167 2.105 . S
Sc154 O170 2.105 1_554 S
Sc154 O173 2.105 . S
Sc155 O157 2.025 . S
Sc155 O165 2.105 . S
Sc155 O169 2.105 1_554 S
Sc155 O171 2.105 . S
Sc155 O175 2.105 . S
Sc156 O157 2.025 1_556 S
Sc156 O166 2.105 1_556 S
Sc156 O168 2.105 . S
Sc156 O172 2.105 . S
Sc156 O174 2.105 1_556 S
O157 Sc154 2.025 . S
O157 Sc155 2.025 . S
O157 Sc156 2.025 1_554 S
C158 O164 1.268 . S
C158 O174 1.268 . S
C159 O165 1.268 . S
C159 O173 1.268 . S
C160 O166 1.268 . S
C160 O175 1.268 . S
C161 O167 1.268 . S
C161 O171 1.268 . S
C162 O168 1.268 . S
C162 O170 1.268 . S
C163 O169 1.268 . S
C163 O172 1.268 . S
O164 Sc154 2.105 . S
O164 C158 1.268 . S
O165 Sc155 2.105 . S
O165 C159 1.268 . S
O166 Sc156 2.105 1_554 S
O166 C160 1.268 . S
O167 Sc154 2.105 . S
O167 C161 1.268 . S
O168 Sc156 2.105 . S
O168 C162 1.268 . S
O169 Sc155 2.105 1_556 S
O169 C163 1.268 . S
O170 Sc154 2.105 1_556 S
O170 C162 1.268 . S
O171 Sc155 2.105 . S
O171 C161 1.268 . S
O172 Sc156 2.105 . S
O172 C163 1.268 . S
O173 Sc154 2.105 . S
O173 C159 1.268 . S
O174 Sc156 2.105 1_554 S
O174 C158 1.268 . S
O175 Sc155 2.105 . S
O175 C160 1.268 . S
Sc176 O179 2.025 . S
Sc176 O186 2.105 . S
Sc176 O189 2.105 . S
Sc176 O192 2.105 . S
Sc176 O195 2.105 . S
Sc177 O179 2.025 . S
Sc177 O187 2.105 . S
Sc177 O191 2.105 . S
Sc177 O193 2.105 . S
Sc177 O197 2.105 . S
Sc178 O179 2.025 . S
Sc178 O188 2.105 . S
Sc178 O190 2.105 . S
Sc178 O194 2.105 . S
Sc178 O196 2.105 . S
O179 Sc176 2.025 . S
O179 Sc177 2.025 . S
O179 Sc178 2.025 . S
C180 O186 1.268 . S
C180 O196 1.268 . S
C181 O187 1.268 . S
C181 O195 1.268 . S
C182 O188 1.268 . S
C182 O197 1.268 . S
C183 O189 1.268 . S
C183 O193 1.268 . S
C184 O190 1.268 . S
C184 O192 1.268 . S
C185 O191 1.268 . S
C185 O194 1.268 . S
O186 Sc176 2.105 . S
O186 C180 1.268 . S
O187 Sc177 2.105 . S
O187 C181 1.268 . S
O188 Sc178 2.105 . S
O188 C182 1.268 . S
O189 Sc176 2.105 . S
O189 C183 1.268 . S
O190 Sc178 2.105 . S
O190 C184 1.268 . S
O191 Sc177 2.105 . S
O191 C185 1.268 . S
O192 Sc176 2.105 . S
O192 C184 1.268 . S
O193 Sc177 2.105 . S
O193 C183 1.268 . S
O194 Sc178 2.105 . S
O194 C185 1.268 . S
O195 Sc176 2.105 . S
O195 C181 1.268 . S
O196 Sc178 2.105 . S
O196 C180 1.268 . S
O197 Sc177 2.105 . S
O197 C182 1.268 . S
Sc198 O201 2.025 . S
Sc198 O208 2.105 . S
Sc198 O211 2.105 . S
Sc198 O214 2.105 . S
Sc198 O217 2.105 . S
Sc199 O201 2.025 . S
Sc199 O209 2.105 . S
Sc199 O213 2.105 . S
Sc199 O215 2.105 . S
Sc199 O219 2.105 . S
Sc200 O201 2.025 . S
Sc200 O210 2.105 . S
Sc200 O212 2.105 . S
Sc200 O216 2.105 . S
Sc200 O218 2.105 . S
O201 Sc198 2.025 . S
O201 Sc199 2.025 . S
O201 Sc200 2.025 . S
C202 O208 1.268 . S
C202 O218 1.268 . S
C203 O209 1.268 . S
C203 O217 1.268 . S
C204 O210 1.268 . S
C204 O219 1.268 . S
C205 O211 1.268 . S
C205 O215 1.268 . S
C206 O212 1.268 . S
C206 O214 1.268 . S
C207 O213 1.268 . S
C207 O216 1.268 . S
O208 Sc198 2.105 . S
O208 C202 1.268 . S
O209 Sc199 2.105 . S
O209 C203 1.268 . S
O210 Sc200 2.105 . S
O210 C204 1.268 . S
O211 Sc198 2.105 . S
O211 C205 1.268 . S
O212 Sc200 2.105 . S
O212 C206 1.268 . S
O213 Sc199 2.105 . S
O213 C207 1.268 . S
O214 Sc198 2.105 . S
O214 C206 1.268 . S
O215 Sc199 2.105 . S
O215 C205 1.268 . S
O216 Sc200 2.105 . S
O216 C207 1.268 . S
O217 Sc198 2.105 . S
O217 C203 1.268 . S
O218 Sc200 2.105 . S
O218 C202 1.268 . S
O219 Sc199 2.105 . S
O219 C204 1.268 . S
Sc220 O223 2.025 . S
Sc220 O230 2.105 . S
Sc220 O233 2.105 . S
Sc220 O236 2.105 . S
Sc220 O239 2.105 . S
Sc221 O223 2.025 . S
Sc221 O231 2.105 . S
Sc221 O235 2.105 . S
Sc221 O237 2.105 . S
Sc221 O241 2.105 . S
Sc222 O223 2.025 . S
Sc222 O232 2.105 . S
Sc222 O234 2.105 . S
Sc222 O238 2.105 . S
Sc222 O240 2.105 . S
O223 Sc220 2.025 . S
O223 Sc221 2.025 . S
O223 Sc222 2.025 . S
C224 O230 1.268 . S
C224 O240 1.268 . S
C225 O231 1.268 . S
C225 O239 1.268 . S
C226 O232 1.268 . S
C226 O241 1.268 . S
C227 O233 1.268 . S
C227 O237 1.268 . S
C228 O234 1.268 . S
C228 O236 1.268 . S
C229 O235 1.268 . S
C229 O238 1.268 . S
O230 Sc220 2.105 . S
O230 C224 1.268 . S
O231 Sc221 2.105 . S
O231 C225 1.268 . S
O232 Sc222 2.105 . S
O232 C226 1.268 . S
O233 Sc220 2.105 . S
O233 C227 1.268 . S
O234 Sc222 2.105 . S
O234 C228 1.268 . S
O235 Sc221 2.105 . S
O235 C229 1.268 . S
O236 Sc220 2.105 . S
O236 C228 1.268 . S
O237 Sc221 2.105 . S
O237 C227 1.268 . S
O238 Sc222 2.105 . S
O238 C229 1.268 . S
O239 Sc220 2.105 . S
O239 C225 1.268 . S
O240 Sc222 2.105 . S
O240 C224 1.268 . S
O241 Sc221 2.105 . S
O241 C226 1.268 . S
Sc242 O245 2.025 . S
Sc242 O252 2.105 . S
Sc242 O255 2.105 . S
Sc242 O258 2.105 . S
Sc242 O261 2.105 . S
Sc243 O245 2.025 . S
Sc243 O253 2.105 . S
Sc243 O257 2.105 . S
Sc243 O259 2.105 . S
Sc243 O263 2.105 . S
Sc244 O245 2.025 . S
Sc244 O254 2.105 . S
Sc244 O256 2.105 . S
Sc244 O260 2.105 . S
Sc244 O262 2.105 . S
O245 Sc242 2.025 . S
O245 Sc243 2.025 . S
O245 Sc244 2.025 . S
C246 O252 1.268 . S
C246 O262 1.268 . S
C247 O253 1.268 . S
C247 O261 1.268 . S
C248 O254 1.268 . S
C248 O263 1.268 . S
C249 O255 1.268 . S
C249 O259 1.268 . S
C250 O256 1.268 . S
C250 O258 1.268 . S
C251 O257 1.268 . S
C251 O260 1.268 . S
O252 Sc242 2.105 . S
O252 C246 1.268 . S
O253 Sc243 2.105 . S
O253 C247 1.268 . S
O254 Sc244 2.105 . S
O254 C248 1.268 . S
O255 Sc242 2.105 . S
O255 C249 1.268 . S
O256 Sc244 2.105 . S
O256 C250 1.268 . S
O257 Sc243 2.105 . S
O257 C251 1.268 . S
O258 Sc242 2.105 . S
O258 C250 1.268 . S
O259 Sc243 2.105 . S
O259 C249 1.268 . S
O260 Sc244 2.105 . S
O260 C251 1.268 . S
O261 Sc242 2.105 . S
O261 C247 1.268 . S
O262 Sc244 2.105 . S
O262 C246 1.268 . S
O263 Sc243 2.105 . S
O263 C248 1.268 . S
H264 C272 0.929 . S
H265 C274 0.930 . S
H266 C276 0.930 . S
H267 C279 0.929 . S
H268 C282 0.930 . S
H269 C284 0.960 . S
H270 C284 0.960 . S
H271 C284 0.960 . S
C272 H264 0.929 . S
C272 C273 1.377 . S
C272 C274 1.384 . S
C273 C272 1.377 . S
C273 C279 1.390 . S
C274 H265 0.930 . S
C274 C272 1.384 . S
C274 C275 1.372 . S
C275 C274 1.372 . S
C275 C276 1.400 . S
C275 C280 1.490 . S
C276 H266 0.930 . S
C276 C275 1.400 . S
C276 C279 1.386 . S
H277 C293 0.930 . S
H278 C294 0.931 . S
C279 H267 0.929 . S
C279 C273 1.390 . S
C279 C276 1.386 . S
C280 C275 1.490 . S
C280 C282 1.395 . S
C280 C283 1.403 . S
H281 C287 0.930 . S
C282 H268 0.930 . S
C282 C280 1.395 . S
C282 C285 1.403 . S
C283 C280 1.403 . S
C283 C284 1.524 . S
C283 C287 1.400 . S
C284 H269 0.960 . S
C284 H270 0.960 . S
C284 H271 0.960 . S
C284 C283 1.524 . S
C285 C282 1.403 . S
C285 C286 1.392 . S
C285 C289 1.495 . S
C286 C285 1.392 . S
C286 C287 1.385 . S
C286 C288 1.478 . S
C287 H281 0.930 . S
C287 C283 1.400 . S
C287 C286 1.385 . S
C288 C286 1.478 . S
C288 C290 1.381 . S
C288 C294 1.383 . S
C289 C285 1.495 . S
C289 H295 0.959 . S
C289 H296 0.961 . S
C289 H297 0.960 . S
C290 C288 1.381 . S
C290 C291 1.394 . S
C290 H298 0.930 . S
C291 C290 1.394 . S
C291 C292 1.383 . S
C291 H299 0.929 . S
C292 C291 1.383 . S
C292 C293 1.377 . S
C293 H277 0.930 . S
C293 C292 1.377 . S
C293 C294 1.379 . S
C294 H278 0.931 . S
C294 C288 1.383 . S
C294 C293 1.379 . S
H295 C289 0.959 . S
H296 C289 0.961 . S
H297 C289 0.960 . S
H298 C290 0.930 . S
H299 C291 0.929 . S
H300 C308 0.929 . S
H301 C310 0.930 . S
H302 C312 0.930 . S
H303 C315 0.929 . S
H304 C318 0.930 . S
H305 C320 0.960 . S
H306 C320 0.960 . S
H307 C320 0.960 . S
C308 H300 0.929 . S
C308 C309 1.377 . S
C308 C310 1.384 . S
C309 C308 1.377 . S
C309 C315 1.390 . S
C310 H301 0.930 . S
C310 C308 1.384 . S
C310 C311 1.372 . S
C311 C310 1.372 . S
C311 C312 1.400 . S
C311 C316 1.490 1_554 S
C312 H302 0.930 . S
C312 C311 1.400 . S
C312 C315 1.386 . S
H313 C329 0.930 . S
H314 C330 0.931 . S
C315 H303 0.929 . S
C315 C309 1.390 . S
C315 C312 1.386 . S
C316 C311 1.490 1_556 S
C316 C318 1.395 . S
C316 C319 1.403 . S
H317 C323 0.930 . S
C318 H304 0.930 . S
C318 C316 1.395 . S
C318 C321 1.403 . S
C319 C316 1.403 . S
C319 C320 1.524 . S
C319 C323 1.400 . S
C320 H305 0.960 . S
C320 H306 0.960 . S
C320 H307 0.960 . S
C320 C319 1.524 . S
C321 C318 1.403 . S
C321 C322 1.392 . S
C321 C325 1.495 . S
C322 C321 1.392 . S
C322 C323 1.385 . S
C322 C324 1.478 . S
C323 H317 0.930 . S
C323 C319 1.400 . S
C323 C322 1.385 . S
C324 C322 1.478 . S
C324 C326 1.381 . S
C324 C330 1.383 . S
C325 C321 1.495 . S
C325 H331 0.959 . S
C325 H332 0.961 . S
C325 H333 0.960 . S
C326 C324 1.381 . S
C326 C327 1.394 . S
C326 H334 0.930 . S
C327 C326 1.394 . S
C327 C328 1.383 . S
C327 H335 0.929 . S
C328 C327 1.383 . S
C328 C329 1.377 . S
C329 H313 0.930 . S
C329 C328 1.377 . S
C329 C330 1.379 . S
C330 H314 0.931 . S
C330 C324 1.383 . S
C330 C329 1.379 . S
H331 C325 0.959 . S
H332 C325 0.961 . S
H333 C325 0.960 . S
H334 C326 0.930 . S
H335 C327 0.929 . S
H336 C344 0.929 . S
H337 C346 0.936 . S
H338 C348 0.930 . S
H339 C351 0.929 . S
H340 C354 0.930 . S
H341 C356 0.960 . S
H342 C356 0.960 . S
H343 C356 0.960 . S
C344 H336 0.929 . S
C344 C345 1.377 . S
C344 C346 1.365 1_556 S
C345 C344 1.377 . S
C345 C351 1.390 . S
C346 H337 0.936 . S
C346 C344 1.365 1_554 S
C346 C347 1.385 . S
C347 C346 1.385 . S
C347 C348 1.400 . S
C347 C352 1.490 . S
C348 H338 0.930 . S
C348 C347 1.400 . S
C348 C351 1.386 1_554 S
H349 C365 0.930 . S
H350 C366 0.931 . S
C351 H339 0.929 . S
C351 C345 1.390 . S
C351 C348 1.386 1_556 S
C352 C347 1.490 . S
C352 C354 1.395 . S
C352 C355 1.403 . S
H353 C359 0.930 . S
C354 H340 0.930 . S
C354 C352 1.395 . S
C354 C357 1.403 . S
C355 C352 1.403 . S
C355 C356 1.524 . S
C355 C359 1.400 . S
C356 H341 0.960 . S
C356 H342 0.960 . S
C356 H343 0.960 . S
C356 C355 1.524 . S
C357 C354 1.403 . S
C357 C358 1.392 . S
C357 C361 1.495 . S
C358 C357 1.392 . S
C358 C359 1.385 . S
C358 C360 1.478 . S
C359 H353 0.930 . S
C359 C355 1.400 . S
C359 C358 1.385 . S
C360 C358 1.478 . S
C360 C362 1.381 . S
C360 C366 1.383 . S
C361 C357 1.495 . S
C361 H367 0.959 . S
C361 H368 0.961 . S
C361 H369 0.960 . S
C362 C360 1.381 . S
C362 C363 1.394 . S
C362 H370 0.930 . S
C363 C362 1.394 . S
C363 C364 1.383 . S
C363 H371 0.929 . S
C364 C363 1.383 . S
C364 C365 1.377 . S
C365 H349 0.930 . S
C365 C364 1.377 . S
C365 C366 1.379 . S
C366 H350 0.931 . S
C366 C360 1.383 . S
C366 C365 1.379 . S
H367 C361 0.959 . S
H368 C361 0.961 . S
H369 C361 0.960 . S
H370 C362 0.930 . S
H371 C363 0.929 . S
H372 C380 0.929 . S
H373 C382 0.930 . S
H374 C384 0.930 . S
H375 C387 0.929 . S
H376 C390 0.930 . S
H377 C392 0.960 . S
H378 C392 0.960 . S
H379 C392 0.960 . S
C380 H372 0.929 . S
C380 C381 1.377 . S
C380 C382 1.384 . S
C381 C380 1.377 . S
C381 C387 1.390 . S
C382 H373 0.930 . S
C382 C380 1.384 . S
C382 C383 1.372 . S
C383 C382 1.372 . S
C383 C384 1.400 . S
C383 C388 1.490 . S
C384 H374 0.930 . S
C384 C383 1.400 . S
C384 C387 1.386 . S
H385 C401 0.930 . S
H386 C402 0.931 . S
C387 H375 0.929 . S
C387 C381 1.390 . S
C387 C384 1.386 . S
C388 C383 1.490 . S
C388 C390 1.395 . S
C388 C391 1.403 . S
H389 C395 0.930 . S
C390 H376 0.930 . S
C390 C388 1.395 . S
C390 C393 1.403 . S
C391 C388 1.403 . S
C391 C392 1.524 . S
C391 C395 1.400 . S
C392 H377 0.960 . S
C392 H378 0.960 . S
C392 H379 0.960 . S
C392 C391 1.524 . S
C393 C390 1.403 . S
C393 C394 1.392 . S
C393 C397 1.495 . S
C394 C393 1.392 . S
C394 C395 1.385 . S
C394 C396 1.478 . S
C395 H389 0.930 . S
C395 C391 1.400 . S
C395 C394 1.385 . S
C396 C394 1.478 . S
C396 C398 1.381 . S
C396 C402 1.383 . S
C397 C393 1.495 . S
C397 H403 0.959 . S
C397 H404 0.961 . S
C397 H405 0.960 . S
C398 C396 1.381 . S
C398 C399 1.394 . S
C398 H406 0.930 . S
C399 C398 1.394 . S
C399 C400 1.383 . S
C399 H407 0.929 . S
C400 C399 1.383 . S
C400 C401 1.377 . S
C401 H385 0.930 . S
C401 C400 1.377 . S
C401 C402 1.379 . S
C402 H386 0.931 . S
C402 C396 1.383 . S
C402 C401 1.379 . S
H403 C397 0.959 . S
H404 C397 0.961 . S
H405 C397 0.960 . S
H406 C398 0.930 . S
H407 C399 0.929 . S
H408 C416 0.929 . S
H409 C418 0.930 . S
H410 C420 0.930 . S
H411 C423 0.929 . S
H412 C426 0.930 . S
H413 C428 0.960 . S
H414 C428 0.960 . S
H415 C428 0.960 . S
C416 H408 0.929 . S
C416 C417 1.377 . S
C416 C418 1.384 . S
C417 C416 1.377 . S
C417 C423 1.390 . S
C418 H409 0.930 . S
C418 C416 1.384 . S
C418 C419 1.372 . S
C419 C418 1.372 . S
C419 C420 1.400 . S
C419 C424 1.490 . S
C420 H410 0.930 . S
C420 C419 1.400 . S
C420 C423 1.386 . S
H421 C437 0.930 . S
H422 C438 0.931 . S
C423 H411 0.929 . S
C423 C417 1.390 . S
C423 C420 1.386 . S
C424 C419 1.490 . S
C424 C426 1.395 . S
C424 C427 1.403 . S
H425 C431 0.930 . S
C426 H412 0.930 . S
C426 C424 1.395 . S
C426 C429 1.403 . S
C427 C424 1.403 . S
C427 C428 1.524 . S
C427 C431 1.400 . S
C428 H413 0.960 . S
C428 H414 0.960 . S
C428 H415 0.960 . S
C428 C427 1.524 . S
C429 C426 1.403 . S
C429 C430 1.392 . S
C429 C433 1.495 . S
C430 C429 1.392 . S
C430 C431 1.385 . S
C430 C432 1.478 . S
C431 H425 0.930 . S
C431 C427 1.400 . S
C431 C430 1.385 . S
C432 C430 1.478 . S
C432 C434 1.381 . S
C432 C438 1.383 . S
C433 C429 1.495 . S
C433 H439 0.959 . S
C433 H440 0.961 . S
C433 H441 0.960 . S
C434 C432 1.381 . S
C434 C435 1.394 . S
C434 H442 0.930 . S
C435 C434 1.394 . S
C435 C436 1.383 . S
C435 H443 0.929 . S
C436 C435 1.383 . S
C436 C437 1.377 . S
C437 H421 0.930 . S
C437 C436 1.377 . S
C437 C438 1.379 . S
C438 H422 0.931 . S
C438 C432 1.383 . S
C438 C437 1.379 . S
H439 C433 0.959 . S
H440 C433 0.961 . S
H441 C433 0.960 . S
H442 C434 0.930 . S
H443 C435 0.929 . S
H444 C452 0.929 . S
H445 C454 0.930 . S
H446 C456 0.930 . S
H447 C459 0.929 . S
H448 C462 0.930 . S
H449 C464 0.960 . S
H450 C464 0.960 . S
H451 C464 0.960 . S
C452 H444 0.929 . S
C452 C453 1.377 . S
C452 C454 1.384 . S
C453 C452 1.377 . S
C453 C459 1.390 . S
C454 H445 0.930 . S
C454 C452 1.384 . S
C454 C455 1.372 . S
C455 C454 1.372 . S
C455 C456 1.400 . S
C455 C460 1.490 . S
C456 H446 0.930 . S
C456 C455 1.400 . S
C456 C459 1.386 . S
H457 C473 0.930 . S
H458 C474 0.931 . S
C459 H447 0.929 . S
C459 C453 1.390 . S
C459 C456 1.386 . S
C460 C455 1.490 . S
C460 C462 1.395 . S
C460 C463 1.403 . S
H461 C467 0.930 . S
C462 H448 0.930 . S
C462 C460 1.395 . S
C462 C465 1.403 . S
C463 C460 1.403 . S
C463 C464 1.524 . S
C463 C467 1.400 . S
C464 H449 0.960 . S
C464 H450 0.960 . S
C464 H451 0.960 . S
C464 C463 1.524 . S
C465 C462 1.403 . S
C465 C466 1.392 . S
C465 C469 1.495 . S
C466 C465 1.392 . S
C466 C467 1.385 . S
C466 C468 1.478 . S
C467 H461 0.930 . S
C467 C463 1.400 . S
C467 C466 1.385 . S
C468 C466 1.478 . S
C468 C470 1.381 . S
C468 C474 1.383 . S
C469 C465 1.495 . S
C469 H475 0.959 . S
C469 H476 0.961 . S
C469 H477 0.960 . S
C470 C468 1.381 . S
C470 C471 1.394 . S
C470 H478 0.930 . S
C471 C470 1.394 . S
C471 C472 1.383 . S
C471 H479 0.929 . S
C472 C471 1.383 . S
C472 C473 1.377 . S
C473 H457 0.930 . S
C473 C472 1.377 . S
C473 C474 1.379 . S
C474 H458 0.931 . S
C474 C468 1.383 . S
C474 C473 1.379 . S
H475 C469 0.959 . S
H476 C469 0.961 . S
H477 C469 0.960 . S
H478 C470 0.930 . S
H479 C471 0.929 . S
H480 C488 0.929 1_554 S
H481 C490 0.930 . S
H482 C492 0.930 . S
H483 C495 0.929 . S
H484 C498 0.930 . S
H485 C500 0.960 . S
H486 C500 0.960 . S
H487 C500 0.960 . S
C488 H480 0.929 1_556 S
C488 C489 1.377 . S
C488 C490 1.384 . S
C489 C488 1.377 . S
C489 C495 1.390 . S
C490 H481 0.930 . S
C490 C488 1.384 . S
C490 C491 1.372 . S
C491 C490 1.372 . S
C491 C492 1.400 . S
C491 C496 1.490 . S
C492 H482 0.930 . S
C492 C491 1.400 . S
C492 C495 1.386 . S
H493 C509 0.930 . S
H494 C510 0.931 . S
C495 H483 0.929 . S
C495 C489 1.390 . S
C495 C492 1.386 . S
C496 C491 1.490 . S
C496 C498 1.395 . S
C496 C499 1.403 . S
H497 C503 0.930 . S
C498 H484 0.930 . S
C498 C496 1.395 . S
C498 C501 1.403 . S
C499 C496 1.403 . S
C499 C500 1.524 . S
C499 C503 1.400 . S
C500 H485 0.960 . S
C500 H486 0.960 . S
C500 H487 0.960 . S
C500 C499 1.524 . S
C501 C498 1.403 . S
C501 C502 1.392 . S
C501 C505 1.495 . S
C502 C501 1.392 . S
C502 C503 1.385 . S
C502 C504 1.478 . S
C503 H497 0.930 . S
C503 C499 1.400 . S
C503 C502 1.385 . S
C504 C502 1.478 . S
C504 C506 1.381 . S
C504 C510 1.383 . S
C505 C501 1.495 . S
C505 H511 0.959 . S
C505 H512 0.961 . S
C505 H513 0.960 . S
C506 C504 1.381 . S
C506 C507 1.394 . S
C506 H514 0.930 . S
C507 C506 1.394 . S
C507 C508 1.383 . S
C507 H515 0.929 . S
C508 C507 1.383 . S
C508 C509 1.377 . S
C509 H493 0.930 . S
C509 C508 1.377 . S
C509 C510 1.379 . S
C510 H494 0.931 . S
C510 C504 1.383 . S
C510 C509 1.379 . S
H511 C505 0.959 . S
H512 C505 0.961 . S
H513 C505 0.960 . S
H514 C506 0.930 . S
H515 C507 0.929 . S
H516 C524 0.929 . S
H517 C526 0.930 . S
H518 C528 0.930 . S
H519 C531 0.929 . S
H520 C534 0.930 . S
H521 C536 0.960 . S
H522 C536 0.960 . S
H523 C536 0.960 . S
C524 H516 0.929 . S
C524 C525 1.377 . S
C524 C526 1.384 . S
C525 C524 1.377 . S
C525 C531 1.390 . S
C526 H517 0.930 . S
C526 C524 1.384 . S
C526 C527 1.372 . S
C527 C526 1.372 . S
C527 C528 1.400 . S
C527 C532 1.490 1_655 S
C528 H518 0.930 . S
C528 C527 1.400 . S
C528 C531 1.386 . S
H529 C545 0.930 . S
H530 C546 0.931 . S
C531 H519 0.929 . S
C531 C525 1.390 . S
C531 C528 1.386 . S
C532 C527 1.490 1_455 S
C532 C534 1.395 . S
C532 C535 1.403 . S
H533 C539 0.930 . S
C534 H520 0.930 . S
C534 C532 1.395 . S
C534 C537 1.403 . S
C535 C532 1.403 . S
C535 C536 1.524 . S
C535 C539 1.400 . S
C536 H521 0.960 . S
C536 H522 0.960 . S
C536 H523 0.960 . S
C536 C535 1.524 . S
C537 C534 1.403 . S
C537 C538 1.392 . S
C537 C541 1.495 . S
C538 C537 1.392 . S
C538 C539 1.385 . S
C538 C540 1.478 . S
C539 H533 0.930 . S
C539 C535 1.400 . S
C539 C538 1.385 . S
C540 C538 1.478 . S
C540 C542 1.381 . S
C540 C546 1.383 . S
C541 C537 1.495 . S
C541 H547 0.959 . S
C541 H548 0.961 . S
C541 H549 0.960 . S
C542 C540 1.381 . S
C542 C543 1.394 . S
C542 H550 0.930 . S
C543 C542 1.394 . S
C543 C544 1.383 . S
C543 H551 0.929 1_554 S
C544 C543 1.383 . S
C544 C545 1.377 . S
C545 H529 0.930 . S
C545 C544 1.377 . S
C545 C546 1.379 . S
C546 H530 0.931 . S
C546 C540 1.383 . S
C546 C545 1.379 . S
H547 C541 0.959 . S
H548 C541 0.961 . S
H549 C541 0.960 . S
H550 C542 0.930 . S
H551 C543 0.929 1_556 S
H552 C560 0.929 . S
H553 C562 0.930 . S
H554 C564 0.930 . S
H555 C567 0.929 . S
H556 C570 0.930 . S
H557 C572 0.960 . S
H558 C572 0.960 . S
H559 C572 0.960 . S
C560 H552 0.929 . S
C560 C561 1.377 . S
C560 C562 1.384 . S
C561 C560 1.377 . S
C561 C567 1.390 . S
C562 H553 0.930 . S
C562 C560 1.384 . S
C562 C563 1.372 . S
C563 C562 1.372 . S
C563 C564 1.400 . S
C563 C568 1.490 . S
C564 H554 0.930 . S
C564 C563 1.400 . S
C564 C567 1.386 . S
H565 C581 0.930 . S
H566 C582 0.931 . S
C567 H555 0.929 . S
C567 C561 1.390 . S
C567 C564 1.386 . S
C568 C563 1.490 . S
C568 C570 1.395 . S
C568 C571 1.403 . S
H569 C575 0.930 . S
C570 H556 0.930 . S
C570 C568 1.395 . S
C570 C573 1.403 . S
C571 C568 1.403 . S
C571 C572 1.524 . S
C571 C575 1.400 . S
C572 H557 0.960 . S
C572 H558 0.960 . S
C572 H559 0.960 . S
C572 C571 1.524 . S
C573 C570 1.403 . S
C573 C574 1.392 . S
C573 C577 1.495 . S
C574 C573 1.392 . S
C574 C575 1.385 . S
C574 C576 1.478 1_545 S
C575 H569 0.930 . S
C575 C571 1.400 . S
C575 C574 1.385 . S
C576 C574 1.478 1_565 S
C576 C578 1.381 . S
C576 C582 1.383 . S
C577 C573 1.495 . S
C577 H583 0.959 . S
C577 H584 0.961 1_545 S
C577 H585 0.960 1_545 S
C578 C576 1.381 . S
C578 C579 1.394 . S
C578 H586 0.930 . S
C579 C578 1.394 . S
C579 C580 1.383 . S
C579 H587 0.929 . S
C580 C579 1.383 . S
C580 C581 1.377 . S
C581 H565 0.930 . S
C581 C580 1.377 . S
C581 C582 1.379 . S
C582 H566 0.931 . S
C582 C576 1.383 . S
C582 C581 1.379 . S
H583 C577 0.959 . S
H584 C577 0.961 1_565 S
H585 C577 0.960 1_565 S
H586 C578 0.930 . S
H587 C579 0.929 . S
H588 C596 0.929 . S
H589 C598 0.930 . S
H590 C600 0.930 . S
H591 C603 0.929 . S
H592 C606 0.930 . S
H593 C608 0.960 . S
H594 C608 0.960 . S
H595 C608 0.960 . S
C596 H588 0.929 . S
C596 C597 1.377 . S
C596 C598 1.384 . S
C597 C596 1.377 . S
C597 C603 1.390 . S
C598 H589 0.930 . S
C598 C596 1.384 . S
C598 C599 1.372 . S
C599 C598 1.372 . S
C599 C600 1.400 . S
C599 C604 1.490 . S
C600 H590 0.930 . S
C600 C599 1.400 . S
C600 C603 1.386 . S
H601 C617 0.930 . S
H602 C618 0.931 . S
C603 H591 0.929 . S
C603 C597 1.390 . S
C603 C600 1.386 . S
C604 C599 1.490 . S
C604 C606 1.395 . S
C604 C607 1.403 . S
H605 C611 0.930 . S
C606 H592 0.930 . S
C606 C604 1.395 . S
C606 C609 1.403 . S
C607 C604 1.403 . S
C607 C608 1.524 . S
C607 C611 1.400 . S
C608 H593 0.960 . S
C608 H594 0.960 . S
C608 H595 0.960 . S
C608 C607 1.524 . S
C609 C606 1.403 . S
C609 C610 1.392 . S
C609 C613 1.495 . S
C610 C609 1.392 . S
C610 C611 1.385 . S
C610 C612 1.478 . S
C611 H605 0.930 . S
C611 C607 1.400 . S
C611 C610 1.385 . S
C612 C610 1.478 . S
C612 C614 1.381 . S
C612 C618 1.383 . S
C613 C609 1.495 . S
C613 H619 0.959 . S
C613 H620 0.961 . S
C613 H621 0.960 . S
C614 C612 1.381 . S
C614 C615 1.394 . S
C614 H622 0.930 . S
C615 C614 1.394 . S
C615 C616 1.383 . S
C615 H623 0.929 . S
C616 C615 1.383 . S
C616 C617 1.377 . S
C617 H601 0.930 . S
C617 C616 1.377 . S
C617 C618 1.379 . S
C618 H602 0.931 . S
C618 C612 1.383 . S
C618 C617 1.379 . S
H619 C613 0.959 . S
H620 C613 0.961 . S
H621 C613 0.960 . S
H622 C614 0.930 . S
H623 C615 0.929 . S
H624 C632 0.929 . S
H625 C634 0.930 . S
H626 C636 0.930 . S
H627 C639 0.929 . S
H628 C642 0.930 . S
H629 C644 0.960 . S
H630 C644 0.960 . S
H631 C644 0.960 . S
C632 H624 0.929 . S
C632 C633 1.377 . S
C632 C634 1.384 . S
C633 C632 1.377 . S
C633 C639 1.390 . S
C634 H625 0.930 . S
C634 C632 1.384 . S
C634 C635 1.372 . S
C635 C634 1.372 . S
C635 C636 1.400 . S
C635 C640 1.490 1_455 S
C636 H626 0.930 . S
C636 C635 1.400 . S
C636 C639 1.386 . S
H637 C653 0.930 . S
H638 C654 0.931 . S
C639 H627 0.929 . S
C639 C633 1.390 . S
C639 C636 1.386 . S
C640 C635 1.490 1_655 S
C640 C642 1.395 . S
C640 C643 1.403 . S
H641 C647 0.930 . S
C642 H628 0.930 . S
C642 C640 1.395 . S
C642 C645 1.403 . S
C643 C640 1.403 . S
C643 C644 1.524 . S
C643 C647 1.400 . S
C644 H629 0.960 . S
C644 H630 0.960 . S
C644 H631 0.960 . S
C644 C643 1.524 . S
C645 C642 1.403 . S
C645 C646 1.392 . S
C645 C649 1.495 . S
C646 C645 1.392 . S
C646 C647 1.385 . S
C646 C648 1.478 . S
C647 H641 0.930 . S
C647 C643 1.400 . S
C647 C646 1.385 . S
C648 C646 1.478 . S
C648 C650 1.381 . S
C648 C654 1.383 . S
C649 C645 1.495 . S
C649 H655 0.959 . S
C649 H656 0.961 . S
C649 H657 0.960 . S
C650 C648 1.381 . S
C650 C651 1.394 . S
C650 H658 0.930 . S
C651 C650 1.394 . S
C651 C652 1.383 . S
C651 H659 0.929 . S
C652 C651 1.383 . S
C652 C653 1.377 . S
C653 H637 0.930 . S
C653 C652 1.377 . S
C653 C654 1.379 . S
C654 H638 0.931 . S
C654 C648 1.383 . S
C654 C653 1.379 . S
H655 C649 0.959 . S
H656 C649 0.961 . S
H657 C649 0.960 . S
H658 C650 0.930 . S
H659 C651 0.929 . S
H660 C668 0.929 . S
H661 C670 0.930 . S
H662 C672 0.930 . S
H663 C675 0.929 . S
H664 C678 0.930 . S
H665 C680 0.960 . S
H666 C680 0.960 1_545 S
H667 C680 0.960 1_545 S
C668 H660 0.929 . S
C668 C669 1.377 . S
C668 C670 1.384 . S
C669 C668 1.377 . S
C669 C675 1.390 . S
C670 H661 0.930 . S
C670 C668 1.384 . S
C670 C671 1.372 . S
C671 C670 1.372 . S
C671 C672 1.400 . S
C671 C676 1.490 1_545 S
C672 H662 0.930 . S
C672 C671 1.400 . S
C672 C675 1.386 . S
H673 C689 0.930 . S
H674 C690 0.931 . S
C675 H663 0.929 . S
C675 C669 1.390 . S
C675 C672 1.386 . S
C676 C671 1.490 1_565 S
C676 C678 1.395 . S
C676 C679 1.403 . S
H677 C683 0.930 . S
C678 H664 0.930 . S
C678 C676 1.395 . S
C678 C681 1.403 . S
C679 C676 1.403 . S
C679 C680 1.524 . S
C679 C683 1.400 . S
C680 H665 0.960 . S
C680 H666 0.960 1_565 S
C680 H667 0.960 1_565 S
C680 C679 1.524 . S
C681 C678 1.403 . S
C681 C682 1.392 . S
C681 C685 1.495 . S
C682 C681 1.392 . S
C682 C683 1.385 . S
C682 C684 1.478 . S
C683 H677 0.930 . S
C683 C679 1.400 . S
C683 C682 1.385 . S
C684 C682 1.478 . S
C684 C686 1.381 . S
C684 C690 1.383 . S
C685 C681 1.495 . S
C685 H691 0.959 . S
C685 H692 0.961 . S
C685 H693 0.960 . S
C686 C684 1.381 . S
C686 C687 1.394 . S
C686 H694 0.930 . S
C687 C686 1.394 . S
C687 C688 1.383 . S
C687 H695 0.929 . S
C688 C687 1.383 . S
C688 C689 1.377 . S
C689 H673 0.930 . S
C689 C688 1.377 . S
C689 C690 1.379 . S
C690 H674 0.931 . S
C690 C684 1.383 . S
C690 C689 1.379 . S
H691 C685 0.959 . S
H692 C685 0.961 . S
H693 C685 0.960 . S
H694 C686 0.930 . S
H695 C687 0.929 . S
H696 C704 0.929 . S
H697 C706 0.930 . S
H698 C708 0.930 . S
H699 C711 0.929 . S
H700 C714 0.930 . S
H701 C716 0.960 . S
H702 C716 0.960 . S
H703 C716 0.960 . S
C704 H696 0.929 . S
C704 C705 1.377 . S
C704 C706 1.384 . S
C705 C704 1.377 . S
C705 C711 1.390 . S
C706 H697 0.930 . S
C706 C704 1.384 . S
C706 C707 1.372 . S
C707 C706 1.372 . S
C707 C708 1.400 . S
C707 C712 1.490 . S
C708 H698 0.930 . S
C708 C707 1.400 . S
C708 C711 1.386 . S
H709 C725 0.930 . S
H710 C726 0.931 . S
C711 H699 0.929 . S
C711 C705 1.390 . S
C711 C708 1.386 . S
C712 C707 1.490 . S
C712 C714 1.395 . S
C712 C715 1.403 . S
H713 C719 0.930 . S
C714 H700 0.930 . S
C714 C712 1.395 . S
C714 C717 1.403 . S
C715 C712 1.403 . S
C715 C716 1.524 . S
C715 C719 1.400 . S
C716 H701 0.960 . S
C716 H702 0.960 . S
C716 H703 0.960 . S
C716 C715 1.524 . S
C717 C714 1.403 . S
C717 C718 1.392 . S
C717 C721 1.495 1_556 S
C718 C717 1.392 . S
C718 C719 1.385 . S
C718 C720 1.478 . S
C719 H713 0.930 . S
C719 C715 1.400 . S
C719 C718 1.385 . S
C720 C718 1.478 . S
C720 C722 1.381 . S
C720 C726 1.383 . S
C721 C717 1.495 1_554 S
C721 H727 0.959 . S
C721 H728 0.961 . S
C721 H729 0.960 . S
C722 C720 1.381 . S
C722 C723 1.394 . S
C722 H730 0.930 . S
C723 C722 1.394 . S
C723 C724 1.383 . S
C723 H731 0.929 1_556 S
C724 C723 1.383 . S
C724 C725 1.377 . S
C725 H709 0.930 . S
C725 C724 1.377 . S
C725 C726 1.379 . S
C726 H710 0.931 . S
C726 C720 1.383 . S
C726 C725 1.379 . S
H727 C721 0.959 . S
H728 C721 0.961 . S
H729 C721 0.960 . S
H730 C722 0.930 . S
H731 C723 0.929 1_554 S
H732 C740 0.929 . S
H733 C742 0.930 . S
H734 C744 0.930 . S
H735 C747 0.929 . S
H736 C750 0.930 . S
H737 C752 0.960 . S
H738 C752 0.960 . S
H739 C752 0.960 . S
C740 H732 0.929 . S
C740 C741 1.377 . S
C740 C742 1.384 . S
C741 C740 1.377 . S
C741 C747 1.390 . S
C742 H733 0.930 . S
C742 C740 1.384 . S
C742 C743 1.372 . S
C743 C742 1.372 . S
C743 C744 1.400 . S
C743 C748 1.490 1_655 S
C744 H734 0.930 . S
C744 C743 1.400 . S
C744 C747 1.386 . S
H745 C761 0.930 . S
H746 C762 0.931 . S
C747 H735 0.929 . S
C747 C741 1.390 . S
C747 C744 1.386 . S
C748 C743 1.490 1_455 S
C748 C750 1.395 . S
C748 C751 1.403 . S
H749 C755 0.930 . S
C750 H736 0.930 . S
C750 C748 1.395 . S
C750 C753 1.403 . S
C751 C748 1.403 . S
C751 C752 1.524 . S
C751 C755 1.400 . S
C752 H737 0.960 . S
C752 H738 0.960 . S
C752 H739 0.960 . S
C752 C751 1.524 . S
C753 C750 1.403 . S
C753 C754 1.392 . S
C753 C757 1.495 . S
C754 C753 1.392 . S
C754 C755 1.385 . S
C754 C756 1.478 . S
C755 H749 0.930 . S
C755 C751 1.400 . S
C755 C754 1.385 . S
C756 C754 1.478 . S
C756 C758 1.381 . S
C756 C762 1.383 . S
C757 C753 1.495 . S
C757 H763 0.959 . S
C757 H764 0.961 . S
C757 H765 0.960 . S
C758 C756 1.381 . S
C758 C759 1.394 . S
C758 H766 0.930 . S
C759 C758 1.394 . S
C759 C760 1.383 . S
C759 H767 0.929 . S
C760 C759 1.383 . S
C760 C761 1.377 . S
C761 H745 0.930 . S
C761 C760 1.377 . S
C761 C762 1.379 . S
C762 H746 0.931 . S
C762 C756 1.383 . S
C762 C761 1.379 . S
H763 C757 0.959 . S
H764 C757 0.961 . S
H765 C757 0.960 . S
H766 C758 0.930 . S
H767 C759 0.929 . S
H768 C776 0.929 . S
H769 C778 0.930 . S
H770 C780 0.930 . S
H771 C783 0.929 . S
H772 C786 0.930 . S
H773 C788 0.960 . S
H774 C788 0.960 1_565 S
H775 C788 0.960 . S
C776 H768 0.929 . S
C776 C777 1.377 . S
C776 C778 1.384 . S
C777 C776 1.377 . S
C777 C783 1.390 . S
C778 H769 0.930 . S
C778 C776 1.384 . S
C778 C779 1.372 . S
C779 C778 1.372 . S
C779 C780 1.400 . S
C779 C784 1.490 1_565 S
C780 H770 0.930 . S
C780 C779 1.400 . S
C780 C783 1.386 . S
H781 C797 0.930 . S
H782 C798 0.931 . S
C783 H771 0.929 . S
C783 C777 1.390 . S
C783 C780 1.386 . S
C784 C779 1.490 1_545 S
C784 C786 1.395 . S
C784 C787 1.403 . S
H785 C791 0.930 . S
C786 H772 0.930 . S
C786 C784 1.395 . S
C786 C789 1.403 . S
C787 C784 1.403 . S
C787 C788 1.524 . S
C787 C791 1.400 . S
C788 H773 0.960 . S
C788 H774 0.960 1_545 S
C788 H775 0.960 . S
C788 C787 1.524 . S
C789 C786 1.403 . S
C789 C790 1.392 . S
C789 C793 1.495 . S
C790 C789 1.392 . S
C790 C791 1.385 . S
C790 C792 1.478 . S
C791 H785 0.930 . S
C791 C787 1.400 . S
C791 C790 1.385 . S
C792 C790 1.478 . S
C792 C794 1.381 . S
C792 C798 1.383 . S
C793 C789 1.495 . S
C793 H799 0.959 . S
C793 H800 0.961 . S
C793 H801 0.960 . S
C794 C792 1.381 . S
C794 C795 1.394 . S
C794 H802 0.930 . S
C795 C794 1.394 . S
C795 C796 1.383 . S
C795 H803 0.929 . S
C796 C795 1.383 . S
C796 C797 1.377 . S
C797 H781 0.930 . S
C797 C796 1.377 . S
C797 C798 1.379 . S
C798 H782 0.931 . S
C798 C792 1.383 . S
C798 C797 1.379 . S
H799 C793 0.959 . S
H800 C793 0.961 . S
H801 C793 0.960 . S
H802 C794 0.930 . S
H803 C795 0.929 . S
H804 C812 0.929 . S
H805 C814 0.930 . S
H806 C816 0.930 . S
H807 C819 0.929 . S
H808 C822 0.930 . S
H809 C824 0.960 . S
H810 C824 0.960 . S
H811 C824 0.960 . S
C812 H804 0.929 . S
C812 C813 1.377 . S
C812 C814 1.384 . S
C813 C812 1.377 . S
C813 C819 1.390 . S
C814 H805 0.930 . S
C814 C812 1.384 . S
C814 C815 1.372 . S
C815 C814 1.372 . S
C815 C816 1.400 . S
C815 C820 1.490 . S
C816 H806 0.930 . S
C816 C815 1.400 . S
C816 C819 1.386 . S
H817 C833 0.930 . S
H818 C834 0.931 . S
C819 H807 0.929 . S
C819 C813 1.390 . S
C819 C816 1.386 . S
C820 C815 1.490 . S
C820 C822 1.395 . S
C820 C823 1.403 . S
H821 C827 0.930 . S
C822 H808 0.930 . S
C822 C820 1.395 . S
C822 C825 1.403 . S
C823 C820 1.403 . S
C823 C824 1.524 . S
C823 C827 1.400 . S
C824 H809 0.960 . S
C824 H810 0.960 . S
C824 H811 0.960 . S
C824 C823 1.524 . S
C825 C822 1.403 . S
C825 C826 1.392 . S
C825 C829 1.495 . S
C826 C825 1.392 . S
C826 C827 1.385 . S
C826 C828 1.478 . S
C827 H821 0.930 . S
C827 C823 1.400 . S
C827 C826 1.385 . S
C828 C826 1.478 . S
C828 C830 1.381 . S
C828 C834 1.383 . S
C829 C825 1.495 . S
C829 H835 0.959 . S
C829 H836 0.961 . S
C829 H837 0.960 . S
C830 C828 1.381 . S
C830 C831 1.394 . S
C830 H838 0.930 . S
C831 C830 1.394 . S
C831 C832 1.383 . S
C831 H839 0.929 . S
C832 C831 1.383 . S
C832 C833 1.377 . S
C833 H817 0.930 . S
C833 C832 1.377 . S
C833 C834 1.379 . S
C834 H818 0.931 . S
C834 C828 1.383 . S
C834 C833 1.379 . S
H835 C829 0.959 . S
H836 C829 0.961 . S
H837 C829 0.960 . S
H838 C830 0.930 . S
H839 C831 0.929 . S
H840 C848 0.929 . S
H841 C850 0.930 . S
H842 C852 0.930 . S
H843 C855 0.929 . S
H844 C858 0.930 . S
H845 C860 0.960 . S
H846 C860 0.960 . S
H847 C860 0.960 . S
C848 H840 0.929 . S
C848 C849 1.377 . S
C848 C850 1.384 . S
C849 C848 1.377 . S
C849 C855 1.390 . S
C850 H841 0.930 . S
C850 C848 1.384 . S
C850 C851 1.372 . S
C851 C850 1.372 . S
C851 C852 1.400 . S
C851 C856 1.490 . S
C852 H842 0.930 . S
C852 C851 1.400 . S
C852 C855 1.386 . S
H853 C869 0.930 . S
H854 C870 0.930 . S
C855 H843 0.929 . S
C855 C849 1.390 . S
C855 C852 1.386 . S
C856 C851 1.490 . S
C856 C858 1.395 . S
C856 C859 1.403 . S
H857 C863 0.930 . S
C858 H844 0.930 . S
C858 C856 1.395 . S
C858 C861 1.403 . S
C859 C856 1.403 . S
C859 C860 1.524 . S
C859 C863 1.400 . S
C860 H845 0.960 . S
C860 H846 0.960 . S
C860 H847 0.960 . S
C860 C859 1.524 . S
C861 C858 1.403 . S
C861 C862 1.392 . S
C861 C865 1.495 . S
C862 C861 1.392 . S
C862 C863 1.385 . S
C862 C864 1.478 1_655 S
C863 H857 0.930 . S
C863 C859 1.400 . S
C863 C862 1.385 . S
C864 C862 1.478 1_455 S
C864 C866 1.381 . S
C864 C870 1.383 . S
C865 C861 1.495 . S
C865 H871 0.959 . S
C865 H872 0.961 . S
C865 H873 0.960 1_655 S
C866 C864 1.381 . S
C866 C867 1.394 . S
C866 H874 0.930 . S
C867 C866 1.394 . S
C867 C868 1.383 . S
C867 H875 0.929 . S
C868 C867 1.383 . S
C868 C869 1.377 . S
C869 H853 0.930 . S
C869 C868 1.377 . S
C869 C870 1.379 . S
C870 H854 0.930 . S
C870 C864 1.383 . S
C870 C869 1.379 . S
H871 C865 0.959 . S
H872 C865 0.961 . S
H873 C865 0.960 1_455 S
H874 C866 0.930 . S
H875 C867 0.929 . S
H876 C884 0.929 . S
H877 C886 0.930 . S
H878 C888 0.930 . S
H879 C891 0.929 . S
H880 C894 0.930 . S
H881 C896 0.960 . S
H882 C896 0.960 . S
H883 C896 0.960 . S
C884 H876 0.929 . S
C884 C885 1.377 . S
C884 C886 1.384 . S
C885 C884 1.377 . S
C885 C891 1.390 . S
C886 H877 0.930 . S
C886 C884 1.384 . S
C886 C887 1.372 . S
C887 C886 1.372 . S
C887 C888 1.400 . S
C887 C892 1.490 . S
C888 H878 0.930 . S
C888 C887 1.400 . S
C888 C891 1.386 . S
H889 C905 0.930 . S
H890 C906 0.935 . S
C891 H879 0.929 . S
C891 C885 1.390 . S
C891 C888 1.386 . S
C892 C887 1.490 . S
C892 C894 1.395 . S
C892 C895 1.403 . S
H893 C899 0.930 . S
C894 H880 0.930 . S
C894 C892 1.395 . S
C894 C897 1.403 . S
C895 C892 1.403 . S
C895 C896 1.524 . S
C895 C899 1.400 . S
C896 H881 0.960 . S
C896 H882 0.960 . S
C896 H883 0.960 . S
C896 C895 1.524 . S
C897 C894 1.403 . S
C897 C898 1.392 . S
C897 C901 1.495 . S
C898 C897 1.392 . S
C898 C899 1.385 . S
C898 C900 1.478 1_565 S
C899 H893 0.930 . S
C899 C895 1.400 . S
C899 C898 1.385 . S
C900 C898 1.478 1_545 S
C900 C902 1.381 . S
C900 C906 1.383 . S
C901 C897 1.495 . S
C901 H907 0.959 . S
C901 H908 0.961 . S
C901 H909 0.960 1_565 S
C902 C900 1.381 . S
C902 C903 1.394 . S
C902 H910 0.930 . S
C903 C902 1.394 . S
C903 C904 1.383 . S
C903 H911 0.929 . S
C904 C903 1.383 . S
C904 C905 1.377 . S
C905 H889 0.930 . S
C905 C904 1.377 . S
C905 C906 1.379 . S
C906 H890 0.935 . S
C906 C900 1.383 . S
C906 C905 1.379 . S
H907 C901 0.959 . S
H908 C901 0.961 . S
H909 C901 0.960 1_545 S
H910 C902 0.930 . S
H911 C903 0.929 . S
H912 C920 0.929 . S
H913 C922 0.930 . S
H914 C924 0.930 1_554 S
H915 C927 0.929 1_554 S
H916 C930 0.930 . S
H917 C932 0.960 . S
H918 C932 0.960 . S
H919 C932 0.960 . S
C920 H912 0.929 . S
C920 C921 1.377 . S
C920 C922 1.384 . S
C921 C920 1.377 . S
C921 C927 1.390 . S
C922 H913 0.930 . S
C922 C920 1.384 . S
C922 C923 1.372 . S
C923 C922 1.372 . S
C923 C924 1.400 . S
C923 C928 1.490 . S
C924 H914 0.930 1_556 S
C924 C923 1.400 . S
C924 C927 1.386 . S
H925 C941 0.930 . S
H926 C942 0.931 . S
C927 H915 0.929 1_556 S
C927 C921 1.390 . S
C927 C924 1.386 . S
C928 C923 1.490 . S
C928 C930 1.395 . S
C928 C931 1.403 . S
H929 C935 0.930 . S
C930 H916 0.930 . S
C930 C928 1.395 . S
C930 C933 1.403 . S
C931 C928 1.403 . S
C931 C932 1.524 . S
C931 C935 1.400 . S
C932 H917 0.960 . S
C932 H918 0.960 . S
C932 H919 0.960 . S
C932 C931 1.524 . S
C933 C930 1.403 . S
C933 C934 1.392 . S
C933 C937 1.495 . S
C934 C933 1.392 . S
C934 C935 1.385 . S
C934 C936 1.478 . S
C935 H929 0.930 . S
C935 C931 1.400 . S
C935 C934 1.385 . S
C936 C934 1.478 . S
C936 C938 1.381 . S
C936 C942 1.383 . S
C937 C933 1.495 . S
C937 H943 0.959 . S
C937 H944 0.961 . S
C937 H945 0.960 . S
C938 C936 1.381 . S
C938 C939 1.394 . S
C938 H946 0.930 . S
C939 C938 1.394 . S
C939 C940 1.383 . S
C939 H947 0.929 . S
C940 C939 1.383 . S
C940 C941 1.377 . S
C941 H925 0.930 . S
C941 C940 1.377 . S
C941 C942 1.379 . S
C942 H926 0.931 . S
C942 C936 1.383 . S
C942 C941 1.379 . S
H943 C937 0.959 . S
H944 C937 0.961 . S
H945 C937 0.960 . S
H946 C938 0.930 . S
H947 C939 0.929 . S
H948 C956 0.929 . S
H949 C958 0.930 . S
H950 C960 0.930 . S
H951 C963 0.929 . S
H952 C966 0.930 . S
H953 C968 0.960 . S
H954 C968 0.960 . S
H955 C968 0.960 . S
C956 H948 0.929 . S
C956 C957 1.377 . S
C956 C958 1.384 . S
C957 C956 1.377 . S
C957 C963 1.390 . S
C958 H949 0.930 . S
C958 C956 1.384 . S
C958 C959 1.372 . S
C959 C958 1.372 . S
C959 C960 1.400 . S
C959 C964 1.490 . S
C960 H950 0.930 . S
C960 C959 1.400 . S
C960 C963 1.386 . S
H961 C977 0.930 . S
H962 C978 0.931 . S
C963 H951 0.929 . S
C963 C957 1.390 . S
C963 C960 1.386 . S
C964 C959 1.490 . S
C964 C966 1.395 . S
C964 C967 1.403 . S
H965 C971 0.930 . S
C966 H952 0.930 . S
C966 C964 1.395 . S
C966 C969 1.403 . S
C967 C964 1.403 . S
C967 C968 1.524 . S
C967 C971 1.400 . S
C968 H953 0.960 . S
C968 H954 0.960 . S
C968 H955 0.960 . S
C968 C967 1.524 . S
C969 C966 1.403 . S
C969 C970 1.392 . S
C969 C973 1.495 . S
C970 C969 1.392 . S
C970 C971 1.385 . S
C970 C972 1.478 . S
C971 H965 0.930 . S
C971 C967 1.400 . S
C971 C970 1.385 . S
C972 C970 1.478 . S
C972 C974 1.381 . S
C972 C978 1.383 . S
C973 C969 1.495 . S
C973 H979 0.959 . S
C973 H980 0.961 . S
C973 H981 0.960 . S
C974 C972 1.381 . S
C974 C975 1.394 . S
C974 H982 0.930 . S
C975 C974 1.394 . S
C975 C976 1.383 . S
C975 H983 0.929 . S
C976 C975 1.383 . S
C976 C977 1.377 . S
C977 H961 0.930 . S
C977 C976 1.377 . S
C977 C978 1.379 . S
C978 H962 0.931 . S
C978 C972 1.383 . S
C978 C977 1.379 . S
H979 C973 0.959 . S
H980 C973 0.961 . S
H981 C973 0.960 . S
H982 C974 0.930 . S
H983 C975 0.929 . S
H984 C992 0.929 . S
H985 C994 0.930 . S
H986 C996 0.930 . S
H987 C999 0.929 . S
H988 C1002 0.930 . S
H989 C1004 0.960 . S
H990 C1004 0.960 . S
H991 C1004 0.960 . S
C992 H984 0.929 . S
C992 C993 1.377 . S
C992 C994 1.384 . S
C993 C992 1.377 . S
C993 C999 1.390 . S
C994 H985 0.930 . S
C994 C992 1.384 . S
C994 C995 1.372 . S
C995 C994 1.372 . S
C995 C996 1.400 . S
C995 C1000 1.490 . S
C996 H986 0.930 . S
C996 C995 1.400 . S
C996 C999 1.386 . S
H997 C1013 0.930 . S
H998 C1014 0.931 . S
C999 H987 0.929 . S
C999 C993 1.390 . S
C999 C996 1.386 . S
C1000 C995 1.490 . S
C1000 C1002 1.395 . S
C1000 C1003 1.403 . S
H1001 C1007 0.930 . S
C1002 H988 0.930 . S
C1002 C1000 1.395 . S
C1002 C1005 1.403 . S
C1003 C1000 1.403 . S
C1003 C1004 1.524 . S
C1003 C1007 1.400 . S
C1004 H989 0.960 . S
C1004 H990 0.960 . S
C1004 H991 0.960 . S
C1004 C1003 1.524 . S
C1005 C1002 1.403 . S
C1005 C1006 1.392 . S
C1005 C1009 1.495 . S
C1006 C1005 1.392 . S
C1006 C1007 1.385 . S
C1006 C1008 1.478 . S
C1007 H1001 0.930 . S
C1007 C1003 1.400 . S
C1007 C1006 1.385 . S
C1008 C1006 1.478 . S
C1008 C1010 1.381 . S
C1008 C1014 1.383 . S
C1009 C1005 1.495 . S
C1009 H1015 0.959 . S
C1009 H1016 0.961 . S
C1009 H1017 0.960 . S
C1010 C1008 1.381 . S
C1010 C1011 1.394 . S
C1010 H1018 0.930 . S
C1011 C1010 1.394 . S
C1011 C1012 1.383 . S
C1011 H1019 0.929 . S
C1012 C1011 1.383 . S
C1012 C1013 1.377 . S
C1013 H997 0.930 . S
C1013 C1012 1.377 . S
C1013 C1014 1.379 . S
C1014 H998 0.931 . S
C1014 C1008 1.383 . S
C1014 C1013 1.379 . S
H1015 C1009 0.959 . S
H1016 C1009 0.961 . S
H1017 C1009 0.960 . S
H1018 C1010 0.930 . S
H1019 C1011 0.929 . S
H1020 C1028 0.929 . S
H1021 C1030 0.930 . S
H1022 C1032 0.930 . S
H1023 C1035 0.929 . S
H1024 C1038 0.930 . S
H1025 C1040 0.960 . S
H1026 C1040 0.960 . S
H1027 C1040 0.960 . S
C1028 H1020 0.929 . S
C1028 C1029 1.377 . S
C1028 C1030 1.384 . S
C1029 C1028 1.377 . S
C1029 C1035 1.390 . S
C1030 H1021 0.930 . S
C1030 C1028 1.384 . S
C1030 C1031 1.372 . S
C1031 C1030 1.372 . S
C1031 C1032 1.400 . S
C1031 C1036 1.490 . S
C1032 H1022 0.930 . S
C1032 C1031 1.400 . S
C1032 C1035 1.386 . S
H1033 C1049 0.930 . S
H1034 C1050 0.931 . S
C1035 H1023 0.929 . S
C1035 C1029 1.390 . S
C1035 C1032 1.386 . S
C1036 C1031 1.490 . S
C1036 C1038 1.395 . S
C1036 C1039 1.403 . S
H1037 C1043 0.930 . S
C1038 H1024 0.930 . S
C1038 C1036 1.395 . S
C1038 C1041 1.403 . S
C1039 C1036 1.403 . S
C1039 C1040 1.524 . S
C1039 C1043 1.400 . S
C1040 H1025 0.960 . S
C1040 H1026 0.960 . S
C1040 H1027 0.960 . S
C1040 C1039 1.524 . S
C1041 C1038 1.403 . S
C1041 C1042 1.392 . S
C1041 C1045 1.495 . S
C1042 C1041 1.392 . S
C1042 C1043 1.385 . S
C1042 C1044 1.478 . S
C1043 H1037 0.930 . S
C1043 C1039 1.400 . S
C1043 C1042 1.385 . S
C1044 C1042 1.478 . S
C1044 C1046 1.381 . S
C1044 C1050 1.383 . S
C1045 C1041 1.495 . S
C1045 H1051 0.959 . S
C1045 H1052 0.961 . S
C1045 H1053 0.960 . S
C1046 C1044 1.381 . S
C1046 C1047 1.394 . S
C1046 H1054 0.930 . S
C1047 C1046 1.394 . S
C1047 C1048 1.383 . S
C1047 H1055 0.929 . S
C1048 C1047 1.383 . S
C1048 C1049 1.377 . S
C1049 H1033 0.930 . S
C1049 C1048 1.377 . S
C1049 C1050 1.379 . S
C1050 H1034 0.931 . S
C1050 C1044 1.383 . S
C1050 C1049 1.379 . S
H1051 C1045 0.959 . S
H1052 C1045 0.961 . S
H1053 C1045 0.960 . S
H1054 C1046 0.930 . S
H1055 C1047 0.929 . S
H1056 C1064 0.929 . S
H1057 C1066 0.930 . S
H1058 C1068 0.930 . S
H1059 C1071 0.929 . S
H1060 C1074 0.930 . S
H1061 C1076 0.960 . S
H1062 C1076 0.960 . S
H1063 C1076 0.960 . S
C1064 H1056 0.929 . S
C1064 C1065 1.377 . S
C1064 C1066 1.384 . S
C1065 C1064 1.377 . S
C1065 C1071 1.390 . S
C1066 H1057 0.930 . S
C1066 C1064 1.384 . S
C1066 C1067 1.372 . S
C1067 C1066 1.372 . S
C1067 C1068 1.400 . S
C1067 C1072 1.490 . S
C1068 H1058 0.930 . S
C1068 C1067 1.400 . S
C1068 C1071 1.386 . S
H1069 C1085 0.930 . S
H1070 C1086 0.931 . S
C1071 H1059 0.929 . S
C1071 C1065 1.390 . S
C1071 C1068 1.386 . S
C1072 C1067 1.490 . S
C1072 C1074 1.395 . S
C1072 C1075 1.403 . S
H1073 C1079 0.930 . S
C1074 H1060 0.930 . S
C1074 C1072 1.395 . S
C1074 C1077 1.403 . S
C1075 C1072 1.403 . S
C1075 C1076 1.524 . S
C1075 C1079 1.400 . S
C1076 H1061 0.960 . S
C1076 H1062 0.960 . S
C1076 H1063 0.960 . S
C1076 C1075 1.524 . S
C1077 C1074 1.403 . S
C1077 C1078 1.392 . S
C1077 C1081 1.495 . S
C1078 C1077 1.392 . S
C1078 C1079 1.385 . S
C1078 C1080 1.478 . S
C1079 H1073 0.930 . S
C1079 C1075 1.400 . S
C1079 C1078 1.385 . S
C1080 C1078 1.478 . S
C1080 C1082 1.381 . S
C1080 C1086 1.383 . S
C1081 C1077 1.495 . S
C1081 H1087 0.959 . S
C1081 H1088 0.961 . S
C1081 H1089 0.960 . S
C1082 C1080 1.381 . S
C1082 C1083 1.394 . S
C1082 H1090 0.930 . S
C1083 C1082 1.394 . S
C1083 C1084 1.383 . S
C1083 H1091 0.929 . S
C1084 C1083 1.383 . S
C1084 C1085 1.377 . S
C1085 H1069 0.930 . S
C1085 C1084 1.377 . S
C1085 C1086 1.379 . S
C1086 H1070 0.931 . S
C1086 C1080 1.383 . S
C1086 C1085 1.379 . S
H1087 C1081 0.959 . S
H1088 C1081 0.961 . S
H1089 C1081 0.960 . S
H1090 C1082 0.930 . S
H1091 C1083 0.929 . S
H1092 C1100 0.929 . S
H1093 C1102 0.930 . S
H1094 C1104 0.930 . S
H1095 C1107 0.929 . S
H1096 C1110 0.930 . S
H1097 C1112 0.960 . S
H1098 C1112 0.960 . S
H1099 C1112 0.960 . S
C1100 H1092 0.929 . S
C1100 C1101 1.377 . S
C1100 C1102 1.384 . S
C1101 C1100 1.377 . S
C1101 C1107 1.390 . S
C1102 H1093 0.930 . S
C1102 C1100 1.384 . S
C1102 C1103 1.372 . S
C1103 C1102 1.372 . S
C1103 C1104 1.400 . S
C1103 C1108 1.490 . S
C1104 H1094 0.930 . S
C1104 C1103 1.400 . S
C1104 C1107 1.386 . S
H1105 C1121 0.930 . S
H1106 C1122 0.931 . S
C1107 H1095 0.929 . S
C1107 C1101 1.390 . S
C1107 C1104 1.386 . S
C1108 C1103 1.490 . S
C1108 C1110 1.395 . S
C1108 C1111 1.403 . S
H1109 C1115 0.930 . S
C1110 H1096 0.930 . S
C1110 C1108 1.395 . S
C1110 C1113 1.403 . S
C1111 C1108 1.403 . S
C1111 C1112 1.524 . S
C1111 C1115 1.400 . S
C1112 H1097 0.960 . S
C1112 H1098 0.960 . S
C1112 H1099 0.960 . S
C1112 C1111 1.524 . S
C1113 C1110 1.403 . S
C1113 C1114 1.392 . S
C1113 C1117 1.495 . S
C1114 C1113 1.392 . S
C1114 C1115 1.385 . S
C1114 C1116 1.478 . S
C1115 H1109 0.930 . S
C1115 C1111 1.400 . S
C1115 C1114 1.385 . S
C1116 C1114 1.478 . S
C1116 C1118 1.381 . S
C1116 C1122 1.383 . S
C1117 C1113 1.495 . S
C1117 H1123 0.959 . S
C1117 H1124 0.961 . S
C1117 H1125 0.960 . S
C1118 C1116 1.381 . S
C1118 C1119 1.394 . S
C1118 H1126 0.930 . S
C1119 C1118 1.394 . S
C1119 C1120 1.383 . S
C1119 H1127 0.929 . S
C1120 C1119 1.383 . S
C1120 C1121 1.377 . S
C1121 H1105 0.930 . S
C1121 C1120 1.377 . S
C1121 C1122 1.379 . S
C1122 H1106 0.931 . S
C1122 C1116 1.383 . S
C1122 C1121 1.379 . S
H1123 C1117 0.959 . S
H1124 C1117 0.961 . S
H1125 C1117 0.960 . S
H1126 C1118 0.930 . S
H1127 C1119 0.929 . S
H1128 C1136 0.929 . S
H1129 C1138 0.930 . S
H1130 C1140 0.930 . S
H1131 C1143 0.929 . S
H1132 C1146 0.930 . S
H1133 C1148 0.960 . S
H1134 C1148 0.960 . S
H1135 C1148 0.960 . S
C1136 H1128 0.929 . S
C1136 C1137 1.377 . S
C1136 C1138 1.384 . S
C1137 C1136 1.377 . S
C1137 C1143 1.390 . S
C1138 H1129 0.930 . S
C1138 C1136 1.384 . S
C1138 C1139 1.372 . S
C1139 C1138 1.372 . S
C1139 C1140 1.400 . S
C1139 C1144 1.490 . S
C1140 H1130 0.930 . S
C1140 C1139 1.400 . S
C1140 C1143 1.386 . S
H1141 C1157 0.930 . S
H1142 C1158 0.931 . S
C1143 H1131 0.929 . S
C1143 C1137 1.390 . S
C1143 C1140 1.386 . S
C1144 C1139 1.490 . S
C1144 C1146 1.395 . S
C1144 C1147 1.403 . S
H1145 C1151 0.930 . S
C1146 H1132 0.930 . S
C1146 C1144 1.395 . S
C1146 C1149 1.403 . S
C1147 C1144 1.403 . S
C1147 C1148 1.524 . S
C1147 C1151 1.400 . S
C1148 H1133 0.960 . S
C1148 H1134 0.960 . S
C1148 H1135 0.960 . S
C1148 C1147 1.524 . S
C1149 C1146 1.403 . S
C1149 C1150 1.392 . S
C1149 C1153 1.495 . S
C1150 C1149 1.392 . S
C1150 C1151 1.385 . S
C1150 C1152 1.478 . S
C1151 H1145 0.930 . S
C1151 C1147 1.400 . S
C1151 C1150 1.385 . S
C1152 C1150 1.478 . S
C1152 C1154 1.381 . S
C1152 C1158 1.383 . S
C1153 C1149 1.495 . S
C1153 H1159 0.959 . S
C1153 H1160 0.961 . S
C1153 H1161 0.960 . S
C1154 C1152 1.381 . S
C1154 C1155 1.394 . S
C1154 H1162 0.930 . S
C1155 C1154 1.394 . S
C1155 C1156 1.383 . S
C1155 H1163 0.929 . S
C1156 C1155 1.383 . S
C1156 C1157 1.377 . S
C1157 H1141 0.930 . S
C1157 C1156 1.377 . S
C1157 C1158 1.379 . S
C1158 H1142 0.931 . S
C1158 C1152 1.383 . S
C1158 C1157 1.379 . S
H1159 C1153 0.959 . S
H1160 C1153 0.961 . S
H1161 C1153 0.960 . S
H1162 C1154 0.930 . S
H1163 C1155 0.929 . S
H1164 C1172 0.929 . S
H1165 C1174 0.930 . S
H1166 C1176 0.930 . S
H1167 C1179 0.929 . S
H1168 C1182 0.930 . S
H1169 C1184 0.960 . S
H1170 C1184 0.960 . S
H1171 C1184 0.960 . S
C1172 H1164 0.929 . S
C1172 C1173 1.377 . S
C1172 C1174 1.384 . S
C1173 C1172 1.377 . S
C1173 C1179 1.390 . S
C1174 H1165 0.930 . S
C1174 C1172 1.384 . S
C1174 C1175 1.372 . S
C1175 C1174 1.372 . S
C1175 C1176 1.400 . S
C1175 C1180 1.490 . S
C1176 H1166 0.930 . S
C1176 C1175 1.400 . S
C1176 C1179 1.386 . S
H1177 C1193 0.930 . S
H1178 C1194 0.931 . S
C1179 H1167 0.929 . S
C1179 C1173 1.390 . S
C1179 C1176 1.386 . S
C1180 C1175 1.490 . S
C1180 C1182 1.395 1_455 S
C1180 C1183 1.403 . S
H1181 C1187 0.930 . S
C1182 H1168 0.930 . S
C1182 C1180 1.395 1_655 S
C1182 C1185 1.403 . S
C1183 C1180 1.403 . S
C1183 C1184 1.524 . S
C1183 C1187 1.400 1_455 S
C1184 H1169 0.960 . S
C1184 H1170 0.960 . S
C1184 H1171 0.960 . S
C1184 C1183 1.524 . S
C1185 C1182 1.403 . S
C1185 C1186 1.392 . S
C1185 C1189 1.495 . S
C1186 C1185 1.392 . S
C1186 C1187 1.385 . S
C1186 C1188 1.478 . S
C1187 H1181 0.930 . S
C1187 C1183 1.400 1_655 S
C1187 C1186 1.385 . S
C1188 C1186 1.478 . S
C1188 C1190 1.381 . S
C1188 C1194 1.383 . S
C1189 C1185 1.495 . S
C1189 H1195 0.959 . S
C1189 H1196 0.961 . S
C1189 H1197 0.960 . S
C1190 C1188 1.381 . S
C1190 C1191 1.394 . S
C1190 H1198 0.930 . S
C1191 C1190 1.394 . S
C1191 C1192 1.383 . S
C1191 H1199 0.929 . S
C1192 C1191 1.383 . S
C1192 C1193 1.377 . S
C1193 H1177 0.930 . S
C1193 C1192 1.377 . S
C1193 C1194 1.379 . S
C1194 H1178 0.931 . S
C1194 C1188 1.383 . S
C1194 C1193 1.379 . S
H1195 C1189 0.959 . S
H1196 C1189 0.961 . S
H1197 C1189 0.960 . S
H1198 C1190 0.930 . S
H1199 C1191 0.929 . S
H1200 C1208 0.929 . S
H1201 C1210 0.930 . S
H1202 C1212 0.930 . S
H1203 C1215 0.929 . S
H1204 C1218 0.930 . S
H1205 C1220 0.960 . S
H1206 C1220 0.960 . S
H1207 C1220 0.960 . S
C1208 H1200 0.929 . S
C1208 C1209 1.377 . S
C1208 C1210 1.384 . S
C1209 C1208 1.377 . S
C1209 C1215 1.390 . S
C1210 H1201 0.930 . S
C1210 C1208 1.384 . S
C1210 C1211 1.372 . S
C1211 C1210 1.372 . S
C1211 C1212 1.400 . S
C1211 C1216 1.490 . S
C1212 H1202 0.930 . S
C1212 C1211 1.400 . S
C1212 C1215 1.386 . S
H1213 C1229 0.930 . S
H1214 C1230 0.931 . S
C1215 H1203 0.929 . S
C1215 C1209 1.390 . S
C1215 C1212 1.386 . S
C1216 C1211 1.490 . S
C1216 C1218 1.395 1_545 S
C1216 C1219 1.403 . S
H1217 C1223 0.934 . S
C1218 H1204 0.930 . S
C1218 C1216 1.395 1_565 S
C1218 C1221 1.403 . S
C1219 C1216 1.403 . S
C1219 C1220 1.524 . S
C1219 C1223 1.421 . S
C1220 H1205 0.960 . S
C1220 H1206 0.960 . S
C1220 H1207 0.960 . S
C1220 C1219 1.524 . S
C1221 C1218 1.403 . S
C1221 C1222 1.392 . S
C1221 C1225 1.495 . S
C1222 C1221 1.392 . S
C1222 C1223 1.361 1_565 S
C1222 C1224 1.478 . S
C1223 H1217 0.934 . S
C1223 C1219 1.421 . S
C1223 C1222 1.361 1_545 S
C1224 C1222 1.478 . S
C1224 C1226 1.381 . S
C1224 C1230 1.383 . S
C1225 C1221 1.495 . S
C1225 H1231 0.959 . S
C1225 H1232 0.961 . S
C1225 H1233 0.960 . S
C1226 C1224 1.381 . S
C1226 C1227 1.394 . S
C1226 H1234 0.930 . S
C1227 C1226 1.394 . S
C1227 C1228 1.383 . S
C1227 H1235 0.929 . S
C1228 C1227 1.383 . S
C1228 C1229 1.377 . S
C1229 H1213 0.930 . S
C1229 C1228 1.377 . S
C1229 C1230 1.379 . S
C1230 H1214 0.931 . S
C1230 C1224 1.383 . S
C1230 C1229 1.379 . S
H1231 C1225 0.959 . S
H1232 C1225 0.961 . S
H1233 C1225 0.960 . S
H1234 C1226 0.930 . S
H1235 C1227 0.929 . S
H1236 C1244 0.929 . S
H1237 C1246 0.930 . S
H1238 C1248 0.930 . S
H1239 C1251 0.929 . S
H1240 C1254 0.930 . S
H1241 C1256 0.960 . S
H1242 C1256 0.960 . S
H1243 C1256 0.960 . S
C1244 H1236 0.929 . S
C1244 C1245 1.377 . S
C1244 C1246 1.384 . S
C1245 C1244 1.377 . S
C1245 C1251 1.390 . S
C1246 H1237 0.930 . S
C1246 C1244 1.384 . S
C1246 C1247 1.372 . S
C1247 C1246 1.372 . S
C1247 C1248 1.400 . S
C1247 C1252 1.490 . S
C1248 H1238 0.930 . S
C1248 C1247 1.400 . S
C1248 C1251 1.386 . S
H1249 C1265 0.930 . S
H1250 C1266 0.931 . S
C1251 H1239 0.929 . S
C1251 C1245 1.390 . S
C1251 C1248 1.386 . S
C1252 C1247 1.490 . S
C1252 C1254 1.395 . S
C1252 C1255 1.403 . S
H1253 C1259 0.930 . S
C1254 H1240 0.930 . S
C1254 C1252 1.395 . S
C1254 C1257 1.403 . S
C1255 C1252 1.403 . S
C1255 C1256 1.524 . S
C1255 C1259 1.400 . S
C1256 H1241 0.960 . S
C1256 H1242 0.960 . S
C1256 H1243 0.960 . S
C1256 C1255 1.524 . S
C1257 C1254 1.403 . S
C1257 C1258 1.392 . S
C1257 C1261 1.495 . S
C1258 C1257 1.392 . S
C1258 C1259 1.385 . S
C1258 C1260 1.478 . S
C1259 H1253 0.930 . S
C1259 C1255 1.400 . S
C1259 C1258 1.385 . S
C1260 C1258 1.478 . S
C1260 C1262 1.381 . S
C1260 C1266 1.383 . S
C1261 C1257 1.495 . S
C1261 H1267 0.959 . S
C1261 H1268 0.961 . S
C1261 H1269 0.960 . S
C1262 C1260 1.381 . S
C1262 C1263 1.394 . S
C1262 H1270 0.930 . S
C1263 C1262 1.394 . S
C1263 C1264 1.383 . S
C1263 H1271 0.929 . S
C1264 C1263 1.383 . S
C1264 C1265 1.377 . S
C1265 H1249 0.930 . S
C1265 C1264 1.377 . S
C1265 C1266 1.379 . S
C1266 H1250 0.931 . S
C1266 C1260 1.383 . S
C1266 C1265 1.379 . S
H1267 C1261 0.959 . S
H1268 C1261 0.961 . S
H1269 C1261 0.960 . S
H1270 C1262 0.930 . S
H1271 C1263 0.929 . S
H1272 C1280 0.929 . S
H1273 C1282 0.930 . S
H1274 C1284 0.930 . S
H1275 C1287 0.929 . S
H1276 C1290 0.930 . S
H1277 C1292 0.960 . S
H1278 C1292 0.960 1_455 S
H1279 C1292 0.960 . S
C1280 H1272 0.929 . S
C1280 C1281 1.377 . S
C1280 C1282 1.384 . S
C1281 C1280 1.377 . S
C1281 C1287 1.390 . S
C1282 H1273 0.930 . S
C1282 C1280 1.384 . S
C1282 C1283 1.372 . S
C1283 C1282 1.372 . S
C1283 C1284 1.400 . S
C1283 C1288 1.490 . S
C1284 H1274 0.930 . S
C1284 C1283 1.400 . S
C1284 C1287 1.386 . S
H1285 C1301 0.930 . S
H1286 C1302 0.931 . S
C1287 H1275 0.929 . S
C1287 C1281 1.390 . S
C1287 C1284 1.386 . S
C1288 C1283 1.490 . S
C1288 C1290 1.395 . S
C1288 C1291 1.403 1_455 S
H1289 C1295 0.930 . S
C1290 H1276 0.930 . S
C1290 C1288 1.395 . S
C1290 C1293 1.403 . S
C1291 C1288 1.403 1_655 S
C1291 C1292 1.524 . S
C1291 C1295 1.400 . S
C1292 H1277 0.960 . S
C1292 H1278 0.960 1_655 S
C1292 H1279 0.960 . S
C1292 C1291 1.524 . S
C1293 C1290 1.403 . S
C1293 C1294 1.392 1_455 S
C1293 C1297 1.495 . S
C1294 C1293 1.392 1_655 S
C1294 C1295 1.385 . S
C1294 C1296 1.478 . S
C1295 H1289 0.930 . S
C1295 C1291 1.400 . S
C1295 C1294 1.385 . S
C1296 C1294 1.478 . S
C1296 C1298 1.381 . S
C1296 C1302 1.383 . S
C1297 C1293 1.495 . S
C1297 H1303 0.959 . S
C1297 H1304 0.961 1_455 S
C1297 H1305 0.960 . S
C1298 C1296 1.381 . S
C1298 C1299 1.394 . S
C1298 H1306 0.930 . S
C1299 C1298 1.394 . S
C1299 C1300 1.383 . S
C1299 H1307 0.929 . S
C1300 C1299 1.383 . S
C1300 C1301 1.377 . S
C1301 H1285 0.930 . S
C1301 C1300 1.377 . S
C1301 C1302 1.379 . S
C1302 H1286 0.931 . S
C1302 C1296 1.383 . S
C1302 C1301 1.379 . S
H1303 C1297 0.959 . S
H1304 C1297 0.961 1_655 S
H1305 C1297 0.960 . S
H1306 C1298 0.930 . S
H1307 C1299 0.929 . S
H1308 C1316 0.929 . S
H1309 C1318 0.930 . S
H1310 C1320 0.930 . S
H1311 C1323 0.929 . S
H1312 C1326 0.930 . S
H1313 C1328 0.960 1_554 S
H1314 C1328 0.960 . S
H1315 C1328 0.967 . S
C1316 H1308 0.929 . S
C1316 C1317 1.377 . S
C1316 C1318 1.384 . S
C1317 C1316 1.377 . S
C1317 C1323 1.390 . S
C1318 H1309 0.930 . S
C1318 C1316 1.384 . S
C1318 C1319 1.372 . S
C1319 C1318 1.372 . S
C1319 C1320 1.400 . S
C1319 C1324 1.490 . S
C1320 H1310 0.930 . S
C1320 C1319 1.400 . S
C1320 C1323 1.386 . S
H1321 C1337 0.930 . S
H1322 C1338 0.931 . S
C1323 H1311 0.929 . S
C1323 C1317 1.390 . S
C1323 C1320 1.386 . S
C1324 C1319 1.490 . S
C1324 C1326 1.395 . S
C1324 C1327 1.403 1_556 S
H1325 C1331 0.930 . S
C1326 H1312 0.930 . S
C1326 C1324 1.395 . S
C1326 C1329 1.403 1_546 S
C1327 C1324 1.403 1_554 S
C1327 C1328 1.524 1_554 S
C1327 C1331 1.400 1_545 S
C1328 H1313 0.960 1_556 S
C1328 H1314 0.960 . S
C1328 H1315 0.967 . S
C1328 C1327 1.524 1_556 S
C1329 C1326 1.403 1_564 S
C1329 C1330 1.392 . S
C1329 C1333 1.495 . S
C1330 C1329 1.392 . S
C1330 C1331 1.385 . S
C1330 C1332 1.478 . S
C1331 H1325 0.930 . S
C1331 C1327 1.400 1_565 S
C1331 C1330 1.385 . S
C1332 C1330 1.478 . S
C1332 C1334 1.381 . S
C1332 C1338 1.383 . S
C1333 C1329 1.495 . S
C1333 H1339 0.959 . S
C1333 H1340 0.961 . S
C1333 H1341 0.960 . S
C1334 C1332 1.381 . S
C1334 C1335 1.394 . S
C1334 H1342 0.930 . S
C1335 C1334 1.394 . S
C1335 C1336 1.383 . S
C1335 H1343 0.929 . S
C1336 C1335 1.383 . S
C1336 C1337 1.377 . S
C1337 H1321 0.930 . S
C1337 C1336 1.377 . S
C1337 C1338 1.379 . S
C1338 H1322 0.931 . S
C1338 C1332 1.383 . S
C1338 C1337 1.379 . S
H1339 C1333 0.959 . S
H1340 C1333 0.961 . S
H1341 C1333 0.960 . S
H1342 C1334 0.930 . S
H1343 C1335 0.929 . S
H1344 C1352 0.929 . S
H1345 C1354 0.930 . S
H1346 C1356 0.930 . S
H1347 C1359 0.929 . S
H1348 C1362 0.930 . S
H1349 C1364 0.960 . S
H1350 C1364 0.960 . S
H1351 C1364 0.960 . S
C1352 H1344 0.929 . S
C1352 C1353 1.377 . S
C1352 C1354 1.384 . S
C1353 C1352 1.377 . S
C1353 C1359 1.390 . S
C1354 H1345 0.930 . S
C1354 C1352 1.384 . S
C1354 C1355 1.372 . S
C1355 C1354 1.372 . S
C1355 C1356 1.400 . S
C1355 C1360 1.490 . S
C1356 H1346 0.930 . S
C1356 C1355 1.400 . S
C1356 C1359 1.386 . S
H1357 C1373 0.930 . S
H1358 C1374 0.931 . S
C1359 H1347 0.929 . S
C1359 C1353 1.390 . S
C1359 C1356 1.386 . S
C1360 C1355 1.490 . S
C1360 C1362 1.395 . S
C1360 C1363 1.403 . S
H1361 C1367 0.930 . S
C1362 H1348 0.930 . S
C1362 C1360 1.395 . S
C1362 C1365 1.403 . S
C1363 C1360 1.403 . S
C1363 C1364 1.524 . S
C1363 C1367 1.400 . S
C1364 H1349 0.960 . S
C1364 H1350 0.960 . S
C1364 H1351 0.960 . S
C1364 C1363 1.524 . S
C1365 C1362 1.403 . S
C1365 C1366 1.392 . S
C1365 C1369 1.495 . S
C1366 C1365 1.392 . S
C1366 C1367 1.385 . S
C1366 C1368 1.478 . S
C1367 H1361 0.930 . S
C1367 C1363 1.400 . S
C1367 C1366 1.385 . S
C1368 C1366 1.478 . S
C1368 C1370 1.381 . S
C1368 C1374 1.383 . S
C1369 C1365 1.495 . S
C1369 H1375 0.959 . S
C1369 H1376 0.961 . S
C1369 H1377 0.960 . S
C1370 C1368 1.381 . S
C1370 C1371 1.394 . S
C1370 H1378 0.930 . S
C1371 C1370 1.394 . S
C1371 C1372 1.383 . S
C1371 H1379 0.929 . S
C1372 C1371 1.383 . S
C1372 C1373 1.377 . S
C1373 H1357 0.930 . S
C1373 C1372 1.377 . S
C1373 C1374 1.379 . S
C1374 H1358 0.931 . S
C1374 C1368 1.383 . S
C1374 C1373 1.379 . S
H1375 C1369 0.959 . S
H1376 C1369 0.961 . S
H1377 C1369 0.960 . S
H1378 C1370 0.930 . S
H1379 C1371 0.929 . S
H1380 C1388 0.929 . S
H1381 C1390 0.930 . S
H1382 C1392 0.930 . S
H1383 C1395 0.929 . S
H1384 C1398 0.930 . S
H1385 C1400 0.960 . S
H1386 C1400 0.960 . S
H1387 C1400 0.960 . S
C1388 H1380 0.929 . S
C1388 C1389 1.377 . S
C1388 C1390 1.384 . S
C1389 C1388 1.377 . S
C1389 C1395 1.390 . S
C1390 H1381 0.930 . S
C1390 C1388 1.384 . S
C1390 C1391 1.372 . S
C1391 C1390 1.372 . S
C1391 C1392 1.400 . S
C1391 C1396 1.490 . S
C1392 H1382 0.930 . S
C1392 C1391 1.400 . S
C1392 C1395 1.386 . S
H1393 C1409 0.930 . S
H1394 C1410 0.931 . S
C1395 H1383 0.929 . S
C1395 C1389 1.390 . S
C1395 C1392 1.386 . S
C1396 C1391 1.490 . S
C1396 C1398 1.395 . S
C1396 C1399 1.403 . S
H1397 C1403 0.930 . S
C1398 H1384 0.930 . S
C1398 C1396 1.395 . S
C1398 C1401 1.403 . S
C1399 C1396 1.403 . S
C1399 C1400 1.524 . S
C1399 C1403 1.400 . S
C1400 H1385 0.960 . S
C1400 H1386 0.960 . S
C1400 H1387 0.960 . S
C1400 C1399 1.524 . S
C1401 C1398 1.403 . S
C1401 C1402 1.392 . S
C1401 C1405 1.495 . S
C1402 C1401 1.392 . S
C1402 C1403 1.385 . S
C1402 C1404 1.478 . S
C1403 H1397 0.930 . S
C1403 C1399 1.400 . S
C1403 C1402 1.385 . S
C1404 C1402 1.478 . S
C1404 C1406 1.381 . S
C1404 C1410 1.383 . S
C1405 C1401 1.495 . S
C1405 H1411 0.959 . S
C1405 H1412 0.961 . S
C1405 H1413 0.960 . S
C1406 C1404 1.381 . S
C1406 C1407 1.394 . S
C1406 H1414 0.930 . S
C1407 C1406 1.394 . S
C1407 C1408 1.383 . S
C1407 H1415 0.929 . S
C1408 C1407 1.383 . S
C1408 C1409 1.377 . S
C1409 H1393 0.930 . S
C1409 C1408 1.377 . S
C1409 C1410 1.379 . S
C1410 H1394 0.931 . S
C1410 C1404 1.383 . S
C1410 C1409 1.379 . S
H1411 C1405 0.959 . S
H1412 C1405 0.961 . S
H1413 C1405 0.960 . S
H1414 C1406 0.930 . S
H1415 C1407 0.929 . S
H1416 C1424 0.929 . S
H1417 C1426 0.930 . S
H1418 C1428 0.930 . S
H1419 C1431 0.929 . S
H1420 C1434 0.930 . S
H1421 C1436 0.960 . S
H1422 C1436 0.960 . S
H1423 C1436 0.960 . S
C1424 H1416 0.929 . S
C1424 C1425 1.377 . S
C1424 C1426 1.384 . S
C1425 C1424 1.377 . S
C1425 C1431 1.390 . S
C1426 H1417 0.930 . S
C1426 C1424 1.384 . S
C1426 C1427 1.372 . S
C1427 C1426 1.372 . S
C1427 C1428 1.400 . S
C1427 C1432 1.490 . S
C1428 H1418 0.930 . S
C1428 C1427 1.400 . S
C1428 C1431 1.386 . S
H1429 C1445 0.930 . S
H1430 C1446 0.931 . S
C1431 H1419 0.929 . S
C1431 C1425 1.390 . S
C1431 C1428 1.386 . S
C1432 C1427 1.490 . S
C1432 C1434 1.395 . S
C1432 C1435 1.403 . S
H1433 C1439 0.930 . S
C1434 H1420 0.930 . S
C1434 C1432 1.395 . S
C1434 C1437 1.403 . S
C1435 C1432 1.403 . S
C1435 C1436 1.524 . S
C1435 C1439 1.400 . S
C1436 H1421 0.960 . S
C1436 H1422 0.960 . S
C1436 H1423 0.960 . S
C1436 C1435 1.524 . S
C1437 C1434 1.403 . S
C1437 C1438 1.392 . S
C1437 C1441 1.495 . S
C1438 C1437 1.392 . S
C1438 C1439 1.385 . S
C1438 C1440 1.478 . S
C1439 H1433 0.930 . S
C1439 C1435 1.400 . S
C1439 C1438 1.385 . S
C1440 C1438 1.478 . S
C1440 C1442 1.381 . S
C1440 C1446 1.383 . S
C1441 C1437 1.495 . S
C1441 H1447 0.959 . S
C1441 H1448 0.961 . S
C1441 H1449 0.960 . S
C1442 C1440 1.381 . S
C1442 C1443 1.394 . S
C1442 H1450 0.930 . S
C1443 C1442 1.394 . S
C1443 C1444 1.383 . S
C1443 H1451 0.929 . S
C1444 C1443 1.383 . S
C1444 C1445 1.377 . S
C1445 H1429 0.930 . S
C1445 C1444 1.377 . S
C1445 C1446 1.379 . S
C1446 H1430 0.931 . S
C1446 C1440 1.383 . S
C1446 C1445 1.379 . S
H1447 C1441 0.959 . S
H1448 C1441 0.961 . S
H1449 C1441 0.960 . S
H1450 C1442 0.930 . S
H1451 C1443 0.929 . S
H1452 C1460 0.929 . S
H1453 C1462 0.930 . S
H1454 C1464 0.930 . S
H1455 C1467 0.929 . S
H1456 C1470 0.930 . S
H1457 C1472 0.960 . S
H1458 C1472 0.960 . S
H1459 C1472 0.960 . S
C1460 H1452 0.929 . S
C1460 C1461 1.377 . S
C1460 C1462 1.384 . S
C1461 C1460 1.377 . S
C1461 C1467 1.390 . S
C1462 H1453 0.930 . S
C1462 C1460 1.384 . S
C1462 C1463 1.372 . S
C1463 C1462 1.372 . S
C1463 C1464 1.400 . S
C1463 C1468 1.490 . S
C1464 H1454 0.930 . S
C1464 C1463 1.400 . S
C1464 C1467 1.386 . S
H1465 C1481 0.930 . S
H1466 C1482 0.931 . S
C1467 H1455 0.929 . S
C1467 C1461 1.390 . S
C1467 C1464 1.386 . S
C1468 C1463 1.490 . S
C1468 C1470 1.395 . S
C1468 C1471 1.403 . S
H1469 C1475 0.930 . S
C1470 H1456 0.930 . S
C1470 C1468 1.395 . S
C1470 C1473 1.403 . S
C1471 C1468 1.403 . S
C1471 C1472 1.524 . S
C1471 C1475 1.400 . S
C1472 H1457 0.960 . S
C1472 H1458 0.960 . S
C1472 H1459 0.960 . S
C1472 C1471 1.524 . S
C1473 C1470 1.403 . S
C1473 C1474 1.392 . S
C1473 C1477 1.495 . S
C1474 C1473 1.392 . S
C1474 C1475 1.385 . S
C1474 C1476 1.478 . S
C1475 H1469 0.930 . S
C1475 C1471 1.400 . S
C1475 C1474 1.385 . S
C1476 C1474 1.478 . S
C1476 C1478 1.381 . S
C1476 C1482 1.383 . S
C1477 C1473 1.495 . S
C1477 H1483 0.959 . S
C1477 H1484 0.961 . S
C1477 H1485 0.960 . S
C1478 C1476 1.381 . S
C1478 C1479 1.394 . S
C1478 H1486 0.930 . S
C1479 C1478 1.394 . S
C1479 C1480 1.383 . S
C1479 H1487 0.929 . S
C1480 C1479 1.383 . S
C1480 C1481 1.377 . S
C1481 H1465 0.930 . S
C1481 C1480 1.377 . S
C1481 C1482 1.379 . S
C1482 H1466 0.931 . S
C1482 C1476 1.383 . S
C1482 C1481 1.379 . S
H1483 C1477 0.959 . S
H1484 C1477 0.961 . S
H1485 C1477 0.960 . S
H1486 C1478 0.930 . S
H1487 C1479 0.929 . S
H1488 C1496 0.929 . S
H1489 C1498 0.930 . S
H1490 C1500 0.930 . S
H1491 C1503 0.929 . S
H1492 C1506 0.930 . S
H1493 C1508 0.960 . S
H1494 C1508 0.960 . S
H1495 C1508 0.960 . S
C1496 H1488 0.929 . S
C1496 C1497 1.377 . S
C1496 C1498 1.384 . S
C1497 C1496 1.377 . S
C1497 C1503 1.390 . S
C1498 H1489 0.930 . S
C1498 C1496 1.384 . S
C1498 C1499 1.372 . S
C1499 C1498 1.372 . S
C1499 C1500 1.400 . S
C1499 C1504 1.490 . S
C1500 H1490 0.930 . S
C1500 C1499 1.400 . S
C1500 C1503 1.386 . S
H1501 C1517 0.930 . S
H1502 C1518 0.931 . S
C1503 H1491 0.929 . S
C1503 C1497 1.390 . S
C1503 C1500 1.386 . S
C1504 C1499 1.490 . S
C1504 C1506 1.395 . S
C1504 C1507 1.403 . S
H1505 C1511 0.930 . S
C1506 H1492 0.930 . S
C1506 C1504 1.395 . S
C1506 C1509 1.403 . S
C1507 C1504 1.403 . S
C1507 C1508 1.524 . S
C1507 C1511 1.400 . S
C1508 H1493 0.960 . S
C1508 H1494 0.960 . S
C1508 H1495 0.960 . S
C1508 C1507 1.524 . S
C1509 C1506 1.403 . S
C1509 C1510 1.392 . S
C1509 C1513 1.495 . S
C1510 C1509 1.392 . S
C1510 C1511 1.385 . S
C1510 C1512 1.478 . S
C1511 H1505 0.930 . S
C1511 C1507 1.400 . S
C1511 C1510 1.385 . S
C1512 C1510 1.478 . S
C1512 C1514 1.381 1_556 S
C1512 C1518 1.382 1_556 S
C1513 C1509 1.495 . S
C1513 H1519 0.959 . S
C1513 H1520 0.961 . S
C1513 H1521 0.960 . S
C1514 C1512 1.381 1_554 S
C1514 C1515 1.394 . S
C1514 H1522 0.923 1_554 S
C1515 C1514 1.394 . S
C1515 C1516 1.383 . S
C1515 H1523 0.929 . S
C1516 C1515 1.383 . S
C1516 C1517 1.377 . S
C1517 H1501 0.930 . S
C1517 C1516 1.377 . S
C1517 C1518 1.379 . S
C1518 H1502 0.931 . S
C1518 C1512 1.382 1_554 S
C1518 C1517 1.379 . S
H1519 C1513 0.959 . S
H1520 C1513 0.961 . S
H1521 C1513 0.960 . S
H1522 C1514 0.923 1_556 S
H1523 C1515 0.929 . S
H1524 C1532 0.929 . S
H1525 C1534 0.931 . S
H1526 C1536 0.930 . S
H1527 C1539 0.929 . S
H1528 C1542 0.930 . S
H1529 C1544 0.960 . S
H1530 C1544 0.960 . S
H1531 C1544 0.960 . S
C1532 H1524 0.929 . S
C1532 C1533 1.377 . S
C1532 C1534 1.378 1_556 S
C1533 C1532 1.377 . S
C1533 C1539 1.390 . S
C1534 H1525 0.931 . S
C1534 C1532 1.378 1_554 S
C1534 C1535 1.376 . S
C1535 C1534 1.376 . S
C1535 C1536 1.400 . S
C1535 C1540 1.490 . S
C1536 H1526 0.930 . S
C1536 C1535 1.400 . S
C1536 C1539 1.386 1_554 S
H1537 C1553 0.930 . S
H1538 C1554 0.931 . S
C1539 H1527 0.929 . S
C1539 C1533 1.390 . S
C1539 C1536 1.386 1_556 S
C1540 C1535 1.490 . S
C1540 C1542 1.395 . S
C1540 C1543 1.403 . S
H1541 C1547 0.930 . S
C1542 H1528 0.930 . S
C1542 C1540 1.395 . S
C1542 C1545 1.403 . S
C1543 C1540 1.403 . S
C1543 C1544 1.524 . S
C1543 C1547 1.400 . S
C1544 H1529 0.960 . S
C1544 H1530 0.960 . S
C1544 H1531 0.960 . S
C1544 C1543 1.524 . S
C1545 C1542 1.403 . S
C1545 C1546 1.392 . S
C1545 C1549 1.495 . S
C1546 C1545 1.392 . S
C1546 C1547 1.385 . S
C1546 C1548 1.478 . S
C1547 H1541 0.930 . S
C1547 C1543 1.400 . S
C1547 C1546 1.385 . S
C1548 C1546 1.478 . S
C1548 C1550 1.381 . S
C1548 C1554 1.383 . S
C1549 C1545 1.495 . S
C1549 H1555 0.959 . S
C1549 H1556 0.961 . S
C1549 H1557 0.960 . S
C1550 C1548 1.381 . S
C1550 C1551 1.394 . S
C1550 H1558 0.930 . S
C1551 C1550 1.394 . S
C1551 C1552 1.383 . S
C1551 H1559 0.929 . S
C1552 C1551 1.383 . S
C1552 C1553 1.377 . S
C1553 H1537 0.930 . S
C1553 C1552 1.377 . S
C1553 C1554 1.379 . S
C1554 H1538 0.931 . S
C1554 C1548 1.383 . S
C1554 C1553 1.379 . S
H1555 C1549 0.959 . S
H1556 C1549 0.961 . S
H1557 C1549 0.960 . S
H1558 C1550 0.930 . S
H1559 C1551 0.929 . S
C273 C229 1.119 . S
C292 C5 1.114 . S
C309 C31 1.119 . S
C328 C247 1.124 . S
C345 C141 1.117 . S
C364 C49 1.128 . S
C381 C75 1.117 . S
C400 C159 1.127 . S
C417 C93 1.121 . S
C436 C185 1.113 . S
C453 C203 1.121 . S
C472 C119 1.106 . S
C489 C6 1.146 . S
C508 C116 1.226 . S
C525 C29 1.142 . S
C544 C7 1.189 . S
C561 C28 1.207 . S
C580 C50 1.112 . S
C597 C73 1.153 . S
C616 C51 1.209 . S
C633 C94 1.147 . S
C652 C72 1.227 . S
C669 C117 1.151 . S
C688 C95 1.201 . S
C705 C139 1.136 . S
C724 C161 1.192 1_556 S
C741 C160 1.144 . S
C760 C182 1.224 . S
C777 C183 1.147 . S
C796 C205 1.193 . S
C813 C226 1.212 . S
C832 C204 1.114 . S
C849 C249 1.207 . S
C868 C227 1.102 . S
C885 C138 1.207 . S
C904 C248 1.103 . S
C921 C4 1.222 . S
C940 C140 1.214 . S
C957 C158 1.215 . S
C976 C30 1.200 . S
C993 C48 1.222 . S
C1012 C184 1.236 . S
C1029 C74 1.223 . S
C1048 C202 1.227 . S
C1065 C228 1.215 . S
C1084 C92 1.206 . S
C1101 C118 1.217 . S
C1120 C246 1.222 . S
C1137 C9 0.983 . S
C1156 C207 0.966 . S
C1173 C225 0.998 . S
C1192 C27 0.986 . S
C1209 C251 1.002 . S
C1228 C53 1.020 . S
C1245 C71 0.985 . S
C1264 C137 0.980 . S
C1281 C97 0.988 . S
C1300 C163 0.999 . S
C1317 C115 0.990 . S
C1336 C181 0.954 . S
C1353 C224 1.765 . S
C1372 C8 1.771 . S
C1389 C250 1.766 . S
C1408 C26 1.753 . S
C1425 C136 1.767 . S
C1444 C52 1.762 . S
C1461 C162 1.763 . S
C1480 C70 1.767 . S
C1497 C96 1.767 . S
C1516 C180 1.760 . S
C1533 C114 1.767 . S
C1552 C206 1.755 . S
