# Generated by pormake.
# Topology wnj, (7)-cn, num edge types: 1
# Building blocks:
#     Node 0, Type 0, BuildingBlock: OLANEW_clean_sbu_0, # of connection points: 7
#     Node 1, Type 0, BuildingBlock: OLANEW_clean_sbu_0, # of connection points: 7
#     Node 2, Type 0, BuildingBlock: OLANEW_clean_sbu_0, # of connection points: 7
#     Node 3, Type 0, BuildingBlock: OLANEW_clean_sbu_0, # of connection points: 7
#     Node 4, Type 0, BuildingBlock: OLANEW_clean_sbu_0, # of connection points: 7
#     Node 5, Type 0, BuildingBlock: OLANEW_clean_sbu_0, # of connection points: 7
#     Edge 6, Type (0, 0), BuildingBlock: XIVTED_clean_linker_0, # of connection points: 2
#     Edge 7, Type (0, 0), BuildingBlock: XIVTED_clean_linker_0, # of connection points: 2
#     Edge 8, Type (0, 0), BuildingBlock: XIVTED_clean_linker_0, # of connection points: 2
#     Edge 9, Type (0, 0), BuildingBlock: XIVTED_clean_linker_0, # of connection points: 2
#     Edge 10, Type (0, 0), BuildingBlock: XIVTED_clean_linker_0, # of connection points: 2
#     Edge 11, Type (0, 0), BuildingBlock: XIVTED_clean_linker_0, # of connection points: 2
#     Edge 12, Type (0, 0), BuildingBlock: XIVTED_clean_linker_0, # of connection points: 2
#     Edge 13, Type (0, 0), BuildingBlock: XIVTED_clean_linker_0, # of connection points: 2
#     Edge 14, Type (0, 0), BuildingBlock: XIVTED_clean_linker_0, # of connection points: 2
#     Edge 15, Type (0, 0), BuildingBlock: XIVTED_clean_linker_0, # of connection points: 2
#     Edge 16, Type (0, 0), BuildingBlock: XIVTED_clean_linker_0, # of connection points: 2
#     Edge 17, Type (0, 0), BuildingBlock: XIVTED_clean_linker_0, # of connection points: 2
#     Edge 18, Type (0, 0), BuildingBlock: XIVTED_clean_linker_0, # of connection points: 2
#     Edge 19, Type (0, 0), BuildingBlock: XIVTED_clean_linker_0, # of connection points: 2
#     Edge 20, Type (0, 0), BuildingBlock: XIVTED_clean_linker_0, # of connection points: 2
#     Edge 21, Type (0, 0), BuildingBlock: XIVTED_clean_linker_0, # of connection points: 2
#     Edge 22, Type (0, 0), BuildingBlock: XIVTED_clean_linker_0, # of connection points: 2
#     Edge 23, Type (0, 0), BuildingBlock: XIVTED_clean_linker_0, # of connection points: 2
#     Edge 24, Type (0, 0), BuildingBlock: XIVTED_clean_linker_0, # of connection points: 2
#     Edge 25, Type (0, 0), BuildingBlock: XIVTED_clean_linker_0, # of connection points: 2
#     Edge 26, Type (0, 0), BuildingBlock: XIVTED_clean_linker_0, # of connection points: 2
# Relax obj value: 0.274
# Max RMSD: 0.269
# Mean RMSD: 0.269
data_MOF--net-wnj--node1-OLANEW_clean_sbu_0--edge1-XIVTED_clean_linker_0
_symmetry_space_group_name_H-M    P1
_symmetry_Int_Tables_number       1
_symmetry_cell_setting            triclinic
loop_
_symmetry_equiv_pos_as_xyz
'x, y, z'
_cell_length_a     38.767852
_cell_length_b     38.754739
_cell_length_c     44.930967
_cell_angle_alpha  89.972231
_cell_angle_beta   90.121818
_cell_angle_gamma 119.9514
loop_
_atom_site_label
_atom_site_type_symbol
_atom_site_fract_x
_atom_site_fract_y
_atom_site_fract_z
_atom_type_partial_charge
Cd0 Cd 0.19101 0.57161 0.13097 0.0
C1 C 0.2169 0.66429 0.10234 0.0
C2 C 0.08217 0.4574 0.99132 0.0
O3 O 0.10114 0.46025 0.9664 0.0
Cd4 Cd 0.14975 0.64266 0.16501 0.0
C5 C 0.05487 0.41871 0.00505 0.0
C6 C 0.99846 0.35363 0.03791 0.0
C7 C 0.01065 0.39284 0.04629 0.0
N8 N 0.03811 0.42241 0.02978 0.0
C9 C 0.04403 0.38036 0.99518 0.0
C10 C 0.01559 0.3476 0.01204 0.0
Co11 Co 0.05211 0.47328 0.04104 0.0
C12 C 0.99769 0.4073 0.07185 0.0
O13 O 0.97306 0.38318 0.09213 0.0
C14 C 0.01209 0.46741 0.1002 0.0
C15 C 0.04471 0.4874 0.11868 0.0
C16 C 0.0466 0.51499 0.13936 0.0
C17 C 0.01144 0.51646 0.1456 0.0
C18 C 0.97541 0.49121 0.13018 0.0
C19 C 0.97691 0.4681 0.10632 0.0
C20 C 0.08698 0.54639 0.14885 0.0
C21 C 0.11106 0.53017 0.99566 0.0
C22 C 0.15163 0.54354 0.99199 0.0
C23 C 0.09608 0.5549 0.98687 0.0
C24 C 0.12157 0.59313 0.97615 0.0
C25 C 0.16199 0.60642 0.97271 0.0
C26 C 0.17693 0.58086 0.97918 0.0
N27 N 0.08486 0.49008 0.00541 0.0
N28 N 0.01605 0.44781 0.07451 0.0
N29 N 0.0989 0.48228 0.0639 0.0
C30 C 0.11175 0.45395 0.06888 0.0
C31 C 0.14531 0.45783 0.05421 0.0
C32 C 0.09199 0.42357 0.08975 0.0
C33 C 0.15926 0.4313 0.0602 0.0
H34 H 0.1606 0.48179 0.03837 0.0
C35 C 0.13901 0.40076 0.08118 0.0
C36 C 0.10535 0.39671 0.09612 0.0
C37 C 0.19518 0.43571 0.04493 0.0
H38 H 0.06674 0.42151 0.10153 0.0
H39 H 0.14961 0.38024 0.08602 0.0
C40 C 0.08462 0.36493 0.11871 0.0
O41 O 0.2092 0.41094 0.05156 0.0
O42 O 0.21239 0.46183 0.02633 0.0
O43 O 0.05488 0.36099 0.13122 0.0
O44 O 0.09857 0.34021 0.12568 0.0
H45 H 0.23263 0.41336 0.04195 0.0
H46 H 0.08559 0.31941 0.14041 0.0
N47 N 0.06594 0.524 0.05241 0.0
C48 C 0.04142 0.53696 0.04381 0.0
C49 C 0.05277 0.57676 0.04943 0.0
C50 C 0.08957 0.60089 0.06406 0.0
C51 C 0.1143 0.58525 0.07234 0.0
C52 C 0.10126 0.54535 0.06579 0.0
N53 N 1.00868 0.47315 0.01948 0.0
C54 C 1.00791 0.5074 0.02555 0.0
O55 O 0.98303 0.51604 0.01207 0.0
C56 C 0.12103 0.52183 0.07202 0.0
O57 O 0.21616 0.5244 0.14679 0.0
O58 O 0.26013 0.5854 0.13799 0.0
C59 C 0.98565 0.44653 0.99592 0.0
C60 C 0.94681 0.41588 0.00179 0.0
C61 C 0.92279 0.39185 0.97854 0.0
C62 C 0.93746 0.39866 0.9494 0.0
C63 C 0.97575 0.42972 0.94296 0.0
C64 C 1.00006 0.45357 0.9664 0.0
O65 O 0.22032 0.63324 0.10139 0.0
O66 O 0.19505 0.66808 0.12178 0.0
O67 O 0.11725 0.54346 0.14081 0.0
O68 O 0.09109 0.57922 0.15791 0.0
O69 O 0.1594 0.53885 0.08178 0.0
C70 C 0.20458 0.62681 0.19993 0.0
O71 O 0.18576 0.64368 0.20882 0.0
O72 O 0.19384 0.60824 0.17534 0.0
C73 C 0.25292 0.55104 0.14599 0.0
H74 H 0.97655 0.32863 0.05071 0.0
H75 H 0.05674 0.37578 0.97518 0.0
H76 H 1.00665 0.3176 0.00496 0.0
H77 H 0.07017 0.4838 0.11502 0.0
H78 H 0.01218 0.53689 0.16236 0.0
H79 H 0.9511 0.4511 0.09227 0.0
H80 H 0.16295 0.52375 0.99732 0.0
H81 H 0.06466 0.54443 0.98689 0.0
H82 H 0.18069 0.6353 0.96268 0.0
H83 H 0.03453 0.58909 0.04217 0.0
H84 H 0.09916 0.63181 0.06861 0.0
H85 H 0.14239 0.60363 0.0834 0.0
H86 H 0.93519 0.4114 0.02425 0.0
H87 H 0.91832 0.38041 0.93141 0.0
H88 H 0.02926 0.47842 0.96151 0.0
Cd89 Cd 0.45093 0.63406 0.78922 0.0
C90 C 0.35888 0.56908 0.7646 0.0
C91 C 0.55568 0.62474 0.64977 0.0
O92 O 0.55364 0.64046 0.62435 0.0
Cd93 Cd 0.40584 0.56299 0.8278 0.0
C94 C 0.59407 0.63509 0.66373 0.0
C95 C 0.65839 0.64251 0.69717 0.0
C96 C 0.61899 0.6166 0.70563 0.0
N97 N 0.58982 0.61493 0.68876 0.0
C98 C 0.63265 0.66148 0.65377 0.0
C99 C 0.66502 0.66516 0.67091 0.0
Co100 Co 0.53868 0.57992 0.70041 0.0
C101 C 0.60399 0.59004 0.73166 0.0
O102 O 0.6278 0.58952 0.75231 0.0
C103 C 0.54389 0.54728 0.76078 0.0
C104 C 0.5275 0.56368 0.77925 0.0
C105 C 0.50279 0.54224 0.80273 0.0
C106 C 0.50032 0.50578 0.8111 0.0
C107 C 0.52092 0.49038 0.79466 0.0
C108 C 0.54144 0.51086 0.76856 0.0
C109 C 0.47544 0.55582 0.81374 0.0
C110 C 0.4826 0.5819 0.65291 0.0
C111 C 0.46978 0.60911 0.64573 0.0
C112 C 0.45771 0.5416 0.64578 0.0
C113 C 0.41985 0.52814 0.63394 0.0
C114 C 0.40684 0.55498 0.62773 0.0
C115 C 0.43231 0.59577 0.63244 0.0
N116 N 0.52241 0.59591 0.66402 0.0
N117 N 0.56345 0.56886 0.73435 0.0
N118 N 0.53194 0.61979 0.72216 0.0
C119 C 0.56131 0.66079 0.72636 0.0
C120 C 0.55825 0.69058 0.71099 0.0
C121 C 0.59108 0.67127 0.74782 0.0
C122 C 0.58475 0.731 0.7171 0.0
H123 H 0.53473 0.68199 0.69467 0.0
C124 C 0.6144 0.74112 0.7389 0.0
C125 C 0.61772 0.71141 0.75446 0.0
C126 C 0.58102 0.76263 0.70127 0.0
H127 H 0.59269 0.64808 0.76002 0.0
H128 H 0.63474 0.77218 0.74395 0.0
C129 C 0.64822 0.72227 0.77815 0.0
O130 O 0.60554 0.80135 0.70816 0.0
O131 O 0.55569 0.75389 0.68197 0.0
O132 O 0.6515 0.69637 0.79124 0.0
O133 O 0.67239 0.76084 0.78558 0.0
H134 H 0.60354 0.82243 0.69821 0.0
H135 H 0.69228 0.76852 0.80108 0.0
N136 N 0.48775 0.54498 0.71226 0.0
C137 C 0.47366 0.50686 0.70501 0.0
C138 C 0.43386 0.47962 0.7116 0.0
C139 C 0.41104 0.49414 0.72583 0.0
C140 C 0.42799 0.53506 0.73289 0.0
C141 C 0.4678 0.56065 0.72541 0.0
N142 N 0.53693 0.53493 0.68035 0.0
C143 C 0.50236 0.5008 0.68733 0.0
O144 O 0.49292 0.46625 0.67532 0.0
C145 C 0.49277 0.60411 0.73059 0.0
O146 O 0.48651 0.6949 0.82159 0.0
O147 O 0.47283 0.70535 0.77717 0.0
C148 C 0.56452 0.53686 0.65834 0.0
C149 C 0.59554 0.53006 0.66652 0.0
C150 C 0.62282 0.53262 0.64505 0.0
C151 C 0.61888 0.54175 0.61555 0.0
C152 C 0.58671 0.54628 0.60658 0.0
C153 C 0.55973 0.54426 0.62837 0.0
O154 O 0.38917 0.60322 0.76007 0.0
O155 O 0.35799 0.54825 0.78685 0.0
O156 O 0.47715 0.5869 0.802 0.0
O157 O 0.44536 0.53258 0.82896 0.0
O158 O 0.47743 0.62729 0.73954 0.0
C159 C 0.39992 0.62573 0.8489 0.0
O160 O 0.42674 0.62021 0.85996 0.0
O161 O 0.39368 0.62089 0.82108 0.0
C162 C 0.48522 0.71918 0.80313 0.0
H163 H 0.68309 0.64517 0.71023 0.0
H164 H 0.63769 0.67847 0.63352 0.0
H165 H 0.69519 0.68538 0.66377 0.0
H166 H 0.53222 0.59281 0.77401 0.0
H167 H 0.48183 0.48906 0.82975 0.0
H168 H 0.55604 0.49912 0.75473 0.0
H169 H 0.4896 0.64071 0.64919 0.0
H170 H 0.46791 0.52056 0.6477 0.0
H171 H 0.37802 0.54418 0.61733 0.0
H172 H 0.4206 0.44856 0.70546 0.0
H173 H 0.38015 0.47377 0.73113 0.0
H174 H 0.41065 0.54609 0.74376 0.0
H175 H 0.59824 0.52272 0.68936 0.0
H176 H 0.6405 0.54391 0.59929 0.0
H177 H 0.53443 0.5473 0.62207 0.0
Cd178 Cd 0.39288 0.82189 0.46189 0.0
C179 C 0.45898 0.79714 0.43192 0.0
C180 C 0.3874 0.92667 0.31898 0.0
O181 O 0.37193 0.90833 0.29368 0.0
Cd182 Cd 0.50694 0.86533 0.49428 0.0
C183 C 0.37555 0.95367 0.33271 0.0
C184 C 0.36612 0.00999 0.36516 0.0
C185 C 0.39354 0.99837 0.3737 0.0
N186 N 0.39605 0.97094 0.35738 0.0
C187 C 0.34766 0.96396 0.32268 0.0
C188 C 0.34295 0.99234 0.33933 0.0
Co189 Co 0.43366 0.95795 0.3687 0.0
C190 C 0.42119 0.01218 0.39917 0.0
O191 O 0.42134 0.03691 0.41925 0.0
C192 C 0.46768 0.99944 0.42794 0.0
C193 C 0.45452 0.96754 0.44711 0.0
C194 C 0.47937 0.96644 0.46896 0.0
C195 C 0.51584 1.00174 0.47525 0.0
C196 C 0.52743 0.03727 0.45885 0.0
C197 C 0.50343 0.03497 0.43417 0.0
C198 C 0.47031 0.92633 0.47918 0.0
C199 C 0.43382 0.9006 0.32142 0.0
C200 C 0.40848 0.86001 0.31459 0.0
C201 C 0.47384 0.91875 0.31267 0.0
C202 C 0.48889 0.89681 0.29898 0.0
C203 C 0.4639 0.85667 0.29264 0.0
C204 C 0.4233 0.83835 0.29942 0.0
N205 N 0.41764 0.9243 0.33303 0.0
N206 N 0.44413 0.99466 0.40197 0.0
N207 N 0.39669 0.91132 0.39189 0.0
C208 C 0.35543 0.89791 0.39676 0.0
C209 C 0.32613 0.86442 0.38171 0.0
C210 C 0.34437 0.91724 0.41772 0.0
C211 C 0.28556 0.84999 0.38753 0.0
H212 H 0.3352 0.84965 0.36566 0.0
C213 C 0.27483 0.86965 0.40874 0.0
C214 C 0.30408 0.9033 0.424 0.0
C215 C 0.2544 0.81422 0.37182 0.0
H216 H 0.36725 0.94266 0.42959 0.0
H217 H 0.24367 0.85865 0.41348 0.0
C218 C 0.29258 0.92343 0.44681 0.0
O219 O 0.21555 0.7998 0.37825 0.0
O220 O 0.26366 0.79751 0.35302 0.0
O221 O 0.31808 0.95312 0.45963 0.0
O222 O 0.25385 0.90897 0.45366 0.0
H223 H 0.19476 0.77647 0.36834 0.0
H224 H 0.24575 0.92153 0.46854 0.0
N225 N 0.47124 0.94516 0.38018 0.0
C226 C 0.50864 0.9706 0.37212 0.0
C227 C 0.53797 0.96083 0.37888 0.0
C228 C 0.52623 0.92467 0.39419 0.0
C229 C 0.48594 0.89913 0.40215 0.0
C230 C 0.45816 0.91055 0.39442 0.0
N231 N 0.47636 1.00175 0.34723 0.0
C232 C 0.51186 1.00389 0.35392 0.0
O233 O 0.54545 0.03016 0.34138 0.0
C234 C 0.41488 0.89015 0.40072 0.0
O235 O 0.31801 0.79513 0.46959 0.0
O236 O 0.34023 0.75578 0.4804 0.0
C237 C 0.47231 0.0264 0.3253 0.0
C238 C 0.4791 0.06425 0.33333 0.0
C239 C 0.47634 0.08887 0.31182 0.0
C240 C 0.46707 0.07572 0.28235 0.0
C241 C 0.46284 0.03916 0.27339 0.0
C242 C 0.46479 0.01414 0.2953 0.0
O243 O 0.42366 0.79156 0.43188 0.0
O244 O 0.48488 0.82003 0.4509 0.0
O245 O 0.43669 0.89601 0.47179 0.0
O246 O 0.49949 0.92234 0.48726 0.0
O247 O 0.39426 0.85208 0.41123 0.0
C248 C 0.43769 0.81194 0.5301 0.0
O249 O 0.47351 0.83028 0.53874 0.0
O250 O 0.42992 0.82254 0.5054 0.0
C251 C 0.3105 0.76099 0.47892 0.0
H252 H 0.36277 0.03191 0.37778 0.0
H253 H 0.33037 0.95088 0.30269 0.0
H254 H 0.3216 1.00086 0.33212 0.0
H255 H 0.42574 0.94185 0.44312 0.0
H256 H 0.53487 1.00138 0.49277 0.0
H257 H 0.51261 0.06031 0.41956 0.0
H258 H 0.37696 0.84608 0.31943 0.0
H259 H 0.49321 0.95029 0.31452 0.0
H260 H 0.47583 0.84053 0.28092 0.0
H261 H 0.56859 0.9799 0.37219 0.0
H262 H 0.54827 0.91633 0.39972 0.0
H263 H 0.47704 0.8718 0.41402 0.0
H264 H 0.487 0.07456 0.35608 0.0
H265 H 0.46494 0.09521 0.26604 0.0
H266 H 0.46212 0.98596 0.28902 0.0
Cd267 Cd 0.57291 0.19219 0.86751 0.0
C268 C 0.66553 0.21616 0.89661 0.0
C269 C 0.46319 0.08012 0.00876 0.0
O270 O 0.46561 0.09815 0.03411 0.0
Cd271 Cd 0.64216 0.15235 0.83367 0.0
C272 C 0.42459 0.05253 0.99495 0.0
C273 C 0.35958 0.99584 0.96203 0.0
C274 C 0.3988 0.00841 0.95355 0.0
N275 N 0.42833 0.03598 0.9701 0.0
C276 C 0.38622 0.04127 0.00493 0.0
C277 C 0.3535 0.0127 0.98804 0.0
Co278 Co 0.4792 0.05065 0.95858 0.0
C279 C 0.41322 0.99578 0.92777 0.0
O280 O 0.38902 0.97139 0.90734 0.0
C281 C 0.47282 0.0117 0.89847 0.0
C282 C 0.48949 0.04429 0.87971 0.0
C283 C 0.51606 0.04786 0.85763 0.0
C284 C 0.51943 0.01412 0.85028 0.0
C285 C 0.49776 0.97783 0.86618 0.0
C286 C 0.47569 0.97773 0.8914 0.0
C287 C 0.54605 0.08882 0.84846 0.0
C288 C 0.53613 0.10933 0.00549 0.0
C289 C 0.54892 0.14922 0.01293 0.0
C290 C 0.56114 0.09392 0.01234 0.0
C291 C 0.5991 0.1183 0.02406 0.0
C292 C 0.61207 0.15808 0.03049 0.0
C293 C 0.58635 0.17327 0.02629 0.0
N294 N 0.49618 0.08369 0.99458 0.0
N295 N 0.4537 0.01433 0.92497 0.0
N296 N 0.48714 0.09716 0.93594 0.0
C297 C 0.4587 0.11012 0.93215 0.0
C298 C 0.46333 0.14365 0.94742 0.0
C299 C 0.42753 0.09063 0.91177 0.0
C300 C 0.43686 0.15795 0.94239 0.0
H301 H 0.48782 0.15862 0.96296 0.0
C302 C 0.40568 0.13811 0.92175 0.0
C303 C 0.40083 0.10444 0.90627 0.0
C304 C 0.44203 0.19384 0.95826 0.0
H305 H 0.42469 0.06525 0.89966 0.0
H306 H 0.38527 0.14904 0.91759 0.0
C307 C 0.36846 0.08423 0.88396 0.0
O308 O 0.41727 0.20816 0.95255 0.0
O309 O 0.46876 0.21074 0.97652 0.0
O310 O 0.36388 0.0545 0.87097 0.0
O311 O 0.34395 0.09869 0.87774 0.0
H312 H 0.42017 0.23157 0.96257 0.0
H313 H 0.32281 0.08608 0.86317 0.0
N314 N 0.52979 0.06505 0.94682 0.0
C315 C 0.5428 0.0402 0.95433 0.0
C316 C 0.58205 0.05106 0.94716 0.0
C317 C 0.6054 0.08755 0.93197 0.0
C318 C 0.58951 0.11235 0.9245 0.0
C319 C 0.55025 0.09986 0.93264 0.0
N320 N 0.47974 0.00723 0.97958 0.0
C321 C 0.5137 0.00639 0.97263 0.0
O322 O 0.5224 0.98097 0.98509 0.0
C323 C 0.52621 0.11923 0.92678 0.0
O324 O 0.53052 0.21769 0.84305 0.0
O325 O 0.57262 0.25607 0.87584 0.0
C326 C 0.45237 0.98289 0.00229 0.0
C327 C 0.42096 0.94478 0.99508 0.0
C328 C 0.39423 0.92096 0.01721 0.0
C329 C 0.39924 0.93523 0.04641 0.0
C330 C 0.43194 0.97194 0.05456 0.0
C331 C 0.45824 0.99612 0.0321 0.0
O332 O 0.63571 0.22157 0.89579 0.0
O333 O 0.66951 0.19363 0.87799 0.0
O334 O 0.54205 0.11824 0.85719 0.0
O335 O 0.57921 0.09413 0.83928 0.0
O336 O 0.54244 0.1574 0.91668 0.0
C337 C 0.63187 0.21324 0.79833 0.0
O338 O 0.64664 0.19163 0.79172 0.0
O339 O 0.61168 0.20595 0.82205 0.0
C340 C 0.54691 0.25127 0.85628 0.0
H341 H 0.33461 0.97384 0.94919 0.0
H342 H 0.38159 0.0538 0.02502 0.0
H343 H 0.32349 1.00347 0.99519 0.0
H344 H 0.4845 0.06872 0.88421 0.0
H345 H 0.53993 0.01656 0.83296 0.0
H346 H 0.46048 0.95155 0.90532 0.0
H347 H 0.52907 0.16102 0.00959 0.0
H348 H 0.55097 0.06272 0.01039 0.0
H349 H 0.64094 0.176 0.04082 0.0
H350 H 0.59449 0.03256 0.95346 0.0
H351 H 0.63585 0.0967 0.92612 0.0
H352 H 0.60711 0.13992 0.91267 0.0
H353 H 0.4176 0.93379 0.97248 0.0
H354 H 0.37822 0.91647 0.06326 0.0
H355 H 0.48391 0.02447 0.03781 0.0
Cd356 Cd 0.82652 0.38889 0.53399 0.0
C357 C 0.80238 0.45551 0.56573 0.0
C358 C 0.93135 0.38296 0.67583 0.0
O359 O 0.91262 0.36786 0.70102 0.0
Cd360 Cd 0.86935 0.50225 0.50373 0.0
C361 C 0.95794 0.37034 0.66244 0.0
C362 C 0.01326 0.35908 0.63024 0.0
C363 C 1.00277 0.38733 0.62167 0.0
N364 N 0.97586 0.39076 0.63794 0.0
C365 C 0.96714 0.34168 0.67249 0.0
C366 C 0.99505 0.33608 0.65599 0.0
Co367 Co 0.96373 0.42878 0.62624 0.0
C368 C 0.0169 0.41463 0.596 0.0
O369 O 0.04112 0.41387 0.57593 0.0
C370 C 1.00493 0.4616 0.56693 0.0
C371 C 0.97286 0.44893 0.54794 0.0
C372 C 0.97129 0.47467 0.52717 0.0
C373 C 1.00631 0.51164 0.5216 0.0
C374 C 0.04239 0.5229 0.53735 0.0
C375 C 0.04035 0.49753 0.56107 0.0
C376 C 0.93095 0.46584 0.51755 0.0
C377 C 0.90703 0.43094 0.6727 0.0
C378 C 0.86631 0.40645 0.67914 0.0
C379 C 0.92556 0.47139 0.68044 0.0
C380 C 0.90371 0.48771 0.69237 0.0
C381 C 0.86328 0.46356 0.69801 0.0
C382 C 0.84474 0.42259 0.69252 0.0
N383 N 0.93016 0.41381 0.66174 0.0
N384 N 1.00002 0.43812 0.59298 0.0
N385 N 0.91683 0.39198 0.60315 0.0
C386 C 0.90272 0.35048 0.59872 0.0
C387 C 0.86932 0.32186 0.61416 0.0
C388 C 0.92137 0.3385 0.57787 0.0
C389 C 0.85434 0.28105 0.60888 0.0
H390 H 0.85507 0.33164 0.63013 0.0
C391 C 0.87335 0.26939 0.58779 0.0
C392 C 0.90688 0.29795 0.57212 0.0
C393 C 0.8187 0.2506 0.62505 0.0
H394 H 0.94674 0.36088 0.5657 0.0
H395 H 0.86193 0.23803 0.58347 0.0
C396 C 0.92634 0.28548 0.54947 0.0
O397 O 0.80384 0.21149 0.61922 0.0
O398 O 0.80251 0.26068 0.64369 0.0
O399 O 0.95594 0.31041 0.53628 0.0
O400 O 0.91138 0.24649 0.54315 0.0
H401 H 0.78059 0.19115 0.62945 0.0
H402 H 0.92352 0.23776 0.52838 0.0
N403 N 0.95179 0.46676 0.61432 0.0
C404 C 0.978 0.5042 0.62186 0.0
C405 C 0.96908 0.53398 0.61453 0.0
C406 C 0.93296 0.52259 0.5992 0.0
C407 C 0.90659 0.48221 0.59179 0.0
C408 C 0.91718 0.45398 0.60009 0.0
N409 N 1.00801 0.47136 0.64771 0.0
C410 C 0.01103 0.50709 0.64033 0.0
O411 O 0.03742 0.54068 0.6529 0.0
C412 C 0.89607 0.41052 0.59418 0.0
O413 O 0.80032 0.3158 0.51877 0.0
O414 O 0.75716 0.33442 0.52544 0.0
C415 C 0.0307 0.46707 0.67131 0.0
C416 C 0.06942 0.47459 0.66566 0.0
C417 C 0.09234 0.47213 0.68881 0.0
C418 C 0.07659 0.46248 0.71761 0.0
C419 C 0.03827 0.45556 0.72405 0.0
C420 C 0.01547 0.4582 0.70056 0.0
O421 O 0.79769 0.42054 0.56477 0.0
O422 O 0.82481 0.48239 0.54724 0.0
O423 O 0.90075 0.43195 0.52445 0.0
O424 O 0.92672 0.4951 0.51014 0.0
O425 O 0.85776 0.39007 0.58409 0.0
C426 C 0.81352 0.43433 0.46667 0.0
O427 O 0.83287 0.47057 0.45919 0.0
O428 O 0.82344 0.42451 0.49079 0.0
C429 C 0.76378 0.30661 0.51829 0.0
H430 H 0.03467 0.35489 0.61765 0.0
H431 H 0.95353 0.32441 0.69235 0.0
H432 H 1.00268 0.31408 0.66321 0.0
H433 H 0.94725 0.41998 0.55156 0.0
H434 H 1.00481 0.53188 0.50577 0.0
H435 H 0.0657 0.50497 0.57518 0.0
H436 H 0.85204 0.37465 0.67521 0.0
H437 H 0.95719 0.49026 0.67906 0.0
H438 H 0.84717 0.47641 0.70851 0.0
H439 H 0.98877 0.56469 0.62079 0.0
H440 H 0.92532 0.54499 0.59319 0.0
H441 H 0.87935 0.47358 0.57981 0.0
H442 H 0.08167 0.48271 0.64343 0.0
H443 H 0.09555 0.46263 0.73544 0.0
H444 H 0.98622 0.45386 0.70505 0.0
Cd445 Cd 0.62421 0.43802 0.2017 0.0
C446 C 0.55704 0.34613 0.23128 0.0
C447 C 0.62902 0.54875 0.34388 0.0
O448 O 0.64426 0.54571 0.36926 0.0
Cd449 Cd 0.512 0.36781 0.16861 0.0
C450 C 0.64108 0.58766 0.3302 0.0
C451 C 0.65121 0.65356 0.29758 0.0
C452 C 0.62404 0.61459 0.28879 0.0
N453 N 0.62116 0.58457 0.30523 0.0
C454 C 0.66869 0.62574 0.34048 0.0
C455 C 0.67376 0.65892 0.32374 0.0
Co456 Co 0.58386 0.53405 0.29356 0.0
C457 C 0.59699 0.60089 0.26298 0.0
O458 O 0.59704 0.62555 0.24285 0.0
C459 C 0.55046 0.54166 0.23423 0.0
C460 C 0.56297 0.5221 0.21531 0.0
C461 C 0.53742 0.49555 0.19404 0.0
C462 C 0.50107 0.49471 0.18785 0.0
C463 C 0.4903 0.51952 0.2039 0.0
C464 C 0.51482 0.54165 0.22819 0.0
C465 C 0.54602 0.4641 0.18406 0.0
C466 C 0.58393 0.47609 0.34033 0.0
C467 C 0.61023 0.46213 0.34756 0.0
C468 C 0.54353 0.45226 0.34752 0.0
C469 C 0.52915 0.41447 0.35978 0.0
C470 C 0.55514 0.4005 0.36629 0.0
C471 C 0.59601 0.42484 0.3613 0.0
N472 N 0.59915 0.51621 0.32953 0.0
N473 N 0.57419 0.56047 0.26007 0.0
N474 N 0.62135 0.52465 0.27093 0.0
C475 C 0.66262 0.5526 0.26634 0.0
C476 C 0.6918 0.54873 0.28189 0.0
C477 C 0.67382 0.58273 0.24514 0.0
C478 C 0.73241 0.57498 0.27637 0.0
H479 H 0.68261 0.52503 0.29809 0.0
C480 C 0.7433 0.60519 0.25497 0.0
C481 C 0.71416 0.60925 0.23919 0.0
C482 C 0.76345 0.57067 0.2926 0.0
H483 H 0.65099 0.58493 0.23283 0.0
H484 H 0.77451 0.62546 0.25047 0.0
C485 C 0.72584 0.64071 0.21621 0.0
O486 O 0.80238 0.59529 0.28653 0.0
O487 O 0.75404 0.5448 0.31151 0.0
O488 O 0.70042 0.64459 0.20291 0.0
O489 O 0.76465 0.66518 0.20972 0.0
H490 H 0.8231 0.59294 0.29678 0.0
H491 H 0.77287 0.68576 0.19475 0.0
N492 N 0.54657 0.48378 0.28172 0.0
C493 C 0.50895 0.47177 0.28918 0.0
C494 C 0.47978 0.43281 0.28197 0.0
C495 C 0.49192 0.4086 0.26683 0.0
C496 C 0.53243 0.42339 0.25952 0.0
C497 C 0.56001 0.46241 0.26773 0.0
N498 N 0.54062 0.53491 0.31435 0.0
C499 C 0.5053 0.50154 0.30739 0.0
O500 O 0.4715 0.49399 0.31969 0.0
C501 C 0.6034 0.48541 0.26198 0.0
O502 O 0.69623 0.48579 0.18596 0.0
O503 O 0.68021 0.42528 0.19591 0.0
C504 C 0.54437 0.56303 0.3366 0.0
C505 C 0.5381 0.59455 0.32895 0.0
C506 C 0.54131 0.62177 0.35077 0.0
C507 C 0.55053 0.61719 0.38012 0.0
C508 C 0.55427 0.58439 0.38859 0.0
C509 C 0.55171 0.55755 0.36643 0.0
O510 O 0.59194 0.37647 0.23106 0.0
O511 O 0.53062 0.3421 0.21241 0.0
O512 O 0.57908 0.4666 0.19201 0.0
O513 O 0.51702 0.43142 0.17508 0.0
O514 O 0.6243 0.46819 0.25173 0.0
C515 C 0.58208 0.38209 0.13278 0.0
O516 O 0.54599 0.36526 0.12485 0.0
O517 O 0.59137 0.40093 0.15726 0.0
C518 C 0.70692 0.45957 0.18749 0.0
H519 H 0.65482 0.67889 0.28488 0.0
H520 H 0.68552 0.62983 0.3607 0.0
H521 H 0.69491 0.68873 0.33114 0.0
H522 H 0.59175 0.52505 0.21914 0.0
H523 H 0.48154 0.475 0.17069 0.0
H524 H 0.50612 0.55834 0.24264 0.0
H525 H 0.64191 0.48112 0.34396 0.0
H526 H 0.52321 0.46332 0.34547 0.0
H527 H 0.54367 0.3718 0.377 0.0
H528 H 0.44898 0.42122 0.28817 0.0
H529 H 0.47001 0.37836 0.2609 0.0
H530 H 0.54163 0.40516 0.24772 0.0
H531 H 0.53042 0.59754 0.30626 0.0
H532 H 0.55296 0.63857 0.39675 0.0
H533 H 0.55391 0.53166 0.37239 0.0
H534 H 0.2669 0.66909 0.05672 0.0
H535 H 0.4053 0.85858 0.00481 0.0
H536 H 0.21727 0.73474 0.0988 0.0
H537 H 0.31422 0.88872 0.02154 0.0
H538 H 0.3583 0.78935 0.01772 0.0
H539 H 0.30583 0.72619 0.02395 0.0
C540 C 0.26419 0.69544 0.05911 0.0
C541 C 0.23918 0.69726 0.08094 0.0
C542 C 0.34783 0.81051 0.01729 0.0
C543 C 0.28387 0.76279 0.04373 0.0
C544 C 0.37468 0.85005 0.00964 0.0
C545 C 0.36341 0.87913 0.01208 0.0
C546 C 0.30967 0.80039 0.02758 0.0
C547 C 0.32384 0.86698 0.01928 0.0
C548 C 0.28658 0.72812 0.04045 0.0
C549 C 0.23636 0.73193 0.0826 0.0
N550 N 0.29867 0.82873 0.02745 0.0
N551 N 0.25853 0.76322 0.06442 0.0
H552 H 0.34112 0.61014 0.72304 0.0
H553 H 0.12394 0.42416 0.69616 0.0
H554 H 0.29726 0.49273 0.76001 0.0
H555 H 0.15546 0.54472 0.67479 0.0
H556 H 0.19396 0.44651 0.70629 0.0
H557 H 0.27959 0.58457 0.69382 0.0
C558 C 0.31882 0.57892 0.72475 0.0
C559 C 0.32402 0.55367 0.74443 0.0
C560 C 0.18583 0.46803 0.69869 0.0
C561 C 0.25398 0.52427 0.71087 0.0
C562 C 0.14598 0.45516 0.69258 0.0
C563 C 0.13421 0.48273 0.68473 0.0
C564 C 0.21397 0.50887 0.69738 0.0
C565 C 0.16362 0.52264 0.68068 0.0
C566 C 0.28376 0.56438 0.70806 0.0
C567 C 0.29427 0.51345 0.74557 0.0
N568 N 0.20221 0.53474 0.68763 0.0
N569 N 0.26049 0.50012 0.72923 0.0
H570 H 0.53401 0.81884 0.4138 0.0
H571 H 0.46785 0.61055 0.33848 0.0
H572 H 0.41109 0.72984 0.39898 0.0
H573 H 0.58952 0.70196 0.35312 0.0
H574 H 0.44636 0.65903 0.34898 0.0
H575 H 0.55442 0.78196 0.38151 0.0
C576 C 0.51124 0.79155 0.40361 0.0
C577 C 0.47081 0.77689 0.40967 0.0
C578 C 0.47787 0.66887 0.34894 0.0
C579 C 0.49407 0.7342 0.37261 0.0
C580 C 0.49013 0.64134 0.34255 0.0
C581 C 0.53042 0.65251 0.34503 0.0
C582 C 0.50623 0.70755 0.35806 0.0
C583 C 0.55818 0.69241 0.35098 0.0
C584 C 0.52293 0.77057 0.38498 0.0
C585 C 0.44262 0.74191 0.39523 0.0
N586 N 0.5455 0.71834 0.35783 0.0
N587 N 0.45481 0.7213 0.37777 0.0
H588 H 0.71654 0.19315 0.91789 0.0
H589 H 0.86089 0.40428 0.98869 0.0
H590 H 0.68548 0.28511 0.92735 0.0
H591 H 0.89013 0.31176 0.9759 0.0
H592 H 0.79076 0.356 0.97844 0.0
H593 H 0.77368 0.23067 0.95029 0.0
C594 C 0.72165 0.22121 0.92698 0.0
C595 C 0.69684 0.23654 0.91935 0.0
C596 C 0.81226 0.34592 0.9788 0.0
C597 C 0.76257 0.27997 0.95639 0.0
C598 C 0.8521 0.37334 0.98497 0.0
C599 C 0.88087 0.36165 0.98309 0.0
C600 C 0.80158 0.30686 0.97049 0.0
C601 C 0.86854 0.32163 0.9776 0.0
C602 C 0.75422 0.24257 0.94563 0.0
C603 C 0.70425 0.27252 0.93238 0.0
N604 N 0.82985 0.29576 0.97103 0.0
N605 N 0.73698 0.29347 0.94985 0.0
H606 H 0.73691 0.40448 0.59906 0.0
H607 H 0.70265 0.58227 0.64776 0.0
H608 H 0.81906 0.52932 0.58389 0.0
H609 H 0.61222 0.4587 0.65358 0.0
H610 H 0.75241 0.56239 0.63848 0.0
H611 H 0.6975 0.4228 0.63123 0.0
C612 C 0.74697 0.4357 0.60281 0.0
C613 C 0.78082 0.46543 0.5882 0.0
C614 C 0.72192 0.53951 0.64263 0.0
C615 C 0.73618 0.48651 0.62508 0.0
C616 C 0.69371 0.55094 0.64834 0.0
C617 C 0.65358 0.522 0.65146 0.0
C618 C 0.7096 0.49887 0.63939 0.0
C619 C 0.6431 0.48177 0.65148 0.0
C620 C 0.72449 0.44612 0.62119 0.0
C621 C 0.79268 0.50538 0.59412 0.0
N622 N 0.67083 0.47128 0.6448 0.0
N623 N 0.7702 0.51469 0.61181 0.0
H624 H 0.60736 0.3308 0.26492 0.0
H625 H 0.42781 0.12044 0.31453 0.0
H626 H 0.48289 0.28919 0.24871 0.0
H627 H 0.55083 0.15131 0.3198 0.0
H628 H 0.44874 0.19024 0.30472 0.0
H629 H 0.58835 0.27302 0.29726 0.0
C630 C 0.57607 0.30985 0.26847 0.0
C631 C 0.54665 0.31431 0.25356 0.0
C632 C 0.47128 0.18209 0.30886 0.0
C633 C 0.52479 0.2486 0.29067 0.0
C634 C 0.45926 0.14238 0.31487 0.0
C635 C 0.48772 0.13048 0.318 0.0
C636 C 0.512 0.20975 0.3053 0.0
C637 C 0.52812 0.15966 0.31771 0.0
C638 C 0.56526 0.27694 0.28694 0.0
C639 C 0.5066 0.28648 0.25919 0.0
N640 N 0.53917 0.19795 0.31072 0.0
N641 N 0.4969 0.2547 0.27703 0.0
H642 H 0.48196 0.58586 0.20523 0.0
H643 H 0.25242 0.47928 0.15306 0.0
H644 H 0.41557 0.46081 0.18346 0.0
H645 H 0.33026 0.60638 0.15853 0.0
H646 H 0.309 0.47008 0.16693 0.0
H647 H 0.42429 0.59194 0.19171 0.0
C648 C 0.45519 0.55947 0.19784 0.0
C649 C 0.4541 0.5227 0.19571 0.0
C650 C 0.31362 0.49995 0.16508 0.0
C651 C 0.387 0.52969 0.17964 0.0
C652 C 0.28125 0.50524 0.15724 0.0
C653 C 0.28631 0.54371 0.15453 0.0
C654 C 0.35137 0.53335 0.17073 0.0
C655 C 0.32464 0.57613 0.16014 0.0
C656 C 0.42215 0.56308 0.18984 0.0
C657 C 0.41831 0.48992 0.18531 0.0
N658 N 0.3553 0.57021 0.16803 0.0
N659 N 0.38631 0.49414 0.17781 0.0
H660 H 0.49996 0.75225 0.85935 0.0
H661 H 0.50044 0.95229 0.8093 0.0
H662 H 0.48624 0.77857 0.76832 0.0
H663 H 0.49772 0.91835 0.90109 0.0
H664 H 0.50082 0.89193 0.79393 0.0
H665 H 0.50482 0.81529 0.87475 0.0
C666 C 0.49856 0.77148 0.84247 0.0
C667 C 0.49296 0.75983 0.81235 0.0
C668 C 0.50018 0.89763 0.81745 0.0
C669 C 0.4981 0.83257 0.83008 0.0
C670 C 0.50023 0.93243 0.82635 0.0
C671 C 0.49897 0.94095 0.8567 0.0
C672 C 0.49911 0.87068 0.83892 0.0
C673 C 0.49813 0.91322 0.87746 0.0
C674 C 0.50106 0.80749 0.85136 0.0
C675 C 0.4908 0.78612 0.79173 0.0
N676 N 0.49827 0.87963 0.86823 0.0
N677 N 0.49333 0.82097 0.80093 0.0
H678 H 0.11099 0.5673 0.57224 0.0
H679 H 0.23613 0.74655 0.45973 0.0
H680 H 0.06466 0.56764 0.4846 0.0
H681 H 0.29146 0.70031 0.51842 0.0
H682 H 0.17029 0.69016 0.47365 0.0
H683 H 0.17408 0.62435 0.55793 0.0
C684 C 0.11346 0.57864 0.54992 0.0
C685 C 0.08122 0.56088 0.52967 0.0
C686 C 0.1969 0.69255 0.48352 0.0
C687 C 0.1548 0.62912 0.5136 0.0
C688 C 0.23451 0.72487 0.47573 0.0
C689 C 0.26966 0.72842 0.48789 0.0
C690 C 0.19416 0.66405 0.50432 0.0
C691 C 0.26542 0.69899 0.50836 0.0
C692 C 0.14995 0.61193 0.5419 0.0
C693 C 0.08757 0.57959 0.5015 0.0
N694 N 0.22865 0.66852 0.51606 0.0
N695 N 0.12324 0.61246 0.49445 0.0
H696 H 0.53961 0.47386 0.84987 0.0
H697 H 0.50175 0.25499 0.80979 0.0
H698 H 0.50387 0.42281 0.76235 0.0
H699 H 0.57456 0.32413 0.88366 0.0
H700 H 0.4935 0.31166 0.79511 0.0
H701 H 0.54404 0.41538 0.86545 0.0
C702 C 0.53225 0.45014 0.834 0.0
C703 C 0.52136 0.45347 0.80471 0.0
C704 C 0.51117 0.31437 0.8146 0.0
C705 C 0.52602 0.38572 0.82257 0.0
C706 C 0.51573 0.28185 0.82313 0.0
C707 C 0.53884 0.28438 0.84815 0.0
C708 C 0.52943 0.34988 0.83131 0.0
C709 C 0.55635 0.32041 0.86431 0.0
C710 C 0.535 0.41678 0.84287 0.0
C711 C 0.51262 0.42177 0.78508 0.0
N712 N 0.55122 0.35143 0.85571 0.0
N713 N 0.51489 0.3893 0.79437 0.0
H714 H 0.68777 0.28692 0.50311 0.0
H715 H 0.60101 0.05161 0.48071 0.0
H716 H 0.76195 0.23385 0.51252 0.0
H717 H 0.53819 0.1131 0.4562 0.0
H718 H 0.65884 0.11585 0.49489 0.0
H719 H 0.63222 0.22229 0.48846 0.0
C720 C 0.69249 0.26165 0.50221 0.0
C721 C 0.73001 0.26629 0.50918 0.0
C722 C 0.63243 0.11526 0.48631 0.0
C723 C 0.66537 0.19093 0.49231 0.0
C724 C 0.59911 0.07841 0.47833 0.0
C725 C 0.56411 0.07636 0.46707 0.0
C726 C 0.63097 0.1507 0.48342 0.0
C727 C 0.56429 0.11269 0.4643 0.0
C728 C 0.66055 0.22454 0.49369 0.0
C729 C 0.73382 0.23201 0.5073 0.0
N730 N 0.59679 0.1479 0.47248 0.0
N731 N 0.70199 0.19591 0.49924 0.0
H732 H 0.90145 0.42451 0.1315 0.0
H733 H 0.77698 0.53157 0.17773 0.0
H734 H 0.95942 0.5508 0.14846 0.0
H735 H 0.73031 0.40463 0.17817 0.0
H736 H 0.8429 0.54107 0.1641 0.0
H737 H 0.8379 0.4186 0.14494 0.0
C738 C 0.90092 0.4512 0.13783 0.0
C739 C 0.93632 0.48827 0.1386 0.0
C740 C 0.81818 0.51118 0.16722 0.0
C741 C 0.86247 0.48153 0.15454 0.0
C742 C 0.78046 0.50572 0.17494 0.0
C743 C 0.74773 0.46719 0.17921 0.0
C744 C 0.82323 0.47787 0.16331 0.0
C745 C 0.75437 0.43492 0.17532 0.0
C746 C 0.8644 0.44771 0.14577 0.0
C747 C 0.93322 0.5215 0.14767 0.0
N748 N 0.79096 0.44099 0.16753 0.0
N749 N 0.89707 0.51739 0.15513 0.0
H750 H 0.99254 0.48134 0.75346 0.0
H751 H 0.03801 0.42785 0.91549 0.0
H752 H 0.0522 0.41371 0.76745 0.0
H753 H 0.94029 0.44836 0.89851 0.0
H754 H 0.05136 0.43241 0.8616 0.0
H755 H 0.97804 0.47653 0.80683 0.0
C756 C 1.00223 0.4651 0.76753 0.0
C757 C 0.02428 0.44851 0.75571 0.0
C758 C 0.02716 0.43618 0.86974 0.0
C759 C 1.00886 0.44411 0.81716 0.0
C760 C 0.01989 0.43401 0.90043 0.0
C761 C 0.98815 0.4379 0.91132 0.0
C762 C 1.00286 0.44285 0.84995 0.0
C763 C 0.9651 0.44529 0.8909 0.0
C764 C 0.99427 0.46273 0.79811 0.0
C765 C 0.03622 0.42811 0.77545 0.0
N766 N 0.97293 0.44761 0.86124 0.0
N767 N 0.02883 0.42695 0.80512 0.0
H768 H 0.51779 0.59753 0.43596 0.0
H769 H 0.60082 0.51059 0.55905 0.0
H770 H 0.59863 0.55475 0.41502 0.0
H771 H 0.55855 0.59186 0.58009 0.0
H772 H 0.59414 0.52035 0.50633 0.0
H773 H 0.52628 0.5894 0.48865 0.0
C774 C 0.53771 0.5868 0.44235 0.0
C775 C 0.55812 0.57751 0.4208 0.0
C776 C 0.58648 0.53617 0.52247 0.0
C777 C 0.56686 0.56694 0.48151 0.0
C778 C 0.59049 0.53086 0.55269 0.0
C779 C 0.58086 0.55096 0.57431 0.0
C780 C 0.57195 0.56115 0.51354 0.0
C781 C 0.56619 0.57559 0.5644 0.0
C782 C 0.5423 0.58196 0.47255 0.0
C783 C 0.58222 0.56222 0.4307 0.0
N784 N 0.56214 0.57995 0.53474 0.0
N785 N 0.5859 0.55738 0.46035 0.0
H786 H 0.49953 0.09001 0.22653 0.0
H787 H 0.42053 0.92266 0.1018 0.0
H788 H 0.41896 0.96584 0.24582 0.0
H789 H 0.46001 0.04571 0.08125 0.0
H790 H 0.42677 0.93852 0.15457 0.0
H791 H 0.49187 0.0747 0.17361 0.0
C792 C 0.47981 0.0595 0.21975 0.0
C793 C 0.45929 0.02926 0.24096 0.0
C794 C 0.43394 0.96204 0.13856 0.0
C795 C 0.45163 0.01148 0.1799 0.0
C796 C 0.43023 0.95306 0.1083 0.0
C797 C 0.43895 0.98275 0.0868 0.0
C798 C 0.44736 1.00124 0.14772 0.0
C799 C 0.45294 0.02184 0.09688 0.0
C800 C 0.47572 0.05085 0.1894 0.0
C801 C 0.43551 0.99014 0.23049 0.0
N802 N 0.45671 0.02996 0.12663 0.0
N803 N 0.4324 0.98238 0.20072 0.0
H804 H 0.24911 0.6509 0.98073 0.0
H805 H 0.32094 0.5923 0.83813 0.0
H806 H 0.1914 0.53012 0.9476 0.0
H807 H 0.4109 0.65835 0.90445 0.0
H808 H 0.26971 0.58308 0.87392 0.0
H809 H 0.30773 0.66616 0.94999 0.0
C810 C 0.24913 0.62752 0.96753 0.0
C811 C 0.21546 0.58925 0.96661 0.0
C812 C 0.30075 0.6 0.88043 0.0
C813 C 0.28096 0.6067 0.93137 0.0
C814 C 0.32991 0.6056 0.86003 0.0
C815 C 0.36998 0.62591 0.86858 0.0
C816 C 0.31187 0.61557 0.90922 0.0
C817 C 0.3801 0.64226 0.8973 0.0
C818 C 0.28236 0.63623 0.95013 0.0
C819 C 0.21681 0.55991 0.94921 0.0
N820 N 0.35105 0.6368 0.91681 0.0
N821 N 0.24874 0.56947 0.93182 0.0
H822 H 0.41766 0.79942 0.5886 0.0
H823 H 0.45892 0.63092 0.57946 0.0
H824 H 0.40061 0.73889 0.50487 0.0
H825 H 0.3835 0.62348 0.65238 0.0
H826 H 0.44128 0.67543 0.55333 0.0
H827 H 0.4027 0.73796 0.61474 0.0
C828 C 0.40865 0.77255 0.5758 0.0
C829 C 0.41048 0.77405 0.54462 0.0
C830 C 0.42817 0.66366 0.57488 0.0
C831 C 0.39574 0.70494 0.57412 0.0
C832 C 0.43867 0.63887 0.5899 0.0
C833 C 0.4229 0.62417 0.61806 0.0
C834 C 0.40234 0.67444 0.5884 0.0
C835 C 0.39652 0.63484 0.63075 0.0
C836 C 0.4005 0.73766 0.59069 0.0
C837 C 0.39932 0.73877 0.52895 0.0
N838 N 0.38751 0.6601 0.616 0.0
N839 N 0.39394 0.70593 0.54386 0.0
H840 H 0.27682 0.66014 0.17349 0.0
H841 H 0.38419 0.76477 0.32611 0.0
H842 H 0.21898 0.62271 0.25865 0.0
H843 H 0.40145 0.82434 0.24187 0.0
H844 H 0.33804 0.70091 0.30158 0.0
H845 H 0.33886 0.70676 0.19893 0.0
C846 C 0.2778 0.66013 0.1976 0.0
C847 C 0.24287 0.63807 0.21412 0.0
C848 C 0.35234 0.72801 0.28854 0.0
C849 C 0.313 0.69144 0.24313 0.0
C850 C 0.37822 0.76422 0.3025 0.0
C851 C 0.39596 0.79948 0.28587 0.0
C852 C 0.34468 0.72744 0.25789 0.0
C853 C 0.3881 0.79756 0.25531 0.0
C854 C 0.31298 0.68716 0.21207 0.0
C855 C 0.24541 0.63959 0.24526 0.0
N856 N 0.36283 0.76216 0.2423 0.0
N857 N 0.27977 0.66652 0.25885 0.0
H858 H 0.60149 0.39046 0.07412 0.0
H859 H 0.54578 0.1825 0.07114 0.0
H860 H 0.61766 0.34394 0.15678 0.0
H861 H 0.64853 0.24881 0.01523 0.0
H862 H 0.56315 0.24376 0.09852 0.0
H863 H 0.61654 0.34465 0.04689 0.0
C864 C 0.61029 0.37207 0.08646 0.0
C865 C 0.60834 0.37073 0.11761 0.0
C866 C 0.58195 0.24473 0.08034 0.0
C867 C 0.62331 0.31743 0.0869 0.0
C868 C 0.57179 0.21014 0.06452 0.0
C869 C 0.59558 0.21101 0.04082 0.0
C870 C 0.61555 0.28055 0.07196 0.0
C871 C 0.62939 0.24733 0.03329 0.0
C872 C 0.61861 0.34587 0.07096 0.0
C873 C 0.61913 0.34588 0.13272 0.0
N874 N 0.6381 0.28115 0.04854 0.0
N875 N 0.62451 0.31887 0.11719 0.0
H876 H 0.66726 0.28747 0.82123 0.0
H877 H 0.76979 0.39349 0.66885 0.0
H878 H 0.63018 0.22281 0.73845 0.0
H879 H 0.83286 0.39364 0.748 0.0
H880 H 0.70609 0.34921 0.69441 0.0
H881 H 0.71422 0.34733 0.79374 0.0
C882 C 0.66747 0.28651 0.79712 0.0
C883 C 0.64542 0.2504 0.78192 0.0
C884 C 0.73402 0.35949 0.70609 0.0
C885 C 0.69847 0.31806 0.7507 0.0
C886 C 0.77003 0.3842 0.69156 0.0
C887 C 0.80609 0.39634 0.70643 0.0
C888 C 0.73467 0.34809 0.73565 0.0
C889 C 0.8054 0.38445 0.73592 0.0
C890 C 0.69445 0.32045 0.78155 0.0
C891 C 0.64712 0.25028 0.75078 0.0
N892 N 0.77019 0.36087 0.74961 0.0
N893 N 0.67385 0.28361 0.73608 0.0
H894 H 0.62712 0.37998 0.33922 0.0
H895 H 0.74018 0.39527 0.49127 0.0
H896 H 0.62666 0.44583 0.41631 0.0
H897 H 0.80154 0.41859 0.40741 0.0
H898 H 0.67899 0.3801 0.46446 0.0
H899 H 0.67402 0.36433 0.36531 0.0
C900 C 0.63689 0.39095 0.3616 0.0
C901 C 0.62386 0.41464 0.37569 0.0
C902 C 0.70547 0.38683 0.45194 0.0
C903 C 0.67522 0.39568 0.40561 0.0
C904 C 0.74018 0.39496 0.46714 0.0
C905 C 0.77577 0.40842 0.45139 0.0
C906 C 0.70653 0.39144 0.4209 0.0
C907 C 0.77453 0.40841 0.4202 0.0
C908 C 0.66314 0.3818 0.37644 0.0
C909 C 0.6365 0.42772 0.4048 0.0
N910 N 0.7405 0.4007 0.40587 0.0
N911 N 0.66155 0.41811 0.41884 0.0
loop_
_geom_bond_atom_site_label_1
_geom_bond_atom_site_label_2
_geom_bond_distance
_geom_bond_site_symmetry_2
_ccdc_geom_bond_type
Cd0 O57 2.350 . S
Cd0 O58 2.277 . S
Cd0 O65 2.173 . S
Cd0 O67 2.263 . S
Cd0 O69 2.366 . S
Cd0 O72 2.329 . S
C1 O65 1.277 . S
C1 O66 1.230 . S
C2 O3 1.246 . S
C2 C5 1.481 1_556 S
C2 N27 1.329 . S
O3 C2 1.246 . S
Cd4 O66 2.250 . S
Cd4 O68 2.308 . S
Cd4 O71 2.352 . S
C5 C2 1.481 1_554 S
C5 N8 1.327 . S
C5 C9 1.407 . S
C6 C7 1.346 . S
C6 C10 1.390 . S
C6 H74 0.930 1_455 S
C7 C6 1.346 . S
C7 N8 1.342 . S
C7 C12 1.516 . S
N8 C5 1.327 . S
N8 C7 1.342 . S
N8 Co11 1.864 . S
C9 C5 1.407 . S
C9 C10 1.364 . S
C9 H75 0.930 1_554 S
C10 C6 1.390 . S
C10 C9 1.364 . S
C10 H76 0.931 . S
Co11 N8 1.864 . S
Co11 N27 1.955 1_554 S
Co11 N28 1.958 . S
Co11 N29 1.953 . S
Co11 N47 1.869 . S
Co11 N53 1.974 . S
C12 C7 1.516 . S
C12 O13 1.238 . S
C12 N28 1.324 . S
O13 C12 1.238 . S
C14 C15 1.394 . S
C14 C19 1.395 . S
C14 N28 1.427 . S
C15 C14 1.394 . S
C15 C16 1.380 . S
C15 H77 0.929 . S
C16 C15 1.380 . S
C16 C17 1.384 . S
C16 C20 1.495 . S
C17 C16 1.384 . S
C17 C18 1.382 . S
C17 H78 0.930 . S
C18 C17 1.382 . S
C18 C19 1.398 . S
C19 C14 1.395 . S
C19 C18 1.398 . S
C19 H79 0.930 1_455 S
C20 C16 1.495 . S
C20 O67 1.258 . S
C20 O68 1.274 . S
C21 C22 1.385 . S
C21 C23 1.381 . S
C21 N27 1.432 . S
C22 C21 1.385 . S
C22 C26 1.388 . S
C22 H80 0.929 . S
C23 C21 1.381 . S
C23 C24 1.371 . S
C23 H81 0.932 . S
C24 C23 1.371 . S
C24 C25 1.400 . S
C25 C24 1.400 . S
C25 C26 1.351 . S
C25 H82 0.930 . S
C26 C22 1.388 . S
C26 C25 1.351 . S
N27 C2 1.329 . S
N27 Co11 1.955 1_556 S
N27 C21 1.432 . S
N28 Co11 1.958 . S
N28 C12 1.324 . S
N28 C14 1.427 . S
N29 Co11 1.953 . S
N29 C30 1.436 . S
N29 C56 1.316 . S
C30 N29 1.436 . S
C30 C31 1.421 . S
C30 C32 1.360 . S
C31 C30 1.421 . S
C31 C33 1.379 . S
C31 H34 0.929 . S
C32 C30 1.360 . S
C32 C36 1.393 . S
C32 H38 0.931 . S
C33 C31 1.379 . S
C33 C35 1.417 . S
C33 C37 1.505 . S
H34 C31 0.929 . S
C35 C33 1.417 . S
C35 C36 1.352 . S
C35 H39 0.929 . S
C36 C32 1.393 . S
C36 C35 1.352 . S
C36 C40 1.482 . S
C37 C33 1.505 . S
C37 O41 1.259 . S
C37 O42 1.229 . S
H38 C32 0.931 . S
H39 C35 0.929 . S
C40 C36 1.482 . S
C40 O43 1.207 . S
C40 O44 1.289 . S
O41 C37 1.259 . S
O41 H45 0.822 . S
O42 C37 1.229 . S
O43 C40 1.207 . S
O44 C40 1.289 . S
O44 H46 0.819 . S
H45 O41 0.822 . S
H46 O44 0.819 . S
N47 Co11 1.869 . S
N47 C48 1.330 . S
N47 C52 1.325 . S
C48 N47 1.330 . S
C48 C49 1.359 . S
C48 C54 1.504 . S
C49 C48 1.359 . S
C49 C50 1.366 . S
C49 H83 0.929 1_554 S
C50 C49 1.366 . S
C50 C51 1.415 . S
C50 H84 0.932 . S
C51 C50 1.415 . S
C51 C52 1.366 . S
C51 H85 0.931 . S
C52 N47 1.325 . S
C52 C51 1.366 . S
C52 C56 1.516 . S
N53 Co11 1.974 . S
N53 C54 1.309 . S
N53 C59 1.423 1_554 S
C54 C48 1.504 . S
C54 N53 1.309 . S
C54 O55 1.257 1_554 S
O55 C54 1.257 1_556 S
C56 N29 1.316 . S
C56 C52 1.516 . S
C56 O69 1.263 . S
O57 Cd0 2.350 . S
O57 C73 1.270 . S
O58 Cd0 2.277 . S
O58 C73 1.248 . S
C59 N53 1.423 1_556 S
C59 C60 1.370 1_456 S
C59 C64 1.403 . S
C60 C59 1.370 1_654 S
C60 C61 1.389 1_554 S
C60 H86 0.931 . S
C61 C60 1.389 1_556 S
C61 C62 1.389 . S
C62 C61 1.389 . S
C62 C63 1.379 . S
C62 H87 0.929 . S
C63 C62 1.379 . S
C63 C64 1.405 1_655 S
C64 C59 1.403 . S
C64 C63 1.405 1_455 S
C64 H88 0.932 . S
O65 Cd0 2.173 . S
O65 C1 1.277 . S
O66 C1 1.230 . S
O66 Cd4 2.250 . S
O67 Cd0 2.263 . S
O67 C20 1.258 . S
O68 Cd4 2.308 . S
O68 C20 1.274 . S
O69 Cd0 2.366 . S
O69 C56 1.263 . S
C70 O71 1.235 . S
C70 O72 1.270 . S
O71 Cd4 2.352 . S
O71 C70 1.235 . S
O72 Cd0 2.329 . S
O72 C70 1.270 . S
C73 O57 1.270 . S
C73 O58 1.248 . S
H74 C6 0.930 1_655 S
H75 C9 0.930 1_556 S
H76 C10 0.931 . S
H77 C15 0.929 . S
H78 C17 0.930 . S
H79 C19 0.930 1_655 S
H80 C22 0.929 . S
H81 C23 0.932 . S
H82 C25 0.930 . S
H83 C49 0.929 1_556 S
H84 C50 0.932 . S
H85 C51 0.931 . S
H86 C60 0.931 . S
H87 C62 0.929 . S
H88 C64 0.932 . S
Cd89 O146 2.350 . S
Cd89 O147 2.277 . S
Cd89 O154 2.173 . S
Cd89 O156 2.263 . S
Cd89 O158 2.366 . S
Cd89 O161 2.329 . S
C90 O154 1.277 . S
C90 O155 1.230 . S
C91 O92 1.246 . S
C91 C94 1.481 . S
C91 N116 1.329 . S
O92 C91 1.246 . S
Cd93 O155 2.250 . S
Cd93 O157 2.308 . S
Cd93 O160 2.352 . S
C94 C91 1.481 . S
C94 N97 1.327 . S
C94 C98 1.407 . S
C95 C96 1.346 . S
C95 C99 1.390 . S
C95 H163 0.930 . S
C96 C95 1.346 . S
C96 N97 1.342 . S
C96 C101 1.516 . S
N97 C94 1.327 . S
N97 C96 1.342 . S
N97 Co100 1.864 . S
C98 C94 1.407 . S
C98 C99 1.364 . S
C98 H164 0.930 . S
C99 C95 1.390 . S
C99 C98 1.364 . S
C99 H165 0.931 . S
Co100 N97 1.864 . S
Co100 N116 1.955 . S
Co100 N117 1.958 . S
Co100 N118 1.953 . S
Co100 N136 1.869 . S
Co100 N142 1.974 . S
C101 C96 1.516 . S
C101 O102 1.238 . S
C101 N117 1.324 . S
O102 C101 1.238 . S
C103 C104 1.394 . S
C103 C108 1.395 . S
C103 N117 1.427 . S
C104 C103 1.394 . S
C104 C105 1.380 . S
C104 H166 0.929 . S
C105 C104 1.380 . S
C105 C106 1.384 . S
C105 C109 1.495 . S
C106 C105 1.384 . S
C106 C107 1.382 . S
C106 H167 0.930 . S
C107 C106 1.382 . S
C107 C108 1.398 . S
C108 C103 1.395 . S
C108 C107 1.398 . S
C108 H168 0.930 . S
C109 C105 1.495 . S
C109 O156 1.258 . S
C109 O157 1.274 . S
C110 C111 1.385 . S
C110 C112 1.381 . S
C110 N116 1.432 . S
C111 C110 1.385 . S
C111 C115 1.388 . S
C111 H169 0.929 . S
C112 C110 1.381 . S
C112 C113 1.371 . S
C112 H170 0.932 . S
C113 C112 1.371 . S
C113 C114 1.400 . S
C114 C113 1.400 . S
C114 C115 1.351 . S
C114 H171 0.930 . S
C115 C111 1.388 . S
C115 C114 1.351 . S
N116 C91 1.329 . S
N116 Co100 1.955 . S
N116 C110 1.432 . S
N117 Co100 1.958 . S
N117 C101 1.324 . S
N117 C103 1.427 . S
N118 Co100 1.953 . S
N118 C119 1.436 . S
N118 C145 1.316 . S
C119 N118 1.436 . S
C119 C120 1.421 . S
C119 C121 1.360 . S
C120 C119 1.421 . S
C120 C122 1.379 . S
C120 H123 0.929 . S
C121 C119 1.360 . S
C121 C125 1.393 . S
C121 H127 0.931 . S
C122 C120 1.379 . S
C122 C124 1.417 . S
C122 C126 1.505 . S
H123 C120 0.929 . S
C124 C122 1.417 . S
C124 C125 1.352 . S
C124 H128 0.929 . S
C125 C121 1.393 . S
C125 C124 1.352 . S
C125 C129 1.482 . S
C126 C122 1.505 . S
C126 O130 1.259 . S
C126 O131 1.229 . S
H127 C121 0.931 . S
H128 C124 0.929 . S
C129 C125 1.482 . S
C129 O132 1.207 . S
C129 O133 1.289 . S
O130 C126 1.259 . S
O130 H134 0.822 . S
O131 C126 1.229 . S
O132 C129 1.207 . S
O133 C129 1.289 . S
O133 H135 0.819 . S
H134 O130 0.822 . S
H135 O133 0.819 . S
N136 Co100 1.869 . S
N136 C137 1.330 . S
N136 C141 1.325 . S
C137 N136 1.330 . S
C137 C138 1.359 . S
C137 C143 1.504 . S
C138 C137 1.359 . S
C138 C139 1.366 . S
C138 H172 0.929 . S
C139 C138 1.366 . S
C139 C140 1.415 . S
C139 H173 0.932 . S
C140 C139 1.415 . S
C140 C141 1.366 . S
C140 H174 0.931 . S
C141 N136 1.325 . S
C141 C140 1.366 . S
C141 C145 1.516 . S
N142 Co100 1.974 . S
N142 C143 1.309 . S
N142 C148 1.423 . S
C143 C137 1.504 . S
C143 N142 1.309 . S
C143 O144 1.258 . S
O144 C143 1.258 . S
C145 N118 1.316 . S
C145 C141 1.516 . S
C145 O158 1.263 . S
O146 Cd89 2.350 . S
O146 C162 1.270 . S
O147 Cd89 2.277 . S
O147 C162 1.248 . S
C148 N142 1.423 . S
C148 C149 1.370 . S
C148 C153 1.403 . S
C149 C148 1.370 . S
C149 C150 1.389 . S
C149 H175 0.931 . S
C150 C149 1.389 . S
C150 C151 1.389 . S
C151 C150 1.389 . S
C151 C152 1.379 . S
C151 H176 0.929 . S
C152 C151 1.379 . S
C152 C153 1.405 . S
C153 C148 1.403 . S
C153 C152 1.405 . S
C153 H177 0.932 . S
O154 Cd89 2.173 . S
O154 C90 1.277 . S
O155 C90 1.230 . S
O155 Cd93 2.250 . S
O156 Cd89 2.263 . S
O156 C109 1.258 . S
O157 Cd93 2.308 . S
O157 C109 1.274 . S
O158 Cd89 2.366 . S
O158 C145 1.263 . S
C159 O160 1.235 . S
C159 O161 1.270 . S
O160 Cd93 2.352 . S
O160 C159 1.235 . S
O161 Cd89 2.329 . S
O161 C159 1.270 . S
C162 O146 1.270 . S
C162 O147 1.248 . S
H163 C95 0.930 . S
H164 C98 0.930 . S
H165 C99 0.931 . S
H166 C104 0.929 . S
H167 C106 0.930 . S
H168 C108 0.930 . S
H169 C111 0.929 . S
H170 C112 0.932 . S
H171 C114 0.930 . S
H172 C138 0.929 . S
H173 C139 0.932 . S
H174 C140 0.931 . S
H175 C149 0.931 . S
H176 C151 0.929 . S
H177 C153 0.932 . S
Cd178 O235 2.350 . S
Cd178 O236 2.277 . S
Cd178 O243 2.173 . S
Cd178 O245 2.263 . S
Cd178 O247 2.366 . S
Cd178 O250 2.329 . S
C179 O243 1.277 . S
C179 O244 1.230 . S
C180 O181 1.246 . S
C180 C183 1.481 . S
C180 N205 1.329 . S
O181 C180 1.246 . S
Cd182 O244 2.250 . S
Cd182 O246 2.308 . S
Cd182 O249 2.352 . S
C183 C180 1.481 . S
C183 N186 1.327 . S
C183 C187 1.407 . S
C184 C185 1.346 . S
C184 C188 1.390 . S
C184 H252 0.930 1_565 S
C185 C184 1.346 . S
C185 N186 1.342 . S
C185 C190 1.516 . S
N186 C183 1.327 . S
N186 C185 1.342 . S
N186 Co189 1.864 . S
C187 C183 1.407 . S
C187 C188 1.364 . S
C187 H253 0.930 . S
C188 C184 1.390 . S
C188 C187 1.364 . S
C188 H254 0.931 . S
Co189 N186 1.864 . S
Co189 N205 1.955 . S
Co189 N206 1.958 . S
Co189 N207 1.953 . S
Co189 N225 1.869 . S
Co189 N231 1.974 . S
C190 C185 1.516 . S
C190 O191 1.238 . S
C190 N206 1.324 . S
O191 C190 1.238 . S
C192 C193 1.394 . S
C192 C197 1.395 . S
C192 N206 1.427 . S
C193 C192 1.394 . S
C193 C194 1.380 . S
C193 H255 0.929 . S
C194 C193 1.380 . S
C194 C195 1.384 . S
C194 C198 1.495 . S
C195 C194 1.384 . S
C195 C196 1.382 . S
C195 H256 0.930 . S
C196 C195 1.382 . S
C196 C197 1.398 . S
C197 C192 1.395 . S
C197 C196 1.398 . S
C197 H257 0.930 1_565 S
C198 C194 1.495 . S
C198 O245 1.258 . S
C198 O246 1.274 . S
C199 C200 1.385 . S
C199 C201 1.381 . S
C199 N205 1.432 . S
C200 C199 1.385 . S
C200 C204 1.388 . S
C200 H258 0.929 . S
C201 C199 1.381 . S
C201 C202 1.371 . S
C201 H259 0.932 . S
C202 C201 1.371 . S
C202 C203 1.400 . S
C203 C202 1.400 . S
C203 C204 1.351 . S
C203 H260 0.930 . S
C204 C200 1.388 . S
C204 C203 1.351 . S
N205 C180 1.329 . S
N205 Co189 1.955 . S
N205 C199 1.432 . S
N206 Co189 1.958 . S
N206 C190 1.324 . S
N206 C192 1.427 . S
N207 Co189 1.953 . S
N207 C208 1.436 . S
N207 C234 1.316 . S
C208 N207 1.436 . S
C208 C209 1.421 . S
C208 C210 1.360 . S
C209 C208 1.421 . S
C209 C211 1.379 . S
C209 H212 0.929 . S
C210 C208 1.360 . S
C210 C214 1.393 . S
C210 H216 0.931 . S
C211 C209 1.379 . S
C211 C213 1.417 . S
C211 C215 1.505 . S
H212 C209 0.929 . S
C213 C211 1.417 . S
C213 C214 1.352 . S
C213 H217 0.929 . S
C214 C210 1.393 . S
C214 C213 1.352 . S
C214 C218 1.482 . S
C215 C211 1.505 . S
C215 O219 1.259 . S
C215 O220 1.229 . S
H216 C210 0.931 . S
H217 C213 0.929 . S
C218 C214 1.482 . S
C218 O221 1.207 . S
C218 O222 1.289 . S
O219 C215 1.259 . S
O219 H223 0.822 . S
O220 C215 1.229 . S
O221 C218 1.207 . S
O222 C218 1.289 . S
O222 H224 0.819 . S
H223 O219 0.822 . S
H224 O222 0.819 . S
N225 Co189 1.869 . S
N225 C226 1.330 . S
N225 C230 1.325 . S
C226 N225 1.330 . S
C226 C227 1.359 . S
C226 C232 1.504 . S
C227 C226 1.359 . S
C227 C228 1.366 . S
C227 H261 0.929 . S
C228 C227 1.366 . S
C228 C229 1.415 . S
C228 H262 0.932 . S
C229 C228 1.415 . S
C229 C230 1.366 . S
C229 H263 0.931 . S
C230 N225 1.325 . S
C230 C229 1.366 . S
C230 C234 1.516 . S
N231 Co189 1.974 . S
N231 C232 1.309 . S
N231 C237 1.423 . S
C232 C226 1.504 . S
C232 N231 1.309 . S
C232 O233 1.258 . S
O233 C232 1.258 . S
C234 N207 1.316 . S
C234 C230 1.516 . S
C234 O247 1.263 . S
O235 Cd178 2.350 . S
O235 C251 1.270 . S
O236 Cd178 2.277 . S
O236 C251 1.248 . S
C237 N231 1.423 . S
C237 C238 1.370 1_565 S
C237 C242 1.403 . S
C238 C237 1.370 1_545 S
C238 C239 1.389 . S
C238 H264 0.931 . S
C239 C238 1.389 . S
C239 C240 1.389 . S
C240 C239 1.389 . S
C240 C241 1.379 . S
C240 H265 0.929 . S
C241 C240 1.379 . S
C241 C242 1.405 1_545 S
C242 C237 1.403 . S
C242 C241 1.405 1_565 S
C242 H266 0.932 . S
O243 Cd178 2.173 . S
O243 C179 1.277 . S
O244 C179 1.230 . S
O244 Cd182 2.250 . S
O245 Cd178 2.263 . S
O245 C198 1.258 . S
O246 Cd182 2.308 . S
O246 C198 1.274 . S
O247 Cd178 2.366 . S
O247 C234 1.263 . S
C248 O249 1.235 . S
C248 O250 1.270 . S
O249 Cd182 2.352 . S
O249 C248 1.235 . S
O250 Cd178 2.329 . S
O250 C248 1.270 . S
C251 O235 1.270 . S
C251 O236 1.248 . S
H252 C184 0.930 1_545 S
H253 C187 0.930 . S
H254 C188 0.931 . S
H255 C193 0.929 . S
H256 C195 0.930 . S
H257 C197 0.930 1_545 S
H258 C200 0.929 . S
H259 C201 0.932 . S
H260 C203 0.930 . S
H261 C227 0.929 . S
H262 C228 0.932 . S
H263 C229 0.931 . S
H264 C238 0.931 . S
H265 C240 0.929 . S
H266 C242 0.932 . S
Cd267 O324 2.350 . S
Cd267 O325 2.277 . S
Cd267 O332 2.173 . S
Cd267 O334 2.263 . S
Cd267 O336 2.366 . S
Cd267 O339 2.329 . S
C268 O332 1.277 . S
C268 O333 1.230 . S
C269 O270 1.246 . S
C269 C272 1.481 1_554 S
C269 N294 1.329 . S
O270 C269 1.246 . S
Cd271 O333 2.250 . S
Cd271 O335 2.308 . S
Cd271 O338 2.352 . S
C272 C269 1.481 1_556 S
C272 N275 1.327 . S
C272 C276 1.407 . S
C273 C274 1.346 . S
C273 C277 1.390 . S
C273 H341 0.930 1_545 S
C274 C273 1.346 . S
C274 N275 1.342 . S
C274 C279 1.516 . S
N275 C272 1.327 . S
N275 C274 1.342 . S
N275 Co278 1.864 . S
C276 C272 1.407 . S
C276 C277 1.364 . S
C276 H342 0.930 1_556 S
C277 C273 1.390 . S
C277 C276 1.364 . S
C277 H343 0.931 . S
Co278 N275 1.864 . S
Co278 N294 1.955 1_556 S
Co278 N295 1.958 . S
Co278 N296 1.953 . S
Co278 N314 1.869 . S
Co278 N320 1.974 . S
C279 C274 1.516 . S
C279 O280 1.238 . S
C279 N295 1.324 . S
O280 C279 1.238 . S
C281 C282 1.394 . S
C281 C286 1.395 . S
C281 N295 1.427 . S
C282 C281 1.394 . S
C282 C283 1.380 . S
C282 H344 0.929 . S
C283 C282 1.380 . S
C283 C284 1.384 . S
C283 C287 1.495 . S
C284 C283 1.384 . S
C284 C285 1.382 . S
C284 H345 0.930 . S
C285 C284 1.382 . S
C285 C286 1.398 . S
C286 C281 1.395 . S
C286 C285 1.398 . S
C286 H346 0.930 1_545 S
C287 C283 1.495 . S
C287 O334 1.258 . S
C287 O335 1.274 . S
C288 C289 1.385 . S
C288 C290 1.381 . S
C288 N294 1.432 . S
C289 C288 1.385 . S
C289 C293 1.388 . S
C289 H347 0.929 . S
C290 C288 1.381 . S
C290 C291 1.371 . S
C290 H348 0.932 . S
C291 C290 1.371 . S
C291 C292 1.400 . S
C292 C291 1.400 . S
C292 C293 1.351 . S
C292 H349 0.930 . S
C293 C289 1.388 . S
C293 C292 1.351 . S
N294 C269 1.329 . S
N294 Co278 1.955 1_554 S
N294 C288 1.432 . S
N295 Co278 1.958 . S
N295 C279 1.324 . S
N295 C281 1.427 . S
N296 Co278 1.953 . S
N296 C297 1.436 . S
N296 C323 1.316 . S
C297 N296 1.436 . S
C297 C298 1.421 . S
C297 C299 1.360 . S
C298 C297 1.421 . S
C298 C300 1.379 . S
C298 H301 0.929 . S
C299 C297 1.360 . S
C299 C303 1.393 . S
C299 H305 0.931 . S
C300 C298 1.379 . S
C300 C302 1.417 . S
C300 C304 1.505 . S
H301 C298 0.929 . S
C302 C300 1.417 . S
C302 C303 1.352 . S
C302 H306 0.929 . S
C303 C299 1.393 . S
C303 C302 1.352 . S
C303 C307 1.482 . S
C304 C300 1.505 . S
C304 O308 1.259 . S
C304 O309 1.229 . S
H305 C299 0.931 . S
H306 C302 0.929 . S
C307 C303 1.482 . S
C307 O310 1.207 . S
C307 O311 1.289 . S
O308 C304 1.259 . S
O308 H312 0.822 . S
O309 C304 1.229 . S
O310 C307 1.207 . S
O311 C307 1.289 . S
O311 H313 0.819 . S
H312 O308 0.822 . S
H313 O311 0.819 . S
N314 Co278 1.869 . S
N314 C315 1.330 . S
N314 C319 1.325 . S
C315 N314 1.330 . S
C315 C316 1.359 . S
C315 C321 1.504 . S
C316 C315 1.359 . S
C316 C317 1.366 . S
C316 H350 0.929 1_556 S
C317 C316 1.366 . S
C317 C318 1.415 . S
C317 H351 0.932 . S
C318 C317 1.415 . S
C318 C319 1.366 . S
C318 H352 0.931 . S
C319 N314 1.325 . S
C319 C318 1.366 . S
C319 C323 1.516 . S
N320 Co278 1.974 . S
N320 C321 1.309 . S
N320 C326 1.423 1_556 S
C321 C315 1.504 . S
C321 N320 1.309 . S
C321 O322 1.257 1_556 S
O322 C321 1.257 1_554 S
C323 N296 1.316 . S
C323 C319 1.516 . S
C323 O336 1.263 . S
O324 Cd267 2.350 . S
O324 C340 1.270 . S
O325 Cd267 2.277 . S
O325 C340 1.248 . S
C326 N320 1.423 1_554 S
C326 C327 1.370 1_544 S
C326 C331 1.403 . S
C327 C326 1.370 1_566 S
C327 C328 1.389 1_556 S
C327 H353 0.931 . S
C328 C327 1.389 1_554 S
C328 C329 1.389 . S
C329 C328 1.389 . S
C329 C330 1.379 . S
C329 H354 0.929 . S
C330 C329 1.379 . S
C330 C331 1.405 1_565 S
C331 C326 1.403 . S
C331 C330 1.405 1_545 S
C331 H355 0.932 . S
O332 Cd267 2.173 . S
O332 C268 1.277 . S
O333 C268 1.230 . S
O333 Cd271 2.250 . S
O334 Cd267 2.263 . S
O334 C287 1.258 . S
O335 Cd271 2.308 . S
O335 C287 1.274 . S
O336 Cd267 2.366 . S
O336 C323 1.263 . S
C337 O338 1.235 . S
C337 O339 1.270 . S
O338 Cd271 2.352 . S
O338 C337 1.235 . S
O339 Cd267 2.329 . S
O339 C337 1.270 . S
C340 O324 1.270 . S
C340 O325 1.248 . S
H341 C273 0.930 1_565 S
H342 C276 0.930 1_554 S
H343 C277 0.931 . S
H344 C282 0.929 . S
H345 C284 0.930 . S
H346 C286 0.930 1_565 S
H347 C289 0.929 . S
H348 C290 0.932 . S
H349 C292 0.930 . S
H350 C316 0.929 1_554 S
H351 C317 0.932 . S
H352 C318 0.931 . S
H353 C327 0.931 . S
H354 C329 0.929 . S
H355 C331 0.932 . S
Cd356 O413 2.350 . S
Cd356 O414 2.277 . S
Cd356 O421 2.173 . S
Cd356 O423 2.263 . S
Cd356 O425 2.366 . S
Cd356 O428 2.329 . S
C357 O421 1.277 . S
C357 O422 1.230 . S
C358 O359 1.246 . S
C358 C361 1.481 . S
C358 N383 1.329 . S
O359 C358 1.246 . S
Cd360 O422 2.250 . S
Cd360 O424 2.308 . S
Cd360 O427 2.352 . S
C361 C358 1.481 . S
C361 N364 1.327 . S
C361 C365 1.407 . S
C362 C363 1.346 . S
C362 C366 1.390 . S
C362 H430 0.930 1_655 S
C363 C362 1.346 . S
C363 N364 1.342 . S
C363 C368 1.516 . S
N364 C361 1.327 . S
N364 C363 1.342 . S
N364 Co367 1.864 . S
C365 C361 1.407 . S
C365 C366 1.364 . S
C365 H431 0.930 . S
C366 C362 1.390 . S
C366 C365 1.364 . S
C366 H432 0.931 . S
Co367 N364 1.864 . S
Co367 N383 1.955 . S
Co367 N384 1.958 . S
Co367 N385 1.953 . S
Co367 N403 1.869 . S
Co367 N409 1.974 . S
C368 C363 1.516 . S
C368 O369 1.238 . S
C368 N384 1.324 . S
O369 C368 1.238 . S
C370 C371 1.394 . S
C370 C375 1.395 . S
C370 N384 1.427 . S
C371 C370 1.394 . S
C371 C372 1.380 . S
C371 H433 0.929 . S
C372 C371 1.380 . S
C372 C373 1.384 . S
C372 C376 1.495 . S
C373 C372 1.384 . S
C373 C374 1.382 . S
C373 H434 0.930 . S
C374 C373 1.382 . S
C374 C375 1.398 . S
C375 C370 1.395 . S
C375 C374 1.398 . S
C375 H435 0.930 1_655 S
C376 C372 1.495 . S
C376 O423 1.258 . S
C376 O424 1.274 . S
C377 C378 1.385 . S
C377 C379 1.381 . S
C377 N383 1.432 . S
C378 C377 1.385 . S
C378 C382 1.388 . S
C378 H436 0.929 . S
C379 C377 1.381 . S
C379 C380 1.371 . S
C379 H437 0.932 . S
C380 C379 1.371 . S
C380 C381 1.400 . S
C381 C380 1.400 . S
C381 C382 1.351 . S
C381 H438 0.930 . S
C382 C378 1.388 . S
C382 C381 1.351 . S
N383 C358 1.329 . S
N383 Co367 1.955 . S
N383 C377 1.432 . S
N384 Co367 1.958 . S
N384 C368 1.324 . S
N384 C370 1.427 . S
N385 Co367 1.953 . S
N385 C386 1.436 . S
N385 C412 1.316 . S
C386 N385 1.436 . S
C386 C387 1.421 . S
C386 C388 1.360 . S
C387 C386 1.421 . S
C387 C389 1.379 . S
C387 H390 0.929 . S
C388 C386 1.360 . S
C388 C392 1.393 . S
C388 H394 0.931 . S
C389 C387 1.379 . S
C389 C391 1.417 . S
C389 C393 1.505 . S
H390 C387 0.929 . S
C391 C389 1.417 . S
C391 C392 1.352 . S
C391 H395 0.929 . S
C392 C388 1.393 . S
C392 C391 1.352 . S
C392 C396 1.482 . S
C393 C389 1.505 . S
C393 O397 1.259 . S
C393 O398 1.229 . S
H394 C388 0.931 . S
H395 C391 0.929 . S
C396 C392 1.482 . S
C396 O399 1.207 . S
C396 O400 1.289 . S
O397 C393 1.259 . S
O397 H401 0.822 . S
O398 C393 1.229 . S
O399 C396 1.207 . S
O400 C396 1.289 . S
O400 H402 0.819 . S
H401 O397 0.822 . S
H402 O400 0.819 . S
N403 Co367 1.869 . S
N403 C404 1.330 . S
N403 C408 1.325 . S
C404 N403 1.330 . S
C404 C405 1.359 . S
C404 C410 1.504 . S
C405 C404 1.359 . S
C405 C406 1.366 . S
C405 H439 0.929 . S
C406 C405 1.366 . S
C406 C407 1.415 . S
C406 H440 0.932 . S
C407 C406 1.415 . S
C407 C408 1.366 . S
C407 H441 0.931 . S
C408 N403 1.325 . S
C408 C407 1.366 . S
C408 C412 1.516 . S
N409 Co367 1.974 . S
N409 C410 1.309 . S
N409 C415 1.423 . S
C410 C404 1.504 . S
C410 N409 1.309 . S
C410 O411 1.258 . S
O411 C410 1.258 . S
C412 N385 1.316 . S
C412 C408 1.516 . S
C412 O425 1.263 . S
O413 Cd356 2.350 . S
O413 C429 1.270 . S
O414 Cd356 2.277 . S
O414 C429 1.248 . S
C415 N409 1.423 . S
C415 C416 1.370 1_655 S
C415 C420 1.403 . S
C416 C415 1.370 1_455 S
C416 C417 1.389 . S
C416 H442 0.931 . S
C417 C416 1.389 . S
C417 C418 1.389 . S
C418 C417 1.389 . S
C418 C419 1.379 . S
C418 H443 0.929 . S
C419 C418 1.379 . S
C419 C420 1.405 1_455 S
C420 C415 1.403 . S
C420 C419 1.405 1_655 S
C420 H444 0.932 . S
O421 Cd356 2.173 . S
O421 C357 1.277 . S
O422 C357 1.230 . S
O422 Cd360 2.250 . S
O423 Cd356 2.263 . S
O423 C376 1.258 . S
O424 Cd360 2.308 . S
O424 C376 1.274 . S
O425 Cd356 2.366 . S
O425 C412 1.263 . S
C426 O427 1.235 . S
C426 O428 1.270 . S
O427 Cd360 2.352 . S
O427 C426 1.235 . S
O428 Cd356 2.329 . S
O428 C426 1.270 . S
C429 O413 1.270 . S
C429 O414 1.248 . S
H430 C362 0.930 1_455 S
H431 C365 0.930 . S
H432 C366 0.931 . S
H433 C371 0.929 . S
H434 C373 0.930 . S
H435 C375 0.930 1_455 S
H436 C378 0.929 . S
H437 C379 0.932 . S
H438 C381 0.930 . S
H439 C405 0.929 . S
H440 C406 0.932 . S
H441 C407 0.931 . S
H442 C416 0.931 . S
H443 C418 0.929 . S
H444 C420 0.932 . S
Cd445 O502 2.350 . S
Cd445 O503 2.277 . S
Cd445 O510 2.173 . S
Cd445 O512 2.263 . S
Cd445 O514 2.366 . S
Cd445 O517 2.329 . S
C446 O510 1.277 . S
C446 O511 1.230 . S
C447 O448 1.246 . S
C447 C450 1.481 . S
C447 N472 1.329 . S
O448 C447 1.246 . S
Cd449 O511 2.250 . S
Cd449 O513 2.308 . S
Cd449 O516 2.352 . S
C450 C447 1.481 . S
C450 N453 1.327 . S
C450 C454 1.407 . S
C451 C452 1.346 . S
C451 C455 1.390 . S
C451 H519 0.930 . S
C452 C451 1.346 . S
C452 N453 1.342 . S
C452 C457 1.516 . S
N453 C450 1.327 . S
N453 C452 1.342 . S
N453 Co456 1.864 . S
C454 C450 1.407 . S
C454 C455 1.364 . S
C454 H520 0.930 . S
C455 C451 1.390 . S
C455 C454 1.364 . S
C455 H521 0.931 . S
Co456 N453 1.864 . S
Co456 N472 1.955 . S
Co456 N473 1.958 . S
Co456 N474 1.953 . S
Co456 N492 1.869 . S
Co456 N498 1.974 . S
C457 C452 1.516 . S
C457 O458 1.238 . S
C457 N473 1.324 . S
O458 C457 1.238 . S
C459 C460 1.394 . S
C459 C464 1.395 . S
C459 N473 1.427 . S
C460 C459 1.394 . S
C460 C461 1.380 . S
C460 H522 0.929 . S
C461 C460 1.380 . S
C461 C462 1.384 . S
C461 C465 1.495 . S
C462 C461 1.384 . S
C462 C463 1.382 . S
C462 H523 0.930 . S
C463 C462 1.382 . S
C463 C464 1.398 . S
C464 C459 1.395 . S
C464 C463 1.398 . S
C464 H524 0.930 . S
C465 C461 1.495 . S
C465 O512 1.258 . S
C465 O513 1.274 . S
C466 C467 1.385 . S
C466 C468 1.381 . S
C466 N472 1.432 . S
C467 C466 1.385 . S
C467 C471 1.388 . S
C467 H525 0.929 . S
C468 C466 1.381 . S
C468 C469 1.371 . S
C468 H526 0.932 . S
C469 C468 1.371 . S
C469 C470 1.400 . S
C470 C469 1.400 . S
C470 C471 1.351 . S
C470 H527 0.930 . S
C471 C467 1.388 . S
C471 C470 1.351 . S
N472 C447 1.329 . S
N472 Co456 1.955 . S
N472 C466 1.432 . S
N473 Co456 1.958 . S
N473 C457 1.324 . S
N473 C459 1.427 . S
N474 Co456 1.953 . S
N474 C475 1.436 . S
N474 C501 1.316 . S
C475 N474 1.436 . S
C475 C476 1.421 . S
C475 C477 1.360 . S
C476 C475 1.421 . S
C476 C478 1.379 . S
C476 H479 0.929 . S
C477 C475 1.360 . S
C477 C481 1.393 . S
C477 H483 0.931 . S
C478 C476 1.379 . S
C478 C480 1.417 . S
C478 C482 1.505 . S
H479 C476 0.929 . S
C480 C478 1.417 . S
C480 C481 1.352 . S
C480 H484 0.929 . S
C481 C477 1.393 . S
C481 C480 1.352 . S
C481 C485 1.482 . S
C482 C478 1.505 . S
C482 O486 1.259 . S
C482 O487 1.229 . S
H483 C477 0.931 . S
H484 C480 0.929 . S
C485 C481 1.482 . S
C485 O488 1.207 . S
C485 O489 1.289 . S
O486 C482 1.259 . S
O486 H490 0.822 . S
O487 C482 1.229 . S
O488 C485 1.207 . S
O489 C485 1.289 . S
O489 H491 0.819 . S
H490 O486 0.822 . S
H491 O489 0.819 . S
N492 Co456 1.869 . S
N492 C493 1.330 . S
N492 C497 1.325 . S
C493 N492 1.330 . S
C493 C494 1.359 . S
C493 C499 1.504 . S
C494 C493 1.359 . S
C494 C495 1.366 . S
C494 H528 0.929 . S
C495 C494 1.366 . S
C495 C496 1.415 . S
C495 H529 0.932 . S
C496 C495 1.415 . S
C496 C497 1.366 . S
C496 H530 0.931 . S
C497 N492 1.325 . S
C497 C496 1.366 . S
C497 C501 1.516 . S
N498 Co456 1.974 . S
N498 C499 1.309 . S
N498 C504 1.423 . S
C499 C493 1.504 . S
C499 N498 1.309 . S
C499 O500 1.258 . S
O500 C499 1.258 . S
C501 N474 1.316 . S
C501 C497 1.516 . S
C501 O514 1.263 . S
O502 Cd445 2.350 . S
O502 C518 1.270 . S
O503 Cd445 2.277 . S
O503 C518 1.248 . S
C504 N498 1.423 . S
C504 C505 1.370 . S
C504 C509 1.403 . S
C505 C504 1.370 . S
C505 C506 1.389 . S
C505 H531 0.931 . S
C506 C505 1.389 . S
C506 C507 1.389 . S
C507 C506 1.389 . S
C507 C508 1.379 . S
C507 H532 0.929 . S
C508 C507 1.379 . S
C508 C509 1.405 . S
C509 C504 1.403 . S
C509 C508 1.405 . S
C509 H533 0.932 . S
O510 Cd445 2.173 . S
O510 C446 1.277 . S
O511 C446 1.230 . S
O511 Cd449 2.250 . S
O512 Cd445 2.263 . S
O512 C465 1.258 . S
O513 Cd449 2.308 . S
O513 C465 1.274 . S
O514 Cd445 2.366 . S
O514 C501 1.263 . S
C515 O516 1.235 . S
C515 O517 1.270 . S
O516 Cd449 2.352 . S
O516 C515 1.235 . S
O517 Cd445 2.329 . S
O517 C515 1.270 . S
C518 O502 1.270 . S
C518 O503 1.248 . S
H519 C451 0.930 . S
H520 C454 0.930 . S
H521 C455 0.931 . S
H522 C460 0.929 . S
H523 C462 0.930 . S
H524 C464 0.930 . S
H525 C467 0.929 . S
H526 C468 0.932 . S
H527 C470 0.930 . S
H528 C494 0.929 . S
H529 C495 0.932 . S
H530 C496 0.931 . S
H531 C505 0.931 . S
H532 C507 0.929 . S
H533 C509 0.932 . S
H534 C540 0.930 . S
H535 C544 0.930 . S
H536 C549 0.929 . S
H537 C547 0.929 . S
H538 C542 0.929 . S
H539 C548 0.929 . S
C540 H534 0.930 . S
C540 C541 1.367 . S
C540 C548 1.378 . S
C541 C540 1.367 . S
C541 C549 1.433 . S
C542 H538 0.929 . S
C542 C544 1.378 . S
C542 C546 1.350 . S
C543 C546 1.463 . S
C543 C548 1.350 . S
C543 N551 1.427 . S
C544 H535 0.930 . S
C544 C542 1.378 . S
C544 C545 1.367 . S
C545 C544 1.367 . S
C545 C547 1.433 1_554 S
C546 C542 1.350 . S
C546 C543 1.463 . S
C546 N550 1.427 . S
C547 H537 0.929 . S
C547 C545 1.433 1_556 S
C547 N550 1.384 1_556 S
C548 H539 0.929 . S
C548 C540 1.378 . S
C548 C543 1.350 . S
C549 H536 0.929 . S
C549 C541 1.433 . S
C549 N551 1.384 . S
N550 C546 1.427 . S
N550 C547 1.384 1_554 S
N551 C543 1.427 . S
N551 C549 1.384 . S
H552 C558 0.930 . S
H553 C562 0.930 . S
H554 C567 0.929 . S
H555 C565 0.929 . S
H556 C560 0.929 . S
H557 C566 0.929 . S
C558 H552 0.930 . S
C558 C559 1.367 . S
C558 C566 1.378 . S
C559 C558 1.367 . S
C559 C567 1.433 . S
C560 H556 0.929 . S
C560 C562 1.378 . S
C560 C564 1.350 . S
C561 C564 1.463 . S
C561 C566 1.350 . S
C561 N569 1.427 . S
C562 H553 0.930 . S
C562 C560 1.378 . S
C562 C563 1.367 . S
C563 C562 1.367 . S
C563 C565 1.433 . S
C564 C560 1.350 . S
C564 C561 1.463 . S
C564 N568 1.427 . S
C565 H555 0.929 . S
C565 C563 1.433 . S
C565 N568 1.384 . S
C566 H557 0.929 . S
C566 C558 1.378 . S
C566 C561 1.350 . S
C567 H554 0.929 . S
C567 C559 1.433 . S
C567 N569 1.384 . S
N568 C564 1.427 . S
N568 C565 1.384 . S
N569 C561 1.427 . S
N569 C567 1.384 . S
H570 C576 0.930 . S
H571 C580 0.930 . S
H572 C585 0.929 . S
H573 C583 0.929 . S
H574 C578 0.929 . S
H575 C584 0.929 . S
C576 H570 0.930 . S
C576 C577 1.367 . S
C576 C584 1.378 . S
C577 C576 1.367 . S
C577 C585 1.433 . S
C578 H574 0.929 . S
C578 C580 1.378 . S
C578 C582 1.350 . S
C579 C582 1.463 . S
C579 C584 1.350 . S
C579 N587 1.427 . S
C580 H571 0.930 . S
C580 C578 1.378 . S
C580 C581 1.367 . S
C581 C580 1.367 . S
C581 C583 1.433 . S
C582 C578 1.350 . S
C582 C579 1.463 . S
C582 N586 1.427 . S
C583 H573 0.929 . S
C583 C581 1.433 . S
C583 N586 1.384 . S
C584 H575 0.929 . S
C584 C576 1.378 . S
C584 C579 1.350 . S
C585 H572 0.929 . S
C585 C577 1.433 . S
C585 N587 1.384 . S
N586 C582 1.427 . S
N586 C583 1.384 . S
N587 C579 1.427 . S
N587 C585 1.384 . S
H588 C594 0.930 . S
H589 C598 0.930 . S
H590 C603 0.929 . S
H591 C601 0.932 . S
H592 C596 0.929 . S
H593 C602 0.929 . S
C594 H588 0.930 . S
C594 C595 1.367 . S
C594 C602 1.378 . S
C595 C594 1.367 . S
C595 C603 1.433 . S
C596 H592 0.929 . S
C596 C598 1.378 . S
C596 C600 1.350 . S
C597 C600 1.463 . S
C597 C602 1.350 . S
C597 N605 1.427 . S
C598 H589 0.930 . S
C598 C596 1.378 . S
C598 C599 1.367 . S
C599 C598 1.367 . S
C599 C601 1.432 1_556 S
C600 C596 1.350 . S
C600 C597 1.463 . S
C600 N604 1.427 . S
C601 H591 0.932 . S
C601 C599 1.432 1_554 S
C601 N604 1.382 1_554 S
C602 H593 0.929 . S
C602 C594 1.378 . S
C602 C597 1.350 . S
C603 H590 0.929 . S
C603 C595 1.433 . S
C603 N605 1.384 . S
N604 C600 1.427 . S
N604 C601 1.382 1_556 S
N605 C597 1.427 . S
N605 C603 1.384 . S
H606 C612 0.930 . S
H607 C616 0.930 . S
H608 C621 0.929 . S
H609 C619 0.929 . S
H610 C614 0.929 . S
H611 C620 0.929 . S
C612 H606 0.930 . S
C612 C613 1.367 . S
C612 C620 1.378 . S
C613 C612 1.367 . S
C613 C621 1.433 . S
C614 H610 0.929 . S
C614 C616 1.378 . S
C614 C618 1.350 . S
C615 C618 1.463 . S
C615 C620 1.350 . S
C615 N623 1.427 . S
C616 H607 0.930 . S
C616 C614 1.378 . S
C616 C617 1.367 . S
C617 C616 1.367 . S
C617 C619 1.433 . S
C618 C614 1.350 . S
C618 C615 1.463 . S
C618 N622 1.427 . S
C619 H609 0.929 . S
C619 C617 1.433 . S
C619 N622 1.384 . S
C620 H611 0.929 . S
C620 C612 1.378 . S
C620 C615 1.350 . S
C621 H608 0.929 . S
C621 C613 1.433 . S
C621 N623 1.384 . S
N622 C618 1.427 . S
N622 C619 1.384 . S
N623 C615 1.427 . S
N623 C621 1.384 . S
H624 C630 0.930 . S
H625 C634 0.930 . S
H626 C639 0.929 . S
H627 C637 0.929 . S
H628 C632 0.929 . S
H629 C638 0.929 . S
C630 H624 0.930 . S
C630 C631 1.367 . S
C630 C638 1.378 . S
C631 C630 1.367 . S
C631 C639 1.433 . S
C632 H628 0.929 . S
C632 C634 1.378 . S
C632 C636 1.350 . S
C633 C636 1.463 . S
C633 C638 1.350 . S
C633 N641 1.427 . S
C634 H625 0.930 . S
C634 C632 1.378 . S
C634 C635 1.367 . S
C635 C634 1.367 . S
C635 C637 1.433 . S
C636 C632 1.350 . S
C636 C633 1.463 . S
C636 N640 1.427 . S
C637 H627 0.929 . S
C637 C635 1.433 . S
C637 N640 1.384 . S
C638 H629 0.929 . S
C638 C630 1.378 . S
C638 C633 1.350 . S
C639 H626 0.929 . S
C639 C631 1.433 . S
C639 N641 1.384 . S
N640 C636 1.427 . S
N640 C637 1.384 . S
N641 C633 1.427 . S
N641 C639 1.384 . S
H642 C648 0.930 . S
H643 C652 0.930 . S
H644 C657 0.929 . S
H645 C655 0.929 . S
H646 C650 0.929 . S
H647 C656 0.929 . S
C648 H642 0.930 . S
C648 C649 1.367 . S
C648 C656 1.378 . S
C649 C648 1.367 . S
C649 C657 1.433 . S
C650 H646 0.929 . S
C650 C652 1.378 . S
C650 C654 1.350 . S
C651 C654 1.463 . S
C651 C656 1.350 . S
C651 N659 1.427 . S
C652 H643 0.930 . S
C652 C650 1.378 . S
C652 C653 1.367 . S
C653 C652 1.367 . S
C653 C655 1.433 . S
C654 C650 1.350 . S
C654 C651 1.463 . S
C654 N658 1.427 . S
C655 H645 0.929 . S
C655 C653 1.433 . S
C655 N658 1.384 . S
C656 H647 0.929 . S
C656 C648 1.378 . S
C656 C651 1.350 . S
C657 H644 0.929 . S
C657 C649 1.433 . S
C657 N659 1.384 . S
N658 C654 1.427 . S
N658 C655 1.384 . S
N659 C651 1.427 . S
N659 C657 1.384 . S
H660 C666 0.930 . S
H661 C670 0.930 . S
H662 C675 0.929 . S
H663 C673 0.929 . S
H664 C668 0.929 . S
H665 C674 0.929 . S
C666 H660 0.930 . S
C666 C667 1.367 . S
C666 C674 1.378 . S
C667 C666 1.367 . S
C667 C675 1.433 . S
C668 H664 0.929 . S
C668 C670 1.378 . S
C668 C672 1.350 . S
C669 C672 1.463 . S
C669 C674 1.350 . S
C669 N677 1.427 . S
C670 H661 0.930 . S
C670 C668 1.378 . S
C670 C671 1.367 . S
C671 C670 1.367 . S
C671 C673 1.433 . S
C672 C668 1.350 . S
C672 C669 1.463 . S
C672 N676 1.427 . S
C673 H663 0.929 . S
C673 C671 1.433 . S
C673 N676 1.384 . S
C674 H665 0.929 . S
C674 C666 1.378 . S
C674 C669 1.350 . S
C675 H662 0.929 . S
C675 C667 1.433 . S
C675 N677 1.384 . S
N676 C672 1.427 . S
N676 C673 1.384 . S
N677 C669 1.427 . S
N677 C675 1.384 . S
H678 C684 0.930 . S
H679 C688 0.930 . S
H680 C693 0.929 . S
H681 C691 0.929 . S
H682 C686 0.929 . S
H683 C692 0.929 . S
C684 H678 0.930 . S
C684 C685 1.367 . S
C684 C692 1.378 . S
C685 C684 1.367 . S
C685 C693 1.433 . S
C686 H682 0.929 . S
C686 C688 1.378 . S
C686 C690 1.350 . S
C687 C690 1.463 . S
C687 C692 1.350 . S
C687 N695 1.427 . S
C688 H679 0.930 . S
C688 C686 1.378 . S
C688 C689 1.367 . S
C689 C688 1.367 . S
C689 C691 1.433 . S
C690 C686 1.350 . S
C690 C687 1.463 . S
C690 N694 1.427 . S
C691 H681 0.929 . S
C691 C689 1.433 . S
C691 N694 1.384 . S
C692 H683 0.929 . S
C692 C684 1.378 . S
C692 C687 1.350 . S
C693 H680 0.929 . S
C693 C685 1.433 . S
C693 N695 1.384 . S
N694 C690 1.427 . S
N694 C691 1.384 . S
N695 C687 1.427 . S
N695 C693 1.384 . S
H696 C702 0.930 . S
H697 C706 0.930 . S
H698 C711 0.929 . S
H699 C709 0.929 . S
H700 C704 0.929 . S
H701 C710 0.929 . S
C702 H696 0.930 . S
C702 C703 1.367 . S
C702 C710 1.378 . S
C703 C702 1.367 . S
C703 C711 1.433 . S
C704 H700 0.929 . S
C704 C706 1.378 . S
C704 C708 1.350 . S
C705 C708 1.463 . S
C705 C710 1.350 . S
C705 N713 1.427 . S
C706 H697 0.930 . S
C706 C704 1.378 . S
C706 C707 1.367 . S
C707 C706 1.367 . S
C707 C709 1.433 . S
C708 C704 1.350 . S
C708 C705 1.463 . S
C708 N712 1.427 . S
C709 H699 0.929 . S
C709 C707 1.433 . S
C709 N712 1.384 . S
C710 H701 0.929 . S
C710 C702 1.378 . S
C710 C705 1.350 . S
C711 H698 0.929 . S
C711 C703 1.433 . S
C711 N713 1.384 . S
N712 C708 1.427 . S
N712 C709 1.384 . S
N713 C705 1.427 . S
N713 C711 1.384 . S
H714 C720 0.930 . S
H715 C724 0.930 . S
H716 C729 0.929 . S
H717 C727 0.929 . S
H718 C722 0.929 . S
H719 C728 0.929 . S
C720 H714 0.930 . S
C720 C721 1.367 . S
C720 C728 1.378 . S
C721 C720 1.367 . S
C721 C729 1.433 . S
C722 H718 0.929 . S
C722 C724 1.378 . S
C722 C726 1.350 . S
C723 C726 1.463 . S
C723 C728 1.350 . S
C723 N731 1.427 . S
C724 H715 0.930 . S
C724 C722 1.378 . S
C724 C725 1.367 . S
C725 C724 1.367 . S
C725 C727 1.433 . S
C726 C722 1.350 . S
C726 C723 1.463 . S
C726 N730 1.427 . S
C727 H717 0.929 . S
C727 C725 1.433 . S
C727 N730 1.384 . S
C728 H719 0.929 . S
C728 C720 1.378 . S
C728 C723 1.350 . S
C729 H716 0.929 . S
C729 C721 1.433 . S
C729 N731 1.384 . S
N730 C726 1.427 . S
N730 C727 1.384 . S
N731 C723 1.427 . S
N731 C729 1.384 . S
H732 C738 0.930 . S
H733 C742 0.930 . S
H734 C747 0.929 . S
H735 C745 0.929 . S
H736 C740 0.929 . S
H737 C746 0.929 . S
C738 H732 0.930 . S
C738 C739 1.367 . S
C738 C746 1.378 . S
C739 C738 1.367 . S
C739 C747 1.433 . S
C740 H736 0.929 . S
C740 C742 1.378 . S
C740 C744 1.350 . S
C741 C744 1.463 . S
C741 C746 1.350 . S
C741 N749 1.427 . S
C742 H733 0.930 . S
C742 C740 1.378 . S
C742 C743 1.367 . S
C743 C742 1.367 . S
C743 C745 1.433 . S
C744 C740 1.350 . S
C744 C741 1.463 . S
C744 N748 1.427 . S
C745 H735 0.929 . S
C745 C743 1.433 . S
C745 N748 1.384 . S
C746 H737 0.929 . S
C746 C738 1.378 . S
C746 C741 1.350 . S
C747 H734 0.929 . S
C747 C739 1.433 . S
C747 N749 1.384 . S
N748 C744 1.427 . S
N748 C745 1.384 . S
N749 C741 1.427 . S
N749 C747 1.384 . S
H750 C756 0.930 . S
H751 C760 0.930 . S
H752 C765 0.929 . S
H753 C763 0.929 . S
H754 C758 0.929 . S
H755 C764 0.929 . S
C756 H750 0.930 . S
C756 C757 1.367 1_655 S
C756 C764 1.378 . S
C757 C756 1.367 1_455 S
C757 C765 1.433 . S
C758 H754 0.929 . S
C758 C760 1.378 . S
C758 C762 1.350 1_455 S
C759 C762 1.463 1_455 S
C759 C764 1.350 1_455 S
C759 N767 1.427 . S
C760 H751 0.930 . S
C760 C758 1.378 . S
C760 C761 1.367 1_455 S
C761 C760 1.367 1_655 S
C761 C763 1.433 . S
C762 C758 1.350 1_655 S
C762 C759 1.463 1_655 S
C762 N766 1.427 . S
C763 H753 0.929 . S
C763 C761 1.433 . S
C763 N766 1.384 . S
C764 H755 0.929 . S
C764 C756 1.378 . S
C764 C759 1.350 1_655 S
C765 H752 0.929 . S
C765 C757 1.433 . S
C765 N767 1.384 . S
N766 C762 1.427 . S
N766 C763 1.384 . S
N767 C759 1.427 . S
N767 C765 1.384 . S
H768 C774 0.930 . S
H769 C778 0.930 . S
H770 C783 0.929 . S
H771 C781 0.929 . S
H772 C776 0.929 . S
H773 C782 0.929 . S
C774 H768 0.930 . S
C774 C775 1.367 . S
C774 C782 1.378 . S
C775 C774 1.367 . S
C775 C783 1.433 . S
C776 H772 0.929 . S
C776 C778 1.378 . S
C776 C780 1.350 . S
C777 C780 1.463 . S
C777 C782 1.350 . S
C777 N785 1.427 . S
C778 H769 0.930 . S
C778 C776 1.378 . S
C778 C779 1.367 . S
C779 C778 1.367 . S
C779 C781 1.433 . S
C780 C776 1.350 . S
C780 C777 1.463 . S
C780 N784 1.427 . S
C781 H771 0.929 . S
C781 C779 1.433 . S
C781 N784 1.384 . S
C782 H773 0.929 . S
C782 C774 1.378 . S
C782 C777 1.350 . S
C783 H770 0.929 . S
C783 C775 1.433 . S
C783 N785 1.384 . S
N784 C780 1.427 . S
N784 C781 1.384 . S
N785 C777 1.427 . S
N785 C783 1.384 . S
H786 C792 0.930 . S
H787 C796 0.930 . S
H788 C801 0.929 . S
H789 C799 0.929 . S
H790 C794 0.929 . S
H791 C800 0.929 . S
C792 H786 0.930 . S
C792 C793 1.367 . S
C792 C800 1.378 . S
C793 C792 1.367 . S
C793 C801 1.433 1_545 S
C794 H790 0.929 . S
C794 C796 1.378 . S
C794 C798 1.350 . S
C795 C798 1.463 1_545 S
C795 C800 1.350 . S
C795 N803 1.427 1_545 S
C796 H787 0.930 . S
C796 C794 1.378 . S
C796 C797 1.367 . S
C797 C796 1.367 . S
C797 C799 1.433 1_565 S
C798 C794 1.350 . S
C798 C795 1.463 1_565 S
C798 N802 1.427 1_565 S
C799 H789 0.929 . S
C799 C797 1.433 1_545 S
C799 N802 1.384 . S
C800 H791 0.929 . S
C800 C792 1.378 . S
C800 C795 1.350 . S
C801 H788 0.929 . S
C801 C793 1.433 1_565 S
C801 N803 1.384 . S
N802 C798 1.427 1_545 S
N802 C799 1.384 . S
N803 C795 1.427 1_565 S
N803 C801 1.384 . S
H804 C810 0.930 . S
H805 C814 0.930 . S
H806 C819 0.929 . S
H807 C817 0.929 . S
H808 C812 0.929 . S
H809 C818 0.929 . S
C810 H804 0.930 . S
C810 C811 1.367 . S
C810 C818 1.378 . S
C811 C810 1.367 . S
C811 C819 1.433 . S
C812 H808 0.929 . S
C812 C814 1.378 . S
C812 C816 1.350 . S
C813 C816 1.463 . S
C813 C818 1.350 . S
C813 N821 1.427 . S
C814 H805 0.930 . S
C814 C812 1.378 . S
C814 C815 1.367 . S
C815 C814 1.367 . S
C815 C817 1.433 . S
C816 C812 1.350 . S
C816 C813 1.463 . S
C816 N820 1.427 . S
C817 H807 0.929 . S
C817 C815 1.433 . S
C817 N820 1.384 . S
C818 H809 0.929 . S
C818 C810 1.378 . S
C818 C813 1.350 . S
C819 H806 0.929 . S
C819 C811 1.433 . S
C819 N821 1.384 . S
N820 C816 1.427 . S
N820 C817 1.384 . S
N821 C813 1.427 . S
N821 C819 1.384 . S
H822 C828 0.930 . S
H823 C832 0.930 . S
H824 C837 0.929 . S
H825 C835 0.929 . S
H826 C830 0.929 . S
H827 C836 0.929 . S
C828 H822 0.930 . S
C828 C829 1.367 . S
C828 C836 1.378 . S
C829 C828 1.367 . S
C829 C837 1.433 . S
C830 H826 0.929 . S
C830 C832 1.378 . S
C830 C834 1.350 . S
C831 C834 1.463 . S
C831 C836 1.350 . S
C831 N839 1.427 . S
C832 H823 0.930 . S
C832 C830 1.378 . S
C832 C833 1.367 . S
C833 C832 1.367 . S
C833 C835 1.433 . S
C834 C830 1.350 . S
C834 C831 1.463 . S
C834 N838 1.427 . S
C835 H825 0.929 . S
C835 C833 1.433 . S
C835 N838 1.384 . S
C836 H827 0.929 . S
C836 C828 1.378 . S
C836 C831 1.350 . S
C837 H824 0.929 . S
C837 C829 1.433 . S
C837 N839 1.384 . S
N838 C834 1.427 . S
N838 C835 1.384 . S
N839 C831 1.427 . S
N839 C837 1.384 . S
H840 C846 0.930 . S
H841 C850 0.930 . S
H842 C855 0.929 . S
H843 C853 0.929 . S
H844 C848 0.929 . S
H845 C854 0.929 . S
C846 H840 0.930 . S
C846 C847 1.367 . S
C846 C854 1.378 . S
C847 C846 1.367 . S
C847 C855 1.433 . S
C848 H844 0.929 . S
C848 C850 1.378 . S
C848 C852 1.350 . S
C849 C852 1.463 . S
C849 C854 1.350 . S
C849 N857 1.427 . S
C850 H841 0.930 . S
C850 C848 1.378 . S
C850 C851 1.367 . S
C851 C850 1.367 . S
C851 C853 1.433 . S
C852 C848 1.350 . S
C852 C849 1.463 . S
C852 N856 1.427 . S
C853 H843 0.929 . S
C853 C851 1.433 . S
C853 N856 1.384 . S
C854 H845 0.929 . S
C854 C846 1.378 . S
C854 C849 1.350 . S
C855 H842 0.929 . S
C855 C847 1.433 . S
C855 N857 1.384 . S
N856 C852 1.427 . S
N856 C853 1.384 . S
N857 C849 1.427 . S
N857 C855 1.384 . S
H858 C864 0.930 . S
H859 C868 0.930 . S
H860 C873 0.929 . S
H861 C871 0.929 . S
H862 C866 0.929 . S
H863 C872 0.929 . S
C864 H858 0.930 . S
C864 C865 1.367 . S
C864 C872 1.378 . S
C865 C864 1.367 . S
C865 C873 1.433 . S
C866 H862 0.929 . S
C866 C868 1.378 . S
C866 C870 1.350 . S
C867 C870 1.463 . S
C867 C872 1.350 . S
C867 N875 1.427 . S
C868 H859 0.930 . S
C868 C866 1.378 . S
C868 C869 1.367 . S
C869 C868 1.367 . S
C869 C871 1.433 . S
C870 C866 1.350 . S
C870 C867 1.463 . S
C870 N874 1.427 . S
C871 H861 0.929 . S
C871 C869 1.433 . S
C871 N874 1.384 . S
C872 H863 0.929 . S
C872 C864 1.378 . S
C872 C867 1.350 . S
C873 H860 0.929 . S
C873 C865 1.433 . S
C873 N875 1.384 . S
N874 C870 1.427 . S
N874 C871 1.384 . S
N875 C867 1.427 . S
N875 C873 1.384 . S
H876 C882 0.930 . S
H877 C886 0.930 . S
H878 C891 0.929 . S
H879 C889 0.929 . S
H880 C884 0.929 . S
H881 C890 0.929 . S
C882 H876 0.930 . S
C882 C883 1.367 . S
C882 C890 1.378 . S
C883 C882 1.367 . S
C883 C891 1.433 . S
C884 H880 0.929 . S
C884 C886 1.378 . S
C884 C888 1.350 . S
C885 C888 1.463 . S
C885 C890 1.350 . S
C885 N893 1.427 . S
C886 H877 0.930 . S
C886 C884 1.378 . S
C886 C887 1.367 . S
C887 C886 1.367 . S
C887 C889 1.433 . S
C888 C884 1.350 . S
C888 C885 1.463 . S
C888 N892 1.427 . S
C889 H879 0.929 . S
C889 C887 1.433 . S
C889 N892 1.384 . S
C890 H881 0.929 . S
C890 C882 1.378 . S
C890 C885 1.350 . S
C891 H878 0.929 . S
C891 C883 1.433 . S
C891 N893 1.384 . S
N892 C888 1.427 . S
N892 C889 1.384 . S
N893 C885 1.427 . S
N893 C891 1.384 . S
H894 C900 0.930 . S
H895 C904 0.930 . S
H896 C909 0.929 . S
H897 C907 0.929 . S
H898 C902 0.929 . S
H899 C908 0.929 . S
C900 H894 0.930 . S
C900 C901 1.367 . S
C900 C908 1.378 . S
C901 C900 1.367 . S
C901 C909 1.433 . S
C902 H898 0.929 . S
C902 C904 1.378 . S
C902 C906 1.350 . S
C903 C906 1.463 . S
C903 C908 1.350 . S
C903 N911 1.427 . S
C904 H895 0.930 . S
C904 C902 1.378 . S
C904 C905 1.367 . S
C905 C904 1.367 . S
C905 C907 1.433 . S
C906 C902 1.350 . S
C906 C903 1.463 . S
C906 N910 1.427 . S
C907 H897 0.929 . S
C907 C905 1.433 . S
C907 N910 1.384 . S
C908 H899 0.929 . S
C908 C900 1.378 . S
C908 C903 1.350 . S
C909 H896 0.929 . S
C909 C901 1.433 . S
C909 N911 1.384 . S
N910 C906 1.427 . S
N910 C907 1.384 . S
N911 C903 1.427 . S
N911 C909 1.384 . S
C541 C1 1.866 . S
C545 C328 1.630 . S
C559 C90 1.863 . S
C563 C417 1.634 . S
C577 C179 1.862 . S
C581 C506 1.644 . S
C595 C268 1.866 . S
C599 C61 1.633 . S
C613 C357 1.857 . S
C617 C150 1.650 . S
C631 C446 1.857 . S
C635 C239 1.650 . S
C649 C463 3.024 . S
C653 C73 2.998 . S
C667 C162 2.994 . S
C671 C285 3.021 1_565 S
C685 C374 3.025 1_455 S
C689 C251 2.997 . S
C703 C107 3.021 . S
C707 C340 2.995 . S
C721 C429 2.989 . S
C725 C196 3.024 1_545 S
C739 C18 3.023 1_655 S
C743 C518 2.998 . S
C757 C419 1.684 . S
C761 C63 1.685 . S
C775 C508 1.688 . S
C779 C152 1.689 . S
C793 C241 1.688 . S
C797 C330 1.689 . S
C811 C26 0.714 . S
C815 C159 0.721 . S
C829 C248 0.736 . S
C833 C115 0.695 . S
C847 C70 0.732 . S
C851 C204 0.728 . S
C865 C515 0.767 . S
C869 C293 0.717 . S
C883 C337 0.728 . S
C887 C382 0.724 . S
C901 C471 0.727 . S
C905 C426 0.731 . S
