# Generated by pormake.
# Topology vmc, (5)-cn, num edge types: 1
# Building blocks:
#     Node 0, Type 0, BuildingBlock: BEQFEK_clean_sbu_0, # of connection points: 5
#     Node 1, Type 0, BuildingBlock: BEQFEK_clean_sbu_0, # of connection points: 5
#     Node 2, Type 0, BuildingBlock: BEQFEK_clean_sbu_0, # of connection points: 5
#     Node 3, Type 0, BuildingBlock: BEQFEK_clean_sbu_0, # of connection points: 5
#     Node 4, Type 0, BuildingBlock: BEQFEK_clean_sbu_0, # of connection points: 5
#     Node 5, Type 0, BuildingBlock: BEQFEK_clean_sbu_0, # of connection points: 5
#     Node 6, Type 0, BuildingBlock: BEQFEK_clean_sbu_0, # of connection points: 5
#     Node 7, Type 0, BuildingBlock: BEQFEK_clean_sbu_0, # of connection points: 5
#     Edge 8, Type (0, 0), BuildingBlock: EZIPEK_clean_linker_0, # of connection points: 2
#     Edge 9, Type (0, 0), BuildingBlock: EZIPEK_clean_linker_0, # of connection points: 2
#     Edge 10, Type (0, 0), BuildingBlock: EZIPEK_clean_linker_0, # of connection points: 2
#     Edge 11, Type (0, 0), BuildingBlock: EZIPEK_clean_linker_0, # of connection points: 2
#     Edge 12, Type (0, 0), BuildingBlock: EZIPEK_clean_linker_0, # of connection points: 2
#     Edge 13, Type (0, 0), BuildingBlock: EZIPEK_clean_linker_0, # of connection points: 2
#     Edge 14, Type (0, 0), BuildingBlock: EZIPEK_clean_linker_0, # of connection points: 2
#     Edge 15, Type (0, 0), BuildingBlock: EZIPEK_clean_linker_0, # of connection points: 2
#     Edge 16, Type (0, 0), BuildingBlock: EZIPEK_clean_linker_0, # of connection points: 2
#     Edge 17, Type (0, 0), BuildingBlock: EZIPEK_clean_linker_0, # of connection points: 2
#     Edge 18, Type (0, 0), BuildingBlock: EZIPEK_clean_linker_0, # of connection points: 2
#     Edge 19, Type (0, 0), BuildingBlock: EZIPEK_clean_linker_0, # of connection points: 2
#     Edge 20, Type (0, 0), BuildingBlock: EZIPEK_clean_linker_0, # of connection points: 2
#     Edge 21, Type (0, 0), BuildingBlock: EZIPEK_clean_linker_0, # of connection points: 2
#     Edge 22, Type (0, 0), BuildingBlock: EZIPEK_clean_linker_0, # of connection points: 2
#     Edge 23, Type (0, 0), BuildingBlock: EZIPEK_clean_linker_0, # of connection points: 2
#     Edge 24, Type (0, 0), BuildingBlock: EZIPEK_clean_linker_0, # of connection points: 2
#     Edge 25, Type (0, 0), BuildingBlock: EZIPEK_clean_linker_0, # of connection points: 2
#     Edge 26, Type (0, 0), BuildingBlock: EZIPEK_clean_linker_0, # of connection points: 2
#     Edge 27, Type (0, 0), BuildingBlock: EZIPEK_clean_linker_0, # of connection points: 2
# Relax obj value: 0.531
# Max RMSD: 0.278
# Mean RMSD: 0.278
data_MOF--net-vmc--node1-BEQFEK_clean_sbu_0--edge1-EZIPEK_clean_linker_0
_symmetry_space_group_name_H-M    P1
_symmetry_Int_Tables_number       1
_symmetry_cell_setting            triclinic
loop_
_symmetry_equiv_pos_as_xyz
'x, y, z'
_cell_length_a     38.727526
_cell_length_b     36.983031
_cell_length_c     20.417709
_cell_angle_alpha  89.894123
_cell_angle_beta   106.95577
_cell_angle_gamma 89.74396
loop_
_atom_site_label
_atom_site_type_symbol
_atom_site_fract_x
_atom_site_fract_y
_atom_site_fract_z
_atom_type_partial_charge
Co0 Co 0.42306 0.47159 0.13482 0.0
Co1 Co 0.36197 0.41772 0.13571 0.0
C2 C 0.43956 0.39775 0.19753 0.0
O3 O 0.44743 0.42977 0.18617 0.0
O4 O 0.40696 0.38686 0.1779 0.0
C5 C 0.48348 0.47867 0.09321 0.0
O6 O 0.47728 0.44375 0.08947 0.0
C7 C 0.31719 0.3544 0.08591 0.0
C8 C 0.2697 0.36304 0.12306 0.0
C9 C 0.28473 0.3392 0.08663 0.0
N10 N 0.32139 0.38586 0.12021 0.0
N11 N 0.29284 0.39091 0.14227 0.0
C12 C 0.34391 0.33904 0.05336 0.0
H13 H 0.36427 0.3596 0.05077 0.0
H14 H 0.32975 0.32913 1.00118 0.0
H15 H 0.35778 0.31558 0.08408 0.0
C16 C 0.38354 0.47694 0.98969 0.0
N17 N 0.38937 0.46029 0.05061 0.0
N18 N 0.3615 0.43995 0.04981 0.0
C19 C 0.33644 0.44398 0.98796 0.0
C20 C 0.34985 0.46757 0.94792 0.0
C21 C 0.40887 0.50342 0.97285 0.0
H22 H 0.41626 0.52458 0.01281 0.0
H23 H 0.43335 0.48861 0.97064 0.0
H24 H 0.39759 0.51655 0.92234 0.0
O25 O 0.39808 0.49896 0.18978 0.0
O26 O 0.35859 0.45766 0.20208 0.0
H27 H 0.28127 0.44185 0.92338 0.0
H28 H 0.30038 0.39943 0.96112 0.0
C29 C 0.29912 0.42889 0.97023 0.0
H30 H 0.28771 0.43282 0.01364 0.0
H31 H 0.28918 0.41332 0.17058 0.0
O32 O 0.46242 0.49843 0.11541 0.0
C33 C 0.37357 0.48871 0.21589 0.0
Co34 Co 0.5949 0.46938 0.39075 0.0
Co35 Co 0.65449 0.41195 0.38919 0.0
C36 C 0.5766 0.39334 0.33858 0.0
O37 O 0.57022 0.42579 0.35003 0.0
O38 O 0.60893 0.38158 0.35325 0.0
C39 C 0.55453 0.46424 0.47688 0.0
O40 O 0.57183 0.43334 0.48093 0.0
C41 C 0.69919 0.34742 0.43408 0.0
C42 C 0.74657 0.3568 0.39717 0.0
C43 C 0.73163 0.33223 0.43232 0.0
N44 N 0.69494 0.37956 0.40164 0.0
N45 N 0.72342 0.38503 0.37964 0.0
C46 C 0.67243 0.33133 0.46556 0.0
H47 H 0.65356 0.35239 0.47357 0.0
H48 H 0.68661 0.31808 0.51499 0.0
H49 H 0.65675 0.31033 0.43077 0.0
C50 C 0.64617 0.48557 0.52044 0.0
N51 N 0.63587 0.46374 0.46597 0.0
N52 N 0.65851 0.43655 0.47308 0.0
C53 C 0.68338 0.43943 0.53532 0.0
C54 C 0.67555 0.47026 0.56811 0.0
C55 C 0.62957 0.52198 0.52443 0.0
H56 H 0.60876 0.52888 0.47603 0.0
H57 H 0.61797 0.52288 0.56803 0.0
H58 H 0.65055 0.54315 0.53331 0.0
O59 O 0.61136 0.49279 0.31757 0.0
O60 O 0.65537 0.45263 0.32129 0.0
H61 H 0.73131 0.41556 0.5223 0.0
H62 H 0.73348 0.42472 0.61055 0.0
C63 C 0.71582 0.41553 0.56022 0.0
H64 H 0.70702 0.38742 0.56504 0.0
H65 H 0.72705 0.40799 0.35265 0.0
O66 O 0.55803 0.48827 0.43396 0.0
C67 C 0.63789 0.48171 0.29688 0.0
Co68 Co 0.60121 0.54566 0.85335 0.0
Co69 Co 0.65473 0.61006 0.88265 0.0
C70 C 0.57815 0.62126 0.80178 0.0
O71 O 0.57486 0.58741 0.80465 0.0
O72 O 0.6079 0.63665 0.83251 0.0
C73 C 0.54175 0.53315 0.88947 0.0
O74 O 0.55009 0.5673 0.90258 0.0
C75 C 0.69265 0.6787 0.93322 0.0
C76 C 0.74904 0.6642 0.94036 0.0
C77 C 0.72751 0.69225 0.95077 0.0
N78 N 0.69345 0.64416 0.91294 0.0
N79 N 0.72729 0.63575 0.91736 0.0
C80 C 0.65928 0.69812 0.93648 0.0
H81 H 0.63962 0.67867 0.94637 0.0
H82 H 0.66591 0.7192 0.97681 0.0
H83 H 0.64669 0.71149 0.88645 0.0
C84 C 0.63178 0.53543 1.00181 0.0
N85 N 0.62919 0.5547 0.9446 0.0
N86 N 0.64943 0.58365 0.96015 0.0
C87 C 0.66439 0.5844 0.02907 0.0
C88 C 0.65308 0.55394 0.05778 0.0
C89 C 0.61566 0.49877 1.00317 0.0
H90 H 0.60616 0.48694 0.95148 0.0
H91 H 0.59355 0.50099 0.02724 0.0
H92 H 0.63577 0.4796 0.03446 0.0
O93 O 0.63223 0.52734 0.80141 0.0
O94 O 0.67031 0.57368 0.82039 0.0
H95 H 0.69854 0.60789 0.12227 0.0
H96 H 0.67804 0.63963 0.05394 0.0
C97 C 0.69048 0.61243 0.06607 0.0
H98 H 0.71483 0.61162 0.04794 0.0
H99 H 0.73559 0.61045 0.90493 0.0
O100 O 0.5613 0.51482 0.86114 0.0
C101 C 0.65989 0.54295 0.79278 0.0
Co102 Co 0.40275 0.54206 0.63731 0.0
Co103 Co 0.35349 0.61129 0.62375 0.0
C104 C 0.43371 0.61712 0.67915 0.0
O105 O 0.43556 0.5833 0.67 0.0
O106 O 0.40327 0.63354 0.66464 0.0
C107 C 0.46736 0.50151 0.64719 0.0
O108 O 0.48187 0.52768 0.68955 0.0
C109 C 0.31697 0.68277 0.58055 0.0
C110 C 0.26108 0.66964 0.57852 0.0
C111 C 0.2824 0.69728 0.56655 0.0
N112 N 0.31617 0.64801 0.60019 0.0
N113 N 0.28261 0.64052 0.59892 0.0
C114 C 0.34988 0.70154 0.57396 0.0
H115 H 0.37015 0.68161 0.56764 0.0
H116 H 0.34261 0.7206 0.52992 0.0
H117 H 0.36189 0.7174 0.62114 0.0
C118 C 0.36437 0.53649 0.49246 0.0
N119 N 0.3693 0.55319 0.55264 0.0
N120 N 0.35229 0.58447 0.54266 0.0
C121 C 0.33784 0.58937 0.47427 0.0
C122 C 0.34534 0.55895 0.44035 0.0
C123 C 0.38082 0.50097 0.48368 0.0
H124 H 0.37958 0.48239 0.52556 0.0
H125 H 0.40927 0.50554 0.48495 0.0
H126 H 0.3665 0.48844 0.43385 0.0
O127 O 0.37725 0.52952 0.70329 0.0
O128 O 0.34031 0.57686 0.69193 0.0
H129 H 0.29523 0.62796 0.45851 0.0
H130 H 0.31197 0.62177 0.3852 0.0
C131 C 0.31972 0.62336 0.44192 0.0
H132 H 0.33808 0.64656 0.45969 0.0
H133 H 0.27426 0.61527 0.61123 0.0
O134 O 0.43327 0.5014 0.62216 0.0
C135 C 0.35194 0.54615 0.71893 0.0
Co136 Co 0.91841 0.97294 0.12507 0.0
Co137 Co 0.85809 0.91421 0.10949 0.0
C138 C 0.93684 0.89803 0.17829 0.0
O139 O 0.94408 0.93042 0.16796 0.0
O140 O 0.90448 0.88622 0.15836 0.0
C141 C 0.98794 0.9979 0.12416 0.0
O142 O 0.99964 0.96958 0.16313 0.0
C143 C 0.81671 0.84805 0.0575 0.0
C144 C 0.76519 0.85855 0.08015 0.0
C145 C 0.78328 0.83314 0.05264 0.0
N146 N 0.81845 0.88087 0.08663 0.0
N147 N 0.78747 0.88697 0.09985 0.0
C148 C 0.84668 0.83107 0.03583 0.0
H149 H 0.86692 0.85167 0.03272 0.0
H150 H 0.83571 0.81757 0.98556 0.0
H151 H 0.86001 0.81011 0.07388 0.0
C152 C 0.88658 0.97724 0.97667 0.0
N153 N 0.888 0.96184 0.03699 0.0
N154 N 0.86143 0.93861 0.02831 0.0
C155 C 0.84132 0.93985 0.96163 0.0
C156 C 0.85696 0.96442 0.92688 0.0
C157 C 0.91359 1.00364 0.96634 0.0
H158 H 0.9135 0.02814 0.99752 0.0
H159 H 0.94045 0.99053 0.98319 0.0
H160 H 0.9085 1.01165 0.91201 0.0
O161 O 0.89091 0.99268 0.18416 0.0
O162 O 0.84774 0.95165 0.17328 0.0
H163 H 0.78948 0.92291 0.96726 0.0
H164 H 0.7922 0.92969 0.88073 0.0
C165 C 0.80681 0.91982 0.93288 0.0
H166 H 0.81292 0.89063 0.93024 0.0
H167 H 0.78162 0.91047 0.12285 0.0
O168 O 0.95506 1.00725 0.11311 0.0
C169 C 0.86325 0.98093 0.19915 0.0
Co170 Co 0.09109 0.9827 0.36772 0.0
Co171 Co 0.14993 0.92028 0.39748 0.0
C172 C 0.07217 0.90469 0.32876 0.0
O173 O 0.06526 0.93792 0.33385 0.0
O174 O 0.10436 0.89242 0.35048 0.0
C175 C 0.02795 0.03537 0.37297 0.0
O176 O 1.00541 0.05828 0.33274 0.0
C177 C 0.19025 0.8528 0.45374 0.0
C178 C 0.24504 0.86613 0.44907 0.0
C179 C 0.22504 0.83899 0.46707 0.0
N180 N 0.18965 0.88666 0.4289 0.0
N181 N 0.22258 0.89437 0.42644 0.0
C182 C 0.15809 0.83391 0.46348 0.0
H183 H 0.13814 0.8539 0.47107 0.0
H184 H 0.16634 0.81508 0.50778 0.0
H185 H 0.14517 0.8179 0.41693 0.0
C186 C 0.12739 0.99731 0.51497 0.0
N187 N 0.1217 0.97671 0.45863 0.0
N188 N 0.14422 0.94891 0.47251 0.0
C189 C 0.16349 0.95026 0.53936 0.0
C190 C 0.15304 0.9808 0.56841 0.0
C191 C 0.11251 0.03445 0.51593 0.0
H192 H 0.09784 0.04332 0.46346 0.0
H193 H 0.09517 0.03475 0.55055 0.0
H194 H 0.13455 0.05396 0.53677 0.0
O195 O 0.1212 0.99649 0.30965 0.0
O196 O 0.16405 0.95428 0.33158 0.0
H197 H 0.20413 0.93032 0.62909 0.0
H198 H 0.18259 0.89642 0.56681 0.0
C199 C 0.19307 0.92443 0.57362 0.0
H200 H 0.21511 0.92646 0.54925 0.0
H201 H 0.22971 0.91892 0.40883 0.0
O202 O 0.05116 0.01953 0.34965 0.0
C203 C 0.14989 0.98325 0.30091 0.0
Co204 Co 0.09724 0.0592 0.8847 0.0
Co205 Co 0.15594 0.11944 0.90023 0.0
C206 C 0.07649 0.13435 0.83558 0.0
O207 O 0.0701 0.10153 0.84444 0.0
O208 O 0.10863 0.14673 0.85492 0.0
C209 C 0.02892 0.03138 0.88574 0.0
O210 O 0.01607 0.0589 0.84532 0.0
C211 C 0.19469 0.18626 0.95565 0.0
C212 C 0.2477 0.17798 0.93774 0.0
C213 C 0.22806 0.20218 0.9645 0.0
N214 N 0.19442 0.15408 0.92483 0.0
N215 N 0.22624 0.14935 0.91424 0.0
C216 C 0.1638 0.20115 0.97724 0.0
H217 H 0.14499 0.17922 0.98102 0.0
H218 H 0.17387 0.21525 0.0271 0.0
H219 H 0.14901 0.2212 0.93855 0.0
C220 C 0.13127 0.05254 0.0319 0.0
N221 N 0.1281 0.06965 0.97238 0.0
N222 N 0.15441 0.09313 0.98061 0.0
C223 C 0.17617 0.09028 0.04588 0.0
C224 C 0.16193 0.06436 0.08031 0.0
C225 C 0.10499 0.02543 0.04275 0.0
H226 H 0.10514 1.00124 0.0108 0.0
H227 H 0.07788 0.03805 0.02723 0.0
H228 H 0.11088 0.01699 0.09703 0.0
O229 O 0.12527 0.04115 0.82533 0.0
O230 O 0.16686 0.08334 0.83462 0.0
H231 H 0.22666 0.09927 0.12399 0.0
H232 H 0.20498 0.13907 0.0784 0.0
C233 C 0.21094 0.11004 0.07321 0.0
H234 H 0.22712 0.10784 0.03662 0.0
H235 H 0.23342 0.12644 0.89134 0.0
O236 O 0.06208 0.02324 0.89696 0.0
C237 C 0.15288 0.05319 0.81044 0.0
Co238 Co 0.92633 0.05334 0.62885 0.0
Co239 Co 0.86417 0.11148 0.61222 0.0
C240 C 0.94259 0.12873 0.6821 0.0
O241 O 0.95165 0.09664 0.67231 0.0
O242 O 0.90968 0.13916 0.66181 0.0
C243 C 0.99688 0.02673 0.63063 0.0
O244 O 0.0114 0.04464 0.68743 0.0
C245 C 0.82394 0.17847 0.55871 0.0
C246 C 0.77036 0.16809 0.57227 0.0
C247 C 0.78994 0.19357 0.54854 0.0
N248 N 0.82459 0.14552 0.58722 0.0
N249 N 0.79242 0.13954 0.59527 0.0
C250 C 0.85514 0.19494 0.54067 0.0
H251 H 0.87483 0.17375 0.53678 0.0
H252 H 0.84554 0.21013 0.49169 0.0
H253 H 0.86876 0.21432 0.58135 0.0
C254 C 0.89262 0.04774 0.48058 0.0
N255 N 0.89524 0.06417 0.54056 0.0
N256 N 0.86851 0.08747 0.53217 0.0
C257 C 0.84737 0.0856 0.46646 0.0
C258 C 0.8622 0.06039 0.43175 0.0
C259 C 0.91808 0.01918 0.47036 0.0
H260 H 0.91808 0.99583 0.50453 0.0
H261 H 0.94553 0.03064 0.4834 0.0
H262 H 0.91115 1.00966 0.41668 0.0
O263 O 0.89826 0.03294 0.6878 0.0
O264 O 0.85372 0.07329 0.67446 0.0
H265 H 0.79542 0.10118 0.47415 0.0
H266 H 0.79735 0.09546 0.38706 0.0
C267 C 0.81222 0.10509 0.43906 0.0
H268 H 0.81756 0.1344 0.43656 0.0
H269 H 0.78544 0.11588 0.61617 0.0
O270 O 0.96338 0.01952 0.61371 0.0
C271 C 0.86966 0.04405 0.70087 0.0
C272 C 0.33033 0.48946 0.76075 0.0
C273 C 0.33566 0.52747 0.76796 0.0
C274 C 0.32575 0.52313 0.88105 0.0
C275 C 0.33185 0.48536 0.88095 0.0
N276 N 0.33631 0.4314 0.81878 0.0
N277 N 0.3364 0.58126 0.83606 0.0
C278 C 0.33207 0.46803 0.81956 0.0
C279 C 0.33155 0.54483 0.82746 0.0
N280 N 0.32387 0.47405 0.69762 0.0
N281 N 0.31657 0.53811 0.9347 0.0
H282 H 0.34076 0.59842 0.79892 0.0
H283 H 0.3382 0.59433 0.88206 0.0
H284 H 0.31294 0.52224 0.97454 0.0
H285 H 0.30917 0.56515 0.9361 0.0
H286 H 0.31727 0.44691 0.68809 0.0
H287 H 0.32136 0.48948 0.65357 0.0
H288 H 0.34123 0.41752 0.77803 0.0
H289 H 0.33633 0.41514 0.86061 0.0
C290 C 0.68119 0.4653 0.69392 0.0
C291 C 0.6901 0.48342 0.6399 0.0
C292 C 0.69228 0.54122 0.69916 0.0
C293 C 0.67974 0.5236 0.75006 0.0
N294 N 0.68044 0.46791 0.81204 0.0
N295 N 0.72011 0.53374 0.60737 0.0
C296 C 0.6806 0.48519 0.75299 0.0
C297 C 0.70176 0.51968 0.64918 0.0
N298 N 0.67048 0.43006 0.68702 0.0
N299 N 0.69243 0.57803 0.69415 0.0
H300 H 0.72639 0.518 0.5699 0.0
H301 H 0.73178 0.55932 0.61433 0.0
H302 H 0.68614 0.59548 0.7288 0.0
H303 H 0.69696 0.59146 0.65253 0.0
H304 H 0.6592 0.41716 0.72127 0.0
H305 H 0.67098 0.4143 0.64516 0.0
H306 H 0.68358 0.44001 0.81858 0.0
H307 H 0.6814 0.48206 0.85675 0.0
C308 C 0.64225 0.54117 0.2363 0.0
C309 C 0.64853 0.50306 0.24274 0.0
C310 C 0.67619 0.50767 0.14905 0.0
C311 C 0.66012 0.54195 0.13059 0.0
N312 N 0.62564 0.59142 0.15691 0.0
N313 N 0.66559 0.4492 0.1905 0.0
C314 C 0.6428 0.55901 0.17465 0.0
C315 C 0.66461 0.48598 0.19602 0.0
N316 N 0.63726 0.5607 0.28951 0.0
N317 N 0.70058 0.49492 0.11807 0.0
H318 H 0.65246 0.4316 0.21496 0.0
H319 H 0.67491 0.43636 0.15344 0.0
H320 H 0.70878 0.51044 0.08253 0.0
H321 H 0.71481 0.47081 0.13284 0.0
H322 H 0.63499 0.58881 0.28822 0.0
H323 H 0.64044 0.54955 0.33786 0.0
H324 H 0.60929 0.60289 0.18392 0.0
H325 H 0.62592 0.60559 0.1129 0.0
C326 C 0.32706 0.51822 0.26466 0.0
C327 C 0.36379 0.51309 0.2661 0.0
C328 C 0.38158 0.55692 0.35963 0.0
C329 C 0.34695 0.55472 0.36892 0.0
N330 N 0.28584 0.53382 0.33023 0.0
N331 N 0.42701 0.52308 0.32681 0.0
C332 C 0.3192 0.53594 0.3207 0.0
C333 C 0.39141 0.53178 0.31593 0.0
N334 N 0.29983 0.50707 0.20945 0.0
N335 N 0.40582 0.58132 0.39661 0.0
H336 H 0.43583 0.50183 0.30225 0.0
H337 H 0.44759 0.53379 0.36692 0.0
H338 H 0.39906 0.59956 0.42992 0.0
H339 H 0.43084 0.5858 0.3886 0.0
H340 H 0.27271 0.51264 0.20366 0.0
H341 H 0.30452 0.49567 0.16614 0.0
H342 H 0.26555 0.51694 0.30166 0.0
H343 H 0.27928 0.54804 0.36916 0.0
C344 C 0.85301 0.96286 0.80192 0.0
C345 C 0.84395 0.97999 0.85654 0.0
C346 C 0.84501 0.03915 0.8035 0.0
C347 C 0.85537 0.02235 0.74924 0.0
N348 N 0.85581 0.96761 0.6851 0.0
N349 N 0.81782 0.03136 0.8958 0.0
C350 C 0.85491 0.9839 0.74455 0.0
C351 C 0.83455 0.01706 0.85144 0.0
N352 N 0.86168 0.92696 0.80661 0.0
N353 N 0.84865 0.0756 0.81416 0.0
H354 H 0.81072 0.01532 0.93199 0.0
H355 H 0.80783 0.05774 0.89173 0.0
H356 H 0.85906 0.09298 0.78466 0.0
H357 H 0.84497 0.08819 0.85725 0.0
H358 H 0.87283 0.9138 0.77244 0.0
H359 H 0.85907 0.91082 0.84688 0.0
H360 H 0.85283 0.93984 0.67708 0.0
H361 H 0.85551 0.9823 0.64124 0.0
C362 C 0.18367 0.04679 0.71466 0.0
C363 C 0.16707 0.03123 0.7618 0.0
C364 C 0.15318 0.97652 0.69139 0.0
C365 C 0.16526 0.99389 0.6403 0.0
N366 N 0.20191 0.04105 0.61277 0.0
N367 N 0.15599 0.97482 0.81129 0.0
C368 C 0.18398 0.02712 0.65528 0.0
C369 C 0.15834 0.99386 0.7554 0.0
N370 N 0.19955 0.08 0.72542 0.0
N371 N 0.13477 0.94468 0.67776 0.0
H372 H 0.1623 0.98641 0.85993 0.0
H373 H 0.15241 0.9469 0.81099 0.0
H374 H 0.13062 0.93078 0.63178 0.0
H375 H 0.1216 0.93332 0.7106 0.0
H376 H 0.21009 0.09238 0.68946 0.0
H377 H 0.20465 0.09412 0.77111 0.0
H378 H 0.20409 0.02788 0.56894 0.0
H379 H 0.20409 0.02788 0.56894 0.0
C380 C 0.17057 0.06406 0.20691 0.0
C381 C 0.17666 0.04738 0.14909 0.0
C382 C 0.17637 0.98751 0.20054 0.0
C383 C 0.16725 1.00398 0.25621 0.0
N384 N 0.17048 0.05748 0.32508 0.0
N385 N 0.19932 0.9961 0.10266 0.0
C386 C 0.1695 0.04223 0.26369 0.0
C387 C 0.18504 1.01003 0.15099 0.0
N388 N 0.16338 0.10025 0.20565 0.0
N389 N 0.1736 0.95096 0.19106 0.0
H390 H 0.20517 1.01254 0.06565 0.0
H391 H 0.20852 0.96954 0.10366 0.0
H392 H 0.16667 0.93329 0.22482 0.0
H393 H 0.17573 0.93829 0.14688 0.0
H394 H 0.15422 0.11325 0.24269 0.0
H395 H 0.16514 0.11693 0.16551 0.0
H396 H 0.17476 0.08495 0.33524 0.0
H397 H 0.17087 0.04192 0.36802 0.0
C398 C 0.85176 0.06134 0.30431 0.0
C399 C 0.84699 0.04409 0.36282 0.0
C400 C 0.84344 0.9851 0.30747 0.0
C401 C 0.85014 1.00201 0.24959 0.0
N402 N 0.84654 0.05672 0.18333 0.0
N403 N 0.82418 0.9931 0.40962 0.0
C404 C 0.84946 0.04042 0.2448 0.0
C405 C 0.83733 1.0072 0.35991 0.0
N406 N 0.86053 0.09712 0.3069 0.0
N407 N 0.8464 0.94846 0.31643 0.0
H408 H 0.82006 1.00909 0.44882 0.0
H409 H 0.81398 0.96697 0.40767 0.0
H410 H 0.85259 0.93076 0.28197 0.0
H411 H 0.84589 0.9357 0.36167 0.0
H412 H 0.86869 0.1102 0.26872 0.0
H413 H 0.86122 0.11326 0.34911 0.0
H414 H 0.84323 0.08452 0.17553 0.0
H415 H 0.84349 0.04195 0.13849 0.0
C416 C 0.52273 0.47047 0.01652 0.0
C417 C 0.50458 0.49443 0.04974 0.0
C418 C 0.50007 0.53928 0.96015 0.0
C419 C 0.519 0.51583 0.92792 0.0
N420 N 0.53371 0.45402 0.90975 0.0
N421 N 0.49121 0.5568 0.06769 0.0
C422 C 0.52591 0.47974 0.95117 0.0
C423 C 0.49758 0.53046 0.02588 0.0
N424 N 0.53916 0.44015 0.04982 0.0
N425 N 0.48369 0.56957 0.92666 0.0
H426 H 0.49442 0.55219 0.11955 0.0
H427 H 0.48824 0.58401 0.05373 0.0
H428 H 0.48344 0.57516 0.87634 0.0
H429 H 0.46705 0.58627 0.9455 0.0
H430 H 0.55539 0.4232 0.03048 0.0
H431 H 0.54047 0.4349 0.10076 0.0
H432 H 0.53666 0.42669 0.92278 0.0
H433 H 0.53195 0.45927 0.8587 0.0
C434 C 0.49489 0.46394 0.50117 0.0
C435 C 0.53259 0.47001 0.52435 0.0
C436 C 0.52856 0.4812 0.64043 0.0
C437 C 0.49051 0.47978 0.61438 0.0
N438 N 0.44342 0.44553 0.53718 0.0
N439 N 0.58639 0.46921 0.62152 0.0
C440 C 0.47511 0.46384 0.54963 0.0
C441 C 0.54994 0.47404 0.59585 0.0
N442 N 0.47798 0.45763 0.43355 0.0
N443 N 0.54404 0.48807 0.70824 0.0
H444 H 0.60268 0.46208 0.5912 0.0
H445 H 0.60023 0.46897 0.67349 0.0
H446 H 0.52924 0.48641 0.74339 0.0
H447 H 0.57103 0.49484 0.72941 0.0
H448 H 0.44997 0.45607 0.41394 0.0
H449 H 0.49174 0.45634 0.39663 0.0
H450 H 0.43234 0.43086 0.49249 0.0
H451 H 0.43098 0.44135 0.57554 0.0
C452 C 0.99247 0.04516 0.96655 0.0
C453 C 0.01146 0.01951 0.93839 0.0
C454 C 0.02517 0.9841 0.04463 0.0
C455 C 1.00612 1.00979 0.07259 0.0
N456 N 0.9837 0.07055 0.06984 0.0
N457 N 0.03487 0.95909 0.9417 0.0
C458 C 0.99387 0.04232 0.03654 0.0
C459 C 0.02415 0.98711 0.97476 0.0
N460 N 0.97012 0.06994 0.92528 0.0
N461 N 0.04706 0.95905 0.08606 0.0
H462 H 0.03303 0.96051 0.88969 0.0
H463 H 0.04153 0.93355 0.96346 0.0
H464 H 0.05341 0.96009 0.13925 0.0
H465 H 0.06349 0.94121 0.06914 0.0
H466 H 0.95364 0.0875 0.9427 0.0
H467 H 0.96329 0.06874 0.87207 0.0
H468 H 0.97735 0.09614 0.04805 0.0
H469 H 0.98575 0.0692 0.12195 0.0
C470 C 0.01858 0.06218 0.54503 0.0
C471 C 0.01368 0.02819 0.57382 0.0
C472 C 0.02073 0.99748 0.47178 0.0
C473 C 0.02694 0.03139 0.44472 0.0
N474 N 0.04242 0.09434 0.46485 0.0
N475 N 0.01816 0.96333 0.57205 0.0
C476 C 0.02908 0.0632 0.48423 0.0
C477 C 0.01765 0.99574 0.53965 0.0
N478 N 0.01073 0.09377 0.57228 0.0
N479 N 0.0152 0.96746 0.43128 0.0
H480 H 0.01593 0.96149 0.62169 0.0
H481 H 0.0242 0.93888 0.5525 0.0
H482 H 0.01599 0.96804 0.38073 0.0
H483 H 1.0066 0.94287 0.44568 0.0
H484 H 0.00877 0.11849 0.54692 0.0
H485 H 1.00326 0.09535 0.61702 0.0
H486 H 0.04849 0.11716 0.4959 0.0
H487 H 0.05147 0.09602 0.42157 0.0
C488 C 0.27839 0.27186 0.0946 0.0
C489 C 0.26922 0.30427 0.05596 0.0
C490 C 0.2334 0.26972 0.9568 0.0
C491 C 0.24108 0.23756 0.99662 0.0
N492 N 0.26621 0.20811 0.10558 0.0
N493 N 0.23483 0.3354 0.95385 0.0
C494 C 0.26227 0.23868 0.06621 0.0
C495 C 0.24573 0.30358 0.98804 0.0
N496 N 0.30326 0.2727 0.15785 0.0
N497 N 0.21526 0.26768 0.88855 0.0
H498 H 0.24418 0.36057 0.9743 0.0
H499 H 0.21475 0.33725 0.90724 0.0
H500 H 0.20499 0.24355 0.86442 0.0
H501 H 0.21232 0.28931 0.85465 0.0
H502 H 0.31437 0.24964 0.18544 0.0
H503 H 0.31478 0.29658 0.18121 0.0
H504 H 0.2778 0.20782 0.15842 0.0
H505 H 0.25544 0.18322 0.08617 0.0
C506 C 0.7687 0.29482 0.53122 0.0
C507 C 0.74745 0.2969 0.46168 0.0
C508 C 0.75742 0.23205 0.44746 0.0
C509 C 0.77637 0.22942 0.51822 0.0
N510 N 0.79716 0.25687 0.62965 0.0
N511 N 0.71781 0.26741 0.35514 0.0
C512 C 0.78131 0.26047 0.56071 0.0
C513 C 0.74085 0.26548 0.42014 0.0
N514 N 0.77742 0.32586 0.56861 0.0
N515 N 0.75594 0.20271 0.4061 0.0
H516 H 0.70583 0.29152 0.33291 0.0
H517 H 0.7085 0.24489 0.32474 0.0
H518 H 0.76686 0.17758 0.42462 0.0
H519 H 0.74624 0.20374 0.35293 0.0
H520 H 0.79592 0.32691 0.61712 0.0
H521 H 0.76799 0.35132 0.54921 0.0
H522 H 0.79789 0.27738 0.66483 0.0
H523 H 0.8077 0.23242 0.65269 0.0
C524 C 0.74891 0.79319 0.95632 0.0
C525 C 0.76935 0.79701 0.026 0.0
C526 C 0.75848 0.73333 0.04761 0.0
C527 C 0.74039 0.72879 0.97693 0.0
N528 N 0.7217 0.75269 0.86201 0.0
N529 N 0.79781 0.7703 0.13642 0.0
C530 C 0.73638 0.75831 0.9307 0.0
C531 C 0.77535 0.76692 0.07122 0.0
N532 N 0.741 0.82307 0.91496 0.0
N533 N 0.75846 0.70583 0.09251 0.0
H534 H 0.80995 0.79466 0.15603 0.0
H535 H 0.80663 0.74852 0.16953 0.0
H536 H 0.74636 0.6809 0.07706 0.0
H537 H 0.76773 0.70857 0.14548 0.0
H538 H 0.72283 0.82304 0.86604 0.0
H539 H 0.75094 0.84874 0.93115 0.0
H540 H 0.72168 0.77192 0.82473 0.0
H541 H 0.71157 0.72775 0.84157 0.0
C542 C 0.25815 0.79778 0.56347 0.0
C543 C 0.23896 0.8025 0.49318 0.0
C544 C 0.25226 0.73954 0.47008 0.0
C545 C 0.26931 0.7341 0.54105 0.0
N546 N 0.28564 0.75627 0.65681 0.0
N547 N 0.21394 0.77743 0.3805 0.0
C548 C 0.27159 0.76281 0.58818 0.0
C549 C 0.23489 0.7732 0.44676 0.0
N550 N 0.2639 0.82693 0.60639 0.0
N551 N 0.25367 0.71281 0.42474 0.0
H552 H 0.20185 0.80196 0.36091 0.0
H553 H 0.20636 0.75619 0.34601 0.0
H554 H 0.26591 0.6878 0.44004 0.0
H555 H 0.24536 0.71619 0.37183 0.0
H556 H 0.28118 0.82653 0.65612 0.0
H557 H 0.25285 0.85244 0.59106 0.0
H558 H 0.28442 0.77463 0.69464 0.0
H559 H 0.29677 0.73139 0.67652 0.0
C560 C 0.51815 0.36814 0.34183 0.0
C561 C 0.54432 0.37098 0.30598 0.0
C562 C 0.4962 0.36643 0.19751 0.0
C563 C 0.47053 0.37405 0.23294 0.0
N564 N 0.45522 0.37639 0.33846 0.0
N565 N 0.55958 0.36621 0.20063 0.0
C566 C 0.48083 0.37188 0.30526 0.0
C567 C 0.53374 0.36677 0.23398 0.0
N568 N 0.52962 0.36377 0.41119 0.0
N569 N 0.48427 0.36077 0.12856 0.0
H570 H 0.58705 0.36535 0.22713 0.0
H571 H 0.55406 0.3671 0.14764 0.0
H572 H 0.45674 0.36081 0.10217 0.0
H573 H 0.50094 0.35348 0.09893 0.0
H574 H 0.51241 0.35999 0.44135 0.0
H575 H 0.55705 0.36108 0.43745 0.0
H576 H 0.46098 0.37908 0.39128 0.0
H577 H 0.42778 0.37814 0.31192 0.0
C578 C 0.49244 0.63751 0.66396 0.0
C579 C 0.46877 0.63646 0.70556 0.0
C580 C 0.5199 0.64771 0.80694 0.0
C581 C 0.54417 0.64128 0.76784 0.0
N582 N 0.55461 0.63598 0.6584 0.0
N583 N 0.45905 0.64738 0.81512 0.0
C584 C 0.5306 0.63909 0.69558 0.0
C585 C 0.48216 0.64459 0.77612 0.0
N586 N 0.47808 0.63604 0.59445 0.0
N587 N 0.53236 0.65425 0.87533 0.0
H588 H 0.43112 0.64537 0.79432 0.0
H589 H 0.46802 0.65234 0.86769 0.0
H590 H 0.55974 0.65684 0.90163 0.0
H591 H 0.55974 0.65684 0.90163 0.0
H592 H 0.49308 0.6379 0.55986 0.0
H593 H 0.45023 0.6353 0.57118 0.0
H594 H 0.54749 0.63099 0.60608 0.0
H595 H 0.58239 0.6383 0.68138 0.0
C596 C 0.0141 0.87644 0.32848 0.0
C597 C 0.04094 0.88137 0.29477 0.0
C598 C 0.99571 0.87055 0.1846 0.0
C599 C 0.96824 0.87577 0.21667 0.0
N600 N 0.94991 0.87718 0.319 0.0
N601 N 0.05928 0.87746 0.19237 0.0
C602 C 0.97707 0.87534 0.28897 0.0
C603 C 0.0325 0.87543 0.22333 0.0
N604 N 0.02436 0.87439 0.39825 0.0
N605 N 0.98591 0.86318 0.11621 0.0
H606 H 0.08638 0.88003 0.22044 0.0
H607 H 0.0548 0.8773 0.13959 0.0
H608 H 0.9588 0.86016 0.08822 0.0
H609 H 1.00413 0.85741 0.08891 0.0
H610 H 1.00672 0.86901 0.42691 0.0
H611 H 0.05151 0.87541 0.42696 0.0
H612 H 0.95397 0.88107 0.37115 0.0
H613 H 0.92283 0.87536 0.29026 0.0
C614 C 0.03561 0.1628 0.73024 0.0
C615 C 0.04428 0.15676 0.80169 0.0
C616 C 0.97993 0.15361 0.79368 0.0
C617 C 0.972 0.15268 0.72156 0.0
N618 N 0.98825 0.17154 0.62253 0.0
N619 N 0.02598 0.15973 0.90384 0.0
C620 C 0.99864 0.16295 0.69046 0.0
C621 C 0.01654 0.15759 0.83414 0.0
N622 N 0.06271 0.16498 0.70021 0.0
N623 N 0.95279 0.1481 0.82273 0.0
H624 H 0.05296 0.1623 0.93293 0.0
H625 H 1.0076 0.16146 0.93206 0.0
H626 H 0.92588 0.14598 0.79322 0.0
H627 H 0.95664 0.14559 0.8751 0.0
H628 H 0.05845 0.16501 0.64745 0.0
H629 H 0.08979 0.16593 0.72914 0.0
H630 H 1.00576 0.18169 0.59687 0.0
H631 H 0.9611 0.17114 0.59363 0.0
loop_
_geom_bond_atom_site_label_1
_geom_bond_atom_site_label_2
_geom_bond_distance
_geom_bond_site_symmetry_2
_ccdc_geom_bond_type
Co0 O3 1.970 . S
Co0 N17 1.989 1_554 S
Co0 O25 1.967 . S
Co0 O32 1.920 . S
Co1 O4 1.966 . S
Co1 N10 2.022 . S
Co1 N18 1.993 1_554 S
Co1 O26 1.941 . S
C2 O3 1.258 . S
C2 O4 1.263 . S
O3 Co0 1.970 . S
O3 C2 1.258 . S
O4 Co1 1.966 . S
O4 C2 1.263 . S
C5 O6 1.235 . S
C5 O32 1.289 . S
O6 C5 1.235 . S
C7 C9 1.400 . S
C7 N10 1.351 . S
C7 C12 1.501 . S
C8 C9 1.387 . S
C8 N11 1.341 . S
C9 C7 1.400 . S
C9 C8 1.387 . S
N10 Co1 2.022 . S
N10 C7 1.351 . S
N10 N11 1.365 . S
N11 C8 1.341 . S
N11 N10 1.365 . S
N11 H31 0.862 . S
C12 C7 1.501 . S
C12 H13 0.961 . S
C12 H14 0.961 . S
C12 H15 0.960 . S
H13 C12 0.961 . S
H14 C12 0.961 . S
H15 C12 0.960 . S
C16 N17 1.342 . S
C16 C20 1.401 . S
C16 C21 1.499 . S
N17 Co0 1.989 1_556 S
N17 C16 1.342 . S
N17 N18 1.388 . S
N18 Co1 1.993 1_556 S
N18 N17 1.388 . S
N18 C19 1.346 . S
C19 N18 1.346 . S
C19 C20 1.396 . S
C19 C29 1.510 . S
C20 C16 1.401 . S
C20 C19 1.396 . S
C21 C16 1.499 . S
C21 H22 0.959 . S
C21 H23 0.960 . S
C21 H24 0.961 . S
H22 C21 0.959 . S
H23 C21 0.960 . S
H24 C21 0.961 . S
O25 Co0 1.967 . S
O25 C33 1.258 . S
O26 Co1 1.941 . S
O26 C33 1.266 . S
H27 C29 0.959 . S
H28 C29 0.961 . S
C29 C19 1.510 . S
C29 H27 0.959 . S
C29 H28 0.961 . S
C29 H30 0.960 . S
H30 C29 0.960 . S
H31 N11 0.862 . S
O32 Co0 1.920 . S
O32 C5 1.289 . S
C33 O25 1.258 . S
C33 O26 1.266 . S
Co34 O37 1.970 . S
Co34 N51 1.989 . S
Co34 O59 1.967 . S
Co34 O66 1.920 . S
Co35 O38 1.966 . S
Co35 N44 2.022 . S
Co35 N52 1.993 . S
Co35 O60 1.941 . S
C36 O37 1.258 . S
C36 O38 1.263 . S
O37 Co34 1.970 . S
O37 C36 1.258 . S
O38 Co35 1.966 . S
O38 C36 1.263 . S
C39 O40 1.235 . S
C39 O66 1.289 . S
O40 C39 1.235 . S
C41 C43 1.400 . S
C41 N44 1.351 . S
C41 C46 1.501 . S
C42 C43 1.387 . S
C42 N45 1.341 . S
C43 C41 1.400 . S
C43 C42 1.387 . S
N44 Co35 2.022 . S
N44 C41 1.351 . S
N44 N45 1.365 . S
N45 C42 1.341 . S
N45 N44 1.365 . S
N45 H65 0.862 . S
C46 C41 1.501 . S
C46 H47 0.961 . S
C46 H48 0.961 . S
C46 H49 0.960 . S
H47 C46 0.961 . S
H48 C46 0.961 . S
H49 C46 0.960 . S
C50 N51 1.342 . S
C50 C54 1.401 . S
C50 C55 1.499 . S
N51 Co34 1.989 . S
N51 C50 1.342 . S
N51 N52 1.388 . S
N52 Co35 1.993 . S
N52 N51 1.388 . S
N52 C53 1.346 . S
C53 N52 1.346 . S
C53 C54 1.396 . S
C53 C63 1.510 . S
C54 C50 1.401 . S
C54 C53 1.396 . S
C55 C50 1.499 . S
C55 H56 0.959 . S
C55 H57 0.960 . S
C55 H58 0.961 . S
H56 C55 0.959 . S
H57 C55 0.960 . S
H58 C55 0.961 . S
O59 Co34 1.967 . S
O59 C67 1.258 . S
O60 Co35 1.941 . S
O60 C67 1.266 . S
H61 C63 0.959 . S
H62 C63 0.961 . S
C63 C53 1.510 . S
C63 H61 0.959 . S
C63 H62 0.961 . S
C63 H64 0.960 . S
H64 C63 0.960 . S
H65 N45 0.862 . S
O66 Co34 1.920 . S
O66 C39 1.289 . S
C67 O59 1.258 . S
C67 O60 1.266 . S
Co68 O71 1.970 . S
Co68 N85 1.989 1_556 S
Co68 O93 1.967 . S
Co68 O100 1.920 . S
Co69 O72 1.966 . S
Co69 N78 2.022 . S
Co69 N86 1.993 1_556 S
Co69 O94 1.941 . S
C70 O71 1.258 . S
C70 O72 1.263 . S
O71 Co68 1.970 . S
O71 C70 1.258 . S
O72 Co69 1.966 . S
O72 C70 1.263 . S
C73 O74 1.235 . S
C73 O100 1.289 . S
O74 C73 1.235 . S
C75 C77 1.400 . S
C75 N78 1.351 . S
C75 C80 1.501 . S
C76 C77 1.387 . S
C76 N79 1.341 . S
C77 C75 1.400 . S
C77 C76 1.387 . S
N78 Co69 2.022 . S
N78 C75 1.351 . S
N78 N79 1.365 . S
N79 C76 1.341 . S
N79 N78 1.365 . S
N79 H99 0.862 . S
C80 C75 1.501 . S
C80 H81 0.961 . S
C80 H82 0.961 . S
C80 H83 0.960 . S
H81 C80 0.961 . S
H82 C80 0.961 . S
H83 C80 0.960 . S
C84 N85 1.342 . S
C84 C88 1.401 . S
C84 C89 1.499 . S
N85 Co68 1.989 1_554 S
N85 C84 1.342 . S
N85 N86 1.388 . S
N86 Co69 1.993 1_554 S
N86 N85 1.388 . S
N86 C87 1.346 . S
C87 N86 1.346 . S
C87 C88 1.396 . S
C87 C97 1.510 . S
C88 C84 1.401 . S
C88 C87 1.396 . S
C89 C84 1.499 . S
C89 H90 0.959 . S
C89 H91 0.960 . S
C89 H92 0.961 . S
H90 C89 0.959 . S
H91 C89 0.960 . S
H92 C89 0.961 . S
O93 Co68 1.967 . S
O93 C101 1.258 . S
O94 Co69 1.941 . S
O94 C101 1.266 . S
H95 C97 0.959 . S
H96 C97 0.961 . S
C97 C87 1.510 . S
C97 H95 0.959 . S
C97 H96 0.961 . S
C97 H98 0.960 . S
H98 C97 0.960 . S
H99 N79 0.862 . S
O100 Co68 1.920 . S
O100 C73 1.289 . S
C101 O93 1.258 . S
C101 O94 1.266 . S
Co102 O105 1.970 . S
Co102 N119 1.989 . S
Co102 O127 1.967 . S
Co102 O134 1.920 . S
Co103 O106 1.966 . S
Co103 N112 2.022 . S
Co103 N120 1.993 . S
Co103 O128 1.941 . S
C104 O105 1.258 . S
C104 O106 1.263 . S
O105 Co102 1.970 . S
O105 C104 1.258 . S
O106 Co103 1.966 . S
O106 C104 1.263 . S
C107 O108 1.235 . S
C107 O134 1.289 . S
O108 C107 1.235 . S
C109 C111 1.400 . S
C109 N112 1.351 . S
C109 C114 1.501 . S
C110 C111 1.387 . S
C110 N113 1.341 . S
C111 C109 1.400 . S
C111 C110 1.387 . S
N112 Co103 2.022 . S
N112 C109 1.351 . S
N112 N113 1.365 . S
N113 C110 1.341 . S
N113 N112 1.365 . S
N113 H133 0.862 . S
C114 C109 1.501 . S
C114 H115 0.961 . S
C114 H116 0.961 . S
C114 H117 0.960 . S
H115 C114 0.961 . S
H116 C114 0.961 . S
H117 C114 0.960 . S
C118 N119 1.342 . S
C118 C122 1.401 . S
C118 C123 1.499 . S
N119 Co102 1.989 . S
N119 C118 1.342 . S
N119 N120 1.388 . S
N120 Co103 1.993 . S
N120 N119 1.388 . S
N120 C121 1.346 . S
C121 N120 1.346 . S
C121 C122 1.396 . S
C121 C131 1.510 . S
C122 C118 1.401 . S
C122 C121 1.396 . S
C123 C118 1.499 . S
C123 H124 0.959 . S
C123 H125 0.960 . S
C123 H126 0.961 . S
H124 C123 0.959 . S
H125 C123 0.960 . S
H126 C123 0.961 . S
O127 Co102 1.967 . S
O127 C135 1.258 . S
O128 Co103 1.941 . S
O128 C135 1.266 . S
H129 C131 0.959 . S
H130 C131 0.961 . S
C131 C121 1.510 . S
C131 H129 0.959 . S
C131 H130 0.961 . S
C131 H132 0.960 . S
H132 C131 0.960 . S
H133 N113 0.862 . S
O134 Co102 1.920 . S
O134 C107 1.289 . S
C135 O127 1.258 . S
C135 O128 1.266 . S
Co136 O139 1.970 . S
Co136 N153 1.989 1_554 S
Co136 O161 1.967 . S
Co136 O168 1.920 1_565 S
Co137 O140 1.966 . S
Co137 N146 2.022 . S
Co137 N154 1.993 1_554 S
Co137 O162 1.941 . S
C138 O139 1.258 . S
C138 O140 1.263 . S
O139 Co136 1.970 . S
O139 C138 1.258 . S
O140 Co137 1.966 . S
O140 C138 1.263 . S
C141 O142 1.241 . S
C141 O168 1.288 1_565 S
O142 C141 1.241 . S
C143 C145 1.400 . S
C143 N146 1.351 . S
C143 C148 1.501 . S
C144 C145 1.387 . S
C144 N147 1.341 . S
C145 C143 1.400 . S
C145 C144 1.387 . S
N146 Co137 2.022 . S
N146 C143 1.351 . S
N146 N147 1.365 . S
N147 C144 1.341 . S
N147 N146 1.365 . S
N147 H167 0.862 . S
C148 C143 1.501 . S
C148 H149 0.961 . S
C148 H150 0.961 . S
C148 H151 0.960 . S
H149 C148 0.961 . S
H150 C148 0.961 . S
H151 C148 0.960 . S
C152 N153 1.342 . S
C152 C156 1.401 . S
C152 C157 1.499 . S
N153 Co136 1.989 1_556 S
N153 C152 1.342 . S
N153 N154 1.388 . S
N154 Co137 1.993 1_556 S
N154 N153 1.388 . S
N154 C155 1.346 . S
C155 N154 1.346 . S
C155 C156 1.396 . S
C155 C165 1.510 . S
C156 C152 1.401 . S
C156 C155 1.396 . S
C157 C152 1.499 . S
C157 H158 0.949 1_565 S
C157 H159 0.960 . S
C157 H160 0.961 1_565 S
H158 C157 0.949 1_545 S
H159 C157 0.960 . S
H160 C157 0.961 1_545 S
O161 Co136 1.967 . S
O161 C169 1.258 . S
O162 Co137 1.941 . S
O162 C169 1.266 . S
H163 C165 0.959 . S
H164 C165 0.961 . S
C165 C155 1.510 . S
C165 H163 0.959 . S
C165 H164 0.961 . S
C165 H166 0.960 . S
H166 C165 0.960 . S
H167 N147 0.862 . S
O168 Co136 1.920 1_545 S
O168 C141 1.288 1_545 S
C169 O161 1.258 . S
C169 O162 1.266 . S
Co170 O173 1.970 . S
Co170 N187 1.989 . S
Co170 O195 1.967 . S
Co170 O202 1.920 1_565 S
Co171 O174 1.966 . S
Co171 N180 2.022 . S
Co171 N188 1.993 . S
Co171 O196 1.941 . S
C172 O173 1.258 . S
C172 O174 1.263 . S
O173 Co170 1.970 . S
O173 C172 1.258 . S
O174 Co171 1.966 . S
O174 C172 1.263 . S
C175 O176 1.241 . S
C175 O202 1.288 1_565 S
O176 C175 1.241 . S
C177 C179 1.400 . S
C177 N180 1.351 . S
C177 C182 1.501 . S
C178 C179 1.387 . S
C178 N181 1.341 . S
C179 C177 1.400 . S
C179 C178 1.387 . S
N180 Co171 2.022 . S
N180 C177 1.351 . S
N180 N181 1.365 . S
N181 C178 1.341 . S
N181 N180 1.365 . S
N181 H201 0.862 . S
C182 C177 1.501 . S
C182 H183 0.961 . S
C182 H184 0.961 . S
C182 H185 0.960 . S
H183 C182 0.961 . S
H184 C182 0.961 . S
H185 C182 0.960 . S
C186 N187 1.342 . S
C186 C190 1.401 . S
C186 C191 1.499 . S
N187 Co170 1.989 . S
N187 C186 1.342 . S
N187 N188 1.388 . S
N188 Co171 1.993 . S
N188 N187 1.388 . S
N188 C189 1.346 . S
C189 N188 1.346 . S
C189 C190 1.396 . S
C189 C199 1.510 . S
C190 C186 1.401 . S
C190 C189 1.396 . S
C191 C186 1.499 . S
C191 H192 0.949 1_565 S
C191 H193 0.960 . S
C191 H194 0.961 1_565 S
H192 C191 0.949 1_545 S
H193 C191 0.960 . S
H194 C191 0.961 1_545 S
O195 Co170 1.967 . S
O195 C203 1.258 . S
O196 Co171 1.941 . S
O196 C203 1.266 . S
H197 C199 0.959 . S
H198 C199 0.961 . S
C199 C189 1.510 . S
C199 H197 0.959 . S
C199 H198 0.961 . S
C199 H200 0.960 . S
H200 C199 0.960 . S
H201 N181 0.862 . S
O202 Co170 1.920 1_545 S
O202 C175 1.288 1_545 S
C203 O195 1.258 . S
C203 O196 1.266 . S
Co204 O207 1.970 . S
Co204 N221 1.989 1_556 S
Co204 O229 1.967 . S
Co204 O236 1.920 1_545 S
Co205 O208 1.966 . S
Co205 N214 2.022 . S
Co205 N222 1.993 1_556 S
Co205 O230 1.941 . S
C206 O207 1.258 . S
C206 O208 1.263 . S
O207 Co204 1.970 . S
O207 C206 1.258 . S
O208 Co205 1.966 . S
O208 C206 1.263 . S
C209 O210 1.241 . S
C209 O236 1.288 1_545 S
O210 C209 1.241 . S
C211 C213 1.400 . S
C211 N214 1.351 . S
C211 C216 1.501 . S
C212 C213 1.387 . S
C212 N215 1.341 . S
C213 C211 1.400 . S
C213 C212 1.387 . S
N214 Co205 2.022 . S
N214 C211 1.351 . S
N214 N215 1.365 . S
N215 C212 1.341 . S
N215 N214 1.365 . S
N215 H235 0.862 . S
C216 C211 1.501 . S
C216 H217 0.961 . S
C216 H218 0.961 . S
C216 H219 0.960 . S
H217 C216 0.961 . S
H218 C216 0.961 . S
H219 C216 0.960 . S
C220 N221 1.342 . S
C220 C224 1.401 . S
C220 C225 1.499 . S
N221 Co204 1.989 1_554 S
N221 C220 1.342 . S
N221 N222 1.388 . S
N222 Co205 1.993 1_554 S
N222 N221 1.388 . S
N222 C223 1.346 . S
C223 N222 1.346 . S
C223 C224 1.396 . S
C223 C233 1.510 . S
C224 C220 1.401 . S
C224 C223 1.396 . S
C225 C220 1.499 . S
C225 H226 0.949 1_545 S
C225 H227 0.960 . S
C225 H228 0.961 1_545 S
H226 C225 0.949 1_565 S
H227 C225 0.960 . S
H228 C225 0.961 1_565 S
O229 Co204 1.967 . S
O229 C237 1.258 . S
O230 Co205 1.941 . S
O230 C237 1.266 . S
H231 C233 0.959 . S
H232 C233 0.961 . S
C233 C223 1.510 . S
C233 H231 0.959 . S
C233 H232 0.961 . S
C233 H234 0.960 . S
H234 C233 0.960 . S
H235 N215 0.862 . S
O236 Co204 1.920 1_565 S
O236 C209 1.288 1_565 S
C237 O229 1.258 . S
C237 O230 1.266 . S
Co238 O241 1.970 . S
Co238 N255 1.989 . S
Co238 O263 1.967 . S
Co238 O270 1.920 1_545 S
Co239 O242 1.966 . S
Co239 N248 2.022 . S
Co239 N256 1.993 . S
Co239 O264 1.941 . S
C240 O241 1.258 . S
C240 O242 1.263 . S
O241 Co238 1.970 . S
O241 C240 1.258 . S
O242 Co239 1.966 . S
O242 C240 1.263 . S
C243 O244 1.241 . S
C243 O270 1.288 1_545 S
O244 C243 1.241 . S
C245 C247 1.400 . S
C245 N248 1.351 . S
C245 C250 1.501 . S
C246 C247 1.387 . S
C246 N249 1.341 . S
C247 C245 1.400 . S
C247 C246 1.387 . S
N248 Co239 2.022 . S
N248 C245 1.351 . S
N248 N249 1.365 . S
N249 C246 1.341 . S
N249 N248 1.365 . S
N249 H269 0.862 . S
C250 C245 1.501 . S
C250 H251 0.961 . S
C250 H252 0.961 . S
C250 H253 0.960 . S
H251 C250 0.961 . S
H252 C250 0.961 . S
H253 C250 0.960 . S
C254 N255 1.342 . S
C254 C258 1.401 . S
C254 C259 1.499 . S
N255 Co238 1.989 . S
N255 C254 1.342 . S
N255 N256 1.388 . S
N256 Co239 1.993 . S
N256 N255 1.388 . S
N256 C257 1.346 . S
C257 N256 1.346 . S
C257 C258 1.396 . S
C257 C267 1.510 . S
C258 C254 1.401 . S
C258 C257 1.396 . S
C259 C254 1.499 . S
C259 H260 0.949 1_545 S
C259 H261 0.960 . S
C259 H262 0.961 1_545 S
H260 C259 0.949 1_565 S
H261 C259 0.960 . S
H262 C259 0.961 1_565 S
O263 Co238 1.967 . S
O263 C271 1.258 . S
O264 Co239 1.941 . S
O264 C271 1.266 . S
H265 C267 0.959 . S
H266 C267 0.961 . S
C267 C257 1.510 . S
C267 H265 0.959 . S
C267 H266 0.961 . S
C267 H268 0.960 . S
H268 C267 0.960 . S
H269 N249 0.862 . S
O270 Co238 1.920 1_565 S
O270 C243 1.288 1_565 S
C271 O263 1.258 . S
C271 O264 1.266 . S
C272 C273 1.363 . S
C272 C278 1.379 . S
C272 N280 1.356 . S
C273 C272 1.363 . S
C273 C279 1.363 . S
C274 C275 1.363 . S
C274 C279 1.379 . S
C274 N281 1.356 . S
C275 C274 1.363 . S
C275 C278 1.363 . S
N276 C278 1.356 . S
N276 H288 0.984 . S
N276 H289 0.985 . S
N277 C279 1.356 . S
N277 H282 0.984 . S
N277 H283 0.985 . S
C278 C272 1.379 . S
C278 C275 1.363 . S
C278 N276 1.356 . S
C279 C273 1.363 . S
C279 C274 1.379 . S
C279 N277 1.356 . S
N280 C272 1.356 . S
N280 H286 0.984 . S
N280 H287 0.984 . S
N281 C274 1.356 . S
N281 H284 0.984 . S
N281 H285 0.985 . S
H282 N277 0.984 . S
H283 N277 0.985 . S
H284 N281 0.984 . S
H285 N281 0.985 . S
H286 N280 0.984 . S
H287 N280 0.984 . S
H288 N276 0.984 . S
H289 N276 0.985 . S
C290 C291 1.363 . S
C290 C296 1.379 . S
C290 N298 1.356 . S
C291 C290 1.363 . S
C291 C297 1.363 . S
C292 C293 1.363 . S
C292 C297 1.379 . S
C292 N299 1.356 . S
C293 C292 1.363 . S
C293 C296 1.363 . S
N294 C296 1.356 . S
N294 H306 0.984 . S
N294 H307 0.985 . S
N295 C297 1.356 . S
N295 H300 0.984 . S
N295 H301 0.985 . S
C296 C290 1.379 . S
C296 C293 1.363 . S
C296 N294 1.356 . S
C297 C291 1.363 . S
C297 C292 1.379 . S
C297 N295 1.356 . S
N298 C290 1.356 . S
N298 H304 0.984 . S
N298 H305 0.984 . S
N299 C292 1.356 . S
N299 H302 0.984 . S
N299 H303 0.985 . S
H300 N295 0.984 . S
H301 N295 0.985 . S
H302 N299 0.984 . S
H303 N299 0.985 . S
H304 N298 0.984 . S
H305 N298 0.984 . S
H306 N294 0.984 . S
H307 N294 0.985 . S
C308 C309 1.363 . S
C308 C314 1.379 . S
C308 N316 1.356 . S
C309 C308 1.363 . S
C309 C315 1.363 . S
C310 C311 1.363 . S
C310 C315 1.379 . S
C310 N317 1.356 . S
C311 C310 1.363 . S
C311 C314 1.363 . S
N312 C314 1.356 . S
N312 H324 0.984 . S
N312 H325 0.985 . S
N313 C315 1.356 . S
N313 H318 0.984 . S
N313 H319 0.985 . S
C314 C308 1.379 . S
C314 C311 1.363 . S
C314 N312 1.356 . S
C315 C309 1.363 . S
C315 C310 1.379 . S
C315 N313 1.356 . S
N316 C308 1.356 . S
N316 H322 0.984 . S
N316 H323 0.984 . S
N317 C310 1.356 . S
N317 H320 0.984 . S
N317 H321 0.985 . S
H318 N313 0.984 . S
H319 N313 0.985 . S
H320 N317 0.984 . S
H321 N317 0.985 . S
H322 N316 0.984 . S
H323 N316 0.984 . S
H324 N312 0.984 . S
H325 N312 0.985 . S
C326 C327 1.363 . S
C326 C332 1.379 . S
C326 N334 1.356 . S
C327 C326 1.363 . S
C327 C333 1.363 . S
C328 C329 1.363 . S
C328 C333 1.379 . S
C328 N335 1.356 . S
C329 C328 1.363 . S
C329 C332 1.363 . S
N330 C332 1.356 . S
N330 H342 0.984 . S
N330 H343 0.985 . S
N331 C333 1.356 . S
N331 H336 0.984 . S
N331 H337 0.985 . S
C332 C326 1.379 . S
C332 C329 1.363 . S
C332 N330 1.356 . S
C333 C327 1.363 . S
C333 C328 1.379 . S
C333 N331 1.356 . S
N334 C326 1.356 . S
N334 H340 0.984 . S
N334 H341 0.984 . S
N335 C328 1.356 . S
N335 H338 0.984 . S
N335 H339 0.985 . S
H336 N331 0.984 . S
H337 N331 0.985 . S
H338 N335 0.984 . S
H339 N335 0.985 . S
H340 N334 0.984 . S
H341 N334 0.984 . S
H342 N330 0.984 . S
H343 N330 0.985 . S
C344 C345 1.363 . S
C344 C350 1.379 . S
C344 N352 1.356 . S
C345 C344 1.363 . S
C345 C351 1.363 . S
C346 C347 1.363 . S
C346 C351 1.379 1_545 S
C346 N353 1.356 . S
C347 C346 1.363 . S
C347 C350 1.363 1_545 S
N348 C350 1.356 . S
N348 H360 0.984 . S
N348 H361 0.985 . S
N349 C351 1.356 1_545 S
N349 H354 0.984 1_545 S
N349 H355 0.985 . S
C350 C344 1.379 . S
C350 C347 1.363 1_565 S
C350 N348 1.356 . S
C351 C345 1.363 . S
C351 C346 1.379 1_565 S
C351 N349 1.356 1_565 S
N352 C344 1.356 . S
N352 H358 0.984 . S
N352 H359 0.984 . S
N353 C346 1.356 . S
N353 H356 0.984 . S
N353 H357 0.985 . S
H354 N349 0.984 1_565 S
H355 N349 0.985 . S
H356 N353 0.984 . S
H357 N353 0.985 . S
H358 N352 0.984 . S
H359 N352 0.984 . S
H360 N348 0.984 . S
H361 N348 0.985 . S
C362 C363 1.363 . S
C362 C368 1.379 1_545 S
C362 N370 1.356 . S
C363 C362 1.363 . S
C363 C369 1.363 1_545 S
C364 C365 1.363 . S
C364 C369 1.379 . S
C364 N371 1.356 . S
C365 C364 1.363 . S
C365 C368 1.363 . S
N366 C368 1.356 . S
N366 H378 0.984 . S
N366 H379 0.985 . S
N367 C369 1.356 . S
N367 H372 0.979 1_565 S
N367 H373 0.985 . S
C368 C362 1.379 1_565 S
C368 C365 1.363 . S
C368 N366 1.356 . S
C369 C363 1.363 1_565 S
C369 C364 1.379 . S
C369 N367 1.356 . S
N370 C362 1.356 . S
N370 H376 0.984 . S
N370 H377 0.984 . S
N371 C364 1.356 . S
N371 H374 0.984 . S
N371 H375 0.985 . S
H372 N367 0.979 1_545 S
H373 N367 0.985 . S
H374 N371 0.984 . S
H375 N371 0.985 . S
H376 N370 0.984 . S
H377 N370 0.984 . S
H378 N366 0.984 . S
H379 N366 0.985 . S
C380 C381 1.363 . S
C380 C386 1.379 . S
C380 N388 1.356 . S
C381 C380 1.363 . S
C381 C387 1.363 . S
C382 C383 1.363 . S
C382 C387 1.379 1_565 S
C382 N389 1.356 . S
C383 C382 1.363 . S
C383 C386 1.363 1_565 S
N384 C386 1.356 . S
N384 H396 0.984 . S
N384 H397 0.985 . S
N385 C387 1.356 . S
N385 H390 0.984 . S
N385 H391 0.985 1_545 S
C386 C380 1.379 . S
C386 C383 1.363 1_545 S
C386 N384 1.356 . S
C387 C381 1.363 . S
C387 C382 1.379 1_545 S
C387 N385 1.356 . S
N388 C380 1.356 . S
N388 H394 0.984 . S
N388 H395 0.984 . S
N389 C382 1.356 . S
N389 H392 0.984 . S
N389 H393 0.985 . S
H390 N385 0.984 . S
H391 N385 0.985 1_565 S
H392 N389 0.984 . S
H393 N389 0.985 . S
H394 N388 0.984 . S
H395 N388 0.984 . S
H396 N384 0.984 . S
H397 N384 0.985 . S
C398 C399 1.363 . S
C398 C404 1.379 . S
C398 N406 1.356 . S
C399 C398 1.363 . S
C399 C405 1.363 . S
C400 C401 1.363 . S
C400 C405 1.379 1_565 S
C400 N407 1.356 . S
C401 C400 1.363 . S
C401 C404 1.363 1_565 S
N402 C404 1.356 . S
N402 H414 0.984 . S
N402 H415 0.985 . S
N403 C405 1.356 . S
N403 H408 0.984 . S
N403 H409 0.985 1_545 S
C404 C398 1.379 . S
C404 C401 1.363 1_545 S
C404 N402 1.356 . S
C405 C399 1.363 . S
C405 C400 1.379 1_545 S
C405 N403 1.356 . S
N406 C398 1.356 . S
N406 H412 0.984 . S
N406 H413 0.984 . S
N407 C400 1.356 . S
N407 H410 0.984 . S
N407 H411 0.985 . S
H408 N403 0.984 . S
H409 N403 0.985 1_565 S
H410 N407 0.984 . S
H411 N407 0.985 . S
H412 N406 0.984 . S
H413 N406 0.984 . S
H414 N402 0.984 . S
H415 N402 0.985 . S
C416 C417 1.363 . S
C416 C422 1.379 . S
C416 N424 1.356 . S
C417 C416 1.363 . S
C417 C423 1.363 1_554 S
C418 C419 1.363 . S
C418 C423 1.379 . S
C418 N425 1.356 . S
C419 C418 1.363 . S
C419 C422 1.363 1_556 S
N420 C422 1.356 . S
N420 H432 0.984 . S
N420 H433 0.985 . S
N421 C423 1.356 . S
N421 H426 0.984 . S
N421 H427 0.985 . S
C422 C416 1.379 . S
C422 C419 1.363 1_554 S
C422 N420 1.356 . S
C423 C417 1.363 1_556 S
C423 C418 1.379 . S
C423 N421 1.356 . S
N424 C416 1.356 . S
N424 H430 0.984 . S
N424 H431 0.984 . S
N425 C418 1.356 . S
N425 H428 0.984 . S
N425 H429 0.985 . S
H426 N421 0.984 . S
H427 N421 0.985 . S
H428 N425 0.984 . S
H429 N425 0.985 . S
H430 N424 0.984 . S
H431 N424 0.984 . S
H432 N420 0.984 . S
H433 N420 0.985 . S
C434 C435 1.363 . S
C434 C440 1.379 . S
C434 N442 1.356 . S
C435 C434 1.363 . S
C435 C441 1.363 . S
C436 C437 1.363 . S
C436 C441 1.379 . S
C436 N443 1.356 . S
C437 C436 1.363 . S
C437 C440 1.363 . S
N438 C440 1.356 . S
N438 H450 0.984 . S
N438 H451 0.985 . S
N439 C441 1.356 . S
N439 H444 0.984 . S
N439 H445 0.985 . S
C440 C434 1.379 . S
C440 C437 1.363 . S
C440 N438 1.356 . S
C441 C435 1.363 . S
C441 C436 1.379 . S
C441 N439 1.356 . S
N442 C434 1.356 . S
N442 H448 0.984 . S
N442 H449 0.984 . S
N443 C436 1.356 . S
N443 H446 0.984 . S
N443 H447 0.985 . S
H444 N439 0.984 . S
H445 N439 0.985 . S
H446 N443 0.984 . S
H447 N443 0.985 . S
H448 N442 0.984 . S
H449 N442 0.984 . S
H450 N438 0.984 . S
H451 N438 0.985 . S
C452 C453 1.363 1_655 S
C452 C458 1.379 . S
C452 N460 1.356 . S
C453 C452 1.363 1_455 S
C453 C459 1.363 1_566 S
C454 C455 1.363 1_455 S
C454 C459 1.379 . S
C454 N461 1.356 . S
C455 C454 1.363 1_655 S
C455 C458 1.363 1_544 S
N456 C458 1.356 . S
N456 H468 0.984 . S
N456 H469 0.985 1_565 S
N457 C459 1.356 . S
N457 H462 0.984 1_545 S
N457 H463 0.985 . S
C458 C452 1.379 . S
C458 C455 1.363 1_566 S
C458 N456 1.356 . S
C459 C453 1.363 1_544 S
C459 C454 1.379 . S
C459 N457 1.356 . S
N460 C452 1.356 . S
N460 H466 0.984 . S
N460 H467 0.984 1_655 S
N461 C454 1.356 . S
N461 H464 0.984 1_455 S
N461 H465 0.985 . S
H462 N457 0.984 1_565 S
H463 N457 0.985 . S
H464 N461 0.984 1_655 S
H465 N461 0.985 . S
H466 N460 0.984 . S
H467 N460 0.984 1_455 S
H468 N456 0.984 . S
H469 N456 0.985 1_545 S
C470 C471 1.363 1_545 S
C470 C476 1.379 . S
C470 N478 1.356 . S
C471 C470 1.363 1_565 S
C471 C477 1.363 1_655 S
C472 C473 1.363 1_565 S
C472 C477 1.379 . S
C472 N479 1.356 . S
C473 C472 1.363 1_545 S
C473 C476 1.363 1_455 S
N474 C476 1.357 1_455 S
N474 H486 0.986 1_455 S
N474 H487 0.982 . S
N475 C477 1.357 1_655 S
N475 H480 0.982 . S
N475 H481 0.986 1_655 S
C476 C470 1.379 . S
C476 C473 1.363 1_655 S
C476 N474 1.357 1_655 S
C477 C471 1.363 1_455 S
C477 C472 1.379 . S
C477 N475 1.357 1_455 S
N478 C470 1.356 . S
N478 H484 0.984 . S
N478 H485 0.984 . S
N479 C472 1.356 . S
N479 H482 0.984 . S
N479 H483 0.985 . S
H480 N475 0.982 . S
H481 N475 0.986 1_455 S
H482 N479 0.984 . S
H483 N479 0.985 . S
H484 N478 0.984 . S
H485 N478 0.984 . S
H486 N474 0.986 1_655 S
H487 N474 0.982 . S
C488 C489 1.363 . S
C488 C494 1.379 . S
C488 N496 1.356 . S
C489 C488 1.363 . S
C489 C495 1.363 1_554 S
C490 C491 1.363 . S
C490 C495 1.379 . S
C490 N497 1.356 . S
C491 C490 1.363 . S
C491 C494 1.363 1_556 S
N492 C494 1.356 . S
N492 H504 0.984 . S
N492 H505 0.985 . S
N493 C495 1.356 . S
N493 H498 0.984 . S
N493 H499 0.985 . S
C494 C488 1.379 . S
C494 C491 1.363 1_554 S
C494 N492 1.356 . S
C495 C489 1.363 1_556 S
C495 C490 1.379 . S
C495 N493 1.356 . S
N496 C488 1.356 . S
N496 H502 0.984 . S
N496 H503 0.984 . S
N497 C490 1.356 . S
N497 H500 0.984 . S
N497 H501 0.985 . S
H498 N493 0.984 . S
H499 N493 0.985 . S
H500 N497 0.984 . S
H501 N497 0.985 . S
H502 N496 0.984 . S
H503 N496 0.984 . S
H504 N492 0.984 . S
H505 N492 0.985 . S
C506 C507 1.363 . S
C506 C512 1.379 . S
C506 N514 1.356 . S
C507 C506 1.363 . S
C507 C513 1.363 . S
C508 C509 1.363 . S
C508 C513 1.379 . S
C508 N515 1.356 . S
C509 C508 1.363 . S
C509 C512 1.363 . S
N510 C512 1.356 . S
N510 H522 0.984 . S
N510 H523 0.985 . S
N511 C513 1.356 . S
N511 H516 0.984 . S
N511 H517 0.985 . S
C512 C506 1.379 . S
C512 C509 1.363 . S
C512 N510 1.356 . S
C513 C507 1.363 . S
C513 C508 1.379 . S
C513 N511 1.356 . S
N514 C506 1.356 . S
N514 H520 0.984 . S
N514 H521 0.984 . S
N515 C508 1.356 . S
N515 H518 0.984 . S
N515 H519 0.985 . S
H516 N511 0.984 . S
H517 N511 0.985 . S
H518 N515 0.984 . S
H519 N515 0.985 . S
H520 N514 0.984 . S
H521 N514 0.984 . S
H522 N510 0.984 . S
H523 N510 0.985 . S
C524 C525 1.363 1_556 S
C524 C530 1.379 . S
C524 N532 1.356 . S
C525 C524 1.363 1_554 S
C525 C531 1.363 . S
C526 C527 1.363 1_554 S
C526 C531 1.379 . S
C526 N533 1.356 . S
C527 C526 1.363 1_556 S
C527 C530 1.363 . S
N528 C530 1.356 . S
N528 H540 0.984 . S
N528 H541 0.985 . S
N529 C531 1.356 . S
N529 H534 0.984 . S
N529 H535 0.985 . S
C530 C524 1.379 . S
C530 C527 1.363 . S
C530 N528 1.356 . S
C531 C525 1.363 . S
C531 C526 1.379 . S
C531 N529 1.356 . S
N532 C524 1.356 . S
N532 H538 0.984 . S
N532 H539 0.984 . S
N533 C526 1.356 . S
N533 H536 0.984 . S
N533 H537 0.985 . S
H534 N529 0.984 . S
H535 N529 0.985 . S
H536 N533 0.984 . S
H537 N533 0.985 . S
H538 N532 0.984 . S
H539 N532 0.984 . S
H540 N528 0.984 . S
H541 N528 0.985 . S
C542 C543 1.363 . S
C542 C548 1.379 . S
C542 N550 1.356 . S
C543 C542 1.363 . S
C543 C549 1.363 . S
C544 C545 1.363 . S
C544 C549 1.379 . S
C544 N551 1.356 . S
C545 C544 1.363 . S
C545 C548 1.363 . S
N546 C548 1.356 . S
N546 H558 0.984 . S
N546 H559 0.985 . S
N547 C549 1.356 . S
N547 H552 0.984 . S
N547 H553 0.985 . S
C548 C542 1.379 . S
C548 C545 1.363 . S
C548 N546 1.356 . S
C549 C543 1.363 . S
C549 C544 1.379 . S
C549 N547 1.356 . S
N550 C542 1.356 . S
N550 H556 0.984 . S
N550 H557 0.984 . S
N551 C544 1.356 . S
N551 H554 0.984 . S
N551 H555 0.985 . S
H552 N547 0.984 . S
H553 N547 0.985 . S
H554 N551 0.984 . S
H555 N551 0.985 . S
H556 N550 0.984 . S
H557 N550 0.984 . S
H558 N546 0.984 . S
H559 N546 0.985 . S
C560 C561 1.363 . S
C560 C566 1.379 . S
C560 N568 1.356 . S
C561 C560 1.363 . S
C561 C567 1.363 . S
C562 C563 1.363 . S
C562 C567 1.379 . S
C562 N569 1.356 . S
C563 C562 1.363 . S
C563 C566 1.363 . S
N564 C566 1.356 . S
N564 H576 0.984 . S
N564 H577 0.985 . S
N565 C567 1.356 . S
N565 H570 0.984 . S
N565 H571 0.985 . S
C566 C560 1.379 . S
C566 C563 1.363 . S
C566 N564 1.356 . S
C567 C561 1.363 . S
C567 C562 1.379 . S
C567 N565 1.356 . S
N568 C560 1.356 . S
N568 H574 0.984 . S
N568 H575 0.984 . S
N569 C562 1.356 . S
N569 H572 0.984 . S
N569 H573 0.985 . S
H570 N565 0.984 . S
H571 N565 0.985 . S
H572 N569 0.984 . S
H573 N569 0.985 . S
H574 N568 0.984 . S
H575 N568 0.984 . S
H576 N564 0.984 . S
H577 N564 0.985 . S
C578 C579 1.363 . S
C578 C584 1.379 . S
C578 N586 1.356 . S
C579 C578 1.363 . S
C579 C585 1.363 . S
C580 C581 1.363 . S
C580 C585 1.379 . S
C580 N587 1.356 . S
C581 C580 1.363 . S
C581 C584 1.363 . S
N582 C584 1.356 . S
N582 H594 0.984 . S
N582 H595 0.985 . S
N583 C585 1.356 . S
N583 H588 0.984 . S
N583 H589 0.985 . S
C584 C578 1.379 . S
C584 C581 1.363 . S
C584 N582 1.356 . S
C585 C579 1.363 . S
C585 C580 1.379 . S
C585 N583 1.356 . S
N586 C578 1.356 . S
N586 H592 0.984 . S
N586 H593 0.984 . S
N587 C580 1.356 . S
N587 H590 0.984 . S
N587 H591 0.985 . S
H588 N583 0.984 . S
H589 N583 0.985 . S
H590 N587 0.984 . S
H591 N587 0.985 . S
H592 N586 0.984 . S
H593 N586 0.984 . S
H594 N582 0.984 . S
H595 N582 0.985 . S
C596 C597 1.363 . S
C596 C602 1.379 1_455 S
C596 N604 1.356 . S
C597 C596 1.363 . S
C597 C603 1.363 . S
C598 C599 1.363 . S
C598 C603 1.379 1_655 S
C598 N605 1.356 . S
C599 C598 1.363 . S
C599 C602 1.363 . S
N600 C602 1.356 . S
N600 H612 0.984 . S
N600 H613 0.985 . S
N601 C603 1.356 . S
N601 H606 0.984 . S
N601 H607 0.985 . S
C602 C596 1.379 1_655 S
C602 C599 1.363 . S
C602 N600 1.356 . S
C603 C597 1.363 . S
C603 C598 1.379 1_455 S
C603 N601 1.356 . S
N604 C596 1.356 . S
N604 H610 0.984 . S
N604 H611 0.984 . S
N605 C598 1.356 . S
N605 H608 0.984 . S
N605 H609 0.985 . S
H606 N601 0.984 . S
H607 N601 0.985 . S
H608 N605 0.984 . S
H609 N605 0.985 . S
H610 N604 0.984 . S
H611 N604 0.984 . S
H612 N600 0.984 . S
H613 N600 0.985 . S
C614 C615 1.363 . S
C614 C620 1.379 1_455 S
C614 N622 1.356 . S
C615 C614 1.363 . S
C615 C621 1.363 . S
C616 C617 1.363 . S
C616 C621 1.379 1_655 S
C616 N623 1.356 . S
C617 C616 1.363 . S
C617 C620 1.363 . S
N618 C620 1.356 . S
N618 H630 0.984 . S
N618 H631 0.985 . S
N619 C621 1.356 . S
N619 H624 0.984 . S
N619 H625 0.985 . S
C620 C614 1.379 1_655 S
C620 C617 1.363 . S
C620 N618 1.356 . S
C621 C615 1.363 . S
C621 C616 1.379 1_455 S
C621 N619 1.356 . S
N622 C614 1.356 . S
N622 H628 0.984 . S
N622 H629 0.984 . S
N623 C616 1.356 . S
N623 H626 0.984 . S
N623 H627 0.985 . S
H624 N619 0.984 . S
H625 N619 0.985 . S
H626 N623 0.984 . S
H627 N623 0.985 . S
H628 N622 0.984 . S
H629 N622 0.984 . S
H630 N618 0.984 . S
H631 N618 0.985 . S
C273 C135 1.662 . S
C275 C20 1.528 . S
C291 C54 1.528 . S
C293 C101 1.662 . S
C309 C67 1.662 . S
C311 C88 1.528 . S
C327 C33 1.662 . S
C329 C122 1.528 . S
C345 C156 1.528 . S
C347 C271 1.662 . S
C363 C237 1.662 . S
C365 C190 1.528 . S
C381 C224 1.528 . S
C383 C203 1.662 . S
C399 C258 1.528 . S
C401 C169 1.662 . S
C417 C5 0.817 . S
C419 C73 0.817 . S
C435 C39 0.817 . S
C437 C107 0.817 . S
C453 C209 0.812 1_565 S
C455 C141 0.812 1_545 S
C471 C243 0.812 1_565 S
C473 C175 0.812 1_545 S
C489 C9 1.379 . S
C491 C213 1.379 . S
C507 C43 1.379 . S
C509 C247 1.379 . S
C525 C145 1.379 . S
C527 C77 1.379 . S
C543 C179 1.379 . S
C545 C111 1.379 . S
C561 C36 2.006 . S
C563 C2 2.006 . S
C579 C104 2.006 . S
C581 C70 2.006 . S
C597 C172 2.006 . S
C599 C138 2.006 . S
C615 C206 2.006 . S
C617 C240 2.006 . S
