# Generated by pormake.
# Topology smc, (6)-cn, num edge types: 1
# Building blocks:
#     Node 0, Type 0, BuildingBlock: BETFAJ_clean_sbu_0, # of connection points: 6
#     Node 1, Type 0, BuildingBlock: BETFAJ_clean_sbu_0, # of connection points: 6
#     Node 2, Type 0, BuildingBlock: BETFAJ_clean_sbu_0, # of connection points: 6
#     Node 3, Type 0, BuildingBlock: BETFAJ_clean_sbu_0, # of connection points: 6
#     Node 4, Type 0, BuildingBlock: BETFAJ_clean_sbu_0, # of connection points: 6
#     Node 5, Type 0, BuildingBlock: BETFAJ_clean_sbu_0, # of connection points: 6
#     Node 6, Type 0, BuildingBlock: BETFAJ_clean_sbu_0, # of connection points: 6
#     Node 7, Type 0, BuildingBlock: BETFAJ_clean_sbu_0, # of connection points: 6
#     Node 8, Type 0, BuildingBlock: BETFAJ_clean_sbu_0, # of connection points: 6
#     Edge 9, Type (0, 0), BuildingBlock: TEMPAE_clean_linker_10, # of connection points: 2
#     Edge 10, Type (0, 0), BuildingBlock: TEMPAE_clean_linker_10, # of connection points: 2
#     Edge 11, Type (0, 0), BuildingBlock: TEMPAE_clean_linker_10, # of connection points: 2
#     Edge 12, Type (0, 0), BuildingBlock: TEMPAE_clean_linker_10, # of connection points: 2
#     Edge 13, Type (0, 0), BuildingBlock: TEMPAE_clean_linker_10, # of connection points: 2
#     Edge 14, Type (0, 0), BuildingBlock: TEMPAE_clean_linker_10, # of connection points: 2
#     Edge 15, Type (0, 0), BuildingBlock: TEMPAE_clean_linker_10, # of connection points: 2
#     Edge 16, Type (0, 0), BuildingBlock: TEMPAE_clean_linker_10, # of connection points: 2
#     Edge 17, Type (0, 0), BuildingBlock: TEMPAE_clean_linker_10, # of connection points: 2
#     Edge 18, Type (0, 0), BuildingBlock: TEMPAE_clean_linker_10, # of connection points: 2
#     Edge 19, Type (0, 0), BuildingBlock: TEMPAE_clean_linker_10, # of connection points: 2
#     Edge 20, Type (0, 0), BuildingBlock: TEMPAE_clean_linker_10, # of connection points: 2
#     Edge 21, Type (0, 0), BuildingBlock: TEMPAE_clean_linker_10, # of connection points: 2
#     Edge 22, Type (0, 0), BuildingBlock: TEMPAE_clean_linker_10, # of connection points: 2
#     Edge 23, Type (0, 0), BuildingBlock: TEMPAE_clean_linker_10, # of connection points: 2
#     Edge 24, Type (0, 0), BuildingBlock: TEMPAE_clean_linker_10, # of connection points: 2
#     Edge 25, Type (0, 0), BuildingBlock: TEMPAE_clean_linker_10, # of connection points: 2
#     Edge 26, Type (0, 0), BuildingBlock: TEMPAE_clean_linker_10, # of connection points: 2
#     Edge 27, Type (0, 0), BuildingBlock: TEMPAE_clean_linker_10, # of connection points: 2
#     Edge 28, Type (0, 0), BuildingBlock: TEMPAE_clean_linker_10, # of connection points: 2
#     Edge 29, Type (0, 0), BuildingBlock: TEMPAE_clean_linker_10, # of connection points: 2
#     Edge 30, Type (0, 0), BuildingBlock: TEMPAE_clean_linker_10, # of connection points: 2
#     Edge 31, Type (0, 0), BuildingBlock: TEMPAE_clean_linker_10, # of connection points: 2
#     Edge 32, Type (0, 0), BuildingBlock: TEMPAE_clean_linker_10, # of connection points: 2
#     Edge 33, Type (0, 0), BuildingBlock: TEMPAE_clean_linker_10, # of connection points: 2
#     Edge 34, Type (0, 0), BuildingBlock: TEMPAE_clean_linker_10, # of connection points: 2
#     Edge 35, Type (0, 0), BuildingBlock: TEMPAE_clean_linker_10, # of connection points: 2
# Relax obj value: 0.180
# Max RMSD: 0.312
# Mean RMSD: 0.312
data_MOF--net-smc--node1-BETFAJ_clean_sbu_0--edge1-TEMPAE_clean_linker_10
_symmetry_space_group_name_H-M    P1
_symmetry_Int_Tables_number       1
_symmetry_cell_setting            triclinic
loop_
_symmetry_equiv_pos_as_xyz
'x, y, z'
_cell_length_a     40.101744
_cell_length_b     40.094665
_cell_length_c     39.973067
_cell_angle_alpha  90.008745
_cell_angle_beta   90.01204
_cell_angle_gamma 120.15943
loop_
_atom_site_label
_atom_site_type_symbol
_atom_site_fract_x
_atom_site_fract_y
_atom_site_fract_z
_atom_type_partial_charge
Sm0 Sm 0.04771 0.48499 1.00802 0.0
Sm1 Sm 0.99253 0.40046 0.02836 0.0
C2 C 0.09279 0.56034 1.00303 0.0
C3 C 0.12525 0.59918 1.01022 0.0
C4 C 0.13087 0.61618 0.04197 0.0
C5 C 0.15809 0.6553 0.04639 0.0
C6 C 0.17988 0.67804 1.0191 0.0
C7 C 0.175 0.66037 0.98769 0.0
C8 C 0.14805 0.62139 0.98337 0.0
C9 C 1.00827 0.4407 0.951 0.0
C10 C 0.08626 0.43152 1.01598 0.0
C11 C 0.94232 0.32594 0.0343 0.0
C12 C 0.89957 0.3031 0.03339 0.0
C13 C 0.87895 0.29914 1.0038 0.0
C14 C 0.83863 0.27803 1.00351 0.0
C15 C 0.81778 0.26112 0.03305 0.0
C16 C 0.83856 0.26582 0.06278 0.0
C17 C 0.87889 0.28621 0.06285 0.0
C18 C 0.02849 0.44647 0.08324 0.0
C19 C 0.95966 0.45959 0.02612 0.0
O20 O 0.06355 0.54409 0.02381 0.0
O21 O 0.09861 0.53599 0.9857 0.0
O22 O 1.00524 0.43138 0.98109 0.0
O23 O 0.03428 0.47681 0.9498 0.0
O24 O 0.09236 0.46694 1.01492 0.0
O25 O 0.05096 0.40079 1.01909 0.0
O26 O 0.96033 0.34163 1.00632 0.0
O27 O 0.95747 0.34886 0.06 0.0
O28 O 0.04457 0.4493 0.05513 0.0
O29 O 0.99146 0.42421 0.07998 0.0
O30 O 0.95051 0.42368 0.01925 0.0
O31 O 0.99588 0.48674 0.02974 0.0
H32 H 0.1135 0.59964 0.06308 0.0
H33 H 0.16157 0.6679 0.07102 0.0
H34 H 0.19077 0.67701 0.96601 0.0
H35 H 0.14379 0.60899 0.95855 0.0
H36 H 0.89386 0.31249 0.98083 0.0
H37 H 0.82394 0.27472 0.97996 0.0
H38 H 0.82376 0.25413 0.08623 0.0
H39 H 0.89396 0.28919 0.08615 0.0
Sm40 Sm 0.55975 0.57313 1.01055 0.0
Sm41 Sm 0.64191 0.60718 0.02591 0.0
C42 C 0.48497 0.54499 0.99984 0.0
C43 C 0.44658 0.54053 1.00663 0.0
C44 C 0.42632 0.5229 0.03619 0.0
C45 C 0.38721 0.5114 0.03928 0.0
C46 C 0.36741 0.51723 1.01293 0.0
C47 C 0.38825 0.53669 0.98411 0.0
C48 C 0.42734 0.54808 0.98098 0.0
C49 C 0.60714 0.58139 0.95584 0.0
C50 C 0.60629 0.66561 0.02149 0.0
C51 C 0.71681 0.63156 0.0227 0.0
C52 C 0.74011 0.61195 0.02453 0.0
C53 C 0.75363 0.60383 0.99491 0.0
C54 C 0.77471 0.58464 0.99577 0.0
C55 C 0.78345 0.57329 0.02634 0.0
C56 C 0.76989 0.5814 0.05606 0.0
C57 C 0.74845 0.60039 0.05517 0.0
C58 C 0.60116 0.59334 0.08507 0.0
C59 C 0.58545 0.51432 0.02884 0.0
O60 O 0.49889 0.53036 0.02116 0.0
O61 O 0.51156 0.5754 0.98409 0.0
O62 O 0.61281 0.6055 0.97807 0.0
O63 O 0.5752 0.5499 0.9621 0.0
O64 O 0.57234 0.63395 0.02022 0.0
O65 O 0.63894 0.66438 0.02216 0.0
O66 O 0.69473 0.62351 0.99638 0.0
O67 O 0.70011 0.6341 0.04998 0.0
O68 O 0.59379 0.60494 0.05802 0.0
O69 O 0.62692 0.58346 0.07947 0.0
O70 O 0.61927 0.5415 1.01765 0.0
O71 O 0.55929 0.52314 0.03687 0.0
H72 H 0.44019 0.51648 0.05642 0.0
H73 H 0.37221 0.49709 0.06206 0.0
H74 H 0.37391 0.54142 0.96323 0.0
H75 H 0.44204 0.56108 0.95773 0.0
H76 H 0.74766 0.61211 0.97082 0.0
H77 H 0.78379 0.57836 0.97225 0.0
H78 H 0.77632 0.57364 0.08017 0.0
H79 H 0.7385 0.60603 0.07853 0.0
Sm80 Sm 0.46398 0.9965 1.00568 0.0
Sm81 Sm 0.43759 0.04992 0.02634 0.0
C82 C 0.49837 0.95516 0.99773 0.0
C83 C 0.50226 0.92084 1.00382 0.0
C84 C 0.51095 0.91245 0.03571 0.0
C85 C 0.52172 0.88439 0.03964 0.0
C86 C 0.52434 0.86432 1.01175 0.0
C87 C 0.51392 0.87167 0.98014 0.0
C88 C 0.50301 0.89954 0.97627 0.0
C89 C 0.44798 0.03039 0.95216 0.0
C90 C 0.37371 0.95691 1.01733 0.0
C91 C 0.41348 0.10028 0.03265 0.0
C92 C 0.43326 0.14323 0.03227 0.0
C93 C 0.43609 0.16334 1.00261 0.0
C94 C 0.45545 0.20377 1.0022 0.0
C95 C 0.47231 0.22519 0.03153 0.0
C96 C 0.46922 0.205 0.06123 0.0
C97 C 0.44993 0.16464 0.06162 0.0
C98 C 0.44659 1.0134 0.08174 0.0
C99 C 0.52976 0.08497 0.02233 0.0
O100 O 0.5065 0.98 0.022 0.0
O101 O 0.47157 0.95263 0.97745 0.0
O102 O 0.46564 0.04757 0.9785 0.0
O103 O 0.43987 0.9948 0.95279 0.0
O104 O 0.40339 0.95158 0.01943 0.0
O105 O 0.37875 0.99232 1.01559 0.0
O106 O 0.4115 0.08279 1.00445 0.0
O107 O 0.42087 0.08457 0.05807 0.0
O108 O 0.43336 0.99804 0.05358 0.0
O109 O 0.46041 0.05029 0.07905 0.0
O110 O 0.50257 0.09423 0.02246 0.0
O111 O 0.5214 0.04901 0.01982 0.0
H112 H 0.51076 0.92846 0.05747 0.0
H113 H 0.52874 0.87899 0.06447 0.0
H114 H 0.51594 0.85725 0.95799 0.0
H115 H 0.49694 0.90575 0.95136 0.0
H116 H 0.4232 0.14779 0.97969 0.0
H117 H 0.45665 0.21822 0.97896 0.0
H118 H 0.48217 0.2204 0.08422 0.0
H119 H 0.44829 0.15026 0.085 0.0
Sm120 Sm 0.71524 0.81796 0.34287 0.0
Sm121 Sm 0.66157 0.73765 0.35984 0.0
C122 C 0.7559 0.8938 0.33513 0.0
C123 C 0.78876 0.93358 0.337 0.0
C124 C 0.81451 0.94703 0.36416 0.0
C125 C 0.84237 0.98638 0.36666 0.0
C126 C 0.84426 1.01272 0.34238 0.0
C127 C 0.81916 0.99878 0.31485 0.0
C128 C 0.79188 0.95962 0.31213 0.0
C129 C 0.68449 0.76954 0.28777 0.0
C130 C 0.75531 0.76845 0.35306 0.0
C131 C 0.61148 0.66254 0.36216 0.0
C132 C 0.56865 0.63901 0.36119 0.0
C133 C 0.54761 0.63687 0.3323 0.0
C134 C 0.50719 0.61534 0.33224 0.0
C135 C 0.48669 0.59555 0.36116 0.0
C136 C 0.5079 0.59798 0.39007 0.0
C137 C 0.54827 0.61924 0.39 0.0
C138 C 0.69465 0.77895 0.41771 0.0
C139 C 0.62635 0.79458 0.35733 0.0
O140 O 0.73641 0.87709 0.36226 0.0
O141 O 0.75505 0.86983 0.31252 0.0
O142 O 0.66583 0.76995 0.31302 0.0
O143 O 0.72051 0.79569 0.29075 0.0
O144 O 0.76026 0.80315 0.35686 0.0
O145 O 0.72006 0.73796 0.34944 0.0
O146 O 0.62946 0.68036 0.33475 0.0
O147 O 0.62637 0.68374 0.38882 0.0
O148 O 0.71212 0.78363 0.39017 0.0
O149 O 0.65788 0.75663 0.41302 0.0
O150 O 0.61713 0.75811 0.35605 0.0
O151 O 0.66242 0.8223 0.35646 0.0
H152 H 0.81245 0.9274 0.38373 0.0
H153 H 0.86139 0.99646 0.38816 0.0
H154 H 0.82027 0.01836 0.29562 0.0
H155 H 0.7722 0.94985 0.29105 0.0
H156 H 0.56231 0.65182 0.30969 0.0
H157 H 0.49209 0.61381 0.30932 0.0
H158 H 0.49335 0.58383 0.41302 0.0
H159 H 0.56361 0.62051 0.41272 0.0
Sm160 Sm 0.22632 0.91238 0.33765 0.0
Sm161 Sm 0.31121 0.94169 0.36195 0.0
C162 C 0.15126 0.88272 0.33183 0.0
C163 C 0.11272 0.87735 0.33801 0.0
C164 C 0.09592 0.86852 0.36997 0.0
C165 C 0.05681 0.85653 0.3739 0.0
C166 C 0.0339 0.85303 0.34595 0.0
C167 C 0.05136 0.8636 0.31427 0.0
C168 C 0.09036 0.87562 0.31039 0.0
C169 C 0.27292 0.91426 0.28434 0.0
C170 C 0.28278 1.005 0.34292 0.0
C171 C 0.38557 0.96561 0.36726 0.0
C172 C 0.40842 0.94575 0.36667 0.0
C173 C 0.41828 0.93517 0.33628 0.0
C174 C 0.43905 0.91567 0.33611 0.0
C175 C 0.45035 0.9061 0.36629 0.0
C176 C 0.44041 0.91669 0.39663 0.0
C177 C 0.41991 0.93642 0.3968 0.0
C178 C 0.26218 0.93536 0.41371 0.0
C179 C 0.25009 0.84939 0.36004 0.0
O180 O 0.16711 0.87137 0.3545 0.0
O181 O 0.17592 0.91109 0.31283 0.0
O182 O 0.28054 0.92146 0.31463 0.0
O183 O 0.23687 0.90362 0.28078 0.0
O184 O 0.24711 0.97628 0.33954 0.0
O185 O 0.31232 0.99982 0.35043 0.0
O186 O 0.36945 0.96693 0.33916 0.0
O187 O 0.3631 0.95877 0.39319 0.0
O188 O 0.26158 0.94649 0.38408 0.0
O189 O 0.28608 0.92236 0.41459 0.0
O190 O 0.28688 0.87587 0.35631 0.0
O191 O 0.22304 0.85877 0.36056 0.0
H192 H 0.11256 0.86954 0.39168 0.0
H193 H 0.0443 0.84919 0.3987 0.0
H194 H 0.0345 0.86083 0.29219 0.0
H195 H 0.10262 0.88178 0.28545 0.0
H196 H 0.41001 0.94193 0.31256 0.0
H197 H 0.4467 0.90859 0.31224 0.0
H198 H 0.44808 0.90938 0.42037 0.0
H199 H 0.41277 0.9441 0.42064 0.0
Sm200 Sm 0.13244 0.32854 0.34078 0.0
Sm201 Sm 0.10475 0.38608 0.36153 0.0
C202 C 0.15699 0.27899 0.34306 0.0
C203 C 0.17074 0.25121 0.34439 0.0
C204 C 0.17152 0.23434 0.37494 0.0
C205 C 0.18498 0.20823 0.37628 0.0
C206 C 0.19836 0.19922 0.34719 0.0
C207 C 0.19752 0.21599 0.31664 0.0
C208 C 0.18347 0.24159 0.31519 0.0
C209 C 0.12891 0.36868 0.28438 0.0
C210 C 0.0402 0.29328 0.34559 0.0
C211 C 0.08093 0.4366 0.36713 0.0
C212 C 0.10111 0.47913 0.36582 0.0
C213 C 0.13471 0.50019 0.34659 0.0
C214 C 0.15444 0.5406 0.34673 0.0
C215 C 0.14113 0.56077 0.36629 0.0
C216 C 0.10756 0.53944 0.3856 0.0
C217 C 0.08784 0.49907 0.38539 0.0
C218 C 0.11356 0.34838 0.41545 0.0
C219 C 0.19747 0.41828 0.35456 0.0
O220 O 0.16402 0.30392 0.36717 0.0
O221 O 0.13702 0.28048 0.31771 0.0
O222 O 0.12264 0.37191 0.31455 0.0
O223 O 0.13844 0.34218 0.28279 0.0
O224 O 0.06856 0.28628 0.3412 0.0
O225 O 0.04582 0.32821 0.35308 0.0
O226 O 0.0789 0.41865 0.3392 0.0
O227 O 0.08908 0.42195 0.39291 0.0
O228 O 0.09996 0.33321 0.38711 0.0
O229 O 0.12872 0.38556 0.41315 0.0
O230 O 0.17024 0.42773 0.35388 0.0
O231 O 0.18956 0.38219 0.35423 0.0
H232 H 0.1616 0.24123 0.39771 0.0
H233 H 0.18546 0.1955 0.40005 0.0
H234 H 0.20785 0.20934 0.29398 0.0
H235 H 0.1832 0.25438 0.29139 0.0
H236 H 0.1459 0.48542 0.33168 0.0
H237 H 0.18046 0.55604 0.33193 0.0
H238 H 0.09619 0.55392 0.40063 0.0
H239 H 0.06223 0.48338 0.40065 0.0
Sm240 Sm 0.38051 0.15143 0.6742 0.0
Sm241 Sm 0.32912 0.06957 0.68917 0.0
C242 C 0.42855 0.22589 0.66524 0.0
C243 C 0.4609 0.26582 0.66756 0.0
C244 C 0.48051 0.28122 0.69782 0.0
C245 C 0.5073 0.32078 0.70046 0.0
C246 C 0.51418 0.34537 0.67306 0.0
C247 C 0.49525 0.3297 0.64267 0.0
C248 C 0.46904 0.2902 0.63988 0.0
C249 C 0.3401 0.1051 0.61937 0.0
C250 C 0.42207 0.10066 0.68314 0.0
C251 C 0.27718 0.99506 0.68729 0.0
C252 C 0.23432 0.97321 0.68952 0.0
C253 C 0.21153 0.97924 0.66617 0.0
C254 C 0.17123 0.95796 0.66791 0.0
C255 C 0.15252 0.93018 0.6931 0.0
C256 C 0.17531 0.92474 0.71686 0.0
C257 C 0.21572 0.94595 0.71504 0.0
C258 C 0.35726 0.11079 0.74803 0.0
C259 C 0.2955 0.12775 0.6913 0.0
O260 O 0.40374 0.21185 0.68981 0.0
O261 O 0.42936 0.19993 0.64592 0.0
O262 O 0.35767 0.09835 0.64164 0.0
O263 O 0.34213 0.13777 0.62562 0.0
O264 O 0.42696 0.13563 0.68165 0.0
O265 O 0.38726 0.06932 0.68502 0.0
O266 O 0.29194 0.01622 0.66054 0.0
O267 O 0.29643 1.01216 0.71446 0.0
O268 O 0.37655 0.11663 0.72136 0.0
O269 O 0.32118 0.08628 0.74218 0.0
O270 O 0.2877 0.09366 0.67999 0.0
O271 O 0.33093 0.153 0.69949 0.0
H272 H 0.47431 0.26294 0.71959 0.0
H273 H 0.52153 0.33241 0.72417 0.0
H274 H 0.50022 0.3482 0.62125 0.0
H275 H 0.45391 0.27893 0.61644 0.0
H276 H 0.22475 1.00034 0.64637 0.0
H277 H 0.15469 0.96342 0.64953 0.0
H278 H 0.16191 0.90341 0.73647 0.0
H279 H 0.23246 0.94081 0.73344 0.0
Sm280 Sm 0.89476 0.24033 0.67544 0.0
Sm281 Sm 0.98072 0.2738 0.69471 0.0
C282 C 0.81932 0.20945 0.66984 0.0
C283 C 0.78071 0.20418 0.67637 0.0
C284 C 0.75935 0.1843 0.70477 0.0
C285 C 0.72031 0.17324 0.7073 0.0
C286 C 0.70179 0.18153 0.68138 0.0
C287 C 0.72372 0.20283 0.65367 0.0
C288 C 0.76269 0.21399 0.65122 0.0
C289 C 0.93882 0.24577 0.61829 0.0
C290 C 0.94599 0.33328 0.68484 0.0
C291 C 0.05559 0.29952 0.69841 0.0
C292 C 0.07824 0.27975 0.69573 0.0
C293 C 0.06841 0.24991 0.67244 0.0
C294 C 0.0887 0.22993 0.67158 0.0
C295 C 0.11878 0.2389 0.69437 0.0
C296 C 0.12833 0.26859 0.71779 0.0
C297 C 0.10828 0.28881 0.7184 0.0
C298 C 0.93511 0.26165 0.75029 0.0
C299 C 0.92356 0.18123 0.69347 0.0
O300 O 0.83531 0.19691 0.69132 0.0
O301 O 0.84406 0.23915 0.65214 0.0
O302 O 0.94861 0.25333 0.64817 0.0
O303 O 0.90238 0.23394 0.61736 0.0
O304 O 0.9114 0.30256 0.6826 0.0
O305 O 0.97789 0.33081 0.68738 0.0
O306 O 0.03881 0.30195 0.67116 0.0
O307 O 0.03348 0.29063 0.72477 0.0
O308 O 0.9308 0.27395 0.7222 0.0
O309 O 0.95909 0.24905 0.74677 0.0
O310 O 0.95864 0.20885 0.68527 0.0
O311 O 0.89543 0.18851 0.69809 0.0
H312 H 0.77235 0.17607 0.72446 0.0
H313 H 0.70442 0.15744 0.72926 0.0
H314 H 0.71039 0.20934 0.63305 0.0
H315 H 0.77826 0.22872 0.62876 0.0
H316 H 0.04465 0.24154 0.65525 0.0
H317 H 0.0803 0.2069 0.65354 0.0
H318 H 0.15155 0.27642 0.7355 0.0
H319 H 0.11597 0.31129 0.73689 0.0
Sm320 Sm 0.79814 0.66012 0.67393 0.0
Sm321 Sm 0.77113 0.71751 0.69724 0.0
C322 C 0.82236 0.61032 0.67456 0.0
C323 C 0.83594 0.58244 0.67639 0.0
C324 C 0.84313 0.57151 0.70767 0.0
C325 C 0.85653 0.54551 0.70987 0.0
C326 C 0.86362 0.5303 0.68077 0.0
C327 C 0.85594 0.54103 0.6494 0.0
C328 C 0.84202 0.56673 0.64725 0.0
C329 C 0.79683 0.70346 0.61913 0.0
C330 C 0.70579 0.62591 0.678 0.0
C331 C 0.74836 0.76873 0.70484 0.0
C332 C 0.76806 0.81102 0.70162 0.0
C333 C 0.8063 0.83208 0.69017 0.0
C334 C 0.82541 0.87243 0.68874 0.0
C335 C 0.80658 0.89246 0.69872 0.0
C336 C 0.76818 0.87107 0.71003 0.0
C337 C 0.74916 0.83077 0.71147 0.0
C338 C 0.77585 0.67397 0.74921 0.0
C339 C 0.86331 0.74778 0.69324 0.0
O340 O 0.83229 0.63716 0.69742 0.0
O341 O 0.79963 0.61003 0.6508 0.0
O342 O 0.7899 0.70547 0.6494 0.0
O343 O 0.80692 0.67743 0.61674 0.0
O344 O 0.73395 0.61842 0.6742 0.0
O345 O 0.71184 0.66088 0.68606 0.0
O346 O 0.74319 0.74925 0.67722 0.0
O347 O 0.76 0.75587 0.72961 0.0
O348 O 0.76423 0.66253 0.71966 0.0
O349 O 0.79005 0.71108 0.75002 0.0
O350 O 0.83694 0.75813 0.68962 0.0
O351 O 0.8537 0.71122 0.69386 0.0
H352 H 0.83816 0.58291 0.73051 0.0
H353 H 0.86122 0.53724 0.73444 0.0
H354 H 0.86145 0.53024 0.62647 0.0
H355 H 0.83673 0.57488 0.62284 0.0
H356 H 0.82145 0.81734 0.68252 0.0
H357 H 0.8548 0.88791 0.67959 0.0
H358 H 0.75299 0.88551 0.71839 0.0
H359 H 0.7198 0.81501 0.72066 0.0
C360 C 0.30063 0.4638 0.02721 0.0
C361 C 0.32483 0.50115 1.01472 0.0
C362 C 0.26036 0.44765 0.02817 0.0
C363 C 0.24369 0.46931 1.01649 0.0
C364 C 0.26795 0.50715 1.00405 0.0
C365 C 0.30814 0.5225 1.00316 0.0
C366 C 0.23559 0.40727 0.04155 0.0
C367 C 0.25151 0.53162 0.99198 0.0
C368 C 0.13767 0.42184 0.99114 0.0
C369 C 0.12154 0.42908 0.01929 0.0
C370 C 0.17714 0.43319 0.9904 0.0
C371 C 0.20099 0.45289 1.01821 0.0
C372 C 0.18428 0.45862 0.04722 0.0
C373 C 0.14478 0.44646 0.04744 0.0
C374 C 0.1938 0.42634 0.95906 0.0
C375 C 0.20861 0.48008 0.07716 0.0
H376 H 0.31314 0.44682 0.03569 0.0
H377 H 0.3266 0.55148 0.99376 0.0
H378 H 0.21875 0.40766 0.06341 0.0
H379 H 0.21459 0.38877 0.02217 0.0
H380 H 0.25291 0.39398 0.0493 0.0
H381 H 0.27425 0.5605 0.98321 0.0
H382 H 0.23102 0.51686 0.97114 0.0
H383 H 0.23512 0.53558 1.01245 0.0
H384 H 0.12012 0.40979 0.96892 0.0
H385 H 0.13258 0.45322 0.0688 0.0
H386 H 0.21181 0.4134 0.96539 0.0
H387 H 0.21276 0.45429 0.94648 0.0
H388 H 0.171 0.40707 0.94118 0.0
H389 H 0.22531 0.46658 0.08594 0.0
H390 H 0.19095 0.48069 0.09823 0.0
H391 H 0.22966 0.51025 0.07003 0.0
C392 C 0.57035 0.84574 0.03703 0.0
C393 C 0.53964 0.83729 1.01514 0.0
C394 C 0.58587 0.82123 0.03963 0.0
C395 C 0.57077 0.78765 0.01957 0.0
C396 C 0.53982 0.7789 0.99744 0.0
C397 C 0.52455 0.80365 0.99563 0.0
C398 C 0.61809 0.83095 0.06419 0.0
C399 C 0.52236 0.74303 0.97599 0.0
C400 C 0.6254 0.73349 1.00488 0.0
C401 C 0.6049 0.70153 0.02578 0.0
C402 C 0.61556 0.76272 1.00332 0.0
C403 C 0.58513 0.75999 0.02354 0.0
C404 C 0.56625 0.72896 0.04617 0.0
C405 C 0.57589 0.69998 0.04652 0.0
C406 C 0.63594 0.79515 0.97854 0.0
C407 C 0.53398 0.72481 0.06854 0.0
H408 H 0.5827 0.87185 0.05189 0.0
H409 H 0.50042 0.79636 0.97909 0.0
H410 H 0.60877 0.80746 0.08289 0.0
H411 H 0.64346 0.83322 0.05094 0.0
H412 H 0.62709 0.85843 0.07764 0.0
H413 H 0.50006 0.7416 0.9586 0.0
H414 H 0.54517 0.74197 0.96112 0.0
H415 H 0.50887 0.71701 0.99214 0.0
H416 H 0.64703 0.73426 0.98813 0.0
H417 H 0.55892 0.67476 0.0619 0.0
H418 H 0.64603 0.82337 0.99097 0.0
H419 H 0.61546 0.79234 0.95857 0.0
H420 H 0.66102 0.79513 0.96677 0.0
H421 H 0.54229 0.75241 0.08144 0.0
H422 H 0.52599 0.702 0.08775 0.0
H423 H 0.50808 0.71723 0.05318 0.0
C424 C 0.33524 0.89932 0.05127 0.0
C425 C 0.33627 0.92252 0.02455 0.0
C426 C 0.30745 0.86016 0.05276 0.0
C427 C 0.27904 0.84407 0.02747 0.0
C428 C 0.27751 0.86829 1.00233 0.0
C429 C 0.30663 0.90741 1.00087 0.0
C430 C 0.3111 0.8355 0.07947 0.0
C431 C 0.2469 0.85223 0.97553 0.0
C432 C 0.24141 0.73896 1.0055 0.0
C433 C 0.20611 0.72039 0.02264 0.0
C434 C 0.26524 0.77918 1.00672 0.0
C435 C 0.25357 0.80146 0.02559 0.0
C436 C 0.21841 0.78291 0.0435 0.0
C437 C 0.19505 0.74261 0.04176 0.0
C438 C 0.30302 0.79776 0.98789 0.0
C439 C 0.20537 0.8057 0.06428 0.0
H440 H 0.35849 0.91111 0.06947 0.0
H441 H 0.30782 0.92517 0.97994 0.0
H442 H 0.28263 0.81517 0.09054 0.0
H443 H 0.32253 0.81803 0.06805 0.0
H444 H 0.33099 0.85318 0.09987 0.0
H445 H 0.24622 0.87544 0.9609 0.0
H446 H 0.25263 0.83415 0.9581 0.0
H447 H 0.21805 0.83351 0.98678 0.0
H448 H 0.25051 0.722 0.99115 0.0
H449 H 0.16762 0.7286 0.05474 0.0
H450 H 0.3273 0.81429 1.00546 0.0
H451 H 0.30352 0.81847 0.96922 0.0
H452 H 0.30799 0.77626 0.97466 0.0
H453 H 0.22719 0.82238 0.08377 0.0
H454 H 0.17725 0.78695 0.07674 0.0
H455 H 0.20273 0.82681 0.0482 0.0
C456 C 0.5159 0.28942 1.00416 0.0
C457 C 0.49261 0.26832 0.03132 0.0
C458 C 0.53429 0.32994 1.0033 0.0
C459 C 0.52955 0.35003 0.03032 0.0
C460 C 0.50677 0.32901 0.05813 0.0
C461 C 0.48849 0.28853 0.05822 0.0
C462 C 0.55796 0.35119 0.97303 0.0
C463 C 0.50085 0.34924 0.08744 0.0
C464 C 0.59697 0.45897 0.03917 0.0
C465 C 0.57342 0.47292 0.02738 0.0
C466 C 0.58322 0.41894 0.04026 0.0
C467 C 0.54558 0.39263 0.02833 0.0
C468 C 0.52245 0.40696 1.0152 0.0
C469 C 0.53643 0.44678 1.01533 0.0
C470 C 0.6084 0.40474 0.05513 0.0
C471 C 0.4826 0.38019 1.00142 0.0
H472 H 0.51982 0.27425 0.98347 0.0
H473 H 0.47017 0.27264 0.07913 0.0
H474 H 0.54448 0.36601 0.96018 0.0
H475 H 0.58733 0.37373 0.98077 0.0
H476 H 0.56051 0.3316 0.95488 0.0
H477 H 0.48505 0.32913 0.10831 0.0
H478 H 0.52906 0.37243 0.09693 0.0
H479 H 0.48421 0.36308 0.0793 0.0
H480 H 0.62545 0.47918 0.04868 0.0
H481 H 0.51829 0.45759 1.00587 0.0
H482 H 0.61208 0.38585 0.03705 0.0
H483 H 0.59424 0.38713 0.07769 0.0
H484 H 0.63732 0.42881 0.06232 0.0
H485 H 0.48394 0.36116 0.98196 0.0
H486 H 0.46925 0.39611 0.99031 0.0
H487 H 0.46352 0.36133 0.02165 0.0
C488 C 0.59701 0.10896 1.004 0.0
C489 C 0.57092 0.11478 0.0229 0.0
C490 C 0.63671 0.13505 1.00546 0.0
C491 C 0.65081 0.16724 0.02711 0.0
C492 C 0.62454 0.17354 0.04602 0.0
C493 C 0.58468 0.14742 0.0433 0.0
C494 C 0.66358 0.12776 0.98421 0.0
C495 C 0.63861 0.20703 0.06996 0.0
C496 C 0.75472 0.20592 0.05357 0.0
C497 C 0.77467 0.23832 0.03277 0.0
C498 C 0.71432 0.18368 0.0531 0.0
C499 C 0.69318 0.19328 0.03062 0.0
C500 C 0.7129 0.22598 1.00971 0.0
C501 C 0.7533 0.24838 1.01135 0.0
C502 C 0.69433 0.14921 0.07606 0.0
C503 C 0.6914 0.23659 0.98484 0.0
H504 H 0.5863 0.0838 0.98797 0.0
H505 H 0.56445 0.15163 0.05811 0.0
H506 H 0.68256 0.15371 0.96911 0.0
H507 H 0.68247 0.12192 1.00049 0.0
H508 H 0.64775 0.10286 0.96702 0.0
H509 H 0.61447 0.20857 0.08205 0.0
H510 H 0.6565 0.20427 0.08975 0.0
H511 H 0.65719 0.23456 0.05667 0.0
H512 H 0.77065 0.19723 0.06977 0.0
H513 H 0.76809 0.27371 0.99564 0.0
H514 H 0.68101 0.12227 0.06109 0.0
H515 H 0.67079 0.15002 0.08997 0.0
H516 H 0.71449 0.14793 0.09438 0.0
H517 H 0.6767 0.21304 0.96624 0.0
H518 H 0.71079 0.26376 0.97128 0.0
H519 H 0.66874 0.23991 0.9977 0.0
C520 C 0.89473 0.45166 1.01174 0.0
C521 C 0.92976 0.47106 0.02919 0.0
C522 C 0.86874 0.46574 1.01166 0.0
C523 C 0.87765 0.49958 0.02998 0.0
C524 C 0.91225 0.51821 0.04877 0.0
C525 C 0.93792 0.50401 0.04786 0.0
C526 C 0.83249 0.4453 0.99091 0.0
C527 C 0.92272 0.55386 0.0692 0.0
C528 C 0.83715 0.56387 1.00404 0.0
C529 C 0.80697 0.55359 0.02704 0.0
C530 C 0.85948 0.54578 1.00416 0.0
C531 C 0.85213 0.51693 0.02821 0.0
C532 C 0.8218 0.50632 0.05152 0.0
C533 C 0.79952 0.52455 0.05055 0.0
C534 C 0.89144 0.55806 0.97878 0.0
C535 C 0.81326 0.47608 0.07785 0.0
H536 H 0.88837 0.42643 0.99702 0.0
H537 H 0.96481 0.51911 0.06163 0.0
H538 H 0.80688 0.43821 1.00648 0.0
H539 H 0.83357 0.46466 0.97057 0.0
H540 H 0.82862 0.4183 0.97954 0.0
H541 H 0.94924 0.56332 0.0843 0.0
H542 H 0.92743 0.57785 0.05238 0.0
H543 H 0.8987 0.5484 0.0863 0.0
H544 H 0.84391 0.58669 0.98615 0.0
H545 H 0.77605 0.51579 0.06816 0.0
H546 H 0.88809 0.53254 0.96498 0.0
H547 H 0.91973 0.57141 0.99174 0.0
H548 H 0.89196 0.57912 0.96043 0.0
H549 H 0.80725 0.44866 0.06586 0.0
H550 H 0.78822 0.47042 0.09373 0.0
H551 H 0.83885 0.48554 0.09418 0.0
C552 C 0.80309 0.74953 0.33436 0.0
C553 C 0.79018 0.76578 0.35837 0.0
C554 C 0.8421 0.7592 0.33381 0.0
C555 C 0.86839 0.78633 0.35722 0.0
C556 C 0.85461 0.80053 0.38286 0.0
C557 C 0.81556 0.78939 0.38348 0.0
C558 C 0.85571 0.74259 0.30679 0.0
C559 C 0.88151 0.83039 0.40773 0.0
C560 C 0.96986 0.80384 0.36949 0.0
C561 C 0.99156 0.83638 0.34931 0.0
C562 C 0.92963 0.78673 0.37177 0.0
C563 C 0.91066 0.80256 0.35349 0.0
C564 C 0.93241 0.83554 0.33322 0.0
C565 C 0.97258 0.85197 0.3313 0.0
C566 C 0.90739 0.75179 0.39381 0.0
C567 C 0.91338 0.8539 0.31395 0.0
H568 H 0.78364 0.73177 0.31469 0.0
H569 H 0.80548 0.80203 0.40207 0.0
H570 H 0.87237 0.76512 0.28783 0.0
H571 H 0.87518 0.73313 0.31741 0.0
H572 H 0.83124 0.71771 0.29403 0.0
H573 H 0.86563 0.83519 0.42819 0.0
H574 H 0.90134 0.82178 0.41895 0.0
H575 H 0.89951 0.85822 0.3946 0.0
H576 H 0.98426 0.79127 0.38307 0.0
H577 H 0.98922 0.87735 0.31596 0.0
H578 H 0.88483 0.72762 0.37891 0.0
H579 H 0.89249 0.75832 0.41394 0.0
H580 H 0.92629 0.74222 0.40554 0.0
H581 H 0.89162 0.83264 0.29645 0.0
H582 H 0.93446 0.87946 0.29937 0.0
H583 H 0.89799 0.86302 0.33146 0.0
C584 C 0.25427 0.18862 0.34927 0.0
C585 C 0.21431 0.17322 0.34878 0.0
C586 C 0.27011 0.16438 0.3499 0.0
C587 C 0.24532 0.12387 0.34954 0.0
C588 C 0.20475 0.10824 0.34944 0.0
C589 C 0.18972 0.13323 0.3492 0.0
C590 C 0.31337 0.18206 0.35045 0.0
C591 C 0.17728 0.06522 0.34901 0.0
C592 C 0.28019 0.05841 0.3151 0.0
C593 C 0.28628 0.04315 0.3444 0.0
C594 C 0.26843 0.08599 0.31644 0.0
C595 C 0.26181 0.09789 0.34791 0.0
C596 C 0.26941 0.08365 0.37763 0.0
C597 C 0.28171 0.05651 0.37547 0.0
C598 C 0.26059 0.10038 0.28417 0.0
C599 C 0.26196 0.09489 0.41166 0.0
H600 H 0.27307 0.21968 0.34904 0.0
H601 H 0.15877 0.12159 0.3488 0.0
H602 H 0.32208 0.17072 0.37202 0.0
H603 H 0.32297 0.1739 0.3274 0.0
H604 H 0.32861 0.21403 0.35219 0.0
H605 H 0.14661 0.05781 0.35 0.0
H606 H 0.18173 0.05257 0.32593 0.0
H607 H 0.1831 0.05149 0.37058 0.0
H608 H 0.28211 0.0468 0.29113 0.0
H609 H 0.28454 0.04334 0.3981 0.0
H610 H 0.27537 0.13235 0.28422 0.0
H611 H 0.22919 0.08942 0.28178 0.0
H612 H 0.27025 0.09088 0.26193 0.0
H613 H 0.27658 0.12674 0.41397 0.0
H614 H 0.27202 0.08343 0.43217 0.0
H615 H 0.23058 0.08351 0.4149 0.0
C616 C 0.9888 0.2369 0.31646 0.0
C617 C 1.00187 0.25839 0.34603 0.0
C618 C 0.96179 0.19724 0.31711 0.0
C619 C 0.94762 0.17843 0.34822 0.0
C620 C 0.95947 0.20038 0.37817 0.0
C621 C 0.98661 0.24013 0.37671 0.0
C622 C 0.9504 0.17502 0.28461 0.0
C623 C 0.94553 0.18148 0.41187 0.0
C624 C 0.85628 0.08017 0.34414 0.0
C625 C 0.87084 0.05491 0.34613 0.0
C626 C 0.88082 0.12029 0.34596 0.0
C627 C 0.92108 0.13572 0.3492 0.0
C628 C 0.93596 0.11029 0.35165 0.0
C629 C 0.91057 0.07012 0.35043 0.0
C630 C 0.86373 0.14627 0.34388 0.0
C631 C 0.97874 0.12548 0.35456 0.0
H632 H 1.00195 0.25063 0.29289 0.0
H633 H 0.99817 0.25624 0.39973 0.0
H634 H 0.96111 0.15432 0.28428 0.0
H635 H 0.91855 0.15802 0.2823 0.0
H636 H 0.96227 0.19424 0.26248 0.0
H637 H 0.95304 0.20302 0.43216 0.0
H638 H 0.91381 0.16188 0.41166 0.0
H639 H 0.95895 0.16379 0.41773 0.0
H640 H 0.8255 0.06842 0.34112 0.0
H641 H 0.92186 0.05062 0.35176 0.0
H642 H 0.87444 0.16444 0.32109 0.0
H643 H 0.87306 0.166 0.36575 0.0
H644 H 0.83171 0.12975 0.34311 0.0
H645 H 0.99361 0.14237 0.33187 0.0
H646 H 0.98553 0.10196 0.35748 0.0
H647 H 0.99073 0.14523 0.37629 0.0
C648 C 0.26384 0.79479 0.36714 0.0
C649 C 0.23749 0.80765 0.3623 0.0
C650 C 0.25122 0.75504 0.36875 0.0
C651 C 0.21145 0.72761 0.36496 0.0
C652 C 0.18485 0.7405 0.35996 0.0
C653 C 0.19811 0.78016 0.35887 0.0
C654 C 0.28036 0.74234 0.37449 0.0
C655 C 0.14225 0.71237 0.35547 0.0
C656 C 0.17625 0.62462 0.33648 0.0
C657 C 0.16179 0.60383 0.36635 0.0
C658 C 0.19387 0.66506 0.3359 0.0
C659 C 0.1972 0.68532 0.3659 0.0
C660 C 0.18367 0.66463 0.39628 0.0
C661 C 0.16617 0.62422 0.39614 0.0
C662 C 0.20754 0.68595 0.30292 0.0
C663 C 0.18664 0.68509 0.42882 0.0
H664 H 0.29425 0.81573 0.36983 0.0
H665 H 0.17738 0.78956 0.35482 0.0
H666 H 0.2725 0.72387 0.39711 0.0
H667 H 0.28017 0.72468 0.35303 0.0
H668 H 0.31007 0.76715 0.37768 0.0
H669 H 0.12536 0.72711 0.35158 0.0
H670 H 0.13764 0.69343 0.33364 0.0
H671 H 0.13068 0.6935 0.37778 0.0
H672 H 0.17265 0.60919 0.31327 0.0
H673 H 0.15571 0.60852 0.41944 0.0
H674 H 0.23787 0.70975 0.30502 0.0
H675 H 0.18981 0.69908 0.29616 0.0
H676 H 0.20557 0.66644 0.28232 0.0
H677 H 0.21669 0.70879 0.43286 0.0
H678 H 0.17762 0.66527 0.45063 0.0
H679 H 0.16809 0.69829 0.42773 0.0
C680 C 0.26377 0.44506 0.33202 0.0
C681 C 0.23866 0.44847 0.3543 0.0
C682 C 0.30362 0.47121 0.33278 0.0
C683 C 0.31902 0.50074 0.35727 0.0
C684 C 0.29368 0.50447 0.37974 0.0
C685 C 0.25363 0.4786 0.37763 0.0
C686 C 0.32932 0.46676 0.30772 0.0
C687 C 0.30901 0.5348 0.40681 0.0
C688 C 0.42428 0.5372 0.37898 0.0
C689 C 0.44351 0.57208 0.36113 0.0
C690 C 0.38382 0.51451 0.37889 0.0
C691 C 0.36176 0.52645 0.36001 0.0
C692 C 0.38082 0.56169 0.34214 0.0
C693 C 0.42134 0.58415 0.34309 0.0
C694 C 0.36473 0.47729 0.39852 0.0
C695 C 0.35844 0.57522 0.32136 0.0
H696 H 0.25213 0.42173 0.31394 0.0
H697 H 0.23422 0.48084 0.39515 0.0
H698 H 0.34765 0.49449 0.29457 0.0
H699 H 0.34889 0.45906 0.32085 0.0
H700 H 0.31256 0.44414 0.28879 0.0
H701 H 0.28553 0.53476 0.42159 0.0
H702 H 0.32767 0.52967 0.42404 0.0
H703 H 0.32712 0.56384 0.39573 0.0
H704 H 0.44086 0.52707 0.39255 0.0
H705 H 0.43563 0.61128 0.32967 0.0
H706 H 0.35039 0.45246 0.38112 0.0
H707 H 0.3421 0.47634 0.41512 0.0
H708 H 0.38565 0.47362 0.41404 0.0
H709 H 0.34271 0.55403 0.30118 0.0
H710 H 0.37737 0.60387 0.3098 0.0
H711 H 0.33656 0.577 0.33702 0.0
C712 C 0.46524 0.85686 0.34245 0.0
C713 C 0.47292 0.88573 0.36615 0.0
C714 C 0.48741 0.83868 0.34119 0.0
C715 C 0.5177 0.8492 0.36446 0.0
C716 C 0.52491 0.87746 0.38905 0.0
C717 C 0.50268 0.89556 0.38944 0.0
C718 C 0.47917 0.80907 0.3143 0.0
C719 C 0.55691 0.88947 0.41438 0.0
C720 C 0.56228 0.78526 0.3757 0.0
C721 C 0.59661 0.80601 0.35763 0.0
C722 C 0.53604 0.79881 0.37812 0.0
C723 C 0.54403 0.83323 0.36132 0.0
C724 C 0.57807 0.85337 0.34206 0.0
C725 C 0.60409 0.83977 0.34081 0.0
C726 C 0.50045 0.77706 0.39945 0.0
C727 C 0.58736 0.88968 0.32315 0.0
H728 H 0.44193 0.84851 0.32471 0.0
H729 H 0.50935 0.91818 0.40754 0.0
H730 H 0.50441 0.81969 0.29736 0.0
H731 H 0.47455 0.78182 0.32563 0.0
H732 H 0.45342 0.80271 0.29913 0.0
H733 H 0.55649 0.90916 0.43372 0.0
H734 H 0.55456 0.86371 0.42697 0.0
H735 H 0.58524 0.90441 0.40151 0.0
H736 H 0.55668 0.75935 0.38893 0.0
H737 H 0.63051 0.85571 0.32653 0.0
H738 H 0.47425 0.76935 0.38449 0.0
H739 H 0.50128 0.79575 0.4203 0.0
H740 H 0.49784 0.75027 0.41014 0.0
H741 H 0.56308 0.88418 0.30636 0.0
H742 H 0.61398 0.90068 0.30787 0.0
H743 H 0.59128 0.91259 0.34097 0.0
C744 C 0.64393 0.18874 0.67077 0.0
C745 C 0.65942 0.16629 0.68228 0.0
C746 C 0.60393 0.17418 0.67059 0.0
C747 C 0.57876 0.13624 0.68228 0.0
C748 C 0.59417 0.11345 0.69388 0.0
C749 C 0.63425 0.12868 0.69366 0.0
C750 C 0.58868 0.1997 0.65853 0.0
C751 C 0.56827 0.07299 0.70666 0.0
C752 C 0.48132 0.11645 0.71372 0.0
C753 C 0.45767 0.09895 0.68588 0.0
C754 C 0.52057 0.12785 0.71314 0.0
C755 C 0.53646 0.12121 0.68406 0.0
C756 C 0.51225 0.10179 0.65639 0.0
C757 C 0.47302 0.09106 0.65756 0.0
C758 C 0.5454 0.1487 0.74305 0.0
C759 C 0.52829 0.09455 0.62485 0.0
H760 H 0.66313 0.21797 0.66228 0.0
H761 H 0.64585 0.11082 0.70199 0.0
H762 H 0.56729 0.18508 0.63826 0.0
H763 H 0.57363 0.20509 0.6793 0.0
H764 H 0.61196 0.22793 0.64905 0.0
H765 H 0.58464 0.05844 0.71361 0.0
H766 H 0.5522 0.07375 0.72896 0.0
H767 H 0.54663 0.05545 0.68732 0.0
H768 H 0.4696 0.12343 0.73524 0.0
H769 H 0.45503 0.07889 0.63558 0.0
H770 H 0.57095 0.17628 0.73527 0.0
H771 H 0.55613 0.13076 0.75469 0.0
H772 H 0.5295 0.15518 0.76221 0.0
H773 H 0.54795 0.12246 0.61249 0.0
H774 H 0.50521 0.07601 0.60687 0.0
H775 H 0.54547 0.08063 0.63089 0.0
C776 C 0.91647 0.36681 0.71237 0.0
C777 C 0.94556 0.3693 0.69115 0.0
C778 C 0.90592 0.3951 0.71247 0.0
C779 C 0.92557 0.4274 0.69126 0.0
C780 C 0.95719 0.43183 0.6718 0.0
C781 C 0.96675 0.40242 0.67176 0.0
C782 C 0.87168 0.38867 0.73328 0.0
C783 C 0.97925 0.46645 0.64948 0.0
C784 C 0.86702 0.4724 0.66157 0.0
C785 C 0.87968 0.50402 0.68324 0.0
C786 C 0.88228 0.4477 0.66351 0.0
C787 C 0.91088 0.45471 0.68775 0.0
C788 C 0.92349 0.48629 0.70991 0.0
C789 C 0.90791 0.51065 0.70728 0.0
C790 C 0.86725 0.41365 0.64001 0.0
C791 C 0.95325 0.49415 0.73657 0.0
H792 H 0.89986 0.34108 0.72728 0.0
H793 H 0.98886 0.40416 0.65506 0.0
H794 H 0.87874 0.41475 0.74813 0.0
H795 H 0.8473 0.38297 0.71653 0.0
H796 H 0.86186 0.36383 0.75063 0.0
H797 H 1.00563 0.46795 0.63903 0.0
H798 H 0.96054 0.46506 0.62844 0.0
H799 H 0.98762 0.4934 0.66355 0.0
H800 H 0.84466 0.46654 0.6434 0.0
H801 H 0.91823 0.53522 0.72392 0.0
H802 H 0.85369 0.3864 0.65457 0.0
H803 H 0.89144 0.41477 0.62562 0.0
H804 H 0.84562 0.41274 0.6221 0.0
H805 H 0.94252 0.46914 0.75378 0.0
H806 H 0.96041 0.52025 0.75154 0.0
H807 H 0.98003 0.49798 0.72486 0.0
C808 C 0.65157 0.57254 0.70829 0.0
C809 C 0.66721 0.59135 0.67788 0.0
C810 C 0.62443 0.53281 0.70925 0.0
C811 C 0.61283 0.51142 0.67903 0.0
C812 C 0.62703 0.53082 0.64816 0.0
C813 C 0.6542 0.57045 0.64802 0.0
C814 C 0.6104 0.5133 0.74274 0.0
C815 C 0.6157 0.50922 0.61536 0.0
C816 C 0.57928 0.40396 0.68024 0.0
C817 C 0.5394 0.3876 0.67642 0.0
C818 C 0.60357 0.44426 0.68149 0.0
C819 C 0.58736 0.46857 0.67957 0.0
C820 C 0.54688 0.4519 0.67667 0.0
C821 C 0.52342 0.41161 0.67473 0.0
C822 C 0.6466 0.46077 0.68408 0.0
C823 C 0.52843 0.47669 0.67518 0.0
H824 H 0.66294 0.58811 0.73151 0.0
H825 H 0.66757 0.58457 0.62463 0.0
H826 H 0.57865 0.49387 0.74244 0.0
H827 H 0.62359 0.49529 0.74811 0.0
H828 H 0.61805 0.53449 0.76337 0.0
H829 H 0.62689 0.52893 0.59349 0.0
H830 H 0.62721 0.4892 0.61425 0.0
H831 H 0.58385 0.49155 0.61331 0.0
H832 H 0.59148 0.38522 0.68135 0.0
H833 H 0.49247 0.39875 0.6719 0.0
H834 H 0.65804 0.47975 0.70633 0.0
H835 H 0.66104 0.47877 0.66178 0.0
H836 H 0.65451 0.43795 0.68594 0.0
H837 H 0.53732 0.49616 0.6972 0.0
H838 H 0.49644 0.45924 0.67458 0.0
H839 H 0.53847 0.49515 0.65253 0.0
C840 C 0.80721 0.95426 0.68657 0.0
C841 C 0.82678 0.93546 0.69752 0.0
C842 C 0.82545 0.99469 0.68594 0.0
C843 C 0.86428 0.01708 0.6966 0.0
C844 C 0.88432 0.99836 0.70751 0.0
C845 C 0.86539 0.95781 0.70775 0.0
C846 C 0.80303 1.01344 0.67395 0.0
C847 C 0.92551 0.02117 0.71956 0.0
C848 C 0.92001 0.12232 0.66896 0.0
C849 C 0.91395 0.1407 0.69609 0.0
C850 C 0.90446 0.08206 0.66892 0.0
C851 C 0.88343 0.06005 0.69711 0.0
C852 C 0.87896 0.07898 0.72521 0.0
C853 C 0.8936 0.11896 0.72405 0.0
C854 C 0.90885 0.06287 0.63809 0.0
C855 C 0.85766 0.05686 0.7561 0.0
H856 H 0.77759 0.93729 0.67817 0.0
H857 H 0.88061 0.9436 0.71669 0.0
H858 H 0.80048 0.03069 0.69443 0.0
H859 H 0.8186 0.03353 0.65306 0.0
H860 H 0.77355 0.99197 0.66533 0.0
H861 H 0.93728 1.00234 0.72675 0.0
H862 H 0.9441 0.04129 0.69973 0.0
H863 H 0.92725 0.03894 0.7415 0.0
H864 H 0.93498 0.1391 0.64703 0.0
H865 H 0.88863 0.13326 0.74488 0.0
H866 H 0.88002 0.04339 0.6271 0.0
H867 H 0.92165 0.04484 0.64477 0.0
H868 H 0.9272 0.08411 0.61877 0.0
H869 H 0.82668 0.0377 0.75016 0.0
H870 H 0.86 0.07627 0.77694 0.0
H871 H 0.8691 0.03823 0.76472 0.0
C872 C 0.93231 0.765 0.69945 0.0
C873 C 0.90516 0.77714 0.69554 0.0
C874 C 0.97207 0.79144 0.69995 0.0
C875 C 0.98546 0.83133 0.69662 0.0
C876 C 0.95835 0.84402 0.69334 0.0
C877 C 0.91851 0.81678 0.69279 0.0
C878 C 0.99982 0.77651 0.70345 0.0
C879 C 0.97146 0.88631 0.68989 0.0
C880 C 0.08938 0.89801 0.72447 0.0
C881 C 0.10947 0.90642 0.69402 0.0
C882 C 0.04893 0.87477 0.72561 0.0
C883 C 0.02792 0.85929 0.69559 0.0
C884 C 0.04795 0.86816 0.66473 0.0
C885 C 0.08835 0.89158 0.66432 0.0
C886 C 0.02873 0.8661 0.75902 0.0
C887 C 0.02682 0.85191 0.63218 0.0
H888 H 0.92259 0.73452 0.70172 0.0
H889 H 0.89791 0.82654 0.68978 0.0
H890 H 1.0186 0.78448 0.68103 0.0
H891 H 1.01887 0.79 0.7254 0.0
H892 H 0.98476 0.74467 0.70646 0.0
H893 H 0.94686 0.8917 0.68913 0.0
H894 H 0.99057 0.90271 0.71109 0.0
H895 H 0.98853 0.8978 0.6666 0.0
H896 H 0.10531 0.90971 0.74751 0.0
H897 H 0.10354 0.8974 0.64069 0.0
H898 H 1.01512 0.83482 0.76449 0.0
H899 H 1.00536 0.87324 0.75835 0.0
H900 H 0.0488 0.88241 0.77977 0.0
H901 H 1.01324 0.82003 0.63233 0.0
H902 H 0.04624 0.86339 0.61015 0.0
H903 H 1.00334 0.85869 0.62928 0.0
C904 C 0.27865 0.17953 0.6955 0.0
C905 C 0.26625 0.14008 0.69218 0.0
C906 C 0.25243 0.19291 0.69558 0.0
C907 C 0.21251 0.16623 0.69275 0.0
C908 C 0.19959 0.12629 0.6897 0.0
C909 C 0.22669 0.11367 0.68915 0.0
C910 C 0.2676 0.23578 0.69844 0.0
C911 C 0.15719 0.09698 0.6871 0.0
C912 C 0.14933 0.20553 0.72367 0.0
C913 C 0.14027 0.21753 0.69375 0.0
C914 C 0.17125 0.18707 0.72359 0.0
C915 C 0.18475 0.1807 0.69287 0.0
C916 C 0.17483 0.19181 0.66251 0.0
C917 C 0.15261 0.20995 0.66331 0.0
C918 C 0.18101 0.17552 0.7565 0.0
C919 C 0.18915 0.18611 0.62927 0.0
H920 H 0.30917 0.20034 0.69754 0.0
H921 H 0.21691 0.08321 0.68659 0.0
H922 H 0.25822 0.24596 0.67651 0.0
H923 H 0.2556 0.24192 0.72108 0.0
H924 H 0.29958 0.25276 0.69993 0.0
H925 H 0.15173 0.06698 0.68561 0.0
H926 H 0.14167 0.09936 0.70912 0.0
H927 H 0.1448 0.10286 0.66457 0.0
H928 H 0.13938 0.21075 0.74725 0.0
H929 H 0.14601 0.21943 0.64011 0.0
H930 H 0.21243 0.19346 0.76128 0.0
H931 H 0.17397 0.14501 0.75553 0.0
H932 H 0.16533 0.1791 0.77783 0.0
H933 H 0.221 0.20457 0.62809 0.0
H934 H 0.17643 0.19347 0.60782 0.0
H935 H 0.18223 0.15576 0.62655 0.0
C936 C 0.12105 0.37386 0.22246 0.0
C937 C 0.12003 0.3862 0.25511 0.0
C938 C 0.10995 0.38778 0.19467 0.0
C939 C 0.09715 0.41464 0.19943 0.0
C940 C 0.09749 0.4283 0.23226 0.0
C941 C 0.10915 0.41415 0.25953 0.0
C942 C 0.11052 0.37252 0.16029 0.0
C943 C 0.08436 0.457 0.23877 0.0
C944 C 0.0861 0.46445 0.12117 0.0
C945 C 0.04636 0.44209 0.11475 0.0
C946 C 0.10297 0.45684 0.14919 0.0
C947 C 0.07988 0.4253 0.17072 0.0
C948 C 0.03981 0.40284 0.16433 0.0
C949 C 0.02362 0.41179 0.13699 0.0
C950 C 0.14553 0.48234 0.15569 0.0
C951 C 1.01397 0.36843 0.18588 0.0
H952 H 0.12973 0.35253 0.21866 0.0
H953 H 0.1094 0.42474 0.2844 0.0
H954 H 0.08059 0.35526 0.1507 0.0
H955 H 0.12665 0.39673 0.14259 0.0
H956 H 0.12392 0.35407 0.16036 0.0
H957 H 0.08959 0.46746 0.26505 0.0
H958 H 0.09945 0.48213 0.22177 0.0
H959 H 0.05303 0.44342 0.23351 0.0
H960 H 0.10404 0.48767 0.10415 0.0
H961 H 0.99299 0.3937 0.13234 0.0
H962 H 0.16006 0.46503 0.15457 0.0
H963 H 0.15016 0.49467 0.18126 0.0
H964 H 0.1594 0.50639 0.13742 0.0
H965 H 0.02402 0.3472 0.18516 0.0
H966 H 0.98339 0.35378 0.17763 0.0
H967 H 1.01544 0.37755 0.21229 0.0
C968 C 0.69219 0.74479 0.23234 0.0
C969 C 0.66817 0.74228 0.2589 0.0
C970 C 0.67797 0.71909 0.20504 0.0
C971 C 0.63863 0.68961 0.20414 0.0
C972 C 0.61408 0.68712 0.2308 0.0
C973 C 0.6291 0.71344 0.25779 0.0
C974 C 0.70521 0.72358 0.17706 0.0
C975 C 0.57206 0.65623 0.2312 0.0
C976 C 0.59877 0.64579 0.11802 0.0
C977 C 0.60357 0.61338 0.11746 0.0
C978 C 0.60875 0.67005 0.14628 0.0
C979 C 0.62361 0.66165 0.17524 0.0
C980 C 0.62655 0.62782 0.17554 0.0
C981 C 0.61685 0.60437 0.14668 0.0
C982 C 0.60521 0.70577 0.1445 0.0
C983 C 0.64147 0.61719 0.20597 0.0
H984 H 0.72238 0.76697 0.23287 0.0
H985 H 0.61026 0.71129 0.27813 0.0
H986 H 0.70699 0.69695 0.17471 0.0
H987 H 0.69412 0.7278 0.15294 0.0
H988 H 0.73474 0.74838 0.18113 0.0
H989 H 0.55536 0.66236 0.24989 0.0
H990 H 0.5587 0.65318 0.20625 0.0
H991 H 0.56963 0.62813 0.23749 0.0
H992 H 0.5892 0.65348 0.09564 0.0
H993 H 0.62099 0.57966 0.1466 0.0
H994 H 0.63437 0.73181 0.14499 0.0
H995 H 0.58927 0.70736 0.16656 0.0
H996 H 0.59017 0.70663 0.12147 0.0
H997 H 0.67218 0.63919 0.21016 0.0
H998 H 0.63917 0.58853 0.20335 0.0
H999 H 0.62518 0.61688 0.22852 0.0
C1000 C 0.38975 0.9988 0.11684 0.0
C1001 C 0.42216 0.99477 0.11159 0.0
C1002 C 0.36623 0.98319 0.1452 0.0
C1003 C 0.37492 0.9625 0.16903 0.0
C1004 C 0.40691 0.95715 0.16325 0.0
C1005 C 0.43025 0.97343 0.13457 0.0
C1006 C 0.33256 0.9897 0.15001 0.0
C1007 C 0.41668 0.93457 0.18755 0.0
C1008 C 0.33651 0.95894 0.25733 0.0
C1009 C 0.301 0.9244 0.25657 0.0
C1010 C 0.36132 0.97119 0.22937 0.0
C1011 C 0.351 0.94773 0.20028 0.0
C1012 C 0.31594 0.91186 0.20016 0.0
C1013 C 0.29102 0.90109 0.22798 0.0
C1014 C 0.3976 1.0102 0.23032 0.0
C1015 C 0.30419 0.88529 0.17027 0.0
H1016 H 0.38305 1.01472 0.09873 0.0
H1017 H 0.45494 0.96983 0.1303 0.0
H1018 H 0.30531 0.96165 0.15185 0.0
H1019 H 0.33603 1.00542 0.17379 0.0
H1020 H 0.32975 1.0065 0.1292 0.0
H1021 H 0.44084 0.93089 0.17854 0.0
H1022 H 0.42484 0.94957 0.21206 0.0
H1023 H 0.39104 0.90566 0.19181 0.0
H1024 H 0.34393 0.97743 0.27911 0.0
H1025 H 0.26355 0.87438 0.22734 0.0
H1026 H 0.39572 0.02933 0.21127 0.0
H1027 H 0.42303 1.00744 0.22396 0.0
H1028 H 0.40244 0.02426 0.2552 0.0
H1029 H 0.29652 0.89807 0.14912 0.0
H1030 H 0.27901 0.85642 0.17581 0.0
H1031 H 0.32854 0.88163 0.16192 0.0
C1032 C 0.44129 0.08403 0.92555 0.0
C1033 C 0.44042 0.04868 0.9228 0.0
C1034 C 0.43069 0.09934 0.89839 0.0
C1035 C 0.41994 0.0794 0.86736 0.0
C1036 C 0.42146 0.04498 0.86398 0.0
C1037 C 0.43097 0.02977 0.89177 0.0
C1038 C 0.4296 0.13605 0.90357 0.0
C1039 C 0.41235 0.02372 0.83106 0.0
C1040 C 0.34963 0.08604 0.80698 0.0
C1041 C 0.37398 0.10933 0.78116 0.0
C1042 C 0.36439 0.0775 0.83565 0.0
C1043 C 0.40466 0.09268 0.83903 0.0
C1044 C 0.42962 0.11835 0.81417 0.0
C1045 C 0.41402 0.12625 0.78555 0.0
C1046 C 0.33665 0.05084 0.86179 0.0
C1047 C 0.47275 0.13619 0.81693 0.0
H1048 H 0.44929 0.09931 0.94916 0.0
H1049 H 0.4309 1.00283 0.88916 0.0
H1050 H 0.43658 0.15338 0.88032 0.0
H1051 H 0.40011 0.12855 0.9115 0.0
H1052 H 0.45011 0.15419 0.92341 0.0
H1053 H 0.41737 0.99888 0.83187 0.0
H1054 H 0.38176 1.01291 0.82434 0.0
H1055 H 0.43045 0.04365 0.81091 0.0
H1056 H 0.31867 0.07286 0.80413 0.0
H1057 H 0.43318 0.14467 0.76605 0.0
H1058 H 0.34498 0.06461 0.88681 0.0
H1059 H 0.33801 0.02389 0.86285 0.0
H1060 H 0.3064 0.04314 0.85654 0.0
H1061 H 0.48265 0.14409 0.84316 0.0
H1062 H 0.48805 0.16244 0.80117 0.0
H1063 H 0.48101 0.11496 0.80846 0.0
C1064 C 1.00609 0.42758 0.8893 0.0
C1065 C 0.99203 0.41418 0.92161 0.0
C1066 C 0.99322 0.4026 0.8614 0.0
C1067 C 0.96544 0.36301 0.86567 0.0
C1068 C 0.9503 0.34958 0.89813 0.0
C1069 C 0.96356 0.37531 0.92557 0.0
C1070 C 1.01051 0.41836 0.8275 0.0
C1071 C 0.9203 0.30784 0.90384 0.0
C1072 C 0.91716 0.3022 0.78689 0.0
C1073 C 0.93862 0.28369 0.78178 0.0
C1074 C 0.92473 0.32735 0.81441 0.0
C1075 C 0.95517 0.33504 0.837 0.0
C1076 C 0.97647 0.316 0.83214 0.0
C1077 C 0.96764 0.29038 0.80514 0.0
C1078 C 0.9007 0.34631 0.81882 0.0
C1079 C 1.0095 0.32346 0.85505 0.0
H1080 H 0.02797 0.45758 0.88588 0.0
H1081 H 0.9518 0.36492 0.95018 0.0
H1082 H 0.02684 0.40442 0.81875 0.0
H1083 H 0.98736 0.41155 0.80897 0.0
H1084 H 0.03029 0.4501 0.82794 0.0
H1085 H 0.91426 0.3008 0.93075 0.0
H1086 H 0.89312 0.30138 0.89107 0.0
H1087 H 0.92978 0.28851 0.89296 0.0
H1088 H 0.89467 0.29726 0.76921 0.0
H1089 H 0.98487 0.27677 0.80166 0.0
H1090 H 0.91807 0.37725 0.81198 0.0
H1091 H 0.89184 0.34478 0.84534 0.0
H1092 H 0.87447 0.33273 0.80287 0.0
H1093 H 0.03146 0.35464 0.8549 0.0
H1094 H 0.02369 0.30688 0.84765 0.0
H1095 H 0.99897 0.31563 0.88113 0.0
C1096 C 0.71242 0.64612 0.77807 0.0
C1097 C 0.75013 0.65231 0.77771 0.0
C1098 C 0.68856 0.63106 0.80638 0.0
C1099 C 0.70253 0.62172 0.83538 0.0
C1100 C 0.74018 0.62659 0.83472 0.0
C1101 C 0.76373 0.6423 0.80605 0.0
C1102 C 0.6491 0.62717 0.80578 0.0
C1103 C 0.75606 0.61635 0.86472 0.0
C1104 C 0.66057 0.62891 0.91917 0.0
C1105 C 0.63184 0.59055 0.92539 0.0
C1106 C 0.68383 0.6392 0.89034 0.0
C1107 C 0.67907 0.61038 0.86713 0.0
C1108 C 0.6507 0.57138 0.87367 0.0
C1109 C 0.62718 0.56199 0.9025 0.0
C1110 C 0.71294 0.68121 0.88434 0.0
C1111 C 0.64488 0.5396 0.85001 0.0
H1112 H 0.70211 0.65471 0.75651 0.0
H1113 H 0.79299 0.64751 0.80607 0.0
H1114 H 0.62675 0.59754 0.81304 0.0
H1115 H 0.64803 0.64726 0.82428 0.0
H1116 H 0.64167 0.63361 0.78075 0.0
H1117 H 0.78384 0.6177 0.8591 0.0
H1118 H 0.76077 0.63658 0.88552 0.0
H1119 H 0.73503 0.58688 0.87359 0.0
H1120 H 0.66448 0.65127 0.93666 0.0
H1121 H 0.60523 0.53229 0.90717 0.0
H1122 H 0.70636 0.69082 0.86045 0.0
H1123 H 0.74228 0.6852 0.88201 0.0
H1124 H 0.7132 0.70012 0.90478 0.0
H1125 H 0.6323 0.54247 0.82624 0.0
H1126 H 0.6253 0.51052 0.86056 0.0
H1127 H 0.67296 0.5419 0.8439 0.0
C1128 C 0.7485 0.80073 0.46034 0.0
C1129 C 0.71176 0.77306 0.44886 0.0
C1130 C 0.76538 0.79336 0.48845 0.0
C1131 C 0.74579 0.75687 0.50464 0.0
C1132 C 0.70912 0.72863 0.4925 0.0
C1133 C 0.69248 0.7372 0.46526 0.0
C1134 C 0.80418 0.82457 0.5008 0.0
C1135 C 0.68756 0.6889 0.50795 0.0
C1136 C 0.79783 0.71719 0.55755 0.0
C1137 C 0.78734 0.72098 0.59023 0.0
C1138 C 0.78622 0.73046 0.52962 0.0
C1139 C 0.76309 0.74768 0.53425 0.0
C1140 C 0.7534 0.7526 0.5673 0.0
C1141 C 0.7657 0.73931 0.59472 0.0
C1142 C 0.7974 0.72454 0.49502 0.0
C1143 C 0.72879 0.77063 0.57368 0.0
H1144 H 0.76397 0.82814 0.44742 0.0
H1145 H 0.66464 0.71503 0.45606 0.0
H1146 H 0.80237 0.83021 0.52774 0.0
H1147 H 0.82562 0.81496 0.49839 0.0
H1148 H 0.81481 0.85196 0.48673 0.0
H1149 H 0.65983 0.66978 0.49502 0.0
H1150 H 0.70558 0.6751 0.50704 0.0
H1151 H 0.68144 0.69113 0.53466 0.0
H1152 H 0.81457 0.70309 0.55372 0.0
H1153 H 0.75722 0.74214 0.61963 0.0
H1154 H 0.81043 0.75188 0.48064 0.0
H1155 H 0.77125 0.70325 0.48126 0.0
H1156 H 0.8182 0.71392 0.4957 0.0
H1157 H 0.74069 0.79849 0.56018 0.0
H1158 H 0.72677 0.77573 0.60074 0.0
H1159 H 0.69924 0.75143 0.56397 0.0
C1160 C 0.29892 0.99868 0.44252 0.0
C1161 C 0.2664 0.96147 0.44189 0.0
C1162 C 0.30769 0.02292 0.47055 0.0
C1163 C 0.28346 1.00974 0.49906 0.0
C1164 C 0.2497 0.97266 0.49808 0.0
C1165 C 0.24178 0.94877 0.46964 0.0
C1166 C 0.34397 0.06197 0.47018 0.0
C1167 C 0.22257 0.95782 0.52751 0.0
C1168 C 0.33198 0.05066 0.5832 0.0
C1169 C 0.32395 0.08049 0.58895 0.0
C1170 C 0.31857 0.02734 0.55445 0.0
C1171 C 0.29567 0.03319 0.53079 0.0
C1172 C 0.28654 0.06264 0.53688 0.0
C1173 C 0.30117 0.08623 0.56565 0.0
C1174 C 0.32991 0.99706 0.54899 0.0
C1175 C 0.26226 0.0702 0.51268 0.0
H1176 H 0.31847 1.00835 0.42135 0.0
H1177 H 0.21689 0.91991 0.46943 0.0
H1178 H 0.33704 0.08482 0.47616 0.0
H1179 H 0.36417 0.06299 0.48969 0.0
H1180 H 0.35885 0.06865 0.44558 0.0
H1181 H 0.19571 0.93037 0.52171 0.0
H1182 H 0.23704 0.95288 0.54902 0.0
H1183 H 0.21483 0.97963 0.53541 0.0
H1184 H 0.34958 0.04592 0.60101 0.0
H1185 H 0.29473 0.10911 0.56989 0.0
H1186 H 0.34671 1.00321 0.52547 0.0
H1187 H 0.30377 0.96822 0.54624 0.0
H1188 H 0.34755 0.99587 0.56988 0.0
H1189 H 0.28106 0.08939 0.4925 0.0
H1190 H 0.24836 0.08487 0.52513 0.0
H1191 H 0.23955 0.04312 0.50102 0.0
C1192 C 1.00321 0.26431 0.59224 0.0
C1193 C 0.96476 0.25526 0.58869 0.0
C1194 C 0.02832 0.27531 0.56447 0.0
C1195 C 1.0149 0.27792 0.53225 0.0
C1196 C 0.9757 0.26772 0.52847 0.0
C1197 C 0.95117 0.2563 0.55659 0.0
C1198 C 0.06951 0.28505 0.56976 0.0
C1199 C 0.95999 0.27057 0.49493 0.0
C1200 C 0.08791 0.35236 0.47168 0.0
C1201 C 0.09196 0.32958 0.447 0.0
C1202 C 0.06309 0.33586 0.49918 0.0
C1203 C 0.04255 0.29532 0.50337 0.0
C1204 C 0.04752 0.27201 0.47934 0.0
C1205 C 0.07158 0.28933 0.45116 0.0
C1206 C 0.05774 0.36199 0.52312 0.0
C1207 C 0.02735 0.22879 0.48341 0.0
H1208 H 1.0137 0.26291 0.61679 0.0
H1209 H 0.92148 0.24929 0.55356 0.0
H1210 H 0.07739 0.26953 0.55126 0.0
H1211 H 0.08922 0.31637 0.5658 0.0
H1212 H 0.07439 0.27755 0.59535 0.0
H1213 H 0.92831 0.25875 0.49555 0.0
H1214 H 0.97418 0.30125 0.48712 0.0
H1215 H 0.96654 0.25488 0.47559 0.0
H1216 H 0.10286 0.38343 0.46882 0.0
H1217 H 0.07413 0.27139 0.43222 0.0
H1218 H 0.06595 0.35851 0.54881 0.0
H1219 H 0.02691 0.35392 0.5238 0.0
H1220 H 0.07518 0.39289 0.51602 0.0
H1221 H 0.03755 0.22168 0.50669 0.0
H1222 H 0.03274 0.21448 0.46197 0.0
H1223 H 0.99581 0.21665 0.48604 0.0
loop_
_geom_bond_atom_site_label_1
_geom_bond_atom_site_label_2
_geom_bond_distance
_geom_bond_site_symmetry_2
_ccdc_geom_bond_type
Sm0 C2 2.846 . S
Sm0 O20 2.543 1_556 S
Sm0 O21 2.450 . S
Sm0 O22 2.681 1_455 S
Sm0 O23 2.464 . S
Sm0 O24 2.396 . S
Sm0 O28 2.386 1_556 S
Sm0 O31 2.408 1_456 S
Sm1 C11 2.846 . S
Sm1 O22 2.386 1_554 S
Sm1 O25 2.410 1_655 S
Sm1 O26 2.543 1_554 S
Sm1 O27 2.450 . S
Sm1 O28 2.681 1_655 S
Sm1 O29 2.464 . S
Sm1 O30 2.396 . S
C2 Sm0 2.846 . S
C2 C3 1.506 . S
C2 O20 1.261 1_556 S
C2 O21 1.242 . S
C3 C2 1.506 . S
C3 C4 1.358 1_556 S
C3 C8 1.382 . S
C4 C3 1.358 1_554 S
C4 C5 1.385 . S
C4 H32 0.930 . S
C5 C4 1.385 . S
C5 C6 1.395 1_554 S
C5 H33 0.929 . S
C6 C5 1.395 1_556 S
C6 C7 1.335 . S
C7 C6 1.335 . S
C7 C8 1.398 . S
C7 H34 0.930 . S
C8 C3 1.382 . S
C8 C7 1.398 . S
C8 H35 0.929 . S
C9 O22 1.271 . S
C9 O23 1.251 1_655 S
C10 O24 1.252 . S
C10 O25 1.269 1_556 S
C11 Sm1 2.846 . S
C11 C12 1.506 . S
C11 O26 1.261 1_554 S
C11 O27 1.242 . S
C12 C11 1.506 . S
C12 C13 1.358 1_554 S
C12 C17 1.382 . S
C13 C12 1.358 1_556 S
C13 C14 1.385 . S
C13 H36 0.930 . S
C14 C13 1.385 . S
C14 C15 1.395 1_556 S
C14 H37 0.929 . S
C15 C14 1.395 1_554 S
C15 C16 1.335 . S
C16 C15 1.335 . S
C16 C17 1.398 . S
C16 H38 0.930 . S
C17 C12 1.382 . S
C17 C16 1.398 . S
C17 H39 0.929 . S
C18 O28 1.271 . S
C18 O29 1.251 1_455 S
C19 O30 1.252 . S
C19 O31 1.272 . S
O20 Sm0 2.543 1_554 S
O20 C2 1.261 1_554 S
O21 Sm0 2.450 . S
O21 C2 1.242 . S
O22 Sm0 2.681 1_655 S
O22 Sm1 2.386 1_556 S
O22 C9 1.271 . S
O23 Sm0 2.464 . S
O23 C9 1.251 1_455 S
O24 Sm0 2.396 . S
O24 C10 1.252 . S
O25 Sm1 2.410 1_455 S
O25 C10 1.269 1_554 S
O26 Sm1 2.543 1_556 S
O26 C11 1.261 1_556 S
O27 Sm1 2.450 . S
O27 C11 1.242 . S
O28 Sm0 2.386 1_554 S
O28 Sm1 2.681 1_455 S
O28 C18 1.271 . S
O29 Sm1 2.464 . S
O29 C18 1.251 1_655 S
O30 Sm1 2.396 . S
O30 C19 1.252 . S
O31 Sm0 2.408 1_654 S
O31 C19 1.272 . S
H32 C4 0.930 . S
H33 C5 0.929 . S
H34 C7 0.930 . S
H35 C8 0.929 . S
H36 C13 0.930 . S
H37 C14 0.929 . S
H38 C16 0.930 . S
H39 C17 0.929 . S
Sm40 C42 2.846 . S
Sm40 O60 2.543 1_556 S
Sm40 O61 2.450 . S
Sm40 O62 2.681 . S
Sm40 O63 2.464 . S
Sm40 O64 2.396 . S
Sm40 O68 2.386 1_556 S
Sm40 O71 2.408 1_556 S
Sm41 C51 2.846 . S
Sm41 O62 2.386 1_554 S
Sm41 O65 2.410 . S
Sm41 O66 2.543 1_554 S
Sm41 O67 2.450 . S
Sm41 O68 2.681 . S
Sm41 O69 2.464 . S
Sm41 O70 2.396 . S
C42 Sm40 2.846 . S
C42 C43 1.506 . S
C42 O60 1.261 1_556 S
C42 O61 1.242 . S
C43 C42 1.506 . S
C43 C44 1.358 1_556 S
C43 C48 1.382 . S
C44 C43 1.358 1_554 S
C44 C45 1.385 . S
C44 H72 0.930 . S
C45 C44 1.385 . S
C45 C46 1.395 1_554 S
C45 H73 0.929 . S
C46 C45 1.395 1_556 S
C46 C47 1.335 . S
C47 C46 1.335 . S
C47 C48 1.398 . S
C47 H74 0.930 . S
C48 C43 1.382 . S
C48 C47 1.398 . S
C48 H75 0.929 . S
C49 O62 1.271 . S
C49 O63 1.251 . S
C50 O64 1.252 . S
C50 O65 1.269 1_556 S
C51 Sm41 2.846 . S
C51 C52 1.506 . S
C51 O66 1.261 1_554 S
C51 O67 1.242 . S
C52 C51 1.506 . S
C52 C53 1.358 1_554 S
C52 C57 1.382 . S
C53 C52 1.358 1_556 S
C53 C54 1.385 . S
C53 H76 0.930 . S
C54 C53 1.385 . S
C54 C55 1.395 1_556 S
C54 H77 0.929 . S
C55 C54 1.395 1_554 S
C55 C56 1.335 . S
C56 C55 1.335 . S
C56 C57 1.398 . S
C56 H78 0.930 . S
C57 C52 1.382 . S
C57 C56 1.398 . S
C57 H79 0.929 . S
C58 O68 1.271 . S
C58 O69 1.251 . S
C59 O70 1.252 . S
C59 O71 1.272 . S
O60 Sm40 2.543 1_554 S
O60 C42 1.261 1_554 S
O61 Sm40 2.450 . S
O61 C42 1.242 . S
O62 Sm40 2.681 . S
O62 Sm41 2.386 1_556 S
O62 C49 1.271 . S
O63 Sm40 2.464 . S
O63 C49 1.251 . S
O64 Sm40 2.396 . S
O64 C50 1.252 . S
O65 Sm41 2.410 . S
O65 C50 1.269 1_554 S
O66 Sm41 2.543 1_556 S
O66 C51 1.261 1_556 S
O67 Sm41 2.450 . S
O67 C51 1.242 . S
O68 Sm40 2.386 1_554 S
O68 Sm41 2.681 . S
O68 C58 1.271 . S
O69 Sm41 2.464 . S
O69 C58 1.251 . S
O70 Sm41 2.396 . S
O70 C59 1.252 . S
O71 Sm40 2.408 1_554 S
O71 C59 1.272 . S
H72 C44 0.930 . S
H73 C45 0.929 . S
H74 C47 0.930 . S
H75 C48 0.929 . S
H76 C53 0.930 . S
H77 C54 0.929 . S
H78 C56 0.930 . S
H79 C57 0.929 . S
Sm80 C82 2.846 . S
Sm80 O100 2.543 1_556 S
Sm80 O101 2.450 . S
Sm80 O102 2.681 1_565 S
Sm80 O103 2.464 . S
Sm80 O104 2.396 . S
Sm80 O108 2.386 1_556 S
Sm80 O111 2.408 1_566 S
Sm81 C91 2.846 . S
Sm81 O102 2.386 1_554 S
Sm81 O105 2.410 1_545 S
Sm81 O106 2.543 1_554 S
Sm81 O107 2.450 . S
Sm81 O108 2.681 1_545 S
Sm81 O109 2.464 . S
Sm81 O110 2.396 . S
C82 Sm80 2.846 . S
C82 C83 1.506 . S
C82 O100 1.261 1_556 S
C82 O101 1.242 . S
C83 C82 1.506 . S
C83 C84 1.358 1_556 S
C83 C88 1.382 . S
C84 C83 1.358 1_554 S
C84 C85 1.385 . S
C84 H112 0.930 . S
C85 C84 1.385 . S
C85 C86 1.395 1_554 S
C85 H113 0.929 . S
C86 C85 1.395 1_556 S
C86 C87 1.335 . S
C87 C86 1.335 . S
C87 C88 1.398 . S
C87 H114 0.930 . S
C88 C83 1.382 . S
C88 C87 1.398 . S
C88 H115 0.929 . S
C89 O102 1.271 . S
C89 O103 1.251 1_545 S
C90 O104 1.252 . S
C90 O105 1.269 1_556 S
C91 Sm81 2.846 . S
C91 C92 1.506 . S
C91 O106 1.261 1_554 S
C91 O107 1.242 . S
C92 C91 1.506 . S
C92 C93 1.358 1_554 S
C92 C97 1.382 . S
C93 C92 1.358 1_556 S
C93 C94 1.385 . S
C93 H116 0.930 . S
C94 C93 1.385 . S
C94 C95 1.395 1_556 S
C94 H117 0.929 . S
C95 C94 1.395 1_554 S
C95 C96 1.335 . S
C96 C95 1.335 . S
C96 C97 1.398 . S
C96 H118 0.930 . S
C97 C92 1.382 . S
C97 C96 1.398 . S
C97 H119 0.929 . S
C98 O108 1.271 . S
C98 O109 1.251 1_565 S
C99 O110 1.252 . S
C99 O111 1.272 . S
O100 Sm80 2.543 1_554 S
O100 C82 1.261 1_554 S
O101 Sm80 2.450 . S
O101 C82 1.242 . S
O102 Sm80 2.681 1_545 S
O102 Sm81 2.386 1_556 S
O102 C89 1.271 . S
O103 Sm80 2.464 . S
O103 C89 1.251 1_565 S
O104 Sm80 2.396 . S
O104 C90 1.252 . S
O105 Sm81 2.410 1_565 S
O105 C90 1.269 1_554 S
O106 Sm81 2.543 1_556 S
O106 C91 1.261 1_556 S
O107 Sm81 2.450 . S
O107 C91 1.242 . S
O108 Sm80 2.386 1_554 S
O108 Sm81 2.681 1_565 S
O108 C98 1.271 . S
O109 Sm81 2.464 . S
O109 C98 1.251 1_545 S
O110 Sm81 2.396 . S
O110 C99 1.252 . S
O111 Sm80 2.408 1_544 S
O111 C99 1.272 . S
H112 C84 0.930 . S
H113 C85 0.929 . S
H114 C87 0.930 . S
H115 C88 0.929 . S
H116 C93 0.930 . S
H117 C94 0.929 . S
H118 C96 0.930 . S
H119 C97 0.929 . S
Sm120 C122 2.846 . S
Sm120 O140 2.543 . S
Sm120 O141 2.450 . S
Sm120 O142 2.681 . S
Sm120 O143 2.464 . S
Sm120 O144 2.396 . S
Sm120 O148 2.386 . S
Sm120 O151 2.408 . S
Sm121 C131 2.846 . S
Sm121 O142 2.386 . S
Sm121 O145 2.408 . S
Sm121 O146 2.543 . S
Sm121 O147 2.450 . S
Sm121 O148 2.681 . S
Sm121 O149 2.464 . S
Sm121 O150 2.396 . S
C122 Sm120 2.846 . S
C122 C123 1.506 . S
C122 O140 1.261 . S
C122 O141 1.242 . S
C123 C122 1.506 . S
C123 C124 1.358 . S
C123 C128 1.382 . S
C124 C123 1.358 . S
C124 C125 1.385 . S
C124 H152 0.930 . S
C125 C124 1.385 . S
C125 C126 1.395 . S
C125 H153 0.929 . S
C126 C125 1.395 . S
C126 C127 1.335 . S
C127 C126 1.335 . S
C127 C128 1.398 . S
C127 H154 0.930 . S
C128 C123 1.382 . S
C128 C127 1.398 . S
C128 H155 0.929 . S
C129 O142 1.271 . S
C129 O143 1.251 . S
C130 O144 1.252 . S
C130 O145 1.272 . S
C131 Sm121 2.846 . S
C131 C132 1.506 . S
C131 O146 1.261 . S
C131 O147 1.242 . S
C132 C131 1.506 . S
C132 C133 1.358 . S
C132 C137 1.382 . S
C133 C132 1.358 . S
C133 C134 1.385 . S
C133 H156 0.930 . S
C134 C133 1.385 . S
C134 C135 1.395 . S
C134 H157 0.929 . S
C135 C134 1.395 . S
C135 C136 1.335 . S
C136 C135 1.335 . S
C136 C137 1.398 . S
C136 H158 0.930 . S
C137 C132 1.382 . S
C137 C136 1.398 . S
C137 H159 0.929 . S
C138 O148 1.271 . S
C138 O149 1.251 . S
C139 O150 1.252 . S
C139 O151 1.272 . S
O140 Sm120 2.543 . S
O140 C122 1.261 . S
O141 Sm120 2.450 . S
O141 C122 1.242 . S
O142 Sm120 2.681 . S
O142 Sm121 2.386 . S
O142 C129 1.271 . S
O143 Sm120 2.464 . S
O143 C129 1.251 . S
O144 Sm120 2.396 . S
O144 C130 1.252 . S
O145 Sm121 2.408 . S
O145 C130 1.272 . S
O146 Sm121 2.543 . S
O146 C131 1.261 . S
O147 Sm121 2.450 . S
O147 C131 1.242 . S
O148 Sm120 2.386 . S
O148 Sm121 2.681 . S
O148 C138 1.271 . S
O149 Sm121 2.464 . S
O149 C138 1.251 . S
O150 Sm121 2.396 . S
O150 C139 1.252 . S
O151 Sm120 2.408 . S
O151 C139 1.272 . S
H152 C124 0.930 . S
H153 C125 0.929 . S
H154 C127 0.930 . S
H155 C128 0.929 . S
H156 C133 0.930 . S
H157 C134 0.929 . S
H158 C136 0.930 . S
H159 C137 0.929 . S
Sm160 C162 2.846 . S
Sm160 O180 2.543 . S
Sm160 O181 2.450 . S
Sm160 O182 2.681 . S
Sm160 O183 2.464 . S
Sm160 O184 2.396 . S
Sm160 O188 2.386 . S
Sm160 O191 2.408 . S
Sm161 C171 2.846 . S
Sm161 O182 2.386 . S
Sm161 O185 2.408 . S
Sm161 O186 2.543 . S
Sm161 O187 2.450 . S
Sm161 O188 2.681 . S
Sm161 O189 2.464 . S
Sm161 O190 2.396 . S
C162 Sm160 2.846 . S
C162 C163 1.506 . S
C162 O180 1.261 . S
C162 O181 1.242 . S
C163 C162 1.506 . S
C163 C164 1.358 . S
C163 C168 1.382 . S
C164 C163 1.358 . S
C164 C165 1.385 . S
C164 H192 0.930 . S
C165 C164 1.385 . S
C165 C166 1.395 . S
C165 H193 0.929 . S
C166 C165 1.395 . S
C166 C167 1.335 . S
C167 C166 1.335 . S
C167 C168 1.398 . S
C167 H194 0.930 . S
C168 C163 1.382 . S
C168 C167 1.398 . S
C168 H195 0.929 . S
C169 O182 1.271 . S
C169 O183 1.251 . S
C170 O184 1.252 . S
C170 O185 1.272 . S
C171 Sm161 2.846 . S
C171 C172 1.506 . S
C171 O186 1.261 . S
C171 O187 1.242 . S
C172 C171 1.506 . S
C172 C173 1.358 . S
C172 C177 1.382 . S
C173 C172 1.358 . S
C173 C174 1.385 . S
C173 H196 0.930 . S
C174 C173 1.385 . S
C174 C175 1.395 . S
C174 H197 0.929 . S
C175 C174 1.395 . S
C175 C176 1.335 . S
C176 C175 1.335 . S
C176 C177 1.398 . S
C176 H198 0.930 . S
C177 C172 1.382 . S
C177 C176 1.398 . S
C177 H199 0.929 . S
C178 O188 1.271 . S
C178 O189 1.251 . S
C179 O190 1.252 . S
C179 O191 1.272 . S
O180 Sm160 2.543 . S
O180 C162 1.261 . S
O181 Sm160 2.450 . S
O181 C162 1.242 . S
O182 Sm160 2.681 . S
O182 Sm161 2.386 . S
O182 C169 1.271 . S
O183 Sm160 2.464 . S
O183 C169 1.251 . S
O184 Sm160 2.396 . S
O184 C170 1.252 . S
O185 Sm161 2.408 . S
O185 C170 1.272 . S
O186 Sm161 2.543 . S
O186 C171 1.261 . S
O187 Sm161 2.450 . S
O187 C171 1.242 . S
O188 Sm160 2.386 . S
O188 Sm161 2.681 . S
O188 C178 1.271 . S
O189 Sm161 2.464 . S
O189 C178 1.251 . S
O190 Sm161 2.396 . S
O190 C179 1.252 . S
O191 Sm160 2.408 . S
O191 C179 1.272 . S
H192 C164 0.930 . S
H193 C165 0.929 . S
H194 C167 0.930 . S
H195 C168 0.929 . S
H196 C173 0.930 . S
H197 C174 0.929 . S
H198 C176 0.930 . S
H199 C177 0.929 . S
Sm200 C202 2.846 . S
Sm200 O220 2.543 . S
Sm200 O221 2.450 . S
Sm200 O222 2.681 . S
Sm200 O223 2.464 . S
Sm200 O224 2.396 . S
Sm200 O228 2.386 . S
Sm200 O231 2.408 . S
Sm201 C211 2.846 . S
Sm201 O222 2.386 . S
Sm201 O225 2.408 . S
Sm201 O226 2.543 . S
Sm201 O227 2.450 . S
Sm201 O228 2.681 . S
Sm201 O229 2.464 . S
Sm201 O230 2.396 . S
C202 Sm200 2.846 . S
C202 C203 1.506 . S
C202 O220 1.261 . S
C202 O221 1.242 . S
C203 C202 1.506 . S
C203 C204 1.358 . S
C203 C208 1.382 . S
C204 C203 1.358 . S
C204 C205 1.385 . S
C204 H232 0.930 . S
C205 C204 1.385 . S
C205 C206 1.395 . S
C205 H233 0.929 . S
C206 C205 1.395 . S
C206 C207 1.335 . S
C207 C206 1.335 . S
C207 C208 1.398 . S
C207 H234 0.930 . S
C208 C203 1.382 . S
C208 C207 1.398 . S
C208 H235 0.929 . S
C209 O222 1.271 . S
C209 O223 1.251 . S
C210 O224 1.252 . S
C210 O225 1.272 . S
C211 Sm201 2.846 . S
C211 C212 1.506 . S
C211 O226 1.261 . S
C211 O227 1.242 . S
C212 C211 1.506 . S
C212 C213 1.358 . S
C212 C217 1.382 . S
C213 C212 1.358 . S
C213 C214 1.385 . S
C213 H236 0.930 . S
C214 C213 1.385 . S
C214 C215 1.395 . S
C214 H237 0.929 . S
C215 C214 1.395 . S
C215 C216 1.335 . S
C216 C215 1.335 . S
C216 C217 1.398 . S
C216 H238 0.930 . S
C217 C212 1.382 . S
C217 C216 1.398 . S
C217 H239 0.929 . S
C218 O228 1.271 . S
C218 O229 1.251 . S
C219 O230 1.252 . S
C219 O231 1.272 . S
O220 Sm200 2.543 . S
O220 C202 1.261 . S
O221 Sm200 2.450 . S
O221 C202 1.242 . S
O222 Sm200 2.681 . S
O222 Sm201 2.386 . S
O222 C209 1.271 . S
O223 Sm200 2.464 . S
O223 C209 1.251 . S
O224 Sm200 2.396 . S
O224 C210 1.252 . S
O225 Sm201 2.408 . S
O225 C210 1.272 . S
O226 Sm201 2.543 . S
O226 C211 1.261 . S
O227 Sm201 2.450 . S
O227 C211 1.242 . S
O228 Sm200 2.386 . S
O228 Sm201 2.681 . S
O228 C218 1.271 . S
O229 Sm201 2.464 . S
O229 C218 1.251 . S
O230 Sm201 2.396 . S
O230 C219 1.252 . S
O231 Sm200 2.408 . S
O231 C219 1.272 . S
H232 C204 0.930 . S
H233 C205 0.929 . S
H234 C207 0.930 . S
H235 C208 0.929 . S
H236 C213 0.930 . S
H237 C214 0.929 . S
H238 C216 0.930 . S
H239 C217 0.929 . S
Sm240 C242 2.846 . S
Sm240 O260 2.543 . S
Sm240 O261 2.450 . S
Sm240 O262 2.681 . S
Sm240 O263 2.464 . S
Sm240 O264 2.396 . S
Sm240 O268 2.386 . S
Sm240 O271 2.408 . S
Sm241 C251 2.846 . S
Sm241 O262 2.386 . S
Sm241 O265 2.408 . S
Sm241 O266 2.543 . S
Sm241 O267 2.450 . S
Sm241 O268 2.681 . S
Sm241 O269 2.464 . S
Sm241 O270 2.396 . S
C242 Sm240 2.846 . S
C242 C243 1.506 . S
C242 O260 1.261 . S
C242 O261 1.242 . S
C243 C242 1.506 . S
C243 C244 1.358 . S
C243 C248 1.382 . S
C244 C243 1.358 . S
C244 C245 1.385 . S
C244 H272 0.930 . S
C245 C244 1.385 . S
C245 C246 1.395 . S
C245 H273 0.929 . S
C246 C245 1.395 . S
C246 C247 1.335 . S
C247 C246 1.335 . S
C247 C248 1.398 . S
C247 H274 0.930 . S
C248 C243 1.382 . S
C248 C247 1.398 . S
C248 H275 0.929 . S
C249 O262 1.271 . S
C249 O263 1.251 . S
C250 O264 1.252 . S
C250 O265 1.272 . S
C251 Sm241 2.846 . S
C251 C252 1.506 1_545 S
C251 O266 1.261 . S
C251 O267 1.242 . S
C252 C251 1.506 1_565 S
C252 C253 1.358 . S
C252 C257 1.382 . S
C253 C252 1.358 . S
C253 C254 1.385 . S
C253 H276 0.930 . S
C254 C253 1.385 . S
C254 C255 1.395 . S
C254 H277 0.929 . S
C255 C254 1.395 . S
C255 C256 1.335 . S
C256 C255 1.335 . S
C256 C257 1.398 . S
C256 H278 0.930 . S
C257 C252 1.382 . S
C257 C256 1.398 . S
C257 H279 0.929 . S
C258 O268 1.271 . S
C258 O269 1.251 . S
C259 O270 1.252 . S
C259 O271 1.272 . S
O260 Sm240 2.543 . S
O260 C242 1.261 . S
O261 Sm240 2.450 . S
O261 C242 1.242 . S
O262 Sm240 2.681 . S
O262 Sm241 2.386 . S
O262 C249 1.271 . S
O263 Sm240 2.464 . S
O263 C249 1.251 . S
O264 Sm240 2.396 . S
O264 C250 1.252 . S
O265 Sm241 2.408 . S
O265 C250 1.272 . S
O266 Sm241 2.543 . S
O266 C251 1.261 . S
O267 Sm241 2.450 . S
O267 C251 1.242 . S
O268 Sm240 2.386 . S
O268 Sm241 2.681 . S
O268 C258 1.271 . S
O269 Sm241 2.464 . S
O269 C258 1.251 . S
O270 Sm241 2.396 . S
O270 C259 1.252 . S
O271 Sm240 2.408 . S
O271 C259 1.272 . S
H272 C244 0.930 . S
H273 C245 0.929 . S
H274 C247 0.930 . S
H275 C248 0.929 . S
H276 C253 0.930 . S
H277 C254 0.929 . S
H278 C256 0.930 . S
H279 C257 0.929 . S
Sm280 C282 2.846 . S
Sm280 O300 2.543 . S
Sm280 O301 2.450 . S
Sm280 O302 2.681 . S
Sm280 O303 2.464 . S
Sm280 O304 2.396 . S
Sm280 O308 2.386 . S
Sm280 O311 2.408 . S
Sm281 C291 2.846 1_655 S
Sm281 O302 2.386 . S
Sm281 O305 2.408 . S
Sm281 O306 2.543 . S
Sm281 O307 2.450 . S
Sm281 O308 2.681 . S
Sm281 O309 2.464 . S
Sm281 O310 2.396 . S
C282 Sm280 2.846 . S
C282 C283 1.506 . S
C282 O300 1.261 . S
C282 O301 1.242 . S
C283 C282 1.506 . S
C283 C284 1.358 . S
C283 C288 1.382 . S
C284 C283 1.358 . S
C284 C285 1.385 . S
C284 H312 0.930 . S
C285 C284 1.385 . S
C285 C286 1.395 . S
C285 H313 0.929 . S
C286 C285 1.395 . S
C286 C287 1.335 . S
C287 C286 1.335 . S
C287 C288 1.398 . S
C287 H314 0.930 . S
C288 C283 1.382 . S
C288 C287 1.398 . S
C288 H315 0.929 . S
C289 O302 1.271 . S
C289 O303 1.251 . S
C290 O304 1.252 . S
C290 O305 1.272 . S
C291 Sm281 2.846 1_455 S
C291 C292 1.506 . S
C291 O306 1.261 1_455 S
C291 O307 1.242 1_455 S
C292 C291 1.506 . S
C292 C293 1.358 . S
C292 C297 1.382 . S
C293 C292 1.358 . S
C293 C294 1.385 . S
C293 H316 0.930 . S
C294 C293 1.385 . S
C294 C295 1.395 . S
C294 H317 0.929 . S
C295 C294 1.395 . S
C295 C296 1.335 . S
C296 C295 1.335 . S
C296 C297 1.398 . S
C296 H318 0.930 . S
C297 C292 1.382 . S
C297 C296 1.398 . S
C297 H319 0.929 . S
C298 O308 1.271 . S
C298 O309 1.251 . S
C299 O310 1.252 . S
C299 O311 1.272 . S
O300 Sm280 2.543 . S
O300 C282 1.261 . S
O301 Sm280 2.450 . S
O301 C282 1.242 . S
O302 Sm280 2.681 . S
O302 Sm281 2.386 . S
O302 C289 1.271 . S
O303 Sm280 2.464 . S
O303 C289 1.251 . S
O304 Sm280 2.396 . S
O304 C290 1.252 . S
O305 Sm281 2.408 . S
O305 C290 1.272 . S
O306 Sm281 2.543 . S
O306 C291 1.261 1_655 S
O307 Sm281 2.450 . S
O307 C291 1.242 1_655 S
O308 Sm280 2.386 . S
O308 Sm281 2.681 . S
O308 C298 1.271 . S
O309 Sm281 2.464 . S
O309 C298 1.251 . S
O310 Sm281 2.396 . S
O310 C299 1.252 . S
O311 Sm280 2.408 . S
O311 C299 1.272 . S
H312 C284 0.930 . S
H313 C285 0.929 . S
H314 C287 0.930 . S
H315 C288 0.929 . S
H316 C293 0.930 . S
H317 C294 0.929 . S
H318 C296 0.930 . S
H319 C297 0.929 . S
Sm320 C322 2.846 . S
Sm320 O340 2.543 . S
Sm320 O341 2.450 . S
Sm320 O342 2.681 . S
Sm320 O343 2.464 . S
Sm320 O344 2.396 . S
Sm320 O348 2.386 . S
Sm320 O351 2.408 . S
Sm321 C331 2.846 . S
Sm321 O342 2.386 . S
Sm321 O345 2.408 . S
Sm321 O346 2.543 . S
Sm321 O347 2.450 . S
Sm321 O348 2.681 . S
Sm321 O349 2.464 . S
Sm321 O350 2.396 . S
C322 Sm320 2.846 . S
C322 C323 1.506 . S
C322 O340 1.261 . S
C322 O341 1.242 . S
C323 C322 1.506 . S
C323 C324 1.358 . S
C323 C328 1.382 . S
C324 C323 1.358 . S
C324 C325 1.385 . S
C324 H352 0.930 . S
C325 C324 1.385 . S
C325 C326 1.395 . S
C325 H353 0.929 . S
C326 C325 1.395 . S
C326 C327 1.335 . S
C327 C326 1.335 . S
C327 C328 1.398 . S
C327 H354 0.930 . S
C328 C323 1.382 . S
C328 C327 1.398 . S
C328 H355 0.929 . S
C329 O342 1.271 . S
C329 O343 1.251 . S
C330 O344 1.252 . S
C330 O345 1.272 . S
C331 Sm321 2.846 . S
C331 C332 1.506 . S
C331 O346 1.261 . S
C331 O347 1.242 . S
C332 C331 1.506 . S
C332 C333 1.358 . S
C332 C337 1.382 . S
C333 C332 1.358 . S
C333 C334 1.385 . S
C333 H356 0.930 . S
C334 C333 1.385 . S
C334 C335 1.395 . S
C334 H357 0.929 . S
C335 C334 1.395 . S
C335 C336 1.335 . S
C336 C335 1.335 . S
C336 C337 1.398 . S
C336 H358 0.930 . S
C337 C332 1.382 . S
C337 C336 1.398 . S
C337 H359 0.929 . S
C338 O348 1.271 . S
C338 O349 1.251 . S
C339 O350 1.252 . S
C339 O351 1.272 . S
O340 Sm320 2.543 . S
O340 C322 1.261 . S
O341 Sm320 2.450 . S
O341 C322 1.242 . S
O342 Sm320 2.681 . S
O342 Sm321 2.386 . S
O342 C329 1.271 . S
O343 Sm320 2.464 . S
O343 C329 1.251 . S
O344 Sm320 2.396 . S
O344 C330 1.252 . S
O345 Sm321 2.408 . S
O345 C330 1.272 . S
O346 Sm321 2.543 . S
O346 C331 1.261 . S
O347 Sm321 2.450 . S
O347 C331 1.242 . S
O348 Sm320 2.386 . S
O348 Sm321 2.681 . S
O348 C338 1.271 . S
O349 Sm321 2.464 . S
O349 C338 1.251 . S
O350 Sm321 2.396 . S
O350 C339 1.252 . S
O351 Sm320 2.408 . S
O351 C339 1.272 . S
H352 C324 0.930 . S
H353 C325 0.929 . S
H354 C327 0.930 . S
H355 C328 0.929 . S
H356 C333 0.930 . S
H357 C334 0.929 . S
H358 C336 0.930 . S
H359 C337 0.929 . S
C360 C361 1.391 1_554 S
C360 C362 1.394 . S
C360 H376 0.931 . S
C361 C360 1.391 1_556 S
C361 C365 1.376 . S
C362 C360 1.394 . S
C362 C363 1.369 1_554 S
C362 C366 1.531 . S
C363 C362 1.369 1_556 S
C363 C364 1.410 . S
C363 C371 1.503 . S
C364 C363 1.410 . S
C364 C365 1.392 . S
C364 C367 1.511 . S
C365 C361 1.376 . S
C365 C364 1.392 . S
C365 H377 0.929 . S
C366 C362 1.531 . S
C366 H378 0.960 . S
C366 H379 0.962 . S
C366 H380 0.960 . S
C367 C364 1.511 . S
C367 H381 0.961 . S
C367 H382 0.961 . S
C367 H383 0.961 . S
C368 C369 1.370 . S
C368 C370 1.363 . S
C368 H384 0.931 . S
C369 C368 1.370 . S
C369 C373 1.408 1_556 S
C370 C368 1.363 . S
C370 C371 1.370 . S
C370 C374 1.524 . S
C371 C363 1.503 . S
C371 C370 1.370 . S
C371 C372 1.403 1_556 S
C372 C371 1.403 1_554 S
C372 C373 1.404 . S
C372 C375 1.539 . S
C373 C369 1.408 1_554 S
C373 C372 1.404 . S
C373 H385 0.930 . S
C374 C370 1.524 . S
C374 H386 0.956 . S
C374 H387 0.961 . S
C374 H388 0.961 . S
C375 C372 1.539 . S
C375 H389 0.958 . S
C375 H390 0.961 . S
C375 H391 0.960 . S
H376 C360 0.931 . S
H377 C365 0.929 . S
H378 C366 0.960 . S
H379 C366 0.962 . S
H380 C366 0.960 . S
H381 C367 0.961 . S
H382 C367 0.961 . S
H383 C367 0.961 . S
H384 C368 0.931 . S
H385 C373 0.930 . S
H386 C374 0.956 . S
H387 C374 0.961 . S
H388 C374 0.961 . S
H389 C375 0.958 . S
H390 C375 0.961 . S
H391 C375 0.960 . S
C392 C393 1.391 1_554 S
C392 C394 1.394 . S
C392 H408 0.931 . S
C393 C392 1.391 1_556 S
C393 C397 1.376 . S
C394 C392 1.394 . S
C394 C395 1.369 1_554 S
C394 C398 1.531 . S
C395 C394 1.369 1_556 S
C395 C396 1.410 . S
C395 C403 1.503 . S
C396 C395 1.410 . S
C396 C397 1.392 . S
C396 C399 1.511 . S
C397 C393 1.376 . S
C397 C396 1.392 . S
C397 H409 0.929 . S
C398 C394 1.531 . S
C398 H410 0.960 . S
C398 H411 0.962 . S
C398 H412 0.960 . S
C399 C396 1.511 . S
C399 H413 0.961 . S
C399 H414 0.961 . S
C399 H415 0.961 . S
C400 C401 1.370 . S
C400 C402 1.363 . S
C400 H416 0.931 . S
C401 C400 1.370 . S
C401 C405 1.408 1_556 S
C402 C400 1.363 . S
C402 C403 1.370 . S
C402 C406 1.524 . S
C403 C395 1.503 . S
C403 C402 1.370 . S
C403 C404 1.403 1_556 S
C404 C403 1.403 1_554 S
C404 C405 1.404 . S
C404 C407 1.539 . S
C405 C401 1.408 1_554 S
C405 C404 1.404 . S
C405 H417 0.930 . S
C406 C402 1.524 . S
C406 H418 0.956 . S
C406 H419 0.961 . S
C406 H420 0.961 . S
C407 C404 1.539 . S
C407 H421 0.958 . S
C407 H422 0.961 . S
C407 H423 0.960 . S
H408 C392 0.931 . S
H409 C397 0.929 . S
H410 C398 0.960 . S
H411 C398 0.962 . S
H412 C398 0.960 . S
H413 C399 0.961 . S
H414 C399 0.961 . S
H415 C399 0.961 . S
H416 C400 0.931 . S
H417 C405 0.930 . S
H418 C406 0.956 . S
H419 C406 0.961 . S
H420 C406 0.961 . S
H421 C407 0.958 . S
H422 C407 0.961 . S
H423 C407 0.960 . S
C424 C425 1.391 1_554 S
C424 C426 1.394 . S
C424 H440 0.931 . S
C425 C424 1.391 1_556 S
C425 C429 1.376 . S
C426 C424 1.394 . S
C426 C427 1.369 1_554 S
C426 C430 1.531 . S
C427 C426 1.369 1_556 S
C427 C428 1.410 . S
C427 C435 1.503 . S
C428 C427 1.410 . S
C428 C429 1.392 . S
C428 C431 1.511 . S
C429 C425 1.376 . S
C429 C428 1.392 . S
C429 H441 0.929 . S
C430 C426 1.531 . S
C430 H442 0.960 . S
C430 H443 0.962 . S
C430 H444 0.960 . S
C431 C428 1.511 . S
C431 H445 0.961 . S
C431 H446 0.961 . S
C431 H447 0.961 . S
C432 C433 1.370 . S
C432 C434 1.363 . S
C432 H448 0.931 . S
C433 C432 1.370 . S
C433 C437 1.408 1_556 S
C434 C432 1.363 . S
C434 C435 1.370 . S
C434 C438 1.524 . S
C435 C427 1.503 . S
C435 C434 1.370 . S
C435 C436 1.403 1_556 S
C436 C435 1.403 1_554 S
C436 C437 1.404 . S
C436 C439 1.539 . S
C437 C433 1.408 1_554 S
C437 C436 1.404 . S
C437 H449 0.930 . S
C438 C434 1.524 . S
C438 H450 0.956 . S
C438 H451 0.961 . S
C438 H452 0.961 . S
C439 C436 1.539 . S
C439 H453 0.958 . S
C439 H454 0.961 . S
C439 H455 0.960 . S
H440 C424 0.931 . S
H441 C429 0.929 . S
H442 C430 0.960 . S
H443 C430 0.962 . S
H444 C430 0.960 . S
H445 C431 0.961 . S
H446 C431 0.961 . S
H447 C431 0.961 . S
H448 C432 0.931 . S
H449 C437 0.930 . S
H450 C438 0.956 . S
H451 C438 0.961 . S
H452 C438 0.961 . S
H453 C439 0.958 . S
H454 C439 0.961 . S
H455 C439 0.960 . S
C456 C457 1.391 1_556 S
C456 C458 1.394 . S
C456 H472 0.931 . S
C457 C456 1.391 1_554 S
C457 C461 1.376 . S
C458 C456 1.394 . S
C458 C459 1.369 1_556 S
C458 C462 1.531 . S
C459 C458 1.369 1_554 S
C459 C460 1.410 . S
C459 C467 1.503 . S
C460 C459 1.410 . S
C460 C461 1.392 . S
C460 C463 1.511 . S
C461 C457 1.376 . S
C461 C460 1.392 . S
C461 H473 0.929 . S
C462 C458 1.531 . S
C462 H474 0.960 . S
C462 H475 0.962 . S
C462 H476 0.960 . S
C463 C460 1.511 . S
C463 H477 0.961 . S
C463 H478 0.961 . S
C463 H479 0.961 . S
C464 C465 1.370 . S
C464 C466 1.363 . S
C464 H480 0.931 . S
C465 C464 1.370 . S
C465 C469 1.408 1_554 S
C466 C464 1.363 . S
C466 C467 1.370 . S
C466 C470 1.524 . S
C467 C459 1.503 . S
C467 C466 1.370 . S
C467 C468 1.403 1_554 S
C468 C467 1.403 1_556 S
C468 C469 1.404 . S
C468 C471 1.539 . S
C469 C465 1.408 1_556 S
C469 C468 1.404 . S
C469 H481 0.930 . S
C470 C466 1.524 . S
C470 H482 0.956 . S
C470 H483 0.961 . S
C470 H484 0.961 . S
C471 C468 1.539 . S
C471 H485 0.958 . S
C471 H486 0.961 . S
C471 H487 0.960 . S
H472 C456 0.931 . S
H473 C461 0.929 . S
H474 C462 0.960 . S
H475 C462 0.962 . S
H476 C462 0.960 . S
H477 C463 0.961 . S
H478 C463 0.961 . S
H479 C463 0.961 . S
H480 C464 0.931 . S
H481 C469 0.930 . S
H482 C470 0.956 . S
H483 C470 0.961 . S
H484 C470 0.961 . S
H485 C471 0.958 . S
H486 C471 0.961 . S
H487 C471 0.960 . S
C488 C489 1.391 1_556 S
C488 C490 1.394 . S
C488 H504 0.931 . S
C489 C488 1.391 1_554 S
C489 C493 1.376 . S
C490 C488 1.394 . S
C490 C491 1.369 1_556 S
C490 C494 1.531 . S
C491 C490 1.369 1_554 S
C491 C492 1.410 . S
C491 C499 1.503 . S
C492 C491 1.410 . S
C492 C493 1.392 . S
C492 C495 1.511 . S
C493 C489 1.376 . S
C493 C492 1.392 . S
C493 H505 0.929 . S
C494 C490 1.531 . S
C494 H506 0.960 . S
C494 H507 0.962 . S
C494 H508 0.960 . S
C495 C492 1.511 . S
C495 H509 0.961 . S
C495 H510 0.961 . S
C495 H511 0.961 . S
C496 C497 1.370 . S
C496 C498 1.363 . S
C496 H512 0.931 . S
C497 C496 1.370 . S
C497 C501 1.408 1_554 S
C498 C496 1.363 . S
C498 C499 1.370 . S
C498 C502 1.524 . S
C499 C491 1.503 . S
C499 C498 1.370 . S
C499 C500 1.403 1_554 S
C500 C499 1.403 1_556 S
C500 C501 1.404 . S
C500 C503 1.539 . S
C501 C497 1.408 1_556 S
C501 C500 1.404 . S
C501 H513 0.930 . S
C502 C498 1.524 . S
C502 H514 0.956 . S
C502 H515 0.961 . S
C502 H516 0.961 . S
C503 C500 1.539 . S
C503 H517 0.958 . S
C503 H518 0.961 . S
C503 H519 0.960 . S
H504 C488 0.931 . S
H505 C493 0.929 . S
H506 C494 0.960 . S
H507 C494 0.962 . S
H508 C494 0.960 . S
H509 C495 0.961 . S
H510 C495 0.961 . S
H511 C495 0.961 . S
H512 C496 0.931 . S
H513 C501 0.930 . S
H514 C502 0.956 . S
H515 C502 0.961 . S
H516 C502 0.961 . S
H517 C503 0.958 . S
H518 C503 0.961 . S
H519 C503 0.960 . S
C520 C521 1.391 1_556 S
C520 C522 1.394 . S
C520 H536 0.931 . S
C521 C520 1.391 1_554 S
C521 C525 1.376 . S
C522 C520 1.394 . S
C522 C523 1.369 1_556 S
C522 C526 1.531 . S
C523 C522 1.369 1_554 S
C523 C524 1.410 . S
C523 C531 1.503 . S
C524 C523 1.410 . S
C524 C525 1.392 . S
C524 C527 1.511 . S
C525 C521 1.376 . S
C525 C524 1.392 . S
C525 H537 0.929 . S
C526 C522 1.531 . S
C526 H538 0.960 . S
C526 H539 0.962 . S
C526 H540 0.960 . S
C527 C524 1.511 . S
C527 H541 0.961 . S
C527 H542 0.961 . S
C527 H543 0.961 . S
C528 C529 1.370 1_556 S
C528 C530 1.363 . S
C528 H544 0.931 . S
C529 C528 1.370 1_554 S
C529 C533 1.408 . S
C530 C528 1.363 . S
C530 C531 1.370 1_556 S
C530 C534 1.524 . S
C531 C523 1.503 . S
C531 C530 1.370 1_554 S
C531 C532 1.403 . S
C532 C531 1.403 . S
C532 C533 1.404 . S
C532 C535 1.539 . S
C533 C529 1.408 . S
C533 C532 1.404 . S
C533 H545 0.930 . S
C534 C530 1.524 . S
C534 H546 0.956 . S
C534 H547 0.961 . S
C534 H548 0.961 . S
C535 C532 1.539 . S
C535 H549 0.958 . S
C535 H550 0.961 . S
C535 H551 0.960 . S
H536 C520 0.931 . S
H537 C525 0.929 . S
H538 C526 0.960 . S
H539 C526 0.962 . S
H540 C526 0.960 . S
H541 C527 0.961 . S
H542 C527 0.961 . S
H543 C527 0.961 . S
H544 C528 0.931 . S
H545 C533 0.930 . S
H546 C534 0.956 . S
H547 C534 0.961 . S
H548 C534 0.961 . S
H549 C535 0.958 . S
H550 C535 0.961 . S
H551 C535 0.960 . S
C552 C553 1.391 . S
C552 C554 1.394 . S
C552 H568 0.931 . S
C553 C552 1.391 . S
C553 C557 1.376 . S
C554 C552 1.394 . S
C554 C555 1.369 . S
C554 C558 1.531 . S
C555 C554 1.369 . S
C555 C556 1.410 . S
C555 C563 1.503 . S
C556 C555 1.410 . S
C556 C557 1.392 . S
C556 C559 1.511 . S
C557 C553 1.376 . S
C557 C556 1.392 . S
C557 H569 0.929 . S
C558 C554 1.531 . S
C558 H570 0.960 . S
C558 H571 0.962 . S
C558 H572 0.960 . S
C559 C556 1.511 . S
C559 H573 0.961 . S
C559 H574 0.961 . S
C559 H575 0.961 . S
C560 C561 1.370 . S
C560 C562 1.363 . S
C560 H576 0.931 . S
C561 C560 1.370 . S
C561 C565 1.408 . S
C562 C560 1.363 . S
C562 C563 1.370 . S
C562 C566 1.524 . S
C563 C555 1.503 . S
C563 C562 1.370 . S
C563 C564 1.403 . S
C564 C563 1.403 . S
C564 C565 1.404 . S
C564 C567 1.539 . S
C565 C561 1.408 . S
C565 C564 1.404 . S
C565 H577 0.930 . S
C566 C562 1.524 . S
C566 H578 0.956 . S
C566 H579 0.961 . S
C566 H580 0.961 . S
C567 C564 1.539 . S
C567 H581 0.958 . S
C567 H582 0.961 . S
C567 H583 0.960 . S
H568 C552 0.931 . S
H569 C557 0.929 . S
H570 C558 0.960 . S
H571 C558 0.962 . S
H572 C558 0.960 . S
H573 C559 0.961 . S
H574 C559 0.961 . S
H575 C559 0.961 . S
H576 C560 0.931 . S
H577 C565 0.930 . S
H578 C566 0.956 . S
H579 C566 0.961 . S
H580 C566 0.961 . S
H581 C567 0.958 . S
H582 C567 0.961 . S
H583 C567 0.960 . S
C584 C585 1.391 . S
C584 C586 1.394 . S
C584 H600 0.931 . S
C585 C584 1.391 . S
C585 C589 1.376 . S
C586 C584 1.394 . S
C586 C587 1.369 . S
C586 C590 1.531 . S
C587 C586 1.369 . S
C587 C588 1.410 . S
C587 C595 1.503 . S
C588 C587 1.410 . S
C588 C589 1.392 . S
C588 C591 1.511 1_545 S
C589 C585 1.376 . S
C589 C588 1.392 . S
C589 H601 0.929 . S
C590 C586 1.531 . S
C590 H602 0.960 . S
C590 H603 0.962 . S
C590 H604 0.960 . S
C591 C588 1.511 1_565 S
C591 H605 0.961 . S
C591 H606 0.961 . S
C591 H607 0.961 . S
C592 C593 1.370 . S
C592 C594 1.363 1_565 S
C592 H608 0.931 . S
C593 C592 1.370 . S
C593 C597 1.408 . S
C594 C592 1.363 1_545 S
C594 C595 1.370 . S
C594 C598 1.524 . S
C595 C587 1.503 . S
C595 C594 1.370 . S
C595 C596 1.403 . S
C596 C595 1.403 . S
C596 C597 1.404 1_545 S
C596 C599 1.539 . S
C597 C593 1.408 . S
C597 C596 1.404 1_565 S
C597 H609 0.930 . S
C598 C594 1.524 . S
C598 H610 0.956 . S
C598 H611 0.961 . S
C598 H612 0.961 . S
C599 C596 1.539 . S
C599 H613 0.958 . S
C599 H614 0.961 1_545 S
C599 H615 0.960 . S
H600 C584 0.931 . S
H601 C589 0.929 . S
H602 C590 0.960 . S
H603 C590 0.962 . S
H604 C590 0.960 . S
H605 C591 0.961 . S
H606 C591 0.961 . S
H607 C591 0.961 . S
H608 C592 0.931 . S
H609 C597 0.930 . S
H610 C598 0.956 . S
H611 C598 0.961 . S
H612 C598 0.961 . S
H613 C599 0.958 . S
H614 C599 0.961 1_565 S
H615 C599 0.960 . S
C616 C617 1.391 . S
C616 C618 1.394 1_455 S
C616 H632 0.931 . S
C617 C616 1.391 . S
C617 C621 1.376 . S
C618 C616 1.394 1_655 S
C618 C619 1.369 . S
C618 C622 1.531 . S
C619 C618 1.369 . S
C619 C620 1.409 . S
C619 C627 1.503 . S
C620 C619 1.409 . S
C620 C621 1.392 1_655 S
C620 C623 1.511 . S
C621 C617 1.376 . S
C621 C620 1.392 1_455 S
C621 H633 0.929 . S
C622 C618 1.531 . S
C622 H634 0.960 . S
C622 H635 0.962 . S
C622 H636 0.960 1_655 S
C623 C620 1.511 . S
C623 H637 0.961 . S
C623 H638 0.961 . S
C623 H639 0.961 1_655 S
C624 C625 1.370 . S
C624 C626 1.363 . S
C624 H640 0.931 . S
C625 C624 1.370 . S
C625 C629 1.408 . S
C626 C624 1.363 . S
C626 C627 1.370 . S
C626 C630 1.524 . S
C627 C619 1.503 . S
C627 C626 1.370 . S
C627 C628 1.403 . S
C628 C627 1.403 . S
C628 C629 1.404 . S
C628 C631 1.539 1_655 S
C629 C625 1.408 . S
C629 C628 1.404 . S
C629 H641 0.930 . S
C630 C626 1.524 . S
C630 H642 0.956 . S
C630 H643 0.961 . S
C630 H644 0.961 . S
C631 C628 1.539 1_455 S
C631 H645 0.958 . S
C631 H646 0.961 . S
C631 H647 0.960 . S
H632 C616 0.931 . S
H633 C621 0.929 . S
H634 C622 0.960 . S
H635 C622 0.962 . S
H636 C622 0.960 1_455 S
H637 C623 0.961 . S
H638 C623 0.961 . S
H639 C623 0.961 1_455 S
H640 C624 0.931 . S
H641 C629 0.930 . S
H642 C630 0.956 . S
H643 C630 0.961 . S
H644 C630 0.961 . S
H645 C631 0.958 . S
H646 C631 0.961 . S
H647 C631 0.960 . S
C648 C649 1.391 . S
C648 C650 1.394 . S
C648 H664 0.931 . S
C649 C648 1.391 . S
C649 C653 1.376 . S
C650 C648 1.394 . S
C650 C651 1.369 . S
C650 C654 1.531 . S
C651 C650 1.369 . S
C651 C652 1.410 . S
C651 C659 1.503 . S
C652 C651 1.410 . S
C652 C653 1.392 . S
C652 C655 1.511 . S
C653 C649 1.376 . S
C653 C652 1.392 . S
C653 H665 0.929 . S
C654 C650 1.531 . S
C654 H666 0.960 . S
C654 H667 0.962 . S
C654 H668 0.960 . S
C655 C652 1.511 . S
C655 H669 0.961 . S
C655 H670 0.961 . S
C655 H671 0.961 . S
C656 C657 1.370 . S
C656 C658 1.363 . S
C656 H672 0.931 . S
C657 C656 1.370 . S
C657 C661 1.408 . S
C658 C656 1.363 . S
C658 C659 1.370 . S
C658 C662 1.524 . S
C659 C651 1.503 . S
C659 C658 1.370 . S
C659 C660 1.403 . S
C660 C659 1.403 . S
C660 C661 1.404 . S
C660 C663 1.539 . S
C661 C657 1.408 . S
C661 C660 1.404 . S
C661 H673 0.930 . S
C662 C658 1.524 . S
C662 H674 0.956 . S
C662 H675 0.961 . S
C662 H676 0.961 . S
C663 C660 1.539 . S
C663 H677 0.958 . S
C663 H678 0.961 . S
C663 H679 0.960 . S
H664 C648 0.931 . S
H665 C653 0.929 . S
H666 C654 0.960 . S
H667 C654 0.962 . S
H668 C654 0.960 . S
H669 C655 0.961 . S
H670 C655 0.961 . S
H671 C655 0.961 . S
H672 C656 0.931 . S
H673 C661 0.930 . S
H674 C662 0.956 . S
H675 C662 0.961 . S
H676 C662 0.961 . S
H677 C663 0.958 . S
H678 C663 0.961 . S
H679 C663 0.960 . S
C680 C681 1.391 . S
C680 C682 1.394 . S
C680 H696 0.931 . S
C681 C680 1.391 . S
C681 C685 1.376 . S
C682 C680 1.394 . S
C682 C683 1.369 . S
C682 C686 1.531 . S
C683 C682 1.369 . S
C683 C684 1.410 . S
C683 C691 1.503 . S
C684 C683 1.410 . S
C684 C685 1.392 . S
C684 C687 1.511 . S
C685 C681 1.376 . S
C685 C684 1.392 . S
C685 H697 0.929 . S
C686 C682 1.531 . S
C686 H698 0.960 . S
C686 H699 0.962 . S
C686 H700 0.960 . S
C687 C684 1.511 . S
C687 H701 0.961 . S
C687 H702 0.961 . S
C687 H703 0.961 . S
C688 C689 1.370 . S
C688 C690 1.363 . S
C688 H704 0.931 . S
C689 C688 1.370 . S
C689 C693 1.408 . S
C690 C688 1.363 . S
C690 C691 1.370 . S
C690 C694 1.524 . S
C691 C683 1.503 . S
C691 C690 1.370 . S
C691 C692 1.403 . S
C692 C691 1.403 . S
C692 C693 1.404 . S
C692 C695 1.539 . S
C693 C689 1.408 . S
C693 C692 1.404 . S
C693 H705 0.930 . S
C694 C690 1.524 . S
C694 H706 0.956 . S
C694 H707 0.961 . S
C694 H708 0.961 . S
C695 C692 1.539 . S
C695 H709 0.958 . S
C695 H710 0.961 . S
C695 H711 0.960 . S
H696 C680 0.931 . S
H697 C685 0.929 . S
H698 C686 0.960 . S
H699 C686 0.962 . S
H700 C686 0.960 . S
H701 C687 0.961 . S
H702 C687 0.961 . S
H703 C687 0.961 . S
H704 C688 0.931 . S
H705 C693 0.930 . S
H706 C694 0.956 . S
H707 C694 0.961 . S
H708 C694 0.961 . S
H709 C695 0.958 . S
H710 C695 0.961 . S
H711 C695 0.960 . S
C712 C713 1.391 . S
C712 C714 1.394 . S
C712 H728 0.931 . S
C713 C712 1.391 . S
C713 C717 1.376 . S
C714 C712 1.394 . S
C714 C715 1.369 . S
C714 C718 1.531 . S
C715 C714 1.369 . S
C715 C716 1.410 . S
C715 C723 1.503 . S
C716 C715 1.410 . S
C716 C717 1.392 . S
C716 C719 1.511 . S
C717 C713 1.376 . S
C717 C716 1.392 . S
C717 H729 0.929 . S
C718 C714 1.531 . S
C718 H730 0.960 . S
C718 H731 0.962 . S
C718 H732 0.960 . S
C719 C716 1.511 . S
C719 H733 0.961 . S
C719 H734 0.961 . S
C719 H735 0.961 . S
C720 C721 1.370 . S
C720 C722 1.363 . S
C720 H736 0.931 . S
C721 C720 1.370 . S
C721 C725 1.408 . S
C722 C720 1.363 . S
C722 C723 1.370 . S
C722 C726 1.524 . S
C723 C715 1.503 . S
C723 C722 1.370 . S
C723 C724 1.403 . S
C724 C723 1.403 . S
C724 C725 1.404 . S
C724 C727 1.539 . S
C725 C721 1.408 . S
C725 C724 1.404 . S
C725 H737 0.930 . S
C726 C722 1.524 . S
C726 H738 0.956 . S
C726 H739 0.961 . S
C726 H740 0.961 . S
C727 C724 1.539 . S
C727 H741 0.958 . S
C727 H742 0.961 . S
C727 H743 0.960 . S
H728 C712 0.931 . S
H729 C717 0.929 . S
H730 C718 0.960 . S
H731 C718 0.962 . S
H732 C718 0.960 . S
H733 C719 0.961 . S
H734 C719 0.961 . S
H735 C719 0.961 . S
H736 C720 0.931 . S
H737 C725 0.930 . S
H738 C726 0.956 . S
H739 C726 0.961 . S
H740 C726 0.961 . S
H741 C727 0.958 . S
H742 C727 0.961 . S
H743 C727 0.960 . S
C744 C745 1.391 . S
C744 C746 1.394 . S
C744 H760 0.931 . S
C745 C744 1.391 . S
C745 C749 1.376 . S
C746 C744 1.394 . S
C746 C747 1.369 . S
C746 C750 1.531 . S
C747 C746 1.369 . S
C747 C748 1.410 . S
C747 C755 1.503 . S
C748 C747 1.410 . S
C748 C749 1.392 . S
C748 C751 1.511 . S
C749 C745 1.376 . S
C749 C748 1.392 . S
C749 H761 0.929 . S
C750 C746 1.531 . S
C750 H762 0.960 . S
C750 H763 0.962 . S
C750 H764 0.960 . S
C751 C748 1.511 . S
C751 H765 0.961 . S
C751 H766 0.961 . S
C751 H767 0.961 . S
C752 C753 1.370 . S
C752 C754 1.363 . S
C752 H768 0.931 . S
C753 C752 1.370 . S
C753 C757 1.408 . S
C754 C752 1.363 . S
C754 C755 1.370 . S
C754 C758 1.524 . S
C755 C747 1.503 . S
C755 C754 1.370 . S
C755 C756 1.403 . S
C756 C755 1.403 . S
C756 C757 1.404 . S
C756 C759 1.539 . S
C757 C753 1.408 . S
C757 C756 1.404 . S
C757 H769 0.930 . S
C758 C754 1.524 . S
C758 H770 0.956 . S
C758 H771 0.961 . S
C758 H772 0.961 . S
C759 C756 1.539 . S
C759 H773 0.958 . S
C759 H774 0.961 . S
C759 H775 0.960 . S
H760 C744 0.931 . S
H761 C749 0.929 . S
H762 C750 0.960 . S
H763 C750 0.962 . S
H764 C750 0.960 . S
H765 C751 0.961 . S
H766 C751 0.961 . S
H767 C751 0.961 . S
H768 C752 0.931 . S
H769 C757 0.930 . S
H770 C758 0.956 . S
H771 C758 0.961 . S
H772 C758 0.961 . S
H773 C759 0.958 . S
H774 C759 0.961 . S
H775 C759 0.960 . S
C776 C777 1.391 . S
C776 C778 1.394 . S
C776 H792 0.931 . S
C777 C776 1.391 . S
C777 C781 1.376 . S
C778 C776 1.394 . S
C778 C779 1.369 . S
C778 C782 1.531 . S
C779 C778 1.369 . S
C779 C780 1.410 . S
C779 C787 1.503 . S
C780 C779 1.410 . S
C780 C781 1.392 . S
C780 C783 1.511 . S
C781 C777 1.376 . S
C781 C780 1.392 . S
C781 H793 0.929 . S
C782 C778 1.531 . S
C782 H794 0.960 . S
C782 H795 0.962 . S
C782 H796 0.960 . S
C783 C780 1.511 . S
C783 H797 0.961 . S
C783 H798 0.961 . S
C783 H799 0.961 . S
C784 C785 1.370 . S
C784 C786 1.363 . S
C784 H800 0.931 . S
C785 C784 1.370 . S
C785 C789 1.408 . S
C786 C784 1.363 . S
C786 C787 1.370 . S
C786 C790 1.524 . S
C787 C779 1.503 . S
C787 C786 1.370 . S
C787 C788 1.403 . S
C788 C787 1.403 . S
C788 C789 1.404 . S
C788 C791 1.539 . S
C789 C785 1.408 . S
C789 C788 1.404 . S
C789 H801 0.930 . S
C790 C786 1.524 . S
C790 H802 0.956 . S
C790 H803 0.961 . S
C790 H804 0.961 . S
C791 C788 1.539 . S
C791 H805 0.958 . S
C791 H806 0.961 . S
C791 H807 0.960 . S
H792 C776 0.931 . S
H793 C781 0.929 . S
H794 C782 0.960 . S
H795 C782 0.962 . S
H796 C782 0.960 . S
H797 C783 0.961 . S
H798 C783 0.961 . S
H799 C783 0.961 . S
H800 C784 0.931 . S
H801 C789 0.930 . S
H802 C790 0.956 . S
H803 C790 0.961 . S
H804 C790 0.961 . S
H805 C791 0.958 . S
H806 C791 0.961 . S
H807 C791 0.960 . S
C808 C809 1.391 . S
C808 C810 1.394 . S
C808 H824 0.931 . S
C809 C808 1.391 . S
C809 C813 1.376 . S
C810 C808 1.394 . S
C810 C811 1.369 . S
C810 C814 1.531 . S
C811 C810 1.369 . S
C811 C812 1.410 . S
C811 C819 1.503 . S
C812 C811 1.410 . S
C812 C813 1.392 . S
C812 C815 1.511 . S
C813 C809 1.376 . S
C813 C812 1.392 . S
C813 H825 0.929 . S
C814 C810 1.531 . S
C814 H826 0.960 . S
C814 H827 0.962 . S
C814 H828 0.960 . S
C815 C812 1.511 . S
C815 H829 0.961 . S
C815 H830 0.961 . S
C815 H831 0.961 . S
C816 C817 1.370 . S
C816 C818 1.363 . S
C816 H832 0.931 . S
C817 C816 1.370 . S
C817 C821 1.408 . S
C818 C816 1.363 . S
C818 C819 1.370 . S
C818 C822 1.524 . S
C819 C811 1.503 . S
C819 C818 1.370 . S
C819 C820 1.403 . S
C820 C819 1.403 . S
C820 C821 1.404 . S
C820 C823 1.539 . S
C821 C817 1.408 . S
C821 C820 1.404 . S
C821 H833 0.930 . S
C822 C818 1.524 . S
C822 H834 0.956 . S
C822 H835 0.961 . S
C822 H836 0.961 . S
C823 C820 1.539 . S
C823 H837 0.958 . S
C823 H838 0.961 . S
C823 H839 0.960 . S
H824 C808 0.931 . S
H825 C813 0.929 . S
H826 C814 0.960 . S
H827 C814 0.962 . S
H828 C814 0.960 . S
H829 C815 0.961 . S
H830 C815 0.961 . S
H831 C815 0.961 . S
H832 C816 0.931 . S
H833 C821 0.930 . S
H834 C822 0.956 . S
H835 C822 0.961 . S
H836 C822 0.961 . S
H837 C823 0.958 . S
H838 C823 0.961 . S
H839 C823 0.960 . S
C840 C841 1.391 . S
C840 C842 1.394 . S
C840 H856 0.931 . S
C841 C840 1.391 . S
C841 C845 1.376 . S
C842 C840 1.394 . S
C842 C843 1.369 1_565 S
C842 C846 1.531 . S
C843 C842 1.369 1_545 S
C843 C844 1.410 1_545 S
C843 C851 1.503 . S
C844 C843 1.410 1_565 S
C844 C845 1.392 . S
C844 C847 1.511 1_565 S
C845 C841 1.376 . S
C845 C844 1.392 . S
C845 H857 0.929 . S
C846 C842 1.531 . S
C846 H858 0.960 1_565 S
C846 H859 0.960 1_565 S
C846 H860 0.960 . S
C847 C844 1.511 1_545 S
C847 H861 0.946 1_545 S
C847 H862 0.961 . S
C847 H863 0.961 . S
C848 C849 1.370 . S
C848 C850 1.363 . S
C848 H864 0.931 . S
C849 C848 1.370 . S
C849 C853 1.408 . S
C850 C848 1.363 . S
C850 C851 1.370 . S
C850 C854 1.524 . S
C851 C843 1.503 . S
C851 C850 1.370 . S
C851 C852 1.403 . S
C852 C851 1.403 . S
C852 C853 1.404 . S
C852 C855 1.539 . S
C853 C849 1.408 . S
C853 C852 1.404 . S
C853 H865 0.930 . S
C854 C850 1.524 . S
C854 H866 0.956 . S
C854 H867 0.961 . S
C854 H868 0.961 . S
C855 C852 1.539 . S
C855 H869 0.958 . S
C855 H870 0.961 . S
C855 H871 0.960 . S
H856 C840 0.931 . S
H857 C845 0.929 . S
H858 C846 0.960 1_545 S
H859 C846 0.960 1_545 S
H860 C846 0.960 . S
H861 C847 0.946 1_565 S
H862 C847 0.961 . S
H863 C847 0.961 . S
H864 C848 0.931 . S
H865 C853 0.930 . S
H866 C854 0.956 . S
H867 C854 0.961 . S
H868 C854 0.961 . S
H869 C855 0.958 . S
H870 C855 0.961 . S
H871 C855 0.960 . S
C872 C873 1.391 . S
C872 C874 1.394 . S
C872 H888 0.931 . S
C873 C872 1.391 . S
C873 C877 1.376 . S
C874 C872 1.394 . S
C874 C875 1.369 . S
C874 C878 1.531 . S
C875 C874 1.369 . S
C875 C876 1.410 . S
C875 C883 1.503 1_655 S
C876 C875 1.410 . S
C876 C877 1.392 . S
C876 C879 1.511 . S
C877 C873 1.376 . S
C877 C876 1.392 . S
C877 H889 0.929 . S
C878 C874 1.531 . S
C878 H890 0.960 . S
C878 H891 0.962 . S
C878 H892 0.960 . S
C879 C876 1.511 . S
C879 H893 0.961 . S
C879 H894 0.961 . S
C879 H895 0.961 . S
C880 C881 1.370 . S
C880 C882 1.363 . S
C880 H896 0.931 . S
C881 C880 1.370 . S
C881 C885 1.408 . S
C882 C880 1.363 . S
C882 C883 1.370 . S
C882 C886 1.524 1_455 S
C883 C875 1.503 1_455 S
C883 C882 1.370 . S
C883 C884 1.403 . S
C884 C883 1.403 . S
C884 C885 1.404 . S
C884 C887 1.539 . S
C885 C881 1.408 . S
C885 C884 1.404 . S
C885 H897 0.930 . S
C886 C882 1.524 1_655 S
C886 H898 0.956 . S
C886 H899 0.961 . S
C886 H900 0.961 1_655 S
C887 C884 1.539 . S
C887 H901 0.958 . S
C887 H902 0.961 . S
C887 H903 0.960 1_455 S
H888 C872 0.931 . S
H889 C877 0.929 . S
H890 C878 0.960 . S
H891 C878 0.962 . S
H892 C878 0.960 . S
H893 C879 0.961 . S
H894 C879 0.961 . S
H895 C879 0.961 . S
H896 C880 0.931 . S
H897 C885 0.930 . S
H898 C886 0.956 . S
H899 C886 0.961 . S
H900 C886 0.961 1_455 S
H901 C887 0.958 . S
H902 C887 0.961 . S
H903 C887 0.960 1_655 S
C904 C905 1.391 . S
C904 C906 1.394 . S
C904 H920 0.931 . S
C905 C904 1.391 . S
C905 C909 1.376 . S
C906 C904 1.394 . S
C906 C907 1.369 . S
C906 C910 1.531 . S
C907 C906 1.369 . S
C907 C908 1.410 . S
C907 C915 1.503 . S
C908 C907 1.410 . S
C908 C909 1.392 . S
C908 C911 1.511 . S
C909 C905 1.376 . S
C909 C908 1.392 . S
C909 H921 0.929 . S
C910 C906 1.531 . S
C910 H922 0.960 . S
C910 H923 0.962 . S
C910 H924 0.960 . S
C911 C908 1.511 . S
C911 H925 0.961 . S
C911 H926 0.961 . S
C911 H927 0.961 . S
C912 C913 1.370 . S
C912 C914 1.363 . S
C912 H928 0.931 . S
C913 C912 1.370 . S
C913 C917 1.408 . S
C914 C912 1.363 . S
C914 C915 1.370 . S
C914 C918 1.524 . S
C915 C907 1.503 . S
C915 C914 1.370 . S
C915 C916 1.403 . S
C916 C915 1.403 . S
C916 C917 1.404 . S
C916 C919 1.539 . S
C917 C913 1.408 . S
C917 C916 1.404 . S
C917 H929 0.930 . S
C918 C914 1.524 . S
C918 H930 0.956 . S
C918 H931 0.961 . S
C918 H932 0.961 . S
C919 C916 1.539 . S
C919 H933 0.958 . S
C919 H934 0.961 . S
C919 H935 0.960 . S
H920 C904 0.931 . S
H921 C909 0.929 . S
H922 C910 0.960 . S
H923 C910 0.962 . S
H924 C910 0.960 . S
H925 C911 0.961 . S
H926 C911 0.961 . S
H927 C911 0.961 . S
H928 C912 0.931 . S
H929 C917 0.930 . S
H930 C918 0.956 . S
H931 C918 0.961 . S
H932 C918 0.961 . S
H933 C919 0.958 . S
H934 C919 0.961 . S
H935 C919 0.960 . S
C936 C937 1.391 . S
C936 C938 1.394 . S
C936 H952 0.931 . S
C937 C936 1.391 . S
C937 C941 1.376 . S
C938 C936 1.394 . S
C938 C939 1.369 . S
C938 C942 1.531 . S
C939 C938 1.369 . S
C939 C940 1.410 . S
C939 C947 1.503 . S
C940 C939 1.410 . S
C940 C941 1.392 . S
C940 C943 1.511 . S
C941 C937 1.376 . S
C941 C940 1.392 . S
C941 H953 0.929 . S
C942 C938 1.531 . S
C942 H954 0.960 . S
C942 H955 0.962 . S
C942 H956 0.960 . S
C943 C940 1.511 . S
C943 H957 0.961 . S
C943 H958 0.961 . S
C943 H959 0.961 . S
C944 C945 1.370 . S
C944 C946 1.363 . S
C944 H960 0.931 . S
C945 C944 1.370 . S
C945 C949 1.408 . S
C946 C944 1.363 . S
C946 C947 1.370 . S
C946 C950 1.524 . S
C947 C939 1.503 . S
C947 C946 1.370 . S
C947 C948 1.403 . S
C948 C947 1.403 . S
C948 C949 1.404 . S
C948 C951 1.539 1_455 S
C949 C945 1.408 . S
C949 C948 1.404 . S
C949 H961 0.930 1_455 S
C950 C946 1.524 . S
C950 H962 0.956 . S
C950 H963 0.961 . S
C950 H964 0.961 . S
C951 C948 1.539 1_655 S
C951 H965 0.958 . S
C951 H966 0.961 . S
C951 H967 0.960 1_655 S
H952 C936 0.931 . S
H953 C941 0.929 . S
H954 C942 0.960 . S
H955 C942 0.962 . S
H956 C942 0.960 . S
H957 C943 0.961 . S
H958 C943 0.961 . S
H959 C943 0.961 . S
H960 C944 0.931 . S
H961 C949 0.930 1_655 S
H962 C950 0.956 . S
H963 C950 0.961 . S
H964 C950 0.961 . S
H965 C951 0.958 . S
H966 C951 0.961 . S
H967 C951 0.960 1_455 S
C968 C969 1.391 . S
C968 C970 1.394 . S
C968 H984 0.931 . S
C969 C968 1.391 . S
C969 C973 1.376 . S
C970 C968 1.394 . S
C970 C971 1.369 . S
C970 C974 1.531 . S
C971 C970 1.369 . S
C971 C972 1.410 . S
C971 C979 1.503 . S
C972 C971 1.410 . S
C972 C973 1.392 . S
C972 C975 1.511 . S
C973 C969 1.376 . S
C973 C972 1.392 . S
C973 H985 0.929 . S
C974 C970 1.531 . S
C974 H986 0.960 . S
C974 H987 0.962 . S
C974 H988 0.960 . S
C975 C972 1.511 . S
C975 H989 0.961 . S
C975 H990 0.961 . S
C975 H991 0.961 . S
C976 C977 1.370 . S
C976 C978 1.363 . S
C976 H992 0.931 . S
C977 C976 1.370 . S
C977 C981 1.408 . S
C978 C976 1.363 . S
C978 C979 1.370 . S
C978 C982 1.524 . S
C979 C971 1.503 . S
C979 C978 1.370 . S
C979 C980 1.403 . S
C980 C979 1.403 . S
C980 C981 1.404 . S
C980 C983 1.539 . S
C981 C977 1.408 . S
C981 C980 1.404 . S
C981 H993 0.930 . S
C982 C978 1.524 . S
C982 H994 0.956 . S
C982 H995 0.961 . S
C982 H996 0.961 . S
C983 C980 1.539 . S
C983 H997 0.958 . S
C983 H998 0.961 . S
C983 H999 0.960 . S
H984 C968 0.931 . S
H985 C973 0.929 . S
H986 C974 0.960 . S
H987 C974 0.962 . S
H988 C974 0.960 . S
H989 C975 0.961 . S
H990 C975 0.961 . S
H991 C975 0.961 . S
H992 C976 0.931 . S
H993 C981 0.930 . S
H994 C982 0.956 . S
H995 C982 0.961 . S
H996 C982 0.961 . S
H997 C983 0.958 . S
H998 C983 0.961 . S
H999 C983 0.960 . S
C1000 C1001 1.391 . S
C1000 C1002 1.394 . S
C1000 H1016 0.931 . S
C1001 C1000 1.391 . S
C1001 C1005 1.376 . S
C1002 C1000 1.394 . S
C1002 C1003 1.369 . S
C1002 C1006 1.531 . S
C1003 C1002 1.369 . S
C1003 C1004 1.410 . S
C1003 C1011 1.503 . S
C1004 C1003 1.410 . S
C1004 C1005 1.392 . S
C1004 C1007 1.511 . S
C1005 C1001 1.376 . S
C1005 C1004 1.392 . S
C1005 H1017 0.929 . S
C1006 C1002 1.531 . S
C1006 H1018 0.960 . S
C1006 H1019 0.962 . S
C1006 H1020 0.960 . S
C1007 C1004 1.511 . S
C1007 H1021 0.961 . S
C1007 H1022 0.961 . S
C1007 H1023 0.961 . S
C1008 C1009 1.370 . S
C1008 C1010 1.363 . S
C1008 H1024 0.931 . S
C1009 C1008 1.370 . S
C1009 C1013 1.408 . S
C1010 C1008 1.363 . S
C1010 C1011 1.370 . S
C1010 C1014 1.524 . S
C1011 C1003 1.503 . S
C1011 C1010 1.370 . S
C1011 C1012 1.403 . S
C1012 C1011 1.403 . S
C1012 C1013 1.404 . S
C1012 C1015 1.539 . S
C1013 C1009 1.408 . S
C1013 C1012 1.404 . S
C1013 H1025 0.930 . S
C1014 C1010 1.524 . S
C1014 H1026 0.942 1_565 S
C1014 H1027 0.961 . S
C1014 H1028 0.975 . S
C1015 C1012 1.539 . S
C1015 H1029 0.958 . S
C1015 H1030 0.961 . S
C1015 H1031 0.960 . S
H1016 C1000 0.931 . S
H1017 C1005 0.929 . S
H1018 C1006 0.960 . S
H1019 C1006 0.962 . S
H1020 C1006 0.960 . S
H1021 C1007 0.961 . S
H1022 C1007 0.961 . S
H1023 C1007 0.961 . S
H1024 C1008 0.931 . S
H1025 C1013 0.930 . S
H1026 C1014 0.942 1_545 S
H1027 C1014 0.961 . S
H1028 C1014 0.975 . S
H1029 C1015 0.958 . S
H1030 C1015 0.961 . S
H1031 C1015 0.960 . S
C1032 C1033 1.391 . S
C1032 C1034 1.394 . S
C1032 H1048 0.931 . S
C1033 C1032 1.391 . S
C1033 C1037 1.376 . S
C1034 C1032 1.394 . S
C1034 C1035 1.369 . S
C1034 C1038 1.531 . S
C1035 C1034 1.369 . S
C1035 C1036 1.410 . S
C1035 C1043 1.503 . S
C1036 C1035 1.410 . S
C1036 C1037 1.392 . S
C1036 C1039 1.511 . S
C1037 C1033 1.376 . S
C1037 C1036 1.392 . S
C1037 H1049 0.929 1_545 S
C1038 C1034 1.531 . S
C1038 H1050 0.960 . S
C1038 H1051 0.962 . S
C1038 H1052 0.960 . S
C1039 C1036 1.511 . S
C1039 H1053 0.961 1_545 S
C1039 H1054 0.961 . S
C1039 H1055 0.961 . S
C1040 C1041 1.370 . S
C1040 C1042 1.363 . S
C1040 H1056 0.931 . S
C1041 C1040 1.370 . S
C1041 C1045 1.408 . S
C1042 C1040 1.363 . S
C1042 C1043 1.370 . S
C1042 C1046 1.524 . S
C1043 C1035 1.503 . S
C1043 C1042 1.370 . S
C1043 C1044 1.403 . S
C1044 C1043 1.403 . S
C1044 C1045 1.404 . S
C1044 C1047 1.539 . S
C1045 C1041 1.408 . S
C1045 C1044 1.404 . S
C1045 H1057 0.930 . S
C1046 C1042 1.524 . S
C1046 H1058 0.956 . S
C1046 H1059 0.961 . S
C1046 H1060 0.961 . S
C1047 C1044 1.539 . S
C1047 H1061 0.958 . S
C1047 H1062 0.961 . S
C1047 H1063 0.960 . S
H1048 C1032 0.931 . S
H1049 C1037 0.929 1_565 S
H1050 C1038 0.960 . S
H1051 C1038 0.962 . S
H1052 C1038 0.960 . S
H1053 C1039 0.961 1_565 S
H1054 C1039 0.961 . S
H1055 C1039 0.961 . S
H1056 C1040 0.931 . S
H1057 C1045 0.930 . S
H1058 C1046 0.956 . S
H1059 C1046 0.961 . S
H1060 C1046 0.961 . S
H1061 C1047 0.958 . S
H1062 C1047 0.961 . S
H1063 C1047 0.960 . S
C1064 C1065 1.391 . S
C1064 C1066 1.394 . S
C1064 H1080 0.931 . S
C1065 C1064 1.391 . S
C1065 C1069 1.376 . S
C1066 C1064 1.394 . S
C1066 C1067 1.369 . S
C1066 C1070 1.531 . S
C1067 C1066 1.369 . S
C1067 C1068 1.410 . S
C1067 C1075 1.503 . S
C1068 C1067 1.410 . S
C1068 C1069 1.392 . S
C1068 C1071 1.511 . S
C1069 C1065 1.376 . S
C1069 C1068 1.392 . S
C1069 H1081 0.929 . S
C1070 C1066 1.531 . S
C1070 H1082 0.960 . S
C1070 H1083 0.962 . S
C1070 H1084 0.960 . S
C1071 C1068 1.511 . S
C1071 H1085 0.961 . S
C1071 H1086 0.961 . S
C1071 H1087 0.961 . S
C1072 C1073 1.370 . S
C1072 C1074 1.363 . S
C1072 H1088 0.931 . S
C1073 C1072 1.370 . S
C1073 C1077 1.408 . S
C1074 C1072 1.363 . S
C1074 C1075 1.370 . S
C1074 C1078 1.524 . S
C1075 C1067 1.503 . S
C1075 C1074 1.370 . S
C1075 C1076 1.403 . S
C1076 C1075 1.403 . S
C1076 C1077 1.404 . S
C1076 C1079 1.539 . S
C1077 C1073 1.408 . S
C1077 C1076 1.404 . S
C1077 H1089 0.930 . S
C1078 C1074 1.524 . S
C1078 H1090 0.956 . S
C1078 H1091 0.961 . S
C1078 H1092 0.961 . S
C1079 C1076 1.539 . S
C1079 H1093 0.958 1_655 S
C1079 H1094 0.961 . S
C1079 H1095 0.960 . S
H1080 C1064 0.931 . S
H1081 C1069 0.929 . S
H1082 C1070 0.960 . S
H1083 C1070 0.962 . S
H1084 C1070 0.960 . S
H1085 C1071 0.961 . S
H1086 C1071 0.961 . S
H1087 C1071 0.961 . S
H1088 C1072 0.931 . S
H1089 C1077 0.930 . S
H1090 C1078 0.956 . S
H1091 C1078 0.961 . S
H1092 C1078 0.961 . S
H1093 C1079 0.958 1_455 S
H1094 C1079 0.961 . S
H1095 C1079 0.960 . S
C1096 C1097 1.391 . S
C1096 C1098 1.394 . S
C1096 H1112 0.931 . S
C1097 C1096 1.391 . S
C1097 C1101 1.376 . S
C1098 C1096 1.394 . S
C1098 C1099 1.369 . S
C1098 C1102 1.531 . S
C1099 C1098 1.369 . S
C1099 C1100 1.410 . S
C1099 C1107 1.503 . S
C1100 C1099 1.410 . S
C1100 C1101 1.392 . S
C1100 C1103 1.511 . S
C1101 C1097 1.376 . S
C1101 C1100 1.392 . S
C1101 H1113 0.929 . S
C1102 C1098 1.531 . S
C1102 H1114 0.960 . S
C1102 H1115 0.962 . S
C1102 H1116 0.960 . S
C1103 C1100 1.511 . S
C1103 H1117 0.961 . S
C1103 H1118 0.961 . S
C1103 H1119 0.961 . S
C1104 C1105 1.370 . S
C1104 C1106 1.363 . S
C1104 H1120 0.931 . S
C1105 C1104 1.370 . S
C1105 C1109 1.408 . S
C1106 C1104 1.363 . S
C1106 C1107 1.370 . S
C1106 C1110 1.524 . S
C1107 C1099 1.503 . S
C1107 C1106 1.370 . S
C1107 C1108 1.403 . S
C1108 C1107 1.403 . S
C1108 C1109 1.404 . S
C1108 C1111 1.539 . S
C1109 C1105 1.408 . S
C1109 C1108 1.404 . S
C1109 H1121 0.930 . S
C1110 C1106 1.524 . S
C1110 H1122 0.956 . S
C1110 H1123 0.961 . S
C1110 H1124 0.961 . S
C1111 C1108 1.539 . S
C1111 H1125 0.958 . S
C1111 H1126 0.961 . S
C1111 H1127 0.960 . S
H1112 C1096 0.931 . S
H1113 C1101 0.929 . S
H1114 C1102 0.960 . S
H1115 C1102 0.962 . S
H1116 C1102 0.960 . S
H1117 C1103 0.961 . S
H1118 C1103 0.961 . S
H1119 C1103 0.961 . S
H1120 C1104 0.931 . S
H1121 C1109 0.930 . S
H1122 C1110 0.956 . S
H1123 C1110 0.961 . S
H1124 C1110 0.961 . S
H1125 C1111 0.958 . S
H1126 C1111 0.961 . S
H1127 C1111 0.960 . S
C1128 C1129 1.391 . S
C1128 C1130 1.394 . S
C1128 H1144 0.931 . S
C1129 C1128 1.391 . S
C1129 C1133 1.376 . S
C1130 C1128 1.394 . S
C1130 C1131 1.369 . S
C1130 C1134 1.531 . S
C1131 C1130 1.369 . S
C1131 C1132 1.410 . S
C1131 C1139 1.503 . S
C1132 C1131 1.410 . S
C1132 C1133 1.392 . S
C1132 C1135 1.511 . S
C1133 C1129 1.376 . S
C1133 C1132 1.392 . S
C1133 H1145 0.929 . S
C1134 C1130 1.531 . S
C1134 H1146 0.960 . S
C1134 H1147 0.962 . S
C1134 H1148 0.960 . S
C1135 C1132 1.511 . S
C1135 H1149 0.961 . S
C1135 H1150 0.961 . S
C1135 H1151 0.961 . S
C1136 C1137 1.370 . S
C1136 C1138 1.363 . S
C1136 H1152 0.931 . S
C1137 C1136 1.370 . S
C1137 C1141 1.408 . S
C1138 C1136 1.363 . S
C1138 C1139 1.370 . S
C1138 C1142 1.524 . S
C1139 C1131 1.503 . S
C1139 C1138 1.370 . S
C1139 C1140 1.403 . S
C1140 C1139 1.403 . S
C1140 C1141 1.404 . S
C1140 C1143 1.539 . S
C1141 C1137 1.408 . S
C1141 C1140 1.404 . S
C1141 H1153 0.930 . S
C1142 C1138 1.524 . S
C1142 H1154 0.956 . S
C1142 H1155 0.961 . S
C1142 H1156 0.961 . S
C1143 C1140 1.539 . S
C1143 H1157 0.958 . S
C1143 H1158 0.961 . S
C1143 H1159 0.960 . S
H1144 C1128 0.931 . S
H1145 C1133 0.929 . S
H1146 C1134 0.960 . S
H1147 C1134 0.962 . S
H1148 C1134 0.960 . S
H1149 C1135 0.961 . S
H1150 C1135 0.961 . S
H1151 C1135 0.961 . S
H1152 C1136 0.931 . S
H1153 C1141 0.930 . S
H1154 C1142 0.956 . S
H1155 C1142 0.961 . S
H1156 C1142 0.961 . S
H1157 C1143 0.958 . S
H1158 C1143 0.961 . S
H1159 C1143 0.960 . S
C1160 C1161 1.391 . S
C1160 C1162 1.394 . S
C1160 H1176 0.931 . S
C1161 C1160 1.391 . S
C1161 C1165 1.376 . S
C1162 C1160 1.394 . S
C1162 C1163 1.369 . S
C1162 C1166 1.531 1_565 S
C1163 C1162 1.369 . S
C1163 C1164 1.410 . S
C1163 C1171 1.503 1_565 S
C1164 C1163 1.410 . S
C1164 C1165 1.392 . S
C1164 C1167 1.511 . S
C1165 C1161 1.376 . S
C1165 C1164 1.392 . S
C1165 H1177 0.929 . S
C1166 C1162 1.531 1_545 S
C1166 H1178 0.960 . S
C1166 H1179 0.962 . S
C1166 H1180 0.960 . S
C1167 C1164 1.511 . S
C1167 H1181 0.961 . S
C1167 H1182 0.961 . S
C1167 H1183 0.961 . S
C1168 C1169 1.370 . S
C1168 C1170 1.363 . S
C1168 H1184 0.931 . S
C1169 C1168 1.370 . S
C1169 C1173 1.408 . S
C1170 C1168 1.363 . S
C1170 C1171 1.370 . S
C1170 C1174 1.524 1_545 S
C1171 C1163 1.503 1_545 S
C1171 C1170 1.370 . S
C1171 C1172 1.403 . S
C1172 C1171 1.403 . S
C1172 C1173 1.404 . S
C1172 C1175 1.539 . S
C1173 C1169 1.408 . S
C1173 C1172 1.404 . S
C1173 H1185 0.930 . S
C1174 C1170 1.524 1_565 S
C1174 H1186 0.956 . S
C1174 H1187 0.961 . S
C1174 H1188 0.961 . S
C1175 C1172 1.539 . S
C1175 H1189 0.958 . S
C1175 H1190 0.961 . S
C1175 H1191 0.960 . S
H1176 C1160 0.931 . S
H1177 C1165 0.929 . S
H1178 C1166 0.960 . S
H1179 C1166 0.962 . S
H1180 C1166 0.960 . S
H1181 C1167 0.961 . S
H1182 C1167 0.961 . S
H1183 C1167 0.961 . S
H1184 C1168 0.931 . S
H1185 C1173 0.930 . S
H1186 C1174 0.956 . S
H1187 C1174 0.961 . S
H1188 C1174 0.961 . S
H1189 C1175 0.958 . S
H1190 C1175 0.961 . S
H1191 C1175 0.960 . S
C1192 C1193 1.391 . S
C1192 C1194 1.394 . S
C1192 H1208 0.931 . S
C1193 C1192 1.391 . S
C1193 C1197 1.376 . S
C1194 C1192 1.394 . S
C1194 C1195 1.369 . S
C1194 C1198 1.531 1_655 S
C1195 C1194 1.369 . S
C1195 C1196 1.410 . S
C1195 C1203 1.503 1_655 S
C1196 C1195 1.410 . S
C1196 C1197 1.392 . S
C1196 C1199 1.511 . S
C1197 C1193 1.376 . S
C1197 C1196 1.392 . S
C1197 H1209 0.929 . S
C1198 C1194 1.531 1_455 S
C1198 H1210 0.960 . S
C1198 H1211 0.962 . S
C1198 H1212 0.960 . S
C1199 C1196 1.511 . S
C1199 H1213 0.961 . S
C1199 H1214 0.961 . S
C1199 H1215 0.961 . S
C1200 C1201 1.370 . S
C1200 C1202 1.363 . S
C1200 H1216 0.931 . S
C1201 C1200 1.370 . S
C1201 C1205 1.408 . S
C1202 C1200 1.363 . S
C1202 C1203 1.370 . S
C1202 C1206 1.524 . S
C1203 C1195 1.503 1_455 S
C1203 C1202 1.370 . S
C1203 C1204 1.403 . S
C1204 C1203 1.403 . S
C1204 C1205 1.404 . S
C1204 C1207 1.539 . S
C1205 C1201 1.408 . S
C1205 C1204 1.404 . S
C1205 H1217 0.930 . S
C1206 C1202 1.524 . S
C1206 H1218 0.956 . S
C1206 H1219 0.961 1_455 S
C1206 H1220 0.961 . S
C1207 C1204 1.539 . S
C1207 H1221 0.958 . S
C1207 H1222 0.961 . S
C1207 H1223 0.960 1_455 S
H1208 C1192 0.931 . S
H1209 C1197 0.929 . S
H1210 C1198 0.960 . S
H1211 C1198 0.962 . S
H1212 C1198 0.960 . S
H1213 C1199 0.961 . S
H1214 C1199 0.961 . S
H1215 C1199 0.961 . S
H1216 C1200 0.931 . S
H1217 C1205 0.930 . S
H1218 C1206 0.956 . S
H1219 C1206 0.961 1_655 S
H1220 C1206 0.961 . S
H1221 C1207 0.958 . S
H1222 C1207 0.961 . S
H1223 C1207 0.960 1_655 S
C361 C46 1.575 . S
C369 C10 1.614 . S
C393 C86 1.582 . S
C401 C50 1.613 . S
C425 C90 1.628 . S
C433 C6 1.559 . S
C457 C95 1.475 . S
C465 C59 1.409 . S
C489 C99 1.447 . S
C497 C15 1.459 . S
C521 C19 1.436 . S
C529 C55 1.462 . S
C553 C130 1.595 . S
C561 C166 1.579 1_655 S
C585 C206 1.567 . S
C593 C170 1.616 . S
C617 C210 1.593 . S
C625 C126 1.583 1_545 S
C649 C179 1.398 . S
C657 C215 1.471 . S
C681 C219 1.450 . S
C689 C135 1.459 . S
C713 C175 1.473 . S
C721 C139 1.411 . S
C745 C286 1.559 . S
C753 C250 1.615 . S
C777 C290 1.625 . S
C785 C326 1.562 . S
C809 C330 1.628 . S
C817 C246 1.557 . S
C841 C335 1.471 . S
C849 C299 1.414 . S
C873 C339 1.423 . S
C881 C255 1.464 . S
C905 C259 1.427 . S
C913 C295 1.464 . S
C937 C209 2.567 . S
C945 C18 2.262 . S
C969 C129 2.562 . S
C977 C58 2.274 . S
C1001 C98 2.262 . S
C1009 C169 2.578 . S
C1033 C89 2.577 . S
C1041 C258 2.266 . S
C1065 C9 2.566 . S
C1073 C298 2.262 . S
C1097 C338 2.265 . S
C1105 C49 2.578 . S
C1129 C138 2.283 . S
C1137 C329 2.572 . S
C1161 C178 2.264 . S
C1169 C249 2.578 . S
C1193 C289 2.574 . S
C1201 C218 2.274 . S
