# Generated by pormake.
# Topology afw, (4)-cn, num edge types: 1
# Building blocks:
#     Node 0, Type 0, BuildingBlock: CEKHIL_clean_sbu_0, # of connection points: 4
#     Node 1, Type 0, BuildingBlock: CEKHIL_clean_sbu_0, # of connection points: 4
#     Node 2, Type 0, BuildingBlock: CEKHIL_clean_sbu_0, # of connection points: 4
#     Node 3, Type 0, BuildingBlock: CEKHIL_clean_sbu_0, # of connection points: 4
#     Node 4, Type 0, BuildingBlock: CEKHIL_clean_sbu_0, # of connection points: 4
#     Node 5, Type 0, BuildingBlock: CEKHIL_clean_sbu_0, # of connection points: 4
#     Node 6, Type 0, BuildingBlock: CEKHIL_clean_sbu_0, # of connection points: 4
#     Node 7, Type 0, BuildingBlock: CEKHIL_clean_sbu_0, # of connection points: 4
#     Node 8, Type 0, BuildingBlock: CEKHIL_clean_sbu_0, # of connection points: 4
#     Edge 9, Type (0, 0), BuildingBlock: TEMPAE_clean_linker_10, # of connection points: 2
#     Edge 10, Type (0, 0), BuildingBlock: TEMPAE_clean_linker_10, # of connection points: 2
#     Edge 11, Type (0, 0), BuildingBlock: TEMPAE_clean_linker_10, # of connection points: 2
#     Edge 12, Type (0, 0), BuildingBlock: TEMPAE_clean_linker_10, # of connection points: 2
#     Edge 13, Type (0, 0), BuildingBlock: TEMPAE_clean_linker_10, # of connection points: 2
#     Edge 14, Type (0, 0), BuildingBlock: TEMPAE_clean_linker_10, # of connection points: 2
#     Edge 15, Type (0, 0), BuildingBlock: TEMPAE_clean_linker_10, # of connection points: 2
#     Edge 16, Type (0, 0), BuildingBlock: TEMPAE_clean_linker_10, # of connection points: 2
#     Edge 17, Type (0, 0), BuildingBlock: TEMPAE_clean_linker_10, # of connection points: 2
#     Edge 18, Type (0, 0), BuildingBlock: TEMPAE_clean_linker_10, # of connection points: 2
#     Edge 19, Type (0, 0), BuildingBlock: TEMPAE_clean_linker_10, # of connection points: 2
#     Edge 20, Type (0, 0), BuildingBlock: TEMPAE_clean_linker_10, # of connection points: 2
#     Edge 21, Type (0, 0), BuildingBlock: TEMPAE_clean_linker_10, # of connection points: 2
#     Edge 22, Type (0, 0), BuildingBlock: TEMPAE_clean_linker_10, # of connection points: 2
#     Edge 23, Type (0, 0), BuildingBlock: TEMPAE_clean_linker_10, # of connection points: 2
#     Edge 24, Type (0, 0), BuildingBlock: TEMPAE_clean_linker_10, # of connection points: 2
#     Edge 25, Type (0, 0), BuildingBlock: TEMPAE_clean_linker_10, # of connection points: 2
#     Edge 26, Type (0, 0), BuildingBlock: TEMPAE_clean_linker_10, # of connection points: 2
# Relax obj value: 0.199
# Max RMSD: 0.209
# Mean RMSD: 0.200
data_MOF--net-afw--node1-CEKHIL_clean_sbu_0--edge1-TEMPAE_clean_linker_10
_symmetry_space_group_name_H-M    P1
_symmetry_Int_Tables_number       1
_symmetry_cell_setting            triclinic
loop_
_symmetry_equiv_pos_as_xyz
'x, y, z'
_cell_length_a     43.022902
_cell_length_b     43.538831
_cell_length_c     31.456335
_cell_angle_alpha  90.826434
_cell_angle_beta   90.659288
_cell_angle_gamma 119.91627
loop_
_atom_site_label
_atom_site_type_symbol
_atom_site_fract_x
_atom_site_fract_y
_atom_site_fract_z
_atom_type_partial_charge
Co0 Co 0.02792 0.22155 0.01572 0.0
O1 O 0.05783 0.26746 0.99302 0.0
O2 O 0.00066 0.23229 0.97492 0.0
C3 C 0.06647 0.20115 0.00953 0.0
O4 O 0.98987 0.17156 0.03183 0.0
Co5 Co 0.0524 0.20441 0.10109 0.0
O6 O 0.01279 0.15586 0.08666 0.0
C7 C 0.02329 0.25228 0.10177 0.0
C8 C 0.03024 0.26228 0.97028 0.0
C9 C 0.98864 0.14847 0.05805 0.0
O10 O 0.0134 0.24335 0.06272 0.0
O11 O 0.04259 0.24245 0.12223 0.0
O12 O 0.04749 0.20065 0.97683 0.0
O13 O 0.06509 0.2183 0.04272 0.0
Co14 Co 0.8192 0.81279 0.03834 0.0
O15 O 0.80035 0.76627 0.06019 0.0
O16 O 0.78352 0.80469 0.0807 0.0
C17 C 0.8765 0.82632 0.0421 0.0
O18 O 0.83518 0.86422 0.02399 0.0
Co19 Co 0.86051 0.83176 0.95331 0.0
O20 O 0.87845 0.88061 0.97559 0.0
C21 C 0.78177 0.79025 0.95164 0.0
C22 C 0.7807 0.77363 0.08441 0.0
C23 C 0.86152 0.88814 0.00297 0.0
O24 O 0.78114 0.79385 0.99216 0.0
O25 O 0.81043 0.80192 0.93029 0.0
O26 O 0.86132 0.83018 0.07567 0.0
O27 O 0.85602 0.81181 0.00902 0.0
Co28 Co 0.19792 0.99271 0.00761 0.0
O29 O 0.22008 0.96591 0.99046 0.0
O30 O 0.23322 0.01809 0.96485 0.0
C31 C 0.1415 0.94743 0.00469 0.0
O32 O 0.1791 0.02706 0.01647 0.0
Co33 Co 0.15443 0.9756 0.091 0.0
O34 O 0.13462 0.00299 0.06355 0.0
C35 C 0.23349 0.01666 0.09513 0.0
C36 C 0.23858 0.99117 0.9644 0.0
C37 C 0.15194 0.02559 0.03529 0.0
O38 O 0.23496 0.01663 0.05434 0.0
O39 O 0.20434 0.00084 0.11576 0.0
O40 O 0.15679 0.96378 0.97017 0.0
O41 O 0.16173 0.95668 0.03844 0.0
Co42 Co 0.64179 0.53331 0.3483 0.0
O43 O 0.6137 0.55136 0.37359 0.0
O44 O 0.67195 0.57313 0.38557 0.0
C45 C 0.60438 0.47554 0.35912 0.0
O46 O 0.67904 0.5203 0.32974 0.0
Co47 Co 0.61422 0.48573 0.26689 0.0
O48 O 0.65187 0.47418 0.28347 0.0
C49 C 0.64242 0.56225 0.26012 0.0
C50 C 0.64301 0.57447 0.39334 0.0
C51 C 0.67802 0.49432 0.30841 0.0
O52 O 0.6524 0.56607 0.29941 0.0
O53 O 0.62467 0.53191 0.24129 0.0
O54 O 0.62542 0.49601 0.38967 0.0
O55 O 0.60325 0.49155 0.32522 0.0
Co56 Co 0.49762 0.14237 0.35616 0.0
O57 O 0.47678 0.09379 0.37234 0.0
O58 O 0.46221 0.13213 0.39921 0.0
C59 C 0.55527 0.15599 0.35801 0.0
O60 O 0.51438 0.19481 0.34867 0.0
Co61 Co 0.54029 0.16887 0.27242 0.0
O62 O 0.55698 0.21616 0.29913 0.0
C63 C 0.46128 0.12969 0.26905 0.0
C64 C 0.45755 0.10021 0.39865 0.0
C65 C 0.53961 0.22076 0.3287 0.0
O66 O 0.46014 0.12835 0.30983 0.0
O67 O 0.49031 0.14325 0.24811 0.0
O68 O 0.53945 0.15591 0.39303 0.0
O69 O 0.53471 0.14377 0.32458 0.0
Co70 Co 0.88303 0.38184 0.34623 0.0
O71 O 0.92923 0.41017 0.37327 0.0
O72 O 0.89018 0.35402 0.38788 0.0
C73 C 0.86397 0.42129 0.35006 0.0
O74 O 0.83308 0.34472 0.32722 0.0
Co75 Co 0.86304 0.40231 0.26036 0.0
O76 O 0.81328 0.36612 0.27552 0.0
C77 C 0.91145 0.37281 0.26167 0.0
C78 C 0.92087 0.38233 0.39565 0.0
C79 C 0.80796 0.34287 0.30305 0.0
O80 O 0.90472 0.36568 0.30113 0.0
O81 O 0.90002 0.39017 0.24034 0.0
O82 O 0.86234 0.40286 0.38293 0.0
O83 O 0.88113 0.41855 0.318 0.0
Co84 Co 0.37051 0.88888 0.67745 0.0
O85 O 0.40114 0.9338 0.65295 0.0
O86 O 0.34332 0.90006 0.63701 0.0
C87 C 0.40668 0.86592 0.67052 0.0
O88 O 0.33165 0.83977 0.69554 0.0
Co89 Co 0.39623 0.87169 0.762 0.0
O90 O 0.35516 0.82355 0.74932 0.0
C91 C 0.37047 0.92242 0.76337 0.0
C92 C 0.37346 0.92916 0.63083 0.0
C93 C 0.33045 0.81661 0.72166 0.0
O94 O 0.35893 0.91307 0.72479 0.0
O95 O 0.38937 0.91159 0.78282 0.0
O96 O 0.38724 0.86545 0.63833 0.0
O97 O 0.40744 0.88461 0.70322 0.0
Co98 Co 0.14846 0.47772 0.70171 0.0
O99 O 0.12486 0.42931 0.7184 0.0
O100 O 0.11356 0.47001 0.74499 0.0
C101 C 0.20417 0.48598 0.70445 0.0
O102 O 0.16933 0.53094 0.69273 0.0
Co103 Co 0.19149 0.49922 0.61767 0.0
O104 O 0.21282 0.5471 0.64454 0.0
C105 C 0.1125 0.46157 0.61462 0.0
C106 C 0.10686 0.43733 0.74463 0.0
C107 C 0.19695 0.55474 0.67325 0.0
O108 O 0.11135 0.4648 0.65514 0.0
O109 O 0.14134 0.47157 0.59406 0.0
O110 O 0.18948 0.48893 0.73899 0.0
O111 O 0.18376 0.47507 0.67087 0.0
Co112 Co 0.52581 0.65023 0.68397 0.0
O113 O 0.55018 0.62609 0.66452 0.0
O114 O 0.56316 0.68003 0.64571 0.0
C115 C 0.46991 0.60495 0.67426 0.0
O116 O 0.50566 0.68293 0.6954 0.0
Co117 Co 0.47748 0.62594 0.76326 0.0
O118 O 0.4602 0.65723 0.7408 0.0
C119 C 0.55615 0.6656 0.77435 0.0
C120 C 0.56958 0.65391 0.64218 0.0
C121 C 0.4785 0.68124 0.71434 0.0
O122 O 0.55982 0.67039 0.73408 0.0
O123 O 0.52583 0.64718 0.792 0.0
O124 O 0.48718 0.62435 0.64233 0.0
O125 O 0.48803 0.61125 0.70944 0.0
C126 C 0.16614 0.08602 0.01245 0.0
C127 C 0.14106 0.05207 0.02585 0.0
C128 C 0.1565 0.11224 0.00751 0.0
C129 C 0.12086 0.104 0.01553 0.0
C130 C 0.09512 0.06932 0.02736 0.0
C131 C 0.1056 0.04386 0.03264 0.0
C132 C 0.18465 0.14899 0.99499 0.0
C133 C 0.05665 0.05925 0.03532 0.0
C134 C 0.09899 0.17529 0.0479 0.0
C135 C 0.08376 0.17914 0.0102 0.0
C136 C 0.11232 0.15175 0.0497 0.0
C137 C 0.11044 0.13174 0.01286 0.0
C138 C 0.09629 0.13651 0.97431 0.0
C139 C 0.08308 0.16014 0.97346 0.0
C140 C 0.12719 0.14731 0.09141 0.0
C141 C 0.0938 0.11564 0.93438 0.0
H142 H 0.1936 0.09248 0.00731 0.0
H143 H 0.08599 0.01747 0.04244 0.0
H144 H 0.17539 0.15724 0.96657 0.0
H145 H 0.18902 0.16821 0.02112 0.0
H146 H 0.21069 0.15066 0.98796 0.0
H147 H 0.03958 0.03065 0.04212 0.0
H148 H 0.05556 0.075 0.06272 0.0
H149 H 0.04509 0.06547 0.00727 0.0
H150 H 0.09961 0.18994 0.07636 0.0
H151 H 0.07144 0.1631 0.94414 0.0
H152 H 0.15419 0.15053 0.08696 0.0
H153 H 0.10961 0.12015 0.10306 0.0
H154 H 0.12918 0.16666 0.11624 0.0
H155 H 0.12015 0.11796 0.92773 0.0
H156 H 0.08497 0.12465 0.90621 0.0
H157 H 0.07439 0.08715 0.93889 0.0
C158 C 0.85158 0.93741 0.02951 0.0
C159 C 0.8739 0.92616 0.01116 0.0
C160 C 0.86406 0.97369 0.03739 0.0
C161 C 0.89982 -0.00099 0.02749 0.0
C162 C 0.9223 0.98769 0.00885 0.0
C163 C 0.90902 0.95155 0.0007 0.0
C164 C 0.83925 0.98489 0.05683 0.0
C165 C 0.96081 0.01368 -0.00154 0.0
C166 C 0.93916 0.098 0.01563 0.0
C167 C 0.95978 0.11088 0.05334 0.0
C168 C 0.91679 0.06136 0.0081 0.0
C169 C 0.91518 0.03722 0.03893 0.0
C170 C 0.93358 0.05026 0.07842 0.0
C171 C 0.95555 0.08686 0.08515 0.0
C172 C 0.89712 0.04849 0.96585 0.0
C173 C 0.93272 0.02553 0.11218 0.0
H174 H 0.82438 0.91793 0.03747 0.0
H175 H 0.92662 0.94312 0.98696 0.0
H176 H 0.84924 0.99633 0.08918 0.0
H177 H 0.83877 0.00584 0.03765 0.0
H178 H 0.81141 0.96237 0.05919 0.0
H179 H 0.97485 0.00048 0.98446 0.0
H180 H 0.96184 0.03338 0.9757 0.0
H181 H 0.97571 0.02846 0.02773 0.0
H182 H 0.94201 0.1163 0.99097 0.0
H183 H 0.97086 0.09652 0.11473 0.0
H184 H 0.86956 0.02605 0.97012 0.0
H185 H 0.91143 0.03878 0.94542 0.0
H186 H 0.89552 0.06991 0.94895 0.0
H187 H 0.90488 0.00389 0.11711 0.0
H188 H 0.94418 0.0396 0.14309 0.0
H189 H 0.94855 0.01312 0.10164 0.0
C190 C 0.93851 0.8747 0.05824 0.0
C191 C 0.91529 0.84152 0.03952 0.0
C192 C 0.97552 0.89106 0.05193 0.0
C193 C 0.98927 0.87311 0.02747 0.0
C194 C 0.96586 0.83903 0.00975 0.0
C195 C 0.92894 0.82387 0.01542 0.0
C196 C -0.00025 0.92787 0.07032 0.0
C197 C 0.97975 0.81884 0.98437 0.0
C198 C 0.07979 0.92834 0.97769 0.0
C199 C 0.10243 0.92556 0.00776 0.0
C200 C 0.04268 0.91108 0.98353 0.0
C201 C 0.02816 0.89023 0.0199 0.0
C202 C 0.05083 0.88627 0.04947 0.0
C203 C 0.08783 0.90425 0.04317 0.0
C204 C 0.01918 0.91613 0.95165 0.0
C205 C 0.03611 0.86377 0.08825 0.0
H206 H 0.9276 0.88844 0.07625 0.0
H207 H 0.91066 0.79814 0.00103 0.0
H208 H 0.02058 0.92792 0.09148 0.0
H209 H 0.01385 0.94645 0.04433 0.0
H210 H 0.98473 0.93803 0.08872 0.0
H211 H 0.95807 0.79182 0.97476 0.0
H212 H 0.99281 0.8335 0.9553 0.0
H213 H 0.00036 0.81648 0.00327 0.0
H214 H 0.09117 0.94513 0.95052 0.0
H215 H 0.10543 0.90208 0.06638 0.0
H216 H 0.0059 0.92936 0.96745 0.0
H217 H -0.00231 0.89006 0.93913 0.0
H218 H 0.0346 0.93237 0.92446 0.0
H219 H 0.02382 0.87525 0.10932 0.0
H220 H 0.05718 0.86181 0.10675 0.0
H221 H 0.01471 0.83665 0.07869 0.0
C222 C 0.81569 0.43153 0.37756 0.0
C223 C 0.84096 0.43742 0.34632 0.0
C224 C 0.79071 0.44298 0.37226 0.0
C225 C 0.79128 0.46107 0.33501 0.0
C226 C 0.81768 0.46841 0.30419 0.0
C227 C 0.84216 0.45634 0.31014 0.0
C228 C 0.76281 0.43445 0.40572 0.0
C229 C 0.81918 0.48778 0.26417 0.0
C230 C 0.70353 0.45415 0.29921 0.0
C231 C 0.70774 0.48666 0.31388 0.0
C232 C 0.73063 0.44566 0.30562 0.0
C233 C 0.76284 0.47031 0.32711 0.0
C234 C 0.76746 0.50326 0.34171 0.0
C235 C 0.73979 0.51101 0.33504 0.0
C236 C 0.72444 0.40995 0.29016 0.0
C237 C 0.80147 0.53015 0.36477 0.0
H238 H 0.81457 0.41684 0.40559 0.0
H239 H 0.8617 0.46102 0.28596 0.0
H240 H 0.7625 0.45878 0.41594 0.0
H241 H 0.73581 0.41564 0.39217 0.0
H242 H 0.76759 0.42241 0.43417 0.0
H243 H 0.84296 0.49374 0.24493 0.0
H244 H 0.79463 0.47142 0.24439 0.0
H245 H 0.81988 0.51302 0.27221 0.0
H246 H 0.6787 0.43492 0.28332 0.0
H247 H 0.74326 0.53614 0.34654 0.0
H248 H 0.72283 0.39372 0.31782 0.0
H249 H 0.7472 0.41317 0.27074 0.0
H250 H 0.6993 0.39512 0.27083 0.0
H251 H 0.80511 0.51873 0.39445 0.0
H252 H 0.80126 0.55492 0.37309 0.0
H253 H 0.82501 0.53689 0.34478 0.0
C254 C 0.52389 0.26409 0.36119 0.0
C255 C 0.54799 0.25748 0.33869 0.0
C256 C 0.5306 0.29887 0.36786 0.0
C257 C 0.56229 0.32759 0.35202 0.0
C258 C 0.5873 0.32115 0.33061 0.0
C259 C 0.57976 0.28619 0.32404 0.0
C260 C 0.5034 0.30484 0.39088 0.0
C261 C 0.62176 0.35115 0.31392 0.0
C262 C 0.56862 0.41517 0.32558 0.0
C263 C 0.58952 0.4368 0.35984 0.0
C264 C 0.55816 0.37906 0.32358 0.0
C265 C 0.56909 0.36444 0.35652 0.0
C266 C 0.58894 0.38585 0.39202 0.0
C267 C 0.5988 0.42178 0.39334 0.0
C268 C 0.53678 0.35694 0.28532 0.0
C269 C 0.6013 0.37128 0.42761 0.0
H270 H 0.49929 0.24206 0.37261 0.0
H271 H 0.59869 0.28136 0.30698 0.0
H272 H 0.51644 0.3237 0.41809 0.0
H273 H 0.49222 0.31689 0.3691 0.0
H274 H 0.48092 0.27983 0.40294 0.0
H275 H 0.63868 0.34163 0.29875 0.0
H276 H 0.61563 0.36609 0.29017 0.0
H277 H 0.63756 0.37003 0.3402 0.0
H278 H 0.5613 0.42665 0.2997 0.0
H279 H 0.61499 0.43838 0.41994 0.0
H280 H 0.5129 0.33225 0.29555 0.0
H281 H 0.55344 0.34908 0.26647 0.0
H282 H 0.52775 0.37145 0.26438 0.0
H283 H 0.57856 0.34633 0.43922 0.0
H284 H 0.61339 0.39039 0.45485 0.0
H285 H 0.62162 0.3649 0.41558 0.0
C286 C 0.61518 0.20368 0.38474 0.0
C287 C 0.59435 0.17804 0.35356 0.0
C288 C 0.65084 0.22928 0.37697 0.0
C289 C 0.66581 0.22893 0.33724 0.0
C290 C 0.64549 0.20189 0.30664 0.0
C291 C 0.60995 0.17672 0.31521 0.0
C292 C 0.6719 0.25768 0.41043 0.0
C293 C 0.66066 0.20056 0.26404 0.0
C294 C 0.74141 0.31597 0.29828 0.0
C295 C 0.77145 0.31292 0.30887 0.0
C296 C 0.70676 0.28871 0.30728 0.0
C297 C 0.70222 0.25768 0.32691 0.0
C298 C 0.7324 0.25415 0.33674 0.0
C299 C 0.7667 0.28191 0.32776 0.0
C300 C 0.67513 0.29355 0.29688 0.0
C301 C 0.72851 0.22131 0.3573 0.0
H302 H 0.60313 0.20488 0.41434 0.0
H303 H 0.5939 0.1568 0.2911 0.0
H304 H 0.69829 0.2597 0.41667 0.0
H305 H 0.67716 0.28375 0.39877 0.0
H306 H 0.65743 0.25251 0.44085 0.0
H307 H 0.64229 0.17629 0.24511 0.0
H308 H 0.66562 0.22405 0.24554 0.0
H309 H 0.68678 0.20157 0.26837 0.0
H310 H 0.74504 0.3401 0.2842 0.0
H311 H 0.78989 0.2794 0.33582 0.0
H312 H 0.66256 0.29515 0.3268 0.0
H313 H 0.6545 0.27045 0.27804 0.0
H314 H 0.683 0.318 0.27879 0.0
H315 H 0.71601 0.21801 0.3888 0.0
H316 H 0.75469 0.22236 0.36177 0.0
H317 H 0.71053 0.19746 0.33758 0.0
C318 C 0.44604 0.84574 0.70372 0.0
C319 C 0.42013 0.84082 0.67291 0.0
C320 C 0.4568 0.82043 0.7087 0.0
C321 C 0.44069 0.78925 0.68277 0.0
C322 C 0.41477 0.78436 0.65128 0.0
C323 C 0.40506 0.81044 0.64643 0.0
C324 C 0.48477 0.82664 0.74236 0.0
C325 C 0.39645 0.75107 0.62372 0.0
C326 C 0.48727 0.73489 0.67583 0.0
C327 C 0.46844 0.70854 0.70561 0.0
C328 C 0.47829 0.76114 0.66771 0.0
C329 C 0.44984 0.76104 0.68991 0.0
C330 C 0.43034 0.73426 0.71948 0.0
C331 C 0.43989 0.70836 0.72701 0.0
C332 C 0.4994 0.78914 0.63563 0.0
C333 C 0.39978 0.7333 0.74376 0.0
H334 H 0.45764 0.86924 0.7242 0.0
H335 H 0.38463 0.80636 0.62293 0.0
H336 H 0.47271 0.80613 0.76692 0.0
H337 H 0.50696 0.82425 0.72809 0.0
H338 H 0.49616 0.85317 0.75814 0.0
H339 H 0.37687 0.75141 0.60066 0.0
H340 H 0.41669 0.74773 0.60588 0.0
H341 H 0.38207 0.72757 0.64396 0.0
H342 H 0.50919 0.73516 0.65888 0.0
H343 H 0.42505 0.6881 0.74996 0.0
H344 H 0.51247 0.81577 0.65133 0.0
H345 H 0.48111 0.78894 0.61034 0.0
H346 H 0.52038 0.78515 0.62054 0.0
H347 H 0.41055 0.75595 0.76686 0.0
H348 H 0.3845 0.70837 0.76146 0.0
H349 H 0.38099 0.73612 0.7219 0.0
C350 C 0.29332 0.7568 0.75229 0.0
C351 C 0.30112 0.77927 0.71763 0.0
C352 C 0.27123 0.71999 0.74733 0.0
C353 C 0.25678 0.70519 0.7066 0.0
C354 C 0.26237 0.72791 0.67215 0.0
C355 C 0.28441 0.76477 0.67811 0.0
C356 C 0.26579 0.69686 0.78502 0.0
C357 C 0.24744 0.71318 0.62821 0.0
C358 C 0.24844 0.6162 0.67982 0.0
C359 C 0.21158 0.59277 0.68391 0.0
C360 C 0.26331 0.65267 0.68742 0.0
C361 C 0.24071 0.6663 0.69886 0.0
C362 C 0.20345 0.6428 0.70343 0.0
C363 C 0.18933 0.60614 0.69629 0.0
C364 C 0.30332 0.6766 0.68327 0.0
C365 C 0.17855 0.65644 0.71523 0.0
H366 H 0.30585 0.76787 0.78307 0.0
H367 H 0.29043 0.78193 0.65114 0.0
H368 H 0.2373 0.67577 0.78694 0.0
H369 H 0.28201 0.68366 0.78121 0.0
H370 H 0.27401 0.71238 0.81547 0.0
H371 H 0.24944 0.73403 0.60661 0.0
H372 H 0.26263 0.70117 0.61432 0.0
H373 H 0.21895 0.69199 0.62967 0.0
H374 H 0.26584 0.60591 0.67083 0.0
H375 H 0.1608 0.5881 0.69924 0.0
H376 H 0.31512 0.69089 0.71391 0.0
H377 H 0.30885 0.69684 0.659 0.0
H378 H 0.31714 0.66176 0.6742 0.0
H379 H 0.18749 0.67161 0.74583 0.0
H380 H 0.15037 0.63471 0.71815 0.0
H381 H 0.17939 0.67492 0.69075 0.0
C382 C 0.26696 0.52795 0.72814 0.0
C383 C 0.24289 0.49992 0.70144 0.0
C384 C 0.30401 0.54388 0.7223 0.0
C385 C 0.317 0.53075 0.68969 0.0
C386 C 0.29274 0.50173 0.66351 0.0
C387 C 0.25586 0.48691 0.6694 0.0
C388 C 0.32918 0.57535 0.75017 0.0
C389 C 0.30573 0.48668 0.62896 0.0
C390 C 0.40983 0.59301 0.64929 0.0
C391 C 0.4307 0.58325 0.67384 0.0
C392 C 0.37255 0.57582 0.65376 0.0
C393 C 0.35601 0.54775 0.68265 0.0
C394 C 0.37691 0.53676 0.70598 0.0
C395 C 0.41418 0.55503 0.70171 0.0
C396 C 0.3511 0.58869 0.62904 0.0
C397 C 0.36004 0.50644 0.73639 0.0
H398 H 0.25678 0.5383 0.75249 0.0
H399 H 0.23708 0.46519 0.64878 0.0
H400 H 0.34875 0.56993 0.76679 0.0
H401 H 0.34471 0.59884 0.73025 0.0
H402 H 0.31472 0.58204 0.77433 0.0
H403 H 0.28338 0.46288 0.61286 0.0
H404 H 0.32011 0.50701 0.60475 0.0
H405 H 0.32503 0.47939 0.64252 0.0
H406 H 0.42281 0.61526 0.62825 0.0
H407 H 0.43052 0.54762 0.72067 0.0
H408 H 0.3387 0.5992 0.65141 0.0
H409 H 0.32898 0.5664 0.61072 0.0
H410 H 0.36788 0.60989 0.60667 0.0
H411 H 0.34825 0.51367 0.76323 0.0
H412 H 0.37974 0.49945 0.7495 0.0
H413 H 0.33791 0.48263 0.72014 0.0
C414 C 0.06768 0.31776 0.9316 0.0
C415 C 0.03356 0.28913 0.93958 0.0
C416 C 0.07267 0.34226 0.90039 0.0
C417 C 0.04269 0.33848 0.87682 0.0
C418 C 0.00782 0.31082 0.88632 0.0
C419 C 0.00367 0.28613 0.91737 0.0
C420 C 0.11043 0.3711 0.89114 0.0
C421 C 0.97511 0.30651 0.8627 0.0
C422 C 0.07156 0.42047 0.8118 0.0
C423 C 0.08236 0.4106 0.77462 0.0
C424 C 0.05479 0.39593 0.84423 0.0
C425 C 0.04915 0.36109 0.83923 0.0
C426 C 0.05675 0.35024 0.79998 0.0
C427 C 0.07315 0.3751 0.76816 0.0
C428 C 0.04595 0.40814 0.88511 0.0
C429 C 0.05109 0.31336 0.79305 0.0
H430 H 0.09093 0.32043 0.94876 0.0
H431 H 0.97716 0.26427 0.92378 0.0
H432 H 0.11744 0.36731 0.85838 0.0
H433 H 0.11237 0.39746 0.89293 0.0
H434 H 0.13062 0.37127 0.91363 0.0
H435 H 0.95003 0.28888 0.87958 0.0
H436 H 0.97691 0.33259 0.85833 0.0
H437 H 0.97339 0.29473 0.83066 0.0
H438 H 0.07819 0.44778 0.81674 0.0
H439 H 0.08072 0.3671 0.73907 0.0
H440 H 0.06725 0.41407 0.90936 0.0
H441 H 0.02021 0.3871 0.89773 0.0
H442 H 0.04419 0.43251 0.88071 0.0
H443 H 0.07121 0.31046 0.81233 0.0
H444 H 0.0539 0.30778 0.75917 0.0
H445 H 0.02414 0.29312 0.80356 0.0
C446 C 0.72503 0.73543 0.93326 0.0
C447 C 0.74764 0.77178 0.92827 0.0
C448 C 0.69329 0.71697 0.90889 0.0
C449 C 0.68378 0.7358 0.88013 0.0
C450 C 0.7062 0.77284 0.87611 0.0
C451 C 0.73834 0.79035 0.89983 0.0
C452 C 0.67046 0.67732 0.91308 0.0
C453 C 0.69636 0.79389 0.84663 0.0
C454 C 0.62133 0.68827 0.78633 0.0
C455 C 0.58855 0.68269 0.80175 0.0
C456 C 0.65245 0.70475 0.81201 0.0
C457 C 0.65075 0.71671 0.85352 0.0
C458 C 0.61772 0.71126 0.86918 0.0
C459 C 0.58684 0.69384 0.84322 0.0
C460 C 0.68712 0.7094 0.79471 0.0
C461 C 0.61519 0.72451 0.91292 0.0
H462 H 0.73277 0.72135 0.95527 0.0
H463 H 0.75613 0.8186 0.89643 0.0
H464 H 0.64296 0.67023 0.92253 0.0
H465 H 0.66808 0.66401 0.88188 0.0
H466 H 0.68176 0.66674 0.93688 0.0
H467 H 0.71572 0.8228 0.8492 0.0
H468 H 0.6955 0.78493 0.81324 0.0
H469 H 0.66921 0.7893 0.85391 0.0
H470 H 0.62254 0.67934 0.75435 0.0
H471 H 0.56149 0.68977 0.85497 0.0
H472 H 0.69858 0.69766 0.81658 0.0
H473 H 0.70706 0.73802 0.79264 0.0
H474 H 0.68341 0.69687 0.76264 0.0
H475 H 0.62448 0.7127 0.93746 0.0
H476 H 0.58742 0.71811 0.92025 0.0
H477 H 0.63302 0.75369 0.91539 0.0
C478 C 0.32769 0.94476 0.77464 0.0
C479 C 0.35836 0.94367 0.78792 0.0
C480 C 0.31193 0.95899 0.80135 0.0
C481 C 0.32754 0.97291 0.84199 0.0
C482 C 0.3604 0.975 0.85381 0.0
C483 C 0.37527 0.96006 0.82677 0.0
C484 C 0.2768 0.95607 0.78759 0.0
C485 C 0.37836 0.99044 0.89643 0.0
C486 C 0.28619 0.01629 0.9091 0.0
C487 C 0.263 0.98795 0.93436 0.0
C488 C 0.30821 0.01227 0.87942 0.0
C489 C 0.30637 0.979 0.87459 0.0
C490 C 0.28325 0.95052 0.90038 0.0
C491 C 0.26212 0.95544 0.93009 0.0
C492 C 0.33307 0.04336 0.85298 0.0
C493 C 0.28023 0.91448 0.89606 0.0
H494 H 0.31457 0.93239 0.74453 0.0
H495 H 0.39939 0.95997 0.83691 0.0
H496 H 0.25469 0.93481 0.8056 0.0
H497 H 0.27685 0.98111 0.79471 0.0
H498 H 0.27102 0.94962 0.75309 0.0
H499 H 0.40661 0.99623 0.89748 0.0
H500 H 0.37793 0.01519 0.90399 0.0
H501 H 0.36354 0.97127 0.92163 0.0
H502 H 0.28706 0.04152 0.91244 0.0
H503 H 0.24422 0.93337 0.94941 0.0
H504 H 0.32479 0.03746 0.81896 0.0
H505 H 0.36084 0.04801 0.85574 0.0
H506 H 0.33319 0.06805 0.86267 0.0
H507 H 0.2715 0.90377 0.86317 0.0
H508 H 0.26084 0.89512 0.9185 0.0
H509 H 0.30678 0.91679 0.90203 0.0
C510 C 0.39787 0.0829 0.25645 0.0
C511 C 0.42739 0.11502 0.24486 0.0
C512 C 0.36605 0.06762 0.23198 0.0
C513 C 0.36358 0.08567 0.19615 0.0
C514 C 0.39293 0.11886 0.1854 0.0
C515 C 0.42482 0.13286 0.20952 0.0
C516 C 0.33554 0.03175 0.24369 0.0
C517 C 0.39072 0.13942 0.14834 0.0
C518 C 0.29664 0.03216 0.10824 0.0
C519 C 0.2672 0.03561 0.1197 0.0
C520 C 0.32825 0.04825 0.13307 0.0
C521 C 0.33065 0.06923 0.16913 0.0
C522 C 0.30137 0.07386 0.17982 0.0
C523 C 0.26962 0.05636 0.15534 0.0
C524 C 0.35867 0.04203 0.12142 0.0
C525 C 0.30355 0.09717 0.21709 0.0
H526 H 0.40012 0.06917 0.28377 0.0
H527 H 0.44768 0.15799 0.20105 0.0
H528 H 0.31106 0.0334 0.24968 0.0
H529 H 0.32916 0.01259 0.21681 0.0
H530 H 0.34192 0.02121 0.27241 0.0
H531 H 0.41499 0.16604 0.14632 0.0
H532 H 0.3875 0.12455 0.11816 0.0
H533 H 0.36686 0.14274 0.15117 0.0
H534 H 0.29445 0.01585 0.08071 0.0
H535 H 0.24679 0.0592 0.16373 0.0
H536 H 0.36499 0.02971 0.14833 0.0
H537 H 0.3832 0.06763 0.11538 0.0
H538 H 0.35222 0.02456 0.09273 0.0
H539 H 0.3068 0.08598 0.24715 0.0
H540 H 0.27926 0.09987 0.21926 0.0
H541 H 0.32738 0.12397 0.21439 0.0
C542 C 0.02901 0.29493 0.15976 0.0
C543 C 0.01011 0.27338 0.12442 0.0
C544 C 0.01594 0.3142 0.18201 0.0
C545 C 0.98276 0.31099 0.16924 0.0
C546 C 0.96377 0.28952 0.13334 0.0
C547 C 0.97791 0.27133 0.11107 0.0
C548 C 0.03735 0.33759 0.21947 0.0
C549 C 0.92791 0.28478 0.11929 0.0
C550 C 0.92783 0.32591 0.25167 0.0
C551 C 0.93156 0.35838 0.2394 0.0
C552 C 0.94471 0.31041 0.22934 0.0
C553 C 0.9667 0.32835 0.1947 0.0
C554 C 0.97166 0.3618 0.18316 0.0
C555 C 0.95352 0.37619 0.20526 0.0
C556 C 0.93796 0.27426 0.2419 0.0
C557 C -0.00427 0.38212 0.14716 0.0
H558 H 0.0541 0.29686 0.1699 0.0
H559 H 0.96309 0.25455 0.0839 0.0
H560 H 0.04139 0.36465 0.21584 0.0
H561 H 0.02237 0.32694 0.24914 0.0
H562 H 0.06399 0.33951 0.22308 0.0
H563 H 0.91687 0.26758 0.09028 0.0
H564 H 0.90837 0.27278 0.14517 0.0
H565 H 0.93041 0.31087 0.11273 0.0
H566 H 0.91062 0.31195 0.27785 0.0
H567 H 0.95666 0.40146 0.19601 0.0
H568 H 0.96371 0.27527 0.24937 0.0
H569 H 0.925 0.25511 0.21491 0.0
H570 H 0.92048 0.26408 0.26994 0.0
H571 H 0.02255 0.38471 0.15176 0.0
H572 H -0.0009 0.40904 0.14455 0.0
H573 H 0.98433 0.36745 0.11663 0.0
C574 C 0.65408 0.59328 0.19068 0.0
C575 C 0.65415 0.59474 0.23524 0.0
C576 C 0.67012 0.62444 0.1672 0.0
C577 C 0.68639 0.65779 0.18881 0.0
C578 C 0.68395 0.65937 0.2335 0.0
C579 C 0.66798 0.62783 0.25621 0.0
C580 C 0.67208 0.62165 0.11951 0.0
C581 C 0.70057 0.69436 0.2577 0.0
C582 C 0.76972 0.72724 0.13571 0.0
C583 C 0.7573 0.74749 0.11523 0.0
C584 C 0.74721 0.69902 0.16126 0.0
C585 C 0.71102 0.69029 0.16563 0.0
C586 C 0.69856 0.71142 0.14613 0.0
C587 C 0.7221 0.74019 0.12135 0.0
C588 C 0.76191 0.67777 0.18228 0.0
C589 C 0.66007 0.70265 0.1498 0.0
H590 H 0.64324 0.56786 0.17416 0.0
H591 H 0.66754 0.62923 0.29062 0.0
H592 H 0.66489 0.63989 0.10357 0.0
H593 H 0.69998 0.6296 0.1108 0.0
H594 H 0.65405 0.59426 0.10705 0.0
H595 H 0.6912 0.6912 0.29096 0.0
H596 H 0.73018 0.70635 0.25853 0.0
H597 H 0.69427 0.7132 0.24168 0.0
H598 H 0.79711 0.73318 0.13115 0.0
H599 H 0.71252 0.75577 0.10509 0.0
H600 H 0.7481 0.65032 0.16884 0.0
H601 H 0.75678 0.67606 0.21689 0.0
H602 H 0.79121 0.68947 0.17781 0.0
H603 H 0.64237 0.67758 0.13192 0.0
H604 H 0.65565 0.72383 0.13693 0.0
H605 H 0.65181 0.69842 0.18346 0.0
C606 C 0.0565 0.40894 0.58863 0.0
C607 C 0.07901 0.44572 0.58993 0.0
C608 C 0.0272 0.39304 0.55995 0.0
C609 C 0.02043 0.41477 0.53275 0.0
C610 C 0.04225 0.45214 0.53575 0.0
C611 C 0.07168 0.46717 0.56402 0.0
C612 C 0.00492 0.35313 0.5571 0.0
C613 C 0.0354 0.47622 0.50788 0.0
C614 C 0.97773 0.38847 0.42332 0.0
C615 C 0.9439 0.38408 0.43102 0.0
C616 C 0.00193 0.39515 0.45709 0.0
C617 C 0.99229 0.39896 0.49895 0.0
C618 C 0.95731 0.39267 0.50691 0.0
C619 C 0.93325 0.38484 0.47264 0.0
C620 C 0.03856 0.40036 0.44764 0.0
C621 C 0.94628 0.39706 0.55095 0.0
H622 H 0.06281 0.3926 0.60863 0.0
H623 H 0.08951 0.49565 0.56526 0.0
H624 H 0.97588 0.34437 0.55615 0.0
H625 H 0.01095 0.34353 0.52717 0.0
H626 H 0.01052 0.34042 0.58423 0.0
H627 H 0.05276 0.50463 0.51704 0.0
H628 H 0.04056 0.47248 0.47425 0.0
H629 H 0.00694 0.46943 0.50969 0.0
H630 H 0.98553 0.38756 0.39086 0.0
H631 H 0.9069 0.38151 0.47809 0.0
H632 H 0.04606 0.38603 0.47077 0.0
H633 H 0.05886 0.42893 0.45075 0.0
H634 H 0.03972 0.39097 0.41498 0.0
H635 H 0.9544 0.38371 0.57473 0.0
H636 H 0.91687 0.38631 0.55273 0.0
H637 H 0.96008 0.42567 0.55991 0.0
C638 C 0.67221 0.61973 0.4524 0.0
C639 C 0.64231 0.59893 0.42577 0.0
C640 C 0.66936 0.63804 0.48794 0.0
C641 C 0.63576 0.63488 0.49706 0.0
C642 C 0.60648 0.61647 0.46809 0.0
C643 C 0.61019 0.59887 0.43272 0.0
C644 C 0.70157 0.65855 0.51717 0.0
C645 C 0.5702 0.61272 0.47629 0.0
C646 C 0.59899 0.62403 0.60684 0.0
C647 C 0.59468 0.65377 0.61068 0.0
C648 C 0.61573 0.61923 0.57157 0.0
C649 C 0.62878 0.64503 0.5396 0.0
C650 C 0.62827 0.67703 0.54576 0.0
C651 C 0.61089 0.68096 0.58123 0.0
C652 C 0.61607 0.58483 0.56653 0.0
C653 C 0.64328 0.7058 0.51327 0.0
H654 H 0.69732 0.62034 0.44677 0.0
H655 H 0.58719 0.58341 0.41175 0.0
H656 H 0.70229 0.68258 0.53071 0.0
H657 H 0.7001 0.64164 0.54399 0.0
H658 H 0.72699 0.66659 0.50036 0.0
H659 H 0.55116 0.60003 0.44896 0.0
H660 H 0.55846 0.59632 0.50469 0.0
H661 H 0.57292 0.63903 0.48298 0.0
H662 H 0.58717 0.60325 0.62998 0.0
H663 H 0.60822 0.70436 0.58445 0.0
H664 H 0.64302 0.58997 0.55735 0.0
H665 H 0.59682 0.56835 0.54077 0.0
H666 H 0.60847 0.56937 0.59616 0.0
H667 H 0.66791 0.70826 0.4991 0.0
H668 H 0.6496 0.73184 0.52747 0.0
H669 H 0.62319 0.69908 0.48719 0.0
C670 C 0.34911 0.94962 0.57116 0.0
C671 C 0.37746 0.95533 0.59872 0.0
C672 C 0.35466 0.973 0.53786 0.0
C673 C 0.38943 0.00228 0.53187 0.0
C674 C 0.41754 0.00903 0.56101 0.0
C675 C 0.41115 0.98564 0.59409 0.0
C676 C 0.32381 0.96543 0.50806 0.0
C677 C 0.45507 0.03992 0.55593 0.0
C678 C 0.42891 0.03874 0.42557 0.0
C679 C 0.43356 0.07294 0.42849 0.0
C680 C 0.41142 0.0141 0.45739 0.0
C681 C 0.39819 0.02389 0.493 0.0
C682 C 0.39984 0.05721 0.49417 0.0
C683 C 0.41768 0.08148 0.46189 0.0
C684 C 0.41001 0.97876 0.45463 0.0
C685 C 0.38523 0.06827 0.53107 0.0
H686 H 0.32291 0.92641 0.5748 0.0
H687 H 0.43314 0.99054 0.61552 0.0
H688 H 0.32393 0.99025 0.50014 0.0
H689 H 0.32654 0.95354 0.47791 0.0
H690 H 0.29754 0.94665 0.52187 0.0
H691 H 0.4734 0.04249 0.58263 0.0
H692 H 0.46635 0.03646 0.52587 0.0
H693 H 0.45451 0.06505 0.55396 0.0
H694 H 0.44053 0.0317 0.39942 0.0
H695 H 0.42072 0.10772 0.46402 0.0
H696 H 0.38282 0.95694 0.46204 0.0
H697 H 0.42904 0.97839 0.47847 0.0
H698 H 0.41725 0.97346 0.42266 0.0
H699 H 0.3591 0.04596 0.54094 0.0
H700 H 0.38172 0.09116 0.52317 0.0
H701 H 0.40415 0.07609 0.55867 0.0
loop_
_geom_bond_atom_site_label_1
_geom_bond_atom_site_label_2
_geom_bond_distance
_geom_bond_site_symmetry_2
_ccdc_geom_bond_type
Co0 O1 2.216 1_554 S
Co0 O2 2.091 1_554 S
Co0 O4 2.004 1_454 S
Co0 O10 2.021 1_455 S
Co0 O12 2.137 1_554 S
Co0 O13 2.244 . S
O1 Co0 2.216 1_556 S
O1 C8 1.247 . S
O2 Co0 2.091 1_556 S
O2 C8 1.261 . S
C3 O12 1.247 1_554 S
C3 O13 1.272 . S
O4 Co0 2.004 1_656 S
O4 C9 1.259 1_556 S
Co5 O6 2.061 1_455 S
Co5 O11 2.052 . S
Co5 O13 2.135 . S
O6 Co5 2.061 1_655 S
O6 C9 1.235 . S
C7 O10 1.238 . S
C7 O11 1.241 1_655 S
C8 O1 1.247 . S
C8 O2 1.261 . S
C9 O4 1.259 1_554 S
C9 O6 1.235 . S
O10 Co0 2.021 1_655 S
O10 C7 1.238 . S
O11 Co5 2.052 . S
O11 C7 1.241 1_455 S
O12 Co0 2.137 1_556 S
O12 C3 1.247 1_556 S
O13 Co0 2.244 . S
O13 C3 1.272 . S
O13 Co5 2.135 . S
Co14 O15 2.216 . S
Co14 O16 2.091 . S
Co14 O18 2.004 . S
Co14 O24 2.021 . S
Co14 O26 2.137 . S
Co14 O27 2.244 1_554 S
O15 Co14 2.216 . S
O15 C22 1.247 . S
O16 Co14 2.091 . S
O16 C22 1.261 . S
C17 O26 1.247 . S
C17 O27 1.272 1_554 S
O18 Co14 2.004 . S
O18 C23 1.259 . S
Co19 O20 2.061 . S
Co19 O25 2.052 . S
Co19 O27 2.135 . S
O20 Co19 2.061 . S
O20 C23 1.235 1_556 S
C21 O24 1.238 1_556 S
C21 O25 1.241 . S
C22 O15 1.247 . S
C22 O16 1.261 . S
C23 O18 1.259 . S
C23 O20 1.235 1_554 S
O24 Co14 2.021 . S
O24 C21 1.238 1_554 S
O25 Co19 2.052 . S
O25 C21 1.241 . S
O26 Co14 2.137 . S
O26 C17 1.247 . S
O27 Co14 2.244 1_556 S
O27 C17 1.272 1_556 S
O27 Co19 2.135 . S
Co28 O29 2.216 1_544 S
Co28 O30 2.091 1_554 S
Co28 O32 2.004 1_554 S
Co28 O38 2.021 . S
Co28 O40 2.137 1_544 S
Co28 O41 2.244 1_545 S
O29 Co28 2.216 1_566 S
O29 C36 1.247 . S
O30 Co28 2.091 1_556 S
O30 C36 1.261 1_545 S
C31 O40 1.247 1_554 S
C31 O41 1.272 . S
O32 Co28 2.004 1_556 S
O32 C37 1.259 1_556 S
Co33 O34 2.061 . S
Co33 O39 2.052 . S
Co33 O41 2.135 1_545 S
O34 Co33 2.061 . S
O34 C37 1.235 . S
C35 O38 1.238 . S
C35 O39 1.241 . S
C36 O29 1.247 . S
C36 O30 1.261 1_565 S
C37 O32 1.259 1_554 S
C37 O34 1.235 . S
O38 Co28 2.021 . S
O38 C35 1.238 . S
O39 Co33 2.052 . S
O39 C35 1.241 . S
O40 Co28 2.137 1_566 S
O40 C31 1.247 1_556 S
O41 Co28 2.244 1_565 S
O41 C31 1.272 . S
O41 Co33 2.135 1_565 S
Co42 O43 2.216 . S
Co42 O44 2.091 . S
Co42 O46 2.004 . S
Co42 O52 2.021 . S
Co42 O54 2.137 . S
Co42 O55 2.244 . S
O43 Co42 2.216 . S
O43 C50 1.247 . S
O44 Co42 2.091 . S
O44 C50 1.261 . S
C45 O54 1.247 . S
C45 O55 1.272 . S
O46 Co42 2.004 . S
O46 C51 1.259 . S
Co47 O48 2.061 . S
Co47 O53 2.052 . S
Co47 O55 2.135 . S
O48 Co47 2.061 . S
O48 C51 1.235 . S
C49 O52 1.238 . S
C49 O53 1.241 . S
C50 O43 1.247 . S
C50 O44 1.261 . S
C51 O46 1.259 . S
C51 O48 1.235 . S
O52 Co42 2.021 . S
O52 C49 1.238 . S
O53 Co47 2.052 . S
O53 C49 1.241 . S
O54 Co42 2.137 . S
O54 C45 1.247 . S
O55 Co42 2.244 . S
O55 C45 1.272 . S
O55 Co47 2.135 . S
Co56 O57 2.216 . S
Co56 O58 2.091 . S
Co56 O60 2.004 . S
Co56 O66 2.021 . S
Co56 O68 2.137 . S
Co56 O69 2.244 . S
O57 Co56 2.216 . S
O57 C64 1.247 . S
O58 Co56 2.091 . S
O58 C64 1.261 . S
C59 O68 1.247 . S
C59 O69 1.272 . S
O60 Co56 2.004 . S
O60 C65 1.259 . S
Co61 O62 2.061 . S
Co61 O67 2.052 . S
Co61 O69 2.135 . S
O62 Co61 2.061 . S
O62 C65 1.235 . S
C63 O66 1.238 . S
C63 O67 1.241 . S
C64 O57 1.247 . S
C64 O58 1.261 . S
C65 O60 1.259 . S
C65 O62 1.235 . S
O66 Co56 2.021 . S
O66 C63 1.238 . S
O67 Co61 2.052 . S
O67 C63 1.241 . S
O68 Co56 2.137 . S
O68 C59 1.247 . S
O69 Co56 2.244 . S
O69 C59 1.272 . S
O69 Co61 2.135 . S
Co70 O71 2.216 . S
Co70 O72 2.091 . S
Co70 O74 2.004 . S
Co70 O80 2.021 . S
Co70 O82 2.137 . S
Co70 O83 2.244 . S
O71 Co70 2.216 . S
O71 C78 1.247 . S
O72 Co70 2.091 . S
O72 C78 1.261 . S
C73 O82 1.247 . S
C73 O83 1.272 . S
O74 Co70 2.004 . S
O74 C79 1.259 . S
Co75 O76 2.061 . S
Co75 O81 2.052 . S
Co75 O83 2.135 . S
O76 Co75 2.061 . S
O76 C79 1.235 . S
C77 O80 1.238 . S
C77 O81 1.241 . S
C78 O71 1.247 . S
C78 O72 1.261 . S
C79 O74 1.259 . S
C79 O76 1.235 . S
O80 Co70 2.021 . S
O80 C77 1.238 . S
O81 Co75 2.052 . S
O81 C77 1.241 . S
O82 Co70 2.137 . S
O82 C73 1.247 . S
O83 Co70 2.244 . S
O83 C73 1.272 . S
O83 Co75 2.135 . S
Co84 O85 2.216 . S
Co84 O86 2.091 . S
Co84 O88 2.004 . S
Co84 O94 2.021 . S
Co84 O96 2.137 . S
Co84 O97 2.244 . S
O85 Co84 2.216 . S
O85 C92 1.247 . S
O86 Co84 2.091 . S
O86 C92 1.261 . S
C87 O96 1.247 . S
C87 O97 1.272 . S
O88 Co84 2.004 . S
O88 C93 1.259 . S
Co89 O90 2.061 . S
Co89 O95 2.052 . S
Co89 O97 2.135 . S
O90 Co89 2.061 . S
O90 C93 1.235 . S
C91 O94 1.238 . S
C91 O95 1.241 . S
C92 O85 1.247 . S
C92 O86 1.261 . S
C93 O88 1.259 . S
C93 O90 1.235 . S
O94 Co84 2.021 . S
O94 C91 1.238 . S
O95 Co89 2.052 . S
O95 C91 1.241 . S
O96 Co84 2.137 . S
O96 C87 1.247 . S
O97 Co84 2.244 . S
O97 C87 1.272 . S
O97 Co89 2.135 . S
Co98 O99 2.216 . S
Co98 O100 2.091 . S
Co98 O102 2.004 . S
Co98 O108 2.021 . S
Co98 O110 2.137 . S
Co98 O111 2.244 . S
O99 Co98 2.216 . S
O99 C106 1.247 . S
O100 Co98 2.091 . S
O100 C106 1.261 . S
C101 O110 1.247 . S
C101 O111 1.272 . S
O102 Co98 2.004 . S
O102 C107 1.259 . S
Co103 O104 2.061 . S
Co103 O109 2.052 . S
Co103 O111 2.135 . S
O104 Co103 2.061 . S
O104 C107 1.235 . S
C105 O108 1.238 . S
C105 O109 1.241 . S
C106 O99 1.247 . S
C106 O100 1.261 . S
C107 O102 1.259 . S
C107 O104 1.235 . S
O108 Co98 2.021 . S
O108 C105 1.238 . S
O109 Co103 2.052 . S
O109 C105 1.241 . S
O110 Co98 2.137 . S
O110 C101 1.247 . S
O111 Co98 2.244 . S
O111 C101 1.272 . S
O111 Co103 2.135 . S
Co112 O113 2.216 . S
Co112 O114 2.091 . S
Co112 O116 2.004 . S
Co112 O122 2.021 . S
Co112 O124 2.137 . S
Co112 O125 2.244 . S
O113 Co112 2.216 . S
O113 C120 1.247 . S
O114 Co112 2.091 . S
O114 C120 1.261 . S
C115 O124 1.247 . S
C115 O125 1.272 . S
O116 Co112 2.004 . S
O116 C121 1.259 . S
Co117 O118 2.061 . S
Co117 O123 2.052 . S
Co117 O125 2.135 . S
O118 Co117 2.061 . S
O118 C121 1.235 . S
C119 O122 1.238 . S
C119 O123 1.241 . S
C120 O113 1.247 . S
C120 O114 1.261 . S
C121 O116 1.259 . S
C121 O118 1.235 . S
O122 Co112 2.021 . S
O122 C119 1.238 . S
O123 Co117 2.052 . S
O123 C119 1.241 . S
O124 Co112 2.137 . S
O124 C115 1.247 . S
O125 Co112 2.244 . S
O125 C115 1.272 . S
O125 Co117 2.135 . S
C126 C127 1.391 . S
C126 C128 1.394 . S
C126 H142 0.931 . S
C127 C126 1.391 . S
C127 C131 1.376 1_554 S
C128 C126 1.394 . S
C128 C129 1.369 . S
C128 C132 1.531 . S
C129 C128 1.369 . S
C129 C130 1.410 1_554 S
C129 C137 1.503 . S
C130 C129 1.410 1_556 S
C130 C131 1.392 . S
C130 C133 1.511 . S
C131 C127 1.376 1_556 S
C131 C130 1.392 . S
C131 H143 0.929 . S
C132 C128 1.531 . S
C132 H144 0.960 . S
C132 H145 0.962 . S
C132 H146 0.960 . S
C133 C130 1.511 . S
C133 H147 0.961 . S
C133 H148 0.961 . S
C133 H149 0.961 . S
C134 C135 1.370 . S
C134 C136 1.363 . S
C134 H150 0.931 . S
C135 C134 1.370 . S
C135 C139 1.408 1_554 S
C136 C134 1.363 . S
C136 C137 1.370 . S
C136 C140 1.524 . S
C137 C129 1.503 . S
C137 C136 1.370 . S
C137 C138 1.403 1_554 S
C138 C137 1.403 1_556 S
C138 C139 1.404 . S
C138 C141 1.539 . S
C139 C135 1.408 1_556 S
C139 C138 1.404 . S
C139 H151 0.930 . S
C140 C136 1.524 . S
C140 H152 0.956 . S
C140 H153 0.961 . S
C140 H154 0.961 . S
C141 C138 1.539 . S
C141 H155 0.958 . S
C141 H156 0.961 . S
C141 H157 0.960 . S
H142 C126 0.931 . S
H143 C131 0.929 . S
H144 C132 0.960 . S
H145 C132 0.962 . S
H146 C132 0.960 . S
H147 C133 0.961 . S
H148 C133 0.961 . S
H149 C133 0.961 . S
H150 C134 0.931 . S
H151 C139 0.930 . S
H152 C140 0.956 . S
H153 C140 0.961 . S
H154 C140 0.961 . S
H155 C141 0.958 . S
H156 C141 0.961 . S
H157 C141 0.960 . S
C158 C159 1.391 . S
C158 C160 1.394 . S
C158 H174 0.931 . S
C159 C158 1.391 . S
C159 C163 1.376 . S
C160 C158 1.394 . S
C160 C161 1.369 . S
C160 C164 1.531 . S
C161 C160 1.369 . S
C161 C162 1.410 . S
C161 C169 1.503 1_565 S
C162 C161 1.410 . S
C162 C163 1.392 . S
C162 C165 1.511 . S
C163 C159 1.376 . S
C163 C162 1.392 . S
C163 H175 0.929 . S
C164 C160 1.531 . S
C164 H176 0.960 1_565 S
C164 H177 0.962 . S
C164 H178 0.960 . S
C165 C162 1.511 . S
C165 H179 0.971 . S
C165 H180 0.961 1_565 S
C165 H181 0.961 1_565 S
C166 C167 1.370 1_556 S
C166 C168 1.363 . S
C166 H182 0.931 . S
C167 C166 1.370 1_554 S
C167 C171 1.408 . S
C168 C166 1.363 . S
C168 C169 1.370 1_556 S
C168 C172 1.524 . S
C169 C161 1.503 1_545 S
C169 C168 1.370 1_554 S
C169 C170 1.403 . S
C170 C169 1.403 . S
C170 C171 1.404 . S
C170 C173 1.539 . S
C171 C167 1.408 . S
C171 C170 1.404 . S
C171 H183 0.930 . S
C172 C168 1.524 . S
C172 H184 0.956 . S
C172 H185 0.961 . S
C172 H186 0.961 . S
C173 C170 1.539 . S
C173 H187 0.958 . S
C173 H188 0.961 . S
C173 H189 0.960 . S
H174 C158 0.931 . S
H175 C163 0.929 . S
H176 C164 0.960 1_545 S
H177 C164 0.962 . S
H178 C164 0.960 . S
H179 C165 0.971 . S
H180 C165 0.961 1_545 S
H181 C165 0.961 1_545 S
H182 C166 0.931 . S
H183 C171 0.930 . S
H184 C172 0.956 . S
H185 C172 0.961 . S
H186 C172 0.961 . S
H187 C173 0.958 . S
H188 C173 0.961 . S
H189 C173 0.960 . S
C190 C191 1.391 . S
C190 C192 1.394 . S
C190 H206 0.931 . S
C191 C190 1.391 . S
C191 C195 1.376 . S
C192 C190 1.394 . S
C192 C193 1.369 . S
C192 C196 1.531 . S
C193 C192 1.369 . S
C193 C194 1.410 . S
C193 C201 1.503 1_655 S
C194 C193 1.410 . S
C194 C195 1.392 . S
C194 C197 1.511 . S
C195 C191 1.376 . S
C195 C194 1.392 . S
C195 H207 0.929 . S
C196 C192 1.531 . S
C196 H208 0.960 1_655 S
C196 H209 0.962 1_554 S
C196 H210 0.960 . S
C197 C194 1.511 . S
C197 H211 0.961 . S
C197 H212 0.961 1_655 S
C197 H213 0.959 1_655 S
C198 C199 1.370 1_556 S
C198 C200 1.363 . S
C198 H214 0.931 . S
C199 C198 1.370 1_554 S
C199 C203 1.408 . S
C200 C198 1.363 . S
C200 C201 1.370 1_556 S
C200 C204 1.524 . S
C201 C193 1.503 1_455 S
C201 C200 1.370 1_554 S
C201 C202 1.403 . S
C202 C201 1.403 . S
C202 C203 1.404 . S
C202 C205 1.539 . S
C203 C199 1.408 . S
C203 C202 1.404 . S
C203 H215 0.930 . S
C204 C200 1.524 . S
C204 H216 0.956 . S
C204 H217 0.961 . S
C204 H218 0.961 . S
C205 C202 1.539 . S
C205 H219 0.958 . S
C205 H220 0.961 . S
C205 H221 0.960 . S
H206 C190 0.931 . S
H207 C195 0.929 . S
H208 C196 0.960 1_455 S
H209 C196 0.962 1_556 S
H210 C196 0.960 . S
H211 C197 0.961 . S
H212 C197 0.961 1_455 S
H213 C197 0.959 1_455 S
H214 C198 0.931 . S
H215 C203 0.930 . S
H216 C204 0.956 . S
H217 C204 0.961 . S
H218 C204 0.961 . S
H219 C205 0.958 . S
H220 C205 0.961 . S
H221 C205 0.960 . S
C222 C223 1.391 . S
C222 C224 1.394 . S
C222 H238 0.931 . S
C223 C222 1.391 . S
C223 C227 1.376 . S
C224 C222 1.394 . S
C224 C225 1.369 . S
C224 C228 1.531 . S
C225 C224 1.369 . S
C225 C226 1.410 . S
C225 C233 1.503 . S
C226 C225 1.410 . S
C226 C227 1.392 . S
C226 C229 1.511 . S
C227 C223 1.376 . S
C227 C226 1.392 . S
C227 H239 0.929 . S
C228 C224 1.531 . S
C228 H240 0.960 . S
C228 H241 0.962 . S
C228 H242 0.960 . S
C229 C226 1.511 . S
C229 H243 0.961 . S
C229 H244 0.961 . S
C229 H245 0.961 . S
C230 C231 1.370 . S
C230 C232 1.363 . S
C230 H246 0.931 . S
C231 C230 1.370 . S
C231 C235 1.408 . S
C232 C230 1.363 . S
C232 C233 1.370 . S
C232 C236 1.524 . S
C233 C225 1.503 . S
C233 C232 1.370 . S
C233 C234 1.403 . S
C234 C233 1.403 . S
C234 C235 1.404 . S
C234 C237 1.539 . S
C235 C231 1.408 . S
C235 C234 1.404 . S
C235 H247 0.930 . S
C236 C232 1.524 . S
C236 H248 0.956 . S
C236 H249 0.961 . S
C236 H250 0.961 . S
C237 C234 1.539 . S
C237 H251 0.958 . S
C237 H252 0.961 . S
C237 H253 0.960 . S
H238 C222 0.931 . S
H239 C227 0.929 . S
H240 C228 0.960 . S
H241 C228 0.962 . S
H242 C228 0.960 . S
H243 C229 0.961 . S
H244 C229 0.961 . S
H245 C229 0.961 . S
H246 C230 0.931 . S
H247 C235 0.930 . S
H248 C236 0.956 . S
H249 C236 0.961 . S
H250 C236 0.961 . S
H251 C237 0.958 . S
H252 C237 0.961 . S
H253 C237 0.960 . S
C254 C255 1.391 . S
C254 C256 1.394 . S
C254 H270 0.931 . S
C255 C254 1.391 . S
C255 C259 1.376 . S
C256 C254 1.394 . S
C256 C257 1.369 . S
C256 C260 1.531 . S
C257 C256 1.369 . S
C257 C258 1.410 . S
C257 C265 1.503 . S
C258 C257 1.410 . S
C258 C259 1.392 . S
C258 C261 1.511 . S
C259 C255 1.376 . S
C259 C258 1.392 . S
C259 H271 0.929 . S
C260 C256 1.531 . S
C260 H272 0.960 . S
C260 H273 0.962 . S
C260 H274 0.960 . S
C261 C258 1.511 . S
C261 H275 0.961 . S
C261 H276 0.961 . S
C261 H277 0.961 . S
C262 C263 1.370 . S
C262 C264 1.363 . S
C262 H278 0.931 . S
C263 C262 1.370 . S
C263 C267 1.408 . S
C264 C262 1.363 . S
C264 C265 1.370 . S
C264 C268 1.524 . S
C265 C257 1.503 . S
C265 C264 1.370 . S
C265 C266 1.403 . S
C266 C265 1.403 . S
C266 C267 1.404 . S
C266 C269 1.539 . S
C267 C263 1.408 . S
C267 C266 1.404 . S
C267 H279 0.930 . S
C268 C264 1.524 . S
C268 H280 0.956 . S
C268 H281 0.961 . S
C268 H282 0.961 . S
C269 C266 1.539 . S
C269 H283 0.958 . S
C269 H284 0.961 . S
C269 H285 0.960 . S
H270 C254 0.931 . S
H271 C259 0.929 . S
H272 C260 0.960 . S
H273 C260 0.962 . S
H274 C260 0.960 . S
H275 C261 0.961 . S
H276 C261 0.961 . S
H277 C261 0.961 . S
H278 C262 0.931 . S
H279 C267 0.930 . S
H280 C268 0.956 . S
H281 C268 0.961 . S
H282 C268 0.961 . S
H283 C269 0.958 . S
H284 C269 0.961 . S
H285 C269 0.960 . S
C286 C287 1.391 . S
C286 C288 1.394 . S
C286 H302 0.931 . S
C287 C286 1.391 . S
C287 C291 1.376 . S
C288 C286 1.394 . S
C288 C289 1.369 . S
C288 C292 1.531 . S
C289 C288 1.369 . S
C289 C290 1.410 . S
C289 C297 1.503 . S
C290 C289 1.410 . S
C290 C291 1.392 . S
C290 C293 1.511 . S
C291 C287 1.376 . S
C291 C290 1.392 . S
C291 H303 0.929 . S
C292 C288 1.531 . S
C292 H304 0.960 . S
C292 H305 0.962 . S
C292 H306 0.960 . S
C293 C290 1.511 . S
C293 H307 0.961 . S
C293 H308 0.961 . S
C293 H309 0.961 . S
C294 C295 1.370 . S
C294 C296 1.363 . S
C294 H310 0.931 . S
C295 C294 1.370 . S
C295 C299 1.408 . S
C296 C294 1.363 . S
C296 C297 1.370 . S
C296 C300 1.524 . S
C297 C289 1.503 . S
C297 C296 1.370 . S
C297 C298 1.403 . S
C298 C297 1.403 . S
C298 C299 1.404 . S
C298 C301 1.539 . S
C299 C295 1.408 . S
C299 C298 1.404 . S
C299 H311 0.930 . S
C300 C296 1.524 . S
C300 H312 0.956 . S
C300 H313 0.961 . S
C300 H314 0.961 . S
C301 C298 1.539 . S
C301 H315 0.958 . S
C301 H316 0.961 . S
C301 H317 0.960 . S
H302 C286 0.931 . S
H303 C291 0.929 . S
H304 C292 0.960 . S
H305 C292 0.962 . S
H306 C292 0.960 . S
H307 C293 0.961 . S
H308 C293 0.961 . S
H309 C293 0.961 . S
H310 C294 0.931 . S
H311 C299 0.930 . S
H312 C300 0.956 . S
H313 C300 0.961 . S
H314 C300 0.961 . S
H315 C301 0.958 . S
H316 C301 0.961 . S
H317 C301 0.960 . S
C318 C319 1.391 . S
C318 C320 1.394 . S
C318 H334 0.931 . S
C319 C318 1.391 . S
C319 C323 1.376 . S
C320 C318 1.394 . S
C320 C321 1.369 . S
C320 C324 1.531 . S
C321 C320 1.369 . S
C321 C322 1.410 . S
C321 C329 1.503 . S
C322 C321 1.410 . S
C322 C323 1.392 . S
C322 C325 1.511 . S
C323 C319 1.376 . S
C323 C322 1.392 . S
C323 H335 0.929 . S
C324 C320 1.531 . S
C324 H336 0.960 . S
C324 H337 0.962 . S
C324 H338 0.960 . S
C325 C322 1.511 . S
C325 H339 0.961 . S
C325 H340 0.961 . S
C325 H341 0.961 . S
C326 C327 1.370 . S
C326 C328 1.363 . S
C326 H342 0.931 . S
C327 C326 1.370 . S
C327 C331 1.408 . S
C328 C326 1.363 . S
C328 C329 1.370 . S
C328 C332 1.524 . S
C329 C321 1.503 . S
C329 C328 1.370 . S
C329 C330 1.403 . S
C330 C329 1.403 . S
C330 C331 1.404 . S
C330 C333 1.539 . S
C331 C327 1.408 . S
C331 C330 1.404 . S
C331 H343 0.930 . S
C332 C328 1.524 . S
C332 H344 0.956 . S
C332 H345 0.961 . S
C332 H346 0.961 . S
C333 C330 1.539 . S
C333 H347 0.958 . S
C333 H348 0.961 . S
C333 H349 0.960 . S
H334 C318 0.931 . S
H335 C323 0.929 . S
H336 C324 0.960 . S
H337 C324 0.962 . S
H338 C324 0.960 . S
H339 C325 0.961 . S
H340 C325 0.961 . S
H341 C325 0.961 . S
H342 C326 0.931 . S
H343 C331 0.930 . S
H344 C332 0.956 . S
H345 C332 0.961 . S
H346 C332 0.961 . S
H347 C333 0.958 . S
H348 C333 0.961 . S
H349 C333 0.960 . S
C350 C351 1.391 . S
C350 C352 1.394 . S
C350 H366 0.931 . S
C351 C350 1.391 . S
C351 C355 1.376 . S
C352 C350 1.394 . S
C352 C353 1.369 . S
C352 C356 1.531 . S
C353 C352 1.369 . S
C353 C354 1.410 . S
C353 C361 1.503 . S
C354 C353 1.410 . S
C354 C355 1.392 . S
C354 C357 1.511 . S
C355 C351 1.376 . S
C355 C354 1.392 . S
C355 H367 0.929 . S
C356 C352 1.531 . S
C356 H368 0.960 . S
C356 H369 0.962 . S
C356 H370 0.960 . S
C357 C354 1.511 . S
C357 H371 0.961 . S
C357 H372 0.961 . S
C357 H373 0.961 . S
C358 C359 1.370 . S
C358 C360 1.363 . S
C358 H374 0.931 . S
C359 C358 1.370 . S
C359 C363 1.408 . S
C360 C358 1.363 . S
C360 C361 1.370 . S
C360 C364 1.524 . S
C361 C353 1.503 . S
C361 C360 1.370 . S
C361 C362 1.403 . S
C362 C361 1.403 . S
C362 C363 1.404 . S
C362 C365 1.539 . S
C363 C359 1.408 . S
C363 C362 1.404 . S
C363 H375 0.930 . S
C364 C360 1.524 . S
C364 H376 0.956 . S
C364 H377 0.961 . S
C364 H378 0.961 . S
C365 C362 1.539 . S
C365 H379 0.958 . S
C365 H380 0.961 . S
C365 H381 0.960 . S
H366 C350 0.931 . S
H367 C355 0.929 . S
H368 C356 0.960 . S
H369 C356 0.962 . S
H370 C356 0.960 . S
H371 C357 0.961 . S
H372 C357 0.961 . S
H373 C357 0.961 . S
H374 C358 0.931 . S
H375 C363 0.930 . S
H376 C364 0.956 . S
H377 C364 0.961 . S
H378 C364 0.961 . S
H379 C365 0.958 . S
H380 C365 0.961 . S
H381 C365 0.960 . S
C382 C383 1.391 . S
C382 C384 1.394 . S
C382 H398 0.931 . S
C383 C382 1.391 . S
C383 C387 1.376 . S
C384 C382 1.394 . S
C384 C385 1.369 . S
C384 C388 1.531 . S
C385 C384 1.369 . S
C385 C386 1.410 . S
C385 C393 1.503 . S
C386 C385 1.410 . S
C386 C387 1.392 . S
C386 C389 1.511 . S
C387 C383 1.376 . S
C387 C386 1.392 . S
C387 H399 0.929 . S
C388 C384 1.531 . S
C388 H400 0.960 . S
C388 H401 0.962 . S
C388 H402 0.960 . S
C389 C386 1.511 . S
C389 H403 0.961 . S
C389 H404 0.961 . S
C389 H405 0.961 . S
C390 C391 1.370 . S
C390 C392 1.363 . S
C390 H406 0.931 . S
C391 C390 1.370 . S
C391 C395 1.408 . S
C392 C390 1.363 . S
C392 C393 1.370 . S
C392 C396 1.524 . S
C393 C385 1.503 . S
C393 C392 1.370 . S
C393 C394 1.403 . S
C394 C393 1.403 . S
C394 C395 1.404 . S
C394 C397 1.539 . S
C395 C391 1.408 . S
C395 C394 1.404 . S
C395 H407 0.930 . S
C396 C392 1.524 . S
C396 H408 0.956 . S
C396 H409 0.961 . S
C396 H410 0.961 . S
C397 C394 1.539 . S
C397 H411 0.958 . S
C397 H412 0.961 . S
C397 H413 0.960 . S
H398 C382 0.931 . S
H399 C387 0.929 . S
H400 C388 0.960 . S
H401 C388 0.962 . S
H402 C388 0.960 . S
H403 C389 0.961 . S
H404 C389 0.961 . S
H405 C389 0.961 . S
H406 C390 0.931 . S
H407 C395 0.930 . S
H408 C396 0.956 . S
H409 C396 0.961 . S
H410 C396 0.961 . S
H411 C397 0.958 . S
H412 C397 0.961 . S
H413 C397 0.960 . S
C414 C415 1.391 . S
C414 C416 1.394 . S
C414 H430 0.931 . S
C415 C414 1.391 . S
C415 C419 1.376 . S
C416 C414 1.394 . S
C416 C417 1.369 . S
C416 C420 1.531 . S
C417 C416 1.369 . S
C417 C418 1.410 . S
C417 C425 1.503 . S
C418 C417 1.410 . S
C418 C419 1.392 . S
C418 C421 1.511 . S
C419 C415 1.376 . S
C419 C418 1.392 . S
C419 H431 0.929 . S
C420 C416 1.531 . S
C420 H432 0.960 . S
C420 H433 0.962 . S
C420 H434 0.960 . S
C421 C418 1.511 . S
C421 H435 0.961 . S
C421 H436 0.961 . S
C421 H437 0.961 . S
C422 C423 1.370 . S
C422 C424 1.363 . S
C422 H438 0.931 . S
C423 C422 1.370 . S
C423 C427 1.408 . S
C424 C422 1.363 . S
C424 C425 1.370 . S
C424 C428 1.524 . S
C425 C417 1.503 . S
C425 C424 1.370 . S
C425 C426 1.403 . S
C426 C425 1.403 . S
C426 C427 1.404 . S
C426 C429 1.539 . S
C427 C423 1.408 . S
C427 C426 1.404 . S
C427 H439 0.930 . S
C428 C424 1.524 . S
C428 H440 0.956 . S
C428 H441 0.961 . S
C428 H442 0.961 . S
C429 C426 1.539 . S
C429 H443 0.958 . S
C429 H444 0.961 . S
C429 H445 0.960 . S
H430 C414 0.931 . S
H431 C419 0.929 . S
H432 C420 0.960 . S
H433 C420 0.962 . S
H434 C420 0.960 . S
H435 C421 0.961 . S
H436 C421 0.961 . S
H437 C421 0.961 . S
H438 C422 0.931 . S
H439 C427 0.930 . S
H440 C428 0.956 . S
H441 C428 0.961 . S
H442 C428 0.961 . S
H443 C429 0.958 . S
H444 C429 0.961 . S
H445 C429 0.960 . S
C446 C447 1.391 . S
C446 C448 1.394 . S
C446 H462 0.931 . S
C447 C446 1.391 . S
C447 C451 1.376 . S
C448 C446 1.394 . S
C448 C449 1.369 . S
C448 C452 1.531 . S
C449 C448 1.369 . S
C449 C450 1.410 . S
C449 C457 1.503 . S
C450 C449 1.410 . S
C450 C451 1.392 . S
C450 C453 1.511 . S
C451 C447 1.376 . S
C451 C450 1.392 . S
C451 H463 0.929 . S
C452 C448 1.531 . S
C452 H464 0.960 . S
C452 H465 0.962 . S
C452 H466 0.960 . S
C453 C450 1.511 . S
C453 H467 0.961 . S
C453 H468 0.961 . S
C453 H469 0.961 . S
C454 C455 1.370 . S
C454 C456 1.363 . S
C454 H470 0.931 . S
C455 C454 1.370 . S
C455 C459 1.408 . S
C456 C454 1.363 . S
C456 C457 1.370 . S
C456 C460 1.524 . S
C457 C449 1.503 . S
C457 C456 1.370 . S
C457 C458 1.403 . S
C458 C457 1.403 . S
C458 C459 1.404 . S
C458 C461 1.539 . S
C459 C455 1.408 . S
C459 C458 1.404 . S
C459 H471 0.930 . S
C460 C456 1.524 . S
C460 H472 0.956 . S
C460 H473 0.961 . S
C460 H474 0.961 . S
C461 C458 1.539 . S
C461 H475 0.958 . S
C461 H476 0.961 . S
C461 H477 0.960 . S
H462 C446 0.931 . S
H463 C451 0.929 . S
H464 C452 0.960 . S
H465 C452 0.962 . S
H466 C452 0.960 . S
H467 C453 0.961 . S
H468 C453 0.961 . S
H469 C453 0.961 . S
H470 C454 0.931 . S
H471 C459 0.930 . S
H472 C460 0.956 . S
H473 C460 0.961 . S
H474 C460 0.961 . S
H475 C461 0.958 . S
H476 C461 0.961 . S
H477 C461 0.960 . S
C478 C479 1.391 . S
C478 C480 1.394 . S
C478 H494 0.931 . S
C479 C478 1.391 . S
C479 C483 1.376 . S
C480 C478 1.394 . S
C480 C481 1.369 . S
C480 C484 1.531 . S
C481 C480 1.369 . S
C481 C482 1.410 . S
C481 C489 1.503 . S
C482 C481 1.410 . S
C482 C483 1.392 . S
C482 C485 1.511 . S
C483 C479 1.376 . S
C483 C482 1.392 . S
C483 H495 0.929 . S
C484 C480 1.531 . S
C484 H496 0.960 . S
C484 H497 0.962 . S
C484 H498 0.960 . S
C485 C482 1.511 . S
C485 H499 0.961 . S
C485 H500 0.961 . S
C485 H501 0.961 . S
C486 C487 1.370 . S
C486 C488 1.363 . S
C486 H502 0.931 1_565 S
C487 C486 1.370 . S
C487 C491 1.408 . S
C488 C486 1.363 . S
C488 C489 1.370 . S
C488 C492 1.524 1_565 S
C489 C481 1.503 . S
C489 C488 1.370 . S
C489 C490 1.403 . S
C490 C489 1.403 . S
C490 C491 1.404 . S
C490 C493 1.539 . S
C491 C487 1.408 . S
C491 C490 1.404 . S
C491 H503 0.930 . S
C492 C488 1.524 1_545 S
C492 H504 0.956 1_545 S
C492 H505 0.976 . S
C492 H506 0.961 . S
C493 C490 1.539 . S
C493 H507 0.958 . S
C493 H508 0.961 . S
C493 H509 0.960 . S
H494 C478 0.931 . S
H495 C483 0.929 . S
H496 C484 0.960 . S
H497 C484 0.962 . S
H498 C484 0.960 . S
H499 C485 0.961 . S
H500 C485 0.961 . S
H501 C485 0.961 . S
H502 C486 0.931 1_545 S
H503 C491 0.930 . S
H504 C492 0.956 1_565 S
H505 C492 0.976 . S
H506 C492 0.961 . S
H507 C493 0.958 . S
H508 C493 0.961 . S
H509 C493 0.960 . S
C510 C511 1.391 . S
C510 C512 1.394 . S
C510 H526 0.931 . S
C511 C510 1.391 . S
C511 C515 1.376 . S
C512 C510 1.394 . S
C512 C513 1.369 . S
C512 C516 1.531 . S
C513 C512 1.369 . S
C513 C514 1.410 . S
C513 C521 1.503 . S
C514 C513 1.410 . S
C514 C515 1.392 . S
C514 C517 1.511 . S
C515 C511 1.376 . S
C515 C514 1.392 . S
C515 H527 0.929 . S
C516 C512 1.531 . S
C516 H528 0.960 . S
C516 H529 0.962 . S
C516 H530 0.960 . S
C517 C514 1.511 . S
C517 H531 0.961 . S
C517 H532 0.961 . S
C517 H533 0.961 . S
C518 C519 1.370 . S
C518 C520 1.363 . S
C518 H534 0.931 . S
C519 C518 1.370 . S
C519 C523 1.408 . S
C520 C518 1.363 . S
C520 C521 1.370 . S
C520 C524 1.524 . S
C521 C513 1.503 . S
C521 C520 1.370 . S
C521 C522 1.403 . S
C522 C521 1.403 . S
C522 C523 1.404 . S
C522 C525 1.539 . S
C523 C519 1.408 . S
C523 C522 1.404 . S
C523 H535 0.930 . S
C524 C520 1.524 . S
C524 H536 0.956 . S
C524 H537 0.961 . S
C524 H538 0.961 . S
C525 C522 1.539 . S
C525 H539 0.958 . S
C525 H540 0.961 . S
C525 H541 0.960 . S
H526 C510 0.931 . S
H527 C515 0.929 . S
H528 C516 0.960 . S
H529 C516 0.962 . S
H530 C516 0.960 . S
H531 C517 0.961 . S
H532 C517 0.961 . S
H533 C517 0.961 . S
H534 C518 0.931 . S
H535 C523 0.930 . S
H536 C524 0.956 . S
H537 C524 0.961 . S
H538 C524 0.961 . S
H539 C525 0.958 . S
H540 C525 0.961 . S
H541 C525 0.960 . S
C542 C543 1.391 . S
C542 C544 1.394 . S
C542 H558 0.931 1_655 S
C543 C542 1.391 . S
C543 C547 1.376 . S
C544 C542 1.394 . S
C544 C545 1.369 . S
C544 C548 1.531 1_655 S
C545 C544 1.369 . S
C545 C546 1.410 . S
C545 C553 1.503 . S
C546 C545 1.410 . S
C546 C547 1.392 . S
C546 C549 1.511 . S
C547 C543 1.376 . S
C547 C546 1.392 . S
C547 H559 0.929 . S
C548 C544 1.531 1_455 S
C548 H560 0.960 . S
C548 H561 0.962 1_455 S
C548 H562 0.960 . S
C549 C546 1.511 . S
C549 H563 0.961 . S
C549 H564 0.961 . S
C549 H565 0.961 . S
C550 C551 1.370 . S
C550 C552 1.363 . S
C550 H566 0.931 . S
C551 C550 1.370 . S
C551 C555 1.408 . S
C552 C550 1.363 . S
C552 C553 1.370 . S
C552 C556 1.524 . S
C553 C545 1.503 . S
C553 C552 1.370 . S
C553 C554 1.403 . S
C554 C553 1.403 . S
C554 C555 1.404 . S
C554 C557 1.539 . S
C555 C551 1.408 . S
C555 C554 1.404 . S
C555 H567 0.930 . S
C556 C552 1.524 . S
C556 H568 0.956 . S
C556 H569 0.961 . S
C556 H570 0.961 . S
C557 C554 1.539 . S
C557 H571 0.958 1_655 S
C557 H572 0.961 . S
C557 H573 0.960 . S
H558 C542 0.931 1_455 S
H559 C547 0.929 . S
H560 C548 0.960 . S
H561 C548 0.962 1_655 S
H562 C548 0.960 . S
H563 C549 0.961 . S
H564 C549 0.961 . S
H565 C549 0.961 . S
H566 C550 0.931 . S
H567 C555 0.930 . S
H568 C556 0.956 . S
H569 C556 0.961 . S
H570 C556 0.961 . S
H571 C557 0.958 1_455 S
H572 C557 0.961 . S
H573 C557 0.960 . S
C574 C575 1.391 . S
C574 C576 1.394 . S
C574 H590 0.931 . S
C575 C574 1.391 . S
C575 C579 1.376 . S
C576 C574 1.394 . S
C576 C577 1.369 . S
C576 C580 1.531 . S
C577 C576 1.369 . S
C577 C578 1.410 . S
C577 C585 1.503 . S
C578 C577 1.410 . S
C578 C579 1.392 . S
C578 C581 1.511 . S
C579 C575 1.376 . S
C579 C578 1.392 . S
C579 H591 0.929 . S
C580 C576 1.531 . S
C580 H592 0.960 . S
C580 H593 0.962 . S
C580 H594 0.960 . S
C581 C578 1.511 . S
C581 H595 0.961 . S
C581 H596 0.961 . S
C581 H597 0.961 . S
C582 C583 1.370 . S
C582 C584 1.363 . S
C582 H598 0.931 . S
C583 C582 1.370 . S
C583 C587 1.408 . S
C584 C582 1.363 . S
C584 C585 1.370 . S
C584 C588 1.524 . S
C585 C577 1.503 . S
C585 C584 1.370 . S
C585 C586 1.403 . S
C586 C585 1.403 . S
C586 C587 1.404 . S
C586 C589 1.539 . S
C587 C583 1.408 . S
C587 C586 1.404 . S
C587 H599 0.930 . S
C588 C584 1.524 . S
C588 H600 0.956 . S
C588 H601 0.961 . S
C588 H602 0.961 . S
C589 C586 1.539 . S
C589 H603 0.958 . S
C589 H604 0.961 . S
C589 H605 0.960 . S
H590 C574 0.931 . S
H591 C579 0.929 . S
H592 C580 0.960 . S
H593 C580 0.962 . S
H594 C580 0.960 . S
H595 C581 0.961 . S
H596 C581 0.961 . S
H597 C581 0.961 . S
H598 C582 0.931 . S
H599 C587 0.930 . S
H600 C588 0.956 . S
H601 C588 0.961 . S
H602 C588 0.961 . S
H603 C589 0.958 . S
H604 C589 0.961 . S
H605 C589 0.960 . S
C606 C607 1.391 . S
C606 C608 1.394 . S
C606 H622 0.931 . S
C607 C606 1.391 . S
C607 C611 1.376 . S
C608 C606 1.394 . S
C608 C609 1.369 . S
C608 C612 1.531 . S
C609 C608 1.369 . S
C609 C610 1.410 . S
C609 C617 1.503 . S
C610 C609 1.410 . S
C610 C611 1.392 . S
C610 C613 1.511 . S
C611 C607 1.376 . S
C611 C610 1.392 . S
C611 H623 0.929 . S
C612 C608 1.531 . S
C612 H624 0.960 1_455 S
C612 H625 0.962 . S
C612 H626 0.960 . S
C613 C610 1.511 . S
C613 H627 0.961 . S
C613 H628 0.961 . S
C613 H629 0.961 . S
C614 C615 1.370 . S
C614 C616 1.363 1_655 S
C614 H630 0.931 . S
C615 C614 1.370 . S
C615 C619 1.408 . S
C616 C614 1.363 1_455 S
C616 C617 1.370 . S
C616 C620 1.524 . S
C617 C609 1.503 . S
C617 C616 1.370 . S
C617 C618 1.403 1_455 S
C618 C617 1.403 1_655 S
C618 C619 1.404 . S
C618 C621 1.539 . S
C619 C615 1.408 . S
C619 C618 1.404 . S
C619 H631 0.930 . S
C620 C616 1.524 . S
C620 H632 0.956 . S
C620 H633 0.961 . S
C620 H634 0.961 . S
C621 C618 1.539 . S
C621 H635 0.958 . S
C621 H636 0.961 . S
C621 H637 0.960 . S
H622 C606 0.931 . S
H623 C611 0.929 . S
H624 C612 0.960 1_655 S
H625 C612 0.962 . S
H626 C612 0.960 . S
H627 C613 0.961 . S
H628 C613 0.961 . S
H629 C613 0.961 . S
H630 C614 0.931 . S
H631 C619 0.930 . S
H632 C620 0.956 . S
H633 C620 0.961 . S
H634 C620 0.961 . S
H635 C621 0.958 . S
H636 C621 0.961 . S
H637 C621 0.960 . S
C638 C639 1.391 . S
C638 C640 1.394 . S
C638 H654 0.931 . S
C639 C638 1.391 . S
C639 C643 1.376 . S
C640 C638 1.394 . S
C640 C641 1.369 . S
C640 C644 1.531 . S
C641 C640 1.369 . S
C641 C642 1.410 . S
C641 C649 1.503 . S
C642 C641 1.410 . S
C642 C643 1.392 . S
C642 C645 1.511 . S
C643 C639 1.376 . S
C643 C642 1.392 . S
C643 H655 0.929 . S
C644 C640 1.531 . S
C644 H656 0.960 . S
C644 H657 0.962 . S
C644 H658 0.960 . S
C645 C642 1.511 . S
C645 H659 0.961 . S
C645 H660 0.961 . S
C645 H661 0.961 . S
C646 C647 1.370 . S
C646 C648 1.363 . S
C646 H662 0.931 . S
C647 C646 1.370 . S
C647 C651 1.408 . S
C648 C646 1.363 . S
C648 C649 1.370 . S
C648 C652 1.524 . S
C649 C641 1.503 . S
C649 C648 1.370 . S
C649 C650 1.403 . S
C650 C649 1.403 . S
C650 C651 1.404 . S
C650 C653 1.539 . S
C651 C647 1.408 . S
C651 C650 1.404 . S
C651 H663 0.930 . S
C652 C648 1.524 . S
C652 H664 0.956 . S
C652 H665 0.961 . S
C652 H666 0.961 . S
C653 C650 1.539 . S
C653 H667 0.958 . S
C653 H668 0.961 . S
C653 H669 0.960 . S
H654 C638 0.931 . S
H655 C643 0.929 . S
H656 C644 0.960 . S
H657 C644 0.962 . S
H658 C644 0.960 . S
H659 C645 0.961 . S
H660 C645 0.961 . S
H661 C645 0.961 . S
H662 C646 0.931 . S
H663 C651 0.930 . S
H664 C652 0.956 . S
H665 C652 0.961 . S
H666 C652 0.961 . S
H667 C653 0.958 . S
H668 C653 0.961 . S
H669 C653 0.960 . S
C670 C671 1.391 . S
C670 C672 1.394 . S
C670 H686 0.931 . S
C671 C670 1.391 . S
C671 C675 1.376 . S
C672 C670 1.394 . S
C672 C673 1.369 1_565 S
C672 C676 1.531 1_565 S
C673 C672 1.369 1_545 S
C673 C674 1.410 1_545 S
C673 C681 1.503 . S
C674 C673 1.410 1_565 S
C674 C675 1.392 . S
C674 C677 1.511 1_565 S
C675 C671 1.376 . S
C675 C674 1.392 . S
C675 H687 0.929 . S
C676 C672 1.531 1_545 S
C676 H688 0.960 . S
C676 H689 0.962 . S
C676 H690 0.960 . S
C677 C674 1.511 1_545 S
C677 H691 0.961 1_545 S
C677 H692 0.961 . S
C677 H693 0.961 . S
C678 C679 1.370 . S
C678 C680 1.363 . S
C678 H694 0.931 . S
C679 C678 1.370 . S
C679 C683 1.408 . S
C680 C678 1.363 . S
C680 C681 1.370 . S
C680 C684 1.524 1_545 S
C681 C673 1.503 . S
C681 C680 1.370 . S
C681 C682 1.403 . S
C682 C681 1.403 . S
C682 C683 1.404 . S
C682 C685 1.539 . S
C683 C679 1.408 . S
C683 C682 1.404 . S
C683 H695 0.930 . S
C684 C680 1.524 1_565 S
C684 H696 0.956 . S
C684 H697 0.961 . S
C684 H698 0.961 . S
C685 C682 1.539 . S
C685 H699 0.958 . S
C685 H700 0.961 . S
C685 H701 0.960 . S
H686 C670 0.931 . S
H687 C675 0.929 . S
H688 C676 0.960 . S
H689 C676 0.962 . S
H690 C676 0.960 . S
H691 C677 0.961 1_565 S
H692 C677 0.961 . S
H693 C677 0.961 . S
H694 C678 0.931 . S
H695 C683 0.930 . S
H696 C684 0.956 . S
H697 C684 0.961 . S
H698 C684 0.961 . S
H699 C685 0.958 . S
H700 C685 0.961 . S
H701 C685 0.960 . S
C127 C37 1.051 . S
C135 C3 1.024 . S
C159 C23 1.035 . S
C167 C9 1.000 . S
C191 C17 1.039 . S
C199 C31 1.071 . S
C223 C73 1.033 . S
C231 C51 1.026 . S
C255 C65 1.015 . S
C263 C45 1.003 . S
C287 C59 1.062 . S
C295 C79 1.025 . S
C319 C87 1.041 . S
C327 C121 0.998 . S
C351 C93 1.009 . S
C359 C107 0.966 . S
C383 C101 1.025 . S
C391 C115 1.020 . S
C415 C8 1.376 . S
C423 C106 1.388 . S
C447 C21 1.403 . S
C455 C119 1.382 . S
C479 C91 1.347 . S
C487 C36 1.400 . S
C511 C63 1.362 . S
C519 C35 1.346 . S
C543 C7 1.391 . S
C551 C77 1.373 . S
C575 C49 1.376 . S
C583 C22 1.412 . S
C607 C105 1.378 . S
C615 C78 1.390 . S
C639 C50 1.407 . S
C647 C120 1.401 . S
C671 C92 1.420 . S
C679 C64 1.414 . S
