# Generated by pormake.
# Topology sml, (6)-cn, num edge types: 1
# Building blocks:
#     Node 0, Type 0, BuildingBlock: BETGAK_clean_sbu_0, # of connection points: 6
#     Node 1, Type 0, BuildingBlock: BETGAK_clean_sbu_0, # of connection points: 6
#     Node 2, Type 0, BuildingBlock: BETGAK_clean_sbu_0, # of connection points: 6
#     Node 3, Type 0, BuildingBlock: BETGAK_clean_sbu_0, # of connection points: 6
#     Node 4, Type 0, BuildingBlock: BETGAK_clean_sbu_0, # of connection points: 6
#     Node 5, Type 0, BuildingBlock: BETGAK_clean_sbu_0, # of connection points: 6
#     Edge 6, Type (0, 0), BuildingBlock: OJICUG_clean_linker_0, # of connection points: 2
#     Edge 7, Type (0, 0), BuildingBlock: OJICUG_clean_linker_0, # of connection points: 2
#     Edge 8, Type (0, 0), BuildingBlock: OJICUG_clean_linker_0, # of connection points: 2
#     Edge 9, Type (0, 0), BuildingBlock: OJICUG_clean_linker_0, # of connection points: 2
#     Edge 10, Type (0, 0), BuildingBlock: OJICUG_clean_linker_0, # of connection points: 2
#     Edge 11, Type (0, 0), BuildingBlock: OJICUG_clean_linker_0, # of connection points: 2
#     Edge 12, Type (0, 0), BuildingBlock: OJICUG_clean_linker_0, # of connection points: 2
#     Edge 13, Type (0, 0), BuildingBlock: OJICUG_clean_linker_0, # of connection points: 2
#     Edge 14, Type (0, 0), BuildingBlock: OJICUG_clean_linker_0, # of connection points: 2
#     Edge 15, Type (0, 0), BuildingBlock: OJICUG_clean_linker_0, # of connection points: 2
#     Edge 16, Type (0, 0), BuildingBlock: OJICUG_clean_linker_0, # of connection points: 2
#     Edge 17, Type (0, 0), BuildingBlock: OJICUG_clean_linker_0, # of connection points: 2
#     Edge 18, Type (0, 0), BuildingBlock: OJICUG_clean_linker_0, # of connection points: 2
#     Edge 19, Type (0, 0), BuildingBlock: OJICUG_clean_linker_0, # of connection points: 2
#     Edge 20, Type (0, 0), BuildingBlock: OJICUG_clean_linker_0, # of connection points: 2
#     Edge 21, Type (0, 0), BuildingBlock: OJICUG_clean_linker_0, # of connection points: 2
#     Edge 22, Type (0, 0), BuildingBlock: OJICUG_clean_linker_0, # of connection points: 2
#     Edge 23, Type (0, 0), BuildingBlock: OJICUG_clean_linker_0, # of connection points: 2
# Relax obj value: 0.269
# Max RMSD: 0.273
# Mean RMSD: 0.273
data_MOF--net-sml--node1-BETGAK_clean_sbu_0--edge1-OJICUG_clean_linker_0
_symmetry_space_group_name_H-M    P1
_symmetry_Int_Tables_number       1
_symmetry_cell_setting            triclinic
loop_
_symmetry_equiv_pos_as_xyz
'x, y, z'
_cell_length_a     21.414499
_cell_length_b     21.313063
_cell_length_c     20.27788
_cell_angle_alpha  90.24213
_cell_angle_beta   90.006744
_cell_angle_gamma 120.14453
loop_
_atom_site_label
_atom_site_type_symbol
_atom_site_fract_x
_atom_site_fract_y
_atom_site_fract_z
_atom_type_partial_charge
La0 La 0.15601 0.43612 0.16489 0.0
La1 La 0.2387 0.40428 0.27227 0.0
C2 C 0.12709 0.46994 0.055 0.0
C3 C 0.14503 0.46308 0.98578 0.0
C4 C 0.12724 0.39532 0.95855 0.0
C5 C 0.14691 0.39014 0.89388 0.0
C6 C 0.18435 0.45249 0.8547 0.0
C7 C 0.20155 0.52021 0.88179 0.0
C8 C 0.18223 0.52541 0.94671 0.0
C9 C 0.07506 0.35519 0.26135 0.0
C10 C 0.20167 0.31402 0.14411 0.0
C11 C 0.27902 0.37815 0.38014 0.0
C12 C 0.27116 0.39289 0.45009 0.0
C13 C 0.28801 0.46245 0.47179 0.0
C14 C 0.2776 0.47449 0.53773 0.0
C15 C 0.24973 0.41722 0.58343 0.0
C16 C 0.23318 0.34776 0.5614 0.0
C17 C 0.24401 0.33587 0.49557 0.0
C18 C 0.31504 0.48638 0.17354 0.0
C19 C 0.19208 0.52486 0.29545 0.0
O20 O 0.08328 0.40973 0.08616 0.0
O21 O 0.18151 0.51514 0.09208 0.0
O22 O 0.05849 0.39419 0.22421 0.0
O23 O 0.13001 0.35529 0.23843 0.0
O24 O 0.18432 0.36034 0.11803 0.0
O25 O 0.21645 0.31482 0.20747 0.0
O26 O 0.32021 0.43436 0.34326 0.0
O27 O 0.21939 0.33144 0.34976 0.0
O28 O 0.33035 0.44211 0.20366 0.0
O29 O 0.26287 0.48627 0.20173 0.0
O30 O 0.21536 0.48259 0.31952 0.0
O31 O 0.17041 0.521 0.23363 0.0
H32 H 0.09827 0.34616 0.98719 0.0
H33 H 0.13195 0.33706 0.87425 0.0
H34 H 0.2309 0.56933 0.85311 0.0
H35 H 0.19682 0.57832 0.96661 0.0
H36 H 0.30884 0.50757 0.43783 0.0
H37 H 0.29173 0.52884 0.55287 0.0
H38 H 0.21047 0.30201 0.59469 0.0
H39 H 0.23025 0.28173 0.47994 0.0
La40 La 0.83995 0.28516 0.59957 0.0
La41 La 0.76087 0.16741 0.49209 0.0
C42 C 0.86579 0.34908 0.70947 0.0
C43 C 0.85039 0.32488 0.77899 0.0
C44 C 0.86828 0.27458 0.80424 0.0
C45 C 0.85074 0.24984 0.8691 0.0
C46 C 0.81561 0.27541 0.91061 0.0
C47 C 0.79882 0.32675 0.88565 0.0
C48 C 0.81578 0.35096 0.8204 0.0
C49 C 0.92333 0.28508 0.505 0.0
C50 C 0.79905 0.11865 0.62131 0.0
C51 C 0.72362 0.10033 0.38364 0.0
C52 C 0.7319 0.12378 0.31398 0.0
C53 C 0.71833 0.17898 0.2941 0.0
C54 C 0.72909 0.20248 0.22857 0.0
C55 C 0.75411 0.1717 0.18131 0.0
C56 C 0.76725 0.11614 0.20149 0.0
C57 C 0.75613 0.09244 0.26701 0.0
C58 C 0.68195 0.16953 0.59005 0.0
C59 C 0.80468 0.33414 0.46769 0.0
O60 O 0.91219 0.3369 0.67785 0.0
O61 O 0.80949 0.33451 0.67299 0.0
O62 O 0.93841 0.34166 0.54081 0.0
O63 O 0.86833 0.2302 0.52798 0.0
O64 O 0.81456 0.18237 0.64687 0.0
O65 O 0.78545 0.10344 0.55784 0.0
O66 O 0.68065 0.11296 0.42032 0.0
O67 O 0.78329 0.11544 0.41474 0.0
O68 O 0.66919 0.11051 0.55962 0.0
O69 O 0.73315 0.22351 0.56227 0.0
O70 O 0.78241 0.26806 0.44462 0.0
O71 O 0.8256 0.3538 0.52946 0.0
H72 H 0.89571 0.25407 0.77384 0.0
H73 H 0.86547 0.21121 0.88703 0.0
H74 H 0.77144 0.34727 0.9162 0.0
H75 H 0.8014 0.38975 0.80209 0.0
H76 H 0.69969 0.20435 0.32919 0.0
H77 H 0.71729 0.24453 0.21497 0.0
H78 H 0.78764 0.09184 0.16701 0.0
H79 H 0.76741 0.05016 0.28122 0.0
La80 La 0.5542 0.71613 0.82294 0.0
La81 La 0.59188 0.83358 0.93054 0.0
C82 C 0.51591 0.65305 0.71271 0.0
C83 C 0.52321 0.67804 0.6435 0.0
C84 C 0.59105 0.72711 0.61684 0.0
C85 C 0.59692 0.75235 0.5523 0.0
C86 C 0.5352 0.72868 0.5125 0.0
C87 C 0.46733 0.67874 0.53889 0.0
C88 C 0.46145 0.65393 0.60381 0.0
C89 C 0.63772 0.71635 0.91745 0.0
C90 C 0.67977 0.88272 0.80194 0.0
C91 C 0.61968 0.90089 1.03877 0.0
C92 C 0.60364 0.87808 0.10858 0.0
C93 C 0.53357 0.8264 0.129 0.0
C94 C 0.51997 0.80376 0.19477 0.0
C95 C 0.57614 0.83189 0.24172 0.0
C96 C 0.64611 0.88399 0.22103 0.0
C97 C 0.65957 0.90688 0.15533 0.0
C98 C 0.51093 0.83088 0.83218 0.0
C99 C 0.47045 0.66646 0.95502 0.0
O100 O 0.5753 0.66622 0.74343 0.0
O101 O 0.47363 0.66571 0.75034 0.0
O102 O 0.59688 0.65994 0.88115 0.0
O103 O 0.63721 0.7712 0.89481 0.0
O104 O 0.63155 0.81919 0.77608 0.0
O105 O 0.68105 0.89768 0.86545 0.0
O106 O 0.56461 0.88789 1.00117 0.0
O107 O 0.66494 0.88594 1.00875 0.0
O108 O 0.55711 0.89005 0.86242 0.0
O109 O 0.50843 0.77716 0.86017 0.0
O110 O 0.51378 0.73265 0.97809 0.0
O111 O 0.47181 0.64691 0.89322 0.0
H112 H 0.63979 0.74625 0.64585 0.0
H113 H 0.65011 0.78983 0.53326 0.0
H114 H 0.41866 0.65971 0.50974 0.0
H115 H 0.4085 0.6162 0.62322 0.0
H116 H 0.48918 0.8031 0.09415 0.0
H117 H 0.46523 0.76443 0.2088 0.0
H118 H 0.69106 0.90609 0.25527 0.0
H119 H 0.71405 0.94651 0.14079 0.0
La120 La 0.71951 0.56453 0.25719 0.0
La121 La 0.83293 0.59456 0.14945 0.0
C122 C 0.65654 0.53167 0.36697 0.0
C123 C 0.68101 0.53858 0.43624 0.0
C124 C 0.73292 0.60593 0.46273 0.0
C125 C 0.75752 0.61104 0.52747 0.0
C126 C 0.73047 0.54902 0.56739 0.0
C127 C 0.678 0.48173 0.54103 0.0
C128 C 0.65367 0.47659 0.47605 0.0
C129 C 0.71956 0.64514 0.16035 0.0
C130 C 0.88774 0.68572 0.27702 0.0
C131 C 0.89944 0.62018 0.04166 0.0
C132 C 0.87714 0.60589 0.97168 0.0
C133 C 0.82235 0.53723 0.95021 0.0
C134 C 0.80001 0.52574 0.88425 0.0
C135 C 0.83153 0.58273 0.83836 0.0
C136 C 0.88676 0.65122 0.86012 0.0
C137 C 0.90938 0.66254 0.92598 0.0
C138 C 0.8273 0.51294 0.24867 0.0
C139 C 0.66547 0.47488 0.12705 0.0
O140 O 0.67364 0.59193 0.33558 0.0
O141 O 0.66548 0.48603 0.33028 0.0
O142 O 0.66411 0.60657 0.1977 0.0
O143 O 0.77432 0.64478 0.18317 0.0
O144 O 0.82416 0.64002 0.30365 0.0
O145 O 0.90095 0.68428 0.21358 0.0
O146 O 0.8836 0.56365 0.07842 0.0
O147 O 0.88695 0.6672 0.072 0.0
O148 O 0.8867 0.55668 0.21808 0.0
O149 O 0.77521 0.5132 0.22065 0.0
O150 O 0.73086 0.51674 0.10255 0.0
O151 O 0.64826 0.47932 0.18895 0.0
H152 H 0.75478 0.6548 0.43345 0.0
H153 H 0.79718 0.66383 0.54655 0.0
H154 H 0.65655 0.43284 0.57031 0.0
H155 H 0.61383 0.42399 0.45667 0.0
H156 H 0.79634 0.49244 0.98435 0.0
H157 H 0.75813 0.47203 0.86928 0.0
H158 H 0.91159 0.69675 0.82665 0.0
H159 H 0.95147 0.71599 0.94148 0.0
La160 La 0.29493 0.86534 0.48042 0.0
La161 La 0.17931 0.79513 0.58894 0.0
C162 C 0.36225 0.89395 0.37267 0.0
C163 C 0.34177 0.88801 0.3025 0.0
C164 C 0.28741 0.90206 0.2819 0.0
C165 C 0.2659 0.89295 0.21587 0.0
C166 C 0.29831 0.8696 0.16895 0.0
C167 C 0.35405 0.85725 0.18943 0.0
C168 C 0.37542 0.86623 0.2557 0.0
C169 C 0.29891 0.95421 0.57339 0.0
C170 C 0.12844 0.8216 0.45529 0.0
C171 C 0.11622 0.77102 0.69846 0.0
C172 C 0.1418 0.78315 0.76745 0.0
C173 C 0.20046 0.77512 0.78658 0.0
C174 C 0.22646 0.79025 0.85133 0.0
C175 C 0.19417 0.81351 0.89848 0.0
C176 C 0.13514 0.82114 0.87917 0.0
C177 C 0.10935 0.8062 0.81426 0.0
C178 C 0.17949 0.70746 0.49774 0.0
C179 C 0.34159 0.82766 0.61286 0.0
O180 O 0.35504 0.94165 0.40787 0.0
O181 O 0.33885 0.83248 0.40399 0.0
O182 O 0.3543 0.96329 0.53963 0.0
O183 O 0.24327 0.90062 0.54918 0.0
O184 O 0.1921 0.83654 0.43097 0.0
O185 O 0.1142 0.81318 0.51909 0.0
O186 O 0.12269 0.72183 0.66496 0.0
O187 O 0.13587 0.82985 0.664 0.0
O188 O 0.12118 0.69706 0.52732 0.0
O189 O 0.23357 0.76114 0.52303 0.0
O190 O 0.27876 0.81451 0.63707 0.0
O191 O 0.35938 0.84348 0.55003 0.0
H192 H 0.26103 0.91956 0.31693 0.0
H193 H 0.22369 0.90407 0.20158 0.0
H194 H 0.37979 0.83876 0.15461 0.0
H195 H 0.41752 0.85513 0.27061 0.0
H196 H 0.22626 0.75703 0.75161 0.0
H197 H 0.27124 0.78271 0.86464 0.0
H198 H 0.10948 0.83969 0.91398 0.0
H199 H 0.06436 0.81323 0.80045 0.0
La200 La 0.42697 0.13494 0.93882 0.0
La201 La 0.38403 0.20769 0.83084 0.0
C202 C 0.4639 0.107 0.04762 0.0
C203 C 0.45704 0.12422 0.11666 0.0
C204 C 0.45458 0.07841 0.16718 0.0
C205 C 0.44531 0.09274 0.23274 0.0
C206 C 0.43784 0.15302 0.24896 0.0
C207 C 0.44071 0.19898 0.19791 0.0
C208 C 0.45026 0.18473 0.13245 0.0
C209 C 0.34326 0.04683 0.84518 0.0
C210 C 0.30515 0.17961 0.96343 0.0
C211 C 0.34854 0.23699 0.72174 0.0
C212 C 0.36295 0.22654 0.65269 0.0
C213 C 0.35798 0.2689 0.60251 0.0
C214 C 0.3715 0.25879 0.53683 0.0
C215 C 0.38973 0.20573 0.52042 0.0
C216 C 0.39554 0.16414 0.57107 0.0
C217 C 0.38269 0.17477 0.63653 0.0
C218 C 0.47035 0.29338 0.92418 0.0
C219 C 0.51197 0.17248 0.80669 0.0
O220 O 0.40307 0.06279 1.01762 0.0
O221 O 0.50724 0.16214 1.0105 0.0
O222 O 0.3879 0.03651 0.8804 0.0
O223 O 0.34144 0.10091 0.86867 0.0
O224 O 0.35453 0.16579 0.9878 0.0
O225 O 0.29941 0.18799 0.89962 0.0
O226 O 0.40478 0.2837 0.75603 0.0
O227 O 0.30756 0.17755 0.75497 0.0
O228 O 0.42307 0.30448 0.89432 0.0
O229 O 0.47091 0.24012 0.89817 0.0
O230 O 0.46399 0.18824 0.7828 0.0
O231 O 0.51246 0.15444 0.8691 0.0
H232 H 0.45942 0.03128 0.15589 0.0
H233 H 0.44435 0.05671 0.27073 0.0
H234 H 0.43401 0.24514 0.20826 0.0
H235 H 0.45143 0.22052 0.09409 0.0
H236 H 0.34347 0.30961 0.6141 0.0
H237 H 0.36647 0.2915 0.49877 0.0
H238 H 0.41069 0.12378 0.56012 0.0
H239 H 0.388 0.14233 0.67451 0.0
C240 C 0.22663 0.23301 0.987 0.0
C241 C 0.2647 0.19959 1.01007 0.0
H242 H 0.17652 0.29501 1.01125 0.0
C243 C 0.2724 0.19517 0.07849 0.0
H244 H 0.21946 0.23732 0.93466 0.0
C245 C 0.24755 0.22832 0.12256 0.0
C246 C 0.21467 0.26681 0.09912 0.0
H247 H 0.30097 0.16939 0.09806 0.0
H248 H 0.2578 0.22707 0.17471 0.0
C249 C 0.20209 0.26641 1.03104 0.0
C250 C 0.96162 0.28505 0.32379 0.0
C251 C 0.03732 0.32272 0.32341 0.0
H252 H 0.86615 0.24279 0.38161 0.0
C253 C 0.07478 0.34053 0.38362 0.0
H254 H 0.93154 0.27227 0.27792 0.0
C255 C 0.03709 0.3244 0.44324 0.0
C256 C 0.96138 0.28872 0.44347 0.0
H257 H 0.13288 0.37182 0.38501 0.0
H258 H 0.06719 0.3426 0.48906 0.0
C259 C 0.92399 0.26759 0.38332 0.0
C260 C 0.7517 0.98711 0.6439 0.0
C261 C 0.78447 0.05899 0.66705 0.0
H262 H 0.69354 0.87479 0.6686 0.0
C263 C 0.79324 0.07193 0.73538 0.0
H264 H 0.74437 0.97501 0.59158 0.0
C265 C 0.76418 0.01425 0.77967 0.0
C266 C 0.72543 0.94238 0.75646 0.0
H267 H 0.81864 0.12652 0.75495 0.0
H268 H 0.76808 0.02635 0.83195 0.0
C269 C 0.72236 0.92942 0.68819 0.0
C270 C 0.65676 0.73402 1.03904 0.0
C271 C 0.67241 0.71258 0.97875 0.0
H272 H 0.66005 0.72919 0.14441 0.0
C273 C 0.71196 0.67637 0.97868 0.0
H274 H 0.62408 0.75925 0.04096 0.0
C275 C 0.73357 0.65994 1.03813 0.0
C276 C 0.71441 0.67796 0.09847 0.0
H277 H 0.7234 0.65796 0.93274 0.0
H278 H 0.75997 0.62822 1.03654 0.0
C279 C 0.67694 0.71622 0.09841 0.0
C280 C 0.0786 0.80299 0.3404 0.0
C281 C 0.06754 0.80098 0.40887 0.0
H282 H 0.03071 0.76925 0.24491 0.0
C283 C 0.99635 0.76928 0.43258 0.0
H284 H 0.13248 0.82686 0.32028 0.0
C285 C 0.9377 0.73544 0.38927 0.0
C286 C 0.94882 0.73301 0.32124 0.0
H287 H 0.98556 0.76674 0.48498 0.0
H288 H 0.88377 0.70826 0.40962 0.0
C289 C 0.01994 0.76966 0.29705 0.0
C290 C 0.2665 0.01233 0.7419 0.0
C291 C 0.32784 0.02191 0.77608 0.0
H292 H 0.20789 0.98161 0.64971 0.0
C293 C 0.37755 0.00848 0.74329 0.0
H294 H 0.22715 0.02193 0.76647 0.0
C295 C 0.36847 0.98924 0.67717 0.0
C296 C 0.30695 0.97803 0.64279 0.0
H297 H 0.42483 0.01451 0.76838 0.0
H298 H 0.40957 0.98216 0.65314 0.0
C299 C 0.2555 0.98931 0.67556 0.0
C300 C 0.23221 0.4007 0.77026 0.0
C301 C 0.20452 0.44642 0.78567 0.0
H302 H 0.26999 0.35714 0.6952 0.0
C303 C 0.19452 0.48476 0.73442 0.0
H304 H 0.24179 0.37142 0.80876 0.0
C305 C 0.21005 0.4761 0.66908 0.0
C306 C 0.23645 0.42923 0.6534 0.0
H307 H 0.17264 0.51989 0.74454 0.0
H308 H 0.19937 0.50465 0.63069 0.0
C309 C 0.24822 0.39241 0.70505 0.0
C310 C 0.75316 0.14956 0.05878 0.0
C311 C 0.76745 0.19804 0.11163 0.0
H312 H 0.7564 0.13571 0.95436 0.0
C313 C 0.79565 0.27209 0.09731 0.0
H314 H 0.72998 0.092 0.06749 0.0
C315 C 0.80998 0.29699 1.03216 0.0
C316 C 0.79715 0.24865 0.97967 0.0
H317 H 0.80841 0.31135 0.13654 0.0
H318 H 0.83298 0.35448 1.02308 0.0
C319 C 0.76809 0.17458 0.99377 0.0
C320 C 0.58958 0.82921 0.42903 0.0
C321 C 0.54224 0.75568 0.44359 0.0
H322 H 0.63592 0.91121 0.35491 0.0
C323 C 0.5036 0.70797 0.39156 0.0
H324 H 0.61913 0.86772 0.46807 0.0
C325 C 0.51375 0.73275 0.32637 0.0
C326 C 0.56241 0.80606 0.31155 0.0
H327 H 0.46714 0.65089 0.40094 0.0
H328 H 0.48493 0.69384 0.28743 0.0
C329 C 0.59934 0.85411 0.364 0.0
C330 C 0.73222 0.52695 0.75319 0.0
C331 C 0.80598 0.57141 0.76851 0.0
H332 H 0.65061 0.48535 0.67808 0.0
C333 C 0.85484 0.60637 0.71662 0.0
H334 H 0.69278 0.49999 0.79179 0.0
C335 C 0.83044 0.59845 0.65147 0.0
C336 C 0.75663 0.55497 0.63641 0.0
H337 H 0.91217 0.6398 0.7262 0.0
H338 H 0.86953 0.62617 0.61275 0.0
C339 C 0.70791 0.51864 0.68794 0.0
C340 C 0.17265 0.80695 1.02072 0.0
C341 C 0.22131 0.82878 0.96768 0.0
H342 H 0.15869 0.80178 0.1254 0.0
C343 C 0.29585 0.86451 0.98139 0.0
H344 H 0.1149 0.77815 1.01206 0.0
C345 C 0.32102 0.87785 0.04656 0.0
C346 C 0.27222 0.85603 0.0995 0.0
H347 H 0.33487 0.88298 0.9417 0.0
H348 H 0.37871 0.90617 0.05551 0.0
C349 C 0.19778 0.82045 0.08575 0.0
C350 C 0.37008 0.12172 0.42577 0.0
C351 C 0.40183 0.19282 0.45076 0.0
H352 H 0.35471 0.05375 0.34237 0.0
C353 C 0.44542 0.25105 0.40898 0.0
H354 H 0.33538 0.07579 0.45653 0.0
C355 C 0.45756 0.23831 0.34371 0.0
C356 C 0.42573 0.16706 0.31858 0.0
H357 H 0.47122 0.30639 0.42714 0.0
H358 H 0.49271 0.2843 0.31326 0.0
C359 C 0.38152 0.10905 0.36042 0.0
C360 C 0.24961 0.61714 0.38378 0.0
C361 C 0.19054 0.5775 0.3415 0.0
H362 H 0.29238 0.69011 0.4659 0.0
C363 C 0.12804 0.58253 0.34926 0.0
H364 H 0.2982 0.61367 0.37886 0.0
C365 C 0.12395 0.62483 0.40038 0.0
C366 C 0.18297 0.66375 0.44306 0.0
H367 H 0.08148 0.55143 0.31775 0.0
H368 H 0.07479 0.62695 0.40669 0.0
C369 C 0.24621 0.66061 0.43356 0.0
C370 C 0.61635 0.11549 0.69559 0.0
C371 C 0.64525 0.17291 0.65017 0.0
H372 H 0.55425 0.07206 0.78412 0.0
C373 C 0.63735 0.2334 0.66159 0.0
H374 H 0.62274 0.06867 0.688 0.0
C375 C 0.59713 0.23452 0.71518 0.0
C376 C 0.56591 0.17618 0.75945 0.0
H377 H 0.65943 0.27838 0.62737 0.0
H378 H 0.5884 0.28014 0.72088 0.0
C379 C 0.57793 0.11771 0.75071 0.0
C380 C 0.34836 0.59191 0.10121 0.0
C381 C 0.35024 0.52828 0.11387 0.0
H382 H 0.38435 0.68493 0.03959 0.0
C383 C 0.386 0.50609 0.06961 0.0
H384 H 0.32146 0.61029 0.13482 0.0
C385 C 0.42087 0.54825 1.01408 0.0
C386 C 0.42124 0.61346 1.0032 0.0
H387 H 0.38769 0.45685 0.07837 0.0
H388 H 0.45071 0.53206 0.98185 0.0
C389 C 0.38396 0.63436 0.04668 0.0
C390 C 0.87285 0.45173 0.40772 0.0
C391 C 0.80792 0.38696 0.41955 0.0
H392 H 0.93059 0.54239 0.34258 0.0
C393 C 0.74908 0.36622 0.37693 0.0
H394 H 0.91937 0.46778 0.43926 0.0
C395 C 0.75535 0.40839 0.32229 0.0
C396 C 0.82097 0.47151 0.30863 0.0
H397 H 0.69881 0.31596 0.38474 0.0
H398 H 0.70957 0.3901 0.28931 0.0
C399 C 0.87956 0.49355 0.35209 0.0
C400 C 0.36412 0.76475 0.7039 0.0
C401 C 0.39151 0.82349 0.6601 0.0
H402 H 0.38109 0.72109 0.79258 0.0
C403 C 0.46151 0.88236 0.66992 0.0
H404 H 0.31023 0.71871 0.69716 0.0
C405 C 0.50115 0.88479 0.72589 0.0
C406 C 0.47208 0.82722 0.77113 0.0
H407 H 0.48371 0.92824 0.63676 0.0
H408 H 0.55391 0.93195 0.73433 0.0
C409 C 0.40438 0.76622 0.75853 0.0
C410 C 0.54374 0.41783 0.07315 0.0
C411 C 0.61082 0.42196 0.08142 0.0
H412 H 0.4466 0.37454 1.01503 0.0
C413 C 0.62962 0.38137 0.03972 0.0
H414 H 0.52874 0.44959 0.10425 0.0
C415 C 0.58277 0.33815 0.98981 0.0
C416 C 0.51707 0.33623 0.97952 0.0
H417 H 0.6813 0.3841 0.04504 0.0
H418 H 0.5991 0.30811 0.95781 0.0
C419 C 0.4974 0.37579 1.02186 0.0
loop_
_geom_bond_atom_site_label_1
_geom_bond_atom_site_label_2
_geom_bond_distance
_geom_bond_site_symmetry_2
_ccdc_geom_bond_type
La0 C2 2.928 . S
La0 O20 2.521 . S
La0 O21 2.628 . S
La0 O22 2.554 . S
La0 O23 2.757 . S
La0 O24 2.470 . S
La0 O29 2.482 . S
La0 O31 2.503 . S
La1 C11 2.928 . S
La1 O23 2.482 . S
La1 O25 2.503 . S
La1 O26 2.521 . S
La1 O27 2.628 . S
La1 O28 2.554 . S
La1 O29 2.757 . S
La1 O30 2.470 . S
C2 La0 2.928 . S
C2 C3 1.503 1_554 S
C2 O20 1.261 . S
C2 O21 1.243 . S
C3 C2 1.503 1_556 S
C3 C4 1.394 . S
C3 C8 1.373 . S
C4 C3 1.394 . S
C4 C5 1.380 . S
C4 H32 0.930 . S
C5 C4 1.380 . S
C5 C6 1.376 . S
C5 H33 0.930 . S
C6 C5 1.376 . S
C6 C7 1.370 . S
C7 C6 1.370 . S
C7 C8 1.396 . S
C7 H34 0.929 . S
C8 C3 1.373 . S
C8 C7 1.396 . S
C8 H35 0.929 . S
C9 O22 1.240 . S
C9 O23 1.289 . S
C10 O24 1.258 . S
C10 O25 1.256 . S
C11 La1 2.928 . S
C11 C12 1.503 . S
C11 O26 1.261 . S
C11 O27 1.243 . S
C12 C11 1.503 . S
C12 C13 1.394 . S
C12 C17 1.373 . S
C13 C12 1.394 . S
C13 C14 1.380 . S
C13 H36 0.930 . S
C14 C13 1.380 . S
C14 C15 1.376 . S
C14 H37 0.930 . S
C15 C14 1.376 . S
C15 C16 1.370 . S
C16 C15 1.370 . S
C16 C17 1.396 . S
C16 H38 0.929 . S
C17 C12 1.373 . S
C17 C16 1.396 . S
C17 H39 0.929 . S
C18 O28 1.240 . S
C18 O29 1.289 . S
C19 O30 1.258 . S
C19 O31 1.256 . S
O20 La0 2.521 . S
O20 C2 1.261 . S
O21 La0 2.628 . S
O21 C2 1.243 . S
O22 La0 2.554 . S
O22 C9 1.240 . S
O23 La0 2.757 . S
O23 La1 2.482 . S
O23 C9 1.289 . S
O24 La0 2.470 . S
O24 C10 1.258 . S
O25 La1 2.503 . S
O25 C10 1.256 . S
O26 La1 2.521 . S
O26 C11 1.261 . S
O27 La1 2.628 . S
O27 C11 1.243 . S
O28 La1 2.554 . S
O28 C18 1.240 . S
O29 La0 2.482 . S
O29 La1 2.757 . S
O29 C18 1.289 . S
O30 La1 2.470 . S
O30 C19 1.258 . S
O31 La0 2.503 . S
O31 C19 1.256 . S
H32 C4 0.930 . S
H33 C5 0.930 . S
H34 C7 0.929 . S
H35 C8 0.929 . S
H36 C13 0.930 . S
H37 C14 0.930 . S
H38 C16 0.929 . S
H39 C17 0.929 . S
La40 C42 2.928 . S
La40 O60 2.521 . S
La40 O61 2.628 . S
La40 O62 2.554 . S
La40 O63 2.757 . S
La40 O64 2.470 . S
La40 O69 2.482 . S
La40 O71 2.503 . S
La41 C51 2.928 . S
La41 O63 2.482 . S
La41 O65 2.503 . S
La41 O66 2.521 . S
La41 O67 2.628 . S
La41 O68 2.554 . S
La41 O69 2.757 . S
La41 O70 2.470 . S
C42 La40 2.928 . S
C42 C43 1.503 . S
C42 O60 1.261 . S
C42 O61 1.243 . S
C43 C42 1.503 . S
C43 C44 1.394 . S
C43 C48 1.373 . S
C44 C43 1.394 . S
C44 C45 1.380 . S
C44 H72 0.930 . S
C45 C44 1.380 . S
C45 C46 1.376 . S
C45 H73 0.930 . S
C46 C45 1.376 . S
C46 C47 1.370 . S
C47 C46 1.370 . S
C47 C48 1.396 . S
C47 H74 0.929 . S
C48 C43 1.373 . S
C48 C47 1.396 . S
C48 H75 0.929 . S
C49 O62 1.240 . S
C49 O63 1.289 . S
C50 O64 1.258 . S
C50 O65 1.256 . S
C51 La41 2.928 . S
C51 C52 1.503 . S
C51 O66 1.261 . S
C51 O67 1.243 . S
C52 C51 1.503 . S
C52 C53 1.394 . S
C52 C57 1.373 . S
C53 C52 1.394 . S
C53 C54 1.380 . S
C53 H76 0.930 . S
C54 C53 1.380 . S
C54 C55 1.376 . S
C54 H77 0.930 . S
C55 C54 1.376 . S
C55 C56 1.370 . S
C56 C55 1.370 . S
C56 C57 1.396 . S
C56 H78 0.929 . S
C57 C52 1.373 . S
C57 C56 1.396 . S
C57 H79 0.929 . S
C58 O68 1.240 . S
C58 O69 1.289 . S
C59 O70 1.258 . S
C59 O71 1.256 . S
O60 La40 2.521 . S
O60 C42 1.261 . S
O61 La40 2.628 . S
O61 C42 1.243 . S
O62 La40 2.554 . S
O62 C49 1.240 . S
O63 La40 2.757 . S
O63 La41 2.482 . S
O63 C49 1.289 . S
O64 La40 2.470 . S
O64 C50 1.258 . S
O65 La41 2.503 . S
O65 C50 1.256 . S
O66 La41 2.521 . S
O66 C51 1.261 . S
O67 La41 2.628 . S
O67 C51 1.243 . S
O68 La41 2.554 . S
O68 C58 1.240 . S
O69 La40 2.482 . S
O69 La41 2.757 . S
O69 C58 1.289 . S
O70 La41 2.470 . S
O70 C59 1.258 . S
O71 La40 2.503 . S
O71 C59 1.256 . S
H72 C44 0.930 . S
H73 C45 0.930 . S
H74 C47 0.929 . S
H75 C48 0.929 . S
H76 C53 0.930 . S
H77 C54 0.930 . S
H78 C56 0.929 . S
H79 C57 0.929 . S
La80 C82 2.928 . S
La80 O100 2.521 . S
La80 O101 2.628 . S
La80 O102 2.554 . S
La80 O103 2.757 . S
La80 O104 2.470 . S
La80 O109 2.482 . S
La80 O111 2.503 . S
La81 C91 2.928 1_556 S
La81 O103 2.482 . S
La81 O105 2.503 . S
La81 O106 2.521 1_556 S
La81 O107 2.628 1_556 S
La81 O108 2.554 . S
La81 O109 2.757 . S
La81 O110 2.470 . S
C82 La80 2.928 . S
C82 C83 1.503 . S
C82 O100 1.261 . S
C82 O101 1.243 . S
C83 C82 1.503 . S
C83 C84 1.394 . S
C83 C88 1.373 . S
C84 C83 1.394 . S
C84 C85 1.380 . S
C84 H112 0.930 . S
C85 C84 1.380 . S
C85 C86 1.376 . S
C85 H113 0.930 . S
C86 C85 1.376 . S
C86 C87 1.370 . S
C87 C86 1.370 . S
C87 C88 1.396 . S
C87 H114 0.929 . S
C88 C83 1.373 . S
C88 C87 1.396 . S
C88 H115 0.929 . S
C89 O102 1.240 . S
C89 O103 1.289 . S
C90 O104 1.258 . S
C90 O105 1.256 . S
C91 La81 2.928 1_554 S
C91 C92 1.503 . S
C91 O106 1.261 . S
C91 O107 1.243 . S
C92 C91 1.503 . S
C92 C93 1.394 . S
C92 C97 1.373 . S
C93 C92 1.394 . S
C93 C94 1.380 . S
C93 H116 0.930 . S
C94 C93 1.380 . S
C94 C95 1.376 . S
C94 H117 0.930 . S
C95 C94 1.376 . S
C95 C96 1.370 . S
C96 C95 1.370 . S
C96 C97 1.396 . S
C96 H118 0.929 . S
C97 C92 1.373 . S
C97 C96 1.396 . S
C97 H119 0.929 . S
C98 O108 1.240 . S
C98 O109 1.289 . S
C99 O110 1.258 . S
C99 O111 1.256 . S
O100 La80 2.521 . S
O100 C82 1.261 . S
O101 La80 2.628 . S
O101 C82 1.243 . S
O102 La80 2.554 . S
O102 C89 1.240 . S
O103 La80 2.757 . S
O103 La81 2.482 . S
O103 C89 1.289 . S
O104 La80 2.470 . S
O104 C90 1.258 . S
O105 La81 2.503 . S
O105 C90 1.256 . S
O106 La81 2.521 1_554 S
O106 C91 1.261 . S
O107 La81 2.628 1_554 S
O107 C91 1.243 . S
O108 La81 2.554 . S
O108 C98 1.240 . S
O109 La80 2.482 . S
O109 La81 2.757 . S
O109 C98 1.289 . S
O110 La81 2.470 . S
O110 C99 1.258 . S
O111 La80 2.503 . S
O111 C99 1.256 . S
H112 C84 0.930 . S
H113 C85 0.930 . S
H114 C87 0.929 . S
H115 C88 0.929 . S
H116 C93 0.930 . S
H117 C94 0.930 . S
H118 C96 0.929 . S
H119 C97 0.929 . S
La120 C122 2.928 . S
La120 O140 2.521 . S
La120 O141 2.628 . S
La120 O142 2.554 . S
La120 O143 2.757 . S
La120 O144 2.470 . S
La120 O149 2.482 . S
La120 O151 2.503 . S
La121 C131 2.928 1_554 S
La121 O143 2.482 . S
La121 O145 2.503 . S
La121 O146 2.521 1_554 S
La121 O147 2.628 1_554 S
La121 O148 2.554 . S
La121 O149 2.757 . S
La121 O150 2.470 . S
C122 La120 2.928 . S
C122 C123 1.503 . S
C122 O140 1.261 . S
C122 O141 1.243 . S
C123 C122 1.503 . S
C123 C124 1.394 . S
C123 C128 1.373 . S
C124 C123 1.394 . S
C124 C125 1.380 . S
C124 H152 0.930 . S
C125 C124 1.380 . S
C125 C126 1.376 . S
C125 H153 0.930 . S
C126 C125 1.376 . S
C126 C127 1.370 . S
C127 C126 1.370 . S
C127 C128 1.396 . S
C127 H154 0.929 . S
C128 C123 1.373 . S
C128 C127 1.396 . S
C128 H155 0.929 . S
C129 O142 1.240 . S
C129 O143 1.289 . S
C130 O144 1.258 . S
C130 O145 1.256 . S
C131 La121 2.928 1_556 S
C131 C132 1.503 . S
C131 O146 1.261 . S
C131 O147 1.243 . S
C132 C131 1.503 . S
C132 C133 1.394 . S
C132 C137 1.373 . S
C133 C132 1.394 . S
C133 C134 1.380 . S
C133 H156 0.930 . S
C134 C133 1.380 . S
C134 C135 1.376 . S
C134 H157 0.930 . S
C135 C134 1.376 . S
C135 C136 1.370 . S
C136 C135 1.370 . S
C136 C137 1.396 . S
C136 H158 0.929 . S
C137 C132 1.373 . S
C137 C136 1.396 . S
C137 H159 0.929 . S
C138 O148 1.240 . S
C138 O149 1.289 . S
C139 O150 1.258 . S
C139 O151 1.256 . S
O140 La120 2.521 . S
O140 C122 1.261 . S
O141 La120 2.628 . S
O141 C122 1.243 . S
O142 La120 2.554 . S
O142 C129 1.240 . S
O143 La120 2.757 . S
O143 La121 2.482 . S
O143 C129 1.289 . S
O144 La120 2.470 . S
O144 C130 1.258 . S
O145 La121 2.503 . S
O145 C130 1.256 . S
O146 La121 2.521 1_556 S
O146 C131 1.261 . S
O147 La121 2.628 1_556 S
O147 C131 1.243 . S
O148 La121 2.554 . S
O148 C138 1.240 . S
O149 La120 2.482 . S
O149 La121 2.757 . S
O149 C138 1.289 . S
O150 La121 2.470 . S
O150 C139 1.258 . S
O151 La120 2.503 . S
O151 C139 1.256 . S
H152 C124 0.930 . S
H153 C125 0.930 . S
H154 C127 0.929 . S
H155 C128 0.929 . S
H156 C133 0.930 . S
H157 C134 0.930 . S
H158 C136 0.929 . S
H159 C137 0.929 . S
La160 C162 2.928 . S
La160 O180 2.521 . S
La160 O181 2.628 . S
La160 O182 2.554 . S
La160 O183 2.757 . S
La160 O184 2.470 . S
La160 O189 2.482 . S
La160 O191 2.503 . S
La161 C171 2.928 . S
La161 O183 2.482 . S
La161 O185 2.503 . S
La161 O186 2.521 . S
La161 O187 2.628 . S
La161 O188 2.554 . S
La161 O189 2.757 . S
La161 O190 2.470 . S
C162 La160 2.928 . S
C162 C163 1.503 . S
C162 O180 1.261 . S
C162 O181 1.243 . S
C163 C162 1.503 . S
C163 C164 1.394 . S
C163 C168 1.373 . S
C164 C163 1.394 . S
C164 C165 1.380 . S
C164 H192 0.930 . S
C165 C164 1.380 . S
C165 C166 1.376 . S
C165 H193 0.930 . S
C166 C165 1.376 . S
C166 C167 1.370 . S
C167 C166 1.370 . S
C167 C168 1.396 . S
C167 H194 0.929 . S
C168 C163 1.373 . S
C168 C167 1.396 . S
C168 H195 0.929 . S
C169 O182 1.240 . S
C169 O183 1.289 . S
C170 O184 1.258 . S
C170 O185 1.256 . S
C171 La161 2.928 . S
C171 C172 1.503 . S
C171 O186 1.261 . S
C171 O187 1.243 . S
C172 C171 1.503 . S
C172 C173 1.394 . S
C172 C177 1.373 . S
C173 C172 1.394 . S
C173 C174 1.380 . S
C173 H196 0.930 . S
C174 C173 1.380 . S
C174 C175 1.376 . S
C174 H197 0.930 . S
C175 C174 1.376 . S
C175 C176 1.370 . S
C176 C175 1.370 . S
C176 C177 1.396 . S
C176 H198 0.929 . S
C177 C172 1.373 . S
C177 C176 1.396 . S
C177 H199 0.929 . S
C178 O188 1.240 . S
C178 O189 1.289 . S
C179 O190 1.258 . S
C179 O191 1.256 . S
O180 La160 2.521 . S
O180 C162 1.261 . S
O181 La160 2.628 . S
O181 C162 1.243 . S
O182 La160 2.554 . S
O182 C169 1.240 . S
O183 La160 2.757 . S
O183 La161 2.482 . S
O183 C169 1.289 . S
O184 La160 2.470 . S
O184 C170 1.258 . S
O185 La161 2.503 . S
O185 C170 1.256 . S
O186 La161 2.521 . S
O186 C171 1.261 . S
O187 La161 2.628 . S
O187 C171 1.243 . S
O188 La161 2.554 . S
O188 C178 1.240 . S
O189 La160 2.482 . S
O189 La161 2.757 . S
O189 C178 1.289 . S
O190 La161 2.470 . S
O190 C179 1.258 . S
O191 La160 2.503 . S
O191 C179 1.256 . S
H192 C164 0.930 . S
H193 C165 0.930 . S
H194 C167 0.929 . S
H195 C168 0.929 . S
H196 C173 0.930 . S
H197 C174 0.930 . S
H198 C176 0.929 . S
H199 C177 0.929 . S
La200 C202 2.928 . S
La200 O220 2.521 . S
La200 O221 2.628 . S
La200 O222 2.554 . S
La200 O223 2.757 . S
La200 O224 2.470 . S
La200 O229 2.482 . S
La200 O231 2.503 . S
La201 C211 2.928 . S
La201 O223 2.482 . S
La201 O225 2.503 . S
La201 O226 2.521 . S
La201 O227 2.628 . S
La201 O228 2.554 . S
La201 O229 2.757 . S
La201 O230 2.470 . S
C202 La200 2.928 . S
C202 C203 1.503 1_556 S
C202 O220 1.261 . S
C202 O221 1.243 . S
C203 C202 1.503 1_554 S
C203 C204 1.394 . S
C203 C208 1.373 . S
C204 C203 1.394 . S
C204 C205 1.380 . S
C204 H232 0.930 . S
C205 C204 1.380 . S
C205 C206 1.376 . S
C205 H233 0.930 . S
C206 C205 1.376 . S
C206 C207 1.370 . S
C207 C206 1.370 . S
C207 C208 1.396 . S
C207 H234 0.929 . S
C208 C203 1.373 . S
C208 C207 1.396 . S
C208 H235 0.929 . S
C209 O222 1.240 . S
C209 O223 1.289 . S
C210 O224 1.258 . S
C210 O225 1.256 . S
C211 La201 2.928 . S
C211 C212 1.503 . S
C211 O226 1.261 . S
C211 O227 1.243 . S
C212 C211 1.503 . S
C212 C213 1.394 . S
C212 C217 1.373 . S
C213 C212 1.394 . S
C213 C214 1.380 . S
C213 H236 0.930 . S
C214 C213 1.380 . S
C214 C215 1.376 . S
C214 H237 0.930 . S
C215 C214 1.376 . S
C215 C216 1.370 . S
C216 C215 1.370 . S
C216 C217 1.396 . S
C216 H238 0.929 . S
C217 C212 1.373 . S
C217 C216 1.396 . S
C217 H239 0.929 . S
C218 O228 1.240 . S
C218 O229 1.289 . S
C219 O230 1.258 . S
C219 O231 1.256 . S
O220 La200 2.521 . S
O220 C202 1.261 . S
O221 La200 2.628 . S
O221 C202 1.243 . S
O222 La200 2.554 . S
O222 C209 1.240 . S
O223 La200 2.757 . S
O223 La201 2.482 . S
O223 C209 1.289 . S
O224 La200 2.470 . S
O224 C210 1.258 . S
O225 La201 2.503 . S
O225 C210 1.256 . S
O226 La201 2.521 . S
O226 C211 1.261 . S
O227 La201 2.628 . S
O227 C211 1.243 . S
O228 La201 2.554 . S
O228 C218 1.240 . S
O229 La200 2.482 . S
O229 La201 2.757 . S
O229 C218 1.289 . S
O230 La201 2.470 . S
O230 C219 1.258 . S
O231 La200 2.503 . S
O231 C219 1.256 . S
H232 C204 0.930 . S
H233 C205 0.930 . S
H234 C207 0.929 . S
H235 C208 0.929 . S
H236 C213 0.930 . S
H237 C214 0.930 . S
H238 C216 0.929 . S
H239 C217 0.929 . S
C240 C241 1.387 . S
C240 H244 0.950 . S
C240 C249 1.390 1_556 S
C241 C240 1.387 . S
C241 C243 1.387 . S
H242 C249 0.950 . S
C243 C241 1.387 . S
C243 C245 1.390 1_556 S
C243 H247 0.950 . S
H244 C240 0.950 . S
C245 C243 1.390 1_554 S
C245 C246 1.387 . S
C245 H248 0.950 . S
C246 C245 1.387 . S
C246 C249 1.387 . S
H247 C243 0.950 . S
H248 C245 0.950 . S
C249 C240 1.390 1_554 S
C249 H242 0.950 . S
C249 C246 1.387 . S
C250 C251 1.387 . S
C250 H254 0.950 . S
C250 C259 1.390 1_455 S
C251 C250 1.387 . S
C251 C253 1.387 . S
H252 C259 0.950 . S
C253 C251 1.387 . S
C253 C255 1.390 1_455 S
C253 H257 0.950 . S
H254 C250 0.950 . S
C255 C253 1.390 1_655 S
C255 C256 1.387 . S
C255 H258 0.950 . S
C256 C255 1.387 . S
C256 C259 1.387 . S
H257 C253 0.950 . S
H258 C255 0.950 . S
C259 C250 1.390 1_655 S
C259 H252 0.950 . S
C259 C256 1.387 . S
C260 C261 1.387 . S
C260 H264 0.950 . S
C260 C269 1.390 . S
C261 C260 1.387 . S
C261 C263 1.387 1_545 S
H262 C269 0.950 . S
C263 C261 1.387 1_565 S
C263 C265 1.390 . S
C263 H267 0.950 . S
H264 C260 0.950 . S
C265 C263 1.390 . S
C265 C266 1.387 . S
C265 H268 0.950 . S
C266 C265 1.387 . S
C266 C269 1.387 1_565 S
H267 C263 0.950 . S
H268 C265 0.950 . S
C269 C260 1.390 . S
C269 H262 0.950 . S
C269 C266 1.387 1_545 S
C270 C271 1.387 1_554 S
C270 H274 0.950 . S
C270 C279 1.390 . S
C271 C270 1.387 1_556 S
C271 C273 1.387 . S
H272 C279 0.950 . S
C273 C271 1.387 . S
C273 C275 1.390 . S
C273 H277 0.950 . S
H274 C270 0.950 . S
C275 C273 1.390 . S
C275 C276 1.387 1_556 S
C275 H278 0.950 . S
C276 C275 1.387 1_554 S
C276 C279 1.387 . S
H277 C273 0.950 . S
H278 C275 0.950 . S
C279 C270 1.390 . S
C279 H272 0.950 . S
C279 C276 1.387 . S
C280 C281 1.387 . S
C280 H284 0.950 . S
C280 C289 1.390 . S
C281 C280 1.387 . S
C281 C283 1.387 1_455 S
H282 C289 0.950 . S
C283 C281 1.387 1_655 S
C283 C285 1.390 . S
C283 H287 0.950 . S
H284 C280 0.950 . S
C285 C283 1.390 . S
C285 C286 1.387 . S
C285 H288 0.950 . S
C286 C285 1.387 . S
C286 C289 1.387 1_655 S
H287 C283 0.950 . S
H288 C285 0.950 . S
C289 C280 1.390 . S
C289 H282 0.950 . S
C289 C286 1.387 1_455 S
C290 C291 1.387 . S
C290 H294 0.950 . S
C290 C299 1.390 1_545 S
C291 C290 1.387 . S
C291 C293 1.387 . S
H292 C299 0.950 . S
C293 C291 1.387 . S
C293 C295 1.390 1_545 S
C293 H297 0.950 . S
H294 C290 0.950 . S
C295 C293 1.390 1_565 S
C295 C296 1.387 . S
C295 H298 0.950 . S
C296 C295 1.387 . S
C296 C299 1.387 . S
H297 C293 0.950 . S
H298 C295 0.950 . S
C299 C290 1.390 1_565 S
C299 H292 0.950 . S
C299 C296 1.387 . S
C300 C301 1.387 . S
C300 H304 0.950 . S
C300 C309 1.390 . S
C301 C300 1.387 . S
C301 C303 1.387 . S
H302 C309 0.950 . S
C303 C301 1.387 . S
C303 C305 1.390 . S
C303 H307 0.950 . S
H304 C300 0.950 . S
C305 C303 1.390 . S
C305 C306 1.387 . S
C305 H308 0.950 . S
C306 C305 1.387 . S
C306 C309 1.387 . S
H307 C303 0.950 . S
H308 C305 0.950 . S
C309 C300 1.390 . S
C309 H302 0.950 . S
C309 C306 1.387 . S
C310 C311 1.387 . S
C310 H314 0.950 . S
C310 C319 1.390 . S
C311 C310 1.387 . S
C311 C313 1.387 . S
H312 C319 0.950 . S
C313 C311 1.387 . S
C313 C315 1.390 . S
C313 H317 0.950 . S
H314 C310 0.950 . S
C315 C313 1.390 . S
C315 C316 1.387 . S
C315 H318 0.950 . S
C316 C315 1.387 . S
C316 C319 1.387 . S
H317 C313 0.950 . S
H318 C315 0.950 . S
C319 C310 1.390 . S
C319 H312 0.950 . S
C319 C316 1.387 . S
C320 C321 1.387 . S
C320 H324 0.950 . S
C320 C329 1.390 . S
C321 C320 1.387 . S
C321 C323 1.387 . S
H322 C329 0.950 . S
C323 C321 1.387 . S
C323 C325 1.390 . S
C323 H327 0.950 . S
H324 C320 0.950 . S
C325 C323 1.390 . S
C325 C326 1.387 . S
C325 H328 0.950 . S
C326 C325 1.387 . S
C326 C329 1.387 . S
H327 C323 0.950 . S
H328 C325 0.950 . S
C329 C320 1.390 . S
C329 H322 0.950 . S
C329 C326 1.387 . S
C330 C331 1.387 . S
C330 H334 0.950 . S
C330 C339 1.390 . S
C331 C330 1.387 . S
C331 C333 1.387 . S
H332 C339 0.950 . S
C333 C331 1.387 . S
C333 C335 1.390 . S
C333 H337 0.950 . S
H334 C330 0.950 . S
C335 C333 1.390 . S
C335 C336 1.387 . S
C335 H338 0.950 . S
C336 C335 1.387 . S
C336 C339 1.387 . S
H337 C333 0.950 . S
H338 C335 0.950 . S
C339 C330 1.390 . S
C339 H332 0.950 . S
C339 C336 1.387 . S
C340 C341 1.387 . S
C340 H344 0.950 . S
C340 C349 1.390 . S
C341 C340 1.387 . S
C341 C343 1.387 . S
H342 C349 0.950 . S
C343 C341 1.387 . S
C343 C345 1.390 . S
C343 H347 0.950 . S
H344 C340 0.950 . S
C345 C343 1.390 . S
C345 C346 1.387 . S
C345 H348 0.950 . S
C346 C345 1.387 . S
C346 C349 1.387 . S
H347 C343 0.950 . S
H348 C345 0.950 . S
C349 C340 1.390 . S
C349 H342 0.950 . S
C349 C346 1.387 . S
C350 C351 1.387 . S
C350 H354 0.950 . S
C350 C359 1.390 . S
C351 C350 1.387 . S
C351 C353 1.387 . S
H352 C359 0.950 . S
C353 C351 1.387 . S
C353 C355 1.390 . S
C353 H357 0.950 . S
H354 C350 0.950 . S
C355 C353 1.390 . S
C355 C356 1.387 . S
C355 H358 0.950 . S
C356 C355 1.387 . S
C356 C359 1.387 . S
H357 C353 0.950 . S
H358 C355 0.950 . S
C359 C350 1.390 . S
C359 H352 0.950 . S
C359 C356 1.387 . S
C360 C361 1.387 . S
C360 H364 0.950 . S
C360 C369 1.390 . S
C361 C360 1.387 . S
C361 C363 1.387 . S
H362 C369 0.950 . S
C363 C361 1.387 . S
C363 C365 1.390 . S
C363 H367 0.950 . S
H364 C360 0.950 . S
C365 C363 1.390 . S
C365 C366 1.387 . S
C365 H368 0.950 . S
C366 C365 1.387 . S
C366 C369 1.387 . S
H367 C363 0.950 . S
H368 C365 0.950 . S
C369 C360 1.390 . S
C369 H362 0.950 . S
C369 C366 1.387 . S
C370 C371 1.387 . S
C370 H374 0.950 . S
C370 C379 1.390 . S
C371 C370 1.387 . S
C371 C373 1.387 . S
H372 C379 0.950 . S
C373 C371 1.387 . S
C373 C375 1.390 . S
C373 H377 0.950 . S
H374 C370 0.950 . S
C375 C373 1.390 . S
C375 C376 1.387 . S
C375 H378 0.950 . S
C376 C375 1.387 . S
C376 C379 1.387 . S
H377 C373 0.950 . S
H378 C375 0.950 . S
C379 C370 1.390 . S
C379 H372 0.950 . S
C379 C376 1.387 . S
C380 C381 1.387 . S
C380 H384 0.950 . S
C380 C389 1.390 . S
C381 C380 1.387 . S
C381 C383 1.387 . S
H382 C389 0.950 . S
C383 C381 1.387 . S
C383 C385 1.390 . S
C383 H387 0.950 . S
H384 C380 0.950 . S
C385 C383 1.390 . S
C385 C386 1.387 . S
C385 H388 0.950 . S
C386 C385 1.387 . S
C386 C389 1.387 . S
H387 C383 0.950 . S
H388 C385 0.950 . S
C389 C380 1.390 . S
C389 H382 0.950 . S
C389 C386 1.387 . S
C390 C391 1.387 . S
C390 H394 0.950 . S
C390 C399 1.390 . S
C391 C390 1.387 . S
C391 C393 1.387 . S
H392 C399 0.950 . S
C393 C391 1.387 . S
C393 C395 1.390 . S
C393 H397 0.950 . S
H394 C390 0.950 . S
C395 C393 1.390 . S
C395 C396 1.387 . S
C395 H398 0.950 . S
C396 C395 1.387 . S
C396 C399 1.387 . S
H397 C393 0.950 . S
H398 C395 0.950 . S
C399 C390 1.390 . S
C399 H392 0.950 . S
C399 C396 1.387 . S
C400 C401 1.387 . S
C400 H404 0.950 . S
C400 C409 1.390 . S
C401 C400 1.387 . S
C401 C403 1.387 . S
H402 C409 0.950 . S
C403 C401 1.387 . S
C403 C405 1.390 . S
C403 H407 0.950 . S
H404 C400 0.950 . S
C405 C403 1.390 . S
C405 C406 1.387 . S
C405 H408 0.950 . S
C406 C405 1.387 . S
C406 C409 1.387 . S
H407 C403 0.950 . S
H408 C405 0.950 . S
C409 C400 1.390 . S
C409 H402 0.950 . S
C409 C406 1.387 . S
C410 C411 1.387 . S
C410 H414 0.950 . S
C410 C419 1.390 . S
C411 C410 1.387 . S
C411 C413 1.387 . S
H412 C419 0.950 . S
C413 C411 1.387 . S
C413 C415 1.390 . S
C413 H417 0.950 . S
H414 C410 0.950 . S
C415 C413 1.390 . S
C415 C416 1.387 . S
C415 H418 0.950 . S
C416 C415 1.387 . S
C416 C419 1.387 . S
H417 C413 0.950 . S
H418 C415 0.950 . S
C419 C410 1.390 . S
C419 H412 0.950 . S
C419 C416 1.387 . S
C241 C210 2.021 . S
C246 C10 2.021 . S
C251 C9 1.444 . S
C256 C49 1.446 . S
C261 C50 2.023 . S
C266 C90 2.023 . S
C271 C89 1.445 . S
C276 C129 1.442 . S
C281 C170 2.021 . S
C286 C130 2.021 . S
C291 C209 1.443 . S
C296 C169 1.442 . S
C301 C6 1.951 . S
C306 C15 1.951 . S
C311 C55 1.951 1_556 S
C316 C46 1.951 . S
C321 C86 1.951 . S
C326 C95 1.951 . S
C331 C135 1.955 . S
C336 C126 1.955 . S
C341 C175 1.951 1_554 S
C346 C166 1.951 . S
C351 C215 1.953 . S
C356 C206 1.953 . S
C361 C19 1.972 . S
C366 C178 1.960 . S
C371 C58 1.961 . S
C376 C219 1.972 . S
C381 C18 1.960 . S
C386 C99 1.972 1_554 S
C391 C59 1.972 . S
C396 C138 1.961 . S
C401 C179 1.972 . S
C406 C98 1.960 . S
C411 C139 1.972 1_556 S
C416 C218 1.960 . S
